# Generated by pormake.
# Topology ptr, (4,4)-cn, num edge types: 1
# Building blocks:
#     Node 0, Type 0, BuildingBlock: QUQFOY_clean_sbu_1, # of connection points: 4
#     Node 1, Type 0, BuildingBlock: QUQFOY_clean_sbu_1, # of connection points: 4
#     Node 2, Type 0, BuildingBlock: QUQFOY_clean_sbu_1, # of connection points: 4
#     Node 3, Type 0, BuildingBlock: QUQFOY_clean_sbu_1, # of connection points: 4
#     Node 4, Type 0, BuildingBlock: QUQFOY_clean_sbu_1, # of connection points: 4
#     Node 5, Type 0, BuildingBlock: QUQFOY_clean_sbu_1, # of connection points: 4
#     Node 6, Type 0, BuildingBlock: QUQFOY_clean_sbu_1, # of connection points: 4
#     Node 7, Type 0, BuildingBlock: QUQFOY_clean_sbu_1, # of connection points: 4
#     Node 8, Type 0, BuildingBlock: QUQFOY_clean_sbu_1, # of connection points: 4
#     Node 9, Type 0, BuildingBlock: QUQFOY_clean_sbu_1, # of connection points: 4
#     Node 10, Type 0, BuildingBlock: QUQFOY_clean_sbu_1, # of connection points: 4
#     Node 11, Type 0, BuildingBlock: QUQFOY_clean_sbu_1, # of connection points: 4
#     Node 12, Type 0, BuildingBlock: QUQFOY_clean_sbu_1, # of connection points: 4
#     Node 13, Type 0, BuildingBlock: QUQFOY_clean_sbu_1, # of connection points: 4
#     Node 14, Type 0, BuildingBlock: QUQFOY_clean_sbu_1, # of connection points: 4
#     Node 15, Type 0, BuildingBlock: QUQFOY_clean_sbu_1, # of connection points: 4
#     Node 16, Type 0, BuildingBlock: QUQFOY_clean_sbu_1, # of connection points: 4
#     Node 17, Type 0, BuildingBlock: QUQFOY_clean_sbu_1, # of connection points: 4
#     Node 18, Type 1, BuildingBlock: MUDLON_clean_linker_0, # of connection points: 4
#     Node 19, Type 1, BuildingBlock: MUDLON_clean_linker_0, # of connection points: 4
#     Node 20, Type 1, BuildingBlock: MUDLON_clean_linker_0, # of connection points: 4
#     Node 21, Type 1, BuildingBlock: MUDLON_clean_linker_0, # of connection points: 4
#     Node 22, Type 1, BuildingBlock: MUDLON_clean_linker_0, # of connection points: 4
#     Node 23, Type 1, BuildingBlock: MUDLON_clean_linker_0, # of connection points: 4
#     Node 24, Type 1, BuildingBlock: MUDLON_clean_linker_0, # of connection points: 4
#     Node 25, Type 1, BuildingBlock: MUDLON_clean_linker_0, # of connection points: 4
#     Node 26, Type 1, BuildingBlock: MUDLON_clean_linker_0, # of connection points: 4
#     Node 27, Type 1, BuildingBlock: MUDLON_clean_linker_0, # of connection points: 4
#     Node 28, Type 1, BuildingBlock: MUDLON_clean_linker_0, # of connection points: 4
#     Node 29, Type 1, BuildingBlock: MUDLON_clean_linker_0, # of connection points: 4
#     Node 30, Type 1, BuildingBlock: MUDLON_clean_linker_0, # of connection points: 4
#     Node 31, Type 1, BuildingBlock: MUDLON_clean_linker_0, # of connection points: 4
#     Node 32, Type 1, BuildingBlock: MUDLON_clean_linker_0, # of connection points: 4
#     Node 33, Type 1, BuildingBlock: MUDLON_clean_linker_0, # of connection points: 4
#     Node 34, Type 1, BuildingBlock: MUDLON_clean_linker_0, # of connection points: 4
#     Node 35, Type 1, BuildingBlock: MUDLON_clean_linker_0, # of connection points: 4
#     Edge 36, Type (0, 1), BuildingBlock: UVAHIK_clean_linker_0, # of connection points: 2
#     Edge 37, Type (0, 1), BuildingBlock: UVAHIK_clean_linker_0, # of connection points: 2
#     Edge 38, Type (0, 1), BuildingBlock: UVAHIK_clean_linker_0, # of connection points: 2
#     Edge 39, Type (0, 1), BuildingBlock: UVAHIK_clean_linker_0, # of connection points: 2
#     Edge 40, Type (0, 1), BuildingBlock: UVAHIK_clean_linker_0, # of connection points: 2
#     Edge 41, Type (0, 1), BuildingBlock: UVAHIK_clean_linker_0, # of connection points: 2
#     Edge 42, Type (0, 1), BuildingBlock: UVAHIK_clean_linker_0, # of connection points: 2
#     Edge 43, Type (0, 1), BuildingBlock: UVAHIK_clean_linker_0, # of connection points: 2
#     Edge 44, Type (0, 1), BuildingBlock: UVAHIK_clean_linker_0, # of connection points: 2
#     Edge 45, Type (0, 1), BuildingBlock: UVAHIK_clean_linker_0, # of connection points: 2
#     Edge 46, Type (0, 1), BuildingBlock: UVAHIK_clean_linker_0, # of connection points: 2
#     Edge 47, Type (0, 1), BuildingBlock: UVAHIK_clean_linker_0, # of connection points: 2
#     Edge 48, Type (0, 1), BuildingBlock: UVAHIK_clean_linker_0, # of connection points: 2
#     Edge 49, Type (0, 1), BuildingBlock: UVAHIK_clean_linker_0, # of connection points: 2
#     Edge 50, Type (0, 1), BuildingBlock: UVAHIK_clean_linker_0, # of connection points: 2
#     Edge 51, Type (0, 1), BuildingBlock: UVAHIK_clean_linker_0, # of connection points: 2
#     Edge 52, Type (0, 1), BuildingBlock: UVAHIK_clean_linker_0, # of connection points: 2
#     Edge 53, Type (0, 1), BuildingBlock: UVAHIK_clean_linker_0, # of connection points: 2
#     Edge 54, Type (0, 1), BuildingBlock: UVAHIK_clean_linker_0, # of connection points: 2
#     Edge 55, Type (0, 1), BuildingBlock: UVAHIK_clean_linker_0, # of connection points: 2
#     Edge 56, Type (0, 1), BuildingBlock: UVAHIK_clean_linker_0, # of connection points: 2
#     Edge 57, Type (0, 1), BuildingBlock: UVAHIK_clean_linker_0, # of connection points: 2
#     Edge 58, Type (0, 1), BuildingBlock: UVAHIK_clean_linker_0, # of connection points: 2
#     Edge 59, Type (0, 1), BuildingBlock: UVAHIK_clean_linker_0, # of connection points: 2
#     Edge 60, Type (0, 1), BuildingBlock: UVAHIK_clean_linker_0, # of connection points: 2
#     Edge 61, Type (0, 1), BuildingBlock: UVAHIK_clean_linker_0, # of connection points: 2
#     Edge 62, Type (0, 1), BuildingBlock: UVAHIK_clean_linker_0, # of connection points: 2
#     Edge 63, Type (0, 1), BuildingBlock: UVAHIK_clean_linker_0, # of connection points: 2
#     Edge 64, Type (0, 1), BuildingBlock: UVAHIK_clean_linker_0, # of connection points: 2
#     Edge 65, Type (0, 1), BuildingBlock: UVAHIK_clean_linker_0, # of connection points: 2
#     Edge 66, Type (0, 1), BuildingBlock: UVAHIK_clean_linker_0, # of connection points: 2
#     Edge 67, Type (0, 1), BuildingBlock: UVAHIK_clean_linker_0, # of connection points: 2
#     Edge 68, Type (0, 1), BuildingBlock: UVAHIK_clean_linker_0, # of connection points: 2
#     Edge 69, Type (0, 1), BuildingBlock: UVAHIK_clean_linker_0, # of connection points: 2
#     Edge 70, Type (0, 1), BuildingBlock: UVAHIK_clean_linker_0, # of connection points: 2
#     Edge 71, Type (0, 1), BuildingBlock: UVAHIK_clean_linker_0, # of connection points: 2
#     Edge 72, Type (0, 1), BuildingBlock: UVAHIK_clean_linker_0, # of connection points: 2
#     Edge 73, Type (0, 1), BuildingBlock: UVAHIK_clean_linker_0, # of connection points: 2
#     Edge 74, Type (0, 1), BuildingBlock: UVAHIK_clean_linker_0, # of connection points: 2
#     Edge 75, Type (0, 1), BuildingBlock: UVAHIK_clean_linker_0, # of connection points: 2
#     Edge 76, Type (0, 1), BuildingBlock: UVAHIK_clean_linker_0, # of connection points: 2
#     Edge 77, Type (0, 1), BuildingBlock: UVAHIK_clean_linker_0, # of connection points: 2
#     Edge 78, Type (0, 1), BuildingBlock: UVAHIK_clean_linker_0, # of connection points: 2
#     Edge 79, Type (0, 1), BuildingBlock: UVAHIK_clean_linker_0, # of connection points: 2
#     Edge 80, Type (0, 1), BuildingBlock: UVAHIK_clean_linker_0, # of connection points: 2
#     Edge 81, Type (0, 1), BuildingBlock: UVAHIK_clean_linker_0, # of connection points: 2
#     Edge 82, Type (0, 1), BuildingBlock: UVAHIK_clean_linker_0, # of connection points: 2
#     Edge 83, Type (0, 1), BuildingBlock: UVAHIK_clean_linker_0, # of connection points: 2
#     Edge 84, Type (0, 1), BuildingBlock: UVAHIK_clean_linker_0, # of connection points: 2
#     Edge 85, Type (0, 1), BuildingBlock: UVAHIK_clean_linker_0, # of connection points: 2
#     Edge 86, Type (0, 1), BuildingBlock: UVAHIK_clean_linker_0, # of connection points: 2
#     Edge 87, Type (0, 1), BuildingBlock: UVAHIK_clean_linker_0, # of connection points: 2
#     Edge 88, Type (0, 1), BuildingBlock: UVAHIK_clean_linker_0, # of connection points: 2
#     Edge 89, Type (0, 1), BuildingBlock: UVAHIK_clean_linker_0, # of connection points: 2
#     Edge 90, Type (0, 1), BuildingBlock: UVAHIK_clean_linker_0, # of connection points: 2
#     Edge 91, Type (0, 1), BuildingBlock: UVAHIK_clean_linker_0, # of connection points: 2
#     Edge 92, Type (0, 1), BuildingBlock: UVAHIK_clean_linker_0, # of connection points: 2
#     Edge 93, Type (0, 1), BuildingBlock: UVAHIK_clean_linker_0, # of connection points: 2
#     Edge 94, Type (0, 1), BuildingBlock: UVAHIK_clean_linker_0, # of connection points: 2
#     Edge 95, Type (0, 1), BuildingBlock: UVAHIK_clean_linker_0, # of connection points: 2
#     Edge 96, Type (0, 1), BuildingBlock: UVAHIK_clean_linker_0, # of connection points: 2
#     Edge 97, Type (0, 1), BuildingBlock: UVAHIK_clean_linker_0, # of connection points: 2
#     Edge 98, Type (0, 1), BuildingBlock: UVAHIK_clean_linker_0, # of connection points: 2
#     Edge 99, Type (0, 1), BuildingBlock: UVAHIK_clean_linker_0, # of connection points: 2
#     Edge 100, Type (0, 1), BuildingBlock: UVAHIK_clean_linker_0, # of connection points: 2
#     Edge 101, Type (0, 1), BuildingBlock: UVAHIK_clean_linker_0, # of connection points: 2
#     Edge 102, Type (0, 1), BuildingBlock: UVAHIK_clean_linker_0, # of connection points: 2
#     Edge 103, Type (0, 1), BuildingBlock: UVAHIK_clean_linker_0, # of connection points: 2
#     Edge 104, Type (0, 1), BuildingBlock: UVAHIK_clean_linker_0, # of connection points: 2
#     Edge 105, Type (0, 1), BuildingBlock: UVAHIK_clean_linker_0, # of connection points: 2
#     Edge 106, Type (0, 1), BuildingBlock: UVAHIK_clean_linker_0, # of connection points: 2
#     Edge 107, Type (0, 1), BuildingBlock: UVAHIK_clean_linker_0, # of connection points: 2
# Relax obj value: 0.013
# Max RMSD: 0.036
# Mean RMSD: 0.036
data_MOF--net-ptr--node1-QUQFOY_clean_sbu_1--node2-MUDLON_clean_linker_0--edge1-UVAHIK_clean_linker_0
_symmetry_space_group_name_H-M    P1
_symmetry_Int_Tables_number       1
_symmetry_cell_setting            triclinic
loop_
_symmetry_equiv_pos_as_xyz
'x, y, z'
_cell_length_a     130.35538
_cell_length_b     130.38583
_cell_length_c     78.87497
_cell_angle_alpha  90.008063
_cell_angle_beta   89.995202
_cell_angle_gamma 119.99656
loop_
_atom_site_label
_atom_site_type_symbol
_atom_site_fract_x
_atom_site_fract_y
_atom_site_fract_z
_atom_type_partial_charge
O0 O 0.01164 0.37667 0.0366 0.0
Cd1 Cd 0.01515 0.3692 0.01604 0.0
Cd2 Cd 0.99112 0.35788 0.01325 0.0
O3 O 0.99213 0.36614 0.03619 0.0
O4 O 0.03197 0.37353 0.01964 0.0
O5 O 0.01729 0.35499 0.01922 0.0
C6 C 0.02845 0.36242 0.02118 0.0
C7 C 0.97793 0.33765 0.00965 0.0
C8 C 0.00168 0.37406 0.04299 0.0
C9 C 0.0055 0.37481 0.98526 0.0
O10 O 0.99528 0.36811 0.99152 0.0
O11 O 0.01471 0.37609 0.99271 0.0
O12 O 0.97427 0.34517 0.01056 0.0
O13 O 0.98916 0.34159 0.0113 0.0
O14 O 0.62853 0.63733 0.03743 0.0
Cd15 Cd 0.63488 0.64782 0.016 0.0
Cd16 Cd 0.64765 0.63661 0.01314 0.0
O17 O 0.64037 0.6298 0.03657 0.0
O18 O 0.63107 0.66073 0.01911 0.0
O19 O 0.64941 0.66394 0.01808 0.0
C20 C 0.64231 0.66808 0.02 0.0
C21 C 0.66779 0.64353 0.00818 0.0
C22 C 0.6322 0.6308 0.04383 0.0
C23 C 0.62937 0.63189 0.98609 0.0
O24 O 0.63664 0.62917 0.99254 0.0
O25 O 0.62778 0.63982 0.99292 0.0
O26 O 0.66029 0.63241 0.00987 0.0
O27 O 0.66392 0.65087 0.00975 0.0
O28 O 0.37829 0.01206 0.98924 0.0
Cd29 Cd 0.37084 0.01482 0.01067 0.0
Cd30 Cd 0.35855 0.99092 0.01144 0.0
O31 O 0.36657 0.99269 0.98822 0.0
O32 O 0.37494 0.03172 0.00981 0.0
O33 O 0.35655 0.01678 0.00771 0.0
C34 C 0.36383 0.02806 0.00773 0.0
C35 C 0.33826 0.97793 0.01476 0.0
C36 C 0.37491 0.00219 0.98192 0.0
C37 C 0.37542 0.00309 0.04011 0.0
O38 O 0.36876 0.99333 0.03264 0.0
O39 O 0.37688 0.01274 0.03395 0.0
O40 O 0.34556 0.97411 0.01244 0.0
O41 O 0.34243 0.98924 0.01472 0.0
O42 O 0.99332 0.62764 0.99382 0.0
Cd43 Cd 0.99029 0.63552 0.01445 0.0
Cd44 Cd 0.01434 0.64673 0.01582 0.0
O45 O 0.01276 0.6388 0.9925 0.0
O46 O 0.97361 0.63193 0.01163 0.0
O47 O 0.98896 0.65011 0.01079 0.0
C48 C 0.97765 0.64311 0.00954 0.0
C49 C 0.02841 0.66668 0.02023 0.0
C50 C 0.00308 0.63055 0.98648 0.0
C51 C 1.00052 0.62987 0.0443 0.0
O52 O 0.01044 0.63602 0.03693 0.0
O53 O 0.99119 0.62914 0.03805 0.0
O54 O 0.03142 0.65869 0.01877 0.0
O55 O 0.01733 0.66341 0.01853 0.0
O56 O 0.37857 0.36907 0.99333 0.0
Cd57 Cd 0.37125 0.35805 0.01394 0.0
Cd58 Cd 0.35953 0.37054 0.01677 0.0
O59 O 0.36783 0.37782 0.99395 0.0
O60 O 0.37563 0.34561 0.0102 0.0
O61 O 0.35707 0.34171 0.01067 0.0
C62 C 0.36452 0.33801 0.0086 0.0
C63 C 0.33952 0.36482 0.02019 0.0
C64 C 0.37579 0.37631 0.98701 0.0
C65 C 0.37655 0.37315 0.04484 0.0
O66 O 0.36976 0.37652 0.03848 0.0
O67 O 0.37798 0.36529 0.03742 0.0
O68 O 0.34769 0.37579 0.01976 0.0
O69 O 0.34268 0.35694 0.01824 0.0
O70 O 0.62926 0.99309 0.03579 0.0
Cd71 Cd 0.63671 0.99029 0.01453 0.0
Cd72 Cd 0.64779 0.01409 0.01305 0.0
O73 O 0.63997 0.01257 0.03651 0.0
O74 O 0.63357 0.97372 0.01684 0.0
O75 O 0.6516 0.98935 0.01698 0.0
C76 C 0.64484 0.97801 0.01825 0.0
C77 C 0.66809 0.02664 0.00885 0.0
C78 C 0.63205 0.00288 0.04296 0.0
C79 C 0.63062 1.00059 0.98497 0.0
O80 O 0.63717 0.01062 0.99188 0.0
O81 O 0.6297 0.99125 0.99151 0.0
O82 O 0.66099 0.03077 0.01077 0.0
O83 O 0.66369 0.01531 0.00987 0.0
O84 O 0.67884 0.71128 0.36856 0.0
Cd85 Cd 0.68191 0.70363 0.34776 0.0
Cd86 Cd 0.65794 0.69257 0.3458 0.0
O87 O 0.65933 0.70064 0.36902 0.0
O88 O 0.69872 0.70756 0.35036 0.0
O89 O 0.68367 0.68921 0.35094 0.0
C90 C 0.69494 0.69641 0.35213 0.0
C91 C 0.64506 0.6723 0.34179 0.0
C92 C 0.669 0.70861 0.37547 0.0
C93 C 0.67185 0.70945 0.31761 0.0
O94 O 0.66176 0.70304 0.3244 0.0
O95 O 0.68111 0.71036 0.32443 0.0
O96 O 0.64118 0.67963 0.34309 0.0
O97 O 0.65633 0.67646 0.34336 0.0
O98 O 0.29493 0.97221 0.36972 0.0
Cd99 Cd 0.30136 0.98274 0.34832 0.0
Cd100 Cd 0.31389 0.97141 0.34523 0.0
O101 O 0.30665 0.96454 0.36864 0.0
O102 O 0.29802 0.99596 0.35151 0.0
O103 O 0.31618 0.99866 0.35046 0.0
C104 C 0.30931 0.00307 0.35238 0.0
C105 C 0.33388 0.97784 0.33988 0.0
C106 C 0.29853 0.96558 0.376 0.0
C107 C 0.29551 0.96686 0.31837 0.0
O108 O 0.30277 0.96411 0.32471 0.0
O109 O 0.29402 0.97484 0.32526 0.0
O110 O 0.32613 0.96677 0.34137 0.0
O111 O 0.33036 0.98542 0.34199 0.0
O112 O 0.04394 0.34451 0.32598 0.0
Cd113 Cd 0.03599 0.34713 0.3469 0.0
Cd114 Cd 0.02459 0.32331 0.34779 0.0
O115 O 0.03277 0.32507 0.32465 0.0
O116 O 0.03893 0.36363 0.34495 0.0
O117 O 0.02104 0.34782 0.34339 0.0
C118 C 0.02769 0.3592 0.34274 0.0
C119 C 0.00441 0.30984 0.35138 0.0
C120 C 0.041 0.33475 0.31859 0.0
C121 C 0.04125 0.33642 0.37663 0.0
O122 O 0.03491 0.32658 0.36916 0.0
O123 O 0.0423 0.3459 0.37042 0.0
O124 O 0.01207 0.30637 0.35016 0.0
O125 O 0.00817 0.32104 0.34994 0.0
O126 O 0.66216 0.96199 0.32407 0.0
Cd127 Cd 0.65748 0.96809 0.34524 0.0
Cd128 Cd 0.68182 0.98042 0.3492 0.0
O129 O 0.68159 0.97307 0.32593 0.0
O130 O 0.64038 0.96239 0.34133 0.0
O131 O 0.65381 0.98138 0.34272 0.0
C132 C 0.64291 0.97327 0.34038 0.0
C133 C 0.69587 1.00028 0.35442 0.0
C134 C 0.67243 0.96528 0.3182 0.0
C135 C 0.6672 0.96233 0.37594 0.0
O136 O 0.6774 0.96942 0.36998 0.0
O137 O 0.65795 0.96095 0.36845 0.0
O138 O 0.69879 0.99222 0.35325 0.0
O139 O 0.68488 0.99715 0.35211 0.0
O140 O 0.045 0.70369 0.32483 0.0
Cd141 Cd 0.03816 0.69285 0.34573 0.0
Cd142 Cd 0.02652 0.70536 0.3489 0.0
O143 O 0.03424 0.71241 0.32567 0.0
O144 O 0.04307 0.6808 0.3419 0.0
O145 O 0.02432 0.67622 0.34301 0.0
C146 C 0.03204 0.67288 0.34073 0.0
C147 C 0.0063 0.69806 0.35329 0.0
C148 C 0.04209 0.71084 0.31852 0.0
C149 C 0.04401 0.70842 0.37632 0.0
O150 O 0.03721 0.71183 0.37011 0.0
O151 O 0.0452 0.70039 0.36896 0.0
O152 O 0.0137 0.70927 0.35231 0.0
O153 O 0.01036 0.6909 0.35128 0.0
O154 O 0.29613 0.32613 0.36766 0.0
Cd155 Cd 0.30436 0.32432 0.34643 0.0
Cd156 Cd 0.31594 0.34803 0.34795 0.0
O157 O 0.30783 0.34532 0.37137 0.0
O158 O 0.3017 0.30787 0.34741 0.0
O159 O 0.31943 0.32384 0.34954 0.0
C160 C 0.31294 0.31243 0.34976 0.0
C161 C 0.33615 0.36142 0.34437 0.0
C162 C 0.29925 0.33547 0.37631 0.0
C163 C 0.29943 0.33639 0.31832 0.0
O164 O 0.30556 0.34576 0.32693 0.0
O165 O 0.29844 0.32663 0.32317 0.0
O166 O 0.32869 0.36498 0.34715 0.0
O167 O 0.33219 0.35014 0.34428 0.0
O168 O 0.34599 0.04411 0.70234 0.0
Cd169 Cd 0.34929 0.03693 0.68119 0.0
Cd170 Cd 0.32523 0.02564 0.67913 0.0
O171 O 0.32648 0.03347 0.7025 0.0
O172 O 0.36612 0.04097 0.68382 0.0
O173 O 0.35117 0.02255 0.68391 0.0
C174 C 0.36242 0.02981 0.68528 0.0
C175 C 0.31232 0.00541 0.67485 0.0
C176 C 0.33611 0.04132 0.70921 0.0
C177 C 0.33918 0.04284 0.65119 0.0
O178 O 0.32909 0.03622 0.65787 0.0
O179 O 0.3485 0.04391 0.65805 0.0
O180 O 0.30846 0.01276 0.67625 0.0
O181 O 0.32358 0.00952 0.67648 0.0
O182 O 0.96466 0.30541 0.70519 0.0
Cd183 Cd 0.97008 0.31614 0.68404 0.0
Cd184 Cd 0.98209 0.30414 0.67753 0.0
O185 O 0.97419 0.2957 0.70007 0.0
O186 O 0.96593 0.32866 0.68861 0.0
O187 O 0.9844 0.33249 0.6858 0.0
C188 C 0.9771 0.33628 0.68867 0.0
C189 C 0.00207 0.31032 0.67255 0.0
C190 C 0.96727 0.29757 0.70929 0.0
C191 C 0.96379 0.30181 0.65198 0.0
O192 O 0.97158 0.29914 0.65615 0.0
O193 O 0.96182 0.30859 0.66133 0.0
O194 O 0.99402 0.29929 0.6723 0.0
O195 O 0.99884 0.31795 0.67621 0.0
O196 O 0.71206 0.67915 0.65673 0.0
Cd197 Cd 0.70501 0.68246 0.67809 0.0
Cd198 Cd 0.69308 0.65853 0.6808 0.0
O199 O 0.70113 0.65968 0.65774 0.0
O200 O 0.70877 0.69921 0.67613 0.0
O201 O 0.69046 0.68401 0.6754 0.0
C202 C 0.69757 0.69532 0.67459 0.0
C203 C 0.67286 0.64521 0.68417 0.0
C204 C 0.70899 0.66904 0.65046 0.0
C205 C 0.71036 0.67205 0.70856 0.0
O206 O 0.70336 0.66194 0.70226 0.0
O207 O 0.71187 0.6814 0.70125 0.0
O208 O 0.68041 0.64163 0.68267 0.0
O209 O 0.67675 0.65646 0.68338 0.0
O210 O 0.33005 0.29698 0.65494 0.0
Cd211 Cd 0.32551 0.30268 0.67667 0.0
Cd212 Cd 0.34974 0.31512 0.68027 0.0
O213 O 0.34949 0.30804 0.65678 0.0
O214 O 0.30845 0.29748 0.67333 0.0
O215 O 0.32229 0.31631 0.67541 0.0
C216 C 0.31127 0.30847 0.67319 0.0
C217 C 0.36325 0.33506 0.68588 0.0
C218 C 0.34031 0.30035 0.64895 0.0
C219 C 0.33555 0.29662 0.70671 0.0
O220 O 0.34567 0.30396 0.70078 0.0
O221 O 0.3262 0.29512 0.69942 0.0
O222 O 0.36658 0.32732 0.68442 0.0
O223 O 0.35217 0.33157 0.68356 0.0
O224 O 0.71209 0.03649 0.65858 0.0
Cd225 Cd 0.70416 0.02612 0.67968 0.0
Cd226 Cd 0.69257 0.03838 0.67854 0.0
O227 O 0.70038 0.04399 0.65503 0.0
O228 O 0.70891 0.01379 0.67815 0.0
O229 O 0.69028 0.00958 0.67662 0.0
C230 C 0.69791 0.00602 0.67594 0.0
C231 C 0.67229 0.03065 0.68282 0.0
C232 C 0.70898 0.04276 0.65004 0.0
C233 C 0.70924 0.04317 0.70782 0.0
O234 O 0.70324 0.04659 0.69925 0.0
O235 O 0.70997 0.03425 0.70303 0.0
O236 O 0.67931 0.0418 0.68018 0.0
O237 O 0.67674 0.02375 0.68237 0.0
O238 O 0.96325 0.66354 0.70305 0.0
Cd239 Cd 0.9698 0.65954 0.68176 0.0
Cd240 Cd 0.98152 0.68351 0.67767 0.0
O241 O 0.9737 0.683 0.70073 0.0
O242 O 0.96567 0.64272 0.68459 0.0
O243 O 0.98415 0.6576 0.68426 0.0
C244 C 0.97684 0.64637 0.6857 0.0
C245 C 0.00171 0.69672 0.67345 0.0
C246 C 0.96615 0.67379 0.70864 0.0
C247 C 0.9638 0.66901 0.65081 0.0
O248 O 0.97093 0.67931 0.65641 0.0
O249 O 0.9624 0.6599 0.65871 0.0
O250 O 0.99415 0.70032 0.67442 0.0
O251 O 0.99785 0.68553 0.67534 0.0
H252 H 0.23324 0.36571 0.15397 0.0
N253 N 0.21383 0.34947 0.13845 0.0
H254 H 0.24311 0.36304 0.17847 0.0
H255 H 0.20537 0.32933 0.15759 0.0
H256 H 0.21496 0.32661 0.18255 0.0
H257 H 0.21653 0.33058 0.12989 0.0
H258 H 0.22903 0.33017 0.10734 0.0
H259 H 0.22316 0.36477 0.11295 0.0
H260 H 0.23504 0.36411 0.08944 0.0
H261 H 0.203 0.35894 0.15532 0.0
H262 H 0.19614 0.33026 0.12144 0.0
H263 H 0.18199 0.35266 0.15563 0.0
H264 H 0.17529 0.32447 0.12049 0.0
H265 H 0.1267 0.34416 0.1469 0.0
H266 H 0.117 0.34647 0.17186 0.0
H267 H 0.10889 0.31177 0.18927 0.0
H268 H 0.11832 0.30941 0.16386 0.0
H269 H 0.10539 0.30937 0.12714 0.0
H270 H 0.09386 0.3132 0.10641 0.0
H271 H 0.12496 0.34652 0.09376 0.0
H272 H 0.13617 0.34294 0.11507 0.0
H273 H 0.1461 0.34667 0.14135 0.0
H274 H 0.16694 0.35248 0.14065 0.0
H275 H 0.15732 0.31578 0.1341 0.0
N276 N 0.1272 0.32416 0.13773 0.0
H277 H 0.13645 0.31026 0.13341 0.0
C278 C 0.21858 0.34779 0.15405 0.0
C279 C 0.22914 0.35721 0.16033 0.0
C280 C 0.23473 0.35566 0.17438 0.0
C281 C 0.22983 0.3446 0.18256 0.0
C282 C 0.21906 0.3352 0.17646 0.0
C283 C 0.21349 0.33677 0.16231 0.0
C284 C 0.21915 0.34788 0.12334 0.0
C285 C 0.22048 0.3379 0.12107 0.0
C286 C 0.22757 0.33763 0.10797 0.0
C287 C 0.2333 0.34722 0.09665 0.0
C288 C 0.23112 0.35673 0.09819 0.0
C289 C 0.2242 0.35708 0.11148 0.0
C290 C 0.20124 0.34523 0.13827 0.0
C291 C 0.19695 0.35135 0.14779 0.0
C292 C 0.18491 0.3478 0.14776 0.0
C293 C 0.17681 0.33812 0.13786 0.0
C294 C 0.18114 0.33188 0.12844 0.0
C295 C 0.19317 0.33528 0.12881 0.0
C296 C 0.12315 0.32653 0.15349 0.0
C297 C 0.12302 0.33713 0.15622 0.0
C298 C 0.11748 0.33845 0.17056 0.0
C299 C 0.11203 0.32924 0.18251 0.0
C300 C 0.11277 0.31893 0.18015 0.0
C301 C 0.11825 0.3176 0.16576 0.0
C302 C 0.12164 0.3258 0.12288 0.0
C303 C 0.10977 0.31739 0.11962 0.0
C304 C 0.10319 0.3196 0.10768 0.0
C305 C 0.10839 0.33027 0.09846 0.0
C306 C 0.12054 0.33835 0.1009 0.0
C307 C 0.12706 0.33622 0.11308 0.0
C308 C 0.13968 0.32801 0.13705 0.0
C309 C 0.14847 0.3399 0.13942 0.0
C310 C 0.16046 0.34319 0.1393 0.0
C311 C 0.16398 0.33463 0.13739 0.0
C312 C 0.15509 0.32271 0.13523 0.0
C313 C 0.14312 0.31949 0.13494 0.0
H314 H 0.70176 0.80252 0.14865 0.0
N315 N 0.68522 0.80607 0.13491 0.0
H316 H 0.70002 0.79101 0.17403 0.0
H317 H 0.66672 0.79698 0.15725 0.0
H318 H 0.66503 0.78588 0.18302 0.0
H319 H 0.66297 0.78806 0.12809 0.0
H320 H 0.65783 0.77242 0.10711 0.0
H321 H 0.69883 0.80644 0.10961 0.0
H322 H 0.69371 0.79121 0.08794 0.0
H323 H 0.70393 0.82741 0.13109 0.0
H324 H 0.66601 0.80921 0.13637 0.0
H325 H 0.70451 0.84638 0.13029 0.0
H326 H 0.66647 0.82822 0.1369 0.0
H327 H 0.70504 0.90573 0.14807 0.0
H328 H 0.7025 0.91499 0.1734 0.0
H329 H 0.66833 0.88387 0.18211 0.0
H330 H 0.6709 0.87484 0.15636 0.0
H331 H 0.66751 0.88167 0.12801 0.0
H332 H 0.66254 0.89197 0.10658 0.0
H333 H 0.69809 0.90764 0.08648 0.0
H334 H 0.70307 0.89761 0.1085 0.0
H335 H 0.70468 0.87915 0.14719 0.0
H336 H 0.70298 0.8597 0.14777 0.0
H337 H 0.66931 0.84496 0.12182 0.0
N338 N 0.68962 0.88511 0.13445 0.0
H339 H 0.67076 0.86437 0.1224 0.0
C340 C 0.68445 0.80069 0.15114 0.0
C341 C 0.69381 0.79906 0.1563 0.0
C342 C 0.69279 0.7925 0.17085 0.0
C343 C 0.68236 0.78746 0.18062 0.0
C344 C 0.67312 0.78946 0.17569 0.0
C345 C 0.67413 0.79596 0.16103 0.0
C346 C 0.68134 0.7983 0.12048 0.0
C347 C 0.66965 0.78888 0.11916 0.0
C348 C 0.66672 0.77997 0.10708 0.0
C349 C 0.67541 0.78041 0.09598 0.0
C350 C 0.68687 0.79039 0.09654 0.0
C351 C 0.68979 0.79919 0.10875 0.0
C352 C 0.68501 0.81698 0.13411 0.0
C353 C 0.69574 0.82757 0.13228 0.0
C354 C 0.69603 0.83841 0.13202 0.0
C355 C 0.68556 0.83895 0.13391 0.0
C356 C 0.67472 0.82822 0.13537 0.0
C357 C 0.67444 0.81732 0.13531 0.0
C358 C 0.68822 0.88964 0.15042 0.0
C359 C 0.69709 0.90088 0.15561 0.0
C360 C 0.69562 0.90611 0.17013 0.0
C361 C 0.6852 0.90018 0.17986 0.0
C362 C 0.67639 0.88875 0.17482 0.0
C363 C 0.67788 0.88352 0.1602 0.0
C364 C 0.68572 0.88897 0.11991 0.0
C365 C 0.67416 0.88714 0.1188 0.0
C366 C 0.67132 0.89302 0.10645 0.0
C367 C 0.67997 0.90079 0.09491 0.0
C368 C 0.69129 0.90193 0.09538 0.0
C369 C 0.69412 0.8961 0.1078 0.0
C370 C 0.688 0.87332 0.13455 0.0
C371 C 0.69691 0.87169 0.1417 0.0
C372 C 0.69596 0.86055 0.14185 0.0
C373 C 0.68611 0.85069 0.13452 0.0
C374 C 0.677 0.85228 0.12766 0.0
C375 C 0.67788 0.86345 0.12781 0.0
H376 H 0.1272 0.78474 0.1461 0.0
N377 N 0.12746 0.8047 0.13476 0.0
H378 H 0.11739 0.77357 0.17161 0.0
H379 H 0.11825 0.81133 0.15959 0.0
H380 H 0.10882 0.80049 0.18563 0.0
H381 H 0.10601 0.79756 0.12259 0.0
H382 H 0.09497 0.78179 0.10218 0.0
H383 H 0.13679 0.79398 0.11461 0.0
H384 H 0.12609 0.77873 0.09353 0.0
H385 H 0.14683 0.80215 0.14046 0.0
H386 H 0.13596 0.82751 0.12837 0.0
H387 H 0.1675 0.81779 0.1401 0.0
H388 H 0.15657 0.84346 0.1292 0.0
H389 H 0.23157 0.87276 0.15566 0.0
H390 H 0.23989 0.88527 0.18066 0.0
H391 H 0.21129 0.89304 0.17984 0.0
H392 H 0.20325 0.88071 0.1544 0.0
H393 H 0.21193 0.88834 0.1256 0.0
H394 H 0.22413 0.90164 0.10296 0.0
H395 H 0.23976 0.87959 0.0946 0.0
H396 H 0.22718 0.86616 0.11686 0.0
H397 H 0.20242 0.84936 0.15575 0.0
H398 H 0.18174 0.8337 0.15515 0.0
H399 H 0.1748 0.85266 0.11598 0.0
N400 N 0.2129 0.86916 0.13767 0.0
H401 H 0.19518 0.86856 0.11754 0.0
C402 C 0.12333 0.79883 0.15087 0.0
C403 C 0.12334 0.78831 0.15476 0.0
C404 C 0.11775 0.78195 0.16944 0.0
C405 C 0.11216 0.78604 0.18063 0.0
C406 C 0.11278 0.79692 0.17712 0.0
C407 C 0.11826 0.8032 0.16236 0.0
C408 C 0.12223 0.79705 0.12024 0.0
C409 C 0.1105 0.79364 0.11601 0.0
C410 C 0.10421 0.78462 0.10426 0.0
C411 C 0.10956 0.77884 0.09621 0.0
C412 C 0.12156 0.78275 0.09973 0.0
C413 C 0.12779 0.79166 0.11172 0.0
C414 C 0.13984 0.81364 0.13409 0.0
C415 C 0.1489 0.8111 0.13764 0.0
C416 C 0.16076 0.82015 0.1377 0.0
C417 C 0.16384 0.83201 0.13467 0.0
C418 C 0.15468 0.83447 0.13123 0.0
C419 C 0.14285 0.82537 0.13084 0.0
C420 C 0.2168 0.87575 0.15329 0.0
C421 C 0.22705 0.87707 0.16103 0.0
C422 C 0.23174 0.88419 0.17536 0.0
C423 C 0.22623 0.89015 0.18236 0.0
C424 C 0.21582 0.88869 0.17469 0.0
C425 C 0.21116 0.88157 0.16025 0.0
C426 C 0.21861 0.87619 0.12282 0.0
C427 C 0.21779 0.88624 0.11862 0.0
C428 C 0.22487 0.8939 0.10576 0.0
C429 C 0.23303 0.89177 0.09699 0.0
C430 C 0.23348 0.88146 0.10085 0.0
C431 C 0.22632 0.87376 0.1136 0.0
C432 C 0.2005 0.86018 0.13675 0.0
C433 C 0.19639 0.85015 0.14713 0.0
C434 C 0.18455 0.84113 0.1466 0.0
C435 C 0.17648 0.84177 0.13539 0.0
C436 C 0.18062 0.85186 0.12498 0.0
C437 C 0.19243 0.86101 0.12577 0.0
H438 H 0.34402 0.22141 0.87938 0.0
N439 N 0.32429 0.20108 0.88976 0.0
H440 H 0.34577 0.23276 0.85392 0.0
H441 H 0.30898 0.19454 0.86422 0.0
H442 H 0.31081 0.20561 0.83825 0.0
H443 H 0.30988 0.20833 0.90126 0.0
H444 H 0.31429 0.22386 0.92196 0.0
H445 H 0.34385 0.21136 0.91092 0.0
H446 H 0.34804 0.22633 0.93227 0.0
H447 H 0.34645 0.20417 0.88424 0.0
H448 H 0.31039 0.17821 0.89627 0.0
H449 H 0.352 0.18892 0.88505 0.0
H450 H 0.31562 0.16264 0.896 0.0
H451 H 0.3639 0.13526 0.87381 0.0
H452 H 0.36084 0.12256 0.84941 0.0
H453 H 0.32433 0.11426 0.84658 0.0
H454 H 0.32746 0.12669 0.87156 0.0
H455 H 0.32763 0.11916 0.90111 0.0
H456 H 0.32617 0.10567 0.92367 0.0
H457 H 0.36358 0.128 0.93386 0.0
H458 H 0.36476 0.14164 0.91175 0.0
H459 H 0.35651 0.15784 0.87081 0.0
H460 H 0.35073 0.17296 0.87041 0.0
H461 H 0.32521 0.15424 0.91011 0.0
N462 N 0.34795 0.13853 0.88993 0.0
H463 H 0.33046 0.13887 0.90964 0.0
C464 C 0.32628 0.20715 0.87376 0.0
C465 C 0.33679 0.21782 0.87038 0.0
C466 C 0.3378 0.2243 0.85572 0.0
C467 C 0.32837 0.22018 0.84407 0.0
C468 C 0.31813 0.20918 0.84711 0.0
C469 C 0.31711 0.20278 0.86183 0.0
C470 C 0.32644 0.20859 0.90439 0.0
C471 C 0.31813 0.21208 0.90825 0.0
C472 C 0.32067 0.22096 0.92017 0.0
C473 C 0.3316 0.22651 0.92877 0.0
C474 C 0.33965 0.2225 0.92564 0.0
C475 C 0.33718 0.21375 0.91347 0.0
C476 C 0.328 0.19235 0.89049 0.0
C477 C 0.33971 0.19517 0.88708 0.0
C478 C 0.34283 0.18635 0.88732 0.0
C479 C 0.33427 0.17444 0.89054 0.0
C480 C 0.32254 0.17169 0.89381 0.0
C481 C 0.31949 0.18056 0.89387 0.0
C482 C 0.34598 0.13198 0.87438 0.0
C483 C 0.3553 0.13081 0.86775 0.0
C484 C 0.35351 0.12358 0.85374 0.0
C485 C 0.34233 0.11739 0.8459 0.0
C486 C 0.33302 0.11877 0.85238 0.0
C487 C 0.33481 0.12596 0.86656 0.0
C488 C 0.34632 0.13148 0.90486 0.0
C489 C 0.33543 0.12129 0.90852 0.0
C490 C 0.33465 0.11351 0.92132 0.0
C491 C 0.34477 0.11565 0.93055 0.0
C492 C 0.35554 0.12612 0.92727 0.0
C493 C 0.35627 0.13394 0.9146 0.0
C494 C 0.344 0.14714 0.89015 0.0
C495 C 0.34959 0.15696 0.87932 0.0
C496 C 0.34635 0.16568 0.87927 0.0
C497 C 0.33754 0.16495 0.89034 0.0
C498 C 0.3319 0.15507 0.90119 0.0
C499 C 0.335 0.14622 0.90101 0.0
H500 H 0.78242 0.14092 0.86813 0.0
N501 N 0.79577 0.13757 0.89027 0.0
H502 H 0.77276 0.12916 0.84293 0.0
H503 H 0.79949 0.12038 0.87669 0.0
H504 H 0.79068 0.10918 0.85093 0.0
H505 H 0.79907 0.12135 0.90787 0.0
H506 H 0.78507 0.1069 0.92826 0.0
H507 H 0.77747 0.13771 0.90452 0.0
H508 H 0.76345 0.12333 0.92483 0.0
H509 H 0.80392 0.16049 0.89501 0.0
H510 H 0.81534 0.13482 0.89009 0.0
H511 H 0.82455 0.17637 0.89685 0.0
H512 H 0.83591 0.15057 0.89081 0.0
H513 H 0.8793 0.21984 0.87677 0.0
H514 H 0.88949 0.2308 0.85159 0.0
H515 H 0.90562 0.20897 0.84597 0.0
H516 H 0.89461 0.19743 0.87076 0.0
H517 H 0.89907 0.20396 0.91014 0.0
H518 H 0.90985 0.21869 0.93212 0.0
H519 H 0.88544 0.23186 0.9268 0.0
H520 H 0.87433 0.21657 0.90568 0.0
H521 H 0.86181 0.20292 0.87966 0.0
H522 H 0.84133 0.18721 0.88021 0.0
H523 H 0.85153 0.16477 0.90704 0.0
N524 N 0.88113 0.20173 0.89153 0.0
H525 H 0.87227 0.18045 0.90544 0.0
C526 C 0.79184 0.13172 0.87414 0.0
C527 C 0.78439 0.13412 0.86422 0.0
C528 C 0.77891 0.1274 0.84976 0.0
C529 C 0.78089 0.11814 0.84479 0.0
C530 C 0.78876 0.11607 0.85446 0.0
C531 C 0.79405 0.12267 0.86909 0.0
C532 C 0.78928 0.13062 0.90472 0.0
C533 C 0.7915 0.12204 0.91186 0.0
C534 C 0.7835 0.11378 0.9235 0.0
C535 C 0.77311 0.11392 0.92795 0.0
C536 C 0.77131 0.12293 0.92148 0.0
C537 C 0.77934 0.1312 0.91002 0.0
C538 C 0.80804 0.14649 0.89222 0.0
C539 C 0.81091 0.1583 0.89427 0.0
C540 C 0.82273 0.16737 0.89513 0.0
C541 C 0.83201 0.16485 0.89376 0.0
C542 C 0.82907 0.15291 0.89209 0.0
C543 C 0.81723 0.14383 0.89147 0.0
C544 C 0.88598 0.20757 0.87556 0.0
C545 C 0.88469 0.2171 0.8699 0.0
C546 C 0.89076 0.22357 0.85556 0.0
C547 C 0.89855 0.22093 0.84676 0.0
C548 C 0.8996 0.21121 0.85222 0.0
C549 C 0.89334 0.2046 0.86642 0.0
C550 C 0.88603 0.20927 0.90615 0.0
C551 C 0.89592 0.20987 0.91406 0.0
C552 C 0.90215 0.21841 0.92646 0.0
C553 C 0.89871 0.22669 0.93104 0.0
C554 C 0.88836 0.22564 0.92371 0.0
C555 C 0.88203 0.21695 0.91147 0.0
C556 C 0.86873 0.19283 0.89225 0.0
C557 C 0.85977 0.19465 0.88554 0.0
C558 C 0.84791 0.18561 0.88607 0.0
C559 C 0.84466 0.17461 0.89363 0.0
C560 C 0.85364 0.17297 0.90076 0.0
C561 C 0.86551 0.18196 0.89999 0.0
H562 H 0.80092 0.7026 0.87982 0.0
N563 N 0.80621 0.6872 0.89324 0.0
H564 H 0.7893 0.70018 0.85433 0.0
H565 H 0.7982 0.66875 0.8709 0.0
H566 H 0.78677 0.66631 0.845 0.0
H567 H 0.78801 0.66476 0.89925 0.0
H568 H 0.77235 0.65918 0.92023 0.0
H569 H 0.80624 0.70029 0.91906 0.0
H570 H 0.79078 0.69473 0.94055 0.0
H571 H 0.82731 0.70291 0.88146 0.0
H572 H 0.80844 0.66836 0.9045 0.0
H573 H 0.84532 0.70166 0.88084 0.0
H574 H 0.82662 0.66732 0.90502 0.0
H575 H 0.90124 0.70169 0.87792 0.0
H576 H 0.91125 0.70049 0.85243 0.0
H577 H 0.88277 0.66464 0.84418 0.0
H578 H 0.87313 0.66584 0.87002 0.0
H579 H 0.87759 0.66229 0.89937 0.0
H580 H 0.8884 0.65737 0.92015 0.0
H581 H 0.90608 0.69356 0.9381 0.0
H582 H 0.89561 0.69843 0.91668 0.0
H583 H 0.87873 0.70281 0.89718 0.0
H584 H 0.86014 0.70301 0.89829 0.0
H585 H 0.84086 0.66517 0.88962 0.0
N586 N 0.88177 0.68445 0.89211 0.0
H587 H 0.85959 0.66506 0.88983 0.0
C588 C 0.80045 0.68592 0.87717 0.0
C589 C 0.79798 0.69474 0.87211 0.0
C590 C 0.79138 0.69335 0.8575 0.0
C591 C 0.78709 0.68305 0.84755 0.0
C592 C 0.78981 0.67428 0.85246 0.0
C593 C 0.79642 0.67569 0.86717 0.0
C594 C 0.79829 0.68299 0.90758 0.0
C595 C 0.78882 0.67128 0.90845 0.0
C596 C 0.77986 0.66809 0.92052 0.0
C597 C 0.78021 0.67654 0.93198 0.0
C598 C 0.79011 0.68805 0.93173 0.0
C599 C 0.79903 0.69122 0.91961 0.0
C600 C 0.81657 0.68587 0.89322 0.0
C601 C 0.82711 0.6951 0.88657 0.0
C602 C 0.83745 0.6944 0.8864 0.0
C603 C 0.83759 0.68448 0.89319 0.0
C604 C 0.8269 0.67508 0.89959 0.0
C605 C 0.81647 0.67571 0.89947 0.0
C606 C 0.88643 0.68393 0.8758 0.0
C607 C 0.89709 0.69367 0.8704 0.0
C608 C 0.90277 0.69295 0.8558 0.0
C609 C 0.89785 0.68244 0.84622 0.0
C610 C 0.88691 0.67281 0.85136 0.0
C611 C 0.88129 0.67353 0.86606 0.0
C612 C 0.88594 0.68077 0.90643 0.0
C613 C 0.88364 0.66908 0.90799 0.0
C614 C 0.88981 0.66629 0.91995 0.0
C615 C 0.8983 0.67513 0.93064 0.0
C616 C 0.89985 0.6866 0.92981 0.0
C617 C 0.89378 0.68939 0.91775 0.0
C618 C 0.87054 0.68401 0.89311 0.0
C619 C 0.87046 0.69458 0.89562 0.0
C620 C 0.85979 0.69465 0.89606 0.0
C621 C 0.84889 0.68413 0.89368 0.0
C622 C 0.84901 0.67345 0.89155 0.0
C623 C 0.85974 0.67337 0.89142 0.0
H624 H 0.76868 0.63712 0.4804 0.0
N625 N 0.78933 0.65233 0.46665 0.0
H626 H 0.75963 0.63984 0.50583 0.0
H627 H 0.79993 0.671 0.4886 0.0
H628 H 0.79111 0.67374 0.51446 0.0
H629 H 0.79365 0.67474 0.46016 0.0
H630 H 0.78354 0.68019 0.43905 0.0
H631 H 0.776 0.63898 0.44119 0.0
H632 H 0.76605 0.6444 0.4196 0.0
H633 H 0.79491 0.63698 0.47933 0.0
H634 H 0.81025 0.67088 0.45438 0.0
H635 H 0.81418 0.63825 0.47984 0.0
H636 H 0.82945 0.6719 0.45374 0.0
H637 H 0.87088 0.63836 0.48102 0.0
H638 H 0.8822 0.63995 0.50656 0.0
H639 H 0.88769 0.67508 0.51542 0.0
H640 H 0.87674 0.67351 0.48956 0.0
H641 H 0.88574 0.67735 0.46074 0.0
H642 H 0.90158 0.68262 0.44008 0.0
H643 H 0.88295 0.64688 0.42038 0.0
H644 H 0.86751 0.64162 0.44174 0.0
H645 H 0.84613 0.63659 0.46331 0.0
H646 H 0.82734 0.63639 0.46242 0.0
H647 H 0.84609 0.67446 0.46881 0.0
N648 N 0.86762 0.65504 0.46713 0.0
H649 H 0.86491 0.67453 0.46836 0.0
C650 C 0.78494 0.65379 0.4827 0.0
C651 C 0.77366 0.64505 0.48795 0.0
C652 C 0.76854 0.64662 0.50252 0.0
C653 C 0.77464 0.65701 0.51226 0.0
C654 C 0.78611 0.6657 0.50716 0.0
C655 C 0.79121 0.66411 0.49249 0.0
C656 C 0.78553 0.6564 0.45225 0.0
C657 C 0.78785 0.66814 0.45112 0.0
C658 C 0.78207 0.67125 0.43897 0.0
C659 C 0.77385 0.6627 0.42772 0.0
C660 C 0.77214 0.65115 0.42825 0.0
C661 C 0.77791 0.64806 0.44043 0.0
C662 C 0.80102 0.65368 0.46663 0.0
C663 C 0.80244 0.64465 0.47379 0.0
C664 C 0.81348 0.64536 0.47389 0.0
C665 C 0.82344 0.65508 0.46652 0.0
C666 C 0.82206 0.66429 0.45962 0.0
C667 C 0.81099 0.66367 0.45982 0.0
C668 C 0.87288 0.65574 0.48344 0.0
C669 C 0.87437 0.6463 0.48868 0.0
C670 C 0.88082 0.64724 0.50331 0.0
C671 C 0.88592 0.65767 0.51308 0.0
C672 C 0.88405 0.66698 0.50809 0.0
C673 C 0.87765 0.66605 0.49337 0.0
C674 C 0.87555 0.65904 0.45286 0.0
C675 C 0.88499 0.67073 0.45177 0.0
C676 C 0.89403 0.67373 0.43986 0.0
C677 C 0.89369 0.66512 0.42872 0.0
C678 C 0.8837 0.65367 0.42904 0.0
C679 C 0.87477 0.65067 0.44106 0.0
C680 C 0.85684 0.6555 0.46623 0.0
C681 C 0.84613 0.64487 0.46442 0.0
C682 C 0.83539 0.6448 0.46412 0.0
C683 C 0.83507 0.65539 0.46592 0.0
C684 C 0.84592 0.66612 0.46735 0.0
C685 C 0.85671 0.66618 0.46734 0.0
H686 H 0.35506 0.13335 0.48151 0.0
N687 N 0.33479 0.13307 0.4719 0.0
H688 H 0.35725 0.12319 0.50606 0.0
H689 H 0.31978 0.12364 0.49758 0.0
H690 H 0.32203 0.11392 0.52267 0.0
H691 H 0.31587 0.11432 0.45936 0.0
H692 H 0.3153 0.1008 0.43747 0.0
H693 H 0.35337 0.13678 0.45144 0.0
H694 H 0.35289 0.12352 0.42923 0.0
H695 H 0.35723 0.15213 0.46971 0.0
H696 H 0.3203 0.14178 0.47143 0.0
H697 H 0.36256 0.17287 0.46716 0.0
H698 H 0.32546 0.16251 0.47017 0.0
H699 H 0.37275 0.23906 0.4803 0.0
H700 H 0.37047 0.24873 0.50538 0.0
H701 H 0.33576 0.21836 0.51404 0.0
H702 H 0.33802 0.20897 0.48856 0.0
H703 H 0.33521 0.21694 0.46085 0.0
H704 H 0.33082 0.22774 0.43959 0.0
H705 H 0.36603 0.24183 0.4189 0.0
H706 H 0.37044 0.23113 0.44062 0.0
H707 H 0.36912 0.20969 0.48029 0.0
H708 H 0.36404 0.18899 0.48174 0.0
H709 H 0.33206 0.17905 0.45324 0.0
N710 N 0.35678 0.21871 0.46652 0.0
H711 H 0.3368 0.19952 0.45287 0.0
C712 C 0.33717 0.1291 0.48766 0.0
C713 C 0.34788 0.12926 0.49054 0.0
C714 C 0.34914 0.12348 0.50468 0.0
C715 C 0.33974 0.11754 0.51624 0.0
C716 C 0.32934 0.11812 0.51382 0.0
C717 C 0.32807 0.12378 0.49962 0.0
C718 C 0.33459 0.12657 0.45702 0.0
C719 C 0.32392 0.11649 0.45254 0.0
C720 C 0.32363 0.1088 0.43999 0.0
C721 C 0.33407 0.11103 0.43158 0.0
C722 C 0.34471 0.12143 0.4356 0.0
C723 C 0.34498 0.12912 0.44822 0.0
C724 C 0.33832 0.1454 0.47037 0.0
C725 C 0.35025 0.15432 0.46943 0.0
C726 C 0.35329 0.16624 0.46826 0.0
C727 C 0.34446 0.1695 0.46839 0.0
C728 C 0.33253 0.16045 0.46958 0.0
C729 C 0.32953 0.14857 0.47045 0.0
C730 C 0.35563 0.22332 0.48261 0.0
C731 C 0.36474 0.23444 0.4878 0.0
C732 C 0.36342 0.23992 0.50218 0.0
C733 C 0.35291 0.23434 0.51177 0.0
C734 C 0.3439 0.22299 0.50683 0.0
C735 C 0.34522 0.21754 0.49236 0.0
C736 C 0.3532 0.22322 0.45233 0.0
C737 C 0.34192 0.22216 0.45157 0.0
C738 C 0.3394 0.22832 0.43932 0.0
C739 C 0.3481 0.23573 0.42758 0.0
C740 C 0.35919 0.23634 0.42789 0.0
C741 C 0.36169 0.23014 0.44015 0.0
C742 C 0.35347 0.20632 0.46644 0.0
C743 C 0.36101 0.20301 0.47438 0.0
C744 C 0.35812 0.19114 0.47505 0.0
C745 C 0.34763 0.18222 0.46754 0.0
C746 C 0.34011 0.18557 0.45945 0.0
C747 C 0.3429 0.19743 0.45906 0.0
H748 H 0.80473 0.11116 0.48594 0.0
N749 N 0.80668 0.13011 0.47048 0.0
H750 H 0.79281 0.10107 0.51087 0.0
H751 H 0.79522 0.13827 0.49094 0.0
H752 H 0.78368 0.12855 0.5162 0.0
H753 H 0.78456 0.12653 0.46342 0.0
H754 H 0.77102 0.11289 0.44222 0.0
H755 H 0.81247 0.12111 0.44443 0.0
H756 H 0.79928 0.10813 0.42227 0.0
H757 H 0.82991 0.13964 0.47319 0.0
H758 H 0.80263 0.1485 0.46488 0.0
H759 H 0.845 0.16055 0.4718 0.0
H760 H 0.81753 0.16957 0.46467 0.0
H761 H 0.8869 0.21585 0.48202 0.0
H762 H 0.89843 0.22623 0.50691 0.0
H763 H 0.87536 0.24069 0.51545 0.0
H764 H 0.86341 0.22958 0.49101 0.0
H765 H 0.87392 0.23694 0.45357 0.0
H766 H 0.88908 0.24678 0.43194 0.0
H767 H 0.89393 0.21631 0.42976 0.0
H768 H 0.8792 0.20687 0.45218 0.0
H769 H 0.8681 0.19853 0.48722 0.0
H770 H 0.85304 0.17792 0.48714 0.0
H771 H 0.83309 0.18514 0.44996 0.0
N772 N 0.86782 0.21669 0.46918 0.0
H773 H 0.84804 0.20617 0.45093 0.0
C774 C 0.80098 0.12549 0.4866 0.0
C775 C 0.80031 0.11509 0.4927 0.0
C776 C 0.79351 0.10936 0.50698 0.0
C777 C 0.78723 0.11397 0.51557 0.0
C778 C 0.78825 0.12465 0.50977 0.0
C779 C 0.795 0.13032 0.49539 0.0
C780 C 0.79945 0.12456 0.45577 0.0
C781 C 0.78787 0.12266 0.45436 0.0
C782 C 0.78014 0.1149 0.44207 0.0
C783 C 0.78392 0.10911 0.43073 0.0
C784 C 0.7959 0.11206 0.43114 0.0
C785 C 0.80352 0.11961 0.44364 0.0
C786 C 0.8152 0.14255 0.46941 0.0
C787 C 0.82721 0.14617 0.47126 0.0
C788 C 0.8358 0.15816 0.47061 0.0
C789 C 0.83255 0.16688 0.46837 0.0
C790 C 0.82044 0.16317 0.46627 0.0
C791 C 0.81186 0.15112 0.46661 0.0
C792 C 0.87414 0.22179 0.48479 0.0
C793 C 0.88416 0.22104 0.48947 0.0
C794 C 0.89087 0.22715 0.50362 0.0
C795 C 0.88795 0.23445 0.51319 0.0
C796 C 0.87781 0.23504 0.50861 0.0
C797 C 0.87097 0.22872 0.49461 0.0
C798 C 0.87536 0.22118 0.45444 0.0
C799 C 0.87812 0.23232 0.44817 0.0
C800 C 0.88678 0.2379 0.43571 0.0
C801 C 0.89283 0.2324 0.42902 0.0
C802 C 0.88965 0.22094 0.43479 0.0
C803 C 0.88109 0.21544 0.44748 0.0
C804 C 0.85923 0.20412 0.46914 0.0
C805 C 0.86054 0.19587 0.47907 0.0
C806 C 0.85187 0.18389 0.47889 0.0
C807 C 0.84177 0.17973 0.46851 0.0
C808 C 0.84059 0.18797 0.45837 0.0
C809 C 0.84919 0.2 0.45878 0.0
H810 H 0.01018 0.55384 0.21432 0.0
N811 N 0.99046 0.53416 0.22639 0.0
H812 H 0.01133 0.56499 0.18896 0.0
H813 H 0.97412 0.52782 0.20223 0.0
H814 H 0.9753 0.53872 0.1763 0.0
H815 H 0.97646 0.54127 0.2399 0.0
H816 H 0.98181 0.55719 0.26027 0.0
H817 H 0.01122 0.5453 0.2445 0.0
H818 H 0.0165 0.56081 0.26569 0.0
H819 H 0.0101 0.53471 0.21224 0.0
H820 H 0.97918 0.51375 0.243 0.0
H821 H 0.01469 0.51884 0.21255 0.0
H822 H 0.98417 0.49804 0.24443 0.0
H823 H 0.02715 0.46868 0.20661 0.0
H824 H 0.02483 0.45695 0.18129 0.0
H825 H 0.98723 0.44455 0.18131 0.0
H826 H 0.9896 0.45577 0.20705 0.0
H827 H 0.98954 0.45077 0.23743 0.0
H828 H 0.98774 0.43666 0.25918 0.0
H829 H 0.02582 0.45578 0.26537 0.0
H830 H 0.02737 0.47012 0.24419 0.0
H831 H 0.02565 0.492 0.22573 0.0
H832 H 0.02155 0.50831 0.22774 0.0
H833 H 0.98398 0.48299 0.22868 0.0
N834 N 0.01023 0.46897 0.22486 0.0
H835 H 0.98826 0.4669 0.22796 0.0
C836 C 0.99199 0.53999 0.21024 0.0
C837 C 0.00257 0.55039 0.20602 0.0
C838 C 0.00323 0.55674 0.19139 0.0
C839 C 0.99337 0.55282 0.1806 0.0
C840 C 0.98299 0.54212 0.18447 0.0
C841 C 0.98232 0.53581 0.19917 0.0
C842 C 0.99336 0.54204 0.24071 0.0
C843 C 0.98513 0.54536 0.24577 0.0
C844 C 0.98823 0.55446 0.25751 0.0
C845 C 0.99965 0.56041 0.26467 0.0
C846 C 0.00771 0.55662 0.26024 0.0
C847 C 0.00465 0.54761 0.24827 0.0
C848 C 0.99408 0.52534 0.22734 0.0
C849 C 0.00431 0.52674 0.21921 0.0
C850 C 0.00704 0.51763 0.21958 0.0
C851 C 0.99977 0.50701 0.22841 0.0
C852 C 0.98983 0.5059 0.2371 0.0
C853 C 0.987 0.51492 0.23646 0.0
C854 C 0.00863 0.46327 0.20866 0.0
C855 C 0.01845 0.46357 0.20095 0.0
C856 C 0.01709 0.45687 0.18642 0.0
C857 C 0.00582 0.44974 0.17918 0.0
C858 C 0.99602 0.44976 0.18665 0.0
C859 C 0.99739 0.45636 0.20132 0.0
C860 C 0.00862 0.46161 0.23935 0.0
C861 C 0.99745 0.45215 0.24386 0.0
C862 C 0.99646 0.44396 0.25616 0.0
C863 C 0.00664 0.44497 0.26402 0.0
C864 C 0.01775 0.45476 0.25988 0.0
C865 C 0.01869 0.46297 0.24773 0.0
C866 C 0.00732 0.47824 0.22644 0.0
C867 C 0.01655 0.49002 0.2265 0.0
C868 C 0.01415 0.49934 0.22748 0.0
C869 C 0.0024 0.49707 0.2282 0.0
C870 C 0.99315 0.48517 0.22837 0.0
C871 C 0.99559 0.47587 0.22768 0.0
H872 H 0.5703 0.53771 0.21328 0.0
N873 N 0.55009 0.53386 0.22691 0.0
H874 H 0.58002 0.54923 0.18789 0.0
H875 H 0.54047 0.54266 0.20433 0.0
H876 H 0.54984 0.55379 0.17859 0.0
H877 H 0.54587 0.55199 0.23318 0.0
H878 H 0.55633 0.5678 0.25391 0.0
H879 H 0.56325 0.53372 0.25247 0.0
H880 H 0.57336 0.54916 0.27386 0.0
H881 H 0.54668 0.51215 0.2294 0.0
H882 H 0.52801 0.53154 0.22652 0.0
H883 H 0.52793 0.49353 0.22999 0.0
H884 H 0.50909 0.51291 0.22583 0.0
H885 H 0.46846 0.43527 0.21444 0.0
H886 H 0.4568 0.42568 0.18913 0.0
H887 H 0.45453 0.457 0.17832 0.0
H888 H 0.46603 0.46639 0.20402 0.0
H889 H 0.45649 0.46186 0.23249 0.0
H890 H 0.44036 0.45253 0.25301 0.0
H891 H 0.45587 0.4325 0.27306 0.0
H892 H 0.47213 0.44214 0.25269 0.0
H893 H 0.49438 0.46166 0.21326 0.0
H894 H 0.51254 0.48079 0.21266 0.0
H895 H 0.49507 0.49618 0.24082 0.0
N896 N 0.47376 0.45616 0.22714 0.0
H897 H 0.47675 0.47719 0.24036 0.0
C898 C 0.55466 0.53924 0.21066 0.0
C899 C 0.56573 0.54105 0.20557 0.0
C900 C 0.57124 0.54761 0.19101 0.0
C901 C 0.56574 0.55249 0.18116 0.0
C902 C 0.55443 0.55032 0.186 0.0
C903 C 0.54896 0.54381 0.20065 0.0
C904 C 0.55392 0.54176 0.24121 0.0
C905 C 0.55168 0.55122 0.24223 0.0
C906 C 0.55766 0.56024 0.25417 0.0
C907 C 0.56589 0.5599 0.26541 0.0
C908 C 0.56734 0.5499 0.26514 0.0
C909 C 0.56146 0.54098 0.2531 0.0
C910 C 0.53875 0.52317 0.22763 0.0
C911 C 0.53848 0.51234 0.22871 0.0
C912 C 0.52771 0.50169 0.22884 0.0
C913 C 0.51688 0.5016 0.22761 0.0
C914 C 0.51719 0.51256 0.22686 0.0
C915 C 0.52802 0.52326 0.22702 0.0
C916 C 0.46812 0.4515 0.21104 0.0
C917 C 0.46559 0.4401 0.20643 0.0
C918 C 0.45895 0.43467 0.19192 0.0
C919 C 0.4547 0.44056 0.18164 0.0
C920 C 0.45753 0.45216 0.18605 0.0
C921 C 0.46418 0.45758 0.20065 0.0
C922 C 0.46557 0.45272 0.24113 0.0
C923 C 0.4566 0.45572 0.24161 0.0
C924 C 0.4473 0.45026 0.25324 0.0
C925 C 0.44672 0.44163 0.26455 0.0
C926 C 0.45607 0.43917 0.26466 0.0
C927 C 0.46538 0.44467 0.25305 0.0
C928 C 0.48418 0.46783 0.22694 0.0
C929 C 0.49446 0.46919 0.2192 0.0
C930 C 0.50489 0.48015 0.21905 0.0
C931 C 0.50544 0.49009 0.22698 0.0
C932 C 0.49504 0.48879 0.23448 0.0
C933 C 0.48449 0.47782 0.23435 0.0
H934 H 0.53593 0.97485 0.20502 0.0
N935 N 0.5327 0.99096 0.22075 0.0
H936 H 0.54873 0.97774 0.1808 0.0
H937 H 0.54445 0.01124 0.20193 0.0
H938 H 0.55697 0.01418 0.17713 0.0
H939 H 0.55441 0.00942 0.22979 0.0
H940 H 0.56725 0.00894 0.25177 0.0
H941 H 0.52627 0.97526 0.24579 0.0
H942 H 0.53873 0.97504 0.26878 0.0
H943 H 0.51233 0.98156 0.20408 0.0
H944 H 0.53431 0.01004 0.23813 0.0
H945 H 0.4975 0.98771 0.20447 0.0
H946 H 0.51915 0.0157 0.23977 0.0
H947 H 0.45052 0.99538 0.21458 0.0
H948 H 0.4386 0.99281 0.18942 0.0
H949 H 0.46493 0.02761 0.17197 0.0
H950 H 0.47663 0.03022 0.19755 0.0
H951 H 0.46386 0.03024 0.23451 0.0
H952 H 0.44847 0.02631 0.25524 0.0
H953 H 0.44621 0.99291 0.26747 0.0
H954 H 0.46106 0.99662 0.24618 0.0
H955 H 0.46751 0.99309 0.22012 0.0
H956 H 0.48271 0.98752 0.22028 0.0
H957 H 0.50956 0.02433 0.22664 0.0
N958 N 0.4709 0.01552 0.22372 0.0
H959 H 0.49404 0.02962 0.22784 0.0
C960 C 0.53917 0.99275 0.20516 0.0
C961 C 0.54037 0.98339 0.19879 0.0
C962 C 0.54767 0.98508 0.18489 0.0
C963 C 0.55389 0.9962 0.17691 0.0
C964 C 0.55243 0.00554 0.18306 0.0
C965 C 0.54517 0.00385 0.19711 0.0
C966 C 0.53946 0.99218 0.23587 0.0
C967 C 0.55089 0.00193 0.23833 0.0
C968 C 0.55821 0.00169 0.2511 0.0
C969 C 0.55417 0.99181 0.26191 0.0
C970 C 0.54232 0.98262 0.26037 0.0
C971 C 0.5351 0.98277 0.24739 0.0
C972 C 0.52436 0.99519 0.22118 0.0
C973 C 0.51388 0.98909 0.21178 0.0
C974 C 0.50533 0.99255 0.21222 0.0
C975 C 0.50692 0.00211 0.2224 0.0
C976 C 0.51757 0.00837 0.23164 0.0
C977 C 0.52626 0.00505 0.23087 0.0
C978 C 0.46446 0.01307 0.20797 0.0
C979 C 0.45382 0.00238 0.20523 0.0
C980 C 0.44701 0.00091 0.19077 0.0
C981 C 0.45073 0.01005 0.17873 0.0
C982 C 0.46168 0.02048 0.18114 0.0
C983 C 0.46844 0.02196 0.19564 0.0
C984 C 0.46369 0.0138 0.23858 0.0
C985 C 0.46021 0.02219 0.24194 0.0
C986 C 0.4514 0.01992 0.25388 0.0
C987 C 0.44592 0.0092 0.26298 0.0
C988 C 0.44998 0.00113 0.26042 0.0
C989 C 0.45867 0.00333 0.24827 0.0
C990 C 0.47962 0.01179 0.22435 0.0
C991 C 0.47663 0.99994 0.22193 0.0
C992 C 0.48543 0.99679 0.22173 0.0
C993 C 0.49749 0.00545 0.22337 0.0
C994 C 0.50042 0.01733 0.22568 0.0
C995 C 0.49157 0.02041 0.22628 0.0
H996 H 0.43635 0.9714 0.81342 0.0
N997 N 0.45716 0.98647 0.80002 0.0
H998 H 0.42711 0.97423 0.83852 0.0
H999 H 0.46772 0.00512 0.82203 0.0
H1000 H 0.45872 0.00795 0.84763 0.0
H1001 H 0.46148 0.00885 0.79331 0.0
H1002 H 0.45138 0.0142 0.77206 0.0
H1003 H 0.44398 0.97305 0.7745 0.0
H1004 H 0.43404 0.97837 0.75276 0.0
H1005 H 0.46266 0.97112 0.81294 0.0
H1006 H 0.47815 0.00499 0.78788 0.0
H1007 H 0.48191 0.97235 0.81367 0.0
H1008 H 0.49734 0.00598 0.78748 0.0
H1009 H 0.53842 0.9723 0.81543 0.0
H1010 H 0.5497 0.97388 0.841 0.0
H1011 H 0.55565 0.00923 0.84939 0.0
H1012 H 0.5448 0.00768 0.82342 0.0
H1013 H 0.55339 0.01124 0.79406 0.0
H1014 H 0.56904 0.0162 0.77313 0.0
H1015 H 0.55048 0.98003 0.75508 0.0
H1016 H 0.53521 0.97513 0.77661 0.0
H1017 H 0.51389 0.97061 0.79741 0.0
H1018 H 0.49512 0.97045 0.79638 0.0
H1019 H 0.51391 0.00851 0.80275 0.0
N1020 N 0.53539 0.98905 0.80129 0.0
H1021 H 0.53271 0.00854 0.80247 0.0
C1022 C 0.45268 0.98798 0.81596 0.0
C1023 C 0.44132 0.97931 0.821 0.0
C1024 C 0.43609 0.98095 0.8354 0.0
C1025 C 0.44217 0.99132 0.84518 0.0
C1026 C 0.45373 0.99992 0.8403 0.0
C1027 C 0.45894 0.99828 0.82578 0.0
C1028 C 0.45344 0.9905 0.78549 0.0
C1029 C 0.45573 0.00222 0.78426 0.0
C1030 C 0.44994 0.00527 0.77204 0.0
C1031 C 0.44176 0.99668 0.7608 0.0
C1032 C 0.4401 0.98516 0.76141 0.0
C1033 C 0.44587 0.98212 0.77366 0.0
C1034 C 0.46885 0.98781 0.80017 0.0
C1035 C 0.47023 0.97878 0.80742 0.0
C1036 C 0.48126 0.97947 0.80766 0.0
C1037 C 0.49125 0.98917 0.80032 0.0
C1038 C 0.48992 0.99839 0.79333 0.0
C1039 C 0.47886 0.99778 0.7934 0.0
C1040 C 0.54068 0.98979 0.81759 0.0
C1041 C 0.54202 0.98029 0.82298 0.0
C1042 C 0.54844 0.98122 0.83764 0.0
C1043 C 0.55363 0.9917 0.84732 0.0
C1044 C 0.55194 0.00109 0.84214 0.0
C1045 C 0.54559 1.00017 0.82737 0.0
C1046 C 0.54322 0.99277 0.78694 0.0
C1047 C 0.55261 0.00446 0.78538 0.0
C1048 C 0.56153 0.00728 0.77334 0.0
C1049 C 0.56115 0.99846 0.76257 0.0
C1050 C 0.55124 0.98698 0.76342 0.0
C1051 C 0.54241 0.98417 0.77554 0.0
C1052 C 0.52462 0.98951 0.80034 0.0
C1053 C 0.51391 0.9789 0.79849 0.0
C1054 C 0.50318 0.97885 0.7981 0.0
C1055 C 0.50287 0.98945 0.79985 0.0
C1056 C 0.51372 1.00017 0.80132 0.0
C1057 C 0.52451 1.00021 0.80141 0.0
H1058 H 0.97766 0.5376 0.82018 0.0
N1059 N 0.99459 0.53657 0.80301 0.0
H1060 H 0.97981 0.54935 0.84544 0.0
H1061 H 0.01498 0.5494 0.82144 0.0
H1062 H 0.01717 0.56074 0.84708 0.0
H1063 H 0.01495 0.55578 0.79152 0.0
H1064 H 0.01634 0.56933 0.76911 0.0
H1065 H 0.97762 0.53376 0.78185 0.0
H1066 H 0.97873 0.54747 0.75991 0.0
H1067 H 0.97977 0.51349 0.80529 0.0
H1068 H 0.01665 0.5392 0.79834 0.0
H1069 H 0.98445 0.49754 0.80468 0.0
H1070 H 0.02158 0.52348 0.79871 0.0
H1071 H 0.99572 0.45474 0.81936 0.0
H1072 H 0.9943 0.44301 0.84399 0.0
H1073 H 0.03236 0.46344 0.85002 0.0
H1074 H 0.03353 0.47575 0.82592 0.0
H1075 H 0.03201 0.4704 0.78697 0.0
H1076 H 0.02827 0.45578 0.76493 0.0
H1077 H 0.99065 0.44278 0.76925 0.0
H1078 H 0.99466 0.45803 0.79038 0.0
H1079 H 0.99789 0.47336 0.82246 0.0
H1080 H 0.99303 0.48892 0.82114 0.0
H1081 H 0.02064 0.50739 0.78397 0.0
N1082 N 0.0161 0.47258 0.80519 0.0
H1083 H 0.02593 0.4919 0.78602 0.0
C1084 C 0.99608 0.5425 0.81899 0.0
C1085 C 0.98627 0.54252 0.82617 0.0
C1086 C 0.98753 0.54921 0.84065 0.0
C1087 C 0.99868 0.55602 0.84837 0.0
C1088 C 0.00848 0.55575 0.84136 0.0
C1089 C 0.00721 0.54913 0.82676 0.0
C1090 C 0.99616 0.54367 0.78822 0.0
C1091 C 0.0071 0.5537 0.78431 0.0
C1092 C 0.00783 0.56155 0.77161 0.0
C1093 C 0.99763 0.55959 0.76272 0.0
C1094 C 0.98683 0.54923 0.76623 0.0
C1095 C 0.98613 0.54137 0.77881 0.0
C1096 C 0.99781 0.52751 0.80203 0.0
C1097 C 0.98889 0.51567 0.80373 0.0
C1098 C 0.99163 0.50659 0.80353 0.0
C1099 C 0.00344 0.50916 0.80183 0.0
C1100 C 0.01237 0.52109 0.79987 0.0
C1101 C 0.00958 0.53016 0.79985 0.0
C1102 C 0.01476 0.46637 0.82094 0.0
C1103 C 0.00374 0.45696 0.82622 0.0
C1104 C 0.00297 0.45007 0.84024 0.0
C1105 C 0.01322 0.45212 0.84902 0.0
C1106 C 0.02422 0.46167 0.84385 0.0
C1107 C 0.02493 0.46873 0.83003 0.0
C1108 C 0.01364 0.46518 0.79045 0.0
C1109 C 0.023 0.46456 0.7828 0.0
C1110 C 0.0208 0.45608 0.77038 0.0
C1111 C 0.00912 0.44785 0.76553 0.0
C1112 C 0.99977 0.44895 0.77256 0.0
C1113 C 0.00201 0.4576 0.7848 0.0
C1114 C 0.01242 0.48138 0.80435 0.0
C1115 C 0.00297 0.48064 0.81397 0.0
C1116 C 1.00009 0.48962 0.81312 0.0
C1117 C 0.00641 0.49949 0.80244 0.0
C1118 C 0.01569 0.50008 0.79259 0.0
C1119 C 0.01867 0.49117 0.79362 0.0
H1120 H 0.46084 0.45152 0.81509 0.0
N1121 N 0.46117 0.47168 0.80454 0.0
H1122 H 0.45122 0.44015 0.84055 0.0
H1123 H 0.45235 0.4782 0.83002 0.0
H1124 H 0.4431 0.46713 0.85598 0.0
H1125 H 0.43957 0.46464 0.79301 0.0
H1126 H 0.42833 0.44911 0.77235 0.0
H1127 H 0.47026 0.46114 0.78356 0.0
H1128 H 0.45937 0.44616 0.76227 0.0
H1129 H 0.48041 0.46882 0.80966 0.0
H1130 H 0.46988 0.49451 0.79806 0.0
H1131 H 0.50116 0.48422 0.80847 0.0
H1132 H 0.49061 0.51023 0.79803 0.0
H1133 H 0.56581 0.5389 0.82175 0.0
H1134 H 0.57427 0.55131 0.84681 0.0
H1135 H 0.54566 0.55907 0.84674 0.0
H1136 H 0.53749 0.54686 0.82125 0.0
H1137 H 0.54577 0.55435 0.79223 0.0
H1138 H 0.55786 0.56772 0.7696 0.0
H1139 H 0.57367 0.54586 0.76094 0.0
H1140 H 0.56116 0.53233 0.78314 0.0
H1141 H 0.53664 0.51561 0.82258 0.0
H1142 H 0.51587 0.50018 0.82287 0.0
H1143 H 0.50852 0.51894 0.78385 0.0
N1144 N 0.54697 0.53527 0.80419 0.0
H1145 H 0.52902 0.53463 0.78452 0.0
C1146 C 0.45719 0.46568 0.82059 0.0
C1147 C 0.45713 0.45507 0.82405 0.0
C1148 C 0.45165 0.44858 0.8387 0.0
C1149 C 0.44623 0.45263 0.85026 0.0
C1150 C 0.44693 0.4636 0.84718 0.0
C1151 C 0.45231 0.47001 0.83247 0.0
C1152 C 0.45576 0.46415 0.78996 0.0
C1153 C 0.44399 0.46078 0.78608 0.0
C1154 C 0.43759 0.45191 0.77418 0.0
C1155 C 0.44287 0.44623 0.76565 0.0
C1156 C 0.4549 0.4501 0.76884 0.0
C1157 C 0.46124 0.45886 0.78097 0.0
C1158 C 0.47357 0.4805 0.80364 0.0
C1159 C 0.48257 0.4778 0.80682 0.0
C1160 C 0.49448 0.4867 0.80637 0.0
C1161 C 0.49769 0.49858 0.80318 0.0
C1162 C 0.4886 0.50121 0.80015 0.0
C1163 C 0.47671 0.49225 0.80028 0.0
C1164 C 0.55104 0.5419 0.81976 0.0
C1165 C 0.56133 0.5432 0.82729 0.0
C1166 C 0.5661 0.55026 0.84165 0.0
C1167 C 0.56062 0.55617 0.84889 0.0
C1168 C 0.55018 0.55475 0.84141 0.0
C1169 C 0.54544 0.5477 0.82693 0.0
C1170 C 0.55251 0.54227 0.78927 0.0
C1171 C 0.55162 0.55229 0.78516 0.0
C1172 C 0.55865 0.56 0.77231 0.0
C1173 C 0.56685 0.55797 0.76347 0.0
C1174 C 0.56735 0.54766 0.76722 0.0
C1175 C 0.56024 0.53991 0.77995 0.0
C1176 C 0.53454 0.52633 0.8036 0.0
C1177 C 0.53051 0.51641 0.81416 0.0
C1178 C 0.51862 0.50751 0.81415 0.0
C1179 C 0.51041 0.50818 0.80328 0.0
C1180 C 0.51447 0.51814 0.79262 0.0
C1181 C 0.52635 0.52717 0.79289 0.0
H1182 H 0.67578 0.888 0.5487 0.0
N1183 N 0.65635 0.86789 0.56037 0.0
H1184 H 0.67687 0.899 0.52321 0.0
H1185 H 0.64015 0.86122 0.53592 0.0
H1186 H 0.6413 0.87196 0.50982 0.0
H1187 H 0.64245 0.87513 0.57387 0.0
H1188 H 0.64782 0.89092 0.59445 0.0
H1189 H 0.67703 0.87876 0.57874 0.0
H1190 H 0.6823 0.89407 0.60021 0.0
H1191 H 0.67604 0.86886 0.54571 0.0
H1192 H 0.64547 0.84737 0.57681 0.0
H1193 H 0.68095 0.85323 0.54541 0.0
H1194 H 0.65082 0.8319 0.57771 0.0
H1195 H 0.6948 0.80337 0.53973 0.0
H1196 H 0.69265 0.7915 0.51463 0.0
H1197 H 0.65508 0.77923 0.51386 0.0
H1198 H 0.65729 0.79063 0.53939 0.0
H1199 H 0.65757 0.78483 0.56953 0.0
H1200 H 0.65643 0.77131 0.59189 0.0
H1201 H 0.69421 0.79296 0.5998 0.0
H1202 H 0.6951 0.80657 0.57785 0.0
H1203 H 0.6928 0.82698 0.55766 0.0
H1204 H 0.68825 0.84297 0.55995 0.0
H1205 H 0.65087 0.817 0.562 0.0
N1206 N 0.6778 0.80386 0.55746 0.0
H1207 H 0.65565 0.80122 0.56108 0.0
C1208 C 0.6578 0.8738 0.5443 0.0
C1209 C 0.66824 0.88438 0.54025 0.0
C1210 C 0.66888 0.89063 0.52554 0.0
C1211 C 0.65914 0.88642 0.51445 0.0
C1212 C 0.64889 0.87558 0.51821 0.0
C1213 C 0.64824 0.86937 0.53301 0.0
C1214 C 0.65925 0.8757 0.57479 0.0
C1215 C 0.65108 0.8791 0.57984 0.0
C1216 C 0.65419 0.88812 0.59171 0.0
C1217 C 0.66555 0.89391 0.59906 0.0
C1218 C 0.67355 0.89004 0.59462 0.0
C1219 C 0.67049 0.88112 0.58249 0.0
C1220 C 0.66017 0.85921 0.56103 0.0
C1221 C 0.6704 0.86082 0.55263 0.0
C1222 C 0.67331 0.85184 0.55266 0.0
C1223 C 0.66626 0.84115 0.56144 0.0
C1224 C 0.65632 0.83981 0.57041 0.0
C1225 C 0.65329 0.84871 0.57008 0.0
C1226 C 0.67629 0.79804 0.54137 0.0
C1227 C 0.68615 0.79825 0.53394 0.0
C1228 C 0.68488 0.79147 0.51955 0.0
C1229 C 0.67367 0.78435 0.51214 0.0
C1230 C 0.66382 0.78444 0.51933 0.0
C1231 C 0.6651 0.79113 0.53388 0.0
C1232 C 0.67645 0.79676 0.57214 0.0
C1233 C 0.66553 0.78683 0.57641 0.0
C1234 C 0.66492 0.77902 0.58909 0.0
C1235 C 0.67524 0.78097 0.59764 0.0
C1236 C 0.68604 0.79123 0.59375 0.0
C1237 C 0.6866 0.79902 0.58116 0.0
C1238 C 0.67461 0.81294 0.55888 0.0
C1239 C 0.68364 0.8248 0.55868 0.0
C1240 C 0.68098 0.83393 0.55984 0.0
C1241 C 0.66915 0.83138 0.56097 0.0
C1242 C 0.6601 0.8194 0.56135 0.0
C1243 C 0.66281 0.81028 0.56053 0.0
H1244 H 0.23782 0.87185 0.54479 0.0
N1245 N 0.21754 0.86756 0.5587 0.0
H1246 H 0.24727 0.88353 0.51941 0.0
H1247 H 0.20754 0.87618 0.53645 0.0
H1248 H 0.21666 0.88747 0.51072 0.0
H1249 H 0.21326 0.88563 0.56524 0.0
H1250 H 0.22364 0.90131 0.58617 0.0
H1251 H 0.23068 0.86731 0.58421 0.0
H1252 H 0.2407 0.88261 0.60581 0.0
H1253 H 0.21433 0.84592 0.56066 0.0
H1254 H 0.19539 0.86506 0.55892 0.0
H1255 H 0.19566 0.8272 0.56141 0.0
H1256 H 0.17654 0.84636 0.55841 0.0
H1257 H 0.13574 0.76857 0.54668 0.0
H1258 H 0.12418 0.75922 0.52119 0.0
H1259 H 0.12298 0.79108 0.51009 0.0
H1260 H 0.13435 0.80023 0.53596 0.0
H1261 H 0.12432 0.79556 0.56405 0.0
H1262 H 0.10787 0.78629 0.58406 0.0
H1263 H 0.12278 0.76598 0.60501 0.0
H1264 H 0.13935 0.77552 0.58509 0.0
H1265 H 0.16202 0.79526 0.54506 0.0
H1266 H 0.18011 0.81443 0.54436 0.0
H1267 H 0.16281 0.82955 0.57352 0.0
N1268 N 0.14147 0.7896 0.55935 0.0
H1269 H 0.14455 0.81054 0.57319 0.0
C1270 C 0.22198 0.87305 0.54246 0.0
C1271 C 0.2331 0.87508 0.53721 0.0
C1272 C 0.23845 0.88174 0.52266 0.0
C1273 C 0.23275 0.88649 0.51298 0.0
C1274 C 0.2214 0.88411 0.51799 0.0
C1275 C 0.21608 0.8775 0.53263 0.0
C1276 C 0.22135 0.8754 0.57308 0.0
C1277 C 0.21906 0.88482 0.57425 0.0
C1278 C 0.225 0.89377 0.58631 0.0
C1279 C 0.23321 0.89337 0.59752 0.0
C1280 C 0.2347 0.8834 0.59711 0.0
C1281 C 0.22887 0.87455 0.58494 0.0
C1282 C 0.20625 0.85682 0.55944 0.0
C1283 C 0.20608 0.84603 0.56024 0.0
C1284 C 0.19537 0.83533 0.56048 0.0
C1285 C 0.18448 0.83516 0.55963 0.0
C1286 C 0.18469 0.84608 0.55915 0.0
C1287 C 0.19548 0.85681 0.55921 0.0
C1288 C 0.13592 0.78505 0.54316 0.0
C1289 C 0.13312 0.77357 0.53857 0.0
C1290 C 0.12655 0.76828 0.52396 0.0
C1291 C 0.12263 0.77439 0.51355 0.0
C1292 C 0.12572 0.78607 0.51793 0.0
C1293 C 0.1323 0.79135 0.53262 0.0
C1294 C 0.13311 0.78624 0.57313 0.0
C1295 C 0.12422 0.78936 0.57323 0.0
C1296 C 0.11475 0.78395 0.58459 0.0
C1297 C 0.11391 0.77525 0.59599 0.0
C1298 C 0.12318 0.77269 0.59652 0.0
C1299 C 0.13267 0.77813 0.58516 0.0
C1300 C 0.15188 0.80129 0.55922 0.0
C1301 C 0.16211 0.80274 0.5512 0.0
C1302 C 0.17251 0.81372 0.55099 0.0
C1303 C 0.17308 0.8236 0.55914 0.0
C1304 C 0.16274 0.82222 0.56698 0.0
C1305 C 0.15223 0.81122 0.56692 0.0
H1306 H 0.20365 0.30696 0.54075 0.0
N1307 N 0.20064 0.32345 0.5558 0.0
H1308 H 0.21614 0.30929 0.51632 0.0
H1309 H 0.21236 0.34335 0.5362 0.0
H1310 H 0.22462 0.34573 0.51132 0.0
H1311 H 0.22228 0.34238 0.56403 0.0
H1312 H 0.23527 0.34296 0.58659 0.0
H1313 H 0.19473 0.30839 0.5816 0.0
H1314 H 0.20735 0.30922 0.60511 0.0
H1315 H 0.18049 0.31419 0.53857 0.0
H1316 H 0.20215 0.34265 0.57286 0.0
H1317 H 0.16582 0.32054 0.53818 0.0
H1318 H 0.18713 0.34848 0.57373 0.0
H1319 H 0.11892 0.32878 0.54746 0.0
H1320 H 0.10685 0.32655 0.52263 0.0
H1321 H 0.13317 0.36152 0.50571 0.0
H1322 H 0.14502 0.36378 0.531 0.0
H1323 H 0.13255 0.36359 0.56822 0.0
H1324 H 0.11717 0.35955 0.58904 0.0
H1325 H 0.11448 0.32582 0.60017 0.0
H1326 H 0.12933 0.32965 0.57883 0.0
H1327 H 0.13582 0.32635 0.55262 0.0
H1328 H 0.15087 0.32058 0.5531 0.0
H1329 H 0.17788 0.35725 0.5603 0.0
N1330 N 0.13934 0.3488 0.55682 0.0
H1331 H 0.16249 0.36271 0.56122 0.0
C1332 C 0.20702 0.32491 0.5402 0.0
C1333 C 0.20808 0.31539 0.5342 0.0
C1334 C 0.2152 0.31675 0.52019 0.0
C1335 C 0.2214 0.32771 0.51179 0.0
C1336 C 0.22009 0.33721 0.51759 0.0
C1337 C 0.21299 0.33584 0.5317 0.0
C1338 C 0.2076 0.32516 0.57089 0.0
C1339 C 0.21893 0.33514 0.57299 0.0
C1340 C 0.22633 0.33551 0.58609 0.0
C1341 C 0.2225 0.32602 0.5976 0.0
C1342 C 0.21078 0.31652 0.59622 0.0
C1343 C 0.20347 0.31607 0.58293 0.0
C1344 C 0.19237 0.32779 0.55583 0.0
C1345 C 0.18201 0.32175 0.54616 0.0
C1346 C 0.17355 0.32533 0.54614 0.0
C1347 C 0.17508 0.33495 0.55615 0.0
C1348 C 0.1856 0.34112 0.5657 0.0
C1349 C 0.19422 0.33769 0.56537 0.0
C1350 C 0.13288 0.34652 0.54112 0.0
C1351 C 0.1222 0.33589 0.53828 0.0
C1352 C 0.1153 0.33462 0.52401 0.0
C1353 C 0.11896 0.34391 0.51222 0.0
C1354 C 0.12995 0.35428 0.51469 0.0
C1355 C 0.1368 0.35556 0.52902 0.0
C1356 C 0.13216 0.347 0.57174 0.0
C1357 C 0.12881 0.35544 0.57543 0.0
C1358 C 0.12001 0.35311 0.58742 0.0
C1359 C 0.11441 0.34227 0.59621 0.0
C1360 C 0.11835 0.33414 0.59336 0.0
C1361 C 0.12703 0.33641 0.58117 0.0
C1362 C 0.148 0.34498 0.55727 0.0
C1363 C 0.14494 0.33312 0.55464 0.0
C1364 C 0.15366 0.32986 0.55463 0.0
C1365 C 0.16573 0.33842 0.55667 0.0
C1366 C 0.16873 0.35031 0.55906 0.0
C1367 C 0.15995 0.3535 0.55949 0.0
C1368 C 0.01158 0.39147 0.06246 0.0
C1369 C 1.00132 0.38094 0.05772 0.0
C1370 C 0.01122 0.39855 0.07544 0.0
C1371 C 0.99551 0.39854 0.11356 0.0
H1372 H 0.00913 0.43207 0.10421 0.0
C1373 C 0.99422 0.43058 0.16312 0.0
C1374 C 0.00427 0.44194 0.1644 0.0
C1375 C 0.99304 0.42303 0.14972 0.0
C1376 C 0.00543 0.42277 0.10715 0.0
H1377 H 0.98267 0.36942 0.0633 0.0
H1378 H 0.98212 0.38176 0.08637 0.0
H1379 H 0.00876 0.41888 0.08205 0.0
H1380 H 0.02082 0.45433 0.15216 0.0
H1381 H 0.01905 0.44105 0.12937 0.0
H1382 H 0.99256 0.40243 0.13883 0.0
C1383 C 0.99041 0.38452 0.07983 0.0
C1384 C 0.00517 0.41521 0.0944 0.0
C1385 C 0.99073 0.37749 0.06663 0.0
C1386 C 0.01303 0.4456 0.15178 0.0
C1387 C 0.01192 0.43801 0.13851 0.0
C1388 C 0.99592 0.40614 0.12642 0.0
C1389 C 1.00062 0.39521 0.08416 0.0
C1390 C 1.0003 0.40304 0.09752 0.0
C1391 C 0.00194 0.42659 0.13732 0.0
C1392 C 1.00098 0.41838 0.12343 0.0
H1393 H 0.01989 0.39442 0.05589 0.0
H1394 H 0.01925 0.40668 0.07866 0.0
H1395 H 0.99179 0.38921 0.11631 0.0
H1396 H 0.98735 0.42735 0.17268 0.0
H1397 H 0.98514 0.41439 0.14913 0.0
C1398 C 0.61809 0.62545 0.06828 0.0
C1399 C 0.62634 0.62366 0.05915 0.0
C1400 C 0.61183 0.61805 0.08186 0.0
C1401 C 0.60122 0.58801 0.09781 0.0
H1402 H 0.59658 0.60021 0.14017 0.0
C1403 C 0.57931 0.55787 0.15591 0.0
C1404 C 0.57206 0.56028 0.16643 0.0
C1405 C 0.58583 0.5656 0.14277 0.0
C1406 C 0.59763 0.59663 0.12834 0.0
H1407 H 0.63464 0.61283 0.05741 0.0
H1408 H 0.62366 0.59991 0.08104 0.0
H1409 H 0.60843 0.61394 0.11776 0.0
H1410 H 0.56593 0.57274 0.17115 0.0
H1411 H 0.57689 0.58592 0.14787 0.0
H1412 H 0.59027 0.57071 0.10814 0.0
C1413 C 0.62201 0.607 0.07762 0.0
C1414 C 0.60447 0.60452 0.11553 0.0
C1415 C 0.62837 0.61447 0.06416 0.0
C1416 C 0.5713 0.5705 0.16321 0.0
C1417 C 0.57775 0.57818 0.14999 0.0
C1418 C 0.5943 0.58012 0.11054 0.0
C1419 C 0.61358 0.60863 0.08648 0.0
C1420 C 0.60638 0.60029 0.10016 0.0
C1421 C 0.58521 0.5759 0.1397 0.0
C1422 C 0.59243 0.58431 0.12601 0.0
H1423 H 0.61632 0.63245 0.06477 0.0
H1424 H 0.60534 0.61947 0.0884 0.0
H1425 H 0.60238 0.58448 0.08598 0.0
H1426 H 0.58001 0.55002 0.15785 0.0
H1427 H 0.59155 0.56359 0.13524 0.0
C1428 C 0.38912 0.0139 0.06431 0.0
C1429 C 0.382 0.00326 0.05554 0.0
C1430 C 0.39593 0.01418 0.07818 0.0
C1431 C 0.41006 0.99838 0.09642 0.0
H1432 H 0.41287 0.0166 0.13675 0.0
C1433 C 0.43615 0.99817 0.15574 0.0
C1434 C 0.44292 0.009 0.16427 0.0
C1435 C 0.42843 0.99714 0.14268 0.0
C1436 C 0.4123 0.01158 0.12549 0.0
H1437 H 0.37627 0.9845 0.05477 0.0
H1438 H 0.38814 0.98503 0.07899 0.0
H1439 H 0.39971 0.01538 0.1139 0.0
H1440 H 0.44676 0.02721 0.16574 0.0
H1441 H 0.43363 0.0255 0.14269 0.0
H1442 H 0.42278 0.99472 0.10786 0.0
C1443 C 0.38853 0.99316 0.07501 0.0
C1444 C 0.40473 0.01086 0.11242 0.0
C1445 C 0.38167 0.99286 0.0612 0.0
C1446 C 0.44184 0.01878 0.1593 0.0
C1447 C 0.43415 0.01775 0.14624 0.0
C1448 C 0.41768 0.99914 0.10945 0.0
C1449 C 0.39583 0.00385 0.08355 0.0
C1450 C 0.40356 0.0043 0.0977 0.0
C1451 C 0.42728 0.0069 0.13783 0.0
C1452 C 0.41895 0.00581 0.12412 0.0
H1453 H 0.3896 0.02207 0.0603 0.0
H1454 H 0.40154 0.02258 0.08442 0.0
H1455 H 0.40948 0.99338 0.08513 0.0
H1456 H 0.43683 0.99049 0.15913 0.0
H1457 H 0.4232 0.98862 0.13657 0.0
C1458 C 0.37909 0.99066 0.96033 0.0
C1459 C 0.38119 0.00164 0.96658 0.0
C1460 C 0.38564 0.9901 0.94672 0.0
C1461 C 0.41388 0.00819 0.92356 0.0
H1462 H 0.39946 0.98231 0.89133 0.0
C1463 C 0.43757 0.00449 0.86319 0.0
C1464 C 0.4362 0.99326 0.85994 0.0
C1465 C 0.43116 0.00604 0.87621 0.0
C1466 C 0.40363 0.98955 0.90031 0.0
H1467 H 0.39161 0.02066 0.96301 0.0
H1468 H 0.40282 0.01967 0.93892 0.0
H1469 H 0.38729 0.98416 0.91318 0.0
H1470 H 0.42744 0.97499 0.86849 0.0
H1471 H 0.41614 0.97767 0.8909 0.0
H1472 H 0.4302 0.01362 0.91039 0.0
C1473 C 0.3963 0.01149 0.94483 0.0
C1474 C 0.39666 0.9906 0.91287 0.0
C1475 C 0.3898 0.01205 0.95857 0.0
C1476 C 0.42853 0.98371 0.87035 0.0
C1477 C 0.42205 0.98523 0.88322 0.0
C1478 C 0.42083 0.00719 0.91086 0.0
C1479 C 0.3944 1.0005 0.93886 0.0
C1480 C 0.40171 0.99984 0.92482 0.0
C1481 C 0.42318 0.99638 0.88614 0.0
C1482 C 0.4158 0.99777 0.89925 0.0
H1483 H 0.37258 0.98246 0.96625 0.0
H1484 H 0.38404 0.98148 0.94268 0.0
H1485 H 0.41812 0.01532 0.93266 0.0
H1486 H 0.44327 0.01202 0.85532 0.0
H1487 H 0.43216 0.01472 0.87813 0.0
C1488 C 0.01732 0.39239 0.96662 0.0
C1489 C 0.0067 0.38183 0.96988 0.0
C1490 C 0.01815 0.39965 0.95304 0.0
C1491 C 0.99909 0.40526 0.92358 0.0
H1492 H 0.02895 0.42499 0.90059 0.0
C1493 C 0.00398 0.43184 0.86232 0.0
C1494 C 0.01248 0.444 0.86294 0.0
C1495 C 0.00329 0.42418 0.87522 0.0
C1496 C 0.02058 0.41956 0.90698 0.0
H1497 H 0.98878 0.37032 0.96102 0.0
H1498 H 0.99036 0.38263 0.93683 0.0
H1499 H 0.02773 0.41122 0.9225 0.0
H1500 H 0.02688 0.45752 0.87794 0.0
H1501 H 0.02594 0.44398 0.90006 0.0
H1502 H 0.99191 0.41339 0.9075 0.0
C1503 C 0.99795 0.3856 0.94512 0.0
C1504 C 0.01986 0.4117 0.91961 0.0
C1505 C 0.99706 0.37846 0.95891 0.0
C1506 C 0.02035 0.44822 0.8768 0.0
C1507 C 0.01979 0.44049 0.88954 0.0
C1508 C 0.99976 0.41295 0.91073 0.0
C1509 C 0.00843 0.39643 0.94217 0.0
C1510 C 0.00912 0.40449 0.9282 0.0
C1511 C 0.01122 0.42842 0.88888 0.0
C1512 C 0.01053 0.42023 0.90241 0.0
H1513 H 0.02489 0.39529 0.97494 0.0
H1514 H 0.02631 0.40798 0.95145 0.0
H1515 H 0.99072 0.4001 0.93009 0.0
H1516 H 0.99796 0.42813 0.8517 0.0
H1517 H 0.99668 0.41487 0.87435 0.0
C1518 C 0.62193 0.61464 0.96633 0.0
C1519 C 0.62215 0.6251 0.97129 0.0
C1520 C 0.61446 0.60761 0.95334 0.0
C1521 C 0.59846 0.60762 0.91555 0.0
H1522 H 0.57918 0.57398 0.92466 0.0
C1523 C 0.56632 0.57486 0.8653 0.0
C1524 C 0.56602 0.56395 0.86393 0.0
C1525 C 0.5721 0.58248 0.87893 0.0
C1526 C 0.58458 0.58333 0.92181 0.0
H1527 H 0.61494 0.63659 0.96606 0.0
H1528 H 0.60199 0.62435 0.94298 0.0
H1529 H 0.59176 0.58726 0.94692 0.0
H1530 H 0.57118 0.55234 0.87625 0.0
H1531 H 0.58158 0.56572 0.8995 0.0
H1532 H 0.59165 0.60366 0.89024 0.0
C1533 C 0.60758 0.62159 0.94935 0.0
C1534 C 0.59175 0.59093 0.93461 0.0
C1535 C 0.61496 0.62857 0.96256 0.0
C1536 C 0.57139 0.56075 0.87672 0.0
C1537 C 0.57722 0.56838 0.89024 0.0
C1538 C 0.59138 0.59998 0.90264 0.0
C1539 C 0.60711 0.61094 0.94484 0.0
C1540 C 0.59889 0.60312 0.93154 0.0
C1541 C 0.57775 0.57939 0.89148 0.0
C1542 C 0.5845 0.5877 0.90553 0.0
H1543 H 0.62734 0.61168 0.97275 0.0
H1544 H 0.61439 0.59953 0.94996 0.0
H1545 H 0.60393 0.61698 0.91285 0.0
H1546 H 0.56237 0.57767 0.85562 0.0
H1547 H 0.57219 0.59082 0.87957 0.0
C1548 C 0.01354 0.62733 0.962 0.0
C1549 C 0.00315 0.62372 0.97149 0.0
C1550 C 0.01366 0.62038 0.94855 0.0
C1551 C 0.99875 0.58967 0.93371 0.0
H1552 H 0.01151 0.60289 0.88952 0.0
C1553 C 0.99116 0.55995 0.8756 0.0
C1554 C 1.0001 0.56368 0.86325 0.0
C1555 C 0.99216 0.5674 0.88901 0.0
C1556 C 0.00809 0.59906 0.90186 0.0
H1557 H 0.9847 0.61004 0.97408 0.0
H1558 H 0.98499 0.59794 0.95081 0.0
H1559 H 0.01219 0.61588 0.91231 0.0
H1560 H 0.01722 0.57822 0.85554 0.0
H1561 H 0.01919 0.59099 0.8793 0.0
H1562 H 0.99481 0.57291 0.92351 0.0
C1563 C 0.99303 0.60612 0.9538 0.0
C1564 C 0.00845 0.60652 0.91488 0.0
C1565 C 0.99286 0.61311 0.96706 0.0
C1566 C 0.0102 0.57497 0.8649 0.0
C1567 C 0.01126 0.58239 0.87841 0.0
C1568 C 0.99852 0.58224 0.92078 0.0
C1569 C 0.00345 0.60961 0.94451 0.0
C1570 C 0.00364 0.60187 0.93087 0.0
C1571 C 0.00219 0.57875 0.89056 0.0
C1572 C 0.00304 0.5868 0.9046 0.0
H1573 H 0.02161 0.63545 0.96506 0.0
H1574 H 0.02183 0.62326 0.9416 0.0
H1575 H 0.99515 0.58587 0.94601 0.0
H1576 H 0.98332 0.55126 0.8749 0.0
H1577 H 0.98491 0.56432 0.89796 0.0
C1578 C 0.37918 0.39119 0.96424 0.0
C1579 C 0.38237 0.38348 0.97205 0.0
C1580 C 0.3859 0.39845 0.95079 0.0
C1581 C 0.41587 0.4125 0.9327 0.0
H1582 H 0.40105 0.41644 0.89254 0.0
C1583 C 0.44299 0.43822 0.8738 0.0
C1584 C 0.43927 0.44513 0.86488 0.0
C1585 C 0.43608 0.43072 0.88692 0.0
C1586 C 0.40534 0.41558 0.90377 0.0
H1587 H 0.395 0.37723 0.97159 0.0
H1588 H 0.40666 0.3899 0.94822 0.0
H1589 H 0.38874 0.40322 0.9151 0.0
H1590 H 0.42529 0.44951 0.86288 0.0
H1591 H 0.41353 0.43685 0.8861 0.0
H1592 H 0.43246 0.42498 0.92157 0.0
C1593 C 0.39903 0.39038 0.95258 0.0
C1594 C 0.39827 0.40797 0.91667 0.0
C1595 C 0.39228 0.38307 0.9659 0.0
C1596 C 0.42855 0.44447 0.8696 0.0
C1597 C 0.42168 0.43704 0.88277 0.0
C1598 C 0.42294 0.42018 0.91987 0.0
C1599 C 0.39598 0.39824 0.94497 0.0
C1600 C 0.40346 0.40633 0.93125 0.0
C1601 C 0.42529 0.42998 0.89151 0.0
C1602 C 0.41777 0.42182 0.90522 0.0
H1603 H 0.37161 0.39173 0.96864 0.0
H1604 H 0.38337 0.40447 0.94524 0.0
H1605 H 0.42012 0.41155 0.94391 0.0
H1606 H 0.45125 0.43858 0.87064 0.0
H1607 H 0.43909 0.42534 0.89325 0.0
C1608 C 0.62546 0.00997 0.96114 0.0
C1609 C 0.62346 0.99972 0.96986 0.0
C1610 C 0.61814 0.00921 0.94765 0.0
C1611 C 0.5881 0.99057 0.93125 0.0
H1612 H 0.60086 0.00751 0.88909 0.0
C1613 C 0.55847 0.98329 0.87285 0.0
C1614 C 0.56125 0.99299 0.8622 0.0
C1615 C 0.56603 0.98428 0.88612 0.0
C1616 C 0.59712 0.00287 0.90087 0.0
H1617 H 0.61231 0.9806 0.97101 0.0
H1618 H 0.59951 0.97931 0.94755 0.0
H1619 H 0.61431 0.00891 0.91163 0.0
H1620 H 0.57417 0.01144 0.85744 0.0
H1621 H 0.58703 0.01331 0.88098 0.0
H1622 H 0.57092 0.9847 0.92075 0.0
C1623 C 0.60672 0.98793 0.95121 0.0
C1624 C 0.60485 0.00363 0.91375 0.0
C1625 C 0.61412 0.98867 0.96457 0.0
C1626 C 0.57164 0.0038 0.86547 0.0
C1627 C 0.57914 0.00483 0.87884 0.0
C1628 C 0.58036 0.9899 0.91845 0.0
C1629 C 0.60859 0.9982 0.94272 0.0
C1630 C 0.60042 0.99744 0.92903 0.0
C1631 C 0.57652 0.99505 0.88923 0.0
C1632 C 0.58476 0.99599 0.90305 0.0
H1633 H 0.63258 0.01861 0.96487 0.0
H1634 H 0.61976 0.01727 0.94138 0.0
H1635 H 0.58443 0.98585 0.943 0.0
H1636 H 0.55047 0.97486 0.8709 0.0
H1637 H 0.56374 0.97651 0.89372 0.0
C1638 C 0.62852 0.01343 0.06705 0.0
C1639 C 0.62542 0.00289 0.05825 0.0
C1640 C 0.62168 0.01341 0.08079 0.0
C1641 C 0.59829 0.99302 0.11102 0.0
H1642 H 0.59181 0.01886 0.11551 0.0
C1643 C 0.5596 0.98895 0.15098 0.0
C1644 C 0.56222 0.99806 0.16273 0.0
C1645 C 0.56784 0.99021 0.13865 0.0
C1646 C 0.59363 0.01164 0.11448 0.0
H1647 H 0.61276 0.98405 0.05714 0.0
H1648 H 0.60079 0.98407 0.0806 0.0
H1649 H 0.60555 0.01977 0.09367 0.0
H1650 H 0.57556 0.01584 0.17026 0.0
H1651 H 0.58979 0.01814 0.1483 0.0
H1652 H 0.58606 0.98473 0.13146 0.0
C1653 C 0.60862 0.99232 0.07726 0.0
C1654 C 0.60155 0.01217 0.10203 0.0
C1655 C 0.61548 0.99233 0.06367 0.0
C1656 C 0.57314 0.00868 0.16133 0.0
C1657 C 0.58134 0.00999 0.14882 0.0
C1658 C 0.59029 0.99243 0.12328 0.0
C1659 C 0.61157 0.00286 0.08596 0.0
C1660 C 0.60386 0.00279 0.1 0.0
C1661 C 0.57885 1.00068 0.13757 0.0
C1662 C 0.58777 0.00166 0.12501 0.0
H1663 H 0.63614 0.02172 0.06324 0.0
H1664 H 0.62433 0.02166 0.08733 0.0
H1665 H 0.60006 0.98576 0.11015 0.0
H1666 H 0.55119 0.98076 0.15137 0.0
H1667 H 0.5656 0.98297 0.12993 0.0
C1668 C 0.98896 0.61606 0.06809 0.0
C1669 C 0.99977 0.62289 0.05957 0.0
C1670 C 0.98812 0.60877 0.08166 0.0
C1671 C 0.00636 0.60315 0.11255 0.0
H1672 H 0.97851 0.57189 0.11518 0.0
C1673 C 0.00413 0.5666 0.15631 0.0
C1674 C 0.99374 0.56022 0.16596 0.0
C1675 C 0.0047 0.57419 0.14334 0.0
C1676 C 0.9863 0.58063 0.1147 0.0
H1677 H 0.01826 0.62757 0.05893 0.0
H1678 H 0.01677 0.61477 0.08229 0.0
H1679 H 0.97984 0.58558 0.09309 0.0
H1680 H 0.97577 0.55681 0.16938 0.0
H1681 H 0.97673 0.56986 0.14658 0.0
H1682 H 0.01288 0.59809 0.13401 0.0
C1683 C 0.00895 0.61515 0.07871 0.0
C1684 C 0.98705 0.58851 0.10208 0.0
C1685 C 0.00979 0.62247 0.06521 0.0
C1686 C 0.98385 0.56141 0.16204 0.0
C1687 C 0.9844 0.56893 0.149 0.0
C1688 C 0.00564 0.59525 0.12509 0.0
C1689 C 0.99808 0.60811 0.087 0.0
C1690 C 0.9971 0.59986 0.1008 0.0
C1691 C 0.99488 0.57551 0.13964 0.0
C1692 C 0.99562 0.58388 0.12628 0.0
H1693 H 0.98107 0.6162 0.06413 0.0
H1694 H 0.97966 0.60363 0.08794 0.0
H1695 H 0.01414 0.61189 0.11215 0.0
H1696 H 0.01184 0.56576 0.15877 0.0
H1697 H 0.01283 0.579 0.13616 0.0
C1698 C 0.38142 0.3872 0.06923 0.0
C1699 C 0.38346 0.37905 0.06031 0.0
C1700 C 0.38864 0.39358 0.08289 0.0
C1701 C 0.41095 0.39448 0.11321 0.0
H1702 H 0.42034 0.42771 0.11669 0.0
C1703 C 0.44901 0.42669 0.15676 0.0
C1704 C 0.44691 0.43434 0.16688 0.0
C1705 C 0.44116 0.42007 0.14381 0.0
C1706 C 0.41771 0.41842 0.11598 0.0
H1707 H 0.39455 0.37102 0.05906 0.0
H1708 H 0.40724 0.38226 0.08265 0.0
H1709 H 0.40654 0.41556 0.09455 0.0
H1710 H 0.43495 0.44114 0.17102 0.0
H1711 H 0.42136 0.42973 0.1482 0.0
H1712 H 0.4223 0.39743 0.13449 0.0
C1713 C 0.39995 0.38362 0.07928 0.0
C1714 C 0.40976 0.41143 0.10332 0.0
C1715 C 0.39269 0.37718 0.06568 0.0
C1716 C 0.43695 0.43547 0.16335 0.0
C1717 C 0.42912 0.4289 0.15031 0.0
C1718 C 0.41895 0.40149 0.12579 0.0
C1719 C 0.39813 0.39202 0.08792 0.0
C1720 C 0.4063 0.39937 0.10174 0.0
C1721 C 0.43106 0.42099 0.14057 0.0
C1722 C 0.42246 0.41355 0.12727 0.0
H1723 H 0.37435 0.3888 0.06551 0.0
H1724 H 0.38682 0.39979 0.08945 0.0
H1725 H 0.40834 0.38519 0.11258 0.0
H1726 H 0.45672 0.42576 0.15889 0.0
H1727 H 0.44301 0.41422 0.13631 0.0
C1728 C 0.65844 0.71205 0.39964 0.0
C1729 C 0.6689 0.71548 0.3904 0.0
C1730 C 0.65832 0.71908 0.413 0.0
C1731 C 0.6734 0.7498 0.42758 0.0
H1732 H 0.66067 0.73698 0.47195 0.0
C1733 C 0.68109 0.78016 0.48497 0.0
C1734 C 0.67223 0.77652 0.49745 0.0
C1735 C 0.68006 0.77256 0.47176 0.0
C1736 C 0.66407 0.7407 0.45956 0.0
H1737 H 0.68747 0.72891 0.38816 0.0
H1738 H 0.68717 0.74117 0.41123 0.0
H1739 H 0.65985 0.72376 0.44939 0.0
H1740 H 0.65524 0.76195 0.50555 0.0
H1741 H 0.6532 0.74896 0.48211 0.0
H1742 H 0.67743 0.76667 0.43744 0.0
C1743 C 0.67908 0.73306 0.40813 0.0
C1744 C 0.66364 0.73311 0.44667 0.0
C1745 C 0.67925 0.72598 0.39499 0.0
C1746 C 0.66218 0.76516 0.4961 0.0
C1747 C 0.6611 0.7576 0.48276 0.0
C1748 C 0.67369 0.75736 0.44036 0.0
C1749 C 0.6686 0.72976 0.41716 0.0
C1750 C 0.66845 0.73762 0.43063 0.0
C1751 C 0.67008 0.76115 0.47049 0.0
C1752 C 0.66918 0.75296 0.45661 0.0
H1753 H 0.65032 0.70401 0.39644 0.0
H1754 H 0.65012 0.71635 0.41975 0.0
H1755 H 0.677 0.75349 0.41524 0.0
H1756 H 0.68887 0.78889 0.48541 0.0
H1757 H 0.68725 0.77559 0.46272 0.0
C1758 C 0.29472 0.9492 0.39621 0.0
C1759 C 0.29265 0.95837 0.39126 0.0
C1760 C 0.28835 0.94166 0.40959 0.0
C1761 C 0.27068 0.9389 0.44747 0.0
H1762 H 0.25679 0.90515 0.4398 0.0
C1763 C 0.23794 0.90447 0.49518 0.0
C1764 C 0.2389 0.89436 0.49824 0.0
C1765 C 0.24424 0.91223 0.48195 0.0
C1766 C 0.26073 0.91454 0.44227 0.0
H1767 H 0.28255 0.96707 0.39694 0.0
H1768 H 0.27154 0.95397 0.42045 0.0
H1769 H 0.26879 0.91906 0.41771 0.0
H1770 H 0.24705 0.88435 0.48938 0.0
H1771 H 0.25834 0.89805 0.46677 0.0
H1772 H 0.26282 0.93443 0.47213 0.0
C1773 C 0.27807 0.9526 0.41391 0.0
C1774 C 0.26759 0.92251 0.42958 0.0
C1775 C 0.28435 0.96008 0.4004 0.0
C1776 C 0.2462 0.89212 0.48756 0.0
C1777 C 0.25257 0.89992 0.47441 0.0
C1778 C 0.2639 0.93092 0.46024 0.0
C1779 C 0.27986 0.94319 0.41845 0.0
C1780 C 0.27265 0.93478 0.43205 0.0
C1781 C 0.25175 0.91013 0.4715 0.0
C1782 C 0.25883 0.91863 0.45781 0.0
H1783 H 0.30104 0.94762 0.38946 0.0
H1784 H 0.29003 0.93458 0.41296 0.0
H1785 H 0.27456 0.9483 0.44979 0.0
H1786 H 0.23252 0.90658 0.50325 0.0
H1787 H 0.24324 0.9199 0.47995 0.0
C1788 C 0.04794 0.32661 0.39774 0.0
C1789 C 0.04806 0.33688 0.39196 0.0
C1790 C 0.05515 0.32717 0.41123 0.0
C1791 C 0.07232 0.34538 0.44771 0.0
H1792 H 0.09018 0.32913 0.442 0.0
C1793 C 0.11002 0.35292 0.49338 0.0
C1794 C 0.11106 0.34305 0.49799 0.0
C1795 C 0.10222 0.35204 0.48057 0.0
C1796 C 0.08515 0.33359 0.44392 0.0
H1797 H 0.05561 0.35573 0.39626 0.0
H1798 H 0.06817 0.35669 0.41986 0.0
H1799 H 0.07643 0.3277 0.41996 0.0
H1800 H 0.10479 0.32455 0.49243 0.0
H1801 H 0.09097 0.32295 0.47038 0.0
H1802 H 0.08098 0.35123 0.4717 0.0
C1803 C 0.06246 0.3482 0.41394 0.0
C1804 C 0.07727 0.33278 0.43127 0.0
C1805 C 0.05529 0.34766 0.40037 0.0
C1806 C 0.10415 0.3323 0.48933 0.0
C1807 C 0.09631 0.33142 0.47655 0.0
C1808 C 0.08017 0.34615 0.4604 0.0
C1809 C 0.06261 0.338 0.41933 0.0
C1810 C 0.07079 0.33869 0.43299 0.0
C1811 C 0.0952 0.34126 0.47206 0.0
C1812 C 0.08672 0.34031 0.45864 0.0
H1813 H 0.04246 0.31815 0.39161 0.0
H1814 H 0.05493 0.31913 0.41526 0.0
H1815 H 0.06735 0.34992 0.4495 0.0
H1816 H 0.11506 0.36129 0.49992 0.0
H1817 H 0.10173 0.35985 0.4773 0.0
C1818 C 0.04441 0.324 0.2948 0.0
C1819 C 0.04766 0.33463 0.30341 0.0
C1820 C 0.0512 0.32379 0.2812 0.0
C1821 C 0.08137 0.33999 0.26373 0.0
H1822 H 0.06672 0.32157 0.22324 0.0
C1823 C 0.10874 0.34086 0.20532 0.0
C1824 C 0.10499 0.33009 0.19677 0.0
C1825 C 0.10178 0.34169 0.21815 0.0
C1826 C 0.07096 0.32665 0.23454 0.0
H1827 H 0.06045 0.35345 0.30418 0.0
H1828 H 0.07223 0.35306 0.28046 0.0
H1829 H 0.05433 0.32253 0.24563 0.0
H1830 H 0.0909 0.31176 0.19505 0.0
H1831 H 0.07902 0.31313 0.21773 0.0
H1832 H 0.09799 0.34398 0.2528 0.0
C1833 C 0.06451 0.34487 0.28435 0.0
C1834 C 0.06385 0.32721 0.24735 0.0
C1835 C 0.0577 0.34509 0.29787 0.0
C1836 C 0.09417 0.32016 0.20151 0.0
C1837 C 0.08724 0.32099 0.21435 0.0
C1838 C 0.08849 0.33938 0.25095 0.0
C1839 C 0.06141 0.33419 0.27596 0.0
C1840 C 0.06897 0.33385 0.26212 0.0
C1841 C 0.09091 0.33178 0.22276 0.0
C1842 C 0.08337 0.33266 0.23623 0.0
H1843 H 0.03674 0.31577 0.29872 0.0
H1844 H 0.04862 0.3154 0.27508 0.0
H1845 H 0.08558 0.34505 0.27506 0.0
H1846 H 0.11706 0.34866 0.2021 0.0
H1847 H 0.10483 0.35017 0.22426 0.0
C1848 C 0.66276 0.71473 0.29351 0.0
C1849 C 0.67292 0.71656 0.30235 0.0
C1850 C 0.66371 0.72209 0.27999 0.0
C1851 C 0.68281 0.75212 0.26387 0.0
H1852 H 0.66581 0.7398 0.22164 0.0
C1853 C 0.69063 0.78221 0.2059 0.0
C1854 C 0.68095 0.7797 0.19535 0.0
C1855 C 0.6895 0.77451 0.21903 0.0
C1856 C 0.67048 0.74342 0.23344 0.0
H1857 H 0.69206 0.72744 0.30362 0.0
H1858 H 0.69367 0.74031 0.2801 0.0
H1859 H 0.66414 0.72612 0.244 0.0
H1860 H 0.66241 0.76708 0.19058 0.0
H1861 H 0.66031 0.75396 0.21387 0.0
H1862 H 0.68897 0.76939 0.25358 0.0
C1863 C 0.68499 0.7332 0.2837 0.0
C1864 C 0.66956 0.73556 0.24621 0.0
C1865 C 0.68406 0.72576 0.29709 0.0
C1866 C 0.67003 0.76941 0.19854 0.0
C1867 C 0.66887 0.76175 0.21176 0.0
C1868 C 0.68364 0.75998 0.25118 0.0
C1869 C 0.67481 0.73153 0.27513 0.0
C1870 C 0.67576 0.73983 0.26153 0.0
C1871 C 0.67863 0.76413 0.22207 0.0
C1872 C 0.67753 0.75574 0.23576 0.0
H1873 H 0.65404 0.70772 0.29721 0.0
H1874 H 0.65571 0.72063 0.27366 0.0
H1875 H 0.68754 0.75567 0.27566 0.0
H1876 H 0.69913 0.79012 0.20398 0.0
H1877 H 0.69725 0.77659 0.22655 0.0
C1878 C 0.28091 0.96347 0.29504 0.0
C1879 C 0.28817 0.96004 0.30367 0.0
C1880 C 0.27341 0.95642 0.28195 0.0
C1881 C 0.25742 0.92568 0.2676 0.0
H1882 H 0.25721 0.93803 0.22299 0.0
C1883 C 0.23696 0.89497 0.21026 0.0
C1884 C 0.23159 0.89806 0.19731 0.0
C1885 C 0.24279 0.90272 0.22366 0.0
C1886 C 0.25697 0.93445 0.23547 0.0
H1887 H 0.29336 0.94661 0.30505 0.0
H1888 H 0.28023 0.93436 0.2825 0.0
H1889 H 0.26956 0.95154 0.24539 0.0
H1890 H 0.22796 0.91171 0.1886 0.0
H1891 H 0.23778 0.92507 0.21235 0.0
H1892 H 0.24482 0.90865 0.25795 0.0
C1893 C 0.28032 0.94246 0.28586 0.0
C1894 C 0.26409 0.9422 0.24826 0.0
C1895 C 0.28791 0.94954 0.29871 0.0
C1896 C 0.2319 0.90898 0.19841 0.0
C1897 C 0.23768 0.91673 0.21192 0.0
C1898 C 0.25021 0.91796 0.25493 0.0
C1899 C 0.27291 0.94575 0.27747 0.0
C1900 C 0.26457 0.93783 0.26433 0.0
C1901 C 0.24332 0.91375 0.22463 0.0
C1902 C 0.25009 0.92219 0.23856 0.0
H1903 H 0.28091 0.9715 0.29853 0.0
H1904 H 0.26778 0.95915 0.27565 0.0
H1905 H 0.25748 0.92211 0.27999 0.0
H1906 H 0.23675 0.88656 0.20999 0.0
H1907 H 0.24715 0.90015 0.23303 0.0
C1908 C 0.68485 0.96124 0.29799 0.0
C1909 C 0.6737 0.95946 0.30284 0.0
C1910 C 0.68591 0.95499 0.28433 0.0
C1911 C 0.66825 0.92782 0.25881 0.0
H1912 H 0.69551 0.9423 0.22895 0.0
C1913 C 0.67235 0.90516 0.19789 0.0
C1914 C 0.68344 0.90616 0.19474 0.0
C1915 C 0.67093 0.91147 0.21115 0.0
C1916 C 0.6879 0.9381 0.23728 0.0
H1917 H 0.65496 0.95 0.29672 0.0
H1918 H 0.65685 0.93934 0.27268 0.0
H1919 H 0.69347 0.95409 0.25127 0.0
H1920 H 0.7016 0.91422 0.2036 0.0
H1921 H 0.69914 0.92532 0.22656 0.0
H1922 H 0.66264 0.91186 0.24463 0.0
C1923 C 0.66475 0.94535 0.27968 0.0
C1924 C 0.68673 0.94485 0.2501 0.0
C1925 C 0.66368 0.95154 0.2934 0.0
C1926 C 0.69299 0.91342 0.20543 0.0
C1927 C 0.69159 0.91978 0.2186 0.0
C1928 C 0.66938 0.92109 0.24591 0.0
C1929 C 0.67586 0.94686 0.27511 0.0
C1930 C 0.67692 0.93979 0.2611 0.0
C1931 C 0.68058 0.91898 0.2215 0.0
C1932 C 0.67926 0.92614 0.23508 0.0
H1933 H 0.69275 0.96723 0.30502 0.0
H1934 H 0.69459 0.95629 0.28133 0.0
H1935 H 0.66068 0.92355 0.26721 0.0
H1936 H 0.66484 0.89979 0.18978 0.0
H1937 H 0.66236 0.91075 0.21299 0.0
C1938 C 0.05832 0.7174 0.29704 0.0
C1939 C 0.04847 0.71787 0.30336 0.0
C1940 C 0.06497 0.72465 0.28361 0.0
C1941 C 0.06411 0.74208 0.24764 0.0
H1942 H 0.0983 0.75917 0.25248 0.0
C1943 C 0.09438 0.77802 0.1998 0.0
C1944 C 0.10514 0.77868 0.19532 0.0
C1945 C 0.0875 0.77074 0.21308 0.0
C1946 C 0.08878 0.75435 0.25079 0.0
H1947 H 0.0377 0.72612 0.3001 0.0
H1948 H 0.04929 0.73873 0.27646 0.0
H1949 H 0.086 0.74591 0.27498 0.0
H1950 H 0.11716 0.77227 0.20164 0.0
H1951 H 0.10497 0.75927 0.2244 0.0
H1952 H 0.06686 0.75033 0.22334 0.0
C1953 C 0.05185 0.73274 0.28199 0.0
C1954 C 0.08173 0.74677 0.26372 0.0
C1955 C 0.04523 0.72554 0.29556 0.0
C1956 C 0.10887 0.77191 0.20459 0.0
C1957 C 0.10193 0.76455 0.21781 0.0
C1958 C 0.07116 0.74958 0.23463 0.0
C1959 C 0.06189 0.73249 0.27605 0.0
C1960 C 0.06932 0.74055 0.26228 0.0
C1961 C 0.09112 0.76383 0.22218 0.0
C1962 C 0.0836 0.75583 0.23604 0.0
H1963 H 0.06108 0.71159 0.30269 0.0
H1964 H 0.07257 0.72415 0.27914 0.0
H1965 H 0.05458 0.7373 0.2461 0.0
H1966 H 0.09111 0.78295 0.19281 0.0
H1967 H 0.07932 0.77057 0.21622 0.0
C1968 C 0.2862 0.32671 0.29312 0.0
C1969 C 0.29294 0.33683 0.30313 0.0
C1970 C 0.27957 0.32708 0.2794 0.0
C1971 C 0.27628 0.34816 0.25115 0.0
H1972 H 0.24467 0.32162 0.24369 0.0
C1973 C 0.24244 0.35197 0.20879 0.0
C1974 C 0.23624 0.34287 0.19692 0.0
C1975 C 0.24924 0.35076 0.22148 0.0
C1976 C 0.25352 0.32905 0.24553 0.0
H1977 H 0.29807 0.35532 0.30643 0.0
H1978 H 0.2864 0.35589 0.28288 0.0
H1979 H 0.2571 0.32044 0.2659 0.0
H1980 H 0.23219 0.32522 0.18939 0.0
H1981 H 0.24387 0.32302 0.21181 0.0
H1982 H 0.27259 0.35686 0.23103 0.0
C1983 C 0.28638 0.34771 0.28534 0.0
C1984 C 0.26068 0.32837 0.25821 0.0
C1985 C 0.29303 0.34736 0.29895 0.0
C1986 C 0.23671 0.33235 0.19843 0.0
C1987 C 0.24344 0.3311 0.21123 0.0
C1988 C 0.26911 0.34887 0.2386 0.0
C1989 C 0.2795 0.33757 0.27542 0.0
C1990 C 0.27211 0.33797 0.26129 0.0
C1991 C 0.24993 0.34037 0.22272 0.0
C1992 C 0.25761 0.33938 0.23575 0.0
H1993 H 0.28595 0.31847 0.29595 0.0
H1994 H 0.2745 0.31915 0.2719 0.0
H1995 H 0.28512 0.35562 0.25288 0.0
H1996 H 0.24209 0.36009 0.20826 0.0
H1997 H 0.25396 0.35796 0.23035 0.0
C1998 C 0.28197 0.32433 0.3958 0.0
C1999 C 0.29235 0.3349 0.3916 0.0
C2000 C 0.27492 0.32392 0.40941 0.0
C2001 C 0.26841 0.34327 0.43628 0.0
H2002 H 0.25179 0.31488 0.46364 0.0
C2003 C 0.24055 0.33973 0.49586 0.0
C2004 C 0.22954 0.32925 0.4975 0.0
C2005 C 0.24851 0.34084 0.48311 0.0
C2006 C 0.2563 0.32284 0.45602 0.0
H2007 H 0.30363 0.35327 0.39881 0.0
H2008 H 0.29147 0.35251 0.42284 0.0
H2009 H 0.26557 0.31603 0.44185 0.0
H2010 H 0.21813 0.31193 0.48648 0.0
H2011 H 0.23209 0.31381 0.46447 0.0
H2012 H 0.25916 0.35009 0.45065 0.0
C2013 C 0.28864 0.34457 0.41535 0.0
C2014 C 0.2642 0.3235 0.44351 0.0
C2015 C 0.29567 0.345 0.40164 0.0
C2016 C 0.22661 0.32003 0.48584 0.0
C2017 C 0.2346 0.3211 0.4732 0.0
C2018 C 0.26057 0.34264 0.4489 0.0
C2019 C 0.27811 0.33406 0.41929 0.0
C2020 C 0.27025 0.33367 0.43332 0.0
C2021 C 0.24569 0.33147 0.47181 0.0
C2022 C 0.25433 0.33236 0.45877 0.0
H2023 H 0.27908 0.31637 0.3883 0.0
H2024 H 0.26679 0.31571 0.41187 0.0
H2025 H 0.27277 0.35118 0.42854 0.0
H2026 H 0.24319 0.34696 0.50474 0.0
H2027 H 0.25703 0.3489 0.48243 0.0
C2028 C 0.67618 0.95528 0.39782 0.0
C2029 C 0.66613 0.95519 0.39117 0.0
C2030 C 0.67515 0.94798 0.41144 0.0
C2031 C 0.6532 0.92081 0.43389 0.0
H2032 H 0.67807 0.93142 0.46766 0.0
C2033 C 0.64948 0.8944 0.49497 0.0
C2034 C 0.65951 0.89362 0.49954 0.0
C2035 C 0.65003 0.90173 0.48165 0.0
C2036 C 0.67111 0.9283 0.45824 0.0
H2037 H 0.64714 0.94758 0.39398 0.0
H2038 H 0.64539 0.93506 0.41805 0.0
H2039 H 0.67941 0.94495 0.44533 0.0
H2040 H 0.67787 0.89968 0.49318 0.0
H2041 H 0.67885 0.91261 0.47014 0.0
H2042 H 0.64484 0.9042 0.44704 0.0
C2043 C 0.65404 0.94058 0.41247 0.0
C2044 C 0.67187 0.93604 0.44542 0.0
C2045 C 0.65506 0.94783 0.39874 0.0
C2046 C 0.67004 0.90022 0.49024 0.0
C2047 C 0.6706 0.90762 0.47702 0.0
C2048 C 0.65239 0.9131 0.44682 0.0
C2049 C 0.66406 0.94047 0.41888 0.0
C2050 C 0.66297 0.93238 0.43298 0.0
C2051 C 0.66064 0.90853 0.47267 0.0
C2052 C 0.66138 0.91673 0.45905 0.0
H2053 H 0.68484 0.96078 0.39226 0.0
H2054 H 0.68304 0.94802 0.41583 0.0
H2055 H 0.64628 0.91761 0.4244 0.0
H2056 H 0.64129 0.88963 0.50201 0.0
H2057 H 0.64224 0.90234 0.47869 0.0
C2058 C 0.04944 0.72277 0.40045 0.0
C2059 C 0.05116 0.71438 0.39159 0.0
C2060 C 0.05679 0.72907 0.41405 0.0
C2061 C 0.07868 0.72921 0.44443 0.0
H2062 H 0.08898 0.76266 0.44805 0.0
C2063 C 0.1168 0.76053 0.48863 0.0
C2064 C 0.11488 0.76833 0.49869 0.0
C2065 C 0.10898 0.75411 0.47554 0.0
C2066 C 0.0861 0.75331 0.44729 0.0
H2067 H 0.06184 0.70591 0.39033 0.0
H2068 H 0.07475 0.71702 0.41379 0.0
H2069 H 0.07513 0.75083 0.42574 0.0
H2070 H 0.10329 0.7756 0.50259 0.0
H2071 H 0.08977 0.76453 0.47953 0.0
H2072 H 0.08981 0.73177 0.46584 0.0
C2073 C 0.06761 0.71861 0.41043 0.0
C2074 C 0.07812 0.7465 0.43454 0.0
C2075 C 0.06022 0.71226 0.39691 0.0
C2076 C 0.10514 0.76981 0.49497 0.0
C2077 C 0.09736 0.76343 0.48179 0.0
C2078 C 0.08671 0.73603 0.4571 0.0
C2079 C 0.06608 0.72719 0.41906 0.0
C2080 C 0.07433 0.73437 0.43292 0.0
C2081 C 0.0991 0.75539 0.47209 0.0
C2082 C 0.09053 0.74816 0.45864 0.0
H2083 H 0.0425 0.72458 0.39677 0.0
H2084 H 0.0552 0.73544 0.42059 0.0
H2085 H 0.0758 0.71986 0.44376 0.0
H2086 H 0.12433 0.75934 0.49092 0.0
H2087 H 0.11068 0.74814 0.46808 0.0
C2088 C 0.34644 0.05766 0.7303 0.0
C2089 C 0.33593 0.04778 0.72458 0.0
C2090 C 0.34633 0.06429 0.74411 0.0
C2091 C 0.32633 0.07089 0.76938 0.0
H2092 H 0.35362 0.08575 0.79918 0.0
C2093 C 0.3298 0.09833 0.82991 0.0
C2094 C 0.34042 0.10923 0.83145 0.0
C2095 C 0.32845 0.0903 0.8171 0.0
C2096 C 0.34596 0.08169 0.79091 0.0
H2097 H 0.31706 0.03698 0.72921 0.0
H2098 H 0.31691 0.0484 0.75369 0.0
H2099 H 0.35266 0.07214 0.7773 0.0
H2100 H 0.35766 0.12045 0.82003 0.0
H2101 H 0.3554 0.10633 0.79809 0.0
H2102 H 0.3196 0.08041 0.78336 0.0
C2103 C 0.32522 0.05117 0.74722 0.0
C2104 C 0.34541 0.07392 0.77832 0.0
C2105 C 0.32531 0.04456 0.73326 0.0
C2106 C 0.34948 0.11204 0.81954 0.0
C2107 C 0.34819 0.10397 0.80692 0.0
C2108 C 0.32681 0.07858 0.78217 0.0
C2109 C 0.33573 0.06118 0.75275 0.0
C2110 C 0.33572 0.0686 0.76714 0.0
C2111 C 0.33773 0.09297 0.8057 0.0
C2112 C 0.33674 0.08422 0.79283 0.0
H2113 H 0.35478 0.06048 0.72387 0.0
H2114 H 0.35456 0.07207 0.74771 0.0
H2115 H 0.31878 0.06707 0.76092 0.0
H2116 H 0.32268 0.09579 0.83894 0.0
H2117 H 0.32031 0.08185 0.81646 0.0
C2118 C 0.95659 0.29386 0.73696 0.0
C2119 C 0.96162 0.2901 0.7244 0.0
C2120 C 0.95038 0.28646 0.75053 0.0
C2121 C 0.9443 0.25865 0.77281 0.0
H2122 H 0.91675 0.25976 0.78885 0.0
C2123 C 0.90885 0.22389 0.8185 0.0
C2124 C 0.90592 0.22864 0.83252 0.0
C2125 C 0.91591 0.23125 0.80535 0.0
C2126 C 0.92445 0.2594 0.78455 0.0
H2127 H 0.96425 0.27568 0.71638 0.0
H2128 H 0.95307 0.26258 0.7397 0.0
H2129 H 0.92867 0.27286 0.76603 0.0
H2130 H 0.90854 0.24502 0.84371 0.0
H2131 H 0.92041 0.25766 0.82051 0.0
H2132 H 0.93973 0.24486 0.79114 0.0
C2133 C 0.95415 0.27136 0.73936 0.0
C2134 C 0.93136 0.26697 0.77153 0.0
C2135 C 0.96054 0.27887 0.72592 0.0
C2136 C 0.91029 0.24094 0.83298 0.0
C2137 C 0.91717 0.24824 0.81973 0.0
C2138 C 0.93726 0.25094 0.78568 0.0
C2139 C 0.94885 0.275 0.75175 0.0
C2140 C 0.94145 0.26679 0.76556 0.0
C2141 C 0.92006 0.24348 0.8058 0.0
C2142 C 0.92733 0.25132 0.79175 0.0
H2143 H 0.95737 0.30252 0.73625 0.0
H2144 H 0.94673 0.28972 0.76003 0.0
H2145 H 0.95207 0.25834 0.76876 0.0
H2146 H 0.90556 0.21447 0.81756 0.0
H2147 H 0.91794 0.22735 0.79466 0.0
C2148 C 0.71515 0.66275 0.7329 0.0
C2149 C 0.7173 0.67297 0.72396 0.0
C2150 C 0.72224 0.66355 0.74671 0.0
C2151 C 0.74416 0.68497 0.77741 0.0
H2152 H 0.75338 0.66105 0.78201 0.0
C2153 C 0.78172 0.691 0.8221 0.0
C2154 C 0.77944 0.68136 0.83257 0.0
C2155 C 0.77401 0.68967 0.80889 0.0
C2156 C 0.7508 0.66774 0.78097 0.0
H2157 H 0.72851 0.69207 0.72273 0.0
H2158 H 0.74098 0.69343 0.74653 0.0
H2159 H 0.7399 0.65936 0.75932 0.0
H2160 H 0.76734 0.66266 0.83706 0.0
H2161 H 0.754 0.66031 0.81376 0.0
H2162 H 0.75525 0.69344 0.79889 0.0
C2163 C 0.73369 0.68481 0.7431 0.0
C2164 C 0.74304 0.66676 0.76801 0.0
C2165 C 0.72656 0.68402 0.72937 0.0
C2166 C 0.76946 0.67025 0.82913 0.0
C2167 C 0.76178 0.6689 0.81582 0.0
C2168 C 0.75199 0.68599 0.79027 0.0
C2169 C 0.7317 0.67457 0.75186 0.0
C2170 C 0.73965 0.67539 0.76601 0.0
C2171 C 0.76388 0.67865 0.80572 0.0
C2172 C 0.75544 0.67742 0.79215 0.0
H2173 H 0.70805 0.6541 0.72914 0.0
H2174 H 0.72031 0.6555 0.75333 0.0
H2175 H 0.74159 0.69166 0.77648 0.0
H2176 H 0.78944 0.69962 0.82414 0.0
H2177 H 0.77598 0.69729 0.80112 0.0
C2178 C 0.72324 0.6783 0.62625 0.0
C2179 C 0.71509 0.6681 0.63516 0.0
C2180 C 0.72957 0.67745 0.61252 0.0
C2181 C 0.72998 0.65589 0.58199 0.0
H2182 H 0.76318 0.67963 0.57742 0.0
C2183 C 0.7614 0.64935 0.53784 0.0
C2184 C 0.76877 0.65888 0.5272 0.0
C2185 C 0.75507 0.65082 0.55098 0.0
C2186 C 0.75389 0.67299 0.57845 0.0
H2187 H 0.70711 0.64899 0.63643 0.0
H2188 H 0.71827 0.64754 0.61279 0.0
H2189 H 0.7514 0.6815 0.59997 0.0
H2190 H 0.77543 0.67755 0.52236 0.0
H2191 H 0.76454 0.68016 0.54556 0.0
H2192 H 0.73257 0.64727 0.56067 0.0
C2193 C 0.71964 0.65619 0.61617 0.0
C2194 C 0.74711 0.67408 0.59133 0.0
C2195 C 0.71326 0.65703 0.62981 0.0
C2196 C 0.76996 0.67004 0.53042 0.0
C2197 C 0.76369 0.67154 0.54368 0.0
C2198 C 0.73678 0.65476 0.56922 0.0
C2199 C 0.72795 0.6664 0.60742 0.0
C2200 C 0.73508 0.6655 0.59332 0.0
C2201 C 0.75603 0.6619 0.55391 0.0
C2202 C 0.74882 0.66326 0.56736 0.0
H2203 H 0.72482 0.68697 0.62998 0.0
H2204 H 0.73573 0.68548 0.6059 0.0
H2205 H 0.72069 0.64924 0.5829 0.0
H2206 H 0.76046 0.64069 0.53597 0.0
H2207 H 0.74942 0.64328 0.55887 0.0
C2208 C 0.32989 0.04757 0.62683 0.0
C2209 C 0.34012 0.04985 0.63588 0.0
C2210 C 0.33064 0.0547 0.61311 0.0
C2211 C 0.3488 0.08466 0.59625 0.0
H2212 H 0.33099 0.07109 0.55494 0.0
C2213 C 0.35106 0.11358 0.53885 0.0
C2214 C 0.34042 0.1101 0.53007 0.0
C2215 C 0.35167 0.10627 0.55134 0.0
C2216 C 0.33592 0.07505 0.56646 0.0
H2217 H 0.35918 0.06132 0.63739 0.0
H2218 H 0.36044 0.07382 0.61348 0.0
H2219 H 0.33087 0.05809 0.57723 0.0
H2220 H 0.32211 0.09607 0.52754 0.0
H2221 H 0.32306 0.08365 0.54964 0.0
H2222 H 0.35361 0.10161 0.58572 0.0
C2223 C 0.35186 0.06651 0.61707 0.0
C2224 C 0.33587 0.06758 0.5792 0.0
C2225 C 0.35113 0.0593 0.63068 0.0
C2226 C 0.33041 0.09917 0.53419 0.0
C2227 C 0.33101 0.09192 0.54671 0.0
C2228 C 0.34877 0.09214 0.58355 0.0
C2229 C 0.3416 0.06434 0.60822 0.0
C2230 C 0.34222 0.0723 0.59429 0.0
C2231 C 0.34166 0.09532 0.55537 0.0
C2232 C 0.34222 0.08743 0.56857 0.0
H2233 H 0.32127 0.04036 0.63047 0.0
H2234 H 0.32257 0.05286 0.60663 0.0
H2235 H 0.35368 0.08855 0.60783 0.0
H2236 H 0.35892 0.12197 0.53611 0.0
H2237 H 0.36005 0.10914 0.55765 0.0
C2238 C 0.96055 0.29178 0.62386 0.0
C2239 C 0.95652 0.29639 0.63666 0.0
C2240 C 0.95332 0.28579 0.61003 0.0
C2241 C 0.9254 0.27952 0.58782 0.0
H2242 H 0.92735 0.25274 0.57034 0.0
C2243 C 0.89093 0.24409 0.54195 0.0
C2244 C 0.89572 0.24174 0.52744 0.0
C2245 C 0.89831 0.25109 0.55512 0.0
C2246 C 0.92676 0.26023 0.57505 0.0
H2247 H 0.9418 0.29848 0.6449 0.0
H2248 H 0.929 0.28763 0.62117 0.0
H2249 H 0.94029 0.26443 0.59345 0.0
H2250 H 0.91218 0.24527 0.51542 0.0
H2251 H 0.92489 0.257 0.53869 0.0
H2252 H 0.91151 0.27492 0.56965 0.0
C2253 C 0.93786 0.2889 0.62148 0.0
C2254 C 0.93424 0.26702 0.58823 0.0
C2255 C 0.94519 0.2951 0.63516 0.0
C2256 C 0.90809 0.24658 0.52652 0.0
C2257 C 0.91541 0.25339 0.5398 0.0
C2258 C 0.91778 0.27259 0.57481 0.0
C2259 C 0.94177 0.28403 0.60882 0.0
C2260 C 0.93374 0.27682 0.59474 0.0
C2261 C 0.9106 0.25574 0.5542 0.0
C2262 C 0.91845 0.26293 0.56825 0.0
H2263 H 0.96929 0.29275 0.62457 0.0
H2264 H 0.95679 0.28247 0.60035 0.0
H2265 H 0.92485 0.28708 0.59227 0.0
H2266 H 0.88146 0.2404 0.54328 0.0
H2267 H 0.89438 0.25269 0.56618 0.0
C2268 C 0.33155 0.2868 0.62395 0.0
C2269 C 0.34158 0.29466 0.63342 0.0
C2270 C 0.33261 0.28063 0.61019 0.0
C2271 C 0.35459 0.27993 0.58075 0.0
H2272 H 0.3304 0.24695 0.57549 0.0
C2273 C 0.36075 0.24791 0.53705 0.0
C2274 C 0.35122 0.24063 0.52633 0.0
C2275 C 0.35938 0.25447 0.54996 0.0
C2276 C 0.33717 0.25618 0.57671 0.0
H2277 H 0.36062 0.3024 0.63558 0.0
H2278 H 0.36244 0.2915 0.61184 0.0
H2279 H 0.32843 0.2588 0.5978 0.0
H2280 H 0.3327 0.23451 0.52103 0.0
H2281 H 0.33027 0.24577 0.5438 0.0
H2282 H 0.36343 0.27719 0.55983 0.0
C2283 C 0.35377 0.29022 0.61483 0.0
C2284 C 0.33603 0.263 0.58945 0.0
C2285 C 0.35272 0.29645 0.62852 0.0
C2286 C 0.34019 0.23986 0.52917 0.0
C2287 C 0.3388 0.24636 0.54219 0.0
C2288 C 0.35577 0.27308 0.56809 0.0
C2289 C 0.34371 0.28211 0.60562 0.0
C2290 C 0.34474 0.27496 0.59168 0.0
C2291 C 0.34842 0.25385 0.55258 0.0
C2292 C 0.3471 0.26112 0.56597 0.0
H2293 H 0.32284 0.28526 0.6273 0.0
H2294 H 0.3247 0.27464 0.60318 0.0
H2295 H 0.36137 0.28915 0.58187 0.0
H2296 H 0.36931 0.24857 0.53546 0.0
H2297 H 0.36691 0.26001 0.55796 0.0
C2298 C 0.71294 0.05639 0.62522 0.0
C2299 C 0.71606 0.04934 0.63501 0.0
C2300 C 0.72026 0.06335 0.61196 0.0
C2301 C 0.75133 0.07811 0.59834 0.0
H2302 H 0.7392 0.07977 0.55418 0.0
C2303 C 0.78233 0.10118 0.5416 0.0
C2304 C 0.77923 0.10734 0.52996 0.0
C2305 C 0.77452 0.0944 0.5545 0.0
C2306 C 0.74273 0.07956 0.56652 0.0
H2307 H 0.72916 0.04384 0.63816 0.0
H2308 H 0.74186 0.05598 0.61516 0.0
H2309 H 0.72551 0.06718 0.57618 0.0
H2310 H 0.76542 0.11121 0.52293 0.0
H2311 H 0.75202 0.09978 0.54579 0.0
H2312 H 0.7685 0.09057 0.5889 0.0
C2313 C 0.73383 0.0562 0.61783 0.0
C2314 C 0.73487 0.07231 0.57909 0.0
C2315 C 0.72649 0.04918 0.63095 0.0
C2316 C 0.76819 0.10672 0.53177 0.0
C2317 C 0.76041 0.1 0.54475 0.0
C2318 C 0.75917 0.08543 0.58584 0.0
C2319 C 0.73089 0.06349 0.60835 0.0
C2320 C 0.73911 0.07142 0.59508 0.0
C2321 C 0.76342 0.09366 0.5562 0.0
C2322 C 0.75499 0.08618 0.56971 0.0
H2323 H 0.70497 0.05671 0.628 0.0
H2324 H 0.7178 0.06891 0.60489 0.0
H2325 H 0.75484 0.07777 0.61065 0.0
H2326 H 0.7908 0.10155 0.54074 0.0
H2327 H 0.77711 0.08954 0.56295 0.0
C2328 C 0.94698 0.65647 0.63116 0.0
C2329 C 0.95652 0.66763 0.6356 0.0
C2330 C 0.93951 0.65532 0.61768 0.0
C2331 C 0.93754 0.66998 0.57888 0.0
H2332 H 0.90366 0.65138 0.5865 0.0
C2333 C 0.90403 0.66984 0.53094 0.0
C2334 C 0.89362 0.65901 0.52785 0.0
C2335 C 0.91163 0.67094 0.5442 0.0
C2336 C 0.91308 0.65648 0.58405 0.0
H2337 H 0.96591 0.68628 0.62897 0.0
H2338 H 0.95292 0.68423 0.60536 0.0
H2339 H 0.91729 0.65294 0.60883 0.0
H2340 H 0.88293 0.64092 0.53669 0.0
H2341 H 0.89634 0.64272 0.55944 0.0
H2342 H 0.93338 0.67341 0.55405 0.0
C2343 C 0.95122 0.67638 0.61234 0.0
C2344 C 0.92089 0.65738 0.59687 0.0
C2345 C 0.95863 0.67755 0.62591 0.0
C2346 C 0.89093 0.64936 0.53855 0.0
C2347 C 0.89857 0.65043 0.55175 0.0
C2348 C 0.92973 0.66901 0.566 0.0
C2349 C 0.94148 0.66528 0.60823 0.0
C2350 C 0.93321 0.66415 0.59444 0.0
C2351 C 0.90907 0.66122 0.55468 0.0
C2352 C 0.91739 0.66227 0.56843 0.0
H2353 H 0.94509 0.64863 0.63834 0.0
H2354 H 0.93216 0.64662 0.61467 0.0
H2355 H 0.94698 0.67516 0.57657 0.0
H2356 H 0.90649 0.67744 0.52286 0.0
H2357 H 0.91954 0.67944 0.54622 0.0
C2358 C 0.96133 0.68596 0.72824 0.0
C2359 C 0.96014 0.67496 0.72387 0.0
C2360 C 0.95487 0.68688 0.74172 0.0
C2361 C 0.9386 0.672 0.78065 0.0
H2362 H 0.9221 0.6894 0.77281 0.0
C2363 C 0.90455 0.67079 0.82856 0.0
C2364 C 0.90442 0.68137 0.83148 0.0
C2365 C 0.91124 0.66997 0.81533 0.0
C2366 C 0.92676 0.68464 0.77533 0.0
H2367 H 0.95147 0.65635 0.73065 0.0
H2368 H 0.94028 0.65798 0.75426 0.0
H2369 H 0.93448 0.68834 0.75052 0.0
H2370 H 0.91106 0.6993 0.82238 0.0
H2371 H 0.92302 0.69801 0.79972 0.0
H2372 H 0.93104 0.66841 0.80551 0.0
C2373 C 0.94622 0.6659 0.74722 0.0
C2374 C 0.93386 0.68403 0.76253 0.0
C2375 C 0.9526 0.66496 0.73364 0.0
C2376 C 0.91105 0.69105 0.82066 0.0
C2377 C 0.91781 0.69026 0.8075 0.0
C2378 C 0.93158 0.67269 0.79351 0.0
C2379 C 0.94715 0.67683 0.75125 0.0
C2380 C 0.93983 0.67768 0.76503 0.0
C2381 C 0.91807 0.67973 0.80473 0.0
C2382 C 0.92554 0.67899 0.79101 0.0
H2383 H 0.96706 0.69385 0.72099 0.0
H2384 H 0.95588 0.69545 0.74466 0.0
H2385 H 0.9432 0.66715 0.78301 0.0
H2386 H 0.89969 0.66318 0.83673 0.0
H2387 H 0.91107 0.66166 0.81343 0.0
C2388 C 0.32371 0.28158 0.72912 0.0
C2389 C 0.33472 0.28935 0.72166 0.0
C2390 C 0.32296 0.27424 0.74259 0.0
C2391 C 0.33861 0.26012 0.7613 0.0
H2392 H 0.31942 0.25611 0.80098 0.0
C2393 C 0.33964 0.23456 0.82056 0.0
C2394 C 0.32896 0.22763 0.82936 0.0
C2395 C 0.34027 0.242 0.80734 0.0
C2396 C 0.32469 0.25699 0.78989 0.0
H2397 H 0.3536 0.29562 0.72275 0.0
H2398 H 0.35223 0.28281 0.74614 0.0
H2399 H 0.32055 0.26934 0.77829 0.0
H2400 H 0.31056 0.22316 0.83105 0.0
H2401 H 0.31154 0.23574 0.80765 0.0
H2402 H 0.34264 0.24766 0.77268 0.0
C2403 C 0.34419 0.28234 0.7415 0.0
C2404 C 0.32535 0.26461 0.77692 0.0
C2405 C 0.34496 0.28974 0.72816 0.0
C2406 C 0.31889 0.22822 0.82443 0.0
C2407 C 0.31951 0.2356 0.81115 0.0
C2408 C 0.33788 0.25244 0.7742 0.0
C2409 C 0.33317 0.27444 0.74876 0.0
C2410 C 0.33236 0.26629 0.76251 0.0
C2411 C 0.33022 0.24267 0.80252 0.0
C2412 C 0.33093 0.25078 0.78869 0.0
H2413 H 0.31566 0.28106 0.72444 0.0
H2414 H 0.31433 0.26819 0.74788 0.0
H2415 H 0.34395 0.26111 0.75023 0.0
H2416 H 0.34754 0.23425 0.82388 0.0
H2417 H 0.3487 0.2474 0.8011 0.0
C2418 C 0.71781 0.06161 0.72538 0.0
C2419 C 0.71604 0.05017 0.72275 0.0
C2420 C 0.72495 0.06865 0.73864 0.0
C2421 C 0.7368 0.06795 0.78016 0.0
H2422 H 0.76153 0.09987 0.76923 0.0
C2423 C 0.7705 0.09814 0.8306 0.0
C2424 C 0.77427 0.11032 0.83019 0.0
C2425 C 0.76382 0.09068 0.81732 0.0
C2426 C 0.75457 0.09106 0.77261 0.0
H2427 H 0.72012 0.03702 0.73236 0.0
H2428 H 0.73243 0.0493 0.75585 0.0
H2429 H 0.74864 0.08699 0.74687 0.0
H2430 H 0.77412 0.12415 0.81507 0.0
H2431 H 0.76199 0.1111 0.79247 0.0
H2432 H 0.74236 0.07206 0.80596 0.0
C2433 C 0.72833 0.0528 0.74748 0.0
C2434 C 0.74723 0.08367 0.75974 0.0
C2435 C 0.72131 0.0458 0.73402 0.0
C2436 C 0.77125 0.11482 0.81602 0.0
C2437 C 0.76442 0.10732 0.80287 0.0
C2438 C 0.74402 0.07541 0.79309 0.0
C2439 C 0.73035 0.06436 0.74973 0.0
C2440 C 0.73826 0.07206 0.7634 0.0
C2441 C 0.76056 0.09513 0.80335 0.0
C2442 C 0.753 0.08709 0.78951 0.0
H2443 H 0.71391 0.06527 0.71693 0.0
H2444 H 0.72627 0.07749 0.74021 0.0
H2445 H 0.72987 0.05907 0.78332 0.0
H2446 H 0.77245 0.09425 0.84136 0.0
H2447 H 0.76122 0.0814 0.81806 0.0
C2448 C 0.04863 0.36701 0.03046 0.0
C2449 C 0.03694 0.35852 0.02612 0.0
C2450 C 0.05645 0.36354 0.03668 0.0
C2451 C 0.0629 0.33929 0.03928 0.0
H2452 H 0.07896 0.35486 0.08091 0.0
C2453 C 0.09109 0.3246 0.07868 0.0
C2454 C 0.10097 0.33337 0.08756 0.0
C2455 C 0.08344 0.32741 0.06999 0.0
C2456 C 0.07475 0.35055 0.06913 0.0
H2457 H 0.02446 0.33969 0.02427 0.0
H2458 H 0.03829 0.3336 0.03501 0.0
H2459 H 0.0654 0.36013 0.06767 0.0
H2460 H 0.11063 0.35213 0.09368 0.0
H2461 H 0.0978 0.35709 0.07786 0.0
H2462 H 0.07244 0.32986 0.04056 0.0
C2463 C 0.04131 0.34295 0.03362 0.0
C2464 C 0.06691 0.35354 0.0616 0.0
C2465 C 0.0334 0.34644 0.02753 0.0
C2466 C 0.10324 0.34511 0.08688 0.0
C2467 C 0.09571 0.34794 0.07803 0.0
C2468 C 0.07089 0.33638 0.04672 0.0
C2469 C 0.05283 0.35149 0.03859 0.0
C2470 C 0.06095 0.348 0.04656 0.0
C2471 C 0.08554 0.33909 0.06981 0.0
C2472 C 0.07697 0.34204 0.06172 0.0
H2473 H 0.05169 0.37639 0.02948 0.0
H2474 H 0.06533 0.37031 0.0402 0.0
H2475 H 0.05845 0.33492 0.02764 0.0
H2476 H 0.08913 0.31549 0.07864 0.0
H2477 H 0.0757 0.32033 0.06388 0.0
C2478 C 0.63886 0.68507 0.02516 0.0
C2479 C 0.64676 0.68071 0.02409 0.0
C2480 C 0.64276 0.69665 0.03059 0.0
C2481 C 0.66586 0.71993 0.05687 0.0
H2482 H 0.65431 0.73968 0.03779 0.0
C2483 C 0.68147 0.76665 0.08292 0.0
C2484 C 0.67288 0.77008 0.085 0.0
C2485 C 0.67892 0.75648 0.07376 0.0
C2486 C 0.65753 0.73423 0.04336 0.0
H2487 H 0.66508 0.68526 0.02732 0.0
H2488 H 0.67191 0.70552 0.0368 0.0
H2489 H 0.64887 0.72068 0.02458 0.0
H2490 H 0.65493 0.76558 0.07851 0.0
H2491 H 0.65036 0.74762 0.06295 0.0
H2492 H 0.67426 0.73325 0.07589 0.0
C2493 C 0.66265 0.69991 0.03357 0.0
C2494 C 0.65444 0.72336 0.03576 0.0
C2495 C 0.65876 0.68833 0.02804 0.0
C2496 C 0.66173 0.76316 0.07734 0.0
C2497 C 0.65916 0.75292 0.06823 0.0
C2498 C 0.66889 0.73075 0.06451 0.0
C2499 C 0.65466 0.70414 0.03516 0.0
C2500 C 0.65851 0.71605 0.04249 0.0
C2501 C 0.66767 0.74936 0.06654 0.0
C2502 C 0.66473 0.73803 0.05793 0.0
H2503 H 0.62956 0.67944 0.0222 0.0
H2504 H 0.63635 0.69958 0.03181 0.0
H2505 H 0.66897 0.71442 0.06258 0.0
H2506 H 0.69009 0.77161 0.08882 0.0
H2507 H 0.68577 0.75414 0.07251 0.0
C2508 C 0.31884 0.97299 0.02804 0.0
C2509 C 0.32566 0.96949 0.01851 0.0
C2510 C 0.30753 0.96457 0.03372 0.0
C2511 C 0.28997 0.93229 0.04248 0.0
H2512 H 0.26469 0.93906 0.05125 0.0
C2513 C 0.24534 0.89701 0.07036 0.0
C2514 C 0.24165 0.90064 0.08479 0.0
C2515 C 0.25441 0.90532 0.06003 0.0
C2516 C 0.27169 0.93706 0.04885 0.0
H2517 H 0.3257 0.9546 0.00634 0.0
H2518 H 0.30584 0.94003 0.01551 0.0
H2519 H 0.28264 0.95376 0.0367 0.0
H2520 H 0.24441 0.91601 0.09924 0.0
H2521 H 0.26003 0.93046 0.08099 0.0
H2522 H 0.27903 0.91562 0.05461 0.0
C2523 C 0.30933 0.94917 0.01927 0.0
C2524 C 0.282 0.9455 0.04058 0.0
C2525 C 0.32069 0.95754 0.01387 0.0
C2526 C 0.24688 0.91285 0.08813 0.0
C2527 C 0.25586 0.92117 0.07769 0.0
C2528 C 0.27964 0.92384 0.05053 0.0
C2529 C 0.30274 0.95248 0.02976 0.0
C2530 C 0.29135 0.94328 0.03746 0.0
C2531 C 0.25992 0.91747 0.06376 0.0
C2532 C 0.27044 0.92617 0.05398 0.0
H2533 H 0.32247 0.98214 0.03186 0.0
H2534 H 0.3028 0.96748 0.04187 0.0
H2535 H 0.29704 0.93032 0.04073 0.0
H2536 H 0.24137 0.88771 0.06719 0.0
H2537 H 0.25724 0.90223 0.04923 0.0
C2538 C 0.36689 0.04852 0.00944 0.0
C2539 C 0.3598 0.03666 0.00448 0.0
C2540 C 0.36391 0.05703 0.00468 0.0
C2541 C 0.34008 0.0611 0.98471 0.0
H2542 H 0.36686 0.09132 0.97155 0.0
C2543 C 0.33758 0.09444 0.93866 0.0
C2544 C 0.34441 0.10659 0.94249 0.0
C2545 C 0.33824 0.08598 0.94878 0.0
C2546 C 0.35929 0.08299 0.9754 0.0
H2547 H 0.34381 0.02429 0.99115 0.0
H2548 H 0.33884 0.03918 0.9822 0.0
H2549 H 0.3703 0.07639 0.98438 0.0
H2550 H 0.35674 0.11923 0.96069 0.0
H2551 H 0.35813 0.10447 0.97805 0.0
H2552 H 0.32912 0.06766 0.97479 0.0
C2553 C 0.34654 0.04193 0.99015 0.0
C2554 C 0.36124 0.07441 0.98285 0.0
C2555 C 0.34941 0.03337 0.99521 0.0
C2556 C 0.35155 0.11 0.95712 0.0
C2557 C 0.35231 0.10155 0.96712 0.0
C2558 C 0.33813 0.06966 0.97702 0.0
C2559 C 0.35391 0.05394 0.9945 0.0
C2560 C 0.35168 0.06329 0.98753 0.0
C2561 C 0.34584 0.08948 0.96286 0.0
C2562 C 0.34773 0.08067 0.97219 0.0
H2563 H 0.37488 0.05129 0.01678 0.0
H2564 H 0.36962 0.06609 0.00873 0.0
H2565 H 0.33248 0.05274 0.98837 0.0
H2566 H 0.33212 0.09145 0.92738 0.0
H2567 H 0.33325 0.07675 0.94508 0.0
C2568 C 0.97353 0.31767 -0.00074 0.0
C2569 C 0.96951 0.32505 0.00579 0.0
C2570 C 0.96545 0.30619 0.99373 0.0
C2571 C 0.93421 0.28832 0.97928 0.0
H2572 H 0.94095 0.26256 0.98074 0.0
C2573 C 0.90135 0.24153 0.95372 0.0
C2574 C 0.90633 0.23682 0.94246 0.0
C2575 C 0.90862 0.25156 0.96348 0.0
C2576 C 0.93896 0.26968 0.98024 0.0
H2577 H 0.95389 0.32598 0.01259 0.0
H2578 H 0.93982 0.3059 0.00362 0.0
H2579 H 0.95441 0.28132 0.99458 0.0
H2580 H 0.92297 0.2391 0.93284 0.0
H2581 H 0.93552 0.2563 0.95016 0.0
H2582 H 0.91874 0.27664 0.96498 0.0
C2583 C 0.94919 0.30904 0.00216 0.0
C2584 C 0.9467 0.28046 0.9881 0.0
C2585 C 0.95726 0.32055 0.00744 0.0
C2586 C 0.91876 0.24225 0.94159 0.0
C2587 C 0.92599 0.25217 0.95149 0.0
C2588 C 0.92641 0.27751 0.97161 0.0
C2589 C 0.95315 0.3018 0.99482 0.0
C2590 C 0.94452 0.29 0.98753 0.0
C2591 C 0.92102 0.25703 0.96237 0.0
C2592 C 0.92879 0.26813 0.97179 0.0
H2593 H 0.98292 0.32091 0.99774 0.0
H2594 H 0.96887 0.30097 0.988 0.0
H2595 H 0.93231 0.29549 0.97823 0.0
H2596 H 0.89184 0.2375 0.95496 0.0
H2597 H 0.90453 0.25505 0.97189 0.0
C2598 C 0.68437 0.63941 0.00347 0.0
C2599 C 0.68029 0.64755 0.00371 0.0
C2600 C 0.6958 0.64281 0.99787 0.0
C2601 C 0.72523 0.6689 0.98813 0.0
H2602 H 0.72811 0.64662 0.95874 0.0
C2603 C 0.76596 0.68188 0.94525 0.0
C2604 C 0.76984 0.67365 0.94307 0.0
C2605 C 0.75565 0.67888 0.95441 0.0
C2606 C 0.72752 0.65288 0.96714 0.0
H2607 H 0.68516 0.66578 0.99871 0.0
H2608 H 0.7051 0.67171 0.98866 0.0
H2609 H 0.70905 0.64118 0.9714 0.0
H2610 H 0.76613 0.65594 0.94949 0.0
H2611 H 0.74811 0.65069 0.96544 0.0
H2612 H 0.74371 0.68069 0.98353 0.0
C2613 C 0.6995 0.66271 0.99302 0.0
C2614 C 0.71657 0.64976 0.97442 0.0
C2615 C 0.68805 0.6593 0.99871 0.0
C2616 C 0.76331 0.66244 0.95069 0.0
C2617 C 0.75298 0.65943 0.95983 0.0
C2618 C 0.7362 0.67204 0.9808 0.0
C2619 C 0.70344 0.65444 0.99225 0.0
C2620 C 0.71526 0.65774 0.98497 0.0
C2621 C 0.74893 0.66756 0.9616 0.0
C2622 C 0.73746 0.66408 0.97015 0.0
H2623 H 0.67866 0.63031 0.00737 0.0
H2624 H 0.69861 0.63628 0.9978 0.0
H2625 H 0.72459 0.6752 0.99637 0.0
H2626 H 0.77062 0.69051 0.93931 0.0
H2627 H 0.75272 0.6853 0.95531 0.0
C2628 C 0.97401 0.65936 -0.0002 0.0
C2629 C 0.96955 0.64755 0.00485 0.0
C2630 C 0.96635 0.66316 0.99376 0.0
C2631 C 0.93474 0.65521 0.9919 0.0
H2632 H 0.94429 0.67361 0.95042 0.0
C2633 C 0.90196 0.6617 0.9497 0.0
C2634 C 0.9062 0.67268 0.94152 0.0
C2635 C 0.90967 0.65923 0.95887 0.0
C2636 C 0.94153 0.66864 0.96215 0.0
H2637 H 0.95352 0.63057 0.00812 0.0
H2638 H 0.94022 0.63717 0.99761 0.0
H2639 H 0.95786 0.66857 0.96424 0.0
H2640 H 0.92195 0.68968 0.93676 0.0
H2641 H 0.9352 0.68552 0.95314 0.0
H2642 H 0.91835 0.65521 0.9897 0.0
C2643 C 0.94961 0.64354 0.99837 0.0
C2644 C 0.94933 0.66575 0.97009 0.0
C2645 C 0.95725 0.63974 0.00432 0.0
C2646 C 0.91829 0.68119 0.94307 0.0
C2647 C 0.92596 0.67874 0.95227 0.0
C2648 C 0.92693 0.65815 0.98398 0.0
C2649 C 0.95407 0.65524 0.99274 0.0
C2650 C 0.94601 0.65893 0.98498 0.0
C2651 C 0.92181 0.66767 0.9601 0.0
C2652 C 0.9302 0.66483 0.96893 0.0
H2653 H 0.98344 0.66561 8e-05 0.0
H2654 H 0.97006 0.67227 0.98972 0.0
H2655 H 0.93195 0.65005 0.00346 0.0
H2656 H 0.8927 0.65497 0.94892 0.0
H2657 H 0.90617 0.65057 0.96462 0.0
C2658 C 0.34857 0.31708 0.0022 0.0
C2659 C 0.36065 0.32567 0.00345 0.0
C2660 C 0.34509 0.30575 0.9959 0.0
C2661 C 0.35544 0.29106 0.96697 0.0
H2662 H 0.33224 0.26166 0.9881 0.0
C2663 C 0.34665 0.24652 0.9401 0.0
C2664 C 0.33492 0.23702 0.93984 0.0
C2665 C 0.34963 0.25683 0.94921 0.0
C2666 C 0.33862 0.26978 0.9819 0.0
H2667 H 0.37853 0.32894 -0.00045 0.0
H2668 H 0.37245 0.30931 0.98842 0.0
H2669 H 0.33739 0.28057 0.0015 0.0
H2670 H 0.31724 0.23083 0.94977 0.0
H2671 H 0.32233 0.24901 0.96496 0.0
H2672 H 0.3565 0.28051 0.94713 0.0
C2673 C 0.36568 0.31134 0.99226 0.0
C2674 C 0.34158 0.2806 0.98963 0.0
C2675 C 0.36915 0.32257 0.99872 0.0
C2676 C 0.32633 0.23802 0.94938 0.0
C2677 C 0.32929 0.24842 0.95832 0.0
C2678 C 0.35238 0.28031 0.95915 0.0
C2679 C 0.35363 0.30287 0.99053 0.0
C2680 C 0.35012 0.29134 0.9823 0.0
C2681 C 0.34095 0.25805 0.95813 0.0
C2682 C 0.34403 0.26949 0.96657 0.0
H2683 H 0.34181 0.31919 0.00577 0.0
H2684 H 0.33574 0.29938 0.99464 0.0
H2685 H 0.36189 0.29921 0.96088 0.0
H2686 H 0.35352 0.24623 0.93279 0.0
H2687 H 0.35877 0.26392 0.94905 0.0
C2688 C 0.68575 0.04698 0.00649 0.0
C2689 C 0.68069 0.03468 0.00445 0.0
C2690 C 0.69717 0.05473 0.00054 0.0
C2691 C 0.72367 0.06897 0.99222 0.0
H2692 H 0.7282 0.06395 0.94499 0.0
C2693 C 0.76613 0.10034 0.95334 0.0
C2694 C 0.76364 0.10414 0.938 0.0
C2695 C 0.757 0.09117 0.96268 0.0
C2696 C 0.7271 0.06542 0.95822 0.0
H2697 H 0.6838 0.02083 0.99511 0.0
H2698 H 0.70373 0.03442 0.98442 0.0
H2699 H 0.71064 0.04911 0.96004 0.0
H2700 H 0.74976 0.10111 0.92015 0.0
H2701 H 0.7339 0.08507 0.93628 0.0
H2702 H 0.74003 0.08544 0.99021 0.0
C2703 C 0.69884 0.03804 0.9907 0.0
C2704 C 0.7171 0.05688 0.96688 0.0
C2705 C 0.68747 0.03026 0.99689 0.0
C2706 C 0.75192 0.09846 0.93203 0.0
C2707 C 0.74286 0.0892 0.94118 0.0
C2708 C 0.73378 0.07744 0.98362 0.0
C2709 C 0.70373 0.05036 0.9922 0.0
C2710 C 0.71513 0.05869 0.98385 0.0
C2711 C 0.74528 0.08548 0.95662 0.0
C2712 C 0.73543 0.07588 0.96641 0.0
H2713 H 0.68077 0.05066 0.01231 0.0
H2714 H 0.70065 0.06418 0.00176 0.0
H2715 H 0.72241 0.07056 0.00533 0.0
H2716 H 0.7751 0.10458 0.95821 0.0
H2717 H 0.75909 0.08845 0.97454 0.0
C2718 C 0.66175 0.97488 0.0262 0.0
C2719 C 0.6497 0.97015 0.02223 0.0
C2720 C 0.66601 0.96747 0.03161 0.0
C2721 C 0.65865 0.93601 0.03365 0.0
H2722 H 0.67875 0.94642 0.0735 0.0
C2723 C 0.6663 0.90412 0.07595 0.0
C2724 C 0.67749 0.90842 0.0835 0.0
C2725 C 0.66372 0.91167 0.06657 0.0
C2726 C 0.67331 0.94343 0.06219 0.0
H2727 H 0.63279 0.95389 0.02021 0.0
H2728 H 0.6402 0.94103 0.02968 0.0
H2729 H 0.67302 0.95965 0.06023 0.0
H2730 H 0.69481 0.92406 0.08675 0.0
H2731 H 0.69042 0.93705 0.07003 0.0
H2732 H 0.65882 0.91971 0.03579 0.0
C2733 C 0.64638 0.95043 0.02852 0.0
C2734 C 0.67002 0.95104 0.05457 0.0
C2735 C 0.64212 0.95783 0.02318 0.0
C2736 C 0.68614 0.92036 0.08097 0.0
C2737 C 0.68357 0.92789 0.07157 0.0
C2738 C 0.66197 0.9284 0.04126 0.0
C2739 C 0.65833 0.95517 0.0331 0.0
C2740 C 0.66255 0.94738 0.04032 0.0
C2741 C 0.67227 0.9237 0.0645 0.0
C2742 C 0.66924 0.93197 0.05574 0.0
H2743 H 0.66783 0.98433 0.02556 0.0
H2744 H 0.6753 0.97139 0.03483 0.0
H2745 H 0.65301 0.93297 0.02256 0.0
H2746 H 0.65947 0.89495 0.07748 0.0
H2747 H 0.65489 0.90815 0.06142 0.0
C2748 C 0.04885 0.68168 0.02952 0.0
C2749 C 0.03736 0.679 0.02485 0.0
C2750 C 0.05705 0.69294 0.03549 0.0
C2751 C 0.06497 0.72414 0.03662 0.0
H2752 H 0.08001 0.72459 0.07924 0.0
C2753 C 0.09293 0.76722 0.07543 0.0
C2754 C 0.10238 0.76821 0.08532 0.0
C2755 C 0.08543 0.75673 0.06673 0.0
C2756 C 0.07611 0.72469 0.06717 0.0
H2757 H 0.02564 0.68622 0.02212 0.0
H2758 H 0.04013 0.70604 0.03234 0.0
H2759 H 0.06625 0.70576 0.06619 0.0
H2760 H 0.11149 0.75888 0.09318 0.0
H2761 H 0.09895 0.741 0.07732 0.0
H2762 H 0.075 0.74309 0.0374 0.0
C2763 C 0.0427 0.69935 0.03143 0.0
C2764 C 0.06814 0.71386 0.05975 0.0
C2765 C 0.03441 0.688 0.02564 0.0
C2766 C 0.10442 0.75859 0.08561 0.0
C2767 C 0.09704 0.74818 0.07672 0.0
C2768 C 0.07309 0.73502 0.04394 0.0
C2769 C 0.05402 0.70184 0.03675 0.0
C2770 C 0.06249 0.71345 0.04441 0.0
C2771 C 0.08726 0.74698 0.06749 0.0
C2772 C 0.07877 0.73545 0.05934 0.0
H2773 H 0.05143 0.67498 0.02905 0.0
H2774 H 0.06575 0.69465 0.03931 0.0
H2775 H 0.06078 0.72408 0.02473 0.0
H2776 H 0.09117 0.77449 0.0746 0.0
H2777 H 0.07798 0.75617 0.05986 0.0
C2778 C 0.32419 0.37043 0.02652 0.0
C2779 C 0.32706 0.36152 0.02362 0.0
C2780 C 0.31271 0.36754 0.03103 0.0
C2781 C 0.28553 0.34359 0.05058 0.0
H2782 H 0.27307 0.364 0.03788 0.0
C2783 C 0.24115 0.33742 0.07688 0.0
C2784 C 0.24227 0.34776 0.08431 0.0
C2785 C 0.25021 0.33793 0.06671 0.0
C2786 C 0.27642 0.3582 0.04148 0.0
H2787 H 0.31997 0.34254 0.02267 0.0
H2788 H 0.29977 0.33745 0.03032 0.0
H2789 H 0.29118 0.36676 0.02463 0.0
H2790 H 0.25392 0.3668 0.08651 0.0
H2791 H 0.26937 0.36767 0.06839 0.0
H2792 H 0.27076 0.33512 0.06758 0.0
C2793 C 0.30649 0.34671 0.02935 0.0
C2794 C 0.28683 0.3598 0.03396 0.0
C2795 C 0.31805 0.34961 0.02487 0.0
C2796 C 0.25252 0.35866 0.08076 0.0
C2797 C 0.26145 0.35918 0.07041 0.0
C2798 C 0.27503 0.34191 0.05798 0.0
C2799 C 0.30371 0.35565 0.03268 0.0
C2800 C 0.29173 0.35277 0.0388 0.0
C2801 C 0.26049 0.34881 0.0635 0.0
C2802 C 0.27057 0.34942 0.05386 0.0
H2803 H 0.33091 0.3797 0.02572 0.0
H2804 H 0.31101 0.37469 0.03379 0.0
H2805 H 0.28908 0.33807 0.05475 0.0
H2806 H 0.23333 0.32889 0.07904 0.0
H2807 H 0.2492 0.3298 0.06142 0.0
C2808 C 0.69922 0.68049 0.36154 0.0
C2809 C 0.70332 0.69221 0.3563 0.0
C2810 C 0.70721 0.67696 0.36706 0.0
C2811 C 0.73741 0.68971 0.38485 0.0
H2812 H 0.73298 0.65846 0.37648 0.0
C2813 C 0.77116 0.67667 0.4086 0.0
C2814 C 0.76641 0.66556 0.41653 0.0
C2815 C 0.76387 0.67969 0.3994 0.0
C2816 C 0.7343 0.6672 0.379 0.0
H2817 H 0.71906 0.70926 0.35196 0.0
H2818 H 0.73293 0.70307 0.36122 0.0
H2819 H 0.71941 0.66406 0.3637 0.0
H2820 H 0.75022 0.64886 0.42079 0.0
H2821 H 0.73757 0.6541 0.40471 0.0
H2822 H 0.75218 0.69283 0.40027 0.0
C2823 C 0.72355 0.69666 0.36149 0.0
C2824 C 0.72651 0.67041 0.37169 0.0
C2825 C 0.71559 0.70019 0.35607 0.0
C2826 C 0.75424 0.65742 0.41461 0.0
C2827 C 0.74697 0.66043 0.40539 0.0
C2828 C 0.74519 0.68652 0.3921 0.0
C2829 C 0.71947 0.68508 0.3674 0.0
C2830 C 0.72793 0.68169 0.3746 0.0
C2831 C 0.75165 0.67167 0.3979 0.0
C2832 C 0.7437 0.67521 0.38936 0.0
H2833 H 0.68982 0.67414 0.3619 0.0
H2834 H 0.70373 0.668 0.37164 0.0
H2835 H 0.73865 0.69839 0.38766 0.0
H2836 H 0.78051 0.68309 0.40961 0.0
H2837 H 0.7678 0.68835 0.39355 0.0
C2838 C 0.32584 0.02293 0.36178 0.0
C2839 C 0.31406 0.01576 0.35639 0.0
C2840 C 0.32987 0.03456 0.36727 0.0
C2841 C 0.32299 0.05893 0.36658 0.0
H2842 H 0.33845 0.06707 0.41045 0.0
C2843 C 0.32421 0.09563 0.40876 0.0
C2844 C 0.33392 0.1021 0.41961 0.0
C2845 C 0.32343 0.08635 0.39892 0.0
C2846 C 0.33437 0.06509 0.39803 0.0
H2847 H 0.29745 0.01534 0.35181 0.0
H2848 H 0.30448 0.03557 0.36123 0.0
H2849 H 0.33433 0.04867 0.39675 0.0
H2850 H 0.35065 0.10407 0.42808 0.0
H2851 H 0.34948 0.08816 0.41052 0.0
H2852 H 0.32289 0.07527 0.36792 0.0
C2853 C 0.31062 0.03224 0.36123 0.0
C2854 C 0.33199 0.05451 0.39019 0.0
C2855 C 0.30656 0.02062 0.35593 0.0
C2856 C 0.34308 0.09936 0.41979 0.0
C2857 C 0.34233 0.09011 0.40988 0.0
C2858 C 0.32544 0.06956 0.37437 0.0
C2859 C 0.32224 0.03928 0.36727 0.0
C2860 C 0.32604 0.05118 0.37455 0.0
C2861 C 0.33238 0.08331 0.39957 0.0
C2862 C 0.33093 0.07267 0.39038 0.0
H2863 H 0.33183 0.01945 0.36229 0.0
H2864 H 0.3389 0.0398 0.37173 0.0
H2865 H 0.31854 0.05669 0.35441 0.0
H2866 H 0.31706 0.09759 0.4081 0.0
H2867 H 0.31557 0.08127 0.39128 0.0
C2868 C 0.98311 0.3045 0.35457 0.0
C2869 C 0.99187 0.30125 0.35536 0.0
C2870 C 0.97144 0.29652 0.3595 0.0
C2871 C 0.9511 0.26455 0.37057 0.0
H2872 H 0.93434 0.27721 0.39569 0.0
C2873 C 0.91302 0.23763 0.41791 0.0
C2874 C 0.90294 0.23895 0.41704 0.0
C2875 C 0.92295 0.24457 0.40783 0.0
C2876 C 0.93885 0.27356 0.38852 0.0
H2877 H 0.99523 0.28702 0.36178 0.0
H2878 H 0.97518 0.27336 0.37093 0.0
H2879 H 0.95342 0.29072 0.38288 0.0
H2880 H 0.89534 0.2483 0.40406 0.0
H2881 H 0.91289 0.26072 0.38703 0.0
H2882 H 0.93672 0.24736 0.37712 0.0
C2883 C 0.9771 0.28189 0.36604 0.0
C2884 C 0.94979 0.2813 0.38108 0.0
C2885 C 0.98868 0.28979 0.36089 0.0
C2886 C 0.90299 0.24719 0.40542 0.0
C2887 C 0.91301 0.25427 0.39557 0.0
C2888 C 0.94027 0.25682 0.37827 0.0
C2889 C 0.96832 0.28515 0.36557 0.0
C2890 C 0.95616 0.27692 0.37219 0.0
C2891 C 0.92313 0.25313 0.39683 0.0
C2892 C 0.93411 0.26125 0.38747 0.0
H2893 H 0.98527 0.31325 0.35027 0.0
H2894 H 0.96491 0.2993 0.35864 0.0
H2895 H 0.95556 0.2608 0.3635 0.0
H2896 H 0.91347 0.23158 0.42687 0.0
H2897 H 0.93069 0.24359 0.40917 0.0
C2898 C 0.02969 0.37928 0.34123 0.0
C2899 C 0.02282 0.367 0.33856 0.0
C2900 C 0.02573 0.38687 0.33566 0.0
C2901 C 0.00777 0.38925 0.30243 0.0
H2902 H 0.0115 0.41624 0.32819 0.0
C2903 C 0.99784 0.42347 0.27191 0.0
C2904 C 0.00586 0.43547 0.27541 0.0
C2905 C 0.99797 0.41449 0.28144 0.0
C2906 C 0.01049 0.40881 0.32076 0.0
H2907 H 0.00622 0.35301 0.32844 0.0
H2908 H 0.99937 0.36636 0.31843 0.0
H2909 H 0.01531 0.40163 0.34176 0.0
H2910 H 0.01989 0.44734 0.29242 0.0
H2911 H 0.02049 0.43176 0.30847 0.0
H2912 H 0.00355 0.39662 0.2812 0.0
C2913 C 0.00781 0.37006 0.3249 0.0
C2914 C 0.01261 0.40041 0.32858 0.0
C2915 C 0.0117 0.36243 0.3307 0.0
C2916 C 0.01371 0.43822 0.28913 0.0
C2917 C 0.01394 0.42924 0.29853 0.0
C2918 C 0.00579 0.39771 0.29455 0.0
C2919 C 0.01487 0.38238 0.3271 0.0
C2920 C 0.01143 0.39063 0.31943 0.0
C2921 C 0.00622 0.41724 0.29462 0.0
C2922 C 0.00729 0.40771 0.30352 0.0
H2923 H 0.03828 0.38307 0.34728 0.0
H2924 H 0.03141 0.39632 0.33742 0.0
H2925 H 0.00695 0.38189 0.29499 0.0
H2926 H 0.99172 0.42095 0.26137 0.0
H2927 H 0.99172 0.40537 0.27823 0.0
C2928 C 0.6246 0.65536 0.33651 0.0
C2929 C 0.63686 0.6597 0.33754 0.0
C2930 C 0.61691 0.64382 0.33092 0.0
C2931 C 0.61672 0.62062 0.3043 0.0
H2932 H 0.58536 0.60084 0.32322 0.0
C2933 C 0.58569 0.57379 0.27839 0.0
C2934 C 0.57367 0.57032 0.27625 0.0
C2935 C 0.5933 0.58402 0.28746 0.0
C2936 C 0.59405 0.6063 0.31769 0.0
H2937 H 0.65061 0.65515 0.33406 0.0
H2938 H 0.63717 0.63497 0.32433 0.0
H2939 H 0.59891 0.61981 0.33652 0.0
H2940 H 0.56019 0.57483 0.2825 0.0
H2941 H 0.57354 0.59288 0.29794 0.0
H2942 H 0.61184 0.60731 0.28526 0.0
C2943 C 0.63352 0.64055 0.3277 0.0
C2944 C 0.60182 0.61716 0.32535 0.0
C2945 C 0.64122 0.65209 0.33338 0.0
C2946 C 0.56941 0.57727 0.28373 0.0
C2947 C 0.57705 0.58756 0.29277 0.0
C2948 C 0.60895 0.6098 0.29662 0.0
C2949 C 0.6213 0.63634 0.32614 0.0
C2950 C 0.61323 0.62448 0.31869 0.0
C2951 C 0.58914 0.59116 0.29455 0.0
C2952 C 0.59749 0.60251 0.30315 0.0
H2953 H 0.62094 0.66097 0.33963 0.0
H2954 H 0.60757 0.64091 0.32973 0.0
H2955 H 0.62535 0.62613 0.29865 0.0
H2956 H 0.58938 0.56881 0.27262 0.0
H2957 H 0.60249 0.5864 0.28877 0.0
C2958 C 0.35495 0.99355 0.3337 0.0
C2959 C 0.34622 0.98152 0.33488 0.0
C2960 C 0.36631 0.99686 0.32765 0.0
C2961 C 0.38111 0.98605 0.29958 0.0
H2962 H 0.41034 0.00937 0.32099 0.0
C2963 C 0.42587 0.99432 0.27439 0.0
C2964 C 0.43538 0.00605 0.27388 0.0
C2965 C 0.4155 0.99148 0.28322 0.0
C2966 C 0.40226 0.00294 0.31473 0.0
H2967 H 0.34271 0.96355 0.33113 0.0
H2968 H 0.36238 0.96934 0.32049 0.0
H2969 H 0.3913 0.00445 0.33377 0.0
H2970 H 0.44148 0.02388 0.28307 0.0
H2971 H 0.42319 0.01901 0.29781 0.0
H2972 H 0.39185 0.9847 0.2803 0.0
C2973 C 0.36045 0.9762 0.32415 0.0
C2974 C 0.39137 1.00012 0.32209 0.0
C2975 C 0.34918 0.9729 0.33034 0.0
C2976 C 0.4343 0.01478 0.28291 0.0
C2977 C 0.42384 0.01196 0.29158 0.0
C2978 C 0.39194 0.98896 0.29213 0.0
C2979 C 0.36908 0.9882 0.3225 0.0
C2980 C 0.38069 0.99155 0.31466 0.0
C2981 C 0.41421 1.00029 0.2916 0.0
C2982 C 0.40269 0.99736 0.29966 0.0
H2983 H 0.35294 1.00041 0.33712 0.0
H2984 H 0.37279 0.00618 0.32646 0.0
H2985 H 0.37302 0.97957 0.29339 0.0
H2986 H 0.42623 0.98733 0.26747 0.0
H2987 H 0.4084 0.98234 0.28325 0.0
C2988 C 0.6221 0.96693 0.33216 0.0
C2989 C 0.63364 0.97615 0.33569 0.0
C2990 C 0.61354 0.96939 0.32598 0.0
C2991 C 0.60462 0.99179 0.32155 0.0
H2992 H 0.58856 0.97374 0.28137 0.0
C2993 C 0.57224 1.00041 0.28095 0.0
C2994 C 0.56259 0.99051 0.27334 0.0
C2995 C 0.58087 0.99921 0.28989 0.0
C2996 C 0.59279 0.97874 0.29274 0.0
H2997 H 0.64505 0.99523 0.33626 0.0
H2998 H 0.62993 0.99953 0.32549 0.0
H2999 H 0.60362 0.97076 0.29482 0.0
H3000 H 0.55439 0.97148 0.26981 0.0
H3001 H 0.56894 0.96934 0.28601 0.0
H3002 H 0.59359 0.99963 0.31959 0.0
C3003 C 0.6276 0.9904 0.32751 0.0
C3004 C 0.60148 0.97706 0.30039 0.0
C3005 C 0.63625 0.98794 0.33362 0.0
C3006 C 0.56155 0.97932 0.27561 0.0
C3007 C 0.57007 0.97812 0.28467 0.0
C3008 C 0.59579 0.9934 0.31396 0.0
C3009 C 0.61625 0.98112 0.32324 0.0
C3010 C 0.6074 0.98345 0.31497 0.0
C3011 C 0.58002 0.98807 0.29152 0.0
C3012 C 0.58966 0.98677 0.29956 0.0
H3013 H 0.61973 0.95776 0.33372 0.0
H3014 H 0.60481 0.96207 0.32304 0.0
H3015 H 0.60906 0.99683 0.3328 0.0
H3016 H 0.57326 0.00915 0.27974 0.0
H3017 H 0.58842 0.00708 0.29498 0.0
C3018 C 0.01655 0.65157 0.33566 0.0
C3019 C 0.02851 0.66057 0.33587 0.0
C3020 C 0.01334 0.6402 0.32978 0.0
C3021 C 0.02342 0.62556 0.30035 0.0
H3022 H 0.00229 0.59648 0.32407 0.0
C3023 C 0.0149 0.58084 0.27445 0.0
C3024 C 0.00335 0.57108 0.27556 0.0
C3025 C 0.01807 0.5913 0.28328 0.0
C3026 C 0.00808 0.6045 0.31715 0.0
H3027 H 0.04648 0.66459 0.33048 0.0
H3028 H 0.04085 0.6449 0.32004 0.0
H3029 H 0.00721 0.61555 0.33664 0.0
H3030 H 0.98626 0.5646 0.28773 0.0
H3031 H 0.99158 0.583 0.30236 0.0
H3032 H 0.02406 0.61472 0.2806 0.0
C3033 C 0.03397 0.64662 0.32441 0.0
C3034 C 0.01092 0.61541 0.32441 0.0
C3035 C 0.03718 0.65789 0.33047 0.0
C3036 C 0.99517 0.57198 0.28624 0.0
C3037 C 0.99829 0.58252 0.29488 0.0
C3038 C 0.02047 0.61469 0.29299 0.0
C3039 C 0.02202 0.6377 0.32379 0.0
C3040 C 0.01869 0.62605 0.31612 0.0
C3041 C 0.00973 0.59241 0.29327 0.0
C3042 C 0.01284 0.60398 0.30133 0.0
H3043 H 0.00967 0.65335 0.33976 0.0
H3044 H 0.00405 0.63348 0.32937 0.0
H3045 H 0.02929 0.63362 0.29355 0.0
H3046 H 0.02145 0.58061 0.26627 0.0
H3047 H 0.02705 0.59859 0.28203 0.0
C3048 C 0.35621 0.36627 0.33351 0.0
C3049 C 0.34866 0.37005 0.3402 0.0
C3050 C 0.36753 0.37454 0.32762 0.0
C3051 C 0.39306 0.39422 0.32156 0.0
H3052 H 0.39464 0.42032 0.29584 0.0
C3053 C 0.43681 0.43106 0.29171 0.0
C3054 C 0.43595 0.43452 0.27511 0.0
C3055 C 0.42659 0.42374 0.3011 0.0
C3056 C 0.39436 0.41307 0.30293 0.0
H3057 H 0.34731 0.38548 0.34684 0.0
H3058 H 0.36705 0.39984 0.33692 0.0
H3059 H 0.37625 0.40634 0.30976 0.0
H3060 H 0.42361 0.4328 0.25535 0.0
H3061 H 0.4059 0.42016 0.27167 0.0
H3062 H 0.41111 0.40077 0.31415 0.0
C3063 C 0.36417 0.39051 0.33581 0.0
C3064 C 0.38384 0.40512 0.31112 0.0
C3065 C 0.35286 0.38226 0.34161 0.0
C3066 C 0.42463 0.43057 0.26822 0.0
C3067 C 0.41445 0.42327 0.27759 0.0
C3068 C 0.40362 0.40219 0.31335 0.0
C3069 C 0.37154 0.38676 0.32834 0.0
C3070 C 0.38301 0.39553 0.32043 0.0
C3071 C 0.41528 0.41971 0.29411 0.0
C3072 C 0.40434 0.41164 0.30377 0.0
H3073 H 0.35323 0.35693 0.33222 0.0
H3074 H 0.37292 0.37132 0.32184 0.0
H3075 H 0.39277 0.387 0.32875 0.0
H3076 H 0.44539 0.43403 0.29747 0.0
H3077 H 0.42755 0.42128 0.31387 0.0
C3078 C 0.31068 0.29238 0.3542 0.0
C3079 C 0.31802 0.30476 0.35372 0.0
C3080 C 0.3151 0.28513 0.35963 0.0
C3081 C 0.33865 0.28604 0.38642 0.0
H3082 H 0.32797 0.25486 0.36747 0.0
C3083 C 0.35463 0.25531 0.4134 0.0
C3084 C 0.34586 0.24342 0.41598 0.0
C3085 C 0.35222 0.26289 0.40383 0.0
C3086 C 0.33099 0.26352 0.37297 0.0
H3087 H 0.33591 0.31918 0.35795 0.0
H3088 H 0.34367 0.3065 0.36727 0.0
H3089 H 0.32215 0.26804 0.35401 0.0
H3090 H 0.32781 0.23008 0.40988 0.0
H3091 H 0.32353 0.24334 0.39344 0.0
H3092 H 0.34729 0.28146 0.40555 0.0
C3093 C 0.33443 0.30242 0.36367 0.0
C3094 C 0.32765 0.27108 0.36525 0.0
C3095 C 0.33001 0.30969 0.35822 0.0
C3096 C 0.33473 0.23921 0.4083 0.0
C3097 C 0.33232 0.24679 0.39871 0.0
C3098 C 0.34198 0.27849 0.39413 0.0
C3099 C 0.32698 0.29006 0.36472 0.0
C3100 C 0.33132 0.28238 0.37201 0.0
C3101 C 0.34097 0.25878 0.39659 0.0
C3102 C 0.33807 0.26707 0.38763 0.0
H3103 H 0.3014 0.28828 0.35084 0.0
H3104 H 0.30906 0.27568 0.36044 0.0
H3105 H 0.34148 0.29459 0.39215 0.0
H3106 H 0.36327 0.2589 0.41927 0.0
H3107 H 0.35913 0.27202 0.40228 0.0
C3108 C 0.70183 0.02141 0.36151 0.0
C3109 C 0.70485 0.01253 0.3593 0.0
C3110 C 0.71022 0.03261 0.36768 0.0
C3111 C 0.73659 0.04619 0.39446 0.0
H3112 H 0.74327 0.0763 0.37531 0.0
C3113 C 0.77645 0.08911 0.41747 0.0
C3114 C 0.77521 0.09912 0.41993 0.0
C3115 C 0.7678 0.07918 0.4089 0.0
C3116 C 0.7414 0.06796 0.38093 0.0
H3117 H 0.71918 0.00865 0.36113 0.0
H3118 H 0.73366 0.02803 0.3719 0.0
H3119 H 0.72801 0.05777 0.36241 0.0
H3120 H 0.76395 0.1066 0.41454 0.0
H3121 H 0.7486 0.08903 0.40008 0.0
H3122 H 0.74968 0.05615 0.41311 0.0
C3123 C 0.72482 0.02633 0.36903 0.0
C3124 C 0.73268 0.05738 0.37352 0.0
C3125 C 0.71651 0.01522 0.36279 0.0
C3126 C 0.76516 0.09901 0.41311 0.0
C3127 C 0.75641 0.08898 0.40464 0.0
C3128 C 0.74517 0.0567 0.40192 0.0
C3129 C 0.72172 0.03506 0.37187 0.0
C3130 C 0.73036 0.04639 0.38006 0.0
C3131 C 0.75751 0.07885 0.40275 0.0
C3132 C 0.74787 0.06774 0.39508 0.0
H3133 H 0.69293 0.01961 0.3589 0.0
H3134 H 0.7076 0.03919 0.36977 0.0
H3135 H 0.7348 0.03786 0.40001 0.0
H3136 H 0.7839 0.08869 0.42271 0.0
H3137 H 0.76911 0.07166 0.40736 0.0
C3138 C 0.98943 0.70167 0.35869 0.0
C3139 C 0.9937 0.6937 0.35754 0.0
C3140 C 0.97787 0.69785 0.36416 0.0
C3141 C 0.95444 0.67478 0.39033 0.0
H3142 H 0.93488 0.68655 0.37122 0.0
C3143 C 0.90757 0.65914 0.41584 0.0
C3144 C 0.90413 0.66773 0.41793 0.0
C3145 C 0.91781 0.66174 0.40684 0.0
C3146 C 0.94028 0.68326 0.37681 0.0
H3147 H 0.98902 0.67535 0.36071 0.0
H3148 H 0.9688 0.66865 0.37028 0.0
H3149 H 0.95392 0.69195 0.35815 0.0
H3150 H 0.90871 0.68572 0.41163 0.0
H3151 H 0.9268 0.69036 0.39634 0.0
H3152 H 0.94103 0.66634 0.40922 0.0
C3153 C 0.97446 0.6779 0.36707 0.0
C3154 C 0.95117 0.68633 0.36928 0.0
C3155 C 0.98602 0.68172 0.36149 0.0
C3156 C 0.91113 0.67892 0.41044 0.0
C3157 C 0.92144 0.68154 0.40149 0.0
C3158 C 0.9436 0.67176 0.39789 0.0
C3159 C 0.97031 0.68596 0.36871 0.0
C3160 C 0.95841 0.68217 0.37601 0.0
C3161 C 0.925 0.67302 0.39978 0.0
C3162 C 0.93639 0.676 0.39129 0.0
H3163 H 0.99511 0.71096 0.35572 0.0
H3164 H 0.97501 0.70431 0.36543 0.0
H3165 H 0.95989 0.6716 0.39603 0.0
H3166 H 0.90255 0.65048 0.42161 0.0
H3167 H 0.92015 0.65489 0.40557 0.0
C3168 C 0.36681 0.01393 0.69448 0.0
C3169 C 0.37085 0.02566 0.68935 0.0
C3170 C 0.37484 0.01045 0.69998 0.0
C3171 C 0.40502 0.02334 0.7179 0.0
H3172 H 0.40082 0.99218 0.70943 0.0
C3173 C 0.43898 0.01057 0.74162 0.0
C3174 C 0.43428 0.99947 0.74957 0.0
C3175 C 0.43165 0.01352 0.7324 0.0
C3176 C 0.40208 0.0009 0.71197 0.0
H3177 H 0.38653 0.04278 0.68516 0.0
H3178 H 0.40048 0.03668 0.69436 0.0
H3179 H 0.38719 0.99769 0.69664 0.0
H3180 H 0.41815 0.98272 0.75383 0.0
H3181 H 0.40543 0.98784 0.73772 0.0
H3182 H 0.41981 0.02652 0.73335 0.0
C3183 C 0.39111 0.03022 0.69458 0.0
C3184 C 0.39425 0.00405 0.70467 0.0
C3185 C 0.3831 0.0337 0.68919 0.0
C3186 C 0.42213 0.99127 0.74764 0.0
C3187 C 0.41481 0.99422 0.73841 0.0
C3188 C 0.41285 0.0202 0.72515 0.0
C3189 C 0.38708 0.01862 0.7004 0.0
C3190 C 0.39559 0.0153 0.70761 0.0
C3191 C 0.41944 0.00545 0.73091 0.0
C3192 C 0.41144 0.00892 0.72237 0.0
H3193 H 0.35742 0.00753 0.69479 0.0
H3194 H 0.37141 0.00148 0.70449 0.0
H3195 H 0.4062 0.03199 0.72075 0.0
H3196 H 0.44832 0.01703 0.74263 0.0
H3197 H 0.43553 0.02218 0.72655 0.0
C3198 C 0.99278 0.35631 0.69879 0.0
C3199 C 0.98127 0.34885 0.69266 0.0
C3200 C 0.99622 0.36781 0.70423 0.0
C3201 C 0.98299 0.38579 0.7189 0.0
H3202 H 0.01544 0.4116 0.71638 0.0
C3203 C 0.99706 0.43294 0.74286 0.0
C3204 C 0.00669 0.4377 0.75421 0.0
C3205 C 0.9943 0.42283 0.73332 0.0
C3206 C 0.00634 0.40446 0.71715 0.0
H3207 H 0.96457 0.34779 0.6865 0.0
H3208 H 0.97067 0.36792 0.69526 0.0
H3209 H 0.01002 0.39266 0.70301 0.0
H3210 H 0.02098 0.43544 0.76418 0.0
H3211 H 0.01636 0.41811 0.74719 0.0
H3212 H 0.97933 0.39766 0.73295 0.0
C3213 C 0.97695 0.36482 0.69653 0.0
C3214 C 0.00323 0.39358 0.70958 0.0
C3215 C 0.97346 0.35329 0.69136 0.0
C3216 C 0.01367 0.43225 0.75535 0.0
C3217 C 0.011 0.42226 0.74565 0.0
C3218 C 0.98607 0.39671 0.72625 0.0
C3219 C 0.98827 0.37216 0.70344 0.0
C3220 C 0.99153 0.38403 0.71053 0.0
C3221 C 1.00119 0.41733 0.73473 0.0
C3222 C 0.9978 0.40611 0.72565 0.0
H3223 H 0.99898 0.35311 0.70001 0.0
H3224 H 0.00497 0.37311 0.70965 0.0
H3225 H 0.97395 0.37863 0.72027 0.0
H3226 H 0.9916 0.43697 0.7414 0.0
H3227 H 0.98674 0.41926 0.72487 0.0
C3228 C 0.6556 0.62465 0.68329 0.0
C3229 C 0.66028 0.6366 0.68769 0.0
C3230 C 0.64419 0.61616 0.68835 0.0
C3231 C 0.61626 0.61213 0.70818 0.0
H3232 H 0.61336 0.58238 0.72271 0.0
C3233 C 0.58061 0.57913 0.75487 0.0
C3234 C 0.5755 0.56694 0.75141 0.0
C3235 C 0.58969 0.58754 0.74464 0.0
C3236 C 0.61396 0.59057 0.71848 0.0
H3237 H 0.65656 0.64914 0.7003 0.0
H3238 H 0.63681 0.63428 0.70978 0.0
H3239 H 0.63159 0.59724 0.70951 0.0
H3240 H 0.57549 0.55417 0.73375 0.0
H3241 H 0.59155 0.56886 0.7162 0.0
H3242 H 0.59872 0.6055 0.71808 0.0
C3243 C 0.64179 0.63144 0.70204 0.0
C3244 C 0.62442 0.59911 0.71082 0.0
C3245 C 0.65315 0.63998 0.69667 0.0
C3246 C 0.57938 0.56344 0.73703 0.0
C3247 C 0.58855 0.57185 0.72692 0.0
C3248 C 0.60583 0.60361 0.71609 0.0
C3249 C 0.63726 0.61936 0.69828 0.0
C3250 C 0.62577 0.61006 0.70561 0.0
C3251 C 0.59395 0.58397 0.73082 0.0
C3252 C 0.6046 0.59276 0.72139 0.0
H3253 H 0.66085 0.62181 0.67617 0.0
H3254 H 0.64092 0.60703 0.68473 0.0
H3255 H 0.61688 0.62035 0.70413 0.0
H3256 H 0.57802 0.58219 0.76594 0.0
H3257 H 0.59377 0.59681 0.74805 0.0
C3258 C 0.6826 0.69993 0.66222 0.0
C3259 C 0.69324 0.70364 0.67106 0.0
C3260 C 0.67939 0.70821 0.65694 0.0
C3261 C 0.69334 0.74048 0.64823 0.0
H3262 H 0.66086 0.73312 0.6419 0.0
C3263 C 0.68251 0.77546 0.62377 0.0
C3264 C 0.67502 0.77197 0.60951 0.0
C3265 C 0.68355 0.76708 0.63354 0.0
C3266 C 0.66996 0.73528 0.64363 0.0
H3267 H 0.70842 0.71873 0.68238 0.0
H3268 H 0.70259 0.73304 0.67398 0.0
H3269 H 0.66488 0.71857 0.65531 0.0
H3270 H 0.66234 0.75675 0.5949 0.0
H3271 H 0.66399 0.74215 0.61219 0.0
H3272 H 0.6984 0.75717 0.63664 0.0
C3273 C 0.69694 0.72386 0.67041 0.0
C3274 C 0.67229 0.72693 0.65123 0.0
C3275 C 0.70025 0.71564 0.67537 0.0
C3276 C 0.66809 0.75979 0.60588 0.0
C3277 C 0.66905 0.7514 0.61576 0.0
C3278 C 0.69101 0.74884 0.64088 0.0
C3279 C 0.68667 0.72034 0.66064 0.0
C3280 C 0.68403 0.72938 0.6535 0.0
C3281 C 0.67703 0.75499 0.6294 0.0
C3282 C 0.67932 0.74631 0.63835 0.0
H3283 H 0.67705 0.69073 0.65866 0.0
H3284 H 0.67148 0.70513 0.64934 0.0
H3285 H 0.70248 0.74264 0.6493 0.0
H3286 H 0.68779 0.78472 0.62718 0.0
H3287 H 0.68964 0.77009 0.64415 0.0
C3288 C 0.29184 0.98854 0.6694 0.0
C3289 C 0.3041 0.99283 0.67048 0.0
C3290 C 0.28414 0.97703 0.66371 0.0
C3291 C 0.28394 0.95391 0.63691 0.0
H3292 H 0.25255 0.93409 0.65569 0.0
C3293 C 0.25298 0.90721 0.61065 0.0
C3294 C 0.24095 0.90374 0.60848 0.0
C3295 C 0.26055 0.9174 0.61981 0.0
C3296 C 0.26125 0.93956 0.6502 0.0
H3297 H 0.31781 0.98824 0.66699 0.0
H3298 H 0.30434 0.96811 0.65708 0.0
H3299 H 0.26609 0.95301 0.66914 0.0
H3300 H 0.22746 0.9082 0.61479 0.0
H3301 H 0.24077 0.92619 0.63038 0.0
H3302 H 0.27908 0.94068 0.61776 0.0
C3303 C 0.30072 0.97371 0.66049 0.0
C3304 C 0.26901 0.95039 0.65794 0.0
C3305 C 0.30843 0.98522 0.66627 0.0
C3306 C 0.23668 0.91065 0.61604 0.0
C3307 C 0.24429 0.9209 0.62516 0.0
C3308 C 0.27617 0.94313 0.62914 0.0
C3309 C 0.28851 0.96955 0.65888 0.0
C3310 C 0.28044 0.95772 0.65133 0.0
C3311 C 0.25637 0.9245 0.62696 0.0
C3312 C 0.2647 0.93582 0.63563 0.0
H3313 H 0.2882 0.99416 0.67256 0.0
H3314 H 0.27481 0.97416 0.66248 0.0
H3315 H 0.29258 0.95944 0.63129 0.0
H3316 H 0.25668 0.90225 0.60483 0.0
H3317 H 0.26975 0.91977 0.62115 0.0
C3318 C 0.02336 0.32598 0.66767 0.0
C3319 C 0.01443 0.31399 0.66775 0.0
C3320 C 0.03475 0.32934 0.66169 0.0
C3321 C 0.0495 0.31922 0.63221 0.0
H3322 H 0.07867 0.34156 0.65476 0.0
C3323 C 0.09422 0.32737 0.60713 0.0
C3324 C 0.10383 0.33905 0.60707 0.0
C3325 C 0.08382 0.32448 0.61591 0.0
C3326 C 0.07061 0.33541 0.64819 0.0
H3327 H 0.01062 0.29611 0.66216 0.0
H3328 H 0.03035 0.30198 0.65172 0.0
H3329 H 0.05959 0.33648 0.66756 0.0
H3330 H 0.11008 0.35673 0.617 0.0
H3331 H 0.09175 0.35178 0.63174 0.0
H3332 H 0.06032 0.31829 0.61266 0.0
C3333 C 0.02855 0.30879 0.65614 0.0
C3334 C 0.05969 0.33249 0.65556 0.0
C3335 C 0.01724 0.30543 0.66221 0.0
C3336 C 0.10283 0.34768 0.6165 0.0
C3337 C 0.09234 0.34481 0.62516 0.0
C3338 C 0.06036 0.3222 0.62478 0.0
C3339 C 0.03737 0.32079 0.65553 0.0
C3340 C 0.04903 0.32426 0.64771 0.0
C3341 C 0.08262 0.33321 0.62472 0.0
C3342 C 0.07108 0.33024 0.63273 0.0
H3343 H 0.02148 0.33278 0.67187 0.0
H3344 H 0.04138 0.33866 0.66132 0.0
H3345 H 0.04143 0.31303 0.62568 0.0
H3346 H 0.09452 0.32047 0.59988 0.0
H3347 H 0.07664 0.31539 0.61557 0.0
C3348 C 0.30507 0.32373 0.6687 0.0
C3349 C 0.30213 0.31181 0.66984 0.0
C3350 C 0.29643 0.32669 0.66435 0.0
C3351 C 0.26368 0.31372 0.66012 0.0
H3352 H 0.27215 0.33828 0.62637 0.0
C3353 C 0.2303 0.31468 0.61364 0.0
C3354 C 0.23096 0.32555 0.60993 0.0
C3355 C 0.23875 0.31422 0.62397 0.0
C3356 C 0.26968 0.33154 0.63602 0.0
H3357 H 0.28775 0.29365 0.66771 0.0
H3358 H 0.27288 0.29874 0.65989 0.0
H3359 H 0.28756 0.33533 0.63903 0.0
H3360 H 0.24096 0.34447 0.61489 0.0
H3361 H 0.25598 0.34365 0.63248 0.0
H3362 H 0.24572 0.30956 0.65643 0.0
C3363 C 0.28175 0.30587 0.66262 0.0
C3364 C 0.27852 0.32985 0.64331 0.0
C3365 C 0.29034 0.30293 0.66698 0.0
C3366 C 0.24023 0.33595 0.61718 0.0
C3367 C 0.24882 0.3355 0.62733 0.0
C3368 C 0.25485 0.31533 0.65272 0.0
C3369 C 0.28468 0.31777 0.66108 0.0
C3370 C 0.27559 0.3207 0.65512 0.0
C3371 C 0.24821 0.32463 0.6307 0.0
C3372 C 0.25772 0.32406 0.64028 0.0
H3373 H 0.31407 0.33078 0.67087 0.0
H3374 H 0.29898 0.33595 0.66345 0.0
H3375 H 0.26111 0.30678 0.66948 0.0
H3376 H 0.22351 0.3065 0.60804 0.0
H3377 H 0.23816 0.30573 0.62611 0.0
C3378 C 0.6824 0.9848 0.67035 0.0
C3379 C 0.69439 0.99364 0.67151 0.0
C3380 C 0.67924 0.97341 0.6646 0.0
C3381 C 0.68994 0.95878 0.63646 0.0
H3382 H 0.66771 0.92952 0.65887 0.0
C3383 C 0.68093 0.9141 0.60955 0.0
C3384 C 0.66927 0.90448 0.6102 0.0
C3385 C 0.68414 0.92448 0.61865 0.0
C3386 C 0.67381 0.93759 0.6523 0.0
H3387 H 0.71245 0.99735 0.66801 0.0
H3388 H 0.70691 0.97763 0.65773 0.0
H3389 H 0.6726 0.94852 0.6717 0.0
H3390 H 0.65204 0.89815 0.62184 0.0
H3391 H 0.65744 0.91642 0.63684 0.0
H3392 H 0.69089 0.9481 0.61674 0.0
C3393 C 0.69998 0.97948 0.6613 0.0
C3394 C 0.67664 0.94846 0.65972 0.0
C3395 C 0.70313 0.99076 0.66726 0.0
C3396 C 0.66104 0.90543 0.62068 0.0
C3397 C 0.6642 0.91589 0.62955 0.0
C3398 C 0.68699 0.94796 0.62891 0.0
C3399 C 0.68801 0.97075 0.65966 0.0
C3400 C 0.6848 0.95915 0.65191 0.0
C3401 C 0.67576 0.92566 0.62843 0.0
C3402 C 0.67894 0.93718 0.63675 0.0
H3403 H 0.67546 0.98673 0.67354 0.0
H3404 H 0.66995 0.96683 0.6634 0.0
H3405 H 0.69612 0.9669 0.63003 0.0
H3406 H 0.68754 0.91385 0.60154 0.0
H3407 H 0.69321 0.93165 0.61777 0.0
C3408 C 0.02191 0.70117 0.66379 0.0
C3409 C 0.01427 0.70517 0.66932 0.0
C3410 C 0.03334 0.70924 0.65805 0.0
C3411 C 0.05901 0.72864 0.65214 0.0
H3412 H 0.06132 0.75435 0.62462 0.0
C3413 C 0.10348 0.7648 0.62295 0.0
C3414 C 0.10295 0.76817 0.60617 0.0
C3415 C 0.09306 0.75759 0.63204 0.0
C3416 C 0.06084 0.7472 0.6322 0.0
H3417 H 0.01287 0.72081 0.67415 0.0
H3418 H 0.03281 0.73482 0.66461 0.0
H3419 H 0.04263 0.74071 0.63805 0.0
H3420 H 0.09103 0.76639 0.58573 0.0
H3421 H 0.07299 0.7539 0.60148 0.0
H3422 H 0.07717 0.73494 0.64565 0.0
C3423 C 0.02991 0.72546 0.66419 0.0
C3424 C 0.05014 0.73945 0.64012 0.0
C3425 C 0.01849 0.71742 0.66977 0.0
C3426 C 0.09178 0.76421 0.59875 0.0
C3427 C 0.08141 0.75701 0.6078 0.0
C3428 C 0.06975 0.73641 0.64415 0.0
C3429 C 0.03739 0.72148 0.65784 0.0
C3430 C 0.04904 0.73001 0.65011 0.0
C3431 C 0.0819 0.75358 0.62454 0.0
C3432 C 0.07075 0.74571 0.63393 0.0
H3433 H 0.01891 0.69179 0.66326 0.0
H3434 H 0.03881 0.70583 0.65314 0.0
H3435 H 0.05853 0.72155 0.65987 0.0
H3436 H 0.11193 0.76776 0.62908 0.0
H3437 H 0.09376 0.75522 0.64497 0.0
C3438 C 0.99159 0.64144 0.69807 0.0
C3439 C 0.98093 0.63787 0.68937 0.0
C3440 C 0.9946 0.63303 0.70343 0.0
C3441 C 0.98019 0.60071 0.71239 0.0
H3442 H 0.01253 0.60762 0.71859 0.0
C3443 C 0.99058 0.56531 0.73653 0.0
C3444 C 0.99795 0.56869 0.75092 0.0
C3445 C 0.98964 0.57378 0.72682 0.0
C3446 C 0.00346 0.60558 0.71689 0.0
H3447 H 0.96548 0.62287 0.67839 0.0
H3448 H 0.97097 0.60834 0.68687 0.0
H3449 H 0.00875 0.62232 0.70518 0.0
H3450 H 0.01052 0.5838 0.76582 0.0
H3451 H 0.00909 0.59854 0.74858 0.0
H3452 H 0.97492 0.58396 0.72396 0.0
C3453 C 0.9768 0.61751 0.69031 0.0
C3454 C 1.00128 0.61402 0.7093 0.0
C3455 C 0.97368 0.62586 0.68529 0.0
C3456 C 0.00487 0.58084 0.75473 0.0
C3457 C 0.00403 0.58931 0.74489 0.0
C3458 C 0.98238 0.59224 0.71971 0.0
C3459 C 0.98711 0.6209 0.69993 0.0
C3460 C 0.98959 0.61175 0.70709 0.0
C3461 C 0.99617 0.58584 0.73112 0.0
C3462 C 0.99402 0.59462 0.72219 0.0
H3463 H 0.99731 0.65065 0.70145 0.0
H3464 H 0.00255 0.63603 0.71092 0.0
H3465 H 0.97108 0.59868 0.71137 0.0
H3466 H 0.98532 0.55608 0.73296 0.0
H3467 H 0.98363 0.57087 0.71612 0.0
C3468 C 0.36856 0.3561 0.69217 0.0
C3469 C 0.37184 0.34735 0.69112 0.0
C3470 C 0.37654 0.36739 0.6985 0.0
C3471 C 0.40145 0.38177 0.7277 0.0
H3472 H 0.40833 0.41128 0.70623 0.0
C3473 C 0.43763 0.42611 0.75449 0.0
C3474 C 0.4356 0.43574 0.75461 0.0
C3475 C 0.43023 0.41582 0.74539 0.0
C3476 C 0.4064 0.40313 0.71252 0.0
H3477 H 0.38618 0.34373 0.6954 0.0
H3478 H 0.39993 0.36328 0.70656 0.0
H3479 H 0.39438 0.39242 0.69287 0.0
H3480 H 0.42437 0.44217 0.74446 0.0
H3481 H 0.41113 0.42403 0.7293 0.0
H3482 H 0.41306 0.39225 0.74757 0.0
C3483 C 0.39122 0.36142 0.70255 0.0
C3484 C 0.39843 0.39234 0.70482 0.0
C3485 C 0.38334 0.35023 0.69607 0.0
C3486 C 0.42612 0.43488 0.74495 0.0
C3487 C 0.41859 0.42451 0.73602 0.0
C3488 C 0.40926 0.3925 0.73549 0.0
C3489 C 0.38785 0.37006 0.70407 0.0
C3490 C 0.39599 0.38157 0.71227 0.0
C3491 C 0.42043 0.41476 0.73636 0.0
C3492 C 0.41196 0.40335 0.72794 0.0
H3493 H 0.35978 0.35416 0.68843 0.0
H3494 H 0.37371 0.37389 0.69959 0.0
H3495 H 0.39956 0.37359 0.73388 0.0
H3496 H 0.44472 0.4263 0.76188 0.0
H3497 H 0.43212 0.40863 0.74566 0.0
C3498 C 0.65511 0.03387 0.68761 0.0
C3499 C 0.65971 0.02615 0.68739 0.0
C3500 C 0.64366 0.03005 0.69362 0.0
C3501 C 0.62148 0.00806 0.72254 0.0
H3502 H 0.60074 0.01823 0.70296 0.0
C3503 C 0.57508 0.99246 0.75001 0.0
C3504 C 0.57146 0.00093 0.75159 0.0
C3505 C 0.58517 0.99493 0.74069 0.0
C3506 C 0.60647 0.0154 0.70867 0.0
H3507 H 0.65571 0.00821 0.69271 0.0
H3508 H 0.63569 0.00151 0.70311 0.0
H3509 H 0.61943 0.02338 0.68896 0.0
H3510 H 0.57554 0.01859 0.74415 0.0
H3511 H 0.59335 0.02302 0.72822 0.0
H3512 H 0.60871 1.00028 0.74241 0.0
C3513 C 0.641 0.01058 0.69882 0.0
C3514 C 0.61717 0.01833 0.70062 0.0
C3515 C 0.65245 0.01439 0.69275 0.0
C3516 C 0.57812 0.01189 0.74333 0.0
C3517 C 0.58826 0.01438 0.73403 0.0
C3518 C 0.61082 0.00516 0.7306 0.0
C3519 C 0.63655 0.01843 0.69961 0.0
C3520 C 0.62484 0.01475 0.70752 0.0
C3521 C 0.592 0.00598 0.73278 0.0
C3522 C 0.60319 0.00883 0.72382 0.0
H3523 H 0.66046 0.04299 0.68357 0.0
H3524 H 0.64057 0.03636 0.69418 0.0
H3525 H 0.62727 0.00535 0.72839 0.0
H3526 H 0.57031 0.98398 0.75637 0.0
H3527 H 0.58767 0.98818 0.73982 0.0
loop_
_geom_bond_atom_site_label_1
_geom_bond_atom_site_label_2
_geom_bond_distance
_geom_bond_site_symmetry_2
_ccdc_geom_bond_type
O0 Cd1 2.223 . S
O0 C8 1.315 . S
Cd1 O0 2.223 . S
Cd1 O4 2.297 . S
Cd1 O5 2.439 . S
Cd1 O11 2.240 1_554 S
Cd2 O3 2.238 . S
Cd2 O10 2.232 . S
Cd2 O12 2.297 1_554 S
Cd2 O13 2.439 . S
O3 Cd2 2.238 . S
O3 C8 1.279 1_655 S
O4 Cd1 2.297 . S
O4 C6 1.247 . S
O5 Cd1 2.439 . S
O5 C6 1.208 . S
C6 O4 1.247 . S
C6 O5 1.208 . S
C7 O12 1.247 . S
C7 O13 1.208 1_556 S
C8 O0 1.315 . S
C8 O3 1.279 1_455 S
C9 O10 1.355 1_556 S
C9 O11 1.233 1_655 S
O10 Cd2 2.232 . S
O10 C9 1.355 1_554 S
O11 Cd1 2.240 1_556 S
O11 C9 1.233 1_455 S
O12 Cd2 2.297 1_556 S
O12 C7 1.247 . S
O13 Cd2 2.439 . S
O13 C7 1.208 1_554 S
O14 Cd15 2.223 . S
O14 C22 1.315 . S
Cd15 O14 2.223 . S
Cd15 O18 2.297 . S
Cd15 O19 2.439 . S
Cd15 O25 2.240 1_554 S
Cd16 O17 2.240 . S
Cd16 O24 2.232 . S
Cd16 O26 2.297 1_554 S
Cd16 O27 2.439 . S
O17 Cd16 2.240 . S
O17 C22 1.279 . S
O18 Cd15 2.297 . S
O18 C20 1.247 . S
O19 Cd15 2.439 . S
O19 C20 1.208 . S
C20 O18 1.247 . S
C20 O19 1.208 . S
C21 O26 1.247 . S
C21 O27 1.208 1_556 S
C22 O14 1.315 . S
C22 O17 1.279 . S
C23 O24 1.308 1_556 S
C23 O25 1.279 . S
O24 Cd16 2.232 . S
O24 C23 1.308 1_554 S
O25 Cd15 2.240 1_556 S
O25 C23 1.279 . S
O26 Cd16 2.297 1_556 S
O26 C21 1.247 . S
O27 Cd16 2.439 . S
O27 C21 1.208 1_554 S
O28 Cd29 2.231 . S
O28 C36 1.309 1_554 S
Cd29 O28 2.231 . S
Cd29 O32 2.297 1_554 S
Cd29 O33 2.439 . S
Cd29 O39 2.240 . S
Cd30 O31 2.252 1_554 S
Cd30 O38 2.223 . S
Cd30 O40 2.297 . S
Cd30 O41 2.439 . S
O31 Cd30 2.252 1_556 S
O31 C36 1.279 1_565 S
O32 Cd29 2.297 1_556 S
O32 C34 1.247 . S
O33 Cd29 2.439 . S
O33 C34 1.208 1_554 S
C34 O32 1.247 . S
C34 O33 1.208 1_556 S
C35 O40 1.247 . S
C35 O41 1.208 . S
C36 O28 1.309 1_556 S
C36 O31 1.279 1_545 S
C37 O38 1.382 . S
C37 O39 1.212 1_565 S
O38 Cd30 2.223 . S
O38 C37 1.382 . S
O39 Cd29 2.240 . S
O39 C37 1.212 1_545 S
O40 Cd30 2.297 . S
O40 C35 1.247 . S
O41 Cd30 2.439 . S
O41 C35 1.208 . S
O42 Cd43 2.231 . S
O42 C50 1.348 1_554 S
Cd43 O42 2.231 . S
Cd43 O46 2.297 1_554 S
Cd43 O47 2.439 . S
Cd43 O53 2.241 . S
Cd44 O45 2.240 1_554 S
Cd44 O52 2.223 . S
Cd44 O54 2.297 . S
Cd44 O55 2.439 . S
O45 Cd44 2.240 1_556 S
O45 C50 1.280 1_455 S
O46 Cd43 2.297 1_556 S
O46 C48 1.247 . S
O47 Cd43 2.439 . S
O47 C48 1.208 1_554 S
C48 O46 1.247 . S
C48 O47 1.208 1_556 S
C49 O54 1.247 . S
C49 O55 1.208 . S
C50 O42 1.348 1_556 S
C50 O45 1.280 1_655 S
C51 O52 1.315 . S
C51 O53 1.279 1_455 S
O52 Cd44 2.223 . S
O52 C51 1.315 . S
O53 Cd43 2.241 . S
O53 C51 1.279 1_655 S
O54 Cd44 2.297 . S
O54 C49 1.247 . S
O55 Cd44 2.439 . S
O55 C49 1.208 . S
O56 Cd57 2.232 . S
O56 C64 1.308 1_554 S
Cd57 O56 2.232 . S
Cd57 O60 2.297 1_554 S
Cd57 O61 2.439 . S
Cd57 O67 2.240 . S
Cd58 O59 2.240 1_554 S
Cd58 O66 2.223 . S
Cd58 O68 2.297 . S
Cd58 O69 2.439 . S
O59 Cd58 2.240 1_556 S
O59 C64 1.279 . S
O60 Cd57 2.297 1_556 S
O60 C62 1.247 . S
O61 Cd57 2.439 . S
O61 C62 1.208 1_554 S
C62 O60 1.247 . S
C62 O61 1.208 1_556 S
C63 O68 1.247 . S
C63 O69 1.208 . S
C64 O56 1.308 1_556 S
C64 O59 1.279 . S
C65 O66 1.315 . S
C65 O67 1.279 . S
O66 Cd58 2.223 . S
O66 C65 1.315 . S
O67 Cd57 2.240 . S
O67 C65 1.279 . S
O68 Cd58 2.297 . S
O68 C63 1.247 . S
O69 Cd58 2.439 . S
O69 C63 1.208 . S
O70 Cd71 2.223 . S
O70 C78 1.370 . S
Cd71 O70 2.223 . S
Cd71 O74 2.297 . S
Cd71 O75 2.439 . S
Cd71 O81 2.258 1_554 S
Cd72 O73 2.240 . S
Cd72 O80 2.232 . S
Cd72 O82 2.297 1_554 S
Cd72 O83 2.439 . S
O73 Cd72 2.240 . S
O73 C78 1.281 1_545 S
O74 Cd71 2.297 . S
O74 C76 1.247 . S
O75 Cd71 2.439 . S
O75 C76 1.208 . S
C76 O74 1.247 . S
C76 O75 1.208 . S
C77 O82 1.247 . S
C77 O83 1.208 1_556 S
C78 O70 1.370 . S
C78 O73 1.281 1_565 S
C79 O80 1.308 1_556 S
C79 O81 1.258 1_545 S
O80 Cd72 2.232 . S
O80 C79 1.308 1_554 S
O81 Cd71 2.258 1_556 S
O81 C79 1.258 1_565 S
O82 Cd72 2.297 1_556 S
O82 C77 1.247 . S
O83 Cd72 2.439 . S
O83 C77 1.208 1_554 S
O84 Cd85 2.223 . S
O84 C92 1.315 . S
Cd85 O84 2.223 . S
Cd85 O88 2.297 . S
Cd85 O89 2.439 . S
Cd85 O95 2.240 . S
Cd86 O87 2.240 . S
Cd86 O94 2.223 . S
Cd86 O96 2.297 . S
Cd86 O97 2.439 . S
O87 Cd86 2.240 . S
O87 C92 1.279 . S
O88 Cd85 2.297 . S
O88 C90 1.247 . S
O89 Cd85 2.439 . S
O89 C90 1.208 . S
C90 O88 1.247 . S
C90 O89 1.208 . S
C91 O96 1.247 . S
C91 O97 1.208 . S
C92 O84 1.315 . S
C92 O87 1.279 . S
C93 O94 1.315 . S
C93 O95 1.279 . S
O94 Cd86 2.223 . S
O94 C93 1.315 . S
O95 Cd85 2.240 . S
O95 C93 1.279 . S
O96 Cd86 2.297 . S
O96 C91 1.247 . S
O97 Cd86 2.439 . S
O97 C91 1.208 . S
O98 Cd99 2.223 . S
O98 C106 1.315 . S
Cd99 O98 2.223 . S
Cd99 O102 2.298 1_565 S
Cd99 O103 2.439 1_565 S
Cd99 O109 2.240 . S
Cd100 O101 2.240 . S
Cd100 O108 2.223 . S
Cd100 O110 2.297 . S
Cd100 O111 2.439 . S
O101 Cd100 2.240 . S
O101 C106 1.279 . S
O102 Cd99 2.298 1_545 S
O102 C104 1.247 . S
O103 Cd99 2.439 1_545 S
O103 C104 1.208 . S
C104 O102 1.247 . S
C104 O103 1.208 . S
C105 O110 1.247 . S
C105 O111 1.208 . S
C106 O98 1.315 . S
C106 O101 1.279 . S
C107 O108 1.315 . S
C107 O109 1.279 . S
O108 Cd100 2.223 . S
O108 C107 1.315 . S
O109 Cd99 2.240 . S
O109 C107 1.279 . S
O110 Cd100 2.297 . S
O110 C105 1.247 . S
O111 Cd100 2.439 . S
O111 C105 1.208 . S
O112 Cd113 2.223 . S
O112 C120 1.315 . S
Cd113 O112 2.223 . S
Cd113 O116 2.297 . S
Cd113 O117 2.439 . S
Cd113 O123 2.240 . S
Cd114 O115 2.240 . S
Cd114 O122 2.223 . S
Cd114 O124 2.297 . S
Cd114 O125 2.439 . S
O115 Cd114 2.240 . S
O115 C120 1.279 . S
O116 Cd113 2.297 . S
O116 C118 1.247 . S
O117 Cd113 2.439 . S
O117 C118 1.208 . S
C118 O116 1.247 . S
C118 O117 1.208 . S
C119 O124 1.233 1_655 S
C119 O125 1.211 1_655 S
C120 O112 1.315 . S
C120 O115 1.279 . S
C121 O122 1.315 . S
C121 O123 1.279 . S
O122 Cd114 2.223 . S
O122 C121 1.315 . S
O123 Cd113 2.240 . S
O123 C121 1.279 . S
O124 Cd114 2.297 . S
O124 C119 1.233 1_455 S
O125 Cd114 2.439 . S
O125 C119 1.211 1_455 S
O126 Cd127 2.223 . S
O126 C134 1.315 . S
Cd127 O126 2.223 . S
Cd127 O130 2.297 . S
Cd127 O131 2.439 . S
Cd127 O137 2.240 . S
Cd128 O129 2.240 . S
Cd128 O136 2.223 . S
Cd128 O138 2.300 1_565 S
Cd128 O139 2.439 1_565 S
O129 Cd128 2.240 . S
O129 C134 1.279 . S
O130 Cd127 2.297 . S
O130 C132 1.247 . S
O131 Cd127 2.439 . S
O131 C132 1.208 . S
C132 O130 1.247 . S
C132 O131 1.208 . S
C133 O138 1.243 . S
C133 O139 1.208 . S
C134 O126 1.315 . S
C134 O129 1.279 . S
C135 O136 1.315 . S
C135 O137 1.279 . S
O136 Cd128 2.223 . S
O136 C135 1.315 . S
O137 Cd127 2.240 . S
O137 C135 1.279 . S
O138 Cd128 2.300 1_545 S
O138 C133 1.243 . S
O139 Cd128 2.439 1_545 S
O139 C133 1.208 . S
O140 Cd141 2.223 . S
O140 C148 1.315 . S
Cd141 O140 2.223 . S
Cd141 O144 2.297 . S
Cd141 O145 2.439 . S
Cd141 O151 2.240 . S
Cd142 O143 2.240 . S
Cd142 O150 2.223 . S
Cd142 O152 2.297 . S
Cd142 O153 2.439 . S
O143 Cd142 2.240 . S
O143 C148 1.279 . S
O144 Cd141 2.297 . S
O144 C146 1.247 . S
O145 Cd141 2.439 . S
O145 C146 1.208 . S
C146 O144 1.247 . S
C146 O145 1.208 . S
C147 O152 1.248 1_655 S
C147 O153 1.193 1_655 S
C148 O140 1.315 . S
C148 O143 1.279 . S
C149 O150 1.315 . S
C149 O151 1.279 . S
O150 Cd142 2.223 . S
O150 C149 1.315 . S
O151 Cd141 2.240 . S
O151 C149 1.279 . S
O152 Cd142 2.297 . S
O152 C147 1.248 1_455 S
O153 Cd142 2.439 . S
O153 C147 1.193 1_455 S
O154 Cd155 2.223 . S
O154 C162 1.315 . S
Cd155 O154 2.223 . S
Cd155 O158 2.297 . S
Cd155 O159 2.439 . S
Cd155 O165 2.240 . S
Cd156 O157 2.240 . S
Cd156 O164 2.223 . S
Cd156 O166 2.297 . S
Cd156 O167 2.439 . S
O157 Cd156 2.240 . S
O157 C162 1.279 . S
O158 Cd155 2.297 . S
O158 C160 1.247 . S
O159 Cd155 2.439 . S
O159 C160 1.208 . S
C160 O158 1.247 . S
C160 O159 1.208 . S
C161 O166 1.247 . S
C161 O167 1.208 . S
C162 O154 1.315 . S
C162 O157 1.279 . S
C163 O164 1.315 . S
C163 O165 1.279 . S
O164 Cd156 2.223 . S
O164 C163 1.315 . S
O165 Cd155 2.240 . S
O165 C163 1.279 . S
O166 Cd156 2.297 . S
O166 C161 1.247 . S
O167 Cd156 2.439 . S
O167 C161 1.208 . S
O168 Cd169 2.223 . S
O168 C176 1.315 . S
Cd169 O168 2.223 . S
Cd169 O172 2.297 . S
Cd169 O173 2.439 . S
Cd169 O179 2.240 . S
Cd170 O171 2.240 . S
Cd170 O178 2.223 . S
Cd170 O180 2.297 . S
Cd170 O181 2.439 . S
O171 Cd170 2.240 . S
O171 C176 1.279 . S
O172 Cd169 2.297 . S
O172 C174 1.247 . S
O173 Cd169 2.439 . S
O173 C174 1.208 . S
C174 O172 1.247 . S
C174 O173 1.208 . S
C175 O180 1.211 1_565 S
C175 O181 1.214 1_565 S
C176 O168 1.315 . S
C176 O171 1.279 . S
C177 O178 1.315 . S
C177 O179 1.279 . S
O178 Cd170 2.223 . S
O178 C177 1.315 . S
O179 Cd169 2.240 . S
O179 C177 1.279 . S
O180 Cd170 2.297 . S
O180 C175 1.211 1_545 S
O181 Cd170 2.439 . S
O181 C175 1.214 1_545 S
O182 Cd183 2.223 . S
O182 C190 1.315 . S
Cd183 O182 2.223 . S
Cd183 O186 2.297 . S
Cd183 O187 2.439 . S
Cd183 O193 2.240 . S
Cd184 O185 2.240 . S
Cd184 O192 2.223 . S
Cd184 O194 2.281 1_655 S
Cd184 O195 2.439 1_655 S
O185 Cd184 2.240 . S
O185 C190 1.279 . S
O186 Cd183 2.297 . S
O186 C188 1.247 . S
O187 Cd183 2.439 . S
O187 C188 1.208 . S
C188 O186 1.247 . S
C188 O187 1.208 . S
C189 O194 1.247 . S
C189 O195 1.208 . S
C190 O182 1.315 . S
C190 O185 1.279 . S
C191 O192 1.315 . S
C191 O193 1.279 . S
O192 Cd184 2.223 . S
O192 C191 1.315 . S
O193 Cd183 2.240 . S
O193 C191 1.279 . S
O194 Cd184 2.281 1_455 S
O194 C189 1.247 . S
O195 Cd184 2.439 1_455 S
O195 C189 1.208 . S
O196 Cd197 2.223 . S
O196 C204 1.315 . S
Cd197 O196 2.223 . S
Cd197 O200 2.297 . S
Cd197 O201 2.439 . S
Cd197 O207 2.240 . S
Cd198 O199 2.240 . S
Cd198 O206 2.223 . S
Cd198 O208 2.297 . S
Cd198 O209 2.439 . S
O199 Cd198 2.240 . S
O199 C204 1.279 . S
O200 Cd197 2.297 . S
O200 C202 1.247 . S
O201 Cd197 2.439 . S
O201 C202 1.208 . S
C202 O200 1.247 . S
C202 O201 1.208 . S
C203 O208 1.247 . S
C203 O209 1.208 . S
C204 O196 1.315 . S
C204 O199 1.279 . S
C205 O206 1.315 . S
C205 O207 1.279 . S
O206 Cd198 2.223 . S
O206 C205 1.315 . S
O207 Cd197 2.240 . S
O207 C205 1.279 . S
O208 Cd198 2.297 . S
O208 C203 1.247 . S
O209 Cd198 2.439 . S
O209 C203 1.208 . S
O210 Cd211 2.223 . S
O210 C218 1.315 . S
Cd211 O210 2.223 . S
Cd211 O214 2.297 . S
Cd211 O215 2.439 . S
Cd211 O221 2.240 . S
Cd212 O213 2.240 . S
Cd212 O220 2.223 . S
Cd212 O222 2.297 . S
Cd212 O223 2.439 . S
O213 Cd212 2.240 . S
O213 C218 1.279 . S
O214 Cd211 2.297 . S
O214 C216 1.247 . S
O215 Cd211 2.439 . S
O215 C216 1.208 . S
C216 O214 1.247 . S
C216 O215 1.208 . S
C217 O222 1.247 . S
C217 O223 1.208 . S
C218 O210 1.315 . S
C218 O213 1.279 . S
C219 O220 1.315 . S
C219 O221 1.279 . S
O220 Cd212 2.223 . S
O220 C219 1.315 . S
O221 Cd211 2.240 . S
O221 C219 1.279 . S
O222 Cd212 2.297 . S
O222 C217 1.247 . S
O223 Cd212 2.439 . S
O223 C217 1.208 . S
O224 Cd225 2.223 . S
O224 C232 1.315 . S
Cd225 O224 2.223 . S
Cd225 O228 2.297 . S
Cd225 O229 2.439 . S
Cd225 O235 2.240 . S
Cd226 O227 2.240 . S
Cd226 O234 2.223 . S
Cd226 O236 2.297 . S
Cd226 O237 2.439 . S
O227 Cd226 2.240 . S
O227 C232 1.279 . S
O228 Cd225 2.297 . S
O228 C230 1.250 1_545 S
O229 Cd225 2.439 . S
O229 C230 1.176 1_545 S
C230 O228 1.250 1_565 S
C230 O229 1.176 1_565 S
C231 O236 1.247 . S
C231 O237 1.208 . S
C232 O224 1.315 . S
C232 O227 1.279 . S
C233 O234 1.315 . S
C233 O235 1.279 . S
O234 Cd226 2.223 . S
O234 C233 1.315 . S
O235 Cd225 2.240 . S
O235 C233 1.279 . S
O236 Cd226 2.297 . S
O236 C231 1.247 . S
O237 Cd226 2.439 . S
O237 C231 1.208 . S
O238 Cd239 2.223 . S
O238 C246 1.315 . S
Cd239 O238 2.223 . S
Cd239 O242 2.297 . S
Cd239 O243 2.439 . S
Cd239 O249 2.240 . S
Cd240 O241 2.240 . S
Cd240 O248 2.223 . S
Cd240 O250 2.289 1_655 S
Cd240 O251 2.439 1_655 S
O241 Cd240 2.240 . S
O241 C246 1.279 . S
O242 Cd239 2.297 . S
O242 C244 1.247 . S
O243 Cd239 2.439 . S
O243 C244 1.208 . S
C244 O242 1.247 . S
C244 O243 1.208 . S
C245 O250 1.263 . S
C245 O251 1.208 . S
C246 O238 1.315 . S
C246 O241 1.279 . S
C247 O248 1.315 . S
C247 O249 1.279 . S
O248 Cd240 2.223 . S
O248 C247 1.315 . S
O249 Cd239 2.240 . S
O249 C247 1.279 . S
O250 Cd240 2.289 1_455 S
O250 C245 1.263 . S
O251 Cd240 2.439 1_455 S
O251 C245 1.208 . S
H252 C279 0.929 . S
N253 C278 1.433 . S
N253 C284 1.435 . S
N253 C290 1.423 . S
H254 C280 0.930 . S
H255 C283 0.931 . S
H256 C282 0.929 . S
H257 C285 0.930 . S
H258 C286 0.932 . S
H259 C289 0.929 . S
H260 C288 0.931 . S
H261 C291 0.929 . S
H262 C295 0.932 . S
H263 C292 0.931 . S
H264 C294 0.929 . S
H265 C297 0.929 . S
H266 C298 0.930 . S
H267 C300 0.929 . S
H268 C301 0.931 . S
H269 C303 0.930 . S
H270 C304 0.932 . S
H271 C306 0.931 . S
H272 C307 0.929 . S
H273 C309 0.929 . S
H274 C310 0.931 . S
H275 C312 0.929 . S
N276 C296 1.433 . S
N276 C302 1.435 . S
N276 C308 1.423 . S
H277 C313 0.932 . S
C278 N253 1.433 . S
C278 C279 1.363 . S
C278 C283 1.370 . S
C279 H252 0.929 . S
C279 C278 1.363 . S
C279 C280 1.385 . S
C280 H254 0.930 . S
C280 C279 1.385 . S
C280 C281 1.357 . S
C281 C280 1.357 . S
C281 C282 1.406 . S
C282 H256 0.929 . S
C282 C281 1.406 . S
C282 C283 1.391 . S
C283 H255 0.931 . S
C283 C278 1.370 . S
C283 C282 1.391 . S
C284 N253 1.435 . S
C284 C285 1.358 . S
C284 C289 1.371 . S
C285 H257 0.930 . S
C285 C284 1.358 . S
C285 C286 1.405 . S
C286 H258 0.932 . S
C286 C285 1.405 . S
C286 C287 1.383 . S
C287 C286 1.383 . S
C287 C288 1.393 . S
C288 H260 0.931 . S
C288 C287 1.393 . S
C288 C289 1.382 . S
C289 H259 0.929 . S
C289 C284 1.371 . S
C289 C288 1.382 . S
C290 N253 1.423 . S
C290 C291 1.362 . S
C290 C295 1.388 . S
C291 H261 0.929 . S
C291 C290 1.362 . S
C291 C292 1.376 . S
C292 H263 0.931 . S
C292 C291 1.376 . S
C292 C293 1.396 . S
C293 C292 1.396 . S
C293 C294 1.348 . S
C293 C311 1.472 . S
C294 H264 0.929 . S
C294 C293 1.348 . S
C294 C295 1.443 . S
C295 H262 0.932 . S
C295 C290 1.388 . S
C295 C294 1.443 . S
C296 N276 1.433 . S
C296 C297 1.363 . S
C296 C301 1.370 . S
C297 H265 0.929 . S
C297 C296 1.363 . S
C297 C298 1.385 . S
C298 H266 0.930 . S
C298 C297 1.385 . S
C298 C299 1.357 . S
C299 C298 1.357 . S
C299 C300 1.406 . S
C300 H267 0.929 . S
C300 C299 1.406 . S
C300 C301 1.391 . S
C301 H268 0.931 . S
C301 C296 1.370 . S
C301 C300 1.391 . S
C302 N276 1.435 . S
C302 C303 1.358 . S
C302 C307 1.371 . S
C303 H269 0.930 . S
C303 C302 1.358 . S
C303 C304 1.405 . S
C304 H270 0.932 . S
C304 C303 1.405 . S
C304 C305 1.383 . S
C305 C304 1.383 . S
C305 C306 1.393 . S
C306 H271 0.931 . S
C306 C305 1.393 . S
C306 C307 1.382 . S
C307 H272 0.929 . S
C307 C302 1.371 . S
C307 C306 1.382 . S
C308 N276 1.423 . S
C308 C309 1.362 . S
C308 C313 1.388 . S
C309 H273 0.929 . S
C309 C308 1.362 . S
C309 C310 1.376 . S
C310 H274 0.931 . S
C310 C309 1.376 . S
C310 C311 1.396 . S
C311 C293 1.472 . S
C311 C310 1.396 . S
C311 C312 1.348 . S
C312 H275 0.929 . S
C312 C311 1.348 . S
C312 C313 1.443 . S
C313 H277 0.932 . S
C313 C308 1.388 . S
C313 C312 1.443 . S
H314 C341 0.929 . S
N315 C340 1.433 . S
N315 C346 1.435 . S
N315 C352 1.423 . S
H316 C342 0.930 . S
H317 C345 0.931 . S
H318 C344 0.929 . S
H319 C347 0.930 . S
H320 C348 0.932 . S
H321 C351 0.929 . S
H322 C350 0.931 . S
H323 C353 0.929 . S
H324 C357 0.932 . S
H325 C354 0.931 . S
H326 C356 0.929 . S
H327 C359 0.929 . S
H328 C360 0.930 . S
H329 C362 0.929 . S
H330 C363 0.931 . S
H331 C365 0.930 . S
H332 C366 0.932 . S
H333 C368 0.931 . S
H334 C369 0.929 . S
H335 C371 0.929 . S
H336 C372 0.931 . S
H337 C374 0.929 . S
N338 C358 1.433 . S
N338 C364 1.435 . S
N338 C370 1.423 . S
H339 C375 0.932 . S
C340 N315 1.433 . S
C340 C341 1.363 . S
C340 C345 1.370 . S
C341 H314 0.929 . S
C341 C340 1.363 . S
C341 C342 1.385 . S
C342 H316 0.930 . S
C342 C341 1.385 . S
C342 C343 1.357 . S
C343 C342 1.357 . S
C343 C344 1.406 . S
C344 H318 0.929 . S
C344 C343 1.406 . S
C344 C345 1.391 . S
C345 H317 0.931 . S
C345 C340 1.370 . S
C345 C344 1.391 . S
C346 N315 1.435 . S
C346 C347 1.358 . S
C346 C351 1.371 . S
C347 H319 0.930 . S
C347 C346 1.358 . S
C347 C348 1.405 . S
C348 H320 0.932 . S
C348 C347 1.405 . S
C348 C349 1.383 . S
C349 C348 1.383 . S
C349 C350 1.393 . S
C350 H322 0.931 . S
C350 C349 1.393 . S
C350 C351 1.382 . S
C351 H321 0.929 . S
C351 C346 1.371 . S
C351 C350 1.382 . S
C352 N315 1.423 . S
C352 C353 1.362 . S
C352 C357 1.388 . S
C353 H323 0.929 . S
C353 C352 1.362 . S
C353 C354 1.376 . S
C354 H325 0.931 . S
C354 C353 1.376 . S
C354 C355 1.396 . S
C355 C354 1.396 . S
C355 C356 1.348 . S
C355 C373 1.472 . S
C356 H326 0.929 . S
C356 C355 1.348 . S
C356 C357 1.443 . S
C357 H324 0.932 . S
C357 C352 1.388 . S
C357 C356 1.443 . S
C358 N338 1.433 . S
C358 C359 1.363 . S
C358 C363 1.370 . S
C359 H327 0.929 . S
C359 C358 1.363 . S
C359 C360 1.385 . S
C360 H328 0.930 . S
C360 C359 1.385 . S
C360 C361 1.357 . S
C361 C360 1.357 . S
C361 C362 1.406 . S
C362 H329 0.929 . S
C362 C361 1.406 . S
C362 C363 1.391 . S
C363 H330 0.931 . S
C363 C358 1.370 . S
C363 C362 1.391 . S
C364 N338 1.435 . S
C364 C365 1.358 . S
C364 C369 1.371 . S
C365 H331 0.930 . S
C365 C364 1.358 . S
C365 C366 1.405 . S
C366 H332 0.932 . S
C366 C365 1.405 . S
C366 C367 1.383 . S
C367 C366 1.383 . S
C367 C368 1.393 . S
C368 H333 0.931 . S
C368 C367 1.393 . S
C368 C369 1.382 . S
C369 H334 0.929 . S
C369 C364 1.371 . S
C369 C368 1.382 . S
C370 N338 1.423 . S
C370 C371 1.362 . S
C370 C375 1.388 . S
C371 H335 0.929 . S
C371 C370 1.362 . S
C371 C372 1.376 . S
C372 H336 0.931 . S
C372 C371 1.376 . S
C372 C373 1.396 . S
C373 C355 1.472 . S
C373 C372 1.396 . S
C373 C374 1.348 . S
C374 H337 0.929 . S
C374 C373 1.348 . S
C374 C375 1.443 . S
C375 H339 0.932 . S
C375 C370 1.388 . S
C375 C374 1.443 . S
H376 C403 0.929 . S
N377 C402 1.433 . S
N377 C408 1.435 . S
N377 C414 1.423 . S
H378 C404 0.930 . S
H379 C407 0.931 . S
H380 C406 0.929 . S
H381 C409 0.930 . S
H382 C410 0.932 . S
H383 C413 0.929 . S
H384 C412 0.931 . S
H385 C415 0.929 . S
H386 C419 0.932 . S
H387 C416 0.931 . S
H388 C418 0.929 . S
H389 C421 0.929 . S
H390 C422 0.930 . S
H391 C424 0.929 . S
H392 C425 0.931 . S
H393 C427 0.930 . S
H394 C428 0.932 . S
H395 C430 0.931 . S
H396 C431 0.929 . S
H397 C433 0.929 . S
H398 C434 0.931 . S
H399 C436 0.929 . S
N400 C420 1.433 . S
N400 C426 1.435 . S
N400 C432 1.423 . S
H401 C437 0.932 . S
C402 N377 1.433 . S
C402 C403 1.363 . S
C402 C407 1.370 . S
C403 H376 0.929 . S
C403 C402 1.363 . S
C403 C404 1.385 . S
C404 H378 0.930 . S
C404 C403 1.385 . S
C404 C405 1.357 . S
C405 C404 1.357 . S
C405 C406 1.406 . S
C406 H380 0.929 . S
C406 C405 1.406 . S
C406 C407 1.391 . S
C407 H379 0.931 . S
C407 C402 1.370 . S
C407 C406 1.391 . S
C408 N377 1.435 . S
C408 C409 1.358 . S
C408 C413 1.371 . S
C409 H381 0.930 . S
C409 C408 1.358 . S
C409 C410 1.405 . S
C410 H382 0.932 . S
C410 C409 1.405 . S
C410 C411 1.383 . S
C411 C410 1.383 . S
C411 C412 1.393 . S
C412 H384 0.931 . S
C412 C411 1.393 . S
C412 C413 1.382 . S
C413 H383 0.929 . S
C413 C408 1.371 . S
C413 C412 1.382 . S
C414 N377 1.423 . S
C414 C415 1.362 . S
C414 C419 1.388 . S
C415 H385 0.929 . S
C415 C414 1.362 . S
C415 C416 1.376 . S
C416 H387 0.931 . S
C416 C415 1.376 . S
C416 C417 1.396 . S
C417 C416 1.396 . S
C417 C418 1.348 . S
C417 C435 1.472 . S
C418 H388 0.929 . S
C418 C417 1.348 . S
C418 C419 1.443 . S
C419 H386 0.932 . S
C419 C414 1.388 . S
C419 C418 1.443 . S
C420 N400 1.433 . S
C420 C421 1.363 . S
C420 C425 1.370 . S
C421 H389 0.929 . S
C421 C420 1.363 . S
C421 C422 1.385 . S
C422 H390 0.930 . S
C422 C421 1.385 . S
C422 C423 1.357 . S
C423 C422 1.357 . S
C423 C424 1.406 . S
C424 H391 0.929 . S
C424 C423 1.406 . S
C424 C425 1.391 . S
C425 H392 0.931 . S
C425 C420 1.370 . S
C425 C424 1.391 . S
C426 N400 1.435 . S
C426 C427 1.358 . S
C426 C431 1.371 . S
C427 H393 0.930 . S
C427 C426 1.358 . S
C427 C428 1.405 . S
C428 H394 0.932 . S
C428 C427 1.405 . S
C428 C429 1.383 . S
C429 C428 1.383 . S
C429 C430 1.393 . S
C430 H395 0.931 . S
C430 C429 1.393 . S
C430 C431 1.382 . S
C431 H396 0.929 . S
C431 C426 1.371 . S
C431 C430 1.382 . S
C432 N400 1.423 . S
C432 C433 1.362 . S
C432 C437 1.388 . S
C433 H397 0.929 . S
C433 C432 1.362 . S
C433 C434 1.376 . S
C434 H398 0.931 . S
C434 C433 1.376 . S
C434 C435 1.396 . S
C435 C417 1.472 . S
C435 C434 1.396 . S
C435 C436 1.348 . S
C436 H399 0.929 . S
C436 C435 1.348 . S
C436 C437 1.443 . S
C437 H401 0.932 . S
C437 C432 1.388 . S
C437 C436 1.443 . S
H438 C465 0.929 . S
N439 C464 1.433 . S
N439 C470 1.435 . S
N439 C476 1.423 . S
H440 C466 0.930 . S
H441 C469 0.931 . S
H442 C468 0.929 . S
H443 C471 0.930 . S
H444 C472 0.932 . S
H445 C475 0.929 . S
H446 C474 0.931 . S
H447 C477 0.929 . S
H448 C481 0.932 . S
H449 C478 0.931 . S
H450 C480 0.929 . S
H451 C483 0.929 . S
H452 C484 0.930 . S
H453 C486 0.929 . S
H454 C487 0.931 . S
H455 C489 0.930 . S
H456 C490 0.932 . S
H457 C492 0.931 . S
H458 C493 0.929 . S
H459 C495 0.929 . S
H460 C496 0.931 . S
H461 C498 0.929 . S
N462 C482 1.433 . S
N462 C488 1.435 . S
N462 C494 1.423 . S
H463 C499 0.932 . S
C464 N439 1.433 . S
C464 C465 1.363 . S
C464 C469 1.370 . S
C465 H438 0.929 . S
C465 C464 1.363 . S
C465 C466 1.385 . S
C466 H440 0.930 . S
C466 C465 1.385 . S
C466 C467 1.357 . S
C467 C466 1.357 . S
C467 C468 1.406 . S
C468 H442 0.929 . S
C468 C467 1.406 . S
C468 C469 1.391 . S
C469 H441 0.931 . S
C469 C464 1.370 . S
C469 C468 1.391 . S
C470 N439 1.435 . S
C470 C471 1.358 . S
C470 C475 1.371 . S
C471 H443 0.930 . S
C471 C470 1.358 . S
C471 C472 1.405 . S
C472 H444 0.932 . S
C472 C471 1.405 . S
C472 C473 1.383 . S
C473 C472 1.383 . S
C473 C474 1.393 . S
C474 H446 0.931 . S
C474 C473 1.393 . S
C474 C475 1.382 . S
C475 H445 0.929 . S
C475 C470 1.371 . S
C475 C474 1.382 . S
C476 N439 1.423 . S
C476 C477 1.362 . S
C476 C481 1.388 . S
C477 H447 0.929 . S
C477 C476 1.362 . S
C477 C478 1.376 . S
C478 H449 0.931 . S
C478 C477 1.376 . S
C478 C479 1.396 . S
C479 C478 1.396 . S
C479 C480 1.348 . S
C479 C497 1.472 . S
C480 H450 0.929 . S
C480 C479 1.348 . S
C480 C481 1.443 . S
C481 H448 0.932 . S
C481 C476 1.388 . S
C481 C480 1.443 . S
C482 N462 1.433 . S
C482 C483 1.363 . S
C482 C487 1.370 . S
C483 H451 0.929 . S
C483 C482 1.363 . S
C483 C484 1.385 . S
C484 H452 0.930 . S
C484 C483 1.385 . S
C484 C485 1.357 . S
C485 C484 1.357 . S
C485 C486 1.406 . S
C486 H453 0.929 . S
C486 C485 1.406 . S
C486 C487 1.391 . S
C487 H454 0.931 . S
C487 C482 1.370 . S
C487 C486 1.391 . S
C488 N462 1.435 . S
C488 C489 1.358 . S
C488 C493 1.371 . S
C489 H455 0.930 . S
C489 C488 1.358 . S
C489 C490 1.405 . S
C490 H456 0.932 . S
C490 C489 1.405 . S
C490 C491 1.383 . S
C491 C490 1.383 . S
C491 C492 1.393 . S
C492 H457 0.931 . S
C492 C491 1.393 . S
C492 C493 1.382 . S
C493 H458 0.929 . S
C493 C488 1.371 . S
C493 C492 1.382 . S
C494 N462 1.423 . S
C494 C495 1.362 . S
C494 C499 1.388 . S
C495 H459 0.929 . S
C495 C494 1.362 . S
C495 C496 1.376 . S
C496 H460 0.931 . S
C496 C495 1.376 . S
C496 C497 1.396 . S
C497 C479 1.472 . S
C497 C496 1.396 . S
C497 C498 1.348 . S
C498 H461 0.929 . S
C498 C497 1.348 . S
C498 C499 1.443 . S
C499 H463 0.932 . S
C499 C494 1.388 . S
C499 C498 1.443 . S
H500 C527 0.929 . S
N501 C526 1.433 . S
N501 C532 1.435 . S
N501 C538 1.423 . S
H502 C528 0.930 . S
H503 C531 0.931 . S
H504 C530 0.929 . S
H505 C533 0.930 . S
H506 C534 0.932 . S
H507 C537 0.929 . S
H508 C536 0.931 . S
H509 C539 0.929 . S
H510 C543 0.932 . S
H511 C540 0.931 . S
H512 C542 0.929 . S
H513 C545 0.929 . S
H514 C546 0.930 . S
H515 C548 0.929 . S
H516 C549 0.931 . S
H517 C551 0.930 . S
H518 C552 0.932 . S
H519 C554 0.931 . S
H520 C555 0.929 . S
H521 C557 0.929 . S
H522 C558 0.931 . S
H523 C560 0.929 . S
N524 C544 1.433 . S
N524 C550 1.435 . S
N524 C556 1.423 . S
H525 C561 0.932 . S
C526 N501 1.433 . S
C526 C527 1.363 . S
C526 C531 1.370 . S
C527 H500 0.929 . S
C527 C526 1.363 . S
C527 C528 1.385 . S
C528 H502 0.930 . S
C528 C527 1.385 . S
C528 C529 1.357 . S
C529 C528 1.357 . S
C529 C530 1.406 . S
C530 H504 0.929 . S
C530 C529 1.406 . S
C530 C531 1.391 . S
C531 H503 0.931 . S
C531 C526 1.370 . S
C531 C530 1.391 . S
C532 N501 1.435 . S
C532 C533 1.358 . S
C532 C537 1.371 . S
C533 H505 0.930 . S
C533 C532 1.358 . S
C533 C534 1.405 . S
C534 H506 0.932 . S
C534 C533 1.405 . S
C534 C535 1.383 . S
C535 C534 1.383 . S
C535 C536 1.393 . S
C536 H508 0.931 . S
C536 C535 1.393 . S
C536 C537 1.382 . S
C537 H507 0.929 . S
C537 C532 1.371 . S
C537 C536 1.382 . S
C538 N501 1.423 . S
C538 C539 1.362 . S
C538 C543 1.388 . S
C539 H509 0.929 . S
C539 C538 1.362 . S
C539 C540 1.376 . S
C540 H511 0.931 . S
C540 C539 1.376 . S
C540 C541 1.396 . S
C541 C540 1.396 . S
C541 C542 1.348 . S
C541 C559 1.472 . S
C542 H512 0.929 . S
C542 C541 1.348 . S
C542 C543 1.443 . S
C543 H510 0.932 . S
C543 C538 1.388 . S
C543 C542 1.443 . S
C544 N524 1.433 . S
C544 C545 1.363 . S
C544 C549 1.370 . S
C545 H513 0.929 . S
C545 C544 1.363 . S
C545 C546 1.385 . S
C546 H514 0.930 . S
C546 C545 1.385 . S
C546 C547 1.357 . S
C547 C546 1.357 . S
C547 C548 1.406 . S
C548 H515 0.929 . S
C548 C547 1.406 . S
C548 C549 1.391 . S
C549 H516 0.931 . S
C549 C544 1.370 . S
C549 C548 1.391 . S
C550 N524 1.435 . S
C550 C551 1.358 . S
C550 C555 1.371 . S
C551 H517 0.930 . S
C551 C550 1.358 . S
C551 C552 1.405 . S
C552 H518 0.932 . S
C552 C551 1.405 . S
C552 C553 1.383 . S
C553 C552 1.383 . S
C553 C554 1.393 . S
C554 H519 0.931 . S
C554 C553 1.393 . S
C554 C555 1.382 . S
C555 H520 0.929 . S
C555 C550 1.371 . S
C555 C554 1.382 . S
C556 N524 1.423 . S
C556 C557 1.362 . S
C556 C561 1.388 . S
C557 H521 0.929 . S
C557 C556 1.362 . S
C557 C558 1.376 . S
C558 H522 0.931 . S
C558 C557 1.376 . S
C558 C559 1.396 . S
C559 C541 1.472 . S
C559 C558 1.396 . S
C559 C560 1.348 . S
C560 H523 0.929 . S
C560 C559 1.348 . S
C560 C561 1.443 . S
C561 H525 0.932 . S
C561 C556 1.388 . S
C561 C560 1.443 . S
H562 C589 0.929 . S
N563 C588 1.433 . S
N563 C594 1.435 . S
N563 C600 1.423 . S
H564 C590 0.930 . S
H565 C593 0.931 . S
H566 C592 0.929 . S
H567 C595 0.930 . S
H568 C596 0.932 . S
H569 C599 0.929 . S
H570 C598 0.931 . S
H571 C601 0.929 . S
H572 C605 0.932 . S
H573 C602 0.931 . S
H574 C604 0.929 . S
H575 C607 0.929 . S
H576 C608 0.930 . S
H577 C610 0.929 . S
H578 C611 0.931 . S
H579 C613 0.930 . S
H580 C614 0.932 . S
H581 C616 0.931 . S
H582 C617 0.929 . S
H583 C619 0.929 . S
H584 C620 0.931 . S
H585 C622 0.929 . S
N586 C606 1.433 . S
N586 C612 1.435 . S
N586 C618 1.423 . S
H587 C623 0.932 . S
C588 N563 1.433 . S
C588 C589 1.363 . S
C588 C593 1.370 . S
C589 H562 0.929 . S
C589 C588 1.363 . S
C589 C590 1.385 . S
C590 H564 0.930 . S
C590 C589 1.385 . S
C590 C591 1.357 . S
C591 C590 1.357 . S
C591 C592 1.406 . S
C592 H566 0.929 . S
C592 C591 1.406 . S
C592 C593 1.391 . S
C593 H565 0.931 . S
C593 C588 1.370 . S
C593 C592 1.391 . S
C594 N563 1.435 . S
C594 C595 1.358 . S
C594 C599 1.371 . S
C595 H567 0.930 . S
C595 C594 1.358 . S
C595 C596 1.405 . S
C596 H568 0.932 . S
C596 C595 1.405 . S
C596 C597 1.383 . S
C597 C596 1.383 . S
C597 C598 1.393 . S
C598 H570 0.931 . S
C598 C597 1.393 . S
C598 C599 1.382 . S
C599 H569 0.929 . S
C599 C594 1.371 . S
C599 C598 1.382 . S
C600 N563 1.423 . S
C600 C601 1.362 . S
C600 C605 1.388 . S
C601 H571 0.929 . S
C601 C600 1.362 . S
C601 C602 1.376 . S
C602 H573 0.931 . S
C602 C601 1.376 . S
C602 C603 1.396 . S
C603 C602 1.396 . S
C603 C604 1.348 . S
C603 C621 1.472 . S
C604 H574 0.929 . S
C604 C603 1.348 . S
C604 C605 1.443 . S
C605 H572 0.932 . S
C605 C600 1.388 . S
C605 C604 1.443 . S
C606 N586 1.433 . S
C606 C607 1.363 . S
C606 C611 1.370 . S
C607 H575 0.929 . S
C607 C606 1.363 . S
C607 C608 1.385 . S
C608 H576 0.930 . S
C608 C607 1.385 . S
C608 C609 1.357 . S
C609 C608 1.357 . S
C609 C610 1.406 . S
C610 H577 0.929 . S
C610 C609 1.406 . S
C610 C611 1.391 . S
C611 H578 0.931 . S
C611 C606 1.370 . S
C611 C610 1.391 . S
C612 N586 1.435 . S
C612 C613 1.358 . S
C612 C617 1.371 . S
C613 H579 0.930 . S
C613 C612 1.358 . S
C613 C614 1.405 . S
C614 H580 0.932 . S
C614 C613 1.405 . S
C614 C615 1.383 . S
C615 C614 1.383 . S
C615 C616 1.393 . S
C616 H581 0.931 . S
C616 C615 1.393 . S
C616 C617 1.382 . S
C617 H582 0.929 . S
C617 C612 1.371 . S
C617 C616 1.382 . S
C618 N586 1.423 . S
C618 C619 1.362 . S
C618 C623 1.388 . S
C619 H583 0.929 . S
C619 C618 1.362 . S
C619 C620 1.376 . S
C620 H584 0.931 . S
C620 C619 1.376 . S
C620 C621 1.396 . S
C621 C603 1.472 . S
C621 C620 1.396 . S
C621 C622 1.348 . S
C622 H585 0.929 . S
C622 C621 1.348 . S
C622 C623 1.443 . S
C623 H587 0.932 . S
C623 C618 1.388 . S
C623 C622 1.443 . S
H624 C651 0.929 . S
N625 C650 1.433 . S
N625 C656 1.435 . S
N625 C662 1.423 . S
H626 C652 0.930 . S
H627 C655 0.931 . S
H628 C654 0.929 . S
H629 C657 0.930 . S
H630 C658 0.932 . S
H631 C661 0.929 . S
H632 C660 0.931 . S
H633 C663 0.929 . S
H634 C667 0.932 . S
H635 C664 0.931 . S
H636 C666 0.929 . S
H637 C669 0.929 . S
H638 C670 0.930 . S
H639 C672 0.929 . S
H640 C673 0.931 . S
H641 C675 0.930 . S
H642 C676 0.932 . S
H643 C678 0.931 . S
H644 C679 0.929 . S
H645 C681 0.929 . S
H646 C682 0.931 . S
H647 C684 0.929 . S
N648 C668 1.433 . S
N648 C674 1.435 . S
N648 C680 1.423 . S
H649 C685 0.932 . S
C650 N625 1.433 . S
C650 C651 1.363 . S
C650 C655 1.370 . S
C651 H624 0.929 . S
C651 C650 1.363 . S
C651 C652 1.385 . S
C652 H626 0.930 . S
C652 C651 1.385 . S
C652 C653 1.357 . S
C653 C652 1.357 . S
C653 C654 1.406 . S
C654 H628 0.929 . S
C654 C653 1.406 . S
C654 C655 1.391 . S
C655 H627 0.931 . S
C655 C650 1.370 . S
C655 C654 1.391 . S
C656 N625 1.435 . S
C656 C657 1.358 . S
C656 C661 1.371 . S
C657 H629 0.930 . S
C657 C656 1.358 . S
C657 C658 1.405 . S
C658 H630 0.932 . S
C658 C657 1.405 . S
C658 C659 1.383 . S
C659 C658 1.383 . S
C659 C660 1.393 . S
C660 H632 0.931 . S
C660 C659 1.393 . S
C660 C661 1.382 . S
C661 H631 0.929 . S
C661 C656 1.371 . S
C661 C660 1.382 . S
C662 N625 1.423 . S
C662 C663 1.362 . S
C662 C667 1.388 . S
C663 H633 0.929 . S
C663 C662 1.362 . S
C663 C664 1.376 . S
C664 H635 0.931 . S
C664 C663 1.376 . S
C664 C665 1.396 . S
C665 C664 1.396 . S
C665 C666 1.348 . S
C665 C683 1.472 . S
C666 H636 0.929 . S
C666 C665 1.348 . S
C666 C667 1.443 . S
C667 H634 0.932 . S
C667 C662 1.388 . S
C667 C666 1.443 . S
C668 N648 1.433 . S
C668 C669 1.363 . S
C668 C673 1.370 . S
C669 H637 0.929 . S
C669 C668 1.363 . S
C669 C670 1.385 . S
C670 H638 0.930 . S
C670 C669 1.385 . S
C670 C671 1.357 . S
C671 C670 1.357 . S
C671 C672 1.406 . S
C672 H639 0.929 . S
C672 C671 1.406 . S
C672 C673 1.391 . S
C673 H640 0.931 . S
C673 C668 1.370 . S
C673 C672 1.391 . S
C674 N648 1.435 . S
C674 C675 1.358 . S
C674 C679 1.371 . S
C675 H641 0.930 . S
C675 C674 1.358 . S
C675 C676 1.405 . S
C676 H642 0.932 . S
C676 C675 1.405 . S
C676 C677 1.383 . S
C677 C676 1.383 . S
C677 C678 1.393 . S
C678 H643 0.931 . S
C678 C677 1.393 . S
C678 C679 1.382 . S
C679 H644 0.929 . S
C679 C674 1.371 . S
C679 C678 1.382 . S
C680 N648 1.423 . S
C680 C681 1.362 . S
C680 C685 1.388 . S
C681 H645 0.929 . S
C681 C680 1.362 . S
C681 C682 1.376 . S
C682 H646 0.931 . S
C682 C681 1.376 . S
C682 C683 1.396 . S
C683 C665 1.472 . S
C683 C682 1.396 . S
C683 C684 1.348 . S
C684 H647 0.929 . S
C684 C683 1.348 . S
C684 C685 1.443 . S
C685 H649 0.932 . S
C685 C680 1.388 . S
C685 C684 1.443 . S
H686 C713 0.929 . S
N687 C712 1.433 . S
N687 C718 1.435 . S
N687 C724 1.423 . S
H688 C714 0.930 . S
H689 C717 0.931 . S
H690 C716 0.929 . S
H691 C719 0.930 . S
H692 C720 0.932 . S
H693 C723 0.929 . S
H694 C722 0.931 . S
H695 C725 0.929 . S
H696 C729 0.932 . S
H697 C726 0.931 . S
H698 C728 0.929 . S
H699 C731 0.929 . S
H700 C732 0.930 . S
H701 C734 0.929 . S
H702 C735 0.931 . S
H703 C737 0.930 . S
H704 C738 0.932 . S
H705 C740 0.931 . S
H706 C741 0.929 . S
H707 C743 0.929 . S
H708 C744 0.931 . S
H709 C746 0.929 . S
N710 C730 1.433 . S
N710 C736 1.435 . S
N710 C742 1.423 . S
H711 C747 0.932 . S
C712 N687 1.433 . S
C712 C713 1.363 . S
C712 C717 1.370 . S
C713 H686 0.929 . S
C713 C712 1.363 . S
C713 C714 1.385 . S
C714 H688 0.930 . S
C714 C713 1.385 . S
C714 C715 1.357 . S
C715 C714 1.357 . S
C715 C716 1.406 . S
C716 H690 0.929 . S
C716 C715 1.406 . S
C716 C717 1.391 . S
C717 H689 0.931 . S
C717 C712 1.370 . S
C717 C716 1.391 . S
C718 N687 1.435 . S
C718 C719 1.358 . S
C718 C723 1.371 . S
C719 H691 0.930 . S
C719 C718 1.358 . S
C719 C720 1.405 . S
C720 H692 0.932 . S
C720 C719 1.405 . S
C720 C721 1.383 . S
C721 C720 1.383 . S
C721 C722 1.393 . S
C722 H694 0.931 . S
C722 C721 1.393 . S
C722 C723 1.382 . S
C723 H693 0.929 . S
C723 C718 1.371 . S
C723 C722 1.382 . S
C724 N687 1.423 . S
C724 C725 1.362 . S
C724 C729 1.388 . S
C725 H695 0.929 . S
C725 C724 1.362 . S
C725 C726 1.376 . S
C726 H697 0.931 . S
C726 C725 1.376 . S
C726 C727 1.396 . S
C727 C726 1.396 . S
C727 C728 1.348 . S
C727 C745 1.472 . S
C728 H698 0.929 . S
C728 C727 1.348 . S
C728 C729 1.443 . S
C729 H696 0.932 . S
C729 C724 1.388 . S
C729 C728 1.443 . S
C730 N710 1.433 . S
C730 C731 1.363 . S
C730 C735 1.370 . S
C731 H699 0.929 . S
C731 C730 1.363 . S
C731 C732 1.385 . S
C732 H700 0.930 . S
C732 C731 1.385 . S
C732 C733 1.357 . S
C733 C732 1.357 . S
C733 C734 1.406 . S
C734 H701 0.929 . S
C734 C733 1.406 . S
C734 C735 1.391 . S
C735 H702 0.931 . S
C735 C730 1.370 . S
C735 C734 1.391 . S
C736 N710 1.435 . S
C736 C737 1.358 . S
C736 C741 1.371 . S
C737 H703 0.930 . S
C737 C736 1.358 . S
C737 C738 1.405 . S
C738 H704 0.932 . S
C738 C737 1.405 . S
C738 C739 1.383 . S
C739 C738 1.383 . S
C739 C740 1.393 . S
C740 H705 0.931 . S
C740 C739 1.393 . S
C740 C741 1.382 . S
C741 H706 0.929 . S
C741 C736 1.371 . S
C741 C740 1.382 . S
C742 N710 1.423 . S
C742 C743 1.362 . S
C742 C747 1.388 . S
C743 H707 0.929 . S
C743 C742 1.362 . S
C743 C744 1.376 . S
C744 H708 0.931 . S
C744 C743 1.376 . S
C744 C745 1.396 . S
C745 C727 1.472 . S
C745 C744 1.396 . S
C745 C746 1.348 . S
C746 H709 0.929 . S
C746 C745 1.348 . S
C746 C747 1.443 . S
C747 H711 0.932 . S
C747 C742 1.388 . S
C747 C746 1.443 . S
H748 C775 0.929 . S
N749 C774 1.433 . S
N749 C780 1.435 . S
N749 C786 1.423 . S
H750 C776 0.930 . S
H751 C779 0.931 . S
H752 C778 0.929 . S
H753 C781 0.930 . S
H754 C782 0.932 . S
H755 C785 0.929 . S
H756 C784 0.931 . S
H757 C787 0.929 . S
H758 C791 0.932 . S
H759 C788 0.931 . S
H760 C790 0.929 . S
H761 C793 0.929 . S
H762 C794 0.930 . S
H763 C796 0.929 . S
H764 C797 0.931 . S
H765 C799 0.930 . S
H766 C800 0.932 . S
H767 C802 0.931 . S
H768 C803 0.929 . S
H769 C805 0.929 . S
H770 C806 0.931 . S
H771 C808 0.929 . S
N772 C792 1.433 . S
N772 C798 1.435 . S
N772 C804 1.423 . S
H773 C809 0.932 . S
C774 N749 1.433 . S
C774 C775 1.363 . S
C774 C779 1.370 . S
C775 H748 0.929 . S
C775 C774 1.363 . S
C775 C776 1.385 . S
C776 H750 0.930 . S
C776 C775 1.385 . S
C776 C777 1.357 . S
C777 C776 1.357 . S
C777 C778 1.406 . S
C778 H752 0.929 . S
C778 C777 1.406 . S
C778 C779 1.391 . S
C779 H751 0.931 . S
C779 C774 1.370 . S
C779 C778 1.391 . S
C780 N749 1.435 . S
C780 C781 1.358 . S
C780 C785 1.371 . S
C781 H753 0.930 . S
C781 C780 1.358 . S
C781 C782 1.405 . S
C782 H754 0.932 . S
C782 C781 1.405 . S
C782 C783 1.383 . S
C783 C782 1.383 . S
C783 C784 1.393 . S
C784 H756 0.931 . S
C784 C783 1.393 . S
C784 C785 1.382 . S
C785 H755 0.929 . S
C785 C780 1.371 . S
C785 C784 1.382 . S
C786 N749 1.423 . S
C786 C787 1.362 . S
C786 C791 1.388 . S
C787 H757 0.929 . S
C787 C786 1.362 . S
C787 C788 1.376 . S
C788 H759 0.931 . S
C788 C787 1.376 . S
C788 C789 1.396 . S
C789 C788 1.396 . S
C789 C790 1.348 . S
C789 C807 1.472 . S
C790 H760 0.929 . S
C790 C789 1.348 . S
C790 C791 1.443 . S
C791 H758 0.932 . S
C791 C786 1.388 . S
C791 C790 1.443 . S
C792 N772 1.433 . S
C792 C793 1.363 . S
C792 C797 1.370 . S
C793 H761 0.929 . S
C793 C792 1.363 . S
C793 C794 1.385 . S
C794 H762 0.930 . S
C794 C793 1.385 . S
C794 C795 1.357 . S
C795 C794 1.357 . S
C795 C796 1.406 . S
C796 H763 0.929 . S
C796 C795 1.406 . S
C796 C797 1.391 . S
C797 H764 0.931 . S
C797 C792 1.370 . S
C797 C796 1.391 . S
C798 N772 1.435 . S
C798 C799 1.358 . S
C798 C803 1.371 . S
C799 H765 0.930 . S
C799 C798 1.358 . S
C799 C800 1.405 . S
C800 H766 0.932 . S
C800 C799 1.405 . S
C800 C801 1.383 . S
C801 C800 1.383 . S
C801 C802 1.393 . S
C802 H767 0.931 . S
C802 C801 1.393 . S
C802 C803 1.382 . S
C803 H768 0.929 . S
C803 C798 1.371 . S
C803 C802 1.382 . S
C804 N772 1.423 . S
C804 C805 1.362 . S
C804 C809 1.388 . S
C805 H769 0.929 . S
C805 C804 1.362 . S
C805 C806 1.376 . S
C806 H770 0.931 . S
C806 C805 1.376 . S
C806 C807 1.396 . S
C807 C789 1.472 . S
C807 C806 1.396 . S
C807 C808 1.348 . S
C808 H771 0.929 . S
C808 C807 1.348 . S
C808 C809 1.443 . S
C809 H773 0.932 . S
C809 C804 1.388 . S
C809 C808 1.443 . S
H810 C837 0.929 . S
N811 C836 1.433 . S
N811 C842 1.435 . S
N811 C848 1.423 . S
H812 C838 0.930 . S
H813 C841 0.931 1_655 S
H814 C840 0.929 . S
H815 C843 0.930 1_655 S
H816 C844 0.932 1_655 S
H817 C847 0.929 . S
H818 C846 0.931 . S
H819 C849 0.929 . S
H820 C853 0.932 . S
H821 C850 0.931 . S
H822 C852 0.929 . S
H823 C855 0.929 . S
H824 C856 0.930 . S
H825 C858 0.929 . S
H826 C859 0.931 1_655 S
H827 C861 0.930 1_655 S
H828 C862 0.932 1_655 S
H829 C864 0.931 . S
H830 C865 0.929 . S
H831 C867 0.929 . S
H832 C868 0.931 . S
H833 C870 0.929 . S
N834 C854 1.433 . S
N834 C860 1.435 . S
N834 C866 1.423 . S
H835 C871 0.932 . S
C836 N811 1.433 . S
C836 C837 1.363 . S
C836 C841 1.370 . S
C837 H810 0.929 . S
C837 C836 1.363 . S
C837 C838 1.385 . S
C838 H812 0.930 . S
C838 C837 1.385 . S
C838 C839 1.357 . S
C839 C838 1.357 . S
C839 C840 1.406 1_455 S
C840 H814 0.929 . S
C840 C839 1.406 1_655 S
C840 C841 1.391 1_655 S
C841 H813 0.931 1_455 S
C841 C836 1.370 . S
C841 C840 1.391 1_455 S
C842 N811 1.435 . S
C842 C843 1.358 . S
C842 C847 1.371 . S
C843 H815 0.930 1_455 S
C843 C842 1.358 . S
C843 C844 1.405 . S
C844 H816 0.932 1_455 S
C844 C843 1.405 . S
C844 C845 1.383 . S
C845 C844 1.383 . S
C845 C846 1.393 . S
C846 H818 0.931 . S
C846 C845 1.393 . S
C846 C847 1.382 . S
C847 H817 0.929 . S
C847 C842 1.371 . S
C847 C846 1.382 . S
C848 N811 1.423 . S
C848 C849 1.362 . S
C848 C853 1.388 . S
C849 H819 0.929 . S
C849 C848 1.362 . S
C849 C850 1.376 . S
C850 H821 0.931 . S
C850 C849 1.376 . S
C850 C851 1.396 . S
C851 C850 1.396 . S
C851 C852 1.348 . S
C851 C869 1.472 . S
C852 H822 0.929 . S
C852 C851 1.348 . S
C852 C853 1.443 . S
C853 H820 0.932 . S
C853 C848 1.388 . S
C853 C852 1.443 . S
C854 N834 1.433 . S
C854 C855 1.363 . S
C854 C859 1.370 . S
C855 H823 0.929 . S
C855 C854 1.363 . S
C855 C856 1.385 . S
C856 H824 0.930 . S
C856 C855 1.385 . S
C856 C857 1.357 . S
C857 C856 1.357 . S
C857 C858 1.406 1_455 S
C858 H825 0.929 . S
C858 C857 1.406 1_655 S
C858 C859 1.391 1_655 S
C859 H826 0.931 1_455 S
C859 C854 1.370 . S
C859 C858 1.391 1_455 S
C860 N834 1.435 . S
C860 C861 1.358 . S
C860 C865 1.371 . S
C861 H827 0.930 1_455 S
C861 C860 1.358 . S
C861 C862 1.405 . S
C862 H828 0.932 1_455 S
C862 C861 1.405 . S
C862 C863 1.383 . S
C863 C862 1.383 . S
C863 C864 1.393 . S
C864 H829 0.931 . S
C864 C863 1.393 . S
C864 C865 1.382 . S
C865 H830 0.929 . S
C865 C860 1.371 . S
C865 C864 1.382 . S
C866 N834 1.423 . S
C866 C867 1.362 . S
C866 C871 1.388 . S
C867 H831 0.929 . S
C867 C866 1.362 . S
C867 C868 1.376 . S
C868 H832 0.931 . S
C868 C867 1.376 . S
C868 C869 1.396 . S
C869 C851 1.472 . S
C869 C868 1.396 . S
C869 C870 1.348 . S
C870 H833 0.929 . S
C870 C869 1.348 . S
C870 C871 1.443 . S
C871 H835 0.932 . S
C871 C866 1.388 . S
C871 C870 1.443 . S
H872 C899 0.929 . S
N873 C898 1.433 . S
N873 C904 1.435 . S
N873 C910 1.423 . S
H874 C900 0.930 . S
H875 C903 0.931 . S
H876 C902 0.929 . S
H877 C905 0.930 . S
H878 C906 0.932 . S
H879 C909 0.929 . S
H880 C908 0.931 . S
H881 C911 0.929 . S
H882 C915 0.932 . S
H883 C912 0.931 . S
H884 C914 0.929 . S
H885 C917 0.929 . S
H886 C918 0.930 . S
H887 C920 0.929 . S
H888 C921 0.931 . S
H889 C923 0.930 . S
H890 C924 0.932 . S
H891 C926 0.931 . S
H892 C927 0.929 . S
H893 C929 0.929 . S
H894 C930 0.931 . S
H895 C932 0.929 . S
N896 C916 1.433 . S
N896 C922 1.435 . S
N896 C928 1.423 . S
H897 C933 0.932 . S
C898 N873 1.433 . S
C898 C899 1.363 . S
C898 C903 1.370 . S
C899 H872 0.929 . S
C899 C898 1.363 . S
C899 C900 1.385 . S
C900 H874 0.930 . S
C900 C899 1.385 . S
C900 C901 1.357 . S
C901 C900 1.357 . S
C901 C902 1.406 . S
C902 H876 0.929 . S
C902 C901 1.406 . S
C902 C903 1.391 . S
C903 H875 0.931 . S
C903 C898 1.370 . S
C903 C902 1.391 . S
C904 N873 1.435 . S
C904 C905 1.358 . S
C904 C909 1.371 . S
C905 H877 0.930 . S
C905 C904 1.358 . S
C905 C906 1.405 . S
C906 H878 0.932 . S
C906 C905 1.405 . S
C906 C907 1.383 . S
C907 C906 1.383 . S
C907 C908 1.393 . S
C908 H880 0.931 . S
C908 C907 1.393 . S
C908 C909 1.382 . S
C909 H879 0.929 . S
C909 C904 1.371 . S
C909 C908 1.382 . S
C910 N873 1.423 . S
C910 C911 1.362 . S
C910 C915 1.388 . S
C911 H881 0.929 . S
C911 C910 1.362 . S
C911 C912 1.376 . S
C912 H883 0.931 . S
C912 C911 1.376 . S
C912 C913 1.396 . S
C913 C912 1.396 . S
C913 C914 1.348 . S
C913 C931 1.472 . S
C914 H884 0.929 . S
C914 C913 1.348 . S
C914 C915 1.443 . S
C915 H882 0.932 . S
C915 C910 1.388 . S
C915 C914 1.443 . S
C916 N896 1.433 . S
C916 C917 1.363 . S
C916 C921 1.370 . S
C917 H885 0.929 . S
C917 C916 1.363 . S
C917 C918 1.385 . S
C918 H886 0.930 . S
C918 C917 1.385 . S
C918 C919 1.357 . S
C919 C918 1.357 . S
C919 C920 1.406 . S
C920 H887 0.929 . S
C920 C919 1.406 . S
C920 C921 1.391 . S
C921 H888 0.931 . S
C921 C916 1.370 . S
C921 C920 1.391 . S
C922 N896 1.435 . S
C922 C923 1.358 . S
C922 C927 1.371 . S
C923 H889 0.930 . S
C923 C922 1.358 . S
C923 C924 1.405 . S
C924 H890 0.932 . S
C924 C923 1.405 . S
C924 C925 1.383 . S
C925 C924 1.383 . S
C925 C926 1.393 . S
C926 H891 0.931 . S
C926 C925 1.393 . S
C926 C927 1.382 . S
C927 H892 0.929 . S
C927 C922 1.371 . S
C927 C926 1.382 . S
C928 N896 1.423 . S
C928 C929 1.362 . S
C928 C933 1.388 . S
C929 H893 0.929 . S
C929 C928 1.362 . S
C929 C930 1.376 . S
C930 H894 0.931 . S
C930 C929 1.376 . S
C930 C931 1.396 . S
C931 C913 1.472 . S
C931 C930 1.396 . S
C931 C932 1.348 . S
C932 H895 0.929 . S
C932 C931 1.348 . S
C932 C933 1.443 . S
C933 H897 0.932 . S
C933 C928 1.388 . S
C933 C932 1.443 . S
H934 C961 0.929 . S
N935 C960 1.433 . S
N935 C966 1.435 . S
N935 C972 1.423 . S
H936 C962 0.930 . S
H937 C965 0.931 . S
H938 C964 0.929 . S
H939 C967 0.930 . S
H940 C968 0.932 . S
H941 C971 0.929 . S
H942 C970 0.931 . S
H943 C973 0.929 . S
H944 C977 0.932 1_545 S
H945 C974 0.931 . S
H946 C976 0.958 . S
H947 C979 0.929 . S
H948 C980 0.930 . S
H949 C982 0.929 . S
H950 C983 0.931 . S
H951 C985 0.930 . S
H952 C986 0.932 . S
H953 C988 0.931 . S
H954 C989 0.929 . S
H955 C991 0.929 . S
H956 C992 0.931 . S
H957 C994 0.935 . S
N958 C978 1.433 . S
N958 C984 1.435 . S
N958 C990 1.423 . S
H959 C995 0.932 1_545 S
C960 N935 1.433 . S
C960 C961 1.363 . S
C960 C965 1.370 1_565 S
C961 H934 0.929 . S
C961 C960 1.363 . S
C961 C962 1.385 . S
C962 H936 0.930 . S
C962 C961 1.385 . S
C962 C963 1.357 1_565 S
C963 C962 1.357 1_545 S
C963 C964 1.406 . S
C964 H938 0.929 . S
C964 C963 1.406 . S
C964 C965 1.391 . S
C965 H937 0.931 . S
C965 C960 1.370 1_545 S
C965 C964 1.391 . S
C966 N935 1.435 . S
C966 C967 1.358 1_565 S
C966 C971 1.371 . S
C967 H939 0.930 . S
C967 C966 1.358 1_545 S
C967 C968 1.405 . S
C968 H940 0.932 . S
C968 C967 1.405 . S
C968 C969 1.383 1_545 S
C969 C968 1.383 1_565 S
C969 C970 1.393 . S
C970 H942 0.931 . S
C970 C969 1.393 . S
C970 C971 1.382 . S
C971 H941 0.929 . S
C971 C966 1.371 . S
C971 C970 1.382 . S
C972 N935 1.423 . S
C972 C973 1.362 . S
C972 C977 1.388 . S
C973 H943 0.929 . S
C973 C972 1.362 . S
C973 C974 1.376 . S
C974 H945 0.931 . S
C974 C973 1.376 . S
C974 C975 1.396 . S
C975 C974 1.396 . S
C975 C976 1.348 . S
C975 C993 1.472 . S
C976 H946 0.958 . S
C976 C975 1.348 . S
C976 C977 1.443 . S
C977 H944 0.932 1_565 S
C977 C972 1.388 . S
C977 C976 1.443 . S
C978 N958 1.433 . S
C978 C979 1.363 . S
C978 C983 1.370 1_565 S
C979 H947 0.929 . S
C979 C978 1.363 . S
C979 C980 1.385 . S
C980 H948 0.930 . S
C980 C979 1.385 . S
C980 C981 1.357 1_565 S
C981 C980 1.357 1_545 S
C981 C982 1.406 . S
C982 H949 0.929 . S
C982 C981 1.406 . S
C982 C983 1.391 . S
C983 H950 0.931 . S
C983 C978 1.370 1_545 S
C983 C982 1.391 . S
C984 N958 1.435 . S
C984 C985 1.358 1_565 S
C984 C989 1.371 . S
C985 H951 0.930 . S
C985 C984 1.358 1_545 S
C985 C986 1.405 . S
C986 H952 0.932 . S
C986 C985 1.405 . S
C986 C987 1.383 1_545 S
C987 C986 1.383 1_565 S
C987 C988 1.393 . S
C988 H953 0.931 . S
C988 C987 1.393 . S
C988 C989 1.382 . S
C989 H954 0.929 . S
C989 C984 1.371 . S
C989 C988 1.382 . S
C990 N958 1.423 . S
C990 C991 1.362 . S
C990 C995 1.388 . S
C991 H955 0.929 . S
C991 C990 1.362 . S
C991 C992 1.376 . S
C992 H956 0.931 . S
C992 C991 1.376 . S
C992 C993 1.396 . S
C993 C975 1.472 . S
C993 C992 1.396 . S
C993 C994 1.348 . S
C994 H957 0.935 . S
C994 C993 1.348 . S
C994 C995 1.443 . S
C995 H959 0.932 1_565 S
C995 C990 1.388 . S
C995 C994 1.443 . S
H996 C1023 0.929 . S
N997 C1022 1.430 1_565 S
N997 C1028 1.425 1_565 S
N997 C1034 1.436 . S
H998 C1024 0.930 . S
H999 C1027 0.931 . S
H1000 C1026 0.929 . S
H1001 C1029 0.930 . S
H1002 C1030 0.932 . S
H1003 C1033 0.929 . S
H1004 C1032 0.987 . S
H1005 C1035 0.929 . S
H1006 C1039 0.932 . S
H1007 C1036 0.931 . S
H1008 C1038 0.929 . S
H1009 C1041 0.929 . S
H1010 C1042 0.930 . S
H1011 C1044 0.929 . S
H1012 C1045 0.931 . S
H1013 C1047 0.930 . S
H1014 C1048 0.932 . S
H1015 C1050 0.977 . S
H1016 C1051 0.929 . S
H1017 C1053 0.929 . S
H1018 C1054 0.931 . S
H1019 C1056 0.929 . S
N1020 C1040 1.436 1_565 S
N1020 C1046 1.438 1_565 S
N1020 C1052 1.415 . S
H1021 C1057 0.932 . S
C1022 N997 1.430 1_545 S
C1022 C1023 1.363 1_545 S
C1022 C1027 1.369 . S
C1023 H996 0.929 . S
C1023 C1022 1.363 1_565 S
C1023 C1024 1.385 . S
C1024 H998 0.930 . S
C1024 C1023 1.385 . S
C1024 C1025 1.347 1_565 S
C1025 C1024 1.347 1_545 S
C1025 C1026 1.405 . S
C1026 H1000 0.929 . S
C1026 C1025 1.405 . S
C1026 C1027 1.391 . S
C1027 H999 0.931 . S
C1027 C1022 1.369 . S
C1027 C1026 1.391 . S
C1028 N997 1.425 1_545 S
C1028 C1029 1.358 . S
C1028 C1033 1.371 1_545 S
C1029 H1001 0.930 . S
C1029 C1028 1.358 . S
C1029 C1030 1.405 . S
C1030 H1002 0.932 . S
C1030 C1029 1.405 . S
C1030 C1031 1.383 . S
C1031 C1030 1.383 . S
C1031 C1032 1.288 1_545 S
C1032 H1004 0.987 . S
C1032 C1031 1.288 1_565 S
C1032 C1033 1.440 . S
C1033 H1003 0.929 . S
C1033 C1028 1.371 1_565 S
C1033 C1032 1.440 . S
C1034 N997 1.436 . S
C1034 C1035 1.362 . S
C1034 C1039 1.388 1_565 S
C1035 H1005 0.929 . S
C1035 C1034 1.362 . S
C1035 C1036 1.376 . S
C1036 H1007 0.931 . S
C1036 C1035 1.376 . S
C1036 C1037 1.396 . S
C1037 C1036 1.396 . S
C1037 C1038 1.348 1_565 S
C1037 C1055 1.472 . S
C1038 H1008 0.929 . S
C1038 C1037 1.348 1_545 S
C1038 C1039 1.443 . S
C1039 H1006 0.932 . S
C1039 C1034 1.388 1_545 S
C1039 C1038 1.443 . S
C1040 N1020 1.436 1_545 S
C1040 C1041 1.368 1_545 S
C1040 C1045 1.366 . S
C1041 H1009 0.929 . S
C1041 C1040 1.368 1_565 S
C1041 C1042 1.385 . S
C1042 H1010 0.930 . S
C1042 C1041 1.385 . S
C1042 C1043 1.305 1_565 S
C1043 C1042 1.305 1_545 S
C1043 C1044 1.475 . S
C1044 H1011 0.929 . S
C1044 C1043 1.475 . S
C1044 C1045 1.391 . S
C1045 H1012 0.931 . S
C1045 C1040 1.366 . S
C1045 C1044 1.391 . S
C1046 N1020 1.438 1_545 S
C1046 C1047 1.358 . S
C1046 C1051 1.371 1_545 S
C1047 H1013 0.930 . S
C1047 C1046 1.358 . S
C1047 C1048 1.405 . S
C1048 H1014 0.932 . S
C1048 C1047 1.405 . S
C1048 C1049 1.383 . S
C1049 C1048 1.383 . S
C1049 C1050 1.372 1_545 S
C1050 H1015 0.977 . S
C1050 C1049 1.372 1_565 S
C1050 C1051 1.372 . S
C1051 H1016 0.929 . S
C1051 C1046 1.371 1_565 S
C1051 C1050 1.372 . S
C1052 N1020 1.415 . S
C1052 C1053 1.362 . S
C1052 C1057 1.388 1_565 S
C1053 H1017 0.929 . S
C1053 C1052 1.362 . S
C1053 C1054 1.376 . S
C1054 H1018 0.931 . S
C1054 C1053 1.376 . S
C1054 C1055 1.396 . S
C1055 C1037 1.472 . S
C1055 C1054 1.396 . S
C1055 C1056 1.348 1_565 S
C1056 H1019 0.929 . S
C1056 C1055 1.348 1_545 S
C1056 C1057 1.443 . S
C1057 H1021 0.932 . S
C1057 C1052 1.388 1_545 S
C1057 C1056 1.443 . S
H1058 C1085 0.929 . S
N1059 C1084 1.433 . S
N1059 C1090 1.435 . S
N1059 C1096 1.423 . S
H1060 C1086 0.930 . S
H1061 C1089 0.931 . S
H1062 C1088 0.929 . S
H1063 C1091 0.930 . S
H1064 C1092 0.932 . S
H1065 C1095 0.929 . S
H1066 C1094 0.931 . S
H1067 C1097 0.929 . S
H1068 C1101 0.932 1_455 S
H1069 C1098 0.931 . S
H1070 C1100 0.955 . S
H1071 C1103 0.929 . S
H1072 C1104 0.930 . S
H1073 C1106 0.929 . S
H1074 C1107 0.931 . S
H1075 C1109 0.930 . S
H1076 C1110 0.932 . S
H1077 C1112 0.931 . S
H1078 C1113 0.929 . S
H1079 C1115 0.929 . S
H1080 C1116 0.931 . S
H1081 C1118 0.934 . S
N1082 C1102 1.433 . S
N1082 C1108 1.435 . S
N1082 C1114 1.423 . S
H1083 C1119 0.932 1_455 S
C1084 N1059 1.433 . S
C1084 C1085 1.363 . S
C1084 C1089 1.370 1_655 S
C1085 H1058 0.929 . S
C1085 C1084 1.363 . S
C1085 C1086 1.385 . S
C1086 H1060 0.930 . S
C1086 C1085 1.385 . S
C1086 C1087 1.357 1_655 S
C1087 C1086 1.357 1_455 S
C1087 C1088 1.406 . S
C1088 H1062 0.929 . S
C1088 C1087 1.406 . S
C1088 C1089 1.391 . S
C1089 H1061 0.931 . S
C1089 C1084 1.370 1_455 S
C1089 C1088 1.391 . S
C1090 N1059 1.435 . S
C1090 C1091 1.358 1_655 S
C1090 C1095 1.371 . S
C1091 H1063 0.930 . S
C1091 C1090 1.358 1_455 S
C1091 C1092 1.405 . S
C1092 H1064 0.932 . S
C1092 C1091 1.405 . S
C1092 C1093 1.383 1_455 S
C1093 C1092 1.383 1_655 S
C1093 C1094 1.393 . S
C1094 H1066 0.931 . S
C1094 C1093 1.393 . S
C1094 C1095 1.382 . S
C1095 H1065 0.929 . S
C1095 C1090 1.371 . S
C1095 C1094 1.382 . S
C1096 N1059 1.423 . S
C1096 C1097 1.362 . S
C1096 C1101 1.388 . S
C1097 H1067 0.929 . S
C1097 C1096 1.362 . S
C1097 C1098 1.376 . S
C1098 H1069 0.931 . S
C1098 C1097 1.376 . S
C1098 C1099 1.396 . S
C1099 C1098 1.396 . S
C1099 C1100 1.348 . S
C1099 C1117 1.472 . S
C1100 H1070 0.955 . S
C1100 C1099 1.348 . S
C1100 C1101 1.443 . S
C1101 H1068 0.932 1_655 S
C1101 C1096 1.388 . S
C1101 C1100 1.443 . S
C1102 N1082 1.433 . S
C1102 C1103 1.363 . S
C1102 C1107 1.370 1_655 S
C1103 H1071 0.929 . S
C1103 C1102 1.363 . S
C1103 C1104 1.385 . S
C1104 H1072 0.930 . S
C1104 C1103 1.385 . S
C1104 C1105 1.357 1_655 S
C1105 C1104 1.357 1_455 S
C1105 C1106 1.406 . S
C1106 H1073 0.929 . S
C1106 C1105 1.406 . S
C1106 C1107 1.391 . S
C1107 H1074 0.931 . S
C1107 C1102 1.370 1_455 S
C1107 C1106 1.391 . S
C1108 N1082 1.435 . S
C1108 C1109 1.358 1_655 S
C1108 C1113 1.371 . S
C1109 H1075 0.930 . S
C1109 C1108 1.358 1_455 S
C1109 C1110 1.405 . S
C1110 H1076 0.932 . S
C1110 C1109 1.405 . S
C1110 C1111 1.383 1_455 S
C1111 C1110 1.383 1_655 S
C1111 C1112 1.393 . S
C1112 H1077 0.931 . S
C1112 C1111 1.393 . S
C1112 C1113 1.382 . S
C1113 H1078 0.929 . S
C1113 C1108 1.371 . S
C1113 C1112 1.382 . S
C1114 N1082 1.423 . S
C1114 C1115 1.362 . S
C1114 C1119 1.388 . S
C1115 H1079 0.929 . S
C1115 C1114 1.362 . S
C1115 C1116 1.376 . S
C1116 H1080 0.931 . S
C1116 C1115 1.376 . S
C1116 C1117 1.396 . S
C1117 C1099 1.472 . S
C1117 C1116 1.396 . S
C1117 C1118 1.348 . S
C1118 H1081 0.934 . S
C1118 C1117 1.348 . S
C1118 C1119 1.443 . S
C1119 H1083 0.932 1_655 S
C1119 C1114 1.388 . S
C1119 C1118 1.443 . S
H1120 C1147 0.929 . S
N1121 C1146 1.433 . S
N1121 C1152 1.435 . S
N1121 C1158 1.423 . S
H1122 C1148 0.930 . S
H1123 C1151 0.931 . S
H1124 C1150 0.929 . S
H1125 C1153 0.930 . S
H1126 C1154 0.932 . S
H1127 C1157 0.929 . S
H1128 C1156 0.931 . S
H1129 C1159 0.929 . S
H1130 C1163 0.932 . S
H1131 C1160 0.931 . S
H1132 C1162 0.929 . S
H1133 C1165 0.929 . S
H1134 C1166 0.930 . S
H1135 C1168 0.929 . S
H1136 C1169 0.931 . S
H1137 C1171 0.930 . S
H1138 C1172 0.932 . S
H1139 C1174 0.931 . S
H1140 C1175 0.929 . S
H1141 C1177 0.929 . S
H1142 C1178 0.931 . S
H1143 C1180 0.929 . S
N1144 C1164 1.433 . S
N1144 C1170 1.435 . S
N1144 C1176 1.423 . S
H1145 C1181 0.932 . S
C1146 N1121 1.433 . S
C1146 C1147 1.363 . S
C1146 C1151 1.370 . S
C1147 H1120 0.929 . S
C1147 C1146 1.363 . S
C1147 C1148 1.385 . S
C1148 H1122 0.930 . S
C1148 C1147 1.385 . S
C1148 C1149 1.357 . S
C1149 C1148 1.357 . S
C1149 C1150 1.406 . S
C1150 H1124 0.929 . S
C1150 C1149 1.406 . S
C1150 C1151 1.391 . S
C1151 H1123 0.931 . S
C1151 C1146 1.370 . S
C1151 C1150 1.391 . S
C1152 N1121 1.435 . S
C1152 C1153 1.358 . S
C1152 C1157 1.371 . S
C1153 H1125 0.930 . S
C1153 C1152 1.358 . S
C1153 C1154 1.405 . S
C1154 H1126 0.932 . S
C1154 C1153 1.405 . S
C1154 C1155 1.383 . S
C1155 C1154 1.383 . S
C1155 C1156 1.393 . S
C1156 H1128 0.931 . S
C1156 C1155 1.393 . S
C1156 C1157 1.382 . S
C1157 H1127 0.929 . S
C1157 C1152 1.371 . S
C1157 C1156 1.382 . S
C1158 N1121 1.423 . S
C1158 C1159 1.362 . S
C1158 C1163 1.388 . S
C1159 H1129 0.929 . S
C1159 C1158 1.362 . S
C1159 C1160 1.376 . S
C1160 H1131 0.931 . S
C1160 C1159 1.376 . S
C1160 C1161 1.396 . S
C1161 C1160 1.396 . S
C1161 C1162 1.348 . S
C1161 C1179 1.472 . S
C1162 H1132 0.929 . S
C1162 C1161 1.348 . S
C1162 C1163 1.443 . S
C1163 H1130 0.932 . S
C1163 C1158 1.388 . S
C1163 C1162 1.443 . S
C1164 N1144 1.433 . S
C1164 C1165 1.363 . S
C1164 C1169 1.370 . S
C1165 H1133 0.929 . S
C1165 C1164 1.363 . S
C1165 C1166 1.385 . S
C1166 H1134 0.930 . S
C1166 C1165 1.385 . S
C1166 C1167 1.357 . S
C1167 C1166 1.357 . S
C1167 C1168 1.406 . S
C1168 H1135 0.929 . S
C1168 C1167 1.406 . S
C1168 C1169 1.391 . S
C1169 H1136 0.931 . S
C1169 C1164 1.370 . S
C1169 C1168 1.391 . S
C1170 N1144 1.435 . S
C1170 C1171 1.358 . S
C1170 C1175 1.371 . S
C1171 H1137 0.930 . S
C1171 C1170 1.358 . S
C1171 C1172 1.405 . S
C1172 H1138 0.932 . S
C1172 C1171 1.405 . S
C1172 C1173 1.383 . S
C1173 C1172 1.383 . S
C1173 C1174 1.393 . S
C1174 H1139 0.931 . S
C1174 C1173 1.393 . S
C1174 C1175 1.382 . S
C1175 H1140 0.929 . S
C1175 C1170 1.371 . S
C1175 C1174 1.382 . S
C1176 N1144 1.423 . S
C1176 C1177 1.362 . S
C1176 C1181 1.388 . S
C1177 H1141 0.929 . S
C1177 C1176 1.362 . S
C1177 C1178 1.376 . S
C1178 H1142 0.931 . S
C1178 C1177 1.376 . S
C1178 C1179 1.396 . S
C1179 C1161 1.472 . S
C1179 C1178 1.396 . S
C1179 C1180 1.348 . S
C1180 H1143 0.929 . S
C1180 C1179 1.348 . S
C1180 C1181 1.443 . S
C1181 H1145 0.932 . S
C1181 C1176 1.388 . S
C1181 C1180 1.443 . S
H1182 C1209 0.929 . S
N1183 C1208 1.433 . S
N1183 C1214 1.435 . S
N1183 C1220 1.423 . S
H1184 C1210 0.930 . S
H1185 C1213 0.931 . S
H1186 C1212 0.929 . S
H1187 C1215 0.930 . S
H1188 C1216 0.932 . S
H1189 C1219 0.929 . S
H1190 C1218 0.931 . S
H1191 C1221 0.929 . S
H1192 C1225 0.932 . S
H1193 C1222 0.931 . S
H1194 C1224 0.929 . S
H1195 C1227 0.929 . S
H1196 C1228 0.930 . S
H1197 C1230 0.929 . S
H1198 C1231 0.931 . S
H1199 C1233 0.930 . S
H1200 C1234 0.932 . S
H1201 C1236 0.931 . S
H1202 C1237 0.929 . S
H1203 C1239 0.929 . S
H1204 C1240 0.931 . S
H1205 C1242 0.929 . S
N1206 C1226 1.433 . S
N1206 C1232 1.435 . S
N1206 C1238 1.423 . S
H1207 C1243 0.932 . S
C1208 N1183 1.433 . S
C1208 C1209 1.363 . S
C1208 C1213 1.370 . S
C1209 H1182 0.929 . S
C1209 C1208 1.363 . S
C1209 C1210 1.385 . S
C1210 H1184 0.930 . S
C1210 C1209 1.385 . S
C1210 C1211 1.357 . S
C1211 C1210 1.357 . S
C1211 C1212 1.406 . S
C1212 H1186 0.929 . S
C1212 C1211 1.406 . S
C1212 C1213 1.391 . S
C1213 H1185 0.931 . S
C1213 C1208 1.370 . S
C1213 C1212 1.391 . S
C1214 N1183 1.435 . S
C1214 C1215 1.358 . S
C1214 C1219 1.371 . S
C1215 H1187 0.930 . S
C1215 C1214 1.358 . S
C1215 C1216 1.405 . S
C1216 H1188 0.932 . S
C1216 C1215 1.405 . S
C1216 C1217 1.383 . S
C1217 C1216 1.383 . S
C1217 C1218 1.393 . S
C1218 H1190 0.931 . S
C1218 C1217 1.393 . S
C1218 C1219 1.382 . S
C1219 H1189 0.929 . S
C1219 C1214 1.371 . S
C1219 C1218 1.382 . S
C1220 N1183 1.423 . S
C1220 C1221 1.362 . S
C1220 C1225 1.388 . S
C1221 H1191 0.929 . S
C1221 C1220 1.362 . S
C1221 C1222 1.376 . S
C1222 H1193 0.931 . S
C1222 C1221 1.376 . S
C1222 C1223 1.396 . S
C1223 C1222 1.396 . S
C1223 C1224 1.348 . S
C1223 C1241 1.472 . S
C1224 H1194 0.929 . S
C1224 C1223 1.348 . S
C1224 C1225 1.443 . S
C1225 H1192 0.932 . S
C1225 C1220 1.388 . S
C1225 C1224 1.443 . S
C1226 N1206 1.433 . S
C1226 C1227 1.363 . S
C1226 C1231 1.370 . S
C1227 H1195 0.929 . S
C1227 C1226 1.363 . S
C1227 C1228 1.385 . S
C1228 H1196 0.930 . S
C1228 C1227 1.385 . S
C1228 C1229 1.357 . S
C1229 C1228 1.357 . S
C1229 C1230 1.406 . S
C1230 H1197 0.929 . S
C1230 C1229 1.406 . S
C1230 C1231 1.391 . S
C1231 H1198 0.931 . S
C1231 C1226 1.370 . S
C1231 C1230 1.391 . S
C1232 N1206 1.435 . S
C1232 C1233 1.358 . S
C1232 C1237 1.371 . S
C1233 H1199 0.930 . S
C1233 C1232 1.358 . S
C1233 C1234 1.405 . S
C1234 H1200 0.932 . S
C1234 C1233 1.405 . S
C1234 C1235 1.383 . S
C1235 C1234 1.383 . S
C1235 C1236 1.393 . S
C1236 H1201 0.931 . S
C1236 C1235 1.393 . S
C1236 C1237 1.382 . S
C1237 H1202 0.929 . S
C1237 C1232 1.371 . S
C1237 C1236 1.382 . S
C1238 N1206 1.423 . S
C1238 C1239 1.362 . S
C1238 C1243 1.388 . S
C1239 H1203 0.929 . S
C1239 C1238 1.362 . S
C1239 C1240 1.376 . S
C1240 H1204 0.931 . S
C1240 C1239 1.376 . S
C1240 C1241 1.396 . S
C1241 C1223 1.472 . S
C1241 C1240 1.396 . S
C1241 C1242 1.348 . S
C1242 H1205 0.929 . S
C1242 C1241 1.348 . S
C1242 C1243 1.443 . S
C1243 H1207 0.932 . S
C1243 C1238 1.388 . S
C1243 C1242 1.443 . S
H1244 C1271 0.929 . S
N1245 C1270 1.433 . S
N1245 C1276 1.435 . S
N1245 C1282 1.423 . S
H1246 C1272 0.930 . S
H1247 C1275 0.931 . S
H1248 C1274 0.929 . S
H1249 C1277 0.930 . S
H1250 C1278 0.932 . S
H1251 C1281 0.929 . S
H1252 C1280 0.931 . S
H1253 C1283 0.929 . S
H1254 C1287 0.932 . S
H1255 C1284 0.931 . S
H1256 C1286 0.929 . S
H1257 C1289 0.929 . S
H1258 C1290 0.930 . S
H1259 C1292 0.929 . S
H1260 C1293 0.931 . S
H1261 C1295 0.930 . S
H1262 C1296 0.932 . S
H1263 C1298 0.931 . S
H1264 C1299 0.929 . S
H1265 C1301 0.929 . S
H1266 C1302 0.931 . S
H1267 C1304 0.929 . S
N1268 C1288 1.433 . S
N1268 C1294 1.435 . S
N1268 C1300 1.423 . S
H1269 C1305 0.932 . S
C1270 N1245 1.433 . S
C1270 C1271 1.363 . S
C1270 C1275 1.370 . S
C1271 H1244 0.929 . S
C1271 C1270 1.363 . S
C1271 C1272 1.385 . S
C1272 H1246 0.930 . S
C1272 C1271 1.385 . S
C1272 C1273 1.357 . S
C1273 C1272 1.357 . S
C1273 C1274 1.406 . S
C1274 H1248 0.929 . S
C1274 C1273 1.406 . S
C1274 C1275 1.391 . S
C1275 H1247 0.931 . S
C1275 C1270 1.370 . S
C1275 C1274 1.391 . S
C1276 N1245 1.435 . S
C1276 C1277 1.358 . S
C1276 C1281 1.371 . S
C1277 H1249 0.930 . S
C1277 C1276 1.358 . S
C1277 C1278 1.405 . S
C1278 H1250 0.932 . S
C1278 C1277 1.405 . S
C1278 C1279 1.383 . S
C1279 C1278 1.383 . S
C1279 C1280 1.393 . S
C1280 H1252 0.931 . S
C1280 C1279 1.393 . S
C1280 C1281 1.382 . S
C1281 H1251 0.929 . S
C1281 C1276 1.371 . S
C1281 C1280 1.382 . S
C1282 N1245 1.423 . S
C1282 C1283 1.362 . S
C1282 C1287 1.388 . S
C1283 H1253 0.929 . S
C1283 C1282 1.362 . S
C1283 C1284 1.376 . S
C1284 H1255 0.931 . S
C1284 C1283 1.376 . S
C1284 C1285 1.396 . S
C1285 C1284 1.396 . S
C1285 C1286 1.348 . S
C1285 C1303 1.472 . S
C1286 H1256 0.929 . S
C1286 C1285 1.348 . S
C1286 C1287 1.443 . S
C1287 H1254 0.932 . S
C1287 C1282 1.388 . S
C1287 C1286 1.443 . S
C1288 N1268 1.433 . S
C1288 C1289 1.363 . S
C1288 C1293 1.370 . S
C1289 H1257 0.929 . S
C1289 C1288 1.363 . S
C1289 C1290 1.385 . S
C1290 H1258 0.930 . S
C1290 C1289 1.385 . S
C1290 C1291 1.357 . S
C1291 C1290 1.357 . S
C1291 C1292 1.406 . S
C1292 H1259 0.929 . S
C1292 C1291 1.406 . S
C1292 C1293 1.391 . S
C1293 H1260 0.931 . S
C1293 C1288 1.370 . S
C1293 C1292 1.391 . S
C1294 N1268 1.435 . S
C1294 C1295 1.358 . S
C1294 C1299 1.371 . S
C1295 H1261 0.930 . S
C1295 C1294 1.358 . S
C1295 C1296 1.405 . S
C1296 H1262 0.932 . S
C1296 C1295 1.405 . S
C1296 C1297 1.383 . S
C1297 C1296 1.383 . S
C1297 C1298 1.393 . S
C1298 H1263 0.931 . S
C1298 C1297 1.393 . S
C1298 C1299 1.382 . S
C1299 H1264 0.929 . S
C1299 C1294 1.371 . S
C1299 C1298 1.382 . S
C1300 N1268 1.423 . S
C1300 C1301 1.362 . S
C1300 C1305 1.388 . S
C1301 H1265 0.929 . S
C1301 C1300 1.362 . S
C1301 C1302 1.376 . S
C1302 H1266 0.931 . S
C1302 C1301 1.376 . S
C1302 C1303 1.396 . S
C1303 C1285 1.472 . S
C1303 C1302 1.396 . S
C1303 C1304 1.348 . S
C1304 H1267 0.929 . S
C1304 C1303 1.348 . S
C1304 C1305 1.443 . S
C1305 H1269 0.932 . S
C1305 C1300 1.388 . S
C1305 C1304 1.443 . S
H1306 C1333 0.929 . S
N1307 C1332 1.433 . S
N1307 C1338 1.435 . S
N1307 C1344 1.423 . S
H1308 C1334 0.930 . S
H1309 C1337 0.931 . S
H1310 C1336 0.929 . S
H1311 C1339 0.930 . S
H1312 C1340 0.932 . S
H1313 C1343 0.929 . S
H1314 C1342 0.931 . S
H1315 C1345 0.929 . S
H1316 C1349 0.932 . S
H1317 C1346 0.931 . S
H1318 C1348 0.929 . S
H1319 C1351 0.929 . S
H1320 C1352 0.930 . S
H1321 C1354 0.929 . S
H1322 C1355 0.931 . S
H1323 C1357 0.930 . S
H1324 C1358 0.932 . S
H1325 C1360 0.931 . S
H1326 C1361 0.929 . S
H1327 C1363 0.929 . S
H1328 C1364 0.931 . S
H1329 C1366 0.929 . S
N1330 C1350 1.433 . S
N1330 C1356 1.435 . S
N1330 C1362 1.423 . S
H1331 C1367 0.932 . S
C1332 N1307 1.433 . S
C1332 C1333 1.363 . S
C1332 C1337 1.370 . S
C1333 H1306 0.929 . S
C1333 C1332 1.363 . S
C1333 C1334 1.385 . S
C1334 H1308 0.930 . S
C1334 C1333 1.385 . S
C1334 C1335 1.357 . S
C1335 C1334 1.357 . S
C1335 C1336 1.406 . S
C1336 H1310 0.929 . S
C1336 C1335 1.406 . S
C1336 C1337 1.391 . S
C1337 H1309 0.931 . S
C1337 C1332 1.370 . S
C1337 C1336 1.391 . S
C1338 N1307 1.435 . S
C1338 C1339 1.358 . S
C1338 C1343 1.371 . S
C1339 H1311 0.930 . S
C1339 C1338 1.358 . S
C1339 C1340 1.405 . S
C1340 H1312 0.932 . S
C1340 C1339 1.405 . S
C1340 C1341 1.383 . S
C1341 C1340 1.383 . S
C1341 C1342 1.393 . S
C1342 H1314 0.931 . S
C1342 C1341 1.393 . S
C1342 C1343 1.382 . S
C1343 H1313 0.929 . S
C1343 C1338 1.371 . S
C1343 C1342 1.382 . S
C1344 N1307 1.423 . S
C1344 C1345 1.362 . S
C1344 C1349 1.388 . S
C1345 H1315 0.929 . S
C1345 C1344 1.362 . S
C1345 C1346 1.376 . S
C1346 H1317 0.931 . S
C1346 C1345 1.376 . S
C1346 C1347 1.396 . S
C1347 C1346 1.396 . S
C1347 C1348 1.348 . S
C1347 C1365 1.472 . S
C1348 H1318 0.929 . S
C1348 C1347 1.348 . S
C1348 C1349 1.443 . S
C1349 H1316 0.932 . S
C1349 C1344 1.388 . S
C1349 C1348 1.443 . S
C1350 N1330 1.433 . S
C1350 C1351 1.363 . S
C1350 C1355 1.370 . S
C1351 H1319 0.929 . S
C1351 C1350 1.363 . S
C1351 C1352 1.385 . S
C1352 H1320 0.930 . S
C1352 C1351 1.385 . S
C1352 C1353 1.357 . S
C1353 C1352 1.357 . S
C1353 C1354 1.406 . S
C1354 H1321 0.929 . S
C1354 C1353 1.406 . S
C1354 C1355 1.391 . S
C1355 H1322 0.931 . S
C1355 C1350 1.370 . S
C1355 C1354 1.391 . S
C1356 N1330 1.435 . S
C1356 C1357 1.358 . S
C1356 C1361 1.371 . S
C1357 H1323 0.930 . S
C1357 C1356 1.358 . S
C1357 C1358 1.405 . S
C1358 H1324 0.932 . S
C1358 C1357 1.405 . S
C1358 C1359 1.383 . S
C1359 C1358 1.383 . S
C1359 C1360 1.393 . S
C1360 H1325 0.931 . S
C1360 C1359 1.393 . S
C1360 C1361 1.382 . S
C1361 H1326 0.929 . S
C1361 C1356 1.371 . S
C1361 C1360 1.382 . S
C1362 N1330 1.423 . S
C1362 C1363 1.362 . S
C1362 C1367 1.388 . S
C1363 H1327 0.929 . S
C1363 C1362 1.362 . S
C1363 C1364 1.376 . S
C1364 H1328 0.931 . S
C1364 C1363 1.376 . S
C1364 C1365 1.396 . S
C1365 C1347 1.472 . S
C1365 C1364 1.396 . S
C1365 C1366 1.348 . S
C1366 H1329 0.929 . S
C1366 C1365 1.348 . S
C1366 C1367 1.443 . S
C1367 H1331 0.932 . S
C1367 C1362 1.388 . S
C1367 C1366 1.443 . S
C1368 C1369 1.349 . S
C1368 C1370 1.327 . S
C1368 H1393 0.950 . S
C1369 C1368 1.349 . S
C1369 C1385 1.349 1_455 S
C1370 C1368 1.327 . S
C1370 C1389 1.429 . S
C1370 H1394 0.950 . S
C1371 C1388 1.574 . S
C1371 C1390 1.368 1_655 S
C1371 H1395 0.949 . S
H1372 C1376 0.949 . S
C1373 C1374 1.349 1_655 S
C1373 C1375 1.327 . S
C1373 H1396 0.950 . S
C1374 C1373 1.349 1_455 S
C1374 C1386 1.349 . S
C1375 C1373 1.327 . S
C1375 C1391 1.429 1_655 S
C1375 H1397 0.950 . S
C1376 H1372 0.949 . S
C1376 C1384 1.574 . S
C1376 C1392 1.368 . S
H1377 C1385 0.950 . S
H1378 C1383 0.950 . S
H1379 C1384 0.949 . S
H1380 C1386 0.950 . S
H1381 C1387 0.950 . S
H1382 C1388 0.949 . S
C1383 H1378 0.950 . S
C1383 C1385 1.327 . S
C1383 C1389 1.429 1_655 S
C1384 C1376 1.574 . S
C1384 H1379 0.949 . S
C1384 C1390 1.368 . S
C1385 C1369 1.349 1_655 S
C1385 H1377 0.950 . S
C1385 C1383 1.327 . S
C1386 C1374 1.349 . S
C1386 H1380 0.950 . S
C1386 C1387 1.327 . S
C1387 H1381 0.950 . S
C1387 C1386 1.327 . S
C1387 C1391 1.429 . S
C1388 C1371 1.574 . S
C1388 H1382 0.949 . S
C1388 C1392 1.368 1_655 S
C1389 C1370 1.429 . S
C1389 C1383 1.429 1_455 S
C1389 C1390 1.523 . S
C1390 C1371 1.368 1_455 S
C1390 C1384 1.368 . S
C1390 C1389 1.523 . S
C1391 C1375 1.429 1_455 S
C1391 C1387 1.429 . S
C1391 C1392 1.523 . S
C1392 C1376 1.368 . S
C1392 C1388 1.368 1_455 S
C1392 C1391 1.523 . S
H1393 C1368 0.950 . S
H1394 C1370 0.950 . S
H1395 C1371 0.949 . S
H1396 C1373 0.950 . S
H1397 C1375 0.950 . S
C1398 C1399 1.349 . S
C1398 C1400 1.327 . S
C1398 H1423 0.950 . S
C1399 C1398 1.349 . S
C1399 C1415 1.349 . S
C1400 C1398 1.327 . S
C1400 C1419 1.429 . S
C1400 H1424 0.950 . S
C1401 C1418 1.574 . S
C1401 C1420 1.368 . S
C1401 H1425 0.949 . S
H1402 C1406 0.949 . S
C1403 C1404 1.349 . S
C1403 C1405 1.327 . S
C1403 H1426 0.950 . S
C1404 C1403 1.349 . S
C1404 C1416 1.349 . S
C1405 C1403 1.327 . S
C1405 C1421 1.429 . S
C1405 H1427 0.950 . S
C1406 H1402 0.949 . S
C1406 C1414 1.574 . S
C1406 C1422 1.368 . S
H1407 C1415 0.950 . S
H1408 C1413 0.950 . S
H1409 C1414 0.949 . S
H1410 C1416 0.950 . S
H1411 C1417 0.950 . S
H1412 C1418 0.949 . S
C1413 H1408 0.950 . S
C1413 C1415 1.327 . S
C1413 C1419 1.429 . S
C1414 C1406 1.574 . S
C1414 H1409 0.949 . S
C1414 C1420 1.368 . S
C1415 C1399 1.349 . S
C1415 H1407 0.950 . S
C1415 C1413 1.327 . S
C1416 C1404 1.349 . S
C1416 H1410 0.950 . S
C1416 C1417 1.327 . S
C1417 H1411 0.950 . S
C1417 C1416 1.327 . S
C1417 C1421 1.429 . S
C1418 C1401 1.574 . S
C1418 H1412 0.949 . S
C1418 C1422 1.368 . S
C1419 C1400 1.429 . S
C1419 C1413 1.429 . S
C1419 C1420 1.523 . S
C1420 C1401 1.368 . S
C1420 C1414 1.368 . S
C1420 C1419 1.523 . S
C1421 C1405 1.429 . S
C1421 C1417 1.429 . S
C1421 C1422 1.523 . S
C1422 C1406 1.368 . S
C1422 C1418 1.368 . S
C1422 C1421 1.523 . S
H1423 C1398 0.950 . S
H1424 C1400 0.950 . S
H1425 C1401 0.949 . S
H1426 C1403 0.950 . S
H1427 C1405 0.950 . S
C1428 C1429 1.349 . S
C1428 C1430 1.327 . S
C1428 H1453 0.950 . S
C1429 C1428 1.349 . S
C1429 C1445 1.349 1_545 S
C1430 C1428 1.327 . S
C1430 C1449 1.429 . S
C1430 H1454 0.950 . S
C1431 C1448 1.574 . S
C1431 C1450 1.368 1_565 S
C1431 H1455 0.949 . S
H1432 C1436 0.949 . S
C1433 C1434 1.349 1_565 S
C1433 C1435 1.327 . S
C1433 H1456 0.950 . S
C1434 C1433 1.349 1_545 S
C1434 C1446 1.349 . S
C1435 C1433 1.327 . S
C1435 C1451 1.429 1_565 S
C1435 H1457 0.950 . S
C1436 H1432 0.949 . S
C1436 C1444 1.574 . S
C1436 C1452 1.368 . S
H1437 C1445 0.950 . S
H1438 C1443 0.950 . S
H1439 C1444 0.949 . S
H1440 C1446 0.950 . S
H1441 C1447 0.950 . S
H1442 C1448 0.949 . S
C1443 H1438 0.950 . S
C1443 C1445 1.327 . S
C1443 C1449 1.429 1_565 S
C1444 C1436 1.574 . S
C1444 H1439 0.949 . S
C1444 C1450 1.368 . S
C1445 C1429 1.349 1_565 S
C1445 H1437 0.950 . S
C1445 C1443 1.327 . S
C1446 C1434 1.349 . S
C1446 H1440 0.950 . S
C1446 C1447 1.327 . S
C1447 H1441 0.950 . S
C1447 C1446 1.327 . S
C1447 C1451 1.429 . S
C1448 C1431 1.574 . S
C1448 H1442 0.949 . S
C1448 C1452 1.368 1_565 S
C1449 C1430 1.429 . S
C1449 C1443 1.429 1_545 S
C1449 C1450 1.523 . S
C1450 C1431 1.368 1_545 S
C1450 C1444 1.368 . S
C1450 C1449 1.523 . S
C1451 C1435 1.429 1_545 S
C1451 C1447 1.429 . S
C1451 C1452 1.523 . S
C1452 C1436 1.368 . S
C1452 C1448 1.368 1_545 S
C1452 C1451 1.523 . S
H1453 C1428 0.950 . S
H1454 C1430 0.950 . S
H1455 C1431 0.949 . S
H1456 C1433 0.950 . S
H1457 C1435 0.950 . S
C1458 C1459 1.349 1_565 S
C1458 C1460 1.327 . S
C1458 H1483 0.950 . S
C1459 C1458 1.349 1_545 S
C1459 C1475 1.349 . S
C1460 C1458 1.327 . S
C1460 C1479 1.429 1_565 S
C1460 H1484 0.950 . S
C1461 C1478 1.574 . S
C1461 C1480 1.368 . S
C1461 H1485 0.949 . S
H1462 C1466 0.949 . S
C1463 C1464 1.349 . S
C1463 C1465 1.327 . S
C1463 H1486 0.950 . S
C1464 C1463 1.349 . S
C1464 C1476 1.349 1_545 S
C1465 C1463 1.327 . S
C1465 C1481 1.429 . S
C1465 H1487 0.950 . S
C1466 H1462 0.949 . S
C1466 C1474 1.574 . S
C1466 C1482 1.368 1_565 S
H1467 C1475 0.950 . S
H1468 C1473 0.950 . S
H1469 C1474 0.949 . S
H1470 C1476 0.950 . S
H1471 C1477 0.950 . S
H1472 C1478 0.949 . S
C1473 H1468 0.950 . S
C1473 C1475 1.327 . S
C1473 C1479 1.429 . S
C1474 C1466 1.574 . S
C1474 H1469 0.949 . S
C1474 C1480 1.368 1_565 S
C1475 C1459 1.349 . S
C1475 H1467 0.950 . S
C1475 C1473 1.327 . S
C1476 C1464 1.349 1_565 S
C1476 H1470 0.950 . S
C1476 C1477 1.327 . S
C1477 H1471 0.950 . S
C1477 C1476 1.327 . S
C1477 C1481 1.429 1_565 S
C1478 C1461 1.574 . S
C1478 H1472 0.949 . S
C1478 C1482 1.368 . S
C1479 C1460 1.429 1_545 S
C1479 C1473 1.429 . S
C1479 C1480 1.523 . S
C1480 C1461 1.368 . S
C1480 C1474 1.368 1_545 S
C1480 C1479 1.523 . S
C1481 C1465 1.429 . S
C1481 C1477 1.429 1_545 S
C1481 C1482 1.523 . S
C1482 C1466 1.368 1_545 S
C1482 C1478 1.368 . S
C1482 C1481 1.523 . S
H1483 C1458 0.950 . S
H1484 C1460 0.950 . S
H1485 C1461 0.949 . S
H1486 C1463 0.950 . S
H1487 C1465 0.950 . S
C1488 C1489 1.349 . S
C1488 C1490 1.327 . S
C1488 H1513 0.950 . S
C1489 C1488 1.349 . S
C1489 C1505 1.349 1_455 S
C1490 C1488 1.327 . S
C1490 C1509 1.429 . S
C1490 H1514 0.950 . S
C1491 C1508 1.574 . S
C1491 C1510 1.368 1_655 S
C1491 H1515 0.949 . S
H1492 C1496 0.949 . S
C1493 C1494 1.349 1_655 S
C1493 C1495 1.327 . S
C1493 H1516 0.950 . S
C1494 C1493 1.349 1_455 S
C1494 C1506 1.349 . S
C1495 C1493 1.327 . S
C1495 C1511 1.429 1_655 S
C1495 H1517 0.950 . S
C1496 H1492 0.949 . S
C1496 C1504 1.574 . S
C1496 C1512 1.368 . S
H1497 C1505 0.950 . S
H1498 C1503 0.950 . S
H1499 C1504 0.949 . S
H1500 C1506 0.950 . S
H1501 C1507 0.950 . S
H1502 C1508 0.949 . S
C1503 H1498 0.950 . S
C1503 C1505 1.327 . S
C1503 C1509 1.429 1_655 S
C1504 C1496 1.574 . S
C1504 H1499 0.949 . S
C1504 C1510 1.368 . S
C1505 C1489 1.349 1_655 S
C1505 H1497 0.950 . S
C1505 C1503 1.327 . S
C1506 C1494 1.349 . S
C1506 H1500 0.950 . S
C1506 C1507 1.327 . S
C1507 H1501 0.950 . S
C1507 C1506 1.327 . S
C1507 C1511 1.429 . S
C1508 C1491 1.574 . S
C1508 H1502 0.949 . S
C1508 C1512 1.368 1_655 S
C1509 C1490 1.429 . S
C1509 C1503 1.429 1_455 S
C1509 C1510 1.523 . S
C1510 C1491 1.368 1_455 S
C1510 C1504 1.368 . S
C1510 C1509 1.523 . S
C1511 C1495 1.429 1_455 S
C1511 C1507 1.429 . S
C1511 C1512 1.523 . S
C1512 C1496 1.368 . S
C1512 C1508 1.368 1_455 S
C1512 C1511 1.523 . S
H1513 C1488 0.950 . S
H1514 C1490 0.950 . S
H1515 C1491 0.949 . S
H1516 C1493 0.950 . S
H1517 C1495 0.950 . S
C1518 C1519 1.349 . S
C1518 C1520 1.327 . S
C1518 H1543 0.950 . S
C1519 C1518 1.349 . S
C1519 C1535 1.349 . S
C1520 C1518 1.327 . S
C1520 C1539 1.429 . S
C1520 H1544 0.950 . S
C1521 C1538 1.574 . S
C1521 C1540 1.368 . S
C1521 H1545 0.949 . S
H1522 C1526 0.949 . S
C1523 C1524 1.349 . S
C1523 C1525 1.327 . S
C1523 H1546 0.950 . S
C1524 C1523 1.349 . S
C1524 C1536 1.349 . S
C1525 C1523 1.327 . S
C1525 C1541 1.429 . S
C1525 H1547 0.950 . S
C1526 H1522 0.949 . S
C1526 C1534 1.574 . S
C1526 C1542 1.368 . S
H1527 C1535 0.950 . S
H1528 C1533 0.950 . S
H1529 C1534 0.949 . S
H1530 C1536 0.950 . S
H1531 C1537 0.950 . S
H1532 C1538 0.949 . S
C1533 H1528 0.950 . S
C1533 C1535 1.327 . S
C1533 C1539 1.429 . S
C1534 C1526 1.574 . S
C1534 H1529 0.949 . S
C1534 C1540 1.368 . S
C1535 C1519 1.349 . S
C1535 H1527 0.950 . S
C1535 C1533 1.327 . S
C1536 C1524 1.349 . S
C1536 H1530 0.950 . S
C1536 C1537 1.327 . S
C1537 H1531 0.950 . S
C1537 C1536 1.327 . S
C1537 C1541 1.429 . S
C1538 C1521 1.574 . S
C1538 H1532 0.949 . S
C1538 C1542 1.368 . S
C1539 C1520 1.429 . S
C1539 C1533 1.429 . S
C1539 C1540 1.523 . S
C1540 C1521 1.368 . S
C1540 C1534 1.368 . S
C1540 C1539 1.523 . S
C1541 C1525 1.429 . S
C1541 C1537 1.429 . S
C1541 C1542 1.523 . S
C1542 C1526 1.368 . S
C1542 C1538 1.368 . S
C1542 C1541 1.523 . S
H1543 C1518 0.950 . S
H1544 C1520 0.950 . S
H1545 C1521 0.949 . S
H1546 C1523 0.950 . S
H1547 C1525 0.950 . S
C1548 C1549 1.331 1_655 S
C1548 C1550 1.320 . S
C1548 H1573 1.002 . S
C1549 C1548 1.331 1_455 S
C1549 C1565 1.349 . S
C1550 C1548 1.320 . S
C1550 C1569 1.391 1_655 S
C1550 H1574 0.968 . S
C1551 C1568 1.574 . S
C1551 C1570 1.368 . S
C1551 H1575 0.949 . S
H1552 C1556 0.947 . S
C1553 C1554 1.349 . S
C1553 C1555 1.327 . S
C1553 H1576 0.950 . S
C1554 C1553 1.349 . S
C1554 C1566 1.412 . S
C1555 C1553 1.327 . S
C1555 C1571 1.429 . S
C1555 H1577 0.950 . S
C1556 H1552 0.947 . S
C1556 C1564 1.562 . S
C1556 C1572 1.375 1_655 S
H1557 C1565 0.950 . S
H1558 C1563 0.950 . S
H1559 C1564 0.963 . S
H1560 C1566 0.921 1_655 S
H1561 C1567 0.912 1_655 S
H1562 C1568 0.949 . S
C1563 H1558 0.950 . S
C1563 C1565 1.327 . S
C1563 C1569 1.429 . S
C1564 C1556 1.562 . S
C1564 H1559 0.963 . S
C1564 C1570 1.362 1_655 S
C1565 C1549 1.349 . S
C1565 H1557 0.950 . S
C1565 C1563 1.327 . S
C1566 C1554 1.412 . S
C1566 H1560 0.921 1_455 S
C1566 C1567 1.313 . S
C1567 H1561 0.912 1_455 S
C1567 C1566 1.313 . S
C1567 C1571 1.443 . S
C1568 C1551 1.574 . S
C1568 H1562 0.949 . S
C1568 C1572 1.368 . S
C1569 C1550 1.391 1_455 S
C1569 C1563 1.429 . S
C1569 C1570 1.523 . S
C1570 C1551 1.368 . S
C1570 C1564 1.362 1_455 S
C1570 C1569 1.523 . S
C1571 C1555 1.429 . S
C1571 C1567 1.443 . S
C1571 C1572 1.523 . S
C1572 C1556 1.375 1_455 S
C1572 C1568 1.368 . S
C1572 C1571 1.523 . S
H1573 C1548 1.002 . S
H1574 C1550 0.968 . S
H1575 C1551 0.949 . S
H1576 C1553 0.950 . S
H1577 C1555 0.950 . S
C1578 C1579 1.349 . S
C1578 C1580 1.327 . S
C1578 H1603 0.950 . S
C1579 C1578 1.349 . S
C1579 C1595 1.349 . S
C1580 C1578 1.327 . S
C1580 C1599 1.429 . S
C1580 H1604 0.950 . S
C1581 C1598 1.574 . S
C1581 C1600 1.368 . S
C1581 H1605 0.949 . S
H1582 C1586 0.949 . S
C1583 C1584 1.349 . S
C1583 C1585 1.327 . S
C1583 H1606 0.950 . S
C1584 C1583 1.349 . S
C1584 C1596 1.349 . S
C1585 C1583 1.327 . S
C1585 C1601 1.429 . S
C1585 H1607 0.950 . S
C1586 H1582 0.949 . S
C1586 C1594 1.574 . S
C1586 C1602 1.368 . S
H1587 C1595 0.950 . S
H1588 C1593 0.950 . S
H1589 C1594 0.949 . S
H1590 C1596 0.950 . S
H1591 C1597 0.950 . S
H1592 C1598 0.949 . S
C1593 H1588 0.950 . S
C1593 C1595 1.327 . S
C1593 C1599 1.429 . S
C1594 C1586 1.574 . S
C1594 H1589 0.949 . S
C1594 C1600 1.368 . S
C1595 C1579 1.349 . S
C1595 H1587 0.950 . S
C1595 C1593 1.327 . S
C1596 C1584 1.349 . S
C1596 H1590 0.950 . S
C1596 C1597 1.327 . S
C1597 H1591 0.950 . S
C1597 C1596 1.327 . S
C1597 C1601 1.429 . S
C1598 C1581 1.574 . S
C1598 H1592 0.949 . S
C1598 C1602 1.368 . S
C1599 C1580 1.429 . S
C1599 C1593 1.429 . S
C1599 C1600 1.523 . S
C1600 C1581 1.368 . S
C1600 C1594 1.368 . S
C1600 C1599 1.523 . S
C1601 C1585 1.429 . S
C1601 C1597 1.429 . S
C1601 C1602 1.523 . S
C1602 C1586 1.368 . S
C1602 C1598 1.368 . S
C1602 C1601 1.523 . S
H1603 C1578 0.950 . S
H1604 C1580 0.950 . S
H1605 C1581 0.949 . S
H1606 C1583 0.950 . S
H1607 C1585 0.950 . S
C1608 C1609 1.349 . S
C1608 C1610 1.327 . S
C1608 H1633 0.950 . S
C1609 C1608 1.349 . S
C1609 C1625 1.349 1_545 S
C1610 C1608 1.327 . S
C1610 C1629 1.429 . S
C1610 H1634 0.950 . S
C1611 C1628 1.574 . S
C1611 C1630 1.368 1_565 S
C1611 H1635 0.949 . S
H1612 C1616 0.949 . S
C1613 C1614 1.349 1_565 S
C1613 C1615 1.327 . S
C1613 H1636 0.950 . S
C1614 C1613 1.349 1_545 S
C1614 C1626 1.349 . S
C1615 C1613 1.327 . S
C1615 C1631 1.429 1_565 S
C1615 H1637 0.950 . S
C1616 H1612 0.949 . S
C1616 C1624 1.574 . S
C1616 C1632 1.368 . S
H1617 C1625 0.950 . S
H1618 C1623 0.950 . S
H1619 C1624 0.949 . S
H1620 C1626 0.950 . S
H1621 C1627 0.950 . S
H1622 C1628 0.949 . S
C1623 H1618 0.950 . S
C1623 C1625 1.327 . S
C1623 C1629 1.429 1_565 S
C1624 C1616 1.574 . S
C1624 H1619 0.949 . S
C1624 C1630 1.368 . S
C1625 C1609 1.349 1_565 S
C1625 H1617 0.950 . S
C1625 C1623 1.327 . S
C1626 C1614 1.349 . S
C1626 H1620 0.950 . S
C1626 C1627 1.327 . S
C1627 H1621 0.950 . S
C1627 C1626 1.327 . S
C1627 C1631 1.429 . S
C1628 C1611 1.574 . S
C1628 H1622 0.949 . S
C1628 C1632 1.368 1_565 S
C1629 C1610 1.429 . S
C1629 C1623 1.429 1_545 S
C1629 C1630 1.523 . S
C1630 C1611 1.368 1_545 S
C1630 C1624 1.368 . S
C1630 C1629 1.523 . S
C1631 C1615 1.429 1_545 S
C1631 C1627 1.429 . S
C1631 C1632 1.523 . S
C1632 C1616 1.368 . S
C1632 C1628 1.368 1_545 S
C1632 C1631 1.523 . S
H1633 C1608 0.950 . S
H1634 C1610 0.950 . S
H1635 C1611 0.949 . S
H1636 C1613 0.950 . S
H1637 C1615 0.950 . S
C1638 C1639 1.349 . S
C1638 C1640 1.327 . S
C1638 H1663 0.950 . S
C1639 C1638 1.349 . S
C1639 C1655 1.349 1_545 S
C1640 C1638 1.327 . S
C1640 C1659 1.429 . S
C1640 H1664 0.950 . S
C1641 C1658 1.574 . S
C1641 C1660 1.368 1_565 S
C1641 H1665 0.949 . S
H1642 C1646 0.949 . S
C1643 C1644 1.349 1_565 S
C1643 C1645 1.327 . S
C1643 H1666 0.950 . S
C1644 C1643 1.349 1_545 S
C1644 C1656 1.349 . S
C1645 C1643 1.327 . S
C1645 C1661 1.429 1_565 S
C1645 H1667 0.950 . S
C1646 H1642 0.949 . S
C1646 C1654 1.574 . S
C1646 C1662 1.368 . S
H1647 C1655 0.950 . S
H1648 C1653 0.950 . S
H1649 C1654 0.949 . S
H1650 C1656 0.950 . S
H1651 C1657 0.950 . S
H1652 C1658 0.949 . S
C1653 H1648 0.950 . S
C1653 C1655 1.327 . S
C1653 C1659 1.429 1_565 S
C1654 C1646 1.574 . S
C1654 H1649 0.949 . S
C1654 C1660 1.368 . S
C1655 C1639 1.349 1_565 S
C1655 H1647 0.950 . S
C1655 C1653 1.327 . S
C1656 C1644 1.349 . S
C1656 H1650 0.950 . S
C1656 C1657 1.327 . S
C1657 H1651 0.950 . S
C1657 C1656 1.327 . S
C1657 C1661 1.429 . S
C1658 C1641 1.574 . S
C1658 H1652 0.949 . S
C1658 C1662 1.368 1_565 S
C1659 C1640 1.429 . S
C1659 C1653 1.429 1_545 S
C1659 C1660 1.523 . S
C1660 C1641 1.368 1_545 S
C1660 C1654 1.368 . S
C1660 C1659 1.523 . S
C1661 C1645 1.429 1_545 S
C1661 C1657 1.429 . S
C1661 C1662 1.523 . S
C1662 C1646 1.368 . S
C1662 C1658 1.368 1_545 S
C1662 C1661 1.523 . S
H1663 C1638 0.950 . S
H1664 C1640 0.950 . S
H1665 C1641 0.949 . S
H1666 C1643 0.950 . S
H1667 C1645 0.950 . S
C1668 C1669 1.349 1_655 S
C1668 C1670 1.327 . S
C1668 H1693 0.950 . S
C1669 C1668 1.349 1_455 S
C1669 C1685 1.349 . S
C1670 C1668 1.327 . S
C1670 C1689 1.429 1_655 S
C1670 H1694 0.950 . S
C1671 C1688 1.574 . S
C1671 C1690 1.368 . S
C1671 H1695 0.949 . S
H1672 C1676 0.949 . S
C1673 C1674 1.349 . S
C1673 C1675 1.327 . S
C1673 H1696 0.950 . S
C1674 C1673 1.349 . S
C1674 C1686 1.349 1_455 S
C1675 C1673 1.327 . S
C1675 C1691 1.429 . S
C1675 H1697 0.950 . S
C1676 H1672 0.949 . S
C1676 C1684 1.574 . S
C1676 C1692 1.368 1_655 S
H1677 C1685 0.950 . S
H1678 C1683 0.950 . S
H1679 C1684 0.949 . S
H1680 C1686 0.950 . S
H1681 C1687 0.950 . S
H1682 C1688 0.949 . S
C1683 H1678 0.950 . S
C1683 C1685 1.327 . S
C1683 C1689 1.429 . S
C1684 C1676 1.574 . S
C1684 H1679 0.949 . S
C1684 C1690 1.368 1_655 S
C1685 C1669 1.349 . S
C1685 H1677 0.950 . S
C1685 C1683 1.327 . S
C1686 C1674 1.349 1_655 S
C1686 H1680 0.950 . S
C1686 C1687 1.327 . S
C1687 H1681 0.950 . S
C1687 C1686 1.327 . S
C1687 C1691 1.429 1_655 S
C1688 C1671 1.574 . S
C1688 H1682 0.949 . S
C1688 C1692 1.368 . S
C1689 C1670 1.429 1_455 S
C1689 C1683 1.429 . S
C1689 C1690 1.523 . S
C1690 C1671 1.368 . S
C1690 C1684 1.368 1_455 S
C1690 C1689 1.523 . S
C1691 C1675 1.429 . S
C1691 C1687 1.429 1_455 S
C1691 C1692 1.523 . S
C1692 C1676 1.368 1_455 S
C1692 C1688 1.368 . S
C1692 C1691 1.523 . S
H1693 C1668 0.950 . S
H1694 C1670 0.950 . S
H1695 C1671 0.949 . S
H1696 C1673 0.950 . S
H1697 C1675 0.950 . S
C1698 C1699 1.349 . S
C1698 C1700 1.327 . S
C1698 H1723 0.950 . S
C1699 C1698 1.349 . S
C1699 C1715 1.349 . S
C1700 C1698 1.327 . S
C1700 C1719 1.429 . S
C1700 H1724 0.950 . S
C1701 C1718 1.574 . S
C1701 C1720 1.368 . S
C1701 H1725 0.949 . S
H1702 C1706 0.949 . S
C1703 C1704 1.349 . S
C1703 C1705 1.327 . S
C1703 H1726 0.950 . S
C1704 C1703 1.349 . S
C1704 C1716 1.349 . S
C1705 C1703 1.327 . S
C1705 C1721 1.429 . S
C1705 H1727 0.950 . S
C1706 H1702 0.949 . S
C1706 C1714 1.574 . S
C1706 C1722 1.368 . S
H1707 C1715 0.950 . S
H1708 C1713 0.950 . S
H1709 C1714 0.949 . S
H1710 C1716 0.950 . S
H1711 C1717 0.950 . S
H1712 C1718 0.949 . S
C1713 H1708 0.950 . S
C1713 C1715 1.327 . S
C1713 C1719 1.429 . S
C1714 C1706 1.574 . S
C1714 H1709 0.949 . S
C1714 C1720 1.368 . S
C1715 C1699 1.349 . S
C1715 H1707 0.950 . S
C1715 C1713 1.327 . S
C1716 C1704 1.349 . S
C1716 H1710 0.950 . S
C1716 C1717 1.327 . S
C1717 H1711 0.950 . S
C1717 C1716 1.327 . S
C1717 C1721 1.429 . S
C1718 C1701 1.574 . S
C1718 H1712 0.949 . S
C1718 C1722 1.368 . S
C1719 C1700 1.429 . S
C1719 C1713 1.429 . S
C1719 C1720 1.523 . S
C1720 C1701 1.368 . S
C1720 C1714 1.368 . S
C1720 C1719 1.523 . S
C1721 C1705 1.429 . S
C1721 C1717 1.429 . S
C1721 C1722 1.523 . S
C1722 C1706 1.368 . S
C1722 C1718 1.368 . S
C1722 C1721 1.523 . S
H1723 C1698 0.950 . S
H1724 C1700 0.950 . S
H1725 C1701 0.949 . S
H1726 C1703 0.950 . S
H1727 C1705 0.950 . S
C1728 C1729 1.349 . S
C1728 C1730 1.327 . S
C1728 H1753 0.950 . S
C1729 C1728 1.349 . S
C1729 C1745 1.349 . S
C1730 C1728 1.327 . S
C1730 C1749 1.429 . S
C1730 H1754 0.950 . S
C1731 C1748 1.574 . S
C1731 C1750 1.368 . S
C1731 H1755 0.949 . S
H1732 C1736 0.949 . S
C1733 C1734 1.349 . S
C1733 C1735 1.327 . S
C1733 H1756 0.950 . S
C1734 C1733 1.349 . S
C1734 C1746 1.349 . S
C1735 C1733 1.327 . S
C1735 C1751 1.429 . S
C1735 H1757 0.950 . S
C1736 H1732 0.949 . S
C1736 C1744 1.574 . S
C1736 C1752 1.368 . S
H1737 C1745 0.950 . S
H1738 C1743 0.950 . S
H1739 C1744 0.949 . S
H1740 C1746 0.950 . S
H1741 C1747 0.950 . S
H1742 C1748 0.949 . S
C1743 H1738 0.950 . S
C1743 C1745 1.327 . S
C1743 C1749 1.429 . S
C1744 C1736 1.574 . S
C1744 H1739 0.949 . S
C1744 C1750 1.368 . S
C1745 C1729 1.349 . S
C1745 H1737 0.950 . S
C1745 C1743 1.327 . S
C1746 C1734 1.349 . S
C1746 H1740 0.950 . S
C1746 C1747 1.327 . S
C1747 H1741 0.950 . S
C1747 C1746 1.327 . S
C1747 C1751 1.429 . S
C1748 C1731 1.574 . S
C1748 H1742 0.949 . S
C1748 C1752 1.368 . S
C1749 C1730 1.429 . S
C1749 C1743 1.429 . S
C1749 C1750 1.523 . S
C1750 C1731 1.368 . S
C1750 C1744 1.368 . S
C1750 C1749 1.523 . S
C1751 C1735 1.429 . S
C1751 C1747 1.429 . S
C1751 C1752 1.523 . S
C1752 C1736 1.368 . S
C1752 C1748 1.368 . S
C1752 C1751 1.523 . S
H1753 C1728 0.950 . S
H1754 C1730 0.950 . S
H1755 C1731 0.949 . S
H1756 C1733 0.950 . S
H1757 C1735 0.950 . S
C1758 C1759 1.349 . S
C1758 C1760 1.327 . S
C1758 H1783 0.950 . S
C1759 C1758 1.349 . S
C1759 C1775 1.349 . S
C1760 C1758 1.327 . S
C1760 C1779 1.429 . S
C1760 H1784 0.950 . S
C1761 C1778 1.574 . S
C1761 C1780 1.368 . S
C1761 H1785 0.949 . S
H1762 C1766 0.949 . S
C1763 C1764 1.349 . S
C1763 C1765 1.327 . S
C1763 H1786 0.950 . S
C1764 C1763 1.349 . S
C1764 C1776 1.349 . S
C1765 C1763 1.327 . S
C1765 C1781 1.429 . S
C1765 H1787 0.950 . S
C1766 H1762 0.949 . S
C1766 C1774 1.574 . S
C1766 C1782 1.368 . S
H1767 C1775 0.950 . S
H1768 C1773 0.950 . S
H1769 C1774 0.949 . S
H1770 C1776 0.950 . S
H1771 C1777 0.950 . S
H1772 C1778 0.949 . S
C1773 H1768 0.950 . S
C1773 C1775 1.327 . S
C1773 C1779 1.429 . S
C1774 C1766 1.574 . S
C1774 H1769 0.949 . S
C1774 C1780 1.368 . S
C1775 C1759 1.349 . S
C1775 H1767 0.950 . S
C1775 C1773 1.327 . S
C1776 C1764 1.349 . S
C1776 H1770 0.950 . S
C1776 C1777 1.327 . S
C1777 H1771 0.950 . S
C1777 C1776 1.327 . S
C1777 C1781 1.429 . S
C1778 C1761 1.574 . S
C1778 H1772 0.949 . S
C1778 C1782 1.368 . S
C1779 C1760 1.429 . S
C1779 C1773 1.429 . S
C1779 C1780 1.523 . S
C1780 C1761 1.368 . S
C1780 C1774 1.368 . S
C1780 C1779 1.523 . S
C1781 C1765 1.429 . S
C1781 C1777 1.429 . S
C1781 C1782 1.523 . S
C1782 C1766 1.368 . S
C1782 C1778 1.368 . S
C1782 C1781 1.523 . S
H1783 C1758 0.950 . S
H1784 C1760 0.950 . S
H1785 C1761 0.949 . S
H1786 C1763 0.950 . S
H1787 C1765 0.950 . S
C1788 C1789 1.349 . S
C1788 C1790 1.327 . S
C1788 H1813 0.950 . S
C1789 C1788 1.349 . S
C1789 C1805 1.349 . S
C1790 C1788 1.327 . S
C1790 C1809 1.429 . S
C1790 H1814 0.950 . S
C1791 C1808 1.574 . S
C1791 C1810 1.368 . S
C1791 H1815 0.949 . S
H1792 C1796 0.949 . S
C1793 C1794 1.349 . S
C1793 C1795 1.327 . S
C1793 H1816 0.950 . S
C1794 C1793 1.349 . S
C1794 C1806 1.349 . S
C1795 C1793 1.327 . S
C1795 C1811 1.429 . S
C1795 H1817 0.950 . S
C1796 H1792 0.949 . S
C1796 C1804 1.574 . S
C1796 C1812 1.368 . S
H1797 C1805 0.950 . S
H1798 C1803 0.950 . S
H1799 C1804 0.949 . S
H1800 C1806 0.950 . S
H1801 C1807 0.950 . S
H1802 C1808 0.949 . S
C1803 H1798 0.950 . S
C1803 C1805 1.327 . S
C1803 C1809 1.429 . S
C1804 C1796 1.574 . S
C1804 H1799 0.949 . S
C1804 C1810 1.368 . S
C1805 C1789 1.349 . S
C1805 H1797 0.950 . S
C1805 C1803 1.327 . S
C1806 C1794 1.349 . S
C1806 H1800 0.950 . S
C1806 C1807 1.327 . S
C1807 H1801 0.950 . S
C1807 C1806 1.327 . S
C1807 C1811 1.429 . S
C1808 C1791 1.574 . S
C1808 H1802 0.949 . S
C1808 C1812 1.368 . S
C1809 C1790 1.429 . S
C1809 C1803 1.429 . S
C1809 C1810 1.523 . S
C1810 C1791 1.368 . S
C1810 C1804 1.368 . S
C1810 C1809 1.523 . S
C1811 C1795 1.429 . S
C1811 C1807 1.429 . S
C1811 C1812 1.523 . S
C1812 C1796 1.368 . S
C1812 C1808 1.368 . S
C1812 C1811 1.523 . S
H1813 C1788 0.950 . S
H1814 C1790 0.950 . S
H1815 C1791 0.949 . S
H1816 C1793 0.950 . S
H1817 C1795 0.950 . S
C1818 C1819 1.349 . S
C1818 C1820 1.327 . S
C1818 H1843 0.950 . S
C1819 C1818 1.349 . S
C1819 C1835 1.349 . S
C1820 C1818 1.327 . S
C1820 C1839 1.429 . S
C1820 H1844 0.950 . S
C1821 C1838 1.574 . S
C1821 C1840 1.368 . S
C1821 H1845 0.949 . S
H1822 C1826 0.949 . S
C1823 C1824 1.349 . S
C1823 C1825 1.327 . S
C1823 H1846 0.950 . S
C1824 C1823 1.349 . S
C1824 C1836 1.349 . S
C1825 C1823 1.327 . S
C1825 C1841 1.429 . S
C1825 H1847 0.950 . S
C1826 H1822 0.949 . S
C1826 C1834 1.574 . S
C1826 C1842 1.368 . S
H1827 C1835 0.950 . S
H1828 C1833 0.950 . S
H1829 C1834 0.949 . S
H1830 C1836 0.950 . S
H1831 C1837 0.950 . S
H1832 C1838 0.949 . S
C1833 H1828 0.950 . S
C1833 C1835 1.327 . S
C1833 C1839 1.429 . S
C1834 C1826 1.574 . S
C1834 H1829 0.949 . S
C1834 C1840 1.368 . S
C1835 C1819 1.349 . S
C1835 H1827 0.950 . S
C1835 C1833 1.327 . S
C1836 C1824 1.349 . S
C1836 H1830 0.950 . S
C1836 C1837 1.327 . S
C1837 H1831 0.950 . S
C1837 C1836 1.327 . S
C1837 C1841 1.429 . S
C1838 C1821 1.574 . S
C1838 H1832 0.949 . S
C1838 C1842 1.368 . S
C1839 C1820 1.429 . S
C1839 C1833 1.429 . S
C1839 C1840 1.523 . S
C1840 C1821 1.368 . S
C1840 C1834 1.368 . S
C1840 C1839 1.523 . S
C1841 C1825 1.429 . S
C1841 C1837 1.429 . S
C1841 C1842 1.523 . S
C1842 C1826 1.368 . S
C1842 C1838 1.368 . S
C1842 C1841 1.523 . S
H1843 C1818 0.950 . S
H1844 C1820 0.950 . S
H1845 C1821 0.949 . S
H1846 C1823 0.950 . S
H1847 C1825 0.950 . S
C1848 C1849 1.349 . S
C1848 C1850 1.327 . S
C1848 H1873 0.950 . S
C1849 C1848 1.349 . S
C1849 C1865 1.349 . S
C1850 C1848 1.327 . S
C1850 C1869 1.429 . S
C1850 H1874 0.950 . S
C1851 C1868 1.574 . S
C1851 C1870 1.368 . S
C1851 H1875 0.949 . S
H1852 C1856 0.949 . S
C1853 C1854 1.349 . S
C1853 C1855 1.327 . S
C1853 H1876 0.950 . S
C1854 C1853 1.349 . S
C1854 C1866 1.349 . S
C1855 C1853 1.327 . S
C1855 C1871 1.429 . S
C1855 H1877 0.950 . S
C1856 H1852 0.949 . S
C1856 C1864 1.574 . S
C1856 C1872 1.368 . S
H1857 C1865 0.950 . S
H1858 C1863 0.950 . S
H1859 C1864 0.949 . S
H1860 C1866 0.950 . S
H1861 C1867 0.950 . S
H1862 C1868 0.949 . S
C1863 H1858 0.950 . S
C1863 C1865 1.327 . S
C1863 C1869 1.429 . S
C1864 C1856 1.574 . S
C1864 H1859 0.949 . S
C1864 C1870 1.368 . S
C1865 C1849 1.349 . S
C1865 H1857 0.950 . S
C1865 C1863 1.327 . S
C1866 C1854 1.349 . S
C1866 H1860 0.950 . S
C1866 C1867 1.327 . S
C1867 H1861 0.950 . S
C1867 C1866 1.327 . S
C1867 C1871 1.429 . S
C1868 C1851 1.574 . S
C1868 H1862 0.949 . S
C1868 C1872 1.368 . S
C1869 C1850 1.429 . S
C1869 C1863 1.429 . S
C1869 C1870 1.523 . S
C1870 C1851 1.368 . S
C1870 C1864 1.368 . S
C1870 C1869 1.523 . S
C1871 C1855 1.429 . S
C1871 C1867 1.429 . S
C1871 C1872 1.523 . S
C1872 C1856 1.368 . S
C1872 C1868 1.368 . S
C1872 C1871 1.523 . S
H1873 C1848 0.950 . S
H1874 C1850 0.950 . S
H1875 C1851 0.949 . S
H1876 C1853 0.950 . S
H1877 C1855 0.950 . S
C1878 C1879 1.349 . S
C1878 C1880 1.327 . S
C1878 H1903 0.950 . S
C1879 C1878 1.349 . S
C1879 C1895 1.349 . S
C1880 C1878 1.327 . S
C1880 C1899 1.429 . S
C1880 H1904 0.950 . S
C1881 C1898 1.574 . S
C1881 C1900 1.368 . S
C1881 H1905 0.949 . S
H1882 C1886 0.949 . S
C1883 C1884 1.349 . S
C1883 C1885 1.327 . S
C1883 H1906 0.950 . S
C1884 C1883 1.349 . S
C1884 C1896 1.349 . S
C1885 C1883 1.327 . S
C1885 C1901 1.429 . S
C1885 H1907 0.950 . S
C1886 H1882 0.949 . S
C1886 C1894 1.574 . S
C1886 C1902 1.368 . S
H1887 C1895 0.950 . S
H1888 C1893 0.950 . S
H1889 C1894 0.949 . S
H1890 C1896 0.950 . S
H1891 C1897 0.950 . S
H1892 C1898 0.949 . S
C1893 H1888 0.950 . S
C1893 C1895 1.327 . S
C1893 C1899 1.429 . S
C1894 C1886 1.574 . S
C1894 H1889 0.949 . S
C1894 C1900 1.368 . S
C1895 C1879 1.349 . S
C1895 H1887 0.950 . S
C1895 C1893 1.327 . S
C1896 C1884 1.349 . S
C1896 H1890 0.950 . S
C1896 C1897 1.327 . S
C1897 H1891 0.950 . S
C1897 C1896 1.327 . S
C1897 C1901 1.429 . S
C1898 C1881 1.574 . S
C1898 H1892 0.949 . S
C1898 C1902 1.368 . S
C1899 C1880 1.429 . S
C1899 C1893 1.429 . S
C1899 C1900 1.523 . S
C1900 C1881 1.368 . S
C1900 C1894 1.368 . S
C1900 C1899 1.523 . S
C1901 C1885 1.429 . S
C1901 C1897 1.429 . S
C1901 C1902 1.523 . S
C1902 C1886 1.368 . S
C1902 C1898 1.368 . S
C1902 C1901 1.523 . S
H1903 C1878 0.950 . S
H1904 C1880 0.950 . S
H1905 C1881 0.949 . S
H1906 C1883 0.950 . S
H1907 C1885 0.950 . S
C1908 C1909 1.349 . S
C1908 C1910 1.327 . S
C1908 H1933 0.950 . S
C1909 C1908 1.349 . S
C1909 C1925 1.349 . S
C1910 C1908 1.327 . S
C1910 C1929 1.429 . S
C1910 H1934 0.950 . S
C1911 C1928 1.574 . S
C1911 C1930 1.368 . S
C1911 H1935 0.949 . S
H1912 C1916 0.949 . S
C1913 C1914 1.349 . S
C1913 C1915 1.327 . S
C1913 H1936 0.950 . S
C1914 C1913 1.349 . S
C1914 C1926 1.349 . S
C1915 C1913 1.327 . S
C1915 C1931 1.429 . S
C1915 H1937 0.950 . S
C1916 H1912 0.949 . S
C1916 C1924 1.574 . S
C1916 C1932 1.368 . S
H1917 C1925 0.950 . S
H1918 C1923 0.950 . S
H1919 C1924 0.949 . S
H1920 C1926 0.950 . S
H1921 C1927 0.950 . S
H1922 C1928 0.949 . S
C1923 H1918 0.950 . S
C1923 C1925 1.327 . S
C1923 C1929 1.429 . S
C1924 C1916 1.574 . S
C1924 H1919 0.949 . S
C1924 C1930 1.368 . S
C1925 C1909 1.349 . S
C1925 H1917 0.950 . S
C1925 C1923 1.327 . S
C1926 C1914 1.349 . S
C1926 H1920 0.950 . S
C1926 C1927 1.327 . S
C1927 H1921 0.950 . S
C1927 C1926 1.327 . S
C1927 C1931 1.429 . S
C1928 C1911 1.574 . S
C1928 H1922 0.949 . S
C1928 C1932 1.368 . S
C1929 C1910 1.429 . S
C1929 C1923 1.429 . S
C1929 C1930 1.523 . S
C1930 C1911 1.368 . S
C1930 C1924 1.368 . S
C1930 C1929 1.523 . S
C1931 C1915 1.429 . S
C1931 C1927 1.429 . S
C1931 C1932 1.523 . S
C1932 C1916 1.368 . S
C1932 C1928 1.368 . S
C1932 C1931 1.523 . S
H1933 C1908 0.950 . S
H1934 C1910 0.950 . S
H1935 C1911 0.949 . S
H1936 C1913 0.950 . S
H1937 C1915 0.950 . S
C1938 C1939 1.349 . S
C1938 C1940 1.327 . S
C1938 H1963 0.950 . S
C1939 C1938 1.349 . S
C1939 C1955 1.349 . S
C1940 C1938 1.327 . S
C1940 C1959 1.429 . S
C1940 H1964 0.950 . S
C1941 C1958 1.574 . S
C1941 C1960 1.368 . S
C1941 H1965 0.949 . S
H1942 C1946 0.949 . S
C1943 C1944 1.349 . S
C1943 C1945 1.327 . S
C1943 H1966 0.950 . S
C1944 C1943 1.349 . S
C1944 C1956 1.349 . S
C1945 C1943 1.327 . S
C1945 C1961 1.429 . S
C1945 H1967 0.950 . S
C1946 H1942 0.949 . S
C1946 C1954 1.574 . S
C1946 C1962 1.368 . S
H1947 C1955 0.950 . S
H1948 C1953 0.950 . S
H1949 C1954 0.949 . S
H1950 C1956 0.950 . S
H1951 C1957 0.950 . S
H1952 C1958 0.949 . S
C1953 H1948 0.950 . S
C1953 C1955 1.327 . S
C1953 C1959 1.429 . S
C1954 C1946 1.574 . S
C1954 H1949 0.949 . S
C1954 C1960 1.368 . S
C1955 C1939 1.349 . S
C1955 H1947 0.950 . S
C1955 C1953 1.327 . S
C1956 C1944 1.349 . S
C1956 H1950 0.950 . S
C1956 C1957 1.327 . S
C1957 H1951 0.950 . S
C1957 C1956 1.327 . S
C1957 C1961 1.429 . S
C1958 C1941 1.574 . S
C1958 H1952 0.949 . S
C1958 C1962 1.368 . S
C1959 C1940 1.429 . S
C1959 C1953 1.429 . S
C1959 C1960 1.523 . S
C1960 C1941 1.368 . S
C1960 C1954 1.368 . S
C1960 C1959 1.523 . S
C1961 C1945 1.429 . S
C1961 C1957 1.429 . S
C1961 C1962 1.523 . S
C1962 C1946 1.368 . S
C1962 C1958 1.368 . S
C1962 C1961 1.523 . S
H1963 C1938 0.950 . S
H1964 C1940 0.950 . S
H1965 C1941 0.949 . S
H1966 C1943 0.950 . S
H1967 C1945 0.950 . S
C1968 C1969 1.349 . S
C1968 C1970 1.327 . S
C1968 H1993 0.950 . S
C1969 C1968 1.349 . S
C1969 C1985 1.349 . S
C1970 C1968 1.327 . S
C1970 C1989 1.429 . S
C1970 H1994 0.950 . S
C1971 C1988 1.574 . S
C1971 C1990 1.368 . S
C1971 H1995 0.949 . S
H1972 C1976 0.949 . S
C1973 C1974 1.349 . S
C1973 C1975 1.327 . S
C1973 H1996 0.950 . S
C1974 C1973 1.349 . S
C1974 C1986 1.349 . S
C1975 C1973 1.327 . S
C1975 C1991 1.429 . S
C1975 H1997 0.950 . S
C1976 H1972 0.949 . S
C1976 C1984 1.574 . S
C1976 C1992 1.368 . S
H1977 C1985 0.950 . S
H1978 C1983 0.950 . S
H1979 C1984 0.949 . S
H1980 C1986 0.950 . S
H1981 C1987 0.950 . S
H1982 C1988 0.949 . S
C1983 H1978 0.950 . S
C1983 C1985 1.327 . S
C1983 C1989 1.429 . S
C1984 C1976 1.574 . S
C1984 H1979 0.949 . S
C1984 C1990 1.368 . S
C1985 C1969 1.349 . S
C1985 H1977 0.950 . S
C1985 C1983 1.327 . S
C1986 C1974 1.349 . S
C1986 H1980 0.950 . S
C1986 C1987 1.327 . S
C1987 H1981 0.950 . S
C1987 C1986 1.327 . S
C1987 C1991 1.429 . S
C1988 C1971 1.574 . S
C1988 H1982 0.949 . S
C1988 C1992 1.368 . S
C1989 C1970 1.429 . S
C1989 C1983 1.429 . S
C1989 C1990 1.523 . S
C1990 C1971 1.368 . S
C1990 C1984 1.368 . S
C1990 C1989 1.523 . S
C1991 C1975 1.429 . S
C1991 C1987 1.429 . S
C1991 C1992 1.523 . S
C1992 C1976 1.368 . S
C1992 C1988 1.368 . S
C1992 C1991 1.523 . S
H1993 C1968 0.950 . S
H1994 C1970 0.950 . S
H1995 C1971 0.949 . S
H1996 C1973 0.950 . S
H1997 C1975 0.950 . S
C1998 C1999 1.349 . S
C1998 C2000 1.327 . S
C1998 H2023 0.950 . S
C1999 C1998 1.349 . S
C1999 C2015 1.349 . S
C2000 C1998 1.327 . S
C2000 C2019 1.429 . S
C2000 H2024 0.950 . S
C2001 C2018 1.574 . S
C2001 C2020 1.368 . S
C2001 H2025 0.949 . S
H2002 C2006 0.949 . S
C2003 C2004 1.349 . S
C2003 C2005 1.327 . S
C2003 H2026 0.950 . S
C2004 C2003 1.349 . S
C2004 C2016 1.349 . S
C2005 C2003 1.327 . S
C2005 C2021 1.429 . S
C2005 H2027 0.950 . S
C2006 H2002 0.949 . S
C2006 C2014 1.574 . S
C2006 C2022 1.368 . S
H2007 C2015 0.950 . S
H2008 C2013 0.950 . S
H2009 C2014 0.949 . S
H2010 C2016 0.950 . S
H2011 C2017 0.950 . S
H2012 C2018 0.949 . S
C2013 H2008 0.950 . S
C2013 C2015 1.327 . S
C2013 C2019 1.429 . S
C2014 C2006 1.574 . S
C2014 H2009 0.949 . S
C2014 C2020 1.368 . S
C2015 C1999 1.349 . S
C2015 H2007 0.950 . S
C2015 C2013 1.327 . S
C2016 C2004 1.349 . S
C2016 H2010 0.950 . S
C2016 C2017 1.327 . S
C2017 H2011 0.950 . S
C2017 C2016 1.327 . S
C2017 C2021 1.429 . S
C2018 C2001 1.574 . S
C2018 H2012 0.949 . S
C2018 C2022 1.368 . S
C2019 C2000 1.429 . S
C2019 C2013 1.429 . S
C2019 C2020 1.523 . S
C2020 C2001 1.368 . S
C2020 C2014 1.368 . S
C2020 C2019 1.523 . S
C2021 C2005 1.429 . S
C2021 C2017 1.429 . S
C2021 C2022 1.523 . S
C2022 C2006 1.368 . S
C2022 C2018 1.368 . S
C2022 C2021 1.523 . S
H2023 C1998 0.950 . S
H2024 C2000 0.950 . S
H2025 C2001 0.949 . S
H2026 C2003 0.950 . S
H2027 C2005 0.950 . S
C2028 C2029 1.349 . S
C2028 C2030 1.327 . S
C2028 H2053 0.950 . S
C2029 C2028 1.349 . S
C2029 C2045 1.349 . S
C2030 C2028 1.327 . S
C2030 C2049 1.429 . S
C2030 H2054 0.950 . S
C2031 C2048 1.574 . S
C2031 C2050 1.368 . S
C2031 H2055 0.949 . S
H2032 C2036 0.949 . S
C2033 C2034 1.349 . S
C2033 C2035 1.327 . S
C2033 H2056 0.950 . S
C2034 C2033 1.349 . S
C2034 C2046 1.349 . S
C2035 C2033 1.327 . S
C2035 C2051 1.429 . S
C2035 H2057 0.950 . S
C2036 H2032 0.949 . S
C2036 C2044 1.574 . S
C2036 C2052 1.368 . S
H2037 C2045 0.950 . S
H2038 C2043 0.950 . S
H2039 C2044 0.949 . S
H2040 C2046 0.950 . S
H2041 C2047 0.950 . S
H2042 C2048 0.949 . S
C2043 H2038 0.950 . S
C2043 C2045 1.327 . S
C2043 C2049 1.429 . S
C2044 C2036 1.574 . S
C2044 H2039 0.949 . S
C2044 C2050 1.368 . S
C2045 C2029 1.349 . S
C2045 H2037 0.950 . S
C2045 C2043 1.327 . S
C2046 C2034 1.349 . S
C2046 H2040 0.950 . S
C2046 C2047 1.327 . S
C2047 H2041 0.950 . S
C2047 C2046 1.327 . S
C2047 C2051 1.429 . S
C2048 C2031 1.574 . S
C2048 H2042 0.949 . S
C2048 C2052 1.368 . S
C2049 C2030 1.429 . S
C2049 C2043 1.429 . S
C2049 C2050 1.523 . S
C2050 C2031 1.368 . S
C2050 C2044 1.368 . S
C2050 C2049 1.523 . S
C2051 C2035 1.429 . S
C2051 C2047 1.429 . S
C2051 C2052 1.523 . S
C2052 C2036 1.368 . S
C2052 C2048 1.368 . S
C2052 C2051 1.523 . S
H2053 C2028 0.950 . S
H2054 C2030 0.950 . S
H2055 C2031 0.949 . S
H2056 C2033 0.950 . S
H2057 C2035 0.950 . S
C2058 C2059 1.349 . S
C2058 C2060 1.327 . S
C2058 H2083 0.950 . S
C2059 C2058 1.349 . S
C2059 C2075 1.349 . S
C2060 C2058 1.327 . S
C2060 C2079 1.429 . S
C2060 H2084 0.950 . S
C2061 C2078 1.574 . S
C2061 C2080 1.368 . S
C2061 H2085 0.949 . S
H2062 C2066 0.949 . S
C2063 C2064 1.349 . S
C2063 C2065 1.327 . S
C2063 H2086 0.950 . S
C2064 C2063 1.349 . S
C2064 C2076 1.349 . S
C2065 C2063 1.327 . S
C2065 C2081 1.429 . S
C2065 H2087 0.950 . S
C2066 H2062 0.949 . S
C2066 C2074 1.574 . S
C2066 C2082 1.368 . S
H2067 C2075 0.950 . S
H2068 C2073 0.950 . S
H2069 C2074 0.949 . S
H2070 C2076 0.950 . S
H2071 C2077 0.950 . S
H2072 C2078 0.949 . S
C2073 H2068 0.950 . S
C2073 C2075 1.327 . S
C2073 C2079 1.429 . S
C2074 C2066 1.574 . S
C2074 H2069 0.949 . S
C2074 C2080 1.368 . S
C2075 C2059 1.349 . S
C2075 H2067 0.950 . S
C2075 C2073 1.327 . S
C2076 C2064 1.349 . S
C2076 H2070 0.950 . S
C2076 C2077 1.327 . S
C2077 H2071 0.950 . S
C2077 C2076 1.327 . S
C2077 C2081 1.429 . S
C2078 C2061 1.574 . S
C2078 H2072 0.949 . S
C2078 C2082 1.368 . S
C2079 C2060 1.429 . S
C2079 C2073 1.429 . S
C2079 C2080 1.523 . S
C2080 C2061 1.368 . S
C2080 C2074 1.368 . S
C2080 C2079 1.523 . S
C2081 C2065 1.429 . S
C2081 C2077 1.429 . S
C2081 C2082 1.523 . S
C2082 C2066 1.368 . S
C2082 C2078 1.368 . S
C2082 C2081 1.523 . S
H2083 C2058 0.950 . S
H2084 C2060 0.950 . S
H2085 C2061 0.949 . S
H2086 C2063 0.950 . S
H2087 C2065 0.950 . S
C2088 C2089 1.349 . S
C2088 C2090 1.327 . S
C2088 H2113 0.950 . S
C2089 C2088 1.349 . S
C2089 C2105 1.349 . S
C2090 C2088 1.327 . S
C2090 C2109 1.429 . S
C2090 H2114 0.950 . S
C2091 C2108 1.574 . S
C2091 C2110 1.368 . S
C2091 H2115 0.949 . S
H2092 C2096 0.949 . S
C2093 C2094 1.349 . S
C2093 C2095 1.327 . S
C2093 H2116 0.950 . S
C2094 C2093 1.349 . S
C2094 C2106 1.349 . S
C2095 C2093 1.327 . S
C2095 C2111 1.429 . S
C2095 H2117 0.950 . S
C2096 H2092 0.949 . S
C2096 C2104 1.574 . S
C2096 C2112 1.368 . S
H2097 C2105 0.950 . S
H2098 C2103 0.950 . S
H2099 C2104 0.949 . S
H2100 C2106 0.950 . S
H2101 C2107 0.950 . S
H2102 C2108 0.949 . S
C2103 H2098 0.950 . S
C2103 C2105 1.327 . S
C2103 C2109 1.429 . S
C2104 C2096 1.574 . S
C2104 H2099 0.949 . S
C2104 C2110 1.368 . S
C2105 C2089 1.349 . S
C2105 H2097 0.950 . S
C2105 C2103 1.327 . S
C2106 C2094 1.349 . S
C2106 H2100 0.950 . S
C2106 C2107 1.327 . S
C2107 H2101 0.950 . S
C2107 C2106 1.327 . S
C2107 C2111 1.429 . S
C2108 C2091 1.574 . S
C2108 H2102 0.949 . S
C2108 C2112 1.368 . S
C2109 C2090 1.429 . S
C2109 C2103 1.429 . S
C2109 C2110 1.523 . S
C2110 C2091 1.368 . S
C2110 C2104 1.368 . S
C2110 C2109 1.523 . S
C2111 C2095 1.429 . S
C2111 C2107 1.429 . S
C2111 C2112 1.523 . S
C2112 C2096 1.368 . S
C2112 C2108 1.368 . S
C2112 C2111 1.523 . S
H2113 C2088 0.950 . S
H2114 C2090 0.950 . S
H2115 C2091 0.949 . S
H2116 C2093 0.950 . S
H2117 C2095 0.950 . S
C2118 C2119 1.349 . S
C2118 C2120 1.327 . S
C2118 H2143 0.950 . S
C2119 C2118 1.349 . S
C2119 C2135 1.349 . S
C2120 C2118 1.327 . S
C2120 C2139 1.429 . S
C2120 H2144 0.950 . S
C2121 C2138 1.574 . S
C2121 C2140 1.368 . S
C2121 H2145 0.949 . S
H2122 C2126 0.949 . S
C2123 C2124 1.349 . S
C2123 C2125 1.327 . S
C2123 H2146 0.950 . S
C2124 C2123 1.349 . S
C2124 C2136 1.349 . S
C2125 C2123 1.327 . S
C2125 C2141 1.429 . S
C2125 H2147 0.950 . S
C2126 H2122 0.949 . S
C2126 C2134 1.574 . S
C2126 C2142 1.368 . S
H2127 C2135 0.950 . S
H2128 C2133 0.950 . S
H2129 C2134 0.949 . S
H2130 C2136 0.950 . S
H2131 C2137 0.950 . S
H2132 C2138 0.949 . S
C2133 H2128 0.950 . S
C2133 C2135 1.327 . S
C2133 C2139 1.429 . S
C2134 C2126 1.574 . S
C2134 H2129 0.949 . S
C2134 C2140 1.368 . S
C2135 C2119 1.349 . S
C2135 H2127 0.950 . S
C2135 C2133 1.327 . S
C2136 C2124 1.349 . S
C2136 H2130 0.950 . S
C2136 C2137 1.327 . S
C2137 H2131 0.950 . S
C2137 C2136 1.327 . S
C2137 C2141 1.429 . S
C2138 C2121 1.574 . S
C2138 H2132 0.949 . S
C2138 C2142 1.368 . S
C2139 C2120 1.429 . S
C2139 C2133 1.429 . S
C2139 C2140 1.523 . S
C2140 C2121 1.368 . S
C2140 C2134 1.368 . S
C2140 C2139 1.523 . S
C2141 C2125 1.429 . S
C2141 C2137 1.429 . S
C2141 C2142 1.523 . S
C2142 C2126 1.368 . S
C2142 C2138 1.368 . S
C2142 C2141 1.523 . S
H2143 C2118 0.950 . S
H2144 C2120 0.950 . S
H2145 C2121 0.949 . S
H2146 C2123 0.950 . S
H2147 C2125 0.950 . S
C2148 C2149 1.349 . S
C2148 C2150 1.327 . S
C2148 H2173 0.950 . S
C2149 C2148 1.349 . S
C2149 C2165 1.349 . S
C2150 C2148 1.327 . S
C2150 C2169 1.429 . S
C2150 H2174 0.950 . S
C2151 C2168 1.574 . S
C2151 C2170 1.368 . S
C2151 H2175 0.949 . S
H2152 C2156 0.949 . S
C2153 C2154 1.349 . S
C2153 C2155 1.327 . S
C2153 H2176 0.950 . S
C2154 C2153 1.349 . S
C2154 C2166 1.349 . S
C2155 C2153 1.327 . S
C2155 C2171 1.429 . S
C2155 H2177 0.950 . S
C2156 H2152 0.949 . S
C2156 C2164 1.574 . S
C2156 C2172 1.368 . S
H2157 C2165 0.950 . S
H2158 C2163 0.950 . S
H2159 C2164 0.949 . S
H2160 C2166 0.950 . S
H2161 C2167 0.950 . S
H2162 C2168 0.949 . S
C2163 H2158 0.950 . S
C2163 C2165 1.327 . S
C2163 C2169 1.429 . S
C2164 C2156 1.574 . S
C2164 H2159 0.949 . S
C2164 C2170 1.368 . S
C2165 C2149 1.349 . S
C2165 H2157 0.950 . S
C2165 C2163 1.327 . S
C2166 C2154 1.349 . S
C2166 H2160 0.950 . S
C2166 C2167 1.327 . S
C2167 H2161 0.950 . S
C2167 C2166 1.327 . S
C2167 C2171 1.429 . S
C2168 C2151 1.574 . S
C2168 H2162 0.949 . S
C2168 C2172 1.368 . S
C2169 C2150 1.429 . S
C2169 C2163 1.429 . S
C2169 C2170 1.523 . S
C2170 C2151 1.368 . S
C2170 C2164 1.368 . S
C2170 C2169 1.523 . S
C2171 C2155 1.429 . S
C2171 C2167 1.429 . S
C2171 C2172 1.523 . S
C2172 C2156 1.368 . S
C2172 C2168 1.368 . S
C2172 C2171 1.523 . S
H2173 C2148 0.950 . S
H2174 C2150 0.950 . S
H2175 C2151 0.949 . S
H2176 C2153 0.950 . S
H2177 C2155 0.950 . S
C2178 C2179 1.349 . S
C2178 C2180 1.327 . S
C2178 H2203 0.950 . S
C2179 C2178 1.349 . S
C2179 C2195 1.349 . S
C2180 C2178 1.327 . S
C2180 C2199 1.429 . S
C2180 H2204 0.950 . S
C2181 C2198 1.574 . S
C2181 C2200 1.368 . S
C2181 H2205 0.949 . S
H2182 C2186 0.949 . S
C2183 C2184 1.349 . S
C2183 C2185 1.327 . S
C2183 H2206 0.950 . S
C2184 C2183 1.349 . S
C2184 C2196 1.349 . S
C2185 C2183 1.327 . S
C2185 C2201 1.429 . S
C2185 H2207 0.950 . S
C2186 H2182 0.949 . S
C2186 C2194 1.574 . S
C2186 C2202 1.368 . S
H2187 C2195 0.950 . S
H2188 C2193 0.950 . S
H2189 C2194 0.949 . S
H2190 C2196 0.950 . S
H2191 C2197 0.950 . S
H2192 C2198 0.949 . S
C2193 H2188 0.950 . S
C2193 C2195 1.327 . S
C2193 C2199 1.429 . S
C2194 C2186 1.574 . S
C2194 H2189 0.949 . S
C2194 C2200 1.368 . S
C2195 C2179 1.349 . S
C2195 H2187 0.950 . S
C2195 C2193 1.327 . S
C2196 C2184 1.349 . S
C2196 H2190 0.950 . S
C2196 C2197 1.327 . S
C2197 H2191 0.950 . S
C2197 C2196 1.327 . S
C2197 C2201 1.429 . S
C2198 C2181 1.574 . S
C2198 H2192 0.949 . S
C2198 C2202 1.368 . S
C2199 C2180 1.429 . S
C2199 C2193 1.429 . S
C2199 C2200 1.523 . S
C2200 C2181 1.368 . S
C2200 C2194 1.368 . S
C2200 C2199 1.523 . S
C2201 C2185 1.429 . S
C2201 C2197 1.429 . S
C2201 C2202 1.523 . S
C2202 C2186 1.368 . S
C2202 C2198 1.368 . S
C2202 C2201 1.523 . S
H2203 C2178 0.950 . S
H2204 C2180 0.950 . S
H2205 C2181 0.949 . S
H2206 C2183 0.950 . S
H2207 C2185 0.950 . S
C2208 C2209 1.349 . S
C2208 C2210 1.327 . S
C2208 H2233 0.950 . S
C2209 C2208 1.349 . S
C2209 C2225 1.349 . S
C2210 C2208 1.327 . S
C2210 C2229 1.429 . S
C2210 H2234 0.950 . S
C2211 C2228 1.574 . S
C2211 C2230 1.368 . S
C2211 H2235 0.949 . S
H2212 C2216 0.949 . S
C2213 C2214 1.349 . S
C2213 C2215 1.327 . S
C2213 H2236 0.950 . S
C2214 C2213 1.349 . S
C2214 C2226 1.349 . S
C2215 C2213 1.327 . S
C2215 C2231 1.429 . S
C2215 H2237 0.950 . S
C2216 H2212 0.949 . S
C2216 C2224 1.574 . S
C2216 C2232 1.368 . S
H2217 C2225 0.950 . S
H2218 C2223 0.950 . S
H2219 C2224 0.949 . S
H2220 C2226 0.950 . S
H2221 C2227 0.950 . S
H2222 C2228 0.949 . S
C2223 H2218 0.950 . S
C2223 C2225 1.327 . S
C2223 C2229 1.429 . S
C2224 C2216 1.574 . S
C2224 H2219 0.949 . S
C2224 C2230 1.368 . S
C2225 C2209 1.349 . S
C2225 H2217 0.950 . S
C2225 C2223 1.327 . S
C2226 C2214 1.349 . S
C2226 H2220 0.950 . S
C2226 C2227 1.327 . S
C2227 H2221 0.950 . S
C2227 C2226 1.327 . S
C2227 C2231 1.429 . S
C2228 C2211 1.574 . S
C2228 H2222 0.949 . S
C2228 C2232 1.368 . S
C2229 C2210 1.429 . S
C2229 C2223 1.429 . S
C2229 C2230 1.523 . S
C2230 C2211 1.368 . S
C2230 C2224 1.368 . S
C2230 C2229 1.523 . S
C2231 C2215 1.429 . S
C2231 C2227 1.429 . S
C2231 C2232 1.523 . S
C2232 C2216 1.368 . S
C2232 C2228 1.368 . S
C2232 C2231 1.523 . S
H2233 C2208 0.950 . S
H2234 C2210 0.950 . S
H2235 C2211 0.949 . S
H2236 C2213 0.950 . S
H2237 C2215 0.950 . S
C2238 C2239 1.349 . S
C2238 C2240 1.327 . S
C2238 H2263 0.950 . S
C2239 C2238 1.349 . S
C2239 C2255 1.349 . S
C2240 C2238 1.327 . S
C2240 C2259 1.429 . S
C2240 H2264 0.950 . S
C2241 C2258 1.574 . S
C2241 C2260 1.368 . S
C2241 H2265 0.949 . S
H2242 C2246 0.949 . S
C2243 C2244 1.349 . S
C2243 C2245 1.327 . S
C2243 H2266 0.950 . S
C2244 C2243 1.349 . S
C2244 C2256 1.349 . S
C2245 C2243 1.327 . S
C2245 C2261 1.429 . S
C2245 H2267 0.950 . S
C2246 H2242 0.949 . S
C2246 C2254 1.574 . S
C2246 C2262 1.368 . S
H2247 C2255 0.950 . S
H2248 C2253 0.950 . S
H2249 C2254 0.949 . S
H2250 C2256 0.950 . S
H2251 C2257 0.950 . S
H2252 C2258 0.949 . S
C2253 H2248 0.950 . S
C2253 C2255 1.327 . S
C2253 C2259 1.429 . S
C2254 C2246 1.574 . S
C2254 H2249 0.949 . S
C2254 C2260 1.368 . S
C2255 C2239 1.349 . S
C2255 H2247 0.950 . S
C2255 C2253 1.327 . S
C2256 C2244 1.349 . S
C2256 H2250 0.950 . S
C2256 C2257 1.327 . S
C2257 H2251 0.950 . S
C2257 C2256 1.327 . S
C2257 C2261 1.429 . S
C2258 C2241 1.574 . S
C2258 H2252 0.949 . S
C2258 C2262 1.368 . S
C2259 C2240 1.429 . S
C2259 C2253 1.429 . S
C2259 C2260 1.523 . S
C2260 C2241 1.368 . S
C2260 C2254 1.368 . S
C2260 C2259 1.523 . S
C2261 C2245 1.429 . S
C2261 C2257 1.429 . S
C2261 C2262 1.523 . S
C2262 C2246 1.368 . S
C2262 C2258 1.368 . S
C2262 C2261 1.523 . S
H2263 C2238 0.950 . S
H2264 C2240 0.950 . S
H2265 C2241 0.949 . S
H2266 C2243 0.950 . S
H2267 C2245 0.950 . S
C2268 C2269 1.349 . S
C2268 C2270 1.327 . S
C2268 H2293 0.950 . S
C2269 C2268 1.349 . S
C2269 C2285 1.349 . S
C2270 C2268 1.327 . S
C2270 C2289 1.429 . S
C2270 H2294 0.950 . S
C2271 C2288 1.574 . S
C2271 C2290 1.368 . S
C2271 H2295 0.949 . S
H2272 C2276 0.949 . S
C2273 C2274 1.349 . S
C2273 C2275 1.327 . S
C2273 H2296 0.950 . S
C2274 C2273 1.349 . S
C2274 C2286 1.349 . S
C2275 C2273 1.327 . S
C2275 C2291 1.429 . S
C2275 H2297 0.950 . S
C2276 H2272 0.949 . S
C2276 C2284 1.574 . S
C2276 C2292 1.368 . S
H2277 C2285 0.950 . S
H2278 C2283 0.950 . S
H2279 C2284 0.949 . S
H2280 C2286 0.950 . S
H2281 C2287 0.950 . S
H2282 C2288 0.949 . S
C2283 H2278 0.950 . S
C2283 C2285 1.327 . S
C2283 C2289 1.429 . S
C2284 C2276 1.574 . S
C2284 H2279 0.949 . S
C2284 C2290 1.368 . S
C2285 C2269 1.349 . S
C2285 H2277 0.950 . S
C2285 C2283 1.327 . S
C2286 C2274 1.349 . S
C2286 H2280 0.950 . S
C2286 C2287 1.327 . S
C2287 H2281 0.950 . S
C2287 C2286 1.327 . S
C2287 C2291 1.429 . S
C2288 C2271 1.574 . S
C2288 H2282 0.949 . S
C2288 C2292 1.368 . S
C2289 C2270 1.429 . S
C2289 C2283 1.429 . S
C2289 C2290 1.523 . S
C2290 C2271 1.368 . S
C2290 C2284 1.368 . S
C2290 C2289 1.523 . S
C2291 C2275 1.429 . S
C2291 C2287 1.429 . S
C2291 C2292 1.523 . S
C2292 C2276 1.368 . S
C2292 C2288 1.368 . S
C2292 C2291 1.523 . S
H2293 C2268 0.950 . S
H2294 C2270 0.950 . S
H2295 C2271 0.949 . S
H2296 C2273 0.950 . S
H2297 C2275 0.950 . S
C2298 C2299 1.349 . S
C2298 C2300 1.327 . S
C2298 H2323 0.950 . S
C2299 C2298 1.349 . S
C2299 C2315 1.349 . S
C2300 C2298 1.327 . S
C2300 C2319 1.429 . S
C2300 H2324 0.950 . S
C2301 C2318 1.574 . S
C2301 C2320 1.368 . S
C2301 H2325 0.949 . S
H2302 C2306 0.949 . S
C2303 C2304 1.349 . S
C2303 C2305 1.327 . S
C2303 H2326 0.950 . S
C2304 C2303 1.349 . S
C2304 C2316 1.349 . S
C2305 C2303 1.327 . S
C2305 C2321 1.429 . S
C2305 H2327 0.950 . S
C2306 H2302 0.949 . S
C2306 C2314 1.574 . S
C2306 C2322 1.368 . S
H2307 C2315 0.950 . S
H2308 C2313 0.950 . S
H2309 C2314 0.949 . S
H2310 C2316 0.950 . S
H2311 C2317 0.950 . S
H2312 C2318 0.949 . S
C2313 H2308 0.950 . S
C2313 C2315 1.327 . S
C2313 C2319 1.429 . S
C2314 C2306 1.574 . S
C2314 H2309 0.949 . S
C2314 C2320 1.368 . S
C2315 C2299 1.349 . S
C2315 H2307 0.950 . S
C2315 C2313 1.327 . S
C2316 C2304 1.349 . S
C2316 H2310 0.950 . S
C2316 C2317 1.327 . S
C2317 H2311 0.950 . S
C2317 C2316 1.327 . S
C2317 C2321 1.429 . S
C2318 C2301 1.574 . S
C2318 H2312 0.949 . S
C2318 C2322 1.368 . S
C2319 C2300 1.429 . S
C2319 C2313 1.429 . S
C2319 C2320 1.523 . S
C2320 C2301 1.368 . S
C2320 C2314 1.368 . S
C2320 C2319 1.523 . S
C2321 C2305 1.429 . S
C2321 C2317 1.429 . S
C2321 C2322 1.523 . S
C2322 C2306 1.368 . S
C2322 C2318 1.368 . S
C2322 C2321 1.523 . S
H2323 C2298 0.950 . S
H2324 C2300 0.950 . S
H2325 C2301 0.949 . S
H2326 C2303 0.950 . S
H2327 C2305 0.950 . S
C2328 C2329 1.349 . S
C2328 C2330 1.327 . S
C2328 H2353 0.950 . S
C2329 C2328 1.349 . S
C2329 C2345 1.349 . S
C2330 C2328 1.327 . S
C2330 C2349 1.429 . S
C2330 H2354 0.950 . S
C2331 C2348 1.574 . S
C2331 C2350 1.368 . S
C2331 H2355 0.949 . S
H2332 C2336 0.949 . S
C2333 C2334 1.349 . S
C2333 C2335 1.327 . S
C2333 H2356 0.950 . S
C2334 C2333 1.349 . S
C2334 C2346 1.349 . S
C2335 C2333 1.327 . S
C2335 C2351 1.429 . S
C2335 H2357 0.950 . S
C2336 H2332 0.949 . S
C2336 C2344 1.574 . S
C2336 C2352 1.368 . S
H2337 C2345 0.950 . S
H2338 C2343 0.950 . S
H2339 C2344 0.949 . S
H2340 C2346 0.950 . S
H2341 C2347 0.950 . S
H2342 C2348 0.949 . S
C2343 H2338 0.950 . S
C2343 C2345 1.327 . S
C2343 C2349 1.429 . S
C2344 C2336 1.574 . S
C2344 H2339 0.949 . S
C2344 C2350 1.368 . S
C2345 C2329 1.349 . S
C2345 H2337 0.950 . S
C2345 C2343 1.327 . S
C2346 C2334 1.349 . S
C2346 H2340 0.950 . S
C2346 C2347 1.327 . S
C2347 H2341 0.950 . S
C2347 C2346 1.327 . S
C2347 C2351 1.429 . S
C2348 C2331 1.574 . S
C2348 H2342 0.949 . S
C2348 C2352 1.368 . S
C2349 C2330 1.429 . S
C2349 C2343 1.429 . S
C2349 C2350 1.523 . S
C2350 C2331 1.368 . S
C2350 C2344 1.368 . S
C2350 C2349 1.523 . S
C2351 C2335 1.429 . S
C2351 C2347 1.429 . S
C2351 C2352 1.523 . S
C2352 C2336 1.368 . S
C2352 C2348 1.368 . S
C2352 C2351 1.523 . S
H2353 C2328 0.950 . S
H2354 C2330 0.950 . S
H2355 C2331 0.949 . S
H2356 C2333 0.950 . S
H2357 C2335 0.950 . S
C2358 C2359 1.349 . S
C2358 C2360 1.327 . S
C2358 H2383 0.950 . S
C2359 C2358 1.349 . S
C2359 C2375 1.349 . S
C2360 C2358 1.327 . S
C2360 C2379 1.429 . S
C2360 H2384 0.950 . S
C2361 C2378 1.574 . S
C2361 C2380 1.368 . S
C2361 H2385 0.949 . S
H2362 C2366 0.949 . S
C2363 C2364 1.349 . S
C2363 C2365 1.327 . S
C2363 H2386 0.950 . S
C2364 C2363 1.349 . S
C2364 C2376 1.349 . S
C2365 C2363 1.327 . S
C2365 C2381 1.429 . S
C2365 H2387 0.950 . S
C2366 H2362 0.949 . S
C2366 C2374 1.574 . S
C2366 C2382 1.368 . S
H2367 C2375 0.950 . S
H2368 C2373 0.950 . S
H2369 C2374 0.949 . S
H2370 C2376 0.950 . S
H2371 C2377 0.950 . S
H2372 C2378 0.949 . S
C2373 H2368 0.950 . S
C2373 C2375 1.327 . S
C2373 C2379 1.429 . S
C2374 C2366 1.574 . S
C2374 H2369 0.949 . S
C2374 C2380 1.368 . S
C2375 C2359 1.349 . S
C2375 H2367 0.950 . S
C2375 C2373 1.327 . S
C2376 C2364 1.349 . S
C2376 H2370 0.950 . S
C2376 C2377 1.327 . S
C2377 H2371 0.950 . S
C2377 C2376 1.327 . S
C2377 C2381 1.429 . S
C2378 C2361 1.574 . S
C2378 H2372 0.949 . S
C2378 C2382 1.368 . S
C2379 C2360 1.429 . S
C2379 C2373 1.429 . S
C2379 C2380 1.523 . S
C2380 C2361 1.368 . S
C2380 C2374 1.368 . S
C2380 C2379 1.523 . S
C2381 C2365 1.429 . S
C2381 C2377 1.429 . S
C2381 C2382 1.523 . S
C2382 C2366 1.368 . S
C2382 C2378 1.368 . S
C2382 C2381 1.523 . S
H2383 C2358 0.950 . S
H2384 C2360 0.950 . S
H2385 C2361 0.949 . S
H2386 C2363 0.950 . S
H2387 C2365 0.950 . S
C2388 C2389 1.349 . S
C2388 C2390 1.327 . S
C2388 H2413 0.950 . S
C2389 C2388 1.349 . S
C2389 C2405 1.349 . S
C2390 C2388 1.327 . S
C2390 C2409 1.429 . S
C2390 H2414 0.950 . S
C2391 C2408 1.574 . S
C2391 C2410 1.368 . S
C2391 H2415 0.949 . S
H2392 C2396 0.949 . S
C2393 C2394 1.349 . S
C2393 C2395 1.327 . S
C2393 H2416 0.950 . S
C2394 C2393 1.349 . S
C2394 C2406 1.349 . S
C2395 C2393 1.327 . S
C2395 C2411 1.429 . S
C2395 H2417 0.950 . S
C2396 H2392 0.949 . S
C2396 C2404 1.574 . S
C2396 C2412 1.368 . S
H2397 C2405 0.950 . S
H2398 C2403 0.950 . S
H2399 C2404 0.949 . S
H2400 C2406 0.950 . S
H2401 C2407 0.950 . S
H2402 C2408 0.949 . S
C2403 H2398 0.950 . S
C2403 C2405 1.327 . S
C2403 C2409 1.429 . S
C2404 C2396 1.574 . S
C2404 H2399 0.949 . S
C2404 C2410 1.368 . S
C2405 C2389 1.349 . S
C2405 H2397 0.950 . S
C2405 C2403 1.327 . S
C2406 C2394 1.349 . S
C2406 H2400 0.950 . S
C2406 C2407 1.327 . S
C2407 H2401 0.950 . S
C2407 C2406 1.327 . S
C2407 C2411 1.429 . S
C2408 C2391 1.574 . S
C2408 H2402 0.949 . S
C2408 C2412 1.368 . S
C2409 C2390 1.429 . S
C2409 C2403 1.429 . S
C2409 C2410 1.523 . S
C2410 C2391 1.368 . S
C2410 C2404 1.368 . S
C2410 C2409 1.523 . S
C2411 C2395 1.429 . S
C2411 C2407 1.429 . S
C2411 C2412 1.523 . S
C2412 C2396 1.368 . S
C2412 C2408 1.368 . S
C2412 C2411 1.523 . S
H2413 C2388 0.950 . S
H2414 C2390 0.950 . S
H2415 C2391 0.949 . S
H2416 C2393 0.950 . S
H2417 C2395 0.950 . S
C2418 C2419 1.349 . S
C2418 C2420 1.327 . S
C2418 H2443 0.950 . S
C2419 C2418 1.349 . S
C2419 C2435 1.349 . S
C2420 C2418 1.327 . S
C2420 C2439 1.429 . S
C2420 H2444 0.950 . S
C2421 C2438 1.574 . S
C2421 C2440 1.368 . S
C2421 H2445 0.949 . S
H2422 C2426 0.949 . S
C2423 C2424 1.349 . S
C2423 C2425 1.327 . S
C2423 H2446 0.950 . S
C2424 C2423 1.349 . S
C2424 C2436 1.349 . S
C2425 C2423 1.327 . S
C2425 C2441 1.429 . S
C2425 H2447 0.950 . S
C2426 H2422 0.949 . S
C2426 C2434 1.574 . S
C2426 C2442 1.368 . S
H2427 C2435 0.950 . S
H2428 C2433 0.950 . S
H2429 C2434 0.949 . S
H2430 C2436 0.950 . S
H2431 C2437 0.950 . S
H2432 C2438 0.949 . S
C2433 H2428 0.950 . S
C2433 C2435 1.327 . S
C2433 C2439 1.429 . S
C2434 C2426 1.574 . S
C2434 H2429 0.949 . S
C2434 C2440 1.368 . S
C2435 C2419 1.349 . S
C2435 H2427 0.950 . S
C2435 C2433 1.327 . S
C2436 C2424 1.349 . S
C2436 H2430 0.950 . S
C2436 C2437 1.327 . S
C2437 H2431 0.950 . S
C2437 C2436 1.327 . S
C2437 C2441 1.429 . S
C2438 C2421 1.574 . S
C2438 H2432 0.949 . S
C2438 C2442 1.368 . S
C2439 C2420 1.429 . S
C2439 C2433 1.429 . S
C2439 C2440 1.523 . S
C2440 C2421 1.368 . S
C2440 C2434 1.368 . S
C2440 C2439 1.523 . S
C2441 C2425 1.429 . S
C2441 C2437 1.429 . S
C2441 C2442 1.523 . S
C2442 C2426 1.368 . S
C2442 C2438 1.368 . S
C2442 C2441 1.523 . S
H2443 C2418 0.950 . S
H2444 C2420 0.950 . S
H2445 C2421 0.949 . S
H2446 C2423 0.950 . S
H2447 C2425 0.950 . S
C2448 C2449 1.349 . S
C2448 C2450 1.327 . S
C2448 H2473 0.950 . S
C2449 C2448 1.349 . S
C2449 C2465 1.349 . S
C2450 C2448 1.327 . S
C2450 C2469 1.429 . S
C2450 H2474 0.950 . S
C2451 C2468 1.574 . S
C2451 C2470 1.368 . S
C2451 H2475 0.949 . S
H2452 C2456 0.949 . S
C2453 C2454 1.349 . S
C2453 C2455 1.327 . S
C2453 H2476 0.950 . S
C2454 C2453 1.349 . S
C2454 C2466 1.349 . S
C2455 C2453 1.327 . S
C2455 C2471 1.429 . S
C2455 H2477 0.950 . S
C2456 H2452 0.949 . S
C2456 C2464 1.574 . S
C2456 C2472 1.368 . S
H2457 C2465 0.950 . S
H2458 C2463 0.950 . S
H2459 C2464 0.949 . S
H2460 C2466 0.950 . S
H2461 C2467 0.950 . S
H2462 C2468 0.949 . S
C2463 H2458 0.950 . S
C2463 C2465 1.327 . S
C2463 C2469 1.429 . S
C2464 C2456 1.574 . S
C2464 H2459 0.949 . S
C2464 C2470 1.368 . S
C2465 C2449 1.349 . S
C2465 H2457 0.950 . S
C2465 C2463 1.327 . S
C2466 C2454 1.349 . S
C2466 H2460 0.950 . S
C2466 C2467 1.327 . S
C2467 H2461 0.950 . S
C2467 C2466 1.327 . S
C2467 C2471 1.429 . S
C2468 C2451 1.574 . S
C2468 H2462 0.949 . S
C2468 C2472 1.368 . S
C2469 C2450 1.429 . S
C2469 C2463 1.429 . S
C2469 C2470 1.523 . S
C2470 C2451 1.368 . S
C2470 C2464 1.368 . S
C2470 C2469 1.523 . S
C2471 C2455 1.429 . S
C2471 C2467 1.429 . S
C2471 C2472 1.523 . S
C2472 C2456 1.368 . S
C2472 C2468 1.368 . S
C2472 C2471 1.523 . S
H2473 C2448 0.950 . S
H2474 C2450 0.950 . S
H2475 C2451 0.949 . S
H2476 C2453 0.950 . S
H2477 C2455 0.950 . S
C2478 C2479 1.349 . S
C2478 C2480 1.327 . S
C2478 H2503 0.950 . S
C2479 C2478 1.349 . S
C2479 C2495 1.349 . S
C2480 C2478 1.327 . S
C2480 C2499 1.429 . S
C2480 H2504 0.950 . S
C2481 C2498 1.574 . S
C2481 C2500 1.368 . S
C2481 H2505 0.949 . S
H2482 C2486 0.949 . S
C2483 C2484 1.349 . S
C2483 C2485 1.327 . S
C2483 H2506 0.950 . S
C2484 C2483 1.349 . S
C2484 C2496 1.349 . S
C2485 C2483 1.327 . S
C2485 C2501 1.429 . S
C2485 H2507 0.950 . S
C2486 H2482 0.949 . S
C2486 C2494 1.574 . S
C2486 C2502 1.368 . S
H2487 C2495 0.950 . S
H2488 C2493 0.950 . S
H2489 C2494 0.949 . S
H2490 C2496 0.950 . S
H2491 C2497 0.950 . S
H2492 C2498 0.949 . S
C2493 H2488 0.950 . S
C2493 C2495 1.327 . S
C2493 C2499 1.429 . S
C2494 C2486 1.574 . S
C2494 H2489 0.949 . S
C2494 C2500 1.368 . S
C2495 C2479 1.349 . S
C2495 H2487 0.950 . S
C2495 C2493 1.327 . S
C2496 C2484 1.349 . S
C2496 H2490 0.950 . S
C2496 C2497 1.327 . S
C2497 H2491 0.950 . S
C2497 C2496 1.327 . S
C2497 C2501 1.429 . S
C2498 C2481 1.574 . S
C2498 H2492 0.949 . S
C2498 C2502 1.368 . S
C2499 C2480 1.429 . S
C2499 C2493 1.429 . S
C2499 C2500 1.523 . S
C2500 C2481 1.368 . S
C2500 C2494 1.368 . S
C2500 C2499 1.523 . S
C2501 C2485 1.429 . S
C2501 C2497 1.429 . S
C2501 C2502 1.523 . S
C2502 C2486 1.368 . S
C2502 C2498 1.368 . S
C2502 C2501 1.523 . S
H2503 C2478 0.950 . S
H2504 C2480 0.950 . S
H2505 C2481 0.949 . S
H2506 C2483 0.950 . S
H2507 C2485 0.950 . S
C2508 C2509 1.349 . S
C2508 C2510 1.327 . S
C2508 H2533 0.950 . S
C2509 C2508 1.349 . S
C2509 C2525 1.349 . S
C2510 C2508 1.327 . S
C2510 C2529 1.429 . S
C2510 H2534 0.950 . S
C2511 C2528 1.574 . S
C2511 C2530 1.368 . S
C2511 H2535 0.949 . S
H2512 C2516 0.949 . S
C2513 C2514 1.349 . S
C2513 C2515 1.327 . S
C2513 H2536 0.950 . S
C2514 C2513 1.349 . S
C2514 C2526 1.349 . S
C2515 C2513 1.327 . S
C2515 C2531 1.429 . S
C2515 H2537 0.950 . S
C2516 H2512 0.949 . S
C2516 C2524 1.574 . S
C2516 C2532 1.368 . S
H2517 C2525 0.950 . S
H2518 C2523 0.950 . S
H2519 C2524 0.949 . S
H2520 C2526 0.950 . S
H2521 C2527 0.950 . S
H2522 C2528 0.949 . S
C2523 H2518 0.950 . S
C2523 C2525 1.327 . S
C2523 C2529 1.429 . S
C2524 C2516 1.574 . S
C2524 H2519 0.949 . S
C2524 C2530 1.368 . S
C2525 C2509 1.349 . S
C2525 H2517 0.950 . S
C2525 C2523 1.327 . S
C2526 C2514 1.349 . S
C2526 H2520 0.950 . S
C2526 C2527 1.327 . S
C2527 H2521 0.950 . S
C2527 C2526 1.327 . S
C2527 C2531 1.429 . S
C2528 C2511 1.574 . S
C2528 H2522 0.949 . S
C2528 C2532 1.368 . S
C2529 C2510 1.429 . S
C2529 C2523 1.429 . S
C2529 C2530 1.523 . S
C2530 C2511 1.368 . S
C2530 C2524 1.368 . S
C2530 C2529 1.523 . S
C2531 C2515 1.429 . S
C2531 C2527 1.429 . S
C2531 C2532 1.523 . S
C2532 C2516 1.368 . S
C2532 C2528 1.368 . S
C2532 C2531 1.523 . S
H2533 C2508 0.950 . S
H2534 C2510 0.950 . S
H2535 C2511 0.949 . S
H2536 C2513 0.950 . S
H2537 C2515 0.950 . S
C2538 C2539 1.349 . S
C2538 C2540 1.327 . S
C2538 H2563 0.950 1_556 S
C2539 C2538 1.349 . S
C2539 C2555 1.349 . S
C2540 C2538 1.327 . S
C2540 C2559 1.429 . S
C2540 H2564 0.950 . S
C2541 C2558 1.574 . S
C2541 C2560 1.368 . S
C2541 H2565 0.949 . S
H2542 C2546 0.949 . S
C2543 C2544 1.349 . S
C2543 C2545 1.327 . S
C2543 H2566 0.950 . S
C2544 C2543 1.349 . S
C2544 C2556 1.349 . S
C2545 C2543 1.327 . S
C2545 C2561 1.429 . S
C2545 H2567 0.950 . S
C2546 H2542 0.949 . S
C2546 C2554 1.574 . S
C2546 C2562 1.368 . S
H2547 C2555 0.950 . S
H2548 C2553 0.950 . S
H2549 C2554 0.949 . S
H2550 C2556 0.950 . S
H2551 C2557 0.950 . S
H2552 C2558 0.949 . S
C2553 H2548 0.950 . S
C2553 C2555 1.327 . S
C2553 C2559 1.429 . S
C2554 C2546 1.574 . S
C2554 H2549 0.949 . S
C2554 C2560 1.368 . S
C2555 C2539 1.349 . S
C2555 H2547 0.950 . S
C2555 C2553 1.327 . S
C2556 C2544 1.349 . S
C2556 H2550 0.950 . S
C2556 C2557 1.327 . S
C2557 H2551 0.950 . S
C2557 C2556 1.327 . S
C2557 C2561 1.429 . S
C2558 C2541 1.574 . S
C2558 H2552 0.949 . S
C2558 C2562 1.368 . S
C2559 C2540 1.429 . S
C2559 C2553 1.429 . S
C2559 C2560 1.523 . S
C2560 C2541 1.368 . S
C2560 C2554 1.368 . S
C2560 C2559 1.523 . S
C2561 C2545 1.429 . S
C2561 C2557 1.429 . S
C2561 C2562 1.523 . S
C2562 C2546 1.368 . S
C2562 C2558 1.368 . S
C2562 C2561 1.523 . S
H2563 C2538 0.950 1_554 S
H2564 C2540 0.950 . S
H2565 C2541 0.949 . S
H2566 C2543 0.950 . S
H2567 C2545 0.950 . S
C2568 C2569 1.349 . S
C2568 C2570 1.327 . S
C2568 H2593 0.950 . S
C2569 C2568 1.349 . S
C2569 C2585 1.349 . S
C2570 C2568 1.327 . S
C2570 C2589 1.429 . S
C2570 H2594 0.950 . S
C2571 C2588 1.574 . S
C2571 C2590 1.368 . S
C2571 H2595 0.949 . S
H2572 C2576 0.949 . S
C2573 C2574 1.349 . S
C2573 C2575 1.327 . S
C2573 H2596 0.950 . S
C2574 C2573 1.349 . S
C2574 C2586 1.349 . S
C2575 C2573 1.327 . S
C2575 C2591 1.429 . S
C2575 H2597 0.950 . S
C2576 H2572 0.949 . S
C2576 C2584 1.574 . S
C2576 C2592 1.368 . S
H2577 C2585 0.950 1_554 S
H2578 C2583 0.950 . S
H2579 C2584 0.949 . S
H2580 C2586 0.950 . S
H2581 C2587 0.950 . S
H2582 C2588 0.949 . S
C2583 H2578 0.950 . S
C2583 C2585 1.327 . S
C2583 C2589 1.429 . S
C2584 C2576 1.574 . S
C2584 H2579 0.949 . S
C2584 C2590 1.368 . S
C2585 C2569 1.349 . S
C2585 H2577 0.950 1_556 S
C2585 C2583 1.327 . S
C2586 C2574 1.349 . S
C2586 H2580 0.950 . S
C2586 C2587 1.327 . S
C2587 H2581 0.950 . S
C2587 C2586 1.327 . S
C2587 C2591 1.429 . S
C2588 C2571 1.574 . S
C2588 H2582 0.949 . S
C2588 C2592 1.368 . S
C2589 C2570 1.429 . S
C2589 C2583 1.429 . S
C2589 C2590 1.523 . S
C2590 C2571 1.368 . S
C2590 C2584 1.368 . S
C2590 C2589 1.523 . S
C2591 C2575 1.429 . S
C2591 C2587 1.429 . S
C2591 C2592 1.523 . S
C2592 C2576 1.368 . S
C2592 C2588 1.368 . S
C2592 C2591 1.523 . S
H2593 C2568 0.950 . S
H2594 C2570 0.950 . S
H2595 C2571 0.949 . S
H2596 C2573 0.950 . S
H2597 C2575 0.950 . S
C2598 C2599 1.349 . S
C2598 C2600 1.327 . S
C2598 H2623 0.950 . S
C2599 C2598 1.349 . S
C2599 C2615 1.349 . S
C2600 C2598 1.327 . S
C2600 C2619 1.429 . S
C2600 H2624 0.950 . S
C2601 C2618 1.574 . S
C2601 C2620 1.368 . S
C2601 H2625 0.949 . S
H2602 C2606 0.949 . S
C2603 C2604 1.349 . S
C2603 C2605 1.327 . S
C2603 H2626 0.950 . S
C2604 C2603 1.349 . S
C2604 C2616 1.349 . S
C2605 C2603 1.327 . S
C2605 C2621 1.429 . S
C2605 H2627 0.950 . S
C2606 H2602 0.949 . S
C2606 C2614 1.574 . S
C2606 C2622 1.368 . S
H2607 C2615 0.950 1_554 S
H2608 C2613 0.950 . S
H2609 C2614 0.949 . S
H2610 C2616 0.950 . S
H2611 C2617 0.950 . S
H2612 C2618 0.949 . S
C2613 H2608 0.950 . S
C2613 C2615 1.327 . S
C2613 C2619 1.429 . S
C2614 C2606 1.574 . S
C2614 H2609 0.949 . S
C2614 C2620 1.368 . S
C2615 C2599 1.349 . S
C2615 H2607 0.950 1_556 S
C2615 C2613 1.327 . S
C2616 C2604 1.349 . S
C2616 H2610 0.950 . S
C2616 C2617 1.327 . S
C2617 H2611 0.950 . S
C2617 C2616 1.327 . S
C2617 C2621 1.429 . S
C2618 C2601 1.574 . S
C2618 H2612 0.949 . S
C2618 C2622 1.368 . S
C2619 C2600 1.429 . S
C2619 C2613 1.429 . S
C2619 C2620 1.523 . S
C2620 C2601 1.368 . S
C2620 C2614 1.368 . S
C2620 C2619 1.523 . S
C2621 C2605 1.429 . S
C2621 C2617 1.429 . S
C2621 C2622 1.523 . S
C2622 C2606 1.368 . S
C2622 C2618 1.368 . S
C2622 C2621 1.523 . S
H2623 C2598 0.950 . S
H2624 C2600 0.950 . S
H2625 C2601 0.949 . S
H2626 C2603 0.950 . S
H2627 C2605 0.950 . S
C2628 C2629 1.349 . S
C2628 C2630 1.327 . S
C2628 H2653 0.950 . S
C2629 C2628 1.349 . S
C2629 C2645 1.349 . S
C2630 C2628 1.327 . S
C2630 C2649 1.429 . S
C2630 H2654 0.950 . S
C2631 C2648 1.574 . S
C2631 C2650 1.368 . S
C2631 H2655 0.949 . S
H2632 C2636 0.949 . S
C2633 C2634 1.349 . S
C2633 C2635 1.327 . S
C2633 H2656 0.950 . S
C2634 C2633 1.349 . S
C2634 C2646 1.349 . S
C2635 C2633 1.327 . S
C2635 C2651 1.429 . S
C2635 H2657 0.950 . S
C2636 H2632 0.949 . S
C2636 C2644 1.574 . S
C2636 C2652 1.368 . S
H2637 C2645 0.950 . S
H2638 C2643 0.950 . S
H2639 C2644 0.949 . S
H2640 C2646 0.950 . S
H2641 C2647 0.950 . S
H2642 C2648 0.949 . S
C2643 H2638 0.950 . S
C2643 C2645 1.327 . S
C2643 C2649 1.429 . S
C2644 C2636 1.574 . S
C2644 H2639 0.949 . S
C2644 C2650 1.368 . S
C2645 C2629 1.349 . S
C2645 H2637 0.950 . S
C2645 C2643 1.327 . S
C2646 C2634 1.349 . S
C2646 H2640 0.950 . S
C2646 C2647 1.327 . S
C2647 H2641 0.950 . S
C2647 C2646 1.327 . S
C2647 C2651 1.429 . S
C2648 C2631 1.574 . S
C2648 H2642 0.949 . S
C2648 C2652 1.368 . S
C2649 C2630 1.429 . S
C2649 C2643 1.429 . S
C2649 C2650 1.523 . S
C2650 C2631 1.368 . S
C2650 C2644 1.368 . S
C2650 C2649 1.523 . S
C2651 C2635 1.429 . S
C2651 C2647 1.429 . S
C2651 C2652 1.523 . S
C2652 C2636 1.368 . S
C2652 C2648 1.368 . S
C2652 C2651 1.523 . S
H2653 C2628 0.950 . S
H2654 C2630 0.950 . S
H2655 C2631 0.949 . S
H2656 C2633 0.950 . S
H2657 C2635 0.950 . S
C2658 C2659 1.349 . S
C2658 C2660 1.327 . S
C2658 H2683 0.970 . S
C2659 C2658 1.349 . S
C2659 C2675 1.349 . S
C2660 C2658 1.327 . S
C2660 C2679 1.429 . S
C2660 H2684 0.950 . S
C2661 C2678 1.574 . S
C2661 C2680 1.368 . S
C2661 H2685 0.949 . S
H2662 C2666 0.949 . S
C2663 C2664 1.349 . S
C2663 C2665 1.327 . S
C2663 H2686 0.950 . S
C2664 C2663 1.349 . S
C2664 C2676 1.349 . S
C2665 C2663 1.327 . S
C2665 C2681 1.429 . S
C2665 H2687 0.950 . S
C2666 H2662 0.949 . S
C2666 C2674 1.574 . S
C2666 C2682 1.368 . S
H2667 C2675 0.950 . S
H2668 C2673 0.950 . S
H2669 C2674 0.949 . S
H2670 C2676 0.950 . S
H2671 C2677 0.950 . S
H2672 C2678 0.949 . S
C2673 H2668 0.950 . S
C2673 C2675 1.327 . S
C2673 C2679 1.429 . S
C2674 C2666 1.574 . S
C2674 H2669 0.949 . S
C2674 C2680 1.368 . S
C2675 C2659 1.349 . S
C2675 H2667 0.950 . S
C2675 C2673 1.327 . S
C2676 C2664 1.349 . S
C2676 H2670 0.950 . S
C2676 C2677 1.327 . S
C2677 H2671 0.950 . S
C2677 C2676 1.327 . S
C2677 C2681 1.429 . S
C2678 C2661 1.574 . S
C2678 H2672 0.949 . S
C2678 C2682 1.368 . S
C2679 C2660 1.429 . S
C2679 C2673 1.429 . S
C2679 C2680 1.523 . S
C2680 C2661 1.368 . S
C2680 C2674 1.368 . S
C2680 C2679 1.523 . S
C2681 C2665 1.429 . S
C2681 C2677 1.429 . S
C2681 C2682 1.523 . S
C2682 C2666 1.368 . S
C2682 C2678 1.368 . S
C2682 C2681 1.523 . S
H2683 C2658 0.970 . S
H2684 C2660 0.950 . S
H2685 C2661 0.949 . S
H2686 C2663 0.950 . S
H2687 C2665 0.950 . S
C2688 C2689 1.349 . S
C2688 C2690 1.327 . S
C2688 H2713 0.950 . S
C2689 C2688 1.349 . S
C2689 C2705 1.349 . S
C2690 C2688 1.327 . S
C2690 C2709 1.429 . S
C2690 H2714 0.950 . S
C2691 C2708 1.574 . S
C2691 C2710 1.368 . S
C2691 H2715 0.949 . S
H2692 C2696 0.949 . S
C2693 C2694 1.349 . S
C2693 C2695 1.327 . S
C2693 H2716 0.950 . S
C2694 C2693 1.349 . S
C2694 C2706 1.349 . S
C2695 C2693 1.327 . S
C2695 C2711 1.429 . S
C2695 H2717 0.950 . S
C2696 H2692 0.949 . S
C2696 C2704 1.574 . S
C2696 C2712 1.368 . S
H2697 C2705 0.950 1_554 S
H2698 C2703 0.950 . S
H2699 C2704 0.949 . S
H2700 C2706 0.950 . S
H2701 C2707 0.950 . S
H2702 C2708 0.949 . S
C2703 H2698 0.950 . S
C2703 C2705 1.327 . S
C2703 C2709 1.429 . S
C2704 C2696 1.574 . S
C2704 H2699 0.949 . S
C2704 C2710 1.368 . S
C2705 C2689 1.349 . S
C2705 H2697 0.950 1_556 S
C2705 C2703 1.327 . S
C2706 C2694 1.349 . S
C2706 H2700 0.950 . S
C2706 C2707 1.327 . S
C2707 H2701 0.950 . S
C2707 C2706 1.327 . S
C2707 C2711 1.429 . S
C2708 C2691 1.574 . S
C2708 H2702 0.949 . S
C2708 C2712 1.368 . S
C2709 C2690 1.429 . S
C2709 C2703 1.429 . S
C2709 C2710 1.523 . S
C2710 C2691 1.368 . S
C2710 C2704 1.368 . S
C2710 C2709 1.523 . S
C2711 C2695 1.429 . S
C2711 C2707 1.429 . S
C2711 C2712 1.523 . S
C2712 C2696 1.368 . S
C2712 C2708 1.368 . S
C2712 C2711 1.523 . S
H2713 C2688 0.950 . S
H2714 C2690 0.950 . S
H2715 C2691 0.949 . S
H2716 C2693 0.950 . S
H2717 C2695 0.950 . S
C2718 C2719 1.349 . S
C2718 C2720 1.327 . S
C2718 H2743 0.950 . S
C2719 C2718 1.349 . S
C2719 C2735 1.349 . S
C2720 C2718 1.327 . S
C2720 C2739 1.429 . S
C2720 H2744 0.950 . S
C2721 C2738 1.574 . S
C2721 C2740 1.368 . S
C2721 H2745 0.949 . S
H2722 C2726 0.949 . S
C2723 C2724 1.349 . S
C2723 C2725 1.327 . S
C2723 H2746 0.950 . S
C2724 C2723 1.349 . S
C2724 C2736 1.349 . S
C2725 C2723 1.327 . S
C2725 C2741 1.429 . S
C2725 H2747 0.950 . S
C2726 H2722 0.949 . S
C2726 C2734 1.574 . S
C2726 C2742 1.368 . S
H2727 C2735 0.950 . S
H2728 C2733 0.950 . S
H2729 C2734 0.949 . S
H2730 C2736 0.950 . S
H2731 C2737 0.950 . S
H2732 C2738 0.949 . S
C2733 H2728 0.950 . S
C2733 C2735 1.327 . S
C2733 C2739 1.429 . S
C2734 C2726 1.574 . S
C2734 H2729 0.949 . S
C2734 C2740 1.368 . S
C2735 C2719 1.349 . S
C2735 H2727 0.950 . S
C2735 C2733 1.327 . S
C2736 C2724 1.349 . S
C2736 H2730 0.950 . S
C2736 C2737 1.327 . S
C2737 H2731 0.950 . S
C2737 C2736 1.327 . S
C2737 C2741 1.429 . S
C2738 C2721 1.574 . S
C2738 H2732 0.949 . S
C2738 C2742 1.368 . S
C2739 C2720 1.429 . S
C2739 C2733 1.429 . S
C2739 C2740 1.523 . S
C2740 C2721 1.368 . S
C2740 C2734 1.368 . S
C2740 C2739 1.523 . S
C2741 C2725 1.429 . S
C2741 C2737 1.429 . S
C2741 C2742 1.523 . S
C2742 C2726 1.368 . S
C2742 C2738 1.368 . S
C2742 C2741 1.523 . S
H2743 C2718 0.950 . S
H2744 C2720 0.950 . S
H2745 C2721 0.949 . S
H2746 C2723 0.950 . S
H2747 C2725 0.950 . S
C2748 C2749 1.349 . S
C2748 C2750 1.327 . S
C2748 H2773 0.950 . S
C2749 C2748 1.349 . S
C2749 C2765 1.349 . S
C2750 C2748 1.327 . S
C2750 C2769 1.429 . S
C2750 H2774 0.950 . S
C2751 C2768 1.574 . S
C2751 C2770 1.368 . S
C2751 H2775 0.949 . S
H2752 C2756 0.949 . S
C2753 C2754 1.349 . S
C2753 C2755 1.327 . S
C2753 H2776 0.950 . S
C2754 C2753 1.349 . S
C2754 C2766 1.349 . S
C2755 C2753 1.327 . S
C2755 C2771 1.429 . S
C2755 H2777 0.950 . S
C2756 H2752 0.949 . S
C2756 C2764 1.574 . S
C2756 C2772 1.368 . S
H2757 C2765 0.950 . S
H2758 C2763 0.950 . S
H2759 C2764 0.949 . S
H2760 C2766 0.950 . S
H2761 C2767 0.950 . S
H2762 C2768 0.949 . S
C2763 H2758 0.950 . S
C2763 C2765 1.327 . S
C2763 C2769 1.429 . S
C2764 C2756 1.574 . S
C2764 H2759 0.949 . S
C2764 C2770 1.368 . S
C2765 C2749 1.349 . S
C2765 H2757 0.950 . S
C2765 C2763 1.327 . S
C2766 C2754 1.349 . S
C2766 H2760 0.950 . S
C2766 C2767 1.327 . S
C2767 H2761 0.950 . S
C2767 C2766 1.327 . S
C2767 C2771 1.429 . S
C2768 C2751 1.574 . S
C2768 H2762 0.949 . S
C2768 C2772 1.368 . S
C2769 C2750 1.429 . S
C2769 C2763 1.429 . S
C2769 C2770 1.523 . S
C2770 C2751 1.368 . S
C2770 C2764 1.368 . S
C2770 C2769 1.523 . S
C2771 C2755 1.429 . S
C2771 C2767 1.429 . S
C2771 C2772 1.523 . S
C2772 C2756 1.368 . S
C2772 C2768 1.368 . S
C2772 C2771 1.523 . S
H2773 C2748 0.950 . S
H2774 C2750 0.950 . S
H2775 C2751 0.949 . S
H2776 C2753 0.950 . S
H2777 C2755 0.950 . S
C2778 C2779 1.349 . S
C2778 C2780 1.327 . S
C2778 H2803 0.950 . S
C2779 C2778 1.349 . S
C2779 C2795 1.349 . S
C2780 C2778 1.327 . S
C2780 C2799 1.429 . S
C2780 H2804 0.950 . S
C2781 C2798 1.574 . S
C2781 C2800 1.368 . S
C2781 H2805 0.949 . S
H2782 C2786 0.949 . S
C2783 C2784 1.349 . S
C2783 C2785 1.327 . S
C2783 H2806 0.950 . S
C2784 C2783 1.349 . S
C2784 C2796 1.349 . S
C2785 C2783 1.327 . S
C2785 C2801 1.429 . S
C2785 H2807 0.950 . S
C2786 H2782 0.949 . S
C2786 C2794 1.574 . S
C2786 C2802 1.368 . S
H2787 C2795 0.950 . S
H2788 C2793 0.950 . S
H2789 C2794 0.949 . S
H2790 C2796 0.950 . S
H2791 C2797 0.950 . S
H2792 C2798 0.949 . S
C2793 H2788 0.950 . S
C2793 C2795 1.327 . S
C2793 C2799 1.429 . S
C2794 C2786 1.574 . S
C2794 H2789 0.949 . S
C2794 C2800 1.368 . S
C2795 C2779 1.349 . S
C2795 H2787 0.950 . S
C2795 C2793 1.327 . S
C2796 C2784 1.349 . S
C2796 H2790 0.950 . S
C2796 C2797 1.327 . S
C2797 H2791 0.950 . S
C2797 C2796 1.327 . S
C2797 C2801 1.429 . S
C2798 C2781 1.574 . S
C2798 H2792 0.949 . S
C2798 C2802 1.368 . S
C2799 C2780 1.429 . S
C2799 C2793 1.429 . S
C2799 C2800 1.523 . S
C2800 C2781 1.368 . S
C2800 C2794 1.368 . S
C2800 C2799 1.523 . S
C2801 C2785 1.429 . S
C2801 C2797 1.429 . S
C2801 C2802 1.523 . S
C2802 C2786 1.368 . S
C2802 C2798 1.368 . S
C2802 C2801 1.523 . S
H2803 C2778 0.950 . S
H2804 C2780 0.950 . S
H2805 C2781 0.949 . S
H2806 C2783 0.950 . S
H2807 C2785 0.950 . S
C2808 C2809 1.349 . S
C2808 C2810 1.327 . S
C2808 H2833 0.950 . S
C2809 C2808 1.349 . S
C2809 C2825 1.349 . S
C2810 C2808 1.327 . S
C2810 C2829 1.429 . S
C2810 H2834 0.950 . S
C2811 C2828 1.574 . S
C2811 C2830 1.368 . S
C2811 H2835 0.949 . S
H2812 C2816 0.949 . S
C2813 C2814 1.349 . S
C2813 C2815 1.327 . S
C2813 H2836 0.950 . S
C2814 C2813 1.349 . S
C2814 C2826 1.349 . S
C2815 C2813 1.327 . S
C2815 C2831 1.429 . S
C2815 H2837 0.950 . S
C2816 H2812 0.949 . S
C2816 C2824 1.574 . S
C2816 C2832 1.368 . S
H2817 C2825 0.950 . S
H2818 C2823 0.950 . S
H2819 C2824 0.949 . S
H2820 C2826 0.950 . S
H2821 C2827 0.950 . S
H2822 C2828 0.949 . S
C2823 H2818 0.950 . S
C2823 C2825 1.327 . S
C2823 C2829 1.429 . S
C2824 C2816 1.574 . S
C2824 H2819 0.949 . S
C2824 C2830 1.368 . S
C2825 C2809 1.349 . S
C2825 H2817 0.950 . S
C2825 C2823 1.327 . S
C2826 C2814 1.349 . S
C2826 H2820 0.950 . S
C2826 C2827 1.327 . S
C2827 H2821 0.950 . S
C2827 C2826 1.327 . S
C2827 C2831 1.429 . S
C2828 C2811 1.574 . S
C2828 H2822 0.949 . S
C2828 C2832 1.368 . S
C2829 C2810 1.429 . S
C2829 C2823 1.429 . S
C2829 C2830 1.523 . S
C2830 C2811 1.368 . S
C2830 C2824 1.368 . S
C2830 C2829 1.523 . S
C2831 C2815 1.429 . S
C2831 C2827 1.429 . S
C2831 C2832 1.523 . S
C2832 C2816 1.368 . S
C2832 C2828 1.368 . S
C2832 C2831 1.523 . S
H2833 C2808 0.950 . S
H2834 C2810 0.950 . S
H2835 C2811 0.949 . S
H2836 C2813 0.950 . S
H2837 C2815 0.950 . S
C2838 C2839 1.349 . S
C2838 C2840 1.327 . S
C2838 H2863 0.950 . S
C2839 C2838 1.349 . S
C2839 C2855 1.349 . S
C2840 C2838 1.327 . S
C2840 C2859 1.429 . S
C2840 H2864 0.950 . S
C2841 C2858 1.574 . S
C2841 C2860 1.368 . S
C2841 H2865 0.949 . S
H2842 C2846 0.949 . S
C2843 C2844 1.349 . S
C2843 C2845 1.327 . S
C2843 H2866 0.950 . S
C2844 C2843 1.349 . S
C2844 C2856 1.349 . S
C2845 C2843 1.327 . S
C2845 C2861 1.429 . S
C2845 H2867 0.950 . S
C2846 H2842 0.949 . S
C2846 C2854 1.574 . S
C2846 C2862 1.368 . S
H2847 C2855 0.950 . S
H2848 C2853 0.950 . S
H2849 C2854 0.949 . S
H2850 C2856 0.950 . S
H2851 C2857 0.950 . S
H2852 C2858 0.949 . S
C2853 H2848 0.950 . S
C2853 C2855 1.327 . S
C2853 C2859 1.429 . S
C2854 C2846 1.574 . S
C2854 H2849 0.949 . S
C2854 C2860 1.368 . S
C2855 C2839 1.349 . S
C2855 H2847 0.950 . S
C2855 C2853 1.327 . S
C2856 C2844 1.349 . S
C2856 H2850 0.950 . S
C2856 C2857 1.327 . S
C2857 H2851 0.950 . S
C2857 C2856 1.327 . S
C2857 C2861 1.429 . S
C2858 C2841 1.574 . S
C2858 H2852 0.949 . S
C2858 C2862 1.368 . S
C2859 C2840 1.429 . S
C2859 C2853 1.429 . S
C2859 C2860 1.523 . S
C2860 C2841 1.368 . S
C2860 C2854 1.368 . S
C2860 C2859 1.523 . S
C2861 C2845 1.429 . S
C2861 C2857 1.429 . S
C2861 C2862 1.523 . S
C2862 C2846 1.368 . S
C2862 C2858 1.368 . S
C2862 C2861 1.523 . S
H2863 C2838 0.950 . S
H2864 C2840 0.950 . S
H2865 C2841 0.949 . S
H2866 C2843 0.950 . S
H2867 C2845 0.950 . S
C2868 C2869 1.349 . S
C2868 C2870 1.327 . S
C2868 H2893 0.950 . S
C2869 C2868 1.349 . S
C2869 C2885 1.349 . S
C2870 C2868 1.327 . S
C2870 C2889 1.429 . S
C2870 H2894 0.950 . S
C2871 C2888 1.574 . S
C2871 C2890 1.368 . S
C2871 H2895 0.949 . S
H2872 C2876 0.949 . S
C2873 C2874 1.349 . S
C2873 C2875 1.327 . S
C2873 H2896 0.950 . S
C2874 C2873 1.349 . S
C2874 C2886 1.349 . S
C2875 C2873 1.327 . S
C2875 C2891 1.429 . S
C2875 H2897 0.950 . S
C2876 H2872 0.949 . S
C2876 C2884 1.574 . S
C2876 C2892 1.368 . S
H2877 C2885 0.950 . S
H2878 C2883 0.950 . S
H2879 C2884 0.949 . S
H2880 C2886 0.950 . S
H2881 C2887 0.950 . S
H2882 C2888 0.949 . S
C2883 H2878 0.950 . S
C2883 C2885 1.327 . S
C2883 C2889 1.429 . S
C2884 C2876 1.574 . S
C2884 H2879 0.949 . S
C2884 C2890 1.368 . S
C2885 C2869 1.349 . S
C2885 H2877 0.950 . S
C2885 C2883 1.327 . S
C2886 C2874 1.349 . S
C2886 H2880 0.950 . S
C2886 C2887 1.327 . S
C2887 H2881 0.950 . S
C2887 C2886 1.327 . S
C2887 C2891 1.429 . S
C2888 C2871 1.574 . S
C2888 H2882 0.949 . S
C2888 C2892 1.368 . S
C2889 C2870 1.429 . S
C2889 C2883 1.429 . S
C2889 C2890 1.523 . S
C2890 C2871 1.368 . S
C2890 C2884 1.368 . S
C2890 C2889 1.523 . S
C2891 C2875 1.429 . S
C2891 C2887 1.429 . S
C2891 C2892 1.523 . S
C2892 C2876 1.368 . S
C2892 C2888 1.368 . S
C2892 C2891 1.523 . S
H2893 C2868 0.950 . S
H2894 C2870 0.950 . S
H2895 C2871 0.949 . S
H2896 C2873 0.950 . S
H2897 C2875 0.950 . S
C2898 C2899 1.349 . S
C2898 C2900 1.327 . S
C2898 H2923 0.950 . S
C2899 C2898 1.349 . S
C2899 C2915 1.349 . S
C2900 C2898 1.327 . S
C2900 C2919 1.429 . S
C2900 H2924 0.950 . S
C2901 C2918 1.574 . S
C2901 C2920 1.368 . S
C2901 H2925 0.949 . S
H2902 C2906 0.949 . S
C2903 C2904 1.349 . S
C2903 C2905 1.327 . S
C2903 H2926 0.950 1_455 S
C2904 C2903 1.349 . S
C2904 C2916 1.349 . S
C2905 C2903 1.327 . S
C2905 C2921 1.429 . S
C2905 H2927 0.950 1_455 S
C2906 H2902 0.949 . S
C2906 C2914 1.574 . S
C2906 C2922 1.368 . S
H2907 C2915 0.950 . S
H2908 C2913 0.950 . S
H2909 C2914 0.949 . S
H2910 C2916 0.950 . S
H2911 C2917 0.950 . S
H2912 C2918 0.920 1_655 S
C2913 H2908 0.950 . S
C2913 C2915 1.327 . S
C2913 C2919 1.429 . S
C2914 C2906 1.574 . S
C2914 H2909 0.949 . S
C2914 C2920 1.368 . S
C2915 C2899 1.349 . S
C2915 H2907 0.950 . S
C2915 C2913 1.327 . S
C2916 C2904 1.349 . S
C2916 H2910 0.950 . S
C2916 C2917 1.327 . S
C2917 H2911 0.950 . S
C2917 C2916 1.327 . S
C2917 C2921 1.429 . S
C2918 C2901 1.574 . S
C2918 H2912 0.920 1_455 S
C2918 C2922 1.368 . S
C2919 C2900 1.429 . S
C2919 C2913 1.429 . S
C2919 C2920 1.523 . S
C2920 C2901 1.368 . S
C2920 C2914 1.368 . S
C2920 C2919 1.523 . S
C2921 C2905 1.429 . S
C2921 C2917 1.429 . S
C2921 C2922 1.523 . S
C2922 C2906 1.368 . S
C2922 C2918 1.368 . S
C2922 C2921 1.523 . S
H2923 C2898 0.950 . S
H2924 C2900 0.950 . S
H2925 C2901 0.949 . S
H2926 C2903 0.950 1_655 S
H2927 C2905 0.950 1_655 S
C2928 C2929 1.349 . S
C2928 C2930 1.327 . S
C2928 H2953 0.950 . S
C2929 C2928 1.349 . S
C2929 C2945 1.349 . S
C2930 C2928 1.327 . S
C2930 C2949 1.429 . S
C2930 H2954 0.950 . S
C2931 C2948 1.574 . S
C2931 C2950 1.368 . S
C2931 H2955 0.949 . S
H2932 C2936 0.949 . S
C2933 C2934 1.349 . S
C2933 C2935 1.327 . S
C2933 H2956 0.950 . S
C2934 C2933 1.349 . S
C2934 C2946 1.349 . S
C2935 C2933 1.327 . S
C2935 C2951 1.429 . S
C2935 H2957 0.950 . S
C2936 H2932 0.949 . S
C2936 C2944 1.574 . S
C2936 C2952 1.368 . S
H2937 C2945 0.950 . S
H2938 C2943 0.950 . S
H2939 C2944 0.949 . S
H2940 C2946 0.950 . S
H2941 C2947 0.950 . S
H2942 C2948 0.949 . S
C2943 H2938 0.950 . S
C2943 C2945 1.327 . S
C2943 C2949 1.429 . S
C2944 C2936 1.574 . S
C2944 H2939 0.949 . S
C2944 C2950 1.368 . S
C2945 C2929 1.349 . S
C2945 H2937 0.950 . S
C2945 C2943 1.327 . S
C2946 C2934 1.349 . S
C2946 H2940 0.950 . S
C2946 C2947 1.327 . S
C2947 H2941 0.950 . S
C2947 C2946 1.327 . S
C2947 C2951 1.429 . S
C2948 C2931 1.574 . S
C2948 H2942 0.949 . S
C2948 C2952 1.368 . S
C2949 C2930 1.429 . S
C2949 C2943 1.429 . S
C2949 C2950 1.523 . S
C2950 C2931 1.368 . S
C2950 C2944 1.368 . S
C2950 C2949 1.523 . S
C2951 C2935 1.429 . S
C2951 C2947 1.429 . S
C2951 C2952 1.523 . S
C2952 C2936 1.368 . S
C2952 C2948 1.368 . S
C2952 C2951 1.523 . S
H2953 C2928 0.950 . S
H2954 C2930 0.950 . S
H2955 C2931 0.949 . S
H2956 C2933 0.950 . S
H2957 C2935 0.950 . S
C2958 C2959 1.349 . S
C2958 C2960 1.327 . S
C2958 H2983 1.028 . S
C2959 C2958 1.349 . S
C2959 C2975 1.349 . S
C2960 C2958 1.327 . S
C2960 C2979 1.429 . S
C2960 H2984 0.950 1_565 S
C2961 C2978 1.574 . S
C2961 C2980 1.368 . S
C2961 H2985 0.949 . S
H2962 C2966 0.943 1_545 S
C2963 C2964 1.349 . S
C2963 C2965 1.327 . S
C2963 H2986 0.950 . S
C2964 C2963 1.349 . S
C2964 C2976 1.349 1_565 S
C2965 C2963 1.327 . S
C2965 C2981 1.429 . S
C2965 H2987 0.950 . S
C2966 H2962 0.943 1_565 S
C2966 C2974 1.565 . S
C2966 C2982 1.384 . S
H2967 C2975 0.950 . S
H2968 C2973 0.950 . S
H2969 C2974 0.949 1_545 S
H2970 C2976 0.950 . S
H2971 C2977 0.950 . S
H2972 C2978 0.949 . S
C2973 H2968 0.950 . S
C2973 C2975 1.327 . S
C2973 C2979 1.429 . S
C2974 C2966 1.565 . S
C2974 H2969 0.949 1_565 S
C2974 C2980 1.368 . S
C2975 C2959 1.349 . S
C2975 H2967 0.950 . S
C2975 C2973 1.327 . S
C2976 C2964 1.349 1_545 S
C2976 H2970 0.950 . S
C2976 C2977 1.327 . S
C2977 H2971 0.950 . S
C2977 C2976 1.327 . S
C2977 C2981 1.429 1_545 S
C2978 C2961 1.574 . S
C2978 H2972 0.949 . S
C2978 C2982 1.368 . S
C2979 C2960 1.429 . S
C2979 C2973 1.429 . S
C2979 C2980 1.523 . S
C2980 C2961 1.368 . S
C2980 C2974 1.368 . S
C2980 C2979 1.523 . S
C2981 C2965 1.429 . S
C2981 C2977 1.429 1_565 S
C2981 C2982 1.523 . S
C2982 C2966 1.384 . S
C2982 C2978 1.368 . S
C2982 C2981 1.523 . S
H2983 C2958 1.028 . S
H2984 C2960 0.950 1_545 S
H2985 C2961 0.949 . S
H2986 C2963 0.950 . S
H2987 C2965 0.950 . S
C2988 C2989 1.349 . S
C2988 C2990 1.327 . S
C2988 H3013 0.950 . S
C2989 C2988 1.349 . S
C2989 C3005 1.349 . S
C2990 C2988 1.327 . S
C2990 C3009 1.429 . S
C2990 H3014 0.950 . S
C2991 C3008 1.622 . S
C2991 C3010 1.283 1_545 S
C2991 H3015 0.988 . S
H2992 C2996 0.949 . S
C2993 C2994 1.349 1_545 S
C2993 C2995 1.327 . S
C2993 H3016 0.950 . S
C2994 C2993 1.349 1_565 S
C2994 C3006 1.349 . S
C2995 C2993 1.327 . S
C2995 C3011 1.429 1_545 S
C2995 H3017 0.950 . S
C2996 H2992 0.949 . S
C2996 C3004 1.574 . S
C2996 C3012 1.368 . S
H2997 C3005 0.950 1_545 S
H2998 C3003 0.950 1_545 S
H2999 C3004 0.949 . S
H3000 C3006 0.950 . S
H3001 C3007 0.950 . S
H3002 C3008 0.949 . S
C3003 H2998 0.950 1_565 S
C3003 C3005 1.327 . S
C3003 C3009 1.429 . S
C3004 C2996 1.574 . S
C3004 H2999 0.949 . S
C3004 C3010 1.368 . S
C3005 C2989 1.349 . S
C3005 H2997 0.950 1_565 S
C3005 C3003 1.327 . S
C3006 C2994 1.349 . S
C3006 H3000 0.950 . S
C3006 C3007 1.327 . S
C3007 H3001 0.950 . S
C3007 C3006 1.327 . S
C3007 C3011 1.429 . S
C3008 C2991 1.622 . S
C3008 H3002 0.949 . S
C3008 C3012 1.368 1_545 S
C3009 C2990 1.429 . S
C3009 C3003 1.429 . S
C3009 C3010 1.523 . S
C3010 C2991 1.283 1_565 S
C3010 C3004 1.368 . S
C3010 C3009 1.523 . S
C3011 C2995 1.429 1_565 S
C3011 C3007 1.429 . S
C3011 C3012 1.523 . S
C3012 C2996 1.368 . S
C3012 C3008 1.368 1_565 S
C3012 C3011 1.523 . S
H3013 C2988 0.950 . S
H3014 C2990 0.950 . S
H3015 C2991 0.988 . S
H3016 C2993 0.950 . S
H3017 C2995 0.950 . S
C3018 C3019 1.349 . S
C3018 C3020 1.327 . S
C3018 H3043 0.950 . S
C3019 C3018 1.349 . S
C3019 C3035 1.349 . S
C3020 C3018 1.327 . S
C3020 C3039 1.429 . S
C3020 H3044 0.950 . S
C3021 C3038 1.574 . S
C3021 C3040 1.368 . S
C3021 H3045 0.949 . S
H3022 C3026 0.949 . S
C3023 C3024 1.349 . S
C3023 C3025 1.327 . S
C3023 H3046 0.950 . S
C3024 C3023 1.349 . S
C3024 C3036 1.349 . S
C3025 C3023 1.327 . S
C3025 C3041 1.429 . S
C3025 H3047 0.950 . S
C3026 H3022 0.949 . S
C3026 C3034 1.574 . S
C3026 C3042 1.368 . S
H3027 C3035 0.950 . S
H3028 C3033 0.950 . S
H3029 C3034 0.949 . S
H3030 C3036 0.950 . S
H3031 C3037 0.950 . S
H3032 C3038 0.949 . S
C3033 H3028 0.950 . S
C3033 C3035 1.327 . S
C3033 C3039 1.429 . S
C3034 C3026 1.574 . S
C3034 H3029 0.949 . S
C3034 C3040 1.368 . S
C3035 C3019 1.349 . S
C3035 H3027 0.950 . S
C3035 C3033 1.327 . S
C3036 C3024 1.349 . S
C3036 H3030 0.950 . S
C3036 C3037 1.327 . S
C3037 H3031 0.950 . S
C3037 C3036 1.327 . S
C3037 C3041 1.429 . S
C3038 C3021 1.574 . S
C3038 H3032 0.949 . S
C3038 C3042 1.368 . S
C3039 C3020 1.429 . S
C3039 C3033 1.429 . S
C3039 C3040 1.523 . S
C3040 C3021 1.368 . S
C3040 C3034 1.368 . S
C3040 C3039 1.523 . S
C3041 C3025 1.429 . S
C3041 C3037 1.429 . S
C3041 C3042 1.523 . S
C3042 C3026 1.368 . S
C3042 C3038 1.368 . S
C3042 C3041 1.523 . S
H3043 C3018 0.950 . S
H3044 C3020 0.950 . S
H3045 C3021 0.949 . S
H3046 C3023 0.950 . S
H3047 C3025 0.950 . S
C3048 C3049 1.349 . S
C3048 C3050 1.327 . S
C3048 H3073 0.950 . S
C3049 C3048 1.349 . S
C3049 C3065 1.349 . S
C3050 C3048 1.327 . S
C3050 C3069 1.429 . S
C3050 H3074 0.950 . S
C3051 C3068 1.574 . S
C3051 C3070 1.368 . S
C3051 H3075 0.949 . S
H3052 C3056 0.949 . S
C3053 C3054 1.349 . S
C3053 C3055 1.327 . S
C3053 H3076 0.950 . S
C3054 C3053 1.349 . S
C3054 C3066 1.349 . S
C3055 C3053 1.327 . S
C3055 C3071 1.429 . S
C3055 H3077 0.950 . S
C3056 H3052 0.949 . S
C3056 C3064 1.574 . S
C3056 C3072 1.368 . S
H3057 C3065 0.950 . S
H3058 C3063 0.950 . S
H3059 C3064 0.949 . S
H3060 C3066 0.950 . S
H3061 C3067 0.950 . S
H3062 C3068 0.949 . S
C3063 H3058 0.950 . S
C3063 C3065 1.327 . S
C3063 C3069 1.429 . S
C3064 C3056 1.574 . S
C3064 H3059 0.949 . S
C3064 C3070 1.368 . S
C3065 C3049 1.349 . S
C3065 H3057 0.950 . S
C3065 C3063 1.327 . S
C3066 C3054 1.349 . S
C3066 H3060 0.950 . S
C3066 C3067 1.327 . S
C3067 H3061 0.950 . S
C3067 C3066 1.327 . S
C3067 C3071 1.429 . S
C3068 C3051 1.574 . S
C3068 H3062 0.949 . S
C3068 C3072 1.368 . S
C3069 C3050 1.429 . S
C3069 C3063 1.429 . S
C3069 C3070 1.523 . S
C3070 C3051 1.368 . S
C3070 C3064 1.368 . S
C3070 C3069 1.523 . S
C3071 C3055 1.429 . S
C3071 C3067 1.429 . S
C3071 C3072 1.523 . S
C3072 C3056 1.368 . S
C3072 C3068 1.368 . S
C3072 C3071 1.523 . S
H3073 C3048 0.950 . S
H3074 C3050 0.950 . S
H3075 C3051 0.949 . S
H3076 C3053 0.950 . S
H3077 C3055 0.950 . S
C3078 C3079 1.349 . S
C3078 C3080 1.327 . S
C3078 H3103 0.950 . S
C3079 C3078 1.349 . S
C3079 C3095 1.349 . S
C3080 C3078 1.327 . S
C3080 C3099 1.429 . S
C3080 H3104 0.950 . S
C3081 C3098 1.574 . S
C3081 C3100 1.368 . S
C3081 H3105 0.949 . S
H3082 C3086 0.949 . S
C3083 C3084 1.349 . S
C3083 C3085 1.327 . S
C3083 H3106 0.950 . S
C3084 C3083 1.349 . S
C3084 C3096 1.349 . S
C3085 C3083 1.327 . S
C3085 C3101 1.429 . S
C3085 H3107 0.950 . S
C3086 H3082 0.949 . S
C3086 C3094 1.574 . S
C3086 C3102 1.368 . S
H3087 C3095 0.950 . S
H3088 C3093 0.950 . S
H3089 C3094 0.949 . S
H3090 C3096 0.950 . S
H3091 C3097 0.950 . S
H3092 C3098 0.949 . S
C3093 H3088 0.950 . S
C3093 C3095 1.327 . S
C3093 C3099 1.429 . S
C3094 C3086 1.574 . S
C3094 H3089 0.949 . S
C3094 C3100 1.368 . S
C3095 C3079 1.349 . S
C3095 H3087 0.950 . S
C3095 C3093 1.327 . S
C3096 C3084 1.349 . S
C3096 H3090 0.950 . S
C3096 C3097 1.327 . S
C3097 H3091 0.950 . S
C3097 C3096 1.327 . S
C3097 C3101 1.429 . S
C3098 C3081 1.574 . S
C3098 H3092 0.949 . S
C3098 C3102 1.368 . S
C3099 C3080 1.429 . S
C3099 C3093 1.429 . S
C3099 C3100 1.523 . S
C3100 C3081 1.368 . S
C3100 C3094 1.368 . S
C3100 C3099 1.523 . S
C3101 C3085 1.429 . S
C3101 C3097 1.429 . S
C3101 C3102 1.523 . S
C3102 C3086 1.368 . S
C3102 C3098 1.368 . S
C3102 C3101 1.523 . S
H3103 C3078 0.950 . S
H3104 C3080 0.950 . S
H3105 C3081 0.949 . S
H3106 C3083 0.950 . S
H3107 C3085 0.950 . S
C3108 C3109 1.349 . S
C3108 C3110 1.327 . S
C3108 H3133 0.950 . S
C3109 C3108 1.349 . S
C3109 C3125 1.349 . S
C3110 C3108 1.327 . S
C3110 C3129 1.429 . S
C3110 H3134 0.950 . S
C3111 C3128 1.574 . S
C3111 C3130 1.368 . S
C3111 H3135 0.949 . S
H3112 C3116 0.949 . S
C3113 C3114 1.349 . S
C3113 C3115 1.327 . S
C3113 H3136 0.950 . S
C3114 C3113 1.349 . S
C3114 C3126 1.349 . S
C3115 C3113 1.327 . S
C3115 C3131 1.429 . S
C3115 H3137 0.950 . S
C3116 H3112 0.949 . S
C3116 C3124 1.574 . S
C3116 C3132 1.368 . S
H3117 C3125 0.950 . S
H3118 C3123 0.950 . S
H3119 C3124 0.949 . S
H3120 C3126 0.950 . S
H3121 C3127 0.950 . S
H3122 C3128 0.949 . S
C3123 H3118 0.950 . S
C3123 C3125 1.327 . S
C3123 C3129 1.429 . S
C3124 C3116 1.574 . S
C3124 H3119 0.949 . S
C3124 C3130 1.368 . S
C3125 C3109 1.349 . S
C3125 H3117 0.950 . S
C3125 C3123 1.327 . S
C3126 C3114 1.349 . S
C3126 H3120 0.950 . S
C3126 C3127 1.327 . S
C3127 H3121 0.950 . S
C3127 C3126 1.327 . S
C3127 C3131 1.429 . S
C3128 C3111 1.574 . S
C3128 H3122 0.949 . S
C3128 C3132 1.368 . S
C3129 C3110 1.429 . S
C3129 C3123 1.429 . S
C3129 C3130 1.523 . S
C3130 C3111 1.368 . S
C3130 C3124 1.368 . S
C3130 C3129 1.523 . S
C3131 C3115 1.429 . S
C3131 C3127 1.429 . S
C3131 C3132 1.523 . S
C3132 C3116 1.368 . S
C3132 C3128 1.368 . S
C3132 C3131 1.523 . S
H3133 C3108 0.950 . S
H3134 C3110 0.950 . S
H3135 C3111 0.949 . S
H3136 C3113 0.950 . S
H3137 C3115 0.950 . S
C3138 C3139 1.349 . S
C3138 C3140 1.327 . S
C3138 H3163 0.950 . S
C3139 C3138 1.349 . S
C3139 C3155 1.349 . S
C3140 C3138 1.327 . S
C3140 C3159 1.429 . S
C3140 H3164 0.950 . S
C3141 C3158 1.574 . S
C3141 C3160 1.368 . S
C3141 H3165 0.949 . S
H3142 C3146 0.949 . S
C3143 C3144 1.349 . S
C3143 C3145 1.327 . S
C3143 H3166 0.950 . S
C3144 C3143 1.349 . S
C3144 C3156 1.349 . S
C3145 C3143 1.327 . S
C3145 C3161 1.429 . S
C3145 H3167 0.950 . S
C3146 H3142 0.949 . S
C3146 C3154 1.574 . S
C3146 C3162 1.368 . S
H3147 C3155 0.950 . S
H3148 C3153 0.950 . S
H3149 C3154 0.949 . S
H3150 C3156 0.950 . S
H3151 C3157 0.950 . S
H3152 C3158 0.949 . S
C3153 H3148 0.950 . S
C3153 C3155 1.327 . S
C3153 C3159 1.429 . S
C3154 C3146 1.574 . S
C3154 H3149 0.949 . S
C3154 C3160 1.368 . S
C3155 C3139 1.349 . S
C3155 H3147 0.950 . S
C3155 C3153 1.327 . S
C3156 C3144 1.349 . S
C3156 H3150 0.950 . S
C3156 C3157 1.327 . S
C3157 H3151 0.950 . S
C3157 C3156 1.327 . S
C3157 C3161 1.429 . S
C3158 C3141 1.574 . S
C3158 H3152 0.949 . S
C3158 C3162 1.368 . S
C3159 C3140 1.429 . S
C3159 C3153 1.429 . S
C3159 C3160 1.523 . S
C3160 C3141 1.368 . S
C3160 C3154 1.368 . S
C3160 C3159 1.523 . S
C3161 C3145 1.429 . S
C3161 C3157 1.429 . S
C3161 C3162 1.523 . S
C3162 C3146 1.368 . S
C3162 C3158 1.368 . S
C3162 C3161 1.523 . S
H3163 C3138 0.950 . S
H3164 C3140 0.950 . S
H3165 C3141 0.949 . S
H3166 C3143 0.950 . S
H3167 C3145 0.950 . S
C3168 C3169 1.349 . S
C3168 C3170 1.327 . S
C3168 H3193 0.950 . S
C3169 C3168 1.349 . S
C3169 C3185 1.349 . S
C3170 C3168 1.327 . S
C3170 C3189 1.429 . S
C3170 H3194 0.968 . S
C3171 C3188 1.574 . S
C3171 C3190 1.368 . S
C3171 H3195 0.949 . S
H3172 C3176 0.949 1_565 S
C3173 C3174 1.349 . S
C3173 C3175 1.327 . S
C3173 H3196 0.950 . S
C3174 C3173 1.349 . S
C3174 C3186 1.352 . S
C3175 C3173 1.327 . S
C3175 C3191 1.429 . S
C3175 H3197 0.950 . S
C3176 H3172 0.949 1_545 S
C3176 C3184 1.574 . S
C3176 C3192 1.368 . S
H3177 C3185 0.950 . S
H3178 C3183 0.950 . S
H3179 C3184 0.949 1_565 S
H3180 C3186 0.942 1_565 S
H3181 C3187 0.950 1_565 S
H3182 C3188 0.949 . S
C3183 H3178 0.950 . S
C3183 C3185 1.327 . S
C3183 C3189 1.429 . S
C3184 C3176 1.574 . S
C3184 H3179 0.949 1_545 S
C3184 C3190 1.368 . S
C3185 C3169 1.349 . S
C3185 H3177 0.950 . S
C3185 C3183 1.327 . S
C3186 C3174 1.352 . S
C3186 H3180 0.942 1_545 S
C3186 C3187 1.331 . S
C3187 H3181 0.950 1_545 S
C3187 C3186 1.331 . S
C3187 C3191 1.429 . S
C3188 C3171 1.574 . S
C3188 H3182 0.949 . S
C3188 C3192 1.368 . S
C3189 C3170 1.429 . S
C3189 C3183 1.429 . S
C3189 C3190 1.523 . S
C3190 C3171 1.368 . S
C3190 C3184 1.368 . S
C3190 C3189 1.523 . S
C3191 C3175 1.429 . S
C3191 C3187 1.429 . S
C3191 C3192 1.523 . S
C3192 C3176 1.368 . S
C3192 C3188 1.368 . S
C3192 C3191 1.523 . S
H3193 C3168 0.950 . S
H3194 C3170 0.968 . S
H3195 C3171 0.949 . S
H3196 C3173 0.950 . S
H3197 C3175 0.950 . S
C3198 C3199 1.349 . S
C3198 C3200 1.327 . S
C3198 H3223 0.950 . S
C3199 C3198 1.349 . S
C3199 C3215 1.349 . S
C3200 C3198 1.327 . S
C3200 C3219 1.429 . S
C3200 H3224 0.950 . S
C3201 C3218 1.574 . S
C3201 C3220 1.368 . S
C3201 H3225 0.949 . S
H3202 C3206 0.970 . S
C3203 C3204 1.349 . S
C3203 C3205 1.327 . S
C3203 H3226 0.950 . S
C3204 C3203 1.349 . S
C3204 C3216 1.396 . S
C3205 C3203 1.327 . S
C3205 C3221 1.429 . S
C3205 H3227 0.950 . S
C3206 H3202 0.970 . S
C3206 C3214 1.574 . S
C3206 C3222 1.368 . S
H3207 C3215 0.950 . S
H3208 C3213 0.950 . S
H3209 C3214 0.949 . S
H3210 C3216 0.931 1_455 S
H3211 C3217 0.876 1_455 S
H3212 C3218 0.949 . S
C3213 H3208 0.950 . S
C3213 C3215 1.327 . S
C3213 C3219 1.429 . S
C3214 C3206 1.574 . S
C3214 H3209 0.949 . S
C3214 C3220 1.368 . S
C3215 C3199 1.349 . S
C3215 H3207 0.950 . S
C3215 C3213 1.327 . S
C3216 C3204 1.396 . S
C3216 H3210 0.931 1_655 S
C3216 C3217 1.303 . S
C3217 H3211 0.876 1_655 S
C3217 C3216 1.303 . S
C3217 C3221 1.429 . S
C3218 C3201 1.574 . S
C3218 H3212 0.949 . S
C3218 C3222 1.368 . S
C3219 C3200 1.429 . S
C3219 C3213 1.429 . S
C3219 C3220 1.523 . S
C3220 C3201 1.368 . S
C3220 C3214 1.368 . S
C3220 C3219 1.523 . S
C3221 C3205 1.429 . S
C3221 C3217 1.429 . S
C3221 C3222 1.523 . S
C3222 C3206 1.368 . S
C3222 C3218 1.368 . S
C3222 C3221 1.523 . S
H3223 C3198 0.950 . S
H3224 C3200 0.950 . S
H3225 C3201 0.949 . S
H3226 C3203 0.950 . S
H3227 C3205 0.950 . S
C3228 C3229 1.349 . S
C3228 C3230 1.327 . S
C3228 H3253 0.950 . S
C3229 C3228 1.349 . S
C3229 C3245 1.349 . S
C3230 C3228 1.327 . S
C3230 C3249 1.429 . S
C3230 H3254 0.950 . S
C3231 C3248 1.574 . S
C3231 C3250 1.368 . S
C3231 H3255 0.949 . S
H3232 C3236 0.949 . S
C3233 C3234 1.349 . S
C3233 C3235 1.327 . S
C3233 H3256 0.950 . S
C3234 C3233 1.349 . S
C3234 C3246 1.349 . S
C3235 C3233 1.327 . S
C3235 C3251 1.429 . S
C3235 H3257 0.950 . S
C3236 H3232 0.949 . S
C3236 C3244 1.574 . S
C3236 C3252 1.368 . S
H3237 C3245 0.950 . S
H3238 C3243 0.950 . S
H3239 C3244 0.949 . S
H3240 C3246 0.950 . S
H3241 C3247 0.950 . S
H3242 C3248 0.949 . S
C3243 H3238 0.950 . S
C3243 C3245 1.327 . S
C3243 C3249 1.429 . S
C3244 C3236 1.574 . S
C3244 H3239 0.949 . S
C3244 C3250 1.368 . S
C3245 C3229 1.349 . S
C3245 H3237 0.950 . S
C3245 C3243 1.327 . S
C3246 C3234 1.349 . S
C3246 H3240 0.950 . S
C3246 C3247 1.327 . S
C3247 H3241 0.950 . S
C3247 C3246 1.327 . S
C3247 C3251 1.429 . S
C3248 C3231 1.574 . S
C3248 H3242 0.949 . S
C3248 C3252 1.368 . S
C3249 C3230 1.429 . S
C3249 C3243 1.429 . S
C3249 C3250 1.523 . S
C3250 C3231 1.368 . S
C3250 C3244 1.368 . S
C3250 C3249 1.523 . S
C3251 C3235 1.429 . S
C3251 C3247 1.429 . S
C3251 C3252 1.523 . S
C3252 C3236 1.368 . S
C3252 C3248 1.368 . S
C3252 C3251 1.523 . S
H3253 C3228 0.950 . S
H3254 C3230 0.950 . S
H3255 C3231 0.949 . S
H3256 C3233 0.950 . S
H3257 C3235 0.950 . S
C3258 C3259 1.349 . S
C3258 C3260 1.327 . S
C3258 H3283 0.950 . S
C3259 C3258 1.349 . S
C3259 C3275 1.349 . S
C3260 C3258 1.327 . S
C3260 C3279 1.429 . S
C3260 H3284 0.950 . S
C3261 C3278 1.574 . S
C3261 C3280 1.368 . S
C3261 H3285 0.949 . S
H3262 C3266 0.949 . S
C3263 C3264 1.349 . S
C3263 C3265 1.327 . S
C3263 H3286 0.950 . S
C3264 C3263 1.349 . S
C3264 C3276 1.349 . S
C3265 C3263 1.327 . S
C3265 C3281 1.429 . S
C3265 H3287 0.950 . S
C3266 H3262 0.949 . S
C3266 C3274 1.574 . S
C3266 C3282 1.368 . S
H3267 C3275 0.950 . S
H3268 C3273 0.950 . S
H3269 C3274 0.949 . S
H3270 C3276 0.950 . S
H3271 C3277 0.950 . S
H3272 C3278 0.949 . S
C3273 H3268 0.950 . S
C3273 C3275 1.327 . S
C3273 C3279 1.429 . S
C3274 C3266 1.574 . S
C3274 H3269 0.949 . S
C3274 C3280 1.368 . S
C3275 C3259 1.349 . S
C3275 H3267 0.950 . S
C3275 C3273 1.327 . S
C3276 C3264 1.349 . S
C3276 H3270 0.950 . S
C3276 C3277 1.327 . S
C3277 H3271 0.950 . S
C3277 C3276 1.327 . S
C3277 C3281 1.429 . S
C3278 C3261 1.574 . S
C3278 H3272 0.949 . S
C3278 C3282 1.368 . S
C3279 C3260 1.429 . S
C3279 C3273 1.429 . S
C3279 C3280 1.523 . S
C3280 C3261 1.368 . S
C3280 C3274 1.368 . S
C3280 C3279 1.523 . S
C3281 C3265 1.429 . S
C3281 C3277 1.429 . S
C3281 C3282 1.523 . S
C3282 C3266 1.368 . S
C3282 C3278 1.368 . S
C3282 C3281 1.523 . S
H3283 C3258 0.950 . S
H3284 C3260 0.950 . S
H3285 C3261 0.949 . S
H3286 C3263 0.950 . S
H3287 C3265 0.950 . S
C3288 C3289 1.349 . S
C3288 C3290 1.327 . S
C3288 H3313 0.950 . S
C3289 C3288 1.349 . S
C3289 C3305 1.349 . S
C3290 C3288 1.327 . S
C3290 C3309 1.429 . S
C3290 H3314 0.950 . S
C3291 C3308 1.574 . S
C3291 C3310 1.368 . S
C3291 H3315 0.949 . S
H3292 C3296 0.949 . S
C3293 C3294 1.349 . S
C3293 C3295 1.327 . S
C3293 H3316 0.950 . S
C3294 C3293 1.349 . S
C3294 C3306 1.349 . S
C3295 C3293 1.327 . S
C3295 C3311 1.429 . S
C3295 H3317 0.950 . S
C3296 H3292 0.949 . S
C3296 C3304 1.574 . S
C3296 C3312 1.368 . S
H3297 C3305 0.950 . S
H3298 C3303 0.950 . S
H3299 C3304 0.949 . S
H3300 C3306 0.950 . S
H3301 C3307 0.950 . S
H3302 C3308 0.949 . S
C3303 H3298 0.950 . S
C3303 C3305 1.327 . S
C3303 C3309 1.429 . S
C3304 C3296 1.574 . S
C3304 H3299 0.949 . S
C3304 C3310 1.368 . S
C3305 C3289 1.349 . S
C3305 H3297 0.950 . S
C3305 C3303 1.327 . S
C3306 C3294 1.349 . S
C3306 H3300 0.950 . S
C3306 C3307 1.327 . S
C3307 H3301 0.950 . S
C3307 C3306 1.327 . S
C3307 C3311 1.429 . S
C3308 C3291 1.574 . S
C3308 H3302 0.949 . S
C3308 C3312 1.368 . S
C3309 C3290 1.429 . S
C3309 C3303 1.429 . S
C3309 C3310 1.523 . S
C3310 C3291 1.368 . S
C3310 C3304 1.368 . S
C3310 C3309 1.523 . S
C3311 C3295 1.429 . S
C3311 C3307 1.429 . S
C3311 C3312 1.523 . S
C3312 C3296 1.368 . S
C3312 C3308 1.368 . S
C3312 C3311 1.523 . S
H3313 C3288 0.950 . S
H3314 C3290 0.950 . S
H3315 C3291 0.949 . S
H3316 C3293 0.950 . S
H3317 C3295 0.950 . S
C3318 C3319 1.349 . S
C3318 C3320 1.327 . S
C3318 H3343 0.950 . S
C3319 C3318 1.349 . S
C3319 C3335 1.349 . S
C3320 C3318 1.327 . S
C3320 C3339 1.429 . S
C3320 H3344 0.950 . S
C3321 C3338 1.574 . S
C3321 C3340 1.368 . S
C3321 H3345 0.949 . S
H3322 C3326 0.949 . S
C3323 C3324 1.349 . S
C3323 C3325 1.327 . S
C3323 H3346 0.950 . S
C3324 C3323 1.349 . S
C3324 C3336 1.349 . S
C3325 C3323 1.327 . S
C3325 C3341 1.429 . S
C3325 H3347 0.950 . S
C3326 H3322 0.949 . S
C3326 C3334 1.574 . S
C3326 C3342 1.368 . S
H3327 C3335 0.950 . S
H3328 C3333 0.950 . S
H3329 C3334 0.949 . S
H3330 C3336 0.950 . S
H3331 C3337 0.950 . S
H3332 C3338 0.949 . S
C3333 H3328 0.950 . S
C3333 C3335 1.327 . S
C3333 C3339 1.429 . S
C3334 C3326 1.574 . S
C3334 H3329 0.949 . S
C3334 C3340 1.368 . S
C3335 C3319 1.349 . S
C3335 H3327 0.950 . S
C3335 C3333 1.327 . S
C3336 C3324 1.349 . S
C3336 H3330 0.950 . S
C3336 C3337 1.327 . S
C3337 H3331 0.950 . S
C3337 C3336 1.327 . S
C3337 C3341 1.429 . S
C3338 C3321 1.574 . S
C3338 H3332 0.949 . S
C3338 C3342 1.368 . S
C3339 C3320 1.429 . S
C3339 C3333 1.429 . S
C3339 C3340 1.523 . S
C3340 C3321 1.368 . S
C3340 C3334 1.368 . S
C3340 C3339 1.523 . S
C3341 C3325 1.429 . S
C3341 C3337 1.429 . S
C3341 C3342 1.523 . S
C3342 C3326 1.368 . S
C3342 C3338 1.368 . S
C3342 C3341 1.523 . S
H3343 C3318 0.950 . S
H3344 C3320 0.950 . S
H3345 C3321 0.949 . S
H3346 C3323 0.950 . S
H3347 C3325 0.950 . S
C3348 C3349 1.349 . S
C3348 C3350 1.327 . S
C3348 H3373 0.950 . S
C3349 C3348 1.349 . S
C3349 C3365 1.349 . S
C3350 C3348 1.327 . S
C3350 C3369 1.429 . S
C3350 H3374 0.950 . S
C3351 C3368 1.574 . S
C3351 C3370 1.368 . S
C3351 H3375 0.949 . S
H3352 C3356 0.949 . S
C3353 C3354 1.349 . S
C3353 C3355 1.327 . S
C3353 H3376 0.950 . S
C3354 C3353 1.349 . S
C3354 C3366 1.349 . S
C3355 C3353 1.327 . S
C3355 C3371 1.429 . S
C3355 H3377 0.950 . S
C3356 H3352 0.949 . S
C3356 C3364 1.574 . S
C3356 C3372 1.368 . S
H3357 C3365 0.950 . S
H3358 C3363 0.950 . S
H3359 C3364 0.949 . S
H3360 C3366 0.950 . S
H3361 C3367 0.950 . S
H3362 C3368 0.949 . S
C3363 H3358 0.950 . S
C3363 C3365 1.327 . S
C3363 C3369 1.429 . S
C3364 C3356 1.574 . S
C3364 H3359 0.949 . S
C3364 C3370 1.368 . S
C3365 C3349 1.349 . S
C3365 H3357 0.950 . S
C3365 C3363 1.327 . S
C3366 C3354 1.349 . S
C3366 H3360 0.950 . S
C3366 C3367 1.327 . S
C3367 H3361 0.950 . S
C3367 C3366 1.327 . S
C3367 C3371 1.429 . S
C3368 C3351 1.574 . S
C3368 H3362 0.949 . S
C3368 C3372 1.368 . S
C3369 C3350 1.429 . S
C3369 C3363 1.429 . S
C3369 C3370 1.523 . S
C3370 C3351 1.368 . S
C3370 C3364 1.368 . S
C3370 C3369 1.523 . S
C3371 C3355 1.429 . S
C3371 C3367 1.429 . S
C3371 C3372 1.523 . S
C3372 C3356 1.368 . S
C3372 C3368 1.368 . S
C3372 C3371 1.523 . S
H3373 C3348 0.950 . S
H3374 C3350 0.950 . S
H3375 C3351 0.949 . S
H3376 C3353 0.950 . S
H3377 C3355 0.950 . S
C3378 C3379 1.349 . S
C3378 C3380 1.327 . S
C3378 H3403 0.950 . S
C3379 C3378 1.349 . S
C3379 C3395 1.349 . S
C3380 C3378 1.327 . S
C3380 C3399 1.429 . S
C3380 H3404 0.950 . S
C3381 C3398 1.574 . S
C3381 C3400 1.368 . S
C3381 H3405 0.949 . S
H3382 C3386 0.949 . S
C3383 C3384 1.349 . S
C3383 C3385 1.327 . S
C3383 H3406 0.950 . S
C3384 C3383 1.349 . S
C3384 C3396 1.349 . S
C3385 C3383 1.327 . S
C3385 C3401 1.429 . S
C3385 H3407 0.950 . S
C3386 H3382 0.949 . S
C3386 C3394 1.574 . S
C3386 C3402 1.368 . S
H3387 C3395 0.950 . S
H3388 C3393 0.950 . S
H3389 C3394 0.949 . S
H3390 C3396 0.950 . S
H3391 C3397 0.950 . S
H3392 C3398 0.949 . S
C3393 H3388 0.950 . S
C3393 C3395 1.327 . S
C3393 C3399 1.429 . S
C3394 C3386 1.574 . S
C3394 H3389 0.949 . S
C3394 C3400 1.368 . S
C3395 C3379 1.349 . S
C3395 H3387 0.950 . S
C3395 C3393 1.327 . S
C3396 C3384 1.349 . S
C3396 H3390 0.950 . S
C3396 C3397 1.327 . S
C3397 H3391 0.950 . S
C3397 C3396 1.327 . S
C3397 C3401 1.429 . S
C3398 C3381 1.574 . S
C3398 H3392 0.949 . S
C3398 C3402 1.368 . S
C3399 C3380 1.429 . S
C3399 C3393 1.429 . S
C3399 C3400 1.523 . S
C3400 C3381 1.368 . S
C3400 C3394 1.368 . S
C3400 C3399 1.523 . S
C3401 C3385 1.429 . S
C3401 C3397 1.429 . S
C3401 C3402 1.523 . S
C3402 C3386 1.368 . S
C3402 C3398 1.368 . S
C3402 C3401 1.523 . S
H3403 C3378 0.950 . S
H3404 C3380 0.950 . S
H3405 C3381 0.949 . S
H3406 C3383 0.950 . S
H3407 C3385 0.950 . S
C3408 C3409 1.349 . S
C3408 C3410 1.327 . S
C3408 H3433 0.950 . S
C3409 C3408 1.349 . S
C3409 C3425 1.349 . S
C3410 C3408 1.327 . S
C3410 C3429 1.429 . S
C3410 H3434 0.950 . S
C3411 C3428 1.574 . S
C3411 C3430 1.368 . S
C3411 H3435 0.949 . S
H3412 C3416 0.949 . S
C3413 C3414 1.349 . S
C3413 C3415 1.327 . S
C3413 H3436 0.950 . S
C3414 C3413 1.349 . S
C3414 C3426 1.349 . S
C3415 C3413 1.327 . S
C3415 C3431 1.429 . S
C3415 H3437 0.950 . S
C3416 H3412 0.949 . S
C3416 C3424 1.574 . S
C3416 C3432 1.368 . S
H3417 C3425 0.950 . S
H3418 C3423 0.950 . S
H3419 C3424 0.949 . S
H3420 C3426 0.950 . S
H3421 C3427 0.950 . S
H3422 C3428 0.949 . S
C3423 H3418 0.950 . S
C3423 C3425 1.327 . S
C3423 C3429 1.429 . S
C3424 C3416 1.574 . S
C3424 H3419 0.949 . S
C3424 C3430 1.368 . S
C3425 C3409 1.349 . S
C3425 H3417 0.950 . S
C3425 C3423 1.327 . S
C3426 C3414 1.349 . S
C3426 H3420 0.950 . S
C3426 C3427 1.327 . S
C3427 H3421 0.950 . S
C3427 C3426 1.327 . S
C3427 C3431 1.429 . S
C3428 C3411 1.574 . S
C3428 H3422 0.949 . S
C3428 C3432 1.368 . S
C3429 C3410 1.429 . S
C3429 C3423 1.429 . S
C3429 C3430 1.523 . S
C3430 C3411 1.368 . S
C3430 C3424 1.368 . S
C3430 C3429 1.523 . S
C3431 C3415 1.429 . S
C3431 C3427 1.429 . S
C3431 C3432 1.523 . S
C3432 C3416 1.368 . S
C3432 C3428 1.368 . S
C3432 C3431 1.523 . S
H3433 C3408 0.950 . S
H3434 C3410 0.950 . S
H3435 C3411 0.949 . S
H3436 C3413 0.950 . S
H3437 C3415 0.950 . S
C3438 C3439 1.349 . S
C3438 C3440 1.327 . S
C3438 H3463 0.950 . S
C3439 C3438 1.349 . S
C3439 C3455 1.349 . S
C3440 C3438 1.327 . S
C3440 C3459 1.429 . S
C3440 H3464 0.894 1_655 S
C3441 C3458 1.574 . S
C3441 C3460 1.368 . S
C3441 H3465 0.949 . S
H3442 C3446 0.903 1_455 S
C3443 C3444 1.349 . S
C3443 C3445 1.327 . S
C3443 H3466 0.950 . S
C3444 C3443 1.349 . S
C3444 C3456 1.349 1_655 S
C3445 C3443 1.327 . S
C3445 C3461 1.429 . S
C3445 H3467 0.950 . S
C3446 H3442 0.903 1_655 S
C3446 C3454 1.614 . S
C3446 C3462 1.385 . S
H3447 C3455 0.950 . S
H3448 C3453 0.950 . S
H3449 C3454 0.949 1_455 S
H3450 C3456 0.950 . S
H3451 C3457 0.950 . S
H3452 C3458 0.949 . S
C3453 H3448 0.950 . S
C3453 C3455 1.327 . S
C3453 C3459 1.429 . S
C3454 C3446 1.614 . S
C3454 H3449 0.949 1_655 S
C3454 C3460 1.368 . S
C3455 C3439 1.349 . S
C3455 H3447 0.950 . S
C3455 C3453 1.327 . S
C3456 C3444 1.349 1_455 S
C3456 H3450 0.950 . S
C3456 C3457 1.327 . S
C3457 H3451 0.950 . S
C3457 C3456 1.327 . S
C3457 C3461 1.429 1_455 S
C3458 C3441 1.574 . S
C3458 H3452 0.949 . S
C3458 C3462 1.368 . S
C3459 C3440 1.429 . S
C3459 C3453 1.429 . S
C3459 C3460 1.523 . S
C3460 C3441 1.368 . S
C3460 C3454 1.368 . S
C3460 C3459 1.523 . S
C3461 C3445 1.429 . S
C3461 C3457 1.429 1_655 S
C3461 C3462 1.523 . S
C3462 C3446 1.385 . S
C3462 C3458 1.368 . S
C3462 C3461 1.523 . S
H3463 C3438 0.950 . S
H3464 C3440 0.894 1_455 S
H3465 C3441 0.949 . S
H3466 C3443 0.950 . S
H3467 C3445 0.950 . S
C3468 C3469 1.349 . S
C3468 C3470 1.327 . S
C3468 H3493 0.950 . S
C3469 C3468 1.349 . S
C3469 C3485 1.349 . S
C3470 C3468 1.327 . S
C3470 C3489 1.429 . S
C3470 H3494 0.950 . S
C3471 C3488 1.574 . S
C3471 C3490 1.368 . S
C3471 H3495 0.949 . S
H3472 C3476 0.949 . S
C3473 C3474 1.349 . S
C3473 C3475 1.327 . S
C3473 H3496 0.950 . S
C3474 C3473 1.349 . S
C3474 C3486 1.349 . S
C3475 C3473 1.327 . S
C3475 C3491 1.429 . S
C3475 H3497 0.950 . S
C3476 H3472 0.949 . S
C3476 C3484 1.574 . S
C3476 C3492 1.368 . S
H3477 C3485 0.950 . S
H3478 C3483 0.950 . S
H3479 C3484 0.949 . S
H3480 C3486 0.950 . S
H3481 C3487 0.950 . S
H3482 C3488 0.949 . S
C3483 H3478 0.950 . S
C3483 C3485 1.327 . S
C3483 C3489 1.429 . S
C3484 C3476 1.574 . S
C3484 H3479 0.949 . S
C3484 C3490 1.368 . S
C3485 C3469 1.349 . S
C3485 H3477 0.950 . S
C3485 C3483 1.327 . S
C3486 C3474 1.349 . S
C3486 H3480 0.950 . S
C3486 C3487 1.327 . S
C3487 H3481 0.950 . S
C3487 C3486 1.327 . S
C3487 C3491 1.429 . S
C3488 C3471 1.574 . S
C3488 H3482 0.949 . S
C3488 C3492 1.368 . S
C3489 C3470 1.429 . S
C3489 C3483 1.429 . S
C3489 C3490 1.523 . S
C3490 C3471 1.368 . S
C3490 C3484 1.368 . S
C3490 C3489 1.523 . S
C3491 C3475 1.429 . S
C3491 C3487 1.429 . S
C3491 C3492 1.523 . S
C3492 C3476 1.368 . S
C3492 C3488 1.368 . S
C3492 C3491 1.523 . S
H3493 C3468 0.950 . S
H3494 C3470 0.950 . S
H3495 C3471 0.949 . S
H3496 C3473 0.950 . S
H3497 C3475 0.950 . S
C3498 C3499 1.349 . S
C3498 C3500 1.327 . S
C3498 H3523 0.950 . S
C3499 C3498 1.349 . S
C3499 C3515 1.349 . S
C3500 C3498 1.327 . S
C3500 C3519 1.429 . S
C3500 H3524 0.950 . S
C3501 C3518 1.574 . S
C3501 C3520 1.368 . S
C3501 H3525 0.949 . S
H3502 C3506 0.949 . S
C3503 C3504 1.349 . S
C3503 C3505 1.327 . S
C3503 H3526 0.972 . S
C3504 C3503 1.349 . S
C3504 C3516 1.349 . S
C3505 C3503 1.327 . S
C3505 C3521 1.429 . S
C3505 H3527 0.950 . S
C3506 H3502 0.949 . S
C3506 C3514 1.574 . S
C3506 C3522 1.368 . S
H3507 C3515 0.950 . S
H3508 C3513 0.950 . S
H3509 C3514 0.949 . S
H3510 C3516 0.950 . S
H3511 C3517 0.950 . S
H3512 C3518 0.949 . S
C3513 H3508 0.950 . S
C3513 C3515 1.327 . S
C3513 C3519 1.429 . S
C3514 C3506 1.574 . S
C3514 H3509 0.949 . S
C3514 C3520 1.368 . S
C3515 C3499 1.349 . S
C3515 H3507 0.950 . S
C3515 C3513 1.327 . S
C3516 C3504 1.349 . S
C3516 H3510 0.950 . S
C3516 C3517 1.327 . S
C3517 H3511 0.950 . S
C3517 C3516 1.327 . S
C3517 C3521 1.429 . S
C3518 C3501 1.574 . S
C3518 H3512 0.949 . S
C3518 C3522 1.368 . S
C3519 C3500 1.429 . S
C3519 C3513 1.429 . S
C3519 C3520 1.523 . S
C3520 C3501 1.368 . S
C3520 C3514 1.368 . S
C3520 C3519 1.523 . S
C3521 C3505 1.429 . S
C3521 C3517 1.429 . S
C3521 C3522 1.523 . S
C3522 C3506 1.368 . S
C3522 C3518 1.368 . S
C3522 C3521 1.523 . S
H3523 C3498 0.950 . S
H3524 C3500 0.950 . S
H3525 C3501 0.949 . S
H3526 C3503 0.972 . S
H3527 C3505 0.950 . S
C1369 C8 1.569 . S
C1374 C857 1.514 . S
C1399 C22 1.569 . S
C1404 C901 1.525 . S
C1434 C981 1.514 . S
C1429 C37 1.589 1_545 S
C1459 C36 1.569 . S
C1464 C1025 1.555 . S
C1489 C9 1.582 1_455 S
C1494 C1105 1.519 . S
C1519 C23 1.569 . S
C1524 C1167 1.514 . S
C1549 C50 1.540 1_455 S
C1554 C1087 1.512 . S
C1584 C1149 1.514 . S
C1579 C64 1.569 . S
C1614 C1043 1.508 . S
C1609 C79 1.569 . S
C1639 C78 1.530 1_545 S
C1644 C963 1.514 . S
C1674 C839 1.514 . S
C1669 C51 1.569 . S
C1699 C65 1.569 . S
C1704 C919 1.525 . S
C1729 C92 1.569 . S
C1734 C1229 1.514 . S
C1759 C106 1.569 . S
C1764 C1273 1.526 . S
C1794 C1353 1.514 . S
C1789 C121 1.569 . S
C1819 C120 1.569 . S
C1824 C299 1.514 . S
C1849 C93 1.569 . S
C1854 C343 1.525 . S
C1879 C107 1.569 . S
C1884 C423 1.514 . S
C1909 C134 1.570 . S
C1914 C361 1.526 . S
C1939 C148 1.569 . S
C1944 C405 1.514 . S
C1974 C281 1.514 . S
C1969 C163 1.569 . S
C2004 C1335 1.515 . S
C1999 C162 1.570 . S
C2034 C1211 1.514 . S
C2029 C135 1.569 . S
C2064 C1291 1.525 . S
C2059 C149 1.569 . S
C2089 C176 1.570 . S
C2094 C485 1.514 . S
C2119 C190 1.569 . S
C2124 C547 1.514 . S
C2149 C205 1.569 . S
C2154 C591 1.525 . S
C2179 C204 1.569 . S
C2184 C653 1.526 . S
C2214 C715 1.526 . S
C2209 C177 1.570 . S
C2244 C795 1.514 . S
C2239 C191 1.569 . S
C2274 C733 1.525 . S
C2269 C218 1.569 . S
C2304 C777 1.514 . S
C2299 C232 1.570 . S
C2329 C247 1.569 . S
C2334 C671 1.525 . S
C2364 C609 1.526 . S
C2359 C246 1.570 . S
C2389 C219 1.569 . S
C2394 C467 1.513 . S
C2424 C529 1.514 . S
C2419 C233 1.569 . S
C2454 C305 1.481 . S
C2449 C6 1.499 . S
C2479 C20 1.499 . S
C2484 C349 1.485 . S
C2514 C429 1.480 . S
C2509 C35 1.498 . S
C2544 C491 1.481 . S
C2539 C34 1.499 . S
C2574 C553 1.480 . S
C2569 C7 1.498 . S
C2604 C597 1.485 . S
C2599 C21 1.499 . S
C2629 C48 1.499 . S
C2634 C615 1.485 . S
C2659 C62 1.499 . S
C2664 C473 1.481 . S
C2689 C77 1.498 . S
C2694 C535 1.480 . S
C2719 C76 1.499 . S
C2724 C367 1.485 . S
C2754 C411 1.480 . S
C2749 C49 1.498 . S
C2779 C63 1.499 . S
C2784 C287 1.481 . S
C2814 C659 1.484 . S
C2809 C90 1.498 . S
C2839 C104 1.499 . S
C2844 C721 1.485 . S
C2869 C119 1.510 . S
C2874 C801 1.480 . S
C2904 C863 1.480 . S
C2899 C118 1.498 . S
C2929 C91 1.498 . S
C2934 C907 1.485 . S
C2959 C105 1.499 . S
C2964 C987 1.481 . S
C2989 C132 1.498 . S
C2994 C969 1.480 . S
C3019 C146 1.498 . S
C3024 C845 1.480 . S
C3054 C925 1.484 . S
C3049 C161 1.498 . S
C3079 C160 1.498 . S
C3084 C739 1.484 . S
C3109 C133 1.498 . S
C3114 C783 1.480 . S
C3144 C677 1.485 . S
C3139 C147 1.517 . S
C3174 C1031 1.485 . S
C3169 C174 1.499 . S
C3199 C188 1.498 . S
C3204 C1111 1.485 . S
C3229 C203 1.499 . S
C3234 C1173 1.481 . S
C3264 C1235 1.480 . S
C3259 C202 1.499 . S
C3294 C1279 1.484 . S
C3289 C175 1.527 . S
C3319 C189 1.499 . S
C3324 C1359 1.481 . S
C3349 C216 1.499 . S
C3354 C1341 1.481 . S
C3379 C230 1.538 . S
C3384 C1217 1.481 . S
C3414 C1297 1.484 . S
C3409 C245 1.498 . S
C3444 C1093 1.480 . S
C3439 C244 1.490 . S
C3474 C1155 1.480 . S
C3469 C217 1.498 . S
C3499 C231 1.499 . S
C3504 C1049 1.485 . S
