# Generated by pormake.
# Topology pth, (4,4)-cn, num edge types: 1
# Building blocks:
#     Node 0, Type 0, BuildingBlock: CEKHIL_clean_sbu_0, # of connection points: 4
#     Node 1, Type 0, BuildingBlock: CEKHIL_clean_sbu_0, # of connection points: 4
#     Node 2, Type 0, BuildingBlock: CEKHIL_clean_sbu_0, # of connection points: 4
#     Node 3, Type 1, BuildingBlock: MIFKUJ_clean_linker_1, # of connection points: 4
#     Node 4, Type 1, BuildingBlock: MIFKUJ_clean_linker_1, # of connection points: 4
#     Node 5, Type 1, BuildingBlock: MIFKUJ_clean_linker_1, # of connection points: 4
#     Edge 6, Type (0, 1), BuildingBlock: KIFKEQ_clean_linker_1, # of connection points: 2
#     Edge 7, Type (0, 1), BuildingBlock: KIFKEQ_clean_linker_1, # of connection points: 2
#     Edge 8, Type (0, 1), BuildingBlock: KIFKEQ_clean_linker_1, # of connection points: 2
#     Edge 9, Type (0, 1), BuildingBlock: KIFKEQ_clean_linker_1, # of connection points: 2
#     Edge 10, Type (0, 1), BuildingBlock: KIFKEQ_clean_linker_1, # of connection points: 2
#     Edge 11, Type (0, 1), BuildingBlock: KIFKEQ_clean_linker_1, # of connection points: 2
#     Edge 12, Type (0, 1), BuildingBlock: KIFKEQ_clean_linker_1, # of connection points: 2
#     Edge 13, Type (0, 1), BuildingBlock: KIFKEQ_clean_linker_1, # of connection points: 2
#     Edge 14, Type (0, 1), BuildingBlock: KIFKEQ_clean_linker_1, # of connection points: 2
#     Edge 15, Type (0, 1), BuildingBlock: KIFKEQ_clean_linker_1, # of connection points: 2
#     Edge 16, Type (0, 1), BuildingBlock: KIFKEQ_clean_linker_1, # of connection points: 2
#     Edge 17, Type (0, 1), BuildingBlock: KIFKEQ_clean_linker_1, # of connection points: 2
# Relax obj value: 0.014
# Max RMSD: 0.063
# Mean RMSD: 0.055
data_MOF--net-pth--node1-CEKHIL_clean_sbu_0--node2-MIFKUJ_clean_linker_1--edge1-KIFKEQ_clean_linker_1
_symmetry_space_group_name_H-M    P1
_symmetry_Int_Tables_number       1
_symmetry_cell_setting            triclinic
loop_
_symmetry_equiv_pos_as_xyz
'x, y, z'
_cell_length_a     29.534836
_cell_length_b     29.619331
_cell_length_c     65.009594
_cell_angle_alpha  90.694724
_cell_angle_beta   90.12367
_cell_angle_gamma 120.25787
loop_
_atom_site_label
_atom_site_type_symbol
_atom_site_fract_x
_atom_site_fract_y
_atom_site_fract_z
_atom_type_partial_charge
Co0 Co 0.0192 0.03193 0.06301 0.0
O1 O 0.98528 0.97739 0.08283 0.0
O2 O 0.05344 0.99067 0.06425 0.0
C3 C 0.02337 0.09592 0.08356 0.0
O4 O 0.06611 0.08564 0.04175 0.0
Co5 Co 0.96537 0.09067 0.04639 0.0
O6 O 0.03673 0.14147 0.03688 0.0
C7 C 0.93329 0.9852 0.02997 0.0
C8 C 0.01965 0.96388 0.07839 0.0
C9 C 0.07136 0.12833 0.03448 0.0
O10 O 0.96942 0.98434 0.0408 0.0
O11 O 0.92377 0.02285 0.03079 0.0
O12 O 0.05874 0.08232 0.0849 0.0
O13 O 0.98481 0.06817 0.07104 0.0
Co14 Co 0.01608 0.03799 0.38062 0.0
O15 O 0.97946 0.05512 0.36051 0.0
O16 O 0.04593 0.11322 0.37961 0.0
C17 C 0.02425 0.98057 0.35999 0.0
O18 O 0.06535 0.03518 0.40214 0.0
Co19 Co 0.96962 0.92544 0.39683 0.0
O20 O 0.04286 0.95107 0.40587 0.0
C21 C 0.92907 0.9926 0.41244 0.0
C22 C 0.01181 0.10383 0.36506 0.0
C23 C 0.0746 0.99972 0.40876 0.0
O24 O 0.96481 0.0318 0.40255 0.0
O25 O 0.92276 0.94657 0.41111 0.0
O26 O 0.05727 0.03038 0.35879 0.0
O27 O 0.98579 0.96753 0.37248 0.0
Co28 Co 0.01132 0.02532 0.71351 0.0
O29 O 0.06583 0.05926 0.69361 0.0
O30 O 0.05374 0.99215 0.71223 0.0
C31 C 0.94673 0.01967 0.69304 0.0
O32 O 0.95773 0.97914 0.73493 0.0
Co33 Co 0.95199 0.07978 0.72975 0.0
O34 O 0.90214 0.00909 0.74019 0.0
C35 C 0.06021 0.11661 0.74394 0.0
C36 C 0.08026 0.02581 0.69804 0.0
C37 C 0.91528 0.97452 0.74248 0.0
O38 O 0.05853 0.07616 0.73556 0.0
O39 O 0.02366 0.12752 0.74179 0.0
O40 O 0.96083 0.9847 0.69169 0.0
O41 O 0.9744 0.05846 0.70544 0.0
H42 H 0.1199 0.50484 0.19171 0.0
H43 H 0.11925 0.435 0.17122 0.0
H44 H 0.95463 0.33459 0.1846 0.0
H45 H 0.95706 0.40383 0.20619 0.0
H46 H 0.04681 0.54437 0.18405 0.0
H47 H 0.09903 0.46318 0.23469 0.0
H48 H 0.09509 0.39578 0.25719 0.0
H49 H 0.95603 0.38022 0.28557 0.0
H50 H 0.95886 0.44631 0.26254 0.0
H51 H 0.95928 0.57734 0.25864 0.0
H52 H 0.95949 0.64669 0.27934 0.0
H53 H 0.10455 0.76011 0.25112 0.0
H54 H 0.10507 0.69005 0.23097 0.0
H55 H 0.02571 0.54371 0.25968 0.0
H56 H 0.96644 0.61635 0.20828 0.0
H57 H 0.96475 0.68018 0.18532 0.0
H58 H 0.11002 0.70823 0.15823 0.0
H59 H 0.11239 0.64565 0.18175 0.0
C60 C 0.03865 0.45927 0.20052 0.0
C61 C 0.08393 0.46746 0.19038 0.0
C62 C 0.08322 0.42753 0.17847 0.0
C63 C 0.03672 0.37891 0.17596 0.0
C64 C 0.99145 0.37093 0.18636 0.0
C65 C 0.99257 0.41059 0.19864 0.0
C66 C 0.03873 0.50277 0.21196 0.0
C67 C 0.04293 0.54474 0.20064 0.0
C68 C 0.03193 0.50191 0.23352 0.0
C69 C 0.02869 0.45938 0.24658 0.0
C70 C 0.06688 0.44444 0.24536 0.0
C71 C 0.06488 0.40617 0.25835 0.0
C72 C 0.02531 0.38283 0.27316 0.0
C73 C 0.98727 0.3979 0.27445 0.0
C74 C 0.98882 0.43558 0.26124 0.0
C75 C 0.03197 0.62844 0.24316 0.0
C76 C 0.99107 0.61717 0.25686 0.0
C77 C 0.99104 0.65698 0.26858 0.0
C78 C 0.03201 0.70905 0.26688 0.0
C79 C 0.07268 0.72037 0.25295 0.0
C80 C 0.07271 0.68044 0.24124 0.0
C81 C 0.03324 0.58531 0.23177 0.0
C82 C 0.02944 0.5434 0.24309 0.0
C83 C 0.03962 0.58579 0.21017 0.0
C84 C 0.03986 0.62655 0.19694 0.0
C85 C 0.99841 0.63689 0.19765 0.0
C86 C 0.99715 0.67294 0.18431 0.0
C87 C 0.03715 0.69924 0.16984 0.0
C88 C 0.07888 0.68917 0.16931 0.0
C89 C 0.08011 0.65312 0.18266 0.0
H90 H 0.62507 0.10784 0.51808 0.0
H91 H 0.69127 0.10574 0.49603 0.0
H92 H 0.64588 0.95174 0.51811 0.0
H93 H 0.57918 0.95354 0.53963 0.0
H94 H 0.52006 0.04448 0.51657 0.0
H95 H 0.65014 0.09834 0.57164 0.0
H96 H 0.71659 0.09531 0.5934 0.0
H97 H 0.60914 0.93226 0.60508 0.0
H98 H 0.54214 0.93581 0.58375 0.0
H99 H 0.40283 0.94499 0.59009 0.0
H100 H 0.33795 0.9439 0.61359 0.0
H101 H 0.37341 0.0957 0.59208 0.0
H102 H 0.4397 0.09734 0.56913 0.0
H103 H 0.50443 0.00943 0.59134 0.0
H104 H 0.36674 0.96965 0.5428 0.0
H105 H 0.30289 0.97653 0.521 0.0
H106 H 0.42755 0.11681 0.49432 0.0
H107 H 0.49121 0.11139 0.51675 0.0
C108 C 0.59742 0.03104 0.53064 0.0
C109 C 0.62962 0.07376 0.51822 0.0
C110 C 0.66763 0.07265 0.50573 0.0
C111 C 0.67371 0.0285 0.50526 0.0
C112 C 0.64182 0.9861 0.51793 0.0
C113 C 0.60404 0.98732 0.53044 0.0
C114 C 0.555 0.03073 0.54301 0.0
C115 C 0.51693 0.03787 0.53302 0.0
C116 C 0.55025 0.02044 0.56428 0.0
C117 C 0.5914 0.01728 0.57611 0.0
C118 C 0.64107 0.06189 0.57878 0.0
C119 C 0.6788 0.06018 0.59122 0.0
C120 C 0.66774 0.01356 0.60085 0.0
C121 C 0.61853 0.96853 0.5977 0.0
C122 C 0.58035 0.97056 0.58562 0.0
C123 C 0.42603 0.02112 0.57773 0.0
C124 C 0.39645 0.97795 0.59035 0.0
C125 C 0.35907 0.97722 0.60371 0.0
C126 C 0.35049 0.01978 0.6048 0.0
C127 C 0.37948 0.06257 0.59184 0.0
C128 C 0.41697 0.0633 0.5785 0.0
C129 C 0.46885 0.02336 0.56498 0.0
C130 C 0.50717 0.01639 0.57492 0.0
C131 C 0.47379 0.03443 0.54365 0.0
C132 C 0.43399 0.04031 0.53167 0.0
C133 C 0.38034 0.0028 0.53274 0.0
C134 C 0.34383 0.00657 0.52019 0.0
C135 C 0.36038 0.04717 0.50598 0.0
C136 C 0.41383 0.08498 0.50507 0.0
C137 C 0.45017 0.0818 0.51788 0.0
H138 H 0.48726 0.42064 0.84654 0.0
H139 H 0.41656 0.35708 0.82451 0.0
H140 H 0.30454 0.37498 0.86133 0.0
H141 H 0.37596 0.44215 0.88195 0.0
H142 H 0.522 0.51805 0.85081 0.0
H143 H 0.44745 0.37599 0.90182 0.0
H144 H 0.37771 0.31092 0.92366 0.0
H145 H 0.35139 0.43145 0.94868 0.0
H146 H 0.42063 0.49587 0.92695 0.0
H147 H 0.5539 0.62029 0.93057 0.0
H148 H 0.62219 0.68908 0.95213 0.0
H149 H 0.74053 0.67711 0.91769 0.0
H150 H 0.67186 0.60639 0.89656 0.0
H151 H 0.52415 0.5247 0.92697 0.0
H152 H 0.59955 0.66741 0.88056 0.0
H153 H 0.66397 0.73692 0.85918 0.0
H154 H 0.6807 0.62256 0.82311 0.0
H155 H 0.61956 0.55396 0.84566 0.0
C156 C 0.43723 0.43597 0.86616 0.0
C157 C 0.44745 0.41092 0.84986 0.0
C158 C 0.40666 0.37392 0.83737 0.0
C159 C 0.35436 0.36041 0.84102 0.0
C160 C 0.34417 0.38473 0.8577 0.0
C161 C 0.38512 0.42259 0.86988 0.0
C162 C 0.48144 0.47847 0.87826 0.0
C163 C 0.52313 0.51901 0.86749 0.0
C164 C 0.48182 0.48098 0.90002 0.0
C165 C 0.43903 0.44071 0.91269 0.0
C166 C 0.4264 0.3882 0.91195 0.0
C167 C 0.38685 0.3512 0.9245 0.0
C168 C 0.35898 0.36608 0.93782 0.0
C169 C 0.37171 0.41865 0.93841 0.0
C170 C 0.41148 0.45556 0.92609 0.0
C171 C 0.60753 0.60811 0.91181 0.0
C172 C 0.59447 0.63208 0.92767 0.0
C173 C 0.63347 0.6714 0.94 0.0
C174 C 0.6865 0.68817 0.93659 0.0
C175 C 0.69987 0.66498 0.92054 0.0
C176 C 0.66068 0.62481 0.90841 0.0
C177 C 0.56508 0.56438 0.89955 0.0
C178 C 0.52368 0.52357 0.91028 0.0
C179 C 0.5647 0.56226 0.87773 0.0
C180 C 0.60511 0.60528 0.86503 0.0
C181 C 0.61805 0.6574 0.86838 0.0
C182 C 0.65441 0.69718 0.85584 0.0
C183 C 0.67775 0.68572 0.83922 0.0
C184 C 0.66456 0.6334 0.8359 0.0
C185 C 0.62895 0.59382 0.84869 0.0
H186 H 0.94276 0.11147 0.09373 0.0
H187 H 0.10954 0.17688 0.10202 0.0
H188 H 0.94609 0.18002 0.11628 0.0
H189 H 0.11294 0.24625 0.12409 0.0
H190 H 0.09124 0.39119 0.14017 0.0
H191 H 0.08924 0.32349 0.11788 0.0
H192 H 0.97436 0.20458 0.15695 0.0
H193 H 0.97843 0.27189 0.18017 0.0
C194 C 0.98016 0.14078 0.10021 0.0
C195 C 0.0259 0.1389 0.09618 0.0
C196 C 0.98196 0.17971 0.11316 0.0
C197 C 0.02973 0.21812 0.12189 0.0
C198 C 0.07568 0.21703 0.11748 0.0
C199 C 0.07369 0.17738 0.10492 0.0
C200 C 0.0663 0.35076 0.14438 0.0
C201 C 0.03519 0.33739 0.16218 0.0
C202 C 0.06493 0.31204 0.13145 0.0
C203 C 0.03156 0.25905 0.13572 0.0
C204 C 1.00005 0.24532 0.15327 0.0
C205 C 1.00223 0.28401 0.16648 0.0
H206 H 0.85796 0.92304 0.43933 0.0
H207 H 0.91923 0.07993 0.4169 0.0
H208 H 0.79831 0.93412 0.46149 0.0
H209 H 0.85809 0.09053 0.43893 0.0
H210 H 0.77509 0.10472 0.49732 0.0
H211 H 0.83794 0.09828 0.4748 0.0
H212 H 0.72045 0.93964 0.45853 0.0
H213 H 0.65824 0.94596 0.48109 0.0
C214 C 0.85859 0.95989 0.439 0.0
C215 C 0.89335 1.00047 0.42616 0.0
C216 C 0.82403 0.96613 0.45169 0.0
C217 C 0.82289 0.013 0.45186 0.0
C218 C 0.85816 0.05402 0.43928 0.0
C219 C 0.89304 0.04783 0.42658 0.0
C220 C 0.7627 0.06864 0.48881 0.0
C221 C 0.71185 0.02565 0.49117 0.0
C222 C 0.79866 0.06497 0.47588 0.0
C223 C 0.78446 0.01827 0.46499 0.0
C224 C 0.73319 0.9758 0.46704 0.0
C225 C 0.69745 0.9794 0.47998 0.0
H226 H 0.80997 0.92947 0.74729 0.0
H227 H 0.94275 0.91617 0.76637 0.0
H228 H 0.75344 0.85832 0.76971 0.0
H229 H 0.88677 0.84658 0.78986 0.0
H230 H 0.7639 0.6946 0.81897 0.0
H231 H 0.81972 0.76036 0.79444 0.0
H232 H 0.73301 0.84057 0.80399 0.0
H233 H 0.67453 0.77259 0.82696 0.0
C234 C 0.82712 0.91139 0.7564 0.0
C235 C 0.88086 0.92862 0.75514 0.0
C236 C 0.79475 0.87079 0.76946 0.0
C237 C 0.81538 0.84694 0.78201 0.0
C238 C 0.86912 0.86343 0.78035 0.0
C239 C 0.90138 0.90351 0.76693 0.0
C240 C 0.75609 0.72575 0.8156 0.0
C241 C 0.71418 0.72773 0.82501 0.0
C242 C 0.78881 0.76412 0.8017 0.0
C243 C 0.78104 0.80601 0.797 0.0
C244 C 0.73981 0.8085 0.80676 0.0
C245 C 0.70665 0.76978 0.82036 0.0
H246 H 0.09333 0.93331 0.07643 0.0
H247 H 0.94953 0.89942 0.10652 0.0
H248 H 0.09759 0.8672 0.0973 0.0
H249 H 0.95418 0.83444 0.12745 0.0
H250 H 0.9513 0.68831 0.1491 0.0
H251 H 0.94685 0.74928 0.12552 0.0
H252 H 0.11325 0.8548 0.13342 0.0
H253 H 0.11772 0.79377 0.15708 0.0
C254 C 0.06251 0.91156 0.08738 0.0
C255 C 0.02114 0.92165 0.08982 0.0
C256 C 0.06513 0.87397 0.09944 0.0
C257 C 0.02626 0.84553 0.11408 0.0
C258 C 0.98442 0.85505 0.11616 0.0
C259 C 0.98193 0.8926 0.10421 0.0
C260 C 0.98691 0.72467 0.14594 0.0
C261 C 0.0348 0.73625 0.15513 0.0
C262 C 0.98437 0.7596 0.13237 0.0
C263 C 0.02966 0.80706 0.1276 0.0
C264 C 0.07774 0.8183 0.13652 0.0
C265 C 0.08027 0.78333 0.15012 0.0
H266 H 0.12345 0.08094 0.43652 0.0
H267 H 0.13223 0.95172 0.4095 0.0
H268 H 0.19621 0.09868 0.45998 0.0
H269 H 0.20549 0.97035 0.43243 0.0
H270 H 0.36812 0.05464 0.46431 0.0
H271 H 0.30291 0.04992 0.43969 0.0
H272 H 0.20207 0.03766 0.48985 0.0
H273 H 0.26695 0.04135 0.51453 0.0
C274 C 0.14157 0.05705 0.43534 0.0
C275 C 0.1222 0.01489 0.42125 0.0
C276 C 0.18285 0.06698 0.4488 0.0
C277 C 0.20627 0.03581 0.44797 0.0
C278 C 0.18827 0.9951 0.4333 0.0
C279 C 0.14631 0.98438 0.42024 0.0
C280 C 0.3323 0.05158 0.47007 0.0
C281 C 0.32244 0.04825 0.4913 0.0
C282 C 0.29503 0.04874 0.456 0.0
C283 C 0.24767 0.04361 0.46291 0.0
C284 C 0.23852 0.04208 0.48416 0.0
C285 C 0.27536 0.04382 0.49823 0.0
H286 H 0.12161 0.09189 0.76736 0.0
H287 H 0.10128 0.22099 0.75034 0.0
H288 H 0.19186 0.1491 0.79118 0.0
H289 H 0.17337 0.27901 0.77299 0.0
H290 H 0.26498 0.36118 0.82968 0.0
H291 H 0.19499 0.301 0.80701 0.0
H292 H 0.27732 0.21695 0.79587 0.0
H293 H 0.34497 0.27415 0.82028 0.0
C294 C 0.13283 0.13276 0.76848 0.0
C295 C 0.10568 0.15188 0.75714 0.0
C296 C 0.17333 0.16575 0.78207 0.0
C297 C 0.18834 0.21892 0.78431 0.0
C298 C 0.16216 0.23814 0.77229 0.0
C299 C 0.12101 0.20495 0.7591 0.0
C300 C 0.26783 0.32922 0.82285 0.0
C301 C 0.31104 0.32285 0.82702 0.0
C302 C 0.22791 0.2951 0.80938 0.0
C303 C 0.2304 0.25414 0.79924 0.0
C304 C 0.27347 0.24756 0.80345 0.0
C305 C 0.31295 0.28112 0.81727 0.0
H306 H 0.93065 0.09957 0.68361 0.0
H307 H 0.86633 0.93387 0.67393 0.0
H308 H 0.86342 0.09719 0.66133 0.0
H309 H 0.79651 0.93034 0.65259 0.0
H310 H 0.71003 0.95039 0.59834 0.0
H311 H 0.77672 0.951 0.62082 0.0
H312 H 0.77674 0.0731 0.65812 0.0
H313 H 0.71281 0.07431 0.63477 0.0
C314 C 0.90144 0.06238 0.67696 0.0
C315 C 0.90371 0.01693 0.68047 0.0
C316 C 0.86249 0.06084 0.66425 0.0
C317 C 0.82398 0.0135 0.65508 0.0
C318 C 0.82587 0.96776 0.65898 0.0
C319 C 0.86563 0.96959 0.67136 0.0
C320 C 0.72463 0.9773 0.61136 0.0
C321 C 0.70685 0.0126 0.61479 0.0
C322 C 0.76253 0.97748 0.62438 0.0
C323 C 0.78263 0.01226 0.64138 0.0
C324 C 0.76352 0.04666 0.64496 0.0
C325 C 0.72656 0.04722 0.63169 0.0
H326 H 0.88177 0.98628 0.99531 0.0
H327 H 0.91233 0.8841 0.03229 0.0
H328 H 0.82662 0.91316 0.9722 0.0
H329 H 0.85618 0.8106 0.00921 0.0
H330 H 0.69121 0.69177 0.97844 0.0
H331 H 0.75534 0.76284 1.00063 0.0
H332 H 0.83734 0.8497 0.94696 0.0
H333 H 0.77345 0.77816 0.92474 0.0
C334 C 0.87675 0.94821 0.9985 0.0
C335 C 0.90124 0.94091 0.01569 0.0
C336 C 0.84549 0.90649 0.98517 0.0
C337 C 0.83726 0.85635 0.98893 0.0
C338 C 0.86186 0.84892 1.00603 0.0
C339 C 0.89405 0.89096 0.01917 0.0
C340 C 0.72323 0.7259 0.97143 0.0
C341 C 0.72741 0.72969 0.94992 0.0
C342 C 0.76003 0.76632 0.9841 0.0
C343 C 0.80117 0.81169 0.97548 0.0
C344 C 0.80583 0.81516 0.95396 0.0
C345 C 0.76954 0.77426 0.94128 0.0
H346 H 0.95819 0.87512 0.3591 0.0
H347 H 0.09981 0.99735 0.33189 0.0
H348 H 0.96179 0.81065 0.33659 0.0
H349 H 0.10307 0.93275 0.30912 0.0
H350 H 0.9494 0.72226 0.27691 0.0
H351 H 0.94957 0.7881 0.29978 0.0
H352 H 0.11635 0.85678 0.30945 0.0
H353 H 0.11617 0.79056 0.28666 0.0
C354 C 0.9902 0.8882 0.34835 0.0
C355 C 0.0286 0.94133 0.3472 0.0
C356 C 0.99206 0.8513 0.33535 0.0
C357 C 0.03243 0.86664 0.32092 0.0
C358 C 0.07163 0.91965 0.32014 0.0
C359 C 0.06967 0.95665 0.33313 0.0
C360 C 0.98608 0.75117 0.284 0.0
C361 C 0.03272 0.75092 0.28001 0.0
C362 C 0.98617 0.7889 0.29713 0.0
C363 C 0.03291 0.82745 0.30656 0.0
C364 C 0.07977 0.8279 0.30228 0.0
C365 C 0.07966 0.79001 0.28917 0.0
H366 H 0.14777 0.09949 0.6718 0.0
H367 H 0.1098 0.95128 0.69801 0.0
H368 H 0.21416 0.09725 0.65057 0.0
H369 H 0.17729 0.9493 0.67672 0.0
H370 H 0.25368 0.93837 0.61526 0.0
H371 H 0.19149 0.93953 0.63964 0.0
H372 H 0.29929 0.10293 0.65276 0.0
H373 H 0.36154 0.10177 0.62855 0.0
C374 C 0.15397 0.06658 0.67319 0.0
C375 C 0.1234 0.02548 0.68658 0.0
C376 C 0.19234 0.06548 0.66108 0.0
C377 C 0.2011 0.02312 0.66193 0.0
C378 C 0.17114 0.98227 0.67558 0.0
C379 C 0.1328 0.98357 0.68787 0.0
C380 C 0.26438 0.97441 0.62351 0.0
C381 C 0.31251 0.02011 0.61978 0.0
C382 C 0.22875 0.97502 0.63753 0.0
C383 C 0.24033 0.02135 0.64811 0.0
C384 C 0.28878 0.06678 0.64462 0.0
C385 C 0.3244 0.06616 0.63066 0.0
H386 H 0.13755 0.10347 0.01395 0.0
H387 H 0.10954 0.23099 0.02615 0.0
H388 H 0.20738 0.15852 0.99014 0.0
H389 H 0.17983 0.28611 1.00308 0.0
H390 H 0.2618 0.35289 0.94365 0.0
H391 H 0.19446 0.29419 0.96719 0.0
H392 H 0.29387 0.23388 0.98634 0.0
H393 H 0.36097 0.29215 0.96223 0.0
C394 C 0.14681 0.14343 0.0118 0.0
C395 C 0.11753 0.16261 0.02176 0.0
C396 C 0.18689 0.17504 0.99817 0.0
C397 C 0.19874 0.22658 0.99437 0.0
C398 C 0.17087 0.24621 1.0051 0.0
C399 C 0.1307 0.21463 0.01849 0.0
C400 C 0.26925 0.32706 0.95287 0.0
C401 C 0.31684 0.32746 0.95121 0.0
C402 C 0.23075 0.29352 0.96648 0.0
C403 C 0.23895 0.25978 0.97899 0.0
C404 C 0.28603 0.25907 0.97689 0.0
C405 C 0.32451 0.29246 0.96309 0.0
H406 H 0.95638 0.09285 0.33007 0.0
H407 H 0.06757 0.20993 0.37249 0.0
H408 H 0.96022 0.16126 0.30847 0.0
H409 H 0.07094 0.27876 0.35077 0.0
H410 H 0.0128 0.37793 0.31491 0.0
H411 H 0.00934 0.3116 0.33808 0.0
H412 H 0.03112 0.2319 0.28637 0.0
H413 H 0.03465 0.2981 0.26326 0.0
C414 C 0.98134 0.13322 0.3349 0.0
C415 C 0.01178 0.14596 0.353 0.0
C416 C 0.98375 0.17239 0.32243 0.0
C417 C 0.01616 0.22531 0.32785 0.0
C418 C 0.0455 0.23823 0.34626 0.0
C419 C 0.04365 0.1989 0.35865 0.0
C420 C 0.01674 0.34614 0.30853 0.0
C421 C 0.02386 0.34307 0.28728 0.0
C422 C 0.01518 0.30849 0.3218 0.0
C423 C 0.01982 0.26656 0.31402 0.0
C424 C 0.02702 0.26358 0.29277 0.0
C425 C 0.02938 0.30161 0.27957 0.0
loop_
_geom_bond_atom_site_label_1
_geom_bond_atom_site_label_2
_geom_bond_distance
_geom_bond_site_symmetry_2
_ccdc_geom_bond_type
Co0 O1 2.216 1_445 S
Co0 O2 2.091 1_545 S
Co0 O4 2.004 . S
Co0 O10 2.021 1_445 S
Co0 O12 2.137 . S
Co0 O13 2.244 1_455 S
O1 Co0 2.216 1_665 S
O1 C8 1.247 1_655 S
O2 Co0 2.091 1_565 S
O2 C8 1.261 . S
C3 O12 1.247 . S
C3 O13 1.272 1_455 S
O4 Co0 2.004 . S
O4 C9 1.259 . S
Co5 O6 2.061 1_655 S
Co5 O11 2.052 . S
Co5 O13 2.135 . S
O6 Co5 2.061 1_455 S
O6 C9 1.235 . S
C7 O10 1.238 . S
C7 O11 1.241 1_565 S
C8 O1 1.247 1_455 S
C8 O2 1.261 . S
C9 O4 1.259 . S
C9 O6 1.235 . S
O10 Co0 2.021 1_665 S
O10 C7 1.238 . S
O11 Co5 2.052 . S
O11 C7 1.241 1_545 S
O12 Co0 2.137 . S
O12 C3 1.247 . S
O13 Co0 2.244 1_655 S
O13 C3 1.272 1_655 S
O13 Co5 2.135 . S
Co14 O15 2.216 1_455 S
Co14 O16 2.091 . S
Co14 O18 2.004 . S
Co14 O24 2.021 1_455 S
Co14 O26 2.137 . S
Co14 O27 2.244 1_445 S
O15 Co14 2.216 1_655 S
O15 C22 1.247 1_655 S
O16 Co14 2.091 . S
O16 C22 1.261 . S
C17 O26 1.247 1_565 S
C17 O27 1.272 1_455 S
O18 Co14 2.004 . S
O18 C23 1.259 . S
Co19 O20 2.061 1_655 S
Co19 O25 2.052 . S
Co19 O27 2.135 . S
O20 Co19 2.061 1_455 S
O20 C23 1.235 1_565 S
C21 O24 1.238 . S
C21 O25 1.241 1_545 S
C22 O15 1.247 1_455 S
C22 O16 1.261 . S
C23 O18 1.259 . S
C23 O20 1.235 1_545 S
O24 Co14 2.021 1_655 S
O24 C21 1.238 . S
O25 Co19 2.052 . S
O25 C21 1.241 1_565 S
O26 Co14 2.137 . S
O26 C17 1.247 1_545 S
O27 Co14 2.244 1_665 S
O27 C17 1.272 1_655 S
O27 Co19 2.135 . S
Co28 O29 2.216 . S
Co28 O30 2.091 1_545 S
Co28 O32 2.004 1_445 S
Co28 O38 2.021 . S
Co28 O40 2.137 1_445 S
Co28 O41 2.244 1_455 S
O29 Co28 2.216 . S
O29 C36 1.247 . S
O30 Co28 2.091 1_565 S
O30 C36 1.261 1_565 S
C31 O40 1.247 1_545 S
C31 O41 1.272 . S
O32 Co28 2.004 1_665 S
O32 C37 1.259 . S
Co33 O34 2.061 1_545 S
Co33 O39 2.052 1_655 S
Co33 O41 2.135 . S
O34 Co33 2.061 1_565 S
O34 C37 1.235 . S
C35 O38 1.238 . S
C35 O39 1.241 . S
C36 O29 1.247 . S
C36 O30 1.261 1_545 S
C37 O32 1.259 . S
C37 O34 1.235 . S
O38 Co28 2.021 . S
O38 C35 1.238 . S
O39 Co33 2.052 1_455 S
O39 C35 1.241 . S
O40 Co28 2.137 1_665 S
O40 C31 1.247 1_565 S
O41 Co28 2.244 1_655 S
O41 C31 1.272 . S
O41 Co33 2.135 . S
H42 C61 0.949 . S
H43 C62 0.950 . S
H44 C64 0.950 . S
H45 C65 0.950 . S
H46 C67 0.950 . S
H47 C70 0.950 . S
H48 C71 0.950 . S
H49 C73 0.951 . S
H50 C74 0.949 . S
H51 C76 0.949 . S
H52 C77 0.950 . S
H53 C79 0.950 . S
H54 C80 0.950 . S
H55 C82 0.950 1_655 S
H56 C85 0.950 . S
H57 C86 0.950 . S
H58 C88 0.951 . S
H59 C89 0.949 . S
C60 C61 1.376 . S
C60 C65 1.386 1_455 S
C60 C66 1.483 . S
C61 H42 0.949 . S
C61 C60 1.376 . S
C61 C62 1.397 . S
C62 H43 0.950 . S
C62 C61 1.397 . S
C62 C63 1.391 . S
C63 C62 1.391 . S
C63 C64 1.405 1_455 S
C64 H44 0.950 . S
C64 C63 1.405 1_655 S
C64 C65 1.367 . S
C65 H45 0.950 . S
C65 C60 1.386 1_655 S
C65 C64 1.367 . S
C66 C60 1.483 . S
C66 C67 1.382 . S
C66 C68 1.403 . S
C67 H46 0.950 . S
C67 C66 1.382 . S
C67 C83 1.411 . S
C68 C66 1.403 . S
C68 C69 1.489 . S
C68 C82 1.411 . S
C69 C68 1.489 . S
C69 C70 1.383 . S
C69 C74 1.382 1_455 S
C70 H47 0.950 . S
C70 C69 1.383 . S
C70 C71 1.395 . S
C71 H48 0.950 . S
C71 C70 1.395 . S
C71 C72 1.288 . S
C72 C71 1.288 . S
C72 C73 1.392 1_455 S
C73 H49 0.951 . S
C73 C72 1.392 1_655 S
C73 C74 1.392 . S
C74 H50 0.949 . S
C74 C69 1.382 1_655 S
C74 C73 1.392 . S
C75 C76 1.376 1_455 S
C75 C80 1.386 . S
C75 C81 1.483 . S
C76 H51 0.949 . S
C76 C75 1.376 1_655 S
C76 C77 1.397 . S
C77 H52 0.950 . S
C77 C76 1.397 . S
C77 C78 1.391 1_655 S
C78 C77 1.391 1_455 S
C78 C79 1.405 . S
C79 H53 0.950 . S
C79 C78 1.405 . S
C79 C80 1.367 . S
C80 H54 0.950 . S
C80 C75 1.386 . S
C80 C79 1.367 . S
C81 C75 1.483 . S
C81 C82 1.382 . S
C81 C83 1.403 . S
C82 H55 0.950 1_455 S
C82 C68 1.411 . S
C82 C81 1.382 . S
C83 C67 1.411 . S
C83 C81 1.403 . S
C83 C84 1.489 . S
C84 C83 1.489 . S
C84 C85 1.383 1_455 S
C84 C89 1.382 . S
C85 H56 0.950 . S
C85 C84 1.383 1_655 S
C85 C86 1.395 . S
C86 H57 0.950 . S
C86 C85 1.395 . S
C86 C87 1.288 1_655 S
C87 C86 1.288 1_455 S
C87 C88 1.392 . S
C88 H58 0.951 . S
C88 C87 1.392 . S
C88 C89 1.392 . S
C89 H59 0.949 . S
C89 C84 1.382 . S
C89 C88 1.392 . S
H90 C109 0.949 . S
H91 C110 0.950 . S
H92 C112 0.950 . S
H93 C113 0.950 . S
H94 C115 0.950 . S
H95 C118 0.950 . S
H96 C119 0.950 . S
H97 C121 0.951 . S
H98 C122 0.949 . S
H99 C124 0.949 . S
H100 C125 0.950 . S
H101 C127 0.950 . S
H102 C128 0.950 . S
H103 C130 0.950 . S
H104 C133 0.950 . S
H105 C134 0.950 . S
H106 C136 0.951 . S
H107 C137 0.949 . S
C108 C109 1.376 . S
C108 C113 1.386 1_545 S
C108 C114 1.483 . S
C109 H90 0.949 . S
C109 C108 1.376 . S
C109 C110 1.397 . S
C110 H91 0.950 . S
C110 C109 1.397 . S
C110 C111 1.391 . S
C111 C110 1.391 . S
C111 C112 1.405 1_545 S
C112 H92 0.950 . S
C112 C111 1.405 1_565 S
C112 C113 1.367 . S
C113 H93 0.950 . S
C113 C108 1.386 1_565 S
C113 C112 1.367 . S
C114 C108 1.483 . S
C114 C115 1.382 . S
C114 C116 1.403 . S
C115 H94 0.950 . S
C115 C114 1.382 . S
C115 C131 1.411 . S
C116 C114 1.403 . S
C116 C117 1.489 . S
C116 C130 1.411 . S
C117 C116 1.489 . S
C117 C118 1.383 . S
C117 C122 1.382 1_545 S
C118 H95 0.950 . S
C118 C117 1.383 . S
C118 C119 1.395 . S
C119 H96 0.950 . S
C119 C118 1.395 . S
C119 C120 1.288 . S
C120 C119 1.288 . S
C120 C121 1.392 1_545 S
C121 H97 0.951 . S
C121 C120 1.392 1_565 S
C121 C122 1.392 . S
C122 H98 0.949 . S
C122 C117 1.382 1_565 S
C122 C121 1.392 . S
C123 C124 1.376 1_545 S
C123 C128 1.386 . S
C123 C129 1.483 . S
C124 H99 0.949 . S
C124 C123 1.376 1_565 S
C124 C125 1.397 . S
C125 H100 0.950 . S
C125 C124 1.397 . S
C125 C126 1.391 1_565 S
C126 C125 1.391 1_545 S
C126 C127 1.405 . S
C127 H101 0.950 . S
C127 C126 1.405 . S
C127 C128 1.367 . S
C128 H102 0.950 . S
C128 C123 1.386 . S
C128 C127 1.367 . S
C129 C123 1.483 . S
C129 C130 1.382 . S
C129 C131 1.403 . S
C130 H103 0.950 . S
C130 C116 1.411 . S
C130 C129 1.382 . S
C131 C115 1.411 . S
C131 C129 1.403 . S
C131 C132 1.489 . S
C132 C131 1.489 . S
C132 C133 1.383 1_545 S
C132 C137 1.382 . S
C133 H104 0.950 . S
C133 C132 1.383 1_565 S
C133 C134 1.395 . S
C134 H105 0.950 . S
C134 C133 1.395 . S
C134 C135 1.288 1_565 S
C135 C134 1.288 1_545 S
C135 C136 1.392 . S
C136 H106 0.951 . S
C136 C135 1.392 . S
C136 C137 1.392 . S
C137 H107 0.949 . S
C137 C132 1.382 . S
C137 C136 1.392 . S
H138 C157 0.949 . S
H139 C158 0.950 . S
H140 C160 0.950 . S
H141 C161 0.950 . S
H142 C163 0.950 . S
H143 C166 0.950 . S
H144 C167 0.950 . S
H145 C169 0.951 . S
H146 C170 0.949 . S
H147 C172 0.949 . S
H148 C173 0.950 . S
H149 C175 0.950 . S
H150 C176 0.950 . S
H151 C178 0.950 . S
H152 C181 0.950 . S
H153 C182 0.950 . S
H154 C184 0.951 . S
H155 C185 0.949 . S
C156 C157 1.376 . S
C156 C161 1.386 . S
C156 C162 1.483 . S
C157 H138 0.949 . S
C157 C156 1.376 . S
C157 C158 1.397 . S
C158 H139 0.950 . S
C158 C157 1.397 . S
C158 C159 1.391 . S
C159 C158 1.391 . S
C159 C160 1.405 . S
C160 H140 0.950 . S
C160 C159 1.405 . S
C160 C161 1.367 . S
C161 H141 0.950 . S
C161 C156 1.386 . S
C161 C160 1.367 . S
C162 C156 1.483 . S
C162 C163 1.382 . S
C162 C164 1.403 . S
C163 H142 0.950 . S
C163 C162 1.382 . S
C163 C179 1.411 . S
C164 C162 1.403 . S
C164 C165 1.489 . S
C164 C178 1.411 . S
C165 C164 1.489 . S
C165 C166 1.383 . S
C165 C170 1.382 . S
C166 H143 0.950 . S
C166 C165 1.383 . S
C166 C167 1.395 . S
C167 H144 0.950 . S
C167 C166 1.395 . S
C167 C168 1.288 . S
C168 C167 1.288 . S
C168 C169 1.392 . S
C169 H145 0.951 . S
C169 C168 1.392 . S
C169 C170 1.392 . S
C170 H146 0.949 . S
C170 C165 1.382 . S
C170 C169 1.392 . S
C171 C172 1.376 . S
C171 C176 1.386 . S
C171 C177 1.483 . S
C172 H147 0.949 . S
C172 C171 1.376 . S
C172 C173 1.397 . S
C173 H148 0.950 . S
C173 C172 1.397 . S
C173 C174 1.391 . S
C174 C173 1.391 . S
C174 C175 1.405 . S
C175 H149 0.950 . S
C175 C174 1.405 . S
C175 C176 1.367 . S
C176 H150 0.950 . S
C176 C171 1.386 . S
C176 C175 1.367 . S
C177 C171 1.483 . S
C177 C178 1.382 . S
C177 C179 1.403 . S
C178 H151 0.950 . S
C178 C164 1.411 . S
C178 C177 1.382 . S
C179 C163 1.411 . S
C179 C177 1.403 . S
C179 C180 1.489 . S
C180 C179 1.489 . S
C180 C181 1.383 . S
C180 C185 1.382 . S
C181 H152 0.950 . S
C181 C180 1.383 . S
C181 C182 1.395 . S
C182 H153 0.950 . S
C182 C181 1.395 . S
C182 C183 1.288 . S
C183 C182 1.288 . S
C183 C184 1.392 . S
C184 H154 0.951 . S
C184 C183 1.392 . S
C184 C185 1.392 . S
C185 H155 0.949 . S
C185 C180 1.382 . S
C185 C184 1.392 . S
H186 C194 0.950 . S
H187 C199 0.950 . S
H188 C196 0.950 . S
H189 C198 0.950 . S
H190 C200 0.950 . S
H191 C202 0.950 . S
H192 C204 0.950 . S
H193 C205 0.950 . S
C194 H186 0.950 . S
C194 C195 1.386 1_655 S
C194 C196 1.391 . S
C195 C194 1.386 1_455 S
C195 C199 1.393 . S
C196 H188 0.950 . S
C196 C194 1.391 . S
C196 C197 1.400 1_655 S
C197 C196 1.400 1_455 S
C197 C198 1.398 . S
C197 C203 1.491 . S
C198 H189 0.950 . S
C198 C197 1.398 . S
C198 C199 1.391 . S
C199 H187 0.950 . S
C199 C195 1.393 . S
C199 C198 1.391 . S
C200 H190 0.950 . S
C200 C201 1.386 . S
C200 C202 1.391 . S
C201 C200 1.386 . S
C201 C205 1.393 1_455 S
C202 H191 0.950 . S
C202 C200 1.391 . S
C202 C203 1.400 . S
C203 C197 1.491 . S
C203 C202 1.400 . S
C203 C204 1.398 1_455 S
C204 H192 0.950 . S
C204 C203 1.398 1_655 S
C204 C205 1.391 . S
C205 H193 0.950 . S
C205 C201 1.393 1_655 S
C205 C204 1.391 . S
H206 C214 0.950 . S
H207 C219 0.950 . S
H208 C216 0.950 . S
H209 C218 0.950 . S
H210 C220 0.950 . S
H211 C222 0.950 . S
H212 C224 0.950 . S
H213 C225 0.950 . S
C214 H206 0.950 . S
C214 C215 1.386 1_565 S
C214 C216 1.391 . S
C215 C214 1.386 1_545 S
C215 C219 1.393 . S
C216 H208 0.950 . S
C216 C214 1.391 . S
C216 C217 1.400 1_565 S
C217 C216 1.400 1_545 S
C217 C218 1.398 . S
C217 C223 1.491 . S
C218 H209 0.950 . S
C218 C217 1.398 . S
C218 C219 1.391 . S
C219 H207 0.950 . S
C219 C215 1.393 . S
C219 C218 1.391 . S
C220 H210 0.950 . S
C220 C221 1.386 . S
C220 C222 1.391 . S
C221 C220 1.386 . S
C221 C225 1.393 1_545 S
C222 H211 0.950 . S
C222 C220 1.391 . S
C222 C223 1.400 . S
C223 C217 1.491 . S
C223 C222 1.400 . S
C223 C224 1.398 1_545 S
C224 H212 0.950 . S
C224 C223 1.398 1_565 S
C224 C225 1.391 . S
C225 H213 0.950 . S
C225 C221 1.393 1_565 S
C225 C224 1.391 . S
H226 C234 0.950 . S
H227 C239 0.950 . S
H228 C236 0.950 . S
H229 C238 0.950 . S
H230 C240 0.950 . S
H231 C242 0.950 . S
H232 C244 0.950 . S
H233 C245 0.950 . S
C234 H226 0.950 . S
C234 C235 1.386 . S
C234 C236 1.391 . S
C235 C234 1.386 . S
C235 C239 1.393 . S
C236 H228 0.950 . S
C236 C234 1.391 . S
C236 C237 1.400 . S
C237 C236 1.400 . S
C237 C238 1.398 . S
C237 C243 1.491 . S
C238 H229 0.950 . S
C238 C237 1.398 . S
C238 C239 1.391 . S
C239 H227 0.950 . S
C239 C235 1.393 . S
C239 C238 1.391 . S
C240 H230 0.950 . S
C240 C241 1.386 . S
C240 C242 1.391 . S
C241 C240 1.386 . S
C241 C245 1.393 . S
C242 H231 0.950 . S
C242 C240 1.391 . S
C242 C243 1.400 . S
C243 C237 1.491 . S
C243 C242 1.400 . S
C243 C244 1.398 . S
C244 H232 0.950 . S
C244 C243 1.398 . S
C244 C245 1.391 . S
C245 H233 0.950 . S
C245 C241 1.393 . S
C245 C244 1.391 . S
H246 C254 0.950 . S
H247 C259 0.950 . S
H248 C256 0.950 . S
H249 C258 0.950 . S
H250 C260 0.950 . S
H251 C262 0.950 . S
H252 C264 0.950 . S
H253 C265 0.950 . S
C254 H246 0.950 . S
C254 C255 1.386 . S
C254 C256 1.391 . S
C255 C254 1.386 . S
C255 C259 1.393 1_455 S
C256 H248 0.950 . S
C256 C254 1.391 . S
C256 C257 1.400 . S
C257 C256 1.400 . S
C257 C258 1.398 1_455 S
C257 C263 1.491 . S
C258 H249 0.950 . S
C258 C257 1.398 1_655 S
C258 C259 1.391 . S
C259 H247 0.950 . S
C259 C255 1.393 1_655 S
C259 C258 1.391 . S
C260 H250 0.950 . S
C260 C261 1.386 1_655 S
C260 C262 1.391 . S
C261 C260 1.386 1_455 S
C261 C265 1.393 . S
C262 H251 0.950 . S
C262 C260 1.391 . S
C262 C263 1.400 1_655 S
C263 C257 1.491 . S
C263 C262 1.400 1_455 S
C263 C264 1.398 . S
C264 H252 0.950 . S
C264 C263 1.398 . S
C264 C265 1.391 . S
C265 H253 0.950 . S
C265 C261 1.393 . S
C265 C264 1.391 . S
H266 C274 0.950 . S
H267 C279 0.950 . S
H268 C276 0.950 . S
H269 C278 0.950 . S
H270 C280 0.950 . S
H271 C282 0.950 . S
H272 C284 0.950 . S
H273 C285 0.950 . S
C274 H266 0.950 . S
C274 C275 1.386 . S
C274 C276 1.391 . S
C275 C274 1.386 . S
C275 C279 1.393 . S
C276 H268 0.950 . S
C276 C274 1.391 . S
C276 C277 1.400 . S
C277 C276 1.400 . S
C277 C278 1.398 . S
C277 C283 1.491 . S
C278 H269 0.950 . S
C278 C277 1.398 . S
C278 C279 1.391 . S
C279 H267 0.950 . S
C279 C275 1.393 . S
C279 C278 1.391 . S
C280 H270 0.950 . S
C280 C281 1.386 . S
C280 C282 1.391 . S
C281 C280 1.386 . S
C281 C285 1.393 . S
C282 H271 0.950 . S
C282 C280 1.391 . S
C282 C283 1.400 . S
C283 C277 1.491 . S
C283 C282 1.400 . S
C283 C284 1.398 . S
C284 H272 0.950 . S
C284 C283 1.398 . S
C284 C285 1.391 . S
C285 H273 0.950 . S
C285 C281 1.393 . S
C285 C284 1.391 . S
H286 C294 0.950 . S
H287 C299 0.950 . S
H288 C296 0.950 . S
H289 C298 0.950 . S
H290 C300 0.950 . S
H291 C302 0.950 . S
H292 C304 0.950 . S
H293 C305 0.950 . S
C294 H286 0.950 . S
C294 C295 1.386 . S
C294 C296 1.391 . S
C295 C294 1.386 . S
C295 C299 1.393 . S
C296 H288 0.950 . S
C296 C294 1.391 . S
C296 C297 1.400 . S
C297 C296 1.400 . S
C297 C298 1.398 . S
C297 C303 1.491 . S
C298 H289 0.950 . S
C298 C297 1.398 . S
C298 C299 1.391 . S
C299 H287 0.950 . S
C299 C295 1.393 . S
C299 C298 1.391 . S
C300 H290 0.950 . S
C300 C301 1.386 . S
C300 C302 1.391 . S
C301 C300 1.386 . S
C301 C305 1.393 . S
C302 H291 0.950 . S
C302 C300 1.391 . S
C302 C303 1.400 . S
C303 C297 1.491 . S
C303 C302 1.400 . S
C303 C304 1.398 . S
C304 H292 0.950 . S
C304 C303 1.398 . S
C304 C305 1.391 . S
C305 H293 0.950 . S
C305 C301 1.393 . S
C305 C304 1.391 . S
H306 C314 0.950 . S
H307 C319 0.950 . S
H308 C316 0.950 . S
H309 C318 0.950 . S
H310 C320 0.950 . S
H311 C322 0.950 . S
H312 C324 0.950 . S
H313 C325 0.950 . S
C314 H306 0.950 . S
C314 C315 1.386 . S
C314 C316 1.391 . S
C315 C314 1.386 . S
C315 C319 1.393 1_545 S
C316 H308 0.950 . S
C316 C314 1.391 . S
C316 C317 1.400 . S
C317 C316 1.400 . S
C317 C318 1.398 1_545 S
C317 C323 1.491 . S
C318 H309 0.950 . S
C318 C317 1.398 1_565 S
C318 C319 1.391 . S
C319 H307 0.950 . S
C319 C315 1.393 1_565 S
C319 C318 1.391 . S
C320 H310 0.950 . S
C320 C321 1.386 1_565 S
C320 C322 1.391 . S
C321 C320 1.386 1_545 S
C321 C325 1.393 . S
C322 H311 0.950 . S
C322 C320 1.391 . S
C322 C323 1.400 1_565 S
C323 C317 1.491 . S
C323 C322 1.400 1_545 S
C323 C324 1.398 . S
C324 H312 0.950 . S
C324 C323 1.398 . S
C324 C325 1.391 . S
C325 H313 0.950 . S
C325 C321 1.393 . S
C325 C324 1.391 . S
H326 C334 0.950 . S
H327 C339 0.950 . S
H328 C336 0.950 . S
H329 C338 0.950 . S
H330 C340 0.950 . S
H331 C342 0.950 . S
H332 C344 0.950 . S
H333 C345 0.950 . S
C334 H326 0.950 . S
C334 C335 1.386 1_556 S
C334 C336 1.391 . S
C335 C334 1.386 1_554 S
C335 C339 1.393 . S
C336 H328 0.950 . S
C336 C334 1.391 . S
C336 C337 1.400 . S
C337 C336 1.400 . S
C337 C338 1.398 1_556 S
C337 C343 1.491 . S
C338 H329 0.950 . S
C338 C337 1.398 1_554 S
C338 C339 1.391 . S
C339 H327 0.950 . S
C339 C335 1.393 . S
C339 C338 1.391 . S
C340 H330 0.950 . S
C340 C341 1.386 . S
C340 C342 1.391 . S
C341 C340 1.386 . S
C341 C345 1.393 . S
C342 H331 0.950 . S
C342 C340 1.391 . S
C342 C343 1.400 . S
C343 C337 1.491 . S
C343 C342 1.400 . S
C343 C344 1.398 . S
C344 H332 0.950 . S
C344 C343 1.398 . S
C344 C345 1.391 . S
C345 H333 0.950 . S
C345 C341 1.393 . S
C345 C344 1.391 . S
H346 C354 0.950 . S
H347 C359 0.950 . S
H348 C356 0.950 . S
H349 C358 0.950 . S
H350 C360 0.950 . S
H351 C362 0.950 . S
H352 C364 0.950 . S
H353 C365 0.950 . S
C354 H346 0.950 . S
C354 C355 1.386 . S
C354 C356 1.391 . S
C355 C354 1.386 . S
C355 C359 1.393 1_455 S
C356 H348 0.950 . S
C356 C354 1.391 . S
C356 C357 1.400 . S
C357 C356 1.400 . S
C357 C358 1.398 1_455 S
C357 C363 1.491 . S
C358 H349 0.950 . S
C358 C357 1.398 1_655 S
C358 C359 1.391 . S
C359 H347 0.950 . S
C359 C355 1.393 1_655 S
C359 C358 1.391 . S
C360 H350 0.950 . S
C360 C361 1.386 1_655 S
C360 C362 1.391 . S
C361 C360 1.386 1_455 S
C361 C365 1.393 . S
C362 H351 0.950 . S
C362 C360 1.391 . S
C362 C363 1.400 1_655 S
C363 C357 1.491 . S
C363 C362 1.400 1_455 S
C363 C364 1.398 . S
C364 H352 0.950 . S
C364 C363 1.398 . S
C364 C365 1.391 . S
C365 H353 0.950 . S
C365 C361 1.393 . S
C365 C364 1.391 . S
H366 C374 0.950 . S
H367 C379 0.950 . S
H368 C376 0.950 . S
H369 C378 0.950 . S
H370 C380 0.950 . S
H371 C382 0.950 . S
H372 C384 0.950 . S
H373 C385 0.950 . S
C374 H366 0.950 . S
C374 C375 1.386 . S
C374 C376 1.391 . S
C375 C374 1.386 . S
C375 C379 1.393 1_545 S
C376 H368 0.950 . S
C376 C374 1.391 . S
C376 C377 1.400 . S
C377 C376 1.400 . S
C377 C378 1.398 1_545 S
C377 C383 1.491 . S
C378 H369 0.950 . S
C378 C377 1.398 1_565 S
C378 C379 1.391 . S
C379 H367 0.950 . S
C379 C375 1.393 1_565 S
C379 C378 1.391 . S
C380 H370 0.950 . S
C380 C381 1.386 1_565 S
C380 C382 1.391 . S
C381 C380 1.386 1_545 S
C381 C385 1.393 . S
C382 H371 0.950 . S
C382 C380 1.391 . S
C382 C383 1.400 1_565 S
C383 C377 1.491 . S
C383 C382 1.400 1_545 S
C383 C384 1.398 . S
C384 H372 0.950 . S
C384 C383 1.398 . S
C384 C385 1.391 . S
C385 H373 0.950 . S
C385 C381 1.393 . S
C385 C384 1.391 . S
H386 C394 0.950 . S
H387 C399 0.950 . S
H388 C396 0.950 . S
H389 C398 0.950 . S
H390 C400 0.950 . S
H391 C402 0.950 . S
H392 C404 0.950 . S
H393 C405 0.950 . S
C394 H386 0.950 . S
C394 C395 1.386 1_556 S
C394 C396 1.391 . S
C395 C394 1.386 1_554 S
C395 C399 1.393 . S
C396 H388 0.950 . S
C396 C394 1.391 . S
C396 C397 1.400 . S
C397 C396 1.400 . S
C397 C398 1.398 . S
C397 C403 1.491 . S
C398 H389 0.950 . S
C398 C397 1.398 . S
C398 C399 1.391 1_556 S
C399 H387 0.950 . S
C399 C395 1.393 . S
C399 C398 1.391 1_554 S
C400 H390 0.950 . S
C400 C401 1.386 . S
C400 C402 1.391 . S
C401 C400 1.386 . S
C401 C405 1.393 . S
C402 H391 0.950 . S
C402 C400 1.391 . S
C402 C403 1.400 . S
C403 C397 1.491 . S
C403 C402 1.400 . S
C403 C404 1.398 . S
C404 H392 0.950 . S
C404 C403 1.398 . S
C404 C405 1.391 . S
C405 H393 0.950 . S
C405 C401 1.393 . S
C405 C404 1.391 . S
H406 C414 0.950 . S
H407 C419 0.950 1_655 S
H408 C416 0.950 . S
H409 C418 0.950 1_655 S
H410 C420 0.967 . S
H411 C422 0.944 1_655 S
H412 C424 0.950 . S
H413 C425 0.950 . S
C414 H406 0.950 . S
C414 C415 1.386 . S
C414 C416 1.391 . S
C415 C414 1.386 . S
C415 C419 1.393 . S
C416 H408 0.950 . S
C416 C414 1.391 . S
C416 C417 1.400 . S
C417 C416 1.400 . S
C417 C418 1.398 . S
C417 C423 1.491 . S
C418 H409 0.950 1_455 S
C418 C417 1.398 . S
C418 C419 1.391 . S
C419 H407 0.950 1_455 S
C419 C415 1.393 . S
C419 C418 1.391 . S
C420 H410 0.967 . S
C420 C421 1.379 1_655 S
C420 C422 1.373 1_655 S
C421 C420 1.379 1_455 S
C421 C425 1.393 . S
C422 H411 0.944 1_455 S
C422 C420 1.373 1_455 S
C422 C423 1.415 . S
C423 C417 1.491 . S
C423 C422 1.415 . S
C423 C424 1.398 . S
C424 H412 0.950 . S
C424 C423 1.398 . S
C424 C425 1.391 . S
C425 H413 0.950 . S
C425 C421 1.393 . S
C425 C424 1.391 . S
C201 C63 1.512 . S
C195 C3 1.505 . S
C215 C21 1.522 . S
C221 C111 1.545 . S
C235 C37 1.513 . S
C241 C183 1.522 . S
C255 C8 1.517 . S
C261 C87 1.508 . S
C281 C135 1.521 . S
C275 C23 1.504 . S
C295 C35 1.510 . S
C301 C159 1.527 . S
C321 C120 1.496 . S
C315 C31 1.495 . S
C335 C7 1.513 . S
C341 C174 1.529 . S
C361 C78 1.513 . S
C355 C17 1.512 . S
C381 C126 1.495 . S
C375 C36 1.495 . S
C401 C168 1.525 . S
C395 C9 1.500 . S
C415 C22 1.518 . S
C421 C72 1.516 . S
