# Generated by pormake.
# Topology ssb, (4,4)-cn, num edge types: 1
# Building blocks:
#     Node 0, Type 0, BuildingBlock: MIFKUJ_clean_linker_1, # of connection points: 4
#     Node 1, Type 0, BuildingBlock: MIFKUJ_clean_linker_1, # of connection points: 4
#     Node 2, Type 0, BuildingBlock: MIFKUJ_clean_linker_1, # of connection points: 4
#     Node 3, Type 0, BuildingBlock: MIFKUJ_clean_linker_1, # of connection points: 4
#     Node 4, Type 0, BuildingBlock: MIFKUJ_clean_linker_1, # of connection points: 4
#     Node 5, Type 0, BuildingBlock: MIFKUJ_clean_linker_1, # of connection points: 4
#     Node 6, Type 0, BuildingBlock: MIFKUJ_clean_linker_1, # of connection points: 4
#     Node 7, Type 0, BuildingBlock: MIFKUJ_clean_linker_1, # of connection points: 4
#     Node 8, Type 1, BuildingBlock: KOZSID_clean_sbu_0, # of connection points: 4
#     Node 9, Type 1, BuildingBlock: KOZSID_clean_sbu_0, # of connection points: 4
#     Node 10, Type 1, BuildingBlock: KOZSID_clean_sbu_0, # of connection points: 4
#     Node 11, Type 1, BuildingBlock: KOZSID_clean_sbu_0, # of connection points: 4
#     Node 12, Type 1, BuildingBlock: KOZSID_clean_sbu_0, # of connection points: 4
#     Node 13, Type 1, BuildingBlock: KOZSID_clean_sbu_0, # of connection points: 4
#     Node 14, Type 1, BuildingBlock: KOZSID_clean_sbu_0, # of connection points: 4
#     Node 15, Type 1, BuildingBlock: KOZSID_clean_sbu_0, # of connection points: 4
#     Edge 16, Type (0, 1), None
#     Edge 17, Type (0, 1), None
#     Edge 18, Type (0, 1), None
#     Edge 19, Type (0, 1), None
#     Edge 20, Type (0, 1), None
#     Edge 21, Type (0, 1), None
#     Edge 22, Type (0, 1), None
#     Edge 23, Type (0, 1), None
#     Edge 24, Type (0, 1), None
#     Edge 25, Type (0, 1), None
#     Edge 26, Type (0, 1), None
#     Edge 27, Type (0, 1), None
#     Edge 28, Type (0, 1), None
#     Edge 29, Type (0, 1), None
#     Edge 30, Type (0, 1), None
#     Edge 31, Type (0, 1), None
#     Edge 32, Type (0, 1), None
#     Edge 33, Type (0, 1), None
#     Edge 34, Type (0, 1), None
#     Edge 35, Type (0, 1), None
#     Edge 36, Type (0, 1), None
#     Edge 37, Type (0, 1), None
#     Edge 38, Type (0, 1), None
#     Edge 39, Type (0, 1), None
#     Edge 40, Type (0, 1), None
#     Edge 41, Type (0, 1), None
#     Edge 42, Type (0, 1), None
#     Edge 43, Type (0, 1), None
#     Edge 44, Type (0, 1), None
#     Edge 45, Type (0, 1), None
#     Edge 46, Type (0, 1), None
#     Edge 47, Type (0, 1), None
# Relax obj value: 0.006
# Max RMSD: 0.039
# Mean RMSD: 0.023
data_MOF--net-ssb--node1-KOZSID_clean_sbu_0--node2-MIFKUJ_clean_linker_1--edge1-none
_symmetry_space_group_name_H-M    P1
_symmetry_Int_Tables_number       1
_symmetry_cell_setting            triclinic
loop_
_symmetry_equiv_pos_as_xyz
'x, y, z'
_cell_length_a     36.510694
_cell_length_b     36.339372
_cell_length_c     26.86638
_cell_angle_alpha  93.726574
_cell_angle_beta   97.40037
_cell_angle_gamma 89.97657
loop_
_atom_site_label
_atom_site_type_symbol
_atom_site_fract_x
_atom_site_fract_y
_atom_site_fract_z
_atom_type_partial_charge
H0 H 0.31719 0.19902 0.2037 0.0
H1 H 0.36718 0.20664 0.15298 0.0
H2 H 0.39505 0.31227 0.23225 0.0
H3 H 0.34435 0.30465 0.28222 0.0
H4 H 0.31216 0.19683 0.30477 0.0
H5 H 0.27866 0.27613 0.17062 0.0
H6 H 0.28187 0.32771 0.11891 0.0
H7 H 0.25051 0.40105 0.23942 0.0
H8 H 0.25156 0.34953 0.29269 0.0
H9 H 0.21602 0.29308 0.40119 0.0
H10 H 0.16246 0.29345 0.44688 0.0
H11 H 0.12535 0.19 0.36779 0.0
H12 H 0.17983 0.18942 0.32332 0.0
H13 H 0.2154 0.29268 0.29834 0.0
H14 H 0.24961 0.21178 0.43315 0.0
H15 H 0.24582 0.15822 0.48347 0.0
H16 H 0.26922 0.08621 0.3582 0.0
H17 H 0.27154 0.13957 0.30679 0.0
C18 C 0.32679 0.25129 0.24664 0.0
C19 C 0.33438 0.22358 0.21066 0.0
C20 C 0.36309 0.22806 0.18163 0.0
C21 C 0.3853 0.2602 0.18824 0.0
C22 C 0.37825 0.28747 0.22538 0.0
C23 C 0.34943 0.283 0.25434 0.0
C24 C 0.29377 0.24818 0.27354 0.0
C25 C 0.29067 0.21747 0.30324 0.0
C26 C 0.26599 0.27581 0.27072 0.0
C27 C 0.266 0.30818 0.23701 0.0
C28 C 0.2735 0.3034 0.18677 0.0
C29 C 0.27448 0.33352 0.15625 0.0
C30 C 0.26652 0.36995 0.17367 0.0
C31 C 0.25782 0.37437 0.22363 0.0
C32 C 0.25783 0.34431 0.25456 0.0
C33 C 0.20206 0.24114 0.35907 0.0
C34 C 0.19637 0.27043 0.39382 0.0
C35 C 0.16551 0.27071 0.41966 0.0
C36 C 0.13924 0.24189 0.4109 0.0
C37 C 0.14513 0.21245 0.37607 0.0
C38 C 0.17622 0.21209 0.35044 0.0
C39 C 0.23431 0.24203 0.33063 0.0
C40 C 0.23701 0.27215 0.30013 0.0
C41 C 0.26135 0.21366 0.33248 0.0
C42 C 0.26006 0.18054 0.36486 0.0
C43 C 0.25317 0.18459 0.4156 0.0
C44 C 0.25126 0.15376 0.44486 0.0
C45 C 0.25685 0.11764 0.42498 0.0
C46 C 0.2645 0.11348 0.3748 0.0
C47 C 0.26603 0.14427 0.34533 0.0
H48 H 0.65813 0.2627 0.27694 0.0
H49 H 0.59792 0.26411 0.22464 0.0
H50 H 0.65241 0.27429 0.09305 0.0
H51 H 0.71289 0.27236 0.14512 0.0
H52 H 0.70962 0.21296 0.27298 0.0
H53 H 0.70295 0.34238 0.25758 0.0
H54 H 0.69686 0.40057 0.21593 0.0
H55 H 0.79216 0.37243 0.14138 0.0
H56 H 0.79788 0.31446 0.18242 0.0
H57 H 0.86426 0.25094 0.27878 0.0
H58 H 0.92318 0.24693 0.334 0.0
H59 H 0.86415 0.24194 0.46236 0.0
H60 H 0.80533 0.24661 0.40767 0.0
H61 H 0.81162 0.30387 0.27944 0.0
H62 H 0.80839 0.16763 0.29183 0.0
H63 H 0.80625 0.10991 0.33409 0.0
H64 H 0.72568 0.15803 0.42341 0.0
H65 H 0.72727 0.21472 0.38021 0.0
C66 C 0.69004 0.26772 0.21502 0.0
C67 C 0.65721 0.26531 0.23686 0.0
C68 C 0.62294 0.26599 0.20716 0.0
C69 C 0.621 0.269 0.1552 0.0
C70 C 0.65361 0.27178 0.13319 0.0
C71 C 0.68797 0.27105 0.16291 0.0
C72 C 0.72624 0.26405 0.24645 0.0
C73 C 0.73171 0.23317 0.27454 0.0
C74 C 0.7554 0.28984 0.24844 0.0
C75 C 0.75074 0.32422 0.22263 0.0
C76 C 0.72225 0.34871 0.23184 0.0
C77 C 0.71888 0.38186 0.20838 0.0
C78 C 0.74435 0.39097 0.17621 0.0
C79 C 0.77269 0.36629 0.16698 0.0
C80 C 0.77586 0.33318 0.19007 0.0
C81 C 0.83029 0.2486 0.33892 0.0
C82 C 0.86395 0.24873 0.31874 0.0
C83 C 0.89748 0.24626 0.35007 0.0
C84 C 0.89779 0.24376 0.40198 0.0
C85 C 0.86429 0.24337 0.42223 0.0
C86 C 0.8308 0.2459 0.39098 0.0
C87 C 0.79477 0.25278 0.30593 0.0
C88 C 0.78951 0.28367 0.27743 0.0
C89 C 0.76529 0.22756 0.30429 0.0
C90 C 0.76799 0.19494 0.3333 0.0
C91 C 0.79064 0.16556 0.3209 0.0
C92 C 0.78924 0.13278 0.34475 0.0
C93 C 0.7652 0.12943 0.38107 0.0
C94 C 0.74357 0.15954 0.39439 0.0
C95 C 0.74479 0.192 0.37039 0.0
H96 H 0.70251 0.78541 0.15098 0.0
H97 H 0.64394 0.77995 0.09464 0.0
H98 H 0.5973 0.71723 0.20246 0.0
H99 H 0.65686 0.7205 0.25711 0.0
H100 H 0.70251 0.80914 0.27421 0.0
H101 H 0.73326 0.72195 0.13839 0.0
H102 H 0.72963 0.66568 0.08225 0.0
H103 H 0.75294 0.60023 0.21022 0.0
H104 H 0.75497 0.6564 0.26685 0.0
H105 H 0.80509 0.74116 0.40382 0.0
H106 H 0.86703 0.74552 0.45223 0.0
H107 H 0.90657 0.80223 0.33314 0.0
H108 H 0.84403 0.80017 0.28658 0.0
H109 H 0.80007 0.71409 0.27925 0.0
H110 H 0.77204 0.80108 0.41529 0.0
H111 H 0.77597 0.85707 0.47194 0.0
H112 H 0.74803 0.92282 0.34517 0.0
H113 H 0.7456 0.86693 0.28799 0.0
C114 C 0.68412 0.75269 0.20757 0.0
C115 C 0.67987 0.76988 0.16197 0.0
C116 C 0.6465 0.76683 0.12999 0.0
C117 C 0.61637 0.74769 0.14396 0.0
C118 C 0.6204 0.73132 0.19031 0.0
C119 C 0.65422 0.73336 0.22157 0.0
C120 C 0.71915 0.75669 0.24186 0.0
C121 C 0.72415 0.78864 0.2754 0.0
C122 C 0.74653 0.72884 0.24296 0.0
C123 C 0.74324 0.6941 0.20773 0.0
C124 C 0.73632 0.69563 0.15494 0.0
C125 C 0.73474 0.6633 0.12252 0.0
C126 C 0.74068 0.62833 0.14165 0.0
C127 C 0.74796 0.62664 0.1942 0.0
C128 C 0.7492 0.65894 0.22666 0.0
C129 C 0.81985 0.77145 0.34254 0.0
C130 C 0.82689 0.75546 0.38891 0.0
C131 C 0.8622 0.75768 0.41621 0.0
C132 C 0.89129 0.77468 0.3966 0.0
C133 C 0.88437 0.78977 0.34952 0.0
C134 C 0.84879 0.7886 0.32301 0.0
C135 C 0.78355 0.76658 0.31151 0.0
C136 C 0.77833 0.73449 0.27839 0.0
C137 C 0.75603 0.79431 0.31094 0.0
C138 C 0.75958 0.82905 0.34637 0.0
C139 C 0.76803 0.82743 0.39902 0.0
C140 C 0.76984 0.85964 0.43179 0.0
C141 C 0.7627 0.89466 0.41326 0.0
C142 C 0.75401 0.89643 0.36082 0.0
C143 C 0.75249 0.86425 0.32801 0.0
H144 H 0.20188 0.71923 0.33272 0.0
H145 H 0.15522 0.724 0.39001 0.0
H146 H 0.11112 0.82094 0.31953 0.0
H147 H 0.15821 0.81612 0.26228 0.0
H148 H 0.20084 0.70652 0.23738 0.0
H149 H 0.25932 0.79663 0.35001 0.0
H150 H 0.26799 0.85148 0.40789 0.0
H151 H 0.22702 0.91956 0.28713 0.0
H152 H 0.21892 0.86422 0.22867 0.0
H153 H 0.2864 0.79406 0.11804 0.0
H154 H 0.3424 0.79067 0.07694 0.0
H155 H 0.38434 0.70522 0.17299 0.0
H156 H 0.32833 0.70887 0.2141 0.0
H157 H 0.28147 0.81275 0.21631 0.0
H158 H 0.24543 0.70493 0.10352 0.0
H159 H 0.2554 0.64276 0.0662 0.0
H160 H 0.27257 0.60141 0.21427 0.0
H161 H 0.26265 0.66346 0.25177 0.0
C162 C 0.18371 0.7672 0.29286 0.0
C163 C 0.18208 0.74142 0.32927 0.0
C164 C 0.15525 0.7442 0.36209 0.0
C165 C 0.12908 0.77274 0.35932 0.0
C166 C 0.13097 0.79883 0.3232 0.0
C167 C 0.1579 0.79603 0.29028 0.0
C168 C 0.21255 0.76394 0.25798 0.0
C169 C 0.21832 0.72989 0.23283 0.0
C170 C 0.23577 0.79384 0.25141 0.0
C171 C 0.23798 0.82676 0.28571 0.0
C172 C 0.25205 0.82338 0.33615 0.0
C173 C 0.25746 0.85455 0.3688 0.0
C174 C 0.24858 0.88934 0.35132 0.0
C175 C 0.23421 0.89277 0.30086 0.0
C176 C 0.22936 0.86147 0.26785 0.0
C177 C 0.30283 0.75145 0.16877 0.0
C178 C 0.30755 0.77445 0.13005 0.0
C179 C 0.33969 0.77258 0.10677 0.0
C180 C 0.36798 0.74778 0.12184 0.0
C181 C 0.36295 0.72431 0.16006 0.0
C182 C 0.33084 0.72632 0.18352 0.0
C183 C 0.26977 0.75546 0.19587 0.0
C184 C 0.26306 0.78977 0.21932 0.0
C185 C 0.24703 0.72528 0.20283 0.0
C186 C 0.25327 0.68842 0.1802 0.0
C187 C 0.2517 0.68252 0.12787 0.0
C188 C 0.25757 0.64739 0.10674 0.0
C189 C 0.26524 0.61822 0.13789 0.0
C190 C 0.26724 0.62409 0.19014 0.0
C191 C 0.26119 0.65914 0.21128 0.0
H192 H 0.15758 0.78141 0.76096 0.0
H193 H 0.09834 0.78208 0.70581 0.0
H194 H 0.15609 0.77155 0.57553 0.0
H195 H 0.21527 0.77042 0.6303 0.0
H196 H 0.20628 0.7269 0.76872 0.0
H197 H 0.21624 0.85973 0.73572 0.0
H198 H 0.21486 0.91376 0.68477 0.0
H199 H 0.28953 0.85941 0.59263 0.0
H200 H 0.29268 0.80652 0.64559 0.0
H201 H 0.36147 0.74827 0.75793 0.0
H202 H 0.42213 0.74393 0.80881 0.0
H203 H 0.3705 0.75737 0.94428 0.0
H204 H 0.30978 0.76195 0.89364 0.0
H205 H 0.31476 0.80568 0.75489 0.0
H206 H 0.3149 0.67974 0.80673 0.0
H207 H 0.31669 0.62808 0.86088 0.0
H208 H 0.21767 0.66795 0.91763 0.0
H209 H 0.21609 0.71951 0.8635 0.0
C210 C 0.19094 0.77639 0.69982 0.0
C211 C 0.15755 0.7795 0.72055 0.0
C212 C 0.12384 0.77983 0.68923 0.0
C213 C 0.12308 0.7768 0.63682 0.0
C214 C 0.15631 0.77397 0.61597 0.0
C215 C 0.19 0.77369 0.64722 0.0
C216 C 0.22649 0.77308 0.73285 0.0
C217 C 0.23 0.74444 0.76674 0.0
C218 C 0.25727 0.796 0.72843 0.0
C219 C 0.25474 0.82857 0.69518 0.0
C220 C 0.23242 0.85931 0.70461 0.0
C221 C 0.23149 0.89033 0.6751 0.0
C222 C 0.25214 0.89146 0.63419 0.0
C223 C 0.27357 0.86012 0.62396 0.0
C224 C 0.27533 0.82961 0.65434 0.0
C225 C 0.33103 0.7551 0.82195 0.0
C226 C 0.36314 0.7501 0.79857 0.0
C227 C 0.39765 0.74753 0.82745 0.0
C228 C 0.40055 0.75014 0.88008 0.0
C229 C 0.3686 0.75505 0.90361 0.0
C230 C 0.33406 0.75754 0.87476 0.0
C231 C 0.2947 0.75941 0.7911 0.0
C232 C 0.29105 0.78826 0.75745 0.0
C233 C 0.2637 0.73675 0.79624 0.0
C234 C 0.26557 0.70462 0.83062 0.0
C235 C 0.29375 0.67791 0.83126 0.0
C236 C 0.29472 0.64794 0.86261 0.0
C237 C 0.26731 0.64302 0.89441 0.0
C238 C 0.23912 0.66978 0.89358 0.0
C239 C 0.23824 0.69976 0.86238 0.0
H240 H 0.35696 0.2793 0.79058 0.0
H241 H 0.41584 0.27761 0.84617 0.0
H242 H 0.35766 0.29188 0.97575 0.0
H243 H 0.2987 0.29263 0.92048 0.0
H244 H 0.30364 0.22834 0.78977 0.0
H245 H 0.29272 0.36862 0.79023 0.0
H246 H 0.29559 0.43028 0.8348 0.0
H247 H 0.2383 0.38696 0.94972 0.0
H248 H 0.23437 0.32663 0.90454 0.0
H249 H 0.15047 0.26829 0.79007 0.0
H250 H 0.09021 0.26077 0.7377 0.0
H251 H 0.14497 0.24179 0.60564 0.0
H252 H 0.2052 0.24988 0.65754 0.0
H253 H 0.20285 0.31995 0.7875 0.0
H254 H 0.20529 0.18235 0.77439 0.0
H255 H 0.20761 0.11997 0.73371 0.0
H256 H 0.28566 0.1589 0.64029 0.0
H257 H 0.28382 0.22031 0.6817 0.0
C258 C 0.32341 0.28687 0.85129 0.0
C259 C 0.35688 0.28269 0.83093 0.0
C260 C 0.39037 0.2815 0.86249 0.0
C261 C 0.39083 0.28441 0.91481 0.0
C262 C 0.35765 0.28961 0.93534 0.0
C263 C 0.32412 0.29062 0.90379 0.0
C264 C 0.28777 0.28179 0.81806 0.0
C265 C 0.28185 0.24874 0.78881 0.0
C266 C 0.25901 0.30771 0.81682 0.0
C267 C 0.26376 0.34348 0.84488 0.0
C268 C 0.28113 0.3727 0.82531 0.0
C269 C 0.28266 0.40763 0.85045 0.0
C270 C 0.26741 0.41311 0.89561 0.0
C271 C 0.25053 0.38343 0.91516 0.0
C272 C 0.24829 0.34899 0.88959 0.0
C273 C 0.18243 0.25931 0.72787 0.0
C274 C 0.14957 0.26219 0.74992 0.0
C275 C 0.11527 0.25772 0.72022 0.0
C276 C 0.11336 0.25044 0.66806 0.0
C277 C 0.14605 0.24697 0.64598 0.0
C278 C 0.18035 0.25148 0.67563 0.0
C279 C 0.2187 0.26629 0.75913 0.0
C280 C 0.22473 0.2997 0.78805 0.0
C281 C 0.2479 0.2409 0.75952 0.0
C282 C 0.24436 0.20543 0.73061 0.0
C283 C 0.22242 0.17724 0.74464 0.0
C284 C 0.22396 0.14182 0.72177 0.0
C285 C 0.24754 0.13463 0.68496 0.0
C286 C 0.26821 0.16349 0.66979 0.0
C287 C 0.2668 0.19859 0.69271 0.0
H288 H 0.69746 0.21681 0.87092 0.0
H289 H 0.64612 0.22167 0.92085 0.0
H290 H 0.61636 0.32649 0.86063 0.0
H291 H 0.66763 0.32127 0.81007 0.0
H292 H 0.70172 0.21165 0.7738 0.0
H293 H 0.7413 0.30076 0.91248 0.0
H294 H 0.73944 0.35686 0.96847 0.0
H295 H 0.74703 0.42375 0.84371 0.0
H296 H 0.74832 0.36775 0.78728 0.0
H297 H 0.7953 0.3053 0.67939 0.0
H298 H 0.84832 0.30231 0.63245 0.0
H299 H 0.88523 0.20378 0.70536 0.0
H300 H 0.83152 0.20656 0.75122 0.0
H301 H 0.79408 0.31235 0.78075 0.0
H302 H 0.75984 0.2216 0.64321 0.0
H303 H 0.76399 0.16504 0.58906 0.0
H304 H 0.74743 0.09961 0.71222 0.0
H305 H 0.74459 0.15608 0.76727 0.0
C306 C 0.68675 0.26871 0.83683 0.0
C307 C 0.67977 0.24073 0.86806 0.0
C308 C 0.65034 0.24358 0.89666 0.0
C309 C 0.62702 0.27449 0.89474 0.0
C310 C 0.63399 0.30255 0.86346 0.0
C311 C 0.6633 0.29952 0.83446 0.0
C312 C 0.71875 0.26576 0.80735 0.0
C313 C 0.7223 0.23335 0.77561 0.0
C314 C 0.74512 0.29488 0.80975 0.0
C315 C 0.74445 0.3294 0.84484 0.0
C316 C 0.74218 0.32736 0.8967 0.0
C317 C 0.74126 0.35954 0.92894 0.0
C318 C 0.74288 0.39482 0.91055 0.0
C319 C 0.74558 0.39702 0.85904 0.0
C320 C 0.74647 0.36486 0.82675 0.0
C321 C 0.80924 0.25601 0.71853 0.0
C322 C 0.81484 0.28305 0.68522 0.0
C323 C 0.84536 0.2814 0.65862 0.0
C324 C 0.8713 0.25286 0.66511 0.0
C325 C 0.86564 0.22585 0.69874 0.0
C326 C 0.83497 0.22745 0.72517 0.0
C327 C 0.77699 0.25836 0.74718 0.0
C328 C 0.77349 0.29062 0.77888 0.0
C329 C 0.75095 0.22892 0.74489 0.0
C330 C 0.75258 0.19393 0.71047 0.0
C331 C 0.75777 0.19527 0.65933 0.0
C332 C 0.75993 0.16274 0.62797 0.0
C333 C 0.75637 0.12764 0.64625 0.0
C334 C 0.75053 0.12611 0.69691 0.0
C335 C 0.74869 0.15863 0.72844 0.0
H336 H 0.81231 0.71754 0.66744 0.0
H337 H 0.86185 0.72218 0.61518 0.0
H338 H 0.90482 0.81877 0.70627 0.0
H339 H 0.855 0.81403 0.75837 0.0
H340 H 0.81057 0.70537 0.76206 0.0
H341 H 0.75864 0.79911 0.66041 0.0
H342 H 0.75144 0.85642 0.61733 0.0
H343 H 0.78707 0.91903 0.75742 0.0
H344 H 0.79364 0.86134 0.80087 0.0
H345 H 0.72779 0.79709 0.89256 0.0
H346 H 0.67411 0.79431 0.93786 0.0
H347 H 0.62903 0.70454 0.83467 0.0
H348 H 0.6832 0.70711 0.79016 0.0
H349 H 0.73041 0.81196 0.79623 0.0
H350 H 0.77313 0.71591 0.89838 0.0
H351 H 0.76532 0.65891 0.93964 0.0
H352 H 0.74065 0.5994 0.79485 0.0
H353 H 0.74845 0.65688 0.75309 0.0
C354 C 0.82964 0.76548 0.71686 0.0
C355 C 0.83244 0.73966 0.67636 0.0
C356 C 0.86093 0.74232 0.64651 0.0
C357 C 0.88757 0.7708 0.65652 0.0
C358 C 0.88461 0.79677 0.69698 0.0
C359 C 0.85608 0.79406 0.72689 0.0
C360 C 0.79925 0.76234 0.7487 0.0
C361 C 0.79287 0.72866 0.76885 0.0
C362 C 0.77644 0.79247 0.75942 0.0
C363 C 0.77704 0.8264 0.73337 0.0
C364 C 0.76532 0.82516 0.68163 0.0
C365 C 0.76075 0.8577 0.65738 0.0
C366 C 0.76817 0.89164 0.68466 0.0
C367 C 0.78097 0.8929 0.73618 0.0
C368 C 0.78495 0.86026 0.76069 0.0
C369 C 0.70974 0.75217 0.83813 0.0
C370 C 0.7064 0.77671 0.87983 0.0
C371 C 0.67551 0.77521 0.90552 0.0
C372 C 0.64696 0.74934 0.88983 0.0
C373 C 0.65059 0.72451 0.84831 0.0
C374 C 0.68161 0.72595 0.82274 0.0
C375 C 0.74175 0.75522 0.80932 0.0
C376 C 0.74845 0.78884 0.78987 0.0
C377 C 0.76454 0.72498 0.79901 0.0
C378 C 0.76109 0.69033 0.82294 0.0
C379 C 0.76601 0.69063 0.87551 0.0
C380 C 0.76158 0.65833 0.8989 0.0
C381 C 0.75228 0.62548 0.86993 0.0
C382 C 0.74769 0.62483 0.81735 0.0
C383 C 0.7523 0.65731 0.79379 0.0
C384 C 0.06077 0.28382 0.61923 0.0
C385 C 0.07403 0.31827 0.63887 0.0
C386 C 0.05409 0.34368 0.61189 0.0
C387 C 0.02998 0.3234 0.57744 0.0
N388 N 0.03276 0.28653 0.58133 0.0
Co389 Co 0.00465 0.24682 0.53671 0.0
N390 N 0.97751 0.2842 0.49433 0.0
C391 C 0.98101 0.32135 0.50065 0.0
C392 C 0.95766 0.33985 0.46701 0.0
C393 C 0.93753 0.31299 0.43788 0.0
C394 C 0.94991 0.27952 0.45554 0.0
N395 N 0.977 0.20716 0.4915 0.0
C396 C 0.9495 0.20986 0.45284 0.0
C397 C 0.93707 0.17544 0.43216 0.0
C398 C 0.95706 0.15002 0.45919 0.0
C399 C 0.98052 0.17028 0.49461 0.0
N400 N 0.03139 0.20955 0.57964 0.0
C401 C 0.02676 0.1725 0.57467 0.0
C402 C 0.05006 0.15409 0.60861 0.0
C403 C 0.07117 0.18094 0.63651 0.0
C404 C 0.05952 0.21425 0.61778 0.0
N405 N 0.96436 0.24863 0.5803 0.0
C406 C 0.90397 0.25133 0.63679 0.0
C407 C 0.91742 0.21768 0.61874 0.0
C408 C 0.94742 0.21697 0.59114 0.0
C409 C 0.92195 0.28355 0.62692 0.0
C410 C 0.9517 0.28159 0.59887 0.0
N411 N 0.04493 0.24489 0.49321 0.0
C412 C 0.09153 0.21045 0.45378 0.0
C413 C 0.10599 0.24273 0.43806 0.0
C414 C 0.08853 0.27598 0.4493 0.0
C415 C 0.05843 0.27644 0.47668 0.0
C416 C 0.06117 0.21212 0.48072 0.0
H417 H 0.04681 0.30273 0.48448 0.0
H418 H 0.05174 0.18654 0.49172 0.0
H419 H 0.95604 0.19043 0.57841 0.0
H420 H 0.96379 0.30719 0.59237 0.0
C421 C 0.00566 0.33807 0.53955 0.0
C422 C 0.07718 0.24942 0.63579 0.0
C423 C 0.93321 0.24424 0.43594 0.0
C424 C 0.0034 0.15569 0.53424 0.0
H425 H 0.09646 0.32439 0.66872 0.0
H426 H 0.05751 0.37335 0.61593 0.0
H427 H 0.955 0.36938 0.46469 0.0
H428 H 0.91565 0.31755 0.40776 0.0
H429 H 0.91517 0.16942 0.40152 0.0
H430 H 0.95393 0.12032 0.45473 0.0
H431 H 0.05247 0.12458 0.61134 0.0
H432 H 0.09336 0.1765 0.66629 0.0
H433 H 0.90442 0.19186 0.62483 0.0
H434 H 0.91327 0.31035 0.6409 0.0
H435 H 0.10404 0.18395 0.44648 0.0
H436 H 0.09793 0.30174 0.43702 0.0
C437 C 0.72342 0.07335 0.59004 0.0
C438 C 0.68877 0.08575 0.59898 0.0
C439 C 0.66357 0.06194 0.57211 0.0
C440 C 0.68404 0.03633 0.54831 0.0
N441 N 0.72089 0.04233 0.55808 0.0
Co442 Co 0.76012 0.01024 0.53167 0.0
N443 N 0.72271 0.97646 0.4895 0.0
C444 C 0.68559 0.98025 0.48528 0.0
C445 C 0.66658 0.95392 0.45324 0.0
C446 C 0.69306 0.93199 0.43556 0.0
C447 C 0.72697 0.94619 0.45786 0.0
N448 N 0.79924 0.97711 0.50702 0.0
C449 C 0.79657 0.94568 0.47574 0.0
C450 C 0.83114 0.9311 0.47088 0.0
C451 C 0.85639 0.95377 0.49995 0.0
C452 C 0.83603 0.98092 0.52104 0.0
N453 N 0.79743 0.04524 0.57172 0.0
C454 C 0.83454 0.04266 0.57361 0.0
C455 C 0.85344 0.07094 0.60215 0.0
C456 C 0.82686 0.09309 0.61935 0.0
C457 C 0.79304 0.07703 0.60045 0.0
N458 N 0.75994 0.97973 0.58954 0.0
C459 C 0.76382 0.92535 0.65807 0.0
C460 C 0.7943 0.94768 0.65582 0.0
C461 C 0.79175 0.97472 0.6214 0.0
C462 C 0.73035 0.93286 0.62973 0.0
C463 C 0.72887 0.96064 0.59644 0.0
N464 N 0.76076 0.04062 0.47411 0.0
C465 C 0.79552 0.07761 0.4255 0.0
C466 C 0.76332 0.09537 0.40701 0.0
C467 C 0.72945 0.08252 0.41797 0.0
C468 C 0.72882 0.05516 0.4515 0.0
C469 C 0.79352 0.05002 0.45842 0.0
H470 H 0.70239 0.04736 0.46016 0.0
H471 H 0.81901 0.03796 0.47237 0.0
H472 H 0.81637 0.98991 0.61998 0.0
H473 H 0.70272 0.96506 0.57537 0.0
C474 C 0.66948 0.00776 0.51406 0.0
C475 C 0.75767 0.09267 0.61211 0.0
C476 C 0.76221 0.92905 0.44874 0.0
C477 C 0.85063 0.01193 0.55083 0.0
H478 H 0.68236 0.10978 0.62214 0.0
H479 H 0.63378 0.06348 0.56957 0.0
H480 H 0.63695 0.95072 0.44433 0.0
H481 H 0.68794 0.90795 0.40963 0.0
H482 H 0.83749 0.90682 0.44815 0.0
H483 H 0.88615 0.95116 0.50435 0.0
H484 H 0.88307 0.07472 0.61015 0.0
H485 H 0.8318 0.11806 0.64356 0.0
H486 H 0.82059 0.94272 0.678 0.0
H487 H 0.70591 0.9164 0.63178 0.0
H488 H 0.82231 0.08637 0.41719 0.0
H489 H 0.70369 0.09471 0.40262 0.0
C490 C 0.07027 0.81105 0.58961 0.0
C491 C 0.08401 0.84516 0.60994 0.0
C492 C 0.06238 0.8711 0.58649 0.0
C493 C 0.0368 0.85143 0.5534 0.0
N494 N 0.04056 0.81446 0.55438 0.0
Co495 Co 0.00993 0.77572 0.51117 0.0
N496 N 0.97924 0.81407 0.47501 0.0
C497 C 0.98373 0.85109 0.48184 0.0
C498 C 0.95685 0.87053 0.45479 0.0
C499 C 0.93346 0.84448 0.42951 0.0
C500 C 0.94769 0.81036 0.44224 0.0
N501 N 0.97886 0.73702 0.46866 0.0
C502 C 0.94787 0.74057 0.43564 0.0
C503 C 0.93441 0.70651 0.41467 0.0
C504 C 0.95687 0.68048 0.43655 0.0
C505 C 0.98283 0.7 0.46918 0.0
N506 N 0.0409 0.73737 0.54689 0.0
C507 C 0.03764 0.70031 0.53849 0.0
C508 C 0.06354 0.6811 0.56774 0.0
C509 C 0.08496 0.70743 0.59616 0.0
C510 C 0.07081 0.74131 0.58248 0.0
N511 N 0.97452 0.77519 0.56177 0.0
C512 C 0.91849 0.77277 0.62525 0.0
C513 C 0.93536 0.7406 0.60845 0.0
C514 C 0.96301 0.74242 0.57728 0.0
C515 C 0.93135 0.80644 0.61127 0.0
C516 C 0.95925 0.80702 0.57989 0.0
N517 N 0.04538 0.77588 0.46023 0.0
C518 C 0.08297 0.74202 0.40507 0.0
C519 C 0.09952 0.77439 0.3932 0.0
C520 C 0.08754 0.8078 0.41441 0.0
C521 C 0.06064 0.80792 0.44747 0.0
C522 C 0.05638 0.74337 0.43811 0.0
H523 H 0.05297 0.83421 0.46269 0.0
H524 H 0.04548 0.71752 0.44538 0.0
H525 H 0.97424 0.71678 0.56559 0.0
H526 H 0.96759 0.83345 0.57 0.0
C527 C 0.01043 0.86683 0.51882 0.0
C528 C 0.0874 0.77636 0.60347 0.0
C529 C 0.92925 0.77531 0.4247 0.0
C530 C 0.01034 0.68439 0.50225 0.0
H531 H 0.1077 0.85072 0.63807 0.0
H532 H 0.06551 0.90077 0.59198 0.0
H533 H 0.9535 0.90016 0.45553 0.0
H534 H 0.90808 0.85029 0.40603 0.0
H535 H 0.91034 0.70098 0.3872 0.0
H536 H 0.95407 0.65083 0.4303 0.0
H537 H 0.06677 0.6515 0.56791 0.0
H538 H 0.10862 0.70232 0.62342 0.0
H539 H 0.92729 0.71387 0.61926 0.0
H540 H 0.91932 0.83223 0.62331 0.0
H541 H 0.09036 0.71542 0.38878 0.0
H542 H 0.09941 0.83376 0.40652 0.0
C543 C 0.28751 0.94393 0.59703 0.0
C544 C 0.32156 0.93284 0.62034 0.0
C545 C 0.34774 0.9547 0.60495 0.0
C546 C 0.3285 0.97842 0.57392 0.0
N547 N 0.29148 0.97316 0.5684 0.0
Co548 Co 0.25392 0.00526 0.53034 0.0
N549 N 0.29287 0.03715 0.50713 0.0
C550 C 0.32974 0.03214 0.51646 0.0
C551 C 0.35008 0.05698 0.49496 0.0
C552 C 0.32476 0.07915 0.46998 0.0
C553 C 0.29016 0.06663 0.47764 0.0
N554 N 0.21647 0.03866 0.49445 0.0
C555 C 0.22061 0.06926 0.46841 0.0
C556 C 0.18667 0.08427 0.45166 0.0
C557 C 0.1603 0.06266 0.46738 0.0
C558 C 0.17942 0.03572 0.49298 0.0
N559 N 0.21508 0.97225 0.55152 0.0
C560 C 0.17829 0.97515 0.53777 0.0
C561 C 0.15803 0.94764 0.55405 0.0
C562 C 0.18331 0.92574 0.57972 0.0
C563 C 0.21787 0.94135 0.57846 0.0
N564 N 0.25332 0.03763 0.59163 0.0
C565 C 0.25001 0.09767 0.66033 0.0
C566 C 0.21816 0.07745 0.64223 0.0
C567 C 0.22057 0.04716 0.60855 0.0
C568 C 0.28406 0.08433 0.64927 0.0
C569 C 0.28508 0.05427 0.61497 0.0
N570 N 0.2541 0.97308 0.46866 0.0
C571 C 0.22079 0.94183 0.39479 0.0
C572 C 0.25192 0.92134 0.38727 0.0
C573 C 0.28487 0.92866 0.4186 0.0
C574 C 0.28547 0.95496 0.45859 0.0
C575 C 0.22244 0.96737 0.43566 0.0
H576 H 0.31129 0.95935 0.48154 0.0
H577 H 0.19737 0.98116 0.4404 0.0
H578 H 0.19532 0.03329 0.59464 0.0
H579 H 0.3116 0.04634 0.60594 0.0
C580 C 0.34439 0.00519 0.54804 0.0
C581 C 0.25239 0.92556 0.6033 0.0
C582 C 0.2558 0.08447 0.45696 0.0
C583 C 0.16358 0.00534 0.51212 0.0
H584 H 0.32716 0.91127 0.64608 0.0
H585 H 0.37735 0.95347 0.61526 0.0
H586 H 0.37986 0.05906 0.49771 0.0
H587 H 0.33105 0.10222 0.44891 0.0
H588 H 0.18149 0.10805 0.42958 0.0
H589 H 0.13064 0.06573 0.45997 0.0
H590 H 0.12832 0.94403 0.54825 0.0
H591 H 0.17686 0.901 0.59727 0.0
H592 H 0.19127 0.08637 0.651 0.0
H593 H 0.30961 0.09839 0.66458 0.0
H594 H 0.19474 0.93665 0.37104 0.0
H595 H 0.30968 0.91334 0.41316 0.0
C596 C 0.56232 0.78158 0.09825 0.0
C597 C 0.57299 0.81526 0.12334 0.0
C598 C 0.55365 0.84173 0.09766 0.0
C599 C 0.53204 0.8228 0.05888 0.0
N600 N 0.53581 0.78574 0.05886 0.0
Co601 Co 0.50922 0.74776 0.00981 0.0
N602 N 0.48345 0.78686 0.96921 0.0
C603 C 0.48807 0.82382 0.97712 0.0
C604 C 0.46538 0.84357 0.94416 0.0
C605 C 0.44447 0.81775 0.91401 0.0
C606 C 0.45564 0.78364 0.93055 0.0
N607 N 0.48204 0.70983 0.96108 0.0
C608 C 0.45387 0.71409 0.92379 0.0
C609 C 0.44067 0.68044 0.9012 0.0
C610 C 0.46075 0.65387 0.92574 0.0
C611 C 0.48489 0.67277 0.96178 0.0
N612 N 0.53549 0.7087 0.05015 0.0
C613 C 0.532 0.67174 0.04058 0.0
C614 C 0.5562 0.65186 0.07134 0.0
C615 C 0.57684 0.67757 0.10196 0.0
C616 C 0.56373 0.71191 0.08846 0.0
N617 N 0.46753 0.74743 0.05086 0.0
C618 C 0.40297 0.74737 0.0987 0.0
C619 C 0.42037 0.71438 0.08616 0.0
C620 C 0.45241 0.71504 0.06251 0.0
C621 C 0.41939 0.78035 0.08876 0.0
C622 C 0.45138 0.77976 0.06535 0.0
N623 N 0.55084 0.74815 0.96853 0.0
C624 C 0.59597 0.71569 0.92372 0.0
C625 C 0.61337 0.7488 0.91621 0.0
C626 C 0.59823 0.78158 0.93436 0.0
C627 C 0.56736 0.78063 0.9601 0.0
C628 C 0.56498 0.71601 0.94953 0.0
H629 H 0.55762 0.8066 0.97323 0.0
H630 H 0.55329 0.68984 0.95422 0.0
H631 H 0.46403 0.68899 0.0531 0.0
H632 H 0.46213 0.80589 0.05862 0.0
C633 C 0.51031 0.8391 0.01968 0.0
C634 C 0.58021 0.74682 0.11097 0.0
C635 C 0.43724 0.74921 0.91086 0.0
C636 C 0.50826 0.65663 0.9994 0.0
H637 H 0.59359 0.82027 0.15585 0.0
H638 H 0.55604 0.8713 0.1053 0.0
H639 H 0.46296 0.87325 0.94378 0.0
H640 H 0.42248 0.82337 0.88449 0.0
H641 H 0.41805 0.67562 0.87123 0.0
H642 H 0.45711 0.6243 0.91947 0.0
H643 H 0.55963 0.62224 0.07006 0.0
H644 H 0.59977 0.67143 0.12972 0.0
H645 H 0.40883 0.68806 0.09327 0.0
H646 H 0.40762 0.8067 0.09901 0.0
H647 H 0.60659 0.68946 0.91071 0.0
H648 H 0.60999 0.80809 0.9286 0.0
C649 C 0.23256 0.5601 0.10096 0.0
C650 C 0.19918 0.56865 0.11825 0.0
C651 C 0.1742 0.54261 0.09556 0.0
C652 C 0.19381 0.51987 0.06598 0.0
N653 N 0.22951 0.52995 0.06894 0.0
Co654 Co 0.26805 0.50593 0.03313 0.0
N655 N 0.23007 0.4809 0.98301 0.0
C656 C 0.19361 0.47826 0.98626 0.0
C657 C 0.17389 0.46167 0.94386 0.0
C658 C 0.1996 0.4526 0.91242 0.0
C659 C 0.23379 0.46371 0.93789 0.0
N660 N 0.30688 0.48119 0.99794 0.0
C661 C 0.30388 0.46086 0.95354 0.0
C662 C 0.33796 0.44654 0.94461 0.0
C663 C 0.36286 0.45779 0.98517 0.0
C664 C 0.34282 0.47824 0.01658 0.0
N665 N 0.3057 0.53152 0.08311 0.0
C666 C 0.34156 0.52297 0.0933 0.0
C667 C 0.36056 0.5472 0.12887 0.0
C668 C 0.33492 0.57258 0.14162 0.0
C669 C 0.30181 0.56212 0.11298 0.0
N670 N 0.26789 0.46356 0.0772 0.0
C671 C 0.26704 0.40265 0.14015 0.0
C672 C 0.26948 0.4397 0.16006 0.0
C673 C 0.26944 0.46931 0.12838 0.0
C674 C 0.26516 0.39761 0.08728 0.0
C675 C 0.26611 0.42792 0.05715 0.0
N676 N 0.26811 0.54861 0.98937 0.0
C677 C 0.3009 0.59403 0.94842 0.0
C678 C 0.26774 0.61019 0.92753 0.0
C679 C 0.23483 0.59427 0.93888 0.0
C680 C 0.2356 0.56393 0.96939 0.0
C681 C 0.3005 0.56369 0.97894 0.0
H682 H 0.20958 0.55289 0.97673 0.0
H683 H 0.32661 0.55258 0.99435 0.0
H684 H 0.27082 0.49703 0.14561 0.0
H685 H 0.26531 0.42237 0.01735 0.0
C686 C 0.17836 0.49522 0.02695 0.0
C687 C 0.26677 0.58076 0.11524 0.0
C688 C 0.26881 0.44968 0.92338 0.0
C689 C 0.35735 0.49723 0.06177 0.0
H690 H 0.19339 0.59164 0.14364 0.0
H691 H 0.14482 0.54189 0.0978 0.0
H692 H 0.14437 0.45692 0.93652 0.0
H693 H 0.19419 0.43743 0.87617 0.0
H694 H 0.34414 0.42865 0.91309 0.0
H695 H 0.39206 0.45166 0.99108 0.0
H696 H 0.38989 0.54763 0.14188 0.0
H697 H 0.34004 0.59619 0.16832 0.0
H698 H 0.27181 0.44636 0.20012 0.0
H699 H 0.26253 0.37044 0.06829 0.0
H700 H 0.3273 0.60505 0.94203 0.0
H701 H 0.20826 0.60473 0.92368 0.0
C702 C 0.4448 0.3151 0.97109 0.0
C703 C 0.43288 0.35018 0.95946 0.0
C704 C 0.45553 0.37448 0.98971 0.0
C705 C 0.47997 0.35293 0.01771 0.0
N706 N 0.47442 0.31631 0.00717 0.0
Co707 Co 0.50404 0.27534 0.03869 0.0
N708 N 0.53565 0.31124 0.08531 0.0
C709 C 0.53127 0.34816 0.09064 0.0
C710 C 0.55732 0.36562 0.12551 0.0
C711 C 0.57993 0.33824 0.14329 0.0
C712 C 0.5663 0.30558 0.11795 0.0
N713 N 0.53512 0.2346 0.06826 0.0
C714 C 0.56688 0.23639 0.10066 0.0
C715 C 0.58138 0.20163 0.10859 0.0
C716 C 0.5582 0.17699 0.07962 0.0
C717 C 0.5311 0.19804 0.05562 0.0
N718 N 0.47117 0.23944 0.99375 0.0
C719 C 0.47255 0.2022 0.99315 0.0
C720 C 0.44505 0.18482 0.96049 0.0
C721 C 0.42453 0.21259 0.93947 0.0
C722 C 0.44088 0.24546 0.96045 0.0
N723 N 0.53861 0.27773 0.98733 0.0
C724 C 0.59524 0.27667 0.92467 0.0
C725 C 0.57374 0.24538 0.92791 0.0
C726 C 0.5458 0.24655 0.9588 0.0
C727 C 0.58641 0.30928 0.95118 0.0
C728 C 0.55808 0.30923 0.98203 0.0
N729 N 0.46948 0.27221 0.09032 0.0
C730 C 0.43606 0.23487 0.14135 0.0
C731 C 0.41542 0.26504 0.1562 0.0
C732 C 0.42353 0.29938 0.13904 0.0
C733 C 0.45058 0.30236 0.10668 0.0
C734 C 0.4625 0.23898 0.10888 0.0
H735 H 0.4553 0.32924 0.0948 0.0
H736 H 0.47651 0.21451 0.099 0.0
H737 H 0.53099 0.22147 0.95981 0.0
H738 H 0.55291 0.33468 1.0022 0.0
C739 C 0.50581 0.36606 0.05758 0.0
C740 C 0.42612 0.28161 0.94836 0.0
C741 C 0.58461 0.27029 0.124 0.0
C742 C 0.50118 0.18445 0.02168 0.0
H743 H 0.40966 0.35743 0.93271 0.0
H744 H 0.45366 0.40426 0.99215 0.0
H745 H 0.56052 0.39493 0.13512 0.0
H746 H 0.60438 0.34203 0.17057 0.0
H747 H 0.60633 0.19488 0.13248 0.0
H748 H 0.56098 0.14731 0.07608 0.0
H749 H 0.44053 0.15546 0.95277 0.0
H750 H 0.40016 0.20908 0.91199 0.0
H751 H 0.57863 0.21975 0.90694 0.0
H752 H 0.60204 0.3344 0.94954 0.0
H753 H 0.43186 0.20786 0.15458 0.0
H754 H 0.40846 0.32377 0.14936 0.0
C755 C 0.706 0.57617 0.08291 0.0
C756 C 0.67162 0.58994 0.09076 0.0
C757 C 0.6459 0.56688 0.0634 0.0
C758 C 0.66584 0.54024 0.04052 0.0
N759 N 0.70281 0.54496 0.0513 0.0
Co760 Co 0.74143 0.51145 0.02606 0.0
N761 N 0.7035 0.47835 0.98392 0.0
C762 C 0.66651 0.48317 0.97883 0.0
C763 C 0.64717 0.45676 0.94722 0.0
C764 C 0.67333 0.43372 0.93081 0.0
C765 C 0.70734 0.44732 0.95351 0.0
N766 N 0.78005 0.47717 1.00251 0.0
C767 C 0.77688 0.44564 0.97164 0.0
C768 C 0.81113 0.43013 0.96721 0.0
C769 C 0.83677 0.45242 0.99606 0.0
C770 C 0.81691 0.48019 0.01664 0.0
N771 N 0.77946 0.54541 0.06653 0.0
C772 C 0.81654 0.54195 0.06887 0.0
C773 C 0.836 0.56949 0.09814 0.0
C774 C 0.80987 0.5921 0.11544 0.0
C775 C 0.77574 0.57695 0.09596 0.0
N776 N 0.73963 0.48132 0.08406 0.0
C777 C 0.74129 0.42548 0.15058 0.0
C778 C 0.77285 0.44634 0.1479 0.0
C779 C 0.77135 0.47417 0.11481 0.0
C780 C 0.70788 0.43579 0.12423 0.0
C781 C 0.70763 0.46409 0.09162 0.0
N782 N 0.74341 0.54133 0.96791 0.0
C783 C 0.77959 0.57409 0.91611 0.0
C784 C 0.7482 0.59218 0.89595 0.0
C785 C 0.71396 0.58268 0.90888 0.0
C786 C 0.71215 0.55691 0.9446 0.0
C787 C 0.77654 0.54856 0.9516 0.0
H788 H 0.68544 0.5512 0.95418 0.0
H789 H 0.80159 0.53629 0.9667 0.0
H790 H 0.79663 0.48823 0.11327 0.0
H791 H 0.68161 0.47032 0.07135 0.0
C792 C 0.6508 0.51169 0.00646 0.0
C793 C 0.74074 0.59374 0.10674 0.0
C794 C 0.74234 0.42938 0.94527 0.0
C795 C 0.83213 0.51093 0.04629 0.0
H796 H 0.66575 0.61425 0.1138 0.0
H797 H 0.61616 0.56947 0.06013 0.0
H798 H 0.61751 0.45427 0.9377 0.0
H799 H 0.66801 0.40944 0.90533 0.0
H800 H 0.81697 0.40539 0.94505 0.0
H801 H 0.86646 0.44911 1.0008 0.0
H802 H 0.86569 0.57246 0.10657 0.0
H803 H 0.81532 0.61685 0.13994 0.0
H804 H 0.79902 0.44001 0.16942 0.0
H805 H 0.68258 0.4207 0.12628 0.0
H806 H 0.80659 0.58114 0.90664 0.0
H807 H 0.68911 0.59657 0.89372 0.0
loop_
_geom_bond_atom_site_label_1
_geom_bond_atom_site_label_2
_geom_bond_distance
_geom_bond_site_symmetry_2
_ccdc_geom_bond_type
H0 C19 0.949 . S
H1 C20 0.950 . S
H2 C22 0.950 . S
H3 C23 0.950 . S
H4 C25 0.950 . S
H5 C28 0.950 . S
H6 C29 0.950 . S
H7 C31 0.951 . S
H8 C32 0.949 . S
H9 C34 0.949 . S
H10 C35 0.950 . S
H11 C37 0.950 . S
H12 C38 0.950 . S
H13 C40 0.950 . S
H14 C43 0.950 . S
H15 C44 0.950 . S
H16 C46 0.951 . S
H17 C47 0.949 . S
C18 C19 1.376 . S
C18 C23 1.386 . S
C18 C24 1.483 . S
C19 H0 0.949 . S
C19 C18 1.376 . S
C19 C20 1.397 . S
C20 H1 0.950 . S
C20 C19 1.397 . S
C20 C21 1.391 . S
C21 C20 1.391 . S
C21 C22 1.405 . S
C22 H2 0.950 . S
C22 C21 1.405 . S
C22 C23 1.367 . S
C23 H3 0.950 . S
C23 C18 1.386 . S
C23 C22 1.367 . S
C24 C18 1.483 . S
C24 C25 1.382 . S
C24 C26 1.403 . S
C25 H4 0.950 . S
C25 C24 1.382 . S
C25 C41 1.411 . S
C26 C24 1.403 . S
C26 C27 1.489 . S
C26 C40 1.411 . S
C27 C26 1.489 . S
C27 C28 1.383 . S
C27 C32 1.382 . S
C28 H5 0.950 . S
C28 C27 1.383 . S
C28 C29 1.395 . S
C29 H6 0.950 . S
C29 C28 1.395 . S
C29 C30 1.288 . S
C30 C29 1.288 . S
C30 C31 1.392 . S
C31 H7 0.951 . S
C31 C30 1.392 . S
C31 C32 1.392 . S
C32 H8 0.949 . S
C32 C27 1.382 . S
C32 C31 1.392 . S
C33 C34 1.376 . S
C33 C38 1.386 . S
C33 C39 1.483 . S
C34 H9 0.949 . S
C34 C33 1.376 . S
C34 C35 1.397 . S
C35 H10 0.950 . S
C35 C34 1.397 . S
C35 C36 1.391 . S
C36 C35 1.391 . S
C36 C37 1.405 . S
C37 H11 0.950 . S
C37 C36 1.405 . S
C37 C38 1.367 . S
C38 H12 0.950 . S
C38 C33 1.386 . S
C38 C37 1.367 . S
C39 C33 1.483 . S
C39 C40 1.382 . S
C39 C41 1.403 . S
C40 H13 0.950 . S
C40 C26 1.411 . S
C40 C39 1.382 . S
C41 C25 1.411 . S
C41 C39 1.403 . S
C41 C42 1.489 . S
C42 C41 1.489 . S
C42 C43 1.383 . S
C42 C47 1.382 . S
C43 H14 0.950 . S
C43 C42 1.383 . S
C43 C44 1.395 . S
C44 H15 0.950 . S
C44 C43 1.395 . S
C44 C45 1.288 . S
C45 C44 1.288 . S
C45 C46 1.392 . S
C46 H16 0.951 . S
C46 C45 1.392 . S
C46 C47 1.392 . S
C47 H17 0.949 . S
C47 C42 1.382 . S
C47 C46 1.392 . S
H48 C67 0.949 . S
H49 C68 0.950 . S
H50 C70 0.950 . S
H51 C71 0.950 . S
H52 C73 0.950 . S
H53 C76 0.950 . S
H54 C77 0.950 . S
H55 C79 0.951 . S
H56 C80 0.949 . S
H57 C82 0.949 . S
H58 C83 0.950 . S
H59 C85 0.950 . S
H60 C86 0.950 . S
H61 C88 0.950 . S
H62 C91 0.950 . S
H63 C92 0.950 . S
H64 C94 0.951 . S
H65 C95 0.949 . S
C66 C67 1.376 . S
C66 C71 1.386 . S
C66 C72 1.483 . S
C67 H48 0.949 . S
C67 C66 1.376 . S
C67 C68 1.397 . S
C68 H49 0.950 . S
C68 C67 1.397 . S
C68 C69 1.391 . S
C69 C68 1.391 . S
C69 C70 1.405 . S
C70 H50 0.950 . S
C70 C69 1.405 . S
C70 C71 1.367 . S
C71 H51 0.950 . S
C71 C66 1.386 . S
C71 C70 1.367 . S
C72 C66 1.483 . S
C72 C73 1.382 . S
C72 C74 1.403 . S
C73 H52 0.950 . S
C73 C72 1.382 . S
C73 C89 1.411 . S
C74 C72 1.403 . S
C74 C75 1.489 . S
C74 C88 1.411 . S
C75 C74 1.489 . S
C75 C76 1.383 . S
C75 C80 1.382 . S
C76 H53 0.950 . S
C76 C75 1.383 . S
C76 C77 1.395 . S
C77 H54 0.950 . S
C77 C76 1.395 . S
C77 C78 1.288 . S
C78 C77 1.288 . S
C78 C79 1.392 . S
C79 H55 0.951 . S
C79 C78 1.392 . S
C79 C80 1.392 . S
C80 H56 0.949 . S
C80 C75 1.382 . S
C80 C79 1.392 . S
C81 C82 1.376 . S
C81 C86 1.386 . S
C81 C87 1.483 . S
C82 H57 0.949 . S
C82 C81 1.376 . S
C82 C83 1.397 . S
C83 H58 0.950 . S
C83 C82 1.397 . S
C83 C84 1.391 . S
C84 C83 1.391 . S
C84 C85 1.405 . S
C85 H59 0.950 . S
C85 C84 1.405 . S
C85 C86 1.367 . S
C86 H60 0.950 . S
C86 C81 1.386 . S
C86 C85 1.367 . S
C87 C81 1.483 . S
C87 C88 1.382 . S
C87 C89 1.403 . S
C88 H61 0.950 . S
C88 C74 1.411 . S
C88 C87 1.382 . S
C89 C73 1.411 . S
C89 C87 1.403 . S
C89 C90 1.489 . S
C90 C89 1.489 . S
C90 C91 1.383 . S
C90 C95 1.382 . S
C91 H62 0.950 . S
C91 C90 1.383 . S
C91 C92 1.395 . S
C92 H63 0.950 . S
C92 C91 1.395 . S
C92 C93 1.288 . S
C93 C92 1.288 . S
C93 C94 1.392 . S
C94 H64 0.951 . S
C94 C93 1.392 . S
C94 C95 1.392 . S
C95 H65 0.949 . S
C95 C90 1.382 . S
C95 C94 1.392 . S
H96 C115 0.949 . S
H97 C116 0.950 . S
H98 C118 0.950 . S
H99 C119 0.950 . S
H100 C121 0.950 . S
H101 C124 0.950 . S
H102 C125 0.950 . S
H103 C127 0.951 . S
H104 C128 0.949 . S
H105 C130 0.949 . S
H106 C131 0.950 . S
H107 C133 0.950 . S
H108 C134 0.950 . S
H109 C136 0.950 . S
H110 C139 0.950 . S
H111 C140 0.950 . S
H112 C142 0.951 . S
H113 C143 0.949 . S
C114 C115 1.376 . S
C114 C119 1.386 . S
C114 C120 1.483 . S
C115 H96 0.949 . S
C115 C114 1.376 . S
C115 C116 1.397 . S
C116 H97 0.950 . S
C116 C115 1.397 . S
C116 C117 1.391 . S
C117 C116 1.391 . S
C117 C118 1.405 . S
C118 H98 0.950 . S
C118 C117 1.405 . S
C118 C119 1.367 . S
C119 H99 0.950 . S
C119 C114 1.386 . S
C119 C118 1.367 . S
C120 C114 1.483 . S
C120 C121 1.382 . S
C120 C122 1.403 . S
C121 H100 0.950 . S
C121 C120 1.382 . S
C121 C137 1.411 . S
C122 C120 1.403 . S
C122 C123 1.489 . S
C122 C136 1.411 . S
C123 C122 1.489 . S
C123 C124 1.383 . S
C123 C128 1.382 . S
C124 H101 0.950 . S
C124 C123 1.383 . S
C124 C125 1.395 . S
C125 H102 0.950 . S
C125 C124 1.395 . S
C125 C126 1.288 . S
C126 C125 1.288 . S
C126 C127 1.392 . S
C127 H103 0.951 . S
C127 C126 1.392 . S
C127 C128 1.392 . S
C128 H104 0.949 . S
C128 C123 1.382 . S
C128 C127 1.392 . S
C129 C130 1.376 . S
C129 C134 1.386 . S
C129 C135 1.483 . S
C130 H105 0.949 . S
C130 C129 1.376 . S
C130 C131 1.397 . S
C131 H106 0.950 . S
C131 C130 1.397 . S
C131 C132 1.391 . S
C132 C131 1.391 . S
C132 C133 1.405 . S
C133 H107 0.950 . S
C133 C132 1.405 . S
C133 C134 1.367 . S
C134 H108 0.950 . S
C134 C129 1.386 . S
C134 C133 1.367 . S
C135 C129 1.483 . S
C135 C136 1.382 . S
C135 C137 1.403 . S
C136 H109 0.950 . S
C136 C122 1.411 . S
C136 C135 1.382 . S
C137 C121 1.411 . S
C137 C135 1.403 . S
C137 C138 1.489 . S
C138 C137 1.489 . S
C138 C139 1.383 . S
C138 C143 1.382 . S
C139 H110 0.950 . S
C139 C138 1.383 . S
C139 C140 1.395 . S
C140 H111 0.950 . S
C140 C139 1.395 . S
C140 C141 1.288 . S
C141 C140 1.288 . S
C141 C142 1.392 . S
C142 H112 0.951 . S
C142 C141 1.392 . S
C142 C143 1.392 . S
C143 H113 0.949 . S
C143 C138 1.382 . S
C143 C142 1.392 . S
H144 C163 0.949 . S
H145 C164 0.950 . S
H146 C166 0.950 . S
H147 C167 0.950 . S
H148 C169 0.950 . S
H149 C172 0.950 . S
H150 C173 0.950 . S
H151 C175 0.951 . S
H152 C176 0.949 . S
H153 C178 0.949 . S
H154 C179 0.950 . S
H155 C181 0.950 . S
H156 C182 0.950 . S
H157 C184 0.950 . S
H158 C187 0.950 . S
H159 C188 0.950 . S
H160 C190 0.951 . S
H161 C191 0.949 . S
C162 C163 1.376 . S
C162 C167 1.386 . S
C162 C168 1.483 . S
C163 H144 0.949 . S
C163 C162 1.376 . S
C163 C164 1.397 . S
C164 H145 0.950 . S
C164 C163 1.397 . S
C164 C165 1.391 . S
C165 C164 1.391 . S
C165 C166 1.405 . S
C166 H146 0.950 . S
C166 C165 1.405 . S
C166 C167 1.367 . S
C167 H147 0.950 . S
C167 C162 1.386 . S
C167 C166 1.367 . S
C168 C162 1.483 . S
C168 C169 1.382 . S
C168 C170 1.403 . S
C169 H148 0.950 . S
C169 C168 1.382 . S
C169 C185 1.411 . S
C170 C168 1.403 . S
C170 C171 1.489 . S
C170 C184 1.411 . S
C171 C170 1.489 . S
C171 C172 1.383 . S
C171 C176 1.382 . S
C172 H149 0.950 . S
C172 C171 1.383 . S
C172 C173 1.395 . S
C173 H150 0.950 . S
C173 C172 1.395 . S
C173 C174 1.288 . S
C174 C173 1.288 . S
C174 C175 1.392 . S
C175 H151 0.951 . S
C175 C174 1.392 . S
C175 C176 1.392 . S
C176 H152 0.949 . S
C176 C171 1.382 . S
C176 C175 1.392 . S
C177 C178 1.376 . S
C177 C182 1.386 . S
C177 C183 1.483 . S
C178 H153 0.949 . S
C178 C177 1.376 . S
C178 C179 1.397 . S
C179 H154 0.950 . S
C179 C178 1.397 . S
C179 C180 1.391 . S
C180 C179 1.391 . S
C180 C181 1.405 . S
C181 H155 0.950 . S
C181 C180 1.405 . S
C181 C182 1.367 . S
C182 H156 0.950 . S
C182 C177 1.386 . S
C182 C181 1.367 . S
C183 C177 1.483 . S
C183 C184 1.382 . S
C183 C185 1.403 . S
C184 H157 0.950 . S
C184 C170 1.411 . S
C184 C183 1.382 . S
C185 C169 1.411 . S
C185 C183 1.403 . S
C185 C186 1.489 . S
C186 C185 1.489 . S
C186 C187 1.383 . S
C186 C191 1.382 . S
C187 H158 0.950 . S
C187 C186 1.383 . S
C187 C188 1.395 . S
C188 H159 0.950 . S
C188 C187 1.395 . S
C188 C189 1.288 . S
C189 C188 1.288 . S
C189 C190 1.392 . S
C190 H160 0.951 . S
C190 C189 1.392 . S
C190 C191 1.392 . S
C191 H161 0.949 . S
C191 C186 1.382 . S
C191 C190 1.392 . S
H192 C211 0.949 . S
H193 C212 0.950 . S
H194 C214 0.950 . S
H195 C215 0.950 . S
H196 C217 0.950 . S
H197 C220 0.950 . S
H198 C221 0.950 . S
H199 C223 0.951 . S
H200 C224 0.949 . S
H201 C226 0.949 . S
H202 C227 0.950 . S
H203 C229 0.950 . S
H204 C230 0.950 . S
H205 C232 0.950 . S
H206 C235 0.950 . S
H207 C236 0.950 . S
H208 C238 0.951 . S
H209 C239 0.949 . S
C210 C211 1.376 . S
C210 C215 1.386 . S
C210 C216 1.483 . S
C211 H192 0.949 . S
C211 C210 1.376 . S
C211 C212 1.397 . S
C212 H193 0.950 . S
C212 C211 1.397 . S
C212 C213 1.391 . S
C213 C212 1.391 . S
C213 C214 1.405 . S
C214 H194 0.950 . S
C214 C213 1.405 . S
C214 C215 1.367 . S
C215 H195 0.950 . S
C215 C210 1.386 . S
C215 C214 1.367 . S
C216 C210 1.483 . S
C216 C217 1.382 . S
C216 C218 1.403 . S
C217 H196 0.950 . S
C217 C216 1.382 . S
C217 C233 1.411 . S
C218 C216 1.403 . S
C218 C219 1.489 . S
C218 C232 1.411 . S
C219 C218 1.489 . S
C219 C220 1.383 . S
C219 C224 1.382 . S
C220 H197 0.950 . S
C220 C219 1.383 . S
C220 C221 1.395 . S
C221 H198 0.950 . S
C221 C220 1.395 . S
C221 C222 1.288 . S
C222 C221 1.288 . S
C222 C223 1.392 . S
C223 H199 0.951 . S
C223 C222 1.392 . S
C223 C224 1.392 . S
C224 H200 0.949 . S
C224 C219 1.382 . S
C224 C223 1.392 . S
C225 C226 1.376 . S
C225 C230 1.386 . S
C225 C231 1.483 . S
C226 H201 0.949 . S
C226 C225 1.376 . S
C226 C227 1.397 . S
C227 H202 0.950 . S
C227 C226 1.397 . S
C227 C228 1.391 . S
C228 C227 1.391 . S
C228 C229 1.405 . S
C229 H203 0.950 . S
C229 C228 1.405 . S
C229 C230 1.367 . S
C230 H204 0.950 . S
C230 C225 1.386 . S
C230 C229 1.367 . S
C231 C225 1.483 . S
C231 C232 1.382 . S
C231 C233 1.403 . S
C232 H205 0.950 . S
C232 C218 1.411 . S
C232 C231 1.382 . S
C233 C217 1.411 . S
C233 C231 1.403 . S
C233 C234 1.489 . S
C234 C233 1.489 . S
C234 C235 1.383 . S
C234 C239 1.382 . S
C235 H206 0.950 . S
C235 C234 1.383 . S
C235 C236 1.395 . S
C236 H207 0.950 . S
C236 C235 1.395 . S
C236 C237 1.288 . S
C237 C236 1.288 . S
C237 C238 1.392 . S
C238 H208 0.951 . S
C238 C237 1.392 . S
C238 C239 1.392 . S
C239 H209 0.949 . S
C239 C234 1.382 . S
C239 C238 1.392 . S
H240 C259 0.949 . S
H241 C260 0.950 . S
H242 C262 0.950 . S
H243 C263 0.950 . S
H244 C265 0.950 . S
H245 C268 0.950 . S
H246 C269 0.950 . S
H247 C271 0.951 . S
H248 C272 0.949 . S
H249 C274 0.949 . S
H250 C275 0.950 . S
H251 C277 0.950 . S
H252 C278 0.950 . S
H253 C280 0.950 . S
H254 C283 0.950 . S
H255 C284 0.950 . S
H256 C286 0.951 . S
H257 C287 0.949 . S
C258 C259 1.376 . S
C258 C263 1.386 . S
C258 C264 1.483 . S
C259 H240 0.949 . S
C259 C258 1.376 . S
C259 C260 1.397 . S
C260 H241 0.950 . S
C260 C259 1.397 . S
C260 C261 1.391 . S
C261 C260 1.391 . S
C261 C262 1.405 . S
C262 H242 0.950 . S
C262 C261 1.405 . S
C262 C263 1.367 . S
C263 H243 0.950 . S
C263 C258 1.386 . S
C263 C262 1.367 . S
C264 C258 1.483 . S
C264 C265 1.382 . S
C264 C266 1.403 . S
C265 H244 0.950 . S
C265 C264 1.382 . S
C265 C281 1.411 . S
C266 C264 1.403 . S
C266 C267 1.489 . S
C266 C280 1.411 . S
C267 C266 1.489 . S
C267 C268 1.383 . S
C267 C272 1.382 . S
C268 H245 0.950 . S
C268 C267 1.383 . S
C268 C269 1.395 . S
C269 H246 0.950 . S
C269 C268 1.395 . S
C269 C270 1.288 . S
C270 C269 1.288 . S
C270 C271 1.392 . S
C271 H247 0.951 . S
C271 C270 1.392 . S
C271 C272 1.392 . S
C272 H248 0.949 . S
C272 C267 1.382 . S
C272 C271 1.392 . S
C273 C274 1.376 . S
C273 C278 1.386 . S
C273 C279 1.483 . S
C274 H249 0.949 . S
C274 C273 1.376 . S
C274 C275 1.397 . S
C275 H250 0.950 . S
C275 C274 1.397 . S
C275 C276 1.391 . S
C276 C275 1.391 . S
C276 C277 1.405 . S
C277 H251 0.950 . S
C277 C276 1.405 . S
C277 C278 1.367 . S
C278 H252 0.950 . S
C278 C273 1.386 . S
C278 C277 1.367 . S
C279 C273 1.483 . S
C279 C280 1.382 . S
C279 C281 1.403 . S
C280 H253 0.950 . S
C280 C266 1.411 . S
C280 C279 1.382 . S
C281 C265 1.411 . S
C281 C279 1.403 . S
C281 C282 1.489 . S
C282 C281 1.489 . S
C282 C283 1.383 . S
C282 C287 1.382 . S
C283 H254 0.950 . S
C283 C282 1.383 . S
C283 C284 1.395 . S
C284 H255 0.950 . S
C284 C283 1.395 . S
C284 C285 1.288 . S
C285 C284 1.288 . S
C285 C286 1.392 . S
C286 H256 0.951 . S
C286 C285 1.392 . S
C286 C287 1.392 . S
C287 H257 0.949 . S
C287 C282 1.382 . S
C287 C286 1.392 . S
H288 C307 0.949 . S
H289 C308 0.950 . S
H290 C310 0.950 . S
H291 C311 0.950 . S
H292 C313 0.950 . S
H293 C316 0.950 . S
H294 C317 0.950 . S
H295 C319 0.951 . S
H296 C320 0.949 . S
H297 C322 0.949 . S
H298 C323 0.950 . S
H299 C325 0.950 . S
H300 C326 0.950 . S
H301 C328 0.950 . S
H302 C331 0.950 . S
H303 C332 0.950 . S
H304 C334 0.951 . S
H305 C335 0.949 . S
C306 C307 1.376 . S
C306 C311 1.386 . S
C306 C312 1.483 . S
C307 H288 0.949 . S
C307 C306 1.376 . S
C307 C308 1.397 . S
C308 H289 0.950 . S
C308 C307 1.397 . S
C308 C309 1.391 . S
C309 C308 1.391 . S
C309 C310 1.405 . S
C310 H290 0.950 . S
C310 C309 1.405 . S
C310 C311 1.367 . S
C311 H291 0.950 . S
C311 C306 1.386 . S
C311 C310 1.367 . S
C312 C306 1.483 . S
C312 C313 1.382 . S
C312 C314 1.403 . S
C313 H292 0.950 . S
C313 C312 1.382 . S
C313 C329 1.411 . S
C314 C312 1.403 . S
C314 C315 1.489 . S
C314 C328 1.411 . S
C315 C314 1.489 . S
C315 C316 1.383 . S
C315 C320 1.382 . S
C316 H293 0.950 . S
C316 C315 1.383 . S
C316 C317 1.395 . S
C317 H294 0.950 . S
C317 C316 1.395 . S
C317 C318 1.288 . S
C318 C317 1.288 . S
C318 C319 1.392 . S
C319 H295 0.951 . S
C319 C318 1.392 . S
C319 C320 1.392 . S
C320 H296 0.949 . S
C320 C315 1.382 . S
C320 C319 1.392 . S
C321 C322 1.376 . S
C321 C326 1.386 . S
C321 C327 1.483 . S
C322 H297 0.949 . S
C322 C321 1.376 . S
C322 C323 1.397 . S
C323 H298 0.950 . S
C323 C322 1.397 . S
C323 C324 1.391 . S
C324 C323 1.391 . S
C324 C325 1.405 . S
C325 H299 0.950 . S
C325 C324 1.405 . S
C325 C326 1.367 . S
C326 H300 0.950 . S
C326 C321 1.386 . S
C326 C325 1.367 . S
C327 C321 1.483 . S
C327 C328 1.382 . S
C327 C329 1.403 . S
C328 H301 0.950 . S
C328 C314 1.411 . S
C328 C327 1.382 . S
C329 C313 1.411 . S
C329 C327 1.403 . S
C329 C330 1.489 . S
C330 C329 1.489 . S
C330 C331 1.383 . S
C330 C335 1.382 . S
C331 H302 0.950 . S
C331 C330 1.383 . S
C331 C332 1.395 . S
C332 H303 0.950 . S
C332 C331 1.395 . S
C332 C333 1.288 . S
C333 C332 1.288 . S
C333 C334 1.392 . S
C334 H304 0.951 . S
C334 C333 1.392 . S
C334 C335 1.392 . S
C335 H305 0.949 . S
C335 C330 1.382 . S
C335 C334 1.392 . S
H336 C355 0.949 . S
H337 C356 0.950 . S
H338 C358 0.950 . S
H339 C359 0.950 . S
H340 C361 0.950 . S
H341 C364 0.950 . S
H342 C365 0.950 . S
H343 C367 0.951 . S
H344 C368 0.949 . S
H345 C370 0.949 . S
H346 C371 0.950 . S
H347 C373 0.950 . S
H348 C374 0.950 . S
H349 C376 0.950 . S
H350 C379 0.950 . S
H351 C380 0.950 . S
H352 C382 0.951 . S
H353 C383 0.949 . S
C354 C355 1.376 . S
C354 C359 1.386 . S
C354 C360 1.483 . S
C355 H336 0.949 . S
C355 C354 1.376 . S
C355 C356 1.397 . S
C356 H337 0.950 . S
C356 C355 1.397 . S
C356 C357 1.391 . S
C357 C356 1.391 . S
C357 C358 1.405 . S
C358 H338 0.950 . S
C358 C357 1.405 . S
C358 C359 1.367 . S
C359 H339 0.950 . S
C359 C354 1.386 . S
C359 C358 1.367 . S
C360 C354 1.483 . S
C360 C361 1.382 . S
C360 C362 1.403 . S
C361 H340 0.950 . S
C361 C360 1.382 . S
C361 C377 1.411 . S
C362 C360 1.403 . S
C362 C363 1.489 . S
C362 C376 1.411 . S
C363 C362 1.489 . S
C363 C364 1.383 . S
C363 C368 1.382 . S
C364 H341 0.950 . S
C364 C363 1.383 . S
C364 C365 1.395 . S
C365 H342 0.950 . S
C365 C364 1.395 . S
C365 C366 1.288 . S
C366 C365 1.288 . S
C366 C367 1.392 . S
C367 H343 0.951 . S
C367 C366 1.392 . S
C367 C368 1.392 . S
C368 H344 0.949 . S
C368 C363 1.382 . S
C368 C367 1.392 . S
C369 C370 1.376 . S
C369 C374 1.386 . S
C369 C375 1.483 . S
C370 H345 0.949 . S
C370 C369 1.376 . S
C370 C371 1.397 . S
C371 H346 0.950 . S
C371 C370 1.397 . S
C371 C372 1.391 . S
C372 C371 1.391 . S
C372 C373 1.405 . S
C373 H347 0.950 . S
C373 C372 1.405 . S
C373 C374 1.367 . S
C374 H348 0.950 . S
C374 C369 1.386 . S
C374 C373 1.367 . S
C375 C369 1.483 . S
C375 C376 1.382 . S
C375 C377 1.403 . S
C376 H349 0.950 . S
C376 C362 1.411 . S
C376 C375 1.382 . S
C377 C361 1.411 . S
C377 C375 1.403 . S
C377 C378 1.489 . S
C378 C377 1.489 . S
C378 C379 1.383 . S
C378 C383 1.382 . S
C379 H350 0.950 . S
C379 C378 1.383 . S
C379 C380 1.395 . S
C380 H351 0.950 . S
C380 C379 1.395 . S
C380 C381 1.288 . S
C381 C380 1.288 . S
C381 C382 1.392 . S
C382 H352 0.951 . S
C382 C381 1.392 . S
C382 C383 1.392 . S
C383 H353 0.949 . S
C383 C378 1.382 . S
C383 C382 1.392 . S
C384 C385 1.443 . S
C384 N388 1.376 . S
C384 C422 1.389 . S
C385 C384 1.443 . S
C385 C386 1.340 . S
C385 H425 0.951 . S
C386 C385 1.340 . S
C386 C387 1.439 . S
C386 H426 0.950 . S
C387 C386 1.439 . S
C387 N388 1.374 . S
C387 C421 1.395 . S
N388 C384 1.376 . S
N388 C387 1.374 . S
N388 Co389 2.008 . S
Co389 N388 2.008 . S
Co389 N390 1.995 1_455 S
Co389 N395 2.008 1_455 S
Co389 N400 1.995 . S
Co389 N405 2.282 1_455 S
Co389 N411 2.282 . S
N390 Co389 1.995 1_655 S
N390 C391 1.376 . S
N390 C394 1.383 . S
C391 N390 1.376 . S
C391 C392 1.446 . S
C391 C421 1.391 1_655 S
C392 C391 1.446 . S
C392 C393 1.339 . S
C392 H427 0.949 . S
C393 C392 1.339 . S
C393 C394 1.439 . S
C393 H428 0.950 . S
C394 N390 1.383 . S
C394 C393 1.439 . S
C394 C423 1.392 . S
N395 Co389 2.008 1_655 S
N395 C396 1.376 . S
N395 C399 1.374 . S
C396 N395 1.376 . S
C396 C397 1.443 . S
C396 C423 1.389 . S
C397 C396 1.443 . S
C397 C398 1.340 . S
C397 H429 0.951 . S
C398 C397 1.340 . S
C398 C399 1.439 . S
C398 H430 0.950 . S
C399 N395 1.374 . S
C399 C398 1.439 . S
C399 C424 1.402 . S
N400 Co389 1.995 . S
N400 C401 1.376 . S
N400 C404 1.383 . S
C401 N400 1.376 . S
C401 C402 1.446 . S
C401 C424 1.384 1_455 S
C402 C401 1.446 . S
C402 C403 1.339 . S
C402 H431 0.949 . S
C403 C402 1.339 . S
C403 C404 1.439 . S
C403 H432 0.950 . S
C404 N400 1.383 . S
C404 C403 1.439 . S
C404 C422 1.392 . S
N405 Co389 2.282 1_655 S
N405 C408 1.332 . S
N405 C410 1.332 . S
C406 C407 1.386 . S
C406 C409 1.388 . S
C407 C406 1.386 . S
C407 C408 1.382 . S
C407 H433 0.950 . S
C408 N405 1.332 . S
C408 C407 1.382 . S
C408 H419 0.952 . S
C409 C406 1.388 . S
C409 C410 1.382 . S
C409 H434 0.950 . S
C410 N405 1.332 . S
C410 C409 1.382 . S
C410 H420 0.948 . S
N411 Co389 2.282 . S
N411 C415 1.332 . S
N411 C416 1.332 . S
C412 C413 1.388 . S
C412 C416 1.382 . S
C412 H435 0.950 . S
C413 C412 1.388 . S
C413 C414 1.386 . S
C414 C413 1.386 . S
C414 C415 1.382 . S
C414 H436 0.950 . S
C415 N411 1.332 . S
C415 C414 1.382 . S
C415 H417 0.952 . S
C416 N411 1.332 . S
C416 C412 1.382 . S
C416 H418 0.948 . S
H417 C415 0.952 . S
H418 C416 0.948 . S
H419 C408 0.952 . S
H420 C410 0.948 . S
C421 C387 1.395 . S
C421 C391 1.391 1_455 S
C422 C384 1.389 . S
C422 C404 1.392 . S
C423 C394 1.392 . S
C423 C396 1.389 . S
C424 C399 1.402 . S
C424 C401 1.384 1_655 S
H425 C385 0.951 . S
H426 C386 0.950 . S
H427 C392 0.949 . S
H428 C393 0.950 . S
H429 C397 0.951 . S
H430 C398 0.950 . S
H431 C402 0.949 . S
H432 C403 0.950 . S
H433 C407 0.950 . S
H434 C409 0.950 . S
H435 C412 0.950 . S
H436 C414 0.950 . S
C437 C438 1.443 . S
C437 N441 1.376 . S
C437 C475 1.389 . S
C438 C437 1.443 . S
C438 C439 1.340 . S
C438 H478 0.951 . S
C439 C438 1.340 . S
C439 C440 1.439 . S
C439 H479 0.950 . S
C440 C439 1.439 . S
C440 N441 1.374 . S
C440 C474 1.395 . S
N441 C437 1.376 . S
N441 C440 1.374 . S
N441 Co442 2.008 . S
Co442 N441 2.008 . S
Co442 N443 1.995 1_545 S
Co442 N448 2.008 1_545 S
Co442 N453 1.995 . S
Co442 N458 2.282 1_545 S
Co442 N464 2.282 . S
N443 Co442 1.995 1_565 S
N443 C444 1.376 . S
N443 C447 1.383 . S
C444 N443 1.376 . S
C444 C445 1.446 . S
C444 C474 1.391 1_565 S
C445 C444 1.446 . S
C445 C446 1.339 . S
C445 H480 0.949 . S
C446 C445 1.339 . S
C446 C447 1.439 . S
C446 H481 0.950 . S
C447 N443 1.383 . S
C447 C446 1.439 . S
C447 C476 1.392 . S
N448 Co442 2.008 1_565 S
N448 C449 1.376 . S
N448 C452 1.374 . S
C449 N448 1.376 . S
C449 C450 1.443 . S
C449 C476 1.389 . S
C450 C449 1.443 . S
C450 C451 1.340 . S
C450 H482 0.951 . S
C451 C450 1.340 . S
C451 C452 1.439 . S
C451 H483 0.950 . S
C452 N448 1.374 . S
C452 C451 1.439 . S
C452 C477 1.395 1_565 S
N453 Co442 1.995 . S
N453 C454 1.376 . S
N453 C457 1.383 . S
C454 N453 1.376 . S
C454 C455 1.446 . S
C454 C477 1.391 . S
C455 C454 1.446 . S
C455 C456 1.339 . S
C455 H484 0.949 . S
C456 C455 1.339 . S
C456 C457 1.439 . S
C456 H485 0.950 . S
C457 N453 1.383 . S
C457 C456 1.439 . S
C457 C475 1.392 . S
N458 Co442 2.282 1_565 S
N458 C461 1.332 . S
N458 C463 1.332 . S
C459 C460 1.386 . S
C459 C462 1.388 . S
C460 C459 1.386 . S
C460 C461 1.382 . S
C460 H486 0.950 . S
C461 N458 1.332 . S
C461 C460 1.382 . S
C461 H472 0.952 . S
C462 C459 1.388 . S
C462 C463 1.382 . S
C462 H487 0.950 . S
C463 N458 1.332 . S
C463 C462 1.382 . S
C463 H473 0.948 . S
N464 Co442 2.282 . S
N464 C468 1.332 . S
N464 C469 1.332 . S
C465 C466 1.388 . S
C465 C469 1.382 . S
C465 H488 0.950 . S
C466 C465 1.388 . S
C466 C467 1.386 . S
C467 C466 1.386 . S
C467 C468 1.382 . S
C467 H489 0.950 . S
C468 N464 1.332 . S
C468 C467 1.382 . S
C468 H470 0.952 . S
C469 N464 1.332 . S
C469 C465 1.382 . S
C469 H471 0.948 . S
H470 C468 0.952 . S
H471 C469 0.948 . S
H472 C461 0.952 . S
H473 C463 0.948 . S
C474 C440 1.395 . S
C474 C444 1.391 1_545 S
C475 C437 1.389 . S
C475 C457 1.392 . S
C476 C447 1.392 . S
C476 C449 1.389 . S
C477 C452 1.395 1_545 S
C477 C454 1.391 . S
H478 C438 0.951 . S
H479 C439 0.950 . S
H480 C445 0.949 . S
H481 C446 0.950 . S
H482 C450 0.951 . S
H483 C451 0.950 . S
H484 C455 0.949 . S
H485 C456 0.950 . S
H486 C460 0.950 . S
H487 C462 0.950 . S
H488 C465 0.950 . S
H489 C467 0.950 . S
C490 C491 1.443 . S
C490 N494 1.376 . S
C490 C528 1.389 . S
C491 C490 1.443 . S
C491 C492 1.340 . S
C491 H531 0.951 . S
C492 C491 1.340 . S
C492 C493 1.439 . S
C492 H532 0.950 . S
C493 C492 1.439 . S
C493 N494 1.374 . S
C493 C527 1.395 . S
N494 C490 1.376 . S
N494 C493 1.374 . S
N494 Co495 2.008 . S
Co495 N494 2.008 . S
Co495 N496 1.995 1_455 S
Co495 N501 2.008 1_455 S
Co495 N506 1.995 . S
Co495 N511 2.282 1_455 S
Co495 N517 2.282 . S
N496 Co495 1.995 1_655 S
N496 C497 1.376 . S
N496 C500 1.383 . S
C497 N496 1.376 . S
C497 C498 1.446 . S
C497 C527 1.391 1_655 S
C498 C497 1.446 . S
C498 C499 1.339 . S
C498 H533 0.949 . S
C499 C498 1.339 . S
C499 C500 1.439 . S
C499 H534 0.950 . S
C500 N496 1.383 . S
C500 C499 1.439 . S
C500 C529 1.392 . S
N501 Co495 2.008 1_655 S
N501 C502 1.376 . S
N501 C505 1.374 . S
C502 N501 1.376 . S
C502 C503 1.443 . S
C502 C529 1.389 . S
C503 C502 1.443 . S
C503 C504 1.340 . S
C503 H535 0.951 . S
C504 C503 1.340 . S
C504 C505 1.439 . S
C504 H536 0.950 . S
C505 N501 1.374 . S
C505 C504 1.439 . S
C505 C530 1.395 . S
N506 Co495 1.995 . S
N506 C507 1.376 . S
N506 C510 1.383 . S
C507 N506 1.376 . S
C507 C508 1.446 . S
C507 C530 1.391 1_455 S
C508 C507 1.446 . S
C508 C509 1.339 . S
C508 H537 0.949 . S
C509 C508 1.339 . S
C509 C510 1.439 . S
C509 H538 0.950 . S
C510 N506 1.383 . S
C510 C509 1.439 . S
C510 C528 1.392 . S
N511 Co495 2.282 1_655 S
N511 C514 1.332 . S
N511 C516 1.332 . S
C512 C513 1.386 . S
C512 C515 1.388 . S
C513 C512 1.386 . S
C513 C514 1.382 . S
C513 H539 0.950 . S
C514 N511 1.332 . S
C514 C513 1.382 . S
C514 H525 0.952 . S
C515 C512 1.388 . S
C515 C516 1.382 . S
C515 H540 0.950 . S
C516 N511 1.332 . S
C516 C515 1.382 . S
C516 H526 0.948 . S
N517 Co495 2.282 . S
N517 C521 1.332 . S
N517 C522 1.332 . S
C518 C519 1.388 . S
C518 C522 1.382 . S
C518 H541 0.950 . S
C519 C518 1.388 . S
C519 C520 1.386 . S
C520 C519 1.386 . S
C520 C521 1.382 . S
C520 H542 0.950 . S
C521 N517 1.332 . S
C521 C520 1.382 . S
C521 H523 0.952 . S
C522 N517 1.332 . S
C522 C518 1.382 . S
C522 H524 0.948 . S
H523 C521 0.952 . S
H524 C522 0.948 . S
H525 C514 0.952 . S
H526 C516 0.948 . S
C527 C493 1.395 . S
C527 C497 1.391 1_455 S
C528 C490 1.389 . S
C528 C510 1.392 . S
C529 C500 1.392 . S
C529 C502 1.389 . S
C530 C505 1.395 . S
C530 C507 1.391 1_655 S
H531 C491 0.951 . S
H532 C492 0.950 . S
H533 C498 0.949 . S
H534 C499 0.950 . S
H535 C503 0.951 . S
H536 C504 0.950 . S
H537 C508 0.949 . S
H538 C509 0.950 . S
H539 C513 0.950 . S
H540 C515 0.950 . S
H541 C518 0.950 . S
H542 C520 0.950 . S
C543 C544 1.443 . S
C543 N547 1.376 . S
C543 C581 1.389 . S
C544 C543 1.443 . S
C544 C545 1.340 . S
C544 H584 0.951 . S
C545 C544 1.340 . S
C545 C546 1.439 . S
C545 H585 0.950 . S
C546 C545 1.439 . S
C546 N547 1.374 . S
C546 C580 1.400 . S
N547 C543 1.376 . S
N547 C546 1.374 . S
N547 Co548 2.008 1_565 S
Co548 N547 2.008 1_545 S
Co548 N549 1.995 . S
Co548 N554 2.008 . S
Co548 N559 1.995 1_545 S
Co548 N564 2.282 . S
Co548 N570 2.282 1_545 S
N549 Co548 1.995 . S
N549 C550 1.376 . S
N549 C553 1.383 . S
C550 N549 1.376 . S
C550 C551 1.446 . S
C550 C580 1.385 1_545 S
C551 C550 1.446 . S
C551 C552 1.339 . S
C551 H586 0.949 . S
C552 C551 1.339 . S
C552 C553 1.439 . S
C552 H587 0.950 . S
C553 N549 1.383 . S
C553 C552 1.439 . S
C553 C582 1.392 . S
N554 Co548 2.008 . S
N554 C555 1.376 . S
N554 C558 1.374 . S
C555 N554 1.376 . S
C555 C556 1.443 . S
C555 C582 1.389 . S
C556 C555 1.443 . S
C556 C557 1.340 . S
C556 H588 0.951 . S
C557 C556 1.340 . S
C557 C558 1.439 . S
C557 H589 0.950 . S
C558 N554 1.374 . S
C558 C557 1.439 . S
C558 C583 1.395 . S
N559 Co548 1.995 1_565 S
N559 C560 1.376 . S
N559 C563 1.383 . S
C560 N559 1.376 . S
C560 C561 1.446 . S
C560 C583 1.391 1_565 S
C561 C560 1.446 . S
C561 C562 1.339 . S
C561 H590 0.949 . S
C562 C561 1.339 . S
C562 C563 1.439 . S
C562 H591 0.950 . S
C563 N559 1.383 . S
C563 C562 1.439 . S
C563 C581 1.392 . S
N564 Co548 2.282 . S
N564 C567 1.332 . S
N564 C569 1.332 . S
C565 C566 1.386 . S
C565 C568 1.388 . S
C566 C565 1.386 . S
C566 C567 1.382 . S
C566 H592 0.950 . S
C567 N564 1.332 . S
C567 C566 1.382 . S
C567 H578 0.952 . S
C568 C565 1.388 . S
C568 C569 1.382 . S
C568 H593 0.950 . S
C569 N564 1.332 . S
C569 C568 1.382 . S
C569 H579 0.948 . S
N570 Co548 2.282 1_565 S
N570 C574 1.332 . S
N570 C575 1.332 . S
C571 C572 1.388 . S
C571 C575 1.382 . S
C571 H594 0.950 . S
C572 C571 1.388 . S
C572 C573 1.386 . S
C573 C572 1.386 . S
C573 C574 1.382 . S
C573 H595 0.950 . S
C574 N570 1.332 . S
C574 C573 1.382 . S
C574 H576 0.952 . S
C575 N570 1.332 . S
C575 C571 1.382 . S
C575 H577 0.948 . S
H576 C574 0.952 . S
H577 C575 0.948 . S
H578 C567 0.952 . S
H579 C569 0.948 . S
C580 C546 1.400 . S
C580 C550 1.385 1_565 S
C581 C543 1.389 . S
C581 C563 1.392 . S
C582 C553 1.392 . S
C582 C555 1.389 . S
C583 C558 1.395 . S
C583 C560 1.391 1_545 S
H584 C544 0.951 . S
H585 C545 0.950 . S
H586 C551 0.949 . S
H587 C552 0.950 . S
H588 C556 0.951 . S
H589 C557 0.950 . S
H590 C561 0.949 . S
H591 C562 0.950 . S
H592 C566 0.950 . S
H593 C568 0.950 . S
H594 C571 0.950 . S
H595 C573 0.950 . S
C596 C597 1.443 . S
C596 N600 1.376 . S
C596 C634 1.389 . S
C597 C596 1.443 . S
C597 C598 1.340 . S
C597 H637 0.951 . S
C598 C597 1.340 . S
C598 C599 1.439 . S
C598 H638 0.950 . S
C599 C598 1.439 . S
C599 N600 1.374 . S
C599 C633 1.395 . S
N600 C596 1.376 . S
N600 C599 1.374 . S
N600 Co601 2.008 . S
Co601 N600 2.008 . S
Co601 N602 1.995 1_554 S
Co601 N607 2.008 1_554 S
Co601 N612 1.995 . S
Co601 N617 2.282 . S
Co601 N623 2.282 1_554 S
N602 Co601 1.995 1_556 S
N602 C603 1.376 . S
N602 C606 1.383 . S
C603 N602 1.376 . S
C603 C604 1.446 . S
C603 C633 1.391 1_556 S
C604 C603 1.446 . S
C604 C605 1.339 . S
C604 H639 0.949 . S
C605 C604 1.339 . S
C605 C606 1.439 . S
C605 H640 0.950 . S
C606 N602 1.383 . S
C606 C605 1.439 . S
C606 C635 1.392 . S
N607 Co601 2.008 1_556 S
N607 C608 1.376 . S
N607 C611 1.374 . S
C608 N607 1.376 . S
C608 C609 1.443 . S
C608 C635 1.389 . S
C609 C608 1.443 . S
C609 C610 1.340 . S
C609 H641 0.951 . S
C610 C609 1.340 . S
C610 C611 1.439 . S
C610 H642 0.950 . S
C611 N607 1.374 . S
C611 C610 1.439 . S
C611 C636 1.395 . S
N612 Co601 1.995 . S
N612 C613 1.376 . S
N612 C616 1.383 . S
C613 N612 1.376 . S
C613 C614 1.446 . S
C613 C636 1.391 1_554 S
C614 C613 1.446 . S
C614 C615 1.339 . S
C614 H643 0.949 . S
C615 C614 1.339 . S
C615 C616 1.439 . S
C615 H644 0.950 . S
C616 N612 1.383 . S
C616 C615 1.439 . S
C616 C634 1.392 . S
N617 Co601 2.282 . S
N617 C620 1.332 . S
N617 C622 1.332 . S
C618 C619 1.386 . S
C618 C621 1.388 . S
C619 C618 1.386 . S
C619 C620 1.382 . S
C619 H645 0.950 . S
C620 N617 1.332 . S
C620 C619 1.382 . S
C620 H631 0.952 . S
C621 C618 1.388 . S
C621 C622 1.382 . S
C621 H646 0.950 . S
C622 N617 1.332 . S
C622 C621 1.382 . S
C622 H632 0.948 . S
N623 Co601 2.282 1_556 S
N623 C627 1.332 . S
N623 C628 1.332 . S
C624 C625 1.388 . S
C624 C628 1.382 . S
C624 H647 0.950 . S
C625 C624 1.388 . S
C625 C626 1.386 . S
C626 C625 1.386 . S
C626 C627 1.382 . S
C626 H648 0.950 . S
C627 N623 1.332 . S
C627 C626 1.382 . S
C627 H629 0.952 . S
C628 N623 1.332 . S
C628 C624 1.382 . S
C628 H630 0.948 . S
H629 C627 0.952 . S
H630 C628 0.948 . S
H631 C620 0.952 . S
H632 C622 0.948 . S
C633 C599 1.395 . S
C633 C603 1.391 1_554 S
C634 C596 1.389 . S
C634 C616 1.392 . S
C635 C606 1.392 . S
C635 C608 1.389 . S
C636 C611 1.395 . S
C636 C613 1.391 1_556 S
H637 C597 0.951 . S
H638 C598 0.950 . S
H639 C604 0.949 . S
H640 C605 0.950 . S
H641 C609 0.951 . S
H642 C610 0.950 . S
H643 C614 0.949 . S
H644 C615 0.950 . S
H645 C619 0.950 . S
H646 C621 0.950 . S
H647 C624 0.950 . S
H648 C626 0.950 . S
C649 C650 1.443 . S
C649 N653 1.376 . S
C649 C687 1.389 . S
C650 C649 1.443 . S
C650 C651 1.340 . S
C650 H690 0.951 . S
C651 C650 1.340 . S
C651 C652 1.439 . S
C651 H691 0.950 . S
C652 C651 1.439 . S
C652 N653 1.374 . S
C652 C686 1.395 1_554 S
N653 C649 1.376 . S
N653 C652 1.374 . S
N653 Co654 2.008 . S
Co654 N653 2.008 . S
Co654 N655 1.995 1_554 S
Co654 N660 2.008 . S
Co654 N665 1.995 . S
Co654 N670 2.282 . S
Co654 N676 2.282 1_554 S
N655 Co654 1.995 1_556 S
N655 C656 1.376 . S
N655 C659 1.383 . S
C656 N655 1.376 . S
C656 C657 1.446 . S
C656 C686 1.391 . S
C657 C656 1.446 . S
C657 C658 1.339 . S
C657 H692 0.949 . S
C658 C657 1.339 . S
C658 C659 1.439 . S
C658 H693 0.950 . S
C659 N655 1.383 . S
C659 C658 1.439 . S
C659 C688 1.392 . S
N660 Co654 2.008 . S
N660 C661 1.376 1_554 S
N660 C664 1.374 . S
C661 N660 1.376 1_556 S
C661 C662 1.443 . S
C661 C688 1.389 . S
C662 C661 1.443 . S
C662 C663 1.340 1_556 S
C662 H694 0.951 . S
C663 C662 1.340 1_554 S
C663 C664 1.439 . S
C663 H695 0.950 . S
C664 N660 1.374 . S
C664 C663 1.439 . S
C664 C689 1.395 . S
N665 Co654 1.995 . S
N665 C666 1.376 . S
N665 C669 1.383 . S
C666 N665 1.376 . S
C666 C667 1.446 . S
C666 C689 1.391 . S
C667 C666 1.446 . S
C667 C668 1.339 . S
C667 H696 0.949 . S
C668 C667 1.339 . S
C668 C669 1.439 . S
C668 H697 0.950 . S
C669 N665 1.383 . S
C669 C668 1.439 . S
C669 C687 1.392 . S
N670 Co654 2.282 . S
N670 C673 1.332 . S
N670 C675 1.332 . S
C671 C672 1.386 . S
C671 C674 1.388 . S
C672 C671 1.386 . S
C672 C673 1.382 . S
C672 H698 0.950 . S
C673 N670 1.332 . S
C673 C672 1.382 . S
C673 H684 0.952 . S
C674 C671 1.388 . S
C674 C675 1.382 . S
C674 H699 0.950 . S
C675 N670 1.332 . S
C675 C674 1.382 . S
C675 H685 0.948 . S
N676 Co654 2.282 1_556 S
N676 C680 1.332 . S
N676 C681 1.332 . S
C677 C678 1.388 . S
C677 C681 1.382 . S
C677 H700 0.950 . S
C678 C677 1.388 . S
C678 C679 1.386 . S
C679 C678 1.386 . S
C679 C680 1.382 . S
C679 H701 0.950 . S
C680 N676 1.332 . S
C680 C679 1.382 . S
C680 H682 0.952 . S
C681 N676 1.332 . S
C681 C677 1.382 . S
C681 H683 0.948 . S
H682 C680 0.952 . S
H683 C681 0.948 . S
H684 C673 0.952 . S
H685 C675 0.948 . S
C686 C652 1.395 1_556 S
C686 C656 1.391 . S
C687 C649 1.389 . S
C687 C669 1.392 . S
C688 C659 1.392 . S
C688 C661 1.389 . S
C689 C664 1.395 . S
C689 C666 1.391 . S
H690 C650 0.951 . S
H691 C651 0.950 . S
H692 C657 0.949 . S
H693 C658 0.950 . S
H694 C662 0.951 . S
H695 C663 0.950 . S
H696 C667 0.949 . S
H697 C668 0.950 . S
H698 C672 0.950 . S
H699 C674 0.950 . S
H700 C677 0.950 . S
H701 C679 0.950 . S
C702 C703 1.443 . S
C702 N706 1.376 1_556 S
C702 C740 1.389 . S
C703 C702 1.443 . S
C703 C704 1.340 1_556 S
C703 H743 0.951 . S
C704 C703 1.340 1_554 S
C704 C705 1.439 . S
C704 H744 0.950 . S
C705 C704 1.439 . S
C705 N706 1.374 . S
C705 C739 1.395 . S
N706 C702 1.376 1_554 S
N706 C705 1.374 . S
N706 Co707 2.008 . S
Co707 N706 2.008 . S
Co707 N708 1.995 . S
Co707 N713 2.008 . S
Co707 N718 1.995 1_554 S
Co707 N723 2.282 1_554 S
Co707 N729 2.282 . S
N708 Co707 1.995 . S
N708 C709 1.376 . S
N708 C712 1.383 . S
C709 N708 1.376 . S
C709 C710 1.446 . S
C709 C739 1.391 . S
C710 C709 1.446 . S
C710 C711 1.339 . S
C710 H745 0.949 . S
C711 C710 1.339 . S
C711 C712 1.439 . S
C711 H746 0.950 . S
C712 N708 1.383 . S
C712 C711 1.439 . S
C712 C741 1.392 . S
N713 Co707 2.008 . S
N713 C714 1.376 . S
N713 C717 1.374 . S
C714 N713 1.376 . S
C714 C715 1.443 . S
C714 C741 1.389 . S
C715 C714 1.443 . S
C715 C716 1.340 . S
C715 H747 0.951 . S
C716 C715 1.340 . S
C716 C717 1.439 . S
C716 H748 0.950 . S
C717 N713 1.374 . S
C717 C716 1.439 . S
C717 C742 1.395 . S
N718 Co707 1.995 1_556 S
N718 C719 1.376 . S
N718 C722 1.383 . S
C719 N718 1.376 . S
C719 C720 1.446 . S
C719 C742 1.391 1_556 S
C720 C719 1.446 . S
C720 C721 1.339 . S
C720 H749 0.949 . S
C721 C720 1.339 . S
C721 C722 1.439 . S
C721 H750 0.950 . S
C722 N718 1.383 . S
C722 C721 1.439 . S
C722 C740 1.392 . S
N723 Co707 2.282 1_556 S
N723 C726 1.332 . S
N723 C728 1.332 . S
C724 C725 1.386 . S
C724 C727 1.388 . S
C725 C724 1.386 . S
C725 C726 1.382 . S
C725 H751 0.950 . S
C726 N723 1.332 . S
C726 C725 1.382 . S
C726 H737 0.952 . S
C727 C724 1.388 . S
C727 C728 1.382 . S
C727 H752 0.950 . S
C728 N723 1.332 . S
C728 C727 1.382 . S
C728 H738 0.948 1_556 S
N729 Co707 2.282 . S
N729 C733 1.332 . S
N729 C734 1.332 . S
C730 C731 1.388 . S
C730 C734 1.382 . S
C730 H753 0.950 . S
C731 C730 1.388 . S
C731 C732 1.386 . S
C732 C731 1.386 . S
C732 C733 1.382 . S
C732 H754 0.950 . S
C733 N729 1.332 . S
C733 C732 1.382 . S
C733 H735 0.952 . S
C734 N729 1.332 . S
C734 C730 1.382 . S
C734 H736 0.948 . S
H735 C733 0.952 . S
H736 C734 0.948 . S
H737 C726 0.952 . S
H738 C728 0.948 1_554 S
C739 C705 1.395 . S
C739 C709 1.391 . S
C740 C702 1.389 . S
C740 C722 1.392 . S
C741 C712 1.392 . S
C741 C714 1.389 . S
C742 C717 1.395 . S
C742 C719 1.391 1_554 S
H743 C703 0.951 . S
H744 C704 0.950 . S
H745 C710 0.949 . S
H746 C711 0.950 . S
H747 C715 0.951 . S
H748 C716 0.950 . S
H749 C720 0.949 . S
H750 C721 0.950 . S
H751 C725 0.950 . S
H752 C727 0.950 . S
H753 C730 0.950 . S
H754 C732 0.950 . S
C755 C756 1.443 . S
C755 N759 1.376 . S
C755 C793 1.389 . S
C756 C755 1.443 . S
C756 C757 1.340 . S
C756 H796 0.951 . S
C757 C756 1.340 . S
C757 C758 1.439 . S
C757 H797 0.950 . S
C758 C757 1.439 . S
C758 N759 1.374 . S
C758 C792 1.395 1_554 S
N759 C755 1.376 . S
N759 C758 1.374 . S
N759 Co760 2.008 . S
Co760 N759 2.008 . S
Co760 N761 1.995 1_554 S
Co760 N766 2.008 1_554 S
Co760 N771 1.995 . S
Co760 N776 2.282 . S
Co760 N782 2.282 1_554 S
N761 Co760 1.995 1_556 S
N761 C762 1.376 . S
N761 C765 1.383 . S
C762 N761 1.376 . S
C762 C763 1.446 . S
C762 C792 1.391 . S
C763 C762 1.446 . S
C763 C764 1.339 . S
C763 H798 0.949 . S
C764 C763 1.339 . S
C764 C765 1.439 . S
C764 H799 0.950 . S
C765 N761 1.383 . S
C765 C764 1.439 . S
C765 C794 1.392 . S
N766 Co760 2.008 1_556 S
N766 C767 1.376 . S
N766 C770 1.374 1_556 S
C767 N766 1.376 . S
C767 C768 1.443 . S
C767 C794 1.389 . S
C768 C767 1.443 . S
C768 C769 1.340 . S
C768 H800 0.951 . S
C769 C768 1.340 . S
C769 C770 1.439 1_556 S
C769 H801 0.950 . S
C770 N766 1.374 1_554 S
C770 C769 1.439 1_554 S
C770 C795 1.395 . S
N771 Co760 1.995 . S
N771 C772 1.376 . S
N771 C775 1.383 . S
C772 N771 1.376 . S
C772 C773 1.446 . S
C772 C795 1.391 . S
C773 C772 1.446 . S
C773 C774 1.339 . S
C773 H802 0.949 . S
C774 C773 1.339 . S
C774 C775 1.439 . S
C774 H803 0.950 . S
C775 N771 1.383 . S
C775 C774 1.439 . S
C775 C793 1.392 . S
N776 Co760 2.282 . S
N776 C779 1.332 . S
N776 C781 1.332 . S
C777 C778 1.386 . S
C777 C780 1.388 . S
C778 C777 1.386 . S
C778 C779 1.382 . S
C778 H804 0.950 . S
C779 N776 1.332 . S
C779 C778 1.382 . S
C779 H790 0.952 . S
C780 C777 1.388 . S
C780 C781 1.382 . S
C780 H805 0.950 . S
C781 N776 1.332 . S
C781 C780 1.382 . S
C781 H791 0.948 . S
N782 Co760 2.282 1_556 S
N782 C786 1.332 . S
N782 C787 1.332 . S
C783 C784 1.388 . S
C783 C787 1.382 . S
C783 H806 0.950 . S
C784 C783 1.388 . S
C784 C785 1.386 . S
C785 C784 1.386 . S
C785 C786 1.382 . S
C785 H807 0.950 . S
C786 N782 1.332 . S
C786 C785 1.382 . S
C786 H788 0.952 . S
C787 N782 1.332 . S
C787 C783 1.382 . S
C787 H789 0.948 . S
H788 C786 0.952 . S
H789 C787 0.948 . S
H790 C779 0.952 . S
H791 C781 0.948 . S
C792 C758 1.395 1_556 S
C792 C762 1.391 . S
C793 C755 1.389 . S
C793 C775 1.392 . S
C794 C765 1.392 . S
C794 C767 1.389 . S
C795 C770 1.395 . S
C795 C772 1.391 . S
H796 C756 0.951 . S
H797 C757 0.950 . S
H798 C763 0.949 . S
H799 C764 0.950 . S
H800 C768 0.951 . S
H801 C769 0.950 . S
H802 C773 0.949 . S
H803 C774 0.950 . S
H804 C778 0.950 . S
H805 C780 0.950 . S
H806 C783 0.950 . S
H807 C785 0.950 . S
C413 C36 1.441 . S
C466 C93 1.081 . S
C529 C132 1.651 . S
C572 C174 1.112 . S
C213 C528 1.619 . S
C565 C285 1.148 . S
C406 C324 1.461 . S
C459 C366 0.955 . S
C512 C357 1.490 . S
C581 C222 2.159 . S
C422 C276 1.619 . S
C475 C333 1.961 . S
C423 C84 1.599 . S
C476 C141 2.076 . S
C519 C165 1.518 . S
C582 C45 2.024 . S
C625 C372 1.395 . S
C237 C678 1.819 . S
C261 C740 1.715 . S
C318 C794 1.829 . S
C69 C741 1.527 . S
C126 C793 1.979 . S
C180 C618 1.525 . S
C671 C30 1.750 . S
C731 C21 1.450 . S
C78 C777 1.260 . S
C117 C634 1.665 . S
C189 C687 1.254 . S
C635 C228 1.528 . S
C688 C270 1.404 . S
C309 C724 1.535 . S
C784 C381 1.184 . S
