# Generated by pormake.
# Topology ant, (3,6)-cn, num edge types: 1
# Building blocks:
#     Node 0, Type 0, BuildingBlock: BELTOD_clean_linker_0, # of connection points: 3
#     Node 1, Type 0, BuildingBlock: BELTOD_clean_linker_0, # of connection points: 3
#     Node 2, Type 0, BuildingBlock: BELTOD_clean_linker_0, # of connection points: 3
#     Node 3, Type 0, BuildingBlock: BELTOD_clean_linker_0, # of connection points: 3
#     Node 4, Type 0, BuildingBlock: BELTOD_clean_linker_0, # of connection points: 3
#     Node 5, Type 0, BuildingBlock: BELTOD_clean_linker_0, # of connection points: 3
#     Node 6, Type 0, BuildingBlock: BELTOD_clean_linker_0, # of connection points: 3
#     Node 7, Type 0, BuildingBlock: BELTOD_clean_linker_0, # of connection points: 3
#     Node 8, Type 1, BuildingBlock: MIDCAF_clean_sbu_0, # of connection points: 6
#     Node 9, Type 1, BuildingBlock: MIDCAF_clean_sbu_0, # of connection points: 6
#     Node 10, Type 1, BuildingBlock: MIDCAF_clean_sbu_0, # of connection points: 6
#     Node 11, Type 1, BuildingBlock: MIDCAF_clean_sbu_0, # of connection points: 6
#     Edge 12, Type (0, 1), BuildingBlock: KIFKEQ_clean_linker_1, # of connection points: 2
#     Edge 13, Type (0, 1), BuildingBlock: KIFKEQ_clean_linker_1, # of connection points: 2
#     Edge 14, Type (0, 1), BuildingBlock: KIFKEQ_clean_linker_1, # of connection points: 2
#     Edge 15, Type (0, 1), BuildingBlock: KIFKEQ_clean_linker_1, # of connection points: 2
#     Edge 16, Type (0, 1), BuildingBlock: KIFKEQ_clean_linker_1, # of connection points: 2
#     Edge 17, Type (0, 1), BuildingBlock: KIFKEQ_clean_linker_1, # of connection points: 2
#     Edge 18, Type (0, 1), BuildingBlock: KIFKEQ_clean_linker_1, # of connection points: 2
#     Edge 19, Type (0, 1), BuildingBlock: KIFKEQ_clean_linker_1, # of connection points: 2
#     Edge 20, Type (0, 1), BuildingBlock: KIFKEQ_clean_linker_1, # of connection points: 2
#     Edge 21, Type (0, 1), BuildingBlock: KIFKEQ_clean_linker_1, # of connection points: 2
#     Edge 22, Type (0, 1), BuildingBlock: KIFKEQ_clean_linker_1, # of connection points: 2
#     Edge 23, Type (0, 1), BuildingBlock: KIFKEQ_clean_linker_1, # of connection points: 2
#     Edge 24, Type (0, 1), BuildingBlock: KIFKEQ_clean_linker_1, # of connection points: 2
#     Edge 25, Type (0, 1), BuildingBlock: KIFKEQ_clean_linker_1, # of connection points: 2
#     Edge 26, Type (0, 1), BuildingBlock: KIFKEQ_clean_linker_1, # of connection points: 2
#     Edge 27, Type (0, 1), BuildingBlock: KIFKEQ_clean_linker_1, # of connection points: 2
#     Edge 28, Type (0, 1), BuildingBlock: KIFKEQ_clean_linker_1, # of connection points: 2
#     Edge 29, Type (0, 1), BuildingBlock: KIFKEQ_clean_linker_1, # of connection points: 2
#     Edge 30, Type (0, 1), BuildingBlock: KIFKEQ_clean_linker_1, # of connection points: 2
#     Edge 31, Type (0, 1), BuildingBlock: KIFKEQ_clean_linker_1, # of connection points: 2
#     Edge 32, Type (0, 1), BuildingBlock: KIFKEQ_clean_linker_1, # of connection points: 2
#     Edge 33, Type (0, 1), BuildingBlock: KIFKEQ_clean_linker_1, # of connection points: 2
#     Edge 34, Type (0, 1), BuildingBlock: KIFKEQ_clean_linker_1, # of connection points: 2
#     Edge 35, Type (0, 1), BuildingBlock: KIFKEQ_clean_linker_1, # of connection points: 2
# Relax obj value: 0.095
# Max RMSD: 0.155
# Mean RMSD: 0.097
data_MOF--net-ant--node1-MIDCAF_clean_sbu_0--node2-BELTOD_clean_linker_0--edge1-KIFKEQ_clean_linker_1
_symmetry_space_group_name_H-M    P1
_symmetry_Int_Tables_number       1
_symmetry_cell_setting            triclinic
loop_
_symmetry_equiv_pos_as_xyz
'x, y, z'
_cell_length_a     32.362286
_cell_length_b     32.161978
_cell_length_c     87.052663
_cell_angle_alpha  90.388107
_cell_angle_beta   94.458425
_cell_angle_gamma 89.666586
loop_
_atom_site_label
_atom_site_type_symbol
_atom_site_fract_x
_atom_site_fract_y
_atom_site_fract_z
_atom_type_partial_charge
P0 P 0.29055 0.22306 0.05934 0.0
H1 H 0.30067 0.27182 0.08768 0.0
H2 H 0.27283 0.3392 0.09521 0.0
H3 H 0.19584 0.34341 0.05241 0.0
H4 H 0.22402 0.27655 0.04491 0.0
H5 H 0.34962 0.15672 0.06753 0.0
H6 H 0.34328 0.09124 0.08117 0.0
H7 H 0.22072 0.12751 0.0927 0.0
H8 H 0.22746 0.19338 0.07909 0.0
H9 H 0.30424 0.25083 0.02841 0.0
H10 H 0.22727 0.16103 0.04898 0.0
O11 O 0.34002 0.2357 0.05787 0.0
H12 H 0.27152 0.23357 0.00302 0.0
H13 H 0.19552 0.14237 0.0236 0.0
C14 C 0.26445 0.26897 0.06579 0.0
C15 C 0.27729 0.28696 0.08005 0.0
C16 C 0.26129 0.32549 0.08433 0.0
C17 C 0.23224 0.3469 0.07436 0.0
C18 C 0.21861 0.32812 0.06025 0.0
C19 C 0.23456 0.28956 0.05601 0.0
C20 C 0.28919 0.18008 0.07245 0.0
C21 C 0.32191 0.15122 0.07341 0.0
C22 C 0.31829 0.11378 0.08124 0.0
C23 C 0.28149 0.10421 0.08799 0.0
C24 C 0.24941 0.13403 0.08757 0.0
C25 C 0.2533 0.17175 0.0799 0.0
C26 C 0.26878 0.20681 0.04058 0.0
C27 C 0.28093 0.22673 0.02743 0.0
C28 C 0.26228 0.21661 0.01288 0.0
C29 C 0.23104 0.18624 0.0112 0.0
C30 C 0.21922 0.16608 0.02445 0.0
C31 C 0.2377 0.17651 0.03901 0.0
P32 P 0.07826 0.76317 0.31109 0.0
H33 H 0.10201 0.77586 0.34375 0.0
H34 H 0.16452 0.8044 0.35737 0.0
H35 H 0.20683 0.84327 0.31378 0.0
H36 H 0.14359 0.8175 0.3006 0.0
H37 H 0.00696 0.70949 0.31198 0.0
H38 H 0.93658 0.72104 0.31934 0.0
H39 H 0.96783 0.84789 0.33193 0.0
H40 H 0.03867 0.8358 0.32465 0.0
H41 H 0.13472 0.7426 0.28779 0.0
H42 H 0.01408 0.80001 0.28906 0.0
O43 O 0.09131 0.71351 0.31424 0.0
H44 H 0.13002 0.74952 0.25971 0.0
H45 H 0.00874 0.80531 0.26092 0.0
C46 C 0.11822 0.79405 0.32114 0.0
C47 C 0.12423 0.7918 0.33723 0.0
C48 C 0.16028 0.80775 0.34498 0.0
C49 C 0.19144 0.82553 0.33672 0.0
C50 C 0.18372 0.83024 0.32067 0.0
C51 C 0.14744 0.81486 0.313 0.0
C52 C 0.02818 0.77147 0.31816 0.0
C53 C 0.99885 0.73959 0.31655 0.0
C54 C 0.95848 0.74641 0.32057 0.0
C55 C 0.9466 0.78543 0.32617 0.0
C56 C 0.97621 0.81737 0.32781 0.0
C57 C 0.01667 0.8105 0.32371 0.0
C58 C 0.07491 0.77082 0.29054 0.0
C59 C 0.10737 0.75688 0.28205 0.0
C60 C 0.10472 0.76093 0.26606 0.0
C61 C 0.06908 0.77809 0.25827 0.0
C62 C 0.03651 0.79206 0.26674 0.0
C63 C 0.03962 0.78892 0.28281 0.0
P64 P 0.78256 0.72093 0.55638 0.0
H65 H 0.82779 0.79258 0.56976 0.0
H66 H 0.80571 0.86122 0.57816 0.0
H67 H 0.67773 0.8266 0.56763 0.0
H68 H 0.70017 0.75759 0.55953 0.0
H69 H 0.83639 0.64935 0.56329 0.0
H70 H 0.82769 0.58673 0.57833 0.0
H71 H 0.71597 0.63901 0.5949 0.0
H72 H 0.72423 0.70093 0.5794 0.0
H73 H 0.74216 0.76983 0.53127 0.0
H74 H 0.75543 0.64008 0.5431 0.0
O75 O 0.8311 0.72596 0.55147 0.0
H76 H 0.70205 0.75079 0.50739 0.0
H77 H 0.71562 0.62092 0.51913 0.0
C78 C 0.76566 0.77019 0.56381 0.0
C79 C 0.79498 0.79968 0.56931 0.0
C80 C 0.78229 0.83909 0.57399 0.0
C81 C 0.73993 0.84974 0.57335 0.0
C82 C 0.71057 0.81949 0.56831 0.0
C83 C 0.72335 0.78004 0.56364 0.0
C84 C 0.78119 0.68001 0.57034 0.0
C85 C 0.81061 0.6478 0.57048 0.0
C86 C 0.80563 0.61195 0.57912 0.0
C87 C 0.77096 0.60762 0.58775 0.0
C88 C 0.7427 0.64102 0.5882 0.0
C89 C 0.74759 0.67671 0.57946 0.0
C90 C 0.75086 0.70656 0.53923 0.0
C91 C 0.7358 0.73731 0.5289 0.0
C92 C 0.71279 0.72637 0.51525 0.0
C93 C 0.70519 0.68435 0.5115 0.0
C94 C 0.7208 0.65353 0.52177 0.0
C95 C 0.74345 0.66455 0.53552 0.0
P96 P 0.57826 0.21347 0.8175 0.0
H97 H 0.59794 0.24367 0.849 0.0
H98 H 0.65725 0.28235 0.86096 0.0
H99 H 0.70435 0.29645 0.81616 0.0
H100 H 0.64533 0.25884 0.80444 0.0
H101 H 0.50709 0.16003 0.81841 0.0
H102 H 0.43542 0.17282 0.82392 0.0
H103 H 0.46514 0.30122 0.83465 0.0
H104 H 0.5367 0.28829 0.82856 0.0
H105 H 0.60003 0.15563 0.79325 0.0
H106 H 0.548 0.27885 0.79642 0.0
O107 O 0.59287 0.1655 0.82281 0.0
H108 H 0.59788 0.16176 0.76529 0.0
H109 H 0.54508 0.28504 0.76833 0.0
C110 C 0.61683 0.24888 0.82581 0.0
C111 C 0.62051 0.25621 0.84175 0.0
C112 C 0.65452 0.27812 0.84857 0.0
C113 C 0.68559 0.29269 0.83954 0.0
C114 C 0.68069 0.28663 0.82348 0.0
C115 C 0.64683 0.26477 0.81671 0.0
C116 C 0.52732 0.2229 0.82353 0.0
C117 C 0.49829 0.19077 0.82219 0.0
C118 C 0.45731 0.19815 0.82534 0.0
C119 C 0.44456 0.23798 0.82984 0.0
C120 C 0.47387 0.27026 0.83111 0.0
C121 C 0.51491 0.26281 0.82785 0.0
C122 C 0.57411 0.21678 0.79685 0.0
C123 C 0.5876 0.1838 0.7879 0.0
C124 C 0.58602 0.18723 0.77189 0.0
C125 C 0.57108 0.22382 0.76458 0.0
C126 C 0.55693 0.25656 0.77363 0.0
C127 C 0.55844 0.25302 0.78965 0.0
P128 P 0.11932 0.72135 0.92359 0.0
H129 H 0.1079 0.68227 0.89314 0.0
H130 H 0.0616 0.62725 0.88307 0.0
H131 H 0.99401 0.63599 0.92388 0.0
H132 H 0.04072 0.69114 0.93391 0.0
H133 H 0.17487 0.79193 0.92539 0.0
H134 H 0.16415 0.8667 0.92255 0.0
H135 H 0.03232 0.84675 0.91401 0.0
H136 H 0.04337 0.77189 0.9174 0.0
H137 H 0.12662 0.64075 0.9386 0.0
H138 H 0.13002 0.76976 0.95258 0.0
O139 O 0.16306 0.7098 0.91549 0.0
H140 H 0.13679 0.61976 0.96565 0.0
H141 H 0.1406 0.74898 0.97948 0.0
C142 C 0.07842 0.68989 0.91445 0.0
C143 C 0.08249 0.67311 0.89975 0.0
C144 C 0.05573 0.6418 0.89395 0.0
C145 C 0.02446 0.62678 0.90278 0.0
C146 C 0.01819 0.64645 0.91691 0.0
C147 C 0.04483 0.67798 0.92264 0.0
C148 C 0.11003 0.77635 0.92132 0.0
C149 C 0.14366 0.80368 0.92286 0.0
C150 C 0.13746 0.84647 0.92119 0.0
C151 C 0.09739 0.86288 0.91788 0.0
C152 C 0.06357 0.83531 0.91667 0.0
C153 C 0.06984 0.79241 0.91845 0.0
C154 C 0.12701 0.70679 0.94356 0.0
C155 C 0.12949 0.66454 0.94748 0.0
C156 C 0.1353 0.65256 0.96291 0.0
C157 C 0.13959 0.68272 0.97465 0.0
C158 C 0.13787 0.72504 0.97066 0.0
C159 C 0.13156 0.73697 0.95524 0.0
P160 P 0.67658 0.87541 0.18493 0.0
H161 H 0.73119 0.91292 0.16389 0.0
H162 H 0.79599 0.8902 0.15395 0.0
H163 H 0.78556 0.77147 0.17623 0.0
H164 H 0.72047 0.79475 0.18629 0.0
H165 H 0.60162 0.92209 0.17479 0.0
H166 H 0.53363 0.90079 0.16351 0.0
H167 H 0.57768 0.77403 0.16082 0.0
H168 H 0.64551 0.79558 0.17247 0.0
H169 H 0.74329 0.85679 0.20878 0.0
H170 H 0.60953 0.85879 0.20473 0.0
O171 O 0.67926 0.92721 0.18551 0.0
H172 H 0.7428 0.83553 0.23574 0.0
H173 H 0.60898 0.83822 0.23163 0.0
C174 C 0.72141 0.85584 0.17605 0.0
C175 C 0.74259 0.88188 0.16655 0.0
C176 C 0.77962 0.86872 0.1608 0.0
C177 C 0.79617 0.82908 0.16439 0.0
C178 C 0.77399 0.8024 0.17346 0.0
C179 C 0.73668 0.81557 0.17913 0.0
C180 C 0.62887 0.86051 0.17427 0.0
C181 C 0.59695 0.88984 0.1715 0.0
C182 C 0.55798 0.87761 0.165 0.0
C183 C 0.55003 0.83566 0.16126 0.0
C184 C 0.58253 0.80652 0.16372 0.0
C185 C 0.62151 0.81883 0.17023 0.0
C186 C 0.67643 0.85798 0.20456 0.0
C187 C 0.71383 0.85203 0.21359 0.0
C188 C 0.71357 0.84005 0.229 0.0
C189 C 0.67587 0.8351 0.23574 0.0
C190 C 0.63851 0.84196 0.22674 0.0
C191 C 0.63881 0.85338 0.21131 0.0
P192 P 0.62518 0.22688 0.4249 0.0
H193 H 0.61332 0.18443 0.39506 0.0
H194 H 0.56764 0.1276 0.38603 0.0
H195 H 0.50278 0.13838 0.42742 0.0
H196 H 0.54857 0.19528 0.43638 0.0
H197 H 0.67483 0.30002 0.43215 0.0
H198 H 0.66273 0.37437 0.42816 0.0
H199 H 0.54003 0.348 0.40727 0.0
H200 H 0.55218 0.27367 0.41162 0.0
H201 H 0.66751 0.1587 0.44157 0.0
H202 H 0.5975 0.26794 0.45254 0.0
O203 O 0.66914 0.21579 0.41687 0.0
H204 H 0.6736 0.1392 0.46881 0.0
H205 H 0.60435 0.24945 0.47973 0.0
C206 C 0.58507 0.19319 0.41657 0.0
C207 C 0.58864 0.17525 0.40202 0.0
C208 C 0.56226 0.14295 0.39682 0.0
C209 C 0.53197 0.12813 0.40613 0.0
C210 C 0.52621 0.14876 0.4201 0.0
C211 C 0.55241 0.18124 0.42523 0.0
C212 C 0.61458 0.28141 0.42206 0.0
C213 C 0.6453 0.31033 0.42674 0.0
C214 C 0.63838 0.3528 0.42439 0.0
C215 C 0.60049 0.36721 0.41731 0.0
C216 C 0.56941 0.33803 0.4129 0.0
C217 C 0.57641 0.29546 0.41527 0.0
C218 C 0.63286 0.21519 0.44511 0.0
C219 C 0.6541 0.17885 0.4499 0.0
C220 C 0.65756 0.16776 0.46546 0.0
C221 C 0.63941 0.1927 0.47646 0.0
C222 C 0.61822 0.22921 0.47155 0.0
C223 C 0.61474 0.24017 0.45601 0.0
P224 P 0.18357 0.37197 0.68713 0.0
H225 H 0.26408 0.41053 0.68585 0.0
H226 H 0.33099 0.38513 0.6792 0.0
H227 H 0.276 0.26666 0.66589 0.0
H228 H 0.20933 0.2918 0.67375 0.0
H229 H 0.09954 0.39261 0.69301 0.0
H230 H 0.03213 0.37988 0.67924 0.0
H231 H 0.09232 0.31558 0.64336 0.0
H232 H 0.16009 0.32953 0.65702 0.0
H233 H 0.19959 0.40601 0.71835 0.0
H234 H 0.16367 0.2887 0.69726 0.0
O235 O 0.18626 0.4236 0.689 0.0
H236 H 0.19428 0.37629 0.74384 0.0
H237 H 0.15959 0.25817 0.72274 0.0
C238 C 0.23111 0.35372 0.67971 0.0
C239 C 0.26611 0.37929 0.68125 0.0
C240 C 0.30465 0.36462 0.67737 0.0
C241 C 0.30933 0.32385 0.67172 0.0
C242 C 0.27402 0.29813 0.67026 0.0
C243 C 0.23548 0.31274 0.67445 0.0
C244 C 0.13489 0.36143 0.67622 0.0
C245 C 0.09833 0.37588 0.68214 0.0
C246 C 0.05979 0.36885 0.67421 0.0
C247 C 0.05688 0.34676 0.66021 0.0
C248 C 0.09361 0.33244 0.6542 0.0
C249 C 0.13239 0.34015 0.66206 0.0
C250 C 0.18137 0.34969 0.70594 0.0
C251 C 0.19077 0.37375 0.71921 0.0
C252 C 0.18813 0.35655 0.73381 0.0
C253 C 0.17634 0.31483 0.73538 0.0
C254 C 0.16807 0.29057 0.72198 0.0
C255 C 0.17057 0.30789 0.7074 0.0
Zn256 Zn 0.19575 0.67838 0.13964 0.0
Zn257 Zn 0.12368 0.77805 0.09963 0.0
Zn258 Zn 0.16486 0.73148 0.1195 0.0
C259 C 0.13297 0.7042 0.08446 0.0
C260 C 0.20096 0.81601 0.10695 0.0
O261 O 0.12854 0.73251 0.1401 0.0
O262 O 0.1626 0.69159 0.15712 0.0
C263 C 0.1746 0.63108 0.11423 0.0
O264 O 0.15421 0.6966 0.09731 0.0
O265 O 0.11338 0.73801 0.08263 0.0
O266 O 0.16851 0.8188 0.09798 0.0
O267 O 0.20604 0.78535 0.11637 0.0
O268 O 0.18292 0.62615 0.12848 0.0
O269 O 0.16956 0.66803 0.10864 0.0
O270 O 0.22785 0.75553 0.12603 0.0
O271 O 0.25287 0.7013 0.13928 0.0
C272 C 0.25846 0.73628 0.13326 0.0
O273 O 0.10443 0.75263 0.12841 0.0
O274 O 0.07594 0.7953 0.11078 0.0
C275 C 0.13322 0.71659 0.15369 0.0
C276 C 0.0746 0.77726 0.12354 0.0
Zn277 Zn 0.53679 0.70608 0.35149 0.0
Zn278 Zn 0.62055 0.80512 0.3926 0.0
Zn279 Zn 0.57777 0.75517 0.37284 0.0
C280 C 0.54299 0.8414 0.38694 0.0
C281 C 0.66632 0.79895 0.36729 0.0
O282 O 0.57346 0.6919 0.38271 0.0
O283 O 0.53727 0.65568 0.36465 0.0
C284 C 0.48473 0.77356 0.35823 0.0
O285 O 0.53842 0.80976 0.37782 0.0
O286 O 0.57623 0.84641 0.39529 0.0
O287 O 0.66634 0.81924 0.37975 0.0
O288 O 0.63602 0.7744 0.36316 0.0
O289 O 0.48638 0.74217 0.34949 0.0
O290 O 0.51561 0.78278 0.36786 0.0
O291 O 0.60976 0.75528 0.3513 0.0
O292 O 0.5765 0.71095 0.33525 0.0
C293 C 0.60519 0.73702 0.33805 0.0
O294 O 0.59396 0.71819 0.39382 0.0
O295 O 0.63194 0.76235 0.40851 0.0
C296 C 0.55642 0.6576 0.37784 0.0
C297 C 0.61602 0.72687 0.40638 0.0
Zn298 Zn 0.62102 0.26672 0.60663 0.0
Zn299 Zn 0.72311 0.18753 0.64036 0.0
Zn300 Zn 0.67515 0.22912 0.62343 0.0
C301 C 0.77161 0.24838 0.62952 0.0
C302 C 0.69343 0.13187 0.61874 0.0
O303 O 0.61589 0.23849 0.63536 0.0
O304 O 0.56951 0.25389 0.61624 0.0
C305 C 0.68443 0.32349 0.61581 0.0
O306 O 0.73504 0.2639 0.62654 0.0
O307 O 0.77563 0.2112 0.63394 0.0
O308 O 0.70714 0.13125 0.63271 0.0
O309 O 0.68367 0.16699 0.61229 0.0
O310 O 0.64654 0.32228 0.61108 0.0
O311 O 0.7039 0.28973 0.61973 0.0
O312 O 0.66648 0.19438 0.60125 0.0
O313 O 0.62914 0.23933 0.58682 0.0
C314 C 0.6493 0.20574 0.58807 0.0
O315 O 0.64724 0.22287 0.64561 0.0
O316 O 0.70347 0.20636 0.66034 0.0
C317 C 0.5779 0.24538 0.63024 0.0
C318 C 0.66584 0.21723 0.65906 0.0
Zn319 Zn 0.0273 0.19764 0.85384 0.0
Zn320 Zn 0.11532 0.30374 0.89023 0.0
Zn321 Zn 0.07126 0.24941 0.87292 0.0
C322 C 0.10535 0.23187 0.9078 0.0
C323 C 0.04124 0.34288 0.88216 0.0
O324 O 0.10089 0.24406 0.85083 0.0
O325 O 0.06419 0.19806 0.83662 0.0
C326 C 0.04949 0.15402 0.88111 0.0
O327 O 0.08901 0.21745 0.8949 0.0
O328 O 0.11701 0.26921 0.909 0.0
O329 O 0.07664 0.35093 0.88851 0.0
O330 O 0.03315 0.30656 0.87637 0.0
O331 O 0.02865 0.15004 0.86831 0.0
O332 O 0.06771 0.18867 0.88478 0.0
O333 O 0.00889 0.27712 0.86819 0.0
O334 O 0.97702 0.23329 0.85154 0.0
C335 C 0.97679 0.26642 0.8594 0.0
O336 O 0.12894 0.26288 0.86203 0.0
O337 O 0.16485 0.30485 0.87822 0.0
C338 C 0.0939 0.22343 0.83813 0.0
C339 C 0.16212 0.2836 0.86595 0.0
H340 H 0.2204 0.41493 0.05561 0.0
H341 H 0.21071 0.37475 0.10243 0.0
H342 H 0.1987 0.48496 0.06267 0.0
H343 H 0.19058 0.44478 0.10959 0.0
H344 H 0.1277 0.56355 0.11804 0.0
H345 H 0.13537 0.49496 0.10645 0.0
H346 H 0.22674 0.5441 0.07788 0.0
H347 H 0.21829 0.61294 0.08943 0.0
C348 C 0.21327 0.42091 0.06738 0.0
C349 C 0.21733 0.38916 0.07847 0.0
C350 C 0.20122 0.46117 0.07145 0.0
C351 C 0.19273 0.47058 0.08668 0.0
C352 C 0.19618 0.43861 0.09769 0.0
C353 C 0.20829 0.39849 0.09364 0.0
C354 C 0.14841 0.55985 0.10891 0.0
C355 C 0.17198 0.59352 0.10444 0.0
C356 C 0.1532 0.52051 0.1024 0.0
C357 C 0.18225 0.51377 0.09143 0.0
C358 C 0.20386 0.54819 0.08621 0.0
C359 C 0.19881 0.58776 0.0927 0.0
H360 H 0.87463 0.76079 0.31023 0.0
H361 H 0.92123 0.82557 0.35156 0.0
H362 H 0.80406 0.76799 0.31799 0.0
H363 H 0.85086 0.83254 0.35938 0.0
H364 H 0.71832 0.86448 0.36531 0.0
H365 H 0.78414 0.86545 0.35341 0.0
H366 H 0.76387 0.73886 0.33775 0.0
H367 H 0.69802 0.73814 0.34957 0.0
C368 C 0.86977 0.77656 0.32098 0.0
C369 C 0.90351 0.79237 0.33035 0.0
C370 C 0.82937 0.7807 0.32541 0.0
C371 C 0.82182 0.80073 0.33932 0.0
C372 C 0.85549 0.81752 0.34847 0.0
C373 C 0.89586 0.81346 0.34402 0.0
C374 C 0.72771 0.83712 0.35911 0.0
C375 C 0.70299 0.80132 0.35828 0.0
C376 C 0.76546 0.83759 0.35237 0.0
C377 C 0.77945 0.80212 0.34476 0.0
C378 C 0.75382 0.76689 0.34338 0.0
C379 C 0.71603 0.76646 0.35012 0.0
H380 H 0.82554 0.55298 0.60313 0.0
H381 H 0.69617 0.56954 0.58799 0.0
H382 H 0.81006 0.48415 0.61312 0.0
H383 H 0.68092 0.50175 0.59791 0.0
H384 H 0.65213 0.3954 0.62543 0.0
H385 H 0.67766 0.46528 0.62179 0.0
H386 H 0.78742 0.4142 0.60334 0.0
H387 H 0.76216 0.34362 0.60762 0.0
C388 C 0.79383 0.54211 0.60201 0.0
C389 C 0.76201 0.56706 0.59491 0.0
C390 C 0.78502 0.50271 0.60772 0.0
C391 C 0.74421 0.48762 0.60649 0.0
C392 C 0.71255 0.51277 0.59946 0.0
C393 C 0.72129 0.55184 0.59377 0.0
C394 C 0.68218 0.39912 0.62093 0.0
C395 C 0.70493 0.36431 0.61658 0.0
C396 C 0.6967 0.43912 0.61875 0.0
C397 C 0.73397 0.44534 0.61185 0.0
C398 C 0.75851 0.41045 0.60864 0.0
C399 C 0.74412 0.37008 0.61107 0.0
H400 H 0.73283 0.35646 0.82964 0.0
H401 H 0.72966 0.26465 0.86555 0.0
H402 H 0.8062 0.36829 0.83701 0.0
H403 H 0.8024 0.2772 0.87304 0.0
H404 H 0.93666 0.29958 0.88315 0.0
H405 H 0.86425 0.32386 0.88154 0.0
H406 H 0.85915 0.31277 0.83194 0.0
H407 H 0.93042 0.28793 0.83364 0.0
C408 C 0.74741 0.33968 0.83938 0.0
C409 C 0.72561 0.30882 0.84674 0.0
C410 C 0.78933 0.34669 0.84365 0.0
C411 C 0.81013 0.32324 0.85545 0.0
C412 C 0.78717 0.29597 0.86397 0.0
C413 C 0.74533 0.28873 0.85963 0.0
C414 C 0.9203 0.30384 0.87193 0.0
C415 C 0.93862 0.29157 0.85851 0.0
C416 C 0.87897 0.31754 0.871 0.0
C417 C 0.856 0.32 0.85662 0.0
C418 C 0.87603 0.31164 0.84317 0.0
C419 C 0.91677 0.29716 0.84413 0.0
H420 H 0.01169 0.56149 0.92147 0.0
H421 H 0.99138 0.60121 0.87421 0.0
H422 H 0.99462 0.49099 0.9138 0.0
H423 H 0.97279 0.53018 0.86642 0.0
H424 H 0.03905 0.40129 0.86034 0.0
H425 H 0.01546 0.47215 0.86372 0.0
H426 H 0.95488 0.43496 0.904 0.0
H427 H 0.98068 0.36401 0.90081 0.0
C428 C 1.00184 0.55548 0.90949 0.0
C429 C 0.00355 0.58688 0.89842 0.0
C430 C 0.9918 0.51477 0.90504 0.0
C431 C 0.98289 0.50437 0.88939 0.0
C432 C 0.98048 0.53672 0.87852 0.0
C433 C 0.99102 0.57748 0.88297 0.0
C434 C 0.01891 0.40795 0.86945 0.0
C435 C 0.01166 0.37751 0.88033 0.0
C436 C 0.0053 0.44875 0.87145 0.0
C437 C 0.98415 0.45984 0.88442 0.0
C438 C 0.97212 0.42786 0.89412 0.0
C439 C 0.98625 0.38704 0.89219 0.0
H440 H 0.82421 0.84148 0.13602 0.0
H441 H 0.8606 0.78845 0.18051 0.0
H442 H 0.89312 0.82761 0.12781 0.0
H443 H 0.93001 0.77438 0.17222 0.0
H444 H 0.03696 0.72303 0.14239 0.0
H445 H 0.96985 0.73292 0.15333 0.0
H446 H 0.96183 0.85713 0.13474 0.0
H447 H 0.02822 0.84729 0.12394 0.0
C448 C 0.84696 0.82686 0.14406 0.0
C449 C 0.83701 0.81657 0.15898 0.0
C450 C 0.88651 0.81896 0.13937 0.0
C451 C 0.91729 0.80057 0.14947 0.0
C452 C 0.90696 0.78855 0.16418 0.0
C453 C 0.86719 0.79654 0.1689 0.0
C454 C 0.02124 0.75273 0.14101 0.0
C455 C 0.03776 0.78436 0.13229 0.0
C456 C 0.98275 0.75833 0.14719 0.0
C457 C 0.96013 0.7955 0.14461 0.0
C458 C 0.97792 0.82774 0.13659 0.0
C459 C 0.01611 0.82219 0.13048 0.0
H460 H 0.65578 0.42229 0.40683 0.0
H461 H 0.53055 0.41423 0.42044 0.0
H462 H 0.64436 0.49503 0.40019 0.0
H463 H 0.51909 0.48725 0.41379 0.0
H464 H 0.50112 0.59469 0.3783 0.0
H465 H 0.51155 0.52668 0.39011 0.0
H466 H 0.63218 0.56496 0.40978 0.0
H467 H 0.62221 0.63259 0.39733 0.0
C468 C 0.62601 0.43623 0.40867 0.0
C469 C 0.59401 0.4123 0.4141 0.0
C470 C 0.61949 0.47805 0.4049 0.0
C471 C 0.58079 0.49705 0.40645 0.0
C472 C 0.5491 0.47343 0.41226 0.0
C473 C 0.55562 0.43155 0.41603 0.0
C474 C 0.52959 0.58879 0.38536 0.0
C475 C 0.56066 0.61915 0.38706 0.0
C476 C 0.53547 0.54988 0.39223 0.0
C477 C 0.57273 0.54025 0.40089 0.0
C478 C 0.60322 0.57125 0.40309 0.0
C479 C 0.59726 0.61029 0.39621 0.0
H480 H 0.02856 0.27209 0.64893 0.0
H481 H 0.9913 0.40006 0.6541 0.0
H482 H 0.95889 0.2546 0.63865 0.0
H483 H 0.92156 0.38321 0.64314 0.0
H484 H 0.83873 0.22844 0.61444 0.0
H485 H 0.90787 0.25775 0.61867 0.0
H486 H 0.86065 0.35032 0.64917 0.0
H487 H 0.79088 0.32219 0.64397 0.0
C488 C 0.00563 0.29671 0.64749 0.0
C489 C 0.01543 0.33738 0.65236 0.0
C490 C 0.96551 0.28681 0.6415 0.0
C491 C 0.93411 0.31747 0.63995 0.0
C492 C 0.94446 0.35855 0.64436 0.0
C493 C 0.98453 0.3683 0.65057 0.0
C494 C 0.84304 0.256 0.62161 0.0
C495 C 0.80965 0.27313 0.62888 0.0
C496 C 0.88282 0.27245 0.62427 0.0
C497 C 0.8905 0.3057 0.63468 0.0
C498 C 0.85626 0.32479 0.64106 0.0
C499 C 0.81613 0.3088 0.63808 0.0
H500 H 0.34227 0.24435 0.67427 0.0
H501 H 0.37145 0.3684 0.65965 0.0
H502 H 0.40985 0.22001 0.66704 0.0
H503 H 0.43946 0.34427 0.65343 0.0
H504 H 0.57159 0.29502 0.65539 0.0
H505 H 0.50766 0.31117 0.66778 0.0
H506 H 0.44275 0.21743 0.63978 0.0
H507 H 0.50624 0.20218 0.62718 0.0
C508 C 0.36282 0.26652 0.66956 0.0
C509 C 0.35093 0.30854 0.6676 0.0
C510 C 0.40176 0.25255 0.6656 0.0
C511 C 0.43007 0.28039 0.65991 0.0
C512 C 0.41859 0.32231 0.65812 0.0
C513 C 0.37947 0.33611 0.66175 0.0
C514 C 0.54395 0.27703 0.65229 0.0
C515 C 0.54373 0.24714 0.64047 0.0
C516 C 0.50738 0.28646 0.65926 0.0
C517 C 0.47026 0.26567 0.65466 0.0
C518 C 0.47095 0.23369 0.64362 0.0
C519 C 0.50722 0.22492 0.63644 0.0
H520 H 0.49386 0.87471 0.14066 0.0
H521 H 0.50927 0.7662 0.16956 0.0
H522 H 0.42334 0.8527 0.1323 0.0
H523 H 0.43936 0.74437 0.16125 0.0
H524 H 0.32999 0.69261 0.13354 0.0
H525 H 0.40039 0.71768 0.13874 0.0
H526 H 0.35402 0.84345 0.14192 0.0
H527 H 0.28306 0.81783 0.13652 0.0
C528 C 0.48223 0.84623 0.14525 0.0
C529 C 0.50747 0.82203 0.15568 0.0
C530 C 0.4418 0.83367 0.14047 0.0
C531 C 0.42575 0.79657 0.14598 0.0
C532 C 0.45098 0.7726 0.15647 0.0
C533 C 0.49122 0.78511 0.16123 0.0
C534 C 0.33481 0.7257 0.13519 0.0
C535 C 0.30098 0.75337 0.13459 0.0
C536 C 0.37519 0.74006 0.13826 0.0
C537 C 0.38293 0.78251 0.14101 0.0
C538 C 0.34922 0.81057 0.13976 0.0
C539 C 0.30857 0.79606 0.13658 0.0
H540 H 0.39589 0.30606 0.82222 0.0
H541 H 0.3942 0.18707 0.84496 0.0
H542 H 0.32423 0.31856 0.82812 0.0
H543 H 0.32269 0.1993 0.85056 0.0
H544 H 0.18557 0.21701 0.84907 0.0
H545 H 0.25157 0.20708 0.8377 0.0
H546 H 0.28868 0.33091 0.85226 0.0
H547 H 0.2223 0.34115 0.8633 0.0
C548 C 0.38032 0.28264 0.82849 0.0
C549 C 0.40082 0.2456 0.83315 0.0
C550 C 0.33925 0.28971 0.83178 0.0
C551 C 0.31782 0.25977 0.83969 0.0
C552 C 0.33813 0.22257 0.84416 0.0
C553 C 0.37917 0.21562 0.84097 0.0
C554 C 0.2073 0.24253 0.84941 0.0
C555 C 0.19881 0.27991 0.85699 0.0
C556 C 0.24524 0.23668 0.84306 0.0
C557 C 0.27538 0.26809 0.84423 0.0
C558 C 0.26595 0.30627 0.85109 0.0
C559 C 0.22809 0.31204 0.85749 0.0
H560 H 0.23309 0.78225 0.36026 0.0
H561 H 0.24659 0.88693 0.33013 0.0
H562 H 0.30644 0.78527 0.36836 0.0
H563 H 0.32081 0.88813 0.33775 0.0
H564 H 0.43994 0.79822 0.33244 0.0
H565 H 0.36946 0.82589 0.33048 0.0
H566 H 0.37087 0.82998 0.3801 0.0
H567 H 0.44251 0.80332 0.38204 0.0
C568 C 0.25116 0.80686 0.35572 0.0
C569 C 0.2337 0.83382 0.34425 0.0
C570 C 0.29342 0.80848 0.36039 0.0
C571 C 0.31929 0.83666 0.35356 0.0
C572 C 0.30149 0.86589 0.34309 0.0
C573 C 0.25904 0.86482 0.33862 0.0
C574 C 0.42565 0.80632 0.34292 0.0
C575 C 0.44632 0.79846 0.35737 0.0
C576 C 0.38545 0.82238 0.34181 0.0
C577 C 0.36474 0.82995 0.35514 0.0
C578 C 0.38628 0.82445 0.36966 0.0
C579 C 0.42714 0.80934 0.37077 0.0
H580 H 0.77535 0.9243 0.56708 0.0
H581 H 0.67436 0.87146 0.58997 0.0
H582 H 0.75719 0.99321 0.57631 0.0
H583 H 0.65518 0.94065 0.59868 0.0
H584 H 0.68026 0.05568 0.63035 0.0
H585 H 0.68578 0.98859 0.6177 0.0
H586 H 0.70653 0.05011 0.57501 0.0
H587 H 0.70222 0.11768 0.58798 0.0
C588 C 0.74909 0.92741 0.574 0.0
C589 C 0.72669 0.89219 0.57796 0.0
C590 C 0.73828 0.96706 0.5791 0.0
C591 C 0.70479 0.97252 0.58829 0.0
C592 C 0.68144 0.93751 0.59177 0.0
C593 C 0.69225 0.89785 0.58667 0.0
C594 C 0.6854 0.05495 0.6182 0.0
C595 C 0.69064 0.09201 0.61013 0.0
C596 C 0.68825 0.01642 0.6109 0.0
C597 C 0.69666 0.01384 0.59533 0.0
C598 C 0.70032 0.051 0.58706 0.0
C599 C 0.69725 0.08974 0.5944 0.0
H600 H 0.21441 0.0553 0.08123 0.0
H601 H 0.33404 0.05611 0.10697 0.0
H602 H 0.20584 0.98238 0.08778 0.0
H603 H 0.32494 0.98258 0.11368 0.0
H604 H 0.22603 0.86742 0.13084 0.0
H605 H 0.25322 0.93805 0.12823 0.0
H606 H 0.263 0.91591 0.07975 0.0
H607 H 0.23686 0.8454 0.08241 0.0
C608 C 0.23848 0.04017 0.08857 0.0
C609 C 0.27482 0.06148 0.09364 0.0
C610 C 0.2337 0.99839 0.09219 0.0
C611 C 0.26487 0.97711 0.10112 0.0
C612 C 0.30059 0.99853 0.10675 0.0
C613 C 0.30573 0.04039 0.1029 0.0
C614 C 0.2364 0.87688 0.11986 0.0
C615 C 0.23024 0.85081 0.10688 0.0
C616 C 0.25148 0.91734 0.11834 0.0
C617 C 0.2599 0.93216 0.10378 0.0
C618 C 0.25679 0.90498 0.09109 0.0
C619 C 0.24214 0.86465 0.09263 0.0
H620 H 0.52421 0.06379 0.4256 0.0
H621 H 0.4954 0.10028 0.37837 0.0
H622 H 0.50645 0.99292 0.41905 0.0
H623 H 0.4753 0.02887 0.3717 0.0
H624 H 0.4911 0.86578 0.40839 0.0
H625 H 0.46665 0.93698 0.41162 0.0
H626 H 0.51151 0.96869 0.36763 0.0
H627 H 0.53226 0.89696 0.36408 0.0
C628 C 0.51237 0.0569 0.41388 0.0
C629 C 0.51166 0.08757 0.40248 0.0
C630 C 0.50184 0.01594 0.41007 0.0
C631 C 0.48975 0.00445 0.39472 0.0
C632 C 0.48546 0.03607 0.38356 0.0
C633 C 0.49675 0.0771 0.38736 0.0
C634 C 0.49338 0.88766 0.39909 0.0
C635 C 0.51355 0.87626 0.38603 0.0
C636 C 0.48017 0.92871 0.40102 0.0
C637 C 0.48876 0.95942 0.39024 0.0
C638 C 0.50431 0.94644 0.37629 0.0
C639 C 0.51627 0.9051 0.37417 0.0
H640 H 0.14621 0.91569 0.90277 0.0
H641 H 0.03454 0.91326 0.92693 0.0
H642 H 0.13509 0.98913 0.89745 0.0
H643 H 0.02316 0.98701 0.92138 0.0
H644 H 0.99199 0.09597 0.88648 0.0
H645 H 0.00427 0.02772 0.89806 0.0
H646 H 0.13297 0.05911 0.90882 0.0
H647 H 0.12056 0.12693 0.89667 0.0
C648 C 0.11964 0.93094 0.90719 0.0
C649 C 0.09124 0.90836 0.91526 0.0
C650 C 0.11331 0.97319 0.90415 0.0
C651 C 0.0783 0.99404 0.90903 0.0
C652 C 0.05025 0.97176 0.91735 0.0
C653 C 0.05668 0.92945 0.92046 0.0
C654 C 0.02264 0.0886 0.89169 0.0
C655 C 0.05526 0.11695 0.89096 0.0
C656 C 0.02967 0.04957 0.89838 0.0
C657 C 0.06965 0.03784 0.90432 0.0
C658 C 0.10186 0.06709 0.90426 0.0
C659 C 0.09469 0.10625 0.89761 0.0
H660 H 0.14837 0.1707 0.00405 0.0
H661 H 0.26482 0.18204 0.98332 0.0
H662 H 0.11215 0.16493 0.97857 0.0
H663 H 0.22846 0.17912 0.95792 0.0
H664 H 0.16292 0.17087 0.91274 0.0
H665 H 0.18927 0.14428 0.93785 0.0
H666 H 0.09465 0.21454 0.95927 0.0
H667 H 0.06731 0.23869 0.93408 0.0
C668 C 0.1664 0.1713 0.99409 0.0
C669 C 0.20953 0.17752 0.99577 0.0
C670 C 0.14552 0.16842 0.97944 0.0
C671 C 0.16717 0.17208 0.96612 0.0
C672 C 0.2106 0.17576 0.96784 0.0
C673 C 0.23149 0.17823 0.98247 0.0
C674 C 0.14631 0.17833 0.92274 0.0
C675 C 0.11246 0.20579 0.92151 0.0
C676 C 0.16194 0.16395 0.93718 0.0
C677 C 0.1446 0.17777 0.95068 0.0
C678 C 0.10863 0.20272 0.94921 0.0
C679 C 0.09285 0.21666 0.93476 0.0
H680 H 0.121 0.81558 0.23967 0.0
H681 H 0.00996 0.74175 0.23879 0.0
H682 H 0.12228 0.80692 0.21177 0.0
H683 H 0.01167 0.73227 0.21084 0.0
H684 H 0.10876 0.7953 0.16047 0.0
H685 H 0.08049 0.81819 0.18452 0.0
H686 H 0.07138 0.69019 0.19842 0.0
H687 H 0.10045 0.66756 0.17468 0.0
C688 C 0.09635 0.79836 0.2334 0.0
C689 C 0.06552 0.77914 0.24127 0.0
C690 C 0.09686 0.79367 0.21746 0.0
C691 C 0.06701 0.76899 0.2092 0.0
C692 C 0.03487 0.75159 0.21697 0.0
C693 C 0.0339 0.75701 0.2329 0.0
C694 C 0.0994 0.77216 0.16847 0.0
C695 C 0.10693 0.72975 0.16588 0.0
C696 C 0.08339 0.78521 0.18219 0.0
C697 C 0.07395 0.75592 0.19329 0.0
C698 C 0.07805 0.71337 0.19 0.0
C699 C 0.09486 0.70042 0.17648 0.0
H700 H 0.72759 0.6256 0.49083 0.0
H701 H 0.63391 0.71825 0.4981 0.0
H702 H 0.69894 0.61643 0.46421 0.0
H703 H 0.60572 0.70963 0.47151 0.0
H704 H 0.5584 0.69367 0.4238 0.0
H705 H 0.57321 0.66622 0.44991 0.0
H706 H 0.70426 0.66829 0.44352 0.0
H707 H 0.68926 0.69586 0.41773 0.0
C708 C 0.70018 0.64314 0.48687 0.0
C709 C 0.68336 0.67315 0.49644 0.0
C710 C 0.68386 0.63795 0.47162 0.0
C711 C 0.65025 0.66247 0.46572 0.0
C712 C 0.63135 0.68994 0.47572 0.0
C713 C 0.64783 0.69532 0.4909 0.0
C714 C 0.59012 0.6863 0.4278 0.0
C715 C 0.6228 0.69686 0.41893 0.0
C716 C 0.59865 0.67097 0.44275 0.0
C717 C 0.63993 0.66569 0.44885 0.0
C718 C 0.67215 0.67171 0.43917 0.0
C719 C 0.66364 0.68756 0.4244 0.0
H720 H 0.55148 0.16676 0.7417 0.0
H721 H 0.59667 0.2919 0.74944 0.0
H722 H 0.56696 0.17094 0.71474 0.0
H723 H 0.61092 0.29646 0.72243 0.0
H724 H 0.58607 0.19762 0.6645 0.0
H725 H 0.55347 0.20564 0.68892 0.0
H726 H 0.66651 0.25962 0.70973 0.0
H727 H 0.69832 0.25231 0.68544 0.0
C728 C 0.56399 0.1954 0.73757 0.0
C729 C 0.57345 0.22875 0.74774 0.0
C730 C 0.57238 0.19797 0.7221 0.0
C731 C 0.59054 0.23388 0.71654 0.0
C732 C 0.59734 0.26822 0.72646 0.0
C733 C 0.58888 0.2657 0.7419 0.0
C734 C 0.60334 0.21213 0.67423 0.0
C735 C 0.64447 0.22466 0.67314 0.0
C736 C 0.58492 0.21638 0.68819 0.0
C737 C 0.60739 0.23347 0.7012 0.0
C738 C 0.64813 0.24702 0.69986 0.0
C739 C 0.66651 0.24245 0.68602 0.0
H740 H 0.19498 0.71313 0.99706 0.0
H741 H 0.09538 0.62491 0.98933 0.0
H742 H 0.1969 0.70057 0.02466 0.0
H743 H 0.09763 0.6118 0.01705 0.0
H744 H 0.06984 0.6794 0.06438 0.0
H745 H 0.07614 0.65906 0.03767 0.0
H746 H 0.2092 0.65174 0.04651 0.0
H747 H 0.2026 0.67285 0.07326 0.0
C748 C 0.17398 0.6905 0.00127 0.0
C749 C 0.14465 0.67046 0.99109 0.0
C750 C 0.17545 0.68283 0.01706 0.0
C751 C 0.14739 0.65515 0.02305 0.0
C752 C 0.11955 0.63336 0.01277 0.0
C753 C 0.11834 0.64079 0.99692 0.0
C754 C 0.10022 0.67149 0.06077 0.0
C755 C 0.13572 0.67738 0.07084 0.0
C756 C 0.1039 0.65981 0.04546 0.0
C757 C 0.14325 0.65443 0.03992 0.0
C758 C 0.17851 0.6561 0.05044 0.0
C759 C 0.17474 0.6675 0.06581 0.0
H760 H 0.63107 0.87089 0.25753 0.0
H761 H 0.71888 0.77211 0.25083 0.0
H762 H 0.62471 0.84761 0.28383 0.0
H763 H 0.71276 0.74882 0.27732 0.0
H764 H 0.62693 0.69044 0.31367 0.0
H765 H 0.65363 0.71588 0.29001 0.0
H766 H 0.66333 0.83939 0.30968 0.0
H767 H 0.63591 0.81409 0.33321 0.0
C768 C 0.6493 0.84441 0.26176 0.0
C769 C 0.67515 0.82306 0.25212 0.0
C770 C 0.64605 0.83136 0.27687 0.0
C771 C 0.66831 0.79642 0.28264 0.0
C772 C 0.69516 0.77576 0.27315 0.0
C773 C 0.69879 0.78917 0.25805 0.0
C774 C 0.63577 0.72279 0.31306 0.0
C775 C 0.62945 0.75026 0.32527 0.0
C776 C 0.65125 0.73732 0.29955 0.0
C777 C 0.66021 0.7797 0.29795 0.0
C778 C 0.65632 0.80664 0.31055 0.0
C779 C 0.64105 0.79206 0.32408 0.0
H780 H 0.70624 0.16026 0.4939 0.0
H781 H 0.57864 0.19803 0.49644 0.0
H782 H 0.7118 0.1464 0.52154 0.0
H783 H 0.58468 0.18638 0.52398 0.0
H784 H 0.59242 0.15751 0.57225 0.0
H785 H 0.59206 0.13975 0.5449 0.0
H786 H 0.71599 0.18895 0.5442 0.0
H787 H 0.71658 0.20464 0.57166 0.0
C788 C 0.67924 0.16514 0.50031 0.0
C789 C 0.64216 0.18086 0.493 0.0
C790 C 0.68252 0.15748 0.51618 0.0
C791 C 0.64878 0.16535 0.52507 0.0
C792 C 0.61121 0.17929 0.51756 0.0
C793 C 0.60791 0.18677 0.50175 0.0
C794 C 0.6202 0.16252 0.56633 0.0
C795 C 0.65461 0.18208 0.57393 0.0
C796 C 0.61987 0.15299 0.55064 0.0
C797 C 0.65356 0.16396 0.54222 0.0
C798 C 0.68954 0.17986 0.55027 0.0
C799 C 0.69002 0.18883 0.56602 0.0
H800 H 0.22452 0.32764 0.76244 0.0
H801 H 0.11543 0.26272 0.7435 0.0
H802 H 0.21249 0.30203 0.78809 0.0
H803 H 0.10382 0.23693 0.76895 0.0
H804 H 0.10524 0.17212 0.8138 0.0
H805 H 0.13209 0.19065 0.78936 0.0
H806 H 0.16041 0.31385 0.80708 0.0
H807 H 0.13355 0.29528 0.83152 0.0
C808 C 0.19806 0.30787 0.76372 0.0
C809 C 0.17093 0.29727 0.75088 0.0
C810 C 0.19126 0.29312 0.77841 0.0
C811 C 0.15734 0.26729 0.78055 0.0
C812 C 0.13076 0.25607 0.76767 0.0
C813 C 0.13742 0.27089 0.75304 0.0
C814 C 0.11794 0.20291 0.81257 0.0
C815 C 0.11727 0.23223 0.82458 0.0
C816 C 0.13313 0.21358 0.79855 0.0
C817 C 0.14783 0.2539 0.7962 0.0
C818 C 0.14957 0.28244 0.80855 0.0
C819 C 0.13427 0.27176 0.82259 0.0
loop_
_geom_bond_atom_site_label_1
_geom_bond_atom_site_label_2
_geom_bond_distance
_geom_bond_site_symmetry_2
_ccdc_geom_bond_type
P0 O11 1.490 . S
P0 C14 1.812 . S
P0 C20 1.803 . S
P0 C26 1.819 . S
H1 C15 0.941 . S
H2 C16 0.939 . S
H3 C18 0.940 . S
H4 C19 0.940 . S
H5 C21 0.939 . S
H6 C22 0.942 . S
H7 C24 0.940 . S
H8 C25 0.939 . S
H9 C27 0.941 . S
H10 C31 0.939 . S
O11 P0 1.490 . S
H12 C28 0.939 . S
H13 C30 0.940 . S
C14 P0 1.812 . S
C14 C15 1.389 . S
C14 C19 1.391 . S
C15 H1 0.941 . S
C15 C14 1.389 . S
C15 C16 1.397 . S
C16 H2 0.939 . S
C16 C15 1.397 . S
C16 C17 1.378 . S
C17 C16 1.378 . S
C17 C18 1.378 . S
C18 H3 0.940 . S
C18 C17 1.378 . S
C18 C19 1.396 . S
C19 H4 0.940 . S
C19 C14 1.391 . S
C19 C18 1.396 . S
C20 P0 1.803 . S
C20 C21 1.378 . S
C20 C25 1.400 . S
C21 H5 0.939 . S
C21 C20 1.378 . S
C21 C22 1.361 . S
C22 H6 0.942 . S
C22 C21 1.361 . S
C22 C23 1.369 . S
C23 C22 1.369 . S
C23 C24 1.404 . S
C24 H7 0.940 . S
C24 C23 1.404 . S
C24 C25 1.389 . S
C25 H8 0.939 . S
C25 C20 1.400 . S
C25 C24 1.389 . S
C26 P0 1.819 . S
C26 C27 1.391 . S
C26 C31 1.391 . S
C27 H9 0.941 . S
C27 C26 1.391 . S
C27 C28 1.396 . S
C28 H12 0.939 . S
C28 C27 1.396 . S
C28 C29 1.397 . S
C29 C28 1.397 . S
C29 C30 1.385 . S
C30 H13 0.940 . S
C30 C29 1.385 . S
C30 C31 1.388 . S
C31 H10 0.939 . S
C31 C26 1.391 . S
C31 C30 1.388 . S
P32 O43 1.490 . S
P32 C46 1.812 . S
P32 C52 1.803 . S
P32 C58 1.819 . S
H33 C47 0.941 . S
H34 C48 0.939 . S
H35 C50 0.940 . S
H36 C51 0.940 . S
H37 C53 0.939 . S
H38 C54 0.942 1_655 S
H39 C56 0.940 . S
H40 C57 0.939 . S
H41 C59 0.941 . S
H42 C63 0.939 . S
O43 P32 1.490 . S
H44 C60 0.939 . S
H45 C62 0.940 . S
C46 P32 1.812 . S
C46 C47 1.389 . S
C46 C51 1.391 . S
C47 H33 0.941 . S
C47 C46 1.389 . S
C47 C48 1.397 . S
C48 H34 0.939 . S
C48 C47 1.397 . S
C48 C49 1.378 . S
C49 C48 1.378 . S
C49 C50 1.378 . S
C50 H35 0.940 . S
C50 C49 1.378 . S
C50 C51 1.396 . S
C51 H36 0.940 . S
C51 C46 1.391 . S
C51 C50 1.396 . S
C52 P32 1.803 . S
C52 C53 1.378 . S
C52 C57 1.400 . S
C53 H37 0.939 . S
C53 C52 1.378 . S
C53 C54 1.361 . S
C54 H38 0.942 1_455 S
C54 C53 1.361 . S
C54 C55 1.370 . S
C55 C54 1.370 . S
C55 C56 1.418 . S
C56 H39 0.940 . S
C56 C55 1.418 . S
C56 C57 1.389 . S
C57 H40 0.939 . S
C57 C52 1.400 . S
C57 C56 1.389 . S
C58 P32 1.819 . S
C58 C59 1.391 . S
C58 C63 1.391 . S
C59 H41 0.941 . S
C59 C58 1.391 . S
C59 C60 1.396 . S
C60 H44 0.939 . S
C60 C59 1.396 . S
C60 C61 1.397 . S
C61 C60 1.397 . S
C61 C62 1.385 . S
C62 H45 0.940 . S
C62 C61 1.385 . S
C62 C63 1.388 . S
C63 H42 0.939 . S
C63 C58 1.391 . S
C63 C62 1.388 . S
P64 O75 1.490 . S
P64 C78 1.812 . S
P64 C84 1.803 . S
P64 C90 1.819 . S
H65 C79 0.941 . S
H66 C80 0.939 . S
H67 C82 0.940 . S
H68 C83 0.940 . S
H69 C85 0.939 . S
H70 C86 0.942 . S
H71 C88 0.940 . S
H72 C89 0.939 . S
H73 C91 0.941 . S
H74 C95 0.939 . S
O75 P64 1.490 . S
H76 C92 0.939 . S
H77 C94 0.940 . S
C78 P64 1.812 . S
C78 C79 1.389 . S
C78 C83 1.391 . S
C79 H65 0.941 . S
C79 C78 1.389 . S
C79 C80 1.397 . S
C80 H66 0.939 . S
C80 C79 1.397 . S
C80 C81 1.378 . S
C81 C80 1.378 . S
C81 C82 1.378 . S
C82 H67 0.940 . S
C82 C81 1.378 . S
C82 C83 1.396 . S
C83 H68 0.940 . S
C83 C78 1.391 . S
C83 C82 1.396 . S
C84 P64 1.803 . S
C84 C85 1.378 . S
C84 C89 1.400 . S
C85 H69 0.939 . S
C85 C84 1.378 . S
C85 C86 1.361 . S
C86 H70 0.942 . S
C86 C85 1.361 . S
C86 C87 1.369 . S
C87 C86 1.369 . S
C87 C88 1.404 . S
C88 H71 0.940 . S
C88 C87 1.404 . S
C88 C89 1.389 . S
C89 H72 0.939 . S
C89 C84 1.400 . S
C89 C88 1.389 . S
C90 P64 1.819 . S
C90 C91 1.391 . S
C90 C95 1.391 . S
C91 H73 0.941 . S
C91 C90 1.391 . S
C91 C92 1.396 . S
C92 H76 0.939 . S
C92 C91 1.396 . S
C92 C93 1.397 . S
C93 C92 1.397 . S
C93 C94 1.385 . S
C94 H77 0.940 . S
C94 C93 1.385 . S
C94 C95 1.388 . S
C95 H74 0.939 . S
C95 C90 1.391 . S
C95 C94 1.388 . S
P96 O107 1.490 . S
P96 C110 1.812 . S
P96 C116 1.803 . S
P96 C122 1.819 . S
H97 C111 0.941 . S
H98 C112 0.939 . S
H99 C114 0.940 . S
H100 C115 0.940 . S
H101 C117 0.939 . S
H102 C118 0.942 . S
H103 C120 0.940 . S
H104 C121 0.939 . S
H105 C123 0.941 . S
H106 C127 0.939 . S
O107 P96 1.490 . S
H108 C124 0.939 . S
H109 C126 0.940 . S
C110 P96 1.812 . S
C110 C111 1.389 . S
C110 C115 1.391 . S
C111 H97 0.941 . S
C111 C110 1.389 . S
C111 C112 1.397 . S
C112 H98 0.939 . S
C112 C111 1.397 . S
C112 C113 1.378 . S
C113 C112 1.378 . S
C113 C114 1.378 . S
C114 H99 0.940 . S
C114 C113 1.378 . S
C114 C115 1.396 . S
C115 H100 0.940 . S
C115 C110 1.391 . S
C115 C114 1.396 . S
C116 P96 1.803 . S
C116 C117 1.378 . S
C116 C121 1.400 . S
C117 H101 0.939 . S
C117 C116 1.378 . S
C117 C118 1.361 . S
C118 H102 0.942 . S
C118 C117 1.361 . S
C118 C119 1.369 . S
C119 C118 1.369 . S
C119 C120 1.404 . S
C120 H103 0.940 . S
C120 C119 1.404 . S
C120 C121 1.389 . S
C121 H104 0.939 . S
C121 C116 1.400 . S
C121 C120 1.389 . S
C122 P96 1.819 . S
C122 C123 1.391 . S
C122 C127 1.391 . S
C123 H105 0.941 . S
C123 C122 1.391 . S
C123 C124 1.396 . S
C124 H108 0.939 . S
C124 C123 1.396 . S
C124 C125 1.397 . S
C125 C124 1.397 . S
C125 C126 1.385 . S
C126 H109 0.940 . S
C126 C125 1.385 . S
C126 C127 1.388 . S
C127 H106 0.939 . S
C127 C122 1.391 . S
C127 C126 1.388 . S
P128 O139 1.490 . S
P128 C142 1.812 . S
P128 C148 1.803 . S
P128 C154 1.819 . S
H129 C143 0.941 . S
H130 C144 0.939 . S
H131 C146 0.940 . S
H132 C147 0.940 . S
H133 C149 0.939 . S
H134 C150 0.942 . S
H135 C152 0.940 . S
H136 C153 0.939 . S
H137 C155 0.941 . S
H138 C159 0.939 . S
O139 P128 1.490 . S
H140 C156 0.939 . S
H141 C158 0.940 . S
C142 P128 1.812 . S
C142 C143 1.389 . S
C142 C147 1.391 . S
C143 H129 0.941 . S
C143 C142 1.389 . S
C143 C144 1.397 . S
C144 H130 0.939 . S
C144 C143 1.397 . S
C144 C145 1.378 . S
C145 C144 1.378 . S
C145 C146 1.378 . S
C146 H131 0.940 . S
C146 C145 1.378 . S
C146 C147 1.396 . S
C147 H132 0.940 . S
C147 C142 1.391 . S
C147 C146 1.396 . S
C148 P128 1.803 . S
C148 C149 1.378 . S
C148 C153 1.400 . S
C149 H133 0.939 . S
C149 C148 1.378 . S
C149 C150 1.361 . S
C150 H134 0.942 . S
C150 C149 1.361 . S
C150 C151 1.369 . S
C151 C150 1.369 . S
C151 C152 1.404 . S
C152 H135 0.940 . S
C152 C151 1.404 . S
C152 C153 1.389 . S
C153 H136 0.939 . S
C153 C148 1.400 . S
C153 C152 1.389 . S
C154 P128 1.819 . S
C154 C155 1.391 . S
C154 C159 1.391 . S
C155 H137 0.941 . S
C155 C154 1.391 . S
C155 C156 1.396 . S
C156 H140 0.939 . S
C156 C155 1.396 . S
C156 C157 1.397 . S
C157 C156 1.397 . S
C157 C158 1.385 . S
C158 H141 0.940 . S
C158 C157 1.385 . S
C158 C159 1.388 . S
C159 H138 0.939 . S
C159 C154 1.391 . S
C159 C158 1.388 . S
P160 O171 1.490 . S
P160 C174 1.812 . S
P160 C180 1.803 . S
P160 C186 1.819 . S
H161 C175 0.941 . S
H162 C176 0.939 . S
H163 C178 0.940 . S
H164 C179 0.940 . S
H165 C181 0.939 . S
H166 C182 0.942 . S
H167 C184 0.940 . S
H168 C185 0.939 . S
H169 C187 0.941 . S
H170 C191 0.939 . S
O171 P160 1.490 . S
H172 C188 0.939 . S
H173 C190 0.940 . S
C174 P160 1.812 . S
C174 C175 1.389 . S
C174 C179 1.391 . S
C175 H161 0.941 . S
C175 C174 1.389 . S
C175 C176 1.397 . S
C176 H162 0.939 . S
C176 C175 1.397 . S
C176 C177 1.378 . S
C177 C176 1.378 . S
C177 C178 1.378 . S
C178 H163 0.940 . S
C178 C177 1.378 . S
C178 C179 1.396 . S
C179 H164 0.940 . S
C179 C174 1.391 . S
C179 C178 1.396 . S
C180 P160 1.803 . S
C180 C181 1.378 . S
C180 C185 1.400 . S
C181 H165 0.939 . S
C181 C180 1.378 . S
C181 C182 1.361 . S
C182 H166 0.942 . S
C182 C181 1.361 . S
C182 C183 1.369 . S
C183 C182 1.369 . S
C183 C184 1.404 . S
C184 H167 0.940 . S
C184 C183 1.404 . S
C184 C185 1.389 . S
C185 H168 0.939 . S
C185 C180 1.400 . S
C185 C184 1.389 . S
C186 P160 1.819 . S
C186 C187 1.391 . S
C186 C191 1.391 . S
C187 H169 0.941 . S
C187 C186 1.391 . S
C187 C188 1.396 . S
C188 H172 0.939 . S
C188 C187 1.396 . S
C188 C189 1.397 . S
C189 C188 1.397 . S
C189 C190 1.385 . S
C190 H173 0.940 . S
C190 C189 1.385 . S
C190 C191 1.388 . S
C191 H170 0.939 . S
C191 C186 1.391 . S
C191 C190 1.388 . S
P192 O203 1.490 . S
P192 C206 1.812 . S
P192 C212 1.803 . S
P192 C218 1.819 . S
H193 C207 0.941 . S
H194 C208 0.939 . S
H195 C210 0.940 . S
H196 C211 0.940 . S
H197 C213 0.939 . S
H198 C214 0.942 . S
H199 C216 0.940 . S
H200 C217 0.939 . S
H201 C219 0.941 . S
H202 C223 0.939 . S
O203 P192 1.490 . S
H204 C220 0.939 . S
H205 C222 0.940 . S
C206 P192 1.812 . S
C206 C207 1.389 . S
C206 C211 1.391 . S
C207 H193 0.941 . S
C207 C206 1.389 . S
C207 C208 1.397 . S
C208 H194 0.939 . S
C208 C207 1.397 . S
C208 C209 1.378 . S
C209 C208 1.378 . S
C209 C210 1.378 . S
C210 H195 0.940 . S
C210 C209 1.378 . S
C210 C211 1.396 . S
C211 H196 0.940 . S
C211 C206 1.391 . S
C211 C210 1.396 . S
C212 P192 1.803 . S
C212 C213 1.378 . S
C212 C217 1.400 . S
C213 H197 0.939 . S
C213 C212 1.378 . S
C213 C214 1.361 . S
C214 H198 0.942 . S
C214 C213 1.361 . S
C214 C215 1.369 . S
C215 C214 1.369 . S
C215 C216 1.404 . S
C216 H199 0.940 . S
C216 C215 1.404 . S
C216 C217 1.389 . S
C217 H200 0.939 . S
C217 C212 1.400 . S
C217 C216 1.389 . S
C218 P192 1.819 . S
C218 C219 1.391 . S
C218 C223 1.391 . S
C219 H201 0.941 . S
C219 C218 1.391 . S
C219 C220 1.396 . S
C220 H204 0.939 . S
C220 C219 1.396 . S
C220 C221 1.397 . S
C221 C220 1.397 . S
C221 C222 1.385 . S
C222 H205 0.940 . S
C222 C221 1.385 . S
C222 C223 1.388 . S
C223 H202 0.939 . S
C223 C218 1.391 . S
C223 C222 1.388 . S
P224 O235 1.490 . S
P224 C238 1.812 . S
P224 C244 1.803 . S
P224 C250 1.819 . S
H225 C239 0.941 . S
H226 C240 0.939 . S
H227 C242 0.940 . S
H228 C243 0.940 . S
H229 C245 0.939 . S
H230 C246 0.942 1_655 S
H231 C248 0.940 . S
H232 C249 0.939 . S
H233 C251 0.941 . S
H234 C255 0.939 . S
O235 P224 1.490 . S
H236 C252 0.939 . S
H237 C254 0.940 . S
C238 P224 1.812 . S
C238 C239 1.389 . S
C238 C243 1.391 . S
C239 H225 0.941 . S
C239 C238 1.389 . S
C239 C240 1.397 . S
C240 H226 0.939 . S
C240 C239 1.397 . S
C240 C241 1.378 . S
C241 C240 1.378 . S
C241 C242 1.378 . S
C242 H227 0.940 . S
C242 C241 1.378 . S
C242 C243 1.396 . S
C243 H228 0.940 . S
C243 C238 1.391 . S
C243 C242 1.396 . S
C244 P224 1.803 . S
C244 C245 1.378 . S
C244 C249 1.400 . S
C245 H229 0.939 . S
C245 C244 1.378 . S
C245 C246 1.361 . S
C246 H230 0.942 1_455 S
C246 C245 1.361 . S
C246 C247 1.369 . S
C247 C246 1.369 . S
C247 C248 1.404 . S
C248 H231 0.940 . S
C248 C247 1.404 . S
C248 C249 1.389 . S
C249 H232 0.939 . S
C249 C244 1.400 . S
C249 C248 1.389 . S
C250 P224 1.819 . S
C250 C251 1.391 . S
C250 C255 1.391 . S
C251 H233 0.941 . S
C251 C250 1.391 . S
C251 C252 1.396 . S
C252 H236 0.939 . S
C252 C251 1.396 . S
C252 C253 1.397 . S
C253 C252 1.397 . S
C253 C254 1.385 . S
C254 H237 0.940 . S
C254 C253 1.385 . S
C254 C255 1.388 . S
C255 H234 0.939 . S
C255 C250 1.391 . S
C255 C254 1.388 . S
Zn256 O262 1.920 . S
Zn256 O268 1.898 . S
Zn256 O271 1.905 . S
Zn257 O265 1.905 . S
Zn257 O266 1.898 . S
Zn257 O274 1.920 . S
Zn258 O261 2.080 . S
Zn258 O264 2.114 . S
Zn258 O267 2.120 . S
Zn258 O269 2.120 . S
Zn258 O270 2.114 . S
Zn258 O273 2.080 . S
C259 O264 1.166 . S
C259 O265 1.182 . S
C260 O266 1.167 . S
C260 O267 1.299 . S
O261 Zn258 2.080 . S
O261 C275 1.305 . S
O262 Zn256 1.920 . S
O262 C275 1.234 . S
C263 O268 1.167 . S
C263 O269 1.299 . S
O264 Zn258 2.114 . S
O264 C259 1.166 . S
O265 Zn257 1.905 . S
O265 C259 1.182 . S
O266 Zn257 1.898 . S
O266 C260 1.167 . S
O267 Zn258 2.120 . S
O267 C260 1.299 . S
O268 Zn256 1.898 . S
O268 C263 1.167 . S
O269 Zn258 2.120 . S
O269 C263 1.299 . S
O270 Zn258 2.114 . S
O270 C272 1.166 . S
O271 Zn256 1.905 . S
O271 C272 1.182 . S
C272 O270 1.166 . S
C272 O271 1.182 . S
O273 Zn258 2.080 . S
O273 C276 1.305 . S
O274 Zn257 1.920 . S
O274 C276 1.234 . S
C275 O261 1.305 . S
C275 O262 1.234 . S
C276 O273 1.305 . S
C276 O274 1.234 . S
Zn277 O283 1.920 . S
Zn277 O289 1.898 . S
Zn277 O292 1.905 . S
Zn278 O286 1.905 . S
Zn278 O287 1.898 . S
Zn278 O295 1.920 . S
Zn279 O282 2.080 . S
Zn279 O285 2.114 . S
Zn279 O288 2.120 . S
Zn279 O290 2.120 . S
Zn279 O291 2.114 . S
Zn279 O294 2.080 . S
C280 O285 1.166 . S
C280 O286 1.182 . S
C281 O287 1.167 . S
C281 O288 1.299 . S
O282 Zn279 2.080 . S
O282 C296 1.305 . S
O283 Zn277 1.920 . S
O283 C296 1.234 . S
C284 O289 1.167 . S
C284 O290 1.299 . S
O285 Zn279 2.114 . S
O285 C280 1.166 . S
O286 Zn278 1.905 . S
O286 C280 1.182 . S
O287 Zn278 1.898 . S
O287 C281 1.167 . S
O288 Zn279 2.120 . S
O288 C281 1.299 . S
O289 Zn277 1.898 . S
O289 C284 1.167 . S
O290 Zn279 2.120 . S
O290 C284 1.299 . S
O291 Zn279 2.114 . S
O291 C293 1.166 . S
O292 Zn277 1.905 . S
O292 C293 1.182 . S
C293 O291 1.166 . S
C293 O292 1.182 . S
O294 Zn279 2.080 . S
O294 C297 1.305 . S
O295 Zn278 1.920 . S
O295 C297 1.234 . S
C296 O282 1.305 . S
C296 O283 1.234 . S
C297 O294 1.305 . S
C297 O295 1.234 . S
Zn298 O304 1.920 . S
Zn298 O310 1.898 . S
Zn298 O313 1.905 . S
Zn299 O307 1.905 . S
Zn299 O308 1.898 . S
Zn299 O316 1.920 . S
Zn300 O303 2.080 . S
Zn300 O306 2.114 . S
Zn300 O309 2.120 . S
Zn300 O311 2.120 . S
Zn300 O312 2.114 . S
Zn300 O315 2.080 . S
C301 O306 1.166 . S
C301 O307 1.182 . S
C302 O308 1.167 . S
C302 O309 1.299 . S
O303 Zn300 2.080 . S
O303 C317 1.305 . S
O304 Zn298 1.920 . S
O304 C317 1.234 . S
C305 O310 1.167 . S
C305 O311 1.299 . S
O306 Zn300 2.114 . S
O306 C301 1.166 . S
O307 Zn299 1.905 . S
O307 C301 1.182 . S
O308 Zn299 1.898 . S
O308 C302 1.167 . S
O309 Zn300 2.120 . S
O309 C302 1.299 . S
O310 Zn298 1.898 . S
O310 C305 1.167 . S
O311 Zn300 2.120 . S
O311 C305 1.299 . S
O312 Zn300 2.114 . S
O312 C314 1.166 . S
O313 Zn298 1.905 . S
O313 C314 1.182 . S
C314 O312 1.166 . S
C314 O313 1.182 . S
O315 Zn300 2.080 . S
O315 C318 1.305 . S
O316 Zn299 1.920 . S
O316 C318 1.234 . S
C317 O303 1.305 . S
C317 O304 1.234 . S
C318 O315 1.305 . S
C318 O316 1.234 . S
Zn319 O325 1.920 . S
Zn319 O331 1.898 . S
Zn319 O334 1.905 . S
Zn320 O328 1.905 . S
Zn320 O329 1.898 . S
Zn320 O337 1.920 . S
Zn321 O324 2.080 . S
Zn321 O327 2.114 . S
Zn321 O330 2.120 . S
Zn321 O332 2.120 . S
Zn321 O333 2.114 . S
Zn321 O336 2.080 . S
C322 O327 1.166 . S
C322 O328 1.182 . S
C323 O329 1.167 . S
C323 O330 1.299 . S
O324 Zn321 2.080 . S
O324 C338 1.305 . S
O325 Zn319 1.920 . S
O325 C338 1.234 . S
C326 O331 1.167 . S
C326 O332 1.299 . S
O327 Zn321 2.114 . S
O327 C322 1.166 . S
O328 Zn320 1.905 . S
O328 C322 1.182 . S
O329 Zn320 1.898 . S
O329 C323 1.167 . S
O330 Zn321 2.120 . S
O330 C323 1.299 . S
O331 Zn319 1.898 . S
O331 C326 1.167 . S
O332 Zn321 2.120 . S
O332 C326 1.299 . S
O333 Zn321 2.114 . S
O333 C335 1.166 . S
O334 Zn319 1.905 . S
O334 C335 1.182 . S
C335 O333 1.166 . S
C335 O334 1.182 . S
O336 Zn321 2.080 . S
O336 C339 1.305 . S
O337 Zn320 1.920 . S
O337 C339 1.234 . S
C338 O324 1.305 . S
C338 O325 1.234 . S
C339 O336 1.305 . S
C339 O337 1.234 . S
H340 C348 0.950 . S
H341 C353 0.950 . S
H342 C350 0.950 . S
H343 C352 0.950 . S
H344 C354 0.950 . S
H345 C356 0.950 . S
H346 C358 0.950 . S
H347 C359 0.950 . S
C348 H340 0.950 . S
C348 C349 1.386 . S
C348 C350 1.391 . S
C349 C348 1.386 . S
C349 C353 1.393 . S
C350 H342 0.950 . S
C350 C348 1.391 . S
C350 C351 1.400 . S
C351 C350 1.400 . S
C351 C352 1.398 . S
C351 C357 1.491 . S
C352 H343 0.950 . S
C352 C351 1.398 . S
C352 C353 1.391 . S
C353 H341 0.950 . S
C353 C349 1.393 . S
C353 C352 1.391 . S
C354 H344 0.950 . S
C354 C355 1.386 . S
C354 C356 1.391 . S
C355 C354 1.386 . S
C355 C359 1.393 . S
C356 H345 0.950 . S
C356 C354 1.391 . S
C356 C357 1.400 . S
C357 C351 1.491 . S
C357 C356 1.400 . S
C357 C358 1.398 . S
C358 H346 0.950 . S
C358 C357 1.398 . S
C358 C359 1.391 . S
C359 H347 0.950 . S
C359 C355 1.393 . S
C359 C358 1.391 . S
H360 C368 0.950 . S
H361 C373 0.950 . S
H362 C370 0.950 . S
H363 C372 0.950 . S
H364 C374 0.950 . S
H365 C376 0.950 . S
H366 C378 0.950 . S
H367 C379 0.950 . S
C368 H360 0.950 . S
C368 C369 1.386 . S
C368 C370 1.391 . S
C369 C368 1.386 . S
C369 C373 1.393 . S
C370 H362 0.950 . S
C370 C368 1.391 . S
C370 C371 1.400 . S
C371 C370 1.400 . S
C371 C372 1.398 . S
C371 C377 1.491 . S
C372 H363 0.950 . S
C372 C371 1.398 . S
C372 C373 1.391 . S
C373 H361 0.950 . S
C373 C369 1.393 . S
C373 C372 1.391 . S
C374 H364 0.950 . S
C374 C375 1.386 . S
C374 C376 1.391 . S
C375 C374 1.386 . S
C375 C379 1.393 . S
C376 H365 0.950 . S
C376 C374 1.391 . S
C376 C377 1.400 . S
C377 C371 1.491 . S
C377 C376 1.400 . S
C377 C378 1.398 . S
C378 H366 0.950 . S
C378 C377 1.398 . S
C378 C379 1.391 . S
C379 H367 0.950 . S
C379 C375 1.393 . S
C379 C378 1.391 . S
H380 C388 0.950 . S
H381 C393 0.950 . S
H382 C390 0.950 . S
H383 C392 0.950 . S
H384 C394 0.950 . S
H385 C396 0.950 . S
H386 C398 0.950 . S
H387 C399 0.950 . S
C388 H380 0.950 . S
C388 C389 1.386 . S
C388 C390 1.391 . S
C389 C388 1.386 . S
C389 C393 1.393 . S
C390 H382 0.950 . S
C390 C388 1.391 . S
C390 C391 1.400 . S
C391 C390 1.400 . S
C391 C392 1.398 . S
C391 C397 1.491 . S
C392 H383 0.950 . S
C392 C391 1.398 . S
C392 C393 1.391 . S
C393 H381 0.950 . S
C393 C389 1.393 . S
C393 C392 1.391 . S
C394 H384 0.950 . S
C394 C395 1.386 . S
C394 C396 1.391 . S
C395 C394 1.386 . S
C395 C399 1.393 . S
C396 H385 0.950 . S
C396 C394 1.391 . S
C396 C397 1.400 . S
C397 C391 1.491 . S
C397 C396 1.400 . S
C397 C398 1.398 . S
C398 H386 0.950 . S
C398 C397 1.398 . S
C398 C399 1.391 . S
C399 H387 0.950 . S
C399 C395 1.393 . S
C399 C398 1.391 . S
H400 C408 0.950 . S
H401 C413 0.950 . S
H402 C410 0.950 . S
H403 C412 0.950 . S
H404 C414 0.950 . S
H405 C416 0.950 . S
H406 C418 0.950 . S
H407 C419 0.950 . S
C408 H400 0.950 . S
C408 C409 1.386 . S
C408 C410 1.391 . S
C409 C408 1.386 . S
C409 C413 1.393 . S
C410 H402 0.950 . S
C410 C408 1.391 . S
C410 C411 1.400 . S
C411 C410 1.400 . S
C411 C412 1.398 . S
C411 C417 1.491 . S
C412 H403 0.950 . S
C412 C411 1.398 . S
C412 C413 1.391 . S
C413 H401 0.950 . S
C413 C409 1.393 . S
C413 C412 1.391 . S
C414 H404 0.950 . S
C414 C415 1.386 . S
C414 C416 1.391 . S
C415 C414 1.386 . S
C415 C419 1.393 . S
C416 H405 0.950 . S
C416 C414 1.391 . S
C416 C417 1.400 . S
C417 C411 1.491 . S
C417 C416 1.400 . S
C417 C418 1.398 . S
C418 H406 0.950 . S
C418 C417 1.398 . S
C418 C419 1.391 . S
C419 H407 0.950 . S
C419 C415 1.393 . S
C419 C418 1.391 . S
H420 C428 0.950 . S
H421 C433 0.950 . S
H422 C430 0.950 . S
H423 C432 0.950 . S
H424 C434 0.950 . S
H425 C436 0.950 . S
H426 C438 0.950 . S
H427 C439 0.950 . S
C428 H420 0.950 . S
C428 C429 1.386 . S
C428 C430 1.391 . S
C429 C428 1.386 . S
C429 C433 1.393 . S
C430 H422 0.950 . S
C430 C428 1.391 . S
C430 C431 1.400 . S
C431 C430 1.400 . S
C431 C432 1.398 . S
C431 C437 1.491 . S
C432 H423 0.950 . S
C432 C431 1.398 . S
C432 C433 1.391 . S
C433 H421 0.950 . S
C433 C429 1.393 . S
C433 C432 1.391 . S
C434 H424 0.950 . S
C434 C435 1.386 . S
C434 C436 1.391 . S
C435 C434 1.386 . S
C435 C439 1.393 . S
C436 H425 0.950 . S
C436 C434 1.391 . S
C436 C437 1.400 . S
C437 C431 1.491 . S
C437 C436 1.400 . S
C437 C438 1.398 . S
C438 H426 0.950 . S
C438 C437 1.398 . S
C438 C439 1.391 . S
C439 H427 0.950 . S
C439 C435 1.393 . S
C439 C438 1.391 . S
H440 C448 0.950 . S
H441 C453 0.950 . S
H442 C450 0.950 . S
H443 C452 0.950 . S
H444 C454 0.950 1_455 S
H445 C456 0.950 . S
H446 C458 0.950 . S
H447 C459 0.950 . S
C448 H440 0.950 . S
C448 C449 1.386 . S
C448 C450 1.391 . S
C449 C448 1.386 . S
C449 C453 1.393 . S
C450 H442 0.950 . S
C450 C448 1.391 . S
C450 C451 1.400 . S
C451 C450 1.400 . S
C451 C452 1.398 . S
C451 C457 1.491 . S
C452 H443 0.950 . S
C452 C451 1.398 . S
C452 C453 1.391 . S
C453 H441 0.950 . S
C453 C449 1.393 . S
C453 C452 1.391 . S
C454 H444 0.950 1_655 S
C454 C455 1.386 1_655 S
C454 C456 1.391 . S
C455 C454 1.386 1_455 S
C455 C459 1.393 1_455 S
C456 H445 0.950 . S
C456 C454 1.391 . S
C456 C457 1.400 . S
C457 C451 1.491 . S
C457 C456 1.400 . S
C457 C458 1.398 . S
C458 H446 0.950 . S
C458 C457 1.398 . S
C458 C459 1.391 . S
C459 H447 0.950 . S
C459 C455 1.393 1_655 S
C459 C458 1.391 . S
H460 C468 0.950 . S
H461 C473 0.950 . S
H462 C470 0.950 . S
H463 C472 0.950 . S
H464 C474 0.950 . S
H465 C476 0.950 . S
H466 C478 0.950 . S
H467 C479 0.950 . S
C468 H460 0.950 . S
C468 C469 1.386 . S
C468 C470 1.391 . S
C469 C468 1.386 . S
C469 C473 1.393 . S
C470 H462 0.950 . S
C470 C468 1.391 . S
C470 C471 1.400 . S
C471 C470 1.400 . S
C471 C472 1.398 . S
C471 C477 1.491 . S
C472 H463 0.950 . S
C472 C471 1.398 . S
C472 C473 1.391 . S
C473 H461 0.950 . S
C473 C469 1.393 . S
C473 C472 1.391 . S
C474 H464 0.950 . S
C474 C475 1.386 . S
C474 C476 1.391 . S
C475 C474 1.386 . S
C475 C479 1.393 . S
C476 H465 0.950 . S
C476 C474 1.391 . S
C476 C477 1.400 . S
C477 C471 1.491 . S
C477 C476 1.400 . S
C477 C478 1.398 . S
C478 H466 0.950 . S
C478 C477 1.398 . S
C478 C479 1.391 . S
C479 H467 0.950 . S
C479 C475 1.393 . S
C479 C478 1.391 . S
H480 C488 0.950 . S
H481 C493 0.950 . S
H482 C490 0.950 . S
H483 C492 0.950 . S
H484 C494 0.950 . S
H485 C496 0.950 . S
H486 C498 0.950 . S
H487 C499 0.950 . S
C488 H480 0.950 . S
C488 C489 1.386 . S
C488 C490 1.391 . S
C489 C488 1.386 . S
C489 C493 1.393 . S
C490 H482 0.950 . S
C490 C488 1.391 . S
C490 C491 1.400 . S
C491 C490 1.400 . S
C491 C492 1.398 . S
C491 C497 1.491 . S
C492 H483 0.950 . S
C492 C491 1.398 . S
C492 C493 1.391 . S
C493 H481 0.950 . S
C493 C489 1.393 . S
C493 C492 1.391 . S
C494 H484 0.950 . S
C494 C495 1.386 . S
C494 C496 1.391 . S
C495 C494 1.386 . S
C495 C499 1.393 . S
C496 H485 0.950 . S
C496 C494 1.391 . S
C496 C497 1.400 . S
C497 C491 1.491 . S
C497 C496 1.400 . S
C497 C498 1.398 . S
C498 H486 0.950 . S
C498 C497 1.398 . S
C498 C499 1.391 . S
C499 H487 0.950 . S
C499 C495 1.393 . S
C499 C498 1.391 . S
H500 C508 0.950 . S
H501 C513 0.950 . S
H502 C510 0.950 . S
H503 C512 0.950 . S
H504 C514 0.950 . S
H505 C516 0.950 . S
H506 C518 0.950 . S
H507 C519 0.950 . S
C508 H500 0.950 . S
C508 C509 1.386 . S
C508 C510 1.391 . S
C509 C508 1.386 . S
C509 C513 1.393 . S
C510 H502 0.950 . S
C510 C508 1.391 . S
C510 C511 1.400 . S
C511 C510 1.400 . S
C511 C512 1.398 . S
C511 C517 1.491 . S
C512 H503 0.950 . S
C512 C511 1.398 . S
C512 C513 1.391 . S
C513 H501 0.950 . S
C513 C509 1.393 . S
C513 C512 1.391 . S
C514 H504 0.950 . S
C514 C515 1.386 . S
C514 C516 1.391 . S
C515 C514 1.386 . S
C515 C519 1.393 . S
C516 H505 0.950 . S
C516 C514 1.391 . S
C516 C517 1.400 . S
C517 C511 1.491 . S
C517 C516 1.400 . S
C517 C518 1.398 . S
C518 H506 0.950 . S
C518 C517 1.398 . S
C518 C519 1.391 . S
C519 H507 0.950 . S
C519 C515 1.393 . S
C519 C518 1.391 . S
H520 C528 0.950 . S
H521 C533 0.950 . S
H522 C530 0.950 . S
H523 C532 0.950 . S
H524 C534 0.950 . S
H525 C536 0.950 . S
H526 C538 0.950 . S
H527 C539 0.950 . S
C528 H520 0.950 . S
C528 C529 1.386 . S
C528 C530 1.391 . S
C529 C528 1.386 . S
C529 C533 1.393 . S
C530 H522 0.950 . S
C530 C528 1.391 . S
C530 C531 1.400 . S
C531 C530 1.400 . S
C531 C532 1.398 . S
C531 C537 1.491 . S
C532 H523 0.950 . S
C532 C531 1.398 . S
C532 C533 1.391 . S
C533 H521 0.950 . S
C533 C529 1.393 . S
C533 C532 1.391 . S
C534 H524 0.950 . S
C534 C535 1.386 . S
C534 C536 1.391 . S
C535 C534 1.386 . S
C535 C539 1.393 . S
C536 H525 0.950 . S
C536 C534 1.391 . S
C536 C537 1.400 . S
C537 C531 1.491 . S
C537 C536 1.400 . S
C537 C538 1.398 . S
C538 H526 0.950 . S
C538 C537 1.398 . S
C538 C539 1.391 . S
C539 H527 0.950 . S
C539 C535 1.393 . S
C539 C538 1.391 . S
H540 C548 0.950 . S
H541 C553 0.950 . S
H542 C550 0.950 . S
H543 C552 0.950 . S
H544 C554 0.950 . S
H545 C556 0.950 . S
H546 C558 0.950 . S
H547 C559 0.950 . S
C548 H540 0.950 . S
C548 C549 1.386 . S
C548 C550 1.391 . S
C549 C548 1.386 . S
C549 C553 1.393 . S
C550 H542 0.950 . S
C550 C548 1.391 . S
C550 C551 1.400 . S
C551 C550 1.400 . S
C551 C552 1.398 . S
C551 C557 1.491 . S
C552 H543 0.950 . S
C552 C551 1.398 . S
C552 C553 1.391 . S
C553 H541 0.950 . S
C553 C549 1.393 . S
C553 C552 1.391 . S
C554 H544 0.950 . S
C554 C555 1.386 . S
C554 C556 1.391 . S
C555 C554 1.386 . S
C555 C559 1.393 . S
C556 H545 0.950 . S
C556 C554 1.391 . S
C556 C557 1.400 . S
C557 C551 1.491 . S
C557 C556 1.400 . S
C557 C558 1.398 . S
C558 H546 0.950 . S
C558 C557 1.398 . S
C558 C559 1.391 . S
C559 H547 0.950 . S
C559 C555 1.393 . S
C559 C558 1.391 . S
H560 C568 0.950 . S
H561 C573 0.950 . S
H562 C570 0.950 . S
H563 C572 0.950 . S
H564 C574 0.950 . S
H565 C576 0.950 . S
H566 C578 0.950 . S
H567 C579 0.950 . S
C568 H560 0.950 . S
C568 C569 1.386 . S
C568 C570 1.391 . S
C569 C568 1.386 . S
C569 C573 1.393 . S
C570 H562 0.950 . S
C570 C568 1.391 . S
C570 C571 1.400 . S
C571 C570 1.400 . S
C571 C572 1.398 . S
C571 C577 1.491 . S
C572 H563 0.950 . S
C572 C571 1.398 . S
C572 C573 1.391 . S
C573 H561 0.950 . S
C573 C569 1.393 . S
C573 C572 1.391 . S
C574 H564 0.950 . S
C574 C575 1.386 . S
C574 C576 1.391 . S
C575 C574 1.386 . S
C575 C579 1.393 . S
C576 H565 0.950 . S
C576 C574 1.391 . S
C576 C577 1.400 . S
C577 C571 1.491 . S
C577 C576 1.400 . S
C577 C578 1.398 . S
C578 H566 0.950 . S
C578 C577 1.398 . S
C578 C579 1.391 . S
C579 H567 0.950 . S
C579 C575 1.393 . S
C579 C578 1.391 . S
H580 C588 0.950 . S
H581 C593 0.950 . S
H582 C590 0.950 . S
H583 C592 0.950 . S
H584 C594 0.950 . S
H585 C596 0.950 . S
H586 C598 0.950 . S
H587 C599 0.950 . S
C588 H580 0.950 . S
C588 C589 1.386 . S
C588 C590 1.391 . S
C589 C588 1.386 . S
C589 C593 1.393 . S
C590 H582 0.950 . S
C590 C588 1.391 . S
C590 C591 1.400 . S
C591 C590 1.400 . S
C591 C592 1.398 . S
C591 C597 1.491 1_565 S
C592 H583 0.950 . S
C592 C591 1.398 . S
C592 C593 1.391 . S
C593 H581 0.950 . S
C593 C589 1.393 . S
C593 C592 1.391 . S
C594 H584 0.950 . S
C594 C595 1.386 . S
C594 C596 1.391 . S
C595 C594 1.386 . S
C595 C599 1.393 . S
C596 H585 0.950 . S
C596 C594 1.391 . S
C596 C597 1.400 . S
C597 C591 1.491 1_545 S
C597 C596 1.400 . S
C597 C598 1.398 . S
C598 H586 0.950 . S
C598 C597 1.398 . S
C598 C599 1.391 . S
C599 H587 0.950 . S
C599 C595 1.393 . S
C599 C598 1.391 . S
H600 C608 0.950 . S
H601 C613 0.950 . S
H602 C610 0.950 1_565 S
H603 C612 0.950 . S
H604 C614 0.950 . S
H605 C616 0.950 . S
H606 C618 0.950 . S
H607 C619 0.950 . S
C608 H600 0.950 . S
C608 C609 1.386 . S
C608 C610 1.391 . S
C609 C608 1.386 . S
C609 C613 1.393 . S
C610 H602 0.950 1_545 S
C610 C608 1.391 . S
C610 C611 1.400 1_545 S
C611 C610 1.400 1_565 S
C611 C612 1.398 1_565 S
C611 C617 1.491 . S
C612 H603 0.950 . S
C612 C611 1.398 1_545 S
C612 C613 1.391 . S
C613 H601 0.950 . S
C613 C609 1.393 . S
C613 C612 1.391 . S
C614 H604 0.950 . S
C614 C615 1.386 . S
C614 C616 1.391 . S
C615 C614 1.386 . S
C615 C619 1.393 . S
C616 H605 0.950 . S
C616 C614 1.391 . S
C616 C617 1.400 . S
C617 C611 1.491 . S
C617 C616 1.400 . S
C617 C618 1.398 . S
C618 H606 0.950 . S
C618 C617 1.398 . S
C618 C619 1.391 . S
C619 H607 0.950 . S
C619 C615 1.393 . S
C619 C618 1.391 . S
H620 C628 0.950 . S
H621 C633 0.950 . S
H622 C630 0.950 . S
H623 C632 0.950 1_565 S
H624 C634 0.950 . S
H625 C636 0.950 . S
H626 C638 0.950 . S
H627 C639 0.950 . S
C628 H620 0.950 . S
C628 C629 1.386 . S
C628 C630 1.391 . S
C629 C628 1.386 . S
C629 C633 1.393 . S
C630 H622 0.950 . S
C630 C628 1.391 . S
C630 C631 1.400 1_545 S
C631 C630 1.400 1_565 S
C631 C632 1.398 1_565 S
C631 C637 1.491 . S
C632 H623 0.950 1_545 S
C632 C631 1.398 1_545 S
C632 C633 1.391 . S
C633 H621 0.950 . S
C633 C629 1.393 . S
C633 C632 1.391 . S
C634 H624 0.950 . S
C634 C635 1.386 . S
C634 C636 1.391 . S
C635 C634 1.386 . S
C635 C639 1.393 . S
C636 H625 0.950 . S
C636 C634 1.391 . S
C636 C637 1.400 . S
C637 C631 1.491 . S
C637 C636 1.400 . S
C637 C638 1.398 . S
C638 H626 0.950 . S
C638 C637 1.398 . S
C638 C639 1.391 . S
C639 H627 0.950 . S
C639 C635 1.393 . S
C639 C638 1.391 . S
H640 C648 0.950 . S
H641 C653 0.950 . S
H642 C650 0.950 . S
H643 C652 0.950 . S
H644 C654 0.950 . S
H645 C656 0.950 . S
H646 C658 0.950 . S
H647 C659 0.950 . S
C648 H640 0.950 . S
C648 C649 1.386 . S
C648 C650 1.391 . S
C649 C648 1.386 . S
C649 C653 1.393 . S
C650 H642 0.950 . S
C650 C648 1.391 . S
C650 C651 1.400 . S
C651 C650 1.400 . S
C651 C652 1.398 . S
C651 C657 1.491 1_565 S
C652 H643 0.950 . S
C652 C651 1.398 . S
C652 C653 1.391 . S
C653 H641 0.950 . S
C653 C649 1.393 . S
C653 C652 1.391 . S
C654 H644 0.950 . S
C654 C655 1.386 . S
C654 C656 1.391 . S
C655 C654 1.386 . S
C655 C659 1.393 . S
C656 H645 0.950 . S
C656 C654 1.391 . S
C656 C657 1.400 . S
C657 C651 1.491 1_545 S
C657 C656 1.400 . S
C657 C658 1.398 . S
C658 H646 0.950 . S
C658 C657 1.398 . S
C658 C659 1.391 . S
C659 H647 0.950 . S
C659 C655 1.393 . S
C659 C658 1.391 . S
H660 C668 0.950 1_554 S
H661 C673 0.950 . S
H662 C670 0.950 . S
H663 C672 0.950 . S
H664 C674 0.950 . S
H665 C676 0.950 . S
H666 C678 0.950 . S
H667 C679 0.950 . S
C668 H660 0.950 1_556 S
C668 C669 1.386 1_556 S
C668 C670 1.391 . S
C669 C668 1.386 1_554 S
C669 C673 1.393 1_554 S
C670 H662 0.950 . S
C670 C668 1.391 . S
C670 C671 1.400 . S
C671 C670 1.400 . S
C671 C672 1.398 . S
C671 C677 1.491 . S
C672 H663 0.950 . S
C672 C671 1.398 . S
C672 C673 1.391 . S
C673 H661 0.950 . S
C673 C669 1.393 1_556 S
C673 C672 1.391 . S
C674 H664 0.950 . S
C674 C675 1.386 . S
C674 C676 1.391 . S
C675 C674 1.386 . S
C675 C679 1.393 . S
C676 H665 0.950 . S
C676 C674 1.391 . S
C676 C677 1.400 . S
C677 C671 1.491 . S
C677 C676 1.400 . S
C677 C678 1.398 . S
C678 H666 0.950 . S
C678 C677 1.398 . S
C678 C679 1.391 . S
C679 H667 0.950 . S
C679 C675 1.393 . S
C679 C678 1.391 . S
H680 C688 0.950 . S
H681 C693 0.950 . S
H682 C690 0.950 . S
H683 C692 0.950 . S
H684 C694 0.950 . S
H685 C696 0.950 . S
H686 C698 0.950 . S
H687 C699 0.950 . S
C688 H680 0.950 . S
C688 C689 1.386 . S
C688 C690 1.391 . S
C689 C688 1.386 . S
C689 C693 1.393 . S
C690 H682 0.950 . S
C690 C688 1.391 . S
C690 C691 1.400 . S
C691 C690 1.400 . S
C691 C692 1.398 . S
C691 C697 1.491 . S
C692 H683 0.950 . S
C692 C691 1.398 . S
C692 C693 1.391 . S
C693 H681 0.950 . S
C693 C689 1.393 . S
C693 C692 1.391 . S
C694 H684 0.950 . S
C694 C695 1.386 . S
C694 C696 1.391 . S
C695 C694 1.386 . S
C695 C699 1.393 . S
C696 H685 0.950 . S
C696 C694 1.391 . S
C696 C697 1.400 . S
C697 C691 1.491 . S
C697 C696 1.400 . S
C697 C698 1.398 . S
C698 H686 0.950 . S
C698 C697 1.398 . S
C698 C699 1.391 . S
C699 H687 0.950 . S
C699 C695 1.393 . S
C699 C698 1.391 . S
H700 C708 0.950 . S
H701 C713 0.950 . S
H702 C710 0.950 . S
H703 C712 0.950 . S
H704 C714 0.950 . S
H705 C716 0.950 . S
H706 C718 0.950 . S
H707 C719 0.950 . S
C708 H700 0.950 . S
C708 C709 1.386 . S
C708 C710 1.391 . S
C709 C708 1.386 . S
C709 C713 1.393 . S
C710 H702 0.950 . S
C710 C708 1.391 . S
C710 C711 1.400 . S
C711 C710 1.400 . S
C711 C712 1.398 . S
C711 C717 1.491 . S
C712 H703 0.950 . S
C712 C711 1.398 . S
C712 C713 1.391 . S
C713 H701 0.950 . S
C713 C709 1.393 . S
C713 C712 1.391 . S
C714 H704 0.950 . S
C714 C715 1.386 . S
C714 C716 1.391 . S
C715 C714 1.386 . S
C715 C719 1.393 . S
C716 H705 0.950 . S
C716 C714 1.391 . S
C716 C717 1.400 . S
C717 C711 1.491 . S
C717 C716 1.400 . S
C717 C718 1.398 . S
C718 H706 0.950 . S
C718 C717 1.398 . S
C718 C719 1.391 . S
C719 H707 0.950 . S
C719 C715 1.393 . S
C719 C718 1.391 . S
H720 C728 0.950 . S
H721 C733 0.950 . S
H722 C730 0.950 . S
H723 C732 0.950 . S
H724 C734 0.950 . S
H725 C736 0.950 . S
H726 C738 0.950 . S
H727 C739 0.950 . S
C728 H720 0.950 . S
C728 C729 1.386 . S
C728 C730 1.391 . S
C729 C728 1.386 . S
C729 C733 1.393 . S
C730 H722 0.950 . S
C730 C728 1.391 . S
C730 C731 1.400 . S
C731 C730 1.400 . S
C731 C732 1.398 . S
C731 C737 1.491 . S
C732 H723 0.950 . S
C732 C731 1.398 . S
C732 C733 1.391 . S
C733 H721 0.950 . S
C733 C729 1.393 . S
C733 C732 1.391 . S
C734 H724 0.950 . S
C734 C735 1.386 . S
C734 C736 1.391 . S
C735 C734 1.386 . S
C735 C739 1.393 . S
C736 H725 0.950 . S
C736 C734 1.391 . S
C736 C737 1.400 . S
C737 C731 1.491 . S
C737 C736 1.400 . S
C737 C738 1.398 . S
C738 H726 0.950 . S
C738 C737 1.398 . S
C738 C739 1.391 . S
C739 H727 0.950 . S
C739 C735 1.393 . S
C739 C738 1.391 . S
H740 C748 0.928 1_556 S
H741 C753 0.940 1_556 S
H742 C750 0.950 . S
H743 C752 0.950 . S
H744 C754 0.950 . S
H745 C756 0.950 . S
H746 C758 0.950 . S
H747 C759 0.950 . S
C748 H740 0.928 1_554 S
C748 C749 1.374 1_554 S
C748 C750 1.426 . S
C749 C748 1.374 1_556 S
C749 C753 1.393 1_556 S
C750 H742 0.950 . S
C750 C748 1.426 . S
C750 C751 1.400 . S
C751 C750 1.400 . S
C751 C752 1.398 . S
C751 C757 1.491 . S
C752 H743 0.950 . S
C752 C751 1.398 . S
C752 C753 1.391 . S
C753 H741 0.940 1_554 S
C753 C749 1.393 1_554 S
C753 C752 1.391 . S
C754 H744 0.950 . S
C754 C755 1.386 . S
C754 C756 1.391 . S
C755 C754 1.386 . S
C755 C759 1.393 . S
C756 H745 0.950 . S
C756 C754 1.391 . S
C756 C757 1.400 . S
C757 C751 1.491 . S
C757 C756 1.400 . S
C757 C758 1.398 . S
C758 H746 0.950 . S
C758 C757 1.398 . S
C758 C759 1.391 . S
C759 H747 0.950 . S
C759 C755 1.393 . S
C759 C758 1.391 . S
H760 C768 0.950 . S
H761 C773 0.950 . S
H762 C770 0.950 . S
H763 C772 0.950 . S
H764 C774 0.950 . S
H765 C776 0.950 . S
H766 C778 0.950 . S
H767 C779 0.950 . S
C768 H760 0.950 . S
C768 C769 1.386 . S
C768 C770 1.391 . S
C769 C768 1.386 . S
C769 C773 1.393 . S
C770 H762 0.950 . S
C770 C768 1.391 . S
C770 C771 1.400 . S
C771 C770 1.400 . S
C771 C772 1.398 . S
C771 C777 1.491 . S
C772 H763 0.950 . S
C772 C771 1.398 . S
C772 C773 1.391 . S
C773 H761 0.950 . S
C773 C769 1.393 . S
C773 C772 1.391 . S
C774 H764 0.950 . S
C774 C775 1.386 . S
C774 C776 1.391 . S
C775 C774 1.386 . S
C775 C779 1.393 . S
C776 H765 0.950 . S
C776 C774 1.391 . S
C776 C777 1.400 . S
C777 C771 1.491 . S
C777 C776 1.400 . S
C777 C778 1.398 . S
C778 H766 0.950 . S
C778 C777 1.398 . S
C778 C779 1.391 . S
C779 H767 0.950 . S
C779 C775 1.393 . S
C779 C778 1.391 . S
H780 C788 0.950 . S
H781 C793 0.950 . S
H782 C790 0.950 . S
H783 C792 0.950 . S
H784 C794 0.950 . S
H785 C796 0.950 . S
H786 C798 0.950 . S
H787 C799 0.950 . S
C788 H780 0.950 . S
C788 C789 1.386 . S
C788 C790 1.391 . S
C789 C788 1.386 . S
C789 C793 1.393 . S
C790 H782 0.950 . S
C790 C788 1.391 . S
C790 C791 1.400 . S
C791 C790 1.400 . S
C791 C792 1.398 . S
C791 C797 1.491 . S
C792 H783 0.950 . S
C792 C791 1.398 . S
C792 C793 1.391 . S
C793 H781 0.950 . S
C793 C789 1.393 . S
C793 C792 1.391 . S
C794 H784 0.950 . S
C794 C795 1.386 . S
C794 C796 1.391 . S
C795 C794 1.386 . S
C795 C799 1.393 . S
C796 H785 0.950 . S
C796 C794 1.391 . S
C796 C797 1.400 . S
C797 C791 1.491 . S
C797 C796 1.400 . S
C797 C798 1.398 . S
C798 H786 0.950 . S
C798 C797 1.398 . S
C798 C799 1.391 . S
C799 H787 0.950 . S
C799 C795 1.393 . S
C799 C798 1.391 . S
H800 C808 0.950 . S
H801 C813 0.950 . S
H802 C810 0.950 . S
H803 C812 0.950 . S
H804 C814 0.950 . S
H805 C816 0.950 . S
H806 C818 0.950 . S
H807 C819 0.950 . S
C808 H800 0.950 . S
C808 C809 1.386 . S
C808 C810 1.391 . S
C809 C808 1.386 . S
C809 C813 1.393 . S
C810 H802 0.950 . S
C810 C808 1.391 . S
C810 C811 1.400 . S
C811 C810 1.400 . S
C811 C812 1.398 . S
C811 C817 1.491 . S
C812 H803 0.950 . S
C812 C811 1.398 . S
C812 C813 1.391 . S
C813 H801 0.950 . S
C813 C809 1.393 . S
C813 C812 1.391 . S
C814 H804 0.950 . S
C814 C815 1.386 . S
C814 C816 1.391 . S
C815 C814 1.386 . S
C815 C819 1.393 . S
C816 H805 0.950 . S
C816 C814 1.391 . S
C816 C817 1.400 . S
C817 C811 1.491 . S
C817 C816 1.400 . S
C817 C818 1.398 . S
C818 H806 0.950 . S
C818 C817 1.398 . S
C818 C819 1.391 . S
C819 H807 0.950 . S
C819 C815 1.393 . S
C819 C818 1.391 . S
C355 C263 1.461 . S
C349 C17 1.630 . S
C375 C281 1.273 . S
C369 C55 1.319 1_655 S
C389 C87 1.405 . S
C395 C305 1.287 . S
C415 C335 1.302 1_655 S
C409 C113 1.445 . S
C435 C323 1.269 . S
C429 C145 1.351 . S
C449 C177 1.408 . S
C455 C276 1.340 . S
C469 C215 1.566 . S
C475 C296 1.503 . S
C489 C247 1.402 1_655 S
C495 C301 1.263 . S
C509 C241 1.415 . S
C515 C317 1.342 . S
C529 C183 1.419 . S
C535 C272 1.270 . S
C555 C339 1.280 . S
C549 C119 1.349 . S
C575 C284 1.322 . S
C569 C49 1.430 . S
C589 C81 1.622 . S
C595 C302 1.452 . S
C609 C23 1.405 . S
C615 C260 1.285 . S
C635 C280 1.283 . S
C629 C209 1.339 . S
C655 C326 1.507 . S
C649 C151 1.576 . S
C675 C322 1.346 . S
C669 C29 1.494 . S
C695 C275 1.355 . S
C689 C61 1.380 . S
C709 C93 1.481 . S
C715 C297 1.286 . S
C729 C125 1.408 . S
C735 C318 1.358 . S
C755 C259 1.345 . S
C749 C157 1.442 . S
C769 C189 1.487 . S
C775 C293 1.408 . S
C795 C314 1.357 . S
C789 C221 1.451 . S
C815 C338 1.382 . S
C809 C253 1.453 . S
