# Generated by pormake.
# Topology the, (3,8)-cn, num edge types: 1
# Building blocks:
#     Node 0, Type 0, BuildingBlock: INOVEN_clean_linker_0, # of connection points: 3
#     Node 1, Type 0, BuildingBlock: INOVEN_clean_linker_0, # of connection points: 3
#     Node 2, Type 0, BuildingBlock: INOVEN_clean_linker_0, # of connection points: 3
#     Node 3, Type 0, BuildingBlock: INOVEN_clean_linker_0, # of connection points: 3
#     Node 4, Type 0, BuildingBlock: INOVEN_clean_linker_0, # of connection points: 3
#     Node 5, Type 0, BuildingBlock: INOVEN_clean_linker_0, # of connection points: 3
#     Node 6, Type 0, BuildingBlock: INOVEN_clean_linker_0, # of connection points: 3
#     Node 7, Type 0, BuildingBlock: INOVEN_clean_linker_0, # of connection points: 3
#     Node 8, Type 1, BuildingBlock: GIZVER_clean_sbu_0, # of connection points: 8
#     Node 9, Type 1, BuildingBlock: GIZVER_clean_sbu_0, # of connection points: 8
#     Node 10, Type 1, BuildingBlock: GIZVER_clean_sbu_0, # of connection points: 8
#     Edge 11, Type (0, 1), BuildingBlock: EZIPEK_clean_linker_0, # of connection points: 2
#     Edge 12, Type (0, 1), BuildingBlock: EZIPEK_clean_linker_0, # of connection points: 2
#     Edge 13, Type (0, 1), BuildingBlock: EZIPEK_clean_linker_0, # of connection points: 2
#     Edge 14, Type (0, 1), BuildingBlock: EZIPEK_clean_linker_0, # of connection points: 2
#     Edge 15, Type (0, 1), BuildingBlock: EZIPEK_clean_linker_0, # of connection points: 2
#     Edge 16, Type (0, 1), BuildingBlock: EZIPEK_clean_linker_0, # of connection points: 2
#     Edge 17, Type (0, 1), BuildingBlock: EZIPEK_clean_linker_0, # of connection points: 2
#     Edge 18, Type (0, 1), BuildingBlock: EZIPEK_clean_linker_0, # of connection points: 2
#     Edge 19, Type (0, 1), BuildingBlock: EZIPEK_clean_linker_0, # of connection points: 2
#     Edge 20, Type (0, 1), BuildingBlock: EZIPEK_clean_linker_0, # of connection points: 2
#     Edge 21, Type (0, 1), BuildingBlock: EZIPEK_clean_linker_0, # of connection points: 2
#     Edge 22, Type (0, 1), BuildingBlock: EZIPEK_clean_linker_0, # of connection points: 2
#     Edge 23, Type (0, 1), BuildingBlock: EZIPEK_clean_linker_0, # of connection points: 2
#     Edge 24, Type (0, 1), BuildingBlock: EZIPEK_clean_linker_0, # of connection points: 2
#     Edge 25, Type (0, 1), BuildingBlock: EZIPEK_clean_linker_0, # of connection points: 2
#     Edge 26, Type (0, 1), BuildingBlock: EZIPEK_clean_linker_0, # of connection points: 2
#     Edge 27, Type (0, 1), BuildingBlock: EZIPEK_clean_linker_0, # of connection points: 2
#     Edge 28, Type (0, 1), BuildingBlock: EZIPEK_clean_linker_0, # of connection points: 2
#     Edge 29, Type (0, 1), BuildingBlock: EZIPEK_clean_linker_0, # of connection points: 2
#     Edge 30, Type (0, 1), BuildingBlock: EZIPEK_clean_linker_0, # of connection points: 2
#     Edge 31, Type (0, 1), BuildingBlock: EZIPEK_clean_linker_0, # of connection points: 2
#     Edge 32, Type (0, 1), BuildingBlock: EZIPEK_clean_linker_0, # of connection points: 2
#     Edge 33, Type (0, 1), BuildingBlock: EZIPEK_clean_linker_0, # of connection points: 2
#     Edge 34, Type (0, 1), BuildingBlock: EZIPEK_clean_linker_0, # of connection points: 2
# Relax obj value: 0.074
# Max RMSD: 0.199
# Mean RMSD: 0.120
data_MOF--net-the--node1-GIZVER_clean_sbu_0--node2-INOVEN_clean_linker_0--edge1-EZIPEK_clean_linker_0
_symmetry_space_group_name_H-M    P1
_symmetry_Int_Tables_number       1
_symmetry_cell_setting            triclinic
loop_
_symmetry_equiv_pos_as_xyz
'x, y, z'
_cell_length_a     30.075388
_cell_length_b     28.550582
_cell_length_c     27.213953
_cell_angle_alpha  86.964576
_cell_angle_beta   98.371529
_cell_angle_gamma 112.38309
loop_
_atom_site_label
_atom_site_type_symbol
_atom_site_fract_x
_atom_site_fract_y
_atom_site_fract_z
_atom_type_partial_charge
H0 H 0.32282 0.36326 0.32024 0.0
H1 H 0.40199 0.26521 0.32529 0.0
H2 H 0.31895 0.26077 0.44272 0.0
N3 N 0.28517 0.33184 0.402 0.0
N4 N 0.26239 0.31128 0.43706 0.0
C5 C 0.33313 0.33339 0.33824 0.0
C6 C 0.36365 0.31603 0.31708 0.0
C7 C 0.31602 0.31286 0.38264 0.0
C8 C 0.33067 0.27556 0.4073 0.0
C9 C 0.3618 0.2584 0.38669 0.0
C10 C 0.37744 0.27799 0.34106 0.0
H11 H 0.6784 0.24433 0.26722 0.0
H12 H 0.78204 0.27341 0.39938 0.0
H13 H 0.80433 0.38295 0.28152 0.0
N14 N 0.7174 0.33222 0.2259 0.0
N15 N 0.73642 0.37538 0.20832 0.0
C16 C 0.71366 0.2669 0.28685 0.0
C17 C 0.72794 0.25247 0.33468 0.0
C18 C 0.74068 0.31381 0.26726 0.0
C19 C 0.78442 0.34544 0.29499 0.0
C20 C 0.80023 0.33064 0.3424 0.0
C21 C 0.77198 0.28361 0.36164 0.0
H22 H 0.71874 0.74179 0.25649 0.0
H23 H 0.80426 0.65015 0.28791 0.0
H24 H 0.83048 0.77689 0.38218 0.0
N25 N 0.75412 0.79834 0.33561 0.0
N26 N 0.77463 0.82962 0.37 0.0
C27 C 0.74977 0.73576 0.27718 0.0
C28 C 0.76031 0.69426 0.26535 0.0
C29 C 0.7748 0.76589 0.31888 0.0
C30 C 0.81267 0.75564 0.34828 0.0
C31 C 0.82391 0.71417 0.33695 0.0
C32 C 0.79798 0.68399 0.29498 0.0
H33 H 0.27324 0.61795 0.3082 0.0
H34 H 0.30622 0.75149 0.39483 0.0
H35 H 0.40968 0.74334 0.305 0.0
N36 N 0.35406 0.64912 0.26787 0.0
N37 N 0.3856 0.66904 0.23987 0.0
C38 C 0.29718 0.65625 0.31912 0.0
C39 C 0.28395 0.6826 0.35278 0.0
C40 C 0.34165 0.67833 0.30041 0.0
C41 C 0.37411 0.72712 0.31701 0.0
C42 C 0.36167 0.75377 0.35143 0.0
C43 C 0.31583 0.7317 0.36776 0.0
H44 H 0.45731 0.78241 0.75855 0.0
H45 H 0.33464 0.74999 0.6448 0.0
H46 H 0.32675 0.65292 0.7729 0.0
N47 N 0.42178 0.70159 0.81206 0.0
N48 N 0.40447 0.66113 0.83507 0.0
C49 C 0.41968 0.75998 0.74515 0.0
C50 C 0.39796 0.77261 0.7001 0.0
C51 C 0.39477 0.71673 0.77135 0.0
C52 C 0.34621 0.68679 0.75309 0.0
C53 C 0.32413 0.69802 0.70683 0.0
C54 C 0.35031 0.7416 0.681 0.0
H55 H 0.33737 0.23447 0.65751 0.0
H56 H 0.46628 0.27843 0.76536 0.0
H57 H 0.36066 0.34425 0.76834 0.0
N58 N 0.30077 0.29487 0.68814 0.0
N59 N 0.27965 0.31569 0.71037 0.0
C60 C 0.35818 0.25267 0.69172 0.0
C61 C 0.39906 0.24233 0.71465 0.0
C62 C 0.34321 0.28761 0.71172 0.0
C63 C 0.37156 0.31659 0.75309 0.0
C64 C 0.41635 0.31383 0.77206 0.0
C65 C 0.43033 0.27749 0.75213 0.0
H66 H 0.70545 0.27622 0.73652 0.0
H67 H 0.81878 0.26351 0.66519 0.0
H68 H 0.84219 0.40109 0.74151 0.0
N69 N 0.75671 0.36534 0.77787 0.0
N70 N 0.78278 0.40803 0.79552 0.0
C71 C 0.74251 0.29177 0.72826 0.0
C72 C 0.75805 0.26523 0.69721 0.0
C73 C 0.7736 0.33969 0.74632 0.0
C74 C 0.81967 0.36232 0.73085 0.0
C75 C 0.83679 0.3355 0.70135 0.0
C76 C 0.80646 0.2853 0.68751 0.0
H77 H 0.73347 0.72114 0.72502 0.0
H78 H 0.83918 0.65104 0.74351 0.0
H79 H 0.80511 0.71373 0.60359 0.0
N80 N 0.74266 0.75005 0.6362 0.0
N81 N 0.75235 0.77102 0.59564 0.0
C82 C 0.76132 0.71147 0.71224 0.0
C83 C 0.79065 0.6916 0.74498 0.0
C84 C 0.76765 0.72144 0.66264 0.0
C85 C 0.8001 0.70629 0.64228 0.0
C86 C 0.82577 0.68078 0.67211 0.0
C87 C 0.82044 0.67279 0.72292 0.0
Co88 Co 0.13286 0.45718 0.56876 0.0
Co89 Co 0.10169 0.45883 0.47477 0.0
Co90 Co 0.05455 0.51879 0.53124 0.0
O91 O 0.07516 0.46008 0.53088 0.0
H92 H 0.04817 0.42816 0.53118 0.0
O93 O 0.03202 0.57664 0.53172 0.0
Co94 Co 0.96904 0.572 0.49878 0.0
Co95 Co 1.00802 0.57641 0.59048 0.0
H96 H 0.05718 0.60902 0.52641 0.0
O97 O 0.09821 0.4007 0.44774 0.0
O98 O 0.15643 0.45004 0.50622 0.0
O99 O 0.12005 0.5176 0.43504 0.0
O100 O 0.10189 0.56452 0.48557 0.0
O101 O 1.00398 0.48591 0.47335 0.0
O102 O 0.91347 0.57273 0.46665 0.0
O103 O 0.98281 0.63956 0.48848 0.0
O104 O 0.9462 0.50148 0.50193 0.0
O105 O 1.00839 0.47327 0.57655 0.0
O106 O 1.00146 0.51956 0.63518 0.0
O107 O 0.94695 0.57489 0.56433 0.0
O108 O 1.00604 0.63376 0.61526 0.0
C109 C 0.15468 0.40172 0.60429 0.0
C110 C 0.14988 0.55679 0.59314 0.0
C111 C 0.12206 0.56004 0.44859 0.0
C112 C 0.13986 0.41162 0.47547 0.0
C113 C 0.93826 0.62114 0.46548 0.0
C114 C 0.9589 0.47681 0.47299 0.0
C115 C 0.9974 0.47697 0.6193 0.0
C116 C 0.96111 0.61328 0.59487 0.0
O117 O 0.18391 0.44885 0.60396 0.0
O118 O 0.11122 0.38829 0.57895 0.0
O119 O 0.10514 0.55076 0.58995 0.0
O120 O 0.16287 0.52938 0.56718 0.0
Co121 Co 0.60649 0.94085 0.47214 0.0
Co122 Co 0.62577 0.96188 0.56703 0.0
Co123 Co 0.55677 0.01791 0.51735 0.0
O124 O 0.61237 0.99708 0.51142 0.0
H125 H 0.64147 0.02604 0.50692 0.0
O126 O 0.50177 0.03987 0.52464 0.0
Co127 Co 0.51207 0.10056 0.56125 0.0
Co128 Co 0.49051 0.07547 0.46905 0.0
H129 H 0.47244 0.01182 0.53047 0.0
O130 O 0.68569 0.9571 0.58497 0.0
O131 O 0.6216 0.90521 0.53369 0.0
O132 O 0.57847 0.93861 0.61222 0.0
O133 O 0.5234 0.95974 0.56232 0.0
O134 O 0.59742 0.06112 0.57533 0.0
O135 O 0.51781 0.15423 0.5966 0.0
O136 O 0.45207 0.08254 0.58103 0.0
O137 O 0.57763 0.12664 0.55015 0.0
O138 O 0.5911 0.07532 0.47216 0.0
O139 O 0.53729 0.09829 0.42305 0.0
O140 O 0.49004 0.13181 0.49883 0.0
O141 O 0.43052 0.07347 0.44722 0.0
C142 C 0.6524 0.91832 0.4388 0.0
C143 C 0.50914 0.92831 0.45381 0.0
C144 C 0.5352 0.93541 0.59946 0.0
C145 C 0.66445 0.9155 0.55936 0.0
C146 C 0.47352 0.1267 0.60339 0.0
C147 C 0.60553 0.10832 0.57705 0.0
C148 C 0.58002 0.09967 0.43483 0.0
C149 C 0.44837 0.1173 0.46935 0.0
O150 O 0.60608 0.89173 0.43426 0.0
O151 O 0.66948 0.96171 0.46237 0.0
O152 O 0.51532 0.97477 0.45857 0.0
O153 O 0.53951 0.9109 0.47648 0.0
Co154 Co 0.50835 0.5234 0.11293 0.0
Co155 Co 0.49709 0.4351 0.09393 0.0
Co156 Co 0.56899 0.51545 0.02264 0.0
O157 O 0.50769 0.49023 0.05418 0.0
H158 H 0.47925 0.48583 0.03034 0.0
O159 O 0.62903 0.54016 0.9898 0.0
Co160 Co 0.63114 0.51123 0.92923 0.0
Co161 Co 0.63797 0.59661 0.95208 0.0
H162 H 0.65779 0.54386 1.01265 0.0
O163 O 0.43653 0.38953 0.10125 0.0
O164 O 0.48273 0.45856 0.14945 0.0
O165 O 0.55131 0.41481 0.11046 0.0
O166 O 0.60047 0.47006 0.06166 0.0
O167 O 0.53362 0.46139 0.96947 0.0
O168 O 0.63665 0.4828 0.8754 0.0
O169 O 0.69105 0.51074 0.94418 0.0
O170 O 0.56796 0.5059 0.90691 0.0
O171 O 0.53731 0.56103 0.98528 0.0
O172 O 0.58219 0.61408 0.93244 0.0
O173 O 0.65853 0.58015 0.89771 0.0
O174 O 0.69934 0.64334 0.95439 0.0
C175 C 0.46444 0.55347 0.13973 0.0
C176 C 0.60641 0.5594 0.12235 0.0
C177 C 0.59191 0.43469 0.09435 0.0
C178 C 0.44676 0.41474 0.14255 0.0
C179 C 0.67869 0.4892 0.90048 0.0
C180 C 0.53521 0.46735 0.92257 0.0
C181 C 0.54285 0.59454 0.95105 0.0
C182 C 0.69642 0.62072 0.91311 0.0
O183 O 0.50565 0.55676 0.16478 0.0
O184 O 0.44871 0.52741 0.09831 0.0
O185 O 0.60618 0.56969 0.07593 0.0
O186 O 0.56978 0.52455 0.13549 0.0
C187 C 0.25271 0.38381 0.46994 0.0
C188 C 0.23228 0.33304 0.45389 0.0
C189 C 0.15089 0.33076 0.45756 0.0
C190 C 0.17127 0.38399 0.46764 0.0
N191 N 0.24138 0.46282 0.46679 0.0
N192 N 0.16322 0.25836 0.42784 0.0
C193 C 0.22224 0.41112 0.4698 0.0
C194 C 0.18166 0.30646 0.4466 0.0
N195 N 0.30151 0.40596 0.48456 0.0
N196 N 0.10298 0.30287 0.46072 0.0
H197 H 0.18546 0.23932 0.42165 0.0
H198 H 0.12655 0.2387 0.41558 0.0
H199 H 0.07964 0.31756 0.47278 0.0
H200 H 0.0876 0.26357 0.45772 0.0
H201 H 0.318 0.44183 0.50078 0.0
H202 H 0.32441 0.38606 0.48515 0.0
H203 H 0.27798 0.48354 0.46442 0.0
H204 H 0.22024 0.48466 0.45936 0.0
C205 C 0.65977 0.22626 0.38576 0.0
C206 C 0.69119 0.21235 0.36085 0.0
C207 C 0.64879 0.1231 0.38278 0.0
C208 C 0.61958 0.13792 0.41031 0.0
N209 N 0.60806 0.20537 0.44987 0.0
N210 N 0.72051 0.14923 0.34053 0.0
C211 C 0.62803 0.18998 0.41502 0.0
C212 C 0.68725 0.16117 0.36091 0.0
N213 N 0.65925 0.27399 0.38068 0.0
N214 N 0.63879 0.07278 0.37632 0.0
H215 H 0.74814 0.17613 0.32331 0.0
H216 H 0.72283 0.11371 0.34354 0.0
H217 H 0.61124 0.04422 0.39213 0.0
H218 H 0.65547 0.05912 0.35277 0.0
H219 H 0.63297 0.28405 0.39324 0.0
H220 H 0.68211 0.30239 0.36006 0.0
H221 H 0.61764 0.24325 0.45909 0.0
H222 H 0.58602 0.18028 0.47356 0.0
C223 C 0.83814 0.66832 0.41569 0.0
C224 C 0.85653 0.69678 0.37366 0.0
C225 C 0.93228 0.68152 0.39527 0.0
C226 C 0.9142 0.6538 0.43789 0.0
N227 N 0.85458 0.63027 0.49439 0.0
N228 N 0.92415 0.73946 0.32889 0.0
C229 C 0.86859 0.65034 0.44984 0.0
C230 C 0.9047 0.70634 0.36532 0.0
N231 N 0.79069 0.6563 0.42179 0.0
N232 N 0.97418 0.68147 0.38146 0.0
H233 H 0.9046 0.7575 0.306 0.0
H234 H 0.96059 0.75229 0.32407 0.0
H235 H 0.99551 0.66403 0.40216 0.0
H236 H 0.98616 0.69563 0.3477 0.0
H237 H 0.77334 0.63035 0.4479 0.0
H238 H 0.76727 0.66944 0.39844 0.0
H239 H 0.82482 0.6322 0.50824 0.0
H240 H 0.87526 0.61548 0.51964 0.0
C241 C 0.41006 0.80277 0.42829 0.0
C242 C 0.39826 0.80162 0.37584 0.0
C243 C 0.45634 0.88996 0.37326 0.0
C244 C 0.46413 0.89132 0.42601 0.0
N245 N 0.43333 0.85491 0.50154 0.0
N246 N 0.40335 0.84838 0.2989 0.0
C247 C 0.43583 0.84963 0.45271 0.0
C248 C 0.4193 0.84661 0.34829 0.0
N249 N 0.39996 0.75888 0.45473 0.0
N250 N 0.48527 0.92898 0.34712 0.0
H251 H 0.37599 0.81771 0.27986 0.0
H252 H 0.41429 0.8815 0.27804 0.0
H253 H 0.51146 0.96166 0.36429 0.0
H254 H 0.48499 0.92761 0.30889 0.0
H255 H 0.41086 0.7581 0.49285 0.0
H256 H 0.38736 0.72375 0.43733 0.0
H257 H 0.41014 0.82627 0.52178 0.0
H258 H 0.44974 0.89 0.51926 0.0
C259 C 0.23763 0.67839 0.66378 0.0
C260 C 0.27589 0.66162 0.68261 0.0
C261 C 0.22098 0.5754 0.65951 0.0
C262 C 0.18803 0.59312 0.62996 0.0
N263 N 0.16503 0.66412 0.60454 0.0
N264 N 0.30532 0.59306 0.68662 0.0
C265 C 0.19599 0.64542 0.63253 0.0
C266 C 0.26797 0.60975 0.6774 0.0
N267 N 0.24025 0.72493 0.67701 0.0
N268 N 0.20636 0.52588 0.673 0.0
H269 H 0.34151 0.61726 0.69502 0.0
H270 H 0.30062 0.55573 0.67978 0.0
H271 H 0.17008 0.50162 0.66508 0.0
H272 H 0.22833 0.51175 0.69746 0.0
H273 H 0.21167 0.73734 0.66806 0.0
H274 H 0.26901 0.74893 0.70141 0.0
H275 H 0.17233 0.70274 0.60063 0.0
H276 H 0.13361 0.64129 0.5826 0.0
C277 C 0.38107 0.16673 0.65589 0.0
C278 C 0.41132 0.19937 0.69529 0.0
C279 C 0.47389 0.16566 0.68551 0.0
C280 C 0.44921 0.1463 0.63752 0.0
N281 N 0.37751 0.13016 0.57715 0.0
N282 N 0.46619 0.19194 0.76603 0.0
C283 C 0.40204 0.14673 0.623 0.0
C284 C 0.45273 0.18878 0.71584 0.0
N285 N 0.33191 0.14788 0.6547 0.0
N286 N 0.51715 0.16135 0.70273 0.0
H287 H 0.44475 0.19816 0.78989 0.0
H288 H 0.4934 0.18071 0.7843 0.0
H289 H 0.53093 0.13916 0.68529 0.0
H290 H 0.53987 0.18097 0.73379 0.0
H291 H 0.30847 0.12051 0.6291 0.0
H292 H 0.31575 0.15409 0.68387 0.0
H293 H 0.34492 0.13438 0.5638 0.0
H294 H 0.39182 0.11654 0.55128 0.0
C295 C 0.92563 0.3932 0.71678 0.0
C296 C 0.88524 0.3621 0.68335 0.0
C297 C 0.93797 0.38636 0.61842 0.0
C298 C 0.9693 0.42992 0.64603 0.0
N299 N 1.00007 0.46808 0.72705 0.0
N300 N 0.85419 0.33363 0.59772 0.0
C301 C 0.96549 0.4312 0.69722 0.0
C302 C 0.89183 0.35905 0.63293 0.0
N303 N 0.92655 0.38513 0.76676 0.0
N304 N 0.9522 0.37046 0.57932 0.0
H305 H 0.81818 0.32117 0.60332 0.0
H306 H 0.85837 0.33066 0.56084 0.0
H307 H 0.98812 0.38545 0.57275 0.0
H308 H 0.93094 0.33722 0.55969 0.0
H309 H 0.95646 0.40416 0.79265 0.0
H310 H 0.89936 0.35531 0.78171 0.0
H311 H 0.99616 0.47487 0.76312 0.0
H312 H 0.03251 0.49217 0.71504 0.0
C313 C 0.75511 0.85145 0.55832 0.0
C314 C 0.72764 0.80262 0.57477 0.0
C315 C 0.65977 0.82769 0.58088 0.0
C316 C 0.68664 0.87692 0.56398 0.0
N317 N 0.75719 0.93396 0.5291 0.0
N318 N 0.64919 0.73928 0.58312 0.0
C319 C 0.73361 0.88838 0.55031 0.0
C320 C 0.67826 0.78915 0.57983 0.0
N321 N 0.80252 0.86285 0.55289 0.0
N322 N 0.61828 0.81851 0.60116 0.0
H323 H 0.66204 0.71048 0.58013 0.0
H324 H 0.61176 0.72675 0.58284 0.0
H325 H 0.60579 0.84694 0.60674 0.0
H326 H 0.59962 0.78423 0.61776 0.0
H327 H 0.82684 0.89921 0.54646 0.0
H328 H 0.81793 0.83544 0.55683 0.0
H329 H 0.78884 0.94235 0.51329 0.0
H330 H 0.74341 0.96253 0.52421 0.0
C331 C 0.43206 0.24063 0.43106 0.0
C332 C 0.38172 0.22304 0.41443 0.0
C333 C 0.37342 0.13807 0.44436 0.0
C334 C 0.42501 0.15422 0.45311 0.0
N335 N 0.50177 0.21833 0.43692 0.0
N336 N 0.30445 0.15333 0.3994 0.0
C337 C 0.45412 0.20502 0.44227 0.0
C338 C 0.35218 0.17128 0.41969 0.0
N339 N 0.45905 0.29136 0.43532 0.0
N340 N 0.34463 0.09161 0.46018 0.0
H341 H 0.2876 0.17651 0.38121 0.0
H342 H 0.28265 0.1149 0.39709 0.0
H343 H 0.35836 0.06643 0.47945 0.0
H344 H 0.30722 0.08027 0.45902 0.0
H345 H 0.49545 0.30567 0.4509 0.0
H346 H 0.44364 0.3186 0.4285 0.0
H347 H 0.52335 0.25427 0.42556 0.0
H348 H 0.51713 0.19152 0.43562 0.0
C349 C 0.88957 0.38655 0.3625 0.0
C350 C 0.84176 0.36768 0.37526 0.0
C351 C 0.8732 0.41189 0.45507 0.0
C352 C 0.91998 0.4369 0.43978 0.0
N353 N 0.96707 0.45666 0.37072 0.0
N354 N 0.78698 0.37598 0.42778 0.0
C355 C 0.9269 0.42652 0.39127 0.0
C356 C 0.83322 0.3845 0.41974 0.0
N357 N 0.89963 0.36618 0.32327 0.0
N358 N 0.86673 0.41243 0.50366 0.0
H359 H 0.75674 0.35837 0.40172 0.0
H360 H 0.77926 0.39187 0.45748 0.0
H361 H 0.8954 0.42608 0.53231 0.0
H362 H 0.83348 0.39305 0.5164 0.0
H363 H 0.93487 0.37521 0.31545 0.0
H364 H 0.87334 0.33682 0.30156 0.0
H365 H 0.9712 0.45286 0.33395 0.0
H366 H 0.99326 0.48934 0.38757 0.0
C367 C 0.71456 0.82656 0.42205 0.0
C368 C 0.74775 0.8541 0.38959 0.0
C369 C 0.72178 0.92575 0.39159 0.0
C370 C 0.68553 0.8965 0.42148 0.0
N371 N 0.64425 0.81569 0.46064 0.0
N372 N 0.78386 0.92793 0.34165 0.0
C373 C 0.68088 0.8459 0.43522 0.0
C374 C 0.75201 0.90348 0.37428 0.0
N375 N 0.7168 0.78233 0.44183 0.0
N376 N 0.72634 0.97413 0.37861 0.0
H377 H 0.80668 0.91222 0.32979 0.0
H378 H 0.7867 0.96232 0.32484 0.0
H379 H 0.70168 0.98978 0.38542 0.0
H380 H 0.75491 0.99945 0.36166 0.0
H381 H 0.6976 0.76261 0.47023 0.0
H382 H 0.74147 0.76755 0.43288 0.0
H383 H 0.63449 0.77666 0.4639 0.0
H384 H 0.62218 0.82841 0.47764 0.0
C385 C 0.24477 0.64717 0.42908 0.0
C386 C 0.23954 0.65656 0.37732 0.0
C387 C 0.15129 0.61164 0.37362 0.0
C388 C 0.15714 0.60503 0.42591 0.0
N389 N 0.20764 0.63473 0.50379 0.0
N390 N 0.18664 0.65699 0.30177 0.0
C391 C 0.20326 0.62934 0.45374 0.0
C392 C 0.19229 0.64183 0.34992 0.0
N393 N 0.2888 0.65127 0.4542 0.0
N394 N 0.10677 0.58798 0.34671 0.0
H395 H 0.21594 0.67916 0.28368 0.0
H396 H 0.15291 0.6511 0.28124 0.0
H397 H 0.0759 0.56834 0.36368 0.0
H398 H 0.10098 0.58625 0.30806 0.0
H399 H 0.29359 0.64104 0.49136 0.0
H400 H 0.31876 0.65777 0.43606 0.0
H401 H 0.24047 0.65488 0.52547 0.0
H402 H 0.17732 0.62548 0.52182 0.0
C403 C 0.43724 0.86575 0.68148 0.0
C404 C 0.42822 0.81463 0.6701 0.0
C405 C 0.48658 0.843 0.61016 0.0
C406 C 0.49622 0.89425 0.62192 0.0
N407 N 0.4758 0.9552 0.66175 0.0
N408 N 0.43809 0.75368 0.61906 0.0
C409 C 0.46981 0.90587 0.65534 0.0
C410 C 0.45094 0.80304 0.63289 0.0
N411 N 0.41552 0.8757 0.71824 0.0
N412 N 0.51193 0.83258 0.57728 0.0
H413 H 0.41438 0.72301 0.63672 0.0
H414 H 0.44838 0.74258 0.58818 0.0
H415 H 0.53518 0.86043 0.55665 0.0
H416 H 0.5116 0.79678 0.5713 0.0
H417 H 0.42421 0.91165 0.73253 0.0
H418 H 0.38982 0.84724 0.7363 0.0
H419 H 0.45456 0.96637 0.68179 0.0
H420 H 0.50041 0.98535 0.64427 0.0
C421 C 0.20775 0.3011 0.64494 0.0
C422 C 0.23853 0.3266 0.68805 0.0
C423 C 0.19242 0.38136 0.6859 0.0
C424 C 0.17198 0.36608 0.63641 0.0
N425 N 0.15198 0.30429 0.572 0.0
N426 N 0.25734 0.3881 0.7526 0.0
C427 C 0.17687 0.32344 0.61692 0.0
C428 C 0.2293 0.36528 0.70985 0.0
N429 N 0.20544 0.2543 0.63301 0.0
N430 N 0.175 0.40982 0.71036 0.0
H431 H 0.28368 0.37599 0.77186 0.0
H432 H 0.25629 0.42057 0.76728 0.0
H433 H 0.14549 0.41864 0.69415 0.0
H434 H 0.18573 0.41933 0.74784 0.0
H435 H 0.18159 0.23236 0.60381 0.0
H436 H 0.22277 0.23445 0.65631 0.0
H437 H 0.15826 0.27748 0.55257 0.0
H438 H 0.12482 0.31586 0.55451 0.0
C439 C 0.70918 0.22965 0.61585 0.0
C440 C 0.72133 0.22213 0.66715 0.0
C441 C 0.65712 0.13714 0.66054 0.0
C442 C 0.64911 0.14343 0.60819 0.0
N443 N 0.68038 0.18913 0.53583 0.0
N444 N 0.71225 0.16568 0.73725 0.0
C445 C 0.67929 0.18764 0.58579 0.0
C446 C 0.69709 0.17474 0.68922 0.0
N447 N 0.72328 0.27727 0.59618 0.0
N448 N 0.62535 0.09711 0.68324 0.0
H449 H 0.74107 0.19273 0.75908 0.0
H450 H 0.69894 0.13023 0.75388 0.0
H451 H 0.59536 0.06921 0.66381 0.0
H452 H 0.62658 0.09376 0.72166 0.0
H453 H 0.71172 0.28443 0.55955 0.0
H454 H 0.74153 0.30983 0.61783 0.0
H455 H 0.70459 0.21955 0.51828 0.0
H456 H 0.66143 0.15732 0.51342 0.0
C457 C 0.90185 0.69914 0.63348 0.0
C458 C 0.85936 0.66323 0.65029 0.0
C459 C 0.88487 0.59447 0.63333 0.0
C460 C 0.92485 0.62995 0.61199 0.0
N461 N 0.96521 0.71458 0.58204 0.0
N462 N 0.80499 0.57607 0.65593 0.0
C463 C 0.93154 0.68191 0.6092 0.0
C464 C 0.84917 0.61064 0.64703 0.0
N465 N 0.91509 0.74962 0.64255 0.0
N466 N 0.88223 0.54608 0.64319 0.0
H467 H 0.77764 0.58646 0.66549 0.0
H468 H 0.79387 0.53742 0.64923 0.0
H469 H 0.9085 0.53293 0.6358 0.0
H470 H 0.85658 0.52048 0.66346 0.0
H471 H 0.94832 0.77686 0.63572 0.0
H472 H 0.89504 0.76387 0.66129 0.0
H473 H 0.96796 0.75165 0.57432 0.0
H474 H 0.98719 0.70327 0.56307 0.0
C475 C 0.43482 0.36863 0.27476 0.0
C476 C 0.38423 0.34076 0.2718 0.0
C477 C 0.37339 0.36595 0.18473 0.0
C478 C 0.42454 0.38852 0.18642 0.0
N479 N 0.50362 0.39728 0.22988 0.0
N480 N 0.3059 0.30513 0.2217 0.0
C481 C 0.45526 0.38594 0.23053 0.0
C482 C 0.35354 0.33714 0.22607 0.0
N483 N 0.4633 0.38016 0.31982 0.0
N484 N 0.34383 0.3734 0.14457 0.0
H485 H 0.29032 0.28279 0.25097 0.0
H486 H 0.2831 0.2973 0.18796 0.0
H487 H 0.35712 0.39496 0.11396 0.0
H488 H 0.30646 0.3622 0.14367 0.0
H489 H 0.49965 0.4046 0.32377 0.0
H490 H 0.44946 0.36999 0.35346 0.0
H491 H 0.52634 0.39145 0.26029 0.0
H492 H 0.51981 0.40636 0.19755 0.0
C493 C 0.424 0.59233 0.87705 0.0
C494 C 0.43364 0.64469 0.87293 0.0
C495 C 0.5099 0.66341 0.92933 0.0
C496 C 0.50184 0.61089 0.93115 0.0
N497 N 0.4434 0.52445 0.91918 0.0
N498 N 0.47476 0.72718 0.91026 0.0
C499 C 0.45624 0.57499 0.90941 0.0
C500 C 0.47349 0.67962 0.90351 0.0
N501 N 0.38525 0.55928 0.84742 0.0
N502 N 0.5523 0.69784 0.95252 0.0
H503 H 0.44616 0.73811 0.89557 0.0
H504 H 0.50078 0.75344 0.93508 0.0
H505 H 0.5775 0.68729 0.97608 0.0
H506 H 0.56316 0.73679 0.94711 0.0
H507 H 0.37953 0.52132 0.84299 0.0
H508 H 0.3602 0.57082 0.82469 0.0
H509 H 0.40862 0.49769 0.90898 0.0
H510 H 0.46595 0.50903 0.94049 0.0
C511 C 0.4622 0.33717 0.85947 0.0
C512 C 0.44928 0.3521 0.8106 0.0
C513 C 0.48551 0.44113 0.8379 0.0
C514 C 0.50332 0.42685 0.88541 0.0
N515 N 0.51915 0.36035 0.93495 0.0
N516 N 0.46043 0.41958 0.75071 0.0
C517 C 0.49449 0.37456 0.89459 0.0
C518 C 0.46452 0.4045 0.79911 0.0
N519 N 0.44283 0.28749 0.87303 0.0
N520 N 0.48699 0.48932 0.82984 0.0
H521 H 0.44693 0.39406 0.72105 0.0
H522 H 0.47536 0.45729 0.73979 0.0
H523 H 0.50093 0.51748 0.85696 0.0
H524 H 0.46966 0.49989 0.79771 0.0
H525 H 0.44701 0.2754 0.90961 0.0
H526 H 0.41899 0.25906 0.84868 0.0
H527 H 0.51735 0.32331 0.94049 0.0
H528 H 0.54581 0.38607 0.95968 0.0
C529 C 0.7497 0.41088 0.87224 0.0
C530 C 0.76431 0.43268 0.82644 0.0
C531 C 0.72819 0.49509 0.83219 0.0
C532 C 0.71234 0.47297 0.87784 0.0
N533 N 0.71231 0.41391 0.94483 0.0
N534 N 0.78017 0.50202 0.76949 0.0
C535 C 0.72494 0.4324 0.89931 0.0
C536 C 0.75788 0.4772 0.80887 0.0
N537 N 0.75931 0.36932 0.88911 0.0
N538 N 0.71336 0.53178 0.81006 0.0
H539 H 0.80138 0.48863 0.75143 0.0
H540 H 0.78135 0.53772 0.7577 0.0
H541 H 0.69303 0.54751 0.82641 0.0
H542 H 0.71906 0.54503 0.77422 0.0
H543 H 0.74592 0.34778 0.91953 0.0
H544 H 0.78066 0.35569 0.87161 0.0
H545 H 0.7235 0.38724 0.96454 0.0
H546 H 0.69181 0.42667 0.96444 0.0
C547 C 0.7992 0.65502 0.83385 0.0
C548 C 0.78536 0.68818 0.80007 0.0
C549 C 0.72806 0.69118 0.85332 0.0
C550 C 0.73162 0.64786 0.87865 0.0
N551 N 0.78052 0.59866 0.90466 0.0
N552 N 0.77019 0.76444 0.80565 0.0
C553 C 0.7705 0.63285 0.87268 0.0
C554 C 0.76035 0.71507 0.81868 0.0
N555 N 0.84367 0.65262 0.83463 0.0
N556 N 0.69289 0.70842 0.8605 0.0
H557 H 0.79689 0.78339 0.78308 0.0
H558 H 0.75588 0.78721 0.82136 0.0
H559 H 0.66818 0.69202 0.88561 0.0
H560 H 0.68643 0.73698 0.83881 0.0
H561 H 0.85717 0.63063 0.85938 0.0
H562 H 0.87 0.6794 0.81583 0.0
H563 H 0.80415 0.58129 0.89895 0.0
H564 H 0.76449 0.58759 0.93701 0.0
C565 C 0.68038 0.62236 0.24704 0.0
C566 C 0.7239 0.65533 0.23023 0.0
C567 C 0.69585 0.61337 0.14887 0.0
C568 C 0.64828 0.58775 0.16188 0.0
N569 N 0.59731 0.56679 0.22887 0.0
N570 N 0.77269 0.68479 0.16398 0.0
C571 C 0.6412 0.59149 0.21253 0.0
C572 C 0.73152 0.65167 0.18075 0.0
N573 N 0.67697 0.61878 0.29685 0.0
N574 N 0.70847 0.59774 0.10845 0.0
H575 H 0.80012 0.71218 0.18684 0.0
H576 H 0.77779 0.68727 0.12672 0.0
H577 H 0.68602 0.56423 0.09012 0.0
H578 H 0.74342 0.61264 0.09869 0.0
H579 H 0.64875 0.59076 0.31222 0.0
H580 H 0.70445 0.64074 0.32365 0.0
H581 H 0.58752 0.57955 0.25926 0.0
H582 H 0.57212 0.532 0.21578 0.0
C583 C 0.4469 0.66404 0.19318 0.0
C584 C 0.40021 0.64069 0.20798 0.0
C585 C 0.39203 0.55991 0.17229 0.0
C586 C 0.4388 0.58353 0.15741 0.0
N587 N 0.50464 0.6609 0.14115 0.0
N588 N 0.32163 0.57225 0.19308 0.0
C589 C 0.4643 0.63658 0.16394 0.0
C590 C 0.37056 0.59019 0.19228 0.0
N591 N 0.47538 0.71226 0.20879 0.0
N592 N 0.36877 0.50851 0.16909 0.0
H593 H 0.30379 0.59521 0.20127 0.0
H594 H 0.2981 0.53699 0.17872 0.0
H595 H 0.3832 0.48529 0.15433 0.0
H596 H 0.33707 0.4888 0.18456 0.0
H597 H 0.51197 0.72953 0.20462 0.0
H598 H 0.46304 0.73397 0.22885 0.0
H599 H 0.52227 0.70013 0.14067 0.0
H600 H 0.51769 0.64217 0.11839 0.0
C601 C 0.6855 0.37293 0.12734 0.0
C602 C 0.70785 0.39562 0.17425 0.0
C603 C 0.65466 0.44242 0.16875 0.0
C604 C 0.63299 0.42195 0.12053 0.0
N605 N 0.63311 0.37389 0.05038 0.0
N606 N 0.72436 0.46198 0.23246 0.0
C607 C 0.65037 0.38932 0.09845 0.0
C608 C 0.69633 0.43434 0.19193 0.0
N609 N 0.69772 0.33566 0.11103 0.0
N610 N 0.63354 0.46627 0.19435 0.0
H611 H 0.75458 0.45557 0.25069 0.0
H612 H 0.72056 0.49411 0.24459 0.0
H613 H 0.6002 0.46826 0.18141 0.0
H614 H 0.64574 0.4781 0.23114 0.0
H615 H 0.67968 0.31375 0.07953 0.0
H616 H 0.72535 0.32568 0.13059 0.0
H617 H 0.647 0.35348 0.03073 0.0
H618 H 0.60671 0.38443 0.02905 0.0
loop_
_geom_bond_atom_site_label_1
_geom_bond_atom_site_label_2
_geom_bond_distance
_geom_bond_site_symmetry_2
_ccdc_geom_bond_type
H0 C5 0.929 . S
H1 C10 0.931 . S
H2 C8 0.930 . S
N3 N4 1.234 . S
N3 C7 1.453 . S
N4 N3 1.234 . S
C5 H0 0.929 . S
C5 C6 1.373 . S
C5 C7 1.368 . S
C6 C5 1.373 . S
C6 C10 1.397 . S
C7 N3 1.453 . S
C7 C5 1.368 . S
C7 C8 1.373 . S
C8 H2 0.930 . S
C8 C7 1.373 . S
C8 C9 1.371 . S
C9 C8 1.371 . S
C9 C10 1.383 . S
C10 H1 0.931 . S
C10 C6 1.397 . S
C10 C9 1.383 . S
H11 C16 0.929 . S
H12 C21 0.931 . S
H13 C19 0.930 . S
N14 N15 1.234 . S
N14 C18 1.453 . S
N15 N14 1.234 . S
C16 H11 0.929 . S
C16 C17 1.373 . S
C16 C18 1.368 . S
C17 C16 1.373 . S
C17 C21 1.397 . S
C18 N14 1.453 . S
C18 C16 1.368 . S
C18 C19 1.373 . S
C19 H13 0.930 . S
C19 C18 1.373 . S
C19 C20 1.371 . S
C20 C19 1.371 . S
C20 C21 1.383 . S
C21 H12 0.931 . S
C21 C17 1.397 . S
C21 C20 1.383 . S
H22 C27 0.929 . S
H23 C32 0.931 . S
H24 C30 0.930 . S
N25 N26 1.234 . S
N25 C29 1.453 . S
N26 N25 1.234 . S
C27 H22 0.929 . S
C27 C28 1.373 . S
C27 C29 1.368 . S
C28 C27 1.373 . S
C28 C32 1.397 . S
C29 N25 1.453 . S
C29 C27 1.368 . S
C29 C30 1.373 . S
C30 H24 0.930 . S
C30 C29 1.373 . S
C30 C31 1.371 . S
C31 C30 1.371 . S
C31 C32 1.383 . S
C32 H23 0.931 . S
C32 C28 1.397 . S
C32 C31 1.383 . S
H33 C38 0.929 . S
H34 C43 0.931 . S
H35 C41 0.930 . S
N36 N37 1.234 . S
N36 C40 1.453 . S
N37 N36 1.234 . S
C38 H33 0.929 . S
C38 C39 1.373 . S
C38 C40 1.368 . S
C39 C38 1.373 . S
C39 C43 1.397 . S
C40 N36 1.453 . S
C40 C38 1.368 . S
C40 C41 1.373 . S
C41 H35 0.930 . S
C41 C40 1.373 . S
C41 C42 1.371 . S
C42 C41 1.371 . S
C42 C43 1.383 . S
C43 H34 0.931 . S
C43 C39 1.397 . S
C43 C42 1.383 . S
H44 C49 0.929 . S
H45 C54 0.931 . S
H46 C52 0.930 . S
N47 N48 1.234 . S
N47 C51 1.453 . S
N48 N47 1.234 . S
C49 H44 0.929 . S
C49 C50 1.373 . S
C49 C51 1.368 . S
C50 C49 1.373 . S
C50 C54 1.397 . S
C51 N47 1.453 . S
C51 C49 1.368 . S
C51 C52 1.373 . S
C52 H46 0.930 . S
C52 C51 1.373 . S
C52 C53 1.371 . S
C53 C52 1.371 . S
C53 C54 1.383 . S
C54 H45 0.931 . S
C54 C50 1.397 . S
C54 C53 1.383 . S
H55 C60 0.929 . S
H56 C65 0.931 . S
H57 C63 0.930 . S
N58 N59 1.234 . S
N58 C62 1.453 . S
N59 N58 1.234 . S
C60 H55 0.929 . S
C60 C61 1.373 . S
C60 C62 1.368 . S
C61 C60 1.373 . S
C61 C65 1.397 . S
C62 N58 1.453 . S
C62 C60 1.368 . S
C62 C63 1.373 . S
C63 H57 0.930 . S
C63 C62 1.373 . S
C63 C64 1.371 . S
C64 C63 1.371 . S
C64 C65 1.383 . S
C65 H56 0.931 . S
C65 C61 1.397 . S
C65 C64 1.383 . S
H66 C71 0.929 . S
H67 C76 0.931 . S
H68 C74 0.930 . S
N69 N70 1.234 . S
N69 C73 1.453 . S
N70 N69 1.234 . S
C71 H66 0.929 . S
C71 C72 1.373 . S
C71 C73 1.368 . S
C72 C71 1.373 . S
C72 C76 1.397 . S
C73 N69 1.453 . S
C73 C71 1.368 . S
C73 C74 1.373 . S
C74 H68 0.930 . S
C74 C73 1.373 . S
C74 C75 1.371 . S
C75 C74 1.371 . S
C75 C76 1.383 . S
C76 H67 0.931 . S
C76 C72 1.397 . S
C76 C75 1.383 . S
H77 C82 0.929 . S
H78 C87 0.931 . S
H79 C85 0.930 . S
N80 N81 1.234 . S
N80 C84 1.453 . S
N81 N80 1.234 . S
C82 H77 0.929 . S
C82 C83 1.373 . S
C82 C84 1.368 . S
C83 C82 1.373 . S
C83 C87 1.397 . S
C84 N80 1.453 . S
C84 C82 1.368 . S
C84 C85 1.373 . S
C85 H79 0.930 . S
C85 C84 1.373 . S
C85 C86 1.371 . S
C86 C85 1.371 . S
C86 C87 1.383 . S
C87 H78 0.931 . S
C87 C83 1.397 . S
C87 C86 1.383 . S
Co88 O91 2.042 . S
Co88 O98 2.264 . S
Co88 O117 2.286 . S
Co88 O118 2.069 . S
Co88 O120 2.015 . S
Co89 O91 2.122 . S
Co89 O97 2.073 . S
Co89 O98 2.327 . S
Co89 O99 1.976 . S
Co90 O91 2.087 . S
Co90 O93 2.087 1_455 S
Co90 O100 2.111 . S
Co90 O101 2.143 1_455 S
Co90 O105 2.111 1_455 S
Co90 O119 2.143 . S
O91 Co88 2.042 . S
O91 Co89 2.122 . S
O91 Co90 2.087 . S
O91 H92 0.980 . S
H92 O91 0.980 . S
O93 Co90 2.087 1_655 S
O93 Co94 2.042 . S
O93 Co95 2.122 . S
O93 H96 0.980 1_655 S
Co94 O93 2.042 . S
Co94 O102 2.286 . S
Co94 O103 2.069 . S
Co94 O104 2.015 . S
Co94 O107 2.264 . S
Co95 O93 2.122 . S
Co95 O106 1.976 . S
Co95 O107 2.327 . S
Co95 O108 2.073 . S
H96 O93 0.980 1_455 S
O97 Co89 2.073 . S
O97 C112 1.245 . S
O98 Co88 2.264 . S
O98 Co89 2.327 . S
O98 C112 1.257 . S
O99 Co89 1.976 . S
O99 C111 1.251 . S
O100 Co90 2.111 . S
O100 C111 1.274 . S
O101 Co90 2.143 1_655 S
O101 C114 1.246 . S
O102 Co94 2.286 . S
O102 C113 1.259 . S
O103 Co94 2.069 . S
O103 C113 1.289 . S
O104 Co94 2.015 . S
O104 C114 1.257 . S
O105 Co90 2.111 1_655 S
O105 C115 1.274 . S
O106 Co95 1.976 . S
O106 C115 1.251 . S
O107 Co94 2.264 . S
O107 Co95 2.327 . S
O107 C116 1.257 . S
O108 Co95 2.073 . S
O108 C116 1.245 . S
C109 O117 1.259 . S
C109 O118 1.289 . S
C110 O119 1.246 . S
C110 O120 1.257 . S
C111 O99 1.251 . S
C111 O100 1.274 . S
C112 O97 1.245 . S
C112 O98 1.257 . S
C113 O102 1.259 . S
C113 O103 1.289 . S
C114 O101 1.246 . S
C114 O104 1.257 . S
C115 O105 1.274 . S
C115 O106 1.251 . S
C116 O107 1.257 . S
C116 O108 1.245 . S
O117 Co88 2.286 . S
O117 C109 1.259 . S
O118 Co88 2.069 . S
O118 C109 1.289 . S
O119 Co90 2.143 . S
O119 C110 1.246 . S
O120 Co88 2.015 . S
O120 C110 1.257 . S
Co121 O124 2.042 . S
Co121 O131 2.264 . S
Co121 O150 2.286 . S
Co121 O151 2.069 . S
Co121 O153 2.015 . S
Co122 O124 2.122 . S
Co122 O130 2.073 . S
Co122 O131 2.327 . S
Co122 O132 1.976 . S
Co123 O124 2.087 1_545 S
Co123 O126 2.087 . S
Co123 O133 2.111 1_545 S
Co123 O134 2.143 . S
Co123 O138 2.111 . S
Co123 O152 2.143 1_545 S
O124 Co121 2.042 . S
O124 Co122 2.122 . S
O124 Co123 2.087 1_565 S
O124 H125 0.980 1_565 S
H125 O124 0.980 1_545 S
O126 Co123 2.087 . S
O126 Co127 2.042 . S
O126 Co128 2.122 . S
O126 H129 0.980 . S
Co127 O126 2.042 . S
Co127 O135 2.286 . S
Co127 O136 2.069 . S
Co127 O137 2.015 . S
Co127 O140 2.264 . S
Co128 O126 2.122 . S
Co128 O139 1.976 . S
Co128 O140 2.327 . S
Co128 O141 2.073 . S
H129 O126 0.980 . S
O130 Co122 2.073 . S
O130 C145 1.245 . S
O131 Co121 2.264 . S
O131 Co122 2.327 . S
O131 C145 1.257 . S
O132 Co122 1.976 . S
O132 C144 1.251 . S
O133 Co123 2.111 1_565 S
O133 C144 1.274 . S
O134 Co123 2.143 . S
O134 C147 1.246 . S
O135 Co127 2.286 . S
O135 C146 1.259 . S
O136 Co127 2.069 . S
O136 C146 1.289 . S
O137 Co127 2.015 . S
O137 C147 1.257 . S
O138 Co123 2.111 . S
O138 C148 1.274 . S
O139 Co128 1.976 . S
O139 C148 1.251 . S
O140 Co127 2.264 . S
O140 Co128 2.327 . S
O140 C149 1.257 . S
O141 Co128 2.073 . S
O141 C149 1.245 . S
C142 O150 1.259 . S
C142 O151 1.289 . S
C143 O152 1.246 . S
C143 O153 1.257 . S
C144 O132 1.251 . S
C144 O133 1.274 . S
C145 O130 1.245 . S
C145 O131 1.257 . S
C146 O135 1.259 . S
C146 O136 1.289 . S
C147 O134 1.246 . S
C147 O137 1.257 . S
C148 O138 1.274 . S
C148 O139 1.251 . S
C149 O140 1.257 . S
C149 O141 1.245 . S
O150 Co121 2.286 . S
O150 C142 1.259 . S
O151 Co121 2.069 . S
O151 C142 1.289 . S
O152 Co123 2.143 1_565 S
O152 C143 1.246 . S
O153 Co121 2.015 . S
O153 C143 1.257 . S
Co154 O157 2.042 . S
Co154 O164 2.264 . S
Co154 O183 2.286 . S
Co154 O184 2.069 . S
Co154 O186 2.015 . S
Co155 O157 2.122 . S
Co155 O163 2.073 . S
Co155 O164 2.327 . S
Co155 O165 1.976 . S
Co156 O157 2.087 . S
Co156 O159 2.087 1_554 S
Co156 O166 2.111 . S
Co156 O167 2.143 1_554 S
Co156 O171 2.111 1_554 S
Co156 O185 2.143 . S
O157 Co154 2.042 . S
O157 Co155 2.122 . S
O157 Co156 2.087 . S
O157 H158 0.980 . S
H158 O157 0.980 . S
O159 Co156 2.087 1_556 S
O159 Co160 2.042 . S
O159 Co161 2.122 . S
O159 H162 0.980 . S
Co160 O159 2.042 . S
Co160 O168 2.286 . S
Co160 O169 2.069 . S
Co160 O170 2.015 . S
Co160 O173 2.264 . S
Co161 O159 2.122 . S
Co161 O172 1.976 . S
Co161 O173 2.327 . S
Co161 O174 2.073 . S
H162 O159 0.980 . S
O163 Co155 2.073 . S
O163 C178 1.245 . S
O164 Co154 2.264 . S
O164 Co155 2.327 . S
O164 C178 1.257 . S
O165 Co155 1.976 . S
O165 C177 1.251 . S
O166 Co156 2.111 . S
O166 C177 1.274 . S
O167 Co156 2.143 1_556 S
O167 C180 1.246 . S
O168 Co160 2.286 . S
O168 C179 1.259 . S
O169 Co160 2.069 . S
O169 C179 1.289 . S
O170 Co160 2.015 . S
O170 C180 1.257 . S
O171 Co156 2.111 1_556 S
O171 C181 1.274 . S
O172 Co161 1.976 . S
O172 C181 1.251 . S
O173 Co160 2.264 . S
O173 Co161 2.327 . S
O173 C182 1.257 . S
O174 Co161 2.073 . S
O174 C182 1.245 . S
C175 O183 1.259 . S
C175 O184 1.289 . S
C176 O185 1.246 . S
C176 O186 1.257 . S
C177 O165 1.251 . S
C177 O166 1.274 . S
C178 O163 1.245 . S
C178 O164 1.257 . S
C179 O168 1.259 . S
C179 O169 1.289 . S
C180 O167 1.246 . S
C180 O170 1.257 . S
C181 O171 1.274 . S
C181 O172 1.251 . S
C182 O173 1.257 . S
C182 O174 1.245 . S
O183 Co154 2.286 . S
O183 C175 1.259 . S
O184 Co154 2.069 . S
O184 C175 1.289 . S
O185 Co156 2.143 . S
O185 C176 1.246 . S
O186 Co154 2.015 . S
O186 C176 1.257 . S
C187 C188 1.363 . S
C187 C193 1.379 . S
C187 N195 1.356 . S
C188 C187 1.363 . S
C188 C194 1.363 . S
C189 C190 1.363 . S
C189 C194 1.379 . S
C189 N196 1.356 . S
C190 C189 1.363 . S
C190 C193 1.363 . S
N191 C193 1.356 . S
N191 H203 0.984 . S
N191 H204 0.985 . S
N192 C194 1.356 . S
N192 H197 0.984 . S
N192 H198 0.985 . S
C193 C187 1.379 . S
C193 C190 1.363 . S
C193 N191 1.356 . S
C194 C188 1.363 . S
C194 C189 1.379 . S
C194 N192 1.356 . S
N195 C187 1.356 . S
N195 H201 0.984 . S
N195 H202 0.984 . S
N196 C189 1.356 . S
N196 H199 0.984 . S
N196 H200 0.985 . S
H197 N192 0.984 . S
H198 N192 0.985 . S
H199 N196 0.984 . S
H200 N196 0.985 . S
H201 N195 0.984 . S
H202 N195 0.984 . S
H203 N191 0.984 . S
H204 N191 0.985 . S
C205 C206 1.363 . S
C205 C211 1.379 . S
C205 N213 1.356 . S
C206 C205 1.363 . S
C206 C212 1.363 . S
C207 C208 1.363 . S
C207 C212 1.379 . S
C207 N214 1.356 . S
C208 C207 1.363 . S
C208 C211 1.363 . S
N209 C211 1.356 . S
N209 H221 0.984 . S
N209 H222 0.985 . S
N210 C212 1.356 . S
N210 H215 0.984 . S
N210 H216 0.985 . S
C211 C205 1.379 . S
C211 C208 1.363 . S
C211 N209 1.356 . S
C212 C206 1.363 . S
C212 C207 1.379 . S
C212 N210 1.356 . S
N213 C205 1.356 . S
N213 H219 0.984 . S
N213 H220 0.984 . S
N214 C207 1.356 . S
N214 H217 0.984 . S
N214 H218 0.985 . S
H215 N210 0.984 . S
H216 N210 0.985 . S
H217 N214 0.984 . S
H218 N214 0.985 . S
H219 N213 0.984 . S
H220 N213 0.984 . S
H221 N209 0.984 . S
H222 N209 0.985 . S
C223 C224 1.363 . S
C223 C229 1.379 . S
C223 N231 1.356 . S
C224 C223 1.363 . S
C224 C230 1.363 . S
C225 C226 1.363 . S
C225 C230 1.379 . S
C225 N232 1.356 . S
C226 C225 1.363 . S
C226 C229 1.363 . S
N227 C229 1.356 . S
N227 H239 0.984 . S
N227 H240 0.985 . S
N228 C230 1.356 . S
N228 H233 0.984 . S
N228 H234 0.985 . S
C229 C223 1.379 . S
C229 C226 1.363 . S
C229 N227 1.356 . S
C230 C224 1.363 . S
C230 C225 1.379 . S
C230 N228 1.356 . S
N231 C223 1.356 . S
N231 H237 0.984 . S
N231 H238 0.984 . S
N232 C225 1.356 . S
N232 H235 0.984 . S
N232 H236 0.985 . S
H233 N228 0.984 . S
H234 N228 0.985 . S
H235 N232 0.984 . S
H236 N232 0.985 . S
H237 N231 0.984 . S
H238 N231 0.984 . S
H239 N227 0.984 . S
H240 N227 0.985 . S
C241 C242 1.363 . S
C241 C247 1.379 . S
C241 N249 1.356 . S
C242 C241 1.363 . S
C242 C248 1.363 . S
C243 C244 1.363 . S
C243 C248 1.379 . S
C243 N250 1.356 . S
C244 C243 1.363 . S
C244 C247 1.363 . S
N245 C247 1.356 . S
N245 H257 0.984 . S
N245 H258 0.985 . S
N246 C248 1.356 . S
N246 H251 0.984 . S
N246 H252 0.985 . S
C247 C241 1.379 . S
C247 C244 1.363 . S
C247 N245 1.356 . S
C248 C242 1.363 . S
C248 C243 1.379 . S
C248 N246 1.356 . S
N249 C241 1.356 . S
N249 H255 0.984 . S
N249 H256 0.984 . S
N250 C243 1.356 . S
N250 H253 0.984 . S
N250 H254 0.985 . S
H251 N246 0.984 . S
H252 N246 0.985 . S
H253 N250 0.984 . S
H254 N250 0.985 . S
H255 N249 0.984 . S
H256 N249 0.984 . S
H257 N245 0.984 . S
H258 N245 0.985 . S
C259 C260 1.363 . S
C259 C265 1.379 . S
C259 N267 1.356 . S
C260 C259 1.363 . S
C260 C266 1.363 . S
C261 C262 1.363 . S
C261 C266 1.379 . S
C261 N268 1.356 . S
C262 C261 1.363 . S
C262 C265 1.363 . S
N263 C265 1.356 . S
N263 H275 0.984 . S
N263 H276 0.985 . S
N264 C266 1.356 . S
N264 H269 0.984 . S
N264 H270 0.985 . S
C265 C259 1.379 . S
C265 C262 1.363 . S
C265 N263 1.356 . S
C266 C260 1.363 . S
C266 C261 1.379 . S
C266 N264 1.356 . S
N267 C259 1.356 . S
N267 H273 0.984 . S
N267 H274 0.984 . S
N268 C261 1.356 . S
N268 H271 0.984 . S
N268 H272 0.985 . S
H269 N264 0.984 . S
H270 N264 0.985 . S
H271 N268 0.984 . S
H272 N268 0.985 . S
H273 N267 0.984 . S
H274 N267 0.984 . S
H275 N263 0.984 . S
H276 N263 0.985 . S
C277 C278 1.363 . S
C277 C283 1.379 . S
C277 N285 1.356 . S
C278 C277 1.363 . S
C278 C284 1.363 . S
C279 C280 1.363 . S
C279 C284 1.379 . S
C279 N286 1.356 . S
C280 C279 1.363 . S
C280 C283 1.363 . S
N281 C283 1.356 . S
N281 H293 0.984 . S
N281 H294 0.985 . S
N282 C284 1.356 . S
N282 H287 0.984 . S
N282 H288 0.985 . S
C283 C277 1.379 . S
C283 C280 1.363 . S
C283 N281 1.356 . S
C284 C278 1.363 . S
C284 C279 1.379 . S
C284 N282 1.356 . S
N285 C277 1.356 . S
N285 H291 0.984 . S
N285 H292 0.984 . S
N286 C279 1.356 . S
N286 H289 0.984 . S
N286 H290 0.985 . S
H287 N282 0.984 . S
H288 N282 0.985 . S
H289 N286 0.984 . S
H290 N286 0.985 . S
H291 N285 0.984 . S
H292 N285 0.984 . S
H293 N281 0.984 . S
H294 N281 0.985 . S
C295 C296 1.363 . S
C295 C301 1.379 . S
C295 N303 1.356 . S
C296 C295 1.363 . S
C296 C302 1.363 . S
C297 C298 1.363 . S
C297 C302 1.379 . S
C297 N304 1.356 . S
C298 C297 1.363 . S
C298 C301 1.363 . S
N299 C301 1.356 . S
N299 H311 0.984 . S
N299 H312 0.985 . S
N300 C302 1.356 . S
N300 H305 0.984 . S
N300 H306 0.985 . S
C301 C295 1.379 . S
C301 C298 1.363 . S
C301 N299 1.356 . S
C302 C296 1.363 . S
C302 C297 1.379 . S
C302 N300 1.356 . S
N303 C295 1.356 . S
N303 H309 0.984 . S
N303 H310 0.984 . S
N304 C297 1.356 . S
N304 H307 0.984 . S
N304 H308 0.985 . S
H305 N300 0.984 . S
H306 N300 0.985 . S
H307 N304 0.984 . S
H308 N304 0.985 . S
H309 N303 0.984 . S
H310 N303 0.984 . S
H311 N299 0.984 . S
H312 N299 0.985 . S
C313 C314 1.363 . S
C313 C319 1.379 . S
C313 N321 1.356 . S
C314 C313 1.363 . S
C314 C320 1.363 . S
C315 C316 1.363 . S
C315 C320 1.379 . S
C315 N322 1.356 . S
C316 C315 1.363 . S
C316 C319 1.363 . S
N317 C319 1.356 . S
N317 H329 0.984 . S
N317 H330 0.985 . S
N318 C320 1.356 . S
N318 H323 0.984 . S
N318 H324 0.985 . S
C319 C313 1.379 . S
C319 C316 1.363 . S
C319 N317 1.356 . S
C320 C314 1.363 . S
C320 C315 1.379 . S
C320 N318 1.356 . S
N321 C313 1.356 . S
N321 H327 0.984 . S
N321 H328 0.984 . S
N322 C315 1.356 . S
N322 H325 0.984 . S
N322 H326 0.985 . S
H323 N318 0.984 . S
H324 N318 0.985 . S
H325 N322 0.984 . S
H326 N322 0.985 . S
H327 N321 0.984 . S
H328 N321 0.984 . S
H329 N317 0.984 . S
H330 N317 0.985 . S
C331 C332 1.363 . S
C331 C337 1.379 . S
C331 N339 1.356 . S
C332 C331 1.363 . S
C332 C338 1.363 . S
C333 C334 1.363 . S
C333 C338 1.379 . S
C333 N340 1.356 . S
C334 C333 1.363 . S
C334 C337 1.363 . S
N335 C337 1.356 . S
N335 H347 0.984 . S
N335 H348 0.985 . S
N336 C338 1.356 . S
N336 H341 0.984 . S
N336 H342 0.985 . S
C337 C331 1.379 . S
C337 C334 1.363 . S
C337 N335 1.356 . S
C338 C332 1.363 . S
C338 C333 1.379 . S
C338 N336 1.356 . S
N339 C331 1.356 . S
N339 H345 0.984 . S
N339 H346 0.984 . S
N340 C333 1.356 . S
N340 H343 0.984 . S
N340 H344 0.985 . S
H341 N336 0.984 . S
H342 N336 0.985 . S
H343 N340 0.984 . S
H344 N340 0.985 . S
H345 N339 0.984 . S
H346 N339 0.984 . S
H347 N335 0.984 . S
H348 N335 0.985 . S
C349 C350 1.363 . S
C349 C355 1.379 . S
C349 N357 1.356 . S
C350 C349 1.363 . S
C350 C356 1.363 . S
C351 C352 1.363 . S
C351 C356 1.379 . S
C351 N358 1.356 . S
C352 C351 1.363 . S
C352 C355 1.363 . S
N353 C355 1.356 . S
N353 H365 0.984 . S
N353 H366 0.985 . S
N354 C356 1.356 . S
N354 H359 0.984 . S
N354 H360 0.985 . S
C355 C349 1.379 . S
C355 C352 1.363 . S
C355 N353 1.356 . S
C356 C350 1.363 . S
C356 C351 1.379 . S
C356 N354 1.356 . S
N357 C349 1.356 . S
N357 H363 0.984 . S
N357 H364 0.984 . S
N358 C351 1.356 . S
N358 H361 0.984 . S
N358 H362 0.985 . S
H359 N354 0.984 . S
H360 N354 0.985 . S
H361 N358 0.984 . S
H362 N358 0.985 . S
H363 N357 0.984 . S
H364 N357 0.984 . S
H365 N353 0.984 . S
H366 N353 0.985 . S
C367 C368 1.363 . S
C367 C373 1.379 . S
C367 N375 1.356 . S
C368 C367 1.363 . S
C368 C374 1.363 . S
C369 C370 1.363 . S
C369 C374 1.379 . S
C369 N376 1.356 . S
C370 C369 1.363 . S
C370 C373 1.363 . S
N371 C373 1.356 . S
N371 H383 0.984 . S
N371 H384 0.985 . S
N372 C374 1.356 . S
N372 H377 0.984 . S
N372 H378 0.985 . S
C373 C367 1.379 . S
C373 C370 1.363 . S
C373 N371 1.356 . S
C374 C368 1.363 . S
C374 C369 1.379 . S
C374 N372 1.356 . S
N375 C367 1.356 . S
N375 H381 0.984 . S
N375 H382 0.984 . S
N376 C369 1.356 . S
N376 H379 0.984 . S
N376 H380 0.985 . S
H377 N372 0.984 . S
H378 N372 0.985 . S
H379 N376 0.984 . S
H380 N376 0.985 . S
H381 N375 0.984 . S
H382 N375 0.984 . S
H383 N371 0.984 . S
H384 N371 0.985 . S
C385 C386 1.363 . S
C385 C391 1.379 . S
C385 N393 1.356 . S
C386 C385 1.363 . S
C386 C392 1.363 . S
C387 C388 1.363 . S
C387 C392 1.379 . S
C387 N394 1.356 . S
C388 C387 1.363 . S
C388 C391 1.363 . S
N389 C391 1.356 . S
N389 H401 0.984 . S
N389 H402 0.985 . S
N390 C392 1.356 . S
N390 H395 0.984 . S
N390 H396 0.985 . S
C391 C385 1.379 . S
C391 C388 1.363 . S
C391 N389 1.356 . S
C392 C386 1.363 . S
C392 C387 1.379 . S
C392 N390 1.356 . S
N393 C385 1.356 . S
N393 H399 0.984 . S
N393 H400 0.984 . S
N394 C387 1.356 . S
N394 H397 0.984 . S
N394 H398 0.985 . S
H395 N390 0.984 . S
H396 N390 0.985 . S
H397 N394 0.984 . S
H398 N394 0.985 . S
H399 N393 0.984 . S
H400 N393 0.984 . S
H401 N389 0.984 . S
H402 N389 0.985 . S
C403 C404 1.363 . S
C403 C409 1.379 . S
C403 N411 1.356 . S
C404 C403 1.363 . S
C404 C410 1.363 . S
C405 C406 1.363 . S
C405 C410 1.379 . S
C405 N412 1.356 . S
C406 C405 1.363 . S
C406 C409 1.363 . S
N407 C409 1.356 . S
N407 H419 0.984 . S
N407 H420 0.985 . S
N408 C410 1.356 . S
N408 H413 0.984 . S
N408 H414 0.985 . S
C409 C403 1.379 . S
C409 C406 1.363 . S
C409 N407 1.356 . S
C410 C404 1.363 . S
C410 C405 1.379 . S
C410 N408 1.356 . S
N411 C403 1.356 . S
N411 H417 0.984 . S
N411 H418 0.984 . S
N412 C405 1.356 . S
N412 H415 0.984 . S
N412 H416 0.985 . S
H413 N408 0.984 . S
H414 N408 0.985 . S
H415 N412 0.984 . S
H416 N412 0.985 . S
H417 N411 0.984 . S
H418 N411 0.984 . S
H419 N407 0.984 . S
H420 N407 0.985 . S
C421 C422 1.363 . S
C421 C427 1.379 . S
C421 N429 1.356 . S
C422 C421 1.363 . S
C422 C428 1.363 . S
C423 C424 1.363 . S
C423 C428 1.379 . S
C423 N430 1.356 . S
C424 C423 1.363 . S
C424 C427 1.363 . S
N425 C427 1.356 . S
N425 H437 0.984 . S
N425 H438 0.985 . S
N426 C428 1.356 . S
N426 H431 0.984 . S
N426 H432 0.985 . S
C427 C421 1.379 . S
C427 C424 1.363 . S
C427 N425 1.356 . S
C428 C422 1.363 . S
C428 C423 1.379 . S
C428 N426 1.356 . S
N429 C421 1.356 . S
N429 H435 0.984 . S
N429 H436 0.984 . S
N430 C423 1.356 . S
N430 H433 0.984 . S
N430 H434 0.985 . S
H431 N426 0.984 . S
H432 N426 0.985 . S
H433 N430 0.984 . S
H434 N430 0.985 . S
H435 N429 0.984 . S
H436 N429 0.984 . S
H437 N425 0.984 . S
H438 N425 0.985 . S
C439 C440 1.363 . S
C439 C445 1.379 . S
C439 N447 1.356 . S
C440 C439 1.363 . S
C440 C446 1.363 . S
C441 C442 1.363 . S
C441 C446 1.379 . S
C441 N448 1.356 . S
C442 C441 1.363 . S
C442 C445 1.363 . S
N443 C445 1.356 . S
N443 H455 0.984 . S
N443 H456 0.985 . S
N444 C446 1.356 . S
N444 H449 0.984 . S
N444 H450 0.985 . S
C445 C439 1.379 . S
C445 C442 1.363 . S
C445 N443 1.356 . S
C446 C440 1.363 . S
C446 C441 1.379 . S
C446 N444 1.356 . S
N447 C439 1.356 . S
N447 H453 0.984 . S
N447 H454 0.984 . S
N448 C441 1.356 . S
N448 H451 0.984 . S
N448 H452 0.985 . S
H449 N444 0.984 . S
H450 N444 0.985 . S
H451 N448 0.984 . S
H452 N448 0.985 . S
H453 N447 0.984 . S
H454 N447 0.984 . S
H455 N443 0.984 . S
H456 N443 0.985 . S
C457 C458 1.363 . S
C457 C463 1.379 . S
C457 N465 1.356 . S
C458 C457 1.363 . S
C458 C464 1.363 . S
C459 C460 1.363 . S
C459 C464 1.379 . S
C459 N466 1.356 . S
C460 C459 1.363 . S
C460 C463 1.363 . S
N461 C463 1.356 . S
N461 H473 0.984 . S
N461 H474 0.985 . S
N462 C464 1.356 . S
N462 H467 0.984 . S
N462 H468 0.985 . S
C463 C457 1.379 . S
C463 C460 1.363 . S
C463 N461 1.356 . S
C464 C458 1.363 . S
C464 C459 1.379 . S
C464 N462 1.356 . S
N465 C457 1.356 . S
N465 H471 0.984 . S
N465 H472 0.984 . S
N466 C459 1.356 . S
N466 H469 0.984 . S
N466 H470 0.985 . S
H467 N462 0.984 . S
H468 N462 0.985 . S
H469 N466 0.984 . S
H470 N466 0.985 . S
H471 N465 0.984 . S
H472 N465 0.984 . S
H473 N461 0.984 . S
H474 N461 0.985 . S
C475 C476 1.363 . S
C475 C481 1.379 . S
C475 N483 1.356 . S
C476 C475 1.363 . S
C476 C482 1.363 . S
C477 C478 1.363 . S
C477 C482 1.379 . S
C477 N484 1.356 . S
C478 C477 1.363 . S
C478 C481 1.363 . S
N479 C481 1.356 . S
N479 H491 0.984 . S
N479 H492 0.985 . S
N480 C482 1.356 . S
N480 H485 0.984 . S
N480 H486 0.985 . S
C481 C475 1.379 . S
C481 C478 1.363 . S
C481 N479 1.356 . S
C482 C476 1.363 . S
C482 C477 1.379 . S
C482 N480 1.356 . S
N483 C475 1.356 . S
N483 H489 0.984 . S
N483 H490 0.984 . S
N484 C477 1.356 . S
N484 H487 0.984 . S
N484 H488 0.985 . S
H485 N480 0.984 . S
H486 N480 0.985 . S
H487 N484 0.984 . S
H488 N484 0.985 . S
H489 N483 0.984 . S
H490 N483 0.984 . S
H491 N479 0.984 . S
H492 N479 0.985 . S
C493 C494 1.363 . S
C493 C499 1.379 . S
C493 N501 1.356 . S
C494 C493 1.363 . S
C494 C500 1.363 . S
C495 C496 1.363 . S
C495 C500 1.379 . S
C495 N502 1.356 . S
C496 C495 1.363 . S
C496 C499 1.363 . S
N497 C499 1.356 . S
N497 H509 0.984 . S
N497 H510 0.985 . S
N498 C500 1.356 . S
N498 H503 0.984 . S
N498 H504 0.985 . S
C499 C493 1.379 . S
C499 C496 1.363 . S
C499 N497 1.356 . S
C500 C494 1.363 . S
C500 C495 1.379 . S
C500 N498 1.356 . S
N501 C493 1.356 . S
N501 H507 0.984 . S
N501 H508 0.984 . S
N502 C495 1.356 . S
N502 H505 0.984 . S
N502 H506 0.985 . S
H503 N498 0.984 . S
H504 N498 0.985 . S
H505 N502 0.984 . S
H506 N502 0.985 . S
H507 N501 0.984 . S
H508 N501 0.984 . S
H509 N497 0.984 . S
H510 N497 0.985 . S
C511 C512 1.363 . S
C511 C517 1.379 . S
C511 N519 1.356 . S
C512 C511 1.363 . S
C512 C518 1.363 . S
C513 C514 1.363 . S
C513 C518 1.379 . S
C513 N520 1.356 . S
C514 C513 1.363 . S
C514 C517 1.363 . S
N515 C517 1.356 . S
N515 H527 0.984 . S
N515 H528 0.985 . S
N516 C518 1.356 . S
N516 H521 0.984 . S
N516 H522 0.985 . S
C517 C511 1.379 . S
C517 C514 1.363 . S
C517 N515 1.356 . S
C518 C512 1.363 . S
C518 C513 1.379 . S
C518 N516 1.356 . S
N519 C511 1.356 . S
N519 H525 0.984 . S
N519 H526 0.984 . S
N520 C513 1.356 . S
N520 H523 0.984 . S
N520 H524 0.985 . S
H521 N516 0.984 . S
H522 N516 0.985 . S
H523 N520 0.984 . S
H524 N520 0.985 . S
H525 N519 0.984 . S
H526 N519 0.984 . S
H527 N515 0.984 . S
H528 N515 0.985 . S
C529 C530 1.363 . S
C529 C535 1.379 . S
C529 N537 1.356 . S
C530 C529 1.363 . S
C530 C536 1.363 . S
C531 C532 1.363 . S
C531 C536 1.379 . S
C531 N538 1.356 . S
C532 C531 1.363 . S
C532 C535 1.363 . S
N533 C535 1.356 . S
N533 H545 0.984 . S
N533 H546 0.985 . S
N534 C536 1.356 . S
N534 H539 0.984 . S
N534 H540 0.985 . S
C535 C529 1.379 . S
C535 C532 1.363 . S
C535 N533 1.356 . S
C536 C530 1.363 . S
C536 C531 1.379 . S
C536 N534 1.356 . S
N537 C529 1.356 . S
N537 H543 0.984 . S
N537 H544 0.984 . S
N538 C531 1.356 . S
N538 H541 0.984 . S
N538 H542 0.985 . S
H539 N534 0.984 . S
H540 N534 0.985 . S
H541 N538 0.984 . S
H542 N538 0.985 . S
H543 N537 0.984 . S
H544 N537 0.984 . S
H545 N533 0.984 . S
H546 N533 0.985 . S
C547 C548 1.363 . S
C547 C553 1.379 . S
C547 N555 1.356 . S
C548 C547 1.363 . S
C548 C554 1.363 . S
C549 C550 1.363 . S
C549 C554 1.379 . S
C549 N556 1.356 . S
C550 C549 1.363 . S
C550 C553 1.363 . S
N551 C553 1.356 . S
N551 H563 0.984 . S
N551 H564 0.985 . S
N552 C554 1.356 . S
N552 H557 0.984 . S
N552 H558 0.985 . S
C553 C547 1.379 . S
C553 C550 1.363 . S
C553 N551 1.356 . S
C554 C548 1.363 . S
C554 C549 1.379 . S
C554 N552 1.356 . S
N555 C547 1.356 . S
N555 H561 0.984 . S
N555 H562 0.984 . S
N556 C549 1.356 . S
N556 H559 0.984 . S
N556 H560 0.985 . S
H557 N552 0.984 . S
H558 N552 0.985 . S
H559 N556 0.984 . S
H560 N556 0.985 . S
H561 N555 0.984 . S
H562 N555 0.984 . S
H563 N551 0.984 . S
H564 N551 0.985 . S
C565 C566 1.363 . S
C565 C571 1.379 . S
C565 N573 1.356 . S
C566 C565 1.363 . S
C566 C572 1.363 . S
C567 C568 1.363 . S
C567 C572 1.379 . S
C567 N574 1.356 . S
C568 C567 1.363 . S
C568 C571 1.363 . S
N569 C571 1.356 . S
N569 H581 0.984 . S
N569 H582 0.985 . S
N570 C572 1.356 . S
N570 H575 0.984 . S
N570 H576 0.985 . S
C571 C565 1.379 . S
C571 C568 1.363 . S
C571 N569 1.356 . S
C572 C566 1.363 . S
C572 C567 1.379 . S
C572 N570 1.356 . S
N573 C565 1.356 . S
N573 H579 0.984 . S
N573 H580 0.984 . S
N574 C567 1.356 . S
N574 H577 0.984 . S
N574 H578 0.985 . S
H575 N570 0.984 . S
H576 N570 0.985 . S
H577 N574 0.984 . S
H578 N574 0.985 . S
H579 N573 0.984 . S
H580 N573 0.984 . S
H581 N569 0.984 . S
H582 N569 0.985 . S
C583 C584 1.363 . S
C583 C589 1.379 . S
C583 N591 1.356 . S
C584 C583 1.363 . S
C584 C590 1.363 . S
C585 C586 1.363 . S
C585 C590 1.379 . S
C585 N592 1.356 . S
C586 C585 1.363 . S
C586 C589 1.363 . S
N587 C589 1.356 . S
N587 H599 0.984 . S
N587 H600 0.985 . S
N588 C590 1.356 . S
N588 H593 0.984 . S
N588 H594 0.985 . S
C589 C583 1.379 . S
C589 C586 1.363 . S
C589 N587 1.356 . S
C590 C584 1.363 . S
C590 C585 1.379 . S
C590 N588 1.356 . S
N591 C583 1.356 . S
N591 H597 0.984 . S
N591 H598 0.984 . S
N592 C585 1.356 . S
N592 H595 0.984 . S
N592 H596 0.985 . S
H593 N588 0.984 . S
H594 N588 0.985 . S
H595 N592 0.984 . S
H596 N592 0.985 . S
H597 N591 0.984 . S
H598 N591 0.984 . S
H599 N587 0.984 . S
H600 N587 0.985 . S
C601 C602 1.363 . S
C601 C607 1.379 . S
C601 N609 1.356 . S
C602 C601 1.363 . S
C602 C608 1.363 . S
C603 C604 1.363 . S
C603 C608 1.379 . S
C603 N610 1.356 . S
C604 C603 1.363 . S
C604 C607 1.363 . S
N605 C607 1.356 . S
N605 H617 0.984 . S
N605 H618 0.985 . S
N606 C608 1.356 . S
N606 H611 0.984 . S
N606 H612 0.985 . S
C607 C601 1.379 . S
C607 C604 1.363 . S
C607 N605 1.356 . S
C608 C602 1.363 . S
C608 C603 1.379 . S
C608 N606 1.356 . S
N609 C601 1.356 . S
N609 H615 0.984 . S
N609 H616 0.984 . S
N610 C603 1.356 . S
N610 H613 0.984 . S
N610 H614 0.985 . S
H611 N606 0.984 . S
H612 N606 0.985 . S
H613 N610 0.984 . S
H614 N610 0.985 . S
H615 N609 0.984 . S
H616 N609 0.984 . S
H617 N605 0.984 . S
H618 N605 0.985 . S
C190 C112 1.449 . S
C188 N4 1.536 . S
C208 C148 1.408 . S
C206 C17 1.490 . S
C226 C113 1.584 . S
C224 C31 1.607 . S
C244 C143 1.554 . S
C242 C42 1.607 . S
C262 C110 1.463 . S
C260 C53 1.525 . S
C278 C61 1.784 . S
C280 C146 1.808 . S
C296 C75 0.945 . S
C298 C115 0.891 . S
C316 C145 1.512 . S
C314 N81 1.541 . S
C334 C149 1.695 . S
C332 C9 1.724 . S
C352 C114 1.268 . S
C350 C20 1.304 . S
C370 C142 1.587 . S
C368 N26 1.553 . S
C388 C111 1.226 . S
C386 C39 1.382 . S
C406 C144 1.678 . S
C404 C50 1.791 . S
C422 N59 1.305 . S
C424 C109 1.299 . S
C440 C72 1.252 . S
C442 C147 1.255 . S
C460 C116 1.483 . S
C458 C86 1.576 . S
C478 C178 1.700 . S
C476 C6 1.804 . S
C494 N48 1.951 . S
C496 C181 1.815 . S
C514 C180 1.843 . S
C512 C64 1.886 . S
C530 N70 1.376 . S
C532 C179 1.368 . S
C550 C182 1.757 . S
C548 C83 1.883 . S
C566 C28 1.785 . S
C568 C176 1.727 . S
C586 C175 1.901 . S
C584 N37 1.927 . S
C602 N15 1.355 . S
C604 C177 1.271 . S
