# Generated by pormake.
# Topology rtl, (3,6)-cn, num edge types: 1
# Building blocks:
#     Node 0, Type 0, BuildingBlock: QEWDON_clean_linker_0, # of connection points: 3
#     Node 1, Type 0, BuildingBlock: QEWDON_clean_linker_0, # of connection points: 3
#     Node 2, Type 0, BuildingBlock: QEWDON_clean_linker_0, # of connection points: 3
#     Node 3, Type 0, BuildingBlock: QEWDON_clean_linker_0, # of connection points: 3
#     Node 4, Type 1, BuildingBlock: CIFDUS_clean_sbu_1, # of connection points: 6
#     Node 5, Type 1, BuildingBlock: CIFDUS_clean_sbu_1, # of connection points: 6
#     Edge 6, Type (0, 1), BuildingBlock: KIFKEQ_clean_linker_1, # of connection points: 2
#     Edge 7, Type (0, 1), BuildingBlock: KIFKEQ_clean_linker_1, # of connection points: 2
#     Edge 8, Type (0, 1), BuildingBlock: KIFKEQ_clean_linker_1, # of connection points: 2
#     Edge 9, Type (0, 1), BuildingBlock: KIFKEQ_clean_linker_1, # of connection points: 2
#     Edge 10, Type (0, 1), BuildingBlock: KIFKEQ_clean_linker_1, # of connection points: 2
#     Edge 11, Type (0, 1), BuildingBlock: KIFKEQ_clean_linker_1, # of connection points: 2
#     Edge 12, Type (0, 1), BuildingBlock: KIFKEQ_clean_linker_1, # of connection points: 2
#     Edge 13, Type (0, 1), BuildingBlock: KIFKEQ_clean_linker_1, # of connection points: 2
#     Edge 14, Type (0, 1), BuildingBlock: KIFKEQ_clean_linker_1, # of connection points: 2
#     Edge 15, Type (0, 1), BuildingBlock: KIFKEQ_clean_linker_1, # of connection points: 2
#     Edge 16, Type (0, 1), BuildingBlock: KIFKEQ_clean_linker_1, # of connection points: 2
#     Edge 17, Type (0, 1), BuildingBlock: KIFKEQ_clean_linker_1, # of connection points: 2
# Relax obj value: 0.037
# Max RMSD: 0.173
# Mean RMSD: 0.135
data_MOF--net-rtl--node1-CIFDUS_clean_sbu_1--node2-QEWDON_clean_linker_0--edge1-KIFKEQ_clean_linker_1
_symmetry_space_group_name_H-M    P1
_symmetry_Int_Tables_number       1
_symmetry_cell_setting            triclinic
loop_
_symmetry_equiv_pos_as_xyz
'x, y, z'
_cell_length_a     36.383842
_cell_length_b     36.946868
_cell_length_c     22.074595
_cell_angle_alpha  91.541045
_cell_angle_beta   102.74496
_cell_angle_gamma 90.226737
loop_
_atom_site_label
_atom_site_type_symbol
_atom_site_fract_x
_atom_site_fract_y
_atom_site_fract_z
_atom_type_partial_charge
H0 H 0.26199 0.88916 0.20677 0.0
C1 C 0.24689 0.88883 0.15855 0.0
C2 C 0.21021 0.90264 0.14284 0.0
C3 C 0.26517 0.8766 0.1122 0.0
H4 H 0.16356 0.91476 0.06749 0.0
C5 C 0.1916 0.9035 0.07989 0.0
C6 C 0.20947 0.89151 0.0327 0.0
C7 C 0.24638 0.87793 0.04938 0.0
C8 C 0.30578 0.86796 0.12938 0.0
H9 H 0.26099 0.86963 0.01356 0.0
C10 C 0.31874 0.83205 0.12938 0.0
C11 C 0.35777 0.82464 0.14729 0.0
C12 C 0.33181 0.89643 0.14723 0.0
H13 H 0.32232 0.92419 0.14767 0.0
C14 C 0.37024 0.88944 0.16416 0.0
H15 H 0.29841 0.81013 0.11668 0.0
C16 C 0.38319 0.85397 0.16403 0.0
H17 H 0.41331 0.84969 0.17614 0.0
H18 H 0.39015 0.91166 0.17721 0.0
H19 H 0.75164 0.74579 0.53541 0.0
C20 C 0.73559 0.73748 0.56869 0.0
C21 C 0.69817 0.72475 0.54767 0.0
C22 C 0.75303 0.73769 0.63236 0.0
H23 H 0.64996 0.70205 0.57581 0.0
C24 C 0.67817 0.71318 0.59158 0.0
C25 C 0.69523 0.71302 0.65523 0.0
C26 C 0.73255 0.72547 0.67509 0.0
C27 C 0.7938 0.74657 0.65442 0.0
H28 H 0.74597 0.72524 0.72409 0.0
C29 C 0.80951 0.77967 0.6411 0.0
C30 C 0.8483 0.78742 0.66417 0.0
C31 C 0.81727 0.72137 0.69046 0.0
H32 H 0.80601 0.69567 0.70101 0.0
C33 C 0.85547 0.72883 0.71296 0.0
H34 H 0.79166 0.79925 0.61326 0.0
C35 C 0.8709 0.76155 0.70012 0.0
H36 H 0.90057 0.76681 0.71912 0.0
H37 H 0.8732 0.70919 0.74076 0.0
H38 H 0.80767 0.232 0.06671 0.0
C39 C 0.82235 0.22264 0.0316 0.0
C40 C 0.85943 0.20958 0.04953 0.0
C41 C 0.80348 0.22183 0.96856 0.0
H42 H 0.90565 0.1855 0.01699 0.0
C43 C 0.87742 0.19621 1.00343 0.0
C44 C 0.85875 0.19465 0.94042 0.0
C45 C 0.82195 0.20796 0.92342 0.0
C46 C 0.76282 0.23048 0.94998 0.0
H47 H 0.80689 0.20601 0.87521 0.0
C48 C 0.7491 0.26547 0.95864 0.0
C49 C 0.71021 0.27276 0.93919 0.0
C50 C 0.73744 0.20301 0.92194 0.0
H51 H 0.74737 0.17594 0.91485 0.0
C52 C 0.69908 0.21004 0.90315 0.0
H53 H 0.76853 0.28682 0.98013 0.0
C54 C 0.6855 0.24459 0.91166 0.0
H55 H 0.65561 0.24944 0.89587 0.0
H56 H 0.67979 0.18864 0.88164 0.0
H57 H 0.37178 0.30995 0.57085 0.0
C58 C 0.37817 0.32929 0.53849 0.0
C59 C 0.39499 0.3628 0.56089 0.0
C60 C 0.37118 0.32023 0.47454 0.0
H61 H 0.4173 0.41306 0.537 0.0
C62 C 0.40431 0.38735 0.5191 0.0
C63 C 0.39862 0.37844 0.45534 0.0
C64 C 0.38146 0.34499 0.43355 0.0
C65 C 0.35731 0.28349 0.45058 0.0
H66 H 0.37758 0.33731 0.38481 0.0
C67 C 0.32382 0.26837 0.462 0.0
C68 C 0.31119 0.23363 0.43725 0.0
C69 C 0.37796 0.26345 0.41468 0.0
H70 H 0.40391 0.27425 0.40564 0.0
C71 C 0.36564 0.22925 0.39037 0.0
H72 H 0.30772 0.28354 0.48972 0.0
C73 C 0.33254 0.21445 0.40139 0.0
H74 H 0.3234 0.18799 0.38117 0.0
H75 H 0.38178 0.21417 0.36268 0.0
O76 O 1.01259 0.09076 0.47654 0.0
Mn77 Mn 1.03621 0.05148 0.54156 0.0
O78 O 0.96968 0.06162 0.40183 0.0
Mn79 Mn 0.98204 1.01563 0.42947 0.0
O80 O 0.05941 1.01169 0.60617 0.0
O81 O 0.08066 0.08623 0.57139 0.0
Mn82 Mn 0.09283 0.08366 0.65317 0.0
O83 O 1.0071 0.07467 0.60555 0.0
O84 O 0.10908 0.0374 0.67194 0.0
O85 O 0.06585 0.02807 0.4784 0.0
O86 O 1.02382 0.99522 0.4081 0.0
O87 O 0.12547 0.1171 0.63533 0.0
O88 O 0.05185 0.09824 0.68381 0.0
C89 C 0.96299 0.99515 0.5061 0.0
C90 C 0.9865 0.0904 0.42639 0.0
C91 C 0.08901 1.00985 0.65046 0.0
C92 C 0.10805 0.10987 0.57848 0.0
C93 C 1.01743 0.09152 0.65854 0.0
C94 C 0.05748 1.00535 0.43201 0.0
O95 O 0.99131 1.01751 0.51158 0.0
O96 O 0.94612 0.9865 0.44953 0.0
O97 O 0.55965 0.59464 0.11358 0.0
Mn98 Mn 0.5387 0.5511 0.05036 0.0
O99 O 0.61559 0.57766 0.16973 0.0
Mn100 Mn 0.60514 0.52934 0.15272 0.0
O101 O 0.5172 0.50762 0.98712 0.0
O102 O 0.48984 0.57914 0.02849 0.0
Mn103 Mn 0.47275 0.57408 0.94734 0.0
O104 O 0.55945 0.57741 0.98138 0.0
O105 O 0.46195 0.52589 0.92985 0.0
O106 O 0.51815 0.52481 0.11968 0.0
O107 O 0.56965 0.50873 0.19035 0.0
O108 O 0.43828 0.60264 0.97396 0.0
O109 O 0.50867 0.59423 0.90996 0.0
C110 C 0.61725 0.50288 0.07343 0.0
C111 C 0.59082 0.60157 0.15303 0.0
C112 C 0.48601 0.50138 0.94715 0.0
C113 C 0.46062 0.59934 0.02794 0.0
C114 C 0.54429 0.59275 0.93027 0.0
C115 C 0.53394 0.50944 0.17045 0.0
O116 O 0.58783 0.5231 0.07185 0.0
O117 O 0.63996 0.50085 0.12737 0.0
H118 H 0.24133 0.26418 0.42657 0.0
H119 H 0.30145 0.16456 0.47136 0.0
H120 H 0.18315 0.23469 0.43897 0.0
H121 H 0.24411 0.13538 0.48524 0.0
H122 H 0.1391 0.07999 0.48777 0.0
H123 H 0.18385 0.11138 0.43881 0.0
H124 H 0.15544 0.213 0.51801 0.0
H125 H 0.10993 0.18162 0.56376 0.0
C126 C 0.24216 0.23609 0.4396 0.0
C127 C 0.276 0.21674 0.44805 0.0
C128 C 0.20879 0.21907 0.44641 0.0
C129 C 0.20856 0.18236 0.46239 0.0
C130 C 0.24263 0.16326 0.47106 0.0
C131 C 0.27575 0.18014 0.46381 0.0
C132 C 0.14076 0.10926 0.491 0.0
C133 C 0.12066 0.12847 0.52847 0.0
C134 C 0.16715 0.12727 0.4645 0.0
C135 C 0.1742 0.16474 0.47584 0.0
C136 C 0.15096 0.18429 0.50787 0.0
C137 C 0.12457 0.16631 0.5339 0.0
H138 H 0.33089 0.76798 0.0661 0.0
H139 H 0.41852 0.79529 0.2279 0.0
H140 H 0.35827 0.70842 0.06021 0.0
H141 H 0.44669 0.73595 0.22014 0.0
H142 H 0.50489 0.65248 0.09579 0.0
H143 H 0.47935 0.70542 0.14096 0.0
H144 H 0.37198 0.65043 0.11702 0.0
H145 H 0.39752 0.59795 0.07175 0.0
C146 C 0.35555 0.7612 0.10115 0.0
C147 C 0.37251 0.78686 0.1471 0.0
C148 C 0.37135 0.72695 0.09771 0.0
C149 C 0.40471 0.71742 0.1398 0.0
C150 C 0.42118 0.74257 0.18679 0.0
C151 C 0.40508 0.7767 0.19081 0.0
C152 C 0.47659 0.65095 0.10375 0.0
C153 C 0.45317 0.62116 0.08056 0.0
C154 C 0.46174 0.68145 0.12889 0.0
C155 C 0.42329 0.68243 0.13084 0.0
C156 C 0.40144 0.65078 0.11487 0.0
C157 C 0.41625 0.62048 0.08993 0.0
H158 H 0.82171 0.85649 0.67224 0.0
H159 H 0.91497 0.79702 0.62909 0.0
H160 H 0.85225 0.91339 0.65577 0.0
H161 H 0.94508 0.85338 0.61142 0.0
H162 H 1.00376 0.95566 0.60072 0.0
H163 H 0.9768 0.90816 0.65363 0.0
H164 H 0.86491 0.94578 0.57197 0.0
H165 H 0.89202 0.99327 0.52139 0.0
C166 C 0.84858 0.85557 0.65877 0.0
C167 C 0.86581 0.82221 0.65176 0.0
C168 C 0.86625 0.88819 0.64967 0.0
C169 C 0.90145 0.88822 0.63277 0.0
C170 C 0.91859 0.85473 0.62604 0.0
C171 C 0.90108 0.82226 0.63551 0.0
C172 C 0.97359 0.95487 0.5971 0.0
C173 C 0.94993 0.97815 0.55728 0.0
C174 C 0.95798 0.92718 0.62624 0.0
C175 C 0.91851 0.92238 0.61579 0.0
C176 C 0.8953 0.94841 0.58147 0.0
C177 C 0.91087 0.97588 0.55254 0.0
H178 H 0.73564 0.3381 0.90779 0.0
H179 H 0.64925 0.29 0.98661 0.0
H180 H 0.70813 0.39779 0.91644 0.0
H181 H 0.62252 0.34933 0.99757 0.0
H182 H 0.569 0.45403 1.00083 0.0
H183 H 0.58905 0.39963 0.95191 0.0
H184 H 0.70337 0.44135 0.99228 0.0
H185 H 0.68266 0.49588 0.03755 0.0
C186 C 0.71098 0.34039 0.92753 0.0
C187 C 0.69474 0.30942 0.94684 0.0
C188 C 0.69505 0.37458 0.93231 0.0
C189 C 0.66278 0.37868 0.95738 0.0
C190 C 0.64664 0.34745 0.97644 0.0
C191 C 0.66227 0.31335 0.97094 0.0
C192 C 0.59783 0.45243 0.99556 0.0
C193 C 0.62421 0.47926 0.0224 0.0
C194 C 0.60968 0.4208 0.96905 0.0
C195 C 0.64819 0.41537 0.96975 0.0
C196 C 0.67356 0.44421 0.99052 0.0
C197 C 0.66165 0.47574 0.01639 0.0
H198 H 0.2053 0.87324 0.25335 0.0
H199 H 0.17511 0.96782 0.14326 0.0
H200 H 0.1744 0.89875 0.33265 0.0
H201 H 0.14418 0.99323 0.22224 0.0
H202 H 0.11556 0.04131 0.39828 0.0
H203 H 0.15763 1.01696 0.3344 0.0
H204 H 0.10643 0.91126 0.33373 0.0
H205 H 0.06471 0.93559 0.39713 0.0
C206 C 0.19229 0.89957 0.24635 0.0
C207 C 0.19227 0.91836 0.19183 0.0
C208 C 0.17456 0.91413 0.29161 0.0
C209 C 0.15695 0.94804 0.28375 0.0
C210 C 0.15785 0.96724 0.22998 0.0
C211 C 0.17512 0.95248 0.1844 0.0
C212 C 0.11423 1.01271 0.38601 0.0
C213 C 0.08721 0.99025 0.40302 0.0
C214 C 0.1379 0.99885 0.34884 0.0
C215 C 0.13525 0.96219 0.32892 0.0
C216 C 0.10944 0.93948 0.34874 0.0
C217 C 0.08549 0.95343 0.38488 0.0
H218 H 0.72149 0.66475 0.74644 0.0
H219 H 0.62288 0.72583 0.66527 0.0
H220 H 0.68666 0.6359 0.81509 0.0
H221 H 0.58827 0.69791 0.73485 0.0
H222 H 0.52357 0.612 0.80945 0.0
H223 H 0.56106 0.64139 0.74681 0.0
H224 H 0.65729 0.64266 0.90186 0.0
H225 H 0.61965 0.61182 0.96459 0.0
C226 C 0.69252 0.67247 0.74404 0.0
C227 C 0.67485 0.69745 0.70019 0.0
C228 C 0.67254 0.65597 0.78351 0.0
C229 C 0.63445 0.66421 0.78034 0.0
C230 C 0.61725 0.69013 0.73773 0.0
C231 C 0.6371 0.70633 0.69794 0.0
C232 C 0.55271 0.61849 0.8305 0.0
C233 C 0.56846 0.6097 0.89238 0.0
C234 C 0.57424 0.63569 0.79451 0.0
C235 C 0.61216 0.64504 0.81931 0.0
C236 C 0.62824 0.63573 0.88099 0.0
C237 C 0.60665 0.61813 0.91706 0.0
H238 H 0.93181 0.22836 0.10785 0.0
H239 H 0.83013 0.1803 0.14115 0.0
H240 H 0.96594 0.21137 0.21107 0.0
H241 H 0.86415 0.16216 0.24318 0.0
H242 H 0.92638 0.13318 0.42855 0.0
H243 H 0.89645 0.17329 0.34609 0.0
H244 H 0.98996 0.15745 0.25688 0.0
H245 H 1.02014 0.11892 0.34089 0.0
C246 C 0.91663 0.2146 0.1377 0.0
C247 C 0.8783 0.20553 0.11619 0.0
C248 C 0.93625 0.20461 0.1968 0.0
C249 C 0.91815 0.18486 0.23574 0.0
C250 C 0.87919 0.17774 0.21539 0.0
C251 C 0.85952 0.1881 0.15656 0.0
C252 C 0.94125 0.13989 0.39281 0.0
C253 C 0.97587 0.12362 0.39159 0.0
C254 C 0.92381 0.16229 0.34479 0.0
C255 C 0.94024 0.16822 0.29369 0.0
C256 C 0.9764 0.15405 0.29536 0.0
C257 C 0.99395 0.13201 0.34378 0.0
H258 H 0.36201 0.41168 0.62517 0.0
H259 H 0.45388 0.33651 0.64631 0.0
H260 H 0.38615 0.4351 0.7311 0.0
H261 H 0.47864 0.36014 0.75285 0.0
H262 H 0.53098 0.46336 0.88416 0.0
H263 H 0.50802 0.42035 0.79741 0.0
H264 H 0.39839 0.41967 0.84233 0.0
H265 H 0.4213 0.46267 0.92821 0.0
C266 C 0.38684 0.39955 0.65335 0.0
C267 C 0.40578 0.372 0.62823 0.0
C268 C 0.40074 0.41287 0.71403 0.0
C269 C 0.43432 0.39938 0.75069 0.0
C270 C 0.45276 0.37108 0.7259 0.0
C271 C 0.43846 0.35736 0.66529 0.0
C272 C 0.50261 0.45254 0.87738 0.0
C273 C 0.47793 0.46627 0.91294 0.0
C274 C 0.48928 0.42813 0.82731 0.0
C275 C 0.45108 0.41724 0.81209 0.0
C276 C 0.42771 0.42809 0.85199 0.0
C277 C 0.44096 0.45237 0.90167 0.0
H278 H 0.62621 0.74023 0.48464 0.0
H279 H 0.73108 0.69558 0.45799 0.0
H280 H 0.59588 0.7225 0.37779 0.0
H281 H 0.70097 0.67704 0.35248 0.0
H282 H 0.64918 0.64847 0.16183 0.0
H283 H 0.67334 0.68967 0.24984 0.0
H284 H 0.57385 0.66894 0.3209 0.0
H285 H 0.54907 0.62947 0.23066 0.0
C286 C 0.6429 0.72699 0.45569 0.0
C287 C 0.6811 0.71927 0.48 0.0
C288 C 0.62547 0.71666 0.39442 0.0
C289 C 0.6457 0.69807 0.35594 0.0
C290 C 0.68438 0.6919 0.37968 0.0
C291 C 0.70182 0.70249 0.44063 0.0
C292 C 0.63169 0.65431 0.19471 0.0
C293 C 0.59718 0.63602 0.1893 0.0
C294 C 0.64585 0.67734 0.24598 0.0
C295 C 0.62629 0.68184 0.29404 0.0
C296 C 0.58989 0.66635 0.28517 0.0
C297 C 0.57541 0.64382 0.23308 0.0
H298 H 0.86029 0.21658 0.82273 0.0
H299 H 0.8972 0.13113 0.95121 0.0
H300 H 0.89364 0.18807 0.74898 0.0
H301 H 0.93029 0.10292 0.87807 0.0
H302 H 1.02981 0.10048 0.78316 0.0
H303 H 0.98742 0.1229 0.84539 0.0
H304 H 0.89873 0.1312 0.68046 0.0
H305 H 0.94202 0.10846 0.61675 0.0
C306 C 0.87512 0.19154 0.83491 0.0
C307 C 0.87682 0.17657 0.89343 0.0
C308 C 0.89403 0.17514 0.79257 0.0
C309 C 0.91492 0.14346 0.808 0.0
C310 C 0.91502 0.12767 0.86526 0.0
C311 C 0.89626 0.14399 0.90737 0.0
C312 C 1.00126 0.1069 0.75973 0.0
C313 C 0.98939 0.10287 0.69479 0.0
C314 C 0.97681 0.11952 0.79568 0.0
C315 C 0.93965 0.1287 0.768 0.0
C316 C 0.92732 0.12442 0.70301 0.0
C317 C 0.95193 0.11122 0.66667 0.0
H318 H 0.46461 0.41744 0.48203 0.0
H319 H 0.36857 0.39299 0.33209 0.0
H320 H 0.49308 0.45189 0.41243 0.0
H321 H 0.39856 0.42604 0.26099 0.0
H322 H 0.45709 0.51408 0.16356 0.0
H323 H 0.42109 0.48547 0.23177 0.0
H324 H 0.52265 0.43434 0.32985 0.0
H325 H 0.55822 0.46296 0.2638 0.0
C326 C 0.44918 0.41976 0.43442 0.0
C327 C 0.41417 0.40218 0.41297 0.0
C328 C 0.4659 0.43915 0.39408 0.0
C329 C 0.4485 0.44121 0.33073 0.0
C330 C 0.41277 0.425 0.30948 0.0
C331 C 0.3958 0.40569 0.35015 0.0
C332 C 0.47158 0.49668 0.19968 0.0
C333 C 0.51067 0.49127 0.20855 0.0
C334 C 0.45098 0.48023 0.23867 0.0
C335 C 0.46911 0.45811 0.28711 0.0
C336 C 0.50789 0.45201 0.29438 0.0
C337 C 0.52831 0.46838 0.25599 0.0
H338 H 0.1369 0.8742 0.97266 0.0
H339 H 0.23956 0.92235 0.94354 0.0
H340 H 0.10426 0.89065 0.8682 0.0
H341 H 0.20708 0.94018 0.84076 0.0
H342 H 0.15034 0.96797 0.65418 0.0
H343 H 0.17805 0.92823 0.73826 0.0
H344 H 0.07961 0.94197 0.81607 0.0
H345 H 0.05135 0.97961 0.72949 0.0
C346 C 0.15255 0.88805 0.94361 0.0
C347 C 0.19081 0.89702 0.9664 0.0
C348 C 0.13381 0.8977 0.88376 0.0
C349 C 0.1527 0.91708 0.84543 0.0
C350 C 0.19144 0.92468 0.86771 0.0
C351 C 0.21024 0.91457 0.92711 0.0
C352 C 0.13397 0.96084 0.68767 0.0
C353 C 0.09858 0.9764 0.68508 0.0
C354 C 0.15013 0.93869 0.73676 0.0
C355 C 0.13177 0.9326 0.78558 0.0
C356 C 0.09479 0.94568 0.77966 0.0
C357 C 0.07833 0.96721 0.72972 0.0
loop_
_geom_bond_atom_site_label_1
_geom_bond_atom_site_label_2
_geom_bond_distance
_geom_bond_site_symmetry_2
_ccdc_geom_bond_type
H0 C1 0.949 . S
C1 H0 0.949 . S
C1 C2 1.395 . S
C1 C3 1.391 . S
C2 C1 1.395 . S
C2 C5 1.390 . S
C3 C1 1.391 . S
C3 C7 1.387 . S
C3 C8 1.491 . S
H4 C5 0.950 . S
C5 C2 1.390 . S
C5 H4 0.950 . S
C5 C6 1.378 . S
C6 C5 1.378 . S
C6 C7 1.409 . S
C7 C3 1.387 . S
C7 C6 1.409 . S
C7 H9 0.951 1_554 S
C8 C3 1.491 . S
C8 C10 1.382 . S
C8 C12 1.404 . S
H9 C7 0.951 1_556 S
C10 C8 1.382 . S
C10 C11 1.390 . S
C10 H15 0.949 . S
C11 C10 1.390 . S
C11 C16 1.399 . S
C12 C8 1.404 . S
C12 H13 0.950 1_554 S
C12 C14 1.375 . S
H13 C12 0.950 1_556 S
C14 C12 1.375 . S
C14 C16 1.382 . S
C14 H18 0.950 1_554 S
H15 C10 0.949 . S
C16 C11 1.399 . S
C16 C14 1.382 . S
C16 H17 0.952 . S
H17 C16 0.952 . S
H18 C14 0.950 1_556 S
H19 C20 0.949 . S
C20 H19 0.949 . S
C20 C21 1.395 . S
C20 C22 1.391 . S
C21 C20 1.395 . S
C21 C24 1.390 . S
C22 C20 1.391 . S
C22 C26 1.387 . S
C22 C27 1.491 . S
H23 C24 0.950 . S
C24 C21 1.390 . S
C24 H23 0.950 . S
C24 C25 1.378 . S
C25 C24 1.378 . S
C25 C26 1.409 . S
C26 C22 1.387 . S
C26 C25 1.409 . S
C26 H28 0.951 . S
C27 C22 1.491 . S
C27 C29 1.382 . S
C27 C31 1.404 . S
H28 C26 0.951 . S
C29 C27 1.382 . S
C29 C30 1.390 . S
C29 H34 0.949 . S
C30 C29 1.390 . S
C30 C35 1.399 . S
C31 C27 1.404 . S
C31 H32 0.950 . S
C31 C33 1.375 . S
H32 C31 0.950 . S
C33 C31 1.375 . S
C33 C35 1.382 . S
C33 H37 0.950 . S
H34 C29 0.949 . S
C35 C30 1.399 . S
C35 C33 1.382 . S
C35 H36 0.952 . S
H36 C35 0.952 . S
H37 C33 0.950 . S
H38 C39 0.949 . S
C39 H38 0.949 . S
C39 C40 1.395 . S
C39 C41 1.391 1_554 S
C40 C39 1.395 . S
C40 C43 1.396 . S
C41 C39 1.391 1_556 S
C41 C45 1.387 . S
C41 C46 1.491 . S
H42 C43 0.951 . S
C43 C40 1.396 . S
C43 H42 0.951 . S
C43 C44 1.371 1_554 S
C44 C43 1.371 1_556 S
C44 C45 1.409 . S
C45 C41 1.387 . S
C45 C44 1.409 . S
C45 H47 0.951 . S
C46 C41 1.491 . S
C46 C48 1.390 . S
C46 C50 1.404 . S
H47 C45 0.951 . S
C48 C46 1.390 . S
C48 C49 1.391 . S
C48 H53 0.939 1_556 S
C49 C48 1.391 . S
C49 C54 1.399 . S
C50 C46 1.404 . S
C50 H51 0.950 . S
C50 C52 1.375 . S
H51 C50 0.950 . S
C52 C50 1.375 . S
C52 C54 1.382 . S
C52 H56 0.950 . S
H53 C48 0.939 1_554 S
C54 C49 1.399 . S
C54 C52 1.382 . S
C54 H55 0.952 . S
H55 C54 0.952 . S
H56 C52 0.950 . S
H57 C58 0.949 . S
C58 H57 0.949 . S
C58 C59 1.395 . S
C58 C60 1.391 . S
C59 C58 1.395 . S
C59 C62 1.390 . S
C60 C58 1.391 . S
C60 C64 1.387 . S
C60 C65 1.491 . S
H61 C62 0.950 . S
C62 C59 1.390 . S
C62 H61 0.950 . S
C62 C63 1.378 . S
C63 C62 1.378 . S
C63 C64 1.409 . S
C64 C60 1.387 . S
C64 C63 1.409 . S
C64 H66 0.951 . S
C65 C60 1.491 . S
C65 C67 1.382 . S
C65 C69 1.404 . S
H66 C64 0.951 . S
C67 C65 1.382 . S
C67 C68 1.390 . S
C67 H72 0.949 . S
C68 C67 1.390 . S
C68 C73 1.399 . S
C69 C65 1.404 . S
C69 H70 0.950 . S
C69 C71 1.375 . S
H70 C69 0.950 . S
C71 C69 1.375 . S
C71 C73 1.382 . S
C71 H75 0.950 . S
H72 C67 0.949 . S
C73 C68 1.399 . S
C73 C71 1.382 . S
C73 H74 0.952 . S
H74 C73 0.952 . S
H75 C71 0.950 . S
O76 Mn77 2.163 1_655 S
O76 C90 1.244 . S
Mn77 O76 2.163 1_455 S
Mn77 O80 2.160 1_545 S
Mn77 O81 2.221 . S
Mn77 O83 2.163 1_455 S
Mn77 O85 2.160 1_545 S
Mn77 O95 2.221 1_445 S
O78 Mn79 2.087 1_545 S
O78 C90 1.256 . S
Mn79 O78 2.087 1_565 S
Mn79 O86 2.089 1_655 S
Mn79 O95 2.290 . S
Mn79 O96 2.251 . S
O80 Mn77 2.160 1_565 S
O80 C91 1.239 . S
O81 Mn77 2.221 . S
O81 Mn82 2.290 . S
O81 C92 1.278 . S
Mn82 O81 2.290 . S
Mn82 O84 2.089 . S
Mn82 O87 2.251 . S
Mn82 O88 2.087 . S
O83 Mn77 2.163 1_655 S
O83 C93 1.244 . S
O84 Mn82 2.089 . S
O84 C91 1.256 1_545 S
O85 Mn77 2.160 1_565 S
O85 C94 1.239 . S
O86 Mn79 2.089 1_455 S
O86 C94 1.256 . S
O87 Mn82 2.251 . S
O87 C92 1.241 . S
O88 Mn82 2.087 . S
O88 C93 1.256 1_455 S
C89 O95 1.278 . S
C89 O96 1.241 . S
C90 O76 1.244 . S
C90 O78 1.256 . S
C91 O80 1.239 . S
C91 O84 1.256 1_565 S
C92 O81 1.278 . S
C92 O87 1.241 . S
C93 O83 1.244 . S
C93 O88 1.256 1_655 S
C94 O85 1.239 . S
C94 O86 1.256 . S
O95 Mn77 2.221 1_665 S
O95 Mn79 2.290 . S
O95 C89 1.278 . S
O96 Mn79 2.251 . S
O96 C89 1.241 . S
O97 Mn98 2.163 . S
O97 C111 1.244 . S
Mn98 O97 2.163 . S
Mn98 O101 2.160 1_554 S
Mn98 O102 2.221 . S
Mn98 O104 2.163 1_554 S
Mn98 O106 2.160 . S
Mn98 O116 2.221 . S
O99 Mn100 2.087 . S
O99 C111 1.256 . S
Mn100 O99 2.087 . S
Mn100 O107 2.089 . S
Mn100 O116 2.290 . S
Mn100 O117 2.251 . S
O101 Mn98 2.160 1_556 S
O101 C112 1.239 . S
O102 Mn98 2.221 . S
O102 Mn103 2.290 1_554 S
O102 C113 1.278 . S
Mn103 O102 2.290 1_556 S
Mn103 O105 2.089 . S
Mn103 O108 2.251 . S
Mn103 O109 2.087 . S
O104 Mn98 2.163 1_556 S
O104 C114 1.244 . S
O105 Mn103 2.089 . S
O105 C112 1.256 . S
O106 Mn98 2.160 . S
O106 C115 1.239 . S
O107 Mn100 2.089 . S
O107 C115 1.256 . S
O108 Mn103 2.251 . S
O108 C113 1.241 1_556 S
O109 Mn103 2.087 . S
O109 C114 1.256 . S
C110 O116 1.278 . S
C110 O117 1.241 . S
C111 O97 1.244 . S
C111 O99 1.256 . S
C112 O101 1.239 . S
C112 O105 1.256 . S
C113 O102 1.278 . S
C113 O108 1.241 1_554 S
C114 O104 1.244 . S
C114 O109 1.256 . S
C115 O106 1.239 . S
C115 O107 1.256 . S
O116 Mn98 2.221 . S
O116 Mn100 2.290 . S
O116 C110 1.278 . S
O117 Mn100 2.251 . S
O117 C110 1.241 . S
H118 C126 0.950 . S
H119 C131 0.950 . S
H120 C128 0.950 . S
H121 C130 0.950 . S
H122 C132 0.950 . S
H123 C134 0.950 . S
H124 C136 0.950 . S
H125 C137 0.950 . S
C126 H118 0.950 . S
C126 C127 1.386 . S
C126 C128 1.391 . S
C127 C126 1.386 . S
C127 C131 1.393 . S
C128 H120 0.950 . S
C128 C126 1.391 . S
C128 C129 1.400 . S
C129 C128 1.400 . S
C129 C130 1.398 . S
C129 C135 1.491 . S
C130 H121 0.950 . S
C130 C129 1.398 . S
C130 C131 1.391 . S
C131 H119 0.950 . S
C131 C127 1.393 . S
C131 C130 1.391 . S
C132 H122 0.950 . S
C132 C133 1.386 . S
C132 C134 1.391 . S
C133 C132 1.386 . S
C133 C137 1.393 . S
C134 H123 0.950 . S
C134 C132 1.391 . S
C134 C135 1.400 . S
C135 C129 1.491 . S
C135 C134 1.400 . S
C135 C136 1.398 . S
C136 H124 0.950 . S
C136 C135 1.398 . S
C136 C137 1.391 . S
C137 H125 0.950 . S
C137 C133 1.393 . S
C137 C136 1.391 . S
H138 C146 0.950 . S
H139 C151 0.950 . S
H140 C148 0.950 . S
H141 C150 0.950 . S
H142 C152 0.950 . S
H143 C154 0.950 . S
H144 C156 0.950 . S
H145 C157 0.950 . S
C146 H138 0.950 . S
C146 C147 1.386 . S
C146 C148 1.391 . S
C147 C146 1.386 . S
C147 C151 1.393 . S
C148 H140 0.950 . S
C148 C146 1.391 . S
C148 C149 1.400 . S
C149 C148 1.400 . S
C149 C150 1.398 . S
C149 C155 1.491 . S
C150 H141 0.950 . S
C150 C149 1.398 . S
C150 C151 1.391 . S
C151 H139 0.950 . S
C151 C147 1.393 . S
C151 C150 1.391 . S
C152 H142 0.950 . S
C152 C153 1.386 . S
C152 C154 1.391 . S
C153 C152 1.386 . S
C153 C157 1.393 . S
C154 H143 0.950 . S
C154 C152 1.391 . S
C154 C155 1.400 . S
C155 C149 1.491 . S
C155 C154 1.400 . S
C155 C156 1.398 . S
C156 H144 0.950 . S
C156 C155 1.398 . S
C156 C157 1.391 . S
C157 H145 0.950 . S
C157 C153 1.393 . S
C157 C156 1.391 . S
H158 C166 0.950 . S
H159 C171 0.950 . S
H160 C168 0.950 . S
H161 C170 0.950 . S
H162 C172 0.950 . S
H163 C174 0.950 . S
H164 C176 0.950 . S
H165 C177 0.950 . S
C166 H158 0.950 . S
C166 C167 1.386 . S
C166 C168 1.391 . S
C167 C166 1.386 . S
C167 C171 1.393 . S
C168 H160 0.950 . S
C168 C166 1.391 . S
C168 C169 1.400 . S
C169 C168 1.400 . S
C169 C170 1.398 . S
C169 C175 1.491 . S
C170 H161 0.950 . S
C170 C169 1.398 . S
C170 C171 1.391 . S
C171 H159 0.950 . S
C171 C167 1.393 . S
C171 C170 1.391 . S
C172 H162 0.950 . S
C172 C173 1.386 . S
C172 C174 1.391 . S
C173 C172 1.386 . S
C173 C177 1.393 . S
C174 H163 0.950 . S
C174 C172 1.391 . S
C174 C175 1.400 . S
C175 C169 1.491 . S
C175 C174 1.400 . S
C175 C176 1.398 . S
C176 H164 0.950 . S
C176 C175 1.398 . S
C176 C177 1.391 . S
C177 H165 0.950 . S
C177 C173 1.393 . S
C177 C176 1.391 . S
H178 C186 0.950 . S
H179 C191 0.950 1_556 S
H180 C188 0.950 . S
H181 C190 0.950 1_556 S
H182 C192 0.950 . S
H183 C194 0.950 . S
H184 C196 0.950 . S
H185 C197 0.950 . S
C186 H178 0.950 . S
C186 C187 1.386 . S
C186 C188 1.391 . S
C187 C186 1.386 . S
C187 C191 1.393 . S
C188 H180 0.950 . S
C188 C186 1.391 . S
C188 C189 1.400 . S
C189 C188 1.400 . S
C189 C190 1.398 . S
C189 C195 1.491 . S
C190 H181 0.950 1_554 S
C190 C189 1.398 . S
C190 C191 1.391 . S
C191 H179 0.950 1_554 S
C191 C187 1.393 . S
C191 C190 1.391 . S
C192 H182 0.950 . S
C192 C193 1.386 . S
C192 C194 1.391 . S
C193 C192 1.386 . S
C193 C197 1.393 . S
C194 H183 0.950 . S
C194 C192 1.391 . S
C194 C195 1.400 . S
C195 C189 1.491 . S
C195 C194 1.400 . S
C195 C196 1.398 . S
C196 H184 0.950 . S
C196 C195 1.398 . S
C196 C197 1.391 . S
C197 H185 0.950 . S
C197 C193 1.393 . S
C197 C196 1.391 . S
H198 C206 0.950 . S
H199 C211 0.950 . S
H200 C208 0.950 . S
H201 C210 0.950 . S
H202 C212 0.950 . S
H203 C214 0.950 . S
H204 C216 0.950 . S
H205 C217 0.950 . S
C206 H198 0.950 . S
C206 C207 1.386 . S
C206 C208 1.391 . S
C207 C206 1.386 . S
C207 C211 1.393 . S
C208 H200 0.950 . S
C208 C206 1.391 . S
C208 C209 1.400 . S
C209 C208 1.400 . S
C209 C210 1.398 . S
C209 C215 1.491 . S
C210 H201 0.950 . S
C210 C209 1.398 . S
C210 C211 1.391 . S
C211 H199 0.950 . S
C211 C207 1.393 . S
C211 C210 1.391 . S
C212 H202 0.950 . S
C212 C213 1.386 . S
C212 C214 1.391 . S
C213 C212 1.386 . S
C213 C217 1.393 . S
C214 H203 0.950 . S
C214 C212 1.391 . S
C214 C215 1.400 . S
C215 C209 1.491 . S
C215 C214 1.400 . S
C215 C216 1.398 . S
C216 H204 0.950 . S
C216 C215 1.398 . S
C216 C217 1.391 . S
C217 H205 0.950 . S
C217 C213 1.393 . S
C217 C216 1.391 . S
H218 C226 0.950 . S
H219 C231 0.950 . S
H220 C228 0.950 . S
H221 C230 0.950 . S
H222 C232 0.950 . S
H223 C234 0.950 . S
H224 C236 0.950 . S
H225 C237 0.950 . S
C226 H218 0.950 . S
C226 C227 1.386 . S
C226 C228 1.391 . S
C227 C226 1.386 . S
C227 C231 1.393 . S
C228 H220 0.950 . S
C228 C226 1.391 . S
C228 C229 1.400 . S
C229 C228 1.400 . S
C229 C230 1.398 . S
C229 C235 1.491 . S
C230 H221 0.950 . S
C230 C229 1.398 . S
C230 C231 1.391 . S
C231 H219 0.950 . S
C231 C227 1.393 . S
C231 C230 1.391 . S
C232 H222 0.950 . S
C232 C233 1.386 . S
C232 C234 1.391 . S
C233 C232 1.386 . S
C233 C237 1.393 . S
C234 H223 0.950 . S
C234 C232 1.391 . S
C234 C235 1.400 . S
C235 C229 1.491 . S
C235 C234 1.400 . S
C235 C236 1.398 . S
C236 H224 0.950 . S
C236 C235 1.398 . S
C236 C237 1.391 . S
C237 H225 0.950 . S
C237 C233 1.393 . S
C237 C236 1.391 . S
H238 C246 0.950 . S
H239 C251 0.950 . S
H240 C248 0.950 . S
H241 C250 0.950 . S
H242 C252 0.950 . S
H243 C254 0.950 . S
H244 C256 0.950 . S
H245 C257 0.950 . S
C246 H238 0.950 . S
C246 C247 1.386 . S
C246 C248 1.391 . S
C247 C246 1.386 . S
C247 C251 1.393 . S
C248 H240 0.950 . S
C248 C246 1.391 . S
C248 C249 1.400 . S
C249 C248 1.400 . S
C249 C250 1.398 . S
C249 C255 1.491 . S
C250 H241 0.950 . S
C250 C249 1.398 . S
C250 C251 1.391 . S
C251 H239 0.950 . S
C251 C247 1.393 . S
C251 C250 1.391 . S
C252 H242 0.950 . S
C252 C253 1.386 . S
C252 C254 1.391 . S
C253 C252 1.386 . S
C253 C257 1.393 . S
C254 H243 0.950 . S
C254 C252 1.391 . S
C254 C255 1.400 . S
C255 C249 1.491 . S
C255 C254 1.400 . S
C255 C256 1.398 . S
C256 H244 0.950 . S
C256 C255 1.398 . S
C256 C257 1.391 . S
C257 H245 0.950 . S
C257 C253 1.393 . S
C257 C256 1.391 . S
H258 C266 0.950 . S
H259 C271 0.950 . S
H260 C268 0.950 . S
H261 C270 0.950 . S
H262 C272 0.950 . S
H263 C274 0.950 . S
H264 C276 0.950 . S
H265 C277 0.950 . S
C266 H258 0.950 . S
C266 C267 1.386 . S
C266 C268 1.391 . S
C267 C266 1.386 . S
C267 C271 1.393 . S
C268 H260 0.950 . S
C268 C266 1.391 . S
C268 C269 1.400 . S
C269 C268 1.400 . S
C269 C270 1.398 . S
C269 C275 1.491 . S
C270 H261 0.950 . S
C270 C269 1.398 . S
C270 C271 1.391 . S
C271 H259 0.950 . S
C271 C267 1.393 . S
C271 C270 1.391 . S
C272 H262 0.950 . S
C272 C273 1.386 . S
C272 C274 1.391 . S
C273 C272 1.386 . S
C273 C277 1.393 . S
C274 H263 0.950 . S
C274 C272 1.391 . S
C274 C275 1.400 . S
C275 C269 1.491 . S
C275 C274 1.400 . S
C275 C276 1.398 . S
C276 H264 0.950 . S
C276 C275 1.398 . S
C276 C277 1.391 . S
C277 H265 0.950 . S
C277 C273 1.393 . S
C277 C276 1.391 . S
H278 C286 0.950 . S
H279 C291 0.950 . S
H280 C288 0.950 . S
H281 C290 0.950 . S
H282 C292 0.950 . S
H283 C294 0.950 . S
H284 C296 0.950 . S
H285 C297 0.950 . S
C286 H278 0.950 . S
C286 C287 1.386 . S
C286 C288 1.391 . S
C287 C286 1.386 . S
C287 C291 1.393 . S
C288 H280 0.950 . S
C288 C286 1.391 . S
C288 C289 1.400 . S
C289 C288 1.400 . S
C289 C290 1.398 . S
C289 C295 1.491 . S
C290 H281 0.950 . S
C290 C289 1.398 . S
C290 C291 1.391 . S
C291 H279 0.950 . S
C291 C287 1.393 . S
C291 C290 1.391 . S
C292 H282 0.950 . S
C292 C293 1.386 . S
C292 C294 1.391 . S
C293 C292 1.386 . S
C293 C297 1.393 . S
C294 H283 0.950 . S
C294 C292 1.391 . S
C294 C295 1.400 . S
C295 C289 1.491 . S
C295 C294 1.400 . S
C295 C296 1.398 . S
C296 H284 0.950 . S
C296 C295 1.398 . S
C296 C297 1.391 . S
C297 H285 0.950 . S
C297 C293 1.393 . S
C297 C296 1.391 . S
H298 C306 0.950 . S
H299 C311 0.950 . S
H300 C308 0.950 . S
H301 C310 0.950 . S
H302 C312 0.950 . S
H303 C314 0.950 . S
H304 C316 0.950 . S
H305 C317 0.950 . S
C306 H298 0.950 . S
C306 C307 1.386 . S
C306 C308 1.391 . S
C307 C306 1.386 . S
C307 C311 1.393 . S
C308 H300 0.950 . S
C308 C306 1.391 . S
C308 C309 1.400 . S
C309 C308 1.400 . S
C309 C310 1.398 . S
C309 C315 1.491 . S
C310 H301 0.950 . S
C310 C309 1.398 . S
C310 C311 1.391 . S
C311 H299 0.950 . S
C311 C307 1.393 . S
C311 C310 1.391 . S
C312 H302 0.950 . S
C312 C313 1.386 . S
C312 C314 1.391 . S
C313 C312 1.386 . S
C313 C317 1.393 . S
C314 H303 0.950 . S
C314 C312 1.391 . S
C314 C315 1.400 . S
C315 C309 1.491 . S
C315 C314 1.400 . S
C315 C316 1.398 . S
C316 H304 0.950 . S
C316 C315 1.398 . S
C316 C317 1.391 . S
C317 H305 0.950 . S
C317 C313 1.393 . S
C317 C316 1.391 . S
H318 C326 0.950 . S
H319 C331 0.950 . S
H320 C328 0.950 . S
H321 C330 0.950 . S
H322 C332 0.950 . S
H323 C334 0.950 . S
H324 C336 0.950 . S
H325 C337 0.950 . S
C326 H318 0.950 . S
C326 C327 1.386 . S
C326 C328 1.391 . S
C327 C326 1.386 . S
C327 C331 1.393 . S
C328 H320 0.950 . S
C328 C326 1.391 . S
C328 C329 1.400 . S
C329 C328 1.400 . S
C329 C330 1.398 . S
C329 C335 1.491 . S
C330 H321 0.950 . S
C330 C329 1.398 . S
C330 C331 1.391 . S
C331 H319 0.950 . S
C331 C327 1.393 . S
C331 C330 1.391 . S
C332 H322 0.950 . S
C332 C333 1.386 . S
C332 C334 1.391 . S
C333 C332 1.386 . S
C333 C337 1.393 . S
C334 H323 0.950 . S
C334 C332 1.391 . S
C334 C335 1.400 . S
C335 C329 1.491 . S
C335 C334 1.400 . S
C335 C336 1.398 . S
C336 H324 0.950 . S
C336 C335 1.398 . S
C336 C337 1.391 . S
C337 H325 0.950 . S
C337 C333 1.393 . S
C337 C336 1.391 . S
H338 C346 0.950 1_554 S
H339 C351 0.950 . S
H340 C348 0.950 . S
H341 C350 0.950 . S
H342 C352 0.950 . S
H343 C354 0.950 . S
H344 C356 0.950 . S
H345 C357 0.950 . S
C346 H338 0.950 1_556 S
C346 C347 1.386 . S
C346 C348 1.391 . S
C347 C346 1.386 . S
C347 C351 1.393 . S
C348 H340 0.950 . S
C348 C346 1.391 . S
C348 C349 1.400 . S
C349 C348 1.400 . S
C349 C350 1.398 . S
C349 C355 1.491 . S
C350 H341 0.950 . S
C350 C349 1.398 . S
C350 C351 1.391 . S
C351 H339 0.950 . S
C351 C347 1.393 . S
C351 C350 1.391 . S
C352 H342 0.950 . S
C352 C353 1.386 . S
C352 C354 1.391 . S
C353 C352 1.386 . S
C353 C357 1.393 . S
C354 H343 0.950 . S
C354 C352 1.391 . S
C354 C355 1.400 . S
C355 C349 1.491 . S
C355 C354 1.400 . S
C355 C356 1.398 . S
C356 H344 0.950 . S
C356 C355 1.398 . S
C356 C357 1.391 . S
C357 H345 0.950 . S
C357 C353 1.393 . S
C357 C356 1.391 . S
C133 C92 1.271 . S
C127 C68 1.362 . S
C147 C11 1.343 . S
C153 C113 1.348 . S
C167 C30 1.537 . S
C173 C89 1.431 . S
C187 C49 1.523 1_554 S
C193 C110 1.403 . S
C213 C94 1.562 . S
C207 C2 1.563 . S
C233 C114 1.611 . S
C227 C25 1.666 . S
C247 C40 1.634 . S
C253 C90 1.605 . S
C267 C59 1.556 . S
C273 C112 1.505 . S
C293 C111 1.491 . S
C287 C21 1.531 . S
C313 C93 1.514 . S
C307 C44 1.559 . S
C333 C115 1.447 . S
C327 C63 1.489 . S
C347 C6 1.495 1_556 S
C353 C91 1.451 . S
