# Generated by pormake.
# Topology zzz, (3,6)-cn, num edge types: 1
# Building blocks:
#     Node 0, Type 0, BuildingBlock: BELTOD_clean_linker_0, # of connection points: 3
#     Node 1, Type 0, BuildingBlock: BELTOD_clean_linker_0, # of connection points: 3
#     Node 2, Type 0, BuildingBlock: BELTOD_clean_linker_0, # of connection points: 3
#     Node 3, Type 0, BuildingBlock: BELTOD_clean_linker_0, # of connection points: 3
#     Node 4, Type 0, BuildingBlock: BELTOD_clean_linker_0, # of connection points: 3
#     Node 5, Type 0, BuildingBlock: BELTOD_clean_linker_0, # of connection points: 3
#     Node 6, Type 0, BuildingBlock: BELTOD_clean_linker_0, # of connection points: 3
#     Node 7, Type 0, BuildingBlock: BELTOD_clean_linker_0, # of connection points: 3
#     Node 8, Type 1, BuildingBlock: HISSIN_clean_sbu_0, # of connection points: 6
#     Node 9, Type 1, BuildingBlock: HISSIN_clean_sbu_0, # of connection points: 6
#     Node 10, Type 1, BuildingBlock: HISSIN_clean_sbu_0, # of connection points: 6
#     Node 11, Type 1, BuildingBlock: HISSIN_clean_sbu_0, # of connection points: 6
#     Edge 12, Type (0, 1), BuildingBlock: XIVTED_clean_linker_0, # of connection points: 2
#     Edge 13, Type (0, 1), BuildingBlock: XIVTED_clean_linker_0, # of connection points: 2
#     Edge 14, Type (0, 1), BuildingBlock: XIVTED_clean_linker_0, # of connection points: 2
#     Edge 15, Type (0, 1), BuildingBlock: XIVTED_clean_linker_0, # of connection points: 2
#     Edge 16, Type (0, 1), BuildingBlock: XIVTED_clean_linker_0, # of connection points: 2
#     Edge 17, Type (0, 1), BuildingBlock: XIVTED_clean_linker_0, # of connection points: 2
#     Edge 18, Type (0, 1), BuildingBlock: XIVTED_clean_linker_0, # of connection points: 2
#     Edge 19, Type (0, 1), BuildingBlock: XIVTED_clean_linker_0, # of connection points: 2
#     Edge 20, Type (0, 1), BuildingBlock: XIVTED_clean_linker_0, # of connection points: 2
#     Edge 21, Type (0, 1), BuildingBlock: XIVTED_clean_linker_0, # of connection points: 2
#     Edge 22, Type (0, 1), BuildingBlock: XIVTED_clean_linker_0, # of connection points: 2
#     Edge 23, Type (0, 1), BuildingBlock: XIVTED_clean_linker_0, # of connection points: 2
#     Edge 24, Type (0, 1), BuildingBlock: XIVTED_clean_linker_0, # of connection points: 2
#     Edge 25, Type (0, 1), BuildingBlock: XIVTED_clean_linker_0, # of connection points: 2
#     Edge 26, Type (0, 1), BuildingBlock: XIVTED_clean_linker_0, # of connection points: 2
#     Edge 27, Type (0, 1), BuildingBlock: XIVTED_clean_linker_0, # of connection points: 2
#     Edge 28, Type (0, 1), BuildingBlock: XIVTED_clean_linker_0, # of connection points: 2
#     Edge 29, Type (0, 1), BuildingBlock: XIVTED_clean_linker_0, # of connection points: 2
#     Edge 30, Type (0, 1), BuildingBlock: XIVTED_clean_linker_0, # of connection points: 2
#     Edge 31, Type (0, 1), BuildingBlock: XIVTED_clean_linker_0, # of connection points: 2
#     Edge 32, Type (0, 1), BuildingBlock: XIVTED_clean_linker_0, # of connection points: 2
#     Edge 33, Type (0, 1), BuildingBlock: XIVTED_clean_linker_0, # of connection points: 2
#     Edge 34, Type (0, 1), BuildingBlock: XIVTED_clean_linker_0, # of connection points: 2
#     Edge 35, Type (0, 1), BuildingBlock: XIVTED_clean_linker_0, # of connection points: 2
# Relax obj value: 0.384
# Max RMSD: 0.224
# Mean RMSD: 0.181
data_MOF--net-zzz--node1-HISSIN_clean_sbu_0--node2-BELTOD_clean_linker_0--edge1-XIVTED_clean_linker_0
_symmetry_space_group_name_H-M    P1
_symmetry_Int_Tables_number       1
_symmetry_cell_setting            triclinic
loop_
_symmetry_equiv_pos_as_xyz
'x, y, z'
_cell_length_a     52.871979
_cell_length_b     53.01699
_cell_length_c     20.263894
_cell_angle_alpha  89.892326
_cell_angle_beta   91.932007
_cell_angle_gamma 91.518812
loop_
_atom_site_label
_atom_site_type_symbol
_atom_site_fract_x
_atom_site_fract_y
_atom_site_fract_z
_atom_type_partial_charge
P0 P 0.71395 0.49599 0.31699 0.0
H1 H 0.72932 0.49873 0.45688 0.0
H2 H 0.76931 0.51129 0.51072 0.0
H3 H 0.79354 0.54548 0.32864 0.0
H4 H 0.75407 0.53111 0.274 0.0
H5 H 0.66077 0.48413 0.28954 0.0
H6 H 0.63047 0.49975 0.20732 0.0
H7 H 0.68364 0.55919 0.15587 0.0
H8 H 0.71387 0.54374 0.23977 0.0
H9 H 0.74769 0.45423 0.33914 0.0
H10 H 0.7195 0.49709 0.17235 0.0
O11 O 0.69976 0.47657 0.37002 0.0
H12 H 0.77761 0.43386 0.26819 0.0
H13 H 0.74954 0.47755 0.10229 0.0
C14 C 0.73838 0.51419 0.36136 0.0
C15 C 0.74286 0.50961 0.42888 0.0
C16 C 0.76594 0.5169 0.45987 0.0
C17 C 0.7851 0.52912 0.42406 0.0
C18 C 0.77961 0.53557 0.35768 0.0
C19 C 0.75664 0.52791 0.32652 0.0
C20 C 0.68965 0.51278 0.27141 0.0
C21 C 0.66566 0.50112 0.26254 0.0
C22 C 0.64827 0.51006 0.21525 0.0
C23 C 0.65469 0.53062 0.17473 0.0
C24 C 0.67821 0.54321 0.18611 0.0
C25 C 0.69548 0.53447 0.23447 0.0
C26 C 0.73118 0.47704 0.2612 0.0
C27 C 0.74749 0.4588 0.287 0.0
C28 C 0.76476 0.44738 0.24655 0.0
C29 C 0.76609 0.45417 0.1796 0.0
C30 C 0.74882 0.47157 0.15333 0.0
C31 C 0.7316 0.48294 0.19377 0.0
P32 P 0.04168 0.72267 0.29729 0.0
H33 H 0.02343 0.72942 0.43118 0.0
H34 H 0.01064 0.76712 0.48886 0.0
H35 H 0.00831 0.80781 0.30384 0.0
H36 H 0.02026 0.76977 0.2464 0.0
H37 H 0.04961 0.66938 0.27619 0.0
H38 H 0.03558 0.64018 0.18955 0.0
H39 H 0.98592 0.69641 0.1073 0.0
H40 H 1.00019 0.72584 0.19548 0.0
H41 H 0.0838 0.7555 0.34089 0.0
H42 H 0.051 0.72898 0.15504 0.0
O43 O 0.05662 0.70707 0.35802 0.0
H44 H 0.10952 0.78669 0.28221 0.0
H45 H 0.07565 0.76033 0.09687 0.0
C46 C 0.02304 0.74672 0.33441 0.0
C47 C 0.01933 0.74618 0.40262 0.0
C48 C 0.01236 0.76797 0.4358 0.0
C49 C 0.00906 0.79086 0.40152 0.0
C50 C 0.01062 0.79066 0.33221 0.0
C51 C 0.01742 0.76878 0.29903 0.0
C52 C 0.02566 0.69973 0.24326 0.0
C53 C 0.03507 0.67527 0.24099 0.0
C54 C 0.02703 0.6585 0.19102 0.0
C55 C 0.0096 0.66586 0.14115 0.0
C56 C 0.99947 0.69015 0.14468 0.0
C57 C 1.00735 0.7069 0.19554 0.0
C58 C 0.06539 0.73992 0.25261 0.0
C59 C 0.08264 0.75589 0.28743 0.0
C60 C 0.09714 0.77387 0.25386 0.0
C61 C 0.09444 0.77626 0.18484 0.0
C62 C 0.07849 0.75893 0.14991 0.0
C63 C 0.06408 0.74097 0.18348 0.0
P64 P 0.79586 0.037 0.24317 0.0
H65 H 0.78141 0.04597 0.37854 0.0
H66 H 0.74398 0.03511 0.4388 0.0
H67 H 0.71756 0.98605 0.27931 0.0
H68 H 0.75515 0.99811 0.2175 0.0
H69 H 0.85011 0.02752 0.25708 0.0
H70 H 0.88004 0.01352 0.17777 0.0
H71 H 0.81797 0.98887 0.04714 0.0
H72 H 0.78796 1.00396 0.1266 0.0
H73 H 0.74546 0.0596 0.23242 0.0
H74 H 0.8142 0.06107 0.12308 0.0
O75 O 0.81415 0.05564 0.29218 0.0
H76 H 0.72468 0.08418 0.14594 0.0
H77 H 0.79333 0.08575 0.0361 0.0
C78 C 0.77156 0.02253 0.29364 0.0
C79 C 0.76801 0.03231 0.35689 0.0
C80 C 0.74633 0.02599 0.39175 0.0
C81 C 0.72735 0.0096 0.36458 0.0
C82 C 0.73143 0.99899 0.30195 0.0
C83 C 0.75322 0.00551 0.26677 0.0
C84 C 0.81663 0.0169 0.19814 0.0
C85 C 0.84279 0.01838 0.21242 0.0
C86 C 0.86006 0.0103 0.16649 0.0
C87 C 0.85166 1.0004 0.10486 0.0
C88 C 0.82531 0.99693 0.09317 0.0
C89 C 0.80801 0.00509 0.13932 0.0
C90 C 0.7811 0.05749 0.18301 0.0
C91 C 0.75617 0.06519 0.19 0.0
C92 C 0.74436 0.0796 0.14079 0.0
C93 C 0.75733 0.08671 0.08393 0.0
C94 C 0.78277 0.08022 0.07892 0.0
C95 C 0.79464 0.066 0.12849 0.0
P96 P 0.48334 0.79752 0.28723 0.0
H97 H 0.4987 0.79103 0.42637 0.0
H98 H 0.51212 0.75383 0.48795 0.0
H99 H 0.52058 0.71402 0.30453 0.0
H100 H 0.50758 0.75152 0.24322 0.0
H101 H 0.47486 0.85062 0.26357 0.0
H102 H 0.49072 0.88034 0.18259 0.0
H103 H 0.54366 0.82539 0.11915 0.0
H104 H 0.52756 0.79545 0.2016 0.0
H105 H 0.44021 0.76461 0.31543 0.0
H106 H 0.47837 0.79099 0.14247 0.0
O107 O 0.46668 0.81255 0.34284 0.0
H108 H 0.41494 0.73472 0.24712 0.0
H109 H 0.45407 0.76091 0.07495 0.0
C110 C 0.50186 0.77403 0.33012 0.0
C111 C 0.5042 0.7746 0.39923 0.0
C112 C 0.51162 0.75316 0.43451 0.0
C113 C 0.51686 0.73068 0.40133 0.0
C114 C 0.51672 0.73095 0.33182 0.0
C115 C 0.50931 0.75246 0.29657 0.0
C116 C 0.50027 0.8209 0.23954 0.0
C117 C 0.49047 0.84515 0.23395 0.0
C118 C 0.49957 0.8622 0.18729 0.0
C119 C 0.51848 0.8553 0.14417 0.0
C120 C 0.52899 0.83126 0.15139 0.0
C121 C 0.52003 0.81423 0.199 0.0
C122 C 0.46115 0.78011 0.23428 0.0
C123 C 0.44275 0.7644 0.26261 0.0
C124 C 0.42848 0.74718 0.2236 0.0
C125 C 0.43258 0.74527 0.15556 0.0
C126 C 0.4501 0.76206 0.12692 0.0
C127 C 0.46427 0.77927 0.16591 0.0
P128 P 0.29141 0.43397 0.05412 0.0
H129 H 0.2795 0.43097 0.91132 0.0
H130 H 0.2433 0.4466 0.84607 0.0
H131 H 0.2224 0.49189 0.01125 0.0
H132 H 0.25885 0.47679 0.0757 0.0
H133 H 0.34125 0.41428 0.0857 0.0
H134 H 0.37614 0.43035 0.15671 0.0
H135 H 0.33967 0.50198 0.16946 0.0
H136 H 0.30487 0.48588 0.09697 0.0
H137 H 0.24212 0.40858 0.06106 0.0
H138 H 0.29555 0.44537 0.19746 0.0
O139 O 0.29784 0.4068 0.01758 0.0
H140 H 0.20867 0.41359 0.13979 0.0
H141 H 0.26236 0.45169 0.27376 0.0
C142 C 0.27191 0.4526 0.9986 0.0
C143 C 0.26778 0.44506 0.93266 0.0
C144 C 0.24699 0.4539 0.89544 0.0
C145 C 0.22983 0.47011 0.92407 0.0
C146 C 0.23519 0.4792 0.98823 0.0
C147 C 0.25623 0.47077 0.02484 0.0
C148 C 0.32051 0.44893 0.08527 0.0
C149 C 0.3412 0.43379 0.10131 0.0
C150 C 0.36115 0.44298 0.14229 0.0
C151 C 0.36055 0.46735 0.16921 0.0
C152 C 0.34056 0.48305 0.1498 0.0
C153 C 0.32079 0.47397 0.10772 0.0
C154 C 0.27118 0.4273 0.12219 0.0
C155 C 0.24688 0.41697 0.10874 0.0
C156 C 0.22768 0.42018 0.15345 0.0
C157 C 0.23257 0.43388 0.21214 0.0
C158 C 0.25772 0.44121 0.229 0.0
C159 C 0.27687 0.43782 0.18454 0.0
P160 P 0.07748 0.29906 0.04077 0.0
H161 H 0.08203 0.28774 0.9001 0.0
H162 H 0.0691 0.25041 0.83611 0.0
H163 H 0.02229 0.22494 0.99477 0.0
H164 H 0.03541 0.26236 0.05885 0.0
H165 H 0.08888 0.35313 0.05303 0.0
H166 H 0.07496 0.38475 0.12915 0.0
H167 H 0.01783 0.33213 0.19836 0.0
H168 H 0.03101 0.30105 0.11861 0.0
H169 H 0.1049 0.25235 0.03194 0.0
H170 H 0.07813 0.29902 0.18778 0.0
O171 O 0.10214 0.31138 1.00137 0.0
H172 H 0.10763 0.21689 0.10833 0.0
H173 H 0.07878 0.26356 0.26224 0.0
C174 C 0.05955 0.27821 0.98438 0.0
C175 C 0.06824 0.2747 0.9204 0.0
C176 C 0.0611 0.25306 0.88404 0.0
C177 C 0.04501 0.23437 0.91067 0.0
C178 C 0.03462 0.23895 0.97249 0.0
C179 C 0.04189 0.2606 0.00903 0.0
C180 C 0.06113 0.32451 0.07988 0.0
C181 C 0.07278 0.34858 0.08283 0.0
C182 C 0.06504 0.36663 0.12769 0.0
C183 C 0.04577 0.36092 0.17216 0.0
C184 C 0.03273 0.33743 0.16532 0.0
C185 C 0.04019 0.31953 0.11919 0.0
C186 C 0.08977 0.27788 0.10291 0.0
C187 C 0.1001 0.25516 0.08291 0.0
C188 C 0.10141 0.2348 0.12654 0.0
C189 C 0.09219 0.23691 0.19058 0.0
C190 C 0.08563 0.2609 0.21307 0.0
C191 C 0.08472 0.2813 0.16968 0.0
P192 P 0.23526 0.06992 0.04551 0.0
H193 H 0.24448 0.07086 0.90353 0.0
H194 H 0.28067 0.05753 0.84227 0.0
H195 H 0.30759 0.01552 0.01193 0.0
H196 H 0.27114 0.02904 0.07345 0.0
H197 H 0.18721 0.09118 0.07707 0.0
H198 H 0.15528 0.07942 0.15494 0.0
H199 H 0.19099 0.00786 0.18734 0.0
H200 H 0.22365 0.0203 0.10916 0.0
H201 H 0.28197 0.09991 0.03855 0.0
H202 H 0.23749 0.06582 0.19139 0.0
O203 O 0.22569 0.09465 1.00105 0.0
H204 H 0.31787 0.10478 0.11704 0.0
H205 H 0.27302 0.06948 0.26803 0.0
C206 C 0.25481 0.05098 0.99343 0.0
C207 C 0.25757 0.05804 0.92716 0.0
C208 C 0.2786 0.05068 0.89223 0.0
C209 C 0.29746 0.03589 0.92245 0.0
C210 C 0.2935 0.0269 0.98693 0.0
C211 C 0.27244 0.03443 0.02208 0.0
C212 C 0.2077 0.05647 0.08569 0.0
C213 C 0.1878 0.07254 0.09885 0.0
C214 C 0.16939 0.06575 0.14408 0.0
C215 C 0.17032 0.04264 0.17825 0.0
C216 C 0.18969 0.02595 0.16278 0.0
C217 C 0.20819 0.03282 0.11702 0.0
C218 C 0.25726 0.08184 0.10833 0.0
C219 C 0.27965 0.09417 0.08937 0.0
C220 C 0.30022 0.09677 0.13418 0.0
C221 C 0.29864 0.08689 0.19843 0.0
C222 C 0.27511 0.07736 0.21914 0.0
C223 C 0.25462 0.07488 0.17451 0.0
P224 P 0.47067 0.24076 0.10753 0.0
H225 H 0.44133 0.25758 0.99107 0.0
H226 H 0.4513 0.28967 0.90837 0.0
H227 H 0.53001 0.28855 0.97125 0.0
H228 H 0.52019 0.25614 0.0524 0.0
H229 H 0.4349 0.20771 0.17323 0.0
H230 H 0.43981 0.16682 0.22455 0.0
H231 H 0.51032 0.15817 0.12646 0.0
H232 H 0.50492 0.19949 0.07342 0.0
H233 H 0.46507 0.27983 0.20804 0.0
H234 H 0.52303 0.22941 0.14921 0.0
O235 O 0.44174 0.25105 0.12136 0.0
H236 H 0.49464 0.2986 0.29061 0.0
H237 H 0.55262 0.24856 0.23039 0.0
C238 C 0.47982 0.25479 0.02974 0.0
C239 C 0.46091 0.26345 0.98552 0.0
C240 C 0.46661 0.28191 0.93817 0.0
C241 C 0.49134 0.29213 0.93448 0.0
C242 C 0.51067 0.28143 0.9739 0.0
C243 C 0.50501 0.26275 0.0205 0.0
C244 C 0.4696 0.20691 0.11947 0.0
C245 C 0.45091 0.19669 0.16007 0.0
C246 C 0.45378 0.17313 0.18987 0.0
C247 C 0.47567 0.15928 0.18065 0.0
C248 C 0.4934 0.16854 0.13546 0.0
C249 C 0.49026 0.19209 0.10467 0.0
C250 C 0.49172 0.25314 0.17223 0.0
C251 C 0.48396 0.27253 0.21324 0.0
C252 C 0.50082 0.28318 0.2606 0.0
C253 C 0.5258 0.27488 0.26673 0.0
C254 C 0.53341 0.25519 0.22657 0.0
C255 C 0.51642 0.24423 0.18022 0.0
Eu256 Eu 0.99451 0.02208 0.60717 0.0
Eu257 Eu 0.04021 1.00354 0.70583 0.0
C258 C 0.02467 0.06129 0.70316 0.0
C259 C 0.96701 0.06653 0.49096 0.0
C260 C 0.98066 0.08571 0.52549 0.0
C261 C 0.97473 0.0886 0.3883 0.0
C262 C 0.99218 0.10549 0.49162 0.0
C263 C 0.96331 0.0686 0.42238 0.0
C264 C 0.99024 0.10663 0.42238 0.0
C265 C 0.96261 0.04218 0.52387 0.0
O266 O 1.00493 1.00363 0.76752 0.0
O267 O 0.97351 1.00147 0.68652 0.0
C268 C 0.98093 1.00015 0.74896 0.0
O269 O 1.0 0.98142 0.57906 0.0
O270 O 0.05834 1.00305 0.80448 0.0
O271 O 0.07697 0.98668 0.72209 0.0
O272 O 0.02186 0.96671 0.67081 0.0
C273 C 0.00929 0.96275 0.61436 0.0
O274 O 0.03103 0.03554 0.56142 0.0
O275 O 0.05623 1.00498 0.60374 0.0
O276 O 0.04393 0.0462 0.7021 0.0
O277 O 0.9782 0.02484 0.50716 0.0
O278 O 0.96 0.04303 0.58765 0.0
O279 O 1.00227 0.0535 0.68092 0.0
C280 C 0.08468 0.96867 0.82667 0.0
C281 C 0.07442 0.94449 0.81329 0.0
C282 C 0.10958 0.95172 0.91838 0.0
C283 C 0.08181 0.924 0.85208 0.0
C284 C 0.10228 0.97219 0.87929 0.0
C285 C 0.09945 0.92741 0.90507 0.0
C286 C 0.07754 0.99031 0.78566 0.0
C287 C 0.05141 0.02203 0.55843 0.0
H288 H 0.98423 0.08442 0.57833 0.0
H289 H 0.97242 0.08924 0.33503 0.0
H290 H 1.00416 0.11875 0.51965 0.0
H291 H 0.95311 0.05385 0.39477 0.0
H292 H 0.06069 0.94148 0.77297 0.0
H293 H 0.12327 0.95488 0.95867 0.0
H294 H 0.07335 0.90556 0.84138 0.0
H295 H 0.1104 0.99076 0.89007 0.0
Eu296 Eu 0.52464 0.02969 0.70009 0.0
Eu297 Eu 0.50305 0.98197 0.6136 0.0
C298 C 0.52518 0.97298 0.75763 0.0
C299 C 0.56518 0.08369 0.77452 0.0
C300 C 0.57048 0.09786 0.83164 0.0
C301 C 0.60737 0.09361 0.73681 0.0
C302 C 0.5944 0.10907 0.84264 0.0
C303 C 0.58343 0.08222 0.72611 0.0
C304 C 0.61347 0.1063 0.79649 0.0
C305 C 0.54198 0.06802 0.77041 0.0
O306 O 0.47207 0.99019 0.6848 0.0
O307 O 0.48199 0.03161 0.70688 0.0
C308 C 0.46596 0.01224 0.70819 0.0
O309 O 0.52319 0.04198 0.59349 0.0
O310 O 0.4808 0.94674 0.60264 0.0
O311 O 0.49877 0.96329 0.51801 0.0
O312 O 0.48883 0.01747 0.56447 0.0
C313 C 0.50385 0.03695 0.55308 0.0
O314 O 0.56032 0.01395 0.65879 0.0
O315 O 0.54242 0.98918 0.57575 0.0
O316 O 0.52576 0.96456 0.69688 0.0
O317 O 0.52752 0.07034 0.71746 0.0
O318 O 0.54476 0.04452 0.78758 0.0
O319 O 0.5195 0.99651 0.76927 0.0
C320 C 0.45622 0.95202 0.50432 0.0
C321 C 0.43722 0.96396 0.53867 0.0
C322 C 0.43601 0.96491 0.40087 0.0
C323 C 0.41886 0.97765 0.50461 0.0
C324 C 0.45457 0.95131 0.43513 0.0
C325 C 0.41895 0.97947 0.43547 0.0
C326 C 0.48083 0.94812 0.53828 0.0
C327 C 0.56225 1.00066 0.60439 0.0
H328 H 0.55661 0.09901 0.86961 0.0
H329 H 0.62145 0.0914 0.69982 0.0
H330 H 0.59838 0.11829 0.88961 0.0
H331 H 0.57957 0.07125 0.68166 0.0
H332 H 0.43799 0.96503 0.59208 0.0
H333 H 0.43608 0.96532 0.34745 0.0
H334 H 0.40612 0.9886 0.5331 0.0
H335 H 0.46907 0.94235 0.4076 0.0
Eu336 Eu 0.48503 0.51827 0.70906 0.0
Eu337 Eu 0.53468 0.50292 0.62562 0.0
C338 C 0.54024 0.52513 0.77394 0.0
C339 C 0.43563 0.5523 0.80542 0.0
C340 C 0.44751 0.57591 0.79593 0.0
C341 C 0.40776 0.57102 0.88322 0.0
C342 C 0.43965 0.59697 0.83022 0.0
C343 C 0.41558 0.54998 0.84865 0.0
C344 C 0.41989 0.59469 0.87484 0.0
C345 C 0.44465 0.52987 0.77235 0.0
O346 O 0.51608 0.4659 0.65632 0.0
O347 O 0.49703 0.48036 0.74799 0.0
C348 C 0.50586 0.46177 0.71367 0.0
O349 O 0.47091 0.49612 0.6196 0.0
O350 O 0.57525 0.49605 0.62431 0.0
O351 O 0.55216 0.49098 0.53533 0.0
O352 O 0.50251 0.50778 0.55128 0.0
C353 C 0.47918 0.49981 0.55993 0.0
O354 O 0.49464 0.55322 0.64995 0.0
O355 O 0.53502 0.54534 0.6169 0.0
O356 O 0.54743 0.50802 0.73225 0.0
O357 O 0.44633 0.53145 0.70842 0.0
O358 O 0.46432 0.51943 0.8003 0.0
O359 O 0.51817 0.53574 0.7667 0.0
C360 C 0.58406 0.46216 0.55518 0.0
C361 C 0.57191 0.44144 0.58456 0.0
C362 C 0.6101 0.43364 0.49541 0.0
C363 C 0.57793 0.41699 0.56723 0.0
C364 C 0.60375 0.45822 0.51222 0.0
C365 C 0.59647 0.41272 0.5205 0.0
C366 C 0.57416 0.48741 0.56415 0.0
C367 C 0.51594 0.56053 0.62296 0.0
H368 H 0.46316 0.57795 0.76296 0.0
H369 H 0.39239 0.56874 0.91691 0.0
H370 H 0.44966 0.61483 0.82352 0.0
H371 H 0.40624 0.53183 0.85641 0.0
H372 H 0.55674 0.44415 0.61814 0.0
H373 H 0.62486 0.43112 0.46043 0.0
H374 H 0.56665 0.40162 0.58714 0.0
H375 H 0.61344 0.47409 0.48951 0.0
Eu376 Eu 0.02256 0.53258 0.61552 0.0
Eu377 Eu 0.99848 0.48656 0.70364 0.0
C378 C 0.05857 0.49844 0.70957 0.0
C379 C 0.06858 0.56139 0.50585 0.0
C380 C 0.08827 0.54934 0.5406 0.0
C381 C 0.08978 0.55393 0.40354 0.0
C382 C 0.10788 0.53868 0.50703 0.0
C383 C 0.06999 0.56448 0.43734 0.0
C384 C 0.10832 0.53992 0.4378 0.0
C385 C 0.04444 0.56496 0.53822 0.0
O386 O 1.0031 0.51986 0.77324 0.0
O387 O 1.00496 0.55287 0.69968 0.0
C388 C 1.00247 0.54417 0.76004 0.0
O389 O 0.98188 0.52683 0.5799 0.0
O390 O 0.99644 0.4647 0.79499 0.0
O391 O 0.97325 0.45357 0.70936 0.0
O392 O 0.96528 0.51038 0.67394 0.0
C393 C 0.96233 0.52119 0.61598 0.0
O394 O 0.03477 0.49632 0.56946 0.0
O395 O 1.00088 0.47205 0.59894 0.0
O396 O 0.04066 0.48076 0.71021 0.0
O397 O 0.0263 0.54943 0.51792 0.0
O398 O 0.04561 0.56695 0.60252 0.0
O399 O 0.05442 0.52093 0.68491 0.0
C400 C 0.95623 0.44655 0.81372 0.0
C401 C 0.93539 0.46223 0.8058 0.0
C402 C 0.93522 0.42436 0.90218 0.0
C403 C 0.91448 0.45886 0.84548 0.0
C404 C 0.95606 0.42764 0.8621 0.0
C405 C 0.91419 0.43989 0.8941 0.0
C406 C 0.97822 0.44982 0.77201 0.0
C407 C 0.01974 0.47653 0.55974 0.0
H408 H 0.08754 0.54642 0.59334 0.0
H409 H 0.08987 0.5557 0.3503 0.0
H410 H 0.12157 0.52787 0.53522 0.0
H411 H 0.05489 0.57352 0.40949 0.0
H412 H 0.93529 0.4771 0.76903 0.0
H413 H 0.93544 0.40953 0.93902 0.0
H414 H 0.89873 0.47137 0.83887 0.0
H415 H 0.97205 0.41542 0.86885 0.0
H416 H 0.17901 0.01774 0.29675 0.0
H417 H 0.04493 0.05077 0.44578 0.0
H418 H 0.12 0.05529 0.18526 0.0
H419 H 0.09769 1.00075 0.542 0.0
H420 H 0.07316 0.05455 0.35255 0.0
H421 H 0.15024 0.01234 0.38812 0.0
C422 C 0.15996 0.02459 0.29082 0.0
C423 C 0.15218 0.03712 0.23258 0.0
C424 C 0.07857 0.04274 0.39405 0.0
C425 C 0.1191 0.03148 0.33868 0.0
C426 C 0.06248 0.04066 0.4476 0.0
C427 C 0.06885 0.02541 0.50223 0.0
C428 C 0.1014 0.02964 0.39494 0.0
C429 C 0.09188 0.01271 0.50119 0.0
C430 C 0.14356 0.02168 0.34353 0.0
C431 C 0.12723 0.04594 0.2292 0.0
N432 N 0.10727 0.01516 0.44872 0.0
N433 N 0.11175 0.04309 0.28135 0.0
H434 H 0.52069 0.14808 0.24327 0.0
H435 H 0.4634 0.03564 0.46329 0.0
H436 H 0.44317 0.12108 0.22119 0.0
H437 H 0.53472 0.07468 0.50654 0.0
H438 H 0.45722 0.0627 0.3659 0.0
H439 H 0.52803 0.11647 0.32902 0.0
C440 C 0.50532 0.13517 0.25536 0.0
C441 C 0.48124 0.13738 0.22484 0.0
C442 C 0.47422 0.06528 0.39673 0.0
C443 C 0.48941 0.10131 0.32461 0.0
C444 C 0.47776 0.04986 0.45241 0.0
C445 C 0.49954 0.05299 0.49366 0.0
C446 C 0.49271 0.0838 0.38176 0.0
C447 C 0.51754 0.07165 0.47669 0.0
C448 C 0.50946 0.11728 0.30505 0.0
C449 C 0.46197 0.12029 0.24381 0.0
N450 N 0.51373 0.08627 0.42224 0.0
N451 N 0.46643 0.1031 0.29263 0.0
H452 H 0.41225 0.46259 0.17349 0.0
H453 H 0.42744 0.49497 0.5573 0.0
H454 H 0.35086 0.48873 0.28799 0.0
H455 H 0.49121 0.49509 0.42982 0.0
H456 H 0.399 0.48896 0.46056 0.0
H457 H 0.44156 0.47127 0.26777 0.0
C458 C 0.405 0.47037 0.21826 0.0
C459 C 0.3791 0.47506 0.22277 0.0
C460 C 0.41921 0.49035 0.45374 0.0
C461 C 0.41239 0.48459 0.33111 0.0
C462 C 0.43549 0.49362 0.50902 0.0
C463 C 0.46179 0.49551 0.50176 0.0
C464 C 0.42925 0.48857 0.39065 0.0
C465 C 0.47108 0.49379 0.43778 0.0
C466 C 0.42171 0.47533 0.27197 0.0
C467 C 0.37072 0.48514 0.282 0.0
N468 N 0.45485 0.49026 0.38477 0.0
N469 N 0.38724 0.48932 0.33398 0.0
H470 H 1.00061 0.36987 0.23347 0.0
H471 H 0.06025 0.4759 0.47839 0.0
H472 H 0.07985 0.39217 0.2408 0.0
H473 H 0.9882 0.43845 0.51023 0.0
H474 H 0.06607 0.44831 0.38379 0.0
H475 H 0.99411 0.39754 0.32776 0.0
C476 C 0.01668 0.38048 0.25454 0.0
C477 C 0.04084 0.37857 0.22807 0.0
C478 C 0.049 0.44607 0.41155 0.0
C479 C 0.03332 0.41075 0.33605 0.0
C480 C 0.04564 0.46186 0.46566 0.0
C481 C 0.02373 0.45949 0.50279 0.0
C482 C 0.03021 0.42786 0.39356 0.0
C483 C 1.00547 0.44092 0.48346 0.0
C484 C 0.01289 0.39639 0.3084 0.0
C485 C 0.06073 0.39326 0.2577 0.0
N486 N 0.00906 0.42592 0.43015 0.0
N487 N 0.0565 0.40866 0.30961 0.0
H488 H 0.90086 0.98366 0.11683 0.0
H489 H 0.9291 0.9995 0.73188 0.0
H490 H 0.84528 0.00751 0.97026 0.0
H491 H 0.98796 0.99275 0.88318 0.0
H492 H 0.89741 0.9967 0.81687 0.0
H493 H 0.93197 0.98138 0.03055 0.0
C494 C 0.89506 0.98837 0.06667 0.0
C495 C 0.8702 0.99599 0.05155 0.0
C496 C 0.91725 0.9957 0.83152 0.0
C497 C 0.906 0.99303 0.9517 0.0
C498 C 0.93543 0.9972 0.78287 0.0
C499 C 0.9614 0.99645 0.80007 0.0
C500 C 0.9249 0.99325 0.89826 0.0
C501 C 0.96824 0.99351 0.86731 0.0
C502 C 0.91291 0.98696 0.01727 0.0
C503 C 0.86396 1.00124 0.98486 0.0
N504 N 0.95016 0.99206 0.91378 0.0
N505 N 0.88168 0.99976 0.93778 0.0
H506 H 0.5263 0.90669 0.14782 0.0
H507 H 0.53141 0.92158 0.75464 0.0
H508 H 0.52586 0.84338 0.0143 0.0
H509 H 0.52698 0.98403 0.88977 0.0
H510 H 0.53408 0.89274 0.84904 0.0
H511 H 0.53148 0.93523 0.05423 0.0
C512 C 0.5275 0.89876 0.09883 0.0
C513 C 0.5254 0.87256 0.08901 0.0
C514 C 0.5327 0.91277 0.858 0.0
C515 C 0.53129 0.90526 0.9811 0.0
C516 C 0.53121 0.92929 0.80407 0.0
C517 C 0.52878 0.95532 0.81408 0.0
C518 C 0.5318 0.92232 0.92254 0.0
C519 C 0.52865 0.96414 0.87942 0.0
C520 C 0.53048 0.91509 0.04532 0.0
C521 C 0.52752 0.86341 0.0244 0.0
N522 N 0.53 0.9477 0.93094 0.0
N523 N 0.53009 0.87973 0.97289 0.0
H524 H 0.66879 0.53874 0.04782 0.0
H525 H 0.52746 0.54457 0.8938 0.0
H526 H 0.60293 0.53525 0.16782 0.0
H527 H 0.59126 0.51935 0.78673 0.0
H528 H 0.55549 0.5508 0.99205 0.0
H529 H 0.64108 0.54193 0.94918 0.0
C530 C 0.64851 0.53921 0.05357 0.0
C531 C 0.63816 0.53663 0.11619 0.0
C532 C 0.56332 0.54411 0.94679 0.0
C533 C 0.60631 0.53999 1.00328 0.0
C534 C 0.54739 0.54065 0.8907 0.0
C535 C 0.55701 0.53123 0.83215 0.0
C536 C 0.5891 0.53854 0.94383 0.0
C537 C 0.58297 0.5264 0.83099 0.0
C538 C 0.6327 0.54078 0.99718 0.0
C539 C 0.61169 0.53697 0.12044 0.0
N540 N 0.59808 0.5301 0.8859 0.0
N541 N 0.59665 0.53849 0.06474 0.0
H542 H 1.00534 0.67796 0.00906 0.0
H543 H 0.99607 0.53349 0.89115 0.0
H544 H 1.00094 0.61448 0.14206 0.0
H545 H 1.00307 0.59621 0.75623 0.0
H546 H 0.99439 0.56321 0.98258 0.0
H547 H 1.00063 0.64884 0.91541 0.0
C548 C 1.00298 0.65795 0.0187 0.0
C549 C 1.0037 0.64872 0.08381 0.0
C550 C 0.99617 0.57052 0.93298 0.0
C551 C 0.99867 0.61514 0.97645 0.0
C552 C 0.99713 0.55351 0.88052 0.0
C553 C 0.99986 0.56225 0.81555 0.0
C554 C 0.99799 0.59661 0.92088 0.0
C555 C 1.00103 0.58851 0.80533 0.0
C556 C 1.0005 0.64129 0.9651 0.0
C557 C 1.00089 0.6225 0.0929 0.0
N558 N 1.00022 0.60471 0.85735 0.0
N559 N 0.99864 0.60671 0.04003 0.0
H560 H 0.09232 0.22991 0.32584 0.0
H561 H 0.01488 0.09903 0.30735 0.0
H562 H 0.0736 0.19172 0.14153 0.0
H563 H 1.00368 0.1555 0.45638 0.0
H564 H 0.0444 0.12807 0.25381 0.0
H565 H 0.0691 0.19664 0.38398 0.0
C566 C 0.08374 0.21442 0.29759 0.0
C567 C 0.08457 0.21403 0.22835 0.0
C568 C 0.03544 0.13399 0.29829 0.0
C569 C 0.05839 0.17583 0.29479 0.0
C570 C 0.01831 0.1176 0.32844 0.0
C571 C 1.00655 0.12485 0.38635 0.0
C572 C 0.04117 0.15762 0.32675 0.0
C573 C 0.01246 0.14893 0.41233 0.0
C574 C 0.0705 0.19548 0.33087 0.0
C575 C 0.0737 0.19296 0.19481 0.0
N576 N 0.02943 0.16442 0.38247 0.0
N577 N 0.06085 0.17485 0.22831 0.0
H578 H 0.30563 0.08779 0.33393 0.0
H579 H 0.43215 0.00963 0.33131 0.0
H580 H 0.3446 0.07254 0.15477 0.0
H581 H 0.3709 0.99412 0.46272 0.0
H582 H 0.40724 0.04283 0.27901 0.0
H583 H 0.33823 0.06508 0.39646 0.0
C584 C 0.32128 0.08023 0.30784 0.0
C585 C 0.32186 0.08142 0.23864 0.0
C586 C 0.39943 0.03216 0.31954 0.0
C587 C 0.35924 0.05591 0.30996 0.0
C588 C 0.41339 0.01294 0.34876 0.0
C589 C 0.40346 0.99869 0.40094 0.0
C590 C 0.37558 0.03746 0.34336 0.0
C591 C 0.37942 1.00461 0.42297 0.0
C592 C 0.33981 0.06728 0.34358 0.0
C593 C 0.34313 0.07203 0.20788 0.0
N594 N 0.36631 0.02355 0.39405 0.0
N595 N 0.36079 0.05928 0.24368 0.0
H596 H 0.57106 0.29613 0.23416 0.0
H597 H 0.59061 0.36611 0.58036 0.0
H598 H 0.5223 0.28454 0.39841 0.0
H599 H 0.60598 0.40066 0.39196 0.0
H600 H 0.58035 0.32635 0.52331 0.0
H601 H 0.59816 0.32459 0.30281 0.0
C602 C 0.56648 0.29909 0.28523 0.0
C603 C 0.54435 0.28834 0.31076 0.0
C604 C 0.58664 0.34257 0.49504 0.0
C605 C 0.57518 0.32041 0.38905 0.0
C606 C 0.59236 0.36532 0.52733 0.0
C607 C 0.59826 0.38717 0.49083 0.0
C608 C 0.58741 0.34154 0.42607 0.0
C609 C 0.60131 0.38456 0.42252 0.0
C610 C 0.58187 0.31529 0.32413 0.0
C611 C 0.53907 0.2928 0.37695 0.0
N612 N 0.59543 0.36227 0.39223 0.0
N613 N 0.5543 0.30871 0.41383 0.0
H614 H 0.23009 0.44177 0.34632 0.0
H615 H 0.09953 0.5135 0.32267 0.0
H616 H 0.18723 0.45086 0.1628 0.0
H617 H 0.15788 0.52989 0.47206 0.0
H618 H 0.12795 0.48475 0.27007 0.0
H619 H 0.19922 0.46717 0.40168 0.0
C620 C 0.21408 0.4488 0.31775 0.0
C621 C 0.2115 0.44433 0.2495 0.0
C622 C 0.13449 0.49473 0.31427 0.0
C623 C 0.17608 0.47318 0.31278 0.0
C624 C 0.11841 0.51141 0.34396 0.0
C625 C 0.12631 0.52433 0.40187 0.0
C626 C 0.15852 0.49063 0.34309 0.0
C627 C 0.15081 0.52016 0.42802 0.0
C628 C 0.19653 0.46332 0.34941 0.0
C629 C 0.18999 0.45349 0.21551 0.0
N630 N 0.16599 0.50357 0.39863 0.0
N631 N 0.17321 0.46761 0.24742 0.0
H632 H 0.09789 0.82507 0.22889 0.0
H633 H 0.11084 0.87957 0.8673 0.0
H634 H 0.11435 0.77893 0.06105 0.0
H635 H 0.10379 0.92606 0.03993 0.0
H636 H 0.11759 0.84306 0.93896 0.0
H637 H 0.10654 0.86263 0.16362 0.0
C638 C 0.10398 0.82274 0.17883 0.0
C639 C 0.105 0.7987 0.1502 0.0
C640 C 0.11491 0.8613 0.96124 0.0
C641 C 0.11415 0.84187 0.07431 0.0
C642 C 0.11089 0.8821 0.92034 0.0
C643 C 0.10639 0.90578 0.94774 0.0
C644 C 0.11415 0.86415 0.03005 0.0
C645 C 0.10717 0.90814 0.01673 0.0
C646 C 0.10869 0.8443 0.14128 0.0
C647 C 0.11269 0.79707 0.0847 0.0
N648 N 0.11061 0.88751 0.0555 0.0
N649 N 0.11655 0.81836 0.04862 0.0
H650 H 0.75885 0.07444 0.95334 0.0
H651 H 0.63215 0.14696 0.8696 0.0
H652 H 0.72385 0.12535 0.08649 0.0
H653 H 0.65601 0.08027 0.76927 0.0
H654 H 0.67354 0.14985 0.9271 0.0
H655 H 0.72945 0.08758 0.86507 0.0
C656 C 0.74544 0.0889 0.96357 0.0
C657 C 0.74344 0.09848 0.02765 0.0
C658 C 0.66984 0.13497 0.89124 0.0
C659 C 0.70959 0.11331 0.92716 0.0
C660 C 0.64621 0.13323 0.85854 0.0
C661 C 0.64021 0.11287 0.816 0.0
C662 C 0.68762 0.11632 0.88096 0.0
C663 C 0.65953 0.0962 0.8019 0.0
C664 C 0.72858 0.09628 0.91324 0.0
C665 C 0.72561 0.11707 0.03811 0.0
N666 N 0.68219 0.09801 0.83527 0.0
N667 N 0.70909 0.12362 0.98861 0.0
H668 H 0.41477 0.74561 0.02631 0.0
H669 H 0.4105 0.59524 1.00674 0.0
H670 H 0.42514 0.69619 0.19417 0.0
H671 H 0.41466 0.64399 0.8364 0.0
H672 H 0.40537 0.63219 0.07622 0.0
H673 H 0.40448 0.70875 0.95717 0.0
C674 C 0.41455 0.72707 0.04885 0.0
C675 C 0.42126 0.72401 0.116 0.0
C676 C 0.40708 0.63478 0.02352 0.0
C677 C 0.40939 0.68181 0.03724 0.0
C678 C 0.40984 0.61368 0.98373 0.0
C679 C 0.41333 0.61658 0.91576 0.0
C680 C 0.40785 0.65897 0.99521 0.0
C681 C 0.41255 0.64096 0.8888 0.0
C682 C 0.40862 0.70605 0.00938 0.0
C683 C 0.42005 0.69957 0.1428 0.0
N684 N 0.41014 0.66126 0.9287 0.0
N685 N 0.41459 0.6794 0.10316 0.0
H686 H 0.76403 0.44054 0.04865 0.0
H687 H 0.91449 0.43273 0.02797 0.0
H688 H 0.81585 0.44828 0.21715 0.0
H689 H 0.86385 0.44006 0.85792 0.0
H690 H 0.87792 0.43066 0.09877 0.0
H691 H 0.79985 0.43259 0.97913 0.0
C692 C 0.7829 0.44034 0.07117 0.0
C693 C 0.78693 0.44537 0.13878 0.0
C694 C 0.8748 0.43254 0.04592 0.0
C695 C 0.82798 0.43617 0.05952 0.0
C696 C 0.89565 0.43359 1.00548 0.0
C697 C 0.89218 0.4368 0.93705 0.0
C698 C 0.85032 0.43459 0.01768 0.0
C699 C 0.86737 0.43801 0.91057 0.0
C700 C 0.80332 0.43576 0.03147 0.0
C701 C 0.81175 0.44434 0.16545 0.0
N702 N 0.84739 0.43702 0.95096 0.0
N703 N 0.83135 0.4401 0.12565 0.0
H704 H 1.0009 0.20561 0.89397 0.0
H705 H 0.06892 0.08699 0.73928 0.0
H706 H 0.08031 0.20574 0.8518 0.0
H707 H 0.98785 0.09484 0.73184 0.0
H708 H 0.07357 0.12925 0.7876 0.0
H709 H 0.99577 0.16386 0.84213 0.0
C710 C 0.01724 0.19692 0.87373 0.0
C711 C 0.04104 0.2094 0.87693 0.0
C712 C 0.05476 0.12176 0.77523 0.0
C713 C 0.03535 0.1614 0.81794 0.0
C714 C 0.05209 0.09756 0.74771 0.0
C715 C 0.02795 0.08721 0.73133 0.0
C716 C 0.03316 0.13574 0.78738 0.0
C717 C 1.00686 0.10197 0.74346 0.0
C718 C 0.01428 0.17311 0.84391 0.0
C719 C 0.06152 0.19712 0.84961 0.0
N720 N 0.00993 0.12534 0.77101 0.0
N721 N 0.05824 0.17385 0.82175 0.0
H722 H 0.32593 0.07053 0.85456 0.0
H723 H 0.43159 0.97503 0.74361 0.0
H724 H 0.32537 0.99246 0.91466 0.0
H725 H 0.44243 0.05596 0.74168 0.0
H726 H 0.3907 0.98018 0.79516 0.0
H727 H 0.36627 0.06462 0.80187 0.0
C728 C 0.33414 0.05203 0.85616 0.0
C729 C 0.32196 0.03192 0.88891 0.0
C730 C 0.40203 0.9968 0.78346 0.0
C731 C 0.36863 0.02504 0.8284 0.0
C732 C 0.42539 0.99391 0.75372 0.0
C733 C 0.44068 0.0151 0.73817 0.0
C734 C 0.39353 0.02109 0.79703 0.0
C735 C 0.43148 0.03904 0.75282 0.0
C736 C 0.35735 0.04873 0.82642 0.0
C737 C 0.33398 0.00854 0.89025 0.0
N738 N 0.40857 0.04136 0.78099 0.0
N739 N 0.3565 0.0057 0.86016 0.0
H740 H 0.51622 0.33465 0.97929 0.0
H741 H 0.5065 0.416 0.64895 0.0
H742 H 0.47696 0.30425 0.80594 0.0
H743 H 0.50331 0.44855 0.84337 0.0
H744 H 0.50423 0.37359 0.69914 0.0
H745 H 0.52097 0.37524 0.92292 0.0
C746 C 0.50898 0.33638 0.92888 0.0
C747 C 0.49625 0.31596 0.89721 0.0
C748 C 0.50402 0.3901 0.7305 0.0
C749 C 0.50163 0.36254 0.83236 0.0
C750 C 0.5054 0.41425 0.70205 0.0
C751 C 0.50491 0.43588 0.74198 0.0
C752 C 0.50288 0.38763 0.79941 0.0
C753 C 0.50351 0.43247 0.81054 0.0
C754 C 0.51151 0.35963 0.89699 0.0
C755 C 0.48686 0.31952 0.83217 0.0
N756 N 0.50275 0.40889 0.83701 0.0
N757 N 0.48983 0.34235 0.80169 0.0
H758 H 0.22045 0.48797 0.79823 0.0
H759 H 0.07113 0.46348 0.80409 0.0
H760 H 0.18289 0.46288 0.97308 0.0
H761 H 0.10405 0.52148 0.6818 0.0
H762 H 0.11309 0.45662 0.85541 0.0
H763 H 0.17878 0.49448 0.74366 0.0
C764 C 0.20344 0.48391 0.82505 0.0
C765 C 0.20506 0.47514 0.8904 0.0
C766 C 0.11107 0.47079 0.81717 0.0
C767 C 0.15758 0.48191 0.82811 0.0
C768 C 0.08719 0.47462 0.78759 0.0
C769 C 0.08403 0.49315 0.73866 0.0
C770 C 0.13208 0.4852 0.79671 0.0
C771 C 0.10555 0.50712 0.71955 0.0
C772 C 0.17974 0.48764 0.79405 0.0
C773 C 0.18245 0.47002 0.92296 0.0
N774 N 0.12868 0.50277 0.74829 0.0
N775 N 0.15967 0.47327 0.89135 0.0
H776 H 0.03194 0.80546 0.51988 0.0
H777 H 0.98214 0.94678 0.50366 0.0
H778 H 0.98058 0.83219 0.36667 0.0
H779 H 0.03016 0.91897 0.6627 0.0
H780 H 0.98001 0.9046 0.45549 0.0
H781 H 0.02988 0.8461 0.57536 0.0
C782 C 0.01988 0.81968 0.49821 0.0
C783 C 1.00636 0.81513 0.43819 0.0
C784 C 0.9909 0.90764 0.50111 0.0
C785 C 1.0044 0.8623 0.50143 0.0
C786 C 0.99215 0.93181 0.52882 0.0
C787 C 1.00645 0.93662 0.58745 0.0
C788 C 1.00414 0.88796 0.53184 0.0
C789 C 0.0189 0.91627 0.61754 0.0
C790 C 0.01891 0.84305 0.52984 0.0
C791 C 0.9916 0.83475 0.41224 0.0
N792 N 0.01757 0.89294 0.58925 0.0
N793 N 0.99111 0.85741 0.44379 0.0
H794 H 0.67875 1.00145 0.3118 0.0
H795 H 0.60961 0.01538 0.6542 0.0
H796 H 0.71979 0.00751 0.49929 0.0
H797 H 0.57191 0.98433 0.47926 0.0
H798 H 0.64979 0.01546 0.59704 0.0
H799 H 0.63926 0.99731 0.3707 0.0
C800 C 0.67967 1.00161 0.36523 0.0
C801 C 0.70302 1.00502 0.40007 0.0
C802 C 0.63274 0.00848 0.57134 0.0
C803 C 0.65729 1.00096 0.46819 0.0
C804 C 0.60974 0.00846 0.60397 0.0
C805 C 0.5872 0.99974 0.57183 0.0
C806 C 0.63329 1.00014 0.50553 0.0
C807 C 0.58871 0.9911 0.50643 0.0
C808 C 0.65695 0.99944 0.3989 0.0
C809 C 0.70246 0.00554 0.46963 0.0
N810 N 0.61122 0.9917 0.47545 0.0
N811 N 0.68009 1.00378 0.50112 0.0
H812 H 0.54961 0.69191 0.3803 0.0
H813 H 0.48445 0.5999 0.64248 0.0
H814 H 0.48996 0.71398 0.50668 0.0
H815 H 0.55186 0.58072 0.54129 0.0
H816 H 0.48647 0.6418 0.59265 0.0
H817 H 0.55103 0.65114 0.43767 0.0
C818 C 0.53692 0.68828 0.42028 0.0
C819 C 0.51971 0.70654 0.43871 0.0
C820 C 0.50092 0.6285 0.58155 0.0
C821 C 0.52115 0.65982 0.50444 0.0
C822 C 0.49976 0.60449 0.60998 0.0
C823 C 0.51797 0.58661 0.59603 0.0
C824 C 0.5203 0.63479 0.53815 0.0
C825 C 0.53742 0.59384 0.55365 0.0
C826 C 0.5378 0.66502 0.45318 0.0
C827 C 0.50384 0.70075 0.49126 0.0
N828 N 0.53797 0.61727 0.52587 0.0
N829 N 0.50484 0.67793 0.52181 0.0
H830 H 0.80003 0.5392 0.55404 0.0
H831 H 0.94823 0.53416 0.48945 0.0
H832 H 0.83052 0.52623 0.36217 0.0
H833 H 0.91728 0.51876 0.68027 0.0
H834 H 0.90537 0.53937 0.44366 0.0
H835 H 0.84311 0.53949 0.6022 0.0
C836 C 0.81564 0.53652 0.5218 0.0
C837 C 0.81132 0.53253 0.45362 0.0
C838 C 0.90797 0.53496 0.49562 0.0
C839 C 0.86085 0.53337 0.50876 0.0
C840 C 0.93246 0.53206 0.52195 0.0
C841 C 0.93643 0.52586 0.58885 0.0
C842 C 0.88718 0.53195 0.53647 0.0
C843 C 0.91514 0.52338 0.62836 0.0
C844 C 0.84027 0.53678 0.54948 0.0
C845 C 0.83262 0.52978 0.41462 0.0
N846 N 0.89144 0.52643 0.60159 0.0
N847 N 0.85634 0.53021 0.44272 0.0
loop_
_geom_bond_atom_site_label_1
_geom_bond_atom_site_label_2
_geom_bond_distance
_geom_bond_site_symmetry_2
_ccdc_geom_bond_type
P0 O11 1.490 . S
P0 C14 1.812 . S
P0 C20 1.803 . S
P0 C26 1.819 . S
H1 C15 0.941 . S
H2 C16 0.939 . S
H3 C18 0.940 . S
H4 C19 0.940 . S
H5 C21 0.939 . S
H6 C22 0.942 . S
H7 C24 0.940 . S
H8 C25 0.939 . S
H9 C27 0.941 . S
H10 C31 0.939 . S
O11 P0 1.490 . S
H12 C28 0.939 . S
H13 C30 0.940 . S
C14 P0 1.812 . S
C14 C15 1.389 . S
C14 C19 1.391 . S
C15 H1 0.941 . S
C15 C14 1.389 . S
C15 C16 1.397 . S
C16 H2 0.939 . S
C16 C15 1.397 . S
C16 C17 1.378 . S
C17 C16 1.378 . S
C17 C18 1.378 . S
C18 H3 0.940 . S
C18 C17 1.378 . S
C18 C19 1.396 . S
C19 H4 0.940 . S
C19 C14 1.391 . S
C19 C18 1.396 . S
C20 P0 1.803 . S
C20 C21 1.378 . S
C20 C25 1.400 . S
C21 H5 0.939 . S
C21 C20 1.378 . S
C21 C22 1.361 . S
C22 H6 0.942 . S
C22 C21 1.361 . S
C22 C23 1.369 . S
C23 C22 1.369 . S
C23 C24 1.404 . S
C24 H7 0.940 . S
C24 C23 1.404 . S
C24 C25 1.389 . S
C25 H8 0.939 . S
C25 C20 1.400 . S
C25 C24 1.389 . S
C26 P0 1.819 . S
C26 C27 1.391 . S
C26 C31 1.391 . S
C27 H9 0.941 . S
C27 C26 1.391 . S
C27 C28 1.396 . S
C28 H12 0.939 . S
C28 C27 1.396 . S
C28 C29 1.397 . S
C29 C28 1.397 . S
C29 C30 1.385 . S
C30 H13 0.940 . S
C30 C29 1.385 . S
C30 C31 1.388 . S
C31 H10 0.939 . S
C31 C26 1.391 . S
C31 C30 1.388 . S
P32 O43 1.490 1_655 S
P32 C46 1.812 . S
P32 C52 1.803 . S
P32 C58 1.819 . S
H33 C47 0.941 1_455 S
H34 C48 0.959 . S
H35 C50 0.940 . S
H36 C51 0.940 . S
H37 C53 0.900 1_455 S
H38 C54 0.917 1_455 S
H39 C56 0.940 . S
H40 C57 0.939 . S
H41 C59 0.941 1_455 S
H42 C63 0.939 . S
O43 P32 1.490 1_455 S
H44 C60 0.939 . S
H45 C62 0.940 . S
C46 P32 1.812 . S
C46 C47 1.389 . S
C46 C51 1.391 . S
C47 H33 0.941 1_655 S
C47 C46 1.389 . S
C47 C48 1.397 . S
C48 H34 0.959 . S
C48 C47 1.397 . S
C48 C49 1.378 . S
C49 C48 1.378 . S
C49 C50 1.378 . S
C50 H35 0.940 . S
C50 C49 1.378 . S
C50 C51 1.396 . S
C51 H36 0.940 . S
C51 C46 1.391 . S
C51 C50 1.396 . S
C52 P32 1.803 . S
C52 C53 1.403 . S
C52 C57 1.400 . S
C53 H37 0.900 1_655 S
C53 C52 1.403 . S
C53 C54 1.374 . S
C54 H38 0.917 1_655 S
C54 C53 1.374 . S
C54 C55 1.369 . S
C55 C54 1.369 . S
C55 C56 1.404 . S
C56 H39 0.940 . S
C56 C55 1.404 . S
C56 C57 1.389 . S
C57 H40 0.939 . S
C57 C52 1.400 . S
C57 C56 1.389 . S
C58 P32 1.819 . S
C58 C59 1.391 . S
C58 C63 1.391 . S
C59 H41 0.941 1_655 S
C59 C58 1.391 . S
C59 C60 1.396 . S
C60 H44 0.939 . S
C60 C59 1.396 . S
C60 C61 1.397 . S
C61 C60 1.397 . S
C61 C62 1.385 . S
C62 H45 0.940 . S
C62 C61 1.385 . S
C62 C63 1.388 . S
C63 H42 0.939 . S
C63 C58 1.391 . S
C63 C62 1.388 . S
P64 O75 1.490 1_565 S
P64 C78 1.812 . S
P64 C84 1.803 . S
P64 C90 1.819 . S
H65 C79 0.941 1_545 S
H66 C80 0.939 . S
H67 C82 0.940 . S
H68 C83 0.940 . S
H69 C85 0.939 1_545 S
H70 C86 0.942 . S
H71 C88 0.940 . S
H72 C89 0.939 . S
H73 C91 0.941 1_545 S
H74 C95 0.939 . S
O75 P64 1.490 1_545 S
H76 C92 0.939 . S
H77 C94 0.940 . S
C78 P64 1.812 . S
C78 C79 1.389 . S
C78 C83 1.391 . S
C79 H65 0.941 1_565 S
C79 C78 1.389 . S
C79 C80 1.397 . S
C80 H66 0.939 . S
C80 C79 1.397 . S
C80 C81 1.378 . S
C81 C80 1.378 . S
C81 C82 1.378 . S
C82 H67 0.940 . S
C82 C81 1.378 . S
C82 C83 1.396 . S
C83 H68 0.940 . S
C83 C78 1.391 . S
C83 C82 1.396 . S
C84 P64 1.803 . S
C84 C85 1.378 . S
C84 C89 1.400 . S
C85 H69 0.939 1_565 S
C85 C84 1.378 . S
C85 C86 1.361 . S
C86 H70 0.942 . S
C86 C85 1.361 . S
C86 C87 1.369 . S
C87 C86 1.369 . S
C87 C88 1.404 . S
C88 H71 0.940 . S
C88 C87 1.404 . S
C88 C89 1.389 . S
C89 H72 0.939 . S
C89 C84 1.400 . S
C89 C88 1.389 . S
C90 P64 1.819 . S
C90 C91 1.391 . S
C90 C95 1.391 . S
C91 H73 0.941 1_565 S
C91 C90 1.391 . S
C91 C92 1.396 . S
C92 H76 0.939 . S
C92 C91 1.396 . S
C92 C93 1.397 . S
C93 C92 1.397 . S
C93 C94 1.385 . S
C94 H77 0.940 . S
C94 C93 1.385 . S
C94 C95 1.388 . S
C95 H74 0.939 . S
C95 C90 1.391 . S
C95 C94 1.388 . S
P96 O107 1.490 . S
P96 C110 1.812 . S
P96 C116 1.803 . S
P96 C122 1.819 . S
H97 C111 0.941 . S
H98 C112 0.939 . S
H99 C114 0.940 . S
H100 C115 0.940 . S
H101 C117 0.939 . S
H102 C118 0.942 . S
H103 C120 0.940 . S
H104 C121 0.939 . S
H105 C123 0.941 . S
H106 C127 0.939 . S
O107 P96 1.490 . S
H108 C124 0.939 . S
H109 C126 0.940 . S
C110 P96 1.812 . S
C110 C111 1.389 . S
C110 C115 1.391 . S
C111 H97 0.941 . S
C111 C110 1.389 . S
C111 C112 1.397 . S
C112 H98 0.939 . S
C112 C111 1.397 . S
C112 C113 1.378 . S
C113 C112 1.378 . S
C113 C114 1.378 . S
C114 H99 0.940 . S
C114 C113 1.378 . S
C114 C115 1.396 . S
C115 H100 0.940 . S
C115 C110 1.391 . S
C115 C114 1.396 . S
C116 P96 1.803 . S
C116 C117 1.378 . S
C116 C121 1.400 . S
C117 H101 0.939 . S
C117 C116 1.378 . S
C117 C118 1.361 . S
C118 H102 0.942 . S
C118 C117 1.361 . S
C118 C119 1.369 . S
C119 C118 1.369 . S
C119 C120 1.404 . S
C120 H103 0.940 . S
C120 C119 1.404 . S
C120 C121 1.389 . S
C121 H104 0.939 . S
C121 C116 1.400 . S
C121 C120 1.389 . S
C122 P96 1.819 . S
C122 C123 1.391 . S
C122 C127 1.391 . S
C123 H105 0.941 . S
C123 C122 1.391 . S
C123 C124 1.396 . S
C124 H108 0.939 . S
C124 C123 1.396 . S
C124 C125 1.397 . S
C125 C124 1.397 . S
C125 C126 1.385 . S
C126 H109 0.940 . S
C126 C125 1.385 . S
C126 C127 1.388 . S
C127 H106 0.939 . S
C127 C122 1.391 . S
C127 C126 1.388 . S
P128 O139 1.490 . S
P128 C142 1.812 . S
P128 C148 1.803 . S
P128 C154 1.819 . S
H129 C143 0.941 . S
H130 C144 0.939 . S
H131 C146 0.940 . S
H132 C147 0.940 1_554 S
H133 C149 0.939 . S
H134 C150 0.942 . S
H135 C152 0.940 . S
H136 C153 0.939 . S
H137 C155 0.941 . S
H138 C159 0.939 . S
O139 P128 1.490 . S
H140 C156 0.939 . S
H141 C158 0.940 . S
C142 P128 1.812 . S
C142 C143 1.389 1_554 S
C142 C147 1.391 1_554 S
C143 H129 0.941 . S
C143 C142 1.389 1_556 S
C143 C144 1.397 . S
C144 H130 0.939 . S
C144 C143 1.397 . S
C144 C145 1.378 . S
C145 C144 1.378 . S
C145 C146 1.378 . S
C146 H131 0.940 . S
C146 C145 1.378 . S
C146 C147 1.396 . S
C147 H132 0.940 1_556 S
C147 C142 1.391 1_556 S
C147 C146 1.396 . S
C148 P128 1.803 . S
C148 C149 1.378 . S
C148 C153 1.400 . S
C149 H133 0.939 . S
C149 C148 1.378 . S
C149 C150 1.361 . S
C150 H134 0.942 . S
C150 C149 1.361 . S
C150 C151 1.369 . S
C151 C150 1.369 . S
C151 C152 1.404 . S
C152 H135 0.940 . S
C152 C151 1.404 . S
C152 C153 1.389 . S
C153 H136 0.939 . S
C153 C148 1.400 . S
C153 C152 1.389 . S
C154 P128 1.819 . S
C154 C155 1.391 . S
C154 C159 1.391 . S
C155 H137 0.941 . S
C155 C154 1.391 . S
C155 C156 1.396 . S
C156 H140 0.939 . S
C156 C155 1.396 . S
C156 C157 1.397 . S
C157 C156 1.397 . S
C157 C158 1.385 . S
C158 H141 0.940 . S
C158 C157 1.385 . S
C158 C159 1.388 . S
C159 H138 0.939 . S
C159 C154 1.391 . S
C159 C158 1.388 . S
P160 O171 1.490 . S
P160 C174 1.812 1_554 S
P160 C180 1.803 . S
P160 C186 1.819 . S
H161 C175 0.941 . S
H162 C176 0.939 . S
H163 C178 0.940 . S
H164 C179 0.940 . S
H165 C181 0.939 . S
H166 C182 0.942 . S
H167 C184 0.940 . S
H168 C185 0.939 . S
H169 C187 0.941 . S
H170 C191 0.939 . S
O171 P160 1.490 . S
H172 C188 0.939 . S
H173 C190 0.940 . S
C174 P160 1.812 1_556 S
C174 C175 1.389 . S
C174 C179 1.391 . S
C175 H161 0.941 . S
C175 C174 1.389 . S
C175 C176 1.397 . S
C176 H162 0.939 . S
C176 C175 1.397 . S
C176 C177 1.378 . S
C177 C176 1.378 . S
C177 C178 1.378 . S
C178 H163 0.940 . S
C178 C177 1.378 . S
C178 C179 1.396 . S
C179 H164 0.940 . S
C179 C174 1.391 . S
C179 C178 1.396 . S
C180 P160 1.803 . S
C180 C181 1.378 . S
C180 C185 1.400 . S
C181 H165 0.939 . S
C181 C180 1.378 . S
C181 C182 1.361 . S
C182 H166 0.942 . S
C182 C181 1.361 . S
C182 C183 1.369 . S
C183 C182 1.369 . S
C183 C184 1.404 . S
C184 H167 0.940 . S
C184 C183 1.404 . S
C184 C185 1.389 . S
C185 H168 0.939 . S
C185 C180 1.400 . S
C185 C184 1.389 . S
C186 P160 1.819 . S
C186 C187 1.391 . S
C186 C191 1.391 . S
C187 H169 0.941 . S
C187 C186 1.391 . S
C187 C188 1.396 . S
C188 H172 0.939 . S
C188 C187 1.396 . S
C188 C189 1.397 . S
C189 C188 1.397 . S
C189 C190 1.385 . S
C190 H173 0.940 . S
C190 C189 1.385 . S
C190 C191 1.388 . S
C191 H170 0.939 . S
C191 C186 1.391 . S
C191 C190 1.388 . S
P192 O203 1.490 . S
P192 C206 1.812 1_554 S
P192 C212 1.803 . S
P192 C218 1.819 . S
H193 C207 0.941 . S
H194 C208 0.939 . S
H195 C210 0.940 . S
H196 C211 0.940 . S
H197 C213 0.939 . S
H198 C214 0.942 . S
H199 C216 0.940 . S
H200 C217 0.939 1_556 S
H201 C219 0.941 . S
H202 C223 0.939 . S
O203 P192 1.490 . S
H204 C220 0.939 . S
H205 C222 0.940 . S
C206 P192 1.812 1_556 S
C206 C207 1.389 . S
C206 C211 1.391 . S
C207 H193 0.941 . S
C207 C206 1.389 . S
C207 C208 1.397 . S
C208 H194 0.939 . S
C208 C207 1.397 . S
C208 C209 1.378 . S
C209 C208 1.378 . S
C209 C210 1.378 . S
C210 H195 0.940 . S
C210 C209 1.378 . S
C210 C211 1.396 . S
C211 H196 0.940 . S
C211 C206 1.391 . S
C211 C210 1.396 . S
C212 P192 1.803 . S
C212 C213 1.378 . S
C212 C217 1.400 . S
C213 H197 0.939 . S
C213 C212 1.378 . S
C213 C214 1.361 . S
C214 H198 0.942 . S
C214 C213 1.361 . S
C214 C215 1.369 . S
C215 C214 1.369 . S
C215 C216 1.404 . S
C216 H199 0.940 . S
C216 C215 1.404 . S
C216 C217 1.389 . S
C217 H200 0.939 1_554 S
C217 C212 1.400 . S
C217 C216 1.389 . S
C218 P192 1.819 . S
C218 C219 1.391 . S
C218 C223 1.391 . S
C219 H201 0.941 . S
C219 C218 1.391 . S
C219 C220 1.396 . S
C220 H204 0.939 . S
C220 C219 1.396 . S
C220 C221 1.397 . S
C221 C220 1.397 . S
C221 C222 1.385 . S
C222 H205 0.940 . S
C222 C221 1.385 . S
C222 C223 1.388 . S
C223 H202 0.939 . S
C223 C218 1.391 . S
C223 C222 1.388 . S
P224 O235 1.490 . S
P224 C238 1.812 1_554 S
P224 C244 1.803 . S
P224 C250 1.819 . S
H225 C239 0.941 . S
H226 C240 0.939 . S
H227 C242 0.940 . S
H228 C243 0.940 1_554 S
H229 C245 0.939 . S
H230 C246 0.942 . S
H231 C248 0.940 . S
H232 C249 0.939 . S
H233 C251 0.941 . S
H234 C255 0.939 . S
O235 P224 1.490 . S
H236 C252 0.939 . S
H237 C254 0.940 . S
C238 P224 1.812 1_556 S
C238 C239 1.389 . S
C238 C243 1.391 . S
C239 H225 0.941 . S
C239 C238 1.389 . S
C239 C240 1.397 . S
C240 H226 0.939 . S
C240 C239 1.397 . S
C240 C241 1.378 . S
C241 C240 1.378 . S
C241 C242 1.378 . S
C242 H227 0.940 . S
C242 C241 1.378 . S
C242 C243 1.396 . S
C243 H228 0.940 1_556 S
C243 C238 1.391 . S
C243 C242 1.396 . S
C244 P224 1.803 . S
C244 C245 1.378 . S
C244 C249 1.400 . S
C245 H229 0.939 . S
C245 C244 1.378 . S
C245 C246 1.361 . S
C246 H230 0.942 . S
C246 C245 1.361 . S
C246 C247 1.369 . S
C247 C246 1.369 . S
C247 C248 1.404 . S
C248 H231 0.940 . S
C248 C247 1.404 . S
C248 C249 1.389 . S
C249 H232 0.939 . S
C249 C244 1.400 . S
C249 C248 1.389 . S
C250 P224 1.819 . S
C250 C251 1.391 . S
C250 C255 1.391 . S
C251 H233 0.941 . S
C251 C250 1.391 . S
C251 C252 1.396 . S
C252 H236 0.939 . S
C252 C251 1.396 . S
C252 C253 1.397 . S
C253 C252 1.397 . S
C253 C254 1.385 . S
C254 H237 0.940 . S
C254 C253 1.385 . S
C254 C255 1.388 . S
C255 H234 0.939 . S
C255 C250 1.391 . S
C255 C254 1.388 . S
Eu256 C265 2.828 . S
Eu256 O267 2.392 . S
Eu256 O269 2.418 1_545 S
Eu256 O274 2.373 1_655 S
Eu256 O277 2.488 . S
Eu256 O278 2.471 . S
Eu256 O279 2.349 1_655 S
Eu257 O266 2.373 1_455 S
Eu257 O270 2.488 . S
Eu257 O271 2.471 . S
Eu257 O272 2.349 . S
Eu257 O275 2.392 1_565 S
Eu257 O276 2.418 1_565 S
Eu257 C286 2.828 . S
C258 O276 1.244 . S
C258 O279 1.265 . S
C259 C260 1.379 1_655 S
C259 C263 1.373 . S
C259 C265 1.505 . S
C260 C259 1.379 1_455 S
C260 C262 1.369 . S
C260 H288 0.930 . S
C261 C263 1.383 . S
C261 C264 1.367 1_655 S
C261 H289 0.930 . S
C262 C260 1.369 . S
C262 C264 1.403 . S
C262 H290 0.930 . S
C263 C259 1.373 . S
C263 C261 1.383 . S
C263 H291 0.931 . S
C264 C261 1.367 1_455 S
C264 C262 1.403 . S
C265 Eu256 2.828 . S
C265 C259 1.505 . S
C265 O277 1.249 . S
C265 O278 1.244 . S
O266 Eu257 2.373 1_655 S
O266 C268 1.258 . S
O267 Eu256 2.392 . S
O267 C268 1.242 1_545 S
C268 O266 1.258 . S
C268 O267 1.242 1_565 S
O269 Eu256 2.418 1_565 S
O269 C273 1.244 . S
O270 Eu257 2.488 . S
O270 C286 1.249 . S
O271 Eu257 2.471 . S
O271 C286 1.244 . S
O272 Eu257 2.349 . S
O272 C273 1.265 1_455 S
C273 O269 1.244 . S
C273 O272 1.265 1_655 S
O274 Eu256 2.373 1_455 S
O274 C287 1.258 . S
O275 Eu257 2.392 1_545 S
O275 C287 1.242 . S
O276 Eu257 2.418 1_545 S
O276 C258 1.244 . S
O277 Eu256 2.488 . S
O277 C265 1.249 . S
O278 Eu256 2.471 . S
O278 C265 1.244 . S
O279 Eu256 2.349 1_455 S
O279 C258 1.265 . S
C280 C281 1.379 . S
C280 C284 1.373 . S
C280 C286 1.505 . S
C281 C280 1.379 . S
C281 C283 1.369 . S
C281 H292 0.930 1_455 S
C282 C284 1.383 . S
C282 C285 1.382 . S
C282 H293 0.930 1_556 S
C283 C281 1.369 . S
C283 C285 1.392 . S
C283 H294 0.930 1_455 S
C284 C280 1.373 . S
C284 C282 1.383 . S
C284 H295 0.931 . S
C285 C282 1.382 . S
C285 C283 1.392 . S
C286 Eu257 2.828 . S
C286 O270 1.249 . S
C286 O271 1.244 . S
C286 C280 1.505 . S
C287 O274 1.258 . S
C287 O275 1.242 . S
H288 C260 0.930 . S
H289 C261 0.930 . S
H290 C262 0.930 . S
H291 C263 0.931 . S
H292 C281 0.930 1_655 S
H293 C282 0.930 1_554 S
H294 C283 0.930 1_655 S
H295 C284 0.931 . S
Eu296 C305 2.828 . S
Eu296 O307 2.392 . S
Eu296 O309 2.418 . S
Eu296 O314 2.373 . S
Eu296 O317 2.488 . S
Eu296 O318 2.471 . S
Eu296 O319 2.349 1_545 S
Eu297 O306 2.373 1_565 S
Eu297 O310 2.488 . S
Eu297 O311 2.471 1_565 S
Eu297 O312 2.349 1_565 S
Eu297 O315 2.392 . S
Eu297 O316 2.418 . S
Eu297 C326 2.828 . S
C298 O316 1.244 . S
C298 O319 1.265 . S
C299 C300 1.379 1_545 S
C299 C303 1.373 . S
C299 C305 1.505 . S
C300 C299 1.379 1_565 S
C300 C302 1.369 . S
C300 H328 0.930 . S
C301 C303 1.383 . S
C301 C304 1.382 . S
C301 H329 0.930 . S
C302 C300 1.369 . S
C302 C304 1.392 1_565 S
C302 H330 0.930 . S
C303 C299 1.373 . S
C303 C301 1.383 . S
C303 H331 0.931 . S
C304 C301 1.382 . S
C304 C302 1.392 1_545 S
C305 Eu296 2.828 . S
C305 C299 1.505 . S
C305 O317 1.249 . S
C305 O318 1.244 . S
O306 Eu297 2.373 1_545 S
O306 C308 1.258 . S
O307 Eu296 2.392 . S
O307 C308 1.242 . S
C308 O306 1.258 . S
C308 O307 1.242 . S
O309 Eu296 2.418 . S
O309 C313 1.244 . S
O310 Eu297 2.488 . S
O310 C326 1.249 . S
O311 Eu297 2.471 1_545 S
O311 C326 1.244 1_545 S
O312 Eu297 2.349 1_545 S
O312 C313 1.265 . S
C313 O309 1.244 . S
C313 O312 1.265 . S
O314 Eu296 2.373 . S
O314 C327 1.258 1_545 S
O315 Eu297 2.392 . S
O315 C327 1.242 . S
O316 Eu297 2.418 . S
O316 C298 1.244 . S
O317 Eu296 2.488 . S
O317 C305 1.249 . S
O318 Eu296 2.471 . S
O318 C305 1.244 . S
O319 Eu296 2.349 1_565 S
O319 C298 1.265 . S
C320 C321 1.379 1_565 S
C320 C324 1.373 . S
C320 C326 1.505 . S
C321 C320 1.379 1_545 S
C321 C323 1.369 . S
C321 H332 0.930 . S
C322 C324 1.383 . S
C322 C325 1.382 . S
C322 H333 0.930 . S
C323 C321 1.369 . S
C323 C325 1.392 1_545 S
C323 H334 0.930 . S
C324 C320 1.373 . S
C324 C322 1.383 . S
C324 H335 0.931 . S
C325 C322 1.382 . S
C325 C323 1.392 1_565 S
C326 Eu297 2.828 . S
C326 O310 1.249 . S
C326 O311 1.244 1_565 S
C326 C320 1.505 . S
C327 O314 1.258 1_565 S
C327 O315 1.242 . S
H328 C300 0.930 . S
H329 C301 0.930 . S
H330 C302 0.930 . S
H331 C303 0.931 . S
H332 C321 0.930 . S
H333 C322 0.930 . S
H334 C323 0.930 . S
H335 C324 0.931 . S
Eu336 C345 2.828 . S
Eu336 O347 2.392 . S
Eu336 O349 2.418 . S
Eu336 O354 2.373 . S
Eu336 O357 2.488 . S
Eu336 O358 2.471 . S
Eu336 O359 2.349 . S
Eu337 O346 2.373 . S
Eu337 O350 2.488 . S
Eu337 O351 2.471 . S
Eu337 O352 2.349 . S
Eu337 O355 2.392 . S
Eu337 O356 2.418 . S
Eu337 C366 2.828 . S
C338 O356 1.244 . S
C338 O359 1.265 . S
C339 C340 1.379 . S
C339 C343 1.373 . S
C339 C345 1.505 . S
C340 C339 1.379 . S
C340 C342 1.369 . S
C340 H368 0.930 . S
C341 C343 1.383 . S
C341 C344 1.382 . S
C341 H369 0.930 . S
C342 C340 1.369 . S
C342 C344 1.392 . S
C342 H370 0.930 . S
C343 C339 1.373 . S
C343 C341 1.383 . S
C343 H371 0.931 . S
C344 C341 1.382 . S
C344 C342 1.392 . S
C345 Eu336 2.828 . S
C345 C339 1.505 . S
C345 O357 1.249 . S
C345 O358 1.244 . S
O346 Eu337 2.373 . S
O346 C348 1.258 . S
O347 Eu336 2.392 . S
O347 C348 1.242 . S
C348 O346 1.258 . S
C348 O347 1.242 . S
O349 Eu336 2.418 . S
O349 C353 1.244 . S
O350 Eu337 2.488 . S
O350 C366 1.249 . S
O351 Eu337 2.471 . S
O351 C366 1.244 . S
O352 Eu337 2.349 . S
O352 C353 1.265 . S
C353 O349 1.244 . S
C353 O352 1.265 . S
O354 Eu336 2.373 . S
O354 C367 1.258 . S
O355 Eu337 2.392 . S
O355 C367 1.242 . S
O356 Eu337 2.418 . S
O356 C338 1.244 . S
O357 Eu336 2.488 . S
O357 C345 1.249 . S
O358 Eu336 2.471 . S
O358 C345 1.244 . S
O359 Eu336 2.349 . S
O359 C338 1.265 . S
C360 C361 1.379 . S
C360 C364 1.373 . S
C360 C366 1.505 . S
C361 C360 1.379 . S
C361 C363 1.369 . S
C361 H372 0.930 . S
C362 C364 1.383 . S
C362 C365 1.382 . S
C362 H373 0.930 . S
C363 C361 1.369 . S
C363 C365 1.392 . S
C363 H374 0.930 . S
C364 C360 1.373 . S
C364 C362 1.383 . S
C364 H375 0.931 . S
C365 C362 1.382 . S
C365 C363 1.392 . S
C366 Eu337 2.828 . S
C366 O350 1.249 . S
C366 O351 1.244 . S
C366 C360 1.505 . S
C367 O354 1.258 . S
C367 O355 1.242 . S
H368 C340 0.930 . S
H369 C341 0.930 . S
H370 C342 0.930 . S
H371 C343 0.931 . S
H372 C361 0.930 . S
H373 C362 0.930 . S
H374 C363 0.930 . S
H375 C364 0.931 . S
Eu376 C385 2.828 . S
Eu376 O387 2.392 . S
Eu376 O389 2.418 1_455 S
Eu376 O394 2.373 . S
Eu376 O397 2.488 . S
Eu376 O398 2.471 . S
Eu376 O399 2.349 . S
Eu377 O386 2.373 . S
Eu377 O390 2.488 . S
Eu377 O391 2.471 . S
Eu377 O392 2.349 . S
Eu377 O395 2.392 1_655 S
Eu377 O396 2.418 1_655 S
Eu377 C406 2.828 . S
C378 O396 1.244 . S
C378 O399 1.265 . S
C379 C380 1.379 . S
C379 C383 1.373 . S
C379 C385 1.505 . S
C380 C379 1.379 . S
C380 C382 1.369 . S
C380 H408 0.930 . S
C381 C383 1.383 . S
C381 C384 1.382 . S
C381 H409 0.930 . S
C382 C380 1.369 . S
C382 C384 1.392 . S
C382 H410 0.930 . S
C383 C379 1.373 . S
C383 C381 1.383 . S
C383 H411 0.931 . S
C384 C381 1.382 . S
C384 C382 1.392 . S
C385 Eu376 2.828 . S
C385 C379 1.505 . S
C385 O397 1.249 . S
C385 O398 1.244 . S
O386 Eu377 2.373 . S
O386 C388 1.252 1_655 S
O387 Eu376 2.392 . S
O387 C388 1.255 . S
C388 O386 1.252 1_455 S
C388 O387 1.255 . S
O389 Eu376 2.418 1_655 S
O389 C393 1.244 . S
O390 Eu377 2.488 . S
O390 C406 1.249 . S
O391 Eu377 2.471 . S
O391 C406 1.244 . S
O392 Eu377 2.349 . S
O392 C393 1.265 . S
C393 O389 1.244 . S
C393 O392 1.265 . S
O394 Eu376 2.373 . S
O394 C407 1.258 . S
O395 Eu377 2.392 1_455 S
O395 C407 1.242 . S
O396 Eu377 2.418 1_455 S
O396 C378 1.244 . S
O397 Eu376 2.488 . S
O397 C385 1.249 . S
O398 Eu376 2.471 . S
O398 C385 1.244 . S
O399 Eu376 2.349 . S
O399 C378 1.265 . S
C400 C401 1.379 . S
C400 C404 1.373 . S
C400 C406 1.505 . S
C401 C400 1.379 . S
C401 C403 1.369 . S
C401 H412 0.930 . S
C402 C404 1.383 . S
C402 C405 1.382 . S
C402 H413 0.930 1_556 S
C403 C401 1.369 . S
C403 C405 1.392 . S
C403 H414 0.930 . S
C404 C400 1.373 . S
C404 C402 1.383 . S
C404 H415 0.931 . S
C405 C402 1.382 . S
C405 C403 1.392 . S
C406 Eu377 2.828 . S
C406 O390 1.249 . S
C406 O391 1.244 . S
C406 C400 1.505 . S
C407 O394 1.258 . S
C407 O395 1.242 . S
H408 C380 0.930 . S
H409 C381 0.930 . S
H410 C382 0.930 . S
H411 C383 0.931 . S
H412 C401 0.930 . S
H413 C402 0.930 1_554 S
H414 C403 0.930 . S
H415 C404 0.931 . S
H416 C422 0.930 . S
H417 C426 0.930 . S
H418 C431 0.929 . S
H419 C429 0.929 1_565 S
H420 C424 0.929 . S
H421 C430 0.929 . S
C422 H416 0.930 . S
C422 C423 1.367 . S
C422 C430 1.378 . S
C423 C422 1.367 . S
C423 C431 1.433 . S
C424 H420 0.929 . S
C424 C426 1.378 . S
C424 C428 1.350 . S
C425 C428 1.463 . S
C425 C430 1.350 . S
C425 N433 1.427 . S
C426 H417 0.930 . S
C426 C424 1.378 . S
C426 C427 1.367 . S
C427 C426 1.367 . S
C427 C429 1.433 . S
C428 C424 1.350 . S
C428 C425 1.463 . S
C428 N432 1.427 . S
C429 H419 0.929 1_545 S
C429 C427 1.433 . S
C429 N432 1.384 . S
C430 H421 0.929 . S
C430 C422 1.378 . S
C430 C425 1.350 . S
C431 H418 0.929 . S
C431 C423 1.433 . S
C431 N433 1.384 . S
N432 C428 1.427 . S
N432 C429 1.384 . S
N433 C425 1.427 . S
N433 C431 1.384 . S
H434 C440 0.930 . S
H435 C444 0.930 . S
H436 C449 0.929 . S
H437 C447 0.929 . S
H438 C442 0.929 . S
H439 C448 0.929 . S
C440 H434 0.930 . S
C440 C441 1.367 . S
C440 C448 1.378 . S
C441 C440 1.367 . S
C441 C449 1.433 . S
C442 H438 0.929 . S
C442 C444 1.378 . S
C442 C446 1.350 . S
C443 C446 1.463 . S
C443 C448 1.350 . S
C443 N451 1.427 . S
C444 H435 0.930 . S
C444 C442 1.378 . S
C444 C445 1.367 . S
C445 C444 1.367 . S
C445 C447 1.433 . S
C446 C442 1.350 . S
C446 C443 1.463 . S
C446 N450 1.427 . S
C447 H437 0.929 . S
C447 C445 1.433 . S
C447 N450 1.384 . S
C448 H439 0.929 . S
C448 C440 1.378 . S
C448 C443 1.350 . S
C449 H436 0.929 . S
C449 C441 1.433 . S
C449 N451 1.384 . S
N450 C446 1.427 . S
N450 C447 1.384 . S
N451 C443 1.427 . S
N451 C449 1.384 . S
H452 C458 0.930 . S
H453 C462 0.930 . S
H454 C467 0.929 . S
H455 C465 0.929 . S
H456 C460 0.929 . S
H457 C466 0.929 . S
C458 H452 0.930 . S
C458 C459 1.367 . S
C458 C466 1.378 . S
C459 C458 1.367 . S
C459 C467 1.433 . S
C460 H456 0.929 . S
C460 C462 1.378 . S
C460 C464 1.350 . S
C461 C464 1.463 . S
C461 C466 1.350 . S
C461 N469 1.427 . S
C462 H453 0.930 . S
C462 C460 1.378 . S
C462 C463 1.367 . S
C463 C462 1.367 . S
C463 C465 1.433 . S
C464 C460 1.350 . S
C464 C461 1.463 . S
C464 N468 1.427 . S
C465 H455 0.929 . S
C465 C463 1.433 . S
C465 N468 1.384 . S
C466 H457 0.929 . S
C466 C458 1.378 . S
C466 C461 1.350 . S
C467 H454 0.929 . S
C467 C459 1.433 . S
C467 N469 1.384 . S
N468 C464 1.427 . S
N468 C465 1.384 . S
N469 C461 1.427 . S
N469 C467 1.384 . S
H470 C476 0.930 . S
H471 C480 0.930 . S
H472 C485 0.929 . S
H473 C483 0.929 1_655 S
H474 C478 0.929 . S
H475 C484 0.929 . S
C476 H470 0.930 . S
C476 C477 1.367 . S
C476 C484 1.378 . S
C477 C476 1.367 . S
C477 C485 1.433 . S
C478 H474 0.929 . S
C478 C480 1.378 . S
C478 C482 1.350 . S
C479 C482 1.463 . S
C479 C484 1.350 . S
C479 N487 1.427 . S
C480 H471 0.930 . S
C480 C478 1.378 . S
C480 C481 1.367 . S
C481 C480 1.367 . S
C481 C483 1.433 . S
C482 C478 1.350 . S
C482 C479 1.463 . S
C482 N486 1.427 . S
C483 H473 0.929 1_455 S
C483 C481 1.433 . S
C483 N486 1.384 . S
C484 H475 0.929 . S
C484 C476 1.378 . S
C484 C479 1.350 . S
C485 H472 0.929 . S
C485 C477 1.433 . S
C485 N487 1.384 . S
N486 C482 1.427 . S
N486 C483 1.384 . S
N487 C479 1.427 . S
N487 C485 1.384 . S
H488 C494 0.930 . S
H489 C498 0.930 . S
H490 C503 0.929 . S
H491 C501 0.929 . S
H492 C496 0.929 . S
H493 C502 0.929 1_545 S
C494 H488 0.930 . S
C494 C495 1.367 . S
C494 C502 1.378 . S
C495 C494 1.367 . S
C495 C503 1.433 . S
C496 H492 0.929 . S
C496 C498 1.378 . S
C496 C500 1.350 . S
C497 C500 1.463 1_554 S
C497 C502 1.350 . S
C497 N505 1.427 . S
C498 H489 0.930 . S
C498 C496 1.378 . S
C498 C499 1.367 . S
C499 C498 1.367 . S
C499 C501 1.433 1_565 S
C500 C496 1.350 . S
C500 C497 1.463 1_556 S
C500 N504 1.409 1_565 S
C501 H491 0.929 . S
C501 C499 1.433 1_545 S
C501 N504 1.388 . S
C502 H493 0.929 1_565 S
C502 C494 1.378 . S
C502 C497 1.350 . S
C503 H490 0.929 . S
C503 C495 1.433 . S
C503 N505 1.384 . S
N504 C500 1.409 1_545 S
N504 C501 1.388 . S
N505 C497 1.427 . S
N505 C503 1.384 . S
H506 C512 0.930 . S
H507 C516 0.930 . S
H508 C521 0.929 . S
H509 C519 0.929 . S
H510 C514 0.929 . S
H511 C520 0.929 . S
C512 H506 0.930 . S
C512 C513 1.367 . S
C512 C520 1.378 . S
C513 C512 1.367 . S
C513 C521 1.433 . S
C514 H510 0.929 . S
C514 C516 1.378 . S
C514 C518 1.350 . S
C515 C518 1.463 . S
C515 C520 1.350 1_556 S
C515 N523 1.427 1_556 S
C516 H507 0.930 . S
C516 C514 1.378 . S
C516 C517 1.367 . S
C517 C516 1.367 . S
C517 C519 1.433 . S
C518 C514 1.350 . S
C518 C515 1.463 . S
C518 N522 1.427 . S
C519 H509 0.929 . S
C519 C517 1.433 . S
C519 N522 1.384 . S
C520 H511 0.929 . S
C520 C512 1.378 . S
C520 C515 1.350 1_554 S
C521 H508 0.929 . S
C521 C513 1.433 . S
C521 N523 1.384 . S
N522 C518 1.427 . S
N522 C519 1.384 . S
N523 C515 1.427 1_554 S
N523 C521 1.384 . S
H524 C530 0.930 . S
H525 C534 0.930 . S
H526 C539 0.929 . S
H527 C537 0.929 . S
H528 C532 0.929 . S
H529 C538 0.929 . S
C530 H524 0.930 . S
C530 C531 1.367 . S
C530 C538 1.378 1_554 S
C531 C530 1.367 . S
C531 C539 1.433 . S
C532 H528 0.929 . S
C532 C534 1.378 . S
C532 C536 1.350 . S
C533 C536 1.463 . S
C533 C538 1.350 . S
C533 N541 1.427 1_556 S
C534 H525 0.930 . S
C534 C532 1.378 . S
C534 C535 1.367 . S
C535 C534 1.367 . S
C535 C537 1.433 . S
C536 C532 1.350 . S
C536 C533 1.463 . S
C536 N540 1.427 . S
C537 H527 0.929 . S
C537 C535 1.433 . S
C537 N540 1.384 . S
C538 H529 0.929 . S
C538 C530 1.378 1_556 S
C538 C533 1.350 . S
C539 H526 0.929 . S
C539 C531 1.433 . S
C539 N541 1.384 . S
N540 C536 1.427 . S
N540 C537 1.384 . S
N541 C533 1.427 1_554 S
N541 C539 1.384 . S
H542 C548 0.930 . S
H543 C552 0.930 . S
H544 C557 0.929 . S
H545 C555 0.929 . S
H546 C550 0.929 . S
H547 C556 0.929 1_556 S
C548 H542 0.930 . S
C548 C549 1.367 . S
C548 C556 1.378 . S
C549 C548 1.367 . S
C549 C557 1.433 . S
C550 H546 0.929 . S
C550 C552 1.378 . S
C550 C554 1.350 . S
C551 C554 1.463 1_554 S
C551 C556 1.350 . S
C551 N559 1.427 . S
C552 H543 0.930 . S
C552 C550 1.378 . S
C552 C553 1.367 . S
C553 C552 1.367 . S
C553 C555 1.433 . S
C554 C550 1.350 . S
C554 C551 1.463 1_556 S
C554 N558 1.427 . S
C555 H545 0.929 . S
C555 C553 1.433 . S
C555 N558 1.384 . S
C556 H547 0.929 1_554 S
C556 C548 1.378 . S
C556 C551 1.350 . S
C557 H544 0.929 . S
C557 C549 1.433 . S
C557 N559 1.384 . S
N558 C554 1.427 . S
N558 C555 1.384 . S
N559 C551 1.427 . S
N559 C557 1.384 . S
H560 C566 0.930 . S
H561 C570 0.930 . S
H562 C575 0.929 . S
H563 C573 0.929 . S
H564 C568 0.929 . S
H565 C574 0.929 . S
C566 H560 0.930 . S
C566 C567 1.367 . S
C566 C574 1.378 . S
C567 C566 1.367 . S
C567 C575 1.433 . S
C568 H564 0.929 . S
C568 C570 1.378 . S
C568 C572 1.350 . S
C569 C572 1.463 . S
C569 C574 1.350 . S
C569 N577 1.427 . S
C570 H561 0.930 . S
C570 C568 1.378 . S
C570 C571 1.337 1_455 S
C571 C570 1.337 1_655 S
C571 C573 1.448 . S
C572 C568 1.350 . S
C572 C569 1.463 . S
C572 N576 1.427 . S
C573 H563 0.929 . S
C573 C571 1.448 . S
C573 N576 1.384 1_655 S
C574 H565 0.929 . S
C574 C566 1.378 . S
C574 C569 1.350 . S
C575 H562 0.929 . S
C575 C567 1.433 . S
C575 N577 1.384 . S
N576 C572 1.427 . S
N576 C573 1.384 1_455 S
N577 C569 1.427 . S
N577 C575 1.384 . S
H578 C584 0.930 . S
H579 C588 0.930 . S
H580 C593 0.929 . S
H581 C591 0.929 . S
H582 C586 0.921 1_565 S
H583 C592 0.929 . S
C584 H578 0.930 . S
C584 C585 1.367 . S
C584 C592 1.378 . S
C585 C584 1.367 . S
C585 C593 1.433 . S
C586 H582 0.921 1_545 S
C586 C588 1.359 1_545 S
C586 C590 1.378 . S
C587 C590 1.463 . S
C587 C592 1.350 . S
C587 N595 1.427 . S
C588 H579 0.930 . S
C588 C586 1.359 1_565 S
C588 C589 1.367 . S
C589 C588 1.367 . S
C589 C591 1.433 1_565 S
C590 C586 1.378 . S
C590 C587 1.463 . S
C590 N594 1.427 . S
C591 H581 0.929 . S
C591 C589 1.433 1_545 S
C591 N594 1.384 . S
C592 H583 0.929 . S
C592 C584 1.378 . S
C592 C587 1.350 . S
C593 H580 0.929 . S
C593 C585 1.433 . S
C593 N595 1.384 . S
N594 C590 1.427 . S
N594 C591 1.384 . S
N595 C587 1.427 . S
N595 C593 1.384 . S
H596 C602 0.930 . S
H597 C606 0.930 . S
H598 C611 0.929 . S
H599 C609 0.929 . S
H600 C604 0.929 . S
H601 C610 0.929 . S
C602 H596 0.930 . S
C602 C603 1.367 . S
C602 C610 1.378 . S
C603 C602 1.367 . S
C603 C611 1.433 . S
C604 H600 0.929 . S
C604 C606 1.378 . S
C604 C608 1.350 . S
C605 C608 1.463 . S
C605 C610 1.350 . S
C605 N613 1.427 . S
C606 H597 0.930 . S
C606 C604 1.378 . S
C606 C607 1.367 . S
C607 C606 1.367 . S
C607 C609 1.433 . S
C608 C604 1.350 . S
C608 C605 1.463 . S
C608 N612 1.427 . S
C609 H599 0.929 . S
C609 C607 1.433 . S
C609 N612 1.384 . S
C610 H601 0.929 . S
C610 C602 1.378 . S
C610 C605 1.350 . S
C611 H598 0.929 . S
C611 C603 1.433 . S
C611 N613 1.384 . S
N612 C608 1.427 . S
N612 C609 1.384 . S
N613 C605 1.427 . S
N613 C611 1.384 . S
H614 C620 0.930 . S
H615 C624 0.930 . S
H616 C629 0.929 . S
H617 C627 0.929 . S
H618 C622 0.929 . S
H619 C628 0.929 . S
C620 H614 0.930 . S
C620 C621 1.367 . S
C620 C628 1.378 . S
C621 C620 1.367 . S
C621 C629 1.433 . S
C622 H618 0.929 . S
C622 C624 1.378 . S
C622 C626 1.350 . S
C623 C626 1.463 . S
C623 C628 1.350 . S
C623 N631 1.427 . S
C624 H615 0.930 . S
C624 C622 1.378 . S
C624 C625 1.367 . S
C625 C624 1.367 . S
C625 C627 1.433 . S
C626 C622 1.350 . S
C626 C623 1.463 . S
C626 N630 1.427 . S
C627 H617 0.929 . S
C627 C625 1.433 . S
C627 N630 1.384 . S
C628 H619 0.929 . S
C628 C620 1.378 . S
C628 C623 1.350 . S
C629 H616 0.929 . S
C629 C621 1.433 . S
C629 N631 1.384 . S
N630 C626 1.427 . S
N630 C627 1.384 . S
N631 C623 1.427 . S
N631 C629 1.384 . S
H632 C638 0.930 . S
H633 C642 0.930 . S
H634 C647 0.929 . S
H635 C645 0.929 . S
H636 C640 0.929 . S
H637 C646 0.929 . S
C638 H632 0.930 . S
C638 C639 1.367 . S
C638 C646 1.378 . S
C639 C638 1.367 . S
C639 C647 1.433 . S
C640 H636 0.929 . S
C640 C642 1.378 1_655 S
C640 C644 1.350 1_556 S
C641 C644 1.463 . S
C641 C646 1.350 . S
C641 N649 1.427 . S
C642 H633 0.930 . S
C642 C640 1.378 1_455 S
C642 C643 1.367 . S
C643 C642 1.367 . S
C643 C645 1.433 1_556 S
C644 C640 1.350 1_554 S
C644 C641 1.463 . S
C644 N648 1.427 1_655 S
C645 H635 0.929 . S
C645 C643 1.433 1_554 S
C645 N648 1.384 . S
C646 H637 0.929 . S
C646 C638 1.378 . S
C646 C641 1.350 . S
C647 H634 0.929 . S
C647 C639 1.433 . S
C647 N649 1.384 . S
N648 C644 1.427 1_455 S
N648 C645 1.384 . S
N649 C641 1.427 . S
N649 C647 1.384 . S
H650 C656 0.930 . S
H651 C660 0.930 . S
H652 C665 0.929 . S
H653 C663 0.929 . S
H654 C658 0.929 . S
H655 C664 0.929 1_556 S
C656 H650 0.930 . S
C656 C657 1.367 . S
C656 C664 1.378 . S
C657 C656 1.367 . S
C657 C665 1.433 . S
C658 H654 0.929 . S
C658 C660 1.378 1_554 S
C658 C662 1.350 1_544 S
C659 C662 1.463 1_554 S
C659 C664 1.350 . S
C659 N667 1.427 . S
C660 H651 0.930 . S
C660 C658 1.378 1_556 S
C660 C661 1.367 . S
C661 C660 1.367 . S
C661 C663 1.433 1_545 S
C662 C658 1.350 1_566 S
C662 C659 1.463 1_556 S
C662 N666 1.427 . S
C663 H653 0.929 . S
C663 C661 1.433 1_565 S
C663 N666 1.384 . S
C664 H655 0.929 1_554 S
C664 C656 1.378 . S
C664 C659 1.350 . S
C665 H652 0.929 . S
C665 C657 1.433 . S
C665 N667 1.384 . S
N666 C662 1.427 . S
N666 C663 1.384 . S
N667 C659 1.427 . S
N667 C665 1.384 . S
H668 C674 0.930 . S
H669 C678 0.930 . S
H670 C683 0.929 . S
H671 C681 0.929 . S
H672 C676 0.929 1_554 S
H673 C682 0.929 . S
C674 H668 0.930 . S
C674 C675 1.367 . S
C674 C682 1.378 1_554 S
C675 C674 1.367 . S
C675 C683 1.433 . S
C676 H672 0.929 1_556 S
C676 C678 1.378 . S
C676 C680 1.350 . S
C677 C680 1.463 . S
C677 C682 1.350 . S
C677 N685 1.427 1_556 S
C678 H669 0.930 . S
C678 C676 1.378 . S
C678 C679 1.367 . S
C679 C678 1.367 . S
C679 C681 1.433 . S
C680 C676 1.350 . S
C680 C677 1.463 . S
C680 N684 1.427 . S
C681 H671 0.929 . S
C681 C679 1.433 . S
C681 N684 1.384 . S
C682 H673 0.929 . S
C682 C674 1.378 1_556 S
C682 C677 1.350 . S
C683 H670 0.929 . S
C683 C675 1.433 . S
C683 N685 1.384 . S
N684 C680 1.427 . S
N684 C681 1.384 . S
N685 C677 1.427 1_554 S
N685 C683 1.384 . S
H686 C692 0.930 . S
H687 C696 0.930 . S
H688 C701 0.929 . S
H689 C699 0.929 . S
H690 C694 0.929 . S
H691 C700 0.929 . S
C692 H686 0.930 . S
C692 C693 1.367 . S
C692 C700 1.378 . S
C693 C692 1.367 . S
C693 C701 1.433 . S
C694 H690 0.929 . S
C694 C696 1.378 . S
C694 C698 1.350 1_556 S
C695 C698 1.463 . S
C695 C700 1.350 . S
C695 N703 1.427 . S
C696 H687 0.930 . S
C696 C694 1.378 . S
C696 C697 1.367 . S
C697 C696 1.367 . S
C697 C699 1.433 . S
C698 C694 1.350 1_554 S
C698 C695 1.463 . S
C698 N702 1.427 . S
C699 H689 0.929 . S
C699 C697 1.433 . S
C699 N702 1.384 1_556 S
C700 H691 0.929 . S
C700 C692 1.378 . S
C700 C695 1.350 . S
C701 H688 0.929 . S
C701 C693 1.433 . S
C701 N703 1.384 . S
N702 C698 1.427 . S
N702 C699 1.384 1_554 S
N703 C695 1.427 . S
N703 C701 1.384 . S
H704 C710 0.930 . S
H705 C714 0.930 . S
H706 C719 0.929 . S
H707 C717 0.929 1_655 S
H708 C712 0.929 . S
H709 C718 0.929 . S
C710 H704 0.930 . S
C710 C711 1.367 . S
C710 C718 1.378 . S
C711 C710 1.367 . S
C711 C719 1.433 . S
C712 H708 0.929 . S
C712 C714 1.378 . S
C712 C716 1.350 . S
C713 C716 1.463 . S
C713 C718 1.350 . S
C713 N721 1.427 . S
C714 H705 0.930 . S
C714 C712 1.378 . S
C714 C715 1.367 . S
C715 C714 1.367 . S
C715 C717 1.433 . S
C716 C712 1.350 . S
C716 C713 1.463 . S
C716 N720 1.427 . S
C717 H707 0.929 1_455 S
C717 C715 1.433 . S
C717 N720 1.384 . S
C718 H709 0.929 . S
C718 C710 1.378 . S
C718 C713 1.350 . S
C719 H706 0.929 . S
C719 C711 1.433 . S
C719 N721 1.384 . S
N720 C716 1.427 . S
N720 C717 1.384 . S
N721 C713 1.427 . S
N721 C719 1.384 . S
H722 C728 0.930 . S
H723 C732 0.918 1_565 S
H724 C737 0.929 . S
H725 C735 0.929 . S
H726 C730 0.929 . S
H727 C736 0.929 . S
C728 H722 0.930 . S
C728 C729 1.367 . S
C728 C736 1.378 . S
C729 C728 1.367 . S
C729 C737 1.433 . S
C730 H726 0.929 . S
C730 C732 1.378 . S
C730 C734 1.350 . S
C731 C734 1.463 . S
C731 C736 1.350 . S
C731 N739 1.427 . S
C732 H723 0.918 1_545 S
C732 C730 1.378 . S
C732 C733 1.367 . S
C733 C732 1.367 . S
C733 C735 1.433 . S
C734 C730 1.350 . S
C734 C731 1.463 . S
C734 N738 1.427 . S
C735 H725 0.929 . S
C735 C733 1.433 . S
C735 N738 1.384 . S
C736 H727 0.929 . S
C736 C728 1.378 . S
C736 C731 1.350 . S
C737 H724 0.929 . S
C737 C729 1.433 . S
C737 N739 1.384 . S
N738 C734 1.427 . S
N738 C735 1.384 . S
N739 C731 1.427 . S
N739 C737 1.384 . S
H740 C746 0.930 . S
H741 C750 0.930 . S
H742 C755 0.929 . S
H743 C753 0.929 . S
H744 C748 0.929 . S
H745 C754 0.929 . S
C746 H740 0.930 . S
C746 C747 1.367 . S
C746 C754 1.378 . S
C747 C746 1.367 . S
C747 C755 1.433 . S
C748 H744 0.929 . S
C748 C750 1.378 . S
C748 C752 1.350 . S
C749 C752 1.463 . S
C749 C754 1.350 . S
C749 N757 1.427 . S
C750 H741 0.930 . S
C750 C748 1.378 . S
C750 C751 1.367 . S
C751 C750 1.367 . S
C751 C753 1.433 . S
C752 C748 1.350 . S
C752 C749 1.463 . S
C752 N756 1.427 . S
C753 H743 0.929 . S
C753 C751 1.433 . S
C753 N756 1.384 . S
C754 H745 0.929 . S
C754 C746 1.378 . S
C754 C749 1.350 . S
C755 H742 0.929 . S
C755 C747 1.433 . S
C755 N757 1.384 . S
N756 C752 1.427 . S
N756 C753 1.384 . S
N757 C749 1.427 . S
N757 C755 1.384 . S
H758 C764 0.930 . S
H759 C768 0.930 . S
H760 C773 0.929 . S
H761 C771 0.929 . S
H762 C766 0.929 . S
H763 C772 0.929 . S
C764 H758 0.930 . S
C764 C765 1.367 . S
C764 C772 1.378 . S
C765 C764 1.367 . S
C765 C773 1.433 . S
C766 H762 0.929 . S
C766 C768 1.378 . S
C766 C770 1.350 . S
C767 C770 1.463 . S
C767 C772 1.350 . S
C767 N775 1.427 . S
C768 H759 0.930 . S
C768 C766 1.378 . S
C768 C769 1.367 . S
C769 C768 1.367 . S
C769 C771 1.433 . S
C770 C766 1.350 . S
C770 C767 1.463 . S
C770 N774 1.427 . S
C771 H761 0.929 . S
C771 C769 1.433 . S
C771 N774 1.384 . S
C772 H763 0.929 . S
C772 C764 1.378 . S
C772 C767 1.350 . S
C773 H760 0.929 . S
C773 C765 1.433 . S
C773 N775 1.384 . S
N774 C770 1.427 . S
N774 C771 1.384 . S
N775 C767 1.427 . S
N775 C773 1.384 . S
H776 C782 0.930 1_455 S
H777 C786 0.930 . S
H778 C791 0.929 . S
H779 C789 0.929 . S
H780 C784 0.929 . S
H781 C790 0.929 1_455 S
C782 H776 0.930 1_655 S
C782 C783 1.367 . S
C782 C790 1.378 . S
C783 C782 1.367 . S
C783 C791 1.433 . S
C784 H780 0.929 . S
C784 C786 1.378 . S
C784 C788 1.350 . S
C785 C788 1.463 . S
C785 C790 1.350 . S
C785 N793 1.427 . S
C786 H777 0.930 . S
C786 C784 1.378 . S
C786 C787 1.367 . S
C787 C786 1.367 . S
C787 C789 1.433 1_655 S
C788 C784 1.350 . S
C788 C785 1.463 . S
C788 N792 1.427 1_655 S
C789 H779 0.929 . S
C789 C787 1.433 1_455 S
C789 N792 1.384 . S
C790 H781 0.929 1_655 S
C790 C782 1.378 . S
C790 C785 1.350 . S
C791 H778 0.929 . S
C791 C783 1.433 . S
C791 N793 1.384 . S
N792 C788 1.427 1_455 S
N792 C789 1.384 . S
N793 C785 1.427 . S
N793 C791 1.384 . S
H794 C800 0.930 . S
H795 C804 0.930 . S
H796 C809 0.929 . S
H797 C807 0.929 . S
H798 C802 0.929 . S
H799 C808 0.929 . S
C800 H794 0.930 . S
C800 C801 1.367 . S
C800 C808 1.378 . S
C801 C800 1.367 . S
C801 C809 1.433 . S
C802 H798 0.929 . S
C802 C804 1.378 . S
C802 C806 1.350 . S
C803 C806 1.463 . S
C803 C808 1.350 . S
C803 N811 1.427 . S
C804 H795 0.930 . S
C804 C802 1.378 . S
C804 C805 1.367 . S
C805 C804 1.367 . S
C805 C807 1.433 . S
C806 C802 1.350 . S
C806 C803 1.463 . S
C806 N810 1.427 . S
C807 H797 0.929 . S
C807 C805 1.433 . S
C807 N810 1.384 . S
C808 H799 0.929 . S
C808 C800 1.378 . S
C808 C803 1.350 . S
C809 H796 0.929 . S
C809 C801 1.433 . S
C809 N811 1.384 . S
N810 C806 1.427 . S
N810 C807 1.384 . S
N811 C803 1.427 . S
N811 C809 1.384 . S
H812 C818 0.930 . S
H813 C822 0.930 . S
H814 C827 0.929 . S
H815 C825 0.929 . S
H816 C820 0.929 . S
H817 C826 0.929 . S
C818 H812 0.930 . S
C818 C819 1.367 . S
C818 C826 1.378 . S
C819 C818 1.367 . S
C819 C827 1.433 . S
C820 H816 0.929 . S
C820 C822 1.378 . S
C820 C824 1.350 . S
C821 C824 1.463 . S
C821 C826 1.350 . S
C821 N829 1.427 . S
C822 H813 0.930 . S
C822 C820 1.378 . S
C822 C823 1.367 . S
C823 C822 1.367 . S
C823 C825 1.433 . S
C824 C820 1.350 . S
C824 C821 1.463 . S
C824 N828 1.427 . S
C825 H815 0.929 . S
C825 C823 1.433 . S
C825 N828 1.384 . S
C826 H817 0.929 . S
C826 C818 1.378 . S
C826 C821 1.350 . S
C827 H814 0.929 . S
C827 C819 1.433 . S
C827 N829 1.384 . S
N828 C824 1.427 . S
N828 C825 1.384 . S
N829 C821 1.427 . S
N829 C827 1.384 . S
H830 C836 0.930 . S
H831 C840 0.930 . S
H832 C845 0.929 . S
H833 C843 0.929 . S
H834 C838 0.929 . S
H835 C844 0.929 . S
C836 H830 0.930 . S
C836 C837 1.367 . S
C836 C844 1.378 . S
C837 C836 1.367 . S
C837 C845 1.433 . S
C838 H834 0.929 . S
C838 C840 1.378 . S
C838 C842 1.350 . S
C839 C842 1.463 . S
C839 C844 1.350 . S
C839 N847 1.427 . S
C840 H831 0.930 . S
C840 C838 1.378 . S
C840 C841 1.367 . S
C841 C840 1.367 . S
C841 C843 1.433 . S
C842 C838 1.350 . S
C842 C839 1.463 . S
C842 N846 1.427 . S
C843 H833 0.929 . S
C843 C841 1.433 . S
C843 N846 1.384 . S
C844 H835 0.929 . S
C844 C836 1.378 . S
C844 C839 1.350 . S
C845 H832 0.929 . S
C845 C837 1.433 . S
C845 N847 1.384 . S
N846 C842 1.427 . S
N846 C843 1.384 . S
N847 C839 1.427 . S
N847 C845 1.384 . S
C423 C215 2.535 . S
C427 C287 2.676 . S
C445 C313 2.155 . S
C441 C247 1.928 . S
C463 C353 2.176 . S
C459 C151 2.045 . S
C481 C407 2.649 . S
C477 C183 2.532 . S
C499 C268 2.680 . S
C495 C87 2.461 . S
C513 C119 2.009 . S
C517 C298 2.162 . S
C531 C23 1.973 . S
C535 C338 2.173 . S
C549 C55 2.448 . S
C553 C388 2.639 1_655 S
C571 C264 0.409 1_655 S
C567 C189 0.337 . S
C589 C325 0.658 . S
C585 C221 0.644 . S
C607 C365 0.452 . S
C603 C253 0.451 . S
C621 C157 0.262 . S
C625 C384 0.355 . S
C639 C61 0.585 . S
C643 C285 0.387 . S
C661 C304 0.668 . S
C657 C93 0.710 . S
C679 C344 0.448 . S
C675 C125 0.489 . S
C693 C29 0.562 . S
C697 C405 0.312 . S
C711 C177 2.294 . S
C715 C258 2.544 . S
C729 C209 2.871 . S
C733 C308 3.123 . S
C751 C348 2.877 . S
C747 C241 2.580 . S
C769 C378 2.286 . S
C765 C145 2.070 . S
C783 C49 2.229 . S
C787 C273 2.545 . S
C805 C327 3.124 . S
C801 C81 2.820 . S
C823 C367 2.875 . S
C819 C113 2.667 . S
C837 C17 2.013 . S
C841 C393 2.285 . S
