# Generated by pormake.
# Topology anh, (6,3)-cn, num edge types: 1
# Building blocks:
#     Node 0, Type 0, BuildingBlock: BETDIP_clean_sbu_0, # of connection points: 6
#     Node 1, Type 0, BuildingBlock: BETDIP_clean_sbu_0, # of connection points: 6
#     Node 2, Type 0, BuildingBlock: BETDIP_clean_sbu_0, # of connection points: 6
#     Node 3, Type 1, BuildingBlock: KAKCAD_clean_linker_0, # of connection points: 3
#     Node 4, Type 1, BuildingBlock: KAKCAD_clean_linker_0, # of connection points: 3
#     Node 5, Type 1, BuildingBlock: KAKCAD_clean_linker_0, # of connection points: 3
#     Node 6, Type 1, BuildingBlock: KAKCAD_clean_linker_0, # of connection points: 3
#     Node 7, Type 1, BuildingBlock: KAKCAD_clean_linker_0, # of connection points: 3
#     Node 8, Type 1, BuildingBlock: KAKCAD_clean_linker_0, # of connection points: 3
#     Edge 9, Type (0, 1), BuildingBlock: MIFKUJ_clean_linker_0, # of connection points: 2
#     Edge 10, Type (0, 1), BuildingBlock: MIFKUJ_clean_linker_0, # of connection points: 2
#     Edge 11, Type (0, 1), BuildingBlock: MIFKUJ_clean_linker_0, # of connection points: 2
#     Edge 12, Type (0, 1), BuildingBlock: MIFKUJ_clean_linker_0, # of connection points: 2
#     Edge 13, Type (0, 1), BuildingBlock: MIFKUJ_clean_linker_0, # of connection points: 2
#     Edge 14, Type (0, 1), BuildingBlock: MIFKUJ_clean_linker_0, # of connection points: 2
#     Edge 15, Type (0, 1), BuildingBlock: MIFKUJ_clean_linker_0, # of connection points: 2
#     Edge 16, Type (0, 1), BuildingBlock: MIFKUJ_clean_linker_0, # of connection points: 2
#     Edge 17, Type (0, 1), BuildingBlock: MIFKUJ_clean_linker_0, # of connection points: 2
#     Edge 18, Type (0, 1), BuildingBlock: MIFKUJ_clean_linker_0, # of connection points: 2
#     Edge 19, Type (0, 1), BuildingBlock: MIFKUJ_clean_linker_0, # of connection points: 2
#     Edge 20, Type (0, 1), BuildingBlock: MIFKUJ_clean_linker_0, # of connection points: 2
#     Edge 21, Type (0, 1), BuildingBlock: MIFKUJ_clean_linker_0, # of connection points: 2
#     Edge 22, Type (0, 1), BuildingBlock: MIFKUJ_clean_linker_0, # of connection points: 2
#     Edge 23, Type (0, 1), BuildingBlock: MIFKUJ_clean_linker_0, # of connection points: 2
#     Edge 24, Type (0, 1), BuildingBlock: MIFKUJ_clean_linker_0, # of connection points: 2
#     Edge 25, Type (0, 1), BuildingBlock: MIFKUJ_clean_linker_0, # of connection points: 2
#     Edge 26, Type (0, 1), BuildingBlock: MIFKUJ_clean_linker_0, # of connection points: 2
# Relax obj value: 0.206
# Max RMSD: 0.179
# Mean RMSD: 0.149
data_MOF--net-anh--node1-BETDIP_clean_sbu_0--node2-KAKCAD_clean_linker_0--edge1-MIFKUJ_clean_linker_0
_symmetry_space_group_name_H-M    P1
_symmetry_Int_Tables_number       1
_symmetry_cell_setting            triclinic
loop_
_symmetry_equiv_pos_as_xyz
'x, y, z'
_cell_length_a     46.560365
_cell_length_b     46.41562
_cell_length_c     83.138424
_cell_angle_alpha  89.973785
_cell_angle_beta   89.785923
_cell_angle_gamma 120.15761
loop_
_atom_site_label
_atom_site_type_symbol
_atom_site_fract_x
_atom_site_fract_y
_atom_site_fract_z
_atom_type_partial_charge
Tb0 Tb 0.09875 0.60631 0.17092 0.0
Tb1 Tb 0.06372 0.53161 0.16247 0.0
C2 C 0.13787 0.66145 0.18258 0.0
C3 C 0.17094 0.68388 0.1758 0.0
C4 C 0.19905 0.69758 0.18565 0.0
C5 C 0.23073 0.7153 0.17878 0.0
C6 C 0.23462 0.71962 0.162 0.0
C7 C 0.20648 0.70568 0.15218 0.0
C8 C 0.17497 0.68778 0.159 0.0
C9 C 0.0898 0.59222 0.14038 0.0
C10 C 0.14372 0.57003 0.16447 0.0
C11 C 1.03596 0.48153 0.14463 0.0
C12 C 1.00127 0.45889 0.14059 0.0
C13 C 0.99325 0.44084 0.12619 0.0
C14 C 0.96024 0.42288 0.12112 0.0
C15 C 0.93504 0.42322 0.13033 0.0
C16 C 0.94334 0.44124 0.14481 0.0
C17 C 0.97618 0.45896 0.14988 0.0
C18 C 0.06066 0.54005 0.19435 0.0
C19 C 1.02001 0.5688 0.16574 0.0
O20 O 0.13409 0.63367 0.18864 0.0
O21 O 0.11289 0.65657 0.17349 0.0
O22 O 0.09667 0.57749 0.15102 0.0
O23 O 0.09083 0.61838 0.14648 0.0
O24 O 0.14243 0.59802 0.16699 0.0
O25 O 0.11558 0.54084 0.16288 0.0
O26 O 1.04666 0.512 0.1397 0.0
O27 O 1.04504 0.48029 0.15945 0.0
O28 O 0.07274 0.56123 0.18323 0.0
O29 O 1.04865 0.51128 0.18731 0.0
O30 O 1.0227 0.54338 0.15989 0.0
O31 O 1.04597 0.59423 0.17306 0.0
H32 H 0.19652 0.69413 0.19857 0.0
H33 H 0.25215 0.72614 0.18661 0.0
H34 H 0.20888 0.70859 0.13923 0.0
H35 H 0.15378 0.67656 0.15102 0.0
H36 H 1.01258 0.44125 0.11873 0.0
H37 H 0.95445 0.4091 0.10996 0.0
H38 H 0.92436 0.44131 0.15237 0.0
H39 H 0.98208 0.47326 0.1609 0.0
Tb40 Tb 0.61439 0.04353 0.50346 0.0
Tb41 Tb 0.57695 0.07782 0.49947 0.0
C42 C 0.63328 1.00403 0.51182 0.0
C43 C 0.62553 0.97263 0.5038 0.0
C44 C 0.60404 0.94208 0.51127 0.0
C45 C 0.59321 0.91226 0.50299 0.0
C46 C 0.60389 0.91248 0.48713 0.0
C47 C 0.62568 0.94296 0.47971 0.0
C48 C 0.6363 0.97278 0.48793 0.0
C49 C 0.61302 0.06099 0.4737 0.0
C50 C 0.53539 0.99777 0.49775 0.0
C51 C 0.54286 0.10157 0.4888 0.0
C52 C 0.55175 0.13586 0.4852 0.0
C53 C 0.53289 0.14225 0.47421 0.0
C54 C 0.54405 0.17479 0.46893 0.0
C55 C 0.57441 0.20119 0.47448 0.0
C56 C 0.59297 0.19457 0.48565 0.0
C57 C 0.58176 0.16216 0.49093 0.0
C58 C 0.59842 0.08055 0.52948 0.0
C59 C 0.65609 0.12242 0.49945 0.0
O60 O 0.60808 1.00441 0.51856 0.0
O61 O 0.65202 1.03132 0.50373 0.0
O62 O 0.58975 0.05032 0.48376 0.0
O63 O 0.63675 0.05751 0.4795 0.0
O64 O 0.56499 0.99975 0.49671 0.0
O65 O 0.53432 1.02548 0.50064 0.0
O66 O 0.55839 0.09081 0.4797 0.0
O67 O 0.54285 0.094 0.50399 0.0
O68 O 0.58719 0.05602 0.52001 0.0
O69 O 0.59637 0.10425 0.5223 0.0
O70 O 0.628 0.11922 0.49364 0.0
O71 O 0.65499 0.09638 0.50697 0.0
H72 H 0.59519 0.94131 0.52343 0.0
H73 H 0.577 0.88898 0.50911 0.0
H74 H 0.63438 0.94371 0.46753 0.0
H75 H 0.65252 0.9959 0.4817 0.0
H76 H 0.51001 0.12201 0.46942 0.0
H77 H 0.52931 0.17924 0.46031 0.0
H78 H 0.6161 0.21448 0.49041 0.0
H79 H 0.59689 0.15753 0.49923 0.0
Tb80 Tb 0.54497 0.52952 0.83971 0.0
Tb81 Tb 0.6156 0.5686 0.83261 0.0
C82 C 0.48913 0.51104 0.85166 0.0
C83 C 0.46545 0.52195 0.84731 0.0
C84 C 0.47422 0.55567 0.84838 0.0
C85 C 0.45463 0.56683 0.84104 0.0
C86 C 0.42628 0.54453 0.83238 0.0
C87 C 0.41676 0.51063 0.83196 0.0
C88 C 0.43602 0.49942 0.83946 0.0
C89 C 0.55914 0.53233 0.80911 0.0
C90 C 0.57891 0.61057 0.83293 0.0
C91 C 0.67056 0.58983 0.81878 0.0
C92 C 0.68326 0.57273 0.80872 0.0
C93 C 0.66123 0.54257 0.80108 0.0
C94 C 0.67306 0.52315 0.79411 0.0
C95 C 0.70716 0.53407 0.79435 0.0
C96 C 0.72932 0.56559 0.80084 0.0
C97 C 0.7174 0.58467 0.80805 0.0
C98 C 0.60126 0.56624 0.86369 0.0
C99 C 0.5797 0.48724 0.83427 0.0
O100 O 0.51682 0.53308 0.85859 0.0
O101 O 0.49422 0.49465 0.84028 0.0
O102 O 0.57254 0.55552 0.81913 0.0
O103 O 0.53437 0.50665 0.8158 0.0
O104 O 0.55171 0.58116 0.83619 0.0
O105 O 0.60781 0.61177 0.83098 0.0
O106 O 0.64596 0.59206 0.81263 0.0
O107 O 0.66543 0.58064 0.8339 0.0
O108 O 0.58783 0.54231 0.85383 0.0
O109 O 0.62498 0.59191 0.85635 0.0
O110 O 0.60443 0.51593 0.82852 0.0
O111 O 0.5546 0.48749 0.84182 0.0
H112 H 0.49684 0.57373 0.85432 0.0
H113 H 0.46218 0.593 0.8417 0.0
H114 H 0.39448 0.49276 0.82573 0.0
H115 H 0.42874 0.47334 0.83846 0.0
H116 H 0.63475 0.53327 0.80114 0.0
H117 H 0.65552 0.49906 0.78915 0.0
H118 H 0.75571 0.57445 0.80142 0.0
H119 H 0.7347 0.60792 0.81384 0.0
C120 C 0.57422 0.12125 0.29913 0.0
C121 C 0.55849 0.08947 0.30629 0.0
C122 C 0.57095 0.12488 0.28269 0.0
C123 C 0.5522 0.09681 0.27297 0.0
C124 C 0.5361 0.06506 0.28018 0.0
C125 C 0.53904 0.06147 0.29665 0.0
C126 C 0.55076 0.10044 0.2553 0.0
C127 C 0.57948 0.12336 0.24676 0.0
C128 C 0.57908 0.12486 0.22995 0.0
C129 C 0.54974 0.10422 0.2217 0.0
C130 C 0.52118 0.0808 0.22985 0.0
C131 C 0.52159 0.07927 0.2467 0.0
C132 C 0.4944 0.05411 0.22026 0.0
C133 C 0.48485 0.0618 0.20555 0.0
C134 C 0.48525 1.02096 0.22359 0.0
C135 C 0.47084 0.99688 0.21166 0.0
C136 C 0.46533 1.00557 0.19626 0.0
C137 C 0.60923 0.14666 0.22053 0.0
C138 C 0.62764 0.18089 0.22367 0.0
C139 C 0.61704 0.13379 0.20697 0.0
C140 C 0.6407 0.15511 0.19591 0.0
C141 C 0.65724 0.18967 0.19832 0.0
C142 C 0.65157 0.20228 0.21264 0.0
C143 C 0.47048 0.03764 0.19357 0.0
H144 H 0.58971 0.14335 0.30614 0.0
H145 H 0.58337 0.14972 0.27756 0.0
H146 H 0.52187 0.04281 0.27306 0.0
H147 H 0.52617 0.03666 0.30181 0.0
H148 H 0.60259 0.1388 0.25305 0.0
H149 H 0.49946 0.06095 0.25299 0.0
H150 H 0.54984 0.10507 0.20866 0.0
H151 H 0.49134 0.08718 0.20279 0.0
H152 H 0.49227 1.01427 0.23479 0.0
H153 H 0.46595 0.9719 0.21416 0.0
H154 H 0.62216 0.19129 0.23411 0.0
H155 H 0.60352 0.10731 0.20448 0.0
H156 H 0.46583 0.0447 0.18186 0.0
H157 H 0.66471 0.2288 0.21501 0.0
H158 H 0.64457 0.1446 0.18505 0.0
C159 C 0.60633 0.55979 0.62863 0.0
C160 C 0.63067 0.57881 0.64004 0.0
C161 C 0.6139 0.56465 0.61224 0.0
C162 C 0.64569 0.58905 0.60707 0.0
C163 C 0.66986 0.60854 0.61845 0.0
C164 C 0.66251 0.60316 0.63486 0.0
C165 C 0.65343 0.59415 0.58977 0.0
C166 C 0.66102 0.6245 0.58245 0.0
C167 C 0.66573 0.62843 0.56574 0.0
C168 C 0.66342 0.60213 0.55655 0.0
C169 C 0.6551 0.57164 0.56364 0.0
C170 C 0.6505 0.56772 0.58031 0.0
C171 C 0.64864 0.54361 0.55309 0.0
C172 C 0.62598 0.53519 0.54041 0.0
C173 C 0.66734 0.52771 0.55445 0.0
C174 C 0.66459 0.50485 0.54276 0.0
C175 C 0.6429 0.49748 0.52968 0.0
C176 C 0.66607 0.6563 0.55705 0.0
C177 C 0.63916 0.66158 0.55911 0.0
C178 C 0.68748 0.67083 0.5438 0.0
C179 C 0.67969 0.68674 0.53177 0.0
C180 C 0.65044 0.68828 0.53292 0.0
C181 C 0.63134 0.67741 0.54709 0.0
C182 C 0.62307 0.51226 0.52882 0.0
H183 H 0.58167 0.54079 0.63241 0.0
H184 H 0.5949 0.54954 0.60358 0.0
H185 H 0.6945 0.6275 0.61463 0.0
H186 H 0.68157 0.61814 0.64351 0.0
H187 H 0.66163 0.64433 0.58961 0.0
H188 H 0.64354 0.5439 0.58583 0.0
H189 H 0.66588 0.60455 0.54356 0.0
H190 H 0.61125 0.54718 0.53921 0.0
H191 H 0.685 0.534 0.56414 0.0
H192 H 0.6797 0.49325 0.54382 0.0
H193 H 0.62219 0.6505 0.56917 0.0
H194 H 0.70844 0.66709 0.54201 0.0
H195 H 0.60618 0.50702 0.51887 0.0
H196 H 0.60915 0.67924 0.54841 0.0
H197 H 0.69501 0.69534 0.52104 0.0
C198 C 0.08965 0.54475 0.96158 0.0
C199 C 0.061 0.52819 0.97115 0.0
C200 C 0.08722 0.54296 0.94484 0.0
C201 C 0.05612 0.52405 0.93737 0.0
C202 C 1.02762 0.50657 0.94709 0.0
C203 C 1.03002 0.50894 0.96381 0.0
C204 C 0.05331 0.5235 0.91954 0.0
C205 C 0.07839 0.52424 0.90971 0.0
C206 C 0.07638 0.5253 0.89292 0.0
C207 C 1.04902 0.52493 0.88591 0.0
C208 C 1.02338 0.52303 0.89544 0.0
C209 C 1.02563 0.52261 0.91222 0.0
C210 C 0.99333 0.51883 0.88751 0.0
C211 C 0.99613 0.54047 0.87505 0.0
C212 C 0.96245 0.49055 0.8908 0.0
C213 C 0.93513 0.48296 0.88112 0.0
C214 C 0.93826 0.50375 0.86812 0.0
C215 C 0.10189 0.52532 0.8824 0.0
C216 C 0.116 0.54884 0.86995 0.0
C217 C 0.11017 0.5003 0.88389 0.0
C218 C 0.1319 0.4985 0.87289 0.0
C219 C 0.14599 0.52196 0.86034 0.0
C220 C 0.138 0.5473 0.85907 0.0
C221 C 0.96878 0.53313 0.86551 0.0
H222 H 0.11376 0.55997 0.96706 0.0
H223 H 0.10964 0.55721 0.93779 0.0
H224 H 1.00337 0.4911 0.94182 0.0
H225 H 1.00766 0.49573 0.97103 0.0
H226 H 0.09944 0.52395 0.91504 0.0
H227 H 1.00596 0.52206 0.91946 0.0
H228 H 1.04692 0.52451 0.8729 0.0
H229 H 1.01978 0.56252 0.8724 0.0
H230 H 0.95994 0.47332 0.90024 0.0
H231 H 0.91202 0.46007 0.88341 0.0
H232 H 0.10992 0.5684 0.86864 0.0
H233 H 0.09908 0.48159 0.89327 0.0
H234 H 0.97174 0.55015 0.85588 0.0
H235 H 0.14903 0.56622 0.84979 0.0
H236 H 0.1373 0.47847 0.87409 0.0
C237 C 0.05676 0.54947 0.37901 0.0
C238 C 0.08556 0.56285 0.36935 0.0
C239 C 0.05874 0.54966 0.39591 0.0
C240 C 0.08959 0.56272 0.40382 0.0
C241 C 0.1184 0.57602 0.39407 0.0
C242 C 0.11643 0.57633 0.37717 0.0
C243 C 0.09169 0.56225 0.42205 0.0
C244 C 0.06611 0.53631 0.43117 0.0
C245 C 0.06694 0.53481 0.44812 0.0
C246 C 0.09593 0.56102 0.45614 0.0
C247 C 0.12287 0.58793 0.4472 0.0
C248 C 0.11931 0.58768 0.43027 0.0
C249 C 0.1555 0.61693 0.45434 0.0
C250 C 0.15666 0.63677 0.46755 0.0
C251 C 0.18629 0.62789 0.44634 0.0
C252 C 0.21607 0.65722 0.45081 0.0
C253 C 0.2174 0.67782 0.46371 0.0
C254 C 1.03625 0.50532 0.45629 0.0
C255 C 1.00393 0.49959 0.45301 0.0
C256 C 1.0375 0.47929 0.46457 0.0
C257 C 1.00797 0.449 0.469 0.0
C258 C 0.97553 0.44309 0.46547 0.0
C259 C 0.97459 0.46966 0.45755 0.0
C260 C 0.18672 0.66641 0.47207 0.0
H261 H 1.03255 0.53927 0.37349 0.0
H262 H 1.03588 0.53984 0.40275 0.0
H263 H 0.14268 0.58574 0.39942 0.0
H264 H 0.13915 0.58651 0.37018 0.0
H265 H 1.04519 0.51631 0.42495 0.0
H266 H 0.13827 0.60825 0.42334 0.0
H267 H 0.09749 0.56045 0.46911 0.0
H268 H 0.13402 0.63008 0.47411 0.0
H269 H 0.18739 0.61393 0.43616 0.0
H270 H 0.23799 0.66409 0.44363 0.0
H271 H 1.00125 0.51817 0.44636 0.0
H272 H 0.06142 0.48171 0.46706 0.0
H273 H 0.18568 0.68046 0.48221 0.0
H274 H 0.95096 0.46702 0.45419 0.0
H275 H 1.01076 0.43001 0.47515 0.0
C276 C 0.56815 1.02397 0.71301 0.0
C277 C 0.58619 0.05472 0.70492 0.0
C278 C 0.56622 1.02236 0.72994 0.0
C279 C 0.58266 0.05144 0.73942 0.0
C280 C 0.6011 0.08214 0.73124 0.0
C281 C 0.60262 0.08375 0.71433 0.0
C282 C 0.58056 0.04993 0.75764 0.0
C283 C 0.57848 1.02264 0.76617 0.0
C284 C 0.57649 1.02028 0.78317 0.0
C285 C 0.57759 0.04796 0.79183 0.0
C286 C 0.58003 0.07655 0.78346 0.0
C287 C 0.58082 0.07602 0.76646 0.0
C288 C 0.58246 0.10816 0.79121 0.0
C289 C 0.55963 0.10754 0.80272 0.0
C290 C 0.60545 0.14014 0.78503 0.0
C291 C 0.60516 0.1695 0.78954 0.0
C292 C 0.58189 0.16918 0.80069 0.0
C293 C 0.57311 0.98804 0.79067 0.0
C294 C 0.55085 0.9565 0.7839 0.0
C295 C 0.59459 0.98784 0.80264 0.0
C296 C 0.59438 0.95789 0.80715 0.0
C297 C 0.57251 0.9264 0.80002 0.0
C298 C 0.55049 0.92677 0.78842 0.0
C299 C 0.55934 0.13722 0.80731 0.0
H300 H 0.55485 1.00106 0.70623 0.0
H301 H 0.55127 0.99822 0.73555 0.0
H302 H 0.61488 0.10515 0.73788 0.0
H303 H 0.61721 0.10786 0.70862 0.0
H304 H 0.57915 1.00301 0.75945 0.0
H305 H 0.58112 0.09633 0.7599 0.0
H306 H 0.57659 0.04727 0.80484 0.0
H307 H 0.54107 0.0839 0.80776 0.0
H308 H 0.62358 0.1425 0.77613 0.0
H309 H 0.62289 0.19246 0.78368 0.0
H310 H 0.53385 0.95483 0.7746 0.0
H311 H 0.61257 1.01113 0.80813 0.0
H312 H 0.54102 0.13481 0.81608 0.0
H313 H 0.53335 0.90408 0.78224 0.0
H314 H 0.6117 0.95963 0.81626 0.0
C315 C 0.58393 0.5398 0.04815 0.0
C316 C 0.58067 0.56336 0.03883 0.0
C317 C 0.58434 0.54127 0.06507 0.0
C318 C 0.58084 0.56594 0.07323 0.0
C319 C 0.57708 0.58921 0.06393 0.0
C320 C 0.57734 0.58814 0.047 0.0
C321 C 0.58135 0.5675 0.09134 0.0
C322 C 0.60635 0.56572 0.1 0.0
C323 C 0.60808 0.56706 0.11699 0.0
C324 C 0.5823 0.57011 0.12542 0.0
C325 C 0.55609 0.57189 0.11682 0.0
C326 C 0.55688 0.57071 0.09983 0.0
C327 C 0.52723 0.57521 0.12433 0.0
C328 C 0.50434 0.55258 0.13576 0.0
C329 C 0.51893 0.5984 0.11787 0.0
C330 C 0.48942 0.59861 0.12218 0.0
C331 C 0.46585 0.57551 0.13325 0.0
C332 C 0.63734 0.56479 0.12467 0.0
C333 C 0.64605 0.54154 0.11867 0.0
C334 C 0.66002 0.58813 0.13583 0.0
C335 C 0.69008 0.58865 0.14029 0.0
C336 C 0.69917 0.5658 0.13388 0.0
C337 C 0.67579 0.54204 0.12307 0.0
C338 C 0.47447 0.55267 0.14006 0.0
H339 H 0.58676 0.52049 0.04233 0.0
H340 H 0.5871 0.52281 0.0718 0.0
H341 H 0.57448 0.60864 0.06976 0.0
H342 H 0.57457 0.60659 0.04028 0.0
H343 H 0.62541 0.56406 0.09323 0.0
H344 H 0.53749 0.57145 0.09298 0.0
H345 H 0.58263 0.57105 0.13843 0.0
H346 H 0.50878 0.5338 0.14096 0.0
H347 H 0.53512 0.61623 0.10894 0.0
H348 H 0.48472 0.61655 0.11622 0.0
H349 H 0.62998 0.52304 0.11003 0.0
H350 H 0.65525 0.60695 0.14071 0.0
H351 H 0.45799 0.53444 0.14875 0.0
H352 H 0.68071 0.52402 0.11738 0.0
H353 H 0.7063 0.60736 0.14879 0.0
H354 H 0.15787 0.51829 0.16394 0.0
H355 H 0.21071 0.51985 0.15937 0.0
H356 H 0.26049 0.62646 0.15421 0.0
H357 H 0.20754 0.62503 0.15904 0.0
H358 H 0.2853 0.60206 0.13152 0.0
H359 H 0.27027 0.58687 0.18826 0.0
H360 H 0.24071 0.56027 0.21347 0.0
H361 H 0.23536 0.46868 0.19944 0.0
H362 H 0.26446 0.4946 0.17401 0.0
H363 H 0.45128 0.6276 0.13211 0.0
H364 H 0.39958 0.62714 0.13743 0.0
H365 H 0.35146 0.52282 0.14918 0.0
H366 H 0.40341 0.52305 0.14386 0.0
H367 H 0.32552 0.54646 0.16858 0.0
H368 H 0.33908 0.56059 0.11164 0.0
H369 H 0.36694 0.58615 0.08595 0.0
H370 H 0.37364 0.67846 0.09977 0.0
H371 H 0.34619 0.65357 0.12564 0.0
C372 C 0.17995 0.54227 0.16195 0.0
C373 C 0.17748 0.57152 0.16205 0.0
C374 C 0.21069 0.54316 0.15933 0.0
C375 C 0.24084 0.57332 0.15645 0.0
C376 C 0.23837 0.60258 0.15635 0.0
C377 C 0.20765 0.60176 0.15924 0.0
C378 C 0.27432 0.57415 0.15354 0.0
C379 C 0.2941 0.59024 0.13984 0.0
C380 C 0.28663 0.55824 0.16388 0.0
C381 C 0.26924 0.54258 0.17916 0.0
C382 C 0.26256 0.56097 0.19049 0.0
C383 C 0.24592 0.54604 0.20483 0.0
C384 C 0.23609 0.51278 0.20803 0.0
C385 C 0.24295 0.49442 0.19692 0.0
C386 C 0.25953 0.50923 0.18255 0.0
C387 C 0.42988 0.60416 0.1356 0.0
C388 C 0.43283 0.57525 0.13723 0.0
C389 C 0.39959 0.60395 0.13869 0.0
C390 C 0.37002 0.57477 0.14349 0.0
C391 C 0.37302 0.54601 0.1455 0.0
C392 C 0.4034 0.54621 0.14243 0.0
C393 C 0.33666 0.57435 0.14649 0.0
C394 C 0.31683 0.55831 0.16023 0.0
C395 C 0.3242 0.59019 0.13612 0.0
C396 C 0.34093 0.60532 0.12066 0.0
C397 C 0.34674 0.58642 0.10926 0.0
C398 C 0.36242 0.60077 0.09465 0.0
C399 C 0.37215 0.63394 0.09125 0.0
C400 C 0.36616 0.65279 0.10244 0.0
C401 C 0.35053 0.63858 0.11707 0.0
H402 H 0.38426 0.64499 0.07994 0.0
H403 H 0.22322 0.50126 0.21914 0.0
H404 H 0.6673 0.18687 0.49525 0.0
H405 H 0.71921 0.23918 0.49085 0.0
H406 H 0.77327 0.18631 0.49189 0.0
H407 H 0.72134 0.13431 0.49772 0.0
H408 H 0.81447 0.23995 0.5022 0.0
H409 H 0.7498 0.22591 0.45471 0.0
H410 H 0.70107 0.21786 0.43934 0.0
H411 H 0.71169 0.30808 0.45918 0.0
H412 H 0.76013 0.31639 0.47485 0.0
H413 H 0.96427 0.37753 0.46781 0.0
H414 H 0.91292 0.3252 0.47337 0.0
H415 H 0.86 0.37863 0.47826 0.0
H416 H 0.91112 0.43091 0.47249 0.0
H417 H 0.8189 0.32486 0.46461 0.0
H418 H 0.88482 0.3384 0.51173 0.0
H419 H 0.93419 0.34601 0.52633 0.0
H420 H 0.92212 0.25583 0.50565 0.0
H421 H 0.87288 0.24788 0.49079 0.0
C422 C 0.69018 0.18617 0.49463 0.0
C423 C 0.68922 0.15546 0.49693 0.0
C424 C 0.72047 0.21662 0.49177 0.0
C425 C 0.75162 0.2181 0.49027 0.0
C426 C 0.75057 0.18728 0.49278 0.0
C427 C 0.72034 0.15695 0.49614 0.0
C428 C 0.78478 0.25111 0.48638 0.0
C429 C 0.81503 0.25798 0.49373 0.0
C430 C 0.78729 0.27639 0.47559 0.0
C431 C 0.75838 0.27159 0.46606 0.0
C432 C 0.74163 0.24394 0.45584 0.0
C433 C 0.71404 0.23932 0.44709 0.0
C434 C 0.7032 0.26238 0.44833 0.0
C435 C 0.72001 0.29017 0.45828 0.0
C436 C 0.74754 0.29487 0.46709 0.0
C437 C 0.94198 0.3786 0.47024 0.0
C438 C 0.94313 0.40974 0.46959 0.0
C439 C 0.91199 0.34803 0.47354 0.0
C440 C 0.8813 0.34665 0.47667 0.0
C441 C 0.88243 0.37772 0.47596 0.0
C442 C 0.91232 0.40823 0.47256 0.0
C443 C 0.84836 0.3135 0.4804 0.0
C444 C 0.81821 0.30668 0.47303 0.0
C445 C 0.84602 0.28813 0.49101 0.0
C446 C 0.87537 0.29272 0.50005 0.0
C447 C 0.89281 0.32029 0.51024 0.0
C448 C 0.92075 0.32465 0.51857 0.0
C449 C 0.93134 0.30147 0.51689 0.0
C450 C 0.91392 0.2738 0.50692 0.0
C451 C 0.88598 0.26933 0.49856 0.0
H452 H 0.95299 0.3049 0.52333 0.0
H453 H 0.68183 0.25876 0.44155 0.0
H454 H 0.52363 0.61845 0.82769 0.0
H455 H 0.5216 0.66969 0.82268 0.0
H456 H 0.6279 0.72786 0.8272 0.0
H457 H 0.62999 0.67677 0.83203 0.0
H458 H 0.60137 0.76133 0.84199 0.0
H459 H 0.586 0.71137 0.7897 0.0
H460 H 0.55864 0.66623 0.76982 0.0
H461 H 0.46671 0.6651 0.77704 0.0
H462 H 0.49344 0.70998 0.79713 0.0
H463 H 0.6245 0.91714 0.81125 0.0
H464 H 0.625 0.86571 0.81696 0.0
H465 H 0.52172 0.80808 0.80425 0.0
H466 H 0.52106 0.85931 0.79846 0.0
H467 H 0.54553 0.77331 0.79396 0.0
H468 H 0.55723 0.82058 0.8458 0.0
H469 H 0.58068 0.86293 0.86719 0.0
H470 H 0.67426 0.86635 0.86279 0.0
H471 H 0.65148 0.8243 0.84121 0.0
C472 C 0.54668 0.64206 0.82771 0.0
C473 C 0.57699 0.64259 0.83038 0.0
C474 C 0.54554 0.6718 0.82469 0.0
C475 C 0.57464 0.70376 0.82432 0.0
C476 C 0.6048 0.70426 0.82731 0.0
C477 C 0.60599 0.67456 0.83008 0.0
C478 C 0.57389 0.73629 0.82079 0.0
C479 C 0.58949 0.76386 0.83132 0.0
C480 C 0.55766 0.74049 0.80721 0.0
C481 C 0.54164 0.71381 0.79502 0.0
C482 C 0.5599 0.70135 0.78712 0.0
C483 C 0.54451 0.67583 0.77581 0.0
C484 C 0.51094 0.66275 0.7722 0.0
C485 C 0.49271 0.67523 0.77986 0.0
C486 C 0.50797 0.70073 0.7912 0.0
C487 C 0.60156 0.89374 0.8098 0.0
C488 C 0.57275 0.89372 0.80425 0.0
C489 C 0.60185 0.86369 0.81316 0.0
C490 C 0.57325 0.83166 0.81139 0.0
C491 C 0.54451 0.8316 0.80581 0.0
C492 C 0.54422 0.8616 0.8024 0.0
C493 C 0.57324 0.79869 0.81513 0.0
C494 C 0.55748 0.77096 0.80464 0.0
C495 C 0.58883 0.79411 0.82892 0.0
C496 C 0.60277 0.8196 0.84176 0.0
C497 C 0.5829 0.83058 0.8493 0.0
C498 C 0.59605 0.85449 0.86147 0.0
C499 C 0.62897 0.8674 0.86631 0.0
C500 C 0.64879 0.85638 0.859 0.0
C501 C 0.63577 0.83249 0.8468 0.0
H502 H 0.6391 0.8859 0.87575 0.0
H503 H 0.49907 0.64298 0.76344 0.0
H504 H 1.00436 0.61877 0.17232 0.0
H505 H 0.9529 0.61959 0.16736 0.0
H506 H 0.90746 0.51964 0.14884 0.0
H507 H 0.95931 0.51931 0.15327 0.0
H508 H 0.88349 0.54617 0.13158 0.0
H509 H 0.88967 0.54911 0.18912 0.0
H510 H 0.91452 0.57023 0.21575 0.0
H511 H 0.92177 0.6643 0.20534 0.0
H512 H 0.89732 0.64386 0.17856 0.0
H513 H 0.71549 0.51485 0.13223 0.0
H514 H 0.76756 0.51637 0.13755 0.0
H515 H 0.81275 0.61946 0.151 0.0
H516 H 0.76057 0.61844 0.1454 0.0
H517 H 0.83707 0.59258 0.17071 0.0
H518 H 0.82932 0.58841 0.11333 0.0
H519 H 0.80365 0.56647 0.08693 0.0
H520 H 0.79854 0.47341 0.09742 0.0
H521 H 0.82379 0.49465 0.12399 0.0
C522 C 0.98347 0.59674 0.16731 0.0
C523 C 0.98695 0.56889 0.16343 0.0
C524 C 0.95333 0.59708 0.16451 0.0
C525 C 0.9246 0.5694 0.1579 0.0
C526 C 0.92826 0.54165 0.15395 0.0
C527 C 0.95843 0.54141 0.15663 0.0
C528 C 0.89145 0.56938 0.1548 0.0
C529 C 0.87342 0.55595 0.14039 0.0
C530 C 0.87724 0.58268 0.16573 0.0
C531 C 0.89201 0.59507 0.18178 0.0
C532 C 0.89678 0.57438 0.19247 0.0
C533 C 0.91076 0.58622 0.2076 0.0
C534 C 0.91981 0.61862 0.21222 0.0
C535 C 0.91481 0.63923 0.20174 0.0
C536 C 0.90088 0.62752 0.18659 0.0
C537 C 0.73628 0.53832 0.13604 0.0
C538 C 0.73241 0.56665 0.138 0.0
C539 C 0.76678 0.5391 0.13919 0.0
C540 C 0.79562 0.56823 0.14451 0.0
C541 C 0.79174 0.59636 0.1469 0.0
C542 C 0.76119 0.59566 0.14368 0.0
C543 C 0.82915 0.56916 0.14758 0.0
C544 C 0.8472 0.58277 0.16194 0.0
C545 C 0.84331 0.55587 0.13665 0.0
C546 C 0.82812 0.54301 0.12071 0.0
C547 C 0.82249 0.56318 0.11005 0.0
C548 C 0.80805 0.55088 0.09505 0.0
C549 C 0.79938 0.51853 0.09052 0.0
C550 C 0.80521 0.49844 0.10096 0.0
C551 C 0.8196 0.5106 0.11599 0.0
H552 H 0.78822 0.50906 0.0789 0.0
H553 H 0.93062 0.62774 0.22393 0.0
H554 H 0.52611 0.93695 0.48613 0.0
H555 H 0.47428 0.88458 0.48079 0.0
H556 H 0.41766 0.92892 0.49737 0.0
H557 H 0.46942 0.9814 0.50256 0.0
H558 H 0.3871 0.86568 0.50824 0.0
H559 H 0.42537 0.91323 0.45595 0.0
H560 H 0.46545 0.93717 0.43353 0.0
H561 H 0.46959 0.84702 0.43012 0.0
H562 H 0.42984 0.82268 0.45268 0.0
H563 H 0.22725 0.73628 0.47931 0.0
H564 H 0.27875 0.78806 0.4852 0.0
H565 H 0.33548 0.74803 0.46379 0.0
H566 H 0.28435 0.6962 0.45801 0.0
H567 H 0.3664 0.80939 0.45544 0.0
H568 H 0.32972 0.76157 0.50744 0.0
H569 H 0.29153 0.73712 0.53053 0.0
H570 H 0.28618 0.82643 0.53527 0.0
H571 H 0.32403 0.85127 0.51205 0.0
C572 C 0.50274 0.93582 0.48868 0.0
C573 C 0.50287 0.96438 0.49483 0.0
C574 C 0.47262 0.90543 0.4855 0.0
C575 C 0.44087 0.90174 0.48841 0.0
C576 C 0.44105 0.93008 0.49486 0.0
C577 C 0.47114 0.96059 0.49784 0.0
C578 C 0.40792 0.86892 0.48474 0.0
C579 C 0.38265 0.85384 0.49657 0.0
C580 C 0.40117 0.85183 0.46972 0.0
C581 C 0.42488 0.86626 0.45611 0.0
C582 C 0.435 0.89859 0.45049 0.0
C583 C 0.45763 0.91222 0.43775 0.0
C584 C 0.47012 0.89366 0.43043 0.0
C585 C 0.45993 0.86138 0.43581 0.0
C586 C 0.43733 0.84765 0.44857 0.0
C587 C 0.25048 0.73788 0.47596 0.0
C588 C 0.25019 0.71065 0.468 0.0
C589 C 0.28057 0.76816 0.47941 0.0
C590 C 0.31236 0.77313 0.47523 0.0
C591 C 0.31212 0.74607 0.46725 0.0
C592 C 0.28212 0.71582 0.46383 0.0
C593 C 0.34538 0.80601 0.47896 0.0
C594 C 0.37073 0.82115 0.46713 0.0
C595 C 0.35234 0.823 0.49404 0.0
C596 C 0.32939 0.80812 0.50789 0.0
C597 C 0.32017 0.77589 0.51332 0.0
C598 C 0.29863 0.76198 0.52644 0.0
C599 C 0.28635 0.78017 0.53433 0.0
C600 C 0.29565 0.81234 0.52912 0.0
C601 C 0.31716 0.82636 0.51599 0.0
H602 H 0.26969 0.76937 0.5445 0.0
H603 H 0.48765 0.90425 0.42057 0.0
H604 H 0.52996 0.42147 0.84071 0.0
H605 H 0.52925 0.36915 0.83539 0.0
H606 H 0.62869 0.42419 0.81634 0.0
H607 H 0.62898 0.47648 0.82117 0.0
H608 H 0.60096 0.37341 0.79882 0.0
H609 H 0.60063 0.37741 0.85652 0.0
H610 H 0.58036 0.38139 0.88341 0.0
H611 H 0.48639 0.29387 0.87392 0.0
H612 H 0.50599 0.28959 0.8469 0.0
H613 H 0.63273 0.23663 0.79859 0.0
H614 H 0.63135 0.28742 0.80403 0.0
H615 H 0.52909 0.22935 0.81872 0.0
H616 H 0.52989 0.17798 0.81292 0.0
H617 H 0.55701 0.28079 0.83832 0.0
H618 H 0.55845 0.27502 0.78129 0.0
H619 H 0.57802 0.27135 0.7542 0.0
H620 H 0.66917 0.36302 0.762 0.0
H621 H 0.65076 0.36667 0.78938 0.0
C622 C 0.55199 0.42273 0.83545 0.0
C623 C 0.57968 0.45421 0.83155 0.0
C624 C 0.5516 0.39225 0.83248 0.0
C625 C 0.57918 0.39141 0.82563 0.0
C626 C 0.60678 0.42294 0.82162 0.0
C627 C 0.60708 0.45343 0.82449 0.0
C628 C 0.57917 0.35829 0.82238 0.0
C629 C 0.5918 0.35358 0.80771 0.0
C630 C 0.56647 0.33088 0.83341 0.0
C631 C 0.55466 0.33339 0.84963 0.0
C632 C 0.57557 0.35914 0.86013 0.0
C633 C 0.56422 0.36144 0.8754 0.0
C634 C 0.53208 0.33796 0.88036 0.0
C635 C 0.51126 0.31207 0.87006 0.0
C636 C 0.52248 0.30968 0.85477 0.0
C637 C 0.60945 0.23397 0.80271 0.0
C638 C 0.58126 0.20169 0.80494 0.0
C639 C 0.6088 0.26381 0.80593 0.0
C640 C 0.57996 0.26348 0.81165 0.0
C641 C 0.55198 0.2314 0.81432 0.0
C642 C 0.55252 0.20144 0.81099 0.0
C643 C 0.57915 0.29614 0.81485 0.0
C644 C 0.56632 0.30071 0.82948 0.0
C645 C 0.59173 0.32346 0.80379 0.0
C646 C 0.60338 0.32085 0.78751 0.0
C647 C 0.58292 0.29413 0.77735 0.0
C648 C 0.59382 0.29204 0.76193 0.0
C649 C 0.62496 0.31679 0.75644 0.0
C650 C 0.64525 0.34368 0.76635 0.0
C651 C 0.63462 0.34574 0.78183 0.0
H652 H 0.63329 0.31523 0.74446 0.0
H653 H 0.52333 0.33978 0.89219 0.0
H654 H 0.64549 0.89633 0.472 0.0
H655 H 0.63448 0.8406 0.4662 0.0
H656 H 0.5309 0.80079 0.47813 0.0
H657 H 0.54231 0.85705 0.48449 0.0
H658 H 0.55572 0.77896 0.49796 0.0
H659 H 0.55559 0.7767 0.4422 0.0
H660 H 0.57023 0.79593 0.41416 0.0
H661 H 0.66759 0.80936 0.42087 0.0
H662 H 0.65384 0.79078 0.44902 0.0
H663 H 0.58832 0.65524 0.52046 0.0
H664 H 0.56506 0.67519 0.4999 0.0
H665 H 0.6612 0.76287 0.49299 0.0
H666 H 0.68469 0.74295 0.51357 0.0
H667 H 0.61732 0.73991 0.46408 0.0
H668 H 0.61965 0.7689 0.52183 0.0
H669 H 0.60687 0.75121 0.55021 0.0
H670 H 0.50397 0.68797 0.53838 0.0
H671 H 0.51634 0.70499 0.50986 0.0
C672 C 0.62009 0.8759 0.47272 0.0
C673 C 0.59491 0.88074 0.47909 0.0
C674 C 0.61365 0.84388 0.4692 0.0
C675 C 0.58182 0.81626 0.47184 0.0
C676 C 0.55568 0.82167 0.47612 0.0
C677 C 0.56225 0.85372 0.47988 0.0
C678 C 0.57886 0.78338 0.47478 0.0
C679 C 0.56781 0.7695 0.49014 0.0
C680 C 0.59487 0.77096 0.46477 0.0
C681 C 0.60357 0.78221 0.44779 0.0
C682 C 0.5802 0.78391 0.43775 0.0
C683 C 0.58834 0.7947 0.42181 0.0
C684 C 0.6198 0.80383 0.41574 0.0
C685 C 0.64319 0.80218 0.42558 0.0
C686 C 0.63518 0.79142 0.44153 0.0
C687 C 0.60459 0.67851 0.51434 0.0
C688 C 0.638 0.69822 0.51892 0.0
C689 C 0.59142 0.68949 0.50241 0.0
C690 C 0.6114 0.72051 0.49505 0.0
C691 C 0.6455 0.73869 0.49848 0.0
C692 C 0.65878 0.72758 0.51037 0.0
C693 C 0.59584 0.73775 0.4873 0.0
C694 C 0.60354 0.74839 0.47128 0.0
C695 C 0.57661 0.74734 0.4966 0.0
C696 C 0.56893 0.73793 0.51376 0.0
C697 C 0.59433 0.75115 0.5253 0.0
C698 C 0.58718 0.74123 0.54139 0.0
C699 C 0.55464 0.71841 0.54609 0.0
C700 C 0.52917 0.70559 0.53471 0.0
C701 C 0.53623 0.71535 0.51859 0.0
H702 H 0.54914 0.71073 0.55854 0.0
H703 H 0.62606 0.81218 0.4034 0.0
H704 H 0.76169 0.54615 0.77654 0.0
H705 H 0.79412 0.51895 0.78155 0.0
H706 H 0.71349 0.44347 0.8097 0.0
H707 H 0.68102 0.47038 0.80476 0.0
H708 H 0.7765 0.50847 0.82403 0.0
H709 H 0.73766 0.40878 0.79178 0.0
H710 H 0.72577 0.377 0.76652 0.0
H711 H 0.82775 0.43674 0.75201 0.0
H712 H 0.84036 0.4688 0.77722 0.0
H713 H 0.87232 0.47551 0.87576 0.0
H714 H 0.82659 0.46345 0.85763 0.0
H715 H 0.89482 0.50021 0.81747 0.0
H716 H 0.94048 0.51059 0.83538 0.0
H717 H 0.83565 0.44891 0.80815 0.0
H718 H 0.87579 0.55151 0.83603 0.0
H719 H 0.89293 0.58943 0.8593 0.0
H720 H 0.79429 0.53438 0.87895 0.0
H721 H 0.77668 0.4958 0.85589 0.0
C722 C 0.75019 0.52267 0.783 0.0
C723 C 0.71938 0.51091 0.79072 0.0
C724 C 0.76857 0.50692 0.78569 0.0
C725 C 0.75629 0.47957 0.79619 0.0
C726 C 0.72325 0.46448 0.8015 0.0
C727 C 0.70476 0.48005 0.79872 0.0
C728 C 0.78034 0.47654 0.8064 0.0
C729 C 0.78887 0.49473 0.82077 0.0
C730 C 0.79753 0.46018 0.80159 0.0
C731 C 0.78986 0.4414 0.78631 0.0
C732 C 0.75747 0.41539 0.78313 0.0
C733 C 0.75062 0.39724 0.76885 0.0
C734 C 0.77591 0.405 0.75762 0.0
C735 C 0.80817 0.4308 0.7607 0.0
C736 C 0.81521 0.44888 0.77501 0.0
C737 C 0.87752 0.48031 0.86303 0.0
C738 C 0.91012 0.49457 0.85706 0.0
C739 C 0.85139 0.47352 0.85269 0.0
C740 C 0.85749 0.48143 0.83627 0.0
C741 C 0.88966 0.49401 0.83011 0.0
C742 C 0.91577 0.50047 0.84042 0.0
C743 C 0.83111 0.48015 0.82598 0.0
C744 C 0.82269 0.46194 0.81156 0.0
C745 C 0.81455 0.49747 0.83041 0.0
C746 C 0.82503 0.52051 0.84434 0.0
C747 C 0.85783 0.5473 0.84539 0.0
C748 C 0.86763 0.56895 0.85852 0.0
C749 C 0.84475 0.56425 0.87062 0.0
C750 C 0.81201 0.53794 0.86958 0.0
C751 C 0.8021 0.51617 0.85649 0.0
H752 H 0.85236 0.58105 0.88077 0.0
H753 H 0.77052 0.39091 0.74657 0.0
H754 H 0.292 0.71881 0.16758 0.0
H755 H 0.34823 0.7647 0.16203 0.0
H756 H 0.30758 0.81587 0.13553 0.0
H757 H 0.25167 0.76992 0.14067 0.0
H758 H 0.37234 0.83892 0.12671 0.0
H759 H 0.30709 0.82183 0.17485 0.0
H760 H 0.27339 0.79026 0.19833 0.0
H761 H 0.35473 0.78072 0.21609 0.0
H762 H 0.38882 0.81207 0.19259 0.0
H763 H 0.41654 0.98763 0.17371 0.0
H764 H 0.39535 0.93931 0.1558 0.0
H765 H 0.47366 0.92174 0.17105 0.0
H766 H 0.49529 0.97019 0.18867 0.0
H767 H 0.40221 0.87907 0.18281 0.0
H768 H 0.47119 0.9202 0.13632 0.0
H769 H 0.49864 0.95765 0.11328 0.0
H770 H 0.40361 0.92923 0.09272 0.0
H771 H 0.37552 0.89203 0.11578 0.0
C772 C 0.29525 0.73929 0.16004 0.0
C773 C 0.26772 0.7415 0.15496 0.0
C774 C 0.3273 0.76525 0.15672 0.0
C775 C 0.33187 0.79397 0.14876 0.0
C776 C 0.30456 0.79397 0.14174 0.0
C777 C 0.27257 0.7678 0.14483 0.0
C778 C 0.36197 0.82633 0.15183 0.0
C779 C 0.3793 0.84776 0.13893 0.0
C780 C 0.37061 0.83782 0.16781 0.0
C781 C 0.35025 0.81874 0.18188 0.0
C782 C 0.31766 0.81275 0.18371 0.0
C783 C 0.29854 0.79501 0.19703 0.0
C784 C 0.31186 0.78336 0.20866 0.0
C785 C 0.3444 0.78963 0.20703 0.0
C786 C 0.36364 0.80739 0.19372 0.0
C787 C 0.42995 0.97424 0.17272 0.0
C788 C 0.45672 0.98169 0.18293 0.0
C789 C 0.41815 0.94698 0.16235 0.0
C790 C 0.43308 0.92717 0.16215 0.0
C791 C 0.4621 0.93701 0.17095 0.0
C792 C 0.47394 0.9642 0.18123 0.0
C793 C 0.41266 0.89193 0.15774 0.0
C794 C 0.39657 0.86998 0.17053 0.0
C795 C 0.40448 0.88085 0.14172 0.0
C796 C 0.42122 0.90346 0.12788 0.0
C797 C 0.4561 0.92219 0.12699 0.0
C798 C 0.47179 0.94333 0.1139 0.0
C799 C 0.45289 0.94586 0.10156 0.0
C800 C 0.41823 0.92724 0.10229 0.0
C801 C 0.40241 0.90609 0.11537 0.0
H802 H 0.46508 0.96221 0.09142 0.0
H803 H 0.297 0.76957 0.21896 0.0
H804 H 0.5379 0.232 0.47198 0.0
H805 H 0.55926 0.29172 0.47008 0.0
H806 H 0.65876 0.30886 0.46418 0.0
H807 H 0.63744 0.24887 0.46599 0.0
H808 H 0.65218 0.33667 0.49075 0.0
H809 H 0.62767 0.33859 0.436 0.0
H810 H 0.59517 0.32032 0.41098 0.0
H811 H 0.52157 0.33895 0.43183 0.0
H812 H 0.55333 0.35686 0.45708 0.0
H813 H 0.69476 0.4977 0.51429 0.0
H814 H 0.69207 0.45718 0.49462 0.0
H815 H 0.58499 0.40628 0.49633 0.0
H816 H 0.58751 0.44679 0.51589 0.0
H817 H 0.60911 0.40443 0.46568 0.0
H818 H 0.62342 0.38284 0.52158 0.0
H819 H 0.65238 0.39849 0.54765 0.0
H820 H 0.74179 0.41333 0.52489 0.0
H821 H 0.7134 0.3982 0.49861 0.0
C822 C 0.56414 0.24833 0.46963 0.0
C823 C 0.58612 0.23593 0.46948 0.0
C824 C 0.57634 0.28251 0.46845 0.0
C825 C 0.61063 0.30471 0.46702 0.0
C826 C 0.63223 0.29208 0.46529 0.0
C827 C 0.62006 0.25791 0.46647 0.0
C828 C 0.62396 0.34014 0.47107 0.0
C829 C 0.64376 0.35198 0.48487 0.0
C830 C 0.61223 0.35968 0.46367 0.0
C831 C 0.59292 0.34901 0.44849 0.0
C832 C 0.60445 0.33859 0.4353 0.0
C833 C 0.58616 0.32833 0.42106 0.0
C834 C 0.55631 0.32846 0.41982 0.0
C835 C 0.54471 0.3389 0.43281 0.0
C836 C 0.5629 0.34919 0.44708 0.0
C837 C 0.67068 0.47801 0.51033 0.0
C838 C 0.64133 0.47486 0.51681 0.0
C839 C 0.66919 0.45522 0.49898 0.0
C840 C 0.63834 0.4287 0.49415 0.0
C841 C 0.60902 0.42675 0.49983 0.0
C842 C 0.61049 0.44969 0.51109 0.0
C843 C 0.63637 0.40006 0.48548 0.0
C844 C 0.61861 0.38956 0.47102 0.0
C845 C 0.64953 0.38131 0.49234 0.0
C846 C 0.66646 0.38982 0.50814 0.0
C847 C 0.64932 0.38964 0.52213 0.0
C848 C 0.66561 0.3984 0.53694 0.0
C849 C 0.69894 0.40701 0.53792 0.0
C850 C 0.716 0.40674 0.5241 0.0
C851 C 0.69983 0.39808 0.50925 0.0
H852 H 0.71153 0.4138 0.54939 0.0
H853 H 0.54219 0.32049 0.40878 0.0
H854 H 0.40366 0.58341 0.84509 0.0
H855 H 0.35629 0.58713 0.83545 0.0
H856 H 0.35376 0.5344 0.79228 0.0
H857 H 0.4012 0.53039 0.80196 0.0
H858 H 0.32561 0.60053 0.80903 0.0
H859 H 0.28542 0.47089 0.79209 0.0
H860 H 0.30168 0.42802 0.79521 0.0
H861 H 0.33283 0.46036 0.84367 0.0
H862 H 0.31676 0.50335 0.84077 0.0
H863 H 0.15242 0.53442 0.8278 0.0
H864 H 0.19702 0.53935 0.81015 0.0
H865 H 0.23819 0.51205 0.84977 0.0
H866 H 0.19471 0.50797 0.86745 0.0
H867 H 0.24069 0.48316 0.82117 0.0
H868 H 0.26485 0.5932 0.8425 0.0
H869 H 0.25113 0.638 0.84456 0.0
H870 H 0.25431 0.64715 0.79308 0.0
H871 H 0.26772 0.60212 0.79076 0.0
C872 C 0.39398 0.57395 0.83323 0.0
C873 C 0.40525 0.5557 0.82448 0.0
C874 C 0.36707 0.57633 0.82765 0.0
C875 C 0.35122 0.56045 0.8133 0.0
C876 C 0.36555 0.54653 0.80344 0.0
C877 C 0.39234 0.54393 0.80907 0.0
C878 C 0.31587 0.55021 0.81153 0.0
C879 C 0.30671 0.57471 0.81102 0.0
C880 C 0.29131 0.51655 0.81428 0.0
C881 C 0.29995 0.49015 0.8162 0.0
C882 C 0.29557 0.46864 0.80341 0.0
C883 C 0.30483 0.44443 0.80513 0.0
C884 C 0.31827 0.44146 0.81963 0.0
C885 C 0.32237 0.46263 0.83246 0.0
C886 C 0.31322 0.48691 0.83079 0.0
C887 C 0.17092 0.52929 0.8327 0.0
C888 C 0.17022 0.52107 0.84907 0.0
C889 C 0.19611 0.53182 0.82256 0.0
C890 C 0.22075 0.52602 0.82869 0.0
C891 C 0.2191 0.51621 0.84478 0.0
C892 C 0.19418 0.51387 0.85489 0.0
C893 C 0.25063 0.53363 0.81928 0.0
C894 C 0.25883 0.50857 0.81783 0.0
C895 C 0.27429 0.5668 0.81503 0.0
C896 C 0.26695 0.59421 0.81645 0.0
C897 C 0.26251 0.60474 0.83164 0.0
C898 C 0.25478 0.63013 0.83285 0.0
C899 C 0.25177 0.64535 0.81895 0.0
C900 C 0.25659 0.63529 0.80383 0.0
C901 C 0.26426 0.60985 0.80256 0.0
H902 H 0.24576 0.66499 0.81991 0.0
H903 H 0.32551 0.42278 0.82092 0.0
H904 H 0.90289 0.35892 0.11992 0.0
H905 H 0.84316 0.32071 0.12132 0.0
H906 H 0.82768 0.40263 0.13258 0.0
H907 H 0.88751 0.44118 0.13093 0.0
H908 H 0.81644 0.35951 0.15779 0.0
H909 H 0.78264 0.35289 0.10378 0.0
H910 H 0.78427 0.34725 0.07437 0.0
H911 H 0.76859 0.24843 0.08017 0.0
H912 H 0.76735 0.25362 0.10964 0.0
H913 H 0.65985 0.24682 0.18838 0.0
H914 H 0.69688 0.28644 0.16822 0.0
H915 H 0.73781 0.2231 0.15822 0.0
H916 H 0.70154 0.18364 0.17878 0.0
H917 H 0.72872 0.2599 0.12966 0.0
H918 H 0.77977 0.27406 0.18221 0.0
H919 H 0.77959 0.27798 0.21179 0.0
H920 H 0.76557 0.3624 0.20813 0.0
H921 H 0.76517 0.3586 0.17848 0.0
C922 C 0.88667 0.36906 0.12187 0.0
C923 C 0.89975 0.40277 0.12582 0.0
C924 C 0.85248 0.34719 0.12258 0.0
C925 C 0.83117 0.35888 0.12726 0.0
C926 C 0.84384 0.39322 0.12901 0.0
C927 C 0.87799 0.4151 0.12824 0.0
C928 C 0.79913 0.33532 0.13482 0.0
C929 C 0.79678 0.33834 0.15149 0.0
C930 C 0.77424 0.30707 0.1267 0.0
C931 C 0.77511 0.30375 0.10897 0.0
C932 C 0.77984 0.33005 0.09881 0.0
C933 C 0.78062 0.32691 0.08211 0.0
C934 C 0.77659 0.29752 0.07541 0.0
C935 C 0.77171 0.27118 0.08538 0.0
C936 C 0.7709 0.27419 0.10209 0.0
C937 C 0.67674 0.24129 0.18192 0.0
C938 C 0.67839 0.21253 0.18543 0.0
C939 C 0.69732 0.26359 0.1702 0.0
C940 C 0.71973 0.25741 0.16175 0.0
C941 C 0.7202 0.22787 0.1645 0.0
C942 C 0.69973 0.20559 0.17634 0.0
C943 C 0.74662 0.28445 0.15243 0.0
C944 C 0.74806 0.28176 0.13568 0.0
C945 C 0.77119 0.313 0.16041 0.0
C946 C 0.77203 0.3158 0.17818 0.0
C947 C 0.77638 0.29328 0.18773 0.0
C948 C 0.77643 0.2955 0.20449 0.0
C949 C 0.77246 0.32035 0.21184 0.0
C950 C 0.76857 0.34311 0.20242 0.0
C951 C 0.76844 0.34095 0.18564 0.0
H952 H 0.77249 0.32204 0.22482 0.0
H953 H 0.77719 0.29513 0.06248 0.0
H954 H 0.10996 0.55402 0.12474 0.0
H955 H 0.10435 0.54052 0.09602 0.0
H956 H 0.05637 0.59841 0.08874 0.0
H957 H 0.06196 0.61202 0.1175 0.0
H958 H 1.02404 0.53404 0.07393 0.0
H959 H 0.13371 0.63189 0.07849 0.0
H960 H 0.19002 0.66355 0.0899 0.0
H961 H 0.21131 0.58831 0.07381 0.0
H962 H 0.15491 0.55596 0.0625 0.0
H963 H 1.02927 0.55121 0.9899 0.0
H964 H 1.03398 0.55977 0.01898 0.0
H965 H 0.10167 0.52177 0.02107 0.0
H966 H 0.09821 0.51487 0.99175 0.0
H967 H 0.1238 0.57267 0.03924 0.0
H968 H 1.01743 0.47523 0.03384 0.0
H969 H 0.96076 0.43995 0.02335 0.0
H970 H 0.93233 0.50842 0.04186 0.0
H971 H 0.98897 0.54437 0.05227 0.0
C972 C 0.0981 0.56371 0.11699 0.0
C973 C 0.08626 0.58393 0.12322 0.0
C974 C 0.09502 0.55609 0.10064 0.0
C975 C 0.08006 0.5686 0.09034 0.0
C976 C 0.06793 0.58854 0.09657 0.0
C977 C 0.07127 0.5964 0.11291 0.0
C978 C 0.07744 0.56125 0.07298 0.0
C979 C 1.04576 0.54273 0.06625 0.0
C980 C 0.1059 0.57162 0.06323 0.0
C981 C 0.14 0.59136 0.06978 0.0
C982 C 0.15032 0.62199 0.07748 0.0
C983 C 0.18226 0.64007 0.08391 0.0
C984 C 0.2042 0.62791 0.08261 0.0
C985 C 0.19428 0.59769 0.07482 0.0
C986 C 0.16234 0.57948 0.06838 0.0
C987 C 1.04498 0.54455 -0.00336 0.0
C988 C 0.06321 0.5322 0.98874 0.0
C989 C 1.04754 0.54925 0.01324 0.0
C990 C 0.06762 0.54072 0.02229 0.0
C991 C 0.08594 0.52841 0.01436 0.0
C992 C 0.08392 0.5244 -0.00233 0.0
C993 C 0.0702 0.54563 0.03997 0.0
C994 C 0.10193 0.56369 0.04683 0.0
C995 C 1.04171 0.53427 0.04991 0.0
C996 C 1.00754 0.51264 0.04372 0.0
C997 C 0.99916 0.48289 0.03558 0.0
C998 C 0.96703 0.46275 0.02966 0.0
C999 C 0.94298 0.47198 0.03191 0.0
C1000 C 0.95099 0.50132 0.04012 0.0
C1001 C 0.9831 0.52157 0.04605 0.0
H1002 H 0.91812 0.45635 0.02732 0.0
H1003 H 0.22891 0.64193 0.08761 0.0
H1004 H 0.60939 1.0193 0.4501 0.0
H1005 H 0.59979 1.0232 0.42139 0.0
H1006 H 0.59829 0.11414 0.43027 0.0
H1007 H 0.60714 0.10968 0.45899 0.0
H1008 H 0.54862 0.07424 0.41143 0.0
H1009 H 0.66622 0.11381 0.41271 0.0
H1010 H 0.71606 0.11039 0.41921 0.0
H1011 H 0.67965 1.02195 0.39057 0.0
H1012 H 0.62938 1.02462 0.38406 0.0
H1013 H 0.56173 0.12959 0.33123 0.0
H1014 H 0.57148 0.12415 0.35957 0.0
H1015 H 0.57369 1.03419 0.34919 0.0
H1016 H 0.56604 0.04058 0.32067 0.0
H1017 H 0.62223 0.07208 0.36873 0.0
H1018 H 0.50513 1.03263 0.36715 0.0
H1019 H 0.45491 1.03544 0.36074 0.0
H1020 H 0.48987 0.12281 0.39006 0.0
H1021 H 0.54051 0.12076 0.39648 0.0
C1022 C 0.60709 0.04009 0.4458 0.0
C1023 C 0.60859 0.06404 0.45655 0.0
C1024 C 0.60175 0.04241 0.42947 0.0
C1025 C 0.59863 0.06915 0.42368 0.0
C1026 C 0.60048 0.09325 0.4345 0.0
C1027 C 0.6054 0.09067 0.45085 0.0
C1028 C 0.59272 0.07169 0.4064 0.0
C1029 C 0.56497 0.07423 0.4021 0.0
C1030 C 0.61352 0.07069 0.39423 0.0
C1031 C 0.64391 0.06926 0.39801 0.0
C1032 C 0.66875 0.09352 0.40788 0.0
C1033 C 0.69709 0.09173 0.41155 0.0
C1034 C 0.70098 0.06592 0.40534 0.0
C1035 C 0.67658 0.04191 0.39539 0.0
C1036 C 0.64818 0.04357 0.39169 0.0
C1037 C 0.56462 0.10882 0.33493 0.0
C1038 C 0.56303 0.08549 0.32365 0.0
C1039 C 0.56977 0.1055 0.35118 0.0
C1040 C 0.57279 0.07847 0.35653 0.0
C1041 C 0.57124 0.05515 0.34533 0.0
C1042 C 0.56648 0.05865 0.32905 0.0
C1043 C 0.57825 0.07488 0.37377 0.0
C1044 C 0.60587 0.07208 0.37806 0.0
C1045 C 0.55729 0.07557 0.38594 0.0
C1046 C 0.52674 0.0767 0.38218 0.0
C1047 C 0.50221 0.05257 0.37214 0.0
C1048 C 0.47365 0.054 0.36852 0.0
C1049 C 0.46924 0.07933 0.37496 0.0
C1050 C 0.49334 0.10322 0.38507 0.0
C1051 C 0.52195 0.10192 0.38872 0.0
H1052 H 0.44712 0.0804 0.37214 0.0
H1053 H 0.72293 0.06457 0.40821 0.0
H1054 H 0.54238 0.48256 0.78742 0.0
H1055 H 0.55636 0.48847 0.75867 0.0
H1056 H 0.6073 0.59553 0.76346 0.0
H1057 H 0.59477 0.58964 0.79219 0.0
H1058 H 0.53906 0.51305 0.73535 0.0
H1059 H 0.66044 0.63264 0.74265 0.0
H1060 H 0.71113 0.65906 0.75931 0.0
H1061 H 0.7038 0.56399 0.76626 0.0
H1062 H 0.65192 0.53676 0.75061 0.0
H1063 H 0.58158 0.58147 0.65663 0.0
H1064 H 0.56951 0.572 0.68549 0.0
H1065 H 0.64964 0.55126 0.69085 0.0
H1066 H 0.66271 0.5625 0.6622 0.0
H1067 H 0.65256 0.5876 0.71399 0.0
H1068 H 0.56341 0.48861 0.69068 0.0
H1069 H 0.51565 0.45582 0.67286 0.0
H1070 H 0.46201 0.49774 0.69558 0.0
H1071 H 0.50964 0.53111 0.7134 0.0
C1072 C 0.55684 0.5073 0.78229 0.0
C1073 C 0.56765 0.53566 0.79193 0.0
C1074 C 0.56482 0.51067 0.76591 0.0
C1075 C 0.58345 0.54246 0.75893 0.0
C1076 C 0.59395 0.57076 0.76862 0.0
C1077 C 0.58649 0.56739 0.78501 0.0
C1078 C 0.5904 0.54613 0.7414 0.0
C1079 C 0.56389 0.52924 0.73066 0.0
C1080 C 0.62274 0.56687 0.73522 0.0
C1081 C 0.65224 0.58273 0.74569 0.0
C1082 C 0.6694 0.61737 0.74802 0.0
C1083 C 0.69813 0.6324 0.75741 0.0
C1084 C 0.71034 0.61308 0.76413 0.0
C1085 C 0.69375 0.57872 0.76152 0.0
C1086 C 0.6645 0.56343 0.75254 0.0
C1087 C 0.5965 0.57488 0.66405 0.0
C1088 C 0.62305 0.57272 0.65734 0.0
C1089 C 0.58949 0.56924 0.68048 0.0
C1090 C 0.60833 0.56039 0.69034 0.0
C1091 C 0.63479 0.55812 0.68353 0.0
C1092 C 0.64225 0.56448 0.6672 0.0
C1093 C 0.60124 0.55443 0.70782 0.0
C1094 C 0.62769 0.57118 0.71859 0.0
C1095 C 0.56893 0.53271 0.71394 0.0
C1096 C 0.54022 0.51258 0.70327 0.0
C1097 C 0.54152 0.491 0.6918 0.0
C1098 C 0.51446 0.47229 0.68171 0.0
C1099 C 0.48584 0.47476 0.68306 0.0
C1100 C 0.4842 0.49588 0.69453 0.0
C1101 C 0.51121 0.51468 0.70464 0.0
H1102 H 0.46492 0.46025 0.67524 0.0
H1103 H 0.73283 0.62477 0.77121 0.0
H1104 H 0.60541 1.03444 0.54733 0.0
H1105 H 0.60607 1.0298 0.5767 0.0
H1106 H 0.59367 0.11549 0.58155 0.0
H1107 H 0.59501 0.12121 0.5523 0.0
H1108 H 0.63275 0.12023 0.60342 0.0
H1109 H 0.52761 1.02648 0.58684 0.0
H1110 H 0.49192 0.97507 0.57163 0.0
H1111 H 0.54048 0.92731 0.59365 0.0
H1112 H 0.5767 0.97857 0.60886 0.0
H1113 H 0.58066 0.09919 0.6851 0.0
H1114 H 0.58367 0.10272 0.65575 0.0
H1115 H 0.59922 1.01868 0.65408 0.0
H1116 H 0.59513 1.01444 0.68348 0.0
H1117 H 0.56057 1.01225 0.63072 0.0
H1118 H 0.66413 0.1051 0.64806 0.0
H1119 H 0.70007 0.15647 0.66323 0.0
H1120 H 0.65477 0.20596 0.63973 0.0
H1121 H 0.61827 0.15475 0.62456 0.0
C1122 C 0.60301 0.05237 0.55468 0.0
C1123 C 0.60001 0.0781 0.54739 0.0
C1124 C 0.60304 0.04954 0.57156 0.0
C1125 C 0.59906 0.07177 0.58165 0.0
C1126 C 0.59669 0.09783 0.57428 0.0
C1127 C 0.59738 0.10106 0.55744 0.0
C1128 C 0.5974 0.06822 0.59979 0.0
C1129 C 0.61656 0.09661 0.60931 0.0
C1130 C 0.57715 0.03738 0.60781 0.0
C1131 C 0.55504 1.00643 0.59887 0.0
C1132 C 0.53075 1.00505 0.58838 0.0
C1133 C 0.51043 0.97594 0.57977 0.0
C1134 C 0.51399 0.94797 0.58164 0.0
C1135 C 0.53778 0.94901 0.59219 0.0
C1136 C 0.55818 0.97806 0.60082 0.0
C1137 C 0.58492 0.08154 0.67852 0.0
C1138 C 0.58787 0.05666 0.6868 0.0
C1139 C 0.58678 0.08365 0.66163 0.0
C1140 C 0.59246 0.06147 0.65244 0.0
C1141 C 0.59493 1.03628 0.6607 0.0
C1142 C 0.59257 1.03384 0.6776 0.0
C1143 C 0.59555 0.06435 0.63431 0.0
C1144 C 0.57675 1.03585 0.62481 0.0
C1145 C 0.61612 0.0951 0.6263 0.0
C1146 C 0.63829 0.12601 0.63528 0.0
C1147 C 0.66172 0.12689 0.64619 0.0
C1148 C 0.68219 0.15598 0.65478 0.0
C1149 C 0.67965 0.18443 0.65247 0.0
C1150 C 0.65669 0.18389 0.64152 0.0
C1151 C 0.63613 0.15486 0.63291 0.0
H1152 H 0.69551 0.20692 0.65914 0.0
H1153 H 0.49826 0.92548 0.57495 0.0
H1154 H 0.63526 0.61484 0.88586 0.0
H1155 H 0.62971 0.61168 0.91512 0.0
H1156 H 0.55134 0.50923 0.9117 0.0
H1157 H 0.55673 0.51243 0.88216 0.0
H1158 H 0.53583 0.5408 0.9344 0.0
H1159 H 0.62947 0.52898 0.92369 0.0
H1160 H 0.68339 0.5423 0.91185 0.0
H1161 H 0.73074 0.63654 0.93617 0.0
H1162 H 0.67697 0.624 0.94799 0.0
H1163 H 0.54711 0.50914 0.01887 0.0
H1164 H 0.54828 0.50757 0.98935 0.0
H1165 H 0.61683 0.61337 0.98815 0.0
H1166 H 0.61537 0.61517 0.01763 0.0
H1167 H 0.63601 0.57636 0.96792 0.0
H1168 H 0.53955 0.58629 0.97823 0.0
H1169 H 0.48497 0.57007 0.99023 0.0
H1170 H 0.44231 0.47495 0.96686 0.0
H1171 H 0.4968 0.49043 0.95491 0.0
C1172 C 0.61679 0.59158 0.89128 0.0
C1173 C 0.59663 0.56382 0.88159 0.0
C1174 C 0.61372 0.58974 0.90811 0.0
C1175 C 0.59044 0.56005 0.91585 0.0
C1176 C 0.56962 0.53244 0.90616 0.0
C1177 C 0.57278 0.53425 0.88924 0.0
C1178 C 0.58827 0.55812 0.93397 0.0
C1179 C 0.55769 0.54809 0.94168 0.0
C1180 C 0.6167 0.56792 0.94371 0.0
C1181 C 0.64911 0.57568 0.9366 0.0
C1182 C 0.65132 0.55267 0.92641 0.0
C1183 C 0.68187 0.56006 0.91972 0.0
C1184 C 0.71046 0.59029 0.92322 0.0
C1185 C 0.70856 0.61316 0.93345 0.0
C1186 C 0.67805 0.60591 0.94016 0.0
C1187 C 0.56246 0.5321 0.01233 0.0
C1188 C 0.58111 0.56231 0.02073 0.0
C1189 C 0.56298 0.53119 -0.0046 0.0
C1190 C 0.58257 0.56037 0.98638 0.0
C1191 C 0.60147 0.59048 -0.00526 0.0
C1192 C 0.60047 0.59151 0.01164 0.0
C1193 C 0.58374 0.55953 0.96829 0.0
C1194 C 0.61416 0.56899 0.96061 0.0
C1195 C 0.55509 0.54876 0.95862 0.0
C1196 C 0.52235 0.53937 0.96584 0.0
C1197 C 0.51861 0.56178 0.97579 0.0
C1198 C 0.48767 0.55275 0.98255 0.0
C1199 C 0.46021 0.52146 0.97935 0.0
C1200 C 0.46362 0.49916 0.96935 0.0
C1201 C 0.49453 0.50805 0.96257 0.0
H1202 H 0.43627 0.51452 0.98459 0.0
H1203 H 0.73409 0.59595 0.91804 0.0
H1204 H 0.09294 0.59925 0.21142 0.0
H1205 H 0.09791 0.60637 0.2408 0.0
H1206 H 1.03698 0.50011 0.24702 0.0
H1207 H 1.03261 0.49295 0.2178 0.0
H1208 H 1.01882 0.53527 0.26795 0.0
H1209 H 0.12004 0.53761 0.25129 0.0
H1210 H 0.17191 0.5597 0.23555 0.0
H1211 H 0.2079 0.65623 0.25663 0.0
H1212 H 0.15602 0.63479 0.27235 0.0
H1213 H 1.04274 0.5115 0.34974 0.0
H1214 H 1.0392 0.51045 0.32041 0.0
H1215 H 0.11909 0.61255 0.31838 0.0
H1216 H 0.12358 0.61311 0.34776 0.0
H1217 H 0.1282 0.58395 0.29489 0.0
H1218 H 1.03145 0.5853 0.31192 0.0
H1219 H 0.97951 0.56798 0.32695 0.0
H1220 H 0.93474 0.47161 0.30473 0.0
H1221 H 0.98658 0.4882 0.28971 0.0
C1222 C 0.08075 0.57746 0.21904 0.0
C1223 C 0.06269 0.54552 0.21217 0.0
C1224 C 0.08357 0.58151 0.23589 0.0
C1225 C 0.06804 0.55374 0.24629 0.0
C1226 C 1.04927 0.52198 0.23939 0.0
C1227 C 1.04684 0.51792 0.22261 0.0
C1228 C 0.07146 0.55736 0.2643 0.0
C1229 C 1.04272 0.54562 0.27384 0.0
C1230 C 0.10266 0.57196 0.27212 0.0
C1231 C 0.13403 0.58468 0.26287 0.0
C1232 C 0.13893 0.5636 0.25249 0.0
C1233 C 0.16834 0.57599 0.24358 0.0
C1234 C 0.19315 0.60937 0.24505 0.0
C1235 C 0.18864 0.63039 0.25549 0.0
C1236 C 0.15926 0.61812 0.26441 0.0
C1237 C 0.05947 0.53383 0.34308 0.0
C1238 C 0.08332 0.56245 0.35125 0.0
C1239 C 0.05732 0.5333 0.32619 0.0
C1240 C 0.07832 0.56168 0.31688 0.0
C1241 C 0.10242 0.59022 0.32505 0.0
C1242 C 0.10498 0.59055 0.34195 0.0
C1243 C 0.07538 0.56138 0.29873 0.0
C1244 C 0.10422 0.57374 0.28911 0.0
C1245 C 1.04426 0.54804 0.2908 0.0
C1246 C 1.01302 0.53791 0.2998 0.0
C1247 C 1.01061 0.56034 0.31032 0.0
C1248 C 0.98117 0.55066 0.31883 0.0
C1249 C 0.95387 0.51868 0.31683 0.0
C1250 C 0.95593 0.49635 0.30628 0.0
C1251 C 0.98532 0.50589 0.29775 0.0
H1252 H 0.9311 0.51124 0.32342 0.0
H1253 H 0.21588 0.61892 0.23814 0.0
loop_
_geom_bond_atom_site_label_1
_geom_bond_atom_site_label_2
_geom_bond_distance
_geom_bond_site_symmetry_2
_ccdc_geom_bond_type
Tb0 C2 2.809 . S
Tb0 O20 2.484 . S
Tb0 O21 2.440 . S
Tb0 O22 2.658 . S
Tb0 O23 2.409 . S
Tb0 O24 2.378 . S
Tb0 O28 2.325 . S
Tb0 O31 2.341 1_455 S
Tb1 C11 2.809 1_455 S
Tb1 O22 2.325 . S
Tb1 O25 2.341 . S
Tb1 O26 2.484 1_455 S
Tb1 O27 2.440 1_455 S
Tb1 O28 2.658 . S
Tb1 O29 2.409 . S
Tb1 O30 2.378 1_455 S
C2 Tb0 2.809 . S
C2 C3 1.514 . S
C2 O20 1.248 . S
C2 O21 1.266 . S
C3 C2 1.514 . S
C3 C4 1.359 . S
C3 C8 1.348 . S
C4 C3 1.359 . S
C4 C5 1.380 . S
C4 H32 0.929 . S
C5 C4 1.380 . S
C5 C6 1.347 . S
C5 H33 0.931 . S
C6 C5 1.347 . S
C6 C7 1.369 . S
C7 C6 1.369 . S
C7 C8 1.408 . S
C7 H34 0.930 . S
C8 C3 1.348 . S
C8 C7 1.408 . S
C8 H35 0.930 . S
C9 O22 1.281 . S
C9 O23 1.254 . S
C10 O24 1.236 . S
C10 O25 1.266 . S
C11 Tb1 2.809 1_655 S
C11 C12 1.514 . S
C11 O26 1.248 . S
C11 O27 1.266 . S
C12 C11 1.514 . S
C12 C13 1.359 . S
C12 C17 1.348 . S
C13 C12 1.359 . S
C13 C14 1.380 . S
C13 H36 0.929 . S
C14 C13 1.380 . S
C14 C15 1.347 . S
C14 H37 0.931 . S
C15 C14 1.347 . S
C15 C16 1.369 . S
C16 C15 1.369 . S
C16 C17 1.408 . S
C16 H38 0.930 . S
C17 C12 1.348 . S
C17 C16 1.408 . S
C17 H39 0.930 . S
C18 O28 1.281 . S
C18 O29 1.254 . S
C19 O30 1.236 . S
C19 O31 1.266 . S
O20 Tb0 2.484 . S
O20 C2 1.248 . S
O21 Tb0 2.440 . S
O21 C2 1.266 . S
O22 Tb0 2.658 . S
O22 Tb1 2.325 . S
O22 C9 1.281 . S
O23 Tb0 2.409 . S
O23 C9 1.254 . S
O24 Tb0 2.378 . S
O24 C10 1.236 . S
O25 Tb1 2.341 . S
O25 C10 1.266 . S
O26 Tb1 2.484 1_655 S
O26 C11 1.248 . S
O27 Tb1 2.440 1_655 S
O27 C11 1.266 . S
O28 Tb0 2.325 . S
O28 Tb1 2.658 . S
O28 C18 1.281 . S
O29 Tb1 2.409 . S
O29 C18 1.254 . S
O30 Tb1 2.378 1_655 S
O30 C19 1.236 . S
O31 Tb0 2.341 1_655 S
O31 C19 1.266 . S
H32 C4 0.929 . S
H33 C5 0.931 . S
H34 C7 0.930 . S
H35 C8 0.930 . S
H36 C13 0.929 . S
H37 C14 0.931 . S
H38 C16 0.930 . S
H39 C17 0.930 . S
Tb40 C42 2.809 1_545 S
Tb40 O60 2.484 1_545 S
Tb40 O61 2.440 1_545 S
Tb40 O62 2.658 . S
Tb40 O63 2.409 . S
Tb40 O64 2.378 1_545 S
Tb40 O68 2.325 . S
Tb40 O71 2.341 . S
Tb41 C51 2.809 . S
Tb41 O62 2.325 . S
Tb41 O65 2.341 1_545 S
Tb41 O66 2.484 . S
Tb41 O67 2.440 . S
Tb41 O68 2.658 . S
Tb41 O69 2.409 . S
Tb41 O70 2.378 . S
C42 Tb40 2.809 1_565 S
C42 C43 1.514 . S
C42 O60 1.248 . S
C42 O61 1.266 . S
C43 C42 1.514 . S
C43 C44 1.359 . S
C43 C48 1.348 . S
C44 C43 1.359 . S
C44 C45 1.380 . S
C44 H72 0.929 . S
C45 C44 1.380 . S
C45 C46 1.347 . S
C45 H73 0.931 . S
C46 C45 1.347 . S
C46 C47 1.369 . S
C47 C46 1.369 . S
C47 C48 1.408 . S
C47 H74 0.930 . S
C48 C43 1.348 . S
C48 C47 1.408 . S
C48 H75 0.930 . S
C49 O62 1.281 . S
C49 O63 1.254 . S
C50 O64 1.236 . S
C50 O65 1.266 . S
C51 Tb41 2.809 . S
C51 C52 1.514 . S
C51 O66 1.248 . S
C51 O67 1.266 . S
C52 C51 1.514 . S
C52 C53 1.359 . S
C52 C57 1.348 . S
C53 C52 1.359 . S
C53 C54 1.380 . S
C53 H76 0.929 . S
C54 C53 1.380 . S
C54 C55 1.347 . S
C54 H77 0.931 . S
C55 C54 1.347 . S
C55 C56 1.369 . S
C56 C55 1.369 . S
C56 C57 1.408 . S
C56 H78 0.930 . S
C57 C52 1.348 . S
C57 C56 1.408 . S
C57 H79 0.930 . S
C58 O68 1.281 . S
C58 O69 1.254 . S
C59 O70 1.236 . S
C59 O71 1.266 . S
O60 Tb40 2.484 1_565 S
O60 C42 1.248 . S
O61 Tb40 2.440 1_565 S
O61 C42 1.266 . S
O62 Tb40 2.658 . S
O62 Tb41 2.325 . S
O62 C49 1.281 . S
O63 Tb40 2.409 . S
O63 C49 1.254 . S
O64 Tb40 2.378 1_565 S
O64 C50 1.236 . S
O65 Tb41 2.341 1_565 S
O65 C50 1.266 . S
O66 Tb41 2.484 . S
O66 C51 1.248 . S
O67 Tb41 2.440 . S
O67 C51 1.266 . S
O68 Tb40 2.325 . S
O68 Tb41 2.658 . S
O68 C58 1.281 . S
O69 Tb41 2.409 . S
O69 C58 1.254 . S
O70 Tb41 2.378 . S
O70 C59 1.236 . S
O71 Tb40 2.341 . S
O71 C59 1.266 . S
H72 C44 0.929 . S
H73 C45 0.931 . S
H74 C47 0.930 . S
H75 C48 0.930 . S
H76 C53 0.929 . S
H77 C54 0.931 . S
H78 C56 0.930 . S
H79 C57 0.930 . S
Tb80 C82 2.809 . S
Tb80 O100 2.484 . S
Tb80 O101 2.440 . S
Tb80 O102 2.658 . S
Tb80 O103 2.409 . S
Tb80 O104 2.378 . S
Tb80 O108 2.325 . S
Tb80 O111 2.341 . S
Tb81 C91 2.809 . S
Tb81 O102 2.325 . S
Tb81 O105 2.341 . S
Tb81 O106 2.484 . S
Tb81 O107 2.440 . S
Tb81 O108 2.658 . S
Tb81 O109 2.409 . S
Tb81 O110 2.378 . S
C82 Tb80 2.809 . S
C82 C83 1.514 . S
C82 O100 1.248 . S
C82 O101 1.266 . S
C83 C82 1.514 . S
C83 C84 1.359 . S
C83 C88 1.348 . S
C84 C83 1.359 . S
C84 C85 1.380 . S
C84 H112 0.929 . S
C85 C84 1.380 . S
C85 C86 1.347 . S
C85 H113 0.931 . S
C86 C85 1.347 . S
C86 C87 1.369 . S
C87 C86 1.369 . S
C87 C88 1.408 . S
C87 H114 0.930 . S
C88 C83 1.348 . S
C88 C87 1.408 . S
C88 H115 0.930 . S
C89 O102 1.281 . S
C89 O103 1.254 . S
C90 O104 1.236 . S
C90 O105 1.266 . S
C91 Tb81 2.809 . S
C91 C92 1.514 . S
C91 O106 1.248 . S
C91 O107 1.266 . S
C92 C91 1.514 . S
C92 C93 1.359 . S
C92 C97 1.348 . S
C93 C92 1.359 . S
C93 C94 1.380 . S
C93 H116 0.929 . S
C94 C93 1.380 . S
C94 C95 1.347 . S
C94 H117 0.931 . S
C95 C94 1.347 . S
C95 C96 1.369 . S
C96 C95 1.369 . S
C96 C97 1.408 . S
C96 H118 0.930 . S
C97 C92 1.348 . S
C97 C96 1.408 . S
C97 H119 0.930 . S
C98 O108 1.281 . S
C98 O109 1.254 . S
C99 O110 1.236 . S
C99 O111 1.266 . S
O100 Tb80 2.484 . S
O100 C82 1.248 . S
O101 Tb80 2.440 . S
O101 C82 1.266 . S
O102 Tb80 2.658 . S
O102 Tb81 2.325 . S
O102 C89 1.281 . S
O103 Tb80 2.409 . S
O103 C89 1.254 . S
O104 Tb80 2.378 . S
O104 C90 1.236 . S
O105 Tb81 2.341 . S
O105 C90 1.266 . S
O106 Tb81 2.484 . S
O106 C91 1.248 . S
O107 Tb81 2.440 . S
O107 C91 1.266 . S
O108 Tb80 2.325 . S
O108 Tb81 2.658 . S
O108 C98 1.281 . S
O109 Tb81 2.409 . S
O109 C98 1.254 . S
O110 Tb81 2.378 . S
O110 C99 1.236 . S
O111 Tb80 2.341 . S
O111 C99 1.266 . S
H112 C84 0.929 . S
H113 C85 0.931 . S
H114 C87 0.930 . S
H115 C88 0.930 . S
H116 C93 0.929 . S
H117 C94 0.931 . S
H118 C96 0.930 . S
H119 C97 0.930 . S
C120 C121 1.386 . S
C120 C122 1.397 . S
C120 H144 0.931 . S
C121 C120 1.386 . S
C121 C125 1.397 . S
C122 C120 1.397 . S
C122 C123 1.384 . S
C122 H145 0.930 . S
C123 C122 1.384 . S
C123 C124 1.377 . S
C123 C126 1.481 . S
C124 C123 1.377 . S
C124 C125 1.389 . S
C124 H146 0.929 . S
C125 C121 1.397 . S
C125 C124 1.389 . S
C125 H147 0.939 . S
C126 C123 1.481 . S
C126 C127 1.387 . S
C126 C131 1.390 . S
C127 C126 1.387 . S
C127 C128 1.401 . S
C127 H148 0.930 . S
C128 C127 1.401 . S
C128 C129 1.376 . S
C128 C137 1.511 . S
C129 C128 1.376 . S
C129 C130 1.392 . S
C129 H150 0.931 . S
C130 C129 1.392 . S
C130 C131 1.361 . S
C130 C132 1.500 1_545 S
C131 C126 1.390 . S
C131 C130 1.361 . S
C131 H149 0.931 . S
C132 C130 1.500 1_565 S
C132 C133 1.371 1_565 S
C132 C134 1.365 . S
C133 C132 1.371 1_545 S
C133 C143 1.386 1_545 S
C133 H151 0.931 . S
C134 C132 1.365 . S
C134 C135 1.409 . S
C134 H152 0.929 . S
C135 C134 1.409 . S
C135 C136 1.380 . S
C135 H153 0.930 . S
C136 C135 1.380 . S
C136 C143 1.357 . S
C137 C128 1.511 . S
C137 C138 1.341 . S
C137 C139 1.371 . S
C138 C137 1.341 . S
C138 C142 1.394 . S
C138 H154 0.930 . S
C139 C137 1.371 . S
C139 C140 1.392 . S
C139 H155 0.931 . S
C140 C139 1.392 . S
C140 C141 1.331 . S
C140 H158 0.932 . S
C141 C140 1.331 . S
C141 C142 1.336 . S
C142 C138 1.394 . S
C142 C141 1.336 . S
C142 H157 0.929 . S
C143 C133 1.386 1_565 S
C143 C136 1.357 . S
C143 H156 0.928 . S
H144 C120 0.931 . S
H145 C122 0.930 . S
H146 C124 0.929 . S
H147 C125 0.939 . S
H148 C127 0.930 . S
H149 C131 0.931 . S
H150 C129 0.931 . S
H151 C133 0.931 . S
H152 C134 0.929 . S
H153 C135 0.930 . S
H154 C138 0.930 . S
H155 C139 0.931 . S
H156 C143 0.928 . S
H157 C142 0.929 . S
H158 C140 0.932 . S
C159 C160 1.386 . S
C159 C161 1.397 . S
C159 H183 0.931 . S
C160 C159 1.386 . S
C160 C164 1.397 . S
C161 C159 1.397 . S
C161 C162 1.384 . S
C161 H184 0.930 . S
C162 C161 1.384 . S
C162 C163 1.377 . S
C162 C165 1.481 . S
C163 C162 1.377 . S
C163 C164 1.389 . S
C163 H185 0.929 . S
C164 C160 1.397 . S
C164 C163 1.389 . S
C164 H186 0.931 . S
C165 C162 1.481 . S
C165 C166 1.387 . S
C165 C170 1.390 . S
C166 C165 1.387 . S
C166 C167 1.401 . S
C166 H187 0.930 . S
C167 C166 1.401 . S
C167 C168 1.376 . S
C167 C176 1.511 . S
C168 C167 1.376 . S
C168 C169 1.392 . S
C168 H189 0.931 . S
C169 C168 1.392 . S
C169 C170 1.361 . S
C169 C171 1.500 . S
C170 C165 1.390 . S
C170 C169 1.361 . S
C170 H188 0.931 . S
C171 C169 1.500 . S
C171 C172 1.371 . S
C171 C173 1.365 . S
C172 C171 1.371 . S
C172 C182 1.386 . S
C172 H190 0.931 . S
C173 C171 1.365 . S
C173 C174 1.409 . S
C173 H191 0.929 . S
C174 C173 1.409 . S
C174 C175 1.380 . S
C174 H192 0.930 . S
C175 C174 1.380 . S
C175 C182 1.357 . S
C176 C167 1.511 . S
C176 C177 1.341 . S
C176 C178 1.371 . S
C177 C176 1.341 . S
C177 C181 1.394 . S
C177 H193 0.930 . S
C178 C176 1.371 . S
C178 C179 1.392 . S
C178 H194 0.931 . S
C179 C178 1.392 . S
C179 C180 1.331 . S
C179 H197 0.932 . S
C180 C179 1.331 . S
C180 C181 1.336 . S
C181 C177 1.394 . S
C181 C180 1.336 . S
C181 H196 0.929 . S
C182 C172 1.386 . S
C182 C175 1.357 . S
C182 H195 0.928 . S
H183 C159 0.931 . S
H184 C161 0.930 . S
H185 C163 0.929 . S
H186 C164 0.931 . S
H187 C166 0.930 . S
H188 C170 0.931 . S
H189 C168 0.931 . S
H190 C172 0.931 . S
H191 C173 0.929 . S
H192 C174 0.930 . S
H193 C177 0.930 . S
H194 C178 0.931 . S
H195 C182 0.928 . S
H196 C181 0.929 . S
H197 C179 0.932 . S
C198 C199 1.386 . S
C198 C200 1.397 . S
C198 H222 0.931 . S
C199 C198 1.386 . S
C199 C203 1.397 1_455 S
C200 C198 1.397 . S
C200 C201 1.384 . S
C200 H223 0.930 . S
C201 C200 1.384 . S
C201 C202 1.377 1_455 S
C201 C204 1.481 . S
C202 C201 1.377 1_655 S
C202 C203 1.389 . S
C202 H224 0.929 . S
C203 C199 1.397 1_655 S
C203 C202 1.389 . S
C203 H225 0.931 . S
C204 C201 1.481 . S
C204 C205 1.387 . S
C204 C209 1.390 1_455 S
C205 C204 1.387 . S
C205 C206 1.401 . S
C205 H226 0.930 . S
C206 C205 1.401 . S
C206 C207 1.376 . S
C206 C215 1.511 . S
C207 C206 1.376 . S
C207 C208 1.392 1_455 S
C207 H228 0.931 . S
C208 C207 1.392 1_655 S
C208 C209 1.361 . S
C208 C210 1.500 . S
C209 C204 1.390 1_655 S
C209 C208 1.361 . S
C209 H227 0.931 . S
C210 C208 1.500 . S
C210 C211 1.371 . S
C210 C212 1.365 . S
C211 C210 1.371 . S
C211 C221 1.386 . S
C211 H229 0.931 . S
C212 C210 1.365 . S
C212 C213 1.409 . S
C212 H230 0.929 . S
C213 C212 1.409 . S
C213 C214 1.380 . S
C213 H231 0.930 . S
C214 C213 1.380 . S
C214 C221 1.357 . S
C215 C206 1.511 . S
C215 C216 1.341 . S
C215 C217 1.371 . S
C216 C215 1.341 . S
C216 C220 1.394 . S
C216 H232 0.930 . S
C217 C215 1.371 . S
C217 C218 1.392 . S
C217 H233 0.931 . S
C218 C217 1.392 . S
C218 C219 1.331 . S
C218 H236 0.932 . S
C219 C218 1.331 . S
C219 C220 1.336 . S
C220 C216 1.394 . S
C220 C219 1.336 . S
C220 H235 0.929 . S
C221 C211 1.386 . S
C221 C214 1.357 . S
C221 H234 0.928 . S
H222 C198 0.931 . S
H223 C200 0.930 . S
H224 C202 0.929 . S
H225 C203 0.931 . S
H226 C205 0.930 . S
H227 C209 0.931 . S
H228 C207 0.931 . S
H229 C211 0.931 . S
H230 C212 0.929 . S
H231 C213 0.930 . S
H232 C216 0.930 . S
H233 C217 0.931 . S
H234 C221 0.928 . S
H235 C220 0.929 . S
H236 C218 0.932 . S
C237 C238 1.386 . S
C237 C239 1.397 . S
C237 H261 0.931 1_455 S
C238 C237 1.386 . S
C238 C242 1.397 . S
C239 C237 1.397 . S
C239 C240 1.384 . S
C239 H262 0.930 1_455 S
C240 C239 1.384 . S
C240 C241 1.377 . S
C240 C243 1.481 . S
C241 C240 1.377 . S
C241 C242 1.389 . S
C241 H263 0.929 . S
C242 C238 1.397 . S
C242 C241 1.389 . S
C242 H264 0.931 . S
C243 C240 1.481 . S
C243 C244 1.387 . S
C243 C248 1.390 . S
C244 C243 1.387 . S
C244 C245 1.401 . S
C244 H265 0.930 . S
C245 C244 1.401 . S
C245 C246 1.376 . S
C245 C254 1.511 1_455 S
C246 C245 1.376 . S
C246 C247 1.392 . S
C246 H267 0.931 . S
C247 C246 1.392 . S
C247 C248 1.361 . S
C247 C249 1.500 . S
C248 C243 1.390 . S
C248 C247 1.361 . S
C248 H266 0.931 . S
C249 C247 1.500 . S
C249 C250 1.371 . S
C249 C251 1.365 . S
C250 C249 1.371 . S
C250 C260 1.386 . S
C250 H268 0.931 . S
C251 C249 1.365 . S
C251 C252 1.409 . S
C251 H269 0.929 . S
C252 C251 1.409 . S
C252 C253 1.380 . S
C252 H270 0.930 . S
C253 C252 1.380 . S
C253 C260 1.357 . S
C254 C245 1.511 1_655 S
C254 C255 1.341 . S
C254 C256 1.373 . S
C255 C254 1.341 . S
C255 C259 1.394 . S
C255 H271 0.930 . S
C256 C254 1.373 . S
C256 C257 1.395 . S
C256 H272 0.927 1_655 S
C257 C256 1.395 . S
C257 C258 1.331 . S
C257 H275 0.932 . S
C258 C257 1.331 . S
C258 C259 1.336 . S
C259 C255 1.394 . S
C259 C258 1.336 . S
C259 H274 0.929 . S
C260 C250 1.386 . S
C260 C253 1.357 . S
C260 H273 0.928 . S
H261 C237 0.931 1_655 S
H262 C239 0.930 1_655 S
H263 C241 0.929 . S
H264 C242 0.931 . S
H265 C244 0.930 . S
H266 C248 0.931 . S
H267 C246 0.931 . S
H268 C250 0.931 . S
H269 C251 0.929 . S
H270 C252 0.930 . S
H271 C255 0.930 . S
H272 C256 0.927 1_455 S
H273 C260 0.928 . S
H274 C259 0.929 . S
H275 C257 0.932 . S
C276 C277 1.386 1_565 S
C276 C278 1.397 . S
C276 H300 0.931 . S
C277 C276 1.386 1_545 S
C277 C281 1.397 . S
C278 C276 1.397 . S
C278 C279 1.384 1_565 S
C278 H301 0.930 . S
C279 C278 1.384 1_545 S
C279 C280 1.377 . S
C279 C282 1.481 . S
C280 C279 1.377 . S
C280 C281 1.389 . S
C280 H302 0.929 . S
C281 C277 1.397 . S
C281 C280 1.389 . S
C281 H303 0.931 . S
C282 C279 1.481 . S
C282 C283 1.387 1_545 S
C282 C287 1.390 . S
C283 C282 1.387 1_565 S
C283 C284 1.401 . S
C283 H304 0.930 . S
C284 C283 1.401 . S
C284 C285 1.376 1_565 S
C284 C293 1.511 . S
C285 C284 1.376 1_545 S
C285 C286 1.392 . S
C285 H306 0.931 . S
C286 C285 1.392 . S
C286 C287 1.361 . S
C286 C288 1.500 . S
C287 C282 1.390 . S
C287 C286 1.361 . S
C287 H305 0.931 . S
C288 C286 1.500 . S
C288 C289 1.371 . S
C288 C290 1.365 . S
C289 C288 1.371 . S
C289 C299 1.386 . S
C289 H307 0.931 . S
C290 C288 1.365 . S
C290 C291 1.409 . S
C290 H308 0.929 . S
C291 C290 1.409 . S
C291 C292 1.380 . S
C291 H309 0.930 . S
C292 C291 1.380 . S
C292 C299 1.357 . S
C293 C284 1.511 . S
C293 C294 1.341 . S
C293 C295 1.371 . S
C294 C293 1.341 . S
C294 C298 1.394 . S
C294 H310 0.930 . S
C295 C293 1.371 . S
C295 C296 1.392 . S
C295 H311 0.931 . S
C296 C295 1.392 . S
C296 C297 1.331 . S
C296 H314 0.932 . S
C297 C296 1.331 . S
C297 C298 1.336 . S
C298 C294 1.394 . S
C298 C297 1.336 . S
C298 H313 0.929 . S
C299 C289 1.386 . S
C299 C292 1.357 . S
C299 H312 0.928 . S
H300 C276 0.931 . S
H301 C278 0.930 . S
H302 C280 0.929 . S
H303 C281 0.931 . S
H304 C283 0.930 . S
H305 C287 0.931 . S
H306 C285 0.931 . S
H307 C289 0.931 . S
H308 C290 0.929 . S
H309 C291 0.930 . S
H310 C294 0.930 . S
H311 C295 0.931 . S
H312 C299 0.928 . S
H313 C298 0.929 . S
H314 C296 0.932 . S
C315 C316 1.386 . S
C315 C317 1.397 . S
C315 H339 0.931 . S
C316 C315 1.386 . S
C316 C320 1.397 . S
C317 C315 1.397 . S
C317 C318 1.384 . S
C317 H340 0.930 . S
C318 C317 1.384 . S
C318 C319 1.377 . S
C318 C321 1.481 . S
C319 C318 1.377 . S
C319 C320 1.389 . S
C319 H341 0.929 . S
C320 C316 1.397 . S
C320 C319 1.389 . S
C320 H342 0.931 . S
C321 C318 1.481 . S
C321 C322 1.387 . S
C321 C326 1.390 . S
C322 C321 1.387 . S
C322 C323 1.401 . S
C322 H343 0.930 . S
C323 C322 1.401 . S
C323 C324 1.376 . S
C323 C332 1.511 . S
C324 C323 1.376 . S
C324 C325 1.392 . S
C324 H345 0.931 . S
C325 C324 1.392 . S
C325 C326 1.361 . S
C325 C327 1.500 . S
C326 C321 1.390 . S
C326 C325 1.361 . S
C326 H344 0.931 . S
C327 C325 1.500 . S
C327 C328 1.371 . S
C327 C329 1.365 . S
C328 C327 1.371 . S
C328 C338 1.386 . S
C328 H346 0.931 . S
C329 C327 1.365 . S
C329 C330 1.409 . S
C329 H347 0.929 . S
C330 C329 1.409 . S
C330 C331 1.380 . S
C330 H348 0.930 . S
C331 C330 1.380 . S
C331 C338 1.357 . S
C332 C323 1.511 . S
C332 C333 1.341 . S
C332 C334 1.371 . S
C333 C332 1.341 . S
C333 C337 1.394 . S
C333 H349 0.930 . S
C334 C332 1.371 . S
C334 C335 1.392 . S
C334 H350 0.931 . S
C335 C334 1.392 . S
C335 C336 1.331 . S
C335 H353 0.932 . S
C336 C335 1.331 . S
C336 C337 1.336 . S
C337 C333 1.394 . S
C337 C336 1.336 . S
C337 H352 0.929 . S
C338 C328 1.386 . S
C338 C331 1.357 . S
C338 H351 0.928 . S
H339 C315 0.931 . S
H340 C317 0.930 . S
H341 C319 0.929 . S
H342 C320 0.931 . S
H343 C322 0.930 . S
H344 C326 0.931 . S
H345 C324 0.931 . S
H346 C328 0.931 . S
H347 C329 0.929 . S
H348 C330 0.930 . S
H349 C333 0.930 . S
H350 C334 0.931 . S
H351 C338 0.928 . S
H352 C337 0.929 . S
H353 C335 0.932 . S
H354 C372 0.951 . S
H355 C374 0.951 . S
H356 C376 0.950 . S
H357 C377 0.950 . S
H358 C379 0.950 . S
H359 C382 0.950 . S
H360 C383 0.950 . S
H361 C385 0.950 . S
H362 C386 0.950 . S
H363 C387 0.951 . S
H364 C389 0.951 . S
H365 C391 0.950 . S
H366 C392 0.950 . S
H367 C394 0.950 . S
H368 C397 0.950 . S
H369 C398 0.950 . S
H370 C400 0.950 . S
H371 C401 0.950 . S
C372 H354 0.951 . S
C372 C373 1.366 . S
C372 C374 1.388 . S
C373 C372 1.366 . S
C373 C377 1.385 . S
C374 H355 0.951 . S
C374 C372 1.388 . S
C374 C375 1.366 . S
C375 C374 1.366 . S
C375 C376 1.414 . S
C375 C378 1.499 . S
C376 H356 0.950 . S
C376 C375 1.414 . S
C376 C377 1.374 . S
C377 H357 0.950 . S
C377 C373 1.385 . S
C377 C376 1.374 . S
C378 C375 1.499 . S
C378 C379 1.373 . S
C378 C380 1.389 . S
C379 H358 0.950 . S
C379 C378 1.373 . S
C379 C395 1.377 . S
C380 C378 1.389 . S
C380 C381 1.524 . S
C380 C394 1.377 . S
C381 C380 1.524 . S
C381 C382 1.397 . S
C381 C386 1.363 . S
C382 H359 0.950 . S
C382 C381 1.397 . S
C382 C383 1.334 . S
C383 H360 0.950 . S
C383 C382 1.334 . S
C383 C384 1.287 . S
C384 C383 1.287 . S
C384 C385 1.524 . S
C384 H403 0.913 . S
C385 H361 0.950 . S
C385 C384 1.524 . S
C385 C386 1.415 . S
C386 H362 0.950 . S
C386 C381 1.363 . S
C386 C385 1.415 . S
C387 H363 0.951 . S
C387 C388 1.366 . S
C387 C389 1.388 . S
C388 C387 1.366 . S
C388 C392 1.385 . S
C389 H364 0.951 . S
C389 C387 1.388 . S
C389 C390 1.366 . S
C390 C389 1.366 . S
C390 C391 1.414 . S
C390 C393 1.499 . S
C391 H365 0.950 . S
C391 C390 1.414 . S
C391 C392 1.374 . S
C392 H366 0.950 . S
C392 C388 1.385 . S
C392 C391 1.374 . S
C393 C390 1.499 . S
C393 C394 1.373 . S
C393 C395 1.389 . S
C394 H367 0.950 . S
C394 C380 1.377 . S
C394 C393 1.373 . S
C395 C379 1.377 . S
C395 C393 1.389 . S
C395 C396 1.524 . S
C396 C395 1.524 . S
C396 C397 1.397 . S
C396 C401 1.363 . S
C397 H368 0.950 . S
C397 C396 1.397 . S
C397 C398 1.334 . S
C398 H369 0.950 . S
C398 C397 1.334 . S
C398 C399 1.287 . S
C399 C398 1.287 . S
C399 C400 1.524 . S
C399 H402 0.999 . S
C400 H370 0.950 . S
C400 C399 1.524 . S
C400 C401 1.415 . S
C401 H371 0.950 . S
C401 C396 1.363 . S
C401 C400 1.415 . S
H402 C399 0.999 . S
H403 C384 0.913 . S
H404 C422 0.951 . S
H405 C424 0.951 . S
H406 C426 0.950 . S
H407 C427 0.950 . S
H408 C429 0.950 . S
H409 C432 0.950 . S
H410 C433 0.950 . S
H411 C435 0.950 . S
H412 C436 0.950 . S
H413 C437 0.951 . S
H414 C439 0.951 . S
H415 C441 0.950 . S
H416 C442 0.950 . S
H417 C444 0.950 . S
H418 C447 0.950 . S
H419 C448 0.950 . S
H420 C450 0.950 . S
H421 C451 0.950 . S
C422 H404 0.951 . S
C422 C423 1.366 . S
C422 C424 1.388 . S
C423 C422 1.366 . S
C423 C427 1.385 . S
C424 H405 0.951 . S
C424 C422 1.388 . S
C424 C425 1.366 . S
C425 C424 1.366 . S
C425 C426 1.414 . S
C425 C428 1.499 . S
C426 H406 0.950 . S
C426 C425 1.414 . S
C426 C427 1.374 . S
C427 H407 0.950 . S
C427 C423 1.385 . S
C427 C426 1.374 . S
C428 C425 1.499 . S
C428 C429 1.373 . S
C428 C430 1.389 . S
C429 H408 0.950 . S
C429 C428 1.373 . S
C429 C445 1.377 . S
C430 C428 1.389 . S
C430 C431 1.524 . S
C430 C444 1.377 . S
C431 C430 1.524 . S
C431 C432 1.397 . S
C431 C436 1.363 . S
C432 H409 0.950 . S
C432 C431 1.397 . S
C432 C433 1.334 . S
C433 H410 0.950 . S
C433 C432 1.334 . S
C433 C434 1.287 . S
C434 C433 1.287 . S
C434 C435 1.524 . S
C434 H453 0.913 . S
C435 H411 0.950 . S
C435 C434 1.524 . S
C435 C436 1.415 . S
C436 H412 0.950 . S
C436 C431 1.363 . S
C436 C435 1.415 . S
C437 H413 0.951 . S
C437 C438 1.366 . S
C437 C439 1.388 . S
C438 C437 1.366 . S
C438 C442 1.385 . S
C439 H414 0.951 . S
C439 C437 1.388 . S
C439 C440 1.366 . S
C440 C439 1.366 . S
C440 C441 1.414 . S
C440 C443 1.499 . S
C441 H415 0.950 . S
C441 C440 1.414 . S
C441 C442 1.374 . S
C442 H416 0.950 . S
C442 C438 1.385 . S
C442 C441 1.374 . S
C443 C440 1.499 . S
C443 C444 1.373 . S
C443 C445 1.389 . S
C444 H417 0.950 . S
C444 C430 1.377 . S
C444 C443 1.373 . S
C445 C429 1.377 . S
C445 C443 1.389 . S
C445 C446 1.524 . S
C446 C445 1.524 . S
C446 C447 1.397 . S
C446 C451 1.363 . S
C447 H418 0.950 . S
C447 C446 1.397 . S
C447 C448 1.334 . S
C448 H419 0.950 . S
C448 C447 1.334 . S
C448 C449 1.287 . S
C449 C448 1.287 . S
C449 C450 1.524 . S
C449 H452 0.999 . S
C450 H420 0.950 . S
C450 C449 1.524 . S
C450 C451 1.415 . S
C451 H421 0.950 . S
C451 C446 1.363 . S
C451 C450 1.415 . S
H452 C449 0.999 . S
H453 C434 0.913 . S
H454 C472 0.951 . S
H455 C474 0.951 . S
H456 C476 0.950 . S
H457 C477 0.950 . S
H458 C479 0.950 . S
H459 C482 0.950 . S
H460 C483 0.950 . S
H461 C485 0.950 . S
H462 C486 0.950 . S
H463 C487 0.951 . S
H464 C489 0.951 . S
H465 C491 0.950 . S
H466 C492 0.950 . S
H467 C494 0.950 . S
H468 C497 0.950 . S
H469 C498 0.950 . S
H470 C500 0.950 . S
H471 C501 0.950 . S
C472 H454 0.951 . S
C472 C473 1.366 . S
C472 C474 1.388 . S
C473 C472 1.366 . S
C473 C477 1.385 . S
C474 H455 0.951 . S
C474 C472 1.388 . S
C474 C475 1.366 . S
C475 C474 1.366 . S
C475 C476 1.414 . S
C475 C478 1.499 . S
C476 H456 0.950 . S
C476 C475 1.414 . S
C476 C477 1.374 . S
C477 H457 0.950 . S
C477 C473 1.385 . S
C477 C476 1.374 . S
C478 C475 1.499 . S
C478 C479 1.373 . S
C478 C480 1.389 . S
C479 H458 0.950 . S
C479 C478 1.373 . S
C479 C495 1.377 . S
C480 C478 1.389 . S
C480 C481 1.524 . S
C480 C494 1.377 . S
C481 C480 1.524 . S
C481 C482 1.397 . S
C481 C486 1.363 . S
C482 H459 0.950 . S
C482 C481 1.397 . S
C482 C483 1.334 . S
C483 H460 0.950 . S
C483 C482 1.334 . S
C483 C484 1.287 . S
C484 C483 1.287 . S
C484 C485 1.524 . S
C484 H503 0.913 . S
C485 H461 0.950 . S
C485 C484 1.524 . S
C485 C486 1.415 . S
C486 H462 0.950 . S
C486 C481 1.363 . S
C486 C485 1.415 . S
C487 H463 0.951 . S
C487 C488 1.366 . S
C487 C489 1.388 . S
C488 C487 1.366 . S
C488 C492 1.385 . S
C489 H464 0.951 . S
C489 C487 1.388 . S
C489 C490 1.366 . S
C490 C489 1.366 . S
C490 C491 1.414 . S
C490 C493 1.499 . S
C491 H465 0.950 . S
C491 C490 1.414 . S
C491 C492 1.374 . S
C492 H466 0.950 . S
C492 C488 1.385 . S
C492 C491 1.374 . S
C493 C490 1.499 . S
C493 C494 1.373 . S
C493 C495 1.389 . S
C494 H467 0.950 . S
C494 C480 1.377 . S
C494 C493 1.373 . S
C495 C479 1.377 . S
C495 C493 1.389 . S
C495 C496 1.524 . S
C496 C495 1.524 . S
C496 C497 1.397 . S
C496 C501 1.363 . S
C497 H468 0.950 . S
C497 C496 1.397 . S
C497 C498 1.334 . S
C498 H469 0.950 . S
C498 C497 1.334 . S
C498 C499 1.287 . S
C499 C498 1.287 . S
C499 C500 1.524 . S
C499 H502 0.999 . S
C500 H470 0.950 . S
C500 C499 1.524 . S
C500 C501 1.415 . S
C501 H471 0.950 . S
C501 C496 1.363 . S
C501 C500 1.415 . S
H502 C499 0.999 . S
H503 C484 0.913 . S
H504 C522 0.951 . S
H505 C524 0.951 . S
H506 C526 0.950 . S
H507 C527 0.950 . S
H508 C529 0.950 . S
H509 C532 0.950 . S
H510 C533 0.950 . S
H511 C535 0.950 . S
H512 C536 0.950 . S
H513 C537 0.951 . S
H514 C539 0.951 . S
H515 C541 0.950 . S
H516 C542 0.950 . S
H517 C544 0.950 . S
H518 C547 0.950 . S
H519 C548 0.950 . S
H520 C550 0.950 . S
H521 C551 0.950 . S
C522 H504 0.951 . S
C522 C523 1.366 . S
C522 C524 1.388 . S
C523 C522 1.366 . S
C523 C527 1.385 . S
C524 H505 0.951 . S
C524 C522 1.388 . S
C524 C525 1.366 . S
C525 C524 1.366 . S
C525 C526 1.414 . S
C525 C528 1.499 . S
C526 H506 0.950 . S
C526 C525 1.414 . S
C526 C527 1.374 . S
C527 H507 0.950 . S
C527 C523 1.385 . S
C527 C526 1.374 . S
C528 C525 1.499 . S
C528 C529 1.373 . S
C528 C530 1.389 . S
C529 H508 0.950 . S
C529 C528 1.373 . S
C529 C545 1.377 . S
C530 C528 1.389 . S
C530 C531 1.524 . S
C530 C544 1.377 . S
C531 C530 1.524 . S
C531 C532 1.397 . S
C531 C536 1.363 . S
C532 H509 0.950 . S
C532 C531 1.397 . S
C532 C533 1.334 . S
C533 H510 0.950 . S
C533 C532 1.334 . S
C533 C534 1.287 . S
C534 C533 1.287 . S
C534 C535 1.524 . S
C534 H553 0.913 . S
C535 H511 0.950 . S
C535 C534 1.524 . S
C535 C536 1.415 . S
C536 H512 0.950 . S
C536 C531 1.363 . S
C536 C535 1.415 . S
C537 H513 0.951 . S
C537 C538 1.366 . S
C537 C539 1.388 . S
C538 C537 1.366 . S
C538 C542 1.385 . S
C539 H514 0.951 . S
C539 C537 1.388 . S
C539 C540 1.366 . S
C540 C539 1.366 . S
C540 C541 1.414 . S
C540 C543 1.499 . S
C541 H515 0.950 . S
C541 C540 1.414 . S
C541 C542 1.374 . S
C542 H516 0.950 . S
C542 C538 1.385 . S
C542 C541 1.374 . S
C543 C540 1.499 . S
C543 C544 1.373 . S
C543 C545 1.389 . S
C544 H517 0.950 . S
C544 C530 1.377 . S
C544 C543 1.373 . S
C545 C529 1.377 . S
C545 C543 1.389 . S
C545 C546 1.524 . S
C546 C545 1.524 . S
C546 C547 1.397 . S
C546 C551 1.363 . S
C547 H518 0.950 . S
C547 C546 1.397 . S
C547 C548 1.334 . S
C548 H519 0.950 . S
C548 C547 1.334 . S
C548 C549 1.287 . S
C549 C548 1.287 . S
C549 C550 1.524 . S
C549 H552 0.999 . S
C550 H520 0.950 . S
C550 C549 1.524 . S
C550 C551 1.415 . S
C551 H521 0.950 . S
C551 C546 1.363 . S
C551 C550 1.415 . S
H552 C549 0.999 . S
H553 C534 0.913 . S
H554 C572 0.951 . S
H555 C574 0.951 . S
H556 C576 0.950 . S
H557 C577 0.950 . S
H558 C579 0.950 . S
H559 C582 0.950 . S
H560 C583 0.950 . S
H561 C585 0.950 . S
H562 C586 0.950 . S
H563 C587 0.951 . S
H564 C589 0.951 . S
H565 C591 0.950 . S
H566 C592 0.950 . S
H567 C594 0.950 . S
H568 C597 0.950 . S
H569 C598 0.950 . S
H570 C600 0.950 . S
H571 C601 0.950 . S
C572 H554 0.951 . S
C572 C573 1.366 . S
C572 C574 1.388 . S
C573 C572 1.366 . S
C573 C577 1.385 . S
C574 H555 0.951 . S
C574 C572 1.388 . S
C574 C575 1.366 . S
C575 C574 1.366 . S
C575 C576 1.414 . S
C575 C578 1.499 . S
C576 H556 0.950 . S
C576 C575 1.414 . S
C576 C577 1.374 . S
C577 H557 0.950 . S
C577 C573 1.385 . S
C577 C576 1.374 . S
C578 C575 1.499 . S
C578 C579 1.373 . S
C578 C580 1.389 . S
C579 H558 0.950 . S
C579 C578 1.373 . S
C579 C595 1.377 . S
C580 C578 1.389 . S
C580 C581 1.524 . S
C580 C594 1.377 . S
C581 C580 1.524 . S
C581 C582 1.397 . S
C581 C586 1.363 . S
C582 H559 0.950 . S
C582 C581 1.397 . S
C582 C583 1.334 . S
C583 H560 0.950 . S
C583 C582 1.334 . S
C583 C584 1.287 . S
C584 C583 1.287 . S
C584 C585 1.524 . S
C584 H603 0.913 . S
C585 H561 0.950 . S
C585 C584 1.524 . S
C585 C586 1.415 . S
C586 H562 0.950 . S
C586 C581 1.363 . S
C586 C585 1.415 . S
C587 H563 0.951 . S
C587 C588 1.366 . S
C587 C589 1.388 . S
C588 C587 1.366 . S
C588 C592 1.385 . S
C589 H564 0.951 . S
C589 C587 1.388 . S
C589 C590 1.366 . S
C590 C589 1.366 . S
C590 C591 1.414 . S
C590 C593 1.499 . S
C591 H565 0.950 . S
C591 C590 1.414 . S
C591 C592 1.374 . S
C592 H566 0.950 . S
C592 C588 1.385 . S
C592 C591 1.374 . S
C593 C590 1.499 . S
C593 C594 1.373 . S
C593 C595 1.389 . S
C594 H567 0.950 . S
C594 C580 1.377 . S
C594 C593 1.373 . S
C595 C579 1.377 . S
C595 C593 1.389 . S
C595 C596 1.524 . S
C596 C595 1.524 . S
C596 C597 1.397 . S
C596 C601 1.363 . S
C597 H568 0.950 . S
C597 C596 1.397 . S
C597 C598 1.334 . S
C598 H569 0.950 . S
C598 C597 1.334 . S
C598 C599 1.287 . S
C599 C598 1.287 . S
C599 C600 1.524 . S
C599 H602 0.999 . S
C600 H570 0.950 . S
C600 C599 1.524 . S
C600 C601 1.415 . S
C601 H571 0.950 . S
C601 C596 1.363 . S
C601 C600 1.415 . S
H602 C599 0.999 . S
H603 C584 0.913 . S
H604 C622 0.951 . S
H605 C624 0.951 . S
H606 C626 0.950 . S
H607 C627 0.950 . S
H608 C629 0.950 . S
H609 C632 0.950 . S
H610 C633 0.950 . S
H611 C635 0.950 . S
H612 C636 0.950 . S
H613 C637 0.951 . S
H614 C639 0.951 . S
H615 C641 0.950 . S
H616 C642 0.950 . S
H617 C644 0.950 . S
H618 C647 0.950 . S
H619 C648 0.950 . S
H620 C650 0.950 . S
H621 C651 0.950 . S
C622 H604 0.951 . S
C622 C623 1.366 . S
C622 C624 1.388 . S
C623 C622 1.366 . S
C623 C627 1.385 . S
C624 H605 0.951 . S
C624 C622 1.388 . S
C624 C625 1.366 . S
C625 C624 1.366 . S
C625 C626 1.414 . S
C625 C628 1.499 . S
C626 H606 0.950 . S
C626 C625 1.414 . S
C626 C627 1.374 . S
C627 H607 0.950 . S
C627 C623 1.385 . S
C627 C626 1.374 . S
C628 C625 1.499 . S
C628 C629 1.373 . S
C628 C630 1.389 . S
C629 H608 0.950 . S
C629 C628 1.373 . S
C629 C645 1.377 . S
C630 C628 1.389 . S
C630 C631 1.524 . S
C630 C644 1.377 . S
C631 C630 1.524 . S
C631 C632 1.397 . S
C631 C636 1.363 . S
C632 H609 0.950 . S
C632 C631 1.397 . S
C632 C633 1.334 . S
C633 H610 0.950 . S
C633 C632 1.334 . S
C633 C634 1.287 . S
C634 C633 1.287 . S
C634 C635 1.524 . S
C634 H653 0.913 . S
C635 H611 0.950 . S
C635 C634 1.524 . S
C635 C636 1.415 . S
C636 H612 0.950 . S
C636 C631 1.363 . S
C636 C635 1.415 . S
C637 H613 0.951 . S
C637 C638 1.366 . S
C637 C639 1.388 . S
C638 C637 1.366 . S
C638 C642 1.385 . S
C639 H614 0.951 . S
C639 C637 1.388 . S
C639 C640 1.366 . S
C640 C639 1.366 . S
C640 C641 1.414 . S
C640 C643 1.499 . S
C641 H615 0.950 . S
C641 C640 1.414 . S
C641 C642 1.374 . S
C642 H616 0.950 . S
C642 C638 1.385 . S
C642 C641 1.374 . S
C643 C640 1.499 . S
C643 C644 1.373 . S
C643 C645 1.389 . S
C644 H617 0.950 . S
C644 C630 1.377 . S
C644 C643 1.373 . S
C645 C629 1.377 . S
C645 C643 1.389 . S
C645 C646 1.524 . S
C646 C645 1.524 . S
C646 C647 1.397 . S
C646 C651 1.363 . S
C647 H618 0.950 . S
C647 C646 1.397 . S
C647 C648 1.334 . S
C648 H619 0.950 . S
C648 C647 1.334 . S
C648 C649 1.287 . S
C649 C648 1.287 . S
C649 C650 1.524 . S
C649 H652 0.999 . S
C650 H620 0.950 . S
C650 C649 1.524 . S
C650 C651 1.415 . S
C651 H621 0.950 . S
C651 C646 1.363 . S
C651 C650 1.415 . S
H652 C649 0.999 . S
H653 C634 0.913 . S
H654 C672 0.951 . S
H655 C674 0.951 . S
H656 C676 0.950 . S
H657 C677 0.950 . S
H658 C679 0.950 . S
H659 C682 0.950 . S
H660 C683 0.950 . S
H661 C685 0.950 . S
H662 C686 0.950 . S
H663 C687 0.951 . S
H664 C689 0.951 . S
H665 C691 0.950 . S
H666 C692 0.950 . S
H667 C694 0.950 . S
H668 C697 0.950 . S
H669 C698 0.950 . S
H670 C700 0.950 . S
H671 C701 0.950 . S
C672 H654 0.951 . S
C672 C673 1.366 . S
C672 C674 1.388 . S
C673 C672 1.366 . S
C673 C677 1.385 . S
C674 H655 0.951 . S
C674 C672 1.388 . S
C674 C675 1.366 . S
C675 C674 1.366 . S
C675 C676 1.414 . S
C675 C678 1.499 . S
C676 H656 0.950 . S
C676 C675 1.414 . S
C676 C677 1.374 . S
C677 H657 0.950 . S
C677 C673 1.385 . S
C677 C676 1.374 . S
C678 C675 1.499 . S
C678 C679 1.373 . S
C678 C680 1.389 . S
C679 H658 0.950 . S
C679 C678 1.373 . S
C679 C695 1.377 . S
C680 C678 1.389 . S
C680 C681 1.524 . S
C680 C694 1.377 . S
C681 C680 1.524 . S
C681 C682 1.397 . S
C681 C686 1.363 . S
C682 H659 0.950 . S
C682 C681 1.397 . S
C682 C683 1.334 . S
C683 H660 0.950 . S
C683 C682 1.334 . S
C683 C684 1.287 . S
C684 C683 1.287 . S
C684 C685 1.524 . S
C684 H703 0.913 . S
C685 H661 0.950 . S
C685 C684 1.524 . S
C685 C686 1.415 . S
C686 H662 0.950 . S
C686 C681 1.363 . S
C686 C685 1.415 . S
C687 H663 0.951 . S
C687 C688 1.366 . S
C687 C689 1.388 . S
C688 C687 1.366 . S
C688 C692 1.385 . S
C689 H664 0.951 . S
C689 C687 1.388 . S
C689 C690 1.366 . S
C690 C689 1.366 . S
C690 C691 1.414 . S
C690 C693 1.499 . S
C691 H665 0.950 . S
C691 C690 1.414 . S
C691 C692 1.374 . S
C692 H666 0.950 . S
C692 C688 1.385 . S
C692 C691 1.374 . S
C693 C690 1.499 . S
C693 C694 1.373 . S
C693 C695 1.389 . S
C694 H667 0.950 . S
C694 C680 1.377 . S
C694 C693 1.373 . S
C695 C679 1.377 . S
C695 C693 1.389 . S
C695 C696 1.524 . S
C696 C695 1.524 . S
C696 C697 1.397 . S
C696 C701 1.363 . S
C697 H668 0.950 . S
C697 C696 1.397 . S
C697 C698 1.334 . S
C698 H669 0.950 . S
C698 C697 1.334 . S
C698 C699 1.287 . S
C699 C698 1.287 . S
C699 C700 1.524 . S
C699 H702 0.999 . S
C700 H670 0.950 . S
C700 C699 1.524 . S
C700 C701 1.415 . S
C701 H671 0.950 . S
C701 C696 1.363 . S
C701 C700 1.415 . S
H702 C699 0.999 . S
H703 C684 0.913 . S
H704 C722 0.951 . S
H705 C724 0.951 . S
H706 C726 0.950 . S
H707 C727 0.950 . S
H708 C729 0.950 . S
H709 C732 0.950 . S
H710 C733 0.950 . S
H711 C735 0.950 . S
H712 C736 0.950 . S
H713 C737 0.951 . S
H714 C739 0.951 . S
H715 C741 0.950 . S
H716 C742 0.950 . S
H717 C744 0.950 . S
H718 C747 0.950 . S
H719 C748 0.950 . S
H720 C750 0.950 . S
H721 C751 0.950 . S
C722 H704 0.951 . S
C722 C723 1.366 . S
C722 C724 1.388 . S
C723 C722 1.366 . S
C723 C727 1.385 . S
C724 H705 0.951 . S
C724 C722 1.388 . S
C724 C725 1.366 . S
C725 C724 1.366 . S
C725 C726 1.414 . S
C725 C728 1.499 . S
C726 H706 0.950 . S
C726 C725 1.414 . S
C726 C727 1.374 . S
C727 H707 0.950 . S
C727 C723 1.385 . S
C727 C726 1.374 . S
C728 C725 1.499 . S
C728 C729 1.373 . S
C728 C730 1.389 . S
C729 H708 0.950 . S
C729 C728 1.373 . S
C729 C745 1.377 . S
C730 C728 1.389 . S
C730 C731 1.524 . S
C730 C744 1.377 . S
C731 C730 1.524 . S
C731 C732 1.397 . S
C731 C736 1.363 . S
C732 H709 0.950 . S
C732 C731 1.397 . S
C732 C733 1.334 . S
C733 H710 0.950 . S
C733 C732 1.334 . S
C733 C734 1.287 . S
C734 C733 1.287 . S
C734 C735 1.524 . S
C734 H753 0.913 . S
C735 H711 0.950 . S
C735 C734 1.524 . S
C735 C736 1.415 . S
C736 H712 0.950 . S
C736 C731 1.363 . S
C736 C735 1.415 . S
C737 H713 0.951 . S
C737 C738 1.366 . S
C737 C739 1.388 . S
C738 C737 1.366 . S
C738 C742 1.385 . S
C739 H714 0.951 . S
C739 C737 1.388 . S
C739 C740 1.366 . S
C740 C739 1.366 . S
C740 C741 1.414 . S
C740 C743 1.499 . S
C741 H715 0.950 . S
C741 C740 1.414 . S
C741 C742 1.374 . S
C742 H716 0.950 . S
C742 C738 1.385 . S
C742 C741 1.374 . S
C743 C740 1.499 . S
C743 C744 1.373 . S
C743 C745 1.389 . S
C744 H717 0.950 . S
C744 C730 1.377 . S
C744 C743 1.373 . S
C745 C729 1.377 . S
C745 C743 1.389 . S
C745 C746 1.524 . S
C746 C745 1.524 . S
C746 C747 1.397 . S
C746 C751 1.363 . S
C747 H718 0.950 . S
C747 C746 1.397 . S
C747 C748 1.334 . S
C748 H719 0.950 . S
C748 C747 1.334 . S
C748 C749 1.287 . S
C749 C748 1.287 . S
C749 C750 1.524 . S
C749 H752 0.999 . S
C750 H720 0.950 . S
C750 C749 1.524 . S
C750 C751 1.415 . S
C751 H721 0.950 . S
C751 C746 1.363 . S
C751 C750 1.415 . S
H752 C749 0.999 . S
H753 C734 0.913 . S
H754 C772 0.951 . S
H755 C774 0.951 . S
H756 C776 0.950 . S
H757 C777 0.950 . S
H758 C779 0.950 . S
H759 C782 0.950 . S
H760 C783 0.950 . S
H761 C785 0.950 . S
H762 C786 0.950 . S
H763 C787 0.951 . S
H764 C789 0.951 . S
H765 C791 0.950 . S
H766 C792 0.950 . S
H767 C794 0.950 . S
H768 C797 0.950 . S
H769 C798 0.950 . S
H770 C800 0.950 . S
H771 C801 0.950 . S
C772 H754 0.951 . S
C772 C773 1.366 . S
C772 C774 1.388 . S
C773 C772 1.366 . S
C773 C777 1.385 . S
C774 H755 0.951 . S
C774 C772 1.388 . S
C774 C775 1.366 . S
C775 C774 1.366 . S
C775 C776 1.414 . S
C775 C778 1.499 . S
C776 H756 0.950 . S
C776 C775 1.414 . S
C776 C777 1.374 . S
C777 H757 0.950 . S
C777 C773 1.385 . S
C777 C776 1.374 . S
C778 C775 1.499 . S
C778 C779 1.373 . S
C778 C780 1.389 . S
C779 H758 0.950 . S
C779 C778 1.373 . S
C779 C795 1.377 . S
C780 C778 1.389 . S
C780 C781 1.524 . S
C780 C794 1.377 . S
C781 C780 1.524 . S
C781 C782 1.397 . S
C781 C786 1.363 . S
C782 H759 0.950 . S
C782 C781 1.397 . S
C782 C783 1.334 . S
C783 H760 0.950 . S
C783 C782 1.334 . S
C783 C784 1.287 . S
C784 C783 1.287 . S
C784 C785 1.524 . S
C784 H803 0.913 . S
C785 H761 0.950 . S
C785 C784 1.524 . S
C785 C786 1.415 . S
C786 H762 0.950 . S
C786 C781 1.363 . S
C786 C785 1.415 . S
C787 H763 0.951 . S
C787 C788 1.366 . S
C787 C789 1.388 . S
C788 C787 1.366 . S
C788 C792 1.385 . S
C789 H764 0.951 . S
C789 C787 1.388 . S
C789 C790 1.366 . S
C790 C789 1.366 . S
C790 C791 1.414 . S
C790 C793 1.499 . S
C791 H765 0.950 . S
C791 C790 1.414 . S
C791 C792 1.374 . S
C792 H766 0.950 . S
C792 C788 1.385 . S
C792 C791 1.374 . S
C793 C790 1.499 . S
C793 C794 1.373 . S
C793 C795 1.389 . S
C794 H767 0.950 . S
C794 C780 1.377 . S
C794 C793 1.373 . S
C795 C779 1.377 . S
C795 C793 1.389 . S
C795 C796 1.524 . S
C796 C795 1.524 . S
C796 C797 1.397 . S
C796 C801 1.363 . S
C797 H768 0.950 . S
C797 C796 1.397 . S
C797 C798 1.334 . S
C798 H769 0.950 . S
C798 C797 1.334 . S
C798 C799 1.287 . S
C799 C798 1.287 . S
C799 C800 1.524 . S
C799 H802 0.999 . S
C800 H770 0.950 . S
C800 C799 1.524 . S
C800 C801 1.415 . S
C801 H771 0.950 . S
C801 C796 1.363 . S
C801 C800 1.415 . S
H802 C799 0.999 . S
H803 C784 0.913 . S
H804 C822 0.951 . S
H805 C824 0.951 . S
H806 C826 0.950 . S
H807 C827 0.950 . S
H808 C829 0.950 . S
H809 C832 0.950 . S
H810 C833 0.950 . S
H811 C835 0.950 . S
H812 C836 0.950 . S
H813 C837 0.951 . S
H814 C839 0.951 . S
H815 C841 0.950 . S
H816 C842 0.950 . S
H817 C844 0.950 . S
H818 C847 0.950 . S
H819 C848 0.950 . S
H820 C850 0.950 . S
H821 C851 0.950 . S
C822 H804 0.951 . S
C822 C823 1.366 . S
C822 C824 1.388 . S
C823 C822 1.366 . S
C823 C827 1.385 . S
C824 H805 0.951 . S
C824 C822 1.388 . S
C824 C825 1.366 . S
C825 C824 1.366 . S
C825 C826 1.414 . S
C825 C828 1.499 . S
C826 H806 0.950 . S
C826 C825 1.414 . S
C826 C827 1.374 . S
C827 H807 0.950 . S
C827 C823 1.385 . S
C827 C826 1.374 . S
C828 C825 1.499 . S
C828 C829 1.373 . S
C828 C830 1.389 . S
C829 H808 0.950 . S
C829 C828 1.373 . S
C829 C845 1.377 . S
C830 C828 1.389 . S
C830 C831 1.524 . S
C830 C844 1.377 . S
C831 C830 1.524 . S
C831 C832 1.397 . S
C831 C836 1.363 . S
C832 H809 0.950 . S
C832 C831 1.397 . S
C832 C833 1.334 . S
C833 H810 0.950 . S
C833 C832 1.334 . S
C833 C834 1.287 . S
C834 C833 1.287 . S
C834 C835 1.524 . S
C834 H853 0.913 . S
C835 H811 0.950 . S
C835 C834 1.524 . S
C835 C836 1.415 . S
C836 H812 0.950 . S
C836 C831 1.363 . S
C836 C835 1.415 . S
C837 H813 0.951 . S
C837 C838 1.366 . S
C837 C839 1.388 . S
C838 C837 1.366 . S
C838 C842 1.385 . S
C839 H814 0.951 . S
C839 C837 1.388 . S
C839 C840 1.366 . S
C840 C839 1.366 . S
C840 C841 1.414 . S
C840 C843 1.499 . S
C841 H815 0.950 . S
C841 C840 1.414 . S
C841 C842 1.374 . S
C842 H816 0.950 . S
C842 C838 1.385 . S
C842 C841 1.374 . S
C843 C840 1.499 . S
C843 C844 1.373 . S
C843 C845 1.389 . S
C844 H817 0.950 . S
C844 C830 1.377 . S
C844 C843 1.373 . S
C845 C829 1.377 . S
C845 C843 1.389 . S
C845 C846 1.524 . S
C846 C845 1.524 . S
C846 C847 1.397 . S
C846 C851 1.363 . S
C847 H818 0.950 . S
C847 C846 1.397 . S
C847 C848 1.334 . S
C848 H819 0.950 . S
C848 C847 1.334 . S
C848 C849 1.287 . S
C849 C848 1.287 . S
C849 C850 1.524 . S
C849 H852 0.999 . S
C850 H820 0.950 . S
C850 C849 1.524 . S
C850 C851 1.415 . S
C851 H821 0.950 . S
C851 C846 1.363 . S
C851 C850 1.415 . S
H852 C849 0.999 . S
H853 C834 0.913 . S
H854 C872 0.951 . S
H855 C874 0.951 . S
H856 C876 0.950 . S
H857 C877 0.950 . S
H858 C879 0.950 . S
H859 C882 0.950 . S
H860 C883 0.950 . S
H861 C885 0.950 . S
H862 C886 0.950 . S
H863 C887 0.951 . S
H864 C889 0.951 . S
H865 C891 0.950 . S
H866 C892 0.950 . S
H867 C894 0.950 . S
H868 C897 0.950 . S
H869 C898 0.950 . S
H870 C900 0.950 . S
H871 C901 0.950 . S
C872 H854 0.951 . S
C872 C873 1.366 . S
C872 C874 1.388 . S
C873 C872 1.366 . S
C873 C877 1.385 . S
C874 H855 0.951 . S
C874 C872 1.388 . S
C874 C875 1.366 . S
C875 C874 1.366 . S
C875 C876 1.414 . S
C875 C878 1.499 . S
C876 H856 0.950 . S
C876 C875 1.414 . S
C876 C877 1.374 . S
C877 H857 0.950 . S
C877 C873 1.385 . S
C877 C876 1.374 . S
C878 C875 1.499 . S
C878 C879 1.373 . S
C878 C880 1.389 . S
C879 H858 0.950 . S
C879 C878 1.373 . S
C879 C895 1.377 . S
C880 C878 1.389 . S
C880 C881 1.524 . S
C880 C894 1.377 . S
C881 C880 1.524 . S
C881 C882 1.397 . S
C881 C886 1.363 . S
C882 H859 0.950 . S
C882 C881 1.397 . S
C882 C883 1.334 . S
C883 H860 0.950 . S
C883 C882 1.334 . S
C883 C884 1.287 . S
C884 C883 1.287 . S
C884 C885 1.524 . S
C884 H903 0.913 . S
C885 H861 0.950 . S
C885 C884 1.524 . S
C885 C886 1.415 . S
C886 H862 0.950 . S
C886 C881 1.363 . S
C886 C885 1.415 . S
C887 H863 0.951 . S
C887 C888 1.366 . S
C887 C889 1.388 . S
C888 C887 1.366 . S
C888 C892 1.385 . S
C889 H864 0.951 . S
C889 C887 1.388 . S
C889 C890 1.366 . S
C890 C889 1.366 . S
C890 C891 1.414 . S
C890 C893 1.499 . S
C891 H865 0.950 . S
C891 C890 1.414 . S
C891 C892 1.374 . S
C892 H866 0.950 . S
C892 C888 1.385 . S
C892 C891 1.374 . S
C893 C890 1.499 . S
C893 C894 1.373 . S
C893 C895 1.389 . S
C894 H867 0.950 . S
C894 C880 1.377 . S
C894 C893 1.373 . S
C895 C879 1.377 . S
C895 C893 1.389 . S
C895 C896 1.524 . S
C896 C895 1.524 . S
C896 C897 1.397 . S
C896 C901 1.363 . S
C897 H868 0.950 . S
C897 C896 1.397 . S
C897 C898 1.334 . S
C898 H869 0.950 . S
C898 C897 1.334 . S
C898 C899 1.287 . S
C899 C898 1.287 . S
C899 C900 1.524 . S
C899 H902 0.999 . S
C900 H870 0.950 . S
C900 C899 1.524 . S
C900 C901 1.415 . S
C901 H871 0.950 . S
C901 C896 1.363 . S
C901 C900 1.415 . S
H902 C899 0.999 . S
H903 C884 0.913 . S
H904 C922 0.951 . S
H905 C924 0.951 . S
H906 C926 0.950 . S
H907 C927 0.950 . S
H908 C929 0.950 . S
H909 C932 0.950 . S
H910 C933 0.950 . S
H911 C935 0.950 . S
H912 C936 0.950 . S
H913 C937 0.951 . S
H914 C939 0.951 . S
H915 C941 0.950 . S
H916 C942 0.950 . S
H917 C944 0.950 . S
H918 C947 0.950 . S
H919 C948 0.950 . S
H920 C950 0.950 . S
H921 C951 0.950 . S
C922 H904 0.951 . S
C922 C923 1.366 . S
C922 C924 1.388 . S
C923 C922 1.366 . S
C923 C927 1.385 . S
C924 H905 0.951 . S
C924 C922 1.388 . S
C924 C925 1.366 . S
C925 C924 1.366 . S
C925 C926 1.414 . S
C925 C928 1.499 . S
C926 H906 0.950 . S
C926 C925 1.414 . S
C926 C927 1.374 . S
C927 H907 0.950 . S
C927 C923 1.385 . S
C927 C926 1.374 . S
C928 C925 1.499 . S
C928 C929 1.373 . S
C928 C930 1.389 . S
C929 H908 0.950 . S
C929 C928 1.373 . S
C929 C945 1.377 . S
C930 C928 1.389 . S
C930 C931 1.524 . S
C930 C944 1.377 . S
C931 C930 1.524 . S
C931 C932 1.397 . S
C931 C936 1.363 . S
C932 H909 0.950 . S
C932 C931 1.397 . S
C932 C933 1.334 . S
C933 H910 0.950 . S
C933 C932 1.334 . S
C933 C934 1.287 . S
C934 C933 1.287 . S
C934 C935 1.524 . S
C934 H953 0.913 . S
C935 H911 0.950 . S
C935 C934 1.524 . S
C935 C936 1.415 . S
C936 H912 0.950 . S
C936 C931 1.363 . S
C936 C935 1.415 . S
C937 H913 0.951 . S
C937 C938 1.366 . S
C937 C939 1.388 . S
C938 C937 1.366 . S
C938 C942 1.385 . S
C939 H914 0.951 . S
C939 C937 1.388 . S
C939 C940 1.366 . S
C940 C939 1.366 . S
C940 C941 1.414 . S
C940 C943 1.499 . S
C941 H915 0.950 . S
C941 C940 1.414 . S
C941 C942 1.374 . S
C942 H916 0.950 . S
C942 C938 1.385 . S
C942 C941 1.374 . S
C943 C940 1.499 . S
C943 C944 1.373 . S
C943 C945 1.389 . S
C944 H917 0.950 . S
C944 C930 1.377 . S
C944 C943 1.373 . S
C945 C929 1.377 . S
C945 C943 1.389 . S
C945 C946 1.524 . S
C946 C945 1.524 . S
C946 C947 1.397 . S
C946 C951 1.363 . S
C947 H918 0.950 . S
C947 C946 1.397 . S
C947 C948 1.334 . S
C948 H919 0.950 . S
C948 C947 1.334 . S
C948 C949 1.287 . S
C949 C948 1.287 . S
C949 C950 1.524 . S
C949 H952 0.999 . S
C950 H920 0.950 . S
C950 C949 1.524 . S
C950 C951 1.415 . S
C951 H921 0.950 . S
C951 C946 1.363 . S
C951 C950 1.415 . S
H952 C949 0.999 . S
H953 C934 0.913 . S
H954 C972 0.951 . S
H955 C974 0.951 . S
H956 C976 0.950 1_655 S
H957 C977 0.950 1_655 S
H958 C979 0.950 . S
H959 C982 0.950 . S
H960 C983 0.950 . S
H961 C985 0.950 . S
H962 C986 0.950 . S
H963 C987 0.951 . S
H964 C989 0.951 . S
H965 C991 0.950 . S
H966 C992 0.950 . S
H967 C994 0.950 . S
H968 C997 0.950 . S
H969 C998 0.950 . S
H970 C1000 0.950 . S
H971 C1001 0.950 . S
C972 H954 0.951 . S
C972 C973 1.366 . S
C972 C974 1.388 . S
C973 C972 1.366 . S
C973 C977 1.385 . S
C974 H955 0.951 . S
C974 C972 1.388 . S
C974 C975 1.366 . S
C975 C974 1.366 . S
C975 C976 1.414 . S
C975 C978 1.499 . S
C976 H956 0.950 1_455 S
C976 C975 1.414 . S
C976 C977 1.374 . S
C977 H957 0.950 1_455 S
C977 C973 1.385 . S
C977 C976 1.374 . S
C978 C975 1.499 . S
C978 C979 1.373 1_455 S
C978 C980 1.389 . S
C979 H958 0.950 . S
C979 C978 1.373 1_655 S
C979 C995 1.377 . S
C980 C978 1.389 . S
C980 C981 1.524 . S
C980 C994 1.377 . S
C981 C980 1.524 . S
C981 C982 1.397 . S
C981 C986 1.363 . S
C982 H959 0.950 . S
C982 C981 1.397 . S
C982 C983 1.334 . S
C983 H960 0.950 . S
C983 C982 1.334 . S
C983 C984 1.287 . S
C984 C983 1.287 . S
C984 C985 1.524 . S
C984 H1003 0.913 . S
C985 H961 0.950 . S
C985 C984 1.524 . S
C985 C986 1.415 . S
C986 H962 0.950 . S
C986 C981 1.363 . S
C986 C985 1.415 . S
C987 H963 0.951 . S
C987 C988 1.366 1_655 S
C987 C989 1.388 1_556 S
C988 C987 1.366 1_455 S
C988 C992 1.385 . S
C989 H964 0.951 . S
C989 C987 1.388 1_554 S
C989 C990 1.366 1_655 S
C990 C989 1.366 1_455 S
C990 C991 1.414 . S
C990 C993 1.499 . S
C991 H965 0.950 . S
C991 C990 1.414 . S
C991 C992 1.374 1_554 S
C992 H966 0.950 . S
C992 C988 1.385 . S
C992 C991 1.374 1_556 S
C993 C990 1.499 . S
C993 C994 1.373 . S
C993 C995 1.389 1_455 S
C994 H967 0.950 . S
C994 C980 1.377 . S
C994 C993 1.373 . S
C995 C979 1.377 . S
C995 C993 1.389 1_655 S
C995 C996 1.524 . S
C996 C995 1.524 . S
C996 C997 1.397 . S
C996 C1001 1.363 . S
C997 H968 0.950 . S
C997 C996 1.397 . S
C997 C998 1.334 . S
C998 H969 0.950 . S
C998 C997 1.334 . S
C998 C999 1.287 . S
C999 C998 1.287 . S
C999 C1000 1.524 . S
C999 H1002 0.999 . S
C1000 H970 0.950 . S
C1000 C999 1.524 . S
C1000 C1001 1.415 . S
C1001 H971 0.950 . S
C1001 C996 1.363 . S
C1001 C1000 1.415 . S
H1002 C999 0.999 . S
H1003 C984 0.913 . S
H1004 C1022 0.951 1_565 S
H1005 C1024 0.951 1_565 S
H1006 C1026 0.950 . S
H1007 C1027 0.950 . S
H1008 C1029 0.950 . S
H1009 C1032 0.950 . S
H1010 C1033 0.950 . S
H1011 C1035 0.950 . S
H1012 C1036 0.952 . S
H1013 C1037 0.951 . S
H1014 C1039 0.951 . S
H1015 C1041 0.950 1_565 S
H1016 C1042 0.980 . S
H1017 C1044 0.950 . S
H1018 C1047 0.950 . S
H1019 C1048 0.950 . S
H1020 C1050 0.950 . S
H1021 C1051 0.950 . S
C1022 H1004 0.951 1_545 S
C1022 C1023 1.366 . S
C1022 C1024 1.388 . S
C1023 C1022 1.366 . S
C1023 C1027 1.385 . S
C1024 H1005 0.951 1_545 S
C1024 C1022 1.388 . S
C1024 C1025 1.366 . S
C1025 C1024 1.366 . S
C1025 C1026 1.414 . S
C1025 C1028 1.499 . S
C1026 H1006 0.950 . S
C1026 C1025 1.414 . S
C1026 C1027 1.374 . S
C1027 H1007 0.950 . S
C1027 C1023 1.385 . S
C1027 C1026 1.374 . S
C1028 C1025 1.499 . S
C1028 C1029 1.373 . S
C1028 C1030 1.389 . S
C1029 H1008 0.950 . S
C1029 C1028 1.373 . S
C1029 C1045 1.377 . S
C1030 C1028 1.389 . S
C1030 C1031 1.524 . S
C1030 C1044 1.377 . S
C1031 C1030 1.524 . S
C1031 C1032 1.397 . S
C1031 C1036 1.358 1_545 S
C1032 H1009 0.950 . S
C1032 C1031 1.397 . S
C1032 C1033 1.334 . S
C1033 H1010 0.950 . S
C1033 C1032 1.334 . S
C1033 C1034 1.287 . S
C1034 C1033 1.287 . S
C1034 C1035 1.524 1_545 S
C1034 H1053 0.913 . S
C1035 H1011 0.950 . S
C1035 C1034 1.524 1_565 S
C1035 C1036 1.418 . S
C1036 H1012 0.952 . S
C1036 C1031 1.358 1_565 S
C1036 C1035 1.418 . S
C1037 H1013 0.951 . S
C1037 C1038 1.366 . S
C1037 C1039 1.388 . S
C1038 C1037 1.366 . S
C1038 C1042 1.385 . S
C1039 H1014 0.951 . S
C1039 C1037 1.388 . S
C1039 C1040 1.366 . S
C1040 C1039 1.366 . S
C1040 C1041 1.414 . S
C1040 C1043 1.499 . S
C1041 H1015 0.950 1_545 S
C1041 C1040 1.414 . S
C1041 C1042 1.374 . S
C1042 H1016 0.980 . S
C1042 C1038 1.385 . S
C1042 C1041 1.374 . S
C1043 C1040 1.499 . S
C1043 C1044 1.373 . S
C1043 C1045 1.389 . S
C1044 H1017 0.950 . S
C1044 C1030 1.377 . S
C1044 C1043 1.373 . S
C1045 C1029 1.377 . S
C1045 C1043 1.389 . S
C1045 C1046 1.524 . S
C1046 C1045 1.524 . S
C1046 C1047 1.397 . S
C1046 C1051 1.363 . S
C1047 H1018 0.950 . S
C1047 C1046 1.397 . S
C1047 C1048 1.334 . S
C1048 H1019 0.950 . S
C1048 C1047 1.334 . S
C1048 C1049 1.287 . S
C1049 C1048 1.287 . S
C1049 C1050 1.524 . S
C1049 H1052 0.999 . S
C1050 H1020 0.950 . S
C1050 C1049 1.524 . S
C1050 C1051 1.415 . S
C1051 H1021 0.950 . S
C1051 C1046 1.363 . S
C1051 C1050 1.415 . S
H1052 C1049 0.999 . S
H1053 C1034 0.913 . S
H1054 C1072 0.951 . S
H1055 C1074 0.951 . S
H1056 C1076 0.950 . S
H1057 C1077 0.950 . S
H1058 C1079 0.950 . S
H1059 C1082 0.950 . S
H1060 C1083 0.950 . S
H1061 C1085 0.950 . S
H1062 C1086 0.950 . S
H1063 C1087 0.951 . S
H1064 C1089 0.951 . S
H1065 C1091 0.950 . S
H1066 C1092 0.950 . S
H1067 C1094 0.950 . S
H1068 C1097 0.950 . S
H1069 C1098 0.950 . S
H1070 C1100 0.950 . S
H1071 C1101 0.950 . S
C1072 H1054 0.951 . S
C1072 C1073 1.366 . S
C1072 C1074 1.388 . S
C1073 C1072 1.366 . S
C1073 C1077 1.385 . S
C1074 H1055 0.951 . S
C1074 C1072 1.388 . S
C1074 C1075 1.366 . S
C1075 C1074 1.366 . S
C1075 C1076 1.414 . S
C1075 C1078 1.499 . S
C1076 H1056 0.950 . S
C1076 C1075 1.414 . S
C1076 C1077 1.374 . S
C1077 H1057 0.950 . S
C1077 C1073 1.385 . S
C1077 C1076 1.374 . S
C1078 C1075 1.499 . S
C1078 C1079 1.373 . S
C1078 C1080 1.389 . S
C1079 H1058 0.950 . S
C1079 C1078 1.373 . S
C1079 C1095 1.377 . S
C1080 C1078 1.389 . S
C1080 C1081 1.524 . S
C1080 C1094 1.377 . S
C1081 C1080 1.524 . S
C1081 C1082 1.397 . S
C1081 C1086 1.363 . S
C1082 H1059 0.950 . S
C1082 C1081 1.397 . S
C1082 C1083 1.334 . S
C1083 H1060 0.950 . S
C1083 C1082 1.334 . S
C1083 C1084 1.287 . S
C1084 C1083 1.287 . S
C1084 C1085 1.524 . S
C1084 H1103 0.913 . S
C1085 H1061 0.950 . S
C1085 C1084 1.524 . S
C1085 C1086 1.415 . S
C1086 H1062 0.950 . S
C1086 C1081 1.363 . S
C1086 C1085 1.415 . S
C1087 H1063 0.951 . S
C1087 C1088 1.366 . S
C1087 C1089 1.388 . S
C1088 C1087 1.366 . S
C1088 C1092 1.385 . S
C1089 H1064 0.951 . S
C1089 C1087 1.388 . S
C1089 C1090 1.366 . S
C1090 C1089 1.366 . S
C1090 C1091 1.414 . S
C1090 C1093 1.499 . S
C1091 H1065 0.950 . S
C1091 C1090 1.414 . S
C1091 C1092 1.374 . S
C1092 H1066 0.950 . S
C1092 C1088 1.385 . S
C1092 C1091 1.374 . S
C1093 C1090 1.499 . S
C1093 C1094 1.373 . S
C1093 C1095 1.389 . S
C1094 H1067 0.950 . S
C1094 C1080 1.377 . S
C1094 C1093 1.373 . S
C1095 C1079 1.377 . S
C1095 C1093 1.389 . S
C1095 C1096 1.524 . S
C1096 C1095 1.524 . S
C1096 C1097 1.397 . S
C1096 C1101 1.363 . S
C1097 H1068 0.950 . S
C1097 C1096 1.397 . S
C1097 C1098 1.334 . S
C1098 H1069 0.950 . S
C1098 C1097 1.334 . S
C1098 C1099 1.287 . S
C1099 C1098 1.287 . S
C1099 C1100 1.524 . S
C1099 H1102 0.999 . S
C1100 H1070 0.950 . S
C1100 C1099 1.524 . S
C1100 C1101 1.415 . S
C1101 H1071 0.950 . S
C1101 C1096 1.363 . S
C1101 C1100 1.415 . S
H1102 C1099 0.999 . S
H1103 C1084 0.913 . S
H1104 C1122 0.951 . S
H1105 C1124 0.951 1_565 S
H1106 C1126 0.950 . S
H1107 C1127 0.950 . S
H1108 C1129 0.950 . S
H1109 C1132 0.950 . S
H1110 C1133 0.950 . S
H1111 C1135 0.950 . S
H1112 C1136 0.950 . S
H1113 C1137 0.951 . S
H1114 C1139 0.951 . S
H1115 C1141 0.950 1_565 S
H1116 C1142 0.951 1_565 S
H1117 C1144 0.950 . S
H1118 C1147 0.950 . S
H1119 C1148 0.950 . S
H1120 C1150 0.950 . S
H1121 C1151 0.950 . S
C1122 H1104 0.951 . S
C1122 C1123 1.366 . S
C1122 C1124 1.388 . S
C1123 C1122 1.366 . S
C1123 C1127 1.385 . S
C1124 H1105 0.951 1_545 S
C1124 C1122 1.388 . S
C1124 C1125 1.366 . S
C1125 C1124 1.366 . S
C1125 C1126 1.414 . S
C1125 C1128 1.499 . S
C1126 H1106 0.950 . S
C1126 C1125 1.414 . S
C1126 C1127 1.374 . S
C1127 H1107 0.950 . S
C1127 C1123 1.385 . S
C1127 C1126 1.374 . S
C1128 C1125 1.499 . S
C1128 C1129 1.373 . S
C1128 C1130 1.389 1_545 S
C1129 H1108 0.950 . S
C1129 C1128 1.373 . S
C1129 C1145 1.377 . S
C1130 C1128 1.389 1_565 S
C1130 C1131 1.524 . S
C1130 C1144 1.377 . S
C1131 C1130 1.524 . S
C1131 C1132 1.397 . S
C1131 C1136 1.363 . S
C1132 H1109 0.950 . S
C1132 C1131 1.397 . S
C1132 C1133 1.334 . S
C1133 H1110 0.950 . S
C1133 C1132 1.334 . S
C1133 C1134 1.287 . S
C1134 C1133 1.287 . S
C1134 C1135 1.524 . S
C1134 H1153 0.913 . S
C1135 H1111 0.950 . S
C1135 C1134 1.524 . S
C1135 C1136 1.415 . S
C1136 H1112 0.950 . S
C1136 C1131 1.363 . S
C1136 C1135 1.415 . S
C1137 H1113 0.951 . S
C1137 C1138 1.366 . S
C1137 C1139 1.388 . S
C1138 C1137 1.366 . S
C1138 C1142 1.384 . S
C1139 H1114 0.951 . S
C1139 C1137 1.388 . S
C1139 C1140 1.366 . S
C1140 C1139 1.366 . S
C1140 C1141 1.414 . S
C1140 C1143 1.499 . S
C1141 H1115 0.950 1_545 S
C1141 C1140 1.414 . S
C1141 C1142 1.374 . S
C1142 H1116 0.951 1_545 S
C1142 C1138 1.384 . S
C1142 C1141 1.374 . S
C1143 C1140 1.499 . S
C1143 C1144 1.373 1_545 S
C1143 C1145 1.389 . S
C1144 H1117 0.950 . S
C1144 C1130 1.377 . S
C1144 C1143 1.373 1_565 S
C1145 C1129 1.377 . S
C1145 C1143 1.389 . S
C1145 C1146 1.524 . S
C1146 C1145 1.524 . S
C1146 C1147 1.397 . S
C1146 C1151 1.363 . S
C1147 H1118 0.950 . S
C1147 C1146 1.397 . S
C1147 C1148 1.334 . S
C1148 H1119 0.950 . S
C1148 C1147 1.334 . S
C1148 C1149 1.287 . S
C1149 C1148 1.287 . S
C1149 C1150 1.524 . S
C1149 H1152 0.999 . S
C1150 H1120 0.950 . S
C1150 C1149 1.524 . S
C1150 C1151 1.415 . S
C1151 H1121 0.950 . S
C1151 C1146 1.363 . S
C1151 C1150 1.415 . S
H1152 C1149 0.999 . S
H1153 C1134 0.913 . S
H1154 C1172 0.951 . S
H1155 C1174 0.951 . S
H1156 C1176 0.950 . S
H1157 C1177 0.950 . S
H1158 C1179 0.950 . S
H1159 C1182 0.950 . S
H1160 C1183 0.950 . S
H1161 C1185 0.950 . S
H1162 C1186 0.950 . S
H1163 C1187 0.951 . S
H1164 C1189 0.951 . S
H1165 C1191 0.950 . S
H1166 C1192 0.950 . S
H1167 C1194 0.950 . S
H1168 C1197 0.950 . S
H1169 C1198 0.950 . S
H1170 C1200 0.950 . S
H1171 C1201 0.950 . S
C1172 H1154 0.951 . S
C1172 C1173 1.366 . S
C1172 C1174 1.388 . S
C1173 C1172 1.366 . S
C1173 C1177 1.385 . S
C1174 H1155 0.951 . S
C1174 C1172 1.388 . S
C1174 C1175 1.366 . S
C1175 C1174 1.366 . S
C1175 C1176 1.414 . S
C1175 C1178 1.499 . S
C1176 H1156 0.950 . S
C1176 C1175 1.414 . S
C1176 C1177 1.374 . S
C1177 H1157 0.950 . S
C1177 C1173 1.385 . S
C1177 C1176 1.374 . S
C1178 C1175 1.499 . S
C1178 C1179 1.373 . S
C1178 C1180 1.389 . S
C1179 H1158 0.950 . S
C1179 C1178 1.373 . S
C1179 C1195 1.377 . S
C1180 C1178 1.389 . S
C1180 C1181 1.524 . S
C1180 C1194 1.377 . S
C1181 C1180 1.524 . S
C1181 C1182 1.397 . S
C1181 C1186 1.363 . S
C1182 H1159 0.950 . S
C1182 C1181 1.397 . S
C1182 C1183 1.334 . S
C1183 H1160 0.950 . S
C1183 C1182 1.334 . S
C1183 C1184 1.287 . S
C1184 C1183 1.287 . S
C1184 C1185 1.524 . S
C1184 H1203 0.913 . S
C1185 H1161 0.950 . S
C1185 C1184 1.524 . S
C1185 C1186 1.415 . S
C1186 H1162 0.950 . S
C1186 C1181 1.363 . S
C1186 C1185 1.415 . S
C1187 H1163 0.951 . S
C1187 C1188 1.366 . S
C1187 C1189 1.388 1_554 S
C1188 C1187 1.366 . S
C1188 C1192 1.385 . S
C1189 H1164 0.951 . S
C1189 C1187 1.388 1_556 S
C1189 C1190 1.366 . S
C1190 C1189 1.366 . S
C1190 C1191 1.414 . S
C1190 C1193 1.499 . S
C1191 H1165 0.950 . S
C1191 C1190 1.414 . S
C1191 C1192 1.374 1_556 S
C1192 H1166 0.950 . S
C1192 C1188 1.385 . S
C1192 C1191 1.374 1_554 S
C1193 C1190 1.499 . S
C1193 C1194 1.373 . S
C1193 C1195 1.389 . S
C1194 H1167 0.950 . S
C1194 C1180 1.377 . S
C1194 C1193 1.373 . S
C1195 C1179 1.377 . S
C1195 C1193 1.389 . S
C1195 C1196 1.524 . S
C1196 C1195 1.524 . S
C1196 C1197 1.397 . S
C1196 C1201 1.363 . S
C1197 H1168 0.950 . S
C1197 C1196 1.397 . S
C1197 C1198 1.334 . S
C1198 H1169 0.950 . S
C1198 C1197 1.334 . S
C1198 C1199 1.287 . S
C1199 C1198 1.287 . S
C1199 C1200 1.524 . S
C1199 H1202 0.999 . S
C1200 H1170 0.950 . S
C1200 C1199 1.524 . S
C1200 C1201 1.415 . S
C1201 H1171 0.950 . S
C1201 C1196 1.363 . S
C1201 C1200 1.415 . S
H1202 C1199 0.999 . S
H1203 C1184 0.913 . S
H1204 C1222 0.951 . S
H1205 C1224 0.951 . S
H1206 C1226 0.950 . S
H1207 C1227 0.950 . S
H1208 C1229 0.950 1_655 S
H1209 C1232 0.950 . S
H1210 C1233 0.950 . S
H1211 C1235 0.950 . S
H1212 C1236 0.950 . S
H1213 C1237 0.951 . S
H1214 C1239 0.951 . S
H1215 C1241 0.950 . S
H1216 C1242 0.950 . S
H1217 C1244 0.950 . S
H1218 C1247 0.950 . S
H1219 C1248 0.950 . S
H1220 C1250 0.950 . S
H1221 C1251 0.950 . S
C1222 H1204 0.951 . S
C1222 C1223 1.366 . S
C1222 C1224 1.388 . S
C1223 C1222 1.366 . S
C1223 C1227 1.385 . S
C1224 H1205 0.951 . S
C1224 C1222 1.388 . S
C1224 C1225 1.366 . S
C1225 C1224 1.366 . S
C1225 C1226 1.414 . S
C1225 C1228 1.499 . S
C1226 H1206 0.950 . S
C1226 C1225 1.414 . S
C1226 C1227 1.374 . S
C1227 H1207 0.950 . S
C1227 C1223 1.385 . S
C1227 C1226 1.374 . S
C1228 C1225 1.499 . S
C1228 C1229 1.373 . S
C1228 C1230 1.389 . S
C1229 H1208 0.950 1_455 S
C1229 C1228 1.373 . S
C1229 C1245 1.377 . S
C1230 C1228 1.389 . S
C1230 C1231 1.524 . S
C1230 C1244 1.377 . S
C1231 C1230 1.524 . S
C1231 C1232 1.397 . S
C1231 C1236 1.363 . S
C1232 H1209 0.950 . S
C1232 C1231 1.397 . S
C1232 C1233 1.334 . S
C1233 H1210 0.950 . S
C1233 C1232 1.334 . S
C1233 C1234 1.287 . S
C1234 C1233 1.287 . S
C1234 C1235 1.524 . S
C1234 H1253 0.913 . S
C1235 H1211 0.950 . S
C1235 C1234 1.524 . S
C1235 C1236 1.415 . S
C1236 H1212 0.950 . S
C1236 C1231 1.363 . S
C1236 C1235 1.415 . S
C1237 H1213 0.951 . S
C1237 C1238 1.366 . S
C1237 C1239 1.388 . S
C1238 C1237 1.366 . S
C1238 C1242 1.385 . S
C1239 H1214 0.951 . S
C1239 C1237 1.388 . S
C1239 C1240 1.366 . S
C1240 C1239 1.366 . S
C1240 C1241 1.414 . S
C1240 C1243 1.499 . S
C1241 H1215 0.950 . S
C1241 C1240 1.414 . S
C1241 C1242 1.374 . S
C1242 H1216 0.950 . S
C1242 C1238 1.385 . S
C1242 C1241 1.374 . S
C1243 C1240 1.499 . S
C1243 C1244 1.373 . S
C1243 C1245 1.389 . S
C1244 H1217 0.950 . S
C1244 C1230 1.377 . S
C1244 C1243 1.373 . S
C1245 C1229 1.377 . S
C1245 C1243 1.389 . S
C1245 C1246 1.524 1_455 S
C1246 C1245 1.524 1_655 S
C1246 C1247 1.397 . S
C1246 C1251 1.363 . S
C1247 H1218 0.950 . S
C1247 C1246 1.397 . S
C1247 C1248 1.334 . S
C1248 H1219 0.950 . S
C1248 C1247 1.334 . S
C1248 C1249 1.287 . S
C1249 C1248 1.287 . S
C1249 C1250 1.524 . S
C1249 H1252 0.999 . S
C1250 H1220 0.950 . S
C1250 C1249 1.524 . S
C1250 C1251 1.415 . S
C1251 H1221 0.950 . S
C1251 C1246 1.363 . S
C1251 C1250 1.415 . S
H1252 C1249 0.999 . S
H1253 C1234 0.913 . S
C373 C10 2.958 . S
C388 C331 2.939 . S
C423 C59 3.046 . S
C438 C258 3.005 . S
C473 C90 2.952 . S
C488 C297 2.933 . S
C523 C19 3.028 . S
C538 C336 2.986 . S
C588 C253 2.917 . S
C573 C50 2.939 . S
C638 C292 2.990 . S
C623 C99 3.033 . S
C673 C46 0.356 . S
C688 C180 0.359 . S
C723 C95 0.310 . S
C738 C214 0.253 . S
C773 C6 0.337 . S
C788 C136 0.336 . S
C838 C175 0.240 . S
C823 C55 0.296 . S
C888 C219 0.337 . S
C873 C86 0.333 . S
C923 C15 0.305 . S
C938 C141 0.248 . S
C988 C199 1.103 . S
C973 C9 1.079 . S
C1023 C49 1.077 . S
C1038 C121 1.102 . S
C1073 C89 1.080 . S
C1088 C160 1.105 . S
C1138 C277 1.777 . S
C1123 C58 1.698 . S
C1188 C316 1.779 . S
C1173 C98 1.701 . S
C1223 C18 1.699 . S
C1238 C238 1.779 . S
