# Generated by pormake.
# Topology the, (3,8)-cn, num edge types: 1
# Building blocks:
#     Node 0, Type 0, BuildingBlock: BETDIP_clean_linker_0, # of connection points: 3
#     Node 1, Type 0, BuildingBlock: BETDIP_clean_linker_0, # of connection points: 3
#     Node 2, Type 0, BuildingBlock: BETDIP_clean_linker_0, # of connection points: 3
#     Node 3, Type 0, BuildingBlock: BETDIP_clean_linker_0, # of connection points: 3
#     Node 4, Type 0, BuildingBlock: BETDIP_clean_linker_0, # of connection points: 3
#     Node 5, Type 0, BuildingBlock: BETDIP_clean_linker_0, # of connection points: 3
#     Node 6, Type 0, BuildingBlock: BETDIP_clean_linker_0, # of connection points: 3
#     Node 7, Type 0, BuildingBlock: BETDIP_clean_linker_0, # of connection points: 3
#     Node 8, Type 1, BuildingBlock: GIZVER_clean_sbu_0, # of connection points: 8
#     Node 9, Type 1, BuildingBlock: GIZVER_clean_sbu_0, # of connection points: 8
#     Node 10, Type 1, BuildingBlock: GIZVER_clean_sbu_0, # of connection points: 8
#     Edge 11, Type (0, 1), BuildingBlock: TEMPAE_clean_linker_10, # of connection points: 2
#     Edge 12, Type (0, 1), BuildingBlock: TEMPAE_clean_linker_10, # of connection points: 2
#     Edge 13, Type (0, 1), BuildingBlock: TEMPAE_clean_linker_10, # of connection points: 2
#     Edge 14, Type (0, 1), BuildingBlock: TEMPAE_clean_linker_10, # of connection points: 2
#     Edge 15, Type (0, 1), BuildingBlock: TEMPAE_clean_linker_10, # of connection points: 2
#     Edge 16, Type (0, 1), BuildingBlock: TEMPAE_clean_linker_10, # of connection points: 2
#     Edge 17, Type (0, 1), BuildingBlock: TEMPAE_clean_linker_10, # of connection points: 2
#     Edge 18, Type (0, 1), BuildingBlock: TEMPAE_clean_linker_10, # of connection points: 2
#     Edge 19, Type (0, 1), BuildingBlock: TEMPAE_clean_linker_10, # of connection points: 2
#     Edge 20, Type (0, 1), BuildingBlock: TEMPAE_clean_linker_10, # of connection points: 2
#     Edge 21, Type (0, 1), BuildingBlock: TEMPAE_clean_linker_10, # of connection points: 2
#     Edge 22, Type (0, 1), BuildingBlock: TEMPAE_clean_linker_10, # of connection points: 2
#     Edge 23, Type (0, 1), BuildingBlock: TEMPAE_clean_linker_10, # of connection points: 2
#     Edge 24, Type (0, 1), BuildingBlock: TEMPAE_clean_linker_10, # of connection points: 2
#     Edge 25, Type (0, 1), BuildingBlock: TEMPAE_clean_linker_10, # of connection points: 2
#     Edge 26, Type (0, 1), BuildingBlock: TEMPAE_clean_linker_10, # of connection points: 2
#     Edge 27, Type (0, 1), BuildingBlock: TEMPAE_clean_linker_10, # of connection points: 2
#     Edge 28, Type (0, 1), BuildingBlock: TEMPAE_clean_linker_10, # of connection points: 2
#     Edge 29, Type (0, 1), BuildingBlock: TEMPAE_clean_linker_10, # of connection points: 2
#     Edge 30, Type (0, 1), BuildingBlock: TEMPAE_clean_linker_10, # of connection points: 2
#     Edge 31, Type (0, 1), BuildingBlock: TEMPAE_clean_linker_10, # of connection points: 2
#     Edge 32, Type (0, 1), BuildingBlock: TEMPAE_clean_linker_10, # of connection points: 2
#     Edge 33, Type (0, 1), BuildingBlock: TEMPAE_clean_linker_10, # of connection points: 2
#     Edge 34, Type (0, 1), BuildingBlock: TEMPAE_clean_linker_10, # of connection points: 2
# Relax obj value: 0.085
# Max RMSD: 0.191
# Mean RMSD: 0.139
data_MOF--net-the--node1-GIZVER_clean_sbu_0--node2-BETDIP_clean_linker_0--edge1-TEMPAE_clean_linker_10
_symmetry_space_group_name_H-M    P1
_symmetry_Int_Tables_number       1
_symmetry_cell_setting            triclinic
loop_
_symmetry_equiv_pos_as_xyz
'x, y, z'
_cell_length_a     41.022848
_cell_length_b     38.462031
_cell_length_c     37.258055
_cell_angle_alpha  90.372278
_cell_angle_beta   90.709767
_cell_angle_gamma 109.92824
loop_
_atom_site_label
_atom_site_type_symbol
_atom_site_fract_x
_atom_site_fract_y
_atom_site_fract_z
_atom_type_partial_charge
H0 H 0.28024 0.31303 0.42677 0.0
H1 H 0.34231 0.32189 0.33342 0.0
H2 H 0.25472 0.3582 0.32907 0.0
H3 H 0.35382 0.27513 0.35457 0.0
C4 C 0.35128 0.2749 0.38351 0.0
C5 C 0.28485 0.32034 0.39881 0.0
C6 C 0.26478 0.3381 0.38057 0.0
C7 C 0.3115 0.31228 0.38132 0.0
C8 C 0.31963 0.3244 0.34597 0.0
C9 C 0.29943 0.34134 0.327 0.0
C10 C 0.27132 0.34672 0.34414 0.0
N11 N 0.3299 0.2925 0.40015 0.0
H12 H 0.74202 0.39101 0.30959 0.0
H13 H 0.65066 0.29629 0.29185 0.0
H14 H 0.72866 0.28891 0.36567 0.0
H15 H 0.66723 0.32024 0.23028 0.0
C16 C 0.66768 0.34791 0.23719 0.0
C17 C 0.72773 0.36229 0.31503 0.0
C18 C 0.74025 0.34256 0.34057 0.0
C19 C 0.69644 0.3452 0.29604 0.0
C20 C 0.67584 0.30891 0.30469 0.0
C21 C 0.68723 0.28908 0.33047 0.0
C22 C 0.7199 0.30535 0.34696 0.0
N23 N 0.68547 0.36521 0.26915 0.0
H24 H 0.71706 0.67705 0.29861 0.0
H25 H 0.7236 0.75601 0.38199 0.0
H26 H 0.65782 0.7495 0.28893 0.0
H27 H 0.77463 0.69058 0.31407 0.0
C28 C 0.77429 0.69243 0.34316 0.0
C29 C 0.71014 0.70002 0.30863 0.0
C30 C 0.68483 0.7105 0.29022 0.0
C31 C 0.72519 0.71772 0.34095 0.0
C32 C 0.71334 0.74467 0.35592 0.0
C33 C 0.68866 0.7566 0.3378 0.0
C34 C 0.6755 0.73985 0.30432 0.0
N35 N 0.75128 0.708 0.3598 0.0
H36 H 0.2474 0.67193 0.27816 0.0
H37 H 0.34367 0.76304 0.28437 0.0
H38 H 0.26998 0.74378 0.37005 0.0
H39 H 0.26237 0.66386 0.22337 0.0
C40 C 0.2905 0.67407 0.22346 0.0
C41 C 0.26446 0.69656 0.29149 0.0
C42 C 0.25457 0.70668 0.32474 0.0
C43 C 0.29681 0.71673 0.27699 0.0
C44 C 0.31887 0.74761 0.29586 0.0
C45 C 0.30966 0.75789 0.32959 0.0
C46 C 0.27729 0.73708 0.34374 0.0
N47 N 0.30949 0.70485 0.24549 0.0
H48 H 0.30043 0.6339 0.73782 0.0
H49 H 0.39732 0.72458 0.73937 0.0
H50 H 0.31651 0.72565 0.66589 0.0
H51 H 0.41534 0.67156 0.75038 0.0
C52 C 0.39801 0.66131 0.77273 0.0
C53 C 0.3166 0.66028 0.72738 0.0
C54 C 0.30389 0.67742 0.69977 0.0
C55 C 0.35045 0.67669 0.74133 0.0
C56 C 0.37149 0.71118 0.72825 0.0
C57 C 0.35885 0.72921 0.70174 0.0
C58 C 0.32533 0.71215 0.6875 0.0
N59 N 0.36262 0.65856 0.769 0.0
H60 H 0.32217 0.35178 0.74975 0.0
H61 H 0.30862 0.27194 0.6649 0.0
H62 H 0.38583 0.28287 0.74742 0.0
H63 H 0.28795 0.31184 0.63506 0.0
C64 C 0.27454 0.3224 0.65501 0.0
C65 C 0.32931 0.32975 0.73768 0.0
C66 C 0.35604 0.31928 0.75307 0.0
C67 C 0.31247 0.31342 0.70575 0.0
C68 C 0.3221 0.28549 0.68902 0.0
C69 C 0.34865 0.27423 0.70387 0.0
C70 C 0.36527 0.29121 0.73599 0.0
N71 N 0.28598 0.32585 0.69152 0.0
H72 H 0.69993 0.28202 0.74387 0.0
H73 H 0.80308 0.36002 0.75729 0.0
H74 H 0.78364 0.27178 0.68053 0.0
H75 H 0.77589 0.39766 0.77257 0.0
C76 C 0.75218 0.38159 0.78579 0.0
C77 C 0.7272 0.2908 0.73738 0.0
C78 C 0.73887 0.27199 0.7106 0.0
C79 C 0.74995 0.32282 0.75402 0.0
C80 C 0.78512 0.33533 0.74484 0.0
C81 C 0.79709 0.31749 0.71777 0.0
C82 C 0.77411 0.28544 0.70137 0.0
N83 N 0.73621 0.34317 0.77788 0.0
H84 H 0.68669 0.70115 0.69897 0.0
H85 H 0.74795 0.70642 0.60551 0.0
H86 H 0.77326 0.6626 0.70386 0.0
H87 H 0.71487 0.73385 0.57951 0.0
C88 C 0.6993 0.74139 0.59938 0.0
C89 C 0.70855 0.69647 0.68643 0.0
C90 C 0.72876 0.67978 0.70566 0.0
C91 C 0.71584 0.70719 0.65085 0.0
C92 C 0.743 0.69967 0.63344 0.0
C93 C 0.76349 0.68262 0.6521 0.0
C94 C 0.75668 0.67388 0.68854 0.0
N95 N 0.69559 0.72631 0.6344 0.0
Co96 Co 0.08489 0.48089 0.53908 0.0
Co97 Co 0.04736 0.45939 0.48061 0.0
Co98 Co 0.02042 0.51601 0.52179 0.0
O99 O 0.03721 0.47286 0.52578 0.0
H100 H 0.02097 0.45193 0.53764 0.0
O101 O 1.00389 0.55956 0.51796 0.0
Co102 Co 0.95706 0.55171 0.50214 0.0
Co103 Co 0.99114 0.5727 0.56229 0.0
H104 H 0.02064 0.58064 0.50681 0.0
O105 O 0.05003 0.4133 0.47123 0.0
O106 O 0.09318 0.46435 0.4906 0.0
O107 O 0.04817 0.49218 0.44164 0.0
O108 O 0.04912 0.53809 0.47863 0.0
O109 O 0.98122 0.4849 0.4896 0.0
O110 O 0.9155 0.54769 0.48563 0.0
O111 O 0.96404 0.59748 0.4833 0.0
O112 O 0.94376 0.50304 0.5185 0.0
O113 O 0.99212 0.49394 0.56505 0.0
O114 O 0.98831 0.53894 0.60096 0.0
O115 O 0.94597 0.56809 0.54944 0.0
O116 O 0.98751 0.61884 0.57145 0.0
C117 C 0.11222 0.45084 0.56294 0.0
C118 C 0.09096 0.55115 0.54679 0.0
C119 C 0.05468 0.52633 0.44796 0.0
C120 C 0.08264 0.4303 0.47871 0.0
C121 C 0.93107 0.58147 0.47554 0.0
C122 C 0.94973 0.48106 0.49618 0.0
C123 C 0.98509 0.50536 0.59527 0.0
C124 C 0.95546 0.60188 0.56172 0.0
O125 O 0.12746 0.48488 0.55322 0.0
O126 O 0.0789 0.43512 0.55683 0.0
O127 O 0.05945 0.5465 0.55399 0.0
O128 O 0.09741 0.53009 0.52369 0.0
Co129 Co 0.55182 0.94847 0.49371 0.0
Co130 Co 0.57106 0.98005 0.55723 0.0
Co131 Co 0.52062 0.01571 0.52278 0.0
O132 O 0.55985 0.99734 0.51363 0.0
H133 H 0.57985 0.01601 0.50381 0.0
O134 O 0.48114 0.03392 0.53196 0.0
Co135 Co 0.48855 0.08277 0.55156 0.0
Co136 Co 0.47049 0.05118 0.48851 0.0
H137 H 0.46106 0.0151 0.54157 0.0
O138 O 0.61298 0.97267 0.56471 0.0
O139 O 0.56383 0.93219 0.54101 0.0
O140 O 0.5398 0.97494 0.59696 0.0
O141 O 0.49809 0.97622 0.55918 0.0
O142 O 0.54921 0.04953 0.56084 0.0
O143 O 0.49189 0.1261 0.57088 0.0
O144 O 0.44429 0.07521 0.56638 0.0
O145 O 0.53621 0.09724 0.54092 0.0
O146 O 0.54324 0.05512 0.48626 0.0
O147 O 0.5012 0.05501 0.44839 0.0
O148 O 0.47727 0.09921 0.50384 0.0
O149 O 0.4285 0.05728 0.48056 0.0
C150 C 0.58095 0.92209 0.46751 0.0
C151 C 0.48517 0.94698 0.48632 0.0
C152 C 0.5079 0.96594 0.58872 0.0
C153 C 0.59535 0.93951 0.55332 0.0
C154 C 0.45922 0.10949 0.57732 0.0
C155 C 0.5551 0.08429 0.56025 0.0
C156 C 0.53318 0.06394 0.45616 0.0
C157 C 0.44593 0.09102 0.49056 0.0
O158 O 0.54843 0.90495 0.47438 0.0
O159 O 0.59563 0.95654 0.47789 0.0
O160 O 0.49216 0.98187 0.48466 0.0
O161 O 0.50412 0.93371 0.50524 0.0
Co162 Co 0.4689 0.52064 0.08743 0.0
Co163 Co 0.45936 0.45438 0.06278 0.0
Co164 Co 0.52193 0.51354 0.0217 0.0
O165 O 0.47528 0.50067 0.04257 0.0
H166 H 0.45841 0.5022 0.02485 0.0
O167 O 0.56833 0.52711 1.0 0.0
Co168 Co 0.57296 0.51176 0.95213 0.0
Co169 Co 0.58273 0.57636 0.98399 0.0
H170 H 0.58541 0.52369 0.01636 0.0
O171 O 0.41222 0.42932 0.07151 0.0
O172 O 0.45103 0.47062 0.10736 0.0
O173 O 0.49374 0.43198 0.0717 0.0
O174 O 0.53855 0.48081 0.05506 0.0
O175 O 0.50182 0.47153 0.98651 0.0
O176 O 0.58179 0.49784 0.90901 0.0
O177 O 0.61736 0.51429 0.95752 0.0
O178 O 0.52636 0.50544 0.94038 0.0
O179 O 0.50538 0.54584 0.98841 0.0
O180 O 0.54765 0.59973 0.98136 0.0
O181 O 0.58678 0.56335 0.93674 0.0
O182 O 0.62895 0.60268 0.97049 0.0
C183 C 0.43034 0.53573 0.10914 0.0
C184 C 0.53997 0.55008 0.09071 0.0
C185 C 0.52611 0.4496 0.0709 0.0
C186 C 0.42035 0.4464 0.10222 0.0
C187 C 0.61158 0.50217 0.92442 0.0
C188 C 0.50261 0.47774 0.95289 0.0
C189 C 0.51616 0.57922 0.97743 0.0
C190 C 0.61781 0.58723 0.93959 0.0
O191 O 0.45843 0.53935 0.12769 0.0
O192 O 0.426 0.52065 0.0772 0.0
O193 O 0.54211 0.5555 0.05693 0.0
O194 O 0.51407 0.52476 0.1034 0.0
C195 C 0.23224 0.38185 0.38956 0.0
C196 C 0.23792 0.34916 0.39936 0.0
C197 C 0.20601 0.39209 0.4051 0.0
C198 C 0.18612 0.37039 0.43288 0.0
C199 C 0.19254 0.33817 0.44416 0.0
C200 C 0.21792 0.32755 0.42676 0.0
C201 C 0.19944 0.42605 0.39134 0.0
C202 C 0.17253 0.31411 0.47395 0.0
C203 C 0.14236 0.42715 0.48363 0.0
C204 C 0.10818 0.41213 0.47061 0.0
C205 C 0.16741 0.41171 0.47411 0.0
C206 C 0.15853 0.38177 0.44929 0.0
C207 C 0.12387 0.36594 0.43664 0.0
C208 C 0.09893 0.38084 0.44808 0.0
C209 C 0.20362 0.42917 0.48949 0.0
C210 C 0.1135 0.33466 0.40943 0.0
H211 H 0.24827 0.39965 0.36946 0.0
H212 H 0.22167 0.30205 0.43447 0.0
H213 H 0.17126 0.42025 0.38686 0.0
H214 H 0.20877 0.44872 0.41151 0.0
H215 H 0.213 0.43597 0.36579 0.0
H216 H 0.19013 0.30452 0.491 0.0
H217 H 0.15908 0.32831 0.49127 0.0
H218 H 0.15292 0.28904 0.46202 0.0
H219 H 0.14996 0.45152 0.50074 0.0
H220 H 0.07255 0.36911 0.43784 0.0
H221 H 0.21657 0.45585 0.47598 0.0
H222 H 0.21976 0.4114 0.48634 0.0
H223 H 0.20246 0.43553 0.51848 0.0
H224 H 0.13036 0.34234 0.38561 0.0
H225 H 0.08605 0.32729 0.40038 0.0
H226 H 0.11702 0.30978 0.42126 0.0
C227 C 0.63215 0.24994 0.35835 0.0
C228 C 0.66387 0.25265 0.34292 0.0
C229 C 0.61144 0.21705 0.37446 0.0
C230 C 0.62233 0.18582 0.37435 0.0
C231 C 0.65368 0.18798 0.35736 0.0
C232 C 0.67437 0.22159 0.34232 0.0
C233 C 0.57865 0.21628 0.39298 0.0
C234 C 0.66574 0.15506 0.35583 0.0
C235 C 0.58808 0.11752 0.44977 0.0
C236 C 0.5585 0.09174 0.43369 0.0
C237 C 0.60955 0.14775 0.4305 0.0
C238 C 0.60185 0.15179 0.39391 0.0
C239 C 0.57317 0.12466 0.37697 0.0
C240 C 0.55151 0.09526 0.3972 0.0
C241 C 0.63933 0.17644 0.4499 0.0
C242 C 0.56466 0.12738 0.33779 0.0
H243 H 0.62429 0.27414 0.35921 0.0
H244 H 0.69894 0.22377 0.33036 0.0
H245 H 0.55608 0.19347 0.3819 0.0
H246 H 0.58071 0.21095 0.42202 0.0
H247 H 0.57348 0.24267 0.39004 0.0
H248 H 0.68879 0.16013 0.33862 0.0
H249 H 0.6725 0.14846 0.38326 0.0
H250 H 0.64459 0.13039 0.34535 0.0
H251 H 0.59346 0.11525 0.47806 0.0
H252 H 0.52874 0.07535 0.38463 0.0
H253 H 0.63478 0.20328 0.45042 0.0
H254 H 0.66389 0.18083 0.4355 0.0
H255 H 0.64265 0.16851 0.47798 0.0
H256 H 0.55553 0.15114 0.33387 0.0
H257 H 0.54418 0.10193 0.32763 0.0
H258 H 0.58819 0.13245 0.32138 0.0
C259 C 0.80062 0.68178 0.40192 0.0
C260 C 0.79958 0.68057 0.36425 0.0
C261 C 0.82388 0.66902 0.4214 0.0
C262 C 0.84649 0.65458 0.40278 0.0
C263 C 0.84606 0.65423 0.36475 0.0
C264 C 0.82264 0.66719 0.34603 0.0
C265 C 0.82325 0.66964 0.4619 0.0
C266 C 0.86957 0.63901 0.34379 0.0
C267 C 0.92358 0.63915 0.45023 0.0
C268 C 0.91019 0.60112 0.45705 0.0
C269 C 0.90299 0.65722 0.4332 0.0
C270 C 0.86833 0.63674 0.42271 0.0
C271 C 0.8547 0.59847 0.42995 0.0
C272 C 0.8757 0.58122 0.44691 0.0
C273 C 0.9183 0.69816 0.4263 0.0
C274 C 0.81791 0.57549 0.41945 0.0
H275 H 0.78289 0.69209 0.41624 0.0
H276 H 0.82197 0.66632 0.31692 0.0
H277 H 0.81001 0.64117 0.47163 0.0
H278 H 0.84995 0.67933 0.47339 0.0
H279 H 0.80922 0.68766 0.47225 0.0
H280 H 0.86774 0.64299 0.31442 0.0
H281 H 0.89691 0.65258 0.35273 0.0
H282 H 0.86259 0.60898 0.34892 0.0
H283 H 0.95003 0.6548 0.45829 0.0
H284 H 0.86492 0.55183 0.45212 0.0
H285 H 0.90223 0.71271 0.43911 0.0
H286 H 0.91813 0.70329 0.39704 0.0
H287 H 0.94535 0.71033 0.43674 0.0
H288 H 0.79948 0.58708 0.43218 0.0
H289 H 0.81109 0.54613 0.42748 0.0
H290 H 0.81426 0.57639 0.38996 0.0
C291 C 0.32249 0.81138 0.37322 0.0
C292 C 0.33449 0.78868 0.35113 0.0
C293 C 0.34531 0.83849 0.39576 0.0
C294 C 0.38115 0.84374 0.39559 0.0
C295 C 0.39365 0.82187 0.37254 0.0
C296 C 0.37018 0.79436 0.35096 0.0
C297 C 0.33094 0.86089 0.42038 0.0
C298 C 0.43181 0.82704 0.37117 0.0
C299 C 0.44665 0.93325 0.43186 0.0
C300 C 0.45639 0.92168 0.46463 0.0
C301 C 0.42175 0.90831 0.40928 0.0
C302 C 0.40562 0.87127 0.42026 0.0
C303 C 0.41424 0.85999 0.45413 0.0
C304 C 0.4399 0.88521 0.47569 0.0
C305 C 0.41379 0.92118 0.37308 0.0
C306 C 0.39694 0.82104 0.46728 0.0
H307 H 0.29513 0.80781 0.37315 0.0
H308 H 0.37982 0.77667 0.33465 0.0
H309 H 0.33678 0.85619 0.44873 0.0
H310 H 0.34356 0.89083 0.41523 0.0
H311 H 0.30245 0.85368 0.41704 0.0
H312 H 0.43761 0.80962 0.34999 0.0
H313 H 0.44713 0.85644 0.36605 0.0
H314 H 0.44066 0.81982 0.39744 0.0
H315 H 0.45956 0.9614 0.42318 0.0
H316 H 0.4472 0.87633 0.50119 0.0
H317 H 0.38549 0.91508 0.36966 0.0
H318 H 0.42189 0.90591 0.35156 0.0
H319 H 0.42729 0.95129 0.36932 0.0
H320 H 0.36832 0.81328 0.46531 0.0
H321 H 0.40427 0.8177 0.49553 0.0
H322 H 0.40437 0.80138 0.4501 0.0
C323 C 0.24894 0.67966 0.67043 0.0
C324 C 0.26914 0.65878 0.68232 0.0
C325 C 0.21837 0.66343 0.65006 0.0
C326 C 0.20708 0.62511 0.64195 0.0
C327 C 0.22627 0.60344 0.65542 0.0
C328 C 0.25714 0.62054 0.67518 0.0
C329 C 0.19895 0.68764 0.63592 0.0
C330 C 0.21485 0.56235 0.64786 0.0
C331 C 0.1144 0.57702 0.60752 0.0
C332 C 0.11965 0.57342 0.57076 0.0
C333 C 0.14257 0.59386 0.63109 0.0
C334 C 0.17661 0.6082 0.6174 0.0
C335 C 0.18174 0.60587 0.58005 0.0
C336 C 0.1533 0.58811 0.55731 0.0
C337 C 0.13607 0.59506 0.67079 0.0
C338 C 0.21741 0.62155 0.56412 0.0
H339 H 0.25738 0.70902 0.67644 0.0
H340 H 0.27254 0.60407 0.68383 0.0
H341 H 0.19961 0.68787 0.60615 0.0
H342 H 0.17133 0.67638 0.64364 0.0
H343 H 0.21016 0.71659 0.64601 0.0
H344 H 0.23055 0.54881 0.66316 0.0
H345 H 0.18716 0.54891 0.65471 0.0
H346 H 0.21728 0.5574 0.61881 0.0
H347 H 0.08849 0.56522 0.6181 0.0
H348 H 0.15741 0.58537 0.52888 0.0
H349 H 0.14697 0.62387 0.68118 0.0
H350 H 0.14945 0.57861 0.68539 0.0
H351 H 0.10801 0.58393 0.67702 0.0
H352 H 0.22974 0.651 0.57223 0.0
H353 H 0.21667 0.61963 0.53433 0.0
H354 H 0.23414 0.60638 0.57452 0.0
C355 C 0.36407 0.24686 0.64777 0.0
C356 C 0.3601 0.2459 0.68515 0.0
C357 C 0.37716 0.22217 0.62997 0.0
C358 C 0.38659 0.19569 0.64984 0.0
C359 C 0.38163 0.19377 0.68745 0.0
C360 C 0.36849 0.21885 0.70462 0.0
C361 C 0.3821 0.22533 0.58997 0.0
C362 C 0.3913 0.16604 0.70974 0.0
C363 C 0.40362 0.11667 0.59915 0.0
C364 C 0.43986 0.13046 0.59627 0.0
C365 C 0.38581 0.13737 0.61667 0.0
C366 C 0.40468 0.17259 0.63178 0.0
C367 C 0.44123 0.18642 0.62907 0.0
C368 C 0.45825 0.16534 0.61138 0.0
C369 C 0.34681 0.12176 0.61872 0.0
C370 C 0.46251 0.22374 0.64469 0.0
H371 H 0.35809 0.26784 0.63246 0.0
H372 H 0.36505 0.21745 0.73343 0.0
H373 H 0.41012 0.23388 0.58388 0.0
H374 H 0.36919 0.19803 0.57685 0.0
H375 H 0.37152 0.24576 0.57807 0.0
H376 H 0.38338 0.16609 0.73814 0.0
H377 H 0.37903 0.13779 0.69832 0.0
H378 H 0.41979 0.17245 0.70919 0.0
H379 H 0.38915 0.0899 0.58743 0.0
H380 H 0.48625 0.17637 0.60947 0.0
H381 H 0.33532 0.14013 0.60443 0.0
H382 H 0.33869 0.12063 0.64711 0.0
H383 H 0.33599 0.09356 0.60671 0.0
H384 H 0.45474 0.24572 0.63184 0.0
H385 H 0.49078 0.23023 0.64092 0.0
H386 H 0.45759 0.22466 0.67384 0.0
C387 C 0.86094 0.35158 0.72456 0.0
C388 C 0.83157 0.33652 0.70234 0.0
C389 C 0.89179 0.3764 0.71087 0.0
C390 C 0.89275 0.38691 0.67446 0.0
C391 C 0.86388 0.36982 0.65147 0.0
C392 C 0.83372 0.34459 0.66567 0.0
C393 C 0.92247 0.3931 0.73588 0.0
C394 C 0.86369 0.38047 0.6125 0.0
C395 C 0.94242 0.48374 0.64424 0.0
C396 C 0.96701 0.47737 0.62183 0.0
C397 C 0.91942 0.45479 0.66362 0.0
C398 C 0.92171 0.41892 0.6611 0.0
C399 C 0.9487 0.41323 0.64133 0.0
C400 C 0.97081 0.44248 0.62147 0.0
C401 C 0.89077 0.46196 0.68414 0.0
C402 C 0.95272 0.37572 0.63904 0.0
H403 H 0.85929 0.34514 0.75291 0.0
H404 H 0.81091 0.3333 0.64855 0.0
H405 H 0.94702 0.39503 0.72247 0.0
H406 H 0.92409 0.42156 0.74357 0.0
H407 H 0.92022 0.37675 0.76078 0.0
H408 H 0.84009 0.36279 0.59775 0.0
H409 H 0.86486 0.40967 0.61077 0.0
H410 H 0.88679 0.37837 0.59879 0.0
H411 H 0.93936 0.51065 0.64457 0.0
H412 H 0.99016 0.43762 0.60451 0.0
H413 H 0.88932 0.45088 0.71169 0.0
H414 H 0.86549 0.44749 0.67051 0.0
H415 H 0.89441 0.4919 0.68599 0.0
H416 H 0.94869 0.36217 0.66562 0.0
H417 H 0.97872 0.37761 0.6292 0.0
H418 H 0.93287 0.35771 0.62021 0.0
C419 C 0.68494 0.78286 0.55541 0.0
C420 C 0.68248 0.76871 0.59017 0.0
C421 C 0.67026 0.80982 0.54653 0.0
C422 C 0.65319 0.82326 0.57328 0.0
C423 C 0.65043 0.80881 0.60838 0.0
C424 C 0.66493 0.78157 0.61635 0.0
C425 C 0.67427 0.82462 0.50886 0.0
C426 C 0.63289 0.82277 0.63779 0.0
C427 C 0.6458 0.91851 0.56494 0.0
C428 C 0.61064 0.90986 0.55581 0.0
C429 C 0.66021 0.8906 0.5697 0.0
C430 C 0.63896 0.85313 0.56516 0.0
C431 C 0.60372 0.84426 0.55477 0.0
C432 C 0.58993 0.87274 0.55037 0.0
C433 C 0.69794 0.90114 0.58062 0.0
C434 C 0.58012 0.80468 0.54963 0.0
H435 H 0.69865 0.7731 0.53517 0.0
H436 H 0.66299 0.77091 0.64338 0.0
H437 H 0.65242 0.83371 0.50059 0.0
H438 H 0.69849 0.84889 0.50766 0.0
H439 H 0.67634 0.80363 0.48924 0.0
H440 H 0.63305 0.80874 0.66373 0.0
H441 H 0.64615 0.85296 0.64185 0.0
H442 H 0.60561 0.81843 0.62994 0.0
H443 H 0.66205 0.94716 0.56892 0.0
H444 H 0.56271 0.86579 0.54335 0.0
H445 H 0.71188 0.89013 0.56066 0.0
H446 H 0.70023 0.88862 0.60686 0.0
H447 H 0.71099 0.93157 0.58289 0.0
H448 H 0.55674 0.80276 0.53325 0.0
H449 H 0.5714 0.79248 0.57623 0.0
H450 H 0.59385 0.78774 0.53658 0.0
C451 C 0.38656 0.23394 0.38597 0.0
C452 C 0.36705 0.25188 0.40414 0.0
C453 C 0.40027 0.21006 0.40399 0.0
C454 C 0.39425 0.20398 0.44113 0.0
C455 C 0.37535 0.22283 0.45983 0.0
C456 C 0.36195 0.24668 0.44111 0.0
C457 C 0.42029 0.19046 0.38303 0.0
C458 C 0.36872 0.21719 0.49941 0.0
C459 C 0.39696 0.11116 0.47068 0.0
C460 C 0.4312 0.1205 0.48345 0.0
C461 C 0.38398 0.13841 0.4587 0.0
C462 C 0.40579 0.17591 0.45948 0.0
C463 C 0.43962 0.18579 0.47459 0.0
C464 C 0.45194 0.15791 0.48649 0.0
C465 C 0.34758 0.12676 0.44322 0.0
C466 C 0.46353 0.22554 0.4762 0.0
H467 H 0.39059 0.23809 0.35737 0.0
H468 H 0.347 0.26064 0.45533 0.0
H469 H 0.44606 0.19545 0.39584 0.0
H470 H 0.4062 0.16018 0.38318 0.0
H471 H 0.42413 0.19964 0.35471 0.0
H472 H 0.35514 0.23535 0.51044 0.0
H473 H 0.35276 0.18797 0.50443 0.0
H474 H 0.39367 0.22284 0.51413 0.0
H475 H 0.38056 0.08236 0.46878 0.0
H476 H 0.47834 0.16537 0.49665 0.0
H477 H 0.34867 0.13176 0.41388 0.0
H478 H 0.33309 0.14346 0.45524 0.0
H479 H 0.3329 0.09703 0.44773 0.0
H480 H 0.4721 0.23495 0.4487 0.0
H481 H 0.48689 0.22913 0.49324 0.0
H482 H 0.44982 0.24371 0.48679 0.0
C483 C 0.80039 0.39112 0.34767 0.0
C484 C 0.77357 0.36075 0.36147 0.0
C485 C 0.83056 0.4096 0.36808 0.0
C486 C 0.83513 0.39643 0.40253 0.0
C487 C 0.80921 0.36482 0.41593 0.0
C488 C 0.77852 0.3482 0.39591 0.0
C489 C 0.85685 0.44421 0.35339 0.0
C490 C 0.81335 0.34906 0.45206 0.0
C491 C 0.92505 0.4327 0.44746 0.0
C492 C 0.92057 0.45774 0.47286 0.0
C493 C 0.8974 0.41203 0.42465 0.0
C494 C 0.86505 0.41779 0.4262 0.0
C495 C 0.86062 0.44327 0.45156 0.0
C496 C 0.88786 0.46173 0.4753 0.0
C497 C 0.90261 0.38372 0.39927 0.0
C498 C 0.82715 0.45145 0.4535 0.0
H499 H 0.79788 0.40095 0.321 0.0
H500 H 0.75815 0.32581 0.40806 0.0
H501 H 0.85871 0.46812 0.37116 0.0
H502 H 0.8829 0.44151 0.35302 0.0
H503 H 0.85 0.45041 0.32581 0.0
H504 H 0.79391 0.32107 0.4559 0.0
H505 H 0.83969 0.3473 0.45513 0.0
H506 H 0.81019 0.36748 0.47374 0.0
H507 H 0.95 0.42897 0.44566 0.0
H508 H 0.88348 0.47996 0.49548 0.0
H509 H 0.89887 0.39095 0.37113 0.0
H510 H 0.88293 0.35618 0.4043 0.0
H511 H 0.92885 0.3816 0.40217 0.0
H512 H 0.81947 0.45813 0.42645 0.0
H513 H 0.82929 0.47497 0.47195 0.0
H514 H 0.80603 0.42675 0.46298 0.0
C515 C 0.69643 0.81185 0.37906 0.0
C516 C 0.67584 0.78541 0.35428 0.0
C517 C 0.68353 0.83655 0.39717 0.0
C518 C 0.64968 0.83656 0.38897 0.0
C519 C 0.62981 0.81213 0.36189 0.0
C520 C 0.64251 0.78617 0.34599 0.0
C521 C 0.70674 0.86221 0.42504 0.0
C522 C 0.59467 0.81248 0.34962 0.0
C523 C 0.59224 0.86353 0.45512 0.0
C524 C 0.60073 0.90152 0.44914 0.0
C525 C 0.60898 0.84258 0.43679 0.0
C526 C 0.63381 0.85959 0.41041 0.0
C527 C 0.64234 0.89802 0.40406 0.0
C528 C 0.62633 0.91872 0.42421 0.0
C529 C 0.59932 0.802 0.4453 0.0
C530 C 0.66772 0.91724 0.37551 0.0
H531 H 0.72277 0.81329 0.38491 0.0
H532 H 0.6256 0.76607 0.32748 0.0
H533 H 0.72643 0.88524 0.41121 0.0
H534 H 0.69254 0.87408 0.44388 0.0
H535 H 0.72107 0.84748 0.44081 0.0
H536 H 0.59125 0.80733 0.32021 0.0
H537 H 0.5741 0.78974 0.36276 0.0
H538 H 0.59076 0.83904 0.35578 0.0
H539 H 0.5724 0.85004 0.47432 0.0
H540 H 0.63272 0.94803 0.41929 0.0
H541 H 0.62222 0.79288 0.44441 0.0
H542 H 0.57998 0.78545 0.42526 0.0
H543 H 0.58745 0.79564 0.47212 0.0
H544 H 0.69451 0.92307 0.3859 0.0
H545 H 0.66495 0.94397 0.36782 0.0
H546 H 0.66421 0.89955 0.3511 0.0
C547 C 0.19047 0.67359 0.32083 0.0
C548 C 0.22155 0.68351 0.34079 0.0
C549 C 0.15944 0.6497 0.33503 0.0
C550 C 0.1598 0.63496 0.36968 0.0
C551 C 0.19105 0.64546 0.39016 0.0
C552 C 0.22152 0.66982 0.37552 0.0
C553 C 0.12648 0.63965 0.31275 0.0
C554 C 0.19259 0.63 0.42709 0.0
C555 C 0.08068 0.59123 0.4264 0.0
C556 C 0.07597 0.55354 0.42222 0.0
C557 C 0.10636 0.61815 0.40738 0.0
C558 C 0.12812 0.60706 0.38414 0.0
C559 C 0.1219 0.56898 0.37794 0.0
C560 C 0.09567 0.54264 0.39682 0.0
C561 C 0.11168 0.65848 0.41402 0.0
C562 C 0.14474 0.55603 0.35359 0.0
H563 H 0.19053 0.68443 0.29403 0.0
H564 H 0.24565 0.67718 0.39077 0.0
H565 H 0.11756 0.6098 0.30564 0.0
H566 H 0.1056 0.64454 0.32844 0.0
H567 H 0.13003 0.65577 0.28758 0.0
H568 H 0.21878 0.64159 0.43975 0.0
H569 H 0.17366 0.63601 0.44491 0.0
H570 H 0.18536 0.59948 0.42527 0.0
H571 H 0.06532 0.59983 0.44574 0.0
H572 H 0.09228 0.5136 0.39343 0.0
H573 H 0.11549 0.67371 0.38835 0.0
H574 H 0.1354 0.6711 0.43077 0.0
H575 H 0.08942 0.66232 0.42813 0.0
H576 H 0.1476 0.57006 0.32732 0.0
H577 H 0.13437 0.52564 0.34885 0.0
H578 H 0.17103 0.56335 0.3659 0.0
C579 C 0.36911 0.79612 0.69092 0.0
C580 C 0.38066 0.76586 0.68841 0.0
C581 C 0.38888 0.83077 0.67729 0.0
C582 C 0.42045 0.8349 0.65985 0.0
C583 C 0.43221 0.80432 0.65734 0.0
C584 C 0.41235 0.77025 0.6721 0.0
C585 C 0.37585 0.86285 0.68125 0.0
C586 C 0.46529 0.8073 0.63823 0.0
C587 C 0.45401 0.9106 0.59081 0.0
C588 C 0.4827 0.93572 0.60892 0.0
C589 C 0.43323 0.87798 0.60725 0.0
C590 C 0.44064 0.87077 0.6431 0.0
C591 C 0.46835 0.89705 0.66222 0.0
C592 C 0.48939 0.92896 0.64473 0.0
C593 C 0.40454 0.85035 0.58553 0.0
C594 C 0.47647 0.89088 0.70079 0.0
H595 H 0.34462 0.79263 0.70372 0.0
H596 H 0.42106 0.74669 0.66996 0.0
H597 H 0.39615 0.88673 0.69418 0.0
H598 H 0.37018 0.8719 0.6544 0.0
H599 H 0.35197 0.85567 0.69748 0.0
H600 H 0.47077 0.78094 0.63855 0.0
H601 H 0.46349 0.81529 0.6099 0.0
H602 H 0.48754 0.82926 0.65095 0.0
H603 H 0.44889 0.91534 0.56299 0.0
H604 H 0.51152 0.94827 0.65884 0.0
H605 H 0.37965 0.84299 0.59994 0.0
H606 H 0.41056 0.82453 0.58188 0.0
H607 H 0.40102 0.86095 0.55861 0.0
H608 H 0.45266 0.88386 0.71706 0.0
H609 H 0.49651 0.91555 0.71293 0.0
H610 H 0.48597 0.86715 0.7023 0.0
C611 C 0.24429 0.3436 0.60579 0.0
C612 C 0.24821 0.33848 0.64256 0.0
C613 C 0.22079 0.36023 0.59306 0.0
C614 C 0.20033 0.37174 0.61769 0.0
C615 C 0.20356 0.36574 0.65487 0.0
C616 C 0.2276 0.34938 0.6669 0.0
C617 C 0.21937 0.36708 0.55337 0.0
C618 C 0.18209 0.37726 0.68203 0.0
C619 C 0.16811 0.44945 0.5893 0.0
C620 C 0.13365 0.43018 0.57863 0.0
C621 C 0.18984 0.43083 0.60228 0.0
C622 C 0.17697 0.3918 0.60478 0.0
C623 C 0.14213 0.37212 0.5943 0.0
C624 C 0.12084 0.39153 0.58142 0.0
C625 C 0.22687 0.45298 0.61264 0.0
C626 C 0.12765 0.33048 0.59586 0.0
H627 H 0.2603 0.3354 0.58691 0.0
H628 H 0.2303 0.34528 0.69538 0.0
H629 H 0.19259 0.36318 0.544 0.0
H630 H 0.23569 0.39609 0.54804 0.0
H631 H 0.22961 0.34871 0.53737 0.0
H632 H 0.18633 0.36899 0.70973 0.0
H633 H 0.18868 0.40773 0.68162 0.0
H634 H 0.15413 0.36472 0.67494 0.0
H635 H 0.17836 0.47932 0.58722 0.0
H636 H 0.09443 0.37637 0.57285 0.0
H637 H 0.24482 0.44517 0.59487 0.0
H638 H 0.23251 0.44666 0.64057 0.0
H639 H 0.23245 0.48326 0.61059 0.0
H640 H 0.14209 0.31856 0.57726 0.0
H641 H 0.09966 0.31932 0.5884 0.0
H642 H 0.13116 0.32111 0.62329 0.0
C643 C 0.68528 0.21517 0.70657 0.0
C644 C 0.71377 0.24083 0.68979 0.0
C645 C 0.66003 0.1876 0.68658 0.0
C646 C 0.66365 0.18524 0.64899 0.0
C647 C 0.69297 0.21008 0.63207 0.0
C648 C 0.7174 0.23779 0.65255 0.0
C649 C 0.62886 0.16186 0.70548 0.0
C650 C 0.69794 0.20825 0.59208 0.0
C651 C 0.60915 0.09833 0.59811 0.0
C652 C 0.58312 0.10981 0.58286 0.0
C653 C 0.6356 0.12253 0.61978 0.0
C654 C 0.63556 0.15875 0.62684 0.0
C655 C 0.60909 0.17027 0.61186 0.0
C656 C 0.58346 0.14582 0.58977 0.0
C657 C 0.6638 0.10957 0.63473 0.0
C658 C 0.60782 0.20847 0.61914 0.0
H659 H 0.68244 0.21691 0.73534 0.0
H660 H 0.73878 0.25784 0.63902 0.0
H661 H 0.60504 0.16647 0.6956 0.0
H662 H 0.62581 0.13266 0.69934 0.0
H663 H 0.63078 0.16604 0.73507 0.0
H664 H 0.72375 0.22714 0.58364 0.0
H665 H 0.69514 0.17963 0.58368 0.0
H666 H 0.67766 0.21592 0.57755 0.0
H667 H 0.6091 0.07057 0.59277 0.0
H668 H 0.56337 0.15488 0.57824 0.0
H669 H 0.66475 0.11191 0.66444 0.0
H670 H 0.68938 0.12751 0.62487 0.0
H671 H 0.65992 0.08046 0.62702 0.0
H672 H 0.60773 0.21347 0.6485 0.0
H673 H 0.58455 0.21247 0.60685 0.0
H674 H 0.63127 0.22966 0.60837 0.0
C675 C 0.79875 0.6413 0.64392 0.0
C676 C 0.79159 0.67312 0.63387 0.0
C677 C 0.82637 0.63288 0.62912 0.0
C678 C 0.84641 0.65575 0.60212 0.0
C679 C 0.83831 0.68678 0.59028 0.0
C680 C 0.81151 0.6956 0.60688 0.0
C681 C 0.83437 0.59973 0.64287 0.0
C682 C 0.85818 0.71109 0.56059 0.0
C683 C 0.93575 0.64878 0.59285 0.0
C684 C 0.92899 0.61928 0.56832 0.0
C685 C 0.90943 0.66231 0.60294 0.0
C686 C 0.876 0.6469 0.58702 0.0
C687 C 0.86989 0.6193 0.56004 0.0
C688 C 0.89608 0.60495 0.55193 0.0
C689 C 0.91676 0.69132 0.63229 0.0
C690 C 0.83518 0.60351 0.54099 0.0
H691 H 0.78285 0.62281 0.66364 0.0
H692 H 0.80662 0.72044 0.59896 0.0
H693 H 0.83059 0.57898 0.62099 0.0
H694 H 0.86189 0.60819 0.6519 0.0
H695 H 0.81767 0.58624 0.66561 0.0
H696 H 0.88224 0.73159 0.57193 0.0
H697 H 0.86571 0.69469 0.5397 0.0
H698 H 0.84278 0.7265 0.54763 0.0
H699 H 0.96108 0.65994 0.60574 0.0
H700 H 0.8903 0.58188 0.53336 0.0
H701 H 0.90078 0.6795 0.656 0.0
H702 H 0.90945 0.71507 0.62315 0.0
H703 H 0.9445 0.70166 0.64079 0.0
H704 H 0.81692 0.58256 0.55822 0.0
H705 H 0.83731 0.5899 0.51516 0.0
H706 H 0.8239 0.62543 0.53558 0.0
C707 C 0.32318 0.3361 0.26629 0.0
C708 C 0.30906 0.35535 0.2901 0.0
C709 C 0.33696 0.3515 0.23351 0.0
C710 C 0.33554 0.38647 0.22376 0.0
C711 C 0.31886 0.40473 0.24625 0.0
C712 C 0.30629 0.38924 0.27944 0.0
C713 C 0.35507 0.33143 0.21047 0.0
C714 C 0.316 0.44159 0.23622 0.0
C715 C 0.41056 0.44345 0.16787 0.0
C716 C 0.39697 0.43483 0.13295 0.0
C717 C 0.39038 0.42878 0.19771 0.0
C718 C 0.35544 0.40577 0.19252 0.0
C719 C 0.34081 0.39907 0.15747 0.0
C720 C 0.36196 0.41329 0.12792 0.0
C721 C 0.40712 0.43622 0.23466 0.0
C722 C 0.30324 0.37587 0.15113 0.0
H723 H 0.32453 0.30944 0.27378 0.0
H724 H 0.29569 0.4046 0.29761 0.0
H725 H 0.34475 0.32843 0.18255 0.0
H726 H 0.38315 0.34783 0.20949 0.0
H727 H 0.35212 0.30352 0.22085 0.0
H728 H 0.29698 0.44872 0.25308 0.0
H729 H 0.34162 0.46367 0.23981 0.0
H730 H 0.30817 0.44149 0.20759 0.0
H731 H 0.43758 0.46025 0.17196 0.0
H732 H 0.35126 0.40705 0.10094 0.0
H733 H 0.40693 0.40982 0.24669 0.0
H734 H 0.39223 0.4482 0.25257 0.0
H735 H 0.43435 0.45548 0.23405 0.0
H736 H 0.29939 0.34649 0.15687 0.0
H737 H 0.29468 0.37773 0.12302 0.0
H738 H 0.2864 0.38469 0.16955 0.0
C739 C 0.39432 0.64271 0.83776 0.0
C740 C 0.41147 0.64763 0.80486 0.0
C741 C 0.40855 0.63169 0.86847 0.0
C742 C 0.44025 0.62473 0.86596 0.0
C743 C 0.45715 0.6289 0.83251 0.0
C744 C 0.44278 0.64074 0.80257 0.0
C745 C 0.39007 0.62823 0.90374 0.0
C746 C 0.49053 0.62096 0.82833 0.0
C747 C 0.5005 0.62908 0.9458 0.0
C748 C 0.49322 0.59149 0.95316 0.0
C749 C 0.48199 0.64038 0.9189 0.0
C750 C 0.45623 0.61345 0.89815 0.0
C751 C 0.44797 0.57552 0.90629 0.0
C752 C 0.46618 0.56508 0.934 0.0
C753 C 0.4911 0.68113 0.91165 0.0
C754 C 0.42134 0.54579 0.88439 0.0
H755 H 0.37025 0.64834 0.83974 0.0
H756 H 0.45604 0.64448 0.77713 0.0
H757 H 0.38405 0.59988 0.91433 0.0
H758 H 0.40722 0.64758 0.92382 0.0
H759 H 0.36555 0.63432 0.90121 0.0
H760 H 0.4996 0.624 0.80017 0.0
H761 H 0.51115 0.64009 0.84566 0.0
H762 H 0.48695 0.5924 0.83714 0.0
H763 H 0.52124 0.64966 0.96052 0.0
H764 H 0.46045 0.53593 0.93925 0.0
H765 H 0.46725 0.68855 0.91003 0.0
H766 H 0.50413 0.68775 0.88539 0.0
H767 H 0.50864 0.6986 0.9327 0.0
H768 H 0.39631 0.55088 0.88373 0.0
H769 H 0.41687 0.51766 0.89509 0.0
H770 H 0.43013 0.54651 0.85627 0.0
C771 C 0.41124 0.34718 0.78952 0.0
C772 C 0.37524 0.33896 0.78591 0.0
C773 C 0.42995 0.36764 0.81908 0.0
C774 C 0.41251 0.38094 0.84554 0.0
C775 C 0.37615 0.37222 0.84254 0.0
C776 C 0.35796 0.3511 0.81304 0.0
C777 C 0.46867 0.37603 0.82136 0.0
C778 C 0.35659 0.38617 0.86993 0.0
C779 C 0.46072 0.4154 0.9343 0.0
C780 C 0.47644 0.45324 0.92764 0.0
C781 C 0.43922 0.3915 0.90814 0.0
C782 C 0.43277 0.406 0.87493 0.0
C783 C 0.44726 0.44452 0.86894 0.0
C784 C 0.46913 0.46753 0.89516 0.0
C785 C 0.42464 0.35058 0.91541 0.0
C786 C 0.44041 0.46138 0.8344 0.0
H787 H 0.42514 0.33863 0.76865 0.0
H788 H 0.33011 0.34439 0.81108 0.0
H789 H 0.48229 0.40616 0.81825 0.0
H790 H 0.47611 0.3683 0.84809 0.0
H791 H 0.47791 0.36113 0.80035 0.0
H792 H 0.32816 0.37564 0.86466 0.0
H793 H 0.36169 0.37781 0.89728 0.0
H794 H 0.36578 0.41685 0.86972 0.0
H795 H 0.46644 0.40421 0.95928 0.0
H796 H 0.48092 0.49686 0.89 0.0
H797 H 0.43615 0.33559 0.89666 0.0
H798 H 0.3962 0.33998 0.91055 0.0
H799 H 0.43006 0.34398 0.94336 0.0
H800 H 0.4508 0.45014 0.81144 0.0
H801 H 0.45245 0.49201 0.83458 0.0
H802 H 0.41208 0.45398 0.82975 0.0
C803 C 0.74976 0.44021 0.81215 0.0
C804 C 0.73465 0.40177 0.80789 0.0
C805 C 0.73313 0.46049 0.83165 0.0
C806 C 0.70065 0.44177 0.8472 0.0
C807 C 0.68554 0.40284 0.84344 0.0
C808 C 0.70275 0.38327 0.82383 0.0
C809 C 0.74999 0.50195 0.83508 0.0
C810 C 0.65086 0.38192 0.85963 0.0
C811 C 0.66388 0.48297 0.92273 0.0
C812 C 0.63807 0.49236 0.90442 0.0
C813 C 0.68569 0.46801 0.90419 0.0
C814 C 0.68169 0.46273 0.86652 0.0
C815 C 0.65732 0.47467 0.84768 0.0
C816 C 0.63568 0.48921 0.8669 0.0
C817 C 0.71163 0.45592 0.92514 0.0
C818 C 0.65275 0.47025 0.80743 0.0
H819 H 0.77447 0.4545 0.79982 0.0
H820 H 0.69099 0.35355 0.82068 0.0
H821 H 0.73324 0.51573 0.82211 0.0
H822 H 0.75286 0.51044 0.86379 0.0
H823 H 0.77592 0.51214 0.82253 0.0
H824 H 0.64312 0.35159 0.85507 0.0
H825 H 0.65173 0.38741 0.88896 0.0
H826 H 0.63055 0.3916 0.84781 0.0
H827 H 0.66587 0.48552 0.95173 0.0
H828 H 0.61616 0.49711 0.85258 0.0
H829 H 0.7375 0.4666 0.91262 0.0
H830 H 0.70338 0.42528 0.92469 0.0
H831 H 0.71412 0.46552 0.95356 0.0
H832 H 0.67817 0.48156 0.79409 0.0
H833 H 0.63527 0.48437 0.79655 0.0
H834 H 0.64167 0.44042 0.80029 0.0
C835 C 0.7217 0.63344 0.7548 0.0
C836 C 0.71981 0.66739 0.74314 0.0
C837 C 0.70994 0.61971 0.78883 0.0
C838 C 0.69528 0.64004 0.81133 0.0
C839 C 0.6947 0.67501 0.80041 0.0
C840 C 0.70738 0.68845 0.76665 0.0
C841 C 0.71162 0.58264 0.79992 0.0
C842 C 0.67883 0.6973 0.82348 0.0
C843 C 0.62288 0.58889 0.87323 0.0
C844 C 0.63892 0.59817 0.90709 0.0
C845 C 0.64131 0.60141 0.84183 0.0
C846 C 0.67688 0.62316 0.84429 0.0
C847 C 0.69376 0.63093 0.87828 0.0
C848 C 0.67442 0.61867 0.90944 0.0
C849 C 0.62224 0.59276 0.80611 0.0
C850 C 0.73194 0.653 0.88174 0.0
H851 H 0.73104 0.61679 0.7368 0.0
H852 H 0.70668 0.71512 0.75829 0.0
H853 H 0.72151 0.58395 0.82794 0.0
H854 H 0.68521 0.5616 0.799 0.0
H855 H 0.72846 0.57315 0.78205 0.0
H856 H 0.68223 0.72489 0.81201 0.0
H857 H 0.65065 0.68204 0.82622 0.0
H858 H 0.69055 0.70127 0.85083 0.0
H859 H 0.59546 0.57288 0.8712 0.0
H860 H 0.68701 0.62541 0.93557 0.0
H861 H 0.63523 0.5789 0.78785 0.0
H862 H 0.62277 0.61885 0.79316 0.0
H863 H 0.59477 0.57466 0.80886 0.0
H864 H 0.74701 0.64169 0.86334 0.0
H865 H 0.74194 0.65299 0.90959 0.0
H866 H 0.73659 0.68204 0.87388 0.0
C867 C 0.68432 0.67501 0.23258 0.0
C868 C 0.6667 0.68953 0.25745 0.0
C869 C 0.66676 0.6531 0.20317 0.0
C870 C 0.63076 0.64589 0.19806 0.0
C871 C 0.61305 0.66132 0.22239 0.0
C872 C 0.63108 0.68257 0.25183 0.0
C873 C 0.68653 0.63684 0.1781 0.0
C874 C 0.57473 0.65458 0.21789 0.0
C875 C 0.58467 0.61105 0.10844 0.0
C876 C 0.56658 0.57384 0.11603 0.0
C877 C 0.60656 0.63471 0.13449 0.0
C878 C 0.61097 0.62059 0.16859 0.0
C879 C 0.59426 0.58251 0.17551 0.0
C880 C 0.57202 0.55976 0.14935 0.0
C881 C 0.62356 0.67518 0.12614 0.0
C882 C 0.59881 0.56599 0.21109 0.0
H883 H 0.71188 0.68056 0.23617 0.0
H884 H 0.61687 0.69287 0.27106 0.0
H885 H 0.67597 0.6062 0.17933 0.0
H886 H 0.68325 0.64457 0.15 0.0
H887 H 0.71467 0.64619 0.18488 0.0
H888 H 0.56531 0.67071 0.23753 0.0
H889 H 0.56898 0.66201 0.19039 0.0
H890 H 0.55988 0.62477 0.22143 0.0
H891 H 0.58046 0.62208 0.08278 0.0
H892 H 0.55841 0.53088 0.15521 0.0
H893 H 0.65173 0.68433 0.13247 0.0
H894 H 0.6123 0.69183 0.14321 0.0
H895 H 0.61994 0.68123 0.09754 0.0
H896 H 0.62675 0.5738 0.21822 0.0
H897 H 0.5871 0.53534 0.21081 0.0
H898 H 0.58643 0.57708 0.23252 0.0
C899 C 0.34465 0.66677 0.19958 0.0
C900 C 0.30863 0.65271 0.2038 0.0
C901 C 0.36208 0.64561 0.18274 0.0
C902 C 0.34307 0.60937 0.1703 0.0
C903 C 0.30662 0.59522 0.17414 0.0
C904 C 0.2898 0.61724 0.19062 0.0
C905 C 0.40093 0.66188 0.17867 0.0
C906 C 0.28556 0.55656 0.16166 0.0
C907 C 0.38801 0.56861 0.10178 0.0
C908 C 0.40423 0.54998 0.12398 0.0
C909 C 0.36714 0.58729 0.11637 0.0
C910 C 0.36165 0.58627 0.15386 0.0
C911 C 0.37619 0.56536 0.17602 0.0
C912 C 0.39784 0.54796 0.16086 0.0
C913 C 0.35261 0.60978 0.09194 0.0
C914 C 0.37001 0.56253 0.21593 0.0
H915 H 0.35932 0.69427 0.20956 0.0
H916 H 0.26194 0.60634 0.19404 0.0
H917 H 0.41366 0.64534 0.19406 0.0
H918 H 0.40782 0.66078 0.15008 0.0
H919 H 0.41164 0.69104 0.18829 0.0
H920 H 0.25736 0.54998 0.16596 0.0
H921 H 0.28978 0.55309 0.1327 0.0
H922 H 0.29421 0.53616 0.17635 0.0
H923 H 0.39322 0.57033 0.07326 0.0
H924 H 0.41017 0.53316 0.17792 0.0
H925 H 0.36496 0.6396 0.09869 0.0
H926 H 0.32434 0.60255 0.09596 0.0
H927 H 0.35716 0.60556 0.06317 0.0
H928 H 0.38329 0.58982 0.22894 0.0
H929 H 0.37978 0.54182 0.22855 0.0
H930 H 0.34191 0.55481 0.22137 0.0
C931 C 0.64422 0.39878 0.22141 0.0
C932 C 0.65148 0.36694 0.21161 0.0
C933 C 0.62622 0.41452 0.19767 0.0
C934 C 0.6157 0.39831 0.16322 0.0
C935 C 0.6243 0.36706 0.15283 0.0
C936 C 0.64174 0.3516 0.17724 0.0
C937 C 0.61718 0.44753 0.21002 0.0
C938 C 0.6141 0.34918 0.11628 0.0
C939 C 0.53539 0.40738 0.11788 0.0
C940 C 0.54954 0.43557 0.0929 0.0
C941 C 0.55662 0.39558 0.14113 0.0
C942 C 0.59313 0.41182 0.13921 0.0
C943 C 0.60772 0.43995 0.11379 0.0
C944 C 0.58577 0.4517 0.09116 0.0
C945 C 0.53987 0.36584 0.16806 0.0
C946 C 0.6465 0.45761 0.11051 0.0
H947 H 0.65156 0.41067 0.248 0.0
H948 H 0.64744 0.32707 0.16954 0.0
H949 H 0.62555 0.46995 0.19 0.0
H950 H 0.58863 0.43956 0.21235 0.0
H951 H 0.62936 0.45854 0.23641 0.0
H952 H 0.6255 0.32728 0.11109 0.0
H953 H 0.58546 0.33661 0.11413 0.0
H954 H 0.62255 0.37026 0.09497 0.0
H955 H 0.50749 0.39493 0.11993 0.0
H956 H 0.59703 0.4736 0.07214 0.0
H957 H 0.5488 0.37608 0.19562 0.0
H958 H 0.54774 0.34138 0.16304 0.0
H959 H 0.5111 0.35684 0.16693 0.0
H960 H 0.65797 0.47095 0.13637 0.0
H961 H 0.65381 0.47873 0.08911 0.0
H962 H 0.65816 0.43612 0.10451 0.0
loop_
_geom_bond_atom_site_label_1
_geom_bond_atom_site_label_2
_geom_bond_distance
_geom_bond_site_symmetry_2
_ccdc_geom_bond_type
H0 C5 0.930 . S
H1 C8 0.930 . S
H2 C10 0.930 . S
H3 C4 1.016 . S
C4 H3 1.016 . S
C4 N11 1.286 . S
C5 H0 0.930 . S
C5 C6 1.397 . S
C5 C7 1.361 . S
C6 C5 1.397 . S
C6 C10 1.390 . S
C7 C5 1.361 . S
C7 C8 1.393 . S
C7 N11 1.413 . S
C8 H1 0.930 . S
C8 C7 1.393 . S
C8 C9 1.399 . S
C9 C8 1.399 . S
C9 C10 1.381 . S
C10 H2 0.930 . S
C10 C6 1.390 . S
C10 C9 1.381 . S
N11 C4 1.286 . S
N11 C7 1.413 . S
H12 C17 0.930 . S
H13 C20 0.930 . S
H14 C22 0.930 . S
H15 C16 1.016 . S
C16 H15 1.016 . S
C16 N23 1.286 . S
C17 H12 0.930 . S
C17 C18 1.397 . S
C17 C19 1.361 . S
C18 C17 1.397 . S
C18 C22 1.390 . S
C19 C17 1.361 . S
C19 C20 1.393 . S
C19 N23 1.413 . S
C20 H13 0.930 . S
C20 C19 1.393 . S
C20 C21 1.399 . S
C21 C20 1.399 . S
C21 C22 1.381 . S
C22 H14 0.930 . S
C22 C18 1.390 . S
C22 C21 1.381 . S
N23 C16 1.286 . S
N23 C19 1.413 . S
H24 C29 0.930 . S
H25 C32 0.930 . S
H26 C34 0.930 . S
H27 C28 1.016 . S
C28 H27 1.016 . S
C28 N35 1.286 . S
C29 H24 0.930 . S
C29 C30 1.397 . S
C29 C31 1.361 . S
C30 C29 1.397 . S
C30 C34 1.390 . S
C31 C29 1.361 . S
C31 C32 1.393 . S
C31 N35 1.413 . S
C32 H25 0.930 . S
C32 C31 1.393 . S
C32 C33 1.399 . S
C33 C32 1.399 . S
C33 C34 1.381 . S
C34 H26 0.930 . S
C34 C30 1.390 . S
C34 C33 1.381 . S
N35 C28 1.286 . S
N35 C31 1.413 . S
H36 C41 0.930 . S
H37 C44 0.930 . S
H38 C46 0.930 . S
H39 C40 1.016 . S
C40 H39 1.016 . S
C40 N47 1.286 . S
C41 H36 0.930 . S
C41 C42 1.397 . S
C41 C43 1.361 . S
C42 C41 1.397 . S
C42 C46 1.390 . S
C43 C41 1.361 . S
C43 C44 1.393 . S
C43 N47 1.413 . S
C44 H37 0.930 . S
C44 C43 1.393 . S
C44 C45 1.399 . S
C45 C44 1.399 . S
C45 C46 1.381 . S
C46 H38 0.930 . S
C46 C42 1.390 . S
C46 C45 1.381 . S
N47 C40 1.286 . S
N47 C43 1.413 . S
H48 C53 0.930 . S
H49 C56 0.930 . S
H50 C58 0.930 . S
H51 C52 1.016 . S
C52 H51 1.016 . S
C52 N59 1.286 . S
C53 H48 0.930 . S
C53 C54 1.397 . S
C53 C55 1.361 . S
C54 C53 1.397 . S
C54 C58 1.390 . S
C55 C53 1.361 . S
C55 C56 1.393 . S
C55 N59 1.413 . S
C56 H49 0.930 . S
C56 C55 1.393 . S
C56 C57 1.399 . S
C57 C56 1.399 . S
C57 C58 1.381 . S
C58 H50 0.930 . S
C58 C54 1.390 . S
C58 C57 1.381 . S
N59 C52 1.286 . S
N59 C55 1.413 . S
H60 C65 0.930 . S
H61 C68 0.930 . S
H62 C70 0.930 . S
H63 C64 1.016 . S
C64 H63 1.016 . S
C64 N71 1.286 . S
C65 H60 0.930 . S
C65 C66 1.397 . S
C65 C67 1.361 . S
C66 C65 1.397 . S
C66 C70 1.390 . S
C67 C65 1.361 . S
C67 C68 1.393 . S
C67 N71 1.413 . S
C68 H61 0.930 . S
C68 C67 1.393 . S
C68 C69 1.399 . S
C69 C68 1.399 . S
C69 C70 1.381 . S
C70 H62 0.930 . S
C70 C66 1.390 . S
C70 C69 1.381 . S
N71 C64 1.286 . S
N71 C67 1.413 . S
H72 C77 0.930 . S
H73 C80 0.930 . S
H74 C82 0.930 . S
H75 C76 1.016 . S
C76 H75 1.016 . S
C76 N83 1.286 . S
C77 H72 0.930 . S
C77 C78 1.397 . S
C77 C79 1.361 . S
C78 C77 1.397 . S
C78 C82 1.390 . S
C79 C77 1.361 . S
C79 C80 1.393 . S
C79 N83 1.413 . S
C80 H73 0.930 . S
C80 C79 1.393 . S
C80 C81 1.399 . S
C81 C80 1.399 . S
C81 C82 1.381 . S
C82 H74 0.930 . S
C82 C78 1.390 . S
C82 C81 1.381 . S
N83 C76 1.286 . S
N83 C79 1.413 . S
H84 C89 0.930 . S
H85 C92 0.930 . S
H86 C94 0.930 . S
H87 C88 1.016 . S
C88 H87 1.016 . S
C88 N95 1.286 . S
C89 H84 0.930 . S
C89 C90 1.397 . S
C89 C91 1.361 . S
C90 C89 1.397 . S
C90 C94 1.390 . S
C91 C89 1.361 . S
C91 C92 1.393 . S
C91 N95 1.413 . S
C92 H85 0.930 . S
C92 C91 1.393 . S
C92 C93 1.399 . S
C93 C92 1.399 . S
C93 C94 1.381 . S
C94 H86 0.930 . S
C94 C90 1.390 . S
C94 C93 1.381 . S
N95 C88 1.286 . S
N95 C91 1.413 . S
Co96 O99 2.042 . S
Co96 O106 2.264 . S
Co96 O125 2.286 . S
Co96 O126 2.069 . S
Co96 O128 2.015 . S
Co97 O99 2.122 . S
Co97 O105 2.073 . S
Co97 O106 2.327 . S
Co97 O107 1.976 . S
Co98 O99 2.087 . S
Co98 O101 2.087 1_455 S
Co98 O108 2.111 . S
Co98 O109 2.143 1_455 S
Co98 O113 2.111 1_455 S
Co98 O127 2.143 . S
O99 Co96 2.042 . S
O99 Co97 2.122 . S
O99 Co98 2.087 . S
O99 H100 0.980 . S
H100 O99 0.980 . S
O101 Co98 2.087 1_655 S
O101 Co102 2.042 . S
O101 Co103 2.122 . S
O101 H104 0.980 1_655 S
Co102 O101 2.042 . S
Co102 O110 2.286 . S
Co102 O111 2.069 . S
Co102 O112 2.015 . S
Co102 O115 2.264 . S
Co103 O101 2.122 . S
Co103 O114 1.976 . S
Co103 O115 2.327 . S
Co103 O116 2.073 . S
H104 O101 0.980 1_455 S
O105 Co97 2.073 . S
O105 C120 1.245 . S
O106 Co96 2.264 . S
O106 Co97 2.327 . S
O106 C120 1.257 . S
O107 Co97 1.976 . S
O107 C119 1.251 . S
O108 Co98 2.111 . S
O108 C119 1.274 . S
O109 Co98 2.143 1_655 S
O109 C122 1.246 . S
O110 Co102 2.286 . S
O110 C121 1.259 . S
O111 Co102 2.069 . S
O111 C121 1.289 . S
O112 Co102 2.015 . S
O112 C122 1.257 . S
O113 Co98 2.111 1_655 S
O113 C123 1.274 . S
O114 Co103 1.976 . S
O114 C123 1.251 . S
O115 Co102 2.264 . S
O115 Co103 2.327 . S
O115 C124 1.257 . S
O116 Co103 2.073 . S
O116 C124 1.245 . S
C117 O125 1.259 . S
C117 O126 1.289 . S
C118 O127 1.246 . S
C118 O128 1.257 . S
C119 O107 1.251 . S
C119 O108 1.274 . S
C120 O105 1.245 . S
C120 O106 1.257 . S
C121 O110 1.259 . S
C121 O111 1.289 . S
C122 O109 1.246 . S
C122 O112 1.257 . S
C123 O113 1.274 . S
C123 O114 1.251 . S
C124 O115 1.257 . S
C124 O116 1.245 . S
O125 Co96 2.286 . S
O125 C117 1.259 . S
O126 Co96 2.069 . S
O126 C117 1.289 . S
O127 Co98 2.143 . S
O127 C118 1.246 . S
O128 Co96 2.015 . S
O128 C118 1.257 . S
Co129 O132 2.042 . S
Co129 O139 2.264 . S
Co129 O158 2.286 . S
Co129 O159 2.069 . S
Co129 O161 2.015 . S
Co130 O132 2.122 . S
Co130 O138 2.073 . S
Co130 O139 2.327 . S
Co130 O140 1.976 . S
Co131 O132 2.087 1_545 S
Co131 O134 2.087 . S
Co131 O141 2.111 1_545 S
Co131 O142 2.143 . S
Co131 O146 2.111 . S
Co131 O160 2.143 1_545 S
O132 Co129 2.042 . S
O132 Co130 2.122 . S
O132 Co131 2.087 1_565 S
O132 H133 0.979 . S
H133 O132 0.979 . S
O134 Co131 2.087 . S
O134 Co135 2.042 . S
O134 Co136 2.122 . S
O134 H137 0.980 . S
Co135 O134 2.042 . S
Co135 O143 2.286 . S
Co135 O144 2.069 . S
Co135 O145 2.015 . S
Co135 O148 2.264 . S
Co136 O134 2.122 . S
Co136 O147 1.976 . S
Co136 O148 2.327 . S
Co136 O149 2.073 . S
H137 O134 0.980 . S
O138 Co130 2.073 . S
O138 C153 1.245 . S
O139 Co129 2.264 . S
O139 Co130 2.327 . S
O139 C153 1.257 . S
O140 Co130 1.976 . S
O140 C152 1.251 . S
O141 Co131 2.111 1_565 S
O141 C152 1.274 . S
O142 Co131 2.143 . S
O142 C155 1.246 . S
O143 Co135 2.286 . S
O143 C154 1.259 . S
O144 Co135 2.069 . S
O144 C154 1.289 . S
O145 Co135 2.015 . S
O145 C155 1.257 . S
O146 Co131 2.111 . S
O146 C156 1.274 . S
O147 Co136 1.976 . S
O147 C156 1.251 . S
O148 Co135 2.264 . S
O148 Co136 2.327 . S
O148 C157 1.257 . S
O149 Co136 2.073 . S
O149 C157 1.245 . S
C150 O158 1.259 . S
C150 O159 1.289 . S
C151 O160 1.246 . S
C151 O161 1.257 . S
C152 O140 1.251 . S
C152 O141 1.274 . S
C153 O138 1.245 . S
C153 O139 1.257 . S
C154 O143 1.259 . S
C154 O144 1.289 . S
C155 O142 1.246 . S
C155 O145 1.257 . S
C156 O146 1.274 . S
C156 O147 1.251 . S
C157 O148 1.257 . S
C157 O149 1.245 . S
O158 Co129 2.286 . S
O158 C150 1.259 . S
O159 Co129 2.069 . S
O159 C150 1.289 . S
O160 Co131 2.143 1_565 S
O160 C151 1.246 . S
O161 Co129 2.015 . S
O161 C151 1.257 . S
Co162 O165 2.042 . S
Co162 O172 2.264 . S
Co162 O191 2.286 . S
Co162 O192 2.069 . S
Co162 O194 2.015 . S
Co163 O165 2.122 . S
Co163 O171 2.073 . S
Co163 O172 2.327 . S
Co163 O173 1.976 . S
Co164 O165 2.087 . S
Co164 O167 2.087 1_554 S
Co164 O174 2.111 . S
Co164 O175 2.143 1_554 S
Co164 O179 2.111 1_554 S
Co164 O193 2.143 . S
O165 Co162 2.042 . S
O165 Co163 2.122 . S
O165 Co164 2.087 . S
O165 H166 0.980 . S
H166 O165 0.980 . S
O167 Co164 2.087 1_556 S
O167 Co168 2.042 . S
O167 Co169 2.122 . S
O167 H170 0.980 . S
Co168 O167 2.042 . S
Co168 O176 2.286 . S
Co168 O177 2.069 . S
Co168 O178 2.015 . S
Co168 O181 2.264 . S
Co169 O167 2.122 . S
Co169 O180 1.976 . S
Co169 O181 2.327 . S
Co169 O182 2.073 . S
H170 O167 0.980 . S
O171 Co163 2.073 . S
O171 C186 1.245 . S
O172 Co162 2.264 . S
O172 Co163 2.327 . S
O172 C186 1.257 . S
O173 Co163 1.976 . S
O173 C185 1.251 . S
O174 Co164 2.111 . S
O174 C185 1.274 . S
O175 Co164 2.143 1_556 S
O175 C188 1.246 . S
O176 Co168 2.286 . S
O176 C187 1.259 . S
O177 Co168 2.069 . S
O177 C187 1.289 . S
O178 Co168 2.015 . S
O178 C188 1.257 . S
O179 Co164 2.111 1_556 S
O179 C189 1.274 . S
O180 Co169 1.976 . S
O180 C189 1.251 . S
O181 Co168 2.264 . S
O181 Co169 2.327 . S
O181 C190 1.257 . S
O182 Co169 2.073 . S
O182 C190 1.245 . S
C183 O191 1.259 . S
C183 O192 1.289 . S
C184 O193 1.246 . S
C184 O194 1.257 . S
C185 O173 1.251 . S
C185 O174 1.274 . S
C186 O171 1.245 . S
C186 O172 1.257 . S
C187 O176 1.259 . S
C187 O177 1.289 . S
C188 O175 1.246 . S
C188 O178 1.257 . S
C189 O179 1.274 . S
C189 O180 1.251 . S
C190 O181 1.257 . S
C190 O182 1.245 . S
O191 Co162 2.286 . S
O191 C183 1.259 . S
O192 Co162 2.069 . S
O192 C183 1.289 . S
O193 Co164 2.143 . S
O193 C184 1.246 . S
O194 Co162 2.015 . S
O194 C184 1.257 . S
C195 C196 1.391 . S
C195 C197 1.394 . S
C195 H211 0.931 . S
C196 C195 1.391 . S
C196 C200 1.376 . S
C197 C195 1.394 . S
C197 C198 1.369 . S
C197 C201 1.531 . S
C198 C197 1.369 . S
C198 C199 1.410 . S
C198 C206 1.503 . S
C199 C198 1.410 . S
C199 C200 1.392 . S
C199 C202 1.511 . S
C200 C196 1.376 . S
C200 C199 1.392 . S
C200 H212 0.929 . S
C201 C197 1.531 . S
C201 H213 0.960 . S
C201 H214 0.962 . S
C201 H215 0.960 . S
C202 C199 1.511 . S
C202 H216 0.961 . S
C202 H217 0.961 . S
C202 H218 0.961 . S
C203 C204 1.370 . S
C203 C205 1.363 . S
C203 H219 0.931 . S
C204 C203 1.370 . S
C204 C208 1.408 . S
C205 C203 1.363 . S
C205 C206 1.370 . S
C205 C209 1.524 . S
C206 C198 1.503 . S
C206 C205 1.370 . S
C206 C207 1.403 . S
C207 C206 1.403 . S
C207 C208 1.404 . S
C207 C210 1.539 . S
C208 C204 1.408 . S
C208 C207 1.404 . S
C208 H220 0.930 . S
C209 C205 1.524 . S
C209 H221 0.956 . S
C209 H222 0.961 . S
C209 H223 0.961 . S
C210 C207 1.539 . S
C210 H224 0.958 . S
C210 H225 0.961 . S
C210 H226 0.960 . S
H211 C195 0.931 . S
H212 C200 0.929 . S
H213 C201 0.960 . S
H214 C201 0.962 . S
H215 C201 0.960 . S
H216 C202 0.961 . S
H217 C202 0.961 . S
H218 C202 0.961 . S
H219 C203 0.931 . S
H220 C208 0.930 . S
H221 C209 0.956 . S
H222 C209 0.961 . S
H223 C209 0.961 . S
H224 C210 0.958 . S
H225 C210 0.961 . S
H226 C210 0.960 . S
C227 C228 1.391 . S
C227 C229 1.394 . S
C227 H243 0.931 . S
C228 C227 1.391 . S
C228 C232 1.376 . S
C229 C227 1.394 . S
C229 C230 1.369 . S
C229 C233 1.531 . S
C230 C229 1.369 . S
C230 C231 1.410 . S
C230 C238 1.503 . S
C231 C230 1.410 . S
C231 C232 1.392 . S
C231 C234 1.511 . S
C232 C228 1.376 . S
C232 C231 1.392 . S
C232 H244 0.929 . S
C233 C229 1.531 . S
C233 H245 0.960 . S
C233 H246 0.962 . S
C233 H247 0.960 . S
C234 C231 1.511 . S
C234 H248 0.961 . S
C234 H249 0.961 . S
C234 H250 0.961 . S
C235 C236 1.370 . S
C235 C237 1.363 . S
C235 H251 0.931 . S
C236 C235 1.370 . S
C236 C240 1.408 . S
C237 C235 1.363 . S
C237 C238 1.370 . S
C237 C241 1.524 . S
C238 C230 1.503 . S
C238 C237 1.370 . S
C238 C239 1.403 . S
C239 C238 1.403 . S
C239 C240 1.404 . S
C239 C242 1.539 . S
C240 C236 1.408 . S
C240 C239 1.404 . S
C240 H252 0.930 . S
C241 C237 1.524 . S
C241 H253 0.956 . S
C241 H254 0.961 . S
C241 H255 0.961 . S
C242 C239 1.539 . S
C242 H256 0.958 . S
C242 H257 0.961 . S
C242 H258 0.960 . S
H243 C227 0.931 . S
H244 C232 0.929 . S
H245 C233 0.960 . S
H246 C233 0.962 . S
H247 C233 0.960 . S
H248 C234 0.961 . S
H249 C234 0.961 . S
H250 C234 0.961 . S
H251 C235 0.931 . S
H252 C240 0.930 . S
H253 C241 0.956 . S
H254 C241 0.961 . S
H255 C241 0.961 . S
H256 C242 0.958 . S
H257 C242 0.961 . S
H258 C242 0.960 . S
C259 C260 1.391 . S
C259 C261 1.394 . S
C259 H275 0.931 . S
C260 C259 1.391 . S
C260 C264 1.376 . S
C261 C259 1.394 . S
C261 C262 1.369 . S
C261 C265 1.531 . S
C262 C261 1.369 . S
C262 C263 1.410 . S
C262 C270 1.503 . S
C263 C262 1.410 . S
C263 C264 1.392 . S
C263 C266 1.511 . S
C264 C260 1.376 . S
C264 C263 1.392 . S
C264 H276 0.929 . S
C265 C261 1.531 . S
C265 H277 0.960 . S
C265 H278 0.962 . S
C265 H279 0.960 . S
C266 C263 1.511 . S
C266 H280 0.961 . S
C266 H281 0.961 . S
C266 H282 0.961 . S
C267 C268 1.370 . S
C267 C269 1.363 . S
C267 H283 0.931 . S
C268 C267 1.370 . S
C268 C272 1.408 . S
C269 C267 1.363 . S
C269 C270 1.370 . S
C269 C273 1.524 . S
C270 C262 1.503 . S
C270 C269 1.370 . S
C270 C271 1.403 . S
C271 C270 1.403 . S
C271 C272 1.404 . S
C271 C274 1.539 . S
C272 C268 1.408 . S
C272 C271 1.404 . S
C272 H284 0.930 . S
C273 C269 1.524 . S
C273 H285 0.956 . S
C273 H286 0.961 . S
C273 H287 0.961 . S
C274 C271 1.539 . S
C274 H288 0.958 . S
C274 H289 0.961 . S
C274 H290 0.960 . S
H275 C259 0.931 . S
H276 C264 0.929 . S
H277 C265 0.960 . S
H278 C265 0.962 . S
H279 C265 0.960 . S
H280 C266 0.961 . S
H281 C266 0.961 . S
H282 C266 0.961 . S
H283 C267 0.931 . S
H284 C272 0.930 . S
H285 C273 0.956 . S
H286 C273 0.961 . S
H287 C273 0.961 . S
H288 C274 0.958 . S
H289 C274 0.961 . S
H290 C274 0.960 . S
C291 C292 1.391 . S
C291 C293 1.394 . S
C291 H307 0.931 . S
C292 C291 1.391 . S
C292 C296 1.376 . S
C293 C291 1.394 . S
C293 C294 1.369 . S
C293 C297 1.531 . S
C294 C293 1.369 . S
C294 C295 1.410 . S
C294 C302 1.503 . S
C295 C294 1.410 . S
C295 C296 1.392 . S
C295 C298 1.511 . S
C296 C292 1.376 . S
C296 C295 1.392 . S
C296 H308 0.929 . S
C297 C293 1.531 . S
C297 H309 0.960 . S
C297 H310 0.962 . S
C297 H311 0.960 . S
C298 C295 1.511 . S
C298 H312 0.961 . S
C298 H313 0.961 . S
C298 H314 0.961 . S
C299 C300 1.370 . S
C299 C301 1.363 . S
C299 H315 0.931 . S
C300 C299 1.370 . S
C300 C304 1.408 . S
C301 C299 1.363 . S
C301 C302 1.370 . S
C301 C305 1.524 . S
C302 C294 1.503 . S
C302 C301 1.370 . S
C302 C303 1.403 . S
C303 C302 1.403 . S
C303 C304 1.404 . S
C303 C306 1.539 . S
C304 C300 1.408 . S
C304 C303 1.404 . S
C304 H316 0.930 . S
C305 C301 1.524 . S
C305 H317 0.956 . S
C305 H318 0.961 . S
C305 H319 0.961 . S
C306 C303 1.539 . S
C306 H320 0.958 . S
C306 H321 0.961 . S
C306 H322 0.960 . S
H307 C291 0.931 . S
H308 C296 0.929 . S
H309 C297 0.960 . S
H310 C297 0.962 . S
H311 C297 0.960 . S
H312 C298 0.961 . S
H313 C298 0.961 . S
H314 C298 0.961 . S
H315 C299 0.931 . S
H316 C304 0.930 . S
H317 C305 0.956 . S
H318 C305 0.961 . S
H319 C305 0.961 . S
H320 C306 0.958 . S
H321 C306 0.961 . S
H322 C306 0.960 . S
C323 C324 1.391 . S
C323 C325 1.394 . S
C323 H339 0.931 . S
C324 C323 1.391 . S
C324 C328 1.376 . S
C325 C323 1.394 . S
C325 C326 1.369 . S
C325 C329 1.531 . S
C326 C325 1.369 . S
C326 C327 1.410 . S
C326 C334 1.503 . S
C327 C326 1.410 . S
C327 C328 1.392 . S
C327 C330 1.511 . S
C328 C324 1.376 . S
C328 C327 1.392 . S
C328 H340 0.929 . S
C329 C325 1.531 . S
C329 H341 0.960 . S
C329 H342 0.962 . S
C329 H343 0.960 . S
C330 C327 1.511 . S
C330 H344 0.961 . S
C330 H345 0.961 . S
C330 H346 0.961 . S
C331 C332 1.370 . S
C331 C333 1.363 . S
C331 H347 0.931 . S
C332 C331 1.370 . S
C332 C336 1.408 . S
C333 C331 1.363 . S
C333 C334 1.370 . S
C333 C337 1.524 . S
C334 C326 1.503 . S
C334 C333 1.370 . S
C334 C335 1.403 . S
C335 C334 1.403 . S
C335 C336 1.404 . S
C335 C338 1.539 . S
C336 C332 1.408 . S
C336 C335 1.404 . S
C336 H348 0.930 . S
C337 C333 1.524 . S
C337 H349 0.956 . S
C337 H350 0.961 . S
C337 H351 0.961 . S
C338 C335 1.539 . S
C338 H352 0.958 . S
C338 H353 0.961 . S
C338 H354 0.960 . S
H339 C323 0.931 . S
H340 C328 0.929 . S
H341 C329 0.960 . S
H342 C329 0.962 . S
H343 C329 0.960 . S
H344 C330 0.961 . S
H345 C330 0.961 . S
H346 C330 0.961 . S
H347 C331 0.931 . S
H348 C336 0.930 . S
H349 C337 0.956 . S
H350 C337 0.961 . S
H351 C337 0.961 . S
H352 C338 0.958 . S
H353 C338 0.961 . S
H354 C338 0.960 . S
C355 C356 1.391 . S
C355 C357 1.394 . S
C355 H371 0.931 . S
C356 C355 1.391 . S
C356 C360 1.376 . S
C357 C355 1.394 . S
C357 C358 1.369 . S
C357 C361 1.531 . S
C358 C357 1.369 . S
C358 C359 1.410 . S
C358 C366 1.503 . S
C359 C358 1.410 . S
C359 C360 1.392 . S
C359 C362 1.511 . S
C360 C356 1.376 . S
C360 C359 1.392 . S
C360 H372 0.929 . S
C361 C357 1.531 . S
C361 H373 0.960 . S
C361 H374 0.962 . S
C361 H375 0.960 . S
C362 C359 1.511 . S
C362 H376 0.961 . S
C362 H377 0.961 . S
C362 H378 0.961 . S
C363 C364 1.370 . S
C363 C365 1.363 . S
C363 H379 0.931 . S
C364 C363 1.370 . S
C364 C368 1.408 . S
C365 C363 1.363 . S
C365 C366 1.370 . S
C365 C369 1.524 . S
C366 C358 1.503 . S
C366 C365 1.370 . S
C366 C367 1.403 . S
C367 C366 1.403 . S
C367 C368 1.404 . S
C367 C370 1.539 . S
C368 C364 1.408 . S
C368 C367 1.404 . S
C368 H380 0.930 . S
C369 C365 1.524 . S
C369 H381 0.956 . S
C369 H382 0.961 . S
C369 H383 0.961 . S
C370 C367 1.539 . S
C370 H384 0.958 . S
C370 H385 0.961 . S
C370 H386 0.960 . S
H371 C355 0.931 . S
H372 C360 0.929 . S
H373 C361 0.960 . S
H374 C361 0.962 . S
H375 C361 0.960 . S
H376 C362 0.961 . S
H377 C362 0.961 . S
H378 C362 0.961 . S
H379 C363 0.931 . S
H380 C368 0.930 . S
H381 C369 0.956 . S
H382 C369 0.961 . S
H383 C369 0.961 . S
H384 C370 0.958 . S
H385 C370 0.961 . S
H386 C370 0.960 . S
C387 C388 1.391 . S
C387 C389 1.394 . S
C387 H403 0.931 . S
C388 C387 1.391 . S
C388 C392 1.376 . S
C389 C387 1.394 . S
C389 C390 1.369 . S
C389 C393 1.531 . S
C390 C389 1.369 . S
C390 C391 1.410 . S
C390 C398 1.503 . S
C391 C390 1.410 . S
C391 C392 1.392 . S
C391 C394 1.511 . S
C392 C388 1.376 . S
C392 C391 1.392 . S
C392 H404 0.929 . S
C393 C389 1.531 . S
C393 H405 0.960 . S
C393 H406 0.962 . S
C393 H407 0.960 . S
C394 C391 1.511 . S
C394 H408 0.961 . S
C394 H409 0.961 . S
C394 H410 0.961 . S
C395 C396 1.370 . S
C395 C397 1.363 . S
C395 H411 0.931 . S
C396 C395 1.370 . S
C396 C400 1.408 . S
C397 C395 1.363 . S
C397 C398 1.370 . S
C397 C401 1.524 . S
C398 C390 1.503 . S
C398 C397 1.370 . S
C398 C399 1.403 . S
C399 C398 1.403 . S
C399 C400 1.404 . S
C399 C402 1.539 . S
C400 C396 1.408 . S
C400 C399 1.404 . S
C400 H412 0.930 . S
C401 C397 1.524 . S
C401 H413 0.956 . S
C401 H414 0.961 . S
C401 H415 0.961 . S
C402 C399 1.539 . S
C402 H416 0.958 . S
C402 H417 0.961 . S
C402 H418 0.960 . S
H403 C387 0.931 . S
H404 C392 0.929 . S
H405 C393 0.960 . S
H406 C393 0.962 . S
H407 C393 0.960 . S
H408 C394 0.961 . S
H409 C394 0.961 . S
H410 C394 0.961 . S
H411 C395 0.931 . S
H412 C400 0.930 . S
H413 C401 0.956 . S
H414 C401 0.961 . S
H415 C401 0.961 . S
H416 C402 0.958 . S
H417 C402 0.961 . S
H418 C402 0.960 . S
C419 C420 1.391 . S
C419 C421 1.394 . S
C419 H435 0.931 . S
C420 C419 1.391 . S
C420 C424 1.376 . S
C421 C419 1.394 . S
C421 C422 1.369 . S
C421 C425 1.531 . S
C422 C421 1.369 . S
C422 C423 1.410 . S
C422 C430 1.503 . S
C423 C422 1.410 . S
C423 C424 1.392 . S
C423 C426 1.511 . S
C424 C420 1.376 . S
C424 C423 1.392 . S
C424 H436 0.929 . S
C425 C421 1.531 . S
C425 H437 0.960 . S
C425 H438 0.962 . S
C425 H439 0.960 . S
C426 C423 1.511 . S
C426 H440 0.961 . S
C426 H441 0.961 . S
C426 H442 0.961 . S
C427 C428 1.370 . S
C427 C429 1.363 . S
C427 H443 0.931 . S
C428 C427 1.370 . S
C428 C432 1.408 . S
C429 C427 1.363 . S
C429 C430 1.370 . S
C429 C433 1.524 . S
C430 C422 1.503 . S
C430 C429 1.370 . S
C430 C431 1.403 . S
C431 C430 1.403 . S
C431 C432 1.404 . S
C431 C434 1.539 . S
C432 C428 1.408 . S
C432 C431 1.404 . S
C432 H444 0.930 . S
C433 C429 1.524 . S
C433 H445 0.956 . S
C433 H446 0.961 . S
C433 H447 0.961 . S
C434 C431 1.539 . S
C434 H448 0.958 . S
C434 H449 0.961 . S
C434 H450 0.960 . S
H435 C419 0.931 . S
H436 C424 0.929 . S
H437 C425 0.960 . S
H438 C425 0.962 . S
H439 C425 0.960 . S
H440 C426 0.961 . S
H441 C426 0.961 . S
H442 C426 0.961 . S
H443 C427 0.931 . S
H444 C432 0.930 . S
H445 C433 0.956 . S
H446 C433 0.961 . S
H447 C433 0.961 . S
H448 C434 0.958 . S
H449 C434 0.961 . S
H450 C434 0.960 . S
C451 C452 1.391 . S
C451 C453 1.394 . S
C451 H467 0.931 . S
C452 C451 1.391 . S
C452 C456 1.376 . S
C453 C451 1.394 . S
C453 C454 1.369 . S
C453 C457 1.531 . S
C454 C453 1.369 . S
C454 C455 1.410 . S
C454 C462 1.503 . S
C455 C454 1.410 . S
C455 C456 1.392 . S
C455 C458 1.511 . S
C456 C452 1.376 . S
C456 C455 1.392 . S
C456 H468 0.929 . S
C457 C453 1.531 . S
C457 H469 0.960 . S
C457 H470 0.962 . S
C457 H471 0.960 . S
C458 C455 1.511 . S
C458 H472 0.961 . S
C458 H473 0.961 . S
C458 H474 0.961 . S
C459 C460 1.370 . S
C459 C461 1.363 . S
C459 H475 0.931 . S
C460 C459 1.370 . S
C460 C464 1.408 . S
C461 C459 1.363 . S
C461 C462 1.370 . S
C461 C465 1.524 . S
C462 C454 1.503 . S
C462 C461 1.370 . S
C462 C463 1.403 . S
C463 C462 1.403 . S
C463 C464 1.404 . S
C463 C466 1.539 . S
C464 C460 1.408 . S
C464 C463 1.404 . S
C464 H476 0.930 . S
C465 C461 1.524 . S
C465 H477 0.956 . S
C465 H478 0.961 . S
C465 H479 0.961 . S
C466 C463 1.539 . S
C466 H480 0.958 . S
C466 H481 0.961 . S
C466 H482 0.960 . S
H467 C451 0.931 . S
H468 C456 0.929 . S
H469 C457 0.960 . S
H470 C457 0.962 . S
H471 C457 0.960 . S
H472 C458 0.961 . S
H473 C458 0.961 . S
H474 C458 0.961 . S
H475 C459 0.931 . S
H476 C464 0.930 . S
H477 C465 0.956 . S
H478 C465 0.961 . S
H479 C465 0.961 . S
H480 C466 0.958 . S
H481 C466 0.961 . S
H482 C466 0.960 . S
C483 C484 1.391 . S
C483 C485 1.394 . S
C483 H499 0.931 . S
C484 C483 1.391 . S
C484 C488 1.376 . S
C485 C483 1.394 . S
C485 C486 1.369 . S
C485 C489 1.531 . S
C486 C485 1.369 . S
C486 C487 1.410 . S
C486 C494 1.503 . S
C487 C486 1.410 . S
C487 C488 1.392 . S
C487 C490 1.511 . S
C488 C484 1.376 . S
C488 C487 1.392 . S
C488 H500 0.929 . S
C489 C485 1.531 . S
C489 H501 0.960 . S
C489 H502 0.962 . S
C489 H503 0.960 . S
C490 C487 1.511 . S
C490 H504 0.961 . S
C490 H505 0.961 . S
C490 H506 0.961 . S
C491 C492 1.370 . S
C491 C493 1.363 . S
C491 H507 0.931 . S
C492 C491 1.370 . S
C492 C496 1.408 . S
C493 C491 1.363 . S
C493 C494 1.370 . S
C493 C497 1.524 . S
C494 C486 1.503 . S
C494 C493 1.370 . S
C494 C495 1.403 . S
C495 C494 1.403 . S
C495 C496 1.404 . S
C495 C498 1.539 . S
C496 C492 1.408 . S
C496 C495 1.404 . S
C496 H508 0.930 . S
C497 C493 1.524 . S
C497 H509 0.956 . S
C497 H510 0.961 . S
C497 H511 0.961 . S
C498 C495 1.539 . S
C498 H512 0.958 . S
C498 H513 0.961 . S
C498 H514 0.960 . S
H499 C483 0.931 . S
H500 C488 0.929 . S
H501 C489 0.960 . S
H502 C489 0.962 . S
H503 C489 0.960 . S
H504 C490 0.961 . S
H505 C490 0.961 . S
H506 C490 0.961 . S
H507 C491 0.931 . S
H508 C496 0.930 . S
H509 C497 0.956 . S
H510 C497 0.961 . S
H511 C497 0.961 . S
H512 C498 0.958 . S
H513 C498 0.961 . S
H514 C498 0.960 . S
C515 C516 1.391 . S
C515 C517 1.394 . S
C515 H531 0.931 . S
C516 C515 1.391 . S
C516 C520 1.376 . S
C517 C515 1.394 . S
C517 C518 1.369 . S
C517 C521 1.531 . S
C518 C517 1.369 . S
C518 C519 1.410 . S
C518 C526 1.503 . S
C519 C518 1.410 . S
C519 C520 1.392 . S
C519 C522 1.511 . S
C520 C516 1.376 . S
C520 C519 1.392 . S
C520 H532 0.929 . S
C521 C517 1.531 . S
C521 H533 0.960 . S
C521 H534 0.962 . S
C521 H535 0.960 . S
C522 C519 1.511 . S
C522 H536 0.961 . S
C522 H537 0.961 . S
C522 H538 0.961 . S
C523 C524 1.370 . S
C523 C525 1.363 . S
C523 H539 0.931 . S
C524 C523 1.370 . S
C524 C528 1.408 . S
C525 C523 1.363 . S
C525 C526 1.370 . S
C525 C529 1.524 . S
C526 C518 1.503 . S
C526 C525 1.370 . S
C526 C527 1.403 . S
C527 C526 1.403 . S
C527 C528 1.404 . S
C527 C530 1.539 . S
C528 C524 1.408 . S
C528 C527 1.404 . S
C528 H540 0.930 . S
C529 C525 1.524 . S
C529 H541 0.956 . S
C529 H542 0.961 . S
C529 H543 0.961 . S
C530 C527 1.539 . S
C530 H544 0.958 . S
C530 H545 0.961 . S
C530 H546 0.960 . S
H531 C515 0.931 . S
H532 C520 0.929 . S
H533 C521 0.960 . S
H534 C521 0.962 . S
H535 C521 0.960 . S
H536 C522 0.961 . S
H537 C522 0.961 . S
H538 C522 0.961 . S
H539 C523 0.931 . S
H540 C528 0.930 . S
H541 C529 0.956 . S
H542 C529 0.961 . S
H543 C529 0.961 . S
H544 C530 0.958 . S
H545 C530 0.961 . S
H546 C530 0.960 . S
C547 C548 1.391 . S
C547 C549 1.394 . S
C547 H563 0.931 . S
C548 C547 1.391 . S
C548 C552 1.376 . S
C549 C547 1.394 . S
C549 C550 1.369 . S
C549 C553 1.531 . S
C550 C549 1.369 . S
C550 C551 1.410 . S
C550 C558 1.503 . S
C551 C550 1.410 . S
C551 C552 1.392 . S
C551 C554 1.511 . S
C552 C548 1.376 . S
C552 C551 1.392 . S
C552 H564 0.929 . S
C553 C549 1.531 . S
C553 H565 0.960 . S
C553 H566 0.962 . S
C553 H567 0.960 . S
C554 C551 1.511 . S
C554 H568 0.961 . S
C554 H569 0.961 . S
C554 H570 0.961 . S
C555 C556 1.370 . S
C555 C557 1.363 . S
C555 H571 0.931 . S
C556 C555 1.370 . S
C556 C560 1.408 . S
C557 C555 1.363 . S
C557 C558 1.370 . S
C557 C561 1.524 . S
C558 C550 1.503 . S
C558 C557 1.370 . S
C558 C559 1.403 . S
C559 C558 1.403 . S
C559 C560 1.404 . S
C559 C562 1.539 . S
C560 C556 1.408 . S
C560 C559 1.404 . S
C560 H572 0.930 . S
C561 C557 1.524 . S
C561 H573 0.956 . S
C561 H574 0.961 . S
C561 H575 0.961 . S
C562 C559 1.539 . S
C562 H576 0.958 . S
C562 H577 0.961 . S
C562 H578 0.960 . S
H563 C547 0.931 . S
H564 C552 0.929 . S
H565 C553 0.960 . S
H566 C553 0.962 . S
H567 C553 0.960 . S
H568 C554 0.961 . S
H569 C554 0.961 . S
H570 C554 0.961 . S
H571 C555 0.931 . S
H572 C560 0.930 . S
H573 C561 0.956 . S
H574 C561 0.961 . S
H575 C561 0.961 . S
H576 C562 0.958 . S
H577 C562 0.961 . S
H578 C562 0.960 . S
C579 C580 1.391 . S
C579 C581 1.394 . S
C579 H595 0.931 . S
C580 C579 1.391 . S
C580 C584 1.376 . S
C581 C579 1.394 . S
C581 C582 1.369 . S
C581 C585 1.531 . S
C582 C581 1.369 . S
C582 C583 1.410 . S
C582 C590 1.503 . S
C583 C582 1.410 . S
C583 C584 1.392 . S
C583 C586 1.511 . S
C584 C580 1.376 . S
C584 C583 1.392 . S
C584 H596 0.929 . S
C585 C581 1.531 . S
C585 H597 0.960 . S
C585 H598 0.962 . S
C585 H599 0.960 . S
C586 C583 1.511 . S
C586 H600 0.961 . S
C586 H601 0.961 . S
C586 H602 0.961 . S
C587 C588 1.370 . S
C587 C589 1.363 . S
C587 H603 0.931 . S
C588 C587 1.370 . S
C588 C592 1.408 . S
C589 C587 1.363 . S
C589 C590 1.370 . S
C589 C593 1.524 . S
C590 C582 1.503 . S
C590 C589 1.370 . S
C590 C591 1.403 . S
C591 C590 1.403 . S
C591 C592 1.404 . S
C591 C594 1.539 . S
C592 C588 1.408 . S
C592 C591 1.404 . S
C592 H604 0.930 . S
C593 C589 1.524 . S
C593 H605 0.956 . S
C593 H606 0.961 . S
C593 H607 0.961 . S
C594 C591 1.539 . S
C594 H608 0.958 . S
C594 H609 0.961 . S
C594 H610 0.960 . S
H595 C579 0.931 . S
H596 C584 0.929 . S
H597 C585 0.960 . S
H598 C585 0.962 . S
H599 C585 0.960 . S
H600 C586 0.961 . S
H601 C586 0.961 . S
H602 C586 0.961 . S
H603 C587 0.931 . S
H604 C592 0.930 . S
H605 C593 0.956 . S
H606 C593 0.961 . S
H607 C593 0.961 . S
H608 C594 0.958 . S
H609 C594 0.961 . S
H610 C594 0.960 . S
C611 C612 1.391 . S
C611 C613 1.394 . S
C611 H627 0.931 . S
C612 C611 1.391 . S
C612 C616 1.376 . S
C613 C611 1.394 . S
C613 C614 1.369 . S
C613 C617 1.531 . S
C614 C613 1.369 . S
C614 C615 1.410 . S
C614 C622 1.503 . S
C615 C614 1.410 . S
C615 C616 1.392 . S
C615 C618 1.511 . S
C616 C612 1.376 . S
C616 C615 1.392 . S
C616 H628 0.929 . S
C617 C613 1.531 . S
C617 H629 0.960 . S
C617 H630 0.962 . S
C617 H631 0.960 . S
C618 C615 1.511 . S
C618 H632 0.961 . S
C618 H633 0.961 . S
C618 H634 0.961 . S
C619 C620 1.370 . S
C619 C621 1.363 . S
C619 H635 0.931 . S
C620 C619 1.370 . S
C620 C624 1.408 . S
C621 C619 1.363 . S
C621 C622 1.370 . S
C621 C625 1.524 . S
C622 C614 1.503 . S
C622 C621 1.370 . S
C622 C623 1.403 . S
C623 C622 1.403 . S
C623 C624 1.404 . S
C623 C626 1.539 . S
C624 C620 1.408 . S
C624 C623 1.404 . S
C624 H636 0.930 . S
C625 C621 1.524 . S
C625 H637 0.956 . S
C625 H638 0.961 . S
C625 H639 0.961 . S
C626 C623 1.539 . S
C626 H640 0.958 . S
C626 H641 0.961 . S
C626 H642 0.960 . S
H627 C611 0.931 . S
H628 C616 0.929 . S
H629 C617 0.960 . S
H630 C617 0.962 . S
H631 C617 0.960 . S
H632 C618 0.961 . S
H633 C618 0.961 . S
H634 C618 0.961 . S
H635 C619 0.931 . S
H636 C624 0.930 . S
H637 C625 0.956 . S
H638 C625 0.961 . S
H639 C625 0.961 . S
H640 C626 0.958 . S
H641 C626 0.961 . S
H642 C626 0.960 . S
C643 C644 1.391 . S
C643 C645 1.394 . S
C643 H659 0.931 . S
C644 C643 1.391 . S
C644 C648 1.376 . S
C645 C643 1.394 . S
C645 C646 1.369 . S
C645 C649 1.531 . S
C646 C645 1.369 . S
C646 C647 1.410 . S
C646 C654 1.503 . S
C647 C646 1.410 . S
C647 C648 1.392 . S
C647 C650 1.511 . S
C648 C644 1.376 . S
C648 C647 1.392 . S
C648 H660 0.929 . S
C649 C645 1.531 . S
C649 H661 0.960 . S
C649 H662 0.962 . S
C649 H663 0.960 . S
C650 C647 1.511 . S
C650 H664 0.961 . S
C650 H665 0.961 . S
C650 H666 0.961 . S
C651 C652 1.370 . S
C651 C653 1.363 . S
C651 H667 0.931 . S
C652 C651 1.370 . S
C652 C656 1.408 . S
C653 C651 1.363 . S
C653 C654 1.370 . S
C653 C657 1.524 . S
C654 C646 1.503 . S
C654 C653 1.370 . S
C654 C655 1.403 . S
C655 C654 1.403 . S
C655 C656 1.404 . S
C655 C658 1.539 . S
C656 C652 1.408 . S
C656 C655 1.404 . S
C656 H668 0.930 . S
C657 C653 1.524 . S
C657 H669 0.956 . S
C657 H670 0.961 . S
C657 H671 0.961 . S
C658 C655 1.539 . S
C658 H672 0.958 . S
C658 H673 0.961 . S
C658 H674 0.960 . S
H659 C643 0.931 . S
H660 C648 0.929 . S
H661 C649 0.960 . S
H662 C649 0.962 . S
H663 C649 0.960 . S
H664 C650 0.961 . S
H665 C650 0.961 . S
H666 C650 0.961 . S
H667 C651 0.931 . S
H668 C656 0.930 . S
H669 C657 0.956 . S
H670 C657 0.961 . S
H671 C657 0.961 . S
H672 C658 0.958 . S
H673 C658 0.961 . S
H674 C658 0.960 . S
C675 C676 1.391 . S
C675 C677 1.394 . S
C675 H691 0.931 . S
C676 C675 1.391 . S
C676 C680 1.376 . S
C677 C675 1.394 . S
C677 C678 1.369 . S
C677 C681 1.531 . S
C678 C677 1.369 . S
C678 C679 1.410 . S
C678 C686 1.503 . S
C679 C678 1.410 . S
C679 C680 1.392 . S
C679 C682 1.511 . S
C680 C676 1.376 . S
C680 C679 1.392 . S
C680 H692 0.929 . S
C681 C677 1.531 . S
C681 H693 0.960 . S
C681 H694 0.962 . S
C681 H695 0.960 . S
C682 C679 1.511 . S
C682 H696 0.961 . S
C682 H697 0.961 . S
C682 H698 0.961 . S
C683 C684 1.370 . S
C683 C685 1.363 . S
C683 H699 0.931 . S
C684 C683 1.370 . S
C684 C688 1.408 . S
C685 C683 1.363 . S
C685 C686 1.370 . S
C685 C689 1.524 . S
C686 C678 1.503 . S
C686 C685 1.370 . S
C686 C687 1.403 . S
C687 C686 1.403 . S
C687 C688 1.404 . S
C687 C690 1.539 . S
C688 C684 1.408 . S
C688 C687 1.404 . S
C688 H700 0.930 . S
C689 C685 1.524 . S
C689 H701 0.956 . S
C689 H702 0.961 . S
C689 H703 0.961 . S
C690 C687 1.539 . S
C690 H704 0.958 . S
C690 H705 0.961 . S
C690 H706 0.960 . S
H691 C675 0.931 . S
H692 C680 0.929 . S
H693 C681 0.960 . S
H694 C681 0.962 . S
H695 C681 0.960 . S
H696 C682 0.961 . S
H697 C682 0.961 . S
H698 C682 0.961 . S
H699 C683 0.931 . S
H700 C688 0.930 . S
H701 C689 0.956 . S
H702 C689 0.961 . S
H703 C689 0.961 . S
H704 C690 0.958 . S
H705 C690 0.961 . S
H706 C690 0.960 . S
C707 C708 1.391 . S
C707 C709 1.394 . S
C707 H723 0.931 . S
C708 C707 1.391 . S
C708 C712 1.376 . S
C709 C707 1.394 . S
C709 C710 1.369 . S
C709 C713 1.531 . S
C710 C709 1.369 . S
C710 C711 1.410 . S
C710 C718 1.503 . S
C711 C710 1.410 . S
C711 C712 1.392 . S
C711 C714 1.511 . S
C712 C708 1.376 . S
C712 C711 1.392 . S
C712 H724 0.929 . S
C713 C709 1.531 . S
C713 H725 0.960 . S
C713 H726 0.962 . S
C713 H727 0.960 . S
C714 C711 1.511 . S
C714 H728 0.961 . S
C714 H729 0.961 . S
C714 H730 0.961 . S
C715 C716 1.370 . S
C715 C717 1.363 . S
C715 H731 0.931 . S
C716 C715 1.370 . S
C716 C720 1.408 . S
C717 C715 1.363 . S
C717 C718 1.370 . S
C717 C721 1.524 . S
C718 C710 1.503 . S
C718 C717 1.370 . S
C718 C719 1.403 . S
C719 C718 1.403 . S
C719 C720 1.404 . S
C719 C722 1.539 . S
C720 C716 1.408 . S
C720 C719 1.404 . S
C720 H732 0.930 . S
C721 C717 1.524 . S
C721 H733 0.956 . S
C721 H734 0.961 . S
C721 H735 0.961 . S
C722 C719 1.539 . S
C722 H736 0.958 . S
C722 H737 0.961 . S
C722 H738 0.960 . S
H723 C707 0.931 . S
H724 C712 0.929 . S
H725 C713 0.960 . S
H726 C713 0.962 . S
H727 C713 0.960 . S
H728 C714 0.961 . S
H729 C714 0.961 . S
H730 C714 0.961 . S
H731 C715 0.931 . S
H732 C720 0.930 . S
H733 C721 0.956 . S
H734 C721 0.961 . S
H735 C721 0.961 . S
H736 C722 0.958 . S
H737 C722 0.961 . S
H738 C722 0.960 . S
C739 C740 1.391 . S
C739 C741 1.394 . S
C739 H755 0.931 . S
C740 C739 1.391 . S
C740 C744 1.376 . S
C741 C739 1.394 . S
C741 C742 1.369 . S
C741 C745 1.531 . S
C742 C741 1.369 . S
C742 C743 1.410 . S
C742 C750 1.503 . S
C743 C742 1.410 . S
C743 C744 1.392 . S
C743 C746 1.511 . S
C744 C740 1.376 . S
C744 C743 1.392 . S
C744 H756 0.929 . S
C745 C741 1.531 . S
C745 H757 0.960 . S
C745 H758 0.962 . S
C745 H759 0.960 . S
C746 C743 1.511 . S
C746 H760 0.961 . S
C746 H761 0.961 . S
C746 H762 0.961 . S
C747 C748 1.370 . S
C747 C749 1.363 . S
C747 H763 0.931 . S
C748 C747 1.370 . S
C748 C752 1.408 . S
C749 C747 1.363 . S
C749 C750 1.370 . S
C749 C753 1.524 . S
C750 C742 1.503 . S
C750 C749 1.370 . S
C750 C751 1.403 . S
C751 C750 1.403 . S
C751 C752 1.404 . S
C751 C754 1.539 . S
C752 C748 1.408 . S
C752 C751 1.404 . S
C752 H764 0.930 . S
C753 C749 1.524 . S
C753 H765 0.956 . S
C753 H766 0.961 . S
C753 H767 0.961 . S
C754 C751 1.539 . S
C754 H768 0.958 . S
C754 H769 0.961 . S
C754 H770 0.960 . S
H755 C739 0.931 . S
H756 C744 0.929 . S
H757 C745 0.960 . S
H758 C745 0.962 . S
H759 C745 0.960 . S
H760 C746 0.961 . S
H761 C746 0.961 . S
H762 C746 0.961 . S
H763 C747 0.931 . S
H764 C752 0.930 . S
H765 C753 0.956 . S
H766 C753 0.961 . S
H767 C753 0.961 . S
H768 C754 0.958 . S
H769 C754 0.961 . S
H770 C754 0.960 . S
C771 C772 1.391 . S
C771 C773 1.394 . S
C771 H787 0.931 . S
C772 C771 1.391 . S
C772 C776 1.376 . S
C773 C771 1.394 . S
C773 C774 1.369 . S
C773 C777 1.531 . S
C774 C773 1.369 . S
C774 C775 1.410 . S
C774 C782 1.503 . S
C775 C774 1.410 . S
C775 C776 1.392 . S
C775 C778 1.511 . S
C776 C772 1.376 . S
C776 C775 1.392 . S
C776 H788 0.929 . S
C777 C773 1.531 . S
C777 H789 0.960 . S
C777 H790 0.962 . S
C777 H791 0.960 . S
C778 C775 1.511 . S
C778 H792 0.961 . S
C778 H793 0.961 . S
C778 H794 0.961 . S
C779 C780 1.370 . S
C779 C781 1.363 . S
C779 H795 0.931 . S
C780 C779 1.370 . S
C780 C784 1.408 . S
C781 C779 1.363 . S
C781 C782 1.370 . S
C781 C785 1.524 . S
C782 C774 1.503 . S
C782 C781 1.370 . S
C782 C783 1.403 . S
C783 C782 1.403 . S
C783 C784 1.404 . S
C783 C786 1.539 . S
C784 C780 1.408 . S
C784 C783 1.404 . S
C784 H796 0.930 . S
C785 C781 1.524 . S
C785 H797 0.956 . S
C785 H798 0.961 . S
C785 H799 0.961 . S
C786 C783 1.539 . S
C786 H800 0.958 . S
C786 H801 0.961 . S
C786 H802 0.960 . S
H787 C771 0.931 . S
H788 C776 0.929 . S
H789 C777 0.960 . S
H790 C777 0.962 . S
H791 C777 0.960 . S
H792 C778 0.961 . S
H793 C778 0.961 . S
H794 C778 0.961 . S
H795 C779 0.931 . S
H796 C784 0.930 . S
H797 C785 0.956 . S
H798 C785 0.961 . S
H799 C785 0.961 . S
H800 C786 0.958 . S
H801 C786 0.961 . S
H802 C786 0.960 . S
C803 C804 1.391 . S
C803 C805 1.394 . S
C803 H819 0.931 . S
C804 C803 1.391 . S
C804 C808 1.376 . S
C805 C803 1.394 . S
C805 C806 1.369 . S
C805 C809 1.531 . S
C806 C805 1.369 . S
C806 C807 1.410 . S
C806 C814 1.503 . S
C807 C806 1.410 . S
C807 C808 1.392 . S
C807 C810 1.511 . S
C808 C804 1.376 . S
C808 C807 1.392 . S
C808 H820 0.929 . S
C809 C805 1.531 . S
C809 H821 0.960 . S
C809 H822 0.962 . S
C809 H823 0.960 . S
C810 C807 1.511 . S
C810 H824 0.961 . S
C810 H825 0.961 . S
C810 H826 0.961 . S
C811 C812 1.370 . S
C811 C813 1.363 . S
C811 H827 0.931 . S
C812 C811 1.370 . S
C812 C816 1.408 . S
C813 C811 1.363 . S
C813 C814 1.370 . S
C813 C817 1.524 . S
C814 C806 1.503 . S
C814 C813 1.370 . S
C814 C815 1.403 . S
C815 C814 1.403 . S
C815 C816 1.404 . S
C815 C818 1.539 . S
C816 C812 1.408 . S
C816 C815 1.404 . S
C816 H828 0.930 . S
C817 C813 1.524 . S
C817 H829 0.956 . S
C817 H830 0.961 . S
C817 H831 0.961 . S
C818 C815 1.539 . S
C818 H832 0.958 . S
C818 H833 0.961 . S
C818 H834 0.960 . S
H819 C803 0.931 . S
H820 C808 0.929 . S
H821 C809 0.960 . S
H822 C809 0.962 . S
H823 C809 0.960 . S
H824 C810 0.961 . S
H825 C810 0.961 . S
H826 C810 0.961 . S
H827 C811 0.931 . S
H828 C816 0.930 . S
H829 C817 0.956 . S
H830 C817 0.961 . S
H831 C817 0.961 . S
H832 C818 0.958 . S
H833 C818 0.961 . S
H834 C818 0.960 . S
C835 C836 1.391 . S
C835 C837 1.394 . S
C835 H851 0.931 . S
C836 C835 1.391 . S
C836 C840 1.376 . S
C837 C835 1.394 . S
C837 C838 1.369 . S
C837 C841 1.531 . S
C838 C837 1.369 . S
C838 C839 1.410 . S
C838 C846 1.503 . S
C839 C838 1.410 . S
C839 C840 1.392 . S
C839 C842 1.511 . S
C840 C836 1.376 . S
C840 C839 1.392 . S
C840 H852 0.929 . S
C841 C837 1.531 . S
C841 H853 0.960 . S
C841 H854 0.962 . S
C841 H855 0.960 . S
C842 C839 1.511 . S
C842 H856 0.961 . S
C842 H857 0.961 . S
C842 H858 0.961 . S
C843 C844 1.370 . S
C843 C845 1.363 . S
C843 H859 0.931 . S
C844 C843 1.370 . S
C844 C848 1.408 . S
C845 C843 1.363 . S
C845 C846 1.370 . S
C845 C849 1.524 . S
C846 C838 1.503 . S
C846 C845 1.370 . S
C846 C847 1.403 . S
C847 C846 1.403 . S
C847 C848 1.404 . S
C847 C850 1.539 . S
C848 C844 1.408 . S
C848 C847 1.404 . S
C848 H860 0.930 . S
C849 C845 1.524 . S
C849 H861 0.956 . S
C849 H862 0.961 . S
C849 H863 0.961 . S
C850 C847 1.539 . S
C850 H864 0.958 . S
C850 H865 0.961 . S
C850 H866 0.960 . S
H851 C835 0.931 . S
H852 C840 0.929 . S
H853 C841 0.960 . S
H854 C841 0.962 . S
H855 C841 0.960 . S
H856 C842 0.961 . S
H857 C842 0.961 . S
H858 C842 0.961 . S
H859 C843 0.931 . S
H860 C848 0.930 . S
H861 C849 0.956 . S
H862 C849 0.961 . S
H863 C849 0.961 . S
H864 C850 0.958 . S
H865 C850 0.961 . S
H866 C850 0.960 . S
C867 C868 1.391 . S
C867 C869 1.394 . S
C867 H883 0.931 . S
C868 C867 1.391 . S
C868 C872 1.376 . S
C869 C867 1.394 . S
C869 C870 1.369 . S
C869 C873 1.531 . S
C870 C869 1.369 . S
C870 C871 1.410 . S
C870 C878 1.503 . S
C871 C870 1.410 . S
C871 C872 1.392 . S
C871 C874 1.511 . S
C872 C868 1.376 . S
C872 C871 1.392 . S
C872 H884 0.929 . S
C873 C869 1.531 . S
C873 H885 0.960 . S
C873 H886 0.962 . S
C873 H887 0.960 . S
C874 C871 1.511 . S
C874 H888 0.961 . S
C874 H889 0.961 . S
C874 H890 0.961 . S
C875 C876 1.370 . S
C875 C877 1.363 . S
C875 H891 0.931 . S
C876 C875 1.370 . S
C876 C880 1.408 . S
C877 C875 1.363 . S
C877 C878 1.370 . S
C877 C881 1.524 . S
C878 C870 1.503 . S
C878 C877 1.370 . S
C878 C879 1.403 . S
C879 C878 1.403 . S
C879 C880 1.404 . S
C879 C882 1.539 . S
C880 C876 1.408 . S
C880 C879 1.404 . S
C880 H892 0.930 . S
C881 C877 1.524 . S
C881 H893 0.956 . S
C881 H894 0.961 . S
C881 H895 0.961 . S
C882 C879 1.539 . S
C882 H896 0.958 . S
C882 H897 0.961 . S
C882 H898 0.960 . S
H883 C867 0.931 . S
H884 C872 0.929 . S
H885 C873 0.960 . S
H886 C873 0.962 . S
H887 C873 0.960 . S
H888 C874 0.961 . S
H889 C874 0.961 . S
H890 C874 0.961 . S
H891 C875 0.931 . S
H892 C880 0.930 . S
H893 C881 0.956 . S
H894 C881 0.961 . S
H895 C881 0.961 . S
H896 C882 0.958 . S
H897 C882 0.961 . S
H898 C882 0.960 . S
C899 C900 1.391 . S
C899 C901 1.394 . S
C899 H915 0.931 . S
C900 C899 1.391 . S
C900 C904 1.376 . S
C901 C899 1.394 . S
C901 C902 1.369 . S
C901 C905 1.531 . S
C902 C901 1.369 . S
C902 C903 1.410 . S
C902 C910 1.503 . S
C903 C902 1.410 . S
C903 C904 1.392 . S
C903 C906 1.511 . S
C904 C900 1.376 . S
C904 C903 1.392 . S
C904 H916 0.929 . S
C905 C901 1.531 . S
C905 H917 0.960 . S
C905 H918 0.962 . S
C905 H919 0.960 . S
C906 C903 1.511 . S
C906 H920 0.961 . S
C906 H921 0.961 . S
C906 H922 0.961 . S
C907 C908 1.370 . S
C907 C909 1.363 . S
C907 H923 0.931 . S
C908 C907 1.370 . S
C908 C912 1.408 . S
C909 C907 1.363 . S
C909 C910 1.370 . S
C909 C913 1.524 . S
C910 C902 1.503 . S
C910 C909 1.370 . S
C910 C911 1.403 . S
C911 C910 1.403 . S
C911 C912 1.404 . S
C911 C914 1.539 . S
C912 C908 1.408 . S
C912 C911 1.404 . S
C912 H924 0.930 . S
C913 C909 1.524 . S
C913 H925 0.956 . S
C913 H926 0.961 . S
C913 H927 0.961 . S
C914 C911 1.539 . S
C914 H928 0.958 . S
C914 H929 0.961 . S
C914 H930 0.960 . S
H915 C899 0.931 . S
H916 C904 0.929 . S
H917 C905 0.960 . S
H918 C905 0.962 . S
H919 C905 0.960 . S
H920 C906 0.961 . S
H921 C906 0.961 . S
H922 C906 0.961 . S
H923 C907 0.931 . S
H924 C912 0.930 . S
H925 C913 0.956 . S
H926 C913 0.961 . S
H927 C913 0.961 . S
H928 C914 0.958 . S
H929 C914 0.961 . S
H930 C914 0.960 . S
C931 C932 1.391 . S
C931 C933 1.394 . S
C931 H947 0.931 . S
C932 C931 1.391 . S
C932 C936 1.376 . S
C933 C931 1.394 . S
C933 C934 1.369 . S
C933 C937 1.531 . S
C934 C933 1.369 . S
C934 C935 1.410 . S
C934 C942 1.503 . S
C935 C934 1.410 . S
C935 C936 1.392 . S
C935 C938 1.511 . S
C936 C932 1.376 . S
C936 C935 1.392 . S
C936 H948 0.929 . S
C937 C933 1.531 . S
C937 H949 0.960 . S
C937 H950 0.962 . S
C937 H951 0.960 . S
C938 C935 1.511 . S
C938 H952 0.961 . S
C938 H953 0.961 . S
C938 H954 0.961 . S
C939 C940 1.370 . S
C939 C941 1.363 . S
C939 H955 0.931 . S
C940 C939 1.370 . S
C940 C944 1.408 . S
C941 C939 1.363 . S
C941 C942 1.370 . S
C941 C945 1.524 . S
C942 C934 1.503 . S
C942 C941 1.370 . S
C942 C943 1.403 . S
C943 C942 1.403 . S
C943 C944 1.404 . S
C943 C946 1.539 . S
C944 C940 1.408 . S
C944 C943 1.404 . S
C944 H956 0.930 . S
C945 C941 1.524 . S
C945 H957 0.956 . S
C945 H958 0.961 . S
C945 H959 0.961 . S
C946 C943 1.539 . S
C946 H960 0.958 . S
C946 H961 0.961 . S
C946 H962 0.960 . S
H947 C931 0.931 . S
H948 C936 0.929 . S
H949 C937 0.960 . S
H950 C937 0.962 . S
H951 C937 0.960 . S
H952 C938 0.961 . S
H953 C938 0.961 . S
H954 C938 0.961 . S
H955 C939 0.931 . S
H956 C944 0.930 . S
H957 C945 0.956 . S
H958 C945 0.961 . S
H959 C945 0.961 . S
H960 C946 0.958 . S
H961 C946 0.961 . S
H962 C946 0.960 . S
C204 C120 1.454 . S
C196 C6 1.550 . S
C236 C156 1.745 . S
C228 C21 1.871 . S
C268 C121 1.371 . S
C260 C28 1.398 . S
C300 C151 1.085 . S
C292 C45 1.107 . S
C332 C118 1.550 . S
C324 C54 1.606 . S
C356 C69 1.988 . S
C364 C154 2.001 . S
C388 C81 0.614 . S
C396 C123 0.701 . S
C428 C153 1.451 . S
C420 C88 1.489 . S
C460 C157 1.383 . S
C452 C4 1.377 . S
C492 C122 1.528 . S
C484 C18 1.578 . S
C524 C150 1.893 . S
C516 C33 1.871 . S
C556 C119 0.624 . S
C548 C42 0.596 . S
C588 C152 1.806 . S
C580 C57 1.947 . S
C612 C64 1.443 . S
C620 C117 1.429 . S
C644 C78 1.058 . S
C652 C155 1.045 . S
C684 C124 1.463 . S
C676 C93 1.515 . S
C716 C186 1.929 . S
C708 C9 2.035 . S
C740 C52 1.984 . S
C748 C189 1.881 . S
C780 C188 1.924 . S
C772 C66 1.988 . S
C804 C76 1.282 . S
C812 C187 1.285 . S
C844 C190 1.844 . S
C836 C90 1.922 . S
C868 C30 1.895 . S
C876 C184 1.855 . S
C908 C183 1.294 . S
C900 C40 1.305 . S
C932 C16 1.948 . S
C940 C185 1.818 . S
