# Generated by pormake.
# Topology eea, (3,6)-cn, num edge types: 1
# Building blocks:
#     Node 0, Type 0, BuildingBlock: BELTOD_clean_linker_0, # of connection points: 3
#     Node 1, Type 0, BuildingBlock: BELTOD_clean_linker_0, # of connection points: 3
#     Node 2, Type 0, BuildingBlock: BELTOD_clean_linker_0, # of connection points: 3
#     Node 3, Type 0, BuildingBlock: BELTOD_clean_linker_0, # of connection points: 3
#     Node 4, Type 0, BuildingBlock: BELTOD_clean_linker_0, # of connection points: 3
#     Node 5, Type 0, BuildingBlock: BELTOD_clean_linker_0, # of connection points: 3
#     Node 6, Type 0, BuildingBlock: BELTOD_clean_linker_0, # of connection points: 3
#     Node 7, Type 0, BuildingBlock: BELTOD_clean_linker_0, # of connection points: 3
#     Node 8, Type 0, BuildingBlock: BELTOD_clean_linker_0, # of connection points: 3
#     Node 9, Type 0, BuildingBlock: BELTOD_clean_linker_0, # of connection points: 3
#     Node 10, Type 0, BuildingBlock: BELTOD_clean_linker_0, # of connection points: 3
#     Node 11, Type 0, BuildingBlock: BELTOD_clean_linker_0, # of connection points: 3
#     Node 12, Type 0, BuildingBlock: BELTOD_clean_linker_0, # of connection points: 3
#     Node 13, Type 0, BuildingBlock: BELTOD_clean_linker_0, # of connection points: 3
#     Node 14, Type 0, BuildingBlock: BELTOD_clean_linker_0, # of connection points: 3
#     Node 15, Type 0, BuildingBlock: BELTOD_clean_linker_0, # of connection points: 3
#     Node 16, Type 0, BuildingBlock: BELTOD_clean_linker_0, # of connection points: 3
#     Node 17, Type 0, BuildingBlock: BELTOD_clean_linker_0, # of connection points: 3
#     Node 18, Type 1, BuildingBlock: KUMBUR_clean_sbu_0, # of connection points: 6
#     Node 19, Type 1, BuildingBlock: KUMBUR_clean_sbu_0, # of connection points: 6
#     Node 20, Type 1, BuildingBlock: KUMBUR_clean_sbu_0, # of connection points: 6
#     Node 21, Type 1, BuildingBlock: KUMBUR_clean_sbu_0, # of connection points: 6
#     Node 22, Type 1, BuildingBlock: KUMBUR_clean_sbu_0, # of connection points: 6
#     Node 23, Type 1, BuildingBlock: KUMBUR_clean_sbu_0, # of connection points: 6
#     Node 24, Type 1, BuildingBlock: KUMBUR_clean_sbu_0, # of connection points: 6
#     Node 25, Type 1, BuildingBlock: KUMBUR_clean_sbu_0, # of connection points: 6
#     Node 26, Type 1, BuildingBlock: KUMBUR_clean_sbu_0, # of connection points: 6
#     Edge 27, Type (0, 1), BuildingBlock: EZIPEK_clean_linker_0, # of connection points: 2
#     Edge 28, Type (0, 1), BuildingBlock: EZIPEK_clean_linker_0, # of connection points: 2
#     Edge 29, Type (0, 1), BuildingBlock: EZIPEK_clean_linker_0, # of connection points: 2
#     Edge 30, Type (0, 1), BuildingBlock: EZIPEK_clean_linker_0, # of connection points: 2
#     Edge 31, Type (0, 1), BuildingBlock: EZIPEK_clean_linker_0, # of connection points: 2
#     Edge 32, Type (0, 1), BuildingBlock: EZIPEK_clean_linker_0, # of connection points: 2
#     Edge 33, Type (0, 1), BuildingBlock: EZIPEK_clean_linker_0, # of connection points: 2
#     Edge 34, Type (0, 1), BuildingBlock: EZIPEK_clean_linker_0, # of connection points: 2
#     Edge 35, Type (0, 1), BuildingBlock: EZIPEK_clean_linker_0, # of connection points: 2
#     Edge 36, Type (0, 1), BuildingBlock: EZIPEK_clean_linker_0, # of connection points: 2
#     Edge 37, Type (0, 1), BuildingBlock: EZIPEK_clean_linker_0, # of connection points: 2
#     Edge 38, Type (0, 1), BuildingBlock: EZIPEK_clean_linker_0, # of connection points: 2
#     Edge 39, Type (0, 1), BuildingBlock: EZIPEK_clean_linker_0, # of connection points: 2
#     Edge 40, Type (0, 1), BuildingBlock: EZIPEK_clean_linker_0, # of connection points: 2
#     Edge 41, Type (0, 1), BuildingBlock: EZIPEK_clean_linker_0, # of connection points: 2
#     Edge 42, Type (0, 1), BuildingBlock: EZIPEK_clean_linker_0, # of connection points: 2
#     Edge 43, Type (0, 1), BuildingBlock: EZIPEK_clean_linker_0, # of connection points: 2
#     Edge 44, Type (0, 1), BuildingBlock: EZIPEK_clean_linker_0, # of connection points: 2
#     Edge 45, Type (0, 1), BuildingBlock: EZIPEK_clean_linker_0, # of connection points: 2
#     Edge 46, Type (0, 1), BuildingBlock: EZIPEK_clean_linker_0, # of connection points: 2
#     Edge 47, Type (0, 1), BuildingBlock: EZIPEK_clean_linker_0, # of connection points: 2
#     Edge 48, Type (0, 1), BuildingBlock: EZIPEK_clean_linker_0, # of connection points: 2
#     Edge 49, Type (0, 1), BuildingBlock: EZIPEK_clean_linker_0, # of connection points: 2
#     Edge 50, Type (0, 1), BuildingBlock: EZIPEK_clean_linker_0, # of connection points: 2
#     Edge 51, Type (0, 1), BuildingBlock: EZIPEK_clean_linker_0, # of connection points: 2
#     Edge 52, Type (0, 1), BuildingBlock: EZIPEK_clean_linker_0, # of connection points: 2
#     Edge 53, Type (0, 1), BuildingBlock: EZIPEK_clean_linker_0, # of connection points: 2
#     Edge 54, Type (0, 1), BuildingBlock: EZIPEK_clean_linker_0, # of connection points: 2
#     Edge 55, Type (0, 1), BuildingBlock: EZIPEK_clean_linker_0, # of connection points: 2
#     Edge 56, Type (0, 1), BuildingBlock: EZIPEK_clean_linker_0, # of connection points: 2
#     Edge 57, Type (0, 1), BuildingBlock: EZIPEK_clean_linker_0, # of connection points: 2
#     Edge 58, Type (0, 1), BuildingBlock: EZIPEK_clean_linker_0, # of connection points: 2
#     Edge 59, Type (0, 1), BuildingBlock: EZIPEK_clean_linker_0, # of connection points: 2
#     Edge 60, Type (0, 1), BuildingBlock: EZIPEK_clean_linker_0, # of connection points: 2
#     Edge 61, Type (0, 1), BuildingBlock: EZIPEK_clean_linker_0, # of connection points: 2
#     Edge 62, Type (0, 1), BuildingBlock: EZIPEK_clean_linker_0, # of connection points: 2
#     Edge 63, Type (0, 1), BuildingBlock: EZIPEK_clean_linker_0, # of connection points: 2
#     Edge 64, Type (0, 1), BuildingBlock: EZIPEK_clean_linker_0, # of connection points: 2
#     Edge 65, Type (0, 1), BuildingBlock: EZIPEK_clean_linker_0, # of connection points: 2
#     Edge 66, Type (0, 1), BuildingBlock: EZIPEK_clean_linker_0, # of connection points: 2
#     Edge 67, Type (0, 1), BuildingBlock: EZIPEK_clean_linker_0, # of connection points: 2
#     Edge 68, Type (0, 1), BuildingBlock: EZIPEK_clean_linker_0, # of connection points: 2
#     Edge 69, Type (0, 1), BuildingBlock: EZIPEK_clean_linker_0, # of connection points: 2
#     Edge 70, Type (0, 1), BuildingBlock: EZIPEK_clean_linker_0, # of connection points: 2
#     Edge 71, Type (0, 1), BuildingBlock: EZIPEK_clean_linker_0, # of connection points: 2
#     Edge 72, Type (0, 1), BuildingBlock: EZIPEK_clean_linker_0, # of connection points: 2
#     Edge 73, Type (0, 1), BuildingBlock: EZIPEK_clean_linker_0, # of connection points: 2
#     Edge 74, Type (0, 1), BuildingBlock: EZIPEK_clean_linker_0, # of connection points: 2
#     Edge 75, Type (0, 1), BuildingBlock: EZIPEK_clean_linker_0, # of connection points: 2
#     Edge 76, Type (0, 1), BuildingBlock: EZIPEK_clean_linker_0, # of connection points: 2
#     Edge 77, Type (0, 1), BuildingBlock: EZIPEK_clean_linker_0, # of connection points: 2
#     Edge 78, Type (0, 1), BuildingBlock: EZIPEK_clean_linker_0, # of connection points: 2
#     Edge 79, Type (0, 1), BuildingBlock: EZIPEK_clean_linker_0, # of connection points: 2
#     Edge 80, Type (0, 1), BuildingBlock: EZIPEK_clean_linker_0, # of connection points: 2
# Relax obj value: 0.007
# Max RMSD: 0.090
# Mean RMSD: 0.079
data_MOF--net-eea--node1-KUMBUR_clean_sbu_0--node2-BELTOD_clean_linker_0--edge1-EZIPEK_clean_linker_0
_symmetry_space_group_name_H-M    P1
_symmetry_Int_Tables_number       1
_symmetry_cell_setting            triclinic
loop_
_symmetry_equiv_pos_as_xyz
'x, y, z'
_cell_length_a     44.273952
_cell_length_b     45.269599
_cell_length_c     65.571868
_cell_angle_alpha  90.688754
_cell_angle_beta   90.083258
_cell_angle_gamma 120.0445
loop_
_atom_site_label
_atom_site_type_symbol
_atom_site_fract_x
_atom_site_fract_y
_atom_site_fract_z
_atom_type_partial_charge
P0 P 0.30464 0.15369 0.41314 0.0
H1 H 0.29771 0.12927 0.37133 0.0
H2 H 0.27235 0.07201 0.35581 0.0
H3 H 0.24878 0.02792 0.41569 0.0
H4 H 0.27224 0.08485 0.43112 0.0
H5 H 0.31797 0.22362 0.41288 0.0
H6 H 0.28624 0.24983 0.39791 0.0
H7 H 0.20461 0.15058 0.37764 0.0
H8 H 0.23503 0.12418 0.39363 0.0
H9 H 0.33878 0.12983 0.44123 0.0
H10 H 0.28088 0.18304 0.44563 0.0
O11 O 0.34483 0.17729 0.40399 0.0
H12 H 0.35211 0.13952 0.47792 0.0
H13 H 0.29565 0.19409 0.48188 0.0
C14 C 0.28736 0.11137 0.40238 0.0
C15 C 0.28714 0.10725 0.38112 0.0
C16 C 0.27266 0.07469 0.37226 0.0
C17 C 0.25899 0.04577 0.3846 0.0
C18 C 0.25939 0.04994 0.40591 0.0
C19 C 0.27304 0.08247 0.41473 0.0
C20 C 0.27922 0.17205 0.4041 0.0
C21 C 0.29297 0.20745 0.40552 0.0
C22 C 0.27493 0.22238 0.397 0.0
C23 C 0.24329 0.20213 0.38651 0.0
C24 C 0.22905 0.16661 0.38561 0.0
C25 C 0.24661 0.15161 0.39463 0.0
C26 C 0.30876 0.1556 0.44061 0.0
C27 C 0.32847 0.14308 0.4501 0.0
C28 C 0.33619 0.1487 0.47098 0.0
C29 C 0.32523 0.16789 0.48255 0.0
C30 C 0.30449 0.17937 0.47321 0.0
C31 C 0.29616 0.17311 0.45244 0.0
P32 P 0.90532 0.11227 0.43005 0.0
H33 H 0.90547 0.0658 0.39925 0.0
H34 H 0.85879 0.01725 0.38037 0.0
H35 H 0.78246 0.03679 0.40854 0.0
H36 H 0.82931 0.08597 0.4272 0.0
H37 H 0.9622 0.17926 0.44188 0.0
H38 H 0.00868 0.22538 0.42234 0.0
H39 H 0.96021 0.1718 0.36624 0.0
H40 H 0.91318 0.12594 0.38568 0.0
H41 H 0.88195 0.07837 0.46898 0.0
H42 H 0.8905 0.16756 0.44044 0.0
O43 O 0.92994 0.09638 0.43822 0.0
H44 H 0.86053 0.09182 0.50022 0.0
H45 H 0.86901 0.18106 0.47184 0.0
C46 C 0.87082 0.07924 0.41476 0.0
C47 C 0.87877 0.06001 0.40115 0.0
C48 C 0.85224 0.03249 0.39031 0.0
C49 C 0.81733 0.02362 0.39307 0.0
C50 C 0.80935 0.0435 0.40616 0.0
C51 C 0.83603 0.07137 0.41686 0.0
C52 C 0.93392 0.14926 0.41533 0.0
C53 C 0.96084 0.17787 0.42537 0.0
C54 C 0.98743 0.20409 0.41425 0.0
C55 C 0.98772 0.20195 0.39289 0.0
C56 C 0.9602 0.17396 0.38271 0.0
C57 C 0.9334 0.14779 0.39388 0.0
C58 C 0.88849 0.12234 0.45255 0.0
C59 C 0.87933 0.1009 0.46945 0.0
C60 C 0.86708 0.10851 0.48726 0.0
C61 C 0.8635 0.13757 0.48838 0.0
C62 C 0.87186 0.15865 0.47129 0.0
C63 C 0.88413 0.15098 0.45343 0.0
P64 P 0.86484 0.72438 0.41049 0.0
H65 H 0.83137 0.71547 0.37078 0.0
H66 H 0.79443 0.73632 0.35632 0.0
H67 H 0.81008 0.79683 0.41079 0.0
H68 H 0.84956 0.77839 0.42441 0.0
H69 H 0.91104 0.69618 0.40543 0.0
H70 H 0.96869 0.71788 0.39008 0.0
H71 H 0.97172 0.81214 0.37612 0.0
H72 H 0.91428 0.79076 0.39207 0.0
H73 H 0.81619 0.72514 0.44117 0.0
H74 H 0.90856 0.71593 0.44114 0.0
O75 O 0.84293 0.68352 0.40298 0.0
H76 H 0.81013 0.71488 0.4777 0.0
H77 H 0.90001 0.70167 0.47732 0.0
C78 C 0.84187 0.74402 0.39915 0.0
C79 C 0.82722 0.73355 0.37954 0.0
C80 C 0.80605 0.74534 0.37129 0.0
C81 C 0.79843 0.76723 0.38273 0.0
C82 C 0.81487 0.77933 0.40185 0.0
C83 C 0.83715 0.76853 0.40973 0.0
C84 C 0.9083 0.74185 0.40002 0.0
C85 C 0.92416 0.72165 0.39925 0.0
C86 C 0.95695 0.73391 0.39035 0.0
C87 C 0.97447 0.76654 0.38181 0.0
C88 C 0.95863 0.78683 0.38255 0.0
C89 C 0.92591 0.77467 0.39172 0.0
C90 C 0.86394 0.72314 0.43825 0.0
C91 C 0.83603 0.72226 0.44899 0.0
C92 C 0.8321 0.71568 0.46994 0.0
C93 C 0.85444 0.70724 0.48041 0.0
C94 C 0.8825 0.70829 0.46974 0.0
C95 C 0.88737 0.71647 0.44897 0.0
P96 P 0.13673 0.27115 0.61293 0.0
H97 H 0.11394 0.28417 0.65187 0.0
H98 H 0.05646 0.26444 0.66697 0.0
H99 H 0.00755 0.19971 0.61429 0.0
H100 H 0.06535 0.2181 0.59964 0.0
H101 H 0.17285 0.27731 0.65139 0.0
H102 H 0.20841 0.25313 0.66334 0.0
H103 H 0.18398 0.19278 0.608 0.0
H104 H 0.14749 0.21614 0.59632 0.0
H105 H 0.08883 0.27089 0.58091 0.0
H106 H 0.19146 0.28229 0.58421 0.0
O107 O 0.15989 0.31154 0.62119 0.0
H108 H 0.09623 0.28215 0.54424 0.0
H109 H 0.19932 0.29491 0.54781 0.0
C110 C 0.09392 0.25376 0.62419 0.0
C111 C 0.09091 0.26563 0.64354 0.0
C112 C 0.05812 0.25437 0.6522 0.0
C113 C 0.02762 0.23129 0.64155 0.0
C114 C 0.0307 0.21802 0.62262 0.0
C115 C 0.06366 0.22873 0.61418 0.0
C116 C 0.15835 0.24927 0.6227 0.0
C117 C 0.17475 0.25855 0.64192 0.0
C118 C 0.19502 0.24479 0.64875 0.0
C119 C 0.19934 0.22164 0.63639 0.0
C120 C 0.18127 0.21087 0.61767 0.0
C121 C 0.16057 0.22429 0.61098 0.0
C122 C 0.13886 0.27391 0.5853 0.0
C123 C 0.11241 0.27454 0.57375 0.0
C124 C 0.11679 0.28143 0.5528 0.0
C125 C 0.14831 0.28928 0.54323 0.0
C126 C 0.17467 0.28861 0.55478 0.0
C127 C 0.17003 0.28116 0.57558 0.0
P128 P 0.80222 0.89159 0.59285 0.0
H129 H 0.8548 0.95024 0.616 0.0
H130 H 0.8536 0.99734 0.6341 0.0
H131 H 0.74392 0.95227 0.62026 0.0
H132 H 0.74509 0.90501 0.60194 0.0
H133 H 0.80377 0.82968 0.5836 0.0
H134 H 0.80252 0.78533 0.6053 0.0
H135 H 0.78028 0.82968 0.6576 0.0
H136 H 0.78181 0.87433 0.63595 0.0
H137 H 0.81114 0.92389 0.55364 0.0
H138 H 0.73152 0.8345 0.58369 0.0
O139 O 0.843 0.90758 0.58451 0.0
H140 H 0.77396 0.90885 0.52309 0.0
H141 H 0.69422 0.81949 0.55304 0.0
C142 C 0.80022 0.92462 0.60727 0.0
C143 C 0.83046 0.95039 0.61685 0.0
C144 C 0.82979 0.97715 0.62723 0.0
C145 C 0.79874 0.97822 0.62837 0.0
C146 C 0.7681 0.95177 0.61946 0.0
C147 C 0.76882 0.92499 0.60898 0.0
C148 C 0.7931 0.85535 0.60816 0.0
C149 C 0.79776 0.82941 0.59963 0.0
C150 C 0.79698 0.80411 0.61197 0.0
C151 C 0.79132 0.80435 0.63299 0.0
C152 C 0.78443 0.82904 0.64136 0.0
C153 C 0.78546 0.85454 0.629 0.0
C154 C 0.77431 0.87994 0.57073 0.0
C155 C 0.78576 0.90094 0.55361 0.0
C156 C 0.76461 0.89244 0.53623 0.0
C157 C 0.73157 0.86296 0.53582 0.0
C158 C 0.71979 0.8422 0.55308 0.0
C159 C 0.74104 0.85073 0.5705 0.0
P160 P 0.14068 0.85387 0.61156 0.0
H161 H 0.198 0.88999 0.64107 0.0
H162 H 0.23096 0.94988 0.65253 0.0
H163 H 0.16824 0.97371 0.61315 0.0
H164 H 0.13536 0.91379 0.60152 0.0
H165 H 0.08289 0.78536 0.60381 0.0
H166 H 0.02508 0.75175 0.61908 0.0
H167 H 0.04494 0.83746 0.65769 0.0
H168 H 0.10283 0.8714 0.64227 0.0
H169 H 0.19708 0.87057 0.58315 0.0
H170 H 0.08713 0.83655 0.57929 0.0
O171 O 0.16124 0.83386 0.6199 0.0
H172 H 0.19902 0.86562 0.54589 0.0
H173 H 0.08891 0.83065 0.54211 0.0
C174 C 0.1644 0.89759 0.62033 0.0
C175 C 0.19134 0.90804 0.63484 0.0
C176 C 0.21016 0.94214 0.64139 0.0
C177 C 0.20204 0.96605 0.63361 0.0
C178 C 0.17488 0.95552 0.61924 0.0
C179 C 0.15617 0.92146 0.61264 0.0
C180 C 0.09692 0.83111 0.62154 0.0
C181 C 0.07464 0.79721 0.61528 0.0
C182 C 0.04175 0.77801 0.62402 0.0
C183 C 0.03074 0.79225 0.63936 0.0
C184 C 0.05293 0.8262 0.64571 0.0
C185 C 0.08588 0.84553 0.63685 0.0
C186 C 0.1418 0.85304 0.58405 0.0
C187 C 0.1734 0.86211 0.5743 0.0
C188 C 0.17456 0.85938 0.55308 0.0
C189 C 0.14402 0.84734 0.5413 0.0
C190 C 0.11269 0.83972 0.55097 0.0
C191 C 0.11164 0.84285 0.5722 0.0
P192 P 0.97158 0.47643 0.74572 0.0
H193 H 0.9809 0.43956 0.71162 0.0
H194 H 0.94816 0.37957 0.70017 0.0
H195 H 0.87671 0.35674 0.75 0.0
H196 H 0.90951 0.41669 0.76153 0.0
H197 H 0.9912 0.54823 0.74739 0.0
H198 H 0.96493 0.58007 0.73294 0.0
H199 H 0.8857 0.4881 0.70327 0.0
H200 H 0.91085 0.45592 0.71833 0.0
H201 H 1.00043 0.45112 0.77633 0.0
H202 H 0.94788 0.50968 0.77604 0.0
O203 O 0.01241 0.49366 0.73729 0.0
H204 H 0.01173 0.46254 0.81313 0.0
H205 H 0.96071 0.52243 0.81238 0.0
C206 C 0.9481 0.43227 0.73773 0.0
C207 C 0.95834 0.42162 0.72017 0.0
C208 C 0.93957 0.38756 0.71352 0.0
C209 C 0.9101 0.36392 0.72424 0.0
C210 C 0.89941 0.37475 0.74155 0.0
C211 C 0.91823 0.40877 0.7482 0.0
C212 C 0.95261 0.49958 0.73436 0.0
C213 C 0.96805 0.53485 0.73788 0.0
C214 C 0.95323 0.55302 0.7296 0.0
C215 C 0.92334 0.53632 0.71716 0.0
C216 C 0.9087 0.50132 0.71291 0.0
C217 C 0.92306 0.48299 0.7216 0.0
C218 C 0.97407 0.48018 0.77326 0.0
C219 C 0.99109 0.46617 0.78416 0.0
C220 C 0.99757 0.47269 0.80512 0.0
C221 C 0.98767 0.4939 0.81539 0.0
C222 C 0.96895 0.50635 0.8047 0.0
C223 C 0.96191 0.49928 0.78384 0.0
P224 P 0.57445 0.44373 0.76569 0.0
H225 H 0.568 0.38597 0.74209 0.0
H226 H 0.5192 0.33907 0.72347 0.0
H227 H 0.45548 0.3844 0.73576 0.0
H228 H 0.5044 0.43142 0.75474 0.0
H229 H 0.63959 0.50381 0.77716 0.0
H230 H 0.68726 0.54758 0.75705 0.0
H231 H 0.62464 0.50788 0.7024 0.0
H232 H 0.57692 0.46354 0.72251 0.0
H233 H 0.54775 0.40989 0.80425 0.0
H234 H 0.56258 0.5011 0.77515 0.0
O235 O 0.59724 0.42633 0.77461 0.0
H236 H 0.52535 0.42427 0.8347 0.0
H237 H 0.53981 0.5154 0.80571 0.0
C238 C 0.5395 0.4117 0.75018 0.0
C239 C 0.54364 0.386 0.74074 0.0
C240 C 0.51591 0.35934 0.73005 0.0
C241 C 0.4838 0.35826 0.7284 0.0
C242 C 0.48012 0.38488 0.73695 0.0
C243 C 0.50791 0.41153 0.74779 0.0
C244 C 0.60482 0.48035 0.75136 0.0
C245 C 0.63573 0.50496 0.76094 0.0
C246 C 0.66291 0.52988 0.74948 0.0
C247 C 0.65954 0.53066 0.72825 0.0
C248 C 0.62767 0.50756 0.71877 0.0
C249 C 0.60051 0.48231 0.73027 0.0
C250 C 0.55738 0.45475 0.78762 0.0
C251 C 0.54628 0.43306 0.80444 0.0
C252 C 0.53347 0.4412 0.82179 0.0
C253 C 0.53118 0.47099 0.82249 0.0
C254 C 0.54162 0.49241 0.80547 0.0
C255 C 0.55459 0.48428 0.7881 0.0
P256 P 0.53018 0.06371 0.74159 0.0
H257 H 0.50554 0.06612 0.70062 0.0
H258 H 0.46605 0.08498 0.68753 0.0
H259 H 0.45888 0.11965 0.74788 0.0
H260 H 0.49887 0.10137 0.76095 0.0
H261 H 0.59085 0.06421 0.7595 0.0
H262 H 0.65027 0.08517 0.74744 0.0
H263 H 0.62962 0.13027 0.69566 0.0
H264 H 0.57016 0.1102 0.70808 0.0
H265 H 0.47659 0.00639 0.76423 0.0
H266 H 0.56734 0.10361 0.77873 0.0
O267 O 0.51404 0.02564 0.73008 0.0
H268 H 0.46831 0.99264 0.80055 0.0
H269 H 0.5591 0.08959 0.81529 0.0
C270 C 0.50522 0.08228 0.73177 0.0
C271 C 0.49597 0.07829 0.711 0.0
C272 C 0.47331 0.08888 0.70353 0.0
C273 C 0.45921 0.10338 0.71676 0.0
C274 C 0.46926 0.10831 0.73744 0.0
C275 C 0.49219 0.09796 0.74487 0.0
C276 C 0.5761 0.08646 0.73513 0.0
C277 C 0.59933 0.07983 0.74603 0.0
C278 C 0.63326 0.09157 0.73906 0.0
C279 C 0.64451 0.10959 0.72077 0.0
C280 C 0.62163 0.11687 0.70997 0.0
C281 C 0.58768 0.10542 0.71712 0.0
C282 C 0.52314 0.05564 0.76868 0.0
C283 C 0.49475 0.02481 0.7752 0.0
C284 C 0.48995 0.01695 0.79593 0.0
C285 C 0.51331 0.03988 0.81057 0.0
C286 C 0.54095 0.07143 0.80419 0.0
C287 C 0.54567 0.07936 0.78337 0.0
P288 P 0.80442 0.61212 0.94413 0.0
H289 H 0.78036 0.6164 0.9849 0.0
H290 H 0.7224 0.59688 0.99941 0.0
H291 H 0.6748 0.54986 0.94172 0.0
H292 H 0.73292 0.56921 0.92717 0.0
H293 H 0.86282 0.60822 0.92596 0.0
H294 H 0.89856 0.58437 0.93796 0.0
H295 H 0.83245 0.54347 0.99039 0.0
H296 H 0.79619 0.56669 0.97821 0.0
H297 H 0.81659 0.6718 0.92099 0.0
H298 H 0.79307 0.56905 0.90715 0.0
O299 O 0.82863 0.65036 0.95524 0.0
H300 H 0.8229 0.6848 0.88463 0.0
H301 H 0.79886 0.58204 0.8704 0.0
C302 C 0.7611 0.59461 0.95486 0.0
C303 C 0.7575 0.60172 0.97535 0.0
C304 C 0.72445 0.59063 0.98366 0.0
C305 C 0.69429 0.57225 0.9716 0.0
C306 C 0.69776 0.5642 0.95126 0.0
C307 C 0.73092 0.57523 0.94296 0.0
C308 C 0.82602 0.58842 0.95079 0.0
C309 C 0.85525 0.59325 0.93971 0.0
C310 C 0.87594 0.57996 0.94667 0.0
C311 C 0.8682 0.56214 0.96508 0.0
C312 C 0.8388 0.557 0.9761 0.0
C313 C 0.81795 0.57008 0.96904 0.0
C314 C 0.80509 0.61964 0.9169 0.0
C315 C 0.81261 0.65191 0.91015 0.0
C316 C 0.81615 0.65937 0.88934 0.0
C317 C 0.81188 0.63461 0.87474 0.0
C318 C 0.80265 0.60168 0.88138 0.0
C319 C 0.79933 0.59427 0.90233 0.0
P320 P 0.46804 0.23254 0.92205 0.0
H321 H 0.52197 0.29091 0.94449 0.0
H322 H 0.52151 0.33695 0.96432 0.0
H323 H 0.41009 0.28884 0.9558 0.0
H324 H 0.41049 0.24257 0.93585 0.0
H325 H 0.52063 0.21448 0.93214 0.0
H326 H 0.51953 0.16918 0.95237 0.0
H327 H 0.41131 0.13149 0.96653 0.0
H328 H 0.41256 0.17793 0.94639 0.0
H329 H 0.45107 0.26912 0.89258 0.0
H330 H 0.4142 0.16382 0.9072 0.0
O331 O 0.50623 0.25181 0.91001 0.0
H332 H 0.41146 0.25068 0.86302 0.0
H333 H 0.3736 0.14548 0.87817 0.0
C334 C 0.46641 0.2639 0.93832 0.0
C335 C 0.49739 0.29009 0.94698 0.0
C336 C 0.49714 0.31622 0.95834 0.0
C337 C 0.46582 0.31623 0.96136 0.0
C338 C 0.43447 0.28913 0.95356 0.0
C339 C 0.43476 0.26294 0.94214 0.0
C340 C 0.46646 0.19912 0.93741 0.0
C341 C 0.49658 0.19665 0.93954 0.0
C342 C 0.49602 0.17087 0.95115 0.0
C343 C 0.46535 0.14705 0.96086 0.0
C344 C 0.4352 0.14973 0.95913 0.0
C345 C 0.4359 0.17601 0.94762 0.0
C346 C 0.43515 0.21791 0.90233 0.0
C347 C 0.43394 0.24208 0.8897 0.0
C348 C 0.41148 0.23161 0.87284 0.0
C349 C 0.38963 0.19675 0.86846 0.0
C350 C 0.39022 0.1725 0.88137 0.0
C351 C 0.4132 0.18302 0.89805 0.0
P352 P 0.81278 0.18868 0.95142 0.0
H353 H 0.87646 0.23004 0.97577 0.0
H354 H 0.90777 0.29043 0.98621 0.0
H355 H 0.83043 0.30531 0.95541 0.0
H356 H 0.79899 0.24474 0.94485 0.0
H357 H 0.78581 0.15169 0.98929 0.0
H358 H 0.72661 0.11601 1.00235 0.0
H359 H 0.68479 0.14132 0.95029 0.0
H360 H 0.74429 0.17823 0.93761 0.0
H361 H 0.86724 0.2282 0.92219 0.0
H362 H 0.76354 0.14035 0.9203 0.0
O363 O 0.83442 0.17025 0.96058 0.0
H364 H 0.87425 0.21953 0.88595 0.0
H365 H 0.76973 0.13314 0.88376 0.0
C366 C 0.83522 0.23285 0.95962 0.0
C367 C 0.86608 0.24615 0.97127 0.0
C368 C 0.88405 0.28061 0.97721 0.0
C369 C 0.87139 0.30221 0.97156 0.0
C370 C 0.84055 0.28894 0.9599 0.0
C371 C 0.8226 0.25447 0.95394 0.0
C372 C 0.76935 0.16645 0.96202 0.0
C373 C 0.764 0.1499 0.98075 0.0
C374 C 0.73025 0.12965 0.98827 0.0
C375 C 0.70125 0.12539 0.97707 0.0
C376 C 0.70678 0.14389 0.95904 0.0
C377 C 0.74068 0.16471 0.95172 0.0
C378 C 0.81444 0.18567 0.92394 0.0
C379 C 0.84552 0.20776 0.91388 0.0
C380 C 0.84959 0.20277 0.89319 0.0
C381 C 0.82251 0.17571 0.88209 0.0
C382 C 0.79092 0.15427 0.89198 0.0
C383 C 0.78725 0.15869 0.91284 0.0
P384 P 0.63231 0.81433 0.07949 0.0
H385 H 0.64322 0.78014 0.04456 0.0
H386 H 0.6128 0.72049 0.0324 0.0
H387 H 0.54093 0.69301 0.08241 0.0
H388 H 0.57156 0.75252 0.09474 0.0
H389 H 0.65869 0.88112 0.06096 0.0
H390 H 0.62963 0.91011 0.04635 0.0
H391 H 0.52936 0.82373 0.0606 0.0
H392 H 0.5584 0.79473 0.07543 0.0
H393 H 0.64162 0.77433 0.11115 0.0
H394 H 0.63243 0.86468 0.10811 0.0
O395 O 0.67308 0.83308 0.0708 0.0
H396 H 0.65431 0.78457 0.14789 0.0
H397 H 0.64549 0.87501 0.14469 0.0
C398 C 0.61006 0.77053 0.0708 0.0
C399 C 0.62105 0.76126 0.05299 0.0
C400 C 0.60364 0.72739 0.04596 0.0
C401 C 0.57471 0.70254 0.05653 0.0
C402 C 0.56324 0.71196 0.07408 0.0
C403 C 0.58078 0.74577 0.08116 0.0
C404 C 0.61069 0.83551 0.06895 0.0
C405 C 0.63047 0.86828 0.06089 0.0
C406 C 0.61394 0.88484 0.05257 0.0
C407 C 0.57742 0.86891 0.05231 0.0
C408 C 0.55758 0.83628 0.0606 0.0
C409 C 0.57416 0.81977 0.069 0.0
C410 C 0.6353 0.81831 0.10694 0.0
C411 C 0.64146 0.79584 0.11843 0.0
C412 C 0.64884 0.80172 0.13935 0.0
C413 C 0.65083 0.83054 0.14895 0.0
C414 C 0.64389 0.85255 0.13756 0.0
C415 C 0.63634 0.84657 0.11669 0.0
P416 P 0.23628 0.79067 0.09884 0.0
H417 H 0.23495 0.73723 0.07318 0.0
H418 H 0.18834 0.68828 0.05458 0.0
H419 H 0.11557 0.72109 0.07149 0.0
H420 H 0.16237 0.77012 0.0905 0.0
H421 H 0.30251 0.85084 0.10899 0.0
H422 H 0.34917 0.89423 0.08807 0.0
H423 H 0.28426 0.85266 0.03441 0.0
H424 H 0.23754 0.8088 0.05532 0.0
H425 H 0.21606 0.76271 0.13961 0.0
H426 H 0.22055 0.84624 0.10618 0.0
O427 O 0.25972 0.77435 0.10833 0.0
H428 H 0.19818 0.78135 0.17027 0.0
H429 H 0.20198 0.86463 0.13692 0.0
C430 C 0.20198 0.75694 0.08358 0.0
C431 C 0.20904 0.73407 0.07286 0.0
C432 C 0.18251 0.70622 0.06217 0.0
C433 C 0.1485 0.70098 0.06173 0.0
C434 C 0.14168 0.72472 0.07166 0.0
C435 C 0.1683 0.75257 0.08254 0.0
C436 C 0.26655 0.82653 0.08377 0.0
C437 C 0.29795 0.85143 0.0928 0.0
C438 C 0.32461 0.87612 0.08087 0.0
C439 C 0.32024 0.8765 0.0597 0.0
C440 C 0.2881 0.85276 0.05074 0.0
C441 C 0.26146 0.82778 0.0627 0.0
C442 C 0.22009 0.80334 0.12065 0.0
C443 C 0.21304 0.78498 0.13882 0.0
C444 C 0.20285 0.79559 0.15634 0.0
C445 C 0.19896 0.82452 0.15597 0.0
C446 C 0.20501 0.84236 0.13759 0.0
C447 C 0.21551 0.83183 0.12006 0.0
P448 P 0.19681 0.40195 0.07593 0.0
H449 H 0.16474 0.39611 0.03602 0.0
H450 H 0.12685 0.41653 0.02251 0.0
H451 H 0.13729 0.4701 0.07924 0.0
H452 H 0.17708 0.45153 0.09226 0.0
H453 H 0.22394 0.397 0.03631 0.0
H454 H 0.28301 0.41692 0.02358 0.0
H455 H 0.32608 0.4707 0.08045 0.0
H456 H 0.26692 0.45229 0.09278 0.0
H457 H 0.14258 0.39175 0.10543 0.0
H458 H 0.24015 0.39327 0.10677 0.0
O459 O 0.17672 0.3618 0.0671 0.0
H460 H 0.13551 0.38029 0.1412 0.0
H461 H 0.23353 0.38144 0.14248 0.0
C462 C 0.17291 0.42131 0.06544 0.0
C463 C 0.15933 0.41264 0.04549 0.0
C464 C 0.13756 0.42417 0.03778 0.0
C465 C 0.12842 0.44414 0.05002 0.0
C466 C 0.14345 0.45425 0.06962 0.0
C467 C 0.16604 0.44348 0.0771 0.0
C468 C 0.24082 0.42208 0.06581 0.0
C469 C 0.24603 0.4136 0.04595 0.0
C470 C 0.27978 0.42498 0.03865 0.0
C471 C 0.30906 0.44472 0.05119 0.0
C472 C 0.30394 0.45517 0.07056 0.0
C473 C 0.2701 0.44438 0.07768 0.0
C474 C 0.19411 0.39784 0.10358 0.0
C475 C 0.16402 0.39242 0.11377 0.0
C476 C 0.16032 0.38628 0.13478 0.0
C477 C 0.18695 0.38602 0.14671 0.0
C478 C 0.2149 0.38701 0.13556 0.0
C479 C 0.2186 0.39326 0.11454 0.0
P480 P 0.47188 0.93193 0.27869 0.0
H481 H 0.44334 0.93096 0.31893 0.0
H482 H 0.3835 0.90855 0.33132 0.0
H483 H 0.34327 0.86618 0.27157 0.0
H484 H 0.40298 0.88799 0.25923 0.0
H485 H 0.53319 0.93262 0.2617 0.0
H486 H 0.56956 0.90945 0.27348 0.0
H487 H 0.50177 0.86458 0.32487 0.0
H488 H 0.46463 0.88686 0.3128 0.0
H489 H 0.48244 0.98951 0.25386 0.0
H490 H 0.46388 0.88748 0.24333 0.0
O491 O 0.49315 0.97057 0.28969 0.0
H492 H 0.49035 0.00035 0.21721 0.0
H493 H 0.47162 0.89838 0.20642 0.0
C494 C 0.42769 0.91146 0.2881 0.0
C495 C 0.42166 0.9164 0.30855 0.0
C496 C 0.3876 0.90363 0.31565 0.0
C497 C 0.35909 0.88597 0.3023 0.0
C498 C 0.36501 0.87984 0.28206 0.0
C499 C 0.39909 0.89236 0.27502 0.0
C500 C 0.49545 0.91061 0.28597 0.0
C501 C 0.52548 0.91704 0.2752 0.0
C502 C 0.54649 0.90415 0.28202 0.0
C503 C 0.53831 0.88529 0.30002 0.0
C504 C 0.50838 0.87894 0.31089 0.0
C505 C 0.48711 0.89153 0.30391 0.0
C506 C 0.47338 0.93795 0.25139 0.0
C507 C 0.47984 0.96934 0.24368 0.0
C508 C 0.48425 0.97553 0.22275 0.0
C509 C 0.48201 0.95034 0.20915 0.0
C510 C 0.47371 0.91823 0.21671 0.0
C511 C 0.46937 0.91207 0.23772 0.0
P512 P 0.13825 0.56846 0.25708 0.0
H513 H 0.18125 0.61897 0.28765 0.0
H514 H 0.17437 0.66225 0.3065 0.0
H515 H 0.06934 0.619 0.28315 0.0
H516 H 0.07626 0.57568 0.26408 0.0
H517 H 0.17071 0.52774 0.24849 0.0
H518 H 0.17392 0.48305 0.26756 0.0
H519 H 0.10659 0.48719 0.31356 0.0
H520 H 0.10344 0.53211 0.29452 0.0
H521 H 0.14104 0.60072 0.21861 0.0
H522 H 0.07091 0.50635 0.24828 0.0
O523 O 0.17871 0.59261 0.24837 0.0
H524 H 0.10166 0.58318 0.189 0.0
H525 H 0.03118 0.48889 0.21857 0.0
C526 C 0.12968 0.59488 0.27403 0.0
C527 C 0.15648 0.61832 0.28689 0.0
C528 C 0.15247 0.64278 0.29778 0.0
C529 C 0.12142 0.64377 0.29611 0.0
C530 C 0.09339 0.6184 0.28468 0.0
C531 C 0.09752 0.59399 0.27365 0.0
C532 C 0.13733 0.53353 0.27029 0.0
C533 C 0.15654 0.51897 0.26263 0.0
C534 C 0.15843 0.49361 0.27348 0.0
C535 C 0.1408 0.48226 0.29199 0.0
C536 C 0.12053 0.49593 0.29934 0.0
C537 C 0.11875 0.52145 0.28849 0.0
C538 C 0.10919 0.55449 0.2354 0.0
C539 C 0.11732 0.5761 0.21867 0.0
C540 C 0.09489 0.56619 0.20182 0.0
C541 C 0.06376 0.53467 0.20158 0.0
C542 C 0.05528 0.51317 0.21846 0.0
C543 C 0.0779 0.52309 0.23533 0.0
P544 P 0.4731 0.51348 0.28322 0.0
H545 H 0.54006 0.55248 0.30467 0.0
H546 H 0.57432 0.61255 0.31565 0.0
H547 H 0.49537 0.63124 0.29071 0.0
H548 H 0.46099 0.57107 0.27969 0.0
H549 H 0.41088 0.45549 0.26548 0.0
H550 H 0.35082 0.42189 0.27742 0.0
H551 H 0.37518 0.49092 0.32865 0.0
H552 H 0.43556 0.52501 0.31657 0.0
H553 H 0.52464 0.50576 0.25988 0.0
H554 H 0.43701 0.5197 0.24711 0.0
O555 O 0.48881 0.49136 0.29488 0.0
H556 H 0.5335 0.50247 0.22321 0.0
H557 H 0.44568 0.51592 0.21024 0.0
C558 C 0.49766 0.55726 0.29174 0.0
C559 C 0.52994 0.56938 0.30168 0.0
C560 C 0.54957 0.6036 0.30787 0.0
C561 C 0.53721 0.62609 0.30403 0.0
C562 C 0.50516 0.61409 0.29384 0.0
C563 C 0.48557 0.57987 0.28763 0.0
C564 C 0.42752 0.4934 0.28976 0.0
C565 C 0.40315 0.46424 0.27885 0.0
C566 C 0.36889 0.44497 0.28569 0.0
C567 C 0.35855 0.45421 0.30374 0.0
C568 C 0.3826 0.4838 0.31448 0.0
C569 C 0.41696 0.5032 0.30756 0.0
C570 C 0.47957 0.51199 0.25619 0.0
C571 C 0.50719 0.50792 0.2492 0.0
C572 C 0.51235 0.50617 0.22832 0.0
C573 C 0.49005 0.50866 0.21412 0.0
C574 C 0.46296 0.51373 0.22104 0.0
C575 C 0.45798 0.51574 0.242 0.0
Tb576 Tb 0.48934 0.977 0.98564 0.0
C577 C 0.56403 0.09737 0.04856 0.0
C578 C 0.62523 0.11608 0.04489 0.0
C579 C 0.60762 0.1559 0.05731 0.0
C580 C 0.5898 0.09064 0.04283 0.0
C581 C 0.57258 0.12967 0.05666 0.0
C582 C 0.63396 0.14915 0.05131 0.0
C583 C 0.51178 0.10655 0.06483 0.0
N584 N 0.53062 0.07123 0.04784 0.0
C585 C 0.50458 0.07513 0.05637 0.0
C586 C 0.54585 0.13413 0.06468 0.0
Tb587 Tb 0.52118 0.01983 0.03511 0.0
N588 N 0.58016 0.05803 0.03762 0.0
C589 C 0.60494 0.04843 0.0368 0.0
C590 C 0.65073 0.10695 0.04176 0.0
C591 C 0.64048 0.07276 0.03823 0.0
H592 H 0.47807 0.05423 0.05659 0.0
H593 H 0.6599 0.06504 0.03673 0.0
H594 H 0.661 0.16916 0.05269 0.0
H595 H 0.49097 0.10953 0.07132 0.0
H596 H 0.5977 0.0221 0.03464 0.0
H597 H 0.35245 0.94006 0.98745 0.0
H598 H 0.67823 0.1257 0.0431 0.0
H599 H 0.522 0.93513 0.96119 0.0
H600 H 0.41551 0.98035 0.98609 0.0
H601 H 0.50544 0.8751 0.95401 0.0
H602 H 0.6147 0.18106 0.06315 0.0
H603 H 0.3302 0.87785 0.98714 0.0
H604 H 0.34295 0.82976 0.98299 0.0
H605 H 0.55134 0.15845 0.07119 0.0
H606 H 0.38541 0.81166 0.97421 0.0
N607 N 0.42964 0.94167 0.98583 0.0
C608 C 0.40649 0.95339 0.98596 0.0
C609 C 0.35804 0.89548 0.98659 0.0
C610 C 0.38163 0.88363 0.98464 0.0
C611 C 0.37051 0.93055 0.98667 0.0
C612 C 0.4176 0.90772 0.98402 0.0
H613 H 0.44636 0.82855 0.96285 0.0
N614 N 0.47468 0.92232 0.97639 0.0
C615 C 0.48727 0.88095 0.96152 0.0
C616 C 0.44121 0.89757 0.97926 0.0
C617 C 0.49678 0.91487 0.96588 0.0
C618 C 0.45394 0.85476 0.96656 0.0
C619 C 0.42991 0.86304 0.97477 0.0
O620 O 0.51466 0.98881 0.95713 0.0
O621 O 0.53153 0.0184 1.00295 0.0
O622 O 0.51359 0.05569 0.01633 0.0
O623 O 0.47715 0.01858 0.99062 0.0
O624 O 0.54497 0.99766 0.97928 0.0
O625 O 0.46596 0.9875 0.96088 0.0
O626 O 0.49449 0.00423 0.06309 0.0
O627 O 0.4787 0.97823 0.01787 0.0
O628 O 0.50361 0.94439 1.00284 0.0
O629 O 0.53739 0.98163 0.02946 0.0
O630 O 0.46606 0.00184 0.04011 0.0
O631 O 0.54228 0.00396 0.0585 0.0
C632 C 0.5576 0.02105 0.99323 0.0
C633 C 0.47866 0.97517 0.92781 0.0
C634 C 0.48033 0.98013 0.89068 0.0
C635 C 0.49091 0.99527 0.9102 0.0
C636 C 0.45756 0.94479 0.88895 0.0
C637 C 0.45564 0.93995 0.92576 0.0
C638 C 0.44528 0.92487 0.9064 0.0
C639 C 0.49304 0.049 1.00002 0.0
C640 C 0.49008 0.99149 0.94809 0.0
C641 C 0.39457 0.83843 0.97721 0.0
C642 C 0.3704 0.84874 0.98216 0.0
C643 C 0.45287 0.97741 0.02691 0.0
C644 C 0.52978 0.01381 0.09216 0.0
C645 C 0.51457 0.99331 0.10935 0.0
C646 C 0.52534 0.00716 0.12915 0.0
C647 C 0.55131 0.04153 0.13157 0.0
C648 C 0.5559 0.04801 0.09495 0.0
C649 C 0.56647 0.06178 0.11455 0.0
C650 C 0.52486 0.95259 0.01887 0.0
C651 C 0.51813 -0.00072 0.07149 0.0
H652 H 0.50855 0.02255 0.91165 0.0
H653 H 0.44917 0.93267 0.87406 0.0
H654 H 0.44559 0.92415 0.93906 0.0
H655 H 0.42758 0.89766 0.90491 0.0
H656 H 0.49459 0.96676 0.10737 0.0
H657 H 0.55998 0.0526 0.14667 0.0
H658 H 0.5683 0.06402 0.08204 0.0
H659 H 0.58661 0.08822 0.11655 0.0
Tb660 Tb 0.02399 0.5146 0.988 0.0
C661 C 0.89562 0.45955 0.04449 0.0
C662 C 0.87231 0.49664 0.03775 0.0
C663 C 0.83429 0.43973 0.05064 0.0
C664 C 0.90035 0.49018 0.03776 0.0
C665 C 0.86286 0.43437 0.05176 0.0
C666 C 0.83897 0.4708 0.04352 0.0
C667 C 0.8898 0.40193 0.06224 0.0
N668 N 0.9239 0.45542 0.04527 0.0
C669 C 0.92165 0.42751 0.05465 0.0
C670 C 0.86016 0.40517 0.06059 0.0
Tb671 Tb 0.97613 0.5005 0.03515 0.0
N672 N 0.93322 0.5148 0.03319 0.0
C673 C 0.94034 0.54761 0.03063 0.0
C674 C 0.87906 0.52947 0.0332 0.0
C675 C 0.9134 0.55528 0.03016 0.0
H676 H 0.94432 0.42475 0.05636 0.0
H677 H 0.91919 0.58115 0.0275 0.0
H678 H 0.81703 0.47515 0.04341 0.0
H679 H 0.88816 0.37975 0.06938 0.0
H680 H 0.9667 0.56803 0.02849 0.0
H681 H 0.02094 0.39631 0.96485 0.0
H682 H 0.85828 0.53552 0.03299 0.0
H683 H 0.09566 0.59249 0.98282 0.0
H684 H 0.99996 0.43672 0.96522 0.0
H685 H 0.15888 0.61857 0.9874 0.0
H686 H 0.80878 0.4205 0.05586 0.0
H687 H 0.08023 0.41403 0.97758 0.0
H688 H 0.13859 0.46187 0.98877 0.0
H689 H 0.83553 0.38534 0.06649 0.0
H690 H 0.17703 0.52353 0.99441 0.0
N691 N 0.04331 0.4757 0.98205 0.0
C692 C 0.02446 0.44439 0.97253 0.0
C693 C 0.07036 0.43158 0.97866 0.0
C694 C 0.09174 0.46529 0.9852 0.0
C695 C 0.0369 0.42147 0.97156 0.0
C696 C 0.07744 0.48708 0.98642 0.0
H697 H 0.18498 0.58233 0.99367 0.0
N698 N 0.08455 0.54171 0.98894 0.0
C699 C 0.14232 0.5912 0.98856 0.0
C700 C 0.09889 0.52144 0.98992 0.0
C701 C 0.10619 0.57614 0.98617 0.0
C702 C 0.15693 0.5707 0.9921 0.0
C703 C 0.13535 0.53528 0.99192 0.0
O704 O 0.03376 0.55698 0.97041 0.0
O705 O 0.98519 0.52193 1.0047 0.0
O706 O 0.94323 0.45504 0.0159 0.0
O707 O 0.98095 0.46083 0.98923 0.0
O708 O 0.97422 0.50482 0.97511 0.0
O709 O 0.02788 0.5105 0.95602 0.0
O710 O 0.99541 0.49485 0.06348 0.0
O711 O 0.02168 0.50415 0.01985 0.0
O712 O 0.05247 0.55951 0.00866 0.0
O713 O 0.01268 0.55553 0.03305 0.0
O714 O 0.99724 0.46656 0.04064 0.0
O715 O 0.97848 0.53126 0.06017 0.0
C716 C 0.96257 0.51377 0.99045 0.0
C717 C 0.03819 0.55725 0.93339 0.0
C718 C 0.03058 0.55298 0.89633 0.0
C719 C 0.02769 0.53741 0.91527 0.0
C720 C 0.04471 0.58848 0.89565 0.0
C721 C 0.05221 0.59272 0.9323 0.0
C722 C 0.05557 0.60819 0.91352 0.0
C723 C 0.9508 0.4434 0.99903 0.0
C724 C 0.03279 0.54114 0.95351 0.0
C725 C 0.14925 0.51342 0.99242 0.0
C726 C 0.12738 0.47836 0.98922 0.0
C727 C 0.023 0.47984 0.02832 0.0
C728 C 0.97204 0.50661 0.09267 0.0
C729 C 0.99232 0.512 0.11029 0.0
C730 C 0.97644 0.50264 0.12948 0.0
C731 C 0.94005 0.4873 0.13092 0.0
C732 C 0.93575 0.49197 0.09441 0.0
C733 C 0.91985 0.48208 0.11342 0.0
C734 C 0.0433 0.57245 0.02409 0.0
C735 C 0.98947 0.5168 0.0728 0.0
H736 H 0.01661 0.50999 0.91585 0.0
H737 H 0.04726 0.60091 0.88122 0.0
H738 H 0.0604 0.60853 0.946 0.0
H739 H 0.06637 0.63553 0.91284 0.0
H740 H 0.02044 0.52382 0.10914 0.0
H741 H 0.92743 0.47991 0.1456 0.0
H742 H 0.91972 0.48848 0.0812 0.0
H743 H 0.89183 0.47065 0.11463 0.0
Tb744 Tb 0.51715 0.49269 0.03758 0.0
C745 C 0.44341 0.54944 0.98325 0.0
C746 C 0.38191 0.50847 0.98591 0.0
C747 C 0.40069 0.56758 0.97838 0.0
C748 C 0.41713 0.51675 0.98697 0.0
C749 C 0.43556 0.5751 0.9783 0.0
C750 C 0.37388 0.53429 0.98227 0.0
C751 C 0.49694 0.61297 0.97238 0.0
N752 N 0.47668 0.55558 0.98337 0.0
C753 C 0.50338 0.58669 0.97746 0.0
C754 C 0.46291 0.60726 0.97295 0.0
Tb755 Tb 0.48464 0.51048 0.99093 0.0
N756 N 0.42605 0.49247 0.98974 0.0
C757 C 0.40072 0.4588 0.98922 0.0
C758 C 0.35589 0.47425 0.98744 0.0
C759 C 0.36537 0.44922 0.98859 0.0
H760 H 0.52985 0.59166 0.97696 0.0
H761 H 0.3455 0.42252 0.98891 0.0
H762 H 0.347 0.52851 0.98164 0.0
H763 H 0.51825 0.63765 0.96807 0.0
H764 H 0.40754 0.43908 0.98957 0.0
H765 H 0.65462 0.58822 0.03896 0.0
H766 H 0.32851 0.46678 0.9868 0.0
H767 H 0.48149 0.41483 0.05592 0.0
H768 H 0.59171 0.5676 0.04 0.0
H769 H 0.49692 0.36966 0.05965 0.0
H770 H 0.39414 0.58705 0.97489 0.0
H771 H 0.67589 0.54713 0.03657 0.0
H772 H 0.66197 0.48596 0.0371 0.0
H773 H 0.45799 0.62766 0.969 0.0
H774 H 0.61837 0.4255 0.04233 0.0
N775 N 0.57669 0.51494 0.03734 0.0
C776 C 0.60029 0.54916 0.03889 0.0
C777 C 0.6481 0.53784 0.03696 0.0
C778 C 0.62399 0.50286 0.03706 0.0
C779 C 0.63619 0.56108 0.03838 0.0
C780 C 0.58811 0.4922 0.03751 0.0
H781 H 0.5565 0.38173 0.0512 0.0
N782 N 0.53032 0.45047 0.04317 0.0
C783 C 0.51589 0.39437 0.05386 0.0
C784 C 0.56385 0.45849 0.04038 0.0
C785 C 0.50708 0.41982 0.0515 0.0
C786 C 0.54951 0.40126 0.04903 0.0
C787 C 0.5744 0.4341 0.04296 0.0
O788 O 0.49126 0.47707 0.06581 0.0
O789 O 0.47479 0.49497 0.02244 0.0
O790 O 0.49217 0.55062 0.01288 0.0
O791 O 0.53025 0.54685 0.03593 0.0
O792 O 0.46154 0.45722 0.04312 0.0
O793 O 0.54115 0.52251 0.06377 0.0
O794 O 0.50992 0.52455 0.96255 0.0
O795 O 0.52739 0.50859 1.00613 0.0
O796 O 0.50463 0.4499 0.01681 0.0
O797 O 0.46855 0.4557 0.99281 0.0
O798 O 0.53986 0.54571 0.98523 0.0
O799 O 0.46145 0.47738 0.96565 0.0
C800 C 0.44877 0.47026 0.0309 0.0
C801 C 0.52758 0.49352 0.09499 0.0
C802 C 0.5256 0.49098 0.13209 0.0
C803 C 0.51497 0.49848 0.11361 0.0
C804 C 0.54867 0.47821 0.13182 0.0
C805 C 0.55092 0.48107 0.09496 0.0
C806 C 0.56126 0.47332 0.11331 0.0
C807 C 0.5139 0.56261 0.02876 0.0
C808 C 0.51653 0.50209 0.07589 0.0
C809 C 0.60976 0.44394 0.04074 0.0
C810 C 0.63458 0.47837 0.03781 0.0
C811 C 0.55317 0.53324 0.99737 0.0
C812 C 0.47449 0.50303 0.93312 0.0
C813 C 0.4877 0.49583 0.91543 0.0
C814 C 0.47821 0.50149 0.89602 0.0
C815 C 0.45533 0.51439 0.89445 0.0
C816 C 0.45152 0.51573 0.9313 0.0
C817 C 0.44204 0.52139 0.91203 0.0
C818 C 0.48273 0.4387 1.00103 0.0
C819 C 0.48565 0.49762 0.95316 0.0
H820 H 0.49713 0.50834 0.11377 0.0
H821 H 0.55705 0.47225 0.14594 0.0
H822 H 0.56132 0.47756 0.08083 0.0
H823 H 0.57923 0.46367 0.1132 0.0
H824 H 0.50542 0.48594 0.91674 0.0
H825 H 0.44774 0.51892 0.87962 0.0
H826 H 0.44096 0.52126 0.94471 0.0
H827 H 0.42434 0.53125 0.91071 0.0
Tb828 Tb 0.15217 0.30517 0.31842 0.0
C829 C 0.23486 0.42835 0.37422 0.0
C830 C 0.29431 0.44022 0.37374 0.0
C831 C 0.28246 0.487 0.37667 0.0
C832 C 0.25816 0.41704 0.37213 0.0
C833 C 0.24652 0.46335 0.37713 0.0
C834 C 0.3064 0.47541 0.37505 0.0
C835 C 0.18681 0.44831 0.38333 0.0
N836 N 0.2006 0.40449 0.37501 0.0
C837 C 0.17667 0.41385 0.38062 0.0
C838 C 0.22183 0.47325 0.3812 0.0
Tb839 Tb 0.18563 0.34886 0.36745 0.0
N840 N 0.24516 0.38286 0.37132 0.0
C841 C 0.2668 0.37019 0.37534 0.0
C842 C 0.31688 0.42719 0.37559 0.0
C843 C 0.30291 0.39203 0.3772 0.0
H844 H 0.14943 0.39489 0.38201 0.0
H845 H 0.31992 0.38165 0.37973 0.0
H846 H 0.3341 0.49369 0.37587 0.0
H847 H 0.16759 0.4556 0.38701 0.0
H848 H 0.25662 0.34317 0.37693 0.0
H849 H 0.01278 0.2525 0.3246 0.0
H850 H 0.34482 0.44405 0.377 0.0
H851 H 0.19328 0.27187 0.29298 0.0
H852 H 0.07427 0.29818 0.32225 0.0
H853 H 0.1832 0.21472 0.28372 0.0
H854 H 0.29201 0.51408 0.37855 0.0
H855 H 0.99763 0.19199 0.32223 0.0
H856 H 0.01734 0.14953 0.31452 0.0
H857 H 0.22967 0.4999 0.38344 0.0
H858 H 0.06423 0.13913 0.30297 0.0
N859 N 0.09404 0.26434 0.31953 0.0
C860 C 0.06805 0.27205 0.32132 0.0
C861 C 0.02467 0.21203 0.32128 0.0
C862 C 0.05106 0.20436 0.31744 0.0
C863 C 0.03311 0.24613 0.32256 0.0
C864 C 0.08575 0.23151 0.31632 0.0
H865 H 0.12629 0.16349 0.29096 0.0
N866 N 0.14373 0.25329 0.30699 0.0
C867 C 0.16294 0.21738 0.29127 0.0
C868 C 0.11166 0.22572 0.30963 0.0
C869 C 0.16869 0.24979 0.29674 0.0
C870 C 0.13082 0.18853 0.29539 0.0
C871 C 0.1043 0.19256 0.30417 0.0
O872 O 0.1768 0.32193 0.29006 0.0
O873 O 0.1951 0.34515 0.33571 0.0
O874 O 0.18065 0.38387 0.34672 0.0
O875 O 0.13989 0.3464 0.32303 0.0
O876 O 0.20771 0.32473 0.31191 0.0
O877 O 0.12565 0.31472 0.29491 0.0
O878 O 0.16158 0.34429 0.39593 0.0
O879 O 0.14164 0.30816 0.35079 0.0
O880 O 0.1632 0.27088 0.33577 0.0
O881 O 0.1989 0.30772 0.36204 0.0
O882 O 0.1317 0.33548 0.37183 0.0
O883 O 0.19766 0.32632 0.39174 0.0
C884 C 0.22099 0.34709 0.32636 0.0
C885 C 0.14112 0.30915 0.26089 0.0
C886 C 0.14661 0.31873 0.22407 0.0
C887 C 0.1545 0.33145 0.24426 0.0
C888 C 0.12524 0.28351 0.22067 0.0
C889 C 0.11981 0.27401 0.25718 0.0
C890 C 0.11195 0.26133 0.23715 0.0
C891 C 0.15804 0.37722 0.33165 0.0
C892 C 0.15071 0.32306 0.28186 0.0
C893 C 0.0704 0.16492 0.30682 0.0
C894 C 0.04373 0.17083 0.31344 0.0
C895 C 0.11684 0.31009 0.35936 0.0
C896 C 0.19439 0.34598 0.42477 0.0
C897 C 0.17782 0.32896 0.44281 0.0
C898 C 0.19337 0.34247 0.46201 0.0
C899 C 0.22541 0.37322 0.4629 0.0
C900 C 0.2262 0.37681 0.42608 0.0
C901 C 0.2416 0.39027 0.44506 0.0
C902 C 0.18539 0.27864 0.35112 0.0
C903 C 0.17842 0.33125 0.40475 0.0
H904 H 0.17111 0.35864 0.247 0.0
H905 H 0.11887 0.27323 0.20526 0.0
H906 H 0.10936 0.25644 0.26973 0.0
H907 H 0.09552 0.23418 0.23439 0.0
H908 H 0.15307 0.30528 0.44195 0.0
H909 H 0.23779 0.38411 0.47748 0.0
H910 H 0.23917 0.39045 0.41248 0.0
H911 H 0.26619 0.41404 0.44593 0.0
Tb912 Tb 0.69383 0.83686 0.32066 0.0
C913 C 0.56605 0.78175 0.37837 0.0
C914 C 0.54162 0.81802 0.37204 0.0
C915 C 0.50481 0.76121 0.38538 0.0
C916 C 0.57001 0.81207 0.37162 0.0
C917 C 0.53371 0.75633 0.38602 0.0
C918 C 0.50871 0.79198 0.37827 0.0
C919 C 0.56162 0.72437 0.3956 0.0
N920 N 0.5946 0.77804 0.37862 0.0
C921 C 0.59301 0.75018 0.38768 0.0
C922 C 0.53173 0.72729 0.39462 0.0
Tb923 Tb 0.64623 0.82363 0.36811 0.0
N924 N 0.60253 0.83693 0.36661 0.0
C925 C 0.60899 0.86953 0.36403 0.0
C926 C 0.54765 0.85059 0.36744 0.0
C927 C 0.58168 0.87668 0.36396 0.0
H928 H 0.61583 0.74756 0.38886 0.0
H929 H 0.58697 0.90239 0.36133 0.0
H930 H 0.48653 0.79595 0.37851 0.0
H931 H 0.56052 0.70226 0.4025 0.0
H932 H 0.63513 0.89023 0.36167 0.0
H933 H 0.68641 0.71769 0.2951 0.0
H934 H 0.5266 0.85625 0.36756 0.0
H935 H 0.76724 0.91381 0.31679 0.0
H936 H 0.66775 0.75998 0.29633 0.0
H937 H 0.83016 0.93772 0.32124 0.0
H938 H 0.47962 0.74179 0.3909 0.0
H939 H 0.74492 0.73266 0.30796 0.0
H940 H 0.804 0.77869 0.31963 0.0
H941 H 0.50746 0.70728 0.40078 0.0
H942 H 0.84417 0.83986 0.32598 0.0
N943 N 0.71136 0.79684 0.31386 0.0
C944 C 0.69183 0.76624 0.30371 0.0
C945 C 0.73599 0.75091 0.30945 0.0
C946 C 0.75827 0.78413 0.31651 0.0
C947 C 0.70297 0.74235 0.30227 0.0
C948 C 0.74517 0.80686 0.31824 0.0
H949 H 0.85432 0.89952 0.3263 0.0
N950 N 0.75427 0.8621 0.32171 0.0
C951 C 0.81286 0.91039 0.32192 0.0
C952 C 0.76755 0.8409 0.32213 0.0
C953 C 0.77685 0.89653 0.31962 0.0
C954 C 0.82637 0.8888 0.32477 0.0
C955 C 0.80382 0.85354 0.32404 0.0
O956 O 0.70515 0.88053 0.30406 0.0
O957 O 0.65521 0.84417 0.33747 0.0
O958 O 0.61303 0.77831 0.34891 0.0
O959 O 0.65043 0.78329 0.32217 0.0
O960 O 0.64437 0.82792 0.30773 0.0
O961 O 0.69739 0.83424 0.28848 0.0
O962 O 0.66472 0.81809 0.39674 0.0
O963 O 0.69157 0.82707 0.35259 0.0
O964 O 0.7226 0.88116 0.34154 0.0
O965 O 0.68191 0.87864 0.36475 0.0
O966 O 0.66856 0.79085 0.37424 0.0
O967 O 0.65036 0.85625 0.39247 0.0
C968 C 0.63269 0.83646 0.32325 0.0
C969 C 0.70991 0.88316 0.26716 0.0
C970 C 0.70095 0.88212 0.23035 0.0
C971 C 0.69645 0.8647 0.24874 0.0
C972 C 0.71949 0.91793 0.23043 0.0
C973 C 0.72821 0.919 0.26691 0.0
C974 C 0.73307 0.93621 0.24862 0.0
C975 C 0.62034 0.76633 0.33209 0.0
C976 C 0.70365 0.86548 0.28677 0.0
C977 C 0.81655 0.8307 0.32405 0.0
C978 C 0.79369 0.79591 0.32046 0.0
C979 C 0.69365 0.80354 0.36148 0.0
C980 C 0.64282 0.83295 0.42545 0.0
C981 C 0.66304 0.83896 0.44317 0.0
C982 C 0.64726 0.83154 0.46243 0.0
C983 C 0.61103 0.81759 0.46386 0.0
C984 C 0.6067 0.81963 0.42714 0.0
C985 C 0.59089 0.81172 0.44625 0.0
C986 C 0.71296 0.89492 0.35623 0.0
C987 C 0.66019 0.84136 0.40552 0.0
H988 H 0.68198 0.83704 0.24872 0.0
H989 H 0.72328 0.93169 0.21638 0.0
H990 H 0.73872 0.93376 0.28088 0.0
H991 H 0.74724 0.96383 0.24857 0.0
H992 H 0.69105 0.84976 0.44203 0.0
H993 H 0.5985 0.81172 0.4786 0.0
H994 H 0.59078 0.81569 0.41382 0.0
H995 H 0.563 0.80134 0.44743 0.0
Tb996 Tb 0.18083 0.82903 0.36456 0.0
C997 C 0.07863 0.82889 0.31231 0.0
C998 C 0.0531 0.78467 0.28627 0.0
C999 C 0.01684 0.80275 0.30403 0.0
C1000 C 0.08187 0.8077 0.29839 0.0
C1001 C 0.04624 0.82733 0.31495 0.0
C1002 C 0.02027 0.78146 0.28967 0.0
C1003 C 0.07519 0.87649 0.33736 0.0
N1004 N 0.10772 0.85236 0.32243 0.0
C1005 C 0.10671 0.87707 0.33413 0.0
C1006 C 0.04465 0.85109 0.32805 0.0
Tb1007 Tb 0.15778 0.85023 0.31682 0.0
N1008 N 0.11399 0.81171 0.29555 0.0
C1009 C 0.12018 0.79762 0.27855 0.0
C1010 C 0.0586 0.76688 0.27048 0.0
C1011 C 0.09249 0.77402 0.2663 0.0
H1012 H 0.12993 0.89706 0.34139 0.0
H1013 H 0.09738 0.76168 0.25352 0.0
H1014 H 0.99769 0.76351 0.28077 0.0
H1015 H 0.07448 0.89561 0.34709 0.0
H1016 H 0.14646 0.80377 0.27494 0.0
H1017 H 0.32164 0.91443 0.3641 0.0
H1018 H 0.03721 0.74893 0.26082 0.0
H1019 H 0.13562 0.74941 0.38143 0.0
H1020 H 0.26114 0.90067 0.36449 0.0
H1021 H 0.14544 0.70122 0.38719 0.0
H1022 H 0.99161 0.80077 0.3061 0.0
H1023 H 0.33634 0.86864 0.36614 0.0
H1024 H 0.31603 0.80656 0.37026 0.0
H1025 H 0.02027 0.85067 0.3306 0.0
H1026 H 0.26795 0.74821 0.376 0.0
N1027 N 0.23962 0.84656 0.36508 0.0
C1028 C 0.26609 0.87987 0.36483 0.0
C1029 C 0.30923 0.86218 0.36608 0.0
C1030 C 0.28238 0.82838 0.36779 0.0
C1031 C 0.30103 0.88805 0.36489 0.0
C1032 C 0.24746 0.8213 0.36742 0.0
H1033 H 0.20427 0.70869 0.38249 0.0
N1034 N 0.18753 0.78311 0.37161 0.0
C1035 C 0.16672 0.72549 0.38227 0.0
C1036 C 0.22049 0.78845 0.3706 0.0
C1037 C 0.16118 0.75283 0.37882 0.0
C1038 C 0.19994 0.7298 0.37957 0.0
C1039 C 0.22756 0.76184 0.37428 0.0
O1040 O 0.16031 0.84581 0.38788 0.0
O1041 O 0.14137 0.8348 0.34784 0.0
O1042 O 0.18329 0.89771 0.33593 0.0
O1043 O 0.20339 0.88446 0.36555 0.0
O1044 O 0.12515 0.79216 0.3649 0.0
O1045 O 0.19309 0.82602 0.39554 0.0
O1046 O 0.15908 0.89174 0.30148 0.0
O1047 O 0.2008 0.85388 0.33557 0.0
O1048 O 0.16386 0.78416 0.34407 0.0
O1049 O 0.13842 0.7947 0.31572 0.0
O1050 O 0.19787 0.84074 0.3054 0.0
O1051 O 0.18636 0.86758 0.28973 0.0
C1052 C 0.11415 0.80756 0.35338 0.0
C1053 C 0.14924 0.81792 0.41927 0.0
C1054 C 0.13335 0.81317 0.45524 0.0
C1055 C 0.15707 0.83055 0.43948 0.0
C1056 C 0.10196 0.78312 0.4507 0.0
C1057 C 0.11757 0.7878 0.41511 0.0
C1058 C 0.09417 0.77056 0.43073 0.0
C1059 C 0.19937 0.90604 0.35404 0.0
C1060 C 0.17341 0.83723 0.40266 0.0
C1061 C 0.26206 0.76841 0.37347 0.0
C1062 C 0.28943 0.80164 0.37027 0.0
C1063 C 0.21539 0.84522 0.32182 0.0
C1064 C 0.16028 0.88538 0.26514 0.0
C1065 C 0.17233 0.87428 0.24834 0.0
C1066 C 0.15759 0.87056 0.22874 0.0
C1067 C 0.13083 0.87824 0.22602 0.0
C1068 C 0.13343 0.89285 0.26192 0.0
C1069 C 0.11888 0.88927 0.2425 0.0
C1070 C 0.14653 0.77486 0.32642 0.0
C1071 C 0.17549 0.88865 0.28587 0.0
H1072 H 0.18129 0.85386 0.44293 0.0
H1073 H 0.08349 0.76942 0.46266 0.0
H1074 H 0.11053 0.77754 0.39986 0.0
H1075 H 0.06983 0.74742 0.42732 0.0
H1076 H 0.19296 0.8683 0.25047 0.0
H1077 H 0.1191 0.87553 0.2111 0.0
H1078 H 0.12353 0.90133 0.27442 0.0
H1079 H 0.09815 0.895 0.24022 0.0
Tb1080 Tb 0.82789 0.64339 0.65675 0.0
C1081 C 0.93784 0.72771 0.71674 0.0
C1082 C 0.95298 0.6959 0.7398 0.0
C1083 C 0.99812 0.75108 0.72781 0.0
C1084 C 0.92828 0.69892 0.72777 0.0
C1085 C 0.9727 0.75482 0.71716 0.0
C1086 C 0.98824 0.72159 0.73915 0.0
C1087 C 0.9535 0.78874 0.69929 0.0
N1088 N 0.91227 0.7303 0.70706 0.0
C1089 C 0.91928 0.76124 0.69981 0.0
C1090 C 0.98056 0.78524 0.70758 0.0
Tb1091 Tb 0.85702 0.68308 0.70693 0.0
N1092 N 0.89396 0.67514 0.72808 0.0
C1093 C 0.88194 0.6503 0.74258 0.0
C1094 C 0.94114 0.66816 0.75288 0.0
C1095 C 0.90532 0.64572 0.75466 0.0
H1096 H 0.89848 0.76546 0.6954 0.0
H1097 H 0.89568 0.62516 0.76548 0.0
H1098 H 0.00777 0.71956 0.74802 0.0
H1099 H 0.9588 0.81285 0.69301 0.0
H1100 H 0.8543 0.63346 0.74449 0.0
H1101 H 0.68844 0.59146 0.66098 0.0
H1102 H 0.95922 0.66486 0.76241 0.0
H1103 H 0.87156 0.60965 0.63525 0.0
H1104 H 0.75004 0.63663 0.66086 0.0
H1105 H 0.8618 0.55247 0.6261 0.0
H1106 H 0.02514 0.77134 0.72802 0.0
H1107 H 0.67264 0.53115 0.65571 0.0
H1108 H 0.6922 0.48869 0.64789 0.0
H1109 H 0.00699 0.80666 0.70743 0.0
H1110 H 0.73986 0.47786 0.63889 0.0
N1111 N 0.76963 0.60272 0.65654 0.0
C1112 C 0.74378 0.61064 0.65873 0.0
C1113 C 0.69983 0.551 0.65573 0.0
C1114 C 0.72624 0.54321 0.65224 0.0
C1115 C 0.70865 0.58498 0.65869 0.0
C1116 C 0.76121 0.57005 0.65258 0.0
H1117 H 0.80341 0.5016 0.63055 0.0
N1118 N 0.82049 0.59112 0.64703 0.0
C1119 C 0.84083 0.55521 0.63254 0.0
C1120 C 0.78775 0.56393 0.64781 0.0
C1121 C 0.84643 0.58755 0.63801 0.0
C1122 C 0.80785 0.52658 0.63506 0.0
C1123 C 0.78049 0.53085 0.64218 0.0
O1124 O 0.85455 0.66072 0.62891 0.0
O1125 O 0.86807 0.68662 0.67452 0.0
O1126 O 0.8421 0.71502 0.68892 0.0
O1127 O 0.81049 0.6809 0.66096 0.0
O1128 O 0.88359 0.66507 0.65231 0.0
O1129 O 0.80221 0.65003 0.63142 0.0
O1130 O 0.85718 0.72305 0.72393 0.0
O1131 O 0.8127 0.64829 0.68744 0.0
O1132 O 0.84363 0.61195 0.67463 0.0
O1133 O 0.87662 0.64746 0.70215 0.0
O1134 O 0.81511 0.6339 0.71651 0.0
O1135 O 0.82546 0.6715 0.73312 0.0
C1136 C 0.89491 0.68851 0.66614 0.0
C1137 C 0.82103 0.64294 0.59871 0.0
C1138 C 0.82552 0.6476 0.56142 0.0
C1139 C 0.82948 0.66288 0.58094 0.0
C1140 C 0.81315 0.61233 0.56007 0.0
C1141 C 0.80733 0.60763 0.5967 0.0
C1142 C 0.80373 0.59252 0.57754 0.0
C1143 C 0.82183 0.70867 0.67257 0.0
C1144 C 0.82836 0.65927 0.61921 0.0
C1145 C 0.74597 0.50357 0.6429 0.0
C1146 C 0.71884 0.50975 0.64795 0.0
C1147 C 0.79711 0.62409 0.7 0.0
C1148 C 0.85296 0.71231 0.75971 0.0
C1149 C 0.83732 0.68927 0.77599 0.0
C1150 C 0.85156 0.69815 0.79593 0.0
C1151 C 0.88153 0.73003 0.79937 0.0
C1152 C 0.88294 0.74408 0.76377 0.0
C1153 C 0.89704 0.75275 0.78342 0.0
C1154 C 0.86522 0.61962 0.69053 0.0
C1155 C 0.83857 0.70315 0.73855 0.0
H1156 H 0.83937 0.6901 0.58227 0.0
H1157 H 0.81008 0.59997 0.54535 0.0
H1158 H 0.7996 0.59166 0.6099 0.0
H1159 H 0.79358 0.56528 0.57623 0.0
H1160 H 0.8143 0.66459 0.77322 0.0
H1161 H 0.89299 0.73733 0.81451 0.0
H1162 H 0.89571 0.76231 0.75173 0.0
H1163 H 0.92018 0.77724 0.78631 0.0
Tb1164 Tb 0.359 0.17605 0.6545 0.0
C1165 C 0.22634 0.11893 0.70776 0.0
C1166 C 0.20421 0.15731 0.702 0.0
C1167 C 0.16477 0.09934 0.71281 0.0
C1168 C 0.23197 0.15042 0.70207 0.0
C1169 C 0.19291 0.09333 0.7139 0.0
C1170 C 0.17038 0.13126 0.70675 0.0
C1171 C 0.21817 0.05878 0.72305 0.0
N1172 N 0.25421 0.11411 0.70849 0.0
C1173 C 0.25075 0.08487 0.71668 0.0
C1174 C 0.18904 0.06289 0.7215 0.0
Tb1175 Tb 0.30744 0.15997 0.7005 0.0
N1176 N 0.2652 0.17513 0.69829 0.0
C1177 C 0.27276 0.20817 0.69617 0.0
C1178 C 0.21157 0.19057 0.69816 0.0
C1179 C 0.24612 0.21624 0.69562 0.0
H1180 H 0.27296 0.08136 0.71833 0.0
H1181 H 0.2523 0.2423 0.69328 0.0
H1182 H 0.14866 0.13596 0.70656 0.0
H1183 H 0.21558 0.03557 0.72922 0.0
H1184 H 0.29928 0.22854 0.69453 0.0
H1185 H 0.35713 0.05893 0.63003 0.0
H1186 H 0.191 0.19691 0.69786 0.0
H1187 H 0.43134 0.254 0.65139 0.0
H1188 H 0.33627 0.0994 0.63066 0.0
H1189 H 0.49409 0.2796 0.65776 0.0
H1190 H 0.13879 0.07983 0.71717 0.0
H1191 H 0.4155 0.0757 0.64396 0.0
H1192 H 0.47307 0.12269 0.65683 0.0
H1193 H 0.16386 0.04266 0.72647 0.0
H1194 H 0.51115 0.18384 0.66429 0.0
N1195 N 0.37857 0.13737 0.64854 0.0
C1196 C 0.36027 0.1066 0.63839 0.0
C1197 C 0.40563 0.09326 0.64509 0.0
C1198 C 0.42659 0.1265 0.6525 0.0
C1199 C 0.3727 0.08368 0.63732 0.0
C1200 C 0.4123 0.14831 0.65376 0.0
H1201 H 0.5194 0.24278 0.66442 0.0
N1202 N 0.41946 0.20285 0.65699 0.0
C1203 C 0.47735 0.25218 0.65833 0.0
C1204 C 0.43356 0.1824 0.65814 0.0
C1205 C 0.44146 0.23739 0.65494 0.0
C1206 C 0.4915 0.23136 0.6621 0.0
C1207 C 0.46982 0.19597 0.6611 0.0
O1208 O 0.37014 0.21973 0.638 0.0
O1209 O 0.31927 0.18262 0.67047 0.0
O1210 O 0.27546 0.11655 0.67974 0.0
O1211 O 0.31554 0.12236 0.65451 0.0
O1212 O 0.3107 0.16812 0.64032 0.0
O1213 O 0.36518 0.17435 0.62253 0.0
O1214 O 0.32534 0.15312 0.72895 0.0
O1215 O 0.35375 0.16386 0.68616 0.0
O1216 O 0.38624 0.21935 0.67619 0.0
O1217 O 0.34434 0.21515 0.69907 0.0
O1218 O 0.32781 0.12546 0.70629 0.0
O1219 O 0.30709 0.18857 0.72607 0.0
C1220 C 0.29793 0.17579 0.65569 0.0
C1221 C 0.37741 0.22321 0.60124 0.0
C1222 C 0.37062 0.2222 0.56423 0.0
C1223 C 0.36712 0.20496 0.58258 0.0
C1224 C 0.38542 0.25783 0.56464 0.0
C1225 C 0.39221 0.25886 0.60127 0.0
C1226 C 0.39635 0.27601 0.58305 0.0
C1227 C 0.28425 0.10533 0.66318 0.0
C1228 C 0.37038 0.20525 0.62079 0.0
C1229 C 0.48355 0.17398 0.66161 0.0
C1230 C 0.46188 0.13918 0.65739 0.0
C1231 C 0.35428 0.13908 0.69447 0.0
C1232 C 0.3003 0.16248 0.75817 0.0
C1233 C 0.32037 0.17067 0.77612 0.0
C1234 C 0.30423 0.15863 0.79504 0.0
C1235 C 0.26777 0.13813 0.79585 0.0
C1236 C 0.26383 0.1429 0.75933 0.0
C1237 C 0.2477 0.1306 0.77807 0.0
C1238 C 0.37579 0.2321 0.69104 0.0
C1239 C 0.31824 0.17405 0.73855 0.0
H1240 H 0.3554 0.17742 0.58233 0.0
H1241 H 0.3884 0.27153 0.55067 0.0
H1242 H 0.40027 0.27347 0.61543 0.0
H1243 H 0.40768 0.30346 0.58322 0.0
H1244 H 0.34856 0.18621 0.77538 0.0
H1245 H 0.25491 0.12842 0.81028 0.0
H1246 H 0.2478 0.13713 0.74588 0.0
H1247 H 0.21956 0.11522 0.7788 0.0
Tb1248 Tb 0.84871 0.1526 0.70553 0.0
C1249 C 0.78017 0.21499 0.6516 0.0
C1250 C 0.71822 0.17492 0.65227 0.0
C1251 C 0.73897 0.23499 0.6466 0.0
C1252 C 0.75307 0.18226 0.65412 0.0
C1253 C 0.77354 0.24167 0.64723 0.0
C1254 C 0.71131 0.20163 0.64919 0.0
C1255 C 0.83555 0.27893 0.64323 0.0
N1256 N 0.81312 0.22026 0.65229 0.0
C1257 C 0.84076 0.25163 0.64761 0.0
C1258 C 0.80181 0.27402 0.64317 0.0
Tb1259 Tb 0.81906 0.17359 0.65875 0.0
N1260 N 0.76096 0.15716 0.6564 0.0
C1261 C 0.73516 0.12381 0.65454 0.0
C1262 C 0.69153 0.14082 0.65238 0.0
C1263 C 0.70013 0.11512 0.65293 0.0
H1264 H 0.86705 0.25604 0.64762 0.0
H1265 H 0.67982 0.08858 0.65207 0.0
H1266 H 0.68471 0.19656 0.64796 0.0
H1267 H 0.85759 0.30377 0.63992 0.0
H1268 H 0.74136 0.10365 0.6544 0.0
H1269 H 0.98632 0.24725 0.70942 0.0
H1270 H 0.66441 0.13404 0.65102 0.0
H1271 H 0.81123 0.07349 0.72203 0.0
H1272 H 0.92351 0.22705 0.70935 0.0
H1273 H 0.82591 0.02777 0.7254 0.0
H1274 H 0.73333 0.25521 0.64355 0.0
H1275 H 0.00726 0.20588 0.70727 0.0
H1276 H 0.99283 0.14455 0.70727 0.0
H1277 H 0.79785 0.29519 0.63975 0.0
H1278 H 0.94856 0.08393 0.71116 0.0
N1279 N 0.90818 0.17436 0.70623 0.0
C1280 C 0.9319 0.20847 0.70831 0.0
C1281 C 0.97949 0.19678 0.70715 0.0
C1282 C 0.95518 0.16185 0.70669 0.0
C1283 C 0.96777 0.22017 0.70843 0.0
C1284 C 0.91935 0.15143 0.70646 0.0
H1285 H 0.88597 0.03996 0.71831 0.0
N1286 N 0.86114 0.10979 0.71082 0.0
C1287 C 0.84546 0.05282 0.72036 0.0
C1288 C 0.89474 0.11767 0.70867 0.0
C1289 C 0.8371 0.07862 0.7182 0.0
C1290 C 0.87935 0.05977 0.7163 0.0
C1291 C 0.90484 0.09292 0.71112 0.0
O1292 O 0.82259 0.1348 0.73363 0.0
O1293 O 0.80761 0.15611 0.68981 0.0
O1294 O 0.82527 0.21206 0.68168 0.0
O1295 O 0.86253 0.20706 0.70475 0.0
O1296 O 0.79265 0.11789 0.71024 0.0
O1297 O 0.87047 0.18242 0.73184 0.0
O1298 O 0.8455 0.1894 0.63078 0.0
O1299 O 0.86047 0.1699 0.67437 0.0
O1300 O 0.83626 0.11068 0.68404 0.0
O1301 O 0.80182 0.11841 0.65971 0.0
O1302 O 0.87465 0.20822 0.65411 0.0
O1303 O 0.7972 0.14184 0.6328 0.0
C1304 C 0.7809 0.13145 0.69772 0.0
C1305 C 0.85891 0.15389 0.76305 0.0
C1306 C 0.85925 0.15435 0.80033 0.0
C1307 C 0.84517 0.15731 0.7817 0.0
C1308 C 0.88663 0.14709 0.80003 0.0
C1309 C 0.88606 0.14639 0.76311 0.0
C1310 C 0.89969 0.14286 0.78152 0.0
C1311 C 0.84658 0.22331 0.69777 0.0
C1312 C 0.8465 0.16079 0.74385 0.0
C1313 C 0.94026 0.10261 0.70963 0.0
C1314 C 0.96546 0.13712 0.70746 0.0
C1315 C 0.88688 0.19468 0.6662 0.0
C1316 C 0.81115 0.16922 0.6008 0.0
C1317 C 0.82372 0.16167 0.58293 0.0
C1318 C 0.81439 0.16799 0.56363 0.0
C1319 C 0.79238 0.18192 0.56236 0.0
C1320 C 0.78907 0.18299 0.59924 0.0
C1321 C 0.77979 0.18931 0.58009 0.0
C1322 C 0.81507 0.10053 0.66792 0.0
C1323 C 0.8218 0.16288 0.62079 0.0
H1324 H 0.82424 0.16319 0.78175 0.0
H1325 H 0.89789 0.14473 0.81416 0.0
H1326 H 0.89715 0.14391 0.74896 0.0
H1327 H 0.92077 0.13728 0.78146 0.0
H1328 H 0.84074 0.15094 0.58402 0.0
H1329 H 0.78491 0.18696 0.54763 0.0
H1330 H 0.77904 0.18883 0.61275 0.0
H1331 H 0.76277 0.19999 0.57899 0.0
C1332 C 0.37354 0.88938 0.03967 0.0
C1333 C 0.35061 0.90022 0.04704 0.0
C1334 C 0.39017 0.95773 0.03432 0.0
C1335 C 0.41608 0.94853 0.0302 0.0
N1336 N 0.43234 0.90483 0.0313 0.0
N1337 N 0.33679 0.94481 0.05196 0.0
C1338 C 0.4076 0.91404 0.03325 0.0
C1339 C 0.3587 0.93439 0.04435 0.0
N1340 N 0.36286 0.85533 0.03887 0.0
N1341 N 0.39546 0.98875 0.02821 0.0
H1342 H 0.31282 0.92801 0.0585 0.0
H1343 H 0.34317 0.97027 0.05288 0.0
H1344 H 0.41776 0.00626 0.02047 0.0
H1345 H 0.37638 0.99575 0.02889 0.0
H1346 H 0.37671 0.84552 0.03134 0.0
H1347 H 0.33855 0.83654 0.04401 0.0
H1348 H 0.42918 0.88165 0.03621 0.0
H1349 H 0.45681 0.92111 0.02582 0.0
C1350 C 0.06752 0.42823 0.03812 0.0
C1351 C 0.10252 0.45383 0.04252 0.0
C1352 C 0.08686 0.49795 0.03617 0.0
C1353 C 0.05244 0.47242 0.03014 0.0
N1354 N 0.01279 0.4134 0.02141 0.0
N1355 N 0.14721 0.51304 0.04133 0.0
C1356 C 0.04377 0.43763 0.02986 0.0
C1357 C 0.11265 0.48868 0.04025 0.0
N1358 N 0.0562 0.39504 0.04298 0.0
N1359 N 0.09496 0.53102 0.03866 0.0
H1360 H 0.16695 0.50722 0.04366 0.0
H1361 H 0.15664 0.53853 0.03777 0.0
H1362 H 0.07808 0.53944 0.03453 0.0
H1363 H 0.11778 0.5497 0.04574 0.0
H1364 H 0.03009 0.37592 0.04222 0.0
H1365 H 0.07219 0.3871 0.04978 0.0
H1366 H 0.00661 0.38825 0.01871 0.0
H1367 H 0.99482 0.41922 0.01508 0.0
C1368 C 0.53101 0.65385 0.03444 0.0
C1369 C 0.55711 0.66619 0.04993 0.0
C1370 C 0.54313 0.60778 0.05653 0.0
C1371 C 0.52244 0.59639 0.03855 0.0
N1372 N 0.47923 0.60442 0.02128 0.0
N1373 N 0.58966 0.65488 0.07519 0.0
C1374 C 0.51136 0.61816 0.0302 0.0
C1375 C 0.56366 0.64313 0.06084 0.0
N1376 N 0.52501 0.6761 0.0237 0.0
N1377 N 0.53844 0.58476 0.0711 0.0
H1378 H 0.6053 0.6807 0.07894 0.0
H1379 H 0.59747 0.6391 0.08208 0.0
H1380 H 0.51691 0.56021 0.07026 0.0
H1381 H 0.55094 0.59144 0.08528 0.0
H1382 H 0.50905 0.66875 0.01075 0.0
H1383 H 0.53795 0.70226 0.02685 0.0
H1384 H 0.46816 0.61897 0.01686 0.0
H1385 H 0.4614 0.57837 0.02169 0.0
C1386 C 0.88191 0.34855 0.99687 0.0
C1387 C 0.89005 0.33877 0.978 0.0
C1388 C 0.9278 0.39916 0.96987 0.0
C1389 C 0.92451 0.40852 0.99017 0.0
N1390 N 0.87814 0.39358 0.014 0.0
N1391 N 0.92203 0.35475 0.9465 0.0
C1392 C 0.89613 0.38374 1.0016 0.0
C1393 C 0.91322 0.36409 0.96442 0.0
N1394 N 0.86038 0.32439 0.01032 0.0
N1395 N 0.94033 0.42335 0.95513 0.0
H1396 H 0.91147 0.32933 0.94182 0.0
H1397 H 0.94186 0.37212 0.93716 0.0
H1398 H 0.94653 0.4484 0.95812 0.0
H1399 H 0.94025 0.41773 0.93967 0.0
H1400 H 0.85668 0.33055 0.02514 0.0
H1401 H 0.84841 0.29825 1.00722 0.0
H1402 H 0.85494 0.37629 0.02105 0.0
H1403 H 0.88225 0.41822 0.01353 0.0
C1404 C 0.649 0.5869 0.98357 0.0
C1405 C 0.6591 0.56205 0.98018 0.0
C1406 C 0.60034 0.51698 0.98967 0.0
C1407 C 0.59057 0.54192 0.99441 0.0
N1408 N 0.60921 0.60145 1.00015 0.0
N1409 N 0.64718 0.50455 0.98469 0.0
C1410 C 0.61609 0.57714 0.99261 0.0
C1411 C 0.63561 0.52745 0.9847 0.0
N1412 N 0.67022 0.61967 0.97737 0.0
N1413 N 0.57591 0.48328 0.98886 0.0
H1414 H 0.67277 0.51126 0.98113 0.0
H1415 H 0.63242 0.4798 0.99011 0.0
H1416 H 0.55038 0.47452 0.99284 0.0
H1417 H 0.5805 0.46443 0.98296 0.0
H1418 H 0.66253 0.63797 0.97722 0.0
H1419 H 0.69446 0.62789 0.97069 0.0
H1420 H 0.62793 0.62725 1.00128 0.0
H1421 H 0.5859 0.59548 1.00738 0.0
C1422 C 0.47516 0.12329 0.99279 0.0
C1423 C 0.4658 0.11886 0.9719 0.0
C1424 C 0.48207 0.07488 0.96884 0.0
C1425 C 0.48869 0.07687 0.99017 0.0
N1426 N 0.51208 0.11831 0.01757 0.0
N1427 N 0.45411 0.08628 0.94075 0.0
C1428 C 0.4903 0.10486 1.00123 0.0
C1429 C 0.467 0.09308 0.96024 0.0
N1430 N 0.4705 0.14585 1.00446 0.0
N1431 N 0.49583 0.06048 0.95635 0.0
H1432 H 0.44296 0.09939 0.93401 0.0
H1433 H 0.45138 0.06553 0.93217 0.0
H1434 H 0.51323 0.05333 0.96191 0.0
H1435 H 0.49482 0.06087 0.94048 0.0
H1436 H 0.47361 0.14761 0.02027 0.0
H1437 H 0.46023 0.16031 0.99855 0.0
H1438 H 0.51608 0.14007 0.02549 0.0
H1439 H 0.53188 0.11282 0.01991 0.0
C1440 C 0.65473 0.06434 0.98287 0.0
C1441 C 0.66518 0.09951 0.98331 0.0
C1442 C 0.60494 0.08443 0.99066 0.0
C1443 C 0.59512 0.04942 0.99254 0.0
N1444 N 0.61487 0.00888 0.99617 0.0
N1445 N 0.65178 0.14325 0.99278 0.0
C1446 C 0.62132 0.04025 0.99027 0.0
C1447 C 0.64081 0.10964 0.989 0.0
N1448 N 0.676 0.05357 0.97468 0.0
N1449 N 0.58023 0.0936 0.98859 0.0
H1450 H 0.6779 0.16233 0.99177 0.0
H1451 H 0.6355 0.1515 0.9989 0.0
H1452 H 0.55426 0.07546 0.9868 0.0
H1453 H 0.58591 0.11843 0.98566 0.0
H1454 H 0.66791 0.02788 0.97218 0.0
H1455 H 0.70031 0.07014 0.96847 0.0
H1456 H 0.63384 0.00168 0.99641 0.0
H1457 H 0.59208 0.99229 1.00371 0.0
C1458 C 0.92557 0.57341 0.98019 0.0
C1459 C 0.89153 0.54969 0.97303 0.0
C1460 C 0.90202 0.50265 0.98115 0.0
C1461 C 0.93728 0.52641 0.98674 0.0
N1462 N 0.98395 0.58511 0.98773 0.0
N1463 N 0.84896 0.49191 0.96371 0.0
C1464 C 0.94941 0.562 0.98505 0.0
C1465 C 0.8801 0.51432 0.97285 0.0
N1466 N 0.93478 0.60685 0.98314 0.0
N1467 N 0.8892 0.46866 0.98387 0.0
H1468 H 0.83224 0.49939 0.9574 0.0
H1469 H 0.84092 0.46636 0.96079 0.0
H1470 H 0.90481 0.45903 0.98856 0.0
H1471 H 0.86281 0.45038 0.98291 0.0
H1472 H 0.95772 0.62462 0.99053 0.0
H1473 H 0.91799 0.61616 0.97999 0.0
H1474 H 0.99518 0.61077 0.98398 0.0
H1475 H 1.0017 0.57817 0.9927 0.0
C1476 C 0.47708 0.37595 0.95973 0.0
C1477 C 0.46669 0.34623 0.9713 0.0
C1478 C 0.46113 0.37529 1.00158 0.0
C1479 C 0.4759 0.40639 0.9907 0.0
N1480 N 0.50426 0.43725 0.96015 0.0
N1481 N 0.45246 0.3181 1.0037 0.0
C1482 C 0.48534 0.40695 0.96991 0.0
C1483 C 0.45964 0.34598 0.99237 0.0
N1484 N 0.47888 0.37454 0.93895 0.0
N1485 N 0.44722 0.37331 0.02039 0.0
H1486 H 0.45018 0.29583 0.99733 0.0
H1487 H 0.45126 0.31794 0.01957 0.0
H1488 H 0.44766 0.39415 0.02751 0.0
H1489 H 0.43274 0.35054 0.02816 0.0
H1490 H 0.4825 0.39443 0.92956 0.0
H1491 H 0.4735 0.35235 0.93094 0.0
H1492 H 0.51517 0.43938 0.9458 0.0
H1493 H 0.51228 0.46075 0.96716 0.0
C1494 C 0.11412 0.66713 0.03065 0.0
C1495 C 0.11988 0.66916 0.05204 0.0
C1496 C 0.07845 0.60782 0.05457 0.0
C1497 C 0.07002 0.60605 0.03343 0.0
N1498 N 0.07702 0.63568 1.00187 0.0
N1499 N 0.1034 0.64283 0.08496 0.0
C1500 C 0.08719 0.63618 0.02158 0.0
C1501 C 0.10055 0.63997 0.06416 0.0
N1502 N 0.13489 0.69465 0.01891 0.0
N1503 N 0.06752 0.57855 0.06528 0.0
H1504 H 0.1204 0.66553 0.09262 0.0
H1505 H 0.08679 0.62342 0.09466 0.0
H1506 H 0.05318 0.55443 0.05868 0.0
H1507 H 0.07596 0.57801 0.08003 0.0
H1508 H 0.13515 0.69365 1.00304 0.0
H1509 H 0.15363 0.71814 0.02509 0.0
H1510 H 0.08534 0.65751 0.99322 0.0
H1511 H 0.05836 0.61358 0.99448 0.0
C1512 C 0.35103 0.42421 0.04183 0.0
C1513 C 0.34457 0.45171 0.0448 0.0
C1514 C 0.40712 0.49172 0.04068 0.0
C1515 C 0.41267 0.46473 0.03426 0.0
N1516 N 0.38724 0.40496 0.02567 0.0
N1517 N 0.36617 0.51223 0.04264 0.0
C1518 C 0.3838 0.43082 0.03406 0.0
C1519 C 0.37249 0.48566 0.04267 0.0
N1520 N 0.32656 0.39189 0.04727 0.0
N1521 N 0.43449 0.52201 0.0472 0.0
H1522 H 0.3411 0.50875 0.04387 0.0
H1523 H 0.3855 0.5371 0.03935 0.0
H1524 H 0.45907 0.525 0.04957 0.0
H1525 H 0.43145 0.5417 0.05336 0.0
H1526 H 0.33146 0.37165 0.04737 0.0
H1527 H 0.30273 0.38595 0.05376 0.0
H1528 H 0.36633 0.3803 0.0234 0.0
H1529 H 0.41003 0.40939 0.0185 0.0
C1530 C 0.54529 0.90131 0.0563 0.0
C1531 C 0.56021 0.88682 0.04339 0.0
C1532 C 0.55117 0.91426 0.01387 0.0
C1533 C 0.53448 0.92741 0.02658 0.0
N1534 N 0.50693 0.92464 0.05887 0.0
N1535 N 0.56951 0.87233 0.00942 0.0
C1536 C 0.5289 0.91825 0.0475 0.0
C1537 C 0.56051 0.89093 0.022 0.0
N1538 N 0.54792 0.90011 0.07701 0.0
N1539 N 0.5603 0.92566 0.99447 0.0
H1540 H 0.57659 0.85507 0.0149 0.0
H1541 H 0.56669 0.87156 0.99361 0.0
H1542 H 0.55548 0.9439 0.9883 0.0
H1543 H 0.57581 0.91979 0.98528 0.0
H1544 H 0.54117 0.91378 0.0871 0.0
H1545 H 0.55958 0.88781 0.08412 0.0
H1546 H 0.49913 0.91541 0.07354 0.0
H1547 H 0.49366 0.93619 0.05294 0.0
C1548 C 0.0199 0.25638 0.37319 0.0
C1549 C 0.01902 0.22742 0.38171 0.0
C1550 C 0.08184 0.25297 0.37652 0.0
C1551 C 0.08276 0.28083 0.36626 0.0
N1552 N 0.05538 0.31538 0.36355 0.0
N1553 N 0.04761 0.19506 0.38813 0.0
C1554 C 0.05244 0.28433 0.36692 0.0
C1555 C 0.04948 0.22479 0.38226 0.0
N1556 N 0.98956 0.25705 0.37092 0.0
N1557 N 0.11188 0.25558 0.38385 0.0
H1558 H 0.02436 0.17366 0.3925 0.0
H1559 H 0.06858 0.19078 0.38684 0.0
H1560 H 0.13649 0.27579 0.38067 0.0
H1561 H 0.11197 0.23938 0.395 0.0
H1562 H 0.98764 0.27547 0.36258 0.0
H1563 H 0.96554 0.2374 0.37588 0.0
H1564 H 0.03505 0.32041 0.36548 0.0
H1565 H 0.07928 0.33742 0.36149 0.0
C1566 C 0.78324 0.81182 0.37228 0.0
C1567 C 0.77276 0.77697 0.37495 0.0
C1568 C 0.714 0.76109 0.36253 0.0
C1569 C 0.72296 0.79593 0.36272 0.0
N1570 N 0.76607 0.85449 0.37083 0.0
N1571 N 0.72575 0.71847 0.37627 0.0
C1572 C 0.75759 0.82132 0.36844 0.0
C1573 C 0.73754 0.75154 0.37089 0.0
N1574 N 0.81791 0.83591 0.37278 0.0
N1575 N 0.68288 0.73695 0.3542 0.0
H1576 H 0.74143 0.71048 0.3834 0.0
H1577 H 0.69951 0.69964 0.37565 0.0
H1578 H 0.66508 0.74297 0.34783 0.0
H1579 H 0.67647 0.7117 0.35163 0.0
H1580 H 0.82741 0.86135 0.36907 0.0
H1581 H 0.83755 0.82983 0.3747 0.0
H1582 H 0.78918 0.87315 0.37768 0.0
H1583 H 0.7492 0.86298 0.36685 0.0
C1584 C 0.20844 0.98667 0.37899 0.0
C1585 C 0.24383 0.01092 0.37539 0.0
C1586 C 0.24999 0.9672 0.35632 0.0
C1587 C 0.21547 0.94222 0.36174 0.0
N1588 N 0.16919 0.9276 0.38577 0.0
N1589 N 0.30048 0.02263 0.36383 0.0
C1590 C 0.19651 0.95174 0.37507 0.0
C1591 C 0.26525 0.00087 0.36476 0.0
N1592 N 0.18614 0.99684 0.38627 0.0
N1593 N 0.26866 0.95848 0.34367 0.0
H1594 H 0.31285 0.04706 0.37033 0.0
H1595 H 0.31792 0.01549 0.35821 0.0
H1596 H 0.2598 0.93328 0.33961 0.0
H1597 H 0.29198 0.97609 0.33688 0.0
H1598 H 0.15937 0.98012 0.38753 0.0
H1599 H 0.19378 0.02242 0.38896 0.0
H1600 H 0.15559 0.93335 0.39658 0.0
H1601 H 0.16501 0.90301 0.38662 0.0
C1602 C 0.58049 0.6875 0.29713 0.0
C1603 C 0.55744 0.66232 0.3108 0.0
C1604 C 0.56514 0.70729 0.3348 0.0
C1605 C 0.59348 0.73177 0.32325 0.0
N1606 N 0.60802 0.74683 0.28811 0.0
N1607 N 0.52897 0.64804 0.34349 0.0
C1608 C 0.59588 0.72253 0.30278 0.0
C1609 C 0.55027 0.67213 0.32994 0.0
N1610 N 0.58825 0.67805 0.2789 0.0
N1611 N 0.54758 0.71748 0.3473 0.0
H1612 H 0.51677 0.62189 0.34036 0.0
H1613 H 0.52581 0.65428 0.3584 0.0
H1614 H 0.5519 0.7422 0.34672 0.0
H1615 H 0.52441 0.70039 0.35446 0.0
H1616 H 0.60791 0.69528 0.26942 0.0
H1617 H 0.57697 0.65264 0.27406 0.0
H1618 H 0.60716 0.7413 0.27258 0.0
H1619 H 0.61475 0.77195 0.29133 0.0
C1620 C 0.31189 0.90026 0.30831 0.0
C1621 C 0.32312 0.87599 0.30899 0.0
C1622 C 0.26447 0.83194 0.31943 0.0
C1623 C 0.25334 0.85658 0.3196 0.0
N1624 N 0.26366 0.91056 0.30655 0.0
N1625 N 0.31233 0.82018 0.3178 0.0
C1626 C 0.2764 0.88987 0.31212 0.0
C1627 C 0.29996 0.84218 0.3152 0.0
N1628 N 0.33536 0.93366 0.30433 0.0
N1629 N 0.24061 0.79827 0.32203 0.0
H1630 H 0.33802 0.82676 0.31465 0.0
H1631 H 0.29814 0.79644 0.32457 0.0
H1632 H 0.21477 0.78978 0.32563 0.0
H1633 H 0.24572 0.77847 0.31946 0.0
H1634 H 0.32983 0.95332 0.30643 0.0
H1635 H 0.36125 0.94227 0.30043 0.0
H1636 H 0.27755 0.93232 0.2978 0.0
H1637 H 0.23855 0.90537 0.30991 0.0
C1638 C 0.11741 0.42178 0.30266 0.0
C1639 C 0.14409 0.45625 0.30373 0.0
C1640 C 0.18104 0.44033 0.32303 0.0
C1641 C 0.15307 0.40558 0.3235 0.0
N1642 N 0.09068 0.3679 0.31947 0.0
N1643 N 0.19734 0.49972 0.31941 0.0
C1644 C 0.12012 0.39762 0.3149 0.0
C1645 C 0.17453 0.46594 0.31545 0.0
N1646 N 0.0895 0.41184 0.28983 0.0
N1647 N 0.21442 0.44921 0.32833 0.0
H1648 H 0.1937 0.5192 0.3138 0.0
H1649 H 0.21785 0.50812 0.32989 0.0
H1650 H 0.22222 0.43228 0.33298 0.0
H1651 H 0.23573 0.47342 0.32593 0.0
H1652 H 0.07132 0.38629 0.2868 0.0
H1653 H 0.08612 0.42893 0.28093 0.0
H1654 H 0.0657 0.36222 0.31502 0.0
H1655 H 0.09076 0.3513 0.33012 0.0
C1656 C 0.32029 0.4023 0.32396 0.0
C1657 C 0.32392 0.43011 0.31245 0.0
C1658 C 0.2604 0.40538 0.31175 0.0
C1659 C 0.25641 0.37776 0.32391 0.0
N1660 N 0.28235 0.34618 0.33717 0.0
N1661 N 0.2988 0.46208 0.2988 0.0
C1662 C 0.28641 0.37533 0.32881 0.0
C1663 C 0.29438 0.43291 0.30749 0.0
N1664 N 0.34945 0.40229 0.3309 0.0
N1665 N 0.23203 0.40354 0.30224 0.0
H1666 H 0.3233 0.48241 0.29511 0.0
H1667 H 0.27858 0.46733 0.29697 0.0
H1668 H 0.20668 0.38385 0.30452 0.0
H1669 H 0.23379 0.42034 0.29097 0.0
H1670 H 0.34887 0.38497 0.3414 0.0
H1671 H 0.37474 0.42144 0.32751 0.0
H1672 H 0.30195 0.3399 0.338 0.0
H1673 H 0.25872 0.32799 0.3432 0.0
C1674 C 0.59556 0.89618 0.31469 0.0
C1675 C 0.56152 0.87263 0.30752 0.0
C1676 C 0.57214 0.82542 0.31438 0.0
C1677 C 0.6074 0.84906 0.32 0.0
N1678 N 0.6541 0.9078 0.32131 0.0
N1679 N 0.51914 0.81527 0.29723 0.0
C1680 C 0.61952 0.8847 0.31883 0.0
C1681 C 0.55017 0.83733 0.30662 0.0
N1682 N 0.60467 0.92944 0.31832 0.0
N1683 N 0.5594 0.79132 0.31648 0.0
H1684 H 0.5024 0.82295 0.29119 0.0
H1685 H 0.51127 0.78991 0.29378 0.0
H1686 H 0.57512 0.78152 0.32054 0.0
H1687 H 0.533 0.77308 0.31555 0.0
H1688 H 0.62771 0.94695 0.32574 0.0
H1689 H 0.58769 0.93874 0.31577 0.0
H1690 H 0.66515 0.93358 0.31794 0.0
H1691 H 0.67205 0.90074 0.32565 0.0
C1692 C 0.13546 0.70323 0.28988 0.0
C1693 C 0.12142 0.67505 0.30303 0.0
C1694 C 0.11586 0.71028 0.32973 0.0
C1695 C 0.13605 0.74001 0.31793 0.0
N1696 N 0.17168 0.76374 0.28794 0.0
N1697 N 0.10032 0.65165 0.33616 0.0
C1698 C 0.14717 0.7362 0.29817 0.0
C1699 C 0.11213 0.67849 0.32318 0.0
N1700 N 0.13862 0.69879 0.26949 0.0
N1701 N 0.09887 0.71192 0.34664 0.0
H1702 H 0.09596 0.62768 0.33152 0.0
H1703 H 0.09704 0.65388 0.35173 0.0
H1704 H 0.09947 0.73422 0.35124 0.0
H1705 H 0.08135 0.69053 0.35476 0.0
H1706 H 0.14519 0.71811 0.25895 0.0
H1707 H 0.13143 0.67513 0.26282 0.0
H1708 H 0.18336 0.76197 0.27455 0.0
H1709 H 0.18368 0.78797 0.29415 0.0
C1710 C 0.7764 0.99085 0.36409 0.0
C1711 C 0.7892 0.99123 0.38396 0.0
C1712 C 0.75125 0.9292 0.38594 0.0
C1713 C 0.73971 0.92829 0.36551 0.0
N1714 N 0.74569 0.95778 0.33401 0.0
N1715 N 0.7923 0.96114 0.4132 0.0
C1716 C 0.75356 0.95901 0.35425 0.0
C1717 C 0.7774 0.96051 0.39476 0.0
N1718 N 0.78564 0.02107 0.3548 0.0
N1719 N 0.73748 0.89993 0.39693 0.0
H1720 H 0.8104 0.98364 0.42065 0.0
H1721 H 0.78854 0.93942 0.42068 0.0
H1722 H 0.72212 0.87594 0.39038 0.0
H1723 H 0.74026 0.89933 0.41266 0.0
H1724 H 0.7743 0.02293 0.34133 0.0
H1725 H 0.80286 0.04474 0.36145 0.0
H1726 H 0.75784 0.97861 0.3244 0.0
H1727 H 0.7291 0.9352 0.32629 0.0
C1728 C 0.03954 0.80703 0.38224 0.0
C1729 C 0.00986 0.77963 0.3727 0.0
C1730 C 0.04835 0.77256 0.34852 0.0
C1731 C 0.07796 0.80187 0.357 0.0
N1732 N 0.09907 0.85181 0.37856 0.0
N1733 N 0.98546 0.74136 0.34379 0.0
C1734 C 0.07264 0.82055 0.37281 0.0
C1735 C 0.01411 0.76392 0.35491 0.0
N1736 N 0.03661 0.81923 0.40087 0.0
N1737 N 0.05279 0.75254 0.33454 0.0
H1738 H 0.96011 0.73484 0.34786 0.0
H1739 H 0.98704 0.73173 0.32957 0.0
H1740 H 0.077 0.75919 0.32846 0.0
H1741 H 0.03275 0.72869 0.32972 0.0
H1742 H 0.05812 0.83643 0.4096 0.0
H1743 H 0.01302 0.80971 0.40856 0.0
H1744 H 0.09612 0.86806 0.38871 0.0
H1745 H 0.12235 0.86319 0.37072 0.0
C1746 C 0.19303 0.21272 0.38168 0.0
C1747 C 0.2261 0.21826 0.37537 0.0
C1748 C 0.2267 0.25525 0.34806 0.0
C1749 C 0.1964 0.25343 0.35647 0.0
N1750 N 0.1415 0.21401 0.37108 0.0
N1751 N 0.2732 0.24192 0.3511 0.0
C1752 C 0.17668 0.22739 0.3704 0.0
C1753 C 0.24242 0.23841 0.35794 0.0
N1754 N 0.17779 0.19475 0.39889 0.0
N1755 N 0.23821 0.27013 0.3296 0.0
H1756 H 0.28384 0.22758 0.35666 0.0
H1757 H 0.28888 0.25984 0.34041 0.0
H1758 H 0.22627 0.28161 0.32198 0.0
H1759 H 0.25763 0.26915 0.32122 0.0
H1760 H 0.1553 0.19307 0.40506 0.0
H1761 H 0.18916 0.18409 0.40793 0.0
H1762 H 0.12515 0.19263 0.37962 0.0
H1763 H 0.1286 0.22128 0.36072 0.0
C1764 C 0.70205 0.58875 0.7151 0.0
C1765 C 0.69096 0.5536 0.71618 0.0
C1766 C 0.74645 0.56401 0.70176 0.0
C1767 C 0.75884 0.59977 0.70185 0.0
N1768 N 0.75017 0.64648 0.71199 0.0
N1769 N 0.69848 0.50632 0.7063 0.0
C1770 C 0.73684 0.61221 0.70907 0.0
C1771 C 0.71188 0.54081 0.70812 0.0
N1772 N 0.67897 0.59955 0.71958 0.0
N1773 N 0.76854 0.55227 0.69683 0.0
H1774 H 0.6739 0.48846 0.7116 0.0
H1775 H 0.71035 0.49514 0.69809 0.0
H1776 H 0.79303 0.56786 0.6908 0.0
H1777 H 0.76341 0.52755 0.6994 0.0
H1778 H 0.68391 0.62422 0.71701 0.0
H1779 H 0.65342 0.58284 0.72412 0.0
H1780 H 0.73721 0.65697 0.71976 0.0
H1781 H 0.77534 0.66468 0.70778 0.0
C1782 C 0.39931 0.08746 0.70322 0.0
C1783 C 0.43354 0.11307 0.70908 0.0
C1784 C 0.41731 0.15701 0.70404 0.0
C1785 C 0.38362 0.13171 0.69679 0.0
N1786 N 0.34504 0.07341 0.6861 0.0
N1787 N 0.47737 0.17256 0.71091 0.0
C1788 C 0.37547 0.0971 0.69536 0.0
C1789 C 0.44317 0.14794 0.70823 0.0
N1790 N 0.38889 0.05385 0.70613 0.0
N1791 N 0.42447 0.18955 0.70777 0.0
H1792 H 0.49711 0.16693 0.71378 0.0
H1793 H 0.48676 0.19834 0.70824 0.0
H1794 H 0.40724 0.19777 0.70412 0.0
H1795 H 0.4466 0.2078 0.71562 0.0
H1796 H 0.36317 0.0342 0.70441 0.0
H1797 H 0.40532 0.04569 0.71204 0.0
H1798 H 0.33928 0.04865 0.6825 0.0
H1799 H 0.327 0.07943 0.68011 0.0
C1800 C 0.89871 0.30446 0.72886 0.0
C1801 C 0.89141 0.32726 0.71824 0.0
C1802 C 0.84382 0.27865 0.69981 0.0
C1803 C 0.85559 0.25715 0.70769 0.0
N1804 N 0.87358 0.24653 0.73987 0.0
N1805 N 0.85693 0.33646 0.69329 0.0
C1806 C 0.87762 0.269 0.7251 0.0
C1807 C 0.86381 0.31448 0.70365 0.0
N1808 N 0.92578 0.3165 0.74251 0.0
N1809 N 0.81107 0.26456 0.69171 0.0
H1810 H 0.87038 0.36274 0.6961 0.0
H1811 H 0.83962 0.32875 0.68096 0.0
H1812 H 0.79352 0.23841 0.69224 0.0
H1813 H 0.79953 0.27889 0.68772 0.0
H1814 H 0.93398 0.3008 0.74909 0.0
H1815 H 0.94172 0.3424 0.74597 0.0
H1816 H 0.88727 0.25364 0.75368 0.0
H1817 H 0.85146 0.22233 0.73975 0.0
C1818 C 0.24772 0.02716 0.62793 0.0
C1819 C 0.22162 0.00226 0.64053 0.0
C1820 C 0.22699 0.04769 0.6634 0.0
C1821 C 0.25792 0.07144 0.6534 0.0
N1822 N 0.27842 0.08663 0.61904 0.0
N1823 N 0.18654 0.98869 0.67088 0.0
C1824 C 0.26322 0.0622 0.63352 0.0
C1825 C 0.2114 0.01245 0.65851 0.0
N1826 N 0.25839 0.01743 0.61088 0.0
N1827 N 0.20853 0.059 0.67422 0.0
H1828 H 0.17338 0.9626 0.6675 0.0
H1829 H 0.18097 0.995 0.6852 0.0
H1830 H 0.21482 0.08437 0.67371 0.0
H1831 H 0.18371 0.04269 0.67988 0.0
H1832 H 0.27999 0.03444 0.60246 0.0
H1833 H 0.24748 0.992 0.60616 0.0
H1834 H 0.27975 0.08106 0.60371 0.0
H1835 H 0.28577 0.11202 0.62193 0.0
C1836 C 0.98254 0.24677 0.65272 0.0
C1837 C 0.99251 0.22167 0.64997 0.0
C1838 C 0.93333 0.17729 0.65908 0.0
C1839 C 0.92403 0.2026 0.66365 0.0
N1840 N 0.94378 0.26237 0.66949 0.0
N1841 N 0.9799 0.16418 0.65577 0.0
C1842 C 0.94999 0.23763 0.66194 0.0
C1843 C 0.96868 0.18729 0.65482 0.0
N1844 N 0.00318 0.27899 0.64552 0.0
N1845 N 0.90851 0.14377 0.6577 0.0
H1846 H 0.00575 0.17072 0.65319 0.0
H1847 H 0.96445 0.1395 0.66116 0.0
H1848 H 0.88266 0.13543 0.66057 0.0
H1849 H 0.91321 0.12482 0.6521 0.0
H1850 H 0.99531 0.29716 0.64516 0.0
H1851 H 0.0266 0.28656 0.63799 0.0
H1852 H 0.96296 0.28804 0.67051 0.0
H1853 H 0.92068 0.25683 0.67685 0.0
C1854 C 0.83228 0.7926 0.65265 0.0
C1855 C 0.79768 0.78172 0.64632 0.0
C1856 C 0.77806 0.72639 0.66228 0.0
C1857 C 0.8134 0.73518 0.66556 0.0
N1858 N 0.87445 0.77574 0.66048 0.0
N1859 N 0.73733 0.73783 0.64399 0.0
C1860 C 0.8406 0.76827 0.66015 0.0
C1861 C 0.77039 0.74851 0.65091 0.0
N1862 N 0.85746 0.8262 0.6512 0.0
N1863 N 0.75188 0.6975 0.67066 0.0
H1864 H 0.73068 0.7539 0.63635 0.0
H1865 H 0.71709 0.71263 0.64473 0.0
H1866 H 0.75692 0.6818 0.67973 0.0
H1867 H 0.72577 0.69109 0.67043 0.0
H1868 H 0.88223 0.83625 0.6577 0.0
H1869 H 0.85269 0.84471 0.64519 0.0
H1870 H 0.895 0.79785 0.65443 0.0
H1871 H 0.88144 0.75809 0.66478 0.0
C1872 C 0.99383 0.74757 0.66457 0.0
C1873 C 0.99648 0.77044 0.64925 0.0
C1874 C 0.93274 0.74318 0.64751 0.0
C1875 C 0.92961 0.71974 0.66287 0.0
N1876 N 0.95771 0.69488 0.6821 0.0
N1877 N 0.96962 0.79522 0.62917 0.0
C1878 C 0.96037 0.72084 0.67045 0.0
C1879 C 0.96627 0.76988 0.64173 0.0
N1880 N 0.0235 0.75198 0.67389 0.0
N1881 N 0.9039 0.73781 0.63678 0.0
H1882 H 0.99373 0.81467 0.6242 0.0
H1883 H 0.94884 0.7987 0.62516 0.0
H1884 H 0.87861 0.72004 0.64098 0.0
H1885 H 0.90501 0.75015 0.62326 0.0
H1886 H 0.02345 0.73877 0.68679 0.0
H1887 H 0.04841 0.77122 0.66988 0.0
H1888 H 0.97861 0.69137 0.68566 0.0
H1889 H 0.93405 0.67556 0.68739 0.0
C1890 C 0.26079 0.23391 0.64293 0.0
C1891 C 0.22439 0.21025 0.64243 0.0
C1892 C 0.23646 0.16392 0.64851 0.0
C1893 C 0.27226 0.18784 0.65239 0.0
N1894 N 0.31785 0.24686 0.65482 0.0
N1895 N 0.17726 0.15343 0.64896 0.0
C1896 C 0.28421 0.22325 0.65003 0.0
C1897 C 0.21213 0.17548 0.64658 0.0
N1898 N 0.27323 0.26617 0.63576 0.0
N1899 N 0.22575 0.13032 0.64529 0.0
H1900 H 0.15865 0.16105 0.64786 0.0
H1901 H 0.16742 0.12857 0.65407 0.0
H1902 H 0.2432 0.12144 0.64449 0.0
H1903 H 0.20042 0.11234 0.64078 0.0
H1904 H 0.29965 0.28329 0.6336 0.0
H1905 H 0.2571 0.27484 0.63005 0.0
H1906 H 0.32715 0.27303 0.65556 0.0
H1907 H 0.33541 0.23996 0.6602 0.0
C1908 C 0.8106 0.03821 0.62659 0.0
C1909 C 0.79917 0.00821 0.63805 0.0
C1910 C 0.79202 0.03691 0.66801 0.0
C1911 C 0.80787 0.06826 0.65737 0.0
N1912 N 0.83796 0.09958 0.62728 0.0
N1913 N 0.78232 0.97936 0.67019 0.0
C1914 C 0.81841 0.06911 0.63678 0.0
C1915 C 0.7907 0.00761 0.65891 0.0
N1916 N 0.81393 0.03717 0.6059 0.0
N1917 N 0.77698 0.03473 0.68648 0.0
H1918 H 0.78001 0.95704 0.66389 0.0
H1919 H 0.7801 0.9789 0.68601 0.0
H1920 H 0.77735 0.05557 0.69354 0.0
H1921 H 0.76173 0.01183 0.69398 0.0
H1922 H 0.81836 0.05727 0.59644 0.0
H1923 H 0.80909 0.01511 0.59794 0.0
H1924 H 0.84966 0.10194 0.61317 0.0
H1925 H 0.84559 0.12298 0.63433 0.0
C1926 C 0.44855 0.32556 0.69749 0.0
C1927 C 0.45361 0.32777 0.71891 0.0
C1928 C 0.40918 0.26755 0.72193 0.0
C1929 C 0.40195 0.26558 0.70061 0.0
N1930 N 0.41109 0.29511 0.66875 0.0
N1931 N 0.43412 0.30324 0.75205 0.0
C1932 C 0.42064 0.29529 0.68856 0.0
C1933 C 0.43221 0.29958 0.73128 0.0
N1934 N 0.47101 0.35212 0.68561 0.0
N1935 N 0.39638 0.23851 0.73307 0.0
H1936 H 0.45155 0.32598 0.75954 0.0
H1937 H 0.41632 0.28468 0.76178 0.0
H1938 H 0.38158 0.21435 0.72664 0.0
H1939 H 0.4038 0.23803 0.74809 0.0
H1940 H 0.47158 0.35049 0.66977 0.0
H1941 H 0.49071 0.37522 0.69169 0.0
H1942 H 0.42076 0.31697 0.65997 0.0
H1943 H 0.39165 0.27344 0.66144 0.0
C1944 C 0.70869 0.14964 0.71478 0.0
C1945 C 0.67876 0.11698 0.71209 0.0
C1946 C 0.71521 0.09523 0.69758 0.0
C1947 C 0.74559 0.12771 0.70097 0.0
N1948 N 0.7711 0.18106 0.71976 0.0
N1949 N 0.6519 0.06021 0.69777 0.0
C1950 C 0.74236 0.15398 0.71111 0.0
C1951 C 0.68163 0.0901 0.70271 0.0
N1952 N 0.70504 0.17652 0.72114 0.0
N1953 N 0.71868 0.06905 0.68965 0.0
H1954 H 0.62695 0.05582 0.70105 0.0
H1955 H 0.65138 0.0406 0.68908 0.0
H1956 H 0.74189 0.07296 0.68334 0.0
H1957 H 0.69904 0.04358 0.68947 0.0
H1958 H 0.72548 0.20171 0.72109 0.0
H1959 H 0.68093 0.17401 0.72474 0.0
H1960 H 0.77019 0.19967 0.72879 0.0
H1961 H 0.7951 0.18219 0.72049 0.0
C1962 C 0.92167 0.5775 0.69242 0.0
C1963 C 0.90674 0.55544 0.70918 0.0
C1964 C 0.86344 0.57373 0.71303 0.0
C1965 C 0.87783 0.59555 0.69597 0.0
N1966 N 0.91772 0.61475 0.66773 0.0
N1967 N 0.86081 0.52853 0.73381 0.0
C1968 C 0.90601 0.59627 0.68513 0.0
C1969 C 0.87674 0.55226 0.71891 0.0
N1970 N 0.95147 0.58114 0.68381 0.0
N1971 N 0.83773 0.5743 0.72414 0.0
H1972 H 0.87106 0.51406 0.73968 0.0
H1973 H 0.83624 0.52142 0.73956 0.0
H1974 H 0.82604 0.58812 0.71982 0.0
H1975 H 0.82945 0.56303 0.7383 0.0
H1976 H 0.96651 0.59998 0.67341 0.0
H1977 H 0.96245 0.56632 0.68788 0.0
H1978 H 0.93492 0.61311 0.65761 0.0
H1979 H 0.90863 0.63052 0.66271 0.0
C1980 C 0.46649 0.96281 0.1746 0.0
C1981 C 0.49023 0.95874 0.18718 0.0
C1982 C 0.53184 0.97659 0.15895 0.0
C1983 C 0.51067 0.98603 0.14771 0.0
N1984 N 0.45832 0.98962 0.14488 0.0
N1985 N 0.54687 0.96414 0.19204 0.0
C1986 C 0.47785 0.97913 0.15542 0.0
C1987 C 0.52313 0.96583 0.17946 0.0
N1988 N 0.43299 0.95073 0.18096 0.0
N1989 N 0.5602 0.97776 0.14989 0.0
H1990 H 0.54161 0.95629 0.20713 0.0
H1991 H 0.57271 0.97294 0.18801 0.0
H1992 H 0.56715 0.98546 0.13486 0.0
H1993 H 0.57478 0.96808 0.15651 0.0
H1994 H 0.41339 0.94988 0.17176 0.0
H1995 H 0.424 0.93863 0.19491 0.0
H1996 H 0.43619 0.98901 0.15077 0.0
H1997 H 0.46545 0.001 0.13064 0.0
C1998 C 0.02077 0.54189 0.18041 0.0
C1999 C 0.03984 0.52483 0.18369 0.0
C2000 C 0.01416 0.4904 0.1526 0.0
C2001 C 0.99809 0.51002 0.14824 0.0
N2002 N 0.99061 0.55816 0.15614 0.0
N2003 N 0.05885 0.48626 0.17166 0.0
C2004 C 0.00257 0.53677 0.16166 0.0
C2005 C 0.03762 0.49991 0.16947 0.0
N2006 N 0.01935 0.56234 0.19545 0.0
N2007 N 0.00628 0.46217 0.14094 0.0
H2008 H 0.07621 0.49242 0.18387 0.0
H2009 H 0.06129 0.47092 0.16059 0.0
H2010 H 0.9893 0.45451 0.12843 0.0
H2011 H 0.01421 0.44477 0.14463 0.0
H2012 H 0.00292 0.57259 0.19482 0.0
H2013 H 0.03223 0.56657 0.20944 0.0
H2014 H 0.99648 0.58036 0.16423 0.0
H2015 H 0.97734 0.55545 0.14247 0.0
C2016 C 0.47809 0.47211 0.18267 0.0
C2017 C 0.49501 0.50503 0.192 0.0
C2018 C 0.52981 0.52951 0.16126 0.0
C2019 C 0.51289 0.49658 0.15193 0.0
N2020 N 0.46615 0.43815 0.1516 0.0
N2021 N 0.53122 0.56594 0.18921 0.0
C2022 C 0.48545 0.46836 0.16199 0.0
C2023 C 0.51901 0.53406 0.18092 0.0
N2024 N 0.45595 0.44431 0.19384 0.0
N2025 N 0.55717 0.55608 0.15168 0.0
H2026 H 0.52416 0.57002 0.20369 0.0
H2027 H 0.54599 0.58837 0.1812 0.0
H2028 H 0.56526 0.55391 0.13708 0.0
H2029 H 0.57327 0.57974 0.15857 0.0
H2030 H 0.44604 0.41921 0.18881 0.0
H2031 H 0.44888 0.44621 0.20876 0.0
H2032 H 0.44358 0.41756 0.15729 0.0
H2033 H 0.47107 0.43456 0.13648 0.0
C2034 C 0.03468 0.52704 0.84175 0.0
C2035 C 0.99878 0.50511 0.83696 0.0
C2036 C 0.98329 0.51218 0.87194 0.0
C2037 C 0.01929 0.5328 0.87688 0.0
N2038 N 0.0791 0.5522 0.8682 0.0
N2039 N 0.93975 0.47043 0.84865 0.0
C2040 C 0.04492 0.53764 0.86231 0.0
C2041 C 0.97332 0.49563 0.85246 0.0
N2042 N 0.05886 0.53953 0.82655 0.0
N2043 N 0.95862 0.50971 0.8854 0.0
H2044 H 0.93174 0.4576 0.83463 0.0
H2045 H 0.92077 0.46008 0.85989 0.0
H2046 H 0.96478 0.52127 0.89982 0.0
H2047 H 0.9322 0.49832 0.88171 0.0
H2048 H 0.08472 0.55851 0.82898 0.0
H2049 H 0.05259 0.53344 0.81117 0.0
H2050 H 0.09853 0.55334 0.85873 0.0
H2051 H 0.0874 0.55999 0.88321 0.0
C2052 C 0.48159 0.45993 0.84576 0.0
C2053 C 0.51762 0.47945 0.84112 0.0
C2054 C 0.52738 0.51515 0.87167 0.0
C2055 C 0.49201 0.4937 0.87724 0.0
N2056 N 0.43691 0.44209 0.87159 0.0
N2057 N 0.57606 0.52194 0.85127 0.0
C2058 C 0.46949 0.46506 0.86483 0.0
C2059 C 0.5409 0.50609 0.85452 0.0
N2060 N 0.45874 0.43716 0.83167 0.0
N2061 N 0.54778 0.54476 0.88239 0.0
H2062 H 0.58696 0.51608 0.83888 0.0
H2063 H 0.59457 0.53883 0.86172 0.0
H2064 H 0.53886 0.55224 0.89505 0.0
H2065 H 0.57255 0.56328 0.87775 0.0
H2066 H 0.43175 0.42484 0.83325 0.0
H2067 H 0.46658 0.4328 0.8175 0.0
H2068 H 0.42072 0.4188 0.86429 0.0
H2069 H 0.42718 0.44485 0.88552 0.0
C2070 C 0.48339 0.03213 0.84434 0.0
C2071 C 0.50896 0.02987 0.83247 0.0
C2072 C 0.5215 0.00289 0.86108 0.0
C2073 C 0.49268 0.00084 0.87177 0.0
N2074 N 0.44523 0.01239 0.87374 0.0
N2075 N 0.55156 0.01189 0.82883 0.0
C2076 C 0.47358 0.01551 0.86354 0.0
C2077 C 0.52813 0.01528 0.84075 0.0
N2078 N 0.46886 0.05056 0.8373 0.0
N2079 N 0.54266 0.99318 0.87051 0.0
H2080 H 0.55777 0.02139 0.81408 0.0
H2081 H 0.56334 0.99789 0.83299 0.0
H2082 H 0.53823 0.98366 0.88528 0.0
H2083 H 0.56612 0.99718 0.86447 0.0
H2084 H 0.45259 0.05612 0.84595 0.0
H2085 H 0.47543 0.06282 0.82329 0.0
H2086 H 0.42764 0.0188 0.86756 0.0
H2087 H 0.4381 0.00154 0.88813 0.0
C2088 C 0.16079 0.2805 0.50676 0.0
C2089 C 0.15501 0.30039 0.52148 0.0
C2090 C 0.16488 0.34235 0.49513 0.0
C2091 C 0.17631 0.32547 0.48149 0.0
N2092 N 0.18848 0.27987 0.47499 0.0
N2093 N 0.15661 0.35318 0.5303 0.0
C2094 C 0.17486 0.29469 0.48739 0.0
C2095 C 0.15807 0.33198 0.5158 0.0
N2096 N 0.15228 0.24782 0.51118 0.0
N2097 N 0.16017 0.36815 0.48823 0.0
H2098 H 0.15273 0.34725 0.54573 0.0
H2099 H 0.16253 0.37805 0.52733 0.0
H2100 H 0.16451 0.37608 0.47311 0.0
H2101 H 0.14862 0.37918 0.49692 0.0
H2102 H 0.15268 0.2309 0.50042 0.0
H2103 H 0.14156 0.23657 0.5251 0.0
H2104 H 0.19178 0.25967 0.47949 0.0
H2105 H 0.19903 0.28941 0.46074 0.0
C2106 C 0.69256 0.87315 0.51274 0.0
C2107 C 0.70926 0.85419 0.51726 0.0
C2108 C 0.68297 0.81849 0.48668 0.0
C2109 C 0.66885 0.8394 0.48125 0.0
N2110 N 0.66503 0.89014 0.48709 0.0
N2111 N 0.72512 0.81237 0.50718 0.0
C2112 C 0.67497 0.86772 0.49374 0.0
C2113 C 0.70577 0.82778 0.50386 0.0
N2114 N 0.69272 0.89569 0.52688 0.0
N2115 N 0.67378 0.78921 0.47578 0.0
H2116 H 0.7419 0.81832 0.51967 0.0
H2117 H 0.72672 0.7957 0.49674 0.0
H2118 H 0.6573 0.78168 0.46304 0.0
H2119 H 0.68014 0.771 0.48027 0.0
H2120 H 0.67785 0.90753 0.5254 0.0
H2121 H 0.70538 0.90039 0.54097 0.0
H2122 H 0.67216 0.91326 0.49444 0.0
H2123 H 0.65219 0.88713 0.47321 0.0
C2124 C 0.14852 0.81314 0.51213 0.0
C2125 C 0.1444 0.8408 0.51899 0.0
C2126 C 0.13513 0.8521 0.48365 0.0
C2127 C 0.14098 0.82553 0.4768 0.0
N2128 N 0.16093 0.78599 0.48383 0.0
N2129 N 0.14078 0.89085 0.51124 0.0
C2130 C 0.1502 0.80777 0.49086 0.0
C2131 C 0.13984 0.86161 0.50471 0.0
N2132 N 0.14901 0.79089 0.52587 0.0
N2133 N 0.12373 0.8673 0.47019 0.0
H2134 H 0.14426 0.89857 0.52653 0.0
H2135 H 0.14114 0.90889 0.5014 0.0
H2136 H 0.12068 0.86152 0.45461 0.0
H2137 H 0.11505 0.88394 0.47462 0.0
H2138 H 0.14802 0.76817 0.52165 0.0
H2139 H 0.14725 0.79345 0.54158 0.0
H2140 H 0.17143 0.77495 0.49322 0.0
H2141 H 0.16245 0.7815 0.46832 0.0
C2142 C 0.63839 0.83579 0.18585 0.0
C2143 C 0.66262 0.83929 0.17059 0.0
C2144 C 0.70968 0.86229 0.19622 0.0
C2145 C 0.68654 0.86345 0.21068 0.0
N2146 N 0.62929 0.85356 0.21925 0.0
N2147 N 0.72215 0.85915 0.16056 0.0
C2148 C 0.65086 0.85048 0.20558 0.0
C2149 C 0.69847 0.8531 0.17562 0.0
N2150 N 0.60345 0.81799 0.18152 0.0
N2151 N 0.74233 0.86971 0.20227 0.0
H2152 H 0.71517 0.85294 0.14526 0.0
H2153 H 0.74904 0.8728 0.16295 0.0
H2154 H 0.75129 0.87655 0.21727 0.0
H2155 H 0.75925 0.86601 0.19299 0.0
H2156 H 0.58423 0.81157 0.19248 0.0
H2157 H 0.59356 0.80699 0.16721 0.0
H2158 H 0.60416 0.84834 0.21564 0.0
H2159 H 0.63727 0.8635 0.23397 0.0
C2160 C 0.21332 0.86684 0.18508 0.0
C2161 C 0.18878 0.83612 0.17492 0.0
C2162 C 0.14644 0.82542 0.20213 0.0
C2163 C 0.16939 0.85803 0.21089 0.0
N2164 N 0.22291 0.91206 0.20902 0.0
N2165 N 0.13 0.78857 0.17214 0.0
C2166 C 0.20243 0.87935 0.20194 0.0
C2167 C 0.1548 0.81599 0.18305 0.0
N2168 N 0.24737 0.88353 0.17904 0.0
N2169 N 0.117 0.80305 0.21233 0.0
H2170 H 0.13491 0.78109 0.15801 0.0
H2171 H 0.1038 0.77511 0.1762 0.0
H2172 H 0.11007 0.80902 0.22633 0.0
H2173 H 0.10121 0.77761 0.20788 0.0
H2174 H 0.26723 0.90393 0.18719 0.0
H2175 H 0.25643 0.87509 0.1669 0.0
H2176 H 0.2454 0.93004 0.20167 0.0
H2177 H 0.21597 0.92218 0.22131 0.0
C2178 C 0.154 0.37764 0.18063 0.0
C2179 C 0.18279 0.37974 0.1698 0.0
C2180 C 0.19407 0.3522 0.19855 0.0
C2181 C 0.16047 0.34224 0.20638 0.0
N2182 N 0.10886 0.34752 0.20556 0.0
N2183 N 0.24155 0.39476 0.17881 0.0
C2184 C 0.14065 0.35581 0.19773 0.0
C2185 C 0.20656 0.37434 0.18155 0.0
N2186 N 0.14312 0.40035 0.17664 0.0
N2187 N 0.21398 0.34028 0.20708 0.0
H2188 H 0.2514 0.41589 0.1693 0.0
H2189 H 0.26026 0.39404 0.18813 0.0
H2190 H 0.2062 0.32476 0.21988 0.0
H2191 H 0.23711 0.34413 0.20054 0.0
H2192 H 0.12438 0.40222 0.18527 0.0
H2193 H 0.15658 0.42038 0.16653 0.0
H2194 H 0.09184 0.35381 0.19839 0.0
H2195 H 0.09868 0.33258 0.21849 0.0
C2196 C 0.84853 0.64833 0.84278 0.0
C2197 C 0.81807 0.64412 0.85266 0.0
C2198 C 0.80595 0.6705 0.82348 0.0
C2199 C 0.83632 0.67456 0.81361 0.0
N2200 N 0.8807 0.65889 0.81116 0.0
N2201 N 0.76313 0.64274 0.85014 0.0
C2202 C 0.8556 0.66054 0.8224 0.0
C2203 C 0.79524 0.65244 0.8422 0.0
N2204 N 0.87188 0.64272 0.85323 0.0
N2205 N 0.78836 0.68543 0.81556 0.0
H2206 H 0.75453 0.62928 0.86371 0.0
H2207 H 0.74391 0.64508 0.84239 0.0
H2208 H 0.795 0.69834 0.80177 0.0
H2209 H 0.76862 0.68693 0.82327 0.0
H2210 H 0.89642 0.64917 0.84766 0.0
H2211 H 0.86798 0.63403 0.86817 0.0
H2212 H 0.89347 0.64607 0.81588 0.0
H2213 H 0.88625 0.66749 0.79619 0.0
C2214 C 0.33969 0.19357 0.84832 0.0
C2215 C 0.36694 0.18583 0.84994 0.0
C2216 C 0.34986 0.15624 0.81677 0.0
C2217 C 0.32558 0.16768 0.81407 0.0
N2218 N 0.30246 0.20323 0.82564 0.0
N2219 N 0.40255 0.16577 0.83384 0.0
C2220 C 0.32185 0.18801 0.82941 0.0
C2221 C 0.37332 0.16877 0.83365 0.0
N2222 N 0.33017 0.20533 0.86499 0.0
N2223 N 0.34984 0.13259 0.80361 0.0
H2224 H 0.42092 0.17534 0.84566 0.0
H2225 H 0.41029 0.15677 0.82137 0.0
H2226 H 0.33253 0.12218 0.7913 0.0
H2227 H 0.3646 0.12085 0.80606 0.0
H2228 H 0.30819 0.2081 0.86519 0.0
H2229 H 0.34219 0.20911 0.87924 0.0
H2230 H 0.30183 0.22111 0.83552 0.0
H2231 H 0.28974 0.20064 0.81178 0.0
C2232 C 0.83662 0.1942 0.84547 0.0
C2233 C 0.82827 0.16891 0.86046 0.0
C2234 C 0.83166 0.13147 0.8343 0.0
C2235 C 0.84578 0.15881 0.82035 0.0
N2236 N 0.86674 0.21844 0.81392 0.0
N2237 N 0.82433 0.11551 0.86974 0.0
C2238 C 0.84944 0.19079 0.8262 0.0
C2239 C 0.82731 0.13795 0.85503 0.0
N2240 N 0.83167 0.22115 0.84949 0.0
N2241 N 0.82186 0.09914 0.82769 0.0
H2242 H 0.82275 0.11979 0.88525 0.0
H2243 H 0.8271 0.09434 0.86672 0.0
H2244 H 0.82386 0.0933 0.81249 0.0
H2245 H 0.80838 0.07776 0.8368 0.0
H2246 H 0.83416 0.23859 0.83845 0.0
H2247 H 0.8216 0.22405 0.86326 0.0
H2248 H 0.87329 0.24308 0.81847 0.0
H2249 H 0.87745 0.21745 0.79997 0.0
C2250 C 0.37309 0.20081 0.50847 0.0
C2251 C 0.33721 0.17807 0.50409 0.0
C2252 C 0.32283 0.18237 0.53975 0.0
C2253 C 0.35892 0.20356 0.54429 0.0
N2254 N 0.41862 0.22514 0.5343 0.0
N2255 N 0.27919 0.14073 0.51651 0.0
C2256 C 0.38411 0.21016 0.52905 0.0
C2257 C 0.31246 0.16675 0.52007 0.0
N2258 N 0.39643 0.21521 0.49298 0.0
N2259 N 0.29837 0.17855 0.55377 0.0
H2260 H 0.2709 0.12848 0.50233 0.0
H2261 H 0.26093 0.12915 0.52802 0.0
H2262 H 0.30475 0.18976 0.56828 0.0
H2263 H 0.27177 0.16655 0.55045 0.0
H2264 H 0.42208 0.23472 0.49532 0.0
H2265 H 0.38949 0.21016 0.47761 0.0
H2266 H 0.43781 0.22759 0.52416 0.0
H2267 H 0.42751 0.23189 0.54932 0.0
C2268 C 0.87501 0.1722 0.52083 0.0
C2269 C 0.85098 0.14575 0.50758 0.0
C2270 C 0.80412 0.1314 0.53227 0.0
C2271 C 0.82737 0.15985 0.54459 0.0
N2272 N 0.88362 0.21049 0.54928 0.0
N2273 N 0.79167 0.10347 0.49903 0.0
C2274 C 0.86251 0.18113 0.53852 0.0
C2275 C 0.81522 0.12624 0.51285 0.0
N2276 N 0.90995 0.18808 0.51684 0.0
N2277 N 0.77175 0.10868 0.53943 0.0
H2278 H 0.79882 0.09898 0.48468 0.0
H2279 H 0.76477 0.09119 0.50105 0.0
H2280 H 0.76275 0.11153 0.5536 0.0
H2281 H 0.75499 0.0855 0.53219 0.0
H2282 H 0.92909 0.20481 0.52706 0.0
H2283 H 0.92008 0.18245 0.50397 0.0
H2284 H 0.9082 0.22898 0.54436 0.0
H2285 H 0.87551 0.21778 0.56237 0.0
C2286 C 0.87216 0.71011 0.51769 0.0
C2287 C 0.84665 0.69441 0.50191 0.0
C2288 C 0.80537 0.65589 0.52723 0.0
C2289 C 0.83254 0.66718 0.54199 0.0
N2290 N 0.89393 0.70247 0.54998 0.0
N2291 N 0.79106 0.64633 0.49139 0.0
C2292 C 0.86656 0.69381 0.53695 0.0
C2293 C 0.8137 0.66574 0.50661 0.0
N2294 N 0.90135 0.74096 0.51449 0.0
N2295 N 0.77142 0.63586 0.53293 0.0
H2296 H 0.79692 0.65076 0.47595 0.0
H2297 H 0.76817 0.62342 0.49411 0.0
H2298 H 0.76425 0.62904 0.54806 0.0
H2299 H 0.75046 0.62937 0.52307 0.0
H2300 H 0.91919 0.75499 0.52605 0.0
H2301 H 0.90579 0.75411 0.50086 0.0
H2302 H 0.91977 0.71918 0.54606 0.0
H2303 H 0.89124 0.69073 0.56396 0.0
loop_
_geom_bond_atom_site_label_1
_geom_bond_atom_site_label_2
_geom_bond_distance
_geom_bond_site_symmetry_2
_ccdc_geom_bond_type
P0 O11 1.490 . S
P0 C14 1.812 . S
P0 C20 1.803 . S
P0 C26 1.819 . S
H1 C15 0.941 . S
H2 C16 0.939 . S
H3 C18 0.940 . S
H4 C19 0.940 . S
H5 C21 0.939 . S
H6 C22 0.942 . S
H7 C24 0.940 . S
H8 C25 0.939 . S
H9 C27 0.941 . S
H10 C31 0.939 . S
O11 P0 1.490 . S
H12 C28 0.939 . S
H13 C30 0.940 . S
C14 P0 1.812 . S
C14 C15 1.389 . S
C14 C19 1.391 . S
C15 H1 0.941 . S
C15 C14 1.389 . S
C15 C16 1.397 . S
C16 H2 0.939 . S
C16 C15 1.397 . S
C16 C17 1.378 . S
C17 C16 1.378 . S
C17 C18 1.378 . S
C18 H3 0.940 . S
C18 C17 1.378 . S
C18 C19 1.396 . S
C19 H4 0.940 . S
C19 C14 1.391 . S
C19 C18 1.396 . S
C20 P0 1.803 . S
C20 C21 1.378 . S
C20 C25 1.400 . S
C21 H5 0.939 . S
C21 C20 1.378 . S
C21 C22 1.361 . S
C22 H6 0.942 . S
C22 C21 1.361 . S
C22 C23 1.369 . S
C23 C22 1.369 . S
C23 C24 1.404 . S
C24 H7 0.940 . S
C24 C23 1.404 . S
C24 C25 1.389 . S
C25 H8 0.939 . S
C25 C20 1.400 . S
C25 C24 1.389 . S
C26 P0 1.819 . S
C26 C27 1.391 . S
C26 C31 1.391 . S
C27 H9 0.941 . S
C27 C26 1.391 . S
C27 C28 1.396 . S
C28 H12 0.939 . S
C28 C27 1.396 . S
C28 C29 1.397 . S
C29 C28 1.397 . S
C29 C30 1.385 . S
C30 H13 0.940 . S
C30 C29 1.385 . S
C30 C31 1.388 . S
C31 H10 0.939 . S
C31 C26 1.391 . S
C31 C30 1.388 . S
P32 O43 1.490 . S
P32 C46 1.812 . S
P32 C52 1.803 . S
P32 C58 1.819 . S
H33 C47 0.941 . S
H34 C48 0.939 . S
H35 C50 0.940 . S
H36 C51 0.940 . S
H37 C53 0.939 . S
H38 C54 0.942 1_455 S
H39 C56 0.940 . S
H40 C57 0.939 . S
H41 C59 0.941 . S
H42 C63 0.939 . S
O43 P32 1.490 . S
H44 C60 0.939 . S
H45 C62 0.940 . S
C46 P32 1.812 . S
C46 C47 1.389 . S
C46 C51 1.391 . S
C47 H33 0.941 . S
C47 C46 1.389 . S
C47 C48 1.397 . S
C48 H34 0.939 . S
C48 C47 1.397 . S
C48 C49 1.378 . S
C49 C48 1.378 . S
C49 C50 1.378 . S
C50 H35 0.940 . S
C50 C49 1.378 . S
C50 C51 1.396 . S
C51 H36 0.940 . S
C51 C46 1.391 . S
C51 C50 1.396 . S
C52 P32 1.803 . S
C52 C53 1.378 . S
C52 C57 1.400 . S
C53 H37 0.939 . S
C53 C52 1.378 . S
C53 C54 1.361 . S
C54 H38 0.942 1_655 S
C54 C53 1.361 . S
C54 C55 1.369 . S
C55 C54 1.369 . S
C55 C56 1.404 . S
C56 H39 0.940 . S
C56 C55 1.404 . S
C56 C57 1.389 . S
C57 H40 0.939 . S
C57 C52 1.400 . S
C57 C56 1.389 . S
C58 P32 1.819 . S
C58 C59 1.391 . S
C58 C63 1.391 . S
C59 H41 0.941 . S
C59 C58 1.391 . S
C59 C60 1.396 . S
C60 H44 0.939 . S
C60 C59 1.396 . S
C60 C61 1.397 . S
C61 C60 1.397 . S
C61 C62 1.385 . S
C62 H45 0.940 . S
C62 C61 1.385 . S
C62 C63 1.388 . S
C63 H42 0.939 . S
C63 C58 1.391 . S
C63 C62 1.388 . S
P64 O75 1.490 . S
P64 C78 1.812 . S
P64 C84 1.803 . S
P64 C90 1.819 . S
H65 C79 0.941 . S
H66 C80 0.939 . S
H67 C82 0.940 . S
H68 C83 0.940 . S
H69 C85 0.939 . S
H70 C86 0.942 . S
H71 C88 0.940 . S
H72 C89 0.939 . S
H73 C91 0.941 . S
H74 C95 0.939 . S
O75 P64 1.490 . S
H76 C92 0.939 . S
H77 C94 0.940 . S
C78 P64 1.812 . S
C78 C79 1.389 . S
C78 C83 1.391 . S
C79 H65 0.941 . S
C79 C78 1.389 . S
C79 C80 1.397 . S
C80 H66 0.939 . S
C80 C79 1.397 . S
C80 C81 1.378 . S
C81 C80 1.378 . S
C81 C82 1.378 . S
C82 H67 0.940 . S
C82 C81 1.378 . S
C82 C83 1.396 . S
C83 H68 0.940 . S
C83 C78 1.391 . S
C83 C82 1.396 . S
C84 P64 1.803 . S
C84 C85 1.378 . S
C84 C89 1.400 . S
C85 H69 0.939 . S
C85 C84 1.378 . S
C85 C86 1.361 . S
C86 H70 0.942 . S
C86 C85 1.361 . S
C86 C87 1.369 . S
C87 C86 1.369 . S
C87 C88 1.404 . S
C88 H71 0.940 . S
C88 C87 1.404 . S
C88 C89 1.389 . S
C89 H72 0.939 . S
C89 C84 1.400 . S
C89 C88 1.389 . S
C90 P64 1.819 . S
C90 C91 1.391 . S
C90 C95 1.391 . S
C91 H73 0.941 . S
C91 C90 1.391 . S
C91 C92 1.396 . S
C92 H76 0.939 . S
C92 C91 1.396 . S
C92 C93 1.397 . S
C93 C92 1.397 . S
C93 C94 1.385 . S
C94 H77 0.940 . S
C94 C93 1.385 . S
C94 C95 1.388 . S
C95 H74 0.939 . S
C95 C90 1.391 . S
C95 C94 1.388 . S
P96 O107 1.490 . S
P96 C110 1.812 . S
P96 C116 1.803 . S
P96 C122 1.819 . S
H97 C111 0.941 . S
H98 C112 0.939 . S
H99 C114 0.940 . S
H100 C115 0.940 . S
H101 C117 0.939 . S
H102 C118 0.942 . S
H103 C120 0.940 . S
H104 C121 0.939 . S
H105 C123 0.941 . S
H106 C127 0.939 . S
O107 P96 1.490 . S
H108 C124 0.939 . S
H109 C126 0.940 . S
C110 P96 1.812 . S
C110 C111 1.389 . S
C110 C115 1.391 . S
C111 H97 0.941 . S
C111 C110 1.389 . S
C111 C112 1.397 . S
C112 H98 0.939 . S
C112 C111 1.397 . S
C112 C113 1.378 . S
C113 C112 1.378 . S
C113 C114 1.378 . S
C114 H99 0.940 . S
C114 C113 1.378 . S
C114 C115 1.396 . S
C115 H100 0.940 . S
C115 C110 1.391 . S
C115 C114 1.396 . S
C116 P96 1.803 . S
C116 C117 1.378 . S
C116 C121 1.400 . S
C117 H101 0.939 . S
C117 C116 1.378 . S
C117 C118 1.361 . S
C118 H102 0.942 . S
C118 C117 1.361 . S
C118 C119 1.369 . S
C119 C118 1.369 . S
C119 C120 1.404 . S
C120 H103 0.940 . S
C120 C119 1.404 . S
C120 C121 1.389 . S
C121 H104 0.939 . S
C121 C116 1.400 . S
C121 C120 1.389 . S
C122 P96 1.819 . S
C122 C123 1.391 . S
C122 C127 1.391 . S
C123 H105 0.941 . S
C123 C122 1.391 . S
C123 C124 1.396 . S
C124 H108 0.939 . S
C124 C123 1.396 . S
C124 C125 1.397 . S
C125 C124 1.397 . S
C125 C126 1.385 . S
C126 H109 0.940 . S
C126 C125 1.385 . S
C126 C127 1.388 . S
C127 H106 0.939 . S
C127 C122 1.391 . S
C127 C126 1.388 . S
P128 O139 1.490 . S
P128 C142 1.812 . S
P128 C148 1.803 . S
P128 C154 1.819 . S
H129 C143 0.941 . S
H130 C144 0.939 . S
H131 C146 0.940 . S
H132 C147 0.940 . S
H133 C149 0.939 . S
H134 C150 0.942 . S
H135 C152 0.940 . S
H136 C153 0.939 . S
H137 C155 0.941 . S
H138 C159 0.939 . S
O139 P128 1.490 . S
H140 C156 0.939 . S
H141 C158 0.940 . S
C142 P128 1.812 . S
C142 C143 1.389 . S
C142 C147 1.391 . S
C143 H129 0.941 . S
C143 C142 1.389 . S
C143 C144 1.397 . S
C144 H130 0.939 . S
C144 C143 1.397 . S
C144 C145 1.378 . S
C145 C144 1.378 . S
C145 C146 1.378 . S
C146 H131 0.940 . S
C146 C145 1.378 . S
C146 C147 1.396 . S
C147 H132 0.940 . S
C147 C142 1.391 . S
C147 C146 1.396 . S
C148 P128 1.803 . S
C148 C149 1.378 . S
C148 C153 1.400 . S
C149 H133 0.939 . S
C149 C148 1.378 . S
C149 C150 1.361 . S
C150 H134 0.942 . S
C150 C149 1.361 . S
C150 C151 1.369 . S
C151 C150 1.369 . S
C151 C152 1.404 . S
C152 H135 0.940 . S
C152 C151 1.404 . S
C152 C153 1.389 . S
C153 H136 0.939 . S
C153 C148 1.400 . S
C153 C152 1.389 . S
C154 P128 1.819 . S
C154 C155 1.391 . S
C154 C159 1.391 . S
C155 H137 0.941 . S
C155 C154 1.391 . S
C155 C156 1.396 . S
C156 H140 0.939 . S
C156 C155 1.396 . S
C156 C157 1.397 . S
C157 C156 1.397 . S
C157 C158 1.385 . S
C158 H141 0.940 . S
C158 C157 1.385 . S
C158 C159 1.388 . S
C159 H138 0.939 . S
C159 C154 1.391 . S
C159 C158 1.388 . S
P160 O171 1.490 . S
P160 C174 1.812 . S
P160 C180 1.803 . S
P160 C186 1.819 . S
H161 C175 0.941 . S
H162 C176 0.939 . S
H163 C178 0.940 . S
H164 C179 0.940 . S
H165 C181 0.939 . S
H166 C182 0.942 . S
H167 C184 0.940 . S
H168 C185 0.939 . S
H169 C187 0.941 . S
H170 C191 0.939 . S
O171 P160 1.490 . S
H172 C188 0.939 . S
H173 C190 0.940 . S
C174 P160 1.812 . S
C174 C175 1.389 . S
C174 C179 1.391 . S
C175 H161 0.941 . S
C175 C174 1.389 . S
C175 C176 1.397 . S
C176 H162 0.939 . S
C176 C175 1.397 . S
C176 C177 1.378 . S
C177 C176 1.378 . S
C177 C178 1.378 . S
C178 H163 0.940 . S
C178 C177 1.378 . S
C178 C179 1.396 . S
C179 H164 0.940 . S
C179 C174 1.391 . S
C179 C178 1.396 . S
C180 P160 1.803 . S
C180 C181 1.378 . S
C180 C185 1.400 . S
C181 H165 0.939 . S
C181 C180 1.378 . S
C181 C182 1.361 . S
C182 H166 0.942 . S
C182 C181 1.361 . S
C182 C183 1.369 . S
C183 C182 1.369 . S
C183 C184 1.404 . S
C184 H167 0.940 . S
C184 C183 1.404 . S
C184 C185 1.389 . S
C185 H168 0.939 . S
C185 C180 1.400 . S
C185 C184 1.389 . S
C186 P160 1.819 . S
C186 C187 1.391 . S
C186 C191 1.391 . S
C187 H169 0.941 . S
C187 C186 1.391 . S
C187 C188 1.396 . S
C188 H172 0.939 . S
C188 C187 1.396 . S
C188 C189 1.397 . S
C189 C188 1.397 . S
C189 C190 1.385 . S
C190 H173 0.940 . S
C190 C189 1.385 . S
C190 C191 1.388 . S
C191 H170 0.939 . S
C191 C186 1.391 . S
C191 C190 1.388 . S
P192 O203 1.490 . S
P192 C206 1.812 . S
P192 C212 1.803 . S
P192 C218 1.819 . S
H193 C207 0.941 . S
H194 C208 0.939 . S
H195 C210 0.940 . S
H196 C211 0.940 . S
H197 C213 0.939 . S
H198 C214 0.942 . S
H199 C216 0.940 . S
H200 C217 0.939 . S
H201 C219 0.941 . S
H202 C223 0.939 . S
O203 P192 1.490 . S
H204 C220 0.939 . S
H205 C222 0.940 . S
C206 P192 1.812 . S
C206 C207 1.389 . S
C206 C211 1.391 . S
C207 H193 0.941 . S
C207 C206 1.389 . S
C207 C208 1.397 . S
C208 H194 0.939 . S
C208 C207 1.397 . S
C208 C209 1.378 . S
C209 C208 1.378 . S
C209 C210 1.378 . S
C210 H195 0.940 . S
C210 C209 1.378 . S
C210 C211 1.396 . S
C211 H196 0.940 . S
C211 C206 1.391 . S
C211 C210 1.396 . S
C212 P192 1.803 . S
C212 C213 1.378 . S
C212 C217 1.400 . S
C213 H197 0.939 . S
C213 C212 1.378 . S
C213 C214 1.361 . S
C214 H198 0.942 . S
C214 C213 1.361 . S
C214 C215 1.369 . S
C215 C214 1.369 . S
C215 C216 1.404 . S
C216 H199 0.940 . S
C216 C215 1.404 . S
C216 C217 1.389 . S
C217 H200 0.939 . S
C217 C212 1.400 . S
C217 C216 1.389 . S
C218 P192 1.819 . S
C218 C219 1.391 . S
C218 C223 1.391 . S
C219 H201 0.941 . S
C219 C218 1.391 . S
C219 C220 1.396 . S
C220 H204 0.939 . S
C220 C219 1.396 . S
C220 C221 1.397 . S
C221 C220 1.397 . S
C221 C222 1.385 . S
C222 H205 0.940 . S
C222 C221 1.385 . S
C222 C223 1.388 . S
C223 H202 0.939 . S
C223 C218 1.391 . S
C223 C222 1.388 . S
P224 O235 1.490 . S
P224 C238 1.812 . S
P224 C244 1.803 . S
P224 C250 1.819 . S
H225 C239 0.941 . S
H226 C240 0.939 . S
H227 C242 0.940 . S
H228 C243 0.940 . S
H229 C245 0.939 . S
H230 C246 0.942 . S
H231 C248 0.940 . S
H232 C249 0.939 . S
H233 C251 0.941 . S
H234 C255 0.939 . S
O235 P224 1.490 . S
H236 C252 0.939 . S
H237 C254 0.940 . S
C238 P224 1.812 . S
C238 C239 1.389 . S
C238 C243 1.391 . S
C239 H225 0.941 . S
C239 C238 1.389 . S
C239 C240 1.397 . S
C240 H226 0.939 . S
C240 C239 1.397 . S
C240 C241 1.378 . S
C241 C240 1.378 . S
C241 C242 1.378 . S
C242 H227 0.940 . S
C242 C241 1.378 . S
C242 C243 1.396 . S
C243 H228 0.940 . S
C243 C238 1.391 . S
C243 C242 1.396 . S
C244 P224 1.803 . S
C244 C245 1.378 . S
C244 C249 1.400 . S
C245 H229 0.939 . S
C245 C244 1.378 . S
C245 C246 1.361 . S
C246 H230 0.942 . S
C246 C245 1.361 . S
C246 C247 1.369 . S
C247 C246 1.369 . S
C247 C248 1.404 . S
C248 H231 0.940 . S
C248 C247 1.404 . S
C248 C249 1.389 . S
C249 H232 0.939 . S
C249 C244 1.400 . S
C249 C248 1.389 . S
C250 P224 1.819 . S
C250 C251 1.391 . S
C250 C255 1.391 . S
C251 H233 0.941 . S
C251 C250 1.391 . S
C251 C252 1.396 . S
C252 H236 0.939 . S
C252 C251 1.396 . S
C252 C253 1.397 . S
C253 C252 1.397 . S
C253 C254 1.385 . S
C254 H237 0.940 . S
C254 C253 1.385 . S
C254 C255 1.388 . S
C255 H234 0.939 . S
C255 C250 1.391 . S
C255 C254 1.388 . S
P256 O267 1.490 . S
P256 C270 1.812 . S
P256 C276 1.803 . S
P256 C282 1.819 . S
H257 C271 0.941 . S
H258 C272 0.939 . S
H259 C274 0.940 . S
H260 C275 0.940 . S
H261 C277 0.939 . S
H262 C278 0.942 . S
H263 C280 0.940 . S
H264 C281 0.939 . S
H265 C283 0.941 . S
H266 C287 0.939 . S
O267 P256 1.490 . S
H268 C284 0.939 . S
H269 C286 0.940 . S
C270 P256 1.812 . S
C270 C271 1.389 . S
C270 C275 1.391 . S
C271 H257 0.941 . S
C271 C270 1.389 . S
C271 C272 1.397 . S
C272 H258 0.939 . S
C272 C271 1.397 . S
C272 C273 1.378 . S
C273 C272 1.378 . S
C273 C274 1.378 . S
C274 H259 0.940 . S
C274 C273 1.378 . S
C274 C275 1.396 . S
C275 H260 0.940 . S
C275 C270 1.391 . S
C275 C274 1.396 . S
C276 P256 1.803 . S
C276 C277 1.378 . S
C276 C281 1.400 . S
C277 H261 0.939 . S
C277 C276 1.378 . S
C277 C278 1.361 . S
C278 H262 0.942 . S
C278 C277 1.361 . S
C278 C279 1.369 . S
C279 C278 1.369 . S
C279 C280 1.404 . S
C280 H263 0.940 . S
C280 C279 1.404 . S
C280 C281 1.389 . S
C281 H264 0.939 . S
C281 C276 1.400 . S
C281 C280 1.389 . S
C282 P256 1.819 . S
C282 C283 1.391 . S
C282 C287 1.391 . S
C283 H265 0.941 . S
C283 C282 1.391 . S
C283 C284 1.396 . S
C284 H268 0.939 . S
C284 C283 1.396 . S
C284 C285 1.397 . S
C285 C284 1.397 . S
C285 C286 1.385 . S
C286 H269 0.940 . S
C286 C285 1.385 . S
C286 C287 1.388 . S
C287 H266 0.939 . S
C287 C282 1.391 . S
C287 C286 1.388 . S
P288 O299 1.490 . S
P288 C302 1.812 . S
P288 C308 1.803 . S
P288 C314 1.819 . S
H289 C303 0.941 . S
H290 C304 0.939 . S
H291 C306 0.940 . S
H292 C307 0.940 . S
H293 C309 0.939 . S
H294 C310 0.942 . S
H295 C312 0.940 . S
H296 C313 0.939 . S
H297 C315 0.941 . S
H298 C319 0.939 . S
O299 P288 1.490 . S
H300 C316 0.939 . S
H301 C318 0.940 . S
C302 P288 1.812 . S
C302 C303 1.389 . S
C302 C307 1.391 . S
C303 H289 0.941 . S
C303 C302 1.389 . S
C303 C304 1.397 . S
C304 H290 0.939 . S
C304 C303 1.397 . S
C304 C305 1.378 . S
C305 C304 1.378 . S
C305 C306 1.378 . S
C306 H291 0.940 . S
C306 C305 1.378 . S
C306 C307 1.396 . S
C307 H292 0.940 . S
C307 C302 1.391 . S
C307 C306 1.396 . S
C308 P288 1.803 . S
C308 C309 1.378 . S
C308 C313 1.400 . S
C309 H293 0.939 . S
C309 C308 1.378 . S
C309 C310 1.361 . S
C310 H294 0.942 . S
C310 C309 1.361 . S
C310 C311 1.369 . S
C311 C310 1.369 . S
C311 C312 1.404 . S
C312 H295 0.940 . S
C312 C311 1.404 . S
C312 C313 1.389 . S
C313 H296 0.939 . S
C313 C308 1.400 . S
C313 C312 1.389 . S
C314 P288 1.819 . S
C314 C315 1.391 . S
C314 C319 1.391 . S
C315 H297 0.941 . S
C315 C314 1.391 . S
C315 C316 1.396 . S
C316 H300 0.939 . S
C316 C315 1.396 . S
C316 C317 1.397 . S
C317 C316 1.397 . S
C317 C318 1.385 . S
C318 H301 0.940 . S
C318 C317 1.385 . S
C318 C319 1.388 . S
C319 H298 0.939 . S
C319 C314 1.391 . S
C319 C318 1.388 . S
P320 O331 1.490 . S
P320 C334 1.812 . S
P320 C340 1.803 . S
P320 C346 1.819 . S
H321 C335 0.941 . S
H322 C336 0.939 . S
H323 C338 0.940 . S
H324 C339 0.940 . S
H325 C341 0.939 . S
H326 C342 0.942 . S
H327 C344 0.940 . S
H328 C345 0.939 . S
H329 C347 0.941 . S
H330 C351 0.939 . S
O331 P320 1.490 . S
H332 C348 0.939 . S
H333 C350 0.940 . S
C334 P320 1.812 . S
C334 C335 1.389 . S
C334 C339 1.391 . S
C335 H321 0.941 . S
C335 C334 1.389 . S
C335 C336 1.397 . S
C336 H322 0.939 . S
C336 C335 1.397 . S
C336 C337 1.378 . S
C337 C336 1.378 . S
C337 C338 1.378 . S
C338 H323 0.940 . S
C338 C337 1.378 . S
C338 C339 1.396 . S
C339 H324 0.940 . S
C339 C334 1.391 . S
C339 C338 1.396 . S
C340 P320 1.803 . S
C340 C341 1.378 . S
C340 C345 1.400 . S
C341 H325 0.939 . S
C341 C340 1.378 . S
C341 C342 1.361 . S
C342 H326 0.942 . S
C342 C341 1.361 . S
C342 C343 1.369 . S
C343 C342 1.369 . S
C343 C344 1.404 . S
C344 H327 0.940 . S
C344 C343 1.404 . S
C344 C345 1.389 . S
C345 H328 0.939 . S
C345 C340 1.400 . S
C345 C344 1.389 . S
C346 P320 1.819 . S
C346 C347 1.391 . S
C346 C351 1.391 . S
C347 H329 0.941 . S
C347 C346 1.391 . S
C347 C348 1.396 . S
C348 H332 0.939 . S
C348 C347 1.396 . S
C348 C349 1.397 . S
C349 C348 1.397 . S
C349 C350 1.385 . S
C350 H333 0.940 . S
C350 C349 1.385 . S
C350 C351 1.388 . S
C351 H330 0.939 . S
C351 C346 1.391 . S
C351 C350 1.388 . S
P352 O363 1.490 . S
P352 C366 1.812 . S
P352 C372 1.803 . S
P352 C378 1.819 . S
H353 C367 0.941 . S
H354 C368 0.939 . S
H355 C370 0.940 . S
H356 C371 0.940 . S
H357 C373 0.939 . S
H358 C374 0.942 . S
H359 C376 0.940 . S
H360 C377 0.939 . S
H361 C379 0.941 . S
H362 C383 0.939 . S
O363 P352 1.490 . S
H364 C380 0.939 . S
H365 C382 0.940 . S
C366 P352 1.812 . S
C366 C367 1.389 . S
C366 C371 1.391 . S
C367 H353 0.941 . S
C367 C366 1.389 . S
C367 C368 1.397 . S
C368 H354 0.939 . S
C368 C367 1.397 . S
C368 C369 1.378 . S
C369 C368 1.378 . S
C369 C370 1.378 . S
C370 H355 0.940 . S
C370 C369 1.378 . S
C370 C371 1.396 . S
C371 H356 0.940 . S
C371 C366 1.391 . S
C371 C370 1.396 . S
C372 P352 1.803 . S
C372 C373 1.378 . S
C372 C377 1.400 . S
C373 H357 0.939 . S
C373 C372 1.378 . S
C373 C374 1.361 . S
C374 H358 0.942 . S
C374 C373 1.361 . S
C374 C375 1.369 . S
C375 C374 1.369 . S
C375 C376 1.404 . S
C376 H359 0.940 . S
C376 C375 1.404 . S
C376 C377 1.389 . S
C377 H360 0.939 . S
C377 C372 1.400 . S
C377 C376 1.389 . S
C378 P352 1.819 . S
C378 C379 1.391 . S
C378 C383 1.391 . S
C379 H361 0.941 . S
C379 C378 1.391 . S
C379 C380 1.396 . S
C380 H364 0.939 . S
C380 C379 1.396 . S
C380 C381 1.397 . S
C381 C380 1.397 . S
C381 C382 1.385 . S
C382 H365 0.940 . S
C382 C381 1.385 . S
C382 C383 1.388 . S
C383 H362 0.939 . S
C383 C378 1.391 . S
C383 C382 1.388 . S
P384 O395 1.490 . S
P384 C398 1.812 . S
P384 C404 1.803 . S
P384 C410 1.819 . S
H385 C399 0.941 . S
H386 C400 0.939 . S
H387 C402 0.940 . S
H388 C403 0.940 . S
H389 C405 0.939 . S
H390 C406 0.942 . S
H391 C408 0.940 . S
H392 C409 0.939 . S
H393 C411 0.941 . S
H394 C415 0.939 . S
O395 P384 1.490 . S
H396 C412 0.939 . S
H397 C414 0.940 . S
C398 P384 1.812 . S
C398 C399 1.389 . S
C398 C403 1.391 . S
C399 H385 0.941 . S
C399 C398 1.389 . S
C399 C400 1.397 . S
C400 H386 0.939 . S
C400 C399 1.397 . S
C400 C401 1.378 . S
C401 C400 1.378 . S
C401 C402 1.378 . S
C402 H387 0.940 . S
C402 C401 1.378 . S
C402 C403 1.396 . S
C403 H388 0.940 . S
C403 C398 1.391 . S
C403 C402 1.396 . S
C404 P384 1.803 . S
C404 C405 1.378 . S
C404 C409 1.400 . S
C405 H389 0.939 . S
C405 C404 1.378 . S
C405 C406 1.361 . S
C406 H390 0.942 . S
C406 C405 1.361 . S
C406 C407 1.369 . S
C407 C406 1.369 . S
C407 C408 1.404 . S
C408 H391 0.940 . S
C408 C407 1.404 . S
C408 C409 1.389 . S
C409 H392 0.939 . S
C409 C404 1.400 . S
C409 C408 1.389 . S
C410 P384 1.819 . S
C410 C411 1.391 . S
C410 C415 1.391 . S
C411 H393 0.941 . S
C411 C410 1.391 . S
C411 C412 1.396 . S
C412 H396 0.939 . S
C412 C411 1.396 . S
C412 C413 1.397 . S
C413 C412 1.397 . S
C413 C414 1.385 . S
C414 H397 0.940 . S
C414 C413 1.385 . S
C414 C415 1.388 . S
C415 H394 0.939 . S
C415 C410 1.391 . S
C415 C414 1.388 . S
P416 O427 1.490 . S
P416 C430 1.812 . S
P416 C436 1.803 . S
P416 C442 1.819 . S
H417 C431 0.941 . S
H418 C432 0.939 . S
H419 C434 0.940 . S
H420 C435 0.940 . S
H421 C437 0.939 . S
H422 C438 0.942 . S
H423 C440 0.940 . S
H424 C441 0.939 . S
H425 C443 0.941 . S
H426 C447 0.939 . S
O427 P416 1.490 . S
H428 C444 0.939 . S
H429 C446 0.940 . S
C430 P416 1.812 . S
C430 C431 1.389 . S
C430 C435 1.391 . S
C431 H417 0.941 . S
C431 C430 1.389 . S
C431 C432 1.397 . S
C432 H418 0.939 . S
C432 C431 1.397 . S
C432 C433 1.378 . S
C433 C432 1.378 . S
C433 C434 1.378 . S
C434 H419 0.940 . S
C434 C433 1.378 . S
C434 C435 1.396 . S
C435 H420 0.940 . S
C435 C430 1.391 . S
C435 C434 1.396 . S
C436 P416 1.803 . S
C436 C437 1.378 . S
C436 C441 1.400 . S
C437 H421 0.939 . S
C437 C436 1.378 . S
C437 C438 1.361 . S
C438 H422 0.942 . S
C438 C437 1.361 . S
C438 C439 1.369 . S
C439 C438 1.369 . S
C439 C440 1.404 . S
C440 H423 0.940 . S
C440 C439 1.404 . S
C440 C441 1.389 . S
C441 H424 0.939 . S
C441 C436 1.400 . S
C441 C440 1.389 . S
C442 P416 1.819 . S
C442 C443 1.391 . S
C442 C447 1.391 . S
C443 H425 0.941 . S
C443 C442 1.391 . S
C443 C444 1.396 . S
C444 H428 0.939 . S
C444 C443 1.396 . S
C444 C445 1.397 . S
C445 C444 1.397 . S
C445 C446 1.385 . S
C446 H429 0.940 . S
C446 C445 1.385 . S
C446 C447 1.388 . S
C447 H426 0.939 . S
C447 C442 1.391 . S
C447 C446 1.388 . S
P448 O459 1.490 . S
P448 C462 1.812 . S
P448 C468 1.803 . S
P448 C474 1.819 . S
H449 C463 0.941 . S
H450 C464 0.939 . S
H451 C466 0.940 . S
H452 C467 0.940 . S
H453 C469 0.939 . S
H454 C470 0.942 . S
H455 C472 0.940 . S
H456 C473 0.939 . S
H457 C475 0.941 . S
H458 C479 0.939 . S
O459 P448 1.490 . S
H460 C476 0.939 . S
H461 C478 0.940 . S
C462 P448 1.812 . S
C462 C463 1.389 . S
C462 C467 1.391 . S
C463 H449 0.941 . S
C463 C462 1.389 . S
C463 C464 1.397 . S
C464 H450 0.939 . S
C464 C463 1.397 . S
C464 C465 1.378 . S
C465 C464 1.378 . S
C465 C466 1.378 . S
C466 H451 0.940 . S
C466 C465 1.378 . S
C466 C467 1.396 . S
C467 H452 0.940 . S
C467 C462 1.391 . S
C467 C466 1.396 . S
C468 P448 1.803 . S
C468 C469 1.378 . S
C468 C473 1.400 . S
C469 H453 0.939 . S
C469 C468 1.378 . S
C469 C470 1.361 . S
C470 H454 0.942 . S
C470 C469 1.361 . S
C470 C471 1.369 . S
C471 C470 1.369 . S
C471 C472 1.404 . S
C472 H455 0.940 . S
C472 C471 1.404 . S
C472 C473 1.389 . S
C473 H456 0.939 . S
C473 C468 1.400 . S
C473 C472 1.389 . S
C474 P448 1.819 . S
C474 C475 1.391 . S
C474 C479 1.391 . S
C475 H457 0.941 . S
C475 C474 1.391 . S
C475 C476 1.396 . S
C476 H460 0.939 . S
C476 C475 1.396 . S
C476 C477 1.397 . S
C477 C476 1.397 . S
C477 C478 1.385 . S
C478 H461 0.940 . S
C478 C477 1.385 . S
C478 C479 1.388 . S
C479 H458 0.939 . S
C479 C474 1.391 . S
C479 C478 1.388 . S
P480 O491 1.490 . S
P480 C494 1.812 . S
P480 C500 1.803 . S
P480 C506 1.819 . S
H481 C495 0.941 . S
H482 C496 0.939 . S
H483 C498 0.940 . S
H484 C499 0.940 . S
H485 C501 0.939 . S
H486 C502 0.942 . S
H487 C504 0.940 . S
H488 C505 0.939 . S
H489 C507 0.941 . S
H490 C511 0.939 . S
O491 P480 1.490 . S
H492 C508 0.939 . S
H493 C510 0.940 . S
C494 P480 1.812 . S
C494 C495 1.389 . S
C494 C499 1.391 . S
C495 H481 0.941 . S
C495 C494 1.389 . S
C495 C496 1.397 . S
C496 H482 0.939 . S
C496 C495 1.397 . S
C496 C497 1.378 . S
C497 C496 1.378 . S
C497 C498 1.378 . S
C498 H483 0.940 . S
C498 C497 1.378 . S
C498 C499 1.396 . S
C499 H484 0.940 . S
C499 C494 1.391 . S
C499 C498 1.396 . S
C500 P480 1.803 . S
C500 C501 1.378 . S
C500 C505 1.400 . S
C501 H485 0.939 . S
C501 C500 1.378 . S
C501 C502 1.361 . S
C502 H486 0.942 . S
C502 C501 1.361 . S
C502 C503 1.369 . S
C503 C502 1.369 . S
C503 C504 1.404 . S
C504 H487 0.940 . S
C504 C503 1.404 . S
C504 C505 1.389 . S
C505 H488 0.939 . S
C505 C500 1.400 . S
C505 C504 1.389 . S
C506 P480 1.819 . S
C506 C507 1.391 . S
C506 C511 1.391 . S
C507 H489 0.941 . S
C507 C506 1.391 . S
C507 C508 1.396 . S
C508 H492 0.939 . S
C508 C507 1.396 . S
C508 C509 1.397 . S
C509 C508 1.397 . S
C509 C510 1.385 . S
C510 H493 0.940 . S
C510 C509 1.385 . S
C510 C511 1.388 . S
C511 H490 0.939 . S
C511 C506 1.391 . S
C511 C510 1.388 . S
P512 O523 1.490 . S
P512 C526 1.812 . S
P512 C532 1.803 . S
P512 C538 1.819 . S
H513 C527 0.941 . S
H514 C528 0.939 . S
H515 C530 0.940 . S
H516 C531 0.940 . S
H517 C533 0.939 . S
H518 C534 0.942 . S
H519 C536 0.940 . S
H520 C537 0.939 . S
H521 C539 0.941 . S
H522 C543 0.939 . S
O523 P512 1.490 . S
H524 C540 0.939 . S
H525 C542 0.940 . S
C526 P512 1.812 . S
C526 C527 1.389 . S
C526 C531 1.391 . S
C527 H513 0.941 . S
C527 C526 1.389 . S
C527 C528 1.397 . S
C528 H514 0.939 . S
C528 C527 1.397 . S
C528 C529 1.378 . S
C529 C528 1.378 . S
C529 C530 1.378 . S
C530 H515 0.940 . S
C530 C529 1.378 . S
C530 C531 1.396 . S
C531 H516 0.940 . S
C531 C526 1.391 . S
C531 C530 1.396 . S
C532 P512 1.803 . S
C532 C533 1.378 . S
C532 C537 1.400 . S
C533 H517 0.939 . S
C533 C532 1.378 . S
C533 C534 1.361 . S
C534 H518 0.942 . S
C534 C533 1.361 . S
C534 C535 1.369 . S
C535 C534 1.369 . S
C535 C536 1.404 . S
C536 H519 0.940 . S
C536 C535 1.404 . S
C536 C537 1.389 . S
C537 H520 0.939 . S
C537 C532 1.400 . S
C537 C536 1.389 . S
C538 P512 1.819 . S
C538 C539 1.391 . S
C538 C543 1.391 . S
C539 H521 0.941 . S
C539 C538 1.391 . S
C539 C540 1.396 . S
C540 H524 0.939 . S
C540 C539 1.396 . S
C540 C541 1.397 . S
C541 C540 1.397 . S
C541 C542 1.385 . S
C542 H525 0.940 . S
C542 C541 1.385 . S
C542 C543 1.388 . S
C543 H522 0.939 . S
C543 C538 1.391 . S
C543 C542 1.388 . S
P544 O555 1.490 . S
P544 C558 1.812 . S
P544 C564 1.803 . S
P544 C570 1.819 . S
H545 C559 0.941 . S
H546 C560 0.939 . S
H547 C562 0.940 . S
H548 C563 0.940 . S
H549 C565 0.939 . S
H550 C566 0.942 . S
H551 C568 0.940 . S
H552 C569 0.939 . S
H553 C571 0.941 . S
H554 C575 0.939 . S
O555 P544 1.490 . S
H556 C572 0.939 . S
H557 C574 0.940 . S
C558 P544 1.812 . S
C558 C559 1.389 . S
C558 C563 1.391 . S
C559 H545 0.941 . S
C559 C558 1.389 . S
C559 C560 1.397 . S
C560 H546 0.939 . S
C560 C559 1.397 . S
C560 C561 1.378 . S
C561 C560 1.378 . S
C561 C562 1.378 . S
C562 H547 0.940 . S
C562 C561 1.378 . S
C562 C563 1.396 . S
C563 H548 0.940 . S
C563 C558 1.391 . S
C563 C562 1.396 . S
C564 P544 1.803 . S
C564 C565 1.378 . S
C564 C569 1.400 . S
C565 H549 0.939 . S
C565 C564 1.378 . S
C565 C566 1.361 . S
C566 H550 0.942 . S
C566 C565 1.361 . S
C566 C567 1.369 . S
C567 C566 1.369 . S
C567 C568 1.404 . S
C568 H551 0.940 . S
C568 C567 1.404 . S
C568 C569 1.389 . S
C569 H552 0.939 . S
C569 C564 1.400 . S
C569 C568 1.389 . S
C570 P544 1.819 . S
C570 C571 1.391 . S
C570 C575 1.391 . S
C571 H553 0.941 . S
C571 C570 1.391 . S
C571 C572 1.396 . S
C572 H556 0.939 . S
C572 C571 1.396 . S
C572 C573 1.397 . S
C573 C572 1.397 . S
C573 C574 1.385 . S
C574 H557 0.940 . S
C574 C573 1.385 . S
C574 C575 1.388 . S
C575 H554 0.939 . S
C575 C570 1.391 . S
C575 C574 1.388 . S
Tb576 N607 2.660 . S
Tb576 N614 2.600 . S
Tb576 O620 2.546 . S
Tb576 O621 2.610 1_565 S
Tb576 O623 2.320 1_565 S
Tb576 O624 2.552 1_565 S
Tb576 O625 2.413 . S
Tb576 O627 2.362 1_556 S
Tb576 O628 2.421 . S
Tb576 C640 2.833 . S
C577 C580 1.432 . S
C577 C581 1.414 . S
C577 N584 1.359 . S
C578 C580 1.417 . S
C578 C582 1.432 . S
C578 C590 1.410 . S
C579 C581 1.444 . S
C579 C582 1.317 . S
C579 H602 0.929 . S
C580 C577 1.432 . S
C580 C578 1.417 . S
C580 N588 1.360 . S
C581 C577 1.414 . S
C581 C579 1.444 . S
C581 C586 1.385 . S
C582 C578 1.432 . S
C582 C579 1.317 . S
C582 H594 0.930 . S
C583 C585 1.392 . S
C583 C586 1.370 . S
C583 H595 0.931 . S
N584 C577 1.359 . S
N584 C585 1.327 . S
N584 Tb587 2.600 . S
C585 C583 1.392 . S
C585 N584 1.327 . S
C585 H592 0.930 . S
C586 C581 1.385 . S
C586 C583 1.370 . S
C586 H605 0.930 . S
Tb587 N584 2.600 . S
Tb587 N588 2.660 . S
Tb587 O621 2.362 1_554 S
Tb587 O622 2.421 . S
Tb587 O626 2.546 . S
Tb587 O627 2.610 1_545 S
Tb587 O629 2.320 1_545 S
Tb587 O630 2.552 1_545 S
Tb587 O631 2.413 . S
Tb587 C651 2.833 . S
N588 C580 1.360 . S
N588 Tb587 2.660 . S
N588 C589 1.305 . S
C589 N588 1.305 . S
C589 C591 1.407 . S
C589 H596 0.930 . S
C590 C578 1.410 . S
C590 C591 1.345 . S
C590 H598 0.930 . S
C591 C589 1.407 . S
C591 C590 1.345 . S
C591 H593 0.930 . S
H592 C585 0.930 . S
H593 C591 0.930 . S
H594 C582 0.930 . S
H595 C583 0.931 . S
H596 C589 0.930 . S
H597 C611 0.930 . S
H598 C590 0.930 . S
H599 C617 0.930 . S
H600 C608 0.930 . S
H601 C615 0.931 . S
H602 C579 0.929 . S
H603 C609 0.930 . S
H604 C642 0.930 . S
H605 C586 0.930 . S
H606 C641 0.929 . S
N607 Tb576 2.660 . S
N607 C608 1.305 . S
N607 C612 1.360 . S
C608 H600 0.930 . S
C608 N607 1.305 . S
C608 C611 1.407 . S
C609 H603 0.930 . S
C609 C610 1.410 . S
C609 C611 1.345 . S
C610 C609 1.410 . S
C610 C612 1.417 . S
C610 C642 1.432 . S
C611 H597 0.930 . S
C611 C608 1.407 . S
C611 C609 1.345 . S
C612 N607 1.360 . S
C612 C610 1.417 . S
C612 C616 1.432 . S
H613 C618 0.930 . S
N614 Tb576 2.600 . S
N614 C616 1.359 . S
N614 C617 1.327 . S
C615 H601 0.931 . S
C615 C617 1.392 . S
C615 C618 1.370 . S
C616 C612 1.432 . S
C616 N614 1.359 . S
C616 C619 1.414 . S
C617 H599 0.930 . S
C617 N614 1.327 . S
C617 C615 1.392 . S
C618 H613 0.930 . S
C618 C615 1.370 . S
C618 C619 1.385 . S
C619 C616 1.414 . S
C619 C618 1.385 . S
C619 C641 1.444 . S
O620 Tb576 2.546 . S
O620 C640 1.251 . S
O621 Tb576 2.610 1_545 S
O621 Tb587 2.362 1_556 S
O621 C632 1.283 . S
O622 Tb587 2.421 . S
O622 C639 1.262 1_554 S
O623 Tb576 2.320 1_545 S
O623 C639 1.260 . S
O624 Tb576 2.552 1_545 S
O624 C632 1.243 . S
O625 Tb576 2.413 . S
O625 C640 1.256 . S
O626 Tb587 2.546 . S
O626 C651 1.251 . S
O627 Tb576 2.362 1_554 S
O627 Tb587 2.610 1_565 S
O627 C643 1.283 . S
O628 Tb576 2.421 . S
O628 C650 1.262 1_556 S
O629 Tb587 2.320 1_565 S
O629 C650 1.260 . S
O630 Tb587 2.552 1_565 S
O630 C643 1.243 . S
O631 Tb587 2.413 . S
O631 C651 1.256 . S
C632 O621 1.283 . S
C632 O624 1.243 . S
C633 C635 1.382 1_565 S
C633 C637 1.393 . S
C633 C640 1.500 . S
C634 C635 1.400 . S
C634 C636 1.384 1_545 S
C635 C633 1.382 1_545 S
C635 C634 1.400 . S
C635 H652 0.930 . S
C636 C634 1.384 1_565 S
C636 C638 1.392 . S
C636 H653 0.931 . S
C637 C633 1.393 . S
C637 C638 1.401 . S
C637 H654 0.930 . S
C638 C636 1.392 . S
C638 C637 1.401 . S
C638 H655 0.930 . S
C639 O622 1.262 1_556 S
C639 O623 1.260 . S
C640 Tb576 2.833 . S
C640 O620 1.251 . S
C640 O625 1.256 . S
C640 C633 1.500 . S
C641 H606 0.929 . S
C641 C619 1.444 . S
C641 C642 1.317 . S
C642 H604 0.930 . S
C642 C610 1.432 . S
C642 C641 1.317 . S
C643 O627 1.283 . S
C643 O630 1.243 . S
C644 C645 1.382 1_545 S
C644 C648 1.393 . S
C644 C651 1.500 . S
C645 C644 1.382 1_565 S
C645 C646 1.400 . S
C645 H656 0.930 . S
C646 C645 1.400 . S
C646 C647 1.384 1_565 S
C647 C646 1.384 1_545 S
C647 C649 1.392 . S
C647 H657 0.931 . S
C648 C644 1.393 . S
C648 C649 1.401 . S
C648 H658 0.930 . S
C649 C647 1.392 . S
C649 C648 1.401 . S
C649 H659 0.930 . S
C650 O628 1.262 1_554 S
C650 O629 1.260 . S
C651 Tb587 2.833 . S
C651 O626 1.251 . S
C651 O631 1.256 . S
C651 C644 1.500 . S
H652 C635 0.930 . S
H653 C636 0.931 . S
H654 C637 0.930 . S
H655 C638 0.930 . S
H656 C645 0.930 . S
H657 C647 0.931 . S
H658 C648 0.930 . S
H659 C649 0.930 . S
Tb660 N691 2.660 . S
Tb660 N698 2.600 . S
Tb660 O704 2.546 . S
Tb660 O705 2.610 1_455 S
Tb660 O707 2.320 1_455 S
Tb660 O708 2.552 1_455 S
Tb660 O709 2.413 . S
Tb660 O711 2.362 1_556 S
Tb660 O712 2.421 . S
Tb660 C724 2.833 . S
C661 C664 1.432 . S
C661 C665 1.414 . S
C661 N668 1.359 . S
C662 C664 1.417 . S
C662 C666 1.432 . S
C662 C674 1.410 . S
C663 C665 1.444 . S
C663 C666 1.317 . S
C663 H686 0.929 . S
C664 C661 1.432 . S
C664 C662 1.417 . S
C664 N672 1.360 . S
C665 C661 1.414 . S
C665 C663 1.444 . S
C665 C670 1.385 . S
C666 C662 1.432 . S
C666 C663 1.317 . S
C666 H678 0.930 . S
C667 C669 1.392 . S
C667 C670 1.370 . S
C667 H679 0.931 . S
N668 C661 1.359 . S
N668 C669 1.327 . S
N668 Tb671 2.600 . S
C669 C667 1.392 . S
C669 N668 1.327 . S
C669 H676 0.930 . S
C670 C665 1.385 . S
C670 C667 1.370 . S
C670 H689 0.930 . S
Tb671 N668 2.600 . S
Tb671 N672 2.660 . S
Tb671 O705 2.362 1_554 S
Tb671 O706 2.421 . S
Tb671 O710 2.546 . S
Tb671 O711 2.610 1_655 S
Tb671 O713 2.320 1_655 S
Tb671 O714 2.552 1_655 S
Tb671 O715 2.413 . S
Tb671 C735 2.833 . S
N672 C664 1.360 . S
N672 Tb671 2.660 . S
N672 C673 1.305 . S
C673 N672 1.305 . S
C673 C675 1.407 . S
C673 H680 0.930 . S
C674 C662 1.410 . S
C674 C675 1.345 . S
C674 H682 0.930 . S
C675 C673 1.407 . S
C675 C674 1.345 . S
C675 H677 0.930 . S
H676 C669 0.930 . S
H677 C675 0.930 . S
H678 C666 0.930 . S
H679 C667 0.931 . S
H680 C673 0.930 . S
H681 C695 0.930 . S
H682 C674 0.930 . S
H683 C701 0.930 . S
H684 C692 0.930 . S
H685 C699 0.931 . S
H686 C663 0.929 . S
H687 C693 0.930 . S
H688 C726 0.930 . S
H689 C670 0.930 . S
H690 C725 0.929 . S
N691 Tb660 2.660 . S
N691 C692 1.305 . S
N691 C696 1.360 . S
C692 H684 0.930 . S
C692 N691 1.305 . S
C692 C695 1.407 . S
C693 H687 0.930 . S
C693 C694 1.410 . S
C693 C695 1.345 . S
C694 C693 1.410 . S
C694 C696 1.417 . S
C694 C726 1.432 . S
C695 H681 0.930 . S
C695 C692 1.407 . S
C695 C693 1.345 . S
C696 N691 1.360 . S
C696 C694 1.417 . S
C696 C700 1.432 . S
H697 C702 0.930 . S
N698 Tb660 2.600 . S
N698 C700 1.359 . S
N698 C701 1.327 . S
C699 H685 0.931 . S
C699 C701 1.392 . S
C699 C702 1.370 . S
C700 C696 1.432 . S
C700 N698 1.359 . S
C700 C703 1.414 . S
C701 H683 0.930 . S
C701 N698 1.327 . S
C701 C699 1.392 . S
C702 H697 0.930 . S
C702 C699 1.370 . S
C702 C703 1.385 . S
C703 C700 1.414 . S
C703 C702 1.385 . S
C703 C725 1.444 . S
O704 Tb660 2.546 . S
O704 C724 1.251 . S
O705 Tb660 2.610 1_655 S
O705 Tb671 2.362 1_556 S
O705 C716 1.283 . S
O706 Tb671 2.421 . S
O706 C723 1.262 1_554 S
O707 Tb660 2.320 1_655 S
O707 C723 1.260 . S
O708 Tb660 2.552 1_655 S
O708 C716 1.243 . S
O709 Tb660 2.413 . S
O709 C724 1.256 . S
O710 Tb671 2.546 . S
O710 C735 1.251 . S
O711 Tb660 2.362 1_554 S
O711 Tb671 2.610 1_455 S
O711 C727 1.283 . S
O712 Tb660 2.421 . S
O712 C734 1.262 1_556 S
O713 Tb671 2.320 1_455 S
O713 C734 1.260 . S
O714 Tb671 2.552 1_455 S
O714 C727 1.243 . S
O715 Tb671 2.413 . S
O715 C735 1.256 . S
C716 O705 1.283 . S
C716 O708 1.243 . S
C717 C719 1.382 1_455 S
C717 C721 1.393 . S
C717 C724 1.500 . S
C718 C719 1.400 . S
C718 C720 1.384 1_655 S
C719 C717 1.382 1_655 S
C719 C718 1.400 . S
C719 H736 0.930 . S
C720 C718 1.384 1_455 S
C720 C722 1.392 . S
C720 H737 0.931 . S
C721 C717 1.393 . S
C721 C722 1.401 . S
C721 H738 0.930 . S
C722 C720 1.392 . S
C722 C721 1.401 . S
C722 H739 0.930 . S
C723 O706 1.262 1_556 S
C723 O707 1.260 . S
C724 Tb660 2.833 . S
C724 O704 1.251 . S
C724 O709 1.256 . S
C724 C717 1.500 . S
C725 H690 0.929 . S
C725 C703 1.444 . S
C725 C726 1.317 . S
C726 H688 0.930 . S
C726 C694 1.432 . S
C726 C725 1.317 . S
C727 O711 1.283 . S
C727 O714 1.243 . S
C728 C729 1.382 1_655 S
C728 C732 1.393 . S
C728 C735 1.500 . S
C729 C728 1.382 1_455 S
C729 C730 1.400 . S
C729 H740 0.930 . S
C730 C729 1.400 . S
C730 C731 1.384 1_455 S
C731 C730 1.384 1_655 S
C731 C733 1.392 . S
C731 H741 0.931 . S
C732 C728 1.393 . S
C732 C733 1.401 . S
C732 H742 0.930 . S
C733 C731 1.392 . S
C733 C732 1.401 . S
C733 H743 0.930 . S
C734 O712 1.262 1_554 S
C734 O713 1.260 . S
C735 Tb671 2.833 . S
C735 O710 1.251 . S
C735 O715 1.256 . S
C735 C728 1.500 . S
H736 C719 0.930 . S
H737 C720 0.931 . S
H738 C721 0.930 . S
H739 C722 0.930 . S
H740 C729 0.930 . S
H741 C731 0.931 . S
H742 C732 0.930 . S
H743 C733 0.930 . S
Tb744 N775 2.660 . S
Tb744 N782 2.600 . S
Tb744 O788 2.546 . S
Tb744 O789 2.610 . S
Tb744 O791 2.320 . S
Tb744 O792 2.552 . S
Tb744 O793 2.413 . S
Tb744 O795 2.362 1_554 S
Tb744 O796 2.421 . S
Tb744 C808 2.833 . S
C745 C748 1.432 . S
C745 C749 1.414 . S
C745 N752 1.359 . S
C746 C748 1.417 . S
C746 C750 1.432 . S
C746 C758 1.410 . S
C747 C749 1.444 . S
C747 C750 1.317 . S
C747 H770 0.929 . S
C748 C745 1.432 . S
C748 C746 1.417 . S
C748 N756 1.360 . S
C749 C745 1.414 . S
C749 C747 1.444 . S
C749 C754 1.385 . S
C750 C746 1.432 . S
C750 C747 1.317 . S
C750 H762 0.930 . S
C751 C753 1.392 . S
C751 C754 1.370 . S
C751 H763 0.931 . S
N752 C745 1.359 . S
N752 C753 1.327 . S
N752 Tb755 2.600 . S
C753 C751 1.392 . S
C753 N752 1.327 . S
C753 H760 0.930 . S
C754 C749 1.385 . S
C754 C751 1.370 . S
C754 H773 0.930 . S
Tb755 N752 2.600 . S
Tb755 N756 2.660 . S
Tb755 O789 2.362 1_556 S
Tb755 O790 2.421 . S
Tb755 O794 2.546 . S
Tb755 O795 2.610 . S
Tb755 O797 2.320 . S
Tb755 O798 2.552 . S
Tb755 O799 2.413 . S
Tb755 C819 2.833 . S
N756 C748 1.360 . S
N756 Tb755 2.660 . S
N756 C757 1.305 . S
C757 N756 1.305 . S
C757 C759 1.407 . S
C757 H764 0.930 . S
C758 C746 1.410 . S
C758 C759 1.345 . S
C758 H766 0.930 . S
C759 C757 1.407 . S
C759 C758 1.345 . S
C759 H761 0.930 . S
H760 C753 0.930 . S
H761 C759 0.930 . S
H762 C750 0.930 . S
H763 C751 0.931 . S
H764 C757 0.930 . S
H765 C779 0.930 . S
H766 C758 0.930 . S
H767 C785 0.930 . S
H768 C776 0.930 . S
H769 C783 0.931 . S
H770 C747 0.929 . S
H771 C777 0.930 . S
H772 C810 0.930 . S
H773 C754 0.930 . S
H774 C809 0.929 . S
N775 Tb744 2.660 . S
N775 C776 1.305 . S
N775 C780 1.360 . S
C776 H768 0.930 . S
C776 N775 1.305 . S
C776 C779 1.407 . S
C777 H771 0.930 . S
C777 C778 1.410 . S
C777 C779 1.345 . S
C778 C777 1.410 . S
C778 C780 1.417 . S
C778 C810 1.432 . S
C779 H765 0.930 . S
C779 C776 1.407 . S
C779 C777 1.345 . S
C780 N775 1.360 . S
C780 C778 1.417 . S
C780 C784 1.432 . S
H781 C786 0.930 . S
N782 Tb744 2.600 . S
N782 C784 1.359 . S
N782 C785 1.327 . S
C783 H769 0.931 . S
C783 C785 1.392 . S
C783 C786 1.370 . S
C784 C780 1.432 . S
C784 N782 1.359 . S
C784 C787 1.414 . S
C785 H767 0.930 . S
C785 N782 1.327 . S
C785 C783 1.392 . S
C786 H781 0.930 . S
C786 C783 1.370 . S
C786 C787 1.385 . S
C787 C784 1.414 . S
C787 C786 1.385 . S
C787 C809 1.444 . S
O788 Tb744 2.546 . S
O788 C808 1.251 . S
O789 Tb744 2.610 . S
O789 Tb755 2.362 1_554 S
O789 C800 1.283 . S
O790 Tb755 2.421 . S
O790 C807 1.262 1_556 S
O791 Tb744 2.320 . S
O791 C807 1.260 . S
O792 Tb744 2.552 . S
O792 C800 1.243 . S
O793 Tb744 2.413 . S
O793 C808 1.256 . S
O794 Tb755 2.546 . S
O794 C819 1.251 . S
O795 Tb744 2.362 1_556 S
O795 Tb755 2.610 . S
O795 C811 1.283 . S
O796 Tb744 2.421 . S
O796 C818 1.262 1_554 S
O797 Tb755 2.320 . S
O797 C818 1.260 . S
O798 Tb755 2.552 . S
O798 C811 1.243 . S
O799 Tb755 2.413 . S
O799 C819 1.256 . S
C800 O789 1.283 . S
C800 O792 1.243 . S
C801 C803 1.382 . S
C801 C805 1.393 . S
C801 C808 1.500 . S
C802 C803 1.400 . S
C802 C804 1.384 . S
C803 C801 1.382 . S
C803 C802 1.400 . S
C803 H820 0.930 . S
C804 C802 1.384 . S
C804 C806 1.392 . S
C804 H821 0.931 . S
C805 C801 1.393 . S
C805 C806 1.401 . S
C805 H822 0.930 . S
C806 C804 1.392 . S
C806 C805 1.401 . S
C806 H823 0.930 . S
C807 O790 1.262 1_554 S
C807 O791 1.260 . S
C808 Tb744 2.833 . S
C808 O788 1.251 . S
C808 O793 1.256 . S
C808 C801 1.500 . S
C809 H774 0.929 . S
C809 C787 1.444 . S
C809 C810 1.317 . S
C810 H772 0.930 . S
C810 C778 1.432 . S
C810 C809 1.317 . S
C811 O795 1.283 . S
C811 O798 1.243 . S
C812 C813 1.382 . S
C812 C816 1.393 . S
C812 C819 1.500 . S
C813 C812 1.382 . S
C813 C814 1.400 . S
C813 H824 0.930 . S
C814 C813 1.400 . S
C814 C815 1.384 . S
C815 C814 1.384 . S
C815 C817 1.392 . S
C815 H825 0.931 . S
C816 C812 1.393 . S
C816 C817 1.401 . S
C816 H826 0.930 . S
C817 C815 1.392 . S
C817 C816 1.401 . S
C817 H827 0.930 . S
C818 O796 1.262 1_556 S
C818 O797 1.260 . S
C819 Tb755 2.833 . S
C819 O794 1.251 . S
C819 O799 1.256 . S
C819 C812 1.500 . S
H820 C803 0.930 . S
H821 C804 0.931 . S
H822 C805 0.930 . S
H823 C806 0.930 . S
H824 C813 0.930 . S
H825 C815 0.931 . S
H826 C816 0.930 . S
H827 C817 0.930 . S
Tb828 N859 2.660 . S
Tb828 N866 2.600 . S
Tb828 O872 2.546 . S
Tb828 O873 2.610 . S
Tb828 O875 2.320 . S
Tb828 O876 2.552 . S
Tb828 O877 2.413 . S
Tb828 O879 2.362 . S
Tb828 O880 2.421 . S
Tb828 C892 2.833 . S
C829 C832 1.432 . S
C829 C833 1.414 . S
C829 N836 1.359 . S
C830 C832 1.417 . S
C830 C834 1.432 . S
C830 C842 1.410 . S
C831 C833 1.444 . S
C831 C834 1.317 . S
C831 H854 0.929 . S
C832 C829 1.432 . S
C832 C830 1.417 . S
C832 N840 1.360 . S
C833 C829 1.414 . S
C833 C831 1.444 . S
C833 C838 1.385 . S
C834 C830 1.432 . S
C834 C831 1.317 . S
C834 H846 0.930 . S
C835 C837 1.392 . S
C835 C838 1.370 . S
C835 H847 0.931 . S
N836 C829 1.359 . S
N836 C837 1.327 . S
N836 Tb839 2.600 . S
C837 C835 1.392 . S
C837 N836 1.327 . S
C837 H844 0.930 . S
C838 C833 1.385 . S
C838 C835 1.370 . S
C838 H857 0.930 . S
Tb839 N836 2.600 . S
Tb839 N840 2.660 . S
Tb839 O873 2.362 . S
Tb839 O874 2.421 . S
Tb839 O878 2.546 . S
Tb839 O879 2.610 . S
Tb839 O881 2.320 . S
Tb839 O882 2.552 . S
Tb839 O883 2.413 . S
Tb839 C903 2.833 . S
N840 C832 1.360 . S
N840 Tb839 2.660 . S
N840 C841 1.305 . S
C841 N840 1.305 . S
C841 C843 1.407 . S
C841 H848 0.930 . S
C842 C830 1.410 . S
C842 C843 1.345 . S
C842 H850 0.930 . S
C843 C841 1.407 . S
C843 C842 1.345 . S
C843 H845 0.930 . S
H844 C837 0.930 . S
H845 C843 0.930 . S
H846 C834 0.930 . S
H847 C835 0.931 . S
H848 C841 0.930 . S
H849 C863 0.930 . S
H850 C842 0.930 . S
H851 C869 0.930 . S
H852 C860 0.930 . S
H853 C867 0.931 . S
H854 C831 0.929 . S
H855 C861 0.930 1_655 S
H856 C894 0.930 1_655 S
H857 C838 0.930 . S
H858 C893 0.929 . S
N859 Tb828 2.660 . S
N859 C860 1.305 . S
N859 C864 1.360 . S
C860 H852 0.930 . S
C860 N859 1.305 . S
C860 C863 1.407 . S
C861 H855 0.930 1_455 S
C861 C862 1.410 . S
C861 C863 1.345 . S
C862 C861 1.410 . S
C862 C864 1.417 . S
C862 C894 1.432 . S
C863 H849 0.930 . S
C863 C860 1.407 . S
C863 C861 1.345 . S
C864 N859 1.360 . S
C864 C862 1.417 . S
C864 C868 1.432 . S
H865 C870 0.930 . S
N866 Tb828 2.600 . S
N866 C868 1.359 . S
N866 C869 1.327 . S
C867 H853 0.931 . S
C867 C869 1.392 . S
C867 C870 1.370 . S
C868 C864 1.432 . S
C868 N866 1.359 . S
C868 C871 1.414 . S
C869 H851 0.930 . S
C869 N866 1.327 . S
C869 C867 1.392 . S
C870 H865 0.930 . S
C870 C867 1.370 . S
C870 C871 1.385 . S
C871 C868 1.414 . S
C871 C870 1.385 . S
C871 C893 1.444 . S
O872 Tb828 2.546 . S
O872 C892 1.251 . S
O873 Tb828 2.610 . S
O873 Tb839 2.362 . S
O873 C884 1.283 . S
O874 Tb839 2.421 . S
O874 C891 1.262 . S
O875 Tb828 2.320 . S
O875 C891 1.260 . S
O876 Tb828 2.552 . S
O876 C884 1.243 . S
O877 Tb828 2.413 . S
O877 C892 1.256 . S
O878 Tb839 2.546 . S
O878 C903 1.251 . S
O879 Tb828 2.362 . S
O879 Tb839 2.610 . S
O879 C895 1.283 . S
O880 Tb828 2.421 . S
O880 C902 1.262 . S
O881 Tb839 2.320 . S
O881 C902 1.260 . S
O882 Tb839 2.552 . S
O882 C895 1.243 . S
O883 Tb839 2.413 . S
O883 C903 1.256 . S
C884 O873 1.283 . S
C884 O876 1.243 . S
C885 C887 1.382 . S
C885 C889 1.393 . S
C885 C892 1.500 . S
C886 C887 1.400 . S
C886 C888 1.384 . S
C887 C885 1.382 . S
C887 C886 1.400 . S
C887 H904 0.930 . S
C888 C886 1.384 . S
C888 C890 1.392 . S
C888 H905 0.931 . S
C889 C885 1.393 . S
C889 C890 1.401 . S
C889 H906 0.930 . S
C890 C888 1.392 . S
C890 C889 1.401 . S
C890 H907 0.930 . S
C891 O874 1.262 . S
C891 O875 1.260 . S
C892 Tb828 2.833 . S
C892 O872 1.251 . S
C892 O877 1.256 . S
C892 C885 1.500 . S
C893 H858 0.929 . S
C893 C871 1.444 . S
C893 C894 1.317 . S
C894 H856 0.930 1_455 S
C894 C862 1.432 . S
C894 C893 1.317 . S
C895 O879 1.283 . S
C895 O882 1.243 . S
C896 C897 1.382 . S
C896 C900 1.393 . S
C896 C903 1.500 . S
C897 C896 1.382 . S
C897 C898 1.400 . S
C897 H908 0.930 . S
C898 C897 1.400 . S
C898 C899 1.384 . S
C899 C898 1.384 . S
C899 C901 1.392 . S
C899 H909 0.931 . S
C900 C896 1.393 . S
C900 C901 1.401 . S
C900 H910 0.930 . S
C901 C899 1.392 . S
C901 C900 1.401 . S
C901 H911 0.930 . S
C902 O880 1.262 . S
C902 O881 1.260 . S
C903 Tb839 2.833 . S
C903 O878 1.251 . S
C903 O883 1.256 . S
C903 C896 1.500 . S
H904 C887 0.930 . S
H905 C888 0.931 . S
H906 C889 0.930 . S
H907 C890 0.930 . S
H908 C897 0.930 . S
H909 C899 0.931 . S
H910 C900 0.930 . S
H911 C901 0.930 . S
Tb912 N943 2.660 . S
Tb912 N950 2.600 . S
Tb912 O956 2.546 . S
Tb912 O957 2.610 . S
Tb912 O959 2.320 . S
Tb912 O960 2.552 . S
Tb912 O961 2.413 . S
Tb912 O963 2.362 . S
Tb912 O964 2.421 . S
Tb912 C976 2.833 . S
C913 C916 1.432 . S
C913 C917 1.414 . S
C913 N920 1.359 . S
C914 C916 1.417 . S
C914 C918 1.432 . S
C914 C926 1.410 . S
C915 C917 1.444 . S
C915 C918 1.317 . S
C915 H938 0.929 . S
C916 C913 1.432 . S
C916 C914 1.417 . S
C916 N924 1.360 . S
C917 C913 1.414 . S
C917 C915 1.444 . S
C917 C922 1.385 . S
C918 C914 1.432 . S
C918 C915 1.317 . S
C918 H930 0.930 . S
C919 C921 1.392 . S
C919 C922 1.370 . S
C919 H931 0.931 . S
N920 C913 1.359 . S
N920 C921 1.327 . S
N920 Tb923 2.600 . S
C921 C919 1.392 . S
C921 N920 1.327 . S
C921 H928 0.930 . S
C922 C917 1.385 . S
C922 C919 1.370 . S
C922 H941 0.930 . S
Tb923 N920 2.600 . S
Tb923 N924 2.660 . S
Tb923 O957 2.362 . S
Tb923 O958 2.421 . S
Tb923 O962 2.546 . S
Tb923 O963 2.610 . S
Tb923 O965 2.320 . S
Tb923 O966 2.552 . S
Tb923 O967 2.413 . S
Tb923 C987 2.833 . S
N924 C916 1.360 . S
N924 Tb923 2.660 . S
N924 C925 1.305 . S
C925 N924 1.305 . S
C925 C927 1.407 . S
C925 H932 0.930 . S
C926 C914 1.410 . S
C926 C927 1.345 . S
C926 H934 0.930 . S
C927 C925 1.407 . S
C927 C926 1.345 . S
C927 H929 0.930 . S
H928 C921 0.930 . S
H929 C927 0.930 . S
H930 C918 0.930 . S
H931 C919 0.931 . S
H932 C925 0.930 . S
H933 C947 0.930 . S
H934 C926 0.930 . S
H935 C953 0.930 . S
H936 C944 0.930 . S
H937 C951 0.931 . S
H938 C915 0.929 . S
H939 C945 0.930 . S
H940 C978 0.930 . S
H941 C922 0.930 . S
H942 C977 0.929 . S
N943 Tb912 2.660 . S
N943 C944 1.305 . S
N943 C948 1.360 . S
C944 H936 0.930 . S
C944 N943 1.305 . S
C944 C947 1.407 . S
C945 H939 0.930 . S
C945 C946 1.410 . S
C945 C947 1.345 . S
C946 C945 1.410 . S
C946 C948 1.417 . S
C946 C978 1.432 . S
C947 H933 0.930 . S
C947 C944 1.407 . S
C947 C945 1.345 . S
C948 N943 1.360 . S
C948 C946 1.417 . S
C948 C952 1.432 . S
H949 C954 0.930 . S
N950 Tb912 2.600 . S
N950 C952 1.359 . S
N950 C953 1.327 . S
C951 H937 0.931 . S
C951 C953 1.392 . S
C951 C954 1.370 . S
C952 C948 1.432 . S
C952 N950 1.359 . S
C952 C955 1.414 . S
C953 H935 0.930 . S
C953 N950 1.327 . S
C953 C951 1.392 . S
C954 H949 0.930 . S
C954 C951 1.370 . S
C954 C955 1.385 . S
C955 C952 1.414 . S
C955 C954 1.385 . S
C955 C977 1.444 . S
O956 Tb912 2.546 . S
O956 C976 1.251 . S
O957 Tb912 2.610 . S
O957 Tb923 2.362 . S
O957 C968 1.283 . S
O958 Tb923 2.421 . S
O958 C975 1.262 . S
O959 Tb912 2.320 . S
O959 C975 1.260 . S
O960 Tb912 2.552 . S
O960 C968 1.243 . S
O961 Tb912 2.413 . S
O961 C976 1.256 . S
O962 Tb923 2.546 . S
O962 C987 1.251 . S
O963 Tb912 2.362 . S
O963 Tb923 2.610 . S
O963 C979 1.283 . S
O964 Tb912 2.421 . S
O964 C986 1.262 . S
O965 Tb923 2.320 . S
O965 C986 1.260 . S
O966 Tb923 2.552 . S
O966 C979 1.243 . S
O967 Tb923 2.413 . S
O967 C987 1.256 . S
C968 O957 1.283 . S
C968 O960 1.243 . S
C969 C971 1.382 . S
C969 C973 1.393 . S
C969 C976 1.500 . S
C970 C971 1.400 . S
C970 C972 1.384 . S
C971 C969 1.382 . S
C971 C970 1.400 . S
C971 H988 0.930 . S
C972 C970 1.384 . S
C972 C974 1.392 . S
C972 H989 0.931 . S
C973 C969 1.393 . S
C973 C974 1.401 . S
C973 H990 0.930 . S
C974 C972 1.392 . S
C974 C973 1.401 . S
C974 H991 0.930 . S
C975 O958 1.262 . S
C975 O959 1.260 . S
C976 Tb912 2.833 . S
C976 O956 1.251 . S
C976 O961 1.256 . S
C976 C969 1.500 . S
C977 H942 0.929 . S
C977 C955 1.444 . S
C977 C978 1.317 . S
C978 H940 0.930 . S
C978 C946 1.432 . S
C978 C977 1.317 . S
C979 O963 1.283 . S
C979 O966 1.243 . S
C980 C981 1.382 . S
C980 C984 1.393 . S
C980 C987 1.500 . S
C981 C980 1.382 . S
C981 C982 1.400 . S
C981 H992 0.930 . S
C982 C981 1.400 . S
C982 C983 1.384 . S
C983 C982 1.384 . S
C983 C985 1.392 . S
C983 H993 0.931 . S
C984 C980 1.393 . S
C984 C985 1.401 . S
C984 H994 0.930 . S
C985 C983 1.392 . S
C985 C984 1.401 . S
C985 H995 0.930 . S
C986 O964 1.262 . S
C986 O965 1.260 . S
C987 Tb923 2.833 . S
C987 O962 1.251 . S
C987 O967 1.256 . S
C987 C980 1.500 . S
H988 C971 0.930 . S
H989 C972 0.931 . S
H990 C973 0.930 . S
H991 C974 0.930 . S
H992 C981 0.930 . S
H993 C983 0.931 . S
H994 C984 0.930 . S
H995 C985 0.930 . S
Tb996 N1027 2.660 . S
Tb996 N1034 2.600 . S
Tb996 O1040 2.546 . S
Tb996 O1041 2.610 . S
Tb996 O1043 2.320 . S
Tb996 O1044 2.552 . S
Tb996 O1045 2.413 . S
Tb996 O1047 2.362 . S
Tb996 O1048 2.421 . S
Tb996 C1060 2.833 . S
C997 C1000 1.432 . S
C997 C1001 1.414 . S
C997 N1004 1.359 . S
C998 C1000 1.417 . S
C998 C1002 1.432 . S
C998 C1010 1.410 . S
C999 C1001 1.444 . S
C999 C1002 1.317 . S
C999 H1022 0.929 . S
C1000 C997 1.432 . S
C1000 C998 1.417 . S
C1000 N1008 1.360 . S
C1001 C997 1.414 . S
C1001 C999 1.444 . S
C1001 C1006 1.385 . S
C1002 C998 1.432 . S
C1002 C999 1.317 . S
C1002 H1014 0.930 1_455 S
C1003 C1005 1.392 . S
C1003 C1006 1.370 . S
C1003 H1015 0.931 . S
N1004 C997 1.359 . S
N1004 C1005 1.327 . S
N1004 Tb1007 2.600 . S
C1005 C1003 1.392 . S
C1005 N1004 1.327 . S
C1005 H1012 0.930 . S
C1006 C1001 1.385 . S
C1006 C1003 1.370 . S
C1006 H1025 0.930 . S
Tb1007 N1004 2.600 . S
Tb1007 N1008 2.660 . S
Tb1007 O1041 2.362 . S
Tb1007 O1042 2.421 . S
Tb1007 O1046 2.546 . S
Tb1007 O1047 2.610 . S
Tb1007 O1049 2.320 . S
Tb1007 O1050 2.552 . S
Tb1007 O1051 2.413 . S
Tb1007 C1071 2.833 . S
N1008 C1000 1.360 . S
N1008 Tb1007 2.660 . S
N1008 C1009 1.305 . S
C1009 N1008 1.305 . S
C1009 C1011 1.407 . S
C1009 H1016 0.930 . S
C1010 C998 1.410 . S
C1010 C1011 1.345 . S
C1010 H1018 0.930 1_455 S
C1011 C1009 1.407 . S
C1011 C1010 1.345 . S
C1011 H1013 0.930 . S
H1012 C1005 0.930 . S
H1013 C1011 0.930 . S
H1014 C1002 0.930 1_655 S
H1015 C1003 0.931 . S
H1016 C1009 0.930 . S
H1017 C1031 0.930 . S
H1018 C1010 0.930 1_655 S
H1019 C1037 0.930 . S
H1020 C1028 0.930 . S
H1021 C1035 0.931 . S
H1022 C999 0.929 . S
H1023 C1029 0.930 . S
H1024 C1062 0.930 . S
H1025 C1006 0.930 . S
H1026 C1061 0.929 . S
N1027 Tb996 2.660 . S
N1027 C1028 1.305 . S
N1027 C1032 1.360 . S
C1028 H1020 0.930 . S
C1028 N1027 1.305 . S
C1028 C1031 1.407 . S
C1029 H1023 0.930 . S
C1029 C1030 1.410 . S
C1029 C1031 1.345 . S
C1030 C1029 1.410 . S
C1030 C1032 1.417 . S
C1030 C1062 1.432 . S
C1031 H1017 0.930 . S
C1031 C1028 1.407 . S
C1031 C1029 1.345 . S
C1032 N1027 1.360 . S
C1032 C1030 1.417 . S
C1032 C1036 1.432 . S
H1033 C1038 0.930 . S
N1034 Tb996 2.600 . S
N1034 C1036 1.359 . S
N1034 C1037 1.327 . S
C1035 H1021 0.931 . S
C1035 C1037 1.392 . S
C1035 C1038 1.370 . S
C1036 C1032 1.432 . S
C1036 N1034 1.359 . S
C1036 C1039 1.414 . S
C1037 H1019 0.930 . S
C1037 N1034 1.327 . S
C1037 C1035 1.392 . S
C1038 H1033 0.930 . S
C1038 C1035 1.370 . S
C1038 C1039 1.385 . S
C1039 C1036 1.414 . S
C1039 C1038 1.385 . S
C1039 C1061 1.444 . S
O1040 Tb996 2.546 . S
O1040 C1060 1.251 . S
O1041 Tb996 2.610 . S
O1041 Tb1007 2.362 . S
O1041 C1052 1.283 . S
O1042 Tb1007 2.421 . S
O1042 C1059 1.262 . S
O1043 Tb996 2.320 . S
O1043 C1059 1.260 . S
O1044 Tb996 2.552 . S
O1044 C1052 1.243 . S
O1045 Tb996 2.413 . S
O1045 C1060 1.256 . S
O1046 Tb1007 2.546 . S
O1046 C1071 1.251 . S
O1047 Tb996 2.362 . S
O1047 Tb1007 2.610 . S
O1047 C1063 1.283 . S
O1048 Tb996 2.421 . S
O1048 C1070 1.262 . S
O1049 Tb1007 2.320 . S
O1049 C1070 1.260 . S
O1050 Tb1007 2.552 . S
O1050 C1063 1.243 . S
O1051 Tb1007 2.413 . S
O1051 C1071 1.256 . S
C1052 O1041 1.283 . S
C1052 O1044 1.243 . S
C1053 C1055 1.382 . S
C1053 C1057 1.393 . S
C1053 C1060 1.500 . S
C1054 C1055 1.400 . S
C1054 C1056 1.384 . S
C1055 C1053 1.382 . S
C1055 C1054 1.400 . S
C1055 H1072 0.930 . S
C1056 C1054 1.384 . S
C1056 C1058 1.392 . S
C1056 H1073 0.931 . S
C1057 C1053 1.393 . S
C1057 C1058 1.401 . S
C1057 H1074 0.930 . S
C1058 C1056 1.392 . S
C1058 C1057 1.401 . S
C1058 H1075 0.930 . S
C1059 O1042 1.262 . S
C1059 O1043 1.260 . S
C1060 Tb996 2.833 . S
C1060 O1040 1.251 . S
C1060 O1045 1.256 . S
C1060 C1053 1.500 . S
C1061 H1026 0.929 . S
C1061 C1039 1.444 . S
C1061 C1062 1.317 . S
C1062 H1024 0.930 . S
C1062 C1030 1.432 . S
C1062 C1061 1.317 . S
C1063 O1047 1.283 . S
C1063 O1050 1.243 . S
C1064 C1065 1.382 . S
C1064 C1068 1.393 . S
C1064 C1071 1.500 . S
C1065 C1064 1.382 . S
C1065 C1066 1.400 . S
C1065 H1076 0.930 . S
C1066 C1065 1.400 . S
C1066 C1067 1.384 . S
C1067 C1066 1.384 . S
C1067 C1069 1.392 . S
C1067 H1077 0.931 . S
C1068 C1064 1.393 . S
C1068 C1069 1.401 . S
C1068 H1078 0.930 . S
C1069 C1067 1.392 . S
C1069 C1068 1.401 . S
C1069 H1079 0.930 . S
C1070 O1048 1.262 . S
C1070 O1049 1.260 . S
C1071 Tb1007 2.833 . S
C1071 O1046 1.251 . S
C1071 O1051 1.256 . S
C1071 C1064 1.500 . S
H1072 C1055 0.930 . S
H1073 C1056 0.931 . S
H1074 C1057 0.930 . S
H1075 C1058 0.930 . S
H1076 C1065 0.930 . S
H1077 C1067 0.931 . S
H1078 C1068 0.930 . S
H1079 C1069 0.930 . S
Tb1080 N1111 2.660 . S
Tb1080 N1118 2.600 . S
Tb1080 O1124 2.546 . S
Tb1080 O1125 2.610 . S
Tb1080 O1127 2.320 . S
Tb1080 O1128 2.552 . S
Tb1080 O1129 2.413 . S
Tb1080 O1131 2.362 . S
Tb1080 O1132 2.421 . S
Tb1080 C1144 2.833 . S
C1081 C1084 1.432 . S
C1081 C1085 1.414 . S
C1081 N1088 1.359 . S
C1082 C1084 1.417 . S
C1082 C1086 1.432 . S
C1082 C1094 1.410 . S
C1083 C1085 1.444 . S
C1083 C1086 1.317 . S
C1083 H1106 0.929 . S
C1084 C1081 1.432 . S
C1084 C1082 1.417 . S
C1084 N1092 1.360 . S
C1085 C1081 1.414 . S
C1085 C1083 1.444 . S
C1085 C1090 1.385 . S
C1086 C1082 1.432 . S
C1086 C1083 1.317 . S
C1086 H1098 0.930 1_655 S
C1087 C1089 1.392 . S
C1087 C1090 1.370 . S
C1087 H1099 0.931 . S
N1088 C1081 1.359 . S
N1088 C1089 1.327 . S
N1088 Tb1091 2.600 . S
C1089 C1087 1.392 . S
C1089 N1088 1.327 . S
C1089 H1096 0.930 . S
C1090 C1085 1.385 . S
C1090 C1087 1.370 . S
C1090 H1109 0.930 . S
Tb1091 N1088 2.600 . S
Tb1091 N1092 2.660 . S
Tb1091 O1125 2.362 . S
Tb1091 O1126 2.421 . S
Tb1091 O1130 2.546 . S
Tb1091 O1131 2.610 . S
Tb1091 O1133 2.320 . S
Tb1091 O1134 2.552 . S
Tb1091 O1135 2.413 . S
Tb1091 C1155 2.833 . S
N1092 C1084 1.360 . S
N1092 Tb1091 2.660 . S
N1092 C1093 1.305 . S
C1093 N1092 1.305 . S
C1093 C1095 1.407 . S
C1093 H1100 0.930 . S
C1094 C1082 1.410 . S
C1094 C1095 1.345 . S
C1094 H1102 0.930 1_655 S
C1095 C1093 1.407 . S
C1095 C1094 1.345 . S
C1095 H1097 0.930 . S
H1096 C1089 0.930 . S
H1097 C1095 0.930 . S
H1098 C1086 0.930 1_455 S
H1099 C1087 0.931 . S
H1100 C1093 0.930 . S
H1101 C1115 0.930 . S
H1102 C1094 0.930 1_455 S
H1103 C1121 0.930 . S
H1104 C1112 0.930 . S
H1105 C1119 0.931 . S
H1106 C1083 0.929 . S
H1107 C1113 0.930 . S
H1108 C1146 0.930 . S
H1109 C1090 0.930 . S
H1110 C1145 0.929 . S
N1111 Tb1080 2.660 . S
N1111 C1112 1.305 . S
N1111 C1116 1.360 . S
C1112 H1104 0.930 . S
C1112 N1111 1.305 . S
C1112 C1115 1.407 . S
C1113 H1107 0.930 . S
C1113 C1114 1.410 . S
C1113 C1115 1.345 . S
C1114 C1113 1.410 . S
C1114 C1116 1.417 . S
C1114 C1146 1.432 . S
C1115 H1101 0.930 . S
C1115 C1112 1.407 . S
C1115 C1113 1.345 . S
C1116 N1111 1.360 . S
C1116 C1114 1.417 . S
C1116 C1120 1.432 . S
H1117 C1122 0.930 . S
N1118 Tb1080 2.600 . S
N1118 C1120 1.359 . S
N1118 C1121 1.327 . S
C1119 H1105 0.931 . S
C1119 C1121 1.392 . S
C1119 C1122 1.370 . S
C1120 C1116 1.432 . S
C1120 N1118 1.359 . S
C1120 C1123 1.414 . S
C1121 H1103 0.930 . S
C1121 N1118 1.327 . S
C1121 C1119 1.392 . S
C1122 H1117 0.930 . S
C1122 C1119 1.370 . S
C1122 C1123 1.385 . S
C1123 C1120 1.414 . S
C1123 C1122 1.385 . S
C1123 C1145 1.444 . S
O1124 Tb1080 2.546 . S
O1124 C1144 1.251 . S
O1125 Tb1080 2.610 . S
O1125 Tb1091 2.362 . S
O1125 C1136 1.283 . S
O1126 Tb1091 2.421 . S
O1126 C1143 1.262 . S
O1127 Tb1080 2.320 . S
O1127 C1143 1.260 . S
O1128 Tb1080 2.552 . S
O1128 C1136 1.243 . S
O1129 Tb1080 2.413 . S
O1129 C1144 1.256 . S
O1130 Tb1091 2.546 . S
O1130 C1155 1.251 . S
O1131 Tb1080 2.362 . S
O1131 Tb1091 2.610 . S
O1131 C1147 1.283 . S
O1132 Tb1080 2.421 . S
O1132 C1154 1.262 . S
O1133 Tb1091 2.320 . S
O1133 C1154 1.260 . S
O1134 Tb1091 2.552 . S
O1134 C1147 1.243 . S
O1135 Tb1091 2.413 . S
O1135 C1155 1.256 . S
C1136 O1125 1.283 . S
C1136 O1128 1.243 . S
C1137 C1139 1.382 . S
C1137 C1141 1.393 . S
C1137 C1144 1.500 . S
C1138 C1139 1.400 . S
C1138 C1140 1.384 . S
C1139 C1137 1.382 . S
C1139 C1138 1.400 . S
C1139 H1156 0.930 . S
C1140 C1138 1.384 . S
C1140 C1142 1.392 . S
C1140 H1157 0.931 . S
C1141 C1137 1.393 . S
C1141 C1142 1.401 . S
C1141 H1158 0.930 . S
C1142 C1140 1.392 . S
C1142 C1141 1.401 . S
C1142 H1159 0.930 . S
C1143 O1126 1.262 . S
C1143 O1127 1.260 . S
C1144 Tb1080 2.833 . S
C1144 O1124 1.251 . S
C1144 O1129 1.256 . S
C1144 C1137 1.500 . S
C1145 H1110 0.929 . S
C1145 C1123 1.444 . S
C1145 C1146 1.317 . S
C1146 H1108 0.930 . S
C1146 C1114 1.432 . S
C1146 C1145 1.317 . S
C1147 O1131 1.283 . S
C1147 O1134 1.243 . S
C1148 C1149 1.382 . S
C1148 C1152 1.393 . S
C1148 C1155 1.500 . S
C1149 C1148 1.382 . S
C1149 C1150 1.400 . S
C1149 H1160 0.930 . S
C1150 C1149 1.400 . S
C1150 C1151 1.384 . S
C1151 C1150 1.384 . S
C1151 C1153 1.392 . S
C1151 H1161 0.931 . S
C1152 C1148 1.393 . S
C1152 C1153 1.401 . S
C1152 H1162 0.930 . S
C1153 C1151 1.392 . S
C1153 C1152 1.401 . S
C1153 H1163 0.930 . S
C1154 O1132 1.262 . S
C1154 O1133 1.260 . S
C1155 Tb1091 2.833 . S
C1155 O1130 1.251 . S
C1155 O1135 1.256 . S
C1155 C1148 1.500 . S
H1156 C1139 0.930 . S
H1157 C1140 0.931 . S
H1158 C1141 0.930 . S
H1159 C1142 0.930 . S
H1160 C1149 0.930 . S
H1161 C1151 0.931 . S
H1162 C1152 0.930 . S
H1163 C1153 0.930 . S
Tb1164 N1195 2.660 . S
Tb1164 N1202 2.600 . S
Tb1164 O1208 2.546 . S
Tb1164 O1209 2.610 . S
Tb1164 O1211 2.320 . S
Tb1164 O1212 2.552 . S
Tb1164 O1213 2.413 . S
Tb1164 O1215 2.362 . S
Tb1164 O1216 2.421 . S
Tb1164 C1228 2.833 . S
C1165 C1168 1.432 . S
C1165 C1169 1.414 . S
C1165 N1172 1.359 . S
C1166 C1168 1.417 . S
C1166 C1170 1.432 . S
C1166 C1178 1.410 . S
C1167 C1169 1.444 . S
C1167 C1170 1.317 . S
C1167 H1190 0.929 . S
C1168 C1165 1.432 . S
C1168 C1166 1.417 . S
C1168 N1176 1.360 . S
C1169 C1165 1.414 . S
C1169 C1167 1.444 . S
C1169 C1174 1.385 . S
C1170 C1166 1.432 . S
C1170 C1167 1.317 . S
C1170 H1182 0.930 . S
C1171 C1173 1.392 . S
C1171 C1174 1.370 . S
C1171 H1183 0.931 . S
N1172 C1165 1.359 . S
N1172 C1173 1.327 . S
N1172 Tb1175 2.600 . S
C1173 C1171 1.392 . S
C1173 N1172 1.327 . S
C1173 H1180 0.930 . S
C1174 C1169 1.385 . S
C1174 C1171 1.370 . S
C1174 H1193 0.930 . S
Tb1175 N1172 2.600 . S
Tb1175 N1176 2.660 . S
Tb1175 O1209 2.362 . S
Tb1175 O1210 2.421 . S
Tb1175 O1214 2.546 . S
Tb1175 O1215 2.610 . S
Tb1175 O1217 2.320 . S
Tb1175 O1218 2.552 . S
Tb1175 O1219 2.413 . S
Tb1175 C1239 2.833 . S
N1176 C1168 1.360 . S
N1176 Tb1175 2.660 . S
N1176 C1177 1.305 . S
C1177 N1176 1.305 . S
C1177 C1179 1.407 . S
C1177 H1184 0.930 . S
C1178 C1166 1.410 . S
C1178 C1179 1.345 . S
C1178 H1186 0.930 . S
C1179 C1177 1.407 . S
C1179 C1178 1.345 . S
C1179 H1181 0.930 . S
H1180 C1173 0.930 . S
H1181 C1179 0.930 . S
H1182 C1170 0.930 . S
H1183 C1171 0.931 . S
H1184 C1177 0.930 . S
H1185 C1199 0.930 . S
H1186 C1178 0.930 . S
H1187 C1205 0.930 . S
H1188 C1196 0.930 . S
H1189 C1203 0.931 . S
H1190 C1167 0.929 . S
H1191 C1197 0.930 . S
H1192 C1230 0.930 . S
H1193 C1174 0.930 . S
H1194 C1229 0.929 . S
N1195 Tb1164 2.660 . S
N1195 C1196 1.305 . S
N1195 C1200 1.360 . S
C1196 H1188 0.930 . S
C1196 N1195 1.305 . S
C1196 C1199 1.407 . S
C1197 H1191 0.930 . S
C1197 C1198 1.410 . S
C1197 C1199 1.345 . S
C1198 C1197 1.410 . S
C1198 C1200 1.417 . S
C1198 C1230 1.432 . S
C1199 H1185 0.930 . S
C1199 C1196 1.407 . S
C1199 C1197 1.345 . S
C1200 N1195 1.360 . S
C1200 C1198 1.417 . S
C1200 C1204 1.432 . S
H1201 C1206 0.930 . S
N1202 Tb1164 2.600 . S
N1202 C1204 1.359 . S
N1202 C1205 1.327 . S
C1203 H1189 0.931 . S
C1203 C1205 1.392 . S
C1203 C1206 1.370 . S
C1204 C1200 1.432 . S
C1204 N1202 1.359 . S
C1204 C1207 1.414 . S
C1205 H1187 0.930 . S
C1205 N1202 1.327 . S
C1205 C1203 1.392 . S
C1206 H1201 0.930 . S
C1206 C1203 1.370 . S
C1206 C1207 1.385 . S
C1207 C1204 1.414 . S
C1207 C1206 1.385 . S
C1207 C1229 1.444 . S
O1208 Tb1164 2.546 . S
O1208 C1228 1.251 . S
O1209 Tb1164 2.610 . S
O1209 Tb1175 2.362 . S
O1209 C1220 1.283 . S
O1210 Tb1175 2.421 . S
O1210 C1227 1.262 . S
O1211 Tb1164 2.320 . S
O1211 C1227 1.260 . S
O1212 Tb1164 2.552 . S
O1212 C1220 1.243 . S
O1213 Tb1164 2.413 . S
O1213 C1228 1.256 . S
O1214 Tb1175 2.546 . S
O1214 C1239 1.251 . S
O1215 Tb1164 2.362 . S
O1215 Tb1175 2.610 . S
O1215 C1231 1.283 . S
O1216 Tb1164 2.421 . S
O1216 C1238 1.262 . S
O1217 Tb1175 2.320 . S
O1217 C1238 1.260 . S
O1218 Tb1175 2.552 . S
O1218 C1231 1.243 . S
O1219 Tb1175 2.413 . S
O1219 C1239 1.256 . S
C1220 O1209 1.283 . S
C1220 O1212 1.243 . S
C1221 C1223 1.382 . S
C1221 C1225 1.393 . S
C1221 C1228 1.500 . S
C1222 C1223 1.400 . S
C1222 C1224 1.384 . S
C1223 C1221 1.382 . S
C1223 C1222 1.400 . S
C1223 H1240 0.930 . S
C1224 C1222 1.384 . S
C1224 C1226 1.392 . S
C1224 H1241 0.931 . S
C1225 C1221 1.393 . S
C1225 C1226 1.401 . S
C1225 H1242 0.930 . S
C1226 C1224 1.392 . S
C1226 C1225 1.401 . S
C1226 H1243 0.930 . S
C1227 O1210 1.262 . S
C1227 O1211 1.260 . S
C1228 Tb1164 2.833 . S
C1228 O1208 1.251 . S
C1228 O1213 1.256 . S
C1228 C1221 1.500 . S
C1229 H1194 0.929 . S
C1229 C1207 1.444 . S
C1229 C1230 1.317 . S
C1230 H1192 0.930 . S
C1230 C1198 1.432 . S
C1230 C1229 1.317 . S
C1231 O1215 1.283 . S
C1231 O1218 1.243 . S
C1232 C1233 1.382 . S
C1232 C1236 1.393 . S
C1232 C1239 1.500 . S
C1233 C1232 1.382 . S
C1233 C1234 1.400 . S
C1233 H1244 0.930 . S
C1234 C1233 1.400 . S
C1234 C1235 1.384 . S
C1235 C1234 1.384 . S
C1235 C1237 1.392 . S
C1235 H1245 0.931 . S
C1236 C1232 1.393 . S
C1236 C1237 1.401 . S
C1236 H1246 0.930 . S
C1237 C1235 1.392 . S
C1237 C1236 1.401 . S
C1237 H1247 0.930 . S
C1238 O1216 1.262 . S
C1238 O1217 1.260 . S
C1239 Tb1175 2.833 . S
C1239 O1214 1.251 . S
C1239 O1219 1.256 . S
C1239 C1232 1.500 . S
H1240 C1223 0.930 . S
H1241 C1224 0.931 . S
H1242 C1225 0.930 . S
H1243 C1226 0.930 . S
H1244 C1233 0.930 . S
H1245 C1235 0.931 . S
H1246 C1236 0.930 . S
H1247 C1237 0.930 . S
Tb1248 N1279 2.660 . S
Tb1248 N1286 2.600 . S
Tb1248 O1292 2.546 . S
Tb1248 O1293 2.610 . S
Tb1248 O1295 2.320 . S
Tb1248 O1296 2.552 . S
Tb1248 O1297 2.413 . S
Tb1248 O1299 2.362 . S
Tb1248 O1300 2.421 . S
Tb1248 C1312 2.833 . S
C1249 C1252 1.432 . S
C1249 C1253 1.414 . S
C1249 N1256 1.359 . S
C1250 C1252 1.417 . S
C1250 C1254 1.432 . S
C1250 C1262 1.410 . S
C1251 C1253 1.444 . S
C1251 C1254 1.317 . S
C1251 H1274 0.929 . S
C1252 C1249 1.432 . S
C1252 C1250 1.417 . S
C1252 N1260 1.360 . S
C1253 C1249 1.414 . S
C1253 C1251 1.444 . S
C1253 C1258 1.385 . S
C1254 C1250 1.432 . S
C1254 C1251 1.317 . S
C1254 H1266 0.930 . S
C1255 C1257 1.392 . S
C1255 C1258 1.370 . S
C1255 H1267 0.931 . S
N1256 C1249 1.359 . S
N1256 C1257 1.327 . S
N1256 Tb1259 2.600 . S
C1257 C1255 1.392 . S
C1257 N1256 1.327 . S
C1257 H1264 0.930 . S
C1258 C1253 1.385 . S
C1258 C1255 1.370 . S
C1258 H1277 0.930 . S
Tb1259 N1256 2.600 . S
Tb1259 N1260 2.660 . S
Tb1259 O1293 2.362 . S
Tb1259 O1294 2.421 . S
Tb1259 O1298 2.546 . S
Tb1259 O1299 2.610 . S
Tb1259 O1301 2.320 . S
Tb1259 O1302 2.552 . S
Tb1259 O1303 2.413 . S
Tb1259 C1323 2.833 . S
N1260 C1252 1.360 . S
N1260 Tb1259 2.660 . S
N1260 C1261 1.305 . S
C1261 N1260 1.305 . S
C1261 C1263 1.407 . S
C1261 H1268 0.930 . S
C1262 C1250 1.410 . S
C1262 C1263 1.345 . S
C1262 H1270 0.930 . S
C1263 C1261 1.407 . S
C1263 C1262 1.345 . S
C1263 H1265 0.930 . S
H1264 C1257 0.930 . S
H1265 C1263 0.930 . S
H1266 C1254 0.930 . S
H1267 C1255 0.931 . S
H1268 C1261 0.930 . S
H1269 C1283 0.930 . S
H1270 C1262 0.930 . S
H1271 C1289 0.930 . S
H1272 C1280 0.930 . S
H1273 C1287 0.931 . S
H1274 C1251 0.929 . S
H1275 C1281 0.930 1_455 S
H1276 C1314 0.930 1_455 S
H1277 C1258 0.930 . S
H1278 C1313 0.929 . S
N1279 Tb1248 2.660 . S
N1279 C1280 1.305 . S
N1279 C1284 1.360 . S
C1280 H1272 0.930 . S
C1280 N1279 1.305 . S
C1280 C1283 1.407 . S
C1281 H1275 0.930 1_655 S
C1281 C1282 1.410 . S
C1281 C1283 1.345 . S
C1282 C1281 1.410 . S
C1282 C1284 1.417 . S
C1282 C1314 1.432 . S
C1283 H1269 0.930 . S
C1283 C1280 1.407 . S
C1283 C1281 1.345 . S
C1284 N1279 1.360 . S
C1284 C1282 1.417 . S
C1284 C1288 1.432 . S
H1285 C1290 0.930 . S
N1286 Tb1248 2.600 . S
N1286 C1288 1.359 . S
N1286 C1289 1.327 . S
C1287 H1273 0.931 . S
C1287 C1289 1.392 . S
C1287 C1290 1.370 . S
C1288 C1284 1.432 . S
C1288 N1286 1.359 . S
C1288 C1291 1.414 . S
C1289 H1271 0.930 . S
C1289 N1286 1.327 . S
C1289 C1287 1.392 . S
C1290 H1285 0.930 . S
C1290 C1287 1.370 . S
C1290 C1291 1.385 . S
C1291 C1288 1.414 . S
C1291 C1290 1.385 . S
C1291 C1313 1.444 . S
O1292 Tb1248 2.546 . S
O1292 C1312 1.251 . S
O1293 Tb1248 2.610 . S
O1293 Tb1259 2.362 . S
O1293 C1304 1.283 . S
O1294 Tb1259 2.421 . S
O1294 C1311 1.262 . S
O1295 Tb1248 2.320 . S
O1295 C1311 1.260 . S
O1296 Tb1248 2.552 . S
O1296 C1304 1.243 . S
O1297 Tb1248 2.413 . S
O1297 C1312 1.256 . S
O1298 Tb1259 2.546 . S
O1298 C1323 1.251 . S
O1299 Tb1248 2.362 . S
O1299 Tb1259 2.610 . S
O1299 C1315 1.283 . S
O1300 Tb1248 2.421 . S
O1300 C1322 1.262 . S
O1301 Tb1259 2.320 . S
O1301 C1322 1.260 . S
O1302 Tb1259 2.552 . S
O1302 C1315 1.243 . S
O1303 Tb1259 2.413 . S
O1303 C1323 1.256 . S
C1304 O1293 1.283 . S
C1304 O1296 1.243 . S
C1305 C1307 1.382 . S
C1305 C1309 1.393 . S
C1305 C1312 1.500 . S
C1306 C1307 1.400 . S
C1306 C1308 1.384 . S
C1307 C1305 1.382 . S
C1307 C1306 1.400 . S
C1307 H1324 0.930 . S
C1308 C1306 1.384 . S
C1308 C1310 1.392 . S
C1308 H1325 0.931 . S
C1309 C1305 1.393 . S
C1309 C1310 1.401 . S
C1309 H1326 0.930 . S
C1310 C1308 1.392 . S
C1310 C1309 1.401 . S
C1310 H1327 0.930 . S
C1311 O1294 1.262 . S
C1311 O1295 1.260 . S
C1312 Tb1248 2.833 . S
C1312 O1292 1.251 . S
C1312 O1297 1.256 . S
C1312 C1305 1.500 . S
C1313 H1278 0.929 . S
C1313 C1291 1.444 . S
C1313 C1314 1.317 . S
C1314 H1276 0.930 1_655 S
C1314 C1282 1.432 . S
C1314 C1313 1.317 . S
C1315 O1299 1.283 . S
C1315 O1302 1.243 . S
C1316 C1317 1.382 . S
C1316 C1320 1.393 . S
C1316 C1323 1.500 . S
C1317 C1316 1.382 . S
C1317 C1318 1.400 . S
C1317 H1328 0.930 . S
C1318 C1317 1.400 . S
C1318 C1319 1.384 . S
C1319 C1318 1.384 . S
C1319 C1321 1.392 . S
C1319 H1329 0.931 . S
C1320 C1316 1.393 . S
C1320 C1321 1.401 . S
C1320 H1330 0.930 . S
C1321 C1319 1.392 . S
C1321 C1320 1.401 . S
C1321 H1331 0.930 . S
C1322 O1300 1.262 . S
C1322 O1301 1.260 . S
C1323 Tb1259 2.833 . S
C1323 O1298 1.251 . S
C1323 O1303 1.256 . S
C1323 C1316 1.500 . S
H1324 C1307 0.930 . S
H1325 C1308 0.931 . S
H1326 C1309 0.930 . S
H1327 C1310 0.930 . S
H1328 C1317 0.930 . S
H1329 C1319 0.931 . S
H1330 C1320 0.930 . S
H1331 C1321 0.930 . S
C1332 C1333 1.363 . S
C1332 C1338 1.379 . S
C1332 N1340 1.356 . S
C1333 C1332 1.363 . S
C1333 C1339 1.363 . S
C1334 C1335 1.363 . S
C1334 C1339 1.379 . S
C1334 N1341 1.356 . S
C1335 C1334 1.363 . S
C1335 C1338 1.363 . S
N1336 C1338 1.356 1_556 S
N1336 H1348 0.984 . S
N1336 H1349 0.985 . S
N1337 C1339 1.356 . S
N1337 H1342 0.984 . S
N1337 H1343 0.985 . S
C1338 C1332 1.379 . S
C1338 C1335 1.363 . S
C1338 N1336 1.356 1_554 S
C1339 C1333 1.363 . S
C1339 C1334 1.379 . S
C1339 N1337 1.356 . S
N1340 C1332 1.356 . S
N1340 H1346 0.984 1_554 S
N1340 H1347 0.984 . S
N1341 C1334 1.356 . S
N1341 H1344 0.984 . S
N1341 H1345 0.985 . S
H1342 N1337 0.984 . S
H1343 N1337 0.985 . S
H1344 N1341 0.984 . S
H1345 N1341 0.985 . S
H1346 N1340 0.984 1_556 S
H1347 N1340 0.984 . S
H1348 N1336 0.984 . S
H1349 N1336 0.985 . S
C1350 C1351 1.363 . S
C1350 C1356 1.379 . S
C1350 N1358 1.356 . S
C1351 C1350 1.363 . S
C1351 C1357 1.363 . S
C1352 C1353 1.363 . S
C1352 C1357 1.379 . S
C1352 N1359 1.356 1_554 S
C1353 C1352 1.363 . S
C1353 C1356 1.363 . S
N1354 C1356 1.356 . S
N1354 H1366 0.984 . S
N1354 H1367 0.985 . S
N1355 C1357 1.356 . S
N1355 H1360 0.984 . S
N1355 H1361 0.985 . S
C1356 C1350 1.379 . S
C1356 C1353 1.363 . S
C1356 N1354 1.356 . S
C1357 C1351 1.363 . S
C1357 C1352 1.379 . S
C1357 N1355 1.356 . S
N1358 C1350 1.356 . S
N1358 H1364 0.984 . S
N1358 H1365 0.984 . S
N1359 C1352 1.356 1_556 S
N1359 H1362 0.984 . S
N1359 H1363 0.985 . S
H1360 N1355 0.984 . S
H1361 N1355 0.985 . S
H1362 N1359 0.984 . S
H1363 N1359 0.985 . S
H1364 N1358 0.984 . S
H1365 N1358 0.984 . S
H1366 N1354 0.984 . S
H1367 N1354 0.985 . S
C1368 C1369 1.363 . S
C1368 C1374 1.379 . S
C1368 N1376 1.356 . S
C1369 C1368 1.363 . S
C1369 C1375 1.363 . S
C1370 C1371 1.363 . S
C1370 C1375 1.379 . S
C1370 N1377 1.356 . S
C1371 C1370 1.363 . S
C1371 C1374 1.363 . S
N1372 C1374 1.356 1_556 S
N1372 H1384 0.984 . S
N1372 H1385 0.985 . S
N1373 C1375 1.356 . S
N1373 H1378 0.984 . S
N1373 H1379 0.985 . S
C1374 C1368 1.379 . S
C1374 C1371 1.363 . S
C1374 N1372 1.356 1_554 S
C1375 C1369 1.363 . S
C1375 C1370 1.379 . S
C1375 N1373 1.356 . S
N1376 C1368 1.356 . S
N1376 H1382 0.984 . S
N1376 H1383 0.984 . S
N1377 C1370 1.356 . S
N1377 H1380 0.984 . S
N1377 H1381 0.985 . S
H1378 N1373 0.984 . S
H1379 N1373 0.985 . S
H1380 N1377 0.984 . S
H1381 N1377 0.985 . S
H1382 N1376 0.984 . S
H1383 N1376 0.984 . S
H1384 N1372 0.984 . S
H1385 N1372 0.985 . S
C1386 C1387 1.363 . S
C1386 C1392 1.379 . S
C1386 N1394 1.356 . S
C1387 C1386 1.363 . S
C1387 C1393 1.363 . S
C1388 C1389 1.363 . S
C1388 C1393 1.379 . S
C1388 N1395 1.356 . S
C1389 C1388 1.363 . S
C1389 C1392 1.363 . S
N1390 C1392 1.356 1_554 S
N1390 H1402 0.984 . S
N1390 H1403 0.985 . S
N1391 C1393 1.356 . S
N1391 H1396 0.984 . S
N1391 H1397 0.985 . S
C1392 C1386 1.379 . S
C1392 C1389 1.363 . S
C1392 N1390 1.356 1_556 S
C1393 C1387 1.363 . S
C1393 C1388 1.379 . S
C1393 N1391 1.356 . S
N1394 C1386 1.356 . S
N1394 H1400 0.984 . S
N1394 H1401 0.984 . S
N1395 C1388 1.356 . S
N1395 H1398 0.984 . S
N1395 H1399 0.985 . S
H1396 N1391 0.984 . S
H1397 N1391 0.985 . S
H1398 N1395 0.984 . S
H1399 N1395 0.985 . S
H1400 N1394 0.984 . S
H1401 N1394 0.984 . S
H1402 N1390 0.984 . S
H1403 N1390 0.985 . S
C1404 C1405 1.363 . S
C1404 C1410 1.379 . S
C1404 N1412 1.356 . S
C1405 C1404 1.363 . S
C1405 C1411 1.363 . S
C1406 C1407 1.363 . S
C1406 C1411 1.379 . S
C1406 N1413 1.356 . S
C1407 C1406 1.363 . S
C1407 C1410 1.363 . S
N1408 C1410 1.356 . S
N1408 H1420 0.984 . S
N1408 H1421 0.985 . S
N1409 C1411 1.356 . S
N1409 H1414 0.984 . S
N1409 H1415 0.985 . S
C1410 C1404 1.379 . S
C1410 C1407 1.363 . S
C1410 N1408 1.356 . S
C1411 C1405 1.363 . S
C1411 C1406 1.379 . S
C1411 N1409 1.356 . S
N1412 C1404 1.356 . S
N1412 H1418 0.984 . S
N1412 H1419 0.984 . S
N1413 C1406 1.356 . S
N1413 H1416 0.984 . S
N1413 H1417 0.985 . S
H1414 N1409 0.984 . S
H1415 N1409 0.985 . S
H1416 N1413 0.984 . S
H1417 N1413 0.985 . S
H1418 N1412 0.984 . S
H1419 N1412 0.984 . S
H1420 N1408 0.984 . S
H1421 N1408 0.985 . S
C1422 C1423 1.363 . S
C1422 C1428 1.379 . S
C1422 N1430 1.356 . S
C1423 C1422 1.363 . S
C1423 C1429 1.363 . S
C1424 C1425 1.363 . S
C1424 C1429 1.379 . S
C1424 N1431 1.356 . S
C1425 C1424 1.363 . S
C1425 C1428 1.363 . S
N1426 C1428 1.356 1_554 S
N1426 H1438 0.984 . S
N1426 H1439 0.985 . S
N1427 C1429 1.356 . S
N1427 H1432 0.984 . S
N1427 H1433 0.985 . S
C1428 C1422 1.379 . S
C1428 C1425 1.363 . S
C1428 N1426 1.356 1_556 S
C1429 C1423 1.363 . S
C1429 C1424 1.379 . S
C1429 N1427 1.356 . S
N1430 C1422 1.356 . S
N1430 H1436 0.984 1_556 S
N1430 H1437 0.984 . S
N1431 C1424 1.356 . S
N1431 H1434 0.984 . S
N1431 H1435 0.985 . S
H1432 N1427 0.984 . S
H1433 N1427 0.985 . S
H1434 N1431 0.984 . S
H1435 N1431 0.985 . S
H1436 N1430 0.984 1_554 S
H1437 N1430 0.984 . S
H1438 N1426 0.984 . S
H1439 N1426 0.985 . S
C1440 C1441 1.363 . S
C1440 C1446 1.379 . S
C1440 N1448 1.356 . S
C1441 C1440 1.363 . S
C1441 C1447 1.363 . S
C1442 C1443 1.363 . S
C1442 C1447 1.379 . S
C1442 N1449 1.356 1_556 S
C1443 C1442 1.363 . S
C1443 C1446 1.363 . S
N1444 C1446 1.356 . S
N1444 H1456 0.984 . S
N1444 H1457 0.985 . S
N1445 C1447 1.356 . S
N1445 H1450 0.984 . S
N1445 H1451 0.985 1_556 S
C1446 C1440 1.379 . S
C1446 C1443 1.363 . S
C1446 N1444 1.356 . S
C1447 C1441 1.363 . S
C1447 C1442 1.379 . S
C1447 N1445 1.356 . S
N1448 C1440 1.356 . S
N1448 H1454 0.984 . S
N1448 H1455 0.984 . S
N1449 C1442 1.356 1_554 S
N1449 H1452 0.984 . S
N1449 H1453 0.985 . S
H1450 N1445 0.984 . S
H1451 N1445 0.985 1_554 S
H1452 N1449 0.984 . S
H1453 N1449 0.985 . S
H1454 N1448 0.984 . S
H1455 N1448 0.984 . S
H1456 N1444 0.984 . S
H1457 N1444 0.985 . S
C1458 C1459 1.363 . S
C1458 C1464 1.379 . S
C1458 N1466 1.356 . S
C1459 C1458 1.363 . S
C1459 C1465 1.363 . S
C1460 C1461 1.363 . S
C1460 C1465 1.379 . S
C1460 N1467 1.356 . S
C1461 C1460 1.363 . S
C1461 C1464 1.363 . S
N1462 C1464 1.356 . S
N1462 H1474 0.984 . S
N1462 H1475 0.985 . S
N1463 C1465 1.356 . S
N1463 H1468 0.984 . S
N1463 H1469 0.985 . S
C1464 C1458 1.379 . S
C1464 C1461 1.363 . S
C1464 N1462 1.356 . S
C1465 C1459 1.363 . S
C1465 C1460 1.379 . S
C1465 N1463 1.356 . S
N1466 C1458 1.356 . S
N1466 H1472 0.984 . S
N1466 H1473 0.984 . S
N1467 C1460 1.356 . S
N1467 H1470 0.984 . S
N1467 H1471 0.985 . S
H1468 N1463 0.984 . S
H1469 N1463 0.985 . S
H1470 N1467 0.984 . S
H1471 N1467 0.985 . S
H1472 N1466 0.984 . S
H1473 N1466 0.984 . S
H1474 N1462 0.984 . S
H1475 N1462 0.985 . S
C1476 C1477 1.363 . S
C1476 C1482 1.379 . S
C1476 N1484 1.356 . S
C1477 C1476 1.363 . S
C1477 C1483 1.363 . S
C1478 C1479 1.363 . S
C1478 C1483 1.379 . S
C1478 N1485 1.356 1_556 S
C1479 C1478 1.363 . S
C1479 C1482 1.363 . S
N1480 C1482 1.356 . S
N1480 H1492 0.984 . S
N1480 H1493 0.985 . S
N1481 C1483 1.356 . S
N1481 H1486 0.984 . S
N1481 H1487 0.985 1_556 S
C1482 C1476 1.379 . S
C1482 C1479 1.363 . S
C1482 N1480 1.356 . S
C1483 C1477 1.363 . S
C1483 C1478 1.379 . S
C1483 N1481 1.356 . S
N1484 C1476 1.356 . S
N1484 H1490 0.984 . S
N1484 H1491 0.984 . S
N1485 C1478 1.356 1_554 S
N1485 H1488 0.984 . S
N1485 H1489 0.985 . S
H1486 N1481 0.984 . S
H1487 N1481 0.985 1_554 S
H1488 N1485 0.984 . S
H1489 N1485 0.985 . S
H1490 N1484 0.984 . S
H1491 N1484 0.984 . S
H1492 N1480 0.984 . S
H1493 N1480 0.985 . S
C1494 C1495 1.363 . S
C1494 C1500 1.379 . S
C1494 N1502 1.356 . S
C1495 C1494 1.363 . S
C1495 C1501 1.363 . S
C1496 C1497 1.363 . S
C1496 C1501 1.379 . S
C1496 N1503 1.356 . S
C1497 C1496 1.363 . S
C1497 C1500 1.363 . S
N1498 C1500 1.321 1_556 S
N1498 H1510 1.019 . S
N1498 H1511 0.987 . S
N1499 C1501 1.356 . S
N1499 H1504 0.984 . S
N1499 H1505 0.985 . S
C1500 C1494 1.379 . S
C1500 C1497 1.363 . S
C1500 N1498 1.321 1_554 S
C1501 C1495 1.363 . S
C1501 C1496 1.379 . S
C1501 N1499 1.356 . S
N1502 C1494 1.356 . S
N1502 H1508 0.984 . S
N1502 H1509 0.984 . S
N1503 C1496 1.356 . S
N1503 H1506 0.984 . S
N1503 H1507 0.985 . S
H1504 N1499 0.984 . S
H1505 N1499 0.985 . S
H1506 N1503 0.984 . S
H1507 N1503 0.985 . S
H1508 N1502 0.984 . S
H1509 N1502 0.984 . S
H1510 N1498 1.019 . S
H1511 N1498 0.987 . S
C1512 C1513 1.363 . S
C1512 C1518 1.379 . S
C1512 N1520 1.356 . S
C1513 C1512 1.363 . S
C1513 C1519 1.363 . S
C1514 C1515 1.363 . S
C1514 C1519 1.379 . S
C1514 N1521 1.356 1_554 S
C1515 C1514 1.363 . S
C1515 C1518 1.363 . S
N1516 C1518 1.356 . S
N1516 H1528 0.984 . S
N1516 H1529 0.985 . S
N1517 C1519 1.356 . S
N1517 H1522 0.984 . S
N1517 H1523 1.036 . S
C1518 C1512 1.379 . S
C1518 C1515 1.363 . S
C1518 N1516 1.356 . S
C1519 C1513 1.363 . S
C1519 C1514 1.379 . S
C1519 N1517 1.356 . S
N1520 C1512 1.356 . S
N1520 H1526 0.984 . S
N1520 H1527 0.984 . S
N1521 C1514 1.356 1_556 S
N1521 H1524 0.984 . S
N1521 H1525 0.985 . S
H1522 N1517 0.984 . S
H1523 N1517 1.036 . S
H1524 N1521 0.984 . S
H1525 N1521 0.985 . S
H1526 N1520 0.984 . S
H1527 N1520 0.984 . S
H1528 N1516 0.984 . S
H1529 N1516 0.985 . S
C1530 C1531 1.363 . S
C1530 C1536 1.379 . S
C1530 N1538 1.356 . S
C1531 C1530 1.363 . S
C1531 C1537 1.363 . S
C1532 C1533 1.363 . S
C1532 C1537 1.379 . S
C1532 N1539 1.356 . S
C1533 C1532 1.363 . S
C1533 C1536 1.363 . S
N1534 C1536 1.356 . S
N1534 H1546 0.984 . S
N1534 H1547 0.985 . S
N1535 C1537 1.356 . S
N1535 H1540 0.984 . S
N1535 H1541 0.985 . S
C1536 C1530 1.379 . S
C1536 C1533 1.363 . S
C1536 N1534 1.356 . S
C1537 C1531 1.363 . S
C1537 C1532 1.379 . S
C1537 N1535 1.356 . S
N1538 C1530 1.356 . S
N1538 H1544 0.984 . S
N1538 H1545 0.984 . S
N1539 C1532 1.356 . S
N1539 H1542 0.984 . S
N1539 H1543 0.985 . S
H1540 N1535 0.984 . S
H1541 N1535 0.985 . S
H1542 N1539 0.984 . S
H1543 N1539 0.985 . S
H1544 N1538 0.984 . S
H1545 N1538 0.984 . S
H1546 N1534 0.984 . S
H1547 N1534 0.985 . S
C1548 C1549 1.363 . S
C1548 C1554 1.379 . S
C1548 N1556 1.356 1_455 S
C1549 C1548 1.363 . S
C1549 C1555 1.363 . S
C1550 C1551 1.363 . S
C1550 C1555 1.379 . S
C1550 N1557 1.356 . S
C1551 C1550 1.363 . S
C1551 C1554 1.363 . S
N1552 C1554 1.356 . S
N1552 H1564 0.984 . S
N1552 H1565 0.985 . S
N1553 C1555 1.356 . S
N1553 H1558 0.984 1_455 S
N1553 H1559 0.985 . S
C1554 C1548 1.379 . S
C1554 C1551 1.363 . S
C1554 N1552 1.356 . S
C1555 C1549 1.363 . S
C1555 C1550 1.379 . S
C1555 N1553 1.356 . S
N1556 C1548 1.356 1_655 S
N1556 H1562 0.984 . S
N1556 H1563 0.984 . S
N1557 C1550 1.356 . S
N1557 H1560 0.984 . S
N1557 H1561 0.985 . S
H1558 N1553 0.984 1_655 S
H1559 N1553 0.985 . S
H1560 N1557 0.984 . S
H1561 N1557 0.985 . S
H1562 N1556 0.984 . S
H1563 N1556 0.984 . S
H1564 N1552 0.984 . S
H1565 N1552 0.985 . S
C1566 C1567 1.363 . S
C1566 C1572 1.379 . S
C1566 N1574 1.356 . S
C1567 C1566 1.363 . S
C1567 C1573 1.363 . S
C1568 C1569 1.363 . S
C1568 C1573 1.379 . S
C1568 N1575 1.356 . S
C1569 C1568 1.363 . S
C1569 C1572 1.363 . S
N1570 C1572 1.356 . S
N1570 H1582 0.984 . S
N1570 H1583 0.985 . S
N1571 C1573 1.356 . S
N1571 H1576 0.984 . S
N1571 H1577 0.985 . S
C1572 C1566 1.379 . S
C1572 C1569 1.363 . S
C1572 N1570 1.356 . S
C1573 C1567 1.363 . S
C1573 C1568 1.379 . S
C1573 N1571 1.356 . S
N1574 C1566 1.356 . S
N1574 H1580 0.984 . S
N1574 H1581 0.984 . S
N1575 C1568 1.356 . S
N1575 H1578 0.984 . S
N1575 H1579 0.985 . S
H1576 N1571 0.984 . S
H1577 N1571 0.985 . S
H1578 N1575 0.984 . S
H1579 N1575 0.985 . S
H1580 N1574 0.984 . S
H1581 N1574 0.984 . S
H1582 N1570 0.984 . S
H1583 N1570 0.985 . S
C1584 C1585 1.376 . S
C1584 C1590 1.379 . S
C1584 N1592 1.356 . S
C1585 C1584 1.376 . S
C1585 C1591 1.378 . S
C1586 C1587 1.363 . S
C1586 C1591 1.379 . S
C1586 N1593 1.356 . S
C1587 C1586 1.363 . S
C1587 C1590 1.363 . S
N1588 C1590 1.356 . S
N1588 H1600 0.984 . S
N1588 H1601 0.985 . S
N1589 C1591 1.356 1_545 S
N1589 H1594 0.984 . S
N1589 H1595 0.985 . S
C1590 C1584 1.379 . S
C1590 C1587 1.363 . S
C1590 N1588 1.356 . S
C1591 C1585 1.378 . S
C1591 C1586 1.379 . S
C1591 N1589 1.356 1_565 S
N1592 C1584 1.356 . S
N1592 H1598 0.984 . S
N1592 H1599 0.984 1_565 S
N1593 C1586 1.356 . S
N1593 H1596 0.984 . S
N1593 H1597 0.985 . S
H1594 N1589 0.984 . S
H1595 N1589 0.985 . S
H1596 N1593 0.984 . S
H1597 N1593 0.985 . S
H1598 N1592 0.984 . S
H1599 N1592 0.984 1_545 S
H1600 N1588 0.984 . S
H1601 N1588 0.985 . S
C1602 C1603 1.363 . S
C1602 C1608 1.379 . S
C1602 N1610 1.356 . S
C1603 C1602 1.363 . S
C1603 C1609 1.363 . S
C1604 C1605 1.363 . S
C1604 C1609 1.379 . S
C1604 N1611 1.356 . S
C1605 C1604 1.363 . S
C1605 C1608 1.363 . S
N1606 C1608 1.356 . S
N1606 H1618 0.984 . S
N1606 H1619 0.985 . S
N1607 C1609 1.356 . S
N1607 H1612 0.984 . S
N1607 H1613 0.985 . S
C1608 C1602 1.379 . S
C1608 C1605 1.363 . S
C1608 N1606 1.356 . S
C1609 C1603 1.363 . S
C1609 C1604 1.379 . S
C1609 N1607 1.356 . S
N1610 C1602 1.356 . S
N1610 H1616 0.984 . S
N1610 H1617 0.984 . S
N1611 C1604 1.356 . S
N1611 H1614 0.984 . S
N1611 H1615 0.985 . S
H1612 N1607 0.984 . S
H1613 N1607 0.985 . S
H1614 N1611 0.984 . S
H1615 N1611 0.985 . S
H1616 N1610 0.984 . S
H1617 N1610 0.984 . S
H1618 N1606 0.984 . S
H1619 N1606 0.985 . S
C1620 C1621 1.363 . S
C1620 C1626 1.379 . S
C1620 N1628 1.356 . S
C1621 C1620 1.363 . S
C1621 C1627 1.363 . S
C1622 C1623 1.363 . S
C1622 C1627 1.379 . S
C1622 N1629 1.356 . S
C1623 C1622 1.363 . S
C1623 C1626 1.363 . S
N1624 C1626 1.356 . S
N1624 H1636 0.984 . S
N1624 H1637 0.985 . S
N1625 C1627 1.356 . S
N1625 H1630 0.984 . S
N1625 H1631 0.985 . S
C1626 C1620 1.379 . S
C1626 C1623 1.363 . S
C1626 N1624 1.356 . S
C1627 C1621 1.363 . S
C1627 C1622 1.379 . S
C1627 N1625 1.356 . S
N1628 C1620 1.356 . S
N1628 H1634 0.984 . S
N1628 H1635 0.984 . S
N1629 C1622 1.356 . S
N1629 H1632 0.984 . S
N1629 H1633 0.985 . S
H1630 N1625 0.984 . S
H1631 N1625 0.985 . S
H1632 N1629 0.984 . S
H1633 N1629 0.985 . S
H1634 N1628 0.984 . S
H1635 N1628 0.984 . S
H1636 N1624 0.984 . S
H1637 N1624 0.985 . S
C1638 C1639 1.363 . S
C1638 C1644 1.379 . S
C1638 N1646 1.356 . S
C1639 C1638 1.363 . S
C1639 C1645 1.363 . S
C1640 C1641 1.363 . S
C1640 C1645 1.379 . S
C1640 N1647 1.356 . S
C1641 C1640 1.363 . S
C1641 C1644 1.363 . S
N1642 C1644 1.356 . S
N1642 H1654 0.984 . S
N1642 H1655 0.985 . S
N1643 C1645 1.356 . S
N1643 H1648 0.984 . S
N1643 H1649 0.985 . S
C1644 C1638 1.379 . S
C1644 C1641 1.363 . S
C1644 N1642 1.356 . S
C1645 C1639 1.363 . S
C1645 C1640 1.379 . S
C1645 N1643 1.356 . S
N1646 C1638 1.356 . S
N1646 H1652 0.984 . S
N1646 H1653 0.984 . S
N1647 C1640 1.356 . S
N1647 H1650 0.984 . S
N1647 H1651 0.985 . S
H1648 N1643 0.984 . S
H1649 N1643 0.985 . S
H1650 N1647 0.984 . S
H1651 N1647 0.985 . S
H1652 N1646 0.984 . S
H1653 N1646 0.984 . S
H1654 N1642 0.984 . S
H1655 N1642 0.985 . S
C1656 C1657 1.363 . S
C1656 C1662 1.379 . S
C1656 N1664 1.356 . S
C1657 C1656 1.363 . S
C1657 C1663 1.363 . S
C1658 C1659 1.363 . S
C1658 C1663 1.379 . S
C1658 N1665 1.356 . S
C1659 C1658 1.363 . S
C1659 C1662 1.363 . S
N1660 C1662 1.356 . S
N1660 H1672 0.984 . S
N1660 H1673 0.985 . S
N1661 C1663 1.356 . S
N1661 H1666 0.984 . S
N1661 H1667 0.985 . S
C1662 C1656 1.379 . S
C1662 C1659 1.363 . S
C1662 N1660 1.356 . S
C1663 C1657 1.363 . S
C1663 C1658 1.379 . S
C1663 N1661 1.356 . S
N1664 C1656 1.356 . S
N1664 H1670 0.984 . S
N1664 H1671 0.984 . S
N1665 C1658 1.356 . S
N1665 H1668 0.984 . S
N1665 H1669 0.985 . S
H1666 N1661 0.984 . S
H1667 N1661 0.985 . S
H1668 N1665 0.984 . S
H1669 N1665 0.985 . S
H1670 N1664 0.984 . S
H1671 N1664 0.984 . S
H1672 N1660 0.984 . S
H1673 N1660 0.985 . S
C1674 C1675 1.363 . S
C1674 C1680 1.379 . S
C1674 N1682 1.356 . S
C1675 C1674 1.363 . S
C1675 C1681 1.363 . S
C1676 C1677 1.363 . S
C1676 C1681 1.379 . S
C1676 N1683 1.356 . S
C1677 C1676 1.363 . S
C1677 C1680 1.363 . S
N1678 C1680 1.356 . S
N1678 H1690 0.984 . S
N1678 H1691 0.985 . S
N1679 C1681 1.356 . S
N1679 H1684 0.984 . S
N1679 H1685 0.985 . S
C1680 C1674 1.379 . S
C1680 C1677 1.363 . S
C1680 N1678 1.356 . S
C1681 C1675 1.363 . S
C1681 C1676 1.379 . S
C1681 N1679 1.356 . S
N1682 C1674 1.356 . S
N1682 H1688 0.984 . S
N1682 H1689 0.984 . S
N1683 C1676 1.356 . S
N1683 H1686 0.984 . S
N1683 H1687 0.985 . S
H1684 N1679 0.984 . S
H1685 N1679 0.985 . S
H1686 N1683 0.984 . S
H1687 N1683 0.985 . S
H1688 N1682 0.984 . S
H1689 N1682 0.984 . S
H1690 N1678 0.984 . S
H1691 N1678 0.985 . S
C1692 C1693 1.363 . S
C1692 C1698 1.379 . S
C1692 N1700 1.356 . S
C1693 C1692 1.363 . S
C1693 C1699 1.363 . S
C1694 C1695 1.363 . S
C1694 C1699 1.379 . S
C1694 N1701 1.356 . S
C1695 C1694 1.363 . S
C1695 C1698 1.363 . S
N1696 C1698 1.356 . S
N1696 H1708 0.984 . S
N1696 H1709 0.985 . S
N1697 C1699 1.356 . S
N1697 H1702 0.984 . S
N1697 H1703 0.985 . S
C1698 C1692 1.379 . S
C1698 C1695 1.363 . S
C1698 N1696 1.356 . S
C1699 C1693 1.363 . S
C1699 C1694 1.379 . S
C1699 N1697 1.356 . S
N1700 C1692 1.356 . S
N1700 H1706 0.984 . S
N1700 H1707 0.984 . S
N1701 C1694 1.356 . S
N1701 H1704 0.984 . S
N1701 H1705 0.985 . S
H1702 N1697 0.984 . S
H1703 N1697 0.985 . S
H1704 N1701 0.984 . S
H1705 N1701 0.985 . S
H1706 N1700 0.984 . S
H1707 N1700 0.984 . S
H1708 N1696 0.984 . S
H1709 N1696 0.985 . S
C1710 C1711 1.363 . S
C1710 C1716 1.379 . S
C1710 N1718 1.356 1_565 S
C1711 C1710 1.363 . S
C1711 C1717 1.363 . S
C1712 C1713 1.363 . S
C1712 C1717 1.379 . S
C1712 N1719 1.356 . S
C1713 C1712 1.363 . S
C1713 C1716 1.363 . S
N1714 C1716 1.356 . S
N1714 H1726 0.984 . S
N1714 H1727 0.985 . S
N1715 C1717 1.356 . S
N1715 H1720 0.984 1_565 S
N1715 H1721 0.985 . S
C1716 C1710 1.379 . S
C1716 C1713 1.363 . S
C1716 N1714 1.356 . S
C1717 C1711 1.363 . S
C1717 C1712 1.379 . S
C1717 N1715 1.356 . S
N1718 C1710 1.356 1_545 S
N1718 H1724 0.984 . S
N1718 H1725 0.984 . S
N1719 C1712 1.356 . S
N1719 H1722 0.984 . S
N1719 H1723 0.985 . S
H1720 N1715 0.984 1_545 S
H1721 N1715 0.985 . S
H1722 N1719 0.984 . S
H1723 N1719 0.985 . S
H1724 N1718 0.984 . S
H1725 N1718 0.984 . S
H1726 N1714 0.984 . S
H1727 N1714 0.985 . S
C1728 C1729 1.363 . S
C1728 C1734 1.379 . S
C1728 N1736 1.356 . S
C1729 C1728 1.363 . S
C1729 C1735 1.363 . S
C1730 C1731 1.363 . S
C1730 C1735 1.379 . S
C1730 N1737 1.356 . S
C1731 C1730 1.363 . S
C1731 C1734 1.363 . S
N1732 C1734 1.356 . S
N1732 H1744 0.984 . S
N1732 H1745 0.985 . S
N1733 C1735 1.356 1_655 S
N1733 H1738 0.984 . S
N1733 H1739 0.985 . S
C1734 C1728 1.379 . S
C1734 C1731 1.363 . S
C1734 N1732 1.356 . S
C1735 C1729 1.363 . S
C1735 C1730 1.379 . S
C1735 N1733 1.356 1_455 S
N1736 C1728 1.356 . S
N1736 H1742 0.984 . S
N1736 H1743 0.984 . S
N1737 C1730 1.356 . S
N1737 H1740 0.984 . S
N1737 H1741 0.985 . S
H1738 N1733 0.984 . S
H1739 N1733 0.985 . S
H1740 N1737 0.984 . S
H1741 N1737 0.985 . S
H1742 N1736 0.984 . S
H1743 N1736 0.984 . S
H1744 N1732 0.984 . S
H1745 N1732 0.985 . S
C1746 C1747 1.363 . S
C1746 C1752 1.379 . S
C1746 N1754 1.356 . S
C1747 C1746 1.363 . S
C1747 C1753 1.363 . S
C1748 C1749 1.363 . S
C1748 C1753 1.379 . S
C1748 N1755 1.356 . S
C1749 C1748 1.363 . S
C1749 C1752 1.363 . S
N1750 C1752 1.356 . S
N1750 H1762 0.984 . S
N1750 H1763 0.985 . S
N1751 C1753 1.356 . S
N1751 H1756 0.984 . S
N1751 H1757 0.985 . S
C1752 C1746 1.379 . S
C1752 C1749 1.363 . S
C1752 N1750 1.356 . S
C1753 C1747 1.363 . S
C1753 C1748 1.379 . S
C1753 N1751 1.356 . S
N1754 C1746 1.356 . S
N1754 H1760 0.984 . S
N1754 H1761 0.984 . S
N1755 C1748 1.356 . S
N1755 H1758 0.984 . S
N1755 H1759 0.985 . S
H1756 N1751 0.984 . S
H1757 N1751 0.985 . S
H1758 N1755 0.984 . S
H1759 N1755 0.985 . S
H1760 N1754 0.984 . S
H1761 N1754 0.984 . S
H1762 N1750 0.984 . S
H1763 N1750 0.985 . S
C1764 C1765 1.363 . S
C1764 C1770 1.379 . S
C1764 N1772 1.356 . S
C1765 C1764 1.363 . S
C1765 C1771 1.363 . S
C1766 C1767 1.363 . S
C1766 C1771 1.379 . S
C1766 N1773 1.356 . S
C1767 C1766 1.363 . S
C1767 C1770 1.363 . S
N1768 C1770 1.356 . S
N1768 H1780 0.984 . S
N1768 H1781 0.985 . S
N1769 C1771 1.356 . S
N1769 H1774 0.984 . S
N1769 H1775 0.985 . S
C1770 C1764 1.379 . S
C1770 C1767 1.363 . S
C1770 N1768 1.356 . S
C1771 C1765 1.363 . S
C1771 C1766 1.379 . S
C1771 N1769 1.356 . S
N1772 C1764 1.356 . S
N1772 H1778 0.984 . S
N1772 H1779 0.984 . S
N1773 C1766 1.356 . S
N1773 H1776 0.984 . S
N1773 H1777 0.985 . S
H1774 N1769 0.984 . S
H1775 N1769 0.985 . S
H1776 N1773 0.984 . S
H1777 N1773 0.985 . S
H1778 N1772 0.984 . S
H1779 N1772 0.984 . S
H1780 N1768 0.984 . S
H1781 N1768 0.985 . S
C1782 C1783 1.363 . S
C1782 C1788 1.379 . S
C1782 N1790 1.356 . S
C1783 C1782 1.363 . S
C1783 C1789 1.363 . S
C1784 C1785 1.363 . S
C1784 C1789 1.379 . S
C1784 N1791 1.356 . S
C1785 C1784 1.363 . S
C1785 C1788 1.363 . S
N1786 C1788 1.356 . S
N1786 H1798 0.984 . S
N1786 H1799 0.985 . S
N1787 C1789 1.356 . S
N1787 H1792 0.984 . S
N1787 H1793 0.985 . S
C1788 C1782 1.379 . S
C1788 C1785 1.363 . S
C1788 N1786 1.356 . S
C1789 C1783 1.363 . S
C1789 C1784 1.379 . S
C1789 N1787 1.356 . S
N1790 C1782 1.356 . S
N1790 H1796 0.984 . S
N1790 H1797 0.984 . S
N1791 C1784 1.356 . S
N1791 H1794 0.984 . S
N1791 H1795 0.985 . S
H1792 N1787 0.984 . S
H1793 N1787 0.985 . S
H1794 N1791 0.984 . S
H1795 N1791 0.985 . S
H1796 N1790 0.984 . S
H1797 N1790 0.984 . S
H1798 N1786 0.984 . S
H1799 N1786 0.985 . S
C1800 C1801 1.363 . S
C1800 C1806 1.379 . S
C1800 N1808 1.356 . S
C1801 C1800 1.363 . S
C1801 C1807 1.363 . S
C1802 C1803 1.363 . S
C1802 C1807 1.379 . S
C1802 N1809 1.356 . S
C1803 C1802 1.363 . S
C1803 C1806 1.363 . S
N1804 C1806 1.356 . S
N1804 H1816 0.984 . S
N1804 H1817 0.985 . S
N1805 C1807 1.356 . S
N1805 H1810 0.984 . S
N1805 H1811 0.985 . S
C1806 C1800 1.379 . S
C1806 C1803 1.363 . S
C1806 N1804 1.356 . S
C1807 C1801 1.363 . S
C1807 C1802 1.379 . S
C1807 N1805 1.356 . S
N1808 C1800 1.356 . S
N1808 H1814 0.984 . S
N1808 H1815 0.984 . S
N1809 C1802 1.356 . S
N1809 H1812 0.984 . S
N1809 H1813 0.985 . S
H1810 N1805 0.984 . S
H1811 N1805 0.985 . S
H1812 N1809 0.984 . S
H1813 N1809 0.985 . S
H1814 N1808 0.984 . S
H1815 N1808 0.984 . S
H1816 N1804 0.984 . S
H1817 N1804 0.985 . S
C1818 C1819 1.363 . S
C1818 C1824 1.379 . S
C1818 N1826 1.356 . S
C1819 C1818 1.363 . S
C1819 C1825 1.363 . S
C1820 C1821 1.363 . S
C1820 C1825 1.379 . S
C1820 N1827 1.356 . S
C1821 C1820 1.363 . S
C1821 C1824 1.363 . S
N1822 C1824 1.356 . S
N1822 H1834 0.984 . S
N1822 H1835 0.985 . S
N1823 C1825 1.356 1_565 S
N1823 H1828 0.984 . S
N1823 H1829 0.985 . S
C1824 C1818 1.379 . S
C1824 C1821 1.363 . S
C1824 N1822 1.356 . S
C1825 C1819 1.363 . S
C1825 C1820 1.379 . S
C1825 N1823 1.356 1_545 S
N1826 C1818 1.356 . S
N1826 H1832 0.984 . S
N1826 H1833 0.984 1_545 S
N1827 C1820 1.356 . S
N1827 H1830 0.984 . S
N1827 H1831 0.985 . S
H1828 N1823 0.984 . S
H1829 N1823 0.985 . S
H1830 N1827 0.984 . S
H1831 N1827 0.985 . S
H1832 N1826 0.984 . S
H1833 N1826 0.984 1_565 S
H1834 N1822 0.984 . S
H1835 N1822 0.985 . S
C1836 C1837 1.363 . S
C1836 C1842 1.379 . S
C1836 N1844 1.356 . S
C1837 C1836 1.363 . S
C1837 C1843 1.363 . S
C1838 C1839 1.363 . S
C1838 C1843 1.379 . S
C1838 N1845 1.356 . S
C1839 C1838 1.363 . S
C1839 C1842 1.363 . S
N1840 C1842 1.356 . S
N1840 H1852 0.984 . S
N1840 H1853 0.985 . S
N1841 C1843 1.356 1_455 S
N1841 H1846 0.984 . S
N1841 H1847 0.985 . S
C1842 C1836 1.379 . S
C1842 C1839 1.363 . S
C1842 N1840 1.356 . S
C1843 C1837 1.363 . S
C1843 C1838 1.379 . S
C1843 N1841 1.356 1_655 S
N1844 C1836 1.356 . S
N1844 H1850 0.984 . S
N1844 H1851 1.016 . S
N1845 C1838 1.356 . S
N1845 H1848 0.984 . S
N1845 H1849 0.985 . S
H1846 N1841 0.984 . S
H1847 N1841 0.985 . S
H1848 N1845 0.984 . S
H1849 N1845 0.985 . S
H1850 N1844 0.984 . S
H1851 N1844 1.016 . S
H1852 N1840 0.984 . S
H1853 N1840 0.985 . S
C1854 C1855 1.363 . S
C1854 C1860 1.379 . S
C1854 N1862 1.356 . S
C1855 C1854 1.363 . S
C1855 C1861 1.363 . S
C1856 C1857 1.363 . S
C1856 C1861 1.379 . S
C1856 N1863 1.356 . S
C1857 C1856 1.363 . S
C1857 C1860 1.363 . S
N1858 C1860 1.356 . S
N1858 H1870 0.984 . S
N1858 H1871 0.985 . S
N1859 C1861 1.356 . S
N1859 H1864 0.984 . S
N1859 H1865 0.985 . S
C1860 C1854 1.379 . S
C1860 C1857 1.363 . S
C1860 N1858 1.356 . S
C1861 C1855 1.363 . S
C1861 C1856 1.379 . S
C1861 N1859 1.356 . S
N1862 C1854 1.356 . S
N1862 H1868 0.984 . S
N1862 H1869 0.984 . S
N1863 C1856 1.356 . S
N1863 H1866 0.984 . S
N1863 H1867 0.985 . S
H1864 N1859 0.984 . S
H1865 N1859 0.985 . S
H1866 N1863 0.984 . S
H1867 N1863 0.985 . S
H1868 N1862 0.984 . S
H1869 N1862 0.984 . S
H1870 N1858 0.984 . S
H1871 N1858 0.985 . S
C1872 C1873 1.363 . S
C1872 C1878 1.379 . S
C1872 N1880 1.356 1_655 S
C1873 C1872 1.363 . S
C1873 C1879 1.363 . S
C1874 C1875 1.363 . S
C1874 C1879 1.379 . S
C1874 N1881 1.356 . S
C1875 C1874 1.363 . S
C1875 C1878 1.363 . S
N1876 C1878 1.356 . S
N1876 H1888 0.984 . S
N1876 H1889 0.985 . S
N1877 C1879 1.356 . S
N1877 H1882 0.984 1_655 S
N1877 H1883 0.985 . S
C1878 C1872 1.379 . S
C1878 C1875 1.363 . S
C1878 N1876 1.356 . S
C1879 C1873 1.363 . S
C1879 C1874 1.379 . S
C1879 N1877 1.356 . S
N1880 C1872 1.356 1_455 S
N1880 H1886 0.984 . S
N1880 H1887 0.984 . S
N1881 C1874 1.356 . S
N1881 H1884 0.984 . S
N1881 H1885 0.985 . S
H1882 N1877 0.984 1_455 S
H1883 N1877 0.985 . S
H1884 N1881 0.984 . S
H1885 N1881 0.985 . S
H1886 N1880 0.984 . S
H1887 N1880 0.984 . S
H1888 N1876 0.984 . S
H1889 N1876 0.985 . S
C1890 C1891 1.363 . S
C1890 C1896 1.379 . S
C1890 N1898 1.356 . S
C1891 C1890 1.363 . S
C1891 C1897 1.363 . S
C1892 C1893 1.363 . S
C1892 C1897 1.379 . S
C1892 N1899 1.356 . S
C1893 C1892 1.363 . S
C1893 C1896 1.363 . S
N1894 C1896 1.356 . S
N1894 H1906 0.984 . S
N1894 H1907 0.985 . S
N1895 C1897 1.356 . S
N1895 H1900 0.984 . S
N1895 H1901 0.985 . S
C1896 C1890 1.379 . S
C1896 C1893 1.363 . S
C1896 N1894 1.356 . S
C1897 C1891 1.363 . S
C1897 C1892 1.379 . S
C1897 N1895 1.356 . S
N1898 C1890 1.356 . S
N1898 H1904 0.984 . S
N1898 H1905 0.984 . S
N1899 C1892 1.356 . S
N1899 H1902 0.984 . S
N1899 H1903 0.985 . S
H1900 N1895 0.984 . S
H1901 N1895 0.985 . S
H1902 N1899 0.984 . S
H1903 N1899 0.985 . S
H1904 N1898 0.984 . S
H1905 N1898 0.984 . S
H1906 N1894 0.984 . S
H1907 N1894 0.985 . S
C1908 C1909 1.363 . S
C1908 C1914 1.379 . S
C1908 N1916 1.356 . S
C1909 C1908 1.363 . S
C1909 C1915 1.363 . S
C1910 C1911 1.363 . S
C1910 C1915 1.379 . S
C1910 N1917 1.356 . S
C1911 C1910 1.363 . S
C1911 C1914 1.363 . S
N1912 C1914 1.356 . S
N1912 H1924 0.984 . S
N1912 H1925 0.985 . S
N1913 C1915 1.356 1_565 S
N1913 H1918 0.984 . S
N1913 H1919 0.985 . S
C1914 C1908 1.379 . S
C1914 C1911 1.363 . S
C1914 N1912 1.356 . S
C1915 C1909 1.363 . S
C1915 C1910 1.379 . S
C1915 N1913 1.356 1_545 S
N1916 C1908 1.356 . S
N1916 H1922 0.984 . S
N1916 H1923 0.984 1_545 S
N1917 C1910 1.356 . S
N1917 H1920 0.984 . S
N1917 H1921 0.985 . S
H1918 N1913 0.984 . S
H1919 N1913 0.985 . S
H1920 N1917 0.984 . S
H1921 N1917 0.985 . S
H1922 N1916 0.984 . S
H1923 N1916 0.984 1_565 S
H1924 N1912 0.984 . S
H1925 N1912 0.985 . S
C1926 C1927 1.363 . S
C1926 C1932 1.379 . S
C1926 N1934 1.356 . S
C1927 C1926 1.363 . S
C1927 C1933 1.363 . S
C1928 C1929 1.363 . S
C1928 C1933 1.379 . S
C1928 N1935 1.356 . S
C1929 C1928 1.363 . S
C1929 C1932 1.363 . S
N1930 C1932 1.356 . S
N1930 H1942 0.984 . S
N1930 H1943 0.985 . S
N1931 C1933 1.356 . S
N1931 H1936 0.984 . S
N1931 H1937 0.985 . S
C1932 C1926 1.379 . S
C1932 C1929 1.363 . S
C1932 N1930 1.356 . S
C1933 C1927 1.363 . S
C1933 C1928 1.379 . S
C1933 N1931 1.356 . S
N1934 C1926 1.356 . S
N1934 H1940 0.984 . S
N1934 H1941 0.984 . S
N1935 C1928 1.356 . S
N1935 H1938 0.984 . S
N1935 H1939 0.985 . S
H1936 N1931 0.984 . S
H1937 N1931 0.985 . S
H1938 N1935 0.984 . S
H1939 N1935 0.985 . S
H1940 N1934 0.984 . S
H1941 N1934 0.984 . S
H1942 N1930 0.984 . S
H1943 N1930 0.985 . S
C1944 C1945 1.363 . S
C1944 C1950 1.379 . S
C1944 N1952 1.356 . S
C1945 C1944 1.363 . S
C1945 C1951 1.363 . S
C1946 C1947 1.363 . S
C1946 C1951 1.379 . S
C1946 N1953 1.356 . S
C1947 C1946 1.363 . S
C1947 C1950 1.363 . S
N1948 C1950 1.356 . S
N1948 H1960 0.984 . S
N1948 H1961 0.985 . S
N1949 C1951 1.356 . S
N1949 H1954 0.984 . S
N1949 H1955 0.985 . S
C1950 C1944 1.379 . S
C1950 C1947 1.363 . S
C1950 N1948 1.356 . S
C1951 C1945 1.363 . S
C1951 C1946 1.379 . S
C1951 N1949 1.356 . S
N1952 C1944 1.356 . S
N1952 H1958 0.984 . S
N1952 H1959 0.984 . S
N1953 C1946 1.356 . S
N1953 H1956 0.984 . S
N1953 H1957 0.985 . S
H1954 N1949 0.984 . S
H1955 N1949 0.985 . S
H1956 N1953 0.984 . S
H1957 N1953 0.985 . S
H1958 N1952 0.984 . S
H1959 N1952 0.984 . S
H1960 N1948 0.984 . S
H1961 N1948 0.985 . S
C1962 C1963 1.363 . S
C1962 C1968 1.379 . S
C1962 N1970 1.356 . S
C1963 C1962 1.363 . S
C1963 C1969 1.363 . S
C1964 C1965 1.363 . S
C1964 C1969 1.379 . S
C1964 N1971 1.356 . S
C1965 C1964 1.363 . S
C1965 C1968 1.363 . S
N1966 C1968 1.356 . S
N1966 H1978 0.984 . S
N1966 H1979 0.985 . S
N1967 C1969 1.356 . S
N1967 H1972 0.984 . S
N1967 H1973 0.985 . S
C1968 C1962 1.379 . S
C1968 C1965 1.363 . S
C1968 N1966 1.356 . S
C1969 C1963 1.363 . S
C1969 C1964 1.379 . S
C1969 N1967 1.356 . S
N1970 C1962 1.356 . S
N1970 H1976 0.984 . S
N1970 H1977 0.984 . S
N1971 C1964 1.356 . S
N1971 H1974 0.984 . S
N1971 H1975 0.985 . S
H1972 N1967 0.984 . S
H1973 N1967 0.985 . S
H1974 N1971 0.984 . S
H1975 N1971 0.985 . S
H1976 N1970 0.984 . S
H1977 N1970 0.984 . S
H1978 N1966 0.984 . S
H1979 N1966 0.985 . S
C1980 C1981 1.363 . S
C1980 C1986 1.379 . S
C1980 N1988 1.356 . S
C1981 C1980 1.363 . S
C1981 C1987 1.363 . S
C1982 C1983 1.363 . S
C1982 C1987 1.379 . S
C1982 N1989 1.356 1_565 S
C1983 C1982 1.363 . S
C1983 C1986 1.363 . S
N1984 C1986 1.356 . S
N1984 H1996 0.984 . S
N1984 H1997 0.985 . S
N1985 C1987 1.356 . S
N1985 H1990 0.984 . S
N1985 H1991 0.985 1_565 S
C1986 C1980 1.379 . S
C1986 C1983 1.363 . S
C1986 N1984 1.356 . S
C1987 C1981 1.363 . S
C1987 C1982 1.379 . S
C1987 N1985 1.356 . S
N1988 C1980 1.356 . S
N1988 H1994 0.984 . S
N1988 H1995 0.984 . S
N1989 C1982 1.356 1_545 S
N1989 H1992 0.984 . S
N1989 H1993 0.985 . S
H1990 N1985 0.984 . S
H1991 N1985 0.985 1_545 S
H1992 N1989 0.984 . S
H1993 N1989 0.985 . S
H1994 N1988 0.984 . S
H1995 N1988 0.984 . S
H1996 N1984 0.984 . S
H1997 N1984 0.985 . S
C1998 C1999 1.363 . S
C1998 C2004 1.379 . S
C1998 N2006 1.356 . S
C1999 C1998 1.363 . S
C1999 C2005 1.363 . S
C2000 C2001 1.363 . S
C2000 C2005 1.379 . S
C2000 N2007 1.356 . S
C2001 C2000 1.363 . S
C2001 C2004 1.363 . S
N2002 C2004 1.356 . S
N2002 H2014 0.984 . S
N2002 H2015 0.985 . S
N2003 C2005 1.356 . S
N2003 H2008 0.984 . S
N2003 H2009 0.985 . S
C2004 C1998 1.379 . S
C2004 C2001 1.363 . S
C2004 N2002 1.356 . S
C2005 C1999 1.363 . S
C2005 C2000 1.379 . S
C2005 N2003 1.356 . S
N2006 C1998 1.356 . S
N2006 H2012 0.984 . S
N2006 H2013 0.984 . S
N2007 C2000 1.356 . S
N2007 H2010 0.984 . S
N2007 H2011 0.985 . S
H2008 N2003 0.984 . S
H2009 N2003 0.985 . S
H2010 N2007 0.984 . S
H2011 N2007 0.985 . S
H2012 N2006 0.984 . S
H2013 N2006 0.984 . S
H2014 N2002 0.984 . S
H2015 N2002 0.985 . S
C2016 C2017 1.363 . S
C2016 C2022 1.379 . S
C2016 N2024 1.356 . S
C2017 C2016 1.363 . S
C2017 C2023 1.363 . S
C2018 C2019 1.363 . S
C2018 C2023 1.379 . S
C2018 N2025 1.356 . S
C2019 C2018 1.363 . S
C2019 C2022 1.363 . S
N2020 C2022 1.356 . S
N2020 H2032 0.984 . S
N2020 H2033 0.985 . S
N2021 C2023 1.356 . S
N2021 H2026 0.984 . S
N2021 H2027 0.985 . S
C2022 C2016 1.379 . S
C2022 C2019 1.363 . S
C2022 N2020 1.356 . S
C2023 C2017 1.363 . S
C2023 C2018 1.379 . S
C2023 N2021 1.356 . S
N2024 C2016 1.356 . S
N2024 H2030 0.984 . S
N2024 H2031 0.984 . S
N2025 C2018 1.356 . S
N2025 H2028 0.984 . S
N2025 H2029 0.985 . S
H2026 N2021 0.984 . S
H2027 N2021 0.985 . S
H2028 N2025 0.984 . S
H2029 N2025 0.985 . S
H2030 N2024 0.984 . S
H2031 N2024 0.984 . S
H2032 N2020 0.984 . S
H2033 N2020 0.985 . S
C2034 C2035 1.363 . S
C2034 C2040 1.379 . S
C2034 N2042 1.356 . S
C2035 C2034 1.363 . S
C2035 C2041 1.363 . S
C2036 C2037 1.363 . S
C2036 C2041 1.379 . S
C2036 N2043 1.356 . S
C2037 C2036 1.363 . S
C2037 C2040 1.363 . S
N2038 C2040 1.356 1_455 S
N2038 H2050 0.984 . S
N2038 H2051 0.985 . S
N2039 C2041 1.356 . S
N2039 H2044 0.984 . S
N2039 H2045 0.985 . S
C2040 C2034 1.379 . S
C2040 C2037 1.363 . S
C2040 N2038 1.356 1_655 S
C2041 C2035 1.363 . S
C2041 C2036 1.379 . S
C2041 N2039 1.356 . S
N2042 C2034 1.356 . S
N2042 H2048 0.984 1_655 S
N2042 H2049 0.984 . S
N2043 C2036 1.356 . S
N2043 H2046 0.984 . S
N2043 H2047 0.985 . S
H2044 N2039 0.984 . S
H2045 N2039 0.985 . S
H2046 N2043 0.984 . S
H2047 N2043 0.985 . S
H2048 N2042 0.984 1_455 S
H2049 N2042 0.984 . S
H2050 N2038 0.984 . S
H2051 N2038 0.985 . S
C2052 C2053 1.363 . S
C2052 C2058 1.379 . S
C2052 N2060 1.356 . S
C2053 C2052 1.363 . S
C2053 C2059 1.363 . S
C2054 C2055 1.363 . S
C2054 C2059 1.379 . S
C2054 N2061 1.356 . S
C2055 C2054 1.363 . S
C2055 C2058 1.363 . S
N2056 C2058 1.356 . S
N2056 H2068 0.984 . S
N2056 H2069 0.985 . S
N2057 C2059 1.356 . S
N2057 H2062 0.984 . S
N2057 H2063 0.985 . S
C2058 C2052 1.379 . S
C2058 C2055 1.363 . S
C2058 N2056 1.356 . S
C2059 C2053 1.363 . S
C2059 C2054 1.379 . S
C2059 N2057 1.356 . S
N2060 C2052 1.356 . S
N2060 H2066 0.984 . S
N2060 H2067 0.984 . S
N2061 C2054 1.356 . S
N2061 H2064 0.984 . S
N2061 H2065 0.985 . S
H2062 N2057 0.984 . S
H2063 N2057 0.985 . S
H2064 N2061 0.984 . S
H2065 N2061 0.985 . S
H2066 N2060 0.984 . S
H2067 N2060 0.984 . S
H2068 N2056 0.984 . S
H2069 N2056 0.985 . S
C2070 C2071 1.363 . S
C2070 C2076 1.379 . S
C2070 N2078 1.356 . S
C2071 C2070 1.363 . S
C2071 C2077 1.363 . S
C2072 C2073 1.363 . S
C2072 C2077 1.379 . S
C2072 N2079 1.356 . S
C2073 C2072 1.363 . S
C2073 C2076 1.363 . S
N2074 C2076 1.356 . S
N2074 H2086 0.984 1_545 S
N2074 H2087 0.985 1_545 S
N2075 C2077 1.356 . S
N2075 H2080 0.984 . S
N2075 H2081 0.985 . S
C2076 C2070 1.379 . S
C2076 C2073 1.363 . S
C2076 N2074 1.356 . S
C2077 C2071 1.363 . S
C2077 C2072 1.379 . S
C2077 N2075 1.356 . S
N2078 C2070 1.356 . S
N2078 H2084 0.984 . S
N2078 H2085 0.984 . S
N2079 C2072 1.356 . S
N2079 H2082 0.984 . S
N2079 H2083 0.985 . S
H2080 N2075 0.984 . S
H2081 N2075 0.985 . S
H2082 N2079 0.984 . S
H2083 N2079 0.985 . S
H2084 N2078 0.984 . S
H2085 N2078 0.984 . S
H2086 N2074 0.984 1_565 S
H2087 N2074 0.985 1_565 S
C2088 C2089 1.363 . S
C2088 C2094 1.379 . S
C2088 N2096 1.356 . S
C2089 C2088 1.363 . S
C2089 C2095 1.363 . S
C2090 C2091 1.363 . S
C2090 C2095 1.379 . S
C2090 N2097 1.356 . S
C2091 C2090 1.363 . S
C2091 C2094 1.363 . S
N2092 C2094 1.356 . S
N2092 H2104 0.984 . S
N2092 H2105 0.985 . S
N2093 C2095 1.356 . S
N2093 H2098 0.984 . S
N2093 H2099 0.985 . S
C2094 C2088 1.379 . S
C2094 C2091 1.363 . S
C2094 N2092 1.356 . S
C2095 C2089 1.363 . S
C2095 C2090 1.379 . S
C2095 N2093 1.356 . S
N2096 C2088 1.356 . S
N2096 H2102 0.984 . S
N2096 H2103 0.984 . S
N2097 C2090 1.356 . S
N2097 H2100 0.984 . S
N2097 H2101 0.985 . S
H2098 N2093 0.984 . S
H2099 N2093 0.985 . S
H2100 N2097 0.984 . S
H2101 N2097 0.985 . S
H2102 N2096 0.984 . S
H2103 N2096 0.984 . S
H2104 N2092 0.984 . S
H2105 N2092 0.985 . S
C2106 C2107 1.363 . S
C2106 C2112 1.379 . S
C2106 N2114 1.356 . S
C2107 C2106 1.363 . S
C2107 C2113 1.363 . S
C2108 C2109 1.363 . S
C2108 C2113 1.379 . S
C2108 N2115 1.356 . S
C2109 C2108 1.363 . S
C2109 C2112 1.363 . S
N2110 C2112 1.356 . S
N2110 H2122 0.984 . S
N2110 H2123 0.985 . S
N2111 C2113 1.356 . S
N2111 H2116 0.984 . S
N2111 H2117 0.985 . S
C2112 C2106 1.379 . S
C2112 C2109 1.363 . S
C2112 N2110 1.356 . S
C2113 C2107 1.363 . S
C2113 C2108 1.379 . S
C2113 N2111 1.356 . S
N2114 C2106 1.356 . S
N2114 H2120 0.984 . S
N2114 H2121 0.984 . S
N2115 C2108 1.356 . S
N2115 H2118 0.984 . S
N2115 H2119 0.985 . S
H2116 N2111 0.984 . S
H2117 N2111 0.985 . S
H2118 N2115 0.984 . S
H2119 N2115 0.985 . S
H2120 N2114 0.984 . S
H2121 N2114 0.984 . S
H2122 N2110 0.984 . S
H2123 N2110 0.985 . S
C2124 C2125 1.363 . S
C2124 C2130 1.379 . S
C2124 N2132 1.356 . S
C2125 C2124 1.363 . S
C2125 C2131 1.363 . S
C2126 C2127 1.363 . S
C2126 C2131 1.379 . S
C2126 N2133 1.356 . S
C2127 C2126 1.363 . S
C2127 C2130 1.363 . S
N2128 C2130 1.356 . S
N2128 H2140 0.984 . S
N2128 H2141 0.985 . S
N2129 C2131 1.356 . S
N2129 H2134 0.984 . S
N2129 H2135 0.985 . S
C2130 C2124 1.379 . S
C2130 C2127 1.363 . S
C2130 N2128 1.356 . S
C2131 C2125 1.363 . S
C2131 C2126 1.379 . S
C2131 N2129 1.356 . S
N2132 C2124 1.356 . S
N2132 H2138 0.984 . S
N2132 H2139 0.984 . S
N2133 C2126 1.356 . S
N2133 H2136 0.984 . S
N2133 H2137 0.985 . S
H2134 N2129 0.984 . S
H2135 N2129 0.985 . S
H2136 N2133 0.984 . S
H2137 N2133 0.985 . S
H2138 N2132 0.984 . S
H2139 N2132 0.984 . S
H2140 N2128 0.984 . S
H2141 N2128 0.985 . S
C2142 C2143 1.363 . S
C2142 C2148 1.379 . S
C2142 N2150 1.356 . S
C2143 C2142 1.363 . S
C2143 C2149 1.363 . S
C2144 C2145 1.363 . S
C2144 C2149 1.379 . S
C2144 N2151 1.356 . S
C2145 C2144 1.363 . S
C2145 C2148 1.363 . S
N2146 C2148 1.356 . S
N2146 H2158 0.984 . S
N2146 H2159 0.985 . S
N2147 C2149 1.356 . S
N2147 H2152 0.984 . S
N2147 H2153 0.985 . S
C2148 C2142 1.379 . S
C2148 C2145 1.363 . S
C2148 N2146 1.356 . S
C2149 C2143 1.363 . S
C2149 C2144 1.379 . S
C2149 N2147 1.356 . S
N2150 C2142 1.356 . S
N2150 H2156 0.984 . S
N2150 H2157 0.984 . S
N2151 C2144 1.356 . S
N2151 H2154 0.984 . S
N2151 H2155 0.985 . S
H2152 N2147 0.984 . S
H2153 N2147 0.985 . S
H2154 N2151 0.984 . S
H2155 N2151 0.985 . S
H2156 N2150 0.984 . S
H2157 N2150 0.984 . S
H2158 N2146 0.984 . S
H2159 N2146 0.985 . S
C2160 C2161 1.363 . S
C2160 C2166 1.379 . S
C2160 N2168 1.356 . S
C2161 C2160 1.363 . S
C2161 C2167 1.363 . S
C2162 C2163 1.363 . S
C2162 C2167 1.379 . S
C2162 N2169 1.356 . S
C2163 C2162 1.363 . S
C2163 C2166 1.363 . S
N2164 C2166 1.356 . S
N2164 H2176 0.984 . S
N2164 H2177 0.985 . S
N2165 C2167 1.356 . S
N2165 H2170 0.984 . S
N2165 H2171 0.985 . S
C2166 C2160 1.379 . S
C2166 C2163 1.363 . S
C2166 N2164 1.356 . S
C2167 C2161 1.363 . S
C2167 C2162 1.379 . S
C2167 N2165 1.356 . S
N2168 C2160 1.356 . S
N2168 H2174 0.984 . S
N2168 H2175 0.984 . S
N2169 C2162 1.356 . S
N2169 H2172 0.984 . S
N2169 H2173 0.985 . S
H2170 N2165 0.984 . S
H2171 N2165 0.985 . S
H2172 N2169 0.984 . S
H2173 N2169 0.985 . S
H2174 N2168 0.984 . S
H2175 N2168 0.984 . S
H2176 N2164 0.984 . S
H2177 N2164 0.985 . S
C2178 C2179 1.363 . S
C2178 C2184 1.379 . S
C2178 N2186 1.356 . S
C2179 C2178 1.363 . S
C2179 C2185 1.363 . S
C2180 C2181 1.363 . S
C2180 C2185 1.379 . S
C2180 N2187 1.356 . S
C2181 C2180 1.363 . S
C2181 C2184 1.363 . S
N2182 C2184 1.356 . S
N2182 H2194 0.984 . S
N2182 H2195 0.985 . S
N2183 C2185 1.356 . S
N2183 H2188 0.984 . S
N2183 H2189 0.985 . S
C2184 C2178 1.379 . S
C2184 C2181 1.363 . S
C2184 N2182 1.356 . S
C2185 C2179 1.363 . S
C2185 C2180 1.379 . S
C2185 N2183 1.356 . S
N2186 C2178 1.356 . S
N2186 H2192 0.984 . S
N2186 H2193 0.984 . S
N2187 C2180 1.356 . S
N2187 H2190 0.984 . S
N2187 H2191 0.985 . S
H2188 N2183 0.984 . S
H2189 N2183 0.985 . S
H2190 N2187 0.984 . S
H2191 N2187 0.985 . S
H2192 N2186 0.984 . S
H2193 N2186 0.984 . S
H2194 N2182 0.984 . S
H2195 N2182 0.985 . S
C2196 C2197 1.363 . S
C2196 C2202 1.379 . S
C2196 N2204 1.356 . S
C2197 C2196 1.363 . S
C2197 C2203 1.363 . S
C2198 C2199 1.363 . S
C2198 C2203 1.379 . S
C2198 N2205 1.356 . S
C2199 C2198 1.363 . S
C2199 C2202 1.363 . S
N2200 C2202 1.356 . S
N2200 H2212 0.984 . S
N2200 H2213 0.985 . S
N2201 C2203 1.356 . S
N2201 H2206 0.984 . S
N2201 H2207 0.985 . S
C2202 C2196 1.379 . S
C2202 C2199 1.363 . S
C2202 N2200 1.356 . S
C2203 C2197 1.363 . S
C2203 C2198 1.379 . S
C2203 N2201 1.356 . S
N2204 C2196 1.356 . S
N2204 H2210 0.984 . S
N2204 H2211 0.984 . S
N2205 C2198 1.356 . S
N2205 H2208 0.984 . S
N2205 H2209 0.985 . S
H2206 N2201 0.984 . S
H2207 N2201 0.985 . S
H2208 N2205 0.984 . S
H2209 N2205 0.985 . S
H2210 N2204 0.984 . S
H2211 N2204 0.984 . S
H2212 N2200 0.984 . S
H2213 N2200 0.985 . S
C2214 C2215 1.363 . S
C2214 C2220 1.379 . S
C2214 N2222 1.356 . S
C2215 C2214 1.363 . S
C2215 C2221 1.363 . S
C2216 C2217 1.363 . S
C2216 C2221 1.379 . S
C2216 N2223 1.356 . S
C2217 C2216 1.363 . S
C2217 C2220 1.363 . S
N2218 C2220 1.356 . S
N2218 H2230 0.984 . S
N2218 H2231 0.985 . S
N2219 C2221 1.356 . S
N2219 H2224 0.984 . S
N2219 H2225 0.985 . S
C2220 C2214 1.379 . S
C2220 C2217 1.363 . S
C2220 N2218 1.356 . S
C2221 C2215 1.363 . S
C2221 C2216 1.379 . S
C2221 N2219 1.356 . S
N2222 C2214 1.356 . S
N2222 H2228 0.984 . S
N2222 H2229 0.984 . S
N2223 C2216 1.356 . S
N2223 H2226 0.984 . S
N2223 H2227 0.985 . S
H2224 N2219 0.984 . S
H2225 N2219 0.985 . S
H2226 N2223 0.984 . S
H2227 N2223 0.985 . S
H2228 N2222 0.984 . S
H2229 N2222 0.984 . S
H2230 N2218 0.984 . S
H2231 N2218 0.985 . S
C2232 C2233 1.363 . S
C2232 C2238 1.379 . S
C2232 N2240 1.356 . S
C2233 C2232 1.363 . S
C2233 C2239 1.363 . S
C2234 C2235 1.363 . S
C2234 C2239 1.379 . S
C2234 N2241 1.356 . S
C2235 C2234 1.363 . S
C2235 C2238 1.363 . S
N2236 C2238 1.356 . S
N2236 H2248 0.984 . S
N2236 H2249 0.985 . S
N2237 C2239 1.356 . S
N2237 H2242 0.984 . S
N2237 H2243 0.985 . S
C2238 C2232 1.379 . S
C2238 C2235 1.363 . S
C2238 N2236 1.356 . S
C2239 C2233 1.363 . S
C2239 C2234 1.379 . S
C2239 N2237 1.356 . S
N2240 C2232 1.356 . S
N2240 H2246 0.984 . S
N2240 H2247 0.984 . S
N2241 C2234 1.356 . S
N2241 H2244 0.984 . S
N2241 H2245 0.985 . S
H2242 N2237 0.984 . S
H2243 N2237 0.985 . S
H2244 N2241 0.984 . S
H2245 N2241 0.985 . S
H2246 N2240 0.984 . S
H2247 N2240 0.984 . S
H2248 N2236 0.984 . S
H2249 N2236 0.985 . S
C2250 C2251 1.363 . S
C2250 C2256 1.379 . S
C2250 N2258 1.356 . S
C2251 C2250 1.363 . S
C2251 C2257 1.363 . S
C2252 C2253 1.363 . S
C2252 C2257 1.379 . S
C2252 N2259 1.356 . S
C2253 C2252 1.363 . S
C2253 C2256 1.363 . S
N2254 C2256 1.356 . S
N2254 H2266 0.984 . S
N2254 H2267 0.985 . S
N2255 C2257 1.356 . S
N2255 H2260 0.984 . S
N2255 H2261 0.985 . S
C2256 C2250 1.379 . S
C2256 C2253 1.363 . S
C2256 N2254 1.356 . S
C2257 C2251 1.363 . S
C2257 C2252 1.379 . S
C2257 N2255 1.356 . S
N2258 C2250 1.356 . S
N2258 H2264 0.984 . S
N2258 H2265 0.984 . S
N2259 C2252 1.356 . S
N2259 H2262 0.984 . S
N2259 H2263 0.985 . S
H2260 N2255 0.984 . S
H2261 N2255 0.985 . S
H2262 N2259 0.984 . S
H2263 N2259 0.985 . S
H2264 N2258 0.984 . S
H2265 N2258 0.984 . S
H2266 N2254 0.984 . S
H2267 N2254 0.985 . S
C2268 C2269 1.363 . S
C2268 C2274 1.379 . S
C2268 N2276 1.356 . S
C2269 C2268 1.363 . S
C2269 C2275 1.363 . S
C2270 C2271 1.363 . S
C2270 C2275 1.379 . S
C2270 N2277 1.356 . S
C2271 C2270 1.363 . S
C2271 C2274 1.363 . S
N2272 C2274 1.356 . S
N2272 H2284 0.984 . S
N2272 H2285 0.985 . S
N2273 C2275 1.356 . S
N2273 H2278 0.984 . S
N2273 H2279 0.985 . S
C2274 C2268 1.379 . S
C2274 C2271 1.363 . S
C2274 N2272 1.356 . S
C2275 C2269 1.363 . S
C2275 C2270 1.379 . S
C2275 N2273 1.356 . S
N2276 C2268 1.356 . S
N2276 H2282 0.984 . S
N2276 H2283 0.984 . S
N2277 C2270 1.356 . S
N2277 H2280 0.984 . S
N2277 H2281 0.985 . S
H2278 N2273 0.984 . S
H2279 N2273 0.985 . S
H2280 N2277 0.984 . S
H2281 N2277 0.985 . S
H2282 N2276 0.984 . S
H2283 N2276 0.984 . S
H2284 N2272 0.984 . S
H2285 N2272 0.985 . S
C2286 C2287 1.363 . S
C2286 C2292 1.379 . S
C2286 N2294 1.356 . S
C2287 C2286 1.363 . S
C2287 C2293 1.363 . S
C2288 C2289 1.363 . S
C2288 C2293 1.379 . S
C2288 N2295 1.356 . S
C2289 C2288 1.363 . S
C2289 C2292 1.363 . S
N2290 C2292 1.356 . S
N2290 H2302 0.984 . S
N2290 H2303 0.985 . S
N2291 C2293 1.356 . S
N2291 H2296 0.984 . S
N2291 H2297 0.985 . S
C2292 C2286 1.379 . S
C2292 C2289 1.363 . S
C2292 N2290 1.356 . S
C2293 C2287 1.363 . S
C2293 C2288 1.379 . S
C2293 N2291 1.356 . S
N2294 C2286 1.356 . S
N2294 H2300 0.984 . S
N2294 H2301 0.984 . S
N2295 C2288 1.356 . S
N2295 H2298 0.984 . S
N2295 H2299 0.985 . S
H2296 N2291 0.984 . S
H2297 N2291 0.985 . S
H2298 N2295 0.984 . S
H2299 N2295 0.985 . S
H2300 N2294 0.984 . S
H2301 N2294 0.984 . S
H2302 N2290 0.984 . S
H2303 N2290 0.985 . S
C1333 C439 1.381 . S
C1335 C643 1.367 . S
C1351 C465 1.531 . S
C1353 C727 1.457 . S
C1369 C401 1.513 . S
C1371 C807 1.447 . S
C1387 C369 1.468 . S
C1389 C723 1.416 . S
C1407 C811 1.402 . S
C1405 C305 1.482 . S
C1423 C343 1.352 . S
C1425 C639 1.369 . S
C1443 C632 1.396 . S
C1441 C375 1.480 . S
C1461 C716 1.434 . S
C1459 C311 1.505 . S
C1477 C337 1.437 . S
C1479 C818 1.446 . S
C1495 C433 1.410 . S
C1497 C734 1.414 . S
C1513 C471 1.456 . S
C1515 C800 1.378 . S
C1533 C650 1.399 . S
C1531 C407 1.466 . S
C1551 C895 1.367 . S
C1549 C55 1.381 1_455 S
C1567 C81 1.531 . S
C1569 C979 1.457 . S
C1585 C17 1.488 1_565 S
C1587 C1059 1.447 . S
C1603 C561 1.468 . S
C1605 C975 1.416 . S
C1621 C497 1.482 . S
C1623 C1063 1.402 . S
C1639 C535 1.352 . S
C1641 C891 1.369 . S
C1657 C567 1.480 . S
C1659 C884 1.396 . S
C1675 C503 1.504 . S
C1677 C968 1.433 . S
C1695 C1070 1.445 . S
C1693 C529 1.437 . S
C1711 C49 1.410 1_565 S
C1713 C986 1.414 . S
C1731 C1052 1.378 . S
C1729 C87 1.456 1_455 S
C1747 C23 1.466 . S
C1749 C902 1.399 . S
C1767 C1147 1.367 . S
C1765 C247 1.381 . S
C1783 C273 1.531 . S
C1785 C1231 1.457 . S
C1803 C1311 1.447 . S
C1801 C209 1.513 . S
C1821 C1227 1.416 . S
C1819 C177 1.468 1_545 S
C1839 C1315 1.402 . S
C1837 C113 1.482 1_655 S
C1855 C151 1.352 . S
C1857 C1143 1.369 . S
C1873 C183 1.480 1_655 S
C1875 C1136 1.396 . S
C1891 C119 1.505 . S
C1893 C1220 1.434 . S
C1911 C1322 1.446 . S
C1909 C145 1.437 1_545 S
C1927 C241 1.410 . S
C1929 C1238 1.414 . S
C1945 C279 1.456 . S
C1947 C1304 1.378 . S
C1963 C215 1.466 . S
C1965 C1154 1.399 . S
C1981 C509 1.461 . S
C1983 C646 1.394 . S
C2001 C730 1.356 . S
C1999 C541 1.458 . S
C2017 C573 1.468 . S
C2019 C802 1.366 . S
C2035 C221 1.498 . S
C2037 C718 1.370 . S
C2053 C253 1.450 . S
C2055 C814 1.352 . S
C2073 C634 1.395 . S
C2071 C285 1.460 . S
C2089 C125 1.461 . S
C2091 C898 1.394 . S
C2107 C157 1.457 . S
C2109 C982 1.356 . S
C2125 C189 1.468 . S
C2127 C1054 1.367 . S
C2143 C413 1.498 . S
C2145 C970 1.370 . S
C2163 C1066 1.352 . S
C2161 C445 1.450 . S
C2179 C477 1.460 . S
C2181 C886 1.395 . S
C2197 C317 1.461 . S
C2199 C1150 1.394 . S
C2215 C349 1.458 . S
C2217 C1234 1.356 . S
C2235 C1306 1.367 . S
C2233 C381 1.468 . S
C2251 C29 1.498 . S
C2253 C1222 1.370 . S
C2269 C61 1.450 . S
C2271 C1318 1.353 . S
C2287 C93 1.460 . S
C2289 C1138 1.395 . S
