# Generated by pormake.
# Topology hwx, (6,3)-cn, num edge types: 1
# Building blocks:
#     Node 0, Type 0, BuildingBlock: OJICUG_clean_sbu_0, # of connection points: 6
#     Node 1, Type 0, BuildingBlock: OJICUG_clean_sbu_0, # of connection points: 6
#     Node 2, Type 0, BuildingBlock: OJICUG_clean_sbu_0, # of connection points: 6
#     Node 3, Type 0, BuildingBlock: OJICUG_clean_sbu_0, # of connection points: 6
#     Node 4, Type 1, BuildingBlock: VETTIZ_charged_linker_0, # of connection points: 3
#     Node 5, Type 1, BuildingBlock: VETTIZ_charged_linker_0, # of connection points: 3
#     Node 6, Type 1, BuildingBlock: VETTIZ_charged_linker_0, # of connection points: 3
#     Node 7, Type 1, BuildingBlock: VETTIZ_charged_linker_0, # of connection points: 3
#     Node 8, Type 1, BuildingBlock: VETTIZ_charged_linker_0, # of connection points: 3
#     Node 9, Type 1, BuildingBlock: VETTIZ_charged_linker_0, # of connection points: 3
#     Node 10, Type 1, BuildingBlock: VETTIZ_charged_linker_0, # of connection points: 3
#     Node 11, Type 1, BuildingBlock: VETTIZ_charged_linker_0, # of connection points: 3
#     Edge 12, Type (0, 1), BuildingBlock: OJICUG_clean_linker_0, # of connection points: 2
#     Edge 13, Type (0, 1), BuildingBlock: OJICUG_clean_linker_0, # of connection points: 2
#     Edge 14, Type (0, 1), BuildingBlock: OJICUG_clean_linker_0, # of connection points: 2
#     Edge 15, Type (0, 1), BuildingBlock: OJICUG_clean_linker_0, # of connection points: 2
#     Edge 16, Type (0, 1), BuildingBlock: OJICUG_clean_linker_0, # of connection points: 2
#     Edge 17, Type (0, 1), BuildingBlock: OJICUG_clean_linker_0, # of connection points: 2
#     Edge 18, Type (0, 1), BuildingBlock: OJICUG_clean_linker_0, # of connection points: 2
#     Edge 19, Type (0, 1), BuildingBlock: OJICUG_clean_linker_0, # of connection points: 2
#     Edge 20, Type (0, 1), BuildingBlock: OJICUG_clean_linker_0, # of connection points: 2
#     Edge 21, Type (0, 1), BuildingBlock: OJICUG_clean_linker_0, # of connection points: 2
#     Edge 22, Type (0, 1), BuildingBlock: OJICUG_clean_linker_0, # of connection points: 2
#     Edge 23, Type (0, 1), BuildingBlock: OJICUG_clean_linker_0, # of connection points: 2
#     Edge 24, Type (0, 1), BuildingBlock: OJICUG_clean_linker_0, # of connection points: 2
#     Edge 25, Type (0, 1), BuildingBlock: OJICUG_clean_linker_0, # of connection points: 2
#     Edge 26, Type (0, 1), BuildingBlock: OJICUG_clean_linker_0, # of connection points: 2
#     Edge 27, Type (0, 1), BuildingBlock: OJICUG_clean_linker_0, # of connection points: 2
#     Edge 28, Type (0, 1), BuildingBlock: OJICUG_clean_linker_0, # of connection points: 2
#     Edge 29, Type (0, 1), BuildingBlock: OJICUG_clean_linker_0, # of connection points: 2
#     Edge 30, Type (0, 1), BuildingBlock: OJICUG_clean_linker_0, # of connection points: 2
#     Edge 31, Type (0, 1), BuildingBlock: OJICUG_clean_linker_0, # of connection points: 2
#     Edge 32, Type (0, 1), BuildingBlock: OJICUG_clean_linker_0, # of connection points: 2
#     Edge 33, Type (0, 1), BuildingBlock: OJICUG_clean_linker_0, # of connection points: 2
#     Edge 34, Type (0, 1), BuildingBlock: OJICUG_clean_linker_0, # of connection points: 2
#     Edge 35, Type (0, 1), BuildingBlock: OJICUG_clean_linker_0, # of connection points: 2
# Relax obj value: 0.080
# Max RMSD: 0.104
# Mean RMSD: 0.097
data_MOF--net-hwx--node1-OJICUG_clean_sbu_0--node2-VETTIZ_charged_linker_0--edge1-OJICUG_clean_linker_0
_symmetry_space_group_name_H-M    P1
_symmetry_Int_Tables_number       1
_symmetry_cell_setting            triclinic
loop_
_symmetry_equiv_pos_as_xyz
'x, y, z'
_cell_length_a     47.631238
_cell_length_b     47.501809
_cell_length_c     21.765346
_cell_angle_alpha  90.394688
_cell_angle_beta   89.739417
_cell_angle_gamma 89.957826
loop_
_atom_site_label
_atom_site_type_symbol
_atom_site_fract_x
_atom_site_fract_y
_atom_site_fract_z
_atom_type_partial_charge
Sc0 Sc 0.23218 0.23871 0.08087 0.0
Sc1 Sc 0.18562 0.18822 0.01895 0.0
Sc2 Sc 0.22874 0.22943 0.92182 0.0
O3 O 0.21549 0.21873 0.00719 0.0
C4 C 0.2254 0.28932 0.98817 0.0
C5 C 0.16769 0.23383 0.11923 0.0
C6 C 0.16247 0.22238 0.9045 0.0
C7 C 0.22926 0.17523 0.12598 0.0
C8 C 0.28613 0.23149 -0.00523 0.0
C9 C 0.22364 0.1624 0.91238 0.0
O10 O 0.22613 0.27948 0.04216 0.0
O11 O 0.16177 0.21346 0.08344 0.0
O12 O 0.18624 0.23267 0.89021 0.0
O13 O 0.23982 0.19977 0.12661 0.0
O14 O 0.27254 0.22761 0.94538 0.0
O15 O 0.20611 0.15947 0.95602 0.0
O16 O 0.27427 0.23631 0.0461 0.0
O17 O 0.20895 0.16822 0.09137 0.0
O18 O 0.23257 0.18619 0.89467 0.0
O19 O 0.19219 0.244 0.12386 0.0
O20 O 0.2271 0.27401 0.9402 0.0
O21 O 0.15903 0.20502 0.94805 0.0
Sc22 Sc 0.26315 0.73262 0.41126 0.0
Sc23 Sc 0.30476 0.68861 0.50463 0.0
Sc24 Sc 0.2562 0.73633 0.57081 0.0
O25 O 0.27476 0.71916 0.49554 0.0
C26 C 0.26304 0.79013 0.48541 0.0
C27 C 0.3298 0.72631 0.39782 0.0
C28 C 0.31998 0.73215 0.61185 0.0
C29 C 0.26886 0.66624 0.39127 0.0
C30 C 0.20431 0.73035 0.4816 0.0
C31 C 0.26026 0.67141 0.60651 0.0
O32 O 0.26639 0.77632 0.4358 0.0
O33 O 0.33303 0.70895 0.44137 0.0
O34 O 0.29587 0.74354 0.61359 0.0
O35 O 0.25853 0.69019 0.37878 0.0
O36 O 0.21492 0.73067 0.53492 0.0
O37 O 0.27976 0.66495 0.56894 0.0
O38 O 0.21889 0.73204 0.4327 0.0
O39 O 0.28689 0.66251 0.43331 0.0
O40 O 0.25108 0.6963 0.61325 0.0
O41 O 0.30596 0.73542 0.38123 0.0
O42 O 0.25833 0.77855 0.53679 0.0
O43 O 0.32593 0.71129 0.57716 0.0
Sc44 Sc 0.76207 0.75796 0.91508 0.0
Sc45 Sc 0.80502 0.80502 -0.00133 0.0
Sc46 Sc 0.75702 0.76045 0.07515 0.0
O47 O 0.77473 0.77451 -0.00368 0.0
C48 C 0.70411 0.76238 0.98636 0.0
C49 C 0.76781 0.82347 0.88562 0.0
C50 C 0.76149 0.8265 0.1007 0.0
C51 C 0.82821 0.76308 0.89521 0.0
C52 C 0.76302 0.70346 -0.00053 0.0
C53 C 0.82173 0.76614 0.11045 0.0
O54 O 0.71831 0.76278 0.93688 0.0
O55 O 0.78446 0.82968 0.9291 0.0
O56 O 0.7497 0.80272 0.10787 0.0
O57 O 0.80466 0.75136 0.88536 0.0
O58 O 0.76254 0.71686 0.05017 0.0
O59 O 0.8285 0.78338 0.06854 0.0
O60 O 0.76208 0.71544 0.94757 0.0
O61 O 0.83122 0.78368 0.93214 0.0
O62 O 0.79678 0.75772 0.11924 0.0
O63 O 0.75966 0.79856 0.87426 0.0
O64 O 0.71516 0.76071 0.03917 0.0
O65 O 0.78251 0.83005 0.06546 0.0
Sc66 Sc 0.72803 0.26694 0.55646 0.0
Sc67 Sc 0.684 0.30504 0.45616 0.0
Sc68 Sc 0.7312 0.25398 0.39809 0.0
O69 O 0.71434 0.27531 0.47028 0.0
C70 C 0.78528 0.26199 0.48147 0.0
C71 C 0.72314 0.33377 0.5577 0.0
C72 C 0.72724 0.31652 0.34671 0.0
C73 C 0.66204 0.27593 0.57765 0.0
C74 C 0.72361 0.20566 0.4975 0.0
C75 C 0.66668 0.25717 0.36033 0.0
O76 O 0.7716 0.26547 0.53104 0.0
O77 O 0.70375 0.33511 0.51775 0.0
O78 O 0.73768 0.29189 0.34699 0.0
O79 O 0.68629 0.26783 0.59394 0.0
O80 O 0.72619 0.21426 0.44265 0.0
O81 O 0.66071 0.27864 0.39308 0.0
O82 O 0.72388 0.22198 0.54414 0.0
O83 O 0.65734 0.28888 0.52792 0.0
O84 O 0.69114 0.24671 0.35753 0.0
O85 O 0.73395 0.31074 0.57519 0.0
O86 O 0.77352 0.25797 0.43001 0.0
O87 O 0.70745 0.32418 0.38254 0.0
C88 C 0.21935 0.56738 0.79223 0.0
C89 C 0.21909 0.59693 0.79006 0.0
C90 C 0.21448 0.61252 0.84444 0.0
C91 C 0.21408 0.56964 0.903 0.0
C92 C 0.21648 0.55416 0.84928 0.0
C93 C 0.21667 0.52297 0.86118 0.0
H94 H 0.22856 0.41726 0.06508 0.0
C95 C 0.21536 0.5501 0.95492 0.0
C96 C 0.21646 0.52269 0.9311 0.0
H97 H 0.21162 0.41142 0.87004 0.0
H98 H 0.21156 0.46195 0.86324 0.0
H99 H 0.27208 0.46852 0.05874 0.0
H100 H 0.18262 0.46737 0.09137 0.0
H101 H 0.19864 0.48973 0.14583 0.0
H102 H 0.20748 0.45289 0.14437 0.0
H103 H 0.2574 0.45693 0.13032 0.0
H104 H 0.26444 0.49363 0.11602 0.0
C105 C 0.24417 0.51044 0.83439 0.0
C106 C 0.18954 0.51003 0.83367 0.0
C107 C 0.22845 0.59044 0.16775 0.0
C108 C 0.2354 0.57874 0.22461 0.0
C109 C 0.23783 0.54927 0.22961 0.0
C110 C 0.2333 0.53177 0.17817 0.0
C111 C 0.22667 0.54401 0.12126 0.0
C112 C 0.22442 0.57292 0.11712 0.0
C113 C 0.2194 0.58278 0.05292 0.0
C114 C 0.21861 0.55498 0.01873 0.0
C115 C 0.22265 0.53231 0.05873 0.0
C116 C 0.24484 0.60127 0.03358 0.0
C117 C 0.19056 0.59795 0.05146 0.0
C118 C 0.22451 0.42679 0.02095 0.0
C119 C 0.22023 0.41019 0.96797 0.0
C120 C 0.21549 0.42361 0.91136 0.0
C121 C 0.21517 0.45298 0.90752 0.0
C122 C 0.21949 0.46915 0.96078 0.0
C123 C 0.22369 0.45609 0.01645 0.0
C124 C 0.22667 0.47682 0.06861 0.0
C125 C 0.22283 0.50441 0.03506 0.0
C126 C 0.21925 0.49971 0.97176 0.0
C127 C 0.25659 0.47386 0.09544 0.0
C128 C 0.20277 0.47149 0.11549 0.0
H129 H 0.20938 0.61215 0.94072 0.0
H130 H 0.22235 0.55498 0.75076 0.0
H131 H 0.17316 0.52626 0.82531 0.0
H132 H 0.17946 0.49487 0.86537 0.0
H133 H 0.19383 0.49934 0.78906 0.0
H134 H 0.26249 0.5235 0.84824 0.0
H135 H 0.24351 0.5098 0.78339 0.0
H136 H 0.24855 0.48898 0.85079 0.0
H137 H 0.22729 0.61306 0.16194 0.0
H138 H 0.2433 0.53984 0.27313 0.0
H139 H 0.23549 0.50949 0.18443 0.0
H140 H 0.26447 0.59422 0.05636 0.0
H141 H 0.24144 0.62368 0.04644 0.0
H142 H 0.24978 0.59993 0.98409 0.0
H143 H 0.1756 0.58844 0.08481 0.0
H144 H 0.17999 0.59596 0.00649 0.0
H145 H 0.19267 0.6206 0.06358 0.0
H146 H 0.21432 0.63533 0.84386 0.0
C147 C 0.21189 0.59904 0.9008 0.0
C148 C 0.06729 0.7276 0.52261 0.0
C149 C 0.08346 0.72521 0.46843 0.0
C150 C 0.06964 0.72181 0.41172 0.0
C151 C 0.02461 0.72368 0.46319 0.0
C152 C 0.03802 0.72639 0.519 0.0
C153 C 0.01768 0.72737 0.57215 0.0
H154 H 0.88224 0.72207 0.66833 0.0
C155 C 0.99424 0.72266 0.47497 0.0
C156 C 0.98995 0.72413 0.53885 0.0
H157 H 0.9554 0.73698 0.78044 0.0
H158 H 0.98543 0.73204 0.69029 0.0
H159 H 0.89729 0.76235 0.57432 0.0
H160 H 0.90898 0.67309 0.57806 0.0
H161 H 0.89813 0.68122 0.50313 0.0
H162 H 0.87564 0.68994 0.56751 0.0
H163 H 0.87013 0.73866 0.55057 0.0
H164 H 0.8956 0.75239 0.49701 0.0
C165 C 0.0203 0.75646 0.60412 0.0
C166 C 0.02379 0.7021 0.61454 0.0
C167 C 0.92567 0.72736 0.29741 0.0
C168 C 0.8962 0.7269 0.2958 0.0
C169 C 0.88098 0.72118 0.34992 0.0
C170 C 0.89477 0.71724 0.40548 0.0
C171 C 0.9241 0.71923 0.40724 0.0
C172 C 0.9392 0.72321 0.35366 0.0
C173 C 0.97036 0.72328 0.3648 0.0
C174 C 0.97109 0.72098 0.43449 0.0
C175 C 0.94394 0.71887 0.45869 0.0
C176 C 0.98239 0.7517 0.34236 0.0
C177 C 0.98332 0.69705 0.33247 0.0
C178 C 0.9048 0.72343 0.67401 0.0
C179 C 0.91657 0.72931 0.73153 0.0
C180 C 0.94593 0.73223 0.73642 0.0
C181 C 0.96324 0.72943 0.68412 0.0
C182 C 0.95089 0.72418 0.62647 0.0
C183 C 0.9221 0.72132 0.62253 0.0
C184 C 0.91197 0.71847 0.55781 0.0
C185 C 0.93946 0.71966 0.523 0.0
C186 C 0.96227 0.72267 0.56311 0.0
C187 C 0.89262 0.74405 0.54386 0.0
C188 C 0.89771 0.68929 0.55088 0.0
H189 H 0.0311 0.7186 0.36441 0.0
H190 H 0.07711 0.73051 0.56696 0.0
H191 H 0.02772 0.68271 0.58683 0.0
H192 H 0.00604 0.69696 0.64517 0.0
H193 H 0.04267 0.7061 0.64305 0.0
H194 H 0.02485 0.77324 0.57006 0.0
H195 H 0.03758 0.75652 0.63822 0.0
H196 H 0.00066 0.76321 0.62702 0.0
H197 H 0.93779 0.73123 0.2561 0.0
H198 H 0.85823 0.72089 0.3498 0.0
H199 H 0.88193 0.71367 0.44521 0.0
H200 H 0.96927 0.7695 0.35954 0.0
H201 H 0.98269 0.75255 0.29136 0.0
H202 H 0.00385 0.75582 0.35889 0.0
H203 H 0.96721 0.68084 0.32156 0.0
H204 H -0.00135 0.68608 0.3621 0.0
H205 H 0.99375 0.70278 0.28855 0.0
H206 H 0.08144 0.71925 0.36941 0.0
C207 C 0.04035 0.72112 0.40885 0.0
C208 C 0.76373 0.41936 0.15416 0.0
C209 C 0.76356 0.38974 0.15258 0.0
C210 C 0.76761 0.37566 0.09606 0.0
C211 C 0.76915 0.4202 0.04335 0.0
C212 C 0.76673 0.43414 0.09902 0.0
C213 C 0.76655 0.46562 0.09142 0.0
H214 H 0.76742 0.57751 0.90069 0.0
C215 C 0.76902 0.44135 -0.00573 0.0
C216 C 0.76785 0.46804 0.02184 0.0
H217 H 0.76612 0.57761 0.09976 0.0
H218 H 0.76707 0.52704 0.09955 0.0
H219 H 0.81085 0.52375 0.87792 0.0
H220 H 0.72084 0.53195 0.88905 0.0
H221 H 0.7278 0.50437 0.83717 0.0
H222 H 0.73963 0.53955 0.81955 0.0
H223 H 0.79008 0.54355 0.82465 0.0
H224 H 0.79498 0.50628 0.81494 0.0
C225 C 0.79323 0.47764 0.12251 0.0
C226 C 0.73857 0.4772 0.11797 0.0
C227 C 0.76177 0.40806 0.77435 0.0
C228 C 0.75658 0.42175 0.71875 0.0
C229 C 0.75518 0.45136 0.71777 0.0
C230 C 0.75909 0.46708 0.77213 0.0
C231 C 0.76373 0.45288 0.82784 0.0
C232 C 0.7649 0.42383 0.82797 0.0
C233 C 0.76751 0.41187 0.89117 0.0
C234 C 0.76787 0.43852 0.92953 0.0
C235 C 0.76601 0.46249 0.89246 0.0
C236 C 0.7958 0.39577 0.89475 0.0
C237 C 0.74104 0.39365 0.90388 0.0
C238 C 0.76715 0.56677 0.94438 0.0
C239 C 0.76692 0.58187 0.00033 0.0
C240 C 0.76693 0.56674 0.05591 0.0
C241 C 0.76723 0.53727 0.05578 0.0
C242 C 0.76712 0.52263 -0.00046 0.0
C243 C 0.76694 0.53735 0.94506 0.0
C244 C 0.76532 0.51825 0.88974 0.0
C245 C 0.76595 0.48963 0.92005 0.0
C246 C 0.76691 0.49235 0.98437 0.0
C247 C 0.79159 0.52318 0.84921 0.0
C248 C 0.7371 0.52379 0.85663 0.0
H249 H 0.77282 0.37869 2e-05 0.0
H250 H 0.76107 0.43072 0.1971 0.0
H251 H 0.72088 0.4628 0.10675 0.0
H252 H 0.73251 0.4977 0.09845 0.0
H253 H 0.73956 0.47927 0.16878 0.0
H254 H 0.81104 0.46252 0.11893 0.0
H255 H 0.78949 0.48196 0.17209 0.0
H256 H 0.80103 0.49697 0.10027 0.0
H257 H 0.76215 0.38527 0.77665 0.0
H258 H 0.75099 0.46221 0.67517 0.0
H259 H 0.75792 0.48959 0.76898 0.0
H260 H 0.81208 0.40586 0.86545 0.0
H261 H 0.79348 0.37364 0.87874 0.0
H262 H 0.80485 0.39593 0.94145 0.0
H263 H 0.72234 0.4022 0.87983 0.0
H264 H 0.73476 0.39342 0.95273 0.0
H265 H 0.74412 0.37164 0.88766 0.0
H266 H 0.76732 0.35288 0.09347 0.0
C267 C 0.77052 0.39071 0.0416 0.0
C268 C 0.0636 0.272 0.30972 0.0
C269 C 0.09306 0.27259 0.30719 0.0
C270 C 0.10841 0.27698 0.36157 0.0
C271 C 0.06545 0.27658 0.42065 0.0
C272 C 0.05023 0.27434 0.367 0.0
C273 C 0.01911 0.27366 0.37911 0.0
H274 H 0.91241 0.25857 0.58138 0.0
C275 C 0.04575 0.27483 0.47269 0.0
C276 C 0.01855 0.27352 0.44906 0.0
H277 H 0.90847 0.27568 0.3864 0.0
H278 H 0.95869 0.27779 0.38126 0.0
H279 H 0.96557 0.21637 0.57521 0.0
H280 H 0.9622 0.30603 0.61001 0.0
H281 H 0.98384 0.28968 0.66489 0.0
H282 H 0.94718 0.28074 0.66161 0.0
H283 H 0.95204 0.23057 0.64607 0.0
H284 H 0.98912 0.22467 0.63456 0.0
C285 C 0.00722 0.24601 0.35155 0.0
C286 C 0.00593 0.30084 0.35242 0.0
C287 C 0.08559 0.2616 0.68447 0.0
C288 C 0.07401 0.25443 0.7415 0.0
C289 C 0.04464 0.25157 0.74706 0.0
C290 C 0.02715 0.256 0.696 0.0
C291 C 0.0393 0.26288 0.63889 0.0
C292 C 0.06811 0.2655 0.63429 0.0
C293 C 0.07802 0.27083 0.57012 0.0
C294 C 0.05039 0.27141 0.53638 0.0
C295 C 0.02767 0.26696 0.57655 0.0
C296 C 0.09683 0.2456 0.54999 0.0
C297 C 0.09277 0.29994 0.56901 0.0
C298 C 0.92239 0.263 0.53771 0.0
C299 C 0.90637 0.26647 0.48401 0.0
C300 C 0.92024 0.27216 0.42811 0.0
C301 C 0.94946 0.27366 0.4252 0.0
C302 C 0.96514 0.26958 0.47869 0.0
C303 C 0.9517 0.26485 0.53403 0.0
C304 C 0.97216 0.26206 0.58629 0.0
C305 C -0.0001 0.26652 0.55302 0.0
C306 C -0.0045 0.27031 0.48981 0.0
C307 C 0.96963 0.23196 0.61252 0.0
C308 C 0.96609 0.28572 0.63367 0.0
H309 H 0.10771 0.28141 0.45805 0.0
H310 H 0.05138 0.26916 0.2683 0.0
H311 H 0.02193 0.31744 0.3439 0.0
H312 H 0.99072 0.31074 0.38469 0.0
H313 H 0.99529 0.29657 0.308 0.0
H314 H 0.02069 0.22782 0.36418 0.0
H315 H 0.00648 0.24705 0.30061 0.0
H316 H 0.98598 0.24093 0.36848 0.0
H317 H 0.10813 0.26308 0.67816 0.0
H318 H 0.03531 0.2459 0.79072 0.0
H319 H 0.00494 0.25354 0.70266 0.0
H320 H 0.09017 0.22579 0.57287 0.0
H321 H 0.11915 0.24932 0.5621 0.0
H322 H 0.09547 0.24063 0.50051 0.0
H323 H 0.08297 0.31475 0.60267 0.0
H324 H 0.09081 0.31062 0.52422 0.0
H325 H 0.11534 0.29806 0.58092 0.0
H326 H 0.13116 0.27738 0.3607 0.0
C327 C 0.09477 0.27905 0.41819 0.0
C328 C 0.72896 0.92824 0.69949 0.0
C329 C 0.7289 0.8987 0.70223 0.0
C330 C 0.72334 0.88285 0.64877 0.0
C331 C 0.72026 0.92549 0.58987 0.0
C332 C 0.72426 0.94121 0.64276 0.0
C333 C 0.72328 0.97235 0.63037 0.0
H334 H 0.72439 0.07755 0.42332 0.0
C335 C 0.71885 0.94486 0.53769 0.0
C336 C 0.72032 0.97237 0.56072 0.0
H337 H 0.71521 0.08365 0.62114 0.0
H338 H 0.71671 0.03322 0.6284 0.0
H339 H 0.76896 0.02657 0.42045 0.0
H340 H 0.67843 0.02606 0.40794 0.0
H341 H 0.69287 0.00438 0.34971 0.0
H342 H 0.70054 0.04144 0.35011 0.0
H343 H 0.75108 0.03834 0.35286 0.0
H344 H 0.75909 0.00163 0.36457 0.0
C345 C 0.75144 0.98548 0.65117 0.0
C346 C 0.69706 0.98489 0.66324 0.0
C347 C 0.72214 0.90349 0.32397 0.0
C348 C 0.72696 0.91481 0.26564 0.0
C349 C 0.72886 0.94429 0.25932 0.0
C350 C 0.72616 0.96212 0.31097 0.0
C351 C 0.72199 0.95023 0.36943 0.0
C352 C 0.72009 0.92134 0.37476 0.0
C353 C 0.71829 0.9118 0.44001 0.0
C354 C 0.71905 0.93975 0.47356 0.0
C355 C 0.72085 0.96229 0.43237 0.0
C356 C 0.74455 0.89334 0.45349 0.0
C357 C 0.68971 0.89672 0.44898 0.0
C358 C 0.72233 0.06812 0.46825 0.0
C359 C 0.71986 0.08486 0.52177 0.0
C360 C 0.71773 0.07147 0.57924 0.0
C361 C 0.7183 0.04211 0.58344 0.0
C362 C 0.72079 0.02584 0.52968 0.0
C363 C 0.72232 0.03879 0.4732 0.0
C364 C 0.72347 0.01788 0.42087 0.0
C365 C 0.72166 0.99032 0.45545 0.0
C366 C 0.72079 0.99523 0.51924 0.0
C367 C 0.752 0.02124 0.38735 0.0
C368 C 0.69761 0.02263 0.37947 0.0
H369 H 0.71542 0.88275 0.55366 0.0
H370 H 0.73273 0.94082 0.74032 0.0
H371 H 0.68148 0.96838 0.67539 0.0
H372 H 0.6854 -0.00035 0.63348 0.0
H373 H 0.70287 0.99591 0.70652 0.0
H374 H 0.76942 0.97281 0.63343 0.0
H375 H 0.75282 0.98612 0.7021 0.0
H376 H 0.75461 0.00703 0.63395 0.0
H377 H 0.72156 0.88091 0.33076 0.0
H378 H 0.73277 0.95344 0.21466 0.0
H379 H 0.72799 0.98437 0.30367 0.0
H380 H 0.76238 0.89849 0.42232 0.0
H381 H 0.73988 0.8706 0.44734 0.0
H382 H 0.75314 0.89684 0.49998 0.0
H383 H 0.67299 0.907 0.4215 0.0
H384 H 0.68198 0.89774 0.49692 0.0
H385 H 0.69093 0.87434 0.43405 0.0
H386 H 0.72336 0.86004 0.64984 0.0
C387 C 0.71894 0.89607 0.59277 0.0
C388 C 0.5631 0.21458 0.17438 0.0
C389 C 0.59258 0.21366 0.1769 0.0
C390 C 0.60799 0.20757 0.123 0.0
C391 C 0.56527 0.20779 0.06394 0.0
C392 C 0.54986 0.21126 0.11736 0.0
C393 C 0.51879 0.21235 0.10494 0.0
H394 H 0.41443 0.23225 0.90067 0.0
C395 C 0.546 0.20985 0.0116 0.0
C396 C 0.51867 0.2121 0.03493 0.0
H397 H 0.40761 0.21155 0.0936 0.0
H398 H 0.45785 0.20796 0.10039 0.0
H399 H 0.4656 0.27297 0.91264 0.0
H400 H 0.46414 0.18439 0.86822 0.0
H401 H 0.48566 0.20242 0.81506 0.0
H402 H 0.449 0.21113 0.82065 0.0
H403 H 0.45755 0.26065 0.83667 0.0
H404 H 0.49328 0.26667 0.8609 0.0
C405 C 0.50697 0.24026 0.13162 0.0
C406 C 0.50501 0.18555 0.1322 0.0
C407 C 0.58796 0.22879 0.80296 0.0
C408 C 0.57722 0.24128 0.74975 0.0
C409 C 0.54789 0.2443 0.74387 0.0
C410 C 0.52982 0.2366 0.79224 0.0
C411 C 0.5413 0.2262 0.84712 0.0
C412 C 0.56995 0.22235 0.85138 0.0
C413 C 0.57919 0.21428 0.91461 0.0
C414 C 0.55129 0.21406 0.9482 0.0
C415 C 0.5291 0.22039 0.90835 0.0
C416 C 0.5996 0.23734 0.93933 0.0
C417 C 0.59206 0.18437 0.9109 0.0
C418 C 0.42375 0.22665 0.94421 0.0
C419 C 0.407 0.22256 -0.00316 0.0
C420 C 0.42002 0.21548 0.05272 0.0
C421 C 0.44918 0.21315 0.05661 0.0
C422 C 0.4656 0.21793 0.00418 0.0
C423 C 0.45294 0.22402 0.94885 0.0
C424 C 0.47402 0.22759 0.89776 0.0
C425 C 0.5012 0.22145 0.93135 0.0
C426 C 0.49607 0.21658 -0.00603 0.0
C427 C 0.47257 0.25845 0.87523 0.0
C428 C 0.46796 0.20536 0.84733 0.0
H429 H 0.60737 0.2008 0.02699 0.0
H430 H 0.55081 0.21856 0.21551 0.0
H431 H 0.52077 0.16903 0.14304 0.0
H432 H 0.49042 0.17536 0.0993 0.0
H433 H 0.49347 0.19041 0.17546 0.0
H434 H 0.52017 0.25834 0.11693 0.0
H435 H 0.50673 0.23985 0.18264 0.0
H436 H 0.48545 0.24484 0.1161 0.0
H437 H 0.61031 0.22557 0.80862 0.0
H438 H 0.53902 0.25375 0.70318 0.0
H439 H 0.50774 0.23998 0.78596 0.0
H440 H 0.5991 0.25684 0.91134 0.0
H441 H 0.62167 0.2298 0.93935 0.0
H442 H 0.59398 0.24468 0.98615 0.0
H443 H 0.57947 0.17056 0.88005 0.0
H444 H 0.59219 0.17363 0.9558 0.0
H445 H 0.61382 0.18504 0.89237 0.0
H446 H 0.63072 0.20671 0.12379 0.0
C447 C 0.59447 0.20449 0.06665 0.0
C448 C 0.26645 0.07193 0.31609 0.0
C449 C 0.26724 0.10152 0.31604 0.0
C450 C 0.27251 0.11611 0.37136 0.0
C451 C 0.27312 0.07221 0.42646 0.0
C452 C 0.26964 0.05772 0.3718 0.0
C453 C 0.26869 0.02636 0.3812 0.0
H454 H 0.26751 0.91686 0.5781 0.0
C455 C 0.27276 0.0517 0.47673 0.0
C456 C 0.2706 0.02476 0.45079 0.0
H457 H 0.26692 0.91449 0.37914 0.0
H458 H 0.26855 0.96506 0.37649 0.0
H459 H 0.31228 0.96925 0.5968 0.0
H460 H 0.22209 0.96402 0.58837 0.0
H461 H 0.2299 0.99201 0.63839 0.0
H462 H 0.2407 0.95673 0.65789 0.0
H463 H 0.29093 0.95106 0.65203 0.0
H464 H 0.29721 0.98824 0.65892 0.0
C465 C 0.29468 0.01313 0.34896 0.0
C466 C 0.24012 0.01534 0.35731 0.0
C467 C 0.26615 0.08782 0.69465 0.0
C468 C 0.26031 0.07495 0.75101 0.0
C469 C 0.2585 0.04538 0.75375 0.0
C470 C 0.26237 0.02893 0.70037 0.0
C471 C 0.26746 0.04234 0.64386 0.0
C472 C 0.26927 0.07133 0.64203 0.0
C473 C 0.27221 0.08246 0.57811 0.0
C474 C 0.27189 0.05536 0.54132 0.0
C475 C 0.26945 0.03192 0.57982 0.0
C476 C 0.30091 0.09771 0.57312 0.0
C477 C 0.24623 0.10126 0.56484 0.0
C478 C 0.26753 0.92716 0.53388 0.0
C479 C 0.26731 0.91149 0.47876 0.0
C480 C 0.26767 0.92591 0.42232 0.0
C481 C 0.2684 0.95534 0.42081 0.0
C482 C 0.26845 0.97059 0.47625 0.0
C483 C 0.26791 0.95653 0.53157 0.0
C484 C 0.26696 0.97629 0.58583 0.0
C485 C 0.26845 0.00449 0.55385 0.0
C486 C 0.26912 0.00098 0.4897 0.0
C487 C 0.29312 0.97098 0.62599 0.0
C488 C 0.2386 0.97208 0.61991 0.0
H489 H 0.27875 0.11402 0.46711 0.0
H490 H 0.26287 0.06019 0.27401 0.0
H491 H 0.22286 0.02998 0.37069 0.0
H492 H 0.23416 0.9948 0.37679 0.0
H493 H 0.24022 0.01353 0.3064 0.0
H494 H 0.31253 0.02821 0.34725 0.0
H495 H 0.28983 0.00682 0.30094 0.0
H496 H 0.30304 0.99474 0.37386 0.0
H497 H 0.26679 0.11055 0.69081 0.0
H498 H 0.25386 0.03512 0.7969 0.0
H499 H 0.26073 0.00651 0.70484 0.0
H500 H 0.31687 0.08767 0.60308 0.0
H501 H 0.29913 0.12013 0.58741 0.0
H502 H 0.31007 0.09652 0.52638 0.0
H503 H 0.22727 0.09339 0.58933 0.0
H504 H 0.24008 0.1013 0.51605 0.0
H505 H 0.24981 0.1233 0.58021 0.0
H506 H 0.27301 0.13891 0.37261 0.0
C507 C 0.27557 0.10162 0.42641 0.0
C508 C 0.567 0.76637 0.02708 0.0
C509 C 0.58316 0.76544 0.97276 0.0
C510 C 0.56927 0.76509 0.91562 0.0
C511 C 0.52424 0.76695 0.9673 0.0
C512 C 0.53775 0.76685 0.0233 0.0
C513 C 0.51754 0.76654 0.07661 0.0
H514 H 0.38272 0.76859 0.17482 0.0
C515 C 0.49383 0.76821 0.97924 0.0
C516 C 0.48974 0.76813 0.04323 0.0
H517 H 0.45676 0.75498 0.28456 0.0
H518 H 0.48623 0.76127 0.19406 0.0
H519 H 0.40628 0.81817 0.09082 0.0
H520 H 0.40092 0.72842 0.07181 0.0
H521 H 0.39221 0.74214 -7e-05 0.0
H522 H 0.37106 0.75127 0.0658 0.0
H523 H 0.37436 0.8009 0.06897 0.0
H524 H 0.3999 0.81206 0.0125 0.0
C525 C 0.52272 0.79299 0.11681 0.0
C526 C 0.52113 0.73831 0.11117 0.0
C527 C 0.4245 0.76666 0.80224 0.0
C528 C 0.39506 0.76867 0.80087 0.0
C529 C 0.38025 0.77478 0.85553 0.0
C530 C 0.39432 0.77749 0.91124 0.0
C531 C 0.42351 0.77383 0.91263 0.0
C532 C 0.43831 0.7696 0.85864 0.0
C533 C 0.46945 0.76778 0.8695 0.0
C534 C 0.47051 0.77004 0.93918 0.0
C535 C 0.44349 0.77308 0.96385 0.0
C536 C 0.48362 0.79327 0.83785 0.0
C537 C 0.47988 0.73871 0.84616 0.0
C538 C 0.40533 0.76766 0.17983 0.0
C539 C 0.41754 0.76175 0.23676 0.0
C540 C 0.44698 0.75963 0.24096 0.0
C541 C 0.46393 0.76315 0.18848 0.0
C542 C 0.45116 0.76824 0.13136 0.0
C543 C 0.42231 0.77046 0.1281 0.0
C544 C 0.41186 0.77349 0.06368 0.0
C545 C 0.43922 0.77258 0.02824 0.0
C546 C 0.46219 0.76983 0.06786 0.0
C547 C 0.39713 0.80251 0.05836 0.0
C548 C 0.39286 0.74773 0.04913 0.0
H549 H 0.53067 0.76565 0.86785 0.0
H550 H 0.57682 0.76688 0.07182 0.0
H551 H 0.52957 0.72149 0.0804 0.0
H552 H 0.50094 0.72981 0.12816 0.0
H553 H 0.53586 0.74058 0.15031 0.0
H554 H 0.52478 0.812 0.08755 0.0
H555 H 0.54236 0.79081 0.14368 0.0
H556 H 0.50529 0.79742 0.14903 0.0
H557 H 0.4364 0.76242 0.76066 0.0
H558 H 0.35755 0.77622 0.85572 0.0
H559 H 0.38174 0.78137 0.95136 0.0
H560 H 0.46917 0.81167 0.83602 0.0
H561 H 0.4899 0.78805 0.7899 0.0
H562 H 0.50212 0.80111 0.8632 0.0
H563 H 0.46467 0.72191 0.85871 0.0
H564 H 0.49997 0.73224 0.8668 0.0
H565 H 0.48221 0.73849 0.79535 0.0
H566 H 0.58103 0.7637 0.87302 0.0
C567 C 0.53996 0.76601 0.91263 0.0
C568 C 0.12078 0.23124 0.17182 0.0
C569 C 0.14567 0.246 0.15921 0.0
H570 H 0.08418 0.22844 0.22912 0.0
C571 C 0.15045 0.27199 0.18871 0.0
H572 H 0.11642 0.21129 0.14941 0.0
C573 C 0.13198 0.28183 0.23363 0.0
C574 C 0.10838 0.26592 0.24994 0.0
H575 H 0.16909 0.28425 0.17895 0.0
H576 H 0.13691 0.30119 0.25788 0.0
C577 C 0.10224 0.24114 0.21703 0.0
C578 C 0.26189 0.62426 0.65763 0.0
C579 C 0.2476 0.64945 0.64526 0.0
H580 H 0.26369 0.58742 0.71381 0.0
C581 C 0.22144 0.65452 0.67345 0.0
H582 H 0.28195 0.61971 0.6361 0.0
C583 C 0.21093 0.636 0.71703 0.0
C584 C 0.22637 0.61211 0.7334 0.0
H585 H 0.20954 0.6734 0.66364 0.0
H586 H 0.19142 0.64114 0.74038 0.0
C587 C 0.25135 0.6057 0.70162 0.0
C588 C 0.86827 0.76929 0.16363 0.0
C589 C 0.84349 0.75444 0.15068 0.0
H590 H 0.9048 0.77194 0.22065 0.0
C591 C 0.83869 0.72839 0.17904 0.0
H592 H 0.87255 0.78929 0.1419 0.0
C593 C 0.85716 0.71837 0.22298 0.0
C594 C 0.8807 0.73426 0.23975 0.0
H595 H 0.82014 0.71608 0.16867 0.0
H596 H 0.85233 0.69878 0.24597 0.0
C597 C 0.88677 0.75927 0.20819 0.0
C598 C 0.71591 0.3832 0.59674 0.0
C599 C 0.73353 0.3598 0.58715 0.0
H600 H 0.70978 0.42195 0.64657 0.0
C601 C 0.76081 0.36021 0.6114 0.0
H602 H 0.69485 0.38346 0.57823 0.0
C603 C 0.76939 0.38222 0.64934 0.0
C604 C 0.75083 0.40419 0.66411 0.0
H605 H 0.77509 0.34275 0.60363 0.0
H606 H 0.78985 0.38107 0.67079 0.0
C607 C 0.72451 0.40528 0.63534 0.0
C608 C 0.64982 0.21742 0.29488 0.0
C609 C 0.64484 0.24403 0.32157 0.0
H610 H 0.63661 0.18656 0.22916 0.0
C611 C 0.61994 0.2584 0.30727 0.0
H612 H 0.66848 0.20545 0.30593 0.0
C613 C 0.60157 0.24738 0.26326 0.0
C614 C 0.60786 0.22185 0.23315 0.0
H615 H 0.61541 0.27882 0.32742 0.0
H616 H 0.5835 0.25972 0.24987 0.0
C617 C 0.63153 0.20646 0.25114 0.0
C618 C 0.21861 0.11272 0.87372 0.0
C619 C 0.23478 0.13726 0.88061 0.0
H620 H 0.21434 0.07309 0.82662 0.0
C621 C 0.26157 0.13844 0.85358 0.0
H622 H 0.19799 0.11122 0.89464 0.0
C623 C 0.27108 0.11657 0.81614 0.0
C624 C 0.25385 0.09324 0.80429 0.0
H625 H 0.27481 0.1568 0.85947 0.0
H626 H 0.2912 0.11872 0.79319 0.0
C627 C 0.22805 0.09083 0.83541 0.0
C628 C 0.35332 0.76351 0.33677 0.0
C629 C 0.35469 0.73707 0.36507 0.0
H630 H 0.373 0.79262 0.27593 0.0
C631 C 0.37933 0.72096 0.35927 0.0
H632 H 0.3349 0.77674 0.3418 0.0
C633 C 0.40122 0.7301 0.32116 0.0
C634 C 0.39875 0.75555 0.28908 0.0
H635 H 0.38099 0.70062 0.38118 0.0
H636 H 0.41911 0.71641 0.3135 0.0
C637 C 0.3752 0.77272 0.29952 0.0
C638 C 0.7297 0.84185 0.8202 0.0
C639 C 0.75619 0.84587 0.84696 0.0
H640 H 0.69985 0.85626 0.75465 0.0
C641 C 0.77154 0.87029 0.83337 0.0
H642 H 0.71706 0.82359 0.83118 0.0
C643 C 0.76156 0.88909 0.78923 0.0
C644 C 0.73612 0.88364 0.75892 0.0
H645 H 0.79189 0.87395 0.85394 0.0
H646 H 0.77458 0.90673 0.77586 0.0
C647 C 0.71973 0.86061 0.7768 0.0
C648 C 0.87754 0.76888 0.85599 0.0
C649 C 0.85301 0.75255 0.86099 0.0
H650 H 0.91733 0.77407 0.81096 0.0
C651 C 0.85187 0.72637 0.83068 0.0
H652 H 0.87917 0.78904 0.87927 0.0
C653 C 0.87386 0.71766 0.79268 0.0
C654 C 0.89736 0.73502 0.78369 0.0
H655 H 0.83357 0.71296 0.83467 0.0
H656 H 0.87184 0.69796 0.76769 0.0
C657 C 0.89954 0.7602 0.81746 0.0
C658 C 0.76208 0.33001 0.26586 0.0
C659 C 0.73835 0.33686 0.3016 0.0
H660 H 0.78916 0.34182 0.19184 0.0
C661 C 0.72492 0.36285 0.29228 0.0
H662 H 0.77326 0.31038 0.2725 0.0
C663 C 0.7341 0.38085 0.24586 0.0
C664 C 0.75689 0.37321 0.20808 0.0
H665 H 0.70672 0.36887 0.31927 0.0
H666 H 0.72248 0.40006 0.23761 0.0
C667 C 0.77126 0.348 0.21968 0.0
C668 C 0.11362 0.21498 0.86401 0.0
C669 C 0.13778 0.23182 0.86942 0.0
H670 H 0.07405 0.20908 0.8188 0.0
C671 C 0.13859 0.25793 0.83965 0.0
H672 H 0.11234 0.19487 0.88702 0.0
C673 C 0.11658 0.26627 0.80216 0.0
C674 C 0.09342 0.24851 0.7927 0.0
H675 H 0.15658 0.27173 0.84424 0.0
H676 H 0.11827 0.2861 0.77812 0.0
C677 C 0.09161 0.22322 0.82559 0.0
C678 C 0.27532 0.61728 0.34895 0.0
C679 C 0.25894 0.64178 0.35531 0.0
H680 H 0.28055 0.57769 0.30208 0.0
C681 C 0.23296 0.64324 0.32527 0.0
H682 H 0.29533 0.61549 0.37207 0.0
C683 C 0.22433 0.62153 0.28657 0.0
C684 C 0.24164 0.59801 0.27635 0.0
H685 H 0.21951 0.66152 0.33048 0.0
H686 H 0.20463 0.62372 0.26235 0.0
C687 C 0.26677 0.59555 0.30946 0.0
C688 C 0.36617 0.72799 0.666 0.0
C689 C 0.34164 0.74338 0.65364 0.0
H690 H 0.4026 0.72416 0.72271 0.0
C691 C 0.33717 0.7692 0.6841 0.0
H692 H 0.37032 0.70814 0.64291 0.0
C693 C 0.35575 0.77846 0.72904 0.0
C694 C 0.37913 0.76207 0.74461 0.0
H695 H 0.3188 0.7819 0.67471 0.0
H696 H 0.3512 0.7979 0.75348 0.0
C697 C 0.38477 0.73727 0.71127 0.0
C698 C 0.7252 0.84889 0.16868 0.0
C699 C 0.75064 0.85095 0.13609 0.0
H700 H 0.6972 0.86812 0.23359 0.0
C701 C 0.76599 0.87623 0.13954 0.0
H702 H 0.71253 0.83 0.16614 0.0
C703 C 0.75712 0.89814 0.17827 0.0
C704 C 0.73272 0.89517 0.21402 0.0
H705 H 0.78555 0.87864 0.11453 0.0
H706 H 0.77028 0.9166 0.18315 0.0
C707 C 0.71631 0.8708 0.20703 0.0
C708 C 0.61305 0.25915 0.59837 0.0
C709 C 0.63861 0.27017 0.61971 0.0
H710 H 0.5735 0.24059 0.6231 0.0
C711 C 0.64264 0.27396 0.68285 0.0
H712 H 0.6096 0.25608 0.54961 0.0
C713 C 0.622 0.26586 0.72436 0.0
C714 C 0.59715 0.2529 0.70386 0.0
H715 H 0.66199 0.28291 0.70021 0.0
H716 H 0.62584 0.26924 0.77287 0.0
C717 C 0.59247 0.25035 0.6403 0.0
C718 C 0.26582 0.16018 0.2007 0.0
C719 C 0.24086 0.1543 0.16886 0.0
H720 H 0.29421 0.14754 0.27112 0.0
C721 C 0.22666 0.12895 0.18054 0.0
H722 H 0.27761 0.17924 0.19199 0.0
C723 C 0.23626 0.11077 0.22604 0.0
C724 C 0.26023 0.11764 0.26041 0.0
H725 H 0.20749 0.12371 0.15646 0.0
H726 H 0.22406 0.09218 0.23663 0.0
C727 C 0.27541 0.14201 0.24592 0.0
C728 C 0.23336 0.3334 0.92871 0.0
C729 C 0.22293 0.32001 0.98135 0.0
H730 H 0.24156 0.37245 0.88402 0.0
C731 C 0.21083 0.33629 0.02859 0.0
H732 H 0.24297 0.32132 0.89181 0.0
C733 C 0.20946 0.36547 0.02365 0.0
C734 C 0.22061 0.37905 0.97182 0.0
H735 H 0.20228 0.32646 0.06937 0.0
H736 H 0.19958 0.37736 0.06048 0.0
C737 C 0.23243 0.36267 0.92421 0.0
C738 C 0.15945 0.73984 0.42661 0.0
C739 C 0.17359 0.72822 0.47681 0.0
H740 H 0.11986 0.74901 0.3857 0.0
C741 C 0.15808 0.71516 0.52361 0.0
H742 H 0.17093 0.75025 0.3902 0.0
C743 C 0.12891 0.71384 0.52044 0.0
C744 C 0.11457 0.72602 0.47095 0.0
H745 H 0.16853 0.70573 0.56253 0.0
H746 H 0.11765 0.70307 0.55666 0.0
C747 C 0.1302 0.739 0.42399 0.0
C748 C 0.75066 0.65695 0.95409 0.0
C749 C 0.76405 0.67252 0.00043 0.0
H750 H 0.73994 0.61639 0.91917 0.0
C751 C 0.77831 0.65829 0.04715 0.0
H752 H 0.7392 0.66746 0.91796 0.0
C753 C 0.77955 0.62889 0.04687 0.0
C754 C 0.76598 0.61317 0.00063 0.0
H755 H 0.78898 0.66989 0.08315 0.0
H756 H 0.79147 0.61858 0.08247 0.0
C757 C 0.75131 0.62764 0.95459 0.0
C758 C 0.83192 0.25059 0.43521 0.0
C759 C 0.81622 0.26244 0.48361 0.0
H760 H 0.87258 0.24167 0.39855 0.0
C761 C 0.83035 0.27472 0.53361 0.0
H762 H 0.82166 0.2406 0.39648 0.0
C763 C 0.85967 0.27573 0.53436 0.0
C764 C 0.87535 0.26426 0.48538 0.0
H765 H 0.81878 0.28408 0.57153 0.0
H766 H 0.86998 0.28611 0.57252 0.0
C767 C 0.86113 0.25131 0.43631 0.0
C768 C 0.73254 0.16215 0.55818 0.0
C769 C 0.72083 0.17514 0.50662 0.0
H770 H 0.74246 0.12341 0.60233 0.0
C771 C 0.70774 0.15852 0.46156 0.0
H772 H 0.74297 0.17454 0.59327 0.0
C773 C 0.70679 0.12935 0.46733 0.0
C774 C 0.71947 0.11607 0.51765 0.0
H775 H 0.69824 0.16811 0.42167 0.0
H776 H 0.69614 0.11725 0.43213 0.0
C777 C 0.73213 0.13286 0.56335 0.0
C778 C 0.33143 0.21781 0.94335 0.0
C779 C 0.31709 0.23018 0.99326 0.0
H780 H 0.37117 0.20523 0.90574 0.0
C781 C 0.3326 0.24091 0.04291 0.0
H782 H 0.32004 0.20928 0.9045 0.0
C783 C 0.36174 0.2389 0.04326 0.0
C784 C 0.37611 0.22586 -0.00572 0.0
H785 H 0.32223 0.25091 0.08173 0.0
H786 H 0.37304 0.24761 0.08205 0.0
C787 C 0.3607 0.21559 0.94395 0.0
C788 C 0.27964 0.83475 0.43733 0.0
C789 C 0.26425 0.82106 0.4834 0.0
H790 H 0.29351 0.87403 0.4009 0.0
C791 C 0.24984 0.83716 0.52771 0.0
H792 H 0.29114 0.82279 0.4029 0.0
C793 C 0.25061 0.86645 0.52577 0.0
C794 C 0.26627 0.8803 0.48016 0.0
H795 H 0.23753 0.82712 0.56334 0.0
H796 H 0.2386 0.87819 0.55965 0.0
C797 C 0.28085 0.8641 0.43603 0.0
C798 C 0.66003 0.77738 0.93429 0.0
C799 C 0.67332 0.76325 0.98251 0.0
H800 H 0.62117 0.79011 0.89459 0.0
C801 C 0.65696 0.74971 0.02714 0.0
H802 H 0.67225 0.78817 0.89955 0.0
C803 C 0.62777 0.75008 0.02342 0.0
C804 C 0.61428 0.76458 0.97576 0.0
H805 H 0.66674 0.73834 0.06436 0.0
H806 H 0.61586 0.73868 0.05764 0.0
C807 C 0.63078 0.7783 0.9313 0.0
loop_
_geom_bond_atom_site_label_1
_geom_bond_atom_site_label_2
_geom_bond_distance
_geom_bond_site_symmetry_2
_ccdc_geom_bond_type
Sc0 O3 2.025 . S
Sc0 O10 2.105 . S
Sc0 O13 2.105 . S
Sc0 O16 2.105 . S
Sc0 O19 2.105 . S
Sc1 O3 2.025 . S
Sc1 O11 2.105 . S
Sc1 O15 2.105 1_554 S
Sc1 O17 2.105 . S
Sc1 O21 2.105 1_554 S
Sc2 O3 2.025 1_556 S
Sc2 O12 2.105 . S
Sc2 O14 2.105 . S
Sc2 O18 2.105 . S
Sc2 O20 2.105 . S
O3 Sc0 2.025 . S
O3 Sc1 2.025 . S
O3 Sc2 2.025 1_554 S
C4 O10 1.268 . S
C4 O20 1.268 1_554 S
C5 O11 1.268 . S
C5 O19 1.268 . S
C6 O12 1.268 . S
C6 O21 1.268 . S
C7 O13 1.268 . S
C7 O17 1.268 . S
C8 O14 1.268 1_554 S
C8 O16 1.268 . S
C9 O15 1.268 . S
C9 O18 1.268 . S
O10 Sc0 2.105 . S
O10 C4 1.268 . S
O11 Sc1 2.105 . S
O11 C5 1.268 . S
O12 Sc2 2.105 . S
O12 C6 1.268 . S
O13 Sc0 2.105 . S
O13 C7 1.268 . S
O14 Sc2 2.105 . S
O14 C8 1.268 1_556 S
O15 Sc1 2.105 1_556 S
O15 C9 1.268 . S
O16 Sc0 2.105 . S
O16 C8 1.268 . S
O17 Sc1 2.105 . S
O17 C7 1.268 . S
O18 Sc2 2.105 . S
O18 C9 1.268 . S
O19 Sc0 2.105 . S
O19 C5 1.268 . S
O20 Sc2 2.105 . S
O20 C4 1.268 1_556 S
O21 Sc1 2.105 1_556 S
O21 C6 1.268 . S
Sc22 O25 2.025 . S
Sc22 O32 2.105 . S
Sc22 O35 2.105 . S
Sc22 O38 2.105 . S
Sc22 O41 2.105 . S
Sc23 O25 2.025 . S
Sc23 O33 2.105 . S
Sc23 O37 2.105 . S
Sc23 O39 2.105 . S
Sc23 O43 2.105 . S
Sc24 O25 2.025 . S
Sc24 O34 2.105 . S
Sc24 O36 2.105 . S
Sc24 O40 2.105 . S
Sc24 O42 2.105 . S
O25 Sc22 2.025 . S
O25 Sc23 2.025 . S
O25 Sc24 2.025 . S
C26 O32 1.268 . S
C26 O42 1.268 . S
C27 O33 1.268 . S
C27 O41 1.268 . S
C28 O34 1.268 . S
C28 O43 1.268 . S
C29 O35 1.268 . S
C29 O39 1.268 . S
C30 O36 1.268 . S
C30 O38 1.268 . S
C31 O37 1.268 . S
C31 O40 1.268 . S
O32 Sc22 2.105 . S
O32 C26 1.268 . S
O33 Sc23 2.105 . S
O33 C27 1.268 . S
O34 Sc24 2.105 . S
O34 C28 1.268 . S
O35 Sc22 2.105 . S
O35 C29 1.268 . S
O36 Sc24 2.105 . S
O36 C30 1.268 . S
O37 Sc23 2.105 . S
O37 C31 1.268 . S
O38 Sc22 2.105 . S
O38 C30 1.268 . S
O39 Sc23 2.105 . S
O39 C29 1.268 . S
O40 Sc24 2.105 . S
O40 C31 1.268 . S
O41 Sc22 2.105 . S
O41 C27 1.268 . S
O42 Sc24 2.105 . S
O42 C26 1.268 . S
O43 Sc23 2.105 . S
O43 C28 1.268 . S
Sc44 O47 2.025 1_556 S
Sc44 O54 2.105 . S
Sc44 O57 2.105 . S
Sc44 O60 2.105 . S
Sc44 O63 2.105 . S
Sc45 O47 2.025 . S
Sc45 O55 2.105 1_554 S
Sc45 O59 2.105 . S
Sc45 O61 2.105 1_554 S
Sc45 O65 2.105 . S
Sc46 O47 2.025 . S
Sc46 O56 2.105 . S
Sc46 O58 2.105 . S
Sc46 O62 2.105 . S
Sc46 O64 2.105 . S
O47 Sc44 2.025 1_554 S
O47 Sc45 2.025 . S
O47 Sc46 2.025 . S
C48 O54 1.268 1_554 S
C48 O64 1.268 . S
C49 O55 1.268 . S
C49 O63 1.268 . S
C50 O56 1.268 . S
C50 O65 1.268 . S
C51 O57 1.268 . S
C51 O61 1.268 . S
C52 O58 1.268 . S
C52 O60 1.268 1_554 S
C53 O59 1.268 . S
C53 O62 1.268 . S
O54 Sc44 2.105 . S
O54 C48 1.268 1_556 S
O55 Sc45 2.105 1_556 S
O55 C49 1.268 . S
O56 Sc46 2.105 . S
O56 C50 1.268 . S
O57 Sc44 2.105 . S
O57 C51 1.268 . S
O58 Sc46 2.105 . S
O58 C52 1.268 . S
O59 Sc45 2.105 . S
O59 C53 1.268 . S
O60 Sc44 2.105 . S
O60 C52 1.268 1_556 S
O61 Sc45 2.105 1_556 S
O61 C51 1.268 . S
O62 Sc46 2.105 . S
O62 C53 1.268 . S
O63 Sc44 2.105 . S
O63 C49 1.268 . S
O64 Sc46 2.105 . S
O64 C48 1.268 . S
O65 Sc45 2.105 . S
O65 C50 1.268 . S
Sc66 O69 2.025 . S
Sc66 O76 2.105 . S
Sc66 O79 2.105 . S
Sc66 O82 2.105 . S
Sc66 O85 2.105 . S
Sc67 O69 2.025 . S
Sc67 O77 2.105 . S
Sc67 O81 2.105 . S
Sc67 O83 2.105 . S
Sc67 O87 2.105 . S
Sc68 O69 2.025 . S
Sc68 O78 2.105 . S
Sc68 O80 2.105 . S
Sc68 O84 2.105 . S
Sc68 O86 2.105 . S
O69 Sc66 2.025 . S
O69 Sc67 2.025 . S
O69 Sc68 2.025 . S
C70 O76 1.268 . S
C70 O86 1.268 . S
C71 O77 1.268 . S
C71 O85 1.268 . S
C72 O78 1.268 . S
C72 O87 1.268 . S
C73 O79 1.268 . S
C73 O83 1.268 . S
C74 O80 1.268 . S
C74 O82 1.268 . S
C75 O81 1.268 . S
C75 O84 1.268 . S
O76 Sc66 2.105 . S
O76 C70 1.268 . S
O77 Sc67 2.105 . S
O77 C71 1.268 . S
O78 Sc68 2.105 . S
O78 C72 1.268 . S
O79 Sc66 2.105 . S
O79 C73 1.268 . S
O80 Sc68 2.105 . S
O80 C74 1.268 . S
O81 Sc67 2.105 . S
O81 C75 1.268 . S
O82 Sc66 2.105 . S
O82 C74 1.268 . S
O83 Sc67 2.105 . S
O83 C73 1.268 . S
O84 Sc68 2.105 . S
O84 C75 1.268 . S
O85 Sc66 2.105 . S
O85 C71 1.268 . S
O86 Sc68 2.105 . S
O86 C70 1.268 . S
O87 Sc67 2.105 . S
O87 C72 1.268 . S
C88 C89 1.391 . S
C88 C92 1.391 . S
C88 H130 0.948 . S
C89 C88 1.391 . S
C89 C90 1.391 . S
C90 C89 1.391 . S
C90 H146 0.947 . S
C90 C147 1.392 . S
C91 C92 1.391 . S
C91 C95 1.397 . S
C91 C147 1.419 . S
C92 C88 1.391 . S
C92 C91 1.391 . S
C92 C93 1.399 . S
C93 C92 1.399 . S
C93 C96 1.396 . S
C93 C105 1.453 . S
C93 C106 1.684 . S
H94 C118 0.948 . S
C95 C91 1.397 . S
C95 C96 1.394 . S
C95 C114 1.723 1_556 S
C96 C93 1.396 . S
C96 C95 1.394 . S
C96 C126 1.723 . S
H97 C120 0.947 . S
H98 C121 0.948 . S
H99 C127 0.982 . S
H100 C128 0.979 . S
H101 C128 0.980 . S
H102 C128 0.983 . S
H103 C127 0.979 . S
H104 C127 0.977 . S
C105 C93 1.453 . S
C105 H134 0.982 . S
C105 H135 0.979 . S
C105 H136 0.977 . S
C106 C93 1.684 . S
C106 H131 0.979 . S
C106 H132 0.980 . S
C106 H133 0.983 . S
C107 C108 1.391 . S
C107 C112 1.391 . S
C107 H137 0.948 . S
C108 C107 1.391 . S
C108 C109 1.391 . S
C109 C108 1.391 . S
C109 C110 1.392 . S
C109 H138 0.947 . S
C110 C109 1.392 . S
C110 C111 1.419 . S
C110 H139 0.948 . S
C111 C110 1.419 . S
C111 C112 1.391 . S
C111 C115 1.397 . S
C112 C107 1.391 . S
C112 C111 1.391 . S
C112 C113 1.399 . S
C113 C112 1.399 . S
C113 C114 1.396 . S
C113 C116 1.453 . S
C113 C117 1.684 . S
C114 C95 1.723 1_554 S
C114 C113 1.396 . S
C114 C115 1.394 . S
C115 C111 1.397 . S
C115 C114 1.394 . S
C115 C125 1.723 . S
C116 C113 1.453 . S
C116 H140 0.982 . S
C116 H141 0.979 . S
C116 H142 0.977 1_554 S
C117 C113 1.684 . S
C117 H143 0.979 . S
C117 H144 0.980 1_554 S
C117 H145 0.983 . S
C118 H94 0.948 . S
C118 C119 1.391 1_554 S
C118 C123 1.391 . S
C119 C118 1.391 1_556 S
C119 C120 1.391 . S
C120 H97 0.947 . S
C120 C119 1.391 . S
C120 C121 1.392 . S
C121 H98 0.948 . S
C121 C120 1.392 . S
C121 C122 1.419 . S
C122 C121 1.419 . S
C122 C123 1.391 1_556 S
C122 C126 1.397 . S
C123 C118 1.391 . S
C123 C122 1.391 1_554 S
C123 C124 1.399 . S
C124 C123 1.399 . S
C124 C125 1.396 . S
C124 C127 1.453 . S
C124 C128 1.684 . S
C125 C115 1.723 . S
C125 C124 1.396 . S
C125 C126 1.394 1_554 S
C126 C96 1.723 . S
C126 C122 1.397 . S
C126 C125 1.394 1_556 S
C127 H99 0.982 . S
C127 H103 0.979 . S
C127 H104 0.977 . S
C127 C124 1.453 . S
C128 H100 0.979 . S
C128 H101 0.980 . S
C128 H102 0.983 . S
C128 C124 1.684 . S
H129 C147 0.948 . S
H130 C88 0.948 . S
H131 C106 0.979 . S
H132 C106 0.980 . S
H133 C106 0.983 . S
H134 C105 0.982 . S
H135 C105 0.979 . S
H136 C105 0.977 . S
H137 C107 0.948 . S
H138 C109 0.947 . S
H139 C110 0.948 . S
H140 C116 0.982 . S
H141 C116 0.979 . S
H142 C116 0.977 1_556 S
H143 C117 0.979 . S
H144 C117 0.980 1_556 S
H145 C117 0.983 . S
H146 C90 0.947 . S
C147 C90 1.392 . S
C147 C91 1.419 . S
C147 H129 0.948 . S
C148 C149 1.391 . S
C148 C152 1.391 . S
C148 H190 0.948 . S
C149 C148 1.391 . S
C149 C150 1.391 . S
C150 C149 1.391 . S
C150 H206 0.947 . S
C150 C207 1.392 . S
C151 C152 1.391 . S
C151 C155 1.397 . S
C151 C207 1.419 . S
C152 C148 1.391 . S
C152 C151 1.391 . S
C152 C153 1.399 . S
C153 C152 1.399 . S
C153 C156 1.396 . S
C153 C165 1.453 . S
C153 C166 1.684 . S
H154 C178 0.948 . S
C155 C151 1.397 . S
C155 C156 1.394 . S
C155 C174 1.723 1_455 S
C156 C153 1.396 . S
C156 C155 1.394 . S
C156 C186 1.723 1_455 S
H157 C180 0.947 . S
H158 C181 0.948 . S
H159 C187 0.982 . S
H160 C188 0.979 . S
H161 C188 0.980 . S
H162 C188 0.983 . S
H163 C187 0.979 . S
H164 C187 0.977 . S
C165 C153 1.453 . S
C165 H194 0.982 . S
C165 H195 0.979 . S
C165 H196 0.977 . S
C166 C153 1.684 . S
C166 H191 0.979 . S
C166 H192 0.980 . S
C166 H193 0.983 . S
C167 C168 1.391 . S
C167 C172 1.391 . S
C167 H197 0.948 . S
C168 C167 1.391 . S
C168 C169 1.391 . S
C169 C168 1.391 . S
C169 C170 1.392 . S
C169 H198 0.947 . S
C170 C169 1.392 . S
C170 C171 1.419 . S
C170 H199 0.948 . S
C171 C170 1.419 . S
C171 C172 1.391 . S
C171 C175 1.397 . S
C172 C167 1.391 . S
C172 C171 1.391 . S
C172 C173 1.399 . S
C173 C172 1.399 . S
C173 C174 1.396 . S
C173 C176 1.453 1_655 S
C173 C177 1.684 1_655 S
C174 C155 1.723 1_655 S
C174 C173 1.396 . S
C174 C175 1.394 . S
C175 C171 1.397 . S
C175 C174 1.394 . S
C175 C185 1.723 . S
C176 C173 1.453 1_455 S
C176 H200 0.982 . S
C176 H201 0.979 . S
C176 H202 0.977 . S
C177 C173 1.684 1_455 S
C177 H203 0.979 1_455 S
C177 H204 0.980 . S
C177 H205 0.983 . S
C178 H154 0.948 . S
C178 C179 1.391 . S
C178 C183 1.391 . S
C179 C178 1.391 . S
C179 C180 1.391 . S
C180 H157 0.947 . S
C180 C179 1.391 . S
C180 C181 1.392 . S
C181 H158 0.948 . S
C181 C180 1.392 . S
C181 C182 1.419 . S
C182 C181 1.419 . S
C182 C183 1.391 . S
C182 C186 1.397 . S
C183 C178 1.391 . S
C183 C182 1.391 . S
C183 C184 1.399 . S
C184 C183 1.399 . S
C184 C185 1.396 . S
C184 C187 1.453 . S
C184 C188 1.684 . S
C185 C175 1.723 . S
C185 C184 1.396 . S
C185 C186 1.394 . S
C186 C156 1.723 1_655 S
C186 C182 1.397 . S
C186 C185 1.394 . S
C187 H159 0.982 . S
C187 H163 0.979 . S
C187 H164 0.977 . S
C187 C184 1.453 . S
C188 H160 0.979 . S
C188 H161 0.980 . S
C188 H162 0.983 . S
C188 C184 1.684 . S
H189 C207 0.948 . S
H190 C148 0.948 . S
H191 C166 0.979 . S
H192 C166 0.980 . S
H193 C166 0.983 . S
H194 C165 0.982 . S
H195 C165 0.979 . S
H196 C165 0.977 . S
H197 C167 0.948 . S
H198 C169 0.947 . S
H199 C170 0.948 . S
H200 C176 0.982 . S
H201 C176 0.979 . S
H202 C176 0.977 . S
H203 C177 0.979 1_655 S
H204 C177 0.980 . S
H205 C177 0.983 . S
H206 C150 0.947 . S
C207 C150 1.392 . S
C207 C151 1.419 . S
C207 H189 0.948 . S
C208 C209 1.391 . S
C208 C212 1.391 . S
C208 H250 0.948 . S
C209 C208 1.391 . S
C209 C210 1.391 . S
C210 C209 1.391 . S
C210 H266 0.947 . S
C210 C267 1.392 . S
C211 C212 1.391 . S
C211 C215 1.397 . S
C211 C267 1.419 . S
C212 C208 1.391 . S
C212 C211 1.391 . S
C212 C213 1.399 . S
C213 C212 1.399 . S
C213 C216 1.396 . S
C213 C225 1.453 . S
C213 C226 1.684 . S
H214 C238 0.948 . S
C215 C211 1.397 . S
C215 C216 1.394 . S
C215 C234 1.723 1_554 S
C216 C213 1.396 . S
C216 C215 1.394 . S
C216 C246 1.723 . S
H217 C240 0.947 . S
H218 C241 0.948 . S
H219 C247 0.982 . S
H220 C248 0.979 . S
H221 C248 0.980 . S
H222 C248 0.983 . S
H223 C247 0.979 . S
H224 C247 0.977 . S
C225 C213 1.453 . S
C225 H254 0.982 . S
C225 H255 0.979 . S
C225 H256 0.977 . S
C226 C213 1.684 . S
C226 H251 0.979 . S
C226 H252 0.980 . S
C226 H253 0.983 . S
C227 C228 1.391 . S
C227 C232 1.391 . S
C227 H257 0.948 . S
C228 C227 1.391 . S
C228 C229 1.391 . S
C229 C228 1.391 . S
C229 C230 1.392 . S
C229 H258 0.947 . S
C230 C229 1.392 . S
C230 C231 1.419 . S
C230 H259 0.948 . S
C231 C230 1.419 . S
C231 C232 1.391 . S
C231 C235 1.397 . S
C232 C227 1.391 . S
C232 C231 1.391 . S
C232 C233 1.399 . S
C233 C232 1.399 . S
C233 C234 1.396 . S
C233 C236 1.453 . S
C233 C237 1.684 . S
C234 C215 1.723 1_556 S
C234 C233 1.396 . S
C234 C235 1.394 . S
C235 C231 1.397 . S
C235 C234 1.394 . S
C235 C245 1.723 . S
C236 C233 1.453 . S
C236 H260 0.982 . S
C236 H261 0.979 . S
C236 H262 0.977 1_556 S
C237 C233 1.684 . S
C237 H263 0.979 . S
C237 H264 0.980 1_556 S
C237 H265 0.983 . S
C238 H214 0.948 . S
C238 C239 1.391 1_556 S
C238 C243 1.391 . S
C239 C238 1.391 1_554 S
C239 C240 1.391 . S
C240 H217 0.947 . S
C240 C239 1.391 . S
C240 C241 1.392 . S
C241 H218 0.948 . S
C241 C240 1.392 . S
C241 C242 1.419 . S
C242 C241 1.419 . S
C242 C243 1.391 1_554 S
C242 C246 1.397 . S
C243 C238 1.391 . S
C243 C242 1.391 1_556 S
C243 C244 1.399 . S
C244 C243 1.399 . S
C244 C245 1.396 . S
C244 C247 1.453 . S
C244 C248 1.684 . S
C245 C235 1.723 . S
C245 C244 1.396 . S
C245 C246 1.394 1_556 S
C246 C216 1.723 . S
C246 C242 1.397 . S
C246 C245 1.394 1_554 S
C247 H219 0.982 . S
C247 H223 0.979 . S
C247 H224 0.977 . S
C247 C244 1.453 . S
C248 H220 0.979 . S
C248 H221 0.980 . S
C248 H222 0.983 . S
C248 C244 1.684 . S
H249 C267 0.948 . S
H250 C208 0.948 . S
H251 C226 0.979 . S
H252 C226 0.980 . S
H253 C226 0.983 . S
H254 C225 0.982 . S
H255 C225 0.979 . S
H256 C225 0.977 . S
H257 C227 0.948 . S
H258 C229 0.947 . S
H259 C230 0.948 . S
H260 C236 0.982 . S
H261 C236 0.979 . S
H262 C236 0.977 1_554 S
H263 C237 0.979 . S
H264 C237 0.980 1_554 S
H265 C237 0.983 . S
H266 C210 0.947 . S
C267 C210 1.392 . S
C267 C211 1.419 . S
C267 H249 0.948 . S
C268 C269 1.391 . S
C268 C272 1.391 . S
C268 H310 0.948 . S
C269 C268 1.391 . S
C269 C270 1.391 . S
C270 C269 1.391 . S
C270 H326 0.947 . S
C270 C327 1.392 . S
C271 C272 1.391 . S
C271 C275 1.397 . S
C271 C327 1.419 . S
C272 C268 1.391 . S
C272 C271 1.391 . S
C272 C273 1.399 . S
C273 C272 1.399 . S
C273 C276 1.396 . S
C273 C285 1.453 1_455 S
C273 C286 1.684 1_455 S
H274 C298 0.948 . S
C275 C271 1.397 . S
C275 C276 1.394 . S
C275 C294 1.723 . S
C276 C273 1.396 . S
C276 C275 1.394 . S
C276 C306 1.723 1_455 S
H277 C300 0.947 . S
H278 C301 0.948 . S
H279 C307 0.982 . S
H280 C308 0.979 . S
H281 C308 0.980 . S
H282 C308 0.983 . S
H283 C307 0.979 . S
H284 C307 0.977 . S
C285 C273 1.453 1_655 S
C285 H314 0.982 . S
C285 H315 0.979 . S
C285 H316 0.977 . S
C286 C273 1.684 1_655 S
C286 H311 0.979 1_655 S
C286 H312 0.980 . S
C286 H313 0.983 . S
C287 C288 1.391 . S
C287 C292 1.391 . S
C287 H317 0.948 . S
C288 C287 1.391 . S
C288 C289 1.391 . S
C289 C288 1.391 . S
C289 C290 1.392 . S
C289 H318 0.947 . S
C290 C289 1.392 . S
C290 C291 1.419 . S
C290 H319 0.948 . S
C291 C290 1.419 . S
C291 C292 1.391 . S
C291 C295 1.397 . S
C292 C287 1.391 . S
C292 C291 1.391 . S
C292 C293 1.399 . S
C293 C292 1.399 . S
C293 C294 1.396 . S
C293 C296 1.453 . S
C293 C297 1.684 . S
C294 C275 1.723 . S
C294 C293 1.396 . S
C294 C295 1.394 . S
C295 C291 1.397 . S
C295 C294 1.394 . S
C295 C305 1.723 1_455 S
C296 C293 1.453 . S
C296 H320 0.982 . S
C296 H321 0.979 . S
C296 H322 0.977 . S
C297 C293 1.684 . S
C297 H323 0.979 . S
C297 H324 0.980 . S
C297 H325 0.983 . S
C298 H274 0.948 . S
C298 C299 1.391 . S
C298 C303 1.391 . S
C299 C298 1.391 . S
C299 C300 1.391 . S
C300 H277 0.947 . S
C300 C299 1.391 . S
C300 C301 1.392 . S
C301 H278 0.948 . S
C301 C300 1.392 . S
C301 C302 1.419 . S
C302 C301 1.419 . S
C302 C303 1.391 . S
C302 C306 1.397 . S
C303 C298 1.391 . S
C303 C302 1.391 . S
C303 C304 1.399 . S
C304 C303 1.399 . S
C304 C305 1.396 . S
C304 C307 1.453 . S
C304 C308 1.684 . S
C305 C295 1.723 1_655 S
C305 C304 1.396 . S
C305 C306 1.394 . S
C306 C276 1.723 1_655 S
C306 C302 1.397 . S
C306 C305 1.394 . S
C307 H279 0.982 . S
C307 H283 0.979 . S
C307 H284 0.977 . S
C307 C304 1.453 . S
C308 H280 0.979 . S
C308 H281 0.980 . S
C308 H282 0.983 . S
C308 C304 1.684 . S
H309 C327 0.948 . S
H310 C268 0.948 . S
H311 C286 0.979 1_455 S
H312 C286 0.980 . S
H313 C286 0.983 . S
H314 C285 0.982 . S
H315 C285 0.979 . S
H316 C285 0.977 . S
H317 C287 0.948 . S
H318 C289 0.947 . S
H319 C290 0.948 . S
H320 C296 0.982 . S
H321 C296 0.979 . S
H322 C296 0.977 . S
H323 C297 0.979 . S
H324 C297 0.980 . S
H325 C297 0.983 . S
H326 C270 0.947 . S
C327 C270 1.392 . S
C327 C271 1.419 . S
C327 H309 0.948 . S
C328 C329 1.391 . S
C328 C332 1.391 . S
C328 H370 0.948 . S
C329 C328 1.391 . S
C329 C330 1.391 . S
C330 C329 1.391 . S
C330 H386 0.947 . S
C330 C387 1.392 . S
C331 C332 1.391 . S
C331 C335 1.397 . S
C331 C387 1.419 . S
C332 C328 1.391 . S
C332 C331 1.391 . S
C332 C333 1.399 . S
C333 C332 1.399 . S
C333 C336 1.396 . S
C333 C345 1.453 1_565 S
C333 C346 1.684 1_565 S
H334 C358 0.948 . S
C335 C331 1.397 . S
C335 C336 1.394 . S
C335 C354 1.723 . S
C336 C333 1.396 . S
C336 C335 1.394 . S
C336 C366 1.723 1_565 S
H337 C360 0.947 . S
H338 C361 0.948 . S
H339 C367 0.982 . S
H340 C368 0.979 . S
H341 C368 0.980 . S
H342 C368 0.983 . S
H343 C367 0.979 . S
H344 C367 0.977 . S
C345 C333 1.453 1_545 S
C345 H374 0.982 . S
C345 H375 0.979 . S
C345 H376 0.977 . S
C346 C333 1.684 1_545 S
C346 H371 0.979 1_545 S
C346 H372 0.980 . S
C346 H373 0.983 . S
C347 C348 1.391 . S
C347 C352 1.391 . S
C347 H377 0.948 . S
C348 C347 1.391 . S
C348 C349 1.391 . S
C349 C348 1.391 . S
C349 C350 1.392 . S
C349 H378 0.947 . S
C350 C349 1.392 . S
C350 C351 1.419 . S
C350 H379 0.948 . S
C351 C350 1.419 . S
C351 C352 1.391 . S
C351 C355 1.397 . S
C352 C347 1.391 . S
C352 C351 1.391 . S
C352 C353 1.399 . S
C353 C352 1.399 . S
C353 C354 1.396 . S
C353 C356 1.453 . S
C353 C357 1.684 . S
C354 C335 1.723 . S
C354 C353 1.396 . S
C354 C355 1.394 . S
C355 C351 1.397 . S
C355 C354 1.394 . S
C355 C365 1.723 1_565 S
C356 C353 1.453 . S
C356 H380 0.982 . S
C356 H381 0.979 . S
C356 H382 0.977 . S
C357 C353 1.684 . S
C357 H383 0.979 . S
C357 H384 0.980 . S
C357 H385 0.983 . S
C358 H334 0.948 . S
C358 C359 1.391 . S
C358 C363 1.391 . S
C359 C358 1.391 . S
C359 C360 1.391 . S
C360 H337 0.947 . S
C360 C359 1.391 . S
C360 C361 1.392 . S
C361 H338 0.948 . S
C361 C360 1.392 . S
C361 C362 1.419 . S
C362 C361 1.419 . S
C362 C363 1.391 . S
C362 C366 1.397 . S
C363 C358 1.391 . S
C363 C362 1.391 . S
C363 C364 1.399 . S
C364 C363 1.399 . S
C364 C365 1.396 . S
C364 C367 1.453 . S
C364 C368 1.684 . S
C365 C355 1.723 1_545 S
C365 C364 1.396 . S
C365 C366 1.394 . S
C366 C336 1.723 1_545 S
C366 C362 1.397 . S
C366 C365 1.394 . S
C367 H339 0.982 . S
C367 H343 0.979 . S
C367 H344 0.977 . S
C367 C364 1.453 . S
C368 H340 0.979 . S
C368 H341 0.980 . S
C368 H342 0.983 . S
C368 C364 1.684 . S
H369 C387 0.948 . S
H370 C328 0.948 . S
H371 C346 0.979 1_565 S
H372 C346 0.980 . S
H373 C346 0.983 . S
H374 C345 0.982 . S
H375 C345 0.979 . S
H376 C345 0.977 . S
H377 C347 0.948 . S
H378 C349 0.947 . S
H379 C350 0.948 . S
H380 C356 0.982 . S
H381 C356 0.979 . S
H382 C356 0.977 . S
H383 C357 0.979 . S
H384 C357 0.980 . S
H385 C357 0.983 . S
H386 C330 0.947 . S
C387 C330 1.392 . S
C387 C331 1.419 . S
C387 H369 0.948 . S
C388 C389 1.391 . S
C388 C392 1.391 . S
C388 H430 0.948 . S
C389 C388 1.391 . S
C389 C390 1.391 . S
C390 C389 1.391 . S
C390 H446 0.947 . S
C390 C447 1.392 . S
C391 C392 1.391 . S
C391 C395 1.397 . S
C391 C447 1.419 . S
C392 C388 1.391 . S
C392 C391 1.391 . S
C392 C393 1.399 . S
C393 C392 1.399 . S
C393 C396 1.396 . S
C393 C405 1.453 . S
C393 C406 1.684 . S
H394 C418 0.948 . S
C395 C391 1.397 . S
C395 C396 1.394 . S
C395 C414 1.723 1_554 S
C396 C393 1.396 . S
C396 C395 1.394 . S
C396 C426 1.723 . S
H397 C420 0.947 . S
H398 C421 0.948 . S
H399 C427 0.982 . S
H400 C428 0.979 . S
H401 C428 0.980 . S
H402 C428 0.983 . S
H403 C427 0.979 . S
H404 C427 0.977 . S
C405 C393 1.453 . S
C405 H434 0.982 . S
C405 H435 0.979 . S
C405 H436 0.977 . S
C406 C393 1.684 . S
C406 H431 0.979 . S
C406 H432 0.980 . S
C406 H433 0.983 . S
C407 C408 1.391 . S
C407 C412 1.391 . S
C407 H437 0.948 . S
C408 C407 1.391 . S
C408 C409 1.391 . S
C409 C408 1.391 . S
C409 C410 1.392 . S
C409 H438 0.947 . S
C410 C409 1.392 . S
C410 C411 1.419 . S
C410 H439 0.948 . S
C411 C410 1.419 . S
C411 C412 1.391 . S
C411 C415 1.397 . S
C412 C407 1.391 . S
C412 C411 1.391 . S
C412 C413 1.399 . S
C413 C412 1.399 . S
C413 C414 1.396 . S
C413 C416 1.453 . S
C413 C417 1.684 . S
C414 C395 1.723 1_556 S
C414 C413 1.396 . S
C414 C415 1.394 . S
C415 C411 1.397 . S
C415 C414 1.394 . S
C415 C425 1.723 . S
C416 C413 1.453 . S
C416 H440 0.982 . S
C416 H441 0.979 . S
C416 H442 0.977 1_556 S
C417 C413 1.684 . S
C417 H443 0.979 . S
C417 H444 0.980 1_556 S
C417 H445 0.983 . S
C418 H394 0.948 . S
C418 C419 1.391 1_556 S
C418 C423 1.391 . S
C419 C418 1.391 1_554 S
C419 C420 1.391 . S
C420 H397 0.947 . S
C420 C419 1.391 . S
C420 C421 1.392 . S
C421 H398 0.948 . S
C421 C420 1.392 . S
C421 C422 1.419 . S
C422 C421 1.419 . S
C422 C423 1.391 1_554 S
C422 C426 1.397 . S
C423 C418 1.391 . S
C423 C422 1.391 1_556 S
C423 C424 1.399 . S
C424 C423 1.399 . S
C424 C425 1.396 . S
C424 C427 1.453 . S
C424 C428 1.684 . S
C425 C415 1.723 . S
C425 C424 1.396 . S
C425 C426 1.394 1_556 S
C426 C396 1.723 . S
C426 C422 1.397 . S
C426 C425 1.394 1_554 S
C427 H399 0.982 . S
C427 H403 0.979 . S
C427 H404 0.977 . S
C427 C424 1.453 . S
C428 H400 0.979 . S
C428 H401 0.980 . S
C428 H402 0.983 . S
C428 C424 1.684 . S
H429 C447 0.948 . S
H430 C388 0.948 . S
H431 C406 0.979 . S
H432 C406 0.980 . S
H433 C406 0.983 . S
H434 C405 0.982 . S
H435 C405 0.979 . S
H436 C405 0.977 . S
H437 C407 0.948 . S
H438 C409 0.947 . S
H439 C410 0.948 . S
H440 C416 0.982 . S
H441 C416 0.979 . S
H442 C416 0.977 1_554 S
H443 C417 0.979 . S
H444 C417 0.980 1_554 S
H445 C417 0.983 . S
H446 C390 0.947 . S
C447 C390 1.392 . S
C447 C391 1.419 . S
C447 H429 0.948 . S
C448 C449 1.391 . S
C448 C452 1.391 . S
C448 H490 0.948 . S
C449 C448 1.391 . S
C449 C450 1.391 . S
C450 C449 1.391 . S
C450 H506 0.947 . S
C450 C507 1.392 . S
C451 C452 1.391 . S
C451 C455 1.397 . S
C451 C507 1.419 . S
C452 C448 1.391 . S
C452 C451 1.391 . S
C452 C453 1.399 . S
C453 C452 1.399 . S
C453 C456 1.396 . S
C453 C465 1.436 1_545 S
C453 C466 1.684 1_545 S
H454 C478 0.948 . S
C455 C451 1.397 . S
C455 C456 1.394 . S
C455 C474 1.723 . S
C456 C453 1.396 . S
C456 C455 1.394 . S
C456 C486 1.723 1_545 S
H457 C480 0.947 . S
H458 C481 0.948 . S
H459 C487 0.982 . S
H460 C488 0.979 . S
H461 C488 0.980 . S
H462 C488 0.983 . S
H463 C487 0.979 . S
H464 C487 0.977 . S
C465 C453 1.436 1_565 S
C465 H494 0.962 1_565 S
C465 H495 0.981 . S
C465 H496 1.015 . S
C466 C453 1.684 1_565 S
C466 H491 0.979 . S
C466 H492 0.980 . S
C466 H493 0.983 . S
C467 C468 1.391 . S
C467 C472 1.391 . S
C467 H497 0.948 . S
C468 C467 1.391 . S
C468 C469 1.391 . S
C469 C468 1.391 . S
C469 C470 1.392 . S
C469 H498 0.947 . S
C470 C469 1.392 . S
C470 C471 1.419 . S
C470 H499 0.948 . S
C471 C470 1.419 . S
C471 C472 1.391 . S
C471 C475 1.397 . S
C472 C467 1.391 . S
C472 C471 1.391 . S
C472 C473 1.399 . S
C473 C472 1.399 . S
C473 C474 1.396 . S
C473 C476 1.453 . S
C473 C477 1.684 . S
C474 C455 1.723 . S
C474 C473 1.396 . S
C474 C475 1.394 . S
C475 C471 1.397 . S
C475 C474 1.394 . S
C475 C485 1.723 1_545 S
C476 C473 1.453 . S
C476 H500 0.982 . S
C476 H501 0.979 . S
C476 H502 0.977 . S
C477 C473 1.684 . S
C477 H503 0.979 . S
C477 H504 0.980 . S
C477 H505 0.983 . S
C478 H454 0.948 . S
C478 C479 1.391 . S
C478 C483 1.391 . S
C479 C478 1.391 . S
C479 C480 1.391 . S
C480 H457 0.947 . S
C480 C479 1.391 . S
C480 C481 1.392 . S
C481 H458 0.948 . S
C481 C480 1.392 . S
C481 C482 1.419 . S
C482 C481 1.419 . S
C482 C483 1.391 . S
C482 C486 1.397 . S
C483 C478 1.391 . S
C483 C482 1.391 . S
C483 C484 1.399 . S
C484 C483 1.399 . S
C484 C485 1.396 . S
C484 C487 1.453 . S
C484 C488 1.684 . S
C485 C475 1.723 1_565 S
C485 C484 1.396 . S
C485 C486 1.394 . S
C486 C456 1.723 1_565 S
C486 C482 1.397 . S
C486 C485 1.394 . S
C487 H459 0.982 . S
C487 H463 0.979 . S
C487 H464 0.977 . S
C487 C484 1.453 . S
C488 H460 0.979 . S
C488 H461 0.980 . S
C488 H462 0.983 . S
C488 C484 1.684 . S
H489 C507 0.948 . S
H490 C448 0.948 . S
H491 C466 0.979 . S
H492 C466 0.980 . S
H493 C466 0.983 . S
H494 C465 0.962 1_545 S
H495 C465 0.981 . S
H496 C465 1.015 . S
H497 C467 0.948 . S
H498 C469 0.947 . S
H499 C470 0.948 . S
H500 C476 0.982 . S
H501 C476 0.979 . S
H502 C476 0.977 . S
H503 C477 0.979 . S
H504 C477 0.980 . S
H505 C477 0.983 . S
H506 C450 0.947 . S
C507 C450 1.392 . S
C507 C451 1.419 . S
C507 H489 0.948 . S
C508 C509 1.391 1_554 S
C508 C512 1.391 . S
C508 H550 0.948 . S
C509 C508 1.391 1_556 S
C509 C510 1.391 . S
C510 C509 1.391 . S
C510 H566 0.947 . S
C510 C567 1.392 . S
C511 C512 1.391 1_556 S
C511 C515 1.397 . S
C511 C567 1.419 . S
C512 C508 1.391 . S
C512 C511 1.391 1_554 S
C512 C513 1.399 . S
C513 C512 1.399 . S
C513 C516 1.396 . S
C513 C525 1.453 . S
C513 C526 1.684 . S
H514 C538 0.948 . S
C515 C511 1.397 . S
C515 C516 1.394 1_556 S
C515 C534 1.723 . S
C516 C513 1.396 . S
C516 C515 1.394 1_554 S
C516 C546 1.723 . S
H517 C540 0.947 . S
H518 C541 0.948 . S
H519 C547 0.982 . S
H520 C548 0.979 . S
H521 C548 0.980 1_556 S
H522 C548 0.983 . S
H523 C547 0.979 . S
H524 C547 0.977 1_556 S
C525 C513 1.453 . S
C525 H554 0.982 . S
C525 H555 0.979 . S
C525 H556 0.977 . S
C526 C513 1.684 . S
C526 H551 0.979 . S
C526 H552 0.980 . S
C526 H553 0.983 . S
C527 C528 1.391 . S
C527 C532 1.391 . S
C527 H557 0.948 . S
C528 C527 1.391 . S
C528 C529 1.391 . S
C529 C528 1.391 . S
C529 C530 1.392 . S
C529 H558 0.947 . S
C530 C529 1.392 . S
C530 C531 1.419 . S
C530 H559 0.948 . S
C531 C530 1.419 . S
C531 C532 1.391 . S
C531 C535 1.397 . S
C532 C527 1.391 . S
C532 C531 1.391 . S
C532 C533 1.399 . S
C533 C532 1.399 . S
C533 C534 1.396 . S
C533 C536 1.453 . S
C533 C537 1.684 . S
C534 C515 1.723 . S
C534 C533 1.396 . S
C534 C535 1.394 . S
C535 C531 1.397 . S
C535 C534 1.394 . S
C535 C545 1.723 1_556 S
C536 C533 1.453 . S
C536 H560 0.982 . S
C536 H561 0.979 . S
C536 H562 0.977 . S
C537 C533 1.684 . S
C537 H563 0.979 . S
C537 H564 0.980 . S
C537 H565 0.983 . S
C538 H514 0.948 . S
C538 C539 1.391 . S
C538 C543 1.391 . S
C539 C538 1.391 . S
C539 C540 1.391 . S
C540 H517 0.947 . S
C540 C539 1.391 . S
C540 C541 1.392 . S
C541 H518 0.948 . S
C541 C540 1.392 . S
C541 C542 1.419 . S
C542 C541 1.419 . S
C542 C543 1.391 . S
C542 C546 1.397 . S
C543 C538 1.391 . S
C543 C542 1.391 . S
C543 C544 1.399 . S
C544 C543 1.399 . S
C544 C545 1.396 . S
C544 C547 1.453 . S
C544 C548 1.684 . S
C545 C535 1.723 1_554 S
C545 C544 1.396 . S
C545 C546 1.394 . S
C546 C516 1.723 . S
C546 C542 1.397 . S
C546 C545 1.394 . S
C547 H519 0.982 . S
C547 H523 0.979 . S
C547 H524 0.977 1_554 S
C547 C544 1.453 . S
C548 H520 0.979 . S
C548 H521 0.980 1_554 S
C548 H522 0.983 . S
C548 C544 1.684 . S
H549 C567 0.948 . S
H550 C508 0.948 . S
H551 C526 0.979 . S
H552 C526 0.980 . S
H553 C526 0.983 . S
H554 C525 0.982 . S
H555 C525 0.979 . S
H556 C525 0.977 . S
H557 C527 0.948 . S
H558 C529 0.947 . S
H559 C530 0.948 . S
H560 C536 0.982 . S
H561 C536 0.979 . S
H562 C536 0.977 . S
H563 C537 0.979 . S
H564 C537 0.980 . S
H565 C537 0.983 . S
H566 C510 0.947 . S
C567 C510 1.392 . S
C567 C511 1.419 . S
C567 H549 0.948 . S
C568 C569 1.387 . S
C568 H572 0.950 . S
C568 C577 1.390 . S
C569 C568 1.387 . S
C569 C571 1.387 . S
H570 C577 0.950 . S
C571 C569 1.387 . S
C571 C573 1.390 . S
C571 H575 0.950 . S
H572 C568 0.950 . S
C573 C571 1.390 . S
C573 C574 1.387 . S
C573 H576 0.950 . S
C574 C573 1.387 . S
C574 C577 1.387 . S
H575 C571 0.950 . S
H576 C573 0.950 . S
C577 C568 1.390 . S
C577 H570 0.950 . S
C577 C574 1.387 . S
C578 C579 1.387 . S
C578 H582 0.950 . S
C578 C587 1.390 . S
C579 C578 1.387 . S
C579 C581 1.387 . S
H580 C587 0.950 . S
C581 C579 1.387 . S
C581 C583 1.390 . S
C581 H585 0.950 . S
H582 C578 0.950 . S
C583 C581 1.390 . S
C583 C584 1.387 . S
C583 H586 0.950 . S
C584 C583 1.387 . S
C584 C587 1.387 . S
H585 C581 0.950 . S
H586 C583 0.950 . S
C587 C578 1.390 . S
C587 H580 0.950 . S
C587 C584 1.387 . S
C588 C589 1.387 . S
C588 H592 0.950 . S
C588 C597 1.390 . S
C589 C588 1.387 . S
C589 C591 1.387 . S
H590 C597 0.950 . S
C591 C589 1.387 . S
C591 C593 1.390 . S
C591 H595 0.950 . S
H592 C588 0.950 . S
C593 C591 1.390 . S
C593 C594 1.387 . S
C593 H596 0.950 . S
C594 C593 1.387 . S
C594 C597 1.387 . S
H595 C591 0.950 . S
H596 C593 0.950 . S
C597 C588 1.390 . S
C597 H590 0.950 . S
C597 C594 1.387 . S
C598 C599 1.387 . S
C598 H602 0.950 . S
C598 C607 1.390 . S
C599 C598 1.387 . S
C599 C601 1.387 . S
H600 C607 0.950 . S
C601 C599 1.387 . S
C601 C603 1.390 . S
C601 H605 0.950 . S
H602 C598 0.950 . S
C603 C601 1.390 . S
C603 C604 1.387 . S
C603 H606 0.950 . S
C604 C603 1.387 . S
C604 C607 1.387 . S
H605 C601 0.950 . S
H606 C603 0.950 . S
C607 C598 1.390 . S
C607 H600 0.950 . S
C607 C604 1.387 . S
C608 C609 1.387 . S
C608 H612 0.950 . S
C608 C617 1.390 . S
C609 C608 1.387 . S
C609 C611 1.387 . S
H610 C617 0.950 . S
C611 C609 1.387 . S
C611 C613 1.390 . S
C611 H615 0.950 . S
H612 C608 0.950 . S
C613 C611 1.390 . S
C613 C614 1.387 . S
C613 H616 0.950 . S
C614 C613 1.387 . S
C614 C617 1.387 . S
H615 C611 0.950 . S
H616 C613 0.950 . S
C617 C608 1.390 . S
C617 H610 0.950 . S
C617 C614 1.387 . S
C618 C619 1.387 . S
C618 H622 0.950 . S
C618 C627 1.390 . S
C619 C618 1.387 . S
C619 C621 1.387 . S
H620 C627 0.950 . S
C621 C619 1.387 . S
C621 C623 1.390 . S
C621 H625 0.950 . S
H622 C618 0.950 . S
C623 C621 1.390 . S
C623 C624 1.387 . S
C623 H626 0.950 . S
C624 C623 1.387 . S
C624 C627 1.387 . S
H625 C621 0.950 . S
H626 C623 0.950 . S
C627 C618 1.390 . S
C627 H620 0.950 . S
C627 C624 1.387 . S
C628 C629 1.387 . S
C628 H632 0.950 . S
C628 C637 1.390 . S
C629 C628 1.387 . S
C629 C631 1.387 . S
H630 C637 0.950 . S
C631 C629 1.387 . S
C631 C633 1.390 . S
C631 H635 0.950 . S
H632 C628 0.950 . S
C633 C631 1.390 . S
C633 C634 1.387 . S
C633 H636 0.950 . S
C634 C633 1.387 . S
C634 C637 1.387 . S
H635 C631 0.950 . S
H636 C633 0.950 . S
C637 C628 1.390 . S
C637 H630 0.950 . S
C637 C634 1.387 . S
C638 C639 1.387 . S
C638 H642 0.950 . S
C638 C647 1.390 . S
C639 C638 1.387 . S
C639 C641 1.387 . S
H640 C647 0.950 . S
C641 C639 1.387 . S
C641 C643 1.390 . S
C641 H645 0.950 . S
H642 C638 0.950 . S
C643 C641 1.390 . S
C643 C644 1.387 . S
C643 H646 0.950 . S
C644 C643 1.387 . S
C644 C647 1.387 . S
H645 C641 0.950 . S
H646 C643 0.950 . S
C647 C638 1.390 . S
C647 H640 0.950 . S
C647 C644 1.387 . S
C648 C649 1.387 . S
C648 H652 0.950 . S
C648 C657 1.390 . S
C649 C648 1.387 . S
C649 C651 1.387 . S
H650 C657 0.950 . S
C651 C649 1.387 . S
C651 C653 1.390 . S
C651 H655 0.950 . S
H652 C648 0.950 . S
C653 C651 1.390 . S
C653 C654 1.387 . S
C653 H656 0.950 . S
C654 C653 1.387 . S
C654 C657 1.387 . S
H655 C651 0.950 . S
H656 C653 0.950 . S
C657 C648 1.390 . S
C657 H650 0.950 . S
C657 C654 1.387 . S
C658 C659 1.387 . S
C658 H662 0.950 . S
C658 C667 1.390 . S
C659 C658 1.387 . S
C659 C661 1.387 . S
H660 C667 0.950 . S
C661 C659 1.387 . S
C661 C663 1.390 . S
C661 H665 0.950 . S
H662 C658 0.950 . S
C663 C661 1.390 . S
C663 C664 1.387 . S
C663 H666 0.950 . S
C664 C663 1.387 . S
C664 C667 1.387 . S
H665 C661 0.950 . S
H666 C663 0.950 . S
C667 C658 1.390 . S
C667 H660 0.950 . S
C667 C664 1.387 . S
C668 C669 1.387 . S
C668 H672 0.950 . S
C668 C677 1.390 . S
C669 C668 1.387 . S
C669 C671 1.387 . S
H670 C677 0.950 . S
C671 C669 1.387 . S
C671 C673 1.390 . S
C671 H675 0.950 . S
H672 C668 0.950 . S
C673 C671 1.390 . S
C673 C674 1.387 . S
C673 H676 0.950 . S
C674 C673 1.387 . S
C674 C677 1.387 . S
H675 C671 0.950 . S
H676 C673 0.950 . S
C677 C668 1.390 . S
C677 H670 0.950 . S
C677 C674 1.387 . S
C678 C679 1.387 . S
C678 H682 0.950 . S
C678 C687 1.390 . S
C679 C678 1.387 . S
C679 C681 1.387 . S
H680 C687 0.950 . S
C681 C679 1.387 . S
C681 C683 1.390 . S
C681 H685 0.950 . S
H682 C678 0.950 . S
C683 C681 1.390 . S
C683 C684 1.387 . S
C683 H686 0.950 . S
C684 C683 1.387 . S
C684 C687 1.387 . S
H685 C681 0.950 . S
H686 C683 0.950 . S
C687 C678 1.390 . S
C687 H680 0.950 . S
C687 C684 1.387 . S
C688 C689 1.387 . S
C688 H692 0.950 . S
C688 C697 1.390 . S
C689 C688 1.387 . S
C689 C691 1.387 . S
H690 C697 0.950 . S
C691 C689 1.387 . S
C691 C693 1.390 . S
C691 H695 0.950 . S
H692 C688 0.950 . S
C693 C691 1.390 . S
C693 C694 1.387 . S
C693 H696 0.950 . S
C694 C693 1.387 . S
C694 C697 1.387 . S
H695 C691 0.950 . S
H696 C693 0.950 . S
C697 C688 1.390 . S
C697 H690 0.950 . S
C697 C694 1.387 . S
C698 C699 1.387 . S
C698 H702 0.950 . S
C698 C707 1.390 . S
C699 C698 1.387 . S
C699 C701 1.387 . S
H700 C707 0.950 . S
C701 C699 1.387 . S
C701 C703 1.390 . S
C701 H705 0.950 . S
H702 C698 0.950 . S
C703 C701 1.390 . S
C703 C704 1.387 . S
C703 H706 0.950 . S
C704 C703 1.387 . S
C704 C707 1.387 . S
H705 C701 0.950 . S
H706 C703 0.950 . S
C707 C698 1.390 . S
C707 H700 0.950 . S
C707 C704 1.387 . S
C708 C709 1.387 . S
C708 H712 0.950 . S
C708 C717 1.390 . S
C709 C708 1.387 . S
C709 C711 1.387 . S
H710 C717 0.950 . S
C711 C709 1.387 . S
C711 C713 1.390 . S
C711 H715 0.950 . S
H712 C708 0.950 . S
C713 C711 1.390 . S
C713 C714 1.387 . S
C713 H716 0.950 . S
C714 C713 1.387 . S
C714 C717 1.387 . S
H715 C711 0.950 . S
H716 C713 0.950 . S
C717 C708 1.390 . S
C717 H710 0.950 . S
C717 C714 1.387 . S
C718 C719 1.387 . S
C718 H722 0.950 . S
C718 C727 1.390 . S
C719 C718 1.387 . S
C719 C721 1.387 . S
H720 C727 0.950 . S
C721 C719 1.387 . S
C721 C723 1.390 . S
C721 H725 0.950 . S
H722 C718 0.950 . S
C723 C721 1.390 . S
C723 C724 1.387 . S
C723 H726 0.950 . S
C724 C723 1.387 . S
C724 C727 1.387 . S
H725 C721 0.950 . S
H726 C723 0.950 . S
C727 C718 1.390 . S
C727 H720 0.950 . S
C727 C724 1.387 . S
C728 C729 1.387 1_556 S
C728 H732 0.950 . S
C728 C737 1.390 . S
C729 C728 1.387 1_554 S
C729 C731 1.387 . S
H730 C737 0.950 . S
C731 C729 1.387 . S
C731 C733 1.390 . S
C731 H735 0.950 . S
H732 C728 0.950 . S
C733 C731 1.390 . S
C733 C734 1.387 . S
C733 H736 0.950 . S
C734 C733 1.387 . S
C734 C737 1.387 1_554 S
H735 C731 0.950 . S
H736 C733 0.950 . S
C737 C728 1.390 . S
C737 H730 0.950 . S
C737 C734 1.387 1_556 S
C738 C739 1.387 . S
C738 H742 0.950 . S
C738 C747 1.390 . S
C739 C738 1.387 . S
C739 C741 1.387 . S
H740 C747 0.950 . S
C741 C739 1.387 . S
C741 C743 1.390 . S
C741 H745 0.950 . S
H742 C738 0.950 . S
C743 C741 1.390 . S
C743 C744 1.387 . S
C743 H746 0.950 . S
C744 C743 1.387 . S
C744 C747 1.387 . S
H745 C741 0.950 . S
H746 C743 0.950 . S
C747 C738 1.390 . S
C747 H740 0.950 . S
C747 C744 1.387 . S
C748 C749 1.387 1_556 S
C748 H752 0.950 . S
C748 C757 1.390 . S
C749 C748 1.387 1_554 S
C749 C751 1.387 . S
H750 C757 0.950 . S
C751 C749 1.387 . S
C751 C753 1.390 . S
C751 H755 0.950 . S
H752 C748 0.950 . S
C753 C751 1.390 . S
C753 C754 1.387 . S
C753 H756 0.950 . S
C754 C753 1.387 . S
C754 C757 1.387 1_554 S
H755 C751 0.950 . S
H756 C753 0.950 . S
C757 C748 1.390 . S
C757 H750 0.950 . S
C757 C754 1.387 1_556 S
C758 C759 1.387 . S
C758 H762 0.950 . S
C758 C767 1.390 . S
C759 C758 1.387 . S
C759 C761 1.387 . S
H760 C767 0.950 . S
C761 C759 1.387 . S
C761 C763 1.390 . S
C761 H765 0.950 . S
H762 C758 0.950 . S
C763 C761 1.390 . S
C763 C764 1.387 . S
C763 H766 0.950 . S
C764 C763 1.387 . S
C764 C767 1.387 . S
H765 C761 0.950 . S
H766 C763 0.950 . S
C767 C758 1.390 . S
C767 H760 0.950 . S
C767 C764 1.387 . S
C768 C769 1.387 . S
C768 H772 0.950 . S
C768 C777 1.390 . S
C769 C768 1.387 . S
C769 C771 1.387 . S
H770 C777 0.950 . S
C771 C769 1.387 . S
C771 C773 1.390 . S
C771 H775 0.950 . S
H772 C768 0.950 . S
C773 C771 1.390 . S
C773 C774 1.387 . S
C773 H776 0.950 . S
C774 C773 1.387 . S
C774 C777 1.387 . S
H775 C771 0.950 . S
H776 C773 0.950 . S
C777 C768 1.390 . S
C777 H770 0.950 . S
C777 C774 1.387 . S
C778 C779 1.387 1_556 S
C778 H782 0.950 . S
C778 C787 1.390 . S
C779 C778 1.387 1_554 S
C779 C781 1.387 . S
H780 C787 0.950 . S
C781 C779 1.387 . S
C781 C783 1.390 . S
C781 H785 0.950 . S
H782 C778 0.950 . S
C783 C781 1.390 . S
C783 C784 1.387 . S
C783 H786 0.950 . S
C784 C783 1.387 . S
C784 C787 1.387 1_554 S
H785 C781 0.950 . S
H786 C783 0.950 . S
C787 C778 1.390 . S
C787 H780 0.950 . S
C787 C784 1.387 1_556 S
C788 C789 1.387 . S
C788 H792 0.950 . S
C788 C797 1.390 . S
C789 C788 1.387 . S
C789 C791 1.387 . S
H790 C797 0.950 . S
C791 C789 1.387 . S
C791 C793 1.390 . S
C791 H795 0.950 . S
H792 C788 0.950 . S
C793 C791 1.390 . S
C793 C794 1.387 . S
C793 H796 0.950 . S
C794 C793 1.387 . S
C794 C797 1.387 . S
H795 C791 0.950 . S
H796 C793 0.950 . S
C797 C788 1.390 . S
C797 H790 0.950 . S
C797 C794 1.387 . S
C798 C799 1.387 1_556 S
C798 H802 0.950 . S
C798 C807 1.390 . S
C799 C798 1.387 1_554 S
C799 C801 1.387 . S
H800 C807 0.950 . S
C801 C799 1.387 . S
C801 C803 1.390 . S
C801 H805 0.950 . S
H802 C798 0.950 . S
C803 C801 1.390 . S
C803 C804 1.387 . S
C803 H806 0.950 . S
C804 C803 1.387 . S
C804 C807 1.387 1_554 S
H805 C801 0.950 . S
H806 C803 0.950 . S
C807 C798 1.390 . S
C807 H800 0.950 . S
C807 C804 1.387 1_556 S
C569 C5 1.554 . S
C574 C269 1.475 . S
C579 C31 1.553 . S
C584 C89 1.478 . S
C594 C168 1.476 . S
C589 C53 1.552 . S
C599 C71 1.553 . S
C604 C228 1.516 . S
C614 C389 1.480 . S
C609 C75 1.551 . S
C624 C468 1.512 . S
C619 C9 1.554 . S
C634 C539 1.513 . S
C629 C27 1.551 . S
C644 C329 1.479 . S
C639 C49 1.554 . S
C649 C51 1.552 . S
C654 C179 1.559 . S
C659 C72 1.553 . S
C664 C209 1.427 . S
C669 C6 1.553 . S
C674 C288 1.559 . S
C684 C108 1.558 . S
C679 C29 1.551 . S
C689 C28 1.553 . S
C694 C528 1.435 . S
C704 C348 1.557 . S
C699 C50 1.552 . S
C714 C408 1.558 . S
C709 C73 1.554 . S
C719 C7 1.552 . S
C724 C449 1.428 . S
C734 C119 1.517 1_554 S
C729 C4 1.535 . S
C744 C149 1.517 . S
C739 C30 1.535 . S
C749 C52 1.535 . S
C754 C239 1.473 . S
C759 C70 1.535 . S
C764 C299 1.517 . S
C774 C359 1.517 . S
C769 C74 1.535 . S
C779 C8 1.535 . S
C784 C419 1.516 . S
C789 C26 1.536 . S
C794 C479 1.471 . S
C799 C48 1.536 . S
C804 C509 1.471 1_554 S
