# Generated by pormake.
# Topology hwx, (6,3)-cn, num edge types: 1
# Building blocks:
#     Node 0, Type 0, BuildingBlock: OJICUG_clean_sbu_0, # of connection points: 6
#     Node 1, Type 0, BuildingBlock: OJICUG_clean_sbu_0, # of connection points: 6
#     Node 2, Type 0, BuildingBlock: OJICUG_clean_sbu_0, # of connection points: 6
#     Node 3, Type 0, BuildingBlock: OJICUG_clean_sbu_0, # of connection points: 6
#     Node 4, Type 1, BuildingBlock: VETTIZ_charged_linker_0, # of connection points: 3
#     Node 5, Type 1, BuildingBlock: VETTIZ_charged_linker_0, # of connection points: 3
#     Node 6, Type 1, BuildingBlock: VETTIZ_charged_linker_0, # of connection points: 3
#     Node 7, Type 1, BuildingBlock: VETTIZ_charged_linker_0, # of connection points: 3
#     Node 8, Type 1, BuildingBlock: VETTIZ_charged_linker_0, # of connection points: 3
#     Node 9, Type 1, BuildingBlock: VETTIZ_charged_linker_0, # of connection points: 3
#     Node 10, Type 1, BuildingBlock: VETTIZ_charged_linker_0, # of connection points: 3
#     Node 11, Type 1, BuildingBlock: VETTIZ_charged_linker_0, # of connection points: 3
#     Edge 12, Type (0, 1), BuildingBlock: EZIPEK_clean_linker_0, # of connection points: 2
#     Edge 13, Type (0, 1), BuildingBlock: EZIPEK_clean_linker_0, # of connection points: 2
#     Edge 14, Type (0, 1), BuildingBlock: EZIPEK_clean_linker_0, # of connection points: 2
#     Edge 15, Type (0, 1), BuildingBlock: EZIPEK_clean_linker_0, # of connection points: 2
#     Edge 16, Type (0, 1), BuildingBlock: EZIPEK_clean_linker_0, # of connection points: 2
#     Edge 17, Type (0, 1), BuildingBlock: EZIPEK_clean_linker_0, # of connection points: 2
#     Edge 18, Type (0, 1), BuildingBlock: EZIPEK_clean_linker_0, # of connection points: 2
#     Edge 19, Type (0, 1), BuildingBlock: EZIPEK_clean_linker_0, # of connection points: 2
#     Edge 20, Type (0, 1), BuildingBlock: EZIPEK_clean_linker_0, # of connection points: 2
#     Edge 21, Type (0, 1), BuildingBlock: EZIPEK_clean_linker_0, # of connection points: 2
#     Edge 22, Type (0, 1), BuildingBlock: EZIPEK_clean_linker_0, # of connection points: 2
#     Edge 23, Type (0, 1), BuildingBlock: EZIPEK_clean_linker_0, # of connection points: 2
#     Edge 24, Type (0, 1), BuildingBlock: EZIPEK_clean_linker_0, # of connection points: 2
#     Edge 25, Type (0, 1), BuildingBlock: EZIPEK_clean_linker_0, # of connection points: 2
#     Edge 26, Type (0, 1), BuildingBlock: EZIPEK_clean_linker_0, # of connection points: 2
#     Edge 27, Type (0, 1), BuildingBlock: EZIPEK_clean_linker_0, # of connection points: 2
#     Edge 28, Type (0, 1), BuildingBlock: EZIPEK_clean_linker_0, # of connection points: 2
#     Edge 29, Type (0, 1), BuildingBlock: EZIPEK_clean_linker_0, # of connection points: 2
#     Edge 30, Type (0, 1), BuildingBlock: EZIPEK_clean_linker_0, # of connection points: 2
#     Edge 31, Type (0, 1), BuildingBlock: EZIPEK_clean_linker_0, # of connection points: 2
#     Edge 32, Type (0, 1), BuildingBlock: EZIPEK_clean_linker_0, # of connection points: 2
#     Edge 33, Type (0, 1), BuildingBlock: EZIPEK_clean_linker_0, # of connection points: 2
#     Edge 34, Type (0, 1), BuildingBlock: EZIPEK_clean_linker_0, # of connection points: 2
#     Edge 35, Type (0, 1), BuildingBlock: EZIPEK_clean_linker_0, # of connection points: 2
# Relax obj value: 0.080
# Max RMSD: 0.104
# Mean RMSD: 0.097
data_MOF--net-hwx--node1-OJICUG_clean_sbu_0--node2-VETTIZ_charged_linker_0--edge1-EZIPEK_clean_linker_0
_symmetry_space_group_name_H-M    P1
_symmetry_Int_Tables_number       1
_symmetry_cell_setting            triclinic
loop_
_symmetry_equiv_pos_as_xyz
'x, y, z'
_cell_length_a     47.345815
_cell_length_b     47.295793
_cell_length_c     21.684053
_cell_angle_alpha  90.244665
_cell_angle_beta   90.008262
_cell_angle_gamma 89.96872
loop_
_atom_site_label
_atom_site_type_symbol
_atom_site_fract_x
_atom_site_fract_y
_atom_site_fract_z
_atom_type_partial_charge
Sc0 Sc 0.2266 0.22722 0.09253 0.0
Sc1 Sc 0.18025 0.18085 0.01479 0.0
Sc2 Sc 0.22564 0.22536 0.93035 0.0
O3 O 0.21086 0.21117 0.01257 0.0
C4 C 0.22248 0.28229 0.00819 0.0
C5 C 0.16161 0.22128 0.12587 0.0
C6 C 0.15885 0.22056 0.90768 0.0
C7 C 0.22151 0.16086 0.12055 0.0
C8 C 0.28218 0.22273 0.01083 0.0
C9 C 0.21879 0.15983 0.90289 0.0
O10 O 0.22504 0.27035 0.06032 0.0
O11 O 0.15726 0.20084 0.08896 0.0
O12 O 0.18353 0.22857 0.89244 0.0
O13 O 0.23015 0.18572 0.13302 0.0
O14 O 0.26929 0.22433 0.95951 0.0
O15 O 0.19883 0.15641 0.94117 0.0
O16 O 0.26969 0.22263 0.06265 0.0
O17 O 0.20429 0.15527 0.07728 0.0
O18 O 0.23146 0.18318 0.89512 0.0
O19 O 0.18521 0.23378 0.13099 0.0
O20 O 0.22161 0.26891 0.95734 0.0
O21 O 0.15388 0.20408 0.95246 0.0
Sc22 Sc 0.27436 0.72714 0.42035 0.0
Sc23 Sc 0.31619 0.67517 0.49338 0.0
Sc24 Sc 0.27736 0.72423 0.5819 0.0
O25 O 0.28933 0.70888 0.49849 0.0
C26 C 0.28317 0.78136 0.5058 0.0
C27 C 0.3394 0.71633 0.38899 0.0
C28 C 0.34125 0.70885 0.60937 0.0
C29 C 0.27437 0.66223 0.38194 0.0
C30 C 0.21981 0.72559 0.50566 0.0
C31 C 0.27614 0.65694 0.60179 0.0
O32 O 0.28097 0.76956 0.45336 0.0
O33 O 0.34326 0.69709 0.42915 0.0
O34 O 0.32026 0.72544 0.61483 0.0
O35 O 0.26503 0.68724 0.37713 0.0
O36 O 0.23324 0.72467 0.55646 0.0
O37 O 0.29135 0.65046 0.5557 0.0
O38 O 0.23169 0.72691 0.45328 0.0
O39 O 0.29347 0.65516 0.41973 0.0
O40 O 0.27084 0.68226 0.6182 0.0
O41 O 0.31587 0.72875 0.38072 0.0
O42 O 0.28237 0.76788 0.55625 0.0
O43 O 0.34208 0.68913 0.56946 0.0
Sc44 Sc 0.77358 0.77401 0.9193 0.0
Sc45 Sc 0.82052 0.82576 0.97565 0.0
Sc46 Sc 0.77781 0.78647 0.07856 0.0
O47 O 0.79057 0.79548 0.99129 0.0
C48 C 0.71983 0.78595 0.00356 0.0
C49 C 0.77853 0.83674 0.86557 0.0
C50 C 0.78452 0.85388 0.08356 0.0
C51 C 0.8383 0.77689 0.88128 0.0
C52 C 0.77723 0.72476 0.01829 0.0
C53 C 0.84462 0.79318 0.09276 0.0
O54 O 0.73117 0.78098 0.95144 0.0
O55 O 0.79668 0.84551 0.90403 0.0
O56 O 0.77484 0.83059 0.10354 0.0
O57 O 0.81465 0.7643 0.88352 0.0
O58 O 0.77845 0.741 0.06509 0.0
O59 O 0.84784 0.80907 0.04617 0.0
O60 O 0.77537 0.73379 0.96359 0.0
O61 O 0.84295 0.80012 0.90921 0.0
O62 O 0.82087 0.78353 0.11026 0.0
O63 O 0.76931 0.81154 0.86407 0.0
O64 O 0.73372 0.78857 0.05353 0.0
O65 O 0.80115 0.85554 0.03786 0.0
Sc66 Sc 0.72014 0.28277 0.58359 0.0
Sc67 Sc 0.67656 0.31902 0.47721 0.0
Sc68 Sc 0.72989 0.27301 0.42433 0.0
O69 O 0.70885 0.29156 0.49516 0.0
C70 C 0.78063 0.28257 0.51885 0.0
C71 C 0.70951 0.34977 0.5871 0.0
C72 C 0.72232 0.33553 0.37523 0.0
C73 C 0.65261 0.28551 0.59268 0.0
C74 C 0.72246 0.222 0.51806 0.0
C75 C 0.66604 0.27283 0.37451 0.0
O76 O 0.76516 0.28503 0.56648 0.0
O77 O 0.6927 0.34993 0.54139 0.0
O78 O 0.73663 0.31299 0.38068 0.0
O79 O 0.67677 0.27816 0.61247 0.0
O80 O 0.72572 0.23165 0.46386 0.0
O81 O 0.65696 0.2916 0.4113 0.0
O82 O 0.72015 0.2376 0.56592 0.0
O83 O 0.64912 0.30036 0.54472 0.0
O84 O 0.69171 0.26499 0.37226 0.0
O85 O 0.7211 0.32739 0.60784 0.0
O86 O 0.77073 0.27827 0.46534 0.0
O87 O 0.6996 0.34005 0.405 0.0
C88 C 0.22551 0.55569 0.78876 0.0
C89 C 0.22698 0.58522 0.78299 0.0
C90 C 0.21822 0.60263 0.83204 0.0
C91 C 0.21201 0.56145 0.89593 0.0
C92 C 0.21763 0.54422 0.8458 0.0
C93 C 0.21616 0.51335 0.86242 0.0
H94 H 0.21489 0.41327 0.08456 0.0
C95 C 0.20953 0.54351 0.95092 0.0
C96 C 0.2111 0.51523 0.93168 0.0
H97 H 0.21202 0.40115 0.88726 0.0
H98 H 0.20992 0.45185 0.8721 0.0
H99 H 0.25843 0.46387 0.08212 0.0
H100 H 0.16753 0.46425 0.09067 0.0
H101 H 0.18038 0.4893 0.14412 0.0
H102 H 0.18939 0.4525 0.15323 0.0
H103 H 0.23972 0.4557 0.15173 0.0
H104 H 0.2487 0.49156 0.13168 0.0
C105 C 0.24499 0.49954 0.84713 0.0
C106 C 0.19075 0.49992 0.82792 0.0
C107 C 0.22181 0.58963 0.15974 0.0
C108 C 0.22693 0.57867 0.21844 0.0
C109 C 0.2237 0.54952 0.22898 0.0
C110 C 0.21691 0.5312 0.18003 0.0
C111 C 0.21378 0.54227 0.1202 0.0
C112 C 0.21554 0.57114 0.11133 0.0
C113 C 0.21321 0.57925 0.04476 0.0
C114 C 0.21019 0.5504 0.01461 0.0
C115 C 0.21075 0.5288 0.05883 0.0
C116 C 0.24118 0.59417 0.02656 0.0
C117 C 0.18632 0.59763 0.03646 0.0
C118 C 0.21361 0.42173 0.03829 0.0
C119 C 0.21364 0.40362 0.98689 0.0
C120 C 0.21203 0.415 0.92718 0.0
C121 C 0.21081 0.44431 0.9186 0.0
C122 C 0.2114 0.46231 0.97029 0.0
C123 C 0.21234 0.45097 0.02894 0.0
C124 C 0.21275 0.47344 0.07824 0.0
C125 C 0.21103 0.50006 0.03955 0.0
C126 C 0.2108 0.49337 0.97633 0.0
C127 C 0.2412 0.4711 0.11334 0.0
C128 C 0.18627 0.46974 0.11926 0.0
H129 H 0.20509 0.60517 0.92499 0.0
H130 H 0.23182 0.54204 0.75097 0.0
H131 H 0.17489 0.51609 0.81423 0.0
H132 H 0.17889 0.48493 0.85727 0.0
H133 H 0.19767 0.48885 0.78522 0.0
H134 H 0.2626 0.51292 0.86462 0.0
H135 H 0.24772 0.49704 0.79652 0.0
H136 H 0.24781 0.47864 0.86854 0.0
H137 H 0.22437 0.61203 0.15106 0.0
H138 H 0.22765 0.54089 0.27436 0.0
H139 H 0.21544 0.50906 0.19014 0.0
H140 H 0.25967 0.58257 0.04557 0.0
H141 H 0.24185 0.61611 0.04502 0.0
H142 H 0.2449 0.59515 0.97658 0.0
H143 H 0.17078 0.59411 0.07416 0.0
H144 H 0.17469 0.59225 0.99362 0.0
H145 H 0.19153 0.62052 0.03631 0.0
H146 H 0.21902 0.62543 0.82772 0.0
C147 C 0.21045 0.59085 0.88842 0.0
C148 C 0.08027 0.71768 0.53432 0.0
C149 C 0.09874 0.71944 0.484 0.0
C150 C 0.08785 0.7212 0.42382 0.0
C151 C 0.04031 0.72179 0.46481 0.0
C152 C 0.05115 0.71893 0.52373 0.0
C153 C 0.02843 0.71853 0.57215 0.0
H154 H 0.89568 0.75476 0.64705 0.0
C155 C 0.00941 0.72481 0.46987 0.0
C156 C 0.00228 0.7228 0.53272 0.0
H157 H 0.9579 0.71815 0.76848 0.0
H158 H 0.98973 0.71126 0.68131 0.0
H159 H 0.93444 0.78858 0.54919 0.0
H160 H 0.89995 0.70505 0.56051 0.0
H161 H 0.90512 0.71013 0.48113 0.0
H162 H 0.8809 0.73276 0.52297 0.0
H163 H 0.89753 0.77975 0.54735 0.0
H164 H 0.9182 0.78016 0.47818 0.0
C165 C 0.03361 0.74359 0.61687 0.0
C166 C 0.02855 0.68923 0.60383 0.0
C167 C 0.95053 0.75047 0.28093 0.0
C168 C 0.92161 0.75651 0.27451 0.0
C169 C 0.90357 0.75423 0.3256 0.0
C170 C 0.91418 0.74697 0.38327 0.0
C171 C 0.94321 0.74203 0.39011 0.0
C172 C 0.96084 0.74299 0.33937 0.0
C173 C 0.991 0.73636 0.35631 0.0
C174 C 0.98831 0.73125 0.4254 0.0
C175 C 0.96037 0.73532 0.44461 0.0
C176 C 0.00909 0.76281 0.34186 0.0
C177 C 7e-05 0.70928 0.32113 0.0
C178 C 0.91632 0.74558 0.65512 0.0
C179 C 0.92485 0.73806 0.71474 0.0
C180 C 0.95133 0.72494 0.72305 0.0
C181 C 0.96959 0.72086 0.67258 0.0
C182 C 0.96078 0.72919 0.61334 0.0
C183 C 0.93399 0.73999 0.60537 0.0
C184 C 0.92599 0.74301 0.53895 0.0
C185 C 0.95338 0.73446 0.508 0.0
C186 C 0.97396 0.72721 0.55171 0.0
C187 C 0.91849 0.77445 0.52738 0.0
C188 C 0.90166 0.72185 0.5249 0.0
H189 H 0.05154 0.72396 0.36711 0.0
H190 H 0.08843 0.71612 0.58086 0.0
H191 H 0.03716 0.67254 0.57275 0.0
H192 H 0.00701 0.68192 0.6155 0.0
H193 H 0.04172 0.68948 0.64624 0.0
H194 H 0.03652 0.76355 0.59066 0.0
H195 H 0.05291 0.74001 0.64491 0.0
H196 H 0.016 0.74731 0.649 0.0
H197 H 0.9647 0.75215 0.24192 0.0
H198 H 0.88124 0.75884 0.32101 0.0
H199 H 0.89942 0.74633 0.42054 0.0
H200 H 0.99749 0.7825 0.35427 0.0
H201 H 0.01426 0.76386 0.29195 0.0
H202 H 0.02887 0.76383 0.36857 0.0
H203 H 0.98201 0.69441 0.31602 0.0
H204 H 0.01642 0.69709 0.34585 0.0
H205 H 0.00782 0.71439 0.27414 0.0
H206 H 0.10203 0.72242 0.3847 0.0
C207 C 0.05866 0.72223 0.41389 0.0
C208 C 0.75547 0.44248 0.18047 0.0
C209 C 0.74312 0.41543 0.18235 0.0
C210 C 0.73089 0.40407 0.12853 0.0
C211 C 0.7451 0.44517 0.07107 0.0
C212 C 0.75533 0.45735 0.12458 0.0
C213 C 0.76404 0.48763 0.11466 0.0
H214 H 0.77172 0.59979 0.92226 0.0
C215 C 0.74881 0.46538 0.02051 0.0
C216 C 0.75907 0.49064 0.04554 0.0
H217 H 0.78268 0.59806 0.11989 0.0
H218 H 0.77809 0.54713 0.11938 0.0
H219 H 0.81019 0.53918 0.89688 0.0
H220 H 0.72054 0.5558 0.9131 0.0
H221 H 0.72751 0.53445 0.84776 0.0
H222 H 0.74141 0.56977 0.85103 0.0
H223 H 0.7912 0.55867 0.83928 0.0
H224 H 0.79169 0.52054 0.8392 0.0
C225 C 0.7957 0.49053 0.13103 0.0
C226 C 0.74422 0.50694 0.15348 0.0
C227 C 0.7341 0.43037 0.80324 0.0
C228 C 0.73614 0.44273 0.74508 0.0
C229 C 0.74358 0.47151 0.74037 0.0
C230 C 0.74911 0.48765 0.79395 0.0
C231 C 0.74683 0.4748 0.85233 0.0
C232 C 0.73934 0.44659 0.85569 0.0
C233 C 0.7367 0.43617 0.92036 0.0
C234 C 0.74536 0.4623 0.95604 0.0
C235 C 0.75103 0.48508 0.91654 0.0
C236 C 0.7579 0.41147 0.92872 0.0
C237 C 0.70527 0.42819 0.9318 0.0
C238 C 0.77335 0.58819 0.96508 0.0
C239 C 0.77734 0.6026 0.02132 0.0
C240 C 0.77947 0.58717 0.07637 0.0
C241 C 0.77654 0.55775 0.07598 0.0
C242 C 0.77109 0.54368 0.02005 0.0
C243 C 0.77021 0.55869 0.96549 0.0
C244 C 0.76413 0.53983 0.91073 0.0
C245 C 0.75958 0.51152 0.94214 0.0
C246 C 0.76388 0.51405 0.0062 0.0
C247 C 0.79053 0.53954 0.86879 0.0
C248 C 0.73705 0.55047 0.87843 0.0
H249 H 0.72317 0.4083 0.03355 0.0
H250 H 0.76452 0.45191 0.22156 0.0
H251 H 0.72472 0.49573 0.16828 0.0
H252 H 0.73644 0.52532 0.12688 0.0
H253 H 0.75489 0.51469 0.19593 0.0
H254 H 0.80805 0.47292 0.11012 0.0
H255 H 0.7989 0.48984 0.18177 0.0
H256 H 0.80514 0.51023 0.11325 0.0
H257 H 0.72791 0.40841 0.80782 0.0
H258 H 0.74485 0.48142 0.69554 0.0
H259 H 0.75454 0.5095 0.78805 0.0
H260 H 0.77875 0.41694 0.90832 0.0
H261 H 0.75015 0.392 0.90542 0.0
H262 H 0.76221 0.40634 0.97732 0.0
H263 H 0.69084 0.43791 0.89733 0.0
H264 H 0.69745 0.43613 0.97687 0.0
H265 H 0.70207 0.40495 0.92929 0.0
H266 H 0.72092 0.38344 0.12927 0.0
C267 C 0.73215 0.41857 0.07294 0.0
C268 C 0.0564 0.26529 0.31496 0.0
C269 C 0.08602 0.26375 0.31009 0.0
C270 C 0.1029 0.27187 0.36041 0.0
C271 C 0.06118 0.27824 0.42286 0.0
C272 C 0.04441 0.27305 0.3719 0.0
C273 C 0.01342 0.27573 0.38727 0.0
H274 H 0.91162 0.28576 0.60725 0.0
C275 C 0.04276 0.28169 0.47698 0.0
C276 C 0.01465 0.28114 0.45661 0.0
H277 H 0.90056 0.28421 0.40975 0.0
H278 H 0.95139 0.28329 0.39522 0.0
H279 H 0.95891 0.23937 0.6098 0.0
H280 H 0.96497 0.33017 0.61019 0.0
H281 H 0.98894 0.31702 0.66523 0.0
H282 H 0.95169 0.31033 0.67437 0.0
H283 H 0.95228 0.25996 0.67793 0.0
H284 H 0.98732 0.24806 0.65798 0.0
C285 C 0.99878 0.24733 0.37182 0.0
C286 C 0.0013 0.3014 0.35183 0.0
C287 C 0.08598 0.26949 0.68837 0.0
C288 C 0.07423 0.26641 0.74709 0.0
C289 C 0.0453 0.27174 0.75621 0.0
C290 C 0.02788 0.2785 0.70594 0.0
C291 C 0.03964 0.2797 0.64633 0.0
C292 C 0.06839 0.276 0.63875 0.0
C293 C 0.07733 0.2774 0.57248 0.0
C294 C 0.049 0.28151 0.54095 0.0
C295 C 0.027 0.28267 0.58427 0.0
C296 C 0.09114 0.24863 0.55557 0.0
C297 C 0.09703 0.30336 0.56435 0.0
C298 C 0.92032 0.28553 0.56104 0.0
C299 C 0.90246 0.28521 0.50947 0.0
C300 C 0.91421 0.28459 0.44986 0.0
C301 C 0.94359 0.28405 0.44163 0.0
C302 C 0.96132 0.28394 0.49365 0.0
C303 C 0.9496 0.28496 0.55209 0.0
C304 C 0.97163 0.28422 0.60195 0.0
C305 C 0.99852 0.28359 0.5639 0.0
C306 C 0.99237 0.28303 0.50043 0.0
C307 C 0.96741 0.25666 0.63941 0.0
C308 C 0.96923 0.31173 0.64052 0.0
H309 H 0.1046 0.28438 0.45386 0.0
H310 H 0.04309 0.25959 0.27625 0.0
H311 H 0.01792 0.31743 0.34237 0.0
H312 H 0.98509 0.31295 0.3787 0.0
H313 H 0.9922 0.29483 0.30678 0.0
H314 H 0.01138 0.22931 0.38991 0.0
H315 H 0.99665 0.24447 0.32116 0.0
H316 H 0.97765 0.24537 0.39271 0.0
H317 H 0.10828 0.26561 0.6809 0.0
H318 H 0.03608 0.26953 0.80165 0.0
H319 H 0.00581 0.28162 0.71508 0.0
H320 H 0.07803 0.23081 0.57282 0.0
H321 H 0.11245 0.24675 0.57661 0.0
H322 H 0.09338 0.245 0.50569 0.0
H323 H 0.09475 0.31886 0.60279 0.0
H324 H 0.0919 0.31553 0.5222 0.0
H325 H 0.11958 0.29691 0.56272 0.0
H326 H 0.12573 0.27112 0.35692 0.0
C327 C 0.09063 0.27931 0.41663 0.0
C328 C 0.73449 0.9369 0.67373 0.0
C329 C 0.73542 0.90722 0.67153 0.0
C330 C 0.7276 0.89298 0.61709 0.0
C331 C 0.72343 0.93774 0.56471 0.0
C332 C 0.72791 0.95173 0.61983 0.0
C333 C 0.72587 0.98332 0.61273 0.0
H334 H 0.72409 0.09692 0.42459 0.0
C335 C 0.72153 0.95897 0.51553 0.0
C336 C 0.72201 0.98577 0.54324 0.0
H337 H 0.71682 0.09546 0.62302 0.0
H338 H 0.71745 0.04428 0.6217 0.0
H339 H 0.77042 0.045 0.41514 0.0
H340 H 0.67953 0.04629 0.39802 0.0
H341 H 0.69348 0.02428 0.33981 0.0
H342 H 0.70223 0.0614 0.34056 0.0
H343 H 0.75279 0.06161 0.35153 0.0
H344 H 0.76063 0.02437 0.35101 0.0
C345 C 0.75405 0.99662 0.63454 0.0
C346 C 0.69954 0.99385 0.64881 0.0
C347 C 0.73838 0.92662 0.29646 0.0
C348 C 0.74261 0.94096 0.24103 0.0
C349 C 0.73823 0.97039 0.23865 0.0
C350 C 0.73127 0.98556 0.29253 0.0
C351 C 0.7287 0.97101 0.34884 0.0
C352 C 0.73151 0.94191 0.34951 0.0
C353 C 0.72806 0.92962 0.41262 0.0
C354 C 0.72356 0.95624 0.45059 0.0
C355 C 0.72422 0.98049 0.41333 0.0
C356 C 0.75602 0.91432 0.42928 0.0
C357 C 0.70162 0.91021 0.41251 0.0
C358 C 0.72265 0.08538 0.46753 0.0
C359 C 0.72062 0.09986 0.52407 0.0
C360 C 0.71855 0.08448 0.57923 0.0
C361 C 0.71884 0.05489 0.57826 0.0
C362 C 0.72126 0.04059 0.52157 0.0
C363 C 0.72277 0.05575 0.46732 0.0
C364 C 0.72465 0.03676 0.4115 0.0
C365 C 0.72322 0.00776 0.4412 0.0
C366 C 0.72181 0.01027 0.50576 0.0
C367 C 0.75349 0.04216 0.38005 0.0
C368 C 0.69878 0.04246 0.36973 0.0
H369 H 0.71681 0.89621 0.52279 0.0
H370 H 0.73971 0.94816 0.7158 0.0
H371 H 0.68441 0.97641 0.65839 0.0
H372 H 0.68715 0.00952 0.62225 0.0
H373 H 0.70557 0.00327 0.69394 0.0
H374 H 0.77229 0.98505 0.61419 0.0
H375 H 0.75598 0.99564 0.68554 0.0
H376 H 0.75647 0.01887 0.62054 0.0
H377 H 0.74122 0.90391 0.29872 0.0
H378 H 0.74109 0.98163 0.19569 0.0
H379 H 0.72874 0.00803 0.28861 0.0
H380 H 0.77448 0.92804 0.41887 0.0
H381 H 0.75837 0.89446 0.40224 0.0
H382 H 0.7579 0.90886 0.47833 0.0
H383 H 0.6873 0.91478 0.37307 0.0
H384 H 0.68835 0.91346 0.45409 0.0
H385 H 0.70763 0.88755 0.40921 0.0
H386 H 0.72772 0.87008 0.61526 0.0
C387 C 0.72152 0.90814 0.56359 0.0
C388 C 0.56498 0.22758 0.1823 0.0
C389 C 0.5947 0.22778 0.18245 0.0
C390 C 0.60948 0.21931 0.12925 0.0
C391 C 0.56553 0.21635 0.07318 0.0
C392 C 0.55079 0.22124 0.12711 0.0
C393 C 0.51929 0.22 0.11692 0.0
H394 H 0.40955 0.21995 0.91598 0.0
C395 C 0.54519 0.21507 0.02202 0.0
C396 C 0.51794 0.21612 0.04716 0.0
H397 H 0.40629 0.21446 0.11446 0.0
H398 H 0.45748 0.21363 0.11928 0.0
H399 H 0.46114 0.2654 0.91333 0.0
H400 H 0.45975 0.17456 0.89502 0.0
H401 H 0.48347 0.18803 0.84 0.0
H402 H 0.4466 0.1975 0.83579 0.0
H403 H 0.44689 0.24791 0.84662 0.0
H404 H 0.48395 0.25594 0.8529 0.0
C405 C 0.50629 0.24852 0.13761 0.0
C406 C 0.50747 0.19398 0.15174 0.0
C407 C 0.58133 0.23433 0.80709 0.0
C408 C 0.56786 0.23903 0.75068 0.0
C409 C 0.53864 0.23409 0.74525 0.0
C410 C 0.52271 0.22633 0.7972 0.0
C411 C 0.53629 0.22349 0.85468 0.0
C412 C 0.56527 0.22659 0.85826 0.0
C413 C 0.57646 0.22228 0.92222 0.0
C414 C 0.54918 0.21739 0.95745 0.0
C415 C 0.5257 0.21845 0.91792 0.0
C416 C 0.59152 0.24994 0.94231 0.0
C417 C 0.59582 0.19576 0.922 0.0
C418 C 0.42003 0.21841 0.96025 0.0
C419 C 0.40427 0.21723 0.01496 0.0
C420 C 0.4183 0.21534 0.07199 0.0
C421 C 0.44788 0.21484 0.07459 0.0
C422 C 0.4635 0.21642 0.0196 0.0
C423 C 0.44958 0.2179 0.96362 0.0
C424 C 0.46971 0.21957 0.91008 0.0
C425 C 0.49797 0.21777 0.94298 0.0
C426 C 0.49415 0.21642 0.00722 0.0
C427 C 0.46526 0.24856 0.87847 0.0
C428 C 0.46465 0.19373 0.86745 0.0
H429 H 0.60736 0.20821 0.03486 0.0
H430 H 0.55326 0.23334 0.22335 0.0
H431 H 0.52415 0.17792 0.16057 0.0
H432 H 0.49121 0.18258 0.12462 0.0
H433 H 0.49843 0.20017 0.1971 0.0
H434 H 0.51861 0.26647 0.11842 0.0
H435 H 0.50643 0.25051 0.18867 0.0
H436 H 0.48439 0.25143 0.12152 0.0
H437 H 0.60391 0.23745 0.81152 0.0
H438 H 0.52811 0.23723 0.70146 0.0
H439 H 0.5004 0.2235 0.791 0.0
H440 H 0.5777 0.26854 0.93375 0.0
H441 H 0.6114 0.25296 0.91598 0.0
H442 H 0.59699 0.25066 0.99156 0.0
H443 H 0.5928 0.18252 0.87997 0.0
H444 H 0.59108 0.18144 0.96103 0.0
H445 H 0.61849 0.20175 0.92374 0.0
H446 H 0.63237 0.21888 0.12917 0.0
C447 C 0.595 0.21345 0.07462 0.0
C448 C 0.27282 0.05731 0.30423 0.0
C449 C 0.26743 0.08648 0.30035 0.0
C450 C 0.27028 0.10362 0.35298 0.0
C451 C 0.27954 0.06226 0.41472 0.0
C452 C 0.27872 0.0456 0.36221 0.0
C453 C 0.28243 0.01469 0.37698 0.0
H454 H 0.28577 0.91128 0.59259 0.0
C455 C 0.28192 0.04355 0.46856 0.0
C456 C 0.2839 0.01563 0.44712 0.0
H457 H 0.29367 0.90243 0.39516 0.0
H458 H 0.29217 0.95335 0.38353 0.0
H459 H 0.32788 0.96833 0.60796 0.0
H460 H 0.23817 0.9557 0.58895 0.0
H461 H 0.24267 0.98528 0.63694 0.0
H462 H 0.25568 0.95125 0.66162 0.0
H463 H 0.30643 0.95084 0.6645 0.0
H464 H 0.30994 0.98872 0.66409 0.0
C465 C 0.31057 0.00448 0.34796 0.0
C466 C 0.25598 0.99859 0.35377 0.0
C467 C 0.26584 0.08588 0.67987 0.0
C468 C 0.25958 0.07396 0.73721 0.0
C469 C 0.26207 0.04453 0.74514 0.0
C470 C 0.26992 0.02707 0.69536 0.0
C471 C 0.27465 0.03922 0.63707 0.0
C472 C 0.27275 0.06822 0.63045 0.0
C473 C 0.27545 0.07746 0.56471 0.0
C474 C 0.27944 0.04924 0.53255 0.0
C475 C 0.2793 0.02693 0.57498 0.0
C476 C 0.30221 0.09614 0.55944 0.0
C477 C 0.24744 0.09236 0.54574 0.0
C478 C 0.2875 0.92051 0.54711 0.0
C479 C 0.28988 0.9032 0.49462 0.0
C480 C 0.29186 0.91562 0.43595 0.0
C481 C 0.29091 0.94507 0.42941 0.0
C482 C 0.28761 0.96218 0.48208 0.0
C483 C 0.28635 0.94989 0.53979 0.0
C484 C 0.28224 0.97138 0.59035 0.0
C485 C 0.28212 0.99863 0.55366 0.0
C486 C 0.28486 0.99307 0.49017 0.0
C487 C 0.30783 0.96979 0.63454 0.0
C488 C 0.25334 0.96568 0.62165 0.0
H489 H 0.27761 0.1058 0.44881 0.0
H490 H 0.27088 0.04389 0.26386 0.0
H491 H 0.23643 0.01056 0.36535 0.0
H492 H 0.25334 0.97767 0.37519 0.0
H493 H 0.25661 0.99575 0.30291 0.0
H494 H 0.32616 0.02202 0.34494 0.0
H495 H 0.30723 0.99616 0.30054 0.0
H496 H 0.32119 0.98817 0.37609 0.0
H497 H 0.26353 0.10843 0.67264 0.0
H498 H 0.25711 0.03507 0.78923 0.0
H499 H 0.27108 0.00474 0.70361 0.0
H500 H 0.31956 0.0877 0.58874 0.0
H501 H 0.29784 0.11814 0.57487 0.0
H502 H 0.311 0.09656 0.51223 0.0
H503 H 0.22948 0.08608 0.57579 0.0
H504 H 0.24035 0.08651 0.49882 0.0
H505 H 0.24937 0.11573 0.54882 0.0
H506 H 0.26649 0.12618 0.35021 0.0
C507 C 0.27655 0.09171 0.41009 0.0
C508 C 0.58038 0.78662 0.03747 0.0
C509 C 0.59843 0.7868 0.98619 0.0
C510 C 0.58738 0.78201 0.92685 0.0
C511 C 0.5417 0.77198 0.97139 0.0
C512 C 0.55217 0.77865 0.02928 0.0
C513 C 0.53092 0.77322 0.07955 0.0
H514 H 0.415 0.70116 0.16774 0.0
C515 C 0.51393 0.75863 0.97947 0.0
C516 C 0.50788 0.75844 0.04282 0.0
H517 H 0.45567 0.76933 0.26647 0.0
H518 H 0.48988 0.77414 0.18344 0.0
H519 H 0.41162 0.74318 0.05226 0.0
H520 H 0.46484 0.67158 0.0922 0.0
H521 H 0.45857 0.67099 0.01228 0.0
H522 H 0.4293 0.66711 0.0651 0.0
H523 H 0.39859 0.70774 0.06078 0.0
H524 H 0.41135 0.72028 0.98848 0.0
C525 C 0.52092 0.80207 0.10615 0.0
C526 C 0.54406 0.75352 0.12861 0.0
C527 C 0.45248 0.72842 0.79943 0.0
C528 C 0.42836 0.71107 0.79692 0.0
C529 C 0.4218 0.69361 0.84734 0.0
C530 C 0.43681 0.69602 0.90245 0.0
C531 C 0.45843 0.71613 0.90693 0.0
C532 C 0.46771 0.73004 0.85487 0.0
C533 C 0.49453 0.74633 0.8673 0.0
C534 C 0.49623 0.74399 0.93732 0.0
C535 C 0.47456 0.72675 0.95994 0.0
C536 C 0.49086 0.77734 0.84669 0.0
C537 C 0.5193 0.73085 0.83437 0.0
C538 C 0.43187 0.71651 0.17227 0.0
C539 C 0.4332 0.73438 0.22402 0.0
C540 C 0.45466 0.75496 0.2275 0.0
C541 C 0.47418 0.75793 0.17923 0.0
C542 C 0.47142 0.74096 0.12622 0.0
C543 C 0.44994 0.72129 0.12268 0.0
C544 C 0.44512 0.71089 0.05798 0.0
C545 C 0.46836 0.72642 0.02389 0.0
C546 C 0.48418 0.74323 0.06456 0.0
C547 C 0.41515 0.72077 0.03838 0.0
C548 C 0.44945 0.67843 0.05645 0.0
H549 H 0.55148 0.77086 0.8733 0.0
H550 H 0.58869 0.79048 0.08326 0.0
H551 H 0.55304 0.73427 0.10642 0.0
H552 H 0.52848 0.74643 0.16307 0.0
H553 H 0.56127 0.76443 0.15411 0.0
H554 H 0.52839 0.82026 0.07818 0.0
H555 H 0.52886 0.80547 0.15382 0.0
H556 H 0.49753 0.80382 0.10649 0.0
H557 H 0.45853 0.7411 0.76014 0.0
H558 H 0.40379 0.6795 0.84529 0.0
H559 H 0.43014 0.68321 0.94045 0.0
H560 H 0.47125 0.78652 0.86673 0.0
H561 H 0.48942 0.77874 0.79567 0.0
H562 H 0.50867 0.79079 0.8619 0.0
H563 H 0.51275 0.71035 0.81347 0.0
H564 H 0.53657 0.72549 0.86695 0.0
H565 H 0.52817 0.74377 0.79635 0.0
H566 H 0.60112 0.78244 0.88693 0.0
C567 C 0.55891 0.7748 0.91917 0.0
C568 C 0.12221 0.25418 0.15445 0.0
C569 C 0.1386 0.22987 0.16791 0.0
C570 C 0.11264 0.22351 0.26424 0.0
C571 C 0.1001 0.25048 0.25618 0.0
N572 N 0.09334 0.29237 0.19507 0.0
N573 N 0.15123 0.19223 0.23735 0.0
C574 C 0.10468 0.26597 0.20126 0.0
C575 C 0.13409 0.21452 0.22299 0.0
N576 N 0.12315 0.26563 0.09676 0.0
N577 N 0.10392 0.20655 0.31145 0.0
H578 H 0.16733 0.18517 0.20834 0.0
H579 H 0.151 0.18217 0.27998 0.0
H580 H 0.08802 0.21252 0.3422 0.0
H581 H 0.11039 0.18563 0.31645 0.0
H582 H 0.10991 0.28191 0.08236 0.0
H583 H 0.13547 0.25704 0.06143 0.0
H584 H 0.09857 0.30603 0.1593 0.0
H585 H 0.07989 0.30129 0.22791 0.0
C586 C 0.24075 0.61958 0.62759 0.0
C587 C 0.26612 0.63405 0.64203 0.0
C588 C 0.26948 0.60873 0.73973 0.0
C589 C 0.24167 0.59843 0.7303 0.0
N590 N 0.20023 0.59384 0.6666 0.0
N591 N 0.30559 0.64233 0.70998 0.0
C592 C 0.22724 0.60342 0.67416 0.0
C593 C 0.28094 0.62838 0.69737 0.0
N594 N 0.22985 0.62115 0.56938 0.0
N595 N 0.28494 0.5994 0.78893 0.0
H596 H 0.31558 0.65542 0.67812 0.0
H597 H 0.31551 0.64202 0.75281 0.0
H598 H 0.27716 0.58483 0.82068 0.0
H599 H 0.30622 0.60404 0.79541 0.0
H600 H 0.21276 0.60913 0.55428 0.0
H601 H 0.23949 0.63276 0.53442 0.0
H602 H 0.18737 0.59958 0.62975 0.0
H603 H 0.19006 0.58134 0.69931 0.0
C604 C 0.88018 0.80512 0.17413 0.0
C605 C 0.86972 0.78578 0.1296 0.0
C606 C 0.90003 0.74837 0.17038 0.0
C607 C 0.90954 0.76742 0.21645 0.0
N608 N 0.91578 0.81529 0.25162 0.0
N609 N 0.87549 0.74228 0.07297 0.0
C610 C 0.9021 0.79639 0.21432 0.0
C611 C 0.88165 0.75842 0.12357 0.0
N612 N 0.86804 0.83119 0.18031 0.0
N613 N 0.90728 0.72045 0.17347 0.0
H614 H 0.86197 0.74922 0.03816 0.0
H615 H 0.88552 0.7232 0.06295 0.0
H616 H 0.92146 0.71267 0.20609 0.0
H617 H 0.89825 0.70485 0.14576 0.0
H618 H 0.87248 0.84508 0.21641 0.0
H619 H 0.85202 0.83821 0.15127 0.0
H620 H 0.91304 0.83709 0.24885 0.0
H621 H 0.93196 0.80921 0.28147 0.0
C622 C 0.74241 0.38959 0.61385 0.0
C623 C 0.71531 0.37705 0.61863 0.0
C624 C 0.70007 0.416 0.68558 0.0
C625 C 0.72851 0.42492 0.69101 0.0
N626 N 0.77738 0.42001 0.66169 0.0
N627 N 0.66821 0.37761 0.66094 0.0
C628 C 0.74986 0.41196 0.65477 0.0
C629 C 0.6939 0.39033 0.65422 0.0
N630 N 0.76068 0.38056 0.5692 0.0
N631 N 0.67909 0.43201 0.71132 0.0
H632 H 0.66314 0.35867 0.63907 0.0
H633 H 0.65282 0.38459 0.69173 0.0
H634 H 0.68323 0.45099 0.73438 0.0
H635 H 0.65768 0.42802 0.70467 0.0
H636 H 0.77979 0.39057 0.55978 0.0
H637 H 0.75536 0.36476 0.53753 0.0
H638 H 0.79423 0.40902 0.64206 0.0
H639 H 0.78347 0.43681 0.69 0.0
C640 C 0.62836 0.2389 0.34066 0.0
C641 C 0.64636 0.26203 0.32732 0.0
C642 C 0.62536 0.26612 0.22483 0.0
C643 C 0.61074 0.24031 0.23457 0.0
N644 N 0.60032 0.20034 0.29942 0.0
N645 N 0.66382 0.29679 0.25563 0.0
C646 C 0.61262 0.22622 0.29203 0.0
C647 C 0.6454 0.2754 0.26903 0.0
N648 N 0.6258 0.22957 0.39992 0.0
N649 N 0.61928 0.2823 0.17438 0.0
H650 H 0.67798 0.30513 0.28775 0.0
H651 H 0.6664 0.30498 0.21148 0.0
H652 H 0.60404 0.27665 0.14183 0.0
H653 H 0.62719 0.30261 0.16798 0.0
H654 H 0.6111 0.21444 0.41344 0.0
H655 H 0.63654 0.23895 0.43667 0.0
H656 H 0.60356 0.18774 0.33807 0.0
H657 H 0.5886 0.19045 0.26478 0.0
C658 C 0.25165 0.11954 0.88166 0.0
C659 C 0.22749 0.13546 0.86474 0.0
C660 C 0.22058 0.10507 0.77466 0.0
C661 C 0.2473 0.09243 0.78574 0.0
N662 N 0.28971 0.08911 0.84701 0.0
N663 N 0.19015 0.14544 0.79245 0.0
C664 C 0.26317 0.09983 0.83887 0.0
C665 C 0.21212 0.12868 0.81068 0.0
N666 N 0.26317 0.12291 0.93899 0.0
N667 N 0.20318 0.09419 0.73018 0.0
H668 H 0.18344 0.163 0.81774 0.0
H669 H 0.1801 0.14334 0.74995 0.0
H670 H 0.20854 0.07652 0.70368 0.0
H671 H 0.18242 0.10086 0.72378 0.0
H672 H 0.27923 0.11008 0.9561 0.0
H673 H 0.25484 0.13688 0.97163 0.0
H674 H 0.30347 0.09625 0.88116 0.0
H675 H 0.29878 0.07449 0.81682 0.0
C676 C 0.39041 0.72908 0.37292 0.0
C677 C 0.36319 0.72396 0.34795 0.0
C678 C 0.3814 0.73554 0.24611 0.0
C679 C 0.40946 0.7338 0.2689 0.0
N680 N 0.4406 0.72492 0.35526 0.0
N681 N 0.3344 0.71691 0.25658 0.0
C682 C 0.41407 0.72959 0.33284 0.0
C683 C 0.35899 0.72583 0.28332 0.0
N684 N 0.39349 0.73483 0.43421 0.0
N685 N 0.37609 0.74685 0.18942 0.0
H686 H 0.31798 0.70757 0.28113 0.0
H687 H 0.33177 0.71578 0.20888 0.0
H688 H 0.3919 0.75579 0.16228 0.0
H689 H 0.35566 0.75033 0.17309 0.0
H690 H 0.41274 0.74073 0.45375 0.0
H691 H 0.37611 0.73725 0.46335 0.0
H692 H 0.44434 0.71933 0.401 0.0
H693 H 0.45843 0.72396 0.32717 0.0
C694 C 0.78215 0.85643 0.75959 0.0
C695 C 0.76875 0.85644 0.81791 0.0
C696 C 0.73314 0.88974 0.78094 0.0
C697 C 0.74738 0.89091 0.72348 0.0
N698 N 0.78954 0.88148 0.66396 0.0
N699 N 0.73643 0.87832 0.88952 0.0
C700 C 0.77314 0.87602 0.71446 0.0
C701 C 0.74577 0.87478 0.83038 0.0
N702 N 0.80328 0.83752 0.74708 0.0
N703 N 0.7071 0.90186 0.78757 0.0
H704 H 0.7457 0.86805 0.9269 0.0
H705 H 0.72141 0.89337 0.90216 0.0
H706 H 0.69699 0.9127 0.75207 0.0
H707 H 0.69452 0.89907 0.82647 0.0
H708 H 0.8115 0.83432 0.70304 0.0
H709 H 0.81131 0.82357 0.77988 0.0
H710 H 0.80979 0.87328 0.65811 0.0
H711 H 0.78419 0.8965 0.63086 0.0
C712 C 0.85464 0.74871 0.78867 0.0
C713 C 0.86124 0.76409 0.84333 0.0
C714 C 0.91148 0.76063 0.81721 0.0
C715 C 0.90465 0.74299 0.76623 0.0
N716 N 0.87035 0.71173 0.71983 0.0
N717 N 0.89727 0.77501 0.91949 0.0
C718 C 0.87643 0.73387 0.75818 0.0
C719 C 0.89009 0.76704 0.86097 0.0
N720 N 0.82849 0.7501 0.76219 0.0
N721 N 0.93758 0.77263 0.8226 0.0
H722 H 0.88247 0.7777 0.95456 0.0
H723 H 0.91814 0.77532 0.9349 0.0
H724 H 0.95364 0.76964 0.79044 0.0
H725 H 0.94226 0.78775 0.85621 0.0
H726 H 0.82393 0.74054 0.71991 0.0
H727 H 0.81273 0.76392 0.777 0.0
H728 H 0.85005 0.70337 0.71572 0.0
H729 H 0.88613 0.70001 0.69782 0.0
C730 C 0.72797 0.38634 0.3429 0.0
C731 C 0.73185 0.35707 0.33012 0.0
C732 C 0.75421 0.36978 0.23286 0.0
C733 C 0.74355 0.39762 0.23853 0.0
N734 N 0.71656 0.43159 0.2982 0.0
N735 N 0.74317 0.32122 0.25295 0.0
C736 C 0.72962 0.40593 0.29364 0.0
C737 C 0.74385 0.34871 0.2727 0.0
N738 N 0.7234 0.39557 0.40182 0.0
N739 N 0.77352 0.36332 0.1882 0.0
H740 H 0.73259 0.30516 0.27607 0.0
H741 H 0.74984 0.31516 0.20901 0.0
H742 H 0.78193 0.37864 0.15894 0.0
H743 H 0.78326 0.34357 0.18522 0.0
H744 H 0.72252 0.41697 0.41345 0.0
H745 H 0.72407 0.38211 0.43977 0.0
H746 H 0.70387 0.43713 0.33566 0.0
H747 H 0.71618 0.44625 0.26251 0.0
C748 C 0.11708 0.21362 0.83794 0.0
C749 C 0.13459 0.23203 0.87288 0.0
C750 C 0.10971 0.27331 0.83163 0.0
C751 C 0.09221 0.25491 0.79687 0.0
N752 N 0.07493 0.20794 0.77551 0.0
N753 N 0.14335 0.27845 0.91531 0.0
C754 C 0.09445 0.22515 0.80311 0.0
C755 C 0.12962 0.26165 0.87345 0.0
N756 N 0.12301 0.18533 0.83537 0.0
N757 N 0.10784 0.30188 0.82315 0.0
H758 H 0.15773 0.27051 0.94732 0.0
H759 H 0.13871 0.29975 0.92222 0.0
H760 H 0.09257 0.31113 0.795 0.0
H761 H 0.12228 0.31628 0.84124 0.0
H762 H 0.11341 0.17136 0.80466 0.0
H763 H 0.13896 0.1759 0.86121 0.0
H764 H 0.07353 0.1863 0.78356 0.0
H765 H 0.05851 0.21559 0.74821 0.0
C766 C 0.27962 0.62655 0.29754 0.0
C767 C 0.26224 0.64 0.34209 0.0
C768 C 0.22152 0.61194 0.30819 0.0
C769 C 0.23927 0.59758 0.26577 0.0
N770 N 0.28594 0.58704 0.2274 0.0
N771 N 0.21828 0.64234 0.39832 0.0
C772 C 0.2686 0.60356 0.26292 0.0
C773 C 0.2336 0.6318 0.34991 0.0
N774 N 0.30619 0.63664 0.28624 0.0
N775 N 0.19305 0.60715 0.30728 0.0
H776 H 0.2264 0.65699 0.42975 0.0
H777 H 0.19833 0.63497 0.41041 0.0
H778 H 0.18369 0.59198 0.2788 0.0
H779 H 0.17854 0.6193 0.3319 0.0
H780 H 0.31868 0.62984 0.24955 0.0
H781 H 0.31499 0.65362 0.31034 0.0
H782 H 0.30788 0.5884 0.22843 0.0
H783 H 0.27856 0.5702 0.20069 0.0
C784 C 0.39329 0.70649 0.63849 0.0
C785 C 0.3645 0.7109 0.65562 0.0
C786 C 0.37988 0.72243 0.76031 0.0
C787 C 0.40762 0.71339 0.74592 0.0
N788 N 0.44004 0.69272 0.67279 0.0
N789 N 0.33076 0.71419 0.73988 0.0
C790 C 0.41424 0.70434 0.68532 0.0
C791 C 0.35781 0.71658 0.71844 0.0
N792 N 0.40092 0.70518 0.57787 0.0
N793 N 0.37452 0.73665 0.81405 0.0
H794 H 0.31403 0.70673 0.71323 0.0
H795 H 0.32571 0.71588 0.78656 0.0
H796 H 0.39038 0.74213 0.84532 0.0
H797 H 0.35491 0.74566 0.82385 0.0
H798 H 0.42188 0.70492 0.56325 0.0
H799 H 0.38654 0.70719 0.54201 0.0
H800 H 0.44483 0.68295 0.63092 0.0
H801 H 0.45584 0.69066 0.70598 0.0
C802 C 0.74475 0.88584 0.11389 0.0
C803 C 0.77425 0.88039 0.11282 0.0
C804 C 0.78252 0.92227 0.17755 0.0
C805 C 0.75298 0.92445 0.18734 0.0
N806 N 0.70555 0.90946 0.16463 0.0
N807 N 0.82172 0.89371 0.14136 0.0
C808 C 0.73394 0.90681 0.15466 0.0
C809 C 0.79336 0.89906 0.1429 0.0
N810 N 0.72726 0.87135 0.07476 0.0
N811 N 0.80016 0.94223 0.20214 0.0
H812 H 0.83066 0.87794 0.11408 0.0
H813 H 0.83644 0.90399 0.16913 0.0
H814 H 0.79297 0.95902 0.22919 0.0
H815 H 0.82158 0.94364 0.19183 0.0
H816 H 0.70593 0.876 0.06906 0.0
H817 H 0.73468 0.85626 0.0435 0.0
H818 H 0.69064 0.89501 0.14864 0.0
H819 H 0.69696 0.92569 0.19149 0.0
C820 C 0.62387 0.244 0.62612 0.0
C821 C 0.62734 0.2738 0.62394 0.0
C822 C 0.58543 0.28006 0.68919 0.0
C823 C 0.58486 0.25041 0.69904 0.0
N824 N 0.60272 0.20374 0.67744 0.0
N825 N 0.61114 0.32062 0.65055 0.0
C826 C 0.60366 0.23222 0.66703 0.0
C827 C 0.60768 0.29198 0.6537 0.0
N828 N 0.6394 0.22709 0.58759 0.0
N829 N 0.5648 0.29677 0.71434 0.0
H830 H 0.626 0.33011 0.62209 0.0
H831 H 0.60015 0.33509 0.67771 0.0
H832 H 0.54884 0.28895 0.7426 0.0
H833 H 0.56212 0.31805 0.70392 0.0
H834 H 0.63613 0.20545 0.58247 0.0
H835 H 0.65397 0.23516 0.55621 0.0
H836 H 0.61806 0.18962 0.66204 0.0
H837 H 0.58704 0.19429 0.70417 0.0
C838 C 0.26258 0.1327 0.15844 0.0
C839 C 0.23294 0.13725 0.15745 0.0
C840 C 0.22649 0.10024 0.23486 0.0
C841 C 0.25616 0.09948 0.24348 0.0
N842 N 0.30293 0.11405 0.21412 0.0
N843 N 0.18622 0.12578 0.19454 0.0
C844 C 0.2744 0.11518 0.20482 0.0
C845 C 0.21467 0.12072 0.19465 0.0
N846 N 0.27924 0.14472 0.11419 0.0
N847 N 0.20963 0.08159 0.26577 0.0
H848 H 0.17649 0.13998 0.16474 0.0
H849 H 0.17229 0.11722 0.22653 0.0
H850 H 0.21751 0.06683 0.29693 0.0
H851 H 0.18819 0.079 0.2568 0.0
H852 H 0.30063 0.14027 0.10884 0.0
H853 H 0.27108 0.15729 0.07897 0.0
H854 H 0.31724 0.12755 0.19284 0.0
H855 H 0.31222 0.10024 0.24559 0.0
C856 C 0.24407 0.32926 0.9842 0.0
C857 C 0.22068 0.31346 0.00613 0.0
C858 C 0.1923 0.3567 0.01375 0.0
C859 C 0.21618 0.37265 0.99523 0.0
N860 N 0.26605 0.37529 0.97361 0.0
N861 N 0.17401 0.31197 0.05059 0.0
C862 C 0.24246 0.35925 0.98351 0.0
C863 C 0.19526 0.32717 0.02387 0.0
N864 N 0.26767 0.31557 0.96321 0.0
N865 N 0.16657 0.36963 0.01926 0.0
H866 H 0.17505 0.29016 0.05671 0.0
H867 H 0.15624 0.32113 0.0707 0.0
H868 H 0.16365 0.39128 0.01274 0.0
H869 H 0.14772 0.35871 0.02568 0.0
H870 H 0.28404 0.32563 0.93998 0.0
H871 H 0.27018 0.29369 0.96534 0.0
H872 H 0.2864 0.36698 0.97145 0.0
H873 H 0.26567 0.39734 0.97267 0.0
C874 C 0.17309 0.74907 0.48937 0.0
C875 C 0.18865 0.72471 0.50664 0.0
C876 C 0.14518 0.69662 0.50891 0.0
C877 C 0.12956 0.72128 0.49438 0.0
N878 N 0.12737 0.77197 0.48369 0.0
N879 N 0.18963 0.6765 0.54265 0.0
C880 C 0.14316 0.74784 0.48847 0.0
C881 C 0.17469 0.69888 0.51987 0.0
N882 N 0.18694 0.77322 0.47259 0.0
N883 N 0.13201 0.67089 0.50948 0.0
H884 H 0.21145 0.67695 0.54888 0.0
H885 H 0.18024 0.65824 0.5597 0.0
H886 H 0.11037 0.66847 0.50216 0.0
H887 H 0.14272 0.65172 0.51263 0.0
H888 H 0.17697 0.79051 0.45251 0.0
H889 H 0.20882 0.77536 0.47488 0.0
H890 H 0.13591 0.79223 0.48592 0.0
H891 H 0.10534 0.77191 0.48294 0.0
C892 C 0.75149 0.67862 0.01136 0.0
C893 C 0.7765 0.69369 0.02668 0.0
C894 C 0.80246 0.64902 0.03627 0.0
C895 C 0.77716 0.63399 0.02366 0.0
N896 N 0.72644 0.63397 0.01287 0.0
N897 N 0.8243 0.69357 0.06489 0.0
C898 C 0.75131 0.64865 0.01515 0.0
C899 C 0.8015 0.67895 0.04301 0.0
N900 N 0.72799 0.69294 0.99216 0.0
N901 N 0.82756 0.63477 0.0392 0.0
H902 H 0.82443 0.7155 0.06936 0.0
H903 H 0.84213 0.68393 0.08349 0.0
H904 H 0.82905 0.61287 0.03419 0.0
H905 H 0.84713 0.64473 0.04159 0.0
H906 H 0.71039 0.68309 0.97295 0.0
H907 H 0.72666 0.71493 0.99185 0.0
H908 H 0.70666 0.6436 0.01365 0.0
H909 H 0.72536 0.61199 0.01573 0.0
C910 C 0.82713 0.25749 0.5106 0.0
C911 C 0.81185 0.28252 0.52536 0.0
C912 C 0.85617 0.30928 0.53165 0.0
C913 C 0.87137 0.28418 0.5178 0.0
N914 N 0.87242 0.23346 0.50725 0.0
N915 N 0.81174 0.33065 0.56246 0.0
C916 C 0.85714 0.25798 0.51124 0.0
C917 C 0.82638 0.3079 0.54019 0.0
N918 N 0.81291 0.23332 0.49501 0.0
N919 N 0.87009 0.33459 0.53412 0.0
H920 H 0.78993 0.33047 0.56836 0.0
H921 H 0.82131 0.34878 0.58003 0.0
H922 H 0.89192 0.33634 0.52894 0.0
H923 H 0.85993 0.35407 0.53691 0.0
H924 H 0.82257 0.21553 0.47606 0.0
H925 H 0.79102 0.23141 0.49807 0.0
H926 H 0.86346 0.2134 0.50918 0.0
H927 H 0.89445 0.23304 0.50715 0.0
C928 C 0.74363 0.17603 0.55245 0.0
C929 C 0.72087 0.1909 0.52487 0.0
C930 C 0.69635 0.1461 0.50485 0.0
C931 C 0.7205 0.13122 0.52569 0.0
N932 N 0.76872 0.13153 0.56157 0.0
N933 N 0.67672 0.19035 0.46914 0.0
C934 C 0.74454 0.14604 0.54779 0.0
C935 C 0.69755 0.17598 0.49941 0.0
N936 N 0.7644 0.1905 0.58293 0.0
N937 N 0.67196 0.13171 0.49215 0.0
H938 H 0.6761 0.21233 0.46679 0.0
H939 H 0.66107 0.1805 0.44306 0.0
H940 H 0.67026 0.10979 0.49576 0.0
H941 H 0.65273 0.1416 0.48329 0.0
H942 H 0.77983 0.18072 0.6096 0.0
H943 H 0.76504 0.21249 0.58577 0.0
H944 H 0.78793 0.14129 0.57114 0.0
H945 H 0.77029 0.10957 0.55839 0.0
C946 C 0.32923 0.24535 0.03023 0.0
C947 C 0.31343 0.22145 0.0105 0.0
C948 C 0.35717 0.19424 -0.00302 0.0
C949 C 0.37297 0.21869 0.01279 0.0
N950 N 0.37483 0.26866 0.03474 0.0
N951 N 0.31187 0.17432 0.96775 0.0
C952 C 0.35921 0.24458 0.0268 0.0
C953 C 0.32729 0.19625 0.99145 0.0
N954 N 0.31558 0.26869 0.05285 0.0
N955 N 0.37068 0.16889 0.98941 0.0
H956 H 0.28989 0.1746 0.96538 0.0
H957 H 0.32079 0.15664 0.94665 0.0
H958 H 0.39256 0.1667 0.99246 0.0
H959 H 0.36023 0.14965 0.98467 0.0
H960 H 0.32585 0.28542 0.07469 0.0
H961 H 0.29365 0.27066 0.05357 0.0
H962 H 0.36607 0.28879 0.03816 0.0
H963 H 0.39685 0.26889 0.03299 0.0
C964 C 0.2621 0.82907 0.52535 0.0
C965 C 0.2858 0.81249 0.50789 0.0
C966 C 0.31339 0.85556 0.48999 0.0
C967 C 0.28875 0.87196 0.50063 0.0
N968 N 0.23851 0.87441 0.51889 0.0
N969 N 0.33346 0.80924 0.46927 0.0
C970 C 0.2628 0.85876 0.51608 0.0
C971 C 0.31132 0.82555 0.48886 0.0
N972 N 0.23893 0.81649 0.551 0.0
N973 N 0.3389 0.86871 0.48298 0.0
H974 H 0.33333 0.7872 0.47124 0.0
H975 H 0.35135 0.81741 0.44788 0.0
H976 H 0.34118 0.89065 0.48388 0.0
H977 H 0.3581 0.858 0.48137 0.0
H978 H 0.22234 0.82778 0.57082 0.0
H979 H 0.23722 0.79473 0.55729 0.0
H980 H 0.21847 0.86553 0.52286 0.0
H981 H 0.23798 0.89619 0.51177 0.0
C982 C 0.67482 0.81115 0.97733 0.0
C983 C 0.68871 0.78799 0.00578 0.0
C984 C 0.64346 0.76414 0.02079 0.0
C985 C 0.6294 0.78794 0.99536 0.0
N986 N 0.63071 0.83608 0.95985 0.0
N987 N 0.68612 0.74527 0.06619 0.0
C988 C 0.64481 0.8121 0.97673 0.0
C989 C 0.67296 0.76548 0.03161 0.0
N990 N 0.69035 0.83198 0.95005 0.0
N991 N 0.62892 0.73962 0.03129 0.0
H992 H 0.70784 0.74485 0.07377 0.0
H993 H 0.67524 0.7302 0.09178 0.0
H994 H 0.60734 0.73738 0.02303 0.0
H995 H 0.63866 0.72062 0.04281 0.0
H996 H 0.68166 0.84766 0.92233 0.0
H997 H 0.71231 0.83261 0.95229 0.0
H998 H 0.64063 0.85534 0.95168 0.0
H999 H 0.60871 0.83736 0.95894 0.0
loop_
_geom_bond_atom_site_label_1
_geom_bond_atom_site_label_2
_geom_bond_distance
_geom_bond_site_symmetry_2
_ccdc_geom_bond_type
Sc0 O3 2.025 . S
Sc0 O10 2.105 . S
Sc0 O13 2.105 . S
Sc0 O16 2.105 . S
Sc0 O19 2.105 . S
Sc1 O3 2.025 . S
Sc1 O11 2.105 . S
Sc1 O15 2.105 1_554 S
Sc1 O17 2.105 . S
Sc1 O21 2.105 1_554 S
Sc2 O3 2.025 1_556 S
Sc2 O12 2.105 . S
Sc2 O14 2.105 . S
Sc2 O18 2.105 . S
Sc2 O20 2.105 . S
O3 Sc0 2.025 . S
O3 Sc1 2.025 . S
O3 Sc2 2.025 1_554 S
C4 O10 1.268 . S
C4 O20 1.268 1_554 S
C5 O11 1.268 . S
C5 O19 1.268 . S
C6 O12 1.268 . S
C6 O21 1.268 . S
C7 O13 1.268 . S
C7 O17 1.268 . S
C8 O14 1.268 1_554 S
C8 O16 1.268 . S
C9 O15 1.268 . S
C9 O18 1.268 . S
O10 Sc0 2.105 . S
O10 C4 1.268 . S
O11 Sc1 2.105 . S
O11 C5 1.268 . S
O12 Sc2 2.105 . S
O12 C6 1.268 . S
O13 Sc0 2.105 . S
O13 C7 1.268 . S
O14 Sc2 2.105 . S
O14 C8 1.268 1_556 S
O15 Sc1 2.105 1_556 S
O15 C9 1.268 . S
O16 Sc0 2.105 . S
O16 C8 1.268 . S
O17 Sc1 2.105 . S
O17 C7 1.268 . S
O18 Sc2 2.105 . S
O18 C9 1.268 . S
O19 Sc0 2.105 . S
O19 C5 1.268 . S
O20 Sc2 2.105 . S
O20 C4 1.268 1_556 S
O21 Sc1 2.105 1_556 S
O21 C6 1.268 . S
Sc22 O25 2.025 . S
Sc22 O32 2.105 . S
Sc22 O35 2.105 . S
Sc22 O38 2.105 . S
Sc22 O41 2.105 . S
Sc23 O25 2.025 . S
Sc23 O33 2.105 . S
Sc23 O37 2.105 . S
Sc23 O39 2.105 . S
Sc23 O43 2.105 . S
Sc24 O25 2.025 . S
Sc24 O34 2.105 . S
Sc24 O36 2.105 . S
Sc24 O40 2.105 . S
Sc24 O42 2.105 . S
O25 Sc22 2.025 . S
O25 Sc23 2.025 . S
O25 Sc24 2.025 . S
C26 O32 1.268 . S
C26 O42 1.268 . S
C27 O33 1.268 . S
C27 O41 1.268 . S
C28 O34 1.268 . S
C28 O43 1.268 . S
C29 O35 1.268 . S
C29 O39 1.268 . S
C30 O36 1.268 . S
C30 O38 1.268 . S
C31 O37 1.268 . S
C31 O40 1.268 . S
O32 Sc22 2.105 . S
O32 C26 1.268 . S
O33 Sc23 2.105 . S
O33 C27 1.268 . S
O34 Sc24 2.105 . S
O34 C28 1.268 . S
O35 Sc22 2.105 . S
O35 C29 1.268 . S
O36 Sc24 2.105 . S
O36 C30 1.268 . S
O37 Sc23 2.105 . S
O37 C31 1.268 . S
O38 Sc22 2.105 . S
O38 C30 1.268 . S
O39 Sc23 2.105 . S
O39 C29 1.268 . S
O40 Sc24 2.105 . S
O40 C31 1.268 . S
O41 Sc22 2.105 . S
O41 C27 1.268 . S
O42 Sc24 2.105 . S
O42 C26 1.268 . S
O43 Sc23 2.105 . S
O43 C28 1.268 . S
Sc44 O47 2.025 1_556 S
Sc44 O54 2.105 . S
Sc44 O57 2.105 . S
Sc44 O60 2.105 . S
Sc44 O63 2.105 . S
Sc45 O47 2.025 . S
Sc45 O55 2.105 1_554 S
Sc45 O59 2.105 . S
Sc45 O61 2.105 1_554 S
Sc45 O65 2.105 . S
Sc46 O47 2.025 . S
Sc46 O56 2.105 . S
Sc46 O58 2.105 . S
Sc46 O62 2.105 . S
Sc46 O64 2.105 . S
O47 Sc44 2.025 1_554 S
O47 Sc45 2.025 . S
O47 Sc46 2.025 . S
C48 O54 1.268 1_554 S
C48 O64 1.268 . S
C49 O55 1.268 . S
C49 O63 1.268 . S
C50 O56 1.268 . S
C50 O65 1.268 . S
C51 O57 1.268 . S
C51 O61 1.268 . S
C52 O58 1.268 . S
C52 O60 1.268 1_554 S
C53 O59 1.268 . S
C53 O62 1.268 . S
O54 Sc44 2.105 . S
O54 C48 1.268 1_556 S
O55 Sc45 2.105 1_556 S
O55 C49 1.268 . S
O56 Sc46 2.105 . S
O56 C50 1.268 . S
O57 Sc44 2.105 . S
O57 C51 1.268 . S
O58 Sc46 2.105 . S
O58 C52 1.268 . S
O59 Sc45 2.105 . S
O59 C53 1.268 . S
O60 Sc44 2.105 . S
O60 C52 1.268 1_556 S
O61 Sc45 2.105 1_556 S
O61 C51 1.268 . S
O62 Sc46 2.105 . S
O62 C53 1.268 . S
O63 Sc44 2.105 . S
O63 C49 1.268 . S
O64 Sc46 2.105 . S
O64 C48 1.268 . S
O65 Sc45 2.105 . S
O65 C50 1.268 . S
Sc66 O69 2.025 . S
Sc66 O76 2.105 . S
Sc66 O79 2.105 . S
Sc66 O82 2.105 . S
Sc66 O85 2.105 . S
Sc67 O69 2.025 . S
Sc67 O77 2.105 . S
Sc67 O81 2.105 . S
Sc67 O83 2.105 . S
Sc67 O87 2.105 . S
Sc68 O69 2.025 . S
Sc68 O78 2.105 . S
Sc68 O80 2.105 . S
Sc68 O84 2.105 . S
Sc68 O86 2.105 . S
O69 Sc66 2.025 . S
O69 Sc67 2.025 . S
O69 Sc68 2.025 . S
C70 O76 1.268 . S
C70 O86 1.268 . S
C71 O77 1.268 . S
C71 O85 1.268 . S
C72 O78 1.268 . S
C72 O87 1.268 . S
C73 O79 1.268 . S
C73 O83 1.268 . S
C74 O80 1.268 . S
C74 O82 1.268 . S
C75 O81 1.268 . S
C75 O84 1.268 . S
O76 Sc66 2.105 . S
O76 C70 1.268 . S
O77 Sc67 2.105 . S
O77 C71 1.268 . S
O78 Sc68 2.105 . S
O78 C72 1.268 . S
O79 Sc66 2.105 . S
O79 C73 1.268 . S
O80 Sc68 2.105 . S
O80 C74 1.268 . S
O81 Sc67 2.105 . S
O81 C75 1.268 . S
O82 Sc66 2.105 . S
O82 C74 1.268 . S
O83 Sc67 2.105 . S
O83 C73 1.268 . S
O84 Sc68 2.105 . S
O84 C75 1.268 . S
O85 Sc66 2.105 . S
O85 C71 1.268 . S
O86 Sc68 2.105 . S
O86 C70 1.268 . S
O87 Sc67 2.105 . S
O87 C72 1.268 . S
C88 C89 1.391 . S
C88 C92 1.391 . S
C88 H130 0.948 . S
C89 C88 1.391 . S
C89 C90 1.391 . S
C90 C89 1.391 . S
C90 H146 0.947 . S
C90 C147 1.392 . S
C91 C92 1.391 . S
C91 C95 1.397 . S
C91 C147 1.419 . S
C92 C88 1.391 . S
C92 C91 1.391 . S
C92 C93 1.399 . S
C93 C92 1.399 . S
C93 C96 1.396 . S
C93 C105 1.453 . S
C93 C106 1.684 . S
H94 C118 0.948 . S
C95 C91 1.397 . S
C95 C96 1.394 . S
C95 C114 1.723 1_556 S
C96 C93 1.396 . S
C96 C95 1.394 . S
C96 C126 1.723 . S
H97 C120 0.947 . S
H98 C121 0.948 . S
H99 C127 0.982 . S
H100 C128 0.979 . S
H101 C128 0.980 . S
H102 C128 0.983 . S
H103 C127 0.979 . S
H104 C127 0.977 . S
C105 C93 1.453 . S
C105 H134 0.982 . S
C105 H135 0.979 . S
C105 H136 0.977 . S
C106 C93 1.684 . S
C106 H131 0.979 . S
C106 H132 0.980 . S
C106 H133 0.983 . S
C107 C108 1.391 . S
C107 C112 1.391 . S
C107 H137 0.948 . S
C108 C107 1.391 . S
C108 C109 1.391 . S
C109 C108 1.391 . S
C109 C110 1.392 . S
C109 H138 0.947 . S
C110 C109 1.392 . S
C110 C111 1.419 . S
C110 H139 0.948 . S
C111 C110 1.419 . S
C111 C112 1.391 . S
C111 C115 1.397 . S
C112 C107 1.391 . S
C112 C111 1.391 . S
C112 C113 1.399 . S
C113 C112 1.399 . S
C113 C114 1.396 . S
C113 C116 1.453 . S
C113 C117 1.684 . S
C114 C95 1.723 1_554 S
C114 C113 1.396 . S
C114 C115 1.394 . S
C115 C111 1.397 . S
C115 C114 1.394 . S
C115 C125 1.723 . S
C116 C113 1.453 . S
C116 H140 0.982 . S
C116 H141 0.979 . S
C116 H142 0.977 1_554 S
C117 C113 1.684 . S
C117 H143 0.979 . S
C117 H144 0.980 1_554 S
C117 H145 0.983 . S
C118 H94 0.948 . S
C118 C119 1.391 1_554 S
C118 C123 1.391 . S
C119 C118 1.391 1_556 S
C119 C120 1.391 . S
C120 H97 0.947 . S
C120 C119 1.391 . S
C120 C121 1.392 . S
C121 H98 0.948 . S
C121 C120 1.392 . S
C121 C122 1.419 . S
C122 C121 1.419 . S
C122 C123 1.391 1_556 S
C122 C126 1.397 . S
C123 C118 1.391 . S
C123 C122 1.391 1_554 S
C123 C124 1.399 . S
C124 C123 1.399 . S
C124 C125 1.396 . S
C124 C127 1.453 . S
C124 C128 1.684 . S
C125 C115 1.723 . S
C125 C124 1.396 . S
C125 C126 1.394 1_554 S
C126 C96 1.723 . S
C126 C122 1.397 . S
C126 C125 1.394 1_556 S
C127 H99 0.982 . S
C127 H103 0.979 . S
C127 H104 0.977 . S
C127 C124 1.453 . S
C128 H100 0.979 . S
C128 H101 0.980 . S
C128 H102 0.983 . S
C128 C124 1.684 . S
H129 C147 0.948 . S
H130 C88 0.948 . S
H131 C106 0.979 . S
H132 C106 0.980 . S
H133 C106 0.983 . S
H134 C105 0.982 . S
H135 C105 0.979 . S
H136 C105 0.977 . S
H137 C107 0.948 . S
H138 C109 0.947 . S
H139 C110 0.948 . S
H140 C116 0.982 . S
H141 C116 0.979 . S
H142 C116 0.977 1_556 S
H143 C117 0.979 . S
H144 C117 0.980 1_556 S
H145 C117 0.983 . S
H146 C90 0.947 . S
C147 C90 1.392 . S
C147 C91 1.419 . S
C147 H129 0.948 . S
C148 C149 1.391 . S
C148 C152 1.391 . S
C148 H190 0.948 . S
C149 C148 1.391 . S
C149 C150 1.391 . S
C150 C149 1.391 . S
C150 H206 0.947 . S
C150 C207 1.392 . S
C151 C152 1.391 . S
C151 C155 1.397 . S
C151 C207 1.419 . S
C152 C148 1.391 . S
C152 C151 1.391 . S
C152 C153 1.399 . S
C153 C152 1.399 . S
C153 C156 1.396 . S
C153 C165 1.453 . S
C153 C166 1.684 . S
H154 C178 0.948 . S
C155 C151 1.397 . S
C155 C156 1.394 . S
C155 C174 1.723 1_455 S
C156 C153 1.396 . S
C156 C155 1.394 . S
C156 C186 1.723 1_455 S
H157 C180 0.947 . S
H158 C181 0.948 . S
H159 C187 0.982 . S
H160 C188 0.979 . S
H161 C188 0.980 . S
H162 C188 0.983 . S
H163 C187 0.979 . S
H164 C187 0.977 . S
C165 C153 1.453 . S
C165 H194 0.982 . S
C165 H195 0.979 . S
C165 H196 0.977 . S
C166 C153 1.684 . S
C166 H191 0.979 . S
C166 H192 0.980 . S
C166 H193 0.983 . S
C167 C168 1.391 . S
C167 C172 1.391 . S
C167 H197 0.948 . S
C168 C167 1.391 . S
C168 C169 1.391 . S
C169 C168 1.391 . S
C169 C170 1.392 . S
C169 H198 0.947 . S
C170 C169 1.392 . S
C170 C171 1.419 . S
C170 H199 0.948 . S
C171 C170 1.419 . S
C171 C172 1.391 . S
C171 C175 1.397 . S
C172 C167 1.391 . S
C172 C171 1.391 . S
C172 C173 1.399 . S
C173 C172 1.399 . S
C173 C174 1.396 . S
C173 C176 1.453 1_655 S
C173 C177 1.684 1_655 S
C174 C155 1.723 1_655 S
C174 C173 1.396 . S
C174 C175 1.394 . S
C175 C171 1.397 . S
C175 C174 1.394 . S
C175 C185 1.723 . S
C176 C173 1.453 1_455 S
C176 H200 0.982 . S
C176 H201 0.979 . S
C176 H202 0.977 . S
C177 C173 1.684 1_455 S
C177 H203 0.979 1_455 S
C177 H204 0.980 . S
C177 H205 0.983 . S
C178 H154 0.948 . S
C178 C179 1.391 . S
C178 C183 1.391 . S
C179 C178 1.391 . S
C179 C180 1.391 . S
C180 H157 0.947 . S
C180 C179 1.391 . S
C180 C181 1.392 . S
C181 H158 0.948 . S
C181 C180 1.392 . S
C181 C182 1.419 . S
C182 C181 1.419 . S
C182 C183 1.391 . S
C182 C186 1.397 . S
C183 C178 1.391 . S
C183 C182 1.391 . S
C183 C184 1.399 . S
C184 C183 1.399 . S
C184 C185 1.396 . S
C184 C187 1.453 . S
C184 C188 1.684 . S
C185 C175 1.723 . S
C185 C184 1.396 . S
C185 C186 1.394 . S
C186 C156 1.723 1_655 S
C186 C182 1.397 . S
C186 C185 1.394 . S
C187 H159 0.982 . S
C187 H163 0.979 . S
C187 H164 0.977 . S
C187 C184 1.453 . S
C188 H160 0.979 . S
C188 H161 0.980 . S
C188 H162 0.983 . S
C188 C184 1.684 . S
H189 C207 0.948 . S
H190 C148 0.948 . S
H191 C166 0.979 . S
H192 C166 0.980 . S
H193 C166 0.983 . S
H194 C165 0.982 . S
H195 C165 0.979 . S
H196 C165 0.977 . S
H197 C167 0.948 . S
H198 C169 0.947 . S
H199 C170 0.948 . S
H200 C176 0.982 . S
H201 C176 0.979 . S
H202 C176 0.977 . S
H203 C177 0.979 1_655 S
H204 C177 0.980 . S
H205 C177 0.983 . S
H206 C150 0.947 . S
C207 C150 1.392 . S
C207 C151 1.419 . S
C207 H189 0.948 . S
C208 C209 1.391 . S
C208 C212 1.391 . S
C208 H250 0.948 . S
C209 C208 1.391 . S
C209 C210 1.391 . S
C210 C209 1.391 . S
C210 H266 0.947 . S
C210 C267 1.392 . S
C211 C212 1.391 . S
C211 C215 1.397 . S
C211 C267 1.419 . S
C212 C208 1.391 . S
C212 C211 1.391 . S
C212 C213 1.399 . S
C213 C212 1.399 . S
C213 C216 1.396 . S
C213 C225 1.453 . S
C213 C226 1.684 . S
H214 C238 0.948 . S
C215 C211 1.397 . S
C215 C216 1.394 . S
C215 C234 1.723 1_554 S
C216 C213 1.396 . S
C216 C215 1.394 . S
C216 C246 1.723 . S
H217 C240 0.947 . S
H218 C241 0.948 . S
H219 C247 0.982 . S
H220 C248 0.979 . S
H221 C248 0.980 . S
H222 C248 0.983 . S
H223 C247 0.979 . S
H224 C247 0.977 . S
C225 C213 1.453 . S
C225 H254 0.982 . S
C225 H255 0.979 . S
C225 H256 0.977 . S
C226 C213 1.684 . S
C226 H251 0.979 . S
C226 H252 0.980 . S
C226 H253 0.983 . S
C227 C228 1.391 . S
C227 C232 1.391 . S
C227 H257 0.948 . S
C228 C227 1.391 . S
C228 C229 1.391 . S
C229 C228 1.391 . S
C229 C230 1.392 . S
C229 H258 0.947 . S
C230 C229 1.392 . S
C230 C231 1.419 . S
C230 H259 0.948 . S
C231 C230 1.419 . S
C231 C232 1.391 . S
C231 C235 1.397 . S
C232 C227 1.391 . S
C232 C231 1.391 . S
C232 C233 1.399 . S
C233 C232 1.399 . S
C233 C234 1.396 . S
C233 C236 1.453 . S
C233 C237 1.684 . S
C234 C215 1.723 1_556 S
C234 C233 1.396 . S
C234 C235 1.394 . S
C235 C231 1.397 . S
C235 C234 1.394 . S
C235 C245 1.723 . S
C236 C233 1.453 . S
C236 H260 0.982 . S
C236 H261 0.979 . S
C236 H262 0.977 1_556 S
C237 C233 1.684 . S
C237 H263 0.979 . S
C237 H264 0.980 1_556 S
C237 H265 0.983 . S
C238 H214 0.948 . S
C238 C239 1.391 1_556 S
C238 C243 1.391 . S
C239 C238 1.391 1_554 S
C239 C240 1.391 . S
C240 H217 0.947 . S
C240 C239 1.391 . S
C240 C241 1.392 . S
C241 H218 0.948 . S
C241 C240 1.392 . S
C241 C242 1.419 . S
C242 C241 1.419 . S
C242 C243 1.391 1_554 S
C242 C246 1.397 . S
C243 C238 1.391 . S
C243 C242 1.391 1_556 S
C243 C244 1.399 . S
C244 C243 1.399 . S
C244 C245 1.396 . S
C244 C247 1.453 . S
C244 C248 1.684 . S
C245 C235 1.723 . S
C245 C244 1.396 . S
C245 C246 1.394 1_556 S
C246 C216 1.723 . S
C246 C242 1.397 . S
C246 C245 1.394 1_554 S
C247 H219 0.982 . S
C247 H223 0.979 . S
C247 H224 0.977 . S
C247 C244 1.453 . S
C248 H220 0.979 . S
C248 H221 0.980 . S
C248 H222 0.983 . S
C248 C244 1.684 . S
H249 C267 0.948 . S
H250 C208 0.948 . S
H251 C226 0.979 . S
H252 C226 0.980 . S
H253 C226 0.983 . S
H254 C225 0.982 . S
H255 C225 0.979 . S
H256 C225 0.977 . S
H257 C227 0.948 . S
H258 C229 0.947 . S
H259 C230 0.948 . S
H260 C236 0.982 . S
H261 C236 0.979 . S
H262 C236 0.977 1_554 S
H263 C237 0.979 . S
H264 C237 0.980 1_554 S
H265 C237 0.983 . S
H266 C210 0.947 . S
C267 C210 1.392 . S
C267 C211 1.419 . S
C267 H249 0.948 . S
C268 C269 1.391 . S
C268 C272 1.391 . S
C268 H310 0.948 . S
C269 C268 1.391 . S
C269 C270 1.391 . S
C270 C269 1.391 . S
C270 H326 0.947 . S
C270 C327 1.392 . S
C271 C272 1.391 . S
C271 C275 1.397 . S
C271 C327 1.419 . S
C272 C268 1.391 . S
C272 C271 1.391 . S
C272 C273 1.399 . S
C273 C272 1.399 . S
C273 C276 1.396 . S
C273 C285 1.453 1_455 S
C273 C286 1.684 1_455 S
H274 C298 0.948 . S
C275 C271 1.397 . S
C275 C276 1.394 . S
C275 C294 1.723 . S
C276 C273 1.396 . S
C276 C275 1.394 . S
C276 C306 1.723 1_455 S
H277 C300 0.947 . S
H278 C301 0.948 . S
H279 C307 0.982 . S
H280 C308 0.979 . S
H281 C308 0.980 . S
H282 C308 0.983 . S
H283 C307 0.979 . S
H284 C307 0.977 . S
C285 C273 1.453 1_655 S
C285 H314 0.982 . S
C285 H315 0.979 . S
C285 H316 0.977 . S
C286 C273 1.684 1_655 S
C286 H311 0.979 1_655 S
C286 H312 0.980 . S
C286 H313 0.983 . S
C287 C288 1.391 . S
C287 C292 1.391 . S
C287 H317 0.948 . S
C288 C287 1.391 . S
C288 C289 1.391 . S
C289 C288 1.391 . S
C289 C290 1.392 . S
C289 H318 0.947 . S
C290 C289 1.392 . S
C290 C291 1.419 . S
C290 H319 0.948 . S
C291 C290 1.419 . S
C291 C292 1.391 . S
C291 C295 1.397 . S
C292 C287 1.391 . S
C292 C291 1.391 . S
C292 C293 1.399 . S
C293 C292 1.399 . S
C293 C294 1.396 . S
C293 C296 1.453 . S
C293 C297 1.684 . S
C294 C275 1.723 . S
C294 C293 1.396 . S
C294 C295 1.394 . S
C295 C291 1.397 . S
C295 C294 1.394 . S
C295 C305 1.723 1_455 S
C296 C293 1.453 . S
C296 H320 0.982 . S
C296 H321 0.979 . S
C296 H322 0.977 . S
C297 C293 1.684 . S
C297 H323 0.979 . S
C297 H324 0.980 . S
C297 H325 0.983 . S
C298 H274 0.948 . S
C298 C299 1.391 . S
C298 C303 1.391 . S
C299 C298 1.391 . S
C299 C300 1.391 . S
C300 H277 0.947 . S
C300 C299 1.391 . S
C300 C301 1.392 . S
C301 H278 0.948 . S
C301 C300 1.392 . S
C301 C302 1.419 . S
C302 C301 1.419 . S
C302 C303 1.391 . S
C302 C306 1.397 . S
C303 C298 1.391 . S
C303 C302 1.391 . S
C303 C304 1.399 . S
C304 C303 1.399 . S
C304 C305 1.396 . S
C304 C307 1.453 . S
C304 C308 1.684 . S
C305 C295 1.723 1_655 S
C305 C304 1.396 . S
C305 C306 1.394 . S
C306 C276 1.723 1_655 S
C306 C302 1.397 . S
C306 C305 1.394 . S
C307 H279 0.982 . S
C307 H283 0.979 . S
C307 H284 0.977 . S
C307 C304 1.453 . S
C308 H280 0.979 . S
C308 H281 0.980 . S
C308 H282 0.983 . S
C308 C304 1.684 . S
H309 C327 0.948 . S
H310 C268 0.948 . S
H311 C286 0.979 1_455 S
H312 C286 0.980 . S
H313 C286 0.983 . S
H314 C285 0.982 . S
H315 C285 0.979 . S
H316 C285 0.977 . S
H317 C287 0.948 . S
H318 C289 0.947 . S
H319 C290 0.948 . S
H320 C296 0.982 . S
H321 C296 0.979 . S
H322 C296 0.977 . S
H323 C297 0.979 . S
H324 C297 0.980 . S
H325 C297 0.983 . S
H326 C270 0.947 . S
C327 C270 1.392 . S
C327 C271 1.419 . S
C327 H309 0.948 . S
C328 C329 1.391 . S
C328 C332 1.391 . S
C328 H370 0.948 . S
C329 C328 1.391 . S
C329 C330 1.391 . S
C330 C329 1.391 . S
C330 H386 0.947 . S
C330 C387 1.392 . S
C331 C332 1.391 . S
C331 C335 1.397 . S
C331 C387 1.419 . S
C332 C328 1.391 . S
C332 C331 1.391 . S
C332 C333 1.399 . S
C333 C332 1.399 . S
C333 C336 1.396 . S
C333 C345 1.453 1_565 S
C333 C346 1.684 1_565 S
H334 C358 0.948 . S
C335 C331 1.397 . S
C335 C336 1.394 . S
C335 C354 1.723 . S
C336 C333 1.396 . S
C336 C335 1.394 . S
C336 C366 1.723 1_565 S
H337 C360 0.947 . S
H338 C361 0.948 . S
H339 C367 0.982 . S
H340 C368 0.979 . S
H341 C368 0.980 . S
H342 C368 0.983 . S
H343 C367 0.979 . S
H344 C367 0.977 . S
C345 C333 1.453 1_545 S
C345 H374 0.982 . S
C345 H375 0.979 . S
C345 H376 0.977 . S
C346 C333 1.684 1_545 S
C346 H371 0.979 1_545 S
C346 H372 0.980 . S
C346 H373 0.983 . S
C347 C348 1.391 . S
C347 C352 1.391 . S
C347 H377 0.948 . S
C348 C347 1.391 . S
C348 C349 1.391 . S
C349 C348 1.391 . S
C349 C350 1.392 . S
C349 H378 0.947 . S
C350 C349 1.392 . S
C350 C351 1.419 . S
C350 H379 0.948 . S
C351 C350 1.419 . S
C351 C352 1.391 . S
C351 C355 1.397 . S
C352 C347 1.391 . S
C352 C351 1.391 . S
C352 C353 1.399 . S
C353 C352 1.399 . S
C353 C354 1.396 . S
C353 C356 1.453 . S
C353 C357 1.684 . S
C354 C335 1.723 . S
C354 C353 1.396 . S
C354 C355 1.394 . S
C355 C351 1.397 . S
C355 C354 1.394 . S
C355 C365 1.723 1_565 S
C356 C353 1.453 . S
C356 H380 0.982 . S
C356 H381 0.979 . S
C356 H382 0.977 . S
C357 C353 1.684 . S
C357 H383 0.979 . S
C357 H384 0.980 . S
C357 H385 0.983 . S
C358 H334 0.948 . S
C358 C359 1.391 . S
C358 C363 1.391 . S
C359 C358 1.391 . S
C359 C360 1.391 . S
C360 H337 0.947 . S
C360 C359 1.391 . S
C360 C361 1.392 . S
C361 H338 0.948 . S
C361 C360 1.392 . S
C361 C362 1.419 . S
C362 C361 1.419 . S
C362 C363 1.391 . S
C362 C366 1.397 . S
C363 C358 1.391 . S
C363 C362 1.391 . S
C363 C364 1.399 . S
C364 C363 1.399 . S
C364 C365 1.396 . S
C364 C367 1.453 . S
C364 C368 1.684 . S
C365 C355 1.723 1_545 S
C365 C364 1.396 . S
C365 C366 1.394 . S
C366 C336 1.723 1_545 S
C366 C362 1.397 . S
C366 C365 1.394 . S
C367 H339 0.982 . S
C367 H343 0.979 . S
C367 H344 0.977 . S
C367 C364 1.453 . S
C368 H340 0.979 . S
C368 H341 0.980 . S
C368 H342 0.983 . S
C368 C364 1.684 . S
H369 C387 0.948 . S
H370 C328 0.948 . S
H371 C346 0.979 1_565 S
H372 C346 0.980 . S
H373 C346 0.983 . S
H374 C345 0.982 . S
H375 C345 0.979 . S
H376 C345 0.977 . S
H377 C347 0.948 . S
H378 C349 0.947 . S
H379 C350 0.948 . S
H380 C356 0.982 . S
H381 C356 0.979 . S
H382 C356 0.977 . S
H383 C357 0.979 . S
H384 C357 0.980 . S
H385 C357 0.983 . S
H386 C330 0.947 . S
C387 C330 1.392 . S
C387 C331 1.419 . S
C387 H369 0.948 . S
C388 C389 1.391 . S
C388 C392 1.391 . S
C388 H430 0.948 . S
C389 C388 1.391 . S
C389 C390 1.391 . S
C390 C389 1.391 . S
C390 H446 0.947 . S
C390 C447 1.392 . S
C391 C392 1.391 . S
C391 C395 1.397 . S
C391 C447 1.419 . S
C392 C388 1.391 . S
C392 C391 1.391 . S
C392 C393 1.399 . S
C393 C392 1.399 . S
C393 C396 1.396 . S
C393 C405 1.453 . S
C393 C406 1.684 . S
H394 C418 0.948 . S
C395 C391 1.397 . S
C395 C396 1.394 . S
C395 C414 1.723 1_554 S
C396 C393 1.396 . S
C396 C395 1.394 . S
C396 C426 1.723 . S
H397 C420 0.947 . S
H398 C421 0.948 . S
H399 C427 0.982 . S
H400 C428 0.979 . S
H401 C428 0.980 . S
H402 C428 0.983 . S
H403 C427 0.979 . S
H404 C427 0.977 . S
C405 C393 1.453 . S
C405 H434 0.982 . S
C405 H435 0.979 . S
C405 H436 0.977 . S
C406 C393 1.684 . S
C406 H431 0.979 . S
C406 H432 0.980 . S
C406 H433 0.983 . S
C407 C408 1.391 . S
C407 C412 1.391 . S
C407 H437 0.948 . S
C408 C407 1.391 . S
C408 C409 1.391 . S
C409 C408 1.391 . S
C409 C410 1.392 . S
C409 H438 0.947 . S
C410 C409 1.392 . S
C410 C411 1.419 . S
C410 H439 0.948 . S
C411 C410 1.419 . S
C411 C412 1.391 . S
C411 C415 1.397 . S
C412 C407 1.391 . S
C412 C411 1.391 . S
C412 C413 1.399 . S
C413 C412 1.399 . S
C413 C414 1.396 . S
C413 C416 1.453 . S
C413 C417 1.684 . S
C414 C395 1.723 1_556 S
C414 C413 1.396 . S
C414 C415 1.394 . S
C415 C411 1.397 . S
C415 C414 1.394 . S
C415 C425 1.723 . S
C416 C413 1.453 . S
C416 H440 0.982 . S
C416 H441 0.979 . S
C416 H442 0.977 1_556 S
C417 C413 1.684 . S
C417 H443 0.979 . S
C417 H444 0.980 1_556 S
C417 H445 0.983 . S
C418 H394 0.948 . S
C418 C419 1.391 1_556 S
C418 C423 1.391 . S
C419 C418 1.391 1_554 S
C419 C420 1.391 . S
C420 H397 0.947 . S
C420 C419 1.391 . S
C420 C421 1.392 . S
C421 H398 0.948 . S
C421 C420 1.392 . S
C421 C422 1.419 . S
C422 C421 1.419 . S
C422 C423 1.391 1_554 S
C422 C426 1.397 . S
C423 C418 1.391 . S
C423 C422 1.391 1_556 S
C423 C424 1.399 . S
C424 C423 1.399 . S
C424 C425 1.396 . S
C424 C427 1.453 . S
C424 C428 1.684 . S
C425 C415 1.723 . S
C425 C424 1.396 . S
C425 C426 1.394 1_556 S
C426 C396 1.723 . S
C426 C422 1.397 . S
C426 C425 1.394 1_554 S
C427 H399 0.982 . S
C427 H403 0.979 . S
C427 H404 0.977 . S
C427 C424 1.453 . S
C428 H400 0.979 . S
C428 H401 0.980 . S
C428 H402 0.983 . S
C428 C424 1.684 . S
H429 C447 0.948 . S
H430 C388 0.948 . S
H431 C406 0.979 . S
H432 C406 0.980 . S
H433 C406 0.983 . S
H434 C405 0.982 . S
H435 C405 0.979 . S
H436 C405 0.977 . S
H437 C407 0.948 . S
H438 C409 0.947 . S
H439 C410 0.948 . S
H440 C416 0.982 . S
H441 C416 0.979 . S
H442 C416 0.977 1_554 S
H443 C417 0.979 . S
H444 C417 0.980 1_554 S
H445 C417 0.983 . S
H446 C390 0.947 . S
C447 C390 1.392 . S
C447 C391 1.419 . S
C447 H429 0.948 . S
C448 C449 1.391 . S
C448 C452 1.391 . S
C448 H490 0.948 . S
C449 C448 1.391 . S
C449 C450 1.391 . S
C450 C449 1.391 . S
C450 H506 0.947 . S
C450 C507 1.392 . S
C451 C452 1.391 . S
C451 C455 1.397 . S
C451 C507 1.419 . S
C452 C448 1.391 . S
C452 C451 1.391 . S
C452 C453 1.399 . S
C453 C452 1.399 . S
C453 C456 1.396 . S
C453 C465 1.437 1_545 S
C453 C466 1.684 1_545 S
H454 C478 0.948 . S
C455 C451 1.397 . S
C455 C456 1.394 . S
C455 C474 1.723 . S
C456 C453 1.396 . S
C456 C455 1.394 . S
C456 C486 1.723 1_545 S
H457 C480 0.947 . S
H458 C481 0.948 . S
H459 C487 0.982 . S
H460 C488 0.979 . S
H461 C488 0.980 . S
H462 C488 0.983 . S
H463 C487 0.979 . S
H464 C487 0.977 . S
C465 C453 1.437 1_565 S
C465 H494 0.963 1_565 S
C465 H495 0.981 . S
C465 H496 1.013 . S
C466 C453 1.684 1_565 S
C466 H491 0.979 . S
C466 H492 0.980 . S
C466 H493 0.983 . S
C467 C468 1.391 . S
C467 C472 1.391 . S
C467 H497 0.948 . S
C468 C467 1.391 . S
C468 C469 1.391 . S
C469 C468 1.391 . S
C469 C470 1.392 . S
C469 H498 0.947 . S
C470 C469 1.392 . S
C470 C471 1.419 . S
C470 H499 0.948 . S
C471 C470 1.419 . S
C471 C472 1.391 . S
C471 C475 1.397 . S
C472 C467 1.391 . S
C472 C471 1.391 . S
C472 C473 1.399 . S
C473 C472 1.399 . S
C473 C474 1.396 . S
C473 C476 1.453 . S
C473 C477 1.684 . S
C474 C455 1.723 . S
C474 C473 1.396 . S
C474 C475 1.394 . S
C475 C471 1.397 . S
C475 C474 1.394 . S
C475 C485 1.723 1_545 S
C476 C473 1.453 . S
C476 H500 0.982 . S
C476 H501 0.979 . S
C476 H502 0.977 . S
C477 C473 1.684 . S
C477 H503 0.979 . S
C477 H504 0.980 . S
C477 H505 0.983 . S
C478 H454 0.948 . S
C478 C479 1.391 . S
C478 C483 1.391 . S
C479 C478 1.391 . S
C479 C480 1.391 . S
C480 H457 0.947 . S
C480 C479 1.391 . S
C480 C481 1.392 . S
C481 H458 0.948 . S
C481 C480 1.392 . S
C481 C482 1.419 . S
C482 C481 1.419 . S
C482 C483 1.391 . S
C482 C486 1.397 . S
C483 C478 1.391 . S
C483 C482 1.391 . S
C483 C484 1.399 . S
C484 C483 1.399 . S
C484 C485 1.396 . S
C484 C487 1.453 . S
C484 C488 1.684 . S
C485 C475 1.723 1_565 S
C485 C484 1.396 . S
C485 C486 1.394 . S
C486 C456 1.723 1_565 S
C486 C482 1.397 . S
C486 C485 1.394 . S
C487 H459 0.982 . S
C487 H463 0.979 . S
C487 H464 0.977 . S
C487 C484 1.453 . S
C488 H460 0.979 . S
C488 H461 0.980 . S
C488 H462 0.983 . S
C488 C484 1.684 . S
H489 C507 0.948 . S
H490 C448 0.948 . S
H491 C466 0.979 . S
H492 C466 0.980 . S
H493 C466 0.983 . S
H494 C465 0.963 1_545 S
H495 C465 0.981 . S
H496 C465 1.013 . S
H497 C467 0.948 . S
H498 C469 0.947 . S
H499 C470 0.948 . S
H500 C476 0.982 . S
H501 C476 0.979 . S
H502 C476 0.977 . S
H503 C477 0.979 . S
H504 C477 0.980 . S
H505 C477 0.983 . S
H506 C450 0.947 . S
C507 C450 1.392 . S
C507 C451 1.419 . S
C507 H489 0.948 . S
C508 C509 1.391 1_554 S
C508 C512 1.391 . S
C508 H550 0.948 . S
C509 C508 1.391 1_556 S
C509 C510 1.391 . S
C510 C509 1.391 . S
C510 H566 0.947 . S
C510 C567 1.392 . S
C511 C512 1.391 1_556 S
C511 C515 1.397 . S
C511 C567 1.419 . S
C512 C508 1.391 . S
C512 C511 1.391 1_554 S
C512 C513 1.399 . S
C513 C512 1.399 . S
C513 C516 1.396 . S
C513 C525 1.453 . S
C513 C526 1.684 . S
H514 C538 0.948 . S
C515 C511 1.397 . S
C515 C516 1.394 1_556 S
C515 C534 1.723 . S
C516 C513 1.396 . S
C516 C515 1.394 1_554 S
C516 C546 1.723 . S
H517 C540 0.947 . S
H518 C541 0.948 . S
H519 C547 0.982 . S
H520 C548 0.979 . S
H521 C548 0.980 1_556 S
H522 C548 0.983 . S
H523 C547 0.979 . S
H524 C547 0.977 1_556 S
C525 C513 1.453 . S
C525 H554 0.982 . S
C525 H555 0.979 . S
C525 H556 0.977 . S
C526 C513 1.684 . S
C526 H551 0.979 . S
C526 H552 0.980 . S
C526 H553 0.983 . S
C527 C528 1.391 . S
C527 C532 1.391 . S
C527 H557 0.948 . S
C528 C527 1.391 . S
C528 C529 1.391 . S
C529 C528 1.391 . S
C529 C530 1.392 . S
C529 H558 0.947 . S
C530 C529 1.392 . S
C530 C531 1.419 . S
C530 H559 0.948 . S
C531 C530 1.419 . S
C531 C532 1.391 . S
C531 C535 1.397 . S
C532 C527 1.391 . S
C532 C531 1.391 . S
C532 C533 1.399 . S
C533 C532 1.399 . S
C533 C534 1.396 . S
C533 C536 1.453 . S
C533 C537 1.684 . S
C534 C515 1.723 . S
C534 C533 1.396 . S
C534 C535 1.394 . S
C535 C531 1.397 . S
C535 C534 1.394 . S
C535 C545 1.723 1_556 S
C536 C533 1.453 . S
C536 H560 0.982 . S
C536 H561 0.979 . S
C536 H562 0.977 . S
C537 C533 1.684 . S
C537 H563 0.979 . S
C537 H564 0.980 . S
C537 H565 0.983 . S
C538 H514 0.948 . S
C538 C539 1.391 . S
C538 C543 1.391 . S
C539 C538 1.391 . S
C539 C540 1.391 . S
C540 H517 0.947 . S
C540 C539 1.391 . S
C540 C541 1.392 . S
C541 H518 0.948 . S
C541 C540 1.392 . S
C541 C542 1.419 . S
C542 C541 1.419 . S
C542 C543 1.391 . S
C542 C546 1.397 . S
C543 C538 1.391 . S
C543 C542 1.391 . S
C543 C544 1.399 . S
C544 C543 1.399 . S
C544 C545 1.396 . S
C544 C547 1.453 . S
C544 C548 1.684 . S
C545 C535 1.723 1_554 S
C545 C544 1.396 . S
C545 C546 1.394 . S
C546 C516 1.723 . S
C546 C542 1.397 . S
C546 C545 1.394 . S
C547 H519 0.982 . S
C547 H523 0.979 . S
C547 H524 0.977 1_554 S
C547 C544 1.453 . S
C548 H520 0.979 . S
C548 H521 0.980 1_554 S
C548 H522 0.983 . S
C548 C544 1.684 . S
H549 C567 0.948 . S
H550 C508 0.948 . S
H551 C526 0.979 . S
H552 C526 0.980 . S
H553 C526 0.983 . S
H554 C525 0.982 . S
H555 C525 0.979 . S
H556 C525 0.977 . S
H557 C527 0.948 . S
H558 C529 0.947 . S
H559 C530 0.948 . S
H560 C536 0.982 . S
H561 C536 0.979 . S
H562 C536 0.977 . S
H563 C537 0.979 . S
H564 C537 0.980 . S
H565 C537 0.983 . S
H566 C510 0.947 . S
C567 C510 1.392 . S
C567 C511 1.419 . S
C567 H549 0.948 . S
C568 C569 1.363 . S
C568 C574 1.379 . S
C568 N576 1.356 . S
C569 C568 1.363 . S
C569 C575 1.363 . S
C570 C571 1.363 . S
C570 C575 1.379 . S
C570 N577 1.356 . S
C571 C570 1.363 . S
C571 C574 1.363 . S
N572 C574 1.356 . S
N572 H584 0.984 . S
N572 H585 0.985 . S
N573 C575 1.356 . S
N573 H578 0.984 . S
N573 H579 0.985 . S
C574 C568 1.379 . S
C574 C571 1.363 . S
C574 N572 1.356 . S
C575 C569 1.363 . S
C575 C570 1.379 . S
C575 N573 1.356 . S
N576 C568 1.356 . S
N576 H582 0.984 . S
N576 H583 0.984 . S
N577 C570 1.356 . S
N577 H580 0.984 . S
N577 H581 0.985 . S
H578 N573 0.984 . S
H579 N573 0.985 . S
H580 N577 0.984 . S
H581 N577 0.985 . S
H582 N576 0.984 . S
H583 N576 0.984 . S
H584 N572 0.984 . S
H585 N572 0.985 . S
C586 C587 1.363 . S
C586 C592 1.379 . S
C586 N594 1.356 . S
C587 C586 1.363 . S
C587 C593 1.363 . S
C588 C589 1.363 . S
C588 C593 1.379 . S
C588 N595 1.356 . S
C589 C588 1.363 . S
C589 C592 1.363 . S
N590 C592 1.356 . S
N590 H602 0.984 . S
N590 H603 0.985 . S
N591 C593 1.356 . S
N591 H596 0.984 . S
N591 H597 0.985 . S
C592 C586 1.379 . S
C592 C589 1.363 . S
C592 N590 1.356 . S
C593 C587 1.363 . S
C593 C588 1.379 . S
C593 N591 1.356 . S
N594 C586 1.356 . S
N594 H600 0.984 . S
N594 H601 0.984 . S
N595 C588 1.356 . S
N595 H598 0.984 . S
N595 H599 0.985 . S
H596 N591 0.984 . S
H597 N591 0.985 . S
H598 N595 0.984 . S
H599 N595 0.985 . S
H600 N594 0.984 . S
H601 N594 0.984 . S
H602 N590 0.984 . S
H603 N590 0.985 . S
C604 C605 1.363 . S
C604 C610 1.379 . S
C604 N612 1.356 . S
C605 C604 1.363 . S
C605 C611 1.363 . S
C606 C607 1.363 . S
C606 C611 1.379 . S
C606 N613 1.356 . S
C607 C606 1.363 . S
C607 C610 1.363 . S
N608 C610 1.356 . S
N608 H620 0.984 . S
N608 H621 0.985 . S
N609 C611 1.356 . S
N609 H614 0.984 . S
N609 H615 0.985 . S
C610 C604 1.379 . S
C610 C607 1.363 . S
C610 N608 1.356 . S
C611 C605 1.363 . S
C611 C606 1.379 . S
C611 N609 1.356 . S
N612 C604 1.356 . S
N612 H618 0.984 . S
N612 H619 0.984 . S
N613 C606 1.356 . S
N613 H616 0.984 . S
N613 H617 0.985 . S
H614 N609 0.984 . S
H615 N609 0.985 . S
H616 N613 0.984 . S
H617 N613 0.985 . S
H618 N612 0.984 . S
H619 N612 0.984 . S
H620 N608 0.984 . S
H621 N608 0.985 . S
C622 C623 1.363 . S
C622 C628 1.379 . S
C622 N630 1.356 . S
C623 C622 1.363 . S
C623 C629 1.363 . S
C624 C625 1.363 . S
C624 C629 1.379 . S
C624 N631 1.356 . S
C625 C624 1.363 . S
C625 C628 1.363 . S
N626 C628 1.356 . S
N626 H638 0.984 . S
N626 H639 0.985 . S
N627 C629 1.356 . S
N627 H632 0.984 . S
N627 H633 0.985 . S
C628 C622 1.379 . S
C628 C625 1.363 . S
C628 N626 1.356 . S
C629 C623 1.363 . S
C629 C624 1.379 . S
C629 N627 1.356 . S
N630 C622 1.356 . S
N630 H636 0.984 . S
N630 H637 0.984 . S
N631 C624 1.356 . S
N631 H634 0.984 . S
N631 H635 0.985 . S
H632 N627 0.984 . S
H633 N627 0.985 . S
H634 N631 0.984 . S
H635 N631 0.985 . S
H636 N630 0.984 . S
H637 N630 0.984 . S
H638 N626 0.984 . S
H639 N626 0.985 . S
C640 C641 1.363 . S
C640 C646 1.379 . S
C640 N648 1.356 . S
C641 C640 1.363 . S
C641 C647 1.363 . S
C642 C643 1.363 . S
C642 C647 1.379 . S
C642 N649 1.356 . S
C643 C642 1.363 . S
C643 C646 1.363 . S
N644 C646 1.356 . S
N644 H656 0.984 . S
N644 H657 0.985 . S
N645 C647 1.356 . S
N645 H650 0.984 . S
N645 H651 0.985 . S
C646 C640 1.379 . S
C646 C643 1.363 . S
C646 N644 1.356 . S
C647 C641 1.363 . S
C647 C642 1.379 . S
C647 N645 1.356 . S
N648 C640 1.356 . S
N648 H654 0.984 . S
N648 H655 0.984 . S
N649 C642 1.356 . S
N649 H652 0.984 . S
N649 H653 0.985 . S
H650 N645 0.984 . S
H651 N645 0.985 . S
H652 N649 0.984 . S
H653 N649 0.985 . S
H654 N648 0.984 . S
H655 N648 0.984 . S
H656 N644 0.984 . S
H657 N644 0.985 . S
C658 C659 1.363 . S
C658 C664 1.379 . S
C658 N666 1.356 . S
C659 C658 1.363 . S
C659 C665 1.363 . S
C660 C661 1.363 . S
C660 C665 1.379 . S
C660 N667 1.356 . S
C661 C660 1.363 . S
C661 C664 1.363 . S
N662 C664 1.356 . S
N662 H674 0.984 . S
N662 H675 0.985 . S
N663 C665 1.356 . S
N663 H668 0.984 . S
N663 H669 0.985 . S
C664 C658 1.379 . S
C664 C661 1.363 . S
C664 N662 1.356 . S
C665 C659 1.363 . S
C665 C660 1.379 . S
C665 N663 1.356 . S
N666 C658 1.356 . S
N666 H672 0.984 . S
N666 H673 0.984 . S
N667 C660 1.356 . S
N667 H670 0.984 . S
N667 H671 0.985 . S
H668 N663 0.984 . S
H669 N663 0.985 . S
H670 N667 0.984 . S
H671 N667 0.985 . S
H672 N666 0.984 . S
H673 N666 0.984 . S
H674 N662 0.984 . S
H675 N662 0.985 . S
C676 C677 1.363 . S
C676 C682 1.379 . S
C676 N684 1.356 . S
C677 C676 1.363 . S
C677 C683 1.363 . S
C678 C679 1.363 . S
C678 C683 1.379 . S
C678 N685 1.356 . S
C679 C678 1.363 . S
C679 C682 1.363 . S
N680 C682 1.356 . S
N680 H692 0.984 . S
N680 H693 0.985 . S
N681 C683 1.356 . S
N681 H686 0.984 . S
N681 H687 0.985 . S
C682 C676 1.379 . S
C682 C679 1.363 . S
C682 N680 1.356 . S
C683 C677 1.363 . S
C683 C678 1.379 . S
C683 N681 1.356 . S
N684 C676 1.356 . S
N684 H690 0.984 . S
N684 H691 0.984 . S
N685 C678 1.356 . S
N685 H688 0.984 . S
N685 H689 0.985 . S
H686 N681 0.984 . S
H687 N681 0.985 . S
H688 N685 0.984 . S
H689 N685 0.985 . S
H690 N684 0.984 . S
H691 N684 0.984 . S
H692 N680 0.984 . S
H693 N680 0.985 . S
C694 C695 1.363 . S
C694 C700 1.379 . S
C694 N702 1.356 . S
C695 C694 1.363 . S
C695 C701 1.363 . S
C696 C697 1.363 . S
C696 C701 1.379 . S
C696 N703 1.356 . S
C697 C696 1.363 . S
C697 C700 1.363 . S
N698 C700 1.356 . S
N698 H710 0.984 . S
N698 H711 0.985 . S
N699 C701 1.356 . S
N699 H704 0.984 . S
N699 H705 0.985 . S
C700 C694 1.379 . S
C700 C697 1.363 . S
C700 N698 1.356 . S
C701 C695 1.363 . S
C701 C696 1.379 . S
C701 N699 1.356 . S
N702 C694 1.356 . S
N702 H708 0.984 . S
N702 H709 0.984 . S
N703 C696 1.356 . S
N703 H706 0.984 . S
N703 H707 0.985 . S
H704 N699 0.984 . S
H705 N699 0.985 . S
H706 N703 0.984 . S
H707 N703 0.985 . S
H708 N702 0.984 . S
H709 N702 0.984 . S
H710 N698 0.984 . S
H711 N698 0.985 . S
C712 C713 1.363 . S
C712 C718 1.379 . S
C712 N720 1.356 . S
C713 C712 1.363 . S
C713 C719 1.363 . S
C714 C715 1.363 . S
C714 C719 1.379 . S
C714 N721 1.356 . S
C715 C714 1.363 . S
C715 C718 1.363 . S
N716 C718 1.356 . S
N716 H728 0.984 . S
N716 H729 0.985 . S
N717 C719 1.356 . S
N717 H722 0.984 . S
N717 H723 0.985 . S
C718 C712 1.379 . S
C718 C715 1.363 . S
C718 N716 1.356 . S
C719 C713 1.363 . S
C719 C714 1.379 . S
C719 N717 1.356 . S
N720 C712 1.356 . S
N720 H726 0.984 . S
N720 H727 0.984 . S
N721 C714 1.356 . S
N721 H724 0.984 . S
N721 H725 0.985 . S
H722 N717 0.984 . S
H723 N717 0.985 . S
H724 N721 0.984 . S
H725 N721 0.985 . S
H726 N720 0.984 . S
H727 N720 0.984 . S
H728 N716 0.984 . S
H729 N716 0.985 . S
C730 C731 1.363 . S
C730 C736 1.379 . S
C730 N738 1.356 . S
C731 C730 1.363 . S
C731 C737 1.363 . S
C732 C733 1.363 . S
C732 C737 1.379 . S
C732 N739 1.356 . S
C733 C732 1.363 . S
C733 C736 1.363 . S
N734 C736 1.356 . S
N734 H746 0.984 . S
N734 H747 0.985 . S
N735 C737 1.356 . S
N735 H740 0.984 . S
N735 H741 0.985 . S
C736 C730 1.379 . S
C736 C733 1.363 . S
C736 N734 1.356 . S
C737 C731 1.363 . S
C737 C732 1.379 . S
C737 N735 1.356 . S
N738 C730 1.356 . S
N738 H744 0.984 . S
N738 H745 0.984 . S
N739 C732 1.356 . S
N739 H742 0.984 . S
N739 H743 0.985 . S
H740 N735 0.984 . S
H741 N735 0.985 . S
H742 N739 0.984 . S
H743 N739 0.985 . S
H744 N738 0.984 . S
H745 N738 0.984 . S
H746 N734 0.984 . S
H747 N734 0.985 . S
C748 C749 1.363 . S
C748 C754 1.379 . S
C748 N756 1.356 . S
C749 C748 1.363 . S
C749 C755 1.363 . S
C750 C751 1.363 . S
C750 C755 1.379 . S
C750 N757 1.356 . S
C751 C750 1.363 . S
C751 C754 1.363 . S
N752 C754 1.356 . S
N752 H764 0.984 . S
N752 H765 0.985 . S
N753 C755 1.356 . S
N753 H758 0.984 . S
N753 H759 0.985 . S
C754 C748 1.379 . S
C754 C751 1.363 . S
C754 N752 1.356 . S
C755 C749 1.363 . S
C755 C750 1.379 . S
C755 N753 1.356 . S
N756 C748 1.356 . S
N756 H762 0.984 . S
N756 H763 0.984 . S
N757 C750 1.356 . S
N757 H760 0.984 . S
N757 H761 0.985 . S
H758 N753 0.984 . S
H759 N753 0.985 . S
H760 N757 0.984 . S
H761 N757 0.985 . S
H762 N756 0.984 . S
H763 N756 0.984 . S
H764 N752 0.984 . S
H765 N752 0.985 . S
C766 C767 1.363 . S
C766 C772 1.379 . S
C766 N774 1.356 . S
C767 C766 1.363 . S
C767 C773 1.363 . S
C768 C769 1.363 . S
C768 C773 1.379 . S
C768 N775 1.356 . S
C769 C768 1.363 . S
C769 C772 1.363 . S
N770 C772 1.356 . S
N770 H782 0.984 . S
N770 H783 0.985 . S
N771 C773 1.356 . S
N771 H776 0.984 . S
N771 H777 0.985 . S
C772 C766 1.379 . S
C772 C769 1.363 . S
C772 N770 1.356 . S
C773 C767 1.363 . S
C773 C768 1.379 . S
C773 N771 1.356 . S
N774 C766 1.356 . S
N774 H780 0.984 . S
N774 H781 0.984 . S
N775 C768 1.356 . S
N775 H778 0.984 . S
N775 H779 0.985 . S
H776 N771 0.984 . S
H777 N771 0.985 . S
H778 N775 0.984 . S
H779 N775 0.985 . S
H780 N774 0.984 . S
H781 N774 0.984 . S
H782 N770 0.984 . S
H783 N770 0.985 . S
C784 C785 1.363 . S
C784 C790 1.379 . S
C784 N792 1.356 . S
C785 C784 1.363 . S
C785 C791 1.363 . S
C786 C787 1.363 . S
C786 C791 1.379 . S
C786 N793 1.356 . S
C787 C786 1.363 . S
C787 C790 1.363 . S
N788 C790 1.356 . S
N788 H800 0.984 . S
N788 H801 0.985 . S
N789 C791 1.356 . S
N789 H794 0.984 . S
N789 H795 0.985 . S
C790 C784 1.379 . S
C790 C787 1.363 . S
C790 N788 1.356 . S
C791 C785 1.363 . S
C791 C786 1.379 . S
C791 N789 1.356 . S
N792 C784 1.356 . S
N792 H798 0.984 . S
N792 H799 0.984 . S
N793 C786 1.356 . S
N793 H796 0.984 . S
N793 H797 0.985 . S
H794 N789 0.984 . S
H795 N789 0.985 . S
H796 N793 0.984 . S
H797 N793 0.985 . S
H798 N792 0.984 . S
H799 N792 0.984 . S
H800 N788 0.984 . S
H801 N788 0.985 . S
C802 C803 1.363 . S
C802 C808 1.379 . S
C802 N810 1.356 . S
C803 C802 1.363 . S
C803 C809 1.363 . S
C804 C805 1.363 . S
C804 C809 1.379 . S
C804 N811 1.356 . S
C805 C804 1.363 . S
C805 C808 1.363 . S
N806 C808 1.356 . S
N806 H818 0.984 . S
N806 H819 0.985 . S
N807 C809 1.356 . S
N807 H812 0.984 . S
N807 H813 0.985 . S
C808 C802 1.379 . S
C808 C805 1.363 . S
C808 N806 1.356 . S
C809 C803 1.363 . S
C809 C804 1.379 . S
C809 N807 1.356 . S
N810 C802 1.356 . S
N810 H816 0.984 . S
N810 H817 0.984 . S
N811 C804 1.356 . S
N811 H814 0.984 . S
N811 H815 0.985 . S
H812 N807 0.984 . S
H813 N807 0.985 . S
H814 N811 0.984 . S
H815 N811 0.985 . S
H816 N810 0.984 . S
H817 N810 0.984 . S
H818 N806 0.984 . S
H819 N806 0.985 . S
C820 C821 1.363 . S
C820 C826 1.379 . S
C820 N828 1.356 . S
C821 C820 1.363 . S
C821 C827 1.363 . S
C822 C823 1.363 . S
C822 C827 1.379 . S
C822 N829 1.356 . S
C823 C822 1.363 . S
C823 C826 1.363 . S
N824 C826 1.356 . S
N824 H836 0.984 . S
N824 H837 0.985 . S
N825 C827 1.356 . S
N825 H830 0.984 . S
N825 H831 0.985 . S
C826 C820 1.379 . S
C826 C823 1.363 . S
C826 N824 1.356 . S
C827 C821 1.363 . S
C827 C822 1.379 . S
C827 N825 1.356 . S
N828 C820 1.356 . S
N828 H834 0.984 . S
N828 H835 0.984 . S
N829 C822 1.356 . S
N829 H832 0.984 . S
N829 H833 0.985 . S
H830 N825 0.984 . S
H831 N825 0.985 . S
H832 N829 0.984 . S
H833 N829 0.985 . S
H834 N828 0.984 . S
H835 N828 0.984 . S
H836 N824 0.984 . S
H837 N824 0.985 . S
C838 C839 1.363 . S
C838 C844 1.379 . S
C838 N846 1.356 . S
C839 C838 1.363 . S
C839 C845 1.363 . S
C840 C841 1.363 . S
C840 C845 1.379 . S
C840 N847 1.356 . S
C841 C840 1.363 . S
C841 C844 1.363 . S
N842 C844 1.356 . S
N842 H854 0.984 . S
N842 H855 0.985 . S
N843 C845 1.356 . S
N843 H848 0.984 . S
N843 H849 0.985 . S
C844 C838 1.379 . S
C844 C841 1.363 . S
C844 N842 1.356 . S
C845 C839 1.363 . S
C845 C840 1.379 . S
C845 N843 1.356 . S
N846 C838 1.356 . S
N846 H852 0.984 . S
N846 H853 0.984 . S
N847 C840 1.356 . S
N847 H850 0.984 . S
N847 H851 0.985 . S
H848 N843 0.984 . S
H849 N843 0.985 . S
H850 N847 0.984 . S
H851 N847 0.985 . S
H852 N846 0.984 . S
H853 N846 0.984 . S
H854 N842 0.984 . S
H855 N842 0.985 . S
C856 C857 1.363 1_556 S
C856 C862 1.379 . S
C856 N864 1.356 . S
C857 C856 1.363 1_554 S
C857 C863 1.363 . S
C858 C859 1.363 . S
C858 C863 1.379 . S
C858 N865 1.356 . S
C859 C858 1.363 . S
C859 C862 1.363 1_554 S
N860 C862 1.356 . S
N860 H872 0.984 . S
N860 H873 0.985 . S
N861 C863 1.356 . S
N861 H866 0.984 . S
N861 H867 0.985 . S
C862 C856 1.379 . S
C862 C859 1.363 1_556 S
C862 N860 1.356 . S
C863 C857 1.363 . S
C863 C858 1.379 . S
C863 N861 1.356 . S
N864 C856 1.356 . S
N864 H870 0.984 . S
N864 H871 0.984 . S
N865 C858 1.356 . S
N865 H868 0.984 . S
N865 H869 0.985 . S
H866 N861 0.984 . S
H867 N861 0.985 . S
H868 N865 0.984 . S
H869 N865 0.985 . S
H870 N864 0.984 . S
H871 N864 0.984 . S
H872 N860 0.984 . S
H873 N860 0.985 . S
C874 C875 1.363 . S
C874 C880 1.379 . S
C874 N882 1.356 . S
C875 C874 1.363 . S
C875 C881 1.363 . S
C876 C877 1.363 . S
C876 C881 1.379 . S
C876 N883 1.356 . S
C877 C876 1.363 . S
C877 C880 1.363 . S
N878 C880 1.356 . S
N878 H890 0.984 . S
N878 H891 0.985 . S
N879 C881 1.356 . S
N879 H884 0.984 . S
N879 H885 0.985 . S
C880 C874 1.379 . S
C880 C877 1.363 . S
C880 N878 1.356 . S
C881 C875 1.363 . S
C881 C876 1.379 . S
C881 N879 1.356 . S
N882 C874 1.356 . S
N882 H888 0.984 . S
N882 H889 0.984 . S
N883 C876 1.356 . S
N883 H886 0.984 . S
N883 H887 0.985 . S
H884 N879 0.984 . S
H885 N879 0.985 . S
H886 N883 0.984 . S
H887 N883 0.985 . S
H888 N882 0.984 . S
H889 N882 0.984 . S
H890 N878 0.984 . S
H891 N878 0.985 . S
C892 C893 1.363 1_556 S
C892 C898 1.379 . S
C892 N900 1.356 . S
C893 C892 1.363 1_554 S
C893 C899 1.363 . S
C894 C895 1.363 . S
C894 C899 1.379 . S
C894 N901 1.356 . S
C895 C894 1.363 . S
C895 C898 1.363 1_554 S
N896 C898 1.356 . S
N896 H908 0.984 . S
N896 H909 0.985 . S
N897 C899 1.356 . S
N897 H902 0.984 . S
N897 H903 0.985 . S
C898 C892 1.379 . S
C898 C895 1.363 1_556 S
C898 N896 1.356 . S
C899 C893 1.363 . S
C899 C894 1.379 . S
C899 N897 1.356 . S
N900 C892 1.356 . S
N900 H906 0.984 . S
N900 H907 0.984 . S
N901 C894 1.356 . S
N901 H904 0.984 . S
N901 H905 0.985 . S
H902 N897 0.984 . S
H903 N897 0.985 . S
H904 N901 0.984 . S
H905 N901 0.985 . S
H906 N900 0.984 . S
H907 N900 0.984 . S
H908 N896 0.984 . S
H909 N896 0.985 . S
C910 C911 1.363 . S
C910 C916 1.379 . S
C910 N918 1.356 . S
C911 C910 1.363 . S
C911 C917 1.363 . S
C912 C913 1.363 . S
C912 C917 1.379 . S
C912 N919 1.356 . S
C913 C912 1.363 . S
C913 C916 1.363 . S
N914 C916 1.356 . S
N914 H926 0.984 . S
N914 H927 0.985 . S
N915 C917 1.356 . S
N915 H920 0.984 . S
N915 H921 0.985 . S
C916 C910 1.379 . S
C916 C913 1.363 . S
C916 N914 1.356 . S
C917 C911 1.363 . S
C917 C912 1.379 . S
C917 N915 1.356 . S
N918 C910 1.356 . S
N918 H924 0.984 . S
N918 H925 0.984 . S
N919 C912 1.356 . S
N919 H922 0.984 . S
N919 H923 0.985 . S
H920 N915 0.984 . S
H921 N915 0.985 . S
H922 N919 0.984 . S
H923 N919 0.985 . S
H924 N918 0.984 . S
H925 N918 0.984 . S
H926 N914 0.984 . S
H927 N914 0.985 . S
C928 C929 1.363 . S
C928 C934 1.379 . S
C928 N936 1.356 . S
C929 C928 1.363 . S
C929 C935 1.363 . S
C930 C931 1.363 . S
C930 C935 1.379 . S
C930 N937 1.356 . S
C931 C930 1.363 . S
C931 C934 1.363 . S
N932 C934 1.356 . S
N932 H944 0.984 . S
N932 H945 0.985 . S
N933 C935 1.356 . S
N933 H938 0.984 . S
N933 H939 0.985 . S
C934 C928 1.379 . S
C934 C931 1.363 . S
C934 N932 1.356 . S
C935 C929 1.363 . S
C935 C930 1.379 . S
C935 N933 1.356 . S
N936 C928 1.356 . S
N936 H942 0.984 . S
N936 H943 0.984 . S
N937 C930 1.356 . S
N937 H940 0.984 . S
N937 H941 0.985 . S
H938 N933 0.984 . S
H939 N933 0.985 . S
H940 N937 0.984 . S
H941 N937 0.985 . S
H942 N936 0.984 . S
H943 N936 0.984 . S
H944 N932 0.984 . S
H945 N932 0.985 . S
C946 C947 1.363 . S
C946 C952 1.379 . S
C946 N954 1.356 . S
C947 C946 1.363 . S
C947 C953 1.363 1_554 S
C948 C949 1.363 1_556 S
C948 C953 1.379 . S
C948 N955 1.356 . S
C949 C948 1.363 1_554 S
C949 C952 1.363 . S
N950 C952 1.356 . S
N950 H962 0.984 . S
N950 H963 0.985 . S
N951 C953 1.356 . S
N951 H956 0.984 . S
N951 H957 0.985 . S
C952 C946 1.379 . S
C952 C949 1.363 . S
C952 N950 1.356 . S
C953 C947 1.363 1_556 S
C953 C948 1.379 . S
C953 N951 1.356 . S
N954 C946 1.356 . S
N954 H960 0.984 . S
N954 H961 0.984 . S
N955 C948 1.356 . S
N955 H958 0.984 . S
N955 H959 0.985 . S
H956 N951 0.984 . S
H957 N951 0.985 . S
H958 N955 0.984 . S
H959 N955 0.985 . S
H960 N954 0.984 . S
H961 N954 0.984 . S
H962 N950 0.984 . S
H963 N950 0.985 . S
C964 C965 1.363 . S
C964 C970 1.379 . S
C964 N972 1.356 . S
C965 C964 1.363 . S
C965 C971 1.363 . S
C966 C967 1.363 . S
C966 C971 1.379 . S
C966 N973 1.356 . S
C967 C966 1.363 . S
C967 C970 1.363 . S
N968 C970 1.356 . S
N968 H980 0.984 . S
N968 H981 0.985 . S
N969 C971 1.356 . S
N969 H974 0.984 . S
N969 H975 0.985 . S
C970 C964 1.379 . S
C970 C967 1.363 . S
C970 N968 1.356 . S
C971 C965 1.363 . S
C971 C966 1.379 . S
C971 N969 1.356 . S
N972 C964 1.356 . S
N972 H978 0.984 . S
N972 H979 0.984 . S
N973 C966 1.356 . S
N973 H976 0.984 . S
N973 H977 0.985 . S
H974 N969 0.984 . S
H975 N969 0.985 . S
H976 N973 0.984 . S
H977 N973 0.985 . S
H978 N972 0.984 . S
H979 N972 0.984 . S
H980 N968 0.984 . S
H981 N968 0.985 . S
C982 C983 1.363 1_556 S
C982 C988 1.379 . S
C982 N990 1.356 . S
C983 C982 1.363 1_554 S
C983 C989 1.363 . S
C984 C985 1.363 . S
C984 C989 1.379 . S
C984 N991 1.356 . S
C985 C984 1.363 . S
C985 C988 1.363 1_554 S
N986 C988 1.356 . S
N986 H998 0.984 . S
N986 H999 0.985 . S
N987 C989 1.356 . S
N987 H992 0.984 . S
N987 H993 0.985 . S
C988 C982 1.379 . S
C988 C985 1.363 1_556 S
C988 N986 1.356 . S
C989 C983 1.363 . S
C989 C984 1.379 . S
C989 N987 1.356 . S
N990 C982 1.356 . S
N990 H996 0.984 . S
N990 H997 0.984 . S
N991 C984 1.356 . S
N991 H994 0.984 . S
N991 H995 0.985 . S
H992 N987 0.984 . S
H993 N987 0.985 . S
H994 N991 0.984 . S
H995 N991 0.985 . S
H996 N990 0.984 . S
H997 N990 0.984 . S
H998 N986 0.984 . S
H999 N986 0.985 . S
C569 C5 1.552 . S
C571 C269 1.476 . S
C587 C31 1.552 . S
C589 C89 1.479 . S
C607 C168 1.477 . S
C605 C53 1.551 . S
C623 C71 1.552 . S
C625 C228 1.514 . S
C643 C389 1.478 . S
C641 C75 1.551 . S
C661 C468 1.513 . S
C659 C9 1.553 . S
C679 C539 1.513 . S
C677 C27 1.551 . S
C697 C329 1.477 . S
C695 C49 1.553 . S
C713 C51 1.552 . S
C715 C179 1.558 . S
C731 C72 1.552 . S
C733 C209 1.429 . S
C749 C6 1.552 . S
C751 C288 1.558 . S
C769 C108 1.557 . S
C767 C29 1.551 . S
C785 C28 1.552 . S
C787 C528 1.433 . S
C805 C348 1.557 . S
C803 C50 1.551 . S
C823 C408 1.557 . S
C821 C73 1.553 . S
C839 C7 1.552 . S
C841 C449 1.429 . S
C859 C119 1.516 1_554 S
C857 C4 1.535 . S
C877 C149 1.516 . S
C875 C30 1.535 . S
C893 C52 1.535 . S
C895 C239 1.472 . S
C911 C70 1.535 . S
C913 C299 1.516 . S
C931 C359 1.516 . S
C929 C74 1.535 . S
C947 C8 1.535 . S
C949 C419 1.516 . S
C965 C26 1.534 . S
C967 C479 1.472 . S
C983 C48 1.535 . S
C985 C509 1.472 1_554 S
