# Generated by pormake.
# Topology sqc, (4,8)-cn, num edge types: 1
# Building blocks:
#     Node 0, Type 0, BuildingBlock: GIZVER_clean_linker_0, # of connection points: 4
#     Node 1, Type 0, BuildingBlock: GIZVER_clean_linker_0, # of connection points: 4
#     Node 2, Type 0, BuildingBlock: GIZVER_clean_linker_0, # of connection points: 4
#     Node 3, Type 0, BuildingBlock: GIZVER_clean_linker_0, # of connection points: 4
#     Node 4, Type 0, BuildingBlock: GIZVER_clean_linker_0, # of connection points: 4
#     Node 5, Type 0, BuildingBlock: GIZVER_clean_linker_0, # of connection points: 4
#     Node 6, Type 0, BuildingBlock: GIZVER_clean_linker_0, # of connection points: 4
#     Node 7, Type 0, BuildingBlock: GIZVER_clean_linker_0, # of connection points: 4
#     Node 8, Type 1, BuildingBlock: VETTIZ_charged_sbu_0, # of connection points: 8
#     Node 9, Type 1, BuildingBlock: VETTIZ_charged_sbu_0, # of connection points: 8
#     Node 10, Type 1, BuildingBlock: VETTIZ_charged_sbu_0, # of connection points: 8
#     Node 11, Type 1, BuildingBlock: VETTIZ_charged_sbu_0, # of connection points: 8
#     Edge 12, Type (0, 1), BuildingBlock: UVAHIK_clean_linker_0, # of connection points: 2
#     Edge 13, Type (0, 1), BuildingBlock: UVAHIK_clean_linker_0, # of connection points: 2
#     Edge 14, Type (0, 1), BuildingBlock: UVAHIK_clean_linker_0, # of connection points: 2
#     Edge 15, Type (0, 1), BuildingBlock: UVAHIK_clean_linker_0, # of connection points: 2
#     Edge 16, Type (0, 1), BuildingBlock: UVAHIK_clean_linker_0, # of connection points: 2
#     Edge 17, Type (0, 1), BuildingBlock: UVAHIK_clean_linker_0, # of connection points: 2
#     Edge 18, Type (0, 1), BuildingBlock: UVAHIK_clean_linker_0, # of connection points: 2
#     Edge 19, Type (0, 1), BuildingBlock: UVAHIK_clean_linker_0, # of connection points: 2
#     Edge 20, Type (0, 1), BuildingBlock: UVAHIK_clean_linker_0, # of connection points: 2
#     Edge 21, Type (0, 1), BuildingBlock: UVAHIK_clean_linker_0, # of connection points: 2
#     Edge 22, Type (0, 1), BuildingBlock: UVAHIK_clean_linker_0, # of connection points: 2
#     Edge 23, Type (0, 1), BuildingBlock: UVAHIK_clean_linker_0, # of connection points: 2
#     Edge 24, Type (0, 1), BuildingBlock: UVAHIK_clean_linker_0, # of connection points: 2
#     Edge 25, Type (0, 1), BuildingBlock: UVAHIK_clean_linker_0, # of connection points: 2
#     Edge 26, Type (0, 1), BuildingBlock: UVAHIK_clean_linker_0, # of connection points: 2
#     Edge 27, Type (0, 1), BuildingBlock: UVAHIK_clean_linker_0, # of connection points: 2
#     Edge 28, Type (0, 1), BuildingBlock: UVAHIK_clean_linker_0, # of connection points: 2
#     Edge 29, Type (0, 1), BuildingBlock: UVAHIK_clean_linker_0, # of connection points: 2
#     Edge 30, Type (0, 1), BuildingBlock: UVAHIK_clean_linker_0, # of connection points: 2
#     Edge 31, Type (0, 1), BuildingBlock: UVAHIK_clean_linker_0, # of connection points: 2
#     Edge 32, Type (0, 1), BuildingBlock: UVAHIK_clean_linker_0, # of connection points: 2
#     Edge 33, Type (0, 1), BuildingBlock: UVAHIK_clean_linker_0, # of connection points: 2
#     Edge 34, Type (0, 1), BuildingBlock: UVAHIK_clean_linker_0, # of connection points: 2
#     Edge 35, Type (0, 1), BuildingBlock: UVAHIK_clean_linker_0, # of connection points: 2
#     Edge 36, Type (0, 1), BuildingBlock: UVAHIK_clean_linker_0, # of connection points: 2
#     Edge 37, Type (0, 1), BuildingBlock: UVAHIK_clean_linker_0, # of connection points: 2
#     Edge 38, Type (0, 1), BuildingBlock: UVAHIK_clean_linker_0, # of connection points: 2
#     Edge 39, Type (0, 1), BuildingBlock: UVAHIK_clean_linker_0, # of connection points: 2
#     Edge 40, Type (0, 1), BuildingBlock: UVAHIK_clean_linker_0, # of connection points: 2
#     Edge 41, Type (0, 1), BuildingBlock: UVAHIK_clean_linker_0, # of connection points: 2
#     Edge 42, Type (0, 1), BuildingBlock: UVAHIK_clean_linker_0, # of connection points: 2
#     Edge 43, Type (0, 1), BuildingBlock: UVAHIK_clean_linker_0, # of connection points: 2
# Relax obj value: 0.167
# Max RMSD: 0.279
# Mean RMSD: 0.219
data_MOF--net-sqc--node1-VETTIZ_charged_sbu_0--node2-GIZVER_clean_linker_0--edge1-UVAHIK_clean_linker_0
_symmetry_space_group_name_H-M    P1
_symmetry_Int_Tables_number       1
_symmetry_cell_setting            triclinic
loop_
_symmetry_equiv_pos_as_xyz
'x, y, z'
_cell_length_a     31.732579
_cell_length_b     31.723971
_cell_length_c     85.873315
_cell_angle_alpha  90.129766
_cell_angle_beta   89.901563
_cell_angle_gamma 90.123621
loop_
_atom_site_label
_atom_site_type_symbol
_atom_site_fract_x
_atom_site_fract_y
_atom_site_fract_z
_atom_type_partial_charge
H0 H 0.95264 1.00208 0.4855 0.0
H1 H 0.95241 0.06968 0.52905 0.0
H2 H 0.85127 0.98466 0.51806 0.0
H3 H 0.98984 0.07212 0.48905 0.0
H4 H 0.99452 0.09496 0.50787 0.0
H5 H 0.03535 0.01425 0.48071 0.0
H6 H 0.15191 1.00218 0.50545 0.0
H7 H 0.04995 0.0723 0.52587 0.0
C8 C 0.93873 0.00798 0.49683 0.0
C9 C 0.90071 0.98789 0.50096 0.0
C10 C 0.95782 0.03729 0.50702 0.0
C11 C 0.93855 0.0462 0.52142 0.0
C12 C 0.9001 0.02718 0.52554 0.0
C13 C 0.88205 0.99763 0.51535 0.0
C14 C 0.99433 0.06427 0.50156 0.0
C15 C 0.03669 0.0432 0.50355 0.0
C16 C 0.05364 0.01935 0.4912 0.0
C17 C 0.09509 0.00432 0.49195 0.0
C18 C 0.1194 0.01269 0.50517 0.0
C19 C 0.10393 0.03788 0.51733 0.0
C20 C 0.06193 0.05199 0.51672 0.0
H21 H 0.31528 0.82108 0.74711 0.0
H22 H 0.27341 0.80773 0.79457 0.0
H23 H 0.21922 0.9028 0.7655 0.0
H24 H 0.35648 0.78185 0.76576 0.0
H25 H 0.34067 0.77784 0.78557 0.0
H26 H 0.35118 0.72097 0.74992 0.0
H27 H 0.29339 0.60948 0.7686 0.0
H28 H 0.27743 0.72776 0.79219 0.0
C29 C 0.29348 0.82953 0.75633 0.0
C30 C 0.26708 0.8648 0.75452 0.0
C31 C 0.29499 0.80772 0.77063 0.0
C32 C 0.26997 0.82188 0.78317 0.0
C33 C 0.2425 0.85607 0.78127 0.0
C34 C 0.23986 0.87582 0.76676 0.0
C35 C 0.32892 0.77515 0.7734 0.0
C36 C 0.31407 0.73024 0.77088 0.0
C37 C 0.33063 0.70623 0.75841 0.0
C38 C 0.3237 0.66251 0.75768 0.0
C39 C 0.29862 0.64329 0.76906 0.0
C40 C 0.28169 0.66649 0.78142 0.0
C41 C 0.28897 0.71011 0.78225 0.0
H42 H 0.54371 0.02613 0.03726 0.0
H43 H 0.56053 0.10976 0.99815 0.0
H44 H 0.65822 0.02294 0.0108 0.0
H45 H 0.50501 0.1006 0.03335 0.0
H46 H 0.49947 0.11762 0.01373 0.0
H47 H 0.47177 0.03483 0.04258 0.0
H48 H 0.36854 0.98764 0.01547 0.0
H49 H 0.45189 0.08101 0.99608 0.0
C50 C 0.56186 0.03672 0.02733 0.0
C51 C 0.60197 0.0196 0.02472 0.0
C52 C 0.5459 0.06831 0.01744 0.0
C53 C 0.57142 0.08379 0.00526 0.0
C54 C 0.6123 0.06804 0.00305 0.0
C55 C 0.62653 0.03497 0.01244 0.0
C56 C 0.50426 0.08922 0.02109 0.0
C57 C 0.46742 0.05939 0.01918 0.0
C58 C 0.45477 0.03361 0.03166 0.0
C59 C 0.41939 0.00733 0.03031 0.0
C60 C 0.39646 0.00723 0.01637 0.0
C61 C 0.40697 0.03449 0.00409 0.0
C62 C 0.44348 0.05952 0.00538 0.0
H63 H 0.16448 0.2204 0.25107 0.0
H64 H 0.24826 0.21804 0.29051 0.0
H65 H 0.24037 0.11124 0.25965 0.0
H66 H 0.15612 0.2713 0.27181 0.0
H67 H 0.18591 0.26662 0.28928 0.0
H68 H 0.18958 0.30576 0.24799 0.0
H69 H 0.27406 0.40667 0.25991 0.0
H70 H 0.24528 0.31148 0.29373 0.0
C71 C 0.18883 0.20485 0.25776 0.0
C72 C 0.20167 0.16409 0.25356 0.0
C73 C 0.20607 0.22488 0.27095 0.0
C74 C 0.23602 0.20334 0.28004 0.0
C75 C 0.24896 0.16235 0.27596 0.0
C76 C 0.23212 0.14349 0.26253 0.0
C77 C 0.18861 0.26672 0.27636 0.0
C78 C 0.2156 0.30355 0.27124 0.0
C79 C 0.21107 0.32049 0.25616 0.0
C80 C 0.23283 0.3574 0.25188 0.0
C81 C 0.25938 0.3768 0.26281 0.0
C82 C 0.26414 0.3607 0.27789 0.0
C83 C 0.24246 0.32372 0.282 0.0
H84 H 0.66929 0.28794 0.26926 0.0
H85 H 0.72403 0.30173 0.22362 0.0
H86 H 0.73142 0.40352 0.25658 0.0
H87 H 0.64887 0.24068 0.24716 0.0
H88 H 0.67531 0.24431 0.22884 0.0
H89 H 0.68083 0.20412 0.26908 0.0
H90 H 0.78548 0.12213 0.25923 0.0
H91 H 0.74377 0.2103 0.22474 0.0
C92 C 0.68718 0.30639 0.26093 0.0
C93 C 0.70026 0.34741 0.26485 0.0
C94 C 0.69621 0.28947 0.24613 0.0
C95 C 0.71793 0.31418 0.23517 0.0
C96 C 0.73101 0.35521 0.23894 0.0
C97 C 0.72275 0.37124 0.25387 0.0
C98 C 0.68014 0.24634 0.24165 0.0
C99 C 0.71047 0.21247 0.24672 0.0
C100 C 0.70625 0.19399 0.26152 0.0
C101 C 0.7326 0.16065 0.26606 0.0
C102 C 0.76481 0.14768 0.25588 0.0
C103 C 0.7685 0.16462 0.24088 0.0
C104 C 0.7415 0.19741 0.2364 0.0
H105 H 0.66497 0.71805 0.74693 0.0
H106 H 0.74562 0.72655 0.7871 0.0
H107 H 0.74719 0.61542 0.75839 0.0
H108 H 0.65589 0.7754 0.76455 0.0
H109 H 0.67601 0.7693 0.78377 0.0
H110 H 0.69151 0.82101 0.74586 0.0
H111 H 0.78829 0.90371 0.76324 0.0
H112 H 0.7428 0.80244 0.79172 0.0
C113 C 0.68973 0.70507 0.75415 0.0
C114 C 0.7053 0.66458 0.75092 0.0
C115 C 0.70484 0.7281 0.76701 0.0
C116 C 0.7352 0.7098 0.7768 0.0
C117 C 0.75105 0.66934 0.77366 0.0
C118 C 0.73655 0.6474 0.76051 0.0
C119 C 0.68532 0.76997 0.77127 0.0
C120 C 0.71555 0.80618 0.76869 0.0
C121 C 0.71421 0.82947 0.75475 0.0
C122 C 0.73965 0.86547 0.75285 0.0
C123 C 0.76844 0.87611 0.76462 0.0
C124 C 0.76946 0.854 0.77871 0.0
C125 C 0.74298 0.81895 0.78069 0.0
H126 H 0.47332 0.50165 0.04694 0.0
H127 H 0.45822 0.44937 0.00088 0.0
H128 H 0.36724 0.53698 0.01902 0.0
H129 H 0.51251 0.43921 0.03905 0.0
H130 H 0.50391 0.41553 0.02052 0.0
H131 H 0.55806 0.50584 0.04083 0.0
H132 H 0.66262 0.50321 0.00883 0.0
H133 H 0.55436 0.42569 0.00022 0.0
C134 C 0.45661 0.50041 0.03595 0.0
C135 C 0.41894 0.52307 0.03423 0.0
C136 C 0.47182 0.47476 0.02373 0.0
C137 C 0.44811 0.47111 0.00989 0.0
C138 C 0.4097 0.49277 0.00825 0.0
C139 C 0.39669 0.52002 0.02021 0.0
C140 C 0.50937 0.44632 0.02642 0.0
C141 C 0.55047 0.46528 0.02076 0.0
C142 C 0.57212 0.49499 0.03004 0.0
C143 C 0.6126 0.50917 0.02576 0.0
C144 C 0.63074 0.49402 0.01192 0.0
C145 C 0.61004 0.46403 0.00272 0.0
C146 C 0.56982 0.44984 0.0071 0.0
H147 H 0.0496 0.54257 0.54113 0.0
H148 H 0.0395 0.59078 0.49437 0.0
H149 H 0.14453 0.51296 0.5072 0.0
H150 H 1.00095 0.59862 0.53568 0.0
H151 H 1.00125 0.62388 0.51713 0.0
H152 H 0.96209 0.52896 0.53898 0.0
H153 H 0.85423 0.51483 0.50907 0.0
H154 H 0.9495 0.60623 0.49808 0.0
C155 C 0.06109 0.54404 0.52924 0.0
C156 C 0.09936 0.52475 0.52537 0.0
C157 C 0.0392 0.56783 0.5181 0.0
C158 C 0.05557 0.57141 0.50287 0.0
C159 C 0.09329 0.55096 0.49879 0.0
C160 C 0.11455 0.52741 0.51008 0.0
C161 C 1.00078 0.59253 0.52291 0.0
C162 C 0.96092 0.56924 0.51872 0.0
C163 C 0.94509 0.5373 0.5285 0.0
C164 C 0.90674 0.51711 0.525 0.0
C165 C 0.88478 0.52875 0.5115 0.0
C166 C 0.89982 0.56105 0.50187 0.0
C167 C 0.93812 0.58086 0.50542 0.0
Fe168 Fe 0.99566 0.73191 0.17312 0.0
O169 O 0.00519 0.72898 0.15035 0.0
Fe170 Fe 0.95791 0.75494 0.13633 0.0
Fe171 Fe 0.05471 0.7552 0.13959 0.0
O172 O 1.00111 0.72925 0.15026 0.0
O173 O 0.00721 0.78164 0.12577 0.0
O174 O 0.01121 0.78168 0.12593 0.0
Fe175 Fe 0.01436 0.78227 0.10313 0.0
C176 C 0.05003 0.81058 0.16839 0.0
O177 O 0.04693 0.69219 0.17302 0.0
O178 O 0.09358 0.72263 0.15551 0.0
O179 O 0.96893 0.73664 0.0992 0.0
O180 O 0.95974 0.70348 0.12174 0.0
O181 O 0.91164 0.72179 0.14914 0.0
O182 O 0.94944 0.68828 0.16853 0.0
O183 O 0.06092 0.70379 0.12492 0.0
O184 O 0.06095 0.73735 0.10218 0.0
C185 C 0.91671 0.69249 0.15962 0.0
O186 O 0.96347 0.8233 0.10444 0.0
O187 O 0.91861 0.7864 0.12065 0.0
O188 O 0.03787 0.78035 0.17703 0.0
O189 O 0.05215 0.80747 0.15368 0.0
C190 C 0.08384 0.69617 0.16661 0.0
C191 C 0.07296 0.70702 0.11079 0.0
C192 C 0.09758 0.81617 0.11591 0.0
O193 O 0.10067 0.78742 0.12669 0.0
O194 O 0.06375 0.82359 0.10775 0.0
C195 C 0.95394 0.70611 0.10712 0.0
O196 O 0.95412 0.80727 0.15025 0.0
O197 O 0.94787 0.77637 0.17321 0.0
C198 C 0.92633 0.81526 0.11025 0.0
C199 C 0.94479 0.80876 0.16459 0.0
Fe200 Fe 0.47123 0.76607 0.42133 0.0
O201 O 0.47165 0.76426 0.39835 0.0
Fe202 Fe 0.50051 0.81436 0.38656 0.0
Fe203 Fe 0.4965 0.71696 0.38597 0.0
O204 O 0.47189 0.76827 0.3984 0.0
O205 O 0.52695 0.76713 0.37461 0.0
O206 O 0.52675 0.7629 0.37458 0.0
Fe207 Fe 0.52944 0.76599 0.35178 0.0
C208 C 0.54717 0.70894 0.41547 0.0
O209 O 0.4283 0.7181 0.41814 0.0
O210 O 0.45976 0.67523 0.39959 0.0
O211 O 0.48623 0.81383 0.34898 0.0
O212 O 0.4507 0.81801 0.37127 0.0
O213 O 0.46696 0.85781 0.40051 0.0
O214 O 0.43097 0.81593 0.41817 0.0
O215 O 0.44679 0.71847 0.37063 0.0
O216 O 0.48259 0.72181 0.34839 0.0
C217 C 0.43678 0.85071 0.41053 0.0
O218 O 0.57225 0.81438 0.35563 0.0
O219 O 0.53526 0.85652 0.37282 0.0
O220 O 0.51622 0.71971 0.42404 0.0
O221 O 0.54664 0.71255 0.40077 0.0
C222 C 0.43145 0.6833 0.41025 0.0
C223 C 0.45061 0.70987 0.35621 0.0
C224 C 0.55758 0.67815 0.3612 0.0
O225 O 0.52785 0.67328 0.37158 0.0
O226 O 0.56795 0.71399 0.35484 0.0
C227 C 0.45491 0.82694 0.35691 0.0
O228 O 0.55111 0.81387 0.40143 0.0
O229 O 0.5186 0.81037 0.42433 0.0
C230 C 0.5653 0.85008 0.36271 0.0
C231 C 0.55119 0.81804 0.41613 0.0
Fe232 Fe 0.49881 0.22837 0.67348 0.0
O233 O 0.50084 0.22689 0.65057 0.0
Fe234 Fe 0.45034 0.25376 0.63844 0.0
Fe235 Fe 0.54779 0.25231 0.63815 0.0
O236 O 0.49667 0.22662 0.65053 0.0
O237 O 0.49734 0.27906 0.62605 0.0
O238 O 0.50142 0.27923 0.62607 0.0
Fe239 Fe 0.499 0.279 0.60325 0.0
C240 C 0.55316 0.30597 0.66707 0.0
O241 O 0.54783 0.18639 0.67078 0.0
O242 O 0.59018 0.21908 0.65239 0.0
O243 O 0.45194 0.23436 0.60094 0.0
O244 O 0.44606 0.20231 0.62391 0.0
O245 O 0.40716 0.22176 0.65299 0.0
O246 O 0.44925 0.18703 0.67084 0.0
O247 O 0.54836 0.20068 0.62373 0.0
O248 O 0.54399 0.23253 0.60071 0.0
C249 C 0.41416 0.19257 0.66336 0.0
O250 O 0.45021 0.32135 0.60639 0.0
O251 O 0.408 0.28681 0.62429 0.0
O252 O 0.54436 0.27461 0.67572 0.0
O253 O 0.5499 0.30442 0.65234 0.0
C254 C 0.58278 0.19077 0.66305 0.0
C255 C 0.55635 0.20215 0.60923 0.0
C256 C 0.58567 0.31167 0.61274 0.0
O257 O 0.59115 0.28332 0.62353 0.0
O258 O 0.54989 0.31941 0.60591 0.0
C259 C 0.43828 0.20432 0.60939 0.0
O260 O 0.45177 0.3059 0.65266 0.0
O261 O 0.45367 0.27497 0.6758 0.0
C262 C 0.41465 0.31542 0.61367 0.0
C263 C 0.44772 0.30735 0.66735 0.0
Fe264 Fe 0.04432 0.27047 0.92314 0.0
O265 O 0.04726 0.26918 0.90025 0.0
Fe266 Fe 0.02201 0.31946 0.88759 0.0
Fe267 Fe 0.02193 0.22242 0.88779 0.0
O268 O 0.04731 0.27312 0.90023 0.0
O269 O 0.99603 0.27257 0.87524 0.0
O270 O 0.99619 0.26854 0.87522 0.0
Fe271 Fe 0.99794 0.26967 0.85237 0.0
C272 C 0.08246 0.18721 0.91302 0.0
O273 O 0.99927 0.22366 0.92478 0.0
O274 O 0.96891 0.22211 0.90155 0.0
O275 O 0.95652 0.31988 0.85471 0.0
O276 O 0.99121 0.36185 0.8727 0.0
O277 O 0.9691 0.32096 0.90141 0.0
O278 O 0.99645 0.31429 0.92517 0.0
O279 O 0.99124 0.17912 0.8733 0.0
O280 O 0.9565 0.21917 0.85495 0.0
C281 C 0.96597 0.32322 0.91614 0.0
O282 O 0.04344 0.3161 0.85025 0.0
O283 O 0.07423 0.3207 0.87345 0.0
O284 O 0.08712 0.22231 0.92065 0.0
O285 O 0.05396 0.17987 0.90242 0.0
C286 C 0.96731 0.21707 0.91619 0.0
C287 C 0.96346 0.18392 0.8623 0.0
C288 C 0.07305 0.21067 0.85942 0.0
O289 O 0.07427 0.22036 0.87378 0.0
O290 O 0.04358 0.22342 0.85055 0.0
C291 C 0.96345 0.35577 0.8617 0.0
O292 O 0.05437 0.3625 0.90216 0.0
O293 O 0.08514 0.32067 0.92108 0.0
C294 C 0.07296 0.32951 0.85902 0.0
C295 C 0.08146 0.35548 0.9133 0.0
C296 C 0.1229 0.01183 0.46498 0.0
C297 C 0.11651 0.98645 0.47815 0.0
C298 C 0.15258 1.00032 0.45369 0.0
C299 C 0.21758 0.91327 0.43865 0.0
H300 H 0.30448 0.99821 0.43296 0.0
C301 C 0.36584 0.8755 0.40369 0.0
C302 C 0.40296 0.88175 0.41224 0.0
C303 C 0.3284 0.89493 0.40829 0.0
C304 C 0.28026 0.97438 0.43432 0.0
H305 H 0.13386 0.92821 0.48949 0.0
H306 H 0.1847 0.90722 0.46948 0.0
H307 H 0.23986 0.01594 0.44717 0.0
H308 H 0.43092 0.91396 0.43188 0.0
H309 H 0.36539 0.9488 0.43987 0.0
H310 H 0.25835 0.8713 0.42627 0.0
C311 C 0.16703 0.93607 0.4679 0.0
C312 C 0.2432 0.98456 0.44233 0.0
C313 C 0.13792 0.94794 0.47931 0.0
C314 C 0.40284 0.90974 0.42488 0.0
C315 C 0.36533 0.92943 0.42946 0.0
C316 C 0.25429 0.90328 0.43045 0.0
C317 C 0.17579 0.96292 0.45529 0.0
C318 C 0.21195 0.9538 0.44488 0.0
C319 C 0.32739 0.9207 0.4216 0.0
C320 C 0.28641 0.93346 0.42849 0.0
H321 H 0.10723 0.04202 0.46399 0.0
H322 H 0.15862 0.02143 0.44404 0.0
H323 H 0.19399 0.88902 0.44045 0.0
H324 H 0.36503 0.85296 0.3942 0.0
H325 H 0.29971 0.88784 0.40197 0.0
C326 C 0.27191 0.93831 0.74418 0.0
C327 C 0.2724 0.89463 0.74123 0.0
C328 C 0.27723 0.96722 0.73218 0.0
C329 C 0.32655 0.98183 0.69449 0.0
H330 H 0.26141 0.08524 0.69514 0.0
C331 C 0.37718 0.1252 0.65798 0.0
C332 C 0.3807 0.16209 0.66692 0.0
C333 C 0.35408 0.09074 0.66356 0.0
C334 C 0.27976 0.0565 0.69474 0.0
H335 H 0.28024 0.84733 0.72321 0.0
H336 H 0.29067 0.89853 0.70205 0.0
H337 H 0.24008 0.02606 0.71147 0.0
H338 H 0.36237 0.19284 0.68835 0.0
H339 H 0.32152 0.13313 0.69809 0.0
H340 H 0.36745 0.01301 0.67833 0.0
C341 C 0.28529 0.90995 0.71377 0.0
C342 C 0.26754 0.02259 0.70407 0.0
C343 C 0.27945 0.88069 0.72587 0.0
C344 C 0.35911 0.165 0.68111 0.0
C345 C 0.33581 0.13072 0.68666 0.0
C346 C 0.33883 0.01583 0.68513 0.0
C347 C 0.28388 0.95356 0.71684 0.0
C348 C 0.29174 0.98551 0.70452 0.0
C349 C 0.33426 0.09265 0.67821 0.0
C350 C 0.31645 0.05411 0.6856 0.0
H351 H 0.26836 0.95047 0.7559 0.0
H352 H 0.27735 1.0005 0.73504 0.0
H353 H 0.34597 0.9538 0.69465 0.0
H354 H 0.39461 0.12199 0.64718 0.0
H355 H 0.3533 0.06199 0.65674 0.0
C356 C 0.33321 0.0404 0.9941 0.0
C357 C 0.37676 0.04003 0.99099 0.0
C358 C 0.30412 0.04596 0.98218 0.0
C359 C 0.29064 0.09469 0.94437 0.0
H360 H 0.18495 0.03296 0.94532 0.0
C361 C 0.14909 0.14882 0.90788 0.0
C362 C 0.11251 0.15383 0.91687 0.0
C363 C 0.1827 0.12475 0.91348 0.0
C364 C 0.21435 0.05034 0.94483 0.0
H365 H 0.42373 0.04599 0.97275 0.0
H366 H 0.37235 0.05683 0.95177 0.0
H367 H 0.24341 0.01029 0.9617 0.0
H368 H 0.08132 0.13724 0.93839 0.0
H369 H 0.13962 0.09488 0.9482 0.0
H370 H 0.26092 0.136 0.92809 0.0
C371 C 0.36109 0.05214 0.96355 0.0
C372 C 0.24781 0.03737 0.9542 0.0
C373 C 0.39045 0.0461 0.97555 0.0
C374 C 0.109 0.13292 0.93115 0.0
C375 C 0.14241 0.1087 0.93672 0.0
C376 C 0.2571 0.10771 0.93499 0.0
C377 C 0.31758 0.05189 0.96677 0.0
C378 C 0.28573 0.06039 0.95453 0.0
C379 C 0.1802 0.10549 0.92819 0.0
C380 C 0.21806 0.0866 0.93557 0.0
H381 H 0.32137 0.03737 0.00588 0.0
H382 H 0.27093 0.04689 0.98515 0.0
H383 H 0.31937 0.1132 0.94444 0.0
H384 H 0.15276 0.16568 0.897 0.0
H385 H 0.21129 0.12272 0.90661 0.0
C386 C 0.13661 0.13133 0.24259 0.0
C387 C 0.17985 0.14002 0.24118 0.0
C388 C 0.1176 0.10107 0.23301 0.0
C389 C 0.12651 0.03957 0.19703 0.0
H390 H 0.07941 0.94765 0.22115 0.0
C391 C 0.09333 0.87652 0.16947 0.0
C392 C 0.06123 0.8512 0.17574 0.0
C393 C 0.10414 0.91479 0.17656 0.0
C394 C 0.09142 0.97325 0.21411 0.0
H395 H 0.23663 0.12604 0.22817 0.0
H396 H 0.20301 0.07408 0.21102 0.0
H397 H 0.10278 0.0114 0.23428 0.0
H398 H 0.01365 0.8469 0.19377 0.0
H399 H 0.0307 0.91453 0.20565 0.0
H400 H 0.11455 1.00208 0.17679 0.0
C401 C 0.18395 0.09041 0.21959 0.0
C402 C 0.10501 0.0098 0.2217 0.0
C403 C 0.20315 0.12005 0.22937 0.0
C404 C 0.03918 0.86544 0.18891 0.0
C405 C 0.04917 0.90421 0.19575 0.0
C406 C 0.11207 1.00333 0.18936 0.0
C407 C 0.14137 0.07961 0.22169 0.0
C408 C 0.12324 0.04302 0.21328 0.0
C409 C 0.0823 0.92921 0.18984 0.0
C410 C 0.09496 0.96927 0.19781 0.0
H411 H 0.11815 0.14593 0.25174 0.0
H412 H 0.08469 0.09331 0.23482 0.0
H413 H 0.14034 0.06489 0.19028 0.0
H414 H 0.1108 0.86623 0.1593 0.0
H415 H 0.13028 0.93249 0.17176 0.0
C416 C 0.1732 0.07007 0.5241 0.0
C417 C 0.13431 0.05377 0.52917 0.0
C418 C 0.2044 0.08115 0.53473 0.0
C419 C 0.22653 0.111 0.57509 0.0
H420 H 0.3395 0.07549 0.56378 0.0
C421 C 0.37411 0.15804 0.61139 0.0
C422 C 0.40712 0.17503 0.6024 0.0
C423 C 0.34052 0.13676 0.60421 0.0
C424 C 0.3082 0.0857 0.56712 0.0
H425 H 0.09669 0.03874 0.54947 0.0
H426 H 0.1518 0.05871 0.56834 0.0
H427 H 0.27972 0.05251 0.54816 0.0
H428 H 0.43166 0.18144 0.57896 0.0
H429 H 0.37371 0.14411 0.56652 0.0
H430 H 0.25545 0.14527 0.59384 0.0
C431 C 0.15797 0.06234 0.55601 0.0
C432 C 0.27391 0.07255 0.55817 0.0
C433 C 0.12647 0.05101 0.54525 0.0
C434 C 0.40682 0.16856 0.58622 0.0
C435 C 0.3736 0.14701 0.57909 0.0
C436 C 0.26101 0.12426 0.58409 0.0
C437 C 0.19769 0.0765 0.5508 0.0
C438 C 0.23282 0.08605 0.56174 0.0
C439 C 0.33955 0.13163 0.58794 0.0
C440 C 0.30238 0.11271 0.57993 0.0
H441 H 0.17982 0.07368 0.51179 0.0
H442 H 0.23408 0.09318 0.53033 0.0
H443 H 0.19528 0.12197 0.57813 0.0
H444 H 0.37305 0.16316 0.62385 0.0
H445 H 0.31491 0.12506 0.61137 0.0
C446 C 0.17984 0.88696 0.79466 0.0
C447 C 0.22308 0.87788 0.79473 0.0
C448 C 0.16356 0.91842 0.80438 0.0
C449 C 0.19109 0.99525 0.83619 0.0
H450 H 0.11053 0.06477 0.81422 0.0
C451 C 0.11191 0.14313 0.86359 0.0
C452 C 0.10029 0.17621 0.85362 0.0
C453 C 0.1296 0.10611 0.85759 0.0
C454 C 0.13348 0.04615 0.82048 0.0
H455 H 0.28282 0.89257 0.80558 0.0
H456 H 0.25487 0.94804 0.82229 0.0
H457 H 0.13344 0.99904 0.80275 0.0
H458 H 0.10048 0.19753 0.8297 0.0
H459 H 0.13307 0.13391 0.81926 0.0
H460 H 0.19244 0.04377 0.85359 0.0
C461 C 0.23309 0.93048 0.81506 0.0
C462 C 0.14597 0.00773 0.81403 0.0
C463 C 0.2492 0.89849 0.80552 0.0
C464 C 0.10906 0.17253 0.83765 0.0
C465 C 0.12725 0.13579 0.83167 0.0
C466 C 0.17884 0.03404 0.8426 0.0
C467 C 0.19038 0.94219 0.8141 0.0
C468 C 0.17505 0.98168 0.82174 0.0
C469 C 0.13634 0.10143 0.84147 0.0
C470 C 0.15006 0.06018 0.83476 0.0
H471 H 0.15916 0.87162 0.78636 0.0
H472 H 0.13028 0.92557 0.80364 0.0
H473 H 0.21328 0.97601 0.84256 0.0
H474 H 0.1046 0.14459 0.8759 0.0
H475 H 0.13575 0.08035 0.86551 0.0
C476 C 0.38695 0.94282 0.04207 0.0
C477 C 0.40241 0.98405 0.0439 0.0
C478 C 0.36256 0.92421 0.05374 0.0
C479 C 0.28843 0.95711 0.08378 0.0
H480 H 0.28177 0.83719 0.09204 0.0
C481 C 0.17581 0.82742 0.11766 0.0
C482 C 0.13635 0.83992 0.11181 0.0
C483 C 0.21284 0.84691 0.11252 0.0
C484 C 0.28354 0.87086 0.09008 0.0
H485 H 0.40709 0.03698 0.05982 0.0
H486 H 0.36493 0.0042 0.08033 0.0
H487 H 0.34233 0.86553 0.07794 0.0
H488 H 0.10501 0.88419 0.09647 0.0
H489 H 0.16948 0.91794 0.08752 0.0
H490 H 0.22918 0.96232 0.09558 0.0
C491 C 0.37123 0.9865 0.06978 0.0
C492 C 0.31806 0.88702 0.08189 0.0
C493 C 0.39576 0.00507 0.05811 0.0
C494 C 0.13476 0.87357 0.1012 0.0
C495 C 0.17176 0.89318 0.09614 0.0
C496 C 0.25389 0.94095 0.09192 0.0
C497 C 0.35305 0.94651 0.06747 0.0
C498 C 0.32036 0.93018 0.07831 0.0
C499 C 0.21126 0.87954 0.10152 0.0
C500 C 0.25052 0.8975 0.09481 0.0
H501 H 0.39187 0.92582 0.03127 0.0
H502 H 0.34888 0.89347 0.05153 0.0
H503 H 0.28896 0.99045 0.08109 0.0
H504 H 0.17834 0.80168 0.12587 0.0
H505 H 0.24279 0.83602 0.117 0.0
C506 C 0.2678 0.13391 0.30237 0.0
C507 C 0.27629 0.13671 0.28633 0.0
C508 C 0.28841 0.10392 0.31157 0.0
C509 C 0.37873 0.0286 0.31161 0.0
H510 H 0.3086 0.96446 0.34007 0.0
C511 C 0.42974 0.8665 0.33356 0.0
C512 C 0.42728 0.85918 0.34969 0.0
C513 C 0.41004 0.90138 0.32692 0.0
C514 C 0.32866 0.98235 0.33228 0.0
H515 H 0.31495 0.11213 0.26759 0.0
H516 H 0.35035 0.05973 0.28346 0.0
H517 H 0.27956 0.0262 0.32693 0.0
H518 H 0.40041 0.88203 0.37133 0.0
H519 H 0.36508 0.94268 0.35961 0.0
H520 H 0.4274 0.98409 0.31661 0.0
C521 C 0.32804 0.08067 0.28905 0.0
C522 C 0.31214 0.01789 0.3248 0.0
C523 C 0.30751 0.11056 0.2799 0.0
C524 C 0.40254 0.88639 0.35887 0.0
C525 C 0.38251 0.9213 0.35217 0.0
C526 C 0.39506 0.993 0.31897 0.0
C527 C 0.31806 0.07619 0.30494 0.0
C528 C 0.33678 0.04107 0.31415 0.0
C529 C 0.38716 0.92981 0.33619 0.0
C530 C 0.37003 0.96902 0.32918 0.0
H531 H 0.24367 0.15337 0.30766 0.0
H532 H 0.28042 0.10183 0.32381 0.0
H533 H 0.39896 0.04615 0.30377 0.0
H534 H 0.44823 0.84608 0.32609 0.0
H535 H 0.41344 0.90657 0.31452 0.0
C536 C 0.84969 0.01434 0.54768 0.0
C537 C 0.87487 0.04247 0.53905 0.0
C538 C 0.81843 0.02941 0.55773 0.0
C539 C 0.75116 0.12306 0.56148 0.0
H540 H 0.70948 0.06714 0.59855 0.0
C541 C 0.59012 0.1666 0.58645 0.0
C542 C 0.58789 0.17287 0.60262 0.0
C543 C 0.62481 0.14635 0.5798 0.0
C544 C 0.72086 0.08324 0.58826 0.0
H545 H 0.88933 0.10859 0.53537 0.0
H546 H 0.83622 0.13475 0.55338 0.0
H547 H 0.77508 0.04328 0.58646 0.0
H548 H 0.61953 0.16139 0.62454 0.0
H549 H 0.68019 0.12618 0.61296 0.0
H550 H 0.69776 0.16352 0.56336 0.0
C551 C 0.83966 0.10099 0.55198 0.0
C552 C 0.75831 0.0694 0.58127 0.0
C553 C 0.87067 0.08594 0.54183 0.0
C554 C 0.61993 0.1563 0.61208 0.0
C555 C 0.65486 0.1363 0.60541 0.0
C556 C 0.71395 0.13689 0.56846 0.0
C557 C 0.81189 0.07298 0.5595 0.0
C558 C 0.77383 0.08907 0.56774 0.0
C559 C 0.65837 0.13238 0.58914 0.0
C560 C 0.69804 0.11695 0.58184 0.0
H561 H 0.85259 0.98062 0.546 0.0
H562 H 0.79774 0.00686 0.56333 0.0
H563 H 0.7616 0.13855 0.55093 0.0
H564 H 0.5658 0.17885 0.57887 0.0
H565 H 0.62597 0.14288 0.56726 0.0
C566 C 0.72839 0.09159 0.28009 0.0
C567 C 0.7235 0.13569 0.28038 0.0
C568 C 0.71818 0.06725 0.29301 0.0
C569 C 0.64634 0.06167 0.32512 0.0
H570 H 0.71755 0.96849 0.33765 0.0
C571 C 0.5827 0.92742 0.36386 0.0
C572 C 0.59141 0.88682 0.35805 0.0
C573 C 0.60435 0.96261 0.35815 0.0
C574 C 0.6973 0.99438 0.33432 0.0
H575 H 0.7038 0.18854 0.29473 0.0
H576 H 0.68414 0.14522 0.31727 0.0
H577 H 0.74577 0.02303 0.32054 0.0
H578 H 0.63141 0.85141 0.3422 0.0
H579 H 0.66847 0.91245 0.33217 0.0
H580 H 0.59702 0.03171 0.33804 0.0
C581 C 0.69679 0.13004 0.30696 0.0
C582 C 0.71354 0.02568 0.32461 0.0
C583 C 0.70781 0.15471 0.29404 0.0
C584 C 0.62364 0.8821 0.34693 0.0
C585 C 0.64524 0.91721 0.34126 0.0
C586 C 0.62995 0.03014 0.33476 0.0
C587 C 0.70196 0.08607 0.30652 0.0
C588 C 0.68776 0.05874 0.31946 0.0
C589 C 0.63532 0.95797 0.34656 0.0
C590 C 0.65482 0.9953 0.33897 0.0
H591 H 0.73879 0.07537 0.26967 0.0
H592 H 0.72145 0.03332 0.29219 0.0
H593 H 0.62573 0.08667 0.32121 0.0
H594 H 0.55828 0.93231 0.37251 0.0
H595 H 0.59631 0.99354 0.36261 0.0
C596 C 0.64123 0.9532 0.03004 0.0
C597 C 0.6215 0.98967 0.03573 0.0
C598 C 0.66874 0.93041 0.03947 0.0
C599 C 0.7102 0.91871 0.07982 0.0
H600 H 0.81324 0.89044 0.05783 0.0
C601 C 0.84826 0.8267 0.10798 0.0
C602 C 0.88961 0.83809 0.10369 0.0
C603 C 0.81352 0.84516 0.10072 0.0
C604 C 0.78486 0.89847 0.06419 0.0
H605 H 0.61274 0.0295 0.05596 0.0
H606 H 0.66124 0.99001 0.07248 0.0
H607 H 0.75415 0.91939 0.04354 0.0
H608 H 0.9265 0.87947 0.08886 0.0
H609 H 0.86594 0.91205 0.07641 0.0
H610 H 0.74176 0.89884 0.10059 0.0
C611 C 0.65514 0.97859 0.0608 0.0
C612 C 0.75061 0.91441 0.05594 0.0
C613 C 0.62726 1.00119 0.05138 0.0
C614 C 0.89523 0.86959 0.09238 0.0
C615 C 0.86046 0.88811 0.08516 0.0
C616 C 0.7446 0.90273 0.0881 0.0
C617 C 0.67752 0.94396 0.05474 0.0
C618 C 0.71284 0.9248 0.06363 0.0
C619 C 0.8192 0.87553 0.08902 0.0
C620 C 0.78244 0.89267 0.08038 0.0
H621 H 0.6371 0.94365 0.01801 0.0
H622 H 0.68458 0.90324 0.03456 0.0
H623 H 0.68154 0.92624 0.08609 0.0
H624 H 0.84256 0.80255 0.11663 0.0
H625 H 0.78222 0.8345 0.1039 0.0
C626 C 0.77287 0.88234 0.80585 0.0
C627 C 0.7936 0.87225 0.79187 0.0
C628 C 0.79188 0.90927 0.81669 0.0
C629 C 0.89202 0.96295 0.8274 0.0
H630 H 0.81854 0.05591 0.83852 0.0
C631 C 0.95103 0.10576 0.8631 0.0
C632 C 0.94027 0.14564 0.85714 0.0
C633 C 0.93176 0.06922 0.85741 0.0
C634 C 0.83943 0.03015 0.83553 0.0
H635 H 0.85169 0.87924 0.77886 0.0
H636 H 0.88503 0.92602 0.79778 0.0
H637 H 0.78957 0.99457 0.82509 0.0
H638 H 0.89959 0.17813 0.84081 0.0
H639 H 0.86603 0.11431 0.83091 0.0
H640 H 0.94218 0.99932 0.83732 0.0
C641 C 0.85413 0.91332 0.80041 0.0
C642 C 0.82275 0.99475 0.82802 0.0
C643 C 0.83503 0.88663 0.78955 0.0
C644 C 0.90876 0.14806 0.84568 0.0
C645 C 0.88933 0.11146 0.84005 0.0
C646 C 0.90866 0.99826 0.835 0.0
C647 C 0.83207 0.92634 0.81379 0.0
C648 C 0.84899 0.96108 0.8236 0.0
C649 C 0.90106 0.0716 0.8457 0.0
C650 C 0.88268 0.03261 0.83888 0.0
H651 H 0.74079 0.87197 0.80789 0.0
H652 H 0.77436 0.91828 0.82701 0.0
H653 H 0.91299 0.93744 0.82421 0.0
H654 H 0.97506 0.1025 0.87195 0.0
H655 H 0.94112 0.03902 0.86212 0.0
C656 C 0.85503 0.9251 0.49534 0.0
C657 C 0.87667 0.96087 0.48984 0.0
C658 C 0.8243 0.90542 0.48623 0.0
C659 C 0.77942 0.89223 0.44715 0.0
H660 H 0.67281 0.88722 0.46921 0.0
C661 C 0.62201 0.85377 0.41562 0.0
C662 C 0.59037 0.83241 0.42397 0.0
C663 C 0.65888 0.86738 0.42308 0.0
C664 C 0.70234 0.88745 0.46288 0.0
H665 H 0.88536 1.00172 0.46988 0.0
H666 H 0.83225 0.96636 0.45374 0.0
H667 H 0.73553 0.91154 0.48267 0.0
H668 H 0.57331 0.80745 0.44658 0.0
H669 H 0.63803 0.82917 0.45938 0.0
H670 H 0.74652 0.86721 0.42742 0.0
C671 C 0.83893 0.95401 0.46522 0.0
C672 C 0.73835 0.90167 0.47063 0.0
C673 C 0.86951 0.9741 0.47444 0.0
C674 C 0.5968 0.82428 0.43985 0.0
C675 C 0.63397 0.83708 0.44723 0.0
C676 C 0.74343 0.87724 0.43942 0.0
C677 C 0.81483 0.92059 0.4713 0.0
C678 C 0.77726 0.90428 0.46287 0.0
C679 C 0.66542 0.85931 0.43902 0.0
C680 C 0.70426 0.8747 0.44717 0.0
H681 H 0.86028 0.91371 0.50706 0.0
H682 H 0.80674 0.87925 0.49111 0.0
H683 H 0.80906 0.89384 0.4409 0.0
H684 H 0.61799 0.86067 0.40336 0.0
H685 H 0.68184 0.88492 0.41636 0.0
C686 C 0.83745 0.13195 0.23344 0.0
C687 C 0.79591 0.14266 0.22947 0.0
C688 C 0.85965 0.10212 0.22468 0.0
C689 C 0.88236 0.0148 0.21357 0.0
H690 H 0.86525 0.99289 0.16962 0.0
C691 C 0.91428 0.85143 0.18656 0.0
C692 C 0.93059 0.84939 0.17136 0.0
C693 C 0.90173 0.89002 0.19296 0.0
C694 C 0.87088 0.99873 0.18187 0.0
H695 H 0.74597 0.13263 0.21273 0.0
H696 H 0.78419 0.08021 0.19757 0.0
H697 H 0.83966 0.05844 0.18098 0.0
H698 H 0.94737 0.88665 0.15109 0.0
H699 H 0.92622 0.95382 0.16232 0.0
H700 H 0.91416 0.9555 0.21443 0.0
C701 C 0.80015 0.09517 0.20725 0.0
C702 C 0.85575 0.0362 0.18843 0.0
C703 C 0.77815 0.12536 0.21592 0.0
C704 C 0.93442 0.88693 0.16277 0.0
C705 C 0.92216 0.92552 0.1692 0.0
C706 C 0.89774 0.97754 0.207 0.0
C707 C 0.84056 0.08192 0.21188 0.0
C708 C 0.86066 0.04445 0.20443 0.0
C709 C 0.90552 0.9276 0.18436 0.0
C710 C 0.89154 0.96862 0.19112 0.0
H711 H 0.85191 0.14501 0.2438 0.0
H712 H 0.89112 0.0936 0.22835 0.0
H713 H 0.88631 0.01958 0.22597 0.0
H714 H 0.91094 0.82317 0.19351 0.0
H715 H 0.88844 0.89023 0.20458 0.0
C716 C 0.6344 0.09503 0.97662 0.0
C717 C 0.64282 0.08893 0.99251 0.0
C718 C 0.66613 0.11031 0.96668 0.0
C719 C 0.7813 0.11163 0.96431 0.0
H720 H 0.7705 0.20246 0.93446 0.0
C721 C 0.926 0.19459 0.93957 0.0
C722 C 0.92753 0.20253 0.92349 0.0
C723 C 0.8888 0.18083 0.94658 0.0
C724 C 0.77375 0.17666 0.9426 0.0
H725 H 0.68932 0.09724 0.01073 0.0
H726 H 0.74414 0.12374 0.99355 0.0
H727 H 0.70836 0.17878 0.9492 0.0
H728 H 0.8906 0.2033 0.90223 0.0
H729 H 0.82538 0.17895 0.91458 0.0
H730 H 0.84639 0.10957 0.95803 0.0
C731 C 0.71373 0.11578 0.98862 0.0
C732 C 0.73827 0.16316 0.95101 0.0
C733 C 0.68234 0.10068 0.99845 0.0
C734 C 0.89061 0.19713 0.91463 0.0
C735 C 0.85319 0.18348 0.92169 0.0
C736 C 0.8165 0.125 0.95597 0.0
C737 C 0.70646 0.1196 0.97257 0.0
C738 C 0.74207 0.13124 0.96224 0.0
C739 C 0.85211 0.17471 0.93771 0.0
C740 C 0.81341 0.15832 0.94531 0.0
H741 H 0.60406 0.08635 0.97181 0.0
H742 H 0.65971 0.1132 0.95434 0.0
H743 H 0.78494 0.08629 0.97264 0.0
H744 H 0.95361 0.19886 0.94681 0.0
H745 H 0.88873 0.17509 0.95901 0.0
C746 C 0.72496 0.88128 0.72445 0.0
C747 C 0.73292 0.89533 0.73972 0.0
C748 C 0.71802 0.91039 0.71244 0.0
C749 C 0.73366 0.02308 0.70245 0.0
H750 H 0.63158 0.01143 0.67811 0.0
C751 C 0.63845 0.16351 0.68046 0.0
C752 C 0.6157 0.15997 0.66657 0.0
C753 C 0.66252 0.12968 0.68579 0.0
C754 C 0.66079 0.01483 0.6845 0.0
H755 H 0.73784 0.95111 0.75437 0.0
H756 H 0.72679 1.00109 0.7336 0.0
H757 H 0.65527 0.95287 0.69421 0.0
H758 H 0.60028 0.11924 0.64717 0.0
H759 H 0.64304 0.06007 0.6563 0.0
H760 H 0.7382 0.08566 0.69332 0.0
C761 C 0.72696 0.9678 0.73075 0.0
C762 C 0.67431 0.98121 0.69374 0.0
C763 C 0.73339 0.93898 0.74268 0.0
C764 C 0.6186 0.1229 0.65771 0.0
C765 C 0.64256 0.08893 0.66306 0.0
C766 C 0.72019 0.05662 0.69322 0.0
C767 C 0.71924 0.95399 0.71549 0.0
C768 C 0.70995 0.98565 0.70328 0.0
C769 C 0.66375 0.0915 0.6774 0.0
C770 C 0.68272 0.05345 0.6846 0.0
H771 H 0.72433 0.8479 0.72178 0.0
H772 H 0.71189 0.89889 0.70077 0.0
H773 H 0.76171 0.02709 0.70947 0.0
H774 H 0.63576 0.19157 0.68761 0.0
H775 H 0.67786 0.13254 0.697 0.0
C776 C 0.64638 0.46764 0.97692 0.0
C777 C 0.63392 0.44395 0.98991 0.0
C778 C 0.6765 0.45184 0.96652 0.0
C779 C 0.74099 0.35531 0.95702 0.0
H780 H 0.81988 0.43888 0.94152 0.0
C781 C 0.91246 0.3193 0.93753 0.0
C782 C 0.92513 0.33578 0.92308 0.0
C783 C 0.8735 0.3303 0.944 0.0
C784 C 0.79786 0.41522 0.94563 0.0
H785 H 0.64224 0.38516 0.00216 0.0
H786 H 0.69582 0.358 0.98449 0.0
H787 H 0.75724 0.46161 0.95552 0.0
H788 H 0.90688 0.37646 0.90401 0.0
H789 H 0.83937 0.39709 0.91568 0.0
H790 H 0.78361 0.30898 0.94781 0.0
C791 C 0.68158 0.38809 0.98183 0.0
C792 C 0.76162 0.42818 0.95358 0.0
C793 C 0.6508 0.40358 0.99202 0.0
C794 C 0.898 0.36343 0.9152 0.0
C795 C 0.85946 0.37524 0.92186 0.0
C796 C 0.77775 0.34237 0.94933 0.0
C797 C 0.69579 0.41247 0.96914 0.0
C798 C 0.73271 0.39845 0.95953 0.0
C799 C 0.84682 0.35872 0.93631 0.0
C800 C 0.80666 0.37222 0.94366 0.0
H801 H 0.63397 0.49906 0.97517 0.0
H802 H 0.68556 0.4712 0.9567 0.0
H803 H 0.7193 0.33136 0.96108 0.0
H804 H 0.93246 0.29745 0.94376 0.0
H805 H 0.86459 0.31726 0.95519 0.0
C806 C 0.72915 0.38998 0.21282 0.0
C807 C 0.74989 0.38317 0.22704 0.0
C808 C 0.74394 0.42056 0.20243 0.0
C809 C 0.83731 0.48237 0.19168 0.0
H810 H 0.75835 0.56815 0.17825 0.0
C811 C 0.89425 0.61949 0.15451 0.0
C812 C 0.88507 0.65903 0.16097 0.0
C813 C 0.87194 0.5838 0.15925 0.0
C814 C 0.78062 0.54423 0.18182 0.0
H815 H 0.80301 0.40159 0.24132 0.0
H816 H 0.82947 0.45437 0.22302 0.0
H817 H 0.73298 0.50746 0.19326 0.0
H818 H 0.84469 0.69318 0.17686 0.0
H819 H 0.80514 0.63059 0.18518 0.0
H820 H 0.88514 0.51937 0.18069 0.0
C821 C 0.8017 0.43629 0.21994 0.0
C822 C 0.76612 0.50944 0.1903 0.0
C823 C 0.78655 0.40625 0.23042 0.0
C824 C 0.85151 0.66301 0.1715 0.0
C825 C 0.82907 0.6272 0.17626 0.0
C826 C 0.85169 0.51675 0.18306 0.0
C827 C 0.78011 0.4443 0.20598 0.0
C828 C 0.79451 0.47865 0.19557 0.0
C829 C 0.84038 0.58701 0.17068 0.0
C830 C 0.82365 0.54843 0.17825 0.0
H831 H 0.70055 0.37289 0.21003 0.0
H832 H 0.72688 0.426 0.19171 0.0
H833 H 0.85981 0.45899 0.19554 0.0
H834 H 0.92063 0.61575 0.1466 0.0
H835 H 0.88102 0.55333 0.15463 0.0
C836 C 0.85587 0.55082 0.47799 0.0
C837 C 0.87236 0.57767 0.48946 0.0
C838 C 0.82526 0.56544 0.46765 0.0
C839 C 0.76889 0.66361 0.45491 0.0
H840 H 0.68016 0.58397 0.44469 0.0
C841 C 0.59708 0.70577 0.4379 0.0
C842 C 0.58566 0.69248 0.42287 0.0
C843 C 0.63476 0.6921 0.44456 0.0
C844 C 0.70495 0.60636 0.44739 0.0
H845 H 0.87063 0.6407 0.4991 0.0
H846 H 0.81607 0.66585 0.48165 0.0
H847 H 0.74231 0.55973 0.45865 0.0
H848 H 0.60409 0.65384 0.40314 0.0
H849 H 0.66925 0.62836 0.41518 0.0
H850 H 0.72954 0.71061 0.44444 0.0
C851 C 0.82753 0.63402 0.48008 0.0
C852 C 0.74082 0.59253 0.45526 0.0
C853 C 0.85877 0.61963 0.49016 0.0
C854 C 0.6122 0.66461 0.41474 0.0
C855 C 0.64934 0.65006 0.42157 0.0
C856 C 0.73254 0.67754 0.44737 0.0
C857 C 0.80971 0.60691 0.46885 0.0
C858 C 0.77319 0.62104 0.45928 0.0
C859 C 0.66101 0.66406 0.43645 0.0
C860 C 0.70026 0.64905 0.44367 0.0
H861 H 0.86606 0.5183 0.47726 0.0
H862 H 0.8132 0.54388 0.45894 0.0
H863 H 0.7934 0.6864 0.45744 0.0
H864 H 0.57731 0.72739 0.44438 0.0
H865 H 0.64325 0.70306 0.45609 0.0
C866 C 0.64246 0.62694 0.74035 0.0
C867 C 0.68533 0.63742 0.73899 0.0
C868 C 0.62508 0.59509 0.73108 0.0
C869 C 0.63032 0.5351 0.69568 0.0
H870 H 0.6019 0.43664 0.72023 0.0
C871 C 0.59349 0.37405 0.66676 0.0
C872 C 0.56655 0.34586 0.6745 0.0
C873 C 0.606 0.41172 0.67393 0.0
C874 C 0.60861 0.46396 0.71312 0.0
H875 H 0.74314 0.62468 0.72644 0.0
H876 H 0.71214 0.56987 0.70971 0.0
H877 H 0.62499 0.5008 0.73318 0.0
H878 H 0.53025 0.33564 0.69553 0.0
H879 H 0.54928 0.40226 0.70756 0.0
H880 H 0.61263 0.49922 0.67562 0.0
C881 C 0.69228 0.58609 0.71806 0.0
C882 C 0.62219 0.50065 0.7206 0.0
C883 C 0.70994 0.61729 0.72759 0.0
C884 C 0.5515 0.35653 0.68936 0.0
C885 C 0.56283 0.39473 0.69632 0.0
C886 C 0.61568 0.49867 0.68816 0.0
C887 C 0.65007 0.57393 0.72007 0.0
C888 C 0.63348 0.53633 0.71195 0.0
C889 C 0.59086 0.42267 0.68885 0.0
C890 C 0.60497 0.46233 0.69677 0.0
H891 H 0.62305 0.64161 0.74922 0.0
H892 H 0.59249 0.586 0.73284 0.0
H893 H 0.63885 0.56242 0.6888 0.0
H894 H 0.60564 0.36654 0.65528 0.0
H895 H 0.62817 0.43175 0.66784 0.0
C896 C 0.6428 0.52539 0.05218 0.0
C897 C 0.63874 0.53569 0.03634 0.0
C898 C 0.67359 0.545 0.0614 0.0
C899 C 0.7499 0.63493 0.06209 0.0
H900 H 0.8152 0.56121 0.08872 0.0
C901 C 0.91388 0.68268 0.08354 0.0
C902 C 0.92185 0.67865 0.09958 0.0
C903 C 0.87859 0.66372 0.0768 0.0
C904 C 0.79702 0.58225 0.08144 0.0
H905 H 0.66182 0.57665 0.01804 0.0
H906 H 0.71563 0.61026 0.03391 0.0
H907 H 0.75218 0.53411 0.07574 0.0
H908 H 0.89996 0.64918 0.12089 0.0
H909 H 0.83858 0.61532 0.109 0.0
H910 H 0.79543 0.68266 0.06743 0.0
C911 C 0.69509 0.58729 0.03935 0.0
C912 C 0.76073 0.56684 0.07406 0.0
C913 C 0.66436 0.5678 0.03018 0.0
C914 C 0.89499 0.65281 0.1085 0.0
C915 C 0.85969 0.63353 0.10171 0.0
C916 C 0.78628 0.65015 0.06934 0.0
C917 C 0.70092 0.57539 0.05498 0.0
C918 C 0.73704 0.59283 0.06408 0.0
C919 C 0.85042 0.63995 0.08588 0.0
C920 C 0.81064 0.62383 0.07889 0.0
H921 H 0.62377 0.50056 0.05725 0.0
H922 H 0.67666 0.53556 0.07345 0.0
H923 H 0.73204 0.65616 0.05479 0.0
H924 H 0.93395 0.70204 0.07624 0.0
H925 H 0.87279 0.66847 0.0645 0.0
C926 C 0.71517 0.39183 0.28841 0.0
C927 C 0.68654 0.36788 0.27956 0.0
C928 C 0.70082 0.418 0.30042 0.0
C929 C 0.60996 0.48218 0.30863 0.0
H930 H 0.66246 0.50379 0.34865 0.0
C931 C 0.59635 0.6408 0.33989 0.0
C932 C 0.57759 0.63963 0.35474 0.0
C933 C 0.61004 0.60381 0.3327 0.0
C934 C 0.6474 0.49779 0.33755 0.0
H935 H 0.62085 0.35066 0.2769 0.0
H936 H 0.59571 0.39672 0.29781 0.0
H937 H 0.68457 0.44251 0.33305 0.0
H938 H 0.56073 0.59875 0.37402 0.0
H939 H 0.58599 0.5339 0.36145 0.0
H940 H 0.57422 0.5383 0.31274 0.0
C941 C 0.62923 0.39511 0.29547 0.0
C942 C 0.66005 0.46294 0.32864 0.0
C943 C 0.64363 0.36854 0.28359 0.0
C944 C 0.57488 0.60072 0.36255 0.0
C945 C 0.58937 0.56367 0.35541 0.0
C946 C 0.59795 0.51728 0.31737 0.0
C947 C 0.65753 0.4211 0.30366 0.0
C948 C 0.64165 0.45506 0.31402 0.0
C949 C 0.60602 0.56487 0.34026 0.0
C950 C 0.6169 0.5257 0.3318 0.0
H951 H 0.74843 0.39177 0.28555 0.0
H952 H 0.72331 0.43783 0.30647 0.0
H953 H 0.59562 0.47725 0.29733 0.0
H954 H 0.59884 0.67005 0.33347 0.0
H955 H 0.62308 0.60549 0.32104 0.0
C956 C 0.86674 0.45074 0.53065 0.0
C957 C 0.88645 0.48757 0.53613 0.0
C958 C 0.84024 0.42741 0.54038 0.0
C959 C 0.76001 0.40998 0.55799 0.0
H960 H 0.7735 0.39236 0.60237 0.0
C961 C 0.61849 0.36782 0.59615 0.0
C962 C 0.62333 0.33435 0.60671 0.0
C963 C 0.65348 0.38584 0.58887 0.0
C964 C 0.76942 0.39685 0.58997 0.0
H965 H 0.896 0.52736 0.55636 0.0
H966 H 0.84944 0.48676 0.57337 0.0
H967 H 0.83221 0.42098 0.58707 0.0
H968 H 0.66935 0.29513 0.61845 0.0
H969 H 0.73054 0.3267 0.60563 0.0
H970 H 0.69753 0.38595 0.56075 0.0
C971 C 0.85475 0.47565 0.56159 0.0
C972 C 0.80292 0.41346 0.58123 0.0
C973 C 0.8815 0.49891 0.55186 0.0
C974 C 0.66437 0.32083 0.61038 0.0
C975 C 0.6995 0.33895 0.60306 0.0
C976 C 0.72666 0.39362 0.56669 0.0
C977 C 0.83258 0.44053 0.55579 0.0
C978 C 0.79849 0.42039 0.56513 0.0
C979 C 0.6943 0.37091 0.59191 0.0
C980 C 0.73073 0.38727 0.5828 0.0
H981 H 0.87043 0.44099 0.51863 0.0
H982 H 0.82446 0.39993 0.53565 0.0
H983 H 0.75516 0.41549 0.54568 0.0
H984 H 0.58751 0.37954 0.59317 0.0
H985 H 0.64847 0.4111 0.58062 0.0
C986 C 0.76802 0.64647 0.80083 0.0
C987 C 0.7788 0.64757 0.78496 0.0
C988 C 0.79016 0.62064 0.81113 0.0
C989 C 0.81894 0.53758 0.82539 0.0
H990 H 0.94031 0.52348 0.82475 0.0
C991 C 0.90318 0.38794 0.84714 0.0
C992 C 0.94032 0.39303 0.85585 0.0
C993 C 0.88337 0.42275 0.84045 0.0
C994 C 0.90642 0.52738 0.82518 0.0
H995 H 0.82263 0.62442 0.76758 0.0
H996 H 0.8616 0.57951 0.7856 0.0
H997 H 0.90798 0.57966 0.8094 0.0
H998 H 0.98532 0.43894 0.86459 0.0
H999 H 0.95082 0.49968 0.85274 0.0
H1000 H 0.81725 0.48463 0.84083 0.0
C1001 C 0.83599 0.59855 0.79008 0.0
C1002 C 0.88793 0.5593 0.81632 0.0
C1003 C 0.81357 0.62404 0.77975 0.0
C1004 C 0.95664 0.4339 0.85802 0.0
C1005 C 0.93711 0.46867 0.85114 0.0
C1006 C 0.83738 0.50538 0.83411 0.0
C1007 C 0.8238 0.59572 0.80579 0.0
C1008 C 0.84396 0.56443 0.8162 0.0
C1009 C 0.90052 0.46338 0.84216 0.0
C1010 C 0.88125 0.49963 0.83395 0.0
H1011 H 0.74112 0.66395 0.80516 0.0
H1012 H 0.78032 0.61936 0.8232 0.0
H1013 H 0.78494 0.54048 0.82541 0.0
H1014 H 0.88971 0.35694 0.84528 0.0
H1015 H 0.85538 0.41768 0.83348 0.0
C1016 C 0.38781 0.52332 0.06106 0.0
C1017 C 0.39848 0.54538 0.04743 0.0
C1018 C 0.35845 0.54011 0.07159 0.0
C1019 C 0.29763 0.63773 0.08121 0.0
H1020 H 0.20832 0.5595 0.09225 0.0
C1021 C 0.12975 0.69336 0.09128 0.0
C1022 C 0.10862 0.68094 0.10496 0.0
C1023 C 0.16751 0.67447 0.08687 0.0
C1024 C 0.23331 0.58157 0.08948 0.0
H1025 H 0.38937 0.60342 0.03471 0.0
H1026 H 0.33859 0.63281 0.05295 0.0
H1027 H 0.27363 0.53292 0.08067 0.0
H1028 H 0.10918 0.63621 0.12397 0.0
H1029 H 0.17578 0.60254 0.11608 0.0
H1030 H 0.25644 0.6865 0.08926 0.0
C1031 C 0.35273 0.60269 0.05567 0.0
C1032 C 0.27085 0.56641 0.0829 0.0
C1033 C 0.38186 0.58587 0.04517 0.0
C1034 C 0.12508 0.64705 0.11357 0.0
C1035 C 0.16304 0.62772 0.10902 0.0
C1036 C 0.26012 0.65282 0.08764 0.0
C1037 C 0.33941 0.57939 0.06873 0.0
C1038 C 0.30296 0.59447 0.07823 0.0
C1039 C 0.18521 0.64225 0.09587 0.0
C1040 C 0.22705 0.62507 0.09139 0.0
H1041 H 0.39981 0.49182 0.063 0.0
H1042 H 0.34938 0.5216 0.08164 0.0
H1043 H 0.32197 0.66018 0.07809 0.0
H1044 H 0.11816 0.71907 0.08421 0.0
H1045 H 0.18332 0.68563 0.07646 0.0
C1046 C 0.21686 0.64554 0.79627 0.0
C1047 C 0.26058 0.64299 0.79408 0.0
C1048 C 0.19612 0.6161 0.80576 0.0
C1049 C 0.16053 0.53022 0.81467 0.0
H1050 H 0.21068 0.47971 0.85129 0.0
C1051 C 0.10605 0.36807 0.8367 0.0
C1052 C 0.10109 0.3629 0.85285 0.0
C1053 C 0.12639 0.40368 0.83072 0.0
C1054 C 0.19601 0.49363 0.84116 0.0
H1055 H 0.31729 0.60971 0.80058 0.0
H1056 H 0.28152 0.55862 0.81709 0.0
H1057 H 0.24172 0.54332 0.84018 0.0
H1058 H 0.11414 0.39095 0.87536 0.0
H1059 H 0.14987 0.45288 0.86499 0.0
H1060 H 0.11463 0.48084 0.8157 0.0
C1061 C 0.26297 0.58321 0.81172 0.0
C1062 C 0.21398 0.52996 0.83472 0.0
C1063 C 0.28353 0.61241 0.80224 0.0
C1064 C 0.11838 0.3934 0.86289 0.0
C1065 C 0.13861 0.42913 0.85692 0.0
C1066 C 0.14253 0.49396 0.82112 0.0
C1067 C 0.21885 0.58377 0.81321 0.0
C1068 C 0.19687 0.54835 0.82124 0.0
C1069 C 0.14201 0.4352 0.84074 0.0
C1070 C 0.16044 0.47476 0.83429 0.0
H1071 H 0.19855 0.66865 0.78996 0.0
H1072 H 0.16215 0.61775 0.80683 0.0
H1073 H 0.14673 0.54314 0.80419 0.0
H1074 H 0.09311 0.34514 0.82864 0.0
H1075 H 0.1293 0.40681 0.81821 0.0
C1076 C 0.11177 0.47433 0.54747 0.0
C1077 C 0.12652 0.50612 0.53748 0.0
C1078 C 0.13956 0.45455 0.55781 0.0
C1079 C 0.2524 0.43254 0.56099 0.0
H1080 H 0.23038 0.40537 0.60426 0.0
C1081 C 0.38556 0.37798 0.59985 0.0
C1082 C 0.3785 0.34118 0.60854 0.0
C1083 C 0.352 0.39934 0.59309 0.0
C1084 C 0.23671 0.41254 0.59216 0.0
H1085 H 0.1804 0.54468 0.53127 0.0
H1086 H 0.2285 0.51072 0.54928 0.0
H1087 H 0.17562 0.44007 0.58868 0.0
H1088 H 0.33029 0.29945 0.61778 0.0
H1089 H 0.27143 0.33681 0.60574 0.0
H1090 H 0.31311 0.40534 0.56426 0.0
C1091 C 0.19606 0.50004 0.54888 0.0
C1092 C 0.20545 0.43226 0.58327 0.0
C1093 C 0.16856 0.5195 0.53859 0.0
C1094 C 0.33679 0.32768 0.61112 0.0
C1095 C 0.30307 0.34907 0.60426 0.0
C1096 C 0.28341 0.41304 0.56981 0.0
C1097 C 0.18225 0.46656 0.55827 0.0
C1098 C 0.21342 0.44313 0.56767 0.0
C1099 C 0.31058 0.3843 0.59477 0.0
C1100 C 0.27627 0.40353 0.58555 0.0
H1101 H 0.07934 0.46374 0.54685 0.0
H1102 H 0.12813 0.42884 0.56495 0.0
H1103 H 0.25905 0.43948 0.54888 0.0
H1104 H 0.41721 0.38971 0.59788 0.0
H1105 H 0.3586 0.42704 0.58614 0.0
C1106 C 0.26905 0.39678 0.30392 0.0
C1107 C 0.28757 0.3864 0.28951 0.0
C1108 C 0.28576 0.42947 0.31305 0.0
C1109 C 0.33539 0.52943 0.30675 0.0
H1110 H 0.36835 0.53078 0.35017 0.0
C1111 C 0.42649 0.66846 0.33307 0.0
C1112 C 0.42215 0.67826 0.34896 0.0
C1113 C 0.4059 0.63362 0.32666 0.0
C1114 C 0.35843 0.53121 0.33812 0.0
H1115 H 0.34051 0.399 0.27421 0.0
H1116 H 0.36902 0.45644 0.28997 0.0
H1117 H 0.34318 0.4651 0.33831 0.0
H1118 H 0.39116 0.65996 0.37036 0.0
H1119 H 0.35354 0.60014 0.35907 0.0
H1120 H 0.34927 0.59525 0.30642 0.0
C1121 C 0.34144 0.43963 0.2941 0.0
C1122 C 0.34439 0.49348 0.33134 0.0
C1123 C 0.32515 0.40676 0.28512 0.0
C1124 C 0.39481 0.65361 0.35808 0.0
C1125 C 0.37382 0.61883 0.35163 0.0
C1126 C 0.34863 0.56715 0.31355 0.0
C1127 C 0.32094 0.45237 0.30781 0.0
C1128 C 0.33367 0.49218 0.3155 0.0
C1129 C 0.37991 0.60778 0.3359 0.0
C1130 C 0.3613 0.56846 0.32923 0.0
H1131 H 0.23994 0.38188 0.30758 0.0
H1132 H 0.2695 0.43877 0.32361 0.0
H1133 H 0.32643 0.52934 0.29457 0.0
H1134 H 0.44738 0.68658 0.32566 0.0
H1135 H 0.41203 0.62597 0.31458 0.0
C1136 C 0.39365 0.48053 0.97963 0.0
C1137 C 0.38003 0.48387 0.99519 0.0
C1138 C 0.36425 0.47444 0.96759 0.0
C1139 C 0.2517 0.49062 0.95883 0.0
H1140 H 0.26135 0.39692 0.93005 0.0
C1141 C 0.1085 0.40828 0.93203 0.0
C1142 C 0.11198 0.38844 0.9175 0.0
C1143 C 0.14297 0.42958 0.93845 0.0
C1144 C 0.25848 0.42392 0.93771 0.0
H1145 H 0.32516 0.48023 0.01031 0.0
H1146 H 0.27461 0.47079 0.9895 0.0
H1147 H 0.32045 0.4145 0.94709 0.0
H1148 H 0.15366 0.3755 0.89814 0.0
H1149 H 0.21369 0.414 0.90904 0.0
H1150 H 0.18947 0.49947 0.94988 0.0
C1151 C 0.30765 0.47392 0.98651 0.0
C1152 C 0.2924 0.43387 0.9475 0.0
C1153 C 0.33675 0.47943 0.99844 0.0
C1154 C 0.14978 0.39194 0.90911 0.0
C1155 C 0.18438 0.41325 0.91551 0.0
C1156 C 0.21799 0.4809 0.94901 0.0
C1157 C 0.32086 0.47195 0.97094 0.0
C1158 C 0.28871 0.46633 0.95855 0.0
C1159 C 0.18186 0.43102 0.93052 0.0
C1160 C 0.22032 0.44645 0.93872 0.0
H1161 H 0.42675 0.48358 0.97676 0.0
H1162 H 0.37528 0.4726 0.95566 0.0
H1163 H 0.24827 0.51629 0.96707 0.0
H1164 H 0.08001 0.40485 0.9389 0.0
H1165 H 0.13992 0.44222 0.95012 0.0
C1166 C 0.36837 0.60017 0.75165 0.0
C1167 C 0.34582 0.63524 0.74625 0.0
C1168 C 0.38494 0.57078 0.74125 0.0
C1169 C 0.36729 0.52778 0.7021 0.0
H1170 H 0.46922 0.46569 0.71161 0.0
C1171 C 0.42626 0.38359 0.66596 0.0
C1172 C 0.43712 0.34811 0.67492 0.0
C1173 C 0.4183 0.42248 0.67312 0.0
C1174 C 0.44067 0.48273 0.70881 0.0
H1175 H 0.32459 0.66825 0.7257 0.0
H1176 H 0.35406 0.61661 0.70727 0.0
H1177 H 0.45216 0.52912 0.72641 0.0
H1178 H 0.44792 0.32593 0.69846 0.0
H1179 H 0.43455 0.39372 0.71086 0.0
H1180 H 0.35572 0.48082 0.68459 0.0
C1181 C 0.35842 0.61173 0.71963 0.0
C1182 C 0.43086 0.51907 0.71728 0.0
C1183 C 0.34189 0.64146 0.73013 0.0
C1184 C 0.43959 0.35247 0.69119 0.0
C1185 C 0.43229 0.39143 0.6983 0.0
C1186 C 0.37732 0.49153 0.69352 0.0
C1187 C 0.37953 0.57563 0.72511 0.0
C1188 C 0.39338 0.54134 0.71437 0.0
C1189 C 0.42165 0.42688 0.68936 0.0
C1190 C 0.41347 0.46797 0.69711 0.0
H1191 H 0.37213 0.5948 0.76403 0.0
H1192 H 0.40042 0.54322 0.74595 0.0
H1193 H 0.33801 0.54387 0.69962 0.0
H1194 H 0.42409 0.38141 0.6534 0.0
H1195 H 0.41022 0.4493 0.66594 0.0
C1196 C 0.12397 0.59903 0.47869 0.0
C1197 C 0.11439 0.55793 0.48358 0.0
C1198 C 0.15316 0.60578 0.46671 0.0
C1199 C 0.2457 0.55283 0.44968 0.0
H1200 H 0.24744 0.65128 0.42309 0.0
C1201 C 0.3988 0.63006 0.42761 0.0
C1202 C 0.39837 0.65208 0.41348 0.0
C1203 C 0.36225 0.6102 0.43306 0.0
C1204 C 0.24732 0.62312 0.43019 0.0
H1205 H 0.12473 0.49165 0.47892 0.0
H1206 H 0.17469 0.50328 0.4577 0.0
H1207 H 0.18354 0.63363 0.43736 0.0
H1208 H 0.35979 0.67083 0.39399 0.0
H1209 H 0.29656 0.63432 0.40298 0.0
H1210 H 0.30958 0.54249 0.44259 0.0
C1211 C 0.16073 0.53039 0.46338 0.0
C1212 C 0.21074 0.61334 0.43855 0.0
C1213 C 0.13181 0.52369 0.47542 0.0
C1214 C 0.36145 0.65236 0.40454 0.0
C1215 C 0.32494 0.63232 0.40992 0.0
C1216 C 0.28223 0.56252 0.44127 0.0
C1217 C 0.17316 0.57151 0.45932 0.0
C1218 C 0.20977 0.57867 0.44871 0.0
C1219 C 0.32441 0.61238 0.42454 0.0
C1220 C 0.28389 0.59839 0.43171 0.0
H1221 H 0.11141 0.62599 0.48491 0.0
H1222 H 0.16212 0.63789 0.46401 0.0
H1223 H 0.24642 0.52611 0.4575 0.0
H1224 H 0.42661 0.63063 0.43492 0.0
H1225 H 0.36299 0.59576 0.44447 0.0
C1226 C 0.2579 0.39996 0.22911 0.0
C1227 C 0.22455 0.37987 0.23699 0.0
C1228 C 0.24983 0.43065 0.21787 0.0
C1229 C 0.21864 0.51828 0.20893 0.0
H1230 H 0.13528 0.51587 0.17597 0.0
C1231 C 0.11983 0.65957 0.18834 0.0
C1232 C 0.11594 0.66636 0.17225 0.0
C1233 C 0.14203 0.62486 0.19395 0.0
C1234 C 0.15912 0.5168 0.18498 0.0
H1235 H 0.15661 0.37335 0.23812 0.0
H1236 H 0.14254 0.42621 0.21809 0.0
H1237 H 0.15494 0.45013 0.18913 0.0
H1238 H 0.13368 0.64349 0.14945 0.0
H1239 H 0.17148 0.58138 0.15927 0.0
H1240 H 0.22085 0.5852 0.20548 0.0
C1241 C 0.17493 0.41844 0.22079 0.0
C1242 C 0.17009 0.47933 0.19256 0.0
C1243 C 0.183 0.388 0.23221 0.0
C1244 C 0.13653 0.63902 0.16187 0.0
C1245 C 0.15782 0.60346 0.16748 0.0
C1246 C 0.20704 0.55576 0.20158 0.0
C1247 C 0.20824 0.44141 0.21406 0.0
C1248 C 0.19959 0.47981 0.20474 0.0
C1249 C 0.15986 0.59563 0.18357 0.0
C1250 C 0.17677 0.55546 0.18969 0.0
H1251 H 0.29029 0.3939 0.23236 0.0
H1252 H 0.2761 0.44744 0.21269 0.0
H1253 H 0.24108 0.51969 0.21841 0.0
H1254 H 0.10393 0.68007 0.19656 0.0
H1255 H 0.14298 0.61943 0.2064 0.0
loop_
_geom_bond_atom_site_label_1
_geom_bond_atom_site_label_2
_geom_bond_distance
_geom_bond_site_symmetry_2
_ccdc_geom_bond_type
H0 C8 0.930 . S
H1 C11 0.930 . S
H2 C13 0.930 . S
H3 C14 0.970 . S
H4 C14 0.970 . S
H5 C16 0.930 . S
H6 C18 0.932 . S
H7 C20 0.930 . S
C8 H0 0.930 . S
C8 C9 1.382 . S
C8 C10 1.426 . S
C9 C8 1.382 . S
C9 C13 1.389 . S
C10 C8 1.426 . S
C10 C11 1.375 . S
C10 C14 1.532 1_655 S
C11 H1 0.930 . S
C11 C10 1.375 . S
C11 C12 1.416 . S
C12 C11 1.416 . S
C12 C13 1.371 . S
C13 H2 0.930 . S
C13 C9 1.389 . S
C13 C12 1.371 . S
C14 H3 0.970 . S
C14 H4 0.970 . S
C14 C10 1.532 1_455 S
C14 C15 1.499 . S
C15 C14 1.499 . S
C15 C16 1.370 . S
C15 C20 1.415 . S
C16 H5 0.930 . S
C16 C15 1.370 . S
C16 C17 1.404 1_545 S
C17 C16 1.404 1_565 S
C17 C18 1.363 1_565 S
C18 H6 0.932 . S
C18 C17 1.363 1_545 S
C18 C19 1.393 . S
C19 C18 1.393 . S
C19 C20 1.387 . S
C20 H7 0.930 . S
C20 C15 1.415 . S
C20 C19 1.387 . S
H21 C29 0.930 . S
H22 C32 0.930 . S
H23 C34 0.930 . S
H24 C35 0.970 . S
H25 C35 0.970 . S
H26 C37 0.930 . S
H27 C39 0.930 . S
H28 C41 0.930 . S
C29 H21 0.930 . S
C29 C30 1.382 . S
C29 C31 1.426 . S
C30 C29 1.382 . S
C30 C34 1.389 . S
C31 C29 1.426 . S
C31 C32 1.375 . S
C31 C35 1.532 . S
C32 H22 0.930 . S
C32 C31 1.375 . S
C32 C33 1.416 . S
C33 C32 1.416 . S
C33 C34 1.371 . S
C34 H23 0.930 . S
C34 C30 1.389 . S
C34 C33 1.371 . S
C35 H24 0.970 . S
C35 H25 0.970 . S
C35 C31 1.532 . S
C35 C36 1.499 . S
C36 C35 1.499 . S
C36 C37 1.370 . S
C36 C41 1.415 . S
C37 H26 0.930 . S
C37 C36 1.370 . S
C37 C38 1.407 . S
C38 C37 1.407 . S
C38 C39 1.365 . S
C39 H27 0.930 . S
C39 C38 1.365 . S
C39 C40 1.393 . S
C40 C39 1.393 . S
C40 C41 1.387 . S
C41 H28 0.930 . S
C41 C36 1.415 . S
C41 C40 1.387 . S
H42 C50 0.930 1_565 S
H43 C53 0.930 . S
H44 C55 0.930 . S
H45 C56 0.970 . S
H46 C56 0.970 . S
H47 C58 0.930 1_565 S
H48 C60 0.930 . S
H49 C62 0.930 . S
C50 H42 0.930 1_545 S
C50 C51 1.382 1_545 S
C50 C52 1.426 . S
C51 C50 1.382 1_565 S
C51 C55 1.389 . S
C52 C50 1.426 . S
C52 C53 1.375 . S
C52 C56 1.532 . S
C53 H43 0.930 . S
C53 C52 1.375 . S
C53 C54 1.416 . S
C54 C53 1.416 . S
C54 C55 1.371 1_545 S
C55 H44 0.930 . S
C55 C51 1.389 . S
C55 C54 1.371 1_565 S
C56 H45 0.970 . S
C56 H46 0.970 . S
C56 C52 1.532 . S
C56 C57 1.499 . S
C57 C56 1.499 . S
C57 C58 1.370 . S
C57 C62 1.415 . S
C58 H47 0.930 1_545 S
C58 C57 1.370 . S
C58 C59 1.407 1_545 S
C59 C58 1.407 1_565 S
C59 C60 1.365 . S
C60 H48 0.930 . S
C60 C59 1.365 . S
C60 C61 1.393 1_565 S
C61 C60 1.393 1_545 S
C61 C62 1.387 . S
C62 H49 0.930 . S
C62 C57 1.415 . S
C62 C61 1.387 . S
H63 C71 0.930 . S
H64 C74 0.930 . S
H65 C76 0.930 . S
H66 C77 0.970 . S
H67 C77 0.970 . S
H68 C79 0.930 . S
H69 C81 0.930 . S
H70 C83 0.930 . S
C71 H63 0.930 . S
C71 C72 1.382 . S
C71 C73 1.426 . S
C72 C71 1.382 . S
C72 C76 1.389 . S
C73 C71 1.426 . S
C73 C74 1.375 . S
C73 C77 1.532 . S
C74 H64 0.930 . S
C74 C73 1.375 . S
C74 C75 1.416 . S
C75 C74 1.416 . S
C75 C76 1.371 . S
C76 H65 0.930 . S
C76 C72 1.389 . S
C76 C75 1.371 . S
C77 H66 0.970 . S
C77 H67 0.970 . S
C77 C73 1.532 . S
C77 C78 1.499 . S
C78 C77 1.499 . S
C78 C79 1.370 . S
C78 C83 1.415 . S
C79 H68 0.930 . S
C79 C78 1.370 . S
C79 C80 1.407 . S
C80 C79 1.407 . S
C80 C81 1.365 . S
C81 H69 0.930 . S
C81 C80 1.365 . S
C81 C82 1.393 . S
C82 C81 1.393 . S
C82 C83 1.387 . S
C83 H70 0.930 . S
C83 C78 1.415 . S
C83 C82 1.387 . S
H84 C92 0.930 . S
H85 C95 0.930 . S
H86 C97 0.930 . S
H87 C98 0.970 . S
H88 C98 0.970 . S
H89 C100 0.930 . S
H90 C102 0.930 . S
H91 C104 0.930 . S
C92 H84 0.930 . S
C92 C93 1.382 . S
C92 C94 1.426 . S
C93 C92 1.382 . S
C93 C97 1.389 . S
C94 C92 1.426 . S
C94 C95 1.375 . S
C94 C98 1.532 . S
C95 H85 0.930 . S
C95 C94 1.375 . S
C95 C96 1.416 . S
C96 C95 1.416 . S
C96 C97 1.371 . S
C97 H86 0.930 . S
C97 C93 1.389 . S
C97 C96 1.371 . S
C98 H87 0.970 . S
C98 H88 0.970 . S
C98 C94 1.532 . S
C98 C99 1.499 . S
C99 C98 1.499 . S
C99 C100 1.370 . S
C99 C104 1.415 . S
C100 H89 0.930 . S
C100 C99 1.370 . S
C100 C101 1.407 . S
C101 C100 1.407 . S
C101 C102 1.365 . S
C102 H90 0.930 . S
C102 C101 1.365 . S
C102 C103 1.393 . S
C103 C102 1.393 . S
C103 C104 1.387 . S
C104 H91 0.930 . S
C104 C99 1.415 . S
C104 C103 1.387 . S
H105 C113 0.930 . S
H106 C116 0.930 . S
H107 C118 0.930 . S
H108 C119 0.970 . S
H109 C119 0.970 . S
H110 C121 0.930 . S
H111 C123 0.930 . S
H112 C125 0.930 . S
C113 H105 0.930 . S
C113 C114 1.382 . S
C113 C115 1.426 . S
C114 C113 1.382 . S
C114 C118 1.389 . S
C115 C113 1.426 . S
C115 C116 1.375 . S
C115 C119 1.532 . S
C116 H106 0.930 . S
C116 C115 1.375 . S
C116 C117 1.416 . S
C117 C116 1.416 . S
C117 C118 1.371 . S
C118 H107 0.930 . S
C118 C114 1.389 . S
C118 C117 1.371 . S
C119 H108 0.970 . S
C119 H109 0.970 . S
C119 C115 1.532 . S
C119 C120 1.499 . S
C120 C119 1.499 . S
C120 C121 1.370 . S
C120 C125 1.415 . S
C121 H110 0.930 . S
C121 C120 1.370 . S
C121 C122 1.407 . S
C122 C121 1.407 . S
C122 C123 1.365 . S
C123 H111 0.930 . S
C123 C122 1.365 . S
C123 C124 1.393 . S
C124 C123 1.393 . S
C124 C125 1.387 . S
C125 H112 0.930 . S
C125 C120 1.415 . S
C125 C124 1.387 . S
H126 C134 0.930 . S
H127 C137 0.930 . S
H128 C139 0.930 . S
H129 C140 0.970 . S
H130 C140 0.970 . S
H131 C142 0.930 . S
H132 C144 0.930 . S
H133 C146 0.930 . S
C134 H126 0.930 . S
C134 C135 1.382 . S
C134 C136 1.426 . S
C135 C134 1.382 . S
C135 C139 1.389 . S
C136 C134 1.426 . S
C136 C137 1.375 . S
C136 C140 1.532 . S
C137 H127 0.930 . S
C137 C136 1.375 . S
C137 C138 1.416 . S
C138 C137 1.416 . S
C138 C139 1.371 . S
C139 H128 0.930 . S
C139 C135 1.389 . S
C139 C138 1.371 . S
C140 H129 0.970 . S
C140 H130 0.970 . S
C140 C136 1.532 . S
C140 C141 1.499 . S
C141 C140 1.499 . S
C141 C142 1.370 . S
C141 C146 1.415 . S
C142 H131 0.930 . S
C142 C141 1.370 . S
C142 C143 1.407 . S
C143 C142 1.407 . S
C143 C144 1.365 . S
C144 H132 0.930 . S
C144 C143 1.365 . S
C144 C145 1.393 . S
C145 C144 1.393 . S
C145 C146 1.387 . S
C146 H133 0.930 . S
C146 C141 1.415 . S
C146 C145 1.387 . S
H147 C155 0.930 . S
H148 C158 0.930 . S
H149 C160 0.930 . S
H150 C161 0.971 . S
H151 C161 0.970 . S
H152 C163 0.930 . S
H153 C165 0.930 . S
H154 C167 0.930 . S
C155 H147 0.930 . S
C155 C156 1.382 . S
C155 C157 1.426 . S
C156 C155 1.382 . S
C156 C160 1.389 . S
C157 C155 1.426 . S
C157 C158 1.375 . S
C157 C161 1.532 . S
C158 H148 0.930 . S
C158 C157 1.375 . S
C158 C159 1.416 . S
C159 C158 1.416 . S
C159 C160 1.371 . S
C160 H149 0.930 . S
C160 C156 1.389 . S
C160 C159 1.371 . S
C161 H150 0.971 . S
C161 H151 0.970 . S
C161 C157 1.532 . S
C161 C162 1.499 1_455 S
C162 C161 1.499 1_655 S
C162 C163 1.370 . S
C162 C167 1.415 . S
C163 H152 0.930 . S
C163 C162 1.370 . S
C163 C164 1.407 . S
C164 C163 1.407 . S
C164 C165 1.365 . S
C165 H153 0.930 . S
C165 C164 1.365 . S
C165 C166 1.393 . S
C166 C165 1.393 . S
C166 C167 1.387 . S
C167 H154 0.930 . S
C167 C162 1.415 . S
C167 C166 1.387 . S
Fe168 O169 1.886 . S
Fe168 O172 1.715 1_455 S
Fe168 O177 2.077 . S
Fe168 O182 1.935 1_455 S
Fe168 O188 2.077 . S
Fe168 O197 1.935 1_455 S
O169 Fe168 1.886 . S
O169 Fe171 1.715 . S
Fe170 O172 1.886 . S
Fe170 O173 1.715 . S
Fe170 O180 1.935 . S
Fe170 O181 2.077 . S
Fe170 O187 1.935 . S
Fe170 O196 2.077 . S
Fe171 O169 1.715 . S
Fe171 O174 1.886 . S
Fe171 O178 1.935 . S
Fe171 O183 2.077 . S
Fe171 O189 1.935 . S
Fe171 O193 2.077 . S
O172 Fe168 1.715 1_655 S
O172 Fe170 1.886 . S
O173 Fe170 1.715 . S
O173 Fe175 1.878 1_655 S
O174 Fe171 1.886 . S
O174 Fe175 1.723 . S
Fe175 O173 1.878 1_455 S
Fe175 O174 1.723 . S
Fe175 O179 2.071 1_455 S
Fe175 O184 1.941 . S
Fe175 O186 2.071 1_455 S
Fe175 O194 1.941 . S
C176 O188 1.381 . S
C176 O189 1.421 . S
O177 Fe168 2.077 . S
O177 C190 1.381 . S
O178 Fe171 1.935 . S
O178 C190 1.421 . S
O179 Fe175 2.071 1_655 S
O179 C195 1.381 . S
O180 Fe170 1.935 . S
O180 C195 1.421 . S
O181 Fe170 2.077 . S
O181 C185 1.381 . S
O182 Fe168 1.935 1_655 S
O182 C185 1.421 . S
O183 Fe171 2.077 . S
O183 C191 1.381 . S
O184 Fe175 1.941 . S
O184 C191 1.421 . S
C185 O181 1.381 . S
C185 O182 1.421 . S
O186 Fe175 2.071 1_655 S
O186 C198 1.381 . S
O187 Fe170 1.935 . S
O187 C198 1.421 . S
O188 Fe168 2.077 . S
O188 C176 1.381 . S
O189 Fe171 1.935 . S
O189 C176 1.421 . S
C190 O177 1.381 . S
C190 O178 1.421 . S
C191 O183 1.381 . S
C191 O184 1.421 . S
C192 O193 1.381 . S
C192 O194 1.421 . S
O193 Fe171 2.077 . S
O193 C192 1.381 . S
O194 Fe175 1.941 . S
O194 C192 1.421 . S
C195 O179 1.381 . S
C195 O180 1.421 . S
O196 Fe170 2.077 . S
O196 C199 1.381 . S
O197 Fe168 1.935 1_655 S
O197 C199 1.421 . S
C198 O186 1.381 . S
C198 O187 1.421 . S
C199 O196 1.381 . S
C199 O197 1.421 . S
Fe200 O201 1.886 . S
Fe200 O204 1.715 . S
Fe200 O209 2.077 . S
Fe200 O214 1.935 . S
Fe200 O220 2.077 . S
Fe200 O229 1.935 . S
O201 Fe200 1.886 . S
O201 Fe203 1.715 . S
Fe202 O204 1.886 . S
Fe202 O205 1.715 . S
Fe202 O212 1.935 . S
Fe202 O213 2.077 . S
Fe202 O219 1.935 . S
Fe202 O228 2.077 . S
Fe203 O201 1.715 . S
Fe203 O206 1.886 . S
Fe203 O210 1.935 . S
Fe203 O215 2.077 . S
Fe203 O221 1.935 . S
Fe203 O225 2.077 . S
O204 Fe200 1.715 . S
O204 Fe202 1.886 . S
O205 Fe202 1.715 . S
O205 Fe207 1.886 . S
O206 Fe203 1.886 . S
O206 Fe207 1.715 . S
Fe207 O205 1.886 . S
Fe207 O206 1.715 . S
Fe207 O211 2.077 . S
Fe207 O216 1.935 . S
Fe207 O218 2.077 . S
Fe207 O226 1.935 . S
C208 O220 1.381 . S
C208 O221 1.421 . S
O209 Fe200 2.077 . S
O209 C222 1.381 . S
O210 Fe203 1.935 . S
O210 C222 1.421 . S
O211 Fe207 2.077 . S
O211 C227 1.381 . S
O212 Fe202 1.935 . S
O212 C227 1.421 . S
O213 Fe202 2.077 . S
O213 C217 1.381 . S
O214 Fe200 1.935 . S
O214 C217 1.421 . S
O215 Fe203 2.077 . S
O215 C223 1.381 . S
O216 Fe207 1.935 . S
O216 C223 1.421 . S
C217 O213 1.381 . S
C217 O214 1.421 . S
O218 Fe207 2.077 . S
O218 C230 1.381 . S
O219 Fe202 1.935 . S
O219 C230 1.421 . S
O220 Fe200 2.077 . S
O220 C208 1.381 . S
O221 Fe203 1.935 . S
O221 C208 1.421 . S
C222 O209 1.381 . S
C222 O210 1.421 . S
C223 O215 1.381 . S
C223 O216 1.421 . S
C224 O225 1.381 . S
C224 O226 1.421 . S
O225 Fe203 2.077 . S
O225 C224 1.381 . S
O226 Fe207 1.935 . S
O226 C224 1.421 . S
C227 O211 1.381 . S
C227 O212 1.421 . S
O228 Fe202 2.077 . S
O228 C231 1.381 . S
O229 Fe200 1.935 . S
O229 C231 1.421 . S
C230 O218 1.381 . S
C230 O219 1.421 . S
C231 O228 1.381 . S
C231 O229 1.421 . S
Fe232 O233 1.886 . S
Fe232 O236 1.715 . S
Fe232 O241 2.077 . S
Fe232 O246 1.935 . S
Fe232 O252 2.077 . S
Fe232 O261 1.935 . S
O233 Fe232 1.886 . S
O233 Fe235 1.715 . S
Fe234 O236 1.886 . S
Fe234 O237 1.715 . S
Fe234 O244 1.935 . S
Fe234 O245 2.077 . S
Fe234 O251 1.935 . S
Fe234 O260 2.077 . S
Fe235 O233 1.715 . S
Fe235 O238 1.886 . S
Fe235 O242 1.935 . S
Fe235 O247 2.077 . S
Fe235 O253 1.935 . S
Fe235 O257 2.077 . S
O236 Fe232 1.715 . S
O236 Fe234 1.886 . S
O237 Fe234 1.715 . S
O237 Fe239 1.886 . S
O238 Fe235 1.886 . S
O238 Fe239 1.715 . S
Fe239 O237 1.886 . S
Fe239 O238 1.715 . S
Fe239 O243 2.077 . S
Fe239 O248 1.935 . S
Fe239 O250 2.077 . S
Fe239 O258 1.935 . S
C240 O252 1.381 . S
C240 O253 1.421 . S
O241 Fe232 2.077 . S
O241 C254 1.381 . S
O242 Fe235 1.935 . S
O242 C254 1.421 . S
O243 Fe239 2.077 . S
O243 C259 1.381 . S
O244 Fe234 1.935 . S
O244 C259 1.421 . S
O245 Fe234 2.077 . S
O245 C249 1.381 . S
O246 Fe232 1.935 . S
O246 C249 1.421 . S
O247 Fe235 2.077 . S
O247 C255 1.381 . S
O248 Fe239 1.935 . S
O248 C255 1.421 . S
C249 O245 1.381 . S
C249 O246 1.421 . S
O250 Fe239 2.077 . S
O250 C262 1.381 . S
O251 Fe234 1.935 . S
O251 C262 1.421 . S
O252 Fe232 2.077 . S
O252 C240 1.381 . S
O253 Fe235 1.935 . S
O253 C240 1.421 . S
C254 O241 1.381 . S
C254 O242 1.421 . S
C255 O247 1.381 . S
C255 O248 1.421 . S
C256 O257 1.381 . S
C256 O258 1.421 . S
O257 Fe235 2.077 . S
O257 C256 1.381 . S
O258 Fe239 1.935 . S
O258 C256 1.421 . S
C259 O243 1.381 . S
C259 O244 1.421 . S
O260 Fe234 2.077 . S
O260 C263 1.381 . S
O261 Fe232 1.935 . S
O261 C263 1.421 . S
C262 O250 1.381 . S
C262 O251 1.421 . S
C263 O260 1.381 . S
C263 O261 1.421 . S
Fe264 O265 1.886 . S
Fe264 O268 1.715 . S
Fe264 O273 2.077 1_455 S
Fe264 O278 1.935 1_455 S
Fe264 O284 2.077 . S
Fe264 O293 1.935 . S
O265 Fe264 1.886 . S
O265 Fe267 1.715 . S
Fe266 O268 1.886 . S
Fe266 O269 1.715 . S
Fe266 O276 1.935 1_455 S
Fe266 O277 2.077 1_455 S
Fe266 O283 1.935 . S
Fe266 O292 2.077 . S
Fe267 O265 1.715 . S
Fe267 O270 1.886 . S
Fe267 O274 1.935 1_455 S
Fe267 O279 2.077 1_455 S
Fe267 O285 1.935 . S
Fe267 O289 2.077 . S
O268 Fe264 1.715 . S
O268 Fe266 1.886 . S
O269 Fe266 1.715 . S
O269 Fe271 1.886 . S
O270 Fe267 1.886 . S
O270 Fe271 1.715 . S
Fe271 O269 1.886 . S
Fe271 O270 1.715 . S
Fe271 O275 2.077 1_455 S
Fe271 O280 1.935 1_455 S
Fe271 O282 2.077 . S
Fe271 O290 1.935 . S
C272 O284 1.381 . S
C272 O285 1.421 . S
O273 Fe264 2.077 1_655 S
O273 C286 1.381 . S
O274 Fe267 1.935 1_655 S
O274 C286 1.421 . S
O275 Fe271 2.077 1_655 S
O275 C291 1.381 . S
O276 Fe266 1.935 1_655 S
O276 C291 1.421 . S
O277 Fe266 2.077 1_655 S
O277 C281 1.381 . S
O278 Fe264 1.935 1_655 S
O278 C281 1.421 . S
O279 Fe267 2.077 1_655 S
O279 C287 1.381 . S
O280 Fe271 1.935 1_655 S
O280 C287 1.421 . S
C281 O277 1.381 . S
C281 O278 1.421 . S
O282 Fe271 2.077 . S
O282 C294 1.381 . S
O283 Fe266 1.935 . S
O283 C294 1.421 . S
O284 Fe264 2.077 . S
O284 C272 1.381 . S
O285 Fe267 1.935 . S
O285 C272 1.421 . S
C286 O273 1.381 . S
C286 O274 1.421 . S
C287 O279 1.381 . S
C287 O280 1.421 . S
C288 O289 1.381 . S
C288 O290 1.421 . S
O289 Fe267 2.077 . S
O289 C288 1.381 . S
O290 Fe271 1.935 . S
O290 C288 1.421 . S
C291 O275 1.381 . S
C291 O276 1.421 . S
O292 Fe266 2.077 . S
O292 C295 1.381 . S
O293 Fe264 1.935 . S
O293 C295 1.421 . S
C294 O282 1.381 . S
C294 O283 1.421 . S
C295 O292 1.381 . S
C295 O293 1.421 . S
C296 C297 1.353 . S
C296 C298 1.329 . S
C296 H321 0.943 1_565 S
C297 C296 1.353 . S
C297 C313 1.349 . S
C298 C296 1.329 . S
C298 C317 1.429 . S
C298 H322 0.950 1_565 S
C299 C316 1.574 . S
C299 C318 1.368 . S
C299 H323 0.949 . S
H300 C304 0.949 . S
C301 C302 1.349 . S
C301 C303 1.327 . S
C301 H324 0.950 . S
C302 C301 1.349 . S
C302 C314 1.349 . S
C303 C301 1.327 . S
C303 C319 1.429 . S
C303 H325 0.950 . S
C304 H300 0.949 . S
C304 C312 1.574 . S
C304 C320 1.368 . S
H305 C313 0.950 . S
H306 C311 0.950 . S
H307 C312 0.949 . S
H308 C314 0.950 . S
H309 C315 0.950 . S
H310 C316 0.949 . S
C311 H306 0.950 . S
C311 C313 1.327 . S
C311 C317 1.429 . S
C312 C304 1.574 . S
C312 H307 0.949 . S
C312 C318 1.368 . S
C313 C297 1.349 . S
C313 H305 0.950 . S
C313 C311 1.327 . S
C314 C302 1.349 . S
C314 H308 0.950 . S
C314 C315 1.327 . S
C315 H309 0.950 . S
C315 C314 1.327 . S
C315 C319 1.429 . S
C316 C299 1.574 . S
C316 H310 0.949 . S
C316 C320 1.368 . S
C317 C298 1.429 . S
C317 C311 1.429 . S
C317 C318 1.523 . S
C318 C299 1.368 . S
C318 C312 1.368 . S
C318 C317 1.523 . S
C319 C303 1.429 . S
C319 C315 1.429 . S
C319 C320 1.523 . S
C320 C304 1.368 . S
C320 C316 1.368 . S
C320 C319 1.523 . S
H321 C296 0.943 1_545 S
H322 C298 0.950 1_545 S
H323 C299 0.949 . S
H324 C301 0.950 . S
H325 C303 0.950 . S
C326 C327 1.349 . S
C326 C328 1.327 . S
C326 H351 0.950 . S
C327 C326 1.349 . S
C327 C343 1.349 . S
C328 C326 1.327 . S
C328 C347 1.429 . S
C328 H352 0.950 . S
C329 C346 1.574 1_565 S
C329 C348 1.368 . S
C329 H353 0.949 . S
H330 C334 0.949 . S
C331 C332 1.349 . S
C331 C333 1.327 . S
C331 H354 0.950 . S
C332 C331 1.349 . S
C332 C344 1.349 . S
C333 C331 1.327 . S
C333 C349 1.429 . S
C333 H355 0.950 . S
C334 H330 0.949 . S
C334 C342 1.574 . S
C334 C350 1.368 . S
H335 C343 0.950 . S
H336 C341 0.950 . S
H337 C342 0.949 . S
H338 C344 0.950 . S
H339 C345 0.950 . S
H340 C346 0.949 . S
C341 H336 0.950 . S
C341 C343 1.327 . S
C341 C347 1.429 . S
C342 C334 1.574 . S
C342 H337 0.949 . S
C342 C348 1.368 1_545 S
C343 C327 1.349 . S
C343 H335 0.950 . S
C343 C341 1.327 . S
C344 C332 1.349 . S
C344 H338 0.950 . S
C344 C345 1.327 . S
C345 H339 0.950 . S
C345 C344 1.327 . S
C345 C349 1.429 . S
C346 C329 1.574 1_545 S
C346 H340 0.949 . S
C346 C350 1.368 . S
C347 C328 1.429 . S
C347 C341 1.429 . S
C347 C348 1.523 . S
C348 C329 1.368 . S
C348 C342 1.368 1_565 S
C348 C347 1.523 . S
C349 C333 1.429 . S
C349 C345 1.429 . S
C349 C350 1.523 . S
C350 C334 1.368 . S
C350 C346 1.368 . S
C350 C349 1.523 . S
H351 C326 0.950 . S
H352 C328 0.950 . S
H353 C329 0.949 . S
H354 C331 0.950 . S
H355 C333 0.950 . S
C356 C357 1.349 . S
C356 C358 1.327 . S
C356 H381 0.950 1_556 S
C357 C356 1.349 . S
C357 C373 1.349 . S
C358 C356 1.327 . S
C358 C377 1.429 . S
C358 H382 0.950 . S
C359 C376 1.574 . S
C359 C378 1.368 . S
C359 H383 0.949 . S
H360 C364 0.949 . S
C361 C362 1.349 . S
C361 C363 1.327 . S
C361 H384 0.950 . S
C362 C361 1.349 . S
C362 C374 1.349 . S
C363 C361 1.327 . S
C363 C379 1.429 . S
C363 H385 0.950 . S
C364 H360 0.949 . S
C364 C372 1.574 . S
C364 C380 1.368 . S
H365 C373 0.950 . S
H366 C371 0.950 . S
H367 C372 0.949 . S
H368 C374 0.950 . S
H369 C375 0.950 . S
H370 C376 0.949 . S
C371 H366 0.950 . S
C371 C373 1.327 . S
C371 C377 1.429 . S
C372 C364 1.574 . S
C372 H367 0.949 . S
C372 C378 1.368 . S
C373 C357 1.349 . S
C373 H365 0.950 . S
C373 C371 1.327 . S
C374 C362 1.349 . S
C374 H368 0.950 . S
C374 C375 1.327 . S
C375 H369 0.950 . S
C375 C374 1.327 . S
C375 C379 1.429 . S
C376 C359 1.574 . S
C376 H370 0.949 . S
C376 C380 1.368 . S
C377 C358 1.429 . S
C377 C371 1.429 . S
C377 C378 1.523 . S
C378 C359 1.368 . S
C378 C372 1.368 . S
C378 C377 1.523 . S
C379 C363 1.429 . S
C379 C375 1.429 . S
C379 C380 1.523 . S
C380 C364 1.368 . S
C380 C376 1.368 . S
C380 C379 1.523 . S
H381 C356 0.950 1_554 S
H382 C358 0.950 . S
H383 C359 0.949 . S
H384 C361 0.950 . S
H385 C363 0.950 . S
C386 C387 1.349 . S
C386 C388 1.327 . S
C386 H411 0.950 . S
C387 C386 1.349 . S
C387 C403 1.349 . S
C388 C386 1.327 . S
C388 C407 1.429 . S
C388 H412 0.950 . S
C389 C406 1.574 1_545 S
C389 C408 1.368 . S
C389 H413 0.949 . S
H390 C394 0.949 . S
C391 C392 1.349 . S
C391 C393 1.327 . S
C391 H414 0.950 . S
C392 C391 1.349 . S
C392 C404 1.349 . S
C393 C391 1.327 . S
C393 C409 1.429 . S
C393 H415 0.950 . S
C394 H390 0.949 . S
C394 C402 1.574 1_565 S
C394 C410 1.368 . S
H395 C403 0.950 . S
H396 C401 0.950 . S
H397 C402 0.949 . S
H398 C404 0.950 . S
H399 C405 0.950 . S
H400 C406 0.949 . S
C401 H396 0.950 . S
C401 C403 1.327 . S
C401 C407 1.429 . S
C402 C394 1.574 1_545 S
C402 H397 0.949 . S
C402 C408 1.368 . S
C403 C387 1.349 . S
C403 H395 0.950 . S
C403 C401 1.327 . S
C404 C392 1.349 . S
C404 H398 0.950 . S
C404 C405 1.327 . S
C405 H399 0.950 . S
C405 C404 1.327 . S
C405 C409 1.429 . S
C406 C389 1.574 1_565 S
C406 H400 0.949 . S
C406 C410 1.368 . S
C407 C388 1.429 . S
C407 C401 1.429 . S
C407 C408 1.523 . S
C408 C389 1.368 . S
C408 C402 1.368 . S
C408 C407 1.523 . S
C409 C393 1.429 . S
C409 C405 1.429 . S
C409 C410 1.523 . S
C410 C394 1.368 . S
C410 C406 1.368 . S
C410 C409 1.523 . S
H411 C386 0.950 . S
H412 C388 0.950 . S
H413 C389 0.949 . S
H414 C391 0.950 . S
H415 C393 0.950 . S
C416 C417 1.349 . S
C416 C418 1.327 . S
C416 H441 0.950 . S
C417 C416 1.349 . S
C417 C433 1.349 . S
C418 C416 1.327 . S
C418 C437 1.429 . S
C418 H442 0.950 . S
C419 C436 1.574 . S
C419 C438 1.368 . S
C419 H443 0.949 . S
H420 C424 0.949 . S
C421 C422 1.349 . S
C421 C423 1.327 . S
C421 H444 0.950 . S
C422 C421 1.349 . S
C422 C434 1.349 . S
C423 C421 1.327 . S
C423 C439 1.429 . S
C423 H445 0.950 . S
C424 H420 0.949 . S
C424 C432 1.574 . S
C424 C440 1.368 . S
H425 C433 0.950 . S
H426 C431 0.950 . S
H427 C432 0.949 . S
H428 C434 0.950 . S
H429 C435 0.950 . S
H430 C436 0.949 . S
C431 H426 0.950 . S
C431 C433 1.327 . S
C431 C437 1.429 . S
C432 C424 1.574 . S
C432 H427 0.949 . S
C432 C438 1.368 . S
C433 C417 1.349 . S
C433 H425 0.950 . S
C433 C431 1.327 . S
C434 C422 1.349 . S
C434 H428 0.950 . S
C434 C435 1.327 . S
C435 H429 0.950 . S
C435 C434 1.327 . S
C435 C439 1.429 . S
C436 C419 1.574 . S
C436 H430 0.949 . S
C436 C440 1.368 . S
C437 C418 1.429 . S
C437 C431 1.429 . S
C437 C438 1.523 . S
C438 C419 1.368 . S
C438 C432 1.368 . S
C438 C437 1.523 . S
C439 C423 1.429 . S
C439 C435 1.429 . S
C439 C440 1.523 . S
C440 C424 1.368 . S
C440 C436 1.368 . S
C440 C439 1.523 . S
H441 C416 0.950 . S
H442 C418 0.950 . S
H443 C419 0.949 . S
H444 C421 0.950 . S
H445 C423 0.950 . S
C446 C447 1.349 . S
C446 C448 1.327 . S
C446 H471 0.950 . S
C447 C446 1.349 . S
C447 C463 1.349 . S
C448 C446 1.327 . S
C448 C467 1.429 . S
C448 H472 0.950 . S
C449 C466 1.574 1_565 S
C449 C468 1.368 . S
C449 H473 0.949 . S
H450 C454 0.949 . S
C451 C452 1.349 . S
C451 C453 1.327 . S
C451 H474 0.950 . S
C452 C451 1.349 . S
C452 C464 1.349 . S
C453 C451 1.327 . S
C453 C469 1.429 . S
C453 H475 0.950 . S
C454 H450 0.949 . S
C454 C462 1.574 . S
C454 C470 1.368 . S
H455 C463 0.950 . S
H456 C461 0.950 . S
H457 C462 0.949 . S
H458 C464 0.950 . S
H459 C465 0.950 . S
H460 C466 0.949 . S
C461 H456 0.950 . S
C461 C463 1.327 . S
C461 C467 1.429 . S
C462 C454 1.574 . S
C462 H457 0.949 . S
C462 C468 1.368 1_545 S
C463 C447 1.349 . S
C463 H455 0.950 . S
C463 C461 1.327 . S
C464 C452 1.349 . S
C464 H458 0.950 . S
C464 C465 1.327 . S
C465 H459 0.950 . S
C465 C464 1.327 . S
C465 C469 1.429 . S
C466 C449 1.574 1_545 S
C466 H460 0.949 . S
C466 C470 1.368 . S
C467 C448 1.429 . S
C467 C461 1.429 . S
C467 C468 1.523 . S
C468 C449 1.368 . S
C468 C462 1.368 1_565 S
C468 C467 1.523 . S
C469 C453 1.429 . S
C469 C465 1.429 . S
C469 C470 1.523 . S
C470 C454 1.368 . S
C470 C466 1.368 . S
C470 C469 1.523 . S
H471 C446 0.950 . S
H472 C448 0.950 . S
H473 C449 0.949 . S
H474 C451 0.950 . S
H475 C453 0.950 . S
C476 C477 1.349 . S
C476 C478 1.327 . S
C476 H501 0.950 . S
C477 C476 1.349 . S
C477 C493 1.349 . S
C478 C476 1.327 . S
C478 C497 1.429 . S
C478 H502 0.950 . S
C479 C496 1.574 . S
C479 C498 1.368 . S
C479 H503 0.949 . S
H480 C484 0.949 . S
C481 C482 1.349 . S
C481 C483 1.327 . S
C481 H504 0.950 . S
C482 C481 1.349 . S
C482 C494 1.349 . S
C483 C481 1.327 . S
C483 C499 1.429 . S
C483 H505 0.950 . S
C484 H480 0.949 . S
C484 C492 1.574 . S
C484 C500 1.368 . S
H485 C493 0.950 1_545 S
H486 C491 0.950 . S
H487 C492 0.949 . S
H488 C494 0.950 . S
H489 C495 0.950 . S
H490 C496 0.949 . S
C491 H486 0.950 . S
C491 C493 1.327 . S
C491 C497 1.429 . S
C492 C484 1.574 . S
C492 H487 0.949 . S
C492 C498 1.368 . S
C493 C477 1.349 . S
C493 H485 0.950 1_565 S
C493 C491 1.327 . S
C494 C482 1.349 . S
C494 H488 0.950 . S
C494 C495 1.327 . S
C495 H489 0.950 . S
C495 C494 1.327 . S
C495 C499 1.429 . S
C496 C479 1.574 . S
C496 H490 0.949 . S
C496 C500 1.368 . S
C497 C478 1.429 . S
C497 C491 1.429 . S
C497 C498 1.523 . S
C498 C479 1.368 . S
C498 C492 1.368 . S
C498 C497 1.523 . S
C499 C483 1.429 . S
C499 C495 1.429 . S
C499 C500 1.523 . S
C500 C484 1.368 . S
C500 C496 1.368 . S
C500 C499 1.523 . S
H501 C476 0.950 . S
H502 C478 0.950 . S
H503 C479 0.949 . S
H504 C481 0.950 . S
H505 C483 0.950 . S
C506 C507 1.349 . S
C506 C508 1.327 . S
C506 H531 0.950 . S
C507 C506 1.349 . S
C507 C523 1.349 . S
C508 C506 1.327 . S
C508 C527 1.429 . S
C508 H532 0.950 . S
C509 C526 1.574 1_545 S
C509 C528 1.368 . S
C509 H533 0.949 . S
H510 C514 0.949 . S
C511 C512 1.349 . S
C511 C513 1.327 . S
C511 H534 0.950 . S
C512 C511 1.349 . S
C512 C524 1.349 . S
C513 C511 1.327 . S
C513 C529 1.429 . S
C513 H535 0.950 . S
C514 H510 0.949 . S
C514 C522 1.574 1_565 S
C514 C530 1.368 . S
H515 C523 0.950 . S
H516 C521 0.950 . S
H517 C522 0.949 . S
H518 C524 0.950 . S
H519 C525 0.950 . S
H520 C526 0.949 . S
C521 H516 0.950 . S
C521 C523 1.327 . S
C521 C527 1.429 . S
C522 C514 1.574 1_545 S
C522 H517 0.949 . S
C522 C528 1.368 . S
C523 C507 1.349 . S
C523 H515 0.950 . S
C523 C521 1.327 . S
C524 C512 1.349 . S
C524 H518 0.950 . S
C524 C525 1.327 . S
C525 H519 0.950 . S
C525 C524 1.327 . S
C525 C529 1.429 . S
C526 C509 1.574 1_565 S
C526 H520 0.949 . S
C526 C530 1.368 . S
C527 C508 1.429 . S
C527 C521 1.429 . S
C527 C528 1.523 . S
C528 C509 1.368 . S
C528 C522 1.368 . S
C528 C527 1.523 . S
C529 C513 1.429 . S
C529 C525 1.429 . S
C529 C530 1.523 . S
C530 C514 1.368 . S
C530 C526 1.368 . S
C530 C529 1.523 . S
H531 C506 0.950 . S
H532 C508 0.950 . S
H533 C509 0.949 . S
H534 C511 0.950 . S
H535 C513 0.950 . S
C536 C537 1.349 . S
C536 C538 1.327 . S
C536 H561 0.950 . S
C537 C536 1.349 . S
C537 C553 1.349 . S
C538 C536 1.327 . S
C538 C557 1.429 . S
C538 H562 0.950 . S
C539 C556 1.574 . S
C539 C558 1.368 . S
C539 H563 0.949 . S
H540 C544 0.949 . S
C541 C542 1.349 . S
C541 C543 1.327 . S
C541 H564 0.950 . S
C542 C541 1.349 . S
C542 C554 1.349 . S
C543 C541 1.327 . S
C543 C559 1.429 . S
C543 H565 0.950 . S
C544 H540 0.949 . S
C544 C552 1.574 . S
C544 C560 1.368 . S
H545 C553 0.950 . S
H546 C551 0.950 . S
H547 C552 0.949 . S
H548 C554 0.950 . S
H549 C555 0.950 . S
H550 C556 0.949 . S
C551 H546 0.950 . S
C551 C553 1.327 . S
C551 C557 1.429 . S
C552 C544 1.574 . S
C552 H547 0.949 . S
C552 C558 1.368 . S
C553 C537 1.349 . S
C553 H545 0.950 . S
C553 C551 1.327 . S
C554 C542 1.349 . S
C554 H548 0.950 . S
C554 C555 1.327 . S
C555 H549 0.950 . S
C555 C554 1.327 . S
C555 C559 1.429 . S
C556 C539 1.574 . S
C556 H550 0.949 . S
C556 C560 1.368 . S
C557 C538 1.429 . S
C557 C551 1.429 . S
C557 C558 1.523 . S
C558 C539 1.368 . S
C558 C552 1.368 . S
C558 C557 1.523 . S
C559 C543 1.429 . S
C559 C555 1.429 . S
C559 C560 1.523 . S
C560 C544 1.368 . S
C560 C556 1.368 . S
C560 C559 1.523 . S
H561 C536 0.950 . S
H562 C538 0.950 . S
H563 C539 0.949 . S
H564 C541 0.950 . S
H565 C543 0.950 . S
C566 C567 1.349 . S
C566 C568 1.327 . S
C566 H591 0.950 . S
C567 C566 1.349 . S
C567 C583 1.349 . S
C568 C566 1.327 . S
C568 C587 1.429 . S
C568 H592 0.950 . S
C569 C586 1.574 . S
C569 C588 1.368 . S
C569 H593 0.949 . S
H570 C574 0.949 . S
C571 C572 1.349 . S
C571 C573 1.327 . S
C571 H594 0.950 . S
C572 C571 1.349 . S
C572 C584 1.349 . S
C573 C571 1.327 . S
C573 C589 1.429 . S
C573 H595 0.950 . S
C574 H570 0.949 . S
C574 C582 1.574 . S
C574 C590 1.368 . S
H575 C583 0.950 . S
H576 C581 0.950 . S
H577 C582 0.949 . S
H578 C584 0.950 . S
H579 C585 0.950 . S
H580 C586 0.949 . S
C581 H576 0.950 . S
C581 C583 1.327 . S
C581 C587 1.429 . S
C582 C574 1.574 . S
C582 H577 0.949 . S
C582 C588 1.368 1_565 S
C583 C567 1.349 . S
C583 H575 0.950 . S
C583 C581 1.327 . S
C584 C572 1.349 . S
C584 H578 0.950 . S
C584 C585 1.327 . S
C585 H579 0.950 . S
C585 C584 1.327 . S
C585 C589 1.429 . S
C586 C569 1.574 . S
C586 H580 0.949 . S
C586 C590 1.368 1_545 S
C587 C568 1.429 . S
C587 C581 1.429 . S
C587 C588 1.523 . S
C588 C569 1.368 . S
C588 C582 1.368 1_545 S
C588 C587 1.523 . S
C589 C573 1.429 . S
C589 C585 1.429 . S
C589 C590 1.523 . S
C590 C574 1.368 . S
C590 C586 1.368 1_565 S
C590 C589 1.523 . S
H591 C566 0.950 . S
H592 C568 0.950 . S
H593 C569 0.949 . S
H594 C571 0.950 . S
H595 C573 0.950 . S
C596 C597 1.349 . S
C596 C598 1.327 . S
C596 H621 0.950 . S
C597 C596 1.349 . S
C597 C613 1.349 . S
C598 C596 1.327 . S
C598 C617 1.429 . S
C598 H622 0.950 . S
C599 C616 1.574 . S
C599 C618 1.368 . S
C599 H623 0.949 . S
H600 C604 0.949 . S
C601 C602 1.349 . S
C601 C603 1.327 . S
C601 H624 0.950 . S
C602 C601 1.349 . S
C602 C614 1.349 . S
C603 C601 1.327 . S
C603 C619 1.429 . S
C603 H625 0.950 . S
C604 H600 0.949 . S
C604 C612 1.574 . S
C604 C620 1.368 . S
H605 C613 0.950 . S
H606 C611 0.950 . S
H607 C612 0.949 . S
H608 C614 0.950 . S
H609 C615 0.950 . S
H610 C616 0.949 . S
C611 H606 0.950 . S
C611 C613 1.327 . S
C611 C617 1.429 . S
C612 C604 1.574 . S
C612 H607 0.949 . S
C612 C618 1.368 . S
C613 C597 1.349 . S
C613 H605 0.950 . S
C613 C611 1.327 . S
C614 C602 1.349 . S
C614 H608 0.950 . S
C614 C615 1.327 . S
C615 H609 0.950 . S
C615 C614 1.327 . S
C615 C619 1.429 . S
C616 C599 1.574 . S
C616 H610 0.949 . S
C616 C620 1.368 . S
C617 C598 1.429 . S
C617 C611 1.429 . S
C617 C618 1.523 . S
C618 C599 1.368 . S
C618 C612 1.368 . S
C618 C617 1.523 . S
C619 C603 1.429 . S
C619 C615 1.429 . S
C619 C620 1.523 . S
C620 C604 1.368 . S
C620 C616 1.368 . S
C620 C619 1.523 . S
H621 C596 0.950 . S
H622 C598 0.950 . S
H623 C599 0.949 . S
H624 C601 0.950 . S
H625 C603 0.950 . S
C626 C627 1.349 . S
C626 C628 1.327 . S
C626 H651 0.950 . S
C627 C626 1.349 . S
C627 C643 1.349 . S
C628 C626 1.327 . S
C628 C647 1.429 . S
C628 H652 0.950 . S
C629 C646 1.574 1_565 S
C629 C648 1.368 . S
C629 H653 0.949 . S
H630 C634 0.949 . S
C631 C632 1.349 . S
C631 C633 1.327 . S
C631 H654 0.950 . S
C632 C631 1.349 . S
C632 C644 1.349 . S
C633 C631 1.327 . S
C633 C649 1.429 . S
C633 H655 0.950 . S
C634 H630 0.949 . S
C634 C642 1.574 . S
C634 C650 1.368 . S
H635 C643 0.950 . S
H636 C641 0.950 . S
H637 C642 0.949 . S
H638 C644 0.950 . S
H639 C645 0.950 . S
H640 C646 0.949 . S
C641 H636 0.950 . S
C641 C643 1.327 . S
C641 C647 1.429 . S
C642 C634 1.574 . S
C642 H637 0.949 . S
C642 C648 1.368 1_545 S
C643 C627 1.349 . S
C643 H635 0.950 . S
C643 C641 1.327 . S
C644 C632 1.349 . S
C644 H638 0.950 . S
C644 C645 1.327 . S
C645 H639 0.950 . S
C645 C644 1.327 . S
C645 C649 1.429 . S
C646 C629 1.574 1_545 S
C646 H640 0.949 . S
C646 C650 1.368 . S
C647 C628 1.429 . S
C647 C641 1.429 . S
C647 C648 1.523 . S
C648 C629 1.368 . S
C648 C642 1.368 1_565 S
C648 C647 1.523 . S
C649 C633 1.429 . S
C649 C645 1.429 . S
C649 C650 1.523 . S
C650 C634 1.368 . S
C650 C646 1.368 . S
C650 C649 1.523 . S
H651 C626 0.950 . S
H652 C628 0.950 . S
H653 C629 0.949 . S
H654 C631 0.950 . S
H655 C633 0.950 . S
C656 C657 1.349 . S
C656 C658 1.327 . S
C656 H681 0.950 . S
C657 C656 1.349 . S
C657 C673 1.349 . S
C658 C656 1.327 . S
C658 C677 1.429 . S
C658 H682 0.950 . S
C659 C676 1.574 . S
C659 C678 1.368 . S
C659 H683 0.949 . S
H660 C664 0.949 . S
C661 C662 1.349 . S
C661 C663 1.327 . S
C661 H684 0.950 . S
C662 C661 1.349 . S
C662 C674 1.349 . S
C663 C661 1.327 . S
C663 C679 1.429 . S
C663 H685 0.950 . S
C664 H660 0.949 . S
C664 C672 1.574 . S
C664 C680 1.368 . S
H665 C673 0.950 1_545 S
H666 C671 0.950 . S
H667 C672 0.949 . S
H668 C674 0.950 . S
H669 C675 0.950 . S
H670 C676 0.949 . S
C671 H666 0.950 . S
C671 C673 1.327 . S
C671 C677 1.429 . S
C672 C664 1.574 . S
C672 H667 0.949 . S
C672 C678 1.368 . S
C673 C657 1.349 . S
C673 H665 0.950 1_565 S
C673 C671 1.327 . S
C674 C662 1.349 . S
C674 H668 0.950 . S
C674 C675 1.327 . S
C675 H669 0.950 . S
C675 C674 1.327 . S
C675 C679 1.429 . S
C676 C659 1.574 . S
C676 H670 0.949 . S
C676 C680 1.368 . S
C677 C658 1.429 . S
C677 C671 1.429 . S
C677 C678 1.523 . S
C678 C659 1.368 . S
C678 C672 1.368 . S
C678 C677 1.523 . S
C679 C663 1.429 . S
C679 C675 1.429 . S
C679 C680 1.523 . S
C680 C664 1.368 . S
C680 C676 1.368 . S
C680 C679 1.523 . S
H681 C656 0.950 . S
H682 C658 0.950 . S
H683 C659 0.949 . S
H684 C661 0.950 . S
H685 C663 0.950 . S
C686 C687 1.349 . S
C686 C688 1.327 . S
C686 H711 0.950 . S
C687 C686 1.349 . S
C687 C703 1.349 . S
C688 C686 1.327 . S
C688 C707 1.429 . S
C688 H712 0.950 . S
C689 C706 1.574 . S
C689 C708 1.368 1_565 S
C689 H713 0.949 . S
H690 C694 0.949 . S
C691 C692 1.349 . S
C691 C693 1.327 . S
C691 H714 0.950 . S
C692 C691 1.349 . S
C692 C704 1.349 . S
C693 C691 1.327 . S
C693 C709 1.429 . S
C693 H715 0.950 . S
C694 H690 0.949 . S
C694 C702 1.574 . S
C694 C710 1.368 1_545 S
H695 C703 0.950 . S
H696 C701 0.950 . S
H697 C702 0.949 . S
H698 C704 0.950 . S
H699 C705 0.950 . S
H700 C706 0.949 . S
C701 H696 0.950 . S
C701 C703 1.327 . S
C701 C707 1.429 . S
C702 C694 1.574 . S
C702 H697 0.949 . S
C702 C708 1.368 . S
C703 C687 1.349 . S
C703 H695 0.950 . S
C703 C701 1.327 . S
C704 C692 1.349 . S
C704 H698 0.950 . S
C704 C705 1.327 . S
C705 H699 0.950 . S
C705 C704 1.327 . S
C705 C709 1.429 . S
C706 C689 1.574 . S
C706 H700 0.949 . S
C706 C710 1.368 . S
C707 C688 1.429 . S
C707 C701 1.429 . S
C707 C708 1.523 . S
C708 C689 1.368 1_545 S
C708 C702 1.368 . S
C708 C707 1.523 . S
C709 C693 1.429 . S
C709 C705 1.429 . S
C709 C710 1.523 . S
C710 C694 1.368 1_565 S
C710 C706 1.368 . S
C710 C709 1.523 . S
H711 C686 0.950 . S
H712 C688 0.950 . S
H713 C689 0.949 . S
H714 C691 0.950 . S
H715 C693 0.950 . S
C716 C717 1.349 . S
C716 C718 1.327 . S
C716 H741 0.950 . S
C717 C716 1.349 . S
C717 C733 1.349 . S
C718 C716 1.327 . S
C718 C737 1.429 . S
C718 H742 0.950 . S
C719 C736 1.574 . S
C719 C738 1.368 . S
C719 H743 0.949 . S
H720 C724 0.949 . S
C721 C722 1.349 . S
C721 C723 1.327 . S
C721 H744 0.950 . S
C722 C721 1.349 . S
C722 C734 1.349 . S
C723 C721 1.327 . S
C723 C739 1.429 . S
C723 H745 0.950 . S
C724 H720 0.949 . S
C724 C732 1.574 . S
C724 C740 1.368 . S
H725 C733 0.950 1_554 S
H726 C731 0.950 . S
H727 C732 0.949 . S
H728 C734 0.950 . S
H729 C735 0.950 . S
H730 C736 0.949 . S
C731 H726 0.950 . S
C731 C733 1.327 . S
C731 C737 1.429 . S
C732 C724 1.574 . S
C732 H727 0.949 . S
C732 C738 1.368 . S
C733 C717 1.349 . S
C733 H725 0.950 1_556 S
C733 C731 1.327 . S
C734 C722 1.349 . S
C734 H728 0.950 . S
C734 C735 1.327 . S
C735 H729 0.950 . S
C735 C734 1.327 . S
C735 C739 1.429 . S
C736 C719 1.574 . S
C736 H730 0.949 . S
C736 C740 1.368 . S
C737 C718 1.429 . S
C737 C731 1.429 . S
C737 C738 1.523 . S
C738 C719 1.368 . S
C738 C732 1.368 . S
C738 C737 1.523 . S
C739 C723 1.429 . S
C739 C735 1.429 . S
C739 C740 1.523 . S
C740 C724 1.368 . S
C740 C736 1.368 . S
C740 C739 1.523 . S
H741 C716 0.950 . S
H742 C718 0.950 . S
H743 C719 0.949 . S
H744 C721 0.950 . S
H745 C723 0.950 . S
C746 C747 1.349 . S
C746 C748 1.327 . S
C746 H771 0.950 . S
C747 C746 1.349 . S
C747 C763 1.349 . S
C748 C746 1.327 . S
C748 C767 1.429 . S
C748 H772 0.950 . S
C749 C766 1.574 . S
C749 C768 1.368 1_545 S
C749 H773 0.949 . S
H750 C754 0.949 . S
C751 C752 1.349 . S
C751 C753 1.327 . S
C751 H774 0.950 . S
C752 C751 1.349 . S
C752 C764 1.349 . S
C753 C751 1.327 . S
C753 C769 1.429 . S
C753 H775 0.950 . S
C754 H750 0.949 . S
C754 C762 1.574 1_545 S
C754 C770 1.368 . S
H755 C763 0.950 . S
H756 C761 0.950 . S
H757 C762 0.949 . S
H758 C764 0.950 . S
H759 C765 0.950 . S
H760 C766 0.949 . S
C761 H756 0.950 . S
C761 C763 1.327 . S
C761 C767 1.429 . S
C762 C754 1.574 1_565 S
C762 H757 0.949 . S
C762 C768 1.368 . S
C763 C747 1.349 . S
C763 H755 0.950 . S
C763 C761 1.327 . S
C764 C752 1.349 . S
C764 H758 0.950 . S
C764 C765 1.327 . S
C765 H759 0.950 . S
C765 C764 1.327 . S
C765 C769 1.429 . S
C766 C749 1.574 . S
C766 H760 0.949 . S
C766 C770 1.368 . S
C767 C748 1.429 . S
C767 C761 1.429 . S
C767 C768 1.523 . S
C768 C749 1.368 1_565 S
C768 C762 1.368 . S
C768 C767 1.523 . S
C769 C753 1.429 . S
C769 C765 1.429 . S
C769 C770 1.523 . S
C770 C754 1.368 . S
C770 C766 1.368 . S
C770 C769 1.523 . S
H771 C746 0.950 . S
H772 C748 0.950 . S
H773 C749 0.949 . S
H774 C751 0.950 . S
H775 C753 0.950 . S
C776 C777 1.349 . S
C776 C778 1.327 . S
C776 H801 0.950 . S
C777 C776 1.349 . S
C777 C793 1.349 . S
C778 C776 1.327 . S
C778 C797 1.429 . S
C778 H802 0.950 . S
C779 C796 1.574 . S
C779 C798 1.368 . S
C779 H803 0.949 . S
H780 C784 0.949 . S
C781 C782 1.349 . S
C781 C783 1.327 . S
C781 H804 0.950 . S
C782 C781 1.349 . S
C782 C794 1.349 . S
C783 C781 1.327 . S
C783 C799 1.429 . S
C783 H805 0.950 . S
C784 H780 0.949 . S
C784 C792 1.574 . S
C784 C800 1.368 . S
H785 C793 0.950 . S
H786 C791 0.950 . S
H787 C792 0.949 . S
H788 C794 0.950 . S
H789 C795 0.950 . S
H790 C796 0.949 . S
C791 H786 0.950 . S
C791 C793 1.327 . S
C791 C797 1.429 . S
C792 C784 1.574 . S
C792 H787 0.949 . S
C792 C798 1.368 . S
C793 C777 1.349 . S
C793 H785 0.950 . S
C793 C791 1.327 . S
C794 C782 1.349 . S
C794 H788 0.950 . S
C794 C795 1.327 . S
C795 H789 0.950 . S
C795 C794 1.327 . S
C795 C799 1.429 . S
C796 C779 1.574 . S
C796 H790 0.949 . S
C796 C800 1.368 . S
C797 C778 1.429 . S
C797 C791 1.429 . S
C797 C798 1.523 . S
C798 C779 1.368 . S
C798 C792 1.368 . S
C798 C797 1.523 . S
C799 C783 1.429 . S
C799 C795 1.429 . S
C799 C800 1.523 . S
C800 C784 1.368 . S
C800 C796 1.368 . S
C800 C799 1.523 . S
H801 C776 0.950 . S
H802 C778 0.950 . S
H803 C779 0.949 . S
H804 C781 0.950 . S
H805 C783 0.950 . S
C806 C807 1.349 . S
C806 C808 1.327 . S
C806 H831 0.950 . S
C807 C806 1.349 . S
C807 C823 1.349 . S
C808 C806 1.327 . S
C808 C827 1.429 . S
C808 H832 0.950 . S
C809 C826 1.574 . S
C809 C828 1.368 . S
C809 H833 0.949 . S
H810 C814 0.949 . S
C811 C812 1.349 . S
C811 C813 1.327 . S
C811 H834 0.950 . S
C812 C811 1.349 . S
C812 C824 1.349 . S
C813 C811 1.327 . S
C813 C829 1.429 . S
C813 H835 0.950 . S
C814 H810 0.949 . S
C814 C822 1.574 . S
C814 C830 1.368 . S
H815 C823 0.950 . S
H816 C821 0.950 . S
H817 C822 0.949 . S
H818 C824 0.950 . S
H819 C825 0.950 . S
H820 C826 0.949 . S
C821 H816 0.950 . S
C821 C823 1.327 . S
C821 C827 1.429 . S
C822 C814 1.574 . S
C822 H817 0.949 . S
C822 C828 1.368 . S
C823 C807 1.349 . S
C823 H815 0.950 . S
C823 C821 1.327 . S
C824 C812 1.349 . S
C824 H818 0.950 . S
C824 C825 1.327 . S
C825 H819 0.950 . S
C825 C824 1.327 . S
C825 C829 1.429 . S
C826 C809 1.574 . S
C826 H820 0.949 . S
C826 C830 1.368 . S
C827 C808 1.429 . S
C827 C821 1.429 . S
C827 C828 1.523 . S
C828 C809 1.368 . S
C828 C822 1.368 . S
C828 C827 1.523 . S
C829 C813 1.429 . S
C829 C825 1.429 . S
C829 C830 1.523 . S
C830 C814 1.368 . S
C830 C826 1.368 . S
C830 C829 1.523 . S
H831 C806 0.950 . S
H832 C808 0.950 . S
H833 C809 0.949 . S
H834 C811 0.950 . S
H835 C813 0.950 . S
C836 C837 1.349 . S
C836 C838 1.327 . S
C836 H861 0.950 . S
C837 C836 1.349 . S
C837 C853 1.349 . S
C838 C836 1.327 . S
C838 C857 1.429 . S
C838 H862 0.950 . S
C839 C856 1.574 . S
C839 C858 1.368 . S
C839 H863 0.949 . S
H840 C844 0.949 . S
C841 C842 1.349 . S
C841 C843 1.327 . S
C841 H864 0.950 . S
C842 C841 1.349 . S
C842 C854 1.349 . S
C843 C841 1.327 . S
C843 C859 1.429 . S
C843 H865 0.950 . S
C844 H840 0.949 . S
C844 C852 1.574 . S
C844 C860 1.368 . S
H845 C853 0.950 . S
H846 C851 0.950 . S
H847 C852 0.949 . S
H848 C854 0.950 . S
H849 C855 0.950 . S
H850 C856 0.949 . S
C851 H846 0.950 . S
C851 C853 1.327 . S
C851 C857 1.429 . S
C852 C844 1.574 . S
C852 H847 0.949 . S
C852 C858 1.368 . S
C853 C837 1.349 . S
C853 H845 0.950 . S
C853 C851 1.327 . S
C854 C842 1.349 . S
C854 H848 0.950 . S
C854 C855 1.327 . S
C855 H849 0.950 . S
C855 C854 1.327 . S
C855 C859 1.429 . S
C856 C839 1.574 . S
C856 H850 0.949 . S
C856 C860 1.368 . S
C857 C838 1.429 . S
C857 C851 1.429 . S
C857 C858 1.523 . S
C858 C839 1.368 . S
C858 C852 1.368 . S
C858 C857 1.523 . S
C859 C843 1.429 . S
C859 C855 1.429 . S
C859 C860 1.523 . S
C860 C844 1.368 . S
C860 C856 1.368 . S
C860 C859 1.523 . S
H861 C836 0.950 . S
H862 C838 0.950 . S
H863 C839 0.949 . S
H864 C841 0.950 . S
H865 C843 0.950 . S
C866 C867 1.349 . S
C866 C868 1.327 . S
C866 H891 0.950 . S
C867 C866 1.349 . S
C867 C883 1.349 . S
C868 C866 1.327 . S
C868 C887 1.429 . S
C868 H892 0.950 . S
C869 C886 1.574 . S
C869 C888 1.368 . S
C869 H893 0.949 . S
H870 C874 0.949 . S
C871 C872 1.349 . S
C871 C873 1.327 . S
C871 H894 0.950 . S
C872 C871 1.349 . S
C872 C884 1.349 . S
C873 C871 1.327 . S
C873 C889 1.429 . S
C873 H895 0.950 . S
C874 H870 0.949 . S
C874 C882 1.574 . S
C874 C890 1.368 . S
H875 C883 0.950 . S
H876 C881 0.950 . S
H877 C882 0.949 . S
H878 C884 0.950 . S
H879 C885 0.950 . S
H880 C886 0.949 . S
C881 H876 0.950 . S
C881 C883 1.327 . S
C881 C887 1.429 . S
C882 C874 1.574 . S
C882 H877 0.949 . S
C882 C888 1.368 . S
C883 C867 1.349 . S
C883 H875 0.950 . S
C883 C881 1.327 . S
C884 C872 1.349 . S
C884 H878 0.950 . S
C884 C885 1.327 . S
C885 H879 0.950 . S
C885 C884 1.327 . S
C885 C889 1.429 . S
C886 C869 1.574 . S
C886 H880 0.949 . S
C886 C890 1.368 . S
C887 C868 1.429 . S
C887 C881 1.429 . S
C887 C888 1.523 . S
C888 C869 1.368 . S
C888 C882 1.368 . S
C888 C887 1.523 . S
C889 C873 1.429 . S
C889 C885 1.429 . S
C889 C890 1.523 . S
C890 C874 1.368 . S
C890 C886 1.368 . S
C890 C889 1.523 . S
H891 C866 0.950 . S
H892 C868 0.950 . S
H893 C869 0.949 . S
H894 C871 0.950 . S
H895 C873 0.950 . S
C896 C897 1.349 . S
C896 C898 1.327 . S
C896 H921 0.950 . S
C897 C896 1.349 . S
C897 C913 1.349 . S
C898 C896 1.327 . S
C898 C917 1.429 . S
C898 H922 0.950 . S
C899 C916 1.574 . S
C899 C918 1.368 . S
C899 H923 0.949 . S
H900 C904 0.949 . S
C901 C902 1.349 . S
C901 C903 1.327 . S
C901 H924 0.950 . S
C902 C901 1.349 . S
C902 C914 1.349 . S
C903 C901 1.327 . S
C903 C919 1.429 . S
C903 H925 0.950 . S
C904 H900 0.949 . S
C904 C912 1.574 . S
C904 C920 1.368 . S
H905 C913 0.950 . S
H906 C911 0.950 . S
H907 C912 0.949 . S
H908 C914 0.950 . S
H909 C915 0.950 . S
H910 C916 0.949 . S
C911 H906 0.950 . S
C911 C913 1.327 . S
C911 C917 1.429 . S
C912 C904 1.574 . S
C912 H907 0.949 . S
C912 C918 1.368 . S
C913 C897 1.349 . S
C913 H905 0.950 . S
C913 C911 1.327 . S
C914 C902 1.349 . S
C914 H908 0.950 . S
C914 C915 1.327 . S
C915 H909 0.950 . S
C915 C914 1.327 . S
C915 C919 1.429 . S
C916 C899 1.574 . S
C916 H910 0.949 . S
C916 C920 1.368 . S
C917 C898 1.429 . S
C917 C911 1.429 . S
C917 C918 1.523 . S
C918 C899 1.368 . S
C918 C912 1.368 . S
C918 C917 1.523 . S
C919 C903 1.429 . S
C919 C915 1.429 . S
C919 C920 1.523 . S
C920 C904 1.368 . S
C920 C916 1.368 . S
C920 C919 1.523 . S
H921 C896 0.950 . S
H922 C898 0.950 . S
H923 C899 0.949 . S
H924 C901 0.950 . S
H925 C903 0.950 . S
C926 C927 1.349 . S
C926 C928 1.327 . S
C926 H951 0.950 . S
C927 C926 1.349 . S
C927 C943 1.349 . S
C928 C926 1.327 . S
C928 C947 1.429 . S
C928 H952 0.950 . S
C929 C946 1.574 . S
C929 C948 1.368 . S
C929 H953 0.949 . S
H930 C934 0.949 . S
C931 C932 1.349 . S
C931 C933 1.327 . S
C931 H954 0.950 . S
C932 C931 1.349 . S
C932 C944 1.349 . S
C933 C931 1.327 . S
C933 C949 1.429 . S
C933 H955 0.950 . S
C934 H930 0.949 . S
C934 C942 1.574 . S
C934 C950 1.368 . S
H935 C943 0.950 . S
H936 C941 0.950 . S
H937 C942 0.949 . S
H938 C944 0.950 . S
H939 C945 0.950 . S
H940 C946 0.949 . S
C941 H936 0.950 . S
C941 C943 1.327 . S
C941 C947 1.429 . S
C942 C934 1.574 . S
C942 H937 0.949 . S
C942 C948 1.368 . S
C943 C927 1.349 . S
C943 H935 0.950 . S
C943 C941 1.327 . S
C944 C932 1.349 . S
C944 H938 0.950 . S
C944 C945 1.327 . S
C945 H939 0.950 . S
C945 C944 1.327 . S
C945 C949 1.429 . S
C946 C929 1.574 . S
C946 H940 0.949 . S
C946 C950 1.368 . S
C947 C928 1.429 . S
C947 C941 1.429 . S
C947 C948 1.523 . S
C948 C929 1.368 . S
C948 C942 1.368 . S
C948 C947 1.523 . S
C949 C933 1.429 . S
C949 C945 1.429 . S
C949 C950 1.523 . S
C950 C934 1.368 . S
C950 C946 1.368 . S
C950 C949 1.523 . S
H951 C926 0.950 . S
H952 C928 0.950 . S
H953 C929 0.949 . S
H954 C931 0.950 . S
H955 C933 0.950 . S
C956 C957 1.349 . S
C956 C958 1.327 . S
C956 H981 0.950 . S
C957 C956 1.349 . S
C957 C973 1.349 . S
C958 C956 1.327 . S
C958 C977 1.429 . S
C958 H982 0.950 . S
C959 C976 1.574 . S
C959 C978 1.368 . S
C959 H983 0.949 . S
H960 C964 0.949 . S
C961 C962 1.349 . S
C961 C963 1.327 . S
C961 H984 0.950 . S
C962 C961 1.349 . S
C962 C974 1.349 . S
C963 C961 1.327 . S
C963 C979 1.429 . S
C963 H985 0.950 . S
C964 H960 0.949 . S
C964 C972 1.574 . S
C964 C980 1.368 . S
H965 C973 0.950 . S
H966 C971 0.950 . S
H967 C972 0.949 . S
H968 C974 0.950 . S
H969 C975 0.950 . S
H970 C976 0.949 . S
C971 H966 0.950 . S
C971 C973 1.327 . S
C971 C977 1.429 . S
C972 C964 1.574 . S
C972 H967 0.949 . S
C972 C978 1.368 . S
C973 C957 1.349 . S
C973 H965 0.950 . S
C973 C971 1.327 . S
C974 C962 1.349 . S
C974 H968 0.950 . S
C974 C975 1.327 . S
C975 H969 0.950 . S
C975 C974 1.327 . S
C975 C979 1.429 . S
C976 C959 1.574 . S
C976 H970 0.949 . S
C976 C980 1.368 . S
C977 C958 1.429 . S
C977 C971 1.429 . S
C977 C978 1.523 . S
C978 C959 1.368 . S
C978 C972 1.368 . S
C978 C977 1.523 . S
C979 C963 1.429 . S
C979 C975 1.429 . S
C979 C980 1.523 . S
C980 C964 1.368 . S
C980 C976 1.368 . S
C980 C979 1.523 . S
H981 C956 0.950 . S
H982 C958 0.950 . S
H983 C959 0.949 . S
H984 C961 0.950 . S
H985 C963 0.950 . S
C986 C987 1.349 . S
C986 C988 1.327 . S
C986 H1011 0.950 . S
C987 C986 1.349 . S
C987 C1003 1.349 . S
C988 C986 1.327 . S
C988 C1007 1.429 . S
C988 H1012 0.950 . S
C989 C1006 1.574 . S
C989 C1008 1.368 . S
C989 H1013 0.949 . S
H990 C994 0.949 . S
C991 C992 1.349 . S
C991 C993 1.327 . S
C991 H1014 0.950 . S
C992 C991 1.349 . S
C992 C1004 1.349 . S
C993 C991 1.327 . S
C993 C1009 1.429 . S
C993 H1015 0.950 . S
C994 H990 0.949 . S
C994 C1002 1.574 . S
C994 C1010 1.368 . S
H995 C1003 0.950 . S
H996 C1001 0.950 . S
H997 C1002 0.949 . S
H998 C1004 0.950 . S
H999 C1005 0.950 . S
H1000 C1006 0.949 . S
C1001 H996 0.950 . S
C1001 C1003 1.327 . S
C1001 C1007 1.429 . S
C1002 C994 1.574 . S
C1002 H997 0.949 . S
C1002 C1008 1.368 . S
C1003 C987 1.349 . S
C1003 H995 0.950 . S
C1003 C1001 1.327 . S
C1004 C992 1.349 . S
C1004 H998 0.950 . S
C1004 C1005 1.327 . S
C1005 H999 0.950 . S
C1005 C1004 1.327 . S
C1005 C1009 1.429 . S
C1006 C989 1.574 . S
C1006 H1000 0.949 . S
C1006 C1010 1.368 . S
C1007 C988 1.429 . S
C1007 C1001 1.429 . S
C1007 C1008 1.523 . S
C1008 C989 1.368 . S
C1008 C1002 1.368 . S
C1008 C1007 1.523 . S
C1009 C993 1.429 . S
C1009 C1005 1.429 . S
C1009 C1010 1.523 . S
C1010 C994 1.368 . S
C1010 C1006 1.368 . S
C1010 C1009 1.523 . S
H1011 C986 0.950 . S
H1012 C988 0.950 . S
H1013 C989 0.949 . S
H1014 C991 0.950 . S
H1015 C993 0.950 . S
C1016 C1017 1.349 . S
C1016 C1018 1.327 . S
C1016 H1041 0.950 . S
C1017 C1016 1.349 . S
C1017 C1033 1.349 . S
C1018 C1016 1.327 . S
C1018 C1037 1.429 . S
C1018 H1042 0.950 . S
C1019 C1036 1.574 . S
C1019 C1038 1.368 . S
C1019 H1043 0.949 . S
H1020 C1024 0.949 . S
C1021 C1022 1.349 . S
C1021 C1023 1.327 . S
C1021 H1044 0.950 . S
C1022 C1021 1.349 . S
C1022 C1034 1.349 . S
C1023 C1021 1.327 . S
C1023 C1039 1.429 . S
C1023 H1045 0.950 . S
C1024 H1020 0.949 . S
C1024 C1032 1.574 . S
C1024 C1040 1.368 . S
H1025 C1033 0.950 . S
H1026 C1031 0.950 . S
H1027 C1032 0.949 . S
H1028 C1034 0.950 . S
H1029 C1035 0.950 . S
H1030 C1036 0.949 . S
C1031 H1026 0.950 . S
C1031 C1033 1.327 . S
C1031 C1037 1.429 . S
C1032 C1024 1.574 . S
C1032 H1027 0.949 . S
C1032 C1038 1.368 . S
C1033 C1017 1.349 . S
C1033 H1025 0.950 . S
C1033 C1031 1.327 . S
C1034 C1022 1.349 . S
C1034 H1028 0.950 . S
C1034 C1035 1.327 . S
C1035 H1029 0.950 . S
C1035 C1034 1.327 . S
C1035 C1039 1.429 . S
C1036 C1019 1.574 . S
C1036 H1030 0.949 . S
C1036 C1040 1.368 . S
C1037 C1018 1.429 . S
C1037 C1031 1.429 . S
C1037 C1038 1.523 . S
C1038 C1019 1.368 . S
C1038 C1032 1.368 . S
C1038 C1037 1.523 . S
C1039 C1023 1.429 . S
C1039 C1035 1.429 . S
C1039 C1040 1.523 . S
C1040 C1024 1.368 . S
C1040 C1036 1.368 . S
C1040 C1039 1.523 . S
H1041 C1016 0.950 . S
H1042 C1018 0.950 . S
H1043 C1019 0.949 . S
H1044 C1021 0.950 . S
H1045 C1023 0.950 . S
C1046 C1047 1.349 . S
C1046 C1048 1.327 . S
C1046 H1071 0.950 . S
C1047 C1046 1.349 . S
C1047 C1063 1.349 . S
C1048 C1046 1.327 . S
C1048 C1067 1.429 . S
C1048 H1072 0.950 . S
C1049 C1066 1.574 . S
C1049 C1068 1.368 . S
C1049 H1073 0.949 . S
H1050 C1054 0.949 . S
C1051 C1052 1.349 . S
C1051 C1053 1.327 . S
C1051 H1074 0.950 . S
C1052 C1051 1.349 . S
C1052 C1064 1.349 . S
C1053 C1051 1.327 . S
C1053 C1069 1.429 . S
C1053 H1075 0.950 . S
C1054 H1050 0.949 . S
C1054 C1062 1.574 . S
C1054 C1070 1.368 . S
H1055 C1063 0.950 . S
H1056 C1061 0.950 . S
H1057 C1062 0.949 . S
H1058 C1064 0.950 . S
H1059 C1065 0.950 . S
H1060 C1066 0.949 . S
C1061 H1056 0.950 . S
C1061 C1063 1.327 . S
C1061 C1067 1.429 . S
C1062 C1054 1.574 . S
C1062 H1057 0.949 . S
C1062 C1068 1.368 . S
C1063 C1047 1.349 . S
C1063 H1055 0.950 . S
C1063 C1061 1.327 . S
C1064 C1052 1.349 . S
C1064 H1058 0.950 . S
C1064 C1065 1.327 . S
C1065 H1059 0.950 . S
C1065 C1064 1.327 . S
C1065 C1069 1.429 . S
C1066 C1049 1.574 . S
C1066 H1060 0.949 . S
C1066 C1070 1.368 . S
C1067 C1048 1.429 . S
C1067 C1061 1.429 . S
C1067 C1068 1.523 . S
C1068 C1049 1.368 . S
C1068 C1062 1.368 . S
C1068 C1067 1.523 . S
C1069 C1053 1.429 . S
C1069 C1065 1.429 . S
C1069 C1070 1.523 . S
C1070 C1054 1.368 . S
C1070 C1066 1.368 . S
C1070 C1069 1.523 . S
H1071 C1046 0.950 . S
H1072 C1048 0.950 . S
H1073 C1049 0.949 . S
H1074 C1051 0.950 . S
H1075 C1053 0.950 . S
C1076 C1077 1.349 . S
C1076 C1078 1.327 . S
C1076 H1101 0.950 . S
C1077 C1076 1.349 . S
C1077 C1093 1.349 . S
C1078 C1076 1.327 . S
C1078 C1097 1.429 . S
C1078 H1102 0.950 . S
C1079 C1096 1.574 . S
C1079 C1098 1.368 . S
C1079 H1103 0.949 . S
H1080 C1084 0.949 . S
C1081 C1082 1.349 . S
C1081 C1083 1.327 . S
C1081 H1104 0.950 . S
C1082 C1081 1.349 . S
C1082 C1094 1.349 . S
C1083 C1081 1.327 . S
C1083 C1099 1.429 . S
C1083 H1105 0.950 . S
C1084 H1080 0.949 . S
C1084 C1092 1.574 . S
C1084 C1100 1.368 . S
H1085 C1093 0.950 . S
H1086 C1091 0.950 . S
H1087 C1092 0.949 . S
H1088 C1094 0.950 . S
H1089 C1095 0.950 . S
H1090 C1096 0.949 . S
C1091 H1086 0.950 . S
C1091 C1093 1.327 . S
C1091 C1097 1.429 . S
C1092 C1084 1.574 . S
C1092 H1087 0.949 . S
C1092 C1098 1.368 . S
C1093 C1077 1.349 . S
C1093 H1085 0.950 . S
C1093 C1091 1.327 . S
C1094 C1082 1.349 . S
C1094 H1088 0.950 . S
C1094 C1095 1.327 . S
C1095 H1089 0.950 . S
C1095 C1094 1.327 . S
C1095 C1099 1.429 . S
C1096 C1079 1.574 . S
C1096 H1090 0.949 . S
C1096 C1100 1.368 . S
C1097 C1078 1.429 . S
C1097 C1091 1.429 . S
C1097 C1098 1.523 . S
C1098 C1079 1.368 . S
C1098 C1092 1.368 . S
C1098 C1097 1.523 . S
C1099 C1083 1.429 . S
C1099 C1095 1.429 . S
C1099 C1100 1.523 . S
C1100 C1084 1.368 . S
C1100 C1096 1.368 . S
C1100 C1099 1.523 . S
H1101 C1076 0.950 . S
H1102 C1078 0.950 . S
H1103 C1079 0.949 . S
H1104 C1081 0.950 . S
H1105 C1083 0.950 . S
C1106 C1107 1.349 . S
C1106 C1108 1.327 . S
C1106 H1131 0.950 . S
C1107 C1106 1.349 . S
C1107 C1123 1.349 . S
C1108 C1106 1.327 . S
C1108 C1127 1.429 . S
C1108 H1132 0.950 . S
C1109 C1126 1.574 . S
C1109 C1128 1.368 . S
C1109 H1133 0.949 . S
H1110 C1114 0.949 . S
C1111 C1112 1.349 . S
C1111 C1113 1.327 . S
C1111 H1134 0.950 . S
C1112 C1111 1.349 . S
C1112 C1124 1.349 . S
C1113 C1111 1.327 . S
C1113 C1129 1.429 . S
C1113 H1135 0.950 . S
C1114 H1110 0.949 . S
C1114 C1122 1.574 . S
C1114 C1130 1.368 . S
H1115 C1123 0.950 . S
H1116 C1121 0.950 . S
H1117 C1122 0.949 . S
H1118 C1124 0.950 . S
H1119 C1125 0.950 . S
H1120 C1126 0.949 . S
C1121 H1116 0.950 . S
C1121 C1123 1.327 . S
C1121 C1127 1.429 . S
C1122 C1114 1.574 . S
C1122 H1117 0.949 . S
C1122 C1128 1.368 . S
C1123 C1107 1.349 . S
C1123 H1115 0.950 . S
C1123 C1121 1.327 . S
C1124 C1112 1.349 . S
C1124 H1118 0.950 . S
C1124 C1125 1.327 . S
C1125 H1119 0.950 . S
C1125 C1124 1.327 . S
C1125 C1129 1.429 . S
C1126 C1109 1.574 . S
C1126 H1120 0.949 . S
C1126 C1130 1.368 . S
C1127 C1108 1.429 . S
C1127 C1121 1.429 . S
C1127 C1128 1.523 . S
C1128 C1109 1.368 . S
C1128 C1122 1.368 . S
C1128 C1127 1.523 . S
C1129 C1113 1.429 . S
C1129 C1125 1.429 . S
C1129 C1130 1.523 . S
C1130 C1114 1.368 . S
C1130 C1126 1.368 . S
C1130 C1129 1.523 . S
H1131 C1106 0.950 . S
H1132 C1108 0.950 . S
H1133 C1109 0.949 . S
H1134 C1111 0.950 . S
H1135 C1113 0.950 . S
C1136 C1137 1.349 . S
C1136 C1138 1.327 . S
C1136 H1161 0.950 . S
C1137 C1136 1.349 . S
C1137 C1153 1.349 . S
C1138 C1136 1.327 . S
C1138 C1157 1.429 . S
C1138 H1162 0.950 . S
C1139 C1156 1.574 . S
C1139 C1158 1.368 . S
C1139 H1163 0.949 . S
H1140 C1144 0.949 . S
C1141 C1142 1.349 . S
C1141 C1143 1.327 . S
C1141 H1164 0.950 . S
C1142 C1141 1.349 . S
C1142 C1154 1.349 . S
C1143 C1141 1.327 . S
C1143 C1159 1.429 . S
C1143 H1165 0.950 . S
C1144 H1140 0.949 . S
C1144 C1152 1.574 . S
C1144 C1160 1.368 . S
H1145 C1153 0.950 1_554 S
H1146 C1151 0.950 . S
H1147 C1152 0.949 . S
H1148 C1154 0.950 . S
H1149 C1155 0.950 . S
H1150 C1156 0.949 . S
C1151 H1146 0.950 . S
C1151 C1153 1.327 . S
C1151 C1157 1.429 . S
C1152 C1144 1.574 . S
C1152 H1147 0.949 . S
C1152 C1158 1.368 . S
C1153 C1137 1.349 . S
C1153 H1145 0.950 1_556 S
C1153 C1151 1.327 . S
C1154 C1142 1.349 . S
C1154 H1148 0.950 . S
C1154 C1155 1.327 . S
C1155 H1149 0.950 . S
C1155 C1154 1.327 . S
C1155 C1159 1.429 . S
C1156 C1139 1.574 . S
C1156 H1150 0.949 . S
C1156 C1160 1.368 . S
C1157 C1138 1.429 . S
C1157 C1151 1.429 . S
C1157 C1158 1.523 . S
C1158 C1139 1.368 . S
C1158 C1152 1.368 . S
C1158 C1157 1.523 . S
C1159 C1143 1.429 . S
C1159 C1155 1.429 . S
C1159 C1160 1.523 . S
C1160 C1144 1.368 . S
C1160 C1156 1.368 . S
C1160 C1159 1.523 . S
H1161 C1136 0.950 . S
H1162 C1138 0.950 . S
H1163 C1139 0.949 . S
H1164 C1141 0.950 . S
H1165 C1143 0.950 . S
C1166 C1167 1.349 . S
C1166 C1168 1.327 . S
C1166 H1191 0.950 . S
C1167 C1166 1.349 . S
C1167 C1183 1.349 . S
C1168 C1166 1.327 . S
C1168 C1187 1.429 . S
C1168 H1192 0.950 . S
C1169 C1186 1.574 . S
C1169 C1188 1.368 . S
C1169 H1193 0.949 . S
H1170 C1174 0.949 . S
C1171 C1172 1.349 . S
C1171 C1173 1.327 . S
C1171 H1194 0.950 . S
C1172 C1171 1.349 . S
C1172 C1184 1.349 . S
C1173 C1171 1.327 . S
C1173 C1189 1.429 . S
C1173 H1195 0.950 . S
C1174 H1170 0.949 . S
C1174 C1182 1.574 . S
C1174 C1190 1.368 . S
H1175 C1183 0.950 . S
H1176 C1181 0.950 . S
H1177 C1182 0.949 . S
H1178 C1184 0.950 . S
H1179 C1185 0.950 . S
H1180 C1186 0.949 . S
C1181 H1176 0.950 . S
C1181 C1183 1.327 . S
C1181 C1187 1.429 . S
C1182 C1174 1.574 . S
C1182 H1177 0.949 . S
C1182 C1188 1.368 . S
C1183 C1167 1.349 . S
C1183 H1175 0.950 . S
C1183 C1181 1.327 . S
C1184 C1172 1.349 . S
C1184 H1178 0.950 . S
C1184 C1185 1.327 . S
C1185 H1179 0.950 . S
C1185 C1184 1.327 . S
C1185 C1189 1.429 . S
C1186 C1169 1.574 . S
C1186 H1180 0.949 . S
C1186 C1190 1.368 . S
C1187 C1168 1.429 . S
C1187 C1181 1.429 . S
C1187 C1188 1.523 . S
C1188 C1169 1.368 . S
C1188 C1182 1.368 . S
C1188 C1187 1.523 . S
C1189 C1173 1.429 . S
C1189 C1185 1.429 . S
C1189 C1190 1.523 . S
C1190 C1174 1.368 . S
C1190 C1186 1.368 . S
C1190 C1189 1.523 . S
H1191 C1166 0.950 . S
H1192 C1168 0.950 . S
H1193 C1169 0.949 . S
H1194 C1171 0.950 . S
H1195 C1173 0.950 . S
C1196 C1197 1.349 . S
C1196 C1198 1.327 . S
C1196 H1221 0.950 . S
C1197 C1196 1.349 . S
C1197 C1213 1.349 . S
C1198 C1196 1.327 . S
C1198 C1217 1.429 . S
C1198 H1222 0.950 . S
C1199 C1216 1.574 . S
C1199 C1218 1.368 . S
C1199 H1223 0.949 . S
H1200 C1204 0.949 . S
C1201 C1202 1.349 . S
C1201 C1203 1.327 . S
C1201 H1224 0.950 . S
C1202 C1201 1.349 . S
C1202 C1214 1.349 . S
C1203 C1201 1.327 . S
C1203 C1219 1.429 . S
C1203 H1225 0.950 . S
C1204 H1200 0.949 . S
C1204 C1212 1.574 . S
C1204 C1220 1.368 . S
H1205 C1213 0.950 . S
H1206 C1211 0.950 . S
H1207 C1212 0.949 . S
H1208 C1214 0.950 . S
H1209 C1215 0.950 . S
H1210 C1216 0.949 . S
C1211 H1206 0.950 . S
C1211 C1213 1.327 . S
C1211 C1217 1.429 . S
C1212 C1204 1.574 . S
C1212 H1207 0.949 . S
C1212 C1218 1.368 . S
C1213 C1197 1.349 . S
C1213 H1205 0.950 . S
C1213 C1211 1.327 . S
C1214 C1202 1.349 . S
C1214 H1208 0.950 . S
C1214 C1215 1.327 . S
C1215 H1209 0.950 . S
C1215 C1214 1.327 . S
C1215 C1219 1.429 . S
C1216 C1199 1.574 . S
C1216 H1210 0.949 . S
C1216 C1220 1.368 . S
C1217 C1198 1.429 . S
C1217 C1211 1.429 . S
C1217 C1218 1.523 . S
C1218 C1199 1.368 . S
C1218 C1212 1.368 . S
C1218 C1217 1.523 . S
C1219 C1203 1.429 . S
C1219 C1215 1.429 . S
C1219 C1220 1.523 . S
C1220 C1204 1.368 . S
C1220 C1216 1.368 . S
C1220 C1219 1.523 . S
H1221 C1196 0.950 . S
H1222 C1198 0.950 . S
H1223 C1199 0.949 . S
H1224 C1201 0.950 . S
H1225 C1203 0.950 . S
C1226 C1227 1.349 . S
C1226 C1228 1.327 . S
C1226 H1251 0.950 . S
C1227 C1226 1.349 . S
C1227 C1243 1.349 . S
C1228 C1226 1.327 . S
C1228 C1247 1.429 . S
C1228 H1252 0.950 . S
C1229 C1246 1.574 . S
C1229 C1248 1.368 . S
C1229 H1253 0.949 . S
H1230 C1234 0.949 . S
C1231 C1232 1.349 . S
C1231 C1233 1.327 . S
C1231 H1254 0.950 . S
C1232 C1231 1.349 . S
C1232 C1244 1.349 . S
C1233 C1231 1.327 . S
C1233 C1249 1.429 . S
C1233 H1255 0.950 . S
C1234 H1230 0.949 . S
C1234 C1242 1.574 . S
C1234 C1250 1.368 . S
H1235 C1243 0.950 . S
H1236 C1241 0.950 . S
H1237 C1242 0.949 . S
H1238 C1244 0.950 . S
H1239 C1245 0.950 . S
H1240 C1246 0.949 . S
C1241 H1236 0.950 . S
C1241 C1243 1.327 . S
C1241 C1247 1.429 . S
C1242 C1234 1.574 . S
C1242 H1237 0.949 . S
C1242 C1248 1.368 . S
C1243 C1227 1.349 . S
C1243 H1235 0.950 . S
C1243 C1241 1.327 . S
C1244 C1232 1.349 . S
C1244 H1238 0.950 . S
C1244 C1245 1.327 . S
C1245 H1239 0.950 . S
C1245 C1244 1.327 . S
C1245 C1249 1.429 . S
C1246 C1229 1.574 . S
C1246 H1240 0.949 . S
C1246 C1250 1.368 . S
C1247 C1228 1.429 . S
C1247 C1241 1.429 . S
C1247 C1248 1.523 . S
C1248 C1229 1.368 . S
C1248 C1242 1.368 . S
C1248 C1247 1.523 . S
C1249 C1233 1.429 . S
C1249 C1245 1.429 . S
C1249 C1250 1.523 . S
C1250 C1234 1.368 . S
C1250 C1246 1.368 . S
C1250 C1249 1.523 . S
H1251 C1226 0.950 . S
H1252 C1228 0.950 . S
H1253 C1229 0.949 . S
H1254 C1231 0.950 . S
H1255 C1233 0.950 . S
C302 C217 1.541 . S
C297 C17 1.487 . S
C327 C30 1.469 . S
C332 C249 1.506 . S
C357 C61 1.464 1_556 S
C362 C272 1.500 . S
C392 C176 1.546 . S
C387 C72 1.499 . S
C422 C259 1.375 . S
C417 C19 1.463 . S
C452 C288 1.422 . S
C447 C33 1.451 . S
C482 C192 1.426 . S
C477 C59 1.465 . S
C512 C227 1.382 . S
C507 C75 1.425 . S
C537 C12 1.437 . S
C542 C255 1.395 . S
C567 C101 1.447 . S
C572 C230 1.383 . S
C597 C51 1.412 . S
C602 C198 1.352 . S
C632 C287 1.358 . S
C627 C124 1.415 . S
C662 C231 1.535 . S
C657 C9 1.490 1_565 S
C687 C103 1.488 . S
C692 C199 1.522 . S
C717 C54 1.503 1_556 S
C722 C286 1.571 . S
C752 C254 1.576 . S
C747 C122 1.516 . S
C777 C145 1.470 1_556 S
C782 C281 1.497 . S
C807 C96 1.465 . S
C812 C185 1.531 . S
C837 C166 1.497 . S
C842 C208 1.533 . S
C867 C114 1.470 . S
C872 C240 1.516 . S
C902 C195 1.412 . S
C897 C143 1.466 . S
C927 C93 1.460 . S
C932 C224 1.395 . S
C957 C164 1.436 . S
C962 C256 1.398 . S
C992 C291 1.414 . S
C987 C117 1.457 . S
C1017 C135 1.417 . S
C1022 C191 1.371 . S
C1047 C40 1.413 . S
C1052 C294 1.342 . S
C1077 C156 1.440 . S
C1082 C262 1.378 . S
C1112 C223 1.387 . S
C1107 C82 1.446 . S
C1142 C295 1.566 . S
C1137 C138 1.506 1_556 S
C1172 C263 1.564 . S
C1167 C38 1.512 . S
C1202 C222 1.538 . S
C1197 C159 1.472 . S
C1232 C190 1.548 . S
C1227 C80 1.488 . S
