# Generated by pormake.
# Topology eea, (3,6)-cn, num edge types: 1
# Building blocks:
#     Node 0, Type 0, BuildingBlock: MIDCAF_clean_linker_0, # of connection points: 3
#     Node 1, Type 0, BuildingBlock: MIDCAF_clean_linker_0, # of connection points: 3
#     Node 2, Type 0, BuildingBlock: MIDCAF_clean_linker_0, # of connection points: 3
#     Node 3, Type 0, BuildingBlock: MIDCAF_clean_linker_0, # of connection points: 3
#     Node 4, Type 0, BuildingBlock: MIDCAF_clean_linker_0, # of connection points: 3
#     Node 5, Type 0, BuildingBlock: MIDCAF_clean_linker_0, # of connection points: 3
#     Node 6, Type 0, BuildingBlock: MIDCAF_clean_linker_0, # of connection points: 3
#     Node 7, Type 0, BuildingBlock: MIDCAF_clean_linker_0, # of connection points: 3
#     Node 8, Type 0, BuildingBlock: MIDCAF_clean_linker_0, # of connection points: 3
#     Node 9, Type 0, BuildingBlock: MIDCAF_clean_linker_0, # of connection points: 3
#     Node 10, Type 0, BuildingBlock: MIDCAF_clean_linker_0, # of connection points: 3
#     Node 11, Type 0, BuildingBlock: MIDCAF_clean_linker_0, # of connection points: 3
#     Node 12, Type 0, BuildingBlock: MIDCAF_clean_linker_0, # of connection points: 3
#     Node 13, Type 0, BuildingBlock: MIDCAF_clean_linker_0, # of connection points: 3
#     Node 14, Type 0, BuildingBlock: MIDCAF_clean_linker_0, # of connection points: 3
#     Node 15, Type 0, BuildingBlock: MIDCAF_clean_linker_0, # of connection points: 3
#     Node 16, Type 0, BuildingBlock: MIDCAF_clean_linker_0, # of connection points: 3
#     Node 17, Type 0, BuildingBlock: MIDCAF_clean_linker_0, # of connection points: 3
#     Node 18, Type 1, BuildingBlock: CUWYAW_clean_sbu_0, # of connection points: 6
#     Node 19, Type 1, BuildingBlock: CUWYAW_clean_sbu_0, # of connection points: 6
#     Node 20, Type 1, BuildingBlock: CUWYAW_clean_sbu_0, # of connection points: 6
#     Node 21, Type 1, BuildingBlock: CUWYAW_clean_sbu_0, # of connection points: 6
#     Node 22, Type 1, BuildingBlock: CUWYAW_clean_sbu_0, # of connection points: 6
#     Node 23, Type 1, BuildingBlock: CUWYAW_clean_sbu_0, # of connection points: 6
#     Node 24, Type 1, BuildingBlock: CUWYAW_clean_sbu_0, # of connection points: 6
#     Node 25, Type 1, BuildingBlock: CUWYAW_clean_sbu_0, # of connection points: 6
#     Node 26, Type 1, BuildingBlock: CUWYAW_clean_sbu_0, # of connection points: 6
#     Edge 27, Type (0, 1), BuildingBlock: OJICUG_clean_linker_0, # of connection points: 2
#     Edge 28, Type (0, 1), BuildingBlock: OJICUG_clean_linker_0, # of connection points: 2
#     Edge 29, Type (0, 1), BuildingBlock: OJICUG_clean_linker_0, # of connection points: 2
#     Edge 30, Type (0, 1), BuildingBlock: OJICUG_clean_linker_0, # of connection points: 2
#     Edge 31, Type (0, 1), BuildingBlock: OJICUG_clean_linker_0, # of connection points: 2
#     Edge 32, Type (0, 1), BuildingBlock: OJICUG_clean_linker_0, # of connection points: 2
#     Edge 33, Type (0, 1), BuildingBlock: OJICUG_clean_linker_0, # of connection points: 2
#     Edge 34, Type (0, 1), BuildingBlock: OJICUG_clean_linker_0, # of connection points: 2
#     Edge 35, Type (0, 1), BuildingBlock: OJICUG_clean_linker_0, # of connection points: 2
#     Edge 36, Type (0, 1), BuildingBlock: OJICUG_clean_linker_0, # of connection points: 2
#     Edge 37, Type (0, 1), BuildingBlock: OJICUG_clean_linker_0, # of connection points: 2
#     Edge 38, Type (0, 1), BuildingBlock: OJICUG_clean_linker_0, # of connection points: 2
#     Edge 39, Type (0, 1), BuildingBlock: OJICUG_clean_linker_0, # of connection points: 2
#     Edge 40, Type (0, 1), BuildingBlock: OJICUG_clean_linker_0, # of connection points: 2
#     Edge 41, Type (0, 1), BuildingBlock: OJICUG_clean_linker_0, # of connection points: 2
#     Edge 42, Type (0, 1), BuildingBlock: OJICUG_clean_linker_0, # of connection points: 2
#     Edge 43, Type (0, 1), BuildingBlock: OJICUG_clean_linker_0, # of connection points: 2
#     Edge 44, Type (0, 1), BuildingBlock: OJICUG_clean_linker_0, # of connection points: 2
#     Edge 45, Type (0, 1), BuildingBlock: OJICUG_clean_linker_0, # of connection points: 2
#     Edge 46, Type (0, 1), BuildingBlock: OJICUG_clean_linker_0, # of connection points: 2
#     Edge 47, Type (0, 1), BuildingBlock: OJICUG_clean_linker_0, # of connection points: 2
#     Edge 48, Type (0, 1), BuildingBlock: OJICUG_clean_linker_0, # of connection points: 2
#     Edge 49, Type (0, 1), BuildingBlock: OJICUG_clean_linker_0, # of connection points: 2
#     Edge 50, Type (0, 1), BuildingBlock: OJICUG_clean_linker_0, # of connection points: 2
#     Edge 51, Type (0, 1), BuildingBlock: OJICUG_clean_linker_0, # of connection points: 2
#     Edge 52, Type (0, 1), BuildingBlock: OJICUG_clean_linker_0, # of connection points: 2
#     Edge 53, Type (0, 1), BuildingBlock: OJICUG_clean_linker_0, # of connection points: 2
#     Edge 54, Type (0, 1), BuildingBlock: OJICUG_clean_linker_0, # of connection points: 2
#     Edge 55, Type (0, 1), BuildingBlock: OJICUG_clean_linker_0, # of connection points: 2
#     Edge 56, Type (0, 1), BuildingBlock: OJICUG_clean_linker_0, # of connection points: 2
#     Edge 57, Type (0, 1), BuildingBlock: OJICUG_clean_linker_0, # of connection points: 2
#     Edge 58, Type (0, 1), BuildingBlock: OJICUG_clean_linker_0, # of connection points: 2
#     Edge 59, Type (0, 1), BuildingBlock: OJICUG_clean_linker_0, # of connection points: 2
#     Edge 60, Type (0, 1), BuildingBlock: OJICUG_clean_linker_0, # of connection points: 2
#     Edge 61, Type (0, 1), BuildingBlock: OJICUG_clean_linker_0, # of connection points: 2
#     Edge 62, Type (0, 1), BuildingBlock: OJICUG_clean_linker_0, # of connection points: 2
#     Edge 63, Type (0, 1), BuildingBlock: OJICUG_clean_linker_0, # of connection points: 2
#     Edge 64, Type (0, 1), BuildingBlock: OJICUG_clean_linker_0, # of connection points: 2
#     Edge 65, Type (0, 1), BuildingBlock: OJICUG_clean_linker_0, # of connection points: 2
#     Edge 66, Type (0, 1), BuildingBlock: OJICUG_clean_linker_0, # of connection points: 2
#     Edge 67, Type (0, 1), BuildingBlock: OJICUG_clean_linker_0, # of connection points: 2
#     Edge 68, Type (0, 1), BuildingBlock: OJICUG_clean_linker_0, # of connection points: 2
#     Edge 69, Type (0, 1), BuildingBlock: OJICUG_clean_linker_0, # of connection points: 2
#     Edge 70, Type (0, 1), BuildingBlock: OJICUG_clean_linker_0, # of connection points: 2
#     Edge 71, Type (0, 1), BuildingBlock: OJICUG_clean_linker_0, # of connection points: 2
#     Edge 72, Type (0, 1), BuildingBlock: OJICUG_clean_linker_0, # of connection points: 2
#     Edge 73, Type (0, 1), BuildingBlock: OJICUG_clean_linker_0, # of connection points: 2
#     Edge 74, Type (0, 1), BuildingBlock: OJICUG_clean_linker_0, # of connection points: 2
#     Edge 75, Type (0, 1), BuildingBlock: OJICUG_clean_linker_0, # of connection points: 2
#     Edge 76, Type (0, 1), BuildingBlock: OJICUG_clean_linker_0, # of connection points: 2
#     Edge 77, Type (0, 1), BuildingBlock: OJICUG_clean_linker_0, # of connection points: 2
#     Edge 78, Type (0, 1), BuildingBlock: OJICUG_clean_linker_0, # of connection points: 2
#     Edge 79, Type (0, 1), BuildingBlock: OJICUG_clean_linker_0, # of connection points: 2
#     Edge 80, Type (0, 1), BuildingBlock: OJICUG_clean_linker_0, # of connection points: 2
# Relax obj value: 0.035
# Max RMSD: 0.132
# Mean RMSD: 0.088
data_MOF--net-eea--node1-CUWYAW_clean_sbu_0--node2-MIDCAF_clean_linker_0--edge1-OJICUG_clean_linker_0
_symmetry_space_group_name_H-M    P1
_symmetry_Int_Tables_number       1
_symmetry_cell_setting            triclinic
loop_
_symmetry_equiv_pos_as_xyz
'x, y, z'
_cell_length_a     48.218484
_cell_length_b     47.944121
_cell_length_c     74.102943
_cell_angle_alpha  93.491317
_cell_angle_beta   93.23779
_cell_angle_gamma 119.95682
loop_
_atom_site_label
_atom_site_type_symbol
_atom_site_fract_x
_atom_site_fract_y
_atom_site_fract_z
_atom_type_partial_charge
C0 C 0.23016 0.01387 0.38997 0.0
C1 C 0.20938 0.00297 0.37378 0.0
C2 C 0.19722 0.02225 0.36755 0.0
C3 C 0.20542 0.05156 0.37729 0.0
H4 H 0.19013 0.12617 0.37623 0.0
H5 H 0.17638 0.16132 0.36087 0.0
H6 H 0.24154 0.24183 0.40005 0.0
H7 H 0.25457 0.20595 0.41599 0.0
H8 H 0.27023 0.18116 0.45534 0.0
H9 H 0.28709 0.18901 0.48787 0.0
H10 H 0.27678 0.09401 0.48466 0.0
H11 H 0.25984 0.08592 0.45238 0.0
H12 H 0.254 0.05071 0.4123 0.0
H13 H 0.24037 -0.00013 0.39502 0.0
H14 H 0.18069 0.01437 0.35534 0.0
H15 H 0.19523 0.06553 0.37216 0.0
N16 N 0.2264 0.11374 0.39651 0.0
N17 N 0.24495 0.1481 0.42371 0.0
N18 N 0.24579 0.09943 0.42181 0.0
C19 C 0.23224 0.14147 0.40608 0.0
C20 C 0.25168 0.12701 0.43169 0.0
C21 C 0.23323 0.0927 0.4042 0.0
C22 C 0.22369 0.16334 0.39726 0.0
C23 C 0.20165 0.15138 0.38161 0.0
C24 C 0.19389 0.17163 0.3727 0.0
C25 C 0.20826 0.20456 0.37902 0.0
C26 C 0.22993 0.21654 0.39487 0.0
C27 C 0.23747 0.19604 0.40397 0.0
C28 C 0.26353 0.13286 0.45121 0.0
C29 C 0.27164 0.16197 0.46155 0.0
C30 C 0.28138 0.16654 0.48016 0.0
C31 C 0.28293 0.14198 0.48879 0.0
C32 C 0.27528 0.11314 0.47842 0.0
C33 C 0.2658 0.10865 0.45986 0.0
C34 C 0.2257 0.06218 0.39363 0.0
C35 C 0.2381 0.04309 0.39984 0.0
C36 C 0.99545 0.2189 0.40472 0.0
C37 C 0.99389 0.22303 0.38608 0.0
C38 C 0.96355 0.2074 0.37592 0.0
C39 C 0.93589 0.18683 0.38386 0.0
H40 H 0.8769 0.06535 0.39055 0.0
H41 H 0.84148 0.01291 0.37367 0.0
H42 H 0.76111 0.029 0.37778 0.0
H43 H 0.79662 0.08012 0.39628 0.0
H44 H 0.83176 0.09191 0.4528 0.0
H45 H 0.82173 0.09642 0.48423 0.0
H46 H 0.89771 0.19648 0.49102 0.0
H47 H 0.90792 0.19218 0.45925 0.0
H48 H 0.96955 0.19528 0.42699 0.0
H49 H 0.01832 0.23019 0.41299 0.0
H50 H 0.96108 0.21071 0.36172 0.0
H51 H 0.91303 0.17446 0.37552 0.0
N52 N 0.88746 0.13007 0.3992 0.0
N53 N 0.85535 0.11128 0.42318 0.0
N54 N 0.9034 0.16152 0.42746 0.0
C55 C 0.86077 0.10703 0.40578 0.0
C56 C 0.87656 0.1384 0.43417 0.0
C57 C 0.9087 0.15752 0.40988 0.0
C58 C 0.83929 0.07645 0.3946 0.0
C59 C 0.8516 0.05745 0.38777 0.0
C60 C 0.8312 0.02749 0.37791 0.0
C61 C 0.79811 0.01634 0.37408 0.0
C62 C 0.78613 0.03608 0.38069 0.0
C63 C 0.80645 0.06558 0.39113 0.0
C64 C 0.8707 0.14172 0.45342 0.0
C65 C 0.84643 0.11498 0.46088 0.0
C66 C 0.84078 0.11744 0.47899 0.0
C67 C 0.85907 0.14672 0.49012 0.0
C68 C 0.88317 0.17363 0.48271 0.0
C69 C 0.88908 0.17111 0.46455 0.0
C70 C 0.93766 0.18197 0.40228 0.0
C71 C 0.96754 0.19881 0.41278 0.0
C72 C 0.79504 0.77596 0.40819 0.0
C73 C 0.79982 0.78743 0.39098 0.0
C74 C 0.82707 0.79185 0.38272 0.0
C75 C 0.84896 0.78478 0.39141 0.0
H76 H 0.92829 0.78041 0.38383 0.0
H77 H 0.97447 0.78907 0.3684 0.0
H78 H 0.01039 0.7611 0.41445 0.0
H79 H 0.96409 0.75286 0.43025 0.0
H80 H 0.91813 0.72752 0.46437 0.0
H81 H 0.90546 0.70523 0.49366 0.0
H82 H 0.82119 0.71522 0.49129 0.0
H83 H 0.83329 0.73683 0.46228 0.0
H84 H 0.81232 0.75989 0.43011 0.0
H85 H 0.77409 0.77195 0.41483 0.0
H86 H 0.83168 0.80108 0.36957 0.0
H87 H 0.86967 0.7885 0.38461 0.0
N88 N 0.89308 0.76892 0.40961 0.0
N89 N 0.90916 0.75032 0.43446 0.0
N90 N 0.8624 0.75403 0.43428 0.0
C91 C 0.91423 0.76158 0.41779 0.0
C92 C 0.88314 0.74649 0.44279 0.0
C93 C 0.86715 0.76526 0.41774 0.0
C94 C 0.94236 0.76597 0.40838 0.0
C95 C 0.94588 0.77598 0.39077 0.0
C96 C 0.97233 0.78074 0.38179 0.0
C97 C 0.99608 0.77564 0.39013 0.0
C98 C 0.99262 0.76549 0.40771 0.0
C99 C 0.966 0.76062 0.41673 0.0
C100 C 0.87667 0.73382 0.46082 0.0
C101 C 0.89692 0.72496 0.47011 0.0
C102 C 0.88975 0.71231 0.48692 0.0
C103 C 0.86212 0.70812 0.49469 0.0
C104 C 0.84228 0.71748 0.48552 0.0
C105 C 0.84942 0.73011 0.46886 0.0
C106 C 0.84412 0.77312 0.40859 0.0
C107 C 0.81692 0.76888 0.4169 0.0
C108 C 0.00626 0.23112 0.59543 0.0
C109 C 0.00229 0.2203 0.61286 0.0
C110 C 0.02608 0.21541 0.62133 0.0
C111 C 0.05316 0.22122 0.6127 0.0
H112 H 0.13006 0.21042 0.61963 0.0
H113 H 0.16785 0.19802 0.63506 0.0
H114 H 0.23044 0.2348 0.59239 0.0
H115 H 0.19238 0.24665 0.57668 0.0
H116 H 0.17516 0.27737 0.54635 0.0
H117 H 0.18745 0.29832 0.51716 0.0
H118 H 0.09266 0.28629 0.50816 0.0
H119 H 0.07991 0.2647 0.53763 0.0
H120 H 0.03591 0.24546 0.57339 0.0
H121 H 0.98844 0.23532 0.58858 0.0
H122 H 0.02356 0.20655 0.63459 0.0
H123 H 0.0708 0.21701 0.61978 0.0
N124 N 0.10793 0.23155 0.59492 0.0
N125 N 0.14039 0.24905 0.5711 0.0
N126 N 0.0922 0.25021 0.56996 0.0
C127 C 0.13491 0.23688 0.58739 0.0
C128 C 0.11931 0.25579 0.56225 0.0
C129 C 0.08644 0.2381 0.5864 0.0
C130 C 0.15809 0.22955 0.59687 0.0
C131 C 0.15186 0.21591 0.61349 0.0
C132 C 0.17363 0.20895 0.62242 0.0
C133 C 0.2022 0.21548 0.61498 0.0
C134 C 0.20847 0.22911 0.59837 0.0
C135 C 0.18668 0.23606 0.58942 0.0
C136 C 0.12646 0.26925 0.54444 0.0
C137 C 0.15677 0.27912 0.53826 0.0
C138 C 0.16399 0.29143 0.52152 0.0
C139 C 0.14114 0.2942 0.51037 0.0
C140 C 0.11073 0.28431 0.51642 0.0
C141 C 0.10351 0.27211 0.53334 0.0
C142 C 0.05733 0.23213 0.5953 0.0
C143 C 0.03354 0.23706 0.58676 0.0
C144 C 0.76561 0.77435 0.60737 0.0
C145 C 0.78564 0.78556 0.62382 0.0
C146 C 0.79384 0.81582 0.63261 0.0
C147 C 0.7826 0.83466 0.6251 0.0
H148 H 0.80988 0.93828 0.61559 0.0
H149 H 0.82842 0.99171 0.63083 0.0
H150 H 0.72962 0.97004 0.62998 0.0
H151 H 0.71187 0.9177 0.61304 0.0
H152 H 0.70856 0.89375 0.55818 0.0
H153 H 0.69272 0.88773 0.52587 0.0
H154 H 0.69416 0.79843 0.51945 0.0
H155 H 0.71036 0.80432 0.552 0.0
H156 H 0.73918 0.78424 0.587 0.0
H157 H 0.75897 0.7511 0.6003 0.0
H158 H 0.80871 0.82486 0.64548 0.0
H159 H 0.7896 0.85787 0.63236 0.0
N160 N 0.75882 0.87288 0.61024 0.0
N161 N 0.73267 0.88424 0.58674 0.0
N162 N 0.73512 0.83646 0.58393 0.0
C163 C 0.74918 0.89254 0.60342 0.0
C164 C 0.72565 0.85629 0.57682 0.0
C165 C 0.75152 0.84456 0.60075 0.0
C166 C 0.75957 0.92417 0.61326 0.0
C167 C 0.79229 0.94519 0.61868 0.0
C168 C 0.80279 0.97572 0.62762 0.0
C169 C 0.78063 0.98552 0.63196 0.0
C170 C 0.74763 0.96395 0.62664 0.0
C171 C 0.73729 0.93378 0.61709 0.0
C172 C 0.71127 0.84976 0.55772 0.0
C173 C 0.70521 0.87256 0.55004 0.0
C174 C 0.69622 0.86923 0.53149 0.0
C175 C 0.69273 0.84291 0.52019 0.0
C176 C 0.69676 0.81899 0.52792 0.0
C177 C 0.7061 0.82244 0.54654 0.0
C178 C 0.76282 0.8238 0.60855 0.0
C179 C 0.7544 0.79338 0.59975 0.0
C180 C 0.21086 0.97012 0.61214 0.0
C181 C 0.19962 0.98315 0.62547 0.0
C182 C 0.16716 0.96497 0.62892 0.0
C183 C 0.14658 0.93475 0.61933 0.0
H184 H 0.08559 0.82429 0.62587 0.0
H185 H 0.03879 0.78725 0.64033 0.0
H186 H 0.97891 0.76597 0.58987 0.0
H187 H 0.02646 0.80158 0.57519 0.0
H188 H 0.08833 0.80473 0.54206 0.0
H189 H 0.09885 0.7996 0.5104 0.0
H190 H 0.1706 0.90122 0.51561 0.0
H191 H 0.16018 0.90652 0.54687 0.0
H192 H 0.19929 0.93104 0.59189 0.0
H193 H 0.23579 0.9829 0.60933 0.0
H194 H 0.15724 0.97433 0.63872 0.0
H195 H 0.12165 0.92164 0.62214 0.0
N196 N 0.10938 0.8682 0.60175 0.0
N197 N 0.09211 0.83636 0.57358 0.0
N198 N 0.13958 0.88705 0.57708 0.0
C199 C 0.08781 0.84051 0.59135 0.0
C200 C 0.11819 0.85965 0.56639 0.0
C201 C 0.13529 0.89154 0.59469 0.0
C202 C 0.05959 0.81587 0.59944 0.0
C203 C 0.06243 0.81136 0.61784 0.0
C204 C 0.03545 0.79032 0.62617 0.0
C205 C 0.00471 0.77385 0.61644 0.0
C206 C 0.00209 0.7778 0.59783 0.0
C207 C 0.02932 0.79833 0.58938 0.0
C208 C 0.12343 0.856 0.54706 0.0
C209 C 0.10621 0.82598 0.5364 0.0
C210 C 0.11232 0.823 0.51832 0.0
C211 C 0.13545 0.85005 0.51052 0.0
C212 C 0.15232 0.88003 0.52114 0.0
C213 C 0.14647 0.88296 0.53915 0.0
C214 C 0.15771 0.92232 0.60573 0.0
C215 C 0.19003 0.94023 0.60223 0.0
C216 C 0.91002 0.36662 0.71148 0.0
C217 C 0.87723 0.34496 0.7057 0.0
C218 C 0.85455 0.35384 0.71042 0.0
C219 C 0.86438 0.38361 0.72021 0.0
H220 H 0.8452 0.47184 0.73464 0.0
H221 H 0.8268 0.50503 0.72043 0.0
H222 H 0.92568 0.57664 0.7146 0.0
H223 H 0.94368 0.54429 0.73025 0.0
H224 H 0.9539 0.5254 0.78754 0.0
H225 H 0.9727 0.53179 0.81964 0.0
H226 H 0.96834 0.43958 0.81294 0.0
H227 H 0.94959 0.43295 0.781 0.0
H228 H 0.94497 0.41203 0.7262 0.0
H229 H 0.92845 0.36133 0.70786 0.0
H230 H 0.82904 0.33773 0.70682 0.0
H231 H 0.84644 0.38986 0.72356 0.0
N232 N 0.89705 0.45563 0.73066 0.0
N233 N 0.92448 0.49239 0.75659 0.0
N234 N 0.92522 0.4438 0.75282 0.0
C235 C 0.90623 0.48425 0.74041 0.0
C236 C 0.93376 0.47199 0.76299 0.0
C237 C 0.90698 0.43562 0.73668 0.0
C238 C 0.89571 0.50576 0.73348 0.0
C239 C 0.86283 0.49503 0.73058 0.0
C240 C 0.85239 0.51392 0.72223 0.0
C241 C 0.87463 0.54344 0.71598 0.0
C242 C 0.90774 0.5544 0.71939 0.0
C243 C 0.91816 0.53585 0.72826 0.0
C244 C 0.94978 0.47845 0.78168 0.0
C245 C 0.95738 0.50668 0.79282 0.0
C246 C 0.96823 0.51042 0.8112 0.0
C247 C 0.97146 0.48594 0.81879 0.0
C248 C 0.96548 0.45855 0.80749 0.0
C249 C 0.95489 0.4549 0.78913 0.0
C250 C 0.89692 0.40464 0.7261 0.0
C251 C 0.91965 0.39588 0.72185 0.0
C252 C 0.66029 0.55114 0.73857 0.0
C253 C 0.65747 0.5544 0.71986 0.0
C254 C 0.62664 0.53775 0.71025 0.0
C255 C 0.59975 0.51721 0.71881 0.0
H256 H 0.53895 0.40835 0.71447 0.0
H257 H 0.50282 0.35539 0.69833 0.0
H258 H 0.42628 0.34647 0.72975 0.0
H259 H 0.46333 0.39867 0.74669 0.0
H260 H 0.50397 0.42363 0.79078 0.0
H261 H 0.49457 0.42892 0.82222 0.0
H262 H 0.56608 0.5306 0.82714 0.0
H263 H 0.57559 0.52548 0.79526 0.0
H264 H 0.6362 0.52837 0.7615 0.0
H265 H 0.68356 0.56315 0.74645 0.0
H266 H 0.62317 0.54028 0.69601 0.0
H267 H 0.5765 0.50413 0.71088 0.0
N268 N 0.55259 0.46148 0.73541 0.0
N269 N 0.52321 0.4431 0.76041 0.0
N270 N 0.57099 0.49351 0.76354 0.0
C271 C 0.52683 0.4384 0.7427 0.0
C272 C 0.54507 0.47046 0.77096 0.0
C273 C 0.57464 0.48914 0.74567 0.0
C274 C 0.50396 0.40756 0.73185 0.0
C275 C 0.51433 0.39513 0.71782 0.0
C276 C 0.49344 0.36475 0.70849 0.0
C277 C 0.46142 0.34638 0.71266 0.0
C278 C 0.45088 0.35943 0.72639 0.0
C279 C 0.47202 0.38951 0.73601 0.0
C280 C 0.54053 0.47418 0.79041 0.0
C281 C 0.51785 0.44721 0.79846 0.0
C282 C 0.51259 0.45013 0.81659 0.0
C283 C 0.5297 0.48011 0.82719 0.0
C284 C 0.55246 0.5072 0.81925 0.0
C285 C 0.55799 0.50422 0.80104 0.0
C286 C 0.60278 0.51337 0.73732 0.0
C287 C 0.63316 0.5311 0.74724 0.0
C288 C 0.45531 0.10169 0.74048 0.0
C289 C 0.4604 0.11448 0.72362 0.0
C290 C 0.48853 0.1209 0.71568 0.0
C291 C 0.51098 0.11458 0.72434 0.0
H292 H 0.59133 0.1134 0.71656 0.0
H293 H 0.63781 0.12414 0.70091 0.0
H294 H 0.67591 0.09677 0.7463 0.0
H295 H 0.62924 0.08648 0.76236 0.0
H296 H 0.58392 0.06067 0.79721 0.0
H297 H 0.57242 0.03919 0.82679 0.0
H298 H 0.4863 0.04593 0.82435 0.0
H299 H 0.49721 0.06667 0.7951 0.0
H300 H 0.47298 0.0854 0.76212 0.0
H301 H 0.43371 0.09613 0.74687 0.0
H302 H 0.49344 0.13124 0.70283 0.0
H303 H 0.53238 0.11992 0.7178 0.0
N304 N 0.55596 0.09964 0.74219 0.0
N305 N 0.57355 0.08239 0.76709 0.0
N306 N 0.52558 0.0839 0.76693 0.0
C307 C 0.578 0.09348 0.75035 0.0
C308 C 0.54723 0.07755 0.77546 0.0
C309 C 0.52973 0.09494 0.75034 0.0
C310 C 0.60641 0.09909 0.74083 0.0
C311 C 0.60945 0.10953 0.72332 0.0
C312 C 0.63609 0.11548 0.7142 0.0
C313 C 0.66055 0.11116 0.72227 0.0
C314 C 0.65759 0.10058 0.73975 0.0
C315 C 0.63077 0.09454 0.74893 0.0
C316 C 0.54144 0.06525 0.79362 0.0
C317 C 0.56254 0.05754 0.803 0.0
C318 C 0.55604 0.04536 0.81998 0.0
C319 C 0.52824 0.0405 0.82782 0.0
C320 C 0.50754 0.0487 0.81854 0.0
C321 C 0.514 0.06084 0.80173 0.0
C322 C 0.50589 0.10172 0.74119 0.0
C323 C 0.47779 0.09539 0.74918 0.0
C324 C 0.67247 0.56298 0.92992 0.0
C325 C 0.66913 0.55218 0.94734 0.0
C326 C 0.69322 0.54734 0.95545 0.0
C327 C 0.71994 0.55315 0.94645 0.0
H328 H 0.79856 0.54499 0.95288 0.0
H329 H 0.83764 0.53393 0.96793 0.0
H330 H 0.89683 0.56797 0.92359 0.0
H331 H 0.85744 0.57845 0.90827 0.0
H332 H 0.83432 0.59864 0.87573 0.0
H333 H 0.84372 0.61598 0.84565 0.0
H334 H 0.75321 0.6143 0.84079 0.0
H335 H 0.74372 0.59716 0.87143 0.0
H336 H 0.7012 0.57716 0.90748 0.0
H337 H 0.65445 0.56718 0.92334 0.0
H338 H 0.6912 0.53848 0.9687 0.0
H339 H 0.7378 0.54892 0.95324 0.0
N340 N 0.77435 0.56415 0.92809 0.0
N341 N 0.80468 0.57943 0.9033 0.0
N342 N 0.7563 0.58014 0.90279 0.0
C343 C 0.80072 0.56896 0.92004 0.0
C344 C 0.78276 0.58511 0.89453 0.0
C345 C 0.75202 0.56966 0.91967 0.0
C346 C 0.82477 0.56263 0.92933 0.0
C347 C 0.81988 0.55019 0.9463 0.0
C348 C 0.84241 0.544 0.95501 0.0
C349 C 0.87041 0.55016 0.94699 0.0
C350 C 0.87533 0.56261 0.93003 0.0
C351 C 0.85278 0.56877 0.9213 0.0
C352 C 0.78809 0.59626 0.87609 0.0
C353 C 0.81621 0.60183 0.86838 0.0
C354 C 0.82159 0.61163 0.85098 0.0
C355 C 0.79904 0.61612 0.84069 0.0
C356 C 0.77108 0.6111 0.84841 0.0
C357 C 0.76561 0.60118 0.86594 0.0
C358 C 0.72342 0.56393 0.92902 0.0
C359 C 0.69935 0.56884 0.92086 0.0
C360 C 0.43854 0.11077 0.94194 0.0
C361 C 0.45436 0.1204 0.95963 0.0
C362 C 0.45939 0.14921 0.96886 0.0
C363 C 0.44961 0.1685 0.96049 0.0
H364 H 0.45807 0.25509 0.969 0.0
H365 H 0.47351 0.30694 0.98535 0.0
H366 H 0.42421 0.32684 0.94194 0.0
H367 H 0.40957 0.27526 0.92522 0.0
H368 H 0.40416 0.23953 0.88651 0.0
H369 H 0.38838 0.23214 0.85414 0.0
H370 H 0.37524 0.13599 0.85097 0.0
H371 H 0.39095 0.14316 0.88364 0.0
H372 H 0.41733 0.12264 0.91966 0.0
H373 H 0.43439 0.08861 0.93455 0.0
H374 H 0.47104 0.15692 0.98263 0.0
H375 H 0.45434 0.19073 0.96807 0.0
N376 N 0.43134 0.20902 0.94318 0.0
N377 N 0.41448 0.22439 0.91737 0.0
N378 N 0.41529 0.17573 0.91566 0.0
C379 C 0.42542 0.23047 0.93524 0.0
C380 C 0.40932 0.19712 0.90747 0.0
C381 C 0.42629 0.18158 0.93359 0.0
C382 C 0.43272 0.26104 0.94572 0.0
C383 C 0.45028 0.27036 0.96295 0.0
C384 C 0.45901 0.30008 0.97241 0.0
C385 C 0.45017 0.32112 0.96495 0.0
C386 C 0.43188 0.31144 0.94793 0.0
C387 C 0.42334 0.28178 0.93839 0.0
C388 C 0.39889 0.19194 0.88775 0.0
C389 C 0.39789 0.21672 0.87902 0.0
C390 C 0.38909 0.21263 0.8604 0.0
C391 C 0.38087 0.18362 0.85001 0.0
C392 C 0.3814 0.15859 0.85868 0.0
C393 C 0.39049 0.16277 0.87737 0.0
C394 C 0.43465 0.15959 0.94258 0.0
C395 C 0.4289 0.13031 0.93343 0.0
C396 C 0.87748 0.30797 0.94106 0.0
C397 C 0.86997 0.31647 0.95779 0.0
C398 C 0.84234 0.29353 0.96517 0.0
C399 C 0.82218 0.26299 0.95579 0.0
H400 H 0.75554 0.15766 0.96 0.0
H401 H 0.70822 0.12194 0.97453 0.0
H402 H 0.64908 0.10049 0.92374 0.0
H403 H 0.69711 0.13463 0.90902 0.0
H404 H 0.7519 0.13819 0.8745 0.0
H405 H 0.7633 0.13075 0.84333 0.0
H406 H 0.8515 0.22314 0.85204 0.0
H407 H 0.8407 0.23041 0.88286 0.0
H408 H 0.86344 0.27201 0.91858 0.0
H409 H 0.89851 0.32522 0.935 0.0
H410 H 0.83621 0.29927 0.97818 0.0
H411 H 0.80082 0.24612 0.96175 0.0
N412 N 0.78029 0.20067 0.93534 0.0
N413 N 0.76296 0.16746 0.90761 0.0
N414 N 0.81078 0.21776 0.91067 0.0
C415 C 0.75851 0.1727 0.92522 0.0
C416 C 0.7894 0.18994 0.90031 0.0
C417 C 0.80643 0.22342 0.92812 0.0
C418 C 0.72992 0.14893 0.93341 0.0
C419 C 0.73241 0.14496 0.95193 0.0
C420 C 0.70514 0.12469 0.96029 0.0
C421 C 0.67446 0.10855 0.95048 0.0
C422 C 0.67218 0.11205 0.93178 0.0
C423 C 0.69969 0.13174 0.9233 0.0
C424 C 0.79539 0.18483 0.88129 0.0
C425 C 0.77375 0.15684 0.86976 0.0
C426 C 0.7802 0.15262 0.85189 0.0
C427 C 0.80848 0.1762 0.84528 0.0
C428 C 0.82985 0.20417 0.8568 0.0
C429 C 0.82345 0.20842 0.87451 0.0
C430 C 0.82911 0.25478 0.93877 0.0
C431 C 0.85724 0.27749 0.93163 0.0
C432 C 0.56989 0.68814 0.05849 0.0
C433 C 0.55379 0.67995 0.04092 0.0
C434 C 0.54923 0.70299 0.03251 0.0
C435 C 0.55967 0.73333 0.04168 0.0
H436 H 0.55724 0.81297 0.03594 0.0
H437 H 0.5391 0.84554 0.0212 0.0
H438 H 0.57152 0.9126 0.06967 0.0
H439 H 0.58986 0.87975 0.0848 0.0
H440 H 0.61961 0.86075 0.12092 0.0
H441 H 0.63234 0.86705 0.15393 0.0
H442 H 0.60865 0.7673 0.15185 0.0
H443 H 0.59604 0.76084 0.11919 0.0
H444 H 0.59175 0.72378 0.08148 0.0
H445 H 0.57361 0.67072 0.06528 0.0
H446 H 0.5373 0.69741 0.01885 0.0
H447 H 0.55518 0.75024 0.03485 0.0
N448 N 0.57796 0.7941 0.06155 0.0
N449 N 0.59297 0.82732 0.08902 0.0
N450 N 0.59273 0.77813 0.0878 0.0
C451 C 0.58298 0.82167 0.07095 0.0
C452 C 0.59797 0.80558 0.09752 0.0
C453 C 0.58284 0.77227 0.06979 0.0
C454 C 0.57478 0.84351 0.06169 0.0
C455 C 0.56079 0.8347 0.04356 0.0
C456 C 0.55019 0.85326 0.03508 0.0
C457 C 0.55352 0.88125 0.0444 0.0
C458 C 0.56866 0.89101 0.06224 0.0
C459 C 0.57907 0.87218 0.07087 0.0
C460 C 0.60677 0.81029 0.11738 0.0
C461 C 0.61716 0.8402 0.12752 0.0
C462 C 0.62452 0.84386 0.14638 0.0
C463 C 0.62114 0.81756 0.15541 0.0
C464 C 0.61097 0.78783 0.14526 0.0
C465 C 0.60401 0.78426 0.12649 0.0
C466 C 0.5747 0.74123 0.05955 0.0
C467 C 0.58015 0.71848 0.06776 0.0
C468 C 0.32865 0.88414 0.07247 0.0
C469 C 0.32689 0.88644 0.05359 0.0
C470 C 0.29662 0.86868 0.04341 0.0
C471 C 0.26931 0.84811 0.05164 0.0
H472 H 0.20896 0.73847 0.04983 0.0
H473 H 0.17335 0.68561 0.03345 0.0
H474 H 0.09308 0.6812 0.05925 0.0
H475 H 0.12947 0.73324 0.07654 0.0
H476 H 0.15271 0.77191 0.11725 0.0
H477 H 0.14083 0.77879 0.14795 0.0
H478 H 0.23777 0.85879 0.1613 0.0
H479 H 0.25007 0.85167 0.13028 0.0
H480 H 0.3032 0.86218 0.09524 0.0
H481 H 0.35147 0.89705 0.0808 0.0
H482 H 0.29389 0.87046 0.029 0.0
H483 H 0.24653 0.83432 0.04329 0.0
N484 N 0.22119 0.79334 0.06837 0.0
N485 N 0.18843 0.77748 0.09219 0.0
N486 N 0.23679 0.82745 0.09568 0.0
C487 C 0.19421 0.77117 0.07519 0.0
C488 C 0.20952 0.80544 0.10257 0.0
C489 C 0.24245 0.82157 0.07844 0.0
C490 C 0.17198 0.73993 0.06447 0.0
C491 C 0.18367 0.72621 0.05193 0.0
C492 C 0.16308 0.6959 0.04243 0.0
C493 C 0.13009 0.67886 0.04489 0.0
C494 C 0.11837 0.69308 0.05721 0.0
C495 C 0.13916 0.72308 0.06705 0.0
C496 C 0.20244 0.81118 0.12124 0.0
C497 C 0.17162 0.7911 0.12662 0.0
C498 C 0.16466 0.7952 0.14425 0.0
C499 C 0.18828 0.81945 0.15706 0.0
C500 C 0.2191 0.83978 0.15174 0.0
C501 C 0.22607 0.83581 0.13396 0.0
C502 C 0.27126 0.84533 0.07035 0.0
C503 C 0.30103 0.86404 0.08079 0.0
C504 C 0.12375 0.43915 0.07426 0.0
C505 C 0.12859 0.45105 0.05717 0.0
C506 C 0.15657 0.457 0.0492 0.0
C507 C 0.17914 0.45106 0.05809 0.0
H508 H 0.26151 0.45215 0.05158 0.0
H509 H 0.30828 0.46207 0.03638 0.0
H510 H 0.3438 0.43294 0.08207 0.0
H511 H 0.2969 0.42342 0.09763 0.0
H512 H 0.25259 0.40032 0.13233 0.0
H513 H 0.24065 0.3785 0.16177 0.0
H514 H 0.15182 0.38017 0.15765 0.0
H515 H 0.16321 0.40131 0.12848 0.0
H516 H 0.14167 0.42387 0.09629 0.0
H517 H 0.10227 0.43398 0.08067 0.0
H518 H 0.16125 0.46663 0.03616 0.0
H519 H 0.20041 0.45598 0.05153 0.0
N520 N 0.22466 0.43743 0.07666 0.0
N521 N 0.24167 0.42012 0.10176 0.0
N522 N 0.19354 0.42132 0.10111 0.0
C523 C 0.24658 0.43136 0.08509 0.0
C524 C 0.21506 0.41506 0.10985 0.0
C525 C 0.19811 0.43251 0.08456 0.0
C526 C 0.27529 0.43695 0.07591 0.0
C527 C 0.27915 0.44774 0.05848 0.0
C528 C 0.30594 0.45324 0.04965 0.0
C529 C 0.32971 0.44811 0.05793 0.0
C530 C 0.32601 0.43735 0.07536 0.0
C531 C 0.29905 0.43176 0.08425 0.0
C532 C 0.20883 0.40246 0.12791 0.0
C533 C 0.23052 0.39601 0.13772 0.0
C534 C 0.22377 0.38365 0.15461 0.0
C535 C 0.19514 0.37732 0.16195 0.0
C536 C 0.17378 0.38416 0.15223 0.0
C537 C 0.1805 0.39653 0.13548 0.0
C538 C 0.17427 0.43904 0.07517 0.0
C539 C 0.14631 0.4332 0.08317 0.0
C540 C 0.34073 0.8968 0.26309 0.0
C541 C 0.337 0.88557 0.28041 0.0
C542 C 0.36111 0.88098 0.28871 0.0
C543 C 0.3883 0.88751 0.28003 0.0
H544 H 0.46754 0.88191 0.28768 0.0
H545 H 0.50568 0.86997 0.30307 0.0
H546 H 0.56521 0.90165 0.25874 0.0
H547 H 0.52679 0.91317 0.24309 0.0
H548 H 0.51027 0.94767 0.21382 0.0
H549 H 0.52181 0.96877 0.1846 0.0
H550 H 0.42533 0.95234 0.17542 0.0
H551 H 0.41338 0.93066 0.20491 0.0
H552 H 0.37034 0.91214 0.24106 0.0
H553 H 0.32264 0.90076 0.25638 0.0
H554 H 0.35876 0.8718 0.30188 0.0
H555 H 0.40619 0.88351 0.28697 0.0
N556 N 0.4434 0.8995 0.26222 0.0
N557 N 0.47565 0.91759 0.23836 0.0
N558 N 0.42689 0.91765 0.23736 0.0
C559 C 0.47048 0.90539 0.25465 0.0
C560 C 0.45411 0.92383 0.22959 0.0
C561 C 0.42147 0.9055 0.25378 0.0
C562 C 0.49401 0.89851 0.2641 0.0
C563 C 0.48873 0.88639 0.28116 0.0
C564 C 0.51071 0.87971 0.29007 0.0
C565 C 0.5385 0.88493 0.28215 0.0
C566 C 0.54384 0.89705 0.26511 0.0
C567 C 0.52187 0.90381 0.25619 0.0
C568 C 0.46082 0.93737 0.21179 0.0
C569 C 0.49136 0.94849 0.20568 0.0
C570 C 0.49814 0.96088 0.18893 0.0
C571 C 0.47457 0.96244 0.17773 0.0
C572 C 0.44394 0.95131 0.18373 0.0
C573 C 0.43717 0.93906 0.20066 0.0
C574 C 0.39225 0.89882 0.26273 0.0
C575 C 0.36813 0.90345 0.25435 0.0
C576 C 0.10637 0.44029 0.27241 0.0
C577 C 0.12312 0.45075 0.28986 0.0
C578 C 0.12805 0.4796 0.29896 0.0
C579 C 0.11705 0.49803 0.29072 0.0
H580 H 0.11537 0.57848 0.30138 0.0
H581 H 0.13165 0.63049 0.31791 0.0
H582 H 0.0938 0.65693 0.272 0.0
H583 H 0.07719 0.60465 0.25531 0.0
H584 H 0.06683 0.56668 0.2179 0.0
H585 H 0.05176 0.56015 0.18552 0.0
H586 H 0.04129 0.46508 0.18135 0.0
H587 H 0.05637 0.47138 0.21408 0.0
H588 H 0.08316 0.45071 0.25043 0.0
H589 H 0.10225 0.41805 0.26515 0.0
H590 H 0.14038 0.48791 0.31256 0.0
H591 H 0.12167 0.52029 0.29821 0.0
N592 N 0.09513 0.53613 0.27404 0.0
N593 N 0.07737 0.55113 0.24845 0.0
N594 N 0.08008 0.50347 0.24635 0.0
C595 C 0.08826 0.55711 0.26631 0.0
C596 C 0.0731 0.52438 0.23837 0.0
C597 C 0.09111 0.50928 0.26428 0.0
C598 C 0.09524 0.58745 0.27691 0.0
C599 C 0.1102 0.59515 0.29479 0.0
C600 C 0.1197 0.62503 0.30426 0.0
C601 C 0.11431 0.6478 0.29614 0.0
C602 C 0.09816 0.63971 0.27858 0.0
C603 C 0.08879 0.60983 0.26902 0.0
C604 C 0.0629 0.51955 0.21866 0.0
C605 C 0.0613 0.54427 0.2102 0.0
C606 C 0.05291 0.5407 0.19157 0.0
C607 C 0.0457 0.51227 0.18091 0.0
C608 C 0.04673 0.48725 0.1893 0.0
C609 C 0.05543 0.49092 0.20801 0.0
C610 C 0.10097 0.48823 0.27307 0.0
C611 C 0.09554 0.45901 0.26401 0.0
C612 C 0.54629 0.64848 0.27891 0.0
C613 C 0.53905 0.65528 0.29616 0.0
C614 C 0.51131 0.63162 0.30308 0.0
C615 C 0.49088 0.60202 0.29286 0.0
H616 H 0.40977 0.51965 0.29479 0.0
H617 H 0.36244 0.48206 0.3083 0.0
H618 H 0.33025 0.41581 0.25941 0.0
H619 H 0.37781 0.45416 0.24549 0.0
H620 H 0.41878 0.48374 0.20905 0.0
H621 H 0.42891 0.47947 0.17723 0.0
H622 H 0.52306 0.56465 0.18894 0.0
H623 H 0.51306 0.56927 0.22027 0.0
H624 H 0.5318 0.61463 0.25528 0.0
H625 H 0.56738 0.66636 0.27317 0.0
H626 H 0.50537 0.63601 0.31644 0.0
H627 H 0.46956 0.58453 0.2986 0.0
N628 N 0.44839 0.54189 0.27107 0.0
N629 N 0.43204 0.50883 0.2434 0.0
N630 N 0.48001 0.55917 0.24691 0.0
C631 C 0.4268 0.51396 0.26087 0.0
C632 C 0.45881 0.53146 0.23636 0.0
C633 C 0.47501 0.5646 0.26425 0.0
C634 C 0.39778 0.49005 0.26897 0.0
C635 C 0.3928 0.49708 0.28681 0.0
C636 C 0.36565 0.47532 0.29469 0.0
C637 C 0.34262 0.44574 0.28504 0.0
C638 C 0.34745 0.43851 0.26719 0.0
C639 C 0.37478 0.46043 0.25923 0.0
C640 C 0.46492 0.52703 0.21725 0.0
C641 C 0.44166 0.50146 0.20482 0.0
C642 C 0.44748 0.49896 0.18661 0.0
C643 C 0.4766 0.52201 0.1805 0.0
C644 C 0.50006 0.54695 0.19307 0.0
C645 C 0.49431 0.54945 0.21114 0.0
C646 C 0.49765 0.59541 0.27542 0.0
C647 C 0.52577 0.61888 0.26863 0.0
C648 C 0.54315 0.0334 0.05471 0.0
Eu649 Eu 0.51911 0.01728 0.02081 0.0
C650 C 0.53178 0.02413 0.07261 0.0
C651 C 0.50005 0.01461 0.076 0.0
C652 C 0.48965 0.00547 0.09306 0.0
C653 C 0.51087 0.00578 0.10702 0.0
C654 C 0.54258 0.01521 0.10346 0.0
C655 C 0.55289 0.02427 0.08642 0.0
C656 C 0.49948 0.04906 0.99966 0.0
C657 C 0.44188 0.96283 0.01787 0.0
C658 C 0.45982 0.96373 0.9499 0.0
Eu659 Eu 0.48273 0.98023 0.98396 0.0
C660 C 0.47193 0.9742 0.9323 0.0
C661 C 0.45918 0.95184 0.91679 0.0
C662 C 0.46998 0.96136 0.89989 0.0
C663 C 0.49372 0.99353 0.89816 0.0
C664 C 0.50698 0.01573 0.91388 0.0
C665 C 0.4962 0.00614 0.9308 0.0
C666 C 0.50331 0.94911 0.00513 0.0
C667 C 0.55967 0.03467 0.9868 0.0
O668 O 0.54464 0.01138 0.04417 0.0
O669 O 0.53173 0.04895 0.0459 0.0
O670 O 0.52626 0.06325 0.01022 0.0
O671 O 0.48338 0.0193 0.00158 0.0
O672 O 0.46956 0.98025 0.02816 0.0
O673 O 0.4399 0.96131 0.99995 0.0
O674 O 0.45613 0.98426 0.96052 0.0
O675 O 0.47257 0.9494 0.95873 0.0
O676 O 0.47624 0.93451 0.99482 0.0
O677 O 0.51884 0.97875 0.00299 0.0
O678 O 0.53183 0.01797 0.97662 0.0
O679 O 0.56182 0.03553 0.0047 0.0
H680 H 0.48337 0.01436 0.0655 0.0
H681 H 0.46516 -0.00144 0.09537 0.0
H682 H 0.55938 0.01514 0.11377 0.0
H683 H 0.57738 0.03128 0.08401 0.0
H684 H 0.4407 0.927 0.91773 0.0
H685 H 0.45964 0.94349 0.88815 0.0
H686 H 0.52505 0.04074 0.91304 0.0
H687 H 0.50653 0.02377 0.94265 0.0
C688 C 0.96808 0.505 0.05132 0.0
Eu689 Eu 0.98295 0.49884 0.01865 0.0
C690 C 0.98096 0.50602 0.06988 0.0
C691 C 0.95985 0.49451 0.08337 0.0
C692 C 0.97132 0.49398 0.10098 0.0
C693 C 0.00415 0.50501 0.10538 0.0
C694 C 0.02527 0.5165 0.09178 0.0
C695 C 0.01373 0.51689 0.07413 0.0
C696 C 0.9477 0.44425 0.99585 0.0
C697 C 0.03801 0.47863 0.01942 0.0
C698 C 0.02527 0.48589 0.95175 0.0
Eu699 Eu 0.01256 0.49634 0.98434 0.0
C700 C 0.01672 0.48828 0.93278 0.0
C701 C 0.04102 0.50106 0.92107 0.0
C702 C 0.03354 0.50261 0.90282 0.0
C703 C 0.00153 0.49116 0.89596 0.0
C704 C 0.97726 0.47892 0.90781 0.0
C705 C 0.9848 0.47764 0.92612 0.0
C706 C 0.04866 0.5512 0.00691 0.0
C707 C 0.95905 0.51919 0.98395 0.0
O708 O 0.98545 0.52959 0.0423 0.0
O709 O 0.95604 0.47723 0.04148 0.0
O710 O 0.93551 0.45908 0.0046 0.0
O711 O 0.97773 0.45837 0.99972 0.0
O712 O 0.02488 0.4928 0.0286 0.0
O713 O 0.03259 0.47251 0.00159 0.0
O714 O 0.00282 0.46346 0.96017 0.0
O715 O 0.04256 0.51322 0.962 0.0
O716 O 0.06052 0.53729 0.99703 0.0
O717 O 0.01848 0.53701 0.00356 0.0
O718 O 0.97315 0.50637 0.97447 0.0
O719 O 0.9627 0.52294 0.00186 0.0
H720 H 0.93445 0.48584 0.08025 0.0
H721 H 0.95458 0.48543 0.11123 0.0
H722 H 0.05063 0.52489 0.09476 0.0
H723 H 0.03033 0.52553 0.06381 0.0
H724 H 0.06579 0.50944 0.926 0.0
H725 H 0.05266 0.51188 0.89395 0.0
H726 H 0.95244 0.47027 0.90289 0.0
H727 H 0.96568 0.46803 0.93497 0.0
C728 C 0.45386 0.47818 0.9512 0.0
Eu729 Eu 0.47962 0.4942 0.98476 0.0
C730 C 0.46615 0.4788 0.93339 0.0
C731 C 0.45352 0.4871 0.91852 0.0
C732 C 0.46583 0.48907 0.9017 0.0
C733 C 0.49103 0.48275 0.89948 0.0
C734 C 0.50371 0.47456 0.91447 0.0
C735 C 0.49141 0.47264 0.93126 0.0
C736 C 0.50204 0.55247 0.00353 0.0
C737 C 0.55685 0.51936 0.98577 0.0
C738 C 0.54589 0.52452 0.05455 0.0
Eu739 Eu 0.51971 0.50586 0.0211 0.0
C740 C 0.53423 0.52231 0.07262 0.0
C741 C 0.50323 0.49794 0.07561 0.0
C742 C 0.49222 0.49692 0.09278 0.0
C743 C 0.51198 0.52039 0.10717 0.0
C744 C 0.54307 0.54459 0.10406 0.0
C745 C 0.55405 0.54553 0.08694 0.0
C746 C 0.49785 0.4477 0.00245 0.0
C747 C 0.44213 0.4798 0.01999 0.0
O748 O 0.45416 0.45743 0.9618 0.0
O749 O 0.46351 0.50648 0.95996 0.0
O750 O 0.47386 0.53646 0.9944 0.0
O751 O 0.51745 0.53781 0.00173 0.0
O752 O 0.52806 0.50347 0.97646 0.0
O753 O 0.56047 0.52722 0.00351 0.0
O754 O 0.54087 0.54299 0.04418 0.0
O755 O 0.5401 0.49739 0.04571 0.0
O756 O 0.52508 0.46283 0.01255 0.0
O757 O 0.4823 0.46224 0.00396 0.0
O758 O 0.4708 0.49484 0.02944 0.0
O759 O 0.43864 0.47298 0.00216 0.0
H760 H 0.43415 0.49214 0.91993 0.0
H761 H 0.45527 0.49504 0.89037 0.0
H762 H 0.52338 0.46994 0.91328 0.0
H763 H 0.50181 0.46656 0.94258 0.0
H764 H 0.48748 0.47989 0.06466 0.0
H765 H 0.46807 0.47816 0.09471 0.0
H766 H 0.55905 0.56275 0.11492 0.0
H767 H 0.57801 0.56452 0.08486 0.0
C768 C 0.2107 0.36834 0.38774 0.0
Eu769 Eu 0.18728 0.3504 0.35381 0.0
C770 C 0.19927 0.35792 0.40552 0.0
C771 C 0.16785 0.3492 0.40927 0.0
C772 C 0.15748 0.33936 0.42623 0.0
C773 C 0.17837 0.33815 0.43979 0.0
C774 C 0.20973 0.34666 0.43588 0.0
C775 C 0.22003 0.35643 0.41893 0.0
C776 C 0.16868 0.38172 0.33156 0.0
C777 C 0.11005 0.29652 0.3509 0.0
C778 C 0.12797 0.29453 0.28306 0.0
Eu779 Eu 0.15093 0.3122 0.31704 0.0
C780 C 0.13905 0.30643 0.26554 0.0
C781 C 0.12807 0.28451 0.24987 0.0
C782 C 0.13852 0.29526 0.23311 0.0
C783 C 0.16019 0.32821 0.23171 0.0
C784 C 0.17152 0.35007 0.24756 0.0
C785 C 0.16103 0.33926 0.26433 0.0
C786 C 0.16886 0.28049 0.33935 0.0
C787 C 0.22774 0.3661 0.31981 0.0
O788 O 0.21533 0.34829 0.37734 0.0
O789 O 0.19706 0.38168 0.3787 0.0
O790 O 0.19545 0.39606 0.34214 0.0
O791 O 0.15229 0.35225 0.33398 0.0
O792 O 0.13777 0.31351 0.36121 0.0
O793 O 0.10817 0.29484 0.33297 0.0
O794 O 0.12141 0.31267 0.29386 0.0
O795 O 0.14383 0.28296 0.29165 0.0
O796 O 0.14311 0.26615 0.32799 0.0
O797 O 0.1855 0.31 0.33706 0.0
O798 O 0.19973 0.35056 0.30974 0.0
O799 O 0.22985 0.36628 0.33768 0.0
H800 H 0.15139 0.35019 0.39913 0.0
H801 H 0.13329 0.33323 0.42881 0.0
H802 H 0.22626 0.34543 0.44588 0.0
H803 H 0.24427 0.36282 0.41628 0.0
H804 H 0.11137 0.25903 0.25059 0.0
H805 H 0.1297 0.27771 0.22123 0.0
H806 H 0.18794 0.37563 0.24695 0.0
H807 H 0.16992 0.35657 0.27633 0.0
C808 C 0.65119 0.85687 0.3878 0.0
Eu809 Eu 0.65651 0.84003 0.35467 0.0
C810 C 0.65757 0.85093 0.40646 0.0
C811 C 0.6322 0.83738 0.41749 0.0
C812 C 0.63795 0.83322 0.43554 0.0
C813 C 0.66927 0.84289 0.44292 0.0
C814 C 0.69453 0.85569 0.43176 0.0
C815 C 0.68874 0.85956 0.41366 0.0
C816 C 0.61895 0.78032 0.33695 0.0
C817 C 0.70971 0.81662 0.35407 0.0
C818 C 0.68222 0.81032 0.28571 0.0
Eu819 Eu 0.67836 0.82848 0.31882 0.0
C820 C 0.6726 0.81427 0.26729 0.0
C821 C 0.6946 0.82289 0.2542 0.0
C822 C 0.68593 0.82647 0.23657 0.0
C823 C 0.65501 0.82133 0.23171 0.0
C824 C 0.63315 0.81319 0.24493 0.0
C825 C 0.64189 0.80976 0.26259 0.0
C826 C 0.7161 0.88839 0.33629 0.0
C827 C 0.62614 0.853 0.31946 0.0
O828 O 0.6761 0.87413 0.37902 0.0
O829 O 0.6277 0.83238 0.37751 0.0
O830 O 0.60777 0.79597 0.3459 0.0
O831 O 0.64922 0.79601 0.33845 0.0
O832 O 0.69749 0.83157 0.36346 0.0
O833 O 0.70206 0.80837 0.33642 0.0
O834 O 0.6591 0.79224 0.29542 0.0
O835 O 0.70522 0.83652 0.29511 0.0
O836 O 0.72708 0.8728 0.32706 0.0
O837 O 0.68581 0.87263 0.33505 0.0
O838 O 0.63738 0.837 0.31015 0.0
O839 O 0.63441 0.86173 0.33706 0.0
H840 H 0.60799 0.8306 0.41223 0.0
H841 H 0.61811 0.82357 0.44391 0.0
H842 H 0.71886 0.86306 0.43709 0.0
H843 H 0.70877 0.86982 0.40545 0.0
H844 H 0.71843 0.82655 0.25759 0.0
H845 H 0.70313 0.83234 0.2266 0.0
H846 H 0.60925 0.80936 0.2416 0.0
H847 H 0.62455 0.80333 0.2725 0.0
C848 C 0.11885 0.80015 0.28334 0.0
Eu849 Eu 0.14515 0.82002 0.31674 0.0
C850 C 0.12996 0.80618 0.26517 0.0
C851 C 0.16131 0.83065 0.26292 0.0
C852 C 0.17189 0.8354 0.24556 0.0
C853 C 0.15117 0.81589 0.23018 0.0
C854 C 0.11971 0.79154 0.23259 0.0
C855 C 0.10925 0.78673 0.24993 0.0
C856 C 0.16597 0.8782 0.33503 0.0
C857 C 0.22333 0.84873 0.31803 0.0
C858 C 0.21101 0.84729 0.3868 0.0
Eu859 Eu 0.18535 0.83229 0.3532 0.0
C860 C 0.19927 0.84802 0.40462 0.0
C861 C 0.21209 0.84042 0.41972 0.0
C862 C 0.20007 0.8394 0.43656 0.0
C863 C 0.17501 0.846 0.43858 0.0
C864 C 0.16223 0.85361 0.42338 0.0
C865 C 0.17421 0.85454 0.40656 0.0
C866 C 0.16388 0.77439 0.33415 0.0
C867 C 0.10828 0.80655 0.35211 0.0
O868 O 0.1294 0.78474 0.29296 0.0
O869 O 0.11955 0.8244 0.29289 0.0
O870 O 0.13935 0.86304 0.32439 0.0
O871 O 0.18189 0.86396 0.33402 0.0
O872 O 0.19481 0.83386 0.30842 0.0
O873 O 0.22649 0.85441 0.33593 0.0
O874 O 0.21255 0.86871 0.37613 0.0
O875 O 0.19929 0.81853 0.37812 0.0
O876 O 0.19216 0.79087 0.34312 0.0
O877 O 0.14804 0.78851 0.33617 0.0
O878 O 0.13709 0.82372 0.36129 0.0
O879 O 0.10475 0.7975 0.33452 0.0
H880 H 0.1776 0.84599 0.27457 0.0
H881 H 0.19616 0.85448 0.24417 0.0
H882 H 0.10331 0.77574 0.22108 0.0
H883 H 0.08504 0.76761 0.25145 0.0
H884 H 0.23129 0.8351 0.41846 0.0
H885 H 0.21069 0.83385 0.44806 0.0
H886 H 0.14266 0.85843 0.42443 0.0
H887 H 0.16364 0.86003 0.39505 0.0
C888 C 0.87044 0.70029 0.7203 0.0
Eu889 Eu 0.84873 0.68261 0.68613 0.0
C890 C 0.85837 0.68828 0.73774 0.0
C891 C 0.82816 0.68263 0.74227 0.0
C892 C 0.81684 0.67023 0.75863 0.0
C893 C 0.83544 0.6631 0.77072 0.0
C894 C 0.86575 0.66904 0.76619 0.0
C895 C 0.87708 0.68154 0.7499 0.0
C896 C 0.83055 0.7139 0.66362 0.0
C897 C 0.77171 0.62834 0.68316 0.0
C898 C 0.79068 0.62679 0.61547 0.0
Eu899 Eu 0.81301 0.6442 0.64957 0.0
C900 C 0.80289 0.63791 0.59801 0.0
C901 C 0.79016 0.61615 0.58225 0.0
C902 C 0.80123 0.62635 0.5655 0.0
C903 C 0.82528 0.65858 0.5642 0.0
C904 C 0.83845 0.68017 0.58015 0.0
C905 C 0.82736 0.66992 0.59691 0.0
C906 C 0.83133 0.61271 0.6719 0.0
C907 C 0.89021 0.6983 0.65266 0.0
O908 O 0.87711 0.68184 0.70988 0.0
O909 O 0.85599 0.71275 0.71115 0.0
O910 O 0.8572 0.72816 0.67429 0.0
O911 O 0.81394 0.68445 0.6661 0.0
O912 O 0.79945 0.6452 0.69341 0.0
O913 O 0.76984 0.6267 0.66524 0.0
O914 O 0.78549 0.64639 0.62595 0.0
O915 O 0.80464 0.61373 0.62446 0.0
O916 O 0.80485 0.59847 0.66108 0.0
O917 O 0.84778 0.64228 0.66958 0.0
O918 O 0.86253 0.68127 0.64236 0.0
O919 O 0.89199 0.70004 0.67058 0.0
H920 H 0.81313 0.68751 0.73312 0.0
H921 H 0.79331 0.66568 0.76166 0.0
H922 H 0.88086 0.66425 0.77534 0.0
H923 H 0.90045 0.68575 0.74672 0.0
H924 H 0.7715 0.59127 0.58288 0.0
H925 H 0.79093 0.60897 0.55355 0.0
H926 H 0.85673 0.70522 0.57963 0.0
H927 H 0.83762 0.68708 0.60896 0.0
C928 C 0.30143 0.17094 0.71986 0.0
Eu929 Eu 0.31534 0.16436 0.68699 0.0
C930 C 0.3145 0.17238 0.73847 0.0
C931 C 0.2936 0.16183 0.7521 0.0
C932 C 0.30524 0.16215 0.76983 0.0
C933 C 0.33806 0.17312 0.77423 0.0
C934 C 0.35897 0.18358 0.76048 0.0
C935 C 0.34724 0.18309 0.7427 0.0
C936 C 0.27991 0.11082 0.66343 0.0
C937 C 0.37079 0.14444 0.68686 0.0
C938 C 0.36052 0.15827 0.61972 0.0
Eu939 Eu 0.34567 0.16423 0.65243 0.0
C940 C 0.34781 0.15632 0.60097 0.0
C941 C 0.3691 0.167 0.58754 0.0
C942 C 0.35777 0.16605 0.56963 0.0
C943 C 0.32489 0.15431 0.56488 0.0
C944 C 0.30359 0.14374 0.57844 0.0
C945 C 0.315 0.14488 0.59639 0.0
C946 C 0.38094 0.21766 0.67617 0.0
C947 C 0.28994 0.1837 0.65243 0.0
O948 O 0.31859 0.19539 0.7107 0.0
O949 O 0.28933 0.14303 0.71015 0.0
O950 O 0.26773 0.124 0.67361 0.0
O951 O 0.31006 0.12505 0.66691 0.0
O952 O 0.35673 0.15712 0.69645 0.0
O953 O 0.36656 0.14035 0.66895 0.0
O954 O 0.3437 0.13365 0.62885 0.0
O955 O 0.37159 0.18611 0.62935 0.0
O956 O 0.39319 0.20441 0.66611 0.0
O957 O 0.35087 0.20348 0.67246 0.0
O958 O 0.30403 0.17099 0.64288 0.0
O959 O 0.29419 0.18794 0.67034 0.0
H960 H 0.26822 0.15333 0.74902 0.0
H961 H 0.28864 0.15436 0.78018 0.0
H962 H 0.38431 0.19188 0.76344 0.0
H963 H 0.36368 0.19098 0.73227 0.0
H964 H 0.39452 0.17605 0.5909 0.0
H965 H 0.37466 0.17396 0.55944 0.0
H966 H 0.27819 0.13486 0.57518 0.0
H967 H 0.29827 0.13689 0.60667 0.0
C968 C 0.78625 0.14256 0.61509 0.0
Eu969 Eu 0.81135 0.16043 0.64876 0.0
C970 C 0.79893 0.14448 0.59729 0.0
C971 C 0.78673 0.15406 0.58283 0.0
C972 C 0.79868 0.15634 0.56589 0.0
C973 C 0.82302 0.14896 0.56312 0.0
C974 C 0.83541 0.13963 0.5777 0.0
C975 C 0.82352 0.13746 0.59464 0.0
C976 C 0.83286 0.21959 0.66627 0.0
C977 C 0.88886 0.18743 0.65014 0.0
C978 C 0.87599 0.1918 0.71866 0.0
Eu979 Eu 0.8509 0.17384 0.68501 0.0
C980 C 0.86375 0.18578 0.73667 0.0
C981 C 0.87648 0.17345 0.74929 0.0
C982 C 0.86563 0.16809 0.76653 0.0
C983 C 0.84192 0.17518 0.77156 0.0
C984 C 0.82877 0.18697 0.75874 0.0
C985 C 0.83953 0.19218 0.74148 0.0
C986 C 0.82882 0.11434 0.66768 0.0
C987 C 0.77321 0.14657 0.68377 0.0
O988 O 0.78916 0.12328 0.62581 0.0
O989 O 0.79287 0.17007 0.62376 0.0
O990 O 0.80486 0.20273 0.65703 0.0
O991 O 0.84877 0.20531 0.66521 0.0
O992 O 0.86018 0.17033 0.64082 0.0
O993 O 0.892 0.19623 0.66773 0.0
O994 O 0.8682 0.20908 0.70883 0.0
O995 O 0.87441 0.16715 0.70907 0.0
O996 O 0.8567 0.13095 0.67704 0.0
O997 O 0.81328 0.12899 0.66869 0.0
O998 O 0.80183 0.16235 0.69322 0.0
O999 O 0.76996 0.13916 0.666 0.0
H1000 H 0.76782 0.15966 0.58462 0.0
H1001 H 0.78839 0.16321 0.55487 0.0
H1002 H 0.85442 0.13415 0.57604 0.0
H1003 H 0.83356 0.13027 0.60563 0.0
H1004 H 0.89501 0.16813 0.74583 0.0
H1005 H 0.87594 0.15853 0.77595 0.0
H1006 H 0.8108 0.1931 0.7622 0.0
H1007 H 0.82913 0.20161 0.73201 0.0
C1008 C 0.35891 0.8968 0.02649 0.0
C1009 C 0.35639 0.90648 0.04439 0.0
H1010 H 0.38753 0.90715 0.00406 0.0
C1011 C 0.38239 0.93525 0.05335 0.0
H1012 H 0.33992 0.87444 0.01922 0.0
C1013 C 0.41011 0.95354 0.04473 0.0
C1014 C 0.41232 0.94387 0.02685 0.0
H1015 H 0.3813 0.94394 0.06697 0.0
H1016 H 0.42965 0.97552 0.05201 0.0
C1017 C 0.38635 0.91545 0.01777 0.0
C1018 C 0.09 0.47186 0.05721 0.0
C1019 C 0.1046 0.45726 0.04763 0.0
H1020 H 0.05754 0.49004 0.05587 0.0
C1021 C 0.09638 0.44894 0.0288 0.0
H1022 H 0.09605 0.47885 0.0717 0.0
C1023 C 0.07445 0.45549 0.01971 0.0
C1024 C 0.0602 0.4705 0.02923 0.0
H1025 H 0.1068 0.43719 0.02108 0.0
H1026 H 0.06886 0.44892 0.00517 0.0
C1027 C 0.06803 0.47841 0.04811 0.0
C1028 C 0.50896 0.63033 0.02313 0.0
C1029 C 0.54063 0.64709 0.03157 0.0
H1030 H 0.47186 0.58702 0.00779 0.0
C1031 C 0.55945 0.63231 0.03094 0.0
H1032 H 0.49382 0.64104 0.02361 0.0
C1033 C 0.54694 0.60146 0.02179 0.0
C1034 C 0.51528 0.58479 0.01335 0.0
H1035 H 0.58401 0.64484 0.03724 0.0
H1036 H 0.56211 0.59079 0.0212 0.0
C1037 C 0.49637 0.59941 0.01415 0.0
C1038 C 0.92398 0.36475 0.9688 0.0
C1039 C 0.89022 0.34952 0.96724 0.0
H1040 H 0.96879 0.40681 0.97921 0.0
C1041 C 0.87575 0.36616 0.97468 0.0
H1042 H 0.93577 0.35242 0.96326 0.0
C1043 C 0.89457 0.39719 0.98369 0.0
C1044 C 0.92824 0.41216 0.98552 0.0
H1045 H 0.84982 0.35526 0.97342 0.0
H1046 H 0.8827 0.40934 0.98936 0.0
C1047 C 0.94284 0.3958 0.97792 0.0
C1048 C 0.60951 0.52925 0.94764 0.0
C1049 C 0.64047 0.54525 0.95702 0.0
H1050 H 0.55902 0.50855 0.94928 0.0
C1051 C 0.64373 0.55347 0.97589 0.0
H1052 H 0.60606 0.52226 0.93315 0.0
C1053 C 0.61668 0.5453 0.9852 0.0
C1054 C 0.58568 0.52875 0.97588 0.0
H1055 H 0.66727 0.56625 0.9835 0.0
H1056 H 0.62013 0.55181 0.99974 0.0
C1057 C 0.58246 0.52111 0.95695 0.0
C1058 C 0.49765 0.11681 0.97751 0.0
C1059 C 0.46638 0.10117 0.96856 0.0
H1060 H 0.53259 0.11242 0.99422 0.0
C1061 C 0.44645 0.06768 0.96908 0.0
H1062 H 0.51366 0.14253 0.9771 0.0
C1063 C 0.45727 0.05041 0.97901 0.0
C1064 C 0.48825 0.06638 0.98835 0.0
H1065 H 0.42218 0.05511 0.96237 0.0
H1066 H 0.44116 0.02482 0.97971 0.0
C1067 C 0.50849 0.09958 0.98727 0.0
C1068 C 0.64379 0.09809 0.97816 0.0
C1069 C 0.64506 0.08908 0.95988 0.0
H1070 H 0.61613 0.08781 0.00101 0.0
C1071 C 0.61783 0.06166 0.95068 0.0
H1072 H 0.66378 0.11946 0.98565 0.0
C1073 C 0.5901 0.04409 0.95942 0.0
C1074 C 0.58914 0.05307 0.97768 0.0
H1075 H 0.61789 0.05348 0.93675 0.0
H1076 H 0.56952 0.02322 0.9519 0.0
C1077 C 0.61632 0.08008 0.98699 0.0
C1078 C 0.9021 0.55077 0.97518 0.0
C1079 C 0.89423 0.54344 0.95629 0.0
H1080 H 0.92879 0.5491 0.99868 0.0
C1081 C 0.90883 0.52913 0.94644 0.0
H1082 H 0.89172 0.56231 0.98312 0.0
C1083 C 0.93036 0.52177 0.95535 0.0
C1084 C 0.93769 0.52852 0.9743 0.0
H1085 H 0.90304 0.52289 0.93189 0.0
H1086 H 0.94077 0.51027 0.9474 0.0
C1087 C 0.92353 0.54337 0.98408 0.0
C1088 C 0.47153 0.38077 0.96487 0.0
C1089 C 0.4611 0.3535 0.97461 0.0
H1090 H 0.49185 0.43219 0.96632 0.0
C1091 C 0.46241 0.35769 0.99367 0.0
H1092 H 0.47152 0.37858 0.95024 0.0
C1093 C 0.47434 0.38847 0.00278 0.0
C1094 C 0.4847 0.4154 0.99295 0.0
H1095 H 0.45422 0.33719 0.00157 0.0
H1096 H 0.47541 0.39126 0.01746 0.0
C1097 C 0.4832 0.41145 0.974 0.0
C1098 C 0.11392 0.63848 0.01733 0.0
C1099 C 0.10826 0.64628 0.03487 0.0
H1100 H 0.09969 0.60207 0.99494 0.0
C1101 C 0.08199 0.62235 0.04286 0.0
H1102 H 0.1333 0.65628 0.01046 0.0
C1103 C 0.06209 0.5916 0.03359 0.0
C1104 C 0.06842 0.58391 0.01636 0.0
H1105 H 0.07715 0.62697 0.05647 0.0
H1106 H 0.04252 0.57355 0.04018 0.0
C1107 C 0.09451 0.60749 0.00832 0.0
C1108 C 0.3893 0.47067 0.05789 0.0
C1109 C 0.35841 0.45463 0.04843 0.0
H1110 H 0.43987 0.49138 0.05639 0.0
C1111 C 0.35523 0.44601 0.02962 0.0
H1112 H 0.39264 0.47796 0.07234 0.0
C1113 C 0.38232 0.45385 0.02042 0.0
C1114 C 0.41327 0.47047 0.02981 0.0
H1115 H 0.33173 0.43319 0.02196 0.0
H1116 H 0.37895 0.44705 0.00591 0.0
C1117 C 0.41641 0.47853 0.04869 0.0
C1118 C 0.50881 0.88269 0.0267 0.0
C1119 C 0.54024 0.89939 0.03547 0.0
H1120 H 0.47244 0.88552 0.01039 0.0
C1121 C 0.55911 0.93295 0.03486 0.0
H1122 H 0.49368 0.85684 0.02714 0.0
C1123 C 0.54704 0.94933 0.02511 0.0
C1124 C 0.51579 0.93243 0.01608 0.0
H1125 H 0.58349 0.94628 0.04141 0.0
H1126 H 0.56238 0.97504 0.02432 0.0
C1127 C 0.49666 0.89908 0.01715 0.0
C1128 C 0.05062 0.2699 0.38638 0.0
C1129 C 0.02368 0.24243 0.37703 0.0
H1130 H 0.09895 0.30842 0.38549 0.0
C1131 C 0.02557 0.23324 0.35891 0.0
H1132 H 0.05003 0.27813 0.40021 0.0
C1133 C 0.05339 0.25113 0.35036 0.0
C1134 C 0.08029 0.27827 0.3598 0.0
H1135 H 0.00577 0.2118 0.35135 0.0
H1136 H 0.05404 0.24322 0.33646 0.0
C1137 C 0.07868 0.28744 0.37791 0.0
C1138 C 0.76724 0.78569 0.36288 0.0
C1139 C 0.77638 0.79459 0.38161 0.0
H1140 H 0.73901 0.78548 0.33953 0.0
C1141 C 0.76305 0.81042 0.39129 0.0
H1142 H 0.77671 0.77303 0.35509 0.0
C1143 C 0.74124 0.81741 0.38239 0.0
C1144 C 0.73228 0.80868 0.36362 0.0
H1145 H 0.76986 0.8179 0.4057 0.0
H1146 H 0.73162 0.82985 0.39023 0.0
C1147 C 0.74545 0.79265 0.35398 0.0
C1148 C 0.19342 0.94442 0.37318 0.0
C1149 C 0.19954 0.97118 0.36371 0.0
H1150 H 0.17736 0.89379 0.37127 0.0
C1151 C 0.19498 0.96695 0.34458 0.0
H1152 H 0.19587 0.94653 0.38789 0.0
C1153 C 0.18402 0.93658 0.3352 0.0
C1154 C 0.17811 0.91018 0.34476 0.0
H1155 H 0.19987 0.98709 0.33684 0.0
H1156 H 0.18037 0.93374 0.32048 0.0
C1157 C 0.18288 0.91422 0.36374 0.0
C1158 C 0.54587 0.70337 0.3155 0.0
C1159 C 0.5598 0.68728 0.30671 0.0
H1160 H 0.55378 0.7455 0.33187 0.0
C1161 C 0.59351 0.70206 0.30801 0.0
H1162 H 0.51999 0.6928 0.31453 0.0
C1163 C 0.61286 0.73228 0.31796 0.0
C1164 C 0.59883 0.7483 0.32665 0.0
H1165 H 0.60489 0.69009 0.30151 0.0
H1166 H 0.63876 0.74305 0.31887 0.0
C1167 C 0.5652 0.73359 0.32535 0.0
C1168 C 0.27714 0.8612 0.28022 0.0
C1169 C 0.30793 0.87793 0.2898 0.0
H1170 H 0.22636 0.8386 0.28158 0.0
C1171 C 0.31068 0.88599 0.30865 0.0
H1172 H 0.27414 0.85432 0.26574 0.0
C1173 C 0.28329 0.87683 0.31778 0.0
C1174 C 0.25246 0.85945 0.30828 0.0
H1175 H 0.33408 0.89932 0.3164 0.0
H1176 H 0.28635 0.88321 0.33232 0.0
C1177 C 0.24972 0.85202 0.28935 0.0
C1178 C 0.11566 0.39873 0.30003 0.0
C1179 C 0.13562 0.432 0.29887 0.0
H1180 H 0.11037 0.3567 0.31167 0.0
C1181 C 0.16709 0.44799 0.30758 0.0
H1182 H 0.09123 0.38593 0.29354 0.0
C1183 C 0.17804 0.43134 0.31783 0.0
C1184 C 0.15769 0.39843 0.31962 0.0
H1185 H 0.18308 0.47357 0.3067 0.0
H1186 H 0.20223 0.44443 0.32465 0.0
C1187 C 0.12658 0.38208 0.31042 0.0
C1188 C 0.28299 0.40712 0.28355 0.0
C1189 C 0.31339 0.42324 0.29358 0.0
H1190 H 0.23223 0.37656 0.2839 0.0
C1191 C 0.31547 0.41908 0.31216 0.0
H1192 H 0.28044 0.41002 0.26928 0.0
C1193 C 0.28777 0.40018 0.32063 0.0
C1194 C 0.25731 0.3848 0.3107 0.0
H1195 H 0.33856 0.43066 0.32023 0.0
H1196 H 0.29027 0.39792 0.335 0.0
C1197 C 0.25529 0.38809 0.292 0.0
C1198 C 0.5751 0.8618 0.28196 0.0
C1199 C 0.56162 0.87748 0.29162 0.0
H1200 H 0.60593 0.84174 0.28313 0.0
C1201 C 0.56998 0.88553 0.31046 0.0
H1202 H 0.56887 0.85497 0.26747 0.0
C1203 C 0.5911 0.8778 0.31947 0.0
C1204 C 0.60431 0.8618 0.30985 0.0
H1205 H 0.56034 0.89801 0.31825 0.0
H1206 H 0.59692 0.88426 0.33401 0.0
C1207 C 0.59618 0.85402 0.29097 0.0
C1208 C 0.15845 0.69748 0.31421 0.0
C1209 C 0.12683 0.68038 0.30572 0.0
H1210 H 0.19502 0.74086 0.32973 0.0
C1211 C 0.10752 0.69463 0.30642 0.0
H1212 H 0.17398 0.68721 0.31365 0.0
C1213 C 0.11955 0.7253 0.31569 0.0
C1214 C 0.15116 0.74229 0.32419 0.0
H1215 H 0.08301 0.68184 0.30006 0.0
H1216 H 0.10407 0.73562 0.31628 0.0
C1217 C 0.17053 0.7282 0.32332 0.0
C1218 C 0.78831 0.97085 0.35082 0.0
C1219 C 0.77635 0.98407 0.36362 0.0
H1220 H 0.77884 0.93009 0.33254 0.0
C1221 C 0.74362 0.96574 0.36658 0.0
H1222 H 0.8129 0.98436 0.34752 0.0
C1223 C 0.72371 0.93511 0.35721 0.0
C1224 C 0.7363 0.92154 0.34524 0.0
H1225 H 0.73331 0.97456 0.37641 0.0
H1226 H 0.69861 0.92183 0.35961 0.0
C1227 C 0.76867 0.93977 0.342 0.0
C1228 C 0.02137 0.7728 0.36182 0.0
C1229 C 0.02466 0.78184 0.38059 0.0
H1230 H 0.045 0.7734 0.33812 0.0
C1231 C 0.0556 0.79809 0.38999 0.0
H1232 H 0.99783 0.75984 0.35421 0.0
C1233 C 0.08264 0.80576 0.38077 0.0
C1234 C 0.07942 0.79735 0.36193 0.0
H1235 H 0.05905 0.80569 0.4044 0.0
H1236 H 0.10609 0.81861 0.38844 0.0
C1237 C 0.04842 0.78046 0.35259 0.0
C1238 C 0.1956 0.22149 0.3498 0.0
C1239 C 0.20039 0.22595 0.36892 0.0
H1240 H 0.18147 0.23527 0.32553 0.0
C1241 C 0.19618 0.24988 0.37817 0.0
H1242 H 0.19931 0.20381 0.3422 0.0
C1243 C 0.1866 0.26832 0.3685 0.0
C1244 C 0.181 0.26297 0.34952 0.0
H1245 H 0.19919 0.25361 0.39288 0.0
H1246 H 0.18233 0.28577 0.37588 0.0
C1247 C 0.18562 0.23958 0.34022 0.0
C1248 C 0.68776 0.56474 0.69204 0.0
C1249 C 0.6865 0.5741 0.71026 0.0
H1250 H 0.71537 0.57468 0.66917 0.0
C1251 C 0.71347 0.60202 0.71924 0.0
H1252 H 0.66791 0.54303 0.68472 0.0
C1253 C 0.74103 0.61964 0.71039 0.0
C1254 C 0.74213 0.61019 0.69224 0.0
H1255 H 0.71336 0.61048 0.7331 0.0
H1256 H 0.76142 0.64086 0.71775 0.0
C1257 C 0.7151 0.58277 0.6831 0.0
C1258 C 0.42171 0.13514 0.72422 0.0
C1259 C 0.43658 0.1212 0.71433 0.0
H1260 H 0.38929 0.1534 0.72336 0.0
C1261 C 0.4289 0.11415 0.69541 0.0
H1262 H 0.42735 0.14118 0.73879 0.0
C1263 C 0.40726 0.12134 0.68654 0.0
C1264 C 0.39273 0.13569 0.69639 0.0
H1265 H 0.43952 0.10291 0.68743 0.0
H1266 H 0.40208 0.11575 0.67193 0.0
C1267 C 0.4 0.14229 0.71535 0.0
C1268 C 0.83852 0.29846 0.68274 0.0
C1269 C 0.86663 0.31324 0.69499 0.0
H1270 H 0.80558 0.25712 0.66441 0.0
C1271 C 0.8842 0.29714 0.69702 0.0
H1272 H 0.82479 0.31029 0.68017 0.0
C1273 C 0.87385 0.26723 0.6872 0.0
C1274 C 0.84505 0.25207 0.67572 0.0
H1275 H 0.90569 0.30718 0.70641 0.0
H1276 H 0.88818 0.25578 0.68883 0.0
C1277 C 0.82762 0.26804 0.67346 0.0
C1278 C 0.21704 0.02272 0.65348 0.0
C1279 C 0.22132 0.01577 0.63545 0.0
H1280 H 0.23203 0.05851 0.67628 0.0
C1281 C 0.24596 0.04058 0.62694 0.0
H1282 H 0.19899 0.00425 0.66073 0.0
C1283 C 0.26561 0.07138 0.63619 0.0
C1284 C 0.26054 0.07818 0.65392 0.0
H1285 H 0.24966 0.03656 0.61297 0.0
H1286 H 0.28395 0.09014 0.62925 0.0
C1287 C 0.23612 0.05373 0.6625 0.0
C1288 C 0.97612 0.22212 0.64097 0.0
C1289 C 0.97331 0.21348 0.62218 0.0
H1290 H 0.95189 0.22079 0.66451 0.0
C1291 C 0.94253 0.19711 0.61258 0.0
H1292 H -0.00048 0.23517 0.64873 0.0
C1293 C 0.91519 0.18894 0.62163 0.0
C1294 C 0.91797 0.197 0.64049 0.0
H1295 H 0.93946 0.18983 0.59815 0.0
H1296 H 0.89185 0.176 0.61382 0.0
C1297 C 0.9488 0.21399 0.65001 0.0
C1298 C 0.77718 0.73284 0.63365 0.0
C1299 C 0.79782 0.76594 0.63221 0.0
H1300 H 0.77136 0.69029 0.64494 0.0
C1301 C 0.82985 0.78092 0.64001 0.0
H1302 H 0.75234 0.72072 0.62786 0.0
C1303 C 0.84061 0.76364 0.6498 0.0
C1304 C 0.81962 0.731 0.65194 0.0
H1305 H 0.84647 0.80625 0.63883 0.0
H1306 H 0.86523 0.77605 0.656 0.0
C1307 C 0.78801 0.71549 0.64348 0.0
C1308 C 0.97421 0.76233 0.6442 0.0
C1309 C 0.97556 0.75369 0.62587 0.0
H1310 H 0.94654 0.75147 0.66704 0.0
C1311 C 0.94857 0.72608 0.61663 0.0
H1312 H 0.99402 0.7838 0.65172 0.0
C1313 C 0.92094 0.70805 0.62536 0.0
C1314 C 0.91982 0.71677 0.64364 0.0
H1315 H 0.94873 0.7182 0.60265 0.0
H1316 H 0.9005 0.68712 0.61779 0.0
C1317 C 0.94683 0.7439 0.65301 0.0
C1318 C 0.23203 0.2142 0.64351 0.0
C1319 C 0.22528 0.20799 0.62452 0.0
H1320 H 0.25774 0.21158 0.66719 0.0
C1321 C 0.24047 0.19428 0.61474 0.0
H1322 H 0.22111 0.2252 0.65142 0.0
C1323 C 0.26168 0.18665 0.62377 0.0
C1324 C 0.26815 0.19256 0.64279 0.0
H1325 H 0.23552 0.18885 0.60012 0.0
H1326 H 0.27272 0.17582 0.61583 0.0
C1327 C 0.2532 0.20655 0.65255 0.0
C1328 C 0.82054 0.03336 0.65376 0.0
C1329 C 0.79209 0.01815 0.64177 0.0
H1330 H 0.85471 0.07583 0.67092 0.0
C1331 C 0.77516 0.03472 0.63907 0.0
H1332 H 0.8338 0.02123 0.65685 0.0
C1333 C 0.78652 0.06558 0.64794 0.0
C1334 C 0.81568 0.08111 0.65911 0.0
H1335 H 0.7534 0.02429 0.62986 0.0
H1336 H 0.77267 0.07741 0.64585 0.0
C1337 C 0.83245 0.06464 0.66206 0.0
C1338 C 0.4161 0.28869 0.71217 0.0
C1339 C 0.43951 0.31351 0.70306 0.0
H1340 H 0.37905 0.2388 0.71067 0.0
C1341 C 0.44246 0.30632 0.6848 0.0
H1342 H 0.41347 0.29294 0.72632 0.0
C1343 C 0.42333 0.27505 0.67612 0.0
C1344 C 0.4002 0.25057 0.68531 0.0
H1345 H 0.45955 0.32479 0.67713 0.0
H1346 H 0.42641 0.27006 0.66215 0.0
C1347 C 0.3964 0.25759 0.70329 0.0
C1348 C 0.68611 0.11047 0.69368 0.0
C1349 C 0.6893 0.11863 0.71255 0.0
H1350 H 0.70988 0.11281 0.66978 0.0
C1351 C 0.72028 0.13528 0.7219 0.0
H1352 H 0.66256 0.09722 0.68609 0.0
C1353 C 0.74741 0.1441 0.71256 0.0
C1354 C 0.74425 0.13649 0.69363 0.0
H1355 H 0.72368 0.14228 0.73639 0.0
H1356 H 0.77089 0.15722 0.72021 0.0
C1357 C 0.71325 0.11931 0.68432 0.0
C1358 C 0.88154 0.59563 0.70564 0.0
C1359 C 0.86322 0.56167 0.70515 0.0
H1360 H 0.88647 0.63823 0.69498 0.0
C1361 C 0.83426 0.54501 0.69363 0.0
H1362 H 0.90374 0.60949 0.71445 0.0
C1363 C 0.82378 0.56176 0.68311 0.0
C1364 C 0.84233 0.59549 0.68347 0.0
H1365 H 0.81983 0.51887 0.69237 0.0
H1366 H 0.80138 0.54815 0.67442 0.0
C1367 C 0.87141 0.61228 0.69471 0.0
C1368 C 0.51209 0.00279 0.15808 0.0
C1369 C 0.48225 0.9752 0.15978 0.0
H1370 H 0.54419 0.03437 0.14025 0.0
C1371 C 0.46087 0.95892 0.14407 0.0
H1372 H 0.52883 0.01623 0.16996 0.0
C1373 C 0.46975 0.96926 0.12696 0.0
C1374 C 0.50017 0.99613 0.12523 0.0
H1375 H 0.4378 0.93745 0.14493 0.0
H1376 H 0.45327 0.95549 0.11504 0.0
C1377 C 0.52092 0.01313 0.14104 0.0
C1378 C 0.05435 0.53482 0.15086 0.0
C1379 C 0.03673 0.50897 0.16114 0.0
H1380 H 0.05782 0.5538 0.12517 0.0
C1381 C 0.00949 0.48089 0.15265 0.0
H1382 H 0.07565 0.55662 0.15703 0.0
C1383 C -0.00069 0.47924 0.13439 0.0
C1384 C 0.01634 0.50555 0.12427 0.0
H1385 H 0.99542 0.46068 0.16029 0.0
H1386 H 0.97787 0.45756 0.12823 0.0
C1387 C 0.04431 0.53309 0.13259 0.0
C1388 C 0.47519 0.49137 0.15123 0.0
C1389 C 0.48291 0.52072 0.16113 0.0
H1390 H 0.47861 0.46823 0.12642 0.0
C1391 C 0.49825 0.54945 0.15267 0.0
H1392 H 0.46352 0.46886 0.15739 0.0
C1393 C 0.50694 0.54911 0.13506 0.0
C1394 C 0.50043 0.52003 0.12539 0.0
H1395 H 0.50383 0.57237 0.15975 0.0
H1396 H 0.51896 0.57175 0.12903 0.0
C1397 C 0.48386 0.49103 0.13351 0.0
C1398 C 0.96078 0.46101 0.84808 0.0
C1399 C 0.97914 0.48784 0.83861 0.0
H1400 H 0.95344 0.44116 0.87364 0.0
C1401 C 0.00445 0.51623 0.84821 0.0
H1402 H 0.94087 0.43896 0.84106 0.0
C1403 C 0.01165 0.51749 0.86689 0.0
C1404 C 0.99336 0.49053 0.87632 0.0
H1405 H 0.01897 0.53723 0.84121 0.0
H1406 H 0.03145 0.53954 0.87399 0.0
C1407 C 0.96774 0.46238 0.86675 0.0
C1408 C 0.51792 0.50782 0.85299 0.0
C1409 C 0.52287 0.48275 0.8463 0.0
H1410 H 0.50403 0.52755 0.8751 0.0
C1411 C 0.51902 0.45881 0.85759 0.0
H1412 H 0.52053 0.5265 0.84455 0.0
C1413 C 0.50941 0.45927 0.87497 0.0
C1414 C 0.50333 0.48366 0.88146 0.0
H1415 H 0.52297 0.43935 0.85287 0.0
H1416 H 0.50576 0.4399 0.88311 0.0
C1417 C 0.50813 0.5082 0.87038 0.0
C1418 C 0.48835 0.00396 0.84798 0.0
C1419 C 0.5203 0.02685 0.84556 0.0
H1420 H 0.45493 0.97601 0.86634 0.0
C1421 C 0.54393 0.03757 0.8604 0.0
H1422 H 0.46961 0.99484 0.83677 0.0
C1423 C 0.53554 0.02642 0.87743 0.0
C1424 C 0.50336 0.00418 0.87993 0.0
H1425 H 0.56874 0.05529 0.85899 0.0
H1426 H 0.55422 0.03535 0.88865 0.0
C1427 C 0.47998 0.99285 0.86492 0.0
C1428 C 0.17985 0.33367 0.49077 0.0
C1429 C 0.14934 0.307 0.49245 0.0
H1430 H 0.21266 0.36468 0.473 0.0
C1431 C 0.12765 0.2917 0.47675 0.0
H1432 H 0.1969 0.3464 0.50264 0.0
C1433 C 0.13676 0.30212 0.45968 0.0
C1434 C 0.16774 0.32812 0.45796 0.0
H1435 H 0.10406 0.27092 0.47758 0.0
H1436 H 0.11992 0.28914 0.44778 0.0
C1437 C 0.18892 0.3441 0.47377 0.0
C1438 C 0.66238 0.81407 0.48993 0.0
C1439 C 0.6871 0.8419 0.50027 0.0
H1440 H 0.63716 0.79261 0.4635 0.0
C1441 C 0.70653 0.86938 0.49154 0.0
H1442 H 0.6471 0.79261 0.49639 0.0
C1443 C 0.70111 0.86929 0.47286 0.0
C1444 C 0.67595 0.84181 0.46253 0.0
H1445 H 0.72596 0.89103 0.4992 0.0
H1446 H 0.71614 0.89105 0.46657 0.0
C1447 C 0.65665 0.81413 0.4712 0.0
C1448 C 0.14768 0.82202 0.48512 0.0
C1449 C 0.14286 0.8473 0.49155 0.0
H1450 H 0.16158 0.80173 0.46329 0.0
C1451 C 0.14714 0.87119 0.4801 0.0
H1452 H 0.14475 0.80339 0.49368 0.0
C1453 C 0.15692 0.87036 0.46279 0.0
C1454 C 0.16277 0.84568 0.45656 0.0
H1455 H 0.14331 0.8908 0.48462 0.0
H1456 H 0.1608 0.8896 0.4545 0.0
C1457 C 0.15766 0.82129 0.46782 0.0
C1458 C 0.65751 0.84639 0.184 0.0
C1459 C 0.62843 0.82074 0.17533 0.0
H1460 H 0.68876 0.86677 0.20878 0.0
C1461 C 0.60716 0.79675 0.18562 0.0
H1462 H 0.67436 0.86511 0.17634 0.0
C1463 C 0.61534 0.79767 0.20409 0.0
C1464 C 0.64505 0.8225 0.21262 0.0
H1465 H 0.58444 0.77688 0.17928 0.0
H1466 H 0.59893 0.77822 0.21152 0.0
C1467 C 0.66584 0.84717 0.20248 0.0
C1468 C 0.15064 0.81909 0.17918 0.0
C1469 C 0.18057 0.82243 0.17598 0.0
H1470 H 0.11818 0.81497 0.19874 0.0
C1471 C 0.20188 0.82621 0.19092 0.0
H1472 H 0.13393 0.81678 0.16798 0.0
C1473 C 0.1928 0.82513 0.20861 0.0
C1474 C 0.16223 0.82025 0.21169 0.0
H1475 H 0.225 0.82857 0.1889 0.0
H1476 H 0.2092 0.82676 0.21978 0.0
C1477 C 0.14159 0.818 0.1968 0.0
C1478 C 0.15547 0.3392 0.18162 0.0
C1479 C 0.18708 0.36351 0.17961 0.0
H1480 H 0.1222 0.30943 0.19955 0.0
C1481 C 0.21026 0.37531 0.19474 0.0
H1482 H 0.13713 0.3293 0.17017 0.0
C1483 C 0.20173 0.36365 0.21163 0.0
C1484 C 0.1699 0.33982 0.21369 0.0
H1485 H 0.23477 0.39415 0.19364 0.0
H1486 H 0.22004 0.37334 0.22308 0.0
C1487 C 0.14698 0.32754 0.19843 0.0
C1488 C 0.81865 0.61274 0.81048 0.0
C1489 C 0.80529 0.6262 0.82206 0.0
H1490 H 0.83821 0.61353 0.7852 0.0
C1491 C 0.79983 0.65048 0.81607 0.0
H1492 H 0.82249 0.59348 0.81449 0.0
C1493 C 0.80882 0.66196 0.79918 0.0
C1494 C 0.82348 0.6494 0.78799 0.0
H1495 H 0.78977 0.66147 0.82471 0.0
H1496 H 0.80537 0.68146 0.79518 0.0
C1497 C 0.82769 0.62423 0.79369 0.0
C1498 C 0.34382 0.15142 0.82212 0.0
C1499 C 0.37136 0.17964 0.83024 0.0
H1500 H 0.31176 0.12717 0.79795 0.0
C1501 C 0.38891 0.20484 0.81954 0.0
H1502 H 0.32976 0.1317 0.83006 0.0
C1503 C 0.37861 0.2023 0.80122 0.0
C1504 C 0.35043 0.17458 0.79324 0.0
H1505 H 0.41044 0.22673 0.82541 0.0
H1506 H 0.39214 0.22249 0.79346 0.0
C1507 C 0.33338 0.14897 0.8038 0.0
C1508 C 0.79221 0.16164 0.81165 0.0
C1509 C 0.81595 0.17239 0.82643 0.0
H1510 H 0.78164 0.15364 0.7827 0.0
C1511 C 0.84764 0.18166 0.82301 0.0
H1512 H 0.7676 0.15443 0.81384 0.0
C1513 C 0.85578 0.18167 0.80524 0.0
C1514 C 0.83238 0.17219 0.79041 0.0
H1515 H 0.8664 0.1896 0.83411 0.0
H1516 H 0.88071 0.19028 0.80318 0.0
C1517 C 0.80035 0.16157 0.79382 0.0
C1518 C 0.31948 0.17485 0.5167 0.0
C1519 C 0.29249 0.14617 0.50855 0.0
H1520 H 0.35084 0.19997 0.541 0.0
C1521 C 0.27527 0.12091 0.51928 0.0
H1522 H 0.33326 0.19464 0.50873 0.0
C1523 C 0.28531 0.12392 0.53769 0.0
C1524 C 0.31289 0.15219 0.54571 0.0
H1525 H 0.25414 0.09868 0.51339 0.0
H1526 H 0.27202 0.10374 0.5455 0.0
C1527 C 0.32967 0.17778 0.5351 0.0
C1528 C 0.84741 0.12392 0.5201 0.0
C1529 C 0.85245 0.14885 0.50931 0.0
H1530 H 0.8341 0.10439 0.54547 0.0
C1531 C 0.8494 0.17478 0.51667 0.0
H1532 H 0.8499 0.10379 0.51484 0.0
C1533 C 0.84037 0.17516 0.53427 0.0
C1534 C 0.83453 0.14977 0.54488 0.0
H1535 H 0.85298 0.19424 0.50863 0.0
H1536 H 0.83773 0.1952 0.53952 0.0
C1537 C 0.83863 0.12441 0.53769 0.0
C1538 C 0.87678 0.7036 0.52713 0.0
C1539 C 0.85347 0.69391 0.51222 0.0
H1540 H 0.88626 0.69993 0.55526 0.0
C1541 C 0.82124 0.67144 0.51435 0.0
H1542 H 0.90178 0.72098 0.52594 0.0
C1543 C 0.81233 0.65967 0.53109 0.0
C1544 C 0.83541 0.66995 0.54617 0.0
H1545 H 0.80275 0.66314 0.50307 0.0
H1546 H 0.78712 0.64314 0.53232 0.0
C1547 C 0.86782 0.69181 0.54396 0.0
loop_
_geom_bond_atom_site_label_1
_geom_bond_atom_site_label_2
_geom_bond_distance
_geom_bond_site_symmetry_2
_ccdc_geom_bond_type
C0 C1 1.384 . S
C0 H13 0.947 . S
C0 C35 1.382 . S
C1 C0 1.384 . S
C1 C2 1.378 . S
C2 C1 1.378 . S
C2 C3 1.378 . S
C2 H14 0.952 . S
C3 C2 1.378 . S
C3 H15 0.950 . S
C3 C34 1.383 . S
H4 C23 0.947 . S
H5 C24 0.946 . S
H6 C26 0.953 . S
H7 C27 0.945 . S
H8 C29 0.952 . S
H9 C30 0.949 . S
H10 C32 0.950 . S
H11 C33 0.948 . S
H12 C35 0.951 . S
H13 C0 0.947 . S
H14 C2 0.952 . S
H15 C3 0.950 . S
N16 C19 1.382 . S
N16 C21 1.363 . S
N17 C19 1.371 . S
N17 C20 1.372 . S
N18 C20 1.361 . S
N18 C21 1.377 . S
C19 N16 1.382 . S
C19 N17 1.371 . S
C19 C22 1.480 . S
C20 N17 1.372 . S
C20 N18 1.361 . S
C20 C28 1.457 . S
C21 N16 1.363 . S
C21 N18 1.377 . S
C21 C34 1.479 . S
C22 C19 1.480 . S
C22 C23 1.383 . S
C22 C27 1.385 . S
C23 H4 0.947 . S
C23 C22 1.383 . S
C23 C24 1.388 . S
C24 H5 0.946 . S
C24 C23 1.388 . S
C24 C25 1.384 . S
C25 C24 1.384 . S
C25 C26 1.377 . S
C26 H6 0.953 . S
C26 C25 1.377 . S
C26 C27 1.369 . S
C27 H7 0.945 . S
C27 C22 1.385 . S
C27 C26 1.369 . S
C28 C20 1.457 . S
C28 C29 1.372 . S
C28 C33 1.364 . S
C29 H8 0.952 . S
C29 C28 1.372 . S
C29 C30 1.389 . S
C30 H9 0.949 . S
C30 C29 1.389 . S
C30 C31 1.387 . S
C31 C30 1.387 . S
C31 C32 1.372 . S
C32 H10 0.950 . S
C32 C31 1.372 . S
C32 C33 1.379 . S
C33 H11 0.948 . S
C33 C28 1.364 . S
C33 C32 1.379 . S
C34 C3 1.383 . S
C34 C21 1.479 . S
C34 C35 1.398 . S
C35 C0 1.382 . S
C35 H12 0.951 . S
C35 C34 1.398 . S
C36 C37 1.384 . S
C36 H49 0.947 . S
C36 C71 1.382 . S
C37 C36 1.384 . S
C37 C38 1.378 . S
C38 C37 1.378 . S
C38 C39 1.378 . S
C38 H50 0.952 . S
C39 C38 1.378 . S
C39 H51 0.950 . S
C39 C70 1.383 . S
H40 C59 0.947 . S
H41 C60 0.946 . S
H42 C62 0.953 . S
H43 C63 0.945 . S
H44 C65 0.952 . S
H45 C66 0.949 . S
H46 C68 0.950 . S
H47 C69 0.948 . S
H48 C71 0.951 . S
H49 C36 0.947 . S
H50 C38 0.952 . S
H51 C39 0.950 . S
N52 C55 1.382 . S
N52 C57 1.363 . S
N53 C55 1.371 . S
N53 C56 1.372 . S
N54 C56 1.361 . S
N54 C57 1.377 . S
C55 N52 1.382 . S
C55 N53 1.371 . S
C55 C58 1.480 . S
C56 N53 1.372 . S
C56 N54 1.361 . S
C56 C64 1.457 . S
C57 N52 1.363 . S
C57 N54 1.377 . S
C57 C70 1.479 . S
C58 C55 1.480 . S
C58 C59 1.383 . S
C58 C63 1.385 . S
C59 H40 0.947 . S
C59 C58 1.383 . S
C59 C60 1.388 . S
C60 H41 0.946 . S
C60 C59 1.388 . S
C60 C61 1.384 . S
C61 C60 1.384 . S
C61 C62 1.377 . S
C62 H42 0.953 . S
C62 C61 1.377 . S
C62 C63 1.369 . S
C63 H43 0.945 . S
C63 C58 1.385 . S
C63 C62 1.369 . S
C64 C56 1.457 . S
C64 C65 1.372 . S
C64 C69 1.364 . S
C65 H44 0.952 . S
C65 C64 1.372 . S
C65 C66 1.389 . S
C66 H45 0.949 . S
C66 C65 1.389 . S
C66 C67 1.387 . S
C67 C66 1.387 . S
C67 C68 1.372 . S
C68 H46 0.950 . S
C68 C67 1.372 . S
C68 C69 1.379 . S
C69 H47 0.948 . S
C69 C64 1.364 . S
C69 C68 1.379 . S
C70 C39 1.383 . S
C70 C57 1.479 . S
C70 C71 1.398 . S
C71 C36 1.382 . S
C71 H48 0.951 . S
C71 C70 1.398 . S
C72 C73 1.384 . S
C72 H85 0.947 . S
C72 C107 1.382 . S
C73 C72 1.384 . S
C73 C74 1.378 . S
C74 C73 1.378 . S
C74 C75 1.378 . S
C74 H86 0.952 . S
C75 C74 1.378 . S
C75 H87 0.950 . S
C75 C106 1.383 . S
H76 C95 0.947 . S
H77 C96 0.946 . S
H78 C98 0.984 . S
H79 C99 0.945 . S
H80 C101 0.952 . S
H81 C102 0.949 . S
H82 C104 0.950 . S
H83 C105 0.948 . S
H84 C107 0.951 . S
H85 C72 0.947 . S
H86 C74 0.952 . S
H87 C75 0.950 . S
N88 C91 1.382 . S
N88 C93 1.363 . S
N89 C91 1.371 . S
N89 C92 1.372 . S
N90 C92 1.361 . S
N90 C93 1.377 . S
C91 N88 1.382 . S
C91 N89 1.371 . S
C91 C94 1.480 . S
C92 N89 1.372 . S
C92 N90 1.361 . S
C92 C100 1.457 . S
C93 N88 1.363 . S
C93 N90 1.377 . S
C93 C106 1.479 . S
C94 C91 1.480 . S
C94 C95 1.383 . S
C94 C99 1.385 . S
C95 H76 0.947 . S
C95 C94 1.383 . S
C95 C96 1.388 . S
C96 H77 0.946 . S
C96 C95 1.388 . S
C96 C97 1.384 . S
C97 C96 1.384 . S
C97 C98 1.377 . S
C98 H78 0.984 . S
C98 C97 1.377 . S
C98 C99 1.369 . S
C99 H79 0.945 . S
C99 C94 1.385 . S
C99 C98 1.369 . S
C100 C92 1.457 . S
C100 C101 1.372 . S
C100 C105 1.364 . S
C101 H80 0.952 . S
C101 C100 1.372 . S
C101 C102 1.389 . S
C102 H81 0.949 . S
C102 C101 1.389 . S
C102 C103 1.387 . S
C103 C102 1.387 . S
C103 C104 1.372 . S
C104 H82 0.950 . S
C104 C103 1.372 . S
C104 C105 1.379 . S
C105 H83 0.948 . S
C105 C100 1.364 . S
C105 C104 1.379 . S
C106 C75 1.383 . S
C106 C93 1.479 . S
C106 C107 1.398 . S
C107 C72 1.382 . S
C107 H84 0.951 . S
C107 C106 1.398 . S
C108 C109 1.384 . S
C108 H121 0.913 1_455 S
C108 C143 1.382 . S
C109 C108 1.384 . S
C109 C110 1.378 . S
C110 C109 1.378 . S
C110 C111 1.378 . S
C110 H122 0.952 . S
C111 C110 1.378 . S
C111 H123 0.950 . S
C111 C142 1.383 . S
H112 C131 0.947 . S
H113 C132 0.946 . S
H114 C134 0.953 . S
H115 C135 0.945 . S
H116 C137 0.952 . S
H117 C138 0.949 . S
H118 C140 0.950 . S
H119 C141 0.948 . S
H120 C143 0.951 . S
H121 C108 0.913 1_655 S
H122 C110 0.952 . S
H123 C111 0.950 . S
N124 C127 1.382 . S
N124 C129 1.363 . S
N125 C127 1.371 . S
N125 C128 1.372 . S
N126 C128 1.361 . S
N126 C129 1.377 . S
C127 N124 1.382 . S
C127 N125 1.371 . S
C127 C130 1.480 . S
C128 N125 1.372 . S
C128 N126 1.361 . S
C128 C136 1.457 . S
C129 N124 1.363 . S
C129 N126 1.377 . S
C129 C142 1.479 . S
C130 C127 1.480 . S
C130 C131 1.383 . S
C130 C135 1.385 . S
C131 H112 0.947 . S
C131 C130 1.383 . S
C131 C132 1.388 . S
C132 H113 0.946 . S
C132 C131 1.388 . S
C132 C133 1.384 . S
C133 C132 1.384 . S
C133 C134 1.377 . S
C134 H114 0.953 . S
C134 C133 1.377 . S
C134 C135 1.369 . S
C135 H115 0.945 . S
C135 C130 1.385 . S
C135 C134 1.369 . S
C136 C128 1.457 . S
C136 C137 1.372 . S
C136 C141 1.364 . S
C137 H116 0.952 . S
C137 C136 1.372 . S
C137 C138 1.389 . S
C138 H117 0.949 . S
C138 C137 1.389 . S
C138 C139 1.387 . S
C139 C138 1.387 . S
C139 C140 1.372 . S
C140 H118 0.950 . S
C140 C139 1.372 . S
C140 C141 1.379 . S
C141 H119 0.948 . S
C141 C136 1.364 . S
C141 C140 1.379 . S
C142 C111 1.383 . S
C142 C129 1.479 . S
C142 C143 1.398 . S
C143 C108 1.382 . S
C143 H120 0.951 . S
C143 C142 1.398 . S
C144 C145 1.384 . S
C144 H157 0.947 . S
C144 C179 1.382 . S
C145 C144 1.384 . S
C145 C146 1.378 . S
C146 C145 1.378 . S
C146 C147 1.378 . S
C146 H158 0.952 . S
C147 C146 1.378 . S
C147 H159 0.950 . S
C147 C178 1.383 . S
H148 C167 0.947 . S
H149 C168 0.946 . S
H150 C170 0.953 . S
H151 C171 0.945 . S
H152 C173 0.952 . S
H153 C174 0.949 . S
H154 C176 0.950 . S
H155 C177 0.948 . S
H156 C179 0.951 . S
H157 C144 0.947 . S
H158 C146 0.952 . S
H159 C147 0.950 . S
N160 C163 1.382 . S
N160 C165 1.363 . S
N161 C163 1.371 . S
N161 C164 1.372 . S
N162 C164 1.361 . S
N162 C165 1.377 . S
C163 N160 1.382 . S
C163 N161 1.371 . S
C163 C166 1.480 . S
C164 N161 1.372 . S
C164 N162 1.361 . S
C164 C172 1.457 . S
C165 N160 1.363 . S
C165 N162 1.377 . S
C165 C178 1.479 . S
C166 C163 1.480 . S
C166 C167 1.383 . S
C166 C171 1.385 . S
C167 H148 0.947 . S
C167 C166 1.383 . S
C167 C168 1.388 . S
C168 H149 0.946 . S
C168 C167 1.388 . S
C168 C169 1.384 . S
C169 C168 1.384 . S
C169 C170 1.377 . S
C170 H150 0.953 . S
C170 C169 1.377 . S
C170 C171 1.369 . S
C171 H151 0.945 . S
C171 C166 1.385 . S
C171 C170 1.369 . S
C172 C164 1.457 . S
C172 C173 1.372 . S
C172 C177 1.364 . S
C173 H152 0.952 . S
C173 C172 1.372 . S
C173 C174 1.389 . S
C174 H153 0.949 . S
C174 C173 1.389 . S
C174 C175 1.387 . S
C175 C174 1.387 . S
C175 C176 1.372 . S
C176 H154 0.950 . S
C176 C175 1.372 . S
C176 C177 1.379 . S
C177 H155 0.948 . S
C177 C172 1.364 . S
C177 C176 1.379 . S
C178 C147 1.383 . S
C178 C165 1.479 . S
C178 C179 1.398 . S
C179 C144 1.382 . S
C179 H156 0.951 . S
C179 C178 1.398 . S
C180 C181 1.384 . S
C180 H193 0.947 . S
C180 C215 1.382 . S
C181 C180 1.384 . S
C181 C182 1.378 . S
C182 C181 1.378 . S
C182 C183 1.378 . S
C182 H194 0.952 . S
C183 C182 1.378 . S
C183 H195 0.950 . S
C183 C214 1.383 . S
H184 C203 0.947 . S
H185 C204 0.946 . S
H186 C206 0.953 . S
H187 C207 0.945 . S
H188 C209 0.952 . S
H189 C210 0.949 . S
H190 C212 0.950 . S
H191 C213 0.948 . S
H192 C215 0.951 . S
H193 C180 0.947 . S
H194 C182 0.952 . S
H195 C183 0.950 . S
N196 C199 1.382 . S
N196 C201 1.363 . S
N197 C199 1.371 . S
N197 C200 1.372 . S
N198 C200 1.361 . S
N198 C201 1.377 . S
C199 N196 1.382 . S
C199 N197 1.371 . S
C199 C202 1.480 . S
C200 N197 1.372 . S
C200 N198 1.361 . S
C200 C208 1.457 . S
C201 N196 1.363 . S
C201 N198 1.377 . S
C201 C214 1.479 . S
C202 C199 1.480 . S
C202 C203 1.383 . S
C202 C207 1.385 . S
C203 H184 0.947 . S
C203 C202 1.383 . S
C203 C204 1.388 . S
C204 H185 0.946 . S
C204 C203 1.388 . S
C204 C205 1.384 . S
C205 C204 1.384 . S
C205 C206 1.377 . S
C206 H186 0.953 . S
C206 C205 1.377 . S
C206 C207 1.369 . S
C207 H187 0.945 . S
C207 C202 1.385 . S
C207 C206 1.369 . S
C208 C200 1.457 . S
C208 C209 1.372 . S
C208 C213 1.364 . S
C209 H188 0.952 . S
C209 C208 1.372 . S
C209 C210 1.389 . S
C210 H189 0.949 . S
C210 C209 1.389 . S
C210 C211 1.387 . S
C211 C210 1.387 . S
C211 C212 1.372 . S
C212 H190 0.950 . S
C212 C211 1.372 . S
C212 C213 1.379 . S
C213 H191 0.948 . S
C213 C208 1.364 . S
C213 C212 1.379 . S
C214 C183 1.383 . S
C214 C201 1.479 . S
C214 C215 1.398 . S
C215 C180 1.382 . S
C215 H192 0.951 . S
C215 C214 1.398 . S
C216 C217 1.384 . S
C216 H229 0.947 . S
C216 C251 1.382 . S
C217 C216 1.384 . S
C217 C218 1.378 . S
C218 C217 1.378 . S
C218 C219 1.378 . S
C218 H230 0.952 . S
C219 C218 1.378 . S
C219 H231 0.950 . S
C219 C250 1.383 . S
H220 C239 0.947 . S
H221 C240 0.946 . S
H222 C242 0.953 . S
H223 C243 0.945 . S
H224 C245 0.952 . S
H225 C246 0.949 . S
H226 C248 0.942 1_455 S
H227 C249 0.948 . S
H228 C251 0.951 . S
H229 C216 0.947 . S
H230 C218 0.952 . S
H231 C219 0.950 . S
N232 C235 1.382 . S
N232 C237 1.363 . S
N233 C235 1.371 . S
N233 C236 1.372 . S
N234 C236 1.361 . S
N234 C237 1.377 . S
C235 N232 1.382 . S
C235 N233 1.371 . S
C235 C238 1.480 . S
C236 N233 1.372 . S
C236 N234 1.361 . S
C236 C244 1.457 . S
C237 N232 1.363 . S
C237 N234 1.377 . S
C237 C250 1.479 . S
C238 C235 1.480 . S
C238 C239 1.383 . S
C238 C243 1.385 . S
C239 H220 0.947 . S
C239 C238 1.383 . S
C239 C240 1.388 . S
C240 H221 0.946 . S
C240 C239 1.388 . S
C240 C241 1.384 . S
C241 C240 1.384 . S
C241 C242 1.377 . S
C242 H222 0.953 . S
C242 C241 1.377 . S
C242 C243 1.369 . S
C243 H223 0.945 . S
C243 C238 1.385 . S
C243 C242 1.369 . S
C244 C236 1.457 . S
C244 C245 1.372 . S
C244 C249 1.364 . S
C245 H224 0.952 . S
C245 C244 1.372 . S
C245 C246 1.389 . S
C246 H225 0.949 . S
C246 C245 1.389 . S
C246 C247 1.408 . S
C247 C246 1.408 . S
C247 C248 1.362 . S
C248 H226 0.942 1_655 S
C248 C247 1.362 . S
C248 C249 1.380 . S
C249 H227 0.948 . S
C249 C244 1.364 . S
C249 C248 1.380 . S
C250 C219 1.383 . S
C250 C237 1.479 . S
C250 C251 1.398 . S
C251 C216 1.382 . S
C251 H228 0.951 . S
C251 C250 1.398 . S
C252 C253 1.384 . S
C252 H265 0.947 . S
C252 C287 1.382 . S
C253 C252 1.384 . S
C253 C254 1.378 . S
C254 C253 1.378 . S
C254 C255 1.378 . S
C254 H266 0.952 . S
C255 C254 1.378 . S
C255 H267 0.950 . S
C255 C286 1.383 . S
H256 C275 0.947 . S
H257 C276 0.946 . S
H258 C278 0.953 . S
H259 C279 0.945 . S
H260 C281 0.952 . S
H261 C282 0.949 . S
H262 C284 0.950 . S
H263 C285 0.948 . S
H264 C287 0.951 . S
H265 C252 0.947 . S
H266 C254 0.952 . S
H267 C255 0.950 . S
N268 C271 1.382 . S
N268 C273 1.363 . S
N269 C271 1.371 . S
N269 C272 1.372 . S
N270 C272 1.361 . S
N270 C273 1.377 . S
C271 N268 1.382 . S
C271 N269 1.371 . S
C271 C274 1.480 . S
C272 N269 1.372 . S
C272 N270 1.361 . S
C272 C280 1.457 . S
C273 N268 1.363 . S
C273 N270 1.377 . S
C273 C286 1.479 . S
C274 C271 1.480 . S
C274 C275 1.383 . S
C274 C279 1.385 . S
C275 H256 0.947 . S
C275 C274 1.383 . S
C275 C276 1.388 . S
C276 H257 0.946 . S
C276 C275 1.388 . S
C276 C277 1.384 . S
C277 C276 1.384 . S
C277 C278 1.377 . S
C278 H258 0.953 . S
C278 C277 1.377 . S
C278 C279 1.369 . S
C279 H259 0.945 . S
C279 C274 1.385 . S
C279 C278 1.369 . S
C280 C272 1.457 . S
C280 C281 1.372 . S
C280 C285 1.364 . S
C281 H260 0.952 . S
C281 C280 1.372 . S
C281 C282 1.389 . S
C282 H261 0.949 . S
C282 C281 1.389 . S
C282 C283 1.387 . S
C283 C282 1.387 . S
C283 C284 1.372 . S
C284 H262 0.950 . S
C284 C283 1.372 . S
C284 C285 1.379 . S
C285 H263 0.948 . S
C285 C280 1.364 . S
C285 C284 1.379 . S
C286 C255 1.383 . S
C286 C273 1.479 . S
C286 C287 1.398 . S
C287 C252 1.382 . S
C287 H264 0.951 . S
C287 C286 1.398 . S
C288 C289 1.384 . S
C288 H301 0.947 . S
C288 C323 1.382 . S
C289 C288 1.384 . S
C289 C290 1.378 . S
C290 C289 1.378 . S
C290 C291 1.378 . S
C290 H302 0.952 . S
C291 C290 1.378 . S
C291 H303 0.950 . S
C291 C322 1.383 . S
H292 C311 0.947 . S
H293 C312 0.946 . S
H294 C314 0.953 . S
H295 C315 0.945 . S
H296 C317 0.952 . S
H297 C318 0.949 . S
H298 C320 0.950 . S
H299 C321 0.948 . S
H300 C323 0.951 . S
H301 C288 0.947 . S
H302 C290 0.952 . S
H303 C291 0.950 . S
N304 C307 1.382 . S
N304 C309 1.363 . S
N305 C307 1.371 . S
N305 C308 1.372 . S
N306 C308 1.361 . S
N306 C309 1.377 . S
C307 N304 1.382 . S
C307 N305 1.371 . S
C307 C310 1.480 . S
C308 N305 1.372 . S
C308 N306 1.361 . S
C308 C316 1.457 . S
C309 N304 1.363 . S
C309 N306 1.377 . S
C309 C322 1.479 . S
C310 C307 1.480 . S
C310 C311 1.383 . S
C310 C315 1.385 . S
C311 H292 0.947 . S
C311 C310 1.383 . S
C311 C312 1.388 . S
C312 H293 0.946 . S
C312 C311 1.388 . S
C312 C313 1.384 . S
C313 C312 1.384 . S
C313 C314 1.377 . S
C314 H294 0.953 . S
C314 C313 1.377 . S
C314 C315 1.369 . S
C315 H295 0.945 . S
C315 C310 1.385 . S
C315 C314 1.369 . S
C316 C308 1.457 . S
C316 C317 1.372 . S
C316 C321 1.364 . S
C317 H296 0.952 . S
C317 C316 1.372 . S
C317 C318 1.389 . S
C318 H297 0.949 . S
C318 C317 1.389 . S
C318 C319 1.387 . S
C319 C318 1.387 . S
C319 C320 1.372 . S
C320 H298 0.950 . S
C320 C319 1.372 . S
C320 C321 1.379 . S
C321 H299 0.948 . S
C321 C316 1.364 . S
C321 C320 1.379 . S
C322 C291 1.383 . S
C322 C309 1.479 . S
C322 C323 1.398 . S
C323 C288 1.382 . S
C323 H300 0.951 . S
C323 C322 1.398 . S
C324 C325 1.384 . S
C324 H337 0.947 . S
C324 C359 1.382 . S
C325 C324 1.384 . S
C325 C326 1.378 . S
C326 C325 1.378 . S
C326 C327 1.378 . S
C326 H338 0.952 . S
C327 C326 1.378 . S
C327 H339 0.950 . S
C327 C358 1.383 . S
H328 C347 0.947 . S
H329 C348 0.946 . S
H330 C350 0.953 . S
H331 C351 0.945 . S
H332 C353 0.952 . S
H333 C354 0.949 . S
H334 C356 0.950 . S
H335 C357 0.948 . S
H336 C359 0.951 . S
H337 C324 0.947 . S
H338 C326 0.952 . S
H339 C327 0.950 . S
N340 C343 1.382 . S
N340 C345 1.363 . S
N341 C343 1.371 . S
N341 C344 1.372 . S
N342 C344 1.361 . S
N342 C345 1.377 . S
C343 N340 1.382 . S
C343 N341 1.371 . S
C343 C346 1.480 . S
C344 N341 1.372 . S
C344 N342 1.361 . S
C344 C352 1.457 . S
C345 N340 1.363 . S
C345 N342 1.377 . S
C345 C358 1.479 . S
C346 C343 1.480 . S
C346 C347 1.383 . S
C346 C351 1.385 . S
C347 H328 0.947 . S
C347 C346 1.383 . S
C347 C348 1.388 . S
C348 H329 0.946 . S
C348 C347 1.388 . S
C348 C349 1.384 . S
C349 C348 1.384 . S
C349 C350 1.377 . S
C350 H330 0.953 . S
C350 C349 1.377 . S
C350 C351 1.369 . S
C351 H331 0.945 . S
C351 C346 1.385 . S
C351 C350 1.369 . S
C352 C344 1.457 . S
C352 C353 1.372 . S
C352 C357 1.364 . S
C353 H332 0.952 . S
C353 C352 1.372 . S
C353 C354 1.389 . S
C354 H333 0.949 . S
C354 C353 1.389 . S
C354 C355 1.387 . S
C355 C354 1.387 . S
C355 C356 1.372 . S
C356 H334 0.950 . S
C356 C355 1.372 . S
C356 C357 1.379 . S
C357 H335 0.948 . S
C357 C352 1.364 . S
C357 C356 1.379 . S
C358 C327 1.383 . S
C358 C345 1.479 . S
C358 C359 1.398 . S
C359 C324 1.382 . S
C359 H336 0.951 . S
C359 C358 1.398 . S
C360 C361 1.384 . S
C360 H373 0.947 . S
C360 C395 1.382 . S
C361 C360 1.384 . S
C361 C362 1.378 . S
C362 C361 1.378 . S
C362 C363 1.378 . S
C362 H374 0.902 1_556 S
C363 C362 1.378 . S
C363 H375 0.950 . S
C363 C394 1.383 . S
H364 C383 0.947 . S
H365 C384 0.946 1_554 S
H366 C386 0.953 . S
H367 C387 0.945 . S
H368 C389 0.952 . S
H369 C390 0.949 . S
H370 C392 0.950 . S
H371 C393 0.948 . S
H372 C395 0.951 . S
H373 C360 0.947 . S
H374 C362 0.902 1_554 S
H375 C363 0.950 . S
N376 C379 1.382 . S
N376 C381 1.363 . S
N377 C379 1.371 . S
N377 C380 1.372 . S
N378 C380 1.361 . S
N378 C381 1.377 . S
C379 N376 1.382 . S
C379 N377 1.371 . S
C379 C382 1.480 . S
C380 N377 1.372 . S
C380 N378 1.361 . S
C380 C388 1.457 . S
C381 N376 1.363 . S
C381 N378 1.377 . S
C381 C394 1.479 . S
C382 C379 1.480 . S
C382 C383 1.383 . S
C382 C387 1.385 . S
C383 H364 0.947 . S
C383 C382 1.383 . S
C383 C384 1.388 . S
C384 H365 0.946 1_556 S
C384 C383 1.388 . S
C384 C385 1.384 . S
C385 C384 1.384 . S
C385 C386 1.377 . S
C386 H366 0.953 . S
C386 C385 1.377 . S
C386 C387 1.369 . S
C387 H367 0.945 . S
C387 C382 1.385 . S
C387 C386 1.369 . S
C388 C380 1.457 . S
C388 C389 1.372 . S
C388 C393 1.364 . S
C389 H368 0.952 . S
C389 C388 1.372 . S
C389 C390 1.389 . S
C390 H369 0.949 . S
C390 C389 1.389 . S
C390 C391 1.387 . S
C391 C390 1.387 . S
C391 C392 1.372 . S
C392 H370 0.950 . S
C392 C391 1.372 . S
C392 C393 1.379 . S
C393 H371 0.948 . S
C393 C388 1.364 . S
C393 C392 1.379 . S
C394 C363 1.383 . S
C394 C381 1.479 . S
C394 C395 1.398 . S
C395 C360 1.382 . S
C395 H372 0.951 . S
C395 C394 1.398 . S
C396 C397 1.384 . S
C396 H409 0.947 . S
C396 C431 1.382 . S
C397 C396 1.384 . S
C397 C398 1.378 . S
C398 C397 1.378 . S
C398 C399 1.378 . S
C398 H410 0.952 . S
C399 C398 1.378 . S
C399 H411 0.950 . S
C399 C430 1.383 . S
H400 C419 0.947 . S
H401 C420 0.946 . S
H402 C422 0.953 . S
H403 C423 0.945 . S
H404 C425 0.952 . S
H405 C426 0.949 . S
H406 C428 0.950 . S
H407 C429 0.948 . S
H408 C431 0.951 . S
H409 C396 0.947 . S
H410 C398 0.952 . S
H411 C399 0.950 . S
N412 C415 1.382 . S
N412 C417 1.363 . S
N413 C415 1.371 . S
N413 C416 1.372 . S
N414 C416 1.361 . S
N414 C417 1.377 . S
C415 N412 1.382 . S
C415 N413 1.371 . S
C415 C418 1.480 . S
C416 N413 1.372 . S
C416 N414 1.361 . S
C416 C424 1.457 . S
C417 N412 1.363 . S
C417 N414 1.377 . S
C417 C430 1.479 . S
C418 C415 1.480 . S
C418 C419 1.383 . S
C418 C423 1.385 . S
C419 H400 0.947 . S
C419 C418 1.383 . S
C419 C420 1.388 . S
C420 H401 0.946 . S
C420 C419 1.388 . S
C420 C421 1.384 . S
C421 C420 1.384 . S
C421 C422 1.377 . S
C422 H402 0.953 . S
C422 C421 1.377 . S
C422 C423 1.369 . S
C423 H403 0.945 . S
C423 C418 1.385 . S
C423 C422 1.369 . S
C424 C416 1.457 . S
C424 C425 1.372 . S
C424 C429 1.364 . S
C425 H404 0.952 . S
C425 C424 1.372 . S
C425 C426 1.389 . S
C426 H405 0.949 . S
C426 C425 1.389 . S
C426 C427 1.387 . S
C427 C426 1.387 . S
C427 C428 1.372 . S
C428 H406 0.950 . S
C428 C427 1.372 . S
C428 C429 1.379 . S
C429 H407 0.948 . S
C429 C424 1.364 . S
C429 C428 1.379 . S
C430 C399 1.383 . S
C430 C417 1.479 . S
C430 C431 1.398 . S
C431 C396 1.382 . S
C431 H408 0.951 . S
C431 C430 1.398 . S
C432 C433 1.384 . S
C432 H445 0.947 . S
C432 C467 1.382 . S
C433 C432 1.384 . S
C433 C434 1.378 . S
C434 C433 1.378 . S
C434 C435 1.378 . S
C434 H446 0.893 1_554 S
C435 C434 1.378 . S
C435 H447 0.950 . S
C435 C466 1.383 . S
H436 C455 0.947 . S
H437 C456 0.946 . S
H438 C458 0.953 . S
H439 C459 0.945 . S
H440 C461 0.952 . S
H441 C462 0.949 . S
H442 C464 0.950 . S
H443 C465 0.948 . S
H444 C467 0.951 . S
H445 C432 0.947 . S
H446 C434 0.893 1_556 S
H447 C435 0.950 . S
N448 C451 1.382 . S
N448 C453 1.363 . S
N449 C451 1.371 . S
N449 C452 1.372 . S
N450 C452 1.361 . S
N450 C453 1.377 . S
C451 N448 1.382 . S
C451 N449 1.371 . S
C451 C454 1.480 . S
C452 N449 1.372 . S
C452 N450 1.361 . S
C452 C460 1.457 . S
C453 N448 1.363 . S
C453 N450 1.377 . S
C453 C466 1.479 . S
C454 C451 1.480 . S
C454 C455 1.383 . S
C454 C459 1.385 . S
C455 H436 0.947 . S
C455 C454 1.383 . S
C455 C456 1.388 . S
C456 H437 0.946 . S
C456 C455 1.388 . S
C456 C457 1.384 . S
C457 C456 1.384 . S
C457 C458 1.377 . S
C458 H438 0.953 . S
C458 C457 1.377 . S
C458 C459 1.369 . S
C459 H439 0.945 . S
C459 C454 1.385 . S
C459 C458 1.369 . S
C460 C452 1.457 . S
C460 C461 1.372 . S
C460 C465 1.364 . S
C461 H440 0.952 . S
C461 C460 1.372 . S
C461 C462 1.389 . S
C462 H441 0.949 . S
C462 C461 1.389 . S
C462 C463 1.387 . S
C463 C462 1.387 . S
C463 C464 1.372 . S
C464 H442 0.950 . S
C464 C463 1.372 . S
C464 C465 1.379 . S
C465 H443 0.948 . S
C465 C460 1.364 . S
C465 C464 1.379 . S
C466 C435 1.383 . S
C466 C453 1.479 . S
C466 C467 1.398 . S
C467 C432 1.382 . S
C467 H444 0.951 . S
C467 C466 1.398 . S
C468 C469 1.384 . S
C468 H481 0.947 . S
C468 C503 1.382 . S
C469 C468 1.384 . S
C469 C470 1.378 . S
C470 C469 1.378 . S
C470 C471 1.378 . S
C470 H482 0.952 . S
C471 C470 1.378 . S
C471 H483 0.950 . S
C471 C502 1.383 . S
H472 C491 0.947 . S
H473 C492 0.946 . S
H474 C494 0.953 . S
H475 C495 0.945 . S
H476 C497 0.952 . S
H477 C498 0.949 . S
H478 C500 0.950 . S
H479 C501 0.948 . S
H480 C503 0.951 . S
H481 C468 0.947 . S
H482 C470 0.952 . S
H483 C471 0.950 . S
N484 C487 1.382 . S
N484 C489 1.363 . S
N485 C487 1.371 . S
N485 C488 1.372 . S
N486 C488 1.361 . S
N486 C489 1.377 . S
C487 N484 1.382 . S
C487 N485 1.371 . S
C487 C490 1.480 . S
C488 N485 1.372 . S
C488 N486 1.361 . S
C488 C496 1.457 . S
C489 N484 1.363 . S
C489 N486 1.377 . S
C489 C502 1.479 . S
C490 C487 1.480 . S
C490 C491 1.383 . S
C490 C495 1.385 . S
C491 H472 0.947 . S
C491 C490 1.383 . S
C491 C492 1.388 . S
C492 H473 0.946 . S
C492 C491 1.388 . S
C492 C493 1.384 . S
C493 C492 1.384 . S
C493 C494 1.377 . S
C494 H474 0.953 . S
C494 C493 1.377 . S
C494 C495 1.369 . S
C495 H475 0.945 . S
C495 C490 1.385 . S
C495 C494 1.369 . S
C496 C488 1.457 . S
C496 C497 1.372 . S
C496 C501 1.364 . S
C497 H476 0.952 . S
C497 C496 1.372 . S
C497 C498 1.389 . S
C498 H477 0.949 . S
C498 C497 1.389 . S
C498 C499 1.387 . S
C499 C498 1.387 . S
C499 C500 1.372 . S
C500 H478 0.950 . S
C500 C499 1.372 . S
C500 C501 1.379 . S
C501 H479 0.948 . S
C501 C496 1.364 . S
C501 C500 1.379 . S
C502 C471 1.383 . S
C502 C489 1.479 . S
C502 C503 1.398 . S
C503 C468 1.382 . S
C503 H480 0.951 . S
C503 C502 1.398 . S
C504 C505 1.384 . S
C504 H517 0.947 . S
C504 C539 1.382 . S
C505 C504 1.384 . S
C505 C506 1.378 . S
C506 C505 1.378 . S
C506 C507 1.378 . S
C506 H518 0.952 . S
C507 C506 1.378 . S
C507 H519 0.950 . S
C507 C538 1.383 . S
H508 C527 0.947 . S
H509 C528 0.946 . S
H510 C530 0.953 . S
H511 C531 0.945 . S
H512 C533 0.952 . S
H513 C534 0.949 . S
H514 C536 0.950 . S
H515 C537 0.948 . S
H516 C539 0.951 . S
H517 C504 0.947 . S
H518 C506 0.952 . S
H519 C507 0.950 . S
N520 C523 1.382 . S
N520 C525 1.363 . S
N521 C523 1.371 . S
N521 C524 1.372 . S
N522 C524 1.361 . S
N522 C525 1.377 . S
C523 N520 1.382 . S
C523 N521 1.371 . S
C523 C526 1.480 . S
C524 N521 1.372 . S
C524 N522 1.361 . S
C524 C532 1.457 . S
C525 N520 1.363 . S
C525 N522 1.377 . S
C525 C538 1.479 . S
C526 C523 1.480 . S
C526 C527 1.383 . S
C526 C531 1.385 . S
C527 H508 0.947 . S
C527 C526 1.383 . S
C527 C528 1.388 . S
C528 H509 0.946 . S
C528 C527 1.388 . S
C528 C529 1.384 . S
C529 C528 1.384 . S
C529 C530 1.377 . S
C530 H510 0.953 . S
C530 C529 1.377 . S
C530 C531 1.369 . S
C531 H511 0.945 . S
C531 C526 1.385 . S
C531 C530 1.369 . S
C532 C524 1.457 . S
C532 C533 1.372 . S
C532 C537 1.364 . S
C533 H512 0.952 . S
C533 C532 1.372 . S
C533 C534 1.389 . S
C534 H513 0.949 . S
C534 C533 1.389 . S
C534 C535 1.387 . S
C535 C534 1.387 . S
C535 C536 1.372 . S
C536 H514 0.950 . S
C536 C535 1.372 . S
C536 C537 1.379 . S
C537 H515 0.948 . S
C537 C532 1.364 . S
C537 C536 1.379 . S
C538 C507 1.383 . S
C538 C525 1.479 . S
C538 C539 1.398 . S
C539 C504 1.382 . S
C539 H516 0.951 . S
C539 C538 1.398 . S
C540 C541 1.384 . S
C540 H553 0.947 . S
C540 C575 1.382 . S
C541 C540 1.384 . S
C541 C542 1.378 . S
C542 C541 1.378 . S
C542 C543 1.378 . S
C542 H554 0.952 . S
C543 C542 1.378 . S
C543 H555 0.950 . S
C543 C574 1.383 . S
H544 C563 0.947 . S
H545 C564 0.946 . S
H546 C566 0.953 . S
H547 C567 0.945 . S
H548 C569 0.952 . S
H549 C570 0.949 . S
H550 C572 0.950 . S
H551 C573 0.948 . S
H552 C575 0.951 . S
H553 C540 0.947 . S
H554 C542 0.952 . S
H555 C543 0.950 . S
N556 C559 1.382 . S
N556 C561 1.363 . S
N557 C559 1.371 . S
N557 C560 1.372 . S
N558 C560 1.361 . S
N558 C561 1.377 . S
C559 N556 1.382 . S
C559 N557 1.371 . S
C559 C562 1.480 . S
C560 N557 1.372 . S
C560 N558 1.361 . S
C560 C568 1.457 . S
C561 N556 1.363 . S
C561 N558 1.377 . S
C561 C574 1.479 . S
C562 C559 1.480 . S
C562 C563 1.383 . S
C562 C567 1.385 . S
C563 H544 0.947 . S
C563 C562 1.383 . S
C563 C564 1.388 . S
C564 H545 0.946 . S
C564 C563 1.388 . S
C564 C565 1.384 . S
C565 C564 1.384 . S
C565 C566 1.377 . S
C566 H546 0.953 . S
C566 C565 1.377 . S
C566 C567 1.369 . S
C567 H547 0.945 . S
C567 C562 1.385 . S
C567 C566 1.369 . S
C568 C560 1.457 . S
C568 C569 1.372 . S
C568 C573 1.364 . S
C569 H548 0.952 . S
C569 C568 1.372 . S
C569 C570 1.389 . S
C570 H549 0.949 . S
C570 C569 1.389 . S
C570 C571 1.387 . S
C571 C570 1.387 . S
C571 C572 1.372 . S
C572 H550 0.950 . S
C572 C571 1.372 . S
C572 C573 1.379 . S
C573 H551 0.948 . S
C573 C568 1.364 . S
C573 C572 1.379 . S
C574 C543 1.383 . S
C574 C561 1.479 . S
C574 C575 1.398 . S
C575 C540 1.382 . S
C575 H552 0.951 . S
C575 C574 1.398 . S
C576 C577 1.384 . S
C576 H589 0.947 . S
C576 C611 1.382 . S
C577 C576 1.384 . S
C577 C578 1.378 . S
C578 C577 1.378 . S
C578 C579 1.378 . S
C578 H590 0.952 . S
C579 C578 1.378 . S
C579 H591 0.950 . S
C579 C610 1.383 . S
H580 C599 0.947 . S
H581 C600 0.946 . S
H582 C602 0.953 . S
H583 C603 0.945 . S
H584 C605 0.952 . S
H585 C606 0.949 . S
H586 C608 0.950 1_655 S
H587 C609 0.948 . S
H588 C611 0.951 . S
H589 C576 0.947 . S
H590 C578 0.952 . S
H591 C579 0.950 . S
N592 C595 1.382 . S
N592 C597 1.363 . S
N593 C595 1.371 . S
N593 C596 1.372 . S
N594 C596 1.361 . S
N594 C597 1.377 . S
C595 N592 1.382 . S
C595 N593 1.371 . S
C595 C598 1.480 . S
C596 N593 1.372 . S
C596 N594 1.361 . S
C596 C604 1.457 . S
C597 N592 1.363 . S
C597 N594 1.377 . S
C597 C610 1.479 . S
C598 C595 1.480 . S
C598 C599 1.383 . S
C598 C603 1.385 . S
C599 H580 0.947 . S
C599 C598 1.383 . S
C599 C600 1.388 . S
C600 H581 0.946 . S
C600 C599 1.388 . S
C600 C601 1.384 . S
C601 C600 1.384 . S
C601 C602 1.377 . S
C602 H582 0.953 . S
C602 C601 1.377 . S
C602 C603 1.369 . S
C603 H583 0.945 . S
C603 C598 1.385 . S
C603 C602 1.369 . S
C604 C596 1.457 . S
C604 C605 1.372 . S
C604 C609 1.364 . S
C605 H584 0.952 . S
C605 C604 1.372 . S
C605 C606 1.389 . S
C606 H585 0.949 . S
C606 C605 1.389 . S
C606 C607 1.387 . S
C607 C606 1.387 . S
C607 C608 1.372 . S
C608 H586 0.950 1_455 S
C608 C607 1.372 . S
C608 C609 1.379 . S
C609 H587 0.948 . S
C609 C604 1.364 . S
C609 C608 1.379 . S
C610 C579 1.383 . S
C610 C597 1.479 . S
C610 C611 1.398 . S
C611 C576 1.382 . S
C611 H588 0.951 . S
C611 C610 1.398 . S
C612 C613 1.384 . S
C612 H625 0.947 . S
C612 C647 1.382 . S
C613 C612 1.384 . S
C613 C614 1.378 . S
C614 C613 1.378 . S
C614 C615 1.378 . S
C614 H626 0.952 . S
C615 C614 1.378 . S
C615 H627 0.950 . S
C615 C646 1.383 . S
H616 C635 0.947 . S
H617 C636 0.946 . S
H618 C638 0.953 . S
H619 C639 0.945 . S
H620 C641 0.952 . S
H621 C642 0.949 . S
H622 C644 0.950 . S
H623 C645 0.948 . S
H624 C647 0.951 . S
H625 C612 0.947 . S
H626 C614 0.952 . S
H627 C615 0.950 . S
N628 C631 1.382 . S
N628 C633 1.363 . S
N629 C631 1.371 . S
N629 C632 1.372 . S
N630 C632 1.361 . S
N630 C633 1.377 . S
C631 N628 1.382 . S
C631 N629 1.371 . S
C631 C634 1.480 . S
C632 N629 1.372 . S
C632 N630 1.361 . S
C632 C640 1.457 . S
C633 N628 1.363 . S
C633 N630 1.377 . S
C633 C646 1.479 . S
C634 C631 1.480 . S
C634 C635 1.383 . S
C634 C639 1.385 . S
C635 H616 0.947 . S
C635 C634 1.383 . S
C635 C636 1.388 . S
C636 H617 0.946 . S
C636 C635 1.388 . S
C636 C637 1.384 . S
C637 C636 1.384 . S
C637 C638 1.377 . S
C638 H618 0.953 . S
C638 C637 1.377 . S
C638 C639 1.369 . S
C639 H619 0.945 . S
C639 C634 1.385 . S
C639 C638 1.369 . S
C640 C632 1.457 . S
C640 C641 1.372 . S
C640 C645 1.364 . S
C641 H620 0.952 . S
C641 C640 1.372 . S
C641 C642 1.389 . S
C642 H621 0.949 . S
C642 C641 1.389 . S
C642 C643 1.387 . S
C643 C642 1.387 . S
C643 C644 1.372 . S
C644 H622 0.950 . S
C644 C643 1.372 . S
C644 C645 1.379 . S
C645 H623 0.948 . S
C645 C640 1.364 . S
C645 C644 1.379 . S
C646 C615 1.383 . S
C646 C633 1.479 . S
C646 C647 1.398 . S
C647 C612 1.382 . S
C647 H624 0.951 . S
C647 C646 1.398 . S
C648 Eu649 2.835 . S
C648 C650 1.500 . S
C648 O668 1.257 1_545 S
C648 O669 1.260 . S
Eu649 C648 2.835 . S
Eu649 O668 2.473 1_545 S
Eu649 O669 2.480 . S
Eu649 O670 2.430 . S
Eu649 O671 2.670 1_554 S
Eu649 O672 2.394 1_545 S
Eu649 O677 2.355 1_545 S
Eu649 O679 2.374 . S
C650 C648 1.500 . S
C650 C651 1.377 . S
C650 C655 1.377 1_545 S
C651 C650 1.377 . S
C651 C652 1.395 . S
C651 H680 0.931 . S
C652 C651 1.395 . S
C652 C653 1.383 1_545 S
C652 H681 0.931 . S
C653 C652 1.383 1_565 S
C653 C654 1.394 . S
C654 C653 1.394 . S
C654 C655 1.378 . S
C654 H682 0.931 . S
C655 C650 1.377 1_565 S
C655 C654 1.378 . S
C655 H683 0.931 . S
C656 O670 1.259 1_556 S
C656 O671 1.270 . S
C657 O672 1.251 . S
C657 O673 1.251 1_554 S
C658 Eu659 2.835 . S
C658 C660 1.500 . S
C658 O674 1.257 1_565 S
C658 O675 1.260 . S
Eu659 C658 2.835 . S
Eu659 O671 2.355 1_565 S
Eu659 O673 2.374 . S
Eu659 O674 2.473 1_565 S
Eu659 O675 2.480 . S
Eu659 O676 2.430 . S
Eu659 O677 2.670 1_556 S
Eu659 O678 2.394 1_565 S
C660 C658 1.500 . S
C660 C661 1.377 . S
C660 C665 1.377 1_565 S
C661 C660 1.377 . S
C661 C662 1.395 . S
C661 H684 0.931 . S
C662 C661 1.395 . S
C662 C663 1.383 1_565 S
C662 H685 0.931 . S
C663 C662 1.383 1_545 S
C663 C664 1.394 . S
C664 C663 1.394 . S
C664 C665 1.378 . S
C664 H686 0.931 . S
C665 C660 1.377 1_545 S
C665 C664 1.378 . S
C665 H687 0.931 . S
C666 O676 1.259 1_554 S
C666 O677 1.270 . S
C667 O678 1.251 . S
C667 O679 1.251 1_556 S
O668 C648 1.257 1_565 S
O668 Eu649 2.473 1_565 S
O669 C648 1.260 . S
O669 Eu649 2.480 . S
O670 Eu649 2.430 . S
O670 C656 1.259 1_554 S
O671 Eu649 2.670 1_556 S
O671 C656 1.270 . S
O671 Eu659 2.355 1_545 S
O672 Eu649 2.394 1_565 S
O672 C657 1.251 . S
O673 C657 1.251 1_556 S
O673 Eu659 2.374 . S
O674 C658 1.257 1_545 S
O674 Eu659 2.473 1_545 S
O675 C658 1.260 . S
O675 Eu659 2.480 . S
O676 Eu659 2.430 . S
O676 C666 1.259 1_556 S
O677 Eu649 2.355 1_565 S
O677 Eu659 2.670 1_554 S
O677 C666 1.270 . S
O678 Eu659 2.394 1_545 S
O678 C667 1.251 . S
O679 Eu649 2.374 . S
O679 C667 1.251 1_554 S
H680 C651 0.931 . S
H681 C652 0.931 . S
H682 C654 0.931 . S
H683 C655 0.931 . S
H684 C661 0.931 . S
H685 C662 0.931 . S
H686 C664 0.931 . S
H687 C665 0.931 . S
C688 Eu689 2.835 . S
C688 C690 1.500 1_655 S
C688 O708 1.257 1_655 S
C688 O709 1.260 . S
Eu689 C688 2.835 . S
Eu689 O708 2.473 1_655 S
Eu689 O709 2.480 . S
Eu689 O710 2.430 . S
Eu689 O711 2.670 1_554 S
Eu689 O712 2.394 1_655 S
Eu689 O717 2.355 1_655 S
Eu689 O719 2.374 . S
C690 C688 1.500 1_455 S
C690 C691 1.377 1_455 S
C690 C695 1.377 . S
C691 C690 1.377 1_655 S
C691 C692 1.395 . S
C691 H720 0.931 . S
C692 C691 1.395 . S
C692 C693 1.383 1_655 S
C692 H721 0.931 . S
C693 C692 1.383 1_455 S
C693 C694 1.394 . S
C694 C693 1.394 . S
C694 C695 1.378 . S
C694 H722 0.931 . S
C695 C690 1.377 . S
C695 C694 1.378 . S
C695 H723 0.931 . S
C696 O710 1.259 1_556 S
C696 O711 1.270 . S
C697 O712 1.251 . S
C697 O713 1.251 . S
C698 Eu699 2.835 . S
C698 C700 1.500 1_455 S
C698 O714 1.257 1_455 S
C698 O715 1.260 . S
Eu699 C698 2.835 . S
Eu699 O711 2.355 1_455 S
Eu699 O713 2.374 1_556 S
Eu699 O714 2.473 1_455 S
Eu699 O715 2.480 . S
Eu699 O716 2.430 . S
Eu699 O717 2.670 1_556 S
Eu699 O718 2.394 1_455 S
C700 C698 1.500 1_655 S
C700 C701 1.377 1_655 S
C700 C705 1.377 . S
C701 C700 1.377 1_455 S
C701 C702 1.395 . S
C701 H724 0.931 . S
C702 C701 1.395 . S
C702 C703 1.383 1_455 S
C702 H725 0.931 . S
C703 C702 1.383 1_655 S
C703 C704 1.394 . S
C704 C703 1.394 . S
C704 C705 1.378 . S
C704 H726 0.931 . S
C705 C700 1.377 . S
C705 C704 1.378 . S
C705 H727 0.931 . S
C706 O716 1.259 1_554 S
C706 O717 1.270 . S
C707 O718 1.251 . S
C707 O719 1.251 1_556 S
O708 C688 1.257 1_455 S
O708 Eu689 2.473 1_455 S
O709 C688 1.260 . S
O709 Eu689 2.480 . S
O710 Eu689 2.430 . S
O710 C696 1.259 1_554 S
O711 Eu689 2.670 1_556 S
O711 C696 1.270 . S
O711 Eu699 2.355 1_655 S
O712 Eu689 2.394 1_455 S
O712 C697 1.251 . S
O713 C697 1.251 . S
O713 Eu699 2.374 1_554 S
O714 C698 1.257 1_655 S
O714 Eu699 2.473 1_655 S
O715 C698 1.260 . S
O715 Eu699 2.480 . S
O716 Eu699 2.430 . S
O716 C706 1.259 1_556 S
O717 Eu689 2.355 1_455 S
O717 Eu699 2.670 1_554 S
O717 C706 1.270 . S
O718 Eu699 2.394 1_655 S
O718 C707 1.251 . S
O719 Eu689 2.374 . S
O719 C707 1.251 1_554 S
H720 C691 0.931 . S
H721 C692 0.931 . S
H722 C694 0.931 . S
H723 C695 0.931 . S
H724 C701 0.931 . S
H725 C702 0.931 . S
H726 C704 0.931 . S
H727 C705 0.931 . S
C728 Eu729 2.835 . S
C728 C730 1.500 . S
C728 O748 1.257 . S
C728 O749 1.260 . S
Eu729 C728 2.835 . S
Eu729 O748 2.473 . S
Eu729 O749 2.480 . S
Eu729 O750 2.430 . S
Eu729 O751 2.670 1_556 S
Eu729 O752 2.394 . S
Eu729 O757 2.355 . S
Eu729 O759 2.387 . S
C730 C728 1.500 . S
C730 C731 1.377 . S
C730 C735 1.377 . S
C731 C730 1.377 . S
C731 C732 1.395 . S
C731 H760 0.931 . S
C732 C731 1.395 . S
C732 C733 1.383 . S
C732 H761 0.931 . S
C733 C732 1.383 . S
C733 C734 1.394 . S
C734 C733 1.394 . S
C734 C735 1.378 . S
C734 H762 0.931 . S
C735 C730 1.377 . S
C735 C734 1.378 . S
C735 H763 0.931 . S
C736 O750 1.259 1_554 S
C736 O751 1.270 . S
C737 O752 1.251 . S
C737 O753 1.251 1_556 S
C738 Eu739 2.835 . S
C738 C740 1.500 . S
C738 O754 1.257 . S
C738 O755 1.260 . S
Eu739 C738 2.835 . S
Eu739 O751 2.355 . S
Eu739 O753 2.374 . S
Eu739 O754 2.473 . S
Eu739 O755 2.480 . S
Eu739 O756 2.430 . S
Eu739 O757 2.670 1_554 S
Eu739 O758 2.394 . S
C740 C738 1.500 . S
C740 C741 1.377 . S
C740 C745 1.377 . S
C741 C740 1.377 . S
C741 C742 1.395 . S
C741 H764 0.931 . S
C742 C741 1.395 . S
C742 C743 1.383 . S
C742 H765 0.931 . S
C743 C742 1.383 . S
C743 C744 1.394 . S
C744 C743 1.394 . S
C744 C745 1.378 . S
C744 H766 0.931 . S
C745 C740 1.377 . S
C745 C744 1.378 . S
C745 H767 0.931 . S
C746 O756 1.259 1_556 S
C746 O757 1.270 . S
C747 O758 1.251 . S
C747 O759 1.234 1_554 S
O748 C728 1.257 . S
O748 Eu729 2.473 . S
O749 C728 1.260 . S
O749 Eu729 2.480 . S
O750 Eu729 2.430 . S
O750 C736 1.259 1_556 S
O751 Eu729 2.670 1_554 S
O751 C736 1.270 . S
O751 Eu739 2.355 . S
O752 Eu729 2.394 . S
O752 C737 1.251 . S
O753 C737 1.251 1_554 S
O753 Eu739 2.374 . S
O754 C738 1.257 . S
O754 Eu739 2.473 . S
O755 C738 1.260 . S
O755 Eu739 2.480 . S
O756 Eu739 2.430 . S
O756 C746 1.259 1_554 S
O757 Eu729 2.355 . S
O757 Eu739 2.670 1_556 S
O757 C746 1.270 . S
O758 Eu739 2.394 . S
O758 C747 1.251 . S
O759 Eu729 2.387 . S
O759 C747 1.234 1_556 S
H760 C731 0.931 . S
H761 C732 0.931 . S
H762 C734 0.931 . S
H763 C735 0.931 . S
H764 C741 0.931 . S
H765 C742 0.931 . S
H766 C744 0.931 . S
H767 C745 0.931 . S
C768 Eu769 2.835 . S
C768 C770 1.500 . S
C768 O788 1.257 . S
C768 O789 1.260 . S
Eu769 C768 2.835 . S
Eu769 O788 2.473 . S
Eu769 O789 2.480 . S
Eu769 O790 2.430 . S
Eu769 O791 2.670 . S
Eu769 O792 2.394 . S
Eu769 O797 2.355 . S
Eu769 O799 2.374 . S
C770 C768 1.500 . S
C770 C771 1.377 . S
C770 C775 1.377 . S
C771 C770 1.377 . S
C771 C772 1.395 . S
C771 H800 0.931 . S
C772 C771 1.395 . S
C772 C773 1.383 . S
C772 H801 0.931 . S
C773 C772 1.383 . S
C773 C774 1.394 . S
C774 C773 1.394 . S
C774 C775 1.378 . S
C774 H802 0.931 . S
C775 C770 1.377 . S
C775 C774 1.378 . S
C775 H803 0.931 . S
C776 O790 1.259 . S
C776 O791 1.270 . S
C777 O792 1.251 . S
C777 O793 1.251 . S
C778 Eu779 2.835 . S
C778 C780 1.500 . S
C778 O794 1.257 . S
C778 O795 1.260 . S
Eu779 C778 2.835 . S
Eu779 O791 2.355 . S
Eu779 O793 2.374 . S
Eu779 O794 2.473 . S
Eu779 O795 2.480 . S
Eu779 O796 2.430 . S
Eu779 O797 2.670 . S
Eu779 O798 2.394 . S
C780 C778 1.500 . S
C780 C781 1.377 . S
C780 C785 1.377 . S
C781 C780 1.377 . S
C781 C782 1.395 . S
C781 H804 0.931 . S
C782 C781 1.395 . S
C782 C783 1.383 . S
C782 H805 0.931 . S
C783 C782 1.383 . S
C783 C784 1.394 . S
C784 C783 1.394 . S
C784 C785 1.378 . S
C784 H806 0.931 . S
C785 C780 1.377 . S
C785 C784 1.378 . S
C785 H807 0.931 . S
C786 O796 1.259 . S
C786 O797 1.270 . S
C787 O798 1.251 . S
C787 O799 1.251 . S
O788 C768 1.257 . S
O788 Eu769 2.473 . S
O789 C768 1.260 . S
O789 Eu769 2.480 . S
O790 Eu769 2.430 . S
O790 C776 1.259 . S
O791 Eu769 2.670 . S
O791 C776 1.270 . S
O791 Eu779 2.355 . S
O792 Eu769 2.394 . S
O792 C777 1.251 . S
O793 C777 1.251 . S
O793 Eu779 2.374 . S
O794 C778 1.257 . S
O794 Eu779 2.473 . S
O795 C778 1.260 . S
O795 Eu779 2.480 . S
O796 Eu779 2.430 . S
O796 C786 1.259 . S
O797 Eu769 2.355 . S
O797 Eu779 2.670 . S
O797 C786 1.270 . S
O798 Eu779 2.394 . S
O798 C787 1.251 . S
O799 Eu769 2.374 . S
O799 C787 1.251 . S
H800 C771 0.931 . S
H801 C772 0.931 . S
H802 C774 0.931 . S
H803 C775 0.931 . S
H804 C781 0.931 . S
H805 C782 0.931 . S
H806 C784 0.931 . S
H807 C785 0.931 . S
C808 Eu809 2.835 . S
C808 C810 1.500 . S
C808 O828 1.257 . S
C808 O829 1.260 . S
Eu809 C808 2.835 . S
Eu809 O828 2.473 . S
Eu809 O829 2.480 . S
Eu809 O830 2.430 . S
Eu809 O831 2.670 . S
Eu809 O832 2.394 . S
Eu809 O837 2.355 . S
Eu809 O839 2.374 . S
C810 C808 1.500 . S
C810 C811 1.377 . S
C810 C815 1.377 . S
C811 C810 1.377 . S
C811 C812 1.395 . S
C811 H840 0.931 . S
C812 C811 1.395 . S
C812 C813 1.383 . S
C812 H841 0.931 . S
C813 C812 1.383 . S
C813 C814 1.394 . S
C814 C813 1.394 . S
C814 C815 1.378 . S
C814 H842 0.931 . S
C815 C810 1.377 . S
C815 C814 1.378 . S
C815 H843 0.931 . S
C816 O830 1.259 . S
C816 O831 1.270 . S
C817 O832 1.251 . S
C817 O833 1.251 . S
C818 Eu819 2.835 . S
C818 C820 1.500 . S
C818 O834 1.257 . S
C818 O835 1.260 . S
Eu819 C818 2.835 . S
Eu819 O831 2.355 . S
Eu819 O833 2.374 . S
Eu819 O834 2.473 . S
Eu819 O835 2.480 . S
Eu819 O836 2.430 . S
Eu819 O837 2.670 . S
Eu819 O838 2.394 . S
C820 C818 1.500 . S
C820 C821 1.377 . S
C820 C825 1.377 . S
C821 C820 1.377 . S
C821 C822 1.395 . S
C821 H844 0.931 . S
C822 C821 1.395 . S
C822 C823 1.383 . S
C822 H845 0.931 . S
C823 C822 1.383 . S
C823 C824 1.394 . S
C824 C823 1.394 . S
C824 C825 1.378 . S
C824 H846 0.931 . S
C825 C820 1.377 . S
C825 C824 1.378 . S
C825 H847 0.931 . S
C826 O836 1.259 . S
C826 O837 1.270 . S
C827 O838 1.251 . S
C827 O839 1.251 . S
O828 C808 1.257 . S
O828 Eu809 2.473 . S
O829 C808 1.260 . S
O829 Eu809 2.480 . S
O830 Eu809 2.430 . S
O830 C816 1.259 . S
O831 Eu809 2.670 . S
O831 C816 1.270 . S
O831 Eu819 2.355 . S
O832 Eu809 2.394 . S
O832 C817 1.251 . S
O833 C817 1.251 . S
O833 Eu819 2.374 . S
O834 C818 1.257 . S
O834 Eu819 2.473 . S
O835 C818 1.260 . S
O835 Eu819 2.480 . S
O836 Eu819 2.430 . S
O836 C826 1.259 . S
O837 Eu809 2.355 . S
O837 Eu819 2.670 . S
O837 C826 1.270 . S
O838 Eu819 2.394 . S
O838 C827 1.251 . S
O839 Eu809 2.374 . S
O839 C827 1.251 . S
H840 C811 0.931 . S
H841 C812 0.931 . S
H842 C814 0.931 . S
H843 C815 0.931 . S
H844 C821 0.931 . S
H845 C822 0.931 . S
H846 C824 0.931 . S
H847 C825 0.931 . S
C848 Eu849 2.835 . S
C848 C850 1.500 . S
C848 O868 1.257 . S
C848 O869 1.260 . S
Eu849 C848 2.835 . S
Eu849 O868 2.473 . S
Eu849 O869 2.480 . S
Eu849 O870 2.430 . S
Eu849 O871 2.670 . S
Eu849 O872 2.394 . S
Eu849 O877 2.355 . S
Eu849 O879 2.374 . S
C850 C848 1.500 . S
C850 C851 1.377 . S
C850 C855 1.377 . S
C851 C850 1.377 . S
C851 C852 1.395 . S
C851 H880 0.931 . S
C852 C851 1.395 . S
C852 C853 1.383 . S
C852 H881 0.931 . S
C853 C852 1.383 . S
C853 C854 1.394 . S
C854 C853 1.394 . S
C854 C855 1.378 . S
C854 H882 0.931 . S
C855 C850 1.377 . S
C855 C854 1.378 . S
C855 H883 0.931 . S
C856 O870 1.259 . S
C856 O871 1.270 . S
C857 O872 1.251 . S
C857 O873 1.251 . S
C858 Eu859 2.835 . S
C858 C860 1.500 . S
C858 O874 1.257 . S
C858 O875 1.260 . S
Eu859 C858 2.835 . S
Eu859 O871 2.355 . S
Eu859 O873 2.374 . S
Eu859 O874 2.473 . S
Eu859 O875 2.480 . S
Eu859 O876 2.430 . S
Eu859 O877 2.670 . S
Eu859 O878 2.394 . S
C860 C858 1.500 . S
C860 C861 1.377 . S
C860 C865 1.377 . S
C861 C860 1.377 . S
C861 C862 1.395 . S
C861 H884 0.931 . S
C862 C861 1.395 . S
C862 C863 1.383 . S
C862 H885 0.931 . S
C863 C862 1.383 . S
C863 C864 1.394 . S
C864 C863 1.394 . S
C864 C865 1.378 . S
C864 H886 0.931 . S
C865 C860 1.377 . S
C865 C864 1.378 . S
C865 H887 0.931 . S
C866 O876 1.259 . S
C866 O877 1.270 . S
C867 O878 1.251 . S
C867 O879 1.251 . S
O868 C848 1.257 . S
O868 Eu849 2.473 . S
O869 C848 1.260 . S
O869 Eu849 2.480 . S
O870 Eu849 2.430 . S
O870 C856 1.259 . S
O871 Eu849 2.670 . S
O871 C856 1.270 . S
O871 Eu859 2.355 . S
O872 Eu849 2.394 . S
O872 C857 1.251 . S
O873 C857 1.251 . S
O873 Eu859 2.374 . S
O874 C858 1.257 . S
O874 Eu859 2.473 . S
O875 C858 1.260 . S
O875 Eu859 2.480 . S
O876 Eu859 2.430 . S
O876 C866 1.259 . S
O877 Eu849 2.355 . S
O877 Eu859 2.670 . S
O877 C866 1.270 . S
O878 Eu859 2.394 . S
O878 C867 1.251 . S
O879 Eu849 2.374 . S
O879 C867 1.251 . S
H880 C851 0.931 . S
H881 C852 0.931 . S
H882 C854 0.931 . S
H883 C855 0.931 . S
H884 C861 0.931 . S
H885 C862 0.931 . S
H886 C864 0.931 . S
H887 C865 0.931 . S
C888 Eu889 2.835 . S
C888 C890 1.500 . S
C888 O908 1.257 . S
C888 O909 1.260 . S
Eu889 C888 2.835 . S
Eu889 O908 2.473 . S
Eu889 O909 2.480 . S
Eu889 O910 2.430 . S
Eu889 O911 2.670 . S
Eu889 O912 2.394 . S
Eu889 O917 2.355 . S
Eu889 O919 2.374 . S
C890 C888 1.500 . S
C890 C891 1.377 . S
C890 C895 1.377 . S
C891 C890 1.377 . S
C891 C892 1.395 . S
C891 H920 0.931 . S
C892 C891 1.395 . S
C892 C893 1.383 . S
C892 H921 0.931 . S
C893 C892 1.383 . S
C893 C894 1.394 . S
C894 C893 1.394 . S
C894 C895 1.378 . S
C894 H922 0.931 . S
C895 C890 1.377 . S
C895 C894 1.378 . S
C895 H923 0.931 . S
C896 O910 1.259 . S
C896 O911 1.270 . S
C897 O912 1.251 . S
C897 O913 1.251 . S
C898 Eu899 2.835 . S
C898 C900 1.500 . S
C898 O914 1.257 . S
C898 O915 1.260 . S
Eu899 C898 2.835 . S
Eu899 O911 2.355 . S
Eu899 O913 2.374 . S
Eu899 O914 2.473 . S
Eu899 O915 2.480 . S
Eu899 O916 2.430 . S
Eu899 O917 2.670 . S
Eu899 O918 2.394 . S
C900 C898 1.500 . S
C900 C901 1.377 . S
C900 C905 1.377 . S
C901 C900 1.377 . S
C901 C902 1.395 . S
C901 H924 0.931 . S
C902 C901 1.395 . S
C902 C903 1.383 . S
C902 H925 0.931 . S
C903 C902 1.383 . S
C903 C904 1.394 . S
C904 C903 1.394 . S
C904 C905 1.378 . S
C904 H926 0.931 . S
C905 C900 1.377 . S
C905 C904 1.378 . S
C905 H927 0.931 . S
C906 O916 1.259 . S
C906 O917 1.270 . S
C907 O918 1.251 . S
C907 O919 1.251 . S
O908 C888 1.257 . S
O908 Eu889 2.473 . S
O909 C888 1.260 . S
O909 Eu889 2.480 . S
O910 Eu889 2.430 . S
O910 C896 1.259 . S
O911 Eu889 2.670 . S
O911 C896 1.270 . S
O911 Eu899 2.355 . S
O912 Eu889 2.394 . S
O912 C897 1.251 . S
O913 C897 1.251 . S
O913 Eu899 2.374 . S
O914 C898 1.257 . S
O914 Eu899 2.473 . S
O915 C898 1.260 . S
O915 Eu899 2.480 . S
O916 Eu899 2.430 . S
O916 C906 1.259 . S
O917 Eu889 2.355 . S
O917 Eu899 2.670 . S
O917 C906 1.270 . S
O918 Eu899 2.394 . S
O918 C907 1.251 . S
O919 Eu889 2.374 . S
O919 C907 1.251 . S
H920 C891 0.931 . S
H921 C892 0.931 . S
H922 C894 0.931 . S
H923 C895 0.931 . S
H924 C901 0.931 . S
H925 C902 0.931 . S
H926 C904 0.931 . S
H927 C905 0.931 . S
C928 Eu929 2.835 . S
C928 C930 1.500 . S
C928 O948 1.257 . S
C928 O949 1.260 . S
Eu929 C928 2.835 . S
Eu929 O948 2.473 . S
Eu929 O949 2.480 . S
Eu929 O950 2.430 . S
Eu929 O951 2.670 . S
Eu929 O952 2.394 . S
Eu929 O957 2.355 . S
Eu929 O959 2.374 . S
C930 C928 1.500 . S
C930 C931 1.377 . S
C930 C935 1.377 . S
C931 C930 1.377 . S
C931 C932 1.395 . S
C931 H960 0.931 . S
C932 C931 1.395 . S
C932 C933 1.383 . S
C932 H961 0.931 . S
C933 C932 1.383 . S
C933 C934 1.394 . S
C934 C933 1.394 . S
C934 C935 1.378 . S
C934 H962 0.931 . S
C935 C930 1.377 . S
C935 C934 1.378 . S
C935 H963 0.931 . S
C936 O950 1.259 . S
C936 O951 1.270 . S
C937 O952 1.251 . S
C937 O953 1.251 . S
C938 Eu939 2.835 . S
C938 C940 1.500 . S
C938 O954 1.257 . S
C938 O955 1.260 . S
Eu939 C938 2.835 . S
Eu939 O951 2.355 . S
Eu939 O953 2.374 . S
Eu939 O954 2.473 . S
Eu939 O955 2.480 . S
Eu939 O956 2.430 . S
Eu939 O957 2.670 . S
Eu939 O958 2.394 . S
C940 C938 1.500 . S
C940 C941 1.377 . S
C940 C945 1.377 . S
C941 C940 1.377 . S
C941 C942 1.395 . S
C941 H964 0.931 . S
C942 C941 1.395 . S
C942 C943 1.383 . S
C942 H965 0.931 . S
C943 C942 1.383 . S
C943 C944 1.394 . S
C944 C943 1.394 . S
C944 C945 1.378 . S
C944 H966 0.931 . S
C945 C940 1.377 . S
C945 C944 1.378 . S
C945 H967 0.931 . S
C946 O956 1.259 . S
C946 O957 1.270 . S
C947 O958 1.251 . S
C947 O959 1.251 . S
O948 C928 1.257 . S
O948 Eu929 2.473 . S
O949 C928 1.260 . S
O949 Eu929 2.480 . S
O950 Eu929 2.430 . S
O950 C936 1.259 . S
O951 Eu929 2.670 . S
O951 C936 1.270 . S
O951 Eu939 2.355 . S
O952 Eu929 2.394 . S
O952 C937 1.251 . S
O953 C937 1.251 . S
O953 Eu939 2.374 . S
O954 C938 1.257 . S
O954 Eu939 2.473 . S
O955 C938 1.260 . S
O955 Eu939 2.480 . S
O956 Eu939 2.430 . S
O956 C946 1.259 . S
O957 Eu929 2.355 . S
O957 Eu939 2.670 . S
O957 C946 1.270 . S
O958 Eu939 2.394 . S
O958 C947 1.251 . S
O959 Eu929 2.374 . S
O959 C947 1.251 . S
H960 C931 0.931 . S
H961 C932 0.931 . S
H962 C934 0.931 . S
H963 C935 0.931 . S
H964 C941 0.931 . S
H965 C942 0.931 . S
H966 C944 0.931 . S
H967 C945 0.931 . S
C968 Eu969 2.835 . S
C968 C970 1.500 . S
C968 O988 1.257 . S
C968 O989 1.260 . S
Eu969 C968 2.835 . S
Eu969 O988 2.473 . S
Eu969 O989 2.480 . S
Eu969 O990 2.430 . S
Eu969 O991 2.670 . S
Eu969 O992 2.394 . S
Eu969 O997 2.355 . S
Eu969 O999 2.374 . S
C970 C968 1.500 . S
C970 C971 1.377 . S
C970 C975 1.377 . S
C971 C970 1.377 . S
C971 C972 1.395 . S
C971 H1000 0.931 . S
C972 C971 1.395 . S
C972 C973 1.383 . S
C972 H1001 0.931 . S
C973 C972 1.383 . S
C973 C974 1.394 . S
C974 C973 1.394 . S
C974 C975 1.378 . S
C974 H1002 0.931 . S
C975 C970 1.377 . S
C975 C974 1.378 . S
C975 H1003 0.931 . S
C976 O990 1.259 . S
C976 O991 1.270 . S
C977 O992 1.251 . S
C977 O993 1.251 . S
C978 Eu979 2.835 . S
C978 C980 1.500 . S
C978 O994 1.257 . S
C978 O995 1.260 . S
Eu979 C978 2.835 . S
Eu979 O991 2.355 . S
Eu979 O993 2.374 . S
Eu979 O994 2.473 . S
Eu979 O995 2.480 . S
Eu979 O996 2.430 . S
Eu979 O997 2.670 . S
Eu979 O998 2.394 . S
C980 C978 1.500 . S
C980 C981 1.377 . S
C980 C985 1.377 . S
C981 C980 1.377 . S
C981 C982 1.395 . S
C981 H1004 0.931 . S
C982 C981 1.395 . S
C982 C983 1.383 . S
C982 H1005 0.931 . S
C983 C982 1.383 . S
C983 C984 1.394 . S
C984 C983 1.394 . S
C984 C985 1.378 . S
C984 H1006 0.931 . S
C985 C980 1.377 . S
C985 C984 1.378 . S
C985 H1007 0.931 . S
C986 O996 1.259 . S
C986 O997 1.270 . S
C987 O998 1.251 . S
C987 O999 1.251 . S
O988 C968 1.257 . S
O988 Eu969 2.473 . S
O989 C968 1.260 . S
O989 Eu969 2.480 . S
O990 Eu969 2.430 . S
O990 C976 1.259 . S
O991 Eu969 2.670 . S
O991 C976 1.270 . S
O991 Eu979 2.355 . S
O992 Eu969 2.394 . S
O992 C977 1.251 . S
O993 C977 1.251 . S
O993 Eu979 2.374 . S
O994 C978 1.257 . S
O994 Eu979 2.473 . S
O995 C978 1.260 . S
O995 Eu979 2.480 . S
O996 Eu979 2.430 . S
O996 C986 1.259 . S
O997 Eu969 2.355 . S
O997 Eu979 2.670 . S
O997 C986 1.270 . S
O998 Eu979 2.394 . S
O998 C987 1.251 . S
O999 Eu969 2.374 . S
O999 C987 1.251 . S
H1000 C971 0.931 . S
H1001 C972 0.931 . S
H1002 C974 0.931 . S
H1003 C975 0.931 . S
H1004 C981 0.931 . S
H1005 C982 0.931 . S
H1006 C984 0.931 . S
H1007 C985 0.931 . S
C1008 C1009 1.387 . S
C1008 H1012 0.950 . S
C1008 C1017 1.390 . S
C1009 C1008 1.387 . S
C1009 C1011 1.387 . S
H1010 C1017 0.950 1_556 S
C1011 C1009 1.387 . S
C1011 C1013 1.390 . S
C1011 H1015 0.950 . S
H1012 C1008 0.950 . S
C1013 C1011 1.390 . S
C1013 C1014 1.387 . S
C1013 H1016 0.950 . S
C1014 C1013 1.387 . S
C1014 C1017 1.387 . S
H1015 C1011 0.950 . S
H1016 C1013 0.950 . S
C1017 C1008 1.390 . S
C1017 H1010 0.950 1_554 S
C1017 C1014 1.387 . S
C1018 C1019 1.387 . S
C1018 H1022 0.950 . S
C1018 C1027 1.390 . S
C1019 C1018 1.387 . S
C1019 C1021 1.387 . S
H1020 C1027 0.950 . S
C1021 C1019 1.387 . S
C1021 C1023 1.390 . S
C1021 H1025 0.950 . S
H1022 C1018 0.950 . S
C1023 C1021 1.390 . S
C1023 C1024 1.387 . S
C1023 H1026 0.950 . S
C1024 C1023 1.387 . S
C1024 C1027 1.387 . S
H1025 C1021 0.950 . S
H1026 C1023 0.950 . S
C1027 C1018 1.390 . S
C1027 H1020 0.950 . S
C1027 C1024 1.387 . S
C1028 C1029 1.387 . S
C1028 H1032 0.950 . S
C1028 C1037 1.390 . S
C1029 C1028 1.387 . S
C1029 C1031 1.387 1_554 S
H1030 C1037 0.950 . S
C1031 C1029 1.387 1_556 S
C1031 C1033 1.390 . S
C1031 H1035 0.950 . S
H1032 C1028 0.950 . S
C1033 C1031 1.390 . S
C1033 C1034 1.387 1_556 S
C1033 H1036 0.950 . S
C1034 C1033 1.387 1_554 S
C1034 C1037 1.387 . S
H1035 C1031 0.950 . S
H1036 C1033 0.950 . S
C1037 C1028 1.390 . S
C1037 H1030 0.950 . S
C1037 C1034 1.387 . S
C1038 C1039 1.387 . S
C1038 H1042 0.950 . S
C1038 C1047 1.390 . S
C1039 C1038 1.387 . S
C1039 C1041 1.387 . S
H1040 C1047 0.950 . S
C1041 C1039 1.387 . S
C1041 C1043 1.391 . S
C1041 H1045 0.950 1_556 S
H1042 C1038 0.950 . S
C1043 C1041 1.391 . S
C1043 C1044 1.398 . S
C1043 H1046 0.939 1_556 S
C1044 C1043 1.398 . S
C1044 C1047 1.387 . S
H1045 C1041 0.950 1_554 S
H1046 C1043 0.939 1_554 S
C1047 C1038 1.390 . S
C1047 H1040 0.950 . S
C1047 C1044 1.387 . S
C1048 C1049 1.387 . S
C1048 H1052 0.950 . S
C1048 C1057 1.390 . S
C1049 C1048 1.387 . S
C1049 C1051 1.387 . S
H1050 C1057 0.950 . S
C1051 C1049 1.387 . S
C1051 C1053 1.390 . S
C1051 H1055 0.950 . S
H1052 C1048 0.950 . S
C1053 C1051 1.390 . S
C1053 C1054 1.387 . S
C1053 H1056 0.950 . S
C1054 C1053 1.387 . S
C1054 C1057 1.387 . S
H1055 C1051 0.950 . S
H1056 C1053 0.950 . S
C1057 C1048 1.390 . S
C1057 H1050 0.950 . S
C1057 C1054 1.387 . S
C1058 C1059 1.390 1_554 S
C1058 H1062 0.948 . S
C1058 C1067 1.390 . S
C1059 C1058 1.390 1_556 S
C1059 C1061 1.387 . S
H1060 C1067 0.950 . S
C1061 C1059 1.387 . S
C1061 C1063 1.390 . S
C1061 H1065 0.950 . S
H1062 C1058 0.948 . S
C1063 C1061 1.390 . S
C1063 C1064 1.387 . S
C1063 H1066 0.950 . S
C1064 C1063 1.387 . S
C1064 C1067 1.387 1_556 S
H1065 C1061 0.950 . S
H1066 C1063 0.950 . S
C1067 C1058 1.390 . S
C1067 H1060 0.950 . S
C1067 C1064 1.387 1_554 S
C1068 C1069 1.387 . S
C1068 H1072 0.950 . S
C1068 C1077 1.390 . S
C1069 C1068 1.387 . S
C1069 C1071 1.387 . S
H1070 C1077 0.950 1_554 S
C1071 C1069 1.387 . S
C1071 C1073 1.390 . S
C1071 H1075 0.950 . S
H1072 C1068 0.950 . S
C1073 C1071 1.390 . S
C1073 C1074 1.387 . S
C1073 H1076 0.950 . S
C1074 C1073 1.387 . S
C1074 C1077 1.387 . S
H1075 C1071 0.950 . S
H1076 C1073 0.950 . S
C1077 C1068 1.390 . S
C1077 H1070 0.950 1_556 S
C1077 C1074 1.387 . S
C1078 C1079 1.387 . S
C1078 H1082 0.950 . S
C1078 C1087 1.390 . S
C1079 C1078 1.387 . S
C1079 C1081 1.387 . S
H1080 C1087 0.950 1_554 S
C1081 C1079 1.387 . S
C1081 C1083 1.390 . S
C1081 H1085 0.950 . S
H1082 C1078 0.950 . S
C1083 C1081 1.390 . S
C1083 C1084 1.387 . S
C1083 H1086 0.950 . S
C1084 C1083 1.387 . S
C1084 C1087 1.387 . S
H1085 C1081 0.950 . S
H1086 C1083 0.950 . S
C1087 C1078 1.390 . S
C1087 H1080 0.950 1_556 S
C1087 C1084 1.387 . S
C1088 C1089 1.387 . S
C1088 H1092 0.950 . S
C1088 C1097 1.390 . S
C1089 C1088 1.387 . S
C1089 C1091 1.387 1_556 S
H1090 C1097 0.950 . S
C1091 C1089 1.387 1_554 S
C1091 C1093 1.390 . S
C1091 H1095 0.950 . S
H1092 C1088 0.950 . S
C1093 C1091 1.390 . S
C1093 C1094 1.387 1_554 S
C1093 H1096 0.950 . S
C1094 C1093 1.387 1_556 S
C1094 C1097 1.387 . S
H1095 C1091 0.950 . S
H1096 C1093 0.950 . S
C1097 C1088 1.390 . S
C1097 H1090 0.950 . S
C1097 C1094 1.387 . S
C1098 C1099 1.387 . S
C1098 H1102 0.950 1_554 S
C1098 C1107 1.390 . S
C1099 C1098 1.387 . S
C1099 C1101 1.387 . S
H1100 C1107 0.950 1_556 S
C1101 C1099 1.387 . S
C1101 C1103 1.390 . S
C1101 H1105 0.950 . S
H1102 C1098 0.950 1_556 S
C1103 C1101 1.390 . S
C1103 C1104 1.387 . S
C1103 H1106 0.950 . S
C1104 C1103 1.387 . S
C1104 C1107 1.387 . S
H1105 C1101 0.950 . S
H1106 C1103 0.950 . S
C1107 C1098 1.390 . S
C1107 H1100 0.950 1_554 S
C1107 C1104 1.387 . S
C1108 C1109 1.387 . S
C1108 H1112 0.950 . S
C1108 C1117 1.390 . S
C1109 C1108 1.387 . S
C1109 C1111 1.387 . S
H1110 C1117 0.950 . S
C1111 C1109 1.387 . S
C1111 C1113 1.390 . S
C1111 H1115 0.950 . S
H1112 C1108 0.950 . S
C1113 C1111 1.390 . S
C1113 C1114 1.387 . S
C1113 H1116 0.950 . S
C1114 C1113 1.387 . S
C1114 C1117 1.387 . S
H1115 C1111 0.950 . S
H1116 C1113 0.950 . S
C1117 C1108 1.390 . S
C1117 H1110 0.950 . S
C1117 C1114 1.387 . S
C1118 C1119 1.387 . S
C1118 H1122 0.950 1_554 S
C1118 C1127 1.398 . S
C1119 C1118 1.387 . S
C1119 C1121 1.387 . S
H1120 C1127 0.910 1_556 S
C1121 C1119 1.387 . S
C1121 C1123 1.390 . S
C1121 H1125 0.950 . S
H1122 C1118 0.950 1_556 S
C1123 C1121 1.390 . S
C1123 C1124 1.387 . S
C1123 H1126 0.950 . S
C1124 C1123 1.387 . S
C1124 C1127 1.421 . S
H1125 C1121 0.950 . S
H1126 C1123 0.950 . S
C1127 C1118 1.398 . S
C1127 H1120 0.910 1_554 S
C1127 C1124 1.421 . S
C1128 C1129 1.387 . S
C1128 H1132 0.950 . S
C1128 C1137 1.390 . S
C1129 C1128 1.387 . S
C1129 C1131 1.387 . S
H1130 C1137 0.950 . S
C1131 C1129 1.387 . S
C1131 C1133 1.390 . S
C1131 H1135 0.950 1_455 S
H1132 C1128 0.950 . S
C1133 C1131 1.390 . S
C1133 C1134 1.387 . S
C1133 H1136 0.950 . S
C1134 C1133 1.387 . S
C1134 C1137 1.387 . S
H1135 C1131 0.950 1_655 S
H1136 C1133 0.950 . S
C1137 C1128 1.390 . S
C1137 H1130 0.950 . S
C1137 C1134 1.387 . S
C1138 C1139 1.387 . S
C1138 H1142 0.950 . S
C1138 C1147 1.390 . S
C1139 C1138 1.387 . S
C1139 C1141 1.387 . S
H1140 C1147 0.950 . S
C1141 C1139 1.387 . S
C1141 C1143 1.390 . S
C1141 H1145 0.950 . S
H1142 C1138 0.950 . S
C1143 C1141 1.390 . S
C1143 C1144 1.387 . S
C1143 H1146 0.950 . S
C1144 C1143 1.387 . S
C1144 C1147 1.387 . S
H1145 C1141 0.950 . S
H1146 C1143 0.950 . S
C1147 C1138 1.390 . S
C1147 H1140 0.950 . S
C1147 C1144 1.387 . S
C1148 C1149 1.387 1_565 S
C1148 H1152 0.952 . S
C1148 C1157 1.390 . S
C1149 C1148 1.387 1_545 S
C1149 C1151 1.387 1_545 S
H1150 C1157 0.950 . S
C1151 C1149 1.387 1_565 S
C1151 C1153 1.390 . S
C1151 H1155 0.950 . S
H1152 C1148 0.952 . S
C1153 C1151 1.390 . S
C1153 C1154 1.387 . S
C1153 H1156 0.950 . S
C1154 C1153 1.387 . S
C1154 C1157 1.387 . S
H1155 C1151 0.950 . S
H1156 C1153 0.950 . S
C1157 C1148 1.390 . S
C1157 H1150 0.950 . S
C1157 C1154 1.387 . S
C1158 C1159 1.387 . S
C1158 H1162 0.950 . S
C1158 C1167 1.390 . S
C1159 C1158 1.387 . S
C1159 C1161 1.387 . S
H1160 C1167 0.950 . S
C1161 C1159 1.387 . S
C1161 C1163 1.390 . S
C1161 H1165 0.950 . S
H1162 C1158 0.950 . S
C1163 C1161 1.390 . S
C1163 C1164 1.387 . S
C1163 H1166 0.950 . S
C1164 C1163 1.387 . S
C1164 C1167 1.387 . S
H1165 C1161 0.950 . S
H1166 C1163 0.950 . S
C1167 C1158 1.390 . S
C1167 H1160 0.950 . S
C1167 C1164 1.387 . S
C1168 C1169 1.387 . S
C1168 H1172 0.950 . S
C1168 C1177 1.390 . S
C1169 C1168 1.387 . S
C1169 C1171 1.387 . S
H1170 C1177 0.950 . S
C1171 C1169 1.387 . S
C1171 C1173 1.390 . S
C1171 H1175 0.950 . S
H1172 C1168 0.950 . S
C1173 C1171 1.390 . S
C1173 C1174 1.387 . S
C1173 H1176 0.950 . S
C1174 C1173 1.387 . S
C1174 C1177 1.387 . S
H1175 C1171 0.950 . S
H1176 C1173 0.950 . S
C1177 C1168 1.390 . S
C1177 H1170 0.950 . S
C1177 C1174 1.387 . S
C1178 C1179 1.387 . S
C1178 H1182 0.950 . S
C1178 C1187 1.390 . S
C1179 C1178 1.387 . S
C1179 C1181 1.387 . S
H1180 C1187 0.950 . S
C1181 C1179 1.387 . S
C1181 C1183 1.390 . S
C1181 H1185 0.950 . S
H1182 C1178 0.950 . S
C1183 C1181 1.390 . S
C1183 C1184 1.387 . S
C1183 H1186 0.950 . S
C1184 C1183 1.387 . S
C1184 C1187 1.387 . S
H1185 C1181 0.950 . S
H1186 C1183 0.950 . S
C1187 C1178 1.390 . S
C1187 H1180 0.950 . S
C1187 C1184 1.387 . S
C1188 C1189 1.387 . S
C1188 H1192 0.950 . S
C1188 C1197 1.390 . S
C1189 C1188 1.387 . S
C1189 C1191 1.387 . S
H1190 C1197 0.950 . S
C1191 C1189 1.387 . S
C1191 C1193 1.390 . S
C1191 H1195 0.950 . S
H1192 C1188 0.950 . S
C1193 C1191 1.390 . S
C1193 C1194 1.387 . S
C1193 H1196 0.950 . S
C1194 C1193 1.387 . S
C1194 C1197 1.387 . S
H1195 C1191 0.950 . S
H1196 C1193 0.950 . S
C1197 C1188 1.390 . S
C1197 H1190 0.950 . S
C1197 C1194 1.387 . S
C1198 C1199 1.387 . S
C1198 H1202 0.950 . S
C1198 C1207 1.390 . S
C1199 C1198 1.387 . S
C1199 C1201 1.387 . S
H1200 C1207 0.950 . S
C1201 C1199 1.387 . S
C1201 C1203 1.390 . S
C1201 H1205 0.950 . S
H1202 C1198 0.950 . S
C1203 C1201 1.390 . S
C1203 C1204 1.387 . S
C1203 H1206 0.950 . S
C1204 C1203 1.387 . S
C1204 C1207 1.387 . S
H1205 C1201 0.950 . S
H1206 C1203 0.950 . S
C1207 C1198 1.390 . S
C1207 H1200 0.950 . S
C1207 C1204 1.387 . S
C1208 C1209 1.387 . S
C1208 H1212 0.950 . S
C1208 C1217 1.390 . S
C1209 C1208 1.387 . S
C1209 C1211 1.387 . S
H1210 C1217 0.950 . S
C1211 C1209 1.387 . S
C1211 C1213 1.390 . S
C1211 H1215 0.950 . S
H1212 C1208 0.950 . S
C1213 C1211 1.390 . S
C1213 C1214 1.387 . S
C1213 H1216 0.950 . S
C1214 C1213 1.387 . S
C1214 C1217 1.387 . S
H1215 C1211 0.950 . S
H1216 C1213 0.950 . S
C1217 C1208 1.390 . S
C1217 H1210 0.950 . S
C1217 C1214 1.387 . S
C1218 C1219 1.387 . S
C1218 H1222 0.950 . S
C1218 C1227 1.390 . S
C1219 C1218 1.387 . S
C1219 C1221 1.387 . S
H1220 C1227 0.950 . S
C1221 C1219 1.387 . S
C1221 C1223 1.390 . S
C1221 H1225 0.950 . S
H1222 C1218 0.950 . S
C1223 C1221 1.390 . S
C1223 C1224 1.387 . S
C1223 H1226 0.950 . S
C1224 C1223 1.387 . S
C1224 C1227 1.387 . S
H1225 C1221 0.950 . S
H1226 C1223 0.950 . S
C1227 C1218 1.390 . S
C1227 H1220 0.950 . S
C1227 C1224 1.387 . S
C1228 C1229 1.387 . S
C1228 H1232 0.950 . S
C1228 C1237 1.390 . S
C1229 C1228 1.387 . S
C1229 C1231 1.387 . S
H1230 C1237 0.950 . S
C1231 C1229 1.387 . S
C1231 C1233 1.390 . S
C1231 H1235 0.950 . S
H1232 C1228 0.950 . S
C1233 C1231 1.390 . S
C1233 C1234 1.387 . S
C1233 H1236 0.950 . S
C1234 C1233 1.387 . S
C1234 C1237 1.387 . S
H1235 C1231 0.950 . S
H1236 C1233 0.950 . S
C1237 C1228 1.390 . S
C1237 H1230 0.950 . S
C1237 C1234 1.387 . S
C1238 C1239 1.387 . S
C1238 H1242 0.950 . S
C1238 C1247 1.390 . S
C1239 C1238 1.387 . S
C1239 C1241 1.387 . S
H1240 C1247 0.950 . S
C1241 C1239 1.387 . S
C1241 C1243 1.390 . S
C1241 H1245 0.950 . S
H1242 C1238 0.950 . S
C1243 C1241 1.390 . S
C1243 C1244 1.387 . S
C1243 H1246 0.950 . S
C1244 C1243 1.387 . S
C1244 C1247 1.387 . S
H1245 C1241 0.950 . S
H1246 C1243 0.950 . S
C1247 C1238 1.390 . S
C1247 H1240 0.950 . S
C1247 C1244 1.387 . S
C1248 C1249 1.387 . S
C1248 H1252 0.950 . S
C1248 C1257 1.390 . S
C1249 C1248 1.387 . S
C1249 C1251 1.387 . S
H1250 C1257 0.950 . S
C1251 C1249 1.387 . S
C1251 C1253 1.390 . S
C1251 H1255 0.950 . S
H1252 C1248 0.950 . S
C1253 C1251 1.390 . S
C1253 C1254 1.387 . S
C1253 H1256 0.950 . S
C1254 C1253 1.387 . S
C1254 C1257 1.387 . S
H1255 C1251 0.950 . S
H1256 C1253 0.950 . S
C1257 C1248 1.390 . S
C1257 H1250 0.950 . S
C1257 C1254 1.387 . S
C1258 C1259 1.387 . S
C1258 H1262 0.950 . S
C1258 C1267 1.390 . S
C1259 C1258 1.387 . S
C1259 C1261 1.387 . S
H1260 C1267 0.950 . S
C1261 C1259 1.387 . S
C1261 C1263 1.390 . S
C1261 H1265 0.950 . S
H1262 C1258 0.950 . S
C1263 C1261 1.390 . S
C1263 C1264 1.387 . S
C1263 H1266 0.950 . S
C1264 C1263 1.387 . S
C1264 C1267 1.387 . S
H1265 C1261 0.950 . S
H1266 C1263 0.950 . S
C1267 C1258 1.390 . S
C1267 H1260 0.950 . S
C1267 C1264 1.387 . S
C1268 C1269 1.387 . S
C1268 H1272 0.950 . S
C1268 C1277 1.390 . S
C1269 C1268 1.387 . S
C1269 C1271 1.387 . S
H1270 C1277 0.950 . S
C1271 C1269 1.387 . S
C1271 C1273 1.390 . S
C1271 H1275 0.950 . S
H1272 C1268 0.950 . S
C1273 C1271 1.390 . S
C1273 C1274 1.387 . S
C1273 H1276 0.950 . S
C1274 C1273 1.387 . S
C1274 C1277 1.387 . S
H1275 C1271 0.950 . S
H1276 C1273 0.950 . S
C1277 C1268 1.390 . S
C1277 H1270 0.950 . S
C1277 C1274 1.387 . S
C1278 C1279 1.387 . S
C1278 H1282 0.950 . S
C1278 C1287 1.390 . S
C1279 C1278 1.387 . S
C1279 C1281 1.387 . S
H1280 C1287 0.950 . S
C1281 C1279 1.387 . S
C1281 C1283 1.390 . S
C1281 H1285 0.950 . S
H1282 C1278 0.950 . S
C1283 C1281 1.390 . S
C1283 C1284 1.387 . S
C1283 H1286 0.950 . S
C1284 C1283 1.387 . S
C1284 C1287 1.387 . S
H1285 C1281 0.950 . S
H1286 C1283 0.950 . S
C1287 C1278 1.390 . S
C1287 H1280 0.950 . S
C1287 C1284 1.387 . S
C1288 C1289 1.387 . S
C1288 H1292 0.950 . S
C1288 C1297 1.390 . S
C1289 C1288 1.387 . S
C1289 C1291 1.387 . S
H1290 C1297 0.950 . S
C1291 C1289 1.387 . S
C1291 C1293 1.390 . S
C1291 H1295 0.950 . S
H1292 C1288 0.950 . S
C1293 C1291 1.390 . S
C1293 C1294 1.387 . S
C1293 H1296 0.950 . S
C1294 C1293 1.387 . S
C1294 C1297 1.387 . S
H1295 C1291 0.950 . S
H1296 C1293 0.950 . S
C1297 C1288 1.390 . S
C1297 H1290 0.950 . S
C1297 C1294 1.387 . S
C1298 C1299 1.387 . S
C1298 H1302 0.950 . S
C1298 C1307 1.390 . S
C1299 C1298 1.387 . S
C1299 C1301 1.387 . S
H1300 C1307 0.950 . S
C1301 C1299 1.387 . S
C1301 C1303 1.390 . S
C1301 H1305 0.950 . S
H1302 C1298 0.950 . S
C1303 C1301 1.390 . S
C1303 C1304 1.387 . S
C1303 H1306 0.950 . S
C1304 C1303 1.387 . S
C1304 C1307 1.387 . S
H1305 C1301 0.950 . S
H1306 C1303 0.950 . S
C1307 C1298 1.390 . S
C1307 H1300 0.950 . S
C1307 C1304 1.387 . S
C1308 C1309 1.387 . S
C1308 H1312 0.950 1_655 S
C1308 C1317 1.390 . S
C1309 C1308 1.387 . S
C1309 C1311 1.387 . S
H1310 C1317 0.950 . S
C1311 C1309 1.387 . S
C1311 C1313 1.390 . S
C1311 H1315 0.950 . S
H1312 C1308 0.950 1_455 S
C1313 C1311 1.390 . S
C1313 C1314 1.387 . S
C1313 H1316 0.950 . S
C1314 C1313 1.387 . S
C1314 C1317 1.387 . S
H1315 C1311 0.950 . S
H1316 C1313 0.950 . S
C1317 C1308 1.390 . S
C1317 H1310 0.950 . S
C1317 C1314 1.387 . S
C1318 C1319 1.387 . S
C1318 H1322 0.950 . S
C1318 C1327 1.390 . S
C1319 C1318 1.387 . S
C1319 C1321 1.387 . S
H1320 C1327 0.950 . S
C1321 C1319 1.387 . S
C1321 C1323 1.390 . S
C1321 H1325 0.950 . S
H1322 C1318 0.950 . S
C1323 C1321 1.390 . S
C1323 C1324 1.387 . S
C1323 H1326 0.950 . S
C1324 C1323 1.387 . S
C1324 C1327 1.387 . S
H1325 C1321 0.950 . S
H1326 C1323 0.950 . S
C1327 C1318 1.390 . S
C1327 H1320 0.950 . S
C1327 C1324 1.387 . S
C1328 C1329 1.387 1_545 S
C1328 H1332 0.950 . S
C1328 C1337 1.390 . S
C1329 C1328 1.387 1_565 S
C1329 C1331 1.387 1_565 S
H1330 C1337 0.950 . S
C1331 C1329 1.387 1_545 S
C1331 C1333 1.390 . S
C1331 H1335 0.943 1_545 S
H1332 C1328 0.950 . S
C1333 C1331 1.390 . S
C1333 C1334 1.387 . S
C1333 H1336 0.950 . S
C1334 C1333 1.387 . S
C1334 C1337 1.387 . S
H1335 C1331 0.943 1_565 S
H1336 C1333 0.950 . S
C1337 C1328 1.390 . S
C1337 H1330 0.950 . S
C1337 C1334 1.387 . S
C1338 C1339 1.387 . S
C1338 H1342 0.950 . S
C1338 C1347 1.390 . S
C1339 C1338 1.387 . S
C1339 C1341 1.387 . S
H1340 C1347 0.950 . S
C1341 C1339 1.387 . S
C1341 C1343 1.390 . S
C1341 H1345 0.950 . S
H1342 C1338 0.950 . S
C1343 C1341 1.390 . S
C1343 C1344 1.387 . S
C1343 H1346 0.950 . S
C1344 C1343 1.387 . S
C1344 C1347 1.387 . S
H1345 C1341 0.950 . S
H1346 C1343 0.950 . S
C1347 C1338 1.390 . S
C1347 H1340 0.950 . S
C1347 C1344 1.387 . S
C1348 C1349 1.387 . S
C1348 H1352 0.950 . S
C1348 C1357 1.390 . S
C1349 C1348 1.387 . S
C1349 C1351 1.387 . S
H1350 C1357 0.950 . S
C1351 C1349 1.387 . S
C1351 C1353 1.390 . S
C1351 H1355 0.950 . S
H1352 C1348 0.950 . S
C1353 C1351 1.390 . S
C1353 C1354 1.387 . S
C1353 H1356 0.950 . S
C1354 C1353 1.387 . S
C1354 C1357 1.387 . S
H1355 C1351 0.950 . S
H1356 C1353 0.950 . S
C1357 C1348 1.390 . S
C1357 H1350 0.950 . S
C1357 C1354 1.387 . S
C1358 C1359 1.387 . S
C1358 H1362 0.950 . S
C1358 C1367 1.390 . S
C1359 C1358 1.387 . S
C1359 C1361 1.387 . S
H1360 C1367 0.950 . S
C1361 C1359 1.387 . S
C1361 C1363 1.390 . S
C1361 H1365 0.950 . S
H1362 C1358 0.950 . S
C1363 C1361 1.390 . S
C1363 C1364 1.387 . S
C1363 H1366 0.950 . S
C1364 C1363 1.387 . S
C1364 C1367 1.387 . S
H1365 C1361 0.950 . S
H1366 C1363 0.950 . S
C1367 C1358 1.390 . S
C1367 H1360 0.950 . S
C1367 C1364 1.387 . S
C1368 C1369 1.387 . S
C1368 H1372 0.950 . S
C1368 C1377 1.390 . S
C1369 C1368 1.387 . S
C1369 C1371 1.387 . S
H1370 C1377 0.950 . S
C1371 C1369 1.387 . S
C1371 C1373 1.390 . S
C1371 H1375 0.950 . S
H1372 C1368 0.950 . S
C1373 C1371 1.390 . S
C1373 C1374 1.387 . S
C1373 H1376 0.950 . S
C1374 C1373 1.387 . S
C1374 C1377 1.387 . S
H1375 C1371 0.950 . S
H1376 C1373 0.950 . S
C1377 C1368 1.390 . S
C1377 H1370 0.950 . S
C1377 C1374 1.387 . S
C1378 C1379 1.387 . S
C1378 H1382 0.950 . S
C1378 C1387 1.390 . S
C1379 C1378 1.387 . S
C1379 C1381 1.387 1_455 S
H1380 C1387 0.950 . S
C1381 C1379 1.387 1_655 S
C1381 C1383 1.390 . S
C1381 H1385 0.950 . S
H1382 C1378 0.950 . S
C1383 C1381 1.390 . S
C1383 C1384 1.387 1_655 S
C1383 H1386 0.950 . S
C1384 C1383 1.387 1_455 S
C1384 C1387 1.387 . S
H1385 C1381 0.950 . S
H1386 C1383 0.950 . S
C1387 C1378 1.390 . S
C1387 H1380 0.950 . S
C1387 C1384 1.387 . S
C1388 C1389 1.387 . S
C1388 H1392 0.950 . S
C1388 C1397 1.390 . S
C1389 C1388 1.387 . S
C1389 C1391 1.387 . S
H1390 C1397 0.950 . S
C1391 C1389 1.387 . S
C1391 C1393 1.390 . S
C1391 H1395 0.950 . S
H1392 C1388 0.950 . S
C1393 C1391 1.390 . S
C1393 C1394 1.387 . S
C1393 H1396 0.950 . S
C1394 C1393 1.387 . S
C1394 C1397 1.387 . S
H1395 C1391 0.950 . S
H1396 C1393 0.950 . S
C1397 C1388 1.390 . S
C1397 H1390 0.950 . S
C1397 C1394 1.387 . S
C1398 C1399 1.387 . S
C1398 H1402 0.950 . S
C1398 C1407 1.390 . S
C1399 C1398 1.387 . S
C1399 C1401 1.387 1_655 S
H1400 C1407 0.950 . S
C1401 C1399 1.387 1_455 S
C1401 C1403 1.390 . S
C1401 H1405 0.950 . S
H1402 C1398 0.950 . S
C1403 C1401 1.390 . S
C1403 C1404 1.387 1_455 S
C1403 H1406 0.950 . S
C1404 C1403 1.387 1_655 S
C1404 C1407 1.387 . S
H1405 C1401 0.950 . S
H1406 C1403 0.950 . S
C1407 C1398 1.390 . S
C1407 H1400 0.950 . S
C1407 C1404 1.387 . S
C1408 C1409 1.387 . S
C1408 H1412 0.950 . S
C1408 C1417 1.390 . S
C1409 C1408 1.387 . S
C1409 C1411 1.387 . S
H1410 C1417 0.950 . S
C1411 C1409 1.387 . S
C1411 C1413 1.390 . S
C1411 H1415 0.950 . S
H1412 C1408 0.950 . S
C1413 C1411 1.390 . S
C1413 C1414 1.387 . S
C1413 H1416 0.950 . S
C1414 C1413 1.387 . S
C1414 C1417 1.387 . S
H1415 C1411 0.950 . S
H1416 C1413 0.950 . S
C1417 C1408 1.390 . S
C1417 H1410 0.950 . S
C1417 C1414 1.387 . S
C1418 C1419 1.387 . S
C1418 H1422 0.950 1_545 S
C1418 C1427 1.390 1_545 S
C1419 C1418 1.387 . S
C1419 C1421 1.387 . S
H1420 C1427 0.950 . S
C1421 C1419 1.387 . S
C1421 C1423 1.390 . S
C1421 H1425 0.950 . S
H1422 C1418 0.950 1_565 S
C1423 C1421 1.390 . S
C1423 C1424 1.387 . S
C1423 H1426 0.950 . S
C1424 C1423 1.387 . S
C1424 C1427 1.387 1_545 S
H1425 C1421 0.950 . S
H1426 C1423 0.950 . S
C1427 C1418 1.390 1_565 S
C1427 H1420 0.950 . S
C1427 C1424 1.387 1_565 S
C1428 C1429 1.387 . S
C1428 H1432 0.950 . S
C1428 C1437 1.390 . S
C1429 C1428 1.387 . S
C1429 C1431 1.387 . S
H1430 C1437 0.950 . S
C1431 C1429 1.387 . S
C1431 C1433 1.390 . S
C1431 H1435 0.950 . S
H1432 C1428 0.950 . S
C1433 C1431 1.390 . S
C1433 C1434 1.387 . S
C1433 H1436 0.950 . S
C1434 C1433 1.387 . S
C1434 C1437 1.387 . S
H1435 C1431 0.950 . S
H1436 C1433 0.950 . S
C1437 C1428 1.390 . S
C1437 H1430 0.950 . S
C1437 C1434 1.387 . S
C1438 C1439 1.387 . S
C1438 H1442 0.950 . S
C1438 C1447 1.390 . S
C1439 C1438 1.387 . S
C1439 C1441 1.387 . S
H1440 C1447 0.950 . S
C1441 C1439 1.387 . S
C1441 C1443 1.390 . S
C1441 H1445 0.950 . S
H1442 C1438 0.950 . S
C1443 C1441 1.390 . S
C1443 C1444 1.387 . S
C1443 H1446 0.950 . S
C1444 C1443 1.387 . S
C1444 C1447 1.387 . S
H1445 C1441 0.950 . S
H1446 C1443 0.950 . S
C1447 C1438 1.390 . S
C1447 H1440 0.950 . S
C1447 C1444 1.387 . S
C1448 C1449 1.387 . S
C1448 H1452 0.950 . S
C1448 C1457 1.390 . S
C1449 C1448 1.387 . S
C1449 C1451 1.387 . S
H1450 C1457 0.950 . S
C1451 C1449 1.387 . S
C1451 C1453 1.390 . S
C1451 H1455 0.950 . S
H1452 C1448 0.950 . S
C1453 C1451 1.390 . S
C1453 C1454 1.387 . S
C1453 H1456 0.950 . S
C1454 C1453 1.387 . S
C1454 C1457 1.387 . S
H1455 C1451 0.950 . S
H1456 C1453 0.950 . S
C1457 C1448 1.390 . S
C1457 H1450 0.950 . S
C1457 C1454 1.387 . S
C1458 C1459 1.387 . S
C1458 H1462 0.950 . S
C1458 C1467 1.390 . S
C1459 C1458 1.387 . S
C1459 C1461 1.387 . S
H1460 C1467 0.950 . S
C1461 C1459 1.387 . S
C1461 C1463 1.390 . S
C1461 H1465 0.950 . S
H1462 C1458 0.950 . S
C1463 C1461 1.390 . S
C1463 C1464 1.387 . S
C1463 H1466 0.950 . S
C1464 C1463 1.387 . S
C1464 C1467 1.387 . S
H1465 C1461 0.950 . S
H1466 C1463 0.950 . S
C1467 C1458 1.390 . S
C1467 H1460 0.950 . S
C1467 C1464 1.387 . S
C1468 C1469 1.387 . S
C1468 H1472 0.950 . S
C1468 C1477 1.390 . S
C1469 C1468 1.387 . S
C1469 C1471 1.387 . S
H1470 C1477 0.950 . S
C1471 C1469 1.387 . S
C1471 C1473 1.390 . S
C1471 H1475 0.950 . S
H1472 C1468 0.950 . S
C1473 C1471 1.390 . S
C1473 C1474 1.387 . S
C1473 H1476 0.950 . S
C1474 C1473 1.387 . S
C1474 C1477 1.387 . S
H1475 C1471 0.950 . S
H1476 C1473 0.950 . S
C1477 C1468 1.390 . S
C1477 H1470 0.950 . S
C1477 C1474 1.387 . S
C1478 C1479 1.387 . S
C1478 H1482 0.950 . S
C1478 C1487 1.390 . S
C1479 C1478 1.387 . S
C1479 C1481 1.387 . S
H1480 C1487 0.950 . S
C1481 C1479 1.387 . S
C1481 C1483 1.390 . S
C1481 H1485 0.950 . S
H1482 C1478 0.950 . S
C1483 C1481 1.390 . S
C1483 C1484 1.387 . S
C1483 H1486 0.950 . S
C1484 C1483 1.387 . S
C1484 C1487 1.387 . S
H1485 C1481 0.950 . S
H1486 C1483 0.950 . S
C1487 C1478 1.390 . S
C1487 H1480 0.950 . S
C1487 C1484 1.387 . S
C1488 C1489 1.387 . S
C1488 H1492 0.950 . S
C1488 C1497 1.390 . S
C1489 C1488 1.387 . S
C1489 C1491 1.387 . S
H1490 C1497 0.950 . S
C1491 C1489 1.387 . S
C1491 C1493 1.390 . S
C1491 H1495 0.950 . S
H1492 C1488 0.950 . S
C1493 C1491 1.390 . S
C1493 C1494 1.387 . S
C1493 H1496 0.950 . S
C1494 C1493 1.387 . S
C1494 C1497 1.387 . S
H1495 C1491 0.950 . S
H1496 C1493 0.950 . S
C1497 C1488 1.390 . S
C1497 H1490 0.950 . S
C1497 C1494 1.387 . S
C1498 C1499 1.387 . S
C1498 H1502 0.950 . S
C1498 C1507 1.390 . S
C1499 C1498 1.387 . S
C1499 C1501 1.387 . S
H1500 C1507 0.950 . S
C1501 C1499 1.387 . S
C1501 C1503 1.390 . S
C1501 H1505 0.950 . S
H1502 C1498 0.950 . S
C1503 C1501 1.390 . S
C1503 C1504 1.387 . S
C1503 H1506 0.950 . S
C1504 C1503 1.387 . S
C1504 C1507 1.387 . S
H1505 C1501 0.950 . S
H1506 C1503 0.950 . S
C1507 C1498 1.390 . S
C1507 H1500 0.950 . S
C1507 C1504 1.387 . S
C1508 C1509 1.387 . S
C1508 H1512 0.950 . S
C1508 C1517 1.390 . S
C1509 C1508 1.387 . S
C1509 C1511 1.387 . S
H1510 C1517 0.950 . S
C1511 C1509 1.387 . S
C1511 C1513 1.390 . S
C1511 H1515 0.950 . S
H1512 C1508 0.950 . S
C1513 C1511 1.390 . S
C1513 C1514 1.387 . S
C1513 H1516 0.950 . S
C1514 C1513 1.387 . S
C1514 C1517 1.387 . S
H1515 C1511 0.950 . S
H1516 C1513 0.950 . S
C1517 C1508 1.390 . S
C1517 H1510 0.950 . S
C1517 C1514 1.387 . S
C1518 C1519 1.387 . S
C1518 H1522 0.950 . S
C1518 C1527 1.390 . S
C1519 C1518 1.387 . S
C1519 C1521 1.387 . S
H1520 C1527 0.950 . S
C1521 C1519 1.387 . S
C1521 C1523 1.390 . S
C1521 H1525 0.950 . S
H1522 C1518 0.950 . S
C1523 C1521 1.390 . S
C1523 C1524 1.387 . S
C1523 H1526 0.950 . S
C1524 C1523 1.387 . S
C1524 C1527 1.387 . S
H1525 C1521 0.950 . S
H1526 C1523 0.950 . S
C1527 C1518 1.390 . S
C1527 H1520 0.950 . S
C1527 C1524 1.387 . S
C1528 C1529 1.387 . S
C1528 H1532 0.950 . S
C1528 C1537 1.390 . S
C1529 C1528 1.387 . S
C1529 C1531 1.387 . S
H1530 C1537 0.950 . S
C1531 C1529 1.387 . S
C1531 C1533 1.390 . S
C1531 H1535 0.950 . S
H1532 C1528 0.950 . S
C1533 C1531 1.390 . S
C1533 C1534 1.387 . S
C1533 H1536 0.950 . S
C1534 C1533 1.387 . S
C1534 C1537 1.387 . S
H1535 C1531 0.950 . S
H1536 C1533 0.950 . S
C1537 C1528 1.390 . S
C1537 H1530 0.950 . S
C1537 C1534 1.387 . S
C1538 C1539 1.387 . S
C1538 H1542 0.950 . S
C1538 C1547 1.390 . S
C1539 C1538 1.387 . S
C1539 C1541 1.387 . S
H1540 C1547 0.950 . S
C1541 C1539 1.387 . S
C1541 C1543 1.390 . S
C1541 H1545 0.950 . S
H1542 C1538 0.950 . S
C1543 C1541 1.390 . S
C1543 C1544 1.387 . S
C1543 H1546 0.950 . S
C1544 C1543 1.387 . S
C1544 C1547 1.387 . S
H1545 C1541 0.950 . S
H1546 C1543 0.950 . S
C1547 C1538 1.390 . S
C1547 H1540 0.950 . S
C1547 C1544 1.387 . S
C1009 C469 1.737 . S
C1014 C657 1.689 . S
C1019 C505 1.783 . S
C1024 C697 1.735 . S
C1029 C433 1.818 . S
C1034 C736 1.819 . S
C1039 C397 1.655 . S
C1044 C696 1.642 . S
C1054 C737 1.499 . S
C1049 C325 1.531 . S
C1059 C361 1.564 . S
C1064 C656 1.599 . S
C1074 C667 1.693 . S
C1069 C421 1.752 . S
C1084 C707 1.734 . S
C1079 C349 1.780 . S
C1089 C385 1.809 . S
C1094 C746 1.821 . S
C1099 C493 1.650 . S
C1104 C706 1.642 . S
C1109 C529 1.543 . S
C1114 C747 1.497 . S
C1124 C666 1.603 . S
C1119 C457 1.575 . S
C1134 C777 1.692 . S
C1129 C37 1.740 1_455 S
C1139 C73 1.782 . S
C1144 C817 1.734 . S
C1149 C1 1.819 . S
C1154 C856 1.820 . S
C1159 C613 1.653 . S
C1164 C816 1.641 . S
C1169 C541 1.531 . S
C1174 C857 1.500 . S
C1179 C577 1.564 . S
C1184 C776 1.600 . S
C1189 C637 1.750 . S
C1194 C787 1.689 . S
C1199 C565 1.780 . S
C1204 C827 1.734 . S
C1214 C866 1.821 . S
C1209 C601 1.809 . S
C1219 C61 1.651 1_565 S
C1224 C826 1.643 . S
C1234 C867 1.500 . S
C1229 C97 1.544 1_455 S
C1239 C25 1.574 . S
C1244 C786 1.602 . S
C1254 C897 1.689 . S
C1249 C253 1.738 . S
C1259 C289 1.783 . S
C1264 C937 1.735 . S
C1274 C976 1.819 . S
C1269 C217 1.816 . S
C1284 C936 1.642 . S
C1279 C181 1.653 1_545 S
C1294 C977 1.498 . S
C1289 C109 1.529 1_655 S
C1299 C145 1.567 . S
C1304 C896 1.601 . S
C1309 C205 1.752 1_655 S
C1314 C907 1.693 . S
C1319 C133 1.780 . S
C1324 C947 1.735 . S
C1334 C986 1.821 . S
C1329 C169 1.811 . S
C1339 C277 1.649 . S
C1344 C946 1.643 . S
C1349 C313 1.544 . S
C1354 C987 1.499 . S
C1359 C241 1.572 . S
C1364 C906 1.601 . S
C1369 C571 1.406 . S
C1374 C653 1.398 . S
C1384 C693 1.830 . S
C1379 C607 1.831 . S
C1389 C643 1.578 . S
C1394 C743 1.584 . S
C1399 C247 1.837 . S
C1404 C703 1.828 . S
C1409 C283 1.582 . S
C1414 C733 1.585 . S
C1424 C663 1.398 . S
C1419 C319 1.408 . S
C1429 C139 1.406 . S
C1434 C773 1.398 . S
C1439 C175 1.830 . S
C1444 C813 1.829 . S
C1449 C211 1.578 . S
C1454 C863 1.584 . S
C1459 C463 1.833 . S
C1464 C823 1.829 . S
C1474 C853 1.585 . S
C1469 C499 1.582 . S
C1479 C535 1.408 . S
C1484 C783 1.398 . S
C1489 C355 1.407 . S
C1494 C893 1.399 . S
C1499 C391 1.830 . S
C1504 C933 1.829 . S
C1514 C983 1.584 . S
C1509 C427 1.579 . S
C1519 C31 1.833 . S
C1524 C943 1.829 . S
C1529 C67 1.582 . S
C1534 C973 1.585 . S
C1539 C103 1.408 . S
C1544 C903 1.396 . S
