# Generated by pormake.
# Topology ptr, (4,4)-cn, num edge types: 1
# Building blocks:
#     Node 0, Type 0, BuildingBlock: UXUYUI_clean_sbu_0, # of connection points: 4
#     Node 1, Type 0, BuildingBlock: UXUYUI_clean_sbu_0, # of connection points: 4
#     Node 2, Type 0, BuildingBlock: UXUYUI_clean_sbu_0, # of connection points: 4
#     Node 3, Type 0, BuildingBlock: UXUYUI_clean_sbu_0, # of connection points: 4
#     Node 4, Type 0, BuildingBlock: UXUYUI_clean_sbu_0, # of connection points: 4
#     Node 5, Type 0, BuildingBlock: UXUYUI_clean_sbu_0, # of connection points: 4
#     Node 6, Type 0, BuildingBlock: UXUYUI_clean_sbu_0, # of connection points: 4
#     Node 7, Type 0, BuildingBlock: UXUYUI_clean_sbu_0, # of connection points: 4
#     Node 8, Type 0, BuildingBlock: UXUYUI_clean_sbu_0, # of connection points: 4
#     Node 9, Type 0, BuildingBlock: UXUYUI_clean_sbu_0, # of connection points: 4
#     Node 10, Type 0, BuildingBlock: UXUYUI_clean_sbu_0, # of connection points: 4
#     Node 11, Type 0, BuildingBlock: UXUYUI_clean_sbu_0, # of connection points: 4
#     Node 12, Type 0, BuildingBlock: UXUYUI_clean_sbu_0, # of connection points: 4
#     Node 13, Type 0, BuildingBlock: UXUYUI_clean_sbu_0, # of connection points: 4
#     Node 14, Type 0, BuildingBlock: UXUYUI_clean_sbu_0, # of connection points: 4
#     Node 15, Type 0, BuildingBlock: UXUYUI_clean_sbu_0, # of connection points: 4
#     Node 16, Type 0, BuildingBlock: UXUYUI_clean_sbu_0, # of connection points: 4
#     Node 17, Type 0, BuildingBlock: UXUYUI_clean_sbu_0, # of connection points: 4
#     Node 18, Type 1, BuildingBlock: NAHDIM_clean_linker_0, # of connection points: 4
#     Node 19, Type 1, BuildingBlock: NAHDIM_clean_linker_0, # of connection points: 4
#     Node 20, Type 1, BuildingBlock: NAHDIM_clean_linker_0, # of connection points: 4
#     Node 21, Type 1, BuildingBlock: NAHDIM_clean_linker_0, # of connection points: 4
#     Node 22, Type 1, BuildingBlock: NAHDIM_clean_linker_0, # of connection points: 4
#     Node 23, Type 1, BuildingBlock: NAHDIM_clean_linker_0, # of connection points: 4
#     Node 24, Type 1, BuildingBlock: NAHDIM_clean_linker_0, # of connection points: 4
#     Node 25, Type 1, BuildingBlock: NAHDIM_clean_linker_0, # of connection points: 4
#     Node 26, Type 1, BuildingBlock: NAHDIM_clean_linker_0, # of connection points: 4
#     Node 27, Type 1, BuildingBlock: NAHDIM_clean_linker_0, # of connection points: 4
#     Node 28, Type 1, BuildingBlock: NAHDIM_clean_linker_0, # of connection points: 4
#     Node 29, Type 1, BuildingBlock: NAHDIM_clean_linker_0, # of connection points: 4
#     Node 30, Type 1, BuildingBlock: NAHDIM_clean_linker_0, # of connection points: 4
#     Node 31, Type 1, BuildingBlock: NAHDIM_clean_linker_0, # of connection points: 4
#     Node 32, Type 1, BuildingBlock: NAHDIM_clean_linker_0, # of connection points: 4
#     Node 33, Type 1, BuildingBlock: NAHDIM_clean_linker_0, # of connection points: 4
#     Node 34, Type 1, BuildingBlock: NAHDIM_clean_linker_0, # of connection points: 4
#     Node 35, Type 1, BuildingBlock: NAHDIM_clean_linker_0, # of connection points: 4
#     Edge 36, Type (0, 1), BuildingBlock: OJICUG_clean_linker_0, # of connection points: 2
#     Edge 37, Type (0, 1), BuildingBlock: OJICUG_clean_linker_0, # of connection points: 2
#     Edge 38, Type (0, 1), BuildingBlock: OJICUG_clean_linker_0, # of connection points: 2
#     Edge 39, Type (0, 1), BuildingBlock: OJICUG_clean_linker_0, # of connection points: 2
#     Edge 40, Type (0, 1), BuildingBlock: OJICUG_clean_linker_0, # of connection points: 2
#     Edge 41, Type (0, 1), BuildingBlock: OJICUG_clean_linker_0, # of connection points: 2
#     Edge 42, Type (0, 1), BuildingBlock: OJICUG_clean_linker_0, # of connection points: 2
#     Edge 43, Type (0, 1), BuildingBlock: OJICUG_clean_linker_0, # of connection points: 2
#     Edge 44, Type (0, 1), BuildingBlock: OJICUG_clean_linker_0, # of connection points: 2
#     Edge 45, Type (0, 1), BuildingBlock: OJICUG_clean_linker_0, # of connection points: 2
#     Edge 46, Type (0, 1), BuildingBlock: OJICUG_clean_linker_0, # of connection points: 2
#     Edge 47, Type (0, 1), BuildingBlock: OJICUG_clean_linker_0, # of connection points: 2
#     Edge 48, Type (0, 1), BuildingBlock: OJICUG_clean_linker_0, # of connection points: 2
#     Edge 49, Type (0, 1), BuildingBlock: OJICUG_clean_linker_0, # of connection points: 2
#     Edge 50, Type (0, 1), BuildingBlock: OJICUG_clean_linker_0, # of connection points: 2
#     Edge 51, Type (0, 1), BuildingBlock: OJICUG_clean_linker_0, # of connection points: 2
#     Edge 52, Type (0, 1), BuildingBlock: OJICUG_clean_linker_0, # of connection points: 2
#     Edge 53, Type (0, 1), BuildingBlock: OJICUG_clean_linker_0, # of connection points: 2
#     Edge 54, Type (0, 1), BuildingBlock: OJICUG_clean_linker_0, # of connection points: 2
#     Edge 55, Type (0, 1), BuildingBlock: OJICUG_clean_linker_0, # of connection points: 2
#     Edge 56, Type (0, 1), BuildingBlock: OJICUG_clean_linker_0, # of connection points: 2
#     Edge 57, Type (0, 1), BuildingBlock: OJICUG_clean_linker_0, # of connection points: 2
#     Edge 58, Type (0, 1), BuildingBlock: OJICUG_clean_linker_0, # of connection points: 2
#     Edge 59, Type (0, 1), BuildingBlock: OJICUG_clean_linker_0, # of connection points: 2
#     Edge 60, Type (0, 1), BuildingBlock: OJICUG_clean_linker_0, # of connection points: 2
#     Edge 61, Type (0, 1), BuildingBlock: OJICUG_clean_linker_0, # of connection points: 2
#     Edge 62, Type (0, 1), BuildingBlock: OJICUG_clean_linker_0, # of connection points: 2
#     Edge 63, Type (0, 1), BuildingBlock: OJICUG_clean_linker_0, # of connection points: 2
#     Edge 64, Type (0, 1), BuildingBlock: OJICUG_clean_linker_0, # of connection points: 2
#     Edge 65, Type (0, 1), BuildingBlock: OJICUG_clean_linker_0, # of connection points: 2
#     Edge 66, Type (0, 1), BuildingBlock: OJICUG_clean_linker_0, # of connection points: 2
#     Edge 67, Type (0, 1), BuildingBlock: OJICUG_clean_linker_0, # of connection points: 2
#     Edge 68, Type (0, 1), BuildingBlock: OJICUG_clean_linker_0, # of connection points: 2
#     Edge 69, Type (0, 1), BuildingBlock: OJICUG_clean_linker_0, # of connection points: 2
#     Edge 70, Type (0, 1), BuildingBlock: OJICUG_clean_linker_0, # of connection points: 2
#     Edge 71, Type (0, 1), BuildingBlock: OJICUG_clean_linker_0, # of connection points: 2
#     Edge 72, Type (0, 1), BuildingBlock: OJICUG_clean_linker_0, # of connection points: 2
#     Edge 73, Type (0, 1), BuildingBlock: OJICUG_clean_linker_0, # of connection points: 2
#     Edge 74, Type (0, 1), BuildingBlock: OJICUG_clean_linker_0, # of connection points: 2
#     Edge 75, Type (0, 1), BuildingBlock: OJICUG_clean_linker_0, # of connection points: 2
#     Edge 76, Type (0, 1), BuildingBlock: OJICUG_clean_linker_0, # of connection points: 2
#     Edge 77, Type (0, 1), BuildingBlock: OJICUG_clean_linker_0, # of connection points: 2
#     Edge 78, Type (0, 1), BuildingBlock: OJICUG_clean_linker_0, # of connection points: 2
#     Edge 79, Type (0, 1), BuildingBlock: OJICUG_clean_linker_0, # of connection points: 2
#     Edge 80, Type (0, 1), BuildingBlock: OJICUG_clean_linker_0, # of connection points: 2
#     Edge 81, Type (0, 1), BuildingBlock: OJICUG_clean_linker_0, # of connection points: 2
#     Edge 82, Type (0, 1), BuildingBlock: OJICUG_clean_linker_0, # of connection points: 2
#     Edge 83, Type (0, 1), BuildingBlock: OJICUG_clean_linker_0, # of connection points: 2
#     Edge 84, Type (0, 1), BuildingBlock: OJICUG_clean_linker_0, # of connection points: 2
#     Edge 85, Type (0, 1), BuildingBlock: OJICUG_clean_linker_0, # of connection points: 2
#     Edge 86, Type (0, 1), BuildingBlock: OJICUG_clean_linker_0, # of connection points: 2
#     Edge 87, Type (0, 1), BuildingBlock: OJICUG_clean_linker_0, # of connection points: 2
#     Edge 88, Type (0, 1), BuildingBlock: OJICUG_clean_linker_0, # of connection points: 2
#     Edge 89, Type (0, 1), BuildingBlock: OJICUG_clean_linker_0, # of connection points: 2
#     Edge 90, Type (0, 1), BuildingBlock: OJICUG_clean_linker_0, # of connection points: 2
#     Edge 91, Type (0, 1), BuildingBlock: OJICUG_clean_linker_0, # of connection points: 2
#     Edge 92, Type (0, 1), BuildingBlock: OJICUG_clean_linker_0, # of connection points: 2
#     Edge 93, Type (0, 1), BuildingBlock: OJICUG_clean_linker_0, # of connection points: 2
#     Edge 94, Type (0, 1), BuildingBlock: OJICUG_clean_linker_0, # of connection points: 2
#     Edge 95, Type (0, 1), BuildingBlock: OJICUG_clean_linker_0, # of connection points: 2
#     Edge 96, Type (0, 1), BuildingBlock: OJICUG_clean_linker_0, # of connection points: 2
#     Edge 97, Type (0, 1), BuildingBlock: OJICUG_clean_linker_0, # of connection points: 2
#     Edge 98, Type (0, 1), BuildingBlock: OJICUG_clean_linker_0, # of connection points: 2
#     Edge 99, Type (0, 1), BuildingBlock: OJICUG_clean_linker_0, # of connection points: 2
#     Edge 100, Type (0, 1), BuildingBlock: OJICUG_clean_linker_0, # of connection points: 2
#     Edge 101, Type (0, 1), BuildingBlock: OJICUG_clean_linker_0, # of connection points: 2
#     Edge 102, Type (0, 1), BuildingBlock: OJICUG_clean_linker_0, # of connection points: 2
#     Edge 103, Type (0, 1), BuildingBlock: OJICUG_clean_linker_0, # of connection points: 2
#     Edge 104, Type (0, 1), BuildingBlock: OJICUG_clean_linker_0, # of connection points: 2
#     Edge 105, Type (0, 1), BuildingBlock: OJICUG_clean_linker_0, # of connection points: 2
#     Edge 106, Type (0, 1), BuildingBlock: OJICUG_clean_linker_0, # of connection points: 2
#     Edge 107, Type (0, 1), BuildingBlock: OJICUG_clean_linker_0, # of connection points: 2
# Relax obj value: 0.120
# Max RMSD: 0.338
# Mean RMSD: 0.137
data_MOF--net-ptr--node1-UXUYUI_clean_sbu_0--node2-NAHDIM_clean_linker_0--edge1-OJICUG_clean_linker_0
_symmetry_space_group_name_H-M    P1
_symmetry_Int_Tables_number       1
_symmetry_cell_setting            triclinic
loop_
_symmetry_equiv_pos_as_xyz
'x, y, z'
_cell_length_a     92.668742
_cell_length_b     92.472628
_cell_length_c     75.982747
_cell_angle_alpha  90.91286
_cell_angle_beta   90.310291
_cell_angle_gamma 120.44118
loop_
_atom_site_label
_atom_site_type_symbol
_atom_site_fract_x
_atom_site_fract_y
_atom_site_fract_z
_atom_type_partial_charge
Li0 Li 0.99166 0.32691 0.00034 0.0
Li1 Li 0.02103 0.34321 0.00952 0.0
Li2 Li 0.00016 0.35059 0.02091 0.0
Li3 Li 0.00959 0.35675 0.99081 0.0
C4 C 0.99143 0.31559 0.03347 0.0
N5 N 0.97148 0.28638 0.05135 0.0
C6 C 0.99737 0.30481 0.03751 0.0
C7 C 0.97545 0.31163 0.0388 0.0
C8 C 0.98707 0.29006 0.04647 0.0
C9 C 0.96553 0.29678 0.04776 0.0
C10 C 0.02235 0.33525 0.97396 0.0
C11 C 0.04657 0.34759 0.95539 0.0
N12 N 0.04369 0.332 0.95108 0.0
C13 C 0.01947 0.31935 0.96911 0.0
C14 C 0.03588 0.34948 0.96685 0.0
C15 C 0.03046 0.31797 0.95763 0.0
C16 C 0.96185 0.30177 0.98301 0.0
N17 N 0.97562 0.30494 0.99258 0.0
C18 C 0.97002 0.27704 0.9873 0.0
C19 C 0.97974 0.29294 0.99496 0.0
C20 C 0.95596 0.27346 0.97691 0.0
C21 C 0.9517 0.28597 0.97511 0.0
H22 H 0.95914 0.3117 0.98089 0.0
H23 H 0.99114 0.29602 0.00199 0.0
C24 C 0.05103 0.35065 0.02776 0.0
N25 N 0.03884 0.33986 0.01631 0.0
C26 C 0.06183 0.34615 0.0356 0.0
C27 C 0.04754 0.31974 0.0194 0.0
C28 C 0.03712 0.32479 0.01182 0.0
C29 C 0.05982 0.33027 0.03186 0.0
H30 H 0.05179 0.36234 0.03154 0.0
H31 H 0.02682 0.31612 0.0034 0.0
C32 C 0.97259 0.34663 0.00308 0.0
N33 N 0.94539 0.35013 0.01091 0.0
C34 C 0.97316 0.36179 7e-05 0.0
C35 C 0.95803 0.33315 0.00973 0.0
C36 C 0.95934 0.36334 0.00421 0.0
C37 C 0.94445 0.33518 0.0137 0.0
C38 C 0.03747 0.38096 0.00989 0.0
C39 C 0.03827 0.39579 0.01562 0.0
C40 C 0.05126 0.38173 0.0016 0.0
C41 C 0.05268 0.41118 0.01252 0.0
C42 C 0.06546 0.39735 0.99876 0.0
N43 N 0.06586 0.41163 0.0042 0.0
C44 C 0.99324 0.35293 0.05688 0.0
C45 C 0.99544 0.37455 0.03873 0.0
C46 C 0.992 0.36116 0.07185 0.0
N47 N 0.99502 0.35977 0.04076 0.0
C48 C 0.99441 0.38328 0.05333 0.0
C49 C 0.99297 0.37672 0.07018 0.0
H50 H 0.99362 0.34152 0.05827 0.0
H51 H 0.99739 0.37996 0.02585 0.0
C52 C 0.01021 0.36538 0.95534 0.0
N53 N 0.01251 0.3714 0.97218 0.0
C54 C 0.00901 0.37456 0.94157 0.0
C55 C 0.01281 0.39606 0.96273 0.0
C56 C 0.01411 0.38655 0.97605 0.0
C57 C 0.00982 0.38988 0.94529 0.0
H58 H 0.00839 0.35304 0.95269 0.0
H59 H 0.0153 0.39077 0.98959 0.0
O60 O 0.00128 0.33002 0.02454 0.0
O61 O 0.01164 0.33682 0.98513 0.0
O62 O 0.98602 0.34487 0.99906 0.0
O63 O 0.02345 0.36577 0.01286 0.0
H64 H 0.00976 0.30774 0.03371 0.0
H65 H 0.97086 0.32006 0.03628 0.0
H66 H 0.99147 0.28156 0.04956 0.0
H67 H 0.95313 0.29357 0.05192 0.0
H68 H 0.05712 0.35851 0.94985 0.0
H69 H 0.00892 0.30817 0.97421 0.0
H70 H 0.03799 0.36186 0.96993 0.0
H71 H 0.02845 0.30573 0.9539 0.0
H72 H 0.97406 0.26799 0.98869 0.0
H73 H 0.94095 0.28373 0.96726 0.0
H74 H 0.07119 0.35472 0.04503 0.0
H75 H 0.04517 0.30723 0.01642 0.0
H76 H 0.9842 0.37229 0.99471 0.0
H77 H 0.95712 0.32117 0.01165 0.0
H78 H 0.95969 0.37506 0.00208 0.0
H79 H 0.93314 0.32486 0.01892 0.0
H80 H 0.02784 0.39546 0.02231 0.0
H81 H 0.0511 0.3704 0.99758 0.0
H82 H 0.05339 0.42275 0.01676 0.0
H83 H 0.07619 0.39811 0.99229 0.0
H84 H 0.99122 0.35587 0.08466 0.0
H85 H 0.99523 0.39527 0.05154 0.0
H86 H 0.00643 0.36923 0.92834 0.0
H87 H 0.01347 0.40781 0.96611 0.0
Li88 Li 0.67238 0.65721 0.0026 0.0
Li89 Li 0.65822 0.66914 0.01942 0.0
Li90 Li 0.64996 0.63878 0.02281 0.0
Li91 Li 0.64183 0.64775 0.99667 0.0
C92 C 0.68558 0.66151 0.03713 0.0
N93 N 0.71408 0.66577 0.05391 0.0
C94 C 0.69605 0.67632 0.04664 0.0
C95 C 0.68948 0.64877 0.03642 0.0
C96 C 0.71044 0.67828 0.05496 0.0
C97 C 0.70396 0.65117 0.04493 0.0
C98 C 0.66601 0.68561 0.98768 0.0
C99 C 0.6576 0.70505 0.97809 0.0
N100 N 0.67394 0.71692 0.97594 0.0
C101 C 0.68271 0.69793 0.98508 0.0
C102 C 0.65334 0.68913 0.9839 0.0
C103 C 0.68647 0.7137 0.97926 0.0
C104 C 0.69523 0.65595 0.97821 0.0
N105 N 0.69361 0.66381 0.9927 0.0
C106 C 0.72275 0.68434 0.99258 0.0
C107 C 0.70698 0.6777 0.99996 0.0
C108 C 0.72483 0.67668 0.97749 0.0
C109 C 0.71088 0.66214 0.97042 0.0
H110 H 0.68432 0.64513 0.97247 0.0
H111 H 0.70528 0.68403 0.01112 0.0
C112 C 0.65294 0.69169 0.04166 0.0
N113 N 0.66362 0.68967 0.0311 0.0
C114 C 0.65836 0.70698 0.05062 0.0
C115 C 0.68564 0.7176 0.03784 0.0
C116 C 0.67968 0.70223 0.02908 0.0
C117 C 0.67499 0.72017 0.04886 0.0
H118 H 0.64035 0.68138 0.04345 0.0
H119 H 0.68807 0.70007 0.02114 0.0
C120 C 0.65171 0.61875 0.99642 0.0
N121 N 0.64892 0.58756 0.9937 0.0
C122 C 0.63627 0.6045 0.99229 0.0
C123 C 0.66582 0.61716 0.99868 0.0
C124 C 0.63508 0.58884 0.99113 0.0
C125 C 0.66414 0.60129 0.99738 0.0
C126 C 0.62005 0.64763 0.02099 0.0
C127 C 0.60583 0.63276 0.02593 0.0
C128 C 0.61843 0.66113 0.01564 0.0
C129 C 0.59017 0.63151 0.025 0.0
C130 C 0.60257 0.65941 0.0149 0.0
N131 N 0.58887 0.64475 0.01952 0.0
C132 C 0.64999 0.6213 0.05376 0.0
C133 C 0.62658 0.6069 0.0344 0.0
C134 C 0.64301 0.60794 0.06537 0.0
N135 N 0.64175 0.6205 0.03857 0.0
C136 C 0.61904 0.59341 0.04574 0.0
C137 C 0.62725 0.59387 0.06148 0.0
H138 H 0.66174 0.63243 0.05712 0.0
H139 H 0.62015 0.60671 0.02243 0.0
C140 C 0.62676 0.64807 0.96386 0.0
N141 N 0.62456 0.63983 0.97917 0.0
C142 C 0.61424 0.64144 0.95079 0.0
C143 C 0.59764 0.61781 0.96936 0.0
C144 C 0.61033 0.62503 0.98215 0.0
C145 C 0.59957 0.626 0.95342 0.0
H146 H 0.63837 0.65958 0.9616 0.0
H147 H 0.60899 0.61862 0.99432 0.0
O148 O 0.67158 0.65951 0.02864 0.0
O149 O 0.66211 0.67009 0.99346 0.0
O150 O 0.65311 0.63422 0.99764 0.0
O151 O 0.63549 0.64903 0.02159 0.0
H152 H 0.69314 0.68623 0.04763 0.0
H153 H 0.68126 0.63703 0.02966 0.0
H154 H 0.71869 0.68972 0.06227 0.0
H155 H 0.70711 0.6414 0.04445 0.0
H156 H 0.6479 0.70793 0.97519 0.0
H157 H 0.69269 0.69541 0.98762 0.0
H158 H 0.64034 0.67964 0.98521 0.0
H159 H 0.69935 0.72338 0.97736 0.0
H160 H 0.73319 0.6955 0.99853 0.0
H161 H 0.71194 0.65597 0.95868 0.0
H162 H 0.64968 0.70838 0.05893 0.0
H163 H 0.69867 0.72713 0.03644 0.0
H164 H 0.62527 0.60547 0.9901 0.0
H165 H 0.678 0.62806 0.00124 0.0
H166 H 0.62315 0.5777 0.98813 0.0
H167 H 0.67495 0.5999 0.99921 0.0
H168 H 0.60681 0.62227 0.0304 0.0
H169 H 0.62932 0.67288 0.01231 0.0
H170 H 0.57905 0.62003 0.02866 0.0
H171 H 0.60116 0.66976 0.01072 0.0
H172 H 0.64959 0.60883 0.07754 0.0
H173 H 0.60687 0.58276 0.0423 0.0
H174 H 0.61623 0.64798 0.93854 0.0
H175 H 0.58647 0.6059 0.97185 0.0
Li176 Li 0.34448 0.99546 0.99294 0.0
Li177 Li 0.35184 0.01121 0.02039 0.0
Li178 Li 0.32183 0.9893 0.0138 0.0
Li179 Li 0.33509 0.0163 0.99853 0.0
C180 C 0.34159 0.97176 0.01571 0.0
N181 N 0.34168 0.94198 0.01261 0.0
C182 C 0.35631 0.97146 0.01891 0.0
C183 C 0.32686 0.95685 0.01126 0.0
C184 C 0.35612 0.95631 0.01718 0.0
C185 C 0.32717 0.94194 0.00967 0.0
C186 C 0.37249 0.03573 0.99803 0.0
C187 C 0.38605 0.06543 0.00455 0.0
N188 N 0.40119 0.06685 0.00175 0.0
C189 C 0.38818 0.03752 0.995 0.0
C190 C 0.37141 0.04983 0.00266 0.0
C191 C 0.40254 0.05333 0.99703 0.0
C192 C 0.3469 0.98107 0.95996 0.0
N193 N 0.35407 0.98768 0.97596 0.0
C194 C 0.37912 0.98809 0.96775 0.0
C195 C 0.36977 0.99101 0.98008 0.0
C196 C 0.37222 0.98162 0.951 0.0
C197 C 0.35576 0.97773 0.94724 0.0
H198 H 0.3346 0.97899 0.9568 0.0
H199 H 0.37524 0.99651 0.99279 0.0
C200 C 0.36617 0.02406 0.05459 0.0
N201 N 0.36861 0.01944 0.03831 0.0
C202 C 0.37764 0.02725 0.06825 0.0
C203 C 0.39383 0.02084 0.04807 0.0
C204 C 0.3822 0.01802 0.0348 0.0
C205 C 0.39144 0.02522 0.06512 0.0
H206 H 0.35494 0.02448 0.05723 0.0
H207 H 0.38358 0.0139 0.02186 0.0
C208 C 0.30793 0.98245 0.97913 0.0
N209 N 0.27864 0.96061 0.96111 0.0
C210 C 0.29712 0.98789 0.97346 0.0
C211 C 0.30395 0.96597 0.97542 0.0
C212 C 0.28235 0.97664 0.96443 0.0
C213 C 0.28906 0.9551 0.96635 0.0
C214 C 0.32704 0.02233 0.03334 0.0
C215 C 0.3105 0.01615 0.0385 0.0
C216 C 0.33926 0.03879 0.03795 0.0
C217 C 0.30641 0.02665 0.0479 0.0
C218 C 0.33467 0.0489 0.04737 0.0
N219 N 0.31848 0.04268 0.05209 0.0
C220 C 0.30326 0.96854 0.0411 0.0
C221 C 0.28651 0.97088 0.01894 0.0
C222 C 0.28944 0.96034 0.05202 0.0
N223 N 0.30163 0.97391 0.02507 0.0
C224 C 0.27237 0.96268 0.0294 0.0
C225 C 0.27386 0.95779 0.04638 0.0
H226 H 0.31552 0.97151 0.04581 0.0
H227 H 0.28556 0.9757 0.00644 0.0
C228 C 0.33733 0.03802 0.97182 0.0
N229 N 0.32966 0.03121 0.98721 0.0
C230 C 0.3317 0.04654 0.96139 0.0
C231 C 0.31079 0.04137 0.98313 0.0
C232 C 0.31677 0.03292 0.9931 0.0
C233 C 0.31798 0.04791 0.96683 0.0
H234 H 0.34731 0.03613 0.96726 0.0
H235 H 0.31051 0.02697 0.00505 0.0
O236 O 0.34155 0.98651 0.0172 0.0
O237 O 0.35828 0.02032 0.99623 0.0
O238 O 0.32247 0.99332 0.98797 0.0
O239 O 0.33126 0.01217 0.02419 0.0
H240 H 0.36778 0.98282 0.02263 0.0
H241 H 0.31527 0.95676 0.00911 0.0
H242 H 0.36746 0.95593 0.01948 0.0
H243 H 0.31586 0.93033 0.00615 0.0
H244 H 0.38538 0.07643 0.00821 0.0
H245 H 0.38928 0.02682 0.99116 0.0
H246 H 0.35939 0.04878 0.00473 0.0
H247 H 0.41476 0.05486 0.99484 0.0
H248 H 0.39173 0.99115 0.97117 0.0
H249 H 0.35012 0.97291 0.93437 0.0
H250 H 0.37528 0.03037 0.08131 0.0
H251 H 0.40434 0.01918 0.04517 0.0
H252 H 0.30005 0.00062 0.97608 0.0
H253 H 0.31233 0.96165 0.97933 0.0
H254 H 0.27382 0.98066 0.96006 0.0
H255 H 0.28581 0.94231 0.96342 0.0
H256 H 0.3009 0.00342 0.03518 0.0
H257 H 0.35219 0.04366 0.0345 0.0
H258 H 0.29364 0.02206 0.05188 0.0
H259 H 0.34401 0.06166 0.051 0.0
H260 H 0.29127 0.95704 0.0651 0.0
H261 H 0.26055 0.96075 0.02441 0.0
H262 H 0.33746 0.05113 0.94879 0.0
H263 H 0.30035 0.04234 0.98798 0.0
Li264 Li 0.01506 0.67592 0.02288 0.0
Li265 Li 0.99433 0.64744 0.02977 0.0
Li266 Li 0.00689 0.65496 0.99969 0.0
Li267 Li 0.987 0.66366 0.00968 0.0
C268 C 0.03282 0.66331 0.03159 0.0
N269 N 0.06292 0.67927 0.04993 0.0
C270 C 0.03303 0.66362 0.04999 0.0
C271 C 0.04788 0.67102 0.0225 0.0
C272 C 0.04839 0.67178 0.05902 0.0
C273 C 0.06299 0.67905 0.03202 0.0
C274 C 0.98014 0.66425 0.04609 0.0
C275 C 0.95041 0.64937 0.05124 0.0
N276 N 0.95332 0.65644 0.06766 0.0
C277 C 0.98282 0.67145 0.06299 0.0
C278 C 0.9638 0.65319 0.04014 0.0
C279 C 0.9691 0.66731 0.0737 0.0
C280 C 0.04322 0.7086 0.02099 0.0
N281 N 0.03238 0.69692 0.03223 0.0
C282 C 0.04147 0.71741 0.0556 0.0
C283 C 0.03174 0.70085 0.0494 0.0
C284 C 0.05197 0.72997 0.04395 0.0
C285 C 0.05324 0.72527 0.02662 0.0
H286 H 0.04338 0.70526 0.00738 0.0
H287 H 0.02302 0.69129 0.05805 0.0
C288 C 0.98535 0.61546 0.03822 0.0
N289 N 0.9867 0.62953 0.04569 0.0
C290 C 0.98077 0.60136 0.04827 0.0
C291 C 0.97897 0.61643 0.07367 0.0
C292 C 0.9836 0.63032 0.06305 0.0
C293 C 0.97771 0.60177 0.0663 0.0
H294 H 0.98802 0.61528 0.0244 0.0
H295 H 0.98505 0.64177 0.06874 0.0
C296 C 0.01498 0.6832 0.98211 0.0
N297 N 0.02713 0.6948 0.94899 0.0
C298 C 0.0055 0.68644 0.97016 0.0
C299 C 0.03069 0.68594 0.97723 0.0
C300 C 0.01185 0.69229 0.95348 0.0
C301 C 0.0366 0.69178 0.96042 0.0
C302 C 0.96812 0.62776 0.00023 0.0
C303 C 0.96525 0.62416 0.98219 0.0
C304 C 0.9557 0.61766 0.01208 0.0
C305 C 0.94992 0.6107 0.97627 0.0
C306 C 0.94054 0.60431 0.00566 0.0
N307 N 0.93799 0.60114 0.98803 0.0
C308 C 0.02079 0.63734 0.98339 0.0
C309 C 0.00782 0.64693 0.96352 0.0
C310 C 0.02378 0.62897 0.96969 0.0
N311 N 0.01281 0.64597 0.9801 0.0
C312 C 0.01066 0.63888 0.94944 0.0
C313 C 0.01849 0.62949 0.95245 0.0
H314 H 0.02438 0.63655 0.99675 0.0
H315 H 0.00124 0.6536 0.96125 0.0
C316 C 0.97416 0.68478 0.00796 0.0
N317 N 0.97157 0.66986 0.00148 0.0
C318 C 0.96622 0.69251 0.00016 0.0
C319 C 0.95247 0.66895 0.97969 0.0
C320 C 0.96067 0.66167 0.98791 0.0
C321 C 0.95563 0.68483 0.98545 0.0
H322 H 0.98319 0.69116 0.01852 0.0
H323 H 0.95909 0.65001 0.98276 0.0
O324 O 0.01791 0.65583 0.02255 0.0
O325 O 0.99348 0.66815 0.03548 0.0
O326 O 0.00892 0.67739 0.99847 0.0
O327 O 0.9832 0.64074 0.00628 0.0
H328 H 0.02144 0.65779 0.05719 0.0
H329 H 0.0479 0.67085 0.00826 0.0
H330 H 0.04876 0.67221 0.07326 0.0
H331 H 0.07475 0.68513 0.02518 0.0
H332 H 0.93771 0.6408 0.04677 0.0
H333 H 0.99534 0.6801 0.06784 0.0
H334 H 0.96143 0.64771 0.02706 0.0
H335 H 0.97102 0.67275 0.08683 0.0
H336 H 0.04027 0.72048 0.06912 0.0
H337 H 0.06101 0.73454 0.01712 0.0
H338 H 0.9797 0.59026 0.04197 0.0
H339 H 0.97689 0.61732 0.08755 0.0
H340 H 0.99337 0.68451 0.9737 0.0
H341 H 0.03813 0.68334 0.98623 0.0
H342 H 0.00463 0.69483 0.9441 0.0
H343 H 0.04868 0.69385 0.95645 0.0
H344 H 0.97464 0.63179 0.9728 0.0
H345 H 0.9577 0.62002 0.02612 0.0
H346 H 0.94752 0.60787 0.96233 0.0
H347 H 0.93083 0.59644 0.01469 0.0
H348 H 0.02967 0.62172 0.97269 0.0
H349 H 0.0066 0.63988 0.93636 0.0
H350 H 0.9692 0.70484 0.00488 0.0
H351 H 0.94427 0.66254 0.96849 0.0
Li352 Li 0.33781 0.3494 0.00991 0.0
Li353 Li 0.36705 0.35706 0.01335 0.0
Li354 Li 0.3575 0.36328 0.98551 0.0
Li355 Li 0.34979 0.33449 0.99301 0.0
C356 C 0.35318 0.38422 0.01185 0.0
N357 N 0.34346 0.40785 0.01568 0.0
C358 C 0.35803 0.3947 0.02684 0.0
C359 C 0.34352 0.3859 0.99876 0.0
C360 C 0.35295 0.40653 0.02855 0.0
C361 C 0.3387 0.39788 0.00094 0.0
C362 C 0.35055 0.33251 0.03506 0.0
C363 C 0.36456 0.32273 0.05415 0.0
N364 N 0.35924 0.32773 0.0684 0.0
C365 C 0.34515 0.33747 0.04989 0.0
C366 C 0.36026 0.32499 0.03719 0.0
C367 C 0.34969 0.33495 0.06664 0.0
C368 C 0.30519 0.32822 0.01741 0.0
N369 N 0.31763 0.34413 0.02125 0.0
C370 C 0.30044 0.34766 0.04218 0.0
C371 C 0.31557 0.35398 0.03325 0.0
C372 C 0.28744 0.3311 0.03866 0.0
C373 C 0.28993 0.32145 0.02591 0.0
H374 H 0.30735 0.32062 0.00803 0.0
H375 H 0.32577 0.36649 0.03631 0.0
C376 C 0.39701 0.36113 0.02899 0.0
N377 N 0.38448 0.3646 0.03072 0.0
C378 C 0.40828 0.36455 0.04293 0.0
C379 C 0.39404 0.37584 0.05976 0.0
C380 C 0.38296 0.37203 0.0456 0.0
C381 C 0.40671 0.37174 0.05874 0.0
H382 H 0.39786 0.3551 0.01708 0.0
H383 H 0.37269 0.37434 0.04674 0.0
C384 C 0.32295 0.34085 0.97292 0.0
N385 N 0.298 0.33635 0.94944 0.0
C386 C 0.32047 0.33191 0.95709 0.0
C387 C 0.31249 0.34723 0.97691 0.0
C388 C 0.30788 0.32986 0.94536 0.0
C389 C 0.30001 0.34489 0.96485 0.0
C390 C 0.3786 0.34633 0.97794 0.0
C391 C 0.38102 0.35024 0.96011 0.0
C392 C 0.38207 0.33437 0.98455 0.0
C393 C 0.38672 0.34198 0.94913 0.0
C394 C 0.38773 0.32637 0.97314 0.0
N395 N 0.38991 0.3303 0.95581 0.0
C396 C 0.3741 0.39538 0.97033 0.0
C397 C 0.35727 0.37312 0.95028 0.0
C398 C 0.37841 0.4071 0.95705 0.0
N399 N 0.36351 0.37878 0.96679 0.0
C400 C 0.36127 0.38437 0.93661 0.0
C401 C 0.3719 0.40164 0.93991 0.0
H402 H 0.37909 0.39953 0.98352 0.0
H403 H 0.34925 0.35986 0.94768 0.0
C404 C 0.33601 0.30013 0.99651 0.0
N405 N 0.34289 0.31237 0.98437 0.0
C406 C 0.32804 0.28329 0.99129 0.0
C407 C 0.33455 0.29182 0.96109 0.0
C408 C 0.34268 0.30858 0.96695 0.0
C409 C 0.32684 0.27896 0.97334 0.0
H410 H 0.33597 0.30339 0.0102 0.0
H411 H 0.3482 0.31853 0.95754 0.0
O412 O 0.35793 0.37245 0.01008 0.0
O413 O 0.34668 0.33534 0.01854 0.0
O414 O 0.33509 0.34274 0.9847 0.0
O415 O 0.37291 0.3542 0.98887 0.0
H416 H 0.36561 0.39373 0.03708 0.0
H417 H 0.3399 0.37817 0.98695 0.0
H418 H 0.35657 0.41466 0.04011 0.0
H419 H 0.33121 0.39928 0.99088 0.0
H420 H 0.37218 0.31706 0.05599 0.0
H421 H 0.33773 0.34341 0.04851 0.0
H422 H 0.36461 0.32114 0.02585 0.0
H423 H 0.34568 0.33883 0.07823 0.0
H424 H 0.29901 0.35552 0.0519 0.0
H425 H 0.28043 0.30854 0.02303 0.0
H426 H 0.41765 0.36092 0.04155 0.0
H427 H 0.39244 0.38161 0.07152 0.0
H428 H 0.32832 0.3268 0.95375 0.0
H429 H 0.31383 0.35381 0.98922 0.0
H430 H 0.30596 0.32309 0.93301 0.0
H431 H 0.29189 0.34983 0.96778 0.0
H432 H 0.37854 0.35955 0.9548 0.0
H433 H 0.38015 0.33111 0.99828 0.0
H434 H 0.38861 0.34485 0.93529 0.0
H435 H 0.39033 0.317 0.97805 0.0
H436 H 0.38683 0.42027 0.96013 0.0
H437 H 0.35586 0.37959 0.92365 0.0
H438 H 0.32203 0.27376 0.00112 0.0
H439 H 0.33391 0.28895 0.94713 0.0
Li440 Li 0.66105 0.9867 0.01902 0.0
Li441 Li 0.65294 0.00707 0.02883 0.0
Li442 Li 0.64715 0.99557 0.99766 0.0
Li443 Li 0.67589 0.01582 0.00759 0.0
C444 C 0.62684 0.96836 0.0268 0.0
N445 N 0.60396 0.93775 0.04054 0.0
C446 C 0.62453 0.9667 0.04497 0.0
C447 C 0.61743 0.95448 0.01559 0.0
C448 C 0.61291 0.95111 0.05167 0.0
C449 C 0.60596 0.9391 0.0228 0.0
C450 C 0.68285 0.01443 0.04759 0.0
C451 C 0.7008 0.03786 0.06679 0.0
N452 N 0.69957 0.027 0.07936 0.0
C453 C 0.68188 0.00349 0.06062 0.0
C454 C 0.69248 0.03175 0.0506 0.0
C455 C 0.69038 0.0101 0.07663 0.0
C456 C 0.68289 0.97561 0.02335 0.0
N457 N 0.66655 0.97043 0.02625 0.0
C458 C 0.66272 0.94574 0.04017 0.0
C459 C 0.65637 0.95574 0.03436 0.0
C460 C 0.67968 0.95096 0.03762 0.0
C461 C 0.68974 0.96604 0.02889 0.0
H462 H 0.69069 0.98739 0.01691 0.0
H463 H 0.64345 0.95183 0.03662 0.0
C464 C 0.63412 0.02025 0.04346 0.0
N465 N 0.64398 0.01381 0.04768 0.0
C466 C 0.62613 0.02419 0.05664 0.0
C467 C 0.6387 0.0149 0.07829 0.0
C468 C 0.64645 0.01117 0.06471 0.0
C469 C 0.62822 0.02133 0.07434 0.0
H470 H 0.63216 0.02199 0.02979 0.0
H471 H 0.65402 0.00571 0.06776 0.0
C472 C 0.66566 0.98332 0.98127 0.0
N473 N 0.66139 0.96109 0.95427 0.0
C474 C 0.67494 0.98915 0.96592 0.0
C475 C 0.6543 0.9662 0.98296 0.0
C476 C 0.67257 0.97771 0.95239 0.0
C477 C 0.6523 0.95516 0.96915 0.0
C478 C 0.66155 0.03559 0.00368 0.0
C479 C 0.6591 0.04075 0.98731 0.0
C480 C 0.66928 0.04736 0.01741 0.0
C481 C 0.66471 0.05772 0.98485 0.0
C482 C 0.67469 0.06421 0.01444 0.0
N483 N 0.67233 0.069 0.99835 0.0
C484 C 0.61563 0.98139 0.98006 0.0
C485 C 0.63945 0.99565 0.96207 0.0
C486 C 0.60498 0.97839 0.96564 0.0
N487 N 0.6325 0.98987 0.978 0.0
C488 C 0.6293 0.99291 0.94731 0.0
C489 C 0.6118 0.98431 0.949 0.0
H490 H 0.61047 0.9773 0.99299 0.0
H491 H 0.65292 0.00269 0.96092 0.0
C492 C 0.71067 0.03291 0.00801 0.0
N493 N 0.69731 0.03244 0.99995 0.0
C494 C 0.72675 0.04302 0.00158 0.0
C495 C 0.71508 0.05221 0.97879 0.0
C496 C 0.69918 0.04178 0.98558 0.0
C497 C 0.72908 0.05269 0.98665 0.0
H498 H 0.70875 0.02497 0.0191 0.0
H499 H 0.6883 0.04065 0.97896 0.0
O500 O 0.63798 0.98356 0.01998 0.0
O501 O 0.67474 0.00818 0.03178 0.0
O502 O 0.66776 0.99438 0.99457 0.0
O503 O 0.65618 0.01905 0.00629 0.0
H504 H 0.63171 0.97728 0.05382 0.0
H505 H 0.61895 0.95557 0.00148 0.0
H506 H 0.61104 0.94963 0.06571 0.0
H507 H 0.59864 0.92825 0.0143 0.0
H508 H 0.70828 0.05124 0.06932 0.0
H509 H 0.67454 0.99004 0.05844 0.0
H510 H 0.69364 0.04038 0.04051 0.0
H511 H 0.68968 0.00179 0.08688 0.0
H512 H 0.65454 0.93426 0.04694 0.0
H513 H 0.70279 0.97042 0.02631 0.0
H514 H 0.61801 0.02893 0.05296 0.0
H515 H 0.64083 0.01267 0.09175 0.0
H516 H 0.68381 0.00239 0.96446 0.0
H517 H 0.64714 0.9615 0.99482 0.0
H518 H 0.67962 0.98204 0.9404 0.0
H519 H 0.64353 0.94187 0.97026 0.0
H520 H 0.65304 0.03175 0.97658 0.0
H521 H 0.671 0.04351 0.03023 0.0
H522 H 0.66299 0.06192 0.97222 0.0
H523 H 0.68074 0.07348 0.02493 0.0
H524 H 0.59159 0.97193 0.9676 0.0
H525 H 0.63511 0.99754 0.93473 0.0
H526 H 0.73723 0.0431 0.00806 0.0
H527 H 0.71634 0.05928 0.96709 0.0
Li528 Li 0.65873 0.66382 0.33519 0.0
Li529 Li 0.68445 0.68081 0.35254 0.0
Li530 Li 0.65937 0.68434 0.35566 0.0
Li531 Li 0.67702 0.69493 0.32984 0.0
C532 C 0.65316 0.64834 0.3664 0.0
N533 N 0.63595 0.61515 0.37621 0.0
C534 C 0.66188 0.64029 0.37114 0.0
C535 C 0.63568 0.63958 0.36696 0.0
C536 C 0.65296 0.62349 0.37598 0.0
C537 C 0.62721 0.62279 0.37186 0.0
C538 C 0.69545 0.67575 0.31969 0.0
C539 C 0.72385 0.68928 0.3093 0.0
N540 N 0.72208 0.67399 0.30579 0.0
C541 C 0.69385 0.66018 0.31568 0.0
C542 C 0.71051 0.69042 0.31622 0.0
C543 C 0.70747 0.65955 0.30878 0.0
C544 C 0.6322 0.64001 0.31326 0.0
N545 N 0.64497 0.64236 0.32409 0.0
C546 C 0.63905 0.61443 0.31797 0.0
C547 C 0.64844 0.62992 0.32667 0.0
C548 C 0.62586 0.61163 0.30653 0.0
C549 C 0.62238 0.62465 0.30441 0.0
H550 H 0.62977 0.65013 0.3113 0.0
H551 H 0.65873 0.63212 0.33521 0.0
C552 C 0.71001 0.69245 0.37836 0.0
N553 N 0.70256 0.68103 0.36498 0.0
C554 C 0.72345 0.69342 0.38777 0.0
C555 C 0.72077 0.67021 0.37015 0.0
C556 C 0.70756 0.6699 0.36086 0.0
C557 C 0.72901 0.68219 0.38374 0.0
H558 H 0.70557 0.70092 0.3817 0.0
H559 H 0.70106 0.6605 0.35064 0.0
C560 C 0.63821 0.68238 0.33072 0.0
N561 N 0.61027 0.6858 0.33198 0.0
C562 C 0.6389 0.69683 0.3244 0.0
C563 C 0.6232 0.66955 0.33737 0.0
C564 C 0.62467 0.69836 0.32523 0.0
C565 C 0.60924 0.67154 0.33799 0.0
C566 C 0.69681 0.71791 0.35622 0.0
C567 C 0.69466 0.73083 0.36299 0.0
C568 C 0.71273 0.72149 0.35112 0.0
C569 C 0.70836 0.74717 0.36407 0.0
C570 C 0.72613 0.73797 0.35243 0.0
N571 N 0.72368 0.75037 0.35879 0.0
C572 C 0.63894 0.68018 0.38543 0.0
C573 C 0.64779 0.70479 0.36899 0.0
C574 C 0.63121 0.68543 0.39765 0.0
N575 N 0.64715 0.68997 0.37157 0.0
C576 C 0.64049 0.71063 0.38098 0.0
C577 C 0.63228 0.701 0.39564 0.0
H578 H 0.63878 0.66853 0.38726 0.0
H579 H 0.65432 0.71226 0.3578 0.0
C580 C 0.69143 0.71094 0.29746 0.0
N581 N 0.68537 0.71246 0.31322 0.0
C582 C 0.69751 0.72402 0.28552 0.0
C583 C 0.69035 0.73964 0.30594 0.0
C584 C 0.68468 0.72641 0.31757 0.0
C585 C 0.69692 0.73855 0.28972 0.0
H586 H 0.69144 0.69954 0.29411 0.0
H587 H 0.67945 0.72713 0.32999 0.0
O588 O 0.6617 0.66476 0.36146 0.0
O589 O 0.68219 0.67657 0.32646 0.0
O590 O 0.65211 0.68078 0.33033 0.0
O591 O 0.68346 0.70183 0.35487 0.0
H592 H 0.67539 0.64689 0.37102 0.0
H593 H 0.62872 0.64565 0.36369 0.0
H594 H 0.65957 0.61709 0.37956 0.0
H595 H 0.61368 0.61585 0.37224 0.0
H596 H 0.73557 0.70055 0.30662 0.0
H597 H 0.68227 0.64869 0.31794 0.0
H598 H 0.71187 0.70259 0.31854 0.0
H599 H 0.70641 0.64757 0.30578 0.0
H600 H 0.64246 0.60495 0.31982 0.0
H601 H 0.61222 0.62304 0.29592 0.0
H602 H 0.72943 0.70305 0.3979 0.0
H603 H 0.72416 0.66091 0.36686 0.0
H604 H 0.65028 0.70678 0.31894 0.0
H605 H 0.62232 0.65816 0.34198 0.0
H606 H 0.62508 0.70953 0.32049 0.0
H607 H 0.59759 0.66174 0.34322 0.0
H608 H 0.68255 0.72834 0.36734 0.0
H609 H 0.71481 0.71161 0.34653 0.0
H610 H 0.70681 0.75729 0.36916 0.0
H611 H 0.7385 0.74087 0.34849 0.0
H612 H 0.62508 0.67775 0.4089 0.0
H613 H 0.64143 0.72265 0.37896 0.0
H614 H 0.70229 0.72266 0.273 0.0
H615 H 0.68969 0.75065 0.30962 0.0
Li616 Li 0.30151 0.97668 0.34284 0.0
Li617 Li 0.30857 0.96641 0.36912 0.0
Li618 Li 0.32006 0.99671 0.36453 0.0
Li619 Li 0.32966 0.98086 0.3468 0.0
C620 C 0.28033 0.97502 0.36585 0.0
N621 N 0.24744 0.96628 0.35986 0.0
C622 C 0.26746 0.95848 0.36807 0.0
C623 C 0.2765 0.98715 0.36071 0.0
C624 C 0.2509 0.95431 0.36495 0.0
C625 C 0.25978 0.98247 0.35771 0.0
C626 C 0.31182 0.94983 0.33396 0.0
C627 C 0.32397 0.93235 0.32982 0.0
N628 N 0.32062 0.93138 0.31225 0.0
C629 C 0.30843 0.94862 0.31588 0.0
C630 C 0.31958 0.94158 0.34102 0.0
C631 C 0.31299 0.93924 0.30512 0.0
C632 C 0.28306 0.98181 0.31563 0.0
N633 N 0.284 0.97044 0.32597 0.0
C634 C 0.26039 0.94779 0.31112 0.0
C635 C 0.27286 0.95374 0.32414 0.0
C636 C 0.25931 0.95916 0.29996 0.0
C637 C 0.27064 0.97641 0.30252 0.0
H638 H 0.29215 0.99501 0.31731 0.0
H639 H 0.27392 0.945 0.33257 0.0
C640 C 0.30104 0.95176 0.4032 0.0
N641 N 0.29967 0.94864 0.38553 0.0
C642 C 0.29448 0.9385 0.41492 0.0
C643 C 0.28428 0.91906 0.39007 0.0
C644 C 0.29135 0.93268 0.37883 0.0
C645 C 0.28596 0.92194 0.40832 0.0
H646 H 0.30715 0.96453 0.40821 0.0
H647 H 0.2901 0.93053 0.36474 0.0
C648 C 0.3314 0.01363 0.33478 0.0
N649 N 0.34844 0.04759 0.3283 0.0
C650 C 0.34831 0.02178 0.33037 0.0
C651 C 0.32311 0.02271 0.33576 0.0
C652 C 0.35671 0.03896 0.32716 0.0
C653 C 0.33196 0.03989 0.33249 0.0
C654 C 0.33749 0.98252 0.38801 0.0
C655 C 0.33928 0.99251 0.4028 0.0
C656 C 0.34101 0.96956 0.38943 0.0
C657 C 0.34448 0.98929 0.41882 0.0
C658 C 0.34614 0.96672 0.40569 0.0
N659 N 0.34775 0.97656 0.41992 0.0
C660 C 0.31723 0.0199 0.38717 0.0
C661 C 0.34416 0.02944 0.37551 0.0
C662 C 0.32331 0.03464 0.39734 0.0
N663 N 0.3277 0.01758 0.3766 0.0
C664 C 0.35068 0.04446 0.38515 0.0
C665 C 0.34031 0.04712 0.39652 0.0
H666 H 0.30428 0.01008 0.38813 0.0
H667 H 0.35231 0.02709 0.36736 0.0
C668 C 0.34856 0.98087 0.31749 0.0
N669 N 0.34836 0.98189 0.33535 0.0
C670 C 0.36206 0.98114 0.30907 0.0
C671 C 0.37516 0.98418 0.33755 0.0
C672 C 0.36137 0.98372 0.3454 0.0
C673 C 0.37558 0.98278 0.31915 0.0
H674 H 0.33822 0.97983 0.30979 0.0
H675 H 0.36106 0.98481 0.35954 0.0
O676 O 0.29664 0.97924 0.3683 0.0
O677 O 0.30771 0.95918 0.34468 0.0
O678 O 0.323 0.99684 0.33808 0.0
O679 O 0.3324 0.98546 0.37221 0.0
H680 H 0.27024 0.94894 0.37196 0.0
H681 H 0.28633 -1e-05 0.3589 0.0
H682 H 0.24081 0.94153 0.36651 0.0
H683 H 0.25663 0.9917 0.35362 0.0
H684 H 0.33006 0.92596 0.33509 0.0
H685 H 0.30256 0.95505 0.31017 0.0
H686 H 0.32225 0.94236 0.35499 0.0
H687 H 0.31053 0.93827 0.29109 0.0
H688 H 0.25176 0.93442 0.30969 0.0
H689 H 0.27027 0.98555 0.29409 0.0
H690 H 0.29574 0.94117 0.42895 0.0
H691 H 0.27786 0.90645 0.38449 0.0
H692 H 0.35492 0.01494 0.32955 0.0
H693 H 0.31005 0.01662 0.33924 0.0
H694 H 0.36982 0.04545 0.3238 0.0
H695 H 0.32574 0.0471 0.33333 0.0
H696 H 0.33661 0.00259 0.40199 0.0
H697 H 0.33968 0.9617 0.37813 0.0
H698 H 0.34587 0.99689 0.43039 0.0
H699 H 0.34882 0.95668 0.40699 0.0
H700 H 0.31484 0.03585 0.40612 0.0
H701 H 0.36375 0.05376 0.3837 0.0
H702 H 0.36201 0.98027 0.29483 0.0
H703 H 0.38527 0.98535 0.34583 0.0
Li704 Li 0.01924 0.32081 0.33126 0.0
Li705 Li 0.02952 0.33836 0.35797 0.0
Li706 Li 0.99867 0.32117 0.35159 0.0
Li707 Li 0.01697 0.34659 0.33541 0.0
C708 C 0.01032 0.29722 0.35918 0.0
N709 N 0.0008 0.26424 0.36569 0.0
C710 C 0.02131 0.29341 0.36783 0.0
C711 C 0.99436 0.28423 0.35418 0.0
C712 C 0.01631 0.27667 0.3709 0.0
C713 C 0.98981 0.26765 0.3575 0.0
C714 C 0.05432 0.35291 0.33576 0.0
C715 C 0.08014 0.37681 0.34636 0.0
N716 N 0.08855 0.36894 0.34139 0.0
C717 C 0.06324 0.34511 0.33064 0.0
C718 C 0.06285 0.36894 0.34356 0.0
C719 C 0.08053 0.3534 0.33363 0.0
C720 C 0.02175 0.31024 0.29726 0.0
N721 N 0.02399 0.30828 0.31456 0.0
C722 C 0.03575 0.29122 0.30711 0.0
C723 C 0.03074 0.29892 0.31967 0.0
C724 C 0.03391 0.29331 0.28912 0.0
C725 C 0.02657 0.30277 0.28426 0.0
H726 H 0.01656 0.31795 0.29357 0.0
H727 H 0.03289 0.29798 0.33346 0.0
C728 C 0.04794 0.35787 0.38793 0.0
N729 N 0.0464 0.34612 0.3759 0.0
C730 C 0.06083 0.36426 0.40054 0.0
C731 C 0.07004 0.346 0.38844 0.0
C732 C 0.05707 0.34008 0.37597 0.0
C733 C 0.0721 0.35832 0.40087 0.0
H734 H 0.03921 0.36236 0.38768 0.0
H735 H 0.05568 0.33089 0.36611 0.0
C736 C 0.98629 0.31321 0.31571 0.0
N737 N 0.95869 0.29119 0.29542 0.0
C738 C 0.97634 0.31869 0.3077 0.0
C739 C 0.98238 0.29661 0.31308 0.0
C740 C 0.96238 0.30734 0.29759 0.0
C741 C 0.96833 0.28565 0.30286 0.0
C742 C 0.00889 0.35726 0.36406 0.0
C743 C 0.99241 0.35365 0.36608 0.0
C744 C 0.02198 0.37394 0.36478 0.0
C745 C 0.98929 0.36682 0.36855 0.0
C746 C 0.01834 0.38676 0.36722 0.0
N747 N 0.00221 0.38296 0.36903 0.0
C748 C 0.97746 0.30361 0.37911 0.0
C749 C 0.9631 0.30609 0.35451 0.0
C750 C 0.96265 0.29571 0.38862 0.0
N751 N 0.97743 0.30869 0.36243 0.0
C752 C 0.94801 0.29824 0.36353 0.0
C753 C 0.94772 0.29314 0.38089 0.0
H754 H 0.9891 0.30609 0.38518 0.0
H755 H 0.96342 0.31055 0.34141 0.0
C756 C 0.03269 0.37797 0.31865 0.0
N757 N 0.01777 0.3653 0.32423 0.0
C758 C 0.03393 0.39265 0.31233 0.0
C759 C 0.00426 0.38064 0.31685 0.0
C760 C 0.00362 0.36623 0.32316 0.0
C761 C 0.01964 0.39425 0.31162 0.0
H762 H 0.04374 0.37689 0.31955 0.0
H763 H 0.99193 0.35601 0.32778 0.0
O764 O 0.01503 0.31359 0.3562 0.0
O765 O 0.03733 0.34483 0.33325 0.0
O766 O 8e-05 0.32423 0.32556 0.0
O767 O 0.01216 0.34454 0.36125 0.0
H768 H 0.03361 0.30326 0.37208 0.0
H769 H 0.98546 0.28689 0.34804 0.0
H770 H 0.02475 0.27356 0.37745 0.0
H771 H 0.9775 0.2575 0.35365 0.0
H772 H 0.08686 0.38915 0.35254 0.0
H773 H 0.0569 0.33276 0.3245 0.0
H774 H 0.05616 0.37516 0.34767 0.0
H775 H 0.08757 0.34747 0.3298 0.0
H776 H 0.04162 0.28431 0.31146 0.0
H777 H 0.02476 0.30457 0.27055 0.0
H778 H 0.06189 0.37362 0.41004 0.0
H779 H 0.07858 0.34123 0.38814 0.0
H780 H 0.97929 0.33153 0.30933 0.0
H781 H 0.9902 0.29224 0.31862 0.0
H782 H 0.9545 0.31139 0.29144 0.0
H783 H 0.96515 0.27276 0.30077 0.0
H784 H 0.98212 0.34084 0.36561 0.0
H785 H 0.0348 0.37699 0.36318 0.0
H786 H 0.97659 0.3642 0.37003 0.0
H787 H 0.02834 0.39973 0.36761 0.0
H788 H 0.96312 0.2923 0.40207 0.0
H789 H 0.93676 0.29632 0.35697 0.0
H790 H 0.0461 0.40285 0.30865 0.0
H791 H 0.99287 0.38119 0.31631 0.0
Li792 Li 0.67882 0.99242 0.3555 0.0
Li793 Li 0.65926 0.96236 0.36367 0.0
Li794 Li 0.67541 0.96997 0.33536 0.0
Li795 Li 0.65266 0.97505 0.3395 0.0
C796 C 0.69767 0.98143 0.37145 0.0
N797 N 0.72479 0.99598 0.39447 0.0
C798 C 0.69556 0.97728 0.38923 0.0
C799 C 0.7136 0.99294 0.36537 0.0
C800 C 0.70942 0.98478 0.40066 0.0
C801 C 0.72714 0.00017 0.37722 0.0
C802 C 0.64307 0.98485 0.36716 0.0
C803 C 0.61391 0.97504 0.37223 0.0
N804 N 0.61686 0.99087 0.36997 0.0
C805 C 0.64585 0.00104 0.36501 0.0
C806 C 0.62701 0.97175 0.37089 0.0
C807 C 0.63242 0.00382 0.36643 0.0
C808 C 0.69275 0.0264 0.35201 0.0
N809 N 0.69299 0.01519 0.36319 0.0
C810 C 0.71173 0.03747 0.3828 0.0
C811 C 0.70198 0.02033 0.37856 0.0
C812 C 0.71169 0.04924 0.37139 0.0
C813 C 0.70198 0.04353 0.3559 0.0
H814 H 0.6852 0.02201 0.3401 0.0
H815 H 0.70152 0.01122 0.3876 0.0
C816 C 0.64822 0.93143 0.38053 0.0
N817 N 0.65077 0.9472 0.38254 0.0
C818 C 0.64011 0.91962 0.39358 0.0
C819 C 0.63832 0.94082 0.41089 0.0
C820 C 0.64627 0.95215 0.39743 0.0
C821 C 0.63485 0.92422 0.4089 0.0
H822 H 0.65191 0.92787 0.36848 0.0
H823 H 0.64846 0.96477 0.39863 0.0
C824 C 0.6839 0.99614 0.31528 0.0
N825 N 0.70253 0.0072 0.28506 0.0
C826 C 0.67592 0.99198 0.29878 0.0
C827 C 0.70133 0.00604 0.31643 0.0
C828 C 0.68557 0.99768 0.28365 0.0
C829 C 0.71053 0.01147 0.30099 0.0
C830 C 0.63531 0.94113 0.33395 0.0
C831 C 0.63131 0.93766 0.31602 0.0
C832 C 0.62289 0.93242 0.34635 0.0
C833 C 0.61505 0.92551 0.31082 0.0
C834 C 0.60679 0.92035 0.34064 0.0
N835 N 0.60323 0.91716 0.32313 0.0
C836 C 0.70269 0.96717 0.32188 0.0
C837 C 0.67976 0.95867 0.30222 0.0
C838 C 0.71198 0.96521 0.30858 0.0
N839 N 0.68701 0.96423 0.31838 0.0
C840 C 0.68849 0.95637 0.28861 0.0
C841 C 0.705 0.96004 0.29154 0.0
H842 H 0.7082 0.97154 0.33482 0.0
H843 H 0.66745 0.9567 0.29964 0.0
C844 C 0.64269 0.99372 0.32079 0.0
N845 N 0.6362 0.97809 0.32741 0.0
C846 C 0.63273 0.99792 0.31087 0.0
C847 C 0.60925 0.97005 0.31518 0.0
C848 C 0.61966 0.96646 0.32529 0.0
C849 C 0.61587 0.98591 0.30766 0.0
H850 H 0.65574 0.00294 0.32307 0.0
H851 H 0.61449 0.9544 0.33131 0.0
O852 O 0.68426 0.9741 0.36003 0.0
O853 O 0.65595 0.98178 0.36528 0.0
O854 O 0.6747 0.99041 0.33023 0.0
O855 O 0.65131 0.95271 0.33931 0.0
H856 H 0.68336 0.96837 0.39417 0.0
H857 H 0.71546 0.99639 0.35169 0.0
H858 H 0.70796 0.9817 0.41446 0.0
H859 H 0.73951 0.00915 0.37271 0.0
H860 H 0.60139 0.965 0.37501 0.0
H861 H 0.65819 0.01132 0.36208 0.0
H862 H 0.62465 0.95915 0.3726 0.0
H863 H 0.63436 0.01627 0.36468 0.0
H864 H 0.71899 0.04147 0.39497 0.0
H865 H 0.7017 0.05225 0.34674 0.0
H866 H 0.63777 0.90698 0.39163 0.0
H867 H 0.63432 0.94482 0.42241 0.0
H868 H 0.66243 0.98426 0.29767 0.0
H869 H 0.70768 0.00943 0.3291 0.0
H870 H 0.67957 0.99447 0.27078 0.0
H871 H 0.72404 0.01907 0.30167 0.0
H872 H 0.64054 0.94438 0.30616 0.0
H873 H 0.62551 0.93501 0.36024 0.0
H874 H 0.61182 0.92276 0.29699 0.0
H875 H 0.5971 0.91356 0.35012 0.0
H876 H 0.72471 0.96836 0.31148 0.0
H877 H 0.68243 0.95209 0.27583 0.0
H878 H 0.63833 0.01029 0.30528 0.0
H879 H 0.59621 0.96055 0.31323 0.0
Li880 Li 0.03822 0.70609 0.35917 0.0
Li881 Li 0.00888 0.69711 0.35295 0.0
Li882 Li 0.02349 0.68513 0.33533 0.0
Li883 Li 0.02979 0.71394 0.3311 0.0
C884 C 0.0189 0.6761 0.376 0.0
N885 N 0.02009 0.66167 0.40714 0.0
C886 C 0.01347 0.67986 0.39161 0.0
C887 C 0.02466 0.66475 0.37617 0.0
C888 C 0.01426 0.67252 0.40724 0.0
C889 C 0.02523 0.65765 0.39206 0.0
C890 C 0.02126 0.72933 0.36324 0.0
C891 C 0.00089 0.73824 0.36239 0.0
N892 N 0.00691 0.74644 0.37811 0.0
C893 C 0.02733 0.73795 0.37932 0.0
C894 C 0.00801 0.72956 0.35464 0.0
C895 C 0.01988 0.74649 0.38665 0.0
C896 C 0.06931 0.71355 0.37519 0.0
N897 N 0.05432 0.71246 0.37799 0.0
C898 C 0.06038 0.71747 0.40886 0.0
C899 C 0.04992 0.71477 0.39437 0.0
C900 C 0.07551 0.71763 0.40654 0.0
C901 C 0.08005 0.71595 0.38932 0.0
H902 H 0.07285 0.71217 0.36207 0.0
H903 H 0.03803 0.71406 0.39627 0.0
C904 C 0.97462 0.67668 0.35379 0.0
N905 N 0.98741 0.68982 0.36271 0.0
C906 C 0.9585 0.66864 0.36055 0.0
C907 C 0.96885 0.68805 0.38541 0.0
C908 C 0.98485 0.69567 0.37821 0.0
C909 C 0.95545 0.67413 0.3767 0.0
H910 H 0.97709 0.67204 0.34171 0.0
H911 H 0.99526 0.70587 0.3853 0.0
C912 C 0.05717 0.70135 0.3289 0.0
N913 N 0.07938 0.69178 0.31724 0.0
C914 C 0.06774 0.70957 0.31489 0.0
C915 C 0.05802 0.68836 0.33707 0.0
C916 C 0.07885 0.70452 0.30916 0.0
C917 C 0.0693 0.68368 0.33098 0.0
C918 C 0.00209 0.69383 0.31128 0.0
C919 C 0.00759 0.68974 0.29593 0.0
C920 C 0.9903 0.69897 0.31013 0.0
C921 C 0.00146 0.69118 0.27962 0.0
C922 C 0.98444 0.70023 0.29357 0.0
N923 N 0.99012 0.69637 0.27879 0.0
C924 C 0.00595 0.65075 0.33117 0.0
C925 C 0.02713 0.66374 0.30989 0.0
C926 C 0.00047 0.63501 0.32344 0.0
N927 N 0.019 0.66468 0.32431 0.0
C928 C 0.02217 0.64821 0.30182 0.0
C929 C 0.00853 0.63357 0.30847 0.0
H930 H 0.9995 0.65195 0.34243 0.0
H931 H 0.03723 0.67504 0.30441 0.0
C932 C 0.03359 0.74366 0.3155 0.0
N933 N 0.03561 0.73019 0.31317 0.0
C934 C 0.03657 0.75459 0.30168 0.0
C935 C 0.04439 0.73803 0.28357 0.0
C936 C 0.04107 0.72734 0.29766 0.0
C937 C 0.04189 0.75176 0.28534 0.0
H938 H 0.02938 0.74581 0.32794 0.0
H939 H 0.04248 0.71649 0.2961 0.0
O940 O 0.01831 0.68326 0.36059 0.0
O941 O 0.02827 0.72074 0.35594 0.0
O942 O 0.04599 0.70591 0.33452 0.0
O943 O 0.00812 0.6927 0.32736 0.0
H944 H 0.00893 0.68856 0.39172 0.0
H945 H 0.02852 0.66134 0.36417 0.0
H946 H 0.01025 0.67546 0.41944 0.0
H947 H 0.02972 0.64889 0.39239 0.0
H948 H 0.99057 0.73843 0.35591 0.0
H949 H 0.03775 0.73817 0.38603 0.0
H950 H 0.00323 0.72302 0.34217 0.0
H951 H 0.02443 0.75319 0.39912 0.0
H952 H 0.05648 0.71913 0.42177 0.0
H953 H 0.09147 0.71585 0.38674 0.0
H954 H 0.94871 0.65777 0.35351 0.0
H955 H 0.96709 0.69282 0.39782 0.0
H956 H 0.06749 0.71984 0.30858 0.0
H957 H 0.05006 0.68199 0.34801 0.0
H958 H 0.08708 0.71077 0.29831 0.0
H959 H 0.07003 0.67361 0.33716 0.0
H960 H 0.0167 0.68574 0.29658 0.0
H961 H 0.98563 0.70186 0.32188 0.0
H962 H 0.00574 0.68821 0.26762 0.0
H963 H 0.97536 0.70425 0.29248 0.0
H964 H 0.98969 0.62419 0.32883 0.0
H965 H 0.02886 0.64771 0.2904 0.0
H966 H 0.03423 0.76483 0.30369 0.0
H967 H 0.04875 0.73545 0.27139 0.0
Li968 Li 0.31277 0.34231 0.36229 0.0
Li969 Li 0.32054 0.32212 0.3543 0.0
Li970 Li 0.33345 0.34784 0.33935 0.0
Li971 Li 0.30349 0.32619 0.3332 0.0
C972 C 0.34584 0.35979 0.37273 0.0
N973 N 0.3674 0.39038 0.38891 0.0
C974 C 0.35704 0.36096 0.38584 0.0
C975 C 0.34562 0.3742 0.36784 0.0
C976 C 0.36783 0.37653 0.39387 0.0
C977 C 0.35662 0.38954 0.37617 0.0
C978 C 0.28921 0.30434 0.36783 0.0
C979 C 0.2677 0.27552 0.37171 0.0
N980 N 0.27264 0.27667 0.38882 0.0
C981 C 0.29402 0.30528 0.38546 0.0
C982 C 0.27591 0.28938 0.36088 0.0
C983 C 0.28551 0.29113 0.39585 0.0
C984 C 0.29644 0.35832 0.37775 0.0
N985 N 0.30647 0.35185 0.38094 0.0
C986 C 0.30867 0.35949 0.41143 0.0
C987 C 0.31249 0.35219 0.39738 0.0
C988 C 0.29849 0.36647 0.40858 0.0
C989 C 0.2923 0.36578 0.39145 0.0
H990 H 0.29171 0.35774 0.36456 0.0
H991 H 0.32045 0.34696 0.39955 0.0
C992 C 0.34329 0.31392 0.36672 0.0
N993 N 0.32663 0.3066 0.36319 0.0
C994 C 0.35023 0.30427 0.37164 0.0
C995 C 0.32267 0.27959 0.36961 0.0
C996 C 0.31627 0.28975 0.36453 0.0
C997 C 0.33993 0.28681 0.37305 0.0
H998 H 0.35134 0.32727 0.3651 0.0
H999 H 0.30316 0.28406 0.36113 0.0
C1000 C 0.31404 0.36124 0.32522 0.0
N1001 N 0.31528 0.3821 0.29891 0.0
C1002 C 0.31588 0.35773 0.3077 0.0
C1003 C 0.31294 0.37543 0.32939 0.0
C1004 C 0.31643 0.3684 0.29458 0.0
C1005 C 0.31358 0.38581 0.31589 0.0
C1006 C 0.3243 0.31114 0.32376 0.0
C1007 C 0.33959 0.31214 0.32037 0.0
C1008 C 0.3095 0.29556 0.32282 0.0
C1009 C 0.33982 0.29748 0.31622 0.0
C1010 C 0.31026 0.2812 0.31858 0.0
N1011 N 0.32528 0.28245 0.31543 0.0
C1012 C 0.3664 0.35974 0.33219 0.0
C1013 C 0.35764 0.37785 0.32093 0.0
C1014 C 0.38234 0.36967 0.3254 0.0
N1015 N 0.35436 0.36377 0.32961 0.0
C1016 C 0.37346 0.38816 0.31385 0.0
C1017 C 0.38602 0.384 0.31588 0.0
H1018 H 0.36356 0.34875 0.33959 0.0
H1019 H 0.34809 0.38115 0.31945 0.0
C1020 C 0.27027 0.31173 0.31907 0.0
N1021 N 0.28639 0.31638 0.3155 0.0
C1022 C 0.25787 0.30417 0.30591 0.0
C1023 C 0.27899 0.30653 0.28572 0.0
C1024 C 0.2909 0.31388 0.29924 0.0
C1025 C 0.26221 0.30155 0.28895 0.0
H1026 H 0.26704 0.3138 0.33216 0.0
H1027 H 0.30377 0.3175 0.2968 0.0
O1028 O 0.33522 0.34457 0.36482 0.0
O1029 O 0.29733 0.31803 0.35744 0.0
O1030 O 0.31354 0.35103 0.33831 0.0
O1031 O 0.32381 0.32525 0.32836 0.0
H1032 H 0.35735 0.34993 0.38981 0.0
H1033 H 0.33709 0.37361 0.35775 0.0
H1034 H 0.37655 0.37761 0.40405 0.0
H1035 H 0.35658 0.40077 0.37251 0.0
H1036 H 0.25741 0.26384 0.36652 0.0
H1037 H 0.30434 0.31675 0.39099 0.0
H1038 H 0.27202 0.28848 0.34725 0.0
H1039 H 0.28916 0.29164 0.4095 0.0
H1040 H 0.31395 0.35997 0.42432 0.0
H1041 H 0.28427 0.37086 0.3887 0.0
H1042 H 0.36365 0.31041 0.37365 0.0
H1043 H 0.3142 0.26621 0.37057 0.0
H1044 H 0.31727 0.34711 0.30433 0.0
H1045 H 0.31171 0.37844 0.34291 0.0
H1046 H 0.3179 0.36586 0.28096 0.0
H1047 H 0.31276 0.39684 0.31893 0.0
H1048 H 0.35115 0.32407 0.32098 0.0
H1049 H 0.29759 0.2945 0.32565 0.0
H1050 H 0.35157 0.29806 0.31365 0.0
H1051 H 0.29892 0.26906 0.31793 0.0
H1052 H 0.39173 0.36621 0.32775 0.0
H1053 H 0.37575 0.39912 0.30664 0.0
H1054 H 0.24507 0.30053 0.30892 0.0
H1055 H 0.28284 0.30445 0.27295 0.0
Li1056 Li 0.32214 0.00142 0.66355 0.0
Li1057 Li 0.34689 0.01661 0.683 0.0
Li1058 Li 0.32321 0.02234 0.68432 0.0
Li1059 Li 0.34227 0.03244 0.6599 0.0
C1060 C 0.31317 0.98565 0.69572 0.0
N1061 N 0.29279 0.95343 0.70747 0.0
C1062 C 0.3202 0.97675 0.70293 0.0
C1063 C 0.29577 0.97824 0.69475 0.0
C1064 C 0.30969 0.96046 0.70874 0.0
C1065 C 0.28568 0.96192 0.70068 0.0
C1066 C 0.35863 0.01122 0.6501 0.0
C1067 C 0.38725 0.02266 0.64105 0.0
N1068 N 0.38379 0.00702 0.63609 0.0
C1069 C 0.35531 0.99529 0.64466 0.0
C1070 C 0.37469 0.02505 0.64807 0.0
C1071 C 0.36821 0.99341 0.63771 0.0
C1072 C 0.29976 0.97974 0.6369 0.0
N1073 N 0.30893 0.98055 0.6513 0.0
C1074 C 0.3013 0.95189 0.64696 0.0
C1075 C 0.30985 0.96703 0.65642 0.0
C1076 C 0.29191 0.95071 0.63191 0.0
C1077 C 0.29104 0.96483 0.62698 0.0
H1078 H 0.29956 0.9908 0.63286 0.0
H1079 H 0.31766 0.96811 0.66754 0.0
C1080 C 0.36729 0.02192 0.71279 0.0
N1081 N 0.36224 0.01365 0.69698 0.0
C1082 C 0.37697 0.01863 0.7244 0.0
C1083 C 0.37626 0.99857 0.70312 0.0
C1084 C 0.36659 0.00222 0.69196 0.0
C1085 C 0.38131 0.0066 0.71969 0.0
H1086 H 0.36333 0.03069 0.71661 0.0
H1087 H 0.36199 0.9954 0.67964 0.0
C1088 C 0.30295 0.02046 0.65822 0.0
N1089 N 0.27404 0.02219 0.6577 0.0
C1090 C 0.30374 0.03569 0.65509 0.0
C1091 C 0.28743 0.00605 0.66077 0.0
C1092 C 0.289 0.03633 0.65498 0.0
C1093 C 0.27296 0.00719 0.66054 0.0
C1094 C 0.36246 0.05365 0.68691 0.0
C1095 C 0.36223 0.06824 0.69153 0.0
C1096 C 0.37779 0.05453 0.68427 0.0
C1097 C 0.37732 0.08349 0.69301 0.0
C1098 C 0.39261 0.07001 0.6859 0.0
N1099 N 0.39207 0.08406 0.69017 0.0
C1100 C 0.30204 0.01901 0.7131 0.0
C1101 C 0.31415 0.04466 0.69791 0.0
C1102 C 0.29536 0.02519 0.72558 0.0
N1103 N 0.31137 0.02887 0.69974 0.0
C1104 C 0.30794 0.05141 0.71019 0.0
C1105 C 0.29868 0.04173 0.7244 0.0
H1106 H 0.30032 0.00664 0.71449 0.0
H1107 H 0.32167 0.05222 0.6872 0.0
C1108 C 0.35859 0.04816 0.6282 0.0
N1109 N 0.35207 0.05003 0.64348 0.0
C1110 C 0.36465 0.06079 0.61572 0.0
C1111 C 0.35679 0.07678 0.63476 0.0
C1112 C 0.35116 0.064 0.64697 0.0
C1113 C 0.36356 0.07519 0.61888 0.0
H1114 H 0.35868 0.03671 0.62547 0.0
H1115 H 0.3456 0.06501 0.65906 0.0
O1116 O 0.3233 0.00158 0.68985 0.0
O1117 O 0.3461 0.01325 0.65692 0.0
O1118 O 0.31728 0.01962 0.65862 0.0
O1119 O 0.34777 0.03859 0.68531 0.0
H1120 H 0.33362 0.98231 0.70398 0.0
H1121 H 0.29011 0.98503 0.68955 0.0
H1122 H 0.31497 0.95341 0.71424 0.0
H1123 H 0.27219 0.95602 0.69992 0.0
H1124 H 0.39973 0.03327 0.63945 0.0
H1125 H 0.34295 0.98446 0.64591 0.0
H1126 H 0.3774 0.03755 0.6516 0.0
H1127 H 0.36582 0.98112 0.6336 0.0
H1128 H 0.30216 0.94129 0.65142 0.0
H1129 H 0.28423 0.96462 0.61528 0.0
H1130 H 0.38036 0.02492 0.73715 0.0
H1131 H 0.37952 0.98939 0.69884 0.0
H1132 H 0.31561 0.04694 0.6529 0.0
H1133 H 0.28653 0.99408 0.66279 0.0
H1134 H 0.28945 0.04807 0.65272 0.0
H1135 H 0.26087 0.99613 0.66257 0.0
H1136 H 0.35056 0.06784 0.69389 0.0
H1137 H 0.37829 0.04337 0.68115 0.0
H1138 H 0.3773 0.09488 0.69645 0.0
H1139 H 0.40454 0.07083 0.68382 0.0
H1140 H 0.28841 0.01743 0.73649 0.0
H1141 H 0.31065 0.06419 0.70881 0.0
H1142 H 0.36956 0.05904 0.60348 0.0
H1143 H 0.35574 0.08772 0.63763 0.0
Li1144 Li 0.00413 0.32176 0.67074 0.0
Li1145 Li 0.98626 0.33058 0.68565 0.0
Li1146 Li 0.98207 0.3016 0.68907 0.0
Li1147 Li 0.97361 0.30885 0.66182 0.0
C1148 C 0.01718 0.33179 0.70383 0.0
N1149 N 0.04927 0.34829 0.71798 0.0
C1150 C 0.02451 0.34851 0.70957 0.0
C1151 C 0.02608 0.32338 0.70556 0.0
C1152 C 0.04076 0.35665 0.71662 0.0
C1153 C 0.04232 0.33196 0.71266 0.0
C1154 C 0.99359 0.34602 0.65167 0.0
C1155 C 0.98098 0.36075 0.63874 0.0
N1156 N 0.99642 0.37345 0.63443 0.0
C1157 C 0.00931 0.35912 0.64684 0.0
C1158 C 0.97929 0.34676 0.64737 0.0
C1159 C 0.01049 0.37291 0.63824 0.0
C1160 C 0.02969 0.32057 0.65131 0.0
N1161 N 0.02622 0.33021 0.66217 0.0
C1162 C 0.05412 0.35332 0.65966 0.0
C1163 C 0.03806 0.34628 0.66645 0.0
C1164 C 0.05805 0.34378 0.64822 0.0
C1165 C 0.04564 0.32712 0.64419 0.0
H1166 H 0.01997 0.30791 0.64787 0.0
H1167 H 0.03491 0.35381 0.67481 0.0
C1168 C 0.97492 0.34653 0.70959 0.0
N1169 N 0.98604 0.34917 0.69667 0.0
C1170 C 0.97373 0.35993 0.71666 0.0
C1171 C 0.99597 0.37858 0.69756 0.0
C1172 C 0.99679 0.36486 0.69099 0.0
C1173 C 0.98415 0.37622 0.7104 0.0
H1174 H 0.96671 0.33394 0.71412 0.0
H1175 H 0.00594 0.36675 0.68121 0.0
C1176 C 0.98601 0.28262 0.66517 0.0
N1177 N 0.98294 0.25136 0.66715 0.0
C1178 C 0.97176 0.26844 0.65827 0.0
C1179 C 0.99881 0.28093 0.67281 0.0
C1180 C 0.97042 0.25274 0.65946 0.0
C1181 C 0.997 0.26502 0.67376 0.0
C1182 C 0.94908 0.30596 0.68528 0.0
C1183 C 0.93538 0.29051 0.68984 0.0
C1184 C 0.94645 0.31898 0.68045 0.0
C1185 C 0.91928 0.28821 0.68901 0.0
C1186 C 0.93018 0.31621 0.6798 0.0
N1187 N 0.91703 0.301 0.68402 0.0
C1188 C 0.98427 0.28459 0.71927 0.0
C1189 C 0.96046 0.26918 0.70064 0.0
C1190 C 0.97834 0.2712 0.73084 0.0
N1191 N 0.97521 0.28337 0.7046 0.0
C1192 C 0.95396 0.25563 0.71192 0.0
C1193 C 0.96285 0.25662 0.72733 0.0
H1194 H 0.99592 0.29606 0.72218 0.0
H1195 H 0.95364 0.26847 0.68878 0.0
C1196 C 0.96094 0.30816 0.62742 0.0
N1197 N 0.95764 0.30006 0.64297 0.0
C1198 C 0.94904 0.30185 0.61376 0.0
C1199 C 0.93098 0.27847 0.63199 0.0
C1200 C 0.94309 0.28541 0.6454 0.0
C1201 C 0.93386 0.28682 0.616 0.0
H1202 H 0.97282 0.31948 0.62557 0.0
H1203 H 0.94096 0.279 0.65772 0.0
O1204 O 0.00132 0.32366 0.69677 0.0
O1205 O 0.99226 0.33248 0.66028 0.0
O1206 O 0.98743 0.29807 0.6644 0.0
O1207 O 0.96496 0.3084 0.68592 0.0
H1208 H 0.01776 0.35517 0.70853 0.0
H1209 H 0.02054 0.31039 0.70147 0.0
H1210 H 0.04662 0.36963 0.721 0.0
H1211 H 0.04938 0.32563 0.71397 0.0
H1212 H 0.97 0.36146 0.63538 0.0
H1213 H 0.02051 0.35872 0.64976 0.0
H1214 H 0.96698 0.33652 0.6503 0.0
H1215 H 0.0226 0.38318 0.63457 0.0
H1216 H 0.06334 0.36615 0.66328 0.0
H1217 H 0.04807 0.31938 0.63527 0.0
H1218 H 0.96467 0.35753 0.72681 0.0
H1219 H 0.0042 0.39081 0.69219 0.0
H1220 H 0.96181 0.26952 0.65215 0.0
H1221 H 0.01004 0.29179 0.67793 0.0
H1222 H 0.9594 0.24165 0.65429 0.0
H1223 H 0.00678 0.26353 0.67973 0.0
H1224 H 0.93709 0.28036 0.69395 0.0
H1225 H 0.95686 0.33118 0.67748 0.0
H1226 H 0.90858 0.27627 0.69237 0.0
H1227 H 0.92801 0.3262 0.67603 0.0
H1228 H 0.98548 0.27244 0.74267 0.0
H1229 H 0.94206 0.24451 0.70869 0.0
H1230 H 0.95177 0.30846 0.60147 0.0
H1231 H 0.91942 0.26682 0.63414 0.0
Li1232 Li 0.67233 0.67524 0.665 0.0
Li1233 Li 0.66038 0.65111 0.68415 0.0
Li1234 Li 0.68992 0.67299 0.68683 0.0
Li1235 Li 0.6797 0.65344 0.66178 0.0
C1236 C 0.67399 0.68394 0.70618 0.0
N1237 N 0.68329 0.70157 0.7379 0.0
C1238 C 0.66644 0.6759 0.72177 0.0
C1239 C 0.68622 0.70097 0.70673 0.0
C1240 C 0.67132 0.68504 0.73767 0.0
C1241 C 0.69078 0.70966 0.7229 0.0
C1242 C 0.64104 0.63999 0.65577 0.0
C1243 C 0.61777 0.61158 0.65634 0.0
N1244 N 0.60716 0.6172 0.65231 0.0
C1245 C 0.62992 0.64549 0.6516 0.0
C1246 C 0.63494 0.6229 0.6581 0.0
C1247 C 0.61283 0.63377 0.64992 0.0
C1248 C 0.6628 0.687 0.63551 0.0
N1249 N 0.66717 0.68992 0.65287 0.0
C1250 C 0.66156 0.71242 0.65397 0.0
C1251 C 0.66678 0.7024 0.66212 0.0
C1252 C 0.65651 0.70942 0.63619 0.0
C1253 C 0.65737 0.69664 0.62686 0.0
H1254 H 0.66307 0.67685 0.62854 0.0
H1255 H 0.67001 0.70426 0.67596 0.0
C1256 C 0.6404 0.62557 0.70848 0.0
N1257 N 0.64106 0.63732 0.69747 0.0
C1258 C 0.62698 0.61735 0.71994 0.0
C1259 C 0.61501 0.6331 0.70802 0.0
C1260 C 0.62871 0.64115 0.69701 0.0
C1261 C 0.6142 0.62132 0.71999 0.0
H1262 H 0.65061 0.6231 0.70888 0.0
H1263 H 0.6298 0.65088 0.68846 0.0
C1264 C 0.70065 0.69 0.64924 0.0
N1265 N 0.71072 0.71376 0.62341 0.0
C1266 C 0.69908 0.68515 0.63149 0.0
C1267 C 0.70735 0.70692 0.65386 0.0
C1268 C 0.70427 0.69736 0.61863 0.0
C1269 C 0.71235 0.71874 0.6406 0.0
C1270 C 0.68629 0.63796 0.6861 0.0
C1271 C 0.70356 0.64463 0.68773 0.0
C1272 C 0.67578 0.6208 0.68268 0.0
C1273 C 0.71007 0.63398 0.68576 0.0
C1274 C 0.68278 0.61058 0.68078 0.0
N1275 N 0.69963 0.61733 0.68233 0.0
C1276 C 0.70543 0.67844 0.71984 0.0
C1277 C 0.72298 0.69726 0.69824 0.0
C1278 C 0.71828 0.68586 0.73243 0.0
N1279 N 0.70796 0.68428 0.70319 0.0
C1280 C 0.73625 0.705 0.71039 0.0
C1281 C 0.73402 0.69926 0.72775 0.0
H1282 H 0.69341 0.66793 0.72331 0.0
H1283 H 0.72472 0.70142 0.68481 0.0
C1284 C 0.67569 0.62837 0.63608 0.0
N1285 N 0.68663 0.64231 0.64558 0.0
C1286 C 0.68164 0.62129 0.62377 0.0
C1287 C 0.7099 0.64302 0.63137 0.0
C1288 C 0.70344 0.64958 0.64357 0.0
C1289 C 0.69895 0.62879 0.62114 0.0
H1290 H 0.66239 0.62292 0.63781 0.0
H1291 H 0.71183 0.66067 0.65131 0.0
O1292 O 0.66959 0.67515 0.69049 0.0
O1293 O 0.6578 0.65128 0.65766 0.0
O1294 O 0.69528 0.67819 0.66202 0.0
O1295 O 0.67973 0.64825 0.68749 0.0
H1296 H 0.65702 0.66273 0.72166 0.0
H1297 H 0.69236 0.70736 0.69485 0.0
H1298 H 0.66562 0.67896 0.74983 0.0
H1299 H 0.70032 0.7228 0.72353 0.0
H1300 H 0.61287 0.59833 0.65821 0.0
H1301 H 0.63438 0.65867 0.64988 0.0
H1302 H 0.64335 0.61844 0.66149 0.0
H1303 H 0.60408 0.63786 0.64677 0.0
H1304 H 0.66083 0.72196 0.66172 0.0
H1305 H 0.65365 0.69398 0.61311 0.0
H1306 H 0.62707 0.60858 0.72911 0.0
H1307 H 0.60533 0.63633 0.70724 0.0
H1308 H 0.69373 0.67209 0.62767 0.0
H1309 H 0.70848 0.71087 0.66752 0.0
H1310 H 0.70307 0.69379 0.60484 0.0
H1311 H 0.71748 0.73188 0.64398 0.0
H1312 H 0.71188 0.6579 0.69026 0.0
H1313 H 0.66239 0.61546 0.68138 0.0
H1314 H 0.72342 0.63898 0.68688 0.0
H1315 H 0.67481 0.59729 0.67803 0.0
H1316 H 0.71589 0.68115 0.74568 0.0
H1317 H 0.74823 0.71507 0.7061 0.0
H1318 H 0.67278 0.61039 0.61603 0.0
H1319 H 0.72334 0.64906 0.62991 0.0
Li1320 Li 0.34932 0.33297 0.68194 0.0
Li1321 Li 0.3273 0.30471 0.68884 0.0
Li1322 Li 0.34114 0.31147 0.65917 0.0
Li1323 Li 0.32144 0.32089 0.66727 0.0
C1324 C 0.36673 0.31983 0.69068 0.0
N1325 N 0.39812 0.33585 0.70648 0.0
C1326 C 0.36841 0.31905 0.70887 0.0
C1327 C 0.38101 0.32861 0.6805 0.0
C1328 C 0.38439 0.32727 0.71662 0.0
C1329 C 0.39677 0.33667 0.68874 0.0
C1330 C 0.31577 0.32386 0.70507 0.0
C1331 C 0.28705 0.31294 0.71348 0.0
N1332 N 0.29231 0.31947 0.73 0.0
C1333 C 0.32088 0.33062 0.72209 0.0
C1334 C 0.29871 0.31508 0.7007 0.0
C1335 C 0.30884 0.3282 0.73452 0.0
C1336 C 0.37516 0.36645 0.6799 0.0
N1337 N 0.36664 0.35394 0.69144 0.0
C1338 C 0.37823 0.3734 0.71577 0.0
C1339 C 0.36838 0.35699 0.70912 0.0
C1340 C 0.38649 0.38666 0.70405 0.0
C1341 C 0.38531 0.38293 0.68594 0.0
H1342 H 0.37331 0.36383 0.66595 0.0
H1343 H 0.36148 0.34681 0.71802 0.0
C1344 C 0.30707 0.27211 0.70241 0.0
N1345 N 0.31785 0.28844 0.70688 0.0
C1346 C 0.29908 0.26025 0.71545 0.0
C1347 C 0.31445 0.28198 0.73746 0.0
C1348 C 0.32182 0.29348 0.724 0.0
C1349 C 0.30259 0.2651 0.73334 0.0
H1350 H 0.30442 0.26831 0.6887 0.0
H1351 H 0.33066 0.30648 0.72722 0.0
C1352 C 0.34932 0.33928 0.64032 0.0
N1353 N 0.36016 0.34951 0.6065 0.0
C1354 C 0.33846 0.3397 0.62776 0.0
C1355 C 0.36574 0.34419 0.63568 0.0
C1356 C 0.34417 0.34489 0.61074 0.0
C1357 C 0.37096 0.34927 0.61852 0.0
C1358 C 0.30116 0.28705 0.65763 0.0
C1359 C 0.29918 0.28306 0.63962 0.0
C1360 C 0.28707 0.2802 0.66832 0.0
C1361 C 0.28314 0.27252 0.63257 0.0
C1362 C 0.27124 0.26973 0.66078 0.0
N1363 N 0.26962 0.26615 0.6432 0.0
C1364 C 0.35971 0.29795 0.64349 0.0
C1365 C 0.34423 0.30429 0.62333 0.0
C1366 C 0.36655 0.29332 0.62965 0.0
N1367 N 0.34898 0.30356 0.6401 0.0
C1368 C 0.35085 0.29996 0.60913 0.0
C1369 C 0.36232 0.29452 0.61214 0.0
H1370 H 0.36315 0.29729 0.65695 0.0
H1371 H 0.33564 0.30869 0.62089 0.0
C1372 C 0.31193 0.34411 0.66462 0.0
N1373 N 0.30657 0.32806 0.65931 0.0
C1374 C 0.30303 0.35191 0.65987 0.0
C1375 C 0.28309 0.32649 0.64421 0.0
C1376 C 0.29246 0.31917 0.64923 0.0
C1377 C 0.28841 0.34311 0.64951 0.0
H1378 H 0.32323 0.35087 0.67259 0.0
H1379 H 0.2885 0.30652 0.64494 0.0
O1380 O 0.35117 0.31224 0.6829 0.0
O1381 O 0.32742 0.32601 0.69276 0.0
O1382 O 0.34393 0.33418 0.65706 0.0
O1383 O 0.31682 0.29727 0.66476 0.0
H1384 H 0.35751 0.31225 0.71694 0.0
H1385 H 0.37995 0.32925 0.66641 0.0
H1386 H 0.38586 0.32684 0.7307 0.0
H1387 H 0.40793 0.34359 0.68102 0.0
H1388 H 0.27382 0.30612 0.71025 0.0
H1389 H 0.33399 0.33756 0.72575 0.0
H1390 H 0.29448 0.31004 0.68758 0.0
H1391 H 0.31265 0.33327 0.74776 0.0
H1392 H 0.37891 0.37578 0.72984 0.0
H1393 H 0.39124 0.3928 0.67643 0.0
H1394 H 0.28995 0.24752 0.71144 0.0
H1395 H 0.31804 0.28637 0.75094 0.0
H1396 H 0.32572 0.33595 0.63101 0.0
H1397 H 0.37433 0.34395 0.64517 0.0
H1398 H 0.33587 0.34521 0.60088 0.0
H1399 H 0.3836 0.353 0.61474 0.0
H1400 H 0.30987 0.28802 0.63115 0.0
H1401 H 0.28829 0.28283 0.68232 0.0
H1402 H 0.28146 0.26941 0.61864 0.0
H1403 H 0.26025 0.26442 0.66891 0.0
H1404 H 0.37511 0.28894 0.63266 0.0
H1405 H 0.34739 0.3014 0.59593 0.0
H1406 H 0.30744 0.36464 0.66449 0.0
H1407 H 0.27194 0.31932 0.6361 0.0
Li1408 Li 0.67923 0.0297 0.6771 0.0
Li1409 Li 0.70677 0.03267 0.68308 0.0
Li1410 Li 0.70035 0.0417 0.65478 0.0
Li1411 Li 0.68816 0.01187 0.66038 0.0
C1412 C 0.69859 0.06142 0.68899 0.0
N1413 N 0.69236 0.08262 0.7094 0.0
C1414 C 0.70631 0.06705 0.70553 0.0
C1415 C 0.6878 0.06669 0.68278 0.0
C1416 C 0.70298 0.07774 0.71566 0.0
C1417 C 0.68478 0.07737 0.69331 0.0
C1418 C 0.68076 0.0014 0.69873 0.0
C1419 C 0.68062 0.97701 0.7098 0.0
N1420 N 0.67331 0.9782 0.72479 0.0
C1421 C 0.67301 0.00221 0.71415 0.0
C1422 C 0.68441 0.98856 0.69645 0.0
C1423 C 0.66944 0.99044 0.72721 0.0
C1424 C 0.64563 0.0209 0.67763 0.0
N1425 N 0.66002 0.02854 0.68741 0.0
C1426 C 0.64601 0.0331 0.71128 0.0
C1427 C 0.66042 0.03441 0.70404 0.0
C1428 C 0.631 0.02533 0.70143 0.0
C1429 C 0.63088 0.01911 0.68444 0.0
H1430 H 0.6456 0.0161 0.66455 0.0
H1431 H 0.67191 0.04002 0.71174 0.0
C1432 C 0.73893 0.04271 0.69848 0.0
N1433 N 0.7225 0.03704 0.70164 0.0
C1434 C 0.74986 0.04476 0.71234 0.0
C1435 C 0.72686 0.03568 0.73243 0.0
C1436 C 0.71647 0.03392 0.71824 0.0
C1437 C 0.74379 0.04101 0.7296 0.0
H1438 H 0.74351 0.04542 0.68518 0.0
H1439 H 0.70352 0.02998 0.72047 0.0
C1440 C 0.67273 0.02664 0.63549 0.0
N1441 N 0.66608 0.03385 0.60232 0.0
C1442 C 0.67471 0.01874 0.62062 0.0
C1443 C 0.66721 0.03806 0.63352 0.0
C1444 C 0.6713 0.02258 0.60396 0.0
C1445 C 0.66397 0.04159 0.61663 0.0
C1446 C 0.72184 0.02163 0.6557 0.0
C1447 C 0.73052 0.02403 0.64002 0.0
C1448 C 0.72278 0.01156 0.66863 0.0
C1449 C 0.73983 0.01613 0.63746 0.0
C1450 C 0.73223 0.00388 0.66559 0.0
N1451 N 0.74048 0.00629 0.65019 0.0
C1452 C 0.70812 0.0721 0.63844 0.0
C1453 C 0.71265 0.05352 0.62073 0.0
C1454 C 0.71138 0.08271 0.62429 0.0
N1455 N 0.70841 0.05764 0.63633 0.0
C1456 C 0.71624 0.06389 0.60626 0.0
C1457 C 0.71523 0.07854 0.60777 0.0
H1458 H 0.70472 0.07511 0.65093 0.0
H1459 H 0.71256 0.04183 0.61931 0.0
C1460 C 0.66338 0.97886 0.65671 0.0
N1461 N 0.67894 0.98982 0.65085 0.0
C1462 C 0.65468 0.96241 0.65015 0.0
C1463 C 0.67814 0.96881 0.63149 0.0
C1464 C 0.68644 0.98518 0.63848 0.0
C1465 C 0.66199 0.95721 0.63727 0.0
H1466 H 0.65763 0.98302 0.66634 0.0
H1467 H 0.69867 0.99421 0.63376 0.0
O1468 O 0.70172 0.05094 0.67892 0.0
O1469 O 0.68422 0.01279 0.68575 0.0
O1470 O 0.67649 0.02342 0.65186 0.0
O1471 O 0.71248 0.02911 0.65829 0.0
H1472 H 0.71484 0.06327 0.71047 0.0
H1473 H 0.68157 0.06232 0.67011 0.0
H1474 H 0.70885 0.08216 0.72849 0.0
H1475 H 0.67635 0.08142 0.68872 0.0
H1476 H 0.68343 0.96705 0.7082 0.0
H1477 H 0.66994 0.01193 0.71612 0.0
H1478 H 0.68992 0.98734 0.68444 0.0
H1479 H 0.66359 0.99104 0.73926 0.0
H1480 H 0.64652 0.03786 0.72453 0.0
H1481 H 0.61954 0.01309 0.67643 0.0
H1482 H 0.76287 0.0492 0.70956 0.0
H1483 H 0.72151 0.03249 0.74541 0.0
H1484 H 0.67904 0.00993 0.62192 0.0
H1485 H 0.6656 0.04425 0.6449 0.0
H1486 H 0.67289 0.01667 0.59232 0.0
H1487 H 0.65981 0.0505 0.61489 0.0
H1488 H 0.73004 0.03186 0.62989 0.0
H1489 H 0.71644 0.00982 0.68095 0.0
H1490 H 0.74654 0.01782 0.62535 0.0
H1491 H 0.73305 0.99605 0.67551 0.0
H1492 H 0.71016 0.09366 0.62615 0.0
H1493 H 0.71941 0.06023 0.59393 0.0
H1494 H 0.64215 0.95401 0.65475 0.0
H1495 H 0.68426 0.9653 0.62162 0.0
Li1496 Li 0.97347 0.67946 0.68564 0.0
Li1497 Li 0.97775 0.65521 0.67918 0.0
Li1498 Li 0.9936 0.68107 0.66378 0.0
Li1499 Li 0.96454 0.66276 0.65686 0.0
C1500 C 0.00951 0.688 0.69455 0.0
N1501 N 0.04283 0.70961 0.70299 0.0
C1502 C 0.02064 0.68202 0.69522 0.0
C1503 C 0.01526 0.70493 0.69828 0.0
C1504 C 0.03746 0.69316 0.69948 0.0
C1505 C 0.03217 0.71566 0.7025 0.0
C1506 C 0.94812 0.64171 0.69179 0.0
C1507 C 0.93365 0.61184 0.69615 0.0
N1508 N 0.93311 0.61456 0.71371 0.0
C1509 C 0.94738 0.64421 0.70987 0.0
C1510 C 0.94115 0.6254 0.68484 0.0
C1511 C 0.93974 0.63032 0.72074 0.0
C1512 C 0.9573 0.69596 0.70023 0.0
N1513 N 0.96825 0.69061 0.70349 0.0
C1514 C 0.97203 0.70066 0.73327 0.0
C1515 C 0.97556 0.69273 0.71961 0.0
C1516 C 0.96085 0.70647 0.73033 0.0
C1517 C 0.95346 0.70406 0.71353 0.0
H1518 H 0.95158 0.69397 0.6873 0.0
H1519 H 0.98411 0.6882 0.72185 0.0
C1520 C 0.97894 0.62533 0.67991 0.0
N1521 N 0.97965 0.63787 0.6901 0.0
C1522 C 0.98151 0.61312 0.68738 0.0
C1523 C 0.98559 0.62701 0.71573 0.0
C1524 C 0.9828 0.6389 0.70772 0.0
C1525 C 0.98507 0.61397 0.70547 0.0
H1526 H 0.97682 0.62502 0.66592 0.0
H1527 H 0.98347 0.64915 0.71546 0.0
C1528 C 0.98421 0.70307 0.65363 0.0
N1529 N 0.00022 0.73433 0.63862 0.0
C1530 C 0.98892 0.70472 0.636 0.0
C1531 C 0.98764 0.71731 0.66363 0.0
C1532 C 0.99702 0.72063 0.62866 0.0
C1533 C 0.99573 0.73301 0.65579 0.0
C1534 C 0.97983 0.65109 0.63746 0.0
C1535 C 0.9892 0.66058 0.62326 0.0
C1536 C 0.9669 0.63455 0.63449 0.0
C1537 C 0.98552 0.65333 0.60635 0.0
C1538 C 0.96357 0.62777 0.61738 0.0
N1539 N 0.97288 0.63722 0.60378 0.0
C1540 C 0.02395 0.68647 0.65114 0.0
C1541 C 0.0245 0.71212 0.65567 0.0
C1542 C 0.0408 0.69498 0.64662 0.0
N1543 N 0.0161 0.69505 0.65549 0.0
C1544 C 0.04135 0.72117 0.65104 0.0
C1545 C 0.04981 0.7126 0.64658 0.0
H1546 H 0.01723 0.67293 0.65175 0.0
H1547 H 0.01839 0.71881 0.66 0.0
C1548 C 0.93166 0.6418 0.64305 0.0
N1549 N 0.94742 0.65395 0.63889 0.0
C1550 C 0.91941 0.63376 0.62988 0.0
C1551 C 0.93966 0.65126 0.60845 0.0
C1552 C 0.95142 0.6591 0.62206 0.0
C1553 C 0.92343 0.63818 0.6122 0.0
H1554 H 0.92868 0.6381 0.65657 0.0
H1555 H 0.96396 0.66882 0.61903 0.0
O1556 O 0.99312 0.67741 0.68988 0.0
O1557 O 0.95598 0.65517 0.68101 0.0
O1558 O 0.97606 0.68759 0.66102 0.0
O1559 O 0.98319 0.658 0.65412 0.0
H1560 H 0.01636 0.66895 0.69227 0.0
H1561 H 0.00681 0.70977 0.69764 0.0
H1562 H 0.04626 0.68875 0.69993 0.0
H1563 H 0.03683 0.72882 0.7053 0.0
H1564 H 0.92831 0.59916 0.69097 0.0
H1565 H 0.95274 0.65674 0.71548 0.0
H1566 H 0.94173 0.62324 0.6709 0.0
H1567 H 0.93913 0.63207 0.73477 0.0
H1568 H 0.97818 0.70244 0.74594 0.0
H1569 H 0.94467 0.7082 0.71074 0.0
H1570 H 0.98131 0.60347 0.67894 0.0
H1571 H 0.98826 0.62807 0.72974 0.0
H1572 H 0.98662 0.6939 0.62816 0.0
H1573 H 0.98419 0.7163 0.67731 0.0
H1574 H 0.00081 0.7221 0.61506 0.0
H1575 H 0.99849 0.74414 0.66338 0.0
H1576 H 0.99905 0.67349 0.62517 0.0
H1577 H 0.95926 0.6271 0.6452 0.0
H1578 H 0.99264 0.66055 0.59525 0.0
H1579 H 0.95353 0.61503 0.61489 0.0
H1580 H 0.04681 0.68778 0.64382 0.0
H1581 H 0.04773 0.73474 0.65123 0.0
H1582 H 0.90698 0.62405 0.63352 0.0
H1583 H 0.94353 0.65501 0.59507 0.0
C1584 C 0.22912 0.2806 0.08831 0.0
C1585 C 0.22732 0.29458 0.07989 0.0
C1586 C 0.21149 0.30121 0.10126 0.0
C1587 C 0.21246 0.31355 0.11286 0.0
C1588 C 0.19836 0.31129 0.12195 0.0
C1589 C 0.18292 0.29613 0.11956 0.0
C1590 C 0.18184 0.28347 0.108 0.0
C1591 C 0.1961 0.28616 0.09888 0.0
C1592 C 0.19993 0.32515 0.13402 0.0
C1593 C 0.16559 0.26712 0.10522 0.0
C1594 C 0.07087 0.28416 0.08396 0.0
C1595 C 0.08649 0.29737 0.07441 0.0
C1596 C 0.10927 0.30446 0.09587 0.0
C1597 C 0.10862 0.28893 0.09477 0.0
C1598 C 0.11925 0.28582 0.10521 0.0
C1599 C 0.13107 0.29861 0.11667 0.0
C1600 C 0.13207 0.31439 0.11748 0.0
C1601 C 0.12102 0.31702 0.10719 0.0
C1602 C 0.11783 0.26884 0.10399 0.0
C1603 C 0.14481 0.32845 0.12923 0.0
C1604 C 0.09046 0.27918 0.22588 0.0
C1605 C 0.08868 0.26384 0.22003 0.0
C1606 C 0.1019 0.26336 0.21161 0.0
C1607 C 0.11723 0.27846 0.20921 0.0
C1608 C 0.11921 0.29382 0.21559 0.0
C1609 C 0.10575 0.29396 0.22373 0.0
C1610 C 0.09941 0.24677 0.20497 0.0
C1611 C 0.13547 0.31014 0.21352 0.0
C1612 C 0.21903 0.25118 0.22678 0.0
C1613 C 0.21555 0.26526 0.23141 0.0
C1614 C 0.18826 0.26274 0.22796 0.0
C1615 C 0.17214 0.25016 0.22301 0.0
C1616 C 0.16124 0.25402 0.21412 0.0
C1617 C 0.16648 0.27098 0.21071 0.0
C1618 C 0.18244 0.28387 0.21676 0.0
C1619 C 0.19327 0.27958 0.22512 0.0
C1620 C 0.14428 0.23993 0.20805 0.0
C1621 C 0.18819 0.30214 0.21414 0.0
C1622 C 0.16782 0.29372 0.1288 0.0
C1623 C 0.15679 0.29707 0.11959 0.0
C1624 C 0.14252 0.29549 0.12755 0.0
C1625 C 0.13929 0.2908 0.14536 0.0
C1626 C 0.12521 0.28937 0.15389 0.0
C1627 C 0.12242 0.28523 0.17156 0.0
C1628 C 0.13349 0.28214 0.18133 0.0
C1629 C 0.13099 0.27834 0.19941 0.0
C1630 C 0.14198 0.27489 0.20862 0.0
C1631 C 0.15551 0.27514 0.20026 0.0
C1632 C 0.15839 0.27924 0.18224 0.0
C1633 C 0.17191 0.2797 0.17338 0.0
C1634 C 0.17503 0.28441 0.15588 0.0
C1635 C 0.16456 0.28854 0.14646 0.0
C1636 C 0.15042 0.2874 0.15487 0.0
C1637 C 0.14742 0.2829 0.17282 0.0
C1638 C 0.05091 0.26227 0.22003 0.0
C1639 C 0.06172 0.26777 0.2369 0.0
O1640 O 0.22567 0.30439 0.09279 0.0
O1641 O 0.19875 0.25826 0.23533 0.0
O1642 O 0.07787 0.28047 0.23341 0.0
O1643 O 0.09883 0.30785 0.08645 0.0
H1644 H 0.21611 0.28886 0.07101 0.0
H1645 H 0.21784 0.27223 0.09595 0.0
H1646 H 0.24016 0.28597 0.09738 0.0
H1647 H 0.23063 0.27287 0.07794 0.0
H1648 H 0.22436 0.3251 0.11464 0.0
H1649 H 0.19504 0.2764 0.09002 0.0
H1650 H 0.19037 0.32849 0.1304 0.0
H1651 H 0.21252 0.3366 0.13353 0.0
H1652 H 0.19756 0.32074 0.14778 0.0
H1653 H 0.16722 0.25782 0.09736 0.0
H1654 H 0.15649 0.26951 0.09822 0.0
H1655 H 0.16014 0.2616 0.1181 0.0
H1656 H 0.09129 0.29092 0.06581 0.0
H1657 H 0.07374 0.27595 0.09189 0.0
H1658 H 0.06088 0.27608 0.07424 0.0
H1659 H 0.06604 0.29027 0.09296 0.0
H1660 H 0.09981 0.27908 0.08593 0.0
H1661 H 0.12153 0.32899 0.1079 0.0
H1662 H 0.12935 0.27017 0.09805 0.0
H1663 H 0.10689 0.25969 0.09585 0.0
H1664 H 0.11674 0.2637 0.11735 0.0
H1665 H 0.1449 0.34038 0.12727 0.0
H1666 H 0.15752 0.33057 0.12665 0.0
H1667 H 0.14198 0.32492 0.14322 0.0
H1668 H 0.06203 0.25683 0.24236 0.0
H1669 H 0.07701 0.25223 0.22175 0.0
H1670 H 0.10704 0.30572 0.22837 0.0
H1671 H 0.10195 0.24739 0.19065 0.0
H1672 H 0.08653 0.23621 0.20723 0.0
H1673 H 0.10844 0.24412 0.21173 0.0
H1674 H 0.13553 0.32074 0.22069 0.0
H1675 H 0.13755 0.3132 0.19935 0.0
H1676 H 0.1461 0.30892 0.21843 0.0
H1677 H 0.21862 0.27316 0.21952 0.0
H1678 H 0.23241 0.25648 0.22337 0.0
H1679 H 0.21121 0.24381 0.21522 0.0
H1680 H 0.21602 0.24259 0.238 0.0
H1681 H 0.16835 0.23722 0.22552 0.0
H1682 H 0.20562 0.28936 0.22947 0.0
H1683 H 0.1423 0.24112 0.19384 0.0
H1684 H 0.13439 0.24074 0.2154 0.0
H1685 H 0.14278 0.22739 0.21018 0.0
H1686 H 0.19943 0.31054 0.22235 0.0
H1687 H 0.17804 0.30474 0.21741 0.0
H1688 H 0.19138 0.30524 0.20013 0.0
H1689 H 0.15932 0.30092 0.106 0.0
H1690 H 0.11627 0.29161 0.14705 0.0
H1691 H 0.11146 0.28448 0.17746 0.0
H1692 H 0.13998 0.27201 0.2225 0.0
H1693 H 0.18038 0.27661 0.17992 0.0
H1694 H 0.18575 0.28477 0.14983 0.0
H1695 H 0.03788 0.2524 0.223 0.0
H1696 H 0.05587 0.25701 0.21016 0.0
H1697 H 0.05071 0.27307 0.2141 0.0
C1698 C 0.72058 0.91241 0.04311 0.0
C1699 C 0.7098 0.91177 0.05858 0.0
C1700 C 0.71845 0.90896 0.08798 0.0
C1701 C 0.70286 0.89808 0.09532 0.0
C1702 C 0.70154 0.8878 0.10933 0.0
C1703 C 0.71612 0.88836 0.11599 0.0
C1704 C 0.73196 0.89996 0.10915 0.0
C1705 C 0.73293 0.91035 0.0954 0.0
C1706 C 0.68451 0.87589 0.11658 0.0
C1707 C 0.74776 0.90079 0.11577 0.0
C1708 C 0.71708 0.7786 0.10549 0.0
C1709 C 0.70686 0.78158 0.09153 0.0
C1710 C 0.69934 0.80057 0.10662 0.0
C1711 C 0.71563 0.81465 0.10736 0.0
C1712 C 0.71878 0.82975 0.11541 0.0
C1713 C 0.70538 0.83093 0.12263 0.0
C1714 C 0.68892 0.81697 0.12151 0.0
C1715 C 0.68616 0.80192 0.11363 0.0
C1716 C 0.7365 0.84443 0.11634 0.0
C1717 C 0.6743 0.81793 0.12876 0.0
C1718 C 0.71543 0.81668 0.23521 0.0
C1719 C 0.73048 0.82711 0.22655 0.0
C1720 C 0.7327 0.84114 0.2174 0.0
C1721 C 0.7195 0.84464 0.21667 0.0
C1722 C 0.70463 0.83459 0.226 0.0
C1723 C 0.70289 0.82083 0.23532 0.0
C1724 C 0.74894 0.85193 0.20805 0.0
C1725 C 0.69036 0.83802 0.22559 0.0
C1726 C 0.76172 0.9794 0.23372 0.0
C1727 C 0.74677 0.96149 0.2337 0.0
C1728 C 0.74612 0.93517 0.22726 0.0
C1729 C 0.75689 0.92919 0.22336 0.0
C1730 C 0.75101 0.91363 0.21476 0.0
C1731 C 0.73375 0.90354 0.2105 0.0
C1732 C 0.72265 0.90928 0.21498 0.0
C1733 C 0.72899 0.92516 0.22311 0.0
C1734 C 0.76327 0.908 0.21026 0.0
C1735 C 0.70408 0.89858 0.21134 0.0
C1736 C 0.71453 0.87537 0.12835 0.0
C1737 C 0.71019 0.85969 0.12105 0.0
C1738 C 0.70872 0.84677 0.13152 0.0
C1739 C 0.71138 0.84937 0.1499 0.0
C1740 C 0.70981 0.83655 0.16083 0.0
C1741 C 0.71258 0.83924 0.17888 0.0
C1742 C 0.71738 0.85497 0.18668 0.0
C1743 C 0.72071 0.85792 0.20497 0.0
C1744 C 0.72558 0.8737 0.21232 0.0
C1745 C 0.72738 0.88682 0.20185 0.0
C1746 C 0.724 0.88408 0.18351 0.0
C1747 C 0.72565 0.89693 0.17252 0.0
C1748 C 0.72227 0.89405 0.15449 0.0
C1749 C 0.71754 0.87835 0.1467 0.0
C1750 C 0.71589 0.86525 0.15751 0.0
C1751 C 0.71901 0.86808 0.17593 0.0
C1752 C 0.71582 0.78529 0.22168 0.0
C1753 C 0.72002 0.79307 0.24034 0.0
O1754 O 0.71985 0.91805 0.07359 0.0
O1755 O 0.75269 0.95049 0.23527 0.0
O1756 O 0.71235 0.80243 0.24336 0.0
O1757 O 0.69579 0.78548 0.09947 0.0
H1758 H 0.70003 0.89834 0.06014 0.0
H1759 H 0.72635 0.90468 0.04594 0.0
H1760 H 0.73075 0.92551 0.04086 0.0
H1761 H 0.71279 0.90733 0.03092 0.0
H1762 H 0.69171 0.89748 0.08992 0.0
H1763 H 0.74492 0.91901 0.08976 0.0
H1764 H 0.68063 0.86287 0.11231 0.0
H1765 H 0.67486 0.87877 0.11196 0.0
H1766 H 0.68499 0.8764 0.1312 0.0
H1767 H 0.75904 0.91024 0.10877 0.0
H1768 H 0.74668 0.88833 0.11406 0.0
H1769 H 0.74953 0.90403 0.13004 0.0
H1770 H 0.71563 0.79212 0.08315 0.0
H1771 H 0.72498 0.79017 0.11347 0.0
H1772 H 0.72549 0.77489 0.09904 0.0
H1773 H 0.70872 0.76858 0.11457 0.0
H1774 H 0.72603 0.81402 0.10188 0.0
H1775 H 0.67363 0.79107 0.11294 0.0
H1776 H 0.73734 0.85493 0.10865 0.0
H1777 H 0.7457 0.84119 0.11107 0.0
H1778 H 0.74003 0.84896 0.13019 0.0
H1779 H 0.66213 0.80641 0.12566 0.0
H1780 H 0.67411 0.82891 0.1233 0.0
H1781 H 0.67571 0.81975 0.14327 0.0
H1782 H 0.73381 0.80125 0.24198 0.0
H1783 H 0.74048 0.8243 0.2267 0.0
H1784 H 0.69141 0.81283 0.24223 0.0
H1785 H 0.74676 0.84982 0.19361 0.0
H1786 H 0.75876 0.84903 0.21192 0.0
H1787 H 0.75361 0.86541 0.21091 0.0
H1788 H 0.67958 0.82897 0.2335 0.0
H1789 H 0.68603 0.83735 0.21178 0.0
H1790 H 0.69473 0.85091 0.23076 0.0
H1791 H 0.74012 0.95931 0.22079 0.0
H1792 H 0.75744 0.98855 0.23193 0.0
H1793 H 0.77013 0.98077 0.2227 0.0
H1794 H 0.76894 0.98238 0.2463 0.0
H1795 H 0.77006 0.93696 0.22679 0.0
H1796 H 0.72052 0.92957 0.22651 0.0
H1797 H 0.76149 0.90349 0.19634 0.0
H1798 H 0.76097 0.89738 0.21872 0.0
H1799 H 0.77648 0.9182 0.21229 0.0
H1800 H 0.69693 0.90397 0.21746 0.0
H1801 H 0.6993 0.88575 0.21637 0.0
H1802 H 0.70167 0.8974 0.19692 0.0
H1803 H 0.7082 0.85758 0.10692 0.0
H1804 H 0.70637 0.82425 0.15557 0.0
H1805 H 0.71104 0.82882 0.18659 0.0
H1806 H 0.72827 0.87589 0.22634 0.0
H1807 H 0.72952 0.90935 0.17774 0.0
H1808 H 0.7236 0.90435 0.14669 0.0
H1809 H 0.72165 0.77748 0.2194 0.0
H1810 H 0.72072 0.79522 0.21167 0.0
H1811 H 0.70205 0.77732 0.21974 0.0
C1812 C 0.23094 0.93007 0.06465 0.0
C1813 C 0.21523 0.92269 0.07489 0.0
C1814 C 0.1975 0.89836 0.09272 0.0
C1815 C 0.18682 0.90419 0.09818 0.0
C1816 C 0.17292 0.89431 0.10865 0.0
C1817 C 0.16972 0.87837 0.11394 0.0
C1818 C 0.18072 0.87269 0.10893 0.0
C1819 C 0.19447 0.88277 0.09835 0.0
C1820 C 0.16141 0.90074 0.11375 0.0
C1821 C 0.17775 0.85581 0.11447 0.0
C1822 C 0.07131 0.80565 0.03921 0.0
C1823 C 0.07931 0.80143 0.05443 0.0
C1824 C 0.08645 0.81452 0.08356 0.0
C1825 C 0.09832 0.81018 0.08858 0.0
C1826 C 0.11035 0.81947 0.10171 0.0
C1827 C 0.11072 0.83361 0.10967 0.0
C1828 C 0.09842 0.8377 0.10495 0.0
C1829 C 0.08617 0.8278 0.09222 0.0
C1830 C 0.123 0.81447 0.10662 0.0
C1831 C 0.0986 0.8529 0.11277 0.0
C1832 C 0.07235 0.81864 0.22094 0.0
C1833 C 0.08221 0.81155 0.21675 0.0
C1834 C 0.09787 0.82118 0.20886 0.0
C1835 C 0.10357 0.83812 0.20478 0.0
C1836 C 0.09376 0.84534 0.20936 0.0
C1837 C 0.07839 0.83554 0.21764 0.0
C1838 C 0.10829 0.81326 0.20482 0.0
C1839 C 0.09942 0.86337 0.20536 0.0
C1840 C 0.21999 0.94412 0.22531 0.0
C1841 C 0.21096 0.93459 0.24183 0.0
C1842 C 0.19069 0.90653 0.22945 0.0
C1843 C 0.18753 0.89014 0.22726 0.0
C1844 C 0.17388 0.87819 0.21705 0.0
C1845 C 0.16307 0.88277 0.2089 0.0
C1846 C 0.16598 0.89925 0.2113 0.0
C1847 C 0.17977 0.91099 0.22154 0.0
C1848 C 0.17114 0.86073 0.21475 0.0
C1849 C 0.1546 0.90449 0.20288 0.0
C1850 C 0.1542 0.86715 0.12357 0.0
C1851 C 0.14018 0.85585 0.11357 0.0
C1852 C 0.12495 0.84504 0.12148 0.0
C1853 C 0.12356 0.84551 0.13998 0.0
C1854 C 0.10845 0.83483 0.14841 0.0
C1855 C 0.10709 0.83578 0.16657 0.0
C1856 C 0.12091 0.84717 0.17707 0.0
C1857 C 0.11965 0.84829 0.19554 0.0
C1858 C 0.13364 0.85982 0.20552 0.0
C1859 C 0.14892 0.87043 0.19757 0.0
C1860 C 0.15045 0.86946 0.17913 0.0
C1861 C 0.16568 0.87989 0.17072 0.0
C1862 C 0.16698 0.87908 0.15254 0.0
C1863 C 0.15311 0.86784 0.14208 0.0
C1864 C 0.13769 0.85703 0.1503 0.0
C1865 C 0.13637 0.85783 0.16886 0.0
C1866 C 0.02828 0.78991 0.22382 0.0
C1867 C 0.04592 0.79265 0.22588 0.0
O1868 O 0.21068 0.90725 0.08196 0.0
O1869 O 0.20442 0.9175 0.23917 0.0
O1870 O 0.05706 0.80968 0.22833 0.0
O1871 O 0.07541 0.8064 0.07013 0.0
H1872 H 0.2046 0.9229 0.06817 0.0
H1873 H 0.23349 0.91958 0.06175 0.0
H1874 H 0.24744 0.95158 0.07938 0.0
H1875 H 0.22702 0.93061 0.05074 0.0
H1876 H 0.1891 0.91634 0.09414 0.0
H1877 H 0.20282 0.87841 0.0942 0.0
H1878 H 0.14857 0.89198 0.1086 0.0
H1879 H 0.16564 0.91344 0.10862 0.0
H1880 H 0.1607 0.90124 0.12831 0.0
H1881 H 0.18825 0.85386 0.11086 0.0
H1882 H 0.16609 0.84575 0.10804 0.0
H1883 H 0.17599 0.85455 0.12893 0.0
H1884 H 0.09311 0.80871 0.05242 0.0
H1885 H 0.07444 0.80201 0.02641 0.0
H1886 H 0.07613 0.81936 0.03925 0.0
H1887 H 0.05747 0.79899 0.04048 0.0
H1888 H 0.09826 0.79961 0.08214 0.0
H1889 H 0.07682 0.83091 0.0883 0.0
H1890 H 0.125 0.81531 0.12112 0.0
H1891 H 0.13516 0.82323 0.10054 0.0
H1892 H 0.11906 0.80153 0.10196 0.0
H1893 H 0.08931 0.85536 0.10627 0.0
H1894 H 0.11123 0.86419 0.11162 0.0
H1895 H 0.09568 0.851 0.12698 0.0
H1896 H 0.04869 0.78806 0.21342 0.0
H1897 H 0.0778 0.79857 0.2198 0.0
H1898 H 0.07076 0.84093 0.22117 0.0
H1899 H 0.10878 0.81178 0.19035 0.0
H1900 H 0.10312 0.80073 0.21078 0.0
H1901 H 0.12134 0.8215 0.20973 0.0
H1902 H 0.08958 0.86655 0.20808 0.0
H1903 H 0.103 0.8659 0.19133 0.0
H1904 H 0.11065 0.87179 0.21354 0.0
H1905 H 0.20071 0.93709 0.24502 0.0
H1906 H 0.22539 0.95783 0.22752 0.0
H1907 H 0.21114 0.94015 0.21394 0.0
H1908 H 0.23021 0.94167 0.2219 0.0
H1909 H 0.19596 0.88679 0.23345 0.0
H1910 H 0.18193 0.92357 0.22317 0.0
H1911 H 0.1714 0.85788 0.20054 0.0
H1912 H 0.1586 0.85143 0.21968 0.0
H1913 H 0.18077 0.85918 0.22186 0.0
H1914 H 0.15811 0.91755 0.20662 0.0
H1915 H 0.14146 0.89589 0.20679 0.0
H1916 H 0.15508 0.90355 0.18834 0.0
H1917 H 0.1411 0.85553 0.09935 0.0
H1918 H 0.09745 0.82573 0.14102 0.0
H1919 H 0.09505 0.82743 0.17228 0.0
H1920 H 0.13255 0.86073 0.21966 0.0
H1921 H 0.17676 0.88885 0.1781 0.0
H1922 H 0.17899 0.88745 0.14677 0.0
H1923 H 0.0247 0.79422 0.23589 0.0
H1924 H 0.01904 0.77642 0.22129 0.0
H1925 H 0.02781 0.79712 0.21249 0.0
C1926 C 0.30288 0.07641 0.95135 0.0
C1927 C 0.29478 0.08448 0.9419 0.0
C1928 C 0.30203 0.11019 0.92635 0.0
C1929 C 0.28564 0.10463 0.92023 0.0
C1930 C 0.28211 0.11497 0.90992 0.0
C1931 C 0.29525 0.13109 0.90545 0.0
C1932 C 0.31178 0.13661 0.91135 0.0
C1933 C 0.31493 0.12609 0.92179 0.0
C1934 C 0.26431 0.10873 0.90395 0.0
C1935 C 0.32609 0.15368 0.90673 0.0
C1936 C 0.26448 0.206 0.97198 0.0
C1937 C 0.27842 0.20899 0.95927 0.0
C1938 C 0.27529 0.19604 0.93045 0.0
C1939 C 0.29175 0.19977 0.92772 0.0
C1940 C 0.29513 0.1901 0.91587 0.0
C1941 C 0.28168 0.17614 0.90698 0.0
C1942 C 0.26504 0.17248 0.90967 0.0
C1943 C 0.26214 0.18281 0.92104 0.0
C1944 C 0.31305 0.19463 0.91316 0.0
C1945 C 0.25026 0.15739 0.901 0.0
C1946 C 0.26476 0.19179 0.79254 0.0
C1947 C 0.28132 0.19873 0.7986 0.0
C1948 C 0.28639 0.1889 0.80773 0.0
C1949 C 0.27448 0.17196 0.81128 0.0
C1950 C 0.25779 0.16496 0.80498 0.0
C1951 C 0.25326 0.17491 0.79538 0.0
C1952 C 0.30446 0.19661 0.81349 0.0
C1953 C 0.2447 0.14697 0.80843 0.0
C1954 C 0.28055 0.0635 0.7984 0.0
C1955 C 0.27965 0.0714 0.78114 0.0
C1956 C 0.28841 0.1003 0.79115 0.0
C1957 C 0.30205 0.11667 0.79217 0.0
C1958 C 0.30122 0.12932 0.80172 0.0
C1959 C 0.28622 0.1255 0.81027 0.0
C1960 C 0.2722 0.10904 0.80897 0.0
C1961 C 0.27345 0.09657 0.79952 0.0
C1962 C 0.31641 0.14671 0.80288 0.0
C1963 C 0.25591 0.10461 0.81771 0.0
C1964 C 0.29157 0.14241 0.8952 0.0
C1965 C 0.28872 0.15381 0.90456 0.0
C1966 C 0.28494 0.16474 0.89591 0.0
C1967 C 0.28394 0.16433 0.8773 0.0
C1968 C 0.28032 0.17522 0.86813 0.0
C1969 C 0.27871 0.17425 0.84986 0.0
C1970 C 0.28109 0.16264 0.84001 0.0
C1971 C 0.27939 0.16146 0.82143 0.0
C1972 C 0.28151 0.1495 0.81214 0.0
C1973 C 0.28527 0.1386 0.82087 0.0
C1974 C 0.28738 0.13982 0.83938 0.0
C1975 C 0.29158 0.12932 0.84852 0.0
C1976 C 0.29315 0.13027 0.86678 0.0
C1977 C 0.29049 0.14169 0.87661 0.0
C1978 C 0.28657 0.15264 0.86764 0.0
C1979 C 0.28511 0.15177 0.84899 0.0
C1980 C 0.24727 0.21739 0.78938 0.0
C1981 C 0.26364 0.21722 0.78766 0.0
O1982 O 0.30588 0.10069 0.93668 0.0
O1983 O 0.29037 0.08865 0.78205 0.0
O1984 O 0.25957 0.20091 0.78352 0.0
O1985 O 0.27174 0.20482 0.94234 0.0
H1986 H 0.28347 0.08328 0.94841 0.0
H1987 H 0.31576 0.08678 0.95551 0.0
H1988 H 0.29892 0.05667 0.93435 0.0
H1989 H 0.29769 0.07431 0.96503 0.0
H1990 H 0.2755 0.09231 0.92353 0.0
H1991 H 0.32753 0.13026 0.9265 0.0
H1992 H 0.26033 0.11764 0.90848 0.0
H1993 H 0.25541 0.0961 0.90901 0.0
H1994 H 0.26356 0.10814 0.88935 0.0
H1995 H 0.33839 0.15564 0.91124 0.0
H1996 H 0.32418 0.16353 0.91291 0.0
H1997 H 0.32637 0.15529 0.89225 0.0
H1998 H 0.28314 0.20054 0.96323 0.0
H1999 H 0.26938 0.20886 0.98575 0.0
H2000 H 0.25433 0.19264 0.97109 0.0
H2001 H 0.25911 0.214 0.96868 0.0
H2002 H 0.30195 0.21024 0.93483 0.0
H2003 H 0.24948 0.18013 0.92325 0.0
H2004 H 0.31541 0.19373 0.89898 0.0
H2005 H 0.31545 0.18567 0.92031 0.0
H2006 H 0.32206 0.20751 0.91818 0.0
H2007 H 0.2382 0.15468 0.90685 0.0
H2008 H 0.25148 0.1461 0.90215 0.0
H2009 H 0.2498 0.15971 0.88678 0.0
H2010 H 0.27031 0.22135 0.80064 0.0
H2011 H 0.29034 0.21171 0.79589 0.0
H2012 H 0.24056 0.16967 0.7904 0.0
H2013 H 0.30546 0.19839 0.82802 0.0
H2014 H 0.31257 0.20898 0.80745 0.0
H2015 H 0.30925 0.18812 0.80995 0.0
H2016 H 0.23189 0.14418 0.80481 0.0
H2017 H 0.24493 0.14414 0.82255 0.0
H2018 H 0.24749 0.13847 0.8006 0.0
H2019 H 0.2666 0.0685 0.77864 0.0
H2020 H 0.27203 0.04968 0.79771 0.0
H2021 H 0.27665 0.06851 0.8096 0.0
H2022 H 0.29353 0.06629 0.80102 0.0
H2023 H 0.31352 0.11944 0.78562 0.0
H2024 H 0.26272 0.084 0.79879 0.0
H2025 H 0.31987 0.15057 0.8169 0.0
H2026 H 0.31344 0.15578 0.79687 0.0
H2027 H 0.32735 0.14748 0.79607 0.0
H2028 H 0.24572 0.09171 0.81412 0.0
H2029 H 0.25192 0.11363 0.81397 0.0
H2030 H 0.25772 0.10553 0.83222 0.0
H2031 H 0.28931 0.15409 0.91884 0.0
H2032 H 0.27849 0.18451 0.87499 0.0
H2033 H 0.27557 0.18274 0.84356 0.0
H2034 H 0.27989 0.14845 0.79793 0.0
H2035 H 0.29366 0.1202 0.84166 0.0
H2036 H 0.29634 0.12183 0.87311 0.0
H2037 H 0.2404 0.21406 0.77655 0.0
H2038 H 0.24969 0.22991 0.7939 0.0
H2039 H 0.23918 0.20809 0.79922 0.0
C2040 C 0.80862 0.09623 0.97246 0.0
C2041 C 0.7957 0.09223 0.95775 0.0
C2042 C 0.80751 0.09134 0.92967 0.0
C2043 C 0.8045 0.10219 0.91971 0.0
C2044 C 0.81518 0.11132 0.90602 0.0
C2045 C 0.82915 0.10952 0.90229 0.0
C2046 C 0.83153 0.09771 0.91155 0.0
C2047 C 0.8205 0.08859 0.92505 0.0
C2048 C 0.81203 0.12349 0.89611 0.0
C2049 C 0.84622 0.09541 0.90783 0.0
C2050 C 0.94313 0.21553 0.92224 0.0
C2051 C 0.92855 0.21244 0.93415 0.0
C2052 C 0.90344 0.1946 0.91588 0.0
C2053 C 0.90496 0.18021 0.91587 0.0
C2054 C 0.89328 0.1655 0.90682 0.0
C2055 C 0.87964 0.16505 0.89785 0.0
C2056 C 0.87787 0.17936 0.89811 0.0
C2057 C 0.88991 0.19402 0.907 0.0
C2058 C 0.8955 0.15041 0.90684 0.0
C2059 C 0.86326 0.17917 0.88901 0.0
C2060 C 0.90557 0.17967 0.78462 0.0
C2061 C 0.9102 0.16916 0.79303 0.0
C2062 C 0.89843 0.15527 0.8025 0.0
C2063 C 0.88181 0.15201 0.80378 0.0
C2064 C 0.87701 0.16225 0.79481 0.0
C2065 C 0.88895 0.17584 0.7852 0.0
C2066 C 0.90383 0.14432 0.8115 0.0
C2067 C 0.85939 0.15911 0.79579 0.0
C2068 C 0.77559 0.02033 0.79269 0.0
C2069 C 0.78197 0.03889 0.78956 0.0
C2070 C 0.81029 0.06277 0.79362 0.0
C2071 C 0.82656 0.06647 0.79755 0.0
C2072 C 0.83833 0.08199 0.80522 0.0
C2073 C 0.83376 0.09422 0.8086 0.0
C2074 C 0.81758 0.09089 0.80374 0.0
C2075 C 0.80595 0.07513 0.79643 0.0
C2076 C 0.85553 0.08517 0.81008 0.0
C2077 C 0.81249 0.10389 0.80649 0.0
C2078 C 0.84244 0.12169 0.89067 0.0
C2079 C 0.8544 0.13697 0.8984 0.0
C2080 C 0.8671 0.14945 0.8885 0.0
C2081 C 0.86789 0.14681 0.87025 0.0
C2082 C 0.88032 0.15928 0.85984 0.0
C2083 C 0.88083 0.15667 0.84184 0.0
C2084 C 0.86919 0.14134 0.83362 0.0
C2085 C 0.86967 0.13857 0.81532 0.0
C2086 C 0.85804 0.12312 0.80761 0.0
C2087 C 0.84575 0.11029 0.81766 0.0
C2088 C 0.84491 0.11291 0.83595 0.0
C2089 C 0.83257 0.10038 0.84646 0.0
C2090 C 0.83164 0.10324 0.86436 0.0
C2091 C 0.84321 0.1186 0.87251 0.0
C2092 C 0.85594 0.13129 0.86224 0.0
C2093 C 0.8567 0.12849 0.84393 0.0
C2094 C 0.93926 0.21067 0.79612 0.0
C2095 C 0.93395 0.20262 0.77763 0.0
O2096 O 0.79833 0.08376 0.94405 0.0
O2097 O 0.79913 0.04717 0.78725 0.0
O2098 O 0.91662 0.19365 0.77594 0.0
O2099 O 0.91468 0.20927 0.92411 0.0
H2100 H 0.79752 0.10445 0.95331 0.0
H2101 H 0.82142 0.1046 0.96746 0.0
H2102 H 0.80793 0.08459 0.97721 0.0
H2103 H 0.8065 0.10275 0.98368 0.0
H2104 H 0.79399 0.10377 0.92288 0.0
H2105 H 0.82251 0.07993 0.93266 0.0
H2106 H 0.82177 0.13652 0.89987 0.0
H2107 H 0.79955 0.12185 0.89897 0.0
H2108 H 0.81291 0.12186 0.88172 0.0
H2109 H 0.84575 0.085 0.9154 0.0
H2110 H 0.85804 0.10718 0.91129 0.0
H2111 H 0.84656 0.09281 0.89357 0.0
H2112 H 0.92534 0.20154 0.94264 0.0
H2113 H 0.93982 0.20427 0.91392 0.0
H2114 H 0.95432 0.21841 0.93036 0.0
H2115 H 0.94639 0.22618 0.91339 0.0
H2116 H 0.91524 0.1803 0.92277 0.0
H2117 H 0.88878 0.20512 0.90713 0.0
H2118 H 0.88497 0.14005 0.9139 0.0
H2119 H 0.90744 0.15317 0.91329 0.0
H2120 H 0.8952 0.14593 0.89312 0.0
H2121 H 0.8631 0.19097 0.89142 0.0
H2122 H 0.85132 0.16846 0.89363 0.0
H2123 H 0.86386 0.17739 0.87461 0.0
H2124 H 0.93894 0.19408 0.77524 0.0
H2125 H 0.92295 0.17175 0.79236 0.0
H2126 H 0.88547 0.18391 0.7785 0.0
H2127 H 0.90387 0.14613 0.82598 0.0
H2128 H 0.91654 0.14726 0.80755 0.0
H2129 H 0.89481 0.13089 0.80838 0.0
H2130 H 0.8578 0.16854 0.78848 0.0
H2131 H 0.85604 0.15938 0.80975 0.0
H2132 H 0.85048 0.14645 0.79023 0.0
H2133 H 0.77902 0.04376 0.8017 0.0
H2134 H 0.7618 0.01342 0.79446 0.0
H2135 H 0.78155 0.01902 0.80481 0.0
H2136 H 0.77865 0.01455 0.78147 0.0
H2137 H 0.82985 0.05692 0.7951 0.0
H2138 H 0.79352 0.07255 0.79291 0.0
H2139 H 0.85816 0.08865 0.82428 0.0
H2140 H 0.8651 0.09589 0.80251 0.0
H2141 H 0.85686 0.07407 0.80736 0.0
H2142 H 0.80025 0.10013 0.80007 0.0
H2143 H 0.82215 0.11611 0.80121 0.0
H2144 H 0.81151 0.10577 0.8208 0.0
H2145 H 0.85382 0.1392 0.91238 0.0
H2146 H 0.8897 0.17127 0.86546 0.0
H2147 H 0.89056 0.16684 0.83449 0.0
H2148 H 0.85845 0.12109 0.79356 0.0
H2149 H 0.82341 0.08825 0.84094 0.0
H2150 H 0.8218 0.09323 0.87178 0.0
H2151 H 0.93408 0.219 0.7988 0.0
H2152 H 0.95313 0.21818 0.79733 0.0
H2153 H 0.93469 0.20091 0.8063 0.0
C2154 C 0.80311 0.70992 0.96304 0.0
C2155 C 0.79135 0.70767 0.94761 0.0
C2156 C 0.80578 0.70284 0.9231 0.0
C2157 C 0.81884 0.71959 0.92173 0.0
C2158 C 0.83245 0.72377 0.91071 0.0
C2159 C 0.8331 0.71098 0.90094 0.0
C2160 C 0.81982 0.69419 0.90195 0.0
C2161 C 0.80626 0.69037 0.91293 0.0
C2162 C 0.84632 0.74184 0.90977 0.0
C2163 C 0.82017 0.68023 0.89175 0.0
C2164 C 0.9516 0.74041 0.93915 0.0
C2165 C 0.93555 0.72457 0.94462 0.0
C2166 C 0.91463 0.71712 0.92081 0.0
C2167 C 0.90459 0.70442 0.90865 0.0
C2168 C 0.89203 0.70502 0.89892 0.0
C2169 C 0.88985 0.71903 0.90102 0.0
C2170 C 0.90013 0.73209 0.91314 0.0
C2171 C 0.91232 0.73093 0.92305 0.0
C2172 C 0.88101 0.69059 0.88651 0.0
C2173 C 0.89822 0.74725 0.91565 0.0
C2174 C 0.92709 0.74552 0.79115 0.0
C2175 C 0.91569 0.72879 0.79522 0.0
C2176 C 0.90051 0.72445 0.80341 0.0
C2177 C 0.89686 0.73718 0.80791 0.0
C2178 C 0.90811 0.75396 0.80324 0.0
C2179 C 0.92299 0.75786 0.79466 0.0
C2180 C 0.88849 0.7063 0.80746 0.0
C2181 C 0.90459 0.76784 0.80765 0.0
C2182 C 0.7826 0.73138 0.79635 0.0
C2183 C 0.78914 0.7286 0.77887 0.0
C2184 C 0.80972 0.72096 0.78909 0.0
C2185 C 0.81226 0.70745 0.79127 0.0
C2186 C 0.8265 0.70946 0.80011 0.0
C2187 C 0.83851 0.72547 0.80693 0.0
C2188 C 0.8363 0.73935 0.80436 0.0
C2189 C 0.82192 0.73698 0.79543 0.0
C2190 C 0.82854 0.69442 0.8025 0.0
C2191 C 0.84897 0.75659 0.81141 0.0
C2192 C 0.8482 0.71508 0.89061 0.0
C2193 C 0.86165 0.71553 0.89951 0.0
C2194 C 0.87651 0.71974 0.89088 0.0
C2195 C 0.87814 0.7238 0.87287 0.0
C2196 C 0.89314 0.72873 0.86395 0.0
C2197 C 0.8944 0.73204 0.84605 0.0
C2198 C 0.88067 0.73042 0.83635 0.0
C2199 C 0.88157 0.73303 0.81798 0.0
C2200 C 0.86772 0.73149 0.80881 0.0
C2201 C 0.85293 0.72747 0.81751 0.0
C2202 C 0.85178 0.7248 0.83585 0.0
C2203 C 0.83708 0.72078 0.845 0.0
C2204 C 0.83594 0.7178 0.86298 0.0
C2205 C 0.84938 0.71855 0.87245 0.0
C2206 C 0.8644 0.72286 0.86354 0.0
C2207 C 0.86563 0.72609 0.84524 0.0
C2208 C 0.96987 0.75787 0.79223 0.0
C2209 C 0.95218 0.7435 0.78784 0.0
O2210 O 0.7927 0.69809 0.93419 0.0
O2211 O 0.79525 0.7178 0.78103 0.0
O2212 O 0.94213 0.75017 0.78386 0.0
O2213 O 0.9264 0.71551 0.92986 0.0
H2214 H 0.79463 0.72018 0.94257 0.0
H2215 H 0.81635 0.71674 0.95884 0.0
H2216 H 0.8002 0.69752 0.96809 0.0
H2217 H 0.80179 0.71734 0.9739 0.0
H2218 H 0.81868 0.72949 0.9293 0.0
H2219 H 0.79612 0.67751 0.91396 0.0
H2220 H 0.85799 0.7432 0.91553 0.0
H2221 H 0.84331 0.75051 0.91696 0.0
H2222 H 0.84883 0.74566 0.89582 0.0
H2223 H 0.80887 0.66781 0.89398 0.0
H2224 H 0.83144 0.67967 0.89565 0.0
H2225 H 0.82104 0.68282 0.87746 0.0
H2226 H 0.92795 0.72821 0.95286 0.0
H2227 H 0.959 0.74758 0.95101 0.0
H2228 H 0.94856 0.74866 0.93149 0.0
H2229 H 0.95939 0.73711 0.93085 0.0
H2230 H 0.90649 0.69383 0.90701 0.0
H2231 H 0.92004 0.74092 0.93236 0.0
H2232 H 0.88397 0.69474 0.87271 0.0
H2233 H 0.86762 0.68644 0.8886 0.0
H2234 H 0.8828 0.67969 0.88822 0.0
H2235 H 0.90859 0.75731 0.92371 0.0
H2236 H 0.88624 0.74348 0.92235 0.0
H2237 H 0.89775 0.75241 0.90269 0.0
H2238 H 0.94763 0.73577 0.79987 0.0
H2239 H 0.9186 0.71912 0.79194 0.0
H2240 H 0.93179 0.77069 0.79119 0.0
H2241 H 0.88858 0.7045 0.82186 0.0
H2242 H 0.89188 0.69771 0.80069 0.0
H2243 H 0.87553 0.70273 0.80347 0.0
H2244 H 0.91519 0.78041 0.80431 0.0
H2245 H 0.90201 0.76781 0.82191 0.0
H2246 H 0.89327 0.76567 0.80028 0.0
H2247 H 0.79925 0.74084 0.77399 0.0
H2248 H 0.79286 0.73742 0.80632 0.0
H2249 H 0.77736 0.73972 0.79446 0.0
H2250 H 0.77269 0.71923 0.80157 0.0
H2251 H 0.80284 0.69517 0.78623 0.0
H2252 H 0.82028 0.74764 0.79366 0.0
H2253 H 0.82839 0.69186 0.81675 0.0
H2254 H 0.84082 0.69708 0.79737 0.0
H2255 H 0.81846 0.68299 0.79569 0.0
H2256 H 0.84567 0.7662 0.80795 0.0
H2257 H 0.86151 0.76038 0.80609 0.0
H2258 H 0.84988 0.75631 0.82596 0.0
H2259 H 0.86052 0.71249 0.91336 0.0
H2260 H 0.90406 0.73002 0.8707 0.0
H2261 H 0.90624 0.73572 0.83989 0.0
H2262 H 0.86841 0.73333 0.7947 0.0
H2263 H 0.82626 0.71985 0.83837 0.0
H2264 H 0.82431 0.7147 0.86933 0.0
H2265 H 0.97816 0.75285 0.79564 0.0
H2266 H 0.96955 0.76528 0.80372 0.0
H2267 H 0.97521 0.76636 0.78089 0.0
C2268 C 0.88933 0.61647 0.41348 0.0
C2269 C 0.89009 0.63275 0.40798 0.0
C2270 C 0.87326 0.63741 0.42991 0.0
C2271 C 0.87403 0.64821 0.44342 0.0
C2272 C 0.85955 0.64559 0.45195 0.0
C2273 C 0.84388 0.63147 0.44714 0.0
C2274 C 0.84294 0.62048 0.43342 0.0
C2275 C 0.8576 0.62366 0.4248 0.0
C2276 C 0.86105 0.65793 0.46613 0.0
C2277 C 0.82645 0.60531 0.42796 0.0
C2278 C 0.74989 0.66745 0.41481 0.0
C2279 C 0.7614 0.66537 0.42684 0.0
C2280 C 0.77332 0.64735 0.43075 0.0
C2281 C 0.77132 0.63162 0.42686 0.0
C2282 C 0.78119 0.62619 0.43531 0.0
C2283 C 0.79359 0.63696 0.44774 0.0
C2284 C 0.79603 0.65311 0.45138 0.0
C2285 C 0.78575 0.65808 0.443 0.0
C2286 C 0.7783 0.60892 0.43108 0.0
C2287 C 0.80945 0.66512 0.46419 0.0
C2288 C 0.75449 0.61293 0.55707 0.0
C2289 C 0.75099 0.59753 0.54937 0.0
C2290 C 0.76332 0.59623 0.53996 0.0
C2291 C 0.77942 0.61055 0.53832 0.0
C2292 C 0.78309 0.62591 0.54649 0.0
C2293 C 0.77055 0.62687 0.55575 0.0
C2294 C 0.75909 0.57965 0.53148 0.0
C2295 C 0.80018 0.64141 0.54517 0.0
C2296 C 0.88597 0.58813 0.54626 0.0
C2297 C 0.88023 0.60017 0.55262 0.0
C2298 C 0.85173 0.59491 0.5508 0.0
C2299 C 0.83572 0.58185 0.54614 0.0
C2300 C 0.8238 0.58515 0.53873 0.0
C2301 C 0.82795 0.60198 0.53639 0.0
C2302 C 0.84374 0.61526 0.54231 0.0
C2303 C 0.85552 0.61158 0.54933 0.0
C2304 C 0.80701 0.5707 0.5328 0.0
C2305 C 0.84837 0.63336 0.54074 0.0
C2306 C 0.82853 0.62824 0.45652 0.0
C2307 C 0.81797 0.6329 0.4484 0.0
C2308 C 0.80396 0.63132 0.457 0.0
C2309 C 0.80045 0.62516 0.47432 0.0
C2310 C 0.78668 0.62376 0.48352 0.0
C2311 C 0.78388 0.61855 0.50088 0.0
C2312 C 0.7946 0.61432 0.50964 0.0
C2313 C 0.79231 0.60973 0.52753 0.0
C2314 C 0.80314 0.60548 0.5358 0.0
C2315 C 0.81632 0.60573 0.52667 0.0
C2316 C 0.81886 0.61037 0.50879 0.0
C2317 C 0.83199 0.61074 0.4992 0.0
C2318 C 0.83501 0.61631 0.48198 0.0
C2319 C 0.82497 0.62163 0.47364 0.0
C2320 C 0.8111 0.62045 0.48271 0.0
C2321 C 0.8081 0.6149 0.50035 0.0
C2322 C 0.71668 0.60206 0.54985 0.0
C2323 C 0.72589 0.60386 0.56731 0.0
O2324 O 0.8879 0.64073 0.42242 0.0
O2325 O 0.86331 0.59105 0.55634 0.0
O2326 O 0.74289 0.6151 0.56573 0.0
O2327 O 0.76308 0.65169 0.42245 0.0
H2328 H 0.88009 0.62968 0.39795 0.0
H2329 H 0.87686 0.6075 0.41877 0.0
H2330 H 0.89889 0.61905 0.42384 0.0
H2331 H 0.89155 0.61037 0.40193 0.0
H2332 H 0.88612 0.65882 0.44722 0.0
H2333 H 0.85668 0.61522 0.41428 0.0
H2334 H 0.85136 0.66147 0.46416 0.0
H2335 H 0.87357 0.66951 0.46637 0.0
H2336 H 0.85899 0.65201 0.47917 0.0
H2337 H 0.82803 0.59704 0.41837 0.0
H2338 H 0.81829 0.60947 0.42184 0.0
H2339 H 0.81992 0.5979 0.43968 0.0
H2340 H 0.75919 0.66611 0.44117 0.0
H2341 H 0.74251 0.65529 0.40711 0.0
H2342 H 0.76556 0.6903 0.40285 0.0
H2343 H 0.73907 0.66535 0.42326 0.0
H2344 H 0.76178 0.62347 0.41733 0.0
H2345 H 0.78758 0.67038 0.44601 0.0
H2346 H 0.78964 0.61003 0.42492 0.0
H2347 H 0.76745 0.60166 0.42196 0.0
H2348 H 0.77609 0.60181 0.44339 0.0
H2349 H 0.81097 0.67783 0.4641 0.0
H2350 H 0.82163 0.66619 0.46098 0.0
H2351 H 0.80619 0.66021 0.47771 0.0
H2352 H 0.72387 0.59142 0.57118 0.0
H2353 H 0.73869 0.58654 0.55048 0.0
H2354 H 0.77316 0.63865 0.56183 0.0
H2355 H 0.76068 0.58108 0.51702 0.0
H2356 H 0.74606 0.56959 0.53414 0.0
H2357 H 0.76786 0.57572 0.53641 0.0
H2358 H 0.80126 0.65218 0.55298 0.0
H2359 H 0.80279 0.64508 0.53119 0.0
H2360 H 0.80993 0.63871 0.54986 0.0
H2361 H 0.88247 0.6087 0.54145 0.0
H2362 H 0.8996 0.59516 0.54352 0.0
H2363 H 0.87914 0.58162 0.53391 0.0
H2364 H 0.88342 0.57848 0.55622 0.0
H2365 H 0.83284 0.56902 0.54762 0.0
H2366 H 0.86771 0.62173 0.55353 0.0
H2367 H 0.80508 0.57164 0.51852 0.0
H2368 H 0.79689 0.57133 0.5399 0.0
H2369 H 0.80585 0.55834 0.5352 0.0
H2370 H 0.85985 0.64197 0.54851 0.0
H2371 H 0.83795 0.63508 0.54526 0.0
H2372 H 0.85064 0.63696 0.52673 0.0
H2373 H 0.82084 0.63809 0.43532 0.0
H2374 H 0.77805 0.62692 0.47749 0.0
H2375 H 0.77324 0.61798 0.50738 0.0
H2376 H 0.8015 0.60229 0.54961 0.0
H2377 H 0.84023 0.60695 0.50496 0.0
H2378 H 0.84543 0.61654 0.47534 0.0
H2379 H 0.70302 0.59335 0.55129 0.0
H2380 H 0.72114 0.59689 0.53932 0.0
H2381 H 0.71883 0.61445 0.54564 0.0
C2382 C 0.38519 0.25368 0.36634 0.0
C2383 C 0.37365 0.24874 0.38219 0.0
C2384 C 0.38114 0.24197 0.41044 0.0
C2385 C 0.36516 0.22989 0.41602 0.0
C2386 C 0.36322 0.2184 0.42896 0.0
C2387 C 0.37757 0.2189 0.43625 0.0
C2388 C 0.39372 0.23144 0.43101 0.0
C2389 C 0.39527 0.24303 0.41839 0.0
C2390 C 0.34584 0.2055 0.43456 0.0
C2391 C 0.40931 0.23227 0.43832 0.0
C2392 C 0.35953 0.09284 0.40761 0.0
C2393 C 0.36778 0.10989 0.41599 0.0
C2394 C 0.36164 0.13197 0.42369 0.0
C2395 C 0.37748 0.14323 0.43108 0.0
C2396 C 0.3805 0.15805 0.43974 0.0
C2397 C 0.36726 0.1614 0.44162 0.0
C2398 C 0.35127 0.15001 0.4343 0.0
C2399 C 0.34877 0.13557 0.4252 0.0
C2400 C 0.39791 0.17017 0.44674 0.0
C2401 C 0.33682 0.15307 0.43604 0.0
C2402 C 0.37588 0.14641 0.55623 0.0
C2403 C 0.39059 0.15678 0.54699 0.0
C2404 C 0.39206 0.17019 0.53716 0.0
C2405 C 0.37847 0.17309 0.53632 0.0
C2406 C 0.36384 0.16294 0.54596 0.0
C2407 C 0.36283 0.14983 0.55594 0.0
C2408 C 0.40805 0.18108 0.52744 0.0
C2409 C 0.34913 0.1657 0.54541 0.0
C2410 C 0.40786 0.30479 0.54505 0.0
C2411 C 0.39513 0.28695 0.55053 0.0
C2412 C 0.39841 0.26251 0.54661 0.0
C2413 C 0.41071 0.25851 0.54269 0.0
C2414 C 0.40647 0.24298 0.53488 0.0
C2415 C 0.38945 0.23104 0.53128 0.0
C2416 C 0.37687 0.23469 0.53603 0.0
C2417 C 0.38148 0.25042 0.54362 0.0
C2418 C 0.4202 0.23943 0.53017 0.0
C2419 C 0.35858 0.22203 0.53292 0.0
C2420 C 0.37563 0.20553 0.44825 0.0
C2421 C 0.37216 0.19023 0.44058 0.0
C2422 C 0.37026 0.177 0.45085 0.0
C2423 C 0.37181 0.17899 0.46939 0.0
C2424 C 0.36954 0.16581 0.48017 0.0
C2425 C 0.3718 0.1681 0.49832 0.0
C2426 C 0.37638 0.18367 0.50641 0.0
C2427 C 0.37931 0.1863 0.52479 0.0
C2428 C 0.38345 0.20179 0.53247 0.0
C2429 C 0.38485 0.21487 0.52225 0.0
C2430 C 0.38221 0.21257 0.5038 0.0
C2431 C 0.38369 0.2255 0.49308 0.0
C2432 C 0.38128 0.22316 0.47491 0.0
C2433 C 0.37755 0.20788 0.46675 0.0
C2434 C 0.37576 0.19458 0.47732 0.0
C2435 C 0.37806 0.19692 0.49587 0.0
C2436 C 0.37917 0.1154 0.54651 0.0
C2437 C 0.38269 0.12478 0.56429 0.0
O2438 O 0.38335 0.25274 0.39742 0.0
O2439 O 0.40334 0.27811 0.55317 0.0
O2440 O 0.37364 0.13297 0.56547 0.0
O2441 O 0.35832 0.11763 0.41496 0.0
H2442 H 0.36484 0.23494 0.381 0.0
H2443 H 0.39229 0.24696 0.3666 0.0
H2444 H 0.39425 0.2674 0.36665 0.0
H2445 H 0.37778 0.25022 0.35385 0.0
H2446 H 0.35422 0.22945 0.41026 0.0
H2447 H 0.40755 0.25258 0.41411 0.0
H2448 H 0.34276 0.19296 0.42934 0.0
H2449 H 0.33622 0.20828 0.42964 0.0
H2450 H 0.34524 0.20485 0.44914 0.0
H2451 H 0.42085 0.2421 0.43201 0.0
H2452 H 0.40853 0.21996 0.43638 0.0
H2453 H 0.41035 0.23502 0.45269 0.0
H2454 H 0.38109 0.11818 0.41225 0.0
H2455 H 0.36787 0.09386 0.3964 0.0
H2456 H 0.34919 0.09182 0.39883 0.0
H2457 H 0.35508 0.07704 0.42878 0.0
H2458 H 0.38762 0.1407 0.42992 0.0
H2459 H 0.33661 0.12683 0.41943 0.0
H2460 H 0.40173 0.18323 0.44322 0.0
H2461 H 0.40733 0.1672 0.4416 0.0
H2462 H 0.39804 0.16962 0.46132 0.0
H2463 H 0.32469 0.14184 0.43213 0.0
H2464 H 0.33895 0.16355 0.42746 0.0
H2465 H 0.33597 0.15676 0.44981 0.0
H2466 H 0.3963 0.13405 0.56573 0.0
H2467 H 0.40093 0.1545 0.5473 0.0
H2468 H 0.35161 0.14186 0.56323 0.0
H2469 H 0.40567 0.17866 0.51307 0.0
H2470 H 0.41819 0.17862 0.53127 0.0
H2471 H 0.41243 0.19455 0.53003 0.0
H2472 H 0.33835 0.1562 0.55299 0.0
H2473 H 0.34502 0.16524 0.53156 0.0
H2474 H 0.35297 0.17835 0.55094 0.0
H2475 H 0.38604 0.28133 0.5393 0.0
H2476 H 0.40159 0.3122 0.5431 0.0
H2477 H 0.41364 0.30435 0.53243 0.0
H2478 H 0.41799 0.31124 0.55514 0.0
H2479 H 0.42371 0.26784 0.5453 0.0
H2480 H 0.37186 0.25321 0.54725 0.0
H2481 H 0.41939 0.23622 0.51592 0.0
H2482 H 0.41854 0.22842 0.53754 0.0
H2483 H 0.43286 0.25027 0.53325 0.0
H2484 H 0.35028 0.22626 0.53859 0.0
H2485 H 0.35545 0.20987 0.53878 0.0
H2486 H 0.35596 0.21978 0.51855 0.0
H2487 H 0.37106 0.18866 0.42636 0.0
H2488 H 0.3661 0.15358 0.47468 0.0
H2489 H 0.37002 0.15753 0.50592 0.0
H2490 H 0.3857 0.20372 0.54657 0.0
H2491 H 0.38677 0.23762 0.4986 0.0
H2492 H 0.38255 0.23354 0.46732 0.0
H2493 H 0.36558 0.10618 0.54486 0.0
H2494 H 0.38624 0.10866 0.54561 0.0
H2495 H 0.38315 0.12431 0.53551 0.0
C2496 C 0.90333 0.26277 0.39274 0.0
C2497 C 0.88631 0.25385 0.40042 0.0
C2498 C 0.86797 0.22829 0.41636 0.0
C2499 C 0.85615 0.23298 0.42075 0.0
C2500 C 0.84181 0.22222 0.43024 0.0
C2501 C 0.83925 0.2065 0.43551 0.0
C2502 C 0.85119 0.20181 0.43129 0.0
C2503 C 0.86542 0.2128 0.42176 0.0
C2504 C 0.82929 0.22758 0.43452 0.0
C2505 C 0.84884 0.18514 0.43673 0.0
C2506 C 0.75172 0.12822 0.35955 0.0
C2507 C 0.75312 0.12157 0.37742 0.0
C2508 C 0.7586 0.13823 0.40438 0.0
C2509 C 0.76926 0.13383 0.41288 0.0
C2510 C 0.7806 0.14434 0.426 0.0
C2511 C 0.7812 0.1595 0.43073 0.0
C2512 C 0.76975 0.16344 0.42294 0.0
C2513 C 0.75843 0.1526 0.40995 0.0
C2514 C 0.79234 0.13954 0.4344 0.0
C2515 C 0.76995 0.17941 0.42783 0.0
C2516 C 0.74166 0.14354 0.54186 0.0
C2517 C 0.75186 0.1369 0.53737 0.0
C2518 C 0.76741 0.14693 0.52942 0.0
C2519 C 0.77266 0.16383 0.5256 0.0
C2520 C 0.76253 0.1706 0.53046 0.0
C2521 C 0.74725 0.16039 0.53875 0.0
C2522 C 0.77819 0.13949 0.52504 0.0
C2523 C 0.76774 0.18857 0.52672 0.0
C2524 C 0.89305 0.26482 0.54188 0.0
C2525 C 0.88397 0.25929 0.55947 0.0
C2526 C 0.86054 0.23136 0.55062 0.0
C2527 C 0.85582 0.21443 0.54952 0.0
C2528 C 0.84185 0.2029 0.53941 0.0
C2529 C 0.83215 0.20843 0.53049 0.0
C2530 C 0.83641 0.22542 0.53214 0.0
C2531 C 0.85068 0.23677 0.54203 0.0
C2532 C 0.83767 0.18488 0.53797 0.0
C2533 C 0.82604 0.23164 0.52324 0.0
C2534 C 0.82376 0.19472 0.44486 0.0
C2535 C 0.81002 0.18309 0.43472 0.0
C2536 C 0.79485 0.17189 0.4425 0.0
C2537 C 0.79314 0.17244 0.46093 0.0
C2538 C 0.7779 0.16172 0.46913 0.0
C2539 C 0.77635 0.16246 0.4873 0.0
C2540 C 0.79008 0.17371 0.49799 0.0
C2541 C 0.7887 0.17445 0.51649 0.0
C2542 C 0.8026 0.18581 0.52667 0.0
C2543 C 0.81794 0.19659 0.51891 0.0
C2544 C 0.81957 0.19606 0.50045 0.0
C2545 C 0.83484 0.20669 0.49221 0.0
C2546 C 0.83624 0.20633 0.47402 0.0
C2547 C 0.82249 0.19514 0.46337 0.0
C2548 C 0.80707 0.18406 0.47141 0.0
C2549 C 0.80557 0.18459 0.48997 0.0
C2550 C 0.69791 0.11343 0.5461 0.0
C2551 C 0.71591 0.11703 0.54747 0.0
O2552 O 0.88189 0.23824 0.40695 0.0
O2553 O 0.87468 0.24191 0.55999 0.0
O2554 O 0.72649 0.13422 0.54938 0.0
O2555 O 0.74864 0.12908 0.39054 0.0
H2556 H 0.87625 0.25364 0.39209 0.0
H2557 H 0.90716 0.25311 0.39052 0.0
H2558 H 0.91663 0.28372 0.4095 0.0
H2559 H 0.90117 0.26388 0.37835 0.0
H2560 H 0.85798 0.24497 0.41674 0.0
H2561 H 0.8746 0.2093 0.41837 0.0
H2562 H 0.81688 0.21837 0.42872 0.0
H2563 H 0.83309 0.24021 0.42949 0.0
H2564 H 0.82782 0.22774 0.44901 0.0
H2565 H 0.85965 0.18369 0.43316 0.0
H2566 H 0.83737 0.17483 0.43027 0.0
H2567 H 0.84706 0.1838 0.45118 0.0
H2568 H 0.76652 0.12518 0.37889 0.0
H2569 H 0.75485 0.12203 0.34878 0.0
H2570 H 0.76067 0.14194 0.35916 0.0
H2571 H 0.73891 0.126 0.3572 0.0
H2572 H 0.76891 0.12231 0.40908 0.0
H2573 H 0.74992 0.15571 0.40351 0.0
H2574 H 0.79184 0.14032 0.44896 0.0
H2575 H 0.80538 0.14852 0.43048 0.0
H2576 H 0.78929 0.12667 0.43045 0.0
H2577 H 0.75974 0.1803 0.42115 0.0
H2578 H 0.78214 0.19039 0.42419 0.0
H2579 H 0.76868 0.18016 0.44229 0.0
H2580 H 0.71852 0.11241 0.53493 0.0
H2581 H 0.74782 0.12397 0.54026 0.0
H2582 H 0.73937 0.16544 0.54249 0.0
H2583 H 0.77886 0.13844 0.51054 0.0
H2584 H 0.77323 0.12683 0.53062 0.0
H2585 H 0.79115 0.14783 0.53015 0.0
H2586 H 0.7578 0.19149 0.52997 0.0
H2587 H 0.77089 0.19118 0.51261 0.0
H2588 H 0.77915 0.19712 0.5346 0.0
H2589 H 0.87558 0.26453 0.56111 0.0
H2590 H 0.90059 0.27873 0.54142 0.0
H2591 H 0.88389 0.26033 0.53076 0.0
H2592 H 0.90146 0.25963 0.54007 0.0
H2593 H 0.86342 0.21036 0.5563 0.0
H2594 H 0.85399 0.24977 0.54293 0.0
H2595 H 0.83711 0.18115 0.5239 0.0
H2596 H 0.82513 0.17658 0.54357 0.0
H2597 H 0.84697 0.18277 0.545 0.0
H2598 H 0.82968 0.24458 0.52765 0.0
H2599 H 0.81255 0.22316 0.52593 0.0
H2600 H 0.82765 0.2316 0.50878 0.0
H2601 H 0.81116 0.18272 0.42053 0.0
H2602 H 0.76697 0.15274 0.46157 0.0
H2603 H 0.76427 0.15403 0.49285 0.0
H2604 H 0.80144 0.18636 0.54084 0.0
H2605 H 0.84589 0.21551 0.49973 0.0
H2606 H 0.84826 0.21489 0.4684 0.0
H2607 H 0.69446 0.11763 0.55835 0.0
H2608 H 0.68904 0.09981 0.54387 0.0
H2609 H 0.69666 0.12026 0.53484 0.0
C2610 C 0.04291 0.47199 0.30635 0.0
C2611 C 0.02819 0.45932 0.29479 0.0
C2612 C 0.02507 0.47022 0.26682 0.0
C2613 C 0.00789 0.46468 0.26694 0.0
C2614 C 0.00119 0.47205 0.25606 0.0
C2615 C 0.01191 0.48516 0.24485 0.0
C2616 C 0.02917 0.49048 0.24446 0.0
C2617 C 0.03546 0.48274 0.25529 0.0
C2618 C 0.98268 0.46581 0.25647 0.0
C2619 C 0.041 0.50446 0.23272 0.0
C2620 C 0.96505 0.5647 0.26276 0.0
C2621 C 0.98101 0.56847 0.27288 0.0
C2622 C 0.99384 0.55551 0.25516 0.0
C2623 C 0.00799 0.55897 0.24555 0.0
C2624 C 0.00987 0.54603 0.23822 0.0
C2625 C 0.99696 0.52917 0.24015 0.0
C2626 C 0.98268 0.52552 0.25007 0.0
C2627 C 0.98133 0.53871 0.25765 0.0
C2628 C 0.02555 0.5504 0.22821 0.0
C2629 C 0.96871 0.50767 0.25243 0.0
C2630 C 0.97712 0.5325 0.12321 0.0
C2631 C 0.9932 0.53508 0.12561 0.0
C2632 C 0.9963 0.52524 0.13713 0.0
C2633 C 0.98283 0.51221 0.14624 0.0
C2634 C 0.96646 0.5095 0.14393 0.0
C2635 C 0.9638 0.51988 0.13267 0.0
C2636 C 0.01397 0.5287 0.13935 0.0
C2637 C 0.95178 0.49559 0.15328 0.0
C2638 C 0.01199 0.41252 0.14642 0.0
C2639 C 0.00053 0.41532 0.13414 0.0
C2640 C 0.00354 0.44327 0.13743 0.0
C2641 C 0.01616 0.45999 0.13982 0.0
C2642 C 0.01269 0.47195 0.14693 0.0
C2643 C 0.99608 0.46702 0.15157 0.0
C2644 C 0.98308 0.45029 0.14842 0.0
C2645 C 0.98692 0.43856 0.14125 0.0
C2646 C 0.02684 0.48975 0.14989 0.0
C2647 C 0.96521 0.44477 0.15291 0.0
C2648 C 0.00517 0.49347 0.23367 0.0
C2649 C 0.00348 0.50638 0.24129 0.0
C2650 C 0.99815 0.51541 0.2313 0.0
C2651 C 0.99448 0.51162 0.21314 0.0
C2652 C 0.98937 0.52066 0.20264 0.0
C2653 C 0.98659 0.51738 0.18463 0.0
C2654 C 0.98838 0.50463 0.17649 0.0
C2655 C 0.986 0.50146 0.15811 0.0
C2656 C 0.98803 0.48876 0.15046 0.0
C2657 C 0.99257 0.4792 0.16065 0.0
C2658 C 0.99495 0.48214 0.17903 0.0
C2659 C 0.99953 0.47273 0.18964 0.0
C2660 C 0.00264 0.47624 0.20758 0.0
C2661 C 0.0013 0.4893 0.2156 0.0
C2662 C 0.99615 0.49857 0.20527 0.0
C2663 C 0.99299 0.495 0.18694 0.0
C2664 C 0.94975 0.52717 0.09435 0.0
C2665 C 0.96072 0.54228 0.10658 0.0
O2666 O 0.03196 0.46349 0.27729 0.0
O2667 O 0.00797 0.43233 0.13096 0.0
O2668 O 0.97519 0.54237 0.11147 0.0
O2669 O 0.99275 0.56875 0.26147 0.0
H2670 H 0.01705 0.46007 0.2988 0.0
H2671 H 0.0451 0.48481 0.30426 0.0
H2672 H 0.0545 0.47186 0.303 0.0
H2673 H 0.04016 0.46903 0.32049 0.0
H2674 H 0.99967 0.45447 0.27531 0.0
H2675 H 0.04865 0.48671 0.25511 0.0
H2676 H 0.98068 0.47597 0.26157 0.0
H2677 H 0.97583 0.4547 0.26492 0.0
H2678 H 0.97727 0.46245 0.24293 0.0
H2679 H 0.05425 0.50801 0.235 0.0
H2680 H 0.03982 0.51571 0.23499 0.0
H2681 H 0.03764 0.50047 0.21873 0.0
H2682 H 0.97772 0.55863 0.28285 0.0
H2683 H 0.95899 0.55201 0.25651 0.0
H2684 H 0.95595 0.56513 0.2719 0.0
H2685 H 0.96792 0.57393 0.25222 0.0
H2686 H 0.01763 0.57195 0.2438 0.0
H2687 H 0.97036 0.53575 0.2652 0.0
H2688 H 0.02249 0.54796 0.21394 0.0
H2689 H 0.03067 0.54241 0.2324 0.0
H2690 H 0.03538 0.56379 0.23015 0.0
H2691 H 0.95792 0.50696 0.25951 0.0
H2692 H 0.97348 0.50074 0.26 0.0
H2693 H 0.96427 0.50123 0.2394 0.0
H2694 H 0.95359 0.54176 0.11853 0.0
H2695 H 0.00339 0.54489 0.11832 0.0
H2696 H 0.95132 0.51793 0.13124 0.0
H2697 H 0.01717 0.52901 0.15351 0.0
H2698 H 0.02329 0.54077 0.13347 0.0
H2699 H 0.01499 0.51846 0.13279 0.0
H2700 H 0.93965 0.49408 0.1488 0.0
H2701 H 0.9532 0.49832 0.16767 0.0
H2702 H 0.95146 0.48354 0.15106 0.0
H2703 H 0.98836 0.41044 0.14082 0.0
H2704 H 0.0063 0.39898 0.14931 0.0
H2705 H 0.01384 0.41951 0.15905 0.0
H2706 H 0.02441 0.41705 0.14037 0.0
H2707 H 0.02887 0.46355 0.13646 0.0
H2708 H 0.97687 0.42587 0.13852 0.0
H2709 H 0.02865 0.49276 0.16422 0.0
H2710 H 0.02369 0.49861 0.1437 0.0
H2711 H 0.03883 0.49181 0.14443 0.0
H2712 H 0.95647 0.43136 0.14943 0.0
H2713 H 0.96117 0.45257 0.14584 0.0
H2714 H 0.96434 0.44673 0.16724 0.0
H2715 H 0.00658 0.5096 0.25513 0.0
H2716 H 0.9877 0.53057 0.20816 0.0
H2717 H 0.98304 0.525 0.17717 0.0
H2718 H 0.98657 0.48663 0.13631 0.0
H2719 H 0.0009 0.46262 0.18418 0.0
H2720 H 0.00624 0.46867 0.21506 0.0
H2721 H 0.95681 0.52727 0.08253 0.0
H2722 H 0.93844 0.5275 0.09005 0.0
H2723 H 0.94551 0.5152 0.10116 0.0
C2724 C 0.46541 0.4267 0.30483 0.0
C2725 C 0.45363 0.42534 0.28988 0.0
C2726 C 0.46677 0.42768 0.26174 0.0
C2727 C 0.46445 0.43974 0.25334 0.0
C2728 C 0.47559 0.44991 0.24044 0.0
C2729 C 0.48934 0.44799 0.23596 0.0
C2730 C 0.49125 0.43529 0.24389 0.0
C2731 C 0.47973 0.4251 0.25654 0.0
C2732 C 0.47295 0.46306 0.23196 0.0
C2733 C 0.5058 0.43294 0.2395 0.0
C2734 C 0.60626 0.55114 0.25134 0.0
C2735 C 0.59326 0.54946 0.26487 0.0
C2736 C 0.56644 0.53223 0.24891 0.0
C2737 C 0.56697 0.51729 0.24849 0.0
C2738 C 0.55433 0.5028 0.23988 0.0
C2739 C 0.54071 0.50312 0.23181 0.0
C2740 C 0.53983 0.51795 0.2327 0.0
C2741 C 0.55281 0.53236 0.24112 0.0
C2742 C 0.5556 0.48715 0.23928 0.0
C2743 C 0.52526 0.51859 0.22464 0.0
C2744 C 0.56636 0.51823 0.11857 0.0
C2745 C 0.57036 0.50733 0.12717 0.0
C2746 C 0.55815 0.49363 0.13651 0.0
C2747 C 0.54172 0.49095 0.13747 0.0
C2748 C 0.53755 0.50157 0.12833 0.0
C2749 C 0.54991 0.51497 0.11885 0.0
C2750 C 0.5629 0.48225 0.1457 0.0
C2751 C 0.52014 0.49903 0.12901 0.0
C2752 C 0.44301 0.35763 0.12228 0.0
C2753 C 0.44679 0.3756 0.11992 0.0
C2754 C 0.47353 0.40134 0.1257 0.0
C2755 C 0.49006 0.40638 0.13019 0.0
C2756 C 0.5005 0.42189 0.13867 0.0
C2757 C 0.49435 0.43286 0.14222 0.0
C2758 C 0.4778 0.42812 0.137 0.0
C2759 C 0.46747 0.41229 0.12898 0.0
C2760 C 0.51808 0.42649 0.14392 0.0
C2761 C 0.47106 0.43978 0.13987 0.0
C2762 C 0.50254 0.46034 0.2244 0.0
C2763 C 0.51479 0.47544 0.23225 0.0
C2764 C 0.5275 0.48794 0.22235 0.0
C2765 C 0.5279 0.48554 0.20398 0.0
C2766 C 0.54024 0.49807 0.19354 0.0
C2767 C 0.5405 0.49565 0.17548 0.0
C2768 C 0.52874 0.4804 0.16719 0.0
C2769 C 0.52918 0.4777 0.14888 0.0
C2770 C 0.51757 0.46226 0.14113 0.0
C2771 C 0.50539 0.44932 0.15117 0.0
C2772 C 0.50448 0.45194 0.16946 0.0
C2773 C 0.49221 0.43936 0.17996 0.0
C2774 C 0.49135 0.44216 0.1979 0.0
C2775 C 0.50306 0.45744 0.20613 0.0
C2776 C 0.51571 0.47018 0.19587 0.0
C2777 C 0.51627 0.46752 0.17748 0.0
C2778 C 0.60043 0.5486 0.13045 0.0
C2779 C 0.59518 0.54042 0.11202 0.0
O2780 O 0.45674 0.41851 0.27501 0.0
O2781 O 0.46391 0.38595 0.11804 0.0
O2782 O 0.57789 0.53206 0.11003 0.0
O2783 O 0.57877 0.54679 0.25646 0.0
H2784 H 0.45615 0.43824 0.28735 0.0
H2785 H 0.47862 0.43499 0.30092 0.0
H2786 H 0.46354 0.41415 0.30787 0.0
H2787 H 0.46315 0.4322 0.31687 0.0
H2788 H 0.45401 0.44128 0.25699 0.0
H2789 H 0.48122 0.41555 0.26297 0.0
H2790 H 0.483 0.47572 0.23646 0.0
H2791 H 0.46066 0.46167 0.23531 0.0
H2792 H 0.47376 0.46234 0.21743 0.0
H2793 H 0.50549 0.42248 0.24682 0.0
H2794 H 0.51775 0.44467 0.2427 0.0
H2795 H 0.50569 0.43034 0.22518 0.0
H2796 H 0.5903 0.53874 0.27352 0.0
H2797 H 0.60162 0.53937 0.24348 0.0
H2798 H 0.61804 0.55384 0.25815 0.0
H2799 H 0.60909 0.56142 0.2421 0.0
H2800 H 0.57723 0.51678 0.25466 0.0
H2801 H 0.5524 0.54387 0.24161 0.0
H2802 H 0.54498 0.47702 0.24647 0.0
H2803 H 0.56748 0.48922 0.24524 0.0
H2804 H 0.55472 0.48272 0.22543 0.0
H2805 H 0.52576 0.53063 0.2277 0.0
H2806 H 0.51329 0.5081 0.22951 0.0
H2807 H 0.52525 0.51702 0.21013 0.0
H2808 H 0.59967 0.53142 0.11001 0.0
H2809 H 0.58296 0.50947 0.12677 0.0
H2810 H 0.54691 0.52334 0.11202 0.0
H2811 H 0.56283 0.4841 0.16016 0.0
H2812 H 0.57553 0.48477 0.14197 0.0
H2813 H 0.5536 0.46892 0.14253 0.0
H2814 H 0.51899 0.50857 0.12141 0.0
H2815 H 0.51678 0.49965 0.14289 0.0
H2816 H 0.51097 0.48638 0.12361 0.0
H2817 H 0.44259 0.37921 0.13209 0.0
H2818 H 0.42941 0.34904 0.12432 0.0
H2819 H 0.44993 0.35708 0.134 0.0
H2820 H 0.44693 0.35323 0.11053 0.0
H2821 H 0.49465 0.3979 0.12739 0.0
H2822 H 0.45479 0.4086 0.12503 0.0
H2823 H 0.5206 0.4307 0.15794 0.0
H2824 H 0.52717 0.43709 0.13586 0.0
H2825 H 0.5203 0.41585 0.142 0.0
H2826 H 0.45872 0.43508 0.13321 0.0
H2827 H 0.48001 0.45243 0.13489 0.0
H2828 H 0.46959 0.44116 0.15417 0.0
H2829 H 0.51449 0.47745 0.24632 0.0
H2830 H 0.54976 0.50998 0.1992 0.0
H2831 H 0.55019 0.50585 0.16813 0.0
H2832 H 0.51816 0.46021 0.12711 0.0
H2833 H 0.48303 0.42726 0.1744 0.0
H2834 H 0.48152 0.43212 0.20529 0.0
H2835 H 0.61429 0.55557 0.13194 0.0
H2836 H 0.59528 0.53893 0.14073 0.0
H2837 H 0.59579 0.55743 0.13273 0.0
C2838 C 0.43299 0.96667 0.29847 0.0
C2839 C 0.43205 0.98067 0.28904 0.0
C2840 C 0.44339 0.98285 0.25989 0.0
C2841 C 0.45578 0.99985 0.2594 0.0
C2842 C 0.46968 0.00524 0.24849 0.0
C2843 C 0.47117 0.99333 0.23793 0.0
C2844 C 0.45834 0.97626 0.23791 0.0
C2845 C 0.44445 0.97128 0.24876 0.0
C2846 C 0.48295 0.02358 0.24852 0.0
C2847 C 0.45955 0.96324 0.22684 0.0
C2848 C 0.5957 0.01813 0.24532 0.0
C2849 C 0.5819 0.00405 0.25598 0.0
C2850 C 0.55764 0.00766 0.25586 0.0
C2851 C 0.54557 0.99243 0.24789 0.0
C2852 C 0.53147 0.99106 0.23935 0.0
C2853 C 0.52936 0.00517 0.23897 0.0
C2854 C 0.54104 0.02025 0.24782 0.0
C2855 C 0.55501 0.02124 0.2563 0.0
C2856 C 0.51899 0.97467 0.23043 0.0
C2857 C 0.53897 0.03542 0.24791 0.0
C2858 C 0.56873 0.03553 0.13175 0.0
C2859 C 0.55668 0.01851 0.13339 0.0
C2860 C 0.54104 0.01365 0.14075 0.0
C2861 C 0.53754 0.02611 0.14679 0.0
C2862 C 0.54943 0.04327 0.14442 0.0
C2863 C 0.56482 0.04774 0.13667 0.0
C2864 C 0.52843 0.99522 0.14245 0.0
C2865 C 0.54609 0.05688 0.15057 0.0
C2866 C 0.42396 0.02329 0.13991 0.0
C2867 C 0.4345 0.02916 0.12324 0.0
C2868 C 0.45437 0.01928 0.12854 0.0
C2869 C 0.45699 0.00587 0.12534 0.0
C2870 C 0.46972 0.00478 0.1342 0.0
C2871 C 0.48033 0.01767 0.14629 0.0
C2872 C 0.47811 0.03158 0.14919 0.0
C2873 C 0.46502 0.03214 0.14047 0.0
C2874 C 0.47168 0.98974 0.13084 0.0
C2875 C 0.4895 0.04583 0.1616 0.0
C2876 C 0.4867 0.99855 0.22791 0.0
C2877 C 0.50029 0.9994 0.23697 0.0
C2878 C 0.51541 0.0044 0.22857 0.0
C2879 C 0.51713 0.0086 0.2106 0.0
C2880 C 0.5322 0.01366 0.20178 0.0
C2881 C 0.5338 0.01781 0.18412 0.0
C2882 C 0.52039 0.01705 0.17455 0.0
C2883 C 0.52191 0.02122 0.15655 0.0
C2884 C 0.50856 0.02102 0.14765 0.0
C2885 C 0.49357 0.01653 0.15618 0.0
C2886 C 0.4916 0.0117 0.17399 0.0
C2887 C 0.47648 0.00653 0.18281 0.0
C2888 C 0.47481 0.0022 0.20046 0.0
C2889 C 0.48817 0.00279 0.20994 0.0
C2890 C 0.50346 0.0078 0.20126 0.0
C2891 C 0.50513 0.01214 0.18324 0.0
C2892 C 0.60808 0.04799 0.14355 0.0
C2893 C 0.5945 0.03469 0.13134 0.0
O2894 O 0.43036 0.97732 0.27105 0.0
O2895 O 0.44146 0.0192 0.11984 0.0
O2896 O 0.58418 0.04047 0.12543 0.0
O2897 O 0.57185 0.00959 0.26334 0.0
H2898 H 0.44385 0.99264 0.29216 0.0
H2899 H 0.44405 0.96607 0.29388 0.0
H2900 H 0.42156 0.95432 0.29567 0.0
H2901 H 0.43433 0.96914 0.31292 0.0
H2902 H 0.4546 0.0089 0.26756 0.0
H2903 H 0.43466 0.95821 0.24911 0.0
H2904 H 0.49469 0.02528 0.25447 0.0
H2905 H 0.47914 0.03147 0.25607 0.0
H2906 H 0.48571 0.02809 0.2348 0.0
H2907 H 0.44852 0.95047 0.22835 0.0
H2908 H 0.47102 0.963 0.23062 0.0
H2909 H 0.46063 0.96659 0.21276 0.0
H2910 H 0.57464 0.99331 0.24667 0.0
H2911 H 0.60411 0.01402 0.23968 0.0
H2912 H 0.60323 0.02957 0.25367 0.0
H2913 H 0.59001 0.02139 0.23429 0.0
H2914 H 0.54709 0.98158 0.24835 0.0
H2915 H 0.56424 0.03282 0.26282 0.0
H2916 H 0.51867 0.97653 0.21606 0.0
H2917 H 0.50625 0.97041 0.23548 0.0
H2918 H 0.52206 0.96466 0.23253 0.0
H2919 H 0.54889 0.04605 0.25584 0.0
H2920 H 0.52658 0.03207 0.25332 0.0
H2921 H 0.53933 0.03957 0.23421 0.0
H2922 H 0.58732 0.02317 0.13922 0.0
H2923 H 0.55951 0.00905 0.12892 0.0
H2924 H 0.57415 0.06084 0.13504 0.0
H2925 H 0.52739 0.9918 0.1565 0.0
H2926 H 0.53203 0.9872 0.13485 0.0
H2927 H 0.51588 0.99248 0.13781 0.0
H2928 H 0.55695 0.06965 0.14851 0.0
H2929 H 0.54306 0.05548 0.16479 0.0
H2930 H 0.53509 0.05566 0.14331 0.0
H2931 H 0.44457 0.04249 0.12499 0.0
H2932 H 0.41832 0.03118 0.14273 0.0
H2933 H 0.43189 0.02435 0.15142 0.0
H2934 H 0.41379 0.00999 0.1383 0.0
H2935 H 0.44877 0.99604 0.11607 0.0
H2936 H 0.46329 0.04268 0.14306 0.0
H2937 H 0.47159 0.98384 0.14349 0.0
H2938 H 0.48393 0.99383 0.1246 0.0
H2939 H 0.4616 0.98017 0.12209 0.0
H2940 H 0.48774 0.0568 0.16041 0.0
H2941 H 0.50281 0.04994 0.15902 0.0
H2942 H 0.48688 0.04149 0.17536 0.0
H2943 H 0.4991 0.99619 0.25077 0.0
H2944 H 0.54297 0.01449 0.20843 0.0
H2945 H 0.54574 0.02168 0.17809 0.0
H2946 H 0.50994 0.02458 0.13396 0.0
H2947 H 0.46575 0.00579 0.17617 0.0
H2948 H 0.46293 0.99841 0.2066 0.0
H2949 H 0.61563 0.05997 0.13656 0.0
H2950 H 0.6165 0.0436 0.14843 0.0
H2951 H 0.60219 0.05038 0.15507 0.0
C2952 C 0.55731 0.01554 0.71382 0.0
C2953 C 0.57003 0.0198 0.72885 0.0
C2954 C 0.55293 0.00683 0.75454 0.0
C2955 C 0.55586 0.02117 0.7642 0.0
C2956 C 0.54439 0.02023 0.77674 0.0
C2957 C 0.52981 0.00463 0.77979 0.0
C2958 C 0.52732 0.99 0.7708 0.0
C2959 C 0.53905 0.99128 0.75839 0.0
C2960 C 0.5476 0.03599 0.78643 0.0
C2961 C 0.51198 0.97313 0.77388 0.0
C2962 C 0.4156 0.00041 0.73663 0.0
C2963 C 0.42638 0.99553 0.74636 0.0
C2964 C 0.45317 0.0079 0.7621 0.0
C2965 C 0.45074 0.99248 0.76799 0.0
C2966 C 0.46308 0.99177 0.77804 0.0
C2967 C 0.47802 0.0068 0.78266 0.0
C2968 C 0.4804 0.02237 0.77706 0.0
C2969 C 0.46794 0.02269 0.76677 0.0
C2970 C 0.46021 0.97487 0.78347 0.0
C2971 C 0.49616 0.03862 0.78183 0.0
C2972 C 0.44321 0.98592 0.89278 0.0
C2973 C 0.44144 0.97291 0.8815 0.0
C2974 C 0.45534 0.97405 0.87291 0.0
C2975 C 0.47128 0.98863 0.87538 0.0
C2976 C 0.47317 0.00155 0.88708 0.0
C2977 C 0.45911 0.99992 0.89576 0.0
C2978 C 0.45292 0.9598 0.86089 0.0
C2979 C 0.48996 0.01725 0.89003 0.0
C2980 C 0.57266 0.9628 0.87412 0.0
C2981 C 0.57022 0.97422 0.88703 0.0
C2982 C 0.54295 0.97214 0.88538 0.0
C2983 C 0.52688 0.96018 0.87953 0.0
C2984 C 0.51593 0.96502 0.8726 0.0
C2985 C 0.52111 0.98227 0.87198 0.0
C2986 C 0.53701 0.9944 0.8789 0.0
C2987 C 0.54781 0.9892 0.88549 0.0
C2988 C 0.49899 0.95172 0.86555 0.0
C2989 C 0.54269 0.01284 0.879 0.0
C2990 C 0.5165 0.00393 0.79109 0.0
C2991 C 0.50448 0.00658 0.78304 0.0
C2992 C 0.49141 0.00601 0.79262 0.0
C2993 C 0.49047 0.00317 0.8109 0.0
C2994 C 0.47785 0.00318 0.82105 0.0
C2995 C 0.47649 0.99949 0.83885 0.0
C2996 C 0.4876 0.99548 0.84712 0.0
C2997 C 0.4857 0.99072 0.86495 0.0
C2998 C 0.49705 0.98694 0.87281 0.0
C2999 C 0.51022 0.98758 0.86326 0.0
C3000 C 0.51224 0.99219 0.84537 0.0
C3001 C 0.52523 0.99278 0.83529 0.0
C3002 C 0.52685 0.99692 0.81758 0.0
C3003 C 0.51539 0.00036 0.80922 0.0
C3004 C 0.50231 -1e-05 0.81916 0.0
C3005 C 0.50081 0.99603 0.83727 0.0
C3006 C 0.40881 0.98031 0.87936 0.0
C3007 C 0.41311 0.97535 0.89694 0.0
O3008 O 0.56321 0.00754 0.74149 0.0
O3009 O 0.55338 0.96682 0.89096 0.0
O3010 O 0.43002 0.98563 0.90093 0.0
O3011 O 0.44168 0.00898 0.75186 0.0
H3012 H 0.57304 0.03221 0.73441 0.0
H3013 H 0.54621 0.0158 0.71886 0.0
H3014 H 0.55302 0.00283 0.70815 0.0
H3015 H 0.56292 0.0249 0.70326 0.0
H3016 H 0.56706 0.0331 0.76204 0.0
H3017 H 0.53709 0.98024 0.75111 0.0
H3018 H 0.53789 0.03905 0.78258 0.0
H3019 H 0.56011 0.0469 0.78358 0.0
H3020 H 0.54667 0.03393 0.80084 0.0
H3021 H 0.51225 0.96284 0.76643 0.0
H3022 H 0.50061 0.97345 0.76984 0.0
H3023 H 0.51092 0.97032 0.78813 0.0
H3024 H 0.42749 0.98522 0.73989 0.0
H3025 H 0.41429 0.995 0.72294 0.0
H3026 H 0.42397 0.01381 0.7326 0.0
H3027 H 0.39513 0.99302 0.75317 0.0
H3028 H 0.43933 0.9809 0.76466 0.0
H3029 H 0.4697 0.03453 0.76224 0.0
H3030 H 0.45888 0.9738 0.79797 0.0
H3031 H 0.47112 0.97358 0.7799 0.0
H3032 H 0.44877 0.9643 0.77721 0.0
H3033 H 0.49535 0.04976 0.77807 0.0
H3034 H 0.50693 0.03907 0.77499 0.0
H3035 H 0.49871 0.03933 0.79621 0.0
H3036 H 0.40994 0.96204 0.89615 0.0
H3037 H 0.42929 0.96186 0.87921 0.0
H3038 H 0.46038 0.00984 0.9046 0.0
H3039 H 0.45405 0.96373 0.847 0.0
H3040 H 0.44045 0.94838 0.86246 0.0
H3041 H 0.46275 0.95659 0.8635 0.0
H3042 H 0.48925 0.02638 0.89913 0.0
H3043 H 0.49497 0.02338 0.87726 0.0
H3044 H 0.49897 0.01392 0.8956 0.0
H3045 H 0.57472 0.98635 0.88032 0.0
H3046 H 0.58611 0.96845 0.87086 0.0
H3047 H 0.5655 0.96118 0.86175 0.0
H3048 H 0.56813 0.95023 0.87978 0.0
H3049 H 0.52315 0.94703 0.87984 0.0
H3050 H 0.56 0.99845 0.89077 0.0
H3051 H 0.4975 0.95421 0.8516 0.0
H3052 H 0.48902 0.95215 0.87316 0.0
H3053 H 0.49713 0.9389 0.86633 0.0
H3054 H 0.5546 0.0205 0.88653 0.0
H3055 H 0.53291 0.01494 0.8848 0.0
H3056 H 0.54457 0.01729 0.86526 0.0
H3057 H 0.50509 0.00873 0.76898 0.0
H3058 H 0.46882 0.00595 0.81531 0.0
H3059 H 0.46647 0.9996 0.84597 0.0
H3060 H 0.49538 0.98307 0.88641 0.0
H3061 H 0.53427 0.98998 0.84093 0.0
H3062 H 0.53705 0.99715 0.81046 0.0
H3063 H 0.39524 0.97225 0.87624 0.0
H3064 H 0.41586 0.97869 0.8685 0.0
H3065 H 0.41205 0.99364 0.87992 0.0
C3066 C 0.01811 0.56905 0.71682 0.0
C3067 C 0.00474 0.56718 0.72981 0.0
C3068 C 0.00821 0.55829 0.75844 0.0
C3069 C 0.99177 0.54676 0.76318 0.0
C3070 C 0.98844 0.5336 0.77448 0.0
C3071 C 0.00185 0.53189 0.78091 0.0
C3072 C 0.01852 0.54383 0.77647 0.0
C3073 C 0.02149 0.55711 0.76551 0.0
C3074 C 0.97055 0.52132 0.7792 0.0
C3075 C 0.03312 0.54225 0.78279 0.0
C3076 C 0.96567 0.43456 0.71234 0.0
C3077 C 0.97619 0.43337 0.72725 0.0
C3078 C 0.97382 0.44479 0.75548 0.0
C3079 C 0.99084 0.45514 0.7599 0.0
C3080 C 0.99611 0.46876 0.77174 0.0
C3081 C 0.98409 0.47192 0.77943 0.0
C3082 C 0.96686 0.46096 0.77571 0.0
C3083 C 0.96194 0.4474 0.76387 0.0
C3084 C 0.01455 0.47997 0.77578 0.0
C3085 C 0.95371 0.46386 0.78388 0.0
C3086 C 0.9879 0.44342 0.8888 0.0
C3087 C 0.00408 0.45458 0.88286 0.0
C3088 C 0.00785 0.46992 0.87551 0.0
C3089 C 0.9952 0.47415 0.87419 0.0
C3090 C 0.97916 0.46332 0.88104 0.0
C3091 C 0.97577 0.44813 0.88842 0.0
C3092 C 0.02521 0.48143 0.86876 0.0
C3093 C 0.96545 0.46755 0.88002 0.0
C3094 C 0.04093 0.60623 0.88194 0.0
C3095 C 0.02717 0.59344 0.8937 0.0
C3096 C 0.02516 0.56619 0.89233 0.0
C3097 C 0.03617 0.56058 0.88809 0.0
C3098 C 0.03037 0.54493 0.87968 0.0
C3099 C 0.01306 0.53455 0.87585 0.0
C3100 C 0.00173 0.53972 0.8812 0.0
C3101 C 0.00792 0.55554 0.88936 0.0
C3102 C 0.04277 0.53971 0.87439 0.0
C3103 C 0.98315 0.5287 0.87788 0.0
C3104 C 0.99834 0.51695 0.79118 0.0
C3105 C 0.99303 0.50191 0.78184 0.0
C3106 C 0.9896 0.4873 0.79042 0.0
C3107 C 0.99159 0.4876 0.8089 0.0
C3108 C 0.98835 0.47314 0.81793 0.0
C3109 C 0.99047 0.47361 0.83611 0.0
C3110 C 0.99597 0.48858 0.84595 0.0
C3111 C 0.99833 0.48921 0.86442 0.0
C3112 C 0.00379 0.50427 0.87382 0.0
C3113 C 0.00699 0.51885 0.86523 0.0
C3114 C 0.00468 0.51846 0.84676 0.0
C3115 C 0.00777 0.53289 0.83769 0.0
C3116 C 0.0055 0.53238 0.81953 0.0
C3117 C 0.00031 0.51751 0.80968 0.0
C3118 C 0.99702 0.50279 0.81855 0.0
C3119 C 0.9992 0.50327 0.83711 0.0
C3120 C 0.97419 0.40219 0.88014 0.0
C3121 C 0.98896 0.41748 0.88915 0.0
O3122 O 0.01145 0.57043 0.74674 0.0
O3123 O 0.03151 0.58191 0.89926 0.0
O3124 O 0.9836 0.42818 0.89524 0.0
O3125 O 0.9685 0.43224 0.74318 0.0
H3126 H 0.99408 0.55402 0.72847 0.0
H3127 H 0.02225 0.56001 0.71996 0.0
H3128 H 0.02916 0.58195 0.71762 0.0
H3129 H 0.01296 0.56637 0.70315 0.0
H3130 H 0.98158 0.54801 0.75791 0.0
H3131 H 0.03414 0.56622 0.7618 0.0
H3132 H 0.96644 0.50912 0.77234 0.0
H3133 H 0.96191 0.52578 0.77533 0.0
H3134 H 0.96957 0.5191 0.79358 0.0
H3135 H 0.04512 0.55174 0.77691 0.0
H3136 H 0.03092 0.52954 0.77947 0.0
H3137 H 0.03436 0.54388 0.79732 0.0
H3138 H 0.98862 0.44507 0.72671 0.0
H3139 H 0.96519 0.44625 0.71406 0.0
H3140 H 0.95265 0.42375 0.71234 0.0
H3141 H 0.97136 0.43492 0.6994 0.0
H3142 H 2e-05 0.45264 0.75408 0.0
H3143 H 0.94881 0.43912 0.76062 0.0
H3144 H 0.01679 0.48092 0.79023 0.0
H3145 H 0.01878 0.49281 0.77109 0.0
H3146 H 0.02225 0.47531 0.76946 0.0
H3147 H 0.94081 0.45385 0.78014 0.0
H3148 H 0.95554 0.47611 0.77964 0.0
H3149 H 0.95505 0.46445 0.79844 0.0
H3150 H 0.99885 0.42359 0.87912 0.0
H3151 H 0.01379 0.45139 0.88398 0.0
H3152 H 0.96343 0.43957 0.89341 0.0
H3153 H 0.02464 0.48231 0.85424 0.0
H3154 H 0.034 0.47696 0.87197 0.0
H3155 H 0.03025 0.49425 0.87447 0.0
H3156 H 0.9538 0.45805 0.88645 0.0
H3157 H 0.96253 0.46841 0.86601 0.0
H3158 H 0.96976 0.48 0.8864 0.0
H3159 H 0.01549 0.5872 0.8855 0.0
H3160 H 0.03778 0.61573 0.87757 0.0
H3161 H 0.0421 0.59974 0.87008 0.0
H3162 H 0.0532 0.6127 0.88903 0.0
H3163 H 0.04943 0.5688 0.89077 0.0
H3164 H 0.99931 0.5596 0.89337 0.0
H3165 H 0.04207 0.53751 0.85992 0.0
H3166 H 0.03954 0.52772 0.88072 0.0
H3167 H 0.05583 0.54929 0.87818 0.0
H3168 H 0.97587 0.53369 0.88452 0.0
H3169 H 0.97878 0.51583 0.88255 0.0
H3170 H 0.98049 0.52775 0.86351 0.0
H3171 H 0.99159 0.50159 0.76762 0.0
H3172 H 0.98416 0.46131 0.81104 0.0
H3173 H 0.98778 0.46207 0.84233 0.0
H3174 H 0.00561 0.50465 0.88798 0.0
H3175 H 0.01197 0.54475 0.84452 0.0
H3176 H 0.00796 0.54384 0.81327 0.0
H3177 H 0.96383 0.39542 0.88954 0.0
H3178 H 0.97814 0.39346 0.87492 0.0
H3179 H 0.96945 0.40629 0.86895 0.0
C3180 C 0.57042 0.59607 0.73613 0.0
C3181 C 0.55469 0.58815 0.74634 0.0
C3182 C 0.53288 0.56052 0.75585 0.0
C3183 C 0.52277 0.56599 0.76382 0.0
C3184 C 0.5085 0.55487 0.7732 0.0
C3185 C 0.50461 0.53808 0.77525 0.0
C3186 C 0.51494 0.53262 0.7675 0.0
C3187 C 0.52879 0.54387 0.75766 0.0
C3188 C 0.49749 0.56106 0.78071 0.0
C3189 C 0.51131 0.51488 0.76942 0.0
C3190 C 0.40365 0.46133 0.70365 0.0
C3191 C 0.41271 0.45735 0.71794 0.0
C3192 C 0.42094 0.47086 0.74678 0.0
C3193 C 0.43353 0.46735 0.75118 0.0
C3194 C 0.44605 0.4774 0.7636 0.0
C3195 C 0.44617 0.49148 0.7714 0.0
C3196 C 0.43326 0.49483 0.76716 0.0
C3197 C 0.42055 0.48418 0.75518 0.0
C3198 C 0.45935 0.47315 0.76806 0.0
C3199 C 0.43312 0.50992 0.77484 0.0
C3200 C 0.4081 0.47378 0.88099 0.0
C3201 C 0.41905 0.46782 0.87746 0.0
C3202 C 0.43488 0.4784 0.87036 0.0
C3203 C 0.4397 0.49516 0.86647 0.0
C3204 C 0.42894 0.50136 0.8707 0.0
C3205 C 0.41334 0.49061 0.87816 0.0
C3206 C 0.44632 0.47157 0.86667 0.0
C3207 C 0.43371 0.5192 0.8669 0.0
C3208 C 0.55792 0.60032 0.88001 0.0
C3209 C 0.54907 0.59482 0.89772 0.0
C3210 C 0.52668 0.56606 0.88965 0.0
C3211 C 0.52274 0.54934 0.88943 0.0
C3212 C 0.50897 0.53697 0.8797 0.0
C3213 C 0.49867 0.54143 0.87023 0.0
C3214 C 0.50217 0.55822 0.87094 0.0
C3215 C 0.51623 0.57041 0.88051 0.0
C3216 C 0.50562 0.51921 0.87924 0.0
C3217 C 0.49118 0.56333 0.86138 0.0
C3218 C 0.48939 0.52609 0.7849 0.0
C3219 C 0.47537 0.51459 0.77497 0.0
C3220 C 0.4604 0.50326 0.78301 0.0
C3221 C 0.45919 0.50353 0.80155 0.0
C3222 C 0.44428 0.49247 0.81009 0.0
C3223 C 0.44304 0.49329 0.82828 0.0
C3224 C 0.45678 0.50493 0.83869 0.0
C3225 C 0.45559 0.50598 0.85719 0.0
C3226 C 0.46946 0.51784 0.86709 0.0
C3227 C 0.48462 0.5287 0.85904 0.0
C3228 C 0.48612 0.52766 0.84061 0.0
C3229 C 0.50131 0.53812 0.83213 0.0
C3230 C 0.50249 0.53745 0.81393 0.0
C3231 C 0.48852 0.52635 0.80347 0.0
C3232 C 0.47328 0.51523 0.81179 0.0
C3233 C 0.47208 0.51589 0.83039 0.0
C3234 C 0.3647 0.44355 0.87792 0.0
C3235 C 0.38216 0.44681 0.88273 0.0
O3236 O 0.54649 0.57077 0.7462 0.0
O3237 O 0.54066 0.57746 0.89873 0.0
O3238 O 0.39241 0.46368 0.88704 0.0
O3239 O 0.40923 0.46179 0.7342 0.0
H3240 H 0.54627 0.59319 0.7435 0.0
H3241 H 0.56997 0.58591 0.72733 0.0
H3242 H 0.58907 0.60891 0.75537 0.0
H3243 H 0.5681 0.60267 0.7251 0.0
H3244 H 0.5257 0.57883 0.76252 0.0
H3245 H 0.53664 0.53975 0.75147 0.0
H3246 H 0.48411 0.55196 0.77767 0.0
H3247 H 0.50065 0.57348 0.77552 0.0
H3248 H 0.49906 0.5623 0.79524 0.0
H3249 H 0.5221 0.51351 0.7655 0.0
H3250 H 0.50042 0.50637 0.76088 0.0
H3251 H 0.50806 0.51078 0.78322 0.0
H3252 H 0.42638 0.46508 0.71528 0.0
H3253 H 0.40647 0.4582 0.6904 0.0
H3254 H 0.40789 0.47492 0.70418 0.0
H3255 H 0.38989 0.45409 0.70558 0.0
H3256 H 0.43357 0.45677 0.74488 0.0
H3257 H 0.41066 0.48666 0.75171 0.0
H3258 H 0.46177 0.47423 0.78249 0.0
H3259 H 0.47119 0.48218 0.76162 0.0
H3260 H 0.4558 0.46029 0.76347 0.0
H3261 H 0.42342 0.51188 0.76852 0.0
H3262 H 0.44554 0.52141 0.77328 0.0
H3263 H 0.43058 0.50823 0.78913 0.0
H3264 H 0.38685 0.44343 0.87078 0.0
H3265 H 0.41525 0.45493 0.88024 0.0
H3266 H 0.40488 0.49513 0.88121 0.0
H3267 H 0.44727 0.47033 0.85223 0.0
H3268 H 0.44172 0.45908 0.87255 0.0
H3269 H 0.45911 0.48038 0.87192 0.0
H3270 H 0.42357 0.52182 0.87017 0.0
H3271 H 0.43674 0.52177 0.85277 0.0
H3272 H 0.44509 0.52799 0.87469 0.0
H3273 H 0.54006 0.59933 0.89916 0.0
H3274 H 0.56476 0.61422 0.87917 0.0
H3275 H 0.54868 0.59512 0.86896 0.0
H3276 H 0.56694 0.59585 0.87839 0.0
H3277 H 0.5308 0.54609 0.89662 0.0
H3278 H 0.51893 0.58323 0.88071 0.0
H3279 H 0.5052 0.51497 0.86539 0.0
H3280 H 0.49322 0.51073 0.88503 0.0
H3281 H 0.51529 0.51795 0.88663 0.0
H3282 H 0.49424 0.57626 0.86512 0.0
H3283 H 0.4778 0.5545 0.86421 0.0
H3284 H 0.49282 0.5628 0.84698 0.0
H3285 H 0.4761 0.51452 0.76071 0.0
H3286 H 0.43332 0.48319 0.80278 0.0
H3287 H 0.43112 0.48466 0.83405 0.0
H3288 H 0.46839 0.51875 0.88123 0.0
H3289 H 0.51244 0.54702 0.83947 0.0
H3290 H 0.51447 0.54585 0.80813 0.0
H3291 H 0.35626 0.4301 0.87429 0.0
H3292 H 0.36547 0.45121 0.86646 0.0
H3293 H 0.35926 0.44696 0.88912 0.0
C3294 C 0.61679 0.74825 0.62562 0.0
C3295 C 0.62462 0.74501 0.60938 0.0
C3296 C 0.63204 0.76959 0.59119 0.0
C3297 C 0.61554 0.7652 0.58669 0.0
C3298 C 0.61234 0.77586 0.57658 0.0
C3299 C 0.62589 0.79103 0.5705 0.0
C3300 C 0.64251 0.79531 0.57464 0.0
C3301 C 0.64534 0.78455 0.58502 0.0
C3302 C 0.59444 0.77099 0.57257 0.0
C3303 C 0.65726 0.8113 0.5682 0.0
C3304 C 0.60652 0.88971 0.59695 0.0
C3305 C 0.62182 0.89043 0.60575 0.0
C3306 C 0.62805 0.87261 0.58645 0.0
C3307 C 0.63974 0.87293 0.57475 0.0
C3308 C 0.63741 0.8582 0.56657 0.0
C3309 C 0.62272 0.84274 0.56992 0.0
C3310 C 0.6109 0.84223 0.58197 0.0
C3311 C 0.61375 0.85716 0.59028 0.0
C3312 C 0.65059 0.85923 0.55421 0.0
C3313 C 0.59513 0.82595 0.58583 0.0
C3314 C 0.58953 0.85019 0.46299 0.0
C3315 C 0.60635 0.85551 0.46681 0.0
C3316 C 0.61084 0.84445 0.47404 0.0
C3317 C 0.59818 0.8279 0.47801 0.0
C3318 C 0.5813 0.82234 0.47348 0.0
C3319 C 0.57725 0.83353 0.46573 0.0
C3320 C 0.62908 0.8506 0.47783 0.0
C3321 C 0.56748 0.80477 0.47734 0.0
C3322 C 0.60949 0.7221 0.46725 0.0
C3323 C 0.60752 0.72823 0.44924 0.0
C3324 C 0.6135 0.75671 0.45761 0.0
C3325 C 0.6263 0.77348 0.4583 0.0
C3326 C 0.62446 0.78563 0.46762 0.0
C3327 C 0.60925 0.78086 0.47624 0.0
C3328 C 0.59597 0.764 0.4751 0.0
C3329 C 0.59825 0.75204 0.46586 0.0
C3330 C 0.63888 0.8035 0.46854 0.0
C3331 C 0.57949 0.75861 0.48388 0.0
C3332 C 0.6226 0.80259 0.5602 0.0
C3333 C 0.62333 0.8163 0.56909 0.0
C3334 C 0.61969 0.8273 0.56039 0.0
C3335 C 0.61452 0.82421 0.54251 0.0
C3336 C 0.60956 0.83429 0.53374 0.0
C3337 C 0.60518 0.83161 0.51596 0.0
C3338 C 0.60596 0.81898 0.50616 0.0
C3339 C 0.60246 0.81677 0.48784 0.0
C3340 C 0.60332 0.80407 0.47855 0.0
C3341 C 0.60759 0.79343 0.48706 0.0
C3342 C 0.6111 0.79542 0.50537 0.0
C3343 C 0.6155 0.78497 0.51434 0.0
C3344 C 0.6191 0.78716 0.53233 0.0
C3345 C 0.6187 0.80005 0.54198 0.0
C3346 C 0.61446 0.81081 0.53316 0.0
C3347 C 0.61042 0.80834 0.5149 0.0
C3348 C 0.57804 0.88177 0.46379 0.0
C3349 C 0.59194 0.87763 0.4615 0.0
O3350 O 0.63575 0.76 0.60156 0.0
O3351 O 0.61658 0.74561 0.44894 0.0
O3352 O 0.58474 0.86081 0.45675 0.0
O3353 O 0.63107 0.88752 0.59344 0.0
H3354 H 0.61453 0.73681 0.59978 0.0
H3355 H 0.60941 0.75416 0.62188 0.0
H3356 H 0.62664 0.75674 0.63526 0.0
H3357 H 0.60822 0.73623 0.63209 0.0
H3358 H 0.60505 0.75361 0.59115 0.0
H3359 H 0.65802 0.78782 0.58847 0.0
H3360 H 0.59231 0.78137 0.57651 0.0
H3361 H 0.5853 0.75946 0.57945 0.0
H3362 H 0.59197 0.76876 0.55819 0.0
H3363 H 0.66937 0.81199 0.57106 0.0
H3364 H 0.65743 0.82224 0.57467 0.0
H3365 H 0.65605 0.81231 0.55378 0.0
H3366 H 0.61759 0.88084 0.61616 0.0
H3367 H 0.59937 0.89244 0.60683 0.0
H3368 H 0.59803 0.87707 0.59113 0.0
H3369 H 0.61043 0.89899 0.58628 0.0
H3370 H 0.65078 0.88487 0.57199 0.0
H3371 H 0.60465 0.85663 0.59948 0.0
H3372 H 0.64575 0.85721 0.54046 0.0
H3373 H 0.65356 0.84927 0.55709 0.0
H3374 H 0.66233 0.87161 0.55515 0.0
H3375 H 0.58659 0.82781 0.59455 0.0
H3376 H 0.59845 0.81732 0.5923 0.0
H3377 H 0.58835 0.81976 0.57335 0.0
H3378 H 0.59848 0.88008 0.47451 0.0
H3379 H 0.61596 0.86829 0.46416 0.0
H3380 H 0.56434 0.82952 0.46245 0.0
H3381 H 0.63164 0.85317 0.49217 0.0
H3382 H 0.63745 0.86233 0.4708 0.0
H3383 H 0.63223 0.8409 0.47396 0.0
H3384 H 0.55489 0.80275 0.47402 0.0
H3385 H 0.56785 0.80215 0.4915 0.0
H3386 H 0.56938 0.79559 0.46962 0.0
H3387 H 0.59407 0.72365 0.44645 0.0
H3388 H 0.60247 0.70817 0.4674 0.0
H3389 H 0.60446 0.72667 0.47779 0.0
H3390 H 0.62291 0.72675 0.47026 0.0
H3391 H 0.63796 0.77697 0.45177 0.0
H3392 H 0.58812 0.73914 0.46522 0.0
H3393 H 0.64241 0.80756 0.48251 0.0
H3394 H 0.63501 0.81192 0.46261 0.0
H3395 H 0.65007 0.80505 0.46155 0.0
H3396 H 0.56991 0.74541 0.48048 0.0
H3397 H 0.57465 0.76691 0.47998 0.0
H3398 H 0.5814 0.75985 0.49839 0.0
H3399 H 0.62698 0.81857 0.5829 0.0
H3400 H 0.60898 0.84436 0.54053 0.0
H3401 H 0.60141 0.83974 0.50995 0.0
H3402 H 0.60084 0.80258 0.46446 0.0
H3403 H 0.6162 0.77496 0.50758 0.0
H3404 H 0.62242 0.77876 0.53853 0.0
H3405 H 0.58341 0.89512 0.46798 0.0
H3406 H 0.56928 0.87376 0.47407 0.0
H3407 H 0.57087 0.87947 0.45127 0.0
C3408 C 0.12769 0.73812 0.65188 0.0
C3409 C 0.12194 0.74568 0.63763 0.0
C3410 C 0.13559 0.75478 0.60941 0.0
C3411 C 0.13146 0.767 0.60542 0.0
C3412 C 0.14099 0.77965 0.59345 0.0
C3413 C 0.15512 0.78025 0.58563 0.0
C3414 C 0.15912 0.76773 0.58948 0.0
C3415 C 0.14901 0.7549 0.60102 0.0
C3416 C 0.13613 0.79257 0.58944 0.0
C3417 C 0.17434 0.76815 0.58184 0.0
C3418 C 0.2623 0.90539 0.62185 0.0
C3419 C 0.25278 0.88805 0.61429 0.0
C3420 C 0.22474 0.86789 0.60306 0.0
C3421 C 0.22919 0.85651 0.59612 0.0
C3422 C 0.21747 0.84206 0.58671 0.0
C3423 C 0.20105 0.83905 0.58392 0.0
C3424 C 0.19653 0.85045 0.59089 0.0
C3425 C 0.20844 0.86469 0.60047 0.0
C3426 C 0.22266 0.83001 0.57973 0.0
C3427 C 0.17914 0.84762 0.58813 0.0
C3428 C 0.22493 0.86126 0.46859 0.0
C3429 C 0.23047 0.85241 0.4788 0.0
C3430 C 0.21915 0.83857 0.4886 0.0
C3431 C 0.20203 0.83386 0.48873 0.0
C3432 C 0.19644 0.8428 0.47852 0.0
C3433 C 0.20795 0.85624 0.4684 0.0
C3434 C 0.22552 0.82897 0.49876 0.0
C3435 C 0.17833 0.83823 0.47838 0.0
C3436 C 0.11276 0.69808 0.46438 0.0
C3437 C 0.11525 0.71573 0.46526 0.0
C3438 C 0.14057 0.74247 0.47263 0.0
C3439 C 0.15754 0.74918 0.47653 0.0
C3440 C 0.16678 0.76461 0.48557 0.0
C3441 C 0.1589 0.77378 0.49031 0.0
C3442 C 0.14187 0.7674 0.48569 0.0
C3443 C 0.1328 0.75167 0.47708 0.0
C3444 C 0.18492 0.771 0.49019 0.0
C3445 C 0.13327 0.77716 0.48989 0.0
C3446 C 0.16638 0.79465 0.57454 0.0
C3447 C 0.17757 0.80976 0.58317 0.0
C3448 C 0.18865 0.82389 0.57378 0.0
C3449 C 0.18849 0.82312 0.55519 0.0
C3450 C 0.19906 0.83729 0.54532 0.0
C3451 C 0.1993 0.83625 0.52706 0.0
C3452 C 0.18916 0.82095 0.51796 0.0
C3453 C 0.18997 0.81956 0.49947 0.0
C3454 C 0.17965 0.80415 0.49087 0.0
C3455 C 0.16853 0.78997 0.50021 0.0
C3456 C 0.16752 0.79112 0.51872 0.0
C3457 C 0.15646 0.77712 0.52857 0.0
C3458 C 0.15573 0.77834 0.5468 0.0
C3459 C 0.16642 0.79345 0.55594 0.0
C3460 C 0.17756 0.80776 0.54625 0.0
C3461 C 0.17799 0.80663 0.52762 0.0
C3462 C 0.26077 0.89581 0.44567 0.0
C3463 C 0.25278 0.88332 0.45981 0.0
O3464 O 0.12694 0.74282 0.62141 0.0
O3465 O 0.13224 0.72721 0.46437 0.0
O3466 O 0.23544 0.87451 0.45866 0.0
O3467 O 0.23578 0.88204 0.6122 0.0
H3468 H 0.12817 0.75941 0.64061 0.0
H3469 H 0.14151 0.7439 0.65154 0.0
H3470 H 0.12184 0.72435 0.6497 0.0
H3471 H 0.12427 0.74059 0.66513 0.0
H3472 H 0.12079 0.76662 0.61165 0.0
H3473 H 0.15197 0.74529 0.60414 0.0
H3474 H 0.14529 0.80471 0.59587 0.0
H3475 H 0.12346 0.78886 0.5943 0.0
H3476 H 0.13644 0.79456 0.57504 0.0
H3477 H 0.17682 0.75873 0.58785 0.0
H3478 H 0.18557 0.78079 0.58384 0.0
H3479 H 0.17245 0.76552 0.56746 0.0
H3480 H 0.25553 0.87887 0.62059 0.0
H3481 H 0.26727 0.9041 0.63492 0.0
H3482 H 0.25282 0.90817 0.62779 0.0
H3483 H 0.278 0.91934 0.60139 0.0
H3484 H 0.24174 0.85876 0.59805 0.0
H3485 H 0.20512 0.87352 0.60587 0.0
H3486 H 0.21358 0.81704 0.58381 0.0
H3487 H 0.23537 0.83332 0.58441 0.0
H3488 H 0.22259 0.83005 0.56512 0.0
H3489 H 0.17797 0.85829 0.59324 0.0
H3490 H 0.16998 0.83607 0.59493 0.0
H3491 H 0.1758 0.84569 0.57388 0.0
H3492 H 0.25757 0.88806 0.47344 0.0
H3493 H 0.24357 0.85609 0.47902 0.0
H3494 H 0.20378 0.8631 0.46044 0.0
H3495 H 0.22567 0.83173 0.51304 0.0
H3496 H 0.23841 0.83239 0.49494 0.0
H3497 H 0.21712 0.81525 0.49661 0.0
H3498 H 0.17633 0.84749 0.47126 0.0
H3499 H 0.17387 0.83737 0.49208 0.0
H3500 H 0.17056 0.82573 0.4719 0.0
H3501 H 0.1104 0.71712 0.47819 0.0
H3502 H 0.09933 0.68846 0.46579 0.0
H3503 H 0.11991 0.69656 0.47526 0.0
H3504 H 0.11727 0.69587 0.45165 0.0
H3505 H 0.16344 0.74204 0.47282 0.0
H3506 H 0.11974 0.74673 0.47367 0.0
H3507 H 0.18729 0.77441 0.50443 0.0
H3508 H 0.19299 0.7825 0.4827 0.0
H3509 H 0.1887 0.76161 0.4871 0.0
H3510 H 0.12069 0.77149 0.48352 0.0
H3511 H 0.14101 0.79031 0.48552 0.0
H3512 H 0.1318 0.77757 0.50434 0.0
H3513 H 0.17783 0.81047 0.59745 0.0
H3514 H 0.20732 0.84935 0.55163 0.0
H3515 H 0.2077 0.84757 0.52017 0.0
H3516 H 0.18052 0.80311 0.47671 0.0
H3517 H 0.14822 0.76505 0.52231 0.0
H3518 H 0.14688 0.7672 0.55366 0.0
H3519 H 0.274 0.88686 0.43129 0.0
H3520 H 0.26714 0.90837 0.45276 0.0
H3521 H 0.25066 0.89758 0.43957 0.0
C3522 C 0.13718 0.38033 0.63515 0.0
C3523 C 0.12505 0.37475 0.61932 0.0
C3524 C 0.14016 0.36751 0.59761 0.0
C3525 C 0.15269 0.38407 0.59403 0.0
C3526 C 0.1664 0.38728 0.58357 0.0
C3527 C 0.16763 0.37371 0.57653 0.0
C3528 C 0.15481 0.35705 0.57961 0.0
C3529 C 0.14119 0.35419 0.59005 0.0
C3530 C 0.17981 0.40521 0.58039 0.0
C3531 C 0.15573 0.3423 0.57225 0.0
C3532 C 0.25372 0.3874 0.65391 0.0
C3533 C 0.25102 0.37693 0.63711 0.0
C3534 C 0.24666 0.386 0.60868 0.0
C3535 C 0.23514 0.37031 0.60117 0.0
C3536 C 0.22422 0.369 0.58756 0.0
C3537 C 0.22483 0.38367 0.58145 0.0
C3538 C 0.23708 0.39958 0.58835 0.0
C3539 C 0.24804 0.40053 0.60174 0.0
C3540 C 0.21162 0.35188 0.58017 0.0
C3541 C 0.23804 0.41548 0.5822 0.0
C3542 C 0.26525 0.40403 0.47127 0.0
C3543 C 0.25385 0.38714 0.47481 0.0
C3544 C 0.2383 0.38241 0.48235 0.0
C3545 C 0.23421 0.39486 0.48662 0.0
C3546 C 0.24548 0.4118 0.48251 0.0
C3547 C 0.26077 0.41611 0.47466 0.0
C3548 C 0.22632 0.36414 0.48592 0.0
C3549 C 0.24148 0.42539 0.4867 0.0
C3550 C 0.1185 0.3845 0.47103 0.0
C3551 C 0.12606 0.38441 0.45315 0.0
C3552 C 0.14758 0.37776 0.4624 0.0
C3553 C 0.15074 0.36459 0.46408 0.0
C3554 C 0.16463 0.36667 0.47374 0.0
C3555 C 0.17575 0.38244 0.48174 0.0
C3556 C 0.17305 0.39605 0.47949 0.0
C3557 C 0.15895 0.39357 0.4699 0.0
C3558 C 0.16719 0.35192 0.4758 0.0
C3559 C 0.18486 0.41311 0.48759 0.0
C3560 C 0.18294 0.37698 0.5671 0.0
C3561 C 0.19635 0.37868 0.57723 0.0
C3562 C 0.2114 0.38219 0.56951 0.0
C3563 C 0.21327 0.38418 0.55111 0.0
C3564 C 0.2283 0.38792 0.54291 0.0
C3565 C 0.23005 0.39007 0.5248 0.0
C3566 C 0.21673 0.38823 0.51413 0.0
C3567 C 0.21833 0.39026 0.49568 0.0
C3568 C 0.2048 0.38828 0.48551 0.0
C3569 C 0.18964 0.38441 0.49326 0.0
C3570 C 0.18783 0.38244 0.51168 0.0
C3571 C 0.17277 0.37863 0.51991 0.0
C3572 C 0.17114 0.37688 0.53806 0.0
C3573 C 0.18446 0.3787 0.54866 0.0
C3574 C 0.19971 0.38239 0.54064 0.0
C3575 C 0.20142 0.38433 0.52213 0.0
C3576 C 0.30816 0.41596 0.47272 0.0
C3577 C 0.29036 0.40199 0.46799 0.0
O3578 O 0.12711 0.36377 0.60842 0.0
O3579 O 0.13337 0.37452 0.45365 0.0
O3580 O 0.28061 0.4091 0.46458 0.0
O3581 O 0.25634 0.38748 0.62283 0.0
H3582 H 0.12743 0.38595 0.61179 0.0
H3583 H 0.15035 0.38729 0.63077 0.0
H3584 H 0.13529 0.36928 0.64263 0.0
H3585 H 0.13519 0.38878 0.64407 0.0
H3586 H 0.15205 0.39458 0.59951 0.0
H3587 H 0.13144 0.34147 0.59274 0.0
H3588 H 0.19176 0.40774 0.58663 0.0
H3589 H 0.17651 0.41437 0.5858 0.0
H3590 H 0.18196 0.40721 0.56605 0.0
H3591 H 0.14444 0.33011 0.57531 0.0
H3592 H 0.16693 0.34248 0.57778 0.0
H3593 H 0.15712 0.34327 0.55774 0.0
H3594 H 0.23731 0.36778 0.63608 0.0
H3595 H 0.24951 0.37921 0.66557 0.0
H3596 H 0.24633 0.39379 0.65306 0.0
H3597 H 0.26715 0.3971 0.65574 0.0
H3598 H 0.23452 0.35909 0.60612 0.0
H3599 H 0.25719 0.41259 0.60747 0.0
H3600 H 0.21145 0.35204 0.56556 0.0
H3601 H 0.19893 0.34849 0.58469 0.0
H3602 H 0.21431 0.34204 0.58444 0.0
H3603 H 0.24834 0.42686 0.58886 0.0
H3604 H 0.22602 0.41498 0.58481 0.0
H3605 H 0.24002 0.4166 0.56778 0.0
H3606 H 0.28566 0.39386 0.47972 0.0
H3607 H 0.25703 0.37765 0.47162 0.0
H3608 H 0.26957 0.42907 0.47161 0.0
H3609 H 0.22512 0.36227 0.50035 0.0
H3610 H 0.23055 0.35584 0.48013 0.0
H3611 H 0.21369 0.3603 0.4805 0.0
H3612 H 0.25201 0.43809 0.48367 0.0
H3613 H 0.23843 0.42512 0.50085 0.0
H3614 H 0.2303 0.42307 0.47893 0.0
H3615 H 0.13563 0.39745 0.44972 0.0
H3616 H 0.11235 0.39214 0.47049 0.0
H3617 H 0.1091 0.37151 0.47478 0.0
H3618 H 0.12838 0.39005 0.48145 0.0
H3619 H 0.14199 0.35249 0.45812 0.0
H3620 H 0.15688 0.404 0.4685 0.0
H3621 H 0.16703 0.34911 0.48998 0.0
H3622 H 0.17964 0.3551 0.4707 0.0
H3623 H 0.15741 0.34048 0.46872 0.0
H3624 H 0.18185 0.42275 0.48341 0.0
H3625 H 0.19794 0.4172 0.4839 0.0
H3626 H 0.1842 0.41236 0.50216 0.0
H3627 H 0.19506 0.37732 0.59139 0.0
H3628 H 0.23891 0.38935 0.55046 0.0
H3629 H 0.24198 0.39312 0.51925 0.0
H3630 H 0.2061 0.38984 0.47137 0.0
H3631 H 0.16206 0.37701 0.51243 0.0
H3632 H 0.1593 0.37404 0.54368 0.0
H3633 H 0.31623 0.41057 0.47561 0.0
H3634 H 0.30796 0.42298 0.48463 0.0
H3635 H 0.31367 0.42489 0.46177 0.0
C3636 C 0.00684 0.40367 0.08752 0.0
C3637 C 0.99409 0.38677 0.08603 0.0
H3638 H 0.01909 0.42581 0.10382 0.0
C3639 C 0.98317 0.37941 0.10013 0.0
H3640 H 0.01566 0.40955 0.07699 0.0
C3641 C 0.98499 0.3888 0.11546 0.0
C3642 C 0.99782 0.40568 0.11699 0.0
H3643 H 0.97328 0.36638 0.09933 0.0
H3644 H 0.97656 0.38281 0.12626 0.0
C3645 C 0.0088 0.41297 0.10289 0.0
C3646 C 0.60252 0.57443 0.07923 0.0
C3647 C 0.61903 0.58007 0.0741 0.0
H3648 H 0.58215 0.55789 0.09538 0.0
C3649 C 0.62764 0.57262 0.08127 0.0
H3650 H 0.59572 0.58018 0.07411 0.0
C3651 C 0.61976 0.5596 0.0932 0.0
C3652 C 0.60319 0.55387 0.0983 0.0
H3653 H 0.64041 0.57679 0.07754 0.0
H3654 H 0.62666 0.55406 0.0986 0.0
C3655 C 0.59475 0.56163 0.09137 0.0
C3656 C 0.40604 0.01342 0.08223 0.0
C3657 C 0.40261 0.02641 0.07976 0.0
H3658 H 0.41834 0.00379 0.09794 0.0
C3659 C 0.40959 0.04022 0.09154 0.0
H3660 H 0.40053 0.00247 0.07352 0.0
C3661 C 0.42006 0.04114 0.10537 0.0
C3662 C 0.42363 0.02821 0.10778 0.0
H3663 H 0.40705 0.05035 0.08994 0.0
H3664 H 0.42534 0.05193 0.11428 0.0
C3665 C 0.41625 0.01419 0.09621 0.0
C3666 C 0.39883 0.99328 0.93424 0.0
C3667 C 0.38259 0.9799 0.93728 0.0
H3668 H 0.42103 0.00255 0.91905 0.0
C3669 C 0.37638 0.9651 0.92707 0.0
H3670 H 0.40379 0.00496 0.9417 0.0
C3671 C 0.38637 0.96359 0.91427 0.0
C3672 C 0.40272 0.97689 0.91138 0.0
H3673 H 0.36388 0.95463 0.92911 0.0
H3674 H 0.38133 0.95205 0.90655 0.0
C3675 C 0.40871 0.99188 0.9213 0.0
C3676 C 0.99404 0.40343 0.93463 0.0
C3677 C 0.00578 0.39839 0.93139 0.0
H3678 H 0.97935 0.41314 0.92393 0.0
C3679 C 0.01257 0.4004 0.91452 0.0
H3680 H 0.98833 0.40169 0.94741 0.0
C3681 C 0.00756 0.40715 0.90108 0.0
C3682 C 0.99562 0.41194 0.90425 0.0
H3683 H 0.0216 0.39656 0.91166 0.0
H3684 H 0.01272 0.40826 0.88808 0.0
C3685 C 0.98889 0.40997 0.92117 0.0
C3686 C 0.58088 0.60141 0.93395 0.0
C3687 C 0.58663 0.61807 0.93935 0.0
H3688 H 0.56493 0.58111 0.91644 0.0
C3689 C 0.58008 0.62705 0.93116 0.0
H3690 H 0.58595 0.59432 0.9399 0.0
C3691 C 0.56775 0.61938 0.91797 0.0
C3692 C 0.56188 0.60266 0.9126 0.0
H3693 H 0.58437 0.63993 0.93509 0.0
H3694 H 0.56285 0.62654 0.91184 0.0
C3695 C 0.5688 0.59385 0.92055 0.0
C3696 C 0.03513 0.61872 0.93662 0.0
C3697 C 0.02061 0.61991 0.93776 0.0
H3698 H 0.0485 0.60935 0.92196 0.0
C3699 C 0.00805 0.61184 0.9247 0.0
H3700 H 0.04512 0.62489 0.94635 0.0
C3701 C 0.01009 0.60313 0.91067 0.0
C3702 C 0.02466 0.60211 0.90945 0.0
H3703 H 0.99655 0.61217 0.92532 0.0
H3704 H 0.00028 0.59725 0.90072 0.0
C3705 C 0.03712 0.60989 0.92263 0.0
C3706 C 0.37871 0.41013 0.90843 0.0
C3707 C 0.37584 0.41384 0.92562 0.0
H3708 H 0.38307 0.41768 0.88155 0.0
C3709 C 0.37607 0.42898 0.92889 0.0
H3710 H 0.37883 0.39869 0.9055 0.0
C3711 C 0.37866 0.43991 0.91519 0.0
C3712 C 0.38118 0.436 0.89794 0.0
H3713 H 0.37368 0.43211 0.94193 0.0
H3714 H 0.37827 0.45123 0.91796 0.0
C3715 C 0.38129 0.42106 0.89474 0.0
C3716 C 0.5857 0.96665 0.93074 0.0
C3717 C 0.60082 0.98187 0.93354 0.0
H3718 H 0.56421 0.95233 0.91392 0.0
C3719 C 0.6055 0.99473 0.92134 0.0
H3720 H 0.58183 0.95642 0.93976 0.0
C3721 C 0.59545 0.99235 0.90655 0.0
C3722 C 0.58043 0.9771 0.90368 0.0
H3723 H 0.61692 0.00671 0.92323 0.0
H3724 H 0.59951 0.0024 0.89726 0.0
C3725 C 0.57564 0.96428 0.91594 0.0
C3726 C 0.61213 0.01334 0.10246 0.0
C3727 C 0.6192 0.02459 0.08856 0.0
H3728 H 0.59879 0.00769 0.12667 0.0
C3729 C 0.61762 0.03894 0.08843 0.0
H3730 H 0.61291 0.00205 0.10285 0.0
C3731 C 0.60936 0.04206 0.10201 0.0
C3732 C 0.60238 0.03083 0.11593 0.0
H3733 H 0.62309 0.04795 0.07803 0.0
H3734 H 0.60863 0.05338 0.1018 0.0
C3735 C 0.60389 0.01647 0.11601 0.0
C3736 C 0.9612 0.58143 0.09004 0.0
C3737 C 0.97375 0.58708 0.07727 0.0
H3738 H 0.94719 0.56279 0.10922 0.0
C3739 C 0.98232 0.57832 0.07464 0.0
H3740 H 0.95426 0.58781 0.09223 0.0
C3741 C 0.97825 0.56407 0.08426 0.0
C3742 C 0.96563 0.5583 0.09693 0.0
H3743 H 0.99221 0.58247 0.0651 0.0
H3744 H 0.9849 0.55744 0.08168 0.0
C3745 C 0.95712 0.56711 0.09971 0.0
C3746 C 0.41077 0.37107 0.09139 0.0
C3747 C 0.4175 0.37401 0.07438 0.0
H3748 H 0.41485 0.36952 0.1189 0.0
C3749 C 0.43432 0.37835 0.07247 0.0
H3750 H 0.39778 0.36729 0.09341 0.0
C3751 C 0.44401 0.37934 0.08713 0.0
C3752 C 0.43719 0.37633 0.10408 0.0
H3753 H 0.43999 0.38086 0.05962 0.0
H3754 H 0.45675 0.38221 0.08515 0.0
C3755 C 0.42051 0.37226 0.10603 0.0
C3756 C 0.6364 0.72384 0.41656 0.0
C3757 C 0.62584 0.70776 0.40927 0.0
H3758 H 0.63919 0.74273 0.43506 0.0
C3759 C 0.60933 0.69831 0.41518 0.0
H3760 H 0.64928 0.73124 0.41244 0.0
C3761 C 0.60338 0.70503 0.42791 0.0
C3762 C 0.61388 0.72125 0.43505 0.0
H3763 H 0.601 0.68583 0.4098 0.0
H3764 H 0.59058 0.69757 0.43224 0.0
C3765 C 0.63058 0.73042 0.42947 0.0
C3766 C 0.25933 0.88902 0.41445 0.0
C3767 C 0.27886 0.90775 0.4204 0.0
H3768 H 0.23784 0.86065 0.42605 0.0
C3769 C 0.29055 0.90914 0.44011 0.0
H3770 H 0.25296 0.88841 0.40225 0.0
C3771 C 0.28244 0.89215 0.45532 0.0
C3772 C 0.26031 0.87547 0.45094 0.0
H3773 H 0.30254 0.92027 0.44285 0.0
H3774 H 0.28861 0.89346 0.46786 0.0
C3775 C 0.25014 0.87136 0.42878 0.0
C3776 C 0.08937 0.35398 0.42331 0.0
C3777 C 0.08594 0.36496 0.41407 0.0
H3778 H 0.10446 0.3514 0.44302 0.0
C3779 C 0.09577 0.3823 0.41756 0.0
H3780 H 0.08181 0.34054 0.42109 0.0
C3781 C 0.10886 0.38854 0.42996 0.0
C3782 C 0.1124 0.37757 0.4391 0.0
H3783 H 0.09343 0.39105 0.41058 0.0
H3784 H 0.11621 0.40195 0.43248 0.0
C3785 C 0.10234 0.3602 0.43583 0.0
C3786 C 0.0491 0.29614 0.261 0.0
C3787 C 0.04047 0.28646 0.27555 0.0
H3788 H 0.06251 0.29785 0.23754 0.0
C3789 C 0.03862 0.27048 0.27724 0.0
H3790 H 0.05094 0.30858 0.25941 0.0
C3791 C 0.0454 0.2644 0.26475 0.0
C3792 C 0.05429 0.27424 0.25041 0.0
H3793 H 0.03185 0.26264 0.28816 0.0
H3794 H 0.04377 0.25205 0.26635 0.0
C3795 C 0.05587 0.29008 0.24856 0.0
C3796 C 0.6926 0.75906 0.27283 0.0
C3797 C 0.7028 0.75241 0.27715 0.0
H3798 H 0.68976 0.77676 0.25765 0.0
C3799 C 0.71859 0.7591 0.26945 0.0
H3800 H 0.68026 0.75393 0.27839 0.0
C3801 C 0.72421 0.77242 0.25784 0.0
C3802 C 0.71409 0.77921 0.25362 0.0
H3803 H 0.72667 0.75416 0.27258 0.0
H3804 H 0.73644 0.77738 0.25206 0.0
C3805 C 0.69808 0.77217 0.26101 0.0
C3806 C 0.24488 0.93958 0.27438 0.0
C3807 C 0.24689 0.95292 0.28526 0.0
H3808 H 0.2323 0.92355 0.25209 0.0
C3809 C 0.23714 0.96028 0.28184 0.0
H3810 H 0.25248 0.9339 0.27649 0.0
C3811 C 0.2254 0.9542 0.26798 0.0
C3812 C 0.22322 0.94068 0.25725 0.0
H3813 H 0.23846 0.97061 0.29001 0.0
H3814 H 0.21803 0.96009 0.26558 0.0
C3815 C 0.23331 0.93364 0.26043 0.0
C3816 C 0.727 0.9544 0.27927 0.0
C3817 C 0.71512 0.9594 0.27668 0.0
H3818 H 0.74633 0.95116 0.26793 0.0
C3819 C 0.71335 0.96442 0.25979 0.0
H3820 H 0.72862 0.95033 0.29204 0.0
C3821 C 0.72321 0.9645 0.24593 0.0
C3822 C 0.73515 0.95966 0.24856 0.0
H3823 H 0.70469 0.96879 0.25734 0.0
H3824 H 0.72179 0.96876 0.23319 0.0
C3825 C 0.73702 0.95467 0.26541 0.0
C3826 C 0.05002 0.77986 0.27253 0.0
C3827 C 0.04413 0.76262 0.27007 0.0
H3828 H 0.05512 0.80284 0.26075 0.0
C3829 C 0.03973 0.75565 0.25292 0.0
H3830 H 0.05373 0.78575 0.28548 0.0
C3831 C 0.04098 0.76558 0.23869 0.0
C3832 C 0.04655 0.78269 0.24122 0.0
H3833 H 0.03479 0.74238 0.25049 0.0
H3834 H 0.03712 0.75976 0.22571 0.0
C3835 C 0.05103 0.78974 0.25831 0.0
C3836 C 0.23402 0.27868 0.27796 0.0
C3837 C 0.24941 0.29325 0.27471 0.0
H3838 H 0.21127 0.25837 0.26685 0.0
C3839 C 0.25296 0.29924 0.25746 0.0
H3840 H 0.23101 0.27366 0.29108 0.0
C3841 C 0.24168 0.29053 0.24366 0.0
C3842 C 0.22654 0.2757 0.2468 0.0
H3843 H 0.26464 0.31052 0.25456 0.0
H3844 H 0.24499 0.29516 0.23042 0.0
C3845 C 0.22273 0.26993 0.26412 0.0
C3846 C 0.29168 0.36797 0.44027 0.0
C3847 C 0.29481 0.3748 0.42336 0.0
H3848 H 0.28773 0.37114 0.46747 0.0
C3849 C 0.29526 0.39007 0.42091 0.0
H3850 H 0.29102 0.35612 0.44256 0.0
C3851 C 0.29321 0.39858 0.43518 0.0
C3852 C 0.29056 0.39195 0.45216 0.0
H3853 H 0.29784 0.39578 0.40811 0.0
H3854 H 0.29419 0.4106 0.43305 0.0
C3855 C 0.28965 0.37648 0.45451 0.0
C3856 C 0.62822 0.91565 0.44033 0.0
C3857 C 0.62493 0.91163 0.4223 0.0
H3858 H 0.62047 0.90794 0.46673 0.0
C3859 C 0.61136 0.89588 0.41713 0.0
H3860 H 0.63863 0.92767 0.44469 0.0
C3861 C 0.60096 0.88462 0.42973 0.0
C3862 C 0.6041 0.88878 0.44777 0.0
H3863 H 0.60836 0.89254 0.40332 0.0
H3864 H 0.59021 0.87286 0.42536 0.0
C3865 C 0.61791 0.90435 0.45293 0.0
C3866 C 0.10352 0.72625 0.42073 0.0
C3867 C 0.086 0.71854 0.42198 0.0
H3868 H 0.12648 0.7313 0.43306 0.0
C3869 C 0.07845 0.71084 0.43784 0.0
H3870 H 0.10987 0.73257 0.40889 0.0
C3871 C 0.08807 0.71059 0.4519 0.0
C3872 C 0.10547 0.71784 0.45045 0.0
H3873 H 0.065 0.70443 0.43926 0.0
H3874 H 0.08185 0.70425 0.4638 0.0
C3875 C 0.11312 0.72571 0.4347 0.0
C3876 C 0.27715 0.04119 0.74471 0.0
C3877 C 0.29363 0.04933 0.73858 0.0
H3878 H 0.25984 0.04202 0.76277 0.0
C3879 C 0.30556 0.06472 0.74638 0.0
H3880 H 0.26776 0.02926 0.73895 0.0
C3881 C 0.30114 0.07187 0.76008 0.0
C3882 C 0.28454 0.06399 0.76597 0.0
H3883 H 0.31844 0.07107 0.74212 0.0
H3884 H 0.31076 0.08355 0.76606 0.0
C3885 C 0.27263 0.0485 0.75824 0.0
C3886 C 0.93904 0.23641 0.74563 0.0
C3887 C 0.95554 0.24278 0.74 0.0
H3888 H 0.91941 0.21916 0.76208 0.0
C3889 C 0.96492 0.23594 0.74663 0.0
H3890 H 0.93165 0.24168 0.74094 0.0
C3891 C 0.95779 0.22276 0.75849 0.0
C3892 C 0.94122 0.21627 0.76404 0.0
H3893 H 0.97769 0.24068 0.74251 0.0
H3894 H 0.96526 0.21768 0.76345 0.0
C3895 C 0.93203 0.22347 0.7577 0.0
C3896 C 0.75953 0.72422 0.74128 0.0
C3897 C 0.7481 0.70683 0.74077 0.0
H3898 H 0.78137 0.74466 0.75368 0.0
C3899 C 0.75023 0.69666 0.75283 0.0
H3900 H 0.75808 0.73246 0.7324 0.0
C3901 C 0.76343 0.70366 0.76507 0.0
C3902 C 0.77502 0.72099 0.76536 0.0
H3903 H 0.74181 0.6832 0.75271 0.0
H3904 H 0.76462 0.6955 0.7743 0.0
C3905 C 0.77282 0.73122 0.75348 0.0
C3906 C 0.71823 0.63346 0.59617 0.0
C3907 C 0.70565 0.62229 0.60741 0.0
H3908 H 0.73425 0.63646 0.57467 0.0
C3909 C 0.69959 0.605 0.60537 0.0
H3910 H 0.72289 0.64682 0.59718 0.0
C3911 C 0.70622 0.59906 0.59254 0.0
C3912 C 0.71902 0.61029 0.58153 0.0
H3913 H 0.68989 0.5961 0.61385 0.0
H3914 H 0.70137 0.58569 0.59123 0.0
C3915 C 0.72473 0.62753 0.58329 0.0
C3916 C 0.38434 0.09498 0.59739 0.0
C3917 C 0.36862 0.08811 0.6053 0.0
H3918 H 0.40112 0.11217 0.57848 0.0
C3919 C 0.35752 0.09337 0.59993 0.0
H3920 H 0.39308 0.09107 0.6013 0.0
C3921 C 0.36199 0.10521 0.58678 0.0
C3922 C 0.37786 0.1124 0.57906 0.0
H3923 H 0.34521 0.08803 0.60564 0.0
H3924 H 0.35295 0.10865 0.58262 0.0
C3925 C 0.38894 0.10707 0.58445 0.0
C3926 C 0.91446 0.26303 0.59597 0.0
C3927 C 0.92114 0.27976 0.60167 0.0
H3928 H 0.8979 0.24351 0.57801 0.0
C3929 C 0.91565 0.2897 0.59359 0.0
H3930 H 0.91869 0.2552 0.60186 0.0
C3931 C 0.90347 0.28293 0.58019 0.0
C3932 C 0.89666 0.26615 0.5745 0.0
H3933 H 0.92065 0.30265 0.59778 0.0
H3934 H 0.89939 0.29083 0.57418 0.0
C3935 C 0.90252 0.25635 0.58235 0.0
C3936 C 0.38726 0.2955 0.59786 0.0
C3937 C 0.37028 0.29091 0.59702 0.0
H3938 H 0.40831 0.2976 0.58398 0.0
C3939 C 0.36124 0.28376 0.58123 0.0
H3940 H 0.39469 0.30119 0.6097 0.0
C3941 C 0.36917 0.28206 0.56642 0.0
C3942 C 0.38626 0.28724 0.56709 0.0
H3943 H 0.34806 0.2797 0.58019 0.0
H3944 H 0.36198 0.27697 0.55431 0.0
C3945 C 0.39513 0.29359 0.58308 0.0
C3946 C 0.71111 0.08105 0.57542 0.0
C3947 C 0.71706 0.0888 0.59207 0.0
H3948 H 0.70643 0.084 0.54845 0.0
C3949 C 0.72375 0.10626 0.59375 0.0
H3950 H 0.70552 0.06762 0.5736 0.0
C3951 C 0.72385 0.11556 0.57936 0.0
C3952 C 0.71765 0.1077 0.56282 0.0
H3953 H 0.72871 0.11276 0.60625 0.0
H3954 H 0.72854 0.12884 0.58131 0.0
C3955 C 0.7115 0.0904 0.56099 0.0
C3956 C 0.91107 0.63682 0.58217 0.0
C3957 C 0.91118 0.62872 0.59765 0.0
H3958 H 0.90136 0.63418 0.55593 0.0
C3959 C 0.90013 0.61129 0.5987 0.0
H3960 H 0.91907 0.65025 0.58098 0.0
C3961 C 0.88967 0.60217 0.58445 0.0
C3962 C 0.89022 0.61019 0.56871 0.0
H3963 H 0.89994 0.60454 0.61028 0.0
H3964 H 0.88151 0.58874 0.58553 0.0
C3965 C 0.90081 0.62764 0.56783 0.0
C3966 C 0.95657 0.72978 0.7414 0.0
C3967 C 0.95721 0.71519 0.74471 0.0
H3968 H 0.95451 0.75017 0.75238 0.0
C3969 C 0.95505 0.70939 0.76204 0.0
H3970 H 0.95839 0.7347 0.72824 0.0
C3971 C 0.95282 0.71822 0.7758 0.0
C3972 C 0.95257 0.73301 0.77256 0.0
H3973 H 0.95527 0.69808 0.765 0.0
H3974 H 0.95163 0.71369 0.78908 0.0
C3975 C 0.95436 0.73865 0.7552 0.0
C3976 C 0.29005 0.25819 0.76359 0.0
C3977 C 0.29353 0.25284 0.74754 0.0
H3978 H 0.27849 0.25127 0.78875 0.0
C3979 C 0.28779 0.23562 0.74504 0.0
H3980 H 0.29392 0.27122 0.76606 0.0
C3981 C 0.27832 0.22405 0.75788 0.0
C3982 C 0.27465 0.22945 0.77378 0.0
H3983 H 0.29053 0.23097 0.73311 0.0
H3984 H 0.27384 0.2109 0.75524 0.0
C3985 C 0.28097 0.24669 0.77659 0.0
C3986 C 0.75273 0.0471 0.76147 0.0
C3987 C 0.75476 0.04203 0.74455 0.0
H3988 H 0.75961 0.04998 0.78879 0.0
C3989 C 0.76668 0.03702 0.74228 0.0
H3990 H 0.74396 0.05139 0.76367 0.0
C3991 C 0.77589 0.03656 0.75668 0.0
C3992 C 0.77329 0.04094 0.77366 0.0
H3993 H 0.76848 0.03287 0.72951 0.0
H3994 H 0.78472 0.0323 0.75464 0.0
C3995 C 0.76178 0.04643 0.77586 0.0
C3996 C 0.07365 0.31294 0.03441 0.0
C3997 C 0.06898 0.32383 0.04223 0.0
H3998 H 0.08276 0.29606 0.03841 0.0
C3999 C 0.07156 0.32715 0.06047 0.0
H4000 H 0.07204 0.31027 0.02038 0.0
C4001 C 0.07794 0.3192 0.07073 0.0
C4002 C 0.08184 0.30771 0.06301 0.0
H4003 H 0.06786 0.33522 0.06703 0.0
H4004 H 0.0792 0.32151 0.08483 0.0
C4005 C 0.07989 0.30488 0.04471 0.0
C4006 C 0.69378 0.75144 0.05195 0.0
C4007 C 0.68163 0.73618 0.05916 0.0
H4008 H 0.71124 0.77757 0.05646 0.0
C4009 C 0.6768 0.73622 0.07668 0.0
H4010 H 0.69755 0.75199 0.03839 0.0
C4011 C 0.68443 0.75101 0.08692 0.0
C4012 C 0.69719 0.76604 0.07993 0.0
H4013 H 0.66762 0.72471 0.08275 0.0
H4014 H 0.68077 0.75059 0.1005 0.0
C4015 C 0.70155 0.76616 0.06224 0.0
C4016 C 0.24531 0.95933 0.05638 0.0
C4017 C 0.25972 0.95163 0.05863 0.0
H4018 H 0.21899 0.95666 0.06942 0.0
C4019 C 0.25848 0.93854 0.07673 0.0
H4020 H 0.24694 0.96793 0.04608 0.0
C4021 C 0.24197 0.93173 0.09255 0.0
C4022 C 0.22508 0.93616 0.08652 0.0
H4023 H 0.26763 0.93466 0.07814 0.0
H4024 H 0.24034 0.92288 0.10259 0.0
C4025 C 0.2284 0.9532 0.07149 0.0
C4026 C 0.28793 0.04639 0.95621 0.0
C4027 C 0.31031 0.05482 0.95507 0.0
H4028 H 0.26453 0.0497 0.94332 0.0
C4029 C 0.32296 0.06988 0.93867 0.0
H4030 H 0.28052 0.03671 0.96544 0.0
C4031 C 0.31377 0.07793 0.92361 0.0
C4032 C 0.29193 0.07235 0.92886 0.0
H4033 H 0.33618 0.07424 0.93787 0.0
H4034 H 0.32141 0.08788 0.9147 0.0
C4035 C 0.27762 0.05367 0.94177 0.0
C4036 C 0.94212 0.25718 0.94909 0.0
C4037 C 0.94693 0.25737 0.96672 0.0
H4038 H 0.93253 0.24287 0.92507 0.0
C4039 C 0.94444 0.24239 0.97397 0.0
H4040 H 0.94411 0.26854 0.94299 0.0
C4041 C 0.938 0.22775 0.96361 0.0
C4042 C 0.93373 0.22772 0.94585 0.0
H4043 H 0.94782 0.24206 0.98756 0.0
H4044 H 0.93674 0.21654 0.96939 0.0
C4045 C 0.93559 0.24252 0.93877 0.0
C4046 C 0.75088 0.70174 0.96687 0.0
C4047 C 0.74138 0.68428 0.96893 0.0
H4048 H 0.77394 0.72266 0.95847 0.0
C4049 C 0.74799 0.67433 0.9632 0.0
H4050 H 0.74605 0.70973 0.97099 0.0
C4051 C 0.76397 0.68176 0.95594 0.0
C4052 C 0.77351 0.69925 0.954 0.0
H4053 H 0.74102 0.66086 0.9648 0.0
H4054 H 0.76901 0.67387 0.95212 0.0
C4055 C 0.76677 0.70914 0.95956 0.0
C4056 C 0.94371 0.7039 0.98359 0.0
C4057 C 0.9494 0.69411 0.97515 0.0
H4058 H 0.93487 0.72116 0.98057 0.0
C4059 C 0.95022 0.69413 0.95668 0.0
H4060 H 0.94295 0.70414 0.9978 0.0
C4061 C 0.94561 0.70382 0.94689 0.0
C4062 C 0.93992 0.71361 0.9553 0.0
H4063 H 0.95494 0.68707 0.9498 0.0
H4064 H 0.9467 0.70383 0.9327 0.0
C4065 C 0.93904 0.71358 0.97375 0.0
C4066 C 0.3037 0.25663 0.95465 0.0
C4067 C 0.31622 0.26117 0.96762 0.0
H4068 H 0.2818 0.23661 0.94192 0.0
C4069 C 0.31719 0.2485 0.97655 0.0
H4070 H 0.30251 0.26615 0.94777 0.0
C4071 C 0.30543 0.23163 0.97312 0.0
C4072 C 0.29246 0.22708 0.96072 0.0
H4073 H 0.32673 0.25166 0.98659 0.0
H4074 H 0.30609 0.22213 0.98066 0.0
C4075 C 0.29182 0.23974 0.95134 0.0
C4076 C 0.75622 0.05569 0.97681 0.0
C4077 C 0.74592 0.06267 0.97895 0.0
H4078 H 0.77984 0.05943 0.96818 0.0
C4079 C 0.75181 0.0792 0.97364 0.0
H4080 H 0.75191 0.0429 0.98055 0.0
C4081 C 0.76779 0.08865 0.96662 0.0
C4082 C 0.77812 0.0817 0.96456 0.0
H4083 H 0.74418 0.08493 0.97524 0.0
H4084 H 0.77214 0.10146 0.96293 0.0
C4085 C 0.77213 0.06508 0.96963 0.0
C4086 C 0.70322 0.94881 0.05136 0.0
C4087 C 0.68696 0.94086 0.044 0.0
H4088 H 0.72316 0.94594 0.06171 0.0
C4089 C 0.67795 0.92327 0.04231 0.0
H4090 H 0.71044 0.96233 0.05307 0.0
C4091 C 0.68518 0.91389 0.04751 0.0
C4092 C 0.70151 0.92187 0.05463 0.0
H4093 H 0.66549 0.91676 0.03648 0.0
H4094 H 0.67812 0.90038 0.04563 0.0
C4095 C 0.71046 0.93944 0.05651 0.0
C4096 C 0.07613 0.7596 0.04322 0.0
C4097 C 0.06001 0.74802 0.04905 0.0
H4098 H 0.09482 0.78548 0.04051 0.0
C4099 C 0.05084 0.75404 0.05813 0.0
H4100 H 0.08353 0.75535 0.03628 0.0
C4101 C 0.05733 0.77127 0.06057 0.0
C4102 C 0.07319 0.78283 0.05415 0.0
H4103 H 0.03827 0.74548 0.06251 0.0
H4104 H 0.04968 0.77557 0.06688 0.0
C4105 C 0.08262 0.77682 0.04571 0.0
C4106 C 0.27238 0.3258 0.06731 0.0
C4107 C 0.27179 0.32335 0.04896 0.0
H4108 H 0.25885 0.31862 0.09144 0.0
C4109 C 0.25631 0.31229 0.04071 0.0
H4110 H 0.28414 0.33402 0.0741 0.0
C4111 C 0.2419 0.30339 0.05066 0.0
C4112 C 0.24258 0.30547 0.06905 0.0
H4113 H 0.25541 0.31026 0.02657 0.0
H4114 H 0.23026 0.2946 0.04399 0.0
C4115 C 0.25794 0.31692 0.07726 0.0
C4116 C 0.74882 0.69315 0.41525 0.0
C4117 C 0.74311 0.68282 0.39372 0.0
H4118 H 0.76797 0.69853 0.4415 0.0
C4119 C 0.7547 0.67389 0.38378 0.0
H4120 H 0.742 0.69868 0.42086 0.0
C4121 C 0.77161 0.67392 0.39562 0.0
C4122 C 0.77356 0.68036 0.41925 0.0
H4123 H 0.75167 0.66858 0.37058 0.0
H4124 H 0.77781 0.66758 0.39035 0.0
C4125 C 0.76556 0.69381 0.42804 0.0
C4126 C 0.33349 0.06898 0.41717 0.0
C4127 C 0.34736 0.06247 0.40784 0.0
H4128 H 0.33373 0.0923 0.43545 0.0
C4129 C 0.36961 0.07361 0.41302 0.0
H4130 H 0.32021 0.06193 0.41432 0.0
C4131 C 0.37892 0.09235 0.42664 0.0
C4132 C 0.36495 0.10083 0.43151 0.0
H4133 H 0.37751 0.06902 0.40816 0.0
H4134 H 0.39234 0.09981 0.42859 0.0
C4135 C 0.34167 0.08757 0.43099 0.0
C4136 C 0.91714 0.29245 0.38624 0.0
C4137 C 0.93214 0.28594 0.3911 0.0
H4138 H 0.88847 0.28712 0.39469 0.0
C4139 C 0.92926 0.27214 0.4091 0.0
H4140 H 0.9196 0.30139 0.37603 0.0
C4141 C 0.91061 0.26342 0.42209 0.0
C4142 C 0.89381 0.26682 0.41317 0.0
H4143 H 0.93867 0.26888 0.41207 0.0
H4144 H 0.90815 0.25415 0.43192 0.0
C4145 C 0.8981 0.28439 0.39845 0.0
C4146 C 0.03192 0.41998 0.29298 0.0
C4147 C 0.02095 0.4103 0.30632 0.0
H4148 H 0.04289 0.44296 0.27892 0.0
C4149 C 0.01183 0.41648 0.3152 0.0
H4150 H 0.03904 0.41555 0.28577 0.0
C4151 C 0.01381 0.43203 0.31102 0.0
C4152 C 0.02492 0.44178 0.29787 0.0
H4153 H 0.00354 0.40956 0.3258 0.0
H4154 H 0.00694 0.43666 0.31839 0.0
C4155 C 0.03399 0.4356 0.28891 0.0
C4156 C 0.61291 0.58028 0.30377 0.0
C4157 C 0.61636 0.59553 0.29634 0.0
H4158 H 0.60302 0.55391 0.29971 0.0
C4159 C 0.61131 0.59538 0.2788 0.0
H4160 H 0.61634 0.57985 0.31731 0.0
C4161 C 0.60338 0.58044 0.26885 0.0
C4162 C 0.60042 0.56532 0.27614 0.0
H4163 H 0.61396 0.60688 0.27252 0.0
H4164 H 0.59994 0.58077 0.25528 0.0
C4165 C 0.60514 0.56537 0.29375 0.0
C4166 C 0.38743 0.97126 0.29707 0.0
C4167 C 0.39 0.98287 0.31064 0.0
H4168 H 0.39863 0.96135 0.2797 0.0
C4169 C 0.40644 0.9942 0.3165 0.0
H4170 H 0.37489 0.96222 0.29247 0.0
C4171 C 0.41998 0.99373 0.30916 0.0
C4172 C 0.41741 0.982 0.29574 0.0
H4173 H 0.40883 0.00338 0.32683 0.0
H4174 H 0.43248 0.0024 0.31416 0.0
C4175 C 0.40099 0.97075 0.28978 0.0
C4176 C 0.60626 0.00522 0.29713 0.0
C4177 C 0.60567 0.98975 0.2957 0.0
H4178 H 0.59903 0.02173 0.28584 0.0
C4179 C 0.59637 0.97856 0.28186 0.0
H4180 H 0.61325 0.01402 0.30776 0.0
C4181 C 0.58838 0.98303 0.26926 0.0
C4182 C 0.58938 0.9987 0.27039 0.0
H4183 H 0.59587 0.96664 0.28035 0.0
H4184 H 0.58174 0.97439 0.25841 0.0
C4185 C 0.59814 0.00962 0.28463 0.0
C4186 C 0.00192 0.61576 0.28096 0.0
C4187 C 0.00219 0.61701 0.29945 0.0
H4188 H 0.99518 0.59957 0.2582 0.0
C4189 C 0.9958 0.60223 0.30919 0.0
H4190 H 0.00647 0.6268 0.27301 0.0
C4191 C 0.98899 0.58659 0.30065 0.0
C4192 C 0.98859 0.58538 0.28219 0.0
H4193 H 0.99605 0.60273 0.32344 0.0
H4194 H 0.98402 0.57543 0.30849 0.0
C4195 C 0.99527 0.60015 0.27245 0.0
C4196 C 0.41081 0.41215 0.30901 0.0
C4197 C 0.40291 0.39455 0.30834 0.0
H4198 H 0.43294 0.43555 0.30369 0.0
C4199 C 0.4115 0.38708 0.30088 0.0
H4200 H 0.40468 0.41832 0.31492 0.0
C4201 C 0.4277 0.39695 0.29456 0.0
C4202 C 0.43561 0.41454 0.29533 0.0
H4203 H 0.40571 0.37356 0.29997 0.0
H4204 H 0.43413 0.39084 0.28927 0.0
C4205 C 0.427 0.42202 0.30263 0.0
C4206 C 0.34139 0.26056 0.36854 0.0
C4207 C 0.34743 0.27625 0.37703 0.0
H4208 H 0.34487 0.23962 0.36378 0.0
C4209 C 0.36145 0.28229 0.38841 0.0
H4210 H 0.33085 0.25561 0.35944 0.0
C4211 C 0.36966 0.27325 0.39059 0.0
C4212 C 0.36381 0.25774 0.38179 0.0
H4213 H 0.36631 0.29419 0.3954 0.0
H4214 H 0.3808 0.27861 0.39888 0.0
C4215 C 0.34947 0.25141 0.37094 0.0
C4216 C 0.71468 0.0776 0.37419 0.0
C4217 C 0.72193 0.06747 0.3752 0.0
H4218 H 0.71878 0.10258 0.37461 0.0
C4219 C 0.73921 0.07503 0.37842 0.0
H4220 H 0.70134 0.07202 0.37188 0.0
C4221 C 0.74922 0.0925 0.37965 0.0
C4222 C 0.74208 0.10269 0.37791 0.0
H4223 H 0.74507 0.06746 0.37919 0.0
H4224 H 0.76261 0.09807 0.38149 0.0
C4225 C 0.72464 0.09504 0.37572 0.0
C4226 C 0.9372 0.66203 0.40309 0.0
C4227 C 0.93866 0.66468 0.38484 0.0
H4228 H 0.92082 0.65001 0.42462 0.0
C4229 C 0.92398 0.65739 0.37435 0.0
H4230 H 0.94821 0.66718 0.41156 0.0
C4231 C 0.90831 0.64732 0.38183 0.0
C4232 C 0.90693 0.64445 0.4 0.0
H4233 H 0.92459 0.65935 0.3603 0.0
H4234 H 0.89728 0.64161 0.37336 0.0
C4235 C 0.92153 0.65207 0.41058 0.0
C4236 C 0.40403 0.01673 0.74885 0.0
C4237 C 0.39025 0.00175 0.73221 0.0
H4238 H 0.42443 0.02035 0.77331 0.0
C4239 C 0.38612 0.9804 0.73118 0.0
H4240 H 0.40586 0.02923 0.7495 0.0
C4241 C 0.39664 0.97364 0.74596 0.0
C4242 C 0.41399 0.99077 0.75915 0.0
H4243 H 0.37717 0.97147 0.7217 0.0
H4244 H 0.39532 0.96137 0.74446 0.0
C4245 C 0.41516 0.01113 0.76426 0.0
C4246 C 0.9663 0.38826 0.7198 0.0
C4247 C 0.98226 0.39055 0.71651 0.0
H4248 H 0.95193 0.39986 0.72607 0.0
C4249 C 0.99628 0.40684 0.71808 0.0
H4250 H 0.95519 0.37596 0.71858 0.0
C4251 C 0.99433 0.42056 0.72195 0.0
C4252 C 0.97833 0.41832 0.72453 0.0
H4253 H 0.0088 0.40906 0.71609 0.0
H4254 H 0.00533 0.43299 0.72263 0.0
C4255 C 0.96438 0.40198 0.7239 0.0
C4256 C 0.59504 0.59419 0.7429 0.0
C4257 C 0.60058 0.614 0.73295 0.0
H4258 H 0.57417 0.57256 0.76365 0.0
C4259 C 0.59068 0.62586 0.73935 0.0
H4260 H 0.60147 0.58759 0.73926 0.0
C4261 C 0.57399 0.61767 0.75497 0.0
C4262 C 0.56582 0.59543 0.76073 0.0
H4263 H 0.59482 0.63807 0.73398 0.0
H4264 H 0.56711 0.624 0.75774 0.0
C4265 C 0.57848 0.58498 0.7587 0.0
C4266 C 0.6344 0.71027 0.6179 0.0
C4267 C 0.64932 0.71883 0.62789 0.0
H4268 H 0.6149 0.71181 0.60435 0.0
C4269 C 0.65664 0.7362 0.6309 0.0
H4270 H 0.62833 0.69684 0.61559 0.0
C4271 C 0.64898 0.74476 0.62442 0.0
C4272 C 0.63381 0.73612 0.61483 0.0
H4273 H 0.66819 0.74313 0.63847 0.0
H4274 H 0.65469 0.75808 0.62725 0.0
C4275 C 0.62667 0.71881 0.61153 0.0
C4276 C 0.29267 0.92167 0.621 0.0
C4277 C 0.28362 0.93505 0.62118 0.0
H4278 H 0.28752 0.89359 0.60943 0.0
C4279 C 0.26541 0.9302 0.60782 0.0
H4280 H 0.30404 0.92528 0.62839 0.0
C4281 C 0.25487 0.91109 0.59477 0.0
C4282 C 0.26195 0.89587 0.59921 0.0
H4283 H 0.26055 0.93864 0.60778 0.0
H4284 H 0.24321 0.90741 0.5879 0.0
C4285 C 0.28302 0.9023 0.60843 0.0
C4286 C 0.08321 0.34223 0.63874 0.0
C4287 C 0.07489 0.35136 0.64026 0.0
H4288 H 0.10555 0.34245 0.63103 0.0
C4289 C 0.08288 0.36794 0.63432 0.0
H4290 H 0.07749 0.32952 0.6434 0.0
C4291 C 0.09888 0.37531 0.62725 0.0
C4292 C 0.10723 0.36623 0.6258 0.0
H4293 H 0.07674 0.37525 0.63509 0.0
H4294 H 0.10482 0.38819 0.62305 0.0
C4295 C 0.09926 0.34962 0.63167 0.0
C4296 C 0.28699 0.36814 0.63968 0.0
C4297 C 0.27869 0.35125 0.64466 0.0
H4298 H 0.28477 0.38943 0.6333 0.0
C4299 C 0.26116 0.34252 0.6459 0.0
H4300 H 0.30047 0.37515 0.63841 0.0
C4301 C 0.25219 0.35068 0.64288 0.0
C4302 C 0.26054 0.36768 0.63837 0.0
H4303 H 0.25444 0.32956 0.64989 0.0
H4304 H 0.23875 0.34383 0.64451 0.0
C4305 C 0.27801 0.37628 0.63662 0.0
C4306 C 0.64247 0.92616 0.63995 0.0
C4307 C 0.65244 0.94003 0.6294 0.0
H4308 H 0.62504 0.89971 0.64076 0.0
C4309 C 0.65262 0.93747 0.61114 0.0
H4310 H 0.64216 0.9277 0.65407 0.0
C4311 C 0.6429 0.92147 0.60358 0.0
C4312 C 0.63287 0.90762 0.61411 0.0
H4313 H 0.65991 0.94792 0.60262 0.0
H4314 H 0.64304 0.91992 0.58943 0.0
C4315 C 0.63274 0.91014 0.63237 0.0
C4316 C 0.07902 0.73667 0.65251 0.0
C4317 C 0.0681 0.72187 0.64296 0.0
H4318 H 0.10443 0.75572 0.65808 0.0
C4319 C 0.07493 0.71552 0.63068 0.0
H4320 H 0.07432 0.74177 0.66235 0.0
C4321 C 0.09225 0.7234 0.62848 0.0
C4322 C 0.10312 0.73804 0.63823 0.0
H4323 H 0.06692 0.70429 0.62291 0.0
H4324 H 0.09712 0.71784 0.61939 0.0
C4325 C 0.0963 0.74464 0.65015 0.0
C4326 C 0.00305 0.60733 0.72456 0.0
C4327 C 0.98908 0.60179 0.71326 0.0
H4328 H 0.01904 0.60083 0.73854 0.0
C4329 C 0.97968 0.58469 0.70844 0.0
H4330 H 0.01067 0.62048 0.72827 0.0
C4331 C 0.98443 0.57347 0.71436 0.0
C4332 C 0.99863 0.57907 0.72529 0.0
H4333 H 0.9688 0.58004 0.69984 0.0
H4334 H 0.97723 0.56045 0.71004 0.0
C4335 C 0.00785 0.59611 0.73041 0.0
C4336 C 0.38621 0.4097 0.72152 0.0
C4337 C 0.39467 0.40442 0.7102 0.0
H4338 H 0.38514 0.43054 0.73277 0.0
C4339 C 0.40993 0.41652 0.70302 0.0
H4340 H 0.37428 0.40067 0.72701 0.0
C4341 C 0.41616 0.43358 0.70638 0.0
C4342 C 0.4073 0.43891 0.71699 0.0
H4343 H 0.41673 0.4128 0.69428 0.0
H4344 H 0.42759 0.44267 0.70007 0.0
C4345 C 0.39238 0.42679 0.72477 0.0
C4346 C 0.61583 0.03772 0.71676 0.0
C4347 C 0.61554 0.02377 0.7088 0.0
H4348 H 0.60169 0.04742 0.72912 0.0
C4349 C 0.60038 0.00839 0.70773 0.0
H4350 H 0.62735 0.04973 0.71765 0.0
C4351 C 0.58574 0.00702 0.71444 0.0
C4352 C 0.58594 0.02107 0.72208 0.0
H4353 H 0.59988 0.9974 0.70183 0.0
H4354 H 0.57422 0.995 0.71357 0.0
C4355 C 0.60115 0.0364 0.72326 0.0
loop_
_geom_bond_atom_site_label_1
_geom_bond_atom_site_label_2
_geom_bond_distance
_geom_bond_site_symmetry_2
_ccdc_geom_bond_type
Li0 N17 1.997 . S
Li0 O60 1.934 1_556 S
Li0 O61 1.981 1_655 S
Li0 O62 1.963 . S
Li1 N25 1.990 . S
Li1 O60 1.970 1_455 S
Li1 O61 1.956 1_554 S
Li1 O63 1.961 . S
Li2 N47 1.990 . S
Li2 O60 1.961 . S
Li2 O62 1.956 1_554 S
Li2 O63 1.970 1_655 S
Li3 N53 1.990 . S
Li3 O61 1.961 . S
Li3 O62 1.970 1_455 S
Li3 O63 1.956 1_556 S
C4 C6 1.363 . S
C4 C7 1.356 . S
C4 O60 1.325 . S
N5 C8 1.314 . S
N5 C9 1.279 . S
C6 C4 1.363 . S
C6 C8 1.354 . S
C6 H64 0.913 1_655 S
C7 C4 1.356 . S
C7 C9 1.358 . S
C7 H65 0.930 . S
C8 N5 1.314 . S
C8 C6 1.354 . S
C8 H66 0.988 . S
C9 N5 1.279 . S
C9 C7 1.358 . S
C9 H67 0.930 . S
C10 C13 1.348 . S
C10 C14 1.356 . S
C10 O61 1.325 . S
C11 N12 1.279 . S
C11 C14 1.358 . S
C11 H68 0.930 . S
N12 C11 1.279 . S
N12 C15 1.314 . S
C13 C10 1.348 . S
C13 C15 1.353 . S
C13 H69 0.913 1_455 S
C14 C10 1.356 . S
C14 C11 1.358 . S
C14 H70 0.930 . S
C15 N12 1.314 . S
C15 C13 1.353 . S
C15 H71 0.930 . S
C16 N17 1.314 . S
C16 C21 1.353 . S
C16 H22 0.930 . S
N17 Li0 1.997 . S
N17 C16 1.314 . S
N17 C19 1.302 . S
C18 C19 1.375 . S
C18 C20 1.356 . S
C18 H72 0.925 . S
C19 N17 1.302 . S
C19 C18 1.375 . S
C19 H23 0.889 1_556 S
C20 C18 1.356 . S
C20 C21 1.348 . S
C21 C16 1.353 . S
C21 C20 1.348 . S
C21 H73 0.929 . S
H22 C16 0.930 . S
H23 C19 0.889 1_554 S
C24 N25 1.314 . S
C24 C26 1.353 . S
C24 H30 0.930 . S
N25 Li1 1.990 . S
N25 C24 1.314 . S
N25 C28 1.279 . S
C26 C24 1.353 . S
C26 C29 1.348 . S
C26 H74 0.929 . S
C27 C28 1.358 . S
C27 C29 1.356 . S
C27 H75 0.930 . S
C28 N25 1.279 . S
C28 C27 1.358 . S
C28 H31 0.930 . S
C29 C26 1.348 . S
C29 C27 1.356 . S
H30 C24 0.930 . S
H31 C28 0.930 . S
C32 C34 1.348 . S
C32 C35 1.356 . S
C32 O62 1.325 . S
N33 C36 1.314 . S
N33 C37 1.279 . S
C34 C32 1.348 . S
C34 C36 1.353 . S
C34 H76 0.929 . S
C35 C32 1.356 . S
C35 C37 1.358 . S
C35 H77 0.930 1_556 S
C36 N33 1.314 . S
C36 C34 1.353 . S
C36 H78 0.930 . S
C37 N33 1.279 . S
C37 C35 1.358 . S
C37 H79 0.930 . S
C38 C39 1.348 . S
C38 C40 1.356 . S
C38 O63 1.325 . S
C39 C38 1.348 . S
C39 C41 1.353 . S
C39 H80 0.929 . S
C40 C38 1.356 . S
C40 C42 1.358 . S
C40 H81 0.930 . S
C41 C39 1.353 . S
C41 N43 1.314 . S
C41 H82 0.930 . S
C42 C40 1.358 . S
C42 N43 1.279 . S
C42 H83 0.930 . S
N43 C41 1.314 . S
N43 C42 1.279 . S
C44 C46 1.353 . S
C44 N47 1.314 . S
C44 H50 0.930 . S
C45 N47 1.279 . S
C45 C48 1.358 . S
C45 H51 0.930 . S
C46 C44 1.353 . S
C46 C49 1.348 . S
C46 H84 0.929 . S
N47 Li2 1.990 . S
N47 C44 1.314 . S
N47 C45 1.279 . S
C48 C45 1.358 . S
C48 C49 1.356 . S
C48 H85 0.930 . S
C49 C46 1.348 . S
C49 C48 1.356 . S
H50 C44 0.930 . S
H51 C45 0.930 . S
C52 N53 1.314 . S
C52 C54 1.353 . S
C52 H58 0.930 . S
N53 Li3 1.990 . S
N53 C52 1.314 . S
N53 C56 1.279 . S
C54 C52 1.353 . S
C54 C57 1.348 . S
C54 H86 0.929 . S
C55 C56 1.358 . S
C55 C57 1.356 . S
C55 H87 0.930 . S
C56 N53 1.279 . S
C56 C55 1.358 . S
C56 H59 0.930 . S
C57 C54 1.348 . S
C57 C55 1.356 . S
H58 C52 0.930 . S
H59 C56 0.930 . S
O60 Li0 1.934 1_554 S
O60 Li1 1.970 1_655 S
O60 Li2 1.961 . S
O60 C4 1.325 . S
O61 Li0 1.981 1_455 S
O61 Li1 1.956 1_556 S
O61 Li3 1.961 . S
O61 C10 1.325 . S
O62 Li0 1.963 . S
O62 Li2 1.956 1_556 S
O62 Li3 1.970 1_655 S
O62 C32 1.325 . S
O63 Li1 1.961 . S
O63 Li2 1.970 1_455 S
O63 Li3 1.956 1_554 S
O63 C38 1.325 . S
H64 C6 0.913 1_455 S
H65 C7 0.930 . S
H66 C8 0.988 . S
H67 C9 0.930 . S
H68 C11 0.930 . S
H69 C13 0.913 1_655 S
H70 C14 0.930 . S
H71 C15 0.930 . S
H72 C18 0.925 . S
H73 C21 0.929 . S
H74 C26 0.929 . S
H75 C27 0.930 . S
H76 C34 0.929 . S
H77 C35 0.930 1_554 S
H78 C36 0.930 . S
H79 C37 0.930 . S
H80 C39 0.929 . S
H81 C40 0.930 . S
H82 C41 0.930 . S
H83 C42 0.930 . S
H84 C46 0.929 . S
H85 C48 0.930 . S
H86 C54 0.929 . S
H87 C55 0.930 . S
Li88 N105 1.990 1_554 S
Li88 O148 1.956 . S
Li88 O149 1.970 1_554 S
Li88 O150 1.961 . S
Li89 N113 1.990 . S
Li89 O148 1.970 . S
Li89 O149 1.956 1_554 S
Li89 O151 1.961 . S
Li90 N135 1.990 . S
Li90 O148 1.961 . S
Li90 O150 1.956 . S
Li90 O151 1.970 . S
Li91 N141 1.962 1_554 S
Li91 O149 1.958 1_554 S
Li91 O150 1.977 . S
Li91 O151 1.998 . S
C92 C94 1.348 . S
C92 C95 1.356 . S
C92 O148 1.325 . S
N93 C96 1.314 . S
N93 C97 1.279 . S
C94 C92 1.348 . S
C94 C96 1.353 . S
C94 H152 0.929 . S
C95 C92 1.356 . S
C95 C97 1.358 . S
C95 H153 0.930 . S
C96 N93 1.314 . S
C96 C94 1.353 . S
C96 H154 0.930 . S
C97 N93 1.279 . S
C97 C95 1.358 . S
C97 H155 0.930 . S
C98 C101 1.348 . S
C98 C102 1.356 . S
C98 O149 1.325 . S
C99 N100 1.279 . S
C99 C102 1.358 . S
C99 H156 0.930 . S
N100 C99 1.279 . S
N100 C103 1.314 . S
C101 C98 1.348 . S
C101 C103 1.353 . S
C101 H157 0.929 . S
C102 C98 1.356 . S
C102 C99 1.358 . S
C102 H158 0.930 . S
C103 N100 1.314 . S
C103 C101 1.353 . S
C103 H159 0.930 . S
C104 N105 1.314 . S
C104 C109 1.353 . S
C104 H110 0.930 . S
N105 Li88 1.990 1_556 S
N105 C104 1.314 . S
N105 C107 1.279 1_556 S
C106 C107 1.358 1_556 S
C106 C108 1.356 . S
C106 H160 0.930 1_556 S
C107 N105 1.279 1_554 S
C107 C106 1.358 1_554 S
C107 H111 0.930 . S
C108 C106 1.356 . S
C108 C109 1.348 . S
C109 C104 1.353 . S
C109 C108 1.348 . S
C109 H161 0.929 . S
H110 C104 0.930 . S
H111 C107 0.930 . S
C112 N113 1.314 . S
C112 C114 1.353 . S
C112 H118 0.930 . S
N113 Li89 1.990 . S
N113 C112 1.314 . S
N113 C116 1.279 . S
C114 C112 1.353 . S
C114 C117 1.348 . S
C114 H162 0.929 . S
C115 C116 1.358 . S
C115 C117 1.356 . S
C115 H163 0.930 . S
C116 N113 1.279 . S
C116 C115 1.358 . S
C116 H119 0.930 . S
C117 C114 1.348 . S
C117 C115 1.356 . S
H118 C112 0.930 . S
H119 C116 0.930 . S
C120 C122 1.348 . S
C120 C123 1.357 . S
C120 O150 1.325 1_556 S
N121 C124 1.314 . S
N121 C125 1.279 . S
C122 C120 1.348 . S
C122 C124 1.353 . S
C122 H164 0.929 . S
C123 C120 1.357 . S
C123 C125 1.363 . S
C123 H165 0.924 1_556 S
C124 N121 1.314 . S
C124 C122 1.353 . S
C124 H166 0.930 . S
C125 N121 1.279 . S
C125 C123 1.363 . S
C125 H167 0.930 . S
C126 C127 1.348 . S
C126 C128 1.356 . S
C126 O151 1.325 . S
C127 C126 1.348 . S
C127 C129 1.353 . S
C127 H168 0.929 . S
C128 C126 1.356 . S
C128 C130 1.358 . S
C128 H169 0.930 . S
C129 C127 1.353 . S
C129 N131 1.314 . S
C129 H170 0.930 . S
C130 C128 1.358 . S
C130 N131 1.279 . S
C130 H171 0.930 . S
N131 C129 1.314 . S
N131 C130 1.279 . S
C132 C134 1.353 . S
C132 N135 1.314 . S
C132 H138 0.930 . S
C133 N135 1.279 . S
C133 C136 1.358 . S
C133 H139 0.930 . S
C134 C132 1.353 . S
C134 C137 1.348 . S
C134 H172 0.929 . S
N135 Li90 1.990 . S
N135 C132 1.314 . S
N135 C133 1.279 . S
C136 C133 1.358 . S
C136 C137 1.356 . S
C136 H173 0.930 . S
C137 C134 1.348 . S
C137 C136 1.356 . S
H138 C132 0.930 . S
H139 C133 0.930 . S
C140 N141 1.314 . S
C140 C142 1.353 . S
C140 H146 0.930 . S
N141 Li91 1.962 1_556 S
N141 C140 1.314 . S
N141 C144 1.279 . S
C142 C140 1.353 . S
C142 C145 1.348 . S
C142 H174 0.929 . S
C143 C144 1.358 . S
C143 C145 1.356 . S
C143 H175 0.930 . S
C144 N141 1.279 . S
C144 C143 1.358 . S
C144 H147 0.930 . S
C145 C142 1.348 . S
C145 C143 1.356 . S
H146 C140 0.930 . S
H147 C144 0.930 . S
O148 Li88 1.956 . S
O148 Li89 1.970 . S
O148 Li90 1.961 . S
O148 C92 1.325 . S
O149 Li88 1.970 1_556 S
O149 Li89 1.956 1_556 S
O149 Li91 1.958 1_556 S
O149 C98 1.325 . S
O150 Li88 1.961 . S
O150 Li90 1.956 . S
O150 Li91 1.977 . S
O150 C120 1.325 1_554 S
O151 Li89 1.961 . S
O151 Li90 1.970 . S
O151 Li91 1.998 . S
O151 C126 1.325 . S
H152 C94 0.929 . S
H153 C95 0.930 . S
H154 C96 0.930 . S
H155 C97 0.930 . S
H156 C99 0.930 . S
H157 C101 0.929 . S
H158 C102 0.930 . S
H159 C103 0.930 . S
H160 C106 0.930 1_554 S
H161 C109 0.929 . S
H162 C114 0.929 . S
H163 C115 0.930 . S
H164 C122 0.929 . S
H165 C123 0.924 1_554 S
H166 C124 0.930 . S
H167 C125 0.930 . S
H168 C127 0.929 . S
H169 C128 0.930 . S
H170 C129 0.930 . S
H171 C130 0.930 . S
H172 C134 0.929 . S
H173 C136 0.930 . S
H174 C142 0.929 . S
H175 C143 0.930 . S
Li176 N193 1.990 . S
Li176 O236 1.956 1_556 S
Li176 O237 1.983 1_565 S
Li176 O238 1.961 . S
Li177 N201 1.990 . S
Li177 O236 1.970 1_545 S
Li177 O237 1.914 1_554 S
Li177 O239 1.961 . S
Li178 N223 1.990 . S
Li178 O236 1.961 . S
Li178 O238 1.956 1_554 S
Li178 O239 1.970 1_565 S
Li179 N229 1.990 1_554 S
Li179 O237 1.958 1_554 S
Li179 O238 1.970 1_544 S
Li179 O239 1.956 . S
C180 C182 1.348 . S
C180 C183 1.356 . S
C180 O236 1.325 . S
N181 C184 1.314 . S
N181 C185 1.279 . S
C182 C180 1.348 . S
C182 C184 1.353 . S
C182 H240 0.929 . S
C183 C180 1.356 . S
C183 C185 1.358 . S
C183 H241 0.930 . S
C184 N181 1.314 . S
C184 C182 1.353 . S
C184 H242 0.930 . S
C185 N181 1.279 . S
C185 C183 1.358 . S
C185 H243 0.930 . S
C186 C189 1.348 . S
C186 C190 1.362 . S
C186 O237 1.339 . S
C187 N188 1.279 . S
C187 C190 1.366 . S
C187 H244 0.930 . S
N188 C187 1.279 . S
N188 C191 1.314 . S
C189 C186 1.348 . S
C189 C191 1.353 . S
C189 H245 0.929 . S
C190 C186 1.362 . S
C190 C187 1.366 . S
C190 H246 0.916 1_556 S
C191 N188 1.314 . S
C191 C189 1.353 . S
C191 H247 0.930 . S
C192 N193 1.314 . S
C192 C197 1.353 . S
C192 H198 0.930 . S
N193 Li176 1.990 . S
N193 C192 1.314 . S
N193 C195 1.279 . S
C194 C195 1.358 . S
C194 C196 1.356 . S
C194 H248 0.930 . S
C195 N193 1.279 . S
C195 C194 1.358 . S
C195 H199 0.930 . S
C196 C194 1.356 . S
C196 C197 1.348 . S
C197 C192 1.353 . S
C197 C196 1.348 . S
C197 H249 0.929 . S
H198 C192 0.930 . S
H199 C195 0.930 . S
C200 N201 1.314 . S
C200 C202 1.353 . S
C200 H206 0.930 . S
N201 Li177 1.990 . S
N201 C200 1.314 . S
N201 C204 1.279 . S
C202 C200 1.353 . S
C202 C205 1.348 . S
C202 H250 0.929 . S
C203 C204 1.358 . S
C203 C205 1.356 . S
C203 H251 0.930 . S
C204 N201 1.279 . S
C204 C203 1.358 . S
C204 H207 0.930 . S
C205 C202 1.348 . S
C205 C203 1.356 . S
H206 C200 0.930 . S
H207 C204 0.930 . S
C208 C210 1.348 . S
C208 C211 1.356 . S
C208 O238 1.325 . S
N209 C212 1.314 . S
N209 C213 1.279 . S
C210 C208 1.348 . S
C210 C212 1.353 . S
C210 H252 0.929 1_565 S
C211 C208 1.356 . S
C211 C213 1.358 . S
C211 H253 0.930 . S
C212 N209 1.314 . S
C212 C210 1.353 . S
C212 H254 0.930 . S
C213 N209 1.279 . S
C213 C211 1.358 . S
C213 H255 0.930 . S
C214 C215 1.348 . S
C214 C216 1.356 . S
C214 O239 1.325 . S
C215 C214 1.348 . S
C215 C217 1.353 . S
C215 H256 0.929 1_545 S
C216 C214 1.356 . S
C216 C218 1.358 . S
C216 H257 0.930 . S
C217 C215 1.353 . S
C217 N219 1.314 . S
C217 H258 0.930 . S
C218 C216 1.358 . S
C218 N219 1.279 . S
C218 H259 0.930 . S
N219 C217 1.314 . S
N219 C218 1.279 . S
C220 C222 1.353 . S
C220 N223 1.314 . S
C220 H226 0.930 . S
C221 N223 1.279 . S
C221 C224 1.358 . S
C221 H227 0.930 . S
C222 C220 1.353 . S
C222 C225 1.348 . S
C222 H260 0.929 . S
N223 Li178 1.990 . S
N223 C220 1.314 . S
N223 C221 1.279 . S
C224 C221 1.358 . S
C224 C225 1.356 . S
C224 H261 0.930 . S
C225 C222 1.348 . S
C225 C224 1.356 . S
H226 C220 0.930 . S
H227 C221 0.930 . S
C228 N229 1.314 . S
C228 C230 1.353 . S
C228 H234 0.930 . S
N229 Li179 1.990 1_556 S
N229 C228 1.314 . S
N229 C232 1.279 1_556 S
C230 C228 1.353 . S
C230 C233 1.348 . S
C230 H262 0.929 . S
C231 C232 1.358 1_556 S
C231 C233 1.356 . S
C231 H263 0.930 1_556 S
C232 N229 1.279 1_554 S
C232 C231 1.358 1_554 S
C232 H235 0.930 . S
C233 C230 1.348 . S
C233 C231 1.356 . S
H234 C228 0.930 . S
H235 C232 0.930 . S
O236 Li176 1.956 1_554 S
O236 Li177 1.970 1_565 S
O236 Li178 1.961 . S
O236 C180 1.325 . S
O237 Li176 1.983 1_545 S
O237 Li177 1.914 1_556 S
O237 Li179 1.958 1_556 S
O237 C186 1.339 . S
O238 Li176 1.961 . S
O238 Li178 1.956 1_556 S
O238 Li179 1.970 1_566 S
O238 C208 1.325 . S
O239 Li177 1.961 . S
O239 Li178 1.970 1_545 S
O239 Li179 1.956 . S
O239 C214 1.325 . S
H240 C182 0.929 . S
H241 C183 0.930 . S
H242 C184 0.930 . S
H243 C185 0.930 . S
H244 C187 0.930 . S
H245 C189 0.929 . S
H246 C190 0.916 1_554 S
H247 C191 0.930 . S
H248 C194 0.930 . S
H249 C197 0.929 . S
H250 C202 0.929 . S
H251 C203 0.930 . S
H252 C210 0.929 1_545 S
H253 C211 0.930 . S
H254 C212 0.930 . S
H255 C213 0.930 . S
H256 C215 0.929 1_565 S
H257 C216 0.930 . S
H258 C217 0.930 . S
H259 C218 0.930 . S
H260 C222 0.929 . S
H261 C224 0.930 . S
H262 C230 0.929 . S
H263 C231 0.930 1_554 S
Li264 N281 1.990 . S
Li264 O324 1.956 . S
Li264 O325 1.970 1_455 S
Li264 O326 1.961 1_554 S
Li265 N289 1.990 . S
Li265 O324 1.970 1_655 S
Li265 O325 1.956 . S
Li265 O327 1.961 . S
Li266 N311 1.990 . S
Li266 O324 1.961 1_556 S
Li266 O326 1.956 . S
Li266 O327 1.970 1_456 S
Li267 N317 1.990 1_554 S
Li267 O325 1.961 . S
Li267 O326 1.970 1_654 S
Li267 O327 1.956 . S
C268 C270 1.348 . S
C268 C271 1.356 . S
C268 O324 1.325 . S
N269 C272 1.314 . S
N269 C273 1.279 . S
C270 C268 1.348 . S
C270 C272 1.353 . S
C270 H328 0.929 . S
C271 C268 1.356 . S
C271 C273 1.358 . S
C271 H329 0.930 . S
C272 N269 1.314 . S
C272 C270 1.353 . S
C272 H330 0.930 . S
C273 N269 1.279 . S
C273 C271 1.358 . S
C273 H331 0.930 . S
C274 C277 1.348 . S
C274 C278 1.356 . S
C274 O325 1.325 . S
C275 N276 1.279 . S
C275 C278 1.358 . S
C275 H332 0.930 . S
N276 C275 1.279 . S
N276 C279 1.314 . S
C277 C274 1.348 . S
C277 C279 1.353 . S
C277 H333 0.929 1_655 S
C278 C274 1.356 . S
C278 C275 1.358 . S
C278 H334 0.930 . S
C279 N276 1.314 . S
C279 C277 1.353 . S
C279 H335 0.930 . S
C280 N281 1.314 . S
C280 C285 1.353 . S
C280 H286 0.930 . S
N281 Li264 1.990 . S
N281 C280 1.314 . S
N281 C283 1.279 . S
C282 C283 1.358 . S
C282 C284 1.356 . S
C282 H336 0.930 . S
C283 N281 1.279 . S
C283 C282 1.358 . S
C283 H287 0.930 . S
C284 C282 1.356 . S
C284 C285 1.348 . S
C285 C280 1.353 . S
C285 C284 1.348 . S
C285 H337 0.929 . S
H286 C280 0.930 . S
H287 C283 0.930 . S
C288 N289 1.314 . S
C288 C290 1.353 . S
C288 H294 0.930 . S
N289 Li265 1.990 . S
N289 C288 1.314 . S
N289 C292 1.279 . S
C290 C288 1.353 . S
C290 C293 1.348 . S
C290 H338 0.929 . S
C291 C292 1.358 . S
C291 C293 1.356 . S
C291 H339 0.930 . S
C292 N289 1.279 . S
C292 C291 1.358 . S
C292 H295 0.930 . S
C293 C290 1.348 . S
C293 C291 1.356 . S
H294 C288 0.930 . S
H295 C292 0.930 . S
C296 C298 1.348 . S
C296 C299 1.356 . S
C296 O326 1.325 . S
N297 C300 1.314 . S
N297 C301 1.279 . S
C298 C296 1.348 . S
C298 C300 1.353 . S
C298 H340 0.929 1_455 S
C299 C296 1.356 . S
C299 C301 1.358 . S
C299 H341 0.930 . S
C300 N297 1.314 . S
C300 C298 1.353 . S
C300 H342 0.930 . S
C301 N297 1.279 . S
C301 C299 1.358 . S
C301 H343 0.930 . S
C302 C303 1.348 . S
C302 C304 1.356 1_556 S
C302 O327 1.325 1_556 S
C303 C302 1.348 . S
C303 C305 1.353 . S
C303 H344 0.929 . S
C304 C302 1.356 1_554 S
C304 C306 1.353 1_554 S
C304 H345 0.930 . S
C305 C303 1.353 . S
C305 N307 1.314 . S
C305 H346 0.930 . S
C306 C304 1.353 1_556 S
C306 N307 1.293 . S
C306 H347 0.921 1_556 S
N307 C305 1.314 . S
N307 C306 1.293 . S
C308 C310 1.353 . S
C308 N311 1.314 . S
C308 H314 0.930 . S
C309 N311 1.279 . S
C309 C312 1.358 . S
C309 H315 0.930 . S
C310 C308 1.353 . S
C310 C313 1.348 . S
C310 H348 0.929 . S
N311 Li266 1.990 . S
N311 C308 1.314 . S
N311 C309 1.279 . S
C312 C309 1.358 . S
C312 C313 1.356 . S
C312 H349 0.930 . S
C313 C310 1.348 . S
C313 C312 1.356 . S
H314 C308 0.930 . S
H315 C309 0.930 . S
C316 N317 1.317 . S
C316 C318 1.357 . S
C316 H322 0.922 1_556 S
N317 Li267 1.990 1_556 S
N317 C316 1.317 . S
N317 C320 1.279 . S
C318 C316 1.357 . S
C318 C321 1.348 . S
C318 H350 0.929 . S
C319 C320 1.358 . S
C319 C321 1.356 . S
C319 H351 0.930 . S
C320 N317 1.279 . S
C320 C319 1.358 . S
C320 H323 0.930 . S
C321 C318 1.348 . S
C321 C319 1.356 . S
H322 C316 0.922 1_554 S
H323 C320 0.930 . S
O324 Li264 1.956 . S
O324 Li265 1.970 1_455 S
O324 Li266 1.961 1_554 S
O324 C268 1.325 . S
O325 Li264 1.970 1_655 S
O325 Li265 1.956 . S
O325 Li267 1.961 . S
O325 C274 1.325 . S
O326 Li264 1.961 1_556 S
O326 Li266 1.956 . S
O326 Li267 1.970 1_456 S
O326 C296 1.325 . S
O327 Li265 1.961 . S
O327 Li266 1.970 1_654 S
O327 Li267 1.956 . S
O327 C302 1.325 1_554 S
H328 C270 0.929 . S
H329 C271 0.930 . S
H330 C272 0.930 . S
H331 C273 0.930 . S
H332 C275 0.930 . S
H333 C277 0.929 1_455 S
H334 C278 0.930 . S
H335 C279 0.930 . S
H336 C282 0.930 . S
H337 C285 0.929 . S
H338 C290 0.929 . S
H339 C291 0.930 . S
H340 C298 0.929 1_655 S
H341 C299 0.930 . S
H342 C300 0.930 . S
H343 C301 0.930 . S
H344 C303 0.929 . S
H345 C304 0.930 . S
H346 C305 0.930 . S
H347 C306 0.921 1_554 S
H348 C310 0.929 . S
H349 C312 0.930 . S
H350 C318 0.929 . S
H351 C319 0.930 . S
Li352 N369 1.990 . S
Li352 O412 1.956 . S
Li352 O413 1.970 . S
Li352 O414 1.961 1_554 S
Li353 N377 1.990 . S
Li353 O412 1.970 . S
Li353 O413 1.956 . S
Li353 O415 1.961 1_554 S
Li354 N399 1.990 . S
Li354 O412 1.961 1_556 S
Li354 O414 1.956 . S
Li354 O415 1.970 . S
Li355 N405 1.990 . S
Li355 O413 1.961 1_556 S
Li355 O414 1.970 . S
Li355 O415 1.956 . S
C356 C358 1.348 . S
C356 C359 1.356 . S
C356 O412 1.325 . S
N357 C360 1.314 . S
N357 C361 1.279 . S
C358 C356 1.348 . S
C358 C360 1.353 . S
C358 H416 0.929 . S
C359 C356 1.356 . S
C359 C361 1.358 . S
C359 H417 0.930 . S
C360 N357 1.314 . S
C360 C358 1.353 . S
C360 H418 0.930 . S
C361 N357 1.279 . S
C361 C359 1.358 . S
C361 H419 0.930 . S
C362 C365 1.348 . S
C362 C366 1.356 . S
C362 O413 1.325 . S
C363 N364 1.279 . S
C363 C366 1.358 . S
C363 H420 0.930 . S
N364 C363 1.279 . S
N364 C367 1.314 . S
C365 C362 1.348 . S
C365 C367 1.353 . S
C365 H421 0.929 . S
C366 C362 1.356 . S
C366 C363 1.358 . S
C366 H422 0.930 . S
C367 N364 1.314 . S
C367 C365 1.353 . S
C367 H423 0.930 . S
C368 N369 1.314 . S
C368 C373 1.353 . S
C368 H374 0.930 . S
N369 Li352 1.990 . S
N369 C368 1.314 . S
N369 C371 1.279 . S
C370 C371 1.358 . S
C370 C372 1.356 . S
C370 H424 0.930 . S
C371 N369 1.279 . S
C371 C370 1.358 . S
C371 H375 0.930 . S
C372 C370 1.356 . S
C372 C373 1.348 . S
C373 C368 1.353 . S
C373 C372 1.348 . S
C373 H425 0.929 . S
H374 C368 0.930 . S
H375 C371 0.930 . S
C376 N377 1.314 . S
C376 C378 1.353 . S
C376 H382 0.930 . S
N377 Li353 1.990 . S
N377 C376 1.314 . S
N377 C380 1.279 . S
C378 C376 1.353 . S
C378 C381 1.348 . S
C378 H426 0.929 . S
C379 C380 1.358 . S
C379 C381 1.356 . S
C379 H427 0.930 . S
C380 N377 1.279 . S
C380 C379 1.358 . S
C380 H383 0.930 . S
C381 C378 1.348 . S
C381 C379 1.356 . S
H382 C376 0.930 . S
H383 C380 0.930 . S
C384 C386 1.348 . S
C384 C387 1.356 . S
C384 O414 1.325 . S
N385 C388 1.314 . S
N385 C389 1.279 . S
C386 C384 1.348 . S
C386 C388 1.353 . S
C386 H428 0.929 . S
C387 C384 1.356 . S
C387 C389 1.358 . S
C387 H429 0.930 . S
C388 N385 1.314 . S
C388 C386 1.353 . S
C388 H430 0.930 . S
C389 N385 1.279 . S
C389 C387 1.358 . S
C389 H431 0.930 . S
C390 C391 1.348 . S
C390 C392 1.356 . S
C390 O415 1.325 . S
C391 C390 1.348 . S
C391 C393 1.353 . S
C391 H432 0.929 . S
C392 C390 1.356 . S
C392 C394 1.358 . S
C392 H433 0.930 1_556 S
C393 C391 1.353 . S
C393 N395 1.314 . S
C393 H434 0.930 . S
C394 C392 1.358 . S
C394 N395 1.279 . S
C394 H435 0.930 . S
N395 C393 1.314 . S
N395 C394 1.279 . S
C396 C398 1.353 . S
C396 N399 1.314 . S
C396 H402 0.930 . S
C397 N399 1.279 . S
C397 C400 1.358 . S
C397 H403 0.930 . S
C398 C396 1.353 . S
C398 C401 1.348 . S
C398 H436 0.929 . S
N399 Li354 1.990 . S
N399 C396 1.314 . S
N399 C397 1.279 . S
C400 C397 1.358 . S
C400 C401 1.356 . S
C400 H437 0.930 . S
C401 C398 1.348 . S
C401 C400 1.356 . S
H402 C396 0.930 . S
H403 C397 0.930 . S
C404 N405 1.314 . S
C404 C406 1.353 . S
C404 H410 0.930 . S
N405 Li355 1.990 . S
N405 C404 1.314 . S
N405 C408 1.279 . S
C406 C404 1.353 . S
C406 C409 1.348 . S
C406 H438 0.929 . S
C407 C408 1.358 . S
C407 C409 1.356 . S
C407 H439 0.930 . S
C408 N405 1.279 . S
C408 C407 1.358 . S
C408 H411 0.930 . S
C409 C406 1.348 . S
C409 C407 1.356 . S
H410 C404 0.930 . S
H411 C408 0.930 . S
O412 Li352 1.956 . S
O412 Li353 1.970 . S
O412 Li354 1.961 1_554 S
O412 C356 1.325 . S
O413 Li352 1.970 . S
O413 Li353 1.956 . S
O413 Li355 1.961 1_554 S
O413 C362 1.325 . S
O414 Li352 1.961 1_556 S
O414 Li354 1.956 . S
O414 Li355 1.970 . S
O414 C384 1.325 . S
O415 Li353 1.961 1_556 S
O415 Li354 1.970 . S
O415 Li355 1.956 . S
O415 C390 1.325 . S
H416 C358 0.929 . S
H417 C359 0.930 . S
H418 C360 0.930 . S
H419 C361 0.930 . S
H420 C363 0.930 . S
H421 C365 0.929 . S
H422 C366 0.930 . S
H423 C367 0.930 . S
H424 C370 0.930 . S
H425 C373 0.929 . S
H426 C378 0.929 . S
H427 C379 0.930 . S
H428 C386 0.929 . S
H429 C387 0.930 . S
H430 C388 0.930 . S
H431 C389 0.930 . S
H432 C391 0.929 . S
H433 C392 0.930 1_554 S
H434 C393 0.930 . S
H435 C394 0.930 . S
H436 C398 0.929 . S
H437 C400 0.930 . S
H438 C406 0.929 . S
H439 C407 0.930 . S
Li440 N457 1.990 . S
Li440 O500 1.956 . S
Li440 O501 1.970 1_565 S
Li440 O502 1.961 1_554 S
Li441 N465 1.990 . S
Li441 O500 1.970 1_545 S
Li441 O501 1.956 . S
Li441 O503 1.961 . S
Li442 N487 1.990 . S
Li442 O500 1.961 1_556 S
Li442 O502 1.956 . S
Li442 O503 1.970 1_566 S
Li443 N493 1.990 1_554 S
Li443 O501 1.961 . S
Li443 O502 1.970 1_544 S
Li443 O503 1.956 . S
C444 C446 1.348 . S
C444 C447 1.356 . S
C444 O500 1.325 . S
N445 C448 1.314 . S
N445 C449 1.279 . S
C446 C444 1.348 . S
C446 C448 1.353 . S
C446 H504 0.929 . S
C447 C444 1.356 . S
C447 C449 1.358 . S
C447 H505 0.930 . S
C448 N445 1.314 . S
C448 C446 1.353 . S
C448 H506 0.930 . S
C449 N445 1.279 . S
C449 C447 1.358 . S
C449 H507 0.930 . S
C450 C453 1.348 . S
C450 C454 1.356 . S
C450 O501 1.325 . S
C451 N452 1.279 . S
C451 C454 1.358 . S
C451 H508 0.930 . S
N452 C451 1.279 . S
N452 C455 1.314 . S
C453 C450 1.348 . S
C453 C455 1.353 . S
C453 H509 0.929 1_545 S
C454 C450 1.356 . S
C454 C451 1.358 . S
C454 H510 0.930 . S
C455 N452 1.314 . S
C455 C453 1.353 . S
C455 H511 0.930 . S
C456 N457 1.314 . S
C456 C461 1.353 . S
C456 H462 0.930 . S
N457 Li440 1.990 . S
N457 C456 1.314 . S
N457 C459 1.279 . S
C458 C459 1.358 . S
C458 C460 1.356 . S
C458 H512 0.930 . S
C459 N457 1.279 . S
C459 C458 1.358 . S
C459 H463 0.930 . S
C460 C458 1.356 . S
C460 C461 1.348 . S
C461 C456 1.353 . S
C461 C460 1.348 . S
C461 H513 0.929 . S
H462 C456 0.930 . S
H463 C459 0.930 . S
C464 N465 1.314 . S
C464 C466 1.353 . S
C464 H470 0.930 . S
N465 Li441 1.990 . S
N465 C464 1.314 . S
N465 C468 1.279 . S
C466 C464 1.353 . S
C466 C469 1.348 . S
C466 H514 0.929 . S
C467 C468 1.358 . S
C467 C469 1.356 . S
C467 H515 0.930 . S
C468 N465 1.279 . S
C468 C467 1.358 . S
C468 H471 0.930 . S
C469 C466 1.348 . S
C469 C467 1.356 . S
H470 C464 0.930 . S
H471 C468 0.930 . S
C472 C474 1.348 . S
C472 C475 1.356 . S
C472 O502 1.325 . S
N473 C476 1.314 . S
N473 C477 1.279 . S
C474 C472 1.348 . S
C474 C476 1.353 . S
C474 H516 0.929 1_565 S
C475 C472 1.356 . S
C475 C477 1.358 . S
C475 H517 0.930 . S
C476 N473 1.314 . S
C476 C474 1.353 . S
C476 H518 0.930 . S
C477 N473 1.279 . S
C477 C475 1.358 . S
C477 H519 0.930 . S
C478 C479 1.348 . S
C478 C480 1.356 1_556 S
C478 O503 1.325 1_556 S
C479 C478 1.348 . S
C479 C481 1.353 . S
C479 H520 0.929 . S
C480 C478 1.356 1_554 S
C480 C482 1.358 . S
C480 H521 0.930 . S
C481 C479 1.353 . S
C481 N483 1.314 . S
C481 H522 0.930 . S
C482 C480 1.358 . S
C482 N483 1.279 1_554 S
C482 H523 0.930 . S
N483 C481 1.314 . S
N483 C482 1.279 1_556 S
C484 C486 1.353 . S
C484 N487 1.314 . S
C484 H490 0.930 . S
C485 N487 1.279 . S
C485 C488 1.358 . S
C485 H491 0.930 . S
C486 C484 1.353 . S
C486 C489 1.348 . S
C486 H524 0.929 . S
N487 Li442 1.990 . S
N487 C484 1.314 . S
N487 C485 1.279 . S
C488 C485 1.358 . S
C488 C489 1.356 . S
C488 H525 0.930 . S
C489 C486 1.348 . S
C489 C488 1.356 . S
H490 C484 0.930 . S
H491 C485 0.930 . S
C492 N493 1.307 1_554 S
C492 C494 1.341 1_554 S
C492 H498 0.953 . S
N493 Li443 1.990 1_556 S
N493 C492 1.307 1_556 S
N493 C496 1.279 . S
C494 C492 1.341 1_556 S
C494 C497 1.348 . S
C494 H526 0.946 . S
C495 C496 1.358 . S
C495 C497 1.356 . S
C495 H527 0.930 . S
C496 N493 1.279 . S
C496 C495 1.358 . S
C496 H499 0.930 . S
C497 C494 1.348 . S
C497 C495 1.356 . S
H498 C492 0.953 . S
H499 C496 0.930 . S
O500 Li440 1.956 . S
O500 Li441 1.970 1_565 S
O500 Li442 1.961 1_554 S
O500 C444 1.325 . S
O501 Li440 1.970 1_545 S
O501 Li441 1.956 . S
O501 Li443 1.961 . S
O501 C450 1.325 . S
O502 Li440 1.961 1_556 S
O502 Li442 1.956 . S
O502 Li443 1.970 1_566 S
O502 C472 1.325 . S
O503 Li441 1.961 . S
O503 Li442 1.970 1_544 S
O503 Li443 1.956 . S
O503 C478 1.325 1_554 S
H504 C446 0.929 . S
H505 C447 0.930 . S
H506 C448 0.930 . S
H507 C449 0.930 . S
H508 C451 0.930 . S
H509 C453 0.929 1_565 S
H510 C454 0.930 . S
H511 C455 0.930 . S
H512 C458 0.930 . S
H513 C461 0.929 . S
H514 C466 0.929 . S
H515 C467 0.930 . S
H516 C474 0.929 1_545 S
H517 C475 0.930 . S
H518 C476 0.930 . S
H519 C477 0.930 . S
H520 C479 0.929 . S
H521 C480 0.930 . S
H522 C481 0.930 . S
H523 C482 0.930 . S
H524 C486 0.929 . S
H525 C488 0.930 . S
H526 C494 0.946 . S
H527 C495 0.930 . S
Li528 N545 1.990 . S
Li528 O588 1.956 . S
Li528 O589 1.970 . S
Li528 O590 1.961 . S
Li529 N553 1.990 . S
Li529 O588 1.970 . S
Li529 O589 1.956 . S
Li529 O591 1.961 . S
Li530 N575 1.990 . S
Li530 O588 1.961 . S
Li530 O590 1.956 . S
Li530 O591 1.970 . S
Li531 N581 1.990 . S
Li531 O589 1.961 . S
Li531 O590 1.970 . S
Li531 O591 1.956 . S
C532 C534 1.348 . S
C532 C535 1.356 . S
C532 O588 1.325 . S
N533 C536 1.314 . S
N533 C537 1.279 . S
C534 C532 1.348 . S
C534 C536 1.353 . S
C534 H592 0.929 . S
C535 C532 1.356 . S
C535 C537 1.358 . S
C535 H593 0.930 . S
C536 N533 1.314 . S
C536 C534 1.353 . S
C536 H594 0.930 . S
C537 N533 1.279 . S
C537 C535 1.358 . S
C537 H595 0.930 . S
C538 C541 1.348 . S
C538 C542 1.356 . S
C538 O589 1.325 . S
C539 N540 1.279 . S
C539 C542 1.358 . S
C539 H596 0.930 . S
N540 C539 1.279 . S
N540 C543 1.314 . S
C541 C538 1.348 . S
C541 C543 1.353 . S
C541 H597 0.929 . S
C542 C538 1.356 . S
C542 C539 1.358 . S
C542 H598 0.930 . S
C543 N540 1.314 . S
C543 C541 1.353 . S
C543 H599 0.930 . S
C544 N545 1.314 . S
C544 C549 1.353 . S
C544 H550 0.930 . S
N545 Li528 1.990 . S
N545 C544 1.314 . S
N545 C547 1.279 . S
C546 C547 1.358 . S
C546 C548 1.356 . S
C546 H600 0.930 . S
C547 N545 1.279 . S
C547 C546 1.358 . S
C547 H551 0.930 . S
C548 C546 1.356 . S
C548 C549 1.348 . S
C549 C544 1.353 . S
C549 C548 1.348 . S
C549 H601 0.929 . S
H550 C544 0.930 . S
H551 C547 0.930 . S
C552 N553 1.314 . S
C552 C554 1.353 . S
C552 H558 0.930 . S
N553 Li529 1.990 . S
N553 C552 1.314 . S
N553 C556 1.279 . S
C554 C552 1.353 . S
C554 C557 1.348 . S
C554 H602 0.929 . S
C555 C556 1.358 . S
C555 C557 1.356 . S
C555 H603 0.930 . S
C556 N553 1.279 . S
C556 C555 1.358 . S
C556 H559 0.930 . S
C557 C554 1.348 . S
C557 C555 1.356 . S
H558 C552 0.930 . S
H559 C556 0.930 . S
C560 C562 1.348 . S
C560 C563 1.356 . S
C560 O590 1.325 . S
N561 C564 1.314 . S
N561 C565 1.279 . S
C562 C560 1.348 . S
C562 C564 1.353 . S
C562 H604 0.929 . S
C563 C560 1.356 . S
C563 C565 1.358 . S
C563 H605 0.930 . S
C564 N561 1.314 . S
C564 C562 1.353 . S
C564 H606 0.930 . S
C565 N561 1.279 . S
C565 C563 1.358 . S
C565 H607 0.930 . S
C566 C567 1.348 . S
C566 C568 1.356 . S
C566 O591 1.325 . S
C567 C566 1.348 . S
C567 C569 1.353 . S
C567 H608 0.929 . S
C568 C566 1.356 . S
C568 C570 1.358 . S
C568 H609 0.930 . S
C569 C567 1.353 . S
C569 N571 1.314 . S
C569 H610 0.930 . S
C570 C568 1.358 . S
C570 N571 1.279 . S
C570 H611 0.930 . S
N571 C569 1.314 . S
N571 C570 1.279 . S
C572 C574 1.353 . S
C572 N575 1.314 . S
C572 H578 0.930 . S
C573 N575 1.279 . S
C573 C576 1.358 . S
C573 H579 0.930 . S
C574 C572 1.353 . S
C574 C577 1.348 . S
C574 H612 0.929 . S
N575 Li530 1.990 . S
N575 C572 1.314 . S
N575 C573 1.279 . S
C576 C573 1.358 . S
C576 C577 1.356 . S
C576 H613 0.930 . S
C577 C574 1.348 . S
C577 C576 1.356 . S
H578 C572 0.930 . S
H579 C573 0.930 . S
C580 N581 1.314 . S
C580 C582 1.353 . S
C580 H586 0.930 . S
N581 Li531 1.990 . S
N581 C580 1.314 . S
N581 C584 1.279 . S
C582 C580 1.353 . S
C582 C585 1.348 . S
C582 H614 0.929 . S
C583 C584 1.358 . S
C583 C585 1.356 . S
C583 H615 0.930 . S
C584 N581 1.279 . S
C584 C583 1.358 . S
C584 H587 0.930 . S
C585 C582 1.348 . S
C585 C583 1.356 . S
H586 C580 0.930 . S
H587 C584 0.930 . S
O588 Li528 1.956 . S
O588 Li529 1.970 . S
O588 Li530 1.961 . S
O588 C532 1.325 . S
O589 Li528 1.970 . S
O589 Li529 1.956 . S
O589 Li531 1.961 . S
O589 C538 1.325 . S
O590 Li528 1.961 . S
O590 Li530 1.956 . S
O590 Li531 1.970 . S
O590 C560 1.325 . S
O591 Li529 1.961 . S
O591 Li530 1.970 . S
O591 Li531 1.956 . S
O591 C566 1.325 . S
H592 C534 0.929 . S
H593 C535 0.930 . S
H594 C536 0.930 . S
H595 C537 0.930 . S
H596 C539 0.930 . S
H597 C541 0.929 . S
H598 C542 0.930 . S
H599 C543 0.930 . S
H600 C546 0.930 . S
H601 C549 0.929 . S
H602 C554 0.929 . S
H603 C555 0.930 . S
H604 C562 0.929 . S
H605 C563 0.930 . S
H606 C564 0.930 . S
H607 C565 0.930 . S
H608 C567 0.929 . S
H609 C568 0.930 . S
H610 C569 0.930 . S
H611 C570 0.930 . S
H612 C574 0.929 . S
H613 C576 0.930 . S
H614 C582 0.929 . S
H615 C583 0.930 . S
Li616 N633 1.990 . S
Li616 O676 1.956 . S
Li616 O677 1.970 . S
Li616 O678 1.961 . S
Li617 N641 1.990 . S
Li617 O676 1.970 . S
Li617 O677 1.956 . S
Li617 O679 1.961 . S
Li618 N663 1.992 . S
Li618 O676 1.960 1_545 S
Li618 O678 1.956 1_545 S
Li618 O679 1.968 1_545 S
Li619 N669 1.990 . S
Li619 O677 1.961 . S
Li619 O678 1.970 . S
Li619 O679 1.956 . S
C620 C622 1.348 . S
C620 C623 1.356 . S
C620 O676 1.325 . S
N621 C624 1.314 . S
N621 C625 1.279 . S
C622 C620 1.348 . S
C622 C624 1.353 . S
C622 H680 0.929 . S
C623 C620 1.356 . S
C623 C625 1.358 . S
C623 H681 0.926 . S
C624 N621 1.314 . S
C624 C622 1.353 . S
C624 H682 0.930 . S
C625 N621 1.279 . S
C625 C623 1.358 . S
C625 H683 0.930 . S
C626 C629 1.348 . S
C626 C630 1.356 . S
C626 O677 1.325 . S
C627 N628 1.279 . S
C627 C630 1.358 . S
C627 H684 0.930 . S
N628 C627 1.279 . S
N628 C631 1.314 . S
C629 C626 1.348 . S
C629 C631 1.353 . S
C629 H685 0.929 . S
C630 C626 1.356 . S
C630 C627 1.358 . S
C630 H686 0.930 . S
C631 N628 1.314 . S
C631 C629 1.353 . S
C631 H687 0.930 . S
C632 N633 1.314 . S
C632 C637 1.353 . S
C632 H638 0.930 . S
N633 Li616 1.990 . S
N633 C632 1.314 . S
N633 C635 1.279 . S
C634 C635 1.358 . S
C634 C636 1.356 . S
C634 H688 0.930 . S
C635 N633 1.279 . S
C635 C634 1.358 . S
C635 H639 0.930 . S
C636 C634 1.356 . S
C636 C637 1.348 . S
C637 C632 1.353 . S
C637 C636 1.348 . S
C637 H689 0.929 . S
H638 C632 0.930 . S
H639 C635 0.930 . S
C640 N641 1.314 . S
C640 C642 1.353 . S
C640 H646 0.930 . S
N641 Li617 1.990 . S
N641 C640 1.314 . S
N641 C644 1.279 . S
C642 C640 1.353 . S
C642 C645 1.348 . S
C642 H690 0.929 . S
C643 C644 1.358 . S
C643 C645 1.356 . S
C643 H691 0.930 . S
C644 N641 1.279 . S
C644 C643 1.358 . S
C644 H647 0.930 . S
C645 C642 1.348 . S
C645 C643 1.356 . S
H646 C640 0.930 . S
H647 C644 0.930 . S
C648 C650 1.348 . S
C648 C651 1.356 . S
C648 O678 1.325 1_545 S
N649 C652 1.314 . S
N649 C653 1.279 . S
C650 C648 1.348 . S
C650 C652 1.353 . S
C650 H692 0.929 . S
C651 C648 1.356 . S
C651 C653 1.358 . S
C651 H693 0.930 . S
C652 N649 1.314 . S
C652 C650 1.353 . S
C652 H694 0.930 . S
C653 N649 1.279 . S
C653 C651 1.358 . S
C653 H695 0.930 . S
C654 C655 1.348 1_565 S
C654 C656 1.356 . S
C654 O679 1.325 . S
C655 C654 1.348 1_545 S
C655 C657 1.353 . S
C655 H696 0.929 . S
C656 C654 1.356 . S
C656 C658 1.358 . S
C656 H697 0.930 . S
C657 C655 1.353 . S
C657 N659 1.337 . S
C657 H698 0.930 . S
C658 C656 1.358 . S
C658 N659 1.261 1_565 S
C658 H699 0.930 . S
N659 C657 1.337 . S
N659 C658 1.261 1_545 S
C660 C662 1.353 . S
C660 N663 1.314 . S
C660 H666 0.930 . S
C661 N663 1.279 . S
C661 C664 1.358 . S
C661 H667 0.930 . S
C662 C660 1.353 . S
C662 C665 1.348 . S
C662 H700 0.929 . S
N663 Li618 1.992 . S
N663 C660 1.314 . S
N663 C661 1.279 . S
C664 C661 1.358 . S
C664 C665 1.356 . S
C664 H701 0.930 . S
C665 C662 1.348 . S
C665 C664 1.356 . S
H666 C660 0.930 . S
H667 C661 0.930 . S
C668 N669 1.314 . S
C668 C670 1.353 . S
C668 H674 0.930 . S
N669 Li619 1.990 . S
N669 C668 1.314 . S
N669 C672 1.279 . S
C670 C668 1.353 . S
C670 C673 1.348 . S
C670 H702 0.929 . S
C671 C672 1.358 . S
C671 C673 1.356 . S
C671 H703 0.930 . S
C672 N669 1.279 . S
C672 C671 1.358 . S
C672 H675 0.930 . S
C673 C670 1.348 . S
C673 C671 1.356 . S
H674 C668 0.930 . S
H675 C672 0.930 . S
O676 Li616 1.956 . S
O676 Li617 1.970 . S
O676 Li618 1.960 1_565 S
O676 C620 1.325 . S
O677 Li616 1.970 . S
O677 Li617 1.956 . S
O677 Li619 1.961 . S
O677 C626 1.325 . S
O678 Li616 1.961 . S
O678 Li618 1.956 1_565 S
O678 Li619 1.970 . S
O678 C648 1.325 1_565 S
O679 Li617 1.961 . S
O679 Li618 1.968 1_565 S
O679 Li619 1.956 . S
O679 C654 1.325 . S
H680 C622 0.929 . S
H681 C623 0.926 . S
H682 C624 0.930 . S
H683 C625 0.930 . S
H684 C627 0.930 . S
H685 C629 0.929 . S
H686 C630 0.930 . S
H687 C631 0.930 . S
H688 C634 0.930 . S
H689 C637 0.929 . S
H690 C642 0.929 . S
H691 C643 0.930 . S
H692 C650 0.929 . S
H693 C651 0.930 . S
H694 C652 0.930 . S
H695 C653 0.930 . S
H696 C655 0.929 . S
H697 C656 0.930 . S
H698 C657 0.930 . S
H699 C658 0.930 . S
H700 C662 0.929 . S
H701 C664 0.930 . S
H702 C670 0.929 . S
H703 C671 0.930 . S
Li704 N721 1.990 . S
Li704 O764 1.956 . S
Li704 O765 1.970 . S
Li704 O766 1.961 . S
Li705 N729 1.990 . S
Li705 O764 1.970 . S
Li705 O765 1.956 . S
Li705 O767 1.961 . S
Li706 N751 1.990 1_455 S
Li706 O764 1.961 . S
Li706 O766 1.956 . S
Li706 O767 1.970 . S
Li707 N757 1.990 . S
Li707 O765 1.961 . S
Li707 O766 1.970 . S
Li707 O767 1.956 . S
C708 C710 1.348 . S
C708 C711 1.356 . S
C708 O764 1.325 . S
N709 C712 1.314 . S
N709 C713 1.279 . S
C710 C708 1.348 . S
C710 C712 1.353 . S
C710 H768 0.929 . S
C711 C708 1.356 . S
C711 C713 1.358 . S
C711 H769 0.930 . S
C712 N709 1.314 . S
C712 C710 1.353 . S
C712 H770 0.930 . S
C713 N709 1.279 . S
C713 C711 1.358 . S
C713 H771 0.930 . S
C714 C717 1.348 . S
C714 C718 1.356 . S
C714 O765 1.325 . S
C715 N716 1.279 . S
C715 C718 1.358 . S
C715 H772 0.930 . S
N716 C715 1.279 . S
N716 C719 1.314 . S
C717 C714 1.348 . S
C717 C719 1.353 . S
C717 H773 0.929 . S
C718 C714 1.356 . S
C718 C715 1.358 . S
C718 H774 0.930 . S
C719 N716 1.314 . S
C719 C717 1.353 . S
C719 H775 0.930 . S
C720 N721 1.314 . S
C720 C725 1.353 . S
C720 H726 0.930 . S
N721 Li704 1.990 . S
N721 C720 1.314 . S
N721 C723 1.279 . S
C722 C723 1.358 . S
C722 C724 1.356 . S
C722 H776 0.930 . S
C723 N721 1.279 . S
C723 C722 1.358 . S
C723 H727 0.930 . S
C724 C722 1.356 . S
C724 C725 1.348 . S
C725 C720 1.353 . S
C725 C724 1.348 . S
C725 H777 0.929 . S
H726 C720 0.930 . S
H727 C723 0.930 . S
C728 N729 1.314 . S
C728 C730 1.353 . S
C728 H734 0.930 . S
N729 Li705 1.990 . S
N729 C728 1.314 . S
N729 C732 1.279 . S
C730 C728 1.353 . S
C730 C733 1.348 . S
C730 H778 0.929 . S
C731 C732 1.358 . S
C731 C733 1.356 . S
C731 H779 0.930 . S
C732 N729 1.279 . S
C732 C731 1.358 . S
C732 H735 0.930 . S
C733 C730 1.348 . S
C733 C731 1.356 . S
H734 C728 0.930 . S
H735 C732 0.930 . S
C736 C738 1.348 . S
C736 C739 1.356 . S
C736 O766 1.325 1_655 S
N737 C740 1.314 . S
N737 C741 1.279 . S
C738 C736 1.348 . S
C738 C740 1.353 . S
C738 H780 0.929 . S
C739 C736 1.356 . S
C739 C741 1.358 . S
C739 H781 0.930 . S
C740 N737 1.314 . S
C740 C738 1.353 . S
C740 H782 0.930 . S
C741 N737 1.279 . S
C741 C739 1.358 . S
C741 H783 0.930 . S
C742 C743 1.348 1_455 S
C742 C744 1.356 . S
C742 O767 1.325 . S
C743 C742 1.348 1_655 S
C743 C745 1.353 . S
C743 H784 0.929 . S
C744 C742 1.356 . S
C744 C746 1.358 . S
C744 H785 0.930 . S
C745 C743 1.353 . S
C745 N747 1.314 1_655 S
C745 H786 0.930 . S
C746 C744 1.358 . S
C746 N747 1.279 . S
C746 H787 0.930 . S
N747 C745 1.314 1_455 S
N747 C746 1.279 . S
C748 C750 1.353 . S
C748 N751 1.314 . S
C748 H754 0.930 . S
C749 N751 1.279 . S
C749 C752 1.358 . S
C749 H755 0.930 . S
C750 C748 1.353 . S
C750 C753 1.348 . S
C750 H788 0.929 . S
N751 Li706 1.990 1_655 S
N751 C748 1.314 . S
N751 C749 1.279 . S
C752 C749 1.358 . S
C752 C753 1.356 . S
C752 H789 0.930 . S
C753 C750 1.348 . S
C753 C752 1.356 . S
H754 C748 0.930 . S
H755 C749 0.930 . S
C756 N757 1.314 . S
C756 C758 1.353 . S
C756 H762 0.930 . S
N757 Li707 1.990 . S
N757 C756 1.314 . S
N757 C760 1.279 . S
C758 C756 1.353 . S
C758 C761 1.348 . S
C758 H790 0.929 . S
C759 C760 1.358 . S
C759 C761 1.356 . S
C759 H791 0.930 . S
C760 N757 1.279 . S
C760 C759 1.358 . S
C760 H763 0.930 . S
C761 C758 1.348 . S
C761 C759 1.356 . S
H762 C756 0.930 . S
H763 C760 0.930 . S
O764 Li704 1.956 . S
O764 Li705 1.970 . S
O764 Li706 1.961 . S
O764 C708 1.325 . S
O765 Li704 1.970 . S
O765 Li705 1.956 . S
O765 Li707 1.961 . S
O765 C714 1.325 . S
O766 Li704 1.961 . S
O766 Li706 1.956 . S
O766 Li707 1.970 . S
O766 C736 1.325 1_455 S
O767 Li705 1.961 . S
O767 Li706 1.970 . S
O767 Li707 1.956 . S
O767 C742 1.325 . S
H768 C710 0.929 . S
H769 C711 0.930 . S
H770 C712 0.930 . S
H771 C713 0.930 . S
H772 C715 0.930 . S
H773 C717 0.929 . S
H774 C718 0.930 . S
H775 C719 0.930 . S
H776 C722 0.930 . S
H777 C725 0.929 . S
H778 C730 0.929 . S
H779 C731 0.930 . S
H780 C738 0.929 . S
H781 C739 0.930 . S
H782 C740 0.930 . S
H783 C741 0.930 . S
H784 C743 0.929 . S
H785 C744 0.930 . S
H786 C745 0.930 . S
H787 C746 0.930 . S
H788 C750 0.929 . S
H789 C752 0.930 . S
H790 C758 0.929 . S
H791 C759 0.930 . S
Li792 N809 1.990 1_565 S
Li792 O852 1.956 . S
Li792 O853 1.970 . S
Li792 O854 1.961 . S
Li793 N817 1.990 . S
Li793 O852 1.970 . S
Li793 O853 1.956 . S
Li793 O855 1.961 . S
Li794 N839 1.990 . S
Li794 O852 1.961 . S
Li794 O854 1.956 . S
Li794 O855 1.970 . S
Li795 N845 1.990 . S
Li795 O853 1.961 . S
Li795 O854 1.970 . S
Li795 O855 1.956 . S
C796 C798 1.348 . S
C796 C799 1.356 . S
C796 O852 1.325 . S
N797 C800 1.314 . S
N797 C801 1.279 . S
C798 C796 1.348 . S
C798 C800 1.353 . S
C798 H856 0.929 . S
C799 C796 1.356 . S
C799 C801 1.358 . S
C799 H857 0.930 . S
C800 N797 1.314 . S
C800 C798 1.353 . S
C800 H858 0.930 . S
C801 N797 1.279 . S
C801 C799 1.358 . S
C801 H859 0.930 . S
C802 C805 1.348 1_565 S
C802 C806 1.356 . S
C802 O853 1.325 . S
C803 N804 1.279 . S
C803 C806 1.358 . S
C803 H860 0.930 . S
N804 C803 1.279 . S
N804 C807 1.314 1_565 S
C805 C802 1.348 1_545 S
C805 C807 1.353 . S
C805 H861 0.929 . S
C806 C802 1.356 . S
C806 C803 1.358 . S
C806 H862 0.930 . S
C807 N804 1.314 1_545 S
C807 C805 1.353 . S
C807 H863 0.930 . S
C808 N809 1.314 . S
C808 C813 1.353 . S
C808 H814 0.930 . S
N809 Li792 1.990 1_545 S
N809 C808 1.314 . S
N809 C811 1.279 . S
C810 C811 1.358 . S
C810 C812 1.356 . S
C810 H864 0.930 . S
C811 N809 1.279 . S
C811 C810 1.358 . S
C811 H815 0.930 . S
C812 C810 1.356 . S
C812 C813 1.348 . S
C813 C808 1.353 . S
C813 C812 1.348 . S
C813 H865 0.929 . S
H814 C808 0.930 . S
H815 C811 0.930 . S
C816 N817 1.314 . S
C816 C818 1.353 . S
C816 H822 0.930 . S
N817 Li793 1.990 . S
N817 C816 1.314 . S
N817 C820 1.279 . S
C818 C816 1.353 . S
C818 C821 1.348 . S
C818 H866 0.929 . S
C819 C820 1.358 . S
C819 C821 1.356 . S
C819 H867 0.930 . S
C820 N817 1.279 . S
C820 C819 1.358 . S
C820 H823 0.930 . S
C821 C818 1.348 . S
C821 C819 1.356 . S
H822 C816 0.930 . S
H823 C820 0.930 . S
C824 C826 1.348 . S
C824 C827 1.356 . S
C824 O854 1.325 1_545 S
N825 C828 1.314 . S
N825 C829 1.279 . S
C826 C824 1.348 . S
C826 C828 1.353 . S
C826 H868 0.926 1_545 S
C827 C824 1.356 . S
C827 C829 1.358 . S
C827 H869 0.930 . S
C828 N825 1.314 . S
C828 C826 1.353 . S
C828 H870 0.930 . S
C829 N825 1.279 . S
C829 C827 1.358 . S
C829 H871 0.930 . S
C830 C831 1.348 . S
C830 C832 1.356 . S
C830 O855 1.325 . S
C831 C830 1.348 . S
C831 C833 1.353 . S
C831 H872 0.929 . S
C832 C830 1.356 . S
C832 C834 1.358 . S
C832 H873 0.930 . S
C833 C831 1.353 . S
C833 N835 1.314 . S
C833 H874 0.930 . S
C834 C832 1.358 . S
C834 N835 1.279 . S
C834 H875 0.930 . S
N835 C833 1.314 . S
N835 C834 1.279 . S
C836 C838 1.353 . S
C836 N839 1.314 . S
C836 H842 0.930 . S
C837 N839 1.279 . S
C837 C840 1.358 . S
C837 H843 0.930 . S
C838 C836 1.353 . S
C838 C841 1.348 . S
C838 H876 0.929 . S
N839 Li794 1.990 . S
N839 C836 1.314 . S
N839 C837 1.279 . S
C840 C837 1.358 . S
C840 C841 1.356 . S
C840 H877 0.930 . S
C841 C838 1.348 . S
C841 C840 1.356 . S
H842 C836 0.930 . S
H843 C837 0.930 . S
C844 N845 1.314 . S
C844 C846 1.353 . S
C844 H850 0.930 1_565 S
N845 Li795 1.990 . S
N845 C844 1.314 . S
N845 C848 1.279 . S
C846 C844 1.353 . S
C846 C849 1.348 . S
C846 H878 0.929 1_565 S
C847 C848 1.358 . S
C847 C849 1.356 . S
C847 H879 0.930 . S
C848 N845 1.279 . S
C848 C847 1.358 . S
C848 H851 0.930 . S
C849 C846 1.348 . S
C849 C847 1.356 . S
H850 C844 0.930 1_545 S
H851 C848 0.930 . S
O852 Li792 1.956 . S
O852 Li793 1.970 . S
O852 Li794 1.961 . S
O852 C796 1.325 . S
O853 Li792 1.970 . S
O853 Li793 1.956 . S
O853 Li795 1.961 . S
O853 C802 1.325 . S
O854 Li792 1.961 . S
O854 Li794 1.956 . S
O854 Li795 1.970 . S
O854 C824 1.325 1_565 S
O855 Li793 1.961 . S
O855 Li794 1.970 . S
O855 Li795 1.956 . S
O855 C830 1.325 . S
H856 C798 0.929 . S
H857 C799 0.930 . S
H858 C800 0.930 . S
H859 C801 0.930 . S
H860 C803 0.930 . S
H861 C805 0.929 . S
H862 C806 0.930 . S
H863 C807 0.930 . S
H864 C810 0.930 . S
H865 C813 0.929 . S
H866 C818 0.929 . S
H867 C819 0.930 . S
H868 C826 0.926 1_565 S
H869 C827 0.930 . S
H870 C828 0.930 . S
H871 C829 0.930 . S
H872 C831 0.929 . S
H873 C832 0.930 . S
H874 C833 0.930 . S
H875 C834 0.930 . S
H876 C838 0.929 . S
H877 C840 0.930 . S
H878 C846 0.929 1_545 S
H879 C847 0.930 . S
Li880 N897 1.990 . S
Li880 O940 1.956 . S
Li880 O941 1.970 . S
Li880 O942 1.961 . S
Li881 N905 1.990 1_455 S
Li881 O940 1.970 . S
Li881 O941 1.956 . S
Li881 O943 1.961 . S
Li882 N927 1.990 . S
Li882 O940 1.961 . S
Li882 O942 1.956 . S
Li882 O943 1.970 . S
Li883 N933 1.990 . S
Li883 O941 1.961 . S
Li883 O942 1.970 . S
Li883 O943 1.956 . S
C884 C886 1.348 1_455 S
C884 C887 1.356 . S
C884 O940 1.325 . S
N885 C888 1.314 1_455 S
N885 C889 1.279 . S
C886 C884 1.348 1_655 S
C886 C888 1.353 . S
C886 H944 0.929 . S
C887 C884 1.356 . S
C887 C889 1.358 . S
C887 H945 0.930 . S
C888 N885 1.314 1_655 S
C888 C886 1.353 . S
C888 H946 0.930 . S
C889 N885 1.279 . S
C889 C887 1.358 . S
C889 H947 0.930 . S
C890 C893 1.348 . S
C890 C894 1.356 . S
C890 O941 1.325 . S
C891 N892 1.279 . S
C891 C894 1.358 . S
C891 H948 0.930 . S
N892 C891 1.279 . S
N892 C895 1.314 . S
C893 C890 1.348 . S
C893 C895 1.353 . S
C893 H949 0.929 . S
C894 C890 1.356 . S
C894 C891 1.358 . S
C894 H950 0.930 . S
C895 N892 1.314 . S
C895 C893 1.353 . S
C895 H951 0.930 . S
C896 N897 1.314 . S
C896 C901 1.353 . S
C896 H902 0.930 . S
N897 Li880 1.990 . S
N897 C896 1.314 . S
N897 C899 1.279 . S
C898 C899 1.358 . S
C898 C900 1.356 . S
C898 H952 0.930 . S
C899 N897 1.279 . S
C899 C898 1.358 . S
C899 H903 0.930 . S
C900 C898 1.356 . S
C900 C901 1.348 . S
C901 C896 1.353 . S
C901 C900 1.348 . S
C901 H953 0.929 . S
H902 C896 0.930 . S
H903 C899 0.930 . S
C904 N905 1.314 . S
C904 C906 1.353 . S
C904 H910 0.930 . S
N905 Li881 1.990 1_655 S
N905 C904 1.314 . S
N905 C908 1.279 . S
C906 C904 1.353 . S
C906 C909 1.348 . S
C906 H954 0.929 . S
C907 C908 1.358 . S
C907 C909 1.356 . S
C907 H955 0.930 . S
C908 N905 1.279 . S
C908 C907 1.358 . S
C908 H911 0.930 . S
C909 C906 1.348 . S
C909 C907 1.356 . S
H910 C904 0.930 . S
H911 C908 0.930 . S
C912 C914 1.348 . S
C912 C915 1.356 . S
C912 O942 1.325 . S
N913 C916 1.314 . S
N913 C917 1.279 . S
C914 C912 1.348 . S
C914 C916 1.353 . S
C914 H956 0.929 . S
C915 C912 1.356 . S
C915 C917 1.358 . S
C915 H957 0.930 . S
C916 N913 1.314 . S
C916 C914 1.353 . S
C916 H958 0.930 . S
C917 N913 1.279 . S
C917 C915 1.358 . S
C917 H959 0.930 . S
C918 C919 1.348 . S
C918 C920 1.356 . S
C918 O943 1.325 1_655 S
C919 C918 1.348 . S
C919 C921 1.353 . S
C919 H960 0.988 . S
C920 C918 1.356 . S
C920 C922 1.358 . S
C920 H961 0.930 . S
C921 C919 1.353 . S
C921 N923 1.314 . S
C921 H962 0.930 . S
C922 C920 1.358 . S
C922 N923 1.279 . S
C922 H963 0.930 . S
N923 C921 1.314 . S
N923 C922 1.279 . S
C924 C926 1.353 . S
C924 N927 1.314 . S
C924 H930 0.930 1_455 S
C925 N927 1.279 . S
C925 C928 1.358 . S
C925 H931 0.930 . S
C926 C924 1.353 . S
C926 C929 1.348 . S
C926 H964 0.929 1_455 S
N927 Li882 1.990 . S
N927 C924 1.314 . S
N927 C925 1.279 . S
C928 C925 1.358 . S
C928 C929 1.356 . S
C928 H965 0.930 . S
C929 C926 1.348 . S
C929 C928 1.356 . S
H930 C924 0.930 1_655 S
H931 C925 0.930 . S
C932 N933 1.314 . S
C932 C934 1.353 . S
C932 H938 0.930 . S
N933 Li883 1.990 . S
N933 C932 1.314 . S
N933 C936 1.279 . S
C934 C932 1.353 . S
C934 C937 1.348 . S
C934 H966 0.929 . S
C935 C936 1.358 . S
C935 C937 1.356 . S
C935 H967 0.930 . S
C936 N933 1.279 . S
C936 C935 1.358 . S
C936 H939 0.930 . S
C937 C934 1.348 . S
C937 C935 1.356 . S
H938 C932 0.930 . S
H939 C936 0.930 . S
O940 Li880 1.956 . S
O940 Li881 1.970 . S
O940 Li882 1.961 . S
O940 C884 1.325 . S
O941 Li880 1.970 . S
O941 Li881 1.956 . S
O941 Li883 1.961 . S
O941 C890 1.325 . S
O942 Li880 1.961 . S
O942 Li882 1.956 . S
O942 Li883 1.970 . S
O942 C912 1.325 . S
O943 Li881 1.961 . S
O943 Li882 1.970 . S
O943 Li883 1.956 . S
O943 C918 1.325 1_455 S
H944 C886 0.929 . S
H945 C887 0.930 . S
H946 C888 0.930 . S
H947 C889 0.930 . S
H948 C891 0.930 . S
H949 C893 0.929 . S
H950 C894 0.930 . S
H951 C895 0.930 . S
H952 C898 0.930 . S
H953 C901 0.929 . S
H954 C906 0.929 . S
H955 C907 0.930 . S
H956 C914 0.929 . S
H957 C915 0.930 . S
H958 C916 0.930 . S
H959 C917 0.930 . S
H960 C919 0.988 . S
H961 C920 0.930 . S
H962 C921 0.930 . S
H963 C922 0.930 . S
H964 C926 0.929 1_655 S
H965 C928 0.930 . S
H966 C934 0.929 . S
H967 C935 0.930 . S
Li968 N985 1.990 . S
Li968 O1028 1.956 . S
Li968 O1029 1.970 . S
Li968 O1030 1.961 . S
Li969 N993 1.990 . S
Li969 O1028 1.970 . S
Li969 O1029 1.956 . S
Li969 O1031 1.961 . S
Li970 N1015 1.990 . S
Li970 O1028 1.961 . S
Li970 O1030 1.956 . S
Li970 O1031 1.970 . S
Li971 N1021 1.990 . S
Li971 O1029 1.961 . S
Li971 O1030 1.970 . S
Li971 O1031 1.956 . S
C972 C974 1.348 . S
C972 C975 1.356 . S
C972 O1028 1.325 . S
N973 C976 1.314 . S
N973 C977 1.279 . S
C974 C972 1.348 . S
C974 C976 1.353 . S
C974 H1032 0.929 . S
C975 C972 1.356 . S
C975 C977 1.358 . S
C975 H1033 0.930 . S
C976 N973 1.314 . S
C976 C974 1.353 . S
C976 H1034 0.930 . S
C977 N973 1.279 . S
C977 C975 1.358 . S
C977 H1035 0.930 . S
C978 C981 1.348 . S
C978 C982 1.356 . S
C978 O1029 1.325 . S
C979 N980 1.279 . S
C979 C982 1.358 . S
C979 H1036 0.930 . S
N980 C979 1.279 . S
N980 C983 1.314 . S
C981 C978 1.348 . S
C981 C983 1.353 . S
C981 H1037 0.929 . S
C982 C978 1.356 . S
C982 C979 1.358 . S
C982 H1038 0.930 . S
C983 N980 1.314 . S
C983 C981 1.353 . S
C983 H1039 0.930 . S
C984 N985 1.314 . S
C984 C989 1.353 . S
C984 H990 0.930 . S
N985 Li968 1.990 . S
N985 C984 1.314 . S
N985 C987 1.279 . S
C986 C987 1.358 . S
C986 C988 1.356 . S
C986 H1040 0.930 . S
C987 N985 1.279 . S
C987 C986 1.358 . S
C987 H991 0.930 . S
C988 C986 1.356 . S
C988 C989 1.348 . S
C989 C984 1.353 . S
C989 C988 1.348 . S
C989 H1041 0.929 . S
H990 C984 0.930 . S
H991 C987 0.930 . S
C992 N993 1.314 . S
C992 C994 1.353 . S
C992 H998 0.930 . S
N993 Li969 1.990 . S
N993 C992 1.314 . S
N993 C996 1.279 . S
C994 C992 1.353 . S
C994 C997 1.348 . S
C994 H1042 0.929 . S
C995 C996 1.358 . S
C995 C997 1.356 . S
C995 H1043 0.930 . S
C996 N993 1.279 . S
C996 C995 1.358 . S
C996 H999 0.930 . S
C997 C994 1.348 . S
C997 C995 1.356 . S
H998 C992 0.930 . S
H999 C996 0.930 . S
C1000 C1002 1.348 . S
C1000 C1003 1.356 . S
C1000 O1030 1.325 . S
N1001 C1004 1.314 . S
N1001 C1005 1.279 . S
C1002 C1000 1.348 . S
C1002 C1004 1.353 . S
C1002 H1044 0.929 . S
C1003 C1000 1.356 . S
C1003 C1005 1.358 . S
C1003 H1045 0.930 . S
C1004 N1001 1.314 . S
C1004 C1002 1.353 . S
C1004 H1046 0.930 . S
C1005 N1001 1.279 . S
C1005 C1003 1.358 . S
C1005 H1047 0.930 . S
C1006 C1007 1.348 . S
C1006 C1008 1.356 . S
C1006 O1031 1.325 . S
C1007 C1006 1.348 . S
C1007 C1009 1.353 . S
C1007 H1048 0.929 . S
C1008 C1006 1.356 . S
C1008 C1010 1.358 . S
C1008 H1049 0.930 . S
C1009 C1007 1.353 . S
C1009 N1011 1.314 . S
C1009 H1050 0.930 . S
C1010 C1008 1.358 . S
C1010 N1011 1.279 . S
C1010 H1051 0.930 . S
N1011 C1009 1.314 . S
N1011 C1010 1.279 . S
C1012 C1014 1.353 . S
C1012 N1015 1.314 . S
C1012 H1018 0.930 . S
C1013 N1015 1.279 . S
C1013 C1016 1.358 . S
C1013 H1019 0.930 . S
C1014 C1012 1.353 . S
C1014 C1017 1.348 . S
C1014 H1052 0.929 . S
N1015 Li970 1.990 . S
N1015 C1012 1.314 . S
N1015 C1013 1.279 . S
C1016 C1013 1.358 . S
C1016 C1017 1.356 . S
C1016 H1053 0.930 . S
C1017 C1014 1.348 . S
C1017 C1016 1.356 . S
H1018 C1012 0.930 . S
H1019 C1013 0.930 . S
C1020 N1021 1.314 . S
C1020 C1022 1.353 . S
C1020 H1026 0.930 . S
N1021 Li971 1.990 . S
N1021 C1020 1.314 . S
N1021 C1024 1.279 . S
C1022 C1020 1.353 . S
C1022 C1025 1.348 . S
C1022 H1054 0.929 . S
C1023 C1024 1.358 . S
C1023 C1025 1.356 . S
C1023 H1055 0.930 . S
C1024 N1021 1.279 . S
C1024 C1023 1.358 . S
C1024 H1027 0.930 . S
C1025 C1022 1.348 . S
C1025 C1023 1.356 . S
H1026 C1020 0.930 . S
H1027 C1024 0.930 . S
O1028 Li968 1.956 . S
O1028 Li969 1.970 . S
O1028 Li970 1.961 . S
O1028 C972 1.325 . S
O1029 Li968 1.970 . S
O1029 Li969 1.956 . S
O1029 Li971 1.961 . S
O1029 C978 1.325 . S
O1030 Li968 1.961 . S
O1030 Li970 1.956 . S
O1030 Li971 1.970 . S
O1030 C1000 1.325 . S
O1031 Li969 1.961 . S
O1031 Li970 1.970 . S
O1031 Li971 1.956 . S
O1031 C1006 1.325 . S
H1032 C974 0.929 . S
H1033 C975 0.930 . S
H1034 C976 0.930 . S
H1035 C977 0.930 . S
H1036 C979 0.930 . S
H1037 C981 0.929 . S
H1038 C982 0.930 . S
H1039 C983 0.930 . S
H1040 C986 0.930 . S
H1041 C989 0.929 . S
H1042 C994 0.929 . S
H1043 C995 0.930 . S
H1044 C1002 0.929 . S
H1045 C1003 0.930 . S
H1046 C1004 0.930 . S
H1047 C1005 0.930 . S
H1048 C1007 0.929 . S
H1049 C1008 0.930 . S
H1050 C1009 0.930 . S
H1051 C1010 0.930 . S
H1052 C1014 0.929 . S
H1053 C1016 0.930 . S
H1054 C1022 0.929 . S
H1055 C1023 0.930 . S
Li1056 N1073 1.990 1_545 S
Li1056 O1116 1.956 . S
Li1056 O1117 1.970 . S
Li1056 O1118 1.961 . S
Li1057 N1081 1.990 . S
Li1057 O1116 1.970 . S
Li1057 O1117 1.956 . S
Li1057 O1119 1.961 . S
Li1058 N1103 1.990 . S
Li1058 O1116 1.961 . S
Li1058 O1118 1.956 . S
Li1058 O1119 1.970 . S
Li1059 N1109 1.990 . S
Li1059 O1117 1.961 . S
Li1059 O1118 1.970 . S
Li1059 O1119 1.956 . S
C1060 C1062 1.348 . S
C1060 C1063 1.356 . S
C1060 O1116 1.325 1_565 S
N1061 C1064 1.314 . S
N1061 C1065 1.279 . S
C1062 C1060 1.348 . S
C1062 C1064 1.353 . S
C1062 H1120 0.929 . S
C1063 C1060 1.356 . S
C1063 C1065 1.358 . S
C1063 H1121 0.930 . S
C1064 N1061 1.314 . S
C1064 C1062 1.353 . S
C1064 H1122 0.930 . S
C1065 N1061 1.279 . S
C1065 C1063 1.358 . S
C1065 H1123 0.930 . S
C1066 C1069 1.348 1_545 S
C1066 C1070 1.356 . S
C1066 O1117 1.325 . S
C1067 N1068 1.279 . S
C1067 C1070 1.358 . S
C1067 H1124 0.930 . S
N1068 C1067 1.279 . S
N1068 C1071 1.314 1_545 S
C1069 C1066 1.348 1_565 S
C1069 C1071 1.353 . S
C1069 H1125 0.929 . S
C1070 C1066 1.356 . S
C1070 C1067 1.358 . S
C1070 H1126 0.930 . S
C1071 N1068 1.314 1_565 S
C1071 C1069 1.353 . S
C1071 H1127 0.930 . S
C1072 N1073 1.314 . S
C1072 C1077 1.353 . S
C1072 H1078 0.930 . S
N1073 Li1056 1.990 1_565 S
N1073 C1072 1.314 . S
N1073 C1075 1.279 . S
C1074 C1075 1.358 . S
C1074 C1076 1.356 . S
C1074 H1128 0.930 . S
C1075 N1073 1.279 . S
C1075 C1074 1.358 . S
C1075 H1079 0.930 . S
C1076 C1074 1.356 . S
C1076 C1077 1.348 . S
C1077 C1072 1.353 . S
C1077 C1076 1.348 . S
C1077 H1129 0.929 . S
H1078 C1072 0.930 . S
H1079 C1075 0.930 . S
C1080 N1081 1.314 . S
C1080 C1082 1.353 . S
C1080 H1086 0.930 . S
N1081 Li1057 1.990 . S
N1081 C1080 1.314 . S
N1081 C1084 1.279 . S
C1082 C1080 1.353 . S
C1082 C1085 1.348 . S
C1082 H1130 0.929 . S
C1083 C1084 1.358 . S
C1083 C1085 1.356 . S
C1083 H1131 0.930 . S
C1084 N1081 1.279 . S
C1084 C1083 1.358 . S
C1084 H1087 0.930 . S
C1085 C1082 1.348 . S
C1085 C1083 1.356 . S
H1086 C1080 0.930 . S
H1087 C1084 0.930 . S
C1088 C1090 1.348 . S
C1088 C1091 1.356 . S
C1088 O1118 1.325 . S
N1089 C1092 1.314 . S
N1089 C1093 1.279 . S
C1090 C1088 1.348 . S
C1090 C1092 1.353 . S
C1090 H1132 0.929 . S
C1091 C1088 1.356 . S
C1091 C1093 1.358 . S
C1091 H1133 0.930 . S
C1092 N1089 1.314 . S
C1092 C1090 1.353 . S
C1092 H1134 0.930 . S
C1093 N1089 1.279 . S
C1093 C1091 1.358 . S
C1093 H1135 0.930 . S
C1094 C1095 1.348 . S
C1094 C1096 1.356 . S
C1094 O1119 1.325 . S
C1095 C1094 1.348 . S
C1095 C1097 1.353 . S
C1095 H1136 0.929 . S
C1096 C1094 1.356 . S
C1096 C1098 1.358 . S
C1096 H1137 0.930 . S
C1097 C1095 1.353 . S
C1097 N1099 1.314 . S
C1097 H1138 0.930 . S
C1098 C1096 1.358 . S
C1098 N1099 1.279 . S
C1098 H1139 0.930 . S
N1099 C1097 1.314 . S
N1099 C1098 1.279 . S
C1100 C1102 1.353 . S
C1100 N1103 1.314 . S
C1100 H1106 0.930 . S
C1101 N1103 1.279 . S
C1101 C1104 1.358 . S
C1101 H1107 0.930 . S
C1102 C1100 1.353 . S
C1102 C1105 1.348 . S
C1102 H1140 0.929 . S
N1103 Li1058 1.990 . S
N1103 C1100 1.314 . S
N1103 C1101 1.279 . S
C1104 C1101 1.358 . S
C1104 C1105 1.356 . S
C1104 H1141 0.930 . S
C1105 C1102 1.348 . S
C1105 C1104 1.356 . S
H1106 C1100 0.930 . S
H1107 C1101 0.930 . S
C1108 N1109 1.314 . S
C1108 C1110 1.353 . S
C1108 H1114 0.930 . S
N1109 Li1059 1.990 . S
N1109 C1108 1.314 . S
N1109 C1112 1.279 . S
C1110 C1108 1.353 . S
C1110 C1113 1.348 . S
C1110 H1142 0.929 . S
C1111 C1112 1.358 . S
C1111 C1113 1.356 . S
C1111 H1143 0.930 . S
C1112 N1109 1.279 . S
C1112 C1111 1.358 . S
C1112 H1115 0.930 . S
C1113 C1110 1.348 . S
C1113 C1111 1.356 . S
H1114 C1108 0.930 . S
H1115 C1112 0.930 . S
O1116 Li1056 1.956 . S
O1116 Li1057 1.970 . S
O1116 Li1058 1.961 . S
O1116 C1060 1.325 1_545 S
O1117 Li1056 1.970 . S
O1117 Li1057 1.956 . S
O1117 Li1059 1.961 . S
O1117 C1066 1.325 . S
O1118 Li1056 1.961 . S
O1118 Li1058 1.956 . S
O1118 Li1059 1.970 . S
O1118 C1088 1.325 . S
O1119 Li1057 1.961 . S
O1119 Li1058 1.970 . S
O1119 Li1059 1.956 . S
O1119 C1094 1.325 . S
H1120 C1062 0.929 . S
H1121 C1063 0.930 . S
H1122 C1064 0.930 . S
H1123 C1065 0.930 . S
H1124 C1067 0.930 . S
H1125 C1069 0.929 . S
H1126 C1070 0.930 . S
H1127 C1071 0.930 . S
H1128 C1074 0.930 . S
H1129 C1077 0.929 . S
H1130 C1082 0.929 . S
H1131 C1083 0.930 . S
H1132 C1090 0.929 . S
H1133 C1091 0.930 . S
H1134 C1092 0.930 . S
H1135 C1093 0.930 . S
H1136 C1095 0.929 . S
H1137 C1096 0.930 . S
H1138 C1097 0.930 . S
H1139 C1098 0.930 . S
H1140 C1102 0.929 . S
H1141 C1104 0.930 . S
H1142 C1110 0.929 . S
H1143 C1111 0.930 . S
Li1144 N1161 1.990 . S
Li1144 O1204 1.956 1_455 S
Li1144 O1205 1.970 1_455 S
Li1144 O1206 1.961 1_455 S
Li1145 N1169 1.990 . S
Li1145 O1204 1.970 . S
Li1145 O1205 1.956 . S
Li1145 O1207 1.961 . S
Li1146 N1191 1.990 . S
Li1146 O1204 1.961 . S
Li1146 O1206 1.956 . S
Li1146 O1207 1.970 . S
Li1147 N1197 1.990 . S
Li1147 O1205 1.961 . S
Li1147 O1206 1.970 . S
Li1147 O1207 1.956 . S
C1148 C1150 1.348 . S
C1148 C1151 1.356 . S
C1148 O1204 1.325 1_455 S
N1149 C1152 1.314 . S
N1149 C1153 1.279 . S
C1150 C1148 1.348 . S
C1150 C1152 1.353 . S
C1150 H1208 0.929 . S
C1151 C1148 1.356 . S
C1151 C1153 1.358 . S
C1151 H1209 0.930 . S
C1152 N1149 1.314 . S
C1152 C1150 1.353 . S
C1152 H1210 0.930 . S
C1153 N1149 1.279 . S
C1153 C1151 1.358 . S
C1153 H1211 0.930 . S
C1154 C1157 1.348 1_655 S
C1154 C1158 1.356 . S
C1154 O1205 1.325 . S
C1155 N1156 1.279 1_655 S
C1155 C1158 1.358 . S
C1155 H1212 0.930 . S
N1156 C1155 1.279 1_455 S
N1156 C1159 1.314 . S
C1157 C1154 1.348 1_455 S
C1157 C1159 1.353 . S
C1157 H1213 0.929 . S
C1158 C1154 1.356 . S
C1158 C1155 1.358 . S
C1158 H1214 0.930 . S
C1159 N1156 1.314 . S
C1159 C1157 1.353 . S
C1159 H1215 0.930 . S
C1160 N1161 1.314 . S
C1160 C1165 1.353 . S
C1160 H1166 0.930 . S
N1161 Li1144 1.990 . S
N1161 C1160 1.314 . S
N1161 C1163 1.279 . S
C1162 C1163 1.358 . S
C1162 C1164 1.356 . S
C1162 H1216 0.930 . S
C1163 N1161 1.279 . S
C1163 C1162 1.358 . S
C1163 H1167 0.930 . S
C1164 C1162 1.356 . S
C1164 C1165 1.348 . S
C1165 C1160 1.353 . S
C1165 C1164 1.348 . S
C1165 H1217 0.929 . S
H1166 C1160 0.930 . S
H1167 C1163 0.930 . S
C1168 N1169 1.314 . S
C1168 C1170 1.353 . S
C1168 H1174 0.930 . S
N1169 Li1145 1.990 . S
N1169 C1168 1.314 . S
N1169 C1172 1.279 . S
C1170 C1168 1.353 . S
C1170 C1173 1.348 . S
C1170 H1218 0.929 . S
C1171 C1172 1.358 . S
C1171 C1173 1.356 . S
C1171 H1219 0.931 . S
C1172 N1169 1.279 . S
C1172 C1171 1.358 . S
C1172 H1175 0.930 . S
C1173 C1170 1.348 . S
C1173 C1171 1.356 . S
H1174 C1168 0.930 . S
H1175 C1172 0.930 . S
C1176 C1178 1.348 . S
C1176 C1179 1.356 . S
C1176 O1206 1.325 . S
N1177 C1180 1.314 . S
N1177 C1181 1.279 . S
C1178 C1176 1.348 . S
C1178 C1180 1.353 . S
C1178 H1220 0.929 . S
C1179 C1176 1.356 . S
C1179 C1181 1.358 . S
C1179 H1221 0.930 1_655 S
C1180 N1177 1.314 . S
C1180 C1178 1.353 . S
C1180 H1222 0.930 . S
C1181 N1177 1.279 . S
C1181 C1179 1.358 . S
C1181 H1223 1.001 . S
C1182 C1183 1.348 . S
C1182 C1184 1.356 . S
C1182 O1207 1.325 . S
C1183 C1182 1.348 . S
C1183 C1185 1.353 . S
C1183 H1224 0.929 . S
C1184 C1182 1.356 . S
C1184 C1186 1.358 . S
C1184 H1225 0.930 . S
C1185 C1183 1.353 . S
C1185 N1187 1.314 . S
C1185 H1226 0.930 . S
C1186 C1184 1.358 . S
C1186 N1187 1.279 . S
C1186 H1227 0.930 . S
N1187 C1185 1.314 . S
N1187 C1186 1.279 . S
C1188 C1190 1.353 . S
C1188 N1191 1.314 . S
C1188 H1194 0.930 . S
C1189 N1191 1.279 . S
C1189 C1192 1.358 . S
C1189 H1195 0.930 . S
C1190 C1188 1.353 . S
C1190 C1193 1.348 . S
C1190 H1228 0.929 . S
N1191 Li1146 1.990 . S
N1191 C1188 1.314 . S
N1191 C1189 1.279 . S
C1192 C1189 1.358 . S
C1192 C1193 1.356 . S
C1192 H1229 0.930 . S
C1193 C1190 1.348 . S
C1193 C1192 1.356 . S
H1194 C1188 0.930 . S
H1195 C1189 0.930 . S
C1196 N1197 1.314 . S
C1196 C1198 1.353 . S
C1196 H1202 0.930 . S
N1197 Li1147 1.990 . S
N1197 C1196 1.314 . S
N1197 C1200 1.279 . S
C1198 C1196 1.353 . S
C1198 C1201 1.348 . S
C1198 H1230 0.929 . S
C1199 C1200 1.358 . S
C1199 C1201 1.356 . S
C1199 H1231 0.930 . S
C1200 N1197 1.279 . S
C1200 C1199 1.358 . S
C1200 H1203 0.930 . S
C1201 C1198 1.348 . S
C1201 C1199 1.356 . S
H1202 C1196 0.930 . S
H1203 C1200 0.930 . S
O1204 Li1144 1.956 1_655 S
O1204 Li1145 1.970 . S
O1204 Li1146 1.961 . S
O1204 C1148 1.325 1_655 S
O1205 Li1144 1.970 1_655 S
O1205 Li1145 1.956 . S
O1205 Li1147 1.961 . S
O1205 C1154 1.325 . S
O1206 Li1144 1.961 1_655 S
O1206 Li1146 1.956 . S
O1206 Li1147 1.970 . S
O1206 C1176 1.325 . S
O1207 Li1145 1.961 . S
O1207 Li1146 1.970 . S
O1207 Li1147 1.956 . S
O1207 C1182 1.325 . S
H1208 C1150 0.929 . S
H1209 C1151 0.930 . S
H1210 C1152 0.930 . S
H1211 C1153 0.930 . S
H1212 C1155 0.930 . S
H1213 C1157 0.929 . S
H1214 C1158 0.930 . S
H1215 C1159 0.930 . S
H1216 C1162 0.930 . S
H1217 C1165 0.929 . S
H1218 C1170 0.929 . S
H1219 C1171 0.931 . S
H1220 C1178 0.929 . S
H1221 C1179 0.930 1_455 S
H1222 C1180 0.930 . S
H1223 C1181 1.001 . S
H1224 C1183 0.929 . S
H1225 C1184 0.930 . S
H1226 C1185 0.930 . S
H1227 C1186 0.930 . S
H1228 C1190 0.929 . S
H1229 C1192 0.930 . S
H1230 C1198 0.929 . S
H1231 C1199 0.930 . S
Li1232 N1249 1.990 . S
Li1232 O1292 1.956 . S
Li1232 O1293 1.970 . S
Li1232 O1294 1.961 . S
Li1233 N1257 1.990 . S
Li1233 O1292 1.970 . S
Li1233 O1293 1.956 . S
Li1233 O1295 1.961 . S
Li1234 N1279 1.990 . S
Li1234 O1292 1.961 . S
Li1234 O1294 1.956 . S
Li1234 O1295 1.970 . S
Li1235 N1285 1.990 . S
Li1235 O1293 1.961 . S
Li1235 O1294 1.970 . S
Li1235 O1295 1.956 . S
C1236 C1238 1.348 . S
C1236 C1239 1.356 . S
C1236 O1292 1.325 . S
N1237 C1240 1.314 . S
N1237 C1241 1.279 . S
C1238 C1236 1.348 . S
C1238 C1240 1.353 . S
C1238 H1296 0.929 . S
C1239 C1236 1.356 . S
C1239 C1241 1.358 . S
C1239 H1297 0.930 . S
C1240 N1237 1.314 . S
C1240 C1238 1.353 . S
C1240 H1298 0.930 . S
C1241 N1237 1.279 . S
C1241 C1239 1.358 . S
C1241 H1299 0.930 . S
C1242 C1245 1.348 . S
C1242 C1246 1.356 . S
C1242 O1293 1.325 . S
C1243 N1244 1.279 . S
C1243 C1246 1.358 . S
C1243 H1300 0.930 . S
N1244 C1243 1.279 . S
N1244 C1247 1.314 . S
C1245 C1242 1.348 . S
C1245 C1247 1.353 . S
C1245 H1301 0.929 . S
C1246 C1242 1.356 . S
C1246 C1243 1.358 . S
C1246 H1302 0.930 . S
C1247 N1244 1.314 . S
C1247 C1245 1.353 . S
C1247 H1303 0.930 . S
C1248 N1249 1.314 . S
C1248 C1253 1.353 . S
C1248 H1254 0.930 . S
N1249 Li1232 1.990 . S
N1249 C1248 1.314 . S
N1249 C1251 1.279 . S
C1250 C1251 1.358 . S
C1250 C1252 1.356 . S
C1250 H1304 0.930 . S
C1251 N1249 1.279 . S
C1251 C1250 1.358 . S
C1251 H1255 0.930 . S
C1252 C1250 1.356 . S
C1252 C1253 1.348 . S
C1253 C1248 1.353 . S
C1253 C1252 1.348 . S
C1253 H1305 0.929 . S
H1254 C1248 0.930 . S
H1255 C1251 0.930 . S
C1256 N1257 1.314 . S
C1256 C1258 1.353 . S
C1256 H1262 0.930 . S
N1257 Li1233 1.990 . S
N1257 C1256 1.314 . S
N1257 C1260 1.279 . S
C1258 C1256 1.353 . S
C1258 C1261 1.348 . S
C1258 H1306 0.929 . S
C1259 C1260 1.358 . S
C1259 C1261 1.356 . S
C1259 H1307 0.930 . S
C1260 N1257 1.279 . S
C1260 C1259 1.358 . S
C1260 H1263 0.930 . S
C1261 C1258 1.348 . S
C1261 C1259 1.356 . S
H1262 C1256 0.930 . S
H1263 C1260 0.930 . S
C1264 C1266 1.348 . S
C1264 C1267 1.356 . S
C1264 O1294 1.325 . S
N1265 C1268 1.314 . S
N1265 C1269 1.279 . S
C1266 C1264 1.348 . S
C1266 C1268 1.353 . S
C1266 H1308 0.929 . S
C1267 C1264 1.356 . S
C1267 C1269 1.358 . S
C1267 H1309 0.930 . S
C1268 N1265 1.314 . S
C1268 C1266 1.353 . S
C1268 H1310 0.930 . S
C1269 N1265 1.279 . S
C1269 C1267 1.358 . S
C1269 H1311 0.930 . S
C1270 C1271 1.348 . S
C1270 C1272 1.356 . S
C1270 O1295 1.325 . S
C1271 C1270 1.348 . S
C1271 C1273 1.353 . S
C1271 H1312 0.929 . S
C1272 C1270 1.356 . S
C1272 C1274 1.358 . S
C1272 H1313 0.930 . S
C1273 C1271 1.353 . S
C1273 N1275 1.314 . S
C1273 H1314 0.930 . S
C1274 C1272 1.358 . S
C1274 N1275 1.279 . S
C1274 H1315 0.930 . S
N1275 C1273 1.314 . S
N1275 C1274 1.279 . S
C1276 C1278 1.353 . S
C1276 N1279 1.314 . S
C1276 H1282 0.930 . S
C1277 N1279 1.279 . S
C1277 C1280 1.358 . S
C1277 H1283 0.930 . S
C1278 C1276 1.353 . S
C1278 C1281 1.348 . S
C1278 H1316 0.929 . S
N1279 Li1234 1.990 . S
N1279 C1276 1.314 . S
N1279 C1277 1.279 . S
C1280 C1277 1.358 . S
C1280 C1281 1.356 . S
C1280 H1317 0.930 . S
C1281 C1278 1.348 . S
C1281 C1280 1.356 . S
H1282 C1276 0.930 . S
H1283 C1277 0.930 . S
C1284 N1285 1.314 . S
C1284 C1286 1.353 . S
C1284 H1290 0.930 . S
N1285 Li1235 1.990 . S
N1285 C1284 1.314 . S
N1285 C1288 1.279 . S
C1286 C1284 1.353 . S
C1286 C1289 1.348 . S
C1286 H1318 0.929 . S
C1287 C1288 1.358 . S
C1287 C1289 1.356 . S
C1287 H1319 0.930 . S
C1288 N1285 1.279 . S
C1288 C1287 1.358 . S
C1288 H1291 0.930 . S
C1289 C1286 1.348 . S
C1289 C1287 1.356 . S
H1290 C1284 0.930 . S
H1291 C1288 0.930 . S
O1292 Li1232 1.956 . S
O1292 Li1233 1.970 . S
O1292 Li1234 1.961 . S
O1292 C1236 1.325 . S
O1293 Li1232 1.970 . S
O1293 Li1233 1.956 . S
O1293 Li1235 1.961 . S
O1293 C1242 1.325 . S
O1294 Li1232 1.961 . S
O1294 Li1234 1.956 . S
O1294 Li1235 1.970 . S
O1294 C1264 1.325 . S
O1295 Li1233 1.961 . S
O1295 Li1234 1.970 . S
O1295 Li1235 1.956 . S
O1295 C1270 1.325 . S
H1296 C1238 0.929 . S
H1297 C1239 0.930 . S
H1298 C1240 0.930 . S
H1299 C1241 0.930 . S
H1300 C1243 0.930 . S
H1301 C1245 0.929 . S
H1302 C1246 0.930 . S
H1303 C1247 0.930 . S
H1304 C1250 0.930 . S
H1305 C1253 0.929 . S
H1306 C1258 0.929 . S
H1307 C1259 0.930 . S
H1308 C1266 0.929 . S
H1309 C1267 0.930 . S
H1310 C1268 0.930 . S
H1311 C1269 0.930 . S
H1312 C1271 0.929 . S
H1313 C1272 0.930 . S
H1314 C1273 0.930 . S
H1315 C1274 0.930 . S
H1316 C1278 0.929 . S
H1317 C1280 0.930 . S
H1318 C1286 0.929 . S
H1319 C1287 0.930 . S
Li1320 N1337 1.990 . S
Li1320 O1380 1.956 . S
Li1320 O1381 1.970 . S
Li1320 O1382 1.961 . S
Li1321 N1345 1.990 . S
Li1321 O1380 1.970 . S
Li1321 O1381 1.956 . S
Li1321 O1383 1.961 . S
Li1322 N1367 1.990 . S
Li1322 O1380 1.961 . S
Li1322 O1382 1.956 . S
Li1322 O1383 1.970 . S
Li1323 N1373 1.990 . S
Li1323 O1381 1.961 . S
Li1323 O1382 1.970 . S
Li1323 O1383 1.956 . S
C1324 C1326 1.348 . S
C1324 C1327 1.356 . S
C1324 O1380 1.325 . S
N1325 C1328 1.314 . S
N1325 C1329 1.279 . S
C1326 C1324 1.348 . S
C1326 C1328 1.353 . S
C1326 H1384 0.929 . S
C1327 C1324 1.356 . S
C1327 C1329 1.358 . S
C1327 H1385 0.930 . S
C1328 N1325 1.314 . S
C1328 C1326 1.353 . S
C1328 H1386 0.930 . S
C1329 N1325 1.279 . S
C1329 C1327 1.358 . S
C1329 H1387 0.930 . S
C1330 C1333 1.348 . S
C1330 C1334 1.356 . S
C1330 O1381 1.325 . S
C1331 N1332 1.279 . S
C1331 C1334 1.358 . S
C1331 H1388 0.930 . S
N1332 C1331 1.279 . S
N1332 C1335 1.314 . S
C1333 C1330 1.348 . S
C1333 C1335 1.353 . S
C1333 H1389 0.929 . S
C1334 C1330 1.356 . S
C1334 C1331 1.358 . S
C1334 H1390 0.930 . S
C1335 N1332 1.314 . S
C1335 C1333 1.353 . S
C1335 H1391 0.930 . S
C1336 N1337 1.314 . S
C1336 C1341 1.353 . S
C1336 H1342 0.930 . S
N1337 Li1320 1.990 . S
N1337 C1336 1.314 . S
N1337 C1339 1.279 . S
C1338 C1339 1.358 . S
C1338 C1340 1.356 . S
C1338 H1392 0.930 . S
C1339 N1337 1.279 . S
C1339 C1338 1.358 . S
C1339 H1343 0.930 . S
C1340 C1338 1.356 . S
C1340 C1341 1.348 . S
C1341 C1336 1.353 . S
C1341 C1340 1.348 . S
C1341 H1393 0.929 . S
H1342 C1336 0.930 . S
H1343 C1339 0.930 . S
C1344 N1345 1.314 . S
C1344 C1346 1.353 . S
C1344 H1350 0.930 . S
N1345 Li1321 1.990 . S
N1345 C1344 1.314 . S
N1345 C1348 1.279 . S
C1346 C1344 1.353 . S
C1346 C1349 1.348 . S
C1346 H1394 0.929 . S
C1347 C1348 1.358 . S
C1347 C1349 1.356 . S
C1347 H1395 0.930 . S
C1348 N1345 1.279 . S
C1348 C1347 1.358 . S
C1348 H1351 0.930 . S
C1349 C1346 1.348 . S
C1349 C1347 1.356 . S
H1350 C1344 0.930 . S
H1351 C1348 0.930 . S
C1352 C1354 1.348 . S
C1352 C1355 1.356 . S
C1352 O1382 1.325 . S
N1353 C1356 1.314 . S
N1353 C1357 1.279 . S
C1354 C1352 1.348 . S
C1354 C1356 1.353 . S
C1354 H1396 0.929 . S
C1355 C1352 1.356 . S
C1355 C1357 1.358 . S
C1355 H1397 0.930 . S
C1356 N1353 1.314 . S
C1356 C1354 1.353 . S
C1356 H1398 0.930 . S
C1357 N1353 1.279 . S
C1357 C1355 1.358 . S
C1357 H1399 0.930 . S
C1358 C1359 1.348 . S
C1358 C1360 1.356 . S
C1358 O1383 1.325 . S
C1359 C1358 1.348 . S
C1359 C1361 1.353 . S
C1359 H1400 0.929 . S
C1360 C1358 1.356 . S
C1360 C1362 1.358 . S
C1360 H1401 0.930 . S
C1361 C1359 1.353 . S
C1361 N1363 1.314 . S
C1361 H1402 0.930 . S
C1362 C1360 1.358 . S
C1362 N1363 1.279 . S
C1362 H1403 0.930 . S
N1363 C1361 1.314 . S
N1363 C1362 1.279 . S
C1364 C1366 1.353 . S
C1364 N1367 1.314 . S
C1364 H1370 0.930 . S
C1365 N1367 1.279 . S
C1365 C1368 1.358 . S
C1365 H1371 0.930 . S
C1366 C1364 1.353 . S
C1366 C1369 1.348 . S
C1366 H1404 0.929 . S
N1367 Li1322 1.990 . S
N1367 C1364 1.314 . S
N1367 C1365 1.279 . S
C1368 C1365 1.358 . S
C1368 C1369 1.356 . S
C1368 H1405 0.930 . S
C1369 C1366 1.348 . S
C1369 C1368 1.356 . S
H1370 C1364 0.930 . S
H1371 C1365 0.930 . S
C1372 N1373 1.314 . S
C1372 C1374 1.353 . S
C1372 H1378 0.930 . S
N1373 Li1323 1.990 . S
N1373 C1372 1.314 . S
N1373 C1376 1.279 . S
C1374 C1372 1.353 . S
C1374 C1377 1.348 . S
C1374 H1406 0.929 . S
C1375 C1376 1.358 . S
C1375 C1377 1.356 . S
C1375 H1407 0.930 . S
C1376 N1373 1.279 . S
C1376 C1375 1.358 . S
C1376 H1379 0.930 . S
C1377 C1374 1.348 . S
C1377 C1375 1.356 . S
H1378 C1372 0.930 . S
H1379 C1376 0.930 . S
O1380 Li1320 1.956 . S
O1380 Li1321 1.970 . S
O1380 Li1322 1.961 . S
O1380 C1324 1.325 . S
O1381 Li1320 1.970 . S
O1381 Li1321 1.956 . S
O1381 Li1323 1.961 . S
O1381 C1330 1.325 . S
O1382 Li1320 1.961 . S
O1382 Li1322 1.956 . S
O1382 Li1323 1.970 . S
O1382 C1352 1.325 . S
O1383 Li1321 1.961 . S
O1383 Li1322 1.970 . S
O1383 Li1323 1.956 . S
O1383 C1358 1.325 . S
H1384 C1326 0.929 . S
H1385 C1327 0.930 . S
H1386 C1328 0.930 . S
H1387 C1329 0.930 . S
H1388 C1331 0.930 . S
H1389 C1333 0.929 . S
H1390 C1334 0.930 . S
H1391 C1335 0.930 . S
H1392 C1338 0.930 . S
H1393 C1341 0.929 . S
H1394 C1346 0.929 . S
H1395 C1347 0.930 . S
H1396 C1354 0.929 . S
H1397 C1355 0.930 . S
H1398 C1356 0.930 . S
H1399 C1357 0.930 . S
H1400 C1359 0.929 . S
H1401 C1360 0.930 . S
H1402 C1361 0.930 . S
H1403 C1362 0.930 . S
H1404 C1366 0.929 . S
H1405 C1368 0.930 . S
H1406 C1374 0.929 . S
H1407 C1375 0.930 . S
Li1408 N1425 1.990 . S
Li1408 O1468 1.956 . S
Li1408 O1469 1.970 . S
Li1408 O1470 1.961 . S
Li1409 N1433 1.990 . S
Li1409 O1468 1.970 . S
Li1409 O1469 1.956 . S
Li1409 O1471 1.961 . S
Li1410 N1455 1.990 . S
Li1410 O1468 1.961 . S
Li1410 O1470 1.956 . S
Li1410 O1471 1.970 . S
Li1411 N1461 1.923 1_545 S
Li1411 O1469 1.976 . S
Li1411 O1470 2.033 . S
Li1411 O1471 1.988 . S
C1412 C1414 1.348 . S
C1412 C1415 1.356 . S
C1412 O1468 1.325 . S
N1413 C1416 1.314 . S
N1413 C1417 1.279 . S
C1414 C1412 1.348 . S
C1414 C1416 1.353 . S
C1414 H1472 0.929 . S
C1415 C1412 1.356 . S
C1415 C1417 1.358 . S
C1415 H1473 0.930 . S
C1416 N1413 1.314 . S
C1416 C1414 1.353 . S
C1416 H1474 0.930 . S
C1417 N1413 1.279 . S
C1417 C1415 1.358 . S
C1417 H1475 0.930 . S
C1418 C1421 1.348 . S
C1418 C1422 1.356 . S
C1418 O1469 1.325 1_565 S
C1419 N1420 1.279 . S
C1419 C1422 1.358 . S
C1419 H1476 0.930 . S
N1420 C1419 1.279 . S
N1420 C1423 1.314 . S
C1421 C1418 1.348 . S
C1421 C1423 1.353 . S
C1421 H1477 0.999 . S
C1422 C1418 1.356 . S
C1422 C1419 1.358 . S
C1422 H1478 0.930 . S
C1423 N1420 1.314 . S
C1423 C1421 1.353 . S
C1423 H1479 0.930 . S
C1424 N1425 1.314 . S
C1424 C1429 1.353 . S
C1424 H1430 0.930 1_545 S
N1425 Li1408 1.990 . S
N1425 C1424 1.314 . S
N1425 C1427 1.279 . S
C1426 C1427 1.358 . S
C1426 C1428 1.356 . S
C1426 H1480 0.930 . S
C1427 N1425 1.279 . S
C1427 C1426 1.358 . S
C1427 H1431 0.930 . S
C1428 C1426 1.356 . S
C1428 C1429 1.348 . S
C1429 C1424 1.353 . S
C1429 C1428 1.348 . S
C1429 H1481 0.929 1_545 S
H1430 C1424 0.930 1_565 S
H1431 C1427 0.930 . S
C1432 N1433 1.314 . S
C1432 C1434 1.353 . S
C1432 H1438 0.930 . S
N1433 Li1409 1.990 . S
N1433 C1432 1.314 . S
N1433 C1436 1.279 . S
C1434 C1432 1.353 . S
C1434 C1437 1.348 . S
C1434 H1482 0.929 . S
C1435 C1436 1.358 . S
C1435 C1437 1.356 . S
C1435 H1483 0.930 . S
C1436 N1433 1.279 . S
C1436 C1435 1.358 . S
C1436 H1439 0.930 . S
C1437 C1434 1.348 . S
C1437 C1435 1.356 . S
H1438 C1432 0.930 . S
H1439 C1436 0.930 . S
C1440 C1442 1.348 1_545 S
C1440 C1443 1.356 . S
C1440 O1470 1.325 . S
N1441 C1444 1.314 1_545 S
N1441 C1445 1.279 . S
C1442 C1440 1.348 1_565 S
C1442 C1444 1.353 . S
C1442 H1484 0.929 . S
C1443 C1440 1.356 . S
C1443 C1445 1.358 . S
C1443 H1485 0.930 . S
C1444 N1441 1.314 1_565 S
C1444 C1442 1.353 . S
C1444 H1486 0.930 . S
C1445 N1441 1.279 . S
C1445 C1443 1.358 . S
C1445 H1487 0.930 . S
C1446 C1447 1.348 . S
C1446 C1448 1.356 . S
C1446 O1471 1.325 . S
C1447 C1446 1.348 . S
C1447 C1449 1.353 . S
C1447 H1488 0.929 . S
C1448 C1446 1.356 . S
C1448 C1450 1.358 . S
C1448 H1489 0.930 . S
C1449 C1447 1.353 . S
C1449 N1451 1.314 . S
C1449 H1490 0.930 . S
C1450 C1448 1.358 . S
C1450 N1451 1.279 . S
C1450 H1491 0.930 . S
N1451 C1449 1.314 . S
N1451 C1450 1.279 . S
C1452 C1454 1.353 . S
C1452 N1455 1.314 . S
C1452 H1458 0.930 . S
C1453 N1455 1.279 . S
C1453 C1456 1.358 . S
C1453 H1459 0.930 . S
C1454 C1452 1.353 . S
C1454 C1457 1.348 . S
C1454 H1492 0.929 . S
N1455 Li1410 1.990 . S
N1455 C1452 1.314 . S
N1455 C1453 1.279 . S
C1456 C1453 1.358 . S
C1456 C1457 1.356 . S
C1456 H1493 0.930 . S
C1457 C1454 1.348 . S
C1457 C1456 1.356 . S
H1458 C1452 0.930 . S
H1459 C1453 0.930 . S
C1460 N1461 1.314 . S
C1460 C1462 1.353 . S
C1460 H1466 0.930 . S
N1461 Li1411 1.923 1_565 S
N1461 C1460 1.314 . S
N1461 C1464 1.279 . S
C1462 C1460 1.353 . S
C1462 C1465 1.348 . S
C1462 H1494 0.929 . S
C1463 C1464 1.358 . S
C1463 C1465 1.356 . S
C1463 H1495 0.930 . S
C1464 N1461 1.279 . S
C1464 C1463 1.358 . S
C1464 H1467 0.930 . S
C1465 C1462 1.348 . S
C1465 C1463 1.356 . S
H1466 C1460 0.930 . S
H1467 C1464 0.930 . S
O1468 Li1408 1.956 . S
O1468 Li1409 1.970 . S
O1468 Li1410 1.961 . S
O1468 C1412 1.325 . S
O1469 Li1408 1.970 . S
O1469 Li1409 1.956 . S
O1469 Li1411 1.976 . S
O1469 C1418 1.325 1_545 S
O1470 Li1408 1.961 . S
O1470 Li1410 1.956 . S
O1470 Li1411 2.033 . S
O1470 C1440 1.325 . S
O1471 Li1409 1.961 . S
O1471 Li1410 1.970 . S
O1471 Li1411 1.988 . S
O1471 C1446 1.325 . S
H1472 C1414 0.929 . S
H1473 C1415 0.930 . S
H1474 C1416 0.930 . S
H1475 C1417 0.930 . S
H1476 C1419 0.930 . S
H1477 C1421 0.999 . S
H1478 C1422 0.930 . S
H1479 C1423 0.930 . S
H1480 C1426 0.930 . S
H1481 C1429 0.929 1_565 S
H1482 C1434 0.929 . S
H1483 C1435 0.930 . S
H1484 C1442 0.929 . S
H1485 C1443 0.930 . S
H1486 C1444 0.930 . S
H1487 C1445 0.930 . S
H1488 C1447 0.929 . S
H1489 C1448 0.930 . S
H1490 C1449 0.930 . S
H1491 C1450 0.930 . S
H1492 C1454 0.929 . S
H1493 C1456 0.930 . S
H1494 C1462 0.929 . S
H1495 C1463 0.930 . S
Li1496 N1513 1.990 . S
Li1496 O1556 1.956 . S
Li1496 O1557 1.970 . S
Li1496 O1558 1.961 . S
Li1497 N1521 1.990 . S
Li1497 O1556 1.970 . S
Li1497 O1557 1.956 . S
Li1497 O1559 1.961 . S
Li1498 N1543 1.990 1_655 S
Li1498 O1556 1.961 . S
Li1498 O1558 1.956 . S
Li1498 O1559 1.970 . S
Li1499 N1549 1.990 . S
Li1499 O1557 1.961 . S
Li1499 O1558 1.970 . S
Li1499 O1559 1.956 . S
C1500 C1502 1.348 . S
C1500 C1503 1.356 . S
C1500 O1556 1.325 1_455 S
N1501 C1504 1.314 . S
N1501 C1505 1.279 . S
C1502 C1500 1.348 . S
C1502 C1504 1.353 . S
C1502 H1560 0.922 1_455 S
C1503 C1500 1.356 . S
C1503 C1505 1.358 . S
C1503 H1561 0.930 . S
C1504 N1501 1.314 . S
C1504 C1502 1.353 . S
C1504 H1562 0.930 . S
C1505 N1501 1.279 . S
C1505 C1503 1.358 . S
C1505 H1563 0.930 . S
C1506 C1509 1.348 . S
C1506 C1510 1.356 . S
C1506 O1557 1.325 . S
C1507 N1508 1.279 . S
C1507 C1510 1.358 . S
C1507 H1564 0.930 . S
N1508 C1507 1.279 . S
N1508 C1511 1.314 . S
C1509 C1506 1.348 . S
C1509 C1511 1.353 . S
C1509 H1565 0.929 . S
C1510 C1506 1.356 . S
C1510 C1507 1.358 . S
C1510 H1566 0.930 . S
C1511 N1508 1.314 . S
C1511 C1509 1.353 . S
C1511 H1567 0.930 . S
C1512 N1513 1.314 . S
C1512 C1517 1.353 . S
C1512 H1518 0.930 . S
N1513 Li1496 1.990 . S
N1513 C1512 1.314 . S
N1513 C1515 1.279 . S
C1514 C1515 1.358 . S
C1514 C1516 1.356 . S
C1514 H1568 0.930 . S
C1515 N1513 1.279 . S
C1515 C1514 1.358 . S
C1515 H1519 0.930 . S
C1516 C1514 1.356 . S
C1516 C1517 1.348 . S
C1517 C1512 1.353 . S
C1517 C1516 1.348 . S
C1517 H1569 0.929 . S
H1518 C1512 0.930 . S
H1519 C1515 0.930 . S
C1520 N1521 1.314 . S
C1520 C1522 1.353 . S
C1520 H1526 0.906 1_655 S
N1521 Li1497 1.990 . S
N1521 C1520 1.314 . S
N1521 C1524 1.279 . S
C1522 C1520 1.353 . S
C1522 C1525 1.348 . S
C1522 H1570 0.929 1_655 S
C1523 C1524 1.358 . S
C1523 C1525 1.356 . S
C1523 H1571 0.930 . S
C1524 N1521 1.279 . S
C1524 C1523 1.358 . S
C1524 H1527 0.930 . S
C1525 C1522 1.348 . S
C1525 C1523 1.356 . S
H1526 C1520 0.906 1_455 S
H1527 C1524 0.930 . S
C1528 C1530 1.348 . S
C1528 C1531 1.356 . S
C1528 O1558 1.325 . S
N1529 C1532 1.314 . S
N1529 C1533 1.279 . S
C1530 C1528 1.348 . S
C1530 C1532 1.353 . S
C1530 H1572 0.929 . S
C1531 C1528 1.356 . S
C1531 C1533 1.358 . S
C1531 H1573 0.930 . S
C1532 N1529 1.314 . S
C1532 C1530 1.353 . S
C1532 H1574 0.930 . S
C1533 N1529 1.279 . S
C1533 C1531 1.358 . S
C1533 H1575 0.930 . S
C1534 C1535 1.339 1_655 S
C1534 C1536 1.356 . S
C1534 O1559 1.325 . S
C1535 C1534 1.339 1_455 S
C1535 C1537 1.362 . S
C1535 H1576 0.929 . S
C1536 C1534 1.356 . S
C1536 C1538 1.358 . S
C1536 H1577 0.930 . S
C1537 C1535 1.362 . S
C1537 N1539 1.314 1_455 S
C1537 H1578 0.930 . S
C1538 C1536 1.358 . S
C1538 N1539 1.279 . S
C1538 H1579 0.930 . S
N1539 C1537 1.314 1_655 S
N1539 C1538 1.279 . S
C1540 C1542 1.353 . S
C1540 N1543 1.314 . S
C1540 H1546 0.930 . S
C1541 N1543 1.279 . S
C1541 C1544 1.358 . S
C1541 H1547 0.930 . S
C1542 C1540 1.353 . S
C1542 C1545 1.348 . S
C1542 H1580 0.929 . S
N1543 Li1498 1.990 1_455 S
N1543 C1540 1.314 . S
N1543 C1541 1.279 . S
C1544 C1541 1.358 . S
C1544 C1545 1.356 . S
C1544 H1581 0.930 . S
C1545 C1542 1.348 . S
C1545 C1544 1.356 . S
H1546 C1540 0.930 . S
H1547 C1541 0.930 . S
C1548 N1549 1.314 . S
C1548 C1550 1.353 . S
C1548 H1554 0.930 . S
N1549 Li1499 1.990 . S
N1549 C1548 1.314 . S
N1549 C1552 1.279 . S
C1550 C1548 1.353 . S
C1550 C1553 1.348 . S
C1550 H1582 0.929 . S
C1551 C1552 1.358 . S
C1551 C1553 1.356 . S
C1551 H1583 0.930 . S
C1552 N1549 1.279 . S
C1552 C1551 1.358 . S
C1552 H1555 0.930 . S
C1553 C1550 1.348 . S
C1553 C1551 1.356 . S
H1554 C1548 0.930 . S
H1555 C1552 0.930 . S
O1556 Li1496 1.956 . S
O1556 Li1497 1.970 . S
O1556 Li1498 1.961 . S
O1556 C1500 1.325 1_655 S
O1557 Li1496 1.970 . S
O1557 Li1497 1.956 . S
O1557 Li1499 1.961 . S
O1557 C1506 1.325 . S
O1558 Li1496 1.961 . S
O1558 Li1498 1.956 . S
O1558 Li1499 1.970 . S
O1558 C1528 1.325 . S
O1559 Li1497 1.961 . S
O1559 Li1498 1.970 . S
O1559 Li1499 1.956 . S
O1559 C1534 1.325 . S
H1560 C1502 0.922 1_655 S
H1561 C1503 0.930 . S
H1562 C1504 0.930 . S
H1563 C1505 0.930 . S
H1564 C1507 0.930 . S
H1565 C1509 0.929 . S
H1566 C1510 0.930 . S
H1567 C1511 0.930 . S
H1568 C1514 0.930 . S
H1569 C1517 0.929 . S
H1570 C1522 0.929 1_455 S
H1571 C1523 0.930 . S
H1572 C1530 0.929 . S
H1573 C1531 0.930 . S
H1574 C1532 0.930 . S
H1575 C1533 0.930 . S
H1576 C1535 0.929 . S
H1577 C1536 0.930 . S
H1578 C1537 0.930 . S
H1579 C1538 0.930 . S
H1580 C1542 0.929 . S
H1581 C1544 0.930 . S
H1582 C1550 0.929 . S
H1583 C1551 0.930 . S
C1584 C1585 1.560 . S
C1584 H1645 0.959 . S
C1584 H1646 0.959 . S
C1584 H1647 0.960 . S
C1585 C1584 1.560 . S
C1585 O1640 1.426 . S
C1585 H1644 0.980 . S
C1586 C1587 1.407 . S
C1586 C1591 1.418 . S
C1586 O1640 1.334 . S
C1587 C1586 1.407 . S
C1587 C1588 1.360 . S
C1587 H1648 0.929 . S
C1588 C1587 1.360 . S
C1588 C1589 1.401 . S
C1588 C1592 1.527 . S
C1589 C1588 1.401 . S
C1589 C1590 1.405 . S
C1589 C1622 1.587 . S
C1590 C1589 1.405 . S
C1590 C1591 1.332 . S
C1590 C1593 1.496 . S
C1591 C1586 1.418 . S
C1591 C1590 1.332 . S
C1591 H1649 0.929 . S
C1592 C1588 1.527 . S
C1592 H1650 0.959 . S
C1592 H1651 0.961 . S
C1592 H1652 0.961 . S
C1593 C1590 1.496 . S
C1593 H1653 0.960 . S
C1593 H1654 0.960 . S
C1593 H1655 0.961 . S
C1594 C1595 1.517 . S
C1594 H1657 0.961 . S
C1594 H1658 0.960 . S
C1594 H1659 0.959 . S
C1595 C1594 1.517 . S
C1595 O1643 1.468 . S
C1595 H1656 0.980 . S
C1596 C1597 1.349 . S
C1596 C1601 1.367 . S
C1596 O1643 1.408 . S
C1597 C1596 1.349 . S
C1597 C1598 1.407 . S
C1597 H1660 0.930 . S
C1598 C1597 1.407 . S
C1598 C1599 1.449 . S
C1598 C1602 1.535 . S
C1599 C1598 1.449 . S
C1599 C1600 1.384 . S
C1599 C1624 1.553 . S
C1600 C1599 1.384 . S
C1600 C1601 1.364 . S
C1600 C1603 1.450 . S
C1601 C1596 1.367 . S
C1601 C1600 1.364 . S
C1601 H1661 0.931 . S
C1602 C1598 1.535 . S
C1602 H1662 0.959 . S
C1602 H1663 0.961 . S
C1602 H1664 0.959 . S
C1603 C1600 1.450 . S
C1603 H1665 0.960 . S
C1603 H1666 0.960 . S
C1603 H1667 0.960 . S
C1604 C1605 1.309 . S
C1604 C1609 1.304 . S
C1604 O1642 1.435 . S
C1605 C1604 1.309 . S
C1605 C1606 1.476 . S
C1605 H1669 0.930 . S
C1606 C1605 1.476 . S
C1606 C1607 1.400 . S
C1606 C1610 1.567 . S
C1607 C1606 1.400 . S
C1607 C1608 1.373 . S
C1607 C1629 1.432 . S
C1608 C1607 1.373 . S
C1608 C1609 1.339 . S
C1608 C1611 1.530 . S
C1609 C1604 1.304 . S
C1609 C1608 1.339 . S
C1609 H1670 0.930 . S
C1610 C1606 1.567 . S
C1610 H1671 0.961 . S
C1610 H1672 0.960 . S
C1610 H1673 0.958 . S
C1611 C1608 1.530 . S
C1611 H1674 0.961 . S
C1611 H1675 0.960 . S
C1611 H1676 0.960 . S
C1612 C1613 1.530 . S
C1612 H1678 0.961 . S
C1612 H1679 0.961 . S
C1612 H1680 0.959 . S
C1613 C1612 1.530 . S
C1613 O1641 1.412 . S
C1613 H1677 0.980 . S
C1614 C1615 1.288 . S
C1614 C1619 1.377 . S
C1614 O1641 1.393 . S
C1615 C1614 1.288 . S
C1615 C1616 1.369 . S
C1615 H1681 0.932 . S
C1616 C1615 1.369 . S
C1616 C1617 1.398 . S
C1616 C1620 1.527 . S
C1617 C1616 1.398 . S
C1617 C1618 1.380 . S
C1617 C1631 1.497 . S
C1618 C1617 1.380 . S
C1618 C1619 1.383 . S
C1618 C1621 1.603 . S
C1619 C1614 1.377 . S
C1619 C1618 1.383 . S
C1619 H1682 0.929 . S
C1620 C1616 1.527 . S
C1620 H1683 0.961 . S
C1620 H1684 0.959 . S
C1620 H1685 0.959 . S
C1621 C1618 1.603 . S
C1621 H1686 0.960 . S
C1621 H1687 0.962 . S
C1621 H1688 0.961 . S
C1622 C1589 1.587 . S
C1622 C1623 1.360 . S
C1622 C1635 1.412 . S
C1623 C1622 1.360 . S
C1623 C1624 1.365 . S
C1623 H1689 0.929 . S
C1624 C1599 1.553 . S
C1624 C1623 1.365 . S
C1624 C1625 1.404 . S
C1625 C1624 1.404 . S
C1625 C1626 1.395 . S
C1625 C1636 1.451 . S
C1626 C1625 1.395 . S
C1626 C1627 1.322 . S
C1626 H1690 0.930 . S
C1627 C1626 1.322 . S
C1627 C1628 1.459 . S
C1627 H1691 0.929 . S
C1628 C1627 1.459 . S
C1628 C1629 1.445 . S
C1628 C1637 1.395 . S
C1629 C1607 1.432 . S
C1629 C1628 1.445 . S
C1629 C1630 1.370 . S
C1630 C1629 1.370 . S
C1630 C1631 1.438 . S
C1630 H1692 0.930 . S
C1631 C1617 1.497 . S
C1631 C1630 1.438 . S
C1631 C1632 1.360 . S
C1632 C1631 1.360 . S
C1632 C1633 1.401 . S
C1632 C1637 1.446 . S
C1633 C1632 1.401 . S
C1633 C1634 1.347 . S
C1633 H1693 0.929 . S
C1634 C1633 1.347 . S
C1634 C1635 1.455 . S
C1634 H1694 0.930 . S
C1635 C1622 1.412 . S
C1635 C1634 1.455 . S
C1635 C1636 1.331 . S
C1636 C1625 1.451 . S
C1636 C1635 1.331 . S
C1636 C1637 1.497 . S
C1637 C1628 1.395 . S
C1637 C1632 1.446 . S
C1637 C1636 1.497 . S
C1638 C1639 1.582 . S
C1638 H1695 0.962 . S
C1638 H1696 0.959 . S
C1638 H1697 0.958 . S
C1639 C1638 1.582 . S
C1639 O1642 1.458 . S
C1639 H1668 0.980 . S
O1640 C1585 1.426 . S
O1640 C1586 1.334 . S
O1641 C1613 1.412 . S
O1641 C1614 1.393 . S
O1642 C1604 1.435 . S
O1642 C1639 1.458 . S
O1643 C1595 1.468 . S
O1643 C1596 1.408 . S
H1644 C1585 0.980 . S
H1645 C1584 0.959 . S
H1646 C1584 0.959 . S
H1647 C1584 0.960 . S
H1648 C1587 0.929 . S
H1649 C1591 0.929 . S
H1650 C1592 0.959 . S
H1651 C1592 0.961 . S
H1652 C1592 0.961 . S
H1653 C1593 0.960 . S
H1654 C1593 0.960 . S
H1655 C1593 0.961 . S
H1656 C1595 0.980 . S
H1657 C1594 0.961 . S
H1658 C1594 0.960 . S
H1659 C1594 0.959 . S
H1660 C1597 0.930 . S
H1661 C1601 0.931 . S
H1662 C1602 0.959 . S
H1663 C1602 0.961 . S
H1664 C1602 0.959 . S
H1665 C1603 0.960 . S
H1666 C1603 0.960 . S
H1667 C1603 0.960 . S
H1668 C1639 0.980 . S
H1669 C1605 0.930 . S
H1670 C1609 0.930 . S
H1671 C1610 0.961 . S
H1672 C1610 0.960 . S
H1673 C1610 0.958 . S
H1674 C1611 0.961 . S
H1675 C1611 0.960 . S
H1676 C1611 0.960 . S
H1677 C1613 0.980 . S
H1678 C1612 0.961 . S
H1679 C1612 0.961 . S
H1680 C1612 0.959 . S
H1681 C1615 0.932 . S
H1682 C1619 0.929 . S
H1683 C1620 0.961 . S
H1684 C1620 0.959 . S
H1685 C1620 0.959 . S
H1686 C1621 0.960 . S
H1687 C1621 0.962 . S
H1688 C1621 0.961 . S
H1689 C1623 0.929 . S
H1690 C1626 0.930 . S
H1691 C1627 0.929 . S
H1692 C1630 0.930 . S
H1693 C1633 0.929 . S
H1694 C1634 0.930 . S
H1695 C1638 0.962 . S
H1696 C1638 0.959 . S
H1697 C1638 0.958 . S
C1698 C1699 1.560 . S
C1698 H1759 0.959 . S
C1698 H1760 0.959 . S
C1698 H1761 0.960 . S
C1699 C1698 1.560 . S
C1699 O1754 1.426 . S
C1699 H1758 0.980 . S
C1700 C1701 1.407 . S
C1700 C1705 1.418 . S
C1700 O1754 1.334 . S
C1701 C1700 1.407 . S
C1701 C1702 1.360 . S
C1701 H1762 0.929 . S
C1702 C1701 1.360 . S
C1702 C1703 1.401 . S
C1702 C1706 1.527 . S
C1703 C1702 1.401 . S
C1703 C1704 1.405 . S
C1703 C1736 1.587 . S
C1704 C1703 1.405 . S
C1704 C1705 1.332 . S
C1704 C1707 1.496 . S
C1705 C1700 1.418 . S
C1705 C1704 1.332 . S
C1705 H1763 0.929 . S
C1706 C1702 1.527 . S
C1706 H1764 0.959 . S
C1706 H1765 0.961 . S
C1706 H1766 0.961 . S
C1707 C1704 1.496 . S
C1707 H1767 0.960 . S
C1707 H1768 0.960 . S
C1707 H1769 0.961 . S
C1708 C1709 1.517 . S
C1708 H1771 0.961 . S
C1708 H1772 0.960 . S
C1708 H1773 0.959 . S
C1709 C1708 1.517 . S
C1709 O1757 1.468 . S
C1709 H1770 0.980 . S
C1710 C1711 1.349 . S
C1710 C1715 1.367 . S
C1710 O1757 1.408 . S
C1711 C1710 1.349 . S
C1711 C1712 1.407 . S
C1711 H1774 0.930 . S
C1712 C1711 1.407 . S
C1712 C1713 1.449 . S
C1712 C1716 1.535 . S
C1713 C1712 1.449 . S
C1713 C1714 1.384 . S
C1713 C1738 1.553 . S
C1714 C1713 1.384 . S
C1714 C1715 1.364 . S
C1714 C1717 1.450 . S
C1715 C1710 1.367 . S
C1715 C1714 1.364 . S
C1715 H1775 0.931 . S
C1716 C1712 1.535 . S
C1716 H1776 0.959 . S
C1716 H1777 0.961 . S
C1716 H1778 0.959 . S
C1717 C1714 1.450 . S
C1717 H1779 0.960 . S
C1717 H1780 0.960 . S
C1717 H1781 0.960 . S
C1718 C1719 1.309 . S
C1718 C1723 1.304 . S
C1718 O1756 1.435 . S
C1719 C1718 1.309 . S
C1719 C1720 1.476 . S
C1719 H1783 0.930 . S
C1720 C1719 1.476 . S
C1720 C1721 1.400 . S
C1720 C1724 1.567 . S
C1721 C1720 1.400 . S
C1721 C1722 1.373 . S
C1721 C1743 1.432 . S
C1722 C1721 1.373 . S
C1722 C1723 1.339 . S
C1722 C1725 1.530 . S
C1723 C1718 1.304 . S
C1723 C1722 1.339 . S
C1723 H1784 0.930 . S
C1724 C1720 1.567 . S
C1724 H1785 0.961 . S
C1724 H1786 0.960 . S
C1724 H1787 0.958 . S
C1725 C1722 1.530 . S
C1725 H1788 0.961 . S
C1725 H1789 0.960 . S
C1725 H1790 0.960 . S
C1726 C1727 1.530 . S
C1726 H1792 0.961 . S
C1726 H1793 0.961 . S
C1726 H1794 0.959 . S
C1727 C1726 1.530 . S
C1727 O1755 1.412 . S
C1727 H1791 0.980 . S
C1728 C1729 1.288 . S
C1728 C1733 1.377 . S
C1728 O1755 1.393 . S
C1729 C1728 1.288 . S
C1729 C1730 1.369 . S
C1729 H1795 0.932 . S
C1730 C1729 1.369 . S
C1730 C1731 1.398 . S
C1730 C1734 1.527 . S
C1731 C1730 1.398 . S
C1731 C1732 1.380 . S
C1731 C1745 1.497 . S
C1732 C1731 1.380 . S
C1732 C1733 1.383 . S
C1732 C1735 1.603 . S
C1733 C1728 1.377 . S
C1733 C1732 1.383 . S
C1733 H1796 0.929 . S
C1734 C1730 1.527 . S
C1734 H1797 0.961 . S
C1734 H1798 0.959 . S
C1734 H1799 0.959 . S
C1735 C1732 1.603 . S
C1735 H1800 0.960 . S
C1735 H1801 0.962 . S
C1735 H1802 0.961 . S
C1736 C1703 1.587 . S
C1736 C1737 1.360 . S
C1736 C1749 1.412 . S
C1737 C1736 1.360 . S
C1737 C1738 1.365 . S
C1737 H1803 0.929 . S
C1738 C1713 1.553 . S
C1738 C1737 1.365 . S
C1738 C1739 1.404 . S
C1739 C1738 1.404 . S
C1739 C1740 1.395 . S
C1739 C1750 1.451 . S
C1740 C1739 1.395 . S
C1740 C1741 1.322 . S
C1740 H1804 0.930 . S
C1741 C1740 1.322 . S
C1741 C1742 1.459 . S
C1741 H1805 0.929 . S
C1742 C1741 1.459 . S
C1742 C1743 1.445 . S
C1742 C1751 1.395 . S
C1743 C1721 1.432 . S
C1743 C1742 1.445 . S
C1743 C1744 1.370 . S
C1744 C1743 1.370 . S
C1744 C1745 1.438 . S
C1744 H1806 0.930 . S
C1745 C1731 1.497 . S
C1745 C1744 1.438 . S
C1745 C1746 1.360 . S
C1746 C1745 1.360 . S
C1746 C1747 1.401 . S
C1746 C1751 1.446 . S
C1747 C1746 1.401 . S
C1747 C1748 1.347 . S
C1747 H1807 0.929 . S
C1748 C1747 1.347 . S
C1748 C1749 1.455 . S
C1748 H1808 0.930 . S
C1749 C1736 1.412 . S
C1749 C1748 1.455 . S
C1749 C1750 1.331 . S
C1750 C1739 1.451 . S
C1750 C1749 1.331 . S
C1750 C1751 1.497 . S
C1751 C1742 1.395 . S
C1751 C1746 1.446 . S
C1751 C1750 1.497 . S
C1752 C1753 1.582 . S
C1752 H1809 0.962 . S
C1752 H1810 0.959 . S
C1752 H1811 0.958 . S
C1753 C1752 1.582 . S
C1753 O1756 1.458 . S
C1753 H1782 0.980 . S
O1754 C1699 1.426 . S
O1754 C1700 1.334 . S
O1755 C1727 1.412 . S
O1755 C1728 1.393 . S
O1756 C1718 1.435 . S
O1756 C1753 1.458 . S
O1757 C1709 1.468 . S
O1757 C1710 1.408 . S
H1758 C1699 0.980 . S
H1759 C1698 0.959 . S
H1760 C1698 0.959 . S
H1761 C1698 0.960 . S
H1762 C1701 0.929 . S
H1763 C1705 0.929 . S
H1764 C1706 0.959 . S
H1765 C1706 0.961 . S
H1766 C1706 0.961 . S
H1767 C1707 0.960 . S
H1768 C1707 0.960 . S
H1769 C1707 0.961 . S
H1770 C1709 0.980 . S
H1771 C1708 0.961 . S
H1772 C1708 0.960 . S
H1773 C1708 0.959 . S
H1774 C1711 0.930 . S
H1775 C1715 0.931 . S
H1776 C1716 0.959 . S
H1777 C1716 0.961 . S
H1778 C1716 0.959 . S
H1779 C1717 0.960 . S
H1780 C1717 0.960 . S
H1781 C1717 0.960 . S
H1782 C1753 0.980 . S
H1783 C1719 0.930 . S
H1784 C1723 0.930 . S
H1785 C1724 0.961 . S
H1786 C1724 0.960 . S
H1787 C1724 0.958 . S
H1788 C1725 0.961 . S
H1789 C1725 0.960 . S
H1790 C1725 0.960 . S
H1791 C1727 0.980 . S
H1792 C1726 0.961 . S
H1793 C1726 0.961 . S
H1794 C1726 0.959 . S
H1795 C1729 0.932 . S
H1796 C1733 0.929 . S
H1797 C1734 0.961 . S
H1798 C1734 0.959 . S
H1799 C1734 0.959 . S
H1800 C1735 0.960 . S
H1801 C1735 0.962 . S
H1802 C1735 0.961 . S
H1803 C1737 0.929 . S
H1804 C1740 0.930 . S
H1805 C1741 0.929 . S
H1806 C1744 0.930 . S
H1807 C1747 0.929 . S
H1808 C1748 0.930 . S
H1809 C1752 0.962 . S
H1810 C1752 0.959 . S
H1811 C1752 0.958 . S
C1812 C1813 1.560 . S
C1812 H1873 0.959 . S
C1812 H1874 0.959 . S
C1812 H1875 0.960 . S
C1813 C1812 1.560 . S
C1813 O1868 1.426 . S
C1813 H1872 0.980 . S
C1814 C1815 1.407 . S
C1814 C1819 1.418 . S
C1814 O1868 1.334 . S
C1815 C1814 1.407 . S
C1815 C1816 1.360 . S
C1815 H1876 0.929 . S
C1816 C1815 1.360 . S
C1816 C1817 1.401 . S
C1816 C1820 1.527 . S
C1817 C1816 1.401 . S
C1817 C1818 1.405 . S
C1817 C1850 1.587 . S
C1818 C1817 1.405 . S
C1818 C1819 1.332 . S
C1818 C1821 1.496 . S
C1819 C1814 1.418 . S
C1819 C1818 1.332 . S
C1819 H1877 0.929 . S
C1820 C1816 1.527 . S
C1820 H1878 0.959 . S
C1820 H1879 0.961 . S
C1820 H1880 0.961 . S
C1821 C1818 1.496 . S
C1821 H1881 0.960 . S
C1821 H1882 0.960 . S
C1821 H1883 0.961 . S
C1822 C1823 1.517 . S
C1822 H1885 0.961 . S
C1822 H1886 0.960 . S
C1822 H1887 0.959 . S
C1823 C1822 1.517 . S
C1823 O1871 1.468 . S
C1823 H1884 0.980 . S
C1824 C1825 1.349 . S
C1824 C1829 1.367 . S
C1824 O1871 1.408 . S
C1825 C1824 1.349 . S
C1825 C1826 1.407 . S
C1825 H1888 0.930 . S
C1826 C1825 1.407 . S
C1826 C1827 1.449 . S
C1826 C1830 1.535 . S
C1827 C1826 1.449 . S
C1827 C1828 1.384 . S
C1827 C1852 1.553 . S
C1828 C1827 1.384 . S
C1828 C1829 1.364 . S
C1828 C1831 1.450 . S
C1829 C1824 1.367 . S
C1829 C1828 1.364 . S
C1829 H1889 0.931 . S
C1830 C1826 1.535 . S
C1830 H1890 0.959 . S
C1830 H1891 0.961 . S
C1830 H1892 0.959 . S
C1831 C1828 1.450 . S
C1831 H1893 0.960 . S
C1831 H1894 0.960 . S
C1831 H1895 0.960 . S
C1832 C1833 1.309 . S
C1832 C1837 1.304 . S
C1832 O1870 1.435 . S
C1833 C1832 1.309 . S
C1833 C1834 1.476 . S
C1833 H1897 0.930 . S
C1834 C1833 1.476 . S
C1834 C1835 1.400 . S
C1834 C1838 1.567 . S
C1835 C1834 1.400 . S
C1835 C1836 1.373 . S
C1835 C1857 1.432 . S
C1836 C1835 1.373 . S
C1836 C1837 1.339 . S
C1836 C1839 1.530 . S
C1837 C1832 1.304 . S
C1837 C1836 1.339 . S
C1837 H1898 0.930 . S
C1838 C1834 1.567 . S
C1838 H1899 0.961 . S
C1838 H1900 0.960 . S
C1838 H1901 0.958 . S
C1839 C1836 1.530 . S
C1839 H1902 0.961 . S
C1839 H1903 0.960 . S
C1839 H1904 0.960 . S
C1840 C1841 1.530 . S
C1840 H1906 0.961 . S
C1840 H1907 0.961 . S
C1840 H1908 0.959 . S
C1841 C1840 1.530 . S
C1841 O1869 1.412 . S
C1841 H1905 0.980 . S
C1842 C1843 1.288 . S
C1842 C1847 1.377 . S
C1842 O1869 1.393 . S
C1843 C1842 1.288 . S
C1843 C1844 1.369 . S
C1843 H1909 0.932 . S
C1844 C1843 1.369 . S
C1844 C1845 1.398 . S
C1844 C1848 1.527 . S
C1845 C1844 1.398 . S
C1845 C1846 1.380 . S
C1845 C1859 1.497 . S
C1846 C1845 1.380 . S
C1846 C1847 1.383 . S
C1846 C1849 1.603 . S
C1847 C1842 1.377 . S
C1847 C1846 1.383 . S
C1847 H1910 0.929 . S
C1848 C1844 1.527 . S
C1848 H1911 0.961 . S
C1848 H1912 0.959 . S
C1848 H1913 0.959 . S
C1849 C1846 1.603 . S
C1849 H1914 0.960 . S
C1849 H1915 0.962 . S
C1849 H1916 0.961 . S
C1850 C1817 1.587 . S
C1850 C1851 1.360 . S
C1850 C1863 1.412 . S
C1851 C1850 1.360 . S
C1851 C1852 1.365 . S
C1851 H1917 0.929 . S
C1852 C1827 1.553 . S
C1852 C1851 1.365 . S
C1852 C1853 1.404 . S
C1853 C1852 1.404 . S
C1853 C1854 1.395 . S
C1853 C1864 1.451 . S
C1854 C1853 1.395 . S
C1854 C1855 1.322 . S
C1854 H1918 0.930 . S
C1855 C1854 1.322 . S
C1855 C1856 1.459 . S
C1855 H1919 0.929 . S
C1856 C1855 1.459 . S
C1856 C1857 1.445 . S
C1856 C1865 1.395 . S
C1857 C1835 1.432 . S
C1857 C1856 1.445 . S
C1857 C1858 1.370 . S
C1858 C1857 1.370 . S
C1858 C1859 1.438 . S
C1858 H1920 0.930 . S
C1859 C1845 1.497 . S
C1859 C1858 1.438 . S
C1859 C1860 1.360 . S
C1860 C1859 1.360 . S
C1860 C1861 1.401 . S
C1860 C1865 1.446 . S
C1861 C1860 1.401 . S
C1861 C1862 1.347 . S
C1861 H1921 0.929 . S
C1862 C1861 1.347 . S
C1862 C1863 1.455 . S
C1862 H1922 0.930 . S
C1863 C1850 1.412 . S
C1863 C1862 1.455 . S
C1863 C1864 1.331 . S
C1864 C1853 1.451 . S
C1864 C1863 1.331 . S
C1864 C1865 1.497 . S
C1865 C1856 1.395 . S
C1865 C1860 1.446 . S
C1865 C1864 1.497 . S
C1866 C1867 1.582 . S
C1866 H1923 0.962 . S
C1866 H1924 0.959 . S
C1866 H1925 0.958 . S
C1867 C1866 1.582 . S
C1867 O1870 1.458 . S
C1867 H1896 0.980 . S
O1868 C1813 1.426 . S
O1868 C1814 1.334 . S
O1869 C1841 1.412 . S
O1869 C1842 1.393 . S
O1870 C1832 1.435 . S
O1870 C1867 1.458 . S
O1871 C1823 1.468 . S
O1871 C1824 1.408 . S
H1872 C1813 0.980 . S
H1873 C1812 0.959 . S
H1874 C1812 0.959 . S
H1875 C1812 0.960 . S
H1876 C1815 0.929 . S
H1877 C1819 0.929 . S
H1878 C1820 0.959 . S
H1879 C1820 0.961 . S
H1880 C1820 0.961 . S
H1881 C1821 0.960 . S
H1882 C1821 0.960 . S
H1883 C1821 0.961 . S
H1884 C1823 0.980 . S
H1885 C1822 0.961 . S
H1886 C1822 0.960 . S
H1887 C1822 0.959 . S
H1888 C1825 0.930 . S
H1889 C1829 0.931 . S
H1890 C1830 0.959 . S
H1891 C1830 0.961 . S
H1892 C1830 0.959 . S
H1893 C1831 0.960 . S
H1894 C1831 0.960 . S
H1895 C1831 0.960 . S
H1896 C1867 0.980 . S
H1897 C1833 0.930 . S
H1898 C1837 0.930 . S
H1899 C1838 0.961 . S
H1900 C1838 0.960 . S
H1901 C1838 0.958 . S
H1902 C1839 0.961 . S
H1903 C1839 0.960 . S
H1904 C1839 0.960 . S
H1905 C1841 0.980 . S
H1906 C1840 0.961 . S
H1907 C1840 0.961 . S
H1908 C1840 0.959 . S
H1909 C1843 0.932 . S
H1910 C1847 0.929 . S
H1911 C1848 0.961 . S
H1912 C1848 0.959 . S
H1913 C1848 0.959 . S
H1914 C1849 0.960 . S
H1915 C1849 0.962 . S
H1916 C1849 0.961 . S
H1917 C1851 0.929 . S
H1918 C1854 0.930 . S
H1919 C1855 0.929 . S
H1920 C1858 0.930 . S
H1921 C1861 0.929 . S
H1922 C1862 0.930 . S
H1923 C1866 0.962 . S
H1924 C1866 0.959 . S
H1925 C1866 0.958 . S
C1926 C1927 1.560 . S
C1926 H1987 0.959 . S
C1926 H1988 0.959 . S
C1926 H1989 0.960 . S
C1927 C1926 1.560 . S
C1927 O1982 1.426 . S
C1927 H1986 0.980 . S
C1928 C1929 1.407 . S
C1928 C1933 1.418 . S
C1928 O1982 1.334 . S
C1929 C1928 1.407 . S
C1929 C1930 1.360 . S
C1929 H1990 0.929 . S
C1930 C1929 1.360 . S
C1930 C1931 1.401 . S
C1930 C1934 1.527 . S
C1931 C1930 1.401 . S
C1931 C1932 1.405 . S
C1931 C1964 1.587 . S
C1932 C1931 1.405 . S
C1932 C1933 1.332 . S
C1932 C1935 1.496 . S
C1933 C1928 1.418 . S
C1933 C1932 1.332 . S
C1933 H1991 0.929 . S
C1934 C1930 1.527 . S
C1934 H1992 0.959 . S
C1934 H1993 0.961 . S
C1934 H1994 0.961 . S
C1935 C1932 1.496 . S
C1935 H1995 0.960 . S
C1935 H1996 0.960 . S
C1935 H1997 0.961 . S
C1936 C1937 1.517 . S
C1936 H1999 0.961 . S
C1936 H2000 0.960 . S
C1936 H2001 0.959 . S
C1937 C1936 1.517 . S
C1937 O1985 1.468 . S
C1937 H1998 0.980 . S
C1938 C1939 1.349 . S
C1938 C1943 1.367 . S
C1938 O1985 1.408 . S
C1939 C1938 1.349 . S
C1939 C1940 1.407 . S
C1939 H2002 0.930 . S
C1940 C1939 1.407 . S
C1940 C1941 1.449 . S
C1940 C1944 1.535 . S
C1941 C1940 1.449 . S
C1941 C1942 1.384 . S
C1941 C1966 1.553 . S
C1942 C1941 1.384 . S
C1942 C1943 1.364 . S
C1942 C1945 1.450 . S
C1943 C1938 1.367 . S
C1943 C1942 1.364 . S
C1943 H2003 0.931 . S
C1944 C1940 1.535 . S
C1944 H2004 0.959 . S
C1944 H2005 0.961 . S
C1944 H2006 0.959 . S
C1945 C1942 1.450 . S
C1945 H2007 0.960 . S
C1945 H2008 0.960 . S
C1945 H2009 0.960 . S
C1946 C1947 1.309 . S
C1946 C1951 1.304 . S
C1946 O1984 1.435 . S
C1947 C1946 1.309 . S
C1947 C1948 1.476 . S
C1947 H2011 0.930 . S
C1948 C1947 1.476 . S
C1948 C1949 1.400 . S
C1948 C1952 1.567 . S
C1949 C1948 1.400 . S
C1949 C1950 1.373 . S
C1949 C1971 1.432 . S
C1950 C1949 1.373 . S
C1950 C1951 1.339 . S
C1950 C1953 1.530 . S
C1951 C1946 1.304 . S
C1951 C1950 1.339 . S
C1951 H2012 0.930 . S
C1952 C1948 1.567 . S
C1952 H2013 0.961 . S
C1952 H2014 0.960 . S
C1952 H2015 0.958 . S
C1953 C1950 1.530 . S
C1953 H2016 0.961 . S
C1953 H2017 0.960 . S
C1953 H2018 0.960 . S
C1954 C1955 1.530 . S
C1954 H2020 0.961 . S
C1954 H2021 0.961 . S
C1954 H2022 0.959 . S
C1955 C1954 1.530 . S
C1955 O1983 1.412 . S
C1955 H2019 0.980 . S
C1956 C1957 1.288 . S
C1956 C1961 1.377 . S
C1956 O1983 1.393 . S
C1957 C1956 1.288 . S
C1957 C1958 1.369 . S
C1957 H2023 0.932 . S
C1958 C1957 1.369 . S
C1958 C1959 1.398 . S
C1958 C1962 1.527 . S
C1959 C1958 1.398 . S
C1959 C1960 1.380 . S
C1959 C1973 1.497 . S
C1960 C1959 1.380 . S
C1960 C1961 1.383 . S
C1960 C1963 1.603 . S
C1961 C1956 1.377 . S
C1961 C1960 1.383 . S
C1961 H2024 0.929 . S
C1962 C1958 1.527 . S
C1962 H2025 0.961 . S
C1962 H2026 0.959 . S
C1962 H2027 0.959 . S
C1963 C1960 1.603 . S
C1963 H2028 0.960 . S
C1963 H2029 0.962 . S
C1963 H2030 0.961 . S
C1964 C1931 1.587 . S
C1964 C1965 1.360 . S
C1964 C1977 1.412 . S
C1965 C1964 1.360 . S
C1965 C1966 1.365 . S
C1965 H2031 0.929 . S
C1966 C1941 1.553 . S
C1966 C1965 1.365 . S
C1966 C1967 1.404 . S
C1967 C1966 1.404 . S
C1967 C1968 1.395 . S
C1967 C1978 1.451 . S
C1968 C1967 1.395 . S
C1968 C1969 1.322 . S
C1968 H2032 0.930 . S
C1969 C1968 1.322 . S
C1969 C1970 1.459 . S
C1969 H2033 0.929 . S
C1970 C1969 1.459 . S
C1970 C1971 1.445 . S
C1970 C1979 1.395 . S
C1971 C1949 1.432 . S
C1971 C1970 1.445 . S
C1971 C1972 1.370 . S
C1972 C1971 1.370 . S
C1972 C1973 1.438 . S
C1972 H2034 0.930 . S
C1973 C1959 1.497 . S
C1973 C1972 1.438 . S
C1973 C1974 1.360 . S
C1974 C1973 1.360 . S
C1974 C1975 1.401 . S
C1974 C1979 1.446 . S
C1975 C1974 1.401 . S
C1975 C1976 1.347 . S
C1975 H2035 0.929 . S
C1976 C1975 1.347 . S
C1976 C1977 1.455 . S
C1976 H2036 0.930 . S
C1977 C1964 1.412 . S
C1977 C1976 1.455 . S
C1977 C1978 1.331 . S
C1978 C1967 1.451 . S
C1978 C1977 1.331 . S
C1978 C1979 1.497 . S
C1979 C1970 1.395 . S
C1979 C1974 1.446 . S
C1979 C1978 1.497 . S
C1980 C1981 1.582 . S
C1980 H2037 0.962 . S
C1980 H2038 0.959 . S
C1980 H2039 0.958 . S
C1981 C1980 1.582 . S
C1981 O1984 1.458 . S
C1981 H2010 0.980 . S
O1982 C1927 1.426 . S
O1982 C1928 1.334 . S
O1983 C1955 1.412 . S
O1983 C1956 1.393 . S
O1984 C1946 1.435 . S
O1984 C1981 1.458 . S
O1985 C1937 1.468 . S
O1985 C1938 1.408 . S
H1986 C1927 0.980 . S
H1987 C1926 0.959 . S
H1988 C1926 0.959 . S
H1989 C1926 0.960 . S
H1990 C1929 0.929 . S
H1991 C1933 0.929 . S
H1992 C1934 0.959 . S
H1993 C1934 0.961 . S
H1994 C1934 0.961 . S
H1995 C1935 0.960 . S
H1996 C1935 0.960 . S
H1997 C1935 0.961 . S
H1998 C1937 0.980 . S
H1999 C1936 0.961 . S
H2000 C1936 0.960 . S
H2001 C1936 0.959 . S
H2002 C1939 0.930 . S
H2003 C1943 0.931 . S
H2004 C1944 0.959 . S
H2005 C1944 0.961 . S
H2006 C1944 0.959 . S
H2007 C1945 0.960 . S
H2008 C1945 0.960 . S
H2009 C1945 0.960 . S
H2010 C1981 0.980 . S
H2011 C1947 0.930 . S
H2012 C1951 0.930 . S
H2013 C1952 0.961 . S
H2014 C1952 0.960 . S
H2015 C1952 0.958 . S
H2016 C1953 0.961 . S
H2017 C1953 0.960 . S
H2018 C1953 0.960 . S
H2019 C1955 0.980 . S
H2020 C1954 0.961 . S
H2021 C1954 0.961 . S
H2022 C1954 0.959 . S
H2023 C1957 0.932 . S
H2024 C1961 0.929 . S
H2025 C1962 0.961 . S
H2026 C1962 0.959 . S
H2027 C1962 0.959 . S
H2028 C1963 0.960 . S
H2029 C1963 0.962 . S
H2030 C1963 0.961 . S
H2031 C1965 0.929 . S
H2032 C1968 0.930 . S
H2033 C1969 0.929 . S
H2034 C1972 0.930 . S
H2035 C1975 0.929 . S
H2036 C1976 0.930 . S
H2037 C1980 0.962 . S
H2038 C1980 0.959 . S
H2039 C1980 0.958 . S
C2040 C2041 1.560 . S
C2040 H2101 0.959 . S
C2040 H2102 0.959 . S
C2040 H2103 0.960 . S
C2041 C2040 1.560 . S
C2041 O2096 1.426 . S
C2041 H2100 0.980 . S
C2042 C2043 1.407 . S
C2042 C2047 1.418 . S
C2042 O2096 1.334 . S
C2043 C2042 1.407 . S
C2043 C2044 1.360 . S
C2043 H2104 0.929 . S
C2044 C2043 1.360 . S
C2044 C2045 1.401 . S
C2044 C2048 1.527 . S
C2045 C2044 1.401 . S
C2045 C2046 1.405 . S
C2045 C2078 1.587 . S
C2046 C2045 1.405 . S
C2046 C2047 1.332 . S
C2046 C2049 1.496 . S
C2047 C2042 1.418 . S
C2047 C2046 1.332 . S
C2047 H2105 0.929 . S
C2048 C2044 1.527 . S
C2048 H2106 0.959 . S
C2048 H2107 0.961 . S
C2048 H2108 0.961 . S
C2049 C2046 1.496 . S
C2049 H2109 0.960 . S
C2049 H2110 0.960 . S
C2049 H2111 0.961 . S
C2050 C2051 1.517 . S
C2050 H2113 0.961 . S
C2050 H2114 0.960 . S
C2050 H2115 0.959 . S
C2051 C2050 1.517 . S
C2051 O2099 1.468 . S
C2051 H2112 0.980 . S
C2052 C2053 1.349 . S
C2052 C2057 1.367 . S
C2052 O2099 1.408 . S
C2053 C2052 1.349 . S
C2053 C2054 1.407 . S
C2053 H2116 0.930 . S
C2054 C2053 1.407 . S
C2054 C2055 1.449 . S
C2054 C2058 1.535 . S
C2055 C2054 1.449 . S
C2055 C2056 1.384 . S
C2055 C2080 1.553 . S
C2056 C2055 1.384 . S
C2056 C2057 1.364 . S
C2056 C2059 1.450 . S
C2057 C2052 1.367 . S
C2057 C2056 1.364 . S
C2057 H2117 0.931 . S
C2058 C2054 1.535 . S
C2058 H2118 0.959 . S
C2058 H2119 0.961 . S
C2058 H2120 0.959 . S
C2059 C2056 1.450 . S
C2059 H2121 0.960 . S
C2059 H2122 0.960 . S
C2059 H2123 0.960 . S
C2060 C2061 1.309 . S
C2060 C2065 1.304 . S
C2060 O2098 1.435 . S
C2061 C2060 1.309 . S
C2061 C2062 1.476 . S
C2061 H2125 0.930 . S
C2062 C2061 1.476 . S
C2062 C2063 1.400 . S
C2062 C2066 1.567 . S
C2063 C2062 1.400 . S
C2063 C2064 1.373 . S
C2063 C2085 1.432 . S
C2064 C2063 1.373 . S
C2064 C2065 1.339 . S
C2064 C2067 1.530 . S
C2065 C2060 1.304 . S
C2065 C2064 1.339 . S
C2065 H2126 0.930 . S
C2066 C2062 1.567 . S
C2066 H2127 0.961 . S
C2066 H2128 0.960 . S
C2066 H2129 0.958 . S
C2067 C2064 1.530 . S
C2067 H2130 0.961 . S
C2067 H2131 0.960 . S
C2067 H2132 0.960 . S
C2068 C2069 1.530 . S
C2068 H2134 0.961 . S
C2068 H2135 0.961 . S
C2068 H2136 0.959 . S
C2069 C2068 1.530 . S
C2069 O2097 1.412 . S
C2069 H2133 0.980 . S
C2070 C2071 1.288 . S
C2070 C2075 1.377 . S
C2070 O2097 1.393 . S
C2071 C2070 1.288 . S
C2071 C2072 1.369 . S
C2071 H2137 0.932 . S
C2072 C2071 1.369 . S
C2072 C2073 1.398 . S
C2072 C2076 1.527 . S
C2073 C2072 1.398 . S
C2073 C2074 1.380 . S
C2073 C2087 1.497 . S
C2074 C2073 1.380 . S
C2074 C2075 1.383 . S
C2074 C2077 1.603 . S
C2075 C2070 1.377 . S
C2075 C2074 1.383 . S
C2075 H2138 0.929 . S
C2076 C2072 1.527 . S
C2076 H2139 0.961 . S
C2076 H2140 0.959 . S
C2076 H2141 0.959 . S
C2077 C2074 1.603 . S
C2077 H2142 0.960 . S
C2077 H2143 0.962 . S
C2077 H2144 0.961 . S
C2078 C2045 1.587 . S
C2078 C2079 1.360 . S
C2078 C2091 1.412 . S
C2079 C2078 1.360 . S
C2079 C2080 1.365 . S
C2079 H2145 0.929 . S
C2080 C2055 1.553 . S
C2080 C2079 1.365 . S
C2080 C2081 1.404 . S
C2081 C2080 1.404 . S
C2081 C2082 1.395 . S
C2081 C2092 1.451 . S
C2082 C2081 1.395 . S
C2082 C2083 1.322 . S
C2082 H2146 0.930 . S
C2083 C2082 1.322 . S
C2083 C2084 1.459 . S
C2083 H2147 0.929 . S
C2084 C2083 1.459 . S
C2084 C2085 1.445 . S
C2084 C2093 1.395 . S
C2085 C2063 1.432 . S
C2085 C2084 1.445 . S
C2085 C2086 1.370 . S
C2086 C2085 1.370 . S
C2086 C2087 1.438 . S
C2086 H2148 0.930 . S
C2087 C2073 1.497 . S
C2087 C2086 1.438 . S
C2087 C2088 1.360 . S
C2088 C2087 1.360 . S
C2088 C2089 1.401 . S
C2088 C2093 1.446 . S
C2089 C2088 1.401 . S
C2089 C2090 1.347 . S
C2089 H2149 0.929 . S
C2090 C2089 1.347 . S
C2090 C2091 1.455 . S
C2090 H2150 0.930 . S
C2091 C2078 1.412 . S
C2091 C2090 1.455 . S
C2091 C2092 1.331 . S
C2092 C2081 1.451 . S
C2092 C2091 1.331 . S
C2092 C2093 1.497 . S
C2093 C2084 1.395 . S
C2093 C2088 1.446 . S
C2093 C2092 1.497 . S
C2094 C2095 1.582 . S
C2094 H2151 0.962 . S
C2094 H2152 0.959 . S
C2094 H2153 0.958 . S
C2095 C2094 1.582 . S
C2095 O2098 1.458 . S
C2095 H2124 0.980 . S
O2096 C2041 1.426 . S
O2096 C2042 1.334 . S
O2097 C2069 1.412 . S
O2097 C2070 1.393 . S
O2098 C2060 1.435 . S
O2098 C2095 1.458 . S
O2099 C2051 1.468 . S
O2099 C2052 1.408 . S
H2100 C2041 0.980 . S
H2101 C2040 0.959 . S
H2102 C2040 0.959 . S
H2103 C2040 0.960 . S
H2104 C2043 0.929 . S
H2105 C2047 0.929 . S
H2106 C2048 0.959 . S
H2107 C2048 0.961 . S
H2108 C2048 0.961 . S
H2109 C2049 0.960 . S
H2110 C2049 0.960 . S
H2111 C2049 0.961 . S
H2112 C2051 0.980 . S
H2113 C2050 0.961 . S
H2114 C2050 0.960 . S
H2115 C2050 0.959 . S
H2116 C2053 0.930 . S
H2117 C2057 0.931 . S
H2118 C2058 0.959 . S
H2119 C2058 0.961 . S
H2120 C2058 0.959 . S
H2121 C2059 0.960 . S
H2122 C2059 0.960 . S
H2123 C2059 0.960 . S
H2124 C2095 0.980 . S
H2125 C2061 0.930 . S
H2126 C2065 0.930 . S
H2127 C2066 0.961 . S
H2128 C2066 0.960 . S
H2129 C2066 0.958 . S
H2130 C2067 0.961 . S
H2131 C2067 0.960 . S
H2132 C2067 0.960 . S
H2133 C2069 0.980 . S
H2134 C2068 0.961 . S
H2135 C2068 0.961 . S
H2136 C2068 0.959 . S
H2137 C2071 0.932 . S
H2138 C2075 0.929 . S
H2139 C2076 0.961 . S
H2140 C2076 0.959 . S
H2141 C2076 0.959 . S
H2142 C2077 0.960 . S
H2143 C2077 0.962 . S
H2144 C2077 0.961 . S
H2145 C2079 0.929 . S
H2146 C2082 0.930 . S
H2147 C2083 0.929 . S
H2148 C2086 0.930 . S
H2149 C2089 0.929 . S
H2150 C2090 0.930 . S
H2151 C2094 0.962 . S
H2152 C2094 0.959 . S
H2153 C2094 0.958 . S
C2154 C2155 1.560 . S
C2154 H2215 0.959 . S
C2154 H2216 0.959 . S
C2154 H2217 0.960 . S
C2155 C2154 1.560 . S
C2155 O2210 1.426 . S
C2155 H2214 0.980 . S
C2156 C2157 1.407 . S
C2156 C2161 1.418 . S
C2156 O2210 1.334 . S
C2157 C2156 1.407 . S
C2157 C2158 1.360 . S
C2157 H2218 0.929 . S
C2158 C2157 1.360 . S
C2158 C2159 1.401 . S
C2158 C2162 1.527 . S
C2159 C2158 1.401 . S
C2159 C2160 1.405 . S
C2159 C2192 1.587 . S
C2160 C2159 1.405 . S
C2160 C2161 1.332 . S
C2160 C2163 1.496 . S
C2161 C2156 1.418 . S
C2161 C2160 1.332 . S
C2161 H2219 0.929 . S
C2162 C2158 1.527 . S
C2162 H2220 0.959 . S
C2162 H2221 0.961 . S
C2162 H2222 0.961 . S
C2163 C2160 1.496 . S
C2163 H2223 0.960 . S
C2163 H2224 0.960 . S
C2163 H2225 0.961 . S
C2164 C2165 1.517 . S
C2164 H2227 0.961 . S
C2164 H2228 0.960 . S
C2164 H2229 0.959 . S
C2165 C2164 1.517 . S
C2165 O2213 1.468 . S
C2165 H2226 0.980 . S
C2166 C2167 1.349 . S
C2166 C2171 1.367 . S
C2166 O2213 1.408 . S
C2167 C2166 1.349 . S
C2167 C2168 1.407 . S
C2167 H2230 0.930 . S
C2168 C2167 1.407 . S
C2168 C2169 1.449 . S
C2168 C2172 1.535 . S
C2169 C2168 1.449 . S
C2169 C2170 1.384 . S
C2169 C2194 1.553 . S
C2170 C2169 1.384 . S
C2170 C2171 1.364 . S
C2170 C2173 1.450 . S
C2171 C2166 1.367 . S
C2171 C2170 1.364 . S
C2171 H2231 0.931 . S
C2172 C2168 1.535 . S
C2172 H2232 0.959 . S
C2172 H2233 0.961 . S
C2172 H2234 0.959 . S
C2173 C2170 1.450 . S
C2173 H2235 0.960 . S
C2173 H2236 0.960 . S
C2173 H2237 0.960 . S
C2174 C2175 1.309 . S
C2174 C2179 1.304 . S
C2174 O2212 1.435 . S
C2175 C2174 1.309 . S
C2175 C2176 1.476 . S
C2175 H2239 0.930 . S
C2176 C2175 1.476 . S
C2176 C2177 1.400 . S
C2176 C2180 1.567 . S
C2177 C2176 1.400 . S
C2177 C2178 1.373 . S
C2177 C2199 1.432 . S
C2178 C2177 1.373 . S
C2178 C2179 1.339 . S
C2178 C2181 1.530 . S
C2179 C2174 1.304 . S
C2179 C2178 1.339 . S
C2179 H2240 0.930 . S
C2180 C2176 1.567 . S
C2180 H2241 0.961 . S
C2180 H2242 0.960 . S
C2180 H2243 0.958 . S
C2181 C2178 1.530 . S
C2181 H2244 0.961 . S
C2181 H2245 0.960 . S
C2181 H2246 0.960 . S
C2182 C2183 1.530 . S
C2182 H2248 0.961 . S
C2182 H2249 0.961 . S
C2182 H2250 0.959 . S
C2183 C2182 1.530 . S
C2183 O2211 1.412 . S
C2183 H2247 0.980 . S
C2184 C2185 1.288 . S
C2184 C2189 1.377 . S
C2184 O2211 1.393 . S
C2185 C2184 1.288 . S
C2185 C2186 1.369 . S
C2185 H2251 0.932 . S
C2186 C2185 1.369 . S
C2186 C2187 1.398 . S
C2186 C2190 1.527 . S
C2187 C2186 1.398 . S
C2187 C2188 1.380 . S
C2187 C2201 1.497 . S
C2188 C2187 1.380 . S
C2188 C2189 1.383 . S
C2188 C2191 1.603 . S
C2189 C2184 1.377 . S
C2189 C2188 1.383 . S
C2189 H2252 0.929 . S
C2190 C2186 1.527 . S
C2190 H2253 0.961 . S
C2190 H2254 0.959 . S
C2190 H2255 0.959 . S
C2191 C2188 1.603 . S
C2191 H2256 0.960 . S
C2191 H2257 0.962 . S
C2191 H2258 0.961 . S
C2192 C2159 1.587 . S
C2192 C2193 1.360 . S
C2192 C2205 1.412 . S
C2193 C2192 1.360 . S
C2193 C2194 1.365 . S
C2193 H2259 0.929 . S
C2194 C2169 1.553 . S
C2194 C2193 1.365 . S
C2194 C2195 1.404 . S
C2195 C2194 1.404 . S
C2195 C2196 1.395 . S
C2195 C2206 1.451 . S
C2196 C2195 1.395 . S
C2196 C2197 1.322 . S
C2196 H2260 0.930 . S
C2197 C2196 1.322 . S
C2197 C2198 1.459 . S
C2197 H2261 0.929 . S
C2198 C2197 1.459 . S
C2198 C2199 1.445 . S
C2198 C2207 1.395 . S
C2199 C2177 1.432 . S
C2199 C2198 1.445 . S
C2199 C2200 1.370 . S
C2200 C2199 1.370 . S
C2200 C2201 1.438 . S
C2200 H2262 0.930 . S
C2201 C2187 1.497 . S
C2201 C2200 1.438 . S
C2201 C2202 1.360 . S
C2202 C2201 1.360 . S
C2202 C2203 1.401 . S
C2202 C2207 1.446 . S
C2203 C2202 1.401 . S
C2203 C2204 1.347 . S
C2203 H2263 0.929 . S
C2204 C2203 1.347 . S
C2204 C2205 1.455 . S
C2204 H2264 0.930 . S
C2205 C2192 1.412 . S
C2205 C2204 1.455 . S
C2205 C2206 1.331 . S
C2206 C2195 1.451 . S
C2206 C2205 1.331 . S
C2206 C2207 1.497 . S
C2207 C2198 1.395 . S
C2207 C2202 1.446 . S
C2207 C2206 1.497 . S
C2208 C2209 1.582 . S
C2208 H2265 0.962 . S
C2208 H2266 0.959 . S
C2208 H2267 0.958 . S
C2209 C2208 1.582 . S
C2209 O2212 1.458 . S
C2209 H2238 0.980 . S
O2210 C2155 1.426 . S
O2210 C2156 1.334 . S
O2211 C2183 1.412 . S
O2211 C2184 1.393 . S
O2212 C2174 1.435 . S
O2212 C2209 1.458 . S
O2213 C2165 1.468 . S
O2213 C2166 1.408 . S
H2214 C2155 0.980 . S
H2215 C2154 0.959 . S
H2216 C2154 0.959 . S
H2217 C2154 0.960 . S
H2218 C2157 0.929 . S
H2219 C2161 0.929 . S
H2220 C2162 0.959 . S
H2221 C2162 0.961 . S
H2222 C2162 0.961 . S
H2223 C2163 0.960 . S
H2224 C2163 0.960 . S
H2225 C2163 0.961 . S
H2226 C2165 0.980 . S
H2227 C2164 0.961 . S
H2228 C2164 0.960 . S
H2229 C2164 0.959 . S
H2230 C2167 0.930 . S
H2231 C2171 0.931 . S
H2232 C2172 0.959 . S
H2233 C2172 0.961 . S
H2234 C2172 0.959 . S
H2235 C2173 0.960 . S
H2236 C2173 0.960 . S
H2237 C2173 0.960 . S
H2238 C2209 0.980 . S
H2239 C2175 0.930 . S
H2240 C2179 0.930 . S
H2241 C2180 0.961 . S
H2242 C2180 0.960 . S
H2243 C2180 0.958 . S
H2244 C2181 0.961 . S
H2245 C2181 0.960 . S
H2246 C2181 0.960 . S
H2247 C2183 0.980 . S
H2248 C2182 0.961 . S
H2249 C2182 0.961 . S
H2250 C2182 0.959 . S
H2251 C2185 0.932 . S
H2252 C2189 0.929 . S
H2253 C2190 0.961 . S
H2254 C2190 0.959 . S
H2255 C2190 0.959 . S
H2256 C2191 0.960 . S
H2257 C2191 0.962 . S
H2258 C2191 0.961 . S
H2259 C2193 0.929 . S
H2260 C2196 0.930 . S
H2261 C2197 0.929 . S
H2262 C2200 0.930 . S
H2263 C2203 0.929 . S
H2264 C2204 0.930 . S
H2265 C2208 0.962 . S
H2266 C2208 0.959 . S
H2267 C2208 0.958 . S
C2268 C2269 1.560 . S
C2268 H2329 0.959 . S
C2268 H2330 0.959 . S
C2268 H2331 0.960 . S
C2269 C2268 1.560 . S
C2269 O2324 1.426 . S
C2269 H2328 0.980 . S
C2270 C2271 1.407 . S
C2270 C2275 1.418 . S
C2270 O2324 1.334 . S
C2271 C2270 1.407 . S
C2271 C2272 1.360 . S
C2271 H2332 0.929 . S
C2272 C2271 1.360 . S
C2272 C2273 1.401 . S
C2272 C2276 1.527 . S
C2273 C2272 1.401 . S
C2273 C2274 1.405 . S
C2273 C2306 1.587 . S
C2274 C2273 1.405 . S
C2274 C2275 1.332 . S
C2274 C2277 1.496 . S
C2275 C2270 1.418 . S
C2275 C2274 1.332 . S
C2275 H2333 0.929 . S
C2276 C2272 1.527 . S
C2276 H2334 0.959 . S
C2276 H2335 0.961 . S
C2276 H2336 0.961 . S
C2277 C2274 1.496 . S
C2277 H2337 0.960 . S
C2277 H2338 0.960 . S
C2277 H2339 0.961 . S
C2278 C2279 1.517 . S
C2278 H2341 0.961 . S
C2278 H2342 0.960 . S
C2278 H2343 0.959 . S
C2279 C2278 1.517 . S
C2279 O2327 1.468 . S
C2279 H2340 0.980 . S
C2280 C2281 1.349 . S
C2280 C2285 1.367 . S
C2280 O2327 1.408 . S
C2281 C2280 1.349 . S
C2281 C2282 1.407 . S
C2281 H2344 0.930 . S
C2282 C2281 1.407 . S
C2282 C2283 1.449 . S
C2282 C2286 1.535 . S
C2283 C2282 1.449 . S
C2283 C2284 1.384 . S
C2283 C2308 1.553 . S
C2284 C2283 1.384 . S
C2284 C2285 1.364 . S
C2284 C2287 1.450 . S
C2285 C2280 1.367 . S
C2285 C2284 1.364 . S
C2285 H2345 0.931 . S
C2286 C2282 1.535 . S
C2286 H2346 0.959 . S
C2286 H2347 0.961 . S
C2286 H2348 0.959 . S
C2287 C2284 1.450 . S
C2287 H2349 0.960 . S
C2287 H2350 0.960 . S
C2287 H2351 0.960 . S
C2288 C2289 1.309 . S
C2288 C2293 1.304 . S
C2288 O2326 1.435 . S
C2289 C2288 1.309 . S
C2289 C2290 1.476 . S
C2289 H2353 0.930 . S
C2290 C2289 1.476 . S
C2290 C2291 1.400 . S
C2290 C2294 1.567 . S
C2291 C2290 1.400 . S
C2291 C2292 1.373 . S
C2291 C2313 1.432 . S
C2292 C2291 1.373 . S
C2292 C2293 1.339 . S
C2292 C2295 1.530 . S
C2293 C2288 1.304 . S
C2293 C2292 1.339 . S
C2293 H2354 0.930 . S
C2294 C2290 1.567 . S
C2294 H2355 0.961 . S
C2294 H2356 0.960 . S
C2294 H2357 0.958 . S
C2295 C2292 1.530 . S
C2295 H2358 0.961 . S
C2295 H2359 0.960 . S
C2295 H2360 0.960 . S
C2296 C2297 1.530 . S
C2296 H2362 0.961 . S
C2296 H2363 0.961 . S
C2296 H2364 0.959 . S
C2297 C2296 1.530 . S
C2297 O2325 1.412 . S
C2297 H2361 0.980 . S
C2298 C2299 1.288 . S
C2298 C2303 1.377 . S
C2298 O2325 1.393 . S
C2299 C2298 1.288 . S
C2299 C2300 1.369 . S
C2299 H2365 0.932 . S
C2300 C2299 1.369 . S
C2300 C2301 1.398 . S
C2300 C2304 1.527 . S
C2301 C2300 1.398 . S
C2301 C2302 1.380 . S
C2301 C2315 1.497 . S
C2302 C2301 1.380 . S
C2302 C2303 1.383 . S
C2302 C2305 1.603 . S
C2303 C2298 1.377 . S
C2303 C2302 1.383 . S
C2303 H2366 0.929 . S
C2304 C2300 1.527 . S
C2304 H2367 0.961 . S
C2304 H2368 0.959 . S
C2304 H2369 0.959 . S
C2305 C2302 1.603 . S
C2305 H2370 0.960 . S
C2305 H2371 0.962 . S
C2305 H2372 0.961 . S
C2306 C2273 1.587 . S
C2306 C2307 1.360 . S
C2306 C2319 1.412 . S
C2307 C2306 1.360 . S
C2307 C2308 1.365 . S
C2307 H2373 0.929 . S
C2308 C2283 1.553 . S
C2308 C2307 1.365 . S
C2308 C2309 1.404 . S
C2309 C2308 1.404 . S
C2309 C2310 1.395 . S
C2309 C2320 1.451 . S
C2310 C2309 1.395 . S
C2310 C2311 1.322 . S
C2310 H2374 0.930 . S
C2311 C2310 1.322 . S
C2311 C2312 1.459 . S
C2311 H2375 0.929 . S
C2312 C2311 1.459 . S
C2312 C2313 1.445 . S
C2312 C2321 1.395 . S
C2313 C2291 1.432 . S
C2313 C2312 1.445 . S
C2313 C2314 1.370 . S
C2314 C2313 1.370 . S
C2314 C2315 1.438 . S
C2314 H2376 0.930 . S
C2315 C2301 1.497 . S
C2315 C2314 1.438 . S
C2315 C2316 1.360 . S
C2316 C2315 1.360 . S
C2316 C2317 1.401 . S
C2316 C2321 1.446 . S
C2317 C2316 1.401 . S
C2317 C2318 1.347 . S
C2317 H2377 0.929 . S
C2318 C2317 1.347 . S
C2318 C2319 1.455 . S
C2318 H2378 0.930 . S
C2319 C2306 1.412 . S
C2319 C2318 1.455 . S
C2319 C2320 1.331 . S
C2320 C2309 1.451 . S
C2320 C2319 1.331 . S
C2320 C2321 1.497 . S
C2321 C2312 1.395 . S
C2321 C2316 1.446 . S
C2321 C2320 1.497 . S
C2322 C2323 1.582 . S
C2322 H2379 0.962 . S
C2322 H2380 0.959 . S
C2322 H2381 0.958 . S
C2323 C2322 1.582 . S
C2323 O2326 1.458 . S
C2323 H2352 0.980 . S
O2324 C2269 1.426 . S
O2324 C2270 1.334 . S
O2325 C2297 1.412 . S
O2325 C2298 1.393 . S
O2326 C2288 1.435 . S
O2326 C2323 1.458 . S
O2327 C2279 1.468 . S
O2327 C2280 1.408 . S
H2328 C2269 0.980 . S
H2329 C2268 0.959 . S
H2330 C2268 0.959 . S
H2331 C2268 0.960 . S
H2332 C2271 0.929 . S
H2333 C2275 0.929 . S
H2334 C2276 0.959 . S
H2335 C2276 0.961 . S
H2336 C2276 0.961 . S
H2337 C2277 0.960 . S
H2338 C2277 0.960 . S
H2339 C2277 0.961 . S
H2340 C2279 0.980 . S
H2341 C2278 0.961 . S
H2342 C2278 0.960 . S
H2343 C2278 0.959 . S
H2344 C2281 0.930 . S
H2345 C2285 0.931 . S
H2346 C2286 0.959 . S
H2347 C2286 0.961 . S
H2348 C2286 0.959 . S
H2349 C2287 0.960 . S
H2350 C2287 0.960 . S
H2351 C2287 0.960 . S
H2352 C2323 0.980 . S
H2353 C2289 0.930 . S
H2354 C2293 0.930 . S
H2355 C2294 0.961 . S
H2356 C2294 0.960 . S
H2357 C2294 0.958 . S
H2358 C2295 0.961 . S
H2359 C2295 0.960 . S
H2360 C2295 0.960 . S
H2361 C2297 0.980 . S
H2362 C2296 0.961 . S
H2363 C2296 0.961 . S
H2364 C2296 0.959 . S
H2365 C2299 0.932 . S
H2366 C2303 0.929 . S
H2367 C2304 0.961 . S
H2368 C2304 0.959 . S
H2369 C2304 0.959 . S
H2370 C2305 0.960 . S
H2371 C2305 0.962 . S
H2372 C2305 0.961 . S
H2373 C2307 0.929 . S
H2374 C2310 0.930 . S
H2375 C2311 0.929 . S
H2376 C2314 0.930 . S
H2377 C2317 0.929 . S
H2378 C2318 0.930 . S
H2379 C2322 0.962 . S
H2380 C2322 0.959 . S
H2381 C2322 0.958 . S
C2382 C2383 1.560 . S
C2382 H2443 0.959 . S
C2382 H2444 0.959 . S
C2382 H2445 0.960 . S
C2383 C2382 1.560 . S
C2383 O2438 1.426 . S
C2383 H2442 0.980 . S
C2384 C2385 1.407 . S
C2384 C2389 1.418 . S
C2384 O2438 1.334 . S
C2385 C2384 1.407 . S
C2385 C2386 1.360 . S
C2385 H2446 0.929 . S
C2386 C2385 1.360 . S
C2386 C2387 1.401 . S
C2386 C2390 1.527 . S
C2387 C2386 1.401 . S
C2387 C2388 1.405 . S
C2387 C2420 1.587 . S
C2388 C2387 1.405 . S
C2388 C2389 1.332 . S
C2388 C2391 1.496 . S
C2389 C2384 1.418 . S
C2389 C2388 1.332 . S
C2389 H2447 0.929 . S
C2390 C2386 1.527 . S
C2390 H2448 0.959 . S
C2390 H2449 0.961 . S
C2390 H2450 0.961 . S
C2391 C2388 1.496 . S
C2391 H2451 0.960 . S
C2391 H2452 0.960 . S
C2391 H2453 0.961 . S
C2392 C2393 1.517 . S
C2392 H2455 0.961 . S
C2392 H2456 0.960 . S
C2392 H2457 0.959 . S
C2393 C2392 1.517 . S
C2393 O2441 1.468 . S
C2393 H2454 0.980 . S
C2394 C2395 1.349 . S
C2394 C2399 1.367 . S
C2394 O2441 1.408 . S
C2395 C2394 1.349 . S
C2395 C2396 1.407 . S
C2395 H2458 0.930 . S
C2396 C2395 1.407 . S
C2396 C2397 1.449 . S
C2396 C2400 1.535 . S
C2397 C2396 1.449 . S
C2397 C2398 1.384 . S
C2397 C2422 1.553 . S
C2398 C2397 1.384 . S
C2398 C2399 1.364 . S
C2398 C2401 1.450 . S
C2399 C2394 1.367 . S
C2399 C2398 1.364 . S
C2399 H2459 0.931 . S
C2400 C2396 1.535 . S
C2400 H2460 0.959 . S
C2400 H2461 0.961 . S
C2400 H2462 0.959 . S
C2401 C2398 1.450 . S
C2401 H2463 0.960 . S
C2401 H2464 0.960 . S
C2401 H2465 0.960 . S
C2402 C2403 1.309 . S
C2402 C2407 1.304 . S
C2402 O2440 1.435 . S
C2403 C2402 1.309 . S
C2403 C2404 1.476 . S
C2403 H2467 0.930 . S
C2404 C2403 1.476 . S
C2404 C2405 1.400 . S
C2404 C2408 1.567 . S
C2405 C2404 1.400 . S
C2405 C2406 1.373 . S
C2405 C2427 1.432 . S
C2406 C2405 1.373 . S
C2406 C2407 1.339 . S
C2406 C2409 1.530 . S
C2407 C2402 1.304 . S
C2407 C2406 1.339 . S
C2407 H2468 0.930 . S
C2408 C2404 1.567 . S
C2408 H2469 0.961 . S
C2408 H2470 0.960 . S
C2408 H2471 0.958 . S
C2409 C2406 1.530 . S
C2409 H2472 0.961 . S
C2409 H2473 0.960 . S
C2409 H2474 0.960 . S
C2410 C2411 1.530 . S
C2410 H2476 0.961 . S
C2410 H2477 0.961 . S
C2410 H2478 0.959 . S
C2411 C2410 1.530 . S
C2411 O2439 1.412 . S
C2411 H2475 0.980 . S
C2412 C2413 1.288 . S
C2412 C2417 1.377 . S
C2412 O2439 1.393 . S
C2413 C2412 1.288 . S
C2413 C2414 1.369 . S
C2413 H2479 0.932 . S
C2414 C2413 1.369 . S
C2414 C2415 1.398 . S
C2414 C2418 1.527 . S
C2415 C2414 1.398 . S
C2415 C2416 1.380 . S
C2415 C2429 1.497 . S
C2416 C2415 1.380 . S
C2416 C2417 1.383 . S
C2416 C2419 1.603 . S
C2417 C2412 1.377 . S
C2417 C2416 1.383 . S
C2417 H2480 0.929 . S
C2418 C2414 1.527 . S
C2418 H2481 0.961 . S
C2418 H2482 0.959 . S
C2418 H2483 0.959 . S
C2419 C2416 1.603 . S
C2419 H2484 0.960 . S
C2419 H2485 0.962 . S
C2419 H2486 0.961 . S
C2420 C2387 1.587 . S
C2420 C2421 1.360 . S
C2420 C2433 1.412 . S
C2421 C2420 1.360 . S
C2421 C2422 1.365 . S
C2421 H2487 0.929 . S
C2422 C2397 1.553 . S
C2422 C2421 1.365 . S
C2422 C2423 1.404 . S
C2423 C2422 1.404 . S
C2423 C2424 1.395 . S
C2423 C2434 1.451 . S
C2424 C2423 1.395 . S
C2424 C2425 1.322 . S
C2424 H2488 0.930 . S
C2425 C2424 1.322 . S
C2425 C2426 1.459 . S
C2425 H2489 0.929 . S
C2426 C2425 1.459 . S
C2426 C2427 1.445 . S
C2426 C2435 1.395 . S
C2427 C2405 1.432 . S
C2427 C2426 1.445 . S
C2427 C2428 1.370 . S
C2428 C2427 1.370 . S
C2428 C2429 1.438 . S
C2428 H2490 0.930 . S
C2429 C2415 1.497 . S
C2429 C2428 1.438 . S
C2429 C2430 1.360 . S
C2430 C2429 1.360 . S
C2430 C2431 1.401 . S
C2430 C2435 1.446 . S
C2431 C2430 1.401 . S
C2431 C2432 1.347 . S
C2431 H2491 0.929 . S
C2432 C2431 1.347 . S
C2432 C2433 1.455 . S
C2432 H2492 0.930 . S
C2433 C2420 1.412 . S
C2433 C2432 1.455 . S
C2433 C2434 1.331 . S
C2434 C2423 1.451 . S
C2434 C2433 1.331 . S
C2434 C2435 1.497 . S
C2435 C2426 1.395 . S
C2435 C2430 1.446 . S
C2435 C2434 1.497 . S
C2436 C2437 1.582 . S
C2436 H2493 0.962 . S
C2436 H2494 0.959 . S
C2436 H2495 0.958 . S
C2437 C2436 1.582 . S
C2437 O2440 1.458 . S
C2437 H2466 0.980 . S
O2438 C2383 1.426 . S
O2438 C2384 1.334 . S
O2439 C2411 1.412 . S
O2439 C2412 1.393 . S
O2440 C2402 1.435 . S
O2440 C2437 1.458 . S
O2441 C2393 1.468 . S
O2441 C2394 1.408 . S
H2442 C2383 0.980 . S
H2443 C2382 0.959 . S
H2444 C2382 0.959 . S
H2445 C2382 0.960 . S
H2446 C2385 0.929 . S
H2447 C2389 0.929 . S
H2448 C2390 0.959 . S
H2449 C2390 0.961 . S
H2450 C2390 0.961 . S
H2451 C2391 0.960 . S
H2452 C2391 0.960 . S
H2453 C2391 0.961 . S
H2454 C2393 0.980 . S
H2455 C2392 0.961 . S
H2456 C2392 0.960 . S
H2457 C2392 0.959 . S
H2458 C2395 0.930 . S
H2459 C2399 0.931 . S
H2460 C2400 0.959 . S
H2461 C2400 0.961 . S
H2462 C2400 0.959 . S
H2463 C2401 0.960 . S
H2464 C2401 0.960 . S
H2465 C2401 0.960 . S
H2466 C2437 0.980 . S
H2467 C2403 0.930 . S
H2468 C2407 0.930 . S
H2469 C2408 0.961 . S
H2470 C2408 0.960 . S
H2471 C2408 0.958 . S
H2472 C2409 0.961 . S
H2473 C2409 0.960 . S
H2474 C2409 0.960 . S
H2475 C2411 0.980 . S
H2476 C2410 0.961 . S
H2477 C2410 0.961 . S
H2478 C2410 0.959 . S
H2479 C2413 0.932 . S
H2480 C2417 0.929 . S
H2481 C2418 0.961 . S
H2482 C2418 0.959 . S
H2483 C2418 0.959 . S
H2484 C2419 0.960 . S
H2485 C2419 0.962 . S
H2486 C2419 0.961 . S
H2487 C2421 0.929 . S
H2488 C2424 0.930 . S
H2489 C2425 0.929 . S
H2490 C2428 0.930 . S
H2491 C2431 0.929 . S
H2492 C2432 0.930 . S
H2493 C2436 0.962 . S
H2494 C2436 0.959 . S
H2495 C2436 0.958 . S
C2496 C2497 1.560 . S
C2496 H2557 0.959 . S
C2496 H2558 0.959 . S
C2496 H2559 0.960 . S
C2497 C2496 1.560 . S
C2497 O2552 1.426 . S
C2497 H2556 0.980 . S
C2498 C2499 1.407 . S
C2498 C2503 1.418 . S
C2498 O2552 1.334 . S
C2499 C2498 1.407 . S
C2499 C2500 1.360 . S
C2499 H2560 0.929 . S
C2500 C2499 1.360 . S
C2500 C2501 1.401 . S
C2500 C2504 1.527 . S
C2501 C2500 1.401 . S
C2501 C2502 1.405 . S
C2501 C2534 1.587 . S
C2502 C2501 1.405 . S
C2502 C2503 1.332 . S
C2502 C2505 1.496 . S
C2503 C2498 1.418 . S
C2503 C2502 1.332 . S
C2503 H2561 0.929 . S
C2504 C2500 1.527 . S
C2504 H2562 0.959 . S
C2504 H2563 0.961 . S
C2504 H2564 0.961 . S
C2505 C2502 1.496 . S
C2505 H2565 0.960 . S
C2505 H2566 0.960 . S
C2505 H2567 0.961 . S
C2506 C2507 1.517 . S
C2506 H2569 0.961 . S
C2506 H2570 0.960 . S
C2506 H2571 0.959 . S
C2507 C2506 1.517 . S
C2507 O2555 1.468 . S
C2507 H2568 0.980 . S
C2508 C2509 1.349 . S
C2508 C2513 1.367 . S
C2508 O2555 1.408 . S
C2509 C2508 1.349 . S
C2509 C2510 1.407 . S
C2509 H2572 0.930 . S
C2510 C2509 1.407 . S
C2510 C2511 1.449 . S
C2510 C2514 1.535 . S
C2511 C2510 1.449 . S
C2511 C2512 1.384 . S
C2511 C2536 1.553 . S
C2512 C2511 1.384 . S
C2512 C2513 1.364 . S
C2512 C2515 1.450 . S
C2513 C2508 1.367 . S
C2513 C2512 1.364 . S
C2513 H2573 0.931 . S
C2514 C2510 1.535 . S
C2514 H2574 0.959 . S
C2514 H2575 0.961 . S
C2514 H2576 0.959 . S
C2515 C2512 1.450 . S
C2515 H2577 0.960 . S
C2515 H2578 0.960 . S
C2515 H2579 0.960 . S
C2516 C2517 1.309 . S
C2516 C2521 1.304 . S
C2516 O2554 1.435 . S
C2517 C2516 1.309 . S
C2517 C2518 1.476 . S
C2517 H2581 0.930 . S
C2518 C2517 1.476 . S
C2518 C2519 1.400 . S
C2518 C2522 1.567 . S
C2519 C2518 1.400 . S
C2519 C2520 1.373 . S
C2519 C2541 1.432 . S
C2520 C2519 1.373 . S
C2520 C2521 1.339 . S
C2520 C2523 1.530 . S
C2521 C2516 1.304 . S
C2521 C2520 1.339 . S
C2521 H2582 0.930 . S
C2522 C2518 1.567 . S
C2522 H2583 0.961 . S
C2522 H2584 0.960 . S
C2522 H2585 0.958 . S
C2523 C2520 1.530 . S
C2523 H2586 0.961 . S
C2523 H2587 0.960 . S
C2523 H2588 0.960 . S
C2524 C2525 1.530 . S
C2524 H2590 0.961 . S
C2524 H2591 0.961 . S
C2524 H2592 0.959 . S
C2525 C2524 1.530 . S
C2525 O2553 1.412 . S
C2525 H2589 0.980 . S
C2526 C2527 1.288 . S
C2526 C2531 1.377 . S
C2526 O2553 1.393 . S
C2527 C2526 1.288 . S
C2527 C2528 1.369 . S
C2527 H2593 0.932 . S
C2528 C2527 1.369 . S
C2528 C2529 1.398 . S
C2528 C2532 1.527 . S
C2529 C2528 1.398 . S
C2529 C2530 1.380 . S
C2529 C2543 1.497 . S
C2530 C2529 1.380 . S
C2530 C2531 1.383 . S
C2530 C2533 1.603 . S
C2531 C2526 1.377 . S
C2531 C2530 1.383 . S
C2531 H2594 0.929 . S
C2532 C2528 1.527 . S
C2532 H2595 0.961 . S
C2532 H2596 0.959 . S
C2532 H2597 0.959 . S
C2533 C2530 1.603 . S
C2533 H2598 0.960 . S
C2533 H2599 0.962 . S
C2533 H2600 0.961 . S
C2534 C2501 1.587 . S
C2534 C2535 1.360 . S
C2534 C2547 1.412 . S
C2535 C2534 1.360 . S
C2535 C2536 1.365 . S
C2535 H2601 0.929 . S
C2536 C2511 1.553 . S
C2536 C2535 1.365 . S
C2536 C2537 1.404 . S
C2537 C2536 1.404 . S
C2537 C2538 1.395 . S
C2537 C2548 1.451 . S
C2538 C2537 1.395 . S
C2538 C2539 1.322 . S
C2538 H2602 0.930 . S
C2539 C2538 1.322 . S
C2539 C2540 1.459 . S
C2539 H2603 0.929 . S
C2540 C2539 1.459 . S
C2540 C2541 1.445 . S
C2540 C2549 1.395 . S
C2541 C2519 1.432 . S
C2541 C2540 1.445 . S
C2541 C2542 1.370 . S
C2542 C2541 1.370 . S
C2542 C2543 1.438 . S
C2542 H2604 0.930 . S
C2543 C2529 1.497 . S
C2543 C2542 1.438 . S
C2543 C2544 1.360 . S
C2544 C2543 1.360 . S
C2544 C2545 1.401 . S
C2544 C2549 1.446 . S
C2545 C2544 1.401 . S
C2545 C2546 1.347 . S
C2545 H2605 0.929 . S
C2546 C2545 1.347 . S
C2546 C2547 1.455 . S
C2546 H2606 0.930 . S
C2547 C2534 1.412 . S
C2547 C2546 1.455 . S
C2547 C2548 1.331 . S
C2548 C2537 1.451 . S
C2548 C2547 1.331 . S
C2548 C2549 1.497 . S
C2549 C2540 1.395 . S
C2549 C2544 1.446 . S
C2549 C2548 1.497 . S
C2550 C2551 1.582 . S
C2550 H2607 0.962 . S
C2550 H2608 0.959 . S
C2550 H2609 0.958 . S
C2551 C2550 1.582 . S
C2551 O2554 1.458 . S
C2551 H2580 0.980 . S
O2552 C2497 1.426 . S
O2552 C2498 1.334 . S
O2553 C2525 1.412 . S
O2553 C2526 1.393 . S
O2554 C2516 1.435 . S
O2554 C2551 1.458 . S
O2555 C2507 1.468 . S
O2555 C2508 1.408 . S
H2556 C2497 0.980 . S
H2557 C2496 0.959 . S
H2558 C2496 0.959 . S
H2559 C2496 0.960 . S
H2560 C2499 0.929 . S
H2561 C2503 0.929 . S
H2562 C2504 0.959 . S
H2563 C2504 0.961 . S
H2564 C2504 0.961 . S
H2565 C2505 0.960 . S
H2566 C2505 0.960 . S
H2567 C2505 0.961 . S
H2568 C2507 0.980 . S
H2569 C2506 0.961 . S
H2570 C2506 0.960 . S
H2571 C2506 0.959 . S
H2572 C2509 0.930 . S
H2573 C2513 0.931 . S
H2574 C2514 0.959 . S
H2575 C2514 0.961 . S
H2576 C2514 0.959 . S
H2577 C2515 0.960 . S
H2578 C2515 0.960 . S
H2579 C2515 0.960 . S
H2580 C2551 0.980 . S
H2581 C2517 0.930 . S
H2582 C2521 0.930 . S
H2583 C2522 0.961 . S
H2584 C2522 0.960 . S
H2585 C2522 0.958 . S
H2586 C2523 0.961 . S
H2587 C2523 0.960 . S
H2588 C2523 0.960 . S
H2589 C2525 0.980 . S
H2590 C2524 0.961 . S
H2591 C2524 0.961 . S
H2592 C2524 0.959 . S
H2593 C2527 0.932 . S
H2594 C2531 0.929 . S
H2595 C2532 0.961 . S
H2596 C2532 0.959 . S
H2597 C2532 0.959 . S
H2598 C2533 0.960 . S
H2599 C2533 0.962 . S
H2600 C2533 0.961 . S
H2601 C2535 0.929 . S
H2602 C2538 0.930 . S
H2603 C2539 0.929 . S
H2604 C2542 0.930 . S
H2605 C2545 0.929 . S
H2606 C2546 0.930 . S
H2607 C2550 0.962 . S
H2608 C2550 0.959 . S
H2609 C2550 0.958 . S
C2610 C2611 1.560 . S
C2610 H2671 0.959 . S
C2610 H2672 0.959 . S
C2610 H2673 0.960 . S
C2611 C2610 1.560 . S
C2611 O2666 1.426 . S
C2611 H2670 0.980 . S
C2612 C2613 1.407 1_455 S
C2612 C2617 1.418 . S
C2612 O2666 1.334 . S
C2613 C2612 1.407 1_655 S
C2613 C2614 1.360 . S
C2613 H2674 0.929 . S
C2614 C2613 1.360 . S
C2614 C2615 1.401 1_655 S
C2614 C2618 1.527 . S
C2615 C2614 1.401 1_455 S
C2615 C2616 1.405 . S
C2615 C2648 1.587 1_455 S
C2616 C2615 1.405 . S
C2616 C2617 1.332 . S
C2616 C2619 1.496 . S
C2617 C2612 1.418 . S
C2617 C2616 1.332 . S
C2617 H2675 0.929 . S
C2618 C2614 1.527 . S
C2618 H2676 0.959 . S
C2618 H2677 0.961 . S
C2618 H2678 0.961 . S
C2619 C2616 1.496 . S
C2619 H2679 0.960 . S
C2619 H2680 0.960 . S
C2619 H2681 0.961 . S
C2620 C2621 1.517 . S
C2620 H2683 0.963 . S
C2620 H2684 0.960 . S
C2620 H2685 0.959 . S
C2621 C2620 1.517 . S
C2621 O2669 1.468 . S
C2621 H2682 0.980 1_655 S
C2622 C2623 1.349 . S
C2622 C2627 1.367 . S
C2622 O2669 1.408 . S
C2623 C2622 1.349 . S
C2623 C2624 1.407 1_655 S
C2623 H2686 0.930 1_655 S
C2624 C2623 1.407 1_455 S
C2624 C2625 1.449 1_455 S
C2624 C2628 1.535 . S
C2625 C2624 1.449 1_655 S
C2625 C2626 1.384 . S
C2625 C2650 1.553 . S
C2626 C2625 1.384 . S
C2626 C2627 1.364 . S
C2626 C2629 1.450 . S
C2627 C2622 1.367 . S
C2627 C2626 1.364 . S
C2627 H2687 0.931 . S
C2628 C2624 1.535 . S
C2628 H2688 0.959 . S
C2628 H2689 0.961 . S
C2628 H2690 0.959 . S
C2629 C2626 1.450 . S
C2629 H2691 0.960 . S
C2629 H2692 0.960 . S
C2629 H2693 0.960 . S
C2630 C2631 1.309 . S
C2630 C2635 1.304 . S
C2630 O2668 1.435 . S
C2631 C2630 1.309 . S
C2631 C2632 1.480 1_655 S
C2631 H2695 0.930 1_655 S
C2632 C2631 1.480 1_455 S
C2632 C2633 1.403 1_455 S
C2632 C2636 1.560 . S
C2633 C2632 1.403 1_655 S
C2633 C2634 1.373 . S
C2633 C2655 1.432 . S
C2634 C2633 1.373 . S
C2634 C2635 1.339 . S
C2634 C2637 1.530 . S
C2635 C2630 1.304 . S
C2635 C2634 1.339 . S
C2635 H2696 0.930 . S
C2636 C2632 1.560 . S
C2636 H2697 0.961 . S
C2636 H2698 0.960 . S
C2636 H2699 0.958 . S
C2637 C2634 1.530 . S
C2637 H2700 0.961 . S
C2637 H2701 0.960 . S
C2637 H2702 0.960 . S
C2638 C2639 1.498 1_455 S
C2638 H2704 0.961 . S
C2638 H2705 0.961 . S
C2638 H2706 0.959 . S
C2639 C2638 1.498 1_655 S
C2639 O2667 1.405 1_655 S
C2639 H2703 0.990 . S
C2640 C2641 1.288 . S
C2640 C2645 1.377 1_455 S
C2640 O2667 1.393 . S
C2641 C2640 1.288 . S
C2641 C2642 1.369 . S
C2641 H2707 0.932 . S
C2642 C2641 1.369 . S
C2642 C2643 1.398 1_455 S
C2642 C2646 1.527 . S
C2643 C2642 1.398 1_655 S
C2643 C2644 1.380 . S
C2643 C2657 1.497 . S
C2644 C2643 1.380 . S
C2644 C2645 1.383 . S
C2644 C2647 1.603 . S
C2645 C2640 1.377 1_655 S
C2645 C2644 1.383 . S
C2645 H2708 0.929 . S
C2646 C2642 1.527 . S
C2646 H2709 0.961 . S
C2646 H2710 0.959 . S
C2646 H2711 0.959 . S
C2647 C2644 1.603 . S
C2647 H2712 0.960 . S
C2647 H2713 0.962 . S
C2647 H2714 0.961 . S
C2648 C2615 1.587 1_655 S
C2648 C2649 1.360 . S
C2648 C2661 1.412 . S
C2649 C2648 1.360 . S
C2649 C2650 1.365 . S
C2649 H2715 0.929 . S
C2650 C2625 1.553 . S
C2650 C2649 1.365 . S
C2650 C2651 1.404 . S
C2651 C2650 1.404 . S
C2651 C2652 1.395 . S
C2651 C2662 1.451 . S
C2652 C2651 1.395 . S
C2652 C2653 1.322 . S
C2652 H2716 0.930 . S
C2653 C2652 1.322 . S
C2653 C2654 1.459 . S
C2653 H2717 0.929 . S
C2654 C2653 1.459 . S
C2654 C2655 1.445 . S
C2654 C2663 1.395 . S
C2655 C2633 1.432 . S
C2655 C2654 1.445 . S
C2655 C2656 1.370 . S
C2656 C2655 1.370 . S
C2656 C2657 1.438 . S
C2656 H2718 0.930 . S
C2657 C2643 1.497 . S
C2657 C2656 1.438 . S
C2657 C2658 1.360 . S
C2658 C2657 1.360 . S
C2658 C2659 1.401 . S
C2658 C2663 1.446 . S
C2659 C2658 1.401 . S
C2659 C2660 1.347 . S
C2659 H2719 0.929 . S
C2660 C2659 1.347 . S
C2660 C2661 1.455 . S
C2660 H2720 0.930 . S
C2661 C2648 1.412 . S
C2661 C2660 1.455 . S
C2661 C2662 1.331 . S
C2662 C2651 1.451 . S
C2662 C2661 1.331 . S
C2662 C2663 1.497 . S
C2663 C2654 1.395 . S
C2663 C2658 1.446 . S
C2663 C2662 1.497 . S
C2664 C2665 1.582 . S
C2664 H2721 0.962 . S
C2664 H2722 0.959 . S
C2664 H2723 0.958 . S
C2665 C2664 1.582 . S
C2665 O2668 1.458 . S
C2665 H2694 0.980 . S
O2666 C2611 1.426 . S
O2666 C2612 1.334 . S
O2667 C2639 1.405 1_455 S
O2667 C2640 1.393 . S
O2668 C2630 1.435 . S
O2668 C2665 1.458 . S
O2669 C2621 1.468 . S
O2669 C2622 1.408 . S
H2670 C2611 0.980 . S
H2671 C2610 0.959 . S
H2672 C2610 0.959 . S
H2673 C2610 0.960 . S
H2674 C2613 0.929 . S
H2675 C2617 0.929 . S
H2676 C2618 0.959 . S
H2677 C2618 0.961 . S
H2678 C2618 0.961 . S
H2679 C2619 0.960 . S
H2680 C2619 0.960 . S
H2681 C2619 0.961 . S
H2682 C2621 0.980 1_455 S
H2683 C2620 0.963 . S
H2684 C2620 0.960 . S
H2685 C2620 0.959 . S
H2686 C2623 0.930 1_455 S
H2687 C2627 0.931 . S
H2688 C2628 0.959 . S
H2689 C2628 0.961 . S
H2690 C2628 0.959 . S
H2691 C2629 0.960 . S
H2692 C2629 0.960 . S
H2693 C2629 0.960 . S
H2694 C2665 0.980 . S
H2695 C2631 0.930 1_455 S
H2696 C2635 0.930 . S
H2697 C2636 0.961 . S
H2698 C2636 0.960 . S
H2699 C2636 0.958 . S
H2700 C2637 0.961 . S
H2701 C2637 0.960 . S
H2702 C2637 0.960 . S
H2703 C2639 0.990 . S
H2704 C2638 0.961 . S
H2705 C2638 0.961 . S
H2706 C2638 0.959 . S
H2707 C2641 0.932 . S
H2708 C2645 0.929 . S
H2709 C2646 0.961 . S
H2710 C2646 0.959 . S
H2711 C2646 0.959 . S
H2712 C2647 0.960 . S
H2713 C2647 0.962 . S
H2714 C2647 0.961 . S
H2715 C2649 0.929 . S
H2716 C2652 0.930 . S
H2717 C2653 0.929 . S
H2718 C2656 0.930 . S
H2719 C2659 0.929 . S
H2720 C2660 0.930 . S
H2721 C2664 0.962 . S
H2722 C2664 0.959 . S
H2723 C2664 0.958 . S
C2724 C2725 1.560 . S
C2724 H2785 0.959 . S
C2724 H2786 0.959 . S
C2724 H2787 0.960 . S
C2725 C2724 1.560 . S
C2725 O2780 1.426 . S
C2725 H2784 0.980 . S
C2726 C2727 1.407 . S
C2726 C2731 1.418 . S
C2726 O2780 1.334 . S
C2727 C2726 1.407 . S
C2727 C2728 1.360 . S
C2727 H2788 0.929 . S
C2728 C2727 1.360 . S
C2728 C2729 1.401 . S
C2728 C2732 1.527 . S
C2729 C2728 1.401 . S
C2729 C2730 1.405 . S
C2729 C2762 1.587 . S
C2730 C2729 1.405 . S
C2730 C2731 1.332 . S
C2730 C2733 1.496 . S
C2731 C2726 1.418 . S
C2731 C2730 1.332 . S
C2731 H2789 0.929 . S
C2732 C2728 1.527 . S
C2732 H2790 0.959 . S
C2732 H2791 0.961 . S
C2732 H2792 0.961 . S
C2733 C2730 1.496 . S
C2733 H2793 0.960 . S
C2733 H2794 0.960 . S
C2733 H2795 0.961 . S
C2734 C2735 1.517 . S
C2734 H2797 0.961 . S
C2734 H2798 0.960 . S
C2734 H2799 0.959 . S
C2735 C2734 1.517 . S
C2735 O2783 1.468 . S
C2735 H2796 0.980 . S
C2736 C2737 1.349 . S
C2736 C2741 1.367 . S
C2736 O2783 1.408 . S
C2737 C2736 1.349 . S
C2737 C2738 1.407 . S
C2737 H2800 0.930 . S
C2738 C2737 1.407 . S
C2738 C2739 1.449 . S
C2738 C2742 1.535 . S
C2739 C2738 1.449 . S
C2739 C2740 1.384 . S
C2739 C2764 1.553 . S
C2740 C2739 1.384 . S
C2740 C2741 1.364 . S
C2740 C2743 1.450 . S
C2741 C2736 1.367 . S
C2741 C2740 1.364 . S
C2741 H2801 0.931 . S
C2742 C2738 1.535 . S
C2742 H2802 0.959 . S
C2742 H2803 0.961 . S
C2742 H2804 0.959 . S
C2743 C2740 1.450 . S
C2743 H2805 0.960 . S
C2743 H2806 0.960 . S
C2743 H2807 0.960 . S
C2744 C2745 1.309 . S
C2744 C2749 1.304 . S
C2744 O2782 1.435 . S
C2745 C2744 1.309 . S
C2745 C2746 1.476 . S
C2745 H2809 0.930 . S
C2746 C2745 1.476 . S
C2746 C2747 1.400 . S
C2746 C2750 1.567 . S
C2747 C2746 1.400 . S
C2747 C2748 1.373 . S
C2747 C2769 1.432 . S
C2748 C2747 1.373 . S
C2748 C2749 1.339 . S
C2748 C2751 1.530 . S
C2749 C2744 1.304 . S
C2749 C2748 1.339 . S
C2749 H2810 0.930 . S
C2750 C2746 1.567 . S
C2750 H2811 0.961 . S
C2750 H2812 0.960 . S
C2750 H2813 0.958 . S
C2751 C2748 1.530 . S
C2751 H2814 0.961 . S
C2751 H2815 0.960 . S
C2751 H2816 0.960 . S
C2752 C2753 1.530 . S
C2752 H2818 0.961 . S
C2752 H2819 0.961 . S
C2752 H2820 0.959 . S
C2753 C2752 1.530 . S
C2753 O2781 1.412 . S
C2753 H2817 0.980 . S
C2754 C2755 1.288 . S
C2754 C2759 1.377 . S
C2754 O2781 1.393 . S
C2755 C2754 1.288 . S
C2755 C2756 1.369 . S
C2755 H2821 0.932 . S
C2756 C2755 1.369 . S
C2756 C2757 1.398 . S
C2756 C2760 1.527 . S
C2757 C2756 1.398 . S
C2757 C2758 1.380 . S
C2757 C2771 1.497 . S
C2758 C2757 1.380 . S
C2758 C2759 1.383 . S
C2758 C2761 1.603 . S
C2759 C2754 1.377 . S
C2759 C2758 1.383 . S
C2759 H2822 0.929 . S
C2760 C2756 1.527 . S
C2760 H2823 0.961 . S
C2760 H2824 0.959 . S
C2760 H2825 0.959 . S
C2761 C2758 1.603 . S
C2761 H2826 0.960 . S
C2761 H2827 0.962 . S
C2761 H2828 0.961 . S
C2762 C2729 1.587 . S
C2762 C2763 1.360 . S
C2762 C2775 1.412 . S
C2763 C2762 1.360 . S
C2763 C2764 1.365 . S
C2763 H2829 0.929 . S
C2764 C2739 1.553 . S
C2764 C2763 1.365 . S
C2764 C2765 1.404 . S
C2765 C2764 1.404 . S
C2765 C2766 1.395 . S
C2765 C2776 1.451 . S
C2766 C2765 1.395 . S
C2766 C2767 1.322 . S
C2766 H2830 0.930 . S
C2767 C2766 1.322 . S
C2767 C2768 1.459 . S
C2767 H2831 0.929 . S
C2768 C2767 1.459 . S
C2768 C2769 1.445 . S
C2768 C2777 1.395 . S
C2769 C2747 1.432 . S
C2769 C2768 1.445 . S
C2769 C2770 1.370 . S
C2770 C2769 1.370 . S
C2770 C2771 1.438 . S
C2770 H2832 0.930 . S
C2771 C2757 1.497 . S
C2771 C2770 1.438 . S
C2771 C2772 1.360 . S
C2772 C2771 1.360 . S
C2772 C2773 1.401 . S
C2772 C2777 1.446 . S
C2773 C2772 1.401 . S
C2773 C2774 1.347 . S
C2773 H2833 0.929 . S
C2774 C2773 1.347 . S
C2774 C2775 1.455 . S
C2774 H2834 0.930 . S
C2775 C2762 1.412 . S
C2775 C2774 1.455 . S
C2775 C2776 1.331 . S
C2776 C2765 1.451 . S
C2776 C2775 1.331 . S
C2776 C2777 1.497 . S
C2777 C2768 1.395 . S
C2777 C2772 1.446 . S
C2777 C2776 1.497 . S
C2778 C2779 1.582 . S
C2778 H2835 0.962 . S
C2778 H2836 0.959 . S
C2778 H2837 0.958 . S
C2779 C2778 1.582 . S
C2779 O2782 1.458 . S
C2779 H2808 0.980 . S
O2780 C2725 1.426 . S
O2780 C2726 1.334 . S
O2781 C2753 1.412 . S
O2781 C2754 1.393 . S
O2782 C2744 1.435 . S
O2782 C2779 1.458 . S
O2783 C2735 1.468 . S
O2783 C2736 1.408 . S
H2784 C2725 0.980 . S
H2785 C2724 0.959 . S
H2786 C2724 0.959 . S
H2787 C2724 0.960 . S
H2788 C2727 0.929 . S
H2789 C2731 0.929 . S
H2790 C2732 0.959 . S
H2791 C2732 0.961 . S
H2792 C2732 0.961 . S
H2793 C2733 0.960 . S
H2794 C2733 0.960 . S
H2795 C2733 0.961 . S
H2796 C2735 0.980 . S
H2797 C2734 0.961 . S
H2798 C2734 0.960 . S
H2799 C2734 0.959 . S
H2800 C2737 0.930 . S
H2801 C2741 0.931 . S
H2802 C2742 0.959 . S
H2803 C2742 0.961 . S
H2804 C2742 0.959 . S
H2805 C2743 0.960 . S
H2806 C2743 0.960 . S
H2807 C2743 0.960 . S
H2808 C2779 0.980 . S
H2809 C2745 0.930 . S
H2810 C2749 0.930 . S
H2811 C2750 0.961 . S
H2812 C2750 0.960 . S
H2813 C2750 0.958 . S
H2814 C2751 0.961 . S
H2815 C2751 0.960 . S
H2816 C2751 0.960 . S
H2817 C2753 0.980 . S
H2818 C2752 0.961 . S
H2819 C2752 0.961 . S
H2820 C2752 0.959 . S
H2821 C2755 0.932 . S
H2822 C2759 0.929 . S
H2823 C2760 0.961 . S
H2824 C2760 0.959 . S
H2825 C2760 0.959 . S
H2826 C2761 0.960 . S
H2827 C2761 0.962 . S
H2828 C2761 0.961 . S
H2829 C2763 0.929 . S
H2830 C2766 0.930 . S
H2831 C2767 0.929 . S
H2832 C2770 0.930 . S
H2833 C2773 0.929 . S
H2834 C2774 0.930 . S
H2835 C2778 0.962 . S
H2836 C2778 0.959 . S
H2837 C2778 0.958 . S
C2838 C2839 1.560 . S
C2838 H2899 0.959 . S
C2838 H2900 0.959 . S
C2838 H2901 0.960 . S
C2839 C2838 1.560 . S
C2839 O2894 1.426 . S
C2839 H2898 0.980 . S
C2840 C2841 1.407 1_565 S
C2840 C2845 1.418 . S
C2840 O2894 1.334 . S
C2841 C2840 1.407 1_545 S
C2841 C2842 1.360 . S
C2841 H2902 0.929 . S
C2842 C2841 1.360 . S
C2842 C2843 1.401 1_545 S
C2842 C2846 1.527 . S
C2843 C2842 1.401 1_565 S
C2843 C2844 1.405 . S
C2843 C2876 1.587 1_565 S
C2844 C2843 1.405 . S
C2844 C2845 1.332 . S
C2844 C2847 1.496 . S
C2845 C2840 1.418 . S
C2845 C2844 1.332 . S
C2845 H2903 0.929 . S
C2846 C2842 1.527 . S
C2846 H2904 0.959 . S
C2846 H2905 0.961 . S
C2846 H2906 0.961 . S
C2847 C2844 1.496 . S
C2847 H2907 0.960 . S
C2847 H2908 0.960 . S
C2847 H2909 0.961 . S
C2848 C2849 1.517 . S
C2848 H2911 0.961 1_545 S
C2848 H2912 0.960 . S
C2848 H2913 0.959 . S
C2849 C2848 1.517 . S
C2849 O2897 1.468 . S
C2849 H2910 0.980 1_545 S
C2850 C2851 1.380 . S
C2850 C2855 1.367 . S
C2850 O2897 1.408 . S
C2851 C2850 1.380 . S
C2851 C2852 1.426 1_545 S
C2851 H2914 0.881 1_545 S
C2852 C2851 1.426 1_565 S
C2852 C2853 1.449 1_565 S
C2852 C2856 1.535 . S
C2853 C2852 1.449 1_545 S
C2853 C2854 1.384 . S
C2853 C2878 1.553 . S
C2854 C2853 1.384 . S
C2854 C2855 1.364 . S
C2854 C2857 1.450 . S
C2855 C2850 1.367 . S
C2855 C2854 1.364 . S
C2855 H2915 0.931 . S
C2856 C2852 1.535 . S
C2856 H2916 0.959 . S
C2856 H2917 0.961 . S
C2856 H2918 0.959 . S
C2857 C2854 1.450 . S
C2857 H2919 0.960 . S
C2857 H2920 0.960 . S
C2857 H2921 0.960 . S
C2858 C2859 1.309 . S
C2858 C2863 1.304 . S
C2858 O2896 1.435 . S
C2859 C2858 1.309 . S
C2859 C2860 1.489 1_545 S
C2859 H2923 0.930 1_545 S
C2860 C2859 1.489 1_565 S
C2860 C2861 1.357 1_565 S
C2860 C2864 1.596 . S
C2861 C2860 1.357 1_545 S
C2861 C2862 1.373 . S
C2861 C2883 1.432 . S
C2862 C2861 1.373 . S
C2862 C2863 1.339 . S
C2862 C2865 1.530 . S
C2863 C2858 1.304 . S
C2863 C2862 1.339 . S
C2863 H2924 0.930 . S
C2864 C2860 1.596 . S
C2864 H2925 0.961 . S
C2864 H2926 0.960 . S
C2864 H2927 0.958 . S
C2865 C2862 1.530 . S
C2865 H2928 0.961 . S
C2865 H2929 0.960 . S
C2865 H2930 0.960 . S
C2866 C2867 1.530 1_565 S
C2866 H2932 0.961 . S
C2866 H2933 0.961 . S
C2866 H2934 0.959 . S
C2867 C2866 1.530 1_545 S
C2867 O2895 1.412 1_545 S
C2867 H2931 0.980 . S
C2868 C2869 1.288 . S
C2868 C2873 1.377 1_565 S
C2868 O2895 1.393 . S
C2869 C2868 1.288 . S
C2869 C2870 1.369 . S
C2869 H2935 0.932 . S
C2870 C2869 1.369 . S
C2870 C2871 1.398 1_565 S
C2870 C2874 1.527 . S
C2871 C2870 1.398 1_545 S
C2871 C2872 1.380 . S
C2871 C2885 1.497 . S
C2872 C2871 1.380 . S
C2872 C2873 1.383 . S
C2872 C2875 1.603 . S
C2873 C2868 1.377 1_545 S
C2873 C2872 1.383 . S
C2873 H2936 0.929 . S
C2874 C2870 1.527 . S
C2874 H2937 0.961 . S
C2874 H2938 0.959 . S
C2874 H2939 0.959 . S
C2875 C2872 1.603 . S
C2875 H2940 0.960 . S
C2875 H2941 0.962 . S
C2875 H2942 0.961 . S
C2876 C2843 1.587 1_545 S
C2876 C2877 1.360 . S
C2876 C2889 1.412 . S
C2877 C2876 1.360 . S
C2877 C2878 1.365 . S
C2877 H2943 0.929 . S
C2878 C2853 1.553 . S
C2878 C2877 1.365 . S
C2878 C2879 1.404 . S
C2879 C2878 1.404 . S
C2879 C2880 1.395 . S
C2879 C2890 1.451 . S
C2880 C2879 1.395 . S
C2880 C2881 1.322 . S
C2880 H2944 0.930 . S
C2881 C2880 1.322 . S
C2881 C2882 1.459 . S
C2881 H2945 0.929 . S
C2882 C2881 1.459 . S
C2882 C2883 1.445 . S
C2882 C2891 1.395 . S
C2883 C2861 1.432 . S
C2883 C2882 1.445 . S
C2883 C2884 1.370 . S
C2884 C2883 1.370 . S
C2884 C2885 1.438 . S
C2884 H2946 0.930 . S
C2885 C2871 1.497 . S
C2885 C2884 1.438 . S
C2885 C2886 1.360 . S
C2886 C2885 1.360 . S
C2886 C2887 1.401 . S
C2886 C2891 1.446 . S
C2887 C2886 1.401 . S
C2887 C2888 1.347 . S
C2887 H2947 0.929 . S
C2888 C2887 1.347 . S
C2888 C2889 1.455 . S
C2888 H2948 0.930 . S
C2889 C2876 1.412 . S
C2889 C2888 1.455 . S
C2889 C2890 1.331 . S
C2890 C2879 1.451 . S
C2890 C2889 1.331 . S
C2890 C2891 1.497 . S
C2891 C2882 1.395 . S
C2891 C2886 1.446 . S
C2891 C2890 1.497 . S
C2892 C2893 1.582 . S
C2892 H2949 0.962 . S
C2892 H2950 0.959 . S
C2892 H2951 0.958 . S
C2893 C2892 1.582 . S
C2893 O2896 1.458 . S
C2893 H2922 0.980 . S
O2894 C2839 1.426 . S
O2894 C2840 1.334 . S
O2895 C2867 1.412 1_565 S
O2895 C2868 1.393 . S
O2896 C2858 1.435 . S
O2896 C2893 1.458 . S
O2897 C2849 1.468 . S
O2897 C2850 1.408 . S
H2898 C2839 0.980 . S
H2899 C2838 0.959 . S
H2900 C2838 0.959 . S
H2901 C2838 0.960 . S
H2902 C2841 0.929 . S
H2903 C2845 0.929 . S
H2904 C2846 0.959 . S
H2905 C2846 0.961 . S
H2906 C2846 0.961 . S
H2907 C2847 0.960 . S
H2908 C2847 0.960 . S
H2909 C2847 0.961 . S
H2910 C2849 0.980 1_565 S
H2911 C2848 0.961 1_565 S
H2912 C2848 0.960 . S
H2913 C2848 0.959 . S
H2914 C2851 0.881 1_565 S
H2915 C2855 0.931 . S
H2916 C2856 0.959 . S
H2917 C2856 0.961 . S
H2918 C2856 0.959 . S
H2919 C2857 0.960 . S
H2920 C2857 0.960 . S
H2921 C2857 0.960 . S
H2922 C2893 0.980 . S
H2923 C2859 0.930 1_565 S
H2924 C2863 0.930 . S
H2925 C2864 0.961 . S
H2926 C2864 0.960 . S
H2927 C2864 0.958 . S
H2928 C2865 0.961 . S
H2929 C2865 0.960 . S
H2930 C2865 0.960 . S
H2931 C2867 0.980 . S
H2932 C2866 0.961 . S
H2933 C2866 0.961 . S
H2934 C2866 0.959 . S
H2935 C2869 0.932 . S
H2936 C2873 0.929 . S
H2937 C2874 0.961 . S
H2938 C2874 0.959 . S
H2939 C2874 0.959 . S
H2940 C2875 0.960 . S
H2941 C2875 0.962 . S
H2942 C2875 0.961 . S
H2943 C2877 0.929 . S
H2944 C2880 0.930 . S
H2945 C2881 0.929 . S
H2946 C2884 0.930 . S
H2947 C2887 0.929 . S
H2948 C2888 0.930 . S
H2949 C2892 0.962 . S
H2950 C2892 0.959 . S
H2951 C2892 0.958 . S
C2952 C2953 1.560 . S
C2952 H3013 0.959 . S
C2952 H3014 0.959 . S
C2952 H3015 0.960 . S
C2953 C2952 1.560 . S
C2953 O3008 1.426 . S
C2953 H3012 0.980 1_565 S
C2954 C2955 1.407 1_565 S
C2954 C2959 1.418 . S
C2954 O3008 1.334 . S
C2955 C2954 1.407 1_545 S
C2955 C2956 1.360 . S
C2955 H3016 0.929 . S
C2956 C2955 1.360 . S
C2956 C2957 1.401 . S
C2956 C2960 1.527 . S
C2957 C2956 1.401 . S
C2957 C2958 1.405 1_545 S
C2957 C2990 1.587 . S
C2958 C2957 1.405 1_565 S
C2958 C2959 1.332 . S
C2958 C2961 1.496 . S
C2959 C2954 1.418 . S
C2959 C2958 1.332 . S
C2959 H3017 0.929 . S
C2960 C2956 1.527 . S
C2960 H3018 0.959 . S
C2960 H3019 0.961 . S
C2960 H3020 0.961 . S
C2961 C2958 1.496 . S
C2961 H3021 0.960 . S
C2961 H3022 0.960 . S
C2961 H3023 0.961 . S
C2962 C2963 1.517 . S
C2962 H3025 0.961 . S
C2962 H3026 0.960 . S
C2962 H3027 0.959 . S
C2963 C2962 1.517 . S
C2963 O3011 1.468 . S
C2963 H3024 0.980 . S
C2964 C2965 1.349 . S
C2964 C2969 1.367 . S
C2964 O3011 1.408 . S
C2965 C2964 1.349 . S
C2965 C2966 1.407 . S
C2965 H3028 0.936 . S
C2966 C2965 1.407 . S
C2966 C2967 1.449 . S
C2966 C2970 1.535 1_545 S
C2967 C2966 1.449 . S
C2967 C2968 1.384 . S
C2967 C2992 1.553 . S
C2968 C2967 1.384 . S
C2968 C2969 1.364 . S
C2968 C2971 1.450 . S
C2969 C2964 1.367 . S
C2969 C2968 1.364 . S
C2969 H3029 0.931 . S
C2970 C2966 1.535 1_565 S
C2970 H3030 0.959 . S
C2970 H3031 0.961 . S
C2970 H3032 0.959 . S
C2971 C2968 1.450 . S
C2971 H3033 0.960 . S
C2971 H3034 0.960 . S
C2971 H3035 0.960 . S
C2972 C2973 1.309 1_545 S
C2972 C2977 1.304 . S
C2972 O3010 1.435 . S
C2973 C2972 1.309 1_565 S
C2973 C2974 1.476 . S
C2973 H3037 0.930 . S
C2974 C2973 1.476 . S
C2974 C2975 1.400 1_565 S
C2974 C2978 1.567 . S
C2975 C2974 1.400 1_545 S
C2975 C2976 1.373 . S
C2975 C2997 1.432 . S
C2976 C2975 1.373 . S
C2976 C2977 1.339 . S
C2976 C2979 1.530 . S
C2977 C2972 1.304 . S
C2977 C2976 1.339 . S
C2977 H3038 0.930 . S
C2978 C2974 1.567 . S
C2978 H3039 0.961 . S
C2978 H3040 0.960 . S
C2978 H3041 0.958 . S
C2979 C2976 1.530 . S
C2979 H3042 0.961 . S
C2979 H3043 0.960 . S
C2979 H3044 0.960 . S
C2980 C2981 1.530 . S
C2980 H3046 0.961 . S
C2980 H3047 0.961 . S
C2980 H3048 0.959 . S
C2981 C2980 1.530 . S
C2981 O3009 1.412 . S
C2981 H3045 0.980 . S
C2982 C2983 1.288 . S
C2982 C2987 1.377 1_565 S
C2982 O3009 1.393 . S
C2983 C2982 1.288 . S
C2983 C2984 1.369 . S
C2983 H3049 0.932 . S
C2984 C2983 1.369 . S
C2984 C2985 1.398 . S
C2984 C2988 1.527 . S
C2985 C2984 1.398 . S
C2985 C2986 1.380 1_565 S
C2985 C2999 1.497 1_565 S
C2986 C2985 1.380 1_545 S
C2986 C2987 1.383 . S
C2986 C2989 1.603 . S
C2987 C2982 1.377 1_545 S
C2987 C2986 1.383 . S
C2987 H3050 0.929 . S
C2988 C2984 1.527 . S
C2988 H3051 0.961 . S
C2988 H3052 0.959 . S
C2988 H3053 0.959 . S
C2989 C2986 1.603 . S
C2989 H3054 0.960 . S
C2989 H3055 0.962 . S
C2989 H3056 0.961 . S
C2990 C2957 1.587 . S
C2990 C2991 1.360 . S
C2990 C3003 1.412 . S
C2991 C2990 1.360 . S
C2991 C2992 1.365 . S
C2991 H3057 0.929 . S
C2992 C2967 1.553 . S
C2992 C2991 1.365 . S
C2992 C2993 1.404 . S
C2993 C2992 1.404 . S
C2993 C2994 1.395 . S
C2993 C3004 1.451 . S
C2994 C2993 1.395 . S
C2994 C2995 1.322 . S
C2994 H3058 0.930 . S
C2995 C2994 1.322 . S
C2995 C2996 1.459 . S
C2995 H3059 0.929 . S
C2996 C2995 1.459 . S
C2996 C2997 1.445 . S
C2996 C3005 1.395 . S
C2997 C2975 1.432 . S
C2997 C2996 1.445 . S
C2997 C2998 1.370 . S
C2998 C2997 1.370 . S
C2998 C2999 1.438 . S
C2998 H3060 0.930 . S
C2999 C2985 1.497 1_545 S
C2999 C2998 1.438 . S
C2999 C3000 1.360 . S
C3000 C2999 1.360 . S
C3000 C3001 1.401 . S
C3000 C3005 1.446 . S
C3001 C3000 1.401 . S
C3001 C3002 1.347 . S
C3001 H3061 0.959 . S
C3002 C3001 1.347 . S
C3002 C3003 1.455 . S
C3002 H3062 0.930 . S
C3003 C2990 1.412 . S
C3003 C3002 1.455 . S
C3003 C3004 1.331 . S
C3004 C2993 1.451 . S
C3004 C3003 1.331 . S
C3004 C3005 1.497 . S
C3005 C2996 1.395 . S
C3005 C3000 1.446 . S
C3005 C3004 1.497 . S
C3006 C3007 1.627 . S
C3006 H3063 0.962 . S
C3006 H3064 0.959 . S
C3006 H3065 0.958 . S
C3007 C3006 1.627 . S
C3007 O3010 1.476 . S
C3007 H3036 0.981 1_545 S
O3008 C2953 1.426 . S
O3008 C2954 1.334 . S
O3009 C2981 1.412 . S
O3009 C2982 1.393 . S
O3010 C2972 1.435 . S
O3010 C3007 1.476 . S
O3011 C2963 1.468 . S
O3011 C2964 1.408 . S
H3012 C2953 0.980 1_545 S
H3013 C2952 0.959 . S
H3014 C2952 0.959 . S
H3015 C2952 0.960 . S
H3016 C2955 0.929 . S
H3017 C2959 0.929 . S
H3018 C2960 0.959 . S
H3019 C2960 0.961 . S
H3020 C2960 0.961 . S
H3021 C2961 0.960 . S
H3022 C2961 0.960 . S
H3023 C2961 0.961 . S
H3024 C2963 0.980 . S
H3025 C2962 0.961 . S
H3026 C2962 0.960 . S
H3027 C2962 0.959 . S
H3028 C2965 0.936 . S
H3029 C2969 0.931 . S
H3030 C2970 0.959 . S
H3031 C2970 0.961 . S
H3032 C2970 0.959 . S
H3033 C2971 0.960 . S
H3034 C2971 0.960 . S
H3035 C2971 0.960 . S
H3036 C3007 0.981 1_565 S
H3037 C2973 0.930 . S
H3038 C2977 0.930 . S
H3039 C2978 0.961 . S
H3040 C2978 0.960 . S
H3041 C2978 0.958 . S
H3042 C2979 0.961 . S
H3043 C2979 0.960 . S
H3044 C2979 0.960 . S
H3045 C2981 0.980 . S
H3046 C2980 0.961 . S
H3047 C2980 0.961 . S
H3048 C2980 0.959 . S
H3049 C2983 0.932 . S
H3050 C2987 0.929 . S
H3051 C2988 0.961 . S
H3052 C2988 0.959 . S
H3053 C2988 0.959 . S
H3054 C2989 0.960 . S
H3055 C2989 0.962 . S
H3056 C2989 0.961 . S
H3057 C2991 0.929 . S
H3058 C2994 0.930 . S
H3059 C2995 0.929 . S
H3060 C2998 0.930 . S
H3061 C3001 0.959 . S
H3062 C3002 0.930 . S
H3063 C3006 0.962 . S
H3064 C3006 0.959 . S
H3065 C3006 0.958 . S
C3066 C3067 1.560 . S
C3066 H3127 0.959 . S
C3066 H3128 0.959 . S
C3066 H3129 0.960 . S
C3067 C3066 1.560 . S
C3067 O3122 1.426 . S
C3067 H3126 0.980 1_455 S
C3068 C3069 1.407 1_455 S
C3068 C3073 1.418 . S
C3068 O3122 1.334 . S
C3069 C3068 1.407 1_655 S
C3069 C3070 1.360 . S
C3069 H3130 0.929 . S
C3070 C3069 1.360 . S
C3070 C3071 1.401 . S
C3070 C3074 1.527 . S
C3071 C3070 1.401 . S
C3071 C3072 1.405 1_655 S
C3071 C3104 1.587 . S
C3072 C3071 1.405 1_455 S
C3072 C3073 1.332 . S
C3072 C3075 1.496 . S
C3073 C3068 1.418 . S
C3073 C3072 1.332 . S
C3073 H3131 0.929 . S
C3074 C3070 1.527 . S
C3074 H3132 0.959 . S
C3074 H3133 0.961 . S
C3074 H3134 0.961 . S
C3075 C3072 1.496 . S
C3075 H3135 0.960 . S
C3075 H3136 0.960 . S
C3075 H3137 0.961 . S
C3076 C3077 1.517 . S
C3076 H3139 0.961 . S
C3076 H3140 0.960 . S
C3076 H3141 0.959 . S
C3077 C3076 1.517 . S
C3077 O3125 1.468 . S
C3077 H3138 0.980 . S
C3078 C3079 1.349 . S
C3078 C3083 1.367 . S
C3078 O3125 1.408 . S
C3079 C3078 1.349 . S
C3079 C3080 1.407 . S
C3079 H3142 0.922 . S
C3080 C3079 1.407 . S
C3080 C3081 1.449 . S
C3080 C3084 1.535 1_655 S
C3081 C3080 1.449 . S
C3081 C3082 1.384 . S
C3081 C3106 1.553 . S
C3082 C3081 1.384 . S
C3082 C3083 1.364 . S
C3082 C3085 1.450 . S
C3083 C3078 1.367 . S
C3083 C3082 1.364 . S
C3083 H3143 0.931 . S
C3084 C3080 1.535 1_455 S
C3084 H3144 0.959 . S
C3084 H3145 0.961 . S
C3084 H3146 0.959 . S
C3085 C3082 1.450 . S
C3085 H3147 0.960 . S
C3085 H3148 0.960 . S
C3085 H3149 0.960 . S
C3086 C3087 1.309 1_655 S
C3086 C3091 1.304 . S
C3086 O3124 1.435 . S
C3087 C3086 1.309 1_455 S
C3087 C3088 1.476 . S
C3087 H3151 0.930 . S
C3088 C3087 1.476 . S
C3088 C3089 1.400 1_455 S
C3088 C3092 1.567 . S
C3089 C3088 1.400 1_655 S
C3089 C3090 1.373 . S
C3089 C3111 1.432 . S
C3090 C3089 1.373 . S
C3090 C3091 1.339 . S
C3090 C3093 1.530 . S
C3091 C3086 1.304 . S
C3091 C3090 1.339 . S
C3091 H3152 0.930 . S
C3092 C3088 1.567 . S
C3092 H3153 0.961 . S
C3092 H3154 0.960 . S
C3092 H3155 0.958 . S
C3093 C3090 1.530 . S
C3093 H3156 0.961 . S
C3093 H3157 0.960 . S
C3093 H3158 0.960 . S
C3094 C3095 1.530 . S
C3094 H3160 0.961 . S
C3094 H3161 0.961 . S
C3094 H3162 0.959 . S
C3095 C3094 1.530 . S
C3095 O3123 1.412 . S
C3095 H3159 0.991 . S
C3096 C3097 1.288 . S
C3096 C3101 1.377 1_455 S
C3096 O3123 1.393 . S
C3097 C3096 1.288 . S
C3097 C3098 1.369 . S
C3097 H3163 0.932 . S
C3098 C3097 1.369 . S
C3098 C3099 1.398 . S
C3098 C3102 1.527 . S
C3099 C3098 1.398 . S
C3099 C3100 1.380 1_455 S
C3099 C3113 1.497 1_455 S
C3100 C3099 1.380 1_655 S
C3100 C3101 1.383 . S
C3100 C3103 1.603 . S
C3101 C3096 1.377 1_655 S
C3101 C3100 1.383 . S
C3101 H3164 0.929 . S
C3102 C3098 1.527 . S
C3102 H3165 0.961 . S
C3102 H3166 0.959 . S
C3102 H3167 0.959 . S
C3103 C3100 1.603 . S
C3103 H3168 0.960 . S
C3103 H3169 0.962 . S
C3103 H3170 0.961 . S
C3104 C3071 1.587 . S
C3104 C3105 1.360 . S
C3104 C3117 1.412 . S
C3105 C3104 1.360 . S
C3105 C3106 1.365 . S
C3105 H3171 0.929 . S
C3106 C3081 1.553 . S
C3106 C3105 1.365 . S
C3106 C3107 1.404 . S
C3107 C3106 1.404 . S
C3107 C3108 1.395 . S
C3107 C3118 1.451 . S
C3108 C3107 1.395 . S
C3108 C3109 1.322 . S
C3108 H3172 0.930 . S
C3109 C3108 1.322 . S
C3109 C3110 1.459 . S
C3109 H3173 0.929 . S
C3110 C3109 1.459 . S
C3110 C3111 1.445 . S
C3110 C3119 1.395 . S
C3111 C3089 1.432 . S
C3111 C3110 1.445 . S
C3111 C3112 1.370 . S
C3112 C3111 1.370 . S
C3112 C3113 1.438 . S
C3112 H3174 0.930 . S
C3113 C3099 1.497 1_655 S
C3113 C3112 1.438 . S
C3113 C3114 1.360 . S
C3114 C3113 1.360 . S
C3114 C3115 1.401 . S
C3114 C3119 1.446 . S
C3115 C3114 1.401 . S
C3115 C3116 1.347 . S
C3115 H3175 0.929 . S
C3116 C3115 1.347 . S
C3116 C3117 1.455 . S
C3116 H3176 0.930 . S
C3117 C3104 1.412 . S
C3117 C3116 1.455 . S
C3117 C3118 1.331 . S
C3118 C3107 1.451 . S
C3118 C3117 1.331 . S
C3118 C3119 1.497 . S
C3119 C3110 1.395 . S
C3119 C3114 1.446 . S
C3119 C3118 1.497 . S
C3120 C3121 1.582 1_655 S
C3120 H3177 0.944 1_655 S
C3120 H3178 0.959 . S
C3120 H3179 0.958 . S
C3121 C3120 1.582 1_455 S
C3121 O3124 1.458 1_455 S
C3121 H3150 0.980 . S
O3122 C3067 1.426 . S
O3122 C3068 1.334 . S
O3123 C3095 1.412 . S
O3123 C3096 1.393 . S
O3124 C3086 1.435 . S
O3124 C3121 1.458 1_655 S
O3125 C3077 1.468 . S
O3125 C3078 1.408 . S
H3126 C3067 0.980 1_655 S
H3127 C3066 0.959 . S
H3128 C3066 0.959 . S
H3129 C3066 0.960 . S
H3130 C3069 0.929 . S
H3131 C3073 0.929 . S
H3132 C3074 0.959 . S
H3133 C3074 0.961 . S
H3134 C3074 0.961 . S
H3135 C3075 0.960 . S
H3136 C3075 0.960 . S
H3137 C3075 0.961 . S
H3138 C3077 0.980 . S
H3139 C3076 0.961 . S
H3140 C3076 0.960 . S
H3141 C3076 0.959 . S
H3142 C3079 0.922 . S
H3143 C3083 0.931 . S
H3144 C3084 0.959 . S
H3145 C3084 0.961 . S
H3146 C3084 0.959 . S
H3147 C3085 0.960 . S
H3148 C3085 0.960 . S
H3149 C3085 0.960 . S
H3150 C3121 0.980 . S
H3151 C3087 0.930 . S
H3152 C3091 0.930 . S
H3153 C3092 0.961 . S
H3154 C3092 0.960 . S
H3155 C3092 0.958 . S
H3156 C3093 0.961 . S
H3157 C3093 0.960 . S
H3158 C3093 0.960 . S
H3159 C3095 0.991 . S
H3160 C3094 0.961 . S
H3161 C3094 0.961 . S
H3162 C3094 0.959 . S
H3163 C3097 0.932 . S
H3164 C3101 0.929 . S
H3165 C3102 0.961 . S
H3166 C3102 0.959 . S
H3167 C3102 0.959 . S
H3168 C3103 0.960 . S
H3169 C3103 0.962 . S
H3170 C3103 0.961 . S
H3171 C3105 0.929 . S
H3172 C3108 0.930 . S
H3173 C3109 0.929 . S
H3174 C3112 0.930 . S
H3175 C3115 0.929 . S
H3176 C3116 0.930 . S
H3177 C3120 0.944 1_455 S
H3178 C3120 0.959 . S
H3179 C3120 0.958 . S
C3180 C3181 1.560 . S
C3180 H3241 0.959 . S
C3180 H3242 0.959 . S
C3180 H3243 0.960 . S
C3181 C3180 1.560 . S
C3181 O3236 1.426 . S
C3181 H3240 0.980 . S
C3182 C3183 1.407 . S
C3182 C3187 1.418 . S
C3182 O3236 1.334 . S
C3183 C3182 1.407 . S
C3183 C3184 1.360 . S
C3183 H3244 0.929 . S
C3184 C3183 1.360 . S
C3184 C3185 1.401 . S
C3184 C3188 1.527 . S
C3185 C3184 1.401 . S
C3185 C3186 1.405 . S
C3185 C3218 1.587 . S
C3186 C3185 1.405 . S
C3186 C3187 1.332 . S
C3186 C3189 1.496 . S
C3187 C3182 1.418 . S
C3187 C3186 1.332 . S
C3187 H3245 0.929 . S
C3188 C3184 1.527 . S
C3188 H3246 0.959 . S
C3188 H3247 0.961 . S
C3188 H3248 0.961 . S
C3189 C3186 1.496 . S
C3189 H3249 0.960 . S
C3189 H3250 0.960 . S
C3189 H3251 0.961 . S
C3190 C3191 1.517 . S
C3190 H3253 0.961 . S
C3190 H3254 0.960 . S
C3190 H3255 0.959 . S
C3191 C3190 1.517 . S
C3191 O3239 1.468 . S
C3191 H3252 0.980 . S
C3192 C3193 1.349 . S
C3192 C3197 1.367 . S
C3192 O3239 1.408 . S
C3193 C3192 1.349 . S
C3193 C3194 1.407 . S
C3193 H3256 0.930 . S
C3194 C3193 1.407 . S
C3194 C3195 1.449 . S
C3194 C3198 1.535 . S
C3195 C3194 1.449 . S
C3195 C3196 1.384 . S
C3195 C3220 1.553 . S
C3196 C3195 1.384 . S
C3196 C3197 1.364 . S
C3196 C3199 1.450 . S
C3197 C3192 1.367 . S
C3197 C3196 1.364 . S
C3197 H3257 0.931 . S
C3198 C3194 1.535 . S
C3198 H3258 0.959 . S
C3198 H3259 0.961 . S
C3198 H3260 0.959 . S
C3199 C3196 1.450 . S
C3199 H3261 0.960 . S
C3199 H3262 0.960 . S
C3199 H3263 0.960 . S
C3200 C3201 1.309 . S
C3200 C3205 1.304 . S
C3200 O3238 1.435 . S
C3201 C3200 1.309 . S
C3201 C3202 1.476 . S
C3201 H3265 0.930 . S
C3202 C3201 1.476 . S
C3202 C3203 1.400 . S
C3202 C3206 1.567 . S
C3203 C3202 1.400 . S
C3203 C3204 1.373 . S
C3203 C3225 1.432 . S
C3204 C3203 1.373 . S
C3204 C3205 1.339 . S
C3204 C3207 1.530 . S
C3205 C3200 1.304 . S
C3205 C3204 1.339 . S
C3205 H3266 0.930 . S
C3206 C3202 1.567 . S
C3206 H3267 0.961 . S
C3206 H3268 0.960 . S
C3206 H3269 0.958 . S
C3207 C3204 1.530 . S
C3207 H3270 0.961 . S
C3207 H3271 0.960 . S
C3207 H3272 0.960 . S
C3208 C3209 1.530 . S
C3208 H3274 0.961 . S
C3208 H3275 0.961 . S
C3208 H3276 0.959 . S
C3209 C3208 1.530 . S
C3209 O3237 1.412 . S
C3209 H3273 0.980 . S
C3210 C3211 1.288 . S
C3210 C3215 1.377 . S
C3210 O3237 1.393 . S
C3211 C3210 1.288 . S
C3211 C3212 1.369 . S
C3211 H3277 0.932 . S
C3212 C3211 1.369 . S
C3212 C3213 1.398 . S
C3212 C3216 1.527 . S
C3213 C3212 1.398 . S
C3213 C3214 1.380 . S
C3213 C3227 1.497 . S
C3214 C3213 1.380 . S
C3214 C3215 1.383 . S
C3214 C3217 1.603 . S
C3215 C3210 1.377 . S
C3215 C3214 1.383 . S
C3215 H3278 0.929 . S
C3216 C3212 1.527 . S
C3216 H3279 0.961 . S
C3216 H3280 0.959 . S
C3216 H3281 0.959 . S
C3217 C3214 1.603 . S
C3217 H3282 0.960 . S
C3217 H3283 0.962 . S
C3217 H3284 0.961 . S
C3218 C3185 1.587 . S
C3218 C3219 1.360 . S
C3218 C3231 1.412 . S
C3219 C3218 1.360 . S
C3219 C3220 1.365 . S
C3219 H3285 0.929 . S
C3220 C3195 1.553 . S
C3220 C3219 1.365 . S
C3220 C3221 1.404 . S
C3221 C3220 1.404 . S
C3221 C3222 1.395 . S
C3221 C3232 1.451 . S
C3222 C3221 1.395 . S
C3222 C3223 1.322 . S
C3222 H3286 0.930 . S
C3223 C3222 1.322 . S
C3223 C3224 1.459 . S
C3223 H3287 0.929 . S
C3224 C3223 1.459 . S
C3224 C3225 1.445 . S
C3224 C3233 1.395 . S
C3225 C3203 1.432 . S
C3225 C3224 1.445 . S
C3225 C3226 1.370 . S
C3226 C3225 1.370 . S
C3226 C3227 1.438 . S
C3226 H3288 0.930 . S
C3227 C3213 1.497 . S
C3227 C3226 1.438 . S
C3227 C3228 1.360 . S
C3228 C3227 1.360 . S
C3228 C3229 1.401 . S
C3228 C3233 1.446 . S
C3229 C3228 1.401 . S
C3229 C3230 1.347 . S
C3229 H3289 0.929 . S
C3230 C3229 1.347 . S
C3230 C3231 1.455 . S
C3230 H3290 0.930 . S
C3231 C3218 1.412 . S
C3231 C3230 1.455 . S
C3231 C3232 1.331 . S
C3232 C3221 1.451 . S
C3232 C3231 1.331 . S
C3232 C3233 1.497 . S
C3233 C3224 1.395 . S
C3233 C3228 1.446 . S
C3233 C3232 1.497 . S
C3234 C3235 1.582 . S
C3234 H3291 0.962 . S
C3234 H3292 0.959 . S
C3234 H3293 0.958 . S
C3235 C3234 1.582 . S
C3235 O3238 1.458 . S
C3235 H3264 0.980 . S
O3236 C3181 1.426 . S
O3236 C3182 1.334 . S
O3237 C3209 1.412 . S
O3237 C3210 1.393 . S
O3238 C3200 1.435 . S
O3238 C3235 1.458 . S
O3239 C3191 1.468 . S
O3239 C3192 1.408 . S
H3240 C3181 0.980 . S
H3241 C3180 0.959 . S
H3242 C3180 0.959 . S
H3243 C3180 0.960 . S
H3244 C3183 0.929 . S
H3245 C3187 0.929 . S
H3246 C3188 0.959 . S
H3247 C3188 0.961 . S
H3248 C3188 0.961 . S
H3249 C3189 0.960 . S
H3250 C3189 0.960 . S
H3251 C3189 0.961 . S
H3252 C3191 0.980 . S
H3253 C3190 0.961 . S
H3254 C3190 0.960 . S
H3255 C3190 0.959 . S
H3256 C3193 0.930 . S
H3257 C3197 0.931 . S
H3258 C3198 0.959 . S
H3259 C3198 0.961 . S
H3260 C3198 0.959 . S
H3261 C3199 0.960 . S
H3262 C3199 0.960 . S
H3263 C3199 0.960 . S
H3264 C3235 0.980 . S
H3265 C3201 0.930 . S
H3266 C3205 0.930 . S
H3267 C3206 0.961 . S
H3268 C3206 0.960 . S
H3269 C3206 0.958 . S
H3270 C3207 0.961 . S
H3271 C3207 0.960 . S
H3272 C3207 0.960 . S
H3273 C3209 0.980 . S
H3274 C3208 0.961 . S
H3275 C3208 0.961 . S
H3276 C3208 0.959 . S
H3277 C3211 0.932 . S
H3278 C3215 0.929 . S
H3279 C3216 0.961 . S
H3280 C3216 0.959 . S
H3281 C3216 0.959 . S
H3282 C3217 0.960 . S
H3283 C3217 0.962 . S
H3284 C3217 0.961 . S
H3285 C3219 0.929 . S
H3286 C3222 0.930 . S
H3287 C3223 0.929 . S
H3288 C3226 0.930 . S
H3289 C3229 0.929 . S
H3290 C3230 0.930 . S
H3291 C3234 0.962 . S
H3292 C3234 0.959 . S
H3293 C3234 0.958 . S
C3294 C3295 1.560 . S
C3294 H3355 0.959 . S
C3294 H3356 0.959 . S
C3294 H3357 0.960 . S
C3295 C3294 1.560 . S
C3295 O3350 1.426 . S
C3295 H3354 0.980 . S
C3296 C3297 1.407 . S
C3296 C3301 1.418 . S
C3296 O3350 1.334 . S
C3297 C3296 1.407 . S
C3297 C3298 1.360 . S
C3297 H3358 0.929 . S
C3298 C3297 1.360 . S
C3298 C3299 1.401 . S
C3298 C3302 1.527 . S
C3299 C3298 1.401 . S
C3299 C3300 1.405 . S
C3299 C3332 1.587 . S
C3300 C3299 1.405 . S
C3300 C3301 1.332 . S
C3300 C3303 1.496 . S
C3301 C3296 1.418 . S
C3301 C3300 1.332 . S
C3301 H3359 0.929 . S
C3302 C3298 1.527 . S
C3302 H3360 0.959 . S
C3302 H3361 0.961 . S
C3302 H3362 0.961 . S
C3303 C3300 1.496 . S
C3303 H3363 0.960 . S
C3303 H3364 0.960 . S
C3303 H3365 0.961 . S
C3304 C3305 1.517 . S
C3304 H3367 0.961 . S
C3304 H3368 0.960 . S
C3304 H3369 0.959 . S
C3305 C3304 1.517 . S
C3305 O3353 1.468 . S
C3305 H3366 0.980 . S
C3306 C3307 1.349 . S
C3306 C3311 1.367 . S
C3306 O3353 1.408 . S
C3307 C3306 1.349 . S
C3307 C3308 1.407 . S
C3307 H3370 0.930 . S
C3308 C3307 1.407 . S
C3308 C3309 1.449 . S
C3308 C3312 1.535 . S
C3309 C3308 1.449 . S
C3309 C3310 1.384 . S
C3309 C3334 1.553 . S
C3310 C3309 1.384 . S
C3310 C3311 1.364 . S
C3310 C3313 1.450 . S
C3311 C3306 1.367 . S
C3311 C3310 1.364 . S
C3311 H3371 0.931 . S
C3312 C3308 1.535 . S
C3312 H3372 0.959 . S
C3312 H3373 0.961 . S
C3312 H3374 0.959 . S
C3313 C3310 1.450 . S
C3313 H3375 0.960 . S
C3313 H3376 0.960 . S
C3313 H3377 0.960 . S
C3314 C3315 1.309 . S
C3314 C3319 1.304 . S
C3314 O3352 1.435 . S
C3315 C3314 1.309 . S
C3315 C3316 1.476 . S
C3315 H3379 0.930 . S
C3316 C3315 1.476 . S
C3316 C3317 1.400 . S
C3316 C3320 1.567 . S
C3317 C3316 1.400 . S
C3317 C3318 1.373 . S
C3317 C3339 1.432 . S
C3318 C3317 1.373 . S
C3318 C3319 1.339 . S
C3318 C3321 1.530 . S
C3319 C3314 1.304 . S
C3319 C3318 1.339 . S
C3319 H3380 0.930 . S
C3320 C3316 1.567 . S
C3320 H3381 0.961 . S
C3320 H3382 0.960 . S
C3320 H3383 0.958 . S
C3321 C3318 1.530 . S
C3321 H3384 0.961 . S
C3321 H3385 0.960 . S
C3321 H3386 0.960 . S
C3322 C3323 1.530 . S
C3322 H3388 0.961 . S
C3322 H3389 0.961 . S
C3322 H3390 0.959 . S
C3323 C3322 1.530 . S
C3323 O3351 1.412 . S
C3323 H3387 0.980 . S
C3324 C3325 1.288 . S
C3324 C3329 1.377 . S
C3324 O3351 1.393 . S
C3325 C3324 1.288 . S
C3325 C3326 1.369 . S
C3325 H3391 0.932 . S
C3326 C3325 1.369 . S
C3326 C3327 1.398 . S
C3326 C3330 1.527 . S
C3327 C3326 1.398 . S
C3327 C3328 1.380 . S
C3327 C3341 1.497 . S
C3328 C3327 1.380 . S
C3328 C3329 1.383 . S
C3328 C3331 1.603 . S
C3329 C3324 1.377 . S
C3329 C3328 1.383 . S
C3329 H3392 0.929 . S
C3330 C3326 1.527 . S
C3330 H3393 0.961 . S
C3330 H3394 0.959 . S
C3330 H3395 0.959 . S
C3331 C3328 1.603 . S
C3331 H3396 0.960 . S
C3331 H3397 0.962 . S
C3331 H3398 0.961 . S
C3332 C3299 1.587 . S
C3332 C3333 1.360 . S
C3332 C3345 1.412 . S
C3333 C3332 1.360 . S
C3333 C3334 1.365 . S
C3333 H3399 0.929 . S
C3334 C3309 1.553 . S
C3334 C3333 1.365 . S
C3334 C3335 1.404 . S
C3335 C3334 1.404 . S
C3335 C3336 1.395 . S
C3335 C3346 1.451 . S
C3336 C3335 1.395 . S
C3336 C3337 1.322 . S
C3336 H3400 0.930 . S
C3337 C3336 1.322 . S
C3337 C3338 1.459 . S
C3337 H3401 0.929 . S
C3338 C3337 1.459 . S
C3338 C3339 1.445 . S
C3338 C3347 1.395 . S
C3339 C3317 1.432 . S
C3339 C3338 1.445 . S
C3339 C3340 1.370 . S
C3340 C3339 1.370 . S
C3340 C3341 1.438 . S
C3340 H3402 0.930 . S
C3341 C3327 1.497 . S
C3341 C3340 1.438 . S
C3341 C3342 1.360 . S
C3342 C3341 1.360 . S
C3342 C3343 1.401 . S
C3342 C3347 1.446 . S
C3343 C3342 1.401 . S
C3343 C3344 1.347 . S
C3343 H3403 0.929 . S
C3344 C3343 1.347 . S
C3344 C3345 1.455 . S
C3344 H3404 0.930 . S
C3345 C3332 1.412 . S
C3345 C3344 1.455 . S
C3345 C3346 1.331 . S
C3346 C3335 1.451 . S
C3346 C3345 1.331 . S
C3346 C3347 1.497 . S
C3347 C3338 1.395 . S
C3347 C3342 1.446 . S
C3347 C3346 1.497 . S
C3348 C3349 1.582 . S
C3348 H3405 0.962 . S
C3348 H3406 0.959 . S
C3348 H3407 0.958 . S
C3349 C3348 1.582 . S
C3349 O3352 1.458 . S
C3349 H3378 0.980 . S
O3350 C3295 1.426 . S
O3350 C3296 1.334 . S
O3351 C3323 1.412 . S
O3351 C3324 1.393 . S
O3352 C3314 1.435 . S
O3352 C3349 1.458 . S
O3353 C3305 1.468 . S
O3353 C3306 1.408 . S
H3354 C3295 0.980 . S
H3355 C3294 0.959 . S
H3356 C3294 0.959 . S
H3357 C3294 0.960 . S
H3358 C3297 0.929 . S
H3359 C3301 0.929 . S
H3360 C3302 0.959 . S
H3361 C3302 0.961 . S
H3362 C3302 0.961 . S
H3363 C3303 0.960 . S
H3364 C3303 0.960 . S
H3365 C3303 0.961 . S
H3366 C3305 0.980 . S
H3367 C3304 0.961 . S
H3368 C3304 0.960 . S
H3369 C3304 0.959 . S
H3370 C3307 0.930 . S
H3371 C3311 0.931 . S
H3372 C3312 0.959 . S
H3373 C3312 0.961 . S
H3374 C3312 0.959 . S
H3375 C3313 0.960 . S
H3376 C3313 0.960 . S
H3377 C3313 0.960 . S
H3378 C3349 0.980 . S
H3379 C3315 0.930 . S
H3380 C3319 0.930 . S
H3381 C3320 0.961 . S
H3382 C3320 0.960 . S
H3383 C3320 0.958 . S
H3384 C3321 0.961 . S
H3385 C3321 0.960 . S
H3386 C3321 0.960 . S
H3387 C3323 0.980 . S
H3388 C3322 0.961 . S
H3389 C3322 0.961 . S
H3390 C3322 0.959 . S
H3391 C3325 0.932 . S
H3392 C3329 0.929 . S
H3393 C3330 0.961 . S
H3394 C3330 0.959 . S
H3395 C3330 0.959 . S
H3396 C3331 0.960 . S
H3397 C3331 0.962 . S
H3398 C3331 0.961 . S
H3399 C3333 0.929 . S
H3400 C3336 0.930 . S
H3401 C3337 0.929 . S
H3402 C3340 0.930 . S
H3403 C3343 0.929 . S
H3404 C3344 0.930 . S
H3405 C3348 0.962 . S
H3406 C3348 0.959 . S
H3407 C3348 0.958 . S
C3408 C3409 1.560 . S
C3408 H3469 0.959 . S
C3408 H3470 0.959 . S
C3408 H3471 0.960 . S
C3409 C3408 1.560 . S
C3409 O3464 1.426 . S
C3409 H3468 0.980 . S
C3410 C3411 1.407 . S
C3410 C3415 1.418 . S
C3410 O3464 1.334 . S
C3411 C3410 1.407 . S
C3411 C3412 1.360 . S
C3411 H3472 0.929 . S
C3412 C3411 1.360 . S
C3412 C3413 1.401 . S
C3412 C3416 1.527 . S
C3413 C3412 1.401 . S
C3413 C3414 1.405 . S
C3413 C3446 1.587 . S
C3414 C3413 1.405 . S
C3414 C3415 1.332 . S
C3414 C3417 1.496 . S
C3415 C3410 1.418 . S
C3415 C3414 1.332 . S
C3415 H3473 0.929 . S
C3416 C3412 1.527 . S
C3416 H3474 0.959 . S
C3416 H3475 0.961 . S
C3416 H3476 0.961 . S
C3417 C3414 1.496 . S
C3417 H3477 0.960 . S
C3417 H3478 0.960 . S
C3417 H3479 0.961 . S
C3418 C3419 1.517 . S
C3418 H3481 0.961 . S
C3418 H3482 0.960 . S
C3418 H3483 0.959 . S
C3419 C3418 1.517 . S
C3419 O3467 1.468 . S
C3419 H3480 0.980 . S
C3420 C3421 1.349 . S
C3420 C3425 1.367 . S
C3420 O3467 1.408 . S
C3421 C3420 1.349 . S
C3421 C3422 1.407 . S
C3421 H3484 0.930 . S
C3422 C3421 1.407 . S
C3422 C3423 1.449 . S
C3422 C3426 1.535 . S
C3423 C3422 1.449 . S
C3423 C3424 1.384 . S
C3423 C3448 1.553 . S
C3424 C3423 1.384 . S
C3424 C3425 1.364 . S
C3424 C3427 1.450 . S
C3425 C3420 1.367 . S
C3425 C3424 1.364 . S
C3425 H3485 0.931 . S
C3426 C3422 1.535 . S
C3426 H3486 0.959 . S
C3426 H3487 0.961 . S
C3426 H3488 0.959 . S
C3427 C3424 1.450 . S
C3427 H3489 0.960 . S
C3427 H3490 0.960 . S
C3427 H3491 0.960 . S
C3428 C3429 1.309 . S
C3428 C3433 1.304 . S
C3428 O3466 1.435 . S
C3429 C3428 1.309 . S
C3429 C3430 1.476 . S
C3429 H3493 0.930 . S
C3430 C3429 1.476 . S
C3430 C3431 1.400 . S
C3430 C3434 1.567 . S
C3431 C3430 1.400 . S
C3431 C3432 1.373 . S
C3431 C3453 1.432 . S
C3432 C3431 1.373 . S
C3432 C3433 1.339 . S
C3432 C3435 1.530 . S
C3433 C3428 1.304 . S
C3433 C3432 1.339 . S
C3433 H3494 0.930 . S
C3434 C3430 1.567 . S
C3434 H3495 0.961 . S
C3434 H3496 0.960 . S
C3434 H3497 0.958 . S
C3435 C3432 1.530 . S
C3435 H3498 0.961 . S
C3435 H3499 0.960 . S
C3435 H3500 0.960 . S
C3436 C3437 1.530 . S
C3436 H3502 0.961 . S
C3436 H3503 0.961 . S
C3436 H3504 0.959 . S
C3437 C3436 1.530 . S
C3437 O3465 1.412 . S
C3437 H3501 0.980 . S
C3438 C3439 1.288 . S
C3438 C3443 1.377 . S
C3438 O3465 1.393 . S
C3439 C3438 1.288 . S
C3439 C3440 1.369 . S
C3439 H3505 0.932 . S
C3440 C3439 1.369 . S
C3440 C3441 1.398 . S
C3440 C3444 1.527 . S
C3441 C3440 1.398 . S
C3441 C3442 1.380 . S
C3441 C3455 1.497 . S
C3442 C3441 1.380 . S
C3442 C3443 1.383 . S
C3442 C3445 1.603 . S
C3443 C3438 1.377 . S
C3443 C3442 1.383 . S
C3443 H3506 0.929 . S
C3444 C3440 1.527 . S
C3444 H3507 0.961 . S
C3444 H3508 0.959 . S
C3444 H3509 0.959 . S
C3445 C3442 1.603 . S
C3445 H3510 0.960 . S
C3445 H3511 0.962 . S
C3445 H3512 0.961 . S
C3446 C3413 1.587 . S
C3446 C3447 1.360 . S
C3446 C3459 1.412 . S
C3447 C3446 1.360 . S
C3447 C3448 1.365 . S
C3447 H3513 0.929 . S
C3448 C3423 1.553 . S
C3448 C3447 1.365 . S
C3448 C3449 1.404 . S
C3449 C3448 1.404 . S
C3449 C3450 1.395 . S
C3449 C3460 1.451 . S
C3450 C3449 1.395 . S
C3450 C3451 1.322 . S
C3450 H3514 0.930 . S
C3451 C3450 1.322 . S
C3451 C3452 1.459 . S
C3451 H3515 0.929 . S
C3452 C3451 1.459 . S
C3452 C3453 1.445 . S
C3452 C3461 1.395 . S
C3453 C3431 1.432 . S
C3453 C3452 1.445 . S
C3453 C3454 1.370 . S
C3454 C3453 1.370 . S
C3454 C3455 1.438 . S
C3454 H3516 0.930 . S
C3455 C3441 1.497 . S
C3455 C3454 1.438 . S
C3455 C3456 1.360 . S
C3456 C3455 1.360 . S
C3456 C3457 1.401 . S
C3456 C3461 1.446 . S
C3457 C3456 1.401 . S
C3457 C3458 1.347 . S
C3457 H3517 0.929 . S
C3458 C3457 1.347 . S
C3458 C3459 1.455 . S
C3458 H3518 0.930 . S
C3459 C3446 1.412 . S
C3459 C3458 1.455 . S
C3459 C3460 1.331 . S
C3460 C3449 1.451 . S
C3460 C3459 1.331 . S
C3460 C3461 1.497 . S
C3461 C3452 1.395 . S
C3461 C3456 1.446 . S
C3461 C3460 1.497 . S
C3462 C3463 1.582 . S
C3462 H3519 0.962 . S
C3462 H3520 0.959 . S
C3462 H3521 0.958 . S
C3463 C3462 1.582 . S
C3463 O3466 1.458 . S
C3463 H3492 0.980 . S
O3464 C3409 1.426 . S
O3464 C3410 1.334 . S
O3465 C3437 1.412 . S
O3465 C3438 1.393 . S
O3466 C3428 1.435 . S
O3466 C3463 1.458 . S
O3467 C3419 1.468 . S
O3467 C3420 1.408 . S
H3468 C3409 0.980 . S
H3469 C3408 0.959 . S
H3470 C3408 0.959 . S
H3471 C3408 0.960 . S
H3472 C3411 0.929 . S
H3473 C3415 0.929 . S
H3474 C3416 0.959 . S
H3475 C3416 0.961 . S
H3476 C3416 0.961 . S
H3477 C3417 0.960 . S
H3478 C3417 0.960 . S
H3479 C3417 0.961 . S
H3480 C3419 0.980 . S
H3481 C3418 0.961 . S
H3482 C3418 0.960 . S
H3483 C3418 0.959 . S
H3484 C3421 0.930 . S
H3485 C3425 0.931 . S
H3486 C3426 0.959 . S
H3487 C3426 0.961 . S
H3488 C3426 0.959 . S
H3489 C3427 0.960 . S
H3490 C3427 0.960 . S
H3491 C3427 0.960 . S
H3492 C3463 0.980 . S
H3493 C3429 0.930 . S
H3494 C3433 0.930 . S
H3495 C3434 0.961 . S
H3496 C3434 0.960 . S
H3497 C3434 0.958 . S
H3498 C3435 0.961 . S
H3499 C3435 0.960 . S
H3500 C3435 0.960 . S
H3501 C3437 0.980 . S
H3502 C3436 0.961 . S
H3503 C3436 0.961 . S
H3504 C3436 0.959 . S
H3505 C3439 0.932 . S
H3506 C3443 0.929 . S
H3507 C3444 0.961 . S
H3508 C3444 0.959 . S
H3509 C3444 0.959 . S
H3510 C3445 0.960 . S
H3511 C3445 0.962 . S
H3512 C3445 0.961 . S
H3513 C3447 0.929 . S
H3514 C3450 0.930 . S
H3515 C3451 0.929 . S
H3516 C3454 0.930 . S
H3517 C3457 0.929 . S
H3518 C3458 0.930 . S
H3519 C3462 0.962 . S
H3520 C3462 0.959 . S
H3521 C3462 0.958 . S
C3522 C3523 1.560 . S
C3522 H3583 0.959 . S
C3522 H3584 0.959 . S
C3522 H3585 0.960 . S
C3523 C3522 1.560 . S
C3523 O3578 1.426 . S
C3523 H3582 0.980 . S
C3524 C3525 1.407 . S
C3524 C3529 1.418 . S
C3524 O3578 1.334 . S
C3525 C3524 1.407 . S
C3525 C3526 1.360 . S
C3525 H3586 0.929 . S
C3526 C3525 1.360 . S
C3526 C3527 1.401 . S
C3526 C3530 1.527 . S
C3527 C3526 1.401 . S
C3527 C3528 1.405 . S
C3527 C3560 1.587 . S
C3528 C3527 1.405 . S
C3528 C3529 1.332 . S
C3528 C3531 1.496 . S
C3529 C3524 1.418 . S
C3529 C3528 1.332 . S
C3529 H3587 0.929 . S
C3530 C3526 1.527 . S
C3530 H3588 0.959 . S
C3530 H3589 0.961 . S
C3530 H3590 0.961 . S
C3531 C3528 1.496 . S
C3531 H3591 0.960 . S
C3531 H3592 0.960 . S
C3531 H3593 0.961 . S
C3532 C3533 1.517 . S
C3532 H3595 0.961 . S
C3532 H3596 0.960 . S
C3532 H3597 0.959 . S
C3533 C3532 1.517 . S
C3533 O3581 1.468 . S
C3533 H3594 0.980 . S
C3534 C3535 1.349 . S
C3534 C3539 1.367 . S
C3534 O3581 1.408 . S
C3535 C3534 1.349 . S
C3535 C3536 1.407 . S
C3535 H3598 0.930 . S
C3536 C3535 1.407 . S
C3536 C3537 1.449 . S
C3536 C3540 1.535 . S
C3537 C3536 1.449 . S
C3537 C3538 1.384 . S
C3537 C3562 1.553 . S
C3538 C3537 1.384 . S
C3538 C3539 1.364 . S
C3538 C3541 1.450 . S
C3539 C3534 1.367 . S
C3539 C3538 1.364 . S
C3539 H3599 0.931 . S
C3540 C3536 1.535 . S
C3540 H3600 0.959 . S
C3540 H3601 0.961 . S
C3540 H3602 0.959 . S
C3541 C3538 1.450 . S
C3541 H3603 0.960 . S
C3541 H3604 0.960 . S
C3541 H3605 0.960 . S
C3542 C3543 1.309 . S
C3542 C3547 1.304 . S
C3542 O3580 1.435 . S
C3543 C3542 1.309 . S
C3543 C3544 1.476 . S
C3543 H3607 0.930 . S
C3544 C3543 1.476 . S
C3544 C3545 1.400 . S
C3544 C3548 1.567 . S
C3545 C3544 1.400 . S
C3545 C3546 1.373 . S
C3545 C3567 1.432 . S
C3546 C3545 1.373 . S
C3546 C3547 1.339 . S
C3546 C3549 1.530 . S
C3547 C3542 1.304 . S
C3547 C3546 1.339 . S
C3547 H3608 0.930 . S
C3548 C3544 1.567 . S
C3548 H3609 0.961 . S
C3548 H3610 0.960 . S
C3548 H3611 0.958 . S
C3549 C3546 1.530 . S
C3549 H3612 0.961 . S
C3549 H3613 0.960 . S
C3549 H3614 0.960 . S
C3550 C3551 1.530 . S
C3550 H3616 0.961 . S
C3550 H3617 0.961 . S
C3550 H3618 0.959 . S
C3551 C3550 1.530 . S
C3551 O3579 1.412 . S
C3551 H3615 0.980 . S
C3552 C3553 1.288 . S
C3552 C3557 1.377 . S
C3552 O3579 1.393 . S
C3553 C3552 1.288 . S
C3553 C3554 1.369 . S
C3553 H3619 0.932 . S
C3554 C3553 1.369 . S
C3554 C3555 1.398 . S
C3554 C3558 1.527 . S
C3555 C3554 1.398 . S
C3555 C3556 1.380 . S
C3555 C3569 1.497 . S
C3556 C3555 1.380 . S
C3556 C3557 1.383 . S
C3556 C3559 1.603 . S
C3557 C3552 1.377 . S
C3557 C3556 1.383 . S
C3557 H3620 0.929 . S
C3558 C3554 1.527 . S
C3558 H3621 0.961 . S
C3558 H3622 0.959 . S
C3558 H3623 0.959 . S
C3559 C3556 1.603 . S
C3559 H3624 0.960 . S
C3559 H3625 0.962 . S
C3559 H3626 0.961 . S
C3560 C3527 1.587 . S
C3560 C3561 1.360 . S
C3560 C3573 1.412 . S
C3561 C3560 1.360 . S
C3561 C3562 1.365 . S
C3561 H3627 0.929 . S
C3562 C3537 1.553 . S
C3562 C3561 1.365 . S
C3562 C3563 1.404 . S
C3563 C3562 1.404 . S
C3563 C3564 1.395 . S
C3563 C3574 1.451 . S
C3564 C3563 1.395 . S
C3564 C3565 1.322 . S
C3564 H3628 0.930 . S
C3565 C3564 1.322 . S
C3565 C3566 1.459 . S
C3565 H3629 0.929 . S
C3566 C3565 1.459 . S
C3566 C3567 1.445 . S
C3566 C3575 1.395 . S
C3567 C3545 1.432 . S
C3567 C3566 1.445 . S
C3567 C3568 1.370 . S
C3568 C3567 1.370 . S
C3568 C3569 1.438 . S
C3568 H3630 0.930 . S
C3569 C3555 1.497 . S
C3569 C3568 1.438 . S
C3569 C3570 1.360 . S
C3570 C3569 1.360 . S
C3570 C3571 1.401 . S
C3570 C3575 1.446 . S
C3571 C3570 1.401 . S
C3571 C3572 1.347 . S
C3571 H3631 0.929 . S
C3572 C3571 1.347 . S
C3572 C3573 1.455 . S
C3572 H3632 0.930 . S
C3573 C3560 1.412 . S
C3573 C3572 1.455 . S
C3573 C3574 1.331 . S
C3574 C3563 1.451 . S
C3574 C3573 1.331 . S
C3574 C3575 1.497 . S
C3575 C3566 1.395 . S
C3575 C3570 1.446 . S
C3575 C3574 1.497 . S
C3576 C3577 1.582 . S
C3576 H3633 0.962 . S
C3576 H3634 0.959 . S
C3576 H3635 0.958 . S
C3577 C3576 1.582 . S
C3577 O3580 1.458 . S
C3577 H3606 0.980 . S
O3578 C3523 1.426 . S
O3578 C3524 1.334 . S
O3579 C3551 1.412 . S
O3579 C3552 1.393 . S
O3580 C3542 1.435 . S
O3580 C3577 1.458 . S
O3581 C3533 1.468 . S
O3581 C3534 1.408 . S
H3582 C3523 0.980 . S
H3583 C3522 0.959 . S
H3584 C3522 0.959 . S
H3585 C3522 0.960 . S
H3586 C3525 0.929 . S
H3587 C3529 0.929 . S
H3588 C3530 0.959 . S
H3589 C3530 0.961 . S
H3590 C3530 0.961 . S
H3591 C3531 0.960 . S
H3592 C3531 0.960 . S
H3593 C3531 0.961 . S
H3594 C3533 0.980 . S
H3595 C3532 0.961 . S
H3596 C3532 0.960 . S
H3597 C3532 0.959 . S
H3598 C3535 0.930 . S
H3599 C3539 0.931 . S
H3600 C3540 0.959 . S
H3601 C3540 0.961 . S
H3602 C3540 0.959 . S
H3603 C3541 0.960 . S
H3604 C3541 0.960 . S
H3605 C3541 0.960 . S
H3606 C3577 0.980 . S
H3607 C3543 0.930 . S
H3608 C3547 0.930 . S
H3609 C3548 0.961 . S
H3610 C3548 0.960 . S
H3611 C3548 0.958 . S
H3612 C3549 0.961 . S
H3613 C3549 0.960 . S
H3614 C3549 0.960 . S
H3615 C3551 0.980 . S
H3616 C3550 0.961 . S
H3617 C3550 0.961 . S
H3618 C3550 0.959 . S
H3619 C3553 0.932 . S
H3620 C3557 0.929 . S
H3621 C3558 0.961 . S
H3622 C3558 0.959 . S
H3623 C3558 0.959 . S
H3624 C3559 0.960 . S
H3625 C3559 0.962 . S
H3626 C3559 0.961 . S
H3627 C3561 0.929 . S
H3628 C3564 0.930 . S
H3629 C3565 0.929 . S
H3630 C3568 0.930 . S
H3631 C3571 0.929 . S
H3632 C3572 0.930 . S
H3633 C3576 0.962 . S
H3634 C3576 0.959 . S
H3635 C3576 0.958 . S
C3636 C3637 1.387 . S
C3636 H3640 0.950 . S
C3636 C3645 1.390 . S
C3637 C3636 1.387 . S
C3637 C3639 1.387 . S
H3638 C3645 0.950 . S
C3639 C3637 1.387 . S
C3639 C3641 1.390 . S
C3639 H3643 0.950 . S
H3640 C3636 0.950 . S
C3641 C3639 1.390 . S
C3641 C3642 1.387 . S
C3641 H3644 0.950 1_655 S
C3642 C3641 1.387 . S
C3642 C3645 1.387 . S
H3643 C3639 0.950 . S
H3644 C3641 0.950 1_455 S
C3645 C3636 1.390 . S
C3645 H3638 0.950 . S
C3645 C3642 1.387 . S
C3646 C3647 1.387 . S
C3646 H3650 0.950 . S
C3646 C3655 1.390 . S
C3647 C3646 1.387 . S
C3647 C3649 1.387 . S
H3648 C3655 0.950 . S
C3649 C3647 1.387 . S
C3649 C3651 1.390 . S
C3649 H3653 0.950 . S
H3650 C3646 0.950 . S
C3651 C3649 1.390 . S
C3651 C3652 1.387 . S
C3651 H3654 0.950 . S
C3652 C3651 1.387 . S
C3652 C3655 1.387 . S
H3653 C3649 0.950 . S
H3654 C3651 0.950 . S
C3655 C3646 1.390 . S
C3655 H3648 0.950 . S
C3655 C3652 1.387 . S
C3656 C3657 1.387 . S
C3656 H3660 0.950 . S
C3656 C3665 1.390 . S
C3657 C3656 1.387 . S
C3657 C3659 1.387 . S
H3658 C3665 0.950 1_565 S
C3659 C3657 1.387 . S
C3659 C3661 1.390 . S
C3659 H3663 0.950 . S
H3660 C3656 0.950 . S
C3661 C3659 1.390 . S
C3661 C3662 1.387 . S
C3661 H3664 0.950 . S
C3662 C3661 1.387 . S
C3662 C3665 1.387 . S
H3663 C3659 0.950 . S
H3664 C3661 0.950 . S
C3665 C3656 1.390 . S
C3665 H3658 0.950 1_545 S
C3665 C3662 1.387 . S
C3666 C3667 1.387 . S
C3666 H3670 0.951 . S
C3666 C3675 1.388 . S
C3667 C3666 1.387 . S
C3667 C3669 1.387 . S
H3668 C3675 0.898 1_545 S
C3669 C3667 1.387 . S
C3669 C3671 1.390 . S
C3669 H3673 0.950 . S
H3670 C3666 0.951 . S
C3671 C3669 1.390 . S
C3671 C3672 1.387 . S
C3671 H3674 0.950 . S
C3672 C3671 1.387 . S
C3672 C3675 1.446 . S
H3673 C3669 0.950 . S
H3674 C3671 0.950 . S
C3675 C3666 1.388 . S
C3675 H3668 0.898 1_565 S
C3675 C3672 1.446 . S
C3676 C3677 1.387 . S
C3676 H3680 0.950 . S
C3676 C3685 1.390 . S
C3677 C3676 1.387 . S
C3677 C3679 1.387 . S
H3678 C3685 0.950 . S
C3679 C3677 1.387 . S
C3679 C3681 1.390 . S
C3679 H3683 0.950 . S
H3680 C3676 0.950 . S
C3681 C3679 1.390 . S
C3681 C3682 1.387 . S
C3681 H3684 0.950 . S
C3682 C3681 1.387 . S
C3682 C3685 1.387 . S
H3683 C3679 0.950 . S
H3684 C3681 0.950 . S
C3685 C3676 1.390 . S
C3685 H3678 0.950 . S
C3685 C3682 1.387 . S
C3686 C3687 1.387 . S
C3686 H3690 0.950 . S
C3686 C3695 1.390 . S
C3687 C3686 1.387 . S
C3687 C3689 1.387 . S
H3688 C3695 0.950 . S
C3689 C3687 1.387 . S
C3689 C3691 1.390 . S
C3689 H3693 0.950 . S
H3690 C3686 0.950 . S
C3691 C3689 1.390 . S
C3691 C3692 1.387 . S
C3691 H3694 0.950 . S
C3692 C3691 1.387 . S
C3692 C3695 1.387 . S
H3693 C3689 0.950 . S
H3694 C3691 0.950 . S
C3695 C3686 1.390 . S
C3695 H3688 0.950 . S
C3695 C3692 1.387 . S
C3696 C3697 1.387 . S
C3696 H3700 0.950 . S
C3696 C3705 1.390 . S
C3697 C3696 1.387 . S
C3697 C3699 1.387 . S
H3698 C3705 0.950 . S
C3699 C3697 1.387 . S
C3699 C3701 1.390 1_455 S
C3699 H3703 0.935 1_455 S
H3700 C3696 0.950 . S
C3701 C3699 1.390 1_655 S
C3701 C3702 1.387 1_655 S
C3701 H3704 0.950 . S
C3702 C3701 1.387 1_455 S
C3702 C3705 1.387 . S
H3703 C3699 0.935 1_655 S
H3704 C3701 0.950 . S
C3705 C3696 1.390 . S
C3705 H3698 0.950 . S
C3705 C3702 1.387 . S
C3706 C3707 1.387 . S
C3706 H3710 0.950 . S
C3706 C3715 1.390 . S
C3707 C3706 1.387 . S
C3707 C3709 1.387 . S
H3708 C3715 0.950 . S
C3709 C3707 1.387 . S
C3709 C3711 1.390 . S
C3709 H3713 0.950 . S
H3710 C3706 0.950 . S
C3711 C3709 1.390 . S
C3711 C3712 1.387 . S
C3711 H3714 0.950 . S
C3712 C3711 1.387 . S
C3712 C3715 1.387 . S
H3713 C3709 0.950 . S
H3714 C3711 0.950 . S
C3715 C3706 1.390 . S
C3715 H3708 0.950 . S
C3715 C3712 1.387 . S
C3716 C3717 1.387 . S
C3716 H3720 0.950 . S
C3716 C3725 1.390 . S
C3717 C3716 1.387 . S
C3717 C3719 1.387 . S
H3718 C3725 0.950 . S
C3719 C3717 1.387 . S
C3719 C3721 1.390 1_565 S
C3719 H3723 0.948 1_565 S
H3720 C3716 0.950 . S
C3721 C3719 1.390 1_545 S
C3721 C3722 1.387 1_545 S
C3721 H3724 0.950 . S
C3722 C3721 1.387 1_565 S
C3722 C3725 1.387 . S
H3723 C3719 0.948 1_545 S
H3724 C3721 0.950 . S
C3725 C3716 1.390 . S
C3725 H3718 0.950 . S
C3725 C3722 1.387 . S
C3726 C3727 1.387 . S
C3726 H3730 0.950 . S
C3726 C3735 1.390 . S
C3727 C3726 1.387 . S
C3727 C3729 1.387 . S
H3728 C3735 0.950 1_565 S
C3729 C3727 1.387 . S
C3729 C3731 1.390 . S
C3729 H3733 0.950 . S
H3730 C3726 0.950 . S
C3731 C3729 1.390 . S
C3731 C3732 1.387 . S
C3731 H3734 0.950 . S
C3732 C3731 1.387 . S
C3732 C3735 1.387 . S
H3733 C3729 0.950 . S
H3734 C3731 0.950 . S
C3735 C3726 1.390 . S
C3735 H3728 0.950 1_545 S
C3735 C3732 1.387 . S
C3736 C3737 1.387 . S
C3736 H3740 0.950 . S
C3736 C3745 1.390 . S
C3737 C3736 1.387 . S
C3737 C3739 1.387 . S
H3738 C3745 0.950 . S
C3739 C3737 1.387 . S
C3739 C3741 1.390 . S
C3739 H3743 0.950 . S
H3740 C3736 0.950 . S
C3741 C3739 1.390 . S
C3741 C3742 1.387 . S
C3741 H3744 0.950 1_655 S
C3742 C3741 1.387 . S
C3742 C3745 1.387 . S
H3743 C3739 0.950 . S
H3744 C3741 0.950 1_455 S
C3745 C3736 1.390 . S
C3745 H3738 0.950 . S
C3745 C3742 1.387 . S
C3746 C3747 1.387 . S
C3746 H3750 0.950 . S
C3746 C3755 1.390 . S
C3747 C3746 1.387 . S
C3747 C3749 1.387 . S
H3748 C3755 0.950 . S
C3749 C3747 1.387 . S
C3749 C3751 1.390 . S
C3749 H3753 0.950 . S
H3750 C3746 0.950 . S
C3751 C3749 1.390 . S
C3751 C3752 1.387 . S
C3751 H3754 0.950 . S
C3752 C3751 1.387 . S
C3752 C3755 1.387 . S
H3753 C3749 0.950 . S
H3754 C3751 0.950 . S
C3755 C3746 1.390 . S
C3755 H3748 0.950 . S
C3755 C3752 1.387 . S
C3756 C3757 1.387 . S
C3756 H3760 0.950 . S
C3756 C3765 1.390 . S
C3757 C3756 1.387 . S
C3757 C3759 1.387 . S
H3758 C3765 0.950 . S
C3759 C3757 1.387 . S
C3759 C3761 1.390 . S
C3759 H3763 0.950 . S
H3760 C3756 0.950 . S
C3761 C3759 1.390 . S
C3761 C3762 1.387 . S
C3761 H3764 0.950 . S
C3762 C3761 1.387 . S
C3762 C3765 1.387 . S
H3763 C3759 0.950 . S
H3764 C3761 0.950 . S
C3765 C3756 1.390 . S
C3765 H3758 0.950 . S
C3765 C3762 1.387 . S
C3766 C3767 1.387 . S
C3766 H3770 0.950 . S
C3766 C3775 1.390 . S
C3767 C3766 1.387 . S
C3767 C3769 1.387 . S
H3768 C3775 0.950 . S
C3769 C3767 1.387 . S
C3769 C3771 1.390 . S
C3769 H3773 0.950 . S
H3770 C3766 0.950 . S
C3771 C3769 1.390 . S
C3771 C3772 1.387 . S
C3771 H3774 0.950 . S
C3772 C3771 1.387 . S
C3772 C3775 1.387 . S
H3773 C3769 0.950 . S
H3774 C3771 0.950 . S
C3775 C3766 1.390 . S
C3775 H3768 0.950 . S
C3775 C3772 1.387 . S
C3776 C3777 1.387 . S
C3776 H3780 0.950 . S
C3776 C3785 1.390 . S
C3777 C3776 1.387 . S
C3777 C3779 1.387 . S
H3778 C3785 0.950 . S
C3779 C3777 1.387 . S
C3779 C3781 1.390 . S
C3779 H3783 0.950 . S
H3780 C3776 0.950 . S
C3781 C3779 1.390 . S
C3781 C3782 1.387 . S
C3781 H3784 0.950 . S
C3782 C3781 1.387 . S
C3782 C3785 1.387 . S
H3783 C3779 0.950 . S
H3784 C3781 0.950 . S
C3785 C3776 1.390 . S
C3785 H3778 0.950 . S
C3785 C3782 1.387 . S
C3786 C3787 1.387 . S
C3786 H3790 0.950 . S
C3786 C3795 1.390 . S
C3787 C3786 1.387 . S
C3787 C3789 1.387 . S
H3788 C3795 0.950 . S
C3789 C3787 1.387 . S
C3789 C3791 1.390 . S
C3789 H3793 0.950 . S
H3790 C3786 0.950 . S
C3791 C3789 1.390 . S
C3791 C3792 1.387 . S
C3791 H3794 0.950 . S
C3792 C3791 1.387 . S
C3792 C3795 1.387 . S
H3793 C3789 0.950 . S
H3794 C3791 0.950 . S
C3795 C3786 1.390 . S
C3795 H3788 0.950 . S
C3795 C3792 1.387 . S
C3796 C3797 1.387 . S
C3796 H3800 0.950 . S
C3796 C3805 1.390 . S
C3797 C3796 1.387 . S
C3797 C3799 1.387 . S
H3798 C3805 0.950 . S
C3799 C3797 1.387 . S
C3799 C3801 1.390 . S
C3799 H3803 0.950 . S
H3800 C3796 0.950 . S
C3801 C3799 1.390 . S
C3801 C3802 1.387 . S
C3801 H3804 0.950 . S
C3802 C3801 1.387 . S
C3802 C3805 1.387 . S
H3803 C3799 0.950 . S
H3804 C3801 0.950 . S
C3805 C3796 1.390 . S
C3805 H3798 0.950 . S
C3805 C3802 1.387 . S
C3806 C3807 1.387 . S
C3806 H3810 0.950 . S
C3806 C3815 1.390 . S
C3807 C3806 1.387 . S
C3807 C3809 1.387 . S
H3808 C3815 0.950 . S
C3809 C3807 1.387 . S
C3809 C3811 1.390 . S
C3809 H3813 0.950 . S
H3810 C3806 0.950 . S
C3811 C3809 1.390 . S
C3811 C3812 1.387 . S
C3811 H3814 0.950 . S
C3812 C3811 1.387 . S
C3812 C3815 1.387 . S
H3813 C3809 0.950 . S
H3814 C3811 0.950 . S
C3815 C3806 1.390 . S
C3815 H3808 0.950 . S
C3815 C3812 1.387 . S
C3816 C3817 1.387 . S
C3816 H3820 0.950 . S
C3816 C3825 1.390 . S
C3817 C3816 1.387 . S
C3817 C3819 1.387 . S
H3818 C3825 0.950 . S
C3819 C3817 1.387 . S
C3819 C3821 1.390 . S
C3819 H3823 0.950 . S
H3820 C3816 0.950 . S
C3821 C3819 1.390 . S
C3821 C3822 1.387 . S
C3821 H3824 0.950 . S
C3822 C3821 1.387 . S
C3822 C3825 1.387 . S
H3823 C3819 0.950 . S
H3824 C3821 0.950 . S
C3825 C3816 1.390 . S
C3825 H3818 0.950 . S
C3825 C3822 1.387 . S
C3826 C3827 1.387 . S
C3826 H3830 0.950 . S
C3826 C3835 1.390 . S
C3827 C3826 1.387 . S
C3827 C3829 1.387 . S
H3828 C3835 0.950 . S
C3829 C3827 1.387 . S
C3829 C3831 1.390 . S
C3829 H3833 0.950 . S
H3830 C3826 0.950 . S
C3831 C3829 1.390 . S
C3831 C3832 1.387 . S
C3831 H3834 0.950 . S
C3832 C3831 1.387 . S
C3832 C3835 1.387 . S
H3833 C3829 0.950 . S
H3834 C3831 0.950 . S
C3835 C3826 1.390 . S
C3835 H3828 0.950 . S
C3835 C3832 1.387 . S
C3836 C3837 1.387 . S
C3836 H3840 0.950 . S
C3836 C3845 1.390 . S
C3837 C3836 1.387 . S
C3837 C3839 1.387 . S
H3838 C3845 0.950 . S
C3839 C3837 1.387 . S
C3839 C3841 1.390 . S
C3839 H3843 0.950 . S
H3840 C3836 0.950 . S
C3841 C3839 1.390 . S
C3841 C3842 1.387 . S
C3841 H3844 0.950 . S
C3842 C3841 1.387 . S
C3842 C3845 1.387 . S
H3843 C3839 0.950 . S
H3844 C3841 0.950 . S
C3845 C3836 1.390 . S
C3845 H3838 0.950 . S
C3845 C3842 1.387 . S
C3846 C3847 1.387 . S
C3846 H3850 0.950 . S
C3846 C3855 1.390 . S
C3847 C3846 1.387 . S
C3847 C3849 1.387 . S
H3848 C3855 0.950 . S
C3849 C3847 1.387 . S
C3849 C3851 1.390 . S
C3849 H3853 0.950 . S
H3850 C3846 0.950 . S
C3851 C3849 1.390 . S
C3851 C3852 1.387 . S
C3851 H3854 0.950 . S
C3852 C3851 1.387 . S
C3852 C3855 1.387 . S
H3853 C3849 0.950 . S
H3854 C3851 0.950 . S
C3855 C3846 1.390 . S
C3855 H3848 0.950 . S
C3855 C3852 1.387 . S
C3856 C3857 1.387 . S
C3856 H3860 0.950 . S
C3856 C3865 1.390 . S
C3857 C3856 1.387 . S
C3857 C3859 1.387 . S
H3858 C3865 0.950 . S
C3859 C3857 1.387 . S
C3859 C3861 1.390 . S
C3859 H3863 0.950 . S
H3860 C3856 0.950 . S
C3861 C3859 1.390 . S
C3861 C3862 1.387 . S
C3861 H3864 0.950 . S
C3862 C3861 1.387 . S
C3862 C3865 1.387 . S
H3863 C3859 0.950 . S
H3864 C3861 0.950 . S
C3865 C3856 1.390 . S
C3865 H3858 0.950 . S
C3865 C3862 1.387 . S
C3866 C3867 1.387 . S
C3866 H3870 0.950 . S
C3866 C3875 1.390 . S
C3867 C3866 1.387 . S
C3867 C3869 1.387 . S
H3868 C3875 0.950 . S
C3869 C3867 1.387 . S
C3869 C3871 1.390 . S
C3869 H3873 0.950 . S
H3870 C3866 0.950 . S
C3871 C3869 1.390 . S
C3871 C3872 1.387 . S
C3871 H3874 0.950 . S
C3872 C3871 1.387 . S
C3872 C3875 1.387 . S
H3873 C3869 0.950 . S
H3874 C3871 0.950 . S
C3875 C3866 1.390 . S
C3875 H3868 0.950 . S
C3875 C3872 1.387 . S
C3876 C3877 1.387 . S
C3876 H3880 0.950 . S
C3876 C3885 1.390 . S
C3877 C3876 1.387 . S
C3877 C3879 1.387 . S
H3878 C3885 0.950 . S
C3879 C3877 1.387 . S
C3879 C3881 1.390 . S
C3879 H3883 0.950 . S
H3880 C3876 0.950 . S
C3881 C3879 1.390 . S
C3881 C3882 1.387 . S
C3881 H3884 0.950 . S
C3882 C3881 1.387 . S
C3882 C3885 1.387 . S
H3883 C3879 0.950 . S
H3884 C3881 0.950 . S
C3885 C3876 1.390 . S
C3885 H3878 0.950 . S
C3885 C3882 1.387 . S
C3886 C3887 1.387 . S
C3886 H3890 0.950 . S
C3886 C3895 1.390 . S
C3887 C3886 1.387 . S
C3887 C3889 1.387 . S
H3888 C3895 0.950 . S
C3889 C3887 1.387 . S
C3889 C3891 1.390 . S
C3889 H3893 0.950 . S
H3890 C3886 0.950 . S
C3891 C3889 1.390 . S
C3891 C3892 1.387 . S
C3891 H3894 0.950 . S
C3892 C3891 1.387 . S
C3892 C3895 1.387 . S
H3893 C3889 0.950 . S
H3894 C3891 0.950 . S
C3895 C3886 1.390 . S
C3895 H3888 0.950 . S
C3895 C3892 1.387 . S
C3896 C3897 1.387 . S
C3896 H3900 0.950 . S
C3896 C3905 1.390 . S
C3897 C3896 1.387 . S
C3897 C3899 1.387 . S
H3898 C3905 0.950 . S
C3899 C3897 1.387 . S
C3899 C3901 1.390 . S
C3899 H3903 0.950 . S
H3900 C3896 0.950 . S
C3901 C3899 1.390 . S
C3901 C3902 1.387 . S
C3901 H3904 0.950 . S
C3902 C3901 1.387 . S
C3902 C3905 1.387 . S
H3903 C3899 0.950 . S
H3904 C3901 0.950 . S
C3905 C3896 1.390 . S
C3905 H3898 0.950 . S
C3905 C3902 1.387 . S
C3906 C3907 1.387 . S
C3906 H3910 0.950 . S
C3906 C3915 1.390 . S
C3907 C3906 1.387 . S
C3907 C3909 1.387 . S
H3908 C3915 0.950 . S
C3909 C3907 1.387 . S
C3909 C3911 1.390 . S
C3909 H3913 0.950 . S
H3910 C3906 0.950 . S
C3911 C3909 1.390 . S
C3911 C3912 1.387 . S
C3911 H3914 0.950 . S
C3912 C3911 1.387 . S
C3912 C3915 1.387 . S
H3913 C3909 0.950 . S
H3914 C3911 0.950 . S
C3915 C3906 1.390 . S
C3915 H3908 0.950 . S
C3915 C3912 1.387 . S
C3916 C3917 1.387 . S
C3916 H3920 0.950 . S
C3916 C3925 1.390 . S
C3917 C3916 1.387 . S
C3917 C3919 1.387 . S
H3918 C3925 0.950 . S
C3919 C3917 1.387 . S
C3919 C3921 1.390 . S
C3919 H3923 0.950 . S
H3920 C3916 0.950 . S
C3921 C3919 1.390 . S
C3921 C3922 1.387 . S
C3921 H3924 0.950 . S
C3922 C3921 1.387 . S
C3922 C3925 1.387 . S
H3923 C3919 0.950 . S
H3924 C3921 0.950 . S
C3925 C3916 1.390 . S
C3925 H3918 0.950 . S
C3925 C3922 1.387 . S
C3926 C3927 1.387 . S
C3926 H3930 0.950 . S
C3926 C3935 1.390 . S
C3927 C3926 1.387 . S
C3927 C3929 1.387 . S
H3928 C3935 0.950 . S
C3929 C3927 1.387 . S
C3929 C3931 1.390 . S
C3929 H3933 0.950 . S
H3930 C3926 0.950 . S
C3931 C3929 1.390 . S
C3931 C3932 1.387 . S
C3931 H3934 0.950 . S
C3932 C3931 1.387 . S
C3932 C3935 1.387 . S
H3933 C3929 0.950 . S
H3934 C3931 0.950 . S
C3935 C3926 1.390 . S
C3935 H3928 0.950 . S
C3935 C3932 1.387 . S
C3936 C3937 1.387 . S
C3936 H3940 0.950 . S
C3936 C3945 1.390 . S
C3937 C3936 1.387 . S
C3937 C3939 1.387 . S
H3938 C3945 0.950 . S
C3939 C3937 1.387 . S
C3939 C3941 1.390 . S
C3939 H3943 0.950 . S
H3940 C3936 0.950 . S
C3941 C3939 1.390 . S
C3941 C3942 1.387 . S
C3941 H3944 0.950 . S
C3942 C3941 1.387 . S
C3942 C3945 1.387 . S
H3943 C3939 0.950 . S
H3944 C3941 0.950 . S
C3945 C3936 1.390 . S
C3945 H3938 0.950 . S
C3945 C3942 1.387 . S
C3946 C3947 1.387 . S
C3946 H3950 0.950 . S
C3946 C3955 1.390 . S
C3947 C3946 1.387 . S
C3947 C3949 1.387 . S
H3948 C3955 0.950 . S
C3949 C3947 1.387 . S
C3949 C3951 1.390 . S
C3949 H3953 0.950 . S
H3950 C3946 0.950 . S
C3951 C3949 1.390 . S
C3951 C3952 1.387 . S
C3951 H3954 0.950 . S
C3952 C3951 1.387 . S
C3952 C3955 1.387 . S
H3953 C3949 0.950 . S
H3954 C3951 0.950 . S
C3955 C3946 1.390 . S
C3955 H3948 0.950 . S
C3955 C3952 1.387 . S
C3956 C3957 1.387 . S
C3956 H3960 0.950 . S
C3956 C3965 1.390 . S
C3957 C3956 1.387 . S
C3957 C3959 1.387 . S
H3958 C3965 0.950 . S
C3959 C3957 1.387 . S
C3959 C3961 1.390 . S
C3959 H3963 0.950 . S
H3960 C3956 0.950 . S
C3961 C3959 1.390 . S
C3961 C3962 1.387 . S
C3961 H3964 0.950 . S
C3962 C3961 1.387 . S
C3962 C3965 1.387 . S
H3963 C3959 0.950 . S
H3964 C3961 0.950 . S
C3965 C3956 1.390 . S
C3965 H3958 0.950 . S
C3965 C3962 1.387 . S
C3966 C3967 1.387 . S
C3966 H3970 0.950 . S
C3966 C3975 1.390 . S
C3967 C3966 1.387 . S
C3967 C3969 1.387 . S
H3968 C3975 0.950 . S
C3969 C3967 1.387 . S
C3969 C3971 1.390 . S
C3969 H3973 0.950 . S
H3970 C3966 0.950 . S
C3971 C3969 1.390 . S
C3971 C3972 1.387 . S
C3971 H3974 0.950 . S
C3972 C3971 1.387 . S
C3972 C3975 1.387 . S
H3973 C3969 0.950 . S
H3974 C3971 0.950 . S
C3975 C3966 1.390 . S
C3975 H3968 0.950 . S
C3975 C3972 1.387 . S
C3976 C3977 1.387 . S
C3976 H3980 0.950 . S
C3976 C3985 1.390 . S
C3977 C3976 1.387 . S
C3977 C3979 1.387 . S
H3978 C3985 0.950 . S
C3979 C3977 1.387 . S
C3979 C3981 1.390 . S
C3979 H3983 0.950 . S
H3980 C3976 0.950 . S
C3981 C3979 1.390 . S
C3981 C3982 1.387 . S
C3981 H3984 0.950 . S
C3982 C3981 1.387 . S
C3982 C3985 1.387 . S
H3983 C3979 0.950 . S
H3984 C3981 0.950 . S
C3985 C3976 1.390 . S
C3985 H3978 0.950 . S
C3985 C3982 1.387 . S
C3986 C3987 1.387 . S
C3986 H3990 0.950 . S
C3986 C3995 1.390 . S
C3987 C3986 1.387 . S
C3987 C3989 1.387 . S
H3988 C3995 0.950 . S
C3989 C3987 1.387 . S
C3989 C3991 1.390 . S
C3989 H3993 0.950 . S
H3990 C3986 0.950 . S
C3991 C3989 1.390 . S
C3991 C3992 1.387 . S
C3991 H3994 0.950 . S
C3992 C3991 1.387 . S
C3992 C3995 1.387 . S
H3993 C3989 0.950 . S
H3994 C3991 0.950 . S
C3995 C3986 1.390 . S
C3995 H3988 0.950 . S
C3995 C3992 1.387 . S
C3996 C3997 1.387 . S
C3996 H4000 0.950 . S
C3996 C4005 1.390 . S
C3997 C3996 1.387 . S
C3997 C3999 1.387 . S
H3998 C4005 0.950 . S
C3999 C3997 1.387 . S
C3999 C4001 1.390 . S
C3999 H4003 0.950 . S
H4000 C3996 0.950 . S
C4001 C3999 1.390 . S
C4001 C4002 1.387 . S
C4001 H4004 0.950 . S
C4002 C4001 1.387 . S
C4002 C4005 1.387 . S
H4003 C3999 0.950 . S
H4004 C4001 0.950 . S
C4005 C3996 1.390 . S
C4005 H3998 0.950 . S
C4005 C4002 1.387 . S
C4006 C4007 1.387 . S
C4006 H4010 0.950 . S
C4006 C4015 1.390 . S
C4007 C4006 1.387 . S
C4007 C4009 1.387 . S
H4008 C4015 0.950 . S
C4009 C4007 1.387 . S
C4009 C4011 1.390 . S
C4009 H4013 0.950 . S
H4010 C4006 0.950 . S
C4011 C4009 1.390 . S
C4011 C4012 1.387 . S
C4011 H4014 0.950 . S
C4012 C4011 1.387 . S
C4012 C4015 1.387 . S
H4013 C4009 0.950 . S
H4014 C4011 0.950 . S
C4015 C4006 1.390 . S
C4015 H4008 0.950 . S
C4015 C4012 1.387 . S
C4016 C4017 1.387 . S
C4016 H4020 0.950 . S
C4016 C4025 1.390 . S
C4017 C4016 1.387 . S
C4017 C4019 1.387 . S
H4018 C4025 0.950 . S
C4019 C4017 1.387 . S
C4019 C4021 1.390 . S
C4019 H4023 0.950 . S
H4020 C4016 0.950 . S
C4021 C4019 1.390 . S
C4021 C4022 1.387 . S
C4021 H4024 0.950 . S
C4022 C4021 1.387 . S
C4022 C4025 1.387 . S
H4023 C4019 0.950 . S
H4024 C4021 0.950 . S
C4025 C4016 1.390 . S
C4025 H4018 0.950 . S
C4025 C4022 1.387 . S
C4026 C4027 1.387 . S
C4026 H4030 0.950 . S
C4026 C4035 1.390 . S
C4027 C4026 1.387 . S
C4027 C4029 1.387 . S
H4028 C4035 0.950 . S
C4029 C4027 1.387 . S
C4029 C4031 1.390 . S
C4029 H4033 0.950 . S
H4030 C4026 0.950 . S
C4031 C4029 1.390 . S
C4031 C4032 1.387 . S
C4031 H4034 0.950 . S
C4032 C4031 1.387 . S
C4032 C4035 1.387 . S
H4033 C4029 0.950 . S
H4034 C4031 0.950 . S
C4035 C4026 1.390 . S
C4035 H4028 0.950 . S
C4035 C4032 1.387 . S
C4036 C4037 1.387 . S
C4036 H4040 0.950 . S
C4036 C4045 1.390 . S
C4037 C4036 1.387 . S
C4037 C4039 1.387 . S
H4038 C4045 0.950 . S
C4039 C4037 1.387 . S
C4039 C4041 1.390 . S
C4039 H4043 0.950 . S
H4040 C4036 0.950 . S
C4041 C4039 1.390 . S
C4041 C4042 1.387 . S
C4041 H4044 0.950 . S
C4042 C4041 1.387 . S
C4042 C4045 1.387 . S
H4043 C4039 0.950 . S
H4044 C4041 0.950 . S
C4045 C4036 1.390 . S
C4045 H4038 0.950 . S
C4045 C4042 1.387 . S
C4046 C4047 1.387 . S
C4046 H4050 0.950 . S
C4046 C4055 1.390 . S
C4047 C4046 1.387 . S
C4047 C4049 1.387 . S
H4048 C4055 0.950 . S
C4049 C4047 1.387 . S
C4049 C4051 1.390 . S
C4049 H4053 0.950 . S
H4050 C4046 0.950 . S
C4051 C4049 1.390 . S
C4051 C4052 1.387 . S
C4051 H4054 0.950 . S
C4052 C4051 1.387 . S
C4052 C4055 1.387 . S
H4053 C4049 0.950 . S
H4054 C4051 0.950 . S
C4055 C4046 1.390 . S
C4055 H4048 0.950 . S
C4055 C4052 1.387 . S
C4056 C4057 1.387 . S
C4056 H4060 0.950 . S
C4056 C4065 1.390 . S
C4057 C4056 1.387 . S
C4057 C4059 1.387 . S
H4058 C4065 0.950 . S
C4059 C4057 1.387 . S
C4059 C4061 1.390 . S
C4059 H4063 0.950 . S
H4060 C4056 0.950 . S
C4061 C4059 1.390 . S
C4061 C4062 1.387 . S
C4061 H4064 0.950 . S
C4062 C4061 1.387 . S
C4062 C4065 1.387 . S
H4063 C4059 0.950 . S
H4064 C4061 0.950 . S
C4065 C4056 1.390 . S
C4065 H4058 0.950 . S
C4065 C4062 1.387 . S
C4066 C4067 1.387 . S
C4066 H4070 0.950 . S
C4066 C4075 1.390 . S
C4067 C4066 1.387 . S
C4067 C4069 1.387 . S
H4068 C4075 0.950 . S
C4069 C4067 1.387 . S
C4069 C4071 1.390 . S
C4069 H4073 0.950 . S
H4070 C4066 0.950 . S
C4071 C4069 1.390 . S
C4071 C4072 1.387 . S
C4071 H4074 0.950 . S
C4072 C4071 1.387 . S
C4072 C4075 1.387 . S
H4073 C4069 0.950 . S
H4074 C4071 0.950 . S
C4075 C4066 1.390 . S
C4075 H4068 0.950 . S
C4075 C4072 1.387 . S
C4076 C4077 1.387 . S
C4076 H4080 0.950 . S
C4076 C4085 1.390 . S
C4077 C4076 1.387 . S
C4077 C4079 1.387 . S
H4078 C4085 0.950 . S
C4079 C4077 1.387 . S
C4079 C4081 1.390 . S
C4079 H4083 0.950 . S
H4080 C4076 0.950 . S
C4081 C4079 1.390 . S
C4081 C4082 1.387 . S
C4081 H4084 0.950 . S
C4082 C4081 1.387 . S
C4082 C4085 1.387 . S
H4083 C4079 0.950 . S
H4084 C4081 0.950 . S
C4085 C4076 1.390 . S
C4085 H4078 0.950 . S
C4085 C4082 1.387 . S
C4086 C4087 1.387 . S
C4086 H4090 0.950 . S
C4086 C4095 1.390 . S
C4087 C4086 1.387 . S
C4087 C4089 1.387 . S
H4088 C4095 0.950 . S
C4089 C4087 1.387 . S
C4089 C4091 1.390 . S
C4089 H4093 0.950 . S
H4090 C4086 0.950 . S
C4091 C4089 1.390 . S
C4091 C4092 1.387 . S
C4091 H4094 0.950 . S
C4092 C4091 1.387 . S
C4092 C4095 1.387 . S
H4093 C4089 0.950 . S
H4094 C4091 0.950 . S
C4095 C4086 1.390 . S
C4095 H4088 0.950 . S
C4095 C4092 1.387 . S
C4096 C4097 1.387 . S
C4096 H4100 0.950 . S
C4096 C4105 1.390 . S
C4097 C4096 1.387 . S
C4097 C4099 1.387 . S
H4098 C4105 0.950 . S
C4099 C4097 1.387 . S
C4099 C4101 1.390 . S
C4099 H4103 0.950 . S
H4100 C4096 0.950 . S
C4101 C4099 1.390 . S
C4101 C4102 1.387 . S
C4101 H4104 0.950 . S
C4102 C4101 1.387 . S
C4102 C4105 1.387 . S
H4103 C4099 0.950 . S
H4104 C4101 0.950 . S
C4105 C4096 1.390 . S
C4105 H4098 0.950 . S
C4105 C4102 1.387 . S
C4106 C4107 1.387 . S
C4106 H4110 0.950 . S
C4106 C4115 1.390 . S
C4107 C4106 1.387 . S
C4107 C4109 1.387 . S
H4108 C4115 0.950 . S
C4109 C4107 1.387 . S
C4109 C4111 1.390 . S
C4109 H4113 0.950 . S
H4110 C4106 0.950 . S
C4111 C4109 1.390 . S
C4111 C4112 1.387 . S
C4111 H4114 0.950 . S
C4112 C4111 1.387 . S
C4112 C4115 1.387 . S
H4113 C4109 0.950 . S
H4114 C4111 0.950 . S
C4115 C4106 1.390 . S
C4115 H4108 0.950 . S
C4115 C4112 1.387 . S
C4116 C4117 1.387 . S
C4116 H4120 0.950 . S
C4116 C4125 1.390 . S
C4117 C4116 1.387 . S
C4117 C4119 1.387 . S
H4118 C4125 0.950 . S
C4119 C4117 1.387 . S
C4119 C4121 1.390 . S
C4119 H4123 0.950 . S
H4120 C4116 0.950 . S
C4121 C4119 1.390 . S
C4121 C4122 1.387 . S
C4121 H4124 0.950 . S
C4122 C4121 1.387 . S
C4122 C4125 1.387 . S
H4123 C4119 0.950 . S
H4124 C4121 0.950 . S
C4125 C4116 1.390 . S
C4125 H4118 0.950 . S
C4125 C4122 1.387 . S
C4126 C4127 1.387 . S
C4126 H4130 0.950 . S
C4126 C4135 1.390 . S
C4127 C4126 1.387 . S
C4127 C4129 1.387 . S
H4128 C4135 0.950 . S
C4129 C4127 1.387 . S
C4129 C4131 1.390 . S
C4129 H4133 0.950 . S
H4130 C4126 0.950 . S
C4131 C4129 1.390 . S
C4131 C4132 1.387 . S
C4131 H4134 0.950 . S
C4132 C4131 1.387 . S
C4132 C4135 1.387 . S
H4133 C4129 0.950 . S
H4134 C4131 0.950 . S
C4135 C4126 1.390 . S
C4135 H4128 0.950 . S
C4135 C4132 1.387 . S
C4136 C4137 1.387 . S
C4136 H4140 0.950 . S
C4136 C4145 1.390 . S
C4137 C4136 1.387 . S
C4137 C4139 1.387 . S
H4138 C4145 0.950 . S
C4139 C4137 1.387 . S
C4139 C4141 1.390 . S
C4139 H4143 0.950 . S
H4140 C4136 0.950 . S
C4141 C4139 1.390 . S
C4141 C4142 1.387 . S
C4141 H4144 0.950 . S
C4142 C4141 1.387 . S
C4142 C4145 1.387 . S
H4143 C4139 0.950 . S
H4144 C4141 0.950 . S
C4145 C4136 1.390 . S
C4145 H4138 0.950 . S
C4145 C4142 1.387 . S
C4146 C4147 1.387 . S
C4146 H4150 0.950 . S
C4146 C4155 1.390 . S
C4147 C4146 1.387 . S
C4147 C4149 1.387 . S
H4148 C4155 0.950 1_655 S
C4149 C4147 1.387 . S
C4149 C4151 1.390 . S
C4149 H4153 0.950 . S
H4150 C4146 0.950 . S
C4151 C4149 1.390 . S
C4151 C4152 1.387 . S
C4151 H4154 0.950 . S
C4152 C4151 1.387 . S
C4152 C4155 1.387 . S
H4153 C4149 0.950 . S
H4154 C4151 0.950 . S
C4155 C4146 1.390 . S
C4155 H4148 0.950 1_455 S
C4155 C4152 1.387 . S
C4156 C4157 1.387 . S
C4156 H4160 0.950 . S
C4156 C4165 1.390 . S
C4157 C4156 1.387 . S
C4157 C4159 1.387 . S
H4158 C4165 0.950 . S
C4159 C4157 1.387 . S
C4159 C4161 1.390 . S
C4159 H4163 0.950 . S
H4160 C4156 0.950 . S
C4161 C4159 1.390 . S
C4161 C4162 1.387 . S
C4161 H4164 0.950 . S
C4162 C4161 1.387 . S
C4162 C4165 1.387 . S
H4163 C4159 0.950 . S
H4164 C4161 0.950 . S
C4165 C4156 1.390 . S
C4165 H4158 0.950 . S
C4165 C4162 1.387 . S
C4166 C4167 1.387 . S
C4166 H4170 0.950 . S
C4166 C4175 1.390 . S
C4167 C4166 1.387 . S
C4167 C4169 1.387 1_565 S
H4168 C4175 0.950 . S
C4169 C4167 1.387 1_545 S
C4169 C4171 1.390 . S
C4169 H4173 0.950 . S
H4170 C4166 0.950 . S
C4171 C4169 1.390 . S
C4171 C4172 1.387 1_545 S
C4171 H4174 0.950 . S
C4172 C4171 1.387 1_565 S
C4172 C4175 1.387 . S
H4173 C4169 0.950 . S
H4174 C4171 0.950 . S
C4175 C4166 1.390 . S
C4175 H4168 0.950 . S
C4175 C4172 1.387 . S
C4176 C4177 1.387 1_545 S
C4176 H4180 0.950 . S
C4176 C4185 1.390 . S
C4177 C4176 1.387 1_565 S
C4177 C4179 1.387 . S
H4178 C4185 0.950 . S
C4179 C4177 1.387 . S
C4179 C4181 1.390 . S
C4179 H4183 0.950 . S
H4180 C4176 0.950 . S
C4181 C4179 1.390 . S
C4181 C4182 1.387 . S
C4181 H4184 0.950 . S
C4182 C4181 1.387 . S
C4182 C4185 1.387 1_565 S
H4183 C4179 0.950 . S
H4184 C4181 0.950 . S
C4185 C4176 1.390 . S
C4185 H4178 0.950 . S
C4185 C4182 1.387 1_545 S
C4186 C4187 1.387 . S
C4186 H4190 0.950 . S
C4186 C4195 1.390 . S
C4187 C4186 1.387 . S
C4187 C4189 1.387 1_455 S
H4188 C4195 0.950 . S
C4189 C4187 1.387 1_655 S
C4189 C4191 1.390 . S
C4189 H4193 0.950 . S
H4190 C4186 0.950 . S
C4191 C4189 1.390 . S
C4191 C4192 1.387 1_655 S
C4191 H4194 0.950 . S
C4192 C4191 1.387 1_455 S
C4192 C4195 1.387 . S
H4193 C4189 0.950 . S
H4194 C4191 0.950 . S
C4195 C4186 1.390 . S
C4195 H4188 0.950 . S
C4195 C4192 1.387 . S
C4196 C4197 1.387 . S
C4196 H4200 0.950 . S
C4196 C4205 1.390 . S
C4197 C4196 1.387 . S
C4197 C4199 1.387 . S
H4198 C4205 0.950 . S
C4199 C4197 1.387 . S
C4199 C4201 1.390 . S
C4199 H4203 0.950 . S
H4200 C4196 0.950 . S
C4201 C4199 1.390 . S
C4201 C4202 1.387 . S
C4201 H4204 0.950 . S
C4202 C4201 1.387 . S
C4202 C4205 1.387 . S
H4203 C4199 0.950 . S
H4204 C4201 0.950 . S
C4205 C4196 1.390 . S
C4205 H4198 0.950 . S
C4205 C4202 1.387 . S
C4206 C4207 1.387 . S
C4206 H4210 0.950 . S
C4206 C4215 1.390 . S
C4207 C4206 1.387 . S
C4207 C4209 1.387 . S
H4208 C4215 0.950 . S
C4209 C4207 1.387 . S
C4209 C4211 1.390 . S
C4209 H4213 0.950 . S
H4210 C4206 0.950 . S
C4211 C4209 1.390 . S
C4211 C4212 1.387 . S
C4211 H4214 0.950 . S
C4212 C4211 1.387 . S
C4212 C4215 1.387 . S
H4213 C4209 0.950 . S
H4214 C4211 0.950 . S
C4215 C4206 1.390 . S
C4215 H4208 0.950 . S
C4215 C4212 1.387 . S
C4216 C4217 1.387 . S
C4216 H4220 0.950 . S
C4216 C4225 1.390 . S
C4217 C4216 1.387 . S
C4217 C4219 1.387 . S
H4218 C4225 0.950 . S
C4219 C4217 1.387 . S
C4219 C4221 1.390 . S
C4219 H4223 0.950 . S
H4220 C4216 0.950 . S
C4221 C4219 1.390 . S
C4221 C4222 1.387 . S
C4221 H4224 0.950 . S
C4222 C4221 1.387 . S
C4222 C4225 1.387 . S
H4223 C4219 0.950 . S
H4224 C4221 0.950 . S
C4225 C4216 1.390 . S
C4225 H4218 0.950 . S
C4225 C4222 1.387 . S
C4226 C4227 1.387 . S
C4226 H4230 0.950 . S
C4226 C4235 1.390 . S
C4227 C4226 1.387 . S
C4227 C4229 1.387 . S
H4228 C4235 0.950 . S
C4229 C4227 1.387 . S
C4229 C4231 1.390 . S
C4229 H4233 0.950 . S
H4230 C4226 0.950 . S
C4231 C4229 1.390 . S
C4231 C4232 1.387 . S
C4231 H4234 0.950 . S
C4232 C4231 1.387 . S
C4232 C4235 1.387 . S
H4233 C4229 0.950 . S
H4234 C4231 0.950 . S
C4235 C4226 1.390 . S
C4235 H4228 0.950 . S
C4235 C4232 1.387 . S
C4236 C4237 1.387 . S
C4236 H4240 0.950 . S
C4236 C4245 1.390 . S
C4237 C4236 1.387 . S
C4237 C4239 1.387 1_545 S
H4238 C4245 0.950 . S
C4239 C4237 1.387 1_565 S
C4239 C4241 1.390 . S
C4239 H4243 0.950 . S
H4240 C4236 0.950 . S
C4241 C4239 1.390 . S
C4241 C4242 1.387 1_565 S
C4241 H4244 0.950 . S
C4242 C4241 1.387 1_545 S
C4242 C4245 1.387 . S
H4243 C4239 0.950 . S
H4244 C4241 0.950 . S
C4245 C4236 1.390 . S
C4245 H4238 0.950 . S
C4245 C4242 1.387 . S
C4246 C4247 1.387 . S
C4246 H4250 0.950 . S
C4246 C4255 1.390 . S
C4247 C4246 1.387 . S
C4247 C4249 1.387 1_655 S
H4248 C4255 0.950 . S
C4249 C4247 1.387 1_455 S
C4249 C4251 1.390 . S
C4249 H4253 0.950 . S
H4250 C4246 0.950 . S
C4251 C4249 1.390 . S
C4251 C4252 1.387 1_455 S
C4251 H4254 0.950 . S
C4252 C4251 1.387 1_655 S
C4252 C4255 1.387 . S
H4253 C4249 0.950 . S
H4254 C4251 0.950 . S
C4255 C4246 1.390 . S
C4255 H4248 0.950 . S
C4255 C4252 1.387 . S
C4256 C4257 1.387 . S
C4256 H4260 0.950 . S
C4256 C4265 1.390 . S
C4257 C4256 1.387 . S
C4257 C4259 1.387 . S
H4258 C4265 0.950 . S
C4259 C4257 1.387 . S
C4259 C4261 1.390 . S
C4259 H4263 0.950 . S
H4260 C4256 0.950 . S
C4261 C4259 1.390 . S
C4261 C4262 1.387 . S
C4261 H4264 0.950 . S
C4262 C4261 1.387 . S
C4262 C4265 1.387 . S
H4263 C4259 0.950 . S
H4264 C4261 0.950 . S
C4265 C4256 1.390 . S
C4265 H4258 0.950 . S
C4265 C4262 1.387 . S
C4266 C4267 1.387 . S
C4266 H4270 0.950 . S
C4266 C4275 1.390 . S
C4267 C4266 1.387 . S
C4267 C4269 1.387 . S
H4268 C4275 0.950 . S
C4269 C4267 1.387 . S
C4269 C4271 1.390 . S
C4269 H4273 0.950 . S
H4270 C4266 0.950 . S
C4271 C4269 1.390 . S
C4271 C4272 1.387 . S
C4271 H4274 0.950 . S
C4272 C4271 1.387 . S
C4272 C4275 1.387 . S
H4273 C4269 0.950 . S
H4274 C4271 0.950 . S
C4275 C4266 1.390 . S
C4275 H4268 0.950 . S
C4275 C4272 1.387 . S
C4276 C4277 1.387 . S
C4276 H4280 0.950 . S
C4276 C4285 1.390 . S
C4277 C4276 1.387 . S
C4277 C4279 1.387 . S
H4278 C4285 0.950 . S
C4279 C4277 1.387 . S
C4279 C4281 1.390 . S
C4279 H4283 0.950 . S
H4280 C4276 0.950 . S
C4281 C4279 1.390 . S
C4281 C4282 1.387 . S
C4281 H4284 0.950 . S
C4282 C4281 1.387 . S
C4282 C4285 1.387 . S
H4283 C4279 0.950 . S
H4284 C4281 0.950 . S
C4285 C4276 1.390 . S
C4285 H4278 0.950 . S
C4285 C4282 1.387 . S
C4286 C4287 1.387 . S
C4286 H4290 0.950 . S
C4286 C4295 1.390 . S
C4287 C4286 1.387 . S
C4287 C4289 1.387 . S
H4288 C4295 0.950 . S
C4289 C4287 1.387 . S
C4289 C4291 1.390 . S
C4289 H4293 0.950 . S
H4290 C4286 0.950 . S
C4291 C4289 1.390 . S
C4291 C4292 1.387 . S
C4291 H4294 0.950 . S
C4292 C4291 1.387 . S
C4292 C4295 1.387 . S
H4293 C4289 0.950 . S
H4294 C4291 0.950 . S
C4295 C4286 1.390 . S
C4295 H4288 0.950 . S
C4295 C4292 1.387 . S
C4296 C4297 1.387 . S
C4296 H4300 0.950 . S
C4296 C4305 1.390 . S
C4297 C4296 1.387 . S
C4297 C4299 1.387 . S
H4298 C4305 0.950 . S
C4299 C4297 1.387 . S
C4299 C4301 1.390 . S
C4299 H4303 0.950 . S
H4300 C4296 0.950 . S
C4301 C4299 1.390 . S
C4301 C4302 1.387 . S
C4301 H4304 0.950 . S
C4302 C4301 1.387 . S
C4302 C4305 1.387 . S
H4303 C4299 0.950 . S
H4304 C4301 0.950 . S
C4305 C4296 1.390 . S
C4305 H4298 0.950 . S
C4305 C4302 1.387 . S
C4306 C4307 1.387 . S
C4306 H4310 0.950 . S
C4306 C4315 1.390 . S
C4307 C4306 1.387 . S
C4307 C4309 1.387 . S
H4308 C4315 0.950 . S
C4309 C4307 1.387 . S
C4309 C4311 1.390 . S
C4309 H4313 0.950 . S
H4310 C4306 0.950 . S
C4311 C4309 1.390 . S
C4311 C4312 1.387 . S
C4311 H4314 0.950 . S
C4312 C4311 1.387 . S
C4312 C4315 1.387 . S
H4313 C4309 0.950 . S
H4314 C4311 0.950 . S
C4315 C4306 1.390 . S
C4315 H4308 0.950 . S
C4315 C4312 1.387 . S
C4316 C4317 1.387 . S
C4316 H4320 0.950 . S
C4316 C4325 1.390 . S
C4317 C4316 1.387 . S
C4317 C4319 1.387 . S
H4318 C4325 0.950 . S
C4319 C4317 1.387 . S
C4319 C4321 1.390 . S
C4319 H4323 0.950 . S
H4320 C4316 0.950 . S
C4321 C4319 1.390 . S
C4321 C4322 1.387 . S
C4321 H4324 0.950 . S
C4322 C4321 1.387 . S
C4322 C4325 1.387 . S
H4323 C4319 0.950 . S
H4324 C4321 0.950 . S
C4325 C4316 1.390 . S
C4325 H4318 0.950 . S
C4325 C4322 1.387 . S
C4326 C4327 1.387 . S
C4326 H4330 0.950 . S
C4326 C4335 1.390 . S
C4327 C4326 1.387 . S
C4327 C4329 1.387 . S
H4328 C4335 0.950 . S
C4329 C4327 1.387 . S
C4329 C4331 1.390 1_655 S
C4329 H4333 0.934 1_655 S
H4330 C4326 0.950 . S
C4331 C4329 1.390 1_455 S
C4331 C4332 1.387 1_455 S
C4331 H4334 0.950 . S
C4332 C4331 1.387 1_655 S
C4332 C4335 1.387 . S
H4333 C4329 0.934 1_455 S
H4334 C4331 0.950 . S
C4335 C4326 1.390 . S
C4335 H4328 0.950 . S
C4335 C4332 1.387 . S
C4336 C4337 1.387 . S
C4336 H4340 0.950 . S
C4336 C4345 1.390 . S
C4337 C4336 1.387 . S
C4337 C4339 1.387 . S
H4338 C4345 0.950 . S
C4339 C4337 1.387 . S
C4339 C4341 1.390 . S
C4339 H4343 0.950 . S
H4340 C4336 0.950 . S
C4341 C4339 1.390 . S
C4341 C4342 1.387 . S
C4341 H4344 0.950 . S
C4342 C4341 1.387 . S
C4342 C4345 1.387 . S
H4343 C4339 0.950 . S
H4344 C4341 0.950 . S
C4345 C4336 1.390 . S
C4345 H4338 0.950 . S
C4345 C4342 1.387 . S
C4346 C4347 1.387 . S
C4346 H4350 0.950 . S
C4346 C4355 1.390 . S
C4347 C4346 1.387 . S
C4347 C4349 1.387 1_545 S
H4348 C4355 0.950 . S
C4349 C4347 1.387 1_565 S
C4349 C4351 1.390 . S
C4349 H4353 0.950 . S
H4350 C4346 0.950 . S
C4351 C4349 1.390 . S
C4351 C4352 1.387 1_565 S
C4351 H4354 0.950 . S
C4352 C4351 1.387 1_545 S
C4352 C4355 1.387 . S
H4353 C4349 0.950 . S
H4354 C4351 0.950 . S
C4355 C4346 1.390 . S
C4355 H4348 0.950 . S
C4355 C4352 1.387 . S
C3637 C49 1.504 . S
C3642 C2639 1.353 . S
C3647 C137 1.718 . S
C3652 C2779 1.069 . S
C3662 C2867 1.447 . S
C3657 C205 1.572 . S
C3667 C196 1.588 . S
C3672 C3007 1.361 1_565 S
C3677 C57 1.597 . S
C3682 C3121 1.405 . S
C3687 C145 1.720 . S
C3692 C3209 1.240 . S
C3697 C313 1.592 . S
C3702 C3095 1.175 . S
C3712 C3235 1.322 . S
C3707 C401 1.624 . S
C3722 C2981 1.235 . S
C3717 C489 1.628 . S
C3727 C469 1.662 . S
C3732 C2893 1.096 . S
C3742 C2665 1.081 . S
C3737 C293 1.640 . S
C3747 C381 1.626 . S
C3752 C2753 1.414 . S
C3757 C577 1.797 . S
C3762 C3323 1.274 . S
C3767 C645 1.835 . S
C3772 C3463 1.124 . S
C3782 C3551 1.221 . S
C3777 C733 1.741 . S
C3787 C724 1.752 . S
C3792 C1639 1.117 . S
C3797 C585 1.819 . S
C3802 C1753 1.148 . S
C3807 C636 1.822 . S
C3812 C1841 1.316 . S
C3817 C841 1.543 . S
C3822 C1727 1.358 . S
C3827 C937 1.723 . S
C3832 C1867 1.474 . S
C3842 C1613 1.490 . S
C3837 C1025 1.689 . S
C3852 C3577 1.529 . S
C3847 C988 1.795 . S
C3862 C3349 1.402 . S
C3857 C821 1.656 . S
C3872 C3437 1.564 . S
C3867 C900 1.711 . S
C3877 C1105 1.657 . S
C3882 C1955 1.145 . S
C3887 C1193 1.837 . S
C3892 C2095 1.146 . S
C3897 C1281 1.790 . S
C3902 C2183 1.290 . S
C3907 C1289 1.890 . S
C3912 C2323 1.235 . S
C3922 C2437 1.070 . S
C3917 C1113 1.770 . S
C3932 C2525 1.301 . S
C3927 C1201 1.830 . S
C3942 C2411 1.498 . S
C3937 C1369 1.691 . S
C3952 C2551 1.489 . S
C3947 C1457 1.709 . S
C3957 C1553 1.617 . S
C3962 C2297 1.441 . S
C3972 C2209 1.401 . S
C3967 C1516 1.648 . S
C3977 C1349 1.724 . S
C3982 C1981 1.434 . S
C3992 C2069 1.544 . S
C3987 C1437 1.709 . S
C4002 C1595 1.113 . S
C3997 C29 2.109 . S
C4007 C117 1.843 . S
C4012 C1709 0.975 . S
C4022 C1813 1.412 . S
C4017 C225 2.079 . S
C4032 C1927 1.302 . S
C4027 C233 1.927 . S
C4042 C2051 1.117 . S
C4037 C20 2.083 . S
C4052 C2155 1.289 . S
C4047 C108 1.888 . S
C4057 C321 2.264 . S
C4062 C2165 1.977 . S
C4067 C409 2.014 . S
C4072 C1937 1.813 . S
C4077 C497 2.271 . S
C4082 C2041 2.180 . S
C4087 C460 2.099 . S
C4092 C1699 2.022 . S
C4102 C1823 2.026 . S
C4097 C284 2.267 . S
C4107 C372 2.055 . S
C4112 C1585 1.971 . S
C4122 C2279 0.983 . S
C4117 C557 1.893 . S
C4127 C665 1.888 . S
C4132 C2393 1.022 . S
C4137 C753 1.905 . S
C4142 C2497 1.346 . S
C4152 C2611 0.883 . S
C4147 C761 1.070 . S
C4157 C548 1.795 . S
C4162 C2735 0.922 . S
C4167 C673 1.192 . S
C4172 C2839 0.952 . S
C4177 C849 1.305 . S
C4182 C2849 0.856 1_565 S
C4187 C929 1.193 . S
C4192 C2621 0.837 1_455 S
C4202 C2725 1.871 . S
C4197 C1017 1.972 . S
C4207 C997 1.936 . S
C4212 C2383 1.879 . S
C4217 C812 2.050 . S
C4222 C2507 1.783 . S
C4232 C2269 1.940 . S
C4227 C909 2.078 . S
C4242 C2963 0.755 . S
C4237 C1085 1.273 . S
C4247 C1173 1.144 . S
C4252 C3077 0.765 . S
C4257 C1261 1.799 . S
C4262 C3181 1.226 . S
C4272 C3295 1.220 . S
C4267 C1252 1.757 . S
C4282 C3419 1.047 . S
C4277 C1076 1.903 . S
C4287 C1164 1.920 . S
C4292 C3523 1.342 . S
C4297 C1377 2.065 . S
C4302 C3533 1.802 . S
C4307 C1465 2.045 . S
C4312 C3305 1.757 . S
C4322 C3409 1.954 . S
C4317 C1545 2.066 . S
C4332 C3067 0.952 1_655 S
C4327 C1525 1.094 . S
C4342 C3191 1.718 . S
C4337 C1340 1.961 . S
C4347 C1428 1.229 . S
C4352 C2953 1.016 1_545 S
