# Generated by pormake.
# Topology anh, (6,3)-cn, num edge types: 1
# Building blocks:
#     Node 0, Type 0, BuildingBlock: BETFEN_clean_sbu_0, # of connection points: 6
#     Node 1, Type 0, BuildingBlock: BETFEN_clean_sbu_0, # of connection points: 6
#     Node 2, Type 0, BuildingBlock: BETFEN_clean_sbu_0, # of connection points: 6
#     Node 3, Type 1, BuildingBlock: MIDCAF_clean_linker_0, # of connection points: 3
#     Node 4, Type 1, BuildingBlock: MIDCAF_clean_linker_0, # of connection points: 3
#     Node 5, Type 1, BuildingBlock: MIDCAF_clean_linker_0, # of connection points: 3
#     Node 6, Type 1, BuildingBlock: MIDCAF_clean_linker_0, # of connection points: 3
#     Node 7, Type 1, BuildingBlock: MIDCAF_clean_linker_0, # of connection points: 3
#     Node 8, Type 1, BuildingBlock: MIDCAF_clean_linker_0, # of connection points: 3
#     Edge 9, Type (0, 1), BuildingBlock: EZIPEK_clean_linker_0, # of connection points: 2
#     Edge 10, Type (0, 1), BuildingBlock: EZIPEK_clean_linker_0, # of connection points: 2
#     Edge 11, Type (0, 1), BuildingBlock: EZIPEK_clean_linker_0, # of connection points: 2
#     Edge 12, Type (0, 1), BuildingBlock: EZIPEK_clean_linker_0, # of connection points: 2
#     Edge 13, Type (0, 1), BuildingBlock: EZIPEK_clean_linker_0, # of connection points: 2
#     Edge 14, Type (0, 1), BuildingBlock: EZIPEK_clean_linker_0, # of connection points: 2
#     Edge 15, Type (0, 1), BuildingBlock: EZIPEK_clean_linker_0, # of connection points: 2
#     Edge 16, Type (0, 1), BuildingBlock: EZIPEK_clean_linker_0, # of connection points: 2
#     Edge 17, Type (0, 1), BuildingBlock: EZIPEK_clean_linker_0, # of connection points: 2
#     Edge 18, Type (0, 1), BuildingBlock: EZIPEK_clean_linker_0, # of connection points: 2
#     Edge 19, Type (0, 1), BuildingBlock: EZIPEK_clean_linker_0, # of connection points: 2
#     Edge 20, Type (0, 1), BuildingBlock: EZIPEK_clean_linker_0, # of connection points: 2
#     Edge 21, Type (0, 1), BuildingBlock: EZIPEK_clean_linker_0, # of connection points: 2
#     Edge 22, Type (0, 1), BuildingBlock: EZIPEK_clean_linker_0, # of connection points: 2
#     Edge 23, Type (0, 1), BuildingBlock: EZIPEK_clean_linker_0, # of connection points: 2
#     Edge 24, Type (0, 1), BuildingBlock: EZIPEK_clean_linker_0, # of connection points: 2
#     Edge 25, Type (0, 1), BuildingBlock: EZIPEK_clean_linker_0, # of connection points: 2
#     Edge 26, Type (0, 1), BuildingBlock: EZIPEK_clean_linker_0, # of connection points: 2
# Relax obj value: 0.216
# Max RMSD: 0.224
# Mean RMSD: 0.165
data_MOF--net-anh--node1-BETFEN_clean_sbu_0--node2-MIDCAF_clean_linker_0--edge1-EZIPEK_clean_linker_0
_symmetry_space_group_name_H-M    P1
_symmetry_Int_Tables_number       1
_symmetry_cell_setting            triclinic
loop_
_symmetry_equiv_pos_as_xyz
'x, y, z'
_cell_length_a     27.750547
_cell_length_b     28.950952
_cell_length_c     52.627707
_cell_angle_alpha  90.528947
_cell_angle_beta   91.643107
_cell_angle_gamma 102.36099
loop_
_atom_site_label
_atom_site_type_symbol
_atom_site_fract_x
_atom_site_fract_y
_atom_site_fract_z
_atom_type_partial_charge
Pr0 Pr 0.0658 0.55306 0.14416 0.0
Pr1 Pr 0.08631 0.65754 0.14303 0.0
C2 C 1.03308 0.45979 0.1524 0.0
C3 C 0.98767 0.42575 0.15854 0.0
C4 C 0.98227 0.37817 0.15124 0.0
C5 C 0.94037 0.34479 0.15779 0.0
C6 C 0.90361 0.35854 0.17202 0.0
C7 C 0.90845 0.40637 0.17879 0.0
C8 C 0.95001 0.43985 0.17188 0.0
C9 C 0.0831 0.58858 0.09529 0.0
C10 C 0.97123 0.60648 0.13879 0.0
C11 C 0.11905 0.75163 0.13743 0.0
C12 C 0.16504 0.78563 0.14414 0.0
C13 C 0.17533 0.83021 0.13286 0.0
C14 C 0.21889 0.86287 0.1395 0.0
C15 C 0.25239 0.85124 0.15757 0.0
C16 C 0.2424 0.80633 0.16853 0.0
C17 C 0.19906 0.77364 0.16179 0.0
C18 C 0.06753 0.62145 0.19155 0.0
C19 C 0.18209 0.60303 0.14458 0.0
O20 O 0.053 0.49023 0.17023 0.0
O21 O 1.03437 0.47826 0.12985 0.0
O22 O 0.05647 0.60362 0.11113 0.0
O23 O 0.10073 0.55384 0.10434 0.0
O24 O 1.00295 0.6437 0.13082 0.0
O25 O 0.9867 0.57006 0.14841 0.0
O26 O 0.122 0.72058 0.11978 0.0
O27 O 0.09285 0.73315 0.15646 0.0
O28 O 0.09549 0.60718 0.17615 0.0
O29 O 0.0493 0.65542 0.18221 0.0
O30 O 0.15108 0.56351 0.15007 0.0
O31 O 0.16633 0.64199 0.13936 0.0
H32 H 1.01078 0.36675 0.14074 0.0
H33 H 0.93709 0.30806 0.15232 0.0
H34 H 0.88029 0.41763 0.18964 0.0
H35 H 0.95293 0.47653 0.17717 0.0
H36 H 0.14956 0.83982 0.11908 0.0
H37 H 0.2262 0.89738 0.13085 0.0
H38 H 0.26796 0.79681 0.18246 0.0
H39 H 0.19185 0.73917 0.1705 0.0
Pr40 Pr 0.60219 0.08653 0.51899 0.0
Pr41 Pr 0.48947 0.06341 0.51786 0.0
C42 C 0.69796 0.12094 0.50917 0.0
C43 C 0.73072 0.16625 0.50259 0.0
C44 C 0.77911 0.17777 0.51285 0.0
C45 C 0.81165 0.21918 0.50568 0.0
C46 C 0.79636 0.24956 0.488 0.0
C47 C 0.74761 0.23864 0.47814 0.0
C48 C 0.71496 0.19739 0.48545 0.0
C49 C 0.5599 0.0696 0.56624 0.0
C50 C 0.54294 0.17883 0.52005 0.0
C51 C 0.39449 1.02548 0.52761 0.0
C52 C 0.36171 0.97944 0.52158 0.0
C53 C 0.31465 0.96743 0.5318 0.0
C54 C 0.28339 0.92375 0.52565 0.0
C55 C 0.29902 0.89157 0.50931 0.0
C56 C 0.34639 0.90353 0.49934 0.0
C57 C 0.37746 0.94715 0.50543 0.0
C58 C 0.52829 0.077 0.46971 0.0
C59 C 0.55061 0.97138 0.51633 0.0
O60 O 0.66488 0.10144 0.49185 0.0
O61 O 0.68144 0.11703 0.53226 0.0
O62 O 0.54583 0.09412 0.549 0.0
O63 O 0.59894 1.05446 0.56001 0.0
O64 O 0.50126 0.14723 0.52375 0.0
O65 O 0.58429 0.16397 0.51602 0.0
O66 O 0.43099 1.02464 0.54377 0.0
O67 O 0.40784 1.05264 0.50819 0.0
O68 O 0.54534 1.05568 0.48755 0.0
O69 O 0.48716 0.08808 0.4759 0.0
O70 O 0.59254 1.00311 0.51398 0.0
O71 O 0.50853 0.98582 0.51913 0.0
H72 H 0.79198 0.1543 0.52611 0.0
H73 H 0.8491 0.22707 0.5135 0.0
H74 H 0.73512 0.2617 0.46452 0.0
H75 H 0.67773 0.18945 0.47735 0.0
H76 H 0.30198 0.99193 0.54434 0.0
H77 H 0.24692 0.91516 0.53347 0.0
H78 H 0.35901 0.87934 0.48658 0.0
H79 H 0.41361 0.95598 0.49732 0.0
Pr80 Pr 0.56875 0.5443 0.81751 0.0
Pr81 Pr 0.5888 0.64807 0.82546 0.0
C82 C 0.54413 0.45309 0.80285 0.0
C83 C 0.54979 0.40744 0.81248 0.0
C84 C 0.56746 0.40323 0.83748 0.0
C85 C 0.56237 0.35855 0.8483 0.0
C86 C 0.53904 0.31825 0.83419 0.0
C87 C 0.52488 0.3226 0.80864 0.0
C88 C 0.53021 0.36696 0.79786 0.0
C89 C 0.5849 0.56959 0.86895 0.0
C90 C 0.68467 0.60049 0.82501 0.0
C91 C 0.58897 0.73729 0.83967 0.0
C92 C 0.54908 0.75896 0.8487 0.0
C93 C 0.53597 0.79515 0.83439 0.0
C94 C 0.49139 0.80836 0.83831 0.0
C95 C 0.45942 0.78608 0.85684 0.0
C96 C 0.47448 0.75307 0.87288 0.0
C97 C 0.51883 0.73899 0.86859 0.0
C98 C 0.59837 0.62 0.77499 0.0
C99 C 0.47111 0.5921 0.81983 0.0
O100 O 0.58363 0.48192 0.79496 0.0
O101 O 0.51581 0.47393 0.81623 0.0
O102 O 0.55998 0.58831 0.8533 0.0
O103 O 0.60064 0.53533 0.85833 0.0
O104 O 0.66729 0.6346 0.8357 0.0
O105 O 0.6549 0.56502 0.81286 0.0
O106 O 0.60458 0.7076 0.85481 0.0
O107 O 0.58344 0.72262 0.81598 0.0
O108 O 0.56381 0.60229 0.78922 0.0
O109 O 0.62922 0.65429 0.78652 0.0
O110 O 0.48686 0.5533 0.81491 0.0
O111 O 0.50201 0.63257 0.82512 0.0
H112 H 0.58248 0.43447 0.84901 0.0
H113 H 0.57376 0.35562 0.86797 0.0
H114 H 0.50695 0.29168 0.7975 0.0
H115 H 0.51625 0.36978 0.77861 0.0
H116 H 0.55863 0.81096 0.81898 0.0
H117 H 0.48059 0.83437 0.82593 0.0
H118 H 0.45058 0.73614 0.88755 0.0
H119 H 0.52798 0.7108 0.87989 0.0
C120 C 0.43529 0.96815 0.22504 0.0
C121 C 0.42825 0.97552 0.19907 0.0
C122 C 0.46202 1.01051 0.18671 0.0
C123 C 0.50214 1.03831 0.20036 0.0
H124 H 0.6457 0.1278 0.1943 0.0
H125 H 0.71314 0.18388 0.17491 0.0
H126 H 0.75235 0.25388 0.24754 0.0
H127 H 0.68584 0.19804 0.26718 0.0
H128 H 0.64729 0.14497 0.31708 0.0
H129 H 0.64146 0.14379 0.36346 0.0
H130 H 0.51435 1.02852 0.35697 0.0
H131 H 0.5196 1.02905 0.31079 0.0
H132 H 0.47898 0.98946 0.2588 0.0
H133 H 0.40948 0.94127 0.23484 0.0
H134 H 0.4569 1.01666 0.16664 0.0
H135 H 0.52728 0.06555 0.19046 0.0
N136 N 0.58517 0.09434 0.23034 0.0
N137 N 0.62056 0.12088 0.27036 0.0
N138 N 0.54951 1.06051 0.26751 0.0
C139 C 0.62108 0.12355 0.24458 0.0
C140 C 0.58497 0.08936 0.28198 0.0
C141 C 0.54918 0.06267 0.24175 0.0
C142 C 0.66045 0.15823 0.23234 0.0
C143 C 0.66849 0.15526 0.20614 0.0
C144 C 0.70693 0.18721 0.19501 0.0
C145 C 0.73749 0.22292 0.20983 0.0
C146 C 0.72904 0.22652 0.23583 0.0
C147 C 0.69106 0.19442 0.247 0.0
C148 C 0.58368 0.08732 0.31011 0.0
C149 C 0.61828 0.11909 0.32547 0.0
C150 C 0.61513 0.1185 0.35196 0.0
C151 C 0.5774 0.08618 0.36346 0.0
C152 C 0.54368 1.0537 0.34833 0.0
C153 C 0.54674 1.05422 0.32192 0.0
C154 C 0.50877 1.03167 0.22661 0.0
C155 C 0.47507 0.99588 0.23868 0.0
C156 C 0.58376 0.41328 0.54461 0.0
C157 C 0.54916 0.38725 0.52701 0.0
C158 C 0.51878 0.41269 0.51329 0.0
C159 C 0.52187 0.46204 0.51784 0.0
H160 H 0.60066 0.67242 0.50568 0.0
H161 H 0.60203 0.75636 0.4963 0.0
H162 H 0.48428 0.75468 0.54792 0.0
H163 H 0.4821 0.67155 0.55679 0.0
H164 H 0.58435 0.6664 0.61211 0.0
H165 H 0.5942 0.67503 0.65833 0.0
H166 H 0.55855 0.52344 0.66558 0.0
H167 H 0.54945 0.51421 0.61925 0.0
H168 H 0.6133 0.47957 0.56351 0.0
H169 H 0.608 0.39554 0.55545 0.0
H170 H 0.49164 0.39408 0.4995 0.0
H171 H 0.49631 0.47947 0.50784 0.0
N172 N 0.54762 0.57552 0.53207 0.0
N173 N 0.55371 0.62163 0.5698 0.0
N174 N 0.55971 0.54266 0.57214 0.0
C175 C 0.54769 0.61858 0.54414 0.0
C176 C 0.55973 0.58442 0.5839 0.0
C177 C 0.55383 0.53692 0.54647 0.0
C178 C 0.54032 0.66389 0.53155 0.0
C179 C 0.57358 0.68921 0.51416 0.0
C180 C 0.57489 0.73784 0.50911 0.0
C181 C 0.54352 0.76307 0.52153 0.0
C182 C 0.50911 0.73709 0.53799 0.0
C183 C 0.50755 0.68886 0.54284 0.0
C184 C 0.56607 0.58956 0.61194 0.0
C185 C 0.57858 0.6348 0.62347 0.0
C186 C 0.58428 0.63988 0.64988 0.0
C187 C 0.57695 0.5999 0.6653 0.0
C188 C 0.56435 0.55469 0.65394 0.0
C189 C 0.55929 0.54953 0.62748 0.0
C190 C 0.55557 0.48762 0.53626 0.0
C191 C 0.58687 0.46201 0.54909 0.0
C192 C 0.91957 0.64454 0.85368 0.0
C193 C 0.89552 0.6093 0.83649 0.0
C194 C 0.92246 0.57837 0.82571 0.0
C195 C 0.97217 0.58122 0.83318 0.0
H196 H 0.14294 0.56081 0.82207 0.0
H197 H 0.22374 0.55241 0.80637 0.0
H198 H 0.29722 0.64435 0.86702 0.0
H199 H 0.21765 0.65204 0.88289 0.0
H200 H 0.15813 0.59896 0.93815 0.0
H201 H 0.15477 0.59536 0.98456 0.0
H202 H 1.00614 0.61771 0.98094 0.0
H203 H 1.00872 0.62123 0.93464 0.0
H204 H 0.98538 0.67316 0.8756 0.0
H205 H 0.89954 0.66872 0.86218 0.0
H206 H 0.90441 0.55081 0.81246 0.0
H207 H 0.99144 0.55539 0.82583 0.0
N208 N 0.08381 0.60808 0.85241 0.0
N209 N 0.12608 0.60853 0.89197 0.0
N210 N 0.04303 0.61254 0.89067 0.0
C211 C 0.12638 0.60739 0.86611 0.0
C212 C 0.08447 0.61067 0.90439 0.0
C213 C 0.04205 0.6113 0.8649 0.0
C214 C 0.17388 0.60683 0.85381 0.0
C215 C 0.17643 0.57986 0.83169 0.0
C216 C 0.22251 0.57498 0.82276 0.0
C217 C 0.26663 0.59789 0.83549 0.0
C218 C 0.26386 0.62648 0.85683 0.0
C219 C 0.21821 0.6307 0.86592 0.0
C220 C 0.08367 0.61024 0.93257 0.0
C221 C 0.12475 0.60329 0.94716 0.0
C222 C 0.12292 0.60113 0.97366 0.0
C223 C 0.08013 0.60602 0.98601 0.0
C224 C 0.03936 0.61365 0.97165 0.0
C225 C 0.04104 0.61565 0.94518 0.0
C226 C 0.99513 0.61471 0.85167 0.0
C227 C 0.96867 0.6471 0.86124 0.0
C228 C 0.1889 0.71345 0.44088 0.0
C229 C 0.18019 0.71834 0.46673 0.0
C230 C 0.14504 0.68359 0.47847 0.0
C231 C 0.11821 0.64477 0.46429 0.0
H232 H 1.0252 0.50701 0.46831 0.0
H233 H 0.96792 0.43985 0.48645 0.0
H234 H 0.90645 0.39722 0.41163 0.0
H235 H 0.96343 0.46365 0.39323 0.0
H236 H 1.00878 0.51685 0.34466 0.0
H237 H 1.00753 0.52955 0.29964 0.0
H238 H 0.13566 0.64333 0.30888 0.0
H239 H 0.13675 0.63068 0.35378 0.0
H240 H 0.1696 0.67277 0.40671 0.0
H241 H 0.21591 0.73996 0.43154 0.0
H242 H 0.13783 0.68699 0.49844 0.0
H243 H 0.09066 0.61893 0.47368 0.0
N244 N 0.06353 0.56498 0.43286 0.0
N245 N 0.03735 0.53389 0.39213 0.0
N246 N 0.09796 0.60359 0.39656 0.0
C247 C 1.03442 0.53083 0.41786 0.0
C248 C 0.06922 0.57007 0.38133 0.0
C249 C 0.09551 0.60154 0.42226 0.0
C250 C 0.9992 0.49084 0.42925 0.0
C251 C 0.99944 0.4835 0.45568 0.0
C252 C 0.96673 0.44517 0.46611 0.0
C253 C 0.93298 0.41371 0.45036 0.0
C254 C 0.93222 0.42116 0.42408 0.0
C255 C 0.965 0.45919 0.41363 0.0
C256 C 0.07058 0.57505 0.35328 0.0
C257 C 0.03545 0.54605 0.33716 0.0
C258 C 1.03364 0.55482 0.31107 0.0
C259 C 0.06487 0.59471 0.3004 0.0
C260 C 0.10495 0.61821 0.31621 0.0
C261 C 0.10681 0.60972 0.34227 0.0
C262 C 0.12602 0.64035 0.43813 0.0
C263 C 0.1622 0.67494 0.42673 0.0
C264 C 0.4272 0.1597 0.79308 0.0
C265 C 0.43186 0.14803 0.81871 0.0
C266 C 0.40734 0.10385 0.82722 0.0
C267 C 0.37969 0.07097 0.80998 0.0
H268 H 0.36241 0.88542 0.75103 0.0
H269 H 0.37018 0.83061 0.78497 0.0
H270 H 0.26107 0.88136 0.82755 0.0
H271 H 0.25424 0.93769 0.79384 0.0
H272 H 0.41963 0.95367 0.70477 0.0
H273 H 0.46885 0.9688 0.66656 0.0
H274 H 0.40619 0.08988 0.65038 0.0
H275 H 0.35921 0.07643 0.68948 0.0
H276 H 0.39871 0.13612 0.75594 0.0
H277 H 0.44587 0.19395 0.78633 0.0
H278 H 0.41066 0.09451 0.84698 0.0
H279 H 0.36269 1.03638 0.81692 0.0
N280 N 0.33233 1.00129 0.77335 0.0
N281 N 0.34019 0.96626 0.73378 0.0
N282 N 0.37127 1.04769 0.7407 0.0
C283 C 0.32336 0.96257 0.75789 0.0
C284 C 0.36263 1.00932 0.72486 0.0
C285 C 0.35664 1.04376 0.76512 0.0
C286 C 0.30864 0.91647 0.77015 0.0
C287 C 0.33801 0.88318 0.7669 0.0
C288 C 0.34281 0.85211 0.78644 0.0
C289 C 0.31759 0.85353 0.80909 0.0
C290 C 0.2815 0.88061 0.81037 0.0
C291 C 0.27744 0.91247 0.79103 0.0
C292 C 0.38545 1.0137 0.69983 0.0
C293 C 0.41586 0.98304 0.69281 0.0
C294 C 0.4442 0.99186 0.67114 0.0
C295 C 0.4414 1.03064 0.6557 0.0
C296 C 0.40916 1.05999 0.66211 0.0
C297 C 0.38215 1.05212 0.68427 0.0
C298 C 0.37695 0.08164 0.78392 0.0
C299 C 0.40007 0.12677 0.77579 0.0
C300 C 0.73507 0.5515 0.11124 0.0
C301 C 0.75902 0.58951 0.12683 0.0
C302 C 0.73156 0.62121 0.13628 0.0
C303 C 0.68144 0.61625 0.12907 0.0
H304 H 0.50917 0.6354 0.13958 0.0
H305 H 0.4281 0.64362 0.155 0.0
H306 H 0.35558 0.53664 0.10093 0.0
H307 H 0.43543 0.52924 0.08521 0.0
H308 H 0.48901 0.57917 0.02632 0.0
H309 H 0.49007 0.57811 0.97974 0.0
H310 H 0.64159 0.5641 0.98299 0.0
H311 H 0.64129 0.56517 0.02934 0.0
H312 H 0.66888 0.51868 0.09063 0.0
H313 H 0.75545 0.52665 0.10376 0.0
H314 H 0.74945 0.6509 0.14828 0.0
H315 H 0.66167 0.6425 0.13538 0.0
N316 N 0.56919 0.58367 0.11174 0.0
N317 N 0.52456 0.57726 0.07258 0.0
N318 N 0.60833 0.57597 0.07331 0.0
C319 C 0.52565 0.58143 0.09838 0.0
C320 C 0.56581 0.57499 0.05988 0.0
C321 C 0.61062 0.58026 0.09902 0.0
C322 C 0.47861 0.58193 0.11107 0.0
C323 C 0.47588 0.61302 0.13143 0.0
C324 C 0.42966 0.61776 0.14021 0.0
C325 C 0.38573 0.59071 0.12909 0.0
C326 C 0.38885 0.55781 0.10981 0.0
C327 C 0.43459 0.55375 0.10079 0.0
C328 C 0.5651 0.57235 0.03167 0.0
C329 C 0.52252 0.5756 0.01718 0.0
C330 C 0.52299 0.57506 0.99058 0.0
C331 C 0.56592 0.57106 0.97808 0.0
C332 C 0.60817 0.56722 0.99239 0.0
C333 C 0.60782 0.56786 0.0189 0.0
C334 C 0.65854 0.57989 0.11207 0.0
C335 C 0.68556 0.54694 0.10382 0.0
C336 C 0.25773 0.61414 0.11807 0.0
C337 C 0.23549 0.60264 0.1418 0.0
C338 C 0.31315 0.58435 0.15835 0.0
C339 C 0.33606 0.59956 0.13517 0.0
N340 N 0.33342 0.64105 0.09581 0.0
N341 N 0.24477 0.58514 0.18613 0.0
C342 C 0.30936 0.61856 0.11602 0.0
C343 C 0.26405 0.59021 0.16247 0.0
N344 N 0.22912 0.61727 0.09689 0.0
N345 N 0.33743 0.56268 0.17598 0.0
H346 H 0.20926 0.58956 0.18979 0.0
H347 H 0.26535 0.5807 0.20244 0.0
H348 H 0.37341 0.55831 0.17371 0.0
H349 H 0.32076 0.54614 0.19195 0.0
H350 H 0.24292 0.62132 0.07865 0.0
H351 H 0.1908 0.60964 0.09714 0.0
H352 H 0.3165 0.65944 0.08254 0.0
H353 H 0.37145 0.64559 0.09384 0.0
C354 C 0.87081 0.28582 0.46313 0.0
C355 C 0.83203 0.29188 0.479 0.0
C356 C 0.85791 0.37809 0.4752 0.0
C357 C 0.89907 0.37198 0.46112 0.0
N358 N 0.95027 0.3206 0.44598 0.0
N359 N 0.79352 0.34349 0.50387 0.0
C360 C 0.90716 0.32596 0.45636 0.0
C361 C 0.82696 0.33799 0.48612 0.0
N362 N 0.87184 0.24193 0.45364 0.0
N363 N 0.84732 0.42192 0.47735 0.0
H364 H 0.77035 0.31498 0.51231 0.0
H365 H 0.79166 0.3761 0.51183 0.0
H366 H 0.86912 0.45212 0.46967 0.0
H367 H 0.81485 0.4278 0.48491 0.0
H368 H 0.896 0.23614 0.43976 0.0
H369 H 0.8456 0.21164 0.45785 0.0
H370 H 0.96058 0.28815 0.44456 0.0
H371 H 0.97797 0.34915 0.44093 0.0
C372 C 0.36954 0.765 0.84442 0.0
C373 C 0.40928 0.79617 0.85732 0.0
C374 C 0.37189 0.8633 0.84847 0.0
C375 C 0.33656 0.83338 0.83214 0.0
N376 N 0.28965 0.75555 0.82221 0.0
N377 N 0.43764 0.8686 0.88066 0.0
C378 C 0.33091 0.78383 0.83312 0.0
C379 C 0.40604 0.84312 0.86278 0.0
N380 N 0.37091 0.71856 0.84114 0.0
N381 N 0.37588 0.91116 0.84847 0.0
H382 H 0.46319 0.8536 0.89084 0.0
H383 H 0.4354 0.90223 0.887 0.0
H384 H 0.35104 0.92742 0.83873 0.0
H385 H 0.40494 0.93508 0.8574 0.0
H386 H 0.34579 0.69547 0.82956 0.0
H387 H 0.39788 0.70323 0.84966 0.0
H388 H 0.28107 0.71887 0.82354 0.0
H389 H 0.26169 0.76977 0.81372 0.0
C390 C 0.89544 0.61022 0.112 0.0
C391 C 0.91718 0.60469 0.13623 0.0
C392 C 0.83485 0.5888 0.15472 0.0
C393 C 0.81378 0.59795 0.1309 0.0
N394 N 0.82556 0.62798 0.08841 0.0
N395 N 0.90889 0.59864 0.18166 0.0
C396 C 0.84464 0.612 0.11003 0.0
C397 C 0.88723 0.59674 0.15791 0.0
N398 N 0.92247 0.61114 0.09062 0.0
N399 N 0.80486 0.57108 0.17405 0.0
H400 H 0.94705 0.60603 0.18477 0.0
H401 H 0.88937 0.5976 0.19833 0.0
H402 H 0.76648 0.56539 0.17251 0.0
H403 H 0.81779 0.55863 0.19087 0.0
H404 H 0.90705 0.60989 0.07228 0.0
H405 H 0.95932 0.60833 0.09101 0.0
H406 H 0.84727 0.64324 0.0736 0.0
H407 H 0.78866 0.63034 0.08632 0.0
C408 C 0.27655 0.80228 0.50813 0.0
C409 C 0.26517 0.84616 0.50146 0.0
C410 C 0.19175 0.80473 0.47706 0.0
C411 C 0.20682 0.76138 0.48089 0.0
N412 N 0.26498 0.71837 0.49855 0.0
N413 N 0.21677 0.89096 0.47854 0.0
C414 C 0.24942 0.75989 0.49621 0.0
C415 C 0.22341 0.84764 0.4858 0.0
N416 N 0.31251 0.80121 0.52627 0.0
N417 N 0.147 0.80454 0.46543 0.0
H418 H 0.18979 0.8966 0.46545 0.0
H419 H 0.18979 0.8966 0.46545 0.0
H420 H 0.12325 0.77361 0.45873 0.0
H421 H 0.1313 0.83407 0.46443 0.0
H422 H 0.31962 0.77012 0.53379 0.0
H423 H 0.33245 0.83171 0.5355 0.0
H424 H 0.29873 0.71597 0.50697 0.0
H425 H 0.24543 0.68647 0.49058 0.0
C426 C 0.5459 0.23494 0.83749 0.0
C427 C 0.52339 0.27145 0.84584 0.0
C428 C 0.44426 0.2163 0.84915 0.0
C429 C 0.46441 0.18253 0.83587 0.0
N430 N 0.53538 0.15187 0.82553 0.0
N431 N 0.45933 0.29396 0.86959 0.0
C432 C 0.51605 0.18905 0.83325 0.0
C433 C 0.4754 0.26067 0.85557 0.0
N434 N 0.59459 0.24578 0.83166 0.0
N435 N 0.39493 0.20715 0.85364 0.0
H436 H 0.42556 0.28788 0.87844 0.0
H437 H 0.48218 0.32667 0.87419 0.0
H438 H 0.37192 0.17423 0.84965 0.0
H439 H 0.37658 0.23209 0.86072 0.0
H440 H 0.61313 0.22227 0.82324 0.0
H441 H 0.61634 0.27949 0.83535 0.0
H442 H 0.57296 0.15335 0.82395 0.0
H443 H 0.51327 0.11817 0.82237 0.0
C444 C 0.58482 0.89971 0.53234 0.0
C445 C 0.55046 0.91797 0.51662 0.0
C446 C 0.51094 0.83444 0.50441 0.0
C447 C 0.54746 0.81667 0.51861 0.0
N448 N 0.62354 0.83425 0.54344 0.0
N449 N 0.48644 0.90107 0.48378 0.0
C450 C 0.5858 0.85002 0.53157 0.0
C451 C 0.51494 0.88472 0.50171 0.0
N452 N 0.61471 0.92919 0.54946 0.0
N453 N 0.47173 0.8031 0.49353 0.0
H454 H 0.48889 0.93689 0.48054 0.0
H455 H 0.46377 0.87938 0.47039 0.0
H456 H 0.46904 0.76661 0.49352 0.0
H457 H 0.4404 0.81302 0.486 0.0
H458 H 0.63601 0.91742 0.56359 0.0
H459 H 0.61488 0.96501 0.55138 0.0
H460 H 0.65586 0.85667 0.5503 0.0
H461 H 0.62432 0.79852 0.54479 0.0
C462 C 0.76988 0.61726 0.80677 0.0
C463 C 0.73857 0.60132 0.82728 0.0
C464 C 0.80899 0.58275 0.85141 0.0
C465 C 0.84106 0.60282 0.83199 0.0
N466 N 0.8536 0.64322 0.79218 0.0
N467 N 0.72937 0.57519 0.87059 0.0
C468 C 0.82186 0.62084 0.80981 0.0
C469 C 0.75845 0.58578 0.85001 0.0
N470 N 0.74991 0.62917 0.78439 0.0
N471 N 0.82676 0.5597 0.87096 0.0
H472 H 0.69212 0.57637 0.87026 0.0
H473 H 0.74292 0.56902 0.88861 0.0
H474 H 0.86349 0.55662 0.87257 0.0
H475 H 0.8044 0.53995 0.88428 0.0
H476 H 0.76928 0.63538 0.76768 0.0
H477 H 0.71285 0.63042 0.78214 0.0
H478 H 0.84292 0.66204 0.77705 0.0
H479 H 0.89161 0.6455 0.79354 0.0
C480 C 0.34438 0.88011 0.15811 0.0
C481 C 0.29753 0.88639 0.16572 0.0
C482 C 0.33715 0.9576 0.19007 0.0
C483 C 0.38391 0.94745 0.1854 0.0
N484 N 0.43277 0.89711 0.16682 0.0
N485 N 0.24882 0.92774 0.19123 0.0
C486 C 0.38784 0.90837 0.16973 0.0
C487 C 0.29369 0.92449 0.18216 0.0
N488 N 0.34722 0.84768 0.13948 0.0
N489 N 0.33442 0.99925 0.2018 0.0
H490 H 0.21601 0.90419 0.18597 0.0
H491 H 0.24452 0.95147 0.20554 0.0
H492 H 0.36564 1.02434 0.20782 0.0
H493 H 0.30165 1.01093 0.20344 0.0
H494 H 0.38013 0.84464 0.13128 0.0
H495 H 0.31605 0.82647 0.13057 0.0
H496 H 0.43728 0.86594 0.15811 0.0
H497 H 0.46551 0.91744 0.17468 0.0
C498 C 0.57083 0.26488 0.50349 0.0
C499 C 0.54407 0.23256 0.52131 0.0
C500 C 0.51529 0.30115 0.54019 0.0
C501 C 0.54503 0.33359 0.5238 0.0
N502 N 0.60738 0.34625 0.49236 0.0
N503 N 0.50133 0.22491 0.56089 0.0
C504 C 0.57451 0.31526 0.50621 0.0
C505 C 0.51885 0.25211 0.54069 0.0
N506 N 0.59151 0.24773 0.48319 0.0
N507 N 0.48316 0.31714 0.55545 0.0
H508 H 0.50615 0.19048 0.56322 0.0
H509 H 0.4873 0.23818 0.57688 0.0
H510 H 0.48034 0.3525 0.5561 0.0
H511 H 0.45641 0.29477 0.56569 0.0
H512 H 0.60571 0.26839 0.46793 0.0
H513 H 0.59111 0.21213 0.4803 0.0
H514 H 0.63477 0.33632 0.4818 0.0
H515 H 0.6097 0.38269 0.49295 0.0
C516 C 0.39022 0.60757 0.80263 0.0
C517 C 0.41711 0.58908 0.82196 0.0
C518 C 0.34122 0.56473 0.84576 0.0
C519 C 0.31604 0.5894 0.82847 0.0
N520 N 0.31609 0.63514 0.79043 0.0
N521 N 0.41965 0.55338 0.86308 0.0
C522 C 0.34015 0.61037 0.80661 0.0
C523 C 0.39288 0.56815 0.84374 0.0
N524 N 0.41248 0.62182 0.78035 0.0
N525 N 0.31529 0.53711 0.86384 0.0
H526 H 0.45744 0.55482 0.86231 0.0
H527 H 0.4053 0.54307 0.88071 0.0
H528 H 0.27725 0.53317 0.86553 0.0
H529 H 0.3303 0.51448 0.87542 0.0
H530 H 0.39393 0.6314 0.76444 0.0
H531 H 0.44906 0.62053 0.77706 0.0
H532 H 0.33314 0.65597 0.77586 0.0
H533 H 0.27951 0.6376 0.79265 0.0
C534 C 0.8126 0.32228 0.17104 0.0
C535 C 0.86094 0.32251 0.18071 0.0
C536 C 0.82856 0.25232 0.20569 0.0
C537 C 0.7798 0.25579 0.19857 0.0
N538 N 0.72466 0.29808 0.1773 0.0
N539 N 0.91406 0.29297 0.21077 0.0
C540 C 0.77153 0.2918 0.18193 0.0
C541 C 0.86876 0.28886 0.19897 0.0
N542 N 0.80605 0.35022 0.15099 0.0
N543 N 0.83656 0.21351 0.21837 0.0
H544 H 0.94435 0.31985 0.20686 0.0
H545 H 0.92041 0.27245 0.22615 0.0
H546 H 0.80801 0.18567 0.22337 0.0
H547 H 0.87157 0.20676 0.22172 0.0
H548 H 0.77221 0.34802 0.14145 0.0
H549 H 0.83532 0.37264 0.14235 0.0
H550 H 0.71688 0.32697 0.16762 0.0
H551 H 0.69362 0.27652 0.18495 0.0
C552 C 0.10808 0.63578 0.05613 0.0
C553 C 0.07873 0.5956 0.06754 0.0
C554 C 0.05046 0.56189 0.02546 0.0
C555 C 0.07804 0.6031 0.01411 0.0
N556 N 0.12457 0.68338 0.01842 0.0
N557 N 1.01353 0.52573 0.06363 0.0
C558 C 0.10426 0.64136 0.0294 0.0
C559 C 0.04727 0.56025 0.05235 0.0
N560 N 0.14105 0.66767 0.07068 0.0
N561 N 1.02894 0.5236 0.01061 0.0
H562 H 1.00985 0.52371 0.08328 0.0
H563 H 0.98613 0.50185 0.05351 0.0
H564 H 1.03036 0.52342 0.99083 0.0
H565 H 1.01311 0.49075 0.01795 0.0
H566 H 0.16756 0.69472 0.06321 0.0
H567 H 0.14454 0.66461 0.09027 0.0
H568 H 0.1396 0.71415 0.02879 0.0
H569 H 0.12257 0.68869 -0.00113 0.0
C570 C 0.54195 0.12181 0.42897 0.0
C571 C 0.54642 0.08122 0.44321 0.0
C572 C 0.58315 1.05078 0.40636 0.0
C573 C 0.57124 0.08727 0.39134 0.0
N574 N 0.53335 0.15455 0.38735 0.0
N575 N 0.56297 1.00207 0.44302 0.0
C576 C 0.54924 0.12215 0.40238 0.0
C577 C 0.56537 1.0445 0.43142 0.0
N578 N 0.53198 0.16076 0.44084 0.0
N579 N 0.61142 1.02199 0.39663 0.0
H580 H 0.5472 0.99373 0.46047 0.0
H581 H 0.5715 0.97282 0.43396 0.0
H582 H 0.62466 1.02548 0.37822 0.0
H583 H 0.62569 0.99796 0.40758 0.0
H584 H 0.53395 0.193 0.43185 0.0
H585 H 0.52662 0.16271 0.46026 0.0
H586 H 0.51152 0.177 0.39392 0.0
H587 H 0.53847 0.15651 0.36781 0.0
C588 C 0.62409 0.59099 0.73337 0.0
C589 C 0.59348 0.61543 0.7469 0.0
C590 C 0.54855 0.62524 0.7072 0.0
C591 C 0.58269 0.60544 0.69342 0.0
N592 N 0.65893 0.57806 0.69296 0.0
N593 N 0.53207 0.66324 0.74625 0.0
C594 C 0.62225 0.5908 0.70639 0.0
C595 C 0.55726 0.63475 0.73368 0.0
N596 N 0.65338 0.56618 0.74623 0.0
N597 N 0.50685 0.63332 0.69522 0.0
H598 H 0.53754 0.67131 0.76561 0.0
H599 H 0.50897 0.68223 0.73706 0.0
H600 H 0.49874 0.62615 0.67592 0.0
H601 H 0.47812 0.64293 0.70484 0.0
H602 H 0.67267 0.54375 0.73733 0.0
H603 H 0.6544 0.56426 0.76594 0.0
H604 H 0.69126 0.57187 0.70149 0.0
H605 H 0.65932 0.57805 0.67315 0.0
C606 C 0.50428 1.01299 0.59409 0.0
C607 C 0.53364 1.05878 0.59037 0.0
C608 C 0.50794 0.08439 0.63142 0.0
C609 C 0.47293 1.04081 0.63307 0.0
N610 N 0.43052 0.96783 0.61255 0.0
N611 N 0.55956 0.14021 0.60424 0.0
C612 C 0.46906 1.00621 0.61343 0.0
C613 C 0.53408 0.09525 0.60861 0.0
N614 N 0.51042 0.97567 0.57949 0.0
N615 N 0.51809 0.11435 0.65203 0.0
H616 H 0.58149 0.149 0.5885 0.0
H617 H 0.55636 0.16923 0.61542 0.0
H618 H 0.50144 0.1068 0.66945 0.0
H619 H 0.54661 0.14434 0.65265 0.0
H620 H 0.49272 0.94081 0.58281 0.0
H621 H 0.53766 0.97895 0.56612 0.0
H622 H 0.42339 0.94413 0.59718 0.0
H623 H 0.40265 0.96248 0.62577 0.0
C624 C 0.60225 0.61095 0.91141 0.0
C625 C 0.57766 0.57114 0.89669 0.0
C626 C 0.54508 0.53094 0.93539 0.0
C627 C 0.56742 0.57182 0.94991 0.0
N628 N 0.60861 0.65408 0.9515 0.0
N629 N 0.51685 0.4977 0.8938 0.0
C630 C 0.59338 0.61291 0.93782 0.0
C631 C 0.54643 0.53239 0.90842 0.0
N632 N 0.63566 0.64601 0.90039 0.0
N633 N 0.52411 0.49019 0.94738 0.0
H634 H 0.51621 0.49773 0.87397 0.0
H635 H 0.48956 0.47131 0.90121 0.0
H636 H 0.52189 0.48785 0.96709 0.0
H637 H 0.51238 0.45777 0.93794 0.0
H638 H 0.65888 0.67331 0.91062 0.0
H639 H 0.64309 0.64567 0.88113 0.0
H640 H 0.62306 0.68647 0.94326 0.0
H641 H 0.60274 0.65679 0.9709 0.0
C642 C 1.02827 0.58119 0.22982 0.0
C643 C 0.06805 0.61347 0.21927 0.0
C644 C 0.09174 0.64728 0.26174 0.0
C645 C 0.05896 0.60851 0.27267 0.0
N646 N 0.97397 0.56926 0.26505 0.0
N647 N 0.13948 0.67717 0.2254 0.0
C648 C 1.02055 0.58319 0.25629 0.0
C649 C 0.10049 0.64639 0.23531 0.0
N650 N 0.99754 0.54865 0.21462 0.0
N651 N 0.10669 0.68851 0.27528 0.0
H652 H 0.14688 0.67788 0.20606 0.0
H653 H 0.16661 0.69896 0.23679 0.0
H654 H 0.09206 0.69354 0.29291 0.0
H655 H 0.12695 0.71939 0.26753 0.0
H656 H 0.9705 0.52168 0.22184 0.0
H657 H 1.0022 0.54641 0.19511 0.0
H658 H 0.94353 0.55448 0.25333 0.0
H659 H 0.9649 0.57956 0.28304 0.0
loop_
_geom_bond_atom_site_label_1
_geom_bond_atom_site_label_2
_geom_bond_distance
_geom_bond_site_symmetry_2
_ccdc_geom_bond_type
Pr0 C2 2.880 . S
Pr0 O20 2.562 . S
Pr0 O21 2.490 . S
Pr0 O22 2.695 1_655 S
Pr0 O23 2.512 . S
Pr0 O25 2.437 . S
Pr0 O28 2.436 . S
Pr0 O30 2.438 1_655 S
Pr1 C11 2.880 . S
Pr1 O22 2.436 . S
Pr1 O24 2.438 1_455 S
Pr1 O26 2.562 . S
Pr1 O27 2.490 . S
Pr1 O28 2.695 1_455 S
Pr1 O29 2.512 . S
Pr1 O31 2.437 . S
C2 Pr0 2.880 . S
C2 C3 1.491 . S
C2 O20 1.254 . S
C2 O21 1.225 . S
C3 C2 1.491 . S
C3 C4 1.392 . S
C3 C8 1.356 . S
C4 C3 1.392 . S
C4 C5 1.368 . S
C4 H32 0.929 . S
C5 C4 1.368 . S
C5 C6 1.386 . S
C5 H33 0.929 . S
C6 C5 1.386 . S
C6 C7 1.373 . S
C7 C6 1.373 . S
C7 C8 1.409 . S
C7 H34 0.931 . S
C8 C3 1.356 . S
C8 C7 1.409 . S
C8 H35 0.930 . S
C9 O22 1.270 . S
C9 O23 1.248 1_455 S
C10 O24 1.267 . S
C10 O25 1.278 . S
C11 Pr1 2.880 . S
C11 C12 1.491 . S
C11 O26 1.254 . S
C11 O27 1.225 . S
C12 C11 1.491 . S
C12 C13 1.392 . S
C12 C17 1.356 . S
C13 C12 1.392 . S
C13 C14 1.368 . S
C13 H36 0.929 . S
C14 C13 1.368 . S
C14 C15 1.386 . S
C14 H37 0.929 . S
C15 C14 1.386 . S
C15 C16 1.373 . S
C16 C15 1.373 . S
C16 C17 1.409 . S
C16 H38 0.931 . S
C17 C12 1.356 . S
C17 C16 1.409 . S
C17 H39 0.930 . S
C18 O28 1.270 1_455 S
C18 O29 1.248 . S
C19 O30 1.267 . S
C19 O31 1.278 . S
O20 Pr0 2.562 . S
O20 C2 1.254 . S
O21 Pr0 2.490 . S
O21 C2 1.225 . S
O22 Pr0 2.695 1_455 S
O22 Pr1 2.436 . S
O22 C9 1.270 . S
O23 Pr0 2.512 . S
O23 C9 1.248 1_655 S
O24 Pr1 2.438 1_655 S
O24 C10 1.267 . S
O25 Pr0 2.437 . S
O25 C10 1.278 . S
O26 Pr1 2.562 . S
O26 C11 1.254 . S
O27 Pr1 2.490 . S
O27 C11 1.225 . S
O28 Pr0 2.436 . S
O28 Pr1 2.695 1_655 S
O28 C18 1.270 1_655 S
O29 Pr1 2.512 . S
O29 C18 1.248 . S
O30 Pr0 2.438 1_455 S
O30 C19 1.267 . S
O31 Pr1 2.437 . S
O31 C19 1.278 . S
H32 C4 0.929 . S
H33 C5 0.929 . S
H34 C7 0.931 . S
H35 C8 0.930 . S
H36 C13 0.929 . S
H37 C14 0.929 . S
H38 C16 0.931 . S
H39 C17 0.930 . S
Pr40 C42 2.880 . S
Pr40 O60 2.562 . S
Pr40 O61 2.490 . S
Pr40 O62 2.695 1_545 S
Pr40 O63 2.512 . S
Pr40 O65 2.437 . S
Pr40 O68 2.436 . S
Pr40 O70 2.438 1_545 S
Pr41 C51 2.880 . S
Pr41 O62 2.436 . S
Pr41 O64 2.438 1_565 S
Pr41 O66 2.562 . S
Pr41 O67 2.490 . S
Pr41 O68 2.695 1_565 S
Pr41 O69 2.512 . S
Pr41 O71 2.437 . S
C42 Pr40 2.880 . S
C42 C43 1.491 . S
C42 O60 1.254 . S
C42 O61 1.225 . S
C43 C42 1.491 . S
C43 C44 1.392 . S
C43 C48 1.356 . S
C44 C43 1.392 . S
C44 C45 1.368 . S
C44 H72 0.929 . S
C45 C44 1.368 . S
C45 C46 1.386 . S
C45 H73 0.929 . S
C46 C45 1.386 . S
C46 C47 1.373 . S
C47 C46 1.373 . S
C47 C48 1.409 . S
C47 H74 0.931 . S
C48 C43 1.356 . S
C48 C47 1.409 . S
C48 H75 0.930 . S
C49 O62 1.270 1_545 S
C49 O63 1.248 . S
C50 O64 1.267 . S
C50 O65 1.278 . S
C51 Pr41 2.880 . S
C51 C52 1.491 . S
C51 O66 1.254 . S
C51 O67 1.225 . S
C52 C51 1.491 . S
C52 C53 1.392 . S
C52 C57 1.356 . S
C53 C52 1.392 . S
C53 C54 1.368 . S
C53 H76 0.929 . S
C54 C53 1.368 . S
C54 C55 1.386 . S
C54 H77 0.929 . S
C55 C54 1.386 . S
C55 C56 1.373 . S
C56 C55 1.373 . S
C56 C57 1.409 . S
C56 H78 0.931 . S
C57 C52 1.356 . S
C57 C56 1.409 . S
C57 H79 0.930 . S
C58 O68 1.270 . S
C58 O69 1.248 1_545 S
C59 O70 1.267 . S
C59 O71 1.278 . S
O60 Pr40 2.562 . S
O60 C42 1.254 . S
O61 Pr40 2.490 . S
O61 C42 1.225 . S
O62 Pr40 2.695 1_565 S
O62 Pr41 2.436 . S
O62 C49 1.270 1_565 S
O63 Pr40 2.512 . S
O63 C49 1.248 . S
O64 Pr41 2.438 1_545 S
O64 C50 1.267 . S
O65 Pr40 2.437 . S
O65 C50 1.278 . S
O66 Pr41 2.562 . S
O66 C51 1.254 . S
O67 Pr41 2.490 . S
O67 C51 1.225 . S
O68 Pr40 2.436 . S
O68 Pr41 2.695 1_545 S
O68 C58 1.270 . S
O69 Pr41 2.512 . S
O69 C58 1.248 1_565 S
O70 Pr40 2.438 1_565 S
O70 C59 1.267 . S
O71 Pr41 2.437 . S
O71 C59 1.278 . S
H72 C44 0.929 . S
H73 C45 0.929 . S
H74 C47 0.931 . S
H75 C48 0.930 . S
H76 C53 0.929 . S
H77 C54 0.929 . S
H78 C56 0.931 . S
H79 C57 0.930 . S
Pr80 C82 2.880 . S
Pr80 O100 2.562 . S
Pr80 O101 2.490 . S
Pr80 O102 2.695 . S
Pr80 O103 2.512 . S
Pr80 O105 2.437 . S
Pr80 O108 2.436 . S
Pr80 O110 2.438 . S
Pr81 C91 2.880 . S
Pr81 O102 2.436 . S
Pr81 O104 2.438 . S
Pr81 O106 2.562 . S
Pr81 O107 2.490 . S
Pr81 O108 2.695 . S
Pr81 O109 2.512 . S
Pr81 O111 2.437 . S
C82 Pr80 2.880 . S
C82 C83 1.491 . S
C82 O100 1.254 . S
C82 O101 1.225 . S
C83 C82 1.491 . S
C83 C84 1.392 . S
C83 C88 1.356 . S
C84 C83 1.392 . S
C84 C85 1.368 . S
C84 H112 0.929 . S
C85 C84 1.368 . S
C85 C86 1.386 . S
C85 H113 0.929 . S
C86 C85 1.386 . S
C86 C87 1.373 . S
C87 C86 1.373 . S
C87 C88 1.409 . S
C87 H114 0.931 . S
C88 C83 1.356 . S
C88 C87 1.409 . S
C88 H115 0.930 . S
C89 O102 1.270 . S
C89 O103 1.248 . S
C90 O104 1.267 . S
C90 O105 1.278 . S
C91 Pr81 2.880 . S
C91 C92 1.491 . S
C91 O106 1.254 . S
C91 O107 1.225 . S
C92 C91 1.491 . S
C92 C93 1.392 . S
C92 C97 1.356 . S
C93 C92 1.392 . S
C93 C94 1.368 . S
C93 H116 0.929 . S
C94 C93 1.368 . S
C94 C95 1.386 . S
C94 H117 0.929 . S
C95 C94 1.386 . S
C95 C96 1.373 . S
C96 C95 1.373 . S
C96 C97 1.409 . S
C96 H118 0.931 . S
C97 C92 1.356 . S
C97 C96 1.409 . S
C97 H119 0.930 . S
C98 O108 1.270 . S
C98 O109 1.248 . S
C99 O110 1.267 . S
C99 O111 1.278 . S
O100 Pr80 2.562 . S
O100 C82 1.254 . S
O101 Pr80 2.490 . S
O101 C82 1.225 . S
O102 Pr80 2.695 . S
O102 Pr81 2.436 . S
O102 C89 1.270 . S
O103 Pr80 2.512 . S
O103 C89 1.248 . S
O104 Pr81 2.438 . S
O104 C90 1.267 . S
O105 Pr80 2.437 . S
O105 C90 1.278 . S
O106 Pr81 2.562 . S
O106 C91 1.254 . S
O107 Pr81 2.490 . S
O107 C91 1.225 . S
O108 Pr80 2.436 . S
O108 Pr81 2.695 . S
O108 C98 1.270 . S
O109 Pr81 2.512 . S
O109 C98 1.248 . S
O110 Pr80 2.438 . S
O110 C99 1.267 . S
O111 Pr81 2.437 . S
O111 C99 1.278 . S
H112 C84 0.929 . S
H113 C85 0.929 . S
H114 C87 0.931 . S
H115 C88 0.930 . S
H116 C93 0.929 . S
H117 C94 0.929 . S
H118 C96 0.931 . S
H119 C97 0.930 . S
C120 C121 1.384 . S
C120 H133 0.947 . S
C120 C155 1.382 . S
C121 C120 1.384 . S
C121 C122 1.378 . S
C122 C121 1.378 . S
C122 C123 1.378 . S
C122 H134 0.952 . S
C123 C122 1.378 . S
C123 H135 0.950 . S
C123 C154 1.383 . S
H124 C143 0.947 . S
H125 C144 0.946 . S
H126 C146 0.953 . S
H127 C147 0.945 . S
H128 C149 0.952 . S
H129 C150 0.949 . S
H130 C152 0.950 . S
H131 C153 0.948 . S
H132 C155 0.951 . S
H133 C120 0.947 . S
H134 C122 0.952 . S
H135 C123 0.950 . S
N136 C139 1.382 . S
N136 C141 1.363 1_545 S
N137 C139 1.371 . S
N137 C140 1.372 . S
N138 C140 1.361 1_565 S
N138 C141 1.377 . S
C139 N136 1.382 . S
C139 N137 1.371 . S
C139 C142 1.480 . S
C140 N137 1.372 . S
C140 N138 1.361 1_545 S
C140 C148 1.457 . S
C141 N136 1.363 1_565 S
C141 N138 1.377 . S
C141 C154 1.479 . S
C142 C139 1.480 . S
C142 C143 1.383 . S
C142 C147 1.385 . S
C143 H124 0.947 . S
C143 C142 1.383 . S
C143 C144 1.388 . S
C144 H125 0.946 . S
C144 C143 1.388 . S
C144 C145 1.384 . S
C145 C144 1.384 . S
C145 C146 1.377 . S
C146 H126 0.953 . S
C146 C145 1.377 . S
C146 C147 1.369 . S
C147 H127 0.945 . S
C147 C142 1.385 . S
C147 C146 1.369 . S
C148 C140 1.457 . S
C148 C149 1.372 . S
C148 C153 1.364 1_545 S
C149 H128 0.952 . S
C149 C148 1.372 . S
C149 C150 1.389 . S
C150 H129 0.949 . S
C150 C149 1.389 . S
C150 C151 1.387 . S
C151 C150 1.387 . S
C151 C152 1.372 1_545 S
C152 H130 0.950 . S
C152 C151 1.372 1_565 S
C152 C153 1.379 . S
C153 H131 0.948 . S
C153 C148 1.364 1_565 S
C153 C152 1.379 . S
C154 C123 1.383 . S
C154 C141 1.479 . S
C154 C155 1.398 . S
C155 C120 1.382 . S
C155 H132 0.951 . S
C155 C154 1.398 . S
C156 C157 1.384 . S
C156 H169 0.947 . S
C156 C191 1.382 . S
C157 C156 1.384 . S
C157 C158 1.378 . S
C158 C157 1.378 . S
C158 C159 1.378 . S
C158 H170 0.952 . S
C159 C158 1.378 . S
C159 H171 0.950 . S
C159 C190 1.383 . S
H160 C179 0.947 . S
H161 C180 0.946 . S
H162 C182 0.953 . S
H163 C183 0.945 . S
H164 C185 0.952 . S
H165 C186 0.949 . S
H166 C188 0.950 . S
H167 C189 0.948 . S
H168 C191 0.951 . S
H169 C156 0.947 . S
H170 C158 0.952 . S
H171 C159 0.950 . S
N172 C175 1.382 . S
N172 C177 1.363 . S
N173 C175 1.371 . S
N173 C176 1.372 . S
N174 C176 1.361 . S
N174 C177 1.377 . S
C175 N172 1.382 . S
C175 N173 1.371 . S
C175 C178 1.480 . S
C176 N173 1.372 . S
C176 N174 1.361 . S
C176 C184 1.457 . S
C177 N172 1.363 . S
C177 N174 1.377 . S
C177 C190 1.479 . S
C178 C175 1.480 . S
C178 C179 1.383 . S
C178 C183 1.385 . S
C179 H160 0.947 . S
C179 C178 1.383 . S
C179 C180 1.388 . S
C180 H161 0.946 . S
C180 C179 1.388 . S
C180 C181 1.384 . S
C181 C180 1.384 . S
C181 C182 1.377 . S
C182 H162 0.953 . S
C182 C181 1.377 . S
C182 C183 1.369 . S
C183 H163 0.945 . S
C183 C178 1.385 . S
C183 C182 1.369 . S
C184 C176 1.457 . S
C184 C185 1.372 . S
C184 C189 1.364 . S
C185 H164 0.952 . S
C185 C184 1.372 . S
C185 C186 1.389 . S
C186 H165 0.949 . S
C186 C185 1.389 . S
C186 C187 1.387 . S
C187 C186 1.387 . S
C187 C188 1.372 . S
C188 H166 0.950 . S
C188 C187 1.372 . S
C188 C189 1.379 . S
C189 H167 0.948 . S
C189 C184 1.364 . S
C189 C188 1.379 . S
C190 C159 1.383 . S
C190 C177 1.479 . S
C190 C191 1.398 . S
C191 C156 1.382 . S
C191 H168 0.951 . S
C191 C190 1.398 . S
C192 C193 1.384 . S
C192 H205 0.947 . S
C192 C227 1.382 . S
C193 C192 1.384 . S
C193 C194 1.378 . S
C194 C193 1.378 . S
C194 C195 1.378 . S
C194 H206 0.952 . S
C195 C194 1.378 . S
C195 H207 0.950 . S
C195 C226 1.383 . S
H196 C215 0.947 . S
H197 C216 0.946 . S
H198 C218 0.953 . S
H199 C219 0.945 . S
H200 C221 0.952 . S
H201 C222 0.949 . S
H202 C224 0.950 . S
H203 C225 0.948 . S
H204 C227 0.951 . S
H205 C192 0.947 . S
H206 C194 0.952 . S
H207 C195 0.950 . S
N208 C211 1.382 . S
N208 C213 1.363 1_455 S
N209 C211 1.371 . S
N209 C212 1.372 . S
N210 C212 1.361 1_655 S
N210 C213 1.377 . S
C211 N208 1.382 . S
C211 N209 1.371 . S
C211 C214 1.480 . S
C212 N209 1.372 . S
C212 N210 1.361 1_455 S
C212 C220 1.457 . S
C213 N208 1.363 1_655 S
C213 N210 1.377 . S
C213 C226 1.479 . S
C214 C211 1.480 . S
C214 C215 1.383 . S
C214 C219 1.385 . S
C215 H196 0.947 . S
C215 C214 1.383 . S
C215 C216 1.388 . S
C216 H197 0.946 . S
C216 C215 1.388 . S
C216 C217 1.384 . S
C217 C216 1.384 . S
C217 C218 1.377 . S
C218 H198 0.953 . S
C218 C217 1.377 . S
C218 C219 1.369 . S
C219 H199 0.945 . S
C219 C214 1.385 . S
C219 C218 1.369 . S
C220 C212 1.457 . S
C220 C221 1.372 . S
C220 C225 1.364 1_455 S
C221 H200 0.952 . S
C221 C220 1.372 . S
C221 C222 1.389 . S
C222 H201 0.949 . S
C222 C221 1.389 . S
C222 C223 1.395 . S
C223 C222 1.395 . S
C223 C224 1.380 1_455 S
C224 H202 0.950 . S
C224 C223 1.380 1_655 S
C224 C225 1.379 . S
C225 H203 0.948 . S
C225 C220 1.364 1_655 S
C225 C224 1.379 . S
C226 C195 1.383 . S
C226 C213 1.479 . S
C226 C227 1.398 . S
C227 C192 1.382 . S
C227 H204 0.951 . S
C227 C226 1.398 . S
C228 C229 1.384 . S
C228 H241 0.947 . S
C228 C263 1.382 . S
C229 C228 1.384 . S
C229 C230 1.378 . S
C230 C229 1.378 . S
C230 C231 1.378 . S
C230 H242 0.952 . S
C231 C230 1.378 . S
C231 H243 0.950 . S
C231 C262 1.383 . S
H232 C251 0.947 . S
H233 C252 0.946 . S
H234 C254 0.953 . S
H235 C255 0.945 . S
H236 C257 0.952 . S
H237 C258 0.949 . S
H238 C260 0.950 . S
H239 C261 0.948 . S
H240 C263 0.951 . S
H241 C228 0.947 . S
H242 C230 0.952 . S
H243 C231 0.950 . S
N244 C247 1.382 1_455 S
N244 C249 1.363 . S
N245 C247 1.371 . S
N245 C248 1.372 1_655 S
N246 C248 1.361 . S
N246 C249 1.377 . S
C247 N244 1.382 1_655 S
C247 N245 1.371 . S
C247 C250 1.480 . S
C248 N245 1.372 1_455 S
C248 N246 1.361 . S
C248 C256 1.457 . S
C249 N244 1.363 . S
C249 N246 1.377 . S
C249 C262 1.479 . S
C250 C247 1.480 . S
C250 C251 1.383 . S
C250 C255 1.385 . S
C251 H232 0.947 . S
C251 C250 1.383 . S
C251 C252 1.388 . S
C252 H233 0.946 . S
C252 C251 1.388 . S
C252 C253 1.384 . S
C253 C252 1.384 . S
C253 C254 1.377 . S
C254 H234 0.953 . S
C254 C253 1.377 . S
C254 C255 1.369 . S
C255 H235 0.945 . S
C255 C250 1.385 . S
C255 C254 1.369 . S
C256 C248 1.457 . S
C256 C257 1.372 1_455 S
C256 C261 1.364 . S
C257 H236 0.952 . S
C257 C256 1.372 1_655 S
C257 C258 1.389 . S
C258 H237 0.949 . S
C258 C257 1.389 . S
C258 C259 1.387 . S
C259 C258 1.387 . S
C259 C260 1.372 1_655 S
C260 H238 0.950 . S
C260 C259 1.372 1_455 S
C260 C261 1.379 . S
C261 H239 0.948 . S
C261 C256 1.364 . S
C261 C260 1.379 . S
C262 C231 1.383 . S
C262 C249 1.479 . S
C262 C263 1.398 . S
C263 C228 1.382 . S
C263 H240 0.951 . S
C263 C262 1.398 . S
C264 C265 1.384 . S
C264 H277 0.947 . S
C264 C299 1.382 . S
C265 C264 1.384 . S
C265 C266 1.378 . S
C266 C265 1.378 . S
C266 C267 1.378 . S
C266 H278 0.952 . S
C267 C266 1.378 . S
C267 H279 0.950 . S
C267 C298 1.383 . S
H268 C287 0.947 . S
H269 C288 0.946 . S
H270 C290 0.953 . S
H271 C291 0.945 . S
H272 C293 0.952 . S
H273 C294 0.949 . S
H274 C296 0.950 . S
H275 C297 0.948 . S
H276 C299 0.951 . S
H277 C264 0.947 . S
H278 C266 0.952 . S
H279 C267 0.950 . S
N280 C283 1.382 1_545 S
N280 C285 1.363 . S
N281 C283 1.371 . S
N281 C284 1.372 1_565 S
N282 C284 1.361 . S
N282 C285 1.377 . S
C283 N280 1.382 1_565 S
C283 N281 1.371 . S
C283 C286 1.480 . S
C284 N281 1.372 1_545 S
C284 N282 1.361 . S
C284 C292 1.457 . S
C285 N280 1.363 . S
C285 N282 1.377 . S
C285 C298 1.479 . S
C286 C283 1.480 . S
C286 C287 1.383 . S
C286 C291 1.385 . S
C287 H268 0.947 . S
C287 C286 1.383 . S
C287 C288 1.388 . S
C288 H269 0.946 . S
C288 C287 1.388 . S
C288 C289 1.384 . S
C289 C288 1.384 . S
C289 C290 1.377 . S
C290 H270 0.953 . S
C290 C289 1.377 . S
C290 C291 1.369 . S
C291 H271 0.945 . S
C291 C286 1.385 . S
C291 C290 1.369 . S
C292 C284 1.457 . S
C292 C293 1.372 1_545 S
C292 C297 1.364 . S
C293 H272 0.952 . S
C293 C292 1.372 1_565 S
C293 C294 1.389 . S
C294 H273 0.949 . S
C294 C293 1.389 . S
C294 C295 1.387 1_565 S
C295 C294 1.387 1_545 S
C295 C296 1.372 . S
C296 H274 0.950 . S
C296 C295 1.372 . S
C296 C297 1.379 . S
C297 H275 0.948 . S
C297 C292 1.364 . S
C297 C296 1.379 . S
C298 C267 1.383 . S
C298 C285 1.479 . S
C298 C299 1.398 . S
C299 C264 1.382 . S
C299 H276 0.951 . S
C299 C298 1.398 . S
C300 C301 1.384 . S
C300 H313 0.947 . S
C300 C335 1.382 . S
C301 C300 1.384 . S
C301 C302 1.378 . S
C302 C301 1.378 . S
C302 C303 1.378 . S
C302 H314 0.952 . S
C303 C302 1.378 . S
C303 H315 0.950 . S
C303 C334 1.383 . S
H304 C323 0.947 . S
H305 C324 0.946 . S
H306 C326 0.953 . S
H307 C327 0.945 . S
H308 C329 0.952 . S
H309 C330 0.949 . S
H310 C332 0.950 . S
H311 C333 0.948 . S
H312 C335 0.951 . S
H313 C300 0.947 . S
H314 C302 0.952 . S
H315 C303 0.950 . S
N316 C319 1.382 . S
N316 C321 1.363 . S
N317 C319 1.371 . S
N317 C320 1.372 . S
N318 C320 1.361 . S
N318 C321 1.377 . S
C319 N316 1.382 . S
C319 N317 1.371 . S
C319 C322 1.480 . S
C320 N317 1.372 . S
C320 N318 1.361 . S
C320 C328 1.457 . S
C321 N316 1.363 . S
C321 N318 1.377 . S
C321 C334 1.479 . S
C322 C319 1.480 . S
C322 C323 1.383 . S
C322 C327 1.385 . S
C323 H304 0.947 . S
C323 C322 1.383 . S
C323 C324 1.388 . S
C324 H305 0.946 . S
C324 C323 1.388 . S
C324 C325 1.384 . S
C325 C324 1.384 . S
C325 C326 1.377 . S
C326 H306 0.953 . S
C326 C325 1.377 . S
C326 C327 1.369 . S
C327 H307 0.945 . S
C327 C322 1.385 . S
C327 C326 1.369 . S
C328 C320 1.457 . S
C328 C329 1.372 . S
C328 C333 1.364 . S
C329 H308 0.952 . S
C329 C328 1.372 . S
C329 C330 1.389 . S
C330 H309 0.949 . S
C330 C329 1.389 . S
C330 C331 1.387 . S
C331 C330 1.387 . S
C331 C332 1.372 . S
C332 H310 0.950 . S
C332 C331 1.372 . S
C332 C333 1.379 . S
C333 H311 0.948 . S
C333 C328 1.364 . S
C333 C332 1.379 . S
C334 C303 1.383 . S
C334 C321 1.479 . S
C334 C335 1.398 . S
C335 C300 1.382 . S
C335 H312 0.951 . S
C335 C334 1.398 . S
C336 C337 1.363 . S
C336 C342 1.379 . S
C336 N344 1.356 . S
C337 C336 1.363 . S
C337 C343 1.363 . S
C338 C339 1.363 . S
C338 C343 1.379 . S
C338 N345 1.356 . S
C339 C338 1.363 . S
C339 C342 1.363 . S
N340 C342 1.356 . S
N340 H352 0.984 . S
N340 H353 0.985 . S
N341 C343 1.356 . S
N341 H346 0.984 . S
N341 H347 0.985 . S
C342 C336 1.379 . S
C342 C339 1.363 . S
C342 N340 1.356 . S
C343 C337 1.363 . S
C343 C338 1.379 . S
C343 N341 1.356 . S
N344 C336 1.356 . S
N344 H350 0.984 . S
N344 H351 0.984 . S
N345 C338 1.356 . S
N345 H348 0.984 . S
N345 H349 0.985 . S
H346 N341 0.984 . S
H347 N341 0.985 . S
H348 N345 0.984 . S
H349 N345 0.985 . S
H350 N344 0.984 . S
H351 N344 0.984 . S
H352 N340 0.984 . S
H353 N340 0.985 . S
C354 C355 1.363 . S
C354 C360 1.379 . S
C354 N362 1.356 . S
C355 C354 1.363 . S
C355 C361 1.363 . S
C356 C357 1.363 . S
C356 C361 1.379 . S
C356 N363 1.356 . S
C357 C356 1.363 . S
C357 C360 1.363 . S
N358 C360 1.356 . S
N358 H370 0.984 . S
N358 H371 0.985 . S
N359 C361 1.356 . S
N359 H364 0.984 . S
N359 H365 0.985 . S
C360 C354 1.379 . S
C360 C357 1.363 . S
C360 N358 1.356 . S
C361 C355 1.363 . S
C361 C356 1.379 . S
C361 N359 1.356 . S
N362 C354 1.356 . S
N362 H368 0.984 . S
N362 H369 0.984 . S
N363 C356 1.356 . S
N363 H366 0.984 . S
N363 H367 0.985 . S
H364 N359 0.984 . S
H365 N359 0.985 . S
H366 N363 0.984 . S
H367 N363 0.985 . S
H368 N362 0.984 . S
H369 N362 0.984 . S
H370 N358 0.984 . S
H371 N358 0.985 . S
C372 C373 1.363 . S
C372 C378 1.379 . S
C372 N380 1.356 . S
C373 C372 1.363 . S
C373 C379 1.363 . S
C374 C375 1.363 . S
C374 C379 1.379 . S
C374 N381 1.356 . S
C375 C374 1.363 . S
C375 C378 1.363 . S
N376 C378 1.356 . S
N376 H388 0.984 . S
N376 H389 0.985 . S
N377 C379 1.356 . S
N377 H382 0.984 . S
N377 H383 0.985 . S
C378 C372 1.379 . S
C378 C375 1.363 . S
C378 N376 1.356 . S
C379 C373 1.363 . S
C379 C374 1.379 . S
C379 N377 1.356 . S
N380 C372 1.356 . S
N380 H386 0.984 . S
N380 H387 0.984 . S
N381 C374 1.356 . S
N381 H384 0.984 . S
N381 H385 0.985 . S
H382 N377 0.984 . S
H383 N377 0.985 . S
H384 N381 0.984 . S
H385 N381 0.985 . S
H386 N380 0.984 . S
H387 N380 0.984 . S
H388 N376 0.984 . S
H389 N376 0.985 . S
C390 C391 1.363 . S
C390 C396 1.379 . S
C390 N398 1.356 . S
C391 C390 1.363 . S
C391 C397 1.363 . S
C392 C393 1.363 . S
C392 C397 1.379 . S
C392 N399 1.356 . S
C393 C392 1.363 . S
C393 C396 1.363 . S
N394 C396 1.356 . S
N394 H406 0.984 . S
N394 H407 0.985 . S
N395 C397 1.356 . S
N395 H400 0.984 . S
N395 H401 0.985 . S
C396 C390 1.379 . S
C396 C393 1.363 . S
C396 N394 1.356 . S
C397 C391 1.363 . S
C397 C392 1.379 . S
C397 N395 1.356 . S
N398 C390 1.356 . S
N398 H404 0.984 . S
N398 H405 0.984 . S
N399 C392 1.356 . S
N399 H402 0.984 . S
N399 H403 0.985 . S
H400 N395 0.984 . S
H401 N395 0.985 . S
H402 N399 0.984 . S
H403 N399 0.985 . S
H404 N398 0.984 . S
H405 N398 0.984 . S
H406 N394 0.984 . S
H407 N394 0.985 . S
C408 C409 1.363 . S
C408 C414 1.379 . S
C408 N416 1.356 . S
C409 C408 1.363 . S
C409 C415 1.363 . S
C410 C411 1.363 . S
C410 C415 1.379 . S
C410 N417 1.356 . S
C411 C410 1.363 . S
C411 C414 1.363 . S
N412 C414 1.356 . S
N412 H424 0.984 . S
N412 H425 0.985 . S
N413 C415 1.356 . S
N413 H418 0.984 . S
N413 H419 0.985 . S
C414 C408 1.379 . S
C414 C411 1.363 . S
C414 N412 1.356 . S
C415 C409 1.363 . S
C415 C410 1.379 . S
C415 N413 1.356 . S
N416 C408 1.356 . S
N416 H422 0.984 . S
N416 H423 0.984 . S
N417 C410 1.356 . S
N417 H420 0.984 . S
N417 H421 0.985 . S
H418 N413 0.984 . S
H419 N413 0.985 . S
H420 N417 0.984 . S
H421 N417 0.985 . S
H422 N416 0.984 . S
H423 N416 0.984 . S
H424 N412 0.984 . S
H425 N412 0.985 . S
C426 C427 1.363 . S
C426 C432 1.379 . S
C426 N434 1.356 . S
C427 C426 1.363 . S
C427 C433 1.363 . S
C428 C429 1.363 . S
C428 C433 1.379 . S
C428 N435 1.356 . S
C429 C428 1.363 . S
C429 C432 1.363 . S
N430 C432 1.356 . S
N430 H442 0.984 . S
N430 H443 0.985 . S
N431 C433 1.356 . S
N431 H436 0.984 . S
N431 H437 0.985 . S
C432 C426 1.379 . S
C432 C429 1.363 . S
C432 N430 1.356 . S
C433 C427 1.363 . S
C433 C428 1.379 . S
C433 N431 1.356 . S
N434 C426 1.356 . S
N434 H440 0.984 . S
N434 H441 0.984 . S
N435 C428 1.356 . S
N435 H438 0.984 . S
N435 H439 0.985 . S
H436 N431 0.984 . S
H437 N431 0.985 . S
H438 N435 0.984 . S
H439 N435 0.985 . S
H440 N434 0.984 . S
H441 N434 0.984 . S
H442 N430 0.984 . S
H443 N430 0.985 . S
C444 C445 1.363 . S
C444 C450 1.379 . S
C444 N452 1.356 . S
C445 C444 1.363 . S
C445 C451 1.363 . S
C446 C447 1.363 . S
C446 C451 1.379 . S
C446 N453 1.356 . S
C447 C446 1.363 . S
C447 C450 1.363 . S
N448 C450 1.356 . S
N448 H460 0.984 . S
N448 H461 0.985 . S
N449 C451 1.356 . S
N449 H454 0.984 . S
N449 H455 0.985 . S
C450 C444 1.379 . S
C450 C447 1.363 . S
C450 N448 1.356 . S
C451 C445 1.363 . S
C451 C446 1.379 . S
C451 N449 1.356 . S
N452 C444 1.356 . S
N452 H458 0.984 . S
N452 H459 0.984 . S
N453 C446 1.356 . S
N453 H456 0.984 . S
N453 H457 0.985 . S
H454 N449 0.984 . S
H455 N449 0.985 . S
H456 N453 0.984 . S
H457 N453 0.985 . S
H458 N452 0.984 . S
H459 N452 0.984 . S
H460 N448 0.984 . S
H461 N448 0.985 . S
C462 C463 1.363 . S
C462 C468 1.379 . S
C462 N470 1.356 . S
C463 C462 1.363 . S
C463 C469 1.363 . S
C464 C465 1.363 . S
C464 C469 1.379 . S
C464 N471 1.356 . S
C465 C464 1.363 . S
C465 C468 1.363 . S
N466 C468 1.356 . S
N466 H478 0.984 . S
N466 H479 0.985 . S
N467 C469 1.356 . S
N467 H472 0.984 . S
N467 H473 0.985 . S
C468 C462 1.379 . S
C468 C465 1.363 . S
C468 N466 1.356 . S
C469 C463 1.363 . S
C469 C464 1.379 . S
C469 N467 1.356 . S
N470 C462 1.356 . S
N470 H476 0.984 . S
N470 H477 0.984 . S
N471 C464 1.356 . S
N471 H474 0.984 . S
N471 H475 0.985 . S
H472 N467 0.984 . S
H473 N467 0.985 . S
H474 N471 0.984 . S
H475 N471 0.985 . S
H476 N470 0.984 . S
H477 N470 0.984 . S
H478 N466 0.984 . S
H479 N466 0.985 . S
C480 C481 1.363 . S
C480 C486 1.379 . S
C480 N488 1.356 . S
C481 C480 1.363 . S
C481 C487 1.363 . S
C482 C483 1.363 . S
C482 C487 1.379 . S
C482 N489 1.356 . S
C483 C482 1.363 . S
C483 C486 1.363 . S
N484 C486 1.356 . S
N484 H496 0.984 . S
N484 H497 0.985 . S
N485 C487 1.356 . S
N485 H490 0.984 . S
N485 H491 0.985 . S
C486 C480 1.379 . S
C486 C483 1.363 . S
C486 N484 1.356 . S
C487 C481 1.363 . S
C487 C482 1.379 . S
C487 N485 1.356 . S
N488 C480 1.356 . S
N488 H494 0.984 . S
N488 H495 0.984 . S
N489 C482 1.356 . S
N489 H492 0.984 . S
N489 H493 0.985 . S
H490 N485 0.984 . S
H491 N485 0.985 . S
H492 N489 0.984 . S
H493 N489 0.985 . S
H494 N488 0.984 . S
H495 N488 0.984 . S
H496 N484 0.984 . S
H497 N484 0.985 . S
C498 C499 1.363 . S
C498 C504 1.379 . S
C498 N506 1.356 . S
C499 C498 1.363 . S
C499 C505 1.363 . S
C500 C501 1.363 . S
C500 C505 1.379 . S
C500 N507 1.356 . S
C501 C500 1.363 . S
C501 C504 1.363 . S
N502 C504 1.356 . S
N502 H514 0.984 . S
N502 H515 0.985 . S
N503 C505 1.356 . S
N503 H508 0.984 . S
N503 H509 0.985 . S
C504 C498 1.379 . S
C504 C501 1.363 . S
C504 N502 1.356 . S
C505 C499 1.363 . S
C505 C500 1.379 . S
C505 N503 1.356 . S
N506 C498 1.356 . S
N506 H512 0.984 . S
N506 H513 0.984 . S
N507 C500 1.356 . S
N507 H510 0.984 . S
N507 H511 0.985 . S
H508 N503 0.984 . S
H509 N503 0.985 . S
H510 N507 0.984 . S
H511 N507 0.985 . S
H512 N506 0.984 . S
H513 N506 0.984 . S
H514 N502 0.984 . S
H515 N502 0.985 . S
C516 C517 1.363 . S
C516 C522 1.379 . S
C516 N524 1.356 . S
C517 C516 1.363 . S
C517 C523 1.363 . S
C518 C519 1.363 . S
C518 C523 1.379 . S
C518 N525 1.356 . S
C519 C518 1.363 . S
C519 C522 1.363 . S
N520 C522 1.356 . S
N520 H532 0.984 . S
N520 H533 0.985 . S
N521 C523 1.356 . S
N521 H526 0.984 . S
N521 H527 0.985 . S
C522 C516 1.379 . S
C522 C519 1.363 . S
C522 N520 1.356 . S
C523 C517 1.363 . S
C523 C518 1.379 . S
C523 N521 1.356 . S
N524 C516 1.356 . S
N524 H530 0.984 . S
N524 H531 0.984 . S
N525 C518 1.356 . S
N525 H528 0.984 . S
N525 H529 0.985 . S
H526 N521 0.984 . S
H527 N521 0.985 . S
H528 N525 0.984 . S
H529 N525 0.985 . S
H530 N524 0.984 . S
H531 N524 0.984 . S
H532 N520 0.984 . S
H533 N520 0.985 . S
C534 C535 1.363 . S
C534 C540 1.379 . S
C534 N542 1.356 . S
C535 C534 1.363 . S
C535 C541 1.363 . S
C536 C537 1.363 . S
C536 C541 1.379 . S
C536 N543 1.356 . S
C537 C536 1.363 . S
C537 C540 1.363 . S
N538 C540 1.356 . S
N538 H550 0.984 . S
N538 H551 0.985 . S
N539 C541 1.356 . S
N539 H544 0.984 . S
N539 H545 0.985 . S
C540 C534 1.379 . S
C540 C537 1.363 . S
C540 N538 1.356 . S
C541 C535 1.363 . S
C541 C536 1.379 . S
C541 N539 1.356 . S
N542 C534 1.356 . S
N542 H548 0.984 . S
N542 H549 0.984 . S
N543 C536 1.356 . S
N543 H546 0.984 . S
N543 H547 0.985 . S
H544 N539 0.984 . S
H545 N539 0.985 . S
H546 N543 0.984 . S
H547 N543 0.985 . S
H548 N542 0.984 . S
H549 N542 0.984 . S
H550 N538 0.984 . S
H551 N538 0.985 . S
C552 C553 1.363 . S
C552 C558 1.379 . S
C552 N560 1.356 . S
C553 C552 1.363 . S
C553 C559 1.363 1_455 S
C554 C555 1.363 1_655 S
C554 C559 1.379 . S
C554 N561 1.356 . S
C555 C554 1.363 1_455 S
C555 C558 1.363 . S
N556 C558 1.356 . S
N556 H568 0.984 . S
N556 H569 0.985 . S
N557 C559 1.356 . S
N557 H562 0.984 . S
N557 H563 0.985 . S
C558 C552 1.379 . S
C558 C555 1.363 . S
C558 N556 1.356 . S
C559 C553 1.363 1_655 S
C559 C554 1.379 . S
C559 N557 1.356 . S
N560 C552 1.356 . S
N560 H566 0.984 . S
N560 H567 0.984 . S
N561 C554 1.356 . S
N561 H564 0.984 1_554 S
N561 H565 0.985 . S
H562 N557 0.984 . S
H563 N557 0.985 . S
H564 N561 0.984 1_556 S
H565 N561 0.985 . S
H566 N560 0.984 . S
H567 N560 0.984 . S
H568 N556 0.984 . S
H569 N556 0.985 . S
C570 C571 1.363 . S
C570 C576 1.379 . S
C570 N578 1.356 . S
C571 C570 1.363 . S
C571 C577 1.363 1_545 S
C572 C573 1.363 1_565 S
C572 C577 1.379 . S
C572 N579 1.356 . S
C573 C572 1.363 1_545 S
C573 C576 1.363 . S
N574 C576 1.356 . S
N574 H586 0.984 . S
N574 H587 0.985 . S
N575 C577 1.356 . S
N575 H580 0.984 . S
N575 H581 0.985 . S
C576 C570 1.379 . S
C576 C573 1.363 . S
C576 N574 1.356 . S
C577 C571 1.363 1_565 S
C577 C572 1.379 . S
C577 N575 1.356 . S
N578 C570 1.356 . S
N578 H584 0.984 . S
N578 H585 0.984 . S
N579 C572 1.356 . S
N579 H582 0.984 . S
N579 H583 0.985 . S
H580 N575 0.984 . S
H581 N575 0.985 . S
H582 N579 0.984 . S
H583 N579 0.985 . S
H584 N578 0.984 . S
H585 N578 0.984 . S
H586 N574 0.984 . S
H587 N574 0.985 . S
C588 C589 1.363 . S
C588 C594 1.379 . S
C588 N596 1.356 . S
C589 C588 1.363 . S
C589 C595 1.363 . S
C590 C591 1.363 . S
C590 C595 1.379 . S
C590 N597 1.356 . S
C591 C590 1.363 . S
C591 C594 1.363 . S
N592 C594 1.356 . S
N592 H604 0.984 . S
N592 H605 0.985 . S
N593 C595 1.356 . S
N593 H598 0.984 . S
N593 H599 0.985 . S
C594 C588 1.379 . S
C594 C591 1.363 . S
C594 N592 1.356 . S
C595 C589 1.363 . S
C595 C590 1.379 . S
C595 N593 1.356 . S
N596 C588 1.356 . S
N596 H602 0.984 . S
N596 H603 0.984 . S
N597 C590 1.356 . S
N597 H600 0.984 . S
N597 H601 0.985 . S
H598 N593 0.984 . S
H599 N593 0.985 . S
H600 N597 0.984 . S
H601 N597 0.985 . S
H602 N596 0.984 . S
H603 N596 0.984 . S
H604 N592 0.984 . S
H605 N592 0.985 . S
C606 C607 1.363 1_565 S
C606 C612 1.379 . S
C606 N614 1.356 . S
C607 C606 1.363 1_545 S
C607 C613 1.363 . S
C608 C609 1.363 . S
C608 C613 1.379 . S
C608 N615 1.356 . S
C609 C608 1.363 . S
C609 C612 1.363 1_545 S
N610 C612 1.356 . S
N610 H622 0.984 . S
N610 H623 0.985 . S
N611 C613 1.356 . S
N611 H616 0.984 . S
N611 H617 0.985 . S
C612 C606 1.379 . S
C612 C609 1.363 1_565 S
C612 N610 1.356 . S
C613 C607 1.363 . S
C613 C608 1.379 . S
C613 N611 1.356 . S
N614 C606 1.356 . S
N614 H620 0.984 . S
N614 H621 0.984 . S
N615 C608 1.356 . S
N615 H618 0.984 . S
N615 H619 0.985 . S
H616 N611 0.984 . S
H617 N611 0.985 . S
H618 N615 0.984 . S
H619 N615 0.985 . S
H620 N614 0.984 . S
H621 N614 0.984 . S
H622 N610 0.984 . S
H623 N610 0.985 . S
C624 C625 1.363 . S
C624 C630 1.379 . S
C624 N632 1.356 . S
C625 C624 1.363 . S
C625 C631 1.363 . S
C626 C627 1.363 . S
C626 C631 1.379 . S
C626 N633 1.356 . S
C627 C626 1.363 . S
C627 C630 1.363 . S
N628 C630 1.356 . S
N628 H640 0.984 . S
N628 H641 0.969 1_556 S
N629 C631 1.356 . S
N629 H634 0.984 . S
N629 H635 0.985 . S
C630 C624 1.379 . S
C630 C627 1.363 . S
C630 N628 1.356 . S
C631 C625 1.363 . S
C631 C626 1.379 . S
C631 N629 1.356 . S
N632 C624 1.356 . S
N632 H638 0.984 . S
N632 H639 0.984 . S
N633 C626 1.356 . S
N633 H636 0.984 . S
N633 H637 0.985 . S
H634 N629 0.984 . S
H635 N629 0.985 . S
H636 N633 0.984 . S
H637 N633 0.985 . S
H638 N632 0.984 . S
H639 N632 0.984 . S
H640 N628 0.984 . S
H641 N628 0.969 1_554 S
C642 C643 1.363 1_655 S
C642 C648 1.379 . S
C642 N650 1.356 . S
C643 C642 1.363 1_455 S
C643 C649 1.363 . S
C644 C645 1.363 1_455 S
C644 C649 1.379 . S
C644 N651 1.356 . S
C645 C644 1.363 1_655 S
C645 C648 1.363 . S
N646 C648 1.356 . S
N646 H658 0.984 . S
N646 H659 0.985 . S
N647 C649 1.356 . S
N647 H652 0.984 . S
N647 H653 0.985 . S
C648 C642 1.379 . S
C648 C645 1.363 . S
C648 N646 1.356 . S
C649 C643 1.363 . S
C649 C644 1.379 . S
C649 N647 1.356 . S
N650 C642 1.356 . S
N650 H656 0.984 . S
N650 H657 0.984 . S
N651 C644 1.356 . S
N651 H654 0.984 . S
N651 H655 0.985 . S
H652 N647 0.984 . S
H653 N647 0.985 . S
H654 N651 0.984 . S
H655 N651 0.985 . S
H656 N650 0.984 . S
H657 N650 0.984 . S
H658 N646 0.984 . S
H659 N646 0.985 . S
C337 C19 2.021 . S
C339 C325 1.928 . S
C355 C46 1.357 . S
C357 C253 1.376 . S
C373 C95 0.665 . S
C375 C289 0.586 . S
C391 C10 2.147 . S
C393 C301 2.059 . S
C411 C229 1.389 . S
C409 C55 1.359 . S
C429 C265 0.927 . S
C427 C86 0.894 . S
C445 C59 3.180 . S
C447 C181 3.081 . S
C463 C90 2.176 . S
C465 C193 2.105 . S
C481 C15 1.351 . S
C483 C121 1.393 . S
C501 C157 3.071 . S
C499 C50 3.118 . S
C519 C217 1.949 . S
C517 C99 2.019 . S
C535 C6 1.291 . S
C537 C145 1.321 . S
C555 C223 1.343 1_554 S
C553 C9 1.322 . S
C571 C58 1.449 . S
C573 C151 1.501 . S
C589 C98 1.720 . S
C591 C187 1.791 . S
C609 C295 1.059 . S
C607 C49 1.069 . S
C627 C331 1.346 1_556 S
C625 C89 1.314 . S
C643 C18 1.439 . S
C645 C259 1.475 . S
