# Generated by pormake.
# Topology pto, (3,4)-cn, num edge types: 1
# Building blocks:
#     Node 0, Type 0, BuildingBlock: BETDAH_clean_linker_0, # of connection points: 3
#     Node 1, Type 0, BuildingBlock: BETDAH_clean_linker_0, # of connection points: 3
#     Node 2, Type 0, BuildingBlock: BETDAH_clean_linker_0, # of connection points: 3
#     Node 3, Type 0, BuildingBlock: BETDAH_clean_linker_0, # of connection points: 3
#     Node 4, Type 0, BuildingBlock: BETDAH_clean_linker_0, # of connection points: 3
#     Node 5, Type 0, BuildingBlock: BETDAH_clean_linker_0, # of connection points: 3
#     Node 6, Type 0, BuildingBlock: BETDAH_clean_linker_0, # of connection points: 3
#     Node 7, Type 0, BuildingBlock: BETDAH_clean_linker_0, # of connection points: 3
#     Node 8, Type 1, BuildingBlock: KOZSID_clean_sbu_0, # of connection points: 4
#     Node 9, Type 1, BuildingBlock: KOZSID_clean_sbu_0, # of connection points: 4
#     Node 10, Type 1, BuildingBlock: KOZSID_clean_sbu_0, # of connection points: 4
#     Node 11, Type 1, BuildingBlock: KOZSID_clean_sbu_0, # of connection points: 4
#     Node 12, Type 1, BuildingBlock: KOZSID_clean_sbu_0, # of connection points: 4
#     Node 13, Type 1, BuildingBlock: KOZSID_clean_sbu_0, # of connection points: 4
#     Edge 14, Type (0, 1), BuildingBlock: KIFKEQ_clean_linker_1, # of connection points: 2
#     Edge 15, Type (0, 1), BuildingBlock: KIFKEQ_clean_linker_1, # of connection points: 2
#     Edge 16, Type (0, 1), BuildingBlock: KIFKEQ_clean_linker_1, # of connection points: 2
#     Edge 17, Type (0, 1), BuildingBlock: KIFKEQ_clean_linker_1, # of connection points: 2
#     Edge 18, Type (0, 1), BuildingBlock: KIFKEQ_clean_linker_1, # of connection points: 2
#     Edge 19, Type (0, 1), BuildingBlock: KIFKEQ_clean_linker_1, # of connection points: 2
#     Edge 20, Type (0, 1), BuildingBlock: KIFKEQ_clean_linker_1, # of connection points: 2
#     Edge 21, Type (0, 1), BuildingBlock: KIFKEQ_clean_linker_1, # of connection points: 2
#     Edge 22, Type (0, 1), BuildingBlock: KIFKEQ_clean_linker_1, # of connection points: 2
#     Edge 23, Type (0, 1), BuildingBlock: KIFKEQ_clean_linker_1, # of connection points: 2
#     Edge 24, Type (0, 1), BuildingBlock: KIFKEQ_clean_linker_1, # of connection points: 2
#     Edge 25, Type (0, 1), BuildingBlock: KIFKEQ_clean_linker_1, # of connection points: 2
#     Edge 26, Type (0, 1), BuildingBlock: KIFKEQ_clean_linker_1, # of connection points: 2
#     Edge 27, Type (0, 1), BuildingBlock: KIFKEQ_clean_linker_1, # of connection points: 2
#     Edge 28, Type (0, 1), BuildingBlock: KIFKEQ_clean_linker_1, # of connection points: 2
#     Edge 29, Type (0, 1), BuildingBlock: KIFKEQ_clean_linker_1, # of connection points: 2
#     Edge 30, Type (0, 1), BuildingBlock: KIFKEQ_clean_linker_1, # of connection points: 2
#     Edge 31, Type (0, 1), BuildingBlock: KIFKEQ_clean_linker_1, # of connection points: 2
#     Edge 32, Type (0, 1), BuildingBlock: KIFKEQ_clean_linker_1, # of connection points: 2
#     Edge 33, Type (0, 1), BuildingBlock: KIFKEQ_clean_linker_1, # of connection points: 2
#     Edge 34, Type (0, 1), BuildingBlock: KIFKEQ_clean_linker_1, # of connection points: 2
#     Edge 35, Type (0, 1), BuildingBlock: KIFKEQ_clean_linker_1, # of connection points: 2
#     Edge 36, Type (0, 1), BuildingBlock: KIFKEQ_clean_linker_1, # of connection points: 2
#     Edge 37, Type (0, 1), BuildingBlock: KIFKEQ_clean_linker_1, # of connection points: 2
# Relax obj value: 0.010
# Max RMSD: 0.120
# Mean RMSD: 0.061
data_MOF--net-pto--node1-KOZSID_clean_sbu_0--node2-BETDAH_clean_linker_0--edge1-KIFKEQ_clean_linker_1
_symmetry_space_group_name_H-M    P1
_symmetry_Int_Tables_number       1
_symmetry_cell_setting            triclinic
loop_
_symmetry_equiv_pos_as_xyz
'x, y, z'
_cell_length_a     39.151005
_cell_length_b     50.936166
_cell_length_c     45.701624
_cell_angle_alpha  102.54876
_cell_angle_beta   93.732762
_cell_angle_gamma 103.61608
loop_
_atom_site_label
_atom_site_type_symbol
_atom_site_fract_x
_atom_site_fract_y
_atom_site_fract_z
_atom_type_partial_charge
H0 H 0.33862 0.21756 0.39529 0.0
H1 H 0.30086 0.29072 0.39587 0.0
H2 H 0.28802 0.25122 0.46982 0.0
C3 C 0.32507 0.23276 0.40571 0.0
C4 C 0.31304 0.23134 0.43371 0.0
C5 C 0.32096 0.25407 0.39168 0.0
C6 C 0.30446 0.27426 0.40633 0.0
C7 C 0.29297 0.27328 0.43473 0.0
C8 C 0.29752 0.25198 0.44818 0.0
N9 N 0.27731 0.2935 0.45096 0.0
C10 C 0.26237 0.31148 0.43869 0.0
H11 H 0.28679 0.73864 0.80316 0.0
H12 H 0.3204 0.80882 0.76408 0.0
H13 H 0.22157 0.74801 0.72888 0.0
C14 C 0.28224 0.75026 0.78667 0.0
C15 C 0.25124 0.74044 0.76621 0.0
C16 C 0.30758 0.77471 0.7859 0.0
C17 C 0.30106 0.78994 0.76478 0.0
C18 C 0.26991 0.78014 0.74407 0.0
C19 C 0.24551 0.75537 0.7448 0.0
N20 N 0.26198 0.79419 0.72191 0.0
C21 C 0.28175 0.81969 0.71873 0.0
H22 H 0.87079 0.75401 0.41043 0.0
H23 H 0.79661 0.76908 0.34608 0.0
H24 H 0.83593 0.69647 0.32367 0.0
C25 C 0.85468 0.74763 0.38867 0.0
C26 C 0.85631 0.72314 0.36808 0.0
C27 C 0.83314 0.76439 0.38104 0.0
C28 C 0.8135 0.75655 0.35215 0.0
C29 C 0.81494 0.73213 0.33145 0.0
C30 C 0.83591 0.71558 0.33969 0.0
N31 N 0.79555 0.72312 0.30216 0.0
C32 C 0.77483 0.7375 0.28952 0.0
H33 H 0.80714 0.26256 0.83578 0.0
H34 H 0.7628 0.22516 0.90554 0.0
H35 H 0.81833 0.31162 0.9267 0.0
C36 C 0.80126 0.26437 0.85887 0.0
C37 C 0.81397 0.2901 0.87981 0.0
C38 C 0.783 0.24065 0.8678 0.0
C39 C 0.77669 0.24318 0.89819 0.0
C40 C 0.78958 0.26888 0.91936 0.0
C41 C 0.80849 0.29197 0.91013 0.0
N42 N 0.78598 0.27191 0.95047 0.0
C43 C 0.75558 0.2597 0.96158 0.0
H44 H 0.79874 0.72939 0.84646 0.0
H45 H 0.82096 0.72539 0.75484 0.0
H46 H 0.76047 0.78067 0.7953 0.0
C47 C 0.79676 0.73645 0.82584 0.0
C48 C 0.7775 0.75625 0.82387 0.0
C49 C 0.81291 0.72534 0.80117 0.0
C50 C 0.80947 0.73422 0.77438 0.0
C51 C 0.79129 0.75442 0.77231 0.0
C52 C 0.77524 0.76546 0.79707 0.0
N53 N 0.7885 0.76221 0.74448 0.0
C54 C 0.7866 0.78849 0.74182 0.0
H55 H 0.80395 0.29488 0.40544 0.0
H56 H 0.83608 0.28645 0.49405 0.0
H57 H 0.73354 0.24016 0.44772 0.0
C58 C 0.79879 0.28506 0.42407 0.0
C59 C 0.76583 0.26635 0.42316 0.0
C60 C 0.82433 0.29259 0.44949 0.0
C61 C 0.81709 0.28034 0.47391 0.0
C62 C 0.78476 0.26086 0.47283 0.0
C63 C 0.75918 0.25402 0.44758 0.0
N64 N 0.77587 0.25125 0.49882 0.0
C65 C 0.78478 0.228 0.50491 0.0
H66 H 0.32275 0.23806 0.85344 0.0
H67 H 0.27635 0.29748 0.90732 0.0
H68 H 0.24915 0.27342 0.81093 0.0
C69 C 0.30591 0.25232 0.85508 0.0
C70 C 0.28702 0.25426 0.82873 0.0
C71 C 0.3022 0.26765 0.8836 0.0
C72 C 0.27925 0.28515 0.88554 0.0
C73 C 0.26022 0.28748 0.85966 0.0
C74 C 0.26394 0.27189 0.83109 0.0
N75 N 0.23745 0.30555 0.8638 0.0
C76 C 0.21965 0.31341 0.84123 0.0
H77 H 0.28746 0.75728 0.36989 0.0
H78 H 0.33714 0.79142 0.30019 0.0
H79 H 0.27571 0.70637 0.27981 0.0
C80 C 0.2938 0.75467 0.34687 0.0
C81 C 0.27963 0.72897 0.32622 0.0
C82 C 0.31454 0.77741 0.3378 0.0
C83 C 0.32128 0.77407 0.30747 0.0
C84 C 0.3071 0.74832 0.28657 0.0
C85 C 0.2863 0.72612 0.29608 0.0
N86 N 0.31232 0.74382 0.25563 0.0
C87 C 0.3372 0.76111 0.24325 0.0
C88 C 0.12271 0.56911 0.4236 0.0
C89 C 0.14341 0.59002 0.44711 0.0
C90 C 0.13144 0.58486 0.47319 0.0
C91 C 0.10413 0.56131 0.46417 0.0
N92 N 0.09822 0.55081 0.43392 0.0
Co93 Co 0.05927 0.51814 0.41111 0.0
N94 N 0.04151 0.51066 0.44954 0.0
C95 C 0.05496 0.52515 0.47805 0.0
C96 C 0.03913 0.51381 0.49989 0.0
C97 C 0.01454 0.4903 0.48446 0.0
C98 C 0.01665 0.4888 0.45395 0.0
N99 N 0.01976 0.48601 0.38828 0.0
C100 C 0.99613 0.46713 0.39855 0.0
C101 C 0.97295 0.448 0.37508 0.0
C102 C 0.98293 0.45459 0.34897 0.0
C103 C 0.01134 0.47737 0.35796 0.0
N104 N 0.07774 0.52481 0.3727 0.0
C105 C 0.06494 0.50969 0.34426 0.0
C106 C 0.08339 0.5191 0.3225 0.0
C107 C 0.10934 0.54174 0.33791 0.0
C108 C 0.105 0.54494 0.36829 0.0
N109 N 0.09021 0.49264 0.41298 0.0
C110 C 0.13203 0.45501 0.41628 0.0
C111 C 0.11047 0.45257 0.38975 0.0
C112 C 0.08989 0.47138 0.38863 0.0
C113 C 0.13274 0.47691 0.44098 0.0
C114 C 0.11191 0.49541 0.43882 0.0
N115 N 0.02837 0.54389 0.40915 0.0
C116 C 0.99602 0.5662 0.37947 0.0
C117 C 0.99134 0.58456 0.40543 0.0
C118 C 0.00402 0.5815 0.43341 0.0
C119 C 0.02252 0.56128 0.43474 0.0
C120 C 0.01397 0.54597 0.38184 0.0
H121 H 0.03237 0.56055 0.45672 0.0
H122 H 0.0163 0.53259 0.36113 0.0
H123 H 0.07354 0.46807 0.36793 0.0
H124 H 0.11354 0.51164 0.45842 0.0
C125 C 0.0836 0.54858 0.48354 0.0
C126 C 0.12624 0.56824 0.39186 0.0
C127 C 0.99595 0.46553 0.43002 0.0
C128 C 0.03358 0.4885 0.33857 0.0
H129 H 0.16457 0.60749 0.44559 0.0
H130 H 0.14115 0.59707 0.49598 0.0
H131 H 0.04551 0.52125 0.52415 0.0
H132 H 0.99767 0.47559 0.49459 0.0
H133 H 0.95179 0.43052 0.37664 0.0
H134 H 0.9719 0.44327 0.32612 0.0
H135 H 0.07791 0.51102 0.29826 0.0
H136 H 0.12871 0.55486 0.32789 0.0
H137 H 0.1087 0.43574 0.37013 0.0
H138 H 0.14937 0.47985 0.46193 0.0
H139 H 0.9859 0.56748 0.35732 0.0
H140 H 1.00074 0.59525 0.45413 0.0
C141 C 0.08189 0.56008 0.81463 0.0
C142 C 0.10624 0.57725 0.83859 0.0
C143 C 0.09544 0.56992 0.86413 0.0
C144 C 0.06546 0.54861 0.85433 0.0
N145 N 0.05671 0.54162 0.82401 0.0
Co146 Co 0.0158 0.51129 0.80014 0.0
N147 N 0.99782 0.50257 0.83794 0.0
C148 C 0.011 0.5163 0.86675 0.0
C149 C 0.99284 0.50556 0.88793 0.0
C150 C 0.96678 0.48341 0.8717 0.0
C151 C 0.97078 0.48183 0.84145 0.0
N152 N 0.97552 0.4802 0.7763 0.0
C153 C 0.95157 0.46084 0.78574 0.0
C154 C 0.92978 0.44144 0.76161 0.0
C155 C 0.94055 0.44863 0.73599 0.0
C156 C 0.9683 0.47179 0.74587 0.0
N157 N 0.03315 0.52079 0.76237 0.0
C158 C 0.01828 0.50842 0.73362 0.0
C159 C 0.03435 0.52078 0.71254 0.0
C160 C 0.06075 0.54266 0.72878 0.0
C161 C 0.05943 0.54224 0.75898 0.0
N162 N 0.04521 0.48422 0.79884 0.0
C163 C 0.08197 0.44269 0.79781 0.0
C164 C 0.06736 0.44681 0.77101 0.0
C165 C 0.04911 0.46749 0.77203 0.0
C166 C 0.07895 0.46031 0.825 0.0
C167 C 0.06088 0.48085 0.82499 0.0
N168 N 0.98628 0.53827 0.80144 0.0
C169 C 0.94346 0.55639 0.77689 0.0
C170 C 0.94626 0.57782 0.80259 0.0
C171 C 0.96911 0.57886 0.82784 0.0
C172 C 0.98867 0.55908 0.82679 0.0
C173 C 0.96348 0.53702 0.77682 0.0
H174 H 0.00585 0.56128 0.84669 0.0
H175 H 0.96021 0.52133 0.75648 0.0
H176 H 0.0379 0.46919 0.75088 0.0
H177 H 0.05955 0.4935 0.84651 0.0
C178 C 0.04294 0.53689 0.87318 0.0
C179 C 0.08254 0.56332 0.78371 0.0
C180 C 0.94983 0.4592 0.81708 0.0
C181 C 0.98864 0.48568 0.72721 0.0
H182 H 0.12886 0.59394 0.83778 0.0
H183 H 0.10726 0.57968 0.88718 0.0
H184 H 0.9988 0.51227 0.91226 0.0
H185 H 0.94772 0.46939 0.88104 0.0
H186 H 0.90881 0.42356 0.76236 0.0
H187 H 0.92999 0.43785 0.71288 0.0
H188 H 0.02717 0.51497 0.6883 0.0
H189 H 0.0784 0.55754 0.7194 0.0
H190 H 0.0691 0.43364 0.74938 0.0
H191 H 0.09052 0.45827 0.84633 0.0
H192 H 0.92573 0.55443 0.75688 0.0
H193 H 0.97255 0.59524 0.8482 0.0
C194 C 0.35787 1.0005 0.62241 0.0
C195 C 0.39043 1.00014 0.63605 0.0
C196 C 0.41549 0.0186 0.62615 0.0
C197 C 0.39691 0.02903 0.60703 0.0
N198 N 0.3614 0.01867 0.60437 0.0
Co199 Co 0.32466 0.02692 0.57751 0.0
N200 N 0.36168 0.05371 0.56254 0.0
C201 C 0.39706 0.06077 0.5709 0.0
C202 C 0.41558 0.08085 0.55817 0.0
C203 C 0.39052 0.08738 0.54096 0.0
C204 C 0.35802 0.07067 0.54408 0.0
N205 N 0.28799 0.03455 0.55009 0.0
C206 C 0.29148 0.05279 0.53219 0.0
C207 C 0.25923 0.05145 0.51662 0.0
C208 C 0.23433 0.03205 0.52545 0.0
C209 C 0.25274 0.02258 0.54569 0.0
N210 N 0.28754 1.00081 0.59316 0.0
C211 C 0.25203 0.99471 0.58583 0.0
C212 C 0.23331 0.97623 0.60039 0.0
C213 C 0.25832 0.96995 0.61792 0.0
C214 C 0.291 0.98492 0.61287 0.0
N215 N 0.32016 0.05826 0.61024 0.0
C216 C 0.31383 0.10419 0.65491 0.0
C217 C 0.284 0.08569 0.63688 0.0
C218 C 0.28772 0.06308 0.61493 0.0
C219 C 0.34689 0.0991 0.65037 0.0
C220 C 0.34943 0.0762 0.62815 0.0
N221 N 0.32907 0.99559 0.54458 0.0
C222 C 0.30221 0.95211 0.5082 0.0
C223 C 0.33494 0.95042 0.49874 0.0
C224 C 0.36471 0.97186 0.51228 0.0
C225 C 0.36126 0.99397 0.53517 0.0
C226 C 0.29985 0.97473 0.53075 0.0
H227 H 0.38506 0.00933 0.54505 0.0
H228 H 0.27404 0.97474 0.53664 0.0
H229 H 0.26393 0.04986 0.60197 0.0
H230 H 0.37537 0.07357 0.6257 0.0
C231 C 0.412 0.04855 0.59126 0.0
C232 C 0.32451 0.98244 0.62639 0.0
C233 C 0.32436 0.07255 0.5302 0.0
C234 C 0.23731 0.00478 0.56324 0.0
H235 H 0.39558 0.98756 0.65127 0.0
H236 H 0.44391 0.02357 0.63191 0.0
H237 H 0.44386 0.09006 0.5615 0.0
H238 H 0.3956 0.10306 0.52806 0.0
H239 H 0.25415 0.06374 0.50105 0.0
H240 H 0.20603 0.02627 0.51875 0.0
H241 H 0.20491 0.96771 0.59788 0.0
H242 H 0.25316 0.95552 0.63232 0.0
H243 H 0.25771 0.08839 0.63985 0.0
H244 H 0.37089 0.11294 0.66357 0.0
H245 H 0.27834 0.93609 0.49805 0.0
H246 H 0.39068 0.97127 0.50574 0.0
C247 C 0.52575 0.82659 0.0892 0.0
C248 C 0.52637 0.85281 0.10636 0.0
C249 C 0.55328 0.87118 0.09824 0.0
C250 C 0.56765 0.85518 0.07686 0.0
N251 N 0.55114 0.82774 0.07033 0.0
Co252 Co 0.56588 0.79684 0.04302 0.0
N253 N 0.60719 0.82361 0.0329 0.0
C254 C 0.616 0.85166 0.04254 0.0
C255 C 0.6448 0.86465 0.03082 0.0
C256 C 0.65465 0.84368 0.01212 0.0
C257 C 0.63111 0.81902 0.01348 0.0
N258 N 0.58151 0.76574 0.01694 0.0
C259 C 0.60865 0.76653 0.99988 0.0
C260 C 0.60976 0.73995 0.98493 0.0
C261 C 0.58241 0.72179 0.99277 0.0
C262 C 0.56611 0.73816 0.01192 0.0
N263 N 0.52368 0.77016 0.052 0.0
C264 C 0.51262 0.74245 0.03982 0.0
C265 C 0.4825 0.72969 0.0501 0.0
C266 C 0.47407 0.75042 0.07037 0.0
C267 C 0.49983 0.77468 0.07144 0.0
N268 N 0.53658 0.80048 0.00754 0.0
C269 C 0.49637 0.80518 0.95629 0.0
C270 C 0.50059 0.77943 0.95932 0.0
C271 C 0.52033 0.77754 0.98491 0.0
C272 C 0.51227 0.8286 0.97948 0.0
C273 C 0.53241 0.82585 0.00461 0.0
N274 N 0.59501 0.79316 0.07841 0.0
C275 C 0.60834 0.76523 0.11199 0.0
C276 C 0.63348 0.788 0.13029 0.0
C277 C 0.63957 0.81334 0.1219 0.0
C278 C 0.62003 0.81549 0.09614 0.0
C279 C 0.58978 0.76817 0.08631 0.0
H280 H 0.62537 0.83547 0.09118 0.0
H281 H 0.57118 0.74992 0.07328 0.0
H282 H 0.52197 0.75719 0.98574 0.0
H283 H 0.54445 0.84455 0.02126 0.0
C284 C 0.59714 0.86514 0.06307 0.0
C285 C 0.50176 0.80107 0.09259 0.0
C286 C 0.63231 0.79186 0.99554 0.0
C287 C 0.53375 0.72856 0.0222 0.0
H288 H 0.50967 0.85811 0.12348 0.0
H289 H 0.56192 0.89346 0.1074 0.0
H290 H 0.65707 0.88674 0.03524 0.0
H291 H 0.67654 0.84626 0.9988 0.0
H292 H 0.62763 0.73417 0.9691 0.0
H293 H 0.57437 0.69941 0.98439 0.0
H294 H 0.46923 0.70772 0.04461 0.0
H295 H 0.45213 0.74783 0.08364 0.0
H296 H 0.48818 0.76062 0.94215 0.0
H297 H 0.50968 0.84901 0.97803 0.0
H298 H 0.60321 0.74502 0.11727 0.0
H299 H 0.65881 0.83157 0.13545 0.0
C300 C 0.82581 0.97625 0.65991 0.0
C301 C 0.85709 0.97646 0.67626 0.0
C302 C 0.88311 0.99657 0.66968 0.0
C303 C 0.8663 0.00759 0.64996 0.0
N304 N 0.83103 0.99586 0.64365 0.0
Co305 Co 0.79636 0.0062 0.61679 0.0
N306 N 0.83499 0.03494 0.60607 0.0
C307 C 0.87014 0.04064 0.61494 0.0
C308 C 0.89008 0.06173 0.60435 0.0
C309 C 0.86625 0.07024 0.58796 0.0
C310 C 0.83302 0.05377 0.58952 0.0
N311 N 0.7616 0.01711 0.59057 0.0
C312 C 0.76655 0.03812 0.57619 0.0
C313 C 0.73502 0.03927 0.5614 0.0
C314 C 0.70908 0.01855 0.56706 0.0
C315 C 0.72619 0.00599 0.58487 0.0
N316 N 0.75782 0.97702 0.62694 0.0
C317 C 0.723 0.97002 0.6163 0.0
C318 C 0.70315 0.94839 0.6261 0.0
C319 C 0.72668 0.94089 0.64388 0.0
C320 C 0.75968 0.95861 0.64407 0.0
N321 N 0.78945 0.03444 0.65185 0.0
C322 C 0.77975 0.07442 0.70193 0.0
C323 C 0.75081 0.05477 0.68381 0.0
C324 C 0.7562 0.03522 0.65907 0.0
C325 C 0.81362 0.0737 0.69437 0.0
C326 C 0.81782 0.05372 0.66956 0.0
N327 N 0.80327 0.97772 0.58178 0.0
C328 C 0.77902 0.93926 0.53835 0.0
C329 C 0.81232 0.93422 0.53518 0.0
C330 C 0.84118 0.95197 0.55513 0.0
C331 C 0.83613 0.97342 0.57794 0.0
C332 C 0.77515 0.96094 0.56153 0.0
H333 H 0.85922 0.986 0.59241 0.0
H334 H 0.749 0.96334 0.56286 0.0
H335 H 0.73305 0.02094 0.64611 0.0
H336 H 0.84431 0.05438 0.66508 0.0
C337 C 0.88318 0.02782 0.6357 0.0
C338 C 0.79212 0.9565 0.65999 0.0
C339 C 0.80027 0.05791 0.57652 0.0
C340 C 0.70969 0.98418 0.59716 0.0
H341 H 0.86079 0.96319 0.69111 0.0
H342 H 0.91105 0.00215 0.67788 0.0
H343 H 0.91842 0.07058 0.60897 0.0
H344 H 0.87255 0.0872 0.57685 0.0
H345 H 0.73116 0.05385 0.54824 0.0
H346 H 0.68102 0.01355 0.55952 0.0
H347 H 0.67497 0.93899 0.6207 0.0
H348 H 0.72024 0.92403 0.65509 0.0
H349 H 0.72402 0.05421 0.68879 0.0
H350 H 0.83695 0.08878 0.70722 0.0
H351 H 0.75574 0.92605 0.52357 0.0
H352 H 0.86768 0.94933 0.55325 0.0
C353 C 0.47492 0.28119 0.20448 0.0
C354 C 0.47525 0.30776 0.2206 0.0
C355 C 0.50085 0.32588 0.21084 0.0
C356 C 0.51493 0.30949 0.18966 0.0
N357 N 0.49959 0.28192 0.18492 0.0
Co358 Co 0.5144 0.25067 0.1582 0.0
N359 N 0.55368 0.2774 0.14548 0.0
C360 C 0.56186 0.30552 0.15397 0.0
C361 C 0.58919 0.31831 0.14053 0.0
C362 C 0.59882 0.29712 0.12201 0.0
C363 C 0.57672 0.27254 0.1253 0.0
N364 N 0.52977 0.2194 0.13217 0.0
C365 C 0.5557 0.22006 0.11386 0.0
C366 C 0.55758 0.1935 0.09972 0.0
C367 C 0.53163 0.17536 0.10916 0.0
C368 C 0.51554 0.1918 0.1285 0.0
N369 N 0.4746 0.22398 0.17026 0.0
C370 C 0.46492 0.19596 0.16011 0.0
C371 C 0.43598 0.18325 0.17185 0.0
C372 C 0.42684 0.20436 0.19094 0.0
C373 C 0.4511 0.22882 0.18997 0.0
N374 N 0.48231 0.25203 0.12337 0.0
C375 C 0.43977 0.25417 0.0722 0.0
C376 C 0.44256 0.22873 0.07748 0.0
C377 C 0.46363 0.22814 0.10306 0.0
C378 C 0.45804 0.27849 0.09325 0.0
C379 C 0.479 0.27696 0.11842 0.0
N380 N 0.54648 0.24931 0.19303 0.0
C381 C 0.56677 0.2238 0.22658 0.0
C382 C 0.58947 0.24824 0.24446 0.0
C383 C 0.59086 0.27307 0.23575 0.0
C384 C 0.56948 0.27311 0.21016 0.0
C385 C 0.54558 0.22481 0.20119 0.0
H386 H 0.57189 0.29272 0.20485 0.0
H387 H 0.52841 0.20556 0.18873 0.0
H388 H 0.46458 0.20809 0.10572 0.0
H389 H 0.4926 0.29628 0.13329 0.0
C390 C 0.54335 0.31931 0.17458 0.0
C391 C 0.45177 0.25587 0.20938 0.0
C392 C 0.57813 0.24518 0.10819 0.0
C393 C 0.48517 0.18205 0.14141 0.0
H394 H 0.45928 0.31359 0.2381 0.0
H395 H 0.50887 0.34831 0.21881 0.0
H396 H 0.60051 0.34041 0.1436 0.0
H397 H 0.61951 0.29948 0.10747 0.0
H398 H 0.57537 0.18786 0.08373 0.0
H399 H 0.52463 0.15287 0.10207 0.0
H400 H 0.42359 0.16119 0.16766 0.0
H401 H 0.40526 0.20195 0.2046 0.0
H402 H 0.42842 0.20929 0.062 0.0
H403 H 0.45691 0.29873 0.09 0.0
H404 H 0.56477 0.20406 0.23248 0.0
H405 H 0.6086 0.29247 0.24854 0.0
H406 H 0.19567 0.31101 0.44776 0.0
H407 H 0.28657 0.35506 0.4138 0.0
H408 H 0.16426 0.34582 0.4409 0.0
H409 H 0.25528 0.39032 0.40701 0.0
H410 H 0.17104 0.43265 0.37455 0.0
H411 H 0.20259 0.39695 0.37753 0.0
H412 H 0.17121 0.39523 0.46609 0.0
H413 H 0.1392 0.43036 0.46288 0.0
C414 C 0.20866 0.32806 0.43845 0.0
C415 C 0.24325 0.33052 0.43115 0.0
C416 C 0.19088 0.34809 0.43477 0.0
C417 C 0.20743 0.37097 0.42371 0.0
C418 C 0.2418 0.37285 0.41543 0.0
C419 C 0.25968 0.35278 0.41929 0.0
C420 C 0.17083 0.42455 0.3946 0.0
C421 C 0.15258 0.43428 0.41847 0.0
C422 C 0.18911 0.4043 0.39639 0.0
C423 C 0.18918 0.39316 0.42195 0.0
C424 C 0.17126 0.40314 0.44592 0.0
C425 C 0.15325 0.42349 0.44423 0.0
H426 H 0.22057 0.69561 0.71952 0.0
H427 H 0.22276 0.72708 0.81547 0.0
H428 H 0.17811 0.65244 0.72187 0.0
H429 H 0.18036 0.68407 0.81781 0.0
H430 H 0.07604 0.61594 0.80288 0.0
H431 H 0.11576 0.65918 0.79743 0.0
H432 H 0.17983 0.61175 0.74686 0.0
H433 H 0.1403 0.56854 0.75288 0.0
C434 C 0.21176 0.69333 0.74103 0.0
C435 C 0.22491 0.7146 0.76733 0.0
C436 C 0.18772 0.66862 0.7424 0.0
C437 C 0.17596 0.66498 0.77 0.0
C438 C 0.18877 0.68644 0.7962 0.0
C439 C 0.21318 0.71092 0.79491 0.0
C440 C 0.09852 0.61489 0.79044 0.0
C441 C 0.10518 0.58912 0.77811 0.0
C442 C 0.12124 0.63952 0.78742 0.0
C443 C 0.15084 0.63876 0.77175 0.0
C444 C 0.157 0.61287 0.75879 0.0
C445 C 0.13451 0.58824 0.76219 0.0
H446 H 0.86951 0.71049 0.42272 0.0
H447 H 0.89501 0.69519 0.33098 0.0
H448 H 0.90495 0.67972 0.43426 0.0
H449 H 0.92782 0.66298 0.34173 0.0
H450 H 0.00854 0.62265 0.37198 0.0
H451 H 0.97929 0.65863 0.36579 0.0
H452 H 0.90486 0.63245 0.42622 0.0
H453 H 0.93566 0.59735 0.43348 0.0
C454 C 0.88272 0.70067 0.40502 0.0
C455 C 0.87909 0.70527 0.37583 0.0
C456 C 0.90266 0.68265 0.41152 0.0
C457 C 0.91928 0.66862 0.38895 0.0
C458 C 0.91599 0.67361 0.35993 0.0
C459 C 0.89653 0.69182 0.35356 0.0
C460 C 0.98602 0.62475 0.38402 0.0
C461 C 0.97413 0.60712 0.40299 0.0
C462 C 0.96905 0.64527 0.38037 0.0
C463 C 0.93924 0.64834 0.39512 0.0
C464 C 0.9279 0.63102 0.41472 0.0
C465 C 0.94537 0.61078 0.41879 0.0
H466 H 0.87484 0.32842 0.90825 0.0
H467 H 0.79766 0.30754 0.82938 0.0
H468 H 0.90707 0.36908 0.89236 0.0
H469 H 0.83047 0.3478 0.81302 0.0
H470 H 0.87811 0.44035 0.81354 0.0
H471 H 0.84479 0.3991 0.82836 0.0
H472 H 0.94304 0.3797 0.85236 0.0
H473 H 0.97602 0.42106 0.83773 0.0
C474 C 0.86471 0.33257 0.88756 0.0
C475 C 0.83367 0.3148 0.8701 0.0
C476 C 0.88338 0.35568 0.87828 0.0
C477 C 0.87137 0.3616 0.85138 0.0
C478 C 0.84024 0.34391 0.83397 0.0
C479 C 0.82165 0.32072 0.84319 0.0
C480 C 0.89232 0.427 0.82174 0.0
C481 C 0.92939 0.43351 0.82439 0.0
C482 C 0.87339 0.40344 0.83015 0.0
C483 C 0.8913 0.38617 0.84158 0.0
C484 C 0.9285 0.39276 0.84399 0.0
C485 C 0.94736 0.41623 0.83548 0.0
H486 H 0.29946 0.17607 0.406 0.0
H487 H 0.3337 0.23409 0.49295 0.0
H488 H 0.30261 0.13767 0.42907 0.0
H489 H 0.33703 0.19571 0.51603 0.0
H490 H 0.29999 0.11768 0.55184 0.0
H491 H 0.29772 0.15615 0.52829 0.0
H492 H 0.34448 0.11781 0.45262 0.0
H493 H 0.34577 0.07907 0.47611 0.0
C494 C 0.30808 0.18065 0.42999 0.0
C495 C 0.31626 0.20812 0.44766 0.0
C496 C 0.30989 0.15864 0.44321 0.0
C497 C 0.31997 0.1636 0.47442 0.0
C498 C 0.32857 0.19112 0.49202 0.0
C499 C 0.32671 0.21311 0.4788 0.0
C500 C 0.30968 0.11764 0.53016 0.0
C501 C 0.32318 0.09574 0.51571 0.0
C502 C 0.30865 0.13966 0.51677 0.0
C503 C 0.32109 0.14013 0.48863 0.0
C504 C 0.33439 0.11796 0.47415 0.0
C505 C 0.33535 0.09592 0.48757 0.0
H506 H 0.35046 0.74248 0.79757 0.0
H507 H 0.33938 0.82652 0.8223 0.0
H508 H 0.39999 0.75422 0.8369 0.0
H509 H 0.39021 0.83877 0.86151 0.0
H510 H 0.44341 0.83176 0.95427 0.0
H511 H 0.4021 0.82843 0.91031 0.0
H512 H 0.45996 0.77971 0.85333 0.0
H513 H 0.50046 0.78247 0.89736 0.0
C514 C 0.35903 0.76364 0.81123 0.0
C515 C 0.3408 0.7835 0.80711 0.0
C516 C 0.38773 0.7705 0.83361 0.0
C517 C 0.39916 0.79748 0.85248 0.0
C518 C 0.38185 0.81773 0.84757 0.0
C519 C 0.35301 0.81083 0.82497 0.0
C520 C 0.4476 0.82082 0.93223 0.0
C521 C 0.47476 0.807 0.92926 0.0
C522 C 0.42403 0.81897 0.907 0.0
C523 C 0.42736 0.80344 0.87831 0.0
C524 C 0.45607 0.79127 0.87517 0.0
C525 C 0.47934 0.79289 0.90036 0.0
H526 H 0.82917 0.77099 0.44167 0.0
H527 H 0.83184 0.81542 0.37102 0.0
H528 H 0.82511 0.81239 0.47829 0.0
H529 H 0.82767 0.85688 0.40772 0.0
H530 H 0.78058 0.91491 0.47654 0.0
H531 H 0.7859 0.87421 0.43928 0.0
H532 H 0.86015 0.85886 0.50361 0.0
H533 H 0.85386 0.8989 0.54115 0.0
C534 C 0.82927 0.78968 0.43399 0.0
C535 C 0.83092 0.78985 0.40338 0.0
C536 C 0.82693 0.81344 0.45501 0.0
C537 C 0.82614 0.83801 0.44599 0.0
C538 C 0.82775 0.8382 0.41537 0.0
C539 C 0.83013 0.81442 0.39433 0.0
C540 C 0.79789 0.90276 0.48278 0.0
C541 C 0.81673 0.91018 0.51189 0.0
C542 C 0.80123 0.87959 0.46131 0.0
C543 C 0.8234 0.86321 0.46845 0.0
C544 C 0.84252 0.87081 0.49745 0.0
C545 C 0.83925 0.89399 0.51887 0.0
H546 H 0.74628 0.22211 0.99574 0.0
H547 H 0.699 0.28085 0.96433 0.0
H548 H 0.70032 0.21452 0.02921 0.0
H549 H 0.65351 0.27398 0.99808 0.0
H550 H 0.56274 0.24362 0.04898 0.0
H551 H 0.60266 0.24248 0.00981 0.0
H552 H 0.68694 0.2417 0.07542 0.0
H553 H 0.64651 0.24224 0.11411 0.0
C554 C 0.72555 0.23295 0.99567 0.0
C555 C 0.72568 0.25182 0.97748 0.0
C556 C 0.69951 0.22888 0.01499 0.0
C557 C 0.67333 0.24379 0.01652 0.0
C558 C 0.67291 0.26187 0.99725 0.0
C559 C 0.69893 0.26587 0.97794 0.0
C560 C 0.58975 0.24292 0.05471 0.0
C561 C 0.60185 0.24302 0.08427 0.0
C562 C 0.61264 0.2424 0.03245 0.0
C563 C 0.64806 0.24202 0.03944 0.0
C564 C 0.65974 0.24155 0.06909 0.0
C565 C 0.63681 0.24206 0.0913 0.0
H566 H 0.32738 0.82765 0.67802 0.0
H567 H 0.26806 0.86907 0.7406 0.0
H568 H 0.34389 0.86901 0.65771 0.0
H569 H 0.28383 0.91032 0.72014 0.0
H570 H 0.33398 0.98688 0.68708 0.0
H571 H 0.33044 0.94901 0.71299 0.0
H572 H 0.31032 0.88961 0.62643 0.0
H573 H 0.31447 0.92758 0.60094 0.0
C574 C 0.31861 0.84593 0.68783 0.0
C575 C 0.29679 0.84553 0.71089 0.0
C576 C 0.3277 0.86946 0.67606 0.0
C577 C 0.3149 0.89289 0.6871 0.0
C578 C 0.29446 0.89279 0.71132 0.0
C579 C 0.28539 0.86923 0.72304 0.0
C580 C 0.32922 0.96569 0.67382 0.0
C581 C 0.32454 0.9599 0.64219 0.0
C582 C 0.32703 0.94405 0.68853 0.0
C583 C 0.32019 0.91628 0.67179 0.0
C584 C 0.31623 0.91076 0.64004 0.0
C585 C 0.31833 0.93237 0.6254 0.0
H586 H 0.78748 0.78951 0.28016 0.0
H587 H 0.71226 0.70921 0.25806 0.0
H588 H 0.75173 0.80546 0.24486 0.0
H589 H 0.67703 0.72447 0.22231 0.0
H590 H 0.60681 0.76248 0.17355 0.0
H591 H 0.63944 0.75379 0.21616 0.0
H592 H 0.73765 0.79734 0.19106 0.0
H593 H 0.70472 0.80659 0.14884 0.0
C594 C 0.76299 0.77548 0.26798 0.0
C595 C 0.75222 0.74831 0.27176 0.0
C596 C 0.7427 0.78445 0.2476 0.0
C597 C 0.71145 0.76626 0.23063 0.0
C598 C 0.7005 0.73925 0.23529 0.0
C599 C 0.7207 0.73041 0.25566 0.0
C600 C 0.63537 0.77032 0.17728 0.0
C601 C 0.65326 0.78496 0.15769 0.0
C602 C 0.6541 0.7653 0.20166 0.0
C603 C 0.69127 0.77456 0.20691 0.0
C604 C 0.70904 0.79015 0.18795 0.0
C605 C 0.69021 0.79539 0.16367 0.0
H606 H 0.79022 0.19056 0.87655 0.0
H607 H 0.75491 0.22867 0.80858 0.0
H608 H 0.78358 0.14752 0.83817 0.0
H609 H 0.75011 0.18634 0.77004 0.0
H610 H 0.72754 0.10239 0.70654 0.0
H611 H 0.72127 0.13893 0.74849 0.0
H612 H 0.81571 0.13264 0.79802 0.0
H613 H 0.82073 0.09502 0.7569 0.0
C614 C 0.78044 0.18961 0.85352 0.0
C615 C 0.77346 0.21317 0.84559 0.0
C616 C 0.77713 0.16505 0.83141 0.0
C617 C 0.76685 0.16351 0.80085 0.0
C618 C 0.75789 0.18659 0.79329 0.0
C619 C 0.76102 0.21103 0.81538 0.0
C620 C 0.74655 0.10837 0.72662 0.0
C621 C 0.77482 0.09582 0.72815 0.0
C622 C 0.74318 0.12959 0.75059 0.0
C623 C 0.76809 0.13895 0.77666 0.0
C624 C 0.79575 0.12584 0.77852 0.0
C625 C 0.79899 0.10452 0.75465 0.0
H626 H 0.35358 0.30048 0.37258 0.0
H627 H 0.32082 0.21062 0.34413 0.0
H628 H 0.38275 0.30181 0.32692 0.0
H629 H 0.3517 0.21221 0.29969 0.0
H630 H 0.45948 0.23341 0.25726 0.0
H631 H 0.42426 0.23345 0.29969 0.0
H632 H 0.36276 0.2816 0.26328 0.0
H633 H 0.39712 0.2805 0.21998 0.0
C634 C 0.35208 0.28106 0.35651 0.0
C635 C 0.33523 0.25541 0.36239 0.0
C636 C 0.36896 0.28188 0.33049 0.0
C637 C 0.36973 0.2571 0.31017 0.0
C638 C 0.35181 0.23157 0.31532 0.0
C639 C 0.33437 0.23073 0.34091 0.0
C640 C 0.43838 0.24392 0.25836 0.0
C641 C 0.43105 0.2571 0.2356 0.0
C642 C 0.41829 0.24394 0.2825 0.0
C643 C 0.39095 0.25756 0.28461 0.0
C644 C 0.38388 0.27112 0.26212 0.0
C645 C 0.40349 0.27054 0.23753 0.0
H646 H 0.8763 0.72277 0.78067 0.0
H647 H 0.79489 0.68012 0.82573 0.0
H648 H 0.90822 0.68722 0.78158 0.0
H649 H 0.82686 0.64444 0.82661 0.0
H650 H 0.91264 0.60095 0.84842 0.0
H651 H 0.88114 0.63709 0.84921 0.0
H652 H 0.90181 0.63854 0.75779 0.0
H653 H 0.93438 0.60324 0.7574 0.0
C654 C 0.86513 0.7057 0.79063 0.0
C655 C 0.83297 0.7042 0.80299 0.0
C656 C 0.8834 0.6853 0.79112 0.0
C657 C 0.86998 0.66287 0.80398 0.0
C658 C 0.83811 0.6616 0.81682 0.0
C659 C 0.81981 0.68205 0.81633 0.0
C660 C 0.91069 0.60915 0.82858 0.0
C661 C 0.9261 0.59922 0.80286 0.0
C662 C 0.89231 0.62965 0.82893 0.0
C663 C 0.88902 0.64076 0.80359 0.0
C664 C 0.90423 0.63069 0.77783 0.0
C665 C 0.92253 0.61019 0.77746 0.0
H666 H 0.85112 0.33852 0.49581 0.0
H667 H 0.8691 0.2988 0.40671 0.0
H668 H 0.89706 0.3801 0.49482 0.0
H669 H 0.91442 0.34045 0.40541 0.0
H670 H 0.93558 0.45903 0.45712 0.0
H671 H 0.89895 0.41597 0.46578 0.0
H672 H 0.97288 0.37132 0.42716 0.0
H673 H 0.00923 0.41456 0.41845 0.0
C674 C 0.8655 0.33844 0.47633 0.0
C675 C 0.85645 0.31549 0.45127 0.0
C676 C 0.89148 0.36235 0.47561 0.0
C677 C 0.90909 0.3637 0.4499 0.0
C678 C 0.90152 0.34007 0.42562 0.0
C679 C 0.87543 0.31626 0.42628 0.0
C680 C 0.94409 0.44002 0.45097 0.0
C681 C 0.97511 0.43991 0.43732 0.0
C682 C 0.92333 0.41543 0.45602 0.0
C683 C 0.93308 0.39022 0.44725 0.0
C684 C 0.96455 0.39034 0.434 0.0
C685 C 0.98537 0.41499 0.4291 0.0
H686 H 0.2438 0.35834 0.81929 0.0
H687 H 0.14908 0.29795 0.82667 0.0
H688 H 0.20779 0.38677 0.80229 0.0
H689 H 0.1128 0.32604 0.80933 0.0
H690 H 0.07279 0.40614 0.83381 0.0
H691 H 0.10452 0.37088 0.83675 0.0
H692 H 0.16263 0.39202 0.76433 0.0
H693 H 0.13099 0.42783 0.76172 0.0
C694 C 0.21521 0.35073 0.81613 0.0
C695 C 0.19899 0.32606 0.824 0.0
C696 C 0.19458 0.36695 0.80644 0.0
C697 C 0.15744 0.35881 0.80481 0.0
C698 C 0.14135 0.33304 0.81075 0.0
C699 C 0.16201 0.31683 0.82036 0.0
C700 C 0.09225 0.40321 0.81845 0.0
C701 C 0.09968 0.41992 0.79776 0.0
C702 C 0.11013 0.38275 0.81985 0.0
C703 C 0.13603 0.37856 0.80068 0.0
C704 C 0.1429 0.39483 0.77945 0.0
C705 C 0.1247 0.4152 0.77786 0.0
H706 H 0.21771 0.69266 0.29685 0.0
H707 H 0.2912 0.71178 0.37786 0.0
H708 H 0.18125 0.65373 0.31293 0.0
H709 H 0.2541 0.67338 0.39444 0.0
H710 H 0.1983 0.5834 0.39684 0.0
H711 H 0.23589 0.62235 0.38099 0.0
H712 H 0.14247 0.64567 0.35159 0.0
H713 H 0.10523 0.6065 0.36715 0.0
C714 C 0.22613 0.6885 0.31805 0.0
C715 C 0.25738 0.70528 0.33606 0.0
C716 C 0.20503 0.66639 0.32743 0.0
C717 C 0.21473 0.66051 0.35501 0.0
C718 C 0.24606 0.67722 0.37296 0.0
C719 C 0.26712 0.69938 0.36361 0.0
C720 C 0.18607 0.59704 0.3871 0.0
C721 C 0.14914 0.59226 0.38321 0.0
C722 C 0.20744 0.61932 0.37814 0.0
C723 C 0.19215 0.63708 0.365 0.0
C724 C 0.15505 0.63218 0.36126 0.0
C725 C 0.13375 0.60995 0.37029 0.0
H726 H 0.73321 0.81379 0.73944 0.0
H727 H 0.84323 0.82194 0.72757 0.0
H728 H 0.73487 0.85608 0.72137 0.0
H729 H 0.84527 0.86419 0.70982 0.0
H730 H 0.82019 0.91285 0.64097 0.0
H731 H 0.81941 0.87343 0.66363 0.0
H732 H 0.76183 0.90756 0.73352 0.0
H733 H 0.76275 0.94705 0.71057 0.0
C734 C 0.75784 0.825 0.73344 0.0
C735 C 0.78813 0.81496 0.73484 0.0
C736 C 0.75887 0.84914 0.72318 0.0
C737 C 0.79015 0.86333 0.71394 0.0
C738 C 0.82067 0.85352 0.71634 0.0
C739 C 0.81962 0.82952 0.7267 0.0
C740 C 0.80752 0.91185 0.66123 0.0
C741 C 0.79148 0.93274 0.6741 0.0
C742 C 0.80719 0.88945 0.6743 0.0
C743 C 0.79067 0.88745 0.70046 0.0
C744 C 0.77451 0.90843 0.71327 0.0
C745 C 0.7751 0.93099 0.70027 0.0
H746 H 0.71964 0.21725 0.39159 0.0
H747 H 0.74785 0.30573 0.39803 0.0
H748 H 0.67376 0.2108 0.34958 0.0
H749 H 0.70333 0.29927 0.35583 0.0
H750 H 0.60008 0.28478 0.29945 0.0
H751 H 0.63982 0.28723 0.34376 0.0
H752 H 0.66886 0.21411 0.29633 0.0
H753 H 0.62862 0.21152 0.25192 0.0
C754 C 0.71602 0.23527 0.38406 0.0
C755 C 0.73758 0.26194 0.39793 0.0
C756 C 0.68999 0.23157 0.3599 0.0
C757 C 0.68484 0.25453 0.3494 0.0
C758 C 0.70622 0.28117 0.36357 0.0
C759 C 0.73213 0.28483 0.38753 0.0
C760 C 0.61493 0.26921 0.29848 0.0
C761 C 0.6116 0.24818 0.27207 0.0
C762 C 0.6377 0.2706 0.32387 0.0
C763 C 0.65787 0.25108 0.32345 0.0
C764 C 0.65351 0.22936 0.29745 0.0
C765 C 0.63054 0.2279 0.27201 0.0
H766 H 0.34832 0.24794 0.80679 0.0
H767 H 0.23473 0.22079 0.7845 0.0
H768 H 0.35522 0.21372 0.76269 0.0
H769 H 0.24153 0.1862 0.74035 0.0
H770 H 0.26998 0.1386 0.65153 0.0
H771 H 0.26361 0.17757 0.69081 0.0
H772 H 0.34346 0.16329 0.75087 0.0
H773 H 0.34969 0.1244 0.71185 0.0
C774 C 0.32483 0.2348 0.79223 0.0
C775 C 0.29097 0.2368 0.79924 0.0
C776 C 0.32876 0.21511 0.76706 0.0
C777 C 0.29891 0.19688 0.74831 0.0
C778 C 0.26507 0.19999 0.75429 0.0
C779 C 0.26114 0.21981 0.77952 0.0
C780 C 0.28604 0.1437 0.67318 0.0
C781 C 0.31039 0.12835 0.67851 0.0
C782 C 0.28242 0.16607 0.69566 0.0
C783 C 0.30315 0.17366 0.72391 0.0
C784 C 0.32758 0.15838 0.72915 0.0
C785 C 0.33116 0.13604 0.70675 0.0
H786 H 0.3216 0.7685 0.18825 0.0
H787 H 0.40786 0.78223 0.25798 0.0
H788 H 0.36351 0.78307 0.15404 0.0
H789 H 0.45027 0.79768 0.22412 0.0
H790 H 0.51016 0.77902 0.14062 0.0
H791 H 0.47152 0.77462 0.18011 0.0
H792 H 0.40659 0.81951 0.14153 0.0
H793 H 0.44489 0.82291 0.10146 0.0
C794 C 0.34962 0.77546 0.19643 0.0
C795 C 0.36175 0.77447 0.22556 0.0
C796 C 0.37367 0.78389 0.17692 0.0
C797 C 0.41037 0.79145 0.18623 0.0
C798 C 0.42225 0.79163 0.21607 0.0
C799 C 0.39809 0.78309 0.23556 0.0
C800 C 0.48783 0.7882 0.14096 0.0
C801 C 0.48037 0.80135 0.11827 0.0
C802 C 0.46583 0.78591 0.16365 0.0
C803 C 0.43588 0.79673 0.16407 0.0
C804 C 0.42917 0.81068 0.14172 0.0
C805 C 0.45115 0.81284 0.11895 0.0
H806 H 0.81408 0.227 0.55927 0.0
H807 H 0.76974 0.17531 0.47089 0.0
H808 H 0.82076 0.18596 0.57641 0.0
H809 H 0.7758 0.13398 0.48793 0.0
H810 H 0.81923 0.06861 0.52306 0.0
H811 H 0.81881 0.11049 0.50485 0.0
H812 H 0.78095 0.14565 0.58743 0.0
H813 H 0.782 0.10396 0.60548 0.0
C814 C 0.80611 0.20678 0.54349 0.0
C815 C 0.79156 0.20406 0.51385 0.0
C816 C 0.80964 0.18328 0.55331 0.0
C817 C 0.79858 0.15664 0.5336 0.0
C818 C 0.78488 0.15419 0.50358 0.0
C819 C 0.78131 0.17775 0.49382 0.0
C820 C 0.81105 0.08547 0.5372 0.0
C821 C 0.8008 0.08338 0.56561 0.0
C822 C 0.8106 0.10932 0.52681 0.0
C823 C 0.79995 0.13147 0.54473 0.0
C824 C 0.78984 0.12921 0.57326 0.0
C825 C 0.7902 0.10536 0.58356 0.0
H826 H 0.27824 0.26494 0.93813 0.0
H827 H 0.37103 0.26481 0.89184 0.0
H828 H 0.31095 0.26134 0.98374 0.0
H829 H 0.40353 0.26085 0.93737 0.0
H830 H 0.43747 0.22428 0.0144 0.0
H831 H 0.40352 0.22689 0.96886 0.0
H832 H 0.36108 0.29002 0.02209 0.0
H833 H 0.3944 0.28694 0.06775 0.0
C834 C 0.30568 0.26436 0.93774 0.0
C835 C 0.32203 0.26522 0.91134 0.0
C836 C 0.32438 0.26224 0.96386 0.0
C837 C 0.35979 0.2608 0.96412 0.0
C838 C 0.37611 0.26152 0.93772 0.0
C839 C 0.35747 0.26377 0.91164 0.0
C840 C 0.42059 0.23849 0.0164 0.0
C841 C 0.41857 0.25539 0.04464 0.0
C842 C 0.40146 0.2402 0.9903 0.0
C843 C 0.37972 0.25871 0.9919 0.0
C844 C 0.3774 0.27539 0.02018 0.0
C845 C 0.39671 0.27382 0.04627 0.0
H846 H 0.31359 0.82907 0.32966 0.0
H847 H 0.34331 0.78751 0.39647 0.0
H848 H 0.32441 0.87239 0.36876 0.0
H849 H 0.3535 0.83059 0.43546 0.0
H850 H 0.30711 0.89578 0.49651 0.0
H851 H 0.30885 0.85548 0.45703 0.0
H852 H 0.37071 0.90966 0.40836 0.0
H853 H 0.36894 0.95023 0.44816 0.0
C854 C 0.32325 0.82933 0.3525 0.0
C855 C 0.32705 0.80475 0.36006 0.0
C856 C 0.32937 0.85412 0.37489 0.0
C857 C 0.33924 0.85471 0.40521 0.0
C858 C 0.34525 0.8306 0.41237 0.0
C859 C 0.33938 0.80595 0.39004 0.0
C860 C 0.32118 0.89908 0.47743 0.0
C861 C 0.33777 0.92609 0.47531 0.0
C862 C 0.32245 0.87602 0.45497 0.0
C863 C 0.34004 0.87944 0.42968 0.0
C864 C 0.35691 0.90645 0.42759 0.0
C865 C 0.35607 0.92959 0.45038 0.0
H866 H 0.80282 0.77497 0.88385 0.0
H867 H 0.70868 0.75894 0.82131 0.0
H868 H 0.7698 0.78705 0.92606 0.0
H869 H 0.67521 0.77002 0.86336 0.0
H870 H 0.62741 0.80904 0.94349 0.0
H871 H 0.66466 0.80454 0.90268 0.0
H872 H 0.72663 0.76495 0.95251 0.0
H873 H 0.69029 0.77089 0.99372 0.0
C874 C 0.77503 0.77408 0.87918 0.0
C875 C 0.7583 0.76598 0.84933 0.0
C876 C 0.75601 0.78083 0.90335 0.0
C877 C 0.71966 0.77931 0.89826 0.0
C878 C 0.70323 0.77188 0.86825 0.0
C879 C 0.72237 0.76545 0.84408 0.0
C880 C 0.64931 0.79968 0.94565 0.0
C881 C 0.656 0.7901 0.97144 0.0
C882 C 0.67047 0.79686 0.92225 0.0
C883 C 0.69861 0.78417 0.92407 0.0
C884 C 0.7056 0.77516 0.95037 0.0
C885 C 0.68466 0.77829 0.97389 0.0
loop_
_geom_bond_atom_site_label_1
_geom_bond_atom_site_label_2
_geom_bond_distance
_geom_bond_site_symmetry_2
_ccdc_geom_bond_type
H0 C3 0.929 . S
H1 C6 0.929 . S
H2 C8 0.930 . S
C3 H0 0.929 . S
C3 C4 1.398 . S
C3 C5 1.396 . S
C4 C3 1.398 . S
C4 C8 1.407 . S
C5 C3 1.396 . S
C5 C6 1.394 . S
C6 H1 0.929 . S
C6 C5 1.394 . S
C6 C7 1.382 . S
C7 C6 1.382 . S
C7 C8 1.392 . S
C7 N9 1.420 . S
C8 H2 0.930 . S
C8 C4 1.407 . S
C8 C7 1.392 . S
N9 C7 1.420 . S
N9 C10 1.244 . S
C10 N9 1.244 . S
H11 C14 0.929 . S
H12 C17 0.929 . S
H13 C19 0.930 . S
C14 H11 0.929 . S
C14 C15 1.398 . S
C14 C16 1.396 . S
C15 C14 1.398 . S
C15 C19 1.407 . S
C16 C14 1.396 . S
C16 C17 1.394 . S
C17 H12 0.929 . S
C17 C16 1.394 . S
C17 C18 1.382 . S
C18 C17 1.382 . S
C18 C19 1.392 . S
C18 N20 1.420 . S
C19 H13 0.930 . S
C19 C15 1.407 . S
C19 C18 1.392 . S
N20 C18 1.420 . S
N20 C21 1.244 . S
C21 N20 1.244 . S
H22 C25 0.929 . S
H23 C28 0.929 . S
H24 C30 0.930 . S
C25 H22 0.929 . S
C25 C26 1.398 . S
C25 C27 1.396 . S
C26 C25 1.398 . S
C26 C30 1.407 . S
C27 C25 1.396 . S
C27 C28 1.394 . S
C28 H23 0.929 . S
C28 C27 1.394 . S
C28 C29 1.382 . S
C29 C28 1.382 . S
C29 C30 1.392 . S
C29 N31 1.420 . S
C30 H24 0.930 . S
C30 C26 1.407 . S
C30 C29 1.392 . S
N31 C29 1.420 . S
N31 C32 1.244 . S
C32 N31 1.244 . S
H33 C36 0.929 . S
H34 C39 0.929 . S
H35 C41 0.930 . S
C36 H33 0.929 . S
C36 C37 1.398 . S
C36 C38 1.396 . S
C37 C36 1.398 . S
C37 C41 1.407 . S
C38 C36 1.396 . S
C38 C39 1.394 . S
C39 H34 0.929 . S
C39 C38 1.394 . S
C39 C40 1.382 . S
C40 C39 1.382 . S
C40 C41 1.392 . S
C40 N42 1.420 . S
C41 H35 0.930 . S
C41 C37 1.407 . S
C41 C40 1.392 . S
N42 C40 1.420 . S
N42 C43 1.244 . S
C43 N42 1.244 . S
H44 C47 0.929 . S
H45 C50 0.929 . S
H46 C52 0.930 . S
C47 H44 0.929 . S
C47 C48 1.398 . S
C47 C49 1.396 . S
C48 C47 1.398 . S
C48 C52 1.407 . S
C49 C47 1.396 . S
C49 C50 1.394 . S
C50 H45 0.929 . S
C50 C49 1.394 . S
C50 C51 1.382 . S
C51 C50 1.382 . S
C51 C52 1.392 . S
C51 N53 1.420 . S
C52 H46 0.930 . S
C52 C48 1.407 . S
C52 C51 1.392 . S
N53 C51 1.420 . S
N53 C54 1.244 . S
C54 N53 1.244 . S
H55 C58 0.929 . S
H56 C61 0.929 . S
H57 C63 0.930 . S
C58 H55 0.929 . S
C58 C59 1.398 . S
C58 C60 1.396 . S
C59 C58 1.398 . S
C59 C63 1.407 . S
C60 C58 1.396 . S
C60 C61 1.394 . S
C61 H56 0.929 . S
C61 C60 1.394 . S
C61 C62 1.382 . S
C62 C61 1.382 . S
C62 C63 1.392 . S
C62 N64 1.420 . S
C63 H57 0.930 . S
C63 C59 1.407 . S
C63 C62 1.392 . S
N64 C62 1.420 . S
N64 C65 1.244 . S
C65 N64 1.244 . S
H66 C69 0.929 . S
H67 C72 0.929 . S
H68 C74 0.930 . S
C69 H66 0.929 . S
C69 C70 1.398 . S
C69 C71 1.396 . S
C70 C69 1.398 . S
C70 C74 1.407 . S
C71 C69 1.396 . S
C71 C72 1.394 . S
C72 H67 0.929 . S
C72 C71 1.394 . S
C72 C73 1.382 . S
C73 C72 1.382 . S
C73 C74 1.392 . S
C73 N75 1.420 . S
C74 H68 0.930 . S
C74 C70 1.407 . S
C74 C73 1.392 . S
N75 C73 1.420 . S
N75 C76 1.244 . S
C76 N75 1.244 . S
H77 C80 0.929 . S
H78 C83 0.929 . S
H79 C85 0.930 . S
C80 H77 0.929 . S
C80 C81 1.398 . S
C80 C82 1.396 . S
C81 C80 1.398 . S
C81 C85 1.407 . S
C82 C80 1.396 . S
C82 C83 1.394 . S
C83 H78 0.929 . S
C83 C82 1.394 . S
C83 C84 1.382 . S
C84 C83 1.382 . S
C84 C85 1.392 . S
C84 N86 1.420 . S
C85 H79 0.930 . S
C85 C81 1.407 . S
C85 C84 1.392 . S
N86 C84 1.420 . S
N86 C87 1.244 . S
C87 N86 1.244 . S
C88 C89 1.443 . S
C88 N92 1.376 . S
C88 C126 1.389 . S
C89 C88 1.443 . S
C89 C90 1.340 . S
C89 H129 0.951 . S
C90 C89 1.340 . S
C90 C91 1.439 . S
C90 H130 0.950 . S
C91 C90 1.439 . S
C91 N92 1.374 . S
C91 C125 1.395 . S
N92 C88 1.376 . S
N92 C91 1.374 . S
N92 Co93 2.008 . S
Co93 N92 2.008 . S
Co93 N94 1.995 . S
Co93 N99 2.008 . S
Co93 N104 1.995 . S
Co93 N109 2.282 . S
Co93 N115 2.282 . S
N94 Co93 1.995 . S
N94 C95 1.376 . S
N94 C98 1.383 . S
C95 N94 1.376 . S
C95 C96 1.446 . S
C95 C125 1.391 . S
C96 C95 1.446 . S
C96 C97 1.339 . S
C96 H131 0.949 . S
C97 C96 1.339 . S
C97 C98 1.439 . S
C97 H132 0.955 . S
C98 N94 1.383 . S
C98 C97 1.439 . S
C98 C127 1.392 . S
N99 Co93 2.008 . S
N99 C100 1.376 . S
N99 C103 1.374 . S
C100 N99 1.376 . S
C100 C101 1.443 1_455 S
C100 C127 1.389 . S
C101 C100 1.443 1_655 S
C101 C102 1.351 . S
C101 H133 0.951 . S
C102 C101 1.351 . S
C102 C103 1.427 1_655 S
C102 H134 0.952 . S
C103 N99 1.374 . S
C103 C102 1.427 1_455 S
C103 C128 1.395 . S
N104 Co93 1.995 . S
N104 C105 1.376 . S
N104 C108 1.383 . S
C105 N104 1.376 . S
C105 C106 1.446 . S
C105 C128 1.391 . S
C106 C105 1.446 . S
C106 C107 1.339 . S
C106 H135 0.949 . S
C107 C106 1.339 . S
C107 C108 1.439 . S
C107 H136 0.950 . S
C108 N104 1.383 . S
C108 C107 1.439 . S
C108 C126 1.392 . S
N109 Co93 2.282 . S
N109 C112 1.332 . S
N109 C114 1.332 . S
C110 C111 1.386 . S
C110 C113 1.388 . S
C111 C110 1.386 . S
C111 C112 1.382 . S
C111 H137 0.950 . S
C112 N109 1.332 . S
C112 C111 1.382 . S
C112 H123 0.952 . S
C113 C110 1.388 . S
C113 C114 1.382 . S
C113 H138 0.950 . S
C114 N109 1.332 . S
C114 C113 1.382 . S
C114 H124 0.948 . S
N115 Co93 2.282 . S
N115 C119 1.332 . S
N115 C120 1.332 . S
C116 C117 1.388 . S
C116 C120 1.382 1_655 S
C116 H139 0.950 . S
C117 C116 1.388 . S
C117 C118 1.386 . S
C118 C117 1.386 . S
C118 C119 1.382 1_655 S
C118 H140 0.950 . S
C119 N115 1.332 . S
C119 C118 1.382 1_455 S
C119 H121 0.952 . S
C120 N115 1.332 . S
C120 C116 1.382 1_455 S
C120 H122 0.948 . S
H121 C119 0.952 . S
H122 C120 0.948 . S
H123 C112 0.952 . S
H124 C114 0.948 . S
C125 C91 1.395 . S
C125 C95 1.391 . S
C126 C88 1.389 . S
C126 C108 1.392 . S
C127 C98 1.392 . S
C127 C100 1.389 . S
C128 C103 1.395 . S
C128 C105 1.391 . S
H129 C89 0.951 . S
H130 C90 0.950 . S
H131 C96 0.949 . S
H132 C97 0.955 . S
H133 C101 0.951 . S
H134 C102 0.952 . S
H135 C106 0.949 . S
H136 C107 0.950 . S
H137 C111 0.950 . S
H138 C113 0.950 . S
H139 C116 0.950 . S
H140 C118 0.950 . S
C141 C142 1.443 . S
C141 N145 1.376 . S
C141 C179 1.389 . S
C142 C141 1.443 . S
C142 C143 1.340 . S
C142 H182 0.951 . S
C143 C142 1.340 . S
C143 C144 1.439 . S
C143 H183 0.950 . S
C144 C143 1.439 . S
C144 N145 1.374 . S
C144 C178 1.395 . S
N145 C141 1.376 . S
N145 C144 1.374 . S
N145 Co146 2.008 . S
Co146 N145 2.008 . S
Co146 N147 1.995 1_455 S
Co146 N152 2.008 1_455 S
Co146 N157 1.995 . S
Co146 N162 2.282 . S
Co146 N168 2.282 1_455 S
N147 Co146 1.995 1_655 S
N147 C148 1.376 . S
N147 C151 1.383 . S
C148 N147 1.376 . S
C148 C149 1.446 . S
C148 C178 1.391 1_655 S
C149 C148 1.446 . S
C149 C150 1.339 . S
C149 H184 0.949 . S
C150 C149 1.339 . S
C150 C151 1.439 . S
C150 H185 0.950 . S
C151 N147 1.383 . S
C151 C150 1.439 . S
C151 C180 1.392 . S
N152 Co146 2.008 1_655 S
N152 C153 1.376 . S
N152 C156 1.374 . S
C153 N152 1.376 . S
C153 C154 1.443 . S
C153 C180 1.389 . S
C154 C153 1.443 . S
C154 C155 1.340 . S
C154 H186 0.951 . S
C155 C154 1.340 . S
C155 C156 1.439 . S
C155 H187 0.950 . S
C156 N152 1.374 . S
C156 C155 1.439 . S
C156 C181 1.395 . S
N157 Co146 1.995 . S
N157 C158 1.376 . S
N157 C161 1.383 . S
C158 N157 1.376 . S
C158 C159 1.446 . S
C158 C181 1.391 1_455 S
C159 C158 1.446 . S
C159 C160 1.339 . S
C159 H188 0.949 . S
C160 C159 1.339 . S
C160 C161 1.439 . S
C160 H189 0.950 . S
C161 N157 1.383 . S
C161 C160 1.439 . S
C161 C179 1.392 . S
N162 Co146 2.282 . S
N162 C165 1.332 . S
N162 C167 1.332 . S
C163 C164 1.386 . S
C163 C166 1.388 . S
C164 C163 1.386 . S
C164 C165 1.382 . S
C164 H190 0.950 . S
C165 N162 1.332 . S
C165 C164 1.382 . S
C165 H176 0.952 . S
C166 C163 1.388 . S
C166 C167 1.382 . S
C166 H191 0.950 . S
C167 N162 1.332 . S
C167 C166 1.382 . S
C167 H177 0.948 . S
N168 Co146 2.282 1_655 S
N168 C172 1.332 . S
N168 C173 1.332 . S
C169 C170 1.388 . S
C169 C173 1.382 . S
C169 H192 0.950 . S
C170 C169 1.388 . S
C170 C171 1.386 . S
C171 C170 1.386 . S
C171 C172 1.382 . S
C171 H193 0.950 . S
C172 N168 1.332 . S
C172 C171 1.382 . S
C172 H174 0.952 . S
C173 N168 1.332 . S
C173 C169 1.382 . S
C173 H175 0.948 . S
H174 C172 0.952 . S
H175 C173 0.948 . S
H176 C165 0.952 . S
H177 C167 0.948 . S
C178 C144 1.395 . S
C178 C148 1.391 1_455 S
C179 C141 1.389 . S
C179 C161 1.392 . S
C180 C151 1.392 . S
C180 C153 1.389 . S
C181 C156 1.395 . S
C181 C158 1.391 1_655 S
H182 C142 0.951 . S
H183 C143 0.950 . S
H184 C149 0.949 . S
H185 C150 0.950 . S
H186 C154 0.951 . S
H187 C155 0.950 . S
H188 C159 0.949 . S
H189 C160 0.950 . S
H190 C164 0.950 . S
H191 C166 0.950 . S
H192 C169 0.950 . S
H193 C171 0.950 . S
C194 C195 1.443 . S
C194 N198 1.376 1_565 S
C194 C232 1.389 . S
C195 C194 1.443 . S
C195 C196 1.340 1_565 S
C195 H235 0.951 . S
C196 C195 1.340 1_545 S
C196 C197 1.439 . S
C196 H236 0.950 . S
C197 C196 1.439 . S
C197 N198 1.374 . S
C197 C231 1.395 . S
N198 C194 1.376 1_545 S
N198 C197 1.374 . S
N198 Co199 2.008 . S
Co199 N198 2.008 . S
Co199 N200 1.995 . S
Co199 N205 2.008 . S
Co199 N210 1.995 . S
Co199 N215 2.282 . S
Co199 N221 2.282 1_545 S
N200 Co199 1.995 . S
N200 C201 1.376 . S
N200 C204 1.383 . S
C201 N200 1.376 . S
C201 C202 1.446 . S
C201 C231 1.391 . S
C202 C201 1.446 . S
C202 C203 1.339 . S
C202 H237 0.949 . S
C203 C202 1.339 . S
C203 C204 1.439 . S
C203 H238 0.950 . S
C204 N200 1.383 . S
C204 C203 1.439 . S
C204 C233 1.392 . S
N205 Co199 2.008 . S
N205 C206 1.376 . S
N205 C209 1.374 . S
C206 N205 1.376 . S
C206 C207 1.443 . S
C206 C233 1.389 . S
C207 C206 1.443 . S
C207 C208 1.340 . S
C207 H239 0.951 . S
C208 C207 1.340 . S
C208 C209 1.439 . S
C208 H240 0.950 . S
C209 N205 1.374 . S
C209 C208 1.439 . S
C209 C234 1.395 . S
N210 Co199 1.995 . S
N210 C211 1.375 . S
N210 C214 1.383 1_545 S
C211 N210 1.375 . S
C211 C212 1.437 1_545 S
C211 C234 1.400 . S
C212 C211 1.437 1_565 S
C212 C213 1.339 . S
C212 H241 0.949 . S
C213 C212 1.339 . S
C213 C214 1.439 . S
C213 H242 0.950 . S
C214 N210 1.383 1_565 S
C214 C213 1.439 . S
C214 C232 1.392 . S
N215 Co199 2.282 . S
N215 C218 1.332 . S
N215 C220 1.332 . S
C216 C217 1.386 . S
C216 C219 1.388 . S
C217 C216 1.386 . S
C217 C218 1.382 . S
C217 H243 0.950 . S
C218 N215 1.332 . S
C218 C217 1.382 . S
C218 H229 0.952 . S
C219 C216 1.388 . S
C219 C220 1.382 . S
C219 H244 0.950 . S
C220 N215 1.332 . S
C220 C219 1.382 . S
C220 H230 0.948 . S
N221 Co199 2.282 1_565 S
N221 C225 1.332 . S
N221 C226 1.332 . S
C222 C223 1.388 . S
C222 C226 1.382 . S
C222 H245 0.950 . S
C223 C222 1.388 . S
C223 C224 1.386 . S
C224 C223 1.386 . S
C224 C225 1.382 . S
C224 H246 0.950 . S
C225 N221 1.332 . S
C225 C224 1.382 . S
C225 H227 0.952 1_565 S
C226 N221 1.332 . S
C226 C222 1.382 . S
C226 H228 0.948 . S
H227 C225 0.952 1_545 S
H228 C226 0.948 . S
H229 C218 0.952 . S
H230 C220 0.948 . S
C231 C197 1.395 . S
C231 C201 1.391 . S
C232 C194 1.389 . S
C232 C214 1.392 . S
C233 C204 1.392 . S
C233 C206 1.389 . S
C234 C209 1.395 . S
C234 C211 1.400 . S
H235 C195 0.951 . S
H236 C196 0.950 . S
H237 C202 0.949 . S
H238 C203 0.950 . S
H239 C207 0.951 . S
H240 C208 0.950 . S
H241 C212 0.949 . S
H242 C213 0.950 . S
H243 C217 0.950 . S
H244 C219 0.950 . S
H245 C222 0.950 . S
H246 C224 0.950 . S
C247 C248 1.443 . S
C247 N251 1.376 . S
C247 C285 1.389 . S
C248 C247 1.443 . S
C248 C249 1.340 . S
C248 H288 0.951 . S
C249 C248 1.340 . S
C249 C250 1.439 . S
C249 H289 0.950 . S
C250 C249 1.439 . S
C250 N251 1.374 . S
C250 C284 1.395 . S
N251 C247 1.376 . S
N251 C250 1.374 . S
N251 Co252 2.008 . S
Co252 N251 2.008 . S
Co252 N253 1.995 1_554 S
Co252 N258 2.008 1_554 S
Co252 N263 1.995 . S
Co252 N268 2.282 1_554 S
Co252 N274 2.282 . S
N253 Co252 1.995 1_556 S
N253 C254 1.376 1_556 S
N253 C257 1.383 . S
C254 N253 1.376 1_554 S
C254 C255 1.446 1_554 S
C254 C284 1.391 . S
C255 C254 1.446 1_556 S
C255 C256 1.339 . S
C255 H290 0.949 . S
C256 C255 1.339 . S
C256 C257 1.439 . S
C256 H291 0.950 . S
C257 N253 1.383 . S
C257 C256 1.439 . S
C257 C286 1.392 . S
N258 Co252 2.008 1_556 S
N258 C259 1.376 . S
N258 C262 1.374 . S
C259 N258 1.376 . S
C259 C260 1.443 . S
C259 C286 1.389 . S
C260 C259 1.443 . S
C260 C261 1.340 . S
C260 H292 0.951 . S
C261 C260 1.340 . S
C261 C262 1.439 . S
C261 H293 0.950 . S
C262 N258 1.374 . S
C262 C261 1.439 . S
C262 C287 1.395 . S
N263 Co252 1.995 . S
N263 C264 1.376 . S
N263 C267 1.383 . S
C264 N263 1.376 . S
C264 C265 1.446 . S
C264 C287 1.391 1_554 S
C265 C264 1.446 . S
C265 C266 1.339 . S
C265 H294 0.949 . S
C266 C265 1.339 . S
C266 C267 1.439 . S
C266 H295 0.950 . S
C267 N263 1.383 . S
C267 C266 1.439 . S
C267 C285 1.392 . S
N268 Co252 2.282 1_556 S
N268 C271 1.332 . S
N268 C273 1.332 . S
C269 C270 1.386 . S
C269 C272 1.388 . S
C270 C269 1.386 . S
C270 C271 1.382 . S
C270 H296 0.950 . S
C271 N268 1.332 . S
C271 C270 1.382 . S
C271 H282 0.952 . S
C272 C269 1.388 . S
C272 C273 1.382 . S
C272 H297 0.950 . S
C273 N268 1.332 . S
C273 C272 1.382 . S
C273 H283 0.948 . S
N274 Co252 2.282 . S
N274 C278 1.332 . S
N274 C279 1.332 . S
C275 C276 1.388 . S
C275 C279 1.382 . S
C275 H298 0.950 . S
C276 C275 1.388 . S
C276 C277 1.386 . S
C277 C276 1.386 . S
C277 C278 1.382 . S
C277 H299 0.950 . S
C278 N274 1.332 . S
C278 C277 1.382 . S
C278 H280 0.952 . S
C279 N274 1.332 . S
C279 C275 1.382 . S
C279 H281 0.948 . S
H280 C278 0.952 . S
H281 C279 0.948 . S
H282 C271 0.952 . S
H283 C273 0.948 . S
C284 C250 1.395 . S
C284 C254 1.391 . S
C285 C247 1.389 . S
C285 C267 1.392 . S
C286 C257 1.392 . S
C286 C259 1.389 . S
C287 C262 1.395 . S
C287 C264 1.391 1_556 S
H288 C248 0.951 . S
H289 C249 0.950 . S
H290 C255 0.949 . S
H291 C256 0.950 . S
H292 C260 0.951 . S
H293 C261 0.950 . S
H294 C265 0.949 . S
H295 C266 0.950 . S
H296 C270 0.950 . S
H297 C272 0.950 . S
H298 C275 0.950 . S
H299 C277 0.950 . S
C300 C301 1.443 . S
C300 N304 1.376 1_565 S
C300 C338 1.389 . S
C301 C300 1.443 . S
C301 C302 1.340 1_565 S
C301 H341 0.951 . S
C302 C301 1.340 1_545 S
C302 C303 1.439 . S
C302 H342 0.950 1_655 S
C303 C302 1.439 . S
C303 N304 1.374 . S
C303 C337 1.395 . S
N304 C300 1.376 1_545 S
N304 C303 1.374 . S
N304 Co305 2.008 . S
Co305 N304 2.008 . S
Co305 N306 1.995 . S
Co305 N311 2.008 . S
Co305 N316 1.995 . S
Co305 N321 2.282 . S
Co305 N327 2.282 . S
N306 Co305 1.995 . S
N306 C307 1.376 . S
N306 C310 1.383 . S
C307 N306 1.376 . S
C307 C308 1.446 . S
C307 C337 1.391 . S
C308 C307 1.446 . S
C308 C309 1.339 . S
C308 H343 0.949 1_655 S
C309 C308 1.339 . S
C309 C310 1.439 . S
C309 H344 0.950 . S
C310 N306 1.383 . S
C310 C309 1.439 . S
C310 C339 1.392 . S
N311 Co305 2.008 . S
N311 C312 1.376 . S
N311 C315 1.374 . S
C312 N311 1.376 . S
C312 C313 1.443 . S
C312 C339 1.389 . S
C313 C312 1.443 . S
C313 C314 1.340 . S
C313 H345 0.951 . S
C314 C313 1.340 . S
C314 C315 1.439 . S
C314 H346 0.950 . S
C315 N311 1.374 . S
C315 C314 1.439 . S
C315 C340 1.395 . S
N316 Co305 1.995 . S
N316 C317 1.376 . S
N316 C320 1.383 1_545 S
C317 N316 1.376 . S
C317 C318 1.446 1_545 S
C317 C340 1.391 . S
C318 C317 1.446 1_565 S
C318 C319 1.339 . S
C318 H347 0.949 . S
C319 C318 1.339 . S
C319 C320 1.439 . S
C319 H348 0.950 . S
C320 N316 1.383 1_565 S
C320 C319 1.439 . S
C320 C338 1.392 . S
N321 Co305 2.282 . S
N321 C324 1.332 . S
N321 C326 1.332 . S
C322 C323 1.386 . S
C322 C325 1.388 . S
C323 C322 1.386 . S
C323 C324 1.382 . S
C323 H349 0.950 . S
C324 N321 1.332 . S
C324 C323 1.382 . S
C324 H335 0.952 . S
C325 C322 1.388 . S
C325 C326 1.382 . S
C325 H350 0.950 . S
C326 N321 1.332 . S
C326 C325 1.382 . S
C326 H336 0.948 . S
N327 Co305 2.282 . S
N327 C331 1.332 . S
N327 C332 1.332 1_545 S
C328 C329 1.388 . S
C328 C332 1.382 . S
C328 H351 0.950 . S
C329 C328 1.388 . S
C329 C330 1.386 . S
C330 C329 1.386 . S
C330 C331 1.382 1_565 S
C330 H352 0.950 . S
C331 N327 1.332 . S
C331 C330 1.382 1_545 S
C331 H333 0.952 . S
C332 N327 1.332 1_565 S
C332 C328 1.382 . S
C332 H334 0.948 . S
H333 C331 0.952 . S
H334 C332 0.948 . S
H335 C324 0.952 . S
H336 C326 0.948 . S
C337 C303 1.395 . S
C337 C307 1.391 . S
C338 C300 1.389 . S
C338 C320 1.392 . S
C339 C310 1.392 . S
C339 C312 1.389 . S
C340 C315 1.395 . S
C340 C317 1.391 . S
H341 C301 0.951 . S
H342 C302 0.950 1_455 S
H343 C308 0.949 1_455 S
H344 C309 0.950 . S
H345 C313 0.951 . S
H346 C314 0.950 . S
H347 C318 0.949 . S
H348 C319 0.950 . S
H349 C323 0.950 . S
H350 C325 0.950 . S
H351 C328 0.950 . S
H352 C330 0.950 . S
C353 C354 1.443 . S
C353 N357 1.376 . S
C353 C391 1.389 . S
C354 C353 1.443 . S
C354 C355 1.340 . S
C354 H394 0.951 . S
C355 C354 1.340 . S
C355 C356 1.439 . S
C355 H395 0.950 . S
C356 C355 1.439 . S
C356 N357 1.374 . S
C356 C390 1.395 . S
N357 C353 1.376 . S
N357 C356 1.374 . S
N357 Co358 2.008 . S
Co358 N357 2.008 . S
Co358 N359 1.995 . S
Co358 N364 2.008 . S
Co358 N369 1.995 . S
Co358 N374 2.282 . S
Co358 N380 2.282 . S
N359 Co358 1.995 . S
N359 C360 1.376 . S
N359 C363 1.383 . S
C360 N359 1.376 . S
C360 C361 1.446 . S
C360 C390 1.391 . S
C361 C360 1.446 . S
C361 C362 1.339 . S
C361 H396 0.949 . S
C362 C361 1.339 . S
C362 C363 1.439 . S
C362 H397 0.950 . S
C363 N359 1.383 . S
C363 C362 1.439 . S
C363 C392 1.392 . S
N364 Co358 2.008 . S
N364 C365 1.376 . S
N364 C368 1.374 . S
C365 N364 1.376 . S
C365 C366 1.443 . S
C365 C392 1.389 . S
C366 C365 1.443 . S
C366 C367 1.340 . S
C366 H398 0.951 . S
C367 C366 1.340 . S
C367 C368 1.439 . S
C367 H399 0.950 . S
C368 N364 1.374 . S
C368 C367 1.439 . S
C368 C393 1.395 . S
N369 Co358 1.995 . S
N369 C370 1.376 . S
N369 C373 1.383 . S
C370 N369 1.376 . S
C370 C371 1.446 . S
C370 C393 1.391 . S
C371 C370 1.446 . S
C371 C372 1.339 . S
C371 H400 0.949 . S
C372 C371 1.339 . S
C372 C373 1.439 . S
C372 H401 0.950 . S
C373 N369 1.383 . S
C373 C372 1.439 . S
C373 C391 1.392 . S
N374 Co358 2.282 . S
N374 C377 1.332 . S
N374 C379 1.332 . S
C375 C376 1.386 . S
C375 C378 1.388 . S
C376 C375 1.386 . S
C376 C377 1.382 . S
C376 H402 0.950 . S
C377 N374 1.332 . S
C377 C376 1.382 . S
C377 H388 0.952 . S
C378 C375 1.388 . S
C378 C379 1.382 . S
C378 H403 0.950 . S
C379 N374 1.332 . S
C379 C378 1.382 . S
C379 H389 0.948 . S
N380 Co358 2.282 . S
N380 C384 1.332 . S
N380 C385 1.332 . S
C381 C382 1.388 . S
C381 C385 1.382 . S
C381 H404 0.950 . S
C382 C381 1.388 . S
C382 C383 1.386 . S
C383 C382 1.386 . S
C383 C384 1.382 . S
C383 H405 0.950 . S
C384 N380 1.332 . S
C384 C383 1.382 . S
C384 H386 0.952 . S
C385 N380 1.332 . S
C385 C381 1.382 . S
C385 H387 0.948 . S
H386 C384 0.952 . S
H387 C385 0.948 . S
H388 C377 0.952 . S
H389 C379 0.948 . S
C390 C356 1.395 . S
C390 C360 1.391 . S
C391 C353 1.389 . S
C391 C373 1.392 . S
C392 C363 1.392 . S
C392 C365 1.389 . S
C393 C368 1.395 . S
C393 C370 1.391 . S
H394 C354 0.951 . S
H395 C355 0.950 . S
H396 C361 0.949 . S
H397 C362 0.950 . S
H398 C366 0.951 . S
H399 C367 0.950 . S
H400 C371 0.949 . S
H401 C372 0.950 . S
H402 C376 0.950 . S
H403 C378 0.950 . S
H404 C381 0.950 . S
H405 C383 0.950 . S
H406 C414 0.950 . S
H407 C419 0.950 . S
H408 C416 0.950 . S
H409 C418 0.950 . S
H410 C420 0.950 . S
H411 C422 0.950 . S
H412 C424 0.950 . S
H413 C425 0.950 . S
C414 H406 0.950 . S
C414 C415 1.386 . S
C414 C416 1.391 . S
C415 C414 1.386 . S
C415 C419 1.393 . S
C416 H408 0.950 . S
C416 C414 1.391 . S
C416 C417 1.400 . S
C417 C416 1.400 . S
C417 C418 1.398 . S
C417 C423 1.491 . S
C418 H409 0.950 . S
C418 C417 1.398 . S
C418 C419 1.391 . S
C419 H407 0.950 . S
C419 C415 1.393 . S
C419 C418 1.391 . S
C420 H410 0.950 . S
C420 C421 1.386 . S
C420 C422 1.391 . S
C421 C420 1.386 . S
C421 C425 1.393 . S
C422 H411 0.950 . S
C422 C420 1.391 . S
C422 C423 1.400 . S
C423 C417 1.491 . S
C423 C422 1.400 . S
C423 C424 1.398 . S
C424 H412 0.950 . S
C424 C423 1.398 . S
C424 C425 1.391 . S
C425 H413 0.950 . S
C425 C421 1.393 . S
C425 C424 1.391 . S
H426 C434 0.950 . S
H427 C439 0.950 . S
H428 C436 0.950 . S
H429 C438 0.950 . S
H430 C440 0.950 . S
H431 C442 0.950 . S
H432 C444 0.950 . S
H433 C445 0.950 . S
C434 H426 0.950 . S
C434 C435 1.386 . S
C434 C436 1.391 . S
C435 C434 1.386 . S
C435 C439 1.393 . S
C436 H428 0.950 . S
C436 C434 1.391 . S
C436 C437 1.400 . S
C437 C436 1.400 . S
C437 C438 1.398 . S
C437 C443 1.491 . S
C438 H429 0.950 . S
C438 C437 1.398 . S
C438 C439 1.391 . S
C439 H427 0.950 . S
C439 C435 1.393 . S
C439 C438 1.391 . S
C440 H430 0.950 . S
C440 C441 1.386 . S
C440 C442 1.391 . S
C441 C440 1.386 . S
C441 C445 1.393 . S
C442 H431 0.950 . S
C442 C440 1.391 . S
C442 C443 1.400 . S
C443 C437 1.491 . S
C443 C442 1.400 . S
C443 C444 1.398 . S
C444 H432 0.950 . S
C444 C443 1.398 . S
C444 C445 1.391 . S
C445 H433 0.950 . S
C445 C441 1.393 . S
C445 C444 1.391 . S
H446 C454 0.950 . S
H447 C459 0.950 . S
H448 C456 0.950 . S
H449 C458 0.950 . S
H450 C460 0.950 . S
H451 C462 0.950 . S
H452 C464 0.950 . S
H453 C465 0.950 . S
C454 H446 0.950 . S
C454 C455 1.386 . S
C454 C456 1.391 . S
C455 C454 1.386 . S
C455 C459 1.393 . S
C456 H448 0.950 . S
C456 C454 1.391 . S
C456 C457 1.400 . S
C457 C456 1.400 . S
C457 C458 1.398 . S
C457 C463 1.491 . S
C458 H449 0.950 . S
C458 C457 1.398 . S
C458 C459 1.391 . S
C459 H447 0.950 . S
C459 C455 1.393 . S
C459 C458 1.391 . S
C460 H450 0.950 . S
C460 C461 1.386 . S
C460 C462 1.391 . S
C461 C460 1.386 . S
C461 C465 1.393 . S
C462 H451 0.950 . S
C462 C460 1.391 . S
C462 C463 1.400 . S
C463 C457 1.491 . S
C463 C462 1.400 . S
C463 C464 1.398 . S
C464 H452 0.950 . S
C464 C463 1.398 . S
C464 C465 1.391 . S
C465 H453 0.950 . S
C465 C461 1.393 . S
C465 C464 1.391 . S
H466 C474 0.950 . S
H467 C479 0.950 . S
H468 C476 0.950 . S
H469 C478 0.950 . S
H470 C480 0.950 . S
H471 C482 0.950 . S
H472 C484 0.950 . S
H473 C485 0.950 . S
C474 H466 0.950 . S
C474 C475 1.386 . S
C474 C476 1.391 . S
C475 C474 1.386 . S
C475 C479 1.393 . S
C476 H468 0.950 . S
C476 C474 1.391 . S
C476 C477 1.400 . S
C477 C476 1.400 . S
C477 C478 1.398 . S
C477 C483 1.491 . S
C478 H469 0.950 . S
C478 C477 1.398 . S
C478 C479 1.391 . S
C479 H467 0.950 . S
C479 C475 1.393 . S
C479 C478 1.391 . S
C480 H470 0.950 . S
C480 C481 1.386 . S
C480 C482 1.391 . S
C481 C480 1.386 . S
C481 C485 1.393 . S
C482 H471 0.950 . S
C482 C480 1.391 . S
C482 C483 1.400 . S
C483 C477 1.491 . S
C483 C482 1.400 . S
C483 C484 1.398 . S
C484 H472 0.950 . S
C484 C483 1.398 . S
C484 C485 1.391 . S
C485 H473 0.950 . S
C485 C481 1.393 . S
C485 C484 1.391 . S
H486 C494 0.950 . S
H487 C499 0.950 . S
H488 C496 0.950 . S
H489 C498 0.950 . S
H490 C500 0.950 . S
H491 C502 0.950 . S
H492 C504 0.950 . S
H493 C505 0.950 . S
C494 H486 0.950 . S
C494 C495 1.386 . S
C494 C496 1.391 . S
C495 C494 1.386 . S
C495 C499 1.393 . S
C496 H488 0.950 . S
C496 C494 1.391 . S
C496 C497 1.400 . S
C497 C496 1.400 . S
C497 C498 1.398 . S
C497 C503 1.491 . S
C498 H489 0.950 . S
C498 C497 1.398 . S
C498 C499 1.391 . S
C499 H487 0.950 . S
C499 C495 1.393 . S
C499 C498 1.391 . S
C500 H490 0.950 . S
C500 C501 1.386 . S
C500 C502 1.391 . S
C501 C500 1.386 . S
C501 C505 1.393 . S
C502 H491 0.950 . S
C502 C500 1.391 . S
C502 C503 1.400 . S
C503 C497 1.491 . S
C503 C502 1.400 . S
C503 C504 1.398 . S
C504 H492 0.950 . S
C504 C503 1.398 . S
C504 C505 1.391 . S
C505 H493 0.950 . S
C505 C501 1.393 . S
C505 C504 1.391 . S
H506 C514 0.950 . S
H507 C519 0.950 . S
H508 C516 0.950 . S
H509 C518 0.950 . S
H510 C520 0.950 . S
H511 C522 0.950 . S
H512 C524 0.950 . S
H513 C525 0.950 . S
C514 H506 0.950 . S
C514 C515 1.386 . S
C514 C516 1.391 . S
C515 C514 1.386 . S
C515 C519 1.393 . S
C516 H508 0.950 . S
C516 C514 1.391 . S
C516 C517 1.400 . S
C517 C516 1.400 . S
C517 C518 1.398 . S
C517 C523 1.491 . S
C518 H509 0.950 . S
C518 C517 1.398 . S
C518 C519 1.391 . S
C519 H507 0.950 . S
C519 C515 1.393 . S
C519 C518 1.391 . S
C520 H510 0.950 . S
C520 C521 1.386 . S
C520 C522 1.391 . S
C521 C520 1.386 . S
C521 C525 1.393 . S
C522 H511 0.950 . S
C522 C520 1.391 . S
C522 C523 1.400 . S
C523 C517 1.491 . S
C523 C522 1.400 . S
C523 C524 1.398 . S
C524 H512 0.950 . S
C524 C523 1.398 . S
C524 C525 1.391 . S
C525 H513 0.950 . S
C525 C521 1.393 . S
C525 C524 1.391 . S
H526 C534 0.950 . S
H527 C539 0.950 . S
H528 C536 0.950 . S
H529 C538 0.950 . S
H530 C540 0.950 . S
H531 C542 0.950 . S
H532 C544 0.950 . S
H533 C545 0.950 . S
C534 H526 0.950 . S
C534 C535 1.386 . S
C534 C536 1.391 . S
C535 C534 1.386 . S
C535 C539 1.393 . S
C536 H528 0.950 . S
C536 C534 1.391 . S
C536 C537 1.400 . S
C537 C536 1.400 . S
C537 C538 1.398 . S
C537 C543 1.491 . S
C538 H529 0.950 . S
C538 C537 1.398 . S
C538 C539 1.391 . S
C539 H527 0.950 . S
C539 C535 1.393 . S
C539 C538 1.391 . S
C540 H530 0.950 . S
C540 C541 1.386 . S
C540 C542 1.391 . S
C541 C540 1.386 . S
C541 C545 1.393 . S
C542 H531 0.950 . S
C542 C540 1.391 . S
C542 C543 1.400 . S
C543 C537 1.491 . S
C543 C542 1.400 . S
C543 C544 1.398 . S
C544 H532 0.950 . S
C544 C543 1.398 . S
C544 C545 1.391 . S
C545 H533 0.950 . S
C545 C541 1.393 . S
C545 C544 1.391 . S
H546 C554 0.950 . S
H547 C559 0.950 . S
H548 C556 0.950 . S
H549 C558 0.950 . S
H550 C560 0.950 . S
H551 C562 0.950 . S
H552 C564 0.950 . S
H553 C565 0.950 . S
C554 H546 0.950 . S
C554 C555 1.386 . S
C554 C556 1.391 . S
C555 C554 1.386 . S
C555 C559 1.393 . S
C556 H548 0.950 . S
C556 C554 1.391 . S
C556 C557 1.384 1_556 S
C557 C556 1.384 1_554 S
C557 C558 1.392 . S
C557 C563 1.512 . S
C558 H549 0.950 . S
C558 C557 1.392 . S
C558 C559 1.391 1_554 S
C559 H547 0.950 . S
C559 C555 1.393 . S
C559 C558 1.391 1_556 S
C560 H550 0.950 . S
C560 C561 1.386 . S
C560 C562 1.391 . S
C561 C560 1.386 . S
C561 C565 1.393 . S
C562 H551 0.950 . S
C562 C560 1.391 . S
C562 C563 1.400 . S
C563 C557 1.512 . S
C563 C562 1.400 . S
C563 C564 1.398 . S
C564 H552 0.950 . S
C564 C563 1.398 . S
C564 C565 1.391 . S
C565 H553 0.950 . S
C565 C561 1.393 . S
C565 C564 1.391 . S
H566 C574 0.950 . S
H567 C579 0.950 . S
H568 C576 0.950 . S
H569 C578 0.950 . S
H570 C580 0.950 . S
H571 C582 0.950 . S
H572 C584 0.950 . S
H573 C585 0.950 . S
C574 H566 0.950 . S
C574 C575 1.386 . S
C574 C576 1.391 . S
C575 C574 1.386 . S
C575 C579 1.393 . S
C576 H568 0.950 . S
C576 C574 1.391 . S
C576 C577 1.400 . S
C577 C576 1.400 . S
C577 C578 1.398 . S
C577 C583 1.491 . S
C578 H569 0.950 . S
C578 C577 1.398 . S
C578 C579 1.391 . S
C579 H567 0.950 . S
C579 C575 1.393 . S
C579 C578 1.391 . S
C580 H570 0.950 . S
C580 C581 1.386 . S
C580 C582 1.391 . S
C581 C580 1.386 . S
C581 C585 1.393 . S
C582 H571 0.950 . S
C582 C580 1.391 . S
C582 C583 1.400 . S
C583 C577 1.491 . S
C583 C582 1.400 . S
C583 C584 1.398 . S
C584 H572 0.950 . S
C584 C583 1.398 . S
C584 C585 1.391 . S
C585 H573 0.950 . S
C585 C581 1.393 . S
C585 C584 1.391 . S
H586 C594 0.950 . S
H587 C599 0.950 . S
H588 C596 0.950 . S
H589 C598 0.950 . S
H590 C600 0.950 . S
H591 C602 0.950 . S
H592 C604 0.950 . S
H593 C605 0.950 . S
C594 H586 0.950 . S
C594 C595 1.386 . S
C594 C596 1.391 . S
C595 C594 1.386 . S
C595 C599 1.393 . S
C596 H588 0.950 . S
C596 C594 1.391 . S
C596 C597 1.400 . S
C597 C596 1.400 . S
C597 C598 1.398 . S
C597 C603 1.491 . S
C598 H589 0.950 . S
C598 C597 1.398 . S
C598 C599 1.391 . S
C599 H587 0.950 . S
C599 C595 1.393 . S
C599 C598 1.391 . S
C600 H590 0.950 . S
C600 C601 1.386 . S
C600 C602 1.391 . S
C601 C600 1.386 . S
C601 C605 1.393 . S
C602 H591 0.950 . S
C602 C600 1.391 . S
C602 C603 1.400 . S
C603 C597 1.491 . S
C603 C602 1.400 . S
C603 C604 1.398 . S
C604 H592 0.950 . S
C604 C603 1.398 . S
C604 C605 1.391 . S
C605 H593 0.950 . S
C605 C601 1.393 . S
C605 C604 1.391 . S
H606 C614 0.950 . S
H607 C619 0.950 . S
H608 C616 0.950 . S
H609 C618 0.950 . S
H610 C620 0.950 . S
H611 C622 0.950 . S
H612 C624 0.950 . S
H613 C625 0.950 . S
C614 H606 0.950 . S
C614 C615 1.386 . S
C614 C616 1.391 . S
C615 C614 1.386 . S
C615 C619 1.393 . S
C616 H608 0.950 . S
C616 C614 1.391 . S
C616 C617 1.400 . S
C617 C616 1.400 . S
C617 C618 1.398 . S
C617 C623 1.491 . S
C618 H609 0.950 . S
C618 C617 1.398 . S
C618 C619 1.391 . S
C619 H607 0.950 . S
C619 C615 1.393 . S
C619 C618 1.391 . S
C620 H610 0.950 . S
C620 C621 1.386 . S
C620 C622 1.391 . S
C621 C620 1.386 . S
C621 C625 1.393 . S
C622 H611 0.950 . S
C622 C620 1.391 . S
C622 C623 1.400 . S
C623 C617 1.491 . S
C623 C622 1.400 . S
C623 C624 1.398 . S
C624 H612 0.950 . S
C624 C623 1.398 . S
C624 C625 1.391 . S
C625 H613 0.950 . S
C625 C621 1.393 . S
C625 C624 1.391 . S
H626 C634 0.950 . S
H627 C639 0.950 . S
H628 C636 0.950 . S
H629 C638 0.950 . S
H630 C640 0.950 . S
H631 C642 0.950 . S
H632 C644 0.950 . S
H633 C645 0.950 . S
C634 H626 0.950 . S
C634 C635 1.386 . S
C634 C636 1.391 . S
C635 C634 1.386 . S
C635 C639 1.393 . S
C636 H628 0.950 . S
C636 C634 1.391 . S
C636 C637 1.400 . S
C637 C636 1.400 . S
C637 C638 1.398 . S
C637 C643 1.491 . S
C638 H629 0.950 . S
C638 C637 1.398 . S
C638 C639 1.391 . S
C639 H627 0.950 . S
C639 C635 1.393 . S
C639 C638 1.391 . S
C640 H630 0.950 . S
C640 C641 1.386 . S
C640 C642 1.391 . S
C641 C640 1.386 . S
C641 C645 1.393 . S
C642 H631 0.950 . S
C642 C640 1.391 . S
C642 C643 1.400 . S
C643 C637 1.491 . S
C643 C642 1.400 . S
C643 C644 1.398 . S
C644 H632 0.950 . S
C644 C643 1.398 . S
C644 C645 1.391 . S
C645 H633 0.950 . S
C645 C641 1.393 . S
C645 C644 1.391 . S
H646 C654 0.950 . S
H647 C659 0.950 . S
H648 C656 0.950 . S
H649 C658 0.950 . S
H650 C660 0.950 . S
H651 C662 0.950 . S
H652 C664 0.950 . S
H653 C665 0.950 . S
C654 H646 0.950 . S
C654 C655 1.386 . S
C654 C656 1.391 . S
C655 C654 1.386 . S
C655 C659 1.393 . S
C656 H648 0.950 . S
C656 C654 1.391 . S
C656 C657 1.400 . S
C657 C656 1.400 . S
C657 C658 1.398 . S
C657 C663 1.491 . S
C658 H649 0.950 . S
C658 C657 1.398 . S
C658 C659 1.391 . S
C659 H647 0.950 . S
C659 C655 1.393 . S
C659 C658 1.391 . S
C660 H650 0.950 . S
C660 C661 1.386 . S
C660 C662 1.391 . S
C661 C660 1.386 . S
C661 C665 1.393 . S
C662 H651 0.950 . S
C662 C660 1.391 . S
C662 C663 1.400 . S
C663 C657 1.491 . S
C663 C662 1.400 . S
C663 C664 1.398 . S
C664 H652 0.950 . S
C664 C663 1.398 . S
C664 C665 1.391 . S
C665 H653 0.950 . S
C665 C661 1.393 . S
C665 C664 1.391 . S
H666 C674 0.950 . S
H667 C679 0.950 . S
H668 C676 0.950 . S
H669 C678 0.950 . S
H670 C680 0.950 . S
H671 C682 0.950 . S
H672 C684 0.950 . S
H673 C685 0.950 . S
C674 H666 0.950 . S
C674 C675 1.386 . S
C674 C676 1.391 . S
C675 C674 1.386 . S
C675 C679 1.393 . S
C676 H668 0.950 . S
C676 C674 1.391 . S
C676 C677 1.400 . S
C677 C676 1.400 . S
C677 C678 1.398 . S
C677 C683 1.491 . S
C678 H669 0.950 . S
C678 C677 1.398 . S
C678 C679 1.391 . S
C679 H667 0.950 . S
C679 C675 1.393 . S
C679 C678 1.391 . S
C680 H670 0.950 . S
C680 C681 1.386 . S
C680 C682 1.391 . S
C681 C680 1.386 . S
C681 C685 1.393 . S
C682 H671 0.950 . S
C682 C680 1.391 . S
C682 C683 1.400 . S
C683 C677 1.491 . S
C683 C682 1.400 . S
C683 C684 1.398 . S
C684 H672 0.950 . S
C684 C683 1.398 . S
C684 C685 1.391 . S
C685 H673 0.950 . S
C685 C681 1.393 . S
C685 C684 1.391 . S
H686 C694 0.950 . S
H687 C699 0.950 . S
H688 C696 0.950 . S
H689 C698 0.950 . S
H690 C700 0.950 . S
H691 C702 0.950 . S
H692 C704 0.950 . S
H693 C705 0.950 . S
C694 H686 0.950 . S
C694 C695 1.386 . S
C694 C696 1.391 . S
C695 C694 1.386 . S
C695 C699 1.393 . S
C696 H688 0.950 . S
C696 C694 1.391 . S
C696 C697 1.400 . S
C697 C696 1.400 . S
C697 C698 1.398 . S
C697 C703 1.491 . S
C698 H689 0.950 . S
C698 C697 1.398 . S
C698 C699 1.391 . S
C699 H687 0.950 . S
C699 C695 1.393 . S
C699 C698 1.391 . S
C700 H690 0.950 . S
C700 C701 1.386 . S
C700 C702 1.391 . S
C701 C700 1.386 . S
C701 C705 1.393 . S
C702 H691 0.950 . S
C702 C700 1.391 . S
C702 C703 1.400 . S
C703 C697 1.491 . S
C703 C702 1.400 . S
C703 C704 1.398 . S
C704 H692 0.950 . S
C704 C703 1.398 . S
C704 C705 1.391 . S
C705 H693 0.950 . S
C705 C701 1.393 . S
C705 C704 1.391 . S
H706 C714 0.950 . S
H707 C719 0.950 . S
H708 C716 0.950 . S
H709 C718 0.950 . S
H710 C720 0.950 . S
H711 C722 0.950 . S
H712 C724 0.950 . S
H713 C725 0.950 . S
C714 H706 0.950 . S
C714 C715 1.386 . S
C714 C716 1.391 . S
C715 C714 1.386 . S
C715 C719 1.393 . S
C716 H708 0.950 . S
C716 C714 1.391 . S
C716 C717 1.400 . S
C717 C716 1.400 . S
C717 C718 1.398 . S
C717 C723 1.491 . S
C718 H709 0.950 . S
C718 C717 1.398 . S
C718 C719 1.391 . S
C719 H707 0.950 . S
C719 C715 1.393 . S
C719 C718 1.391 . S
C720 H710 0.950 . S
C720 C721 1.386 . S
C720 C722 1.391 . S
C721 C720 1.386 . S
C721 C725 1.393 . S
C722 H711 0.950 . S
C722 C720 1.391 . S
C722 C723 1.400 . S
C723 C717 1.491 . S
C723 C722 1.400 . S
C723 C724 1.398 . S
C724 H712 0.950 . S
C724 C723 1.398 . S
C724 C725 1.391 . S
C725 H713 0.950 . S
C725 C721 1.393 . S
C725 C724 1.391 . S
H726 C734 0.950 . S
H727 C739 0.950 . S
H728 C736 0.950 . S
H729 C738 0.950 . S
H730 C740 0.950 . S
H731 C742 0.950 . S
H732 C744 0.950 . S
H733 C745 0.950 . S
C734 H726 0.950 . S
C734 C735 1.386 . S
C734 C736 1.391 . S
C735 C734 1.386 . S
C735 C739 1.393 . S
C736 H728 0.950 . S
C736 C734 1.391 . S
C736 C737 1.400 . S
C737 C736 1.400 . S
C737 C738 1.398 . S
C737 C743 1.491 . S
C738 H729 0.950 . S
C738 C737 1.398 . S
C738 C739 1.391 . S
C739 H727 0.950 . S
C739 C735 1.393 . S
C739 C738 1.391 . S
C740 H730 0.950 . S
C740 C741 1.386 . S
C740 C742 1.391 . S
C741 C740 1.386 . S
C741 C745 1.393 . S
C742 H731 0.950 . S
C742 C740 1.391 . S
C742 C743 1.400 . S
C743 C737 1.491 . S
C743 C742 1.400 . S
C743 C744 1.398 . S
C744 H732 0.950 . S
C744 C743 1.398 . S
C744 C745 1.391 . S
C745 H733 0.950 . S
C745 C741 1.393 . S
C745 C744 1.391 . S
H746 C754 0.950 . S
H747 C759 0.950 . S
H748 C756 0.950 . S
H749 C758 0.950 . S
H750 C760 0.950 . S
H751 C762 0.950 . S
H752 C764 0.950 . S
H753 C765 0.950 . S
C754 H746 0.950 . S
C754 C755 1.386 . S
C754 C756 1.391 . S
C755 C754 1.386 . S
C755 C759 1.393 . S
C756 H748 0.950 . S
C756 C754 1.391 . S
C756 C757 1.400 . S
C757 C756 1.400 . S
C757 C758 1.398 . S
C757 C763 1.491 . S
C758 H749 0.950 . S
C758 C757 1.398 . S
C758 C759 1.391 . S
C759 H747 0.950 . S
C759 C755 1.393 . S
C759 C758 1.391 . S
C760 H750 0.950 . S
C760 C761 1.386 . S
C760 C762 1.391 . S
C761 C760 1.386 . S
C761 C765 1.393 . S
C762 H751 0.950 . S
C762 C760 1.391 . S
C762 C763 1.400 . S
C763 C757 1.491 . S
C763 C762 1.400 . S
C763 C764 1.398 . S
C764 H752 0.950 . S
C764 C763 1.398 . S
C764 C765 1.391 . S
C765 H753 0.950 . S
C765 C761 1.393 . S
C765 C764 1.391 . S
H766 C774 0.950 . S
H767 C779 0.950 . S
H768 C776 0.950 . S
H769 C778 0.950 . S
H770 C780 0.950 . S
H771 C782 0.950 . S
H772 C784 0.950 . S
H773 C785 0.950 . S
C774 H766 0.950 . S
C774 C775 1.386 . S
C774 C776 1.391 . S
C775 C774 1.386 . S
C775 C779 1.393 . S
C776 H768 0.950 . S
C776 C774 1.391 . S
C776 C777 1.400 . S
C777 C776 1.400 . S
C777 C778 1.398 . S
C777 C783 1.491 . S
C778 H769 0.950 . S
C778 C777 1.398 . S
C778 C779 1.391 . S
C779 H767 0.950 . S
C779 C775 1.393 . S
C779 C778 1.391 . S
C780 H770 0.950 . S
C780 C781 1.386 . S
C780 C782 1.391 . S
C781 C780 1.386 . S
C781 C785 1.393 . S
C782 H771 0.950 . S
C782 C780 1.391 . S
C782 C783 1.400 . S
C783 C777 1.491 . S
C783 C782 1.400 . S
C783 C784 1.398 . S
C784 H772 0.950 . S
C784 C783 1.398 . S
C784 C785 1.391 . S
C785 H773 0.950 . S
C785 C781 1.393 . S
C785 C784 1.391 . S
H786 C794 0.950 . S
H787 C799 0.950 . S
H788 C796 0.950 . S
H789 C798 0.950 . S
H790 C800 0.950 . S
H791 C802 0.950 . S
H792 C804 0.950 . S
H793 C805 0.950 . S
C794 H786 0.950 . S
C794 C795 1.386 . S
C794 C796 1.391 . S
C795 C794 1.386 . S
C795 C799 1.393 . S
C796 H788 0.950 . S
C796 C794 1.391 . S
C796 C797 1.400 . S
C797 C796 1.400 . S
C797 C798 1.398 . S
C797 C803 1.491 . S
C798 H789 0.950 . S
C798 C797 1.398 . S
C798 C799 1.391 . S
C799 H787 0.950 . S
C799 C795 1.393 . S
C799 C798 1.391 . S
C800 H790 0.950 . S
C800 C801 1.386 . S
C800 C802 1.391 . S
C801 C800 1.386 . S
C801 C805 1.393 . S
C802 H791 0.950 . S
C802 C800 1.391 . S
C802 C803 1.400 . S
C803 C797 1.491 . S
C803 C802 1.400 . S
C803 C804 1.398 . S
C804 H792 0.950 . S
C804 C803 1.398 . S
C804 C805 1.391 . S
C805 H793 0.950 . S
C805 C801 1.393 . S
C805 C804 1.391 . S
H806 C814 0.950 . S
H807 C819 0.950 . S
H808 C816 0.950 . S
H809 C818 0.950 . S
H810 C820 0.950 . S
H811 C822 0.950 . S
H812 C824 0.950 . S
H813 C825 0.950 . S
C814 H806 0.950 . S
C814 C815 1.386 . S
C814 C816 1.391 . S
C815 C814 1.386 . S
C815 C819 1.393 . S
C816 H808 0.950 . S
C816 C814 1.391 . S
C816 C817 1.400 . S
C817 C816 1.400 . S
C817 C818 1.398 . S
C817 C823 1.491 . S
C818 H809 0.950 . S
C818 C817 1.398 . S
C818 C819 1.391 . S
C819 H807 0.950 . S
C819 C815 1.393 . S
C819 C818 1.391 . S
C820 H810 0.950 . S
C820 C821 1.386 . S
C820 C822 1.391 . S
C821 C820 1.386 . S
C821 C825 1.393 . S
C822 H811 0.950 . S
C822 C820 1.391 . S
C822 C823 1.400 . S
C823 C817 1.491 . S
C823 C822 1.400 . S
C823 C824 1.398 . S
C824 H812 0.950 . S
C824 C823 1.398 . S
C824 C825 1.391 . S
C825 H813 0.950 . S
C825 C821 1.393 . S
C825 C824 1.391 . S
H826 C834 0.950 . S
H827 C839 0.950 . S
H828 C836 0.950 . S
H829 C838 0.950 . S
H830 C840 0.950 1_556 S
H831 C842 0.950 . S
H832 C844 0.950 . S
H833 C845 0.950 . S
C834 H826 0.950 . S
C834 C835 1.386 . S
C834 C836 1.391 . S
C835 C834 1.386 . S
C835 C839 1.393 . S
C836 H828 0.950 . S
C836 C834 1.391 . S
C836 C837 1.400 . S
C837 C836 1.400 . S
C837 C838 1.398 . S
C837 C843 1.491 . S
C838 H829 0.950 . S
C838 C837 1.398 . S
C838 C839 1.391 . S
C839 H827 0.950 . S
C839 C835 1.393 . S
C839 C838 1.391 . S
C840 H830 0.950 1_554 S
C840 C841 1.386 . S
C840 C842 1.391 1_554 S
C841 C840 1.386 . S
C841 C845 1.393 . S
C842 H831 0.950 . S
C842 C840 1.391 1_556 S
C842 C843 1.400 . S
C843 C837 1.491 . S
C843 C842 1.400 . S
C843 C844 1.398 1_556 S
C844 H832 0.950 . S
C844 C843 1.398 1_554 S
C844 C845 1.391 . S
C845 H833 0.950 . S
C845 C841 1.393 . S
C845 C844 1.391 . S
H846 C854 0.950 . S
H847 C859 0.950 . S
H848 C856 0.950 . S
H849 C858 0.950 . S
H850 C860 0.950 . S
H851 C862 0.950 . S
H852 C864 0.950 . S
H853 C865 0.950 . S
C854 H846 0.950 . S
C854 C855 1.386 . S
C854 C856 1.391 . S
C855 C854 1.386 . S
C855 C859 1.393 . S
C856 H848 0.950 . S
C856 C854 1.391 . S
C856 C857 1.400 . S
C857 C856 1.400 . S
C857 C858 1.398 . S
C857 C863 1.491 . S
C858 H849 0.950 . S
C858 C857 1.398 . S
C858 C859 1.391 . S
C859 H847 0.950 . S
C859 C855 1.393 . S
C859 C858 1.391 . S
C860 H850 0.950 . S
C860 C861 1.386 . S
C860 C862 1.391 . S
C861 C860 1.386 . S
C861 C865 1.393 . S
C862 H851 0.950 . S
C862 C860 1.391 . S
C862 C863 1.400 . S
C863 C857 1.491 . S
C863 C862 1.400 . S
C863 C864 1.398 . S
C864 H852 0.950 . S
C864 C863 1.398 . S
C864 C865 1.391 . S
C865 H853 0.950 . S
C865 C861 1.393 . S
C865 C864 1.391 . S
H866 C874 0.950 . S
H867 C879 0.950 . S
H868 C876 0.950 . S
H869 C878 0.950 . S
H870 C880 0.950 . S
H871 C882 0.950 . S
H872 C884 0.950 . S
H873 C885 0.950 . S
C874 H866 0.950 . S
C874 C875 1.386 . S
C874 C876 1.391 . S
C875 C874 1.386 . S
C875 C879 1.393 . S
C876 H868 0.950 . S
C876 C874 1.391 . S
C876 C877 1.400 . S
C877 C876 1.400 . S
C877 C878 1.398 . S
C877 C883 1.491 . S
C878 H869 0.950 . S
C878 C877 1.398 . S
C878 C879 1.391 . S
C879 H867 0.950 . S
C879 C875 1.393 . S
C879 C878 1.391 . S
C880 H870 0.950 . S
C880 C881 1.386 . S
C880 C882 1.391 . S
C881 C880 1.386 . S
C881 C885 1.393 . S
C882 H871 0.950 . S
C882 C880 1.391 . S
C882 C883 1.400 . S
C883 C877 1.491 . S
C883 C882 1.400 . S
C883 C884 1.398 . S
C884 H872 0.950 . S
C884 C883 1.398 . S
C884 C885 1.391 . S
C885 H873 0.950 . S
C885 C881 1.393 . S
C885 C884 1.391 . S
C421 C110 1.652 . S
C415 C10 1.670 . S
C441 C179 1.458 . S
C435 C15 1.422 . S
C461 C117 1.657 . S
C455 C26 1.668 . S
C481 C180 1.466 . S
C475 C37 1.458 . S
C501 C233 1.769 . S
C495 C4 1.774 . S
C521 C269 1.478 . S
C515 C16 1.458 . S
C535 C27 1.755 . S
C541 C329 1.743 . S
C561 C392 1.492 . S
C555 C43 1.489 . S
C581 C232 1.589 . S
C575 C21 1.575 . S
C595 C32 1.439 . S
C601 C276 1.428 . S
C621 C322 1.765 . S
C615 C38 1.760 . S
C641 C391 1.701 . S
C635 C5 1.698 . S
C655 C49 1.484 . S
C661 C170 1.508 . S
C681 C127 1.743 1_655 S
C675 C60 1.760 . S
C695 C76 1.495 . S
C701 C163 1.493 . S
C715 C81 1.715 . S
C721 C126 1.721 . S
C741 C338 1.525 . S
C735 C54 1.525 . S
C761 C382 1.703 . S
C755 C59 1.715 . S
C781 C216 1.598 . S
C775 C70 1.600 . S
C795 C87 1.639 . S
C801 C285 1.632 . S
C821 C339 1.664 . S
C815 C65 1.672 . S
C841 C375 1.736 . S
C835 C71 1.715 . S
C861 C223 1.591 . S
C855 C82 1.585 . S
C875 C48 1.558 . S
C881 C286 1.560 . S
