# Generated by pormake.
# Topology pyr, (3,6)-cn, num edge types: 1
# Building blocks:
#     Node 0, Type 0, BuildingBlock: MIDCAF_clean_linker_0, # of connection points: 3
#     Node 1, Type 0, BuildingBlock: MIDCAF_clean_linker_0, # of connection points: 3
#     Node 2, Type 0, BuildingBlock: MIDCAF_clean_linker_0, # of connection points: 3
#     Node 3, Type 0, BuildingBlock: MIDCAF_clean_linker_0, # of connection points: 3
#     Node 4, Type 0, BuildingBlock: MIDCAF_clean_linker_0, # of connection points: 3
#     Node 5, Type 0, BuildingBlock: MIDCAF_clean_linker_0, # of connection points: 3
#     Node 6, Type 0, BuildingBlock: MIDCAF_clean_linker_0, # of connection points: 3
#     Node 7, Type 0, BuildingBlock: MIDCAF_clean_linker_0, # of connection points: 3
#     Node 8, Type 1, BuildingBlock: FUNLAD_clean_sbu_0, # of connection points: 6
#     Node 9, Type 1, BuildingBlock: FUNLAD_clean_sbu_0, # of connection points: 6
#     Node 10, Type 1, BuildingBlock: FUNLAD_clean_sbu_0, # of connection points: 6
#     Node 11, Type 1, BuildingBlock: FUNLAD_clean_sbu_0, # of connection points: 6
#     Edge 12, Type (0, 1), BuildingBlock: EZIPEK_clean_linker_0, # of connection points: 2
#     Edge 13, Type (0, 1), BuildingBlock: EZIPEK_clean_linker_0, # of connection points: 2
#     Edge 14, Type (0, 1), BuildingBlock: EZIPEK_clean_linker_0, # of connection points: 2
#     Edge 15, Type (0, 1), BuildingBlock: EZIPEK_clean_linker_0, # of connection points: 2
#     Edge 16, Type (0, 1), BuildingBlock: EZIPEK_clean_linker_0, # of connection points: 2
#     Edge 17, Type (0, 1), BuildingBlock: EZIPEK_clean_linker_0, # of connection points: 2
#     Edge 18, Type (0, 1), BuildingBlock: EZIPEK_clean_linker_0, # of connection points: 2
#     Edge 19, Type (0, 1), BuildingBlock: EZIPEK_clean_linker_0, # of connection points: 2
#     Edge 20, Type (0, 1), BuildingBlock: EZIPEK_clean_linker_0, # of connection points: 2
#     Edge 21, Type (0, 1), BuildingBlock: EZIPEK_clean_linker_0, # of connection points: 2
#     Edge 22, Type (0, 1), BuildingBlock: EZIPEK_clean_linker_0, # of connection points: 2
#     Edge 23, Type (0, 1), BuildingBlock: EZIPEK_clean_linker_0, # of connection points: 2
#     Edge 24, Type (0, 1), BuildingBlock: EZIPEK_clean_linker_0, # of connection points: 2
#     Edge 25, Type (0, 1), BuildingBlock: EZIPEK_clean_linker_0, # of connection points: 2
#     Edge 26, Type (0, 1), BuildingBlock: EZIPEK_clean_linker_0, # of connection points: 2
#     Edge 27, Type (0, 1), BuildingBlock: EZIPEK_clean_linker_0, # of connection points: 2
#     Edge 28, Type (0, 1), BuildingBlock: EZIPEK_clean_linker_0, # of connection points: 2
#     Edge 29, Type (0, 1), BuildingBlock: EZIPEK_clean_linker_0, # of connection points: 2
#     Edge 30, Type (0, 1), BuildingBlock: EZIPEK_clean_linker_0, # of connection points: 2
#     Edge 31, Type (0, 1), BuildingBlock: EZIPEK_clean_linker_0, # of connection points: 2
#     Edge 32, Type (0, 1), BuildingBlock: EZIPEK_clean_linker_0, # of connection points: 2
#     Edge 33, Type (0, 1), BuildingBlock: EZIPEK_clean_linker_0, # of connection points: 2
#     Edge 34, Type (0, 1), BuildingBlock: EZIPEK_clean_linker_0, # of connection points: 2
#     Edge 35, Type (0, 1), BuildingBlock: EZIPEK_clean_linker_0, # of connection points: 2
# Relax obj value: 0.087
# Max RMSD: 0.073
# Mean RMSD: 0.034
data_MOF--net-pry--node1-FUNLAD_clean_sbu_0--node2-MIDCAF_clean_linker_0--edge1-EZIPEK_clean_linker_0
_symmetry_space_group_name_H-M    P1
_symmetry_Int_Tables_number       1
_symmetry_cell_setting            triclinic
loop_
_symmetry_equiv_pos_as_xyz
'x, y, z'
_cell_length_a     34.310807
_cell_length_b     36.798024
_cell_length_c     37.018902
_cell_angle_alpha  90.198843
_cell_angle_beta   90.406716
_cell_angle_gamma 85.334286
loop_
_atom_site_label
_atom_site_type_symbol
_atom_site_fract_x
_atom_site_fract_y
_atom_site_fract_z
_atom_type_partial_charge
C0 C 0.07329 0.13813 0.30128 0.0
C1 C 0.09323 0.10658 0.3163 0.0
C2 C 0.12717 0.09202 0.29851 0.0
C3 C 0.14075 0.10832 0.26695 0.0
H4 H 0.23033 0.09352 0.18986 0.0
H5 H 0.28819 0.06523 0.15861 0.0
H6 H 0.27705 0.14972 0.0782 0.0
H7 H 0.21965 0.17825 0.10908 0.0
H8 H 0.17255 0.26032 0.14471 0.0
H9 H 0.14566 0.31621 0.11491 0.0
H10 H 0.0289 0.28612 0.13424 0.0
H11 H 0.05594 0.23078 0.16602 0.0
H12 H 0.07069 0.17881 0.25929 0.0
H13 H 0.04707 0.1502 0.31413 0.0
H14 H 0.14333 0.06783 0.30911 0.0
H15 H 0.16705 0.09592 0.25452 0.0
N16 N 0.16904 0.1414 0.20115 0.0
N17 N 0.16676 0.18843 0.15833 0.0
N18 N 0.11899 0.18936 0.20383 0.0
C19 C 0.18433 0.15648 0.17122 0.0
C20 C 0.13421 0.20519 0.17403 0.0
C21 C 0.1365 0.15744 0.21794 0.0
C22 C 0.21985 0.13847 0.15233 0.0
C23 C 0.24004 0.10617 0.16551 0.0
C24 C 0.27324 0.08981 0.14756 0.0
C25 C 0.28723 0.10512 0.1158 0.0
C26 C 0.26705 0.13717 0.10251 0.0
C27 C 0.23404 0.15356 0.12042 0.0
C28 C 0.11658 0.24075 0.15813 0.0
C29 C 0.14107 0.2657 0.14312 0.0
C30 C 0.12563 0.29787 0.12584 0.0
C31 C 0.08497 0.306 0.12175 0.0
C32 C 0.06032 0.2811 0.13688 0.0
C33 C 0.07585 0.24931 0.15524 0.0
C34 C 0.12104 0.14003 0.25177 0.0
C35 C 0.08695 0.15459 0.26967 0.0
C36 C 0.23744 0.93942 0.64468 0.0
C37 C 0.21894 0.92198 0.61613 0.0
C38 C 0.2348 0.8872 0.60538 0.0
C39 C 0.26822 0.87034 0.62259 0.0
H40 H 0.34346 0.78178 0.61517 0.0
H41 H 0.37038 0.72555 0.58669 0.0
H42 H 0.46736 0.71977 0.66135 0.0
H43 H 0.44042 0.77672 0.69053 0.0
H44 H 0.43295 0.84322 0.76206 0.0
H45 H 0.45678 0.87269 0.81693 0.0
H46 H 0.36823 0.96143 0.80355 0.0
H47 H 0.34422 0.93246 0.74923 0.0
H48 H 0.28399 0.93682 0.684 0.0
H49 H 0.22594 0.9662 0.65362 0.0
H50 H 0.22121 0.873 0.58358 0.0
H51 H 0.27933 0.84355 0.61336 0.0
N52 N 0.33971 0.83735 0.65649 0.0
N53 N 0.3874 0.83523 0.70271 0.0
N54 N 0.33825 0.88394 0.69986 0.0
C55 C 0.37204 0.81993 0.6723 0.0
C56 C 0.37053 0.86743 0.71681 0.0
C57 C 0.32253 0.86923 0.66976 0.0
C58 C 0.38952 0.78451 0.65555 0.0
C59 C 0.37059 0.7689 0.62587 0.0
C60 C 0.38601 0.7364 0.60929 0.0
C61 C 0.42111 0.718 0.6215 0.0
C62 C 0.44029 0.73324 0.65114 0.0
C63 C 0.42473 0.76594 0.66794 0.0
C64 C 0.38639 0.88507 0.75058 0.0
C65 C 0.41847 0.86901 0.77065 0.0
C66 C 0.43221 0.88595 0.80224 0.0
C67 C 0.41445 0.91956 0.81489 0.0
C68 C 0.38264 0.93563 0.79482 0.0
C69 C 0.36888 0.91878 0.76344 0.0
C70 C 0.2868 0.88759 0.65137 0.0
C71 C 0.27076 0.92246 0.66212 0.0
C72 C 0.52227 0.34519 0.99074 0.0
C73 C 0.54849 0.31499 0.99831 0.0
C74 C 0.58753 0.32005 1.00691 0.0
C75 C 0.60117 0.35468 1.00451 0.0
H76 H 0.52123 0.44274 0.90025 0.0
H77 H 0.50187 0.44688 0.83674 0.0
H78 H 0.60555 0.50065 0.81267 0.0
H79 H 0.62562 0.49655 0.87607 0.0
H80 H 0.69507 0.48872 0.9268 0.0
H81 H 0.76382 0.49731 0.93763 0.0
H82 H 0.76041 0.43901 0.03819 0.0
H83 H 0.6913 0.42962 0.02748 0.0
H84 H 0.51578 0.40225 0.97926 0.0
H85 H 0.49199 0.34158 0.98422 0.0
H86 H 0.60799 0.29684 0.01295 0.0
H87 H 0.63213 0.35736 1.00838 0.0
N88 N 0.57431 0.43308 0.94874 0.0
N89 N 0.62806 0.4667 0.93888 0.0
N90 N 0.62871 0.42575 0.98739 0.0
C91 C 0.59186 0.4579 0.92901 0.0
C92 C 0.64652 0.45117 0.96828 0.0
C93 C 0.59229 0.41695 0.97792 0.0
C94 C 0.57542 0.46871 0.89321 0.0
C95 C 0.53959 0.45624 0.88172 0.0
C96 C 0.5284 0.4585 0.84546 0.0
C97 C 0.55263 0.47358 0.82027 0.0
C98 C 0.58671 0.48874 0.83195 0.0
C99 C 0.59801 0.48645 0.86821 0.0
C100 C 0.68754 0.45842 0.97629 0.0
C101 C 0.70866 0.4778 0.95138 0.0
C102 C 0.74805 0.48264 0.95738 0.0
C103 C 0.76705 0.46855 0.98851 0.0
C104 C 0.74611 0.44982 0.01387 0.0
C105 C 0.70667 0.44462 1.00773 0.0
C106 C 0.57594 0.38441 0.99288 0.0
C107 C 0.53593 0.37974 0.98798 0.0
C108 C 0.76166 0.57976 0.51259 0.0
C109 C 0.74235 0.55485 0.49165 0.0
C110 C 0.76287 0.53449 0.46486 0.0
C111 C 0.80204 0.53953 0.45839 0.0
H112 H 0.87804 0.52676 0.37675 0.0
H113 H 0.89681 0.52054 0.31333 0.0
H114 H 0.00469 0.56851 0.33662 0.0
H115 H 0.98656 0.57481 0.40013 0.0
H116 H 0.99048 0.62703 0.46825 0.0
H117 H 0.01257 0.6883 0.47287 0.0
H118 H 0.90047 0.72823 0.51527 0.0
H119 H 0.87771 0.66701 0.5105 0.0
H120 H 0.81487 0.60495 0.52209 0.0
H121 H 0.74615 0.59554 0.53352 0.0
H122 H 0.74835 0.51503 0.44859 0.0
H123 H 0.81677 0.52374 0.43703 0.0
N124 N 0.87955 0.55581 0.44016 0.0
N125 N 0.93267 0.59116 0.44659 0.0
N126 N 0.87972 0.59994 0.48609 0.0
C127 C 0.91505 0.56469 0.42886 0.0
C128 C 0.91547 0.60888 0.47517 0.0
C129 C 0.86187 0.57289 0.46904 0.0
C130 C 0.93046 0.55193 0.39343 0.0
C131 C 0.90629 0.53502 0.36873 0.0
C132 C 0.91684 0.53154 0.33246 0.0
C133 C 0.95176 0.5446 0.32056 0.0
C134 C 0.97751 0.55854 0.34553 0.0
C135 C 0.96703 0.56207 0.38177 0.0
C136 C 0.93206 0.64232 0.48837 0.0
C137 C 0.97081 0.64857 0.47955 0.0
C138 C 0.98357 0.68349 0.48217 0.0
C139 C 0.95788 0.71254 0.49388 0.0
C140 C 0.92052 0.7059 0.50607 0.0
C141 C 0.90768 0.6709 0.50347 0.0
C142 C 0.82143 0.56524 0.47851 0.0
C143 C 0.80092 0.58498 0.50605 0.0
C144 C 0.72003 0.9161 0.87557 0.0
C145 C 0.7195 0.92065 0.91348 0.0
C146 C 0.75353 0.9083 0.9329 0.0
C147 C 0.78639 0.89119 0.91522 0.0
H148 H 0.83538 0.76497 0.88583 0.0
H149 H 0.86276 0.70922 0.91565 0.0
H150 H 0.97908 0.74175 0.89894 0.0
H151 H 0.95158 0.79682 0.867 0.0
H152 H 0.93446 0.84481 0.76973 0.0
H153 H 0.95855 0.87279 0.71646 0.0
H154 H 0.86268 0.95571 0.72095 0.0
H155 H 0.83864 0.92755 0.77387 0.0
H156 H 0.75284 0.89749 0.82862 0.0
H157 H 0.69448 0.9251 0.85963 0.0
H158 H 0.75454 0.91156 0.96197 0.0
H159 H 0.81169 0.88161 0.93123 0.0
N160 N 0.84057 0.83777 0.87293 0.0
N161 N 0.88792 0.83607 0.82695 0.0
N162 N 0.83689 0.88315 0.82823 0.0
C163 C 0.87313 0.82087 0.85731 0.0
C164 C 0.8698 0.8673 0.81195 0.0
C165 C 0.82229 0.86886 0.85884 0.0
C166 C 0.89111 0.78566 0.87366 0.0
C167 C 0.86687 0.76015 0.88803 0.0
C168 C 0.88261 0.72806 0.90531 0.0
C169 C 0.92329 0.72063 0.91011 0.0
C170 C 0.94766 0.74619 0.89573 0.0
C171 C 0.93188 0.77784 0.8773 0.0
C172 C 0.88564 0.88476 0.77832 0.0
C173 C 0.9195 0.87015 0.76045 0.0
C174 C 0.93441 0.88755 0.72994 0.0
C175 C 0.91787 0.92189 0.71686 0.0
C176 C 0.88112 0.93348 0.73239 0.0
C177 C 0.86613 0.9162 0.76279 0.0
C178 C 0.78705 0.88717 0.87736 0.0
C179 C 0.75352 0.90028 0.85775 0.0
C180 C 0.63189 0.09798 0.22803 0.0
C181 C 0.59217 0.10275 0.21664 0.0
C182 C 0.5703 0.13282 0.23337 0.0
C183 C 0.58457 0.15151 0.26368 0.0
H184 H 0.56546 0.24847 0.33991 0.0
H185 H 0.53798 0.30505 0.36943 0.0
H186 H 0.63471 0.29951 0.44432 0.0
H187 H 0.6621 0.24352 0.41565 0.0
H188 H 0.71588 0.17297 0.42621 0.0
H189 H 0.77392 0.14368 0.4563 0.0
H190 H 0.79387 0.07129 0.36554 0.0
H191 H 0.73545 0.10014 0.33516 0.0
H192 H 0.67625 0.10984 0.26648 0.0
H193 H 0.65322 0.08071 0.21341 0.0
H194 H 0.54198 0.14288 0.22307 0.0
H195 H 0.56578 0.17299 0.27616 0.0
N196 N 0.61961 0.19105 0.32688 0.0
N197 N 0.66674 0.18854 0.37359 0.0
N198 N 0.67023 0.14357 0.32851 0.0
C199 C 0.6343 0.20584 0.35784 0.0
C200 C 0.68496 0.15751 0.35945 0.0
C201 C 0.63762 0.15979 0.31185 0.0
C202 C 0.61624 0.24077 0.37506 0.0
C203 C 0.58094 0.25917 0.36267 0.0
C204 C 0.56508 0.29166 0.37965 0.0
C205 C 0.5841 0.30685 0.40938 0.0
C206 C 0.61923 0.28863 0.42164 0.0
C207 C 0.63491 0.25628 0.40495 0.0
C208 C 0.72057 0.13915 0.37797 0.0
C209 C 0.73239 0.15078 0.41247 0.0
C210 C 0.76567 0.13395 0.4299 0.0
C211 C 0.78842 0.10515 0.41335 0.0
C212 C 0.77684 0.09336 0.37899 0.0
C213 C 0.74331 0.10998 0.36162 0.0
C214 C 0.6223 0.14246 0.27777 0.0
C215 C 0.64605 0.11618 0.25845 0.0
C216 C 0.26311 0.54144 0.07161 0.0
C217 C 0.24376 0.55611 0.04088 0.0
C218 C 0.26442 0.57528 0.01567 0.0
C219 C 0.30388 0.58048 0.02164 0.0
H220 H 0.37814 0.66514 0.01408 0.0
H221 H 0.3994 0.72669 1.00808 0.0
H222 H 0.51342 0.68956 0.04939 0.0
H223 H 0.4928 0.62792 0.05523 0.0
H224 H 0.48281 0.59376 0.13352 0.0
H225 H 0.50026 0.58881 0.19729 0.0
H226 H 0.40921 0.5167 0.2139 0.0
H227 H 0.39064 0.5219 0.15004 0.0
H228 H 0.31635 0.53503 0.10178 0.0
H229 H 0.24755 0.5264 0.09122 0.0
H230 H 0.24986 0.58653 0.99166 0.0
H231 H 0.31897 0.59593 1.00206 0.0
N232 N 0.38163 0.59957 0.0416 0.0
N233 N 0.43559 0.59378 0.08079 0.0
N234 N 0.38258 0.55922 0.09064 0.0
C235 C 0.41768 0.60921 0.05124 0.0
C236 C 0.41842 0.56885 0.10069 0.0
C237 C 0.36415 0.57407 0.0609 0.0
C238 C 0.43355 0.64187 0.03589 0.0
C239 C 0.40824 0.66964 0.02045 0.0
C240 C 0.42023 0.70485 0.01714 0.0
C241 C 0.45764 0.71243 0.02892 0.0
C242 C 0.48435 0.68401 0.04043 0.0
C243 C 0.47245 0.64888 0.04373 0.0
C244 C 0.43478 0.55871 0.1367 0.0
C245 C 0.46688 0.57616 0.15037 0.0
C246 C 0.47697 0.57348 0.18684 0.0
C247 C 0.45567 0.55279 0.21005 0.0
C248 C 0.42577 0.5329 0.19614 0.0
C249 C 0.41529 0.5359 0.15967 0.0
C250 C 0.32331 0.56629 0.05279 0.0
C251 C 0.30252 0.5463 0.07745 0.0
C252 C 0.0743 0.32395 0.52847 0.0
C253 C 0.04129 0.31694 0.5486 0.0
C254 C 0.02127 0.34515 0.56813 0.0
C255 C 0.03621 0.37923 0.57023 0.0
H256 H 0.04243 0.4712 0.65079 0.0
H257 H 0.03874 0.47179 0.71712 0.0
H258 H 0.16458 0.45663 0.72376 0.0
H259 H 0.16853 0.45827 0.65805 0.0
H260 H 0.18314 0.51421 0.55703 0.0
H261 H 0.25179 0.52131 0.54343 0.0
H262 H 0.2681 0.40785 0.51314 0.0
H263 H 0.19895 0.40085 0.52564 0.0
H264 H 0.11636 0.36198 0.51674 0.0
H265 H 0.0899 0.30232 0.51316 0.0
H266 H 0.99559 0.34008 0.58361 0.0
H267 H 0.02152 0.39989 0.58737 0.0
N268 N 0.08496 0.43278 0.59634 0.0
N269 N 0.14007 0.46579 0.59192 0.0
N270 N 0.12515 0.42562 0.54538 0.0
C271 C 0.10846 0.45696 0.61066 0.0
C272 C 0.1482 0.45082 0.55902 0.0
C273 C 0.09286 0.41708 0.56369 0.0
C274 C 0.10573 0.46515 0.64947 0.0
C275 C 0.06923 0.46931 0.66657 0.0
C276 C 0.0671 0.46938 0.70427 0.0
C277 C 0.1014 0.46397 0.72515 0.0
C278 C 0.13785 0.46096 0.70805 0.0
C279 C 0.14003 0.46222 0.67055 0.0
C280 C 0.18591 0.457 0.54239 0.0
C281 C 0.20106 0.49112 0.54629 0.0
C282 C 0.24019 0.49519 0.53863 0.0
C283 C 0.26493 0.46502 0.52764 0.0
C284 C 0.24932 0.43142 0.5215 0.0
C285 C 0.20986 0.42753 0.52846 0.0
C286 C 0.07145 0.38547 0.5529 0.0
C287 C 0.08925 0.3581 0.53046 0.0
C288 C 0.03726 0.03831 0.4498 0.0
N289 N 0.01248 0.0908 0.54928 0.0
C290 C 0.04682 0.10565 0.54295 0.0
C291 C 0.04954 0.14288 0.54774 0.0
C292 C 0.01659 0.16478 0.55894 0.0
C293 C 0.98226 0.14866 0.56759 0.0
C294 C 0.98085 0.11115 0.56257 0.0
Zn295 Zn 0.00666 0.04037 0.52881 0.0
C296 C 0.93033 0.04043 0.48618 0.0
N297 N 0.9939 0.93715 0.4817 0.0
C298 C 0.02555 0.91485 0.47151 0.0
C299 C 0.95828 0.92415 0.48646 0.0
C300 C 0.95403 0.887 0.48343 0.0
C301 C 0.98681 0.86322 0.47582 0.0
C302 C 0.02265 0.8773 0.46854 0.0
Zn303 Zn 1.00048 0.98771 0.50173 0.0
O304 O 0.03266 0.05811 0.47806 0.0
C305 C 0.07698 0.98818 0.54441 0.0
O306 O 0.0275 1.00554 0.45142 0.0
H307 H 0.93376 0.94216 0.49537 0.0
H308 H 0.07136 0.08905 0.5319 0.0
H309 H 0.05362 0.92577 0.46819 0.0
O310 O 0.06356 0.02091 0.55037 0.0
O311 O 0.0573 0.96819 0.52429 0.0
H312 H 0.95381 0.09873 0.56712 0.0
O313 O 0.97369 0.97005 0.55221 0.0
O314 O 0.98078 0.02193 0.57935 0.0
O315 O 0.94392 1.00791 0.4794 0.0
O316 O 0.94973 0.05979 0.50716 0.0
C317 C 0.97048 0.98936 0.58086 0.0
H318 H 0.07638 0.15479 0.5409 0.0
H319 H 0.95644 0.16513 0.57637 0.0
H320 H 0.92608 0.87667 0.48928 0.0
H321 H 0.04839 0.85931 0.4626 0.0
C322 C 0.57709 0.98722 0.98608 0.0
N323 N 0.5142 0.09064 0.9828 0.0
C324 C 0.5483 0.10469 0.99229 0.0
C325 C 0.55177 0.14197 0.98999 0.0
C326 C 0.51987 0.16478 0.97779 0.0
C327 C 0.48599 0.1496 0.96559 0.0
C328 C 0.48373 0.11197 0.96841 0.0
Zn329 Zn 0.50678 0.04005 1.00159 0.0
C330 C 0.46994 0.99052 0.94798 0.0
N331 N 0.49176 0.93734 0.0461 0.0
C332 C 0.52318 0.91462 0.05626 0.0
C333 C 0.45592 0.92484 0.04076 0.0
C334 C 0.45127 0.88771 0.04286 0.0
C335 C 0.48389 0.86353 0.05025 0.0
C336 C 0.5199 0.87713 0.05834 0.0
Zn337 Zn 0.4996 0.98773 0.02706 0.0
O338 O 0.56572 0.02098 0.98443 0.0
C339 C 0.53629 0.03615 0.08121 0.0
O340 O 0.55488 0.96647 1.00226 0.0
H341 H 0.43159 0.94328 0.03206 0.0
H342 H 0.57187 0.08737 1.00423 0.0
H343 H 0.55135 0.92523 0.06022 0.0
O344 O 0.52903 0.05772 0.05468 0.0
O345 O 0.52924 1.00285 0.07715 0.0
H346 H 0.45679 0.1002 0.96142 0.0
O347 O 0.4443 0.01016 0.0512 0.0
O348 O 0.44793 0.05907 0.01871 0.0
O349 O 0.47023 0.97225 0.97716 0.0
O350 O 0.48411 0.02161 0.94892 0.0
C351 C 0.42953 0.04173 0.0419 0.0
H352 H 0.57825 0.15315 0.99949 0.0
H353 H 0.46098 0.16683 0.95601 0.0
H354 H 0.42317 0.87773 0.03646 0.0
H355 H 0.5455 0.85884 0.06418 0.0
C356 C 0.52792 0.44333 0.48439 0.0
N357 N 0.52368 0.48317 0.593 0.0
C358 C 0.51015 0.45262 0.60736 0.0
C359 C 0.51414 0.44586 0.64441 0.0
C360 C 0.53232 0.4708 0.66625 0.0
C361 C 0.54743 0.50108 0.65057 0.0
C362 C 0.54265 0.50686 0.61371 0.0
Zn363 Zn 0.51029 0.49996 0.54192 0.0
C364 C 0.57851 0.53194 0.5076 0.0
N365 N 0.4824 0.54192 0.43787 0.0
C366 C 0.45967 0.52065 0.41797 0.0
C367 C 0.49955 0.57024 0.42273 0.0
C368 C 0.49563 0.5768 0.38566 0.0
C369 C 0.47344 0.55424 0.36464 0.0
C370 C 0.45448 0.52658 0.38116 0.0
Zn371 Zn 0.49611 0.52467 0.48881 0.0
O372 O 0.53137 0.44712 0.51855 0.0
C373 C 0.4284 0.49136 0.52306 0.0
O374 O 0.51321 0.47049 0.46617 0.0
H375 H 0.51772 0.58663 0.43902 0.0
H376 H 0.49485 0.43438 0.5904 0.0
H377 H 0.44714 0.49777 0.43019 0.0
O378 O 0.45407 0.48138 0.54657 0.0
O379 O 0.43778 0.51054 0.49651 0.0
H380 H 0.55253 0.53132 0.60199 0.0
O381 O 0.47946 0.57898 0.51187 0.0
O382 O 0.48831 0.55323 0.56481 0.0
O383 O 0.55441 0.53798 0.48174 0.0
O384 O 0.56717 0.51783 0.53653 0.0
C385 C 0.47815 0.58162 0.54626 0.0
H386 H 0.50214 0.42227 0.65608 0.0
H387 H 0.56147 0.52077 0.66695 0.0
H388 H 0.51064 0.59832 0.37334 0.0
H389 H 0.43742 0.50866 0.36538 0.0
C390 C 0.98112 0.58404 0.98644 0.0
N391 N 0.98398 0.54047 0.09334 0.0
C392 C 0.99933 0.569 0.11029 0.0
C393 C 0.99418 0.57412 0.14744 0.0
C394 C 0.97297 0.54968 0.16671 0.0
C395 C 0.95586 0.52176 0.14834 0.0
C396 C 0.96183 0.51757 0.11145 0.0
Zn397 Zn 0.99935 0.52514 0.04231 0.0
C398 C 0.93024 0.49377 1.0041 0.0
N399 N 0.02884 0.48487 0.93821 0.0
C400 C 0.04858 0.50934 0.91999 0.0
C401 C 0.02462 0.45121 0.92432 0.0
C402 C 0.04277 0.44051 0.89174 0.0
C403 C 0.06711 0.46406 0.87396 0.0
C404 C 0.06678 0.49995 0.88762 0.0
Zn405 Zn 0.01082 0.50122 0.98828 0.0
O406 O 0.98207 0.57974 0.02067 0.0
C407 C 0.08013 0.53235 0.02609 0.0
O408 O 0.99163 0.55626 0.96693 0.0
H409 H 0.00769 0.43246 0.93873 0.0
H410 H 0.01701 0.58671 0.09537 0.0
H411 H 0.0513 0.53613 0.93106 0.0
O412 O 0.0563 0.54033 0.05142 0.0
O413 O 0.06858 0.51658 0.99793 0.0
H414 H 0.95029 0.49484 0.09768 0.0
O415 O 0.02802 0.4467 1.01041 0.0
O416 O 0.01812 0.47047 0.06381 0.0
O417 O 0.95427 0.48564 0.97888 0.0
O418 O 0.94146 0.50986 0.03231 0.0
C419 C 0.02864 0.44255 0.04463 0.0
H420 H 0.00769 0.59594 0.1612 0.0
H421 H 0.9394 0.50253 0.1627 0.0
H422 H 0.03678 0.41424 0.88128 0.0
H423 H 0.0805 0.52129 0.87379 0.0
C424 C 0.04492 0.06886 0.34964 0.0
C425 C 0.07887 0.08875 0.35051 0.0
C426 C 0.0883 0.07123 0.415 0.0
C427 C 0.05237 0.05428 0.41504 0.0
N428 N 0.99307 0.04293 0.38298 0.0
N429 N 0.12947 0.11339 0.38618 0.0
C430 C 0.02987 0.0546 0.38243 0.0
C431 C 0.09959 0.0911 0.38385 0.0
N432 N 0.02752 0.06256 0.31716 0.0
N433 N 0.11265 0.06711 0.44434 0.0
H434 H 0.13857 0.12822 0.36426 0.0
H435 H 0.14295 0.1197 0.41043 0.0
H436 H 0.10599 0.05229 0.46714 0.0
H437 H 0.141 0.07527 0.44477 0.0
H438 H 0.00558 0.04483 0.31391 0.0
H439 H 0.03732 0.07259 0.29282 0.0
H440 H 0.97339 0.04652 0.3615 0.0
H441 H 0.98069 0.03265 0.40604 0.0
C442 C 0.40505 0.94122 0.8805 0.0
C443 C 0.42877 0.93803 0.84899 0.0
C444 C 0.48029 0.96771 0.88285 0.0
C445 C 0.45513 0.97412 0.9131 0.0
N446 N 0.39069 0.97181 0.93787 0.0
N447 N 0.48657 0.95464 0.81861 0.0
C448 C 0.41671 0.96213 0.91106 0.0
C449 C 0.4657 0.95316 0.84979 0.0
N450 N 0.37192 0.92305 0.88187 0.0
N451 N 0.51895 0.97354 0.88621 0.0
H452 H 0.47705 0.94446 0.79404 0.0
H453 H 0.51148 0.96887 0.81642 0.0
H454 H 0.53104 0.98275 0.9101 0.0
H455 H 0.53973 0.96576 0.86669 0.0
H456 H 0.3556 0.92082 0.90525 0.0
H457 H 0.36265 0.90729 0.86048 0.0
H458 H 0.36113 0.96737 0.93641 0.0
H459 H 0.39781 0.98748 0.96013 0.0
C460 C 0.56661 0.44335 0.76072 0.0
C461 C 0.54443 0.47027 0.7812 0.0
C462 C 0.50777 0.49042 0.72705 0.0
C463 C 0.5337 0.46717 0.70597 0.0
N464 N 0.58969 0.42341 0.70161 0.0
N465 N 0.49591 0.52135 0.78434 0.0
C466 C 0.56346 0.44386 0.72249 0.0
C467 C 0.51526 0.49418 0.76457 0.0
N468 N 0.59008 0.41689 0.77792 0.0
N469 N 0.47581 0.50855 0.71111 0.0
H470 H 0.50038 0.52464 0.81202 0.0
H471 H 0.47751 0.5422 0.77297 0.0
H472 H 0.46951 0.5063 0.68361 0.0
H473 H 0.45373 0.52315 0.72549 0.0
H474 H 0.60383 0.39438 0.76472 0.0
H475 H 0.59318 0.41565 0.80595 0.0
H476 H 0.61487 0.40931 0.71189 0.0
H477 H 0.58769 0.42239 0.6735 0.0
C478 C 0.98615 0.52154 0.26451 0.0
C479 C 0.95932 0.54736 0.28146 0.0
C480 C 0.9426 0.57617 0.22323 0.0
C481 C 0.97056 0.55126 0.2065 0.0
N482 N 0.0244 0.50509 0.21123 0.0
N483 N 0.918 0.60365 0.27899 0.0
C484 C 0.99408 0.52542 0.22721 0.0
C485 C 0.93935 0.57607 0.26141 0.0
N486 N 1.00294 0.49268 0.2838 0.0
N487 N 0.91818 0.59891 0.20255 0.0
H488 H 0.91471 0.60446 0.30698 0.0
H489 H 0.90626 0.62728 0.26625 0.0
H490 H 0.9203 0.60031 0.1745 0.0
H491 H 0.89411 0.61456 0.21283 0.0
H492 H 0.01932 0.4707 0.27212 0.0
H493 H 0.99814 0.48929 0.31134 0.0
H494 H 0.04502 0.4884 0.2255 0.0
H495 H 0.03102 0.50727 0.18389 0.0
C496 C 0.32289 0.05524 0.07713 0.0
C497 C 0.32353 0.08848 0.09682 0.0
C498 C 0.39106 0.09406 0.07567 0.0
C499 C 0.39218 0.05876 0.05912 0.0
N500 N 0.35837 1.00548 0.04473 0.0
N501 N 0.36098 0.13596 0.12012 0.0
C502 C 0.35789 0.03922 0.06034 0.0
C503 C 0.35833 0.10691 0.09734 0.0
N504 N 0.28819 0.03981 0.07297 0.0
N505 N 0.4209 0.11596 0.07067 0.0
H506 H 0.33807 0.14605 0.13666 0.0
H507 H 0.38701 0.1478 0.12534 0.0
H508 H 0.44688 0.1079 0.0576 0.0
H509 H 0.41885 0.14351 0.0776 0.0
H510 H 0.28424 0.01798 0.05576 0.0
H511 H 0.26222 0.05066 0.08467 0.0
H512 H 0.33695 0.98752 0.04899 0.0
H513 H 0.38096 0.99478 0.02822 0.0
C514 C 0.18408 0.95146 0.56118 0.0
C515 C 0.18272 0.9398 0.59778 0.0
C516 C 0.11345 0.96408 0.60036 0.0
C517 C 0.11382 0.97252 0.56286 0.0
N518 N 0.14845 0.97061 0.50647 0.0
N519 N 0.1439 0.9293 0.65017 0.0
C520 C 0.14885 0.96499 0.54295 0.0
C521 C 0.1468 0.94472 0.61684 0.0
N522 N 0.21938 0.95104 0.54424 0.0
N523 N 0.08123 0.97474 0.62046 0.0
H524 H 0.16729 0.91458 0.66296 0.0
H525 H 0.11755 0.92815 0.66373 0.0
H526 H 0.05581 0.98776 0.60941 0.0
H527 H 0.08063 0.97314 0.64852 0.0
H528 H 0.22314 0.96265 0.51903 0.0
H529 H 0.24568 0.94187 0.55673 0.0
H530 H 0.17149 0.96176 0.48962 0.0
H531 H 0.12394 0.98211 0.49256 0.0
C532 C 0.83786 0.44453 0.99088 0.0
C533 C 0.80892 0.47417 0.99444 0.0
C534 C 0.85987 0.5166 0.99993 0.0
C535 C 0.88869 0.48673 1.00003 0.0
N536 N 0.90526 0.42179 1.0017 0.0
N537 N 0.79204 0.53725 1.00976 0.0
C538 C 0.87777 0.45048 0.9972 0.0
C539 C 0.81985 0.50989 1.00126 0.0
N540 N 0.82742 0.41106 0.98017 0.0
N541 N 0.87068 0.55137 0.99669 0.0
H542 H 0.76235 0.53325 1.01143 0.0
H543 H 0.79879 0.56294 0.01854 0.0
H544 H 0.89972 0.55715 0.99376 0.0
H545 H 0.85077 0.57398 0.99293 0.0
H546 H 0.84763 0.38953 0.97332 0.0
H547 H 0.79851 0.40561 0.97521 0.0
H548 H 0.89834 0.39484 1.00378 0.0
H549 H 0.93477 0.42513 1.00647 0.0
C550 C 0.68927 0.51737 0.51256 0.0
C551 C 0.70032 0.55013 0.49717 0.0
C552 C 0.63136 0.57264 0.4911 0.0
C553 C 0.62032 0.53836 0.50324 0.0
N554 N 0.63935 0.47499 0.51647 0.0
N555 N 0.68237 0.60648 0.46585 0.0
C556 C 0.64942 0.50984 0.5116 0.0
C557 C 0.67151 0.57715 0.4848 0.0
N558 N 0.71679 0.49366 0.52864 0.0
N559 N 0.60381 0.60128 0.48671 0.0
H560 H 0.71147 0.61087 0.46078 0.0
H561 H 0.6625 0.62482 0.45257 0.0
H562 H 0.57408 0.59919 0.49061 0.0
H563 H 0.61073 0.6279 0.48208 0.0
H564 H 0.70973 0.47122 0.54363 0.0
H565 H 0.74636 0.49831 0.52995 0.0
H566 H 0.65985 0.45264 0.51893 0.0
H567 H 0.61077 0.4676 0.51393 0.0
C568 C 0.04161 0.36648 0.11698 0.0
C569 C 0.0688 0.33997 0.10101 0.0
C570 C 0.07173 0.3811 0.04817 0.0
C571 C 0.04137 0.40588 0.06257 0.0
N572 N 0.98901 0.41312 0.10606 0.0
N573 N 0.10046 0.31863 0.04603 0.0
C574 C 0.02392 0.39594 0.09567 0.0
C575 C 0.08105 0.34631 0.065 0.0
N576 N 0.03343 0.36458 0.15292 0.0
N577 N 0.09334 0.39087 0.01947 0.0
H578 H 0.1063 0.29247 0.05651 0.0
H579 H 0.10664 0.32051 0.01861 0.0
H580 H 0.08922 0.4159 1.00653 0.0
H581 H 0.11835 0.37538 1.01084 0.0
H582 H 0.01672 0.38517 0.16653 0.0
H583 H 0.04671 0.34459 0.16986 0.0
H584 H 0.97365 0.40505 0.12845 0.0
H585 H 0.97283 0.43174 0.08959 0.0
C586 C 0.54245 0.26174 0.95726 0.0
C587 C 0.53667 0.27774 0.99201 0.0
C588 C 0.51118 0.22192 0.01436 0.0
C589 C 0.5214 0.20465 0.981 0.0
N590 N 0.54819 0.20642 0.92116 0.0
N591 N 0.51741 0.27376 0.05418 0.0
C592 C 0.53708 0.22419 0.9524 0.0
C593 C 0.5212 0.25812 0.02069 0.0
N594 N 0.55273 0.28262 0.92889 0.0
N595 N 0.49172 0.20364 0.03981 0.0
H596 H 0.52337 0.30065 0.05935 0.0
H597 H 0.51057 0.25969 0.07732 0.0
H598 H 0.48453 0.17684 0.03628 0.0
H599 H 0.48001 0.21568 0.06323 0.0
H600 H 0.55324 0.27374 0.90217 0.0
H601 H 0.55811 0.31 0.93154 0.0
H602 H 0.5643 0.21775 0.90098 0.0
H603 H 0.5431 0.17928 0.91614 0.0
C604 C 0.96057 0.76749 0.45475 0.0
C605 C 0.96818 0.75041 0.48873 0.0
C606 C 0.99053 0.80682 0.51362 0.0
C607 C 0.98394 0.82354 0.47934 0.0
N608 N 0.96966 0.81905 0.41583 0.0
N609 N 0.99625 0.75084 0.5485 0.0
C610 C 0.97117 0.80356 0.4494 0.0
C611 C 0.98503 0.76919 0.51759 0.0
N612 N 0.94198 0.7496 0.42803 0.0
N613 N 1.00074 0.82727 0.54261 0.0
H614 H 0.9918 0.72343 0.55247 0.0
H615 H 0.01247 0.76182 0.5691 0.0
H616 H 0.00647 0.85459 0.54055 0.0
H617 H 1.00138 0.81792 0.56913 0.0
H618 H 0.93148 0.76196 0.40425 0.0
H619 H 0.93454 0.72281 0.4305 0.0
H620 H 0.96452 0.80479 0.39217 0.0
H621 H 0.97673 0.84568 0.4112 0.0
C622 C 0.41739 0.65034 0.60708 0.0
C623 C 0.43698 0.68275 0.60314 0.0
C624 C 0.48533 0.64832 0.56373 0.0
C625 C 0.4636 0.61698 0.56499 0.0
N626 N 0.40446 0.59109 0.58259 0.0
N627 N 0.4865 0.71378 0.5728 0.0
C628 C 0.42844 0.61883 0.58535 0.0
C629 C 0.47015 0.682 0.5801 0.0
N630 N 0.38872 0.64927 0.63239 0.0
N631 N 0.52134 0.64558 0.54805 0.0
H632 H 0.47656 0.7387 0.58433 0.0
H633 H 0.50775 0.71602 0.55317 0.0
H634 H 0.53336 0.62147 0.53637 0.0
H635 H 0.54062 0.66599 0.54944 0.0
H636 H 0.3762 0.62546 0.63944 0.0
H637 H 0.37998 0.67151 0.6488 0.0
H638 H 0.37663 0.59209 0.59378 0.0
H639 H 0.41075 0.56858 0.56583 0.0
C640 C 0.91961 0.97813 0.67311 0.0
C641 C 0.93606 0.94327 0.68534 0.0
C642 C 0.97971 0.94205 0.63185 0.0
C643 C 0.95804 0.97308 0.61648 0.0
N644 N 0.90411 0.01884 0.62266 0.0
N645 N 1.00144 0.91415 0.68803 0.0
C646 C 0.92718 0.9906 0.63727 0.0
C647 C 0.97161 0.93057 0.66788 0.0
N648 N 0.90306 1.00239 0.69758 0.0
N649 N 0.0091 0.92371 0.61283 0.0
H650 H 1.00045 0.91406 0.7162 0.0
H651 H 0.02927 0.9071 0.67781 0.0
H652 H 0.01868 0.93215 0.58783 0.0
H653 H 0.02249 0.8987 0.62132 0.0
H654 H 0.8936 0.02922 0.69108 0.0
H655 H 0.90523 0.99762 0.72532 0.0
H656 H 0.87882 0.03012 0.63522 0.0
H657 H 0.90814 0.02855 0.59662 0.0
C658 C 0.53492 0.08346 0.17509 0.0
C659 C 0.57516 0.0794 0.1857 0.0
C660 C 0.58746 0.04002 0.13152 0.0
C661 C 0.54957 0.05042 0.11752 0.0
N662 N 0.48587 0.08106 0.12777 0.0
N663 N 0.62437 0.02864 0.18643 0.0
C664 C 0.52306 0.07209 0.13978 0.0
C665 C 0.59792 0.05075 0.16737 0.0
N666 N 0.50716 0.09114 0.20083 0.0
N667 N 0.61387 0.0198 0.11075 0.0
H668 H 0.62554 0.02953 0.21459 0.0
H669 H 0.63955 1.00561 0.17533 0.0
H670 H 0.6073 0.0109 0.08478 0.0
H671 H 0.64307 0.0145 0.11847 0.0
H672 H 0.47721 0.09156 0.19582 0.0
H673 H 0.51422 0.09079 0.2283 0.0
H674 H 0.46684 0.10058 0.14041 0.0
H675 H 0.4748 0.07002 0.10427 0.0
C676 C 0.49317 0.53276 0.26575 0.0
C677 C 0.4622 0.55489 0.24949 0.0
C678 C 0.44365 0.58175 0.30826 0.0
C679 C 0.47218 0.55716 0.32485 0.0
N680 N 0.5237 0.50867 0.32096 0.0
N681 N 0.40715 0.59986 0.25398 0.0
C682 C 0.4971 0.53268 0.30398 0.0
C683 C 0.43733 0.57942 0.27038 0.0
N684 N 0.51896 0.51216 0.2445 0.0
N685 N 0.42296 0.60747 0.32883 0.0
H686 H 0.40281 0.60045 0.22606 0.0
H687 H 0.38511 0.61501 0.26786 0.0
H688 H 0.42624 0.60924 0.35679 0.0
H689 H 0.40447 0.62866 0.31827 0.0
H690 H 0.54466 0.49845 0.25407 0.0
H691 H 0.51593 0.51039 0.21651 0.0
H692 H 0.53945 0.4871 0.30804 0.0
H693 H 0.52901 0.50924 0.34873 0.0
C694 C 0.0836 0.4279 0.77949 0.0
C695 C 0.09944 0.45925 0.76482 0.0
C696 C 0.11587 0.47821 0.82578 0.0
C697 C 0.08962 0.45416 0.83968 0.0
N698 N 0.08048 0.39058 0.83286 0.0
N699 N 0.13157 0.51473 0.77491 0.0
C700 C 0.08184 0.42412 0.81764 0.0
C701 C 0.11663 0.48422 0.78817 0.0
N702 N 0.07074 0.40164 0.75726 0.0
N703 N 0.142 0.49291 0.84835 0.0
H704 H 0.13122 0.52126 0.74752 0.0
H705 H 0.14105 0.53515 0.79163 0.0
H706 H 0.14372 0.48603 0.87571 0.0
H707 H 0.16418 0.50823 0.83915 0.0
H708 H 0.05471 0.38074 0.76658 0.0
H709 H 0.07477 0.40151 0.72937 0.0
H710 H 0.07796 0.3668 0.81798 0.0
H711 H 0.08859 0.38605 0.85981 0.0
C712 C 0.66672 0.97338 0.92205 0.0
C713 C 0.68367 0.93845 0.93271 0.0
C714 C 0.63651 0.94033 0.98299 0.0
C715 C 0.61502 0.9718 0.96838 0.0
N716 N 0.60737 0.01301 0.91703 0.0
N717 N 0.67711 0.88514 0.96944 0.0
C718 C 0.62949 0.98697 0.936 0.0
C719 C 0.66634 0.92089 0.96206 0.0
N720 N 0.68663 0.9945 0.89952 0.0
N721 N 0.63025 0.92986 0.01766 0.0
H722 H 0.6971 0.86925 0.95377 0.0
H723 H 0.66281 0.87037 0.98854 0.0
H724 H 0.61212 0.94538 0.03532 0.0
H725 H 0.64723 0.90872 0.03027 0.0
H726 H 0.67724 0.02152 0.89373 0.0
H727 H 0.71462 0.98657 0.89012 0.0
H728 H 0.61542 0.02185 0.89162 0.0
H729 H 0.57917 0.02277 0.92401 0.0
C730 C 0.86069 0.10476 0.42892 0.0
C731 C 0.82488 0.08808 0.43172 0.0
C732 C 0.85741 0.04148 0.47232 0.0
C733 C 0.89381 0.05675 0.46755 0.0
N734 N 0.93134 0.09926 0.43605 0.0
N735 N 0.78998 0.03806 0.45253 0.0
C736 C 0.89572 0.08752 0.44454 0.0
C737 C 0.82357 0.05562 0.45233 0.0
N738 N 0.8612 0.13749 0.41164 0.0
N739 N 0.85475 0.0145 0.49727 0.0
H740 H 0.76434 0.04829 0.43953 0.0
H741 H 0.78814 0.01221 0.46339 0.0
H742 H 0.8786 1.00379 0.51256 0.0
H743 H 0.82846 1.00475 0.50509 0.0
H744 H 0.8849 0.15344 0.41255 0.0
H745 H 0.83686 0.1501 0.39834 0.0
H746 H 0.93531 0.11856 0.41621 0.0
H747 H 0.95766 0.08744 0.44647 0.0
C748 C 0.19048 0.51543 0.02768 0.0
C749 C 0.20176 0.55087 0.0353 0.0
C750 C 0.13305 0.57508 0.03369 0.0
C751 C 0.1218 0.53902 0.03003 0.0
N752 N 0.13935 0.4742 0.03157 0.0
N753 N 0.18394 0.61367 0.05131 0.0
C754 C 0.1504 0.50896 0.02914 0.0
C755 C 0.17309 0.58058 0.03985 0.0
N756 N 0.218 0.48813 0.01832 0.0
N757 N 0.10575 0.60406 0.0301 0.0
H758 H 0.21297 0.61879 0.05617 0.0
H759 H 0.16397 0.63513 0.05887 0.0
H760 H 0.07616 0.60106 0.02542 0.0
H761 H 0.11288 0.63099 0.02865 0.0
H762 H 0.21095 0.46275 1.00892 0.0
H763 H 0.24773 0.49195 0.01659 0.0
H764 H 0.15914 0.45138 0.0346 0.0
H765 H 0.11029 0.46851 0.03455 0.0
C766 C 0.32853 0.46484 0.49397 0.0
C767 C 0.3078 0.46787 0.52692 0.0
C768 C 0.36665 0.48479 0.55854 0.0
C769 C 0.38791 0.48022 0.52578 0.0
N770 N 0.3919 0.45355 0.46612 0.0
N771 N 0.30996 0.46963 0.5921 0.0
C772 C 0.36968 0.46656 0.49455 0.0
C773 C 0.32778 0.47435 0.55972 0.0
N774 N 0.30894 0.46148 0.46203 0.0
N775 N 0.38247 0.50065 0.58807 0.0
H776 H 0.28177 0.46115 0.59413 0.0
H777 H 0.32458 0.47034 0.61683 0.0
H778 H 0.41073 0.50893 0.589 0.0
H779 H 0.36623 0.50853 0.61087 0.0
H780 H 0.32234 0.463 0.43697 0.0
H781 H 0.27871 0.4603 0.46049 0.0
H782 H 0.38037 0.44055 0.44389 0.0
H783 H 0.4224 0.45163 0.46689 0.0
C784 C 0.96816 0.66104 0.91514 0.0
C785 C 0.93975 0.68667 0.93075 0.0
C786 C 0.93665 0.64467 0.98292 0.0
C787 C 0.96798 0.62079 0.96887 0.0
N788 N 0.02176 0.61563 0.92695 0.0
N789 N 0.90604 0.70648 0.98523 0.0
C790 C 0.98605 0.6317 0.93647 0.0
C791 C 0.92672 0.6795 0.96634 0.0
N792 N 0.97735 0.66362 0.87947 0.0
N793 N 0.91484 0.63399 1.0111 0.0
H794 H 0.89977 0.73269 0.97501 0.0
H795 H 0.89914 0.70406 0.01244 0.0
H796 H 0.9197 0.60898 0.02398 0.0
H797 H 0.88918 0.64868 0.01939 0.0
H798 H 0.99516 0.64366 0.86609 0.0
H799 H 0.96391 0.68344 0.86244 0.0
H800 H 0.03756 0.62437 0.90512 0.0
H801 H 0.0379 0.59739 0.94384 0.0
C802 C 0.45877 0.76713 0.06892 0.0
C803 C 0.4667 0.7506 0.03471 0.0
C804 C 0.48748 0.80785 1.0111 0.0
C805 C 0.48082 0.82398 0.04568 0.0
N806 N 0.4668 0.81843 0.10893 0.0
N807 N 0.49415 0.75239 0.97515 0.0
C808 C 0.46853 0.80339 0.07508 0.0
C809 C 0.48279 0.77013 1.00633 0.0
N810 N 0.44077 0.74851 0.09511 0.0
N811 N 0.49708 0.82891 0.98263 0.0
H812 H 0.49023 0.72492 0.97058 0.0
H813 H 0.50992 0.76397 0.95488 0.0
H814 H 0.50218 0.85636 0.98529 0.0
H815 H 0.49778 0.81993 0.95594 0.0
H816 H 0.43004 0.7604 0.11898 0.0
H817 H 0.43404 0.72153 0.09212 0.0
H818 H 0.46211 0.80374 0.13226 0.0
H819 H 0.47314 0.84521 0.11417 0.0
C820 C 0.00882 0.26274 0.52575 0.0
C821 C 0.03088 0.279 0.55296 0.0
C822 C 0.03523 0.22228 0.58779 0.0
C823 C 0.01762 0.20484 0.55851 0.0
N824 N 0.98988 0.20683 0.49836 0.0
N825 N 0.06843 0.27419 0.60845 0.0
C826 C 0.00465 0.22468 0.52722 0.0
C827 C 0.04474 0.25886 0.5838 0.0
N828 N 0.99151 0.28385 0.49886 0.0
N829 N 0.04247 0.20388 0.61947 0.0
H830 H 0.07579 0.30108 0.60684 0.0
H831 H 0.08317 0.2596 0.62914 0.0
H832 H 0.03608 0.17688 0.62303 0.0
H833 H 0.05157 0.21613 0.64312 0.0
H834 H 0.97173 0.27447 0.48026 0.0
H835 H 0.99449 0.31177 0.49688 0.0
H836 H 0.98427 0.21883 0.47324 0.0
H837 H 0.98542 0.17913 0.49871 0.0
C838 C 0.54121 0.34126 0.45677 0.0
C839 C 0.56809 0.342 0.42767 0.0
C840 C 0.57116 0.40832 0.43801 0.0
C841 C 0.54209 0.40813 0.46534 0.0
N842 N 0.49482 0.37502 0.49645 0.0
N843 N 0.60417 0.37744 0.38713 0.0
C844 C 0.52598 0.37468 0.47362 0.0
C845 C 0.58165 0.37596 0.41731 0.0
N846 N 0.5308 0.30841 0.4689 0.0
N847 N 0.5903 0.43906 0.43294 0.0
H848 H 0.61306 0.35441 0.37183 0.0
H849 H 0.61137 0.40172 0.37552 0.0
H850 H 0.58415 0.46299 0.44773 0.0
H851 H 0.61469 0.43997 0.41651 0.0
H852 H 0.51516 0.30536 0.49254 0.0
H853 H 0.54019 0.28371 0.45661 0.0
H854 H 0.47883 0.35257 0.50066 0.0
H855 H 0.4827 0.3987 0.50897 0.0
loop_
_geom_bond_atom_site_label_1
_geom_bond_atom_site_label_2
_geom_bond_distance
_geom_bond_site_symmetry_2
_ccdc_geom_bond_type
C0 C1 1.384 . S
C0 H13 0.947 . S
C0 C35 1.382 . S
C1 C0 1.384 . S
C1 C2 1.378 . S
C2 C1 1.378 . S
C2 C3 1.378 . S
C2 H14 0.952 . S
C3 C2 1.378 . S
C3 H15 0.950 . S
C3 C34 1.383 . S
H4 C23 0.947 . S
H5 C24 0.946 . S
H6 C26 0.953 . S
H7 C27 0.945 . S
H8 C29 0.952 . S
H9 C30 0.949 . S
H10 C32 0.950 . S
H11 C33 0.948 . S
H12 C35 0.951 . S
H13 C0 0.947 . S
H14 C2 0.952 . S
H15 C3 0.950 . S
N16 C19 1.382 . S
N16 C21 1.363 . S
N17 C19 1.371 . S
N17 C20 1.372 . S
N18 C20 1.361 . S
N18 C21 1.377 . S
C19 N16 1.382 . S
C19 N17 1.371 . S
C19 C22 1.480 . S
C20 N17 1.372 . S
C20 N18 1.361 . S
C20 C28 1.457 . S
C21 N16 1.363 . S
C21 N18 1.377 . S
C21 C34 1.479 . S
C22 C19 1.480 . S
C22 C23 1.383 . S
C22 C27 1.385 . S
C23 H4 0.947 . S
C23 C22 1.383 . S
C23 C24 1.388 . S
C24 H5 0.946 . S
C24 C23 1.388 . S
C24 C25 1.384 . S
C25 C24 1.384 . S
C25 C26 1.377 . S
C26 H6 0.953 . S
C26 C25 1.377 . S
C26 C27 1.369 . S
C27 H7 0.945 . S
C27 C22 1.385 . S
C27 C26 1.369 . S
C28 C20 1.457 . S
C28 C29 1.372 . S
C28 C33 1.364 . S
C29 H8 0.952 . S
C29 C28 1.372 . S
C29 C30 1.389 . S
C30 H9 0.949 . S
C30 C29 1.389 . S
C30 C31 1.387 . S
C31 C30 1.387 . S
C31 C32 1.372 . S
C32 H10 0.950 . S
C32 C31 1.372 . S
C32 C33 1.379 . S
C33 H11 0.948 . S
C33 C28 1.364 . S
C33 C32 1.379 . S
C34 C3 1.383 . S
C34 C21 1.479 . S
C34 C35 1.398 . S
C35 C0 1.382 . S
C35 H12 0.951 . S
C35 C34 1.398 . S
C36 C37 1.384 . S
C36 H49 0.947 . S
C36 C71 1.382 . S
C37 C36 1.384 . S
C37 C38 1.378 . S
C38 C37 1.378 . S
C38 C39 1.378 . S
C38 H50 0.952 . S
C39 C38 1.378 . S
C39 H51 0.950 . S
C39 C70 1.383 . S
H40 C59 0.947 . S
H41 C60 0.946 . S
H42 C62 0.953 . S
H43 C63 0.945 . S
H44 C65 0.952 . S
H45 C66 0.949 . S
H46 C68 0.950 . S
H47 C69 0.948 . S
H48 C71 0.951 . S
H49 C36 0.947 . S
H50 C38 0.952 . S
H51 C39 0.950 . S
N52 C55 1.382 . S
N52 C57 1.363 . S
N53 C55 1.371 . S
N53 C56 1.372 . S
N54 C56 1.361 . S
N54 C57 1.377 . S
C55 N52 1.382 . S
C55 N53 1.371 . S
C55 C58 1.480 . S
C56 N53 1.372 . S
C56 N54 1.361 . S
C56 C64 1.457 . S
C57 N52 1.363 . S
C57 N54 1.377 . S
C57 C70 1.479 . S
C58 C55 1.480 . S
C58 C59 1.383 . S
C58 C63 1.385 . S
C59 H40 0.947 . S
C59 C58 1.383 . S
C59 C60 1.388 . S
C60 H41 0.946 . S
C60 C59 1.388 . S
C60 C61 1.384 . S
C61 C60 1.384 . S
C61 C62 1.377 . S
C62 H42 0.953 . S
C62 C61 1.377 . S
C62 C63 1.369 . S
C63 H43 0.945 . S
C63 C58 1.385 . S
C63 C62 1.369 . S
C64 C56 1.457 . S
C64 C65 1.372 . S
C64 C69 1.364 . S
C65 H44 0.952 . S
C65 C64 1.372 . S
C65 C66 1.389 . S
C66 H45 0.949 . S
C66 C65 1.389 . S
C66 C67 1.387 . S
C67 C66 1.387 . S
C67 C68 1.372 . S
C68 H46 0.950 . S
C68 C67 1.372 . S
C68 C69 1.379 . S
C69 H47 0.948 . S
C69 C64 1.364 . S
C69 C68 1.379 . S
C70 C39 1.383 . S
C70 C57 1.479 . S
C70 C71 1.398 . S
C71 C36 1.382 . S
C71 H48 0.951 . S
C71 C70 1.398 . S
C72 C73 1.384 . S
C72 H85 0.947 1_556 S
C72 C107 1.382 . S
C73 C72 1.384 . S
C73 C74 1.378 . S
C74 C73 1.378 . S
C74 C75 1.378 . S
C74 H86 0.952 . S
C75 C74 1.378 . S
C75 H87 0.950 . S
C75 C106 1.383 . S
H76 C95 0.947 . S
H77 C96 0.946 . S
H78 C98 0.953 . S
H79 C99 0.945 . S
H80 C101 0.952 . S
H81 C102 0.949 . S
H82 C104 0.945 1_554 S
H83 C105 0.948 . S
H84 C107 0.951 . S
H85 C72 0.947 1_554 S
H86 C74 0.952 . S
H87 C75 0.950 . S
N88 C91 1.382 . S
N88 C93 1.363 . S
N89 C91 1.371 . S
N89 C92 1.372 . S
N90 C92 1.361 . S
N90 C93 1.377 . S
C91 N88 1.382 . S
C91 N89 1.371 . S
C91 C94 1.480 . S
C92 N89 1.372 . S
C92 N90 1.361 . S
C92 C100 1.457 . S
C93 N88 1.363 . S
C93 N90 1.377 . S
C93 C106 1.479 . S
C94 C91 1.480 . S
C94 C95 1.383 . S
C94 C99 1.385 . S
C95 H76 0.947 . S
C95 C94 1.383 . S
C95 C96 1.388 . S
C96 H77 0.946 . S
C96 C95 1.388 . S
C96 C97 1.384 . S
C97 C96 1.384 . S
C97 C98 1.377 . S
C98 H78 0.953 . S
C98 C97 1.377 . S
C98 C99 1.369 . S
C99 H79 0.945 . S
C99 C94 1.385 . S
C99 C98 1.369 . S
C100 C92 1.457 . S
C100 C101 1.372 . S
C100 C105 1.364 . S
C101 H80 0.952 . S
C101 C100 1.372 . S
C101 C102 1.389 . S
C102 H81 0.949 . S
C102 C101 1.389 . S
C102 C103 1.387 . S
C103 C102 1.387 . S
C103 C104 1.372 . S
C104 H82 0.945 1_556 S
C104 C103 1.372 . S
C104 C105 1.379 . S
C105 H83 0.948 . S
C105 C100 1.364 . S
C105 C104 1.379 . S
C106 C75 1.383 . S
C106 C93 1.479 . S
C106 C107 1.398 . S
C107 C72 1.382 . S
C107 H84 0.951 . S
C107 C106 1.398 . S
C108 C109 1.384 . S
C108 H121 0.947 . S
C108 C143 1.382 . S
C109 C108 1.384 . S
C109 C110 1.378 . S
C110 C109 1.378 . S
C110 C111 1.378 . S
C110 H122 0.952 . S
C111 C110 1.378 . S
C111 H123 0.950 . S
C111 C142 1.383 . S
H112 C131 0.947 . S
H113 C132 0.946 . S
H114 C134 0.953 . S
H115 C135 0.945 . S
H116 C137 0.952 . S
H117 C138 0.949 . S
H118 C140 0.950 . S
H119 C141 0.948 . S
H120 C143 0.951 . S
H121 C108 0.947 . S
H122 C110 0.952 . S
H123 C111 0.950 . S
N124 C127 1.382 . S
N124 C129 1.363 . S
N125 C127 1.371 . S
N125 C128 1.372 . S
N126 C128 1.361 . S
N126 C129 1.377 . S
C127 N124 1.382 . S
C127 N125 1.371 . S
C127 C130 1.480 . S
C128 N125 1.372 . S
C128 N126 1.361 . S
C128 C136 1.457 . S
C129 N124 1.363 . S
C129 N126 1.377 . S
C129 C142 1.479 . S
C130 C127 1.480 . S
C130 C131 1.383 . S
C130 C135 1.385 . S
C131 H112 0.947 . S
C131 C130 1.383 . S
C131 C132 1.388 . S
C132 H113 0.946 . S
C132 C131 1.388 . S
C132 C133 1.384 . S
C133 C132 1.384 . S
C133 C134 1.377 . S
C134 H114 0.953 . S
C134 C133 1.377 . S
C134 C135 1.369 . S
C135 H115 0.945 . S
C135 C130 1.385 . S
C135 C134 1.369 . S
C136 C128 1.457 . S
C136 C137 1.372 . S
C136 C141 1.364 . S
C137 H116 0.952 . S
C137 C136 1.372 . S
C137 C138 1.389 . S
C138 H117 0.949 . S
C138 C137 1.389 . S
C138 C139 1.387 . S
C139 C138 1.387 . S
C139 C140 1.372 . S
C140 H118 0.950 . S
C140 C139 1.372 . S
C140 C141 1.379 . S
C141 H119 0.948 . S
C141 C136 1.364 . S
C141 C140 1.379 . S
C142 C111 1.383 . S
C142 C129 1.479 . S
C142 C143 1.398 . S
C143 C108 1.382 . S
C143 H120 0.951 . S
C143 C142 1.398 . S
C144 C145 1.384 . S
C144 H157 0.947 . S
C144 C179 1.382 . S
C145 C144 1.384 . S
C145 C146 1.378 . S
C146 C145 1.378 . S
C146 C147 1.378 . S
C146 H158 0.952 . S
C147 C146 1.378 . S
C147 H159 0.950 . S
C147 C178 1.383 . S
H148 C167 0.947 . S
H149 C168 0.946 . S
H150 C170 0.953 . S
H151 C171 0.945 . S
H152 C173 0.952 . S
H153 C174 0.949 . S
H154 C176 0.950 . S
H155 C177 0.948 . S
H156 C179 0.951 . S
H157 C144 0.947 . S
H158 C146 0.952 . S
H159 C147 0.950 . S
N160 C163 1.382 . S
N160 C165 1.363 . S
N161 C163 1.371 . S
N161 C164 1.372 . S
N162 C164 1.361 . S
N162 C165 1.377 . S
C163 N160 1.382 . S
C163 N161 1.371 . S
C163 C166 1.480 . S
C164 N161 1.372 . S
C164 N162 1.361 . S
C164 C172 1.457 . S
C165 N160 1.363 . S
C165 N162 1.377 . S
C165 C178 1.479 . S
C166 C163 1.480 . S
C166 C167 1.383 . S
C166 C171 1.385 . S
C167 H148 0.947 . S
C167 C166 1.383 . S
C167 C168 1.388 . S
C168 H149 0.946 . S
C168 C167 1.388 . S
C168 C169 1.384 . S
C169 C168 1.384 . S
C169 C170 1.377 . S
C170 H150 0.953 . S
C170 C169 1.377 . S
C170 C171 1.369 . S
C171 H151 0.945 . S
C171 C166 1.385 . S
C171 C170 1.369 . S
C172 C164 1.457 . S
C172 C173 1.372 . S
C172 C177 1.364 . S
C173 H152 0.952 . S
C173 C172 1.372 . S
C173 C174 1.389 . S
C174 H153 0.949 . S
C174 C173 1.389 . S
C174 C175 1.387 . S
C175 C174 1.387 . S
C175 C176 1.372 . S
C176 H154 0.950 . S
C176 C175 1.372 . S
C176 C177 1.379 . S
C177 H155 0.948 . S
C177 C172 1.364 . S
C177 C176 1.379 . S
C178 C147 1.383 . S
C178 C165 1.479 . S
C178 C179 1.398 . S
C179 C144 1.382 . S
C179 H156 0.951 . S
C179 C178 1.398 . S
C180 C181 1.384 . S
C180 H193 0.947 . S
C180 C215 1.382 . S
C181 C180 1.384 . S
C181 C182 1.378 . S
C182 C181 1.378 . S
C182 C183 1.378 . S
C182 H194 0.952 . S
C183 C182 1.378 . S
C183 H195 0.950 . S
C183 C214 1.383 . S
H184 C203 0.947 . S
H185 C204 0.946 . S
H186 C206 0.953 . S
H187 C207 0.945 . S
H188 C209 0.952 . S
H189 C210 0.949 . S
H190 C212 0.950 . S
H191 C213 0.948 . S
H192 C215 0.951 . S
H193 C180 0.947 . S
H194 C182 0.952 . S
H195 C183 0.950 . S
N196 C199 1.382 . S
N196 C201 1.363 . S
N197 C199 1.371 . S
N197 C200 1.372 . S
N198 C200 1.361 . S
N198 C201 1.377 . S
C199 N196 1.382 . S
C199 N197 1.371 . S
C199 C202 1.480 . S
C200 N197 1.372 . S
C200 N198 1.361 . S
C200 C208 1.457 . S
C201 N196 1.363 . S
C201 N198 1.377 . S
C201 C214 1.479 . S
C202 C199 1.480 . S
C202 C203 1.383 . S
C202 C207 1.385 . S
C203 H184 0.947 . S
C203 C202 1.383 . S
C203 C204 1.388 . S
C204 H185 0.946 . S
C204 C203 1.388 . S
C204 C205 1.384 . S
C205 C204 1.384 . S
C205 C206 1.377 . S
C206 H186 0.953 . S
C206 C205 1.377 . S
C206 C207 1.369 . S
C207 H187 0.945 . S
C207 C202 1.385 . S
C207 C206 1.369 . S
C208 C200 1.457 . S
C208 C209 1.372 . S
C208 C213 1.364 . S
C209 H188 0.952 . S
C209 C208 1.372 . S
C209 C210 1.389 . S
C210 H189 0.949 . S
C210 C209 1.389 . S
C210 C211 1.387 . S
C211 C210 1.387 . S
C211 C212 1.372 . S
C212 H190 0.950 . S
C212 C211 1.372 . S
C212 C213 1.379 . S
C213 H191 0.948 . S
C213 C208 1.364 . S
C213 C212 1.379 . S
C214 C183 1.383 . S
C214 C201 1.479 . S
C214 C215 1.398 . S
C215 C180 1.382 . S
C215 H192 0.951 . S
C215 C214 1.398 . S
C216 C217 1.384 . S
C216 H229 0.947 . S
C216 C251 1.382 . S
C217 C216 1.384 . S
C217 C218 1.378 . S
C218 C217 1.378 . S
C218 C219 1.378 . S
C218 H230 0.952 1_554 S
C219 C218 1.378 . S
C219 H231 0.950 . S
C219 C250 1.383 . S
H220 C239 0.947 . S
H221 C240 0.946 . S
H222 C242 0.953 . S
H223 C243 0.945 . S
H224 C245 0.952 . S
H225 C246 0.949 . S
H226 C248 0.950 . S
H227 C249 0.948 . S
H228 C251 0.951 . S
H229 C216 0.947 . S
H230 C218 0.952 1_556 S
H231 C219 0.950 . S
N232 C235 1.382 . S
N232 C237 1.363 . S
N233 C235 1.371 . S
N233 C236 1.372 . S
N234 C236 1.361 . S
N234 C237 1.377 . S
C235 N232 1.382 . S
C235 N233 1.371 . S
C235 C238 1.480 . S
C236 N233 1.372 . S
C236 N234 1.361 . S
C236 C244 1.457 . S
C237 N232 1.363 . S
C237 N234 1.377 . S
C237 C250 1.479 . S
C238 C235 1.480 . S
C238 C239 1.383 . S
C238 C243 1.385 . S
C239 H220 0.947 . S
C239 C238 1.383 . S
C239 C240 1.388 . S
C240 H221 0.946 . S
C240 C239 1.388 . S
C240 C241 1.384 . S
C241 C240 1.384 . S
C241 C242 1.377 . S
C242 H222 0.953 . S
C242 C241 1.377 . S
C242 C243 1.369 . S
C243 H223 0.945 . S
C243 C238 1.385 . S
C243 C242 1.369 . S
C244 C236 1.457 . S
C244 C245 1.372 . S
C244 C249 1.364 . S
C245 H224 0.952 . S
C245 C244 1.372 . S
C245 C246 1.389 . S
C246 H225 0.949 . S
C246 C245 1.389 . S
C246 C247 1.387 . S
C247 C246 1.387 . S
C247 C248 1.372 . S
C248 H226 0.950 . S
C248 C247 1.372 . S
C248 C249 1.379 . S
C249 H227 0.948 . S
C249 C244 1.364 . S
C249 C248 1.379 . S
C250 C219 1.383 . S
C250 C237 1.479 . S
C250 C251 1.398 . S
C251 C216 1.382 . S
C251 H228 0.951 . S
C251 C250 1.398 . S
C252 C253 1.384 . S
C252 H265 0.947 . S
C252 C287 1.382 . S
C253 C252 1.384 . S
C253 C254 1.378 . S
C254 C253 1.378 . S
C254 C255 1.378 . S
C254 H266 0.952 . S
C255 C254 1.378 . S
C255 H267 0.950 . S
C255 C286 1.383 . S
H256 C275 0.947 . S
H257 C276 0.946 . S
H258 C278 0.953 . S
H259 C279 0.945 . S
H260 C281 0.952 . S
H261 C282 0.949 . S
H262 C284 0.950 . S
H263 C285 0.948 . S
H264 C287 0.951 . S
H265 C252 0.947 . S
H266 C254 0.952 . S
H267 C255 0.950 . S
N268 C271 1.382 . S
N268 C273 1.363 . S
N269 C271 1.371 . S
N269 C272 1.372 . S
N270 C272 1.361 . S
N270 C273 1.377 . S
C271 N268 1.382 . S
C271 N269 1.371 . S
C271 C274 1.480 . S
C272 N269 1.372 . S
C272 N270 1.361 . S
C272 C280 1.457 . S
C273 N268 1.363 . S
C273 N270 1.377 . S
C273 C286 1.479 . S
C274 C271 1.480 . S
C274 C275 1.383 . S
C274 C279 1.385 . S
C275 H256 0.947 . S
C275 C274 1.383 . S
C275 C276 1.388 . S
C276 H257 0.946 . S
C276 C275 1.388 . S
C276 C277 1.384 . S
C277 C276 1.384 . S
C277 C278 1.377 . S
C278 H258 0.953 . S
C278 C277 1.377 . S
C278 C279 1.369 . S
C279 H259 0.945 . S
C279 C274 1.385 . S
C279 C278 1.369 . S
C280 C272 1.457 . S
C280 C281 1.372 . S
C280 C285 1.364 . S
C281 H260 0.952 . S
C281 C280 1.372 . S
C281 C282 1.389 . S
C282 H261 0.949 . S
C282 C281 1.389 . S
C282 C283 1.387 . S
C283 C282 1.387 . S
C283 C284 1.372 . S
C284 H262 0.950 . S
C284 C283 1.372 . S
C284 C285 1.379 . S
C285 H263 0.948 . S
C285 C280 1.364 . S
C285 C284 1.379 . S
C286 C255 1.383 . S
C286 C273 1.479 . S
C286 C287 1.398 . S
C287 C252 1.382 . S
C287 H264 0.951 . S
C287 C286 1.398 . S
C288 O304 1.251 . S
C288 O306 1.254 1_545 S
N289 C290 1.333 . S
N289 C294 1.307 . S
N289 Zn295 2.020 . S
C290 N289 1.333 . S
C290 C291 1.379 . S
C290 H308 0.952 . S
C291 C290 1.379 . S
C291 C292 1.390 . S
C291 H318 0.949 . S
C292 C291 1.390 . S
C292 C293 1.357 . S
C293 C292 1.357 . S
C293 C294 1.370 . S
C293 H319 0.950 . S
C294 N289 1.307 . S
C294 C293 1.370 . S
C294 H312 0.948 1_455 S
Zn295 N289 2.020 . S
Zn295 O304 2.039 . S
Zn295 O310 2.034 . S
Zn295 O314 2.025 1_455 S
Zn295 O316 2.024 1_455 S
C296 O315 1.246 1_545 S
C296 O316 1.249 . S
N297 C298 1.307 . S
N297 C299 1.333 . S
N297 Zn303 2.020 . S
C298 N297 1.307 . S
C298 C302 1.370 . S
C298 H309 0.948 1_655 S
C299 N297 1.333 . S
C299 C300 1.379 . S
C299 H307 0.952 . S
C300 C299 1.379 . S
C300 C301 1.390 . S
C300 H320 0.949 . S
C301 C300 1.390 . S
C301 C302 1.357 . S
C302 C298 1.370 . S
C302 C301 1.357 . S
C302 H321 0.964 . S
Zn303 N297 2.020 . S
Zn303 O306 2.025 1_655 S
Zn303 O311 2.024 1_655 S
Zn303 O313 2.039 . S
Zn303 O315 2.034 . S
O304 C288 1.251 . S
O304 Zn295 2.039 . S
C305 O310 1.246 1_565 S
C305 O311 1.249 . S
O306 C288 1.254 1_565 S
O306 Zn303 2.025 1_455 S
H307 C299 0.952 . S
H308 C290 0.952 . S
H309 C298 0.948 1_455 S
O310 Zn295 2.034 . S
O310 C305 1.246 1_545 S
O311 Zn303 2.024 1_455 S
O311 C305 1.249 . S
H312 C294 0.948 1_655 S
O313 Zn303 2.039 . S
O313 C317 1.251 . S
O314 Zn295 2.025 1_655 S
O314 C317 1.254 1_545 S
O315 C296 1.246 1_565 S
O315 Zn303 2.034 . S
O316 Zn295 2.024 1_655 S
O316 C296 1.249 . S
C317 O313 1.251 . S
C317 O314 1.254 1_565 S
H318 C291 0.949 . S
H319 C293 0.950 . S
H320 C300 0.949 . S
H321 C302 0.964 . S
C322 O338 1.251 1_565 S
C322 O340 1.254 . S
N323 C324 1.333 . S
N323 C328 1.307 . S
N323 Zn329 2.020 . S
C324 N323 1.333 . S
C324 C325 1.379 . S
C324 H342 0.952 . S
C325 C324 1.379 . S
C325 C326 1.390 . S
C325 H352 0.949 . S
C326 C325 1.390 . S
C326 C327 1.357 . S
C327 C326 1.357 . S
C327 C328 1.370 . S
C327 H353 0.950 . S
C328 N323 1.307 . S
C328 C327 1.370 . S
C328 H346 0.948 . S
Zn329 N323 2.020 . S
Zn329 O338 2.039 . S
Zn329 O344 2.034 1_556 S
Zn329 O348 2.025 1_556 S
Zn329 O350 2.024 . S
C330 O349 1.246 . S
C330 O350 1.249 1_565 S
N331 C332 1.307 . S
N331 C333 1.333 . S
N331 Zn337 2.020 . S
C332 N331 1.307 . S
C332 C336 1.370 . S
C332 H343 0.948 . S
C333 N331 1.333 . S
C333 C334 1.379 . S
C333 H341 0.952 . S
C334 C333 1.379 . S
C334 C335 1.390 . S
C334 H354 0.949 . S
C335 C334 1.390 . S
C335 C336 1.357 . S
C336 C332 1.370 . S
C336 C335 1.357 . S
C336 H355 0.950 . S
Zn337 N331 2.020 . S
Zn337 O340 2.025 1_554 S
Zn337 O345 2.024 . S
Zn337 O347 2.039 . S
Zn337 O349 2.034 1_554 S
O338 C322 1.251 1_545 S
O338 Zn329 2.039 . S
C339 O344 1.246 . S
C339 O345 1.249 1_545 S
O340 C322 1.254 . S
O340 Zn337 2.025 1_556 S
H341 C333 0.952 . S
H342 C324 0.952 . S
H343 C332 0.948 . S
O344 Zn329 2.034 1_554 S
O344 C339 1.246 . S
O345 Zn337 2.024 . S
O345 C339 1.249 1_565 S
H346 C328 0.948 . S
O347 Zn337 2.039 . S
O347 C351 1.251 1_565 S
O348 Zn329 2.025 1_554 S
O348 C351 1.254 . S
O349 C330 1.246 . S
O349 Zn337 2.034 1_556 S
O350 Zn329 2.024 . S
O350 C330 1.249 1_545 S
C351 O347 1.251 1_545 S
C351 O348 1.254 . S
H352 C325 0.949 . S
H353 C327 0.950 . S
H354 C334 0.949 . S
H355 C336 0.950 . S
C356 O372 1.251 . S
C356 O374 1.254 . S
N357 C358 1.333 . S
N357 C362 1.307 . S
N357 Zn363 2.020 . S
C358 N357 1.333 . S
C358 C359 1.379 . S
C358 H376 0.952 . S
C359 C358 1.379 . S
C359 C360 1.390 . S
C359 H386 0.949 . S
C360 C359 1.390 . S
C360 C361 1.357 . S
C361 C360 1.357 . S
C361 C362 1.370 . S
C361 H387 0.950 . S
C362 N357 1.307 . S
C362 C361 1.370 . S
C362 H380 0.948 . S
Zn363 N357 2.020 . S
Zn363 O372 2.039 . S
Zn363 O378 2.034 . S
Zn363 O382 2.025 . S
Zn363 O384 2.024 . S
C364 O383 1.246 . S
C364 O384 1.249 . S
N365 C366 1.307 . S
N365 C367 1.333 . S
N365 Zn371 2.020 . S
C366 N365 1.307 . S
C366 C370 1.370 . S
C366 H377 0.948 . S
C367 N365 1.333 . S
C367 C368 1.379 . S
C367 H375 0.952 . S
C368 C367 1.379 . S
C368 C369 1.390 . S
C368 H388 0.949 . S
C369 C368 1.390 . S
C369 C370 1.357 . S
C370 C366 1.370 . S
C370 C369 1.357 . S
C370 H389 0.950 . S
Zn371 N365 2.020 . S
Zn371 O374 2.025 . S
Zn371 O379 2.024 . S
Zn371 O381 2.039 . S
Zn371 O383 2.034 . S
O372 C356 1.251 . S
O372 Zn363 2.039 . S
C373 O378 1.246 . S
C373 O379 1.249 . S
O374 C356 1.254 . S
O374 Zn371 2.025 . S
H375 C367 0.952 . S
H376 C358 0.952 . S
H377 C366 0.948 . S
O378 Zn363 2.034 . S
O378 C373 1.246 . S
O379 Zn371 2.024 . S
O379 C373 1.249 . S
H380 C362 0.948 . S
O381 Zn371 2.039 . S
O381 C385 1.251 . S
O382 Zn363 2.025 . S
O382 C385 1.254 . S
O383 C364 1.246 . S
O383 Zn371 2.034 . S
O384 Zn363 2.024 . S
O384 C364 1.249 . S
C385 O381 1.251 . S
C385 O382 1.254 . S
H386 C359 0.949 . S
H387 C361 0.950 . S
H388 C368 0.949 . S
H389 C370 0.950 . S
C390 O406 1.251 1_556 S
C390 O408 1.254 . S
N391 C392 1.333 . S
N391 C396 1.307 . S
N391 Zn397 2.020 . S
C392 N391 1.333 . S
C392 C393 1.379 . S
C392 H410 0.952 . S
C393 C392 1.379 . S
C393 C394 1.390 . S
C393 H420 0.949 . S
C394 C393 1.390 . S
C394 C395 1.357 . S
C395 C394 1.357 . S
C395 C396 1.370 . S
C395 H421 0.950 . S
C396 N391 1.307 . S
C396 C395 1.370 . S
C396 H414 0.948 . S
Zn397 N391 2.020 . S
Zn397 O406 2.039 . S
Zn397 O412 2.034 1_655 S
Zn397 O416 2.025 1_655 S
Zn397 O418 2.024 . S
C398 O417 1.246 . S
C398 O418 1.249 1_556 S
N399 C400 1.307 . S
N399 C401 1.333 . S
N399 Zn405 2.020 . S
C400 N399 1.307 . S
C400 C404 1.370 . S
C400 H411 0.948 . S
C401 N399 1.333 . S
C401 C402 1.379 . S
C401 H409 0.952 . S
C402 C401 1.379 . S
C402 C403 1.390 . S
C402 H422 0.949 . S
C403 C402 1.390 . S
C403 C404 1.357 . S
C404 C400 1.370 . S
C404 C403 1.357 . S
C404 H423 0.950 . S
Zn405 N399 2.020 . S
Zn405 O408 2.025 1_455 S
Zn405 O413 2.024 . S
Zn405 O415 2.039 . S
Zn405 O417 2.034 1_455 S
O406 C390 1.251 1_554 S
O406 Zn397 2.039 . S
C407 O412 1.246 . S
C407 O413 1.249 1_554 S
O408 C390 1.254 . S
O408 Zn405 2.025 1_655 S
H409 C401 0.952 . S
H410 C392 0.952 . S
H411 C400 0.948 . S
O412 Zn397 2.034 1_455 S
O412 C407 1.246 . S
O413 Zn405 2.024 . S
O413 C407 1.249 1_556 S
H414 C396 0.948 . S
O415 Zn405 2.039 . S
O415 C419 1.251 1_556 S
O416 Zn397 2.025 1_455 S
O416 C419 1.254 . S
O417 C398 1.246 . S
O417 Zn405 2.034 1_655 S
O418 Zn397 2.024 . S
O418 C398 1.249 1_554 S
C419 O415 1.251 1_554 S
C419 O416 1.254 . S
H420 C393 0.949 . S
H421 C395 0.950 . S
H422 C402 0.949 . S
H423 C404 0.950 . S
C424 C425 1.363 . S
C424 C430 1.379 . S
C424 N432 1.356 . S
C425 C424 1.363 . S
C425 C431 1.363 . S
C426 C427 1.363 . S
C426 C431 1.379 . S
C426 N433 1.356 . S
C427 C426 1.363 . S
C427 C430 1.363 . S
N428 C430 1.356 1_565 S
N428 H440 0.984 . S
N428 H441 0.985 . S
N429 C431 1.356 . S
N429 H434 0.984 . S
N429 H435 0.985 . S
C430 C424 1.379 . S
C430 C427 1.363 . S
C430 N428 1.356 1_545 S
C431 C425 1.363 . S
C431 C426 1.379 . S
C431 N429 1.356 . S
N432 C424 1.356 . S
N432 H438 0.984 1_545 S
N432 H439 0.984 . S
N433 C426 1.356 . S
N433 H436 0.984 . S
N433 H437 0.985 . S
H434 N429 0.984 . S
H435 N429 0.985 . S
H436 N433 0.984 . S
H437 N433 0.985 . S
H438 N432 0.984 1_565 S
H439 N432 0.984 . S
H440 N428 0.984 . S
H441 N428 0.985 . S
C442 C443 1.363 . S
C442 C448 1.379 . S
C442 N450 1.356 . S
C443 C442 1.363 . S
C443 C449 1.363 . S
C444 C445 1.363 . S
C444 C449 1.379 . S
C444 N451 1.356 1_565 S
C445 C444 1.363 . S
C445 C448 1.363 . S
N446 C448 1.356 . S
N446 H458 0.984 . S
N446 H459 0.985 . S
N447 C449 1.356 . S
N447 H452 0.984 . S
N447 H453 0.985 . S
C448 C442 1.379 . S
C448 C445 1.363 . S
C448 N446 1.356 . S
C449 C443 1.363 . S
C449 C444 1.379 . S
C449 N447 1.356 . S
N450 C442 1.356 . S
N450 H456 0.984 . S
N450 H457 0.984 . S
N451 C444 1.356 1_545 S
N451 H454 0.984 . S
N451 H455 0.985 . S
H452 N447 0.984 . S
H453 N447 0.985 . S
H454 N451 0.984 . S
H455 N451 0.985 . S
H456 N450 0.984 . S
H457 N450 0.984 . S
H458 N446 0.984 . S
H459 N446 0.985 . S
C460 C461 1.363 . S
C460 C466 1.379 . S
C460 N468 1.356 . S
C461 C460 1.363 . S
C461 C467 1.363 . S
C462 C463 1.363 . S
C462 C467 1.379 . S
C462 N469 1.356 . S
C463 C462 1.363 . S
C463 C466 1.363 . S
N464 C466 1.356 . S
N464 H476 0.984 . S
N464 H477 0.985 . S
N465 C467 1.356 . S
N465 H470 0.984 . S
N465 H471 0.985 . S
C466 C460 1.379 . S
C466 C463 1.363 . S
C466 N464 1.356 . S
C467 C461 1.363 . S
C467 C462 1.379 . S
C467 N465 1.356 . S
N468 C460 1.356 . S
N468 H474 0.984 . S
N468 H475 0.984 . S
N469 C462 1.356 . S
N469 H472 0.984 . S
N469 H473 0.985 . S
H470 N465 0.984 . S
H471 N465 0.985 . S
H472 N469 0.984 . S
H473 N469 0.985 . S
H474 N468 0.984 . S
H475 N468 0.984 . S
H476 N464 0.984 . S
H477 N464 0.985 . S
C478 C479 1.363 . S
C478 C484 1.379 . S
C478 N486 1.356 . S
C479 C478 1.363 . S
C479 C485 1.363 . S
C480 C481 1.363 . S
C480 C485 1.379 . S
C480 N487 1.356 . S
C481 C480 1.363 . S
C481 C484 1.363 . S
N482 C484 1.356 . S
N482 H494 0.984 . S
N482 H495 0.985 . S
N483 C485 1.356 . S
N483 H488 0.984 . S
N483 H489 0.985 . S
C484 C478 1.379 . S
C484 C481 1.363 . S
C484 N482 1.356 . S
C485 C479 1.363 . S
C485 C480 1.379 . S
C485 N483 1.356 . S
N486 C478 1.356 . S
N486 H492 0.984 . S
N486 H493 0.984 . S
N487 C480 1.356 . S
N487 H490 0.984 . S
N487 H491 0.985 . S
H488 N483 0.984 . S
H489 N483 0.985 . S
H490 N487 0.984 . S
H491 N487 0.985 . S
H492 N486 0.984 . S
H493 N486 0.984 . S
H494 N482 0.984 . S
H495 N482 0.985 . S
C496 C497 1.363 . S
C496 C502 1.379 . S
C496 N504 1.356 1_545 S
C497 C496 1.363 . S
C497 C503 1.363 . S
C498 C499 1.363 . S
C498 C503 1.379 . S
C498 N505 1.356 . S
C499 C498 1.363 . S
C499 C502 1.363 . S
N500 C502 1.356 1_565 S
N500 H512 0.984 . S
N500 H513 0.985 . S
N501 C503 1.356 . S
N501 H506 0.984 . S
N501 H507 0.985 . S
C502 C496 1.379 . S
C502 C499 1.363 . S
C502 N500 1.356 1_545 S
C503 C497 1.363 . S
C503 C498 1.379 . S
C503 N501 1.356 . S
N504 C496 1.356 1_565 S
N504 H510 0.984 . S
N504 H511 0.984 1_565 S
N505 C498 1.356 . S
N505 H508 0.984 . S
N505 H509 0.985 . S
H506 N501 0.984 . S
H507 N501 0.985 . S
H508 N505 0.984 . S
H509 N505 0.985 . S
H510 N504 0.984 . S
H511 N504 0.984 1_545 S
H512 N500 0.984 . S
H513 N500 0.985 . S
C514 C515 1.363 . S
C514 C520 1.379 . S
C514 N522 1.356 . S
C515 C514 1.363 . S
C515 C521 1.363 . S
C516 C517 1.363 . S
C516 C521 1.379 . S
C516 N523 1.356 . S
C517 C516 1.363 . S
C517 C520 1.363 . S
N518 C520 1.356 . S
N518 H530 0.984 . S
N518 H531 0.985 . S
N519 C521 1.356 . S
N519 H524 0.984 . S
N519 H525 0.985 . S
C520 C514 1.379 . S
C520 C517 1.363 . S
C520 N518 1.356 . S
C521 C515 1.363 . S
C521 C516 1.379 . S
C521 N519 1.356 . S
N522 C514 1.356 . S
N522 H528 0.984 . S
N522 H529 0.984 . S
N523 C516 1.356 . S
N523 H526 0.984 . S
N523 H527 0.985 . S
H524 N519 0.984 . S
H525 N519 0.985 . S
H526 N523 0.984 . S
H527 N523 0.985 . S
H528 N522 0.984 . S
H529 N522 0.984 . S
H530 N518 0.984 . S
H531 N518 0.985 . S
C532 C533 1.363 . S
C532 C538 1.379 . S
C532 N540 1.356 . S
C533 C532 1.363 . S
C533 C539 1.363 . S
C534 C535 1.363 . S
C534 C539 1.379 . S
C534 N541 1.356 1_556 S
C535 C534 1.363 . S
C535 C538 1.363 . S
N536 C538 1.356 . S
N536 H548 0.984 . S
N536 H549 0.985 . S
N537 C539 1.356 1_554 S
N537 H542 0.984 . S
N537 H543 0.985 . S
C538 C532 1.379 . S
C538 C535 1.363 . S
C538 N536 1.356 . S
C539 C533 1.363 . S
C539 C534 1.379 . S
C539 N537 1.356 1_556 S
N540 C532 1.356 . S
N540 H546 0.984 . S
N540 H547 0.984 . S
N541 C534 1.356 1_554 S
N541 H544 0.984 . S
N541 H545 0.985 . S
H542 N537 0.984 . S
H543 N537 0.985 . S
H544 N541 0.984 . S
H545 N541 0.985 . S
H546 N540 0.984 . S
H547 N540 0.984 . S
H548 N536 0.984 . S
H549 N536 0.985 . S
C550 C551 1.363 . S
C550 C556 1.379 . S
C550 N558 1.356 . S
C551 C550 1.363 . S
C551 C557 1.363 . S
C552 C553 1.363 . S
C552 C557 1.379 . S
C552 N559 1.356 . S
C553 C552 1.363 . S
C553 C556 1.363 . S
N554 C556 1.356 . S
N554 H566 0.984 . S
N554 H567 0.985 . S
N555 C557 1.356 . S
N555 H560 0.984 . S
N555 H561 0.985 . S
C556 C550 1.379 . S
C556 C553 1.363 . S
C556 N554 1.356 . S
C557 C551 1.363 . S
C557 C552 1.379 . S
C557 N555 1.356 . S
N558 C550 1.356 . S
N558 H564 0.984 . S
N558 H565 0.984 . S
N559 C552 1.356 . S
N559 H562 0.984 . S
N559 H563 0.985 . S
H560 N555 0.984 . S
H561 N555 0.985 . S
H562 N559 0.984 . S
H563 N559 0.985 . S
H564 N558 0.984 . S
H565 N558 0.984 . S
H566 N554 0.984 . S
H567 N554 0.985 . S
C568 C569 1.363 . S
C568 C574 1.379 . S
C568 N576 1.356 . S
C569 C568 1.363 . S
C569 C575 1.363 . S
C570 C571 1.363 . S
C570 C575 1.379 . S
C570 N577 1.356 1_554 S
C571 C570 1.363 . S
C571 C574 1.363 . S
N572 C574 1.356 . S
N572 H584 0.984 . S
N572 H585 0.985 . S
N573 C575 1.356 . S
N573 H578 0.984 . S
N573 H579 0.985 1_554 S
C574 C568 1.379 . S
C574 C571 1.363 . S
C574 N572 1.356 . S
C575 C569 1.363 . S
C575 C570 1.379 . S
C575 N573 1.356 . S
N576 C568 1.356 . S
N576 H582 0.984 . S
N576 H583 0.984 . S
N577 C570 1.356 1_556 S
N577 H580 0.984 . S
N577 H581 0.985 . S
H578 N573 0.984 . S
H579 N573 0.985 1_556 S
H580 N577 0.984 . S
H581 N577 0.985 . S
H582 N576 0.984 . S
H583 N576 0.984 . S
H584 N572 0.984 . S
H585 N572 0.985 . S
C586 C587 1.363 . S
C586 C592 1.379 . S
C586 N594 1.356 . S
C587 C586 1.363 . S
C587 C593 1.363 . S
C588 C589 1.363 . S
C588 C593 1.379 . S
C588 N595 1.356 . S
C589 C588 1.363 . S
C589 C592 1.363 . S
N590 C592 1.356 . S
N590 H602 0.984 . S
N590 H603 0.985 . S
N591 C593 1.356 1_554 S
N591 H596 0.984 . S
N591 H597 0.985 . S
C592 C586 1.379 . S
C592 C589 1.363 . S
C592 N590 1.356 . S
C593 C587 1.363 . S
C593 C588 1.379 . S
C593 N591 1.356 1_556 S
N594 C586 1.356 . S
N594 H600 0.984 . S
N594 H601 0.984 . S
N595 C588 1.356 . S
N595 H598 0.984 . S
N595 H599 0.985 1_556 S
H596 N591 0.984 . S
H597 N591 0.985 . S
H598 N595 0.984 . S
H599 N595 0.985 1_554 S
H600 N594 0.984 . S
H601 N594 0.984 . S
H602 N590 0.984 . S
H603 N590 0.985 . S
C604 C605 1.363 . S
C604 C610 1.379 . S
C604 N612 1.356 . S
C605 C604 1.363 . S
C605 C611 1.363 . S
C606 C607 1.363 . S
C606 C611 1.379 . S
C606 N613 1.356 . S
C607 C606 1.363 . S
C607 C610 1.363 . S
N608 C610 1.356 . S
N608 H620 0.984 . S
N608 H621 0.985 . S
N609 C611 1.356 . S
N609 H614 0.984 . S
N609 H615 0.985 . S
C610 C604 1.379 . S
C610 C607 1.363 . S
C610 N608 1.356 . S
C611 C605 1.363 . S
C611 C606 1.379 . S
C611 N609 1.356 . S
N612 C604 1.356 . S
N612 H618 0.984 . S
N612 H619 0.984 . S
N613 C606 1.356 . S
N613 H616 0.984 . S
N613 H617 0.985 . S
H614 N609 0.984 . S
H615 N609 0.985 . S
H616 N613 0.984 . S
H617 N613 0.985 . S
H618 N612 0.984 . S
H619 N612 0.984 . S
H620 N608 0.984 . S
H621 N608 0.985 . S
C622 C623 1.363 . S
C622 C628 1.379 . S
C622 N630 1.356 . S
C623 C622 1.363 . S
C623 C629 1.363 . S
C624 C625 1.363 . S
C624 C629 1.379 . S
C624 N631 1.356 . S
C625 C624 1.363 . S
C625 C628 1.363 . S
N626 C628 1.356 . S
N626 H638 0.984 . S
N626 H639 0.985 . S
N627 C629 1.356 . S
N627 H632 0.984 . S
N627 H633 0.985 . S
C628 C622 1.379 . S
C628 C625 1.363 . S
C628 N626 1.356 . S
C629 C623 1.363 . S
C629 C624 1.379 . S
C629 N627 1.356 . S
N630 C622 1.356 . S
N630 H636 0.984 . S
N630 H637 0.984 . S
N631 C624 1.356 . S
N631 H634 0.984 . S
N631 H635 0.985 . S
H632 N627 0.984 . S
H633 N627 0.985 . S
H634 N631 0.984 . S
H635 N631 0.985 . S
H636 N630 0.984 . S
H637 N630 0.984 . S
H638 N626 0.984 . S
H639 N626 0.985 . S
C640 C641 1.363 . S
C640 C646 1.379 . S
C640 N648 1.356 . S
C641 C640 1.363 . S
C641 C647 1.363 . S
C642 C643 1.363 . S
C642 C647 1.379 . S
C642 N649 1.345 1_655 S
C643 C642 1.363 . S
C643 C646 1.363 . S
N644 C646 1.356 1_545 S
N644 H656 0.984 . S
N644 H657 0.985 . S
N645 C647 1.356 . S
N645 H650 0.984 . S
N645 H651 0.985 1_655 S
C646 C640 1.379 . S
C646 C643 1.363 . S
C646 N644 1.356 1_565 S
C647 C641 1.363 . S
C647 C642 1.379 . S
C647 N645 1.356 . S
N648 C640 1.356 . S
N648 H654 0.984 1_565 S
N648 H655 0.984 . S
N649 C642 1.345 1_455 S
N649 H652 0.985 1_455 S
N649 H653 0.996 . S
H650 N645 0.984 . S
H651 N645 0.985 1_455 S
H652 N649 0.985 1_655 S
H653 N649 0.996 . S
H654 N648 0.984 1_545 S
H655 N648 0.984 . S
H656 N644 0.984 . S
H657 N644 0.985 . S
C658 C659 1.363 . S
C658 C664 1.379 . S
C658 N666 1.356 . S
C659 C658 1.363 . S
C659 C665 1.363 . S
C660 C661 1.363 . S
C660 C665 1.379 . S
C660 N667 1.356 1_545 S
C661 C660 1.363 . S
C661 C664 1.363 . S
N662 C664 1.356 . S
N662 H674 0.984 . S
N662 H675 0.985 . S
N663 C665 1.356 . S
N663 H668 0.984 . S
N663 H669 0.985 1_545 S
C664 C658 1.379 . S
C664 C661 1.363 . S
C664 N662 1.356 . S
C665 C659 1.363 . S
C665 C660 1.379 . S
C665 N663 1.356 . S
N666 C658 1.356 . S
N666 H672 0.984 . S
N666 H673 0.984 . S
N667 C660 1.356 1_565 S
N667 H670 0.984 . S
N667 H671 0.985 . S
H668 N663 0.984 . S
H669 N663 0.985 1_565 S
H670 N667 0.984 . S
H671 N667 0.985 . S
H672 N666 0.984 . S
H673 N666 0.984 . S
H674 N662 0.984 . S
H675 N662 0.985 . S
C676 C677 1.363 . S
C676 C682 1.379 . S
C676 N684 1.356 . S
C677 C676 1.363 . S
C677 C683 1.363 . S
C678 C679 1.363 . S
C678 C683 1.379 . S
C678 N685 1.356 . S
C679 C678 1.363 . S
C679 C682 1.363 . S
N680 C682 1.356 . S
N680 H692 0.984 . S
N680 H693 0.985 . S
N681 C683 1.356 . S
N681 H686 0.984 . S
N681 H687 0.985 . S
C682 C676 1.379 . S
C682 C679 1.363 . S
C682 N680 1.356 . S
C683 C677 1.363 . S
C683 C678 1.379 . S
C683 N681 1.356 . S
N684 C676 1.356 . S
N684 H690 0.984 . S
N684 H691 0.984 . S
N685 C678 1.356 . S
N685 H688 0.984 . S
N685 H689 0.985 . S
H686 N681 0.984 . S
H687 N681 0.985 . S
H688 N685 0.984 . S
H689 N685 0.985 . S
H690 N684 0.984 . S
H691 N684 0.984 . S
H692 N680 0.984 . S
H693 N680 0.985 . S
C694 C695 1.363 . S
C694 C700 1.379 . S
C694 N702 1.356 . S
C695 C694 1.363 . S
C695 C701 1.363 . S
C696 C697 1.363 . S
C696 C701 1.379 . S
C696 N703 1.356 . S
C697 C696 1.363 . S
C697 C700 1.363 . S
N698 C700 1.356 . S
N698 H710 0.984 . S
N698 H711 0.985 . S
N699 C701 1.356 . S
N699 H704 0.984 . S
N699 H705 0.985 . S
C700 C694 1.379 . S
C700 C697 1.363 . S
C700 N698 1.356 . S
C701 C695 1.363 . S
C701 C696 1.379 . S
C701 N699 1.356 . S
N702 C694 1.356 . S
N702 H708 0.984 . S
N702 H709 0.984 . S
N703 C696 1.356 . S
N703 H706 0.984 . S
N703 H707 0.985 . S
H704 N699 0.984 . S
H705 N699 0.985 . S
H706 N703 0.984 . S
H707 N703 0.985 . S
H708 N702 0.984 . S
H709 N702 0.984 . S
H710 N698 0.984 . S
H711 N698 0.985 . S
C712 C713 1.363 . S
C712 C718 1.379 . S
C712 N720 1.356 . S
C713 C712 1.363 . S
C713 C719 1.363 . S
C714 C715 1.363 . S
C714 C719 1.379 . S
C714 N721 1.356 1_556 S
C715 C714 1.363 . S
C715 C718 1.363 . S
N716 C718 1.356 1_545 S
N716 H728 0.984 . S
N716 H729 0.985 . S
N717 C719 1.356 . S
N717 H722 0.984 . S
N717 H723 0.985 1_556 S
C718 C712 1.379 . S
C718 C715 1.363 . S
C718 N716 1.356 1_565 S
C719 C713 1.363 . S
C719 C714 1.379 . S
C719 N717 1.356 . S
N720 C712 1.356 . S
N720 H726 0.984 1_565 S
N720 H727 0.984 . S
N721 C714 1.356 1_554 S
N721 H724 0.984 . S
N721 H725 0.985 . S
H722 N717 0.984 . S
H723 N717 0.985 1_554 S
H724 N721 0.984 . S
H725 N721 0.985 . S
H726 N720 0.984 1_545 S
H727 N720 0.984 . S
H728 N716 0.984 . S
H729 N716 0.985 . S
C730 C731 1.363 . S
C730 C736 1.379 . S
C730 N738 1.356 . S
C731 C730 1.363 . S
C731 C737 1.363 . S
C732 C733 1.363 . S
C732 C737 1.379 . S
C732 N739 1.356 1_545 S
C733 C732 1.363 . S
C733 C736 1.363 . S
N734 C736 1.356 . S
N734 H746 0.984 . S
N734 H747 0.985 . S
N735 C737 1.356 1_565 S
N735 H740 0.984 1_565 S
N735 H741 0.985 . S
C736 C730 1.379 . S
C736 C733 1.363 . S
C736 N734 1.356 . S
C737 C731 1.363 . S
C737 C732 1.379 . S
C737 N735 1.356 1_545 S
N738 C730 1.356 . S
N738 H744 0.984 . S
N738 H745 0.984 . S
N739 C732 1.356 1_565 S
N739 H742 0.984 . S
N739 H743 0.985 . S
H740 N735 0.984 1_545 S
H741 N735 0.985 . S
H742 N739 0.984 . S
H743 N739 0.985 . S
H744 N738 0.984 . S
H745 N738 0.984 . S
H746 N734 0.984 . S
H747 N734 0.985 . S
C748 C749 1.363 . S
C748 C754 1.379 . S
C748 N756 1.356 . S
C749 C748 1.363 . S
C749 C755 1.363 . S
C750 C751 1.363 . S
C750 C755 1.379 . S
C750 N757 1.356 1_554 S
C751 C750 1.363 . S
C751 C754 1.363 . S
N752 C754 1.356 . S
N752 H764 0.984 . S
N752 H765 0.985 . S
N753 C755 1.356 1_556 S
N753 H758 0.984 . S
N753 H759 0.985 . S
C754 C748 1.379 . S
C754 C751 1.363 . S
C754 N752 1.356 . S
C755 C749 1.363 . S
C755 C750 1.379 . S
C755 N753 1.356 1_554 S
N756 C748 1.356 . S
N756 H762 0.984 . S
N756 H763 0.984 . S
N757 C750 1.356 1_556 S
N757 H760 0.984 . S
N757 H761 0.985 . S
H758 N753 0.984 . S
H759 N753 0.985 . S
H760 N757 0.984 . S
H761 N757 0.985 . S
H762 N756 0.984 . S
H763 N756 0.984 . S
H764 N752 0.984 . S
H765 N752 0.985 . S
C766 C767 1.363 . S
C766 C772 1.379 . S
C766 N774 1.356 . S
C767 C766 1.363 . S
C767 C773 1.363 . S
C768 C769 1.363 . S
C768 C773 1.379 . S
C768 N775 1.356 . S
C769 C768 1.363 . S
C769 C772 1.363 . S
N770 C772 1.356 . S
N770 H782 0.984 . S
N770 H783 0.985 . S
N771 C773 1.356 . S
N771 H776 0.984 . S
N771 H777 0.985 . S
C772 C766 1.379 . S
C772 C769 1.363 . S
C772 N770 1.356 . S
C773 C767 1.363 . S
C773 C768 1.379 . S
C773 N771 1.356 . S
N774 C766 1.356 . S
N774 H780 0.984 . S
N774 H781 0.984 . S
N775 C768 1.356 . S
N775 H778 0.984 . S
N775 H779 0.985 . S
H776 N771 0.984 . S
H777 N771 0.985 . S
H778 N775 0.984 . S
H779 N775 0.985 . S
H780 N774 0.984 . S
H781 N774 0.984 . S
H782 N770 0.984 . S
H783 N770 0.985 . S
C784 C785 1.363 . S
C784 C790 1.379 . S
C784 N792 1.356 . S
C785 C784 1.363 . S
C785 C791 1.363 . S
C786 C787 1.363 . S
C786 C791 1.379 . S
C786 N793 1.356 1_556 S
C787 C786 1.363 . S
C787 C790 1.363 . S
N788 C790 1.356 . S
N788 H800 0.984 1_655 S
N788 H801 0.985 . S
N789 C791 1.356 . S
N789 H794 0.984 . S
N789 H795 0.985 1_556 S
C790 C784 1.379 . S
C790 C787 1.363 . S
C790 N788 1.356 . S
C791 C785 1.363 . S
C791 C786 1.379 . S
C791 N789 1.356 . S
N792 C784 1.356 . S
N792 H798 0.984 . S
N792 H799 0.984 . S
N793 C786 1.356 1_554 S
N793 H796 0.984 . S
N793 H797 0.985 . S
H794 N789 0.984 . S
H795 N789 0.985 1_554 S
H796 N793 0.984 . S
H797 N793 0.985 . S
H798 N792 0.984 . S
H799 N792 0.984 . S
H800 N788 0.984 1_455 S
H801 N788 0.985 . S
C802 C803 1.363 . S
C802 C808 1.379 . S
C802 N810 1.356 . S
C803 C802 1.363 . S
C803 C809 1.363 . S
C804 C805 1.363 . S
C804 C809 1.379 . S
C804 N811 1.356 . S
C805 C804 1.363 . S
C805 C808 1.363 . S
N806 C808 1.356 . S
N806 H818 0.984 . S
N806 H819 0.985 . S
N807 C809 1.356 1_556 S
N807 H812 0.984 . S
N807 H813 0.985 . S
C808 C802 1.379 . S
C808 C805 1.363 . S
C808 N806 1.356 . S
C809 C803 1.363 . S
C809 C804 1.379 . S
C809 N807 1.356 1_554 S
N810 C802 1.356 . S
N810 H816 0.984 . S
N810 H817 0.984 . S
N811 C804 1.356 . S
N811 H814 0.984 . S
N811 H815 0.985 1_554 S
H812 N807 0.984 . S
H813 N807 0.985 . S
H814 N811 0.984 . S
H815 N811 0.985 1_556 S
H816 N810 0.984 . S
H817 N810 0.984 . S
H818 N806 0.984 . S
H819 N806 0.985 . S
C820 C821 1.363 . S
C820 C826 1.379 . S
C820 N828 1.356 . S
C821 C820 1.363 . S
C821 C827 1.363 . S
C822 C823 1.363 . S
C822 C827 1.379 . S
C822 N829 1.356 . S
C823 C822 1.363 . S
C823 C826 1.363 . S
N824 C826 1.356 . S
N824 H836 0.984 . S
N824 H837 0.985 . S
N825 C827 1.356 . S
N825 H830 0.984 . S
N825 H831 0.985 . S
C826 C820 1.379 . S
C826 C823 1.363 . S
C826 N824 1.356 . S
C827 C821 1.363 . S
C827 C822 1.379 . S
C827 N825 1.356 . S
N828 C820 1.356 . S
N828 H834 0.984 . S
N828 H835 0.984 . S
N829 C822 1.356 . S
N829 H832 0.984 . S
N829 H833 0.985 . S
H830 N825 0.984 . S
H831 N825 0.985 . S
H832 N829 0.984 . S
H833 N829 0.985 . S
H834 N828 0.984 . S
H835 N828 0.984 . S
H836 N824 0.984 . S
H837 N824 0.985 . S
C838 C839 1.363 . S
C838 C844 1.379 . S
C838 N846 1.356 . S
C839 C838 1.363 . S
C839 C845 1.363 . S
C840 C841 1.363 . S
C840 C845 1.379 . S
C840 N847 1.356 . S
C841 C840 1.363 . S
C841 C844 1.363 . S
N842 C844 1.356 . S
N842 H854 0.984 . S
N842 H855 0.985 . S
N843 C845 1.356 . S
N843 H848 0.984 . S
N843 H849 0.985 . S
C844 C838 1.379 . S
C844 C841 1.363 . S
C844 N842 1.356 . S
C845 C839 1.363 . S
C845 C840 1.379 . S
C845 N843 1.356 . S
N846 C838 1.356 . S
N846 H852 0.984 . S
N846 H853 0.984 . S
N847 C840 1.356 . S
N847 H850 0.984 . S
N847 H851 0.985 . S
H848 N843 0.984 . S
H849 N843 0.985 . S
H850 N847 0.984 . S
H851 N847 0.985 . S
H852 N846 0.984 . S
H853 N846 0.984 . S
H854 N842 0.984 . S
H855 N842 0.985 . S
C425 C1 2.300 . S
C427 C288 2.346 . S
C443 C67 2.279 . S
C445 C330 2.332 . S
C463 C360 1.111 . S
C461 C97 1.078 . S
C479 C133 1.181 . S
C481 C394 1.175 . S
C499 C351 1.888 . S
C497 C25 1.830 . S
C517 C305 1.885 . S
C515 C37 1.839 . S
C535 C398 1.441 . S
C533 C103 1.369 . S
C553 C364 1.496 . S
C551 C109 1.469 . S
C569 C31 2.205 . S
C571 C419 2.249 . S
C589 C326 1.258 . S
C587 C73 1.211 . S
C605 C139 1.266 . S
C607 C301 1.286 . S
C623 C61 2.173 . S
C625 C385 2.219 . S
C643 C317 2.357 . S
C641 C175 2.350 . S
C659 C181 2.274 . S
C661 C339 2.318 . S
C677 C247 1.134 . S
C679 C369 1.122 . S
C695 C277 1.197 . S
C697 C403 1.180 . S
C713 C145 1.872 . S
C715 C322 1.886 . S
C733 C296 1.888 . S
C731 C211 1.842 . S
C751 C407 1.426 . S
C749 C217 1.406 . S
C769 C373 1.509 . S
C767 C283 1.491 . S
C785 C169 2.247 . S
C787 C390 2.243 . S
C805 C335 1.249 . S
C803 C241 1.244 . S
C823 C292 1.282 . S
C821 C253 1.243 . S
C839 C205 2.170 . S
C841 C356 2.225 . S
