# Generated by pormake.
# Topology the, (3,8)-cn, num edge types: 1
# Building blocks:
#     Node 0, Type 0, BuildingBlock: QEWDON_clean_linker_0, # of connection points: 3
#     Node 1, Type 0, BuildingBlock: QEWDON_clean_linker_0, # of connection points: 3
#     Node 2, Type 0, BuildingBlock: QEWDON_clean_linker_0, # of connection points: 3
#     Node 3, Type 0, BuildingBlock: QEWDON_clean_linker_0, # of connection points: 3
#     Node 4, Type 0, BuildingBlock: QEWDON_clean_linker_0, # of connection points: 3
#     Node 5, Type 0, BuildingBlock: QEWDON_clean_linker_0, # of connection points: 3
#     Node 6, Type 0, BuildingBlock: QEWDON_clean_linker_0, # of connection points: 3
#     Node 7, Type 0, BuildingBlock: QEWDON_clean_linker_0, # of connection points: 3
#     Node 8, Type 1, BuildingBlock: GIZVER_clean_sbu_0, # of connection points: 8
#     Node 9, Type 1, BuildingBlock: GIZVER_clean_sbu_0, # of connection points: 8
#     Node 10, Type 1, BuildingBlock: GIZVER_clean_sbu_0, # of connection points: 8
#     Edge 11, Type (0, 1), None
#     Edge 12, Type (0, 1), None
#     Edge 13, Type (0, 1), None
#     Edge 14, Type (0, 1), None
#     Edge 15, Type (0, 1), None
#     Edge 16, Type (0, 1), None
#     Edge 17, Type (0, 1), None
#     Edge 18, Type (0, 1), None
#     Edge 19, Type (0, 1), None
#     Edge 20, Type (0, 1), None
#     Edge 21, Type (0, 1), None
#     Edge 22, Type (0, 1), None
#     Edge 23, Type (0, 1), None
#     Edge 24, Type (0, 1), None
#     Edge 25, Type (0, 1), None
#     Edge 26, Type (0, 1), None
#     Edge 27, Type (0, 1), None
#     Edge 28, Type (0, 1), None
#     Edge 29, Type (0, 1), None
#     Edge 30, Type (0, 1), None
#     Edge 31, Type (0, 1), None
#     Edge 32, Type (0, 1), None
#     Edge 33, Type (0, 1), None
#     Edge 34, Type (0, 1), None
# Relax obj value: 0.111
# Max RMSD: 0.277
# Mean RMSD: 0.151
data_MOF--net-the--node1-GIZVER_clean_sbu_0--node2-QEWDON_clean_linker_0--edge1-none
_symmetry_space_group_name_H-M    P1
_symmetry_Int_Tables_number       1
_symmetry_cell_setting            triclinic
loop_
_symmetry_equiv_pos_as_xyz
'x, y, z'
_cell_length_a     20.903045
_cell_length_b     19.517657
_cell_length_c     17.945067
_cell_angle_alpha  87.682896
_cell_angle_beta   99.108588
_cell_angle_gamma 125.78328
loop_
_atom_site_label
_atom_site_type_symbol
_atom_site_fract_x
_atom_site_fract_y
_atom_site_fract_z
_atom_type_partial_charge
H0 H 0.38867 0.22528 0.52031 0.0
C1 C 0.39755 0.25168 0.46537 0.0
C2 C 0.45374 0.25632 0.42825 0.0
C3 C 0.34825 0.27436 0.42956 0.0
H4 H 0.50554 0.29048 0.32581 0.0
C5 C 0.46336 0.28847 0.35566 0.0
C6 C 0.41691 0.31552 0.32056 0.0
C7 C 0.35887 0.30719 0.35754 0.0
C8 C 0.28038 0.25586 0.46385 0.0
H9 H 0.3206 0.32418 0.32925 0.0
C10 C 0.26162 0.31421 0.46176 0.0
C11 C 0.19107 0.29179 0.48434 0.0
C12 C 0.23001 0.17665 0.49318 0.0
H13 H 0.2428 0.13019 0.49508 0.0
C14 C 0.16025 0.15495 0.51679 0.0
H15 H 0.30027 0.3758 0.43998 0.0
C16 C 0.1397 0.21153 0.51071 0.0
H17 H 0.08407 0.1929 0.52696 0.0
H18 H 0.1211 0.09333 0.53788 0.0
H19 H 0.87917 0.40192 0.29847 0.0
C20 C 0.84461 0.3441 0.32727 0.0
C21 C 0.87147 0.34509 0.40398 0.0
C22 C 0.76276 0.28705 0.29917 0.0
H23 H 0.84024 0.27927 0.50569 0.0
C24 C 0.82137 0.27659 0.44571 0.0
C25 C 0.74207 0.21293 0.41342 0.0
C26 C 0.71678 0.2129 0.33637 0.0
C27 C 0.72323 0.32894 0.28004 0.0
H28 H 0.65322 0.17017 0.31444 0.0
C29 C 0.68378 0.32328 0.20716 0.0
C30 C 0.64483 0.36267 0.19592 0.0
C31 C 0.72127 0.37135 0.3406 0.0
H32 H 0.74927 0.37404 0.39766 0.0
C33 C 0.68284 0.41002 0.32878 0.0
H34 H 0.68255 0.28833 0.16089 0.0
C35 C 0.64621 0.40699 0.25662 0.0
H36 H 0.61828 0.43916 0.24817 0.0
H37 H 0.68203 0.443 0.3753 0.0
H38 H 0.92646 0.79039 0.43628 0.0
C39 C 0.88238 0.75369 0.38666 0.0
C40 C 0.86359 0.67422 0.36635 0.0
C41 C 0.84073 0.78367 0.34609 0.0
H42 H 0.79131 0.56714 0.28348 0.0
C43 C 0.80536 0.62746 0.30085 0.0
C44 C 0.76369 0.65727 0.25906 0.0
C45 C 0.78142 0.73483 0.28337 0.0
C46 C 0.85654 0.86479 0.37055 0.0
H47 H 0.74819 0.75714 0.25347 0.0
C48 C 0.79357 0.8677 0.38435 0.0
C49 C 0.80835 0.9445 0.40798 0.0
C50 C 0.93438 0.93979 0.3792 0.0
H51 H 0.98365 0.93925 0.36844 0.0
C52 C 0.94894 1.01647 0.40019 0.0
H53 H 0.7337 0.80949 0.37949 0.0
C54 C 0.88665 1.01896 0.41499 0.0
H55 H 0.90002 0.07893 0.43311 0.0
H56 H 1.00891 0.07415 0.40552 0.0
H57 H 0.47329 0.79901 0.3204 0.0
C58 C 0.41573 0.76805 0.3385 0.0
C59 C 0.41021 0.79582 0.40714 0.0
C60 C 0.34741 0.69876 0.29422 0.0
H61 H 0.33298 0.76265 0.4896 0.0
C62 C 0.33603 0.7482 0.43359 0.0
C63 C 0.26869 0.67524 0.39093 0.0
C64 C 0.27385 0.6572 0.3186 0.0
C65 C 0.35114 0.65656 0.23021 0.0
H66 H 0.22209 0.60101 0.28593 0.0
C67 C 0.39423 0.62118 0.24222 0.0
C68 C 0.37994 0.56077 0.18885 0.0
C69 C 0.29656 0.63406 0.16291 0.0
H70 H 0.26205 0.65964 0.15314 0.0
C71 C 0.28198 0.57417 0.11019 0.0
H72 H 0.43616 0.63805 0.29419 0.0
C73 C 0.32218 0.53667 0.12349 0.0
H74 H 0.31002 0.49108 0.08077 0.0
H75 H 0.2387 0.55602 0.05915 0.0
H76 H 0.52676 0.82606 0.79718 0.0
C77 C 0.46528 0.78617 0.76823 0.0
C78 C 0.44147 0.81336 0.70269 0.0
C79 C 0.41388 0.70519 0.79261 0.0
H80 H 0.34396 0.77702 0.61208 0.0
C81 C 0.36159 0.75925 0.66473 0.0
C82 C 0.30814 0.67724 0.68923 0.0
C83 C 0.33512 0.65165 0.75388 0.0
C84 C 0.44231 0.67858 0.86083 0.0
H85 H 0.29612 0.58789 0.7715 0.0
C86 C 0.49518 0.65491 0.86069 0.0
C87 C 0.5245 0.6357 0.92915 0.0
C88 C 0.41987 0.68333 0.92875 0.0
H89 H 0.38074 0.70253 0.93002 0.0
C90 C 0.4496 0.66633 0.99598 0.0
H91 H 0.5132 0.6519 0.80826 0.0
C92 C 0.50048 0.64225 0.99636 0.0
H93 H 0.52111 0.62896 0.05044 0.0
H94 H 0.43389 0.6729 0.04846 0.0
H95 H 0.38929 0.33993 0.85373 0.0
C96 C 0.40654 0.30927 0.82124 0.0
C97 C 0.48352 0.32921 0.83943 0.0
C98 C 0.35202 0.2507 0.75984 0.0
H99 H 0.56389 0.30383 0.80751 0.0
C100 C 0.50459 0.28928 0.79447 0.0
C101 C 0.45207 0.23216 0.73192 0.0
C102 C 0.37463 0.21178 0.71589 0.0
C103 C 0.27227 0.23326 0.73928 0.0
H104 H 0.33331 0.1691 0.66744 0.0
C105 C 0.26525 0.29881 0.71703 0.0
C106 C 0.18944 0.28201 0.69439 0.0
C107 C 0.20304 0.15092 0.74052 0.0
H108 H 0.20736 0.09969 0.75756 0.0
C109 C 0.12771 0.13441 0.72062 0.0
H110 H 0.31893 0.362 0.71447 0.0
C111 C 0.12072 0.19923 0.6972 0.0
H112 H 0.06154 0.18424 0.68017 0.0
H113 H 0.07456 0.07089 0.72256 0.0
H114 H 0.99107 0.41101 0.79494 0.0
C115 C 0.93208 0.36363 0.76365 0.0
C116 C 0.91408 0.37535 0.68841 0.0
C117 C 0.87069 0.30545 0.80279 0.0
H118 H 0.81928 0.33548 0.59334 0.0
C119 C 0.83504 0.32134 0.64919 0.0
C120 C 0.77522 0.25228 0.68408 0.0
C121 C 0.79397 0.24421 0.76141 0.0
C122 C 0.87736 0.33966 0.87765 0.0
H123 H 0.74611 0.19889 0.79164 0.0
C124 C 0.83372 0.37266 0.87908 0.0
C125 C 0.85468 0.43331 0.93509 0.0
C126 C 0.94172 0.36517 0.93625 0.0
H127 H 0.97894 0.34366 0.93462 0.0
C128 C 0.96125 0.42325 0.99474 0.0
H129 H 0.78658 0.35601 0.83186 0.0
C130 C 0.91858 0.4583 0.99379 0.0
H131 H 0.93481 0.5037 1.03883 0.0
H132 H 1.01109 0.4431 1.0396 0.0
H133 H 0.90774 0.74259 0.56949 0.0
C134 C 0.8805 0.71589 0.61948 0.0
C135 C 0.88365 0.65228 0.65336 0.0
C136 C 0.84818 0.74991 0.65252 0.0
H137 H 0.85597 0.57233 0.74886 0.0
C138 C 0.85089 0.61956 0.72082 0.0
C139 C 0.8166 0.65297 0.75424 0.0
C140 C 0.81602 0.71811 0.71898 0.0
C141 C 0.85531 0.82498 0.62291 0.0
H142 H 0.79225 0.7463 0.74472 0.0
C143 C 0.79059 0.82954 0.6189 0.0
C144 C 0.80155 0.90639 0.60783 0.0
C145 C 0.92935 0.89625 0.60828 0.0
H146 H 0.98033 0.89416 0.61112 0.0
C147 C 0.93942 0.97266 0.59482 0.0
H148 H 0.73304 0.77468 0.62937 0.0
C149 C 0.87648 0.9786 0.5972 0.0
H150 H 0.88601 0.03916 0.59007 0.0
H151 H 0.99667 1.02799 0.58515 0.0
Co152 Co 0.17545 0.43957 0.60772 0.0
Co153 Co 0.13711 0.43314 0.46354 0.0
Co154 Co 0.08235 0.53101 0.53609 0.0
O155 O 0.09715 0.44002 0.54188 0.0
H156 H 0.04633 0.38537 0.54011 0.0
O157 O 0.05436 0.61418 0.53048 0.0
Co158 Co 0.94852 0.57823 0.47544 0.0
Co159 Co 1.01139 0.60578 0.6162 0.0
H160 H 0.0983 0.6714 0.52331 0.0
O161 O 0.10597 0.32969 0.42819 0.0
O162 O 0.21107 0.42103 0.51862 0.0
O163 O 0.18937 0.53117 0.4098 0.0
O164 O 0.17148 0.61166 0.4757 0.0
O165 O 1.0047 0.46804 0.44184 0.0
O166 O 0.85777 0.55549 0.42003 0.0
O167 O 0.97211 0.68366 0.45571 0.0
O168 O 0.90676 0.46134 0.48134 0.0
O169 O 0.99468 0.44955 0.59538 0.0
O170 O 0.99753 0.52357 0.68697 0.0
O171 O 0.91108 0.57783 0.57412 0.0
O172 O 1.01376 0.6902 0.65432 0.0
C173 C 0.18216 0.34872 0.6622 0.0
C174 C 0.23712 0.60936 0.63638 0.0
C175 C 0.20448 0.60237 0.42647 0.0
C176 C 0.16889 0.35033 0.47638 0.0
C177 C 0.89985 0.63698 0.41575 0.0
C178 C 0.93092 0.42847 0.44448 0.0
C179 C 0.9743 0.45371 0.65685 0.0
C180 C 0.93802 0.63758 0.62706 0.0
O181 O 0.24393 0.42783 0.67035 0.0
O182 O 0.11568 0.32783 0.62001 0.0
O183 O 0.16766 0.59506 0.62963 0.0
O184 O 0.24636 0.55864 0.60526 0.0
Co185 Co 0.65591 0.93646 0.47957 0.0
Co186 Co 0.65182 0.93027 0.61939 0.0
Co187 Co 0.5766 1.02691 0.5546 0.0
O188 O 0.65337 1.00015 0.55377 0.0
H189 H 0.7068 0.05191 0.56515 0.0
O190 O 0.50903 0.07095 0.55363 0.0
Co191 Co 0.54013 0.16896 0.62009 0.0
Co192 Co 0.55048 0.16374 0.49465 0.0
H193 H 0.4523 1.02862 0.53829 0.0
O194 O 0.7468 0.96046 0.66988 0.0
O195 O 0.67249 0.87432 0.56212 0.0
O196 O 0.558 0.8635 0.65785 0.0
O197 O 0.51213 0.94276 0.63357 0.0
O198 O 0.65988 0.11517 0.63741 0.0
O199 O 0.56068 0.24968 0.68296 0.0
O200 O 0.43948 0.13227 0.63824 0.0
O201 O 0.65212 0.22348 0.61787 0.0
O202 O 0.6376 0.09813 0.47149 0.0
O203 O 0.65828 0.22201 0.47667 0.0
O204 O 0.52912 0.23274 0.53079 0.0
O205 O 0.48404 0.15803 0.41591 0.0
C206 C 0.74409 0.94539 0.43208 0.0
C207 C 0.48523 0.86505 0.45514 0.0
C208 C 0.50693 0.87783 0.66213 0.0
C209 C 0.73676 0.9127 0.6141 0.0
C210 C 0.48409 0.20249 0.68214 0.0
C211 C 0.69164 0.19419 0.64302 0.0
C212 C 0.68055 0.17707 0.46221 0.0
C213 C 0.4917 0.21456 0.45996 0.0
O214 O 0.66935 0.88204 0.41209 0.0
O215 O 0.7623 1.00519 0.47997 0.0
O216 O 0.49353 0.93302 0.47465 0.0
O217 O 0.54271 0.85738 0.46708 0.0
Co218 Co 0.51601 0.5191 0.17482 0.0
Co219 Co 0.47446 0.37076 0.14119 0.0
Co220 Co 0.61681 0.50955 1.04258 0.0
O221 O 0.52215 0.46899 0.09163 0.0
H222 H 0.48065 0.45971 0.05147 0.0
O223 O 0.71141 0.55541 0.99123 0.0
Co224 Co 0.72011 0.48147 0.93517 0.0
Co225 Co 0.69801 0.59081 0.89851 0.0
H226 H 0.76139 0.59927 1.02162 0.0
O227 O 0.37966 0.30347 0.18482 0.0
O228 O 0.49516 0.42212 0.23815 0.0
O229 O 0.52422 0.31635 0.12767 0.0
O230 O 0.63459 0.4246 0.08818 0.0
O231 O 0.53443 0.42608 0.95294 0.0
O232 O 0.73296 0.41524 0.89148 0.0
O233 O 0.82602 0.53208 0.96802 0.0
O234 O 0.61612 0.41827 0.89751 0.0
O235 O 0.60334 0.59834 1.00218 0.0
O236 O 0.60227 0.59656 0.87812 0.0
O237 O 0.73474 0.54573 0.83853 0.0
O238 O 0.78933 0.68257 0.86895 0.0
C239 C 0.43042 0.52974 0.195 0.0
C240 C 0.69183 0.6028 0.19952 0.0
C241 C 0.59802 0.35734 0.12421 0.0
C242 C 0.42829 0.3506 0.24492 0.0
C243 C 0.8036 0.46268 0.93172 0.0
C244 C 0.54678 0.39482 0.90038 0.0
C245 C 0.57895 0.60807 0.93532 0.0
C246 C 0.7835 0.62595 0.82665 0.0
O247 O 0.49638 0.5654 0.24425 0.0
O248 O 0.41391 0.47403 0.14368 0.0
O249 O 0.69841 0.58944 0.1328 0.0
O250 O 0.62472 0.57616 0.21665 0.0
loop_
_geom_bond_atom_site_label_1
_geom_bond_atom_site_label_2
_geom_bond_distance
_geom_bond_site_symmetry_2
_ccdc_geom_bond_type
H0 C1 0.949 . S
C1 H0 0.949 . S
C1 C2 1.395 . S
C1 C3 1.391 . S
C2 C1 1.395 . S
C2 C5 1.390 . S
C3 C1 1.391 . S
C3 C7 1.387 . S
C3 C8 1.491 . S
H4 C5 0.950 . S
C5 C2 1.390 . S
C5 H4 0.950 . S
C5 C6 1.378 . S
C6 C5 1.378 . S
C6 C7 1.409 . S
C7 C3 1.387 . S
C7 C6 1.409 . S
C7 H9 0.951 . S
C8 C3 1.491 . S
C8 C10 1.382 . S
C8 C12 1.404 . S
H9 C7 0.951 . S
C10 C8 1.382 . S
C10 C11 1.390 . S
C10 H15 0.949 . S
C11 C10 1.390 . S
C11 C16 1.399 . S
C12 C8 1.404 . S
C12 H13 0.950 . S
C12 C14 1.375 . S
H13 C12 0.950 . S
C14 C12 1.375 . S
C14 C16 1.382 . S
C14 H18 0.950 . S
H15 C10 0.949 . S
C16 C11 1.399 . S
C16 C14 1.382 . S
C16 H17 0.952 . S
H17 C16 0.952 . S
H18 C14 0.950 . S
H19 C20 0.949 . S
C20 H19 0.949 . S
C20 C21 1.395 . S
C20 C22 1.391 . S
C21 C20 1.395 . S
C21 C24 1.390 . S
C22 C20 1.391 . S
C22 C26 1.387 . S
C22 C27 1.491 . S
H23 C24 0.950 . S
C24 C21 1.390 . S
C24 H23 0.950 . S
C24 C25 1.378 . S
C25 C24 1.378 . S
C25 C26 1.409 . S
C26 C22 1.387 . S
C26 C25 1.409 . S
C26 H28 0.951 . S
C27 C22 1.491 . S
C27 C29 1.382 . S
C27 C31 1.404 . S
H28 C26 0.951 . S
C29 C27 1.382 . S
C29 C30 1.390 . S
C29 H34 0.949 . S
C30 C29 1.390 . S
C30 C35 1.399 . S
C31 C27 1.404 . S
C31 H32 0.950 . S
C31 C33 1.375 . S
H32 C31 0.950 . S
C33 C31 1.375 . S
C33 C35 1.382 . S
C33 H37 0.950 . S
H34 C29 0.949 . S
C35 C30 1.399 . S
C35 C33 1.382 . S
C35 H36 0.952 . S
H36 C35 0.952 . S
H37 C33 0.950 . S
H38 C39 0.949 . S
C39 H38 0.949 . S
C39 C40 1.395 . S
C39 C41 1.391 . S
C40 C39 1.395 . S
C40 C43 1.390 . S
C41 C39 1.391 . S
C41 C45 1.387 . S
C41 C46 1.491 . S
H42 C43 0.950 . S
C43 C40 1.390 . S
C43 H42 0.950 . S
C43 C44 1.378 . S
C44 C43 1.378 . S
C44 C45 1.409 . S
C45 C41 1.387 . S
C45 C44 1.409 . S
C45 H47 0.951 . S
C46 C41 1.491 . S
C46 C48 1.382 . S
C46 C50 1.404 . S
H47 C45 0.951 . S
C48 C46 1.382 . S
C48 C49 1.390 . S
C48 H53 0.949 . S
C49 C48 1.390 . S
C49 C54 1.399 . S
C50 C46 1.404 . S
C50 H51 0.950 . S
C50 C52 1.375 . S
H51 C50 0.950 . S
C52 C50 1.375 . S
C52 C54 1.382 . S
C52 H56 0.950 . S
H53 C48 0.949 . S
C54 C49 1.399 . S
C54 C52 1.382 . S
C54 H55 0.952 . S
H55 C54 0.952 . S
H56 C52 0.950 . S
H57 C58 0.949 . S
C58 H57 0.949 . S
C58 C59 1.395 . S
C58 C60 1.391 . S
C59 C58 1.395 . S
C59 C62 1.390 . S
C60 C58 1.391 . S
C60 C64 1.387 . S
C60 C65 1.491 . S
H61 C62 0.950 . S
C62 C59 1.390 . S
C62 H61 0.950 . S
C62 C63 1.378 . S
C63 C62 1.378 . S
C63 C64 1.409 . S
C64 C60 1.387 . S
C64 C63 1.409 . S
C64 H66 0.951 . S
C65 C60 1.491 . S
C65 C67 1.382 . S
C65 C69 1.404 . S
H66 C64 0.951 . S
C67 C65 1.382 . S
C67 C68 1.390 . S
C67 H72 0.949 . S
C68 C67 1.390 . S
C68 C73 1.399 . S
C69 C65 1.404 . S
C69 H70 0.950 . S
C69 C71 1.375 . S
H70 C69 0.950 . S
C71 C69 1.375 . S
C71 C73 1.382 . S
C71 H75 0.950 . S
H72 C67 0.949 . S
C73 C68 1.399 . S
C73 C71 1.382 . S
C73 H74 0.952 . S
H74 C73 0.952 . S
H75 C71 0.950 . S
H76 C77 0.949 . S
C77 H76 0.949 . S
C77 C78 1.395 . S
C77 C79 1.391 . S
C78 C77 1.395 . S
C78 C81 1.390 . S
C79 C77 1.391 . S
C79 C83 1.387 . S
C79 C84 1.491 . S
H80 C81 0.950 . S
C81 C78 1.390 . S
C81 H80 0.950 . S
C81 C82 1.378 . S
C82 C81 1.378 . S
C82 C83 1.409 . S
C83 C79 1.387 . S
C83 C82 1.409 . S
C83 H85 0.951 . S
C84 C79 1.491 . S
C84 C86 1.382 . S
C84 C88 1.404 . S
H85 C83 0.951 . S
C86 C84 1.382 . S
C86 C87 1.390 . S
C86 H91 0.949 . S
C87 C86 1.390 . S
C87 C92 1.399 . S
C88 C84 1.404 . S
C88 H89 0.950 . S
C88 C90 1.375 . S
H89 C88 0.950 . S
C90 C88 1.375 . S
C90 C92 1.382 . S
C90 H94 0.950 . S
H91 C86 0.949 . S
C92 C87 1.399 . S
C92 C90 1.382 . S
C92 H93 0.952 . S
H93 C92 0.952 . S
H94 C90 0.950 . S
H95 C96 0.949 . S
C96 H95 0.949 . S
C96 C97 1.395 . S
C96 C98 1.391 . S
C97 C96 1.395 . S
C97 C100 1.390 . S
C98 C96 1.391 . S
C98 C102 1.387 . S
C98 C103 1.491 . S
H99 C100 0.950 . S
C100 C97 1.390 . S
C100 H99 0.950 . S
C100 C101 1.378 . S
C101 C100 1.378 . S
C101 C102 1.409 . S
C102 C98 1.387 . S
C102 C101 1.409 . S
C102 H104 0.951 . S
C103 C98 1.491 . S
C103 C105 1.382 . S
C103 C107 1.404 . S
H104 C102 0.951 . S
C105 C103 1.382 . S
C105 C106 1.390 . S
C105 H110 0.949 . S
C106 C105 1.390 . S
C106 C111 1.399 . S
C107 C103 1.404 . S
C107 H108 0.950 . S
C107 C109 1.375 . S
H108 C107 0.950 . S
C109 C107 1.375 . S
C109 C111 1.382 . S
C109 H113 0.950 . S
H110 C105 0.949 . S
C111 C106 1.399 . S
C111 C109 1.382 . S
C111 H112 0.952 . S
H112 C111 0.952 . S
H113 C109 0.950 . S
H114 C115 0.949 . S
C115 H114 0.949 . S
C115 C116 1.395 . S
C115 C117 1.391 . S
C116 C115 1.395 . S
C116 C119 1.390 . S
C117 C115 1.391 . S
C117 C121 1.387 . S
C117 C122 1.491 . S
H118 C119 0.950 . S
C119 C116 1.390 . S
C119 H118 0.950 . S
C119 C120 1.378 . S
C120 C119 1.378 . S
C120 C121 1.409 . S
C121 C117 1.387 . S
C121 C120 1.409 . S
C121 H123 0.951 . S
C122 C117 1.491 . S
C122 C124 1.382 . S
C122 C126 1.404 . S
H123 C121 0.951 . S
C124 C122 1.382 . S
C124 C125 1.390 . S
C124 H129 0.949 . S
C125 C124 1.390 . S
C125 C130 1.399 . S
C126 C122 1.404 . S
C126 H127 0.950 . S
C126 C128 1.375 . S
H127 C126 0.950 . S
C128 C126 1.375 . S
C128 C130 1.382 . S
C128 H132 0.950 . S
H129 C124 0.949 . S
C130 C125 1.399 . S
C130 C128 1.382 . S
C130 H131 0.952 . S
H131 C130 0.952 . S
H132 C128 0.950 . S
H133 C134 0.949 . S
C134 H133 0.949 . S
C134 C135 1.395 . S
C134 C136 1.391 . S
C135 C134 1.395 . S
C135 C138 1.390 . S
C136 C134 1.391 . S
C136 C140 1.387 . S
C136 C141 1.491 . S
H137 C138 0.950 . S
C138 C135 1.390 . S
C138 H137 0.950 . S
C138 C139 1.378 . S
C139 C138 1.378 . S
C139 C140 1.409 . S
C140 C136 1.387 . S
C140 C139 1.409 . S
C140 H142 0.951 . S
C141 C136 1.491 . S
C141 C143 1.382 . S
C141 C145 1.404 . S
H142 C140 0.951 . S
C143 C141 1.382 . S
C143 C144 1.390 . S
C143 H148 0.949 . S
C144 C143 1.390 . S
C144 C149 1.399 . S
C145 C141 1.404 . S
C145 H146 0.950 . S
C145 C147 1.375 . S
H146 C145 0.950 . S
C147 C145 1.375 . S
C147 C149 1.382 . S
C147 H151 0.950 1_565 S
H148 C143 0.949 . S
C149 C144 1.399 . S
C149 C147 1.382 . S
C149 H150 0.952 1_565 S
H150 C149 0.952 1_545 S
H151 C147 0.950 1_545 S
Co152 O155 2.042 . S
Co152 O162 2.264 . S
Co152 O181 2.286 . S
Co152 O182 2.069 . S
Co152 O184 2.015 . S
Co153 O155 2.122 . S
Co153 O161 2.073 . S
Co153 O162 2.327 . S
Co153 O163 1.976 . S
Co154 O155 2.087 . S
Co154 O157 2.087 . S
Co154 O164 2.111 . S
Co154 O165 2.143 1_455 S
Co154 O169 2.111 1_455 S
Co154 O183 2.143 . S
O155 Co152 2.042 . S
O155 Co153 2.122 . S
O155 Co154 2.087 . S
O155 H156 0.980 . S
H156 O155 0.980 . S
O157 Co154 2.087 . S
O157 Co158 2.042 1_455 S
O157 Co159 2.122 1_455 S
O157 H160 0.980 . S
Co158 O157 2.042 1_655 S
Co158 O166 2.286 . S
Co158 O167 2.069 . S
Co158 O168 2.015 . S
Co158 O171 2.264 . S
Co159 O157 2.122 1_655 S
Co159 O170 1.976 . S
Co159 O171 2.327 . S
Co159 O172 2.073 . S
H160 O157 0.980 . S
O161 Co153 2.073 . S
O161 C176 1.245 . S
O162 Co152 2.264 . S
O162 Co153 2.327 . S
O162 C176 1.257 . S
O163 Co153 1.976 . S
O163 C175 1.251 . S
O164 Co154 2.111 . S
O164 C175 1.274 . S
O165 Co154 2.143 1_655 S
O165 C178 1.246 . S
O166 Co158 2.286 . S
O166 C177 1.259 . S
O167 Co158 2.069 . S
O167 C177 1.289 . S
O168 Co158 2.015 . S
O168 C178 1.257 . S
O169 Co154 2.111 1_655 S
O169 C179 1.274 . S
O170 Co159 1.976 . S
O170 C179 1.251 . S
O171 Co158 2.264 . S
O171 Co159 2.327 . S
O171 C180 1.257 . S
O172 Co159 2.073 . S
O172 C180 1.245 . S
C173 O181 1.259 . S
C173 O182 1.289 . S
C174 O183 1.246 . S
C174 O184 1.257 . S
C175 O163 1.251 . S
C175 O164 1.274 . S
C176 O161 1.245 . S
C176 O162 1.257 . S
C177 O166 1.259 . S
C177 O167 1.289 . S
C178 O165 1.246 . S
C178 O168 1.257 . S
C179 O169 1.274 . S
C179 O170 1.251 . S
C180 O171 1.257 . S
C180 O172 1.245 . S
O181 Co152 2.286 . S
O181 C173 1.259 . S
O182 Co152 2.069 . S
O182 C173 1.289 . S
O183 Co154 2.143 . S
O183 C174 1.246 . S
O184 Co152 2.015 . S
O184 C174 1.257 . S
Co185 O188 2.042 . S
Co185 O195 2.264 . S
Co185 O214 2.286 . S
Co185 O215 2.069 . S
Co185 O217 2.015 . S
Co186 O188 2.122 . S
Co186 O194 2.073 . S
Co186 O195 2.327 . S
Co186 O196 1.976 . S
Co187 O188 2.087 1_545 S
Co187 O190 2.087 . S
Co187 O197 2.111 1_545 S
Co187 O198 2.143 . S
Co187 O202 2.111 . S
Co187 O216 2.143 1_545 S
O188 Co185 2.042 . S
O188 Co186 2.122 . S
O188 Co187 2.087 1_565 S
O188 H189 0.980 1_565 S
H189 O188 0.980 1_545 S
O190 Co187 2.087 . S
O190 Co191 2.042 . S
O190 Co192 2.122 . S
O190 H193 0.980 . S
Co191 O190 2.042 . S
Co191 O199 2.286 . S
Co191 O200 2.069 . S
Co191 O201 2.015 . S
Co191 O204 2.264 . S
Co192 O190 2.122 . S
Co192 O203 1.976 . S
Co192 O204 2.327 . S
Co192 O205 2.073 . S
H193 O190 0.980 . S
O194 Co186 2.073 . S
O194 C209 1.245 . S
O195 Co185 2.264 . S
O195 Co186 2.327 . S
O195 C209 1.257 . S
O196 Co186 1.976 . S
O196 C208 1.251 . S
O197 Co187 2.111 1_565 S
O197 C208 1.274 . S
O198 Co187 2.143 . S
O198 C211 1.246 . S
O199 Co191 2.286 . S
O199 C210 1.259 . S
O200 Co191 2.069 . S
O200 C210 1.289 . S
O201 Co191 2.015 . S
O201 C211 1.257 . S
O202 Co187 2.111 . S
O202 C212 1.274 . S
O203 Co192 1.976 . S
O203 C212 1.251 . S
O204 Co191 2.264 . S
O204 Co192 2.327 . S
O204 C213 1.257 . S
O205 Co192 2.073 . S
O205 C213 1.245 . S
C206 O214 1.259 . S
C206 O215 1.289 . S
C207 O216 1.246 . S
C207 O217 1.257 . S
C208 O196 1.251 . S
C208 O197 1.274 . S
C209 O194 1.245 . S
C209 O195 1.257 . S
C210 O199 1.259 . S
C210 O200 1.289 . S
C211 O198 1.246 . S
C211 O201 1.257 . S
C212 O202 1.274 . S
C212 O203 1.251 . S
C213 O204 1.257 . S
C213 O205 1.245 . S
O214 Co185 2.286 . S
O214 C206 1.259 . S
O215 Co185 2.069 . S
O215 C206 1.289 . S
O216 Co187 2.143 1_565 S
O216 C207 1.246 . S
O217 Co185 2.015 . S
O217 C207 1.257 . S
Co218 O221 2.042 . S
Co218 O228 2.264 . S
Co218 O247 2.286 . S
Co218 O248 2.069 . S
Co218 O250 2.015 . S
Co219 O221 2.122 . S
Co219 O227 2.073 . S
Co219 O228 2.327 . S
Co219 O229 1.976 . S
Co220 O221 2.087 . S
Co220 O223 2.087 1_554 S
Co220 O230 2.111 . S
Co220 O231 2.143 1_554 S
Co220 O235 2.111 1_554 S
Co220 O249 2.143 . S
O221 Co218 2.042 . S
O221 Co219 2.122 . S
O221 Co220 2.087 . S
O221 H222 0.980 . S
H222 O221 0.980 . S
O223 Co220 2.087 1_556 S
O223 Co224 2.042 . S
O223 Co225 2.122 . S
O223 H226 0.980 . S
Co224 O223 2.042 . S
Co224 O232 2.286 . S
Co224 O233 2.069 . S
Co224 O234 2.015 . S
Co224 O237 2.264 . S
Co225 O223 2.122 . S
Co225 O236 1.976 . S
Co225 O237 2.327 . S
Co225 O238 2.073 . S
H226 O223 0.980 . S
O227 Co219 2.073 . S
O227 C242 1.245 . S
O228 Co218 2.264 . S
O228 Co219 2.327 . S
O228 C242 1.257 . S
O229 Co219 1.976 . S
O229 C241 1.251 . S
O230 Co220 2.111 . S
O230 C241 1.274 . S
O231 Co220 2.143 1_556 S
O231 C244 1.246 . S
O232 Co224 2.286 . S
O232 C243 1.259 . S
O233 Co224 2.069 . S
O233 C243 1.289 . S
O234 Co224 2.015 . S
O234 C244 1.257 . S
O235 Co220 2.111 1_556 S
O235 C245 1.274 . S
O236 Co225 1.976 . S
O236 C245 1.251 . S
O237 Co224 2.264 . S
O237 Co225 2.327 . S
O237 C246 1.257 . S
O238 Co225 2.073 . S
O238 C246 1.245 . S
C239 O247 1.259 . S
C239 O248 1.289 . S
C240 O249 1.246 . S
C240 O250 1.257 . S
C241 O229 1.251 . S
C241 O230 1.274 . S
C242 O227 1.245 . S
C242 O228 1.257 . S
C243 O232 1.259 . S
C243 O233 1.289 . S
C244 O231 1.246 . S
C244 O234 1.257 . S
C245 O235 1.274 . S
C245 O236 1.251 . S
C246 O237 1.257 . S
C246 O238 1.245 . S
O247 Co218 2.286 . S
O247 C239 1.259 . S
O248 Co218 2.069 . S
O248 C239 1.289 . S
O249 Co220 2.143 . S
O249 C240 1.246 . S
O250 Co218 2.015 . S
O250 C240 1.257 . S
C176 C11 1.474 . S
C212 C25 1.732 . S
C177 C40 2.119 . S
C207 C59 2.001 . S
C174 C82 1.654 . S
C101 C210 2.703 . S
C116 C179 0.560 . S
C209 C144 1.737 . S
C213 C2 2.028 . S
C178 C21 1.327 . S
C206 C49 1.419 . S
C175 C63 1.264 . S
C208 C78 2.248 . S
C106 C173 1.202 . S
C120 C211 1.889 . S
C180 C135 1.939 . S
C242 C6 2.042 . S
C87 C245 1.964 . S
C244 C97 2.615 . S
C125 C243 0.979 . S
C246 C139 2.146 . S
C44 C240 2.285 . S
C239 C68 2.497 . S
C30 C241 0.615 . S
