# Generated by pormake.
# Topology pyr, (3,6)-cn, num edge types: 1
# Building blocks:
#     Node 0, Type 0, BuildingBlock: VETTIZ_charged_linker_0, # of connection points: 3
#     Node 1, Type 0, BuildingBlock: VETTIZ_charged_linker_0, # of connection points: 3
#     Node 2, Type 0, BuildingBlock: VETTIZ_charged_linker_0, # of connection points: 3
#     Node 3, Type 0, BuildingBlock: VETTIZ_charged_linker_0, # of connection points: 3
#     Node 4, Type 0, BuildingBlock: VETTIZ_charged_linker_0, # of connection points: 3
#     Node 5, Type 0, BuildingBlock: VETTIZ_charged_linker_0, # of connection points: 3
#     Node 6, Type 0, BuildingBlock: VETTIZ_charged_linker_0, # of connection points: 3
#     Node 7, Type 0, BuildingBlock: VETTIZ_charged_linker_0, # of connection points: 3
#     Node 8, Type 1, BuildingBlock: BETFAJ_clean_sbu_0, # of connection points: 6
#     Node 9, Type 1, BuildingBlock: BETFAJ_clean_sbu_0, # of connection points: 6
#     Node 10, Type 1, BuildingBlock: BETFAJ_clean_sbu_0, # of connection points: 6
#     Node 11, Type 1, BuildingBlock: BETFAJ_clean_sbu_0, # of connection points: 6
#     Edge 12, Type (0, 1), BuildingBlock: CIFDUS_clean_linker_0, # of connection points: 2
#     Edge 13, Type (0, 1), BuildingBlock: CIFDUS_clean_linker_0, # of connection points: 2
#     Edge 14, Type (0, 1), BuildingBlock: CIFDUS_clean_linker_0, # of connection points: 2
#     Edge 15, Type (0, 1), BuildingBlock: CIFDUS_clean_linker_0, # of connection points: 2
#     Edge 16, Type (0, 1), BuildingBlock: CIFDUS_clean_linker_0, # of connection points: 2
#     Edge 17, Type (0, 1), BuildingBlock: CIFDUS_clean_linker_0, # of connection points: 2
#     Edge 18, Type (0, 1), BuildingBlock: CIFDUS_clean_linker_0, # of connection points: 2
#     Edge 19, Type (0, 1), BuildingBlock: CIFDUS_clean_linker_0, # of connection points: 2
#     Edge 20, Type (0, 1), BuildingBlock: CIFDUS_clean_linker_0, # of connection points: 2
#     Edge 21, Type (0, 1), BuildingBlock: CIFDUS_clean_linker_0, # of connection points: 2
#     Edge 22, Type (0, 1), BuildingBlock: CIFDUS_clean_linker_0, # of connection points: 2
#     Edge 23, Type (0, 1), BuildingBlock: CIFDUS_clean_linker_0, # of connection points: 2
#     Edge 24, Type (0, 1), BuildingBlock: CIFDUS_clean_linker_0, # of connection points: 2
#     Edge 25, Type (0, 1), BuildingBlock: CIFDUS_clean_linker_0, # of connection points: 2
#     Edge 26, Type (0, 1), BuildingBlock: CIFDUS_clean_linker_0, # of connection points: 2
#     Edge 27, Type (0, 1), BuildingBlock: CIFDUS_clean_linker_0, # of connection points: 2
#     Edge 28, Type (0, 1), BuildingBlock: CIFDUS_clean_linker_0, # of connection points: 2
#     Edge 29, Type (0, 1), BuildingBlock: CIFDUS_clean_linker_0, # of connection points: 2
#     Edge 30, Type (0, 1), BuildingBlock: CIFDUS_clean_linker_0, # of connection points: 2
#     Edge 31, Type (0, 1), BuildingBlock: CIFDUS_clean_linker_0, # of connection points: 2
#     Edge 32, Type (0, 1), BuildingBlock: CIFDUS_clean_linker_0, # of connection points: 2
#     Edge 33, Type (0, 1), BuildingBlock: CIFDUS_clean_linker_0, # of connection points: 2
#     Edge 34, Type (0, 1), BuildingBlock: CIFDUS_clean_linker_0, # of connection points: 2
#     Edge 35, Type (0, 1), BuildingBlock: CIFDUS_clean_linker_0, # of connection points: 2
# Relax obj value: 0.111
# Max RMSD: 0.125
# Mean RMSD: 0.061
data_MOF--net-pyr--node1-BETFAJ_clean_sbu_0--node2-VETTIZ_charged_linker_0--edge1-CIFDUS_clean_linker_0
_symmetry_space_group_name_H-M    P1
_symmetry_Int_Tables_number       1
_symmetry_cell_setting            triclinic
loop_
_symmetry_equiv_pos_as_xyz
'x, y, z'
_cell_length_a     42.064933
_cell_length_b     43.546012
_cell_length_c     39.359583
_cell_angle_alpha  90.94277
_cell_angle_beta   88.453517
_cell_angle_gamma 100.25027
loop_
_atom_site_label
_atom_site_type_symbol
_atom_site_fract_x
_atom_site_fract_y
_atom_site_fract_z
_atom_type_partial_charge
C0 C 0.31386 0.2504 0.36004 0.0
C1 C 0.28316 0.25465 0.37241 0.0
C2 C 0.2705 0.28031 0.36046 0.0
C3 C 0.31319 0.28995 0.31765 0.0
C4 C 0.32786 0.26745 0.33184 0.0
C5 C 0.35567 0.26025 0.31003 0.0
H6 H 0.41136 0.24388 0.15253 0.0
C7 C 0.32837 0.29762 0.28393 0.0
C8 C 0.3535 0.28059 0.27928 0.0
H9 H 0.44792 0.21464 0.24603 0.0
H10 H 0.41659 0.24703 0.27843 0.0
H11 H 0.41961 0.31713 0.17927 0.0
H12 H 0.33649 0.24318 0.17514 0.0
H13 H 0.32796 0.27756 0.15679 0.0
H14 H 0.35927 0.25925 0.13827 0.0
H15 H 0.39814 0.30753 0.14066 0.0
H16 H 0.38577 0.33437 0.17176 0.0
C17 C 0.38749 0.27068 0.32937 0.0
C18 C 0.34868 0.22492 0.30092 0.0
C19 C 0.26971 0.35567 0.20278 0.0
C20 C 0.27268 0.36129 0.1677 0.0
C21 C 0.2984 0.3515 0.14916 0.0
C22 C 0.3201 0.33566 0.16525 0.0
C23 C 0.31591 0.32932 0.20017 0.0
C24 C 0.29141 0.33991 0.21835 0.0
C25 C 0.28977 0.33069 0.25496 0.0
C26 C 0.31794 0.31335 0.25616 0.0
C27 C 0.3329 0.31215 0.22393 0.0
C28 C 0.29587 0.36084 0.27703 0.0
C29 C 0.25654 0.30919 0.26205 0.0
C30 C 0.4124 0.24444 0.18 0.0
C31 C 0.43109 0.22597 0.19695 0.0
C32 C 0.43323 0.22828 0.23257 0.0
C33 C 0.41486 0.2467 0.25131 0.0
C34 C 0.39377 0.26239 0.2343 0.0
C35 C 0.39439 0.26301 0.19924 0.0
C36 C 0.37324 0.2845 0.18605 0.0
C37 C 0.35803 0.29449 0.21904 0.0
C38 C 0.36936 0.28031 0.247 0.0
C39 C 0.3951 0.3123 0.16826 0.0
C40 C 0.34787 0.26532 0.16267 0.0
H41 H 0.27415 0.31652 0.32474 0.0
H42 H 0.3252 0.23205 0.36981 0.0
H43 H 0.32404 0.21821 0.29055 0.0
H44 H 0.3655 0.21788 0.28173 0.0
H45 H 0.35011 0.21057 0.3237 0.0
H46 H 0.38437 0.28661 0.35112 0.0
H47 H 0.39651 0.25036 0.33978 0.0
H48 H 0.40671 0.2841 0.31291 0.0
H49 H 0.24989 0.36201 0.21784 0.0
H50 H 0.30157 0.35581 0.12216 0.0
H51 H 0.33884 0.32833 0.14979 0.0
H52 H 0.3156 0.37834 0.2656 0.0
H53 H 0.27384 0.37161 0.27914 0.0
H54 H 0.30388 0.35679 0.30284 0.0
H55 H 0.24355 0.30133 0.23833 0.0
H56 H 0.25907 0.28722 0.27463 0.0
H57 H 0.24019 0.32132 0.27785 0.0
H58 H 0.24726 0.28495 0.36939 0.0
C59 C 0.28577 0.29833 0.33366 0.0
C60 C 0.1817 0.88722 0.59184 0.0
C61 C 0.17098 0.90806 0.61528 0.0
C62 C 0.18748 0.91556 0.64569 0.0
C63 C 0.22747 0.88497 0.62725 0.0
C64 C 0.21025 0.87612 0.5982 0.0
C65 C 0.22724 0.85617 0.57477 0.0
H66 H 0.36414 0.79982 0.53648 0.0
C67 C 0.25812 0.87326 0.6243 0.0
C68 C 0.2584 0.85649 0.59358 0.0
H69 H 0.27283 0.77671 0.48641 0.0
H70 H 0.25001 0.81216 0.52453 0.0
H71 H 0.36345 0.8764 0.55582 0.0
H72 H 0.33494 0.78732 0.60387 0.0
H73 H 0.34751 0.81404 0.63667 0.0
H74 H 0.37611 0.80724 0.60357 0.0
H75 H 0.39126 0.8519 0.56796 0.0
H76 H 0.37791 0.87916 0.5976 0.0
C77 C 0.23345 0.87238 0.53993 0.0
C78 C 0.20647 0.82304 0.57303 0.0
C79 C 0.34177 0.90459 0.71422 0.0
C80 C 0.37344 0.8994 0.7179 0.0
C81 C 0.38718 0.8818 0.69306 0.0
C82 C 0.36964 0.87008 0.6644 0.0
C83 C 0.33795 0.87572 0.66096 0.0
C84 C 0.32453 0.8925 0.68584 0.0
C85 C 0.29066 0.89618 0.67836 0.0
C86 C 0.2857 0.87852 0.64489 0.0
C87 C 0.31343 0.86682 0.63472 0.0
C88 C 0.29018 0.93157 0.67458 0.0
C89 C 0.26794 0.87987 0.7069 0.0
C90 C 0.33969 0.80356 0.53264 0.0
C91 C 0.32054 0.78656 0.50773 0.0
C92 C 0.28816 0.79035 0.5049 0.0
C93 C 0.27494 0.81049 0.52733 0.0
C94 C 0.29412 0.82614 0.55328 0.0
C95 C 0.32591 0.82235 0.55558 0.0
C96 C 0.34144 0.83656 0.58738 0.0
C97 C 0.31397 0.85008 0.60364 0.0
C98 C 0.28648 0.8445 0.58335 0.0
C99 C 0.3702 0.8623 0.57691 0.0
C100 C 0.35077 0.81016 0.60906 0.0
H101 H 0.22748 0.91114 0.67518 0.0
H102 H 0.16931 0.88134 0.56821 0.0
H103 H 0.19175 0.81752 0.59678 0.0
H104 H 0.22137 0.80455 0.57073 0.0
H105 H 0.18956 0.8208 0.55157 0.0
H106 H 0.24374 0.89755 0.54344 0.0
H107 H 0.21063 0.87065 0.52591 0.0
H108 H 0.25093 0.86259 0.52355 0.0
H109 H 0.33047 0.91765 0.73328 0.0
H110 H 0.41159 0.87752 0.69564 0.0
H111 H 0.38144 0.85717 0.64605 0.0
H112 H 0.31438 0.94479 0.66696 0.0
H113 H 0.28283 0.942 0.69884 0.0
H114 H 0.27416 0.93642 0.65426 0.0
H115 H 0.27593 0.85815 0.715 0.0
H116 H 0.24283 0.87221 0.69868 0.0
H117 H 0.26784 0.89531 0.72964 0.0
H118 H 0.1793 0.9315 0.664 0.0
C119 C 0.21553 0.9039 0.65194 0.0
C120 C 0.62472 0.27372 0.92144 0.0
C121 C 0.59418 0.2562 0.91254 0.0
C122 C 0.57579 0.27069 0.88982 0.0
C123 C 0.61847 0.31626 0.88335 0.0
C124 C 0.63601 0.30354 0.907 0.0
C125 C 0.66672 0.32591 0.9154 0.0
H126 H 0.77056 0.46318 0.88916 0.0
C127 C 0.63724 0.34725 0.87238 0.0
C128 C 0.66554 0.35309 0.89156 0.0
H129 H 0.774 0.39394 0.96607 0.0
H130 H 0.72608 0.36247 0.94423 0.0
H131 H 0.69063 0.46101 0.89621 0.0
H132 H 0.74859 0.41377 0.82778 0.0
H133 H 0.71737 0.42501 0.8048 0.0
H134 H 0.74748 0.45459 0.82381 0.0
H135 H 0.71985 0.48139 0.86652 0.0
H136 H 0.67968 0.46493 0.85367 0.0
C137 C 0.66444 0.3358 0.9533 0.0
C138 C 0.69579 0.3097 0.90655 0.0
C139 C 0.59599 0.409 0.77714 0.0
C140 C 0.60954 0.43627 0.75899 0.0
C141 C 0.64084 0.45145 0.76777 0.0
C142 C 0.6578 0.44047 0.79425 0.0
C143 C 0.64385 0.41347 0.81232 0.0
C144 C 0.61369 0.39779 0.80306 0.0
C145 C 0.60351 0.36834 0.82356 0.0
C146 C 0.63211 0.36911 0.84697 0.0
C147 C 0.65559 0.39607 0.84075 0.0
C148 C 0.57216 0.37118 0.84389 0.0
C149 C 0.59992 0.34018 0.79863 0.0
C150 C 0.76094 0.44146 0.9017 0.0
C151 C 0.77714 0.43141 0.92957 0.0
C152 C 0.76326 0.40247 0.94425 0.0
C153 C 0.73485 0.38416 0.93176 0.0
C154 C 0.71912 0.39458 0.90424 0.0
C155 C 0.73212 0.42288 0.88969 0.0
C156 C 0.7117 0.43023 0.86075 0.0
C157 C 0.68386 0.40231 0.86116 0.0
C158 C 0.68861 0.38118 0.88656 0.0
C159 C 0.69985 0.46111 0.86944 0.0
C160 C 0.73223 0.43123 0.82744 0.0
H161 H 0.57229 0.3089 0.85801 0.0
H162 H 0.63982 0.26459 0.93911 0.0
H163 H 0.69285 0.29816 0.88112 0.0
H164 H 0.71896 0.32618 0.90513 0.0
H165 H 0.6978 0.29153 0.92546 0.0
H166 H 0.63887 0.3341 0.96225 0.0
H167 H 0.67593 0.32075 0.9699 0.0
H168 H 0.67538 0.36052 0.95782 0.0
H169 H 0.57221 0.39643 0.77101 0.0
H170 H 0.65197 0.47242 0.75458 0.0
H171 H 0.68123 0.45357 0.79979 0.0
H172 H 0.57277 0.39556 0.85312 0.0
H173 H 0.55058 0.36467 0.82789 0.0
H174 H 0.56889 0.35685 0.86703 0.0
H175 H 0.62039 0.34307 0.77978 0.0
H176 H 0.60041 0.31788 0.81127 0.0
H177 H 0.57716 0.33801 0.78439 0.0
H178 H 0.55154 0.25985 0.88336 0.0
C179 C 0.58774 0.29991 0.87511 0.0
C180 C 0.91056 0.79508 0.39711 0.0
C181 C 0.90109 0.81154 0.42618 0.0
C182 C 0.87451 0.79634 0.44598 0.0
C183 C 0.86658 0.75131 0.40774 0.0
C184 C 0.89325 0.76498 0.38869 0.0
C185 C 0.90062 0.74336 0.35994 0.0
H186 H 0.86361 0.60105 0.27881 0.0
C187 C 0.85348 0.72027 0.39252 0.0
C188 C 0.8735 0.71505 0.36455 0.0
H189 H 0.94351 0.67536 0.25556 0.0
H190 H 0.92473 0.70777 0.29974 0.0
H191 H 0.86557 0.60769 0.36173 0.0
H192 H 0.81025 0.64746 0.28849 0.0
H193 H 0.78499 0.63451 0.32361 0.0
H194 H 0.8022 0.60657 0.298 0.0
H195 H 0.83537 0.58421 0.33635 0.0
H196 H 0.82465 0.60251 0.37528 0.0
C197 C 0.93422 0.73502 0.36588 0.0
C198 C 0.89825 0.75976 0.32585 0.0
C199 C 0.74975 0.658 0.44403 0.0
C200 C 0.73042 0.62882 0.43674 0.0
C201 C 0.74024 0.61124 0.40907 0.0
C202 C 0.76863 0.62227 0.38962 0.0
C203 C 0.78772 0.65142 0.39757 0.0
C204 C 0.7779 0.66867 0.42441 0.0
C205 C 0.80075 0.69902 0.42967 0.0
C206 C 0.82574 0.69763 0.40129 0.0
C207 C 0.81833 0.66962 0.38248 0.0
C208 C 0.81554 0.6985 0.46535 0.0
C209 C 0.7817 0.7259 0.42455 0.0
C210 C 0.87731 0.6242 0.28331 0.0
C211 C 0.90548 0.63524 0.26347 0.0
C212 C 0.92179 0.666 0.27003 0.0
C213 C 0.91099 0.68477 0.29605 0.0
C214 C 0.88333 0.67303 0.31609 0.0
C215 C 0.8667 0.6433 0.30908 0.0
C216 C 0.83709 0.63486 0.33194 0.0
C217 C 0.8392 0.66377 0.35468 0.0
C218 C 0.8665 0.68632 0.34547 0.0
C219 C 0.84054 0.60566 0.35239 0.0
C220 C 0.8069 0.63035 0.30954 0.0
H221 H 0.83728 0.75738 0.45313 0.0
H222 H 0.93082 0.80528 0.38104 0.0
H223 H 0.87662 0.77122 0.32613 0.0
H224 H 0.89539 0.74336 0.30404 0.0
H225 H 0.9199 0.77802 0.32111 0.0
H226 H 0.937 0.73016 0.3932 0.0
H227 H 0.95379 0.75459 0.35845 0.0
H228 H 0.93809 0.71373 0.35205 0.0
H229 H 0.74305 0.6726 0.46458 0.0
H230 H 0.7263 0.58858 0.40281 0.0
H231 H 0.77481 0.60756 0.36924 0.0
H232 H 0.81562 0.67423 0.47372 0.0
H233 H 0.80168 0.70972 0.48487 0.0
H234 H 0.84125 0.70987 0.46571 0.0
H235 H 0.76514 0.72057 0.40283 0.0
H236 H 0.79732 0.74828 0.41815 0.0
H237 H 0.76678 0.7294 0.44753 0.0
H238 H 0.867 0.80679 0.46926 0.0
C239 C 0.85727 0.76693 0.43683 0.0
C240 C 0.72492 0.71908 0.92383 0.0
C241 C 0.74383 0.69857 0.90885 0.0
C242 C 0.74425 0.69464 0.87325 0.0
C243 C 0.71118 0.73419 0.8678 0.0
C244 C 0.70824 0.73619 0.90273 0.0
C245 C 0.68638 0.75873 0.91361 0.0
H246 H 0.59963 0.86879 0.86867 0.0
C247 C 0.69364 0.75678 0.85285 0.0
C248 C 0.67779 0.77044 0.87935 0.0
H249 H 0.61497 0.83842 0.96975 0.0
H250 H 0.64471 0.79969 0.94646 0.0
H251 H 0.58988 0.79792 0.82869 0.0
H252 H 0.66273 0.87718 0.8455 0.0
H253 H 0.68049 0.858 0.81251 0.0
H254 H 0.64324 0.87184 0.80561 0.0
H255 H 0.59257 0.83629 0.81145 0.0
H256 H 0.61173 0.80722 0.79007 0.0
C257 C 0.65646 0.7402 0.93247 0.0
C258 C 0.70625 0.78504 0.93517 0.0
C259 C 0.72728 0.79817 0.73596 0.0
C260 C 0.71963 0.82363 0.71831 0.0
C261 C 0.69114 0.83487 0.72772 0.0
C262 C 0.67313 0.82374 0.75682 0.0
C263 C 0.68385 0.80139 0.77679 0.0
C264 C 0.70922 0.78753 0.76519 0.0
C265 C 0.71673 0.76363 0.78953 0.0
C266 C 0.69403 0.76821 0.81928 0.0
C267 C 0.67519 0.79063 0.81173 0.0
C268 C 0.70785 0.73081 0.77274 0.0
C269 C 0.75274 0.7724 0.79912 0.0
C270 C 0.6088 0.85324 0.88562 0.0
C271 C 0.60473 0.85612 0.92089 0.0
C272 C 0.6178 0.8363 0.94242 0.0
C273 C 0.63508 0.81397 0.92884 0.0
C274 C 0.63998 0.81205 0.89342 0.0
C275 C 0.62689 0.83153 0.8725 0.0
C276 C 0.63691 0.82846 0.83587 0.0
C277 C 0.65741 0.80319 0.83804 0.0
C278 C 0.65899 0.79347 0.87176 0.0
C279 C 0.60622 0.81703 0.81518 0.0
C280 C 0.65672 0.86036 0.82406 0.0
H281 H 0.72954 0.70873 0.8258 0.0
H282 H 0.72357 0.72201 0.95118 0.0
H283 H 0.73111 0.79185 0.92418 0.0
H284 H 0.69608 0.80671 0.93588 0.0
H285 H 0.7084 0.77732 0.96164 0.0
H286 H 0.64901 0.71677 0.92054 0.0
H287 H 0.6617 0.73667 0.9595 0.0
H288 H 0.63499 0.75147 0.9313 0.0
H289 H 0.74867 0.78865 0.72913 0.0
H290 H 0.68394 0.85366 0.71381 0.0
H291 H 0.65254 0.83408 0.76367 0.0
H292 H 0.69419 0.73122 0.74898 0.0
H293 H 0.7298 0.72093 0.76587 0.0
H294 H 0.6919 0.71421 0.7896 0.0
H295 H 0.75849 0.79725 0.80749 0.0
H296 H 0.7593 0.75838 0.81998 0.0
H297 H 0.76889 0.76907 0.7771 0.0
H298 H 0.75851 0.67895 0.86111 0.0
C299 C 0.72783 0.71216 0.85272 0.0
C300 C 0.85637 0.21888 0.50705 0.0
C301 C 0.8707 0.20178 0.482 0.0
C302 C 0.85712 0.19811 0.44947 0.0
C303 C 0.81145 0.22004 0.47033 0.0
C304 C 0.82697 0.22817 0.50045 0.0
C305 C 0.80771 0.24594 0.52403 0.0
H306 H 0.66352 0.28801 0.56154 0.0
C307 C 0.77871 0.22726 0.47368 0.0
C308 C 0.77642 0.24302 0.50478 0.0
H309 H 0.75535 0.32578 0.60543 0.0
H310 H 0.78116 0.28979 0.5709 0.0
H311 H 0.67461 0.21159 0.54843 0.0
H312 H 0.68768 0.29774 0.49346 0.0
H313 H 0.67684 0.26804 0.46324 0.0
H314 H 0.64882 0.27307 0.49757 0.0
H315 H 0.64189 0.22981 0.53545 0.0
H316 H 0.65908 0.20359 0.50749 0.0
C317 C 0.80235 0.22939 0.5587 0.0
C318 C 0.82559 0.28028 0.52656 0.0
C319 C 0.69419 0.17771 0.39046 0.0
C320 C 0.66098 0.17757 0.38849 0.0
C321 C 0.64527 0.19354 0.41318 0.0
C322 C 0.66264 0.20928 0.44009 0.0
C323 C 0.69605 0.20933 0.44181 0.0
C324 C 0.71126 0.19385 0.4171 0.0
C325 C 0.74693 0.19697 0.42233 0.0
C326 C 0.75069 0.21693 0.45447 0.0
C327 C 0.72082 0.22371 0.46589 0.0
C328 C 0.75415 0.16379 0.42798 0.0
C329 C 0.76536 0.21403 0.39139 0.0
C330 C 0.68888 0.28741 0.56502 0.0
C331 C 0.70733 0.30886 0.58688 0.0
C332 C 0.74067 0.30885 0.58926 0.0
C333 C 0.75561 0.2885 0.56879 0.0
C334 C 0.73711 0.26892 0.54508 0.0
C335 C 0.70428 0.26859 0.5436 0.0
C336 C 0.68933 0.25072 0.51334 0.0
C337 C 0.71869 0.24081 0.49652 0.0
C338 C 0.7464 0.25076 0.51566 0.0
C339 C 0.66473 0.22247 0.5266 0.0
C340 C 0.67464 0.27329 0.49069 0.0
H341 H 0.81747 0.20211 0.41893 0.0
H342 H 0.86649 0.22312 0.53201 0.0
H343 H 0.84496 0.28588 0.50666 0.0
H344 H 0.80912 0.29711 0.52262 0.0
H345 H 0.8372 0.28532 0.55155 0.0
H346 H 0.79256 0.20413 0.55505 0.0
H347 H 0.82541 0.23159 0.5724 0.0
H348 H 0.785 0.23906 0.57545 0.0
H349 H 0.7067 0.16594 0.37122 0.0
H350 H 0.61963 0.19373 0.41162 0.0
H351 H 0.64942 0.22095 0.45835 0.0
H352 H 0.73727 0.15143 0.4476 0.0
H353 H 0.7511 0.14973 0.40411 0.0
H354 H 0.77866 0.16363 0.43693 0.0
H355 H 0.74992 0.22737 0.37714 0.0
H356 H 0.78628 0.23175 0.39916 0.0
H357 H 0.77386 0.19727 0.37321 0.0
H358 H 0.8685 0.18678 0.429 0.0
C359 C 0.82745 0.20697 0.4436 0.0
C360 C 0.4046 0.67877 0.32149 0.0
C361 C 0.39164 0.64908 0.33515 0.0
C362 C 0.36375 0.63206 0.31986 0.0
C363 C 0.36204 0.67385 0.2793 0.0
C364 C 0.38978 0.69042 0.29357 0.0
C365 C 0.40143 0.72079 0.27512 0.0
H366 H 0.38297 0.82255 0.14883 0.0
C367 C 0.35245 0.69263 0.25076 0.0
C368 C 0.37586 0.72023 0.24813 0.0
H369 H 0.46074 0.83034 0.21969 0.0
H370 H 0.43526 0.78233 0.24632 0.0
H371 H 0.32527 0.79893 0.20461 0.0
H372 H 0.37829 0.74998 0.1336 0.0
H373 H 0.33773 0.73127 0.13282 0.0
H374 H 0.34826 0.77161 0.12053 0.0
H375 H 0.31839 0.79803 0.15979 0.0
H376 H 0.29749 0.76804 0.18755 0.0
C377 C 0.40122 0.74802 0.30076 0.0
C378 C 0.43511 0.71946 0.25897 0.0
C379 C 0.24744 0.65483 0.18507 0.0
C380 C 0.23216 0.66822 0.15871 0.0
C381 C 0.24826 0.69698 0.14547 0.0
C382 C 0.27786 0.71233 0.1582 0.0
C383 C 0.29239 0.69918 0.18482 0.0
C384 C 0.27735 0.67078 0.19781 0.0
C385 C 0.29683 0.66064 0.22619 0.0
C386 C 0.32554 0.68773 0.2283 0.0
C387 C 0.32275 0.71025 0.20371 0.0
C388 C 0.27573 0.6579 0.25912 0.0
C389 C 0.30772 0.62986 0.21499 0.0
C390 C 0.39439 0.81417 0.1703 0.0
C391 C 0.4243 0.83069 0.18173 0.0
C392 C 0.43809 0.81826 0.20973 0.0
C393 C 0.42319 0.79018 0.22531 0.0
C394 C 0.39389 0.77354 0.21299 0.0
C395 C 0.3799 0.7858 0.18602 0.0
C396 C 0.34892 0.76483 0.17599 0.0
C397 C 0.34678 0.73791 0.20086 0.0
C398 C 0.37318 0.74301 0.2228 0.0
C399 C 0.32092 0.78326 0.18195 0.0
C400 C 0.35317 0.75389 0.13874 0.0
H401 H 0.32764 0.63001 0.28252 0.0
H402 H 0.4262 0.6925 0.33197 0.0
H403 H 0.43625 0.69557 0.24912 0.0
H404 H 0.44088 0.73476 0.23675 0.0
H405 H 0.4544 0.72567 0.27789 0.0
H406 H 0.37878 0.74393 0.3169 0.0
H407 H 0.42215 0.75039 0.31783 0.0
H408 H 0.40146 0.77057 0.2883 0.0
H409 H 0.23607 0.63285 0.19606 0.0
H410 H 0.23796 0.70778 0.12483 0.0
H411 H 0.2883 0.73408 0.14673 0.0
H412 H 0.26323 0.67829 0.26206 0.0
H413 H 0.25695 0.63645 0.25857 0.0
H414 H 0.28991 0.65777 0.28225 0.0
H415 H 0.31469 0.63039 0.18751 0.0
H416 H 0.32937 0.62582 0.22824 0.0
H417 H 0.28795 0.60955 0.21904 0.0
H418 H 0.35291 0.60938 0.32958 0.0
C419 C 0.34893 0.64422 0.29246 0.0
C420 C 0.10212 0.27328 0.69696 0.0
C421 C 0.11368 0.25742 0.66873 0.0
C422 C 0.14219 0.27227 0.65175 0.0
C423 C 0.14687 0.31715 0.69026 0.0
C424 C 0.119 0.30299 0.70717 0.0
C425 C 0.11005 0.32336 0.73624 0.0
H426 H 0.14768 0.45478 0.83528 0.0
C427 C 0.15909 0.34762 0.70737 0.0
C428 C 0.13768 0.35142 0.73461 0.0
H429 H 0.06149 0.38366 0.84082 0.0
H430 H 0.08136 0.35624 0.79377 0.0
H431 H 0.14767 0.45885 0.75063 0.0
H432 H 0.19877 0.40916 0.81882 0.0
H433 H 0.22557 0.42491 0.78591 0.0
H434 H 0.20854 0.4508 0.81455 0.0
H435 H 0.17732 0.47845 0.77936 0.0
H436 H 0.1889 0.46443 0.73843 0.0
C437 C 0.07716 0.33264 0.72849 0.0
C438 C 0.10998 0.30518 0.76964 0.0
C439 C 0.26223 0.41622 0.66121 0.0
C440 C 0.28173 0.44427 0.67246 0.0
C441 C 0.27192 0.45782 0.70316 0.0
C442 C 0.24354 0.44458 0.72129 0.0
C443 C 0.22436 0.41694 0.70933 0.0
C444 C 0.23426 0.40294 0.68008 0.0
C445 C 0.21229 0.37245 0.67235 0.0
C446 C 0.18699 0.37093 0.70103 0.0
C447 C 0.19385 0.39729 0.72259 0.0
C448 C 0.19736 0.37511 0.63723 0.0
C449 C 0.2323 0.34589 0.6746 0.0
C450 C 0.13273 0.43351 0.82639 0.0
C451 C 0.10289 0.42156 0.84313 0.0
C452 C 0.08492 0.39342 0.82994 0.0
C453 C 0.09635 0.37746 0.80202 0.0
C454 C 0.12612 0.38956 0.78603 0.0
C455 C 0.1436 0.41741 0.79799 0.0
C456 C 0.17419 0.42741 0.77687 0.0
C457 C 0.17216 0.40112 0.75041 0.0
C458 C 0.14401 0.37863 0.75612 0.0
C459 C 0.17225 0.45905 0.76049 0.0
C460 C 0.20346 0.42841 0.80009 0.0
H461 H 0.18003 0.31141 0.64791 0.0
H462 H 0.08019 0.26303 0.71057 0.0
H463 H 0.13171 0.29392 0.77047 0.0
H464 H 0.11087 0.32027 0.79249 0.0
H465 H 0.08828 0.28653 0.77177 0.0
H466 H 0.07474 0.33561 0.70071 0.0
H467 H 0.05672 0.31447 0.73721 0.0
H468 H 0.0744 0.35536 0.73995 0.0
H469 H 0.26821 0.40467 0.638 0.0
H470 H 0.28636 0.47862 0.71377 0.0
H471 H 0.23773 0.45631 0.74421 0.0
H472 H 0.19033 0.39839 0.63453 0.0
H473 H 0.2149 0.37229 0.6163 0.0
H474 H 0.17498 0.35801 0.63343 0.0
H475 H 0.25242 0.35206 0.69265 0.0
H476 H 0.21796 0.32403 0.68468 0.0
H477 H 0.24312 0.34102 0.64947 0.0
H478 H 0.1523 0.26085 0.63047 0.0
C479 C 0.15861 0.30174 0.66219 0.0
Sm480 Sm 0.02173 0.04689 0.50909 0.0
Sm481 Sm 0.99053 1.02841 0.57596 0.0
C482 C 0.04286 0.06837 0.44915 0.0
C483 C 0.07234 0.09097 0.44058 0.0
C484 C 0.06975 0.11982 0.42655 0.0
C485 C 0.09695 0.14333 0.42335 0.0
C486 C 0.12724 0.13828 0.4339 0.0
C487 C 0.12999 0.10912 0.44701 0.0
C488 C 0.10281 0.08574 0.45046 0.0
C489 C 0.0623 1.02612 0.55357 0.0
C490 C 0.03778 0.09518 0.57327 0.0
C491 C 0.96396 0.99878 0.63063 0.0
C492 C 0.93181 0.97988 0.63736 0.0
C493 C 0.92898 0.95099 0.65343 0.0
C494 C 0.89849 0.93292 0.65973 0.0
C495 C 0.87042 0.94365 0.65029 0.0
C496 C 0.87334 0.97233 0.63372 0.0
C497 C 0.90376 0.99017 0.62705 0.0
C498 C 0.96107 0.06887 0.54126 0.0
C499 C 0.97113 0.98055 0.51063 0.0
O500 O 0.02085 0.07991 0.46693 0.0
O501 O 0.04705 0.04108 0.45991 0.0
O502 O 0.03332 1.01416 0.54894 0.0
O503 O 0.07126 0.04985 0.53398 0.0
O504 O 0.03161 0.09287 0.54045 0.0
O505 O 0.02974 0.07035 0.59283 0.0
O506 O 0.98292 0.98677 0.60942 0.0
O507 O 0.96478 1.02848 0.62575 0.0
O508 O 0.9708 0.04552 0.52823 0.0
O509 O 0.9655 0.07091 0.57367 0.0
O510 O 0.96257 0.9893 0.54147 0.0
O511 O 0.99466 0.99794 0.49304 0.0
H512 H 0.04649 0.12449 0.41906 0.0
H513 H 0.09431 0.16548 0.41266 0.0
H514 H 0.15302 0.10466 0.45547 0.0
H515 H 0.10561 0.06394 0.46187 0.0
H516 H 0.95032 0.94253 0.66128 0.0
H517 H 0.89679 0.91097 0.67282 0.0
H518 H 0.85206 0.98097 0.62598 0.0
H519 H 0.90526 1.01212 0.61401 0.0
Sm520 Sm 0.54377 0.04955 0.07118 0.0
Sm521 Sm 0.48833 1.03814 1.0319 0.0
C522 C 0.59402 0.07195 0.10908 0.0
C523 C 0.59937 0.08947 0.14112 0.0
C524 C 0.58166 0.11299 0.14992 0.0
C525 C 0.58544 0.12791 0.1816 0.0
C526 C 0.60708 0.11952 0.20486 0.0
C527 C 0.62529 0.09643 0.19553 0.0
C528 C 0.62136 0.08146 0.16396 0.0
C529 C 0.5029 0.99429 0.09038 0.0
C530 C 0.48295 0.08266 0.09451 0.0
C531 C 0.43848 1.01345 0.9948 0.0
C532 C 0.43396 1.00428 0.95901 0.0
C533 C 0.41512 0.97535 0.95096 0.0
C534 C 0.41143 0.96567 0.91714 0.0
C535 C 0.42639 0.98492 0.89087 0.0
C536 C 0.4453 1.0139 0.89895 0.0
C537 C 0.44928 1.02344 0.93282 0.0
C538 C 0.52812 0.0934 1.01151 0.0
C539 C 0.55014 1.00529 1.0086 0.0
O540 O 0.5853 0.08677 0.08335 0.0
O541 O 0.57792 0.04358 0.11163 0.0
O542 O 0.49383 1.02005 0.08477 0.0
O543 O 0.53381 0.99725 0.08515 0.0
O544 O 0.5146 0.08557 0.09334 0.0
O545 O 0.46528 0.06045 0.07685 0.0
O546 O 0.45494 0.99674 1.01224 0.0
O547 O 0.44607 0.04328 1.00144 0.0
O548 O 0.53803 0.06828 1.01844 0.0
O549 O 0.49694 0.08898 1.01352 0.0
O550 O 0.51855 1.00326 1.00817 0.0
O551 O 0.56751 1.02641 1.02773 0.0
H552 H 0.56473 0.11958 0.13246 0.0
H553 H 0.57102 0.14554 0.18809 0.0
H554 H 0.64269 0.08996 0.2126 0.0
H555 H 0.63527 0.06341 0.1575 0.0
H556 H 0.40333 0.96022 0.97088 0.0
H557 H 0.39639 0.94338 0.91148 0.0
H558 H 0.45719 1.02904 0.8791 0.0
H559 H 0.46438 0.04569 0.93849 0.0
Sm560 Sm 0.50174 0.50525 0.52069 0.0
Sm561 Sm 0.49742 0.55976 0.56087 0.0
C562 C 0.52532 0.45839 0.49325 0.0
C563 C 0.55409 0.44676 0.50437 0.0
C564 C 0.58208 0.4679 0.5133 0.0
C565 C 0.60732 0.45747 0.52928 0.0
C566 C 0.60488 0.42581 0.53704 0.0
C567 C 0.5772 0.4046 0.52742 0.0
C568 C 0.55202 0.415 0.51122 0.0
C569 C 0.44202 0.49941 0.55398 0.0
C570 C 0.53356 0.51142 0.59797 0.0
C571 C 0.47426 0.60692 0.58821 0.0
C572 C 0.44976 0.62274 0.57351 0.0
C573 C 0.42229 0.60514 0.55839 0.0
C574 C 0.40081 0.61988 0.54112 0.0
C575 C 0.40646 0.65246 0.53839 0.0
C576 C 0.43395 0.67006 0.55346 0.0
C577 C 0.45543 0.6553 0.57087 0.0
C578 C 0.55662 0.56447 0.52698 0.0
C579 C 0.46765 0.55484 0.48191 0.0
O580 O 0.53048 0.4862 0.47993 0.0
O581 O 0.50101 0.45427 0.51503 0.0
O582 O 0.46899 0.5107 0.56684 0.0
O583 O 0.44647 0.49024 0.52291 0.0
O584 O 0.53554 0.50109 0.56631 0.0
O585 O 0.51649 0.53354 0.60478 0.0
O586 O 0.46419 0.57808 0.59751 0.0
O587 O 0.50203 0.61068 0.57176 0.0
O588 O 0.52928 0.55411 0.51459 0.0
O589 O 0.55334 0.57326 0.55846 0.0
O590 O 0.46841 0.5683 0.5124 0.0
O591 O 0.48091 0.52976 0.47707 0.0
H592 H 0.58406 0.4927 0.50905 0.0
H593 H 0.62833 0.47429 0.53644 0.0
H594 H 0.575 0.37992 0.53246 0.0
H595 H 0.53051 0.39842 0.50502 0.0
H596 H 0.41763 0.57989 0.55933 0.0
H597 H 0.37991 0.60578 0.52966 0.0
H598 H 0.43858 0.6953 0.55227 0.0
H599 H 0.47667 0.66925 0.58186 0.0
Sm600 Sm 0.01245 0.50713 0.0626 0.0
Sm601 Sm 1.00571 0.56923 1.02773 0.0
C602 C 0.03329 0.45432 0.07339 0.0
C603 C 0.06002 0.44538 0.0918 0.0
C604 C 0.0818 0.46806 0.10906 0.0
C605 C 0.11003 0.4606 0.12202 0.0
C606 C 0.11686 0.43022 0.11813 0.0
C607 C 0.09423 0.40731 0.10189 0.0
C608 C 0.06615 0.4149 0.08867 0.0
C609 C 0.98368 0.54417 0.10925 0.0
C610 C 0.06971 0.56943 0.07441 0.0
C611 C 0.98699 0.62048 1.00638 0.0
C612 C 0.95644 0.63159 1.00182 0.0
C613 C 0.92664 0.61209 1.00831 0.0
C614 C 0.89773 0.62291 1.00334 0.0
C615 C 0.89821 0.65347 0.99198 0.0
C616 C 0.92825 0.67298 0.98596 0.0
C617 C 0.95707 0.6621 0.99084 0.0
C618 C 0.04311 0.53318 0.99096 0.0
C619 C 0.94654 0.50652 1.01951 0.0
O620 O 0.04242 0.47224 1.04732 0.0
O621 O 0.00986 0.46313 0.09155 0.0
O622 O 0.99288 0.55011 0.07893 0.0
O623 O 0.98917 0.51649 0.11603 0.0
O624 O 0.06154 0.53863 0.07418 0.0
O625 O 0.05077 0.58713 0.06091 0.0
O626 O 0.99466 0.61655 1.03778 0.0
O627 O 0.99268 0.59798 0.98596 0.0
O628 O 0.017 0.52301 1.00735 0.0
O629 O 0.04971 0.56346 0.99364 0.0
O630 O 0.95557 0.53726 1.01618 0.0
O631 O 0.96492 0.48972 1.03515 0.0
H632 H 0.07748 0.49178 0.11151 0.0
H633 H 0.12698 0.47892 0.13406 0.0
H634 H 0.09836 0.38354 0.09907 0.0
H635 H 0.04965 0.39718 0.0752 0.0
H636 H 0.92573 0.5885 1.01707 0.0
H637 H 0.87503 0.6074 1.00845 0.0
H638 H 0.9295 0.69645 0.97667 0.0
H639 H 0.9799 0.67744 0.98573 0.0
H640 H 0.23327 0.2592 0.41802 0.0
H641 H 0.28339 0.19165 0.36818 0.0
H642 H 0.24129 0.14976 0.38675 0.0
H643 H 0.18623 0.13254 0.40848 0.0
H644 H 0.13269 0.19973 0.45238 0.0
H645 H 0.17931 0.24147 0.44322 0.0
C646 C 0.23513 0.23538 0.41115 0.0
C647 C 0.26161 0.22914 0.39113 0.0
C648 C 0.2096 0.21119 0.41992 0.0
C649 C 0.26387 0.19774 0.38385 0.0
C650 C 0.23935 0.17351 0.39395 0.0
C651 C 0.18497 0.15624 0.41656 0.0
C652 C 0.15607 0.16317 0.43073 0.0
C653 C 0.21153 0.18008 0.41066 0.0
C654 C 0.1546 0.194 0.44084 0.0
C655 C 0.18128 0.21778 0.43582 0.0
H656 H 0.38228 0.95882 0.74061 0.0
H657 H 0.40395 0.86827 0.7628 0.0
H658 H 0.42513 0.88772 0.81802 0.0
H659 H 0.43182 0.92905 0.8621 0.0
H660 H 0.40883 1.01916 0.83983 0.0
H661 H 0.39394 1.00144 0.78227 0.0
C662 C 0.39207 0.94354 0.75744 0.0
C663 C 0.39134 0.91219 0.74811 0.0
C664 C 0.40362 0.95472 0.7891 0.0
C665 C 0.40442 0.89255 0.76964 0.0
C666 C 0.41624 0.90358 0.80122 0.0
C667 C 0.42376 0.94479 0.84447 0.0
C668 C 0.42104 0.97519 0.8551 0.0
C669 C 0.41504 0.93437 0.81158 0.0
C670 C 0.41115 0.99566 0.83205 0.0
C671 C 0.4025 0.98551 0.79926 0.0
H672 H 0.62798 0.45214 0.69257 0.0
H673 H 0.54894 0.4511 0.76465 0.0
H674 H 0.5194 0.47565 0.723 0.0
H675 H 0.51569 0.49796 0.66538 0.0
H676 H 0.59262 0.49412 0.5918 0.0
H677 H 0.62281 0.47126 0.63402 0.0
C678 C 0.60425 0.45721 0.69916 0.0
C679 C 0.59092 0.44973 0.7321 0.0
C680 C 0.58687 0.47074 0.67454 0.0
C681 C 0.5599 0.45631 0.73971 0.0
C682 C 0.54298 0.47057 0.71581 0.0
C683 C 0.53918 0.49237 0.65868 0.0
C684 C 0.5519 0.49835 0.62523 0.0
C685 C 0.55619 0.47807 0.68309 0.0
C686 C 0.58212 0.49007 0.61711 0.0
C687 C 0.59951 0.47692 0.64139 0.0
H688 H 0.93238 0.64988 0.19915 0.0
H689 H 0.90825 0.57306 0.26851 0.0
H690 H 0.92961 0.53871 0.22766 0.0
H691 H 0.9561 0.52999 0.17228 0.0
H692 H 0.97938 0.606 0.10212 0.0
H693 H 0.95777 0.64072 0.14281 0.0
C694 C 0.93185 0.62565 0.20545 0.0
C695 C 0.91842 0.61436 0.23727 0.0
C696 C 0.94417 0.60565 0.18147 0.0
C697 C 0.91784 0.58263 0.24436 0.0
C698 C 0.93031 0.56286 0.22095 0.0
C699 C 0.95639 0.55414 0.1658 0.0
C700 C 0.96948 0.56521 0.13389 0.0
C701 C 0.9436 0.57403 0.18942 0.0
C702 C 0.96944 0.59664 0.12619 0.0
C703 C 0.9571 0.6166 0.14963 0.0
H704 H 0.40177 0.18041 0.15526 0.0
H705 H 0.49387 0.21818 0.19831 0.0
H706 H 0.51778 0.1763 0.17127 0.0
H707 H 0.51213 0.12897 0.13602 0.0
H708 H 0.41968 0.09005 0.09415 0.0
H709 H 0.396 0.13217 0.12061 0.0
C710 C 0.42718 0.17963 0.15824 0.0
C711 C 0.44624 0.20243 0.17827 0.0
C712 C 0.44047 0.15513 0.14332 0.0
C713 C 0.47891 0.2009 0.18276 0.0
C714 C 0.49249 0.17695 0.16746 0.0
C715 C 0.48679 0.12954 0.13274 0.0
C716 C 0.46778 0.10637 0.11306 0.0
C717 C 0.47342 0.15385 0.14788 0.0
C718 C 0.43488 0.10749 0.10928 0.0
C719 C 0.42135 0.13168 0.12422 0.0
H720 H 0.17793 0.96993 0.60902 0.0
H721 H 0.1082 0.88494 0.60044 0.0
H722 H 0.06705 0.91486 0.58347 0.0
H723 H 0.05218 0.96492 0.56873 0.0
H724 H 0.12357 0.04929 0.57254 0.0
H725 H 0.1631 1.01994 0.59429 0.0
C726 C 0.15357 0.95812 0.60373 0.0
C727 C 0.1457 0.92553 0.60614 0.0
C728 C 0.13062 0.97532 0.59323 0.0
C729 C 0.11447 0.9101 0.59871 0.0
C730 C 0.0911 0.92717 0.58909 0.0
C731 C 0.07631 0.9769 0.57468 0.0
C732 C 0.08514 1.00914 0.56924 0.0
C733 C 0.09904 0.95974 0.58598 0.0
C734 C 0.11644 1.02444 0.57663 0.0
C735 C 0.13896 1.0077 0.58894 0.0
H736 H 0.82805 0.41099 0.96001 0.0
H737 H 0.79669 0.49595 0.93163 0.0
H738 H 0.84539 0.52661 0.9559 0.0
H739 H 0.89736 0.5297 0.98676 0.0
H740 H 0.92561 0.44363 1.01686 0.0
H741 H 0.87779 0.41382 0.99141 0.0
C742 C 0.83128 0.43621 0.95941 0.0
C743 C 0.80789 0.45067 0.94377 0.0
C744 C 0.85918 0.45392 0.97416 0.0
C745 C 0.81392 0.48363 0.94283 0.0
C746 C 0.84188 0.50138 0.95709 0.0
C747 C 0.89304 0.50444 0.98788 0.0
C748 C 0.91566 0.4893 1.00411 0.0
C749 C 0.86477 0.48685 0.97305 0.0
C750 C 0.90913 0.45639 1.00495 0.0
C751 C 0.88157 0.43907 0.99019 0.0
H752 H 0.67138 0.59524 0.41713 0.0
H753 H 0.72212 0.63515 0.50578 0.0
H754 H 0.67385 0.61869 0.54112 0.0
H755 H 0.6164 0.59391 0.54731 0.0
H756 H 0.56567 0.55319 0.45919 0.0
H757 H 0.61447 0.56842 0.42377 0.0
C758 C 0.67209 0.60008 0.44422 0.0
C759 C 0.70068 0.61692 0.45837 0.0
C760 C 0.64399 0.59032 0.46476 0.0
C761 C 0.70058 0.62298 0.49369 0.0
C762 C 0.6729 0.61333 0.51414 0.0
C763 C 0.61604 0.58825 0.52038 0.0
C764 C 0.58716 0.57253 0.50603 0.0
C765 C 0.64433 0.59723 0.49999 0.0
C766 C 0.58737 0.56534 0.47103 0.0
C767 C 0.61536 0.5741 0.45068 0.0
H768 H 0.24192 0.40754 0.19189 0.0
H769 H 0.24615 0.34594 0.10541 0.0
H770 H 0.19961 0.36343 0.08146 0.0
H771 H 0.15514 0.39302 0.08728 0.0
H772 H 0.14812 0.45056 0.17665 0.0
H773 H 0.19809 0.4375 0.19737 0.0
C774 C 0.23266 0.3978 0.16784 0.0
C775 C 0.24744 0.37517 0.15073 0.0
C776 C 0.20511 0.40697 0.15488 0.0
C777 C 0.23558 0.36359 0.11908 0.0
C778 C 0.20867 0.3733 0.10552 0.0
C779 C 0.16434 0.4025 0.11145 0.0
C780 C 0.14765 0.4226 0.13044 0.0
C781 C 0.19277 0.39438 0.12363 0.0
C782 C 0.16049 0.43527 0.1613 0.0
C783 C 0.18903 0.4277 0.17328 0.0
H784 H 0.61103 0.22572 0.97075 0.0
H785 H 0.54794 0.20975 0.88469 0.0
H786 H 0.5227 0.16015 0.90746 0.0
H787 H 0.5162 0.12065 0.95247 0.0
H788 H 0.58301 0.13149 1.03445 0.0
H789 H 0.60927 0.18246 1.01217 0.0
C790 C 0.59208 0.21153 0.95647 0.0
C791 C 0.58099 0.22343 0.92627 0.0
C792 C 0.57818 0.18134 0.96896 0.0
C793 C 0.5564 0.20334 0.90878 0.0
C794 C 0.54199 0.17416 0.92156 0.0
C795 C 0.53687 0.13392 0.9652 0.0
C796 C 0.54761 0.12195 0.99513 0.0
C797 C 0.55228 0.163 0.9518 0.0
C798 C 0.57442 0.13969 1.01118 0.0
C799 C 0.58929 0.1691 0.99851 0.0
H800 H 0.87733 0.85774 0.46326 0.0
H801 H 0.96508 0.83959 0.4134 0.0
H802 H 0.99337 0.89046 0.43253 0.0
H803 H 0.99437 0.93966 0.46618 0.0
H804 H 0.90816 0.9537 0.52158 0.0
H805 H 0.87879 0.90463 0.49854 0.0
C806 C 0.90282 0.86416 0.45695 0.0
C807 C 0.91865 0.84378 0.43682 0.0
C808 C 0.91955 0.89305 0.46939 0.0
C809 C 0.95157 0.85422 0.42826 0.0
C810 C 0.96807 0.88346 0.43958 0.0
C811 C 0.96909 0.93205 0.47304 0.0
C812 C 0.9535 0.95068 0.49551 0.0
C813 C 0.95243 0.90301 0.46046 0.0
C814 C 0.92086 0.94004 0.50444 0.0
C815 C 0.90399 0.9119 0.4912 0.0
H816 H 0.29581 0.72607 0.51551 0.0
H817 H 0.37429 0.78833 0.46704 0.0
H818 H 0.40747 0.74755 0.46629 0.0
H819 H 0.41828 0.70011 0.49344 0.0
H820 H 0.34106 0.64045 0.54733 0.0
H821 H 0.30314 0.67381 0.53165 0.0
C822 C 0.31954 0.73007 0.50314 0.0
C823 C 0.33286 0.76006 0.49169 0.0
C824 C 0.3391 0.70727 0.50497 0.0
C825 C 0.36369 0.76527 0.47597 0.0
C826 C 0.38282 0.74216 0.47614 0.0
C827 C 0.39299 0.69416 0.50112 0.0
C828 C 0.38261 0.66842 0.52223 0.0
C829 C 0.37155 0.714 0.49291 0.0
C830 C 0.34967 0.66033 0.53129 0.0
C831 C 0.328 0.67949 0.52247 0.0
H832 H 0.7355 0.88653 0.71463 0.0
H833 H 0.76037 0.80192 0.67134 0.0
H834 H 0.80901 0.83209 0.64479 0.0
H835 H 0.84734 0.88195 0.63928 0.0
H836 H 0.82133 0.96602 0.68241 0.0
H837 H 0.7698 0.93659 0.7031 0.0
C838 C 0.75083 0.87464 0.69844 0.0
C839 C 0.74435 0.8419 0.69532 0.0
C840 C 0.77881 0.89203 0.68359 0.0
C841 C 0.76501 0.82704 0.67465 0.0
C842 C 0.79287 0.84427 0.6595 0.0
C843 C 0.83018 0.89374 0.65297 0.0
C844 C 0.83812 0.92597 0.65965 0.0
C845 C 0.80057 0.87665 0.66482 0.0
C846 C 0.81564 0.94121 0.67694 0.0
C847 C 0.78625 0.9244 0.68886 0.0
H848 H 0.63961 0.20452 0.33476 0.0
H849 H 0.64551 0.11538 0.37752 0.0
H850 H 0.62562 0.0889 0.32483 0.0
H851 H 0.61212 0.09188 0.2651 0.0
H852 H 0.61073 0.1815 0.22053 0.0
H853 H 0.62259 0.20714 0.27558 0.0
C854 C 0.63571 0.17926 0.33259 0.0
C855 C 0.64357 0.16167 0.35961 0.0
C856 C 0.62544 0.16445 0.3019 0.0
C857 C 0.63921 0.12908 0.35682 0.0
C858 C 0.62809 0.11407 0.32675 0.0
C859 C 0.61443 0.11703 0.26744 0.0
C860 C 0.61104 0.13481 0.23873 0.0
C861 C 0.6221 0.13162 0.29883 0.0
C862 C 0.61319 0.16728 0.24229 0.0
C863 C 0.62016 0.18197 0.27369 0.0
H864 H 0.40403 0.58942 0.34462 0.0
H865 H 0.41275 0.67915 0.39474 0.0
H866 H 0.43515 0.65833 0.4445 0.0
H867 H 0.45305 0.61432 0.47435 0.0
H868 H 0.4471 0.52563 0.42225 0.0
H869 H 0.42308 0.54612 0.37361 0.0
C870 C 0.41077 0.6045 0.3664 0.0
C871 C 0.40649 0.63606 0.36544 0.0
C872 C 0.42432 0.59241 0.395 0.0
C873 C 0.41588 0.65499 0.39416 0.0
C874 C 0.42864 0.64297 0.42288 0.0
C875 C 0.44642 0.59938 0.45243 0.0
C876 C 0.45202 0.56815 0.4525 0.0
C877 C 0.43309 0.61167 0.42371 0.0
C878 C 0.44333 0.5496 0.42338 0.0
C879 C 0.42949 0.56138 0.39532 0.0
H880 H 0.11375 0.48476 0.86077 0.0
H881 H 0.06334 0.39554 0.89661 0.0
H882 H 0.04006 0.42124 0.94392 0.0
H883 H 0.03285 0.46952 0.97586 0.0
H884 H 0.08718 0.5578 0.94253 0.0
H885 H 0.11006 0.53203 0.8948 0.0
C886 C 0.09809 0.47063 0.87901 0.0
C887 C 0.09019 0.43789 0.87387 0.0
C888 C 0.08521 0.48555 0.90724 0.0
C889 C 0.06941 0.4207 0.89841 0.0
C890 C 0.05615 0.43543 0.92606 0.0
C891 C 0.04986 0.48309 0.95831 0.0
C892 C 0.05797 0.51579 0.96308 0.0
C893 C 0.06361 0.46792 0.93073 0.0
C894 C 0.08024 0.53273 0.93983 0.0
C895 C 0.09342 0.51795 0.91228 0.0
H896 H 0.6328 0.90497 0.95876 0.0
H897 H 0.54281 0.86469 0.91308 0.0
H898 H 0.51802 0.90831 0.93476 0.0
H899 H 0.52202 0.95744 0.96766 0.0
H900 H 0.61325 0.99854 1.0111 0.0
H901 H 0.63764 0.95542 0.98883 0.0
C902 C 0.6077 0.90575 0.95387 0.0
C903 C 0.58936 0.88162 0.93501 0.0
C904 C 0.594 0.93119 0.96564 0.0
C905 C 0.55712 0.883 0.92795 0.0
C906 C 0.54307 0.90793 0.9402 0.0
C907 C 0.54732 0.95715 0.97196 0.0
C908 C 0.56568 0.98119 0.99118 0.0
C909 C 0.56129 0.93217 0.95911 0.0
C910 C 0.59848 0.98042 0.9964 0.0
C911 C 0.61247 0.95565 0.98385 0.0
H912 H 0.87839 0.14461 0.45783 0.0
H913 H 0.91989 0.21768 0.52758 0.0
H914 H 0.95269 0.18278 0.55134 0.0
H915 H 0.965 0.12983 0.55618 0.0
H916 H 0.92628 0.05845 0.4838 0.0
H917 H 0.89743 0.09503 0.45628 0.0
C918 C 0.89536 0.15358 0.47736 0.0
C919 C 0.89606 0.18374 0.49123 0.0
C920 C 0.91437 0.13358 0.49062 0.0
C921 C 0.91805 0.19435 0.51699 0.0
C922 C 0.93694 0.17444 0.53054 0.0
C923 C 0.95041 0.12248 0.53418 0.0
C924 C 0.94694 0.09153 0.52232 0.0
C925 C 0.93439 0.1437 0.51833 0.0
C926 C 0.92885 0.08221 0.49339 0.0
C927 C 0.9124 0.10305 0.47777 0.0
H928 H 0.20762 0.6059 0.14382 0.0
H929 H 0.18218 0.69752 0.14234 0.0
H930 H 0.13115 0.67614 0.11588 0.0
H931 H 0.09312 0.63139 0.09182 0.0
H932 H 0.11822 0.53962 0.09399 0.0
H933 H 0.16888 0.56087 0.12112 0.0
C934 C 0.19082 0.62118 0.13807 0.0
C935 C 0.19946 0.65356 0.14498 0.0
C936 C 0.16101 0.60864 0.12256 0.0
C937 C 0.17696 0.6727 0.13693 0.0
C938 C 0.14747 0.66043 0.12179 0.0
C939 C 0.10965 0.616 0.09809 0.0
C940 C 0.10129 0.58373 0.09054 0.0
C941 C 0.13922 0.62845 0.11409 0.0
C942 C 0.1234 0.56444 0.09935 0.0
C943 C 0.15268 0.57663 0.11499 0.0
H944 H 0.32167 0.41676 0.62841 0.0
H945 H 0.31076 0.50676 0.67051 0.0
H946 H 0.35972 0.53097 0.64043 0.0
H947 H 0.40596 0.52748 0.60056 0.0
H948 H 0.41259 0.43878 0.55342 0.0
H949 H 0.36507 0.41378 0.5862 0.0
C950 C 0.32936 0.44175 0.63085 0.0
C951 C 0.31189 0.45936 0.65265 0.0
C952 C 0.35719 0.4561 0.6122 0.0
C953 C 0.32354 0.49184 0.65518 0.0
C954 C 0.35165 0.50603 0.6375 0.0
C955 C 0.39699 0.50267 0.59761 0.0
C956 C 0.41303 0.48501 0.57467 0.0
C957 C 0.36879 0.48846 0.61591 0.0
C958 C 0.40077 0.45296 0.57082 0.0
C959 C 0.37354 0.4386 0.58964 0.0
H960 H 0.7868 0.72577 0.95512 0.0
H961 H 0.75032 0.63736 0.90698 0.0
H962 H 0.79355 0.61458 0.93138 0.0
H963 H 0.8453 0.62174 0.96041 0.0
H964 H 0.88275 0.71064 1.00726 0.0
H965 H 0.83563 0.73131 0.98935 0.0
C966 C 0.78784 0.7013 0.95079 0.0
C967 C 0.76554 0.68327 0.92924 0.0
C968 C 0.81328 0.68863 0.96413 0.0
C969 C 0.76739 0.6517 0.92337 0.0
C970 C 0.79215 0.63873 0.93719 0.0
C971 C 0.84282 0.64542 0.96737 0.0
C972 C 0.86771 0.66471 0.98482 0.0
C973 C 0.81582 0.65726 0.9567 0.0
C974 C 0.86424 0.69547 0.99329 0.0
C975 C 0.83723 0.70728 0.98319 0.0
H976 H 0.40125 0.88228 0.15683 0.0
H977 H 0.48872 0.84443 0.16561 0.0
H978 H 0.51979 0.89048 0.13854 0.0
H979 H 0.52316 0.94203 0.11264 0.0
H980 H 0.43698 0.98173 0.10421 0.0
H981 H 0.40483 0.93496 0.1304 0.0
C982 C 0.42708 0.88402 0.15269 0.0
C983 C 0.44239 0.85952 0.16383 0.0
C984 C 0.44527 0.91118 0.13706 0.0
C985 C 0.47605 0.86272 0.15811 0.0
C986 C 0.49398 0.88916 0.14236 0.0
C987 C 0.49731 0.94058 0.11647 0.0
C988 C 0.4827 0.96572 0.10632 0.0
C989 C 0.479 0.91365 0.13187 0.0
C990 C 0.44908 0.96302 0.1117 0.0
C991 C 0.43063 0.93613 0.12672 0.0
H992 H 0.10582 0.23497 0.60325 0.0
H993 H 0.08321 0.20748 0.70712 0.0
H994 H 0.05838 0.15517 0.68764 0.0
H995 H 0.04366 0.11628 0.64054 0.0
H996 H 0.06731 0.14537 0.53717 0.0
H997 H 0.09145 0.19712 0.5571 0.0
C998 C 0.09578 0.21758 0.62184 0.0
C999 C 0.0968 0.22558 0.65681 0.0
C1000 C 0.08173 0.18735 0.61046 0.0
C1001 C 0.08272 0.20249 0.68008 0.0
C1002 C 0.06866 0.17232 0.66892 0.0
C1003 C 0.05425 0.13388 0.6224 0.0
C1004 C 0.05351 0.12646 0.58722 0.0
C1005 C 0.06814 0.16431 0.6341 0.0
C1006 C 0.06723 0.14997 0.5643 0.0
C1007 C 0.08115 0.17982 0.57569 0.0
H1008 H 0.72566 0.36789 0.56734 0.0
H1009 H 0.65493 0.30867 0.6293 0.0
H1010 H 0.61721 0.34496 0.62396 0.0
H1011 H 0.60021 0.38553 0.58959 0.0
H1012 H 0.66942 0.44094 0.5223 0.0
H1013 H 0.71198 0.41459 0.54191 0.0
C1014 C 0.70264 0.36387 0.58115 0.0
C1015 C 0.69284 0.33571 0.59847 0.0
C1016 C 0.68038 0.38362 0.57584 0.0
C1017 C 0.66287 0.33036 0.61596 0.0
C1018 C 0.64113 0.3508 0.61232 0.0
C1019 C 0.62476 0.39212 0.57968 0.0
C1020 C 0.63155 0.41447 0.5539 0.0
C1021 C 0.64885 0.37619 0.59029 0.0
C1022 C 0.66356 0.42357 0.54193 0.0
C1023 C 0.68788 0.40842 0.55305 0.0
loop_
_geom_bond_atom_site_label_1
_geom_bond_atom_site_label_2
_geom_bond_distance
_geom_bond_site_symmetry_2
_ccdc_geom_bond_type
C0 C1 1.391 . S
C0 C4 1.391 . S
C0 H42 0.948 . S
C1 C0 1.391 . S
C1 C2 1.391 . S
C2 C1 1.391 . S
C2 H58 0.947 . S
C2 C59 1.392 . S
C3 C4 1.391 . S
C3 C7 1.397 . S
C3 C59 1.419 . S
C4 C0 1.391 . S
C4 C3 1.391 . S
C4 C5 1.399 . S
C5 C4 1.399 . S
C5 C8 1.396 . S
C5 C17 1.453 . S
C5 C18 1.684 . S
H6 C30 0.948 . S
C7 C3 1.397 . S
C7 C8 1.394 . S
C7 C26 1.723 . S
C8 C5 1.396 . S
C8 C7 1.394 . S
C8 C38 1.723 . S
H9 C32 0.947 . S
H10 C33 0.948 . S
H11 C39 0.982 . S
H12 C40 0.979 . S
H13 C40 0.980 . S
H14 C40 0.983 . S
H15 C39 0.979 . S
H16 C39 0.977 . S
C17 C5 1.453 . S
C17 H46 0.982 . S
C17 H47 0.979 . S
C17 H48 0.977 . S
C18 C5 1.684 . S
C18 H43 0.979 . S
C18 H44 0.980 . S
C18 H45 0.983 . S
C19 C20 1.391 . S
C19 C24 1.391 . S
C19 H49 0.948 . S
C20 C19 1.391 . S
C20 C21 1.391 . S
C21 C20 1.391 . S
C21 C22 1.392 . S
C21 H50 0.947 . S
C22 C21 1.392 . S
C22 C23 1.419 . S
C22 H51 0.948 . S
C23 C22 1.419 . S
C23 C24 1.391 . S
C23 C27 1.397 . S
C24 C19 1.391 . S
C24 C23 1.391 . S
C24 C25 1.399 . S
C25 C24 1.399 . S
C25 C26 1.396 . S
C25 C28 1.453 . S
C25 C29 1.684 . S
C26 C7 1.723 . S
C26 C25 1.396 . S
C26 C27 1.394 . S
C27 C23 1.397 . S
C27 C26 1.394 . S
C27 C37 1.723 . S
C28 C25 1.453 . S
C28 H52 0.982 . S
C28 H53 0.979 . S
C28 H54 0.977 . S
C29 C25 1.684 . S
C29 H55 0.979 . S
C29 H56 0.980 . S
C29 H57 0.983 . S
C30 H6 0.948 . S
C30 C31 1.391 . S
C30 C35 1.391 . S
C31 C30 1.391 . S
C31 C32 1.391 . S
C32 H9 0.947 . S
C32 C31 1.391 . S
C32 C33 1.392 . S
C33 H10 0.948 . S
C33 C32 1.392 . S
C33 C34 1.419 . S
C34 C33 1.419 . S
C34 C35 1.391 . S
C34 C38 1.397 . S
C35 C30 1.391 . S
C35 C34 1.391 . S
C35 C36 1.399 . S
C36 C35 1.399 . S
C36 C37 1.396 . S
C36 C39 1.453 . S
C36 C40 1.684 . S
C37 C27 1.723 . S
C37 C36 1.396 . S
C37 C38 1.394 . S
C38 C8 1.723 . S
C38 C34 1.397 . S
C38 C37 1.394 . S
C39 H11 0.982 . S
C39 H15 0.979 . S
C39 H16 0.977 . S
C39 C36 1.453 . S
C40 H12 0.979 . S
C40 H13 0.980 . S
C40 H14 0.983 . S
C40 C36 1.684 . S
H41 C59 0.948 . S
H42 C0 0.948 . S
H43 C18 0.979 . S
H44 C18 0.980 . S
H45 C18 0.983 . S
H46 C17 0.982 . S
H47 C17 0.979 . S
H48 C17 0.977 . S
H49 C19 0.948 . S
H50 C21 0.947 . S
H51 C22 0.948 . S
H52 C28 0.982 . S
H53 C28 0.979 . S
H54 C28 0.977 . S
H55 C29 0.979 . S
H56 C29 0.980 . S
H57 C29 0.983 . S
H58 C2 0.947 . S
C59 C2 1.392 . S
C59 C3 1.419 . S
C59 H41 0.948 . S
C60 C61 1.391 . S
C60 C64 1.391 . S
C60 H102 0.948 . S
C61 C60 1.391 . S
C61 C62 1.391 . S
C62 C61 1.391 . S
C62 H118 0.947 . S
C62 C119 1.392 . S
C63 C64 1.391 . S
C63 C67 1.397 . S
C63 C119 1.419 . S
C64 C60 1.391 . S
C64 C63 1.391 . S
C64 C65 1.399 . S
C65 C64 1.399 . S
C65 C68 1.396 . S
C65 C77 1.453 . S
C65 C78 1.684 . S
H66 C90 0.948 . S
C67 C63 1.397 . S
C67 C68 1.394 . S
C67 C86 1.723 . S
C68 C65 1.396 . S
C68 C67 1.394 . S
C68 C98 1.723 . S
H69 C92 0.947 . S
H70 C93 0.948 . S
H71 C99 0.982 . S
H72 C100 0.979 . S
H73 C100 0.980 . S
H74 C100 0.983 . S
H75 C99 0.979 . S
H76 C99 0.977 . S
C77 C65 1.453 . S
C77 H106 0.982 . S
C77 H107 0.979 . S
C77 H108 0.977 . S
C78 C65 1.684 . S
C78 H103 0.979 . S
C78 H104 0.980 . S
C78 H105 0.983 . S
C79 C80 1.391 . S
C79 C84 1.391 . S
C79 H109 0.948 . S
C80 C79 1.391 . S
C80 C81 1.391 . S
C81 C80 1.391 . S
C81 C82 1.392 . S
C81 H110 0.947 . S
C82 C81 1.392 . S
C82 C83 1.419 . S
C82 H111 0.948 . S
C83 C82 1.419 . S
C83 C84 1.391 . S
C83 C87 1.397 . S
C84 C79 1.391 . S
C84 C83 1.391 . S
C84 C85 1.399 . S
C85 C84 1.399 . S
C85 C86 1.396 . S
C85 C88 1.453 . S
C85 C89 1.684 . S
C86 C67 1.723 . S
C86 C85 1.396 . S
C86 C87 1.394 . S
C87 C83 1.397 . S
C87 C86 1.394 . S
C87 C97 1.723 . S
C88 C85 1.453 . S
C88 H112 0.982 . S
C88 H113 0.979 . S
C88 H114 0.977 . S
C89 C85 1.684 . S
C89 H115 0.979 . S
C89 H116 0.980 . S
C89 H117 0.983 . S
C90 H66 0.948 . S
C90 C91 1.391 . S
C90 C95 1.391 . S
C91 C90 1.391 . S
C91 C92 1.391 . S
C92 H69 0.947 . S
C92 C91 1.391 . S
C92 C93 1.392 . S
C93 H70 0.948 . S
C93 C92 1.392 . S
C93 C94 1.419 . S
C94 C93 1.419 . S
C94 C95 1.391 . S
C94 C98 1.397 . S
C95 C90 1.391 . S
C95 C94 1.391 . S
C95 C96 1.399 . S
C96 C95 1.399 . S
C96 C97 1.396 . S
C96 C99 1.453 . S
C96 C100 1.684 . S
C97 C87 1.723 . S
C97 C96 1.396 . S
C97 C98 1.394 . S
C98 C68 1.723 . S
C98 C94 1.397 . S
C98 C97 1.394 . S
C99 H71 0.982 . S
C99 H75 0.979 . S
C99 H76 0.977 . S
C99 C96 1.453 . S
C100 H72 0.979 . S
C100 H73 0.980 . S
C100 H74 0.983 . S
C100 C96 1.684 . S
H101 C119 0.948 . S
H102 C60 0.948 . S
H103 C78 0.979 . S
H104 C78 0.980 . S
H105 C78 0.983 . S
H106 C77 0.982 . S
H107 C77 0.979 . S
H108 C77 0.977 . S
H109 C79 0.948 . S
H110 C81 0.947 . S
H111 C82 0.948 . S
H112 C88 0.982 . S
H113 C88 0.979 . S
H114 C88 0.977 . S
H115 C89 0.979 . S
H116 C89 0.980 . S
H117 C89 0.983 . S
H118 C62 0.947 . S
C119 C62 1.392 . S
C119 C63 1.419 . S
C119 H101 0.948 . S
C120 C121 1.391 . S
C120 C124 1.391 . S
C120 H162 0.948 . S
C121 C120 1.391 . S
C121 C122 1.391 . S
C122 C121 1.391 . S
C122 H178 0.947 . S
C122 C179 1.392 . S
C123 C124 1.391 . S
C123 C127 1.397 . S
C123 C179 1.419 . S
C124 C120 1.391 . S
C124 C123 1.391 . S
C124 C125 1.399 . S
C125 C124 1.399 . S
C125 C128 1.396 . S
C125 C137 1.453 . S
C125 C138 1.684 . S
H126 C150 0.948 . S
C127 C123 1.397 . S
C127 C128 1.394 . S
C127 C146 1.723 . S
C128 C125 1.396 . S
C128 C127 1.394 . S
C128 C158 1.723 . S
H129 C152 0.947 . S
H130 C153 0.948 . S
H131 C159 0.982 . S
H132 C160 0.979 . S
H133 C160 0.980 . S
H134 C160 0.983 . S
H135 C159 0.979 . S
H136 C159 0.977 . S
C137 C125 1.453 . S
C137 H166 0.982 . S
C137 H167 0.979 . S
C137 H168 0.977 . S
C138 C125 1.684 . S
C138 H163 0.979 . S
C138 H164 0.980 . S
C138 H165 0.983 . S
C139 C140 1.391 . S
C139 C144 1.391 . S
C139 H169 0.948 . S
C140 C139 1.391 . S
C140 C141 1.391 . S
C141 C140 1.391 . S
C141 C142 1.392 . S
C141 H170 0.947 . S
C142 C141 1.392 . S
C142 C143 1.419 . S
C142 H171 0.948 . S
C143 C142 1.419 . S
C143 C144 1.391 . S
C143 C147 1.397 . S
C144 C139 1.391 . S
C144 C143 1.391 . S
C144 C145 1.399 . S
C145 C144 1.399 . S
C145 C146 1.396 . S
C145 C148 1.453 . S
C145 C149 1.684 . S
C146 C127 1.723 . S
C146 C145 1.396 . S
C146 C147 1.394 . S
C147 C143 1.397 . S
C147 C146 1.394 . S
C147 C157 1.723 . S
C148 C145 1.453 . S
C148 H172 0.982 . S
C148 H173 0.979 . S
C148 H174 0.977 . S
C149 C145 1.684 . S
C149 H175 0.979 . S
C149 H176 0.980 . S
C149 H177 0.983 . S
C150 H126 0.948 . S
C150 C151 1.391 . S
C150 C155 1.391 . S
C151 C150 1.391 . S
C151 C152 1.391 . S
C152 H129 0.947 . S
C152 C151 1.391 . S
C152 C153 1.392 . S
C153 H130 0.948 . S
C153 C152 1.392 . S
C153 C154 1.419 . S
C154 C153 1.419 . S
C154 C155 1.391 . S
C154 C158 1.397 . S
C155 C150 1.391 . S
C155 C154 1.391 . S
C155 C156 1.399 . S
C156 C155 1.399 . S
C156 C157 1.396 . S
C156 C159 1.453 . S
C156 C160 1.684 . S
C157 C147 1.723 . S
C157 C156 1.396 . S
C157 C158 1.394 . S
C158 C128 1.723 . S
C158 C154 1.397 . S
C158 C157 1.394 . S
C159 H131 0.982 . S
C159 H135 0.979 . S
C159 H136 0.977 . S
C159 C156 1.453 . S
C160 H132 0.979 . S
C160 H133 0.980 . S
C160 H134 0.983 . S
C160 C156 1.684 . S
H161 C179 0.948 . S
H162 C120 0.948 . S
H163 C138 0.979 . S
H164 C138 0.980 . S
H165 C138 0.983 . S
H166 C137 0.982 . S
H167 C137 0.979 . S
H168 C137 0.977 . S
H169 C139 0.948 . S
H170 C141 0.947 . S
H171 C142 0.948 . S
H172 C148 0.982 . S
H173 C148 0.979 . S
H174 C148 0.977 . S
H175 C149 0.979 . S
H176 C149 0.980 . S
H177 C149 0.983 . S
H178 C122 0.947 . S
C179 C122 1.392 . S
C179 C123 1.419 . S
C179 H161 0.948 . S
C180 C181 1.391 . S
C180 C184 1.391 . S
C180 H222 0.948 . S
C181 C180 1.391 . S
C181 C182 1.391 . S
C182 C181 1.391 . S
C182 H238 0.947 . S
C182 C239 1.392 . S
C183 C184 1.391 . S
C183 C187 1.397 . S
C183 C239 1.419 . S
C184 C180 1.391 . S
C184 C183 1.391 . S
C184 C185 1.399 . S
C185 C184 1.399 . S
C185 C188 1.396 . S
C185 C197 1.453 . S
C185 C198 1.684 . S
H186 C210 0.948 . S
C187 C183 1.397 . S
C187 C188 1.394 . S
C187 C206 1.723 . S
C188 C185 1.396 . S
C188 C187 1.394 . S
C188 C218 1.723 . S
H189 C212 0.947 . S
H190 C213 0.948 . S
H191 C219 0.982 . S
H192 C220 0.979 . S
H193 C220 0.980 . S
H194 C220 0.983 . S
H195 C219 0.979 . S
H196 C219 0.977 . S
C197 C185 1.453 . S
C197 H226 0.982 . S
C197 H227 0.979 . S
C197 H228 0.977 . S
C198 C185 1.684 . S
C198 H223 0.979 . S
C198 H224 0.980 . S
C198 H225 0.983 . S
C199 C200 1.391 . S
C199 C204 1.391 . S
C199 H229 0.948 . S
C200 C199 1.391 . S
C200 C201 1.391 . S
C201 C200 1.391 . S
C201 C202 1.392 . S
C201 H230 0.947 . S
C202 C201 1.392 . S
C202 C203 1.419 . S
C202 H231 0.948 . S
C203 C202 1.419 . S
C203 C204 1.391 . S
C203 C207 1.397 . S
C204 C199 1.391 . S
C204 C203 1.391 . S
C204 C205 1.399 . S
C205 C204 1.399 . S
C205 C206 1.396 . S
C205 C208 1.453 . S
C205 C209 1.684 . S
C206 C187 1.723 . S
C206 C205 1.396 . S
C206 C207 1.394 . S
C207 C203 1.397 . S
C207 C206 1.394 . S
C207 C217 1.723 . S
C208 C205 1.453 . S
C208 H232 0.982 . S
C208 H233 0.979 . S
C208 H234 0.977 . S
C209 C205 1.684 . S
C209 H235 0.979 . S
C209 H236 0.980 . S
C209 H237 0.983 . S
C210 H186 0.948 . S
C210 C211 1.391 . S
C210 C215 1.391 . S
C211 C210 1.391 . S
C211 C212 1.391 . S
C212 H189 0.947 . S
C212 C211 1.391 . S
C212 C213 1.392 . S
C213 H190 0.948 . S
C213 C212 1.392 . S
C213 C214 1.419 . S
C214 C213 1.419 . S
C214 C215 1.391 . S
C214 C218 1.397 . S
C215 C210 1.391 . S
C215 C214 1.391 . S
C215 C216 1.399 . S
C216 C215 1.399 . S
C216 C217 1.396 . S
C216 C219 1.453 . S
C216 C220 1.684 . S
C217 C207 1.723 . S
C217 C216 1.396 . S
C217 C218 1.394 . S
C218 C188 1.723 . S
C218 C214 1.397 . S
C218 C217 1.394 . S
C219 H191 0.982 . S
C219 H195 0.979 . S
C219 H196 0.977 . S
C219 C216 1.453 . S
C220 H192 0.979 . S
C220 H193 0.980 . S
C220 H194 0.983 . S
C220 C216 1.684 . S
H221 C239 0.948 . S
H222 C180 0.948 . S
H223 C198 0.979 . S
H224 C198 0.980 . S
H225 C198 0.983 . S
H226 C197 0.982 . S
H227 C197 0.979 . S
H228 C197 0.977 . S
H229 C199 0.948 . S
H230 C201 0.947 . S
H231 C202 0.948 . S
H232 C208 0.982 . S
H233 C208 0.979 . S
H234 C208 0.977 . S
H235 C209 0.979 . S
H236 C209 0.980 . S
H237 C209 0.983 . S
H238 C182 0.947 . S
C239 C182 1.392 . S
C239 C183 1.419 . S
C239 H221 0.948 . S
C240 C241 1.391 . S
C240 C244 1.391 . S
C240 H282 0.948 . S
C241 C240 1.391 . S
C241 C242 1.391 . S
C242 C241 1.391 . S
C242 H298 0.947 . S
C242 C299 1.392 . S
C243 C244 1.391 . S
C243 C247 1.397 . S
C243 C299 1.419 . S
C244 C240 1.391 . S
C244 C243 1.391 . S
C244 C245 1.399 . S
C245 C244 1.399 . S
C245 C248 1.396 . S
C245 C257 1.453 . S
C245 C258 1.684 . S
H246 C270 0.948 . S
C247 C243 1.397 . S
C247 C248 1.394 . S
C247 C266 1.723 . S
C248 C245 1.396 . S
C248 C247 1.394 . S
C248 C278 1.723 . S
H249 C272 0.947 . S
H250 C273 0.948 . S
H251 C279 0.982 . S
H252 C280 0.979 . S
H253 C280 0.980 . S
H254 C280 0.983 . S
H255 C279 0.979 . S
H256 C279 0.977 . S
C257 C245 1.453 . S
C257 H286 0.982 . S
C257 H287 0.979 . S
C257 H288 0.977 . S
C258 C245 1.684 . S
C258 H283 0.979 . S
C258 H284 0.980 . S
C258 H285 0.983 . S
C259 C260 1.391 . S
C259 C264 1.391 . S
C259 H289 0.948 . S
C260 C259 1.391 . S
C260 C261 1.391 . S
C261 C260 1.391 . S
C261 C262 1.392 . S
C261 H290 0.947 . S
C262 C261 1.392 . S
C262 C263 1.419 . S
C262 H291 0.948 . S
C263 C262 1.419 . S
C263 C264 1.391 . S
C263 C267 1.397 . S
C264 C259 1.391 . S
C264 C263 1.391 . S
C264 C265 1.399 . S
C265 C264 1.399 . S
C265 C266 1.396 . S
C265 C268 1.453 . S
C265 C269 1.684 . S
C266 C247 1.723 . S
C266 C265 1.396 . S
C266 C267 1.394 . S
C267 C263 1.397 . S
C267 C266 1.394 . S
C267 C277 1.723 . S
C268 C265 1.453 . S
C268 H292 0.982 . S
C268 H293 0.979 . S
C268 H294 0.977 . S
C269 C265 1.684 . S
C269 H295 0.979 . S
C269 H296 0.980 . S
C269 H297 0.983 . S
C270 H246 0.948 . S
C270 C271 1.391 . S
C270 C275 1.391 . S
C271 C270 1.391 . S
C271 C272 1.391 . S
C272 H249 0.947 . S
C272 C271 1.391 . S
C272 C273 1.392 . S
C273 H250 0.948 . S
C273 C272 1.392 . S
C273 C274 1.419 . S
C274 C273 1.419 . S
C274 C275 1.391 . S
C274 C278 1.397 . S
C275 C270 1.391 . S
C275 C274 1.391 . S
C275 C276 1.399 . S
C276 C275 1.399 . S
C276 C277 1.396 . S
C276 C279 1.453 . S
C276 C280 1.684 . S
C277 C267 1.723 . S
C277 C276 1.396 . S
C277 C278 1.394 . S
C278 C248 1.723 . S
C278 C274 1.397 . S
C278 C277 1.394 . S
C279 H251 0.982 . S
C279 H255 0.979 . S
C279 H256 0.977 . S
C279 C276 1.453 . S
C280 H252 0.979 . S
C280 H253 0.980 . S
C280 H254 0.983 . S
C280 C276 1.684 . S
H281 C299 0.948 . S
H282 C240 0.948 . S
H283 C258 0.979 . S
H284 C258 0.980 . S
H285 C258 0.983 . S
H286 C257 0.982 . S
H287 C257 0.979 . S
H288 C257 0.977 . S
H289 C259 0.948 . S
H290 C261 0.947 . S
H291 C262 0.948 . S
H292 C268 0.982 . S
H293 C268 0.979 . S
H294 C268 0.977 . S
H295 C269 0.979 . S
H296 C269 0.980 . S
H297 C269 0.983 . S
H298 C242 0.947 . S
C299 C242 1.392 . S
C299 C243 1.419 . S
C299 H281 0.948 . S
C300 C301 1.391 . S
C300 C304 1.391 . S
C300 H342 0.948 . S
C301 C300 1.391 . S
C301 C302 1.391 . S
C302 C301 1.391 . S
C302 H358 0.947 . S
C302 C359 1.392 . S
C303 C304 1.391 . S
C303 C307 1.397 . S
C303 C359 1.419 . S
C304 C300 1.391 . S
C304 C303 1.391 . S
C304 C305 1.399 . S
C305 C304 1.399 . S
C305 C308 1.396 . S
C305 C317 1.453 . S
C305 C318 1.684 . S
H306 C330 0.948 . S
C307 C303 1.397 . S
C307 C308 1.394 . S
C307 C326 1.723 . S
C308 C305 1.396 . S
C308 C307 1.394 . S
C308 C338 1.723 . S
H309 C332 0.947 . S
H310 C333 0.948 . S
H311 C339 0.982 . S
H312 C340 0.979 . S
H313 C340 0.980 . S
H314 C340 0.983 . S
H315 C339 0.979 . S
H316 C339 0.977 . S
C317 C305 1.453 . S
C317 H346 0.982 . S
C317 H347 0.979 . S
C317 H348 0.977 . S
C318 C305 1.684 . S
C318 H343 0.979 . S
C318 H344 0.980 . S
C318 H345 0.983 . S
C319 C320 1.391 . S
C319 C324 1.391 . S
C319 H349 0.948 . S
C320 C319 1.391 . S
C320 C321 1.391 . S
C321 C320 1.391 . S
C321 C322 1.392 . S
C321 H350 0.947 . S
C322 C321 1.392 . S
C322 C323 1.419 . S
C322 H351 0.948 . S
C323 C322 1.419 . S
C323 C324 1.391 . S
C323 C327 1.397 . S
C324 C319 1.391 . S
C324 C323 1.391 . S
C324 C325 1.399 . S
C325 C324 1.399 . S
C325 C326 1.396 . S
C325 C328 1.453 . S
C325 C329 1.684 . S
C326 C307 1.723 . S
C326 C325 1.396 . S
C326 C327 1.394 . S
C327 C323 1.397 . S
C327 C326 1.394 . S
C327 C337 1.723 . S
C328 C325 1.453 . S
C328 H352 0.982 . S
C328 H353 0.979 . S
C328 H354 0.977 . S
C329 C325 1.684 . S
C329 H355 0.979 . S
C329 H356 0.980 . S
C329 H357 0.983 . S
C330 H306 0.948 . S
C330 C331 1.391 . S
C330 C335 1.391 . S
C331 C330 1.391 . S
C331 C332 1.391 . S
C332 H309 0.947 . S
C332 C331 1.391 . S
C332 C333 1.392 . S
C333 H310 0.948 . S
C333 C332 1.392 . S
C333 C334 1.419 . S
C334 C333 1.419 . S
C334 C335 1.391 . S
C334 C338 1.397 . S
C335 C330 1.391 . S
C335 C334 1.391 . S
C335 C336 1.399 . S
C336 C335 1.399 . S
C336 C337 1.396 . S
C336 C339 1.453 . S
C336 C340 1.684 . S
C337 C327 1.723 . S
C337 C336 1.396 . S
C337 C338 1.394 . S
C338 C308 1.723 . S
C338 C334 1.397 . S
C338 C337 1.394 . S
C339 H311 0.982 . S
C339 H315 0.979 . S
C339 H316 0.977 . S
C339 C336 1.453 . S
C340 H312 0.979 . S
C340 H313 0.980 . S
C340 H314 0.983 . S
C340 C336 1.684 . S
H341 C359 0.948 . S
H342 C300 0.948 . S
H343 C318 0.979 . S
H344 C318 0.980 . S
H345 C318 0.983 . S
H346 C317 0.982 . S
H347 C317 0.979 . S
H348 C317 0.977 . S
H349 C319 0.948 . S
H350 C321 0.947 . S
H351 C322 0.948 . S
H352 C328 0.982 . S
H353 C328 0.979 . S
H354 C328 0.977 . S
H355 C329 0.979 . S
H356 C329 0.980 . S
H357 C329 0.983 . S
H358 C302 0.947 . S
C359 C302 1.392 . S
C359 C303 1.419 . S
C359 H341 0.948 . S
C360 C361 1.391 . S
C360 C364 1.391 . S
C360 H402 0.948 . S
C361 C360 1.391 . S
C361 C362 1.391 . S
C362 C361 1.391 . S
C362 H418 0.947 . S
C362 C419 1.392 . S
C363 C364 1.391 . S
C363 C367 1.397 . S
C363 C419 1.419 . S
C364 C360 1.391 . S
C364 C363 1.391 . S
C364 C365 1.399 . S
C365 C364 1.399 . S
C365 C368 1.396 . S
C365 C377 1.453 . S
C365 C378 1.684 . S
H366 C390 0.948 . S
C367 C363 1.397 . S
C367 C368 1.394 . S
C367 C386 1.723 . S
C368 C365 1.396 . S
C368 C367 1.394 . S
C368 C398 1.723 . S
H369 C392 0.947 . S
H370 C393 0.948 . S
H371 C399 0.982 . S
H372 C400 0.979 . S
H373 C400 0.980 . S
H374 C400 0.983 . S
H375 C399 0.979 . S
H376 C399 0.977 . S
C377 C365 1.453 . S
C377 H406 0.982 . S
C377 H407 0.979 . S
C377 H408 0.977 . S
C378 C365 1.684 . S
C378 H403 0.979 . S
C378 H404 0.980 . S
C378 H405 0.983 . S
C379 C380 1.391 . S
C379 C384 1.391 . S
C379 H409 0.948 . S
C380 C379 1.391 . S
C380 C381 1.391 . S
C381 C380 1.391 . S
C381 C382 1.392 . S
C381 H410 0.947 . S
C382 C381 1.392 . S
C382 C383 1.419 . S
C382 H411 0.948 . S
C383 C382 1.419 . S
C383 C384 1.391 . S
C383 C387 1.397 . S
C384 C379 1.391 . S
C384 C383 1.391 . S
C384 C385 1.399 . S
C385 C384 1.399 . S
C385 C386 1.396 . S
C385 C388 1.453 . S
C385 C389 1.684 . S
C386 C367 1.723 . S
C386 C385 1.396 . S
C386 C387 1.394 . S
C387 C383 1.397 . S
C387 C386 1.394 . S
C387 C397 1.723 . S
C388 C385 1.453 . S
C388 H412 0.982 . S
C388 H413 0.979 . S
C388 H414 0.977 . S
C389 C385 1.684 . S
C389 H415 0.979 . S
C389 H416 0.980 . S
C389 H417 0.983 . S
C390 H366 0.948 . S
C390 C391 1.391 . S
C390 C395 1.391 . S
C391 C390 1.391 . S
C391 C392 1.391 . S
C392 H369 0.947 . S
C392 C391 1.391 . S
C392 C393 1.392 . S
C393 H370 0.948 . S
C393 C392 1.392 . S
C393 C394 1.419 . S
C394 C393 1.419 . S
C394 C395 1.391 . S
C394 C398 1.397 . S
C395 C390 1.391 . S
C395 C394 1.391 . S
C395 C396 1.399 . S
C396 C395 1.399 . S
C396 C397 1.396 . S
C396 C399 1.453 . S
C396 C400 1.684 . S
C397 C387 1.723 . S
C397 C396 1.396 . S
C397 C398 1.394 . S
C398 C368 1.723 . S
C398 C394 1.397 . S
C398 C397 1.394 . S
C399 H371 0.982 . S
C399 H375 0.979 . S
C399 H376 0.977 . S
C399 C396 1.453 . S
C400 H372 0.979 . S
C400 H373 0.980 . S
C400 H374 0.983 . S
C400 C396 1.684 . S
H401 C419 0.948 . S
H402 C360 0.948 . S
H403 C378 0.979 . S
H404 C378 0.980 . S
H405 C378 0.983 . S
H406 C377 0.982 . S
H407 C377 0.979 . S
H408 C377 0.977 . S
H409 C379 0.948 . S
H410 C381 0.947 . S
H411 C382 0.948 . S
H412 C388 0.982 . S
H413 C388 0.979 . S
H414 C388 0.977 . S
H415 C389 0.979 . S
H416 C389 0.980 . S
H417 C389 0.983 . S
H418 C362 0.947 . S
C419 C362 1.392 . S
C419 C363 1.419 . S
C419 H401 0.948 . S
C420 C421 1.391 . S
C420 C424 1.391 . S
C420 H462 0.948 . S
C421 C420 1.391 . S
C421 C422 1.391 . S
C422 C421 1.391 . S
C422 H478 0.947 . S
C422 C479 1.392 . S
C423 C424 1.391 . S
C423 C427 1.397 . S
C423 C479 1.419 . S
C424 C420 1.391 . S
C424 C423 1.391 . S
C424 C425 1.399 . S
C425 C424 1.399 . S
C425 C428 1.396 . S
C425 C437 1.453 . S
C425 C438 1.684 . S
H426 C450 0.948 . S
C427 C423 1.397 . S
C427 C428 1.394 . S
C427 C446 1.723 . S
C428 C425 1.396 . S
C428 C427 1.394 . S
C428 C458 1.723 . S
H429 C452 0.947 . S
H430 C453 0.948 . S
H431 C459 0.982 . S
H432 C460 0.979 . S
H433 C460 0.980 . S
H434 C460 0.983 . S
H435 C459 0.979 . S
H436 C459 0.977 . S
C437 C425 1.453 . S
C437 H466 0.982 . S
C437 H467 0.979 . S
C437 H468 0.977 . S
C438 C425 1.684 . S
C438 H463 0.979 . S
C438 H464 0.980 . S
C438 H465 0.983 . S
C439 C440 1.391 . S
C439 C444 1.391 . S
C439 H469 0.948 . S
C440 C439 1.391 . S
C440 C441 1.391 . S
C441 C440 1.391 . S
C441 C442 1.392 . S
C441 H470 0.947 . S
C442 C441 1.392 . S
C442 C443 1.419 . S
C442 H471 0.948 . S
C443 C442 1.419 . S
C443 C444 1.391 . S
C443 C447 1.397 . S
C444 C439 1.391 . S
C444 C443 1.391 . S
C444 C445 1.399 . S
C445 C444 1.399 . S
C445 C446 1.396 . S
C445 C448 1.453 . S
C445 C449 1.684 . S
C446 C427 1.723 . S
C446 C445 1.396 . S
C446 C447 1.394 . S
C447 C443 1.397 . S
C447 C446 1.394 . S
C447 C457 1.723 . S
C448 C445 1.453 . S
C448 H472 0.982 . S
C448 H473 0.979 . S
C448 H474 0.977 . S
C449 C445 1.684 . S
C449 H475 0.979 . S
C449 H476 0.980 . S
C449 H477 0.983 . S
C450 H426 0.948 . S
C450 C451 1.391 . S
C450 C455 1.391 . S
C451 C450 1.391 . S
C451 C452 1.391 . S
C452 H429 0.947 . S
C452 C451 1.391 . S
C452 C453 1.392 . S
C453 H430 0.948 . S
C453 C452 1.392 . S
C453 C454 1.419 . S
C454 C453 1.419 . S
C454 C455 1.391 . S
C454 C458 1.397 . S
C455 C450 1.391 . S
C455 C454 1.391 . S
C455 C456 1.399 . S
C456 C455 1.399 . S
C456 C457 1.396 . S
C456 C459 1.453 . S
C456 C460 1.684 . S
C457 C447 1.723 . S
C457 C456 1.396 . S
C457 C458 1.394 . S
C458 C428 1.723 . S
C458 C454 1.397 . S
C458 C457 1.394 . S
C459 H431 0.982 . S
C459 H435 0.979 . S
C459 H436 0.977 . S
C459 C456 1.453 . S
C460 H432 0.979 . S
C460 H433 0.980 . S
C460 H434 0.983 . S
C460 C456 1.684 . S
H461 C479 0.948 . S
H462 C420 0.948 . S
H463 C438 0.979 . S
H464 C438 0.980 . S
H465 C438 0.983 . S
H466 C437 0.982 . S
H467 C437 0.979 . S
H468 C437 0.977 . S
H469 C439 0.948 . S
H470 C441 0.947 . S
H471 C442 0.948 . S
H472 C448 0.982 . S
H473 C448 0.979 . S
H474 C448 0.977 . S
H475 C449 0.979 . S
H476 C449 0.980 . S
H477 C449 0.983 . S
H478 C422 0.947 . S
C479 C422 1.392 . S
C479 C423 1.419 . S
C479 H461 0.948 . S
Sm480 C482 2.846 . S
Sm480 O500 2.543 . S
Sm480 O501 2.450 . S
Sm480 O502 2.681 1_545 S
Sm480 O503 2.464 1_545 S
Sm480 O504 2.396 . S
Sm480 O508 2.386 1_455 S
Sm480 O511 2.408 1_445 S
Sm481 C491 2.846 . S
Sm481 O502 2.386 1_655 S
Sm481 O505 2.408 1_665 S
Sm481 O506 2.543 . S
Sm481 O507 2.450 . S
Sm481 O508 2.681 1_565 S
Sm481 O509 2.464 1_565 S
Sm481 O510 2.396 . S
C482 Sm480 2.846 . S
C482 C483 1.506 . S
C482 O500 1.261 . S
C482 O501 1.242 . S
C483 C482 1.506 . S
C483 C484 1.358 . S
C483 C488 1.382 . S
C484 C483 1.358 . S
C484 C485 1.385 . S
C484 H512 0.930 . S
C485 C484 1.385 . S
C485 C486 1.395 . S
C485 H513 0.929 . S
C486 C485 1.395 . S
C486 C487 1.335 . S
C487 C486 1.335 . S
C487 C488 1.398 . S
C487 H514 0.930 . S
C488 C483 1.382 . S
C488 C487 1.398 . S
C488 H515 0.929 . S
C489 O502 1.271 . S
C489 O503 1.251 . S
C490 O504 1.252 . S
C490 O505 1.272 . S
C491 Sm481 2.846 . S
C491 C492 1.506 . S
C491 O506 1.261 . S
C491 O507 1.242 . S
C492 C491 1.506 . S
C492 C493 1.358 . S
C492 C497 1.382 . S
C493 C492 1.358 . S
C493 C494 1.385 . S
C493 H516 0.930 . S
C494 C493 1.385 . S
C494 C495 1.395 . S
C494 H517 0.929 . S
C495 C494 1.395 . S
C495 C496 1.335 . S
C496 C495 1.335 . S
C496 C497 1.398 . S
C496 H518 0.930 . S
C497 C492 1.382 . S
C497 C496 1.398 . S
C497 H519 0.929 . S
C498 O508 1.271 . S
C498 O509 1.251 . S
C499 O510 1.252 . S
C499 O511 1.272 . S
O500 Sm480 2.543 . S
O500 C482 1.261 . S
O501 Sm480 2.450 . S
O501 C482 1.242 . S
O502 Sm480 2.681 1_565 S
O502 Sm481 2.386 1_455 S
O502 C489 1.271 . S
O503 Sm480 2.464 1_565 S
O503 C489 1.251 . S
O504 Sm480 2.396 . S
O504 C490 1.252 . S
O505 Sm481 2.408 1_445 S
O505 C490 1.272 . S
O506 Sm481 2.543 . S
O506 C491 1.261 . S
O507 Sm481 2.450 . S
O507 C491 1.242 . S
O508 Sm480 2.386 1_655 S
O508 Sm481 2.681 1_545 S
O508 C498 1.271 . S
O509 Sm481 2.464 1_545 S
O509 C498 1.251 . S
O510 Sm481 2.396 . S
O510 C499 1.252 . S
O511 Sm480 2.408 1_665 S
O511 C499 1.272 . S
H512 C484 0.930 . S
H513 C485 0.929 . S
H514 C487 0.930 . S
H515 C488 0.929 . S
H516 C493 0.930 . S
H517 C494 0.929 . S
H518 C496 0.930 . S
H519 C497 0.929 . S
Sm520 C522 2.846 1_565 S
Sm520 O540 2.543 1_565 S
Sm520 O541 2.450 1_565 S
Sm520 O542 2.681 . S
Sm520 O543 2.464 . S
Sm520 O544 2.396 1_565 S
Sm520 O548 2.386 1_564 S
Sm520 O551 2.408 1_554 S
Sm521 C531 2.846 1_545 S
Sm521 O542 2.386 1_546 S
Sm521 O545 2.408 1_556 S
Sm521 O546 2.543 1_545 S
Sm521 O547 2.450 1_545 S
Sm521 O548 2.681 . S
Sm521 O549 2.464 . S
Sm521 O550 2.396 1_545 S
C522 Sm520 2.846 1_545 S
C522 C523 1.506 . S
C522 O540 1.261 . S
C522 O541 1.242 . S
C523 C522 1.506 . S
C523 C524 1.358 . S
C523 C528 1.382 . S
C524 C523 1.358 . S
C524 C525 1.385 . S
C524 H552 0.930 . S
C525 C524 1.385 . S
C525 C526 1.395 . S
C525 H553 0.929 . S
C526 C525 1.395 . S
C526 C527 1.335 . S
C527 C526 1.335 . S
C527 C528 1.398 . S
C527 H554 0.930 . S
C528 C523 1.382 . S
C528 C527 1.398 . S
C528 H555 0.929 . S
C529 O542 1.271 . S
C529 O543 1.251 . S
C530 O544 1.252 . S
C530 O545 1.272 . S
C531 Sm521 2.846 1_565 S
C531 C532 1.506 . S
C531 O546 1.261 . S
C531 O547 1.242 . S
C532 C531 1.506 . S
C532 C533 1.358 . S
C532 C537 1.382 . S
C533 C532 1.358 . S
C533 C534 1.385 . S
C533 H556 0.930 . S
C534 C533 1.385 . S
C534 C535 1.395 . S
C534 H557 0.929 . S
C535 C534 1.395 . S
C535 C536 1.335 . S
C536 C535 1.335 . S
C536 C537 1.398 . S
C536 H558 0.930 . S
C537 C532 1.382 . S
C537 C536 1.398 . S
C537 H559 0.929 . S
C538 O548 1.271 . S
C538 O549 1.251 . S
C539 O550 1.252 . S
C539 O551 1.272 . S
O540 Sm520 2.543 1_545 S
O540 C522 1.261 . S
O541 Sm520 2.450 1_545 S
O541 C522 1.242 . S
O542 Sm520 2.681 . S
O542 Sm521 2.386 1_564 S
O542 C529 1.271 . S
O543 Sm520 2.464 . S
O543 C529 1.251 . S
O544 Sm520 2.396 1_545 S
O544 C530 1.252 . S
O545 Sm521 2.408 1_554 S
O545 C530 1.272 . S
O546 Sm521 2.543 1_565 S
O546 C531 1.261 . S
O547 Sm521 2.450 1_565 S
O547 C531 1.242 . S
O548 Sm520 2.386 1_546 S
O548 Sm521 2.681 . S
O548 C538 1.271 . S
O549 Sm521 2.464 . S
O549 C538 1.251 . S
O550 Sm521 2.396 1_565 S
O550 C539 1.252 . S
O551 Sm520 2.408 1_556 S
O551 C539 1.272 . S
H552 C524 0.930 . S
H553 C525 0.929 . S
H554 C527 0.930 . S
H555 C528 0.929 . S
H556 C533 0.930 . S
H557 C534 0.929 . S
H558 C536 0.930 . S
H559 C537 0.929 . S
Sm560 C562 2.846 . S
Sm560 O580 2.543 . S
Sm560 O581 2.450 . S
Sm560 O582 2.681 . S
Sm560 O583 2.464 . S
Sm560 O584 2.396 . S
Sm560 O588 2.386 . S
Sm560 O591 2.408 . S
Sm561 C571 2.846 . S
Sm561 O582 2.386 . S
Sm561 O585 2.408 . S
Sm561 O586 2.543 . S
Sm561 O587 2.450 . S
Sm561 O588 2.681 . S
Sm561 O589 2.464 . S
Sm561 O590 2.396 . S
C562 Sm560 2.846 . S
C562 C563 1.506 . S
C562 O580 1.261 . S
C562 O581 1.242 . S
C563 C562 1.506 . S
C563 C564 1.358 . S
C563 C568 1.382 . S
C564 C563 1.358 . S
C564 C565 1.385 . S
C564 H592 0.930 . S
C565 C564 1.385 . S
C565 C566 1.395 . S
C565 H593 0.929 . S
C566 C565 1.395 . S
C566 C567 1.335 . S
C567 C566 1.335 . S
C567 C568 1.398 . S
C567 H594 0.930 . S
C568 C563 1.382 . S
C568 C567 1.398 . S
C568 H595 0.929 . S
C569 O582 1.271 . S
C569 O583 1.251 . S
C570 O584 1.252 . S
C570 O585 1.272 . S
C571 Sm561 2.846 . S
C571 C572 1.506 . S
C571 O586 1.261 . S
C571 O587 1.242 . S
C572 C571 1.506 . S
C572 C573 1.358 . S
C572 C577 1.382 . S
C573 C572 1.358 . S
C573 C574 1.385 . S
C573 H596 0.930 . S
C574 C573 1.385 . S
C574 C575 1.395 . S
C574 H597 0.929 . S
C575 C574 1.395 . S
C575 C576 1.335 . S
C576 C575 1.335 . S
C576 C577 1.398 . S
C576 H598 0.930 . S
C577 C572 1.382 . S
C577 C576 1.398 . S
C577 H599 0.929 . S
C578 O588 1.271 . S
C578 O589 1.251 . S
C579 O590 1.252 . S
C579 O591 1.272 . S
O580 Sm560 2.543 . S
O580 C562 1.261 . S
O581 Sm560 2.450 . S
O581 C562 1.242 . S
O582 Sm560 2.681 . S
O582 Sm561 2.386 . S
O582 C569 1.271 . S
O583 Sm560 2.464 . S
O583 C569 1.251 . S
O584 Sm560 2.396 . S
O584 C570 1.252 . S
O585 Sm561 2.408 . S
O585 C570 1.272 . S
O586 Sm561 2.543 . S
O586 C571 1.261 . S
O587 Sm561 2.450 . S
O587 C571 1.242 . S
O588 Sm560 2.386 . S
O588 Sm561 2.681 . S
O588 C578 1.271 . S
O589 Sm561 2.464 . S
O589 C578 1.251 . S
O590 Sm561 2.396 . S
O590 C579 1.252 . S
O591 Sm560 2.408 . S
O591 C579 1.272 . S
H592 C564 0.930 . S
H593 C565 0.929 . S
H594 C567 0.930 . S
H595 C568 0.929 . S
H596 C573 0.930 . S
H597 C574 0.929 . S
H598 C576 0.930 . S
H599 C577 0.929 . S
Sm600 C602 2.846 . S
Sm600 O620 2.543 . S
Sm600 O621 2.450 . S
Sm600 O622 2.681 1_455 S
Sm600 O623 2.464 1_455 S
Sm600 O624 2.396 . S
Sm600 O628 2.386 1_554 S
Sm600 O631 2.408 1_454 S
Sm601 C611 2.846 . S
Sm601 O622 2.386 1_556 S
Sm601 O625 2.408 1_656 S
Sm601 O626 2.543 . S
Sm601 O627 2.450 . S
Sm601 O628 2.681 1_655 S
Sm601 O629 2.464 1_655 S
Sm601 O630 2.396 . S
C602 Sm600 2.846 . S
C602 C603 1.506 . S
C602 O620 1.261 . S
C602 O621 1.242 . S
C603 C602 1.506 . S
C603 C604 1.358 . S
C603 C608 1.382 . S
C604 C603 1.358 . S
C604 C605 1.385 . S
C604 H632 0.930 . S
C605 C604 1.385 . S
C605 C606 1.395 . S
C605 H633 0.929 . S
C606 C605 1.395 . S
C606 C607 1.335 . S
C607 C606 1.335 . S
C607 C608 1.398 . S
C607 H634 0.930 . S
C608 C603 1.382 . S
C608 C607 1.398 . S
C608 H635 0.929 . S
C609 O622 1.271 . S
C609 O623 1.251 . S
C610 O624 1.252 . S
C610 O625 1.272 . S
C611 Sm601 2.846 . S
C611 C612 1.506 . S
C611 O626 1.261 . S
C611 O627 1.242 . S
C612 C611 1.506 . S
C612 C613 1.358 . S
C612 C617 1.382 . S
C613 C612 1.358 . S
C613 C614 1.385 . S
C613 H636 0.930 . S
C614 C613 1.385 . S
C614 C615 1.395 . S
C614 H637 0.929 . S
C615 C614 1.395 . S
C615 C616 1.335 . S
C616 C615 1.335 . S
C616 C617 1.398 . S
C616 H638 0.930 . S
C617 C612 1.382 . S
C617 C616 1.398 . S
C617 H639 0.929 . S
C618 O628 1.271 . S
C618 O629 1.251 . S
C619 O630 1.252 . S
C619 O631 1.272 . S
O620 Sm600 2.543 . S
O620 C602 1.261 . S
O621 Sm600 2.450 . S
O621 C602 1.242 . S
O622 Sm600 2.681 1_655 S
O622 Sm601 2.386 1_554 S
O622 C609 1.271 . S
O623 Sm600 2.464 1_655 S
O623 C609 1.251 . S
O624 Sm600 2.396 . S
O624 C610 1.252 . S
O625 Sm601 2.408 1_454 S
O625 C610 1.272 . S
O626 Sm601 2.543 . S
O626 C611 1.261 . S
O627 Sm601 2.450 . S
O627 C611 1.242 . S
O628 Sm600 2.386 1_556 S
O628 Sm601 2.681 1_455 S
O628 C618 1.271 . S
O629 Sm601 2.464 1_455 S
O629 C618 1.251 . S
O630 Sm601 2.396 . S
O630 C619 1.252 . S
O631 Sm600 2.408 1_656 S
O631 C619 1.272 . S
H632 C604 0.930 . S
H633 C605 0.929 . S
H634 C607 0.930 . S
H635 C608 0.929 . S
H636 C613 0.930 . S
H637 C614 0.929 . S
H638 C616 0.930 . S
H639 C617 0.929 . S
H640 C646 0.930 . S
H641 C649 0.930 . S
H642 C650 0.930 . S
H643 C651 0.930 . S
H644 C654 0.930 . S
H645 C655 0.930 . S
C646 H640 0.930 . S
C646 C647 1.355 . S
C646 C648 1.415 . S
C647 C646 1.355 . S
C647 C649 1.419 . S
C648 C646 1.415 . S
C648 C653 1.425 . S
C648 C655 1.409 . S
C649 H641 0.930 . S
C649 C647 1.419 . S
C649 C650 1.362 . S
C650 H642 0.930 . S
C650 C649 1.362 . S
C650 C653 1.409 . S
C651 H643 0.930 . S
C651 C652 1.355 . S
C651 C653 1.415 . S
C652 C651 1.355 . S
C652 C654 1.419 . S
C653 C648 1.425 . S
C653 C650 1.409 . S
C653 C651 1.415 . S
C654 H644 0.930 . S
C654 C652 1.419 . S
C654 C655 1.362 . S
C655 H645 0.930 . S
C655 C648 1.409 . S
C655 C654 1.362 . S
H656 C662 0.930 . S
H657 C665 0.930 . S
H658 C666 0.930 . S
H659 C667 0.930 . S
H660 C670 0.930 . S
H661 C671 0.930 . S
C662 H656 0.930 . S
C662 C663 1.355 . S
C662 C664 1.415 . S
C663 C662 1.355 . S
C663 C665 1.419 . S
C664 C662 1.415 . S
C664 C669 1.425 . S
C664 C671 1.409 . S
C665 H657 0.930 . S
C665 C663 1.419 . S
C665 C666 1.362 . S
C666 H658 0.930 . S
C666 C665 1.362 . S
C666 C669 1.409 . S
C667 H659 0.930 . S
C667 C668 1.355 . S
C667 C669 1.415 . S
C668 C667 1.355 . S
C668 C670 1.419 . S
C669 C664 1.425 . S
C669 C666 1.409 . S
C669 C667 1.415 . S
C670 H660 0.930 . S
C670 C668 1.419 . S
C670 C671 1.362 . S
C671 H661 0.930 . S
C671 C664 1.409 . S
C671 C670 1.362 . S
H672 C678 0.930 . S
H673 C681 0.930 . S
H674 C682 0.930 . S
H675 C683 0.930 . S
H676 C686 0.930 . S
H677 C687 0.930 . S
C678 H672 0.930 . S
C678 C679 1.355 . S
C678 C680 1.415 . S
C679 C678 1.355 . S
C679 C681 1.419 . S
C680 C678 1.415 . S
C680 C685 1.425 . S
C680 C687 1.409 . S
C681 H673 0.930 . S
C681 C679 1.419 . S
C681 C682 1.362 . S
C682 H674 0.930 . S
C682 C681 1.362 . S
C682 C685 1.409 . S
C683 H675 0.930 . S
C683 C684 1.355 . S
C683 C685 1.415 . S
C684 C683 1.355 . S
C684 C686 1.419 . S
C685 C680 1.425 . S
C685 C682 1.409 . S
C685 C683 1.415 . S
C686 H676 0.930 . S
C686 C684 1.419 . S
C686 C687 1.362 . S
C687 H677 0.930 . S
C687 C680 1.409 . S
C687 C686 1.362 . S
H688 C694 0.930 . S
H689 C697 0.930 . S
H690 C698 0.930 . S
H691 C699 0.930 . S
H692 C702 0.948 . S
H693 C703 0.930 . S
C694 H688 0.930 . S
C694 C695 1.355 . S
C694 C696 1.415 . S
C695 C694 1.355 . S
C695 C697 1.419 . S
C696 C694 1.415 . S
C696 C701 1.425 . S
C696 C703 1.409 . S
C697 H689 0.930 . S
C697 C695 1.419 . S
C697 C698 1.362 . S
C698 H690 0.930 . S
C698 C697 1.362 . S
C698 C701 1.409 . S
C699 H691 0.930 . S
C699 C700 1.355 . S
C699 C701 1.415 . S
C700 C699 1.355 . S
C700 C702 1.419 . S
C701 C696 1.425 . S
C701 C698 1.409 . S
C701 C699 1.415 . S
C702 H692 0.948 . S
C702 C700 1.419 . S
C702 C703 1.362 . S
C703 H693 0.930 . S
C703 C696 1.409 . S
C703 C702 1.362 . S
H704 C710 0.930 . S
H705 C713 0.930 . S
H706 C714 0.930 . S
H707 C715 0.930 . S
H708 C718 0.930 . S
H709 C719 0.930 . S
C710 H704 0.930 . S
C710 C711 1.355 . S
C710 C712 1.415 . S
C711 C710 1.355 . S
C711 C713 1.419 . S
C712 C710 1.415 . S
C712 C717 1.425 . S
C712 C719 1.409 . S
C713 H705 0.930 . S
C713 C711 1.419 . S
C713 C714 1.362 . S
C714 H706 0.930 . S
C714 C713 1.362 . S
C714 C717 1.409 . S
C715 H707 0.930 . S
C715 C716 1.355 . S
C715 C717 1.415 . S
C716 C715 1.355 . S
C716 C718 1.419 . S
C717 C712 1.425 . S
C717 C714 1.409 . S
C717 C715 1.415 . S
C718 H708 0.930 . S
C718 C716 1.419 . S
C718 C719 1.362 . S
C719 H709 0.930 . S
C719 C712 1.409 . S
C719 C718 1.362 . S
H720 C726 0.930 . S
H721 C729 0.930 . S
H722 C730 0.930 . S
H723 C731 0.930 . S
H724 C734 0.930 . S
H725 C735 0.930 . S
C726 H720 0.930 . S
C726 C727 1.355 . S
C726 C728 1.415 . S
C727 C726 1.355 . S
C727 C729 1.419 . S
C728 C726 1.415 . S
C728 C733 1.425 . S
C728 C735 1.409 . S
C729 H721 0.930 . S
C729 C727 1.419 . S
C729 C730 1.362 . S
C730 H722 0.930 . S
C730 C729 1.362 . S
C730 C733 1.409 . S
C731 H723 0.930 . S
C731 C732 1.355 . S
C731 C733 1.415 . S
C732 C731 1.355 . S
C732 C734 1.419 . S
C733 C728 1.425 . S
C733 C730 1.409 . S
C733 C731 1.415 . S
C734 H724 0.930 . S
C734 C732 1.419 . S
C734 C735 1.362 . S
C735 H725 0.930 . S
C735 C728 1.409 . S
C735 C734 1.362 . S
H736 C742 0.930 . S
H737 C745 0.930 . S
H738 C746 0.930 . S
H739 C747 0.930 . S
H740 C750 0.930 . S
H741 C751 0.930 . S
C742 H736 0.930 . S
C742 C743 1.355 . S
C742 C744 1.415 . S
C743 C742 1.355 . S
C743 C745 1.419 . S
C744 C742 1.415 . S
C744 C749 1.425 . S
C744 C751 1.409 . S
C745 H737 0.930 . S
C745 C743 1.419 . S
C745 C746 1.362 . S
C746 H738 0.930 . S
C746 C745 1.362 . S
C746 C749 1.409 . S
C747 H739 0.930 . S
C747 C748 1.355 . S
C747 C749 1.415 . S
C748 C747 1.355 . S
C748 C750 1.419 . S
C749 C744 1.425 . S
C749 C746 1.409 . S
C749 C747 1.415 . S
C750 H740 0.930 . S
C750 C748 1.419 . S
C750 C751 1.362 . S
C751 H741 0.930 . S
C751 C744 1.409 . S
C751 C750 1.362 . S
H752 C758 0.930 . S
H753 C761 0.930 . S
H754 C762 0.930 . S
H755 C763 0.930 . S
H756 C766 0.930 . S
H757 C767 0.930 . S
C758 H752 0.930 . S
C758 C759 1.355 . S
C758 C760 1.415 . S
C759 C758 1.355 . S
C759 C761 1.419 . S
C760 C758 1.415 . S
C760 C765 1.425 . S
C760 C767 1.409 . S
C761 H753 0.930 . S
C761 C759 1.419 . S
C761 C762 1.362 . S
C762 H754 0.930 . S
C762 C761 1.362 . S
C762 C765 1.409 . S
C763 H755 0.930 . S
C763 C764 1.355 . S
C763 C765 1.415 . S
C764 C763 1.355 . S
C764 C766 1.419 . S
C765 C760 1.425 . S
C765 C762 1.409 . S
C765 C763 1.415 . S
C766 H756 0.930 . S
C766 C764 1.419 . S
C766 C767 1.362 . S
C767 H757 0.930 . S
C767 C760 1.409 . S
C767 C766 1.362 . S
H768 C774 0.930 . S
H769 C777 0.930 . S
H770 C778 0.930 . S
H771 C779 0.930 . S
H772 C782 0.930 . S
H773 C783 0.930 . S
C774 H768 0.930 . S
C774 C775 1.355 . S
C774 C776 1.415 . S
C775 C774 1.355 . S
C775 C777 1.419 . S
C776 C774 1.415 . S
C776 C781 1.425 . S
C776 C783 1.409 . S
C777 H769 0.930 . S
C777 C775 1.419 . S
C777 C778 1.362 . S
C778 H770 0.930 . S
C778 C777 1.362 . S
C778 C781 1.409 . S
C779 H771 0.930 . S
C779 C780 1.355 . S
C779 C781 1.415 . S
C780 C779 1.355 . S
C780 C782 1.419 . S
C781 C776 1.425 . S
C781 C778 1.409 . S
C781 C779 1.415 . S
C782 H772 0.930 . S
C782 C780 1.419 . S
C782 C783 1.362 . S
C783 H773 0.930 . S
C783 C776 1.409 . S
C783 C782 1.362 . S
H784 C790 0.930 . S
H785 C793 0.930 . S
H786 C794 0.930 . S
H787 C795 0.930 . S
H788 C798 0.930 . S
H789 C799 0.930 . S
C790 H784 0.930 . S
C790 C791 1.355 . S
C790 C792 1.415 . S
C791 C790 1.355 . S
C791 C793 1.419 . S
C792 C790 1.415 . S
C792 C797 1.425 . S
C792 C799 1.409 . S
C793 H785 0.930 . S
C793 C791 1.419 . S
C793 C794 1.362 . S
C794 H786 0.930 . S
C794 C793 1.362 . S
C794 C797 1.409 . S
C795 H787 0.930 . S
C795 C796 1.355 . S
C795 C797 1.415 . S
C796 C795 1.355 . S
C796 C798 1.419 . S
C797 C792 1.425 . S
C797 C794 1.409 . S
C797 C795 1.415 . S
C798 H788 0.930 . S
C798 C796 1.419 . S
C798 C799 1.362 . S
C799 H789 0.930 . S
C799 C792 1.409 . S
C799 C798 1.362 . S
H800 C806 0.930 . S
H801 C809 0.930 . S
H802 C810 0.930 . S
H803 C811 0.930 . S
H804 C814 0.930 . S
H805 C815 0.930 . S
C806 H800 0.930 . S
C806 C807 1.355 . S
C806 C808 1.415 . S
C807 C806 1.355 . S
C807 C809 1.419 . S
C808 C806 1.415 . S
C808 C813 1.425 . S
C808 C815 1.409 . S
C809 H801 0.930 . S
C809 C807 1.419 . S
C809 C810 1.362 . S
C810 H802 0.930 . S
C810 C809 1.362 . S
C810 C813 1.409 . S
C811 H803 0.930 . S
C811 C812 1.355 . S
C811 C813 1.415 . S
C812 C811 1.355 . S
C812 C814 1.419 . S
C813 C808 1.425 . S
C813 C810 1.409 . S
C813 C811 1.415 . S
C814 H804 0.930 . S
C814 C812 1.419 . S
C814 C815 1.362 . S
C815 H805 0.930 . S
C815 C808 1.409 . S
C815 C814 1.362 . S
H816 C822 0.930 . S
H817 C825 0.930 . S
H818 C826 0.930 . S
H819 C827 0.930 . S
H820 C830 0.930 . S
H821 C831 0.930 . S
C822 H816 0.930 . S
C822 C823 1.355 . S
C822 C824 1.415 . S
C823 C822 1.355 . S
C823 C825 1.419 . S
C824 C822 1.415 . S
C824 C829 1.425 . S
C824 C831 1.409 . S
C825 H817 0.930 . S
C825 C823 1.419 . S
C825 C826 1.362 . S
C826 H818 0.930 . S
C826 C825 1.362 . S
C826 C829 1.409 . S
C827 H819 0.930 . S
C827 C828 1.355 . S
C827 C829 1.415 . S
C828 C827 1.355 . S
C828 C830 1.419 . S
C829 C824 1.425 . S
C829 C826 1.409 . S
C829 C827 1.415 . S
C830 H820 0.930 . S
C830 C828 1.419 . S
C830 C831 1.362 . S
C831 H821 0.930 . S
C831 C824 1.409 . S
C831 C830 1.362 . S
H832 C838 0.930 . S
H833 C841 0.930 . S
H834 C842 0.930 . S
H835 C843 0.930 . S
H836 C846 0.930 . S
H837 C847 0.930 . S
C838 H832 0.930 . S
C838 C839 1.355 . S
C838 C840 1.415 . S
C839 C838 1.355 . S
C839 C841 1.419 . S
C840 C838 1.415 . S
C840 C845 1.425 . S
C840 C847 1.409 . S
C841 H833 0.930 . S
C841 C839 1.419 . S
C841 C842 1.362 . S
C842 H834 0.930 . S
C842 C841 1.362 . S
C842 C845 1.409 . S
C843 H835 0.930 . S
C843 C844 1.355 . S
C843 C845 1.415 . S
C844 C843 1.355 . S
C844 C846 1.419 . S
C845 C840 1.425 . S
C845 C842 1.409 . S
C845 C843 1.415 . S
C846 H836 0.930 . S
C846 C844 1.419 . S
C846 C847 1.362 . S
C847 H837 0.930 . S
C847 C840 1.409 . S
C847 C846 1.362 . S
H848 C854 0.930 . S
H849 C857 0.930 . S
H850 C858 0.930 . S
H851 C859 0.930 . S
H852 C862 0.930 . S
H853 C863 0.930 . S
C854 H848 0.930 . S
C854 C855 1.355 . S
C854 C856 1.415 . S
C855 C854 1.355 . S
C855 C857 1.419 . S
C856 C854 1.415 . S
C856 C861 1.425 . S
C856 C863 1.409 . S
C857 H849 0.930 . S
C857 C855 1.419 . S
C857 C858 1.362 . S
C858 H850 0.930 . S
C858 C857 1.362 . S
C858 C861 1.409 . S
C859 H851 0.930 . S
C859 C860 1.355 . S
C859 C861 1.415 . S
C860 C859 1.355 . S
C860 C862 1.419 . S
C861 C856 1.425 . S
C861 C858 1.409 . S
C861 C859 1.415 . S
C862 H852 0.930 . S
C862 C860 1.419 . S
C862 C863 1.362 . S
C863 H853 0.930 . S
C863 C856 1.409 . S
C863 C862 1.362 . S
H864 C870 0.930 . S
H865 C873 0.930 . S
H866 C874 0.930 . S
H867 C875 0.930 . S
H868 C878 0.930 . S
H869 C879 0.930 . S
C870 H864 0.930 . S
C870 C871 1.355 . S
C870 C872 1.415 . S
C871 C870 1.355 . S
C871 C873 1.419 . S
C872 C870 1.415 . S
C872 C877 1.425 . S
C872 C879 1.409 . S
C873 H865 0.930 . S
C873 C871 1.419 . S
C873 C874 1.362 . S
C874 H866 0.930 . S
C874 C873 1.362 . S
C874 C877 1.409 . S
C875 H867 0.930 . S
C875 C876 1.355 . S
C875 C877 1.415 . S
C876 C875 1.355 . S
C876 C878 1.419 . S
C877 C872 1.425 . S
C877 C874 1.409 . S
C877 C875 1.415 . S
C878 H868 0.930 . S
C878 C876 1.419 . S
C878 C879 1.362 . S
C879 H869 0.930 . S
C879 C872 1.409 . S
C879 C878 1.362 . S
H880 C886 0.930 . S
H881 C889 0.930 . S
H882 C890 0.930 . S
H883 C891 0.930 . S
H884 C894 0.930 . S
H885 C895 0.930 . S
C886 H880 0.930 . S
C886 C887 1.355 . S
C886 C888 1.415 . S
C887 C886 1.355 . S
C887 C889 1.419 . S
C888 C886 1.415 . S
C888 C893 1.425 . S
C888 C895 1.409 . S
C889 H881 0.930 . S
C889 C887 1.419 . S
C889 C890 1.362 . S
C890 H882 0.930 . S
C890 C889 1.362 . S
C890 C893 1.409 . S
C891 H883 0.930 . S
C891 C892 1.355 . S
C891 C893 1.415 . S
C892 C891 1.355 . S
C892 C894 1.419 . S
C893 C888 1.425 . S
C893 C890 1.409 . S
C893 C891 1.415 . S
C894 H884 0.930 . S
C894 C892 1.419 . S
C894 C895 1.362 . S
C895 H885 0.930 . S
C895 C888 1.409 . S
C895 C894 1.362 . S
H896 C902 0.930 . S
H897 C905 0.930 . S
H898 C906 0.930 . S
H899 C907 0.930 . S
H900 C910 0.930 . S
H901 C911 0.930 . S
C902 H896 0.930 . S
C902 C903 1.355 . S
C902 C904 1.415 . S
C903 C902 1.355 . S
C903 C905 1.419 . S
C904 C902 1.415 . S
C904 C909 1.425 . S
C904 C911 1.409 . S
C905 H897 0.930 . S
C905 C903 1.419 . S
C905 C906 1.362 . S
C906 H898 0.930 . S
C906 C905 1.362 . S
C906 C909 1.409 . S
C907 H899 0.930 . S
C907 C908 1.355 . S
C907 C909 1.415 . S
C908 C907 1.355 . S
C908 C910 1.419 . S
C909 C904 1.425 . S
C909 C906 1.409 . S
C909 C907 1.415 . S
C910 H900 0.930 . S
C910 C908 1.419 . S
C910 C911 1.362 . S
C911 H901 0.930 . S
C911 C904 1.409 . S
C911 C910 1.362 . S
H912 C918 0.930 . S
H913 C921 0.930 . S
H914 C922 0.930 . S
H915 C923 0.930 . S
H916 C926 0.930 1_565 S
H917 C927 0.930 . S
C918 H912 0.930 . S
C918 C919 1.355 . S
C918 C920 1.415 . S
C919 C918 1.355 . S
C919 C921 1.419 . S
C920 C918 1.415 . S
C920 C925 1.425 . S
C920 C927 1.409 . S
C921 H913 0.930 . S
C921 C919 1.419 . S
C921 C922 1.362 . S
C922 H914 0.930 . S
C922 C921 1.362 . S
C922 C925 1.409 . S
C923 H915 0.930 . S
C923 C924 1.355 . S
C923 C925 1.415 . S
C924 C923 1.355 . S
C924 C926 1.419 . S
C925 C920 1.425 . S
C925 C922 1.409 . S
C925 C923 1.415 . S
C926 H916 0.930 1_545 S
C926 C924 1.419 . S
C926 C927 1.362 . S
C927 H917 0.930 . S
C927 C920 1.409 . S
C927 C926 1.362 . S
H928 C934 0.930 . S
H929 C937 0.930 . S
H930 C938 0.930 . S
H931 C939 0.930 . S
H932 C942 0.930 . S
H933 C943 0.930 . S
C934 H928 0.930 . S
C934 C935 1.355 . S
C934 C936 1.415 . S
C935 C934 1.355 . S
C935 C937 1.419 . S
C936 C934 1.415 . S
C936 C941 1.425 . S
C936 C943 1.409 . S
C937 H929 0.930 . S
C937 C935 1.419 . S
C937 C938 1.362 . S
C938 H930 0.930 . S
C938 C937 1.362 . S
C938 C941 1.409 . S
C939 H931 0.930 . S
C939 C940 1.355 . S
C939 C941 1.415 . S
C940 C939 1.355 . S
C940 C942 1.419 . S
C941 C936 1.425 . S
C941 C938 1.409 . S
C941 C939 1.415 . S
C942 H932 0.930 . S
C942 C940 1.419 . S
C942 C943 1.362 . S
C943 H933 0.930 . S
C943 C936 1.409 . S
C943 C942 1.362 . S
H944 C950 0.930 . S
H945 C953 0.930 . S
H946 C954 0.930 . S
H947 C955 0.930 . S
H948 C958 0.930 . S
H949 C959 0.930 . S
C950 H944 0.930 . S
C950 C951 1.355 . S
C950 C952 1.415 . S
C951 C950 1.355 . S
C951 C953 1.419 . S
C952 C950 1.415 . S
C952 C957 1.425 . S
C952 C959 1.409 . S
C953 H945 0.930 . S
C953 C951 1.419 . S
C953 C954 1.362 . S
C954 H946 0.930 . S
C954 C953 1.362 . S
C954 C957 1.409 . S
C955 H947 0.930 . S
C955 C956 1.355 . S
C955 C957 1.415 . S
C956 C955 1.355 . S
C956 C958 1.419 . S
C957 C952 1.425 . S
C957 C954 1.409 . S
C957 C955 1.415 . S
C958 H948 0.930 . S
C958 C956 1.419 . S
C958 C959 1.362 . S
C959 H949 0.930 . S
C959 C952 1.409 . S
C959 C958 1.362 . S
H960 C966 0.930 . S
H961 C969 0.930 . S
H962 C970 0.930 . S
H963 C971 0.930 . S
H964 C974 0.930 . S
H965 C975 0.930 . S
C966 H960 0.930 . S
C966 C967 1.355 . S
C966 C968 1.415 . S
C967 C966 1.355 . S
C967 C969 1.419 . S
C968 C966 1.415 . S
C968 C973 1.425 . S
C968 C975 1.409 . S
C969 H961 0.930 . S
C969 C967 1.419 . S
C969 C970 1.362 . S
C970 H962 0.930 . S
C970 C969 1.362 . S
C970 C973 1.409 . S
C971 H963 0.930 . S
C971 C972 1.355 . S
C971 C973 1.415 . S
C972 C971 1.355 . S
C972 C974 1.419 . S
C973 C968 1.425 . S
C973 C970 1.409 . S
C973 C971 1.415 . S
C974 H964 0.930 . S
C974 C972 1.419 . S
C974 C975 1.362 . S
C975 H965 0.930 . S
C975 C968 1.409 . S
C975 C974 1.362 . S
H976 C982 0.930 . S
H977 C985 0.930 . S
H978 C986 0.930 . S
H979 C987 0.930 . S
H980 C990 0.930 . S
H981 C991 0.930 . S
C982 H976 0.930 . S
C982 C983 1.355 . S
C982 C984 1.415 . S
C983 C982 1.355 . S
C983 C985 1.419 . S
C984 C982 1.415 . S
C984 C989 1.425 . S
C984 C991 1.409 . S
C985 H977 0.930 . S
C985 C983 1.419 . S
C985 C986 1.362 . S
C986 H978 0.930 . S
C986 C985 1.362 . S
C986 C989 1.409 . S
C987 H979 0.930 . S
C987 C988 1.355 . S
C987 C989 1.415 . S
C988 C987 1.355 . S
C988 C990 1.419 . S
C989 C984 1.425 . S
C989 C986 1.409 . S
C989 C987 1.415 . S
C990 H980 0.930 . S
C990 C988 1.419 . S
C990 C991 1.362 . S
C991 H981 0.930 . S
C991 C984 1.409 . S
C991 C990 1.362 . S
H992 C998 0.930 . S
H993 C1001 0.930 . S
H994 C1002 0.930 . S
H995 C1003 0.930 . S
H996 C1006 0.930 . S
H997 C1007 0.930 . S
C998 H992 0.930 . S
C998 C999 1.355 . S
C998 C1000 1.415 . S
C999 C998 1.355 . S
C999 C1001 1.419 . S
C1000 C998 1.415 . S
C1000 C1005 1.425 . S
C1000 C1007 1.409 . S
C1001 H993 0.930 . S
C1001 C999 1.419 . S
C1001 C1002 1.362 . S
C1002 H994 0.930 . S
C1002 C1001 1.362 . S
C1002 C1005 1.409 . S
C1003 H995 0.930 . S
C1003 C1004 1.355 . S
C1003 C1005 1.415 . S
C1004 C1003 1.355 . S
C1004 C1006 1.419 . S
C1005 C1000 1.425 . S
C1005 C1002 1.409 . S
C1005 C1003 1.415 . S
C1006 H996 0.930 . S
C1006 C1004 1.419 . S
C1006 C1007 1.362 . S
C1007 H997 0.930 . S
C1007 C1000 1.409 . S
C1007 C1006 1.362 . S
H1008 C1014 0.930 . S
H1009 C1017 0.930 . S
H1010 C1018 0.930 . S
H1011 C1019 0.930 . S
H1012 C1022 0.930 . S
H1013 C1023 0.930 . S
C1014 H1008 0.930 . S
C1014 C1015 1.355 . S
C1014 C1016 1.415 . S
C1015 C1014 1.355 . S
C1015 C1017 1.419 . S
C1016 C1014 1.415 . S
C1016 C1021 1.425 . S
C1016 C1023 1.409 . S
C1017 H1009 0.930 . S
C1017 C1015 1.419 . S
C1017 C1018 1.362 . S
C1018 H1010 0.930 . S
C1018 C1017 1.362 . S
C1018 C1021 1.409 . S
C1019 H1011 0.930 . S
C1019 C1020 1.355 . S
C1019 C1021 1.415 . S
C1020 C1019 1.355 . S
C1020 C1022 1.419 . S
C1021 C1016 1.425 . S
C1021 C1018 1.409 . S
C1021 C1019 1.415 . S
C1022 H1012 0.930 . S
C1022 C1020 1.419 . S
C1022 C1023 1.362 . S
C1023 H1013 0.930 . S
C1023 C1016 1.409 . S
C1023 C1022 1.362 . S
C647 C1 1.165 . S
C652 C486 1.324 . S
C663 C80 0.889 . S
C668 C535 0.954 . S
C684 C570 2.497 . S
C679 C140 2.492 . S
C695 C211 2.383 . S
C700 C609 2.345 . S
C716 C530 2.519 . S
C711 C31 2.239 . S
C732 C489 0.764 . S
C727 C61 0.745 . S
C748 C619 1.882 . S
C743 C151 1.930 . S
C764 C578 1.671 . S
C759 C200 1.672 . S
C775 C20 1.605 . S
C780 C606 1.737 . S
C796 C538 2.340 . S
C791 C121 2.394 . S
C807 C181 2.313 . S
C812 C499 2.333 . S
C823 C91 0.931 . S
C828 C575 0.906 . S
C844 C495 1.297 . S
C839 C260 1.262 . S
C855 C320 0.953 . S
C860 C526 0.986 . S
C871 C361 2.460 . S
C876 C579 2.465 . S
C887 C451 2.372 . S
C892 C618 2.345 . S
C903 C271 2.330 . S
C908 C539 2.521 . S
C924 C498 0.847 . S
C919 C301 0.880 . S
C940 C610 1.925 . S
C935 C380 1.908 . S
C956 C569 1.633 . S
C951 C440 1.640 . S
C967 C241 1.585 . S
C972 C615 1.759 . S
C988 C529 2.298 . S
C983 C391 2.405 . S
C1004 C490 2.344 . S
C999 C421 2.283 . S
C1015 C331 0.959 . S
C1020 C566 0.926 . S
