# Generated by pormake.
# Topology pyr, (3,6)-cn, num edge types: 1
# Building blocks:
#     Node 0, Type 0, BuildingBlock: CUQRIR_clean_linker_1, # of connection points: 3
#     Node 1, Type 0, BuildingBlock: CUQRIR_clean_linker_1, # of connection points: 3
#     Node 2, Type 0, BuildingBlock: CUQRIR_clean_linker_1, # of connection points: 3
#     Node 3, Type 0, BuildingBlock: CUQRIR_clean_linker_1, # of connection points: 3
#     Node 4, Type 0, BuildingBlock: CUQRIR_clean_linker_1, # of connection points: 3
#     Node 5, Type 0, BuildingBlock: CUQRIR_clean_linker_1, # of connection points: 3
#     Node 6, Type 0, BuildingBlock: CUQRIR_clean_linker_1, # of connection points: 3
#     Node 7, Type 0, BuildingBlock: CUQRIR_clean_linker_1, # of connection points: 3
#     Node 8, Type 1, BuildingBlock: BETFEN_clean_sbu_0, # of connection points: 6
#     Node 9, Type 1, BuildingBlock: BETFEN_clean_sbu_0, # of connection points: 6
#     Node 10, Type 1, BuildingBlock: BETFEN_clean_sbu_0, # of connection points: 6
#     Node 11, Type 1, BuildingBlock: BETFEN_clean_sbu_0, # of connection points: 6
#     Edge 12, Type (0, 1), BuildingBlock: ZUJKAS_clean_linker_0, # of connection points: 2
#     Edge 13, Type (0, 1), BuildingBlock: ZUJKAS_clean_linker_0, # of connection points: 2
#     Edge 14, Type (0, 1), BuildingBlock: ZUJKAS_clean_linker_0, # of connection points: 2
#     Edge 15, Type (0, 1), BuildingBlock: ZUJKAS_clean_linker_0, # of connection points: 2
#     Edge 16, Type (0, 1), BuildingBlock: ZUJKAS_clean_linker_0, # of connection points: 2
#     Edge 17, Type (0, 1), BuildingBlock: ZUJKAS_clean_linker_0, # of connection points: 2
#     Edge 18, Type (0, 1), BuildingBlock: ZUJKAS_clean_linker_0, # of connection points: 2
#     Edge 19, Type (0, 1), BuildingBlock: ZUJKAS_clean_linker_0, # of connection points: 2
#     Edge 20, Type (0, 1), BuildingBlock: ZUJKAS_clean_linker_0, # of connection points: 2
#     Edge 21, Type (0, 1), BuildingBlock: ZUJKAS_clean_linker_0, # of connection points: 2
#     Edge 22, Type (0, 1), BuildingBlock: ZUJKAS_clean_linker_0, # of connection points: 2
#     Edge 23, Type (0, 1), BuildingBlock: ZUJKAS_clean_linker_0, # of connection points: 2
#     Edge 24, Type (0, 1), BuildingBlock: ZUJKAS_clean_linker_0, # of connection points: 2
#     Edge 25, Type (0, 1), BuildingBlock: ZUJKAS_clean_linker_0, # of connection points: 2
#     Edge 26, Type (0, 1), BuildingBlock: ZUJKAS_clean_linker_0, # of connection points: 2
#     Edge 27, Type (0, 1), BuildingBlock: ZUJKAS_clean_linker_0, # of connection points: 2
#     Edge 28, Type (0, 1), BuildingBlock: ZUJKAS_clean_linker_0, # of connection points: 2
#     Edge 29, Type (0, 1), BuildingBlock: ZUJKAS_clean_linker_0, # of connection points: 2
#     Edge 30, Type (0, 1), BuildingBlock: ZUJKAS_clean_linker_0, # of connection points: 2
#     Edge 31, Type (0, 1), BuildingBlock: ZUJKAS_clean_linker_0, # of connection points: 2
#     Edge 32, Type (0, 1), BuildingBlock: ZUJKAS_clean_linker_0, # of connection points: 2
#     Edge 33, Type (0, 1), BuildingBlock: ZUJKAS_clean_linker_0, # of connection points: 2
#     Edge 34, Type (0, 1), BuildingBlock: ZUJKAS_clean_linker_0, # of connection points: 2
#     Edge 35, Type (0, 1), BuildingBlock: ZUJKAS_clean_linker_0, # of connection points: 2
# Relax obj value: 0.169
# Max RMSD: 0.302
# Mean RMSD: 0.168
data_MOF--net-pyr--node1-BETFEN_clean_sbu_0--node2-CUQRIR_clean_linker_1--edge1-ZUJKAS_clean_linker_0
_symmetry_space_group_name_H-M    P1
_symmetry_Int_Tables_number       1
_symmetry_cell_setting            triclinic
loop_
_symmetry_equiv_pos_as_xyz
'x, y, z'
_cell_length_a     45.287691
_cell_length_b     49.240172
_cell_length_c     46.096985
_cell_angle_alpha  89.320028
_cell_angle_beta   100.87634
_cell_angle_gamma 110.73432
loop_
_atom_site_label
_atom_site_type_symbol
_atom_site_fract_x
_atom_site_fract_y
_atom_site_fract_z
_atom_type_partial_charge
C0 C 0.36824 0.36885 0.28132 0.0
N1 N 0.37604 0.34495 0.28725 0.0
N2 N 0.37612 0.37939 0.25542 0.0
C3 C 0.34876 0.37954 0.29835 0.0
C4 C 0.3887 0.36084 0.24572 0.0
N5 N 0.38845 0.3398 0.26493 0.0
C6 C 0.40108 0.36339 0.21738 0.0
H7 H 0.32838 0.38269 0.28294 0.0
H8 H 0.36426 0.40099 0.30967 0.0
H9 H 0.33911 0.36441 0.31513 0.0
H10 H 0.40971 0.38642 0.21144 0.0
H11 H 0.3813 0.35056 0.19923 0.0
H12 H 0.42093 0.3548 0.21945 0.0
C13 C 0.31464 0.8783 0.67692 0.0
N14 N 0.31273 0.89796 0.69618 0.0
N15 N 0.33865 0.8686 0.68839 0.0
C16 C 0.29476 0.87024 0.64612 0.0
C17 C 0.35128 0.88303 0.71525 0.0
N18 N 0.33584 0.90114 0.71983 0.0
C19 C 0.37714 0.87783 0.73787 0.0
H20 H 0.27182 0.85224 0.64708 0.0
H21 H 0.30752 0.86283 0.6314 0.0
H22 H 0.28894 0.88897 0.6366 0.0
H23 H 0.40087 0.89413 0.73594 0.0
H24 H 0.37765 0.85577 0.73427 0.0
H25 H 0.37332 0.88027 0.76063 0.0
C26 C 0.59861 0.3362 0.83547 0.0
N27 N 0.61877 0.33277 0.85995 0.0
N28 N 0.61298 0.3612 0.82264 0.0
C29 C 0.564 0.31667 0.82575 0.0
C30 C 0.64261 0.37267 0.84013 0.0
N31 N 0.64594 0.35577 0.86295 0.0
C32 C 0.66941 0.39913 0.83358 0.0
H33 H 0.56253 0.29986 0.80917 0.0
H34 H 0.54912 0.32921 0.81536 0.0
H35 H 0.55401 0.30557 0.84473 0.0
H36 H 0.66925 0.41865 0.84522 0.0
H37 H 0.66639 0.40235 0.80949 0.0
H38 H 0.69316 0.39702 0.84154 0.0
C39 C 0.84568 0.66224 0.32998 0.0
N40 N 0.87216 0.68391 0.3236 0.0
N41 N 0.83277 0.67154 0.35063 0.0
C42 C 0.8333 0.63161 0.31673 0.0
C43 C 0.85217 0.69983 0.35636 0.0
N44 N 0.87608 0.7076 0.34041 0.0
C45 C 0.84773 0.72019 0.37795 0.0
H46 H 0.81092 0.61791 0.32387 0.0
H47 H 0.85195 0.62178 0.32349 0.0
H48 H 0.82882 0.63185 0.29223 0.0
H49 H 0.86329 0.72053 0.39975 0.0
H50 H 0.82236 0.71304 0.38077 0.0
H51 H 0.85477 0.74268 0.37051 0.0
C52 C 0.65928 0.75502 0.7922 0.0
N53 N 0.68081 0.74792 0.78019 0.0
N54 N 0.64879 0.7739 0.77562 0.0
C55 C 0.64942 0.74466 0.82096 0.0
C56 C 0.66451 0.77772 0.75274 0.0
N57 N 0.68376 0.76177 0.7554 0.0
C58 C 0.66573 0.80088 0.73087 0.0
H59 H 0.62452 0.74374 0.82067 0.0
H60 H 0.66574 0.76015 0.83941 0.0
H61 H 0.6509 0.72288 0.82504 0.0
H62 H 0.69059 0.81717 0.73427 0.0
H63 H 0.64884 0.8121 0.73292 0.0
H64 H 0.65974 0.79094 0.70805 0.0
C65 C 0.75545 0.21912 0.44204 0.0
N66 N 0.76011 0.20252 0.42133 0.0
N67 N 0.73407 0.23155 0.42979 0.0
C68 C 0.77302 0.22449 0.47372 0.0
C69 C 0.72569 0.22174 0.40102 0.0
N70 N 0.74186 0.20446 0.39575 0.0
C71 C 0.69906 0.22647 0.37896 0.0
H72 H 0.75936 0.20736 0.487 0.0
H73 H 0.77505 0.24596 0.48289 0.0
H74 H 0.79744 0.22355 0.47571 0.0
H75 H 0.70955 0.24579 0.36651 0.0
H76 H 0.68122 0.2304 0.39022 0.0
H77 H 0.68636 0.20738 0.36298 0.0
C78 C 0.39792 0.69168 0.24175 0.0
N79 N 0.42635 0.71339 0.25219 0.0
N80 N 0.38462 0.69688 0.21446 0.0
C81 C 0.38343 0.66509 0.25809 0.0
C82 C 0.4059 0.72256 0.20859 0.0
N83 N 0.4315 0.73254 0.23136 0.0
C84 C 0.40079 0.73899 0.18146 0.0
H85 H 0.40227 0.65659 0.26861 0.0
H86 H 0.36416 0.64765 0.24315 0.0
H87 H 0.37316 0.67118 0.27592 0.0
H88 H 0.40747 0.76239 0.18764 0.0
H89 H 0.37546 0.73052 0.1693 0.0
H90 H 0.41665 0.73717 0.16653 0.0
C91 C 0.14692 0.37831 0.75058 0.0
N92 N 0.16346 0.37608 0.7292 0.0
N93 N 0.15717 0.40607 0.76274 0.0
C94 C 0.11894 0.35373 0.7581 0.0
C95 C 0.1808 0.42068 0.74764 0.0
N96 N 0.18464 0.40278 0.72715 0.0
C97 C 0.20212 0.45202 0.75495 0.0
H98 H 0.10206 0.36206 0.76632 0.0
H99 H 0.12813 0.34159 0.77577 0.0
H100 H 0.10568 0.33848 0.73854 0.0
H101 H 0.20357 0.45852 0.77829 0.0
H102 H 0.19187 0.46594 0.74043 0.0
H103 H 0.22679 0.45588 0.75134 0.0
Pr104 Pr 0.02067 0.03373 0.54722 0.0
Pr105 Pr 0.0563 0.05309 0.50953 0.0
C106 C 0.99033 1.00748 0.59091 0.0
C107 C 0.97038 0.97961 0.60034 0.0
C108 C 0.95977 0.97938 0.62696 0.0
C109 C 0.94004 0.95346 0.63639 0.0
C110 C 0.93056 0.92716 0.61938 0.0
C111 C 0.9415 0.92744 0.59269 0.0
C112 C 0.96134 0.95354 0.58323 0.0
C113 C 0.05154 0.09522 0.56043 0.0
C114 C 0.09033 0.02863 0.5625 0.0
C115 C 0.08911 0.08112 0.46807 0.0
C116 C 0.11662 0.10615 0.46271 0.0
C117 C 0.11504 0.11735 0.43466 0.0
C118 C 0.14138 0.13993 0.42803 0.0
C119 C 0.16989 0.15183 0.4494 0.0
C120 C 0.17124 0.14083 0.47776 0.0
C121 C 0.14474 0.11816 0.4844 0.0
C122 C 0.02509 0.99197 0.49481 0.0
C123 C 0.9841 0.05624 0.4942 0.0
O124 O 0.97695 0.0185 0.56871 0.0
O125 O 0.0201 1.01108 0.59034 0.0
O126 O 0.06582 0.07837 0.55496 0.0
O127 O 0.02105 0.08076 0.55693 0.0
O128 O 0.09729 0.05268 0.54851 0.0
O129 O 0.05985 0.01243 0.55975 0.0
O130 O 0.09531 0.06046 0.48293 0.0
O131 O 0.06466 0.08626 0.4744 0.0
O132 O 1.01097 1.00859 0.50145 0.0
O133 O 0.05554 1.00649 0.49774 0.0
O134 O 0.97781 0.03418 0.511 0.0
O135 O 1.01433 0.0708 0.49309 0.0
H136 H 0.96645 0.99938 0.64033 0.0
H137 H 0.93153 0.95423 0.6567 0.0
H138 H 0.93477 0.90755 0.57916 0.0
H139 H 0.96942 0.95343 0.56257 0.0
H140 H 0.09358 0.1082 0.41763 0.0
H141 H 0.13968 0.14751 0.40584 0.0
H142 H 0.19276 0.14971 0.49475 0.0
H143 H 0.14632 0.10979 0.50626 0.0
Pr144 Pr 0.50843 0.03889 0.07393 0.0
Pr145 Pr 0.56364 0.03768 0.05051 0.0
C146 C 0.46554 0.03863 0.10745 0.0
C147 C 0.4634 0.05994 0.12811 0.0
C148 C 0.48833 0.0871 0.13463 0.0
C149 C 0.48536 0.10826 0.15257 0.0
C150 C 0.45737 0.1026 0.16426 0.0
C151 C 0.43283 0.07501 0.15832 0.0
C152 C 0.43583 0.05385 0.14029 0.0
C153 C 0.53085 0.08522 0.03802 0.0
C154 C 0.58298 0.07184 0.11369 0.0
C155 C 0.60426 0.03696 0.01501 0.0
C156 C 0.60017 0.01764 0.98943 0.0
C157 C 0.57442 0.99086 0.98436 0.0
C158 C 0.57058 0.97207 0.96039 0.0
C159 C 0.59226 0.97985 0.94094 0.0
C160 C 0.61751 1.00708 0.94559 0.0
C161 C 0.62148 0.02584 0.96977 0.0
C162 C 0.54283 0.99264 0.088 0.0
C163 C 0.48968 1.00579 1.01038 0.0
O164 O 0.4886 0.02843 0.11595 0.0
O165 O 0.46278 0.04519 0.07979 0.0
O166 O 0.54865 0.07665 0.05753 0.0
O167 O 0.50067 0.07029 0.0371 0.0
O168 O 0.59441 0.07057 0.08976 0.0
O169 O 0.55197 0.05938 0.11383 0.0
O170 O 0.58703 0.05357 1.01114 0.0
O171 O 0.60411 0.02496 0.04044 0.0
O172 O 0.52413 1.00006 0.06813 0.0
O173 O 0.57277 1.00798 0.08824 0.0
O174 O 0.4787 1.00482 0.03495 0.0
O175 O 0.52033 0.02 1.01024 0.0
H176 H 0.50982 0.09211 0.12536 0.0
H177 H 0.50484 0.12916 0.15706 0.0
H178 H 0.41086 0.07011 0.16675 0.0
H179 H 0.41633 0.03299 0.13534 0.0
H180 H 0.55745 0.98438 0.99912 0.0
H181 H 0.55071 0.95138 0.95712 0.0
H182 H 0.63469 0.0135 0.93103 0.0
H183 H 0.64132 0.04655 0.97328 0.0
Pr184 Pr 0.51009 0.5638 0.54476 0.0
Pr185 Pr 0.50097 0.50325 0.52285 0.0
C186 C 0.51843 0.62042 0.55295 0.0
C187 C 0.5032 0.63838 0.56496 0.0
C188 C 0.4787 0.62622 0.58104 0.0
C189 C 0.46369 0.64354 0.59139 0.0
C190 C 0.4729 0.67327 0.58573 0.0
C191 C 0.4975 0.68521 0.56957 0.0
C192 C 0.51249 0.66791 0.5593 0.0
C193 C 0.53171 0.53097 0.58752 0.0
C194 C 0.4458 0.512 0.55966 0.0
C195 C 0.49522 0.44714 0.5163 0.0
C196 C 0.51604 0.43115 0.51147 0.0
C197 C 0.50235 0.40353 0.49673 0.0
C198 C 0.52182 0.38793 0.49239 0.0
C199 C 0.55535 0.39968 0.50284 0.0
C200 C 0.56898 0.42748 0.51753 0.0
C201 C 0.54952 0.44313 0.52169 0.0
C202 C 0.47987 0.53624 0.4795 0.0
C203 C 0.56504 0.55448 0.50824 0.0
O204 O 0.50203 0.60463 0.52868 0.0
O205 O 0.53267 0.60676 0.57187 0.0
O206 O 0.53689 0.53268 0.56143 0.0
O207 O 0.51546 0.54694 0.59237 0.0
O208 O 0.45832 0.49409 0.5498 0.0
O209 O 0.45886 0.54042 0.55708 0.0
O210 O 0.50261 0.46131 0.54203 0.0
O211 O 0.48684 0.46162 0.49432 0.0
O212 O 0.47485 0.53484 0.50565 0.0
O213 O 0.49406 0.51851 0.47453 0.0
O214 O 0.5516 0.57244 0.51638 0.0
O215 O 0.55288 0.52641 0.51261 0.0
H216 H 0.47113 0.60335 0.58545 0.0
H217 H 0.44507 0.63371 0.604 0.0
H218 H 0.50482 0.70786 0.56437 0.0
H219 H 0.53114 0.67754 0.54665 0.0
H220 H 0.47656 0.39394 0.48872 0.0
H221 H 0.51056 0.36647 0.48124 0.0
H222 H 0.59475 0.43728 0.52549 0.0
H223 H 0.56061 0.46456 0.53295 0.0
Pr224 Pr 1.00031 0.56172 0.01888 0.0
Pr225 Pr 0.02008 0.52421 0.06479 0.0
C226 C 0.97277 0.58972 0.97819 0.0
C227 C 0.94902 0.60367 0.96837 0.0
C228 C 0.95909 0.63038 0.95526 0.0
C229 C 0.93659 0.64211 0.94131 0.0
C230 C 0.90353 0.6273 0.94015 0.0
C231 C 0.89356 0.60123 0.95464 0.0
C232 C 0.91614 0.58944 0.96858 0.0
C233 C 0.06528 0.58325 0.04582 0.0
C234 C 0.98626 0.56797 0.08861 0.0
C235 C 0.05205 0.49769 0.10322 0.0
C236 C 0.08334 0.49392 0.10863 0.0
C237 C 0.08636 0.46947 0.12278 0.0
C238 C 0.11628 0.46628 0.12955 0.0
C239 C 0.14374 0.48762 0.12243 0.0
C240 C 0.14055 0.51194 0.10783 0.0
C241 C 0.1105 0.51496 0.10077 0.0
C242 C 0.95507 0.50049 0.03841 0.0
C243 C 0.03638 0.52016 0.99558 0.0
O244 O 0.9623 0.56141 0.97947 0.0
O245 O 0.99823 0.6034 0.9984 0.0
O246 O 0.04206 0.57244 0.05872 0.0
O247 O 0.0555 0.58425 0.01764 0.0
O248 O 1.00374 0.55147 0.09676 0.0
O249 O 0.97918 0.57283 0.06002 0.0
O250 O 0.05283 0.52405 0.10807 0.0
O251 O 0.03132 0.48416 0.07949 0.0
O252 O 0.9776 0.51277 0.02479 0.0
O253 O 0.96605 0.49884 0.06625 0.0
O254 O 1.01717 0.53496 0.987 0.0
O255 O 0.04385 0.51601 0.02427 0.0
H256 H 0.98432 0.64165 0.95478 0.0
H257 H 0.94504 0.66248 0.93081 0.0
H258 H 0.86823 0.58929 0.95402 0.0
H259 H 0.90778 0.56872 0.97849 0.0
H260 H 0.06565 0.45306 0.12901 0.0
H261 H 0.11809 0.44747 0.1411 0.0
H262 H 0.16125 0.52856 0.10185 0.0
H263 H 0.10853 0.53384 0.08949 0.0
H264 H 0.39592 0.3526 0.34637 0.0
H265 H 0.37215 0.31976 0.38333 0.0
H266 H 0.30561 0.25962 0.31275 0.0
H267 H 0.32995 0.29214 0.27624 0.0
H268 H 0.31245 0.3052 0.39135 0.0
H269 H 0.33169 0.20419 0.36654 0.0
H270 H 0.35302 0.23846 0.35243 0.0
H271 H 0.3132 0.21607 0.33348 0.0
C272 C 0.37674 0.33197 0.33907 0.0
C273 C 0.36478 0.3245 0.30878 0.0
C274 C 0.36317 0.31331 0.36001 0.0
C275 C 0.33745 0.28695 0.35084 0.0
C276 C 0.32605 0.27934 0.32043 0.0
H277 H 0.17054 0.19858 0.41668 0.0
H278 H 0.21579 0.23281 0.39829 0.0
C279 C 0.33975 0.29789 0.29958 0.0
C280 C 0.32009 0.26887 0.37264 0.0
H281 H 0.28585 0.19841 0.38961 0.0
C282 C 0.30721 0.28193 0.39142 0.0
C283 C 0.31374 0.23861 0.37327 0.0
C284 C 0.32899 0.22362 0.35556 0.0
C285 C 0.28633 0.26525 0.40921 0.0
C286 C 0.27747 0.23465 0.4076 0.0
C287 C 0.29219 0.22183 0.39048 0.0
C288 C 0.2509 0.21537 0.42115 0.0
C289 C 0.2735 0.28059 0.42909 0.0
C290 C 0.25541 0.19385 0.43983 0.0
C291 C 0.22934 0.17383 0.44999 0.0
C292 C 0.19826 0.17488 0.44145 0.0
C293 C 0.19408 0.19699 0.42343 0.0
C294 C 0.22006 0.21686 0.41323 0.0
H295 H 0.29084 0.30297 0.43608 0.0
H296 H 0.25084 0.28248 0.41676 0.0
H297 H 0.2684 0.26851 0.44916 0.0
H298 H 0.27896 0.19215 0.446 0.0
H299 H 0.23329 0.15685 0.46356 0.0
H300 H 0.3908 0.94423 0.74327 0.0
H301 H 0.40655 0.96452 0.79451 0.0
H302 H 0.31048 0.91692 0.80837 0.0
H303 H 0.29509 0.89616 0.75697 0.0
H304 H 0.38563 0.99561 0.83086 0.0
H305 H 0.36635 0.88334 0.8672 0.0
H306 H 0.3659 0.89202 0.82904 0.0
H307 H 0.33195 0.88903 0.84537 0.0
C308 C 0.37293 0.93887 0.75712 0.0
C309 C 0.34192 0.91864 0.74655 0.0
C310 C 0.38187 0.95033 0.78633 0.0
C311 C 0.35991 0.94169 0.80547 0.0
C312 C 0.32799 0.9234 0.79414 0.0
H313 H 0.42363 0.97894 0.99951 0.0
H314 H 0.38743 0.96299 0.95101 0.0
C315 C 0.31907 0.91188 0.7648 0.0
C316 C 0.37174 0.94979 0.83761 0.0
H317 H 0.39036 0.92153 0.90376 0.0
C318 C 0.38616 0.9794 0.84689 0.0
C319 C 0.3726 0.92859 0.85851 0.0
C320 C 0.35862 0.89646 0.84965 0.0
C321 C 0.40238 0.98837 0.8762 0.0
C322 C 0.40441 0.96721 0.89669 0.0
C323 C 0.38863 0.93764 0.88792 0.0
C324 C 0.42578 0.97545 0.92623 0.0
C325 C 0.41817 0.02046 0.88489 0.0
C326 C 0.45922 0.98681 0.92827 0.0
C327 C 0.47985 0.99561 0.95575 0.0
C328 C 0.46748 0.99333 0.98185 0.0
C329 C 0.43392 0.98102 0.97985 0.0
C330 C 0.41321 0.97201 0.9522 0.0
H331 H 0.40802 0.03363 0.86912 0.0
H332 H 0.4153 0.02518 0.90748 0.0
H333 H 0.44433 0.02737 0.88499 0.0
H334 H 0.46937 0.98916 0.90849 0.0
H335 H 0.50554 1.00478 0.95638 0.0
H336 H 0.61564 0.41673 0.82108 0.0
H337 H 0.59868 0.44108 0.77842 0.0
H338 H 0.55996 0.3597 0.72598 0.0
H339 H 0.58018 0.3359 0.7683 0.0
H340 H 0.58735 0.39893 0.69362 0.0
H341 H 0.51414 0.44425 0.7461 0.0
H342 H 0.55433 0.4571 0.76732 0.0
H343 H 0.53063 0.41866 0.76411 0.0
C344 C 0.60378 0.40409 0.80038 0.0
C345 C 0.5995 0.37447 0.79798 0.0
C346 C 0.59345 0.41792 0.77606 0.0
C347 C 0.57716 0.40223 0.74894 0.0
C348 C 0.57225 0.37238 0.74662 0.0
H349 H 0.48986 0.49667 0.61927 0.0
H350 H 0.49834 0.46166 0.65476 0.0
C351 C 0.58346 0.35866 0.77087 0.0
C352 C 0.56666 0.41745 0.72293 0.0
H353 H 0.53271 0.46852 0.70361 0.0
C354 C 0.5749 0.41379 0.69568 0.0
C355 C 0.54966 0.43637 0.72506 0.0
C356 C 0.53638 0.43901 0.75215 0.0
C357 C 0.5677 0.4292 0.67105 0.0
C358 C 0.55333 0.4501 0.67407 0.0
C359 C 0.54421 0.453 0.70107 0.0
C360 C 0.54729 0.46921 0.64986 0.0
C361 C 0.57501 0.42226 0.642 0.0
C362 C 0.57156 0.48496 0.63449 0.0
C363 C 0.56615 0.5042 0.61322 0.0
C364 C 0.53694 0.50905 0.60792 0.0
C365 C 0.51273 0.49346 0.62318 0.0
C366 C 0.51764 0.47347 0.64354 0.0
H367 H 0.57401 0.39944 0.64042 0.0
H368 H 0.55785 0.42543 0.62284 0.0
H369 H 0.5998 0.43663 0.64051 0.0
H370 H 0.59506 0.4831 0.63947 0.0
H371 H 0.58525 0.5162 0.60186 0.0
H372 H 0.86804 0.69915 0.26615 0.0
H373 H 0.88821 0.6816 0.2268 0.0
H374 H 0.93669 0.6398 0.29152 0.0
H375 H 0.91594 0.65692 0.33042 0.0
H376 H 0.94383 0.68593 0.21118 0.0
H377 H 0.88864 0.57099 0.23564 0.0
H378 H 0.88077 0.5997 0.25288 0.0
H379 H 0.91691 0.59231 0.26695 0.0
C380 C 0.88385 0.687 0.27215 0.0
C381 C 0.89098 0.68036 0.30198 0.0
C382 C 0.89519 0.67651 0.24939 0.0
C383 C 0.91368 0.65837 0.25529 0.0
C384 C 0.92188 0.65284 0.2854 0.0
H385 H 0.99585 0.56239 0.14951 0.0
H386 H 0.97889 0.58431 0.18775 0.0
C387 C 0.91053 0.66329 0.30807 0.0
C388 C 0.92377 0.64502 0.23027 0.0
H389 H 0.92405 0.58053 0.20172 0.0
C390 C 0.93922 0.66281 0.20921 0.0
C391 C 0.91815 0.61471 0.22673 0.0
C392 C 0.89993 0.59325 0.24653 0.0
C393 C 0.94973 0.65172 0.18607 0.0
C394 C 0.94431 0.62144 0.18268 0.0
C395 C 0.9287 0.60366 0.20366 0.0
C396 C 0.95486 0.60783 0.15816 0.0
C397 C 0.9677 0.67308 0.16607 0.0
C398 C 0.94711 0.6127 0.12775 0.0
C399 C 0.95697 0.59996 0.10545 0.0
C400 C 0.97492 0.58151 0.11236 0.0
C401 C 0.98224 0.57635 0.14271 0.0
C402 C 0.97237 0.58903 0.16494 0.0
H403 H 0.97864 0.69547 0.17667 0.0
H404 H 0.98707 0.66681 0.15994 0.0
H405 H 0.95062 0.67356 0.14553 0.0
H406 H 0.93294 0.62617 0.12096 0.0
H407 H 0.95039 0.60463 0.08264 0.0
H408 H 0.36416 0.3016 0.21753 0.0
H409 H 0.37735 0.25863 0.20917 0.0
H410 H 0.44064 0.27602 0.29488 0.0
H411 H 0.42817 0.31987 0.30268 0.0
H412 H 0.4688 0.26442 0.25172 0.0
H413 H 0.34808 0.18007 0.24412 0.0
H414 H 0.34687 0.20818 0.21935 0.0
H415 H 0.35794 0.21677 0.25871 0.0
C416 C 0.38114 0.29636 0.23437 0.0
C417 C 0.39573 0.31417 0.26045 0.0
C418 C 0.38822 0.27157 0.22986 0.0
C419 C 0.4096 0.26386 0.2516 0.0
C420 C 0.42394 0.28149 0.2779 0.0
H421 H 0.43304 0.09846 0.21503 0.0
H422 H 0.42397 0.13693 0.24133 0.0
C423 C 0.41688 0.30641 0.28236 0.0
C424 C 0.41831 0.23841 0.24579 0.0
H425 H 0.3854 0.1669 0.22125 0.0
C426 C 0.45065 0.24296 0.24556 0.0
C427 C 0.39476 0.21027 0.23838 0.0
C428 C 0.36004 0.20345 0.24047 0.0
C429 C 0.45975 0.22058 0.23626 0.0
C430 C 0.43576 0.19315 0.22631 0.0
C431 C 0.40373 0.18807 0.22841 0.0
C432 C 0.44292 0.1702 0.21167 0.0
C433 C 0.49494 0.22668 0.2368 0.0
C434 C 0.45627 0.17607 0.18615 0.0
C435 C 0.46148 0.15425 0.17118 0.0
C436 C 0.45309 0.12594 0.1812 0.0
C437 C 0.43962 0.12003 0.20673 0.0
C438 C 0.43455 0.14198 0.22182 0.0
H439 H 0.51054 0.24407 0.25397 0.0
H440 H 0.50106 0.20688 0.24114 0.0
H441 H 0.50055 0.23433 0.21505 0.0
H442 H 0.46196 0.19742 0.17735 0.0
H443 H 0.47122 0.15934 0.15122 0.0
H444 H 0.33122 0.95619 0.69492 0.0
H445 H 0.2962 0.98413 0.67793 0.0
H446 H 0.21294 0.9049 0.66697 0.0
H447 H 0.24802 0.87718 0.68386 0.0
H448 H 0.25341 0.9714 0.61978 0.0
H449 H 0.18775 0.96441 0.71147 0.0
H450 H 0.22601 0.9594 0.71643 0.0
H451 H 0.18965 0.93057 0.69943 0.0
C452 C 0.30536 0.94504 0.68956 0.0
C453 C 0.29209 0.91471 0.6907 0.0
C454 C 0.28545 0.96088 0.67974 0.0
C455 C 0.25196 0.9466 0.6714 0.0
C456 C 0.23865 0.9164 0.67369 0.0
H457 H 0.08223 0.97664 0.58726 0.0
H458 H 0.12351 0.95974 0.61441 0.0
C459 C 0.25858 0.90059 0.68322 0.0
C460 C 0.23108 0.96262 0.65783 0.0
H461 H 0.16613 0.97967 0.66574 0.0
C462 C 0.23459 0.97362 0.62995 0.0
C463 C 0.20648 0.96527 0.67111 0.0
C464 C 0.20229 0.95452 0.70138 0.0
C465 C 0.2132 0.98607 0.61437 0.0
C466 C 0.18815 0.98827 0.62741 0.0
C467 C 0.1853 0.97801 0.65572 0.0
C468 C 0.16338 0.99937 0.61135 0.0
C469 C 0.21672 0.99538 0.5835 0.0
C470 C 0.17193 0.02748 0.60079 0.0
C471 C 0.14828 0.03714 0.58489 0.0
C472 C 0.11564 0.019 0.57964 0.0
C473 C 0.10714 0.99117 0.59084 0.0
C474 C 0.13074 0.98147 0.60646 0.0
H475 H 0.23177 0.9856 0.57406 0.0
H476 H 0.19285 0.98919 0.56842 0.0
H477 H 0.22856 0.01938 0.58419 0.0
H478 H 0.19686 0.04197 0.60487 0.0
H479 H 0.15556 0.05879 0.57679 0.0
H480 H 0.68419 0.32469 0.88101 0.0
H481 H 0.73514 0.34157 0.91774 0.0
H482 H 0.72022 0.42145 0.93413 0.0
H483 H 0.66911 0.40393 0.89881 0.0
H484 H 0.78682 0.3862 0.91398 0.0
H485 H 0.75021 0.40554 0.0167 0.0
H486 H 0.72135 0.3848 0.985 0.0
H487 H 0.73429 0.42398 0.98768 0.0
C488 C 0.69155 0.3454 0.89328 0.0
C489 C 0.67305 0.36314 0.88728 0.0
C490 C 0.72062 0.35513 0.91405 0.0
C491 C 0.73142 0.38268 0.92907 0.0
C492 C 0.71217 0.39984 0.9236 0.0
H493 H 0.92573 0.50277 0.98149 0.0
H494 H 0.87163 0.47205 0.95623 0.0
C495 C 0.68315 0.39001 0.9032 0.0
C496 C 0.76415 0.39513 0.94796 0.0
H497 H 0.80496 0.43527 1.01251 0.0
C498 C 0.79076 0.39644 0.93578 0.0
C499 C 0.76949 0.40808 0.97666 0.0
C500 C 0.74223 0.40521 0.99234 0.0
C501 C 0.82243 0.41165 0.95076 0.0
C502 C 0.82764 0.42692 0.97822 0.0
C503 C 0.80109 0.42422 0.99115 0.0
C504 C 0.86028 0.44612 0.99372 0.0
C505 C 0.84987 0.41106 0.93692 0.0
C506 C 0.87141 0.44289 0.02366 0.0
C507 C 0.90193 0.46105 0.03836 0.0
C508 C 0.92209 0.4826 0.02332 0.0
C509 C 0.9108 0.48618 0.99353 0.0
C510 C 0.88002 0.46837 0.97899 0.0
H511 H 0.84268 0.39098 0.92245 0.0
H512 H 0.85678 0.42988 0.9229 0.0
H513 H 0.87126 0.41227 0.95398 0.0
H514 H 0.8566 0.4261 0.03562 0.0
H515 H 0.90998 0.45779 0.06135 0.0
H516 H 0.83527 0.66513 0.40945 0.0
H517 H 0.79032 0.64441 0.43516 0.0
H518 H 0.72411 0.62109 0.3512 0.0
H519 H 0.76935 0.64315 0.32554 0.0
H520 H 0.69812 0.64202 0.3871 0.0
H521 H 0.74152 0.56359 0.4511 0.0
H522 H 0.7704 0.59982 0.45888 0.0
H523 H 0.76061 0.5828 0.42216 0.0
C524 C 0.81117 0.65523 0.39643 0.0
C525 C 0.80617 0.65554 0.36531 0.0
C526 C 0.78526 0.64309 0.41122 0.0
C527 C 0.75325 0.63033 0.39548 0.0
C528 C 0.74827 0.63044 0.36425 0.0
H529 H 0.59487 0.52354 0.48244 0.0
H530 H 0.63862 0.54154 0.45493 0.0
C531 C 0.77427 0.64281 0.34943 0.0
C532 C 0.72517 0.6181 0.41157 0.0
H533 H 0.69892 0.57372 0.46681 0.0
C534 C 0.69839 0.62696 0.4044 0.0
C535 C 0.7245 0.59792 0.43404 0.0
C536 C 0.75063 0.58523 0.44178 0.0
C537 C 0.67193 0.61698 0.41913 0.0
C538 C 0.67204 0.59796 0.44263 0.0
C539 C 0.69849 0.58858 0.44932 0.0
C540 C 0.64491 0.58702 0.46 0.0
C541 C 0.64365 0.62645 0.40857 0.0
C542 C 0.63343 0.60619 0.47298 0.0
C543 C 0.60798 0.5958 0.48868 0.0
C544 C 0.59329 0.56584 0.49252 0.0
C545 C 0.6053 0.54674 0.48018 0.0
C546 C 0.63057 0.55712 0.4643 0.0
H547 H 0.64235 0.63255 0.38521 0.0
H548 H 0.62055 0.60901 0.41033 0.0
H549 H 0.64647 0.64588 0.42231 0.0
H550 H 0.64431 0.62941 0.47119 0.0
H551 H 0.59982 0.6114 0.49784 0.0
H552 H 0.33481 0.3661 0.20329 0.0
H553 H 0.30736 0.39652 0.17709 0.0
H554 H 0.36084 0.46678 0.24311 0.0
H555 H 0.38818 0.43582 0.26956 0.0
H556 H 0.29793 0.45535 0.23529 0.0
H557 H 0.32965 0.46355 0.125 0.0
H558 H 0.31555 0.42629 0.1342 0.0
H559 H 0.35197 0.45179 0.15611 0.0
C560 C 0.34148 0.38838 0.21154 0.0
C561 C 0.36384 0.39891 0.23807 0.0
C562 C 0.32588 0.40581 0.19657 0.0
C563 C 0.33254 0.43422 0.20773 0.0
C564 C 0.35563 0.44507 0.23389 0.0
H565 H 0.20063 0.52921 0.14931 0.0
H566 H 0.25186 0.52258 0.16866 0.0
C567 C 0.37118 0.4275 0.24896 0.0
C568 C 0.31217 0.45069 0.19415 0.0
H569 H 0.27773 0.46739 0.1272 0.0
C570 C 0.29418 0.45878 0.21181 0.0
C571 C 0.30731 0.45523 0.16351 0.0
C572 C 0.32745 0.44902 0.14373 0.0
C573 C 0.26978 0.46915 0.19927 0.0
C574 C 0.26338 0.47162 0.16834 0.0
C575 C 0.28263 0.46527 0.15091 0.0
C576 C 0.23436 0.47721 0.15354 0.0
C577 C 0.24955 0.47557 0.21886 0.0
C578 C 0.20806 0.45412 0.13795 0.0
C579 C 0.17892 0.45781 0.12696 0.0
C580 C 0.17566 0.48473 0.13122 0.0
C581 C 0.20255 0.50827 0.1456 0.0
C582 C 0.23171 0.5045 0.15676 0.0
H583 H 0.25583 0.47003 0.24208 0.0
H584 H 0.25312 0.49906 0.21884 0.0
H585 H 0.22361 0.46315 0.21017 0.0
H586 H 0.20972 0.43291 0.13526 0.0
H587 H 0.15872 0.43942 0.11564 0.0
H588 H 0.6243 0.33587 0.91951 0.0
H589 H 0.61373 0.29506 0.95208 0.0
H590 H 0.58658 0.23479 0.87615 0.0
H591 H 0.59845 0.27567 0.84389 0.0
H592 H 0.5587 0.25063 0.95386 0.0
H593 H 0.64842 0.20583 0.93044 0.0
H594 H 0.64867 0.24117 0.91935 0.0
H595 H 0.62185 0.20881 0.8974 0.0
C596 C 0.61658 0.3139 0.90995 0.0
C597 C 0.6124 0.30886 0.87925 0.0
C598 C 0.61035 0.29059 0.9285 0.0
C599 C 0.59988 0.26176 0.91672 0.0
C600 C 0.59539 0.25676 0.88595 0.0
H601 H 0.49489 0.10525 0.9952 0.0
H602 H 0.5129 0.14843 0.96711 0.0
C603 C 0.60177 0.28007 0.86747 0.0
C604 C 0.59233 0.23687 0.93637 0.0
H605 H 0.60773 0.17501 0.9549 0.0
C606 C 0.56964 0.23424 0.95423 0.0
C607 C 0.60693 0.21564 0.93736 0.0
C608 C 0.63307 0.21812 0.92035 0.0
C609 C 0.56042 0.21062 0.97224 0.0
C610 C 0.57369 0.18853 0.97196 0.0
C611 C 0.59718 0.19165 0.95487 0.0
C612 C 0.56302 0.16183 0.98879 0.0
C613 C 0.53676 0.20975 0.99162 0.0
C614 C 0.58531 0.15418 1.00966 0.0
C615 C 0.57506 0.12919 0.0256 0.0
C616 C 0.54232 0.11135 0.02091 0.0
C617 C 0.52021 0.11872 0.9996 0.0
C618 C 0.53047 0.14356 0.98363 0.0
H619 H 0.53681 0.23185 0.99635 0.0
H620 H 0.51212 0.19624 0.98002 0.0
H621 H 0.54223 0.20015 0.01296 0.0
H622 H 0.6106 0.16775 0.01387 0.0
H623 H 0.59268 0.12397 0.04174 0.0
H624 H 0.87944 0.75689 0.31219 0.0
H625 H 0.90665 0.80625 0.33569 0.0
H626 H 0.95534 0.77246 0.40837 0.0
H627 H 0.92807 0.72328 0.38467 0.0
H628 H 0.92448 0.80511 0.42859 0.0
H629 H 0.99581 0.86919 0.34945 0.0
H630 H 0.95433 0.84942 0.33333 0.0
H631 H 0.9804 0.82992 0.3473 0.0
C632 C 0.89757 0.76024 0.33218 0.0
C633 C 0.90227 0.73586 0.34581 0.0
C634 C 0.91281 0.78862 0.34607 0.0
C635 C 0.93334 0.79371 0.37421 0.0
C636 C 0.93978 0.76967 0.38682 0.0
H637 H 0.05483 0.96033 0.47141 0.0
H638 H 0.03161 0.91366 0.44283 0.0
C639 C 0.92475 0.74142 0.37281 0.0
C640 C 0.94589 0.82315 0.39152 0.0
H641 H 0.99018 0.8959 0.38927 0.0
C642 C 0.93883 0.8249 0.41984 0.0
C643 C 0.96487 0.84942 0.38069 0.0
C644 C 0.97461 0.84952 0.35116 0.0
C645 C 0.9498 0.85157 0.43718 0.0
C646 C 0.96843 0.87791 0.42619 0.0
C647 C 0.97571 0.87613 0.39796 0.0
C648 C 0.98211 0.90706 0.44417 0.0
C649 C 0.942 0.85112 0.46761 0.0
C650 C 0.96245 0.91987 0.45489 0.0
C651 C 0.97588 0.94712 0.47142 0.0
C652 C 1.00946 0.96247 0.47786 0.0
C653 C 0.02891 0.94949 0.46714 0.0
C654 C 1.01556 0.92256 0.45054 0.0
H655 H 0.93433 0.82879 0.47563 0.0
H656 H 0.96311 0.86541 0.4838 0.0
H657 H 0.92198 0.85929 0.46684 0.0
H658 H 0.93655 0.909 0.45014 0.0
H659 H 0.95994 0.95622 0.47901 0.0
H660 H 0.30295 0.8136 0.66692 0.0
H661 H 0.32277 0.77792 0.64829 0.0
H662 H 0.41847 0.84283 0.6617 0.0
H663 H 0.39859 0.87829 0.68014 0.0
H664 H 0.35683 0.78032 0.60066 0.0
H665 H 0.42945 0.77466 0.71036 0.0
H666 H 0.39818 0.79 0.7059 0.0
H667 H 0.43711 0.81089 0.69826 0.0
C668 C 0.32808 0.82015 0.66547 0.0
C669 C 0.34941 0.84843 0.6751 0.0
C670 C 0.33939 0.79986 0.65499 0.0
C671 C 0.37219 0.80763 0.65418 0.0
C672 C 0.39321 0.83624 0.66274 0.0
H673 H 0.50085 0.72931 0.60948 0.0
H674 H 0.47439 0.76043 0.62523 0.0
C675 C 0.38191 0.85645 0.67316 0.0
C676 C 0.38477 0.78584 0.6449 0.0
H677 H 0.43846 0.75233 0.66912 0.0
C678 C 0.37445 0.77394 0.61564 0.0
C679 C 0.4077 0.77758 0.66457 0.0
C680 C 0.41859 0.78871 0.69661 0.0
C681 C 0.38742 0.75479 0.60518 0.0
C682 C 0.41084 0.74698 0.62473 0.0
C683 C 0.4206 0.75843 0.65415 0.0
C684 C 0.42644 0.72779 0.61491 0.0
C685 C 0.37681 0.74393 0.57306 0.0
C686 C 0.40832 0.69896 0.60424 0.0
C687 C 0.42336 0.68115 0.59496 0.0
C688 C 0.45686 0.69181 0.59636 0.0
C689 C 0.47496 0.72055 0.6076 0.0
C690 C 0.4599 0.73832 0.6168 0.0
H691 H 0.36468 0.75724 0.55956 0.0
H692 H 0.39764 0.74409 0.56355 0.0
H693 H 0.35948 0.7212 0.5713 0.0
H694 H 0.38254 0.69021 0.60314 0.0
H695 H 0.40867 0.6592 0.58626 0.0
H696 H 0.67764 0.74811 0.69778 0.0
H697 H 0.72061 0.76378 0.66884 0.0
H698 H 0.79015 0.80249 0.74862 0.0
H699 H 0.74719 0.78697 0.77722 0.0
H700 H 0.75496 0.8221 0.66644 0.0
H701 H 0.83882 0.76475 0.70638 0.0
H702 H 0.79777 0.75201 0.71199 0.0
H703 H 0.82861 0.78087 0.73592 0.0
C704 C 0.70231 0.75925 0.70902 0.0
C705 C 0.70941 0.76618 0.73956 0.0
C706 C 0.72676 0.76814 0.69262 0.0
C707 C 0.75865 0.78392 0.70664 0.0
C708 C 0.7659 0.78966 0.73745 0.0
H709 H 0.93098 0.90852 0.67556 0.0
H710 H 0.88882 0.86905 0.69271 0.0
C711 C 0.74144 0.78085 0.75378 0.0
C712 C 0.78333 0.79829 0.68885 0.0
H713 H 0.86058 0.80934 0.68253 0.0
C714 C 0.77781 0.81888 0.66941 0.0
C715 C 0.81314 0.79415 0.69299 0.0
C716 C 0.81988 0.77154 0.71275 0.0
C717 C 0.80198 0.83674 0.65534 0.0
C718 C 0.83227 0.83335 0.66025 0.0
C719 C 0.83733 0.81185 0.67872 0.0
C720 C 0.85985 0.85402 0.64898 0.0
C721 C 0.79547 0.86031 0.63688 0.0
C722 C 0.85823 0.85795 0.61858 0.0
C723 C 0.88205 0.8809 0.60871 0.0
C724 C 0.90807 0.90009 0.62911 0.0
C725 C 0.91084 0.8946 0.65933 0.0
C726 C 0.88692 0.87185 0.66916 0.0
H727 H 0.77348 0.86384 0.64048 0.0
H728 H 0.81614 0.88124 0.64203 0.0
H729 H 0.79189 0.85399 0.6131 0.0
H730 H 0.83785 0.84402 0.60258 0.0
H731 H 0.87918 0.88447 0.58528 0.0
H732 H 0.72786 0.14681 0.38586 0.0
H733 H 0.7123 0.12024 0.33745 0.0
H734 H 0.72786 0.20134 0.29477 0.0
H735 H 0.74613 0.22775 0.34305 0.0
H736 H 0.66231 0.11478 0.30045 0.0
H737 H 0.76058 0.164 0.24059 0.0
H738 H 0.76607 0.17089 0.27995 0.0
H739 H 0.75022 0.19262 0.25417 0.0
C740 C 0.72928 0.1589 0.36608 0.0
C741 C 0.73799 0.18924 0.36799 0.0
C742 C 0.72009 0.14375 0.33842 0.0
C743 C 0.71905 0.1587 0.31223 0.0
C744 C 0.72927 0.1892 0.31438 0.0
H745 H 0.57009 0.09839 0.15856 0.0
H746 H 0.6053 0.11824 0.2063 0.0
C747 C 0.73922 0.20431 0.34198 0.0
C748 C 0.70304 0.14253 0.28307 0.0
H749 H 0.70639 0.14446 0.20965 0.0
C750 C 0.67238 0.12089 0.28074 0.0
C751 C 0.71615 0.14983 0.25721 0.0
C752 C 0.75023 0.17037 0.25825 0.0
C753 C 0.65382 0.10766 0.25327 0.0
C754 C 0.6655 0.11733 0.22714 0.0
C755 C 0.69694 0.13762 0.22955 0.0
C756 C 0.64511 0.10724 0.19724 0.0
C757 C 0.62191 0.08341 0.25274 0.0
C758 C 0.65649 0.09628 0.17541 0.0
C759 C 0.63674 0.08588 0.14766 0.0
C760 C 0.60517 0.08592 0.14147 0.0
C761 C 0.59419 0.09775 0.16293 0.0
C762 C 0.61419 0.10879 0.19034 0.0
H763 H 0.62223 0.07166 0.27346 0.0
H764 H 0.60271 0.09275 0.2511 0.0
H765 H 0.61567 0.06745 0.23371 0.0
H766 H 0.68035 0.09512 0.18006 0.0
H767 H 0.64572 0.07676 0.1315 0.0
H768 H 0.47483 0.69323 0.26069 0.0
H769 H 0.49073 0.67116 0.30615 0.0
H770 H 0.43776 0.70827 0.35165 0.0
H771 H 0.42129 0.72957 0.30582 0.0
H772 H 0.51872 0.68505 0.36646 0.0
H773 H 0.38751 0.62125 0.35077 0.0
H774 H 0.40497 0.64444 0.32323 0.0
H775 H 0.39827 0.65992 0.35539 0.0
C776 C 0.46822 0.69802 0.28089 0.0
C777 C 0.44717 0.71333 0.27992 0.0
C778 C 0.47685 0.68503 0.30677 0.0
C779 C 0.4646 0.68726 0.33213 0.0
C780 C 0.44689 0.70563 0.3322 0.0
H781 H 0.44971 0.57535 0.48385 0.0
H782 H 0.44759 0.61448 0.45074 0.0
C783 C 0.43808 0.71838 0.30623 0.0
C784 C 0.46691 0.6676 0.35672 0.0
H785 H 0.42107 0.61017 0.39072 0.0
C786 C 0.49736 0.66883 0.3719 0.0
C787 C 0.43903 0.64621 0.3638 0.0
C788 C 0.40558 0.64258 0.34733 0.0
C789 C 0.50069 0.64933 0.39382 0.0
C790 C 0.47282 0.62763 0.40045 0.0
C791 C 0.4424 0.62684 0.38577 0.0
C792 C 0.47465 0.60443 0.42112 0.0
C793 C 0.53406 0.6522 0.40976 0.0
C794 C 0.48989 0.58533 0.41522 0.0
C795 C 0.49102 0.56302 0.43399 0.0
C796 C 0.47683 0.55915 0.45912 0.0
C797 C 0.46105 0.57791 0.4648 0.0
C798 C 0.45986 0.60028 0.4459 0.0
H799 H 0.55164 0.67454 0.40899 0.0
H800 H 0.53434 0.64686 0.43326 0.0
H801 H 0.54219 0.6369 0.39885 0.0
H802 H 0.50073 0.5875 0.39588 0.0
H803 H 0.50331 0.54893 0.4289 0.0
H804 H 0.15018 0.38562 0.81771 0.0
H805 H 0.13056 0.40443 0.85659 0.0
H806 H 0.11798 0.47171 0.80067 0.0
H807 H 0.13754 0.45286 0.76188 0.0
H808 H 0.15259 0.45863 0.88906 0.0
H809 H 0.03021 0.4396 0.82456 0.0
H810 H 0.05665 0.42352 0.81311 0.0
H811 H 0.06211 0.46091 0.80666 0.0
C812 C 0.14307 0.40433 0.81355 0.0
C813 C 0.14551 0.41745 0.78619 0.0
C814 C 0.13187 0.41529 0.83605 0.0
C815 C 0.122 0.43956 0.83209 0.0
C816 C 0.12463 0.45275 0.80475 0.0
H817 H 0.03436 0.53173 0.93616 0.0
H818 H 0.0555 0.5131 0.89886 0.0
C819 C 0.13619 0.44202 0.78241 0.0
C820 C 0.10945 0.45113 0.8564 0.0
H821 H 0.04444 0.46605 0.87068 0.0
C822 C 0.12883 0.46007 0.88491 0.0
C823 C 0.0785 0.45357 0.85179 0.0
C824 C 0.05546 0.44369 0.8225 0.0
C825 C 0.11886 0.47176 0.908 0.0
C826 C 0.08765 0.47389 0.90357 0.0
C827 C 0.06827 0.46478 0.87498 0.0
C828 C 0.07486 0.48579 0.92763 0.0
C829 C 0.14285 0.48288 0.9366 0.0
C830 C 0.07771 0.47711 0.95719 0.0
C831 C 0.06587 0.48831 0.97904 0.0
C832 C 0.04987 0.50831 0.97237 0.0
C833 C 0.04644 0.51655 0.94273 0.0
C834 C 0.05863 0.50565 0.92103 0.0
H835 H 0.16799 0.48905 0.93319 0.0
H836 H 0.14033 0.50212 0.94664 0.0
H837 H 0.13894 0.4654 0.95244 0.0
H838 H 0.08871 0.46114 0.96353 0.0
H839 H 0.06889 0.48086 1.00122 0.0
H840 H 0.59315 0.78204 0.75303 0.0
H841 H 0.5746 0.81923 0.77073 0.0
H842 H 0.6591 0.84797 0.84056 0.0
H843 H 0.67778 0.81177 0.82233 0.0
H844 H 0.5604 0.82809 0.8244 0.0
H845 H 0.66189 0.92344 0.80351 0.0
H846 H 0.6535 0.88743 0.78782 0.0
H847 H 0.67658 0.89857 0.82485 0.0
C848 C 0.60749 0.79643 0.77213 0.0
C849 C 0.63667 0.79423 0.78653 0.0
C850 C 0.59704 0.81758 0.78216 0.0
C851 C 0.61587 0.83677 0.80655 0.0
C852 C 0.64463 0.83393 0.82125 0.0
H853 H 0.58366 0.92259 0.94509 0.0
H854 H 0.58309 0.88861 0.90683 0.0
C855 C 0.65506 0.81305 0.81116 0.0
C856 C 0.60552 0.85935 0.81766 0.0
H857 H 0.63531 0.93067 0.84234 0.0
C858 C 0.57639 0.85067 0.82776 0.0
C859 C 0.62588 0.88897 0.82124 0.0
C860 C 0.65601 0.90018 0.80844 0.0
C861 C 0.56848 0.87041 0.84365 0.0
C862 C 0.59074 0.89925 0.85025 0.0
C863 C 0.61847 0.90845 0.83786 0.0
C864 C 0.58767 0.91926 0.87233 0.0
C865 C 0.53669 0.85992 0.85371 0.0
C866 C 0.59131 0.94813 0.86602 0.0
C867 C 0.59231 0.96783 0.88814 0.0
C868 C 0.58951 0.95891 0.91688 0.0
C869 C 0.58528 0.92991 0.92299 0.0
C870 C 0.58468 0.91039 0.90103 0.0
H871 H 0.5181 0.84286 0.83777 0.0
H872 H 0.53958 0.85004 0.87534 0.0
H873 H 0.5279 0.87797 0.85624 0.0
H874 H 0.59399 0.95556 0.84412 0.0
H875 H 0.59546 0.99005 0.88284 0.0
H876 H 0.80855 0.208 0.39294 0.0
H877 H 0.84534 0.18066 0.40085 0.0
H878 H 0.79587 0.13306 0.4673 0.0
H879 H 0.75921 0.16043 0.45934 0.0
H880 H 0.88493 0.17744 0.46052 0.0
H881 H 0.80059 0.07027 0.40736 0.0
H882 H 0.79458 0.10399 0.39823 0.0
H883 H 0.78601 0.08804 0.43229 0.0
C884 C 0.80558 0.19155 0.40906 0.0
C885 C 0.78134 0.18625 0.42566 0.0
C886 C 0.8265 0.17602 0.41358 0.0
C887 C 0.8231 0.1547 0.43447 0.0
C888 C 0.79866 0.14922 0.45088 0.0
H889 H 0.92238 0.03957 0.50354 0.0
H890 H 0.88327 0.06311 0.48697 0.0
C891 C 0.77796 0.16493 0.44653 0.0
C892 C 0.84601 0.13906 0.44014 0.0
H893 H 0.85162 0.07212 0.43354 0.0
C894 C 0.8778 0.15447 0.45444 0.0
C895 C 0.83643 0.10907 0.43239 0.0
C896 C 0.80261 0.09176 0.41653 0.0
C897 C 0.90019 0.14053 0.4619 0.0
C898 C 0.89075 0.11049 0.454 0.0
C899 C 0.85891 0.09514 0.43946 0.0
C900 C 0.91332 0.09452 0.46156 0.0
C901 C 0.93338 0.15794 0.47918 0.0
C902 C 0.94276 0.10358 0.45189 0.0
C903 C 0.96528 0.09033 0.46154 0.0
C904 C 0.95859 0.0674 0.48065 0.0
C905 C 0.92831 0.05718 0.48884 0.0
C906 C 0.90592 0.07065 0.47941 0.0
H907 H 0.93382 0.17797 0.4904 0.0
H908 H 0.94205 0.14485 0.49615 0.0
H909 H 0.95046 0.16468 0.46379 0.0
H910 H 0.94865 0.12139 0.43742 0.0
H911 H 0.98826 0.09854 0.4546 0.0
H912 H 0.32789 0.68465 0.23113 0.0
H913 H 0.27414 0.66079 0.20032 0.0
H914 H 0.31759 0.65024 0.12764 0.0
H915 H 0.37138 0.67372 0.15882 0.0
H916 H 0.25326 0.68316 0.14626 0.0
H917 H 0.24687 0.56918 0.12952 0.0
H918 H 0.27349 0.59307 0.16055 0.0
H919 H 0.2831 0.59775 0.12436 0.0
C920 C 0.32575 0.67663 0.20878 0.0
C921 C 0.35339 0.68077 0.19717 0.0
C922 C 0.29523 0.66315 0.19122 0.0
C923 C 0.29196 0.6535 0.16185 0.0
C924 C 0.31963 0.65705 0.15042 0.0
H925 H 0.11919 0.60216 0.02148 0.0
H926 H 0.17559 0.61832 0.04801 0.0
C927 C 0.35019 0.67055 0.16804 0.0
C928 C 0.25965 0.64211 0.14259 0.0
H929 H 0.20327 0.58126 0.10388 0.0
C930 C 0.24237 0.66091 0.13692 0.0
C931 C 0.24566 0.6131 0.13042 0.0
C932 C 0.26302 0.59193 0.13658 0.0
C933 C 0.21127 0.6514 0.11953 0.0
C934 C 0.19717 0.62238 0.10767 0.0
C935 C 0.21447 0.60358 0.11295 0.0
C936 C 0.16357 0.61095 0.09137 0.0
C937 C 0.19335 0.6722 0.11421 0.0
C938 C 0.13854 0.60152 0.10715 0.0
C939 C 0.10659 0.59253 0.0922 0.0
C940 C 0.09919 0.59279 0.06121 0.0
C941 C 0.12432 0.60191 0.04538 0.0
C942 C 0.1564 0.61093 0.06042 0.0
H943 H 0.20869 0.69472 0.12294 0.0
H944 H 0.18418 0.67244 0.09013 0.0
H945 H 0.17221 0.66471 0.12512 0.0
H946 H 0.14379 0.60152 0.13108 0.0
H947 H 0.08768 0.58556 0.10494 0.0
H948 H 0.22656 0.37636 0.71797 0.0
H949 H 0.26924 0.39333 0.68859 0.0
H950 H 0.24033 0.46605 0.66336 0.0
H951 H 0.19724 0.44867 0.69183 0.0
H952 H 0.26788 0.40589 0.62622 0.0
H953 H 0.33771 0.50576 0.69864 0.0
H954 H 0.30668 0.47543 0.71013 0.0
H955 H 0.29598 0.50039 0.68538 0.0
C956 C 0.22894 0.3957 0.7058 0.0
C957 C 0.20836 0.4112 0.70771 0.0
C958 C 0.25363 0.40559 0.68907 0.0
C959 C 0.25891 0.43152 0.67396 0.0
C960 C 0.23769 0.44644 0.67516 0.0
H961 H 0.40692 0.53932 0.5766 0.0
H962 H 0.36203 0.51949 0.60274 0.0
C963 C 0.21286 0.43642 0.69155 0.0
C964 C 0.28641 0.44308 0.65715 0.0
H965 H 0.3555 0.50149 0.65451 0.0
C966 C 0.2871 0.42674 0.63257 0.0
C967 C 0.31169 0.47047 0.66484 0.0
C968 C 0.31332 0.48903 0.69131 0.0
C969 C 0.31145 0.43709 0.61537 0.0
C970 C 0.3371 0.4644 0.62327 0.0
C971 C 0.33633 0.48066 0.64798 0.0
C972 C 0.36471 0.47649 0.60643 0.0
C973 C 0.30845 0.41892 0.58811 0.0
C974 C 0.38229 0.45959 0.59958 0.0
C975 C 0.40783 0.47087 0.58409 0.0
C976 C 0.41745 0.49978 0.57526 0.0
C977 C 0.40037 0.51694 0.58263 0.0
C978 C 0.37453 0.50551 0.59783 0.0
H979 H 0.28303 0.40474 0.57954 0.0
H980 H 0.31757 0.43271 0.57018 0.0
H981 H 0.32256 0.40455 0.59382 0.0
H982 H 0.3767 0.43761 0.60664 0.0
H983 H 0.4205 0.45693 0.57955 0.0
H984 H 0.71928 0.76309 0.83394 0.0
H985 H 0.75644 0.7402 0.85858 0.0
H986 H 0.72954 0.67973 0.78282 0.0
H987 H 0.69146 0.7024 0.75841 0.0
H988 H 0.73176 0.65381 0.83871 0.0
H989 H 0.84274 0.74878 0.83592 0.0
H990 H 0.81362 0.75757 0.85164 0.0
H991 H 0.80416 0.74505 0.81334 0.0
C992 C 0.7209 0.74456 0.82286 0.0
C993 C 0.70217 0.73396 0.79466 0.0
C994 C 0.74242 0.7318 0.83671 0.0
C995 C 0.74591 0.70847 0.8224 0.0
C996 C 0.72716 0.69775 0.79418 0.0
H997 H 0.9038 0.64785 0.88503 0.0
H998 H 0.86465 0.6658 0.85532 0.0
C999 C 0.70555 0.7106 0.78029 0.0
C1000 C 0.76908 0.69532 0.83723 0.0
H1001 H 0.84849 0.71173 0.86786 0.0
C1002 C 0.75734 0.66632 0.84489 0.0
C1003 C 0.80243 0.71165 0.84489 0.0
C1004 C 0.81659 0.7424 0.83578 0.0
C1005 C 0.77803 0.65345 0.86088 0.0
C1006 C 0.81118 0.67026 0.86982 0.0
C1007 C 0.823 0.69899 0.86133 0.0
C1008 C 0.83419 0.6585 0.88775 0.0
C1009 C 0.76427 0.62195 0.86783 0.0
C1010 C 0.83019 0.64865 0.91598 0.0
C1011 C 0.85259 0.63837 0.93307 0.0
C1012 C 0.87958 0.63817 0.92234 0.0
C1013 C 0.88352 0.64816 0.8941 0.0
C1014 C 0.86108 0.65826 0.87702 0.0
H1015 H 0.741 0.61018 0.85265 0.0
H1016 H 0.78128 0.61066 0.86627 0.0
H1017 H 0.75979 0.62074 0.89075 0.0
H1018 H 0.81001 0.6493 0.92498 0.0
H1019 H 0.84911 0.63109 0.95485 0.0
H1020 H 0.43281 0.78204 0.25611 0.0
H1021 H 0.45731 0.83001 0.23724 0.0
H1022 H 0.50879 0.79448 0.18819 0.0
H1023 H 0.48345 0.74647 0.20653 0.0
H1024 H 0.51678 0.87109 0.23166 0.0
H1025 H 0.44754 0.81548 0.12287 0.0
H1026 H 0.44233 0.79849 0.15732 0.0
H1027 H 0.47596 0.79994 0.14111 0.0
C1028 C 0.45083 0.78499 0.24272 0.0
C1029 C 0.45652 0.7607 0.23297 0.0
C1030 C 0.46443 0.81228 0.2315 0.0
C1031 C 0.48407 0.81567 0.21045 0.0
C1032 C 0.49306 0.79227 0.20378 0.0
H1033 H 0.58186 0.97317 0.12801 0.0
H1034 H 0.5669 0.93151 0.15848 0.0
C1035 C 0.47922 0.76498 0.2148 0.0
C1036 C 0.49188 0.84223 0.19304 0.0
H1037 H 0.4812 0.86464 0.12251 0.0
C1038 C 0.50904 0.86968 0.2078 0.0
C1039 C 0.48099 0.84059 0.16193 0.0
C1040 C 0.46041 0.81211 0.14484 0.0
C1041 C 0.51638 0.89533 0.19226 0.0
C1042 C 0.50672 0.89351 0.161 0.0
C1043 C 0.48887 0.86612 0.14638 0.0
C1044 C 0.51554 0.91953 0.1429 0.0
C1045 C 0.53391 0.92418 0.20959 0.0
C1046 C 0.49176 0.92644 0.12316 0.0
C1047 C 0.50033 0.95025 0.10532 0.0
C1048 C 0.53288 0.96747 0.10673 0.0
C1049 C 0.55655 0.96045 0.12643 0.0
C1050 C 0.54801 0.93672 0.14413 0.0
H1051 H 0.53051 0.92276 0.23289 0.0
H1052 H 0.56008 0.93075 0.20995 0.0
H1053 H 0.52558 0.9414 0.19939 0.0
H1054 H 0.46653 0.9134 0.12158 0.0
H1055 H 0.48155 0.9551 0.09039 0.0
H1056 H 0.14975 0.36743 0.66881 0.0
H1057 H 0.13412 0.32113 0.63952 0.0
H1058 H 0.14877 0.27797 0.71988 0.0
H1059 H 0.16391 0.32398 0.74889 0.0
H1060 H 0.16098 0.28133 0.63036 0.0
H1061 H 0.0586 0.22628 0.68502 0.0
H1062 H 0.08059 0.26492 0.69029 0.0
H1063 H 0.09619 0.23996 0.71088 0.0
C1064 C 0.14995 0.34811 0.68017 0.0
C1065 C 0.15784 0.34955 0.71135 0.0
C1066 C 0.14086 0.32145 0.66337 0.0
C1067 C 0.1392 0.29528 0.67718 0.0
C1068 C 0.1486 0.29718 0.7083 0.0
H1069 H 0.11639 0.12795 0.58346 0.0
H1070 H 0.13884 0.17581 0.61095 0.0
C1071 C 0.15756 0.32371 0.72502 0.0
C1072 C 0.12722 0.26613 0.6594 0.0
H1073 H 0.07216 0.19623 0.65411 0.0
C1074 C 0.14152 0.26279 0.63563 0.0
C1075 C 0.10141 0.24153 0.66549 0.0
C1076 C 0.08306 0.24334 0.68908 0.0
C1077 C 0.13128 0.23603 0.61849 0.0
C1078 C 0.10612 0.21119 0.62521 0.0
C1079 C 0.09163 0.21471 0.64875 0.0
C1080 C 0.09319 0.18188 0.6075 0.0
C1081 C 0.14702 0.235 0.59268 0.0
C1082 C 0.05988 0.16828 0.59644 0.0
C1083 C 0.04704 0.14078 0.58095 0.0
C1084 C 0.06683 0.12543 0.57582 0.0
C1085 C 0.10026 0.13897 0.58662 0.0
C1086 C 0.11319 0.16665 0.60231 0.0
H1087 H 0.1588 0.2571 0.58526 0.0
H1088 H 0.16585 0.22539 0.5995 0.0
H1089 H 0.12922 0.22141 0.57365 0.0
H1090 H 0.04352 0.179 0.59978 0.0
H1091 H 0.02122 0.13137 0.57312 0.0
H1092 H 0.70591 0.22162 0.47755 0.0
H1093 H 0.67919 0.25137 0.49652 0.0
H1094 H 0.70753 0.3133 0.43073 0.0
H1095 H 0.73505 0.28409 0.41263 0.0
H1096 H 0.71261 0.34006 0.48411 0.0
H1097 H 0.59311 0.25181 0.45114 0.0
H1098 H 0.62212 0.24188 0.47686 0.0
H1099 H 0.62881 0.25064 0.44011 0.0
C1100 C 0.70694 0.24193 0.46772 0.0
C1101 C 0.72221 0.25061 0.44358 0.0
C1102 C 0.69142 0.25871 0.47826 0.0
C1103 C 0.69075 0.28423 0.46459 0.0
C1104 C 0.70753 0.29362 0.4415 0.0
H1105 H 0.55237 0.36867 0.45286 0.0
H1106 H 0.5862 0.3411 0.44559 0.0
C1107 C 0.72314 0.27696 0.43111 0.0
C1108 C 0.67133 0.30051 0.47307 0.0
H1109 H 0.5941 0.29472 0.47406 0.0
C1110 C 0.68672 0.33013 0.48212 0.0
C1111 C 0.63747 0.28762 0.46994 0.0
C1112 C 0.61927 0.25632 0.45873 0.0
C1113 C 0.66917 0.34728 0.48789 0.0
C1114 C 0.63536 0.33428 0.48512 0.0
C1115 C 0.62004 0.30459 0.47636 0.0
C1116 C 0.61517 0.35128 0.48986 0.0
C1117 C 0.68685 0.37936 0.49581 0.0
C1118 C 0.62 0.36597 0.51725 0.0
C1119 C 0.60073 0.38184 0.52143 0.0
C1120 C 0.576 0.38301 0.4984 0.0
C1121 C 0.57101 0.36799 0.47111 0.0
C1122 C 0.59039 0.3523 0.4669 0.0
H1123 H 0.71092 0.38719 0.48963 0.0
H1124 H 0.6728 0.39233 0.48467 0.0
H1125 H 0.69047 0.38345 0.52007 0.0
H1126 H 0.63844 0.36493 0.5355 0.0
H1127 H 0.60483 0.39278 0.54286 0.0
loop_
_geom_bond_atom_site_label_1
_geom_bond_atom_site_label_2
_geom_bond_distance
_geom_bond_site_symmetry_2
_ccdc_geom_bond_type
C0 N1 1.317 . S
C0 N2 1.348 . S
C0 C3 1.485 . S
N1 C0 1.317 . S
N1 N5 1.370 . S
N2 C0 1.348 . S
N2 C4 1.346 . S
C3 C0 1.485 . S
C3 H7 0.960 . S
C3 H8 0.961 . S
C3 H9 0.960 . S
C4 N2 1.346 . S
C4 N5 1.307 . S
C4 C6 1.486 . S
N5 N1 1.370 . S
N5 C4 1.307 . S
C6 C4 1.486 . S
C6 H10 0.960 . S
C6 H11 0.960 . S
C6 H12 0.959 . S
H7 C3 0.960 . S
H8 C3 0.961 . S
H9 C3 0.960 . S
H10 C6 0.960 . S
H11 C6 0.960 . S
H12 C6 0.959 . S
C13 N14 1.317 . S
C13 N15 1.348 . S
C13 C16 1.485 . S
N14 C13 1.317 . S
N14 N18 1.370 . S
N15 C13 1.348 . S
N15 C17 1.346 . S
C16 C13 1.485 . S
C16 H20 0.960 . S
C16 H21 0.961 . S
C16 H22 0.960 . S
C17 N15 1.346 . S
C17 N18 1.307 . S
C17 C19 1.486 . S
N18 N14 1.370 . S
N18 C17 1.307 . S
C19 C17 1.486 . S
C19 H23 0.960 . S
C19 H24 0.960 . S
C19 H25 0.959 . S
H20 C16 0.960 . S
H21 C16 0.961 . S
H22 C16 0.960 . S
H23 C19 0.960 . S
H24 C19 0.960 . S
H25 C19 0.959 . S
C26 N27 1.317 . S
C26 N28 1.348 . S
C26 C29 1.485 . S
N27 C26 1.317 . S
N27 N31 1.370 . S
N28 C26 1.348 . S
N28 C30 1.346 . S
C29 C26 1.485 . S
C29 H33 0.960 . S
C29 H34 0.961 . S
C29 H35 0.960 . S
C30 N28 1.346 . S
C30 N31 1.307 . S
C30 C32 1.486 . S
N31 N27 1.370 . S
N31 C30 1.307 . S
C32 C30 1.486 . S
C32 H36 0.960 . S
C32 H37 0.960 . S
C32 H38 0.959 . S
H33 C29 0.960 . S
H34 C29 0.961 . S
H35 C29 0.960 . S
H36 C32 0.960 . S
H37 C32 0.960 . S
H38 C32 0.959 . S
C39 N40 1.317 . S
C39 N41 1.348 . S
C39 C42 1.485 . S
N40 C39 1.317 . S
N40 N44 1.370 . S
N41 C39 1.348 . S
N41 C43 1.346 . S
C42 C39 1.485 . S
C42 H46 0.960 . S
C42 H47 0.961 . S
C42 H48 0.960 . S
C43 N41 1.346 . S
C43 N44 1.307 . S
C43 C45 1.486 . S
N44 N40 1.370 . S
N44 C43 1.307 . S
C45 C43 1.486 . S
C45 H49 0.960 . S
C45 H50 0.960 . S
C45 H51 0.959 . S
H46 C42 0.960 . S
H47 C42 0.961 . S
H48 C42 0.960 . S
H49 C45 0.960 . S
H50 C45 0.960 . S
H51 C45 0.959 . S
C52 N53 1.317 . S
C52 N54 1.348 . S
C52 C55 1.485 . S
N53 C52 1.317 . S
N53 N57 1.370 . S
N54 C52 1.348 . S
N54 C56 1.346 . S
C55 C52 1.485 . S
C55 H59 0.960 . S
C55 H60 0.961 . S
C55 H61 0.960 . S
C56 N54 1.346 . S
C56 N57 1.307 . S
C56 C58 1.486 . S
N57 N53 1.370 . S
N57 C56 1.307 . S
C58 C56 1.486 . S
C58 H62 0.960 . S
C58 H63 0.960 . S
C58 H64 0.959 . S
H59 C55 0.960 . S
H60 C55 0.961 . S
H61 C55 0.960 . S
H62 C58 0.960 . S
H63 C58 0.960 . S
H64 C58 0.959 . S
C65 N66 1.317 . S
C65 N67 1.348 . S
C65 C68 1.485 . S
N66 C65 1.317 . S
N66 N70 1.370 . S
N67 C65 1.348 . S
N67 C69 1.346 . S
C68 C65 1.485 . S
C68 H72 0.960 . S
C68 H73 0.961 . S
C68 H74 0.960 . S
C69 N67 1.346 . S
C69 N70 1.307 . S
C69 C71 1.486 . S
N70 N66 1.370 . S
N70 C69 1.307 . S
C71 C69 1.486 . S
C71 H75 0.960 . S
C71 H76 0.960 . S
C71 H77 0.959 . S
H72 C68 0.960 . S
H73 C68 0.961 . S
H74 C68 0.960 . S
H75 C71 0.960 . S
H76 C71 0.960 . S
H77 C71 0.959 . S
C78 N79 1.317 . S
C78 N80 1.348 . S
C78 C81 1.485 . S
N79 C78 1.317 . S
N79 N83 1.370 . S
N80 C78 1.348 . S
N80 C82 1.346 . S
C81 C78 1.485 . S
C81 H85 0.960 . S
C81 H86 0.961 . S
C81 H87 0.960 . S
C82 N80 1.346 . S
C82 N83 1.307 . S
C82 C84 1.486 . S
N83 N79 1.370 . S
N83 C82 1.307 . S
C84 C82 1.486 . S
C84 H88 0.960 . S
C84 H89 0.960 . S
C84 H90 0.959 . S
H85 C81 0.960 . S
H86 C81 0.961 . S
H87 C81 0.960 . S
H88 C84 0.960 . S
H89 C84 0.960 . S
H90 C84 0.959 . S
C91 N92 1.317 . S
C91 N93 1.348 . S
C91 C94 1.485 . S
N92 C91 1.317 . S
N92 N96 1.370 . S
N93 C91 1.348 . S
N93 C95 1.346 . S
C94 C91 1.485 . S
C94 H98 0.960 . S
C94 H99 0.961 . S
C94 H100 0.960 . S
C95 N93 1.346 . S
C95 N96 1.307 . S
C95 C97 1.486 . S
N96 N92 1.370 . S
N96 C95 1.307 . S
C97 C95 1.486 . S
C97 H101 0.960 . S
C97 H102 0.960 . S
C97 H103 0.959 . S
H98 C94 0.960 . S
H99 C94 0.961 . S
H100 C94 0.960 . S
H101 C97 0.960 . S
H102 C97 0.960 . S
H103 C97 0.959 . S
Pr104 C106 2.880 1_445 S
Pr104 O124 2.562 1_445 S
Pr104 O125 2.490 1_445 S
Pr104 O126 2.695 . S
Pr104 O127 2.512 . S
Pr104 O129 2.437 1_545 S
Pr104 O132 2.436 1_545 S
Pr104 O134 2.438 1_455 S
Pr105 C115 2.880 . S
Pr105 O126 2.436 . S
Pr105 O128 2.438 . S
Pr105 O130 2.562 . S
Pr105 O131 2.490 . S
Pr105 O132 2.695 1_545 S
Pr105 O133 2.512 1_545 S
Pr105 O135 2.437 . S
C106 Pr104 2.880 1_665 S
C106 C107 1.491 . S
C106 O124 1.254 . S
C106 O125 1.225 . S
C107 C106 1.491 . S
C107 C108 1.392 . S
C107 C112 1.356 . S
C108 C107 1.392 . S
C108 C109 1.368 . S
C108 H136 0.929 . S
C109 C108 1.368 . S
C109 C110 1.386 . S
C109 H137 0.929 . S
C110 C109 1.386 . S
C110 C111 1.373 . S
C111 C110 1.373 . S
C111 C112 1.409 . S
C111 H138 0.931 . S
C112 C107 1.356 . S
C112 C111 1.409 . S
C112 H139 0.930 . S
C113 O126 1.270 . S
C113 O127 1.248 . S
C114 O128 1.267 1_565 S
C114 O129 1.278 . S
C115 Pr105 2.880 . S
C115 C116 1.491 . S
C115 O130 1.254 . S
C115 O131 1.225 . S
C116 C115 1.491 . S
C116 C117 1.392 . S
C116 C121 1.356 . S
C117 C116 1.392 . S
C117 C118 1.368 . S
C117 H140 0.929 . S
C118 C117 1.368 . S
C118 C119 1.386 . S
C118 H141 0.929 . S
C119 C118 1.386 . S
C119 C120 1.373 . S
C120 C119 1.373 . S
C120 C121 1.409 . S
C120 H142 0.931 . S
C121 C116 1.356 . S
C121 C120 1.409 . S
C121 H143 0.930 . S
C122 O132 1.270 . S
C122 O133 1.248 . S
C123 O134 1.267 1_455 S
C123 O135 1.278 . S
O124 Pr104 2.562 1_665 S
O124 C106 1.254 . S
O125 Pr104 2.490 1_665 S
O125 C106 1.225 . S
O126 Pr104 2.695 . S
O126 Pr105 2.436 . S
O126 C113 1.270 . S
O127 Pr104 2.512 . S
O127 C113 1.248 . S
O128 Pr105 2.438 . S
O128 C114 1.267 1_545 S
O129 Pr104 2.437 1_565 S
O129 C114 1.278 . S
O130 Pr105 2.562 . S
O130 C115 1.254 . S
O131 Pr105 2.490 . S
O131 C115 1.225 . S
O132 Pr104 2.436 1_565 S
O132 Pr105 2.695 1_565 S
O132 C122 1.270 . S
O133 Pr105 2.512 1_565 S
O133 C122 1.248 . S
O134 Pr104 2.438 1_655 S
O134 C123 1.267 1_655 S
O135 Pr105 2.437 . S
O135 C123 1.278 . S
H136 C108 0.929 . S
H137 C109 0.929 . S
H138 C111 0.931 . S
H139 C112 0.930 . S
H140 C117 0.929 . S
H141 C118 0.929 . S
H142 C120 0.931 . S
H143 C121 0.930 . S
Pr144 C146 2.880 . S
Pr144 O164 2.562 . S
Pr144 O165 2.490 . S
Pr144 O166 2.695 . S
Pr144 O167 2.512 . S
Pr144 O169 2.437 . S
Pr144 O172 2.436 . S
Pr144 O174 2.438 . S
Pr145 C155 2.880 1_545 S
Pr145 O166 2.436 . S
Pr145 O168 2.438 . S
Pr145 O170 2.562 . S
Pr145 O171 2.490 1_545 S
Pr145 O172 2.695 . S
Pr145 O173 2.512 1_545 S
Pr145 O175 2.437 1_545 S
C146 Pr144 2.880 . S
C146 C147 1.491 . S
C146 O164 1.254 . S
C146 O165 1.225 . S
C147 C146 1.491 . S
C147 C148 1.392 . S
C147 C152 1.356 . S
C148 C147 1.392 . S
C148 C149 1.368 . S
C148 H176 0.929 . S
C149 C148 1.368 . S
C149 C150 1.386 . S
C149 H177 0.929 . S
C150 C149 1.386 . S
C150 C151 1.373 . S
C151 C150 1.373 . S
C151 C152 1.409 . S
C151 H178 0.931 . S
C152 C147 1.356 . S
C152 C151 1.409 . S
C152 H179 0.930 . S
C153 O166 1.270 . S
C153 O167 1.248 . S
C154 O168 1.267 . S
C154 O169 1.278 . S
C155 Pr145 2.880 1_565 S
C155 C156 1.491 . S
C155 O170 1.254 1_565 S
C155 O171 1.225 . S
C156 C155 1.491 . S
C156 C157 1.392 . S
C156 C161 1.356 1_554 S
C157 C156 1.392 . S
C157 C158 1.368 . S
C157 H180 0.929 . S
C158 C157 1.368 . S
C158 C159 1.386 1_554 S
C158 H181 0.929 . S
C159 C158 1.386 1_556 S
C159 C160 1.373 . S
C160 C159 1.373 . S
C160 C161 1.409 . S
C160 H182 0.931 . S
C161 C156 1.356 1_556 S
C161 C160 1.409 . S
C161 H183 0.930 . S
C162 O172 1.270 1_565 S
C162 O173 1.248 . S
C163 O174 1.267 1_565 S
C163 O175 1.278 . S
O164 Pr144 2.562 . S
O164 C146 1.254 . S
O165 Pr144 2.490 . S
O165 C146 1.225 . S
O166 Pr144 2.695 . S
O166 Pr145 2.436 . S
O166 C153 1.270 . S
O167 Pr144 2.512 . S
O167 C153 1.248 . S
O168 Pr145 2.438 . S
O168 C154 1.267 . S
O169 Pr144 2.437 . S
O169 C154 1.278 . S
O170 Pr145 2.562 . S
O170 C155 1.254 1_545 S
O171 Pr145 2.490 1_565 S
O171 C155 1.225 . S
O172 Pr144 2.436 . S
O172 Pr145 2.695 . S
O172 C162 1.270 1_545 S
O173 Pr145 2.512 1_565 S
O173 C162 1.248 . S
O174 Pr144 2.438 . S
O174 C163 1.267 1_545 S
O175 Pr145 2.437 1_565 S
O175 C163 1.278 . S
H176 C148 0.929 . S
H177 C149 0.929 . S
H178 C151 0.931 . S
H179 C152 0.930 . S
H180 C157 0.929 . S
H181 C158 0.929 . S
H182 C160 0.931 . S
H183 C161 0.930 . S
Pr184 C186 2.880 . S
Pr184 O204 2.562 . S
Pr184 O205 2.490 . S
Pr184 O206 2.695 . S
Pr184 O207 2.512 . S
Pr184 O209 2.437 . S
Pr184 O212 2.436 . S
Pr184 O214 2.438 . S
Pr185 C195 2.880 . S
Pr185 O206 2.436 . S
Pr185 O208 2.438 . S
Pr185 O210 2.562 . S
Pr185 O211 2.490 . S
Pr185 O212 2.695 . S
Pr185 O213 2.512 . S
Pr185 O215 2.437 . S
C186 Pr184 2.880 . S
C186 C187 1.491 . S
C186 O204 1.254 . S
C186 O205 1.225 . S
C187 C186 1.491 . S
C187 C188 1.392 . S
C187 C192 1.356 . S
C188 C187 1.392 . S
C188 C189 1.368 . S
C188 H216 0.929 . S
C189 C188 1.368 . S
C189 C190 1.386 . S
C189 H217 0.929 . S
C190 C189 1.386 . S
C190 C191 1.373 . S
C191 C190 1.373 . S
C191 C192 1.409 . S
C191 H218 0.931 . S
C192 C187 1.356 . S
C192 C191 1.409 . S
C192 H219 0.930 . S
C193 O206 1.270 . S
C193 O207 1.248 . S
C194 O208 1.267 . S
C194 O209 1.278 . S
C195 Pr185 2.880 . S
C195 C196 1.491 . S
C195 O210 1.254 . S
C195 O211 1.225 . S
C196 C195 1.491 . S
C196 C197 1.392 . S
C196 C201 1.356 . S
C197 C196 1.392 . S
C197 C198 1.368 . S
C197 H220 0.929 . S
C198 C197 1.368 . S
C198 C199 1.386 . S
C198 H221 0.929 . S
C199 C198 1.386 . S
C199 C200 1.373 . S
C200 C199 1.373 . S
C200 C201 1.409 . S
C200 H222 0.931 . S
C201 C196 1.356 . S
C201 C200 1.409 . S
C201 H223 0.930 . S
C202 O212 1.270 . S
C202 O213 1.248 . S
C203 O214 1.267 . S
C203 O215 1.278 . S
O204 Pr184 2.562 . S
O204 C186 1.254 . S
O205 Pr184 2.490 . S
O205 C186 1.225 . S
O206 Pr184 2.695 . S
O206 Pr185 2.436 . S
O206 C193 1.270 . S
O207 Pr184 2.512 . S
O207 C193 1.248 . S
O208 Pr185 2.438 . S
O208 C194 1.267 . S
O209 Pr184 2.437 . S
O209 C194 1.278 . S
O210 Pr185 2.562 . S
O210 C195 1.254 . S
O211 Pr185 2.490 . S
O211 C195 1.225 . S
O212 Pr184 2.436 . S
O212 Pr185 2.695 . S
O212 C202 1.270 . S
O213 Pr185 2.512 . S
O213 C202 1.248 . S
O214 Pr184 2.438 . S
O214 C203 1.267 . S
O215 Pr185 2.437 . S
O215 C203 1.278 . S
H216 C188 0.929 . S
H217 C189 0.929 . S
H218 C191 0.931 . S
H219 C192 0.930 . S
H220 C197 0.929 . S
H221 C198 0.929 . S
H222 C200 0.931 . S
H223 C201 0.930 . S
Pr224 C226 2.880 1_455 S
Pr224 O244 2.562 1_455 S
Pr224 O245 2.490 1_455 S
Pr224 O246 2.695 1_556 S
Pr224 O247 2.512 1_556 S
Pr224 O249 2.437 1_456 S
Pr224 O252 2.436 1_455 S
Pr224 O254 2.438 . S
Pr225 C235 2.880 . S
Pr225 O246 2.436 . S
Pr225 O248 2.438 1_455 S
Pr225 O250 2.562 . S
Pr225 O251 2.490 . S
Pr225 O252 2.695 1_454 S
Pr225 O253 2.512 1_455 S
Pr225 O255 2.437 1_554 S
C226 Pr224 2.880 1_655 S
C226 C227 1.491 . S
C226 O244 1.254 . S
C226 O245 1.225 . S
C227 C226 1.491 . S
C227 C228 1.392 . S
C227 C232 1.356 . S
C228 C227 1.392 . S
C228 C229 1.368 . S
C228 H256 0.929 . S
C229 C228 1.368 . S
C229 C230 1.386 . S
C229 H257 0.929 . S
C230 C229 1.386 . S
C230 C231 1.373 . S
C231 C230 1.373 . S
C231 C232 1.409 . S
C231 H258 0.931 . S
C232 C227 1.356 . S
C232 C231 1.409 . S
C232 H259 0.930 . S
C233 O246 1.270 . S
C233 O247 1.248 . S
C234 O248 1.267 . S
C234 O249 1.278 . S
C235 Pr225 2.880 . S
C235 C236 1.491 . S
C235 O250 1.254 . S
C235 O251 1.225 . S
C236 C235 1.491 . S
C236 C237 1.392 . S
C236 C241 1.356 . S
C237 C236 1.392 . S
C237 C238 1.368 . S
C237 H260 0.929 . S
C238 C237 1.368 . S
C238 C239 1.386 . S
C238 H261 0.929 . S
C239 C238 1.386 . S
C239 C240 1.373 . S
C240 C239 1.373 . S
C240 C241 1.409 . S
C240 H262 0.931 . S
C241 C236 1.356 . S
C241 C240 1.409 . S
C241 H263 0.930 . S
C242 O252 1.270 . S
C242 O253 1.248 1_556 S
C243 O254 1.267 . S
C243 O255 1.278 . S
O244 Pr224 2.562 1_655 S
O244 C226 1.254 . S
O245 Pr224 2.490 1_655 S
O245 C226 1.225 . S
O246 Pr224 2.695 1_554 S
O246 Pr225 2.436 . S
O246 C233 1.270 . S
O247 Pr224 2.512 1_554 S
O247 C233 1.248 . S
O248 Pr225 2.438 1_655 S
O248 C234 1.267 . S
O249 Pr224 2.437 1_654 S
O249 C234 1.278 . S
O250 Pr225 2.562 . S
O250 C235 1.254 . S
O251 Pr225 2.490 . S
O251 C235 1.225 . S
O252 Pr224 2.436 1_655 S
O252 Pr225 2.695 1_656 S
O252 C242 1.270 . S
O253 Pr225 2.512 1_655 S
O253 C242 1.248 1_554 S
O254 Pr224 2.438 . S
O254 C243 1.267 . S
O255 Pr225 2.437 1_556 S
O255 C243 1.278 . S
H256 C228 0.929 . S
H257 C229 0.929 . S
H258 C231 0.931 . S
H259 C232 0.930 . S
H260 C237 0.929 . S
H261 C238 0.929 . S
H262 C240 0.931 . S
H263 C241 0.930 . S
H264 C272 0.929 . S
H265 C274 0.930 . S
H266 C276 0.930 . S
H267 C279 0.929 . S
H268 C282 0.930 . S
H269 C284 0.960 . S
H270 C284 0.960 . S
H271 C284 0.960 . S
C272 H264 0.929 . S
C272 C273 1.377 . S
C272 C274 1.384 . S
C273 C272 1.377 . S
C273 C279 1.390 . S
C274 H265 0.930 . S
C274 C272 1.384 . S
C274 C275 1.372 . S
C275 C274 1.372 . S
C275 C276 1.400 . S
C275 C280 1.490 . S
C276 H266 0.930 . S
C276 C275 1.400 . S
C276 C279 1.386 . S
H277 C293 0.930 . S
H278 C294 0.931 . S
C279 H267 0.929 . S
C279 C273 1.390 . S
C279 C276 1.386 . S
C280 C275 1.490 . S
C280 C282 1.395 . S
C280 C283 1.403 . S
H281 C287 0.930 . S
C282 H268 0.930 . S
C282 C280 1.395 . S
C282 C285 1.403 . S
C283 C280 1.403 . S
C283 C284 1.524 . S
C283 C287 1.400 . S
C284 H269 0.960 . S
C284 H270 0.960 . S
C284 H271 0.960 . S
C284 C283 1.524 . S
C285 C282 1.403 . S
C285 C286 1.392 . S
C285 C289 1.495 . S
C286 C285 1.392 . S
C286 C287 1.385 . S
C286 C288 1.478 . S
C287 H281 0.930 . S
C287 C283 1.400 . S
C287 C286 1.385 . S
C288 C286 1.478 . S
C288 C290 1.381 . S
C288 C294 1.383 . S
C289 C285 1.495 . S
C289 H295 0.959 . S
C289 H296 0.961 . S
C289 H297 0.960 . S
C290 C288 1.381 . S
C290 C291 1.394 . S
C290 H298 0.930 . S
C291 C290 1.394 . S
C291 C292 1.383 . S
C291 H299 0.929 . S
C292 C291 1.383 . S
C292 C293 1.377 . S
C293 H277 0.930 . S
C293 C292 1.377 . S
C293 C294 1.379 . S
C294 H278 0.931 . S
C294 C288 1.383 . S
C294 C293 1.379 . S
H295 C289 0.959 . S
H296 C289 0.961 . S
H297 C289 0.960 . S
H298 C290 0.930 . S
H299 C291 0.929 . S
H300 C308 0.929 . S
H301 C310 0.930 . S
H302 C312 0.930 . S
H303 C315 0.929 . S
H304 C318 0.930 . S
H305 C320 0.960 . S
H306 C320 0.960 . S
H307 C320 0.960 . S
C308 H300 0.929 . S
C308 C309 1.377 . S
C308 C310 1.384 . S
C309 C308 1.377 . S
C309 C315 1.390 . S
C310 H301 0.930 . S
C310 C308 1.384 . S
C310 C311 1.372 . S
C311 C310 1.372 . S
C311 C312 1.400 . S
C311 C316 1.490 . S
C312 H302 0.930 . S
C312 C311 1.400 . S
C312 C315 1.386 . S
H313 C329 0.930 . S
H314 C330 0.931 . S
C315 H303 0.929 . S
C315 C309 1.390 . S
C315 C312 1.386 . S
C316 C311 1.490 . S
C316 C318 1.395 . S
C316 C319 1.403 . S
H317 C323 0.930 . S
C318 H304 0.930 . S
C318 C316 1.395 . S
C318 C321 1.403 . S
C319 C316 1.403 . S
C319 C320 1.524 . S
C319 C323 1.400 . S
C320 H305 0.960 . S
C320 H306 0.960 . S
C320 H307 0.960 . S
C320 C319 1.524 . S
C321 C318 1.403 . S
C321 C322 1.392 . S
C321 C325 1.495 . S
C322 C321 1.392 . S
C322 C323 1.385 . S
C322 C324 1.478 . S
C323 H317 0.930 . S
C323 C319 1.400 . S
C323 C322 1.385 . S
C324 C322 1.478 . S
C324 C326 1.381 . S
C324 C330 1.383 . S
C325 C321 1.495 . S
C325 H331 0.959 . S
C325 H332 0.961 . S
C325 H333 0.960 . S
C326 C324 1.381 . S
C326 C327 1.394 . S
C326 H334 0.930 . S
C327 C326 1.394 . S
C327 C328 1.383 . S
C327 H335 0.929 . S
C328 C327 1.383 . S
C328 C329 1.377 . S
C329 H313 0.930 . S
C329 C328 1.377 . S
C329 C330 1.379 . S
C330 H314 0.931 . S
C330 C324 1.383 . S
C330 C329 1.379 . S
H331 C325 0.959 . S
H332 C325 0.961 . S
H333 C325 0.960 . S
H334 C326 0.930 . S
H335 C327 0.929 . S
H336 C344 0.929 . S
H337 C346 0.930 . S
H338 C348 0.930 . S
H339 C351 0.929 . S
H340 C354 0.930 . S
H341 C356 0.960 . S
H342 C356 0.960 . S
H343 C356 0.960 . S
C344 H336 0.929 . S
C344 C345 1.377 . S
C344 C346 1.384 . S
C345 C344 1.377 . S
C345 C351 1.390 . S
C346 H337 0.930 . S
C346 C344 1.384 . S
C346 C347 1.372 . S
C347 C346 1.372 . S
C347 C348 1.400 . S
C347 C352 1.490 . S
C348 H338 0.930 . S
C348 C347 1.400 . S
C348 C351 1.386 . S
H349 C365 0.930 . S
H350 C366 0.931 . S
C351 H339 0.929 . S
C351 C345 1.390 . S
C351 C348 1.386 . S
C352 C347 1.490 . S
C352 C354 1.395 . S
C352 C355 1.403 . S
H353 C359 0.930 . S
C354 H340 0.930 . S
C354 C352 1.395 . S
C354 C357 1.403 . S
C355 C352 1.403 . S
C355 C356 1.524 . S
C355 C359 1.400 . S
C356 H341 0.960 . S
C356 H342 0.960 . S
C356 H343 0.960 . S
C356 C355 1.524 . S
C357 C354 1.403 . S
C357 C358 1.392 . S
C357 C361 1.495 . S
C358 C357 1.392 . S
C358 C359 1.385 . S
C358 C360 1.478 . S
C359 H353 0.930 . S
C359 C355 1.400 . S
C359 C358 1.385 . S
C360 C358 1.478 . S
C360 C362 1.381 . S
C360 C366 1.383 . S
C361 C357 1.495 . S
C361 H367 0.959 . S
C361 H368 0.961 . S
C361 H369 0.960 . S
C362 C360 1.381 . S
C362 C363 1.394 . S
C362 H370 0.930 . S
C363 C362 1.394 . S
C363 C364 1.383 . S
C363 H371 0.929 . S
C364 C363 1.383 . S
C364 C365 1.377 . S
C365 H349 0.930 . S
C365 C364 1.377 . S
C365 C366 1.379 . S
C366 H350 0.931 . S
C366 C360 1.383 . S
C366 C365 1.379 . S
H367 C361 0.959 . S
H368 C361 0.961 . S
H369 C361 0.960 . S
H370 C362 0.930 . S
H371 C363 0.929 . S
H372 C380 0.929 . S
H373 C382 0.930 . S
H374 C384 0.930 . S
H375 C387 0.929 . S
H376 C390 0.930 . S
H377 C392 0.960 . S
H378 C392 0.960 . S
H379 C392 0.960 . S
C380 H372 0.929 . S
C380 C381 1.377 . S
C380 C382 1.384 . S
C381 C380 1.377 . S
C381 C387 1.390 . S
C382 H373 0.930 . S
C382 C380 1.384 . S
C382 C383 1.372 . S
C383 C382 1.372 . S
C383 C384 1.400 . S
C383 C388 1.490 . S
C384 H374 0.930 . S
C384 C383 1.400 . S
C384 C387 1.386 . S
H385 C401 0.930 . S
H386 C402 0.931 . S
C387 H375 0.929 . S
C387 C381 1.390 . S
C387 C384 1.386 . S
C388 C383 1.490 . S
C388 C390 1.395 . S
C388 C391 1.403 . S
H389 C395 0.930 . S
C390 H376 0.930 . S
C390 C388 1.395 . S
C390 C393 1.403 . S
C391 C388 1.403 . S
C391 C392 1.524 . S
C391 C395 1.400 . S
C392 H377 0.960 . S
C392 H378 0.960 . S
C392 H379 0.960 . S
C392 C391 1.524 . S
C393 C390 1.403 . S
C393 C394 1.392 . S
C393 C397 1.495 . S
C394 C393 1.392 . S
C394 C395 1.385 . S
C394 C396 1.478 . S
C395 H389 0.930 . S
C395 C391 1.400 . S
C395 C394 1.385 . S
C396 C394 1.478 . S
C396 C398 1.381 . S
C396 C402 1.383 . S
C397 C393 1.495 . S
C397 H403 0.959 . S
C397 H404 0.961 . S
C397 H405 0.960 . S
C398 C396 1.381 . S
C398 C399 1.394 . S
C398 H406 0.930 . S
C399 C398 1.394 . S
C399 C400 1.383 . S
C399 H407 0.929 . S
C400 C399 1.383 . S
C400 C401 1.377 . S
C401 H385 0.930 . S
C401 C400 1.377 . S
C401 C402 1.379 . S
C402 H386 0.931 . S
C402 C396 1.383 . S
C402 C401 1.379 . S
H403 C397 0.959 . S
H404 C397 0.961 . S
H405 C397 0.960 . S
H406 C398 0.930 . S
H407 C399 0.929 . S
H408 C416 0.929 . S
H409 C418 0.930 . S
H410 C420 0.930 . S
H411 C423 0.929 . S
H412 C426 0.930 . S
H413 C428 0.960 . S
H414 C428 0.960 . S
H415 C428 0.960 . S
C416 H408 0.929 . S
C416 C417 1.377 . S
C416 C418 1.384 . S
C417 C416 1.377 . S
C417 C423 1.390 . S
C418 H409 0.930 . S
C418 C416 1.384 . S
C418 C419 1.372 . S
C419 C418 1.372 . S
C419 C420 1.400 . S
C419 C424 1.490 . S
C420 H410 0.930 . S
C420 C419 1.400 . S
C420 C423 1.386 . S
H421 C437 0.930 . S
H422 C438 0.931 . S
C423 H411 0.929 . S
C423 C417 1.390 . S
C423 C420 1.386 . S
C424 C419 1.490 . S
C424 C426 1.395 . S
C424 C427 1.403 . S
H425 C431 0.930 . S
C426 H412 0.930 . S
C426 C424 1.395 . S
C426 C429 1.403 . S
C427 C424 1.403 . S
C427 C428 1.524 . S
C427 C431 1.400 . S
C428 H413 0.960 . S
C428 H414 0.960 . S
C428 H415 0.960 . S
C428 C427 1.524 . S
C429 C426 1.403 . S
C429 C430 1.392 . S
C429 C433 1.495 . S
C430 C429 1.392 . S
C430 C431 1.385 . S
C430 C432 1.478 . S
C431 H425 0.930 . S
C431 C427 1.400 . S
C431 C430 1.385 . S
C432 C430 1.478 . S
C432 C434 1.381 . S
C432 C438 1.383 . S
C433 C429 1.495 . S
C433 H439 0.959 . S
C433 H440 0.961 . S
C433 H441 0.960 . S
C434 C432 1.381 . S
C434 C435 1.394 . S
C434 H442 0.930 . S
C435 C434 1.394 . S
C435 C436 1.383 . S
C435 H443 0.929 . S
C436 C435 1.383 . S
C436 C437 1.377 . S
C437 H421 0.930 . S
C437 C436 1.377 . S
C437 C438 1.379 . S
C438 H422 0.931 . S
C438 C432 1.383 . S
C438 C437 1.379 . S
H439 C433 0.959 . S
H440 C433 0.961 . S
H441 C433 0.960 . S
H442 C434 0.930 . S
H443 C435 0.929 . S
H444 C452 0.929 . S
H445 C454 0.930 . S
H446 C456 0.930 . S
H447 C459 0.929 . S
H448 C462 0.930 . S
H449 C464 0.960 . S
H450 C464 0.960 . S
H451 C464 0.960 . S
C452 H444 0.929 . S
C452 C453 1.377 . S
C452 C454 1.384 . S
C453 C452 1.377 . S
C453 C459 1.390 . S
C454 H445 0.930 . S
C454 C452 1.384 . S
C454 C455 1.372 . S
C455 C454 1.372 . S
C455 C456 1.400 . S
C455 C460 1.490 . S
C456 H446 0.930 . S
C456 C455 1.400 . S
C456 C459 1.386 . S
H457 C473 0.930 . S
H458 C474 0.931 . S
C459 H447 0.929 . S
C459 C453 1.390 . S
C459 C456 1.386 . S
C460 C455 1.490 . S
C460 C462 1.395 . S
C460 C463 1.403 . S
H461 C467 0.930 . S
C462 H448 0.930 . S
C462 C460 1.395 . S
C462 C465 1.403 . S
C463 C460 1.403 . S
C463 C464 1.524 . S
C463 C467 1.400 . S
C464 H449 0.960 . S
C464 H450 0.960 . S
C464 H451 0.960 . S
C464 C463 1.524 . S
C465 C462 1.403 . S
C465 C466 1.392 . S
C465 C469 1.495 . S
C466 C465 1.392 . S
C466 C467 1.385 . S
C466 C468 1.478 . S
C467 H461 0.930 . S
C467 C463 1.400 . S
C467 C466 1.385 . S
C468 C466 1.478 . S
C468 C470 1.381 . S
C468 C474 1.383 . S
C469 C465 1.495 . S
C469 H475 0.959 . S
C469 H476 0.961 . S
C469 H477 0.960 . S
C470 C468 1.381 . S
C470 C471 1.394 . S
C470 H478 0.930 . S
C471 C470 1.394 . S
C471 C472 1.383 . S
C471 H479 0.929 . S
C472 C471 1.383 . S
C472 C473 1.377 . S
C473 H457 0.930 . S
C473 C472 1.377 . S
C473 C474 1.379 . S
C474 H458 0.931 . S
C474 C468 1.383 . S
C474 C473 1.379 . S
H475 C469 0.959 . S
H476 C469 0.961 . S
H477 C469 0.960 . S
H478 C470 0.930 . S
H479 C471 0.929 . S
H480 C488 0.929 . S
H481 C490 0.930 . S
H482 C492 0.930 . S
H483 C495 0.929 . S
H484 C498 0.930 . S
H485 C500 0.960 . S
H486 C500 0.960 . S
H487 C500 0.960 . S
C488 H480 0.929 . S
C488 C489 1.377 . S
C488 C490 1.384 . S
C489 C488 1.377 . S
C489 C495 1.390 . S
C490 H481 0.930 . S
C490 C488 1.384 . S
C490 C491 1.372 . S
C491 C490 1.372 . S
C491 C492 1.400 . S
C491 C496 1.490 . S
C492 H482 0.930 . S
C492 C491 1.400 . S
C492 C495 1.386 . S
H493 C509 0.930 . S
H494 C510 0.931 . S
C495 H483 0.929 . S
C495 C489 1.390 . S
C495 C492 1.386 . S
C496 C491 1.490 . S
C496 C498 1.395 . S
C496 C499 1.403 . S
H497 C503 0.930 . S
C498 H484 0.930 . S
C498 C496 1.395 . S
C498 C501 1.403 . S
C499 C496 1.403 . S
C499 C500 1.524 . S
C499 C503 1.400 . S
C500 H485 0.960 . S
C500 H486 0.960 . S
C500 H487 0.960 . S
C500 C499 1.524 . S
C501 C498 1.403 . S
C501 C502 1.392 . S
C501 C505 1.495 . S
C502 C501 1.392 . S
C502 C503 1.385 . S
C502 C504 1.478 . S
C503 H497 0.930 . S
C503 C499 1.400 . S
C503 C502 1.385 . S
C504 C502 1.478 . S
C504 C506 1.381 . S
C504 C510 1.383 . S
C505 C501 1.495 . S
C505 H511 0.959 . S
C505 H512 0.961 . S
C505 H513 0.960 . S
C506 C504 1.381 . S
C506 C507 1.394 . S
C506 H514 0.930 . S
C507 C506 1.394 . S
C507 C508 1.383 . S
C507 H515 0.929 . S
C508 C507 1.383 . S
C508 C509 1.377 . S
C509 H493 0.930 . S
C509 C508 1.377 . S
C509 C510 1.379 . S
C510 H494 0.931 . S
C510 C504 1.383 . S
C510 C509 1.379 . S
H511 C505 0.959 . S
H512 C505 0.961 . S
H513 C505 0.960 . S
H514 C506 0.930 . S
H515 C507 0.929 . S
H516 C524 0.929 . S
H517 C526 0.930 . S
H518 C528 0.930 . S
H519 C531 0.929 . S
H520 C534 0.930 . S
H521 C536 0.960 . S
H522 C536 0.960 . S
H523 C536 0.960 . S
C524 H516 0.929 . S
C524 C525 1.377 . S
C524 C526 1.384 . S
C525 C524 1.377 . S
C525 C531 1.390 . S
C526 H517 0.930 . S
C526 C524 1.384 . S
C526 C527 1.372 . S
C527 C526 1.372 . S
C527 C528 1.400 . S
C527 C532 1.490 . S
C528 H518 0.930 . S
C528 C527 1.400 . S
C528 C531 1.386 . S
H529 C545 0.930 . S
H530 C546 0.931 . S
C531 H519 0.929 . S
C531 C525 1.390 . S
C531 C528 1.386 . S
C532 C527 1.490 . S
C532 C534 1.395 . S
C532 C535 1.403 . S
H533 C539 0.930 . S
C534 H520 0.930 . S
C534 C532 1.395 . S
C534 C537 1.403 . S
C535 C532 1.403 . S
C535 C536 1.524 . S
C535 C539 1.400 . S
C536 H521 0.960 . S
C536 H522 0.960 . S
C536 H523 0.960 . S
C536 C535 1.524 . S
C537 C534 1.403 . S
C537 C538 1.392 . S
C537 C541 1.495 . S
C538 C537 1.392 . S
C538 C539 1.385 . S
C538 C540 1.478 . S
C539 H533 0.930 . S
C539 C535 1.400 . S
C539 C538 1.385 . S
C540 C538 1.478 . S
C540 C542 1.381 . S
C540 C546 1.383 . S
C541 C537 1.495 . S
C541 H547 0.959 . S
C541 H548 0.961 . S
C541 H549 0.960 . S
C542 C540 1.381 . S
C542 C543 1.394 . S
C542 H550 0.930 . S
C543 C542 1.394 . S
C543 C544 1.383 . S
C543 H551 0.929 . S
C544 C543 1.383 . S
C544 C545 1.377 . S
C545 H529 0.930 . S
C545 C544 1.377 . S
C545 C546 1.379 . S
C546 H530 0.931 . S
C546 C540 1.383 . S
C546 C545 1.379 . S
H547 C541 0.959 . S
H548 C541 0.961 . S
H549 C541 0.960 . S
H550 C542 0.930 . S
H551 C543 0.929 . S
H552 C560 0.929 . S
H553 C562 0.930 . S
H554 C564 0.930 . S
H555 C567 0.929 . S
H556 C570 0.930 . S
H557 C572 0.960 . S
H558 C572 0.960 . S
H559 C572 0.960 . S
C560 H552 0.929 . S
C560 C561 1.377 . S
C560 C562 1.384 . S
C561 C560 1.377 . S
C561 C567 1.390 . S
C562 H553 0.930 . S
C562 C560 1.384 . S
C562 C563 1.372 . S
C563 C562 1.372 . S
C563 C564 1.400 . S
C563 C568 1.490 . S
C564 H554 0.930 . S
C564 C563 1.400 . S
C564 C567 1.386 . S
H565 C581 0.930 . S
H566 C582 0.931 . S
C567 H555 0.929 . S
C567 C561 1.390 . S
C567 C564 1.386 . S
C568 C563 1.490 . S
C568 C570 1.395 . S
C568 C571 1.403 . S
H569 C575 0.930 . S
C570 H556 0.930 . S
C570 C568 1.395 . S
C570 C573 1.403 . S
C571 C568 1.403 . S
C571 C572 1.524 . S
C571 C575 1.400 . S
C572 H557 0.960 . S
C572 H558 0.960 . S
C572 H559 0.960 . S
C572 C571 1.524 . S
C573 C570 1.403 . S
C573 C574 1.392 . S
C573 C577 1.495 . S
C574 C573 1.392 . S
C574 C575 1.385 . S
C574 C576 1.478 . S
C575 H569 0.930 . S
C575 C571 1.400 . S
C575 C574 1.385 . S
C576 C574 1.478 . S
C576 C578 1.381 . S
C576 C582 1.383 . S
C577 C573 1.495 . S
C577 H583 0.959 . S
C577 H584 0.961 . S
C577 H585 0.960 . S
C578 C576 1.381 . S
C578 C579 1.394 . S
C578 H586 0.930 . S
C579 C578 1.394 . S
C579 C580 1.383 . S
C579 H587 0.929 . S
C580 C579 1.383 . S
C580 C581 1.377 . S
C581 H565 0.930 . S
C581 C580 1.377 . S
C581 C582 1.379 . S
C582 H566 0.931 . S
C582 C576 1.383 . S
C582 C581 1.379 . S
H583 C577 0.959 . S
H584 C577 0.961 . S
H585 C577 0.960 . S
H586 C578 0.930 . S
H587 C579 0.929 . S
H588 C596 0.929 . S
H589 C598 0.930 . S
H590 C600 0.930 . S
H591 C603 0.929 . S
H592 C606 0.930 . S
H593 C608 0.960 . S
H594 C608 0.960 . S
H595 C608 0.960 . S
C596 H588 0.929 . S
C596 C597 1.377 . S
C596 C598 1.384 . S
C597 C596 1.377 . S
C597 C603 1.390 . S
C598 H589 0.930 . S
C598 C596 1.384 . S
C598 C599 1.372 . S
C599 C598 1.372 . S
C599 C600 1.400 . S
C599 C604 1.490 . S
C600 H590 0.930 . S
C600 C599 1.400 . S
C600 C603 1.386 . S
H601 C617 0.930 . S
H602 C618 0.931 . S
C603 H591 0.929 . S
C603 C597 1.390 . S
C603 C600 1.386 . S
C604 C599 1.490 . S
C604 C606 1.395 . S
C604 C607 1.403 . S
H605 C611 0.930 . S
C606 H592 0.930 . S
C606 C604 1.395 . S
C606 C609 1.403 . S
C607 C604 1.403 . S
C607 C608 1.524 . S
C607 C611 1.400 . S
C608 H593 0.960 . S
C608 H594 0.960 . S
C608 H595 0.960 . S
C608 C607 1.524 . S
C609 C606 1.403 . S
C609 C610 1.392 . S
C609 C613 1.495 . S
C610 C609 1.392 . S
C610 C611 1.385 . S
C610 C612 1.478 . S
C611 H605 0.930 . S
C611 C607 1.400 . S
C611 C610 1.385 . S
C612 C610 1.478 . S
C612 C614 1.381 . S
C612 C618 1.383 . S
C613 C609 1.495 . S
C613 H619 0.959 . S
C613 H620 0.961 . S
C613 H621 0.960 . S
C614 C612 1.381 . S
C614 C615 1.394 1_556 S
C614 H622 0.930 . S
C615 C614 1.394 1_554 S
C615 C616 1.383 1_554 S
C615 H623 0.929 . S
C616 C615 1.383 1_556 S
C616 C617 1.377 . S
C617 H601 0.930 . S
C617 C616 1.377 . S
C617 C618 1.379 . S
C618 H602 0.931 . S
C618 C612 1.383 . S
C618 C617 1.379 . S
H619 C613 0.959 . S
H620 C613 0.961 . S
H621 C613 0.960 . S
H622 C614 0.930 . S
H623 C615 0.929 . S
H624 C632 0.929 . S
H625 C634 0.930 . S
H626 C636 0.930 . S
H627 C639 0.929 . S
H628 C642 0.930 . S
H629 C644 0.960 . S
H630 C644 0.960 . S
H631 C644 0.960 . S
C632 H624 0.929 . S
C632 C633 1.377 . S
C632 C634 1.384 . S
C633 C632 1.377 . S
C633 C639 1.390 . S
C634 H625 0.930 . S
C634 C632 1.384 . S
C634 C635 1.372 . S
C635 C634 1.372 . S
C635 C636 1.400 . S
C635 C640 1.490 . S
C636 H626 0.930 . S
C636 C635 1.400 . S
C636 C639 1.386 . S
H637 C653 0.930 1_455 S
H638 C654 0.931 . S
C639 H627 0.929 . S
C639 C633 1.390 . S
C639 C636 1.386 . S
C640 C635 1.490 . S
C640 C642 1.395 . S
C640 C643 1.403 . S
H641 C647 0.930 . S
C642 H628 0.930 . S
C642 C640 1.395 . S
C642 C645 1.403 . S
C643 C640 1.403 . S
C643 C644 1.524 . S
C643 C647 1.400 . S
C644 H629 0.960 . S
C644 H630 0.960 . S
C644 H631 0.960 . S
C644 C643 1.524 . S
C645 C642 1.403 . S
C645 C646 1.392 . S
C645 C649 1.495 . S
C646 C645 1.392 . S
C646 C647 1.385 . S
C646 C648 1.478 . S
C647 H641 0.930 . S
C647 C643 1.400 . S
C647 C646 1.385 . S
C648 C646 1.478 . S
C648 C650 1.381 . S
C648 C654 1.383 . S
C649 C645 1.495 . S
C649 H655 0.959 . S
C649 H656 0.961 . S
C649 H657 0.960 . S
C650 C648 1.381 . S
C650 C651 1.394 . S
C650 H658 0.930 . S
C651 C650 1.394 . S
C651 C652 1.383 . S
C651 H659 0.929 . S
C652 C651 1.383 . S
C652 C653 1.377 . S
C653 H637 0.930 1_655 S
C653 C652 1.377 . S
C653 C654 1.379 . S
C654 H638 0.931 . S
C654 C648 1.383 . S
C654 C653 1.379 . S
H655 C649 0.959 . S
H656 C649 0.961 . S
H657 C649 0.960 . S
H658 C650 0.930 . S
H659 C651 0.929 . S
H660 C668 0.929 . S
H661 C670 0.930 . S
H662 C672 0.930 . S
H663 C675 0.929 . S
H664 C678 0.930 . S
H665 C680 0.960 . S
H666 C680 0.960 . S
H667 C680 0.960 . S
C668 H660 0.929 . S
C668 C669 1.377 . S
C668 C670 1.384 . S
C669 C668 1.377 . S
C669 C675 1.390 . S
C670 H661 0.930 . S
C670 C668 1.384 . S
C670 C671 1.372 . S
C671 C670 1.372 . S
C671 C672 1.400 . S
C671 C676 1.490 . S
C672 H662 0.930 . S
C672 C671 1.400 . S
C672 C675 1.386 . S
H673 C689 0.930 . S
H674 C690 0.931 . S
C675 H663 0.929 . S
C675 C669 1.390 . S
C675 C672 1.386 . S
C676 C671 1.490 . S
C676 C678 1.395 . S
C676 C679 1.403 . S
H677 C683 0.930 . S
C678 H664 0.930 . S
C678 C676 1.395 . S
C678 C681 1.403 . S
C679 C676 1.403 . S
C679 C680 1.524 . S
C679 C683 1.400 . S
C680 H665 0.960 . S
C680 H666 0.960 . S
C680 H667 0.960 . S
C680 C679 1.524 . S
C681 C678 1.403 . S
C681 C682 1.392 . S
C681 C685 1.495 . S
C682 C681 1.392 . S
C682 C683 1.385 . S
C682 C684 1.478 . S
C683 H677 0.930 . S
C683 C679 1.400 . S
C683 C682 1.385 . S
C684 C682 1.478 . S
C684 C686 1.381 . S
C684 C690 1.383 . S
C685 C681 1.495 . S
C685 H691 0.959 . S
C685 H692 0.961 . S
C685 H693 0.960 . S
C686 C684 1.381 . S
C686 C687 1.394 . S
C686 H694 0.930 . S
C687 C686 1.394 . S
C687 C688 1.383 . S
C687 H695 0.929 . S
C688 C687 1.383 . S
C688 C689 1.377 . S
C689 H673 0.930 . S
C689 C688 1.377 . S
C689 C690 1.379 . S
C690 H674 0.931 . S
C690 C684 1.383 . S
C690 C689 1.379 . S
H691 C685 0.959 . S
H692 C685 0.961 . S
H693 C685 0.960 . S
H694 C686 0.930 . S
H695 C687 0.929 . S
H696 C704 0.929 . S
H697 C706 0.930 . S
H698 C708 0.930 . S
H699 C711 0.929 . S
H700 C714 0.930 . S
H701 C716 0.960 . S
H702 C716 0.960 . S
H703 C716 0.960 . S
C704 H696 0.929 . S
C704 C705 1.377 . S
C704 C706 1.384 . S
C705 C704 1.377 . S
C705 C711 1.390 . S
C706 H697 0.930 . S
C706 C704 1.384 . S
C706 C707 1.372 . S
C707 C706 1.372 . S
C707 C708 1.400 . S
C707 C712 1.490 . S
C708 H698 0.930 . S
C708 C707 1.400 . S
C708 C711 1.386 . S
H709 C725 0.930 . S
H710 C726 0.931 . S
C711 H699 0.929 . S
C711 C705 1.390 . S
C711 C708 1.386 . S
C712 C707 1.490 . S
C712 C714 1.395 . S
C712 C715 1.403 . S
H713 C719 0.930 . S
C714 H700 0.930 . S
C714 C712 1.395 . S
C714 C717 1.403 . S
C715 C712 1.403 . S
C715 C716 1.524 . S
C715 C719 1.400 . S
C716 H701 0.960 . S
C716 H702 0.960 . S
C716 H703 0.960 . S
C716 C715 1.524 . S
C717 C714 1.403 . S
C717 C718 1.392 . S
C717 C721 1.495 . S
C718 C717 1.392 . S
C718 C719 1.385 . S
C718 C720 1.478 . S
C719 H713 0.930 . S
C719 C715 1.400 . S
C719 C718 1.385 . S
C720 C718 1.478 . S
C720 C722 1.381 . S
C720 C726 1.383 . S
C721 C717 1.495 . S
C721 H727 0.959 . S
C721 H728 0.961 . S
C721 H729 0.960 . S
C722 C720 1.381 . S
C722 C723 1.394 . S
C722 H730 0.930 . S
C723 C722 1.394 . S
C723 C724 1.383 . S
C723 H731 0.929 . S
C724 C723 1.383 . S
C724 C725 1.377 . S
C725 H709 0.930 . S
C725 C724 1.377 . S
C725 C726 1.379 . S
C726 H710 0.931 . S
C726 C720 1.383 . S
C726 C725 1.379 . S
H727 C721 0.959 . S
H728 C721 0.961 . S
H729 C721 0.960 . S
H730 C722 0.930 . S
H731 C723 0.929 . S
H732 C740 0.929 . S
H733 C742 0.930 . S
H734 C744 0.930 . S
H735 C747 0.929 . S
H736 C750 0.930 . S
H737 C752 0.960 . S
H738 C752 0.960 . S
H739 C752 0.960 . S
C740 H732 0.929 . S
C740 C741 1.377 . S
C740 C742 1.384 . S
C741 C740 1.377 . S
C741 C747 1.390 . S
C742 H733 0.930 . S
C742 C740 1.384 . S
C742 C743 1.372 . S
C743 C742 1.372 . S
C743 C744 1.400 . S
C743 C748 1.490 . S
C744 H734 0.930 . S
C744 C743 1.400 . S
C744 C747 1.386 . S
H745 C761 0.930 . S
H746 C762 0.931 . S
C747 H735 0.929 . S
C747 C741 1.390 . S
C747 C744 1.386 . S
C748 C743 1.490 . S
C748 C750 1.395 . S
C748 C751 1.403 . S
H749 C755 0.930 . S
C750 H736 0.930 . S
C750 C748 1.395 . S
C750 C753 1.403 . S
C751 C748 1.403 . S
C751 C752 1.524 . S
C751 C755 1.400 . S
C752 H737 0.960 . S
C752 H738 0.960 . S
C752 H739 0.960 . S
C752 C751 1.524 . S
C753 C750 1.403 . S
C753 C754 1.392 . S
C753 C757 1.495 . S
C754 C753 1.392 . S
C754 C755 1.385 . S
C754 C756 1.478 . S
C755 H749 0.930 . S
C755 C751 1.400 . S
C755 C754 1.385 . S
C756 C754 1.478 . S
C756 C758 1.381 . S
C756 C762 1.383 . S
C757 C753 1.495 . S
C757 H763 0.959 . S
C757 H764 0.961 . S
C757 H765 0.960 . S
C758 C756 1.381 . S
C758 C759 1.394 . S
C758 H766 0.930 . S
C759 C758 1.394 . S
C759 C760 1.383 . S
C759 H767 0.929 . S
C760 C759 1.383 . S
C760 C761 1.377 . S
C761 H745 0.930 . S
C761 C760 1.377 . S
C761 C762 1.379 . S
C762 H746 0.931 . S
C762 C756 1.383 . S
C762 C761 1.379 . S
H763 C757 0.959 . S
H764 C757 0.961 . S
H765 C757 0.960 . S
H766 C758 0.930 . S
H767 C759 0.929 . S
H768 C776 0.929 . S
H769 C778 0.930 . S
H770 C780 0.930 . S
H771 C783 0.929 . S
H772 C786 0.930 . S
H773 C788 0.960 . S
H774 C788 0.960 . S
H775 C788 0.960 . S
C776 H768 0.929 . S
C776 C777 1.377 . S
C776 C778 1.384 . S
C777 C776 1.377 . S
C777 C783 1.390 . S
C778 H769 0.930 . S
C778 C776 1.384 . S
C778 C779 1.372 . S
C779 C778 1.372 . S
C779 C780 1.400 . S
C779 C784 1.490 . S
C780 H770 0.930 . S
C780 C779 1.400 . S
C780 C783 1.386 . S
H781 C797 0.930 . S
H782 C798 0.931 . S
C783 H771 0.929 . S
C783 C777 1.390 . S
C783 C780 1.386 . S
C784 C779 1.490 . S
C784 C786 1.395 . S
C784 C787 1.403 . S
H785 C791 0.930 . S
C786 H772 0.930 . S
C786 C784 1.395 . S
C786 C789 1.403 . S
C787 C784 1.403 . S
C787 C788 1.524 . S
C787 C791 1.400 . S
C788 H773 0.960 . S
C788 H774 0.960 . S
C788 H775 0.960 . S
C788 C787 1.524 . S
C789 C786 1.403 . S
C789 C790 1.392 . S
C789 C793 1.495 . S
C790 C789 1.392 . S
C790 C791 1.385 . S
C790 C792 1.478 . S
C791 H785 0.930 . S
C791 C787 1.400 . S
C791 C790 1.385 . S
C792 C790 1.478 . S
C792 C794 1.381 . S
C792 C798 1.383 . S
C793 C789 1.495 . S
C793 H799 0.959 . S
C793 H800 0.961 . S
C793 H801 0.960 . S
C794 C792 1.381 . S
C794 C795 1.394 . S
C794 H802 0.930 . S
C795 C794 1.394 . S
C795 C796 1.383 . S
C795 H803 0.929 . S
C796 C795 1.383 . S
C796 C797 1.377 . S
C797 H781 0.930 . S
C797 C796 1.377 . S
C797 C798 1.379 . S
C798 H782 0.931 . S
C798 C792 1.383 . S
C798 C797 1.379 . S
H799 C793 0.959 . S
H800 C793 0.961 . S
H801 C793 0.960 . S
H802 C794 0.930 . S
H803 C795 0.929 . S
H804 C812 0.929 . S
H805 C814 0.930 . S
H806 C816 0.930 . S
H807 C819 0.929 . S
H808 C822 0.930 . S
H809 C824 0.960 . S
H810 C824 0.960 . S
H811 C824 0.960 . S
C812 H804 0.929 . S
C812 C813 1.377 . S
C812 C814 1.384 . S
C813 C812 1.377 . S
C813 C819 1.390 . S
C814 H805 0.930 . S
C814 C812 1.384 . S
C814 C815 1.372 . S
C815 C814 1.372 . S
C815 C816 1.400 . S
C815 C820 1.490 . S
C816 H806 0.930 . S
C816 C815 1.400 . S
C816 C819 1.386 . S
H817 C833 0.930 . S
H818 C834 0.931 . S
C819 H807 0.929 . S
C819 C813 1.390 . S
C819 C816 1.386 . S
C820 C815 1.490 . S
C820 C822 1.395 . S
C820 C823 1.403 . S
H821 C827 0.930 . S
C822 H808 0.930 . S
C822 C820 1.395 . S
C822 C825 1.403 . S
C823 C820 1.403 . S
C823 C824 1.524 . S
C823 C827 1.400 . S
C824 H809 0.960 . S
C824 H810 0.960 . S
C824 H811 0.960 . S
C824 C823 1.524 . S
C825 C822 1.403 . S
C825 C826 1.392 . S
C825 C829 1.495 . S
C826 C825 1.392 . S
C826 C827 1.385 . S
C826 C828 1.478 . S
C827 H821 0.930 . S
C827 C823 1.400 . S
C827 C826 1.385 . S
C828 C826 1.478 . S
C828 C830 1.381 . S
C828 C834 1.383 . S
C829 C825 1.495 . S
C829 H835 0.959 . S
C829 H836 0.961 . S
C829 H837 0.960 . S
C830 C828 1.381 . S
C830 C831 1.394 . S
C830 H838 0.930 . S
C831 C830 1.394 . S
C831 C832 1.383 . S
C831 H839 0.929 . S
C832 C831 1.383 . S
C832 C833 1.377 . S
C833 H817 0.930 . S
C833 C832 1.377 . S
C833 C834 1.379 . S
C834 H818 0.931 . S
C834 C828 1.383 . S
C834 C833 1.379 . S
H835 C829 0.959 . S
H836 C829 0.961 . S
H837 C829 0.960 . S
H838 C830 0.930 . S
H839 C831 0.929 . S
H840 C848 0.929 . S
H841 C850 0.930 . S
H842 C852 0.930 . S
H843 C855 0.929 . S
H844 C858 0.930 . S
H845 C860 0.960 . S
H846 C860 0.960 . S
H847 C860 0.960 . S
C848 H840 0.929 . S
C848 C849 1.377 . S
C848 C850 1.384 . S
C849 C848 1.377 . S
C849 C855 1.390 . S
C850 H841 0.930 . S
C850 C848 1.384 . S
C850 C851 1.372 . S
C851 C850 1.372 . S
C851 C852 1.400 . S
C851 C856 1.490 . S
C852 H842 0.930 . S
C852 C851 1.400 . S
C852 C855 1.386 . S
H853 C869 0.930 . S
H854 C870 0.931 . S
C855 H843 0.929 . S
C855 C849 1.390 . S
C855 C852 1.386 . S
C856 C851 1.490 . S
C856 C858 1.395 . S
C856 C859 1.403 . S
H857 C863 0.930 . S
C858 H844 0.930 . S
C858 C856 1.395 . S
C858 C861 1.403 . S
C859 C856 1.403 . S
C859 C860 1.524 . S
C859 C863 1.400 . S
C860 H845 0.960 . S
C860 H846 0.960 . S
C860 H847 0.960 . S
C860 C859 1.524 . S
C861 C858 1.403 . S
C861 C862 1.392 . S
C861 C865 1.495 . S
C862 C861 1.392 . S
C862 C863 1.385 . S
C862 C864 1.478 . S
C863 H857 0.930 . S
C863 C859 1.400 . S
C863 C862 1.385 . S
C864 C862 1.478 . S
C864 C866 1.381 . S
C864 C870 1.383 . S
C865 C861 1.495 . S
C865 H871 0.959 . S
C865 H872 0.961 . S
C865 H873 0.960 . S
C866 C864 1.381 . S
C866 C867 1.394 . S
C866 H874 0.930 . S
C867 C866 1.394 . S
C867 C868 1.383 . S
C867 H875 0.929 . S
C868 C867 1.383 . S
C868 C869 1.377 . S
C869 H853 0.930 . S
C869 C868 1.377 . S
C869 C870 1.379 . S
C870 H854 0.931 . S
C870 C864 1.383 . S
C870 C869 1.379 . S
H871 C865 0.959 . S
H872 C865 0.961 . S
H873 C865 0.960 . S
H874 C866 0.930 . S
H875 C867 0.929 . S
H876 C884 0.929 . S
H877 C886 0.930 . S
H878 C888 0.930 . S
H879 C891 0.929 . S
H880 C894 0.930 . S
H881 C896 0.960 . S
H882 C896 0.960 . S
H883 C896 0.960 . S
C884 H876 0.929 . S
C884 C885 1.377 . S
C884 C886 1.384 . S
C885 C884 1.377 . S
C885 C891 1.390 . S
C886 H877 0.930 . S
C886 C884 1.384 . S
C886 C887 1.372 . S
C887 C886 1.372 . S
C887 C888 1.400 . S
C887 C892 1.490 . S
C888 H878 0.930 . S
C888 C887 1.400 . S
C888 C891 1.386 . S
H889 C905 0.930 . S
H890 C906 0.931 . S
C891 H879 0.929 . S
C891 C885 1.390 . S
C891 C888 1.386 . S
C892 C887 1.490 . S
C892 C894 1.395 . S
C892 C895 1.403 . S
H893 C899 0.930 . S
C894 H880 0.930 . S
C894 C892 1.395 . S
C894 C897 1.403 . S
C895 C892 1.403 . S
C895 C896 1.524 . S
C895 C899 1.400 . S
C896 H881 0.960 . S
C896 H882 0.960 . S
C896 H883 0.960 . S
C896 C895 1.524 . S
C897 C894 1.403 . S
C897 C898 1.392 . S
C897 C901 1.495 . S
C898 C897 1.392 . S
C898 C899 1.385 . S
C898 C900 1.478 . S
C899 H893 0.930 . S
C899 C895 1.400 . S
C899 C898 1.385 . S
C900 C898 1.478 . S
C900 C902 1.381 . S
C900 C906 1.383 . S
C901 C897 1.495 . S
C901 H907 0.959 . S
C901 H908 0.961 . S
C901 H909 0.960 . S
C902 C900 1.381 . S
C902 C903 1.394 . S
C902 H910 0.930 . S
C903 C902 1.394 . S
C903 C904 1.383 . S
C903 H911 0.929 . S
C904 C903 1.383 . S
C904 C905 1.377 . S
C905 H889 0.930 . S
C905 C904 1.377 . S
C905 C906 1.379 . S
C906 H890 0.931 . S
C906 C900 1.383 . S
C906 C905 1.379 . S
H907 C901 0.959 . S
H908 C901 0.961 . S
H909 C901 0.960 . S
H910 C902 0.930 . S
H911 C903 0.929 . S
H912 C920 0.929 . S
H913 C922 0.930 . S
H914 C924 0.930 . S
H915 C927 0.929 . S
H916 C930 0.930 . S
H917 C932 0.960 . S
H918 C932 0.960 . S
H919 C932 0.960 . S
C920 H912 0.929 . S
C920 C921 1.377 . S
C920 C922 1.384 . S
C921 C920 1.377 . S
C921 C927 1.390 . S
C922 H913 0.930 . S
C922 C920 1.384 . S
C922 C923 1.372 . S
C923 C922 1.372 . S
C923 C924 1.400 . S
C923 C928 1.490 . S
C924 H914 0.930 . S
C924 C923 1.400 . S
C924 C927 1.386 . S
H925 C941 0.930 . S
H926 C942 0.931 . S
C927 H915 0.929 . S
C927 C921 1.390 . S
C927 C924 1.386 . S
C928 C923 1.490 . S
C928 C930 1.395 . S
C928 C931 1.403 . S
H929 C935 0.930 . S
C930 H916 0.930 . S
C930 C928 1.395 . S
C930 C933 1.403 . S
C931 C928 1.403 . S
C931 C932 1.524 . S
C931 C935 1.400 . S
C932 H917 0.960 . S
C932 H918 0.960 . S
C932 H919 0.960 . S
C932 C931 1.524 . S
C933 C930 1.403 . S
C933 C934 1.392 . S
C933 C937 1.495 . S
C934 C933 1.392 . S
C934 C935 1.385 . S
C934 C936 1.478 . S
C935 H929 0.930 . S
C935 C931 1.400 . S
C935 C934 1.385 . S
C936 C934 1.478 . S
C936 C938 1.381 . S
C936 C942 1.383 . S
C937 C933 1.495 . S
C937 H943 0.959 . S
C937 H944 0.961 . S
C937 H945 0.960 . S
C938 C936 1.381 . S
C938 C939 1.394 . S
C938 H946 0.930 . S
C939 C938 1.394 . S
C939 C940 1.383 . S
C939 H947 0.929 . S
C940 C939 1.383 . S
C940 C941 1.377 . S
C941 H925 0.930 . S
C941 C940 1.377 . S
C941 C942 1.379 . S
C942 H926 0.931 . S
C942 C936 1.383 . S
C942 C941 1.379 . S
H943 C937 0.959 . S
H944 C937 0.961 . S
H945 C937 0.960 . S
H946 C938 0.930 . S
H947 C939 0.929 . S
H948 C956 0.929 . S
H949 C958 0.930 . S
H950 C960 0.930 . S
H951 C963 0.929 . S
H952 C966 0.930 . S
H953 C968 0.960 . S
H954 C968 0.960 . S
H955 C968 0.960 . S
C956 H948 0.929 . S
C956 C957 1.377 . S
C956 C958 1.384 . S
C957 C956 1.377 . S
C957 C963 1.390 . S
C958 H949 0.930 . S
C958 C956 1.384 . S
C958 C959 1.372 . S
C959 C958 1.372 . S
C959 C960 1.400 . S
C959 C964 1.490 . S
C960 H950 0.930 . S
C960 C959 1.400 . S
C960 C963 1.386 . S
H961 C977 0.930 . S
H962 C978 0.931 . S
C963 H951 0.929 . S
C963 C957 1.390 . S
C963 C960 1.386 . S
C964 C959 1.490 . S
C964 C966 1.395 . S
C964 C967 1.403 . S
H965 C971 0.930 . S
C966 H952 0.930 . S
C966 C964 1.395 . S
C966 C969 1.403 . S
C967 C964 1.403 . S
C967 C968 1.524 . S
C967 C971 1.400 . S
C968 H953 0.960 . S
C968 H954 0.960 . S
C968 H955 0.960 . S
C968 C967 1.524 . S
C969 C966 1.403 . S
C969 C970 1.392 . S
C969 C973 1.495 . S
C970 C969 1.392 . S
C970 C971 1.385 . S
C970 C972 1.478 . S
C971 H965 0.930 . S
C971 C967 1.400 . S
C971 C970 1.385 . S
C972 C970 1.478 . S
C972 C974 1.381 . S
C972 C978 1.383 . S
C973 C969 1.495 . S
C973 H979 0.959 . S
C973 H980 0.961 . S
C973 H981 0.960 . S
C974 C972 1.381 . S
C974 C975 1.394 . S
C974 H982 0.930 . S
C975 C974 1.394 . S
C975 C976 1.383 . S
C975 H983 0.929 . S
C976 C975 1.383 . S
C976 C977 1.377 . S
C977 H961 0.930 . S
C977 C976 1.377 . S
C977 C978 1.379 . S
C978 H962 0.931 . S
C978 C972 1.383 . S
C978 C977 1.379 . S
H979 C973 0.959 . S
H980 C973 0.961 . S
H981 C973 0.960 . S
H982 C974 0.930 . S
H983 C975 0.929 . S
H984 C992 0.929 . S
H985 C994 0.930 . S
H986 C996 0.930 . S
H987 C999 0.929 . S
H988 C1002 0.930 . S
H989 C1004 0.960 . S
H990 C1004 0.960 . S
H991 C1004 0.960 . S
C992 H984 0.929 . S
C992 C993 1.377 . S
C992 C994 1.384 . S
C993 C992 1.377 . S
C993 C999 1.390 . S
C994 H985 0.930 . S
C994 C992 1.384 . S
C994 C995 1.372 . S
C995 C994 1.372 . S
C995 C996 1.400 . S
C995 C1000 1.490 . S
C996 H986 0.930 . S
C996 C995 1.400 . S
C996 C999 1.386 . S
H997 C1013 0.930 . S
H998 C1014 0.931 . S
C999 H987 0.929 . S
C999 C993 1.390 . S
C999 C996 1.386 . S
C1000 C995 1.490 . S
C1000 C1002 1.395 . S
C1000 C1003 1.403 . S
H1001 C1007 0.930 . S
C1002 H988 0.930 . S
C1002 C1000 1.395 . S
C1002 C1005 1.403 . S
C1003 C1000 1.403 . S
C1003 C1004 1.524 . S
C1003 C1007 1.400 . S
C1004 H989 0.960 . S
C1004 H990 0.960 . S
C1004 H991 0.960 . S
C1004 C1003 1.524 . S
C1005 C1002 1.403 . S
C1005 C1006 1.392 . S
C1005 C1009 1.495 . S
C1006 C1005 1.392 . S
C1006 C1007 1.385 . S
C1006 C1008 1.478 . S
C1007 H1001 0.930 . S
C1007 C1003 1.400 . S
C1007 C1006 1.385 . S
C1008 C1006 1.478 . S
C1008 C1010 1.381 . S
C1008 C1014 1.383 . S
C1009 C1005 1.495 . S
C1009 H1015 0.959 . S
C1009 H1016 0.961 . S
C1009 H1017 0.960 . S
C1010 C1008 1.381 . S
C1010 C1011 1.394 . S
C1010 H1018 0.930 . S
C1011 C1010 1.394 . S
C1011 C1012 1.383 . S
C1011 H1019 0.929 . S
C1012 C1011 1.383 . S
C1012 C1013 1.377 . S
C1013 H997 0.930 . S
C1013 C1012 1.377 . S
C1013 C1014 1.379 . S
C1014 H998 0.931 . S
C1014 C1008 1.383 . S
C1014 C1013 1.379 . S
H1015 C1009 0.959 . S
H1016 C1009 0.961 . S
H1017 C1009 0.960 . S
H1018 C1010 0.930 . S
H1019 C1011 0.929 . S
H1020 C1028 0.929 . S
H1021 C1030 0.930 . S
H1022 C1032 0.930 . S
H1023 C1035 0.929 . S
H1024 C1038 0.930 . S
H1025 C1040 0.960 . S
H1026 C1040 0.960 . S
H1027 C1040 0.960 . S
C1028 H1020 0.929 . S
C1028 C1029 1.377 . S
C1028 C1030 1.384 . S
C1029 C1028 1.377 . S
C1029 C1035 1.390 . S
C1030 H1021 0.930 . S
C1030 C1028 1.384 . S
C1030 C1031 1.372 . S
C1031 C1030 1.372 . S
C1031 C1032 1.400 . S
C1031 C1036 1.490 . S
C1032 H1022 0.930 . S
C1032 C1031 1.400 . S
C1032 C1035 1.386 . S
H1033 C1049 0.930 . S
H1034 C1050 0.931 . S
C1035 H1023 0.929 . S
C1035 C1029 1.390 . S
C1035 C1032 1.386 . S
C1036 C1031 1.490 . S
C1036 C1038 1.395 . S
C1036 C1039 1.403 . S
H1037 C1043 0.930 . S
C1038 H1024 0.930 . S
C1038 C1036 1.395 . S
C1038 C1041 1.403 . S
C1039 C1036 1.403 . S
C1039 C1040 1.524 . S
C1039 C1043 1.400 . S
C1040 H1025 0.960 . S
C1040 H1026 0.960 . S
C1040 H1027 0.960 . S
C1040 C1039 1.524 . S
C1041 C1038 1.403 . S
C1041 C1042 1.392 . S
C1041 C1045 1.495 . S
C1042 C1041 1.392 . S
C1042 C1043 1.385 . S
C1042 C1044 1.478 . S
C1043 H1037 0.930 . S
C1043 C1039 1.400 . S
C1043 C1042 1.385 . S
C1044 C1042 1.478 . S
C1044 C1046 1.381 . S
C1044 C1050 1.383 . S
C1045 C1041 1.495 . S
C1045 H1051 0.959 . S
C1045 H1052 0.961 . S
C1045 H1053 0.960 . S
C1046 C1044 1.381 . S
C1046 C1047 1.394 . S
C1046 H1054 0.930 . S
C1047 C1046 1.394 . S
C1047 C1048 1.383 . S
C1047 H1055 0.929 . S
C1048 C1047 1.383 . S
C1048 C1049 1.377 . S
C1049 H1033 0.930 . S
C1049 C1048 1.377 . S
C1049 C1050 1.379 . S
C1050 H1034 0.931 . S
C1050 C1044 1.383 . S
C1050 C1049 1.379 . S
H1051 C1045 0.959 . S
H1052 C1045 0.961 . S
H1053 C1045 0.960 . S
H1054 C1046 0.930 . S
H1055 C1047 0.929 . S
H1056 C1064 0.929 . S
H1057 C1066 0.930 . S
H1058 C1068 0.930 . S
H1059 C1071 0.929 . S
H1060 C1074 0.930 . S
H1061 C1076 0.960 . S
H1062 C1076 0.960 . S
H1063 C1076 0.960 . S
C1064 H1056 0.929 . S
C1064 C1065 1.377 . S
C1064 C1066 1.384 . S
C1065 C1064 1.377 . S
C1065 C1071 1.390 . S
C1066 H1057 0.930 . S
C1066 C1064 1.384 . S
C1066 C1067 1.372 . S
C1067 C1066 1.372 . S
C1067 C1068 1.400 . S
C1067 C1072 1.490 . S
C1068 H1058 0.930 . S
C1068 C1067 1.400 . S
C1068 C1071 1.386 . S
H1069 C1085 0.930 . S
H1070 C1086 0.931 . S
C1071 H1059 0.929 . S
C1071 C1065 1.390 . S
C1071 C1068 1.386 . S
C1072 C1067 1.490 . S
C1072 C1074 1.395 . S
C1072 C1075 1.403 . S
H1073 C1079 0.930 . S
C1074 H1060 0.930 . S
C1074 C1072 1.395 . S
C1074 C1077 1.403 . S
C1075 C1072 1.403 . S
C1075 C1076 1.524 . S
C1075 C1079 1.400 . S
C1076 H1061 0.960 . S
C1076 H1062 0.960 . S
C1076 H1063 0.960 . S
C1076 C1075 1.524 . S
C1077 C1074 1.403 . S
C1077 C1078 1.392 . S
C1077 C1081 1.495 . S
C1078 C1077 1.392 . S
C1078 C1079 1.385 . S
C1078 C1080 1.478 . S
C1079 H1073 0.930 . S
C1079 C1075 1.400 . S
C1079 C1078 1.385 . S
C1080 C1078 1.478 . S
C1080 C1082 1.381 . S
C1080 C1086 1.383 . S
C1081 C1077 1.495 . S
C1081 H1087 0.959 . S
C1081 H1088 0.961 . S
C1081 H1089 0.960 . S
C1082 C1080 1.381 . S
C1082 C1083 1.394 . S
C1082 H1090 0.930 . S
C1083 C1082 1.394 . S
C1083 C1084 1.383 . S
C1083 H1091 0.929 . S
C1084 C1083 1.383 . S
C1084 C1085 1.377 . S
C1085 H1069 0.930 . S
C1085 C1084 1.377 . S
C1085 C1086 1.379 . S
C1086 H1070 0.931 . S
C1086 C1080 1.383 . S
C1086 C1085 1.379 . S
H1087 C1081 0.959 . S
H1088 C1081 0.961 . S
H1089 C1081 0.960 . S
H1090 C1082 0.930 . S
H1091 C1083 0.929 . S
H1092 C1100 0.929 . S
H1093 C1102 0.930 . S
H1094 C1104 0.930 . S
H1095 C1107 0.929 . S
H1096 C1110 0.930 . S
H1097 C1112 0.960 . S
H1098 C1112 0.960 . S
H1099 C1112 0.960 . S
C1100 H1092 0.929 . S
C1100 C1101 1.377 . S
C1100 C1102 1.384 . S
C1101 C1100 1.377 . S
C1101 C1107 1.390 . S
C1102 H1093 0.930 . S
C1102 C1100 1.384 . S
C1102 C1103 1.372 . S
C1103 C1102 1.372 . S
C1103 C1104 1.400 . S
C1103 C1108 1.490 . S
C1104 H1094 0.930 . S
C1104 C1103 1.400 . S
C1104 C1107 1.386 . S
H1105 C1121 0.930 . S
H1106 C1122 0.931 . S
C1107 H1095 0.929 . S
C1107 C1101 1.390 . S
C1107 C1104 1.386 . S
C1108 C1103 1.490 . S
C1108 C1110 1.395 . S
C1108 C1111 1.403 . S
H1109 C1115 0.930 . S
C1110 H1096 0.930 . S
C1110 C1108 1.395 . S
C1110 C1113 1.403 . S
C1111 C1108 1.403 . S
C1111 C1112 1.524 . S
C1111 C1115 1.400 . S
C1112 H1097 0.960 . S
C1112 H1098 0.960 . S
C1112 H1099 0.960 . S
C1112 C1111 1.524 . S
C1113 C1110 1.403 . S
C1113 C1114 1.392 . S
C1113 C1117 1.495 . S
C1114 C1113 1.392 . S
C1114 C1115 1.385 . S
C1114 C1116 1.478 . S
C1115 H1109 0.930 . S
C1115 C1111 1.400 . S
C1115 C1114 1.385 . S
C1116 C1114 1.478 . S
C1116 C1118 1.381 . S
C1116 C1122 1.383 . S
C1117 C1113 1.495 . S
C1117 H1123 0.959 . S
C1117 H1124 0.961 . S
C1117 H1125 0.960 . S
C1118 C1116 1.381 . S
C1118 C1119 1.394 . S
C1118 H1126 0.930 . S
C1119 C1118 1.394 . S
C1119 C1120 1.383 . S
C1119 H1127 0.929 . S
C1120 C1119 1.383 . S
C1120 C1121 1.377 . S
C1121 H1105 0.930 . S
C1121 C1120 1.377 . S
C1121 C1122 1.379 . S
C1122 H1106 0.931 . S
C1122 C1116 1.383 . S
C1122 C1121 1.379 . S
H1123 C1117 0.959 . S
H1124 C1117 0.961 . S
H1125 C1117 0.960 . S
H1126 C1118 0.930 . S
H1127 C1119 0.929 . S
C273 N1 0.818 . S
C292 C119 0.829 . S
C309 N18 1.706 . S
C328 C163 1.744 1_556 S
C364 C193 1.566 . S
C345 N28 1.568 . S
C381 N40 2.898 . S
C400 C234 2.870 . S
C436 C150 1.143 . S
C417 N5 1.170 . S
C472 C114 2.431 . S
C453 N14 2.404 . S
C508 C242 1.209 . S
C489 N31 1.232 . S
C544 C203 1.787 . S
C525 N41 1.826 . S
C561 N2 0.542 . S
C580 C239 0.525 . S
C616 C153 2.150 1_556 S
C597 N27 2.233 . S
C633 N44 2.131 . S
C652 C122 2.173 1_655 S
C669 N15 1.618 . S
C688 C190 1.615 . S
C724 C110 1.450 . S
C705 N57 1.501 . S
C741 N70 1.212 . S
C760 C154 1.245 . S
C777 N79 1.925 . S
C796 C202 1.994 . S
C813 N93 2.645 . S
C832 C243 2.607 . S
C849 N54 0.574 . S
C868 C159 0.569 . S
C904 C123 3.065 1_655 S
C885 N66 3.085 . S
C940 C233 0.525 . S
C921 N80 0.545 . S
C976 C194 2.004 . S
C957 N96 2.068 . S
C993 N53 0.618 . S
C1012 C230 0.576 . S
C1048 C162 1.575 . S
C1029 N83 1.532 . S
C1084 C113 2.217 . S
C1065 N92 2.316 . S
C1101 N67 1.971 . S
C1120 C199 1.941 . S
