# Generated by pormake.
# Topology zzz, (3,6)-cn, num edge types: 1
# Building blocks:
#     Node 0, Type 0, BuildingBlock: BETDAH_clean_linker_0, # of connection points: 3
#     Node 1, Type 0, BuildingBlock: BETDAH_clean_linker_0, # of connection points: 3
#     Node 2, Type 0, BuildingBlock: BETDAH_clean_linker_0, # of connection points: 3
#     Node 3, Type 0, BuildingBlock: BETDAH_clean_linker_0, # of connection points: 3
#     Node 4, Type 0, BuildingBlock: BETDAH_clean_linker_0, # of connection points: 3
#     Node 5, Type 0, BuildingBlock: BETDAH_clean_linker_0, # of connection points: 3
#     Node 6, Type 0, BuildingBlock: BETDAH_clean_linker_0, # of connection points: 3
#     Node 7, Type 0, BuildingBlock: BETDAH_clean_linker_0, # of connection points: 3
#     Node 8, Type 1, BuildingBlock: KUMJIN_clean_sbu_1, # of connection points: 6
#     Node 9, Type 1, BuildingBlock: KUMJIN_clean_sbu_1, # of connection points: 6
#     Node 10, Type 1, BuildingBlock: KUMJIN_clean_sbu_1, # of connection points: 6
#     Node 11, Type 1, BuildingBlock: KUMJIN_clean_sbu_1, # of connection points: 6
#     Edge 12, Type (0, 1), BuildingBlock: XUDNAN_clean_linker_2, # of connection points: 2
#     Edge 13, Type (0, 1), BuildingBlock: XUDNAN_clean_linker_2, # of connection points: 2
#     Edge 14, Type (0, 1), BuildingBlock: XUDNAN_clean_linker_2, # of connection points: 2
#     Edge 15, Type (0, 1), BuildingBlock: XUDNAN_clean_linker_2, # of connection points: 2
#     Edge 16, Type (0, 1), BuildingBlock: XUDNAN_clean_linker_2, # of connection points: 2
#     Edge 17, Type (0, 1), BuildingBlock: XUDNAN_clean_linker_2, # of connection points: 2
#     Edge 18, Type (0, 1), BuildingBlock: XUDNAN_clean_linker_2, # of connection points: 2
#     Edge 19, Type (0, 1), BuildingBlock: XUDNAN_clean_linker_2, # of connection points: 2
#     Edge 20, Type (0, 1), BuildingBlock: XUDNAN_clean_linker_2, # of connection points: 2
#     Edge 21, Type (0, 1), BuildingBlock: XUDNAN_clean_linker_2, # of connection points: 2
#     Edge 22, Type (0, 1), BuildingBlock: XUDNAN_clean_linker_2, # of connection points: 2
#     Edge 23, Type (0, 1), BuildingBlock: XUDNAN_clean_linker_2, # of connection points: 2
#     Edge 24, Type (0, 1), BuildingBlock: XUDNAN_clean_linker_2, # of connection points: 2
#     Edge 25, Type (0, 1), BuildingBlock: XUDNAN_clean_linker_2, # of connection points: 2
#     Edge 26, Type (0, 1), BuildingBlock: XUDNAN_clean_linker_2, # of connection points: 2
#     Edge 27, Type (0, 1), BuildingBlock: XUDNAN_clean_linker_2, # of connection points: 2
#     Edge 28, Type (0, 1), BuildingBlock: XUDNAN_clean_linker_2, # of connection points: 2
#     Edge 29, Type (0, 1), BuildingBlock: XUDNAN_clean_linker_2, # of connection points: 2
#     Edge 30, Type (0, 1), BuildingBlock: XUDNAN_clean_linker_2, # of connection points: 2
#     Edge 31, Type (0, 1), BuildingBlock: XUDNAN_clean_linker_2, # of connection points: 2
#     Edge 32, Type (0, 1), BuildingBlock: XUDNAN_clean_linker_2, # of connection points: 2
#     Edge 33, Type (0, 1), BuildingBlock: XUDNAN_clean_linker_2, # of connection points: 2
#     Edge 34, Type (0, 1), BuildingBlock: XUDNAN_clean_linker_2, # of connection points: 2
#     Edge 35, Type (0, 1), BuildingBlock: XUDNAN_clean_linker_2, # of connection points: 2
# Relax obj value: 0.180
# Max RMSD: 0.104
# Mean RMSD: 0.080
data_MOF--net-zzz--node1-KUMJIN_clean_sbu_1--node2-BETDAH_clean_linker_0--edge1-XUDNAN_clean_linker_2
_symmetry_space_group_name_H-M    P1
_symmetry_Int_Tables_number       1
_symmetry_cell_setting            triclinic
loop_
_symmetry_equiv_pos_as_xyz
'x, y, z'
_cell_length_a     49.616302
_cell_length_b     49.664396
_cell_length_c     15.688115
_cell_angle_alpha  89.824242
_cell_angle_beta   89.882159
_cell_angle_gamma 90.150112
loop_
_atom_site_label
_atom_site_type_symbol
_atom_site_fract_x
_atom_site_fract_y
_atom_site_fract_z
_atom_type_partial_charge
H0 H 0.83059 0.5312 0.23167 0.0
H1 H 0.74783 0.53862 0.16163 0.0
H2 H 0.77213 0.55727 0.41859 0.0
C3 C 0.81011 0.53588 0.25047 0.0
C4 C 0.80441 0.54376 0.33475 0.0
C5 C 0.78968 0.53381 0.18922 0.0
C6 C 0.76318 0.54022 0.21036 0.0
C7 C 0.75658 0.54921 0.29237 0.0
C8 C 0.7773 0.55088 0.35471 0.0
N9 N 0.72938 0.55655 0.31247 0.0
C10 C 0.70762 0.55279 0.25632 0.0
H11 H 0.99779 0.83704 0.23169 0.0
H12 H 0.99952 0.75449 0.15505 0.0
H13 H 0.02042 0.7757 0.4129 0.0
C14 C 1.0002 0.81608 0.24932 0.0
C15 C 1.00875 0.80936 0.33215 0.0
C16 C 0.9967 0.7964 0.18608 0.0
C17 C 1.00175 0.76937 0.20493 0.0
C18 C 1.01031 0.76166 0.2866 0.0
C19 C 1.01377 0.78174 0.35001 0.0
N20 N 1.01619 0.7341 0.3056 0.0
C21 C 1.01316 0.71263 0.24826 0.0
H22 H 0.72713 0.05887 0.28724 0.0
H23 H 0.80193 0.04361 0.16064 0.0
H24 H 0.78241 1.00134 0.39445 0.0
C25 C 0.74637 0.04851 0.28622 0.0
C26 C 0.75222 0.02946 0.34947 0.0
C27 C 0.76426 0.05361 0.21903 0.0
C28 C 0.78875 0.03993 0.21455 0.0
C29 C 0.79579 0.02121 0.27827 0.0
C30 C 0.77745 1.01618 0.34629 0.0
N31 N 0.82059 1.00668 0.27355 0.0
C32 C 0.83863 1.00825 0.2047 0.0
H33 H 0.57717 0.7222 0.27727 0.0
H34 H 0.55575 0.79332 0.1349 0.0
H35 H 0.52741 0.78286 0.39063 0.0
C36 C 0.56741 0.74159 0.2727 0.0
C37 C 0.55167 0.75012 0.34181 0.0
C38 C 0.5677 0.75594 0.19498 0.0
C39 C 0.55617 0.78188 0.19336 0.0
C40 C 0.54289 0.79244 0.26501 0.0
C41 C 0.53962 0.77588 0.33786 0.0
N42 N 0.53108 0.81873 0.26294 0.0
C43 C 0.53379 0.83718 0.19533 0.0
H44 H 0.21795 0.50002 0.15817 0.0
H45 H 0.29886 0.50168 0.25312 0.0
H46 H 0.28334 0.51932 0.98816 0.0
C47 C 0.23937 0.50174 0.14553 0.0
C48 C 0.24805 0.50891 0.06337 0.0
C49 C 0.25747 0.49903 0.21372 0.0
C50 C 0.28507 0.5033 0.19991 0.0
C51 C 0.29468 0.51051 0.11859 0.0
C52 C 0.27601 0.51347 0.05061 0.0
N53 N 0.3227 0.5157 0.10409 0.0
C54 C 0.34336 0.51234 0.16435 0.0
H55 H 0.03279 0.22445 0.16515 0.0
H56 H 0.04776 0.30471 0.25609 0.0
H57 H 0.0428 0.28951 0.98701 0.0
C58 C 0.03657 0.2455 0.15267 0.0
C59 C 0.03794 0.25421 0.06739 0.0
C60 C 0.04012 0.26331 0.2217 0.0
C61 C 0.04456 0.29078 0.20423 0.0
C62 C 0.04504 0.30047 0.11996 0.0
C63 C 0.04213 0.28202 0.05189 0.0
N64 N 0.04831 0.32855 0.10185 0.0
C65 C 0.05081 0.34903 0.1629 0.0
H66 H 0.33303 0.04989 0.11855 0.0
H67 H 0.2553 0.04374 0.23574 0.0
H68 H 0.26839 1.01116 0.98333 0.0
C69 C 0.3122 0.04326 0.11491 0.0
C70 C 0.30328 0.02958 0.04243 0.0
C71 C 0.29502 0.04842 0.18376 0.0
C72 C 0.26815 0.04003 0.18117 0.0
C73 C 0.25818 0.02673 0.10847 0.0
C74 C 0.27587 0.02163 0.03895 0.0
N75 N 0.23076 1.01795 0.10443 0.0
C76 C 0.21112 0.0239 0.1659 0.0
H77 H 0.51557 0.33852 0.16904 0.0
H78 H 0.51856 0.25607 0.24902 0.0
H79 H 0.51427 0.27542 0.98082 0.0
C80 C 0.51572 0.31732 0.15254 0.0
C81 C 0.51509 0.30962 0.06654 0.0
C82 C 0.5167 0.29796 0.21763 0.0
C83 C 0.51744 0.27062 0.19755 0.0
C84 C 0.5165 0.26209 0.11241 0.0
C85 C 0.51498 0.28176 0.04678 0.0
N86 N 0.51722 0.23403 0.09217 0.0
C87 C 0.52108 0.21366 0.15318 0.0
Eu88 Eu 1.00135 0.04672 0.61329 0.0
C89 C 0.09895 0.07307 0.8072 0.0
N90 N 0.09514 0.05035 0.76078 0.0
C91 C 0.13719 0.05822 0.68845 0.0
C92 C 0.12111 0.09028 0.79178 0.0
C93 C 0.11519 0.0416 0.70773 0.0
C94 C 0.13976 0.08308 0.72892 0.0
C95 C 0.08715 0.09921 0.93193 0.0
C96 C 0.08236 0.07747 0.87645 0.0
C97 C 0.10788 0.1176 0.9131 0.0
C98 C 0.12482 0.11318 0.84293 0.0
Eu99 Eu 0.05485 0.02549 0.79033 0.0
N100 N 0.06257 0.05936 0.89278 0.0
C101 C 0.07162 0.10119 1.00623 0.0
C102 C 0.04802 0.0605 0.96664 0.0
C103 C 0.05215 0.08157 0.02414 0.0
H104 H 0.11431 0.02179 0.67964 0.0
H105 H 0.04031 0.08269 0.08202 0.0
H106 H 0.95239 1.00128 0.58751 0.0
H107 H 0.04432 0.11308 0.3696 0.0
H108 H 0.0328 0.04541 0.97989 0.0
H109 H 0.07505 0.11731 0.05128 0.0
H110 H 0.02861 0.10082 0.5146 0.0
H111 H 0.15236 0.05162 0.6435 0.0
H112 H 0.1116 0.13473 0.95411 0.0
H113 H 0.14147 0.12687 0.83119 0.0
H114 H 0.93365 0.97287 0.47195 0.0
H115 H 0.15704 0.09574 0.71498 0.0
H116 H 0.03487 0.08288 0.24818 0.0
N117 N 0.97942 0.02205 0.50542 0.0
C118 C 0.98803 0.02608 0.42461 0.0
C119 C 0.94909 0.98766 0.45784 0.0
C120 C 0.97883 1.00986 0.35734 0.0
C121 C 0.9595 1.00387 0.52287 0.0
C122 C 0.95929 0.99021 0.375 0.0
N123 N 1.01122 0.06373 0.47532 0.0
C124 C 0.02416 0.08766 0.46171 0.0
C125 C 1.01306 0.05384 0.3253 0.0
C126 C 1.0047 0.04769 0.40898 0.0
C127 C 0.02791 0.07745 0.31145 0.0
C128 C 0.0331 0.09465 0.37982 0.0
H129 H 0.95153 0.97735 0.32508 0.0
H130 H 0.98323 1.00135 0.22295 0.0
H131 H 1.01269 0.04036 0.19396 0.0
O132 O 0.96597 0.07096 0.58222 0.0
O133 O 1.01019 1.00132 0.60358 0.0
O134 O 0.04477 0.99066 0.69895 0.0
O135 O 0.97688 0.06473 0.71384 0.0
O136 O 0.04551 0.05705 0.59425 0.0
O137 O 0.0671 1.0208 0.65016 0.0
O138 O 0.04775 0.99475 0.88665 0.0
O139 O 0.02922 0.06363 0.80111 0.0
O140 O 0.0305 0.07807 0.6648 0.0
O141 O 0.08861 1.00601 0.85576 0.0
O142 O 1.01115 0.0258 0.83465 0.0
O143 O 0.98966 1.01466 0.71088 0.0
C144 C 0.02769 0.98411 0.63711 0.0
C145 C 0.95655 0.10569 0.68026 0.0
C146 C 0.97109 0.15272 0.67004 0.0
C147 C 0.94699 0.16024 0.71162 0.0
C148 C 0.93301 0.11362 0.72221 0.0
C149 C 0.92842 0.14079 0.73857 0.0
C150 C 0.97586 0.12502 0.65718 0.0
C151 C 0.06455 0.03891 0.58946 0.0
C152 C 0.96096 0.07716 0.66146 0.0
C153 C 0.98894 1.01437 0.27482 0.0
C154 C 1.00588 0.03648 0.25853 0.0
C155 C 0.0312 0.08352 0.7463 0.0
C156 C 0.08035 0.96024 0.88765 0.0
C157 C 0.06657 0.91354 0.86212 0.0
C158 C 0.09228 0.90522 0.89061 0.0
C159 C 0.10562 0.95143 0.91538 0.0
C160 C 0.06156 0.9414 0.85713 0.0
C161 C 0.1117 0.92406 0.91515 0.0
C162 C 0.9895 1.01755 0.79415 0.0
C163 C 0.07314 0.98887 0.8951 0.0
H164 H 0.94176 0.18112 0.72128 0.0
H165 H 0.91813 0.09881 0.74175 0.0
H166 H 0.91004 0.1469 0.77028 0.0
H167 H 0.99434 0.11813 0.6281 0.0
H168 H 0.09734 0.88422 0.89834 0.0
H169 H 0.12047 0.96568 0.93843 0.0
H170 H 0.04266 0.94863 0.83195 0.0
H171 H 0.13117 0.91731 0.9376 0.0
Eu172 Eu 0.53255 0.05114 0.78238 0.0
C173 C 0.5086 0.94196 0.62578 0.0
N174 N 0.52824 0.9592 0.59976 0.0
C175 C 0.56004 0.92303 0.59374 0.0
C176 C 0.51439 0.91465 0.64184 0.0
C177 C 0.55335 0.95001 0.57929 0.0
C178 C 0.54064 0.90541 0.62707 0.0
C179 C 0.46108 0.93332 0.64912 0.0
C180 C 0.4823 0.95125 0.62945 0.0
C181 C 0.46698 0.9066 0.67201 0.0
C182 C 0.4936 0.89727 0.66825 0.0
Eu183 Eu 0.51567 1.00463 0.58215 0.0
N184 N 0.47722 0.97696 0.60451 0.0
C185 C 0.43451 0.94232 0.64011 0.0
C186 C 0.4515 0.98466 0.5858 0.0
C187 C 0.42972 0.96787 0.60597 0.0
H188 H 0.56837 0.9638 0.55447 0.0
H189 H 0.4093 0.9745 0.59412 0.0
H190 H 0.46774 0.0675 0.83507 0.0
H191 H 0.61539 0.12035 0.72017 0.0
H192 H 0.44771 1.0039 0.5559 0.0
H193 H 0.41763 0.92919 0.65458 0.0
H194 H 0.59393 0.07667 0.75588 0.0
H195 H 0.58016 0.9159 0.57987 0.0
H196 H 0.45097 0.89266 0.6887 0.0
H197 H 0.49771 0.87631 0.68238 0.0
H198 H 0.43616 0.10469 0.81135 0.0
H199 H 0.54588 0.88454 0.6384 0.0
H200 H 0.587 0.16022 0.69059 0.0
N201 N 0.50056 0.08665 0.7715 0.0
C202 C 0.51054 0.11086 0.74513 0.0
C203 C 0.45687 0.1065 0.7902 0.0
C204 C 0.49355 0.1334 0.73515 0.0
C205 C 0.47465 0.08496 0.80061 0.0
C206 C 0.4662 0.13065 0.75527 0.0
N207 N 0.5541 0.09189 0.74646 0.0
C208 C 0.5815 0.09406 0.74338 0.0
C209 C 0.54945 0.1389 0.71249 0.0
C210 C 0.53816 0.11371 0.73422 0.0
C211 C 0.57755 0.14118 0.70677 0.0
C212 C 0.59365 0.11872 0.72333 0.0
H213 H 0.45249 0.14747 0.74859 0.0
H214 H 0.49173 0.17566 0.70053 0.0
H215 H 0.5407 0.18044 0.68046 0.0
O216 O 0.56169 0.0466 0.8856 0.0
O217 O 0.54161 0.06495 0.64636 0.0
O218 O 0.50555 0.04923 0.57291 0.0
O219 O 0.52478 0.06848 0.90754 0.0
O220 O 0.57069 0.03068 0.72936 0.0
O221 O 0.56001 1.0166 0.59117 0.0
O222 O 0.50196 0.98597 0.46441 0.0
O223 O 0.53802 0.98687 0.69741 0.0
O224 O 0.51945 1.0082 0.81167 0.0
O225 O 0.53339 1.01578 0.45883 0.0
O226 O 0.48096 0.02847 0.6416 0.0
O227 O 0.49234 0.02881 0.7829 0.0
C228 C 0.52452 0.0674 0.58304 0.0
C229 C 0.56308 0.08393 0.98089 0.0
C230 C 0.60517 0.1079 1.01039 0.0
C231 C 0.59149 0.12327 0.07226 0.0
C232 C 0.54995 0.09942 0.04296 0.0
C233 C 0.56402 0.11925 0.08738 0.0
C234 C 0.59037 0.0889 0.96313 0.0
C235 C 0.57765 0.02303 0.65115 0.0
C236 C 0.5483 0.06213 0.9375 0.0
C237 C 0.50454 0.15823 0.70936 0.0
C238 C 0.53244 0.16099 0.69828 0.0
C239 C 0.52992 0.98661 0.77731 0.0
C240 C 0.50198 1.015 0.34702 0.0
C241 C 0.46265 0.04017 0.29994 0.0
C242 C 0.47272 0.03977 0.21606 0.0
C243 C 0.51192 1.01487 0.26338 0.0
C244 C 0.47751 0.02788 0.36515 0.0
C245 C 0.49733 0.02732 0.19817 0.0
C246 C 0.47403 0.02742 0.72258 0.0
C247 C 0.51663 1.00116 0.41526 0.0
H248 H 0.60204 0.13765 0.11174 0.0
H249 H 0.52886 0.096 0.05765 0.0
H250 H 0.55381 0.131 0.13562 0.0
H251 H 0.60023 0.07736 0.91382 0.0
H252 H 0.46146 0.04887 0.16442 0.0
H253 H 0.53078 1.00498 0.24849 0.0
H254 H 0.46996 0.02821 0.43006 0.0
H255 H 0.50496 0.02708 0.13348 0.0
Eu256 Eu 0.56034 0.51496 0.61401 0.0
C257 C 0.47685 0.50432 0.90615 0.0
N258 N 0.47331 0.51173 0.82372 0.0
C259 C 0.43528 0.48207 0.81232 0.0
C260 C 0.46049 0.48431 0.94394 0.0
C261 C 0.45196 0.50211 0.7779 0.0
C262 C 0.4399 0.47274 0.89517 0.0
C263 C 0.49846 0.5125 0.04185 0.0
C264 C 0.4955 0.51827 0.95427 0.0
C265 C 0.48346 0.49141 0.07875 0.0
C266 C 0.46447 0.47736 0.02987 0.0
Eu267 Eu 0.50371 0.54401 0.76731 0.0
N268 N 0.50897 0.53905 0.91716 0.0
C269 C 0.51549 0.52886 0.09047 0.0
C270 C 0.52372 0.55645 0.96592 0.0
C271 C 0.52777 0.55125 0.05265 0.0
H272 H 0.44861 0.50922 0.71356 0.0
H273 H 0.54014 0.56465 0.09039 0.0
H274 H 0.61551 0.53017 0.73439 0.0
H275 H 0.5352 0.54769 0.29212 0.0
H276 H 0.53259 0.57431 0.93786 0.0
H277 H 0.51839 0.52503 0.15784 0.0
H278 H 0.53082 0.52028 0.42321 0.0
H279 H 0.41894 0.47381 0.77495 0.0
H280 H 0.48564 0.48651 0.14575 0.0
H281 H 0.45231 0.46184 0.05989 0.0
H282 H 0.65337 0.56193 0.7311 0.0
H283 H 0.4269 0.4573 0.92184 0.0
H284 H 0.57165 0.58152 0.28007 0.0
N285 N 0.59797 0.5445 0.61898 0.0
C286 C 0.60196 0.55986 0.54787 0.0
C287 C 0.63882 0.56188 0.67978 0.0
C288 C 0.62435 0.57736 0.54131 0.0
C289 C 0.61673 0.54438 0.68263 0.0
C290 C 0.6425 0.57866 0.60925 0.0
N291 N 0.56346 0.53958 0.48588 0.0
C292 C 0.54652 0.53529 0.41885 0.0
C293 C 0.5881 0.57268 0.40475 0.0
C294 C 0.58431 0.55728 0.47952 0.0
C295 C 0.5698 0.56959 0.33764 0.0
C296 C 0.54909 0.5506 0.34437 0.0
H297 H 0.65988 0.59189 0.60668 0.0
H298 H 0.6455 0.60589 0.46036 0.0
H299 H 0.61347 0.60221 0.34161 0.0
O300 O 0.56027 0.47749 0.54162 0.0
O301 O 0.53925 0.55497 0.58632 0.0
O302 O 0.5365 0.57215 0.71882 0.0
O303 O 0.59808 0.49586 0.57654 0.0
O304 O 0.51799 0.50326 0.57132 0.0
O305 O 0.49032 0.53603 0.62985 0.0
O306 O 0.47956 0.57376 0.83592 0.0
O307 O 0.50447 0.49866 0.74064 0.0
O308 O 0.54927 0.48932 0.72994 0.0
O309 O 0.47412 0.56865 0.70087 0.0
O310 O 0.54766 0.5522 0.80813 0.0
O311 O 0.56997 0.51543 0.75532 0.0
C312 C 0.54001 0.57588 0.63695 0.0
C313 C 0.59443 0.44884 0.59529 0.0
C314 C 0.58376 0.40288 0.63977 0.0
C315 C 0.60775 0.40186 0.68676 0.0
C316 C 0.61834 0.44759 0.64339 0.0
C317 C 0.62485 0.42424 0.68892 0.0
C318 C 0.57739 0.42633 0.59392 0.0
C319 C 0.49531 0.51717 0.5727 0.0
C320 C 0.58613 0.47395 0.55161 0.0
C321 C 0.62835 0.59245 0.46648 0.0
C322 C 0.61015 0.59033 0.39875 0.0
C323 C 0.52473 0.48207 0.75136 0.0
C324 C 0.47078 0.61241 0.75244 0.0
C325 C 0.49706 0.65397 0.76051 0.0
C326 C 0.47574 0.66775 0.72055 0.0
C327 C 0.4498 0.62641 0.71273 0.0
C328 C 0.49459 0.62603 0.77355 0.0
C329 C 0.45242 0.65393 0.69614 0.0
C330 C 0.56688 0.53399 0.81411 0.0
C331 C 0.46856 0.5833 0.76687 0.0
H332 H 0.6133 0.38374 0.72102 0.0
H333 H 0.6319 0.46468 0.64648 0.0
H334 H 0.64328 0.42345 0.7256 0.0
H335 H 0.55925 0.42685 0.55548 0.0
H336 H 0.47655 0.6893 0.71057 0.0
H337 H 0.43151 0.61602 0.69414 0.0
H338 H 0.51112 0.61473 0.80082 0.0
H339 H 0.43612 0.66472 0.66569 0.0
Eu340 Eu 0.03625 0.56193 0.62582 0.0
C341 C 0.05479 0.45356 0.83278 0.0
N342 N 0.04042 0.45988 0.76169 0.0
C343 C 0.05497 0.41895 0.69503 0.0
C344 C 0.07067 0.43002 0.83617 0.0
C345 C 0.03902 0.44209 0.69566 0.0
C346 C 0.07126 0.41311 0.76503 0.0
C347 C 0.06545 0.46269 0.98103 0.0
C348 C 0.05222 0.46966 0.90456 0.0
C349 C 0.08182 0.43969 0.98373 0.0
C350 C 0.08452 0.42347 0.9114 0.0
Eu351 Eu 1.01425 0.49971 0.76963 0.0
N352 N 0.0363 0.49183 0.9003 0.0
C353 C 0.06162 0.4789 0.05288 0.0
C354 C 0.03176 0.50719 0.97084 0.0
C355 C 0.04459 0.50117 0.04782 0.0
H356 H 0.02482 0.445 0.64488 0.0
H357 H 0.04112 0.51355 0.10342 0.0
H358 H 1.00267 0.61281 0.7139 0.0
H359 H 0.02908 0.52275 0.29909 0.0
H360 H 1.0181 0.52398 0.96823 0.0
H361 H 0.07142 0.47419 0.11276 0.0
H362 H 0.05138 0.53171 0.43576 0.0
H363 H 0.05412 0.40525 0.64156 0.0
H364 H 0.09226 0.43411 0.04176 0.0
H365 H 0.09688 0.40555 0.91492 0.0
H366 H 0.96257 0.64095 0.68346 0.0
H367 H 0.08322 0.39489 0.7651 0.0
H368 H 0.98503 0.54359 0.26719 0.0
N369 N 0.99859 0.58969 0.60102 0.0
C370 C 0.98559 0.58636 0.52558 0.0
C371 C 0.96872 0.62554 0.63889 0.0
C372 C 0.9626 0.60177 0.50582 0.0
C373 C 0.99131 0.60965 0.65603 0.0
C374 C 0.95409 0.62134 0.56402 0.0
N375 N 1.01852 0.55402 0.48721 0.0
C376 C 0.03136 0.53945 0.42557 0.0
C377 C 0.98259 0.56408 0.3886 0.0
C378 C 0.99549 0.56759 0.46795 0.0
C379 C 0.99431 0.54684 0.32878 0.0
C380 C 1.01911 0.53495 0.34669 0.0
H381 H 0.93651 0.63358 0.55113 0.0
H382 H 0.93116 0.60877 0.41275 0.0
H383 H 0.94878 0.57596 0.30982 0.0
O384 O 0.05572 0.58719 0.52989 0.0
O385 O 0.99272 0.55455 0.66918 0.0
O386 O 0.98969 0.5098 0.65141 0.0
O387 O 0.06037 0.59698 0.66247 0.0
O388 O 0.05304 0.52098 0.58375 0.0
O389 O 1.01913 0.49248 0.62708 0.0
O390 O 0.97418 0.50171 0.82746 0.0
O391 O 0.05528 0.51855 0.80259 0.0
O392 O 0.07069 0.53576 0.67463 0.0
O393 O 0.9933 0.46306 0.80829 0.0
O394 O 1.00493 0.5413 0.82689 0.0
O395 O 0.03529 0.57169 0.76715 0.0
C396 C 0.97863 0.53356 0.64515 0.0
C397 C 0.09673 0.60615 0.57098 0.0
C398 C 0.1412 0.58635 0.54722 0.0
C399 C 0.15159 0.61266 0.53587 0.0
C400 C 0.10754 0.63197 0.56113 0.0
C401 C 0.13493 0.63517 0.54371 0.0
C402 C 0.11348 0.58359 0.56464 0.0
C403 C 0.03978 0.49799 0.57736 0.0
C404 C 0.06779 0.60252 0.58485 0.0
C405 C 0.94906 0.59737 0.4286 0.0
C406 C 0.95903 0.57859 0.37015 0.0
C407 C 0.07505 0.5272 0.75311 0.0
C408 C 0.94717 0.46645 0.77465 0.0
C409 C 0.89877 0.46888 0.75035 0.0
C410 C 0.9015 0.45204 0.67925 0.0
C411 C 0.94979 0.4503 0.7015 0.0
C412 C 0.92169 0.47556 0.79847 0.0
C413 C 0.92699 0.44299 0.65463 0.0
C414 C 1.01829 0.56447 0.8278 0.0
C415 C 0.97085 0.47566 0.82317 0.0
H416 H 0.17239 0.6162 0.51853 0.0
H417 H 0.09476 0.64957 0.56572 0.0
H418 H 0.14322 0.65517 0.53475 0.0
H419 H 0.10449 0.56398 0.57408 0.0
H420 H 0.88404 0.44618 0.64235 0.0
H421 H 0.96937 0.44343 0.68019 0.0
H422 H 0.91977 0.4879 0.85508 0.0
H423 H 0.92911 0.43042 0.59879 0.0
H424 H 0.18489 0.99084 0.27923 0.0
H425 H 0.18938 0.07307 0.18734 0.0
H426 H 0.15241 0.08588 0.28561 0.0
H427 H 0.11262 0.9879 0.30255 0.0
H428 H 0.11322 0.96796 0.39871 0.0
H429 H 0.14027 0.96527 0.32246 0.0
H430 H 0.17491 0.97683 0.44039 0.0
H431 H 0.14791 0.97944 0.5169 0.0
H432 H 0.17079 1.00728 0.50134 0.0
H433 H 0.11478 0.08971 0.39349 0.0
H434 H 0.07968 0.08456 0.50385 0.0
H435 H 0.0985 0.9996 0.52601 0.0
C436 C 0.17809 1.01154 0.28036 0.0
C437 C 0.18992 0.03108 0.22606 0.0
C438 C 0.18055 0.0579 0.22872 0.0
C439 C 0.15957 0.06532 0.28426 0.0
C440 C 0.14816 0.04564 0.33696 0.0
C441 C 0.15711 1.01929 0.33576 0.0
C442 C 0.14124 1.00211 0.39889 0.0
C443 C 0.12593 0.97947 0.35288 0.0
C444 C 0.15983 0.99075 0.4685 0.0
C445 C 0.12192 0.02283 0.43534 0.0
C446 C 0.12631 0.04781 0.3987 0.0
C447 C 0.1111 0.07018 0.4221 0.0
C448 C 0.09095 0.06699 0.48439 0.0
C449 C 0.08589 0.0416 0.52273 0.0
C450 C 0.10177 1.01927 0.49777 0.0
H451 H 0.49023 0.16971 0.19586 0.0
H452 H 0.56377 0.2123 0.25919 0.0
H453 H 0.57325 0.17882 0.37282 0.0
H454 H 0.46996 0.15172 0.40416 0.0
H455 H 0.45885 0.11804 0.38098 0.0
H456 H 0.45757 0.14361 0.2993 0.0
H457 H 0.48579 0.11478 0.19918 0.0
H458 H 0.49012 0.08834 0.27732 0.0
H459 H 0.51903 0.10402 0.23046 0.0
H460 H 0.57526 0.13967 0.47663 0.0
H461 H 0.56844 0.10031 0.56916 0.0
H462 H 0.49164 0.08424 0.448 0.0
C463 C 0.50828 0.17194 0.23391 0.0
C464 C 0.52635 0.19355 0.21904 0.0
C465 C 0.54978 0.19581 0.26961 0.0
C466 C 0.5553 0.1769 0.33425 0.0
C467 C 0.53711 0.15579 0.34772 0.0
C468 C 0.51404 0.15325 0.29919 0.0
C469 C 0.49813 0.12845 0.32611 0.0
C470 C 0.46941 0.1359 0.35419 0.0
C471 C 0.49819 0.10773 0.25373 0.0
C472 C 0.51481 0.11829 0.40067 0.0
C473 C 0.53766 0.13396 0.41013 0.0
C474 C 0.55709 0.12771 0.47078 0.0
C475 C 0.55283 0.10535 0.52409 0.0
C476 C 0.52888 0.0897 0.51952 0.0
C477 C 0.50985 0.09607 0.4552 0.0
H478 H 0.35744 0.54034 0.3087 0.0
H479 H 0.38294 0.47601 0.1413 0.0
H480 H 0.42425 0.46985 0.22759 0.0
H481 H 0.42371 0.56863 0.3427 0.0
H482 H 0.41784 0.57687 0.45299 0.0
H483 H 0.39004 0.57589 0.37934 0.0
H484 H 0.36534 0.54149 0.47645 0.0
H485 H 0.39306 0.54242 0.5504 0.0
H486 H 0.38213 0.51075 0.50641 0.0
H487 H 0.46322 0.47092 0.3322 0.0
H488 H 0.49671 0.47917 0.4453 0.0
H489 H 0.44651 0.54318 0.54596 0.0
C490 C 0.37167 0.52483 0.29091 0.0
C491 C 0.36694 0.50842 0.21875 0.0
C492 C 0.3861 0.48858 0.19674 0.0
C493 C 0.40965 0.48498 0.24537 0.0
C494 C 0.41384 0.50142 0.31624 0.0
C495 C 0.39538 0.52097 0.33907 0.0
C496 C 0.40503 0.53618 0.4175 0.0
C497 C 0.40941 0.56617 0.39687 0.0
C498 C 0.3852 0.53248 0.49211 0.0
C499 C 0.43167 0.52213 0.43527 0.0
C500 C 0.43636 0.50215 0.37604 0.0
C501 C 0.45968 0.48652 0.37892 0.0
C502 C 0.47867 0.49139 0.4437 0.0
C503 C 0.47452 0.51186 0.50525 0.0
C504 C 0.4505 0.52733 0.50047 0.0
H505 H 1.01356 0.37099 0.27124 0.0
H506 H 0.09581 0.37919 0.18188 0.0
H507 H 0.10207 0.41907 0.27473 0.0
H508 H 0.99914 0.44237 0.28314 0.0
H509 H 0.97887 0.43948 0.37822 0.0
H510 H 0.98098 0.41163 0.30521 0.0
H511 H 0.997 0.38055 0.42815 0.0
H512 H 0.99483 0.40834 0.50134 0.0
H513 H 0.02602 0.39016 0.49013 0.0
H514 H 0.09934 0.45817 0.38116 0.0
H515 H 0.08786 0.49223 0.49061 0.0
H516 H 1.00687 0.45949 0.50603 0.0
C517 C 0.03289 0.38117 0.27172 0.0
C518 C 0.05433 0.37195 0.22004 0.0
C519 C 0.07925 0.38585 0.22161 0.0
C520 C 0.08293 0.40856 0.274 0.0
C521 C 0.06144 0.41725 0.32448 0.0
C522 C 0.03687 0.40397 0.32364 0.0
C523 C 1.017 0.41742 0.38371 0.0
C524 C 0.99255 0.42837 0.33462 0.0
C525 C 1.0082 0.39795 0.45504 0.0
C526 C 0.03418 0.44018 0.41872 0.0
C527 C 0.05978 0.4398 0.38402 0.0
C528 C 0.0793 0.45861 0.40844 0.0
C529 C 0.07259 0.47798 0.47056 0.0
C530 C 0.04656 0.4785 0.50786 0.0
C531 C 0.02709 0.45954 0.47985 0.0
H532 H 0.89366 1.00792 0.20778 0.0
H533 H 0.82503 1.01092 0.03794 0.0
H534 H 0.85593 1.01242 0.91331 0.0
H535 H 0.93596 0.05311 0.09096 0.0
H536 H 0.96676 0.035 0.10929 0.0
H537 H 0.93968 0.03306 0.1861 0.0
H538 H 0.93899 0.98109 0.17488 0.0
H539 H 0.96599 0.98179 0.09741 0.0
H540 H 0.93461 0.96549 0.07246 0.0
H541 H 0.89505 1.01336 0.80669 0.0
H542 H 0.93822 1.01566 0.72857 0.0
H543 H 0.98161 1.01294 0.96821 0.0
C544 C 0.88521 1.00892 0.14423 0.0
C545 C 0.857 1.00934 0.13207 0.0
C546 C 0.84661 1.0106 0.04829 0.0
C547 C 0.86402 1.01142 0.97723 0.0
C548 C 0.89183 1.01094 0.99105 0.0
C549 C 0.90233 1.00978 0.07255 0.0
C550 C 0.93292 1.0096 0.07 0.0
C551 C 0.94452 0.03413 0.11699 0.0
C552 C 0.94379 0.98294 0.10598 0.0
C553 C 0.93812 1.0115 0.97487 0.0
C554 C 0.91415 1.01185 0.93021 0.0
C555 C 0.91388 1.01308 0.84137 0.0
C556 C 0.93862 1.01422 0.79737 0.0
C557 C 0.96351 1.01438 0.8418 0.0
C558 C 0.96305 1.0129 0.932 0.0
H559 H 0.50463 0.88323 0.16796 0.0
H560 H 0.57 0.83528 0.0663 0.0
H561 H 0.57586 0.86801 0.9483 0.0
H562 H 0.4765 0.9038 0.96377 0.0
H563 H 0.46822 0.93733 0.99861 0.0
H564 H 0.46884 0.91 0.07438 0.0
H565 H 0.50296 0.93653 0.16691 0.0
H566 H 0.50241 0.96385 0.09118 0.0
H567 H 0.53396 0.94836 0.11958 0.0
H568 H 0.57516 0.90644 0.84211 0.0
H569 H 0.56802 0.94747 0.75605 0.0
H570 H 0.50258 0.97087 0.92338 0.0
C571 C 0.52011 0.87968 0.12057 0.0
C572 C 0.53683 0.85664 0.12584 0.0
C573 C 0.55692 0.85268 0.06314 0.0
C574 C 0.5604 0.87121 0.99594 0.0
C575 C 0.54365 0.89375 0.99224 0.0
C576 C 0.52388 0.89811 0.0529 0.0
C577 C 0.50877 0.92414 0.03417 0.0
C578 C 0.47881 0.91847 0.0167 0.0
C579 C 0.51224 0.94441 0.1073 0.0
C580 C 0.52316 0.93372 0.95381 0.0
C581 C 0.54318 0.91584 0.93074 0.0
C582 C 0.55937 0.9204 0.8593 0.0
C583 C 0.55498 0.94368 0.81009 0.0
C584 C 0.53439 0.96219 0.83141 0.0
C585 C 0.51844 0.95711 0.90495 0.0
H586 H 0.6694 0.58603 0.18217 0.0
H587 H 0.69799 0.5037 0.19337 0.0
H588 H 0.66328 0.4902 0.08893 0.0
H589 H 0.59762 0.5679 0.15895 0.0
H590 H 0.58973 0.59496 0.08692 0.0
H591 H 0.61606 0.59919 0.16493 0.0
H592 H 0.65053 0.61094 0.04667 0.0
H593 H 0.62446 0.60754 0.96769 0.0
H594 H 0.655 0.58819 0.95841 0.0
H595 H 0.62691 0.48544 0.98205 0.0
H596 H 0.59198 0.48948 0.87274 0.0
H597 H 0.58542 0.57514 0.92342 0.0
C598 C 0.66815 0.56517 0.16268 0.0
C599 C 0.68631 0.54575 0.19602 0.0
C600 C 0.6842 0.51875 0.16897 0.0
C601 C 0.66453 0.51093 0.10969 0.0
C602 C 0.64695 0.53036 0.07773 0.0
C603 C 0.64846 0.55696 0.10289 0.0
C604 C 0.62709 0.57363 0.05677 0.0
C605 C 0.60642 0.58464 0.12073 0.0
C606 C 0.64006 0.59643 1.00427 0.0
C607 C 0.61417 0.55248 0.99941 0.0
C608 C 0.62577 0.52762 1.01429 0.0
C609 C 0.61771 0.5048 0.96991 0.0
C610 C 0.59774 0.50738 0.90753 0.0
C611 C 0.58578 0.53264 0.88856 0.0
C612 C 0.59389 0.5555 0.93651 0.0
H613 H 0.03985 0.70056 0.0999 0.0
H614 H 0.9789 0.67112 0.27513 0.0
H615 H 0.97328 0.63007 0.18728 0.0
H616 H 1.00854 0.67579 0.90578 0.0
H617 H 0.04002 0.66678 0.85614 0.0
H618 H 0.03894 0.69389 0.93211 0.0
H619 H 0.07576 0.6703 0.02198 0.0
H620 H 0.0769 0.64312 0.94632 0.0
H621 H 0.0705 0.63611 0.05734 0.0
H622 H 0.97443 0.59187 0.07914 0.0
H623 H 0.98229 0.55989 0.96148 0.0
H624 H 0.04308 0.61369 0.85655 0.0
C625 C 0.02525 0.68548 0.11926 0.0
C626 C 1.00967 0.68898 0.19407 0.0
C627 C 0.9909 0.66882 0.21784 0.0
C628 C 0.98761 0.64544 0.16829 0.0
C629 C 1.00326 0.64245 0.09482 0.0
C630 C 0.02172 0.66194 0.07031 0.0
C631 C 0.03621 0.65362 0.98901 0.0
C632 C 0.03058 0.67372 0.91647 0.0
C633 C 0.06665 0.65061 1.00463 0.0
C634 C 0.02308 0.62648 0.97163 0.0
C635 C 1.0041 0.62041 0.03335 0.0
C636 C 0.98931 0.59646 0.03065 0.0
C637 C 0.994 0.5783 0.96341 0.0
C638 C 1.01347 0.58391 0.89936 0.0
C639 C 0.02809 0.60851 0.90415 0.0
H640 H 0.0522 0.21246 0.28308 0.0
H641 H 0.02217 0.29034 0.36581 0.0
H642 H 1.01243 0.2712 0.50691 0.0
H643 H 0.99664 0.1816 0.354 0.0
H644 H 1.01171 0.15006 0.3836 0.0
H645 H 0.02694 0.17029 0.30169 0.0
H646 H 0.07204 0.17154 0.38217 0.0
H647 H 0.05806 0.15097 0.46638 0.0
H648 H 0.07313 0.18302 0.49105 0.0
H649 H 1.00003 0.24203 0.63391 0.0
H650 H 0.97864 0.20621 0.71895 0.0
H651 H 1.00605 0.14732 0.53331 0.0
C652 C 0.04375 0.22582 0.3303 0.0
C653 C 0.038 0.2531 0.31154 0.0
C654 C 0.02754 0.26958 0.37764 0.0
C655 C 0.02183 0.25883 0.45865 0.0
C656 C 0.0262 0.23146 0.47267 0.0
C657 C 0.03658 0.21514 0.40948 0.0
C658 C 0.03327 0.18565 0.43148 0.0
C659 C 1.01614 0.17106 0.36375 0.0
C660 C 0.06077 0.172 0.44343 0.0
C661 C 1.01849 0.1879 0.51539 0.0
C662 C 1.01577 0.21436 0.54035 0.0
C663 C 1.00187 0.22123 0.61436 0.0
C664 C 0.98933 0.20063 0.66157 0.0
C665 C 0.98953 0.17357 0.63226 0.0
C666 C 1.00536 0.16733 0.55975 0.0
H667 H 0.31216 0.02284 0.32398 0.0
H668 H 0.30792 0.10086 0.2038 0.0
H669 H 0.35077 0.11372 0.26955 0.0
H670 H 0.36178 0.04822 0.52008 0.0
H671 H 0.37811 1.01591 0.51445 0.0
H672 H 0.34203 1.01827 0.50218 0.0
H673 H 0.34588 0.99301 0.35918 0.0
H674 H 0.38166 0.99125 0.36871 0.0
H675 H 0.36698 1.00668 0.27554 0.0
H676 H 0.3986 0.10794 0.27094 0.0
H677 H 0.44391 0.08963 0.25021 0.0
H678 H 0.421 1.01706 0.38526 0.0
C679 C 0.31924 0.04342 0.31882 0.0
C680 C 0.30714 0.06089 0.2594 0.0
C681 C 0.31689 0.08743 0.25026 0.0
C682 C 0.34146 0.09475 0.28695 0.0
C683 C 0.35543 0.07549 0.33427 0.0
C684 C 0.34399 0.05078 0.35513 0.0
C685 C 0.36509 0.03171 0.39082 0.0
C686 C 0.36154 0.02834 0.48762 0.0
C687 C 0.36488 1.0041 0.34569 0.0
C688 C 0.39046 0.04754 0.37116 0.0
C689 C 0.38444 0.0731 0.34131 0.0
C690 C 0.40378 0.08879 0.29951 0.0
C691 C 0.42956 0.07814 0.28729 0.0
C692 C 0.4362 0.0524 0.31918 0.0
C693 C 0.41661 0.03732 0.36375 0.0
H694 H 0.55915 0.29174 0.3228 0.0
H695 H 0.4785 0.32423 0.31015 0.0
H696 H 0.48378 0.34322 0.45475 0.0
H697 H 0.56268 0.28298 0.56935 0.0
H698 H 0.5973 0.29406 0.56833 0.0
H699 H 0.58411 0.27488 0.48019 0.0
H700 H 0.59896 0.31256 0.37509 0.0
H701 H 0.61242 0.33134 0.46229 0.0
H702 H 0.58773 0.34658 0.3932 0.0
H703 H 0.50065 0.36693 0.57988 0.0
H704 H 0.52921 0.39927 0.65693 0.0
H705 H 0.60012 0.35375 0.58816 0.0
C706 C 0.54233 0.30192 0.35266 0.0
C707 C 0.51834 0.30635 0.30719 0.0
C708 C 0.49691 0.32053 0.3453 0.0
C709 C 0.49966 0.33103 0.42761 0.0
C710 C 0.52401 0.32719 0.47043 0.0
C711 C 0.54507 0.31301 0.43393 0.0
C712 C 0.57098 0.31689 0.48315 0.0
C713 C 0.57924 0.29064 0.52793 0.0
C714 C 0.59381 0.32751 0.42499 0.0
C715 C 0.56194 0.33771 0.54736 0.0
C716 C 0.53441 0.34214 0.54235 0.0
C717 C 0.52204 0.36321 0.58591 0.0
C718 C 0.53838 0.38149 0.62966 0.0
C719 C 0.56673 0.37882 0.62782 0.0
C720 C 0.57842 0.35568 0.59185 0.0
H721 H 0.26886 0.52963 0.35196 0.0
H722 H 0.21943 0.46301 0.26782 0.0
H723 H 0.18802 0.471 0.38618 0.0
H724 H 0.24638 0.52322 0.60038 0.0
H725 H 0.24816 0.55939 0.60736 0.0
H726 H 0.27243 0.54131 0.54383 0.0
H727 H 0.26009 0.57112 0.41455 0.0
H728 H 0.23536 0.58866 0.47572 0.0
H729 H 0.22558 0.57213 0.37835 0.0
H730 H 0.15467 0.49737 0.45974 0.0
H731 H 0.12588 0.53441 0.50081 0.0
H732 H 0.19676 0.58233 0.56254 0.0
C733 C 0.25249 0.51556 0.36265 0.0
C734 C 0.2463 0.49595 0.30081 0.0
C735 C 0.22436 0.47825 0.31459 0.0
C736 C 0.20646 0.48261 0.38199 0.0
C737 C 0.21128 0.50422 0.43648 0.0
C738 C 0.23451 0.51969 0.43037 0.0
C739 C 0.23249 0.54456 0.48596 0.0
C740 C 0.25095 0.54195 0.56403 0.0
C741 C 0.2387 0.57061 0.43553 0.0
C742 C 0.20314 0.54289 0.51222 0.0
C743 C 0.19155 0.51902 0.48564 0.0
C744 C 0.16371 0.51549 0.48523 0.0
C745 C 0.14732 0.53704 0.50925 0.0
C746 C 0.15865 0.562 0.53543 0.0
C747 C 0.18705 0.56404 0.54149 0.0
H748 H 0.02662 0.785 0.04704 0.0
H749 H 0.95633 0.82896 0.12968 0.0
H750 H 0.95772 0.85596 0.99844 0.0
H751 H 0.06319 0.83084 1.00247 0.0
H752 H 0.07967 0.82063 0.90521 0.0
H753 H 0.06543 0.79572 0.97386 0.0
H754 H 0.03617 0.77756 0.85077 0.0
H755 H 0.0507 0.8025 0.78039 0.0
H756 H 1.01464 0.80007 0.79195 0.0
H757 H 0.97752 0.88907 0.90908 0.0
H758 H 1.0113 0.92232 0.87612 0.0
H759 H 0.06945 0.85885 0.82719 0.0
C760 C 1.01054 0.79909 0.03383 0.0
C761 C 0.99143 0.80507 0.09753 0.0
C762 C 0.97108 0.82414 0.08106 0.0
C763 C 0.97166 0.83942 1.00615 0.0
C764 C 0.99266 0.8353 0.94819 0.0
C765 C 1.01131 0.81482 0.95951 0.0
C766 C 0.03535 0.81864 0.90058 0.0
C767 C 0.06244 0.81639 0.94853 0.0
C768 C 0.03412 0.7985 0.82652 0.0
C769 C 0.02998 0.84698 0.86875 0.0
C770 C 1.00442 0.8554 0.89205 0.0
C771 C 0.99715 0.88242 0.88774 0.0
C772 C 1.01696 0.9015 0.86837 0.0
C773 C 0.04398 0.89362 0.85176 0.0
C774 C 0.04948 0.86582 0.84323 0.0
H775 H 0.73941 0.03534 0.08093 0.0
H776 H 0.76407 0.10833 0.20727 0.0
H777 H 0.73147 0.13435 0.12184 0.0
H778 H 0.7116 0.06829 0.86775 0.0
H779 H 0.68396 0.04469 0.87078 0.0
H780 H 0.71698 0.03449 0.90614 0.0
H781 H 0.69645 1.01953 0.05074 0.0
H782 H 0.66379 0.02987 0.01671 0.0
H783 H 0.67781 0.04358 0.11334 0.0
H784 H 0.68831 0.14932 0.06098 0.0
H785 H 0.63932 0.15138 0.03832 0.0
H786 H 0.63957 0.06681 0.96873 0.0
C787 C 0.73915 0.0571 0.08523 0.0
C788 C 0.75453 0.07014 0.14787 0.0
C789 C 0.75294 0.09832 0.15712 0.0
C790 C 0.73441 0.11317 0.10886 0.0
C791 C 0.71751 0.09938 0.05268 0.0
C792 C 0.71999 0.07184 0.03988 0.0
C793 C 0.69542 0.06039 0.99576 0.0
C794 C 0.70242 0.05145 0.90469 0.0
C795 C 0.68263 0.03705 0.04732 0.0
C796 C 0.6776 0.08502 0.99444 0.0
C797 C 0.69112 0.10762 0.02284 0.0
C798 C 0.6777 0.13185 0.03702 0.0
C799 C 0.64969 0.13269 0.02535 0.0
C800 C 0.63517 0.10915 1.00277 0.0
C801 C 0.64972 0.08546 0.9837 0.0
H802 H 0.56707 0.70129 0.16336 0.0
H803 H 0.58303 0.77773 0.0369 0.0
H804 H 0.57628 0.75572 0.89872 0.0
H805 H 0.5974 0.65744 0.97836 0.0
H806 H 0.57231 0.63206 1.00018 0.0
H807 H 0.58712 0.65083 0.08671 0.0
H808 H 0.53983 0.66489 0.1382 0.0
H809 H 0.52464 0.64639 0.05376 0.0
H810 H 0.51737 0.68176 0.06523 0.0
H811 H 0.55335 0.7295 0.78272 0.0
H812 H 0.52195 0.70068 0.7018 0.0
H813 H 0.52389 0.6419 0.90684 0.0
C814 C 0.57095 0.71351 0.10781 0.0
C815 C 0.57449 0.74177 0.11313 0.0
C816 C 0.57895 0.75634 0.03623 0.0
C817 C 0.57567 0.74386 0.95668 0.0
C818 C 0.5694 0.71649 0.95467 0.0
C819 C 0.56837 0.70123 0.02849 0.0
C820 C 0.55748 0.67328 1.01181 0.0
C821 C 0.57993 0.65217 0.01978 0.0
C822 C 0.53341 0.66626 0.07058 0.0
C823 C 0.54901 0.67649 0.92008 0.0
C824 C 0.55699 0.70104 0.88667 0.0
C825 C 0.54777 0.70988 0.80737 0.0
C826 C 0.52954 0.69355 0.76242 0.0
C827 C 0.52028 0.66888 0.79773 0.0
C828 C 0.53109 0.66005 0.87608 0.0
H829 H 0.82505 0.5562 0.07731 0.0
H830 H 0.76896 0.49001 0.10878 0.0
H831 H 0.78395 0.47087 0.97123 0.0
H832 H 0.82066 0.5591 0.83191 0.0
H833 H 0.85601 0.56725 0.82473 0.0
H834 H 0.83635 0.57905 0.91391 0.0
H835 H 0.86999 0.55666 0.01866 0.0
H836 H 0.8897 0.54513 0.93027 0.0
H837 H 0.87728 0.52127 1.00788 0.0
H838 H 0.81245 0.45369 0.85363 0.0
H839 H 0.85183 0.44022 0.76753 0.0
H840 H 0.88669 0.51952 0.80134 0.0
C841 C 0.81543 0.53814 0.05342 0.0
C842 C 0.79601 0.52443 0.10262 0.0
C843 C 0.78381 0.50075 0.07097 0.0
C844 C 0.79205 0.48991 0.99286 0.0
C845 C 0.81193 0.50347 0.9465 0.0
C846 C 0.82309 0.5274 0.97491 0.0
C847 C 0.84643 0.53621 0.91935 0.0
C848 C 0.83943 0.56193 0.86951 0.0
C849 C 0.87235 0.54 0.97219 0.0
C850 C 0.8483 0.51226 0.86045 0.0
C851 C 0.8278 0.49389 0.87536 0.0
C852 C 0.82804 0.46827 0.839 0.0
C853 C 0.85045 0.46077 0.78996 0.0
C854 C 0.87221 0.47886 0.77849 0.0
C855 C 0.87019 0.50539 0.80938 0.0
H856 H 1.00646 0.20779 0.06095 0.0
H857 H 0.0654 0.25298 0.91347 0.0
H858 H 0.06712 0.21591 0.8087 0.0
H859 H 0.03752 0.1474 0.04768 0.0
H860 H 1.00823 0.12606 0.03632 0.0
H861 H 1.00565 0.15774 0.09101 0.0
H862 H 0.9685 0.17457 0.99196 0.0
H863 H 0.96887 0.14276 0.93684 0.0
H864 H 0.97329 0.17371 0.87814 0.0
H865 H 0.06441 0.17172 0.72354 0.0
H866 H 0.05956 0.12475 0.67257 0.0
H867 H 1.00683 0.10678 0.88578 0.0
C868 C 0.01974 0.21016 1.00664 0.0
C869 C 0.03598 0.23363 0.99671 0.0
C870 C 0.05245 0.23565 0.92287 0.0
C871 C 0.05369 0.2145 0.86297 0.0
C872 C 0.03833 0.19127 0.87718 0.0
C873 C 0.02153 0.18911 0.94716 0.0
C874 C 1.00865 0.16133 0.95196 0.0
C875 C 1.01543 0.14726 0.03669 0.0
C876 C 0.97801 0.1632 0.93896 0.0
C877 C 0.02198 0.14759 0.87654 0.0
C878 C 0.03824 0.16548 0.83221 0.0
C879 C 0.05185 0.15761 0.75834 0.0
C880 C 0.04897 0.13088 0.72974 0.0
C881 C 0.03317 0.11199 0.77584 0.0
C882 C 1.01943 0.12063 0.85001 0.0
H883 H 0.35441 1.00956 0.05952 0.0
H884 H 0.29865 0.03933 0.86931 0.0
H885 H 0.33555 0.03924 0.7619 0.0
H886 H 0.4088 0.04982 1.00013 0.0
H887 H 0.43427 0.02488 0.02116 0.0
H888 H 0.40289 0.02389 0.0787 0.0
H889 H 0.39484 0.97478 0.02913 0.0
H890 H 0.42639 0.97559 0.97211 0.0
H891 H 0.39573 0.96704 0.91694 0.0
H892 H 0.381 0.04115 0.67994 0.0
H893 H 0.42856 0.04205 0.6311 0.0
H894 H 0.45372 1.01052 0.87627 0.0
C895 C 0.34975 1.01551 0.99474 0.0
C896 C 0.32347 0.02437 0.97292 0.0
C897 C 0.3184 0.03208 0.88743 0.0
C898 C 0.33936 0.0323 0.8262 0.0
C899 C 0.3653 0.02452 0.85108 0.0
C900 C 0.37036 1.0159 0.93335 0.0
C901 C 0.40008 1.00999 0.94625 0.0
C902 C 0.41221 0.02823 0.01564 0.0
C903 C 0.40451 0.98007 0.96733 0.0
C904 C 0.41119 1.01702 0.85887 0.0
C905 C 0.39093 0.02531 0.80446 0.0
C906 C 0.39684 0.03416 0.72176 0.0
C907 C 0.42397 0.03449 0.6943 0.0
C908 C 0.445 0.02586 0.74897 0.0
C909 C 0.43823 1.01696 0.83223 0.0
H910 H 0.55142 0.3507 0.03914 0.0
H911 H 0.47591 0.31825 0.94642 0.0
H912 H 0.47061 0.35812 0.85218 0.0
H913 H 0.53319 0.41904 0.04454 0.0
H914 H 0.56514 0.43186 1.00725 0.0
H915 H 0.56364 0.40024 0.06351 0.0
H916 H 0.58749 0.37685 0.93717 0.0
H917 H 0.58889 0.40827 0.87944 0.0
H918 H 0.57316 0.37919 0.83196 0.0
H919 H 0.4711 0.40472 0.78136 0.0
H920 H 0.4803 0.45045 0.725 0.0
H921 H 0.55739 0.451 0.85419 0.0
C922 C 0.53405 0.35176 0.99758 0.0
C923 C 0.51411 0.33123 0.99973 0.0
C924 C 0.49158 0.33347 0.945 0.0
C925 C 0.48834 0.35618 0.89175 0.0
C926 C 0.50806 0.37635 0.8926 0.0
C927 C 0.53081 0.37402 0.94274 0.0
C928 C 0.5491 0.39844 0.93175 0.0
C929 C 0.55299 0.41326 0.01683 0.0
C930 C 0.57628 0.3902 0.89276 0.0
C931 C 0.5328 0.41526 0.86949 0.0
C932 C 0.50905 0.4023 0.84831 0.0
C933 C 0.48986 0.41475 0.79655 0.0
C934 C 0.49518 0.44085 0.76522 0.0
C935 C 0.51962 0.45431 0.78462 0.0
C936 C 0.53872 0.44111 0.83702 0.0
H937 H 0.20169 0.47935 0.03409 0.0
H938 H 0.24565 0.54903 0.94029 0.0
H939 H 0.20722 0.56017 0.84593 0.0
H940 H 0.16658 0.46201 0.83649 0.0
H941 H 0.13588 0.45301 0.89111 0.0
H942 H 0.16785 0.4488 0.94361 0.0
H943 H 0.15143 0.47799 0.06898 0.0
H944 H 0.11944 0.48293 0.01783 0.0
H945 H 0.13929 0.5116 0.04867 0.0
H946 H 0.16111 0.56627 0.77246 0.0
H947 H 0.11385 0.56519 0.72314 0.0
H948 H 0.10034 0.49151 0.86396 0.0
C949 C 0.20351 0.49683 0.99308 0.0
C950 C 0.22699 0.51331 0.99533 0.0
C951 C 0.22827 0.53581 0.93953 0.0
C952 C 0.20634 0.54243 0.88608 0.0
C953 C 0.18315 0.52635 0.88848 0.0
C954 C 0.1818 0.50381 0.94006 0.0
C955 C 0.15416 0.49062 0.9351 0.0
C956 C 0.15625 0.4619 0.89947 0.0
C957 C 0.14028 0.49079 0.02286 0.0
C958 C 0.13994 0.50924 0.87287 0.0
C959 C 0.15699 0.52972 0.84649 0.0
C960 C 0.14794 0.54991 0.79155 0.0
C961 C 0.12109 0.54894 0.7625 0.0
C962 C 0.10336 0.52784 0.78683 0.0
C963 C 0.1131 0.50789 0.84363 0.0
H964 H 0.98162 0.85805 0.34999 0.0
H965 H 0.04773 0.81237 0.45881 0.0
H966 H 0.05868 0.85097 0.5518 0.0
H967 H 1.0173 0.91996 0.3383 0.0
H968 H 0.98865 0.94071 0.36264 0.0
H969 H 0.98383 0.90877 0.31091 0.0
H970 H 0.95123 0.89332 0.43008 0.0
H971 H 0.95529 0.92535 0.48209 0.0
H972 H 0.96197 0.89466 0.53973 0.0
H973 H 0.06438 0.89676 0.62716 0.0
H974 H 0.06341 0.94366 0.67844 0.0
H975 H 0.99455 0.95974 0.51681 0.0
C976 C 0.99849 0.85593 0.39305 0.0
C977 C 1.01379 0.83171 0.39589 0.0
C978 C 0.0353 0.83021 0.45531 0.0
C979 C 0.04186 0.85226 0.50818 0.0
C980 C 0.02685 0.87597 0.50141 0.0
C981 C 1.00552 0.87783 0.44537 0.0
C982 C 0.99324 0.90586 0.44716 0.0
C983 C 0.99591 0.91962 0.35955 0.0
C984 C 0.96368 0.90472 0.47652 0.0
C985 C 1.0109 0.9196 0.51311 0.0
C986 C 0.03017 0.90204 0.54385 0.0
C987 C 0.04914 0.91046 0.60383 0.0
C988 C 0.04829 0.93727 0.63318 0.0
C989 C 0.02848 0.95567 0.6037 0.0
C990 C 1.00972 0.94644 0.54211 0.0
H991 H 0.69962 1.01675 0.31853 0.0
H992 H 0.75562 0.02973 0.52579 0.0
H993 H 0.71751 0.0276 0.62906 0.0
H994 H 0.64809 0.05776 0.39581 0.0
H995 H 0.62095 0.03658 0.35923 0.0
H996 H 0.65284 0.03636 0.30441 0.0
H997 H 0.65634 0.98474 0.326 0.0
H998 H 0.6243 0.98476 0.38022 0.0
H999 H 0.65353 0.97078 0.43188 0.0
H1000 H 0.67098 0.02858 0.70812 0.0
H1001 H 0.62301 0.02924 0.7533 0.0
H1002 H 0.59889 1.01518 0.49141 0.0
C1003 C 0.70399 1.01859 0.38589 0.0
C1004 C 0.73071 0.02329 0.41406 0.0
C1005 C 0.73545 0.02575 0.50273 0.0
C1006 C 0.71384 0.02477 0.56171 0.0
C1007 C 0.68758 1.02104 0.53118 0.0
C1008 C 0.68279 1.0176 0.44509 0.0
C1009 C 0.6529 1.01492 0.42696 0.0
C1010 C 0.64314 0.03776 0.36815 0.0
C1011 C 0.64639 0.98715 0.38904 0.0
C1012 C 0.64137 1.01772 0.51598 0.0
C1013 C 0.66151 0.02127 0.57567 0.0
C1014 C 0.6552 0.02544 0.66165 0.0
C1015 C 0.62781 0.02584 0.68684 0.0
C1016 C 0.60688 0.02202 0.62647 0.0
C1017 C 0.61412 1.01784 0.54001 0.0
H1018 H 0.5855 0.71839 0.43955 0.0
H1019 H 0.50121 0.7336 0.3873 0.0
H1020 H 0.48883 0.69183 0.46438 0.0
H1021 H 0.58452 0.64868 0.41 0.0
H1022 H 0.60797 0.64213 0.49537 0.0
H1023 H 0.60851 0.67407 0.44192 0.0
H1024 H 0.60353 0.69598 0.5914 0.0
H1025 H 0.60114 0.66338 0.64185 0.0
H1026 H 0.57476 0.68773 0.65645 0.0
H1027 H 0.48662 0.64398 0.52026 0.0
H1028 H 0.49367 0.5981 0.5775 0.0
H1029 H 0.5787 0.61502 0.60858 0.0
C1030 C 0.56437 0.71343 0.44729 0.0
C1031 C 0.54428 0.72957 0.40814 0.0
C1032 C 0.5169 0.72202 0.41814 0.0
C1033 C 0.50971 0.69811 0.4611 0.0
C1034 C 0.53007 0.68206 0.49551 0.0
C1035 C 0.5568 0.68984 0.49151 0.0
C1036 C 0.57484 0.66846 0.5311 0.0
C1037 C 0.59511 0.65769 0.46546 0.0
C1038 C 0.58942 0.67954 0.6099 0.0
C1039 C 0.5542 0.64703 0.55559 0.0
C1040 C 0.52851 0.65522 0.53345 0.0
C1041 C 0.50649 0.63781 0.5407 0.0
C1042 C 0.51065 0.61174 0.57338 0.0
C1043 C 0.53645 0.60337 0.60069 0.0
C1044 C 0.55856 0.62122 0.59087 0.0
H1045 H 0.84898 0.51002 0.34758 0.0
H1046 H 0.81228 0.57945 0.46846 0.0
H1047 H 0.85136 0.58266 0.56565 0.0
H1048 H 0.87881 0.48141 0.53386 0.0
H1049 H 0.90962 0.47095 0.48233 0.0
H1050 H 0.87873 0.4729 0.42241 0.0
H1051 H 0.90026 0.50513 0.31363 0.0
H1052 H 0.93184 0.50339 0.36983 0.0
H1053 H 0.91636 0.53557 0.34971 0.0
H1054 H 0.89657 0.58005 0.64436 0.0
H1055 H 0.94252 0.57133 0.69837 0.0
H1056 H 0.9502 0.50395 0.52534 0.0
C1057 C 0.84901 0.52611 0.39394 0.0
C1058 C 0.82715 0.54461 0.39912 0.0
C1059 C 0.82827 0.56477 0.46295 0.0
C1060 C 0.85062 0.56689 0.51828 0.0
C1061 C 0.87194 0.54871 0.5097 0.0
C1062 C 0.87124 0.52866 0.44905 0.0
C1063 C 0.89698 0.51201 0.45123 0.0
C1064 C 0.89068 0.48255 0.47382 0.0
C1065 C 0.91226 0.51415 0.36605 0.0
C1066 C 0.91243 0.52581 0.52247 0.0
C1067 C 0.89763 0.54699 0.55528 0.0
C1068 C 0.90812 0.5634 0.61925 0.0
C1069 C 0.93434 0.55832 0.64952 0.0
C1070 C 0.95006 0.53695 0.6164 0.0
C1071 C 0.93864 0.52024 0.55281 0.0
loop_
_geom_bond_atom_site_label_1
_geom_bond_atom_site_label_2
_geom_bond_distance
_geom_bond_site_symmetry_2
_ccdc_geom_bond_type
H0 C3 0.929 . S
H1 C6 0.929 . S
H2 C8 0.930 . S
C3 H0 0.929 . S
C3 C4 1.398 . S
C3 C5 1.396 . S
C4 C3 1.398 . S
C4 C8 1.407 . S
C5 C3 1.396 . S
C5 C6 1.394 . S
C6 H1 0.929 . S
C6 C5 1.394 . S
C6 C7 1.382 . S
C7 C6 1.382 . S
C7 C8 1.392 . S
C7 N9 1.420 . S
C8 H2 0.930 . S
C8 C4 1.407 . S
C8 C7 1.392 . S
N9 C7 1.420 . S
N9 C10 1.244 . S
C10 N9 1.244 . S
H11 C14 0.929 . S
H12 C17 0.929 . S
H13 C19 0.930 . S
C14 H11 0.929 . S
C14 C15 1.398 . S
C14 C16 1.396 . S
C15 C14 1.398 . S
C15 C19 1.407 . S
C16 C14 1.396 . S
C16 C17 1.394 . S
C17 H12 0.929 . S
C17 C16 1.394 . S
C17 C18 1.382 . S
C18 C17 1.382 . S
C18 C19 1.392 . S
C18 N20 1.420 . S
C19 H13 0.930 . S
C19 C15 1.407 . S
C19 C18 1.392 . S
N20 C18 1.420 . S
N20 C21 1.244 . S
C21 N20 1.244 . S
H22 C25 0.929 . S
H23 C28 0.929 . S
H24 C30 0.930 . S
C25 H22 0.929 . S
C25 C26 1.398 . S
C25 C27 1.396 . S
C26 C25 1.398 . S
C26 C30 1.407 . S
C27 C25 1.396 . S
C27 C28 1.394 . S
C28 H23 0.929 . S
C28 C27 1.394 . S
C28 C29 1.382 . S
C29 C28 1.382 . S
C29 C30 1.392 . S
C29 N31 1.420 . S
C30 H24 0.930 . S
C30 C26 1.407 . S
C30 C29 1.392 . S
N31 C29 1.420 . S
N31 C32 1.244 . S
C32 N31 1.244 . S
H33 C36 0.929 . S
H34 C39 0.929 . S
H35 C41 0.930 . S
C36 H33 0.929 . S
C36 C37 1.398 . S
C36 C38 1.396 . S
C37 C36 1.398 . S
C37 C41 1.407 . S
C38 C36 1.396 . S
C38 C39 1.394 . S
C39 H34 0.929 . S
C39 C38 1.394 . S
C39 C40 1.382 . S
C40 C39 1.382 . S
C40 C41 1.392 . S
C40 N42 1.420 . S
C41 H35 0.930 . S
C41 C37 1.407 . S
C41 C40 1.392 . S
N42 C40 1.420 . S
N42 C43 1.244 . S
C43 N42 1.244 . S
H44 C47 0.929 . S
H45 C50 0.929 . S
H46 C52 0.930 . S
C47 H44 0.929 . S
C47 C48 1.398 1_554 S
C47 C49 1.396 . S
C48 C47 1.398 1_556 S
C48 C52 1.407 . S
C49 C47 1.396 . S
C49 C50 1.394 . S
C50 H45 0.929 . S
C50 C49 1.394 . S
C50 C51 1.382 . S
C51 C50 1.382 . S
C51 C52 1.392 1_554 S
C51 N53 1.420 . S
C52 H46 0.930 . S
C52 C48 1.407 . S
C52 C51 1.392 1_556 S
N53 C51 1.420 . S
N53 C54 1.244 . S
C54 N53 1.244 . S
H55 C58 0.929 . S
H56 C61 0.929 . S
H57 C63 0.930 . S
C58 H55 0.929 . S
C58 C59 1.398 1_554 S
C58 C60 1.396 . S
C59 C58 1.398 1_556 S
C59 C63 1.407 . S
C60 C58 1.396 . S
C60 C61 1.394 . S
C61 H56 0.929 . S
C61 C60 1.394 . S
C61 C62 1.382 . S
C62 C61 1.382 . S
C62 C63 1.392 1_554 S
C62 N64 1.420 . S
C63 H57 0.930 . S
C63 C59 1.407 . S
C63 C62 1.392 1_556 S
N64 C62 1.420 . S
N64 C65 1.244 . S
C65 N64 1.244 . S
H66 C69 0.929 . S
H67 C72 0.929 . S
H68 C74 0.930 . S
C69 H66 0.929 . S
C69 C70 1.398 1_554 S
C69 C71 1.396 . S
C70 C69 1.398 1_556 S
C70 C74 1.407 . S
C71 C69 1.396 . S
C71 C72 1.394 . S
C72 H67 0.929 . S
C72 C71 1.394 . S
C72 C73 1.382 . S
C73 C72 1.382 . S
C73 C74 1.392 1_554 S
C73 N75 1.420 . S
C74 H68 0.930 . S
C74 C70 1.407 . S
C74 C73 1.392 1_556 S
N75 C73 1.420 . S
N75 C76 1.244 . S
C76 N75 1.244 . S
H77 C80 0.929 . S
H78 C83 0.929 . S
H79 C85 0.930 . S
C80 H77 0.929 . S
C80 C81 1.398 1_554 S
C80 C82 1.396 . S
C81 C80 1.398 1_556 S
C81 C85 1.407 . S
C82 C80 1.396 . S
C82 C83 1.394 . S
C83 H78 0.929 . S
C83 C82 1.394 . S
C83 C84 1.382 . S
C84 C83 1.382 . S
C84 C85 1.392 1_554 S
C84 N86 1.420 . S
C85 H79 0.930 . S
C85 C81 1.407 . S
C85 C84 1.392 1_556 S
N86 C84 1.420 . S
N86 C87 1.244 . S
C87 N86 1.244 . S
Eu88 N117 2.600 . S
Eu88 N123 2.562 . S
Eu88 O132 2.462 1_655 S
Eu88 O133 2.373 1_545 S
Eu88 O135 2.432 . S
Eu88 O136 2.291 1_655 S
Eu88 O140 2.335 1_655 S
Eu88 O143 2.372 . S
Eu88 C152 2.787 . S
C89 N90 1.365 . S
C89 C92 1.405 . S
C89 C96 1.448 . S
N90 C89 1.365 . S
N90 C93 1.319 . S
N90 Eu99 2.600 1_545 S
C91 C93 1.397 . S
C91 C94 1.367 . S
C91 H111 0.931 . S
C92 C89 1.405 . S
C92 C94 1.403 . S
C92 C98 1.439 1_556 S
C93 N90 1.319 . S
C93 C91 1.397 . S
C93 H104 0.930 1_545 S
C94 C91 1.367 . S
C94 C92 1.403 . S
C94 H115 0.929 . S
C95 C96 1.430 1_554 S
C95 C97 1.387 . S
C95 C101 1.404 . S
C96 C89 1.448 . S
C96 C95 1.430 1_556 S
C96 N100 1.351 . S
C97 C95 1.387 . S
C97 C98 1.374 . S
C97 H112 0.931 . S
C98 C92 1.439 1_554 S
C98 C97 1.374 . S
C98 H113 0.931 . S
Eu99 N90 2.600 1_565 S
Eu99 N100 2.562 1_565 S
Eu99 O134 2.335 . S
Eu99 O137 2.372 . S
Eu99 O138 2.462 . S
Eu99 O139 2.373 1_565 S
Eu99 O141 2.432 . S
Eu99 O142 2.291 1_465 S
Eu99 C163 2.787 . S
N100 C96 1.351 . S
N100 Eu99 2.562 1_545 S
N100 C102 1.325 . S
C101 C95 1.404 . S
C101 C103 1.366 . S
C101 H109 0.930 . S
C102 N100 1.325 . S
C102 C103 1.416 1_556 S
C102 H108 0.929 1_455 S
C103 C101 1.366 . S
C103 C102 1.416 1_554 S
C103 H105 0.930 1_455 S
H104 C93 0.930 1_565 S
H105 C103 0.930 1_655 S
H106 C121 0.930 . S
H107 C128 0.930 . S
H108 C102 0.929 1_655 S
H109 C101 0.930 . S
H110 C124 0.929 . S
H111 C91 0.931 . S
H112 C97 0.931 . S
H113 C98 0.931 . S
H114 C119 0.931 . S
H115 C94 0.929 . S
H116 C127 0.930 . S
N117 Eu88 2.600 . S
N117 C118 1.365 . S
N117 C121 1.319 . S
C118 N117 1.365 . S
C118 C120 1.405 1_545 S
C118 C126 1.452 . S
C119 H114 0.931 . S
C119 C121 1.397 . S
C119 C122 1.367 1_545 S
C120 C118 1.405 1_565 S
C120 C122 1.403 . S
C120 C153 1.439 . S
C121 H106 0.930 . S
C121 N117 1.319 . S
C121 C119 1.397 . S
C122 C119 1.367 1_565 S
C122 C120 1.403 . S
C122 H129 0.929 . S
N123 Eu88 2.562 . S
N123 C124 1.325 1_655 S
N123 C126 1.368 . S
C124 H110 0.929 . S
C124 N123 1.325 1_455 S
C124 C128 1.416 1_545 S
C125 C126 1.410 1_565 S
C125 C127 1.404 . S
C125 C154 1.387 . S
C126 C118 1.452 . S
C126 N123 1.368 . S
C126 C125 1.410 1_545 S
C127 H116 0.930 . S
C127 C125 1.404 . S
C127 C128 1.366 1_655 S
C128 H107 0.930 . S
C128 C124 1.416 1_565 S
C128 C127 1.366 1_455 S
H129 C122 0.929 . S
H130 C153 0.931 . S
H131 C154 0.931 . S
O132 Eu88 2.462 1_455 S
O132 C152 1.252 1_455 S
O133 Eu88 2.373 1_565 S
O133 C144 1.249 . S
O134 Eu99 2.335 . S
O134 C144 1.264 1_455 S
O135 Eu88 2.432 . S
O135 C152 1.268 . S
O136 Eu88 2.291 1_455 S
O136 C151 1.255 . S
O137 Eu99 2.372 . S
O137 C151 1.257 1_565 S
O138 Eu99 2.462 . S
O138 C163 1.252 . S
O139 Eu99 2.373 1_545 S
O139 C155 1.249 . S
O140 Eu88 2.335 1_455 S
O140 C155 1.264 . S
O141 Eu99 2.432 . S
O141 C163 1.268 . S
O142 Eu99 2.291 1_645 S
O142 C162 1.255 . S
O143 Eu88 2.372 . S
O143 C162 1.257 . S
C144 O133 1.249 . S
C144 O134 1.264 1_655 S
C145 C148 1.382 . S
C145 C150 1.390 . S
C145 C152 1.506 . S
C146 C147 1.398 . S
C146 C150 1.392 . S
C147 C146 1.398 . S
C147 C149 1.372 . S
C147 H164 0.931 . S
C148 C145 1.382 . S
C148 C149 1.390 . S
C148 H165 0.931 . S
C149 C147 1.372 . S
C149 C148 1.390 . S
C149 H166 0.929 . S
C150 C145 1.390 . S
C150 C146 1.392 . S
C150 H167 0.930 1_655 S
C151 O136 1.255 . S
C151 O137 1.257 1_545 S
C152 Eu88 2.787 . S
C152 O132 1.252 1_655 S
C152 O135 1.268 . S
C152 C145 1.506 . S
C153 C120 1.439 . S
C153 H130 0.931 . S
C153 C154 1.374 . S
C154 C125 1.387 . S
C154 H131 0.931 . S
C154 C153 1.374 . S
C155 O139 1.249 . S
C155 O140 1.264 . S
C156 C159 1.382 . S
C156 C160 1.390 . S
C156 C163 1.506 . S
C157 C158 1.398 . S
C157 C160 1.392 . S
C158 C157 1.398 . S
C158 C161 1.372 . S
C158 H168 0.931 1_556 S
C159 C156 1.382 . S
C159 C161 1.390 . S
C159 H169 0.931 . S
C160 C156 1.390 . S
C160 C157 1.392 . S
C160 H170 0.930 . S
C161 C158 1.372 . S
C161 C159 1.390 . S
C161 H171 0.929 . S
C162 O142 1.255 . S
C162 O143 1.257 . S
C163 Eu99 2.787 . S
C163 O138 1.252 . S
C163 O141 1.268 . S
C163 C156 1.506 . S
H164 C147 0.931 . S
H165 C148 0.931 . S
H166 C149 0.929 . S
H167 C150 0.930 1_455 S
H168 C158 0.931 1_554 S
H169 C159 0.931 . S
H170 C160 0.930 . S
H171 C161 0.929 . S
Eu172 N201 2.600 . S
Eu172 N207 2.562 . S
Eu172 O216 2.462 . S
Eu172 O217 2.373 . S
Eu172 O219 2.432 . S
Eu172 O220 2.291 . S
Eu172 O224 2.335 1_545 S
Eu172 O227 2.372 . S
Eu172 C236 2.787 . S
C173 N174 1.365 . S
C173 C176 1.405 . S
C173 C180 1.448 . S
N174 C173 1.365 . S
N174 C177 1.319 . S
N174 Eu183 2.600 . S
C175 C177 1.397 . S
C175 C178 1.367 . S
C175 H195 0.931 . S
C176 C173 1.405 . S
C176 C178 1.403 . S
C176 C182 1.439 . S
C177 N174 1.319 . S
C177 C175 1.397 . S
C177 H188 0.930 . S
C178 C175 1.367 . S
C178 C176 1.403 . S
C178 H199 0.929 . S
C179 C180 1.430 . S
C179 C181 1.387 . S
C179 C185 1.404 . S
C180 C173 1.448 . S
C180 C179 1.430 . S
C180 N184 1.351 . S
C181 C179 1.387 . S
C181 C182 1.374 . S
C181 H196 0.931 . S
C182 C176 1.439 . S
C182 C181 1.374 . S
C182 H197 0.931 . S
Eu183 N174 2.600 . S
Eu183 N184 2.562 . S
Eu183 O218 2.335 1_565 S
Eu183 O221 2.372 . S
Eu183 O222 2.462 . S
Eu183 O223 2.373 . S
Eu183 O225 2.432 . S
Eu183 O226 2.291 1_565 S
Eu183 C247 2.787 . S
N184 C180 1.351 . S
N184 Eu183 2.562 . S
N184 C186 1.325 . S
C185 C179 1.404 . S
C185 C187 1.366 . S
C185 H193 0.930 . S
C186 N184 1.325 . S
C186 C187 1.416 . S
C186 H192 0.929 . S
C187 C185 1.366 . S
C187 C186 1.416 . S
C187 H189 0.930 . S
H188 C177 0.930 . S
H189 C187 0.930 . S
H190 C205 0.930 . S
H191 C212 0.930 . S
H192 C186 0.929 . S
H193 C185 0.930 . S
H194 C208 0.929 . S
H195 C175 0.931 . S
H196 C181 0.931 . S
H197 C182 0.931 . S
H198 C203 0.931 . S
H199 C178 0.929 . S
H200 C211 0.930 . S
N201 Eu172 2.600 . S
N201 C202 1.365 . S
N201 C205 1.319 . S
C202 N201 1.365 . S
C202 C204 1.405 . S
C202 C210 1.448 . S
C203 H198 0.931 . S
C203 C205 1.397 . S
C203 C206 1.367 . S
C204 C202 1.405 . S
C204 C206 1.403 . S
C204 C237 1.439 . S
C205 H190 0.930 . S
C205 N201 1.319 . S
C205 C203 1.397 . S
C206 C203 1.367 . S
C206 C204 1.403 . S
C206 H213 0.929 . S
N207 Eu172 2.562 . S
N207 C208 1.325 . S
N207 C210 1.351 . S
C208 H194 0.929 . S
C208 N207 1.325 . S
C208 C212 1.416 . S
C209 C210 1.430 . S
C209 C211 1.404 . S
C209 C238 1.387 . S
C210 C202 1.448 . S
C210 N207 1.351 . S
C210 C209 1.430 . S
C211 H200 0.930 . S
C211 C209 1.404 . S
C211 C212 1.366 . S
C212 H191 0.930 . S
C212 C208 1.416 . S
C212 C211 1.366 . S
H213 C206 0.929 . S
H214 C237 0.931 . S
H215 C238 0.931 . S
O216 Eu172 2.462 . S
O216 C236 1.252 . S
O217 Eu172 2.373 . S
O217 C228 1.249 . S
O218 Eu183 2.335 1_545 S
O218 C228 1.264 . S
O219 Eu172 2.432 . S
O219 C236 1.268 . S
O220 Eu172 2.291 . S
O220 C235 1.255 . S
O221 Eu183 2.372 . S
O221 C235 1.257 1_565 S
O222 Eu183 2.462 . S
O222 C247 1.252 . S
O223 Eu183 2.373 . S
O223 C239 1.249 . S
O224 Eu172 2.335 1_565 S
O224 C239 1.264 . S
O225 Eu183 2.432 . S
O225 C247 1.268 . S
O226 Eu183 2.291 1_545 S
O226 C246 1.255 . S
O227 Eu172 2.372 . S
O227 C246 1.257 . S
C228 O217 1.249 . S
C228 O218 1.264 . S
C229 C232 1.382 1_556 S
C229 C234 1.390 . S
C229 C236 1.506 . S
C230 C231 1.398 . S
C230 C234 1.392 1_554 S
C231 C230 1.398 . S
C231 C233 1.372 . S
C231 H248 0.931 . S
C232 C229 1.382 1_554 S
C232 C233 1.390 . S
C232 H249 0.931 . S
C233 C231 1.372 . S
C233 C232 1.390 . S
C233 H250 0.929 . S
C234 C229 1.390 . S
C234 C230 1.392 1_556 S
C234 H251 0.930 . S
C235 O220 1.255 . S
C235 O221 1.257 1_545 S
C236 Eu172 2.787 . S
C236 O216 1.252 . S
C236 O219 1.268 . S
C236 C229 1.506 . S
C237 C204 1.439 . S
C237 H214 0.931 . S
C237 C238 1.374 . S
C238 C209 1.387 . S
C238 H215 0.931 . S
C238 C237 1.374 . S
C239 O223 1.249 . S
C239 O224 1.264 . S
C240 C243 1.382 . S
C240 C244 1.390 1_565 S
C240 C247 1.506 . S
C241 C242 1.398 1_545 S
C241 C244 1.392 . S
C242 C241 1.398 1_565 S
C242 C245 1.372 . S
C242 H252 0.931 . S
C243 C240 1.382 . S
C243 C245 1.390 . S
C243 H253 0.931 . S
C244 C240 1.390 1_545 S
C244 C241 1.392 . S
C244 H254 0.930 . S
C245 C242 1.372 . S
C245 C243 1.390 . S
C245 H255 0.929 . S
C246 O226 1.255 . S
C246 O227 1.257 . S
C247 Eu183 2.787 . S
C247 O222 1.252 . S
C247 O225 1.268 . S
C247 C240 1.506 . S
H248 C231 0.931 . S
H249 C232 0.931 . S
H250 C233 0.929 . S
H251 C234 0.930 . S
H252 C242 0.931 . S
H253 C243 0.931 . S
H254 C244 0.930 . S
H255 C245 0.929 . S
Eu256 N285 2.600 . S
Eu256 N291 2.562 . S
Eu256 O300 2.462 . S
Eu256 O301 2.373 . S
Eu256 O303 2.432 . S
Eu256 O304 2.291 . S
Eu256 O308 2.335 . S
Eu256 O311 2.372 . S
Eu256 C320 2.787 . S
C257 N258 1.365 . S
C257 C260 1.405 . S
C257 C264 1.448 . S
N258 C257 1.365 . S
N258 C261 1.319 . S
N258 Eu267 2.600 . S
C259 C261 1.397 . S
C259 C262 1.367 . S
C259 H279 0.931 . S
C260 C257 1.405 . S
C260 C262 1.403 . S
C260 C266 1.439 1_556 S
C261 N258 1.319 . S
C261 C259 1.397 . S
C261 H272 0.930 . S
C262 C259 1.367 . S
C262 C260 1.403 . S
C262 H283 0.929 . S
C263 C264 1.430 1_554 S
C263 C265 1.387 . S
C263 C269 1.404 . S
C264 C257 1.448 . S
C264 C263 1.430 1_556 S
C264 N268 1.351 . S
C265 C263 1.387 . S
C265 C266 1.374 . S
C265 H280 0.931 . S
C266 C260 1.439 1_554 S
C266 C265 1.374 . S
C266 H281 0.931 . S
Eu267 N258 2.600 . S
Eu267 N268 2.562 . S
Eu267 O302 2.335 . S
Eu267 O305 2.372 . S
Eu267 O306 2.462 . S
Eu267 O307 2.373 . S
Eu267 O309 2.432 . S
Eu267 O310 2.291 . S
Eu267 C331 2.787 . S
N268 C264 1.351 . S
N268 Eu267 2.562 . S
N268 C270 1.325 . S
C269 C263 1.404 . S
C269 C271 1.366 . S
C269 H277 0.930 . S
C270 N268 1.325 . S
C270 C271 1.416 1_556 S
C270 H276 0.929 . S
C271 C269 1.366 . S
C271 C270 1.416 1_554 S
C271 H273 0.930 . S
H272 C261 0.930 . S
H273 C271 0.930 . S
H274 C289 0.930 . S
H275 C296 0.930 . S
H276 C270 0.929 . S
H277 C269 0.930 . S
H278 C292 0.929 . S
H279 C259 0.931 . S
H280 C265 0.931 . S
H281 C266 0.931 . S
H282 C287 0.931 . S
H283 C262 0.929 . S
H284 C295 0.930 . S
N285 Eu256 2.600 . S
N285 C286 1.365 . S
N285 C289 1.319 . S
C286 N285 1.365 . S
C286 C288 1.405 . S
C286 C294 1.448 . S
C287 H282 0.931 . S
C287 C289 1.397 . S
C287 C290 1.367 . S
C288 C286 1.405 . S
C288 C290 1.403 . S
C288 C321 1.439 . S
C289 H274 0.930 . S
C289 N285 1.319 . S
C289 C287 1.397 . S
C290 C287 1.367 . S
C290 C288 1.403 . S
C290 H297 0.929 . S
N291 Eu256 2.562 . S
N291 C292 1.325 . S
N291 C294 1.351 . S
C292 H278 0.929 . S
C292 N291 1.325 . S
C292 C296 1.416 . S
C293 C294 1.430 . S
C293 C295 1.404 . S
C293 C322 1.387 . S
C294 C286 1.448 . S
C294 N291 1.351 . S
C294 C293 1.430 . S
C295 H284 0.930 . S
C295 C293 1.404 . S
C295 C296 1.366 . S
C296 H275 0.930 . S
C296 C292 1.416 . S
C296 C295 1.366 . S
H297 C290 0.929 . S
H298 C321 0.931 . S
H299 C322 0.931 . S
O300 Eu256 2.462 . S
O300 C320 1.252 . S
O301 Eu256 2.373 . S
O301 C312 1.249 . S
O302 Eu267 2.335 . S
O302 C312 1.264 . S
O303 Eu256 2.432 . S
O303 C320 1.268 . S
O304 Eu256 2.291 . S
O304 C319 1.255 . S
O305 Eu267 2.372 . S
O305 C319 1.257 . S
O306 Eu267 2.462 . S
O306 C331 1.252 . S
O307 Eu267 2.373 . S
O307 C323 1.249 . S
O308 Eu256 2.335 . S
O308 C323 1.264 . S
O309 Eu267 2.432 . S
O309 C331 1.268 . S
O310 Eu267 2.291 . S
O310 C330 1.255 . S
O311 Eu256 2.372 . S
O311 C330 1.257 . S
C312 O301 1.249 . S
C312 O302 1.264 . S
C313 C316 1.382 . S
C313 C318 1.390 . S
C313 C320 1.506 . S
C314 C315 1.398 . S
C314 C318 1.392 . S
C315 C314 1.398 . S
C315 C317 1.372 . S
C315 H332 0.931 . S
C316 C313 1.382 . S
C316 C317 1.390 . S
C316 H333 0.931 . S
C317 C315 1.372 . S
C317 C316 1.390 . S
C317 H334 0.929 . S
C318 C313 1.390 . S
C318 C314 1.392 . S
C318 H335 0.930 . S
C319 O304 1.255 . S
C319 O305 1.257 . S
C320 Eu256 2.787 . S
C320 O300 1.252 . S
C320 O303 1.268 . S
C320 C313 1.506 . S
C321 C288 1.439 . S
C321 H298 0.931 . S
C321 C322 1.374 . S
C322 C293 1.387 . S
C322 H299 0.931 . S
C322 C321 1.374 . S
C323 O307 1.249 . S
C323 O308 1.264 . S
C324 C327 1.382 . S
C324 C328 1.390 . S
C324 C331 1.506 . S
C325 C326 1.398 . S
C325 C328 1.392 . S
C326 C325 1.398 . S
C326 C329 1.372 . S
C326 H336 0.931 1_556 S
C327 C324 1.382 . S
C327 C329 1.390 . S
C327 H337 0.931 . S
C328 C324 1.390 . S
C328 C325 1.392 . S
C328 H338 0.930 . S
C329 C326 1.372 . S
C329 C327 1.390 . S
C329 H339 0.929 . S
C330 O310 1.255 . S
C330 O311 1.257 . S
C331 Eu267 2.787 . S
C331 O306 1.252 . S
C331 O309 1.268 . S
C331 C324 1.506 . S
H332 C315 0.931 . S
H333 C316 0.931 . S
H334 C317 0.929 . S
H335 C318 0.930 . S
H336 C326 0.931 1_554 S
H337 C327 0.931 . S
H338 C328 0.930 . S
H339 C329 0.929 . S
Eu340 N369 2.600 . S
Eu340 N375 2.562 . S
Eu340 O384 2.462 . S
Eu340 O385 2.373 1_455 S
Eu340 O387 2.432 . S
Eu340 O388 2.291 . S
Eu340 O392 2.335 . S
Eu340 O395 2.372 . S
Eu340 C404 2.787 . S
C341 N342 1.365 . S
C341 C344 1.405 . S
C341 C348 1.448 . S
N342 C341 1.365 . S
N342 C345 1.315 1_455 S
N342 Eu351 2.600 1_455 S
C343 C345 1.385 1_455 S
C343 C346 1.367 . S
C343 H363 0.931 . S
C344 C341 1.405 . S
C344 C346 1.403 . S
C344 C350 1.439 1_556 S
C345 N342 1.315 1_655 S
C345 C343 1.385 1_655 S
C345 H356 0.947 . S
C346 C343 1.367 . S
C346 C344 1.403 . S
C346 H367 0.929 . S
C347 C348 1.430 1_554 S
C347 C349 1.387 . S
C347 C353 1.404 . S
C348 C341 1.448 . S
C348 C347 1.430 1_556 S
C348 N352 1.351 . S
C349 C347 1.387 . S
C349 C350 1.374 . S
C349 H364 0.931 . S
C350 C344 1.439 1_554 S
C350 C349 1.374 . S
C350 H365 0.931 . S
Eu351 N342 2.600 1_655 S
Eu351 N352 2.562 1_655 S
Eu351 O386 2.335 . S
Eu351 O389 2.372 . S
Eu351 O390 2.462 . S
Eu351 O391 2.373 1_655 S
Eu351 O393 2.432 . S
Eu351 O394 2.291 1_655 S
Eu351 C415 2.787 . S
N352 C348 1.351 . S
N352 Eu351 2.562 1_455 S
N352 C354 1.325 . S
C353 C347 1.404 . S
C353 C355 1.366 . S
C353 H361 0.930 . S
C354 N352 1.325 . S
C354 C355 1.416 1_556 S
C354 H360 0.929 . S
C355 C353 1.366 . S
C355 C354 1.416 1_554 S
C355 H357 0.930 . S
H356 C345 0.947 . S
H357 C355 0.930 . S
H358 C373 0.930 . S
H359 C380 0.930 . S
H360 C354 0.929 . S
H361 C353 0.930 . S
H362 C376 0.929 . S
H363 C343 0.931 . S
H364 C349 0.931 . S
H365 C350 0.931 . S
H366 C371 0.931 . S
H367 C346 0.929 . S
H368 C379 0.930 . S
N369 Eu340 2.600 . S
N369 C370 1.365 . S
N369 C373 1.319 . S
C370 N369 1.365 . S
C370 C372 1.405 1_455 S
C370 C378 1.448 . S
C371 H366 0.931 . S
C371 C373 1.397 . S
C371 C374 1.367 1_455 S
C372 C370 1.405 1_655 S
C372 C374 1.403 . S
C372 C405 1.439 . S
C373 H358 0.930 . S
C373 N369 1.319 . S
C373 C371 1.397 . S
C374 C371 1.367 1_655 S
C374 C372 1.403 . S
C374 H381 0.929 . S
N375 Eu340 2.562 . S
N375 C376 1.325 . S
N375 C378 1.353 . S
C376 H362 0.929 . S
C376 N375 1.325 . S
C376 C380 1.416 1_455 S
C377 C378 1.427 1_655 S
C377 C379 1.404 . S
C377 C406 1.387 . S
C378 C370 1.448 . S
C378 N375 1.353 . S
C378 C377 1.427 1_455 S
C379 H368 0.930 . S
C379 C377 1.404 . S
C379 C380 1.366 . S
C380 H359 0.930 . S
C380 C376 1.416 1_655 S
C380 C379 1.366 . S
H381 C374 0.929 . S
H382 C405 0.931 . S
H383 C406 0.931 . S
O384 Eu340 2.462 . S
O384 C404 1.252 . S
O385 Eu340 2.373 1_655 S
O385 C396 1.249 . S
O386 Eu351 2.335 . S
O386 C396 1.264 . S
O387 Eu340 2.432 . S
O387 C404 1.268 . S
O388 Eu340 2.291 . S
O388 C403 1.255 . S
O389 Eu351 2.372 . S
O389 C403 1.257 1_655 S
O390 Eu351 2.462 . S
O390 C415 1.252 . S
O391 Eu351 2.373 1_455 S
O391 C407 1.249 . S
O392 Eu340 2.335 . S
O392 C407 1.264 . S
O393 Eu351 2.432 . S
O393 C415 1.268 . S
O394 Eu351 2.291 1_455 S
O394 C414 1.255 . S
O395 Eu340 2.372 . S
O395 C414 1.257 . S
C396 O385 1.249 . S
C396 O386 1.264 . S
C397 C400 1.382 . S
C397 C402 1.390 . S
C397 C404 1.506 . S
C398 C399 1.398 . S
C398 C402 1.392 . S
C399 C398 1.398 . S
C399 C401 1.372 . S
C399 H416 0.931 . S
C400 C397 1.382 . S
C400 C401 1.390 . S
C400 H417 0.931 . S
C401 C399 1.372 . S
C401 C400 1.390 . S
C401 H418 0.929 . S
C402 C397 1.390 . S
C402 C398 1.392 . S
C402 H419 0.930 . S
C403 O388 1.255 . S
C403 O389 1.257 1_455 S
C404 Eu340 2.787 . S
C404 O384 1.252 . S
C404 O387 1.268 . S
C404 C397 1.506 . S
C405 C372 1.439 . S
C405 H382 0.931 . S
C405 C406 1.374 . S
C406 C377 1.387 . S
C406 H383 0.931 . S
C406 C405 1.374 . S
C407 O391 1.249 . S
C407 O392 1.264 . S
C408 C411 1.382 . S
C408 C412 1.390 . S
C408 C415 1.506 . S
C409 C410 1.398 . S
C409 C412 1.392 . S
C410 C409 1.398 . S
C410 C413 1.372 . S
C410 H420 0.931 1_556 S
C411 C408 1.382 . S
C411 C413 1.390 . S
C411 H421 0.931 . S
C412 C408 1.390 . S
C412 C409 1.392 . S
C412 H422 0.930 . S
C413 C410 1.372 . S
C413 C411 1.390 . S
C413 H423 0.929 . S
C414 O394 1.255 . S
C414 O395 1.257 . S
C415 Eu351 2.787 . S
C415 O390 1.252 . S
C415 O393 1.268 . S
C415 C408 1.506 . S
H416 C399 0.931 . S
H417 C400 0.931 . S
H418 C401 0.929 . S
H419 C402 0.930 . S
H420 C410 0.931 1_554 S
H421 C411 0.931 . S
H422 C412 0.930 . S
H423 C413 0.929 . S
H424 C436 0.930 . S
H425 C438 0.930 . S
H426 C439 0.930 . S
H427 C443 0.959 1_545 S
H428 C443 0.959 . S
H429 C443 0.961 . S
H430 C444 0.960 . S
H431 C444 0.961 . S
H432 C444 0.959 . S
H433 C447 0.929 . S
H434 C448 0.931 . S
H435 C450 0.930 1_565 S
C436 H424 0.930 . S
C436 C437 1.399 . S
C436 C441 1.399 . S
C437 C436 1.399 . S
C437 C438 1.376 . S
C438 H425 0.930 . S
C438 C437 1.376 . S
C438 C439 1.388 . S
C439 H426 0.930 . S
C439 C438 1.388 . S
C439 C440 1.390 . S
C440 C439 1.390 . S
C440 C441 1.394 . S
C440 C446 1.465 . S
C441 C436 1.399 . S
C441 C440 1.394 . S
C441 C442 1.493 1_545 S
C442 C441 1.493 1_565 S
C442 C443 1.514 . S
C442 C444 1.588 . S
C442 C445 1.509 1_565 S
C443 H427 0.959 1_565 S
C443 H428 0.959 . S
C443 H429 0.961 . S
C443 C442 1.514 . S
C444 H430 0.960 . S
C444 H431 0.961 . S
C444 H432 0.959 . S
C444 C442 1.588 . S
C445 C442 1.509 1_545 S
C445 C446 1.396 . S
C445 C450 1.390 . S
C446 C440 1.465 . S
C446 C445 1.396 . S
C446 C447 1.399 . S
C447 H433 0.929 . S
C447 C446 1.399 . S
C447 C448 1.385 . S
C448 H434 0.931 . S
C448 C447 1.385 . S
C448 C449 1.389 . S
C449 C448 1.389 . S
C449 C450 1.387 . S
C450 H435 0.930 1_545 S
C450 C445 1.390 . S
C450 C449 1.387 . S
H451 C463 0.930 . S
H452 C465 0.930 . S
H453 C466 0.930 . S
H454 C470 0.959 . S
H455 C470 0.959 . S
H456 C470 0.961 . S
H457 C471 0.960 . S
H458 C471 0.961 . S
H459 C471 0.959 . S
H460 C474 0.929 . S
H461 C475 0.931 . S
H462 C477 0.930 . S
C463 H451 0.930 . S
C463 C464 1.399 . S
C463 C468 1.399 . S
C464 C463 1.399 . S
C464 C465 1.376 . S
C465 H452 0.930 . S
C465 C464 1.376 . S
C465 C466 1.388 . S
C466 H453 0.930 . S
C466 C465 1.388 . S
C466 C467 1.390 . S
C467 C466 1.390 . S
C467 C468 1.394 . S
C467 C473 1.465 . S
C468 C463 1.399 . S
C468 C467 1.394 . S
C468 C469 1.516 . S
C469 C468 1.516 . S
C469 C470 1.502 . S
C469 C471 1.561 . S
C469 C472 1.526 . S
C470 H454 0.959 . S
C470 H455 0.959 . S
C470 H456 0.961 . S
C470 C469 1.502 . S
C471 H457 0.960 . S
C471 H458 0.961 . S
C471 H459 0.959 . S
C471 C469 1.561 . S
C472 C469 1.526 . S
C472 C473 1.396 . S
C472 C477 1.390 . S
C473 C467 1.465 . S
C473 C472 1.396 . S
C473 C474 1.399 . S
C474 H460 0.929 . S
C474 C473 1.399 . S
C474 C475 1.385 . S
C475 H461 0.931 . S
C475 C474 1.385 . S
C475 C476 1.389 . S
C476 C475 1.389 . S
C476 C477 1.387 . S
C477 H462 0.930 . S
C477 C472 1.390 . S
C477 C476 1.387 . S
H478 C490 0.930 . S
H479 C492 0.930 . S
H480 C493 0.930 . S
H481 C497 0.959 . S
H482 C497 0.959 . S
H483 C497 0.961 . S
H484 C498 0.960 . S
H485 C498 0.961 . S
H486 C498 0.959 . S
H487 C501 0.929 . S
H488 C502 0.931 . S
H489 C504 0.930 . S
C490 H478 0.930 . S
C490 C491 1.399 . S
C490 C495 1.399 . S
C491 C490 1.399 . S
C491 C492 1.376 . S
C492 H479 0.930 . S
C492 C491 1.376 . S
C492 C493 1.388 . S
C493 H480 0.930 . S
C493 C492 1.388 . S
C493 C494 1.390 . S
C494 C493 1.390 . S
C494 C495 1.394 . S
C494 C500 1.465 . S
C495 C490 1.399 . S
C495 C494 1.394 . S
C495 C496 1.516 . S
C496 C495 1.516 . S
C496 C497 1.502 . S
C496 C498 1.561 . S
C496 C499 1.526 . S
C497 H481 0.959 . S
C497 H482 0.959 . S
C497 H483 0.961 . S
C497 C496 1.502 . S
C498 H484 0.960 . S
C498 H485 0.961 . S
C498 H486 0.959 . S
C498 C496 1.561 . S
C499 C496 1.526 . S
C499 C500 1.396 . S
C499 C504 1.390 . S
C500 C494 1.465 . S
C500 C499 1.396 . S
C500 C501 1.399 . S
C501 H487 0.929 . S
C501 C500 1.399 . S
C501 C502 1.385 . S
C502 H488 0.931 . S
C502 C501 1.385 . S
C502 C503 1.389 . S
C503 C502 1.389 . S
C503 C504 1.387 . S
C504 H489 0.930 . S
C504 C499 1.390 . S
C504 C503 1.387 . S
H505 C517 0.930 . S
H506 C519 0.930 . S
H507 C520 0.930 . S
H508 C524 0.959 . S
H509 C524 0.959 . S
H510 C524 0.961 . S
H511 C525 0.960 . S
H512 C525 0.961 . S
H513 C525 0.959 . S
H514 C528 0.929 . S
H515 C529 0.931 . S
H516 C531 0.930 . S
C517 H505 0.930 . S
C517 C518 1.399 . S
C517 C522 1.399 . S
C518 C517 1.399 . S
C518 C519 1.376 . S
C519 H506 0.930 . S
C519 C518 1.376 . S
C519 C520 1.388 . S
C520 H507 0.930 . S
C520 C519 1.388 . S
C520 C521 1.390 . S
C521 C520 1.390 . S
C521 C522 1.394 . S
C521 C527 1.465 . S
C522 C517 1.399 . S
C522 C521 1.394 . S
C522 C523 1.516 . S
C523 C522 1.516 . S
C523 C524 1.502 . S
C523 C525 1.561 1_455 S
C523 C526 1.526 . S
C524 H508 0.959 . S
C524 H509 0.959 . S
C524 H510 0.961 . S
C524 C523 1.502 . S
C525 H511 0.960 . S
C525 H512 0.961 . S
C525 H513 0.959 . S
C525 C523 1.561 1_655 S
C526 C523 1.526 . S
C526 C527 1.396 . S
C526 C531 1.390 . S
C527 C521 1.465 . S
C527 C526 1.396 . S
C527 C528 1.399 . S
C528 H514 0.929 . S
C528 C527 1.399 . S
C528 C529 1.385 . S
C529 H515 0.931 . S
C529 C528 1.385 . S
C529 C530 1.389 . S
C530 C529 1.389 . S
C530 C531 1.387 . S
C531 H516 0.930 . S
C531 C526 1.390 . S
C531 C530 1.387 . S
H532 C544 0.930 . S
H533 C546 0.930 . S
H534 C547 0.930 . S
H535 C551 0.959 . S
H536 C551 0.959 . S
H537 C551 0.961 . S
H538 C552 0.960 1_554 S
H539 C552 0.961 . S
H540 C552 0.959 . S
H541 C555 0.929 . S
H542 C556 0.931 . S
H543 C558 0.930 . S
C544 H532 0.930 . S
C544 C545 1.399 . S
C544 C549 1.399 . S
C545 C544 1.399 . S
C545 C546 1.376 1_565 S
C546 H533 0.930 . S
C546 C545 1.376 1_545 S
C546 C547 1.388 . S
C547 H534 0.930 . S
C547 C546 1.388 . S
C547 C548 1.390 . S
C548 C547 1.390 . S
C548 C549 1.394 1_545 S
C548 C554 1.465 1_554 S
C549 C544 1.399 . S
C549 C548 1.394 1_565 S
C549 C550 1.516 . S
C550 C549 1.516 . S
C550 C551 1.502 . S
C550 C552 1.561 1_554 S
C550 C553 1.526 1_554 S
C551 H535 0.959 . S
C551 H536 0.959 . S
C551 H537 0.961 . S
C551 C550 1.502 . S
C552 H538 0.960 1_556 S
C552 H539 0.961 . S
C552 H540 0.959 . S
C552 C550 1.561 1_556 S
C553 C550 1.526 1_556 S
C553 C554 1.396 1_565 S
C553 C558 1.390 . S
C554 C548 1.465 1_556 S
C554 C553 1.396 1_545 S
C554 C555 1.399 . S
C555 H541 0.929 . S
C555 C554 1.399 . S
C555 C556 1.385 . S
C556 H542 0.931 . S
C556 C555 1.385 . S
C556 C557 1.389 . S
C557 C556 1.389 . S
C557 C558 1.387 1_545 S
C558 H543 0.930 . S
C558 C553 1.390 . S
C558 C557 1.387 1_565 S
H559 C571 0.930 . S
H560 C573 0.930 . S
H561 C574 0.930 1_556 S
H562 C578 0.959 . S
H563 C578 0.959 . S
H564 C578 0.961 . S
H565 C579 0.960 . S
H566 C579 0.961 . S
H567 C579 0.959 . S
H568 C582 0.929 . S
H569 C583 0.931 . S
H570 C585 0.930 . S
C571 H559 0.930 . S
C571 C572 1.399 . S
C571 C576 1.399 . S
C572 C571 1.399 . S
C572 C573 1.376 . S
C573 H560 0.930 . S
C573 C572 1.376 . S
C573 C574 1.388 . S
C574 H561 0.930 1_554 S
C574 C573 1.388 . S
C574 C575 1.390 . S
C575 C574 1.390 . S
C575 C576 1.394 . S
C575 C581 1.465 1_554 S
C576 C571 1.399 . S
C576 C575 1.394 . S
C576 C577 1.516 . S
C577 C576 1.516 . S
C577 C578 1.502 . S
C577 C579 1.561 . S
C577 C580 1.526 1_554 S
C578 H562 0.959 . S
C578 H563 0.959 . S
C578 H564 0.961 . S
C578 C577 1.502 . S
C579 H565 0.960 . S
C579 H566 0.961 . S
C579 H567 0.959 . S
C579 C577 1.561 . S
C580 C577 1.526 1_556 S
C580 C581 1.396 . S
C580 C585 1.390 . S
C581 C575 1.465 1_556 S
C581 C580 1.396 . S
C581 C582 1.399 . S
C582 H568 0.929 . S
C582 C581 1.399 . S
C582 C583 1.385 . S
C583 H569 0.931 . S
C583 C582 1.385 . S
C583 C584 1.389 . S
C584 C583 1.389 . S
C584 C585 1.387 . S
C585 H570 0.930 . S
C585 C580 1.390 . S
C585 C584 1.387 . S
H586 C598 0.930 . S
H587 C600 0.930 . S
H588 C601 0.930 . S
H589 C605 0.959 . S
H590 C605 0.959 1_556 S
H591 C605 0.961 . S
H592 C606 0.960 . S
H593 C606 0.961 . S
H594 C606 0.959 . S
H595 C609 0.929 . S
H596 C610 0.931 . S
H597 C612 0.930 . S
C598 H586 0.930 . S
C598 C599 1.399 . S
C598 C603 1.399 . S
C599 C598 1.399 . S
C599 C600 1.376 . S
C600 H587 0.930 . S
C600 C599 1.376 . S
C600 C601 1.388 . S
C601 H588 0.930 . S
C601 C600 1.388 . S
C601 C602 1.390 . S
C602 C601 1.390 . S
C602 C603 1.394 . S
C602 C608 1.465 1_554 S
C603 C598 1.399 . S
C603 C602 1.394 . S
C603 C604 1.516 . S
C604 C603 1.516 . S
C604 C605 1.502 . S
C604 C606 1.561 1_554 S
C604 C607 1.526 1_554 S
C605 H589 0.959 . S
C605 H590 0.959 1_554 S
C605 H591 0.961 . S
C605 C604 1.502 . S
C606 H592 0.960 . S
C606 H593 0.961 . S
C606 H594 0.959 . S
C606 C604 1.561 1_556 S
C607 C604 1.526 1_556 S
C607 C608 1.396 . S
C607 C612 1.390 . S
C608 C602 1.465 1_556 S
C608 C607 1.396 . S
C608 C609 1.399 . S
C609 H595 0.929 . S
C609 C608 1.399 . S
C609 C610 1.385 . S
C610 H596 0.931 . S
C610 C609 1.385 . S
C610 C611 1.389 . S
C611 C610 1.389 . S
C611 C612 1.387 . S
C612 H597 0.930 . S
C612 C607 1.390 . S
C612 C611 1.387 . S
H613 C625 0.930 . S
H614 C627 0.930 . S
H615 C628 0.930 1_556 S
H616 C632 0.959 . S
H617 C632 0.959 . S
H618 C632 0.961 . S
H619 C633 0.960 . S
H620 C633 0.961 . S
H621 C633 0.959 . S
H622 C636 0.929 . S
H623 C637 0.931 . S
H624 C639 0.930 . S
C625 H613 0.930 . S
C625 C626 1.399 . S
C625 C630 1.399 . S
C626 C625 1.399 . S
C626 C627 1.376 . S
C627 H614 0.930 . S
C627 C626 1.376 . S
C627 C628 1.388 . S
C628 H615 0.930 1_554 S
C628 C627 1.388 . S
C628 C629 1.390 . S
C629 C628 1.390 . S
C629 C630 1.394 . S
C629 C635 1.465 1_554 S
C630 C625 1.399 . S
C630 C629 1.394 . S
C630 C631 1.515 . S
C631 C630 1.515 . S
C631 C632 1.506 1_655 S
C631 C633 1.558 . S
C631 C634 1.525 1_554 S
C632 H616 0.959 . S
C632 H617 0.959 . S
C632 H618 0.961 . S
C632 C631 1.506 1_455 S
C633 H619 0.960 . S
C633 H620 0.961 . S
C633 H621 0.959 . S
C633 C631 1.558 . S
C634 C631 1.525 1_556 S
C634 C635 1.396 . S
C634 C639 1.390 1_655 S
C635 C629 1.465 1_556 S
C635 C634 1.396 . S
C635 C636 1.399 . S
C636 H622 0.929 . S
C636 C635 1.399 . S
C636 C637 1.385 . S
C637 H623 0.931 . S
C637 C636 1.385 . S
C637 C638 1.389 . S
C638 C637 1.389 . S
C638 C639 1.387 1_655 S
C639 H624 0.930 . S
C639 C634 1.390 1_455 S
C639 C638 1.387 1_455 S
H640 C652 0.930 . S
H641 C654 0.930 . S
H642 C655 0.930 . S
H643 C659 0.959 1_655 S
H644 C659 0.959 . S
H645 C659 0.961 . S
H646 C660 0.960 . S
H647 C660 0.961 . S
H648 C660 0.959 . S
H649 C663 0.929 . S
H650 C664 0.922 1_655 S
H651 C666 0.930 . S
C652 H640 0.930 . S
C652 C653 1.399 . S
C652 C657 1.399 . S
C653 C652 1.399 . S
C653 C654 1.376 . S
C654 H641 0.930 . S
C654 C653 1.376 . S
C654 C655 1.388 . S
C655 H642 0.930 . S
C655 C654 1.388 . S
C655 C656 1.390 . S
C656 C655 1.390 . S
C656 C657 1.394 . S
C656 C662 1.465 . S
C657 C652 1.399 . S
C657 C656 1.394 . S
C657 C658 1.516 . S
C658 C657 1.516 . S
C658 C659 1.502 . S
C658 C660 1.561 . S
C658 C661 1.526 . S
C659 H643 0.959 1_455 S
C659 H644 0.959 . S
C659 H645 0.961 . S
C659 C658 1.502 . S
C660 H646 0.960 . S
C660 H647 0.961 . S
C660 H648 0.959 . S
C660 C658 1.561 . S
C661 C658 1.526 . S
C661 C662 1.396 . S
C661 C666 1.390 . S
C662 C656 1.465 . S
C662 C661 1.396 . S
C662 C663 1.399 . S
C663 H649 0.929 . S
C663 C662 1.399 . S
C663 C664 1.385 . S
C664 H650 0.922 1_455 S
C664 C663 1.385 . S
C664 C665 1.389 . S
C665 C664 1.389 . S
C665 C666 1.387 . S
C666 H651 0.930 . S
C666 C661 1.390 . S
C666 C665 1.387 . S
H667 C679 0.930 . S
H668 C681 0.930 . S
H669 C682 0.930 . S
H670 C686 0.959 . S
H671 C686 0.959 . S
H672 C686 0.961 . S
H673 C687 0.960 . S
H674 C687 0.961 . S
H675 C687 0.959 . S
H676 C690 0.929 . S
H677 C691 0.931 . S
H678 C693 0.930 . S
C679 H667 0.930 . S
C679 C680 1.399 . S
C679 C684 1.399 . S
C680 C679 1.399 . S
C680 C681 1.376 . S
C681 H668 0.930 . S
C681 C680 1.376 . S
C681 C682 1.388 . S
C682 H669 0.930 . S
C682 C681 1.388 . S
C682 C683 1.390 . S
C683 C682 1.390 . S
C683 C684 1.394 . S
C683 C689 1.465 . S
C684 C679 1.399 . S
C684 C683 1.394 . S
C684 C685 1.516 1_545 S
C685 C684 1.516 1_565 S
C685 C686 1.502 . S
C685 C687 1.561 . S
C685 C688 1.526 1_565 S
C686 H670 0.959 . S
C686 H671 0.959 . S
C686 H672 0.961 . S
C686 C685 1.502 . S
C687 H673 0.960 . S
C687 H674 0.961 . S
C687 H675 0.959 . S
C687 C685 1.561 . S
C688 C685 1.526 1_545 S
C688 C689 1.396 . S
C688 C693 1.390 1_545 S
C689 C683 1.465 . S
C689 C688 1.396 . S
C689 C690 1.399 . S
C690 H676 0.929 . S
C690 C689 1.399 . S
C690 C691 1.385 . S
C691 H677 0.931 . S
C691 C690 1.385 . S
C691 C692 1.389 . S
C692 C691 1.389 . S
C692 C693 1.387 1_545 S
C693 H678 0.930 . S
C693 C688 1.390 1_565 S
C693 C692 1.387 1_565 S
H694 C706 0.930 . S
H695 C708 0.930 . S
H696 C709 0.930 . S
H697 C713 0.959 . S
H698 C713 0.959 . S
H699 C713 0.961 . S
H700 C714 0.960 . S
H701 C714 0.961 . S
H702 C714 0.959 . S
H703 C717 0.929 . S
H704 C718 0.931 . S
H705 C720 0.930 . S
C706 H694 0.930 . S
C706 C707 1.399 . S
C706 C711 1.399 . S
C707 C706 1.399 . S
C707 C708 1.376 . S
C708 H695 0.930 . S
C708 C707 1.376 . S
C708 C709 1.388 . S
C709 H696 0.930 . S
C709 C708 1.388 . S
C709 C710 1.390 . S
C710 C709 1.390 . S
C710 C711 1.394 . S
C710 C716 1.465 . S
C711 C706 1.399 . S
C711 C710 1.394 . S
C711 C712 1.516 . S
C712 C711 1.516 . S
C712 C713 1.502 . S
C712 C714 1.561 . S
C712 C715 1.526 . S
C713 H697 0.959 . S
C713 H698 0.959 . S
C713 H699 0.961 . S
C713 C712 1.502 . S
C714 H700 0.960 . S
C714 H701 0.961 . S
C714 H702 0.959 . S
C714 C712 1.561 . S
C715 C712 1.526 . S
C715 C716 1.396 . S
C715 C720 1.390 . S
C716 C710 1.465 . S
C716 C715 1.396 . S
C716 C717 1.399 . S
C717 H703 0.929 . S
C717 C716 1.399 . S
C717 C718 1.385 . S
C718 H704 0.931 . S
C718 C717 1.385 . S
C718 C719 1.389 . S
C719 C718 1.389 . S
C719 C720 1.387 . S
C720 H705 0.930 . S
C720 C715 1.390 . S
C720 C719 1.387 . S
H721 C733 0.930 . S
H722 C735 0.930 . S
H723 C736 0.930 . S
H724 C740 0.959 . S
H725 C740 0.959 . S
H726 C740 0.961 . S
H727 C741 0.960 . S
H728 C741 0.961 . S
H729 C741 0.959 . S
H730 C744 0.929 . S
H731 C745 0.931 . S
H732 C747 0.930 . S
C733 H721 0.930 . S
C733 C734 1.399 . S
C733 C738 1.399 . S
C734 C733 1.399 . S
C734 C735 1.376 . S
C735 H722 0.930 . S
C735 C734 1.376 . S
C735 C736 1.388 . S
C736 H723 0.930 . S
C736 C735 1.388 . S
C736 C737 1.390 . S
C737 C736 1.390 . S
C737 C738 1.394 . S
C737 C743 1.465 . S
C738 C733 1.399 . S
C738 C737 1.394 . S
C738 C739 1.516 . S
C739 C738 1.516 . S
C739 C740 1.502 . S
C739 C741 1.561 . S
C739 C742 1.526 . S
C740 H724 0.959 . S
C740 H725 0.959 . S
C740 H726 0.961 . S
C740 C739 1.502 . S
C741 H727 0.960 . S
C741 H728 0.961 . S
C741 H729 0.959 . S
C741 C739 1.561 . S
C742 C739 1.526 . S
C742 C743 1.396 . S
C742 C747 1.390 . S
C743 C737 1.465 . S
C743 C742 1.396 . S
C743 C744 1.399 . S
C744 H730 0.929 . S
C744 C743 1.399 . S
C744 C745 1.385 . S
C745 H731 0.931 . S
C745 C744 1.385 . S
C745 C746 1.389 . S
C746 C745 1.389 . S
C746 C747 1.387 . S
C747 H732 0.930 . S
C747 C742 1.390 . S
C747 C746 1.387 . S
H748 C760 0.930 . S
H749 C762 0.930 . S
H750 C763 0.930 . S
H751 C767 0.959 . S
H752 C767 0.959 1_556 S
H753 C767 0.961 . S
H754 C768 0.960 . S
H755 C768 0.951 1_455 S
H756 C768 0.959 . S
H757 C771 0.929 . S
H758 C772 0.931 . S
H759 C774 0.930 . S
C760 H748 0.930 . S
C760 C761 1.399 . S
C760 C765 1.399 . S
C761 C760 1.399 . S
C761 C762 1.376 . S
C762 H749 0.930 . S
C762 C761 1.376 . S
C762 C763 1.388 . S
C763 H750 0.930 . S
C763 C762 1.388 . S
C763 C764 1.390 . S
C764 C763 1.390 . S
C764 C765 1.394 . S
C764 C770 1.465 . S
C765 C760 1.399 . S
C765 C764 1.394 . S
C765 C766 1.516 1_655 S
C766 C765 1.516 1_455 S
C766 C767 1.502 . S
C766 C768 1.561 1_454 S
C766 C769 1.526 . S
C767 H751 0.959 . S
C767 H752 0.959 1_554 S
C767 H753 0.961 . S
C767 C766 1.502 . S
C768 H754 0.960 . S
C768 H755 0.951 1_655 S
C768 H756 0.959 . S
C768 C766 1.561 1_656 S
C769 C766 1.526 . S
C769 C770 1.396 1_455 S
C769 C774 1.390 1_554 S
C770 C764 1.465 . S
C770 C769 1.396 1_655 S
C770 C771 1.399 . S
C771 H757 0.929 . S
C771 C770 1.399 . S
C771 C772 1.385 . S
C772 H758 0.931 . S
C772 C771 1.385 . S
C772 C773 1.389 1_655 S
C773 C772 1.389 1_455 S
C773 C774 1.387 1_554 S
C774 H759 0.930 . S
C774 C769 1.390 1_556 S
C774 C773 1.387 1_556 S
H775 C787 0.930 . S
H776 C789 0.930 . S
H777 C790 0.930 . S
H778 C794 0.959 . S
H779 C794 0.959 . S
H780 C794 0.961 . S
H781 C795 0.960 . S
H782 C795 0.961 . S
H783 C795 0.959 . S
H784 C798 0.929 . S
H785 C799 0.931 . S
H786 C801 0.930 . S
C787 H775 0.930 . S
C787 C788 1.399 . S
C787 C792 1.399 . S
C788 C787 1.399 . S
C788 C789 1.376 . S
C789 H776 0.930 . S
C789 C788 1.376 . S
C789 C790 1.388 . S
C790 H777 0.930 . S
C790 C789 1.388 . S
C790 C791 1.390 . S
C791 C790 1.390 . S
C791 C792 1.394 . S
C791 C797 1.465 1_565 S
C792 C787 1.399 . S
C792 C791 1.394 . S
C792 C793 1.516 . S
C793 C792 1.516 . S
C793 C794 1.502 . S
C793 C795 1.561 1_565 S
C793 C796 1.526 1_565 S
C794 H778 0.959 . S
C794 H779 0.959 . S
C794 H780 0.961 . S
C794 C793 1.502 . S
C795 H781 0.960 . S
C795 H782 0.961 . S
C795 H783 0.959 . S
C795 C793 1.561 1_545 S
C796 C793 1.526 1_545 S
C796 C797 1.396 . S
C796 C801 1.390 . S
C797 C791 1.465 1_545 S
C797 C796 1.396 . S
C797 C798 1.399 1_554 S
C798 H784 0.929 . S
C798 C797 1.399 1_556 S
C798 C799 1.385 . S
C799 H785 0.931 . S
C799 C798 1.385 . S
C799 C800 1.389 . S
C800 C799 1.389 . S
C800 C801 1.387 1_556 S
C801 H786 0.930 . S
C801 C796 1.390 . S
C801 C800 1.387 1_554 S
H802 C814 0.930 . S
H803 C816 0.930 . S
H804 C817 0.930 . S
H805 C821 0.959 . S
H806 C821 0.959 . S
H807 C821 0.961 . S
H808 C822 0.960 . S
H809 C822 0.961 . S
H810 C822 0.959 . S
H811 C825 0.929 . S
H812 C826 0.931 . S
H813 C828 0.930 . S
C814 H802 0.930 . S
C814 C815 1.399 . S
C814 C819 1.399 . S
C815 C814 1.399 . S
C815 C816 1.376 . S
C816 H803 0.930 . S
C816 C815 1.376 . S
C816 C817 1.388 . S
C817 H804 0.930 . S
C817 C816 1.388 . S
C817 C818 1.390 . S
C818 C817 1.390 . S
C818 C819 1.394 . S
C818 C824 1.465 . S
C819 C814 1.399 . S
C819 C818 1.394 . S
C819 C820 1.516 . S
C820 C819 1.516 . S
C820 C821 1.502 . S
C820 C822 1.561 . S
C820 C823 1.526 . S
C821 H805 0.959 . S
C821 H806 0.959 . S
C821 H807 0.961 . S
C821 C820 1.502 . S
C822 H808 0.960 . S
C822 H809 0.961 . S
C822 H810 0.959 . S
C822 C820 1.561 . S
C823 C820 1.526 . S
C823 C824 1.396 . S
C823 C828 1.390 . S
C824 C818 1.465 . S
C824 C823 1.396 . S
C824 C825 1.399 1_554 S
C825 H811 0.929 . S
C825 C824 1.399 1_556 S
C825 C826 1.385 . S
C826 H812 0.931 . S
C826 C825 1.385 . S
C826 C827 1.389 . S
C827 C826 1.389 . S
C827 C828 1.387 1_556 S
C828 H813 0.930 . S
C828 C823 1.390 . S
C828 C827 1.387 1_554 S
H829 C841 0.930 . S
H830 C843 0.930 . S
H831 C844 0.930 . S
H832 C848 0.959 1_556 S
H833 C848 0.959 1_556 S
H834 C848 0.961 . S
H835 C849 0.960 . S
H836 C849 0.961 . S
H837 C849 0.959 . S
H838 C852 0.929 . S
H839 C853 0.931 . S
H840 C855 0.930 1_556 S
C841 H829 0.930 . S
C841 C842 1.399 . S
C841 C846 1.399 . S
C842 C841 1.399 . S
C842 C843 1.376 . S
C843 H830 0.930 . S
C843 C842 1.376 . S
C843 C844 1.388 . S
C844 H831 0.930 . S
C844 C843 1.388 . S
C844 C845 1.390 . S
C845 C844 1.390 . S
C845 C846 1.394 . S
C845 C851 1.465 . S
C846 C841 1.399 . S
C846 C845 1.394 . S
C846 C847 1.516 . S
C847 C846 1.516 . S
C847 C848 1.502 . S
C847 C849 1.561 . S
C847 C850 1.526 . S
C848 H832 0.959 1_554 S
C848 H833 0.959 1_554 S
C848 H834 0.961 . S
C848 C847 1.502 . S
C849 H835 0.960 . S
C849 H836 0.961 . S
C849 H837 0.959 . S
C849 C847 1.561 . S
C850 C847 1.526 . S
C850 C851 1.396 . S
C850 C855 1.390 . S
C851 C845 1.465 . S
C851 C850 1.396 . S
C851 C852 1.399 . S
C852 H838 0.929 . S
C852 C851 1.399 . S
C852 C853 1.385 . S
C853 H839 0.931 . S
C853 C852 1.385 . S
C853 C854 1.389 . S
C854 C853 1.389 . S
C854 C855 1.387 . S
C855 H840 0.930 1_554 S
C855 C850 1.390 . S
C855 C854 1.387 . S
H856 C868 0.930 . S
H857 C870 0.930 . S
H858 C871 0.930 . S
H859 C875 0.959 . S
H860 C875 0.959 . S
H861 C875 0.961 . S
H862 C876 0.960 . S
H863 C876 0.961 . S
H864 C876 0.959 . S
H865 C879 0.929 . S
H866 C880 0.931 . S
H867 C882 0.930 . S
C868 H856 0.930 . S
C868 C869 1.399 . S
C868 C873 1.399 . S
C869 C868 1.399 . S
C869 C870 1.376 . S
C870 H857 0.930 . S
C870 C869 1.376 . S
C870 C871 1.388 . S
C871 H858 0.930 . S
C871 C870 1.388 . S
C871 C872 1.390 . S
C872 C871 1.390 . S
C872 C873 1.394 . S
C872 C878 1.465 . S
C873 C868 1.399 . S
C873 C872 1.394 . S
C873 C874 1.516 . S
C874 C873 1.516 . S
C874 C875 1.502 1_455 S
C874 C876 1.561 . S
C874 C877 1.526 . S
C875 H859 0.959 . S
C875 H860 0.959 . S
C875 H861 0.961 . S
C875 C874 1.502 1_655 S
C876 H862 0.960 . S
C876 H863 0.961 . S
C876 H864 0.959 . S
C876 C874 1.561 . S
C877 C874 1.526 . S
C877 C878 1.396 . S
C877 C882 1.390 . S
C878 C872 1.465 . S
C878 C877 1.396 . S
C878 C879 1.399 . S
C879 H865 0.929 . S
C879 C878 1.399 . S
C879 C880 1.385 . S
C880 H866 0.931 . S
C880 C879 1.385 . S
C880 C881 1.389 . S
C881 C880 1.389 . S
C881 C882 1.387 . S
C882 H867 0.930 . S
C882 C877 1.390 . S
C882 C881 1.387 . S
H883 C895 0.930 . S
H884 C897 0.930 1_554 S
H885 C898 0.930 1_554 S
H886 C902 0.959 . S
H887 C902 0.959 . S
H888 C902 0.961 . S
H889 C903 0.960 . S
H890 C903 0.961 . S
H891 C903 0.959 . S
H892 C906 0.929 . S
H893 C907 0.931 . S
H894 C909 0.930 . S
C895 H883 0.930 . S
C895 C896 1.399 . S
C895 C900 1.399 . S
C896 C895 1.399 . S
C896 C897 1.376 . S
C897 H884 0.930 1_556 S
C897 C896 1.376 . S
C897 C898 1.388 . S
C898 H885 0.930 1_556 S
C898 C897 1.388 . S
C898 C899 1.390 . S
C899 C898 1.390 . S
C899 C900 1.394 . S
C899 C905 1.465 . S
C900 C895 1.399 . S
C900 C899 1.394 . S
C900 C901 1.516 . S
C901 C900 1.516 . S
C901 C902 1.502 . S
C901 C903 1.561 . S
C901 C904 1.526 . S
C902 H886 0.959 . S
C902 H887 0.959 . S
C902 H888 0.961 . S
C902 C901 1.502 . S
C903 H889 0.960 . S
C903 H890 0.961 . S
C903 H891 0.959 . S
C903 C901 1.561 . S
C904 C901 1.526 . S
C904 C905 1.396 . S
C904 C909 1.390 . S
C905 C899 1.465 . S
C905 C904 1.396 . S
C905 C906 1.399 . S
C906 H892 0.929 . S
C906 C905 1.399 . S
C906 C907 1.385 . S
C907 H893 0.931 . S
C907 C906 1.385 . S
C907 C908 1.389 . S
C908 C907 1.389 . S
C908 C909 1.387 . S
C909 H894 0.930 . S
C909 C904 1.390 . S
C909 C908 1.387 . S
H910 C922 0.930 . S
H911 C924 0.930 . S
H912 C925 0.930 . S
H913 C929 0.959 . S
H914 C929 0.959 . S
H915 C929 0.961 . S
H916 C930 0.960 . S
H917 C930 0.961 . S
H918 C930 0.959 . S
H919 C933 0.929 . S
H920 C934 0.931 . S
H921 C936 0.930 . S
C922 H910 0.930 . S
C922 C923 1.399 . S
C922 C927 1.399 . S
C923 C922 1.399 . S
C923 C924 1.376 . S
C924 H911 0.930 . S
C924 C923 1.376 . S
C924 C925 1.388 . S
C925 H912 0.930 . S
C925 C924 1.388 . S
C925 C926 1.390 . S
C926 C925 1.390 . S
C926 C927 1.394 . S
C926 C932 1.465 . S
C927 C922 1.399 . S
C927 C926 1.394 . S
C927 C928 1.516 . S
C928 C927 1.516 . S
C928 C929 1.502 . S
C928 C930 1.561 . S
C928 C931 1.526 . S
C929 H913 0.959 . S
C929 H914 0.959 . S
C929 H915 0.961 . S
C929 C928 1.502 . S
C930 H916 0.960 . S
C930 H917 0.961 . S
C930 H918 0.959 . S
C930 C928 1.561 . S
C931 C928 1.526 . S
C931 C932 1.396 . S
C931 C936 1.390 . S
C932 C926 1.465 . S
C932 C931 1.396 . S
C932 C933 1.399 . S
C933 H919 0.929 . S
C933 C932 1.399 . S
C933 C934 1.385 . S
C934 H920 0.931 . S
C934 C933 1.385 . S
C934 C935 1.389 . S
C935 C934 1.389 . S
C935 C936 1.387 . S
C936 H921 0.930 . S
C936 C931 1.390 . S
C936 C935 1.387 . S
H937 C949 0.930 . S
H938 C951 0.930 1_554 S
H939 C952 0.930 1_554 S
H940 C956 0.959 . S
H941 C956 0.959 . S
H942 C956 0.961 . S
H943 C957 0.960 . S
H944 C957 0.961 . S
H945 C957 0.959 . S
H946 C960 0.929 . S
H947 C961 0.931 . S
H948 C963 0.930 . S
C949 H937 0.930 . S
C949 C950 1.399 . S
C949 C954 1.399 . S
C950 C949 1.399 . S
C950 C951 1.376 . S
C951 H938 0.930 1_556 S
C951 C950 1.376 . S
C951 C952 1.388 . S
C952 H939 0.930 1_556 S
C952 C951 1.388 . S
C952 C953 1.390 . S
C953 C952 1.390 . S
C953 C954 1.394 . S
C953 C959 1.465 . S
C954 C949 1.399 . S
C954 C953 1.394 . S
C954 C955 1.516 . S
C955 C954 1.516 . S
C955 C956 1.502 . S
C955 C957 1.561 . S
C955 C958 1.526 . S
C956 H940 0.959 . S
C956 H941 0.959 . S
C956 H942 0.961 . S
C956 C955 1.502 . S
C957 H943 0.960 . S
C957 H944 0.961 . S
C957 H945 0.959 . S
C957 C955 1.561 . S
C958 C955 1.526 . S
C958 C959 1.396 . S
C958 C963 1.390 . S
C959 C953 1.465 . S
C959 C958 1.396 . S
C959 C960 1.399 . S
C960 H946 0.929 . S
C960 C959 1.399 . S
C960 C961 1.385 . S
C961 H947 0.931 . S
C961 C960 1.385 . S
C961 C962 1.389 . S
C962 C961 1.389 . S
C962 C963 1.387 . S
C963 H948 0.930 . S
C963 C958 1.390 . S
C963 C962 1.387 . S
H964 C976 0.930 . S
H965 C978 0.930 . S
H966 C979 0.916 1_455 S
H967 C983 0.959 . S
H968 C983 0.959 . S
H969 C983 0.961 . S
H970 C984 0.960 1_655 S
H971 C984 0.957 1_655 S
H972 C984 0.959 . S
H973 C987 0.929 . S
H974 C988 0.931 . S
H975 C990 0.930 . S
C976 H964 0.930 . S
C976 C977 1.399 . S
C976 C981 1.399 . S
C977 C976 1.399 . S
C977 C978 1.376 . S
C978 H965 0.930 . S
C978 C977 1.376 . S
C978 C979 1.396 . S
C979 H966 0.916 1_655 S
C979 C978 1.396 . S
C979 C980 1.398 . S
C980 C979 1.398 . S
C980 C981 1.394 . S
C980 C986 1.465 . S
C981 C976 1.399 . S
C981 C980 1.394 . S
C981 C982 1.516 . S
C982 C981 1.516 . S
C982 C983 1.502 . S
C982 C984 1.561 1_655 S
C982 C985 1.526 . S
C983 H967 0.959 . S
C983 H968 0.959 . S
C983 H969 0.961 . S
C983 C982 1.502 . S
C984 H970 0.960 1_455 S
C984 H971 0.957 1_455 S
C984 H972 0.959 . S
C984 C982 1.561 1_455 S
C985 C982 1.526 . S
C985 C986 1.396 . S
C985 C990 1.390 . S
C986 C980 1.465 . S
C986 C985 1.396 . S
C986 C987 1.399 1_655 S
C987 H973 0.929 . S
C987 C986 1.399 1_455 S
C987 C988 1.385 . S
C988 H974 0.931 . S
C988 C987 1.385 . S
C988 C989 1.389 1_455 S
C989 C988 1.389 1_655 S
C989 C990 1.387 . S
C990 H975 0.930 . S
C990 C985 1.390 . S
C990 C989 1.387 . S
H991 C1003 0.930 . S
H992 C1005 0.930 . S
H993 C1006 0.930 . S
H994 C1010 0.959 . S
H995 C1010 0.959 . S
H996 C1010 0.961 . S
H997 C1011 0.960 . S
H998 C1011 0.961 . S
H999 C1011 0.959 . S
H1000 C1014 0.929 . S
H1001 C1015 0.931 . S
H1002 C1017 0.930 . S
C1003 H991 0.930 . S
C1003 C1004 1.399 . S
C1003 C1008 1.399 . S
C1004 C1003 1.399 . S
C1004 C1005 1.376 1_565 S
C1005 H992 0.930 . S
C1005 C1004 1.376 1_545 S
C1005 C1006 1.388 . S
C1006 H993 0.930 . S
C1006 C1005 1.388 . S
C1006 C1007 1.417 . S
C1007 C1006 1.417 . S
C1007 C1008 1.356 1_545 S
C1007 C1013 1.470 . S
C1008 C1003 1.399 . S
C1008 C1007 1.356 1_565 S
C1008 C1009 1.516 . S
C1009 C1008 1.516 . S
C1009 C1010 1.502 . S
C1009 C1011 1.561 . S
C1009 C1012 1.526 . S
C1010 H994 0.959 . S
C1010 H995 0.959 . S
C1010 H996 0.961 . S
C1010 C1009 1.502 . S
C1011 H997 0.960 . S
C1011 H998 0.961 . S
C1011 H999 0.959 . S
C1011 C1009 1.561 . S
C1012 C1009 1.526 . S
C1012 C1013 1.396 1_565 S
C1012 C1017 1.390 . S
C1013 C1007 1.470 . S
C1013 C1012 1.396 1_545 S
C1013 C1014 1.399 . S
C1014 H1000 0.929 . S
C1014 C1013 1.399 . S
C1014 C1015 1.385 . S
C1015 H1001 0.931 . S
C1015 C1014 1.385 . S
C1015 C1016 1.389 1_545 S
C1016 C1015 1.389 1_565 S
C1016 C1017 1.387 . S
C1017 H1002 0.930 . S
C1017 C1012 1.390 . S
C1017 C1016 1.387 . S
H1018 C1030 0.930 . S
H1019 C1032 0.930 . S
H1020 C1033 0.930 . S
H1021 C1037 0.959 . S
H1022 C1037 0.959 . S
H1023 C1037 0.961 . S
H1024 C1038 0.960 . S
H1025 C1038 0.961 . S
H1026 C1038 0.959 . S
H1027 C1041 0.929 . S
H1028 C1042 0.931 . S
H1029 C1044 0.930 . S
C1030 H1018 0.930 . S
C1030 C1031 1.399 . S
C1030 C1035 1.399 . S
C1031 C1030 1.399 . S
C1031 C1032 1.376 . S
C1032 H1019 0.930 . S
C1032 C1031 1.376 . S
C1032 C1033 1.388 . S
C1033 H1020 0.930 . S
C1033 C1032 1.388 . S
C1033 C1034 1.390 . S
C1034 C1033 1.390 . S
C1034 C1035 1.394 . S
C1034 C1040 1.465 . S
C1035 C1030 1.399 . S
C1035 C1034 1.394 . S
C1035 C1036 1.516 . S
C1036 C1035 1.516 . S
C1036 C1037 1.502 . S
C1036 C1038 1.561 . S
C1036 C1039 1.526 . S
C1037 H1021 0.959 . S
C1037 H1022 0.959 . S
C1037 H1023 0.961 . S
C1037 C1036 1.502 . S
C1038 H1024 0.960 . S
C1038 H1025 0.961 . S
C1038 H1026 0.959 . S
C1038 C1036 1.561 . S
C1039 C1036 1.526 . S
C1039 C1040 1.396 . S
C1039 C1044 1.390 . S
C1040 C1034 1.465 . S
C1040 C1039 1.396 . S
C1040 C1041 1.399 . S
C1041 H1027 0.929 . S
C1041 C1040 1.399 . S
C1041 C1042 1.385 . S
C1042 H1028 0.931 . S
C1042 C1041 1.385 . S
C1042 C1043 1.389 . S
C1043 C1042 1.389 . S
C1043 C1044 1.387 . S
C1044 H1029 0.930 . S
C1044 C1039 1.390 . S
C1044 C1043 1.387 . S
H1045 C1057 0.930 . S
H1046 C1059 0.930 . S
H1047 C1060 0.930 . S
H1048 C1064 0.959 . S
H1049 C1064 0.959 . S
H1050 C1064 0.961 . S
H1051 C1065 0.960 . S
H1052 C1065 0.961 . S
H1053 C1065 0.959 . S
H1054 C1068 0.929 . S
H1055 C1069 0.931 . S
H1056 C1071 0.930 . S
C1057 H1045 0.930 . S
C1057 C1058 1.399 . S
C1057 C1062 1.399 . S
C1058 C1057 1.399 . S
C1058 C1059 1.376 . S
C1059 H1046 0.930 . S
C1059 C1058 1.376 . S
C1059 C1060 1.388 . S
C1060 H1047 0.930 . S
C1060 C1059 1.388 . S
C1060 C1061 1.390 . S
C1061 C1060 1.390 . S
C1061 C1062 1.394 . S
C1061 C1067 1.465 . S
C1062 C1057 1.399 . S
C1062 C1061 1.394 . S
C1062 C1063 1.516 . S
C1063 C1062 1.516 . S
C1063 C1064 1.502 . S
C1063 C1065 1.561 . S
C1063 C1066 1.526 . S
C1064 H1048 0.959 . S
C1064 H1049 0.959 . S
C1064 H1050 0.961 . S
C1064 C1063 1.502 . S
C1065 H1051 0.960 . S
C1065 H1052 0.961 . S
C1065 H1053 0.959 . S
C1065 C1063 1.561 . S
C1066 C1063 1.526 . S
C1066 C1067 1.396 . S
C1066 C1071 1.390 . S
C1067 C1061 1.465 . S
C1067 C1066 1.396 . S
C1067 C1068 1.399 . S
C1068 H1054 0.929 . S
C1068 C1067 1.399 . S
C1068 C1069 1.385 . S
C1069 H1055 0.931 . S
C1069 C1068 1.385 . S
C1069 C1070 1.389 . S
C1070 C1069 1.389 . S
C1070 C1071 1.387 . S
C1071 H1056 0.930 . S
C1071 C1066 1.390 . S
C1071 C1070 1.387 . S
C437 C76 1.858 . S
C449 C151 2.028 . S
C476 C228 2.034 . S
C464 C87 1.846 . S
C503 C319 2.023 . S
C491 C54 1.846 . S
C530 C403 2.006 . S
C518 C65 1.829 . S
C557 C162 2.000 . S
C545 C32 1.859 . S
C572 C43 1.858 . S
C584 C239 2.028 . S
C599 C10 1.866 . S
C611 C330 1.989 . S
C626 C21 1.851 . S
C638 C414 2.013 1_655 S
C665 C146 0.579 1_455 S
C653 C60 0.667 . S
C692 C241 0.577 . S
C680 C71 0.557 . S
C719 C314 0.690 . S
C707 C82 0.531 . S
C734 C49 0.519 . S
C746 C398 0.688 . S
C761 C16 0.606 . S
C773 C157 0.711 1_554 S
C800 C230 0.718 1_556 S
C788 C27 0.617 . S
C827 C325 0.549 . S
C815 C38 0.623 . S
C842 C5 0.502 . S
C854 C409 0.534 1_554 S
C869 C59 1.893 . S
C881 C155 2.115 . S
C896 C70 1.876 . S
C908 C246 2.117 . S
C935 C323 2.129 . S
C923 C81 1.910 . S
C962 C407 2.141 . S
C950 C48 1.889 . S
C977 C15 1.872 . S
C989 C144 2.120 . S
C1016 C235 2.116 1_565 S
C1004 C26 1.927 . S
C1043 C312 2.134 . S
C1031 C37 1.882 . S
C1058 C4 1.902 . S
C1070 C396 2.130 . S
