# Generated by pormake.
# Topology pyr, (3,6)-cn, num edge types: 1
# Building blocks:
#     Node 0, Type 0, BuildingBlock: PAMTOO_clean_linker_0, # of connection points: 3
#     Node 1, Type 0, BuildingBlock: PAMTOO_clean_linker_0, # of connection points: 3
#     Node 2, Type 0, BuildingBlock: PAMTOO_clean_linker_0, # of connection points: 3
#     Node 3, Type 0, BuildingBlock: PAMTOO_clean_linker_0, # of connection points: 3
#     Node 4, Type 0, BuildingBlock: PAMTOO_clean_linker_0, # of connection points: 3
#     Node 5, Type 0, BuildingBlock: PAMTOO_clean_linker_0, # of connection points: 3
#     Node 6, Type 0, BuildingBlock: PAMTOO_clean_linker_0, # of connection points: 3
#     Node 7, Type 0, BuildingBlock: PAMTOO_clean_linker_0, # of connection points: 3
#     Node 8, Type 1, BuildingBlock: BETGAK_clean_sbu_0, # of connection points: 6
#     Node 9, Type 1, BuildingBlock: BETGAK_clean_sbu_0, # of connection points: 6
#     Node 10, Type 1, BuildingBlock: BETGAK_clean_sbu_0, # of connection points: 6
#     Node 11, Type 1, BuildingBlock: BETGAK_clean_sbu_0, # of connection points: 6
#     Edge 12, Type (0, 1), None
#     Edge 13, Type (0, 1), None
#     Edge 14, Type (0, 1), None
#     Edge 15, Type (0, 1), None
#     Edge 16, Type (0, 1), None
#     Edge 17, Type (0, 1), None
#     Edge 18, Type (0, 1), None
#     Edge 19, Type (0, 1), None
#     Edge 20, Type (0, 1), None
#     Edge 21, Type (0, 1), None
#     Edge 22, Type (0, 1), None
#     Edge 23, Type (0, 1), None
#     Edge 24, Type (0, 1), None
#     Edge 25, Type (0, 1), None
#     Edge 26, Type (0, 1), None
#     Edge 27, Type (0, 1), None
#     Edge 28, Type (0, 1), None
#     Edge 29, Type (0, 1), None
#     Edge 30, Type (0, 1), None
#     Edge 31, Type (0, 1), None
#     Edge 32, Type (0, 1), None
#     Edge 33, Type (0, 1), None
#     Edge 34, Type (0, 1), None
#     Edge 35, Type (0, 1), None
# Relax obj value: 0.506
# Max RMSD: 0.278
# Mean RMSD: 0.169
data_MOF--net-pyr--node1-BETGAK_clean_sbu_0--node2-PAMTOO_clean_linker_0--edge1-none
_symmetry_space_group_name_H-M    P1
_symmetry_Int_Tables_number       1
_symmetry_cell_setting            triclinic
loop_
_symmetry_equiv_pos_as_xyz
'x, y, z'
_cell_length_a     16.596311
_cell_length_b     18.497963
_cell_length_c     16.901197
_cell_angle_alpha  93.226121
_cell_angle_beta   86.985878
_cell_angle_gamma 111.23634
loop_
_atom_site_label
_atom_site_type_symbol
_atom_site_fract_x
_atom_site_fract_y
_atom_site_fract_z
_atom_type_partial_charge
H0 H 0.44608 0.53417 0.31164 0.0
H1 H 0.63309 0.44544 0.38551 0.0
H2 H 0.49734 0.35207 0.17566 0.0
H3 H 0.53314 0.27064 0.33357 0.0
C4 C 0.60064 0.28754 0.30855 0.0
O5 O 0.62425 0.35452 0.26635 0.0
H6 H 0.64517 0.29678 0.35812 0.0
C7 C 0.4864 0.4996 0.30071 0.0
C8 C 0.46626 0.4455 0.23645 0.0
C9 C 0.5296 0.4855 0.3637 0.0
C10 C 0.5915 0.4519 0.34215 0.0
C11 C 0.58044 0.40343 0.27406 0.0
C12 C 0.51415 0.39685 0.22254 0.0
H13 H 0.26673 1.09653 0.83436 0.0
H14 H 0.25023 1.0033 0.59514 0.0
H15 H 0.22689 0.85435 0.78741 0.0
H16 H 0.32666 0.91014 0.54803 0.0
C17 C 0.30104 0.85865 0.58564 0.0
O18 O 0.23233 0.8633 0.63268 0.0
H19 H 0.27606 0.8066 0.54509 0.0
C20 C 0.25781 1.04735 0.79314 0.0
C21 C 0.24203 0.97301 0.8212 0.0
C22 C 0.25989 1.05888 0.71234 0.0
C23 C 0.2502 0.99603 0.65831 0.0
C24 C 0.23973 0.92286 0.68534 0.0
C25 C 0.23558 0.91121 0.76681 0.0
H26 H 0.84647 0.37926 1.09237 0.0
H27 H 0.66072 0.36362 0.91411 0.0
H28 H 0.8884 0.57048 0.93919 0.0
H29 H 0.79394 0.62699 0.86807 0.0
C30 C 0.73514 0.5798 0.84647 0.0
O31 O 0.74932 0.50735 0.85102 0.0
H32 H 0.68247 0.57852 0.89035 0.0
C33 C 0.8246 0.40439 1.04538 0.0
C34 C 0.87729 0.48187 1.02244 0.0
C35 C 0.7447 0.35852 1.00824 0.0
C36 C 0.71918 0.39628 0.94494 0.0
C37 C 0.76931 0.4746 0.91903 0.0
C38 C 0.84797 0.51388 0.9591 0.0
H39 H 0.91982 0.90577 0.63712 0.0
H40 H 0.90775 0.71299 0.47655 0.0
H41 H 0.11767 0.93512 0.45241 0.0
H42 H 1.03481 0.79906 0.28067 0.0
C43 C 1.03501 0.75119 0.31739 0.0
O44 O 1.05822 0.78248 0.39647 0.0
H45 H 0.96736 0.70903 0.3192 0.0
C46 C 0.9467 0.88267 0.58635 0.0
C47 C 1.02313 0.93283 0.54865 0.0
C48 C 0.90268 0.80446 0.56099 0.0
C49 C 0.93874 0.77355 0.49436 0.0
C50 C 1.01645 0.81901 0.45228 0.0
C51 C 1.05714 0.89975 0.48047 0.0
H52 H 0.65219 0.95376 0.86544 0.0
H53 H 0.69501 0.97303 0.11417 0.0
H54 H 0.73479 0.78959 0.97734 0.0
H55 H 0.73097 0.75635 0.1141 0.0
C56 C 0.78708 0.80977 0.12934 0.0
O57 O 0.77367 0.87551 0.10795 0.0
H58 H 0.79255 0.81312 0.19477 0.0
C59 C 0.66678 0.92946 0.91712 0.0
C60 C 0.70293 0.87052 0.90979 0.0
C61 C 0.66391 0.96701 0.99074 0.0
C62 C 0.68964 0.94089 1.05828 0.0
C63 C 0.7186 0.87887 1.05268 0.0
C64 C 0.71396 0.83824 0.98008 0.0
H65 H 0.94101 0.15782 0.53089 0.0
H66 H 1.0034 0.39732 0.47854 0.0
H67 H 1.03442 0.33551 0.71324 0.0
H68 H 1.046 0.5499 0.67073 0.0
C69 C 1.00465 0.48782 0.66163 0.0
O70 O 1.05425 0.4506 0.622 0.0
H71 H 0.98377 0.46322 0.72112 0.0
C72 C 0.96003 0.2185 0.55021 0.0
C73 C 0.9838 0.23985 0.62811 0.0
C74 C 0.96482 0.27431 0.49606 0.0
C75 C 0.99716 0.35311 0.52023 0.0
C76 C 1.02131 0.37484 0.59893 0.0
C77 C 1.01317 0.3181 0.65327 0.0
H78 H 0.41413 0.89404 0.14646 0.0
H79 H 0.39007 0.70873 0.30321 0.0
H80 H 0.60162 0.92839 0.32806 0.0
H81 H 0.63722 0.76514 0.37158 0.0
C82 C 0.57251 0.7365 0.4004 0.0
O83 O 0.52485 0.78708 0.39394 0.0
H84 H 0.54098 0.68301 0.36337 0.0
C85 C 0.43852 0.87223 0.19438 0.0
C86 C 0.51648 0.92361 0.23178 0.0
C87 C 0.39096 0.79343 0.21838 0.0
C88 C 0.42517 0.76657 0.28272 0.0
C89 C 0.50148 0.81324 0.32377 0.0
C90 C 0.54517 0.89145 0.29679 0.0
H91 H 0.11657 0.3819 0.91425 0.0
H92 H 0.31498 0.61075 0.88881 0.0
H93 H 0.31731 0.42217 0.73023 0.0
H94 H 0.48105 0.52523 0.79702 0.0
C95 C 0.47697 0.57347 0.76286 0.0
O96 O 0.39073 0.56713 0.75943 0.0
H97 H 0.51272 0.62778 0.79649 0.0
C98 C 0.17558 0.42006 0.88613 0.0
C99 C 0.2142 0.38842 0.81936 0.0
C100 C 0.2112 0.50185 0.91472 0.0
C101 C 0.2872 0.54944 0.87276 0.0
C102 C 0.32409 0.5199 0.80599 0.0
C103 C 0.28737 0.44156 0.78154 0.0
La104 La 0.17161 0.19696 0.61054 0.0
La105 La 0.08703 1.12435 0.75717 0.0
C106 C 0.22966 0.29496 0.50572 0.0
C107 C 0.31581 0.35567 0.4961 0.0
C108 C 0.39028 0.33683 0.49728 0.0
C109 C 0.46915 0.38828 0.46896 0.0
C110 C 0.47448 0.45914 0.43763 0.0
C111 C 0.40488 0.48482 0.45603 0.0
C112 C 0.32472 0.43212 0.48195 0.0
C113 C 0.26344 1.13409 0.68489 0.0
C114 C 0.18069 0.30464 0.77906 0.0
C115 C 1.01854 1.02133 0.8527 0.0
C116 C 0.93463 0.96227 0.83616 0.0
C117 C 0.87593 0.98256 0.79384 0.0
C118 C 0.79002 0.9337 0.79259 0.0
C119 C 0.7627 0.86856 0.84015 0.0
C120 C 0.82607 0.83559 0.8512 0.0
C121 C 0.91235 0.88529 0.85683 0.0
C122 C 0.99566 0.18157 0.67523 0.0
C123 C 0.06534 1.0156 0.58948 0.0
O124 O 0.22668 0.22337 0.4967 0.0
O125 O 0.1822 0.30446 0.56647 0.0
O126 O 0.272 0.1472 0.61018 0.0
O127 O 0.21764 0.17008 0.71645 0.0
O128 O 0.19125 0.29805 0.69984 0.0
O129 O 0.15033 0.23973 0.81933 0.0
O130 O 1.01782 1.09164 0.86493 0.0
O131 O 0.08022 1.01915 0.80295 0.0
O132 O 0.99431 0.18361 0.75166 0.0
O133 O 1.04189 0.14468 0.6494 0.0
O134 O 1.05635 1.02221 0.66855 0.0
O135 O 0.10088 1.0809 0.54996 0.0
H136 H 0.3865 0.27976 0.51326 0.0
H137 H 0.52165 0.36669 0.4617 0.0
H138 H 0.40828 0.54156 0.43946 0.0
H139 H 0.26879 0.44939 0.48544 0.0
H140 H 0.89435 1.03861 0.76783 0.0
H141 H 0.7451 0.95654 0.76938 0.0
H142 H 0.80815 0.77724 0.87142 0.0
H143 H 0.95966 0.86519 0.88024 0.0
La144 La 0.70021 0.14007 0.14731 0.0
La145 La 0.55935 1.13928 1.0879 0.0
C146 C 0.85306 0.16239 0.18266 0.0
C147 C 0.88849 0.18659 0.26144 0.0
C148 C 0.83959 0.15041 0.32802 0.0
C149 C 0.86327 0.18097 0.40354 0.0
C150 C 0.93717 0.24781 0.41467 0.0
C151 C 0.98609 0.2847 0.34833 0.0
C152 C 0.96194 0.25411 0.27192 0.0
C153 C 0.56696 1.01104 0.20611 0.0
C154 C 0.60687 0.22489 0.25315 0.0
C155 C 0.40307 1.11466 1.06568 0.0
C156 C 0.33357 1.04549 1.03695 0.0
C157 C 0.35478 0.98414 1.00089 0.0
C158 C 0.3101 0.94411 0.93488 0.0
C159 C 0.24398 0.96534 0.9073 0.0
C160 C 0.20755 1.0089 0.95845 0.0
C161 C 0.2544 1.05154 1.02219 0.0
C162 C 0.69043 0.27113 1.03318 0.0
C163 C 0.65092 1.04196 0.9973 0.0
O164 O 0.79305 1.09385 0.17643 0.0
O165 O 0.83085 0.21386 0.14972 0.0
O166 O 0.63114 1.06035 0.24446 0.0
O167 O 0.57735 1.03782 0.13596 0.0
O168 O 0.68061 0.21514 0.24223 0.0
O169 O 0.54618 0.19496 0.20195 0.0
O170 O 0.4655 0.14427 1.01301 0.0
O171 O 0.43223 1.11056 0.13472 0.0
O172 O 0.62752 0.22232 0.993 0.0
O173 O 0.67951 0.24239 1.10279 0.0
O174 O 0.57385 1.03964 1.02099 0.0
O175 O 0.71467 1.10117 1.02539 0.0
H176 H 0.78114 1.09966 0.3221 0.0
H177 H 0.82309 0.15229 0.45351 0.0
H178 H 1.04281 0.33664 0.3557 0.0
H179 H 0.99896 0.28421 0.22114 0.0
H180 H 0.41364 0.97606 1.01483 0.0
H181 H 0.33736 0.90806 0.8983 0.0
H182 H 0.15363 1.02284 0.94037 0.0
H183 H 0.23557 1.09692 1.05148 0.0
La184 La 0.66375 0.6006 0.5831 0.0
La185 La 0.65784 0.73468 0.66734 0.0
C186 C 0.72366 0.51435 0.50119 0.0
C187 C 0.78886 0.48564 0.52882 0.0
C188 C 0.77429 0.44681 0.60041 0.0
C189 C 0.84395 0.44531 0.64227 0.0
C190 C 0.92896 0.48288 0.61339 0.0
C191 C 0.94322 0.51638 0.53912 0.0
C192 C 0.87363 0.51674 0.49657 0.0
C193 C 0.52267 0.57187 0.68139 0.0
C194 C 0.71206 0.60998 0.76491 0.0
C195 C 0.59641 0.83175 0.72723 0.0
C196 C 0.51497 0.83965 0.70631 0.0
C197 C 0.51271 0.91305 0.69313 0.0
C198 C 0.44146 0.91948 0.65743 0.0
C199 C 0.37166 0.85255 0.63453 0.0
C200 C 0.37179 0.77946 0.65204 0.0
C201 C 0.44299 0.77299 0.68714 0.0
C202 C 0.81962 0.75766 0.60741 0.0
C203 C 0.59053 0.70899 0.4849 0.0
O204 O 0.64606 0.48863 0.53487 0.0
O205 O 0.75261 0.5895 0.49539 0.0
O206 O 0.56408 0.52519 0.66494 0.0
O207 O 0.55837 0.6292 0.63778 0.0
O208 O 0.72883 0.58598 0.69244 0.0
O209 O 0.67977 0.66735 0.76882 0.0
O210 O 0.65654 0.84805 0.67094 0.0
O211 O 0.5889 0.7679 0.76141 0.0
O212 O 0.79976 0.78285 0.67634 0.0
O213 O 0.74765 0.72085 0.57595 0.0
O214 O 0.61221 0.75678 0.54903 0.0
O215 O 0.59977 0.63985 0.4876 0.0
H216 H 0.70989 0.42281 0.62725 0.0
H217 H 0.83159 0.418 0.69895 0.0
H218 H 1.00847 0.54455 0.51539 0.0
H219 H 0.88667 0.54757 0.44189 0.0
H220 H 0.56778 0.96506 0.70673 0.0
H221 H 0.44232 0.9765 0.64471 0.0
H222 H 0.31858 0.72718 0.63512 0.0
H223 H 0.4434 0.71554 0.69551 0.0
La224 La 0.13756 0.5905 0.15209 0.0
La225 La 0.13243 0.6733 1.08693 0.0
C226 C 0.15354 0.48271 0.22715 0.0
C227 C 0.22177 0.45028 0.2104 0.0
C228 C 0.2318 0.39629 0.25988 0.0
C229 C 0.30946 0.38272 0.25686 0.0
C230 C 0.37888 0.42548 0.20663 0.0
C231 C 0.36514 0.47264 0.15104 0.0
C232 C 0.28645 0.4841 0.15223 0.0
C233 C 0.09455 0.71003 0.27044 0.0
C234 C 0.30422 0.73851 0.17936 0.0
C235 C 0.10437 0.77321 1.00916 0.0
C236 C 1.02754 0.79623 1.02607 0.0
C237 C 0.94706 0.74923 0.99569 0.0
C238 C 0.86991 0.75348 1.0289 0.0
C239 C 0.87098 0.80799 1.09041 0.0
C240 C 0.95144 0.85971 0.11642 0.0
C241 C 1.02894 0.85355 1.08507 0.0
C242 C 0.16175 0.53821 0.97895 0.0
C243 C 0.96409 0.53175 1.06225 0.0
O244 O 0.18257 0.55528 0.2515 0.0
O245 O 0.09808 0.47076 0.17174 0.0
O246 O 0.06551 0.66073 0.21008 0.0
O247 O 0.06813 0.66029 0.20948 0.0
O248 O 0.27538 0.66233 0.18265 0.0
O249 O 0.25029 0.76253 0.14369 0.0
O250 O 0.08639 0.70151 0.9839 0.0
O251 O 0.16227 0.79169 1.06362 0.0
O252 O 0.20048 0.59911 1.02674 0.0
O253 O 0.19593 0.59864 1.02763 0.0
O254 O 0.99345 0.60758 1.06278 0.0
O255 O 1.01829 0.5048 1.09336 0.0
H256 H 0.18339 0.36995 0.30537 0.0
H257 H 0.31958 0.34736 0.30158 0.0
H258 H 0.41815 0.50735 0.11315 0.0
H259 H 0.27974 0.52571 0.11312 0.0
H260 H 0.94324 0.70555 0.94928 0.0
H261 H 0.80928 0.71236 1.00775 0.0
H262 H 0.95413 0.90275 0.16339 0.0
H263 H 0.08949 0.8909 0.10998 0.0
loop_
_geom_bond_atom_site_label_1
_geom_bond_atom_site_label_2
_geom_bond_distance
_geom_bond_site_symmetry_2
_ccdc_geom_bond_type
H0 C7 0.929 . S
H1 C10 0.930 . S
H2 C12 0.929 . S
H3 C4 0.969 . S
C4 H3 0.969 . S
C4 O5 1.550 . S
C4 H6 0.973 . S
O5 C4 1.550 . S
O5 C11 1.412 . S
H6 C4 0.973 . S
C7 H0 0.929 . S
C7 C8 1.400 . S
C7 C9 1.364 . S
C8 C7 1.400 . S
C8 C12 1.377 . S
C9 C7 1.364 . S
C9 C10 1.374 . S
C10 H1 0.930 . S
C10 C9 1.374 . S
C10 C11 1.383 . S
C11 O5 1.412 . S
C11 C10 1.383 . S
C11 C12 1.394 . S
C12 H2 0.929 . S
C12 C8 1.377 . S
C12 C11 1.394 . S
H13 C20 0.929 . S
H14 C23 0.930 . S
H15 C25 0.929 . S
H16 C17 0.969 . S
C17 H16 0.969 . S
C17 O18 1.550 . S
C17 H19 0.973 . S
O18 C17 1.550 . S
O18 C24 1.412 . S
H19 C17 0.973 . S
C20 H13 0.929 . S
C20 C21 1.400 . S
C20 C22 1.364 . S
C21 C20 1.400 . S
C21 C25 1.377 . S
C22 C20 1.364 . S
C22 C23 1.374 . S
C23 H14 0.930 . S
C23 C22 1.374 . S
C23 C24 1.383 . S
C24 O18 1.412 . S
C24 C23 1.383 . S
C24 C25 1.394 . S
C25 H15 0.929 . S
C25 C21 1.377 . S
C25 C24 1.394 . S
H26 C33 0.929 . S
H27 C36 0.930 . S
H28 C38 0.929 . S
H29 C30 0.969 . S
C30 H29 0.969 . S
C30 O31 1.550 . S
C30 H32 0.973 . S
O31 C30 1.550 . S
O31 C37 1.412 . S
H32 C30 0.973 . S
C33 H26 0.929 . S
C33 C34 1.400 . S
C33 C35 1.364 . S
C34 C33 1.400 . S
C34 C38 1.377 . S
C35 C33 1.364 . S
C35 C36 1.374 . S
C36 H27 0.930 . S
C36 C35 1.374 . S
C36 C37 1.383 . S
C37 O31 1.412 . S
C37 C36 1.383 . S
C37 C38 1.394 . S
C38 H28 0.929 . S
C38 C34 1.377 . S
C38 C37 1.394 . S
H39 C46 0.929 . S
H40 C49 0.930 . S
H41 C51 0.929 1_455 S
H42 C43 0.969 . S
C43 H42 0.969 . S
C43 O44 1.550 1_655 S
C43 H45 0.973 . S
O44 C43 1.550 1_455 S
O44 C50 1.412 1_455 S
H45 C43 0.973 . S
C46 H39 0.929 . S
C46 C47 1.400 . S
C46 C48 1.364 . S
C47 C46 1.400 . S
C47 C51 1.377 . S
C48 C46 1.364 . S
C48 C49 1.374 . S
C49 H40 0.930 . S
C49 C48 1.374 . S
C49 C50 1.383 . S
C50 O44 1.412 1_655 S
C50 C49 1.383 . S
C50 C51 1.394 . S
C51 H41 0.929 1_655 S
C51 C47 1.377 . S
C51 C50 1.394 . S
H52 C59 0.929 . S
H53 C62 0.930 . S
H54 C64 0.929 . S
H55 C56 0.969 . S
C56 H55 0.969 . S
C56 O57 1.550 . S
C56 H58 0.973 . S
O57 C56 1.550 . S
O57 C63 1.412 . S
H58 C56 0.973 . S
C59 H52 0.929 . S
C59 C60 1.400 . S
C59 C61 1.364 . S
C60 C59 1.400 . S
C60 C64 1.377 . S
C61 C59 1.364 . S
C61 C62 1.374 . S
C62 H53 0.930 . S
C62 C61 1.374 . S
C62 C63 1.383 . S
C63 O57 1.412 . S
C63 C62 1.383 . S
C63 C64 1.394 . S
C64 H54 0.929 . S
C64 C60 1.377 . S
C64 C63 1.394 . S
H65 C72 0.923 1_455 S
H66 C75 0.930 . S
H67 C77 0.929 . S
H68 C69 0.969 . S
C69 H68 0.969 . S
C69 O70 1.550 . S
C69 H71 0.973 . S
O70 C69 1.550 . S
O70 C76 1.412 . S
H71 C69 0.973 . S
C72 H65 0.923 1_655 S
C72 C73 1.400 1_655 S
C72 C74 1.364 . S
C73 C72 1.400 1_455 S
C73 C77 1.377 . S
C74 C72 1.364 . S
C74 C75 1.374 . S
C75 H66 0.930 . S
C75 C74 1.374 . S
C75 C76 1.383 . S
C76 O70 1.412 . S
C76 C75 1.383 . S
C76 C77 1.394 1_655 S
C77 H67 0.929 . S
C77 C73 1.377 . S
C77 C76 1.394 1_455 S
H78 C85 0.929 . S
H79 C88 0.930 . S
H80 C90 0.929 . S
H81 C82 0.969 . S
C82 H81 0.969 . S
C82 O83 1.550 . S
C82 H84 0.973 . S
O83 C82 1.550 . S
O83 C89 1.412 . S
H84 C82 0.973 . S
C85 H78 0.929 . S
C85 C86 1.400 . S
C85 C87 1.364 . S
C86 C85 1.400 . S
C86 C90 1.377 . S
C87 C85 1.364 . S
C87 C88 1.374 . S
C88 H79 0.930 . S
C88 C87 1.374 . S
C88 C89 1.383 . S
C89 O83 1.412 . S
C89 C88 1.383 . S
C89 C90 1.394 . S
C90 H80 0.929 . S
C90 C86 1.377 . S
C90 C89 1.394 . S
H91 C98 0.929 . S
H92 C101 0.930 . S
H93 C103 0.929 . S
H94 C95 0.969 . S
C95 H94 0.969 . S
C95 O96 1.550 . S
C95 H97 0.973 . S
O96 C95 1.550 . S
O96 C102 1.412 . S
H97 C95 0.973 . S
C98 H91 0.929 . S
C98 C99 1.400 . S
C98 C100 1.364 . S
C99 C98 1.400 . S
C99 C103 1.377 . S
C100 C98 1.364 . S
C100 C101 1.374 . S
C101 H92 0.930 . S
C101 C100 1.374 . S
C101 C102 1.383 . S
C102 O96 1.412 . S
C102 C101 1.383 . S
C102 C103 1.394 . S
C103 H93 0.929 . S
C103 C99 1.377 . S
C103 C102 1.394 . S
La104 C106 2.928 . S
La104 O124 2.521 . S
La104 O125 2.628 . S
La104 O126 2.554 1_545 S
La104 O127 2.757 1_545 S
La104 O128 2.470 . S
La104 O133 2.482 1_455 S
La104 O135 2.503 1_445 S
La105 C115 2.928 1_545 S
La105 O127 2.482 1_645 S
La105 O129 2.503 1_655 S
La105 O130 2.521 1_545 S
La105 O131 2.628 1_545 S
La105 O132 2.554 . S
La105 O133 2.757 . S
La105 O134 2.470 1_545 S
C106 La104 2.928 . S
C106 C107 1.503 . S
C106 O124 1.261 . S
C106 O125 1.243 . S
C107 C106 1.503 . S
C107 C108 1.394 . S
C107 C112 1.373 . S
C108 C107 1.394 . S
C108 C109 1.380 . S
C108 H136 0.930 . S
C109 C108 1.380 . S
C109 C110 1.376 . S
C109 H137 0.930 . S
C110 C109 1.376 . S
C110 C111 1.370 . S
C111 C110 1.370 . S
C111 C112 1.396 . S
C111 H138 0.929 . S
C112 C107 1.373 . S
C112 C111 1.396 . S
C112 H139 0.929 . S
C113 O126 1.240 . S
C113 O127 1.289 . S
C114 O128 1.258 . S
C114 O129 1.256 . S
C115 La105 2.928 1_565 S
C115 C116 1.503 . S
C115 O130 1.261 . S
C115 O131 1.243 . S
C116 C115 1.503 . S
C116 C117 1.394 . S
C116 C121 1.373 . S
C117 C116 1.394 . S
C117 C118 1.380 . S
C117 H140 0.930 . S
C118 C117 1.380 . S
C118 C119 1.376 . S
C118 H141 0.930 . S
C119 C118 1.376 . S
C119 C120 1.370 . S
C120 C119 1.370 . S
C120 C121 1.396 . S
C120 H142 0.929 . S
C121 C116 1.373 . S
C121 C120 1.396 . S
C121 H143 0.929 . S
C122 O132 1.240 . S
C122 O133 1.289 . S
C123 O134 1.258 . S
C123 O135 1.256 . S
O124 La104 2.521 . S
O124 C106 1.261 . S
O125 La104 2.628 . S
O125 C106 1.243 . S
O126 La104 2.554 1_565 S
O126 C113 1.240 . S
O127 La104 2.757 1_565 S
O127 La105 2.482 1_465 S
O127 C113 1.289 . S
O128 La104 2.470 . S
O128 C114 1.258 . S
O129 La105 2.503 1_455 S
O129 C114 1.256 . S
O130 La105 2.521 1_565 S
O130 C115 1.261 . S
O131 La105 2.628 1_565 S
O131 C115 1.243 . S
O132 La105 2.554 . S
O132 C122 1.240 . S
O133 La104 2.482 1_655 S
O133 La105 2.757 . S
O133 C122 1.289 . S
O134 La105 2.470 1_565 S
O134 C123 1.258 . S
O135 La104 2.503 1_665 S
O135 C123 1.256 . S
H136 C108 0.930 . S
H137 C109 0.930 . S
H138 C111 0.929 . S
H139 C112 0.929 . S
H140 C117 0.930 . S
H141 C118 0.930 . S
H142 C120 0.929 . S
H143 C121 0.929 . S
La144 C146 2.928 . S
La144 O164 2.521 . S
La144 O165 2.628 . S
La144 O166 2.554 1_545 S
La144 O167 2.757 1_545 S
La144 O168 2.470 . S
La144 O173 2.482 1_554 S
La144 O175 2.503 1_544 S
La145 C155 2.928 1_545 S
La145 O167 2.482 1_546 S
La145 O169 2.503 1_556 S
La145 O170 2.521 1_545 S
La145 O171 2.628 1_545 S
La145 O172 2.554 . S
La145 O173 2.757 . S
La145 O174 2.470 1_545 S
C146 La144 2.928 . S
C146 C147 1.503 . S
C146 O164 1.261 . S
C146 O165 1.243 . S
C147 C146 1.503 . S
C147 C148 1.394 . S
C147 C152 1.373 . S
C148 C147 1.394 . S
C148 C149 1.380 . S
C148 H176 0.930 . S
C149 C148 1.380 . S
C149 C150 1.376 . S
C149 H177 0.930 . S
C150 C149 1.376 . S
C150 C151 1.370 . S
C151 C150 1.370 . S
C151 C152 1.396 . S
C151 H178 0.929 . S
C152 C147 1.373 . S
C152 C151 1.396 . S
C152 H179 0.929 . S
C153 O166 1.240 . S
C153 O167 1.289 . S
C154 O168 1.258 . S
C154 O169 1.256 . S
C155 La145 2.928 1_565 S
C155 C156 1.503 . S
C155 O170 1.261 . S
C155 O171 1.243 . S
C156 C155 1.503 . S
C156 C157 1.394 . S
C156 C161 1.373 . S
C157 C156 1.394 . S
C157 C158 1.380 . S
C157 H180 0.930 . S
C158 C157 1.380 . S
C158 C159 1.376 . S
C158 H181 0.930 . S
C159 C158 1.376 . S
C159 C160 1.370 . S
C160 C159 1.370 . S
C160 C161 1.396 . S
C160 H182 0.929 . S
C161 C156 1.373 . S
C161 C160 1.396 . S
C161 H183 0.929 . S
C162 O172 1.240 . S
C162 O173 1.289 . S
C163 O174 1.258 . S
C163 O175 1.256 . S
O164 La144 2.521 . S
O164 C146 1.261 . S
O165 La144 2.628 . S
O165 C146 1.243 . S
O166 La144 2.554 1_565 S
O166 C153 1.240 . S
O167 La144 2.757 1_565 S
O167 La145 2.482 1_564 S
O167 C153 1.289 . S
O168 La144 2.470 . S
O168 C154 1.258 . S
O169 La145 2.503 1_554 S
O169 C154 1.256 . S
O170 La145 2.521 1_565 S
O170 C155 1.261 . S
O171 La145 2.628 1_565 S
O171 C155 1.243 . S
O172 La145 2.554 . S
O172 C162 1.240 . S
O173 La144 2.482 1_556 S
O173 La145 2.757 . S
O173 C162 1.289 . S
O174 La145 2.470 1_565 S
O174 C163 1.258 . S
O175 La144 2.503 1_566 S
O175 C163 1.256 . S
H176 C148 0.930 . S
H177 C149 0.930 . S
H178 C151 0.929 . S
H179 C152 0.929 . S
H180 C157 0.930 . S
H181 C158 0.930 . S
H182 C160 0.929 . S
H183 C161 0.929 . S
La184 C186 2.928 . S
La184 O204 2.521 . S
La184 O205 2.628 . S
La184 O206 2.554 . S
La184 O207 2.757 . S
La184 O208 2.470 . S
La184 O213 2.482 . S
La184 O215 2.503 . S
La185 C195 2.928 . S
La185 O207 2.482 . S
La185 O209 2.503 . S
La185 O210 2.521 . S
La185 O211 2.628 . S
La185 O212 2.554 . S
La185 O213 2.757 . S
La185 O214 2.470 . S
C186 La184 2.928 . S
C186 C187 1.503 . S
C186 O204 1.261 . S
C186 O205 1.243 . S
C187 C186 1.503 . S
C187 C188 1.394 . S
C187 C192 1.373 . S
C188 C187 1.394 . S
C188 C189 1.380 . S
C188 H216 0.930 . S
C189 C188 1.380 . S
C189 C190 1.376 . S
C189 H217 0.930 . S
C190 C189 1.376 . S
C190 C191 1.370 . S
C191 C190 1.370 . S
C191 C192 1.396 . S
C191 H218 0.929 . S
C192 C187 1.373 . S
C192 C191 1.396 . S
C192 H219 0.929 . S
C193 O206 1.240 . S
C193 O207 1.289 . S
C194 O208 1.258 . S
C194 O209 1.256 . S
C195 La185 2.928 . S
C195 C196 1.503 . S
C195 O210 1.261 . S
C195 O211 1.243 . S
C196 C195 1.503 . S
C196 C197 1.394 . S
C196 C201 1.373 . S
C197 C196 1.394 . S
C197 C198 1.380 . S
C197 H220 0.930 . S
C198 C197 1.380 . S
C198 C199 1.376 . S
C198 H221 0.930 . S
C199 C198 1.376 . S
C199 C200 1.370 . S
C200 C199 1.370 . S
C200 C201 1.396 . S
C200 H222 0.929 . S
C201 C196 1.373 . S
C201 C200 1.396 . S
C201 H223 0.929 . S
C202 O212 1.240 . S
C202 O213 1.289 . S
C203 O214 1.258 . S
C203 O215 1.256 . S
O204 La184 2.521 . S
O204 C186 1.261 . S
O205 La184 2.628 . S
O205 C186 1.243 . S
O206 La184 2.554 . S
O206 C193 1.240 . S
O207 La184 2.757 . S
O207 La185 2.482 . S
O207 C193 1.289 . S
O208 La184 2.470 . S
O208 C194 1.258 . S
O209 La185 2.503 . S
O209 C194 1.256 . S
O210 La185 2.521 . S
O210 C195 1.261 . S
O211 La185 2.628 . S
O211 C195 1.243 . S
O212 La185 2.554 . S
O212 C202 1.240 . S
O213 La184 2.482 . S
O213 La185 2.757 . S
O213 C202 1.289 . S
O214 La185 2.470 . S
O214 C203 1.258 . S
O215 La184 2.503 . S
O215 C203 1.256 . S
H216 C188 0.930 . S
H217 C189 0.930 . S
H218 C191 0.929 . S
H219 C192 0.929 . S
H220 C197 0.930 . S
H221 C198 0.930 . S
H222 C200 0.929 . S
H223 C201 0.929 . S
La224 C226 2.928 . S
La224 O244 2.521 . S
La224 O245 2.628 . S
La224 O246 2.554 . S
La224 O247 2.757 1_455 S
La224 O248 2.470 . S
La224 O253 2.482 . S
La224 O255 2.503 1_455 S
La225 C235 2.928 1_454 S
La225 O247 2.482 1_455 S
La225 O249 2.503 . S
La225 O250 2.521 1_454 S
La225 O251 2.628 1_455 S
La225 O252 2.554 1_554 S
La225 O253 2.757 . S
La225 O254 2.470 1_454 S
C226 La224 2.928 . S
C226 C227 1.503 . S
C226 O244 1.261 . S
C226 O245 1.243 . S
C227 C226 1.503 . S
C227 C228 1.394 . S
C227 C232 1.373 . S
C228 C227 1.394 . S
C228 C229 1.380 . S
C228 H256 0.930 . S
C229 C228 1.380 . S
C229 C230 1.376 . S
C229 H257 0.930 . S
C230 C229 1.376 . S
C230 C231 1.370 . S
C231 C230 1.370 . S
C231 C232 1.396 . S
C231 H258 0.929 . S
C232 C227 1.373 . S
C232 C231 1.396 . S
C232 H259 0.929 . S
C233 O246 1.240 1_655 S
C233 O247 1.289 . S
C234 O248 1.258 . S
C234 O249 1.256 . S
C235 La225 2.928 1_656 S
C235 C236 1.503 . S
C235 O250 1.261 . S
C235 O251 1.243 1_556 S
C236 C235 1.503 . S
C236 C237 1.394 . S
C236 C241 1.373 . S
C237 C236 1.394 . S
C237 C238 1.380 . S
C237 H260 0.930 . S
C238 C237 1.380 . S
C238 C239 1.376 . S
C238 H261 0.930 . S
C239 C238 1.376 . S
C239 C240 1.370 . S
C240 C239 1.370 . S
C240 C241 1.396 . S
C240 H262 0.929 . S
C241 C236 1.373 . S
C241 C240 1.396 . S
C241 H263 0.929 1_556 S
C242 O252 1.240 . S
C242 O253 1.289 1_556 S
C243 O254 1.258 1_554 S
C243 O255 1.256 . S
O244 La224 2.521 . S
O244 C226 1.261 . S
O245 La224 2.628 . S
O245 C226 1.243 . S
O246 La224 2.554 . S
O246 C233 1.240 1_455 S
O247 La224 2.757 1_655 S
O247 La225 2.482 1_655 S
O247 C233 1.289 . S
O248 La224 2.470 . S
O248 C234 1.258 . S
O249 La225 2.503 . S
O249 C234 1.256 . S
O250 La225 2.521 1_656 S
O250 C235 1.261 . S
O251 La225 2.628 1_655 S
O251 C235 1.243 1_554 S
O252 La225 2.554 1_556 S
O252 C242 1.240 . S
O253 La224 2.482 . S
O253 La225 2.757 . S
O253 C242 1.289 1_554 S
O254 La225 2.470 1_656 S
O254 C243 1.258 1_556 S
O255 La224 2.503 1_655 S
O255 C243 1.256 . S
H256 C228 0.930 . S
H257 C229 0.930 . S
H258 C231 0.929 . S
H259 C232 0.929 . S
H260 C237 0.930 . S
H261 C238 0.930 . S
H262 C240 0.929 . S
H263 C241 0.929 1_554 S
C9 C110 2.020 . S
C21 C159 2.279 . S
C194 C30 3.483 . S
C43 C233 3.438 . S
C154 C4 2.993 . S
C113 C22 1.316 . S
C243 C34 2.246 1_554 S
C202 C48 2.372 . S
C8 C230 2.236 . S
C162 C35 3.471 . S
C47 C123 4.176 . S
C17 C199 2.671 . S
C119 C60 1.407 . S
C74 C150 2.062 . S
C82 C203 2.853 . S
C100 C242 4.442 . S
C61 C163 3.541 . S
C122 C73 1.628 1_655 S
C234 C87 3.032 . S
C193 C95 2.421 . S
C56 C239 2.242 . S
C153 C86 3.706 . S
C114 C99 3.987 . S
C69 C190 1.699 . S
