# Generated by pormake.
# Topology wbl, (4,4)-cn, num edge types: 1
# Building blocks:
#     Node 0, Type 0, BuildingBlock: MIFKUJ_clean_linker_1, # of connection points: 4
#     Node 1, Type 0, BuildingBlock: MIFKUJ_clean_linker_1, # of connection points: 4
#     Node 2, Type 0, BuildingBlock: MIFKUJ_clean_linker_1, # of connection points: 4
#     Node 3, Type 0, BuildingBlock: MIFKUJ_clean_linker_1, # of connection points: 4
#     Node 4, Type 0, BuildingBlock: MIFKUJ_clean_linker_1, # of connection points: 4
#     Node 5, Type 0, BuildingBlock: MIFKUJ_clean_linker_1, # of connection points: 4
#     Node 6, Type 0, BuildingBlock: MIFKUJ_clean_linker_1, # of connection points: 4
#     Node 7, Type 0, BuildingBlock: MIFKUJ_clean_linker_1, # of connection points: 4
#     Node 8, Type 1, BuildingBlock: GALJAG_clean_sbu_0, # of connection points: 4
#     Node 9, Type 1, BuildingBlock: GALJAG_clean_sbu_0, # of connection points: 4
#     Node 10, Type 1, BuildingBlock: GALJAG_clean_sbu_0, # of connection points: 4
#     Node 11, Type 1, BuildingBlock: GALJAG_clean_sbu_0, # of connection points: 4
#     Node 12, Type 1, BuildingBlock: GALJAG_clean_sbu_0, # of connection points: 4
#     Node 13, Type 1, BuildingBlock: GALJAG_clean_sbu_0, # of connection points: 4
#     Node 14, Type 1, BuildingBlock: GALJAG_clean_sbu_0, # of connection points: 4
#     Node 15, Type 1, BuildingBlock: GALJAG_clean_sbu_0, # of connection points: 4
#     Edge 16, Type (0, 1), BuildingBlock: XUDNAN_clean_linker_2, # of connection points: 2
#     Edge 17, Type (0, 1), BuildingBlock: XUDNAN_clean_linker_2, # of connection points: 2
#     Edge 18, Type (0, 1), BuildingBlock: XUDNAN_clean_linker_2, # of connection points: 2
#     Edge 19, Type (0, 1), BuildingBlock: XUDNAN_clean_linker_2, # of connection points: 2
#     Edge 20, Type (0, 1), BuildingBlock: XUDNAN_clean_linker_2, # of connection points: 2
#     Edge 21, Type (0, 1), BuildingBlock: XUDNAN_clean_linker_2, # of connection points: 2
#     Edge 22, Type (0, 1), BuildingBlock: XUDNAN_clean_linker_2, # of connection points: 2
#     Edge 23, Type (0, 1), BuildingBlock: XUDNAN_clean_linker_2, # of connection points: 2
#     Edge 24, Type (0, 1), BuildingBlock: XUDNAN_clean_linker_2, # of connection points: 2
#     Edge 25, Type (0, 1), BuildingBlock: XUDNAN_clean_linker_2, # of connection points: 2
#     Edge 26, Type (0, 1), BuildingBlock: XUDNAN_clean_linker_2, # of connection points: 2
#     Edge 27, Type (0, 1), BuildingBlock: XUDNAN_clean_linker_2, # of connection points: 2
#     Edge 28, Type (0, 1), BuildingBlock: XUDNAN_clean_linker_2, # of connection points: 2
#     Edge 29, Type (0, 1), BuildingBlock: XUDNAN_clean_linker_2, # of connection points: 2
#     Edge 30, Type (0, 1), BuildingBlock: XUDNAN_clean_linker_2, # of connection points: 2
#     Edge 31, Type (0, 1), BuildingBlock: XUDNAN_clean_linker_2, # of connection points: 2
#     Edge 32, Type (0, 1), BuildingBlock: XUDNAN_clean_linker_2, # of connection points: 2
#     Edge 33, Type (0, 1), BuildingBlock: XUDNAN_clean_linker_2, # of connection points: 2
#     Edge 34, Type (0, 1), BuildingBlock: XUDNAN_clean_linker_2, # of connection points: 2
#     Edge 35, Type (0, 1), BuildingBlock: XUDNAN_clean_linker_2, # of connection points: 2
#     Edge 36, Type (0, 1), BuildingBlock: XUDNAN_clean_linker_2, # of connection points: 2
#     Edge 37, Type (0, 1), BuildingBlock: XUDNAN_clean_linker_2, # of connection points: 2
#     Edge 38, Type (0, 1), BuildingBlock: XUDNAN_clean_linker_2, # of connection points: 2
#     Edge 39, Type (0, 1), BuildingBlock: XUDNAN_clean_linker_2, # of connection points: 2
#     Edge 40, Type (0, 1), BuildingBlock: XUDNAN_clean_linker_2, # of connection points: 2
#     Edge 41, Type (0, 1), BuildingBlock: XUDNAN_clean_linker_2, # of connection points: 2
#     Edge 42, Type (0, 1), BuildingBlock: XUDNAN_clean_linker_2, # of connection points: 2
#     Edge 43, Type (0, 1), BuildingBlock: XUDNAN_clean_linker_2, # of connection points: 2
#     Edge 44, Type (0, 1), BuildingBlock: XUDNAN_clean_linker_2, # of connection points: 2
#     Edge 45, Type (0, 1), BuildingBlock: XUDNAN_clean_linker_2, # of connection points: 2
#     Edge 46, Type (0, 1), BuildingBlock: XUDNAN_clean_linker_2, # of connection points: 2
#     Edge 47, Type (0, 1), BuildingBlock: XUDNAN_clean_linker_2, # of connection points: 2
# Relax obj value: 0.140
# Max RMSD: 0.144
# Mean RMSD: 0.131
data_MOF--net-wbl--node1-GALJAG_clean_sbu_0--node2-MIFKUJ_clean_linker_1--edge1-XUDNAN_clean_linker_2
_symmetry_space_group_name_H-M    P1
_symmetry_Int_Tables_number       1
_symmetry_cell_setting            triclinic
loop_
_symmetry_equiv_pos_as_xyz
'x, y, z'
_cell_length_a     44.772996
_cell_length_b     44.888318
_cell_length_c     82.139941
_cell_angle_alpha  90.115709
_cell_angle_beta   90.022697
_cell_angle_gamma 89.973638
loop_
_atom_site_label
_atom_site_type_symbol
_atom_site_fract_x
_atom_site_fract_y
_atom_site_fract_z
_atom_type_partial_charge
H0 H 0.99806 0.05578 0.38269 0.0
H1 H 0.96373 0.07708 0.40258 0.0
H2 H 0.88931 0.03745 0.37694 0.0
H3 H 0.92406 0.0153 0.35732 0.0
H4 H 0.00642 0.99781 0.37872 0.0
H5 H 0.97478 0.07904 0.34567 0.0
H6 H 0.93924 0.11127 0.33171 0.0
H7 H 0.91334 0.03761 0.30078 0.0
H8 H 0.94763 0.00508 0.31549 0.0
H9 H 0.02043 0.93818 0.3181 0.0
H10 H 0.05977 0.91516 0.30125 0.0
H11 H 0.12433 0.97634 0.32134 0.0
H12 H 0.08534 0.99867 0.33845 0.0
H13 H 0.00541 0.00419 0.31847 0.0
H14 H 0.03391 0.92278 0.35359 0.0
H15 H 0.06342 0.88994 0.37107 0.0
H16 H 0.09653 0.96668 0.39732 0.0
H17 H 0.06666 0.99926 0.37996 0.0
C18 C 0.96366 0.03394 0.36851 0.0
C19 C 0.97431 0.05195 0.38124 0.0
C20 C 0.9546 0.06432 0.39254 0.0
C21 C 0.92374 0.05891 0.3914 0.0
C22 C 0.91298 0.04175 0.37828 0.0
C23 C 0.93278 0.02933 0.36695 0.0
C24 C 0.98519 0.01787 0.35792 0.0
C25 C 0.0064 0.99962 0.36554 0.0
C26 C 0.98453 0.01946 0.34069 0.0
C27 C 0.9635 0.03941 0.33188 0.0
C28 C 0.96112 0.06969 0.33605 0.0
C29 C 0.94106 0.08826 0.32786 0.0
C30 C 0.92326 0.0771 0.31511 0.0
C31 C 0.92622 0.0469 0.31072 0.0
C32 C 0.94607 0.02829 0.31903 0.0
C33 C 0.05008 0.97007 0.32948 0.0
C34 C 0.04312 0.94641 0.31894 0.0
C35 C 0.0655 0.93323 0.30943 0.0
C36 C 0.09489 0.94406 0.3101 0.0
C37 C 0.10178 0.96766 0.32069 0.0
C38 C 0.0796 0.98039 0.33041 0.0
C39 C 0.02664 0.98459 0.33939 0.0
C40 C 0.00519 0.00251 0.33164 0.0
C41 C 0.02709 0.98299 0.35653 0.0
C42 C 0.0481 0.96346 0.36548 0.0
C43 C 0.04804 0.93254 0.36288 0.0
C44 C 0.06492 0.91379 0.37289 0.0
C45 C 0.08206 0.92568 0.38571 0.0
C46 C 0.08309 0.95678 0.38777 0.0
C47 C 0.06619 0.97545 0.3778 0.0
H48 H 0.99993 0.43927 0.55958 0.0
H49 H 0.97185 0.40506 0.54229 0.0
H50 H 0.88916 0.43979 0.56172 0.0
H51 H 0.9175 0.47412 0.57906 0.0
H52 H 0.00151 0.49847 0.5607 0.0
H53 H 0.97009 0.4195 0.59731 0.0
H54 H 0.93822 0.38788 0.61436 0.0
H55 H 0.90125 0.46633 0.6372 0.0
H56 H 0.93231 0.49784 0.61989 0.0
H57 H 0.99567 0.55731 0.62406 0.0
H58 H 0.02711 0.58636 0.64257 0.0
H59 H 0.10596 0.55133 0.61904 0.0
H60 H 0.07448 0.52202 0.60071 0.0
H61 H 0.99048 0.5001 0.62073 0.0
H62 H 0.01647 0.57912 0.58528 0.0
H63 H 0.05011 0.61411 0.5719 0.0
H64 H 0.09408 0.54079 0.54753 0.0
H65 H 0.06084 0.50573 0.56142 0.0
C66 C 0.96086 0.45909 0.57072 0.0
C67 C 0.97574 0.43967 0.56005 0.0
C68 C 0.95964 0.4202 0.55011 0.0
C69 C 0.92825 0.41978 0.55057 0.0
C70 C 0.91333 0.43938 0.5612 0.0
C71 C 0.92949 0.45898 0.57112 0.0
C72 C 0.97842 0.47952 0.58124 0.0
C73 C 0.99926 0.4986 0.57385 0.0
C74 C 0.97476 0.48054 0.59836 0.0
C75 C 0.95352 0.46109 0.60726 0.0
C76 C 0.95456 0.42992 0.60567 0.0
C77 C 0.93645 0.41187 0.61543 0.0
C78 C 0.91751 0.42474 0.62713 0.0
C79 C 0.9159 0.45589 0.62837 0.0
C80 C 0.93361 0.47387 0.61849 0.0
C81 C 0.03266 0.53767 0.61088 0.0
C82 C 0.01973 0.5559 0.62287 0.0
C83 C 0.0377 0.57244 0.63346 0.0
C84 C 0.06899 0.57112 0.63225 0.0
C85 C 0.08191 0.55312 0.62012 0.0
C86 C 0.06393 0.53639 0.60962 0.0
C87 C 0.01346 0.51894 0.60022 0.0
C88 C 0.99247 0.50013 0.60757 0.0
C89 C 0.01648 0.5186 0.58308 0.0
C90 C 0.03637 0.53979 0.57449 0.0
C91 C 0.03346 0.57056 0.57713 0.0
C92 C 0.05252 0.59055 0.56933 0.0
C93 C 0.07476 0.58022 0.55863 0.0
C94 C 0.07739 0.54941 0.55585 0.0
C95 C 0.05828 0.52938 0.56366 0.0
H96 H 0.49602 0.57694 0.87528 0.0
H97 H 0.46124 0.59828 0.89503 0.0
H98 H 0.38838 0.55162 0.87176 0.0
H99 H 0.42347 0.53002 0.85211 0.0
H100 H 0.50285 0.51568 0.87413 0.0
H101 H 0.47257 0.59458 0.8382 0.0
H102 H 0.43799 0.62454 0.82188 0.0
H103 H 0.41576 0.5468 0.79334 0.0
H104 H 0.44932 0.51668 0.80999 0.0
H105 H 0.50995 0.45861 0.81114 0.0
H106 H 0.54342 0.42703 0.7952 0.0
H107 H 0.61878 0.46057 0.82251 0.0
H108 H 0.58513 0.49224 0.83844 0.0
H109 H 0.50529 0.51613 0.81386 0.0
H110 H 0.52947 0.43637 0.84928 0.0
H111 H 0.55468 0.40181 0.8674 0.0
H112 H 0.5794 0.47547 0.89874 0.0
H113 H 0.55716 0.50996 0.8796 0.0
C114 C 0.46232 0.55194 0.86224 0.0
C115 C 0.47244 0.57188 0.87421 0.0
C116 C 0.45252 0.58416 0.88544 0.0
C117 C 0.4221 0.57647 0.88501 0.0
C118 C 0.41175 0.55772 0.87247 0.0
C119 C 0.4317 0.54557 0.86116 0.0
C120 C 0.48422 0.5348 0.85246 0.0
C121 C 0.50401 0.51625 0.86093 0.0
C122 C 0.4843 0.53458 0.83525 0.0
C123 C 0.46342 0.55319 0.82548 0.0
C124 C 0.4599 0.58382 0.82863 0.0
C125 C 0.44027 0.60099 0.81925 0.0
C126 C 0.42436 0.58799 0.80632 0.0
C127 C 0.42804 0.55746 0.80311 0.0
C128 C 0.44724 0.54024 0.81263 0.0
C129 C 0.54496 0.47776 0.82604 0.0
C130 C 0.53369 0.45927 0.81367 0.0
C131 C 0.55286 0.44123 0.80456 0.0
C132 C 0.58377 0.44128 0.80758 0.0
C133 C 0.59503 0.4597 0.82003 0.0
C134 C 0.57583 0.47787 0.82912 0.0
C135 C 0.5243 0.49702 0.83556 0.0
C136 C 0.50462 0.51587 0.82706 0.0
C137 C 0.52378 0.49702 0.85281 0.0
C138 C 0.54164 0.47597 0.86289 0.0
C139 C 0.54132 0.44521 0.85971 0.0
C140 C 0.55526 0.4253 0.87036 0.0
C141 C 0.56891 0.43554 0.88479 0.0
C142 C 0.56971 0.46646 0.88771 0.0
C143 C 0.55657 0.48637 0.87682 0.0
H144 H 0.49749 0.92216 0.06968 0.0
H145 H 0.46266 0.88914 0.05568 0.0
H146 H 0.39784 0.96068 0.05375 0.0
H147 H 0.43224 0.99264 0.06889 0.0
H148 H 0.51031 0.99639 0.0598 0.0
H149 H 0.47904 0.91885 0.0997 0.0
H150 H 0.44414 0.8903 0.11647 0.0
H151 H 0.40351 0.97226 0.13294 0.0
H152 H 0.43803 0.00068 0.11586 0.0
H153 H 0.50807 0.05615 0.12267 0.0
H154 H 0.5407 0.08354 0.14126 0.0
H155 H 0.61783 0.04272 0.11875 0.0
H156 H 0.58504 0.0157 0.10007 0.0
H157 H 0.50033 0.99821 0.11997 0.0
H158 H 0.52548 0.07605 0.08443 0.0
H159 H 0.55836 0.11186 0.07115 0.0
H160 H 0.60465 0.0397 0.04707 0.0
H161 H 0.5718 0.00374 0.0607 0.0
C162 C 0.46726 0.95964 0.0704 0.0
C163 C 0.47578 0.93065 0.06614 0.0
C164 C 0.45582 0.91188 0.05799 0.0
C165 C 0.42713 0.92201 0.05355 0.0
C166 C 0.41932 0.9517 0.05727 0.0
C167 C 0.43908 0.9702 0.06576 0.0
C168 C 0.48709 0.97835 0.08053 0.0
C169 C 0.50852 0.99649 0.07297 0.0
C170 C 0.48373 0.97948 0.09761 0.0
C171 C 0.46081 0.96187 0.10633 0.0
C172 C 0.46199 0.93062 0.10649 0.0
C173 C 0.44214 0.91434 0.11613 0.0
C174 C 0.42117 0.9291 0.12601 0.0
C175 C 0.41959 0.96035 0.12552 0.0
C176 C 0.43921 0.97657 0.11576 0.0
C177 C 0.54409 0.03396 0.10993 0.0
C178 C 0.53202 0.05322 0.1217 0.0
C179 C 0.55071 0.06876 0.13237 0.0
C180 C 0.58191 0.06522 0.13157 0.0
C181 C 0.59396 0.04628 0.11958 0.0
C182 C 0.57523 0.03078 0.10889 0.0
C183 C 0.52406 0.01597 0.09937 0.0
C184 C 0.50242 0.99804 0.10681 0.0
C185 C 0.52668 0.01576 0.08219 0.0
C186 C 0.54636 0.03722 0.07366 0.0
C187 C 0.54277 0.0679 0.07634 0.0
C188 C 0.56143 0.08836 0.06863 0.0
C189 C 0.58406 0.0786 0.05803 0.0
C190 C 0.58756 0.04785 0.05528 0.0
C191 C 0.56871 0.02733 0.06295 0.0
H192 H 0.00979 0.5651 0.88655 0.0
H193 H 0.04501 0.58633 0.86708 0.0
H194 H 0.11541 0.53165 0.88709 0.0
H195 H 0.07986 0.51012 0.90643 0.0
H196 H 0.99574 0.50744 0.88557 0.0
H197 H 0.03213 0.57528 0.92401 0.0
H198 H 0.067 0.60362 0.94089 0.0
H199 H 0.09338 0.52263 0.96525 0.0
H200 H 0.05906 0.49414 0.94805 0.0
H201 H 0.99415 0.43298 0.94225 0.0
H202 H 0.96052 0.39948 0.95691 0.0
H203 H 0.88467 0.44887 0.93875 0.0
H204 H 0.91836 0.4822 0.92416 0.0
H205 H 0.00276 0.49246 0.94521 0.0
H206 H 0.97659 0.42754 0.89632 0.0
H207 H 0.94696 0.40664 0.87393 0.0
H208 H 0.8979 0.48938 0.87052 0.0
H209 H 0.92835 0.51029 0.8924 0.0
C210 C 0.04219 0.53602 0.89792 0.0
C211 C 0.03296 0.55816 0.88697 0.0
C212 C 0.05316 0.57038 0.8759 0.0
C213 C 0.08295 0.56049 0.87547 0.0
C214 C 0.09252 0.53946 0.88703 0.0
C215 C 0.07231 0.52736 0.89818 0.0
C216 C 0.01967 0.51915 0.9074 0.0
C217 C 0.99706 0.50462 0.89868 0.0
C218 C 0.02157 0.51524 0.92446 0.0
C219 C 0.04317 0.53242 0.93456 0.0
C220 C 0.04579 0.56346 0.93276 0.0
C221 C 0.06564 0.57971 0.94246 0.0
C222 C 0.08287 0.56534 0.95438 0.0
C223 C 0.08014 0.53434 0.95626 0.0
C224 C 0.06055 0.51804 0.94642 0.0
C225 C 0.95879 0.45987 0.93192 0.0
C226 C 0.97026 0.43654 0.94142 0.0
C227 C 0.95102 0.41746 0.94982 0.0
C228 C 0.91989 0.42139 0.94893 0.0
C229 C 0.90849 0.44483 0.93943 0.0
C230 C 0.92774 0.46393 0.93107 0.0
C231 C 0.97936 0.48033 0.92325 0.0
C232 C 0.00157 0.49549 0.93213 0.0
C233 C 0.97691 0.48544 0.90635 0.0
C234 C 0.95461 0.47042 0.89593 0.0
C235 C 0.95888 0.44079 0.891 0.0
C236 C 0.94191 0.4289 0.87822 0.0
C237 C 0.92045 0.44655 0.87023 0.0
C238 C 0.91474 0.47544 0.87614 0.0
C239 C 0.93188 0.48735 0.88875 0.0
H240 H 0.49222 0.55357 0.20303 0.0
H241 H 0.46044 0.58704 0.21872 0.0
H242 H 0.38373 0.55768 0.19098 0.0
H243 H 0.41533 0.5226 0.17624 0.0
H244 H 0.4974 0.49668 0.1988 0.0
H245 H 0.47006 0.57878 0.1627 0.0
H246 H 0.43989 0.61123 0.14517 0.0
H247 H 0.406 0.53387 0.11987 0.0
H248 H 0.4357 0.50163 0.13748 0.0
H249 H 0.50259 0.44438 0.13395 0.0
H250 H 0.53714 0.42292 0.11422 0.0
H251 H 0.61155 0.45931 0.14127 0.0
H252 H 0.57666 0.48177 0.16064 0.0
H253 H 0.49489 0.50152 0.13852 0.0
H254 H 0.51862 0.41959 0.17254 0.0
H255 H 0.5523 0.38432 0.18573 0.0
H256 H 0.59163 0.45633 0.21337 0.0
H257 H 0.55812 0.49173 0.19981 0.0
C258 C 0.45637 0.53595 0.18817 0.0
C259 C 0.46847 0.55396 0.20051 0.0
C260 C 0.45025 0.57343 0.20935 0.0
C261 C 0.41948 0.5756 0.20597 0.0
C262 C 0.40722 0.55663 0.19404 0.0
C263 C 0.4254 0.5368 0.18539 0.0
C264 C 0.47637 0.51712 0.17795 0.0
C265 C 0.49696 0.49798 0.18561 0.0
C266 C 0.47538 0.51795 0.16071 0.0
C267 C 0.45505 0.53777 0.15143 0.0
C268 C 0.45565 0.56882 0.1536 0.0
C269 C 0.43848 0.58731 0.14357 0.0
C270 C 0.42086 0.57503 0.13108 0.0
C271 C 0.41971 0.54394 0.12925 0.0
C272 C 0.43659 0.52552 0.13933 0.0
C273 C 0.53698 0.46465 0.1488 0.0
C274 C 0.52637 0.44745 0.13574 0.0
C275 C 0.54621 0.43499 0.12452 0.0
C276 C 0.57717 0.43946 0.12611 0.0
C277 C 0.58783 0.45575 0.13957 0.0
C278 C 0.56792 0.4683 0.15078 0.0
C279 C 0.51561 0.48116 0.15931 0.0
C280 C 0.49501 0.50003 0.15171 0.0
C281 C 0.51632 0.47971 0.1765 0.0
C282 C 0.53604 0.45832 0.18509 0.0
C283 C 0.53453 0.42781 0.18141 0.0
C284 C 0.55364 0.40764 0.18907 0.0
C285 C 0.57464 0.41753 0.2006 0.0
C286 C 0.57589 0.44808 0.20441 0.0
C287 C 0.55663 0.46827 0.19679 0.0
H288 H 0.51183 0.93133 0.39728 0.0
H289 H 0.49205 0.89811 0.37633 0.0
H290 H 0.41051 0.94966 0.37499 0.0
H291 H 0.43023 0.9822 0.3965 0.0
H292 H 0.5071 0.00065 0.38682 0.0
H293 H 0.48266 0.92377 0.4266 0.0
H294 H 0.44745 0.89239 0.44133 0.0
H295 H 0.40537 0.97116 0.46126 0.0
H296 H 0.43934 0.00234 0.44558 0.0
H297 H 0.50254 0.06549 0.4489 0.0
H298 H 0.53427 0.09829 0.46534 0.0
H299 H 0.61226 0.06464 0.44041 0.0
H300 H 0.58062 0.03165 0.42421 0.0
H301 H 0.49857 0.00808 0.44682 0.0
H302 H 0.52494 0.08535 0.41043 0.0
H303 H 0.55232 0.11937 0.39296 0.0
H304 H 0.58386 0.04431 0.36453 0.0
H305 H 0.55973 0.01063 0.38324 0.0
C306 C 0.47238 0.959 0.39846 0.0
C307 C 0.48932 0.93485 0.39282 0.0
C308 C 0.47809 0.9161 0.38074 0.0
C309 C 0.44992 0.92156 0.37377 0.0
C310 C 0.4322 0.94472 0.38017 0.0
C311 C 0.4434 0.96336 0.39244 0.0
C312 C 0.48723 0.98225 0.40828 0.0
C313 C 0.50574 0.0022 0.39999 0.0
C314 C 0.48383 0.98486 0.4253 0.0
C315 C 0.46318 0.96546 0.43461 0.0
C316 C 0.46543 0.93429 0.43384 0.0
C317 C 0.44558 0.91634 0.44255 0.0
C318 C 0.42338 0.92918 0.45246 0.0
C319 C 0.42171 0.96044 0.45351 0.0
C320 C 0.44134 0.97834 0.44465 0.0
C321 C 0.53913 0.04633 0.43518 0.0
C322 C 0.52648 0.06517 0.44699 0.0
C323 C 0.5446 0.0839 0.45636 0.0
C324 C 0.57571 0.08419 0.45407 0.0
C325 C 0.58831 0.06533 0.44224 0.0
C326 C 0.57024 0.04644 0.43298 0.0
C327 C 0.51998 0.02597 0.42543 0.0
C328 C 0.50032 0.00673 0.43367 0.0
C329 C 0.52212 0.02421 0.40823 0.0
C330 C 0.54033 0.04524 0.39832 0.0
C331 C 0.53864 0.07617 0.40078 0.0
C332 C 0.5539 0.09575 0.39049 0.0
C333 C 0.5703 0.08494 0.37706 0.0
C334 C 0.57219 0.05387 0.37482 0.0
C335 C 0.55782 0.03436 0.38543 0.0
H336 H 0.99789 0.08247 0.68905 0.0
H337 H 0.96285 0.1161 0.70251 0.0
H338 H 0.89804 0.04468 0.70501 0.0
H339 H 0.93261 0.01211 0.6904 0.0
H340 H 0.00578 0.00562 0.70122 0.0
H341 H 0.9872 0.08501 0.6594 0.0
H342 H 0.95565 0.11532 0.64158 0.0
H343 H 0.91283 0.03557 0.62365 0.0
H344 H 0.94374 0.00543 0.64189 0.0
H345 H 0.00707 0.94409 0.63953 0.0
H346 H 0.03895 0.9138 0.62194 0.0
H347 H 0.11706 0.94819 0.64657 0.0
H348 H 0.08493 0.978 0.66432 0.0
H349 H 0.00608 0.00338 0.64083 0.0
H350 H 0.0098 0.92621 0.68085 0.0
H351 H 0.03236 0.88721 0.6977 0.0
H352 H 0.09523 0.95101 0.71698 0.0
H353 H 0.07196 0.9904 0.70035 0.0
C354 C 0.96756 0.04507 0.68851 0.0
C355 C 0.97602 0.07424 0.69245 0.0
C356 C 0.95599 0.09332 0.70034 0.0
C357 C 0.92733 0.08332 0.70488 0.0
C358 C 0.9195 0.05356 0.7014 0.0
C359 C 0.93933 0.03473 0.69318 0.0
C360 C 0.98801 0.02537 0.67936 0.0
C361 C 0.00639 0.00558 0.68802 0.0
C362 C 0.98758 0.02424 0.66217 0.0
C363 C 0.96734 0.04302 0.65227 0.0
C364 C 0.97038 0.07413 0.65204 0.0
C365 C 0.95253 0.0914 0.64175 0.0
C366 C 0.93183 0.07775 0.63125 0.0
C367 C 0.92875 0.04662 0.63154 0.0
C368 C 0.94629 0.02943 0.64198 0.0
C369 C 0.04361 0.96328 0.65324 0.0
C370 C 0.03105 0.94483 0.64125 0.0
C371 C 0.04933 0.92767 0.63114 0.0
C372 C 0.08061 0.9288 0.63271 0.0
C373 C 0.09307 0.94653 0.64512 0.0
C374 C 0.07473 0.96362 0.65529 0.0
C375 C 0.02435 0.984 0.66263 0.0
C376 C 0.00603 0.00383 0.65404 0.0
C377 C 0.02419 0.98457 0.67983 0.0
C378 C 0.03927 0.96109 0.68939 0.0
C379 C 0.02853 0.93178 0.68864 0.0
C380 C 0.04134 0.9096 0.69825 0.0
C381 C 0.06543 0.91628 0.70857 0.0
C382 C 0.07673 0.94545 0.70903 0.0
C383 C 0.06345 0.96785 0.69963 0.0
In384 In 0.30537 0.69108 0.00829 0.0
O385 O 0.29357 0.74039 0.01141 0.0
O386 O 0.33907 0.72911 0.00753 0.0
C387 C 0.24733 0.67667 0.00354 0.0
C388 C 0.32666 0.67254 0.03736 0.0
C389 C 0.32845 0.66084 0.9828 0.0
O390 O 0.26194 0.69196 0.99342 0.0
O391 O 0.26151 0.67012 0.01629 0.0
O392 O 0.31745 0.64823 0.99512 0.0
O393 O 0.32864 0.68896 0.98344 0.0
C394 C 0.32023 0.74935 0.01037 0.0
O395 O 0.3374 0.66369 0.024 0.0
O396 O 0.30518 0.69052 0.03605 0.0
In397 In 0.31793 0.8178 0.25227 0.0
O398 O 0.3027 0.76892 0.24913 0.0
O399 O 0.34906 0.7782 0.2508 0.0
C400 C 0.2651 0.84482 0.25848 0.0
C401 C 0.33029 0.83741 0.22201 0.0
C402 C 0.35301 0.83517 0.27736 0.0
O403 O 0.27089 0.81903 0.2638 0.0
O404 O 0.28551 0.85618 0.24997 0.0
O405 O 0.36114 0.83616 0.2627 0.0
O406 O 0.32694 0.82528 0.27955 0.0
C407 C 0.32907 0.75884 0.24879 0.0
O408 O 0.34007 0.84993 0.23471 0.0
O409 O 0.31377 0.81509 0.22454 0.0
In410 In 0.19468 0.81207 0.50949 0.0
O411 O 0.16441 0.84035 0.52565 0.0
O412 O 0.20333 0.82207 0.53644 0.0
C413 C 0.16954 0.82549 0.48055 0.0
C414 C 0.17755 0.75544 0.5154 0.0
C415 C 0.25044 0.83104 0.50255 0.0
O416 O 0.16508 0.8406 0.49329 0.0
O417 O 0.18627 0.80312 0.48245 0.0
O418 O 0.2448 0.8042 0.50591 0.0
O419 O 0.22819 0.84824 0.50312 0.0
C420 C 0.17997 0.83738 0.53834 0.0
O421 O 0.20467 0.76284 0.5143 0.0
O422 O 0.15928 0.77643 0.51322 0.0
In423 In 0.19019 0.68673 0.75401 0.0
O424 O 0.183 0.64166 0.76622 0.0
O425 O 0.17187 0.68069 0.77966 0.0
C426 C 0.17043 0.66521 0.72518 0.0
C427 C 0.24989 0.68221 0.75868 0.0
C428 C 0.16411 0.74115 0.75311 0.0
O429 O 0.15897 0.65777 0.7386 0.0
O430 O 0.19186 0.68331 0.72632 0.0
O431 O 0.1909 0.73722 0.74881 0.0
O432 O 0.15119 0.71806 0.75816 0.0
C433 C 0.17331 0.65261 0.77937 0.0
O434 O 0.2331 0.6956 0.76862 0.0
O435 O 0.23681 0.67249 0.74619 0.0
In436 In 0.80551 0.18818 0.50966 0.0
O437 O 0.80185 0.23702 0.51752 0.0
O438 O 0.83569 0.22559 0.50057 0.0
C439 C 0.74633 0.18189 0.50391 0.0
C440 C 0.82881 0.16957 0.53842 0.0
C441 C 0.82664 0.15327 0.48554 0.0
O442 O 0.76347 0.19536 0.49424 0.0
O443 O 0.75876 0.17266 0.5167 0.0
O444 O 0.83456 0.1801 0.48731 0.0
O445 O 0.8086 0.14385 0.49618 0.0
C446 C 0.82372 0.24565 0.50911 0.0
O447 O 0.83705 0.15897 0.52494 0.0
O448 O 0.80884 0.18919 0.53739 0.0
In449 In 0.80574 0.31318 0.75172 0.0
O450 O 0.83686 0.33874 0.73489 0.0
O451 O 0.80195 0.31373 0.72392 0.0
C452 C 0.83305 0.34623 0.77475 0.0
C453 C 0.82084 0.2548 0.7499 0.0
C454 C 0.74871 0.32892 0.75869 0.0
O455 O 0.82512 0.35641 0.76111 0.0
O456 O 0.82761 0.31885 0.77684 0.0
O457 O 0.76534 0.31594 0.76883 0.0
O458 O 0.76036 0.33277 0.7449 0.0
C459 C 0.82417 0.33061 0.72191 0.0
O460 O 0.79424 0.26378 0.74868 0.0
O461 O 0.83954 0.27505 0.75289 0.0
In462 In 0.68966 0.31451 0.00481 0.0
O463 O 0.70431 0.26739 0.01249 0.0
O464 O 0.65811 0.27581 0.00886 0.0
C465 C 0.7476 0.3201 0.99617 0.0
C466 C 0.67335 0.34769 0.03108 0.0
C467 C 0.65845 0.33299 0.97852 0.0
O468 O 0.73946 0.31812 0.01085 0.0
O469 O 0.72673 0.31774 0.98594 0.0
O470 O 0.66964 0.35092 0.98866 0.0
O471 O 0.66274 0.30587 0.98169 0.0
C472 C 0.67797 0.25729 0.01281 0.0
O473 O 0.69387 0.35548 0.02152 0.0
O474 O 0.66097 0.32349 0.02733 0.0
In475 In 0.69433 0.18729 0.25375 0.0
O476 O 0.67418 0.15544 0.27238 0.0
O477 O 0.67158 0.20173 0.27746 0.0
C478 C 0.68027 0.15933 0.22554 0.0
C479 C 0.75044 0.17302 0.26317 0.0
C480 C 0.67803 0.24267 0.24479 0.0
O481 O 0.66409 0.15799 0.23808 0.0
O482 O 0.70388 0.17431 0.2273 0.0
O483 O 0.70509 0.23568 0.24711 0.0
O484 O 0.65957 0.22187 0.24714 0.0
C485 C 0.66586 0.1756 0.28205 0.0
O486 O 0.74199 0.19974 0.26173 0.0
O487 O 0.73098 0.15393 0.25945 0.0
H488 H 0.1196 0.88809 0.31012 0.0
H489 H 0.12304 0.97377 0.28598 0.0
H490 H 0.16413 0.95565 0.26845 0.0
H491 H 0.1978 0.87765 0.31178 0.0
H492 H 0.19685 0.83797 0.30838 0.0
H493 H 0.16552 0.85633 0.31778 0.0
H494 H 0.13038 0.83495 0.29558 0.0
H495 H 0.16165 0.8165 0.2861 0.0
H496 H 0.13865 0.84156 0.27442 0.0
H497 H 0.20608 0.92983 0.25478 0.0
H498 H 0.24868 0.89869 0.24649 0.0
H499 H 0.2201 0.82959 0.27995 0.0
C500 C 0.12875 0.9027 0.3009 0.0
C501 C 0.11815 0.93216 0.29916 0.0
C502 C 0.13091 0.95108 0.28733 0.0
C503 C 0.15411 0.94095 0.27732 0.0
C504 C 0.16439 0.91191 0.27941 0.0
C505 C 0.15229 0.89303 0.29094 0.0
C506 C 0.16916 0.86369 0.29147 0.0
C507 C 0.18316 0.85863 0.30835 0.0
C508 C 0.14874 0.83763 0.2866 0.0
C509 C 0.19288 0.86927 0.27865 0.0
C510 C 0.18936 0.8971 0.27173 0.0
C511 C 0.20897 0.90791 0.26002 0.0
C512 C 0.23314 0.89003 0.2554 0.0
C513 C 0.23769 0.86168 0.26254 0.0
C514 C 0.21702 0.85103 0.27417 0.0
H515 H 0.0606 0.63425 0.54517 0.0
H516 H 0.13529 0.57483 0.55413 0.0
H517 H 0.16963 0.61181 0.54207 0.0
H518 H 0.08775 0.66504 0.50681 0.0
H519 H 0.07397 0.70187 0.51135 0.0
H520 H 0.05513 0.66966 0.51943 0.0
H521 H 0.06096 0.69076 0.54866 0.0
H522 H 0.07978 0.72299 0.54069 0.0
H523 H 0.09762 0.70051 0.55603 0.0
H524 H 0.19621 0.657 0.53082 0.0
H525 H 0.2127 0.7066 0.52128 0.0
H526 H 0.12042 0.73611 0.52003 0.0
C527 C 0.08416 0.62893 0.54456 0.0
C528 C 0.09525 0.60163 0.55058 0.0
C529 C 0.12622 0.59544 0.5494 0.0
C530 C 0.14591 0.61634 0.54262 0.0
C531 C 0.13425 0.64322 0.537 0.0
C532 C 0.10406 0.64948 0.53785 0.0
C533 C 0.09728 0.68045 0.53164 0.0
C534 C 0.07736 0.67916 0.5164 0.0
C535 C 0.08308 0.69981 0.54506 0.0
C536 C 0.12844 0.69094 0.5275 0.0
C537 C 0.14948 0.66911 0.53054 0.0
C538 C 0.17991 0.67416 0.52824 0.0
C539 C 0.18906 0.70237 0.52283 0.0
C540 C 0.16783 0.72511 0.51986 0.0
C541 C 0.13716 0.71909 0.52207 0.0
H542 H 0.37999 0.62587 0.81645 0.0
H543 H 0.4221 0.5898 0.77316 0.0
H544 H 0.38541 0.61621 0.75597 0.0
H545 H 0.30698 0.61685 0.80308 0.0
H546 H 0.29255 0.65051 0.81215 0.0
H547 H 0.32456 0.63243 0.82092 0.0
H548 H 0.35491 0.68134 0.81834 0.0
H549 H 0.32291 0.69959 0.80951 0.0
H550 H 0.35802 0.69924 0.79878 0.0
H551 H 0.3414 0.6415 0.74372 0.0
H552 H 0.29192 0.66263 0.73724 0.0
H553 H 0.27797 0.68281 0.78834 0.0
C554 C 0.3819 0.62424 0.80333 0.0
C555 C 0.40394 0.60599 0.79609 0.0
C556 C 0.40532 0.60365 0.77892 0.0
C557 C 0.38474 0.61873 0.76907 0.0
C558 C 0.36292 0.63612 0.77657 0.0
C559 C 0.36134 0.639 0.79332 0.0
C560 C 0.33398 0.65669 0.79834 0.0
C561 C 0.3133 0.638 0.80926 0.0
C562 C 0.34301 0.68596 0.80674 0.0
C563 C 0.31996 0.6625 0.78184 0.0
C564 C 0.33728 0.6508 0.76945 0.0
C565 C 0.3279 0.65123 0.75327 0.0
C566 C 0.29976 0.66326 0.74971 0.0
C567 C 0.28132 0.67465 0.76225 0.0
C568 C 0.29192 0.67491 0.77846 0.0
H569 H 0.43812 0.87514 0.0324 0.0
H570 H 0.36596 0.92106 0.05744 0.0
H571 H 0.32998 0.88552 0.04586 0.0
H572 H 0.3964 0.85184 0.99612 0.0
H573 H 0.4143 0.81589 0.99539 0.0
H574 H 0.43402 0.84755 0.00359 0.0
H575 H 0.44328 0.81885 0.03048 0.0
H576 H 0.42378 0.78712 0.02234 0.0
H577 H 0.41194 0.80341 0.04135 0.0
H578 H 0.30205 0.84268 0.03337 0.0
H579 H 0.28526 0.79394 0.02274 0.0
H580 H 0.37592 0.77399 0.00758 0.0
C581 C 0.41479 0.87794 0.03546 0.0
C582 C 0.4051 0.90138 0.04576 0.0
C583 C 0.37415 0.904 0.04925 0.0
C584 C 0.35342 0.88375 0.04279 0.0
C585 C 0.36387 0.86076 0.03291 0.0
C586 C 0.39385 0.85764 0.02935 0.0
C587 C 0.39967 0.82938 0.01974 0.0
C588 C 0.41181 0.83661 0.0027 0.0
C589 C 0.42091 0.80846 0.02903 0.0
C590 C 0.36837 0.81671 0.01881 0.0
C591 C 0.34793 0.83545 0.02619 0.0
C592 C 0.31781 0.82795 0.02743 0.0
C593 C 0.30846 0.80025 0.02132 0.0
C594 C 0.32926 0.78024 0.01429 0.0
C595 C 0.35946 0.78893 0.01276 0.0
H596 H 0.12317 0.60821 0.94522 0.0
H597 H 0.08912 0.56123 0.98741 0.0
H598 H 0.12427 0.58886 0.00504 0.0
H599 H 0.19873 0.60684 0.95705 0.0
H600 H 0.2075 0.64327 0.9492 0.0
H601 H 0.17784 0.62183 0.94017 0.0
H602 H 0.141 0.66545 0.9452 0.0
H603 H 0.17058 0.68699 0.95433 0.0
H604 H 0.13661 0.68019 0.96549 0.0
H605 H 0.16502 0.61902 0.01778 0.0
H606 H 0.21045 0.64758 0.02457 0.0
H607 H 0.21819 0.67523 0.97416 0.0
C608 C 0.12278 0.60416 0.95821 0.0
C609 C 0.10337 0.58267 0.96498 0.0
C610 C 0.10395 0.57747 0.98198 0.0
C611 C 0.12364 0.59322 0.99209 0.0
C612 C 0.14262 0.61412 0.98503 0.0
C613 C 0.14244 0.61957 0.96847 0.0
C614 C 0.16658 0.64164 0.96382 0.0
C615 C 0.18898 0.62754 0.95186 0.0
C616 C 0.15286 0.67027 0.9568 0.0
C617 C 0.18071 0.64732 0.9803 0.0
C618 C 0.1663 0.63149 0.99239 0.0
C619 C 0.17628 0.63178 0.00846 0.0
C620 C 0.20208 0.6481 0.0122 0.0
C621 C 0.21767 0.66382 0.99993 0.0
C622 C 0.20641 0.6639 0.98385 0.0
H623 H 0.43576 0.63225 0.21504 0.0
H624 H 0.36032 0.57147 0.21545 0.0
H625 H 0.32887 0.61098 0.22753 0.0
H626 H 0.41884 0.66789 0.25397 0.0
H627 H 0.43149 0.70381 0.24705 0.0
H628 H 0.44793 0.67035 0.23887 0.0
H629 H 0.43478 0.68773 0.20965 0.0
H630 H 0.41823 0.72116 0.21773 0.0
H631 H 0.39662 0.69693 0.20476 0.0
H632 H 0.30483 0.65908 0.23806 0.0
H633 H 0.29144 0.71033 0.24684 0.0
H634 H 0.38387 0.73717 0.24103 0.0
C635 C 0.41285 0.62681 0.21799 0.0
C636 C 0.40067 0.59856 0.21425 0.0
C637 C 0.37021 0.59299 0.21795 0.0
C638 C 0.35218 0.61525 0.22495 0.0
C639 C 0.36496 0.64288 0.22835 0.0
C640 C 0.39471 0.64855 0.22512 0.0
C641 C 0.40312 0.68014 0.22959 0.0
C642 C 0.42674 0.68056 0.24318 0.0
C643 C 0.4138 0.6975 0.21453 0.0
C644 C 0.37336 0.69159 0.23562 0.0
C645 C 0.35151 0.66991 0.23482 0.0
C646 C 0.32188 0.67608 0.23895 0.0
C647 C 0.31446 0.7052 0.24391 0.0
C648 C 0.33665 0.7276 0.24479 0.0
C649 C 0.36645 0.72043 0.24075 0.0
H650 H 0.36372 0.93972 0.45787 0.0
H651 H 0.43403 0.87545 0.46758 0.0
H652 H 0.39775 0.84357 0.48198 0.0
H653 H 0.32693 0.9324 0.49698 0.0
H654 H 0.29012 0.93686 0.48844 0.0
H655 H 0.32171 0.95445 0.47888 0.0
H656 H 0.30874 0.92822 0.45163 0.0
H657 H 0.27715 0.91054 0.4611 0.0
H658 H 0.30519 0.88823 0.45111 0.0
H659 H 0.35299 0.81782 0.49453 0.0
H660 H 0.30369 0.80113 0.50472 0.0
H661 H 0.26409 0.8839 0.4881 0.0
C662 C 0.37173 0.9192 0.46323 0.0
C663 C 0.40183 0.91016 0.46152 0.0
C664 C 0.41103 0.88272 0.46846 0.0
C665 C 0.39063 0.86454 0.47679 0.0
C666 C 0.36117 0.8742 0.47821 0.0
C667 C 0.35181 0.90098 0.4717 0.0
C668 C 0.31893 0.90628 0.4748 0.0
C669 C 0.31416 0.93415 0.48541 0.0
C670 C 0.30149 0.90843 0.4587 0.0
C671 C 0.31116 0.87816 0.48398 0.0
C672 C 0.33575 0.85986 0.4858 0.0
C673 C 0.33364 0.83211 0.49332 0.0
C674 C 0.30561 0.82281 0.49905 0.0
C675 C 0.28022 0.84135 0.49733 0.0
C676 C 0.28321 0.86943 0.4898 0.0
H677 H 0.12221 0.89337 0.70878 0.0
H678 H 0.03555 0.88585 0.73187 0.0
H679 H 0.05396 0.84366 0.74837 0.0
H680 H 0.13389 0.81681 0.7045 0.0
H681 H 0.17354 0.81765 0.70829 0.0
H682 H 0.15515 0.84991 0.70005 0.0
H683 H 0.17547 0.88203 0.72384 0.0
H684 H 0.19397 0.84979 0.73217 0.0
H685 H 0.16825 0.87086 0.74454 0.0
H686 H 0.07962 0.79996 0.76027 0.0
H687 H 0.11033 0.75573 0.76618 0.0
H688 H 0.18068 0.79015 0.73514 0.0
C689 C 0.10749 0.88321 0.71763 0.0
C690 C 0.07763 0.89288 0.71929 0.0
C691 C 0.05855 0.87871 0.73059 0.0
C692 C 0.06885 0.85489 0.74003 0.0
C693 C 0.09826 0.84547 0.73796 0.0
C694 C 0.11735 0.85908 0.72704 0.0
C695 C 0.14693 0.84265 0.72607 0.0
C696 C 0.1527 0.83107 0.7087 0.0
C697 C 0.17268 0.86252 0.73201 0.0
C698 C 0.14116 0.81728 0.73782 0.0
C699 C 0.11308 0.81967 0.74471 0.0
C700 C 0.1018 0.79803 0.75514 0.0
C701 C 0.1194 0.77296 0.7584 0.0
C702 C 0.14794 0.76963 0.7512 0.0
C703 C 0.15917 0.79239 0.74104 0.0
H704 H 0.63176 0.40773 0.81775 0.0
H705 H 0.58224 0.43336 0.77455 0.0
H706 H 0.61671 0.40375 0.75756 0.0
H707 H 0.7038 0.4123 0.80007 0.0
H708 H 0.71868 0.38065 0.81084 0.0
H709 H 0.68891 0.40222 0.81969 0.0
H710 H 0.65682 0.35444 0.82236 0.0
H711 H 0.68648 0.33273 0.81342 0.0
H712 H 0.64965 0.33195 0.80457 0.0
H713 H 0.65863 0.37466 0.74505 0.0
H714 H 0.70509 0.34786 0.73794 0.0
H715 H 0.72687 0.3401 0.78923 0.0
C716 C 0.62813 0.40705 0.80472 0.0
C717 C 0.60419 0.42277 0.79749 0.0
C718 C 0.60012 0.42115 0.78039 0.0
C719 C 0.61964 0.40446 0.77063 0.0
C720 C 0.64304 0.38932 0.77814 0.0
C721 C 0.64732 0.39035 0.79479 0.0
C722 C 0.67484 0.37288 0.79973 0.0
C723 C 0.69792 0.39323 0.80807 0.0
C724 C 0.66643 0.34643 0.81067 0.0
C725 C 0.68569 0.36238 0.78322 0.0
C726 C 0.66695 0.37202 0.77093 0.0
C727 C 0.67326 0.36663 0.75457 0.0
C728 C 0.69967 0.35141 0.75065 0.0
C729 C 0.71933 0.34161 0.76304 0.0
C730 C 0.71192 0.34678 0.77952 0.0
H731 H 0.56768 0.13098 0.04362 0.0
H732 H 0.64503 0.07626 0.05442 0.0
H733 H 0.67796 0.11485 0.04255 0.0
H734 H 0.59494 0.16127 0.00529 0.0
H735 H 0.57871 0.19741 0.00901 0.0
H736 H 0.56147 0.16456 0.01736 0.0
H737 H 0.56453 0.18758 0.04629 0.0
H738 H 0.58179 0.22044 0.03804 0.0
H739 H 0.60015 0.19992 0.05401 0.0
H740 H 0.70255 0.16165 0.03123 0.0
H741 H 0.71625 0.21161 0.02078 0.0
H742 H 0.62231 0.23451 0.01739 0.0
C743 C 0.59154 0.12703 0.04344 0.0
C744 C 0.60382 0.10065 0.04997 0.0
C745 C 0.63514 0.09619 0.04933 0.0
C746 C 0.654 0.11803 0.04268 0.0
C747 C 0.64114 0.14402 0.03658 0.0
C748 C 0.61058 0.14845 0.03681 0.0
C749 C 0.60225 0.17857 0.02997 0.0
C750 C 0.58322 0.17524 0.01449 0.0
C751 C 0.58625 0.19775 0.04285 0.0
C752 C 0.63292 0.19071 0.02611 0.0
C753 C 0.65513 0.17052 0.02994 0.0
C754 C 0.6853 0.17749 0.02802 0.0
C755 C 0.69289 0.20588 0.02211 0.0
C756 C 0.67036 0.22682 0.01819 0.0
C757 C 0.64006 0.21889 0.02011 0.0
H758 H 0.86718 0.0625 0.30398 0.0
H759 H 0.92971 0.13627 0.30688 0.0
H760 H 0.89279 0.16892 0.29347 0.0
H761 H 0.83817 0.08081 0.26399 0.0
H762 H 0.80074 0.06925 0.26899 0.0
H763 H 0.8322 0.05184 0.27881 0.0
H764 H 0.81017 0.06545 0.30705 0.0
H765 H 0.77869 0.08293 0.29733 0.0
H766 H 0.8012 0.10375 0.31155 0.0
H767 H 0.84784 0.19405 0.28049 0.0
H768 H 0.79925 0.20883 0.26846 0.0
H769 H 0.76801 0.11774 0.27289 0.0
C770 C 0.87342 0.08538 0.30159 0.0
C771 C 0.90145 0.09673 0.30656 0.0
C772 C 0.90826 0.12706 0.30345 0.0
C773 C 0.8875 0.14577 0.29572 0.0
C774 C 0.8601 0.1338 0.29104 0.0
C775 C 0.85314 0.10424 0.29378 0.0
C776 C 0.82213 0.09681 0.28768 0.0
C777 C 0.8234 0.07329 0.27406 0.0
C778 C 0.80186 0.08665 0.30174 0.0
C779 C 0.81261 0.12684 0.28117 0.0
C780 C 0.83472 0.14797 0.28324 0.0
C781 C 0.83047 0.17761 0.27867 0.0
C782 C 0.80285 0.18581 0.27187 0.0
C783 C 0.78002 0.16439 0.26962 0.0
C784 C 0.78518 0.13455 0.27426 0.0
H785 H 0.87989 0.38566 0.55919 0.0
H786 H 0.939 0.40506 0.51872 0.0
H787 H 0.91441 0.36589 0.50242 0.0
H788 H 0.88029 0.30907 0.55495 0.0
H789 H 0.8416 0.30347 0.56016 0.0
H790 H 0.86129 0.33538 0.56794 0.0
H791 H 0.82126 0.37034 0.55553 0.0
H792 H 0.80136 0.33845 0.54772 0.0
H793 H 0.81271 0.36781 0.53412 0.0
H794 H 0.88801 0.32077 0.49186 0.0
H795 H 0.86082 0.27346 0.48764 0.0
H796 H 0.81714 0.28473 0.53436 0.0
C797 C 0.88709 0.38226 0.54674 0.0
C798 C 0.91139 0.39842 0.54023 0.0
C799 C 0.92064 0.39274 0.52402 0.0
C800 C 0.90665 0.37071 0.51461 0.0
C801 C 0.88321 0.35474 0.52152 0.0
C802 C 0.87329 0.36041 0.53716 0.0
C803 C 0.84914 0.33861 0.54211 0.0
C804 C 0.85867 0.32057 0.55717 0.0
C805 C 0.81935 0.35477 0.54504 0.0
C806 C 0.84773 0.31921 0.52702 0.0
C807 C 0.8674 0.32904 0.51523 0.0
C808 C 0.87206 0.31321 0.50084 0.0
C809 C 0.85658 0.28637 0.49855 0.0
C810 C 0.83661 0.27577 0.51056 0.0
C811 C 0.8317 0.29275 0.52479 0.0
H812 H 0.62297 0.11861 0.44429 0.0
H813 H 0.57296 0.09201 0.48708 0.0
H814 H 0.60817 0.12 0.50451 0.0
H815 H 0.69361 0.11005 0.46099 0.0
H816 H 0.71008 0.14173 0.45098 0.0
H817 H 0.67887 0.12289 0.44182 0.0
H818 H 0.64953 0.17265 0.44082 0.0
H819 H 0.68072 0.19168 0.45003 0.0
H820 H 0.64426 0.19384 0.45926 0.0
H821 H 0.65245 0.14476 0.51741 0.0
H822 H 0.70173 0.16573 0.52473 0.0
H823 H 0.72195 0.17792 0.47356 0.0
C824 C 0.61921 0.11904 0.45732 0.0
C825 C 0.5952 0.10322 0.46435 0.0
C826 C 0.59097 0.10432 0.48143 0.0
C827 C 0.61088 0.1201 0.49142 0.0
C828 C 0.63464 0.13502 0.48411 0.0
C829 C 0.63871 0.13488 0.46743 0.0
C830 C 0.66707 0.15107 0.46271 0.0
C831 C 0.68867 0.13018 0.4536 0.0
C832 C 0.65996 0.17897 0.45261 0.0
C833 C 0.67894 0.15934 0.47938 0.0
C834 C 0.65979 0.15009 0.49157 0.0
C835 C 0.66729 0.15272 0.50798 0.0
C836 C 0.69531 0.16461 0.51203 0.0
C837 C 0.71533 0.17386 0.49971 0.0
C838 C 0.7067 0.1718 0.48322 0.0
H839 H 0.93878 0.1301 0.726 0.0
H840 H 0.86611 0.0844 0.70129 0.0
H841 H 0.83031 0.11963 0.71336 0.0
H842 H 0.89811 0.15222 0.76276 0.0
H843 H 0.9158 0.18826 0.76365 0.0
H844 H 0.93546 0.15696 0.75499 0.0
H845 H 0.94367 0.18647 0.72827 0.0
H846 H 0.92427 0.21786 0.73688 0.0
H847 H 0.91189 0.20209 0.71784 0.0
H848 H 0.80254 0.16194 0.72646 0.0
H849 H 0.78578 0.21027 0.73762 0.0
H850 H 0.87677 0.23035 0.75215 0.0
C851 C 0.91538 0.12731 0.72309 0.0
C852 C 0.90548 0.104 0.71277 0.0
C853 C 0.87445 0.10137 0.70949 0.0
C854 C 0.85383 0.12143 0.71624 0.0
C855 C 0.86446 0.14423 0.72619 0.0
C856 C 0.89454 0.14741 0.72951 0.0
C857 C 0.90049 0.17541 0.73932 0.0
C858 C 0.91322 0.16774 0.75618 0.0
C859 C 0.9213 0.19671 0.73002 0.0
C860 C 0.86914 0.18788 0.74064 0.0
C861 C 0.8486 0.16924 0.73327 0.0
C862 C 0.81839 0.17659 0.73238 0.0
C863 C 0.80906 0.20406 0.73879 0.0
C864 C 0.82995 0.22401 0.7458 0.0
C865 C 0.86024 0.21544 0.74701 0.0
H866 H 0.86651 0.39773 0.9387 0.0
H867 H 0.9265 0.40087 0.98018 0.0
H868 H 0.89101 0.37043 0.99604 0.0
H869 H 0.80016 0.4065 0.96088 0.0
H870 H 0.77836 0.38179 0.94828 0.0
H871 H 0.80985 0.40114 0.93977 0.0
H872 H 0.83268 0.35077 0.93057 0.0
H873 H 0.80125 0.33124 0.93913 0.0
H874 H 0.83867 0.32175 0.94536 0.0
H875 H 0.84673 0.34383 0.00821 0.0
H876 H 0.79728 0.3233 0.0156 0.0
H877 H 0.76671 0.33717 0.96606 0.0
C878 C 0.87229 0.39187 0.95109 0.0
C879 C 0.89936 0.40163 0.95817 0.0
C880 C 0.90613 0.39329 0.9744 0.0
C881 C 0.88606 0.37607 0.98353 0.0
C882 C 0.85942 0.36714 0.97622 0.0
C883 C 0.85259 0.37465 0.96034 0.0
C884 C 0.82182 0.36368 0.9556 0.0
C885 C 0.80135 0.38983 0.95086 0.0
C886 C 0.82373 0.34047 0.94185 0.0
C887 C 0.81205 0.34952 0.97144 0.0
C888 C 0.83412 0.35151 0.98316 0.0
C889 C 0.82946 0.34172 0.99906 0.0
C890 C 0.80133 0.33009 0.00315 0.0
C891 C 0.7783 0.32836 0.99137 0.0
C892 C 0.78405 0.33769 0.97526 0.0
H893 H 0.56108 0.36224 0.21255 0.0
H894 H 0.63476 0.42388 0.20624 0.0
H895 H 0.66935 0.38671 0.21803 0.0
H896 H 0.58647 0.33021 0.25076 0.0
H897 H 0.57376 0.29333 0.2455 0.0
H898 H 0.55481 0.32549 0.23743 0.0
H899 H 0.56304 0.30568 0.2081 0.0
H900 H 0.58203 0.27351 0.21607 0.0
H901 H 0.60037 0.29698 0.20137 0.0
H902 H 0.69632 0.34123 0.22914 0.0
H903 H 0.71296 0.29188 0.23913 0.0
H904 H 0.62125 0.26074 0.23798 0.0
C905 C 0.58449 0.36797 0.21366 0.0
C906 C 0.59524 0.39595 0.20846 0.0
C907 C 0.62598 0.40269 0.21031 0.0
C908 C 0.6458 0.38168 0.21692 0.0
C909 C 0.63448 0.35413 0.22173 0.0
C910 C 0.60449 0.34735 0.22026 0.0
C911 C 0.59797 0.31601 0.22596 0.0
C912 C 0.57702 0.31629 0.2408 0.0
C913 C 0.5851 0.29693 0.21204 0.0
C914 C 0.62906 0.30596 0.23061 0.0
C915 C 0.64985 0.32824 0.22816 0.0
C916 C 0.68018 0.32371 0.23121 0.0
C917 C 0.68943 0.29564 0.23686 0.0
C918 C 0.6684 0.27255 0.23937 0.0
C919 C 0.63786 0.27799 0.23627 0.0
H920 H 0.08445 0.93203 0.4188 0.0
H921 H 0.11354 0.87416 0.37949 0.0
H922 H 0.13774 0.84089 0.39956 0.0
H923 H 0.15093 0.92615 0.44283 0.0
H924 H 0.13111 0.92685 0.46192 0.0
H925 H 0.1157 0.94539 0.44442 0.0
H926 H 0.0669 0.91483 0.44747 0.0
H927 H 0.08224 0.89604 0.46493 0.0
H928 H 0.06876 0.87472 0.44783 0.0
H929 H 0.15954 0.81448 0.42419 0.0
H930 H 0.1777 0.79771 0.45113 0.0
H931 H 0.13437 0.8736 0.47386 0.0
C932 C 0.09618 0.91256 0.41435 0.0
C933 C 0.09724 0.90579 0.39755 0.0
C934 C 0.11227 0.87969 0.39231 0.0
C935 C 0.12614 0.86072 0.40361 0.0
C936 C 0.12466 0.86814 0.42008 0.0
C937 C 0.11008 0.89348 0.42541 0.0
C938 C 0.11185 0.89672 0.44371 0.0
C939 C 0.12839 0.92548 0.4485 0.0
C940 C 0.08058 0.89549 0.45143 0.0
C941 C 0.12994 0.86936 0.4479 0.0
C942 C 0.13705 0.85305 0.43414 0.0
C943 C 0.15403 0.82705 0.43503 0.0
C944 C 0.1642 0.81768 0.45037 0.0
C945 C 0.15737 0.83432 0.46456 0.0
C946 C 0.13984 0.86034 0.46324 0.0
H947 H 0.06227 0.57577 0.66532 0.0
H948 H 0.11891 0.60411 0.6254 0.0
H949 H 0.15107 0.63143 0.64483 0.0
H950 H 0.06619 0.64406 0.6885 0.0
H951 H 0.06687 0.62532 0.70789 0.0
H952 H 0.04825 0.60836 0.69078 0.0
H953 H 0.08072 0.56097 0.69423 0.0
H954 H 0.09949 0.57781 0.71132 0.0
H955 H 0.12086 0.56426 0.69424 0.0
H956 H 0.17679 0.65588 0.66865 0.0
H957 H 0.19481 0.67483 0.69516 0.0
H958 H 0.12156 0.62994 0.71948 0.0
C959 C 0.08127 0.58798 0.66064 0.0
C960 C 0.08807 0.58791 0.64384 0.0
C961 C 0.11344 0.6037 0.63824 0.0
C962 C 0.13173 0.61937 0.64917 0.0
C963 C 0.12441 0.61891 0.66566 0.0
C964 C 0.09982 0.60357 0.67138 0.0
C965 C 0.09711 0.6062 0.6897 0.0
C966 C 0.06787 0.62192 0.69449 0.0
C967 C 0.09971 0.57548 0.69785 0.0
C968 C 0.12402 0.62544 0.69341 0.0
C969 C 0.13942 0.63263 0.67937 0.0
C970 C 0.16494 0.65036 0.67973 0.0
C971 C 0.17499 0.66102 0.69483 0.0
C972 C 0.15962 0.65379 0.70936 0.0
C973 C 0.13383 0.63575 0.70858 0.0
H974 H 0.41752 0.63131 0.89996 0.0
H975 H 0.38255 0.54118 0.90125 0.0
H976 H 0.35352 0.55366 0.92583 0.0
H977 H 0.42705 0.6399 0.94225 0.0
H978 H 0.41574 0.67843 0.94296 0.0
H979 H 0.43201 0.66337 0.92467 0.0
H980 H 0.38568 0.67997 0.90809 0.0
H981 H 0.36936 0.69536 0.92631 0.0
H982 H 0.349 0.66828 0.91448 0.0
H983 H 0.33231 0.57414 0.95159 0.0
H984 H 0.31642 0.60286 0.97572 0.0
H985 H 0.36372 0.68035 0.95757 0.0
C986 C 0.40345 0.61434 0.90531 0.0
C987 C 0.40214 0.58531 0.89862 0.0
C988 C 0.38349 0.5637 0.90597 0.0
C989 C 0.36708 0.57051 0.92002 0.0
C990 C 0.36935 0.59911 0.92649 0.0
C991 C 0.38671 0.62084 0.91928 0.0
C992 C 0.38569 0.64964 0.92895 0.0
C993 C 0.41698 0.65833 0.93507 0.0
C994 C 0.37158 0.6748 0.91886 0.0
C995 C 0.36555 0.64047 0.94289 0.0
C996 C 0.35648 0.6112 0.94123 0.0
C997 C 0.33893 0.5972 0.95293 0.0
C998 C 0.33017 0.61364 0.96663 0.0
C999 C 0.33876 0.64382 0.96846 0.0
C1000 C 0.35663 0.65738 0.9564 0.0
H1001 H 0.41283 0.94149 0.15816 0.0
H1002 H 0.3888 0.8781 0.12047 0.0
H1003 H 0.36021 0.84878 0.14071 0.0
H1004 H 0.42482 0.88864 0.18908 0.0
H1005 H 0.41017 0.91169 0.20519 0.0
H1006 H 0.42656 0.92865 0.1875 0.0
H1007 H 0.37785 0.95854 0.18252 0.0
H1008 H 0.36131 0.94171 0.20025 0.0
H1009 H 0.34281 0.93899 0.18081 0.0
H1010 H 0.3356 0.82571 0.16551 0.0
H1011 H 0.31894 0.80972 0.19288 0.0
H1012 H 0.36052 0.88804 0.21404 0.0
C1013 C 0.40105 0.92176 0.15409 0.0
C1014 C 0.40268 0.91218 0.13774 0.0
C1015 C 0.38773 0.88578 0.13297 0.0
C1016 C 0.37138 0.86911 0.14435 0.0
C1017 C 0.37039 0.87912 0.16043 0.0
C1018 C 0.38493 0.9048 0.16528 0.0
C1019 C 0.38194 0.90993 0.18341 0.0
C1020 C 0.4127 0.9097 0.19178 0.0
C1021 C 0.36496 0.93902 0.18695 0.0
C1022 C 0.36366 0.88297 0.18807 0.0
C1023 C 0.35693 0.86558 0.17466 0.0
C1024 C 0.34065 0.83924 0.17608 0.0
C1025 C 0.33126 0.83035 0.19165 0.0
C1026 C 0.33846 0.84765 0.20554 0.0
C1027 C 0.35465 0.87437 0.20364 0.0
H1028 H 0.09028 0.61674 0.86287 0.0
H1029 H 0.11969 0.52518 0.85719 0.0
H1030 H 0.1483 0.53932 0.83273 0.0
H1031 H 0.07864 0.63122 0.82148 0.0
H1032 H 0.09193 0.66911 0.82208 0.0
H1033 H 0.07614 0.65254 0.84006 0.0
H1034 H 0.12442 0.66453 0.8562 0.0
H1035 H 0.14029 0.68139 0.83829 0.0
H1036 H 0.15996 0.65182 0.84855 0.0
H1037 H 0.16933 0.56225 0.80735 0.0
H1038 H 0.18436 0.59333 0.78392 0.0
H1039 H 0.14206 0.67008 0.80637 0.0
C1040 C 0.10308 0.59977 0.8566 0.0
C1041 C 0.1029 0.56989 0.862 0.0
C1042 C 0.11992 0.5483 0.85346 0.0
C1043 C 0.13608 0.55607 0.83948 0.0
C1044 C 0.13522 0.58557 0.83428 0.0
C1045 C 0.11948 0.60717 0.84269 0.0
C1046 C 0.12135 0.63704 0.8342 0.0
C1047 C 0.09016 0.64811 0.82916 0.0
C1048 C 0.13747 0.66005 0.84495 0.0
C1049 C 0.13999 0.62869 0.81951 0.0
C1050 C 0.14779 0.59891 0.81979 0.0
C1051 C 0.16372 0.5857 0.8071 0.0
C1052 C 0.17203 0.60347 0.79383 0.0
C1053 C 0.16451 0.63409 0.7934 0.0
C1054 C 0.1484 0.64679 0.80646 0.0
H1055 H 0.42035 0.57045 0.09797 0.0
H1056 H 0.38536 0.62332 0.1379 0.0
H1057 H 0.3577 0.65472 0.11819 0.0
H1058 H 0.43036 0.63135 0.06992 0.0
H1059 H 0.41976 0.60959 0.05237 0.0
H1060 H 0.43681 0.5917 0.06965 0.0
H1061 H 0.39178 0.55563 0.07172 0.0
H1062 H 0.37458 0.57341 0.05447 0.0
H1063 H 0.35455 0.57062 0.07343 0.0
H1064 H 0.33233 0.67884 0.09404 0.0
H1065 H 0.31311 0.69542 0.06732 0.0
H1066 H 0.36609 0.62729 0.04335 0.0
C1067 C 0.40675 0.58857 0.10257 0.0
C1068 C 0.40475 0.5944 0.11944 0.0
C1069 C 0.3872 0.61861 0.125 0.0
C1070 C 0.37138 0.63644 0.11392 0.0
C1071 C 0.37366 0.62989 0.09735 0.0
C1072 C 0.39109 0.60667 0.09171 0.0
C1073 C 0.39002 0.60435 0.07334 0.0
C1074 C 0.42108 0.60957 0.06588 0.0
C1075 C 0.37695 0.57422 0.06793 0.0
C1076 C 0.36898 0.62973 0.06949 0.0
C1077 C 0.35969 0.64415 0.08349 0.0
C1078 C 0.3396 0.66784 0.083 0.0
C1079 C 0.32877 0.67704 0.06778 0.0
C1080 C 0.33822 0.66269 0.0533 0.0
C1081 C 0.35864 0.63881 0.05422 0.0
H1082 H 0.39397 0.90018 0.36536 0.0
H1083 H 0.48516 0.90761 0.34781 0.0
H1084 H 0.47056 0.88366 0.32209 0.0
H1085 H 0.37745 0.82819 0.34609 0.0
H1086 H 0.3396 0.83836 0.34108 0.0
H1087 H 0.35744 0.8543 0.35873 0.0
H1088 H 0.34639 0.9073 0.34784 0.0
H1089 H 0.32859 0.89154 0.33016 0.0
H1090 H 0.35899 0.91748 0.32777 0.0
H1091 H 0.44607 0.8627 0.29763 0.0
H1092 H 0.41291 0.84414 0.2759 0.0
H1093 H 0.3373 0.84923 0.30885 0.0
C1094 C 0.41087 0.89654 0.35615 0.0
C1095 C 0.44083 0.90544 0.35874 0.0
C1096 C 0.46226 0.90036 0.34633 0.0
C1097 C 0.45416 0.88693 0.3316 0.0
C1098 C 0.42452 0.8786 0.32941 0.0
C1099 C 0.40318 0.88301 0.34132 0.0
C1100 C 0.37268 0.87277 0.33552 0.0
C1101 C 0.36112 0.84686 0.34598 0.0
C1102 C 0.35035 0.89883 0.33531 0.0
C1103 C 0.38022 0.86246 0.31841 0.0
C1104 C 0.41029 0.86603 0.31519 0.0
C1105 C 0.42253 0.85946 0.30003 0.0
C1106 C 0.40351 0.84903 0.28776 0.0
C1107 C 0.37263 0.8451 0.29074 0.0
C1108 C 0.36091 0.85167 0.30632 0.0
H1109 H 0.0725 0.92316 0.59977 0.0
H1110 H 0.13295 0.89856 0.63884 0.0
H1111 H 0.1658 0.87344 0.61887 0.0
H1112 H 0.07909 0.8546 0.57717 0.0
H1113 H 0.07697 0.8728 0.55767 0.0
H1114 H 0.05866 0.889 0.57508 0.0
H1115 H 0.08762 0.93827 0.57048 0.0
H1116 H 0.10618 0.92215 0.55312 0.0
H1117 H 0.12785 0.93758 0.5696 0.0
H1118 H 0.19199 0.85087 0.59442 0.0
H1119 H 0.2087 0.83181 0.56763 0.0
H1120 H 0.13029 0.87066 0.54497 0.0
C1121 C 0.09242 0.91217 0.60421 0.0
C1122 C 0.10008 0.9128 0.62091 0.0
C1123 C 0.12674 0.89865 0.62609 0.0
C1124 C 0.14548 0.88422 0.61486 0.0
C1125 C 0.13723 0.88413 0.59849 0.0
C1126 C 0.11127 0.89766 0.5932 0.0
C1127 C 0.10732 0.89434 0.57499 0.0
C1128 C 0.07882 0.87663 0.571 0.0
C1129 C 0.10725 0.92491 0.56656 0.0
C1130 C 0.13512 0.87677 0.57082 0.0
C1131 C 0.15216 0.87114 0.58451 0.0
C1132 C 0.17882 0.85516 0.58363 0.0
C1133 C 0.18814 0.84447 0.56837 0.0
C1134 C 0.17081 0.8498 0.55424 0.0
C1135 C 0.14406 0.86629 0.55555 0.0
H1136 H 0.61577 0.44345 0.90644 0.0
H1137 H 0.54804 0.37919 0.89193 0.0
H1138 H 0.56543 0.34517 0.9133 0.0
H1139 H 0.67325 0.39155 0.9186 0.0
H1140 H 0.68437 0.4134 0.936 0.0
H1141 H 0.6689 0.43147 0.91834 0.0
H1142 H 0.6283 0.4561 0.93639 0.0
H1143 H 0.64357 0.43806 0.95409 0.0
H1144 H 0.60478 0.43298 0.94891 0.0
H1145 H 0.5895 0.31823 0.93671 0.0
H1146 H 0.61666 0.3019 0.96137 0.0
H1147 H 0.66431 0.38598 0.96251 0.0
C1148 C 0.60437 0.42234 0.90769 0.0
C1149 C 0.5806 0.41416 0.8972 0.0
C1150 C 0.56683 0.38593 0.89935 0.0
C1151 C 0.57636 0.36644 0.91161 0.0
C1152 C 0.59941 0.37553 0.92185 0.0
C1153 C 0.61307 0.40291 0.92011 0.0
C1154 C 0.63598 0.40817 0.93338 0.0
C1155 C 0.66749 0.41132 0.92614 0.0
C1156 C 0.62764 0.43544 0.94381 0.0
C1157 C 0.63289 0.37954 0.94293 0.0
C1158 C 0.61201 0.3608 0.93592 0.0
C1159 C 0.60578 0.33277 0.94235 0.0
C1160 C 0.62128 0.32369 0.95633 0.0
C1161 C 0.64227 0.34283 0.96386 0.0
C1162 C 0.64805 0.3711 0.95708 0.0
H1163 H 0.57232 0.07328 0.1643 0.0
H1164 H 0.63627 0.09174 0.12591 0.0
H1165 H 0.66927 0.11646 0.14592 0.0
H1166 H 0.58115 0.14288 0.18543 0.0
H1167 H 0.57704 0.12649 0.20532 0.0
H1168 H 0.55897 0.10971 0.18799 0.0
H1169 H 0.58524 0.05957 0.19431 0.0
H1170 H 0.60353 0.07625 0.21161 0.0
H1171 H 0.62539 0.05843 0.19595 0.0
H1172 H 0.695 0.13981 0.1702 0.0
H1173 H 0.71092 0.16068 0.19672 0.0
H1174 H 0.62958 0.12748 0.21893 0.0
C1175 C 0.59312 0.08275 0.16003 0.0
C1176 C 0.60168 0.08054 0.1435 0.0
C1177 C 0.62937 0.09282 0.13853 0.0
C1178 C 0.64821 0.10702 0.14979 0.0
C1179 C 0.63905 0.10876 0.16598 0.0
C1180 C 0.61212 0.09701 0.17108 0.0
C1181 C 0.60729 0.10208 0.18911 0.0
C1182 C 0.57947 0.12144 0.19213 0.0
C1183 C 0.60525 0.07231 0.19828 0.0
C1184 C 0.63567 0.11864 0.19338 0.0
C1185 C 0.65376 0.12221 0.1799 0.0
C1186 C 0.68103 0.13709 0.18085 0.0
C1187 C 0.6899 0.14883 0.19595 0.0
C1188 C 0.67152 0.14564 0.20987 0.0
C1189 C 0.64416 0.13018 0.20852 0.0
H1190 H 0.92457 0.11283 0.40742 0.0
H1191 H 0.87733 0.02846 0.40536 0.0
H1192 H 0.84635 0.044 0.42873 0.0
H1193 H 0.92836 0.11737 0.45041 0.0
H1194 H 0.9231 0.15715 0.4513 0.0
H1195 H 0.94006 0.14043 0.43364 0.0
H1196 H 0.90008 0.16482 0.41514 0.0
H1197 H 0.88311 0.18181 0.43274 0.0
H1198 H 0.86105 0.15875 0.41937 0.0
H1199 H 0.8229 0.06727 0.45351 0.0
H1200 H 0.80677 0.09784 0.47698 0.0
H1201 H 0.86953 0.16682 0.46295 0.0
C1202 C 0.90761 0.09767 0.41182 0.0
C1203 C 0.90334 0.06944 0.40449 0.0
C1204 C 0.88071 0.05039 0.41057 0.0
C1205 C 0.86315 0.05892 0.42392 0.0
C1206 C 0.86839 0.08661 0.43105 0.0
C1207 C 0.8899 0.10581 0.42513 0.0
C1208 C 0.89161 0.134 0.43526 0.0
C1209 C 0.92262 0.13742 0.44312 0.0
C1210 C 0.88346 0.16147 0.42501 0.0
C1211 C 0.86791 0.12752 0.4479 0.0
C1212 C 0.85479 0.10007 0.44527 0.0
C1213 C 0.83286 0.08889 0.45563 0.0
C1214 C 0.82393 0.10635 0.46895 0.0
C1215 C 0.83688 0.13468 0.47176 0.0
C1216 C 0.85915 0.1453 0.46107 0.0
H1217 H 0.91755 0.42982 0.66009 0.0
H1218 H 0.88068 0.37733 0.62055 0.0
H1219 H 0.85228 0.34705 0.64051 0.0
H1220 H 0.92672 0.36879 0.68808 0.0
H1221 H 0.91736 0.39096 0.70568 0.0
H1222 H 0.93433 0.40823 0.68821 0.0
H1223 H 0.89029 0.44562 0.68652 0.0
H1224 H 0.87316 0.42844 0.70396 0.0
H1225 H 0.85258 0.43173 0.68518 0.0
H1226 H 0.82643 0.32405 0.66509 0.0
H1227 H 0.80798 0.30811 0.69214 0.0
H1228 H 0.86394 0.37484 0.7152 0.0
C1229 C 0.90337 0.41202 0.65564 0.0
C1230 C 0.90095 0.40599 0.63883 0.0
C1231 C 0.88271 0.38221 0.63343 0.0
C1232 C 0.8665 0.36502 0.64465 0.0
C1233 C 0.86919 0.37175 0.66118 0.0
C1234 C 0.88744 0.39451 0.66664 0.0
C1235 C 0.88706 0.39697 0.685 0.0
C1236 C 0.91822 0.39086 0.69216 0.0
C1237 C 0.87505 0.4275 0.69048 0.0
C1238 C 0.86545 0.37225 0.68908 0.0
C1239 C 0.85522 0.35802 0.67521 0.0
C1240 C 0.83446 0.33491 0.67602 0.0
C1241 C 0.82406 0.32607 0.6914 0.0
C1242 C 0.83466 0.34017 0.70572 0.0
C1243 C 0.85561 0.3635 0.70447 0.0
H1244 H 0.62026 0.07585 0.35776 0.0
H1245 H 0.55097 0.14117 0.36816 0.0
H1246 H 0.57124 0.17353 0.34679 0.0
H1247 H 0.67945 0.12654 0.34551 0.0
H1248 H 0.69163 0.10269 0.32913 0.0
H1249 H 0.6749 0.08675 0.34706 0.0
H1250 H 0.63543 0.06017 0.32908 0.0
H1251 H 0.65198 0.07604 0.31112 0.0
H1252 H 0.61288 0.08186 0.3153 0.0
H1253 H 0.59761 0.19804 0.32319 0.0
H1254 H 0.62529 0.21041 0.29798 0.0
H1255 H 0.67216 0.12604 0.30083 0.0
C1256 C 0.6091 0.09686 0.35565 0.0
C1257 C 0.58396 0.10573 0.36495 0.0
C1258 C 0.57072 0.13388 0.3617 0.0
C1259 C 0.58193 0.15246 0.34943 0.0
C1260 C 0.60615 0.14253 0.34028 0.0
C1261 C 0.61938 0.11525 0.34315 0.0
C1262 C 0.64312 0.10835 0.33058 0.0
C1263 C 0.67411 0.10595 0.33855 0.0
C1264 C 0.63537 0.07993 0.32095 0.0
C1265 C 0.64083 0.13581 0.32001 0.0
C1266 C 0.61988 0.15561 0.32602 0.0
C1267 C 0.61403 0.18269 0.31836 0.0
C1268 C 0.62981 0.18953 0.30409 0.0
C1269 C 0.65054 0.16903 0.29748 0.0
C1270 C 0.65617 0.14195 0.30559 0.0
H1271 H 0.92408 0.0676 0.59869 0.0
H1272 H 0.90023 0.1287 0.63754 0.0
H1273 H 0.87088 0.1588 0.618 0.0
H1274 H 0.93308 0.12321 0.56771 0.0
H1275 H 0.91796 0.10018 0.5517 0.0
H1276 H 0.93648 0.08324 0.56881 0.0
H1277 H 0.88944 0.05132 0.57456 0.0
H1278 H 0.87078 0.06815 0.55746 0.0
H1279 H 0.85387 0.06947 0.57736 0.0
H1280 H 0.84338 0.18145 0.59432 0.0
H1281 H 0.82159 0.19655 0.56795 0.0
H1282 H 0.86493 0.12147 0.54441 0.0
C1283 C 0.91246 0.08719 0.60309 0.0
C1284 C 0.91419 0.09579 0.61962 0.0
C1285 C 0.8992 0.12185 0.6249 0.0
C1286 C 0.88244 0.13897 0.61392 0.0
C1287 C 0.88116 0.12984 0.5977 0.0
C1288 C 0.89594 0.10467 0.59228 0.0
C1289 C 0.89158 0.10009 0.57416 0.0
C1290 C 0.92156 0.10179 0.56506 0.0
C1291 C 0.87545 0.0705 0.57069 0.0
C1292 C 0.8719 0.12654 0.57023 0.0
C1293 C 0.86601 0.14332 0.58399 0.0
C1294 C 0.84793 0.16856 0.58345 0.0
C1295 C 0.83563 0.17691 0.56844 0.0
C1296 C 0.84166 0.16022 0.55416 0.0
C1297 C 0.86007 0.13474 0.55511 0.0
H1298 H 0.89901 0.39045 0.8623 0.0
H1299 H 0.91136 0.47951 0.84283 0.0
H1300 H 0.8902 0.46329 0.81668 0.0
H1301 H 0.91922 0.35142 0.82564 0.0
H1302 H 0.89186 0.32234 0.82815 0.0
H1303 H 0.90706 0.34093 0.84576 0.0
H1304 H 0.85366 0.35484 0.85524 0.0
H1305 H 0.83829 0.33619 0.8377 0.0
H1306 H 0.82923 0.37468 0.84158 0.0
H1307 H 0.86902 0.43794 0.79256 0.0
H1308 H 0.84762 0.4047 0.77174 0.0
H1309 H 0.84928 0.33134 0.80612 0.0
C1310 C 0.89722 0.40651 0.85254 0.0
C1311 C 0.90649 0.4364 0.85475 0.0
C1312 C 0.90374 0.45672 0.84163 0.0
C1313 C 0.89199 0.44767 0.82665 0.0
C1314 C 0.88314 0.41816 0.82488 0.0
C1315 C 0.88549 0.39784 0.83742 0.0
C1316 C 0.87444 0.36736 0.8321 0.0
C1317 C 0.89966 0.34414 0.83296 0.0
C1318 C 0.84729 0.35771 0.84226 0.0
C1319 C 0.86568 0.37383 0.81461 0.0
C1320 C 0.87094 0.40331 0.81076 0.0
C1321 C 0.86474 0.4148 0.79541 0.0
C1322 C 0.85261 0.39572 0.78366 0.0
C1323 C 0.84681 0.36545 0.7873 0.0
C1324 C 0.85356 0.35436 0.80299 0.0
H1325 H 0.57521 0.3865 0.1092 0.0
H1326 H 0.62548 0.46886 0.11336 0.0
H1327 H 0.65726 0.45327 0.09034 0.0
H1328 H 0.63768 0.33873 0.09731 0.0
H1329 H 0.61531 0.31739 0.08325 0.0
H1330 H 0.59828 0.33392 0.10097 0.0
H1331 H 0.56004 0.36103 0.08249 0.0
H1332 H 0.57704 0.34473 0.06473 0.0
H1333 H 0.57333 0.38462 0.0663 0.0
H1334 H 0.6814 0.43023 0.0656 0.0
H1335 H 0.69673 0.40077 0.04151 0.0
H1336 H 0.62989 0.33421 0.05325 0.0
C1337 C 0.59301 0.40121 0.10535 0.0
C1338 C 0.59789 0.42886 0.11318 0.0
C1339 C 0.6216 0.44733 0.10779 0.0
C1340 C 0.63966 0.43876 0.09464 0.0
C1341 C 0.63383 0.41164 0.08701 0.0
C1342 C 0.61118 0.39306 0.09223 0.0
C1343 C 0.60876 0.36563 0.08155 0.0
C1344 C 0.61542 0.33724 0.09135 0.0
C1345 C 0.57797 0.36393 0.07328 0.0
C1346 C 0.63324 0.37194 0.06933 0.0
C1347 C 0.64757 0.39849 0.07273 0.0
C1348 C 0.67048 0.4093 0.06289 0.0
C1349 C 0.67899 0.39247 0.04922 0.0
C1350 C 0.66452 0.36524 0.04553 0.0
C1351 C 0.64142 0.35492 0.05578 0.0
loop_
_geom_bond_atom_site_label_1
_geom_bond_atom_site_label_2
_geom_bond_distance
_geom_bond_site_symmetry_2
_ccdc_geom_bond_type
H0 C19 0.949 . S
H1 C20 0.950 . S
H2 C22 0.950 . S
H3 C23 0.950 . S
H4 C25 0.950 . S
H5 C28 0.950 . S
H6 C29 0.950 . S
H7 C31 0.951 . S
H8 C32 0.949 1_565 S
H9 C34 0.949 . S
H10 C35 0.950 . S
H11 C37 0.950 . S
H12 C38 0.950 . S
H13 C40 0.951 . S
H14 C43 0.950 . S
H15 C44 0.950 . S
H16 C46 0.951 . S
H17 C47 0.949 1_545 S
C18 C19 1.376 . S
C18 C23 1.386 . S
C18 C24 1.483 . S
C19 H0 0.949 . S
C19 C18 1.376 . S
C19 C20 1.397 . S
C20 H1 0.950 . S
C20 C19 1.397 . S
C20 C21 1.391 . S
C21 C20 1.391 . S
C21 C22 1.405 . S
C22 H2 0.950 . S
C22 C21 1.405 . S
C22 C23 1.367 . S
C23 H3 0.950 . S
C23 C18 1.386 . S
C23 C22 1.367 . S
C24 C18 1.483 . S
C24 C25 1.382 1_655 S
C24 C26 1.403 . S
C25 H4 0.950 . S
C25 C24 1.382 1_455 S
C25 C41 1.411 1_545 S
C26 C24 1.403 . S
C26 C27 1.489 . S
C26 C40 1.419 1_545 S
C27 C26 1.489 . S
C27 C28 1.383 . S
C27 C32 1.382 . S
C28 H5 0.950 . S
C28 C27 1.383 . S
C28 C29 1.395 . S
C29 H6 0.950 . S
C29 C28 1.395 . S
C29 C30 1.288 . S
C30 C29 1.288 . S
C30 C31 1.392 . S
C31 H7 0.951 . S
C31 C30 1.392 . S
C31 C32 1.392 . S
C32 H8 0.949 1_545 S
C32 C27 1.382 . S
C32 C31 1.392 . S
C33 C34 1.376 . S
C33 C38 1.386 . S
C33 C39 1.483 . S
C34 H9 0.949 . S
C34 C33 1.376 . S
C34 C35 1.397 . S
C35 H10 0.950 . S
C35 C34 1.397 . S
C35 C36 1.391 . S
C36 C35 1.391 . S
C36 C37 1.405 . S
C37 H11 0.950 . S
C37 C36 1.405 . S
C37 C38 1.367 . S
C38 H12 0.950 . S
C38 C33 1.386 . S
C38 C37 1.367 . S
C39 C33 1.483 . S
C39 C40 1.373 1_455 S
C39 C41 1.403 . S
C40 H13 0.951 . S
C40 C26 1.419 1_565 S
C40 C39 1.373 1_655 S
C41 C25 1.411 1_565 S
C41 C39 1.403 . S
C41 C42 1.489 . S
C42 C41 1.489 . S
C42 C43 1.383 . S
C42 C47 1.382 . S
C43 H14 0.950 . S
C43 C42 1.383 . S
C43 C44 1.395 . S
C44 H15 0.950 . S
C44 C43 1.395 . S
C44 C45 1.288 . S
C45 C44 1.288 . S
C45 C46 1.392 . S
C46 H16 0.951 . S
C46 C45 1.392 . S
C46 C47 1.392 . S
C47 H17 0.949 1_565 S
C47 C42 1.382 . S
C47 C46 1.392 . S
H48 C67 0.949 1_455 S
H49 C68 0.950 . S
H50 C70 0.950 . S
H51 C71 0.950 . S
H52 C73 0.950 . S
H53 C76 0.950 . S
H54 C77 0.950 . S
H55 C79 0.951 . S
H56 C80 0.949 . S
H57 C82 0.949 1_655 S
H58 C83 0.950 . S
H59 C85 0.950 . S
H60 C86 0.950 . S
H61 C88 0.950 . S
H62 C91 0.950 . S
H63 C92 0.950 . S
H64 C94 0.951 . S
H65 C95 0.949 . S
C66 C67 1.376 . S
C66 C71 1.386 . S
C66 C72 1.483 . S
C67 H48 0.949 1_655 S
C67 C66 1.376 . S
C67 C68 1.397 . S
C68 H49 0.950 . S
C68 C67 1.397 . S
C68 C69 1.391 . S
C69 C68 1.391 . S
C69 C70 1.405 . S
C70 H50 0.950 . S
C70 C69 1.405 . S
C70 C71 1.367 . S
C71 H51 0.950 . S
C71 C66 1.386 . S
C71 C70 1.367 . S
C72 C66 1.483 . S
C72 C73 1.382 1_655 S
C72 C74 1.403 . S
C73 H52 0.950 . S
C73 C72 1.382 1_455 S
C73 C89 1.411 . S
C74 C72 1.403 . S
C74 C75 1.489 . S
C74 C88 1.411 . S
C75 C74 1.489 . S
C75 C76 1.383 . S
C75 C80 1.382 . S
C76 H53 0.950 . S
C76 C75 1.383 . S
C76 C77 1.395 . S
C77 H54 0.950 . S
C77 C76 1.395 . S
C77 C78 1.288 . S
C78 C77 1.288 . S
C78 C79 1.392 . S
C79 H55 0.951 . S
C79 C78 1.392 . S
C79 C80 1.392 . S
C80 H56 0.949 . S
C80 C75 1.382 . S
C80 C79 1.392 . S
C81 C82 1.376 . S
C81 C86 1.386 . S
C81 C87 1.483 . S
C82 H57 0.949 1_455 S
C82 C81 1.376 . S
C82 C83 1.397 . S
C83 H58 0.950 . S
C83 C82 1.397 . S
C83 C84 1.391 . S
C84 C83 1.391 . S
C84 C85 1.405 . S
C85 H59 0.950 . S
C85 C84 1.405 . S
C85 C86 1.367 . S
C86 H60 0.950 . S
C86 C81 1.386 . S
C86 C85 1.367 . S
C87 C81 1.483 . S
C87 C88 1.382 1_455 S
C87 C89 1.403 . S
C88 H61 0.950 . S
C88 C74 1.411 . S
C88 C87 1.382 1_655 S
C89 C73 1.411 . S
C89 C87 1.403 . S
C89 C90 1.489 . S
C90 C89 1.489 . S
C90 C91 1.383 . S
C90 C95 1.382 . S
C91 H62 0.950 . S
C91 C90 1.383 . S
C91 C92 1.395 . S
C92 H63 0.950 . S
C92 C91 1.395 . S
C92 C93 1.288 . S
C93 C92 1.288 . S
C93 C94 1.392 . S
C94 H64 0.951 . S
C94 C93 1.392 . S
C94 C95 1.392 . S
C95 H65 0.949 . S
C95 C90 1.382 . S
C95 C94 1.392 . S
H96 C115 0.949 . S
H97 C116 0.950 . S
H98 C118 0.950 . S
H99 C119 0.950 . S
H100 C121 0.950 . S
H101 C124 0.950 . S
H102 C125 0.950 . S
H103 C127 0.951 . S
H104 C128 0.949 . S
H105 C130 0.949 . S
H106 C131 0.950 . S
H107 C133 0.950 . S
H108 C134 0.950 . S
H109 C136 0.950 . S
H110 C139 0.950 . S
H111 C140 0.950 . S
H112 C142 0.951 . S
H113 C143 0.949 . S
C114 C115 1.376 . S
C114 C119 1.386 . S
C114 C120 1.483 . S
C115 H96 0.949 . S
C115 C114 1.376 . S
C115 C116 1.397 . S
C116 H97 0.950 . S
C116 C115 1.397 . S
C116 C117 1.391 . S
C117 C116 1.391 . S
C117 C118 1.405 . S
C118 H98 0.950 . S
C118 C117 1.405 . S
C118 C119 1.367 . S
C119 H99 0.950 . S
C119 C114 1.386 . S
C119 C118 1.367 . S
C120 C114 1.483 . S
C120 C121 1.382 . S
C120 C122 1.403 . S
C121 H100 0.950 . S
C121 C120 1.382 . S
C121 C137 1.411 . S
C122 C120 1.403 . S
C122 C123 1.489 . S
C122 C136 1.411 . S
C123 C122 1.489 . S
C123 C124 1.383 . S
C123 C128 1.382 . S
C124 H101 0.950 . S
C124 C123 1.383 . S
C124 C125 1.395 . S
C125 H102 0.950 . S
C125 C124 1.395 . S
C125 C126 1.288 . S
C126 C125 1.288 . S
C126 C127 1.392 . S
C127 H103 0.951 . S
C127 C126 1.392 . S
C127 C128 1.392 . S
C128 H104 0.949 . S
C128 C123 1.382 . S
C128 C127 1.392 . S
C129 C130 1.376 . S
C129 C134 1.386 . S
C129 C135 1.483 . S
C130 H105 0.949 . S
C130 C129 1.376 . S
C130 C131 1.397 . S
C131 H106 0.950 . S
C131 C130 1.397 . S
C131 C132 1.391 . S
C132 C131 1.391 . S
C132 C133 1.405 . S
C133 H107 0.950 . S
C133 C132 1.405 . S
C133 C134 1.367 . S
C134 H108 0.950 . S
C134 C129 1.386 . S
C134 C133 1.367 . S
C135 C129 1.483 . S
C135 C136 1.382 . S
C135 C137 1.403 . S
C136 H109 0.950 . S
C136 C122 1.411 . S
C136 C135 1.382 . S
C137 C121 1.411 . S
C137 C135 1.403 . S
C137 C138 1.489 . S
C138 C137 1.489 . S
C138 C139 1.383 . S
C138 C143 1.382 . S
C139 H110 0.950 . S
C139 C138 1.383 . S
C139 C140 1.395 . S
C140 H111 0.950 . S
C140 C139 1.395 . S
C140 C141 1.288 . S
C141 C140 1.288 . S
C141 C142 1.392 . S
C142 H112 0.951 . S
C142 C141 1.392 . S
C142 C143 1.392 . S
C143 H113 0.949 . S
C143 C138 1.382 . S
C143 C142 1.392 . S
H144 C163 0.949 . S
H145 C164 0.950 . S
H146 C166 0.950 . S
H147 C167 0.950 . S
H148 C169 0.950 . S
H149 C172 0.950 . S
H150 C173 0.950 . S
H151 C175 0.951 . S
H152 C176 0.949 . S
H153 C178 0.949 . S
H154 C179 0.950 . S
H155 C181 0.950 . S
H156 C182 0.950 . S
H157 C184 0.950 . S
H158 C187 0.950 . S
H159 C188 0.950 . S
H160 C190 0.951 . S
H161 C191 0.949 . S
C162 C163 1.376 . S
C162 C167 1.386 . S
C162 C168 1.483 . S
C163 H144 0.949 . S
C163 C162 1.376 . S
C163 C164 1.397 . S
C164 H145 0.950 . S
C164 C163 1.397 . S
C164 C165 1.391 . S
C165 C164 1.391 . S
C165 C166 1.405 . S
C166 H146 0.950 . S
C166 C165 1.405 . S
C166 C167 1.367 . S
C167 H147 0.950 . S
C167 C162 1.386 . S
C167 C166 1.367 . S
C168 C162 1.483 . S
C168 C169 1.382 . S
C168 C170 1.403 . S
C169 H148 0.950 . S
C169 C168 1.382 . S
C169 C185 1.411 1_565 S
C170 C168 1.403 . S
C170 C171 1.489 . S
C170 C184 1.411 1_565 S
C171 C170 1.489 . S
C171 C172 1.383 . S
C171 C176 1.382 . S
C172 H149 0.950 . S
C172 C171 1.383 . S
C172 C173 1.395 . S
C173 H150 0.950 . S
C173 C172 1.395 . S
C173 C174 1.288 . S
C174 C173 1.288 . S
C174 C175 1.392 . S
C175 H151 0.951 . S
C175 C174 1.392 . S
C175 C176 1.392 . S
C176 H152 0.949 . S
C176 C171 1.382 . S
C176 C175 1.392 . S
C177 C178 1.376 . S
C177 C182 1.386 . S
C177 C183 1.483 . S
C178 H153 0.949 . S
C178 C177 1.376 . S
C178 C179 1.397 . S
C179 H154 0.950 . S
C179 C178 1.397 . S
C179 C180 1.391 . S
C180 C179 1.391 . S
C180 C181 1.405 . S
C181 H155 0.950 . S
C181 C180 1.405 . S
C181 C182 1.367 . S
C182 H156 0.950 . S
C182 C177 1.386 . S
C182 C181 1.367 . S
C183 C177 1.483 . S
C183 C184 1.382 . S
C183 C185 1.403 . S
C184 H157 0.950 . S
C184 C170 1.411 1_545 S
C184 C183 1.382 . S
C185 C169 1.411 1_545 S
C185 C183 1.403 . S
C185 C186 1.489 . S
C186 C185 1.489 . S
C186 C187 1.383 . S
C186 C191 1.382 . S
C187 H158 0.950 . S
C187 C186 1.383 . S
C187 C188 1.395 . S
C188 H159 0.950 . S
C188 C187 1.395 . S
C188 C189 1.288 . S
C189 C188 1.288 . S
C189 C190 1.392 . S
C190 H160 0.951 . S
C190 C189 1.392 . S
C190 C191 1.392 . S
C191 H161 0.949 . S
C191 C186 1.382 . S
C191 C190 1.392 . S
H192 C211 0.949 . S
H193 C212 0.950 . S
H194 C214 0.950 . S
H195 C215 0.950 . S
H196 C217 0.950 . S
H197 C220 0.950 . S
H198 C221 0.950 . S
H199 C223 0.951 . S
H200 C224 0.949 . S
H201 C226 0.949 . S
H202 C227 0.950 . S
H203 C229 0.950 . S
H204 C230 0.950 . S
H205 C232 0.950 . S
H206 C235 0.950 . S
H207 C236 0.950 . S
H208 C238 0.951 . S
H209 C239 0.949 . S
C210 C211 1.376 . S
C210 C215 1.386 . S
C210 C216 1.483 . S
C211 H192 0.949 . S
C211 C210 1.376 . S
C211 C212 1.397 . S
C212 H193 0.950 . S
C212 C211 1.397 . S
C212 C213 1.391 . S
C213 C212 1.391 . S
C213 C214 1.405 . S
C214 H194 0.950 . S
C214 C213 1.405 . S
C214 C215 1.367 . S
C215 H195 0.950 . S
C215 C210 1.386 . S
C215 C214 1.367 . S
C216 C210 1.483 . S
C216 C217 1.382 1_455 S
C216 C218 1.403 . S
C217 H196 0.950 . S
C217 C216 1.382 1_655 S
C217 C233 1.411 . S
C218 C216 1.403 . S
C218 C219 1.489 . S
C218 C232 1.411 . S
C219 C218 1.489 . S
C219 C220 1.383 . S
C219 C224 1.382 . S
C220 H197 0.950 . S
C220 C219 1.383 . S
C220 C221 1.395 . S
C221 H198 0.950 . S
C221 C220 1.395 . S
C221 C222 1.288 . S
C222 C221 1.288 . S
C222 C223 1.392 . S
C223 H199 0.951 . S
C223 C222 1.392 . S
C223 C224 1.392 . S
C224 H200 0.949 . S
C224 C219 1.382 . S
C224 C223 1.392 . S
C225 C226 1.376 . S
C225 C230 1.386 . S
C225 C231 1.483 . S
C226 H201 0.949 . S
C226 C225 1.376 . S
C226 C227 1.397 . S
C227 H202 0.950 . S
C227 C226 1.397 . S
C227 C228 1.391 . S
C228 C227 1.391 . S
C228 C229 1.405 . S
C229 H203 0.950 . S
C229 C228 1.405 . S
C229 C230 1.367 . S
C230 H204 0.950 . S
C230 C225 1.386 . S
C230 C229 1.367 . S
C231 C225 1.483 . S
C231 C232 1.382 1_655 S
C231 C233 1.403 . S
C232 H205 0.950 . S
C232 C218 1.411 . S
C232 C231 1.382 1_455 S
C233 C217 1.411 . S
C233 C231 1.403 . S
C233 C234 1.489 . S
C234 C233 1.489 . S
C234 C235 1.383 . S
C234 C239 1.382 . S
C235 H206 0.950 . S
C235 C234 1.383 . S
C235 C236 1.395 . S
C236 H207 0.950 . S
C236 C235 1.395 . S
C236 C237 1.288 . S
C237 C236 1.288 . S
C237 C238 1.392 . S
C238 H208 0.951 . S
C238 C237 1.392 . S
C238 C239 1.392 . S
C239 H209 0.949 . S
C239 C234 1.382 . S
C239 C238 1.392 . S
H240 C259 0.949 . S
H241 C260 0.950 . S
H242 C262 0.950 . S
H243 C263 0.950 . S
H244 C265 0.950 . S
H245 C268 0.950 . S
H246 C269 0.950 . S
H247 C271 0.951 . S
H248 C272 0.949 . S
H249 C274 0.949 . S
H250 C275 0.950 . S
H251 C277 0.950 . S
H252 C278 0.950 . S
H253 C280 0.950 . S
H254 C283 0.950 . S
H255 C284 0.950 . S
H256 C286 0.951 . S
H257 C287 0.949 . S
C258 C259 1.376 . S
C258 C263 1.386 . S
C258 C264 1.483 . S
C259 H240 0.949 . S
C259 C258 1.376 . S
C259 C260 1.397 . S
C260 H241 0.950 . S
C260 C259 1.397 . S
C260 C261 1.391 . S
C261 C260 1.391 . S
C261 C262 1.405 . S
C262 H242 0.950 . S
C262 C261 1.405 . S
C262 C263 1.367 . S
C263 H243 0.950 . S
C263 C258 1.386 . S
C263 C262 1.367 . S
C264 C258 1.483 . S
C264 C265 1.382 . S
C264 C266 1.403 . S
C265 H244 0.950 . S
C265 C264 1.382 . S
C265 C281 1.411 . S
C266 C264 1.403 . S
C266 C267 1.489 . S
C266 C280 1.411 . S
C267 C266 1.489 . S
C267 C268 1.383 . S
C267 C272 1.382 . S
C268 H245 0.950 . S
C268 C267 1.383 . S
C268 C269 1.395 . S
C269 H246 0.950 . S
C269 C268 1.395 . S
C269 C270 1.288 . S
C270 C269 1.288 . S
C270 C271 1.392 . S
C271 H247 0.951 . S
C271 C270 1.392 . S
C271 C272 1.392 . S
C272 H248 0.949 . S
C272 C267 1.382 . S
C272 C271 1.392 . S
C273 C274 1.376 . S
C273 C278 1.386 . S
C273 C279 1.483 . S
C274 H249 0.949 . S
C274 C273 1.376 . S
C274 C275 1.397 . S
C275 H250 0.950 . S
C275 C274 1.397 . S
C275 C276 1.391 . S
C276 C275 1.391 . S
C276 C277 1.405 . S
C277 H251 0.950 . S
C277 C276 1.405 . S
C277 C278 1.367 . S
C278 H252 0.950 . S
C278 C273 1.386 . S
C278 C277 1.367 . S
C279 C273 1.483 . S
C279 C280 1.382 . S
C279 C281 1.403 . S
C280 H253 0.950 . S
C280 C266 1.411 . S
C280 C279 1.382 . S
C281 C265 1.411 . S
C281 C279 1.403 . S
C281 C282 1.489 . S
C282 C281 1.489 . S
C282 C283 1.383 . S
C282 C287 1.382 . S
C283 H254 0.950 . S
C283 C282 1.383 . S
C283 C284 1.395 . S
C284 H255 0.950 . S
C284 C283 1.395 . S
C284 C285 1.288 . S
C285 C284 1.288 . S
C285 C286 1.392 . S
C286 H256 0.951 . S
C286 C285 1.392 . S
C286 C287 1.392 . S
C287 H257 0.949 . S
C287 C282 1.382 . S
C287 C286 1.392 . S
H288 C307 0.949 . S
H289 C308 0.950 . S
H290 C310 0.950 . S
H291 C311 0.950 . S
H292 C313 0.950 . S
H293 C316 0.950 . S
H294 C317 0.950 . S
H295 C319 0.951 . S
H296 C320 0.949 1_545 S
H297 C322 0.949 . S
H298 C323 0.950 . S
H299 C325 0.950 . S
H300 C326 0.950 . S
H301 C328 0.950 . S
H302 C331 0.950 . S
H303 C332 0.950 . S
H304 C334 0.951 . S
H305 C335 0.949 1_565 S
C306 C307 1.376 . S
C306 C311 1.386 . S
C306 C312 1.483 . S
C307 H288 0.949 . S
C307 C306 1.376 . S
C307 C308 1.397 . S
C308 H289 0.950 . S
C308 C307 1.397 . S
C308 C309 1.391 . S
C309 C308 1.391 . S
C309 C310 1.405 . S
C310 H290 0.950 . S
C310 C309 1.405 . S
C310 C311 1.367 . S
C311 H291 0.950 . S
C311 C306 1.386 . S
C311 C310 1.367 . S
C312 C306 1.483 . S
C312 C313 1.382 . S
C312 C314 1.403 . S
C313 H292 0.950 . S
C313 C312 1.382 . S
C313 C329 1.411 1_565 S
C314 C312 1.403 . S
C314 C315 1.489 . S
C314 C328 1.411 1_565 S
C315 C314 1.489 . S
C315 C316 1.383 . S
C315 C320 1.382 . S
C316 H293 0.950 . S
C316 C315 1.383 . S
C316 C317 1.395 . S
C317 H294 0.950 . S
C317 C316 1.395 . S
C317 C318 1.288 . S
C318 C317 1.288 . S
C318 C319 1.392 . S
C319 H295 0.951 . S
C319 C318 1.392 . S
C319 C320 1.392 . S
C320 H296 0.949 1_565 S
C320 C315 1.382 . S
C320 C319 1.392 . S
C321 C322 1.376 . S
C321 C326 1.386 . S
C321 C327 1.483 . S
C322 H297 0.949 . S
C322 C321 1.376 . S
C322 C323 1.397 . S
C323 H298 0.950 . S
C323 C322 1.397 . S
C323 C324 1.391 . S
C324 C323 1.391 . S
C324 C325 1.405 . S
C325 H299 0.950 . S
C325 C324 1.405 . S
C325 C326 1.367 . S
C326 H300 0.950 . S
C326 C321 1.386 . S
C326 C325 1.367 . S
C327 C321 1.483 . S
C327 C328 1.382 . S
C327 C329 1.403 . S
C328 H301 0.950 . S
C328 C314 1.411 1_545 S
C328 C327 1.382 . S
C329 C313 1.411 1_545 S
C329 C327 1.403 . S
C329 C330 1.489 . S
C330 C329 1.489 . S
C330 C331 1.383 . S
C330 C335 1.382 . S
C331 H302 0.950 . S
C331 C330 1.383 . S
C331 C332 1.395 . S
C332 H303 0.950 . S
C332 C331 1.395 . S
C332 C333 1.288 . S
C333 C332 1.288 . S
C333 C334 1.392 . S
C334 H304 0.951 . S
C334 C333 1.392 . S
C334 C335 1.392 . S
C335 H305 0.949 1_545 S
C335 C330 1.382 . S
C335 C334 1.392 . S
H336 C355 0.949 1_455 S
H337 C356 0.950 . S
H338 C358 0.950 . S
H339 C359 0.950 . S
H340 C361 0.950 . S
H341 C364 0.950 . S
H342 C365 0.950 . S
H343 C367 0.951 . S
H344 C368 0.949 . S
H345 C370 0.949 1_655 S
H346 C371 0.950 . S
H347 C373 0.950 . S
H348 C374 0.950 . S
H349 C376 0.950 . S
H350 C379 0.950 . S
H351 C380 0.950 . S
H352 C382 0.951 . S
H353 C383 0.949 . S
C354 C355 1.376 . S
C354 C359 1.386 . S
C354 C360 1.483 . S
C355 H336 0.949 1_655 S
C355 C354 1.376 . S
C355 C356 1.397 . S
C356 H337 0.950 . S
C356 C355 1.397 . S
C356 C357 1.391 . S
C357 C356 1.391 . S
C357 C358 1.405 . S
C358 H338 0.950 . S
C358 C357 1.405 . S
C358 C359 1.367 . S
C359 H339 0.950 . S
C359 C354 1.386 . S
C359 C358 1.367 . S
C360 C354 1.483 . S
C360 C361 1.382 1_655 S
C360 C362 1.403 . S
C361 H340 0.950 . S
C361 C360 1.382 1_455 S
C361 C377 1.411 1_545 S
C362 C360 1.403 . S
C362 C363 1.489 . S
C362 C376 1.411 1_545 S
C363 C362 1.489 . S
C363 C364 1.383 . S
C363 C368 1.382 . S
C364 H341 0.950 . S
C364 C363 1.383 . S
C364 C365 1.395 . S
C365 H342 0.950 . S
C365 C364 1.395 . S
C365 C366 1.288 . S
C366 C365 1.288 . S
C366 C367 1.392 . S
C367 H343 0.951 . S
C367 C366 1.392 . S
C367 C368 1.392 . S
C368 H344 0.949 . S
C368 C363 1.382 . S
C368 C367 1.392 . S
C369 C370 1.376 . S
C369 C374 1.386 . S
C369 C375 1.483 . S
C370 H345 0.949 1_455 S
C370 C369 1.376 . S
C370 C371 1.397 . S
C371 H346 0.950 . S
C371 C370 1.397 . S
C371 C372 1.391 . S
C372 C371 1.391 . S
C372 C373 1.405 . S
C373 H347 0.950 . S
C373 C372 1.405 . S
C373 C374 1.367 . S
C374 H348 0.950 . S
C374 C369 1.386 . S
C374 C373 1.367 . S
C375 C369 1.483 . S
C375 C376 1.382 1_455 S
C375 C377 1.403 . S
C376 H349 0.950 . S
C376 C362 1.411 1_565 S
C376 C375 1.382 1_655 S
C377 C361 1.411 1_565 S
C377 C375 1.403 . S
C377 C378 1.489 . S
C378 C377 1.489 . S
C378 C379 1.383 . S
C378 C383 1.382 . S
C379 H350 0.950 . S
C379 C378 1.383 . S
C379 C380 1.395 . S
C380 H351 0.950 . S
C380 C379 1.395 . S
C380 C381 1.288 . S
C381 C380 1.288 . S
C381 C382 1.392 . S
C382 H352 0.951 . S
C382 C381 1.392 . S
C382 C383 1.392 . S
C383 H353 0.949 . S
C383 C378 1.382 . S
C383 C382 1.392 . S
In384 O385 2.294 . S
In384 O386 2.326 . S
In384 O390 2.266 1_554 S
In384 O391 2.326 1_554 S
In384 O392 2.266 1_554 S
In384 O393 2.326 1_554 S
In384 O395 2.294 . S
In384 O396 2.326 . S
O385 In384 2.294 . S
O385 C394 1.240 . S
O386 In384 2.326 . S
O386 C394 1.252 . S
C387 O390 1.252 . S
C387 O391 1.260 . S
C388 O395 1.240 . S
C388 O396 1.252 . S
C389 O392 1.252 . S
C389 O393 1.260 . S
O390 In384 2.266 1_556 S
O390 C387 1.252 . S
O391 In384 2.326 1_556 S
O391 C387 1.260 . S
O392 In384 2.266 1_556 S
O392 C389 1.252 . S
O393 In384 2.326 1_556 S
O393 C389 1.260 . S
C394 O385 1.240 . S
C394 O386 1.252 . S
O395 In384 2.294 . S
O395 C388 1.240 . S
O396 In384 2.326 . S
O396 C388 1.252 . S
In397 O398 2.294 . S
In397 O399 2.326 . S
In397 O403 2.266 . S
In397 O404 2.326 . S
In397 O405 2.266 . S
In397 O406 2.326 . S
In397 O408 2.294 . S
In397 O409 2.326 . S
O398 In397 2.294 . S
O398 C407 1.240 . S
O399 In397 2.326 . S
O399 C407 1.252 . S
C400 O403 1.252 . S
C400 O404 1.260 . S
C401 O408 1.240 . S
C401 O409 1.252 . S
C402 O405 1.252 . S
C402 O406 1.260 . S
O403 In397 2.266 . S
O403 C400 1.252 . S
O404 In397 2.326 . S
O404 C400 1.260 . S
O405 In397 2.266 . S
O405 C402 1.252 . S
O406 In397 2.326 . S
O406 C402 1.260 . S
C407 O398 1.240 . S
C407 O399 1.252 . S
O408 In397 2.294 . S
O408 C401 1.240 . S
O409 In397 2.326 . S
O409 C401 1.252 . S
In410 O411 2.294 . S
In410 O412 2.326 . S
In410 O416 2.266 . S
In410 O417 2.326 . S
In410 O418 2.266 . S
In410 O419 2.326 . S
In410 O421 2.294 . S
In410 O422 2.326 . S
O411 In410 2.294 . S
O411 C420 1.240 . S
O412 In410 2.326 . S
O412 C420 1.252 . S
C413 O416 1.252 . S
C413 O417 1.260 . S
C414 O421 1.240 . S
C414 O422 1.252 . S
C415 O418 1.252 . S
C415 O419 1.260 . S
O416 In410 2.266 . S
O416 C413 1.252 . S
O417 In410 2.326 . S
O417 C413 1.260 . S
O418 In410 2.266 . S
O418 C415 1.252 . S
O419 In410 2.326 . S
O419 C415 1.260 . S
C420 O411 1.240 . S
C420 O412 1.252 . S
O421 In410 2.294 . S
O421 C414 1.240 . S
O422 In410 2.326 . S
O422 C414 1.252 . S
In423 O424 2.294 . S
In423 O425 2.326 . S
In423 O429 2.266 . S
In423 O430 2.326 . S
In423 O431 2.266 . S
In423 O432 2.326 . S
In423 O434 2.294 . S
In423 O435 2.326 . S
O424 In423 2.294 . S
O424 C433 1.240 . S
O425 In423 2.326 . S
O425 C433 1.252 . S
C426 O429 1.252 . S
C426 O430 1.260 . S
C427 O434 1.240 . S
C427 O435 1.252 . S
C428 O431 1.252 . S
C428 O432 1.260 . S
O429 In423 2.266 . S
O429 C426 1.252 . S
O430 In423 2.326 . S
O430 C426 1.260 . S
O431 In423 2.266 . S
O431 C428 1.252 . S
O432 In423 2.326 . S
O432 C428 1.260 . S
C433 O424 1.240 . S
C433 O425 1.252 . S
O434 In423 2.294 . S
O434 C427 1.240 . S
O435 In423 2.326 . S
O435 C427 1.252 . S
In436 O437 2.294 . S
In436 O438 2.326 . S
In436 O442 2.266 . S
In436 O443 2.326 . S
In436 O444 2.266 . S
In436 O445 2.326 . S
In436 O447 2.294 . S
In436 O448 2.326 . S
O437 In436 2.294 . S
O437 C446 1.240 . S
O438 In436 2.326 . S
O438 C446 1.252 . S
C439 O442 1.252 . S
C439 O443 1.260 . S
C440 O447 1.240 . S
C440 O448 1.252 . S
C441 O444 1.252 . S
C441 O445 1.260 . S
O442 In436 2.266 . S
O442 C439 1.252 . S
O443 In436 2.326 . S
O443 C439 1.260 . S
O444 In436 2.266 . S
O444 C441 1.252 . S
O445 In436 2.326 . S
O445 C441 1.260 . S
C446 O437 1.240 . S
C446 O438 1.252 . S
O447 In436 2.294 . S
O447 C440 1.240 . S
O448 In436 2.326 . S
O448 C440 1.252 . S
In449 O450 2.294 . S
In449 O451 2.326 . S
In449 O455 2.266 . S
In449 O456 2.326 . S
In449 O457 2.266 . S
In449 O458 2.326 . S
In449 O460 2.294 . S
In449 O461 2.326 . S
O450 In449 2.294 . S
O450 C459 1.240 . S
O451 In449 2.326 . S
O451 C459 1.252 . S
C452 O455 1.252 . S
C452 O456 1.260 . S
C453 O460 1.240 . S
C453 O461 1.252 . S
C454 O457 1.252 . S
C454 O458 1.260 . S
O455 In449 2.266 . S
O455 C452 1.252 . S
O456 In449 2.326 . S
O456 C452 1.260 . S
O457 In449 2.266 . S
O457 C454 1.252 . S
O458 In449 2.326 . S
O458 C454 1.260 . S
C459 O450 1.240 . S
C459 O451 1.252 . S
O460 In449 2.294 . S
O460 C453 1.240 . S
O461 In449 2.326 . S
O461 C453 1.252 . S
In462 O463 2.294 . S
In462 O464 2.326 . S
In462 O468 2.266 1_554 S
In462 O469 2.326 1_554 S
In462 O470 2.266 1_554 S
In462 O471 2.326 1_554 S
In462 O473 2.294 . S
In462 O474 2.326 . S
O463 In462 2.294 . S
O463 C472 1.240 . S
O464 In462 2.326 . S
O464 C472 1.252 . S
C465 O468 1.252 . S
C465 O469 1.260 . S
C466 O473 1.240 . S
C466 O474 1.252 . S
C467 O470 1.252 . S
C467 O471 1.260 . S
O468 In462 2.266 1_556 S
O468 C465 1.252 . S
O469 In462 2.326 1_556 S
O469 C465 1.260 . S
O470 In462 2.266 1_556 S
O470 C467 1.252 . S
O471 In462 2.326 1_556 S
O471 C467 1.260 . S
C472 O463 1.240 . S
C472 O464 1.252 . S
O473 In462 2.294 . S
O473 C466 1.240 . S
O474 In462 2.326 . S
O474 C466 1.252 . S
In475 O476 2.294 . S
In475 O477 2.326 . S
In475 O481 2.266 . S
In475 O482 2.326 . S
In475 O483 2.266 . S
In475 O484 2.326 . S
In475 O486 2.294 . S
In475 O487 2.326 . S
O476 In475 2.294 . S
O476 C485 1.240 . S
O477 In475 2.326 . S
O477 C485 1.252 . S
C478 O481 1.252 . S
C478 O482 1.260 . S
C479 O486 1.240 . S
C479 O487 1.252 . S
C480 O483 1.252 . S
C480 O484 1.260 . S
O481 In475 2.266 . S
O481 C478 1.252 . S
O482 In475 2.326 . S
O482 C478 1.260 . S
O483 In475 2.266 . S
O483 C480 1.252 . S
O484 In475 2.326 . S
O484 C480 1.260 . S
C485 O476 1.240 . S
C485 O477 1.252 . S
O486 In475 2.294 . S
O486 C479 1.240 . S
O487 In475 2.326 . S
O487 C479 1.252 . S
H488 C500 0.930 . S
H489 C502 0.930 . S
H490 C503 0.930 . S
H491 C507 0.959 . S
H492 C507 0.959 . S
H493 C507 0.961 . S
H494 C508 0.960 . S
H495 C508 0.961 . S
H496 C508 0.959 . S
H497 C511 0.929 . S
H498 C512 0.931 . S
H499 C514 0.930 . S
C500 H488 0.930 . S
C500 C501 1.399 . S
C500 C505 1.399 . S
C501 C500 1.399 . S
C501 C502 1.376 . S
C502 H489 0.930 . S
C502 C501 1.376 . S
C502 C503 1.388 . S
C503 H490 0.930 . S
C503 C502 1.388 . S
C503 C504 1.390 . S
C504 C503 1.390 . S
C504 C505 1.394 . S
C504 C510 1.465 . S
C505 C500 1.399 . S
C505 C504 1.394 . S
C505 C506 1.516 . S
C506 C505 1.516 . S
C506 C507 1.502 . S
C506 C508 1.561 . S
C506 C509 1.526 . S
C507 H491 0.959 . S
C507 H492 0.959 . S
C507 H493 0.961 . S
C507 C506 1.502 . S
C508 H494 0.960 . S
C508 H495 0.961 . S
C508 H496 0.959 . S
C508 C506 1.561 . S
C509 C506 1.526 . S
C509 C510 1.396 . S
C509 C514 1.390 . S
C510 C504 1.465 . S
C510 C509 1.396 . S
C510 C511 1.399 . S
C511 H497 0.929 . S
C511 C510 1.399 . S
C511 C512 1.385 . S
C512 H498 0.931 . S
C512 C511 1.385 . S
C512 C513 1.389 . S
C513 C512 1.389 . S
C513 C514 1.387 . S
C514 H499 0.930 . S
C514 C509 1.390 . S
C514 C513 1.387 . S
H515 C527 0.930 . S
H516 C529 0.930 . S
H517 C530 0.930 . S
H518 C534 0.959 . S
H519 C534 0.959 . S
H520 C534 0.961 . S
H521 C535 0.960 . S
H522 C535 0.961 . S
H523 C535 0.959 . S
H524 C538 0.929 . S
H525 C539 0.931 . S
H526 C541 0.930 . S
C527 H515 0.930 . S
C527 C528 1.399 . S
C527 C532 1.399 . S
C528 C527 1.399 . S
C528 C529 1.376 . S
C529 H516 0.930 . S
C529 C528 1.376 . S
C529 C530 1.388 . S
C530 H517 0.930 . S
C530 C529 1.388 . S
C530 C531 1.390 . S
C531 C530 1.390 . S
C531 C532 1.394 . S
C531 C537 1.465 . S
C532 C527 1.399 . S
C532 C531 1.394 . S
C532 C533 1.516 . S
C533 C532 1.516 . S
C533 C534 1.502 . S
C533 C535 1.561 . S
C533 C536 1.526 . S
C534 H518 0.959 . S
C534 H519 0.959 . S
C534 H520 0.961 . S
C534 C533 1.502 . S
C535 H521 0.960 . S
C535 H522 0.961 . S
C535 H523 0.959 . S
C535 C533 1.561 . S
C536 C533 1.526 . S
C536 C537 1.396 . S
C536 C541 1.390 . S
C537 C531 1.465 . S
C537 C536 1.396 . S
C537 C538 1.399 . S
C538 H524 0.929 . S
C538 C537 1.399 . S
C538 C539 1.385 . S
C539 H525 0.931 . S
C539 C538 1.385 . S
C539 C540 1.389 . S
C540 C539 1.389 . S
C540 C541 1.387 . S
C541 H526 0.930 . S
C541 C536 1.390 . S
C541 C540 1.387 . S
H542 C554 0.930 . S
H543 C556 0.930 . S
H544 C557 0.930 . S
H545 C561 0.959 . S
H546 C561 0.959 . S
H547 C561 0.961 . S
H548 C562 0.960 . S
H549 C562 0.961 . S
H550 C562 0.959 . S
H551 C565 0.929 . S
H552 C566 0.931 . S
H553 C568 0.930 . S
C554 H542 0.930 . S
C554 C555 1.399 . S
C554 C559 1.399 . S
C555 C554 1.399 . S
C555 C556 1.376 . S
C556 H543 0.930 . S
C556 C555 1.376 . S
C556 C557 1.388 . S
C557 H544 0.930 . S
C557 C556 1.388 . S
C557 C558 1.390 . S
C558 C557 1.390 . S
C558 C559 1.394 . S
C558 C564 1.465 . S
C559 C554 1.399 . S
C559 C558 1.394 . S
C559 C560 1.516 . S
C560 C559 1.516 . S
C560 C561 1.502 . S
C560 C562 1.561 . S
C560 C563 1.526 . S
C561 H545 0.959 . S
C561 H546 0.959 . S
C561 H547 0.961 . S
C561 C560 1.502 . S
C562 H548 0.960 . S
C562 H549 0.961 . S
C562 H550 0.959 . S
C562 C560 1.561 . S
C563 C560 1.526 . S
C563 C564 1.396 . S
C563 C568 1.390 . S
C564 C558 1.465 . S
C564 C563 1.396 . S
C564 C565 1.399 . S
C565 H551 0.929 . S
C565 C564 1.399 . S
C565 C566 1.385 . S
C566 H552 0.931 . S
C566 C565 1.385 . S
C566 C567 1.389 . S
C567 C566 1.389 . S
C567 C568 1.387 . S
C568 H553 0.930 . S
C568 C563 1.390 . S
C568 C567 1.387 . S
H569 C581 0.930 . S
H570 C583 0.930 . S
H571 C584 0.930 . S
H572 C588 0.959 . S
H573 C588 0.959 1_556 S
H574 C588 0.961 . S
H575 C589 0.970 . S
H576 C589 0.991 . S
H577 C589 0.948 1_554 S
H578 C592 0.929 . S
H579 C593 0.931 . S
H580 C595 0.930 . S
C581 H569 0.930 . S
C581 C582 1.399 . S
C581 C586 1.399 . S
C582 C581 1.399 . S
C582 C583 1.376 . S
C583 H570 0.930 . S
C583 C582 1.376 . S
C583 C584 1.388 . S
C584 H571 0.930 . S
C584 C583 1.388 . S
C584 C585 1.390 . S
C585 C584 1.390 . S
C585 C586 1.394 . S
C585 C591 1.465 . S
C586 C581 1.399 . S
C586 C585 1.394 . S
C586 C587 1.516 . S
C587 C586 1.516 . S
C587 C588 1.502 . S
C587 C589 1.534 1_554 S
C587 C590 1.526 . S
C588 H572 0.959 . S
C588 H573 0.959 1_554 S
C588 H574 0.961 . S
C588 C587 1.502 . S
C589 H575 0.970 . S
C589 H576 0.991 . S
C589 H577 0.948 1_556 S
C589 C587 1.534 1_556 S
C590 C587 1.526 . S
C590 C591 1.396 . S
C590 C595 1.390 . S
C591 C585 1.465 . S
C591 C590 1.396 . S
C591 C592 1.399 . S
C592 H578 0.929 . S
C592 C591 1.399 . S
C592 C593 1.385 . S
C593 H579 0.931 . S
C593 C592 1.385 . S
C593 C594 1.389 . S
C594 C593 1.389 . S
C594 C595 1.387 . S
C595 H580 0.930 . S
C595 C590 1.390 . S
C595 C594 1.387 . S
H596 C608 0.930 . S
H597 C610 0.930 . S
H598 C611 0.977 . S
H599 C615 0.959 . S
H600 C615 0.959 . S
H601 C615 0.961 . S
H602 C616 0.960 . S
H603 C616 0.961 . S
H604 C616 0.959 . S
H605 C619 0.929 . S
H606 C620 0.931 . S
H607 C622 0.930 . S
C608 H596 0.930 . S
C608 C609 1.399 . S
C608 C613 1.399 . S
C609 C608 1.399 . S
C609 C610 1.376 . S
C610 H597 0.930 . S
C610 C609 1.376 . S
C610 C611 1.388 . S
C611 H598 0.977 . S
C611 C610 1.388 . S
C611 C612 1.390 . S
C612 C611 1.390 . S
C612 C613 1.394 . S
C612 C618 1.465 . S
C613 C608 1.399 . S
C613 C612 1.394 . S
C613 C614 1.516 . S
C614 C613 1.516 . S
C614 C615 1.502 . S
C614 C616 1.561 . S
C614 C617 1.526 . S
C615 H599 0.959 . S
C615 H600 0.959 . S
C615 H601 0.961 . S
C615 C614 1.502 . S
C616 H602 0.960 . S
C616 H603 0.961 . S
C616 H604 0.959 . S
C616 C614 1.561 . S
C617 C614 1.526 . S
C617 C618 1.396 . S
C617 C622 1.390 . S
C618 C612 1.465 . S
C618 C617 1.396 . S
C618 C619 1.399 1_556 S
C619 H605 0.929 . S
C619 C618 1.399 1_554 S
C619 C620 1.385 . S
C620 H606 0.931 . S
C620 C619 1.385 . S
C620 C621 1.389 1_554 S
C621 C620 1.389 1_556 S
C621 C622 1.387 . S
C622 H607 0.930 . S
C622 C617 1.390 . S
C622 C621 1.387 . S
H623 C635 0.930 . S
H624 C637 0.930 . S
H625 C638 0.930 . S
H626 C642 0.959 . S
H627 C642 0.959 . S
H628 C642 0.961 . S
H629 C643 0.960 . S
H630 C643 0.961 . S
H631 C643 0.959 . S
H632 C646 0.929 . S
H633 C647 0.931 . S
H634 C649 0.930 . S
C635 H623 0.930 . S
C635 C636 1.399 . S
C635 C640 1.399 . S
C636 C635 1.399 . S
C636 C637 1.376 . S
C637 H624 0.930 . S
C637 C636 1.376 . S
C637 C638 1.388 . S
C638 H625 0.930 . S
C638 C637 1.388 . S
C638 C639 1.390 . S
C639 C638 1.390 . S
C639 C640 1.394 . S
C639 C645 1.465 . S
C640 C635 1.399 . S
C640 C639 1.394 . S
C640 C641 1.516 . S
C641 C640 1.516 . S
C641 C642 1.502 . S
C641 C643 1.561 . S
C641 C644 1.526 . S
C642 H626 0.959 . S
C642 H627 0.959 . S
C642 H628 0.961 . S
C642 C641 1.502 . S
C643 H629 0.960 . S
C643 H630 0.961 . S
C643 H631 0.959 . S
C643 C641 1.561 . S
C644 C641 1.526 . S
C644 C645 1.396 . S
C644 C649 1.390 . S
C645 C639 1.465 . S
C645 C644 1.396 . S
C645 C646 1.399 . S
C646 H632 0.929 . S
C646 C645 1.399 . S
C646 C647 1.385 . S
C647 H633 0.931 . S
C647 C646 1.385 . S
C647 C648 1.389 . S
C648 C647 1.389 . S
C648 C649 1.387 . S
C649 H634 0.930 . S
C649 C644 1.390 . S
C649 C648 1.387 . S
H650 C662 0.930 . S
H651 C664 0.930 . S
H652 C665 0.930 . S
H653 C669 0.959 . S
H654 C669 0.959 . S
H655 C669 0.961 . S
H656 C670 0.960 . S
H657 C670 0.961 . S
H658 C670 0.959 . S
H659 C673 0.929 . S
H660 C674 0.931 . S
H661 C676 0.930 . S
C662 H650 0.930 . S
C662 C663 1.399 . S
C662 C667 1.399 . S
C663 C662 1.399 . S
C663 C664 1.376 . S
C664 H651 0.930 . S
C664 C663 1.376 . S
C664 C665 1.388 . S
C665 H652 0.930 . S
C665 C664 1.388 . S
C665 C666 1.390 . S
C666 C665 1.390 . S
C666 C667 1.394 . S
C666 C672 1.465 . S
C667 C662 1.399 . S
C667 C666 1.394 . S
C667 C668 1.516 . S
C668 C667 1.516 . S
C668 C669 1.502 . S
C668 C670 1.561 . S
C668 C671 1.526 . S
C669 H653 0.959 . S
C669 H654 0.959 . S
C669 H655 0.961 . S
C669 C668 1.502 . S
C670 H656 0.960 . S
C670 H657 0.961 . S
C670 H658 0.959 . S
C670 C668 1.561 . S
C671 C668 1.526 . S
C671 C672 1.396 . S
C671 C676 1.390 . S
C672 C666 1.465 . S
C672 C671 1.396 . S
C672 C673 1.399 . S
C673 H659 0.929 . S
C673 C672 1.399 . S
C673 C674 1.385 . S
C674 H660 0.931 . S
C674 C673 1.385 . S
C674 C675 1.389 . S
C675 C674 1.389 . S
C675 C676 1.387 . S
C676 H661 0.930 . S
C676 C671 1.390 . S
C676 C675 1.387 . S
H677 C689 0.930 . S
H678 C691 0.930 . S
H679 C692 0.930 . S
H680 C696 0.959 . S
H681 C696 0.959 . S
H682 C696 0.961 . S
H683 C697 0.960 . S
H684 C697 0.961 . S
H685 C697 0.959 . S
H686 C700 0.929 . S
H687 C701 0.931 . S
H688 C703 0.930 . S
C689 H677 0.930 . S
C689 C690 1.399 . S
C689 C694 1.399 . S
C690 C689 1.399 . S
C690 C691 1.376 . S
C691 H678 0.930 . S
C691 C690 1.376 . S
C691 C692 1.388 . S
C692 H679 0.930 . S
C692 C691 1.388 . S
C692 C693 1.390 . S
C693 C692 1.390 . S
C693 C694 1.394 . S
C693 C699 1.465 . S
C694 C689 1.399 . S
C694 C693 1.394 . S
C694 C695 1.516 . S
C695 C694 1.516 . S
C695 C696 1.502 . S
C695 C697 1.561 . S
C695 C698 1.526 . S
C696 H680 0.959 . S
C696 H681 0.959 . S
C696 H682 0.961 . S
C696 C695 1.502 . S
C697 H683 0.960 . S
C697 H684 0.961 . S
C697 H685 0.959 . S
C697 C695 1.561 . S
C698 C695 1.526 . S
C698 C699 1.396 . S
C698 C703 1.390 . S
C699 C693 1.465 . S
C699 C698 1.396 . S
C699 C700 1.399 . S
C700 H686 0.929 . S
C700 C699 1.399 . S
C700 C701 1.385 . S
C701 H687 0.931 . S
C701 C700 1.385 . S
C701 C702 1.389 . S
C702 C701 1.389 . S
C702 C703 1.387 . S
C703 H688 0.930 . S
C703 C698 1.390 . S
C703 C702 1.387 . S
H704 C716 0.930 . S
H705 C718 0.930 . S
H706 C719 0.930 . S
H707 C723 0.959 . S
H708 C723 0.959 . S
H709 C723 0.961 . S
H710 C724 0.960 . S
H711 C724 0.961 . S
H712 C724 0.959 . S
H713 C727 0.929 . S
H714 C728 0.931 . S
H715 C730 0.930 . S
C716 H704 0.930 . S
C716 C717 1.399 . S
C716 C721 1.399 . S
C717 C716 1.399 . S
C717 C718 1.376 . S
C718 H705 0.930 . S
C718 C717 1.376 . S
C718 C719 1.388 . S
C719 H706 0.930 . S
C719 C718 1.388 . S
C719 C720 1.390 . S
C720 C719 1.390 . S
C720 C721 1.394 . S
C720 C726 1.465 . S
C721 C716 1.399 . S
C721 C720 1.394 . S
C721 C722 1.516 . S
C722 C721 1.516 . S
C722 C723 1.502 . S
C722 C724 1.561 . S
C722 C725 1.526 . S
C723 H707 0.959 . S
C723 H708 0.959 . S
C723 H709 0.961 . S
C723 C722 1.502 . S
C724 H710 0.960 . S
C724 H711 0.961 . S
C724 H712 0.959 . S
C724 C722 1.561 . S
C725 C722 1.526 . S
C725 C726 1.396 . S
C725 C730 1.390 . S
C726 C720 1.465 . S
C726 C725 1.396 . S
C726 C727 1.399 . S
C727 H713 0.929 . S
C727 C726 1.399 . S
C727 C728 1.385 . S
C728 H714 0.931 . S
C728 C727 1.385 . S
C728 C729 1.389 . S
C729 C728 1.389 . S
C729 C730 1.387 . S
C730 H715 0.930 . S
C730 C725 1.390 . S
C730 C729 1.387 . S
H731 C743 0.930 . S
H732 C745 0.930 . S
H733 C746 0.930 . S
H734 C750 0.959 . S
H735 C750 0.959 . S
H736 C750 0.961 . S
H737 C751 0.960 . S
H738 C751 0.961 . S
H739 C751 0.959 . S
H740 C754 0.929 . S
H741 C755 0.931 . S
H742 C757 0.930 . S
C743 H731 0.930 . S
C743 C744 1.399 . S
C743 C748 1.399 . S
C744 C743 1.399 . S
C744 C745 1.376 . S
C745 H732 0.930 . S
C745 C744 1.376 . S
C745 C746 1.388 . S
C746 H733 0.930 . S
C746 C745 1.388 . S
C746 C747 1.390 . S
C747 C746 1.390 . S
C747 C748 1.394 . S
C747 C753 1.465 . S
C748 C743 1.399 . S
C748 C747 1.394 . S
C748 C749 1.516 . S
C749 C748 1.516 . S
C749 C750 1.502 . S
C749 C751 1.561 . S
C749 C752 1.526 . S
C750 H734 0.959 . S
C750 H735 0.959 . S
C750 H736 0.961 . S
C750 C749 1.502 . S
C751 H737 0.960 . S
C751 H738 0.961 . S
C751 H739 0.959 . S
C751 C749 1.561 . S
C752 C749 1.526 . S
C752 C753 1.396 . S
C752 C757 1.390 . S
C753 C747 1.465 . S
C753 C752 1.396 . S
C753 C754 1.399 . S
C754 H740 0.929 . S
C754 C753 1.399 . S
C754 C755 1.385 . S
C755 H741 0.931 . S
C755 C754 1.385 . S
C755 C756 1.389 . S
C756 C755 1.389 . S
C756 C757 1.387 . S
C757 H742 0.930 . S
C757 C752 1.390 . S
C757 C756 1.387 . S
H758 C770 0.930 . S
H759 C772 0.930 . S
H760 C773 0.930 . S
H761 C777 0.959 . S
H762 C777 0.959 . S
H763 C777 0.961 . S
H764 C778 0.960 . S
H765 C778 0.961 . S
H766 C778 0.959 . S
H767 C781 0.929 . S
H768 C782 0.931 . S
H769 C784 0.930 . S
C770 H758 0.930 . S
C770 C771 1.399 . S
C770 C775 1.399 . S
C771 C770 1.399 . S
C771 C772 1.376 . S
C772 H759 0.930 . S
C772 C771 1.376 . S
C772 C773 1.388 . S
C773 H760 0.930 . S
C773 C772 1.388 . S
C773 C774 1.390 . S
C774 C773 1.390 . S
C774 C775 1.394 . S
C774 C780 1.465 . S
C775 C770 1.399 . S
C775 C774 1.394 . S
C775 C776 1.516 . S
C776 C775 1.516 . S
C776 C777 1.502 . S
C776 C778 1.561 . S
C776 C779 1.526 . S
C777 H761 0.959 . S
C777 H762 0.959 . S
C777 H763 0.961 . S
C777 C776 1.502 . S
C778 H764 0.960 . S
C778 H765 0.961 . S
C778 H766 0.959 . S
C778 C776 1.561 . S
C779 C776 1.526 . S
C779 C780 1.396 . S
C779 C784 1.390 . S
C780 C774 1.465 . S
C780 C779 1.396 . S
C780 C781 1.399 . S
C781 H767 0.929 . S
C781 C780 1.399 . S
C781 C782 1.385 . S
C782 H768 0.931 . S
C782 C781 1.385 . S
C782 C783 1.389 . S
C783 C782 1.389 . S
C783 C784 1.387 . S
C784 H769 0.930 . S
C784 C779 1.390 . S
C784 C783 1.387 . S
H785 C797 0.930 . S
H786 C799 0.930 . S
H787 C800 0.930 . S
H788 C804 0.959 . S
H789 C804 0.959 . S
H790 C804 0.961 . S
H791 C805 0.960 . S
H792 C805 0.961 . S
H793 C805 0.959 . S
H794 C808 0.929 . S
H795 C809 0.931 . S
H796 C811 0.930 . S
C797 H785 0.930 . S
C797 C798 1.399 . S
C797 C802 1.399 . S
C798 C797 1.399 . S
C798 C799 1.376 . S
C799 H786 0.930 . S
C799 C798 1.376 . S
C799 C800 1.388 . S
C800 H787 0.930 . S
C800 C799 1.388 . S
C800 C801 1.390 . S
C801 C800 1.390 . S
C801 C802 1.394 . S
C801 C807 1.465 . S
C802 C797 1.399 . S
C802 C801 1.394 . S
C802 C803 1.516 . S
C803 C802 1.516 . S
C803 C804 1.502 . S
C803 C805 1.561 . S
C803 C806 1.526 . S
C804 H788 0.959 . S
C804 H789 0.959 . S
C804 H790 0.961 . S
C804 C803 1.502 . S
C805 H791 0.960 . S
C805 H792 0.961 . S
C805 H793 0.959 . S
C805 C803 1.561 . S
C806 C803 1.526 . S
C806 C807 1.396 . S
C806 C811 1.390 . S
C807 C801 1.465 . S
C807 C806 1.396 . S
C807 C808 1.399 . S
C808 H794 0.929 . S
C808 C807 1.399 . S
C808 C809 1.385 . S
C809 H795 0.931 . S
C809 C808 1.385 . S
C809 C810 1.389 . S
C810 C809 1.389 . S
C810 C811 1.387 . S
C811 H796 0.930 . S
C811 C806 1.390 . S
C811 C810 1.387 . S
H812 C824 0.930 . S
H813 C826 0.930 . S
H814 C827 0.930 . S
H815 C831 0.959 . S
H816 C831 0.959 . S
H817 C831 0.961 . S
H818 C832 0.960 . S
H819 C832 0.961 . S
H820 C832 0.959 . S
H821 C835 0.929 . S
H822 C836 0.931 . S
H823 C838 0.930 . S
C824 H812 0.930 . S
C824 C825 1.399 . S
C824 C829 1.399 . S
C825 C824 1.399 . S
C825 C826 1.376 . S
C826 H813 0.930 . S
C826 C825 1.376 . S
C826 C827 1.388 . S
C827 H814 0.930 . S
C827 C826 1.388 . S
C827 C828 1.390 . S
C828 C827 1.390 . S
C828 C829 1.394 . S
C828 C834 1.465 . S
C829 C824 1.399 . S
C829 C828 1.394 . S
C829 C830 1.516 . S
C830 C829 1.516 . S
C830 C831 1.502 . S
C830 C832 1.561 . S
C830 C833 1.526 . S
C831 H815 0.959 . S
C831 H816 0.959 . S
C831 H817 0.961 . S
C831 C830 1.502 . S
C832 H818 0.960 . S
C832 H819 0.961 . S
C832 H820 0.959 . S
C832 C830 1.561 . S
C833 C830 1.526 . S
C833 C834 1.396 . S
C833 C838 1.390 . S
C834 C828 1.465 . S
C834 C833 1.396 . S
C834 C835 1.399 . S
C835 H821 0.929 . S
C835 C834 1.399 . S
C835 C836 1.385 . S
C836 H822 0.931 . S
C836 C835 1.385 . S
C836 C837 1.389 . S
C837 C836 1.389 . S
C837 C838 1.387 . S
C838 H823 0.930 . S
C838 C833 1.390 . S
C838 C837 1.387 . S
H839 C851 0.930 . S
H840 C853 0.930 . S
H841 C854 0.930 . S
H842 C858 0.959 . S
H843 C858 0.959 . S
H844 C858 0.961 . S
H845 C859 0.960 . S
H846 C859 0.961 . S
H847 C859 0.959 . S
H848 C862 0.929 . S
H849 C863 0.931 . S
H850 C865 0.930 . S
C851 H839 0.930 . S
C851 C852 1.399 . S
C851 C856 1.399 . S
C852 C851 1.399 . S
C852 C853 1.376 . S
C853 H840 0.930 . S
C853 C852 1.376 . S
C853 C854 1.388 . S
C854 H841 0.930 . S
C854 C853 1.388 . S
C854 C855 1.390 . S
C855 C854 1.390 . S
C855 C856 1.394 . S
C855 C861 1.465 . S
C856 C851 1.399 . S
C856 C855 1.394 . S
C856 C857 1.516 . S
C857 C856 1.516 . S
C857 C858 1.502 . S
C857 C859 1.561 . S
C857 C860 1.526 . S
C858 H842 0.959 . S
C858 H843 0.959 . S
C858 H844 0.961 . S
C858 C857 1.502 . S
C859 H845 0.960 . S
C859 H846 0.961 . S
C859 H847 0.959 . S
C859 C857 1.561 . S
C860 C857 1.526 . S
C860 C861 1.396 . S
C860 C865 1.390 . S
C861 C855 1.465 . S
C861 C860 1.396 . S
C861 C862 1.399 . S
C862 H848 0.929 . S
C862 C861 1.399 . S
C862 C863 1.385 . S
C863 H849 0.931 . S
C863 C862 1.385 . S
C863 C864 1.389 . S
C864 C863 1.389 . S
C864 C865 1.387 . S
C865 H850 0.930 . S
C865 C860 1.390 . S
C865 C864 1.387 . S
H866 C878 0.930 . S
H867 C880 0.930 . S
H868 C881 0.930 . S
H869 C885 0.959 . S
H870 C885 0.959 . S
H871 C885 0.961 . S
H872 C886 0.960 . S
H873 C886 0.961 . S
H874 C886 0.959 . S
H875 C889 0.929 1_554 S
H876 C890 0.913 1_554 S
H877 C892 0.930 . S
C878 H866 0.930 . S
C878 C879 1.399 . S
C878 C883 1.399 . S
C879 C878 1.399 . S
C879 C880 1.376 . S
C880 H867 0.930 . S
C880 C879 1.376 . S
C880 C881 1.388 . S
C881 H868 0.930 . S
C881 C880 1.388 . S
C881 C882 1.390 . S
C882 C881 1.390 . S
C882 C883 1.394 . S
C882 C888 1.465 . S
C883 C878 1.399 . S
C883 C882 1.394 . S
C883 C884 1.516 . S
C884 C883 1.516 . S
C884 C885 1.502 . S
C884 C886 1.561 . S
C884 C887 1.526 . S
C885 H869 0.959 . S
C885 H870 0.959 . S
C885 H871 0.961 . S
C885 C884 1.502 . S
C886 H872 0.960 . S
C886 H873 0.961 . S
C886 H874 0.959 . S
C886 C884 1.561 . S
C887 C884 1.526 . S
C887 C888 1.396 . S
C887 C892 1.390 . S
C888 C882 1.465 . S
C888 C887 1.396 . S
C888 C889 1.399 . S
C889 H875 0.929 1_556 S
C889 C888 1.399 . S
C889 C890 1.390 . S
C890 H876 0.913 1_556 S
C890 C889 1.390 . S
C890 C891 1.402 . S
C891 C890 1.402 . S
C891 C892 1.387 . S
C892 H877 0.930 . S
C892 C887 1.390 . S
C892 C891 1.387 . S
H893 C905 0.930 . S
H894 C907 0.930 . S
H895 C908 0.930 . S
H896 C912 0.959 . S
H897 C912 0.959 . S
H898 C912 0.961 . S
H899 C913 0.960 . S
H900 C913 0.961 . S
H901 C913 0.959 . S
H902 C916 0.929 . S
H903 C917 0.931 . S
H904 C919 0.930 . S
C905 H893 0.930 . S
C905 C906 1.399 . S
C905 C910 1.399 . S
C906 C905 1.399 . S
C906 C907 1.376 . S
C907 H894 0.930 . S
C907 C906 1.376 . S
C907 C908 1.388 . S
C908 H895 0.930 . S
C908 C907 1.388 . S
C908 C909 1.390 . S
C909 C908 1.390 . S
C909 C910 1.394 . S
C909 C915 1.465 . S
C910 C905 1.399 . S
C910 C909 1.394 . S
C910 C911 1.516 . S
C911 C910 1.516 . S
C911 C912 1.502 . S
C911 C913 1.561 . S
C911 C914 1.526 . S
C912 H896 0.959 . S
C912 H897 0.959 . S
C912 H898 0.961 . S
C912 C911 1.502 . S
C913 H899 0.960 . S
C913 H900 0.961 . S
C913 H901 0.959 . S
C913 C911 1.561 . S
C914 C911 1.526 . S
C914 C915 1.396 . S
C914 C919 1.390 . S
C915 C909 1.465 . S
C915 C914 1.396 . S
C915 C916 1.399 . S
C916 H902 0.929 . S
C916 C915 1.399 . S
C916 C917 1.385 . S
C917 H903 0.931 . S
C917 C916 1.385 . S
C917 C918 1.389 . S
C918 C917 1.389 . S
C918 C919 1.387 . S
C919 H904 0.930 . S
C919 C914 1.390 . S
C919 C918 1.387 . S
H920 C932 0.930 . S
H921 C934 0.930 . S
H922 C935 0.930 . S
H923 C939 0.959 . S
H924 C939 0.959 . S
H925 C939 0.961 . S
H926 C940 0.960 . S
H927 C940 0.961 . S
H928 C940 0.959 . S
H929 C943 0.929 . S
H930 C944 0.931 . S
H931 C946 0.930 . S
C932 H920 0.930 . S
C932 C933 1.399 . S
C932 C937 1.399 . S
C933 C932 1.399 . S
C933 C934 1.376 . S
C934 H921 0.930 . S
C934 C933 1.376 . S
C934 C935 1.388 . S
C935 H922 0.930 . S
C935 C934 1.388 . S
C935 C936 1.390 . S
C936 C935 1.390 . S
C936 C937 1.394 . S
C936 C942 1.465 . S
C937 C932 1.399 . S
C937 C936 1.394 . S
C937 C938 1.516 . S
C938 C937 1.516 . S
C938 C939 1.502 . S
C938 C940 1.561 . S
C938 C941 1.526 . S
C939 H923 0.959 . S
C939 H924 0.959 . S
C939 H925 0.961 . S
C939 C938 1.502 . S
C940 H926 0.960 . S
C940 H927 0.961 . S
C940 H928 0.959 . S
C940 C938 1.561 . S
C941 C938 1.526 . S
C941 C942 1.396 . S
C941 C946 1.390 . S
C942 C936 1.465 . S
C942 C941 1.396 . S
C942 C943 1.399 . S
C943 H929 0.929 . S
C943 C942 1.399 . S
C943 C944 1.385 . S
C944 H930 0.931 . S
C944 C943 1.385 . S
C944 C945 1.389 . S
C945 C944 1.389 . S
C945 C946 1.387 . S
C946 H931 0.930 . S
C946 C941 1.390 . S
C946 C945 1.387 . S
H947 C959 0.930 . S
H948 C961 0.930 . S
H949 C962 0.930 . S
H950 C966 0.959 . S
H951 C966 0.959 . S
H952 C966 0.961 . S
H953 C967 0.960 . S
H954 C967 0.961 . S
H955 C967 0.959 . S
H956 C970 0.929 . S
H957 C971 0.931 . S
H958 C973 0.930 . S
C959 H947 0.930 . S
C959 C960 1.399 . S
C959 C964 1.399 . S
C960 C959 1.399 . S
C960 C961 1.376 . S
C961 H948 0.930 . S
C961 C960 1.376 . S
C961 C962 1.388 . S
C962 H949 0.930 . S
C962 C961 1.388 . S
C962 C963 1.390 . S
C963 C962 1.390 . S
C963 C964 1.394 . S
C963 C969 1.465 . S
C964 C959 1.399 . S
C964 C963 1.394 . S
C964 C965 1.516 . S
C965 C964 1.516 . S
C965 C966 1.502 . S
C965 C967 1.561 . S
C965 C968 1.526 . S
C966 H950 0.959 . S
C966 H951 0.959 . S
C966 H952 0.961 . S
C966 C965 1.502 . S
C967 H953 0.960 . S
C967 H954 0.961 . S
C967 H955 0.959 . S
C967 C965 1.561 . S
C968 C965 1.526 . S
C968 C969 1.396 . S
C968 C973 1.390 . S
C969 C963 1.465 . S
C969 C968 1.396 . S
C969 C970 1.399 . S
C970 H956 0.929 . S
C970 C969 1.399 . S
C970 C971 1.385 . S
C971 H957 0.931 . S
C971 C970 1.385 . S
C971 C972 1.389 . S
C972 C971 1.389 . S
C972 C973 1.387 . S
C973 H958 0.930 . S
C973 C968 1.390 . S
C973 C972 1.387 . S
H974 C986 0.930 . S
H975 C988 0.930 . S
H976 C989 0.930 . S
H977 C993 0.959 . S
H978 C993 0.959 . S
H979 C993 0.961 . S
H980 C994 0.960 . S
H981 C994 0.961 . S
H982 C994 0.959 . S
H983 C997 0.929 . S
H984 C998 0.931 . S
H985 C1000 0.930 . S
C986 H974 0.930 . S
C986 C987 1.399 . S
C986 C991 1.399 . S
C987 C986 1.399 . S
C987 C988 1.376 . S
C988 H975 0.930 . S
C988 C987 1.376 . S
C988 C989 1.388 . S
C989 H976 0.930 . S
C989 C988 1.388 . S
C989 C990 1.390 . S
C990 C989 1.390 . S
C990 C991 1.394 . S
C990 C996 1.465 . S
C991 C986 1.399 . S
C991 C990 1.394 . S
C991 C992 1.516 . S
C992 C991 1.516 . S
C992 C993 1.502 . S
C992 C994 1.561 . S
C992 C995 1.526 . S
C993 H977 0.959 . S
C993 H978 0.959 . S
C993 H979 0.961 . S
C993 C992 1.502 . S
C994 H980 0.960 . S
C994 H981 0.961 . S
C994 H982 0.959 . S
C994 C992 1.561 . S
C995 C992 1.526 . S
C995 C996 1.396 . S
C995 C1000 1.390 . S
C996 C990 1.465 . S
C996 C995 1.396 . S
C996 C997 1.399 . S
C997 H983 0.929 . S
C997 C996 1.399 . S
C997 C998 1.385 . S
C998 H984 0.931 . S
C998 C997 1.385 . S
C998 C999 1.389 . S
C999 C998 1.389 . S
C999 C1000 1.387 . S
C1000 H985 0.930 . S
C1000 C995 1.390 . S
C1000 C999 1.387 . S
H1001 C1013 0.930 . S
H1002 C1015 0.930 . S
H1003 C1016 0.930 . S
H1004 C1020 0.959 . S
H1005 C1020 0.959 . S
H1006 C1020 0.961 . S
H1007 C1021 0.960 . S
H1008 C1021 0.961 . S
H1009 C1021 0.959 . S
H1010 C1024 0.929 . S
H1011 C1025 0.931 . S
H1012 C1027 0.930 . S
C1013 H1001 0.930 . S
C1013 C1014 1.399 . S
C1013 C1018 1.399 . S
C1014 C1013 1.399 . S
C1014 C1015 1.376 . S
C1015 H1002 0.930 . S
C1015 C1014 1.376 . S
C1015 C1016 1.388 . S
C1016 H1003 0.930 . S
C1016 C1015 1.388 . S
C1016 C1017 1.390 . S
C1017 C1016 1.390 . S
C1017 C1018 1.394 . S
C1017 C1023 1.465 . S
C1018 C1013 1.399 . S
C1018 C1017 1.394 . S
C1018 C1019 1.516 . S
C1019 C1018 1.516 . S
C1019 C1020 1.502 . S
C1019 C1021 1.561 . S
C1019 C1022 1.526 . S
C1020 H1004 0.959 . S
C1020 H1005 0.959 . S
C1020 H1006 0.961 . S
C1020 C1019 1.502 . S
C1021 H1007 0.960 . S
C1021 H1008 0.961 . S
C1021 H1009 0.959 . S
C1021 C1019 1.561 . S
C1022 C1019 1.526 . S
C1022 C1023 1.396 . S
C1022 C1027 1.390 . S
C1023 C1017 1.465 . S
C1023 C1022 1.396 . S
C1023 C1024 1.399 . S
C1024 H1010 0.929 . S
C1024 C1023 1.399 . S
C1024 C1025 1.385 . S
C1025 H1011 0.931 . S
C1025 C1024 1.385 . S
C1025 C1026 1.389 . S
C1026 C1025 1.389 . S
C1026 C1027 1.387 . S
C1027 H1012 0.930 . S
C1027 C1022 1.390 . S
C1027 C1026 1.387 . S
H1028 C1040 0.930 . S
H1029 C1042 0.930 . S
H1030 C1043 0.930 . S
H1031 C1047 0.959 . S
H1032 C1047 0.959 . S
H1033 C1047 0.961 . S
H1034 C1048 0.960 . S
H1035 C1048 0.961 . S
H1036 C1048 0.959 . S
H1037 C1051 0.929 . S
H1038 C1052 0.931 . S
H1039 C1054 0.930 . S
C1040 H1028 0.930 . S
C1040 C1041 1.399 . S
C1040 C1045 1.399 . S
C1041 C1040 1.399 . S
C1041 C1042 1.376 . S
C1042 H1029 0.930 . S
C1042 C1041 1.376 . S
C1042 C1043 1.388 . S
C1043 H1030 0.930 . S
C1043 C1042 1.388 . S
C1043 C1044 1.390 . S
C1044 C1043 1.390 . S
C1044 C1045 1.394 . S
C1044 C1050 1.465 . S
C1045 C1040 1.399 . S
C1045 C1044 1.394 . S
C1045 C1046 1.516 . S
C1046 C1045 1.516 . S
C1046 C1047 1.502 . S
C1046 C1048 1.561 . S
C1046 C1049 1.526 . S
C1047 H1031 0.959 . S
C1047 H1032 0.959 . S
C1047 H1033 0.961 . S
C1047 C1046 1.502 . S
C1048 H1034 0.960 . S
C1048 H1035 0.961 . S
C1048 H1036 0.959 . S
C1048 C1046 1.561 . S
C1049 C1046 1.526 . S
C1049 C1050 1.396 . S
C1049 C1054 1.390 . S
C1050 C1044 1.465 . S
C1050 C1049 1.396 . S
C1050 C1051 1.399 . S
C1051 H1037 0.929 . S
C1051 C1050 1.399 . S
C1051 C1052 1.385 . S
C1052 H1038 0.931 . S
C1052 C1051 1.385 . S
C1052 C1053 1.389 . S
C1053 C1052 1.389 . S
C1053 C1054 1.387 . S
C1054 H1039 0.930 . S
C1054 C1049 1.390 . S
C1054 C1053 1.387 . S
H1055 C1067 0.930 . S
H1056 C1069 0.930 . S
H1057 C1070 0.930 . S
H1058 C1074 0.959 . S
H1059 C1074 0.959 . S
H1060 C1074 0.961 . S
H1061 C1075 0.960 . S
H1062 C1075 0.961 . S
H1063 C1075 0.959 . S
H1064 C1078 0.929 . S
H1065 C1079 0.931 . S
H1066 C1081 0.930 . S
C1067 H1055 0.930 . S
C1067 C1068 1.399 . S
C1067 C1072 1.399 . S
C1068 C1067 1.399 . S
C1068 C1069 1.376 . S
C1069 H1056 0.930 . S
C1069 C1068 1.376 . S
C1069 C1070 1.388 . S
C1070 H1057 0.930 . S
C1070 C1069 1.388 . S
C1070 C1071 1.390 . S
C1071 C1070 1.390 . S
C1071 C1072 1.394 . S
C1071 C1077 1.465 . S
C1072 C1067 1.399 . S
C1072 C1071 1.394 . S
C1072 C1073 1.516 . S
C1073 C1072 1.516 . S
C1073 C1074 1.502 . S
C1073 C1075 1.561 . S
C1073 C1076 1.526 . S
C1074 H1058 0.959 . S
C1074 H1059 0.959 . S
C1074 H1060 0.961 . S
C1074 C1073 1.502 . S
C1075 H1061 0.960 . S
C1075 H1062 0.961 . S
C1075 H1063 0.959 . S
C1075 C1073 1.561 . S
C1076 C1073 1.526 . S
C1076 C1077 1.396 . S
C1076 C1081 1.390 . S
C1077 C1071 1.465 . S
C1077 C1076 1.396 . S
C1077 C1078 1.399 . S
C1078 H1064 0.929 . S
C1078 C1077 1.399 . S
C1078 C1079 1.385 . S
C1079 H1065 0.931 . S
C1079 C1078 1.385 . S
C1079 C1080 1.389 . S
C1080 C1079 1.389 . S
C1080 C1081 1.387 . S
C1081 H1066 0.930 . S
C1081 C1076 1.390 . S
C1081 C1080 1.387 . S
H1082 C1094 0.930 . S
H1083 C1096 0.930 . S
H1084 C1097 0.930 . S
H1085 C1101 0.959 . S
H1086 C1101 0.959 . S
H1087 C1101 0.961 . S
H1088 C1102 0.960 . S
H1089 C1102 0.961 . S
H1090 C1102 0.959 . S
H1091 C1105 0.929 . S
H1092 C1106 0.931 . S
H1093 C1108 0.930 . S
C1094 H1082 0.930 . S
C1094 C1095 1.399 . S
C1094 C1099 1.399 . S
C1095 C1094 1.399 . S
C1095 C1096 1.376 . S
C1096 H1083 0.930 . S
C1096 C1095 1.376 . S
C1096 C1097 1.388 . S
C1097 H1084 0.930 . S
C1097 C1096 1.388 . S
C1097 C1098 1.390 . S
C1098 C1097 1.390 . S
C1098 C1099 1.394 . S
C1098 C1104 1.465 . S
C1099 C1094 1.399 . S
C1099 C1098 1.394 . S
C1099 C1100 1.516 . S
C1100 C1099 1.516 . S
C1100 C1101 1.502 . S
C1100 C1102 1.561 . S
C1100 C1103 1.526 . S
C1101 H1085 0.959 . S
C1101 H1086 0.959 . S
C1101 H1087 0.961 . S
C1101 C1100 1.502 . S
C1102 H1088 0.960 . S
C1102 H1089 0.961 . S
C1102 H1090 0.959 . S
C1102 C1100 1.561 . S
C1103 C1100 1.526 . S
C1103 C1104 1.396 . S
C1103 C1108 1.390 . S
C1104 C1098 1.465 . S
C1104 C1103 1.396 . S
C1104 C1105 1.399 . S
C1105 H1091 0.929 . S
C1105 C1104 1.399 . S
C1105 C1106 1.385 . S
C1106 H1092 0.931 . S
C1106 C1105 1.385 . S
C1106 C1107 1.389 . S
C1107 C1106 1.389 . S
C1107 C1108 1.387 . S
C1108 H1093 0.930 . S
C1108 C1103 1.390 . S
C1108 C1107 1.387 . S
H1109 C1121 0.930 . S
H1110 C1123 0.930 . S
H1111 C1124 0.930 . S
H1112 C1128 0.959 . S
H1113 C1128 0.959 . S
H1114 C1128 0.961 . S
H1115 C1129 0.960 . S
H1116 C1129 0.961 . S
H1117 C1129 0.959 . S
H1118 C1132 0.929 . S
H1119 C1133 0.931 . S
H1120 C1135 0.930 . S
C1121 H1109 0.930 . S
C1121 C1122 1.399 . S
C1121 C1126 1.399 . S
C1122 C1121 1.399 . S
C1122 C1123 1.376 . S
C1123 H1110 0.930 . S
C1123 C1122 1.376 . S
C1123 C1124 1.388 . S
C1124 H1111 0.930 . S
C1124 C1123 1.388 . S
C1124 C1125 1.390 . S
C1125 C1124 1.390 . S
C1125 C1126 1.394 . S
C1125 C1131 1.465 . S
C1126 C1121 1.399 . S
C1126 C1125 1.394 . S
C1126 C1127 1.516 . S
C1127 C1126 1.516 . S
C1127 C1128 1.502 . S
C1127 C1129 1.561 . S
C1127 C1130 1.526 . S
C1128 H1112 0.959 . S
C1128 H1113 0.959 . S
C1128 H1114 0.961 . S
C1128 C1127 1.502 . S
C1129 H1115 0.960 . S
C1129 H1116 0.961 . S
C1129 H1117 0.959 . S
C1129 C1127 1.561 . S
C1130 C1127 1.526 . S
C1130 C1131 1.396 . S
C1130 C1135 1.390 . S
C1131 C1125 1.465 . S
C1131 C1130 1.396 . S
C1131 C1132 1.399 . S
C1132 H1118 0.929 . S
C1132 C1131 1.399 . S
C1132 C1133 1.385 . S
C1133 H1119 0.931 . S
C1133 C1132 1.385 . S
C1133 C1134 1.389 . S
C1134 C1133 1.389 . S
C1134 C1135 1.387 . S
C1135 H1120 0.930 . S
C1135 C1130 1.390 . S
C1135 C1134 1.387 . S
H1136 C1148 0.930 . S
H1137 C1150 0.930 . S
H1138 C1151 0.930 . S
H1139 C1155 0.959 . S
H1140 C1155 0.959 . S
H1141 C1155 0.961 . S
H1142 C1156 0.960 . S
H1143 C1156 0.961 . S
H1144 C1156 0.959 . S
H1145 C1159 0.929 . S
H1146 C1160 0.931 . S
H1147 C1162 0.930 . S
C1148 H1136 0.930 . S
C1148 C1149 1.399 . S
C1148 C1153 1.399 . S
C1149 C1148 1.399 . S
C1149 C1150 1.376 . S
C1150 H1137 0.930 . S
C1150 C1149 1.376 . S
C1150 C1151 1.388 . S
C1151 H1138 0.930 . S
C1151 C1150 1.388 . S
C1151 C1152 1.390 . S
C1152 C1151 1.390 . S
C1152 C1153 1.394 . S
C1152 C1158 1.465 . S
C1153 C1148 1.399 . S
C1153 C1152 1.394 . S
C1153 C1154 1.516 . S
C1154 C1153 1.516 . S
C1154 C1155 1.502 . S
C1154 C1156 1.561 . S
C1154 C1157 1.526 . S
C1155 H1139 0.959 . S
C1155 H1140 0.959 . S
C1155 H1141 0.961 . S
C1155 C1154 1.502 . S
C1156 H1142 0.960 . S
C1156 H1143 0.961 . S
C1156 H1144 0.959 . S
C1156 C1154 1.561 . S
C1157 C1154 1.526 . S
C1157 C1158 1.396 . S
C1157 C1162 1.390 . S
C1158 C1152 1.465 . S
C1158 C1157 1.396 . S
C1158 C1159 1.399 . S
C1159 H1145 0.929 . S
C1159 C1158 1.399 . S
C1159 C1160 1.385 . S
C1160 H1146 0.931 . S
C1160 C1159 1.385 . S
C1160 C1161 1.389 . S
C1161 C1160 1.389 . S
C1161 C1162 1.387 . S
C1162 H1147 0.930 . S
C1162 C1157 1.390 . S
C1162 C1161 1.387 . S
H1163 C1175 0.930 . S
H1164 C1177 0.930 . S
H1165 C1178 0.930 . S
H1166 C1182 0.959 . S
H1167 C1182 0.959 . S
H1168 C1182 0.961 . S
H1169 C1183 0.960 . S
H1170 C1183 0.961 . S
H1171 C1183 0.959 . S
H1172 C1186 0.929 . S
H1173 C1187 0.931 . S
H1174 C1189 0.930 . S
C1175 H1163 0.930 . S
C1175 C1176 1.399 . S
C1175 C1180 1.399 . S
C1176 C1175 1.399 . S
C1176 C1177 1.376 . S
C1177 H1164 0.930 . S
C1177 C1176 1.376 . S
C1177 C1178 1.388 . S
C1178 H1165 0.930 . S
C1178 C1177 1.388 . S
C1178 C1179 1.390 . S
C1179 C1178 1.390 . S
C1179 C1180 1.394 . S
C1179 C1185 1.465 . S
C1180 C1175 1.399 . S
C1180 C1179 1.394 . S
C1180 C1181 1.516 . S
C1181 C1180 1.516 . S
C1181 C1182 1.502 . S
C1181 C1183 1.561 . S
C1181 C1184 1.526 . S
C1182 H1166 0.959 . S
C1182 H1167 0.959 . S
C1182 H1168 0.961 . S
C1182 C1181 1.502 . S
C1183 H1169 0.960 . S
C1183 H1170 0.961 . S
C1183 H1171 0.959 . S
C1183 C1181 1.561 . S
C1184 C1181 1.526 . S
C1184 C1185 1.396 . S
C1184 C1189 1.390 . S
C1185 C1179 1.465 . S
C1185 C1184 1.396 . S
C1185 C1186 1.399 . S
C1186 H1172 0.929 . S
C1186 C1185 1.399 . S
C1186 C1187 1.385 . S
C1187 H1173 0.931 . S
C1187 C1186 1.385 . S
C1187 C1188 1.389 . S
C1188 C1187 1.389 . S
C1188 C1189 1.387 . S
C1189 H1174 0.930 . S
C1189 C1184 1.390 . S
C1189 C1188 1.387 . S
H1190 C1202 0.930 . S
H1191 C1204 0.930 . S
H1192 C1205 0.930 . S
H1193 C1209 0.959 . S
H1194 C1209 0.959 . S
H1195 C1209 0.961 . S
H1196 C1210 0.960 . S
H1197 C1210 0.961 . S
H1198 C1210 0.959 . S
H1199 C1213 0.929 . S
H1200 C1214 0.931 . S
H1201 C1216 0.930 . S
C1202 H1190 0.930 . S
C1202 C1203 1.399 . S
C1202 C1207 1.399 . S
C1203 C1202 1.399 . S
C1203 C1204 1.376 . S
C1204 H1191 0.930 . S
C1204 C1203 1.376 . S
C1204 C1205 1.388 . S
C1205 H1192 0.930 . S
C1205 C1204 1.388 . S
C1205 C1206 1.390 . S
C1206 C1205 1.390 . S
C1206 C1207 1.394 . S
C1206 C1212 1.465 . S
C1207 C1202 1.399 . S
C1207 C1206 1.394 . S
C1207 C1208 1.516 . S
C1208 C1207 1.516 . S
C1208 C1209 1.502 . S
C1208 C1210 1.561 . S
C1208 C1211 1.526 . S
C1209 H1193 0.959 . S
C1209 H1194 0.959 . S
C1209 H1195 0.961 . S
C1209 C1208 1.502 . S
C1210 H1196 0.960 . S
C1210 H1197 0.961 . S
C1210 H1198 0.959 . S
C1210 C1208 1.561 . S
C1211 C1208 1.526 . S
C1211 C1212 1.396 . S
C1211 C1216 1.390 . S
C1212 C1206 1.465 . S
C1212 C1211 1.396 . S
C1212 C1213 1.399 . S
C1213 H1199 0.929 . S
C1213 C1212 1.399 . S
C1213 C1214 1.385 . S
C1214 H1200 0.931 . S
C1214 C1213 1.385 . S
C1214 C1215 1.389 . S
C1215 C1214 1.389 . S
C1215 C1216 1.387 . S
C1216 H1201 0.930 . S
C1216 C1211 1.390 . S
C1216 C1215 1.387 . S
H1217 C1229 0.930 . S
H1218 C1231 0.930 . S
H1219 C1232 0.930 . S
H1220 C1236 0.959 . S
H1221 C1236 0.959 . S
H1222 C1236 0.961 . S
H1223 C1237 0.960 . S
H1224 C1237 0.961 . S
H1225 C1237 0.959 . S
H1226 C1240 0.929 . S
H1227 C1241 0.931 . S
H1228 C1243 0.930 . S
C1229 H1217 0.930 . S
C1229 C1230 1.399 . S
C1229 C1234 1.399 . S
C1230 C1229 1.399 . S
C1230 C1231 1.376 . S
C1231 H1218 0.930 . S
C1231 C1230 1.376 . S
C1231 C1232 1.388 . S
C1232 H1219 0.930 . S
C1232 C1231 1.388 . S
C1232 C1233 1.390 . S
C1233 C1232 1.390 . S
C1233 C1234 1.394 . S
C1233 C1239 1.465 . S
C1234 C1229 1.399 . S
C1234 C1233 1.394 . S
C1234 C1235 1.516 . S
C1235 C1234 1.516 . S
C1235 C1236 1.502 . S
C1235 C1237 1.561 . S
C1235 C1238 1.526 . S
C1236 H1220 0.959 . S
C1236 H1221 0.959 . S
C1236 H1222 0.961 . S
C1236 C1235 1.502 . S
C1237 H1223 0.960 . S
C1237 H1224 0.961 . S
C1237 H1225 0.959 . S
C1237 C1235 1.561 . S
C1238 C1235 1.526 . S
C1238 C1239 1.396 . S
C1238 C1243 1.390 . S
C1239 C1233 1.465 . S
C1239 C1238 1.396 . S
C1239 C1240 1.399 . S
C1240 H1226 0.929 . S
C1240 C1239 1.399 . S
C1240 C1241 1.385 . S
C1241 H1227 0.931 . S
C1241 C1240 1.385 . S
C1241 C1242 1.389 . S
C1242 C1241 1.389 . S
C1242 C1243 1.387 . S
C1243 H1228 0.930 . S
C1243 C1238 1.390 . S
C1243 C1242 1.387 . S
H1244 C1256 0.930 . S
H1245 C1258 0.930 . S
H1246 C1259 0.930 . S
H1247 C1263 0.959 . S
H1248 C1263 0.959 . S
H1249 C1263 0.961 . S
H1250 C1264 0.960 . S
H1251 C1264 0.961 . S
H1252 C1264 0.959 . S
H1253 C1267 0.929 . S
H1254 C1268 0.931 . S
H1255 C1270 0.930 . S
C1256 H1244 0.930 . S
C1256 C1257 1.399 . S
C1256 C1261 1.399 . S
C1257 C1256 1.399 . S
C1257 C1258 1.376 . S
C1258 H1245 0.930 . S
C1258 C1257 1.376 . S
C1258 C1259 1.388 . S
C1259 H1246 0.930 . S
C1259 C1258 1.388 . S
C1259 C1260 1.390 . S
C1260 C1259 1.390 . S
C1260 C1261 1.394 . S
C1260 C1266 1.465 . S
C1261 C1256 1.399 . S
C1261 C1260 1.394 . S
C1261 C1262 1.516 . S
C1262 C1261 1.516 . S
C1262 C1263 1.502 . S
C1262 C1264 1.561 . S
C1262 C1265 1.526 . S
C1263 H1247 0.959 . S
C1263 H1248 0.959 . S
C1263 H1249 0.961 . S
C1263 C1262 1.502 . S
C1264 H1250 0.960 . S
C1264 H1251 0.961 . S
C1264 H1252 0.959 . S
C1264 C1262 1.561 . S
C1265 C1262 1.526 . S
C1265 C1266 1.396 . S
C1265 C1270 1.390 . S
C1266 C1260 1.465 . S
C1266 C1265 1.396 . S
C1266 C1267 1.399 . S
C1267 H1253 0.929 . S
C1267 C1266 1.399 . S
C1267 C1268 1.385 . S
C1268 H1254 0.931 . S
C1268 C1267 1.385 . S
C1268 C1269 1.389 . S
C1269 C1268 1.389 . S
C1269 C1270 1.387 . S
C1270 H1255 0.930 . S
C1270 C1265 1.390 . S
C1270 C1269 1.387 . S
H1271 C1283 0.930 . S
H1272 C1285 0.930 . S
H1273 C1286 0.930 . S
H1274 C1290 0.959 . S
H1275 C1290 0.959 . S
H1276 C1290 0.961 . S
H1277 C1291 0.960 . S
H1278 C1291 0.961 . S
H1279 C1291 0.959 . S
H1280 C1294 0.929 . S
H1281 C1295 0.931 . S
H1282 C1297 0.930 . S
C1283 H1271 0.930 . S
C1283 C1284 1.399 . S
C1283 C1288 1.399 . S
C1284 C1283 1.399 . S
C1284 C1285 1.376 . S
C1285 H1272 0.930 . S
C1285 C1284 1.376 . S
C1285 C1286 1.388 . S
C1286 H1273 0.930 . S
C1286 C1285 1.388 . S
C1286 C1287 1.390 . S
C1287 C1286 1.390 . S
C1287 C1288 1.394 . S
C1287 C1293 1.465 . S
C1288 C1283 1.399 . S
C1288 C1287 1.394 . S
C1288 C1289 1.516 . S
C1289 C1288 1.516 . S
C1289 C1290 1.502 . S
C1289 C1291 1.561 . S
C1289 C1292 1.526 . S
C1290 H1274 0.959 . S
C1290 H1275 0.959 . S
C1290 H1276 0.961 . S
C1290 C1289 1.502 . S
C1291 H1277 0.960 . S
C1291 H1278 0.961 . S
C1291 H1279 0.959 . S
C1291 C1289 1.561 . S
C1292 C1289 1.526 . S
C1292 C1293 1.396 . S
C1292 C1297 1.390 . S
C1293 C1287 1.465 . S
C1293 C1292 1.396 . S
C1293 C1294 1.399 . S
C1294 H1280 0.929 . S
C1294 C1293 1.399 . S
C1294 C1295 1.385 . S
C1295 H1281 0.931 . S
C1295 C1294 1.385 . S
C1295 C1296 1.389 . S
C1296 C1295 1.389 . S
C1296 C1297 1.387 . S
C1297 H1282 0.930 . S
C1297 C1292 1.390 . S
C1297 C1296 1.387 . S
H1298 C1310 0.930 . S
H1299 C1312 0.930 . S
H1300 C1313 0.930 . S
H1301 C1317 0.959 . S
H1302 C1317 0.959 . S
H1303 C1317 0.961 . S
H1304 C1318 0.960 . S
H1305 C1318 0.961 . S
H1306 C1318 0.959 . S
H1307 C1321 0.929 . S
H1308 C1322 0.931 . S
H1309 C1324 0.930 . S
C1310 H1298 0.930 . S
C1310 C1311 1.399 . S
C1310 C1315 1.399 . S
C1311 C1310 1.399 . S
C1311 C1312 1.376 . S
C1312 H1299 0.930 . S
C1312 C1311 1.376 . S
C1312 C1313 1.388 . S
C1313 H1300 0.930 . S
C1313 C1312 1.388 . S
C1313 C1314 1.390 . S
C1314 C1313 1.390 . S
C1314 C1315 1.394 . S
C1314 C1320 1.465 . S
C1315 C1310 1.399 . S
C1315 C1314 1.394 . S
C1315 C1316 1.516 . S
C1316 C1315 1.516 . S
C1316 C1317 1.502 . S
C1316 C1318 1.561 . S
C1316 C1319 1.526 . S
C1317 H1301 0.959 . S
C1317 H1302 0.959 . S
C1317 H1303 0.961 . S
C1317 C1316 1.502 . S
C1318 H1304 0.960 . S
C1318 H1305 0.961 . S
C1318 H1306 0.959 . S
C1318 C1316 1.561 . S
C1319 C1316 1.526 . S
C1319 C1320 1.396 . S
C1319 C1324 1.390 . S
C1320 C1314 1.465 . S
C1320 C1319 1.396 . S
C1320 C1321 1.399 . S
C1321 H1307 0.929 . S
C1321 C1320 1.399 . S
C1321 C1322 1.385 . S
C1322 H1308 0.931 . S
C1322 C1321 1.385 . S
C1322 C1323 1.389 . S
C1323 C1322 1.389 . S
C1323 C1324 1.387 . S
C1324 H1309 0.930 . S
C1324 C1319 1.390 . S
C1324 C1323 1.387 . S
H1325 C1337 0.930 . S
H1326 C1339 0.930 . S
H1327 C1340 0.930 . S
H1328 C1344 0.959 . S
H1329 C1344 0.959 . S
H1330 C1344 0.961 . S
H1331 C1345 0.960 . S
H1332 C1345 0.961 . S
H1333 C1345 0.959 . S
H1334 C1348 0.929 . S
H1335 C1349 0.931 . S
H1336 C1351 0.930 . S
C1337 H1325 0.930 . S
C1337 C1338 1.399 . S
C1337 C1342 1.399 . S
C1338 C1337 1.399 . S
C1338 C1339 1.376 . S
C1339 H1326 0.930 . S
C1339 C1338 1.376 . S
C1339 C1340 1.388 . S
C1340 H1327 0.930 . S
C1340 C1339 1.388 . S
C1340 C1341 1.390 . S
C1341 C1340 1.390 . S
C1341 C1342 1.394 . S
C1341 C1347 1.465 . S
C1342 C1337 1.399 . S
C1342 C1341 1.394 . S
C1342 C1343 1.516 . S
C1343 C1342 1.516 . S
C1343 C1344 1.502 . S
C1343 C1345 1.561 . S
C1343 C1346 1.526 . S
C1344 H1328 0.959 . S
C1344 H1329 0.959 . S
C1344 H1330 0.961 . S
C1344 C1343 1.502 . S
C1345 H1331 0.960 . S
C1345 H1332 0.961 . S
C1345 H1333 0.959 . S
C1345 C1343 1.561 . S
C1346 C1343 1.526 . S
C1346 C1347 1.396 . S
C1346 C1351 1.390 . S
C1347 C1341 1.465 . S
C1347 C1346 1.396 . S
C1347 C1348 1.399 . S
C1348 H1334 0.929 . S
C1348 C1347 1.399 . S
C1348 C1349 1.385 . S
C1349 H1335 0.931 . S
C1349 C1348 1.385 . S
C1349 C1350 1.389 . S
C1350 C1349 1.389 . S
C1350 C1351 1.387 . S
C1351 H1336 0.930 . S
C1351 C1346 1.390 . S
C1351 C1350 1.387 . S
C513 C400 1.332 . S
C501 C36 1.344 . S
C540 C414 1.332 . S
C528 C93 1.331 . S
C567 C427 1.347 . S
C555 C126 1.352 . S
C582 C165 1.306 . S
C594 C394 1.340 . S
C609 C222 1.362 . S
C621 C387 1.353 . S
C636 C261 1.343 . S
C648 C407 1.370 . S
C675 C415 1.363 . S
C663 C318 1.334 . S
C702 C428 1.337 . S
C690 C381 1.364 . S
C717 C132 1.363 . S
C729 C454 1.350 . S
C756 C472 1.360 . S
C744 C189 1.326 . S
C771 C30 1.351 . S
C783 C479 1.366 . S
C810 C446 1.354 . S
C798 C69 1.363 . S
C825 C324 1.367 . S
C837 C439 1.347 . S
C852 C357 1.310 . S
C864 C453 1.340 . S
C891 C465 1.365 . S
C879 C228 1.346 . S
C906 C285 1.340 . S
C918 C480 1.344 . S
C945 C413 1.806 . S
C933 C45 1.799 . S
C972 C426 1.809 . S
C960 C84 1.807 . S
C987 C117 1.804 . S
C999 C389 1.769 . S
C1014 C174 1.768 . S
C1026 C401 1.789 . S
C1041 C213 1.780 . S
C1053 C433 1.745 . S
C1080 C388 1.779 . S
C1068 C270 1.774 . S
C1107 C402 1.786 . S
C1095 C309 1.768 . S
C1134 C420 1.790 . S
C1122 C372 1.802 . S
C1161 C467 1.800 . S
C1149 C141 1.785 . S
C1188 C478 1.795 . S
C1176 C180 1.816 . S
C1203 C21 1.805 . S
C1215 C441 1.770 . S
C1242 C459 1.794 . S
C1230 C78 1.754 . S
C1269 C485 1.785 . S
C1257 C333 1.775 . S
C1284 C366 1.772 . S
C1296 C440 1.780 . S
C1323 C452 1.761 . S
C1311 C237 1.777 . S
C1350 C466 1.770 . S
C1338 C276 1.778 . S
