# Generated by pormake.
# Topology hwx, (6,3)-cn, num edge types: 1
# Building blocks:
#     Node 0, Type 0, BuildingBlock: OJICUG_clean_sbu_0, # of connection points: 6
#     Node 1, Type 0, BuildingBlock: OJICUG_clean_sbu_0, # of connection points: 6
#     Node 2, Type 0, BuildingBlock: OJICUG_clean_sbu_0, # of connection points: 6
#     Node 3, Type 0, BuildingBlock: OJICUG_clean_sbu_0, # of connection points: 6
#     Node 4, Type 1, BuildingBlock: MIDCAF_clean_linker_0, # of connection points: 3
#     Node 5, Type 1, BuildingBlock: MIDCAF_clean_linker_0, # of connection points: 3
#     Node 6, Type 1, BuildingBlock: MIDCAF_clean_linker_0, # of connection points: 3
#     Node 7, Type 1, BuildingBlock: MIDCAF_clean_linker_0, # of connection points: 3
#     Node 8, Type 1, BuildingBlock: MIDCAF_clean_linker_0, # of connection points: 3
#     Node 9, Type 1, BuildingBlock: MIDCAF_clean_linker_0, # of connection points: 3
#     Node 10, Type 1, BuildingBlock: MIDCAF_clean_linker_0, # of connection points: 3
#     Node 11, Type 1, BuildingBlock: MIDCAF_clean_linker_0, # of connection points: 3
#     Edge 12, Type (0, 1), BuildingBlock: XIVTED_clean_linker_0, # of connection points: 2
#     Edge 13, Type (0, 1), BuildingBlock: XIVTED_clean_linker_0, # of connection points: 2
#     Edge 14, Type (0, 1), BuildingBlock: XIVTED_clean_linker_0, # of connection points: 2
#     Edge 15, Type (0, 1), BuildingBlock: XIVTED_clean_linker_0, # of connection points: 2
#     Edge 16, Type (0, 1), BuildingBlock: XIVTED_clean_linker_0, # of connection points: 2
#     Edge 17, Type (0, 1), BuildingBlock: XIVTED_clean_linker_0, # of connection points: 2
#     Edge 18, Type (0, 1), BuildingBlock: XIVTED_clean_linker_0, # of connection points: 2
#     Edge 19, Type (0, 1), BuildingBlock: XIVTED_clean_linker_0, # of connection points: 2
#     Edge 20, Type (0, 1), BuildingBlock: XIVTED_clean_linker_0, # of connection points: 2
#     Edge 21, Type (0, 1), BuildingBlock: XIVTED_clean_linker_0, # of connection points: 2
#     Edge 22, Type (0, 1), BuildingBlock: XIVTED_clean_linker_0, # of connection points: 2
#     Edge 23, Type (0, 1), BuildingBlock: XIVTED_clean_linker_0, # of connection points: 2
#     Edge 24, Type (0, 1), BuildingBlock: XIVTED_clean_linker_0, # of connection points: 2
#     Edge 25, Type (0, 1), BuildingBlock: XIVTED_clean_linker_0, # of connection points: 2
#     Edge 26, Type (0, 1), BuildingBlock: XIVTED_clean_linker_0, # of connection points: 2
#     Edge 27, Type (0, 1), BuildingBlock: XIVTED_clean_linker_0, # of connection points: 2
#     Edge 28, Type (0, 1), BuildingBlock: XIVTED_clean_linker_0, # of connection points: 2
#     Edge 29, Type (0, 1), BuildingBlock: XIVTED_clean_linker_0, # of connection points: 2
#     Edge 30, Type (0, 1), BuildingBlock: XIVTED_clean_linker_0, # of connection points: 2
#     Edge 31, Type (0, 1), BuildingBlock: XIVTED_clean_linker_0, # of connection points: 2
#     Edge 32, Type (0, 1), BuildingBlock: XIVTED_clean_linker_0, # of connection points: 2
#     Edge 33, Type (0, 1), BuildingBlock: XIVTED_clean_linker_0, # of connection points: 2
#     Edge 34, Type (0, 1), BuildingBlock: XIVTED_clean_linker_0, # of connection points: 2
#     Edge 35, Type (0, 1), BuildingBlock: XIVTED_clean_linker_0, # of connection points: 2
# Relax obj value: 0.078
# Max RMSD: 0.103
# Mean RMSD: 0.095
data_MOF--net-hwx--node1-OJICUG_clean_sbu_0--node2-MIDCAF_clean_linker_0--edge1-XIVTED_clean_linker_0
_symmetry_space_group_name_H-M    P1
_symmetry_Int_Tables_number       1
_symmetry_cell_setting            triclinic
loop_
_symmetry_equiv_pos_as_xyz
'x, y, z'
_cell_length_a     61.084571
_cell_length_b     61.020743
_cell_length_c     27.606284
_cell_angle_alpha  89.889701
_cell_angle_beta   90.252156
_cell_angle_gamma 90.005077
loop_
_atom_site_label
_atom_site_type_symbol
_atom_site_fract_x
_atom_site_fract_y
_atom_site_fract_z
_atom_type_partial_charge
Sc0 Sc 0.22214 0.20972 0.05968 0.0
Sc1 Sc 0.18511 0.17551 0.99639 0.0
Sc2 Sc 0.21882 0.2131 0.93345 0.0
O3 O 0.20862 0.19942 0.99649 0.0
C4 C 0.21781 0.25481 0.0022 0.0
C5 C 0.1716 0.20539 0.08632 0.0
C6 C 0.1674 0.2089 0.91598 0.0
C7 C 0.2182 0.15822 0.07739 0.0
C8 C 0.26369 0.2072 0.99115 0.0
C9 C 0.21442 0.16249 0.90565 0.0
O10 O 0.22001 0.24382 0.04098 0.0
O11 O 0.16702 0.19125 0.05395 0.0
O12 O 0.18598 0.2175 0.9082 0.0
O13 O 0.22611 0.17705 0.08573 0.0
O14 O 0.25289 0.20994 0.95218 0.0
O15 O 0.2009 0.15748 0.93884 0.0
O16 O 0.25484 0.20697 0.03266 0.0
O17 O 0.20293 0.15488 0.04683 0.0
O18 O 0.22163 0.1818 0.89948 0.0
O19 O 0.1907 0.21317 0.09246 0.0
O20 O 0.21706 0.246 0.96064 0.0
O21 O 0.16452 0.19324 0.94577 0.0
Sc22 Sc 0.27839 0.70737 0.46265 0.0
Sc23 Sc 0.30801 0.6706 0.53718 0.0
Sc24 Sc 0.27502 0.71211 0.5886 0.0
O25 O 0.28718 0.69665 0.52952 0.0
C26 C 0.28385 0.75258 0.51873 0.0
C27 C 0.32898 0.69708 0.449 0.0
C28 C 0.3249 0.70371 0.61848 0.0
C29 C 0.27749 0.65529 0.45004 0.0
C30 C 0.23327 0.71015 0.51917 0.0
C31 C 0.27346 0.6621 0.62172 0.0
O32 O 0.28253 0.74137 0.48018 0.0
O33 O 0.32996 0.68245 0.48179 0.0
O34 O 0.30657 0.71335 0.62233 0.0
O35 O 0.2729 0.67475 0.43731 0.0
O36 O 0.24211 0.71239 0.56061 0.0
O37 O 0.28849 0.65565 0.59338 0.0
O38 O 0.24425 0.70808 0.48049 0.0
O39 O 0.28997 0.65079 0.48571 0.0
O40 O 0.267 0.68184 0.62343 0.0
O41 O 0.31166 0.70765 0.43885 0.0
O42 O 0.28173 0.74425 0.56059 0.0
O43 O 0.32813 0.68784 0.58948 0.0
Sc44 Sc 0.77273 0.78111 0.91632 0.0
Sc45 Sc 0.8072 0.82157 0.96699 0.0
Sc46 Sc 0.78205 0.78191 0.04147 0.0
O47 O 0.78733 0.79492 0.97489 0.0
C48 C 0.73455 0.78064 0.99498 0.0
C49 C 0.76872 0.83202 0.89165 0.0
C50 C 0.78289 0.83337 0.0646 0.0
C51 C 0.82061 0.79181 0.87701 0.0
C52 C 0.78418 0.73849 0.97712 0.0
C53 C 0.83288 0.79206 0.04463 0.0
O54 O 0.74175 0.77891 0.95202 0.0
O55 O 0.78506 0.83783 0.91729 0.0
O56 O 0.7797 0.8134 0.07538 0.0
O57 O 0.8023 0.78197 0.87513 0.0
O58 O 0.784 0.7485 0.01736 0.0
O59 O 0.83166 0.80836 0.01588 0.0
O60 O 0.78123 0.7482 0.93694 0.0
O61 O 0.82504 0.80643 0.90838 0.0
O62 O 0.81651 0.78023 0.05574 0.0
O63 O 0.76234 0.81227 0.88864 0.0
O64 O 0.747 0.78264 0.03179 0.0
O65 O 0.7915 0.83941 0.0249 0.0
Sc66 Sc 0.71386 0.27988 0.55465 0.0
Sc67 Sc 0.68612 0.32233 0.49241 0.0
Sc68 Sc 0.71151 0.27937 0.42781 0.0
O69 O 0.70384 0.29391 0.49162 0.0
C70 C 0.7559 0.27479 0.48773 0.0
C71 C 0.72081 0.3309 0.5767 0.0
C72 C 0.71698 0.3302 0.40145 0.0
C73 C 0.66536 0.29499 0.57968 0.0
C74 C 0.70199 0.23736 0.4932 0.0
C75 C 0.66212 0.2941 0.41053 0.0
O76 O 0.74661 0.27577 0.52878 0.0
O77 O 0.70746 0.33775 0.54465 0.0
O78 O 0.71993 0.30988 0.39409 0.0
O79 O 0.68194 0.28271 0.58567 0.0
O80 O 0.70395 0.24691 0.45261 0.0
O81 O 0.66273 0.31002 0.44021 0.0
O82 O 0.70494 0.24716 0.5332 0.0
O83 O 0.66462 0.31039 0.54856 0.0
O84 O 0.67832 0.28152 0.40287 0.0
O85 O 0.72431 0.31067 0.58439 0.0
O86 O 0.74548 0.27583 0.44779 0.0
O87 O 0.70555 0.33745 0.4363 0.0
C88 C 0.20333 0.56357 0.17607 0.0
C89 C 0.21078 0.55158 0.21639 0.0
C90 C 0.21254 0.52869 0.21288 0.0
C91 C 0.20744 0.51807 0.16942 0.0
H92 H 0.18821 0.45777 0.10679 0.0
H93 H 0.1892 0.41798 0.1014 0.0
H94 H 0.20172 0.4227 0.94774 0.0
H95 H 0.20007 0.46235 0.95271 0.0
H96 H 0.20246 0.50732 0.90238 0.0
H97 H 0.21084 0.52907 0.83068 0.0
H98 H 0.20825 0.58813 0.91647 0.0
H99 H 0.19956 0.5666 0.9879 0.0
H100 H 0.19329 0.56286 0.10193 0.0
H101 H 0.20205 0.58126 0.17748 0.0
H102 H 0.21812 0.51906 0.24353 0.0
H103 H 0.20944 0.50046 0.16746 0.0
N104 N 0.19606 0.49736 0.07773 0.0
N105 N 0.19588 0.49984 0.99294 0.0
N106 N 0.19865 0.53164 0.03977 0.0
C107 C 0.19491 0.48744 0.03377 0.0
C108 C 0.19766 0.52196 0.99561 0.0
C109 C 0.19784 0.51949 0.08097 0.0
C110 C 0.19417 0.46328 0.03025 0.0
C111 C 0.19101 0.45033 0.07178 0.0
C112 C 0.1917 0.42751 0.06875 0.0
C113 C 0.19568 0.41716 0.0242 0.0
C114 C 0.19833 0.43012 0.98251 0.0
C115 C 0.1975 0.45291 0.98546 0.0
C116 C 0.2005 0.53519 0.95109 0.0
C117 C 0.20339 0.52497 0.90591 0.0
C118 C 0.20832 0.53739 0.86482 0.0
C119 C 0.21032 0.56027 0.86801 0.0
C120 C 0.2066 0.57054 0.91273 0.0
C121 C 0.20176 0.55815 0.9538 0.0
C122 C 0.2008 0.53021 0.12853 0.0
C123 C 0.19845 0.55302 0.13262 0.0
C124 C 0.91924 0.74757 0.57534 0.0
C125 C 0.92794 0.74768 0.62247 0.0
C126 C 0.9504 0.74374 0.62927 0.0
C127 C 0.9639 0.73971 0.58948 0.0
H128 H 0.02292 0.71081 0.54859 0.0
H129 H 0.06142 0.70179 0.55992 0.0
H130 H 0.07313 0.71433 0.40809 0.0
H131 H 0.03469 0.72274 0.39634 0.0
H132 H 0.98794 0.72445 0.32659 0.0
H133 H 0.97264 0.7345 0.24732 0.0
H134 H 0.92853 0.77977 0.31686 0.0
H135 H 0.94347 0.76969 0.39559 0.0
H136 H 0.92541 0.74396 0.49983 0.0
H137 H 0.90202 0.75082 0.56902 0.0
H138 H 0.95746 0.74363 0.66533 0.0
H139 H 0.98117 0.7368 0.59573 0.0
N140 N 0.98989 0.72827 0.50482 0.0
N141 N 0.99529 0.73102 0.42088 0.0
N142 N 0.96205 0.7421 0.45488 0.0
C143 C 0.00293 0.72543 0.46554 0.0
C144 C 0.97487 0.73942 0.41539 0.0
C145 C 0.96937 0.73648 0.49965 0.0
C146 C 0.02573 0.71776 0.47165 0.0
C147 C 0.03364 0.7114 0.51747 0.0
C148 C 0.05573 0.7063 0.52406 0.0
C149 C 0.07037 0.70754 0.48502 0.0
C150 C 0.06226 0.71297 0.43883 0.0
C151 C 0.04019 0.71796 0.43219 0.0
C152 C 0.96675 0.74616 0.36724 0.0
C153 C 0.97513 0.7367 0.32478 0.0
C154 C 0.96641 0.74241 0.27954 0.0
C155 C 0.94956 0.758 0.27613 0.0
C156 C 0.94174 0.76794 0.31846 0.0
C157 C 0.95013 0.76197 0.36356 0.0
C158 C 0.95519 0.73986 0.54222 0.0
C159 C 0.9327 0.74378 0.53567 0.0
C160 C 0.7933 0.42265 0.85901 0.0
C161 C 0.78898 0.43331 0.81483 0.0
C162 C 0.79002 0.45632 0.81302 0.0
C163 C 0.79435 0.46841 0.85498 0.0
H164 H 0.80869 0.53071 0.90942 0.0
H165 H 0.80841 0.57053 0.90656 0.0
H166 H 0.78993 0.57251 0.05744 0.0
H167 H 0.79082 0.5327 0.06078 0.0
H168 H 0.77526 0.48509 0.11151 0.0
H169 H 0.76453 0.46284 0.18111 0.0
H170 H 0.80099 0.40816 0.12321 0.0
H171 H 0.81072 0.43004 0.0529 0.0
H172 H 0.80013 0.42587 0.93449 0.0
H173 H 0.79239 0.40497 0.86188 0.0
H174 H 0.78705 0.46499 0.77937 0.0
H175 H 0.79436 0.48613 0.85262 0.0
N176 N 0.8 0.49258 0.94472 0.0
N177 N 0.7975 0.49337 0.02958 0.0
N178 N 0.79772 0.4598 0.9885 0.0
C179 C 0.79935 0.50421 0.98667 0.0
C180 C 0.79691 0.47113 0.03066 0.0
C181 C 0.79917 0.47035 0.94535 0.0
C182 C 0.79973 0.52846 0.98532 0.0
C183 C 0.80463 0.53961 0.94208 0.0
C184 C 0.80436 0.56247 0.94034 0.0
C185 C 0.79906 0.57474 0.9817 0.0
C186 C 0.79439 0.5636 0.02507 0.0
C187 C 0.79479 0.54073 0.02691 0.0
C188 C 0.79352 0.45916 0.07651 0.0
C189 C 0.78122 0.46841 0.11417 0.0
C190 C 0.77513 0.45566 0.15412 0.0
C191 C 0.78151 0.43354 0.15735 0.0
C192 C 0.79517 0.4249 0.12121 0.0
C193 C 0.8009 0.43748 0.08103 0.0
C194 C 0.79761 0.45773 0.89965 0.0
C195 C 0.79758 0.4347 0.90086 0.0
C196 C 0.07181 0.2625 0.36996 0.0
C197 C 0.06152 0.25671 0.32622 0.0
C198 C 0.03859 0.25522 0.32457 0.0
C199 C 0.02622 0.25896 0.36623 0.0
H200 H 0.96363 0.27565 0.41774 0.0
H201 H 0.92383 0.27704 0.41558 0.0
H202 H 0.92189 0.26046 0.56782 0.0
H203 H 0.96162 0.25972 0.57043 0.0
H204 H 0.00582 0.25563 0.62985 0.0
H205 H 0.02583 0.25081 0.706 0.0
H206 H 0.08595 0.26873 0.63431 0.0
H207 H 0.06614 0.27365 0.55857 0.0
H208 H 0.06807 0.27008 0.44486 0.0
H209 H 0.08948 0.26351 0.37253 0.0
H210 H 0.03023 0.25095 0.2912 0.0
H211 H 0.0086 0.25727 0.36403 0.0
N212 N 0.00168 0.26665 0.45429 0.0
N213 N 0.00064 0.26674 0.53923 0.0
N214 N 0.03431 0.26579 0.49912 0.0
C215 C 0.98997 0.26713 0.49596 0.0
C216 C 0.02282 0.26618 0.54106 0.0
C217 C 0.02388 0.26597 0.45561 0.0
C218 C 0.96581 0.26767 0.49431 0.0
C219 C 0.95472 0.27228 0.45076 0.0
C220 C 0.93189 0.27297 0.44943 0.0
C221 C 0.9197 0.26891 0.49154 0.0
C222 C 0.93081 0.26407 0.53493 0.0
C223 C 0.95361 0.26355 0.53636 0.0
C224 C 0.03442 0.2649 0.58806 0.0
C225 C 0.02327 0.2588 0.63049 0.0
C226 C 0.0347 0.25593 0.67402 0.0
C227 C 0.0574 0.25942 0.67602 0.0
C228 C 0.06839 0.26619 0.63399 0.0
C229 C 0.05705 0.26883 0.59047 0.0
C230 C 0.03661 0.26404 0.4104 0.0
C231 C 0.05951 0.2661 0.41156 0.0
C232 C 0.71015 0.92485 0.34959 0.0
C233 C 0.721 0.93565 0.31163 0.0
C234 C 0.72211 0.95867 0.31208 0.0
C235 C 0.71365 0.97051 0.35121 0.0
H236 H 0.69871 0.03322 0.40391 0.0
H237 H 0.69644 0.073 0.40694 0.0
H238 H 0.67297 0.06928 0.55418 0.0
H239 H 0.6758 0.02958 0.55174 0.0
H240 H 0.69672 0.98724 0.61203 0.0
H241 H 0.70356 0.96677 0.6867 0.0
H242 H 0.69942 0.90603 0.60706 0.0
H243 H 0.69236 0.92629 0.53287 0.0
H244 H 0.69422 0.92762 0.41791 0.0
H245 H 0.70845 0.90718 0.34967 0.0
H246 H 0.73037 0.96745 0.28334 0.0
H247 H 0.71555 0.98815 0.35163 0.0
N248 N 0.69483 0.99334 0.43524 0.0
N249 N 0.68974 0.99262 0.51954 0.0
N250 N 0.69696 0.96013 0.47776 0.0
C251 C 0.69045 0.00408 0.47728 0.0
C252 C 0.69295 0.97063 0.52004 0.0
C253 C 0.69792 0.97129 0.43527 0.0
C254 C 0.68762 0.02818 0.47771 0.0
C255 C 0.69292 0.04086 0.43685 0.0
C256 C 0.6915 0.0637 0.43849 0.0
C257 C 0.68463 0.07436 0.48091 0.0
C258 C 0.67872 0.06163 0.52125 0.0
C259 C 0.68026 0.03882 0.51973 0.0
C260 C 0.6942 0.95841 0.56634 0.0
C261 C 0.69688 0.9695 0.6106 0.0
C262 C 0.70094 0.95781 0.65334 0.0
C263 C 0.70214 0.93481 0.65271 0.0
C264 C 0.69838 0.92373 0.60889 0.0
C265 C 0.69449 0.93538 0.56622 0.0
C266 C 0.70404 0.95949 0.39056 0.0
C267 C 0.70188 0.9366 0.38863 0.0
C268 C 0.55478 0.27322 0.86593 0.0
C269 C 0.55029 0.26235 0.82224 0.0
C270 C 0.5343 0.24582 0.82136 0.0
C271 C 0.52328 0.23999 0.86368 0.0
H272 H 0.47066 0.20436 0.91466 0.0
H273 H 0.43358 0.18997 0.90859 0.0
H274 H 0.42399 0.20258 0.06109 0.0
H275 H 0.46109 0.21622 0.06755 0.0
H276 H 0.50667 0.22768 0.1287 0.0
H277 H 0.52387 0.23796 0.2054 0.0
H278 H 0.5624 0.28682 0.13113 0.0
H279 H 0.54528 0.27675 0.05472 0.0
H280 H 0.54807 0.27574 0.94154 0.0
H281 H 0.56724 0.28583 0.86774 0.0
H282 H 0.53047 0.23727 0.78804 0.0
H283 H 0.51125 0.22697 0.86197 0.0
N284 N 0.4995 0.23049 0.95183 0.0
N285 N 0.4977 0.23103 0.03664 0.0
N286 N 0.52545 0.25026 0.99656 0.0
C287 C 0.48949 0.22421 0.99342 0.0
C288 C 0.51572 0.24402 0.03847 0.0
C289 C 0.51748 0.24352 0.95313 0.0
C290 C 0.46868 0.21191 0.99138 0.0
C291 C 0.46078 0.20366 0.9471 0.0
C292 C 0.43951 0.19546 0.94356 0.0
C293 C 0.42569 0.19548 0.98411 0.0
C294 C 0.4342 0.20214 0.02914 0.0
C295 C 0.4555 0.21017 0.03278 0.0
C296 C 0.52478 0.25124 0.08551 0.0
C297 C 0.51861 0.2408 0.12882 0.0
C298 C 0.52846 0.24664 0.17271 0.0
C299 C 0.54443 0.26318 0.17415 0.0
C300 C 0.54993 0.2742 0.1312 0.0
C301 C 0.54028 0.26824 0.08732 0.0
C302 C 0.52826 0.25041 0.90777 0.0
C303 C 0.54394 0.26726 0.9083 0.0
C304 C 0.27724 0.06713 0.61849 0.0
C305 C 0.27176 0.05667 0.66215 0.0
C306 C 0.27171 0.03368 0.6642 0.0
C307 C 0.27685 0.02138 0.6231 0.0
H308 H 0.28692 0.95858 0.57428 0.0
H309 H 0.29017 0.91894 0.57725 0.0
H310 H 0.30904 0.91826 0.42651 0.0
H311 H 0.3051 0.9579 0.42303 0.0
H312 H 0.27652 -0.00131 0.36198 0.0
H313 H 0.26857 0.0176 0.28561 0.0
H314 H 0.28293 0.07965 0.3537 0.0
H315 H 0.29082 0.06096 0.42961 0.0
H316 H 0.286 0.06354 0.54421 0.0
H317 H 0.27715 0.08484 0.61567 0.0
H318 H 0.26767 0.02523 0.69753 0.0
H319 H 0.27641 0.00367 0.62558 0.0
N320 N 0.28938 -0.00282 0.53679 0.0
N321 N 0.2907 0.99552 0.45192 0.0
N322 N 0.2846 0.02907 0.49064 0.0
C323 C 0.29208 0.98533 0.49563 0.0
C324 C 0.287 0.01741 0.44922 0.0
C325 C 0.28573 0.01909 0.53454 0.0
C326 C 0.29555 0.96141 0.49829 0.0
C327 C 0.29191 0.95002 0.54181 0.0
C328 C 0.29393 0.92727 0.54362 0.0
C329 C 0.2998 0.91542 0.50206 0.0
C330 C 0.3041 0.92687 0.45893 0.0
C331 C 0.30192 0.94961 0.45701 0.0
C332 C 0.28421 0.02836 0.40186 0.0
C333 C 0.27827 0.01634 0.3604 0.0
C334 C 0.27359 0.02712 0.31682 0.0
C335 C 0.27517 0.05004 0.31382 0.0
C336 C 0.28182 0.06193 0.35483 0.0
C337 C 0.2862 0.05123 0.39841 0.0
C338 C 0.28184 0.03189 0.5791 0.0
C339 C 0.28217 0.05489 0.57742 0.0
C340 C 0.43598 0.72565 0.16538 0.0
C341 C 0.44336 0.73329 0.2105 0.0
C342 C 0.46094 0.74809 0.21242 0.0
C343 C 0.4709 0.75524 0.16974 0.0
H344 H 0.53322 0.76719 0.11028 0.0
H345 H 0.57232 0.77407 0.10591 0.0
H346 H 0.56472 0.79708 0.95863 0.0
H347 H 0.52565 0.78959 0.96236 0.0
H348 H 0.48661 0.75766 0.90245 0.0
H349 H 0.46536 0.75195 0.82795 0.0
H350 H 0.40549 0.75542 0.91015 0.0
H351 H 0.42649 0.7609 0.98422 0.0
H352 H 0.43941 0.72707 0.0885 0.0
H353 H 0.42225 0.71447 0.16296 0.0
H354 H 0.46685 0.75422 0.24688 0.0
H355 H 0.48434 0.76677 0.17215 0.0
N356 N 0.49379 0.76384 0.07887 0.0
N357 N 0.4916 0.76918 0.99477 0.0
N358 N 0.46158 0.75497 0.03701 0.0
C359 C 0.50319 0.77047 0.03683 0.0
C360 C 0.47072 0.76158 0.99474 0.0
C361 C 0.47301 0.75603 0.07915 0.0
C362 C 0.52635 0.77746 0.03634 0.0
C363 C 0.5398 0.77398 0.07711 0.0
C364 C 0.56223 0.77807 0.07477 0.0
C365 C 0.57165 0.78585 0.03173 0.0
C366 C 0.558 0.79061 0.99197 0.0
C367 C 0.53559 0.78638 0.99417 0.0
C368 C 0.45819 0.75965 0.94915 0.0
C369 C 0.4689 0.75741 0.90443 0.0
C370 C 0.45681 0.75403 0.86192 0.0
C371 C 0.43385 0.75332 0.86345 0.0
C372 C 0.42319 0.75613 0.90795 0.0
C373 C 0.43522 0.75912 0.95037 0.0
C374 C 0.46312 0.74803 0.12449 0.0
C375 C 0.44566 0.73306 0.12278 0.0
H376 H 0.17309 0.24156 0.1439 0.0
H377 H 0.05632 0.22221 0.26373 0.0
H378 H 0.12987 0.18921 0.09938 0.0
H379 H 0.09745 0.2783 0.29198 0.0
H380 H 0.08158 0.21074 0.2 0.0
H381 H 0.14457 0.25569 0.19598 0.0
C382 C 0.15759 0.23295 0.14514 0.0
C383 C 0.15399 0.21398 0.11754 0.0
C384 C 0.08493 0.22567 0.21981 0.0
C385 C 0.12103 0.23028 0.17738 0.0
C386 C 0.07046 0.23231 0.25595 0.0
C387 C 0.07496 0.25111 0.28352 0.0
C388 C 0.10401 0.23791 0.21141 0.0
C389 C 0.0936 0.26346 0.27225 0.0
C390 C 0.14122 0.24115 0.17477 0.0
C391 C 0.1334 0.20381 0.12022 0.0
N392 N 0.10752 0.25655 0.23737 0.0
N393 N 0.11771 0.212 0.14999 0.0
H394 H 0.23751 0.66857 0.67839 0.0
H395 H 0.24258 0.55051 0.80288 0.0
H396 H 0.28467 0.61905 0.63874 0.0
H397 H 0.19466 0.6 0.83737 0.0
H398 H 0.25661 0.57408 0.73839 0.0
H399 H 0.22039 0.64263 0.73322 0.0
C400 C 0.24431 0.65222 0.68118 0.0
C401 C 0.26274 0.64608 0.65415 0.0
C402 C 0.24291 0.5797 0.75982 0.0
C403 C 0.24305 0.61615 0.71716 0.0
C404 C 0.23479 0.5662 0.79641 0.0
C405 C 0.21751 0.57338 0.82576 0.0
C406 C 0.23371 0.60054 0.75263 0.0
C407 C 0.20824 0.59397 0.81615 0.0
C408 C 0.23444 0.63736 0.71247 0.0
C409 C 0.27058 0.62455 0.65902 0.0
N410 N 0.21654 0.60687 0.78062 0.0
N411 N 0.26077 0.61038 0.69019 0.0
H412 H 0.86761 0.81951 0.06145 0.0
H413 H 0.93371 0.72857 0.21069 0.0
H414 H 0.84651 0.75246 0.07912 0.0
H415 H 0.93997 0.79798 0.23661 0.0
H416 H 0.90908 0.73644 0.14263 0.0
H417 H 0.90109 0.81085 0.10702 0.0
C418 C 0.87017 0.80292 0.0743 0.0
C419 C 0.85413 0.78676 0.06731 0.0
C420 C 0.91618 0.74995 0.1627 0.0
C421 C 0.8923 0.77677 0.11863 0.0
C422 C 0.93034 0.74548 0.2012 0.0
C423 C 0.9386 0.76267 0.22948 0.0
C424 C 0.91041 0.77174 0.15241 0.0
C425 C 0.93363 0.78428 0.21598 0.0
C426 C 0.88921 0.79802 0.10028 0.0
C427 C 0.85828 0.76551 0.08453 0.0
N428 N 0.91964 0.78823 0.17863 0.0
N429 N 0.87691 0.76115 0.10964 0.0
H430 H 0.75609 0.3234 0.63568 0.0
H431 H 0.75639 0.44318 0.7497 0.0
H432 H 0.71326 0.37513 0.58585 0.0
H433 H 0.80483 0.39383 0.78303 0.0
H434 H 0.74166 0.41951 0.68619 0.0
H435 H 0.77497 0.3496 0.68742 0.0
C436 C 0.75064 0.34029 0.63554 0.0
C437 C 0.73288 0.347 0.60666 0.0
C438 C 0.75566 0.41396 0.70705 0.0
C439 C 0.75455 0.3772 0.66606 0.0
C440 C 0.7642 0.42754 0.74311 0.0
C441 C 0.78177 0.42041 0.77209 0.0
C442 C 0.76467 0.39304 0.70009 0.0
C443 C 0.791 0.39983 0.76225 0.0
C444 C 0.76153 0.35529 0.665 0.0
C445 C 0.72679 0.36919 0.60765 0.0
N446 N 0.78221 0.38681 0.72742 0.0
N447 N 0.73749 0.38346 0.63721 0.0
H448 H 0.62874 0.32271 0.3892 0.0
H449 H 0.56228 0.2334 0.23651 0.0
H450 H 0.64887 0.25539 0.37134 0.0
H451 H 0.5554 0.30301 0.21312 0.0
H452 H 0.58783 0.2408 0.30278 0.0
H453 H 0.59608 0.3151 0.33992 0.0
C454 C 0.62619 0.30631 0.37531 0.0
C455 C 0.64167 0.28973 0.38369 0.0
C456 C 0.5805 0.25446 0.28354 0.0
C457 C 0.60441 0.28092 0.32821 0.0
C458 C 0.56578 0.25026 0.24604 0.0
C459 C 0.55692 0.26763 0.21906 0.0
C460 C 0.58632 0.27618 0.2942 0.0
C461 C 0.56218 0.28916 0.23263 0.0
C462 C 0.60761 0.30201 0.34723 0.0
C463 C 0.63754 0.26875 0.36504 0.0
N464 N 0.57672 0.29285 0.26908 0.0
N465 N 0.61934 0.26497 0.33808 0.0
H466 H 0.19984 0.11997 0.89379 0.0
H467 H 0.29195 0.09325 0.69704 0.0
H468 H 0.2493 0.16549 0.84502 0.0
H469 H 0.23707 0.0504 0.72343 0.0
H470 H 0.27892 0.11756 0.76055 0.0
H471 H 0.21527 0.09214 0.83956 0.0
C472 C 0.2139 0.12411 0.87182 0.0
C473 C 0.22313 0.14518 0.87363 0.0
C474 C 0.26974 0.10279 0.75273 0.0
C475 C 0.24091 0.11348 0.81227 0.0
C476 C 0.27718 0.08893 0.71644 0.0
C477 C 0.26541 0.06997 0.70459 0.0
C478 C 0.2503 0.09775 0.77733 0.0
C479 C 0.24663 0.06489 0.73155 0.0
C480 C 0.22269 0.10824 0.84097 0.0
C481 C 0.24141 0.14961 0.84453 0.0
N482 N 0.23949 0.07884 0.76645 0.0
N483 N 0.24964 0.13393 0.81516 0.0
H484 H 0.33999 0.73667 0.41145 0.0
H485 H 0.43163 0.69221 0.24034 0.0
H486 H 0.36312 0.67009 0.42469 0.0
H487 H 0.42752 0.76038 0.2802 0.0
H488 H 0.40671 0.68307 0.30681 0.0
H489 H 0.37171 0.74542 0.36171 0.0
C490 C 0.35183 0.7239 0.40395 0.0
C491 C 0.34888 0.70257 0.42167 0.0
C492 C 0.41162 0.69996 0.30155 0.0
C493 C 0.3851 0.71244 0.36461 0.0
C494 C 0.42572 0.70517 0.26364 0.0
C495 C 0.43143 0.72707 0.25479 0.0
C496 C 0.40287 0.71685 0.32991 0.0
C497 C 0.42352 0.74329 0.286 0.0
C498 C 0.37001 0.72895 0.37592 0.0
C499 C 0.36483 0.68672 0.41151 0.0
N500 N 0.4093 0.7379 0.32172 0.0
N501 N 0.38215 0.69188 0.38286 0.0
H502 H 0.72989 0.82711 0.84327 0.0
H503 H 0.73486 0.94477 0.71719 0.0
H504 H 0.77987 0.87511 0.87524 0.0
H505 H 0.68528 0.89622 0.68705 0.0
H506 H 0.74913 0.92144 0.78214 0.0
H507 H 0.71128 0.85387 0.79238 0.0
C508 C 0.73696 0.84331 0.83974 0.0
C509 C 0.75667 0.84874 0.86317 0.0
C510 C 0.73498 0.916 0.76167 0.0
C511 C 0.73531 0.87959 0.80463 0.0
C512 C 0.72671 0.92939 0.72483 0.0
C513 C 0.70897 0.92233 0.69637 0.0
C514 C 0.72545 0.8954 0.77002 0.0
C515 C 0.69923 0.90213 0.70753 0.0
C516 C 0.72625 0.85863 0.81069 0.0
C517 C 0.7648 0.87013 0.85763 0.0
N518 N 0.70771 0.88931 0.74319 0.0
N519 N 0.75419 0.88472 0.82856 0.0
H520 H 0.86282 0.80731 0.86764 0.0
H521 H 0.88779 0.73017 0.64032 0.0
H522 H 0.81703 0.76106 0.80579 0.0
H523 H 0.93511 0.77562 0.6986 0.0
H524 H 0.86245 0.74027 0.70437 0.0
H525 H 0.89026 0.79531 0.80883 0.0
C526 C 0.8585 0.7947 0.84176 0.0
C527 C 0.83751 0.78528 0.8416 0.0
C528 C 0.8784 0.74802 0.70343 0.0
C529 C 0.86881 0.77142 0.77464 0.0
C530 C 0.89283 0.74227 0.6668 0.0
C531 C 0.91345 0.75224 0.66398 0.0
C532 C 0.88453 0.76398 0.73748 0.0
C533 C 0.91935 0.76752 0.69966 0.0
C534 C 0.87419 0.78781 0.80833 0.0
C535 C 0.83291 0.76891 0.80735 0.0
N536 N 0.90486 0.77309 0.73482 0.0
N537 N 0.84839 0.76257 0.77535 0.0
H538 H 0.73636 0.32078 0.31519 0.0
H539 H 0.7734 0.44305 0.25359 0.0
H540 H 0.72084 0.37514 0.40904 0.0
H541 H 0.76883 0.39079 0.14867 0.0
H542 H 0.75778 0.41842 0.31476 0.0
H543 H 0.7526 0.34617 0.25795 0.0
C544 C 0.73639 0.33808 0.32392 0.0
C545 C 0.72711 0.34581 0.36706 0.0
C546 C 0.7603 0.41243 0.27831 0.0
C547 C 0.74582 0.37512 0.30116 0.0
C548 C 0.76915 0.42647 0.24334 0.0
C549 C 0.77269 0.41897 0.19587 0.0
C550 C 0.75511 0.39076 0.26572 0.0
C551 C 0.767 0.39723 0.18492 0.0
C552 C 0.74563 0.3526 0.29101 0.0
C553 C 0.72769 0.36847 0.37612 0.0
N554 N 0.75859 0.38394 0.21952 0.0
N555 N 0.73694 0.38237 0.34341 0.0
H556 H 0.12666 0.19043 0.90268 0.0
H557 H 0.08963 0.28429 0.71711 0.0
H558 H 0.16498 0.24775 0.86749 0.0
H559 H 0.0541 0.22379 0.73598 0.0
H560 H 0.11404 0.27373 0.78331 0.0
H561 H 0.0968 0.2048 0.85215 0.0
C562 C 0.12874 0.20608 0.8847 0.0
C563 C 0.14848 0.21773 0.88869 0.0
C564 C 0.10078 0.26283 0.77336 0.0
C565 C 0.11446 0.23425 0.83129 0.0
C566 C 0.08687 0.26886 0.73556 0.0
C567 C 0.07004 0.25475 0.72068 0.0
C568 C 0.09796 0.24244 0.79625 0.0
C569 C 0.0669 0.23513 0.74638 0.0
C570 C 0.11171 0.21426 0.85588 0.0
C571 C 0.15022 0.23799 0.86482 0.0
N572 N 0.08093 0.2294 0.78258 0.0
N573 N 0.13351 0.24551 0.83701 0.0
H574 H 0.29056 0.61223 0.43973 0.0
H575 H 0.19008 0.58522 0.26236 0.0
H576 H 0.23946 0.65772 0.3994 0.0
H577 H 0.24796 0.54484 0.27043 0.0
H578 H 0.20488 0.60822 0.32679 0.0
H579 H 0.27234 0.58393 0.39049 0.0
C580 C 0.27549 0.6162 0.42084 0.0
C581 C 0.2667 0.63742 0.42297 0.0
C582 C 0.21429 0.59421 0.31483 0.0
C583 C 0.24576 0.60529 0.36761 0.0
C584 C 0.20583 0.58109 0.27807 0.0
C585 C 0.21797 0.56333 0.26056 0.0
C586 C 0.2351 0.58962 0.33416 0.0
C587 C 0.2381 0.55842 0.2829 0.0
C588 C 0.26514 0.6001 0.39282 0.0
C589 C 0.24708 0.64171 0.39806 0.0
N590 N 0.2462 0.57169 0.31822 0.0
N591 N 0.23734 0.62583 0.37143 0.0
H592 H 0.36574 0.68541 0.6335 0.0
H593 H 0.39827 0.77573 0.83056 0.0
H594 H 0.32584 0.74113 0.6721 0.0
H595 H 0.43951 0.72047 0.79724 0.0
H596 H 0.37364 0.76514 0.765 0.0
H597 H 0.39483 0.69943 0.68664 0.0
C598 C 0.3631 0.70058 0.65292 0.0
C599 C 0.34317 0.71192 0.64881 0.0
C600 C 0.38815 0.75537 0.77159 0.0
C601 C 0.37633 0.72807 0.70916 0.0
C602 C 0.4022 0.76145 0.80901 0.0
C603 C 0.42075 0.74881 0.81949 0.0
C604 C 0.39254 0.73634 0.74474 0.0
C605 C 0.42532 0.73063 0.79015 0.0
C606 C 0.37972 0.70859 0.68314 0.0
C607 C 0.34074 0.73159 0.67457 0.0
N608 N 0.41112 0.72474 0.75439 0.0
N609 N 0.35704 0.73893 0.70368 0.0
H610 H 0.77798 0.82747 0.16137 0.0
H611 H 0.72274 0.94325 0.21299 0.0
H612 H 0.7724 0.87691 0.04991 0.0
H613 H 0.74508 0.8985 0.32396 0.0
H614 H 0.74004 0.91986 0.15164 0.0
H615 H 0.76483 0.85366 0.22046 0.0
C616 C 0.77401 0.84391 0.1493 0.0
C617 C 0.77617 0.84997 0.10053 0.0
C618 C 0.7412 0.91529 0.18949 0.0
C619 C 0.76092 0.88021 0.1684 0.0
C620 C 0.73138 0.92862 0.22447 0.0
C621 C 0.73211 0.92261 0.27361 0.0
C622 C 0.75174 0.89587 0.20392 0.0
C623 C 0.74353 0.90349 0.28645 0.0
C624 C 0.76657 0.85893 0.18319 0.0
C625 C 0.77099 0.87159 0.0872 0.0
N626 N 0.75271 0.89079 0.25188 0.0
N627 N 0.76337 0.88594 0.12095 0.0
H628 H 0.63214 0.32324 0.60397 0.0
H629 H 0.56946 0.23304 0.76138 0.0
H630 H 0.65434 0.25659 0.62332 0.0
H631 H 0.56154 0.30247 0.78506 0.0
H632 H 0.59499 0.24102 0.69585 0.0
H633 H 0.60095 0.31533 0.65709 0.0
C634 C 0.63037 0.30695 0.61911 0.0
C635 C 0.64596 0.29062 0.60978 0.0
C636 C 0.5875 0.25451 0.7151 0.0
C637 C 0.61039 0.28147 0.66956 0.0
C638 C 0.57281 0.24998 0.75218 0.0
C639 C 0.56354 0.26714 0.77881 0.0
C640 C 0.59287 0.27635 0.70443 0.0
C641 C 0.56861 0.28879 0.76574 0.0
C642 C 0.61264 0.30248 0.64937 0.0
C643 C 0.64289 0.26977 0.63016 0.0
N644 N 0.58306 0.29281 0.72952 0.0
N645 N 0.62546 0.2658 0.65907 0.0
H646 H 0.25886 0.15623 0.11683 0.0
H647 H 0.23849 0.04419 0.25783 0.0
H648 H 0.20012 0.11779 0.09775 0.0
H649 H 0.29724 0.08311 0.26901 0.0
H650 H 0.22573 0.06797 0.19178 0.0
H651 H 0.27454 0.12702 0.16544 0.0
C652 C 0.24922 0.14158 0.12292 0.0
C653 C 0.22797 0.1396 0.10395 0.0
C654 C 0.24154 0.0711 0.20825 0.0
C655 C 0.24592 0.1059 0.15998 0.0
C656 C 0.24888 0.05748 0.24569 0.0
C657 C 0.26881 0.06191 0.2692 0.0
C658 C 0.25427 0.08921 0.19443 0.0
C659 C 0.28159 0.07938 0.2524 0.0
C660 C 0.25826 0.12481 0.15055 0.0
C661 C 0.21649 0.12003 0.11209 0.0
N662 N 0.27401 0.09249 0.21638 0.0
N663 N 0.22552 0.10399 0.14014 0.0
H664 H 0.22465 0.28083 0.08158 0.0
H665 H 0.1809 0.38963 0.95267 0.0
H666 H 0.20467 0.28348 0.93134 0.0
H667 H 0.21577 0.38966 0.08913 0.0
H668 H 0.18659 0.35012 0.94693 0.0
H669 H 0.21872 0.32028 0.08759 0.0
C670 C 0.21908 0.2897 0.0498 0.0
C671 C 0.21519 0.27881 0.00584 0.0
C672 C 0.19297 0.35879 0.97813 0.0
C673 C 0.20823 0.32393 0.01267 0.0
C674 C 0.18979 0.38135 0.98138 0.0
C675 C 0.19792 0.39301 0.02139 0.0
C676 C 0.20426 0.34778 0.01527 0.0
C677 C 0.20894 0.38133 0.05795 0.0
C678 C 0.21572 0.31222 0.05328 0.0
C679 C 0.20799 0.29118 0.96589 0.0
N680 N 0.2118 0.35935 0.05399 0.0
N681 N 0.20466 0.31307 0.97033 0.0
H682 H 0.20336 0.71951 0.58992 0.0
H683 H 0.1001 0.6869 0.42644 0.0
H684 H 0.20823 0.69785 0.44141 0.0
H685 H 0.09504 0.72239 0.56114 0.0
H686 H 0.13987 0.68639 0.43599 0.0
H687 H 0.16357 0.71661 0.58413 0.0
C688 C 0.19609 0.71418 0.55608 0.0
C689 C 0.20917 0.70905 0.51598 0.0
C690 C 0.13002 0.69417 0.46356 0.0
C691 C 0.16368 0.70553 0.50934 0.0
C692 C 0.10734 0.6945 0.45811 0.0
C693 C 0.09422 0.70484 0.49286 0.0
C694 C 0.13965 0.70419 0.50412 0.0
C695 C 0.10446 0.71404 0.53367 0.0
C696 C 0.17338 0.71252 0.55284 0.0
C697 C 0.19881 0.70217 0.47312 0.0
N698 N 0.12659 0.7136 0.53804 0.0
N699 N 0.17668 0.70059 0.47096 0.0
H700 H 0.79692 0.71255 0.05329 0.0
H701 H 0.78314 0.60044 0.90787 0.0
H702 H 0.77949 0.70965 0.9016 0.0
H703 H 0.81238 0.6045 0.05028 0.0
H704 H 0.78081 0.64033 0.90545 0.0
H705 H 0.80157 0.67286 0.05364 0.0
C706 C 0.79408 0.70359 0.02 0.0
C707 C 0.78771 0.71449 0.97736 0.0
C708 C 0.78782 0.6325 0.93715 0.0
C709 C 0.79299 0.66896 0.97764 0.0
C710 C 0.78927 0.6097 0.93847 0.0
C711 C 0.79798 0.59904 0.97937 0.0
C712 C 0.79499 0.64478 0.97712 0.0
C713 C 0.80524 0.61195 0.01831 0.0
C714 C 0.79681 0.68092 0.02024 0.0
C715 C 0.78441 0.70198 0.93531 0.0
N716 N 0.80352 0.63413 0.01627 0.0
N717 N 0.78698 0.67987 0.93659 0.0
H718 H 0.78249 0.26586 0.41016 0.0
H719 H 0.89248 0.28597 0.56024 0.0
H720 H 0.78429 0.28018 0.56338 0.0
H721 H 0.89172 0.25436 0.42037 0.0
H722 H 0.85264 0.28688 0.55893 0.0
H723 H 0.82254 0.26438 0.41014 0.0
C724 C 0.79127 0.26865 0.44376 0.0
C725 C 0.78 0.27313 0.48684 0.0
C726 C 0.86119 0.27969 0.52856 0.0
C727 C 0.82567 0.27161 0.48691 0.0
C728 C 0.88394 0.27907 0.52937 0.0
C729 C 0.89548 0.26993 0.4905 0.0
C730 C 0.84982 0.27127 0.48843 0.0
C731 C 0.88351 0.26175 0.45091 0.0
C732 C 0.81409 0.26776 0.44371 0.0
C733 C 0.79223 0.27657 0.52933 0.0
N734 N 0.86129 0.26262 0.45086 0.0
N735 N 0.81439 0.27583 0.52821 0.0
H736 H 0.70238 0.20905 0.57062 0.0
H737 H 0.67216 0.10391 0.4108 0.0
H738 H 0.68961 0.2116 0.41665 0.0
H739 H 0.6969 0.10026 0.55737 0.0
H740 H 0.67419 0.14385 0.41493 0.0
H741 H 0.69583 0.16957 0.5691 0.0
C742 C 0.69807 0.20137 0.53654 0.0
C743 C 0.69674 0.21368 0.49361 0.0
C744 C 0.67908 0.13429 0.44625 0.0
C745 C 0.68923 0.16848 0.4917 0.0
C746 C 0.67802 0.11148 0.44384 0.0
C747 C 0.68448 0.09866 0.4837 0.0
C748 C 0.6866 0.14439 0.48885 0.0
C749 C 0.69152 0.10943 0.52592 0.0
C750 C 0.69439 0.1788 0.53571 0.0
C751 C 0.69104 0.20278 0.45058 0.0
N752 N 0.69247 0.13165 0.52731 0.0
N753 N 0.68756 0.18081 0.45071 0.0
H754 H 0.29094 0.19206 0.06256 0.0
H755 H 0.39908 0.20827 0.90929 0.0
H756 H 0.29048 0.21228 0.91246 0.0
H757 H 0.3978 0.17442 0.04684 0.0
H758 H 0.35928 0.20788 0.90754 0.0
H759 H 0.33003 0.18473 0.05664 0.0
C760 C 0.29906 0.19505 0.02837 0.0
C761 C 0.28745 0.20305 0.98806 0.0
C762 C 0.36769 0.20025 0.93778 0.0
C763 C 0.33221 0.19448 0.98102 0.0
C764 C 0.39048 0.20026 0.93863 0.0
C765 C 0.40186 0.19156 0.97859 0.0
C766 C 0.35618 0.19174 0.97742 0.0
C767 C 0.38971 0.18176 0.01584 0.0
C768 C 0.32136 0.19066 0.02492 0.0
C769 C 0.2988 0.20627 0.94454 0.0
N770 N 0.3675 0.18239 0.01468 0.0
N771 N 0.32061 0.20213 0.94228 0.0
H772 H 0.28259 0.77804 0.43697 0.0
H773 H 0.31476 0.8885 0.57488 0.0
H774 H 0.29482 0.78129 0.59108 0.0
H775 H 0.28576 0.88696 0.43193 0.0
H776 H 0.31257 0.84854 0.57817 0.0
H777 H 0.28882 0.81745 0.43137 0.0
C778 C 0.28664 0.787 0.46963 0.0
C779 C 0.28801 0.77635 0.51465 0.0
C780 C 0.3068 0.85699 0.54603 0.0
C781 C 0.29525 0.82143 0.50835 0.0
C782 C 0.30796 0.87979 0.54417 0.0
C783 C 0.3003 0.89114 0.50319 0.0
C784 C 0.29802 0.84546 0.50653 0.0
C785 C 0.29209 0.87893 0.46405 0.0
C786 C 0.29016 0.80951 0.46637 0.0
C787 C 0.29338 0.78884 0.55569 0.0
N788 N 0.2911 0.85676 0.46677 0.0
N789 N 0.29679 0.81074 0.55155 0.0
H790 H 0.7032 0.7717 0.92728 0.0
H791 H 0.60205 0.80004 0.09866 0.0
H792 H 0.71116 0.7908 0.07699 0.0
H793 H 0.59621 0.77373 0.95406 0.0
H794 H 0.64198 0.79879 0.09106 0.0
H795 H 0.66382 0.77416 0.93633 0.0
C796 C 0.69668 0.77636 0.9622 0.0
C797 C 0.71057 0.78106 0.00146 0.0
C798 C 0.6319 0.7934 0.06099 0.0
C799 C 0.66524 0.78399 0.01199 0.0
C800 C 0.60914 0.79409 0.0653 0.0
C801 C 0.59576 0.78704 0.02687 0.0
C802 C 0.64126 0.78562 0.01798 0.0
C803 C 0.60581 0.7797 0.98431 0.0
C804 C 0.67412 0.77777 0.96732 0.0
C805 C 0.70108 0.78696 0.04581 0.0
N806 N 0.62792 0.77914 0.9811 0.0
N807 N 0.67894 0.78832 0.04986 0.0
loop_
_geom_bond_atom_site_label_1
_geom_bond_atom_site_label_2
_geom_bond_distance
_geom_bond_site_symmetry_2
_ccdc_geom_bond_type
Sc0 O3 2.035 . S
Sc0 O10 2.105 . S
Sc0 O13 2.105 . S
Sc0 O16 2.105 . S
Sc0 O19 2.105 . S
Sc1 O3 2.025 . S
Sc1 O11 2.113 . S
Sc1 O15 2.097 1_554 S
Sc1 O17 2.113 . S
Sc1 O21 2.097 1_554 S
Sc2 O3 2.015 1_556 S
Sc2 O12 2.105 . S
Sc2 O14 2.105 . S
Sc2 O18 2.105 . S
Sc2 O20 2.105 . S
O3 Sc0 2.035 . S
O3 Sc1 2.025 . S
O3 Sc2 2.015 1_554 S
C4 O10 1.275 . S
C4 O20 1.262 1_554 S
C5 O11 1.268 . S
C5 O19 1.268 . S
C6 O12 1.268 . S
C6 O21 1.268 . S
C7 O13 1.268 . S
C7 O17 1.268 . S
C8 O14 1.254 1_554 S
C8 O16 1.282 . S
C9 O15 1.268 . S
C9 O18 1.268 . S
O10 Sc0 2.105 . S
O10 C4 1.275 . S
O11 Sc1 2.113 . S
O11 C5 1.268 . S
O12 Sc2 2.105 . S
O12 C6 1.268 . S
O13 Sc0 2.105 . S
O13 C7 1.268 . S
O14 Sc2 2.105 . S
O14 C8 1.254 1_556 S
O15 Sc1 2.097 1_556 S
O15 C9 1.268 . S
O16 Sc0 2.105 . S
O16 C8 1.282 . S
O17 Sc1 2.113 . S
O17 C7 1.268 . S
O18 Sc2 2.105 . S
O18 C9 1.268 . S
O19 Sc0 2.105 . S
O19 C5 1.268 . S
O20 Sc2 2.105 . S
O20 C4 1.262 1_556 S
O21 Sc1 2.097 1_556 S
O21 C6 1.268 . S
Sc22 O25 2.025 . S
Sc22 O32 2.105 . S
Sc22 O35 2.105 . S
Sc22 O38 2.105 . S
Sc22 O41 2.105 . S
Sc23 O25 2.025 . S
Sc23 O33 2.105 . S
Sc23 O37 2.105 . S
Sc23 O39 2.105 . S
Sc23 O43 2.105 . S
Sc24 O25 2.025 . S
Sc24 O34 2.105 . S
Sc24 O36 2.105 . S
Sc24 O40 2.105 . S
Sc24 O42 2.105 . S
O25 Sc22 2.025 . S
O25 Sc23 2.025 . S
O25 Sc24 2.025 . S
C26 O32 1.268 . S
C26 O42 1.268 . S
C27 O33 1.268 . S
C27 O41 1.268 . S
C28 O34 1.268 . S
C28 O43 1.268 . S
C29 O35 1.268 . S
C29 O39 1.268 . S
C30 O36 1.268 . S
C30 O38 1.268 . S
C31 O37 1.268 . S
C31 O40 1.268 . S
O32 Sc22 2.105 . S
O32 C26 1.268 . S
O33 Sc23 2.105 . S
O33 C27 1.268 . S
O34 Sc24 2.105 . S
O34 C28 1.268 . S
O35 Sc22 2.105 . S
O35 C29 1.268 . S
O36 Sc24 2.105 . S
O36 C30 1.268 . S
O37 Sc23 2.105 . S
O37 C31 1.268 . S
O38 Sc22 2.105 . S
O38 C30 1.268 . S
O39 Sc23 2.105 . S
O39 C29 1.268 . S
O40 Sc24 2.105 . S
O40 C31 1.268 . S
O41 Sc22 2.105 . S
O41 C27 1.268 . S
O42 Sc24 2.105 . S
O42 C26 1.268 . S
O43 Sc23 2.105 . S
O43 C28 1.268 . S
Sc44 O47 2.015 1_556 S
Sc44 O54 2.105 . S
Sc44 O57 2.105 . S
Sc44 O60 2.105 . S
Sc44 O63 2.105 . S
Sc45 O47 2.025 . S
Sc45 O55 2.097 1_554 S
Sc45 O59 2.113 . S
Sc45 O61 2.097 1_554 S
Sc45 O65 2.113 . S
Sc46 O47 2.035 . S
Sc46 O56 2.105 . S
Sc46 O58 2.105 . S
Sc46 O62 2.105 . S
Sc46 O64 2.105 . S
O47 Sc44 2.015 1_554 S
O47 Sc45 2.025 . S
O47 Sc46 2.035 . S
C48 O54 1.262 1_554 S
C48 O64 1.275 . S
C49 O55 1.268 . S
C49 O63 1.268 . S
C50 O56 1.268 . S
C50 O65 1.268 . S
C51 O57 1.268 . S
C51 O61 1.268 . S
C52 O58 1.282 . S
C52 O60 1.254 1_554 S
C53 O59 1.268 . S
C53 O62 1.268 . S
O54 Sc44 2.105 . S
O54 C48 1.262 1_556 S
O55 Sc45 2.097 1_556 S
O55 C49 1.268 . S
O56 Sc46 2.105 . S
O56 C50 1.268 . S
O57 Sc44 2.105 . S
O57 C51 1.268 . S
O58 Sc46 2.105 . S
O58 C52 1.282 . S
O59 Sc45 2.113 . S
O59 C53 1.268 . S
O60 Sc44 2.105 . S
O60 C52 1.254 1_556 S
O61 Sc45 2.097 1_556 S
O61 C51 1.268 . S
O62 Sc46 2.105 . S
O62 C53 1.268 . S
O63 Sc44 2.105 . S
O63 C49 1.268 . S
O64 Sc46 2.105 . S
O64 C48 1.275 . S
O65 Sc45 2.113 . S
O65 C50 1.268 . S
Sc66 O69 2.025 . S
Sc66 O76 2.105 . S
Sc66 O79 2.105 . S
Sc66 O82 2.105 . S
Sc66 O85 2.105 . S
Sc67 O69 2.025 . S
Sc67 O77 2.105 . S
Sc67 O81 2.105 . S
Sc67 O83 2.105 . S
Sc67 O87 2.105 . S
Sc68 O69 2.025 . S
Sc68 O78 2.105 . S
Sc68 O80 2.105 . S
Sc68 O84 2.105 . S
Sc68 O86 2.105 . S
O69 Sc66 2.025 . S
O69 Sc67 2.025 . S
O69 Sc68 2.025 . S
C70 O76 1.268 . S
C70 O86 1.268 . S
C71 O77 1.268 . S
C71 O85 1.268 . S
C72 O78 1.268 . S
C72 O87 1.268 . S
C73 O79 1.268 . S
C73 O83 1.268 . S
C74 O80 1.268 . S
C74 O82 1.268 . S
C75 O81 1.268 . S
C75 O84 1.268 . S
O76 Sc66 2.105 . S
O76 C70 1.268 . S
O77 Sc67 2.105 . S
O77 C71 1.268 . S
O78 Sc68 2.105 . S
O78 C72 1.268 . S
O79 Sc66 2.105 . S
O79 C73 1.268 . S
O80 Sc68 2.105 . S
O80 C74 1.268 . S
O81 Sc67 2.105 . S
O81 C75 1.268 . S
O82 Sc66 2.105 . S
O82 C74 1.268 . S
O83 Sc67 2.105 . S
O83 C73 1.268 . S
O84 Sc68 2.105 . S
O84 C75 1.268 . S
O85 Sc66 2.105 . S
O85 C71 1.268 . S
O86 Sc68 2.105 . S
O86 C70 1.268 . S
O87 Sc67 2.105 . S
O87 C72 1.268 . S
C88 C89 1.384 . S
C88 H101 0.947 . S
C88 C123 1.382 . S
C89 C88 1.384 . S
C89 C90 1.378 . S
C90 C89 1.378 . S
C90 C91 1.378 . S
C90 H102 0.952 . S
C91 C90 1.378 . S
C91 H103 0.950 . S
C91 C122 1.383 . S
H92 C111 0.947 . S
H93 C112 0.946 . S
H94 C114 0.953 . S
H95 C115 0.945 . S
H96 C117 0.952 . S
H97 C118 0.949 . S
H98 C120 0.950 . S
H99 C121 0.948 . S
H100 C123 0.951 . S
H101 C88 0.947 . S
H102 C90 0.952 . S
H103 C91 0.950 . S
N104 C107 1.367 1_554 S
N104 C109 1.363 . S
N105 C107 1.387 . S
N105 C108 1.372 . S
N106 C108 1.361 . S
N106 C109 1.377 1_556 S
C107 N104 1.367 1_556 S
C107 N105 1.387 . S
C107 C110 1.480 . S
C108 N105 1.372 . S
C108 N106 1.361 . S
C108 C116 1.457 . S
C109 N104 1.363 . S
C109 N106 1.377 1_554 S
C109 C122 1.479 . S
C110 C107 1.480 . S
C110 C111 1.383 1_556 S
C110 C115 1.385 . S
C111 H92 0.947 . S
C111 C110 1.383 1_554 S
C111 C112 1.388 . S
C112 H93 0.946 . S
C112 C111 1.388 . S
C112 C113 1.384 1_554 S
C113 C112 1.384 1_556 S
C113 C114 1.377 . S
C114 H94 0.953 . S
C114 C113 1.377 . S
C114 C115 1.369 . S
C115 H95 0.945 . S
C115 C110 1.385 . S
C115 C114 1.369 . S
C116 C108 1.457 . S
C116 C117 1.372 . S
C116 C121 1.364 . S
C117 H96 0.952 . S
C117 C116 1.372 . S
C117 C118 1.389 . S
C118 H97 0.949 . S
C118 C117 1.389 . S
C118 C119 1.387 . S
C119 C118 1.387 . S
C119 C120 1.372 . S
C120 H98 0.950 . S
C120 C119 1.372 . S
C120 C121 1.379 . S
C121 H99 0.948 . S
C121 C116 1.364 . S
C121 C120 1.379 . S
C122 C91 1.383 . S
C122 C109 1.479 . S
C122 C123 1.398 . S
C123 C88 1.382 . S
C123 H100 0.951 . S
C123 C122 1.398 . S
C124 C125 1.384 . S
C124 H137 0.947 . S
C124 C159 1.382 . S
C125 C124 1.384 . S
C125 C126 1.378 . S
C126 C125 1.378 . S
C126 C127 1.378 . S
C126 H138 0.952 . S
C127 C126 1.378 . S
C127 H139 0.950 . S
C127 C158 1.383 . S
H128 C147 0.947 . S
H129 C148 0.946 . S
H130 C150 0.953 . S
H131 C151 0.945 . S
H132 C153 0.952 . S
H133 C154 0.949 . S
H134 C156 0.950 . S
H135 C157 0.948 . S
H136 C159 0.951 . S
H137 C124 0.947 . S
H138 C126 0.952 . S
H139 C127 0.950 . S
N140 C143 1.382 1_655 S
N140 C145 1.363 . S
N141 C143 1.371 1_655 S
N141 C144 1.372 . S
N142 C144 1.361 . S
N142 C145 1.377 . S
C143 N140 1.382 1_455 S
C143 N141 1.371 1_455 S
C143 C146 1.480 . S
C144 N141 1.372 . S
C144 N142 1.361 . S
C144 C152 1.457 . S
C145 N140 1.363 . S
C145 N142 1.377 . S
C145 C158 1.479 . S
C146 C143 1.480 . S
C146 C147 1.383 . S
C146 C151 1.385 . S
C147 H128 0.947 . S
C147 C146 1.383 . S
C147 C148 1.388 . S
C148 H129 0.946 . S
C148 C147 1.388 . S
C148 C149 1.384 . S
C149 C148 1.384 . S
C149 C150 1.377 . S
C150 H130 0.953 . S
C150 C149 1.377 . S
C150 C151 1.369 . S
C151 H131 0.945 . S
C151 C146 1.385 . S
C151 C150 1.369 . S
C152 C144 1.457 . S
C152 C153 1.372 . S
C152 C157 1.364 . S
C153 H132 0.952 . S
C153 C152 1.372 . S
C153 C154 1.389 . S
C154 H133 0.949 . S
C154 C153 1.389 . S
C154 C155 1.387 . S
C155 C154 1.387 . S
C155 C156 1.372 . S
C156 H134 0.950 . S
C156 C155 1.372 . S
C156 C157 1.379 . S
C157 H135 0.948 . S
C157 C152 1.364 . S
C157 C156 1.379 . S
C158 C127 1.383 . S
C158 C145 1.479 . S
C158 C159 1.398 . S
C159 C124 1.382 . S
C159 H136 0.951 . S
C159 C158 1.398 . S
C160 C161 1.384 . S
C160 H173 0.947 . S
C160 C195 1.382 . S
C161 C160 1.384 . S
C161 C162 1.378 . S
C162 C161 1.378 . S
C162 C163 1.378 . S
C162 H174 0.952 . S
C163 C162 1.378 . S
C163 H175 0.950 . S
C163 C194 1.383 . S
H164 C183 0.947 . S
H165 C184 0.946 . S
H166 C186 0.953 . S
H167 C187 0.945 . S
H168 C189 0.952 . S
H169 C190 0.949 . S
H170 C192 0.950 . S
H171 C193 0.948 . S
H172 C195 0.951 . S
H173 C160 0.947 . S
H174 C162 0.952 . S
H175 C163 0.950 . S
N176 C179 1.382 1_556 S
N176 C181 1.363 . S
N177 C179 1.371 . S
N177 C180 1.372 . S
N178 C180 1.361 . S
N178 C181 1.377 1_554 S
C179 N176 1.382 1_554 S
C179 N177 1.371 . S
C179 C182 1.480 . S
C180 N177 1.372 . S
C180 N178 1.361 . S
C180 C188 1.457 . S
C181 N176 1.363 . S
C181 N178 1.377 1_556 S
C181 C194 1.479 . S
C182 C179 1.480 . S
C182 C183 1.383 1_554 S
C182 C187 1.385 . S
C183 H164 0.947 . S
C183 C182 1.383 1_556 S
C183 C184 1.388 . S
C184 H165 0.946 . S
C184 C183 1.388 . S
C184 C185 1.384 1_556 S
C185 C184 1.384 1_554 S
C185 C186 1.377 . S
C186 H166 0.953 . S
C186 C185 1.377 . S
C186 C187 1.369 . S
C187 H167 0.945 . S
C187 C182 1.385 . S
C187 C186 1.369 . S
C188 C180 1.457 . S
C188 C189 1.372 . S
C188 C193 1.364 . S
C189 H168 0.952 . S
C189 C188 1.372 . S
C189 C190 1.389 . S
C190 H169 0.949 . S
C190 C189 1.389 . S
C190 C191 1.387 . S
C191 C190 1.387 . S
C191 C192 1.372 . S
C192 H170 0.950 . S
C192 C191 1.372 . S
C192 C193 1.379 . S
C193 H171 0.948 . S
C193 C188 1.364 . S
C193 C192 1.379 . S
C194 C163 1.383 . S
C194 C181 1.479 . S
C194 C195 1.398 . S
C195 C160 1.382 . S
C195 H172 0.951 . S
C195 C194 1.398 . S
C196 C197 1.384 . S
C196 H209 0.947 . S
C196 C231 1.382 . S
C197 C196 1.384 . S
C197 C198 1.378 . S
C198 C197 1.378 . S
C198 C199 1.378 . S
C198 H210 0.952 . S
C199 C198 1.378 . S
C199 H211 0.950 . S
C199 C230 1.383 . S
H200 C219 0.947 . S
H201 C220 0.946 . S
H202 C222 0.953 . S
H203 C223 0.945 . S
H204 C225 0.952 . S
H205 C226 0.949 . S
H206 C228 0.950 . S
H207 C229 0.948 . S
H208 C231 0.951 . S
H209 C196 0.947 . S
H210 C198 0.952 . S
H211 C199 0.950 . S
N212 C215 1.382 1_455 S
N212 C217 1.363 . S
N213 C215 1.371 1_455 S
N213 C216 1.372 . S
N214 C216 1.361 . S
N214 C217 1.377 . S
C215 N212 1.382 1_655 S
C215 N213 1.371 1_655 S
C215 C218 1.480 . S
C216 N213 1.372 . S
C216 N214 1.361 . S
C216 C224 1.457 . S
C217 N212 1.363 . S
C217 N214 1.377 . S
C217 C230 1.479 . S
C218 C215 1.480 . S
C218 C219 1.383 . S
C218 C223 1.385 . S
C219 H200 0.947 . S
C219 C218 1.383 . S
C219 C220 1.388 . S
C220 H201 0.946 . S
C220 C219 1.388 . S
C220 C221 1.384 . S
C221 C220 1.384 . S
C221 C222 1.377 . S
C222 H202 0.953 . S
C222 C221 1.377 . S
C222 C223 1.369 . S
C223 H203 0.945 . S
C223 C218 1.385 . S
C223 C222 1.369 . S
C224 C216 1.457 . S
C224 C225 1.372 . S
C224 C229 1.364 . S
C225 H204 0.952 . S
C225 C224 1.372 . S
C225 C226 1.389 . S
C226 H205 0.949 . S
C226 C225 1.389 . S
C226 C227 1.387 . S
C227 C226 1.387 . S
C227 C228 1.372 . S
C228 H206 0.950 . S
C228 C227 1.372 . S
C228 C229 1.379 . S
C229 H207 0.948 . S
C229 C224 1.364 . S
C229 C228 1.379 . S
C230 C199 1.383 . S
C230 C217 1.479 . S
C230 C231 1.398 . S
C231 C196 1.382 . S
C231 H208 0.951 . S
C231 C230 1.398 . S
C232 C233 1.384 . S
C232 H245 0.947 . S
C232 C267 1.382 . S
C233 C232 1.384 . S
C233 C234 1.378 . S
C234 C233 1.378 . S
C234 C235 1.378 . S
C234 H246 0.952 . S
C235 C234 1.378 . S
C235 H247 0.950 . S
C235 C266 1.383 . S
H236 C255 0.947 . S
H237 C256 0.946 . S
H238 C258 0.953 . S
H239 C259 0.945 . S
H240 C261 0.952 . S
H241 C262 0.949 . S
H242 C264 0.950 . S
H243 C265 0.948 . S
H244 C267 0.951 . S
H245 C232 0.947 . S
H246 C234 0.952 . S
H247 C235 0.950 . S
N248 C251 1.382 1_565 S
N248 C253 1.363 . S
N249 C251 1.371 1_565 S
N249 C252 1.372 . S
N250 C252 1.361 . S
N250 C253 1.377 . S
C251 N248 1.382 1_545 S
C251 N249 1.371 1_545 S
C251 C254 1.480 . S
C252 N249 1.372 . S
C252 N250 1.361 . S
C252 C260 1.457 . S
C253 N248 1.363 . S
C253 N250 1.377 . S
C253 C266 1.479 . S
C254 C251 1.480 . S
C254 C255 1.383 . S
C254 C259 1.385 . S
C255 H236 0.947 . S
C255 C254 1.383 . S
C255 C256 1.388 . S
C256 H237 0.946 . S
C256 C255 1.388 . S
C256 C257 1.384 . S
C257 C256 1.384 . S
C257 C258 1.377 . S
C258 H238 0.953 . S
C258 C257 1.377 . S
C258 C259 1.369 . S
C259 H239 0.945 . S
C259 C254 1.385 . S
C259 C258 1.369 . S
C260 C252 1.457 . S
C260 C261 1.372 . S
C260 C265 1.364 . S
C261 H240 0.952 . S
C261 C260 1.372 . S
C261 C262 1.389 . S
C262 H241 0.949 . S
C262 C261 1.389 . S
C262 C263 1.387 . S
C263 C262 1.387 . S
C263 C264 1.372 . S
C264 H242 0.950 . S
C264 C263 1.372 . S
C264 C265 1.379 . S
C265 H243 0.948 . S
C265 C260 1.364 . S
C265 C264 1.379 . S
C266 C235 1.383 . S
C266 C253 1.479 . S
C266 C267 1.398 . S
C267 C232 1.382 . S
C267 H244 0.951 . S
C267 C266 1.398 . S
C268 C269 1.384 . S
C268 H281 0.947 . S
C268 C303 1.382 . S
C269 C268 1.384 . S
C269 C270 1.378 . S
C270 C269 1.378 . S
C270 C271 1.378 . S
C270 H282 0.952 . S
C271 C270 1.378 . S
C271 H283 0.950 . S
C271 C302 1.383 . S
H272 C291 0.947 . S
H273 C292 0.946 . S
H274 C294 0.953 . S
H275 C295 0.945 . S
H276 C297 0.952 . S
H277 C298 0.949 . S
H278 C300 0.950 . S
H279 C301 0.948 . S
H280 C303 0.951 . S
H281 C268 0.947 . S
H282 C270 0.952 . S
H283 C271 0.950 . S
N284 C287 1.382 1_556 S
N284 C289 1.363 . S
N285 C287 1.371 . S
N285 C288 1.372 . S
N286 C288 1.361 . S
N286 C289 1.377 1_554 S
C287 N284 1.382 1_554 S
C287 N285 1.371 . S
C287 C290 1.480 . S
C288 N285 1.372 . S
C288 N286 1.361 . S
C288 C296 1.457 . S
C289 N284 1.363 . S
C289 N286 1.377 1_556 S
C289 C302 1.479 . S
C290 C287 1.480 . S
C290 C291 1.383 1_554 S
C290 C295 1.385 . S
C291 H272 0.947 . S
C291 C290 1.383 1_556 S
C291 C292 1.388 . S
C292 H273 0.946 . S
C292 C291 1.388 . S
C292 C293 1.384 1_556 S
C293 C292 1.384 1_554 S
C293 C294 1.377 . S
C294 H274 0.953 . S
C294 C293 1.377 . S
C294 C295 1.369 . S
C295 H275 0.945 . S
C295 C290 1.385 . S
C295 C294 1.369 . S
C296 C288 1.457 . S
C296 C297 1.372 . S
C296 C301 1.364 . S
C297 H276 0.952 . S
C297 C296 1.372 . S
C297 C298 1.389 . S
C298 H277 0.949 . S
C298 C297 1.389 . S
C298 C299 1.387 . S
C299 C298 1.387 . S
C299 C300 1.372 . S
C300 H278 0.950 . S
C300 C299 1.372 . S
C300 C301 1.379 . S
C301 H279 0.948 . S
C301 C296 1.364 . S
C301 C300 1.379 . S
C302 C271 1.383 . S
C302 C289 1.479 . S
C302 C303 1.398 . S
C303 C268 1.382 . S
C303 H280 0.951 . S
C303 C302 1.398 . S
C304 C305 1.384 . S
C304 H317 0.947 . S
C304 C339 1.382 . S
C305 C304 1.384 . S
C305 C306 1.378 . S
C306 C305 1.378 . S
C306 C307 1.378 . S
C306 H318 0.952 . S
C307 C306 1.378 . S
C307 H319 0.950 . S
C307 C338 1.383 . S
H308 C327 0.947 . S
H309 C328 0.946 . S
H310 C330 0.953 . S
H311 C331 0.945 . S
H312 C333 0.952 . S
H313 C334 0.949 . S
H314 C336 0.950 . S
H315 C337 0.948 . S
H316 C339 0.951 . S
H317 C304 0.947 . S
H318 C306 0.952 . S
H319 C307 0.950 . S
N320 C323 1.382 1_545 S
N320 C325 1.363 . S
N321 C323 1.371 1_545 S
N321 C324 1.372 . S
N322 C324 1.361 . S
N322 C325 1.377 . S
C323 N320 1.382 1_565 S
C323 N321 1.371 1_565 S
C323 C326 1.480 . S
C324 N321 1.372 . S
C324 N322 1.361 . S
C324 C332 1.457 . S
C325 N320 1.363 . S
C325 N322 1.377 . S
C325 C338 1.479 . S
C326 C323 1.480 . S
C326 C327 1.383 . S
C326 C331 1.385 . S
C327 H308 0.947 . S
C327 C326 1.383 . S
C327 C328 1.388 . S
C328 H309 0.946 . S
C328 C327 1.388 . S
C328 C329 1.384 . S
C329 C328 1.384 . S
C329 C330 1.377 . S
C330 H310 0.953 . S
C330 C329 1.377 . S
C330 C331 1.369 . S
C331 H311 0.945 . S
C331 C326 1.385 . S
C331 C330 1.369 . S
C332 C324 1.457 . S
C332 C333 1.372 . S
C332 C337 1.364 . S
C333 H312 0.952 . S
C333 C332 1.372 . S
C333 C334 1.389 . S
C334 H313 0.949 . S
C334 C333 1.389 . S
C334 C335 1.387 . S
C335 C334 1.387 . S
C335 C336 1.372 . S
C336 H314 0.950 . S
C336 C335 1.372 . S
C336 C337 1.379 . S
C337 H315 0.948 . S
C337 C332 1.364 . S
C337 C336 1.379 . S
C338 C307 1.383 . S
C338 C325 1.479 . S
C338 C339 1.398 . S
C339 C304 1.382 . S
C339 H316 0.951 . S
C339 C338 1.398 . S
C340 C341 1.384 . S
C340 H353 0.947 . S
C340 C375 1.382 . S
C341 C340 1.384 . S
C341 C342 1.378 . S
C342 C341 1.378 . S
C342 C343 1.378 . S
C342 H354 0.952 . S
C343 C342 1.378 . S
C343 H355 0.950 . S
C343 C374 1.383 . S
H344 C363 0.947 . S
H345 C364 0.946 . S
H346 C366 0.953 . S
H347 C367 0.945 . S
H348 C369 0.952 . S
H349 C370 0.949 . S
H350 C372 0.950 . S
H351 C373 0.948 . S
H352 C375 0.951 . S
H353 C340 0.947 . S
H354 C342 0.952 . S
H355 C343 0.950 . S
N356 C359 1.365 1_554 S
N356 C361 1.363 . S
N357 C359 1.388 . S
N357 C360 1.372 . S
N358 C360 1.361 . S
N358 C361 1.377 1_556 S
C359 N356 1.365 1_556 S
C359 N357 1.388 . S
C359 C362 1.480 . S
C360 N357 1.372 . S
C360 N358 1.361 . S
C360 C368 1.457 . S
C361 N356 1.363 . S
C361 N358 1.377 1_554 S
C361 C374 1.479 . S
C362 C359 1.480 . S
C362 C363 1.383 1_556 S
C362 C367 1.385 . S
C363 H344 0.947 . S
C363 C362 1.383 1_554 S
C363 C364 1.388 . S
C364 H345 0.946 . S
C364 C363 1.388 . S
C364 C365 1.384 1_554 S
C365 C364 1.384 1_556 S
C365 C366 1.377 . S
C366 H346 0.953 . S
C366 C365 1.377 . S
C366 C367 1.369 . S
C367 H347 0.945 . S
C367 C362 1.385 . S
C367 C366 1.369 . S
C368 C360 1.457 . S
C368 C369 1.372 . S
C368 C373 1.364 . S
C369 H348 0.952 . S
C369 C368 1.372 . S
C369 C370 1.389 . S
C370 H349 0.949 . S
C370 C369 1.389 . S
C370 C371 1.387 . S
C371 C370 1.387 . S
C371 C372 1.372 . S
C372 H350 0.950 . S
C372 C371 1.372 . S
C372 C373 1.379 . S
C373 H351 0.948 . S
C373 C368 1.364 . S
C373 C372 1.379 . S
C374 C343 1.383 . S
C374 C361 1.479 . S
C374 C375 1.398 . S
C375 C340 1.382 . S
C375 H352 0.951 . S
C375 C374 1.398 . S
H376 C382 0.930 . S
H377 C386 0.930 . S
H378 C391 0.929 . S
H379 C389 0.929 . S
H380 C384 0.929 . S
H381 C390 0.929 . S
C382 H376 0.930 . S
C382 C383 1.367 . S
C382 C390 1.378 . S
C383 C382 1.367 . S
C383 C391 1.433 . S
C384 H380 0.929 . S
C384 C386 1.378 . S
C384 C388 1.350 . S
C385 C388 1.463 . S
C385 C390 1.350 . S
C385 N393 1.427 . S
C386 H377 0.930 . S
C386 C384 1.378 . S
C386 C387 1.367 . S
C387 C386 1.367 . S
C387 C389 1.433 . S
C388 C384 1.350 . S
C388 C385 1.463 . S
C388 N392 1.427 . S
C389 H379 0.929 . S
C389 C387 1.433 . S
C389 N392 1.384 . S
C390 H381 0.929 . S
C390 C382 1.378 . S
C390 C385 1.350 . S
C391 H378 0.929 . S
C391 C383 1.433 . S
C391 N393 1.384 . S
N392 C388 1.427 . S
N392 C389 1.384 . S
N393 C385 1.427 . S
N393 C391 1.384 . S
H394 C400 0.930 . S
H395 C404 0.930 . S
H396 C409 0.929 . S
H397 C407 0.929 . S
H398 C402 0.929 . S
H399 C408 0.929 . S
C400 H394 0.930 . S
C400 C401 1.367 . S
C400 C408 1.378 . S
C401 C400 1.367 . S
C401 C409 1.433 . S
C402 H398 0.929 . S
C402 C404 1.378 . S
C402 C406 1.350 . S
C403 C406 1.463 . S
C403 C408 1.350 . S
C403 N411 1.427 . S
C404 H395 0.930 . S
C404 C402 1.378 . S
C404 C405 1.367 . S
C405 C404 1.367 . S
C405 C407 1.433 . S
C406 C402 1.350 . S
C406 C403 1.463 . S
C406 N410 1.427 . S
C407 H397 0.929 . S
C407 C405 1.433 . S
C407 N410 1.384 . S
C408 H399 0.929 . S
C408 C400 1.378 . S
C408 C403 1.350 . S
C409 H396 0.929 . S
C409 C401 1.433 . S
C409 N411 1.384 . S
N410 C406 1.427 . S
N410 C407 1.384 . S
N411 C403 1.427 . S
N411 C409 1.384 . S
H412 C418 0.930 . S
H413 C422 0.930 . S
H414 C427 0.929 . S
H415 C425 0.929 . S
H416 C420 0.929 . S
H417 C426 0.929 . S
C418 H412 0.930 . S
C418 C419 1.367 . S
C418 C426 1.378 . S
C419 C418 1.367 . S
C419 C427 1.433 . S
C420 H416 0.929 . S
C420 C422 1.378 . S
C420 C424 1.350 . S
C421 C424 1.463 . S
C421 C426 1.350 . S
C421 N429 1.427 . S
C422 H413 0.930 . S
C422 C420 1.378 . S
C422 C423 1.367 . S
C423 C422 1.367 . S
C423 C425 1.433 . S
C424 C420 1.350 . S
C424 C421 1.463 . S
C424 N428 1.427 . S
C425 H415 0.929 . S
C425 C423 1.433 . S
C425 N428 1.384 . S
C426 H417 0.929 . S
C426 C418 1.378 . S
C426 C421 1.350 . S
C427 H414 0.929 . S
C427 C419 1.433 . S
C427 N429 1.384 . S
N428 C424 1.427 . S
N428 C425 1.384 . S
N429 C421 1.427 . S
N429 C427 1.384 . S
H430 C436 0.930 . S
H431 C440 0.930 . S
H432 C445 0.929 . S
H433 C443 0.929 . S
H434 C438 0.929 . S
H435 C444 0.929 . S
C436 H430 0.930 . S
C436 C437 1.367 . S
C436 C444 1.378 . S
C437 C436 1.367 . S
C437 C445 1.433 . S
C438 H434 0.929 . S
C438 C440 1.378 . S
C438 C442 1.350 . S
C439 C442 1.463 . S
C439 C444 1.350 . S
C439 N447 1.427 . S
C440 H431 0.930 . S
C440 C438 1.378 . S
C440 C441 1.367 . S
C441 C440 1.367 . S
C441 C443 1.433 . S
C442 C438 1.350 . S
C442 C439 1.463 . S
C442 N446 1.427 . S
C443 H433 0.929 . S
C443 C441 1.433 . S
C443 N446 1.384 . S
C444 H435 0.929 . S
C444 C436 1.378 . S
C444 C439 1.350 . S
C445 H432 0.929 . S
C445 C437 1.433 . S
C445 N447 1.384 . S
N446 C442 1.427 . S
N446 C443 1.384 . S
N447 C439 1.427 . S
N447 C445 1.384 . S
H448 C454 0.930 . S
H449 C458 0.930 . S
H450 C463 0.929 . S
H451 C461 0.929 . S
H452 C456 0.929 . S
H453 C462 0.929 . S
C454 H448 0.930 . S
C454 C455 1.367 . S
C454 C462 1.378 . S
C455 C454 1.367 . S
C455 C463 1.433 . S
C456 H452 0.929 . S
C456 C458 1.378 . S
C456 C460 1.350 . S
C457 C460 1.463 . S
C457 C462 1.350 . S
C457 N465 1.427 . S
C458 H449 0.930 . S
C458 C456 1.378 . S
C458 C459 1.367 . S
C459 C458 1.367 . S
C459 C461 1.433 . S
C460 C456 1.350 . S
C460 C457 1.463 . S
C460 N464 1.427 . S
C461 H451 0.929 . S
C461 C459 1.433 . S
C461 N464 1.384 . S
C462 H453 0.929 . S
C462 C454 1.378 . S
C462 C457 1.350 . S
C463 H450 0.929 . S
C463 C455 1.433 . S
C463 N465 1.384 . S
N464 C460 1.427 . S
N464 C461 1.384 . S
N465 C457 1.427 . S
N465 C463 1.384 . S
H466 C472 0.930 . S
H467 C476 0.930 . S
H468 C481 0.929 . S
H469 C479 0.929 . S
H470 C474 0.929 . S
H471 C480 0.929 . S
C472 H466 0.930 . S
C472 C473 1.367 . S
C472 C480 1.378 . S
C473 C472 1.367 . S
C473 C481 1.433 . S
C474 H470 0.929 . S
C474 C476 1.378 . S
C474 C478 1.350 . S
C475 C478 1.463 . S
C475 C480 1.350 . S
C475 N483 1.427 . S
C476 H467 0.930 . S
C476 C474 1.378 . S
C476 C477 1.367 . S
C477 C476 1.367 . S
C477 C479 1.433 . S
C478 C474 1.350 . S
C478 C475 1.463 . S
C478 N482 1.427 . S
C479 H469 0.929 . S
C479 C477 1.433 . S
C479 N482 1.384 . S
C480 H471 0.929 . S
C480 C472 1.378 . S
C480 C475 1.350 . S
C481 H468 0.929 . S
C481 C473 1.433 . S
C481 N483 1.384 . S
N482 C478 1.427 . S
N482 C479 1.384 . S
N483 C475 1.427 . S
N483 C481 1.384 . S
H484 C490 0.930 . S
H485 C494 0.930 . S
H486 C499 0.929 . S
H487 C497 0.929 . S
H488 C492 0.929 . S
H489 C498 0.929 . S
C490 H484 0.930 . S
C490 C491 1.367 . S
C490 C498 1.378 . S
C491 C490 1.367 . S
C491 C499 1.433 . S
C492 H488 0.929 . S
C492 C494 1.378 . S
C492 C496 1.350 . S
C493 C496 1.463 . S
C493 C498 1.350 . S
C493 N501 1.427 . S
C494 H485 0.930 . S
C494 C492 1.378 . S
C494 C495 1.367 . S
C495 C494 1.367 . S
C495 C497 1.433 . S
C496 C492 1.350 . S
C496 C493 1.463 . S
C496 N500 1.427 . S
C497 H487 0.929 . S
C497 C495 1.433 . S
C497 N500 1.384 . S
C498 H489 0.929 . S
C498 C490 1.378 . S
C498 C493 1.350 . S
C499 H486 0.929 . S
C499 C491 1.433 . S
C499 N501 1.384 . S
N500 C496 1.427 . S
N500 C497 1.384 . S
N501 C493 1.427 . S
N501 C499 1.384 . S
H502 C508 0.930 . S
H503 C512 0.930 . S
H504 C517 0.929 . S
H505 C515 0.929 . S
H506 C510 0.929 . S
H507 C516 0.929 . S
C508 H502 0.930 . S
C508 C509 1.367 . S
C508 C516 1.378 . S
C509 C508 1.367 . S
C509 C517 1.433 . S
C510 H506 0.929 . S
C510 C512 1.378 . S
C510 C514 1.350 . S
C511 C514 1.463 . S
C511 C516 1.350 . S
C511 N519 1.427 . S
C512 H503 0.930 . S
C512 C510 1.378 . S
C512 C513 1.367 . S
C513 C512 1.367 . S
C513 C515 1.433 . S
C514 C510 1.350 . S
C514 C511 1.463 . S
C514 N518 1.427 . S
C515 H505 0.929 . S
C515 C513 1.433 . S
C515 N518 1.384 . S
C516 H507 0.929 . S
C516 C508 1.378 . S
C516 C511 1.350 . S
C517 H504 0.929 . S
C517 C509 1.433 . S
C517 N519 1.384 . S
N518 C514 1.427 . S
N518 C515 1.384 . S
N519 C511 1.427 . S
N519 C517 1.384 . S
H520 C526 0.930 . S
H521 C530 0.930 . S
H522 C535 0.929 . S
H523 C533 0.929 . S
H524 C528 0.929 . S
H525 C534 0.929 . S
C526 H520 0.930 . S
C526 C527 1.367 . S
C526 C534 1.378 . S
C527 C526 1.367 . S
C527 C535 1.433 . S
C528 H524 0.929 . S
C528 C530 1.378 . S
C528 C532 1.350 . S
C529 C532 1.463 . S
C529 C534 1.350 . S
C529 N537 1.427 . S
C530 H521 0.930 . S
C530 C528 1.378 . S
C530 C531 1.367 . S
C531 C530 1.367 . S
C531 C533 1.433 . S
C532 C528 1.350 . S
C532 C529 1.463 . S
C532 N536 1.427 . S
C533 H523 0.929 . S
C533 C531 1.433 . S
C533 N536 1.384 . S
C534 H525 0.929 . S
C534 C526 1.378 . S
C534 C529 1.350 . S
C535 H522 0.929 . S
C535 C527 1.433 . S
C535 N537 1.384 . S
N536 C532 1.427 . S
N536 C533 1.384 . S
N537 C529 1.427 . S
N537 C535 1.384 . S
H538 C544 0.930 . S
H539 C548 0.930 . S
H540 C553 0.929 . S
H541 C551 0.929 . S
H542 C546 0.929 . S
H543 C552 0.929 . S
C544 H538 0.930 . S
C544 C545 1.367 . S
C544 C552 1.378 . S
C545 C544 1.367 . S
C545 C553 1.433 . S
C546 H542 0.929 . S
C546 C548 1.378 . S
C546 C550 1.350 . S
C547 C550 1.463 . S
C547 C552 1.350 . S
C547 N555 1.427 . S
C548 H539 0.930 . S
C548 C546 1.378 . S
C548 C549 1.367 . S
C549 C548 1.367 . S
C549 C551 1.433 . S
C550 C546 1.350 . S
C550 C547 1.463 . S
C550 N554 1.427 . S
C551 H541 0.929 . S
C551 C549 1.433 . S
C551 N554 1.384 . S
C552 H543 0.929 . S
C552 C544 1.378 . S
C552 C547 1.350 . S
C553 H540 0.929 . S
C553 C545 1.433 . S
C553 N555 1.384 . S
N554 C550 1.427 . S
N554 C551 1.384 . S
N555 C547 1.427 . S
N555 C553 1.384 . S
H556 C562 0.930 . S
H557 C566 0.930 . S
H558 C571 0.929 . S
H559 C569 0.929 . S
H560 C564 0.929 . S
H561 C570 0.929 . S
C562 H556 0.930 . S
C562 C563 1.367 . S
C562 C570 1.378 . S
C563 C562 1.367 . S
C563 C571 1.433 . S
C564 H560 0.929 . S
C564 C566 1.378 . S
C564 C568 1.350 . S
C565 C568 1.463 . S
C565 C570 1.350 . S
C565 N573 1.427 . S
C566 H557 0.930 . S
C566 C564 1.378 . S
C566 C567 1.367 . S
C567 C566 1.367 . S
C567 C569 1.433 . S
C568 C564 1.350 . S
C568 C565 1.463 . S
C568 N572 1.427 . S
C569 H559 0.929 . S
C569 C567 1.433 . S
C569 N572 1.384 . S
C570 H561 0.929 . S
C570 C562 1.378 . S
C570 C565 1.350 . S
C571 H558 0.929 . S
C571 C563 1.433 . S
C571 N573 1.384 . S
N572 C568 1.427 . S
N572 C569 1.384 . S
N573 C565 1.427 . S
N573 C571 1.384 . S
H574 C580 0.930 . S
H575 C584 0.930 . S
H576 C589 0.929 . S
H577 C587 0.929 . S
H578 C582 0.929 . S
H579 C588 0.929 . S
C580 H574 0.930 . S
C580 C581 1.367 . S
C580 C588 1.378 . S
C581 C580 1.367 . S
C581 C589 1.433 . S
C582 H578 0.929 . S
C582 C584 1.378 . S
C582 C586 1.350 . S
C583 C586 1.463 . S
C583 C588 1.350 . S
C583 N591 1.427 . S
C584 H575 0.930 . S
C584 C582 1.378 . S
C584 C585 1.367 . S
C585 C584 1.367 . S
C585 C587 1.433 . S
C586 C582 1.350 . S
C586 C583 1.463 . S
C586 N590 1.427 . S
C587 H577 0.929 . S
C587 C585 1.433 . S
C587 N590 1.384 . S
C588 H579 0.929 . S
C588 C580 1.378 . S
C588 C583 1.350 . S
C589 H576 0.929 . S
C589 C581 1.433 . S
C589 N591 1.384 . S
N590 C586 1.427 . S
N590 C587 1.384 . S
N591 C583 1.427 . S
N591 C589 1.384 . S
H592 C598 0.930 . S
H593 C602 0.930 . S
H594 C607 0.929 . S
H595 C605 0.929 . S
H596 C600 0.929 . S
H597 C606 0.929 . S
C598 H592 0.930 . S
C598 C599 1.367 . S
C598 C606 1.378 . S
C599 C598 1.367 . S
C599 C607 1.433 . S
C600 H596 0.929 . S
C600 C602 1.378 . S
C600 C604 1.350 . S
C601 C604 1.463 . S
C601 C606 1.350 . S
C601 N609 1.427 . S
C602 H593 0.930 . S
C602 C600 1.378 . S
C602 C603 1.367 . S
C603 C602 1.367 . S
C603 C605 1.433 . S
C604 C600 1.350 . S
C604 C601 1.463 . S
C604 N608 1.427 . S
C605 H595 0.929 . S
C605 C603 1.433 . S
C605 N608 1.384 . S
C606 H597 0.929 . S
C606 C598 1.378 . S
C606 C601 1.350 . S
C607 H594 0.929 . S
C607 C599 1.433 . S
C607 N609 1.384 . S
N608 C604 1.427 . S
N608 C605 1.384 . S
N609 C601 1.427 . S
N609 C607 1.384 . S
H610 C616 0.930 . S
H611 C620 0.930 . S
H612 C625 0.929 . S
H613 C623 0.929 . S
H614 C618 0.929 . S
H615 C624 0.929 . S
C616 H610 0.930 . S
C616 C617 1.367 . S
C616 C624 1.378 . S
C617 C616 1.367 . S
C617 C625 1.433 . S
C618 H614 0.929 . S
C618 C620 1.378 . S
C618 C622 1.350 . S
C619 C622 1.463 . S
C619 C624 1.350 . S
C619 N627 1.427 . S
C620 H611 0.930 . S
C620 C618 1.378 . S
C620 C621 1.367 . S
C621 C620 1.367 . S
C621 C623 1.433 . S
C622 C618 1.350 . S
C622 C619 1.463 . S
C622 N626 1.427 . S
C623 H613 0.929 . S
C623 C621 1.433 . S
C623 N626 1.384 . S
C624 H615 0.929 . S
C624 C616 1.378 . S
C624 C619 1.350 . S
C625 H612 0.929 . S
C625 C617 1.433 . S
C625 N627 1.384 . S
N626 C622 1.427 . S
N626 C623 1.384 . S
N627 C619 1.427 . S
N627 C625 1.384 . S
H628 C634 0.930 . S
H629 C638 0.930 . S
H630 C643 0.929 . S
H631 C641 0.929 . S
H632 C636 0.929 . S
H633 C642 0.929 . S
C634 H628 0.930 . S
C634 C635 1.367 . S
C634 C642 1.378 . S
C635 C634 1.367 . S
C635 C643 1.433 . S
C636 H632 0.929 . S
C636 C638 1.378 . S
C636 C640 1.350 . S
C637 C640 1.463 . S
C637 C642 1.350 . S
C637 N645 1.427 . S
C638 H629 0.930 . S
C638 C636 1.378 . S
C638 C639 1.367 . S
C639 C638 1.367 . S
C639 C641 1.433 . S
C640 C636 1.350 . S
C640 C637 1.463 . S
C640 N644 1.427 . S
C641 H631 0.929 . S
C641 C639 1.433 . S
C641 N644 1.384 . S
C642 H633 0.929 . S
C642 C634 1.378 . S
C642 C637 1.350 . S
C643 H630 0.929 . S
C643 C635 1.433 . S
C643 N645 1.384 . S
N644 C640 1.427 . S
N644 C641 1.384 . S
N645 C637 1.427 . S
N645 C643 1.384 . S
H646 C652 0.930 . S
H647 C656 0.930 . S
H648 C661 0.929 . S
H649 C659 0.929 . S
H650 C654 0.929 . S
H651 C660 0.929 . S
C652 H646 0.930 . S
C652 C653 1.367 . S
C652 C660 1.378 . S
C653 C652 1.367 . S
C653 C661 1.433 . S
C654 H650 0.929 . S
C654 C656 1.378 . S
C654 C658 1.350 . S
C655 C658 1.463 . S
C655 C660 1.350 . S
C655 N663 1.427 . S
C656 H647 0.930 . S
C656 C654 1.378 . S
C656 C657 1.367 . S
C657 C656 1.367 . S
C657 C659 1.433 . S
C658 C654 1.350 . S
C658 C655 1.463 . S
C658 N662 1.427 . S
C659 H649 0.929 . S
C659 C657 1.433 . S
C659 N662 1.384 . S
C660 H651 0.929 . S
C660 C652 1.378 . S
C660 C655 1.350 . S
C661 H648 0.929 . S
C661 C653 1.433 . S
C661 N663 1.384 . S
N662 C658 1.427 . S
N662 C659 1.384 . S
N663 C655 1.427 . S
N663 C661 1.384 . S
H664 C670 0.930 . S
H665 C674 0.930 . S
H666 C679 0.929 . S
H667 C677 0.929 . S
H668 C672 0.929 . S
H669 C678 0.929 . S
C670 H664 0.930 . S
C670 C671 1.367 . S
C670 C678 1.378 . S
C671 C670 1.367 . S
C671 C679 1.433 1_554 S
C672 H668 0.929 . S
C672 C674 1.378 . S
C672 C676 1.350 . S
C673 C676 1.463 1_554 S
C673 C678 1.350 . S
C673 N681 1.427 1_554 S
C674 H665 0.930 . S
C674 C672 1.378 . S
C674 C675 1.380 . S
C675 C674 1.380 . S
C675 C677 1.420 1_556 S
C676 C672 1.350 . S
C676 C673 1.463 1_556 S
C676 N680 1.427 1_556 S
C677 H667 0.929 . S
C677 C675 1.420 1_554 S
C677 N680 1.384 . S
C678 H669 0.929 . S
C678 C670 1.378 . S
C678 C673 1.350 . S
C679 H666 0.929 . S
C679 C671 1.433 1_556 S
C679 N681 1.384 . S
N680 C676 1.427 1_554 S
N680 C677 1.384 . S
N681 C673 1.427 1_556 S
N681 C679 1.384 . S
H682 C688 0.930 . S
H683 C692 0.930 . S
H684 C697 0.929 . S
H685 C695 0.929 . S
H686 C690 0.929 . S
H687 C696 0.929 . S
C688 H682 0.930 . S
C688 C689 1.367 . S
C688 C696 1.378 . S
C689 C688 1.367 . S
C689 C697 1.433 . S
C690 H686 0.929 . S
C690 C692 1.378 . S
C690 C694 1.350 . S
C691 C694 1.463 . S
C691 C696 1.350 . S
C691 N699 1.427 . S
C692 H683 0.930 . S
C692 C690 1.378 . S
C692 C693 1.367 . S
C693 C692 1.367 . S
C693 C695 1.433 . S
C694 C690 1.350 . S
C694 C691 1.463 . S
C694 N698 1.427 . S
C695 H685 0.929 . S
C695 C693 1.433 . S
C695 N698 1.384 . S
C696 H687 0.929 . S
C696 C688 1.378 . S
C696 C691 1.350 . S
C697 H684 0.929 . S
C697 C689 1.433 . S
C697 N699 1.384 . S
N698 C694 1.427 . S
N698 C695 1.384 . S
N699 C691 1.427 . S
N699 C697 1.384 . S
H700 C706 0.930 . S
H701 C710 0.930 . S
H702 C715 0.929 . S
H703 C713 0.929 . S
H704 C708 0.929 . S
H705 C714 0.929 . S
C706 H700 0.930 . S
C706 C707 1.367 . S
C706 C714 1.378 . S
C707 C706 1.367 . S
C707 C715 1.433 1_554 S
C708 H704 0.929 . S
C708 C710 1.378 . S
C708 C712 1.361 . S
C709 C712 1.462 1_554 S
C709 C714 1.350 . S
C709 N717 1.427 1_554 S
C710 H701 0.930 . S
C710 C708 1.378 . S
C710 C711 1.365 . S
C711 C710 1.365 . S
C711 C713 1.435 1_556 S
C712 C708 1.361 . S
C712 C709 1.462 1_556 S
C712 N716 1.416 1_556 S
C713 H703 0.929 . S
C713 C711 1.435 1_554 S
C713 N716 1.384 . S
C714 H705 0.929 . S
C714 C706 1.378 . S
C714 C709 1.350 . S
C715 H702 0.929 . S
C715 C707 1.433 1_556 S
C715 N717 1.384 . S
N716 C712 1.416 1_554 S
N716 C713 1.384 . S
N717 C709 1.427 1_556 S
N717 C715 1.384 . S
H718 C724 0.930 . S
H719 C728 0.930 . S
H720 C733 0.929 . S
H721 C731 0.929 . S
H722 C726 0.929 . S
H723 C732 0.929 . S
C724 H718 0.930 . S
C724 C725 1.367 . S
C724 C732 1.378 . S
C725 C724 1.367 . S
C725 C733 1.433 . S
C726 H722 0.929 . S
C726 C728 1.378 . S
C726 C730 1.350 . S
C727 C730 1.463 . S
C727 C732 1.350 . S
C727 N735 1.427 . S
C728 H719 0.930 . S
C728 C726 1.378 . S
C728 C729 1.367 . S
C729 C728 1.367 . S
C729 C731 1.433 . S
C730 C726 1.350 . S
C730 C727 1.463 . S
C730 N734 1.427 . S
C731 H721 0.929 . S
C731 C729 1.433 . S
C731 N734 1.384 . S
C732 H723 0.929 . S
C732 C724 1.378 . S
C732 C727 1.350 . S
C733 H720 0.929 . S
C733 C725 1.433 . S
C733 N735 1.384 . S
N734 C730 1.427 . S
N734 C731 1.384 . S
N735 C727 1.427 . S
N735 C733 1.384 . S
H736 C742 0.930 . S
H737 C746 0.930 . S
H738 C751 0.929 . S
H739 C749 0.929 . S
H740 C744 0.929 . S
H741 C750 0.929 . S
C742 H736 0.930 . S
C742 C743 1.367 . S
C742 C750 1.378 . S
C743 C742 1.367 . S
C743 C751 1.433 . S
C744 H740 0.929 . S
C744 C746 1.378 . S
C744 C748 1.350 . S
C745 C748 1.463 . S
C745 C750 1.350 . S
C745 N753 1.427 . S
C746 H737 0.930 . S
C746 C744 1.378 . S
C746 C747 1.367 . S
C747 C746 1.367 . S
C747 C749 1.433 . S
C748 C744 1.350 . S
C748 C745 1.463 . S
C748 N752 1.427 . S
C749 H739 0.929 . S
C749 C747 1.433 . S
C749 N752 1.384 . S
C750 H741 0.929 . S
C750 C742 1.378 . S
C750 C745 1.350 . S
C751 H738 0.929 . S
C751 C743 1.433 . S
C751 N753 1.384 . S
N752 C748 1.427 . S
N752 C749 1.384 . S
N753 C745 1.427 . S
N753 C751 1.384 . S
H754 C760 0.930 . S
H755 C764 0.930 . S
H756 C769 0.929 . S
H757 C767 0.929 . S
H758 C762 0.929 . S
H759 C768 0.929 . S
C760 H754 0.930 . S
C760 C761 1.367 . S
C760 C768 1.378 . S
C761 C760 1.367 . S
C761 C769 1.433 1_554 S
C762 H758 0.929 . S
C762 C764 1.378 . S
C762 C766 1.362 . S
C763 C766 1.462 1_554 S
C763 C768 1.350 . S
C763 N771 1.427 1_554 S
C764 H755 0.930 . S
C764 C762 1.378 . S
C764 C765 1.365 . S
C765 C764 1.365 . S
C765 C767 1.435 1_556 S
C766 C762 1.362 . S
C766 C763 1.462 1_556 S
C766 N770 1.415 1_556 S
C767 H757 0.929 . S
C767 C765 1.435 1_554 S
C767 N770 1.384 . S
C768 H759 0.929 . S
C768 C760 1.378 . S
C768 C763 1.350 . S
C769 H756 0.929 . S
C769 C761 1.433 1_556 S
C769 N771 1.384 . S
N770 C766 1.415 1_554 S
N770 C767 1.384 . S
N771 C763 1.427 1_556 S
N771 C769 1.384 . S
H772 C778 0.930 . S
H773 C782 0.930 . S
H774 C787 0.929 . S
H775 C785 0.929 . S
H776 C780 0.929 . S
H777 C786 0.929 . S
C778 H772 0.930 . S
C778 C779 1.367 . S
C778 C786 1.378 . S
C779 C778 1.367 . S
C779 C787 1.433 . S
C780 H776 0.929 . S
C780 C782 1.378 . S
C780 C784 1.350 . S
C781 C784 1.463 . S
C781 C786 1.350 . S
C781 N789 1.427 . S
C782 H773 0.930 . S
C782 C780 1.378 . S
C782 C783 1.367 . S
C783 C782 1.367 . S
C783 C785 1.433 . S
C784 C780 1.350 . S
C784 C781 1.463 . S
C784 N788 1.427 . S
C785 H775 0.929 . S
C785 C783 1.433 . S
C785 N788 1.384 . S
C786 H777 0.929 . S
C786 C778 1.378 . S
C786 C781 1.350 . S
C787 H774 0.929 . S
C787 C779 1.433 . S
C787 N789 1.384 . S
N788 C784 1.427 . S
N788 C785 1.384 . S
N789 C781 1.427 . S
N789 C787 1.384 . S
H790 C796 0.930 . S
H791 C800 0.930 . S
H792 C805 0.929 . S
H793 C803 0.929 . S
H794 C798 0.929 . S
H795 C804 0.929 . S
C796 H790 0.930 . S
C796 C797 1.382 . S
C796 C804 1.378 . S
C797 C796 1.382 . S
C797 C805 1.418 1_556 S
C798 H794 0.929 . S
C798 C800 1.378 . S
C798 C802 1.350 . S
C799 C802 1.463 1_556 S
C799 C804 1.350 . S
C799 N807 1.427 1_556 S
C800 H791 0.930 . S
C800 C798 1.378 . S
C800 C801 1.367 . S
C801 C800 1.367 . S
C801 C803 1.433 1_554 S
C802 C798 1.350 . S
C802 C799 1.463 1_554 S
C802 N806 1.427 1_554 S
C803 H793 0.929 . S
C803 C801 1.433 1_556 S
C803 N806 1.384 . S
C804 H795 0.929 . S
C804 C796 1.378 . S
C804 C799 1.350 . S
C805 H792 0.929 . S
C805 C797 1.418 1_554 S
C805 N807 1.384 . S
N806 C802 1.427 1_556 S
N806 C803 1.384 . S
N807 C799 1.427 1_554 S
N807 C805 1.384 . S
C383 C5 1.474 . S
C387 C197 1.489 . S
C401 C31 1.481 . S
C405 C119 1.456 . S
C423 C155 1.462 . S
C419 C53 1.477 . S
C437 C71 1.474 . S
C441 C161 1.486 . S
C459 C299 1.463 . S
C455 C75 1.478 . S
C477 C305 1.487 . S
C473 C9 1.478 . S
C495 C341 1.482 . S
C491 C27 1.480 . S
C513 C263 1.457 . S
C509 C49 1.478 . S
C527 C51 1.476 . S
C531 C125 1.473 . S
C545 C72 1.478 . S
C549 C191 1.484 . S
C563 C6 1.478 . S
C567 C227 1.480 . S
C585 C89 1.470 . S
C581 C29 1.476 . S
C599 C28 1.480 . S
C603 C371 1.481 . S
C621 C233 1.471 . S
C617 C50 1.475 . S
C639 C269 1.472 . S
C635 C73 1.473 . S
C653 C7 1.478 . S
C657 C335 1.482 . S
C675 C113 1.486 . S
C671 C4 1.500 . S
C693 C149 1.484 . S
C689 C30 1.501 . S
C707 C52 1.502 . S
C711 C185 1.508 1_556 S
C725 C70 1.500 . S
C729 C221 1.507 . S
C747 C257 1.488 . S
C743 C74 1.499 . S
C761 C8 1.502 . S
C765 C293 1.485 1_556 S
C779 C26 1.500 . S
C783 C329 1.509 . S
C797 C48 1.501 1_556 S
C801 C365 1.508 1_554 S
