# Generated by pormake.
# Topology nom, (4,4)-cn, num edge types: 1
# Building blocks:
#     Node 0, Type 0, BuildingBlock: GIZVER_clean_linker_0, # of connection points: 4
#     Node 1, Type 0, BuildingBlock: GIZVER_clean_linker_0, # of connection points: 4
#     Node 2, Type 0, BuildingBlock: GIZVER_clean_linker_0, # of connection points: 4
#     Node 3, Type 0, BuildingBlock: GIZVER_clean_linker_0, # of connection points: 4
#     Node 4, Type 0, BuildingBlock: GIZVER_clean_linker_0, # of connection points: 4
#     Node 5, Type 0, BuildingBlock: GIZVER_clean_linker_0, # of connection points: 4
#     Node 6, Type 1, BuildingBlock: UXUYUI_clean_sbu_0, # of connection points: 4
#     Node 7, Type 1, BuildingBlock: UXUYUI_clean_sbu_0, # of connection points: 4
#     Node 8, Type 1, BuildingBlock: UXUYUI_clean_sbu_0, # of connection points: 4
#     Node 9, Type 1, BuildingBlock: UXUYUI_clean_sbu_0, # of connection points: 4
#     Node 10, Type 1, BuildingBlock: UXUYUI_clean_sbu_0, # of connection points: 4
#     Node 11, Type 1, BuildingBlock: UXUYUI_clean_sbu_0, # of connection points: 4
#     Edge 12, Type (0, 1), BuildingBlock: ZUJKAS_clean_linker_0, # of connection points: 2
#     Edge 13, Type (0, 1), BuildingBlock: ZUJKAS_clean_linker_0, # of connection points: 2
#     Edge 14, Type (0, 1), BuildingBlock: ZUJKAS_clean_linker_0, # of connection points: 2
#     Edge 15, Type (0, 1), BuildingBlock: ZUJKAS_clean_linker_0, # of connection points: 2
#     Edge 16, Type (0, 1), BuildingBlock: ZUJKAS_clean_linker_0, # of connection points: 2
#     Edge 17, Type (0, 1), BuildingBlock: ZUJKAS_clean_linker_0, # of connection points: 2
#     Edge 18, Type (0, 1), BuildingBlock: ZUJKAS_clean_linker_0, # of connection points: 2
#     Edge 19, Type (0, 1), BuildingBlock: ZUJKAS_clean_linker_0, # of connection points: 2
#     Edge 20, Type (0, 1), BuildingBlock: ZUJKAS_clean_linker_0, # of connection points: 2
#     Edge 21, Type (0, 1), BuildingBlock: ZUJKAS_clean_linker_0, # of connection points: 2
#     Edge 22, Type (0, 1), BuildingBlock: ZUJKAS_clean_linker_0, # of connection points: 2
#     Edge 23, Type (0, 1), BuildingBlock: ZUJKAS_clean_linker_0, # of connection points: 2
#     Edge 24, Type (0, 1), BuildingBlock: ZUJKAS_clean_linker_0, # of connection points: 2
#     Edge 25, Type (0, 1), BuildingBlock: ZUJKAS_clean_linker_0, # of connection points: 2
#     Edge 26, Type (0, 1), BuildingBlock: ZUJKAS_clean_linker_0, # of connection points: 2
#     Edge 27, Type (0, 1), BuildingBlock: ZUJKAS_clean_linker_0, # of connection points: 2
#     Edge 28, Type (0, 1), BuildingBlock: ZUJKAS_clean_linker_0, # of connection points: 2
#     Edge 29, Type (0, 1), BuildingBlock: ZUJKAS_clean_linker_0, # of connection points: 2
#     Edge 30, Type (0, 1), BuildingBlock: ZUJKAS_clean_linker_0, # of connection points: 2
#     Edge 31, Type (0, 1), BuildingBlock: ZUJKAS_clean_linker_0, # of connection points: 2
#     Edge 32, Type (0, 1), BuildingBlock: ZUJKAS_clean_linker_0, # of connection points: 2
#     Edge 33, Type (0, 1), BuildingBlock: ZUJKAS_clean_linker_0, # of connection points: 2
#     Edge 34, Type (0, 1), BuildingBlock: ZUJKAS_clean_linker_0, # of connection points: 2
#     Edge 35, Type (0, 1), BuildingBlock: ZUJKAS_clean_linker_0, # of connection points: 2
# Relax obj value: 0.036
# Max RMSD: 0.148
# Mean RMSD: 0.105
data_MOF--net-nom--node1-UXUYUI_clean_sbu_0--node2-GIZVER_clean_linker_0--edge1-ZUJKAS_clean_linker_0
_symmetry_space_group_name_H-M    P1
_symmetry_Int_Tables_number       1
_symmetry_cell_setting            triclinic
loop_
_symmetry_equiv_pos_as_xyz
'x, y, z'
_cell_length_a     70.399589
_cell_length_b     70.359673
_cell_length_c     69.82627
_cell_angle_alpha  90.019762
_cell_angle_beta   90.007363
_cell_angle_gamma 120.01731
loop_
_atom_site_label
_atom_site_type_symbol
_atom_site_fract_x
_atom_site_fract_y
_atom_site_fract_z
_atom_type_partial_charge
H0 H 0.98692 0.54726 0.35316 0.0
H1 H 0.00646 0.54138 0.29602 0.0
H2 H 0.94363 0.49265 0.31774 0.0
H3 H 0.01866 0.57754 0.33963 0.0
H4 H 0.02136 0.57835 0.3142 0.0
H5 H 0.03282 0.55466 0.35838 0.0
H6 H 0.09567 0.56816 0.33726 0.0
H7 H 0.05338 0.58038 0.30142 0.0
C8 C 0.98378 0.53804 0.33997 0.0
C9 C 0.96363 0.51856 0.33746 0.0
C10 C 0.99947 0.5462 0.32517 0.0
C11 C 0.99482 0.5347 0.30773 0.0
C12 C 0.97481 0.51512 0.30511 0.0
C13 C 0.95957 0.50705 0.32014 0.0
C14 C 0.0199 0.56843 0.32711 0.0
C15 C 0.04032 0.56668 0.32931 0.0
C16 C 0.0446 0.55958 0.34679 0.0
C17 C 0.06445 0.55976 0.34962 0.0
C18 C 0.07985 0.56683 0.33472 0.0
C19 C 0.07614 0.57447 0.31737 0.0
C20 C 0.0562 0.57413 0.31466 0.0
H21 H 0.45361 0.98415 0.51799 0.0
H22 H 0.47848 0.00516 0.46089 0.0
H23 H 0.46922 0.94395 0.48258 0.0
H24 H 0.45266 0.01475 0.50455 0.0
H25 H 0.45434 0.01752 0.47915 0.0
H26 H 0.48732 0.03439 0.52447 0.0
H27 H 0.53614 0.09598 0.50055 0.0
H28 H 0.48544 0.04801 0.46449 0.0
C29 C 0.46034 0.9818 0.50482 0.0
C30 C 0.46139 0.96254 0.50227 0.0
C31 C 0.46694 0.99751 0.49008 0.0
C32 C 0.4744 0.99365 0.47261 0.0
C33 C 0.47556 0.97446 0.46992 0.0
C34 C 0.4695 0.95932 0.48497 0.0
C35 C 0.46331 0.01684 0.49202 0.0
C36 C 0.48462 0.03829 0.49406 0.0
C37 C 0.49466 0.04497 0.51216 0.0
C38 C 0.51304 0.06597 0.51464 0.0
C39 C 0.52208 0.07967 0.49867 0.0
C40 C 0.51225 0.07338 0.4806 0.0
C41 C 0.49349 0.05265 0.47832 0.0
H42 H 0.45683 0.48605 0.63253 0.0
H43 H 0.48117 0.49104 0.68996 0.0
H44 H 0.46869 0.54079 0.66796 0.0
H45 H 0.45641 0.45499 0.64657 0.0
H46 H 0.45858 0.45445 0.67198 0.0
H47 H 0.49404 0.47758 0.62775 0.0
H48 H 0.53973 0.45818 0.64735 0.0
H49 H 0.48699 0.44931 0.68394 0.0
C50 C 0.46295 0.49521 0.64575 0.0
C51 C 0.46273 0.51492 0.64821 0.0
C52 C 0.46992 0.48666 0.66067 0.0
C53 C 0.47672 0.49806 0.67816 0.0
C54 C 0.47661 0.51781 0.68079 0.0
C55 C 0.47004 0.52628 0.66561 0.0
C56 C 0.46712 0.46399 0.65894 0.0
C57 C 0.48874 0.46457 0.65654 0.0
C58 C 0.50016 0.47151 0.63904 0.0
C59 C 0.51886 0.46965 0.63582 0.0
C60 C 0.52598 0.4607 0.65013 0.0
C61 C 0.51454 0.45326 0.6674 0.0
C62 C 0.4962 0.45564 0.67078 0.0
H63 H 0.9888 0.45557 0.80167 0.0
H64 H 0.00755 0.47958 0.8593 0.0
H65 H 0.94502 0.46592 0.83732 0.0
H66 H 0.01998 0.45619 0.81544 0.0
H67 H 0.02226 0.45746 0.84086 0.0
H68 H 0.03808 0.49146 0.79615 0.0
H69 H 0.09838 0.54172 0.82097 0.0
H70 H 0.05171 0.48884 0.85598 0.0
C71 C 0.98546 0.46132 0.81497 0.0
C72 C 0.96523 0.46048 0.81745 0.0
C73 C 1.00096 0.46847 0.82993 0.0
C74 C 0.9961 0.47495 0.84746 0.0
C75 C 0.97609 0.47449 0.85003 0.0
C76 C 0.96099 0.46757 0.83489 0.0
C77 C 0.02119 0.46635 0.8281 0.0
C78 C 0.04191 0.48839 0.8265 0.0
C79 C 0.04839 0.49895 0.80859 0.0
C80 C 0.06897 0.51799 0.80642 0.0
C81 C 0.08236 0.52716 0.82257 0.0
C82 C 0.07634 0.51673 0.8404 0.0
C83 C 0.05606 0.49735 0.84235 0.0
H84 H 0.58192 0.0504 0.02127 0.0
H85 H 0.55864 0.03174 0.96343 0.0
H86 H 0.57229 0.09438 0.98523 0.0
H87 H 0.58112 0.01891 0.00753 0.0
H88 H 0.57885 0.01569 0.98214 0.0
H89 H 0.54489 0.00528 0.02686 0.0
H90 H 0.49357 0.94313 0.00611 0.0
H91 H 0.54781 0.98427 0.96951 0.0
C92 C 0.57643 0.0538 0.00786 0.0
C93 C 0.57738 0.07408 0.00527 0.0
C94 C 0.56933 0.03827 0.99292 0.0
C95 C 0.56322 0.04321 0.97525 0.0
C96 C 0.56387 0.06331 0.97257 0.0
C97 C 0.57059 0.07839 0.98772 0.0
C98 C 0.57071 0.01763 0.99506 0.0
C99 C 0.54834 0.99754 0.99759 0.0
C100 C 0.53745 0.99355 0.01529 0.0
C101 C 0.51751 0.97404 0.01835 0.0
C102 C 0.50835 0.95869 0.00345 0.0
C103 C 0.51923 0.9621 0.98588 0.0
C104 C 0.53914 0.98169 0.98294 0.0
H105 H 0.58395 0.552 0.12993 0.0
H106 H 0.56608 0.54926 0.18932 0.0
H107 H 0.58003 0.50094 0.1663 0.0
H108 H 0.58519 0.58345 0.14467 0.0
H109 H 0.58317 0.58431 0.17007 0.0
H110 H 0.54772 0.55835 0.12625 0.0
H111 H 0.49926 0.57419 0.14529 0.0
H112 H 0.55381 0.58791 0.18168 0.0
C113 C 0.57989 0.54365 0.14364 0.0
C114 C 0.58191 0.52492 0.14607 0.0
C115 C 0.57375 0.5523 0.15911 0.0
C116 C 0.56966 0.54201 0.17713 0.0
C117 C 0.57214 0.52359 0.17979 0.0
C118 C 0.5776 0.51484 0.16409 0.0
C119 C 0.57491 0.57424 0.15718 0.0
C120 C 0.55255 0.57201 0.15477 0.0
C121 C 0.54106 0.56404 0.13741 0.0
C122 C 0.52161 0.56448 0.13407 0.0
C123 C 0.51377 0.57298 0.14817 0.0
C124 C 0.52541 0.58177 0.16522 0.0
C125 C 0.54447 0.58067 0.16872 0.0
Li126 Li 0.6388 0.40093 0.42473 0.0
Li127 Li 0.63227 0.36724 0.4087 0.0
Li128 Li 0.66851 0.40302 0.40581 0.0
Li129 Li 0.63539 0.39822 0.38934 0.0
C130 C 0.65526 0.38466 0.44835 0.0
N131 N 0.65565 0.38591 0.48788 0.0
C132 C 0.63947 0.36675 0.45877 0.0
C133 C 0.67136 0.40312 0.458 0.0
C134 C 0.63992 0.36772 0.47876 0.0
C135 C 0.67124 0.40346 0.478 0.0
C136 C 0.59218 0.36685 0.40275 0.0
C137 C 0.56715 0.34405 0.37808 0.0
N138 N 0.54995 0.33943 0.38981 0.0
C139 C 0.57426 0.36204 0.41451 0.0
C140 C 0.58861 0.35792 0.38435 0.0
C141 C 0.55303 0.34807 0.40773 0.0
C142 C 0.6409 0.43347 0.45021 0.0
N143 N 0.63065 0.41158 0.44651 0.0
C144 C 0.60542 0.40424 0.47214 0.0
C145 C 0.61333 0.39696 0.45719 0.0
C146 C 0.61542 0.42681 0.47611 0.0
C147 C 0.6336 0.44148 0.4651 0.0
H148 H 0.65435 0.44479 0.44129 0.0
H149 H 0.60542 0.37964 0.45385 0.0
C150 C 0.62992 0.32612 0.40451 0.0
N151 N 0.61883 0.33609 0.41092 0.0
C152 C 0.62088 0.30344 0.40648 0.0
C153 C 0.58922 0.3017 0.42167 0.0
C154 C 0.59888 0.3244 0.41945 0.0
C155 C 0.60027 0.29089 0.41526 0.0
H156 H 0.64591 0.33586 0.39804 0.0
H157 H 0.59059 0.33272 0.42482 0.0
C158 C 0.67371 0.44368 0.40182 0.0
N159 N 0.70908 0.48484 0.39448 0.0
C160 C 0.6756 0.45374 0.3841 0.0
C161 C 0.68971 0.45464 0.41585 0.0
C162 C 0.69363 0.47454 0.38066 0.0
C163 C 0.70751 0.47541 0.41185 0.0
C164 C 0.6517 0.37427 0.36751 0.0
C165 C 0.66952 0.38733 0.35563 0.0
C166 C 0.63519 0.35384 0.36093 0.0
C167 C 0.67031 0.37994 0.33723 0.0
C168 C 0.63657 0.34703 0.34244 0.0
N169 N 0.65394 0.36012 0.33107 0.0
C170 C 0.71033 0.40958 0.41663 0.0
C171 C 0.71092 0.43033 0.3897 0.0
C172 C 0.7331 0.41863 0.41561 0.0
N173 N 0.69974 0.4156 0.40381 0.0
C174 C 0.73366 0.43996 0.38828 0.0
C175 C 0.74507 0.43416 0.40135 0.0
H176 H 0.70107 0.39773 0.42765 0.0
H177 H 0.70222 0.4347 0.37951 0.0
C178 C 0.61106 0.41526 0.37369 0.0
N179 N 0.62398 0.40688 0.36842 0.0
C180 C 0.60283 0.42366 0.35995 0.0
C181 C 0.62109 0.41436 0.33549 0.0
C182 C 0.62893 0.40608 0.34972 0.0
C183 C 0.60806 0.42355 0.34056 0.0
H184 H 0.60754 0.41584 0.38869 0.0
H185 H 0.63925 0.39945 0.3458 0.0
O186 O 0.65477 0.38424 0.42878 0.0
O187 O 0.61306 0.38045 0.40922 0.0
O188 O 0.65623 0.42327 0.4054 0.0
O189 O 0.65082 0.38113 0.38568 0.0
H190 H 0.62688 0.35236 0.4515 0.0
H191 H 0.68372 0.41708 0.45012 0.0
H192 H 0.62773 0.35404 0.48703 0.0
H193 H 0.68353 0.41769 0.48567 0.0
H194 H 0.56417 0.33703 0.36386 0.0
H195 H 0.5767 0.36896 0.42874 0.0
H196 H 0.60223 0.36186 0.37493 0.0
H197 H 0.53902 0.34413 0.41671 0.0
H198 H 0.59153 0.39235 0.48043 0.0
H199 H 0.64163 0.45902 0.46753 0.0
H200 H 0.6302 0.29592 0.40162 0.0
H201 H 0.57325 0.29274 0.42839 0.0
H202 H 0.66338 0.44554 0.37308 0.0
H203 H 0.68855 0.44708 0.42961 0.0
H204 H 0.69535 0.48248 0.367 0.0
H205 H 0.72009 0.484 0.42253 0.0
H206 H 0.68249 0.40309 0.36044 0.0
H207 H 0.62148 0.34325 0.36999 0.0
H208 H 0.68393 0.38997 0.32785 0.0
H209 H 0.62386 0.3313 0.33717 0.0
H210 H 0.74129 0.41376 0.42599 0.0
H211 H 0.74218 0.45158 0.37687 0.0
H212 H 0.5931 0.43083 0.36455 0.0
H213 H 0.62532 0.41372 0.32069 0.0
Li214 Li 0.25455 0.63598 0.59388 0.0
Li215 Li 0.28284 0.63052 0.57899 0.0
Li216 Li 0.2833 0.66626 0.57432 0.0
Li217 Li 0.25598 0.63235 0.55911 0.0
C218 C 0.2931 0.65309 0.61691 0.0
N219 N 0.30528 0.65318 0.65454 0.0
C220 C 0.28409 0.6335 0.62726 0.0
C221 C 0.30812 0.67278 0.62576 0.0
C222 C 0.29051 0.63386 0.64625 0.0
C223 C 0.31412 0.67248 0.64478 0.0
C224 C 0.24752 0.58988 0.58237 0.0
C225 C 0.25046 0.55865 0.57229 0.0
N226 N 0.24196 0.54873 0.58937 0.0
C227 C 0.23871 0.57933 0.59979 0.0
C228 C 0.25335 0.57942 0.56847 0.0
C229 C 0.23606 0.55855 0.60306 0.0
C230 C 0.21346 0.61282 0.61026 0.0
N231 N 0.23427 0.62877 0.61443 0.0
C232 C 0.22373 0.63155 0.64639 0.0
C233 C 0.23957 0.63856 0.63194 0.0
C234 C 0.20221 0.61459 0.64264 0.0
C235 C 0.1971 0.60542 0.6242 0.0
H236 H 0.20968 0.60554 0.59613 0.0
H237 H 0.25606 0.65169 0.63476 0.0
C238 C 0.31914 0.62514 0.56992 0.0
N239 N 0.30175 0.61818 0.58201 0.0
C240 C 0.33317 0.61645 0.57122 0.0
C241 C 0.31115 0.59359 0.59736 0.0
C242 C 0.29777 0.6029 0.59573 0.0
C243 C 0.32909 0.6003 0.58499 0.0
H244 H 0.32211 0.63741 0.5592 0.0
H245 H 0.2841 0.59767 0.60535 0.0
C246 C 0.24518 0.66783 0.58178 0.0
N247 N 0.2331 0.6957 0.59868 0.0
C248 C 0.2276 0.66947 0.57443 0.0
C249 C 0.2566 0.68032 0.59776 0.0
C250 C 0.22175 0.68368 0.58317 0.0
C251 C 0.25024 0.69433 0.60609 0.0
C252 C 0.2887 0.64742 0.53576 0.0
C253 C 0.28979 0.66461 0.52489 0.0
C254 C 0.28737 0.62915 0.52657 0.0
C255 C 0.28927 0.6631 0.50492 0.0
C256 C 0.28687 0.62825 0.50658 0.0
N257 N 0.2878 0.64509 0.49626 0.0
C258 C 0.32267 0.70714 0.57739 0.0
C259 C 0.29331 0.70893 0.56263 0.0
C260 C 0.33655 0.72971 0.57484 0.0
N261 N 0.3015 0.69727 0.57132 0.0
C262 C 0.30654 0.73152 0.5599 0.0
C263 C 0.32857 0.74225 0.56591 0.0
H264 H 0.32886 0.69739 0.58397 0.0
H265 H 0.27652 0.70066 0.55763 0.0
C266 C 0.22638 0.59971 0.53308 0.0
N267 N 0.23736 0.62151 0.53724 0.0
C268 C 0.21107 0.59164 0.51819 0.0
C269 C 0.2188 0.62864 0.51203 0.0
C270 C 0.23393 0.63598 0.52705 0.0
C271 C 0.20691 0.60614 0.50758 0.0
H272 H 0.22898 0.58848 0.54166 0.0
H273 H 0.24266 0.65319 0.53086 0.0
O274 O 0.2867 0.65321 0.59844 0.0
O275 O 0.25032 0.61029 0.57893 0.0
O276 O 0.25095 0.65386 0.57342 0.0
O277 O 0.2886 0.64834 0.55531 0.0
H278 H 0.27184 0.61829 0.62085 0.0
H279 H 0.31497 0.68815 0.61805 0.0
H280 H 0.2836 0.61881 0.65443 0.0
H281 H 0.32574 0.6876 0.65181 0.0
H282 H 0.25504 0.55044 0.56171 0.0
H283 H 0.23415 0.58714 0.61076 0.0
H284 H 0.26029 0.58736 0.55496 0.0
H285 H 0.22937 0.55025 0.61651 0.0
H286 H 0.22825 0.63929 0.66034 0.0
H287 H 0.1808 0.5922 0.62073 0.0
H288 H 0.34684 0.62206 0.5614 0.0
H289 H 0.30763 0.58142 0.60837 0.0
H290 H 0.21858 0.65986 0.56209 0.0
H291 H 0.27024 0.67928 0.60366 0.0
H292 H 0.20818 0.68513 0.57762 0.0
H293 H 0.25893 0.7041 0.61844 0.0
H294 H 0.29079 0.67884 0.53179 0.0
H295 H 0.28667 0.61578 0.53479 0.0
H296 H 0.28996 0.67621 0.49632 0.0
H297 H 0.28573 0.61415 0.49927 0.0
H298 H 0.35348 0.73713 0.5794 0.0
H299 H 0.29953 0.74046 0.55315 0.0
H300 H 0.20207 0.57415 0.51548 0.0
H301 H 0.21633 0.64045 0.50409 0.0
Li302 Li 0.67119 0.28121 0.74553 0.0
Li303 Li 0.63761 0.25445 0.76227 0.0
Li304 Li 0.63989 0.25307 0.72651 0.0
Li305 Li 0.63582 0.28176 0.74279 0.0
C306 C 0.67146 0.24065 0.74331 0.0
N307 N 0.69908 0.22392 0.73704 0.0
C308 C 0.67754 0.23187 0.7585 0.0
C309 C 0.6791 0.24049 0.72487 0.0
C310 C 0.69162 0.22362 0.75507 0.0
C311 C 0.69312 0.23207 0.722 0.0
C312 C 0.65558 0.28851 0.78527 0.0
C313 C 0.63817 0.28546 0.81576 0.0
N314 N 0.65727 0.29062 0.8248 0.0
C315 C 0.67508 0.29394 0.79486 0.0
C316 C 0.63701 0.2844 0.79578 0.0
C317 C 0.67559 0.29487 0.81485 0.0
C318 C 0.7123 0.31925 0.739 0.0
N319 N 0.70244 0.29905 0.74729 0.0
C320 C 0.73702 0.30513 0.75886 0.0
C321 C 0.71429 0.29189 0.75718 0.0
C322 C 0.74772 0.32605 0.75037 0.0
C323 C 0.73501 0.33304 0.74031 0.0
H324 H 0.70247 0.32468 0.73141 0.0
H325 H 0.70607 0.27612 0.76419 0.0
C326 C 0.60474 0.22168 0.78559 0.0
N327 N 0.62668 0.23588 0.78422 0.0
C328 C 0.59638 0.20638 0.80047 0.0
C329 C 0.63333 0.2207 0.81232 0.0
C330 C 0.64095 0.23583 0.79731 0.0
C331 C 0.61079 0.20553 0.81389 0.0
H332 H 0.59378 0.22179 0.77483 0.0
H333 H 0.65831 0.24723 0.79585 0.0
C334 C 0.66635 0.29112 0.70436 0.0
N335 N 0.68516 0.30289 0.6684 0.0
C336 C 0.65773 0.29919 0.69063 0.0
C337 C 0.68482 0.28945 0.69987 0.0
C338 C 0.66738 0.30492 0.67251 0.0
C339 C 0.69402 0.29537 0.6816 0.0
C340 C 0.59546 0.24831 0.73948 0.0
C341 C 0.58588 0.24273 0.72132 0.0
C342 C 0.58492 0.25295 0.75419 0.0
C343 C 0.56602 0.24217 0.71809 0.0
C344 C 0.5651 0.25225 0.75039 0.0
N345 N 0.55615 0.24694 0.73256 0.0
C346 C 0.62613 0.21215 0.7101 0.0
C347 C 0.62746 0.23806 0.6877 0.0
C348 C 0.61787 0.19568 0.6962 0.0
N349 N 0.63074 0.23283 0.70566 0.0
C350 C 0.6191 0.22206 0.67335 0.0
C351 C 0.614 0.20045 0.67755 0.0
H352 H 0.62859 0.20836 0.72459 0.0
H353 H 0.63061 0.25441 0.68463 0.0
C354 C 0.62496 0.31394 0.75482 0.0
N355 N 0.62333 0.30036 0.74026 0.0
C356 C 0.61593 0.3276 0.75294 0.0
C357 C 0.60381 0.31311 0.7211 0.0
C358 C 0.61296 0.29968 0.72363 0.0
C359 C 0.6053 0.3274 0.73583 0.0
H360 H 0.63342 0.3143 0.76785 0.0
H361 H 0.6117 0.2886 0.71235 0.0
O362 O 0.65758 0.24871 0.74645 0.0
O363 O 0.65468 0.28722 0.76571 0.0
O364 O 0.65711 0.28551 0.72222 0.0
O365 O 0.6151 0.24932 0.74283 0.0
H366 H 0.67159 0.23153 0.77282 0.0
H367 H 0.67401 0.24646 0.71281 0.0
H368 H 0.69659 0.21695 0.76673 0.0
H369 H 0.69917 0.23191 0.7078 0.0
H370 H 0.62387 0.28217 0.82407 0.0
H371 H 0.68964 0.2973 0.78697 0.0
H372 H 0.62182 0.28026 0.7886 0.0
H373 H 0.69054 0.29895 0.82246 0.0
H374 H 0.74604 0.29923 0.76714 0.0
H375 H 0.74254 0.34897 0.73345 0.0
H376 H 0.57893 0.19483 0.80106 0.0
H377 H 0.64496 0.22075 0.8225 0.0
H378 H 0.64368 0.30093 0.69387 0.0
H379 H 0.69219 0.28393 0.71042 0.0
H380 H 0.66076 0.31103 0.66172 0.0
H381 H 0.70827 0.2941 0.67796 0.0
H382 H 0.59376 0.23903 0.70978 0.0
H383 H 0.59205 0.2572 0.76835 0.0
H384 H 0.55848 0.23799 0.70407 0.0
H385 H 0.55685 0.25596 0.7616 0.0
H386 H 0.61443 0.17937 0.70008 0.0
H387 H 0.61598 0.22641 0.6593 0.0
H388 H 0.61762 0.33851 0.76459 0.0
H389 H 0.59547 0.31216 0.70779 0.0
Li390 Li 0.40061 0.63406 0.9252 0.0
Li391 Li 0.40663 0.66804 0.91028 0.0
Li392 Li 0.37081 0.63199 0.90635 0.0
Li393 Li 0.40449 0.63796 0.88999 0.0
C394 C 0.38303 0.64868 0.94935 0.0
N395 N 0.38164 0.64562 0.9888 0.0
C396 C 0.39908 0.66571 0.96039 0.0
C397 C 0.36616 0.63018 0.95833 0.0
C398 C 0.39811 0.66383 0.98033 0.0
C399 C 0.36578 0.62891 0.97831 0.0
C400 C 0.44696 0.67025 0.90351 0.0
C401 C 0.47039 0.69489 0.87893 0.0
N402 N 0.48825 0.69984 0.8899 0.0
C403 C 0.46554 0.67546 0.91449 0.0
C404 C 0.4494 0.67994 0.88556 0.0
C405 C 0.48628 0.69051 0.90738 0.0
C406 C 0.39823 0.60111 0.95041 0.0
N407 N 0.40881 0.623 0.94667 0.0
C408 C 0.43453 0.62988 0.97179 0.0
C409 C 0.42654 0.6374 0.95708 0.0
C410 C 0.42417 0.6073 0.97579 0.0
C411 C 0.4056 0.59287 0.96506 0.0
H412 H 0.38446 0.58995 0.94172 0.0
H413 H 0.43471 0.65471 0.9537 0.0
C414 C 0.40755 0.70853 0.90732 0.0
N415 N 0.41917 0.69899 0.91338 0.0
C416 C 0.41576 0.731 0.91005 0.0
C417 C 0.44775 0.73341 0.9252 0.0
C418 C 0.43889 0.7109 0.92224 0.0
C419 C 0.4361 0.74378 0.91921 0.0
H420 H 0.39173 0.69859 0.90059 0.0
H421 H 0.44761 0.70289 0.92731 0.0
C422 C 0.36665 0.59152 0.90179 0.0
N423 N 0.33231 0.54971 0.89458 0.0
C424 C 0.36542 0.5813 0.88429 0.0
C425 C 0.35049 0.58041 0.91567 0.0
C426 C 0.34791 0.56017 0.88091 0.0
C427 C 0.33324 0.5593 0.91173 0.0
C428 C 0.38629 0.66091 0.86889 0.0
C429 C 0.36846 0.64665 0.8575 0.0
C430 C 0.40117 0.68187 0.86203 0.0
C431 C 0.36605 0.65341 0.8393 0.0
C432 C 0.39819 0.68803 0.84375 0.0
N433 N 0.38085 0.67378 0.83285 0.0
C434 C 0.32977 0.62771 0.91563 0.0
C435 C 0.32784 0.60376 0.89093 0.0
C436 C 0.30722 0.61985 0.91417 0.0
N437 N 0.33962 0.61964 0.90406 0.0
C438 C 0.30526 0.59523 0.88916 0.0
C439 C 0.2946 0.60341 0.90072 0.0
H440 H 0.33951 0.64051 0.92583 0.0
H441 H 0.33595 0.59777 0.88165 0.0
C442 C 0.43299 0.62649 0.87281 0.0
N443 N 0.41648 0.63053 0.86861 0.0
C444 C 0.44206 0.61956 0.85855 0.0
C445 C 0.41691 0.62094 0.83582 0.0
C446 C 0.4084 0.62797 0.85052 0.0
C447 C 0.43388 0.61646 0.83977 0.0
H448 H 0.43891 0.62835 0.88737 0.0
H449 H 0.39496 0.63074 0.84755 0.0
O450 O 0.384 0.64997 0.92981 0.0
O451 O 0.42655 0.65562 0.91034 0.0
O452 O 0.38365 0.61223 0.90532 0.0
O453 O 0.38869 0.6547 0.8869 0.0
H454 H 0.41226 0.68011 0.95363 0.0
H455 H 0.35356 0.61692 0.94997 0.0
H456 H 0.4105 0.67682 0.98907 0.0
H457 H 0.35289 0.61465 0.98547 0.0
H458 H 0.47249 0.70251 0.86505 0.0
H459 H 0.46397 0.668 0.92839 0.0
H460 H 0.43525 0.67577 0.87675 0.0
H461 H 0.5008 0.69475 0.91576 0.0
H462 H 0.44873 0.6416 0.97988 0.0
H463 H 0.39728 0.57533 0.9675 0.0
H464 H 0.40599 0.73814 0.90549 0.0
H465 H 0.46356 0.74256 0.93217 0.0
H466 H 0.37781 0.5896 0.87342 0.0
H467 H 0.35112 0.58811 0.92924 0.0
H468 H 0.34672 0.55209 0.86742 0.0
H469 H 0.32055 0.55058 0.92229 0.0
H470 H 0.35679 0.63041 0.86252 0.0
H471 H 0.41484 0.69334 0.87073 0.0
H472 H 0.35242 0.64245 0.83029 0.0
H473 H 0.40963 0.70417 0.83826 0.0
H474 H 0.29991 0.62698 0.9232 0.0
H475 H 0.29631 0.58233 0.8788 0.0
H476 H 0.45527 0.61657 0.86226 0.0
H477 H 0.40978 0.61839 0.82165 0.0
Li478 Li 0.75623 0.40509 0.0777 0.0
Li479 Li 0.78382 0.39974 0.09486 0.0
Li480 Li 0.78392 0.40263 0.0592 0.0
Li481 Li 0.75604 0.36906 0.07509 0.0
C482 C 0.79161 0.44539 0.08203 0.0
N483 N 0.79694 0.48645 0.08899 0.0
C484 C 0.79891 0.45531 0.09994 0.0
C485 C 0.78724 0.45646 0.06761 0.0
C486 C 0.80146 0.47606 0.10318 0.0
C487 C 0.78996 0.47716 0.07143 0.0
C488 C 0.74353 0.3754 0.11595 0.0
C489 C 0.73382 0.34812 0.14069 0.0
N490 N 0.7274 0.35954 0.15212 0.0
C491 C 0.73656 0.3867 0.12786 0.0
C492 C 0.74191 0.35581 0.12234 0.0
C493 C 0.72857 0.37849 0.14612 0.0
C494 C 0.72244 0.41342 0.06576 0.0
N495 N 0.73804 0.41816 0.07935 0.0
C496 C 0.72827 0.44211 0.09534 0.0
C497 C 0.74097 0.43201 0.09408 0.0
C498 C 0.71212 0.43765 0.08147 0.0
C499 C 0.70915 0.42296 0.0666 0.0
H500 H 0.72031 0.40222 0.05427 0.0
H501 H 0.75321 0.43527 0.10488 0.0
C502 C 0.82398 0.41287 0.11241 0.0
N503 N 0.80306 0.40779 0.11639 0.0
C504 C 0.83969 0.41985 0.12693 0.0
C505 C 0.81209 0.41638 0.14946 0.0
C506 C 0.79689 0.40943 0.13449 0.0
C507 C 0.83387 0.42181 0.14576 0.0
H508 H 0.82852 0.41174 0.09783 0.0
H509 H 0.78034 0.40574 0.1373 0.0
C510 C 0.75105 0.38638 0.03518 0.0
N511 N 0.75126 0.38678 0.99563 0.0
C512 C 0.74738 0.36775 0.02499 0.0
C513 C 0.75459 0.40514 0.02528 0.0
C514 C 0.7476 0.3683 0.00499 0.0
C515 C 0.75471 0.40504 0.00528 0.0
C516 C 0.79543 0.36762 0.0801 0.0
C517 C 0.8065 0.36188 0.06675 0.0
C518 C 0.79196 0.35897 0.09861 0.0
C519 C 0.81351 0.34723 0.07204 0.0
C520 C 0.79924 0.3444 0.10337 0.0
N521 N 0.80975 0.33885 0.09008 0.0
C522 C 0.81644 0.43531 0.0354 0.0
C523 C 0.80424 0.39873 0.02562 0.0
C524 C 0.83184 0.44344 0.0206 0.0
N525 N 0.80311 0.41332 0.03766 0.0
C526 C 0.81944 0.40613 0.01067 0.0
C527 C 0.83367 0.42877 0.00813 0.0
H528 H 0.81553 0.44656 0.04537 0.0
H529 H 0.79355 0.38132 0.02784 0.0
C530 C 0.71734 0.32808 0.0804 0.0
N531 N 0.73795 0.3379 0.07298 0.0
C532 C 0.70359 0.30535 0.07893 0.0
C533 C 0.73243 0.3033 0.06199 0.0
C534 C 0.74558 0.32605 0.06375 0.0
C535 C 0.7111 0.29263 0.06963 0.0
H536 H 0.71157 0.33793 0.08748 0.0
H537 H 0.76175 0.33427 0.05744 0.0
O538 O 0.78884 0.42501 0.07865 0.0
O539 O 0.75123 0.38314 0.09795 0.0
O540 O 0.75131 0.38631 0.05476 0.0
O541 O 0.78843 0.38192 0.0751 0.0
H542 H 0.80245 0.44705 0.11124 0.0
H543 H 0.78163 0.44905 0.05367 0.0
H544 H 0.80699 0.48388 0.117 0.0
H545 H 0.78649 0.48584 0.06045 0.0
H546 H 0.73254 0.33302 0.14582 0.0
H547 H 0.73742 0.40172 0.12312 0.0
H548 H 0.7466 0.34646 0.11319 0.0
H549 H 0.72327 0.38717 0.15552 0.0
H550 H 0.73085 0.45304 0.10722 0.0
H551 H 0.69689 0.41912 0.05561 0.0
H552 H 0.85635 0.42418 0.12334 0.0
H553 H 0.80682 0.41749 0.16378 0.0
H554 H 0.74458 0.3531 0.03244 0.0
H555 H 0.75732 0.41964 0.03297 0.0
H556 H 0.74491 0.35404 0.9969 0.0
H557 H 0.75755 0.41948 0.99743 0.0
H558 H 0.80956 0.36858 0.05241 0.0
H559 H 0.784 0.36368 0.10928 0.0
H560 H 0.82197 0.34254 0.06181 0.0
H561 H 0.79662 0.33759 0.11765 0.0
H562 H 0.84266 0.461 0.01932 0.0
H563 H 0.82012 0.39425 0.00126 0.0
H564 H 0.68731 0.29782 0.0851 0.0
H565 H 0.73874 0.29424 0.05432 0.0
Li566 Li 0.40633 0.78226 0.26151 0.0
Li567 Li 0.37125 0.75446 0.24531 0.0
Li568 Li 0.40669 0.75383 0.24294 0.0
Li569 Li 0.4031 0.78175 0.22715 0.0
C570 C 0.38654 0.74959 0.28553 0.0
N571 N 0.38301 0.75037 0.32491 0.0
C572 C 0.36647 0.74424 0.29396 0.0
C573 C 0.40479 0.75521 0.29714 0.0
C574 C 0.36502 0.74474 0.31389 0.0
C575 C 0.40269 0.75557 0.31701 0.0
C576 C 0.38446 0.80424 0.23934 0.0
C577 C 0.36738 0.81989 0.21996 0.0
N578 N 0.3845 0.8403 0.22369 0.0
C579 C 0.40183 0.82536 0.24305 0.0
C580 C 0.36705 0.80143 0.22775 0.0
C581 C 0.40157 0.84339 0.23497 0.0
C582 C 0.43915 0.81498 0.28522 0.0
N583 N 0.41717 0.8018 0.28281 0.0
C584 C 0.40993 0.81907 0.30904 0.0
C585 C 0.40256 0.80358 0.2943 0.0
C586 C 0.43257 0.83302 0.31185 0.0
C587 C 0.44725 0.83068 0.2998 0.0
H588 H 0.45041 0.81376 0.27549 0.0
H589 H 0.38515 0.79319 0.29179 0.0
C590 C 0.33049 0.71524 0.24494 0.0
N591 N 0.34022 0.73727 0.2477 0.0
C592 C 0.30784 0.7019 0.24725 0.0
C593 C 0.30567 0.7342 0.25518 0.0
C594 C 0.32837 0.74691 0.25272 0.0
C595 C 0.29509 0.71133 0.25255 0.0
H596 H 0.34041 0.70803 0.24113 0.0
H597 H 0.33658 0.76444 0.25507 0.0
C598 C 0.44649 0.7838 0.23941 0.0
N599 N 0.482 0.77796 0.23313 0.0
C600 C 0.45351 0.78351 0.22074 0.0
C601 C 0.45759 0.78121 0.25488 0.0
C602 C 0.47149 0.78053 0.21786 0.0
C603 C 0.47549 0.77825 0.25141 0.0
C604 C 0.37943 0.74828 0.20344 0.0
C605 C 0.39507 0.75304 0.18912 0.0
C606 C 0.3579 0.74212 0.19831 0.0
C607 C 0.38893 0.75163 0.16992 0.0
C608 C 0.3524 0.74086 0.17894 0.0
N609 N 0.3679 0.74561 0.16527 0.0
C610 C 0.42365 0.72715 0.25741 0.0
C611 C 0.42032 0.72726 0.22367 0.0
C612 C 0.43249 0.71328 0.2561 0.0
N613 N 0.41795 0.734 0.2413 0.0
C614 C 0.42902 0.71337 0.22169 0.0
C615 C 0.43529 0.70621 0.23804 0.0
H616 H 0.42149 0.73259 0.27128 0.0
H617 H 0.41565 0.73283 0.2111 0.0
C618 C 0.43284 0.81922 0.2068 0.0
N619 N 0.41188 0.80215 0.20608 0.0
C620 C 0.44057 0.83568 0.19294 0.0
C621 C 0.40491 0.81707 0.1779 0.0
C622 C 0.39782 0.80101 0.19216 0.0
C623 C 0.42659 0.83473 0.17814 0.0
H624 H 0.44349 0.82031 0.21841 0.0
H625 H 0.38097 0.78787 0.19225 0.0
O626 O 0.38836 0.74951 0.26602 0.0
O627 O 0.38473 0.78637 0.24667 0.0
O628 O 0.42847 0.78599 0.24248 0.0
O629 O 0.38503 0.74935 0.22235 0.0
H630 H 0.35216 0.73981 0.28525 0.0
H631 H 0.42052 0.75967 0.29088 0.0
H632 H 0.3496 0.7407 0.32061 0.0
H633 H 0.41672 0.76007 0.32615 0.0
H634 H 0.3541 0.81797 0.21086 0.0
H635 H 0.41551 0.82778 0.25187 0.0
H636 H 0.35362 0.78517 0.22454 0.0
H637 H 0.41497 0.85983 0.23762 0.0
H638 H 0.39802 0.82018 0.31809 0.0
H639 H 0.46481 0.84134 0.30122 0.0
H640 H 0.3005 0.68433 0.24538 0.0
H641 H 0.29651 0.74222 0.25911 0.0
H642 H 0.44506 0.78536 0.20859 0.0
H643 H 0.45222 0.78107 0.26942 0.0
H644 H 0.47703 0.78017 0.20349 0.0
H645 H 0.48412 0.77606 0.26324 0.0
H646 H 0.41186 0.75813 0.19275 0.0
H647 H 0.34557 0.73847 0.20911 0.0
H648 H 0.40091 0.75539 0.15871 0.0
H649 H 0.33582 0.73617 0.17478 0.0
H650 H 0.4369 0.70799 0.26909 0.0
H651 H 0.43114 0.7086 0.20746 0.0
H652 H 0.45723 0.84925 0.19405 0.0
H653 H 0.39352 0.81558 0.16679 0.0
H654 H 0.10282 0.55976 0.30361 0.0
H655 H 0.13833 0.58175 0.28776 0.0
H656 H 0.12733 0.63672 0.28514 0.0
H657 H 0.09175 0.61478 0.3009 0.0
H658 H 0.14988 0.63243 0.2523 0.0
H659 H 0.18701 0.62953 0.32172 0.0
H660 H 0.16834 0.60319 0.31155 0.0
H661 H 0.1583 0.62092 0.31931 0.0
C662 C 0.10775 0.57636 0.29921 0.0
C663 C 0.09462 0.58563 0.30365 0.0
C664 C 0.12805 0.58891 0.29023 0.0
C665 C 0.13564 0.61099 0.28568 0.0
C666 C 0.12179 0.61973 0.28862 0.0
H667 H 0.27056 0.71534 0.28099 0.0
H668 H 0.23149 0.69155 0.28741 0.0
C669 C 0.10141 0.60714 0.29753 0.0
C670 C 0.15878 0.62555 0.27984 0.0
H671 H 0.21135 0.64769 0.29621 0.0
C672 C 0.16336 0.63575 0.26183 0.0
C673 C 0.17629 0.63013 0.29249 0.0
C674 C 0.17234 0.62056 0.31242 0.0
C675 C 0.18507 0.65027 0.25605 0.0
C676 C 0.20258 0.65448 0.26856 0.0
C677 C 0.19792 0.64435 0.2866 0.0
C678 C 0.22589 0.66971 0.26356 0.0
C679 C 0.18906 0.66138 0.23681 0.0
C680 C 0.23575 0.66537 0.24799 0.0
C681 C 0.25811 0.67906 0.24418 0.0
C682 C 0.27108 0.6973 0.25596 0.0
C683 C 0.26104 0.70167 0.27144 0.0
C684 C 0.23872 0.688 0.27521 0.0
H685 H 0.174 0.66067 0.23108 0.0
H686 H 0.20225 0.67883 0.23775 0.0
H687 H 0.19435 0.65297 0.22647 0.0
H688 H 0.22627 0.65112 0.23901 0.0
H689 H 0.26525 0.67531 0.23205 0.0
H690 H 0.48942 0.09002 0.4629 0.0
H691 H 0.50504 0.12475 0.44544 0.0
H692 H 0.56877 0.12998 0.44714 0.0
H693 H 0.55323 0.09563 0.46527 0.0
H694 H 0.57068 0.16469 0.46219 0.0
H695 H 0.52679 0.14952 0.39332 0.0
H696 H 0.50797 0.1387 0.41299 0.0
H697 H 0.52549 0.12754 0.40765 0.0
C698 C 0.50656 0.09815 0.45882 0.0
C699 C 0.52013 0.09017 0.4653 0.0
C700 C 0.51551 0.11802 0.44881 0.0
C701 C 0.53811 0.13001 0.44483 0.0
C702 C 0.55131 0.12106 0.45001 0.0
H703 H 0.60109 0.2605 0.39098 0.0
H704 H 0.58693 0.22137 0.39705 0.0
C705 C 0.54243 0.10139 0.46025 0.0
C706 C 0.54846 0.15317 0.43815 0.0
H707 H 0.54456 0.18688 0.40509 0.0
C708 C 0.56515 0.16945 0.44952 0.0
C709 C 0.54144 0.1595 0.42156 0.0
C710 C 0.5246 0.14285 0.40808 0.0
C711 C 0.57445 0.1918 0.44517 0.0
C712 C 0.56646 0.19819 0.4293 0.0
C713 C 0.55041 0.18197 0.41745 0.0
C714 C 0.57426 0.22166 0.4252 0.0
C715 C 0.59273 0.20838 0.4577 0.0
C716 C 0.57147 0.2347 0.43885 0.0
C717 C 0.57973 0.25706 0.43554 0.0
C718 C 0.59077 0.26686 0.41838 0.0
C719 C 0.593 0.25359 0.40448 0.0
C720 C 0.58476 0.23119 0.40784 0.0
H721 H 0.60123 0.20092 0.46537 0.0
H722 H 0.60503 0.22252 0.44916 0.0
H723 H 0.58577 0.21464 0.46861 0.0
H724 H 0.56309 0.22762 0.45221 0.0
H725 H 0.57787 0.26674 0.44665 0.0
H726 H 0.42288 0.48994 0.63116 0.0
H727 H 0.40116 0.50311 0.61436 0.0
H728 H 0.45527 0.56949 0.61791 0.0
H729 H 0.47718 0.5564 0.63456 0.0
H730 H 0.39261 0.53384 0.63404 0.0
H731 H 0.43066 0.56537 0.56286 0.0
H732 H 0.43449 0.54548 0.57613 0.0
H733 H 0.4493 0.57393 0.58281 0.0
C734 C 0.43046 0.50723 0.6277 0.0
C735 C 0.45173 0.52215 0.63419 0.0
C736 C 0.41797 0.51475 0.61821 0.0
C737 C 0.42663 0.53726 0.61482 0.0
C738 C 0.44837 0.55202 0.62013 0.0
H739 H 0.374 0.62161 0.58549 0.0
H740 H 0.39745 0.60563 0.59139 0.0
C741 C 0.46083 0.54454 0.62972 0.0
C742 C 0.41204 0.54557 0.6084 0.0
H743 H 0.40415 0.57469 0.57325 0.0
C744 C 0.39496 0.54256 0.62064 0.0
C745 C 0.41541 0.55724 0.59109 0.0
C746 C 0.43335 0.56062 0.57734 0.0
C747 C 0.3814 0.55128 0.61627 0.0
C748 C 0.38457 0.5628 0.59885 0.0
C749 C 0.40164 0.56576 0.58654 0.0
C750 C 0.37053 0.5722 0.59348 0.0
C751 C 0.36433 0.54873 0.63074 0.0
C752 C 0.34768 0.55867 0.59209 0.0
C753 C 0.33429 0.56777 0.58893 0.0
C754 C 0.3435 0.59057 0.58675 0.0
C755 C 0.36645 0.60399 0.5871 0.0
C756 C 0.37985 0.59488 0.59049 0.0
H757 H 0.36816 0.54517 0.64529 0.0
H758 H 0.36297 0.56376 0.6315 0.0
H759 H 0.34815 0.53479 0.62646 0.0
H760 H 0.34015 0.54106 0.59381 0.0
H761 H 0.31667 0.55698 0.58835 0.0
H762 H 0.93621 0.47317 0.80534 0.0
H763 H 0.90154 0.45052 0.7885 0.0
H764 H 0.91842 0.39998 0.78063 0.0
H765 H 0.95275 0.42217 0.79806 0.0
H766 H 0.88813 0.429 0.75267 0.0
H767 H 0.86258 0.37007 0.81334 0.0
H768 H 0.88663 0.397 0.81439 0.0
H769 H 0.88735 0.37526 0.80148 0.0
C770 C 0.93269 0.45737 0.79977 0.0
C771 C 0.9471 0.44934 0.80331 0.0
C772 C 0.91291 0.44448 0.79008 0.0
C773 C 0.90719 0.42337 0.78373 0.0
C774 C 0.92236 0.41608 0.78576 0.0
H775 H 0.77979 0.31482 0.74882 0.0
H776 H 0.81911 0.33844 0.75464 0.0
C777 C 0.94211 0.42891 0.79553 0.0
C778 C 0.88461 0.40833 0.77671 0.0
H779 H 0.83736 0.36122 0.78817 0.0
C780 C 0.87704 0.41411 0.76035 0.0
C781 C 0.87013 0.38899 0.78685 0.0
C782 C 0.87693 0.38248 0.80508 0.0
C783 C 0.85537 0.40098 0.7538 0.0
C784 C 0.84086 0.38179 0.76408 0.0
C785 C 0.84855 0.37587 0.78026 0.0
C786 C 0.81735 0.36798 0.7589 0.0
C787 C 0.84824 0.40769 0.7359 0.0
C788 C 0.80329 0.37673 0.75939 0.0
C789 C 0.78078 0.36324 0.75619 0.0
C790 C 0.77184 0.34067 0.75258 0.0
C791 C 0.78606 0.33205 0.7518 0.0
C792 C 0.80856 0.34556 0.755 0.0
H793 H 0.8625 0.41886 0.72687 0.0
H794 H 0.83688 0.39312 0.72726 0.0
H795 H 0.8395 0.41654 0.73998 0.0
H796 H 0.8096 0.39386 0.76285 0.0
H797 H 0.77028 0.37036 0.75722 0.0
H798 H 0.5422 0.94465 0.96946 0.0
H799 H 0.52711 0.90942 0.9529 0.0
H800 H 0.46256 0.90218 0.95503 0.0
H801 H 0.47757 0.93721 0.97205 0.0
H802 H 0.46215 0.86767 0.96991 0.0
H803 H 0.50525 0.88519 0.90042 0.0
H804 H 0.52417 0.89645 0.92 0.0
H805 H 0.50564 0.90652 0.9151 0.0
C806 C 0.52493 0.93591 0.96578 0.0
C807 C 0.51105 0.94366 0.97201 0.0
C808 C 0.5163 0.91575 0.95628 0.0
C809 C 0.49369 0.90316 0.95255 0.0
C810 C 0.48004 0.91158 0.95772 0.0
H811 H 0.43416 0.77438 0.89605 0.0
H812 H 0.447 0.81301 0.90331 0.0
C813 C 0.48862 0.93161 0.9674 0.0
C814 C 0.48393 0.88014 0.94565 0.0
H815 H 0.48848 0.84777 0.91155 0.0
C816 C 0.46773 0.86339 0.95699 0.0
C817 C 0.491 0.87445 0.92871 0.0
C818 C 0.50731 0.89164 0.91526 0.0
C819 C 0.45896 0.84117 0.95226 0.0
C820 C 0.46699 0.83545 0.93599 0.0
C821 C 0.48258 0.85216 0.9242 0.0
C822 C 0.45973 0.81221 0.93131 0.0
C823 C 0.44112 0.82405 0.96477 0.0
C824 C 0.46296 0.79904 0.94449 0.0
C825 C 0.45544 0.77694 0.9405 0.0
C826 C 0.44472 0.76754 0.92311 0.0
C827 C 0.44201 0.78096 0.90971 0.0
C828 C 0.44949 0.80309 0.91376 0.0
H829 H 0.43234 0.83095 0.97283 0.0
H830 H 0.42898 0.80987 0.95616 0.0
H831 H 0.44858 0.81797 0.97537 0.0
H832 H 0.47119 0.80583 0.95797 0.0
H833 H 0.45765 0.76713 0.95125 0.0
H834 H 0.56749 0.48311 0.13349 0.0
H835 H 0.58909 0.47021 0.11599 0.0
H836 H 0.64094 0.5371 0.10834 0.0
H837 H 0.6195 0.55012 0.1259 0.0
H838 H 0.61601 0.48436 0.07714 0.0
H839 H 0.66248 0.50232 0.1457 0.0
H840 H 0.63512 0.49838 0.1446 0.0
H841 H 0.65791 0.52335 0.13585 0.0
C842 C 0.5832 0.49508 0.12753 0.0
C843 C 0.59188 0.5176 0.13115 0.0
C844 C 0.59548 0.4877 0.11753 0.0
C845 C 0.61664 0.50271 0.11106 0.0
C846 C 0.62461 0.52529 0.11324 0.0
H847 H 0.72548 0.48066 0.08871 0.0
H848 H 0.70256 0.49736 0.09333 0.0
C849 C 0.61229 0.5327 0.12317 0.0
C850 C 0.63144 0.49468 0.10472 0.0
H851 H 0.67311 0.48737 0.12076 0.0
C852 C 0.62861 0.4851 0.08656 0.0
C853 C 0.64776 0.49565 0.11713 0.0
C854 C 0.65106 0.50535 0.13697 0.0
C855 C 0.6419 0.47656 0.08042 0.0
C856 C 0.658 0.47718 0.093 0.0
C857 C 0.66084 0.48695 0.11109 0.0
C858 C 0.67186 0.46742 0.08807 0.0
C859 C 0.63877 0.4673 0.06044 0.0
C860 C 0.66229 0.44505 0.08344 0.0
C861 C 0.6754 0.4355 0.08067 0.0
C862 C 0.6983 0.44807 0.08283 0.0
C863 C 0.70786 0.47052 0.08715 0.0
C864 C 0.69479 0.48009 0.08971 0.0
H865 H 0.63112 0.4742 0.05086 0.0
H866 H 0.65462 0.47066 0.05409 0.0
H867 H 0.62768 0.44925 0.06101 0.0
H868 H 0.64463 0.43476 0.08262 0.0
H869 H 0.66756 0.4181 0.0776 0.0
H870 H 0.47864 0.93856 0.51725 0.0
H871 H 0.45841 0.90288 0.53327 0.0
H872 H 0.4 0.90824 0.53309 0.0
H873 H 0.42029 0.94411 0.51746 0.0
H874 H 0.40321 0.88735 0.56573 0.0
H875 H 0.41656 0.8516 0.49965 0.0
H876 H 0.44134 0.87142 0.51135 0.0
H877 H 0.42329 0.87987 0.50112 0.0
C878 C 0.46164 0.93236 0.52112 0.0
C879 C 0.45099 0.944 0.51601 0.0
C880 C 0.45006 0.91193 0.53013 0.0
C881 C 0.42755 0.90264 0.53389 0.0
C882 C 0.41733 0.91504 0.53022 0.0
H883 H 0.32952 0.76592 0.5344 0.0
H884 H 0.35345 0.80498 0.52838 0.0
C885 C 0.42897 0.93559 0.52138 0.0
C886 C 0.41417 0.8793 0.5398 0.0
H887 H 0.39733 0.82706 0.5247 0.0
C888 C 0.40198 0.87414 0.55684 0.0
C889 C 0.41229 0.86207 0.52798 0.0
C890 C 0.42388 0.86642 0.50892 0.0
C891 C 0.38793 0.85221 0.56235 0.0
C892 C 0.38635 0.83502 0.55066 0.0
C893 C 0.39866 0.84023 0.53371 0.0
C894 C 0.37123 0.81148 0.5551 0.0
C895 C 0.37437 0.84767 0.58028 0.0
C896 C 0.37325 0.80203 0.57213 0.0
C897 C 0.35931 0.77964 0.57577 0.0
C898 C 0.34321 0.7662 0.56234 0.0
C899 C 0.34138 0.77576 0.54525 0.0
C900 C 0.3552 0.79811 0.5417 0.0
H901 H 0.3733 0.86222 0.58487 0.0
H902 H 0.35749 0.83368 0.57811 0.0
H903 H 0.3821 0.84334 0.59206 0.0
H904 H 0.38578 0.81189 0.58251 0.0
H905 H 0.36112 0.77291 0.58913 0.0
H906 H 0.50986 0.41365 0.65983 0.0
H907 H 0.52334 0.3935 0.67859 0.0
H908 H 0.54625 0.44351 0.72231 0.0
H909 H 0.53256 0.4638 0.70337 0.0
H910 H 0.57829 0.43348 0.70871 0.0
H911 H 0.50175 0.35771 0.72836 0.0
H912 H 0.50272 0.36433 0.70343 0.0
H913 H 0.50218 0.3826 0.72119 0.0
C914 C 0.51735 0.42006 0.67365 0.0
C915 C 0.52011 0.44012 0.68029 0.0
C916 C 0.52495 0.40852 0.68439 0.0
C917 C 0.53552 0.41684 0.70198 0.0
C918 C 0.53792 0.43671 0.70887 0.0
H919 H 0.58131 0.3365 0.7614 0.0
H920 H 0.56534 0.36016 0.75643 0.0
C921 C 0.53007 0.44822 0.69814 0.0
C922 C 0.5458 0.40563 0.71194 0.0
H923 H 0.53473 0.3552 0.72779 0.0
C924 C 0.56876 0.41651 0.71328 0.0
C925 C 0.53336 0.38356 0.71805 0.0
C926 C 0.50862 0.37142 0.71788 0.0
C927 C 0.57965 0.40544 0.71938 0.0
C928 C 0.56724 0.38288 0.72406 0.0
C929 C 0.54424 0.37242 0.72397 0.0
C930 C 0.57777 0.36947 0.72759 0.0
C931 C 0.60437 0.41783 0.7203 0.0
C932 C 0.58988 0.36674 0.71297 0.0
C933 C 0.59894 0.35325 0.71574 0.0
C934 C 0.59605 0.34215 0.73319 0.0
C935 C 0.58402 0.34502 0.74788 0.0
C936 C 0.57482 0.35844 0.74504 0.0
H937 H 0.61094 0.43576 0.72195 0.0
H938 H 0.61038 0.41197 0.73237 0.0
H939 H 0.61101 0.41519 0.70678 0.0
H940 H 0.59202 0.37478 0.69927 0.0
H941 H 0.60827 0.35155 0.7042 0.0
H942 H 0.09554 0.49488 0.855 0.0
H943 H 0.13037 0.51099 0.87219 0.0
H944 H 0.13065 0.57234 0.87662 0.0
H945 H 0.09631 0.55643 0.85839 0.0
H946 H 0.16655 0.57983 0.86195 0.0
H947 H 0.15437 0.52723 0.9244 0.0
H948 H 0.14512 0.51059 0.90329 0.0
H949 H 0.13156 0.52529 0.91098 0.0
C950 C 0.10263 0.51152 0.86034 0.0
C951 C 0.09322 0.52439 0.85558 0.0
C952 C 0.12255 0.52075 0.87024 0.0
C953 C 0.13317 0.54289 0.87597 0.0
C954 C 0.12283 0.55524 0.87242 0.0
H955 H 0.26413 0.59718 0.92848 0.0
H956 H 0.22515 0.58475 0.92409 0.0
C957 C 0.10314 0.54613 0.86215 0.0
C958 C 0.15633 0.55389 0.8828 0.0
H959 H 0.19167 0.54717 0.91177 0.0
C960 C 0.1719 0.57287 0.87314 0.0
C961 C 0.16352 0.54518 0.89758 0.0
C962 C 0.14767 0.5261 0.90977 0.0
C963 C 0.19438 0.58266 0.87713 0.0
C964 C 0.20171 0.57275 0.89064 0.0
C965 C 0.18613 0.55452 0.90109 0.0
C966 C 0.22543 0.58049 0.89342 0.0
C967 C 0.21001 0.60352 0.86671 0.0
C968 C 0.23854 0.58195 0.87772 0.0
C969 C 0.26089 0.58948 0.88009 0.0
C970 C 0.27065 0.59527 0.89834 0.0
C971 C 0.25735 0.59329 0.91416 0.0
C972 C 0.23498 0.58598 0.91171 0.0
H973 H 0.20183 0.61293 0.86258 0.0
H974 H 0.22459 0.61425 0.87559 0.0
H975 H 0.21562 0.59931 0.85334 0.0
H976 H 0.23148 0.57725 0.86353 0.0
H977 H 0.27052 0.591 0.8675 0.0
H978 H 0.6159 0.08715 0.02432 0.0
H979 H 0.63777 0.12159 0.04173 0.0
H980 H 0.58631 0.13725 0.03435 0.0
H981 H 0.56412 0.10258 0.01746 0.0
H982 H 0.65175 0.16077 0.02376 0.0
H983 H 0.60545 0.15745 0.08896 0.0
H984 H 0.59985 0.13316 0.07566 0.0
H985 H 0.58903 0.15017 0.06765 0.0
C986 C 0.60887 0.0975 0.02708 0.0
C987 C 0.58829 0.09217 0.01946 0.0
C988 C 0.62147 0.11728 0.0369 0.0
C989 C 0.61367 0.13199 0.03944 0.0
C990 C 0.59255 0.12604 0.0329 0.0
H991 H 0.66732 0.26991 0.06069 0.0
H992 H 0.64423 0.23043 0.05516 0.0
C993 C 0.57995 0.10628 0.0231 0.0
C994 C 0.62861 0.15465 0.04639 0.0
H995 H 0.63321 0.19331 0.07861 0.0
C996 C 0.64787 0.16778 0.03595 0.0
C997 C 0.62341 0.16385 0.06217 0.0
C998 C 0.60341 0.15036 0.07437 0.0
C999 C 0.6617 0.19001 0.04042 0.0
C1000 C 0.65634 0.19933 0.05599 0.0
C1001 C 0.63728 0.18614 0.06667 0.0
C1002 C 0.66998 0.22294 0.06089 0.0
C1003 C 0.68146 0.20356 0.02791 0.0
C1004 C 0.69198 0.23175 0.06638 0.0
C1005 C 0.70523 0.2543 0.06954 0.0
C1006 C 0.69668 0.26848 0.06742 0.0
C1007 C 0.6744 0.25946 0.06259 0.0
C1008 C 0.66118 0.2369 0.05938 0.0
H1009 H 0.6804 0.19532 0.01406 0.0
H1010 H 0.68331 0.21991 0.02492 0.0
H1011 H 0.69645 0.20614 0.03544 0.0
H1012 H 0.69899 0.2212 0.06801 0.0
H1013 H 0.7222 0.26066 0.0736 0.0
H1014 H 0.51764 0.61414 0.15429 0.0
H1015 H 0.50535 0.63459 0.17388 0.0
H1016 H 0.50675 0.59965 0.22411 0.0
H1017 H 0.51907 0.57879 0.20429 0.0
H1018 H 0.46681 0.60118 0.21864 0.0
H1019 H 0.54039 0.68368 0.2132 0.0
H1020 H 0.53167 0.67043 0.19034 0.0
H1021 H 0.54108 0.65879 0.20838 0.0
C1022 C 0.51538 0.61081 0.16952 0.0
C1023 C 0.51911 0.59474 0.17777 0.0
C1024 C 0.50856 0.62266 0.18073 0.0
C1025 C 0.5054 0.61884 0.20047 0.0
C1026 C 0.50927 0.60294 0.20889 0.0
H1027 H 0.4702 0.70843 0.25753 0.0
H1028 H 0.48715 0.68567 0.25279 0.0
C1029 C 0.51633 0.59111 0.19762 0.0
C1030 C 0.49684 0.6308 0.21174 0.0
H1031 H 0.50623 0.6826 0.21999 0.0
C1032 C 0.47559 0.61897 0.21935 0.0
C1033 C 0.50841 0.65397 0.21289 0.0
C1034 C 0.53175 0.66746 0.20594 0.0
C1035 C 0.46502 0.62981 0.22682 0.0
C1036 C 0.47591 0.65303 0.22639 0.0
C1037 C 0.49775 0.6648 0.22009 0.0
C1038 C 0.46442 0.66539 0.23073 0.0
C1039 C 0.4421 0.61627 0.23467 0.0
C1040 C 0.44604 0.66158 0.21991 0.0
C1041 C 0.43631 0.67448 0.22261 0.0
C1042 C 0.44485 0.69162 0.23611 0.0
C1043 C 0.46306 0.6952 0.24717 0.0
C1044 C 0.47282 0.68227 0.24443 0.0
H1045 H 0.43915 0.60015 0.24004 0.0
H1046 H 0.43902 0.62495 0.24649 0.0
H1047 H 0.43009 0.61305 0.22306 0.0
H1048 H 0.43956 0.649 0.20894 0.0
H1049 H 0.42219 0.67114 0.21398 0.0
H1050 H 0.93576 0.47715 0.35083 0.0
H1051 H 0.90078 0.4647 0.36735 0.0
H1052 H 0.91484 0.53163 0.3716 0.0
H1053 H 0.94968 0.54419 0.35487 0.0
H1054 H 0.88723 0.47774 0.40391 0.0
H1055 H 0.85884 0.49761 0.33635 0.0
H1056 H 0.883 0.4949 0.33737 0.0
H1057 H 0.88386 0.51915 0.34655 0.0
C1058 C 0.93161 0.48925 0.35569 0.0
C1059 C 0.94538 0.51163 0.3514 0.0
C1060 C 0.91167 0.48212 0.36516 0.0
C1061 C 0.90514 0.49723 0.37044 0.0
C1062 C 0.91957 0.51972 0.36751 0.0
H1063 H 0.77553 0.47727 0.39549 0.0
H1064 H 0.81499 0.49324 0.3904 0.0
C1065 C 0.93955 0.52688 0.35809 0.0
C1066 C 0.88232 0.48926 0.37685 0.0
H1067 H 0.83363 0.48346 0.36167 0.0
C1068 C 0.87548 0.47905 0.39477 0.0
C1069 C 0.86707 0.49093 0.36481 0.0
C1070 C 0.8734 0.50108 0.34512 0.0
C1071 C 0.85374 0.47066 0.40107 0.0
C1072 C 0.8384 0.47209 0.3889 0.0
C1073 C 0.84538 0.48243 0.37103 0.0
C1074 C 0.81488 0.46264 0.39404 0.0
C1075 C 0.84752 0.46067 0.42079 0.0
C1076 C 0.80165 0.44012 0.39791 0.0
C1077 C 0.77908 0.43096 0.40091 0.0
C1078 C 0.76925 0.44409 0.39979 0.0
C1079 C 0.78259 0.46669 0.39624 0.0
C1080 C 0.80515 0.47585 0.39341 0.0
H1081 H 0.86211 0.46681 0.43027 0.0
H1082 H 0.83542 0.46427 0.42762 0.0
H1083 H 0.84004 0.4426 0.41962 0.0
H1084 H 0.80863 0.42946 0.39796 0.0
H1085 H 0.76918 0.41346 0.40337 0.0
H1086 H 0.08222 0.53414 0.35835 0.0
H1087 H 0.10167 0.53545 0.38783 0.0
H1088 H 0.08239 0.57923 0.41302 0.0
H1089 H 0.06272 0.57774 0.38369 0.0
H1090 H 0.13644 0.57405 0.39912 0.0
H1091 H 0.07606 0.54035 0.45825 0.0
H1092 H 0.06811 0.53513 0.43336 0.0
H1093 H 0.07384 0.5606 0.44434 0.0
C1094 C 0.08154 0.54344 0.37044 0.0
C1095 C 0.07101 0.55586 0.36875 0.0
C1096 C 0.09267 0.54421 0.38724 0.0
C1097 C 0.09345 0.55738 0.40267 0.0
C1098 C 0.08166 0.5686 0.40149 0.0
H1099 H 0.17698 0.61918 0.49991 0.0
H1100 H 0.14921 0.60584 0.47464 0.0
C1101 C 0.0704 0.56773 0.3847 0.0
C1102 C 0.10912 0.56199 0.41861 0.0
H1103 H 0.11382 0.56287 0.46733 0.0
C1104 C 0.13145 0.57129 0.41402 0.0
C1105 C 0.10261 0.5586 0.43805 0.0
C1106 C 0.07882 0.54793 0.44382 0.0
C1107 C 0.14752 0.57789 0.42832 0.0
C1108 C 0.14106 0.5748 0.44777 0.0
C1109 C 0.11871 0.56522 0.4524 0.0
C1110 C 0.15741 0.58217 0.46346 0.0
C1111 C 0.17135 0.5889 0.4225 0.0
C1112 C 0.1711 0.57312 0.46566 0.0
C1113 C 0.18717 0.58089 0.47995 0.0
C1114 C 0.18979 0.59778 0.49238 0.0
C1115 C 0.17573 0.60647 0.49035 0.0
C1116 C 0.15968 0.59871 0.47605 0.0
H1117 H 0.1738 0.59456 0.40738 0.0
H1118 H 0.18158 0.60321 0.43185 0.0
H1119 H 0.17729 0.57704 0.42398 0.0
H1120 H 0.16942 0.56014 0.45624 0.0
H1121 H 0.19777 0.57388 0.48106 0.0
H1122 H 0.52045 0.10496 0.52865 0.0
H1123 H 0.53637 0.12179 0.55936 0.0
H1124 H 0.5398 0.06443 0.57556 0.0
H1125 H 0.52403 0.04745 0.54433 0.0
H1126 H 0.52114 0.10649 0.59677 0.0
H1127 H 0.6036 0.11669 0.58244 0.0
H1128 H 0.58386 0.11082 0.56359 0.0
H1129 H 0.58015 0.0896 0.57997 0.0
C1130 C 0.52469 0.09593 0.53868 0.0
C1131 C 0.52137 0.07505 0.53398 0.0
C1132 C 0.53364 0.10551 0.55628 0.0
C1133 C 0.53952 0.09449 0.56962 0.0
C1134 C 0.53565 0.07332 0.56531 0.0
H1135 H 0.5814 0.1577 0.6825 0.0
H1136 H 0.56365 0.12928 0.65806 0.0
C1137 C 0.52653 0.0636 0.54758 0.0
C1138 C 0.55 0.10577 0.58778 0.0
H1139 H 0.59958 0.13282 0.61047 0.0
C1140 C 0.53819 0.11195 0.59999 0.0
C1141 C 0.57231 0.11307 0.59173 0.0
C1142 C 0.58588 0.10739 0.57875 0.0
C1143 C 0.54829 0.12594 0.61565 0.0
C1144 C 0.57074 0.13362 0.61939 0.0
C1145 C 0.58236 0.12682 0.60758 0.0
C1146 C 0.58279 0.15008 0.63457 0.0
C1147 C 0.53514 0.1333 0.62741 0.0
C1148 C 0.60001 0.17098 0.62957 0.0
C1149 C 0.61043 0.1872 0.64354 0.0
C1150 C 0.60386 0.18283 0.66282 0.0
C1151 C 0.58703 0.16163 0.66784 0.0
C1152 C 0.57668 0.1454 0.65386 0.0
H1153 H 0.5196 0.12964 0.62019 0.0
H1154 H 0.5309 0.1246 0.64136 0.0
H1155 H 0.5448 0.15121 0.6303 0.0
H1156 H 0.60505 0.17491 0.61476 0.0
H1157 H 0.62357 0.2032 0.63921 0.0
H1158 H 0.45829 0.49734 0.71456 0.0
H1159 H 0.45592 0.51475 0.74413 0.0
H1160 H 0.4984 0.57858 0.71978 0.0
H1161 H 0.50101 0.56129 0.69017 0.0
H1162 H 0.50333 0.57116 0.76297 0.0
H1163 H 0.41987 0.54883 0.73696 0.0
H1164 H 0.42668 0.52734 0.7375 0.0
H1165 H 0.44074 0.54989 0.72123 0.0
C1166 C 0.4678 0.51505 0.71575 0.0
C1167 C 0.47974 0.52798 0.70001 0.0
C1168 C 0.46629 0.52496 0.7326 0.0
C1169 C 0.47679 0.54791 0.73399 0.0
C1170 C 0.49017 0.56084 0.71893 0.0
H1171 H 0.44124 0.62826 0.80186 0.0
H1172 H 0.45322 0.61243 0.77666 0.0
C1173 C 0.49161 0.55096 0.70204 0.0
C1174 C 0.47154 0.55834 0.74994 0.0
H1175 H 0.43085 0.56684 0.7667 0.0
C1176 C 0.48749 0.57019 0.76389 0.0
C1177 C 0.45096 0.55727 0.75083 0.0
C1178 C 0.43355 0.54529 0.73581 0.0
C1179 C 0.48322 0.58083 0.77894 0.0
C1180 C 0.4625 0.57946 0.77996 0.0
C1181 C 0.44669 0.56779 0.76588 0.0
C1182 C 0.45673 0.58999 0.79552 0.0
C1183 C 0.50096 0.59374 0.79343 0.0
C1184 C 0.45467 0.58254 0.81443 0.0
C1185 C 0.44758 0.59136 0.82883 0.0
C1186 C 0.4424 0.60782 0.82458 0.0
C1187 C 0.4448 0.61543 0.80561 0.0
C1188 C 0.4518 0.60652 0.79122 0.0
H1189 H 0.51732 0.59707 0.78839 0.0
H1190 H 0.5018 0.6096 0.79666 0.0
H1191 H 0.49711 0.58423 0.80695 0.0
H1192 H 0.45795 0.56947 0.81797 0.0
H1193 H 0.44553 0.58479 0.84318 0.0
H1194 H 0.95845 0.50019 0.85887 0.0
H1195 H 0.93898 0.49894 0.88832 0.0
H1196 H 0.95686 0.45388 0.91306 0.0
H1197 H 0.97669 0.45548 0.88383 0.0
H1198 H 0.9038 0.46192 0.89966 0.0
H1199 H 0.96437 0.49195 0.95867 0.0
H1200 H 0.97241 0.49692 0.9338 0.0
H1201 H 0.96542 0.47107 0.94476 0.0
C1202 C 0.95881 0.49061 0.87087 0.0
C1203 C 0.96909 0.47796 0.86911 0.0
C1204 C 0.94765 0.48985 0.88765 0.0
C1205 C 0.94652 0.4764 0.90297 0.0
C1206 C 0.9579 0.46478 0.90165 0.0
H1207 H 0.86021 0.41242 0.99786 0.0
H1208 H 0.88808 0.42574 0.97263 0.0
C1209 C 0.96924 0.46568 0.88492 0.0
C1210 C 0.93105 0.47214 0.91903 0.0
H1211 H 0.92644 0.46985 0.9678 0.0
C1212 C 0.90884 0.46401 0.91455 0.0
C1213 C 0.93757 0.4747 0.93847 0.0
C1214 C 0.96129 0.48434 0.94422 0.0
C1215 C 0.8929 0.45772 0.92893 0.0
C1216 C 0.89935 0.45978 0.94833 0.0
C1217 C 0.92157 0.46825 0.95288 0.0
C1218 C 0.88304 0.45241 0.96402 0.0
C1219 C 0.86915 0.44817 0.92326 0.0
C1220 C 0.87113 0.46313 0.96759 0.0
C1221 C 0.85511 0.45551 0.98193 0.0
C1222 C 0.85072 0.43699 0.99292 0.0
C1223 C 0.86293 0.42649 0.98943 0.0
C1224 C 0.879 0.43419 0.97516 0.0
H1225 H 0.86645 0.44389 0.9078 0.0
H1226 H 0.85853 0.43321 0.93177 0.0
H1227 H 0.86391 0.46036 0.92621 0.0
H1228 H 0.87415 0.47734 0.95922 0.0
H1229 H 0.84593 0.46389 0.9842 0.0
H1230 H 0.47469 0.95828 0.0283 0.0
H1231 H 0.45707 0.94007 0.05837 0.0
H1232 H 0.52015 0.95568 0.08137 0.0
H1233 H 0.53779 0.97437 0.0516 0.0
H1234 H 0.4566 0.90438 0.07004 0.0
H1235 H 0.49338 0.96595 0.12781 0.0
H1236 H 0.49604 0.9736 0.10286 0.0
H1237 H 0.51416 0.96536 0.11343 0.0
C1238 C 0.48482 0.95844 0.04005 0.0
C1239 C 0.50759 0.96777 0.03768 0.0
C1240 C 0.47476 0.94799 0.05719 0.0
C1241 C 0.48726 0.94659 0.07223 0.0
C1242 C 0.51017 0.957 0.07023 0.0
H1243 H 0.46708 0.85567 0.16111 0.0
H1244 H 0.48029 0.88403 0.1364 0.0
C1245 C 0.52027 0.96767 0.05317 0.0
C1246 C 0.47621 0.93174 0.08871 0.0
H1247 H 0.47729 0.92789 0.13746 0.0
C1248 C 0.46081 0.90967 0.08478 0.0
C1249 C 0.48173 0.93856 0.10799 0.0
C1250 C 0.49707 0.96222 0.11327 0.0
C1251 C 0.45152 0.89411 0.0995 0.0
C1252 C 0.45779 0.90077 0.11863 0.0
C1253 C 0.47265 0.92288 0.1227 0.0
C1254 C 0.44995 0.88461 0.1344 0.0
C1255 C 0.4357 0.87045 0.09453 0.0
C1256 C 0.42855 0.8757 0.14149 0.0
C1257 C 0.42096 0.85961 0.15577 0.0
C1258 C 0.43465 0.85208 0.16314 0.0
C1259 C 0.45618 0.86126 0.15602 0.0
C1260 C 0.46376 0.87743 0.14184 0.0
H1261 H 0.43369 0.86766 0.07882 0.0
H1262 H 0.44147 0.8597 0.10074 0.0
H1263 H 0.4194 0.86547 0.10086 0.0
H1264 H 0.4177 0.88113 0.1359 0.0
H1265 H 0.40443 0.85319 0.16113 0.0
H1266 H 0.60437 0.51835 0.19532 0.0
H1267 H 0.60468 0.50251 0.22628 0.0
H1268 H 0.54115 0.49434 0.23942 0.0
H1269 H 0.54071 0.51029 0.20803 0.0
H1270 H 0.59909 0.51703 0.26475 0.0
H1271 H 0.53575 0.43151 0.24505 0.0
H1272 H 0.55071 0.45201 0.22698 0.0
H1273 H 0.53023 0.4536 0.241 0.0
C1274 C 0.59043 0.51316 0.20478 0.0
C1275 C 0.57236 0.51523 0.19921 0.0
C1276 C 0.59069 0.50423 0.22248 0.0
C1277 C 0.57287 0.49709 0.23501 0.0
C1278 C 0.55497 0.49961 0.22981 0.0
H1279 H 0.56799 0.42104 0.33721 0.0
H1280 H 0.55703 0.43966 0.31368 0.0
C1281 C 0.55477 0.50877 0.212 0.0
C1282 C 0.57336 0.4866 0.25322 0.0
H1283 H 0.55579 0.43625 0.27326 0.0
C1284 C 0.58932 0.49942 0.26684 0.0
C1285 C 0.56054 0.46365 0.25588 0.0
C1286 C 0.54334 0.44923 0.24149 0.0
C1287 C 0.59354 0.48977 0.28262 0.0
C1288 C 0.5818 0.46666 0.28457 0.0
C1289 C 0.56487 0.45395 0.27162 0.0
C1290 C 0.58821 0.45536 0.2989 0.0
C1291 C 0.61095 0.50436 0.2968 0.0
C1292 C 0.60918 0.45769 0.29812 0.0
C1293 C 0.61549 0.44715 0.31149 0.0
C1294 C 0.60088 0.43394 0.32588 0.0
C1295 C 0.57971 0.43132 0.32644 0.0
C1296 C 0.57339 0.44186 0.31299 0.0
H1297 H 0.61333 0.52121 0.29683 0.0
H1298 H 0.60669 0.49756 0.31153 0.0
H1299 H 0.62678 0.50561 0.29275 0.0
H1300 H 0.62073 0.4677 0.28712 0.0
H1301 H 0.63197 0.4497 0.31075 0.0
H1302 H 0.50281 0.95864 0.46084 0.0
H1303 H 0.50233 0.93968 0.43128 0.0
H1304 H 0.45561 0.95539 0.40676 0.0
H1305 H 0.45633 0.97463 0.43612 0.0
H1306 H 0.46552 0.90366 0.42008 0.0
H1307 H 0.49412 0.96415 0.36104 0.0
H1308 H 0.49911 0.97224 0.38591 0.0
H1309 H 0.47305 0.96467 0.37509 0.0
C1310 C 0.49301 0.95865 0.44888 0.0
C1311 C 0.47961 0.9681 0.45076 0.0
C1312 C 0.49271 0.94779 0.43203 0.0
C1313 C 0.47901 0.94617 0.41674 0.0
C1314 C 0.46669 0.95682 0.41815 0.0
H1315 H 0.41652 0.86004 0.32146 0.0
H1316 H 0.42965 0.88801 0.3466 0.0
C1317 C 0.46711 0.96783 0.43496 0.0
C1318 C 0.47514 0.93079 0.40069 0.0
H1319 H 0.47276 0.92611 0.35193 0.0
C1320 C 0.46747 0.90866 0.40518 0.0
C1321 C 0.4775 0.93727 0.38126 0.0
C1322 C 0.4866 0.96093 0.37552 0.0
C1323 C 0.46137 0.89271 0.39081 0.0
C1324 C 0.46325 0.89911 0.3714 0.0
C1325 C 0.47131 0.92128 0.36685 0.0
C1326 C 0.45605 0.88278 0.3557 0.0
C1327 C 0.45217 0.86901 0.39652 0.0
C1328 C 0.4667 0.87074 0.35239 0.0
C1329 C 0.45914 0.85462 0.33813 0.0
C1330 C 0.4408 0.85028 0.3269 0.0
C1331 C 0.43043 0.86269 0.33007 0.0
C1332 C 0.43804 0.87882 0.3443 0.0
H1333 H 0.44764 0.86626 0.41192 0.0
H1334 H 0.43744 0.85813 0.38785 0.0
H1335 H 0.46469 0.86413 0.39388 0.0
H1336 H 0.48078 0.87372 0.36092 0.0
H1337 H 0.46743 0.84531 0.33611 0.0
H1338 H 0.49939 0.4523 0.60158 0.0
H1339 H 0.51788 0.45102 0.57227 0.0
H1340 H 0.58068 0.49462 0.59799 0.0
H1341 H 0.56225 0.49544 0.62749 0.0
H1342 H 0.54854 0.48025 0.54591 0.0
H1343 H 0.58309 0.4386 0.58947 0.0
H1344 H 0.56208 0.44377 0.59843 0.0
H1345 H 0.59024 0.46548 0.59786 0.0
C1346 C 0.5171 0.46216 0.60072 0.0
C1347 C 0.52945 0.47384 0.61678 0.0
C1348 C 0.52766 0.46133 0.58403 0.0
C1349 C 0.55066 0.47225 0.58317 0.0
C1350 C 0.56293 0.48563 0.59854 0.0
H1351 H 0.63828 0.45866 0.50292 0.0
H1352 H 0.62339 0.47195 0.52796 0.0
C1353 C 0.55241 0.48625 0.6153 0.0
C1354 C 0.56171 0.46779 0.56713 0.0
H1355 H 0.59357 0.44506 0.55704 0.0
C1356 C 0.55846 0.47264 0.54833 0.0
C1357 C 0.5745 0.45768 0.57032 0.0
C1358 C 0.57756 0.45087 0.59007 0.0
C1359 C 0.56778 0.46775 0.53263 0.0
C1360 C 0.58046 0.45757 0.53587 0.0
C1361 C 0.58395 0.453 0.55466 0.0
C1362 C 0.58948 0.45055 0.51997 0.0
C1363 C 0.56409 0.47357 0.51272 0.0
C1364 C 0.57532 0.43398 0.50734 0.0
C1365 C 0.58376 0.42631 0.4931 0.0
C1366 C 0.60653 0.43505 0.49124 0.0
C1367 C 0.62068 0.45175 0.50387 0.0
C1368 C 0.61222 0.45932 0.51819 0.0
H1369 H 0.55884 0.48606 0.51299 0.0
H1370 H 0.57922 0.4799 0.50396 0.0
H1371 H 0.551 0.45861 0.50563 0.0
H1372 H 0.55771 0.42671 0.5087 0.0
H1373 H 0.57244 0.4136 0.48347 0.0
H1374 H 0.10909 0.52808 0.79316 0.0
H1375 H 0.12553 0.54356 0.76228 0.0
H1376 H 0.06615 0.54221 0.74464 0.0
H1377 H 0.04953 0.52693 0.77607 0.0
H1378 H 0.11011 0.52537 0.72539 0.0
H1379 H 0.11595 0.60681 0.73503 0.0
H1380 H 0.11151 0.58873 0.75499 0.0
H1381 H 0.08964 0.58252 0.73848 0.0
C1382 C 0.09955 0.53129 0.78283 0.0
C1383 C 0.07815 0.52669 0.78717 0.0
C1384 C 0.10892 0.53998 0.76512 0.0
C1385 C 0.09717 0.54427 0.75127 0.0
C1386 C 0.07559 0.53929 0.75528 0.0
H1387 H 0.159 0.60368 0.64049 0.0
H1388 H 0.13077 0.58622 0.66535 0.0
C1389 C 0.06609 0.53046 0.77313 0.0
C1390 C 0.10803 0.55398 0.7328 0.0
H1391 H 0.1336 0.60245 0.70821 0.0
C1392 C 0.11491 0.54208 0.72143 0.0
C1393 C 0.11428 0.57581 0.72771 0.0
C1394 C 0.10763 0.58937 0.73967 0.0
C1395 C 0.12869 0.55175 0.70561 0.0
C1396 C 0.13587 0.5739 0.70114 0.0
C1397 C 0.12806 0.58547 0.7118 0.0
C1398 C 0.15293 0.58567 0.68648 0.0
C1399 C 0.13615 0.53851 0.69413 0.0
C1400 C 0.17471 0.59144 0.69034 0.0
C1401 C 0.19083 0.60142 0.67627 0.0
C1402 C 0.18541 0.60572 0.65803 0.0
C1403 C 0.16362 0.60037 0.65436 0.0
C1404 C 0.14751 0.59051 0.66853 0.0
H1405 H 0.1259 0.52064 0.69701 0.0
H1406 H 0.13563 0.54144 0.67856 0.0
H1407 H 0.15338 0.54372 0.69796 0.0
H1408 H 0.17916 0.58784 0.70418 0.0
H1409 H 0.20739 0.60511 0.67948 0.0
H1410 H 0.58467 0.0642 0.93947 0.0
H1411 H 0.58698 0.08468 0.91037 0.0
H1412 H 0.53895 0.09938 0.93351 0.0
H1413 H 0.53713 0.07948 0.96288 0.0
H1414 H 0.55951 0.08488 0.88247 0.0
H1415 H 0.59211 0.1599 0.92749 0.0
H1416 H 0.58805 0.13419 0.93665 0.0
H1417 H 0.56514 0.13865 0.93417 0.0
C1418 C 0.57414 0.07126 0.93809 0.0
C1419 C 0.56085 0.07044 0.95343 0.0
C1420 C 0.57555 0.08305 0.92151 0.0
C1421 C 0.5636 0.09408 0.92001 0.0
C1422 C 0.54878 0.09152 0.9346 0.0
H1423 H 0.57481 0.19226 0.83688 0.0
H1424 H 0.56125 0.16385 0.86178 0.0
C1425 C 0.54759 0.08 0.95127 0.0
C1426 C 0.56818 0.10975 0.90407 0.0
H1427 H 0.58783 0.16409 0.89457 0.0
C1428 C 0.5656 0.10217 0.88511 0.0
C1429 C 0.57634 0.13239 0.90754 0.0
C1430 C 0.58079 0.14186 0.92754 0.0
C1431 C 0.57095 0.11664 0.86955 0.0
C1432 C 0.57916 0.1392 0.87308 0.0
C1433 C 0.58137 0.14673 0.89198 0.0
C1434 C 0.58665 0.15554 0.85742 0.0
C1435 C 0.56785 0.10775 0.84944 0.0
C1436 C 0.60554 0.16039 0.84695 0.0
C1437 C 0.6134 0.17668 0.83287 0.0
C1438 C 0.60247 0.18838 0.82899 0.0
C1439 C 0.58347 0.1834 0.83946 0.0
C1440 C 0.57573 0.16722 0.85367 0.0
H1441 H 0.55705 0.08963 0.84904 0.0
H1442 H 0.56072 0.11537 0.8401 0.0
H1443 H 0.58405 0.11183 0.84342 0.0
H1444 H 0.61437 0.15176 0.84984 0.0
H1445 H 0.62795 0.17999 0.82491 0.0
H1446 H 0.5409 0.58192 0.09984 0.0
H1447 H 0.5221 0.58262 0.07055 0.0
H1448 H 0.45972 0.53754 0.0961 0.0
H1449 H 0.47844 0.53721 0.12558 0.0
H1450 H 0.49136 0.55288 0.04399 0.0
H1451 H 0.45636 0.5934 0.08858 0.0
H1452 H 0.47782 0.58868 0.09713 0.0
H1453 H 0.44984 0.56659 0.09667 0.0
C1454 C 0.52324 0.57156 0.09893 0.0
C1455 C 0.51107 0.55965 0.11497 0.0
C1456 C 0.51251 0.57206 0.08224 0.0
C1457 C 0.48949 0.56059 0.08137 0.0
C1458 C 0.47746 0.54691 0.09667 0.0
H1459 H 0.40138 0.57549 0.00264 0.0
H1460 H 0.41628 0.56172 0.02723 0.0
C1461 C 0.48816 0.54659 0.11341 0.0
C1462 C 0.47817 0.56496 0.06553 0.0
H1463 H 0.44609 0.5876 0.05613 0.0
C1464 C 0.48136 0.56036 0.04662 0.0
C1465 C 0.46528 0.57491 0.06901 0.0
C1466 C 0.46223 0.5814 0.0889 0.0
C1467 C 0.47191 0.56537 0.0311 0.0
C1468 C 0.4592 0.57547 0.03462 0.0
C1469 C 0.45574 0.57974 0.05351 0.0
C1470 C 0.45014 0.58274 0.01892 0.0
C1471 C 0.47553 0.55978 0.01108 0.0
C1472 C 0.46427 0.59925 0.00625 0.0
C1473 C 0.45583 0.60718 0.99224 0.0
C1474 C 0.43308 0.59878 0.99068 0.0
C1475 C 0.41896 0.58214 0.00335 0.0
C1476 C 0.42743 0.57429 0.01742 0.0
H1477 H 0.48052 0.54709 0.01112 0.0
H1478 H 0.46045 0.55379 0.00228 0.0
H1479 H 0.4888 0.57474 0.00416 0.0
H1480 H 0.48187 0.6063 0.0074 0.0
H1481 H 0.46713 0.61983 0.98257 0.0
H1482 H 0.95657 0.47159 0.2966 0.0
H1483 H 0.93725 0.45332 0.2671 0.0
H1484 H 0.95686 0.51634 0.24163 0.0
H1485 H 0.97647 0.53463 0.27095 0.0
H1486 H 0.90268 0.45624 0.25532 0.0
H1487 H 0.96357 0.48402 0.19665 0.0
H1488 H 0.97137 0.48702 0.2216 0.0
H1489 H 0.96552 0.50653 0.21031 0.0
C1490 C 0.95733 0.48153 0.28445 0.0
C1491 C 0.96799 0.50451 0.28604 0.0
C1492 C 0.94627 0.4711 0.26764 0.0
C1493 C 0.94565 0.48344 0.2521 0.0
C1494 C 0.95748 0.50646 0.25323 0.0
H1495 H 0.83932 0.45059 0.17447 0.0
H1496 H 0.8667 0.46411 0.20002 0.0
C1497 C 0.96869 0.51692 0.27002 0.0
C1498 C 0.93016 0.47233 0.23603 0.0
H1499 H 0.92584 0.46946 0.18726 0.0
C1500 C 0.90783 0.4589 0.24045 0.0
C1501 C 0.93683 0.47566 0.21663 0.0
C1502 C 0.96067 0.48892 0.211 0.0
C1503 C 0.89193 0.44936 0.22603 0.0
C1504 C 0.89846 0.4537 0.20663 0.0
C1505 C 0.92085 0.4664 0.20215 0.0
C1506 C 0.88214 0.44567 0.19089 0.0
C1507 C 0.86825 0.43478 0.2317 0.0
C1508 C 0.88205 0.43119 0.17704 0.0
C1509 C 0.86635 0.42336 0.16241 0.0
C1510 C 0.85053 0.42999 0.16133 0.0
C1511 C 0.85093 0.44477 0.17511 0.0
C1512 C 0.86661 0.45257 0.1897 0.0
H1513 H 0.86676 0.42822 0.24643 0.0
H1514 H 0.85975 0.44447 0.23136 0.0
H1515 H 0.85971 0.42078 0.22163 0.0
H1516 H 0.89393 0.42571 0.1777 0.0
H1517 H 0.86641 0.41187 0.15212 0.0
loop_
_geom_bond_atom_site_label_1
_geom_bond_atom_site_label_2
_geom_bond_distance
_geom_bond_site_symmetry_2
_ccdc_geom_bond_type
H0 C8 0.930 . S
H1 C11 0.930 1_455 S
H2 C13 0.930 . S
H3 C14 0.970 . S
H4 C14 0.970 . S
H5 C16 0.930 . S
H6 C18 0.930 . S
H7 C20 0.930 . S
C8 H0 0.930 . S
C8 C9 1.382 . S
C8 C10 1.426 . S
C9 C8 1.382 . S
C9 C13 1.389 . S
C10 C8 1.426 . S
C10 C11 1.375 . S
C10 C14 1.532 1_655 S
C11 H1 0.930 1_655 S
C11 C10 1.375 . S
C11 C12 1.416 . S
C12 C11 1.416 . S
C12 C13 1.371 . S
C13 H2 0.930 . S
C13 C9 1.389 . S
C13 C12 1.371 . S
C14 H3 0.970 . S
C14 H4 0.970 . S
C14 C10 1.532 1_455 S
C14 C15 1.499 . S
C15 C14 1.499 . S
C15 C16 1.370 . S
C15 C20 1.415 . S
C16 H5 0.930 . S
C16 C15 1.370 . S
C16 C17 1.407 . S
C17 C16 1.407 . S
C17 C18 1.365 . S
C18 H6 0.930 . S
C18 C17 1.365 . S
C18 C19 1.393 . S
C19 C18 1.393 . S
C19 C20 1.387 . S
C20 H7 0.930 . S
C20 C15 1.415 . S
C20 C19 1.387 . S
H21 C29 0.930 . S
H22 C32 0.930 1_545 S
H23 C34 0.930 . S
H24 C35 0.970 . S
H25 C35 0.970 . S
H26 C37 0.930 . S
H27 C39 0.930 . S
H28 C41 0.930 . S
C29 H21 0.930 . S
C29 C30 1.382 . S
C29 C31 1.426 . S
C30 C29 1.382 . S
C30 C34 1.389 . S
C31 C29 1.426 . S
C31 C32 1.375 . S
C31 C35 1.532 1_565 S
C32 H22 0.930 1_565 S
C32 C31 1.375 . S
C32 C33 1.416 . S
C33 C32 1.416 . S
C33 C34 1.371 . S
C34 H23 0.930 . S
C34 C30 1.389 . S
C34 C33 1.371 . S
C35 H24 0.970 . S
C35 H25 0.970 . S
C35 C31 1.532 1_545 S
C35 C36 1.499 . S
C36 C35 1.499 . S
C36 C37 1.370 . S
C36 C41 1.415 . S
C37 H26 0.930 . S
C37 C36 1.370 . S
C37 C38 1.407 . S
C38 C37 1.407 . S
C38 C39 1.365 . S
C39 H27 0.930 . S
C39 C38 1.365 . S
C39 C40 1.393 . S
C40 C39 1.393 . S
C40 C41 1.387 . S
C41 H28 0.930 . S
C41 C36 1.415 . S
C41 C40 1.387 . S
H42 C50 0.930 . S
H43 C53 0.930 . S
H44 C55 0.930 . S
H45 C56 0.970 . S
H46 C56 0.970 . S
H47 C58 0.930 . S
H48 C60 0.930 . S
H49 C62 0.930 . S
C50 H42 0.930 . S
C50 C51 1.382 . S
C50 C52 1.426 . S
C51 C50 1.382 . S
C51 C55 1.389 . S
C52 C50 1.426 . S
C52 C53 1.375 . S
C52 C56 1.532 . S
C53 H43 0.930 . S
C53 C52 1.375 . S
C53 C54 1.416 . S
C54 C53 1.416 . S
C54 C55 1.371 . S
C55 H44 0.930 . S
C55 C51 1.389 . S
C55 C54 1.371 . S
C56 H45 0.970 . S
C56 H46 0.970 . S
C56 C52 1.532 . S
C56 C57 1.499 . S
C57 C56 1.499 . S
C57 C58 1.370 . S
C57 C62 1.415 . S
C58 H47 0.930 . S
C58 C57 1.370 . S
C58 C59 1.407 . S
C59 C58 1.407 . S
C59 C60 1.365 . S
C60 H48 0.930 . S
C60 C59 1.365 . S
C60 C61 1.393 . S
C61 C60 1.393 . S
C61 C62 1.387 . S
C62 H49 0.930 . S
C62 C57 1.415 . S
C62 C61 1.387 . S
H63 C71 0.930 . S
H64 C74 0.930 1_455 S
H65 C76 0.930 . S
H66 C77 0.970 . S
H67 C77 0.970 . S
H68 C79 0.930 . S
H69 C81 0.930 . S
H70 C83 0.930 . S
C71 H63 0.930 . S
C71 C72 1.382 . S
C71 C73 1.426 . S
C72 C71 1.382 . S
C72 C76 1.389 . S
C73 C71 1.426 . S
C73 C74 1.375 . S
C73 C77 1.532 1_655 S
C74 H64 0.930 1_655 S
C74 C73 1.375 . S
C74 C75 1.416 . S
C75 C74 1.416 . S
C75 C76 1.371 . S
C76 H65 0.930 . S
C76 C72 1.389 . S
C76 C75 1.371 . S
C77 H66 0.970 . S
C77 H67 0.970 . S
C77 C73 1.532 1_455 S
C77 C78 1.499 . S
C78 C77 1.499 . S
C78 C79 1.370 . S
C78 C83 1.415 . S
C79 H68 0.930 . S
C79 C78 1.370 . S
C79 C80 1.407 . S
C80 C79 1.407 . S
C80 C81 1.365 . S
C81 H69 0.930 . S
C81 C80 1.365 . S
C81 C82 1.393 . S
C82 C81 1.393 . S
C82 C83 1.387 . S
C83 H70 0.930 . S
C83 C78 1.415 . S
C83 C82 1.387 . S
H84 C92 0.930 . S
H85 C95 0.930 . S
H86 C97 0.930 . S
H87 C98 0.970 1_554 S
H88 C98 0.970 . S
H89 C100 0.930 1_545 S
H90 C102 0.930 . S
H91 C104 0.930 . S
C92 H84 0.930 . S
C92 C93 1.382 1_554 S
C92 C94 1.426 1_554 S
C93 C92 1.382 1_556 S
C93 C97 1.389 . S
C94 C92 1.426 1_556 S
C94 C95 1.375 . S
C94 C98 1.532 . S
C95 H85 0.930 . S
C95 C94 1.375 . S
C95 C96 1.416 . S
C96 C95 1.416 . S
C96 C97 1.371 . S
C97 H86 0.930 . S
C97 C93 1.389 . S
C97 C96 1.371 . S
C98 H87 0.970 1_556 S
C98 H88 0.970 . S
C98 C94 1.532 . S
C98 C99 1.499 1_545 S
C99 C98 1.499 1_565 S
C99 C100 1.370 1_556 S
C99 C104 1.415 . S
C100 H89 0.930 1_565 S
C100 C99 1.370 1_554 S
C100 C101 1.407 . S
C101 C100 1.407 . S
C101 C102 1.365 . S
C102 H90 0.930 . S
C102 C101 1.365 . S
C102 C103 1.393 1_554 S
C103 C102 1.393 1_556 S
C103 C104 1.387 . S
C104 H91 0.930 . S
C104 C99 1.415 . S
C104 C103 1.387 . S
H105 C113 0.930 . S
H106 C116 0.930 . S
H107 C118 0.930 . S
H108 C119 0.970 . S
H109 C119 0.970 . S
H110 C121 0.930 . S
H111 C123 0.930 . S
H112 C125 0.930 . S
C113 H105 0.930 . S
C113 C114 1.382 . S
C113 C115 1.426 . S
C114 C113 1.382 . S
C114 C118 1.389 . S
C115 C113 1.426 . S
C115 C116 1.375 . S
C115 C119 1.532 . S
C116 H106 0.930 . S
C116 C115 1.375 . S
C116 C117 1.416 . S
C117 C116 1.416 . S
C117 C118 1.371 . S
C118 H107 0.930 . S
C118 C114 1.389 . S
C118 C117 1.371 . S
C119 H108 0.970 . S
C119 H109 0.970 . S
C119 C115 1.532 . S
C119 C120 1.499 . S
C120 C119 1.499 . S
C120 C121 1.370 . S
C120 C125 1.415 . S
C121 H110 0.930 . S
C121 C120 1.370 . S
C121 C122 1.407 . S
C122 C121 1.407 . S
C122 C123 1.365 . S
C123 H111 0.930 . S
C123 C122 1.365 . S
C123 C124 1.393 . S
C124 C123 1.393 . S
C124 C125 1.387 . S
C125 H112 0.930 . S
C125 C120 1.415 . S
C125 C124 1.387 . S
Li126 N143 1.990 . S
Li126 O186 1.956 . S
Li126 O187 1.970 . S
Li126 O188 1.961 . S
Li127 N151 1.990 . S
Li127 O186 1.970 . S
Li127 O187 1.956 . S
Li127 O189 1.961 . S
Li128 N173 1.990 . S
Li128 O186 1.961 . S
Li128 O188 1.956 . S
Li128 O189 1.970 . S
Li129 N179 1.990 . S
Li129 O187 1.961 . S
Li129 O188 1.970 . S
Li129 O189 1.956 . S
C130 C132 1.348 . S
C130 C133 1.356 . S
C130 O186 1.325 . S
N131 C134 1.314 . S
N131 C135 1.279 . S
C132 C130 1.348 . S
C132 C134 1.353 . S
C132 H190 0.929 . S
C133 C130 1.356 . S
C133 C135 1.358 . S
C133 H191 0.930 . S
C134 N131 1.314 . S
C134 C132 1.353 . S
C134 H192 0.930 . S
C135 N131 1.279 . S
C135 C133 1.358 . S
C135 H193 0.930 . S
C136 C139 1.348 . S
C136 C140 1.356 . S
C136 O187 1.325 . S
C137 N138 1.279 . S
C137 C140 1.358 . S
C137 H194 0.930 . S
N138 C137 1.279 . S
N138 C141 1.314 . S
C139 C136 1.348 . S
C139 C141 1.353 . S
C139 H195 0.929 . S
C140 C136 1.356 . S
C140 C137 1.358 . S
C140 H196 0.930 . S
C141 N138 1.314 . S
C141 C139 1.353 . S
C141 H197 0.930 . S
C142 N143 1.314 . S
C142 C147 1.353 . S
C142 H148 0.930 . S
N143 Li126 1.990 . S
N143 C142 1.314 . S
N143 C145 1.279 . S
C144 C145 1.358 . S
C144 C146 1.356 . S
C144 H198 0.930 . S
C145 N143 1.279 . S
C145 C144 1.358 . S
C145 H149 0.930 . S
C146 C144 1.356 . S
C146 C147 1.348 . S
C147 C142 1.353 . S
C147 C146 1.348 . S
C147 H199 0.929 . S
H148 C142 0.930 . S
H149 C145 0.930 . S
C150 N151 1.314 . S
C150 C152 1.353 . S
C150 H156 0.930 . S
N151 Li127 1.990 . S
N151 C150 1.314 . S
N151 C154 1.279 . S
C152 C150 1.353 . S
C152 C155 1.348 . S
C152 H200 0.929 . S
C153 C154 1.358 . S
C153 C155 1.356 . S
C153 H201 0.930 . S
C154 N151 1.279 . S
C154 C153 1.358 . S
C154 H157 0.930 . S
C155 C152 1.348 . S
C155 C153 1.356 . S
H156 C150 0.930 . S
H157 C154 0.930 . S
C158 C160 1.348 . S
C158 C161 1.356 . S
C158 O188 1.325 . S
N159 C162 1.314 . S
N159 C163 1.279 . S
C160 C158 1.348 . S
C160 C162 1.353 . S
C160 H202 0.929 . S
C161 C158 1.356 . S
C161 C163 1.358 . S
C161 H203 0.930 . S
C162 N159 1.314 . S
C162 C160 1.353 . S
C162 H204 0.930 . S
C163 N159 1.279 . S
C163 C161 1.358 . S
C163 H205 0.930 . S
C164 C165 1.348 . S
C164 C166 1.356 . S
C164 O189 1.325 . S
C165 C164 1.348 . S
C165 C167 1.353 . S
C165 H206 0.929 . S
C166 C164 1.356 . S
C166 C168 1.358 . S
C166 H207 0.930 . S
C167 C165 1.353 . S
C167 N169 1.314 . S
C167 H208 0.930 . S
C168 C166 1.358 . S
C168 N169 1.279 . S
C168 H209 0.930 . S
N169 C167 1.314 . S
N169 C168 1.279 . S
C170 C172 1.353 . S
C170 N173 1.314 . S
C170 H176 0.930 . S
C171 N173 1.279 . S
C171 C174 1.358 . S
C171 H177 0.930 . S
C172 C170 1.353 . S
C172 C175 1.348 . S
C172 H210 0.929 . S
N173 Li128 1.990 . S
N173 C170 1.314 . S
N173 C171 1.279 . S
C174 C171 1.358 . S
C174 C175 1.356 . S
C174 H211 0.930 . S
C175 C172 1.348 . S
C175 C174 1.356 . S
H176 C170 0.930 . S
H177 C171 0.930 . S
C178 N179 1.314 . S
C178 C180 1.353 . S
C178 H184 0.930 . S
N179 Li129 1.990 . S
N179 C178 1.314 . S
N179 C182 1.279 . S
C180 C178 1.353 . S
C180 C183 1.348 . S
C180 H212 0.929 . S
C181 C182 1.358 . S
C181 C183 1.356 . S
C181 H213 0.930 . S
C182 N179 1.279 . S
C182 C181 1.358 . S
C182 H185 0.930 . S
C183 C180 1.348 . S
C183 C181 1.356 . S
H184 C178 0.930 . S
H185 C182 0.930 . S
O186 Li126 1.956 . S
O186 Li127 1.970 . S
O186 Li128 1.961 . S
O186 C130 1.325 . S
O187 Li126 1.970 . S
O187 Li127 1.956 . S
O187 Li129 1.961 . S
O187 C136 1.325 . S
O188 Li126 1.961 . S
O188 Li128 1.956 . S
O188 Li129 1.970 . S
O188 C158 1.325 . S
O189 Li127 1.961 . S
O189 Li128 1.970 . S
O189 Li129 1.956 . S
O189 C164 1.325 . S
H190 C132 0.929 . S
H191 C133 0.930 . S
H192 C134 0.930 . S
H193 C135 0.930 . S
H194 C137 0.930 . S
H195 C139 0.929 . S
H196 C140 0.930 . S
H197 C141 0.930 . S
H198 C144 0.930 . S
H199 C147 0.929 . S
H200 C152 0.929 . S
H201 C153 0.930 . S
H202 C160 0.929 . S
H203 C161 0.930 . S
H204 C162 0.930 . S
H205 C163 0.930 . S
H206 C165 0.929 . S
H207 C166 0.930 . S
H208 C167 0.930 . S
H209 C168 0.930 . S
H210 C172 0.929 . S
H211 C174 0.930 . S
H212 C180 0.929 . S
H213 C181 0.930 . S
Li214 N231 1.990 . S
Li214 O274 1.956 . S
Li214 O275 1.970 . S
Li214 O276 1.961 . S
Li215 N239 1.990 . S
Li215 O274 1.970 . S
Li215 O275 1.956 . S
Li215 O277 1.961 . S
Li216 N261 1.990 . S
Li216 O274 1.961 . S
Li216 O276 1.956 . S
Li216 O277 1.970 . S
Li217 N267 1.990 . S
Li217 O275 1.961 . S
Li217 O276 1.970 . S
Li217 O277 1.956 . S
C218 C220 1.348 . S
C218 C221 1.356 . S
C218 O274 1.325 . S
N219 C222 1.314 . S
N219 C223 1.279 . S
C220 C218 1.348 . S
C220 C222 1.353 . S
C220 H278 0.929 . S
C221 C218 1.356 . S
C221 C223 1.358 . S
C221 H279 0.930 . S
C222 N219 1.314 . S
C222 C220 1.353 . S
C222 H280 0.930 . S
C223 N219 1.279 . S
C223 C221 1.358 . S
C223 H281 0.930 . S
C224 C227 1.348 . S
C224 C228 1.356 . S
C224 O275 1.325 . S
C225 N226 1.279 . S
C225 C228 1.358 . S
C225 H282 0.930 . S
N226 C225 1.279 . S
N226 C229 1.314 . S
C227 C224 1.348 . S
C227 C229 1.353 . S
C227 H283 0.929 . S
C228 C224 1.356 . S
C228 C225 1.358 . S
C228 H284 0.930 . S
C229 N226 1.314 . S
C229 C227 1.353 . S
C229 H285 0.930 . S
C230 N231 1.314 . S
C230 C235 1.353 . S
C230 H236 0.930 . S
N231 Li214 1.990 . S
N231 C230 1.314 . S
N231 C233 1.279 . S
C232 C233 1.358 . S
C232 C234 1.356 . S
C232 H286 0.930 . S
C233 N231 1.279 . S
C233 C232 1.358 . S
C233 H237 0.930 . S
C234 C232 1.356 . S
C234 C235 1.348 . S
C235 C230 1.353 . S
C235 C234 1.348 . S
C235 H287 0.929 . S
H236 C230 0.930 . S
H237 C233 0.930 . S
C238 N239 1.314 . S
C238 C240 1.353 . S
C238 H244 0.930 . S
N239 Li215 1.990 . S
N239 C238 1.314 . S
N239 C242 1.279 . S
C240 C238 1.353 . S
C240 C243 1.348 . S
C240 H288 0.929 . S
C241 C242 1.358 . S
C241 C243 1.356 . S
C241 H289 0.930 . S
C242 N239 1.279 . S
C242 C241 1.358 . S
C242 H245 0.930 . S
C243 C240 1.348 . S
C243 C241 1.356 . S
H244 C238 0.930 . S
H245 C242 0.930 . S
C246 C248 1.348 . S
C246 C249 1.356 . S
C246 O276 1.325 . S
N247 C250 1.314 . S
N247 C251 1.279 . S
C248 C246 1.348 . S
C248 C250 1.353 . S
C248 H290 0.929 . S
C249 C246 1.356 . S
C249 C251 1.358 . S
C249 H291 0.930 . S
C250 N247 1.314 . S
C250 C248 1.353 . S
C250 H292 0.930 . S
C251 N247 1.279 . S
C251 C249 1.358 . S
C251 H293 0.930 . S
C252 C253 1.348 . S
C252 C254 1.356 . S
C252 O277 1.325 . S
C253 C252 1.348 . S
C253 C255 1.353 . S
C253 H294 0.929 . S
C254 C252 1.356 . S
C254 C256 1.358 . S
C254 H295 0.930 . S
C255 C253 1.353 . S
C255 N257 1.314 . S
C255 H296 0.930 . S
C256 C254 1.358 . S
C256 N257 1.279 . S
C256 H297 0.930 . S
N257 C255 1.314 . S
N257 C256 1.279 . S
C258 C260 1.353 . S
C258 N261 1.314 . S
C258 H264 0.930 . S
C259 N261 1.279 . S
C259 C262 1.358 . S
C259 H265 0.930 . S
C260 C258 1.353 . S
C260 C263 1.348 . S
C260 H298 0.929 . S
N261 Li216 1.990 . S
N261 C258 1.314 . S
N261 C259 1.279 . S
C262 C259 1.358 . S
C262 C263 1.356 . S
C262 H299 0.930 . S
C263 C260 1.348 . S
C263 C262 1.356 . S
H264 C258 0.930 . S
H265 C259 0.930 . S
C266 N267 1.314 . S
C266 C268 1.353 . S
C266 H272 0.930 . S
N267 Li217 1.990 . S
N267 C266 1.314 . S
N267 C270 1.279 . S
C268 C266 1.353 . S
C268 C271 1.348 . S
C268 H300 0.929 . S
C269 C270 1.358 . S
C269 C271 1.356 . S
C269 H301 0.930 . S
C270 N267 1.279 . S
C270 C269 1.358 . S
C270 H273 0.930 . S
C271 C268 1.348 . S
C271 C269 1.356 . S
H272 C266 0.930 . S
H273 C270 0.930 . S
O274 Li214 1.956 . S
O274 Li215 1.970 . S
O274 Li216 1.961 . S
O274 C218 1.325 . S
O275 Li214 1.970 . S
O275 Li215 1.956 . S
O275 Li217 1.961 . S
O275 C224 1.325 . S
O276 Li214 1.961 . S
O276 Li216 1.956 . S
O276 Li217 1.970 . S
O276 C246 1.325 . S
O277 Li215 1.961 . S
O277 Li216 1.970 . S
O277 Li217 1.956 . S
O277 C252 1.325 . S
H278 C220 0.929 . S
H279 C221 0.930 . S
H280 C222 0.930 . S
H281 C223 0.930 . S
H282 C225 0.930 . S
H283 C227 0.929 . S
H284 C228 0.930 . S
H285 C229 0.930 . S
H286 C232 0.930 . S
H287 C235 0.929 . S
H288 C240 0.929 . S
H289 C241 0.930 . S
H290 C248 0.929 . S
H291 C249 0.930 . S
H292 C250 0.930 . S
H293 C251 0.930 . S
H294 C253 0.929 . S
H295 C254 0.930 . S
H296 C255 0.930 . S
H297 C256 0.930 . S
H298 C260 0.929 . S
H299 C262 0.930 . S
H300 C268 0.929 . S
H301 C269 0.930 . S
Li302 N319 1.990 . S
Li302 O362 1.956 . S
Li302 O363 1.970 . S
Li302 O364 1.961 . S
Li303 N327 1.990 . S
Li303 O362 1.970 . S
Li303 O363 1.956 . S
Li303 O365 1.961 . S
Li304 N349 1.990 . S
Li304 O362 1.961 . S
Li304 O364 1.956 . S
Li304 O365 1.970 . S
Li305 N355 1.990 . S
Li305 O363 1.961 . S
Li305 O364 1.970 . S
Li305 O365 1.956 . S
C306 C308 1.348 . S
C306 C309 1.356 . S
C306 O362 1.325 . S
N307 C310 1.314 . S
N307 C311 1.279 . S
C308 C306 1.348 . S
C308 C310 1.353 . S
C308 H366 0.929 . S
C309 C306 1.356 . S
C309 C311 1.358 . S
C309 H367 0.930 . S
C310 N307 1.314 . S
C310 C308 1.353 . S
C310 H368 0.930 . S
C311 N307 1.279 . S
C311 C309 1.358 . S
C311 H369 0.930 . S
C312 C315 1.348 . S
C312 C316 1.356 . S
C312 O363 1.325 . S
C313 N314 1.279 . S
C313 C316 1.358 . S
C313 H370 0.930 . S
N314 C313 1.279 . S
N314 C317 1.314 . S
C315 C312 1.348 . S
C315 C317 1.353 . S
C315 H371 0.929 . S
C316 C312 1.356 . S
C316 C313 1.358 . S
C316 H372 0.930 . S
C317 N314 1.314 . S
C317 C315 1.353 . S
C317 H373 0.930 . S
C318 N319 1.314 . S
C318 C323 1.353 . S
C318 H324 0.930 . S
N319 Li302 1.990 . S
N319 C318 1.314 . S
N319 C321 1.279 . S
C320 C321 1.358 . S
C320 C322 1.356 . S
C320 H374 0.930 . S
C321 N319 1.279 . S
C321 C320 1.358 . S
C321 H325 0.930 . S
C322 C320 1.356 . S
C322 C323 1.348 . S
C323 C318 1.353 . S
C323 C322 1.348 . S
C323 H375 0.929 . S
H324 C318 0.930 . S
H325 C321 0.930 . S
C326 N327 1.314 . S
C326 C328 1.353 . S
C326 H332 0.930 . S
N327 Li303 1.990 . S
N327 C326 1.314 . S
N327 C330 1.279 . S
C328 C326 1.353 . S
C328 C331 1.348 . S
C328 H376 0.929 . S
C329 C330 1.358 . S
C329 C331 1.356 . S
C329 H377 0.930 . S
C330 N327 1.279 . S
C330 C329 1.358 . S
C330 H333 0.930 . S
C331 C328 1.348 . S
C331 C329 1.356 . S
H332 C326 0.930 . S
H333 C330 0.930 . S
C334 C336 1.348 . S
C334 C337 1.356 . S
C334 O364 1.325 . S
N335 C338 1.314 . S
N335 C339 1.279 . S
C336 C334 1.348 . S
C336 C338 1.353 . S
C336 H378 0.929 . S
C337 C334 1.356 . S
C337 C339 1.358 . S
C337 H379 0.930 . S
C338 N335 1.314 . S
C338 C336 1.353 . S
C338 H380 0.930 . S
C339 N335 1.279 . S
C339 C337 1.358 . S
C339 H381 0.930 . S
C340 C341 1.348 . S
C340 C342 1.356 . S
C340 O365 1.325 . S
C341 C340 1.348 . S
C341 C343 1.353 . S
C341 H382 0.929 . S
C342 C340 1.356 . S
C342 C344 1.358 . S
C342 H383 0.930 . S
C343 C341 1.353 . S
C343 N345 1.314 . S
C343 H384 0.930 . S
C344 C342 1.358 . S
C344 N345 1.279 . S
C344 H385 0.930 . S
N345 C343 1.314 . S
N345 C344 1.279 . S
C346 C348 1.353 . S
C346 N349 1.314 . S
C346 H352 0.930 . S
C347 N349 1.279 . S
C347 C350 1.358 . S
C347 H353 0.930 . S
C348 C346 1.353 . S
C348 C351 1.348 . S
C348 H386 0.929 . S
N349 Li304 1.990 . S
N349 C346 1.314 . S
N349 C347 1.279 . S
C350 C347 1.358 . S
C350 C351 1.356 . S
C350 H387 0.930 . S
C351 C348 1.348 . S
C351 C350 1.356 . S
H352 C346 0.930 . S
H353 C347 0.930 . S
C354 N355 1.314 . S
C354 C356 1.353 . S
C354 H360 0.930 . S
N355 Li305 1.990 . S
N355 C354 1.314 . S
N355 C358 1.279 . S
C356 C354 1.353 . S
C356 C359 1.348 . S
C356 H388 0.929 . S
C357 C358 1.358 . S
C357 C359 1.356 . S
C357 H389 0.930 . S
C358 N355 1.279 . S
C358 C357 1.358 . S
C358 H361 0.930 . S
C359 C356 1.348 . S
C359 C357 1.356 . S
H360 C354 0.930 . S
H361 C358 0.930 . S
O362 Li302 1.956 . S
O362 Li303 1.970 . S
O362 Li304 1.961 . S
O362 C306 1.325 . S
O363 Li302 1.970 . S
O363 Li303 1.956 . S
O363 Li305 1.961 . S
O363 C312 1.325 . S
O364 Li302 1.961 . S
O364 Li304 1.956 . S
O364 Li305 1.970 . S
O364 C334 1.325 . S
O365 Li303 1.961 . S
O365 Li304 1.970 . S
O365 Li305 1.956 . S
O365 C340 1.325 . S
H366 C308 0.929 . S
H367 C309 0.930 . S
H368 C310 0.930 . S
H369 C311 0.930 . S
H370 C313 0.930 . S
H371 C315 0.929 . S
H372 C316 0.930 . S
H373 C317 0.930 . S
H374 C320 0.930 . S
H375 C323 0.929 . S
H376 C328 0.929 . S
H377 C329 0.930 . S
H378 C336 0.929 . S
H379 C337 0.930 . S
H380 C338 0.930 . S
H381 C339 0.930 . S
H382 C341 0.929 . S
H383 C342 0.930 . S
H384 C343 0.930 . S
H385 C344 0.930 . S
H386 C348 0.929 . S
H387 C350 0.930 . S
H388 C356 0.929 . S
H389 C357 0.930 . S
Li390 N407 1.990 . S
Li390 O450 1.956 . S
Li390 O451 1.970 . S
Li390 O452 1.961 . S
Li391 N415 1.990 . S
Li391 O450 1.970 . S
Li391 O451 1.956 . S
Li391 O453 1.961 . S
Li392 N437 1.990 . S
Li392 O450 1.961 . S
Li392 O452 1.956 . S
Li392 O453 1.970 . S
Li393 N443 1.990 . S
Li393 O451 1.961 . S
Li393 O452 1.970 . S
Li393 O453 1.956 . S
C394 C396 1.348 . S
C394 C397 1.356 . S
C394 O450 1.325 . S
N395 C398 1.314 . S
N395 C399 1.279 . S
C396 C394 1.348 . S
C396 C398 1.353 . S
C396 H454 0.929 . S
C397 C394 1.356 . S
C397 C399 1.358 . S
C397 H455 0.930 . S
C398 N395 1.314 . S
C398 C396 1.353 . S
C398 H456 0.930 . S
C399 N395 1.279 . S
C399 C397 1.358 . S
C399 H457 0.930 . S
C400 C403 1.348 . S
C400 C404 1.356 . S
C400 O451 1.325 . S
C401 N402 1.279 . S
C401 C404 1.358 . S
C401 H458 0.930 . S
N402 C401 1.279 . S
N402 C405 1.314 . S
C403 C400 1.348 . S
C403 C405 1.353 . S
C403 H459 0.929 . S
C404 C400 1.356 . S
C404 C401 1.358 . S
C404 H460 0.930 . S
C405 N402 1.314 . S
C405 C403 1.353 . S
C405 H461 0.930 . S
C406 N407 1.314 . S
C406 C411 1.353 . S
C406 H412 0.930 . S
N407 Li390 1.990 . S
N407 C406 1.314 . S
N407 C409 1.279 . S
C408 C409 1.358 . S
C408 C410 1.356 . S
C408 H462 0.930 . S
C409 N407 1.279 . S
C409 C408 1.358 . S
C409 H413 0.930 . S
C410 C408 1.356 . S
C410 C411 1.348 . S
C411 C406 1.353 . S
C411 C410 1.348 . S
C411 H463 0.929 . S
H412 C406 0.930 . S
H413 C409 0.930 . S
C414 N415 1.314 . S
C414 C416 1.353 . S
C414 H420 0.930 . S
N415 Li391 1.990 . S
N415 C414 1.314 . S
N415 C418 1.279 . S
C416 C414 1.353 . S
C416 C419 1.348 . S
C416 H464 0.929 . S
C417 C418 1.358 . S
C417 C419 1.356 . S
C417 H465 0.930 . S
C418 N415 1.279 . S
C418 C417 1.358 . S
C418 H421 0.930 . S
C419 C416 1.348 . S
C419 C417 1.356 . S
H420 C414 0.930 . S
H421 C418 0.930 . S
C422 C424 1.348 . S
C422 C425 1.356 . S
C422 O452 1.325 . S
N423 C426 1.314 . S
N423 C427 1.279 . S
C424 C422 1.348 . S
C424 C426 1.353 . S
C424 H466 0.929 . S
C425 C422 1.356 . S
C425 C427 1.358 . S
C425 H467 0.930 . S
C426 N423 1.314 . S
C426 C424 1.353 . S
C426 H468 0.930 . S
C427 N423 1.279 . S
C427 C425 1.358 . S
C427 H469 0.930 . S
C428 C429 1.348 . S
C428 C430 1.356 . S
C428 O453 1.325 . S
C429 C428 1.348 . S
C429 C431 1.353 . S
C429 H470 0.929 . S
C430 C428 1.356 . S
C430 C432 1.358 . S
C430 H471 0.930 . S
C431 C429 1.353 . S
C431 N433 1.314 . S
C431 H472 0.930 . S
C432 C430 1.358 . S
C432 N433 1.279 . S
C432 H473 0.930 . S
N433 C431 1.314 . S
N433 C432 1.279 . S
C434 C436 1.353 . S
C434 N437 1.314 . S
C434 H440 0.930 . S
C435 N437 1.279 . S
C435 C438 1.358 . S
C435 H441 0.930 . S
C436 C434 1.353 . S
C436 C439 1.348 . S
C436 H474 0.929 . S
N437 Li392 1.990 . S
N437 C434 1.314 . S
N437 C435 1.279 . S
C438 C435 1.358 . S
C438 C439 1.356 . S
C438 H475 0.930 . S
C439 C436 1.348 . S
C439 C438 1.356 . S
H440 C434 0.930 . S
H441 C435 0.930 . S
C442 N443 1.314 . S
C442 C444 1.353 . S
C442 H448 0.930 . S
N443 Li393 1.990 . S
N443 C442 1.314 . S
N443 C446 1.279 . S
C444 C442 1.353 . S
C444 C447 1.348 . S
C444 H476 0.929 . S
C445 C446 1.358 . S
C445 C447 1.356 . S
C445 H477 0.930 . S
C446 N443 1.279 . S
C446 C445 1.358 . S
C446 H449 0.930 . S
C447 C444 1.348 . S
C447 C445 1.356 . S
H448 C442 0.930 . S
H449 C446 0.930 . S
O450 Li390 1.956 . S
O450 Li391 1.970 . S
O450 Li392 1.961 . S
O450 C394 1.325 . S
O451 Li390 1.970 . S
O451 Li391 1.956 . S
O451 Li393 1.961 . S
O451 C400 1.325 . S
O452 Li390 1.961 . S
O452 Li392 1.956 . S
O452 Li393 1.970 . S
O452 C422 1.325 . S
O453 Li391 1.961 . S
O453 Li392 1.970 . S
O453 Li393 1.956 . S
O453 C428 1.325 . S
H454 C396 0.929 . S
H455 C397 0.930 . S
H456 C398 0.930 . S
H457 C399 0.930 . S
H458 C401 0.930 . S
H459 C403 0.929 . S
H460 C404 0.930 . S
H461 C405 0.930 . S
H462 C408 0.930 . S
H463 C411 0.929 . S
H464 C416 0.929 . S
H465 C417 0.930 . S
H466 C424 0.929 . S
H467 C425 0.930 . S
H468 C426 0.930 . S
H469 C427 0.930 . S
H470 C429 0.929 . S
H471 C430 0.930 . S
H472 C431 0.930 . S
H473 C432 0.930 . S
H474 C436 0.929 . S
H475 C438 0.930 . S
H476 C444 0.929 . S
H477 C445 0.930 . S
Li478 N495 1.990 . S
Li478 O538 1.956 . S
Li478 O539 1.970 . S
Li478 O540 1.961 . S
Li479 N503 1.990 . S
Li479 O538 1.970 . S
Li479 O539 1.956 . S
Li479 O541 1.961 . S
Li480 N525 1.990 . S
Li480 O538 1.961 . S
Li480 O540 1.956 . S
Li480 O541 1.970 . S
Li481 N531 1.990 . S
Li481 O539 1.961 . S
Li481 O540 1.970 . S
Li481 O541 1.956 . S
C482 C484 1.348 . S
C482 C485 1.356 . S
C482 O538 1.325 . S
N483 C486 1.314 . S
N483 C487 1.279 . S
C484 C482 1.348 . S
C484 C486 1.353 . S
C484 H542 0.929 . S
C485 C482 1.356 . S
C485 C487 1.358 . S
C485 H543 0.930 . S
C486 N483 1.314 . S
C486 C484 1.353 . S
C486 H544 0.930 . S
C487 N483 1.279 . S
C487 C485 1.358 . S
C487 H545 0.930 . S
C488 C491 1.348 . S
C488 C492 1.356 . S
C488 O539 1.325 . S
C489 N490 1.279 . S
C489 C492 1.358 . S
C489 H546 0.930 . S
N490 C489 1.279 . S
N490 C493 1.314 . S
C491 C488 1.348 . S
C491 C493 1.353 . S
C491 H547 0.929 . S
C492 C488 1.356 . S
C492 C489 1.358 . S
C492 H548 0.930 . S
C493 N490 1.314 . S
C493 C491 1.353 . S
C493 H549 0.930 . S
C494 N495 1.314 . S
C494 C499 1.353 . S
C494 H500 0.930 . S
N495 Li478 1.990 . S
N495 C494 1.314 . S
N495 C497 1.279 . S
C496 C497 1.358 . S
C496 C498 1.356 . S
C496 H550 0.930 . S
C497 N495 1.279 . S
C497 C496 1.358 . S
C497 H501 0.930 . S
C498 C496 1.356 . S
C498 C499 1.348 . S
C499 C494 1.353 . S
C499 C498 1.348 . S
C499 H551 0.929 . S
H500 C494 0.930 . S
H501 C497 0.930 . S
C502 N503 1.314 . S
C502 C504 1.353 . S
C502 H508 0.930 . S
N503 Li479 1.990 . S
N503 C502 1.314 . S
N503 C506 1.279 . S
C504 C502 1.353 . S
C504 C507 1.348 . S
C504 H552 0.929 . S
C505 C506 1.358 . S
C505 C507 1.356 . S
C505 H553 0.930 . S
C506 N503 1.279 . S
C506 C505 1.358 . S
C506 H509 0.930 . S
C507 C504 1.348 . S
C507 C505 1.356 . S
H508 C502 0.930 . S
H509 C506 0.930 . S
C510 C512 1.348 . S
C510 C513 1.356 . S
C510 O540 1.325 . S
N511 C514 1.314 . S
N511 C515 1.279 . S
C512 C510 1.348 . S
C512 C514 1.353 . S
C512 H554 0.929 . S
C513 C510 1.356 . S
C513 C515 1.358 . S
C513 H555 0.930 . S
C514 N511 1.314 . S
C514 C512 1.353 . S
C514 H556 0.930 . S
C515 N511 1.279 . S
C515 C513 1.358 . S
C515 H557 0.930 . S
C516 C517 1.348 . S
C516 C518 1.356 . S
C516 O541 1.325 . S
C517 C516 1.348 . S
C517 C519 1.353 . S
C517 H558 0.929 . S
C518 C516 1.356 . S
C518 C520 1.358 . S
C518 H559 0.930 . S
C519 C517 1.353 . S
C519 N521 1.314 . S
C519 H560 0.930 . S
C520 C518 1.358 . S
C520 N521 1.279 . S
C520 H561 0.930 . S
N521 C519 1.314 . S
N521 C520 1.279 . S
C522 C524 1.353 . S
C522 N525 1.314 . S
C522 H528 0.930 . S
C523 N525 1.279 . S
C523 C526 1.358 . S
C523 H529 0.930 . S
C524 C522 1.353 . S
C524 C527 1.348 . S
C524 H562 0.929 . S
N525 Li480 1.990 . S
N525 C522 1.314 . S
N525 C523 1.279 . S
C526 C523 1.358 . S
C526 C527 1.356 . S
C526 H563 0.930 1_554 S
C527 C524 1.348 . S
C527 C526 1.356 . S
H528 C522 0.930 . S
H529 C523 0.930 . S
C530 N531 1.314 . S
C530 C532 1.353 . S
C530 H536 0.930 . S
N531 Li481 1.990 . S
N531 C530 1.314 . S
N531 C534 1.279 . S
C532 C530 1.353 . S
C532 C535 1.348 . S
C532 H564 0.929 . S
C533 C534 1.358 . S
C533 C535 1.356 . S
C533 H565 0.930 . S
C534 N531 1.279 . S
C534 C533 1.358 . S
C534 H537 0.930 . S
C535 C532 1.348 . S
C535 C533 1.356 . S
H536 C530 0.930 . S
H537 C534 0.930 . S
O538 Li478 1.956 . S
O538 Li479 1.970 . S
O538 Li480 1.961 . S
O538 C482 1.325 . S
O539 Li478 1.970 . S
O539 Li479 1.956 . S
O539 Li481 1.961 . S
O539 C488 1.325 . S
O540 Li478 1.961 . S
O540 Li480 1.956 . S
O540 Li481 1.970 . S
O540 C510 1.325 . S
O541 Li479 1.961 . S
O541 Li480 1.970 . S
O541 Li481 1.956 . S
O541 C516 1.325 . S
H542 C484 0.929 . S
H543 C485 0.930 . S
H544 C486 0.930 . S
H545 C487 0.930 . S
H546 C489 0.930 . S
H547 C491 0.929 . S
H548 C492 0.930 . S
H549 C493 0.930 . S
H550 C496 0.930 . S
H551 C499 0.929 . S
H552 C504 0.929 . S
H553 C505 0.930 . S
H554 C512 0.929 . S
H555 C513 0.930 . S
H556 C514 0.930 . S
H557 C515 0.930 . S
H558 C517 0.929 . S
H559 C518 0.930 . S
H560 C519 0.930 . S
H561 C520 0.930 . S
H562 C524 0.929 . S
H563 C526 0.930 1_556 S
H564 C532 0.929 . S
H565 C533 0.930 . S
Li566 N583 1.990 . S
Li566 O626 1.956 . S
Li566 O627 1.970 . S
Li566 O628 1.961 . S
Li567 N591 1.990 . S
Li567 O626 1.970 . S
Li567 O627 1.956 . S
Li567 O629 1.961 . S
Li568 N613 1.990 . S
Li568 O626 1.961 . S
Li568 O628 1.956 . S
Li568 O629 1.970 . S
Li569 N619 1.990 . S
Li569 O627 1.961 . S
Li569 O628 1.970 . S
Li569 O629 1.956 . S
C570 C572 1.348 . S
C570 C573 1.356 . S
C570 O626 1.325 . S
N571 C574 1.314 . S
N571 C575 1.279 . S
C572 C570 1.348 . S
C572 C574 1.353 . S
C572 H630 0.929 . S
C573 C570 1.356 . S
C573 C575 1.358 . S
C573 H631 0.930 . S
C574 N571 1.314 . S
C574 C572 1.353 . S
C574 H632 0.930 . S
C575 N571 1.279 . S
C575 C573 1.358 . S
C575 H633 0.930 . S
C576 C579 1.348 . S
C576 C580 1.356 . S
C576 O627 1.325 . S
C577 N578 1.279 . S
C577 C580 1.358 . S
C577 H634 0.930 . S
N578 C577 1.279 . S
N578 C581 1.314 . S
C579 C576 1.348 . S
C579 C581 1.353 . S
C579 H635 0.929 . S
C580 C576 1.356 . S
C580 C577 1.358 . S
C580 H636 0.930 . S
C581 N578 1.314 . S
C581 C579 1.353 . S
C581 H637 0.930 . S
C582 N583 1.314 . S
C582 C587 1.353 . S
C582 H588 0.930 . S
N583 Li566 1.990 . S
N583 C582 1.314 . S
N583 C585 1.279 . S
C584 C585 1.358 . S
C584 C586 1.356 . S
C584 H638 0.930 . S
C585 N583 1.279 . S
C585 C584 1.358 . S
C585 H589 0.930 . S
C586 C584 1.356 . S
C586 C587 1.348 . S
C587 C582 1.353 . S
C587 C586 1.348 . S
C587 H639 0.929 . S
H588 C582 0.930 . S
H589 C585 0.930 . S
C590 N591 1.314 . S
C590 C592 1.353 . S
C590 H596 0.930 . S
N591 Li567 1.990 . S
N591 C590 1.314 . S
N591 C594 1.279 . S
C592 C590 1.353 . S
C592 C595 1.348 . S
C592 H640 0.929 . S
C593 C594 1.358 . S
C593 C595 1.356 . S
C593 H641 0.930 . S
C594 N591 1.279 . S
C594 C593 1.358 . S
C594 H597 0.930 . S
C595 C592 1.348 . S
C595 C593 1.356 . S
H596 C590 0.930 . S
H597 C594 0.930 . S
C598 C600 1.348 . S
C598 C601 1.356 . S
C598 O628 1.325 . S
N599 C602 1.314 . S
N599 C603 1.279 . S
C600 C598 1.348 . S
C600 C602 1.353 . S
C600 H642 0.929 . S
C601 C598 1.356 . S
C601 C603 1.358 . S
C601 H643 0.930 . S
C602 N599 1.314 . S
C602 C600 1.353 . S
C602 H644 0.930 . S
C603 N599 1.279 . S
C603 C601 1.358 . S
C603 H645 0.930 . S
C604 C605 1.348 . S
C604 C606 1.356 . S
C604 O629 1.325 . S
C605 C604 1.348 . S
C605 C607 1.353 . S
C605 H646 0.929 . S
C606 C604 1.356 . S
C606 C608 1.358 . S
C606 H647 0.930 . S
C607 C605 1.353 . S
C607 N609 1.314 . S
C607 H648 0.930 . S
C608 C606 1.358 . S
C608 N609 1.279 . S
C608 H649 0.930 . S
N609 C607 1.314 . S
N609 C608 1.279 . S
C610 C612 1.353 . S
C610 N613 1.314 . S
C610 H616 0.930 . S
C611 N613 1.279 . S
C611 C614 1.358 . S
C611 H617 0.930 . S
C612 C610 1.353 . S
C612 C615 1.348 . S
C612 H650 0.929 . S
N613 Li568 1.990 . S
N613 C610 1.314 . S
N613 C611 1.279 . S
C614 C611 1.358 . S
C614 C615 1.356 . S
C614 H651 0.930 . S
C615 C612 1.348 . S
C615 C614 1.356 . S
H616 C610 0.930 . S
H617 C611 0.930 . S
C618 N619 1.314 . S
C618 C620 1.353 . S
C618 H624 0.930 . S
N619 Li569 1.990 . S
N619 C618 1.314 . S
N619 C622 1.279 . S
C620 C618 1.353 . S
C620 C623 1.348 . S
C620 H652 0.929 . S
C621 C622 1.358 . S
C621 C623 1.356 . S
C621 H653 0.930 . S
C622 N619 1.279 . S
C622 C621 1.358 . S
C622 H625 0.930 . S
C623 C620 1.348 . S
C623 C621 1.356 . S
H624 C618 0.930 . S
H625 C622 0.930 . S
O626 Li566 1.956 . S
O626 Li567 1.970 . S
O626 Li568 1.961 . S
O626 C570 1.325 . S
O627 Li566 1.970 . S
O627 Li567 1.956 . S
O627 Li569 1.961 . S
O627 C576 1.325 . S
O628 Li566 1.961 . S
O628 Li568 1.956 . S
O628 Li569 1.970 . S
O628 C598 1.325 . S
O629 Li567 1.961 . S
O629 Li568 1.970 . S
O629 Li569 1.956 . S
O629 C604 1.325 . S
H630 C572 0.929 . S
H631 C573 0.930 . S
H632 C574 0.930 . S
H633 C575 0.930 . S
H634 C577 0.930 . S
H635 C579 0.929 . S
H636 C580 0.930 . S
H637 C581 0.930 . S
H638 C584 0.930 . S
H639 C587 0.929 . S
H640 C592 0.929 . S
H641 C593 0.930 . S
H642 C600 0.929 . S
H643 C601 0.930 . S
H644 C602 0.930 . S
H645 C603 0.930 . S
H646 C605 0.929 . S
H647 C606 0.930 . S
H648 C607 0.930 . S
H649 C608 0.930 . S
H650 C612 0.929 . S
H651 C614 0.930 . S
H652 C620 0.929 . S
H653 C621 0.930 . S
H654 C662 0.929 . S
H655 C664 0.930 . S
H656 C666 0.930 . S
H657 C669 0.929 . S
H658 C672 0.930 . S
H659 C674 0.960 . S
H660 C674 0.960 . S
H661 C674 0.960 . S
C662 H654 0.929 . S
C662 C663 1.377 . S
C662 C664 1.384 . S
C663 C662 1.377 . S
C663 C669 1.390 . S
C664 H655 0.930 . S
C664 C662 1.384 . S
C664 C665 1.372 . S
C665 C664 1.372 . S
C665 C666 1.400 . S
C665 C670 1.490 . S
C666 H656 0.930 . S
C666 C665 1.400 . S
C666 C669 1.386 . S
H667 C683 0.930 . S
H668 C684 0.931 . S
C669 H657 0.929 . S
C669 C663 1.390 . S
C669 C666 1.386 . S
C670 C665 1.490 . S
C670 C672 1.395 . S
C670 C673 1.403 . S
H671 C677 0.930 . S
C672 H658 0.930 . S
C672 C670 1.395 . S
C672 C675 1.403 . S
C673 C670 1.403 . S
C673 C674 1.524 . S
C673 C677 1.400 . S
C674 H659 0.960 . S
C674 H660 0.960 . S
C674 H661 0.960 . S
C674 C673 1.524 . S
C675 C672 1.403 . S
C675 C676 1.392 . S
C675 C679 1.495 . S
C676 C675 1.392 . S
C676 C677 1.385 . S
C676 C678 1.478 . S
C677 H671 0.930 . S
C677 C673 1.400 . S
C677 C676 1.385 . S
C678 C676 1.478 . S
C678 C680 1.381 . S
C678 C684 1.383 . S
C679 C675 1.495 . S
C679 H685 0.959 . S
C679 H686 0.961 . S
C679 H687 0.960 . S
C680 C678 1.381 . S
C680 C681 1.394 . S
C680 H688 0.930 . S
C681 C680 1.394 . S
C681 C682 1.383 . S
C681 H689 0.929 . S
C682 C681 1.383 . S
C682 C683 1.377 . S
C683 H667 0.930 . S
C683 C682 1.377 . S
C683 C684 1.379 . S
C684 H668 0.931 . S
C684 C678 1.383 . S
C684 C683 1.379 . S
H685 C679 0.959 . S
H686 C679 0.961 . S
H687 C679 0.960 . S
H688 C680 0.930 . S
H689 C681 0.929 . S
H690 C698 0.929 . S
H691 C700 0.930 . S
H692 C702 0.930 . S
H693 C705 0.929 . S
H694 C708 0.930 . S
H695 C710 0.960 . S
H696 C710 0.960 . S
H697 C710 0.960 . S
C698 H690 0.929 . S
C698 C699 1.377 . S
C698 C700 1.384 . S
C699 C698 1.377 . S
C699 C705 1.390 . S
C700 H691 0.930 . S
C700 C698 1.384 . S
C700 C701 1.372 . S
C701 C700 1.372 . S
C701 C702 1.400 . S
C701 C706 1.490 . S
C702 H692 0.930 . S
C702 C701 1.400 . S
C702 C705 1.386 . S
H703 C719 0.930 . S
H704 C720 0.931 . S
C705 H693 0.929 . S
C705 C699 1.390 . S
C705 C702 1.386 . S
C706 C701 1.490 . S
C706 C708 1.395 . S
C706 C709 1.403 . S
H707 C713 0.930 . S
C708 H694 0.930 . S
C708 C706 1.395 . S
C708 C711 1.403 . S
C709 C706 1.403 . S
C709 C710 1.524 . S
C709 C713 1.400 . S
C710 H695 0.960 . S
C710 H696 0.960 . S
C710 H697 0.960 . S
C710 C709 1.524 . S
C711 C708 1.403 . S
C711 C712 1.392 . S
C711 C715 1.495 . S
C712 C711 1.392 . S
C712 C713 1.385 . S
C712 C714 1.478 . S
C713 H707 0.930 . S
C713 C709 1.400 . S
C713 C712 1.385 . S
C714 C712 1.478 . S
C714 C716 1.381 . S
C714 C720 1.383 . S
C715 C711 1.495 . S
C715 H721 0.959 . S
C715 H722 0.961 . S
C715 H723 0.960 . S
C716 C714 1.381 . S
C716 C717 1.394 . S
C716 H724 0.930 . S
C717 C716 1.394 . S
C717 C718 1.383 . S
C717 H725 0.929 . S
C718 C717 1.383 . S
C718 C719 1.377 . S
C719 H703 0.930 . S
C719 C718 1.377 . S
C719 C720 1.379 . S
C720 H704 0.931 . S
C720 C714 1.383 . S
C720 C719 1.379 . S
H721 C715 0.959 . S
H722 C715 0.961 . S
H723 C715 0.960 . S
H724 C716 0.930 . S
H725 C717 0.929 . S
H726 C734 0.929 . S
H727 C736 0.930 . S
H728 C738 0.930 . S
H729 C741 0.929 . S
H730 C744 0.930 . S
H731 C746 0.960 . S
H732 C746 0.960 . S
H733 C746 0.960 . S
C734 H726 0.929 . S
C734 C735 1.377 . S
C734 C736 1.384 . S
C735 C734 1.377 . S
C735 C741 1.390 . S
C736 H727 0.930 . S
C736 C734 1.384 . S
C736 C737 1.372 . S
C737 C736 1.372 . S
C737 C738 1.400 . S
C737 C742 1.490 . S
C738 H728 0.930 . S
C738 C737 1.400 . S
C738 C741 1.386 . S
H739 C755 0.930 . S
H740 C756 0.931 . S
C741 H729 0.929 . S
C741 C735 1.390 . S
C741 C738 1.386 . S
C742 C737 1.490 . S
C742 C744 1.395 . S
C742 C745 1.403 . S
H743 C749 0.930 . S
C744 H730 0.930 . S
C744 C742 1.395 . S
C744 C747 1.403 . S
C745 C742 1.403 . S
C745 C746 1.524 . S
C745 C749 1.400 . S
C746 H731 0.960 . S
C746 H732 0.960 . S
C746 H733 0.960 . S
C746 C745 1.524 . S
C747 C744 1.403 . S
C747 C748 1.392 . S
C747 C751 1.495 . S
C748 C747 1.392 . S
C748 C749 1.385 . S
C748 C750 1.478 . S
C749 H743 0.930 . S
C749 C745 1.400 . S
C749 C748 1.385 . S
C750 C748 1.478 . S
C750 C752 1.381 . S
C750 C756 1.383 . S
C751 C747 1.495 . S
C751 H757 0.959 . S
C751 H758 0.961 . S
C751 H759 0.960 . S
C752 C750 1.381 . S
C752 C753 1.394 . S
C752 H760 0.930 . S
C753 C752 1.394 . S
C753 C754 1.383 . S
C753 H761 0.929 . S
C754 C753 1.383 . S
C754 C755 1.377 . S
C755 H739 0.930 . S
C755 C754 1.377 . S
C755 C756 1.379 . S
C756 H740 0.931 . S
C756 C750 1.383 . S
C756 C755 1.379 . S
H757 C751 0.959 . S
H758 C751 0.961 . S
H759 C751 0.960 . S
H760 C752 0.930 . S
H761 C753 0.929 . S
H762 C770 0.929 . S
H763 C772 0.930 . S
H764 C774 0.930 . S
H765 C777 0.929 . S
H766 C780 0.930 . S
H767 C782 0.960 . S
H768 C782 0.960 . S
H769 C782 0.960 . S
C770 H762 0.929 . S
C770 C771 1.377 . S
C770 C772 1.384 . S
C771 C770 1.377 . S
C771 C777 1.390 . S
C772 H763 0.930 . S
C772 C770 1.384 . S
C772 C773 1.372 . S
C773 C772 1.372 . S
C773 C774 1.400 . S
C773 C778 1.490 . S
C774 H764 0.930 . S
C774 C773 1.400 . S
C774 C777 1.386 . S
H775 C791 0.930 . S
H776 C792 0.931 . S
C777 H765 0.929 . S
C777 C771 1.390 . S
C777 C774 1.386 . S
C778 C773 1.490 . S
C778 C780 1.395 . S
C778 C781 1.403 . S
H779 C785 0.930 . S
C780 H766 0.930 . S
C780 C778 1.395 . S
C780 C783 1.403 . S
C781 C778 1.403 . S
C781 C782 1.524 . S
C781 C785 1.400 . S
C782 H767 0.960 . S
C782 H768 0.960 . S
C782 H769 0.960 . S
C782 C781 1.524 . S
C783 C780 1.403 . S
C783 C784 1.392 . S
C783 C787 1.495 . S
C784 C783 1.392 . S
C784 C785 1.385 . S
C784 C786 1.478 . S
C785 H779 0.930 . S
C785 C781 1.400 . S
C785 C784 1.385 . S
C786 C784 1.478 . S
C786 C788 1.381 . S
C786 C792 1.383 . S
C787 C783 1.495 . S
C787 H793 0.959 . S
C787 H794 0.961 . S
C787 H795 0.960 . S
C788 C786 1.381 . S
C788 C789 1.394 . S
C788 H796 0.930 . S
C789 C788 1.394 . S
C789 C790 1.383 . S
C789 H797 0.929 . S
C790 C789 1.383 . S
C790 C791 1.377 . S
C791 H775 0.930 . S
C791 C790 1.377 . S
C791 C792 1.379 . S
C792 H776 0.931 . S
C792 C786 1.383 . S
C792 C791 1.379 . S
H793 C787 0.959 . S
H794 C787 0.961 . S
H795 C787 0.960 . S
H796 C788 0.930 . S
H797 C789 0.929 . S
H798 C806 0.929 1_554 S
H799 C808 0.930 . S
H800 C810 0.930 . S
H801 C813 0.929 . S
H802 C816 0.930 . S
H803 C818 0.960 . S
H804 C818 0.960 . S
H805 C818 0.960 . S
C806 H798 0.929 1_556 S
C806 C807 1.377 . S
C806 C808 1.384 . S
C807 C806 1.377 . S
C807 C813 1.390 . S
C808 H799 0.930 . S
C808 C806 1.384 . S
C808 C809 1.372 . S
C809 C808 1.372 . S
C809 C810 1.400 . S
C809 C814 1.490 . S
C810 H800 0.930 . S
C810 C809 1.400 . S
C810 C813 1.386 . S
H811 C827 0.930 . S
H812 C828 0.931 . S
C813 H801 0.929 . S
C813 C807 1.390 . S
C813 C810 1.386 . S
C814 C809 1.490 . S
C814 C816 1.395 . S
C814 C817 1.403 . S
H815 C821 0.930 . S
C816 H802 0.930 . S
C816 C814 1.395 . S
C816 C819 1.403 . S
C817 C814 1.403 . S
C817 C818 1.524 . S
C817 C821 1.400 . S
C818 H803 0.960 . S
C818 H804 0.960 . S
C818 H805 0.960 . S
C818 C817 1.524 . S
C819 C816 1.403 . S
C819 C820 1.392 . S
C819 C823 1.495 . S
C820 C819 1.392 . S
C820 C821 1.385 . S
C820 C822 1.478 . S
C821 H815 0.930 . S
C821 C817 1.400 . S
C821 C820 1.385 . S
C822 C820 1.478 . S
C822 C824 1.381 . S
C822 C828 1.383 . S
C823 C819 1.495 . S
C823 H829 0.959 . S
C823 H830 0.961 . S
C823 H831 0.960 . S
C824 C822 1.381 . S
C824 C825 1.394 . S
C824 H832 0.930 . S
C825 C824 1.394 . S
C825 C826 1.383 . S
C825 H833 0.929 . S
C826 C825 1.383 . S
C826 C827 1.377 . S
C827 H811 0.930 . S
C827 C826 1.377 . S
C827 C828 1.379 . S
C828 H812 0.931 . S
C828 C822 1.383 . S
C828 C827 1.379 . S
H829 C823 0.959 . S
H830 C823 0.961 . S
H831 C823 0.960 . S
H832 C824 0.930 . S
H833 C825 0.929 . S
H834 C842 0.929 . S
H835 C844 0.930 . S
H836 C846 0.930 . S
H837 C849 0.929 . S
H838 C852 0.930 . S
H839 C854 0.960 . S
H840 C854 0.960 . S
H841 C854 0.960 . S
C842 H834 0.929 . S
C842 C843 1.377 . S
C842 C844 1.384 . S
C843 C842 1.377 . S
C843 C849 1.390 . S
C844 H835 0.930 . S
C844 C842 1.384 . S
C844 C845 1.372 . S
C845 C844 1.372 . S
C845 C846 1.400 . S
C845 C850 1.490 . S
C846 H836 0.930 . S
C846 C845 1.400 . S
C846 C849 1.386 . S
H847 C863 0.930 . S
H848 C864 0.931 . S
C849 H837 0.929 . S
C849 C843 1.390 . S
C849 C846 1.386 . S
C850 C845 1.490 . S
C850 C852 1.395 . S
C850 C853 1.403 . S
H851 C857 0.930 . S
C852 H838 0.930 . S
C852 C850 1.395 . S
C852 C855 1.403 . S
C853 C850 1.403 . S
C853 C854 1.524 . S
C853 C857 1.400 . S
C854 H839 0.960 . S
C854 H840 0.960 . S
C854 H841 0.960 . S
C854 C853 1.524 . S
C855 C852 1.403 . S
C855 C856 1.392 . S
C855 C859 1.495 . S
C856 C855 1.392 . S
C856 C857 1.385 . S
C856 C858 1.478 . S
C857 H851 0.930 . S
C857 C853 1.400 . S
C857 C856 1.385 . S
C858 C856 1.478 . S
C858 C860 1.381 . S
C858 C864 1.383 . S
C859 C855 1.495 . S
C859 H865 0.959 . S
C859 H866 0.961 . S
C859 H867 0.960 . S
C860 C858 1.381 . S
C860 C861 1.394 . S
C860 H868 0.930 . S
C861 C860 1.394 . S
C861 C862 1.383 . S
C861 H869 0.929 . S
C862 C861 1.383 . S
C862 C863 1.377 . S
C863 H847 0.930 . S
C863 C862 1.377 . S
C863 C864 1.379 . S
C864 H848 0.931 . S
C864 C858 1.383 . S
C864 C863 1.379 . S
H865 C859 0.959 . S
H866 C859 0.961 . S
H867 C859 0.960 . S
H868 C860 0.930 . S
H869 C861 0.929 . S
H870 C878 0.929 . S
H871 C880 0.930 . S
H872 C882 0.930 . S
H873 C885 0.929 . S
H874 C888 0.930 . S
H875 C890 0.960 . S
H876 C890 0.960 . S
H877 C890 0.960 . S
C878 H870 0.929 . S
C878 C879 1.377 . S
C878 C880 1.384 . S
C879 C878 1.377 . S
C879 C885 1.390 . S
C880 H871 0.930 . S
C880 C878 1.384 . S
C880 C881 1.372 . S
C881 C880 1.372 . S
C881 C882 1.400 . S
C881 C886 1.490 . S
C882 H872 0.930 . S
C882 C881 1.400 . S
C882 C885 1.386 . S
H883 C899 0.930 . S
H884 C900 0.931 . S
C885 H873 0.929 . S
C885 C879 1.390 . S
C885 C882 1.386 . S
C886 C881 1.490 . S
C886 C888 1.395 . S
C886 C889 1.403 . S
H887 C893 0.930 . S
C888 H874 0.930 . S
C888 C886 1.395 . S
C888 C891 1.403 . S
C889 C886 1.403 . S
C889 C890 1.524 . S
C889 C893 1.400 . S
C890 H875 0.960 . S
C890 H876 0.960 . S
C890 H877 0.960 . S
C890 C889 1.524 . S
C891 C888 1.403 . S
C891 C892 1.392 . S
C891 C895 1.495 . S
C892 C891 1.392 . S
C892 C893 1.385 . S
C892 C894 1.478 . S
C893 H887 0.930 . S
C893 C889 1.400 . S
C893 C892 1.385 . S
C894 C892 1.478 . S
C894 C896 1.381 . S
C894 C900 1.383 . S
C895 C891 1.495 . S
C895 H901 0.959 . S
C895 H902 0.961 . S
C895 H903 0.960 . S
C896 C894 1.381 . S
C896 C897 1.394 . S
C896 H904 0.930 . S
C897 C896 1.394 . S
C897 C898 1.383 . S
C897 H905 0.929 . S
C898 C897 1.383 . S
C898 C899 1.377 . S
C899 H883 0.930 . S
C899 C898 1.377 . S
C899 C900 1.379 . S
C900 H884 0.931 . S
C900 C894 1.383 . S
C900 C899 1.379 . S
H901 C895 0.959 . S
H902 C895 0.961 . S
H903 C895 0.960 . S
H904 C896 0.930 . S
H905 C897 0.929 . S
H906 C914 0.929 . S
H907 C916 0.930 . S
H908 C918 0.930 . S
H909 C921 0.929 . S
H910 C924 0.930 . S
H911 C926 0.960 . S
H912 C926 0.960 . S
H913 C926 0.960 . S
C914 H906 0.929 . S
C914 C915 1.377 . S
C914 C916 1.384 . S
C915 C914 1.377 . S
C915 C921 1.390 . S
C916 H907 0.930 . S
C916 C914 1.384 . S
C916 C917 1.372 . S
C917 C916 1.372 . S
C917 C918 1.400 . S
C917 C922 1.490 . S
C918 H908 0.930 . S
C918 C917 1.400 . S
C918 C921 1.386 . S
H919 C935 0.930 . S
H920 C936 0.931 . S
C921 H909 0.929 . S
C921 C915 1.390 . S
C921 C918 1.386 . S
C922 C917 1.490 . S
C922 C924 1.395 . S
C922 C925 1.403 . S
H923 C929 0.930 . S
C924 H910 0.930 . S
C924 C922 1.395 . S
C924 C927 1.403 . S
C925 C922 1.403 . S
C925 C926 1.524 . S
C925 C929 1.400 . S
C926 H911 0.960 . S
C926 H912 0.960 . S
C926 H913 0.960 . S
C926 C925 1.524 . S
C927 C924 1.403 . S
C927 C928 1.392 . S
C927 C931 1.495 . S
C928 C927 1.392 . S
C928 C929 1.385 . S
C928 C930 1.478 . S
C929 H923 0.930 . S
C929 C925 1.400 . S
C929 C928 1.385 . S
C930 C928 1.478 . S
C930 C932 1.381 . S
C930 C936 1.383 . S
C931 C927 1.495 . S
C931 H937 0.959 . S
C931 H938 0.961 . S
C931 H939 0.960 . S
C932 C930 1.381 . S
C932 C933 1.394 . S
C932 H940 0.930 . S
C933 C932 1.394 . S
C933 C934 1.383 . S
C933 H941 0.929 . S
C934 C933 1.383 . S
C934 C935 1.377 . S
C935 H919 0.930 . S
C935 C934 1.377 . S
C935 C936 1.379 . S
C936 H920 0.931 . S
C936 C930 1.383 . S
C936 C935 1.379 . S
H937 C931 0.959 . S
H938 C931 0.961 . S
H939 C931 0.960 . S
H940 C932 0.930 . S
H941 C933 0.929 . S
H942 C950 0.929 . S
H943 C952 0.930 . S
H944 C954 0.930 . S
H945 C957 0.929 . S
H946 C960 0.930 . S
H947 C962 0.960 . S
H948 C962 0.960 . S
H949 C962 0.960 . S
C950 H942 0.929 . S
C950 C951 1.377 . S
C950 C952 1.384 . S
C951 C950 1.377 . S
C951 C957 1.390 . S
C952 H943 0.930 . S
C952 C950 1.384 . S
C952 C953 1.372 . S
C953 C952 1.372 . S
C953 C954 1.400 . S
C953 C958 1.490 . S
C954 H944 0.930 . S
C954 C953 1.400 . S
C954 C957 1.386 . S
H955 C971 0.930 . S
H956 C972 0.931 . S
C957 H945 0.929 . S
C957 C951 1.390 . S
C957 C954 1.386 . S
C958 C953 1.490 . S
C958 C960 1.395 . S
C958 C961 1.403 . S
H959 C965 0.930 . S
C960 H946 0.930 . S
C960 C958 1.395 . S
C960 C963 1.403 . S
C961 C958 1.403 . S
C961 C962 1.524 . S
C961 C965 1.400 . S
C962 H947 0.960 . S
C962 H948 0.960 . S
C962 H949 0.960 . S
C962 C961 1.524 . S
C963 C960 1.403 . S
C963 C964 1.392 . S
C963 C967 1.495 . S
C964 C963 1.392 . S
C964 C965 1.385 . S
C964 C966 1.478 . S
C965 H959 0.930 . S
C965 C961 1.400 . S
C965 C964 1.385 . S
C966 C964 1.478 . S
C966 C968 1.381 . S
C966 C972 1.383 . S
C967 C963 1.495 . S
C967 H973 0.959 . S
C967 H974 0.961 . S
C967 H975 0.960 . S
C968 C966 1.381 . S
C968 C969 1.394 . S
C968 H976 0.930 . S
C969 C968 1.394 . S
C969 C970 1.383 . S
C969 H977 0.929 . S
C970 C969 1.383 . S
C970 C971 1.377 . S
C971 H955 0.930 . S
C971 C970 1.377 . S
C971 C972 1.379 . S
C972 H956 0.931 . S
C972 C966 1.383 . S
C972 C971 1.379 . S
H973 C967 0.959 . S
H974 C967 0.961 . S
H975 C967 0.960 . S
H976 C968 0.930 . S
H977 C969 0.929 . S
H978 C986 0.929 . S
H979 C988 0.930 . S
H980 C990 0.930 . S
H981 C993 0.929 . S
H982 C996 0.930 . S
H983 C998 0.960 . S
H984 C998 0.960 . S
H985 C998 0.960 . S
C986 H978 0.929 . S
C986 C987 1.377 . S
C986 C988 1.384 . S
C987 C986 1.377 . S
C987 C993 1.390 . S
C988 H979 0.930 . S
C988 C986 1.384 . S
C988 C989 1.372 . S
C989 C988 1.372 . S
C989 C990 1.400 . S
C989 C994 1.490 . S
C990 H980 0.930 . S
C990 C989 1.400 . S
C990 C993 1.386 . S
H991 C1007 0.930 . S
H992 C1008 0.931 . S
C993 H981 0.929 . S
C993 C987 1.390 . S
C993 C990 1.386 . S
C994 C989 1.490 . S
C994 C996 1.395 . S
C994 C997 1.403 . S
H995 C1001 0.930 . S
C996 H982 0.930 . S
C996 C994 1.395 . S
C996 C999 1.403 . S
C997 C994 1.403 . S
C997 C998 1.524 . S
C997 C1001 1.400 . S
C998 H983 0.960 . S
C998 H984 0.960 . S
C998 H985 0.960 . S
C998 C997 1.524 . S
C999 C996 1.403 . S
C999 C1000 1.392 . S
C999 C1003 1.495 . S
C1000 C999 1.392 . S
C1000 C1001 1.385 . S
C1000 C1002 1.478 . S
C1001 H995 0.930 . S
C1001 C997 1.400 . S
C1001 C1000 1.385 . S
C1002 C1000 1.478 . S
C1002 C1004 1.381 . S
C1002 C1008 1.383 . S
C1003 C999 1.495 . S
C1003 H1009 0.959 1_554 S
C1003 H1010 0.961 . S
C1003 H1011 0.960 . S
C1004 C1002 1.381 . S
C1004 C1005 1.394 . S
C1004 H1012 0.930 . S
C1005 C1004 1.394 . S
C1005 C1006 1.383 . S
C1005 H1013 0.929 . S
C1006 C1005 1.383 . S
C1006 C1007 1.377 . S
C1007 H991 0.930 . S
C1007 C1006 1.377 . S
C1007 C1008 1.379 . S
C1008 H992 0.931 . S
C1008 C1002 1.383 . S
C1008 C1007 1.379 . S
H1009 C1003 0.959 1_556 S
H1010 C1003 0.961 . S
H1011 C1003 0.960 . S
H1012 C1004 0.930 . S
H1013 C1005 0.929 . S
H1014 C1022 0.929 . S
H1015 C1024 0.930 . S
H1016 C1026 0.930 . S
H1017 C1029 0.929 . S
H1018 C1032 0.930 . S
H1019 C1034 0.960 . S
H1020 C1034 0.960 . S
H1021 C1034 0.960 . S
C1022 H1014 0.929 . S
C1022 C1023 1.377 . S
C1022 C1024 1.384 . S
C1023 C1022 1.377 . S
C1023 C1029 1.390 . S
C1024 H1015 0.930 . S
C1024 C1022 1.384 . S
C1024 C1025 1.372 . S
C1025 C1024 1.372 . S
C1025 C1026 1.400 . S
C1025 C1030 1.490 . S
C1026 H1016 0.930 . S
C1026 C1025 1.400 . S
C1026 C1029 1.386 . S
H1027 C1043 0.930 . S
H1028 C1044 0.931 . S
C1029 H1017 0.929 . S
C1029 C1023 1.390 . S
C1029 C1026 1.386 . S
C1030 C1025 1.490 . S
C1030 C1032 1.395 . S
C1030 C1033 1.403 . S
H1031 C1037 0.930 . S
C1032 H1018 0.930 . S
C1032 C1030 1.395 . S
C1032 C1035 1.403 . S
C1033 C1030 1.403 . S
C1033 C1034 1.524 . S
C1033 C1037 1.400 . S
C1034 H1019 0.960 . S
C1034 H1020 0.960 . S
C1034 H1021 0.960 . S
C1034 C1033 1.524 . S
C1035 C1032 1.403 . S
C1035 C1036 1.392 . S
C1035 C1039 1.495 . S
C1036 C1035 1.392 . S
C1036 C1037 1.385 . S
C1036 C1038 1.478 . S
C1037 H1031 0.930 . S
C1037 C1033 1.400 . S
C1037 C1036 1.385 . S
C1038 C1036 1.478 . S
C1038 C1040 1.381 . S
C1038 C1044 1.383 . S
C1039 C1035 1.495 . S
C1039 H1045 0.959 . S
C1039 H1046 0.961 . S
C1039 H1047 0.960 . S
C1040 C1038 1.381 . S
C1040 C1041 1.394 . S
C1040 H1048 0.930 . S
C1041 C1040 1.394 . S
C1041 C1042 1.383 . S
C1041 H1049 0.929 . S
C1042 C1041 1.383 . S
C1042 C1043 1.377 . S
C1043 H1027 0.930 . S
C1043 C1042 1.377 . S
C1043 C1044 1.379 . S
C1044 H1028 0.931 . S
C1044 C1038 1.383 . S
C1044 C1043 1.379 . S
H1045 C1039 0.959 . S
H1046 C1039 0.961 . S
H1047 C1039 0.960 . S
H1048 C1040 0.930 . S
H1049 C1041 0.929 . S
H1050 C1058 0.929 . S
H1051 C1060 0.930 . S
H1052 C1062 0.930 . S
H1053 C1065 0.929 . S
H1054 C1068 0.930 . S
H1055 C1070 0.960 . S
H1056 C1070 0.960 . S
H1057 C1070 0.960 . S
C1058 H1050 0.929 . S
C1058 C1059 1.377 . S
C1058 C1060 1.384 . S
C1059 C1058 1.377 . S
C1059 C1065 1.390 . S
C1060 H1051 0.930 . S
C1060 C1058 1.384 . S
C1060 C1061 1.372 . S
C1061 C1060 1.372 . S
C1061 C1062 1.400 . S
C1061 C1066 1.490 . S
C1062 H1052 0.930 . S
C1062 C1061 1.400 . S
C1062 C1065 1.386 . S
H1063 C1079 0.930 . S
H1064 C1080 0.931 . S
C1065 H1053 0.929 . S
C1065 C1059 1.390 . S
C1065 C1062 1.386 . S
C1066 C1061 1.490 . S
C1066 C1068 1.395 . S
C1066 C1069 1.403 . S
H1067 C1073 0.930 . S
C1068 H1054 0.930 . S
C1068 C1066 1.395 . S
C1068 C1071 1.403 . S
C1069 C1066 1.403 . S
C1069 C1070 1.524 . S
C1069 C1073 1.400 . S
C1070 H1055 0.960 . S
C1070 H1056 0.960 . S
C1070 H1057 0.960 . S
C1070 C1069 1.524 . S
C1071 C1068 1.403 . S
C1071 C1072 1.392 . S
C1071 C1075 1.495 . S
C1072 C1071 1.392 . S
C1072 C1073 1.385 . S
C1072 C1074 1.478 . S
C1073 H1067 0.930 . S
C1073 C1069 1.400 . S
C1073 C1072 1.385 . S
C1074 C1072 1.478 . S
C1074 C1076 1.381 . S
C1074 C1080 1.383 . S
C1075 C1071 1.495 . S
C1075 H1081 0.959 . S
C1075 H1082 0.961 . S
C1075 H1083 0.960 . S
C1076 C1074 1.381 . S
C1076 C1077 1.394 . S
C1076 H1084 0.930 . S
C1077 C1076 1.394 . S
C1077 C1078 1.383 . S
C1077 H1085 0.929 . S
C1078 C1077 1.383 . S
C1078 C1079 1.377 . S
C1079 H1063 0.930 . S
C1079 C1078 1.377 . S
C1079 C1080 1.379 . S
C1080 H1064 0.931 . S
C1080 C1074 1.383 . S
C1080 C1079 1.379 . S
H1081 C1075 0.959 . S
H1082 C1075 0.961 . S
H1083 C1075 0.960 . S
H1084 C1076 0.930 . S
H1085 C1077 0.929 . S
H1086 C1094 0.929 . S
H1087 C1096 0.930 . S
H1088 C1098 0.930 . S
H1089 C1101 0.929 . S
H1090 C1104 0.930 . S
H1091 C1106 0.960 . S
H1092 C1106 0.960 . S
H1093 C1106 0.960 . S
C1094 H1086 0.929 . S
C1094 C1095 1.377 . S
C1094 C1096 1.384 . S
C1095 C1094 1.377 . S
C1095 C1101 1.390 . S
C1096 H1087 0.930 . S
C1096 C1094 1.384 . S
C1096 C1097 1.372 . S
C1097 C1096 1.372 . S
C1097 C1098 1.400 . S
C1097 C1102 1.490 . S
C1098 H1088 0.930 . S
C1098 C1097 1.400 . S
C1098 C1101 1.386 . S
H1099 C1115 0.930 . S
H1100 C1116 0.931 . S
C1101 H1089 0.929 . S
C1101 C1095 1.390 . S
C1101 C1098 1.386 . S
C1102 C1097 1.490 . S
C1102 C1104 1.395 . S
C1102 C1105 1.403 . S
H1103 C1109 0.930 . S
C1104 H1090 0.930 . S
C1104 C1102 1.395 . S
C1104 C1107 1.403 . S
C1105 C1102 1.403 . S
C1105 C1106 1.524 . S
C1105 C1109 1.400 . S
C1106 H1091 0.960 . S
C1106 H1092 0.960 . S
C1106 H1093 0.960 . S
C1106 C1105 1.524 . S
C1107 C1104 1.403 . S
C1107 C1108 1.392 . S
C1107 C1111 1.495 . S
C1108 C1107 1.392 . S
C1108 C1109 1.385 . S
C1108 C1110 1.478 . S
C1109 H1103 0.930 . S
C1109 C1105 1.400 . S
C1109 C1108 1.385 . S
C1110 C1108 1.478 . S
C1110 C1112 1.381 . S
C1110 C1116 1.383 . S
C1111 C1107 1.495 . S
C1111 H1117 0.959 . S
C1111 H1118 0.961 . S
C1111 H1119 0.960 . S
C1112 C1110 1.381 . S
C1112 C1113 1.394 . S
C1112 H1120 0.930 . S
C1113 C1112 1.394 . S
C1113 C1114 1.383 . S
C1113 H1121 0.929 . S
C1114 C1113 1.383 . S
C1114 C1115 1.377 . S
C1115 H1099 0.930 . S
C1115 C1114 1.377 . S
C1115 C1116 1.379 . S
C1116 H1100 0.931 . S
C1116 C1110 1.383 . S
C1116 C1115 1.379 . S
H1117 C1111 0.959 . S
H1118 C1111 0.961 . S
H1119 C1111 0.960 . S
H1120 C1112 0.930 . S
H1121 C1113 0.929 . S
H1122 C1130 0.929 . S
H1123 C1132 0.930 . S
H1124 C1134 0.930 . S
H1125 C1137 0.929 . S
H1126 C1140 0.930 . S
H1127 C1142 0.960 . S
H1128 C1142 0.960 . S
H1129 C1142 0.960 . S
C1130 H1122 0.929 . S
C1130 C1131 1.377 . S
C1130 C1132 1.384 . S
C1131 C1130 1.377 . S
C1131 C1137 1.390 . S
C1132 H1123 0.930 . S
C1132 C1130 1.384 . S
C1132 C1133 1.372 . S
C1133 C1132 1.372 . S
C1133 C1134 1.400 . S
C1133 C1138 1.490 . S
C1134 H1124 0.930 . S
C1134 C1133 1.400 . S
C1134 C1137 1.386 . S
H1135 C1151 0.930 . S
H1136 C1152 0.931 . S
C1137 H1125 0.929 . S
C1137 C1131 1.390 . S
C1137 C1134 1.386 . S
C1138 C1133 1.490 . S
C1138 C1140 1.395 . S
C1138 C1141 1.403 . S
H1139 C1145 0.930 . S
C1140 H1126 0.930 . S
C1140 C1138 1.395 . S
C1140 C1143 1.403 . S
C1141 C1138 1.403 . S
C1141 C1142 1.524 . S
C1141 C1145 1.400 . S
C1142 H1127 0.960 . S
C1142 H1128 0.960 . S
C1142 H1129 0.960 . S
C1142 C1141 1.524 . S
C1143 C1140 1.403 . S
C1143 C1144 1.392 . S
C1143 C1147 1.495 . S
C1144 C1143 1.392 . S
C1144 C1145 1.385 . S
C1144 C1146 1.478 . S
C1145 H1139 0.930 . S
C1145 C1141 1.400 . S
C1145 C1144 1.385 . S
C1146 C1144 1.478 . S
C1146 C1148 1.381 . S
C1146 C1152 1.383 . S
C1147 C1143 1.495 . S
C1147 H1153 0.959 . S
C1147 H1154 0.961 . S
C1147 H1155 0.960 . S
C1148 C1146 1.381 . S
C1148 C1149 1.394 . S
C1148 H1156 0.930 . S
C1149 C1148 1.394 . S
C1149 C1150 1.383 . S
C1149 H1157 0.929 . S
C1150 C1149 1.383 . S
C1150 C1151 1.377 . S
C1151 H1135 0.930 . S
C1151 C1150 1.377 . S
C1151 C1152 1.379 . S
C1152 H1136 0.931 . S
C1152 C1146 1.383 . S
C1152 C1151 1.379 . S
H1153 C1147 0.959 . S
H1154 C1147 0.961 . S
H1155 C1147 0.960 . S
H1156 C1148 0.930 . S
H1157 C1149 0.929 . S
H1158 C1166 0.929 . S
H1159 C1168 0.930 . S
H1160 C1170 0.930 . S
H1161 C1173 0.929 . S
H1162 C1176 0.930 . S
H1163 C1178 0.960 . S
H1164 C1178 0.960 . S
H1165 C1178 0.960 . S
C1166 H1158 0.929 . S
C1166 C1167 1.377 . S
C1166 C1168 1.384 . S
C1167 C1166 1.377 . S
C1167 C1173 1.390 . S
C1168 H1159 0.930 . S
C1168 C1166 1.384 . S
C1168 C1169 1.372 . S
C1169 C1168 1.372 . S
C1169 C1170 1.400 . S
C1169 C1174 1.490 . S
C1170 H1160 0.930 . S
C1170 C1169 1.400 . S
C1170 C1173 1.386 . S
H1171 C1187 0.930 . S
H1172 C1188 0.931 . S
C1173 H1161 0.929 . S
C1173 C1167 1.390 . S
C1173 C1170 1.386 . S
C1174 C1169 1.490 . S
C1174 C1176 1.395 . S
C1174 C1177 1.403 . S
H1175 C1181 0.930 . S
C1176 H1162 0.930 . S
C1176 C1174 1.395 . S
C1176 C1179 1.403 . S
C1177 C1174 1.403 . S
C1177 C1178 1.524 . S
C1177 C1181 1.400 . S
C1178 H1163 0.960 . S
C1178 H1164 0.960 . S
C1178 H1165 0.960 . S
C1178 C1177 1.524 . S
C1179 C1176 1.403 . S
C1179 C1180 1.392 . S
C1179 C1183 1.495 . S
C1180 C1179 1.392 . S
C1180 C1181 1.385 . S
C1180 C1182 1.478 . S
C1181 H1175 0.930 . S
C1181 C1177 1.400 . S
C1181 C1180 1.385 . S
C1182 C1180 1.478 . S
C1182 C1184 1.381 . S
C1182 C1188 1.383 . S
C1183 C1179 1.495 . S
C1183 H1189 0.959 . S
C1183 H1190 0.961 . S
C1183 H1191 0.960 . S
C1184 C1182 1.381 . S
C1184 C1185 1.394 . S
C1184 H1192 0.930 . S
C1185 C1184 1.394 . S
C1185 C1186 1.383 . S
C1185 H1193 0.929 . S
C1186 C1185 1.383 . S
C1186 C1187 1.377 . S
C1187 H1171 0.930 . S
C1187 C1186 1.377 . S
C1187 C1188 1.379 . S
C1188 H1172 0.931 . S
C1188 C1182 1.383 . S
C1188 C1187 1.379 . S
H1189 C1183 0.959 . S
H1190 C1183 0.961 . S
H1191 C1183 0.960 . S
H1192 C1184 0.930 . S
H1193 C1185 0.929 . S
H1194 C1202 0.929 . S
H1195 C1204 0.930 . S
H1196 C1206 0.930 . S
H1197 C1209 0.929 . S
H1198 C1212 0.930 . S
H1199 C1214 0.960 . S
H1200 C1214 0.960 . S
H1201 C1214 0.960 . S
C1202 H1194 0.929 . S
C1202 C1203 1.377 . S
C1202 C1204 1.384 . S
C1203 C1202 1.377 . S
C1203 C1209 1.390 . S
C1204 H1195 0.930 . S
C1204 C1202 1.384 . S
C1204 C1205 1.372 . S
C1205 C1204 1.372 . S
C1205 C1206 1.400 . S
C1205 C1210 1.490 . S
C1206 H1196 0.930 . S
C1206 C1205 1.400 . S
C1206 C1209 1.386 . S
H1207 C1223 0.930 . S
H1208 C1224 0.931 . S
C1209 H1197 0.929 . S
C1209 C1203 1.390 . S
C1209 C1206 1.386 . S
C1210 C1205 1.490 . S
C1210 C1212 1.395 . S
C1210 C1213 1.403 . S
H1211 C1217 0.930 . S
C1212 H1198 0.930 . S
C1212 C1210 1.395 . S
C1212 C1215 1.403 . S
C1213 C1210 1.403 . S
C1213 C1214 1.524 . S
C1213 C1217 1.400 . S
C1214 H1199 0.960 . S
C1214 H1200 0.960 . S
C1214 H1201 0.960 . S
C1214 C1213 1.524 . S
C1215 C1212 1.403 . S
C1215 C1216 1.392 . S
C1215 C1219 1.495 . S
C1216 C1215 1.392 . S
C1216 C1217 1.385 . S
C1216 C1218 1.478 . S
C1217 H1211 0.930 . S
C1217 C1213 1.400 . S
C1217 C1216 1.385 . S
C1218 C1216 1.478 . S
C1218 C1220 1.381 . S
C1218 C1224 1.383 . S
C1219 C1215 1.495 . S
C1219 H1225 0.959 . S
C1219 H1226 0.961 . S
C1219 H1227 0.960 . S
C1220 C1218 1.381 . S
C1220 C1221 1.394 . S
C1220 H1228 0.930 . S
C1221 C1220 1.394 . S
C1221 C1222 1.383 . S
C1221 H1229 0.929 . S
C1222 C1221 1.383 . S
C1222 C1223 1.377 . S
C1223 H1207 0.930 . S
C1223 C1222 1.377 . S
C1223 C1224 1.379 . S
C1224 H1208 0.931 . S
C1224 C1218 1.383 . S
C1224 C1223 1.379 . S
H1225 C1219 0.959 . S
H1226 C1219 0.961 . S
H1227 C1219 0.960 . S
H1228 C1220 0.930 . S
H1229 C1221 0.929 . S
H1230 C1238 0.929 . S
H1231 C1240 0.930 . S
H1232 C1242 0.930 . S
H1233 C1245 0.929 . S
H1234 C1248 0.930 . S
H1235 C1250 0.960 . S
H1236 C1250 0.960 . S
H1237 C1250 0.960 . S
C1238 H1230 0.929 . S
C1238 C1239 1.377 . S
C1238 C1240 1.384 . S
C1239 C1238 1.377 . S
C1239 C1245 1.390 . S
C1240 H1231 0.930 . S
C1240 C1238 1.384 . S
C1240 C1241 1.372 . S
C1241 C1240 1.372 . S
C1241 C1242 1.400 . S
C1241 C1246 1.490 . S
C1242 H1232 0.930 . S
C1242 C1241 1.400 . S
C1242 C1245 1.386 . S
H1243 C1259 0.930 . S
H1244 C1260 0.931 . S
C1245 H1233 0.929 . S
C1245 C1239 1.390 . S
C1245 C1242 1.386 . S
C1246 C1241 1.490 . S
C1246 C1248 1.395 . S
C1246 C1249 1.403 . S
H1247 C1253 0.930 . S
C1248 H1234 0.930 . S
C1248 C1246 1.395 . S
C1248 C1251 1.403 . S
C1249 C1246 1.403 . S
C1249 C1250 1.524 . S
C1249 C1253 1.400 . S
C1250 H1235 0.960 . S
C1250 H1236 0.960 . S
C1250 H1237 0.960 . S
C1250 C1249 1.524 . S
C1251 C1248 1.403 . S
C1251 C1252 1.392 . S
C1251 C1255 1.495 . S
C1252 C1251 1.392 . S
C1252 C1253 1.385 . S
C1252 C1254 1.478 . S
C1253 H1247 0.930 . S
C1253 C1249 1.400 . S
C1253 C1252 1.385 . S
C1254 C1252 1.478 . S
C1254 C1256 1.381 . S
C1254 C1260 1.383 . S
C1255 C1251 1.495 . S
C1255 H1261 0.959 . S
C1255 H1262 0.961 . S
C1255 H1263 0.960 . S
C1256 C1254 1.381 . S
C1256 C1257 1.394 . S
C1256 H1264 0.930 . S
C1257 C1256 1.394 . S
C1257 C1258 1.383 . S
C1257 H1265 0.929 . S
C1258 C1257 1.383 . S
C1258 C1259 1.377 . S
C1259 H1243 0.930 . S
C1259 C1258 1.377 . S
C1259 C1260 1.379 . S
C1260 H1244 0.931 . S
C1260 C1254 1.383 . S
C1260 C1259 1.379 . S
H1261 C1255 0.959 . S
H1262 C1255 0.961 . S
H1263 C1255 0.960 . S
H1264 C1256 0.930 . S
H1265 C1257 0.929 . S
H1266 C1274 0.929 . S
H1267 C1276 0.930 . S
H1268 C1278 0.930 . S
H1269 C1281 0.929 . S
H1270 C1284 0.930 . S
H1271 C1286 0.960 . S
H1272 C1286 0.960 . S
H1273 C1286 0.960 . S
C1274 H1266 0.929 . S
C1274 C1275 1.377 . S
C1274 C1276 1.384 . S
C1275 C1274 1.377 . S
C1275 C1281 1.390 . S
C1276 H1267 0.930 . S
C1276 C1274 1.384 . S
C1276 C1277 1.372 . S
C1277 C1276 1.372 . S
C1277 C1278 1.400 . S
C1277 C1282 1.490 . S
C1278 H1268 0.930 . S
C1278 C1277 1.400 . S
C1278 C1281 1.386 . S
H1279 C1295 0.930 . S
H1280 C1296 0.931 . S
C1281 H1269 0.929 . S
C1281 C1275 1.390 . S
C1281 C1278 1.386 . S
C1282 C1277 1.490 . S
C1282 C1284 1.395 . S
C1282 C1285 1.403 . S
H1283 C1289 0.930 . S
C1284 H1270 0.930 . S
C1284 C1282 1.395 . S
C1284 C1287 1.403 . S
C1285 C1282 1.403 . S
C1285 C1286 1.524 . S
C1285 C1289 1.400 . S
C1286 H1271 0.960 . S
C1286 H1272 0.960 . S
C1286 H1273 0.960 . S
C1286 C1285 1.524 . S
C1287 C1284 1.403 . S
C1287 C1288 1.392 . S
C1287 C1291 1.495 . S
C1288 C1287 1.392 . S
C1288 C1289 1.385 . S
C1288 C1290 1.478 . S
C1289 H1283 0.930 . S
C1289 C1285 1.400 . S
C1289 C1288 1.385 . S
C1290 C1288 1.478 . S
C1290 C1292 1.381 . S
C1290 C1296 1.383 . S
C1291 C1287 1.495 . S
C1291 H1297 0.959 . S
C1291 H1298 0.961 . S
C1291 H1299 0.960 . S
C1292 C1290 1.381 . S
C1292 C1293 1.394 . S
C1292 H1300 0.930 . S
C1293 C1292 1.394 . S
C1293 C1294 1.383 . S
C1293 H1301 0.929 . S
C1294 C1293 1.383 . S
C1294 C1295 1.377 . S
C1295 H1279 0.930 . S
C1295 C1294 1.377 . S
C1295 C1296 1.379 . S
C1296 H1280 0.931 . S
C1296 C1290 1.383 . S
C1296 C1295 1.379 . S
H1297 C1291 0.959 . S
H1298 C1291 0.961 . S
H1299 C1291 0.960 . S
H1300 C1292 0.930 . S
H1301 C1293 0.929 . S
H1302 C1310 0.929 . S
H1303 C1312 0.930 . S
H1304 C1314 0.930 . S
H1305 C1317 0.929 . S
H1306 C1320 0.930 . S
H1307 C1322 0.960 . S
H1308 C1322 0.960 . S
H1309 C1322 0.960 . S
C1310 H1302 0.929 . S
C1310 C1311 1.377 . S
C1310 C1312 1.384 . S
C1311 C1310 1.377 . S
C1311 C1317 1.390 . S
C1312 H1303 0.930 . S
C1312 C1310 1.384 . S
C1312 C1313 1.372 . S
C1313 C1312 1.372 . S
C1313 C1314 1.400 . S
C1313 C1318 1.490 . S
C1314 H1304 0.930 . S
C1314 C1313 1.400 . S
C1314 C1317 1.386 . S
H1315 C1331 0.930 . S
H1316 C1332 0.931 . S
C1317 H1305 0.929 . S
C1317 C1311 1.390 . S
C1317 C1314 1.386 . S
C1318 C1313 1.490 . S
C1318 C1320 1.395 . S
C1318 C1321 1.403 . S
H1319 C1325 0.930 . S
C1320 H1306 0.930 . S
C1320 C1318 1.395 . S
C1320 C1323 1.403 . S
C1321 C1318 1.403 . S
C1321 C1322 1.524 . S
C1321 C1325 1.400 . S
C1322 H1307 0.960 . S
C1322 H1308 0.960 . S
C1322 H1309 0.960 . S
C1322 C1321 1.524 . S
C1323 C1320 1.403 . S
C1323 C1324 1.392 . S
C1323 C1327 1.495 . S
C1324 C1323 1.392 . S
C1324 C1325 1.385 . S
C1324 C1326 1.478 . S
C1325 H1319 0.930 . S
C1325 C1321 1.400 . S
C1325 C1324 1.385 . S
C1326 C1324 1.478 . S
C1326 C1328 1.381 . S
C1326 C1332 1.383 . S
C1327 C1323 1.495 . S
C1327 H1333 0.959 . S
C1327 H1334 0.961 . S
C1327 H1335 0.960 . S
C1328 C1326 1.381 . S
C1328 C1329 1.394 . S
C1328 H1336 0.930 . S
C1329 C1328 1.394 . S
C1329 C1330 1.383 . S
C1329 H1337 0.929 . S
C1330 C1329 1.383 . S
C1330 C1331 1.377 . S
C1331 H1315 0.930 . S
C1331 C1330 1.377 . S
C1331 C1332 1.379 . S
C1332 H1316 0.931 . S
C1332 C1326 1.383 . S
C1332 C1331 1.379 . S
H1333 C1327 0.959 . S
H1334 C1327 0.961 . S
H1335 C1327 0.960 . S
H1336 C1328 0.930 . S
H1337 C1329 0.929 . S
H1338 C1346 0.929 . S
H1339 C1348 0.930 . S
H1340 C1350 0.930 . S
H1341 C1353 0.929 . S
H1342 C1356 0.930 . S
H1343 C1358 0.960 . S
H1344 C1358 0.960 . S
H1345 C1358 0.960 . S
C1346 H1338 0.929 . S
C1346 C1347 1.377 . S
C1346 C1348 1.384 . S
C1347 C1346 1.377 . S
C1347 C1353 1.390 . S
C1348 H1339 0.930 . S
C1348 C1346 1.384 . S
C1348 C1349 1.372 . S
C1349 C1348 1.372 . S
C1349 C1350 1.400 . S
C1349 C1354 1.490 . S
C1350 H1340 0.930 . S
C1350 C1349 1.400 . S
C1350 C1353 1.386 . S
H1351 C1367 0.930 . S
H1352 C1368 0.931 . S
C1353 H1341 0.929 . S
C1353 C1347 1.390 . S
C1353 C1350 1.386 . S
C1354 C1349 1.490 . S
C1354 C1356 1.395 . S
C1354 C1357 1.403 . S
H1355 C1361 0.930 . S
C1356 H1342 0.930 . S
C1356 C1354 1.395 . S
C1356 C1359 1.403 . S
C1357 C1354 1.403 . S
C1357 C1358 1.524 . S
C1357 C1361 1.400 . S
C1358 H1343 0.960 . S
C1358 H1344 0.960 . S
C1358 H1345 0.960 . S
C1358 C1357 1.524 . S
C1359 C1356 1.403 . S
C1359 C1360 1.392 . S
C1359 C1363 1.495 . S
C1360 C1359 1.392 . S
C1360 C1361 1.385 . S
C1360 C1362 1.478 . S
C1361 H1355 0.930 . S
C1361 C1357 1.400 . S
C1361 C1360 1.385 . S
C1362 C1360 1.478 . S
C1362 C1364 1.381 . S
C1362 C1368 1.383 . S
C1363 C1359 1.495 . S
C1363 H1369 0.959 . S
C1363 H1370 0.961 . S
C1363 H1371 0.960 . S
C1364 C1362 1.381 . S
C1364 C1365 1.394 . S
C1364 H1372 0.930 . S
C1365 C1364 1.394 . S
C1365 C1366 1.383 . S
C1365 H1373 0.929 . S
C1366 C1365 1.383 . S
C1366 C1367 1.377 . S
C1367 H1351 0.930 . S
C1367 C1366 1.377 . S
C1367 C1368 1.379 . S
C1368 H1352 0.931 . S
C1368 C1362 1.383 . S
C1368 C1367 1.379 . S
H1369 C1363 0.959 . S
H1370 C1363 0.961 . S
H1371 C1363 0.960 . S
H1372 C1364 0.930 . S
H1373 C1365 0.929 . S
H1374 C1382 0.929 . S
H1375 C1384 0.930 . S
H1376 C1386 0.930 . S
H1377 C1389 0.929 . S
H1378 C1392 0.930 . S
H1379 C1394 0.960 . S
H1380 C1394 0.960 . S
H1381 C1394 0.960 . S
C1382 H1374 0.929 . S
C1382 C1383 1.377 . S
C1382 C1384 1.384 . S
C1383 C1382 1.377 . S
C1383 C1389 1.390 . S
C1384 H1375 0.930 . S
C1384 C1382 1.384 . S
C1384 C1385 1.372 . S
C1385 C1384 1.372 . S
C1385 C1386 1.400 . S
C1385 C1390 1.490 . S
C1386 H1376 0.930 . S
C1386 C1385 1.400 . S
C1386 C1389 1.386 . S
H1387 C1403 0.930 . S
H1388 C1404 0.931 . S
C1389 H1377 0.929 . S
C1389 C1383 1.390 . S
C1389 C1386 1.386 . S
C1390 C1385 1.490 . S
C1390 C1392 1.395 . S
C1390 C1393 1.403 . S
H1391 C1397 0.930 . S
C1392 H1378 0.930 . S
C1392 C1390 1.395 . S
C1392 C1395 1.403 . S
C1393 C1390 1.403 . S
C1393 C1394 1.524 . S
C1393 C1397 1.400 . S
C1394 H1379 0.960 . S
C1394 H1380 0.960 . S
C1394 H1381 0.960 . S
C1394 C1393 1.524 . S
C1395 C1392 1.403 . S
C1395 C1396 1.392 . S
C1395 C1399 1.495 . S
C1396 C1395 1.392 . S
C1396 C1397 1.385 . S
C1396 C1398 1.478 . S
C1397 H1391 0.930 . S
C1397 C1393 1.400 . S
C1397 C1396 1.385 . S
C1398 C1396 1.478 . S
C1398 C1400 1.381 . S
C1398 C1404 1.383 . S
C1399 C1395 1.495 . S
C1399 H1405 0.959 . S
C1399 H1406 0.961 . S
C1399 H1407 0.960 . S
C1400 C1398 1.381 . S
C1400 C1401 1.394 . S
C1400 H1408 0.930 . S
C1401 C1400 1.394 . S
C1401 C1402 1.383 . S
C1401 H1409 0.929 . S
C1402 C1401 1.383 . S
C1402 C1403 1.377 . S
C1403 H1387 0.930 . S
C1403 C1402 1.377 . S
C1403 C1404 1.379 . S
C1404 H1388 0.931 . S
C1404 C1398 1.383 . S
C1404 C1403 1.379 . S
H1405 C1399 0.959 . S
H1406 C1399 0.961 . S
H1407 C1399 0.960 . S
H1408 C1400 0.930 . S
H1409 C1401 0.929 . S
H1410 C1418 0.929 . S
H1411 C1420 0.930 . S
H1412 C1422 0.930 . S
H1413 C1425 0.929 . S
H1414 C1428 0.930 . S
H1415 C1430 0.960 . S
H1416 C1430 0.960 . S
H1417 C1430 0.960 . S
C1418 H1410 0.929 . S
C1418 C1419 1.377 . S
C1418 C1420 1.384 . S
C1419 C1418 1.377 . S
C1419 C1425 1.390 . S
C1420 H1411 0.930 . S
C1420 C1418 1.384 . S
C1420 C1421 1.372 . S
C1421 C1420 1.372 . S
C1421 C1422 1.400 . S
C1421 C1426 1.490 . S
C1422 H1412 0.930 . S
C1422 C1421 1.400 . S
C1422 C1425 1.386 . S
H1423 C1439 0.930 . S
H1424 C1440 0.931 . S
C1425 H1413 0.929 . S
C1425 C1419 1.390 . S
C1425 C1422 1.386 . S
C1426 C1421 1.490 . S
C1426 C1428 1.395 . S
C1426 C1429 1.403 . S
H1427 C1433 0.930 . S
C1428 H1414 0.930 . S
C1428 C1426 1.395 . S
C1428 C1431 1.403 . S
C1429 C1426 1.403 . S
C1429 C1430 1.524 . S
C1429 C1433 1.400 . S
C1430 H1415 0.960 . S
C1430 H1416 0.960 . S
C1430 H1417 0.960 . S
C1430 C1429 1.524 . S
C1431 C1428 1.403 . S
C1431 C1432 1.392 . S
C1431 C1435 1.495 . S
C1432 C1431 1.392 . S
C1432 C1433 1.385 . S
C1432 C1434 1.478 . S
C1433 H1427 0.930 . S
C1433 C1429 1.400 . S
C1433 C1432 1.385 . S
C1434 C1432 1.478 . S
C1434 C1436 1.381 . S
C1434 C1440 1.383 . S
C1435 C1431 1.495 . S
C1435 H1441 0.959 . S
C1435 H1442 0.961 . S
C1435 H1443 0.960 . S
C1436 C1434 1.381 . S
C1436 C1437 1.394 . S
C1436 H1444 0.930 . S
C1437 C1436 1.394 . S
C1437 C1438 1.383 . S
C1437 H1445 0.929 . S
C1438 C1437 1.383 . S
C1438 C1439 1.377 . S
C1439 H1423 0.930 . S
C1439 C1438 1.377 . S
C1439 C1440 1.379 . S
C1440 H1424 0.931 . S
C1440 C1434 1.383 . S
C1440 C1439 1.379 . S
H1441 C1435 0.959 . S
H1442 C1435 0.961 . S
H1443 C1435 0.960 . S
H1444 C1436 0.930 . S
H1445 C1437 0.929 . S
H1446 C1454 0.929 . S
H1447 C1456 0.930 . S
H1448 C1458 0.930 . S
H1449 C1461 0.929 . S
H1450 C1464 0.930 . S
H1451 C1466 0.960 . S
H1452 C1466 0.960 . S
H1453 C1466 0.960 . S
C1454 H1446 0.929 . S
C1454 C1455 1.377 . S
C1454 C1456 1.384 . S
C1455 C1454 1.377 . S
C1455 C1461 1.390 . S
C1456 H1447 0.930 . S
C1456 C1454 1.384 . S
C1456 C1457 1.372 . S
C1457 C1456 1.372 . S
C1457 C1458 1.400 . S
C1457 C1462 1.490 . S
C1458 H1448 0.930 . S
C1458 C1457 1.400 . S
C1458 C1461 1.386 . S
H1459 C1475 0.930 1_556 S
H1460 C1476 0.931 . S
C1461 H1449 0.929 . S
C1461 C1455 1.390 . S
C1461 C1458 1.386 . S
C1462 C1457 1.490 . S
C1462 C1464 1.395 . S
C1462 C1465 1.403 . S
H1463 C1469 0.930 . S
C1464 H1450 0.930 . S
C1464 C1462 1.395 . S
C1464 C1467 1.403 . S
C1465 C1462 1.403 . S
C1465 C1466 1.524 . S
C1465 C1469 1.400 . S
C1466 H1451 0.960 . S
C1466 H1452 0.960 . S
C1466 H1453 0.960 . S
C1466 C1465 1.524 . S
C1467 C1464 1.403 . S
C1467 C1468 1.392 . S
C1467 C1471 1.495 . S
C1468 C1467 1.392 . S
C1468 C1469 1.385 . S
C1468 C1470 1.478 . S
C1469 H1463 0.930 . S
C1469 C1465 1.400 . S
C1469 C1468 1.385 . S
C1470 C1468 1.478 . S
C1470 C1472 1.381 . S
C1470 C1476 1.383 . S
C1471 C1467 1.495 . S
C1471 H1477 0.959 . S
C1471 H1478 0.961 . S
C1471 H1479 0.960 . S
C1472 C1470 1.381 . S
C1472 C1473 1.394 . S
C1472 H1480 0.930 . S
C1473 C1472 1.394 . S
C1473 C1474 1.390 . S
C1473 H1481 0.929 . S
C1474 C1473 1.390 . S
C1474 C1475 1.377 . S
C1475 H1459 0.930 1_554 S
C1475 C1474 1.377 . S
C1475 C1476 1.379 . S
C1476 H1460 0.931 . S
C1476 C1470 1.383 . S
C1476 C1475 1.379 . S
H1477 C1471 0.959 . S
H1478 C1471 0.961 . S
H1479 C1471 0.960 . S
H1480 C1472 0.930 . S
H1481 C1473 0.929 . S
H1482 C1490 0.929 . S
H1483 C1492 0.930 . S
H1484 C1494 0.930 . S
H1485 C1497 0.929 . S
H1486 C1500 0.930 . S
H1487 C1502 0.960 . S
H1488 C1502 0.960 . S
H1489 C1502 0.960 . S
C1490 H1482 0.929 . S
C1490 C1491 1.377 . S
C1490 C1492 1.384 . S
C1491 C1490 1.377 . S
C1491 C1497 1.390 . S
C1492 H1483 0.930 . S
C1492 C1490 1.384 . S
C1492 C1493 1.372 . S
C1493 C1492 1.372 . S
C1493 C1494 1.400 . S
C1493 C1498 1.490 . S
C1494 H1484 0.930 . S
C1494 C1493 1.400 . S
C1494 C1497 1.386 . S
H1495 C1511 0.930 . S
H1496 C1512 0.931 . S
C1497 H1485 0.929 . S
C1497 C1491 1.390 . S
C1497 C1494 1.386 . S
C1498 C1493 1.490 . S
C1498 C1500 1.395 . S
C1498 C1501 1.403 . S
H1499 C1505 0.930 . S
C1500 H1486 0.930 . S
C1500 C1498 1.395 . S
C1500 C1503 1.403 . S
C1501 C1498 1.403 . S
C1501 C1502 1.524 . S
C1501 C1505 1.400 . S
C1502 H1487 0.960 . S
C1502 H1488 0.960 . S
C1502 H1489 0.960 . S
C1502 C1501 1.524 . S
C1503 C1500 1.403 . S
C1503 C1504 1.392 . S
C1503 C1507 1.495 . S
C1504 C1503 1.392 . S
C1504 C1505 1.385 . S
C1504 C1506 1.478 . S
C1505 H1499 0.930 . S
C1505 C1501 1.400 . S
C1505 C1504 1.385 . S
C1506 C1504 1.478 . S
C1506 C1508 1.381 . S
C1506 C1512 1.383 . S
C1507 C1503 1.495 . S
C1507 H1513 0.959 . S
C1507 H1514 0.961 . S
C1507 H1515 0.960 . S
C1508 C1506 1.381 . S
C1508 C1509 1.394 . S
C1508 H1516 0.930 . S
C1509 C1508 1.394 . S
C1509 C1510 1.383 . S
C1509 H1517 0.929 . S
C1510 C1509 1.383 . S
C1510 C1511 1.377 . S
C1511 H1495 0.930 . S
C1511 C1510 1.377 . S
C1511 C1512 1.379 . S
C1512 H1496 0.931 . S
C1512 C1506 1.383 . S
C1512 C1511 1.379 . S
H1513 C1507 0.959 . S
H1514 C1507 0.961 . S
H1515 C1507 0.960 . S
H1516 C1508 0.930 . S
H1517 C1509 0.929 . S
C682 C595 1.575 . S
C663 C19 1.483 . S
C699 C40 1.476 . S
C718 C155 1.562 . S
C735 C51 1.482 . S
C754 C243 1.583 . S
C771 C72 1.462 . S
C790 C322 1.568 . S
C826 C419 1.558 . S
C807 C103 1.475 . S
C843 C114 1.472 . S
C862 C498 1.582 . S
C879 C30 1.483 . S
C898 C263 1.592 . S
C915 C61 1.476 . S
C934 C359 1.562 . S
C951 C82 1.477 . S
C970 C439 1.559 . S
C1006 C535 1.572 . S
C987 C93 1.472 1_554 S
C1042 C615 1.560 . S
C1023 C124 1.474 . S
C1078 C175 1.575 . S
C1059 C9 1.466 . S
C1095 C17 1.441 . S
C1114 C271 1.535 . S
C1131 C38 1.428 . S
C1150 C351 1.517 . S
C1186 C447 1.516 . S
C1167 C54 1.416 . S
C1203 C75 1.434 . S
C1222 C527 1.534 1_556 S
C1258 C623 1.524 . S
C1239 C101 1.432 . S
C1294 C183 1.510 . S
C1275 C117 1.416 . S
C1330 C586 1.526 . S
C1311 C33 1.427 . S
C1347 C59 1.423 . S
C1366 C146 1.511 . S
C1402 C234 1.517 . S
C1383 C80 1.428 . S
C1419 C96 1.415 . S
C1438 C331 1.509 . S
C1455 C122 1.421 . S
C1474 C410 1.502 1_554 S
C1491 C12 1.433 . S
C1510 C507 1.532 . S
