# Generated by pormake.
# Topology pth, (4,4)-cn, num edge types: 1
# Building blocks:
#     Node 0, Type 0, BuildingBlock: QUQFOY_clean_sbu_3, # of connection points: 4
#     Node 1, Type 0, BuildingBlock: QUQFOY_clean_sbu_3, # of connection points: 4
#     Node 2, Type 0, BuildingBlock: QUQFOY_clean_sbu_3, # of connection points: 4
#     Node 3, Type 1, BuildingBlock: NAWXER_clean_linker_0, # of connection points: 4
#     Node 4, Type 1, BuildingBlock: NAWXER_clean_linker_0, # of connection points: 4
#     Node 5, Type 1, BuildingBlock: NAWXER_clean_linker_0, # of connection points: 4
#     Edge 6, Type (0, 1), BuildingBlock: XUDNAN_clean_linker_2, # of connection points: 2
#     Edge 7, Type (0, 1), BuildingBlock: XUDNAN_clean_linker_2, # of connection points: 2
#     Edge 8, Type (0, 1), BuildingBlock: XUDNAN_clean_linker_2, # of connection points: 2
#     Edge 9, Type (0, 1), BuildingBlock: XUDNAN_clean_linker_2, # of connection points: 2
#     Edge 10, Type (0, 1), BuildingBlock: XUDNAN_clean_linker_2, # of connection points: 2
#     Edge 11, Type (0, 1), BuildingBlock: XUDNAN_clean_linker_2, # of connection points: 2
#     Edge 12, Type (0, 1), BuildingBlock: XUDNAN_clean_linker_2, # of connection points: 2
#     Edge 13, Type (0, 1), BuildingBlock: XUDNAN_clean_linker_2, # of connection points: 2
#     Edge 14, Type (0, 1), BuildingBlock: XUDNAN_clean_linker_2, # of connection points: 2
#     Edge 15, Type (0, 1), BuildingBlock: XUDNAN_clean_linker_2, # of connection points: 2
#     Edge 16, Type (0, 1), BuildingBlock: XUDNAN_clean_linker_2, # of connection points: 2
#     Edge 17, Type (0, 1), BuildingBlock: XUDNAN_clean_linker_2, # of connection points: 2
# Relax obj value: 0.008
# Max RMSD: 0.059
# Mean RMSD: 0.041
data_MOF--net-pth--node1-QUQFOY_clean_sbu_3--node2-NAWXER_clean_linker_0--edge1-XUDNAN_clean_linker_2
_symmetry_space_group_name_H-M    P1
_symmetry_Int_Tables_number       1
_symmetry_cell_setting            triclinic
loop_
_symmetry_equiv_pos_as_xyz
'x, y, z'
_cell_length_a     29.194182
_cell_length_b     28.973471
_cell_length_c     67.502182
_cell_angle_alpha  89.85813
_cell_angle_beta   90.920163
_cell_angle_gamma 120.65307
loop_
_atom_site_label
_atom_site_type_symbol
_atom_site_fract_x
_atom_site_fract_y
_atom_site_fract_z
_atom_type_partial_charge
C0 C 0.97264 0.14107 0.06509 0.0
O1 O 0.95493 0.13236 0.04736 0.0
Cd2 Cd 0.96672 0.07865 0.02342 0.0
O3 O -0.00229 0.11887 0.07187 0.0
Cd4 Cd 0.02471 0.05547 0.05907 0.0
C5 C 0.10273 0.14161 0.02334 0.0
O6 O 0.94636 0.99548 0.03845 0.0
O7 O 0.01575 0.98773 0.03569 0.0
O8 O 0.00033 0.00187 0.08928 0.0
C9 C 0.9675 0.97065 0.03104 0.0
O10 O 0.0599 0.13123 0.01429 0.0
C11 C 0.04699 0.01133 0.09329 0.0
O12 O 0.10167 0.12123 0.0402 0.0
O13 O 0.08372 0.04308 0.08181 0.0
C14 C 0.14465 0.11109 0.39774 0.0
O15 O 0.15737 0.13369 0.38096 0.0
Cd16 Cd 0.09443 0.123 0.35581 0.0
O17 O 0.09596 0.08479 0.4028 0.0
Cd18 Cd 0.00697 0.06319 0.38897 0.0
C19 C 0.02062 0.98406 0.35618 0.0
O20 O 0.03184 0.14362 0.36931 0.0
O21 O 0.95605 0.0735 0.36212 0.0
O22 O 0.98977 0.08758 0.42141 0.0
C23 C 0.98874 0.12282 0.35924 0.0
O24 O 0.05338 0.02772 0.34767 0.0
C25 C 0.94261 0.04799 0.42266 0.0
O26 O -0.00159 0.98436 0.37224 0.0
O27 O 0.92536 0.01452 0.40838 0.0
C28 C 0.93204 0.08417 0.69901 0.0
O29 O 0.92695 0.10464 0.71484 0.0
Cd30 Cd 0.98148 0.11665 0.74396 0.0
O31 O 0.96739 0.07103 0.69795 0.0
Cd32 Cd 0.04025 0.07116 0.71671 0.0
C33 C 0.95266 0.98634 0.75035 0.0
O34 O 0.07223 0.15598 0.73417 0.0
O35 O 0.10688 0.10858 0.7433 0.0
O36 O 0.08873 0.10523 0.68644 0.0
C37 C 0.10519 0.15122 0.74522 0.0
O38 O 0.95031 0.02667 0.75642 0.0
C39 C 0.10179 0.06994 0.68447 0.0
O40 O 0.97974 0.98969 0.7352 0.0
O41 O 0.08613 0.03396 0.69773 0.0
C42 C 0.95285 0.36771 0.2469 0.0
C43 C -0.00437 0.37198 0.25838 0.0
C44 C 0.95834 0.41161 0.23625 0.0
C45 C 0.00643 0.4608 0.23704 0.0
C46 C 0.04435 0.42113 0.25853 0.0
C47 C 0.0494 0.46527 0.24818 0.0
C48 C 0.01034 0.50884 0.22788 0.0
C49 C 0.02205 0.41508 0.17616 0.0
C50 C 0.9779 0.39548 0.16305 0.0
C51 C 0.02992 0.45211 0.19106 0.0
C52 C 0.99401 0.47042 0.19302 0.0
C53 C 0.94112 0.41265 0.16565 0.0
C54 C 0.94949 0.45018 0.1803 0.0
C55 C 0.00397 0.51312 0.20735 0.0
C56 C 0.0711 0.74643 0.2004 0.0
C57 C 0.04009 0.74364 0.18379 0.0
C58 C 0.06202 0.69973 0.20993 0.0
C59 C 0.02119 0.64913 0.20326 0.0
C60 C -0.00097 0.693 0.1772 0.0
C61 C 0.98987 0.64625 0.18678 0.0
C62 C 0.01389 0.59923 0.21241 0.0
C63 C 0.96442 0.66965 0.26063 0.0
C64 C 0.00261 0.6941 0.27589 0.0
C65 C 0.96975 0.6378 0.24646 0.0
C66 C 0.01299 0.62934 0.24748 0.0
C67 C 0.04614 0.68604 0.27684 0.0
C68 C 0.05084 0.65313 0.26289 0.0
C69 C 0.01655 0.59312 0.23308 0.0
H70 H 0.91441 0.33108 0.24666 0.0
H71 H 0.92441 0.40776 0.22799 0.0
H72 H 0.07859 0.42582 0.26678 0.0
H73 H 0.08679 0.5031 0.24899 0.0
H74 H 0.05156 0.40336 0.1745 0.0
H75 H 0.06498 0.46783 0.20059 0.0
H76 H 0.90595 0.39753 0.15623 0.0
H77 H 0.92118 0.46364 0.18164 0.0
H78 H 0.10285 0.78475 0.20593 0.0
H79 H 0.08802 0.70326 0.22218 0.0
H80 H 0.97496 0.68931 0.16425 0.0
H81 H 0.95859 0.60773 0.18118 0.0
H82 H 0.9307 0.67558 0.25958 0.0
H83 H 0.93962 0.61903 0.23487 0.0
H84 H 0.07594 0.70449 0.28856 0.0
H85 H 0.08417 0.64659 0.264 0.0
N86 N 0.01568 0.54866 0.24004 0.0
N87 N 0.00664 0.55846 0.20034 0.0
C88 C 0.67857 0.06964 0.52414 0.0
C89 C 0.67085 0.02698 0.51185 0.0
C90 C 0.63558 0.06848 0.53336 0.0
C91 C 0.5838 0.02478 0.53048 0.0
C92 C 0.61862 0.98365 0.50868 0.0
C93 C 0.57543 0.98282 0.5178 0.0
C94 C 0.53867 0.02337 0.54068 0.0
C95 C 0.634 0.99287 0.58552 0.0
C96 C 0.66109 0.03511 0.59926 0.0
C97 C 0.59335 0.98998 0.57344 0.0
C98 C 0.57919 0.02944 0.57477 0.0
C99 C 0.64562 0.07362 0.60099 0.0
C100 C 0.60483 0.0706 0.58892 0.0
C101 C 0.5379 0.0282 0.56144 0.0
C102 C 0.32463 0.00319 0.57725 0.0
C103 C 0.34039 0.04791 0.5896 0.0
C104 C 0.36279 -0.00221 0.56685 0.0
C105 C 0.41708 0.03665 0.56899 0.0
C106 C 0.39463 0.08648 0.59176 0.0
C107 C 0.43272 0.08052 0.58175 0.0
C108 C 0.45826 0.03166 0.55846 0.0
C109 C 0.37839 0.08023 0.51194 0.0
C110 C 0.36254 0.04975 0.49442 0.0
C111 C 0.40845 0.07209 0.52635 0.0
C112 C 0.42157 0.03197 0.52379 0.0
C113 C 0.37515 0.0095 0.49184 0.0
C114 C 0.40412 0.00049 0.50644 0.0
C115 C 0.45902 0.02712 0.53761 0.0
H116 H 0.71785 0.10441 0.5265 0.0
H117 H 0.64275 0.1019 0.54274 0.0
H118 H 0.61112 0.94993 0.49944 0.0
H119 H 0.53567 0.94886 0.51532 0.0
H120 H 0.64408 0.96187 0.58413 0.0
H121 H 0.57306 0.95697 0.56301 0.0
H122 H 0.66592 0.10688 0.6113 0.0
H123 H 0.59428 0.10129 0.59026 0.0
H124 H 0.28289 0.97304 0.57543 0.0
H125 H 0.35007 0.96329 0.55726 0.0
H126 H 0.40752 0.12111 0.60132 0.0
H127 H 0.47443 0.11071 0.58367 0.0
H128 H 0.37002 0.11228 0.51398 0.0
H129 H 0.42353 0.09911 0.53895 0.0
H130 H 0.36364 0.98592 0.4783 0.0
H131 H 0.41429 0.96989 0.5039 0.0
N132 N 0.49916 0.02278 0.52956 0.0
N133 N 0.49793 0.03243 0.56953 0.0
C134 C 0.39312 0.37446 0.8554 0.0
C135 C 0.37172 0.39697 0.84236 0.0
C136 C 0.43863 0.40756 0.86695 0.0
C137 C 0.46298 0.4636 0.86578 0.0
C138 C 0.39711 0.45309 0.841 0.0
C139 C 0.44219 0.48593 0.85255 0.0
C140 C 0.51118 0.50026 0.87752 0.0
C141 C 0.38222 0.40112 0.92178 0.0
C142 C 0.39901 0.38113 0.93763 0.0
C143 C 0.41931 0.44002 0.90905 0.0
C144 C 0.47384 0.45812 0.91135 0.0
C145 C 0.45391 0.40117 0.94027 0.0
C146 C 0.4906 0.43866 0.92723 0.0
C147 C 0.51492 0.49968 0.89844 0.0
C148 C 0.67671 0.6804 0.93792 0.0
C149 C 0.73004 0.69721 0.93386 0.0
C150 C 0.63555 0.64285 0.92573 0.0
C151 C 0.64653 0.62107 0.90918 0.0
C152 C 0.74108 0.67561 0.91719 0.0
C153 C 0.69972 0.63753 0.90509 0.0
C154 C 0.60145 0.57859 0.89745 0.0
C155 C 0.70947 0.63723 0.83987 0.0
C156 C 0.71711 0.68887 0.83706 0.0
C157 C 0.67131 0.60147 0.85298 0.0
C158 C 0.64126 0.6171 0.86404 0.0
C159 C 0.68681 0.70431 0.84836 0.0
C160 C 0.6495 0.66883 0.86184 0.0
C161 C 0.59846 0.57757 0.8766 0.0
H162 H 0.37448 0.33136 0.85679 0.0
H163 H 0.45472 0.38949 0.87677 0.0
H164 H 0.38263 0.47183 0.83078 0.0
H165 H 0.46078 0.52908 0.8512 0.0
H166 H 0.34043 0.38679 0.91908 0.0
H167 H 0.40516 0.45607 0.89757 0.0
H168 H 0.46905 0.38865 0.95261 0.0
H169 H 0.53249 0.4527 0.92967 0.0
H170 H 0.66647 0.69514 0.95084 0.0
H171 H 0.59484 0.63036 0.92937 0.0
H172 H 0.78168 0.68779 0.91354 0.0
H173 H 0.70946 0.62001 0.89293 0.0
H174 H 0.73272 0.62412 0.83189 0.0
H175 H 0.66523 0.56149 0.85452 0.0
H176 H 0.69058 0.74318 0.84641 0.0
H177 H 0.62594 0.68114 0.87009 0.0
N178 N 0.55333 0.53899 0.86748 0.0
N179 N 0.55979 0.53926 0.90747 0.0
H180 H -0.00045 0.16654 0.10464 0.0
H181 H 0.93125 0.20299 0.05356 0.0
H182 H 0.92411 0.27026 0.07327 0.0
H183 H 0.91739 0.18099 0.14146 0.0
H184 H 0.97042 0.211 0.15975 0.0
H185 H 0.96909 0.16436 0.14182 0.0
H186 H 0.06419 0.23541 0.13097 0.0
H187 H 0.0657 0.28236 0.14879 0.0
H188 H 0.07741 0.30048 0.12302 0.0
H189 H 0.92879 0.33679 0.09752 0.0
H190 H 0.94067 0.39595 0.12557 0.0
H191 H 0.00158 0.31423 0.16187 0.0
C192 C 0.98275 0.18839 0.09764 0.0
C193 C 0.96601 0.17937 0.0775 0.0
C194 C 0.94428 0.20893 0.06893 0.0
C195 C 0.9401 0.24738 0.08 0.0
C196 C 0.95743 0.25565 0.09968 0.0
C197 C 0.97791 0.2268 0.10853 0.0
C198 C 0.99383 0.24402 0.12996 0.0
C199 C 0.96069 0.19731 0.14408 0.0
C200 C 0.05385 0.26693 0.13338 0.0
C201 C 0.97963 0.28744 0.13164 0.0
C202 C 0.95881 0.29343 0.11396 0.0
C203 C 0.94425 0.33196 0.11155 0.0
C204 C 0.9508 0.36515 0.12769 0.0
C205 C 0.97127 0.35943 0.14615 0.0
C206 C 0.98595 0.31993 0.14802 0.0
H207 H 0.83401 4e-05 0.42296 0.0
H208 H 0.97555 0.08615 0.46021 0.0
H209 H 0.92002 0.08326 0.48801 0.0
H210 H 0.77304 0.0705 0.43967 0.0
H211 H 0.70602 0.01387 0.43847 0.0
H212 H 0.75578 0.01662 0.42232 0.0
H213 H 0.73717 0.92452 0.43537 0.0
H214 H 0.68724 0.92148 0.45157 0.0
H215 H 0.74147 0.91534 0.46161 0.0
H216 H 0.84992 0.07423 0.51121 0.0
H217 H 0.77119 0.06531 0.5277 0.0
H218 H 0.67599 0.9916 0.47443 0.0
C219 C 0.85307 0.01721 0.43711 0.0
C220 C 0.90891 0.04268 0.43959 0.0
C221 C 0.93275 0.06617 0.4581 0.0
C222 C 0.90154 0.06454 0.47397 0.0
C223 C 0.84664 0.03983 0.47098 0.0
C224 C 0.82259 0.01689 0.45298 0.0
C225 C 0.76349 -0.00283 0.45316 0.0
C226 C 0.74874 0.02629 0.43748 0.0
C227 C 0.7304 0.93599 0.45026 0.0
C228 C 0.75823 0.0132 0.47397 0.0
C229 C 0.80651 0.03696 0.48408 0.0
C230 C 0.81192 0.05585 0.50342 0.0
C231 C 0.76696 0.05102 0.51259 0.0
C232 C 0.71725 0.02829 0.50235 0.0
C233 C 0.71303 0.00859 0.48282 0.0
H234 H 0.91247 0.97146 0.78758 0.0
H235 H 0.92354 0.88516 0.73715 0.0
H236 H 0.86713 0.79925 0.75439 0.0
H237 H 0.91664 0.88391 0.8256 0.0
H238 H 0.87041 0.89013 0.84114 0.0
H239 H 0.91344 0.94443 0.8251 0.0
H240 H 0.83111 0.94248 0.80915 0.0
H241 H 0.78781 0.88797 0.82502 0.0
H242 H 0.7783 0.88074 0.79852 0.0
H243 H 0.80307 0.72289 0.77608 0.0
H244 H 0.74146 0.66215 0.80115 0.0
H245 H 0.77843 0.79951 0.83838 0.0
C246 C 0.90342 0.93455 0.78018 0.0
C247 C 0.9222 0.93494 0.76098 0.0
C248 C 0.90969 0.88579 0.75188 0.0
C249 C 0.87761 0.83685 0.76154 0.0
C250 C 0.85911 0.83796 0.78035 0.0
C251 C 0.87213 0.88562 0.78967 0.0
C252 C 0.84674 0.87604 0.80978 0.0
C253 C 0.88936 0.90004 0.82639 0.0
C254 C 0.80874 0.89811 0.81065 0.0
C255 C 0.81653 0.81541 0.81022 0.0
C256 C 0.824 0.79417 0.79311 0.0
C257 C 0.79777 0.73908 0.78971 0.0
C258 C 0.76306 0.70483 0.80418 0.0
C259 C 0.75519 0.72565 0.82201 0.0
C260 C 0.78287 0.78188 0.82497 0.0
H261 H 0.97351 0.92701 0.11519 0.0
H262 H 0.14368 0.03104 0.10757 0.0
H263 H 0.16056 0.97784 0.13214 0.0
H264 H 0.9784 0.90096 0.16869 0.0
H265 H 0.92555 0.83202 0.16623 0.0
H266 H 0.92718 0.88217 0.14992 0.0
H267 H 0.92439 0.82619 0.11955 0.0
H268 H 0.92322 0.77616 0.13572 0.0
H269 H 0.97429 0.80745 0.11741 0.0
H270 H 0.15866 0.90871 0.15513 0.0
H271 H 0.13832 0.82887 0.17483 0.0
H272 H 0.96923 0.76969 0.16746 0.0
C273 C 0.01437 0.93939 0.11903 0.0
C274 C 0.05733 0.98342 0.10958 0.0
C275 C 0.11018 -0.00237 0.11471 0.0
C276 C 0.12016 0.9677 0.12866 0.0
C277 C 0.07685 0.92375 0.13736 0.0
C278 C 0.025 0.90976 0.13281 0.0
C279 C 0.98552 0.85852 0.14315 0.0
C280 C 0.95221 0.86907 0.15788 0.0
C281 C 0.94977 0.8145 0.12805 0.0
C282 C 0.02325 0.84513 0.15382 0.0
C283 C 0.07574 0.88358 0.15048 0.0
C284 C 0.11772 0.87876 0.1581 0.0
C285 C 0.10573 0.83333 0.16935 0.0
C286 C 0.05216 0.79308 0.17282 0.0
C287 C 0.01056 0.79957 0.16503 0.0
H288 H 0.1368 0.07785 0.43657 0.0
H289 H 0.24708 0.14426 0.38783 0.0
H290 H 0.31465 0.13715 0.40763 0.0
H291 H 0.23801 0.14504 0.4761 0.0
H292 H 0.20612 0.08854 0.49254 0.0
H293 H 0.16676 0.10094 0.47487 0.0
H294 H 0.12738 0.00465 0.46083 0.0
H295 H 0.16693 0.9921 0.47832 0.0
H296 H 0.1717 0.98315 0.45217 0.0
H297 H 0.36734 0.11559 0.43115 0.0
H298 H 0.40577 0.08923 0.45878 0.0
H299 H 0.26471 0.04177 0.49326 0.0
C300 C 0.17539 0.09152 0.43016 0.0
C301 C 0.1865 0.11155 0.4106 0.0
C302 C 0.23754 0.12897 0.40278 0.0
C303 C 0.27623 0.12495 0.41388 0.0
C304 C 0.26367 0.10411 0.43291 0.0
C305 C 0.2149 0.08847 0.44116 0.0
C306 C 0.21182 0.06719 0.46196 0.0
C307 C 0.2053 0.10255 0.47727 0.0
C308 C 0.16679 0.00828 0.46339 0.0
C309 C 0.26609 0.07243 0.46391 0.0
C310 C 0.29515 0.09351 0.44689 0.0
C311 C 0.34534 0.09973 0.44466 0.0
C312 C 0.3667 0.08445 0.46032 0.0
C313 C 0.33813 0.06383 0.478 0.0
C314 C 0.28732 0.05791 0.47987 0.0
H315 H 0.19157 0.16131 0.76568 0.0
H316 H 0.09359 0.23355 0.7587 0.0
H317 H 0.14829 0.3013 0.78425 0.0
H318 H 0.21463 0.18181 0.8186 0.0
H319 H 0.28275 0.19755 0.81744 0.0
H320 H 0.23458 0.1533 0.79923 0.0
H321 H 0.29415 0.21432 0.77106 0.0
H322 H 0.34263 0.25851 0.78917 0.0
H323 H 0.31528 0.28464 0.77128 0.0
H324 H 0.21355 0.361 0.81039 0.0
H325 H 0.28869 0.41274 0.83368 0.0
H326 H 0.34661 0.30393 0.82247 0.0
C327 C 0.18143 0.1912 0.76961 0.0
C328 C 0.13821 0.19211 0.7603 0.0
C329 C 0.12658 0.23221 0.76565 0.0
C330 C 0.15724 0.27065 0.7802 0.0
C331 C 0.19951 0.26855 0.78913 0.0
C332 C 0.21192 0.23016 0.78393 0.0
C333 C 0.26089 0.23825 0.79513 0.0
C334 C 0.24738 0.18984 0.80839 0.0
C335 C 0.30589 0.24962 0.7808 0.0
C336 C 0.27424 0.28737 0.80738 0.0
C337 C 0.23802 0.30386 0.80383 0.0
C338 C 0.2423 0.34862 0.81323 0.0
C339 C 0.2853 0.3779 0.82635 0.0
C340 C 0.32386 0.36269 0.82981 0.0
C341 C 0.31759 0.31629 0.82035 0.0
H342 H 0.84368 0.09514 0.69655 0.0
H343 H 0.94106 0.05249 0.66192 0.0
H344 H 0.8827 0.03588 0.63281 0.0
H345 H 0.71797 0.99568 0.67528 0.0
H346 H 0.68981 0.03843 0.67547 0.0
H347 H 0.73986 0.04817 0.69365 0.0
H348 H 0.79788 0.14743 0.68301 0.0
H349 H 0.74799 0.13798 0.6648 0.0
H350 H 0.81561 0.16278 0.65737 0.0
H351 H 0.81435 0.02377 0.60745 0.0
H352 H 0.73955 0.01651 0.58742 0.0
H353 H 0.68474 0.06438 0.63856 0.0
C354 C 0.85287 0.08254 0.68283 0.0
C355 C 0.89704 0.0752 0.68155 0.0
C356 C 0.90745 0.05834 0.66332 0.0
C357 C 0.87457 0.04883 0.64666 0.0
C358 C 0.83131 0.0562 0.64844 0.0
C359 C 0.82027 0.0726 0.66603 0.0
C360 C 0.77073 0.07674 0.66396 0.0
C361 C 0.72701 0.0374 0.67792 0.0
C362 C 0.78386 0.13468 0.66749 0.0
C363 C 0.7558 0.06015 0.64247 0.0
C364 C 0.79134 0.04857 0.63381 0.0
C365 C 0.78605 0.03248 0.61407 0.0
C366 C 0.7432 0.0281 0.60286 0.0
C367 C 0.70604 0.03955 0.61142 0.0
C368 C 0.71268 0.05581 0.63152 0.0
H369 H 0.87314 0.94029 0.01139 0.0
H370 H -0.00251 0.90097 0.01814 0.0
H371 H 0.95107 0.82762 0.99367 0.0
H372 H 0.76315 0.80514 0.00579 0.0
H373 H 0.72895 0.82226 0.98739 0.0
H374 H 0.77164 0.87129 0.00564 0.0
H375 H 0.8257 0.93738 0.97766 0.0
H376 H 0.78323 0.88849 0.95933 0.0
H377 H 0.85427 0.91644 0.95873 0.0
H378 H 0.89052 0.75768 0.96895 0.0
H379 H 0.82025 0.69629 0.94545 0.0
H380 H 0.73793 0.78438 0.95342 0.0
C381 C 0.89043 0.91606 0.00778 0.0
C382 C 0.93879 0.92615 0.0167 0.0
C383 C 0.96046 0.89393 0.01147 0.0
C384 C 0.93442 0.85218 -0.00241 0.0
C385 C 0.88698 0.84347 0.98898 0.0
C386 C 0.86524 0.87455 0.9938 0.0
C387 C 0.81418 0.85722 0.98216 0.0
C388 C 0.76668 0.83782 0.99608 0.0
C389 C 0.81971 0.90259 0.96867 0.0
C390 C 0.81043 0.81126 0.97018 0.0
C391 C 0.85276 0.80396 0.97435 0.0
C392 C 0.85739 0.76328 0.96542 0.0
C393 C 0.81744 0.72887 0.95195 0.0
C394 C 0.77353 0.7355 0.94744 0.0
C395 C 0.77054 0.7777 0.95664 0.0
H396 H 0.08278 0.96827 0.33059 0.0
H397 H 0.93294 0.88409 0.36152 0.0
H398 H 0.91302 0.79923 0.34519 0.0
H399 H 0.03768 0.89869 0.28495 0.0
H400 H 0.09773 0.89736 0.28054 0.0
H401 H 0.1005 0.95072 0.2951 0.0
H402 H 0.14511 0.92841 0.32412 0.0
H403 H 0.14252 0.87495 0.30964 0.0
H404 H 0.1129 0.86116 0.33376 0.0
H405 H 0.90692 0.72527 0.32342 0.0
H406 H 0.91794 0.66666 0.29966 0.0
H407 H 0.07405 0.79874 0.28474 0.0
C408 C 0.0458 0.93197 0.33399 0.0
C409 C 0.00918 0.93272 0.34721 0.0
C410 C 0.96154 0.88431 0.35144 0.0
C411 C 0.94989 0.83603 0.34222 0.0
C412 C 0.98674 0.83686 0.32911 0.0
C413 C 0.03402 0.88349 0.3252 0.0
C414 C 0.06701 0.87383 0.31056 0.0
C415 C 0.07624 0.90712 0.29167 0.0
C416 C 0.12002 0.88526 0.3201 0.0
C417 C 0.03049 0.81459 0.30651 0.0
C418 C 0.98425 0.79398 0.31728 0.0
C419 C 0.94325 0.74079 0.31514 0.0
C420 C 0.94973 0.70792 0.30162 0.0
C421 C -0.00298 0.7283 0.29065 0.0
C422 C 0.03797 0.78212 0.29326 0.0
H423 H 0.13479 -0.00115 0.67502 0.0
H424 H 0.1429 0.14596 0.65575 0.0
H425 H 0.19984 0.15252 0.62813 0.0
H426 H 0.26865 0.03888 0.66482 0.0
H427 H 0.25421 0.97402 0.65605 0.0
H428 H 0.21133 0.97879 0.67376 0.0
H429 H 0.13021 0.92416 0.65019 0.0
H430 H 0.17292 0.91929 0.63238 0.0
H431 H 0.13203 0.94683 0.62516 0.0
H432 H 0.26102 0.14764 0.60429 0.0
H433 H 0.32165 0.12974 0.58494 0.0
H434 H 0.27217 0.9843 0.61835 0.0
C435 C 0.14818 0.03214 0.66488 0.0
C436 C 0.13438 0.0719 0.66757 0.0
C437 C 0.15287 0.11497 0.65401 0.0
C438 C 0.18518 0.11904 0.63823 0.0
C439 C 0.19839 0.07952 0.63606 0.0
C440 C 0.18033 0.03669 0.6489 0.0
C441 C 0.20194 0.00068 0.64348 0.0
C442 C 0.23606 -0.00203 0.66054 0.0
C443 C 0.15656 0.9444 0.63744 0.0
C444 C 0.23573 0.03063 0.62587 0.0
C445 C 0.23293 0.07594 0.62185 0.0
C446 C 0.26299 0.11189 0.60707 0.0
C447 C 0.29726 0.10153 0.5962 0.0
C448 C 0.30076 0.05545 0.60008 0.0
C449 C 0.26918 0.01922 0.61492 0.0
H450 H 0.12901 0.22599 -0.00137 0.0
H451 H 0.19133 0.13275 0.02564 0.0
H452 H 0.27395 0.18359 0.00649 0.0
H453 H 0.18055 0.23714 0.95074 0.0
H454 H 0.19748 0.30565 0.94701 0.0
H455 H 0.1437 0.26279 0.96307 0.0
H456 H 0.18859 0.33109 0.99193 0.0
H457 H 0.24217 0.3745 0.97587 0.0
H458 H 0.25647 0.35295 -0.00096 0.0
H459 H 0.34521 0.23832 0.98194 0.0
H460 H 0.40635 0.30159 0.95742 0.0
H461 H 0.30201 0.36669 0.94942 0.0
C462 C 0.1603 0.21666 0.00061 0.0
C463 C 0.15394 0.1754 0.0135 0.0
C464 C 0.19573 0.16447 0.0159 0.0
C465 C 0.24255 0.19288 0.00501 0.0
C466 C 0.24721 0.23273 0.99216 0.0
C467 C 0.20775 0.24547 0.99025 0.0
C468 C 0.22327 0.29099 0.9758 0.0
C469 C 0.1839 0.27304 0.95811 0.0
C470 C 0.22792 0.34031 0.98629 0.0
C471 C 0.27719 0.30113 0.96957 0.0
C472 C 0.28995 0.26671 0.979 0.0
C473 C 0.33631 0.26644 0.97483 0.0
C474 C 0.37108 0.30303 0.96093 0.0
C475 C 0.36008 0.34044 0.9516 0.0
C476 C 0.31205 0.33888 0.95603 0.0
H477 H 0.03884 0.23147 0.35336 0.0
H478 H 0.92197 0.07838 0.32724 0.0
H479 H 0.91252 0.12521 0.29827 0.0
H480 H 0.97217 0.30234 0.3375 0.0
H481 H 0.03343 0.36429 0.3331 0.0
H482 H 0.03151 0.3185 0.35161 0.0
H483 H 0.10903 0.3162 0.33436 0.0
H484 H 0.11083 0.3616 0.31569 0.0
H485 H 0.10237 0.29777 0.30853 0.0
H486 H 0.91909 0.18836 0.27143 0.0
H487 H 0.93451 0.26374 0.25001 0.0
H488 H 0.04119 0.37598 0.29497 0.0
C489 C 0.01122 0.20789 0.34154 0.0
C490 C 0.98132 0.15134 0.34247 0.0
C491 C 0.94519 0.12179 0.32684 0.0
C492 C 0.93971 0.14798 0.31028 0.0
C493 C 0.9701 0.20375 0.30973 0.0
C494 C 0.00455 0.23344 0.32506 0.0
C495 C 0.0312 0.29302 0.32105 0.0
C496 C 0.01616 0.32118 0.33674 0.0
C497 C 0.09196 0.31863 0.31984 0.0
C498 C 0.00671 0.29209 0.30099 0.0
C499 C 0.972 0.24023 0.29464 0.0
C500 C 0.94563 0.22923 0.27636 0.0
C501 C 0.95441 0.27245 0.26434 0.0
C502 C 0.98874 0.32619 0.27075 0.0
C503 C 0.01525 0.33569 0.28936 0.0
loop_
_geom_bond_atom_site_label_1
_geom_bond_atom_site_label_2
_geom_bond_distance
_geom_bond_site_symmetry_2
_ccdc_geom_bond_type
C0 O1 1.306 1_455 S
C0 O3 1.160 . S
O1 C0 1.306 1_655 S
O1 Cd2 2.228 . S
Cd2 O1 2.228 . S
Cd2 O6 2.273 . S
Cd2 O10 2.277 1_655 S
O3 C0 1.160 . S
O3 Cd4 2.203 . S
Cd4 O3 2.203 . S
Cd4 O6 2.411 1_455 S
Cd4 O7 2.333 1_545 S
Cd4 O8 2.352 1_545 S
Cd4 O12 2.277 . S
Cd4 O13 2.349 1_545 S
C5 O10 1.209 . S
C5 O12 1.226 . S
O6 Cd2 2.273 . S
O6 Cd4 2.411 1_655 S
O6 C9 1.320 1_545 S
O7 Cd4 2.333 1_565 S
O7 C9 1.214 1_455 S
O8 Cd4 2.352 1_565 S
O8 C11 1.258 . S
C9 O6 1.320 1_565 S
C9 O7 1.214 1_655 S
O10 Cd2 2.277 1_455 S
O10 C5 1.209 . S
C11 O8 1.258 . S
C11 O13 1.283 . S
O12 Cd4 2.277 . S
O12 C5 1.226 . S
O13 Cd4 2.349 1_565 S
O13 C11 1.283 . S
C14 O15 1.306 . S
C14 O17 1.160 . S
O15 C14 1.306 . S
O15 Cd16 2.228 . S
Cd16 O15 2.228 . S
Cd16 O20 2.273 . S
Cd16 O24 2.277 . S
O17 C14 1.160 . S
O17 Cd18 2.203 . S
Cd18 O17 2.203 . S
Cd18 O20 2.411 . S
Cd18 O21 2.333 1_455 S
Cd18 O22 2.352 1_455 S
Cd18 O26 2.277 1_445 S
Cd18 O27 2.356 1_455 S
C19 O24 1.209 1_565 S
C19 O26 1.226 1_455 S
O20 Cd16 2.273 . S
O20 Cd18 2.411 . S
O20 C23 1.320 . S
O21 Cd18 2.333 1_655 S
O21 C23 1.214 1_655 S
O22 Cd18 2.352 1_655 S
O22 C25 1.258 . S
C23 O20 1.320 . S
C23 O21 1.214 1_455 S
O24 Cd16 2.277 . S
O24 C19 1.209 1_545 S
C25 O22 1.258 . S
C25 O27 1.282 . S
O26 Cd18 2.277 1_665 S
O26 C19 1.226 1_655 S
O27 Cd18 2.356 1_655 S
O27 C25 1.282 . S
C28 O29 1.306 . S
C28 O31 1.160 . S
O29 C28 1.306 . S
O29 Cd30 2.228 . S
Cd30 O29 2.228 . S
Cd30 O34 2.273 1_655 S
Cd30 O38 2.277 . S
O31 C28 1.160 . S
O31 Cd32 2.203 1_655 S
Cd32 O31 2.203 1_455 S
Cd32 O34 2.411 . S
Cd32 O35 2.333 . S
Cd32 O36 2.352 . S
Cd32 O40 2.277 1_445 S
Cd32 O41 2.356 . S
C33 O38 1.209 1_565 S
C33 O40 1.226 . S
O34 Cd30 2.273 1_455 S
O34 Cd32 2.411 . S
O34 C37 1.320 . S
O35 Cd32 2.333 . S
O35 C37 1.214 . S
O36 Cd32 2.352 . S
O36 C39 1.258 . S
C37 O34 1.320 . S
C37 O35 1.214 . S
O38 Cd30 2.277 . S
O38 C33 1.209 1_545 S
C39 O36 1.258 . S
C39 O41 1.282 . S
O40 Cd32 2.277 1_665 S
O40 C33 1.226 . S
O41 Cd32 2.356 . S
O41 C39 1.282 . S
C42 C43 1.384 . S
C42 C44 1.384 . S
C42 H70 0.931 1_455 S
C43 C42 1.384 . S
C43 C46 1.382 . S
C44 C42 1.384 . S
C44 C45 1.381 . S
C44 H71 0.930 1_455 S
C45 C44 1.381 . S
C45 C47 1.381 . S
C45 C48 1.487 . S
C46 C43 1.382 . S
C46 C47 1.387 . S
C46 H72 0.930 . S
C47 C45 1.381 . S
C47 C46 1.387 . S
C47 H73 0.931 . S
C48 C45 1.487 . S
C48 C55 1.399 . S
C48 N86 1.343 . S
C49 C50 1.384 . S
C49 C51 1.384 . S
C49 H74 0.931 . S
C50 C49 1.384 . S
C50 C53 1.382 . S
C51 C49 1.384 . S
C51 C52 1.381 . S
C51 H75 0.930 . S
C52 C51 1.381 . S
C52 C54 1.381 . S
C52 C55 1.487 . S
C53 C50 1.382 . S
C53 C54 1.387 . S
C53 H76 0.930 1_455 S
C54 C52 1.381 . S
C54 C53 1.387 . S
C54 H77 0.931 1_455 S
C55 C48 1.399 . S
C55 C52 1.487 . S
C55 N87 1.343 . S
C56 C57 1.384 . S
C56 C58 1.384 . S
C56 H78 0.931 . S
C57 C56 1.384 . S
C57 C60 1.382 . S
C58 C56 1.384 . S
C58 C59 1.381 . S
C58 H79 0.930 . S
C59 C58 1.381 . S
C59 C61 1.381 . S
C59 C62 1.487 . S
C60 C57 1.382 . S
C60 C61 1.387 . S
C60 H80 0.930 1_455 S
C61 C59 1.381 . S
C61 C60 1.387 . S
C61 H81 0.931 1_455 S
C62 C59 1.487 . S
C62 C69 1.399 . S
C62 N87 1.343 . S
C63 C64 1.384 . S
C63 C65 1.384 . S
C63 H82 0.931 1_455 S
C64 C63 1.384 . S
C64 C67 1.382 . S
C65 C63 1.384 . S
C65 C66 1.381 . S
C65 H83 0.930 1_455 S
C66 C65 1.381 . S
C66 C68 1.381 . S
C66 C69 1.487 . S
C67 C64 1.382 . S
C67 C68 1.387 . S
C67 H84 0.930 . S
C68 C66 1.381 . S
C68 C67 1.387 . S
C68 H85 0.931 . S
C69 C62 1.399 . S
C69 C66 1.487 . S
C69 N86 1.343 . S
H70 C42 0.931 1_655 S
H71 C44 0.930 1_655 S
H72 C46 0.930 . S
H73 C47 0.931 . S
H74 C49 0.931 . S
H75 C51 0.930 . S
H76 C53 0.930 1_655 S
H77 C54 0.931 1_655 S
H78 C56 0.931 . S
H79 C58 0.930 . S
H80 C60 0.930 1_655 S
H81 C61 0.931 1_655 S
H82 C63 0.931 1_655 S
H83 C65 0.930 1_655 S
H84 C67 0.930 . S
H85 C68 0.931 . S
N86 C48 1.343 . S
N86 C69 1.343 . S
N87 C55 1.343 . S
N87 C62 1.343 . S
C88 C89 1.384 . S
C88 C90 1.384 . S
C88 H116 0.931 . S
C89 C88 1.384 . S
C89 C92 1.382 . S
C90 C88 1.384 . S
C90 C91 1.381 . S
C90 H117 0.930 . S
C91 C90 1.381 . S
C91 C93 1.381 . S
C91 C94 1.487 . S
C92 C89 1.382 . S
C92 C93 1.387 . S
C92 H118 0.930 1_545 S
C93 C91 1.381 . S
C93 C92 1.387 . S
C93 H119 0.931 1_545 S
C94 C91 1.487 . S
C94 C101 1.399 . S
C94 N132 1.343 . S
C95 C96 1.384 . S
C95 C97 1.384 . S
C95 H120 0.931 1_545 S
C96 C95 1.384 . S
C96 C99 1.382 . S
C97 C95 1.384 . S
C97 C98 1.381 . S
C97 H121 0.930 1_545 S
C98 C97 1.381 . S
C98 C100 1.381 . S
C98 C101 1.487 . S
C99 C96 1.382 . S
C99 C100 1.387 . S
C99 H122 0.930 . S
C100 C98 1.381 . S
C100 C99 1.387 . S
C100 H123 0.931 . S
C101 C94 1.399 . S
C101 C98 1.487 . S
C101 N133 1.343 . S
C102 C103 1.384 . S
C102 C104 1.384 . S
C102 H124 0.931 1_545 S
C103 C102 1.384 . S
C103 C106 1.382 . S
C104 C102 1.384 . S
C104 C105 1.381 . S
C104 H125 0.930 1_545 S
C105 C104 1.381 . S
C105 C107 1.381 . S
C105 C108 1.487 . S
C106 C103 1.382 . S
C106 C107 1.387 . S
C106 H126 0.930 . S
C107 C105 1.381 . S
C107 C106 1.387 . S
C107 H127 0.931 . S
C108 C105 1.487 . S
C108 C115 1.399 . S
C108 N133 1.343 . S
C109 C110 1.384 . S
C109 C111 1.384 . S
C109 H128 0.931 . S
C110 C109 1.384 . S
C110 C113 1.382 . S
C111 C109 1.384 . S
C111 C112 1.381 . S
C111 H129 0.930 . S
C112 C111 1.381 . S
C112 C114 1.381 . S
C112 C115 1.487 . S
C113 C110 1.382 . S
C113 C114 1.387 . S
C113 H130 0.930 1_545 S
C114 C112 1.381 . S
C114 C113 1.387 . S
C114 H131 0.931 1_545 S
C115 C108 1.399 . S
C115 C112 1.487 . S
C115 N132 1.343 . S
H116 C88 0.931 . S
H117 C90 0.930 . S
H118 C92 0.930 1_565 S
H119 C93 0.931 1_565 S
H120 C95 0.931 1_565 S
H121 C97 0.930 1_565 S
H122 C99 0.930 . S
H123 C100 0.931 . S
H124 C102 0.931 1_565 S
H125 C104 0.930 1_565 S
H126 C106 0.930 . S
H127 C107 0.931 . S
H128 C109 0.931 . S
H129 C111 0.930 . S
H130 C113 0.930 1_565 S
H131 C114 0.931 1_565 S
N132 C94 1.343 . S
N132 C115 1.343 . S
N133 C101 1.343 . S
N133 C108 1.343 . S
C134 C135 1.384 . S
C134 C136 1.384 . S
C134 H162 0.931 . S
C135 C134 1.384 . S
C135 C138 1.382 . S
C136 C134 1.384 . S
C136 C137 1.381 . S
C136 H163 0.930 . S
C137 C136 1.381 . S
C137 C139 1.381 . S
C137 C140 1.487 . S
C138 C135 1.382 . S
C138 C139 1.387 . S
C138 H164 0.930 . S
C139 C137 1.381 . S
C139 C138 1.387 . S
C139 H165 0.931 . S
C140 C137 1.487 . S
C140 C147 1.399 . S
C140 N178 1.343 . S
C141 C142 1.384 . S
C141 C143 1.384 . S
C141 H166 0.931 . S
C142 C141 1.384 . S
C142 C145 1.382 . S
C143 C141 1.384 . S
C143 C144 1.381 . S
C143 H167 0.930 . S
C144 C143 1.381 . S
C144 C146 1.381 . S
C144 C147 1.487 . S
C145 C142 1.382 . S
C145 C146 1.387 . S
C145 H168 0.930 . S
C146 C144 1.381 . S
C146 C145 1.387 . S
C146 H169 0.931 . S
C147 C140 1.399 . S
C147 C144 1.487 . S
C147 N179 1.343 . S
C148 C149 1.384 . S
C148 C150 1.384 . S
C148 H170 0.931 . S
C149 C148 1.384 . S
C149 C152 1.382 . S
C150 C148 1.384 . S
C150 C151 1.381 . S
C150 H171 0.930 . S
C151 C150 1.381 . S
C151 C153 1.381 . S
C151 C154 1.487 . S
C152 C149 1.382 . S
C152 C153 1.387 . S
C152 H172 0.930 . S
C153 C151 1.381 . S
C153 C152 1.387 . S
C153 H173 0.931 . S
C154 C151 1.487 . S
C154 C161 1.399 . S
C154 N179 1.343 . S
C155 C156 1.384 . S
C155 C157 1.384 . S
C155 H174 0.931 . S
C156 C155 1.384 . S
C156 C159 1.382 . S
C157 C155 1.384 . S
C157 C158 1.381 . S
C157 H175 0.930 . S
C158 C157 1.381 . S
C158 C160 1.381 . S
C158 C161 1.487 . S
C159 C156 1.382 . S
C159 C160 1.387 . S
C159 H176 0.930 . S
C160 C158 1.381 . S
C160 C159 1.387 . S
C160 H177 0.931 . S
C161 C154 1.399 . S
C161 C158 1.487 . S
C161 N178 1.343 . S
H162 C134 0.931 . S
H163 C136 0.930 . S
H164 C138 0.930 . S
H165 C139 0.931 . S
H166 C141 0.931 . S
H167 C143 0.930 . S
H168 C145 0.930 . S
H169 C146 0.931 . S
H170 C148 0.931 . S
H171 C150 0.930 . S
H172 C152 0.930 . S
H173 C153 0.931 . S
H174 C155 0.931 . S
H175 C157 0.930 . S
H176 C159 0.930 . S
H177 C160 0.931 . S
N178 C140 1.343 . S
N178 C161 1.343 . S
N179 C147 1.343 . S
N179 C154 1.343 . S
H180 C192 0.930 . S
H181 C194 0.930 . S
H182 C195 0.930 . S
H183 C199 0.959 . S
H184 C199 0.959 . S
H185 C199 0.961 . S
H186 C200 0.960 . S
H187 C200 0.961 . S
H188 C200 0.959 . S
H189 C203 0.929 . S
H190 C204 0.931 . S
H191 C206 0.930 . S
C192 H180 0.930 . S
C192 C193 1.399 . S
C192 C197 1.399 . S
C193 C192 1.399 . S
C193 C194 1.376 . S
C194 H181 0.930 . S
C194 C193 1.376 . S
C194 C195 1.388 . S
C195 H182 0.930 . S
C195 C194 1.388 . S
C195 C196 1.390 . S
C196 C195 1.390 . S
C196 C197 1.394 . S
C196 C202 1.465 . S
C197 C192 1.399 . S
C197 C196 1.394 . S
C197 C198 1.516 . S
C198 C197 1.516 . S
C198 C199 1.502 1_455 S
C198 C200 1.561 . S
C198 C201 1.526 . S
C199 H183 0.959 . S
C199 H184 0.959 . S
C199 H185 0.961 . S
C199 C198 1.502 1_655 S
C200 H186 0.960 . S
C200 H187 0.961 . S
C200 H188 0.959 . S
C200 C198 1.561 . S
C201 C198 1.526 . S
C201 C202 1.396 . S
C201 C206 1.390 . S
C202 C196 1.465 . S
C202 C201 1.396 . S
C202 C203 1.399 . S
C203 H189 0.929 . S
C203 C202 1.399 . S
C203 C204 1.385 . S
C204 H190 0.931 . S
C204 C203 1.385 . S
C204 C205 1.389 . S
C205 C204 1.389 . S
C205 C206 1.387 . S
C206 H191 0.930 . S
C206 C201 1.390 . S
C206 C205 1.387 . S
H207 C219 0.930 . S
H208 C221 0.930 1_565 S
H209 C222 0.930 1_565 S
H210 C226 0.959 . S
H211 C226 0.959 . S
H212 C226 0.961 . S
H213 C227 0.960 . S
H214 C227 0.961 . S
H215 C227 0.959 1_565 S
H216 C230 0.929 1_565 S
H217 C231 0.931 . S
H218 C233 0.930 . S
C219 H207 0.930 . S
C219 C220 1.399 . S
C219 C224 1.399 . S
C220 C219 1.399 . S
C220 C221 1.376 . S
C221 H208 0.930 1_545 S
C221 C220 1.376 . S
C221 C222 1.388 . S
C222 H209 0.930 1_545 S
C222 C221 1.388 . S
C222 C223 1.390 . S
C223 C222 1.390 . S
C223 C224 1.394 . S
C223 C229 1.465 . S
C224 C219 1.399 . S
C224 C223 1.394 . S
C224 C225 1.516 . S
C225 C224 1.516 . S
C225 C226 1.502 . S
C225 C227 1.561 . S
C225 C228 1.526 . S
C226 H210 0.959 . S
C226 H211 0.959 . S
C226 H212 0.961 . S
C226 C225 1.502 . S
C227 H213 0.960 . S
C227 H214 0.961 . S
C227 H215 0.959 1_545 S
C227 C225 1.561 . S
C228 C225 1.526 . S
C228 C229 1.396 . S
C228 C233 1.390 . S
C229 C223 1.465 . S
C229 C228 1.396 . S
C229 C230 1.399 . S
C230 H216 0.929 1_545 S
C230 C229 1.399 . S
C230 C231 1.385 . S
C231 H217 0.931 . S
C231 C230 1.385 . S
C231 C232 1.389 . S
C232 C231 1.389 . S
C232 C233 1.387 . S
C233 H218 0.930 . S
C233 C228 1.390 . S
C233 C232 1.387 . S
H234 C246 0.930 . S
H235 C248 0.930 . S
H236 C249 0.930 . S
H237 C253 0.959 . S
H238 C253 0.959 . S
H239 C253 0.961 . S
H240 C254 0.960 . S
H241 C254 0.961 . S
H242 C254 0.959 . S
H243 C257 0.929 . S
H244 C258 0.931 . S
H245 C260 0.930 . S
C246 H234 0.930 . S
C246 C247 1.399 . S
C246 C251 1.399 . S
C247 C246 1.399 . S
C247 C248 1.376 . S
C248 H235 0.930 . S
C248 C247 1.376 . S
C248 C249 1.388 . S
C249 H236 0.930 . S
C249 C248 1.388 . S
C249 C250 1.390 . S
C250 C249 1.390 . S
C250 C251 1.394 . S
C250 C256 1.465 . S
C251 C246 1.399 . S
C251 C250 1.394 . S
C251 C252 1.516 . S
C252 C251 1.516 . S
C252 C253 1.502 . S
C252 C254 1.561 . S
C252 C255 1.526 . S
C253 H237 0.959 . S
C253 H238 0.959 . S
C253 H239 0.961 . S
C253 C252 1.502 . S
C254 H240 0.960 . S
C254 H241 0.961 . S
C254 H242 0.959 . S
C254 C252 1.561 . S
C255 C252 1.526 . S
C255 C256 1.396 . S
C255 C260 1.390 . S
C256 C250 1.465 . S
C256 C255 1.396 . S
C256 C257 1.399 . S
C257 H243 0.929 . S
C257 C256 1.399 . S
C257 C258 1.385 . S
C258 H244 0.931 . S
C258 C257 1.385 . S
C258 C259 1.389 . S
C259 C258 1.389 . S
C259 C260 1.387 . S
C260 H245 0.930 . S
C260 C255 1.390 . S
C260 C259 1.387 . S
H261 C273 0.930 1_655 S
H262 C275 0.930 . S
H263 C276 0.930 . S
H264 C280 0.959 . S
H265 C280 0.959 . S
H266 C280 0.961 . S
H267 C281 0.960 . S
H268 C281 0.961 . S
H269 C281 0.959 . S
H270 C284 0.929 . S
H271 C285 0.931 . S
H272 C287 0.930 1_655 S
C273 H261 0.930 1_455 S
C273 C274 1.399 . S
C273 C278 1.399 . S
C274 C273 1.399 . S
C274 C275 1.376 . S
C275 H262 0.930 . S
C275 C274 1.376 . S
C275 C276 1.388 . S
C276 H263 0.930 . S
C276 C275 1.388 . S
C276 C277 1.390 . S
C277 C276 1.390 . S
C277 C278 1.394 . S
C277 C283 1.465 . S
C278 C273 1.399 . S
C278 C277 1.394 . S
C278 C279 1.516 1_455 S
C279 C278 1.516 1_655 S
C279 C280 1.502 . S
C279 C281 1.561 . S
C279 C282 1.526 1_655 S
C280 H264 0.959 . S
C280 H265 0.959 . S
C280 H266 0.961 . S
C280 C279 1.502 . S
C281 H267 0.960 . S
C281 H268 0.961 . S
C281 H269 0.959 . S
C281 C279 1.561 . S
C282 C279 1.526 1_455 S
C282 C283 1.396 . S
C282 C287 1.390 . S
C283 C277 1.465 . S
C283 C282 1.396 . S
C283 C284 1.399 . S
C284 H270 0.929 . S
C284 C283 1.399 . S
C284 C285 1.385 . S
C285 H271 0.931 . S
C285 C284 1.385 . S
C285 C286 1.389 . S
C286 C285 1.389 . S
C286 C287 1.387 . S
C287 H272 0.930 1_455 S
C287 C282 1.390 . S
C287 C286 1.387 . S
H288 C300 0.930 . S
H289 C302 0.930 . S
H290 C303 0.930 . S
H291 C307 0.959 . S
H292 C307 0.959 . S
H293 C307 0.961 . S
H294 C308 0.960 . S
H295 C308 0.961 . S
H296 C308 0.959 . S
H297 C311 0.929 . S
H298 C312 0.931 . S
H299 C314 0.930 . S
C300 H288 0.930 . S
C300 C301 1.399 . S
C300 C305 1.399 . S
C301 C300 1.399 . S
C301 C302 1.376 . S
C302 H289 0.930 . S
C302 C301 1.376 . S
C302 C303 1.388 . S
C303 H290 0.930 . S
C303 C302 1.388 . S
C303 C304 1.390 . S
C304 C303 1.390 . S
C304 C305 1.394 . S
C304 C310 1.465 . S
C305 C300 1.399 . S
C305 C304 1.394 . S
C305 C306 1.516 . S
C306 C305 1.516 . S
C306 C307 1.502 . S
C306 C308 1.561 1_545 S
C306 C309 1.526 . S
C307 H291 0.959 . S
C307 H292 0.959 . S
C307 H293 0.961 . S
C307 C306 1.502 . S
C308 H294 0.960 . S
C308 H295 0.961 . S
C308 H296 0.959 . S
C308 C306 1.561 1_565 S
C309 C306 1.526 . S
C309 C310 1.396 . S
C309 C314 1.390 . S
C310 C304 1.465 . S
C310 C309 1.396 . S
C310 C311 1.399 . S
C311 H297 0.929 . S
C311 C310 1.399 . S
C311 C312 1.385 . S
C312 H298 0.931 . S
C312 C311 1.385 . S
C312 C313 1.389 . S
C313 C312 1.389 . S
C313 C314 1.387 . S
C314 H299 0.930 . S
C314 C309 1.390 . S
C314 C313 1.387 . S
H315 C327 0.930 . S
H316 C329 0.930 . S
H317 C330 0.930 . S
H318 C334 0.959 . S
H319 C334 0.959 . S
H320 C334 0.961 . S
H321 C335 0.960 . S
H322 C335 0.961 . S
H323 C335 0.959 . S
H324 C338 0.929 . S
H325 C339 0.931 . S
H326 C341 0.930 . S
C327 H315 0.930 . S
C327 C328 1.399 . S
C327 C332 1.399 . S
C328 C327 1.399 . S
C328 C329 1.376 . S
C329 H316 0.930 . S
C329 C328 1.376 . S
C329 C330 1.388 . S
C330 H317 0.930 . S
C330 C329 1.388 . S
C330 C331 1.390 . S
C331 C330 1.390 . S
C331 C332 1.394 . S
C331 C337 1.465 . S
C332 C327 1.399 . S
C332 C331 1.394 . S
C332 C333 1.516 . S
C333 C332 1.516 . S
C333 C334 1.502 . S
C333 C335 1.561 . S
C333 C336 1.526 . S
C334 H318 0.959 . S
C334 H319 0.959 . S
C334 H320 0.961 . S
C334 C333 1.502 . S
C335 H321 0.960 . S
C335 H322 0.961 . S
C335 H323 0.959 . S
C335 C333 1.561 . S
C336 C333 1.526 . S
C336 C337 1.396 . S
C336 C341 1.390 . S
C337 C331 1.465 . S
C337 C336 1.396 . S
C337 C338 1.399 . S
C338 H324 0.929 . S
C338 C337 1.399 . S
C338 C339 1.385 . S
C339 H325 0.931 . S
C339 C338 1.385 . S
C339 C340 1.389 . S
C340 C339 1.389 . S
C340 C341 1.387 . S
C341 H326 0.930 . S
C341 C336 1.390 . S
C341 C340 1.387 . S
H342 C354 0.930 . S
H343 C356 0.930 . S
H344 C357 0.930 . S
H345 C361 0.959 1_565 S
H346 C361 0.951 . S
H347 C361 0.961 1_565 S
H348 C362 0.960 . S
H349 C362 0.961 . S
H350 C362 0.959 . S
H351 C365 0.929 . S
H352 C366 0.931 . S
H353 C368 0.930 . S
C354 H342 0.930 . S
C354 C355 1.399 . S
C354 C359 1.399 . S
C355 C354 1.399 . S
C355 C356 1.376 . S
C356 H343 0.930 . S
C356 C355 1.376 . S
C356 C357 1.388 . S
C357 H344 0.930 . S
C357 C356 1.388 . S
C357 C358 1.390 . S
C358 C357 1.390 . S
C358 C359 1.394 . S
C358 C364 1.465 . S
C359 C354 1.399 . S
C359 C358 1.394 . S
C359 C360 1.516 . S
C360 C359 1.516 . S
C360 C361 1.502 . S
C360 C362 1.561 . S
C360 C363 1.526 . S
C361 H345 0.959 1_545 S
C361 H346 0.951 . S
C361 H347 0.961 1_545 S
C361 C360 1.502 . S
C362 H348 0.960 . S
C362 H349 0.961 . S
C362 H350 0.959 . S
C362 C360 1.561 . S
C363 C360 1.526 . S
C363 C364 1.396 . S
C363 C368 1.390 . S
C364 C358 1.465 . S
C364 C363 1.396 . S
C364 C365 1.399 . S
C365 H351 0.929 . S
C365 C364 1.399 . S
C365 C366 1.385 . S
C366 H352 0.931 . S
C366 C365 1.385 . S
C366 C367 1.389 . S
C367 C366 1.389 . S
C367 C368 1.387 . S
C368 H353 0.930 . S
C368 C363 1.390 . S
C368 C367 1.387 . S
H369 C381 0.918 1_556 S
H370 C383 0.930 . S
H371 C384 0.930 . S
H372 C388 0.959 . S
H373 C388 0.959 . S
H374 C388 0.961 . S
H375 C389 0.960 . S
H376 C389 0.961 . S
H377 C389 0.959 . S
H378 C392 0.929 . S
H379 C393 0.931 . S
H380 C395 0.930 . S
C381 H369 0.918 1_554 S
C381 C382 1.441 . S
C381 C386 1.372 1_554 S
C382 C381 1.441 . S
C382 C383 1.376 . S
C383 H370 0.930 . S
C383 C382 1.376 . S
C383 C384 1.388 . S
C384 H371 0.930 . S
C384 C383 1.388 . S
C384 C385 1.390 1_554 S
C385 C384 1.390 1_556 S
C385 C386 1.394 . S
C385 C391 1.465 . S
C386 C381 1.372 1_556 S
C386 C385 1.394 . S
C386 C387 1.516 . S
C387 C386 1.516 . S
C387 C388 1.502 . S
C387 C389 1.561 . S
C387 C390 1.526 . S
C388 H372 0.959 . S
C388 H373 0.959 . S
C388 H374 0.961 . S
C388 C387 1.502 . S
C389 H375 0.960 . S
C389 H376 0.961 . S
C389 H377 0.959 . S
C389 C387 1.561 . S
C390 C387 1.526 . S
C390 C391 1.396 . S
C390 C395 1.390 . S
C391 C385 1.465 . S
C391 C390 1.396 . S
C391 C392 1.399 . S
C392 H378 0.929 . S
C392 C391 1.399 . S
C392 C393 1.385 . S
C393 H379 0.931 . S
C393 C392 1.385 . S
C393 C394 1.389 . S
C394 C393 1.389 . S
C394 C395 1.387 . S
C395 H380 0.930 . S
C395 C390 1.390 . S
C395 C394 1.387 . S
H396 C408 0.930 . S
H397 C410 0.930 . S
H398 C411 0.930 . S
H399 C415 0.959 . S
H400 C415 0.959 . S
H401 C415 0.961 . S
H402 C416 0.960 . S
H403 C416 0.961 . S
H404 C416 0.959 . S
H405 C419 0.929 . S
H406 C420 0.931 . S
H407 C422 0.930 . S
C408 H396 0.930 . S
C408 C409 1.399 . S
C408 C413 1.399 . S
C409 C408 1.399 . S
C409 C410 1.376 1_455 S
C410 H397 0.930 . S
C410 C409 1.376 1_655 S
C410 C411 1.388 . S
C411 H398 0.930 . S
C411 C410 1.388 . S
C411 C412 1.390 1_655 S
C412 C411 1.390 1_455 S
C412 C413 1.394 . S
C412 C418 1.465 . S
C413 C408 1.399 . S
C413 C412 1.394 . S
C413 C414 1.516 . S
C414 C413 1.516 . S
C414 C415 1.502 . S
C414 C416 1.561 . S
C414 C417 1.526 . S
C415 H399 0.959 . S
C415 H400 0.959 . S
C415 H401 0.961 . S
C415 C414 1.502 . S
C416 H402 0.960 . S
C416 H403 0.961 . S
C416 H404 0.959 . S
C416 C414 1.561 . S
C417 C414 1.526 . S
C417 C418 1.396 . S
C417 C422 1.390 . S
C418 C412 1.465 . S
C418 C417 1.396 . S
C418 C419 1.399 1_455 S
C419 H405 0.929 . S
C419 C418 1.399 1_655 S
C419 C420 1.385 . S
C420 H406 0.931 . S
C420 C419 1.385 . S
C420 C421 1.389 1_655 S
C421 C420 1.389 1_455 S
C421 C422 1.387 . S
C422 H407 0.930 . S
C422 C417 1.390 . S
C422 C421 1.387 . S
H423 C435 0.930 1_565 S
H424 C437 0.930 . S
H425 C438 0.930 . S
H426 C442 0.959 . S
H427 C442 0.959 . S
H428 C442 0.961 . S
H429 C443 0.960 . S
H430 C443 0.961 . S
H431 C443 0.959 . S
H432 C446 0.929 . S
H433 C447 0.931 . S
H434 C449 0.930 1_565 S
C435 H423 0.930 1_545 S
C435 C436 1.399 . S
C435 C440 1.399 . S
C436 C435 1.399 . S
C436 C437 1.376 . S
C437 H424 0.930 . S
C437 C436 1.376 . S
C437 C438 1.388 . S
C438 H425 0.930 . S
C438 C437 1.388 . S
C438 C439 1.390 . S
C439 C438 1.390 . S
C439 C440 1.394 . S
C439 C445 1.465 . S
C440 C435 1.399 . S
C440 C439 1.394 . S
C440 C441 1.516 1_545 S
C441 C440 1.516 1_565 S
C441 C442 1.502 . S
C441 C443 1.561 . S
C441 C444 1.526 1_565 S
C442 H426 0.959 . S
C442 H427 0.959 . S
C442 H428 0.961 . S
C442 C441 1.502 . S
C443 H429 0.960 . S
C443 H430 0.961 . S
C443 H431 0.959 . S
C443 C441 1.561 . S
C444 C441 1.526 1_545 S
C444 C445 1.396 . S
C444 C449 1.390 . S
C445 C439 1.465 . S
C445 C444 1.396 . S
C445 C446 1.399 . S
C446 H432 0.929 . S
C446 C445 1.399 . S
C446 C447 1.385 . S
C447 H433 0.931 . S
C447 C446 1.385 . S
C447 C448 1.389 . S
C448 C447 1.389 . S
C448 C449 1.387 . S
C449 H434 0.930 1_545 S
C449 C444 1.390 . S
C449 C448 1.387 . S
H450 C462 0.932 . S
H451 C464 0.930 . S
H452 C465 0.930 . S
H453 C469 0.959 . S
H454 C469 0.959 . S
H455 C469 0.961 . S
H456 C470 0.960 . S
H457 C470 0.961 . S
H458 C470 0.959 . S
H459 C473 0.929 . S
H460 C474 0.931 . S
H461 C476 0.930 . S
C462 H450 0.932 . S
C462 C463 1.399 . S
C462 C467 1.399 1_554 S
C463 C462 1.399 . S
C463 C464 1.376 . S
C464 H451 0.930 . S
C464 C463 1.376 . S
C464 C465 1.388 . S
C465 H452 0.930 . S
C465 C464 1.388 . S
C465 C466 1.390 1_554 S
C466 C465 1.390 1_556 S
C466 C467 1.394 . S
C466 C472 1.465 . S
C467 C462 1.399 1_556 S
C467 C466 1.394 . S
C467 C468 1.516 . S
C468 C467 1.516 . S
C468 C469 1.502 . S
C468 C470 1.561 . S
C468 C471 1.526 . S
C469 H453 0.959 . S
C469 H454 0.959 . S
C469 H455 0.961 . S
C469 C468 1.502 . S
C470 H456 0.960 . S
C470 H457 0.961 . S
C470 H458 0.959 . S
C470 C468 1.561 . S
C471 C468 1.526 . S
C471 C472 1.396 . S
C471 C476 1.390 . S
C472 C466 1.465 . S
C472 C471 1.396 . S
C472 C473 1.399 . S
C473 H459 0.929 . S
C473 C472 1.399 . S
C473 C474 1.385 . S
C474 H460 0.931 . S
C474 C473 1.385 . S
C474 C475 1.389 . S
C475 C474 1.389 . S
C475 C476 1.387 . S
C476 H461 0.930 . S
C476 C471 1.390 . S
C476 C475 1.387 . S
H477 C489 0.930 . S
H478 C491 0.930 . S
H479 C492 0.930 . S
H480 C496 0.959 . S
H481 C496 0.959 . S
H482 C496 0.961 . S
H483 C497 0.960 . S
H484 C497 0.961 . S
H485 C497 0.959 . S
H486 C500 0.929 . S
H487 C501 0.931 . S
H488 C503 0.930 . S
C489 H477 0.930 . S
C489 C490 1.399 . S
C489 C494 1.399 . S
C490 C489 1.399 . S
C490 C491 1.376 . S
C491 H478 0.930 . S
C491 C490 1.376 . S
C491 C492 1.388 . S
C492 H479 0.930 . S
C492 C491 1.388 . S
C492 C493 1.390 . S
C493 C492 1.390 . S
C493 C494 1.394 . S
C493 C499 1.465 . S
C494 C489 1.399 . S
C494 C493 1.394 . S
C494 C495 1.516 . S
C495 C494 1.516 . S
C495 C496 1.502 1_455 S
C495 C497 1.561 . S
C495 C498 1.526 . S
C496 H480 0.959 . S
C496 H481 0.959 . S
C496 H482 0.961 . S
C496 C495 1.502 1_655 S
C497 H483 0.960 . S
C497 H484 0.961 . S
C497 H485 0.959 . S
C497 C495 1.561 . S
C498 C495 1.526 . S
C498 C499 1.396 . S
C498 C503 1.390 . S
C499 C493 1.465 . S
C499 C498 1.396 . S
C499 C500 1.399 . S
C500 H486 0.929 . S
C500 C499 1.399 . S
C500 C501 1.385 . S
C501 H487 0.931 . S
C501 C500 1.385 . S
C501 C502 1.389 . S
C502 C501 1.389 . S
C502 C503 1.387 . S
C503 H488 0.930 . S
C503 C498 1.390 . S
C503 C502 1.387 . S
C205 C50 1.450 . S
C193 C0 1.431 . S
C220 C25 1.486 . S
C232 C89 1.479 . S
C247 C33 1.502 . S
C259 C156 1.510 . S
C274 C11 1.433 . S
C286 C57 1.443 . S
C313 C110 1.482 . S
C301 C14 1.459 . S
C328 C37 1.507 . S
C340 C135 1.510 . S
C367 C96 1.473 . S
C355 C28 1.483 . S
C382 C9 1.489 . S
C394 C149 1.500 . S
C421 C64 1.534 . S
C409 C19 1.541 . S
C448 C103 1.480 . S
C436 C39 1.486 . S
C475 C142 1.497 . S
C463 C5 1.508 . S
C490 C23 1.553 . S
C502 C43 1.546 . S
