# Generated by pormake.
# Topology anh, (6,3)-cn, num edge types: 1
# Building blocks:
#     Node 0, Type 0, BuildingBlock: PAMTOO_clean_sbu_0, # of connection points: 6
#     Node 1, Type 0, BuildingBlock: PAMTOO_clean_sbu_0, # of connection points: 6
#     Node 2, Type 0, BuildingBlock: PAMTOO_clean_sbu_0, # of connection points: 6
#     Node 3, Type 1, BuildingBlock: BETDAH_clean_linker_0, # of connection points: 3
#     Node 4, Type 1, BuildingBlock: BETDAH_clean_linker_0, # of connection points: 3
#     Node 5, Type 1, BuildingBlock: BETDAH_clean_linker_0, # of connection points: 3
#     Node 6, Type 1, BuildingBlock: BETDAH_clean_linker_0, # of connection points: 3
#     Node 7, Type 1, BuildingBlock: BETDAH_clean_linker_0, # of connection points: 3
#     Node 8, Type 1, BuildingBlock: BETDAH_clean_linker_0, # of connection points: 3
#     Edge 9, Type (0, 1), BuildingBlock: AJUNOK_clean_linker_0, # of connection points: 2
#     Edge 10, Type (0, 1), BuildingBlock: AJUNOK_clean_linker_0, # of connection points: 2
#     Edge 11, Type (0, 1), BuildingBlock: AJUNOK_clean_linker_0, # of connection points: 2
#     Edge 12, Type (0, 1), BuildingBlock: AJUNOK_clean_linker_0, # of connection points: 2
#     Edge 13, Type (0, 1), BuildingBlock: AJUNOK_clean_linker_0, # of connection points: 2
#     Edge 14, Type (0, 1), BuildingBlock: AJUNOK_clean_linker_0, # of connection points: 2
#     Edge 15, Type (0, 1), BuildingBlock: AJUNOK_clean_linker_0, # of connection points: 2
#     Edge 16, Type (0, 1), BuildingBlock: AJUNOK_clean_linker_0, # of connection points: 2
#     Edge 17, Type (0, 1), BuildingBlock: AJUNOK_clean_linker_0, # of connection points: 2
#     Edge 18, Type (0, 1), BuildingBlock: AJUNOK_clean_linker_0, # of connection points: 2
#     Edge 19, Type (0, 1), BuildingBlock: AJUNOK_clean_linker_0, # of connection points: 2
#     Edge 20, Type (0, 1), BuildingBlock: AJUNOK_clean_linker_0, # of connection points: 2
#     Edge 21, Type (0, 1), BuildingBlock: AJUNOK_clean_linker_0, # of connection points: 2
#     Edge 22, Type (0, 1), BuildingBlock: AJUNOK_clean_linker_0, # of connection points: 2
#     Edge 23, Type (0, 1), BuildingBlock: AJUNOK_clean_linker_0, # of connection points: 2
#     Edge 24, Type (0, 1), BuildingBlock: AJUNOK_clean_linker_0, # of connection points: 2
#     Edge 25, Type (0, 1), BuildingBlock: AJUNOK_clean_linker_0, # of connection points: 2
#     Edge 26, Type (0, 1), BuildingBlock: AJUNOK_clean_linker_0, # of connection points: 2
# Relax obj value: 0.210
# Max RMSD: 0.183
# Mean RMSD: 0.116
data_MOF--net-anh--node1-PAMTOO_clean_sbu_0--node2-BETDAH_clean_linker_0--edge1-AJUNOK_clean_linker_0
_symmetry_space_group_name_H-M    P1
_symmetry_Int_Tables_number       1
_symmetry_cell_setting            triclinic
loop_
_symmetry_equiv_pos_as_xyz
'x, y, z'
_cell_length_a     22.444641
_cell_length_b     21.85496
_cell_length_c     36.252041
_cell_angle_alpha  92.928101
_cell_angle_beta   98.009871
_cell_angle_gamma 95.467812
loop_
_atom_site_label
_atom_site_type_symbol
_atom_site_fract_x
_atom_site_fract_y
_atom_site_fract_z
_atom_type_partial_charge
Dy0 Dy 1.11704 0.65122 0.1507 0.0
Dy1 Dy 1.10255 0.50109 0.13638 0.0
C2 C 1.10819 0.59043 0.07131 0.0
O3 O 1.01797 0.62386 0.15564 0.0
O4 O 1.00728 0.52816 0.12496 0.0
O5 O 0.13744 0.73924 0.12849 0.0
O6 O 1.11176 0.73508 0.18384 0.0
O7 O 1.09072 0.52406 0.19567 0.0
O8 O 0.15136 0.61449 0.20451 0.0
O9 O 0.20438 0.52321 0.143 0.0
O10 O 0.21195 0.62925 0.14261 0.0
O11 O 0.12107 0.41231 0.15603 0.0
O12 O 1.06209 0.41823 0.10383 0.0
C13 C 0.98308 0.57471 0.13961 0.0
O14 O 1.07905 0.62433 0.09183 0.0
O15 O 0.12972 0.54116 0.08477 0.0
C16 C 0.18703 0.81308 0.17412 0.0
C17 C 0.29494 0.89118 0.19378 0.0
C18 C 0.29116 0.83029 0.20441 0.0
C19 C 0.23766 0.7914 0.19456 0.0
C20 C 0.18996 0.87464 0.16466 0.0
C21 C 0.24367 0.91368 0.1746 0.0
C22 C 0.13362 0.77004 0.1597 0.0
C23 C 0.12361 0.56726 0.218 0.0
C24 C 0.23705 0.57672 0.14229 0.0
C25 C 1.03334 0.34283 0.14361 0.0
C26 C 0.93792 0.26834 0.16725 0.0
C27 C 0.946 0.33213 0.1765 0.0
C28 C 0.99342 0.36894 0.16493 0.0
C29 C 1.0262 0.2792 0.13475 0.0
C30 C 0.97884 0.2422 0.14649 0.0
C31 C 1.08102 0.38274 0.13001 0.0
H32 H 0.33007 0.81261 0.21975 0.0
H33 H 0.23629 0.74394 0.20198 0.0
H34 H 0.15138 0.89192 0.14866 0.0
H35 H 0.24587 0.96061 0.16621 0.0
H36 H 0.91445 0.35399 0.19155 0.0
H37 H 0.99818 0.41812 0.17194 0.0
H38 H 1.05666 0.2583 0.11837 0.0
H39 H 0.97373 0.19319 0.13894 0.0
Dy40 Dy 0.60321 1.00978 0.51133 0.0
Dy41 Dy 0.75007 0.03226 0.51756 0.0
C42 C 0.6842 1.01198 0.58986 0.0
O43 O 0.62847 0.10892 0.53112 0.0
O44 O 0.7182 0.12509 0.50816 0.0
O45 O 0.5204 1.01091 0.5354 0.0
O46 O 0.51762 0.98609 0.47644 0.0
O47 O 0.7139 0.01961 0.45647 0.0
O48 O 0.62262 0.05482 0.46008 0.0
O49 O 0.73007 0.93274 0.52777 0.0
O50 O 0.63374 0.91804 0.49612 0.0
O51 O 0.83265 1.01359 0.49669 0.0
O52 O 0.83587 0.07646 0.54516 0.0
C53 C 0.67158 0.14647 0.52077 0.0
O54 O 0.63775 0.98259 0.56802 0.0
O55 O 0.72777 0.04325 0.57584 0.0
C56 C 0.44157 0.93812 0.50591 0.0
C57 C 0.35605 0.83405 0.49874 0.0
C58 C 0.41648 0.8297 0.51411 0.0
C59 C 0.45907 0.88146 0.51761 0.0
C60 C 0.38109 0.94318 0.4919 0.0
C61 C 0.33865 0.89153 0.4882 0.0
C62 C 0.48666 0.99037 0.50416 0.0
C63 C 0.66594 0.0435 0.44086 0.0
C64 C 0.68291 0.89574 0.51179 0.0
C65 C 0.89863 0.10484 0.5016 0.0
C66 C 0.95582 0.21202 0.47671 0.0
C67 C 0.8956 0.19123 0.46208 0.0
C68 C 0.86726 0.13807 0.47442 0.0
C69 C 0.9595 0.12367 0.51501 0.0
C70 C 0.98799 0.1769 0.5026 0.0
C71 C 0.86531 0.05625 0.51929 0.0
H72 H 0.43111 0.7859 0.52228 0.0
H73 H 0.50593 0.87681 0.52813 0.0
H74 H 0.3672 0.98649 0.48227 0.0
H75 H 0.29292 0.89601 0.47525 0.0
H76 H 0.8692 0.21805 0.44286 0.0
H77 H 0.81987 0.12467 0.46417 0.0
H78 H 0.98412 0.09885 0.53626 0.0
H79 H 1.03442 0.19207 0.51437 0.0
Dy80 Dy 0.69085 0.52704 0.83009 0.0
Dy81 Dy 0.54454 0.50794 0.81009 0.0
C82 C 0.62728 0.51445 0.74633 0.0
O83 O 0.66211 0.6201 0.84322 0.0
O84 O 0.57258 0.60785 0.80386 0.0
O85 O 0.7769 0.58001 0.83158 0.0
O86 O 0.77267 0.48812 0.85201 0.0
O87 O 0.56109 0.53991 0.87084 0.0
O88 O 0.65876 0.51576 0.88496 0.0
O89 O 0.56968 0.41394 0.82358 0.0
O90 O 0.66529 0.42867 0.80861 0.0
O91 O 0.45338 0.48637 0.8221 0.0
O92 O 0.46849 0.51212 0.76714 0.0
C93 C 0.61687 0.64375 0.82394 0.0
O94 O 0.67035 0.54549 0.76998 0.0
O95 O 0.58241 0.48232 0.75838 0.0
C96 C 0.85939 0.52258 0.82537 0.0
C97 C 0.97266 0.53228 0.80058 0.0
C98 C 0.92086 0.54474 0.77667 0.0
C99 C 0.86443 0.54027 0.78911 0.0
C100 C 0.90891 0.50118 0.84676 0.0
C101 C 0.96511 0.50566 0.83444 0.0
C102 C 0.80723 0.5353 0.84378 0.0
C103 C 0.60821 0.53137 0.89519 0.0
C104 C 0.61904 0.39165 0.81553 0.0
C105 C 0.39459 0.56067 0.79376 0.0
C106 C 0.36111 0.6805 0.80356 0.0
C107 C 0.36759 0.6427 0.83376 0.0
C108 C 0.38411 0.5834 0.82895 0.0
C109 C 0.38198 0.59626 0.76279 0.0
C110 C 0.36502 0.65579 0.76765 0.0
C111 C 0.42984 0.5073 0.79078 0.0
H112 H 0.92515 0.56465 0.75029 0.0
H113 H 0.82618 0.55574 0.77174 0.0
H114 H 0.9056 0.48662 0.87461 0.0
H115 H 1.00367 0.49584 0.85387 0.0
H116 H 0.36182 0.65986 0.86148 0.0
H117 H 0.39228 0.55703 0.85332 0.0
H118 H 0.38903 0.57965 0.73522 0.0
H119 H 0.35822 0.68356 0.74381 0.0
H120 H 0.52721 0.01958 0.29034 0.0
H121 H 0.69475 0.10823 0.26462 0.0
H122 H 0.54804 0.04927 0.17645 0.0
C123 C 0.55425 0.03751 0.26995 0.0
C124 C 0.53064 0.03061 0.232 0.0
C125 C 0.61322 0.06541 0.2819 0.0
C126 C 0.64916 0.08693 0.25543 0.0
C127 C 0.62514 0.08134 0.21718 0.0
C128 C 0.56619 0.05332 0.20589 0.0
N129 N 0.65803 0.10267 0.18882 0.0
C130 C 0.71657 0.13196 0.19387 0.0
H131 H 0.6484 0.39408 0.59766 0.0
H132 H 0.66737 0.58528 0.57493 0.0
H133 H 0.68613 0.44555 0.4898 0.0
C134 C 0.65606 0.42937 0.57834 0.0
C135 C 0.66634 0.41212 0.54228 0.0
C136 C 0.656 0.49132 0.59011 0.0
C137 C 0.66749 0.5374 0.56564 0.0
C138 C 0.67811 0.52113 0.52913 0.0
C139 C 0.67816 0.45833 0.51784 0.0
N140 N 0.68809 0.56622 0.50298 0.0
C141 C 0.68555 0.62948 0.50919 0.0
H142 H 0.1398 0.61156 0.90596 0.0
H143 H 0.20765 0.78866 0.96056 0.0
H144 H 0.18162 0.76323 0.84077 0.0
C145 C 0.15935 0.65851 0.90434 0.0
C146 C 0.1622 0.68216 0.86936 0.0
C147 C 0.17495 0.69642 0.93723 0.0
C148 C 0.19537 0.75895 0.93524 0.0
C149 C 0.20084 0.78282 0.90052 0.0
C150 C 0.18257 0.74434 0.86772 0.0
N151 N 0.22583 0.84477 0.89866 0.0
C152 C 0.26216 0.85801 0.87144 0.0
H153 H 0.21457 0.64058 0.38677 0.0
H154 H 1.0548 0.51278 0.38283 0.0
H155 H 0.13721 0.60708 0.48669 0.0
C156 C 0.18069 0.61619 0.40071 0.0
C157 C 0.18143 0.62893 0.43909 0.0
C158 C 0.13503 0.57485 0.37978 0.0
C159 C 1.09154 0.54344 0.39837 0.0
C160 C 1.0929 0.55502 0.43698 0.0
C161 C 0.13717 0.59811 0.457 0.0
N162 N 1.04765 0.52704 0.45588 0.0
C163 C 1.03319 0.4638 0.454 0.0
H164 H 0.65752 0.14421 0.73657 0.0
H165 H 0.64677 0.95415 0.76259 0.0
H166 H 0.61315 0.09382 0.84333 0.0
C167 C 0.65053 0.10941 0.75625 0.0
C168 C 0.6351 0.12693 0.79118 0.0
C169 C 0.65518 0.04748 0.74584 0.0
C170 C 0.64357 1.00198 0.77073 0.0
C171 C 0.62854 0.01855 0.80613 0.0
C172 C 0.62425 0.08103 0.81602 0.0
N173 N 0.61774 0.97409 0.83254 0.0
C174 C 0.61982 0.91066 0.82695 0.0
H175 H 0.73164 0.55896 0.05485 0.0
H176 H 0.54494 0.56942 0.06863 0.0
H177 H 0.68308 0.57705 0.16497 0.0
C178 C 0.69741 0.56372 0.07288 0.0
C179 C 0.71562 0.56914 0.11156 0.0
C180 C 0.63644 0.56419 0.05694 0.0
C181 C 0.59177 0.56842 0.0806 0.0
C182 C 0.60771 0.57245 0.11974 0.0
C183 C 0.67016 0.57359 0.13496 0.0
N184 N 0.56291 0.57532 0.14455 0.0
C185 C 0.49932 0.57488 0.13572 0.0
C186 C 0.32821 0.52631 0.12391 0.0
C187 C 0.3044 0.57753 0.13992 0.0
C188 C 0.39092 0.52611 0.12146 0.0
C189 C 0.43317 0.57697 0.13509 0.0
H190 H 0.29805 0.48585 0.11297 0.0
H191 H 0.40649 0.48536 0.10925 0.0
S192 S 0.39687 0.72078 0.18177 0.0
N193 N 0.33042 0.67986 0.1707 0.0
N194 N 0.44686 0.67879 0.16652 0.0
C195 C 0.41031 0.62805 0.15132 0.0
C196 C 0.34659 0.62859 0.15357 0.0
C197 C 1.00687 0.31603 0.49935 0.0
C198 C 0.98178 0.27426 0.46909 0.0
C199 C 1.02486 0.37753 0.49384 0.0
C200 C 1.01854 0.39921 0.45796 0.0
H201 H 1.01036 0.30177 0.5277 0.0
H202 H 1.04242 0.40869 0.51796 0.0
S203 S 0.96075 0.30842 0.36913 0.0
N204 N 0.95534 0.25852 0.40158 0.0
N205 N 0.98922 0.37485 0.3915 0.0
C206 C 0.99572 0.35806 0.42729 0.0
C207 C 0.97722 0.29528 0.43281 0.0
C208 C 0.66331 0.7514 0.84612 0.0
C209 C 0.61666 0.71233 0.82399 0.0
C210 C 0.66459 0.81597 0.84651 0.0
C211 C 0.6195 0.84403 0.8247 0.0
H212 H 0.69917 0.7321 0.86349 0.0
H213 H 0.70094 0.84409 0.86424 0.0
S214 S 0.48801 0.76493 0.76157 0.0
N215 N 0.52412 0.70832 0.77931 0.0
N216 N 0.52735 0.82933 0.78041 0.0
C217 C 0.57288 0.8063 0.80242 0.0
C218 C 0.57125 0.74057 0.80196 0.0
C219 C 0.88457 0.62459 0.14342 0.0
C220 C 0.91432 0.5717 0.13655 0.0
C221 C 0.82035 0.62298 0.13786 0.0
C222 C 0.78249 0.56826 0.12559 0.0
H223 H 0.91107 0.6683 0.15196 0.0
H224 H 0.80025 0.66555 0.14169 0.0
S225 S 0.83553 0.41558 0.10661 0.0
N226 N 0.89862 0.46167 0.11893 0.0
N227 N 0.77986 0.45931 0.10863 0.0
C228 C 0.81143 0.5148 0.12003 0.0
C229 C 0.87646 0.51629 0.12551 0.0
C230 C 0.33017 0.72732 0.46944 0.0
C231 C 0.31286 0.77794 0.48944 0.0
C232 C 0.28784 0.6779 0.45472 0.0
C233 C 0.22666 0.67723 0.45948 0.0
H234 H 0.37613 0.72724 0.46346 0.0
H235 H 0.30273 0.6408 0.43847 0.0
S236 S 0.15948 0.79595 0.51271 0.0
N237 N 0.2317 0.82192 0.51613 0.0
N238 N 0.15154 0.72987 0.48745 0.0
C239 C 0.20935 0.72606 0.48104 0.0
C240 C 0.25257 0.77627 0.49619 0.0
C241 C 0.67411 0.30092 0.80038 0.0
C242 C 0.62238 0.32356 0.81188 0.0
C243 C 0.6783 0.23756 0.79493 0.0
C244 C 0.63122 0.19358 0.80093 0.0
H245 H 0.71167 0.33232 0.79489 0.0
H246 H 0.71874 0.22283 0.7855 0.0
S247 S 0.48663 0.22728 0.83225 0.0
N248 N 0.52339 0.29588 0.83012 0.0
N249 N 0.53152 0.17682 0.81967 0.0
C250 C 0.57983 0.21511 0.81334 0.0
C251 C 0.57534 0.27994 0.81878 0.0
C252 C 0.6341 0.78717 0.49493 0.0
C253 C 0.68443 0.82736 0.51216 0.0
C254 C 0.63429 0.72275 0.49472 0.0
C255 C 0.68457 0.69596 0.51187 0.0
H256 H 0.59419 0.80544 0.48123 0.0
H257 H 0.59499 0.69373 0.48068 0.0
S258 S 0.8271 0.77849 0.56159 0.0
N259 N 0.78586 0.83389 0.54753 0.0
N260 N 0.78539 0.71317 0.54689 0.0
C261 C 0.73474 0.73486 0.52953 0.0
C262 C 0.73487 0.80044 0.52975 0.0
C263 C 1.03472 0.62972 0.79477 0.0
C264 C 1.03254 0.5655 0.79767 0.0
C265 C 1.08332 0.669 0.81375 0.0
C266 C 0.1313 0.64498 0.83557 0.0
H267 H 0.99496 0.65056 0.78318 0.0
H268 H 1.07869 0.7179 0.81562 0.0
S269 S 0.15962 0.4809 0.83678 0.0
N270 N 1.09148 0.47998 0.81249 0.0
N271 N 0.18359 0.5542 0.84806 0.0
C272 C 0.13582 0.58139 0.83138 0.0
C273 C 1.08618 0.54136 0.81212 0.0
C274 C 0.36258 0.9804 0.22719 0.0
C275 C 0.35363 0.92958 0.20102 0.0
C276 C 0.41982 1.01371 0.23663 0.0
C277 C 0.46961 0.9976 0.21983 0.0
H278 H 0.32556 0.99336 0.24114 0.0
H279 H 0.42535 0.05198 0.25744 0.0
S280 S 0.46809 0.86967 0.1483 0.0
N281 N 0.39778 0.86615 0.15734 0.0
N282 N 0.50547 0.92809 0.17523 0.0
C283 C 0.46051 0.94778 0.19287 0.0
C284 C 0.40246 0.91388 0.18346 0.0
C285 C 0.71664 0.25585 0.51677 0.0
C286 C 0.66741 0.21437 0.52311 0.0
C287 C 0.71497 0.32008 0.52082 0.0
C288 C 0.66401 0.34525 0.53131 0.0
H289 H 0.75757 0.23873 0.50961 0.0
H290 H 0.75475 0.35014 0.5173 0.0
S291 S 0.52059 0.25816 0.54692 0.0
N292 N 0.5641 0.20441 0.53736 0.0
N293 N 0.5614 0.32447 0.54482 0.0
C294 C 0.61354 0.30461 0.53594 0.0
C295 C 0.61512 0.23944 0.53191 0.0
C296 C 0.29574 0.76596 0.79327 0.0
C297 C 0.34937 0.74511 0.81054 0.0
C298 C 0.27212 0.81618 0.8096 0.0
C299 C 0.30048 0.84433 0.84412 0.0
H300 H 0.2685 0.73928 0.76981 0.0
H301 H 0.227 0.82613 0.79837 0.0
S302 S 0.45237 0.82138 0.89203 0.0
N303 N 0.43914 0.76856 0.85682 0.0
N304 N 0.39237 0.86022 0.8888 0.0
C305 C 0.35918 0.83154 0.85738 0.0
C306 C 0.38404 0.78173 0.84038 0.0
C307 C 0.84838 0.19053 0.14824 0.0
C308 C 0.88407 0.23013 0.17638 0.0
C309 C 0.7947 0.15752 0.15482 0.0
C310 C 0.77484 0.16274 0.18973 0.0
H311 H 0.86093 0.1865 0.12049 0.0
H312 H 0.76778 0.12877 0.13208 0.0
S313 S 0.85283 0.25629 0.27359 0.0
N314 N 0.8969 0.26975 0.24135 0.0
N315 N 0.7951 0.20792 0.25327 0.0
C316 C 0.81031 0.20065 0.21846 0.0
C317 C 0.8652 0.23438 0.21186 0.0
C318 C 1.10421 0.67051 0.02454 0.0
C319 C 0.1252 0.61484 0.03634 0.0
C320 C 0.12284 0.69808 0.99349 0.0
C321 C 0.16291 0.67097 0.97282 0.0
H322 H 1.07311 0.69341 0.03942 0.0
H323 H 1.10437 0.74006 0.98496 0.0
S324 S 0.23327 0.52697 0.99216 0.0
N325 N 0.19007 0.53468 0.0251 0.0
N326 N 0.22445 0.58651 0.96638 0.0
C327 C 0.18476 0.61572 0.98425 0.0
C328 C 0.16602 0.58764 0.01604 0.0
C329 C 0.69205 0.02751 0.376 0.0
C330 C 0.65921 0.05704 0.40084 0.0
C331 C 0.68029 0.03393 0.33732 0.0
C332 C 0.63565 0.07036 0.32239 0.0
H333 H 0.72492 0.99688 0.38623 0.0
H334 H 0.70375 1.00758 0.31886 0.0
S335 S 0.54402 0.16499 0.37544 0.0
N336 N 0.58532 0.13015 0.40765 0.0
N337 N 0.56327 0.1413 0.33519 0.0
C338 C 0.60559 0.1033 0.347 0.0
C339 C 0.61737 0.09691 0.38619 0.0
C340 C 0.68286 0.54176 0.69295 0.0
C341 C 0.63097 0.51356 0.70571 0.0
C342 C 0.68922 0.53801 0.65495 0.0
C343 C 0.64396 0.50595 0.62846 0.0
H344 H 0.71978 0.56536 0.71252 0.0
H345 H 0.73096 0.55772 0.64649 0.0
S346 S 0.49669 0.43016 0.64604 0.0
N347 N 0.53123 0.45705 0.68771 0.0
N348 N 0.54386 0.44997 0.61657 0.0
C349 C 0.59076 0.48029 0.6404 0.0
C350 C 0.58409 0.48408 0.67895 0.0
C351 C 0.63627 0.98136 0.64565 0.0
C352 C 0.68358 1.01469 0.63096 0.0
C353 C 0.62937 0.98938 0.68343 0.0
C354 C 0.66938 0.03126 0.70796 0.0
H355 H 0.60273 0.95032 0.62761 0.0
H356 H 0.59073 0.96502 0.69304 0.0
S357 S 0.80529 0.12375 0.6854 0.0
N358 N 0.77465 0.0868 0.64538 0.0
N359 N 0.76137 0.10164 0.71622 0.0
C360 C 0.71887 0.06205 0.69434 0.0
C361 C 0.72616 0.0538 0.65593 0.0
C362 C 0.65378 0.58634 0.9555 0.0
C363 C 0.60768 0.54469 0.93551 0.0
C364 C 0.66002 0.59492 -0.00557 0.0
C365 C 0.62148 0.56085 0.01526 0.0
H366 H 0.68611 0.61177 0.94091 0.0
H367 H 0.69674 0.62731 0.00844 0.0
S368 S 0.49192 0.44712 0.97549 0.0
N369 N 0.5206 0.4714 0.93861 0.0
N370 N 0.53378 0.48501 0.01222 0.0
C371 C 0.57357 0.52056 -0.00466 0.0
C372 C 0.56648 0.51293 0.95538 0.0
C373 C 0.13795 0.62235 0.28079 0.0
C374 C 0.12548 0.56641 0.25895 0.0
C375 C 0.13977 0.6242 0.31948 0.0
C376 C 0.13041 0.57009 0.33831 0.0
H377 H 0.14556 0.66551 0.26789 0.0
H378 H 0.14828 0.66882 0.33475 0.0
S379 S 1.09679 0.41131 0.294 0.0
N380 N 1.10278 0.4553 0.2587 0.0
N381 N 1.10853 0.45851 0.33197 0.0
C382 C 1.11757 0.51363 0.31682 0.0
C383 C 1.11472 0.51185 0.27708 0.0
loop_
_geom_bond_atom_site_label_1
_geom_bond_atom_site_label_2
_geom_bond_distance
_geom_bond_site_symmetry_2
_ccdc_geom_bond_type
Dy0 O3 2.307 1_455 S
Dy0 O5 2.395 . S
Dy0 O6 2.379 . S
Dy0 O8 2.339 . S
Dy0 O10 2.298 . S
Dy0 O14 2.275 . S
Dy0 C22 2.738 . S
Dy1 O4 2.298 . S
Dy1 O7 2.275 1_655 S
Dy1 O9 2.307 1_655 S
Dy1 O11 2.395 . S
Dy1 O12 2.379 . S
Dy1 O15 2.339 . S
Dy1 C31 2.738 . S
C2 O14 1.254 . S
C2 O15 1.257 1_455 S
O3 Dy0 2.307 1_655 S
O3 C13 1.266 . S
O4 Dy1 2.298 . S
O4 C13 1.236 . S
O5 Dy0 2.395 . S
O5 C22 1.255 . S
O6 Dy0 2.379 . S
O6 C22 1.249 . S
O7 Dy1 2.275 1_455 S
O7 C23 1.254 . S
O8 Dy0 2.339 . S
O8 C23 1.257 . S
O9 Dy1 2.307 1_455 S
O9 C24 1.266 . S
O10 Dy0 2.298 . S
O10 C24 1.236 . S
O11 Dy1 2.395 . S
O11 C31 1.255 . S
O12 Dy1 2.379 . S
O12 C31 1.249 . S
C13 O3 1.266 . S
C13 O4 1.236 . S
O14 Dy0 2.275 . S
O14 C2 1.254 . S
O15 Dy1 2.339 . S
O15 C2 1.257 1_655 S
C16 C19 1.344 . S
C16 C20 1.328 . S
C16 C22 1.516 . S
C17 C18 1.304 . S
C17 C21 1.323 . S
C18 C17 1.304 . S
C18 C19 1.371 . S
C18 H32 0.930 . S
C19 C16 1.344 . S
C19 C18 1.371 . S
C19 H33 0.931 . S
C20 C16 1.328 . S
C20 C21 1.433 . S
C20 H34 0.931 . S
C21 C17 1.323 . S
C21 C20 1.433 . S
C21 H35 0.933 . S
C22 Dy0 2.738 . S
C22 O5 1.255 . S
C22 O6 1.249 . S
C22 C16 1.516 . S
C23 O7 1.254 . S
C23 O8 1.257 . S
C24 O9 1.266 . S
C24 O10 1.236 . S
C25 C28 1.344 . S
C25 C29 1.328 . S
C25 C31 1.516 . S
C26 C27 1.304 . S
C26 C30 1.323 . S
C27 C26 1.304 . S
C27 C28 1.371 . S
C27 H36 0.930 . S
C28 C25 1.344 . S
C28 C27 1.371 . S
C28 H37 0.931 . S
C29 C25 1.328 . S
C29 C30 1.433 . S
C29 H38 0.931 . S
C30 C26 1.323 . S
C30 C29 1.433 . S
C30 H39 0.933 . S
C31 Dy1 2.738 . S
C31 O11 1.255 . S
C31 O12 1.249 . S
C31 C25 1.516 . S
H32 C18 0.930 . S
H33 C19 0.931 . S
H34 C20 0.931 . S
H35 C21 0.933 . S
H36 C27 0.930 . S
H37 C28 0.931 . S
H38 C29 0.931 . S
H39 C30 0.933 . S
Dy40 O43 2.307 . S
Dy40 O45 2.395 1_545 S
Dy40 O46 2.379 1_545 S
Dy40 O48 2.339 . S
Dy40 O50 2.298 1_545 S
Dy40 O54 2.275 . S
Dy40 C62 2.738 1_545 S
Dy41 O44 2.298 . S
Dy41 O47 2.275 . S
Dy41 O49 2.307 1_545 S
Dy41 O51 2.395 . S
Dy41 O52 2.379 . S
Dy41 O55 2.339 . S
Dy41 C71 2.738 . S
C42 O54 1.254 . S
C42 O55 1.257 . S
O43 Dy40 2.307 . S
O43 C53 1.266 . S
O44 Dy41 2.298 . S
O44 C53 1.236 . S
O45 Dy40 2.395 1_565 S
O45 C62 1.255 . S
O46 Dy40 2.379 1_565 S
O46 C62 1.249 . S
O47 Dy41 2.275 . S
O47 C63 1.254 . S
O48 Dy40 2.339 . S
O48 C63 1.257 . S
O49 Dy41 2.307 1_565 S
O49 C64 1.266 . S
O50 Dy40 2.298 1_565 S
O50 C64 1.236 . S
O51 Dy41 2.395 . S
O51 C71 1.255 . S
O52 Dy41 2.379 . S
O52 C71 1.249 . S
C53 O43 1.266 . S
C53 O44 1.236 . S
O54 Dy40 2.275 . S
O54 C42 1.254 . S
O55 Dy41 2.339 . S
O55 C42 1.257 . S
C56 C59 1.344 . S
C56 C60 1.328 . S
C56 C62 1.516 . S
C57 C58 1.304 . S
C57 C61 1.323 . S
C58 C57 1.304 . S
C58 C59 1.371 . S
C58 H72 0.930 . S
C59 C56 1.344 . S
C59 C58 1.371 . S
C59 H73 0.931 . S
C60 C56 1.328 . S
C60 C61 1.433 . S
C60 H74 0.931 . S
C61 C57 1.323 . S
C61 C60 1.433 . S
C61 H75 0.933 . S
C62 Dy40 2.738 1_565 S
C62 O45 1.255 . S
C62 O46 1.249 . S
C62 C56 1.516 . S
C63 O47 1.254 . S
C63 O48 1.257 . S
C64 O49 1.266 . S
C64 O50 1.236 . S
C65 C68 1.344 . S
C65 C69 1.328 . S
C65 C71 1.516 . S
C66 C67 1.304 . S
C66 C70 1.323 . S
C67 C66 1.304 . S
C67 C68 1.371 . S
C67 H76 0.930 . S
C68 C65 1.344 . S
C68 C67 1.371 . S
C68 H77 0.931 . S
C69 C65 1.328 . S
C69 C70 1.433 . S
C69 H78 0.931 . S
C70 C66 1.323 . S
C70 C69 1.433 . S
C70 H79 0.933 . S
C71 Dy41 2.738 . S
C71 O51 1.255 . S
C71 O52 1.249 . S
C71 C65 1.516 . S
H72 C58 0.930 . S
H73 C59 0.931 . S
H74 C60 0.931 . S
H75 C61 0.933 . S
H76 C67 0.930 . S
H77 C68 0.931 . S
H78 C69 0.931 . S
H79 C70 0.933 . S
Dy80 O83 2.307 . S
Dy80 O85 2.395 . S
Dy80 O86 2.379 . S
Dy80 O88 2.339 . S
Dy80 O90 2.298 . S
Dy80 O94 2.275 . S
Dy80 C102 2.738 . S
Dy81 O84 2.298 . S
Dy81 O87 2.275 . S
Dy81 O89 2.307 . S
Dy81 O91 2.395 . S
Dy81 O92 2.379 . S
Dy81 O95 2.339 . S
Dy81 C111 2.738 . S
C82 O94 1.254 . S
C82 O95 1.257 . S
O83 Dy80 2.307 . S
O83 C93 1.266 . S
O84 Dy81 2.298 . S
O84 C93 1.236 . S
O85 Dy80 2.395 . S
O85 C102 1.255 . S
O86 Dy80 2.379 . S
O86 C102 1.249 . S
O87 Dy81 2.275 . S
O87 C103 1.254 . S
O88 Dy80 2.339 . S
O88 C103 1.257 . S
O89 Dy81 2.307 . S
O89 C104 1.266 . S
O90 Dy80 2.298 . S
O90 C104 1.236 . S
O91 Dy81 2.395 . S
O91 C111 1.255 . S
O92 Dy81 2.379 . S
O92 C111 1.249 . S
C93 O83 1.266 . S
C93 O84 1.236 . S
O94 Dy80 2.275 . S
O94 C82 1.254 . S
O95 Dy81 2.339 . S
O95 C82 1.257 . S
C96 C99 1.344 . S
C96 C100 1.328 . S
C96 C102 1.516 . S
C97 C98 1.304 . S
C97 C101 1.323 . S
C98 C97 1.304 . S
C98 C99 1.371 . S
C98 H112 0.930 . S
C99 C96 1.344 . S
C99 C98 1.371 . S
C99 H113 0.931 . S
C100 C96 1.328 . S
C100 C101 1.433 . S
C100 H114 0.931 . S
C101 C97 1.323 . S
C101 C100 1.433 . S
C101 H115 0.933 . S
C102 Dy80 2.738 . S
C102 O85 1.255 . S
C102 O86 1.249 . S
C102 C96 1.516 . S
C103 O87 1.254 . S
C103 O88 1.257 . S
C104 O89 1.266 . S
C104 O90 1.236 . S
C105 C108 1.344 . S
C105 C109 1.328 . S
C105 C111 1.516 . S
C106 C107 1.304 . S
C106 C110 1.323 . S
C107 C106 1.304 . S
C107 C108 1.371 . S
C107 H116 0.930 . S
C108 C105 1.344 . S
C108 C107 1.371 . S
C108 H117 0.931 . S
C109 C105 1.328 . S
C109 C110 1.433 . S
C109 H118 0.931 . S
C110 C106 1.323 . S
C110 C109 1.433 . S
C110 H119 0.933 . S
C111 Dy81 2.738 . S
C111 O91 1.255 . S
C111 O92 1.249 . S
C111 C105 1.516 . S
H112 C98 0.930 . S
H113 C99 0.931 . S
H114 C100 0.931 . S
H115 C101 0.933 . S
H116 C107 0.930 . S
H117 C108 0.931 . S
H118 C109 0.931 . S
H119 C110 0.933 . S
H120 C123 0.929 . S
H121 C126 0.929 . S
H122 C128 0.930 . S
C123 H120 0.929 . S
C123 C124 1.398 . S
C123 C125 1.396 . S
C124 C123 1.398 . S
C124 C128 1.407 . S
C125 C123 1.396 . S
C125 C126 1.394 . S
C126 H121 0.929 . S
C126 C125 1.394 . S
C126 C127 1.382 . S
C127 C126 1.382 . S
C127 C128 1.392 . S
C127 N129 1.420 . S
C128 H122 0.930 . S
C128 C124 1.407 . S
C128 C127 1.392 . S
N129 C127 1.420 . S
N129 C130 1.244 . S
C130 N129 1.244 . S
H131 C134 0.929 . S
H132 C137 0.929 . S
H133 C139 0.930 . S
C134 H131 0.929 . S
C134 C135 1.398 . S
C134 C136 1.396 . S
C135 C134 1.398 . S
C135 C139 1.407 . S
C136 C134 1.396 . S
C136 C137 1.394 . S
C137 H132 0.929 . S
C137 C136 1.394 . S
C137 C138 1.382 . S
C138 C137 1.382 . S
C138 C139 1.392 . S
C138 N140 1.420 . S
C139 H133 0.930 . S
C139 C135 1.407 . S
C139 C138 1.392 . S
N140 C138 1.420 . S
N140 C141 1.244 . S
C141 N140 1.244 . S
H142 C145 0.929 . S
H143 C148 0.929 . S
H144 C150 0.930 1_655 S
C145 H142 0.929 . S
C145 C146 1.398 . S
C145 C147 1.396 1_655 S
C146 C145 1.398 . S
C146 C150 1.387 1_655 S
C147 C145 1.396 1_455 S
C147 C148 1.394 . S
C148 H143 0.929 . S
C148 C147 1.394 . S
C148 C149 1.382 . S
C149 C148 1.382 . S
C149 C150 1.413 . S
C149 N151 1.420 . S
C150 H144 0.930 1_455 S
C150 C146 1.387 1_455 S
C150 C149 1.413 . S
N151 C149 1.420 . S
N151 C152 1.244 . S
C152 N151 1.244 . S
H153 C156 0.929 . S
H154 C159 0.929 . S
H155 C161 0.930 . S
C156 H153 0.929 . S
C156 C157 1.398 . S
C156 C158 1.396 . S
C157 C156 1.398 . S
C157 C161 1.407 . S
C158 C156 1.396 . S
C158 C159 1.394 1_455 S
C159 H154 0.929 . S
C159 C158 1.394 1_655 S
C159 C160 1.382 1_655 S
C160 C159 1.382 1_455 S
C160 C161 1.392 . S
C160 N162 1.420 1_455 S
C161 H155 0.930 . S
C161 C157 1.407 . S
C161 C160 1.392 . S
N162 C160 1.420 1_655 S
N162 C163 1.244 . S
C163 N162 1.244 . S
H164 C167 0.929 . S
H165 C170 0.929 . S
H166 C172 0.930 . S
C167 H164 0.929 . S
C167 C168 1.398 . S
C167 C169 1.396 . S
C168 C167 1.398 . S
C168 C172 1.407 . S
C169 C167 1.396 . S
C169 C170 1.394 1_545 S
C170 H165 0.929 . S
C170 C169 1.394 1_565 S
C170 C171 1.382 . S
C171 C170 1.382 . S
C171 C172 1.392 1_565 S
C171 N173 1.420 . S
C172 H166 0.930 . S
C172 C168 1.407 . S
C172 C171 1.392 1_545 S
N173 C171 1.420 . S
N173 C174 1.244 . S
C174 N173 1.244 . S
H175 C178 0.929 . S
H176 C181 0.929 . S
H177 C183 0.930 . S
C178 H175 0.929 . S
C178 C179 1.398 . S
C178 C180 1.396 . S
C179 C178 1.398 . S
C179 C183 1.407 . S
C180 C178 1.396 . S
C180 C181 1.394 . S
C181 H176 0.929 . S
C181 C180 1.394 . S
C181 C182 1.382 . S
C182 C181 1.382 . S
C182 C183 1.392 . S
C182 N184 1.420 . S
C183 H177 0.930 . S
C183 C179 1.407 . S
C183 C182 1.392 . S
N184 C182 1.420 . S
N184 C185 1.244 . S
C185 N184 1.244 . S
C186 C187 1.369 . S
C186 C188 1.419 . S
C186 H190 0.930 . S
C187 C186 1.369 . S
C187 C196 1.429 . S
C188 C186 1.419 . S
C188 C189 1.363 . S
C188 H191 0.929 . S
C189 C188 1.363 . S
C189 C195 1.428 . S
H190 C186 0.930 . S
H191 C188 0.929 . S
S192 N193 1.613 . S
S192 N194 1.610 . S
N193 S192 1.613 . S
N193 C196 1.350 . S
N194 S192 1.610 . S
N194 C195 1.351 . S
C195 C189 1.428 . S
C195 N194 1.351 . S
C195 C196 1.434 . S
C196 C187 1.429 . S
C196 N193 1.350 . S
C196 C195 1.434 . S
C197 C198 1.369 . S
C197 C199 1.419 . S
C197 H201 0.930 . S
C198 C197 1.369 . S
C198 C207 1.429 . S
C199 C197 1.419 . S
C199 C200 1.363 . S
C199 H202 0.929 . S
C200 C199 1.363 . S
C200 C206 1.428 . S
H201 C197 0.930 . S
H202 C199 0.929 . S
S203 N204 1.613 . S
S203 N205 1.610 . S
N204 S203 1.613 . S
N204 C207 1.350 . S
N205 S203 1.610 . S
N205 C206 1.351 . S
C206 C200 1.428 . S
C206 N205 1.351 . S
C206 C207 1.434 . S
C207 C198 1.429 . S
C207 N204 1.350 . S
C207 C206 1.434 . S
C208 C209 1.369 . S
C208 C210 1.419 . S
C208 H212 0.930 . S
C209 C208 1.369 . S
C209 C218 1.429 . S
C210 C208 1.419 . S
C210 C211 1.363 . S
C210 H213 0.929 . S
C211 C210 1.363 . S
C211 C217 1.428 . S
H212 C208 0.930 . S
H213 C210 0.929 . S
S214 N215 1.613 . S
S214 N216 1.610 . S
N215 S214 1.613 . S
N215 C218 1.350 . S
N216 S214 1.610 . S
N216 C217 1.351 . S
C217 C211 1.428 . S
C217 N216 1.351 . S
C217 C218 1.434 . S
C218 C209 1.429 . S
C218 N215 1.350 . S
C218 C217 1.434 . S
C219 C220 1.369 . S
C219 C221 1.419 . S
C219 H223 0.930 . S
C220 C219 1.369 . S
C220 C229 1.429 . S
C221 C219 1.419 . S
C221 C222 1.363 . S
C221 H224 0.929 . S
C222 C221 1.363 . S
C222 C228 1.428 . S
H223 C219 0.930 . S
H224 C221 0.929 . S
S225 N226 1.613 . S
S225 N227 1.610 . S
N226 S225 1.613 . S
N226 C229 1.350 . S
N227 S225 1.610 . S
N227 C228 1.351 . S
C228 C222 1.428 . S
C228 N227 1.351 . S
C228 C229 1.434 . S
C229 C220 1.429 . S
C229 N226 1.350 . S
C229 C228 1.434 . S
C230 C231 1.369 . S
C230 C232 1.419 . S
C230 H234 0.930 . S
C231 C230 1.369 . S
C231 C240 1.429 . S
C232 C230 1.419 . S
C232 C233 1.363 . S
C232 H235 0.929 . S
C233 C232 1.363 . S
C233 C239 1.428 . S
H234 C230 0.930 . S
H235 C232 0.929 . S
S236 N237 1.613 . S
S236 N238 1.610 . S
N237 S236 1.613 . S
N237 C240 1.350 . S
N238 S236 1.610 . S
N238 C239 1.351 . S
C239 C233 1.428 . S
C239 N238 1.351 . S
C239 C240 1.434 . S
C240 C231 1.429 . S
C240 N237 1.350 . S
C240 C239 1.434 . S
C241 C242 1.369 . S
C241 C243 1.419 . S
C241 H245 0.930 . S
C242 C241 1.369 . S
C242 C251 1.429 . S
C243 C241 1.419 . S
C243 C244 1.363 . S
C243 H246 0.929 . S
C244 C243 1.363 . S
C244 C250 1.428 . S
H245 C241 0.930 . S
H246 C243 0.929 . S
S247 N248 1.613 . S
S247 N249 1.610 . S
N248 S247 1.613 . S
N248 C251 1.350 . S
N249 S247 1.610 . S
N249 C250 1.351 . S
C250 C244 1.428 . S
C250 N249 1.351 . S
C250 C251 1.434 . S
C251 C242 1.429 . S
C251 N248 1.350 . S
C251 C250 1.434 . S
C252 C253 1.369 . S
C252 C254 1.419 . S
C252 H256 0.930 . S
C253 C252 1.369 . S
C253 C262 1.429 . S
C254 C252 1.419 . S
C254 C255 1.363 . S
C254 H257 0.929 . S
C255 C254 1.363 . S
C255 C261 1.428 . S
H256 C252 0.930 . S
H257 C254 0.929 . S
S258 N259 1.613 . S
S258 N260 1.610 . S
N259 S258 1.613 . S
N259 C262 1.350 . S
N260 S258 1.610 . S
N260 C261 1.351 . S
C261 C255 1.428 . S
C261 N260 1.351 . S
C261 C262 1.434 . S
C262 C253 1.429 . S
C262 N259 1.350 . S
C262 C261 1.434 . S
C263 C264 1.369 . S
C263 C265 1.419 . S
C263 H267 0.930 . S
C264 C263 1.369 . S
C264 C273 1.429 . S
C265 C263 1.419 . S
C265 C266 1.363 . S
C265 H268 0.929 . S
C266 C265 1.363 . S
C266 C272 1.428 . S
H267 C263 0.930 . S
H268 C265 0.929 . S
S269 N270 1.613 . S
S269 N271 1.610 . S
N270 S269 1.613 . S
N270 C273 1.350 . S
N271 S269 1.610 . S
N271 C272 1.351 . S
C272 C266 1.428 . S
C272 N271 1.351 . S
C272 C273 1.434 . S
C273 C264 1.429 . S
C273 N270 1.350 . S
C273 C272 1.434 . S
C274 C275 1.369 . S
C274 C276 1.419 . S
C274 H278 0.930 . S
C275 C274 1.369 . S
C275 C284 1.429 . S
C276 C274 1.419 . S
C276 C277 1.363 . S
C276 H279 0.929 . S
C277 C276 1.363 . S
C277 C283 1.428 . S
H278 C274 0.930 . S
H279 C276 0.929 . S
S280 N281 1.613 . S
S280 N282 1.610 . S
N281 S280 1.613 . S
N281 C284 1.350 . S
N282 S280 1.610 . S
N282 C283 1.351 . S
C283 C277 1.428 . S
C283 N282 1.351 . S
C283 C284 1.434 . S
C284 C275 1.429 . S
C284 N281 1.350 . S
C284 C283 1.434 . S
C285 C286 1.369 . S
C285 C287 1.419 . S
C285 H289 0.930 . S
C286 C285 1.369 . S
C286 C295 1.429 . S
C287 C285 1.419 . S
C287 C288 1.363 . S
C287 H290 0.929 . S
C288 C287 1.363 . S
C288 C294 1.428 . S
H289 C285 0.930 . S
H290 C287 0.929 . S
S291 N292 1.613 . S
S291 N293 1.610 . S
N292 S291 1.613 . S
N292 C295 1.350 . S
N293 S291 1.610 . S
N293 C294 1.351 . S
C294 C288 1.428 . S
C294 N293 1.351 . S
C294 C295 1.434 . S
C295 C286 1.429 . S
C295 N292 1.350 . S
C295 C294 1.434 . S
C296 C297 1.369 . S
C296 C298 1.419 . S
C296 H300 0.930 . S
C297 C296 1.369 . S
C297 C306 1.429 . S
C298 C296 1.419 . S
C298 C299 1.363 . S
C298 H301 0.929 . S
C299 C298 1.363 . S
C299 C305 1.428 . S
H300 C296 0.930 . S
H301 C298 0.929 . S
S302 N303 1.613 . S
S302 N304 1.610 . S
N303 S302 1.613 . S
N303 C306 1.350 . S
N304 S302 1.610 . S
N304 C305 1.351 . S
C305 C299 1.428 . S
C305 N304 1.351 . S
C305 C306 1.434 . S
C306 C297 1.429 . S
C306 N303 1.350 . S
C306 C305 1.434 . S
C307 C308 1.369 . S
C307 C309 1.419 . S
C307 H311 0.930 . S
C308 C307 1.369 . S
C308 C317 1.429 . S
C309 C307 1.419 . S
C309 C310 1.363 . S
C309 H312 0.929 . S
C310 C309 1.363 . S
C310 C316 1.428 . S
H311 C307 0.930 . S
H312 C309 0.929 . S
S313 N314 1.613 . S
S313 N315 1.610 . S
N314 S313 1.613 . S
N314 C317 1.350 . S
N315 S313 1.610 . S
N315 C316 1.351 . S
C316 C310 1.428 . S
C316 N315 1.351 . S
C316 C317 1.434 . S
C317 C308 1.429 . S
C317 N314 1.350 . S
C317 C316 1.434 . S
C318 C319 1.369 . S
C318 C320 1.419 . S
C318 H322 0.930 . S
C319 C318 1.369 . S
C319 C328 1.429 1_455 S
C320 C318 1.419 . S
C320 C321 1.363 1_554 S
C320 H323 0.929 1_554 S
C321 C320 1.363 1_556 S
C321 C327 1.428 1_455 S
H322 C318 0.930 . S
H323 C320 0.929 1_556 S
S324 N325 1.613 . S
S324 N326 1.610 1_554 S
N325 S324 1.613 . S
N325 C328 1.350 . S
N326 S324 1.610 1_556 S
N326 C327 1.351 . S
C327 C321 1.428 1_655 S
C327 N326 1.351 . S
C327 C328 1.434 1_556 S
C328 C319 1.429 1_655 S
C328 N325 1.350 . S
C328 C327 1.434 1_554 S
C329 C330 1.369 . S
C329 C331 1.419 . S
C329 H333 0.930 . S
C330 C329 1.369 . S
C330 C339 1.429 . S
C331 C329 1.419 . S
C331 C332 1.363 . S
C331 H334 0.929 . S
C332 C331 1.363 . S
C332 C338 1.428 . S
H333 C329 0.930 . S
H334 C331 0.929 . S
S335 N336 1.613 . S
S335 N337 1.610 1_565 S
N336 S335 1.613 . S
N336 C339 1.350 1_565 S
N337 S335 1.610 1_545 S
N337 C338 1.351 . S
C338 C332 1.428 . S
C338 N337 1.351 . S
C338 C339 1.434 . S
C339 C330 1.429 . S
C339 N336 1.350 1_545 S
C339 C338 1.434 . S
C340 C341 1.369 . S
C340 C342 1.419 . S
C340 H344 0.930 . S
C341 C340 1.369 . S
C341 C350 1.429 . S
C342 C340 1.419 . S
C342 C343 1.363 . S
C342 H345 0.929 . S
C343 C342 1.363 . S
C343 C349 1.428 . S
H344 C340 0.930 . S
H345 C342 0.929 . S
S346 N347 1.613 . S
S346 N348 1.610 . S
N347 S346 1.613 . S
N347 C350 1.350 . S
N348 S346 1.610 . S
N348 C349 1.351 . S
C349 C343 1.428 . S
C349 N348 1.351 . S
C349 C350 1.434 . S
C350 C341 1.429 . S
C350 N347 1.350 . S
C350 C349 1.434 . S
C351 C352 1.369 1_565 S
C351 C353 1.419 . S
C351 H355 0.930 . S
C352 C351 1.369 1_545 S
C352 C361 1.429 . S
C353 C351 1.419 . S
C353 C354 1.363 1_565 S
C353 H356 0.929 . S
C354 C353 1.363 1_545 S
C354 C360 1.428 . S
H355 C351 0.930 . S
H356 C353 0.929 . S
S357 N358 1.613 . S
S357 N359 1.610 . S
N358 S357 1.613 . S
N358 C361 1.350 . S
N359 S357 1.610 . S
N359 C360 1.351 . S
C360 C354 1.428 . S
C360 N359 1.351 . S
C360 C361 1.434 . S
C361 C352 1.429 . S
C361 N358 1.350 . S
C361 C360 1.434 . S
C362 C363 1.369 . S
C362 C364 1.419 1_556 S
C362 H366 0.930 . S
C363 C362 1.369 . S
C363 C372 1.429 . S
C364 C362 1.419 1_554 S
C364 C365 1.363 . S
C364 H367 0.929 . S
C365 C364 1.363 . S
C365 C371 1.428 1_554 S
H366 C362 0.930 . S
H367 C364 0.929 . S
S368 N369 1.613 . S
S368 N370 1.610 1_556 S
N369 S368 1.613 . S
N369 C372 1.350 . S
N370 S368 1.610 1_554 S
N370 C371 1.351 1_554 S
C371 C365 1.428 1_556 S
C371 N370 1.351 1_556 S
C371 C372 1.434 . S
C372 C363 1.429 . S
C372 N369 1.350 . S
C372 C371 1.434 . S
C373 C374 1.369 . S
C373 C375 1.419 . S
C373 H377 0.930 . S
C374 C373 1.369 . S
C374 C383 1.428 1_455 S
C375 C373 1.419 . S
C375 C376 1.363 . S
C375 H378 0.929 . S
C376 C375 1.363 . S
C376 C382 1.428 . S
H377 C373 0.930 . S
H378 C375 0.929 . S
S379 N380 1.613 . S
S379 N381 1.610 . S
N380 S379 1.613 . S
N380 C383 1.350 . S
N381 S379 1.610 . S
N381 C382 1.351 1_655 S
C382 C376 1.428 . S
C382 N381 1.351 1_455 S
C382 C383 1.434 1_455 S
C383 C374 1.428 1_655 S
C383 N380 1.350 . S
C383 C382 1.434 1_655 S
C187 C24 3.093 . S
C189 C185 3.030 . S
C198 C66 1.280 . S
C200 C163 1.349 . S
C209 C93 1.910 . S
C211 C174 1.852 . S
C220 C13 3.069 . S
C222 C179 3.035 . S
C233 C157 1.216 . S
C231 C57 1.203 . S
C244 C168 1.866 . S
C242 C104 1.907 . S
C253 C64 1.999 . S
C255 C141 1.916 . S
C264 C97 0.803 . S
C266 C146 0.827 . S
C275 C17 1.398 . S
C277 C124 1.474 1_565 S
C288 C135 1.776 . S
C286 C53 1.812 . S
C299 C152 0.593 . S
C297 C106 0.657 . S
C308 C26 1.321 . S
C310 C130 1.395 . S
C321 C147 1.125 . S
C319 C2 1.096 . S
C330 C63 1.469 . S
C332 C125 1.478 . S
C341 C82 1.416 . S
C343 C136 1.446 . S
C354 C169 1.438 . S
C352 C42 1.409 . S
C365 C180 1.772 . S
C363 C103 1.751 . S
C374 C23 1.537 . S
C376 C158 1.540 . S
