# Generated by pormake.
# Topology tbo, (3,4)-cn, num edge types: 1
# Building blocks:
#     Node 0, Type 0, BuildingBlock: WUSLED_clean_sbu_0, # of connection points: 3
#     Node 1, Type 0, BuildingBlock: WUSLED_clean_sbu_0, # of connection points: 3
#     Node 2, Type 0, BuildingBlock: WUSLED_clean_sbu_0, # of connection points: 3
#     Node 3, Type 0, BuildingBlock: WUSLED_clean_sbu_0, # of connection points: 3
#     Node 4, Type 0, BuildingBlock: WUSLED_clean_sbu_0, # of connection points: 3
#     Node 5, Type 0, BuildingBlock: WUSLED_clean_sbu_0, # of connection points: 3
#     Node 6, Type 0, BuildingBlock: WUSLED_clean_sbu_0, # of connection points: 3
#     Node 7, Type 0, BuildingBlock: WUSLED_clean_sbu_0, # of connection points: 3
#     Node 8, Type 0, BuildingBlock: WUSLED_clean_sbu_0, # of connection points: 3
#     Node 9, Type 0, BuildingBlock: WUSLED_clean_sbu_0, # of connection points: 3
#     Node 10, Type 0, BuildingBlock: WUSLED_clean_sbu_0, # of connection points: 3
#     Node 11, Type 0, BuildingBlock: WUSLED_clean_sbu_0, # of connection points: 3
#     Node 12, Type 0, BuildingBlock: WUSLED_clean_sbu_0, # of connection points: 3
#     Node 13, Type 0, BuildingBlock: WUSLED_clean_sbu_0, # of connection points: 3
#     Node 14, Type 0, BuildingBlock: WUSLED_clean_sbu_0, # of connection points: 3
#     Node 15, Type 0, BuildingBlock: WUSLED_clean_sbu_0, # of connection points: 3
#     Node 16, Type 0, BuildingBlock: WUSLED_clean_sbu_0, # of connection points: 3
#     Node 17, Type 0, BuildingBlock: WUSLED_clean_sbu_0, # of connection points: 3
#     Node 18, Type 0, BuildingBlock: WUSLED_clean_sbu_0, # of connection points: 3
#     Node 19, Type 0, BuildingBlock: WUSLED_clean_sbu_0, # of connection points: 3
#     Node 20, Type 0, BuildingBlock: WUSLED_clean_sbu_0, # of connection points: 3
#     Node 21, Type 0, BuildingBlock: WUSLED_clean_sbu_0, # of connection points: 3
#     Node 22, Type 0, BuildingBlock: WUSLED_clean_sbu_0, # of connection points: 3
#     Node 23, Type 0, BuildingBlock: WUSLED_clean_sbu_0, # of connection points: 3
#     Node 24, Type 0, BuildingBlock: WUSLED_clean_sbu_0, # of connection points: 3
#     Node 25, Type 0, BuildingBlock: WUSLED_clean_sbu_0, # of connection points: 3
#     Node 26, Type 0, BuildingBlock: WUSLED_clean_sbu_0, # of connection points: 3
#     Node 27, Type 0, BuildingBlock: WUSLED_clean_sbu_0, # of connection points: 3
#     Node 28, Type 0, BuildingBlock: WUSLED_clean_sbu_0, # of connection points: 3
#     Node 29, Type 0, BuildingBlock: WUSLED_clean_sbu_0, # of connection points: 3
#     Node 30, Type 0, BuildingBlock: WUSLED_clean_sbu_0, # of connection points: 3
#     Node 31, Type 0, BuildingBlock: WUSLED_clean_sbu_0, # of connection points: 3
#     Node 32, Type 1, BuildingBlock: MUDLON_clean_linker_0, # of connection points: 4
#     Node 33, Type 1, BuildingBlock: MUDLON_clean_linker_0, # of connection points: 4
#     Node 34, Type 1, BuildingBlock: MUDLON_clean_linker_0, # of connection points: 4
#     Node 35, Type 1, BuildingBlock: MUDLON_clean_linker_0, # of connection points: 4
#     Node 36, Type 1, BuildingBlock: MUDLON_clean_linker_0, # of connection points: 4
#     Node 37, Type 1, BuildingBlock: MUDLON_clean_linker_0, # of connection points: 4
#     Node 38, Type 1, BuildingBlock: MUDLON_clean_linker_0, # of connection points: 4
#     Node 39, Type 1, BuildingBlock: MUDLON_clean_linker_0, # of connection points: 4
#     Node 40, Type 1, BuildingBlock: MUDLON_clean_linker_0, # of connection points: 4
#     Node 41, Type 1, BuildingBlock: MUDLON_clean_linker_0, # of connection points: 4
#     Node 42, Type 1, BuildingBlock: MUDLON_clean_linker_0, # of connection points: 4
#     Node 43, Type 1, BuildingBlock: MUDLON_clean_linker_0, # of connection points: 4
#     Node 44, Type 1, BuildingBlock: MUDLON_clean_linker_0, # of connection points: 4
#     Node 45, Type 1, BuildingBlock: MUDLON_clean_linker_0, # of connection points: 4
#     Node 46, Type 1, BuildingBlock: MUDLON_clean_linker_0, # of connection points: 4
#     Node 47, Type 1, BuildingBlock: MUDLON_clean_linker_0, # of connection points: 4
#     Node 48, Type 1, BuildingBlock: MUDLON_clean_linker_0, # of connection points: 4
#     Node 49, Type 1, BuildingBlock: MUDLON_clean_linker_0, # of connection points: 4
#     Node 50, Type 1, BuildingBlock: MUDLON_clean_linker_0, # of connection points: 4
#     Node 51, Type 1, BuildingBlock: MUDLON_clean_linker_0, # of connection points: 4
#     Node 52, Type 1, BuildingBlock: MUDLON_clean_linker_0, # of connection points: 4
#     Node 53, Type 1, BuildingBlock: MUDLON_clean_linker_0, # of connection points: 4
#     Node 54, Type 1, BuildingBlock: MUDLON_clean_linker_0, # of connection points: 4
#     Node 55, Type 1, BuildingBlock: MUDLON_clean_linker_0, # of connection points: 4
#     Edge 56, Type (0, 1), BuildingBlock: TEMPAE_clean_linker_10, # of connection points: 2
#     Edge 57, Type (0, 1), BuildingBlock: TEMPAE_clean_linker_10, # of connection points: 2
#     Edge 58, Type (0, 1), BuildingBlock: TEMPAE_clean_linker_10, # of connection points: 2
#     Edge 59, Type (0, 1), BuildingBlock: TEMPAE_clean_linker_10, # of connection points: 2
#     Edge 60, Type (0, 1), BuildingBlock: TEMPAE_clean_linker_10, # of connection points: 2
#     Edge 61, Type (0, 1), BuildingBlock: TEMPAE_clean_linker_10, # of connection points: 2
#     Edge 62, Type (0, 1), BuildingBlock: TEMPAE_clean_linker_10, # of connection points: 2
#     Edge 63, Type (0, 1), BuildingBlock: TEMPAE_clean_linker_10, # of connection points: 2
#     Edge 64, Type (0, 1), BuildingBlock: TEMPAE_clean_linker_10, # of connection points: 2
#     Edge 65, Type (0, 1), BuildingBlock: TEMPAE_clean_linker_10, # of connection points: 2
#     Edge 66, Type (0, 1), BuildingBlock: TEMPAE_clean_linker_10, # of connection points: 2
#     Edge 67, Type (0, 1), BuildingBlock: TEMPAE_clean_linker_10, # of connection points: 2
#     Edge 68, Type (0, 1), BuildingBlock: TEMPAE_clean_linker_10, # of connection points: 2
#     Edge 69, Type (0, 1), BuildingBlock: TEMPAE_clean_linker_10, # of connection points: 2
#     Edge 70, Type (0, 1), BuildingBlock: TEMPAE_clean_linker_10, # of connection points: 2
#     Edge 71, Type (0, 1), BuildingBlock: TEMPAE_clean_linker_10, # of connection points: 2
#     Edge 72, Type (0, 1), BuildingBlock: TEMPAE_clean_linker_10, # of connection points: 2
#     Edge 73, Type (0, 1), BuildingBlock: TEMPAE_clean_linker_10, # of connection points: 2
#     Edge 74, Type (0, 1), BuildingBlock: TEMPAE_clean_linker_10, # of connection points: 2
#     Edge 75, Type (0, 1), BuildingBlock: TEMPAE_clean_linker_10, # of connection points: 2
#     Edge 76, Type (0, 1), BuildingBlock: TEMPAE_clean_linker_10, # of connection points: 2
#     Edge 77, Type (0, 1), BuildingBlock: TEMPAE_clean_linker_10, # of connection points: 2
#     Edge 78, Type (0, 1), BuildingBlock: TEMPAE_clean_linker_10, # of connection points: 2
#     Edge 79, Type (0, 1), BuildingBlock: TEMPAE_clean_linker_10, # of connection points: 2
#     Edge 80, Type (0, 1), BuildingBlock: TEMPAE_clean_linker_10, # of connection points: 2
#     Edge 81, Type (0, 1), BuildingBlock: TEMPAE_clean_linker_10, # of connection points: 2
#     Edge 82, Type (0, 1), BuildingBlock: TEMPAE_clean_linker_10, # of connection points: 2
#     Edge 83, Type (0, 1), BuildingBlock: TEMPAE_clean_linker_10, # of connection points: 2
#     Edge 84, Type (0, 1), BuildingBlock: TEMPAE_clean_linker_10, # of connection points: 2
#     Edge 85, Type (0, 1), BuildingBlock: TEMPAE_clean_linker_10, # of connection points: 2
#     Edge 86, Type (0, 1), BuildingBlock: TEMPAE_clean_linker_10, # of connection points: 2
#     Edge 87, Type (0, 1), BuildingBlock: TEMPAE_clean_linker_10, # of connection points: 2
#     Edge 88, Type (0, 1), BuildingBlock: TEMPAE_clean_linker_10, # of connection points: 2
#     Edge 89, Type (0, 1), BuildingBlock: TEMPAE_clean_linker_10, # of connection points: 2
#     Edge 90, Type (0, 1), BuildingBlock: TEMPAE_clean_linker_10, # of connection points: 2
#     Edge 91, Type (0, 1), BuildingBlock: TEMPAE_clean_linker_10, # of connection points: 2
#     Edge 92, Type (0, 1), BuildingBlock: TEMPAE_clean_linker_10, # of connection points: 2
#     Edge 93, Type (0, 1), BuildingBlock: TEMPAE_clean_linker_10, # of connection points: 2
#     Edge 94, Type (0, 1), BuildingBlock: TEMPAE_clean_linker_10, # of connection points: 2
#     Edge 95, Type (0, 1), BuildingBlock: TEMPAE_clean_linker_10, # of connection points: 2
#     Edge 96, Type (0, 1), BuildingBlock: TEMPAE_clean_linker_10, # of connection points: 2
#     Edge 97, Type (0, 1), BuildingBlock: TEMPAE_clean_linker_10, # of connection points: 2
#     Edge 98, Type (0, 1), BuildingBlock: TEMPAE_clean_linker_10, # of connection points: 2
#     Edge 99, Type (0, 1), BuildingBlock: TEMPAE_clean_linker_10, # of connection points: 2
#     Edge 100, Type (0, 1), BuildingBlock: TEMPAE_clean_linker_10, # of connection points: 2
#     Edge 101, Type (0, 1), BuildingBlock: TEMPAE_clean_linker_10, # of connection points: 2
#     Edge 102, Type (0, 1), BuildingBlock: TEMPAE_clean_linker_10, # of connection points: 2
#     Edge 103, Type (0, 1), BuildingBlock: TEMPAE_clean_linker_10, # of connection points: 2
#     Edge 104, Type (0, 1), BuildingBlock: TEMPAE_clean_linker_10, # of connection points: 2
#     Edge 105, Type (0, 1), BuildingBlock: TEMPAE_clean_linker_10, # of connection points: 2
#     Edge 106, Type (0, 1), BuildingBlock: TEMPAE_clean_linker_10, # of connection points: 2
#     Edge 107, Type (0, 1), BuildingBlock: TEMPAE_clean_linker_10, # of connection points: 2
#     Edge 108, Type (0, 1), BuildingBlock: TEMPAE_clean_linker_10, # of connection points: 2
#     Edge 109, Type (0, 1), BuildingBlock: TEMPAE_clean_linker_10, # of connection points: 2
#     Edge 110, Type (0, 1), BuildingBlock: TEMPAE_clean_linker_10, # of connection points: 2
#     Edge 111, Type (0, 1), BuildingBlock: TEMPAE_clean_linker_10, # of connection points: 2
#     Edge 112, Type (0, 1), BuildingBlock: TEMPAE_clean_linker_10, # of connection points: 2
#     Edge 113, Type (0, 1), BuildingBlock: TEMPAE_clean_linker_10, # of connection points: 2
#     Edge 114, Type (0, 1), BuildingBlock: TEMPAE_clean_linker_10, # of connection points: 2
#     Edge 115, Type (0, 1), BuildingBlock: TEMPAE_clean_linker_10, # of connection points: 2
#     Edge 116, Type (0, 1), BuildingBlock: TEMPAE_clean_linker_10, # of connection points: 2
#     Edge 117, Type (0, 1), BuildingBlock: TEMPAE_clean_linker_10, # of connection points: 2
#     Edge 118, Type (0, 1), BuildingBlock: TEMPAE_clean_linker_10, # of connection points: 2
#     Edge 119, Type (0, 1), BuildingBlock: TEMPAE_clean_linker_10, # of connection points: 2
#     Edge 120, Type (0, 1), BuildingBlock: TEMPAE_clean_linker_10, # of connection points: 2
#     Edge 121, Type (0, 1), BuildingBlock: TEMPAE_clean_linker_10, # of connection points: 2
#     Edge 122, Type (0, 1), BuildingBlock: TEMPAE_clean_linker_10, # of connection points: 2
#     Edge 123, Type (0, 1), BuildingBlock: TEMPAE_clean_linker_10, # of connection points: 2
#     Edge 124, Type (0, 1), BuildingBlock: TEMPAE_clean_linker_10, # of connection points: 2
#     Edge 125, Type (0, 1), BuildingBlock: TEMPAE_clean_linker_10, # of connection points: 2
#     Edge 126, Type (0, 1), BuildingBlock: TEMPAE_clean_linker_10, # of connection points: 2
#     Edge 127, Type (0, 1), BuildingBlock: TEMPAE_clean_linker_10, # of connection points: 2
#     Edge 128, Type (0, 1), BuildingBlock: TEMPAE_clean_linker_10, # of connection points: 2
#     Edge 129, Type (0, 1), BuildingBlock: TEMPAE_clean_linker_10, # of connection points: 2
#     Edge 130, Type (0, 1), BuildingBlock: TEMPAE_clean_linker_10, # of connection points: 2
#     Edge 131, Type (0, 1), BuildingBlock: TEMPAE_clean_linker_10, # of connection points: 2
#     Edge 132, Type (0, 1), BuildingBlock: TEMPAE_clean_linker_10, # of connection points: 2
#     Edge 133, Type (0, 1), BuildingBlock: TEMPAE_clean_linker_10, # of connection points: 2
#     Edge 134, Type (0, 1), BuildingBlock: TEMPAE_clean_linker_10, # of connection points: 2
#     Edge 135, Type (0, 1), BuildingBlock: TEMPAE_clean_linker_10, # of connection points: 2
#     Edge 136, Type (0, 1), BuildingBlock: TEMPAE_clean_linker_10, # of connection points: 2
#     Edge 137, Type (0, 1), BuildingBlock: TEMPAE_clean_linker_10, # of connection points: 2
#     Edge 138, Type (0, 1), BuildingBlock: TEMPAE_clean_linker_10, # of connection points: 2
#     Edge 139, Type (0, 1), BuildingBlock: TEMPAE_clean_linker_10, # of connection points: 2
#     Edge 140, Type (0, 1), BuildingBlock: TEMPAE_clean_linker_10, # of connection points: 2
#     Edge 141, Type (0, 1), BuildingBlock: TEMPAE_clean_linker_10, # of connection points: 2
#     Edge 142, Type (0, 1), BuildingBlock: TEMPAE_clean_linker_10, # of connection points: 2
#     Edge 143, Type (0, 1), BuildingBlock: TEMPAE_clean_linker_10, # of connection points: 2
#     Edge 144, Type (0, 1), BuildingBlock: TEMPAE_clean_linker_10, # of connection points: 2
#     Edge 145, Type (0, 1), BuildingBlock: TEMPAE_clean_linker_10, # of connection points: 2
#     Edge 146, Type (0, 1), BuildingBlock: TEMPAE_clean_linker_10, # of connection points: 2
#     Edge 147, Type (0, 1), BuildingBlock: TEMPAE_clean_linker_10, # of connection points: 2
#     Edge 148, Type (0, 1), BuildingBlock: TEMPAE_clean_linker_10, # of connection points: 2
#     Edge 149, Type (0, 1), BuildingBlock: TEMPAE_clean_linker_10, # of connection points: 2
#     Edge 150, Type (0, 1), BuildingBlock: TEMPAE_clean_linker_10, # of connection points: 2
#     Edge 151, Type (0, 1), BuildingBlock: TEMPAE_clean_linker_10, # of connection points: 2
# Relax obj value: 0.001
# Max RMSD: 0.045
# Mean RMSD: 0.021
data_MOF--net-tbo--node1-WUSLED_clean_sbu_0--node2-MUDLON_clean_linker_0--edge1-TEMPAE_clean_linker_10
_symmetry_space_group_name_H-M    P1
_symmetry_Int_Tables_number       1
_symmetry_cell_setting            triclinic
loop_
_symmetry_equiv_pos_as_xyz
'x, y, z'
_cell_length_a     119.98212
_cell_length_b     120.36559
_cell_length_c     120.1497
_cell_angle_alpha  89.510015
_cell_angle_beta   90.430918
_cell_angle_gamma 91.009926
loop_
_atom_site_label
_atom_site_type_symbol
_atom_site_fract_x
_atom_site_fract_y
_atom_site_fract_z
_atom_type_partial_charge
C0 C 0.19242 0.15177 0.19631 0.0
C1 C 0.20077 0.14724 0.18969 0.0
C2 C 0.20458 0.1333 0.20404 0.0
C3 C 0.20678 0.13805 0.19351 0.0
C4 C 0.1962 0.13792 0.21061 0.0
C5 C 0.19019 0.14705 0.20677 0.0
U6 U 0.18725 0.17641 0.17656 0.0
O7 O 0.17145 0.1825 0.16956 0.0
O8 O 0.18165 0.19326 0.18037 0.0
C9 C 0.1722 0.19197 0.1749 0.0
C10 C 0.18596 0.16139 0.19252 0.0
C11 C 0.16212 0.1953 0.18085 0.0
C12 C 0.14928 0.19352 0.19636 0.0
C13 C 0.15877 0.18998 0.19074 0.0
C14 C 0.14638 0.20763 0.18218 0.0
C15 C 0.14301 0.20245 0.19218 0.0
C16 C 0.15584 0.20409 0.17659 0.0
C17 C 0.20731 0.18282 0.15263 0.0
C18 C 0.20519 0.19877 0.14029 0.0
C19 C 0.22051 0.18622 0.1377 0.0
C20 C 0.2168 0.17979 0.14674 0.0
C21 C 0.21479 0.19583 0.13439 0.0
C22 C 0.20149 0.19232 0.14934 0.0
C23 C 0.2037 0.17606 0.16226 0.0
O24 O 0.19087 0.17115 0.19379 0.0
O25 O 0.18085 0.16033 0.18286 0.0
O26 O 0.19434 0.17038 0.16093 0.0
O27 O 0.20444 0.181 0.17195 0.0
H28 H 0.20264 0.15081 0.1816 0.0
H29 H 0.21324 0.13477 0.18829 0.0
H30 H 0.19418 0.13437 0.21868 0.0
H31 H 0.18377 0.15042 0.21199 0.0
H32 H 0.14698 0.18941 0.20408 0.0
H33 H 0.16354 0.18318 0.19415 0.0
H34 H 0.14167 0.21439 0.17862 0.0
H35 H 0.15828 0.20826 0.16894 0.0
H36 H 0.20066 0.20617 0.13805 0.0
H37 H 0.22782 0.18362 0.13326 0.0
H38 H 0.22137 0.17246 0.14914 0.0
H39 H 0.19415 0.19479 0.15383 0.0
C40 C 0.81954 0.18337 0.15588 0.0
C41 C 0.82625 0.18446 0.14637 0.0
C42 C 0.81218 0.19575 0.13719 0.0
C43 C 0.82259 0.19056 0.1371 0.0
C44 C 0.80555 0.19475 0.14675 0.0
C45 C 0.80917 0.1886 0.15597 0.0
U46 U 0.83908 0.17634 0.18044 0.0
O47 O 0.83483 0.17109 0.1975 0.0
O48 O 0.84444 0.16011 0.18686 0.0
C49 C 0.8392 0.16124 0.19635 0.0
C50 C 0.82289 0.17654 0.16561 0.0
C51 C 0.8321 0.15175 0.19978 0.0
C52 C 0.81665 0.13882 0.19647 0.0
C53 C 0.82327 0.14791 0.19304 0.0
C54 C 0.82761 0.13739 0.21343 0.0
C55 C 0.81876 0.13343 0.2067 0.0
C56 C 0.8342 0.14645 0.20998 0.0
C57 C 0.86527 0.19435 0.18611 0.0
C58 C 0.87441 0.19973 0.20346 0.0
C59 C 0.88515 0.19877 0.18652 0.0
C60 C 0.87553 0.19552 0.18065 0.0
C61 C 0.88467 0.20102 0.19797 0.0
C62 C 0.86482 0.19639 0.19761 0.0
C63 C 0.85514 0.19142 0.17959 0.0
O64 O 0.83188 0.17053 0.16459 0.0
O65 O 0.82222 0.18136 0.17536 0.0
O66 O 0.84551 0.19305 0.18442 0.0
O67 O 0.85541 0.18205 0.17406 0.0
H68 H 0.8343 0.18054 0.14602 0.0
H69 H 0.82791 0.19125 0.12988 0.0
H70 H 0.79742 0.19852 0.14702 0.0
H71 H 0.80379 0.18781 0.16314 0.0
H72 H 0.80998 0.13593 0.19104 0.0
H73 H 0.82152 0.15192 0.18512 0.0
H74 H 0.82935 0.13359 0.22144 0.0
H75 H 0.84096 0.14935 0.21532 0.0
H76 H 0.87381 0.20128 0.2123 0.0
H77 H 0.89291 0.19978 0.18205 0.0
H78 H 0.87609 0.19405 0.17179 0.0
H79 H 0.85704 0.1955 0.20208 0.0
C80 C 0.81817 0.83699 0.15399 0.0
C81 C 0.82238 0.82647 0.15162 0.0
C82 C 0.81051 0.82524 0.13507 0.0
C83 C 0.81857 0.82063 0.14226 0.0
C84 C 0.80644 0.83585 0.13745 0.0
C85 C 0.81023 0.84165 0.14682 0.0
U86 U 0.83781 0.84218 0.17891 0.0
O87 O 0.84391 0.85804 0.18587 0.0
O88 O 0.83372 0.84667 0.1961 0.0
C89 C 0.83865 0.85649 0.19533 0.0
C90 C 0.82171 0.84314 0.16399 0.0
C91 C 0.83216 0.86593 0.19925 0.0
C92 C 0.81603 0.87787 0.19812 0.0
C93 C 0.8221 0.86892 0.19409 0.0
C94 C 0.83006 0.88093 0.21242 0.0
C95 C 0.81991 0.88395 0.20739 0.0
C96 C 0.8361 0.87202 0.20839 0.0
C97 C 0.86321 0.82369 0.1841 0.0
C98 C 0.87209 0.81714 0.20118 0.0
C99 C 0.88304 0.81965 0.18448 0.0
C100 C 0.87353 0.82314 0.17871 0.0
C101 C 0.88241 0.81651 0.19576 0.0
C102 C 0.8626 0.82072 0.19543 0.0
C103 C 0.8532 0.827 0.17766 0.0
O104 O 0.82079 0.83771 0.17349 0.0
O105 O 0.83109 0.84888 0.16316 0.0
O106 O 0.8539 0.83661 0.17241 0.0
O107 O 0.84348 0.82523 0.1824 0.0
H108 H 0.82856 0.82275 0.15706 0.0
H109 H 0.82195 0.81253 0.1406 0.0
H110 H 0.80013 0.83958 0.13221 0.0
H111 H 0.80686 0.84974 0.14854 0.0
H112 H 0.8082 0.8799 0.19411 0.0
H113 H 0.81893 0.8643 0.18701 0.0
H114 H 0.8334 0.88553 0.21944 0.0
H115 H 0.84388 0.86986 0.21244 0.0
H116 H 0.87136 0.81491 0.2099 0.0
H117 H 0.89083 0.81916 0.18004 0.0
H118 H 0.87421 0.82532 0.16997 0.0
H119 H 0.85479 0.82109 0.19986 0.0
C120 C 0.16247 0.81475 0.18501 0.0
C121 C 0.15783 0.82188 0.19285 0.0
C122 C 0.14328 0.80805 0.19697 0.0
C123 C 0.14828 0.81857 0.19876 0.0
C124 C 0.14801 0.80098 0.18909 0.0
C125 C 0.1575 0.80431 0.18318 0.0
U126 U 0.18779 0.83385 0.17926 0.0
O127 O 0.20482 0.8294 0.1745 0.0
O128 O 0.1947 0.83967 0.1633 0.0
C129 C 0.2039 0.83399 0.16457 0.0
C130 C 0.17247 0.81799 0.17867 0.0
C131 C 0.20739 0.82713 0.15503 0.0
C132 C 0.2054 0.82127 0.13573 0.0
C133 C 0.20157 0.82728 0.14482 0.0
C134 C 0.22087 0.81473 0.14687 0.0
C135 C 0.21513 0.81497 0.13663 0.0
C136 C 0.21708 0.82078 0.15594 0.0
C137 C 0.19362 0.85923 0.19763 0.0
C138 C 0.21036 0.87082 0.19616 0.0
C139 C 0.19562 0.87596 0.20869 0.0
C140 C 0.18942 0.86656 0.20549 0.0
C141 C 0.20619 0.8782 0.20409 0.0
C142 C 0.20412 0.86143 0.19294 0.0
C143 C 0.18697 0.84934 0.1945 0.0
O144 O 0.17181 0.82725 0.17283 0.0
O145 O 0.182 0.81703 0.18402 0.0
O146 O 0.1918 0.83974 0.19613 0.0
O147 O 0.18168 0.84999 0.18491 0.0
H148 H 0.16159 0.82997 0.1944 0.0
H149 H 0.14491 0.82417 0.20483 0.0
H150 H 0.14429 0.79291 0.18738 0.0
H151 H 0.16096 0.79871 0.17715 0.0
H152 H 0.20073 0.82155 0.12798 0.0
H153 H 0.1941 0.83212 0.14378 0.0
H154 H 0.22848 0.81009 0.1478 0.0
H155 H 0.22184 0.82062 0.16364 0.0
H156 H 0.21841 0.87237 0.19238 0.0
H157 H 0.19222 0.88137 0.21492 0.0
H158 H 0.18134 0.86498 0.20921 0.0
H159 H 0.20748 0.85587 0.18682 0.0
C160 C 0.16233 0.81092 0.83463 0.0
C161 C 0.15211 0.81631 0.83592 0.0
C162 C 0.14318 0.80393 0.82245 0.0
C163 C 0.14266 0.81285 0.82989 0.0
C164 C 0.1534 0.79856 0.82115 0.0
C165 C 0.16284 0.80197 0.82721 0.0
U166 U 0.18743 0.83026 0.84096 0.0
O167 O 0.19416 0.83613 0.857 0.0
O168 O 0.20455 0.82623 0.84604 0.0
C169 C 0.20362 0.83094 0.85581 0.0
C170 C 0.17233 0.81418 0.84128 0.0
C171 C 0.20725 0.82422 0.86541 0.0
C172 C 0.20537 0.80798 0.87746 0.0
C173 C 0.20168 0.81429 0.86835 0.0
C174 C 0.22019 0.8215 0.8808 0.0
C175 C 0.21471 0.81149 0.88378 0.0
C176 C 0.21649 0.82779 0.8717 0.0
C177 C 0.19278 0.85579 0.82232 0.0
C178 C 0.20591 0.87077 0.8267 0.0
C179 C 0.19779 0.86954 0.80822 0.0
C180 C 0.19177 0.86002 0.81146 0.0
C181 C 0.20493 0.87504 0.8158 0.0
C182 C 0.19992 0.86119 0.82992 0.0
C183 C 0.18632 0.84576 0.82549 0.0
O184 O 0.18201 0.81334 0.8363 0.0
O185 O 0.17163 0.82323 0.84728 0.0
O186 O 0.18096 0.84623 0.83498 0.0
O187 O 0.19136 0.83629 0.82406 0.0
H188 H 0.15136 0.82317 0.84161 0.0
H189 H 0.13494 0.81723 0.83101 0.0
H190 H 0.15405 0.79155 0.81561 0.0
H191 H 0.17053 0.79753 0.82616 0.0
H192 H 0.20103 0.80026 0.87945 0.0
H193 H 0.19452 0.8114 0.86356 0.0
H194 H 0.22729 0.82454 0.88556 0.0
H195 H 0.22086 0.83547 0.86957 0.0
H196 H 0.21143 0.87475 0.83269 0.0
H197 H 0.19675 0.87268 0.79981 0.0
H198 H 0.1863 0.85596 0.80548 0.0
H199 H 0.20086 0.858 0.83833 0.0
C200 C 0.15687 0.18039 0.82652 0.0
C201 C 0.15475 0.19096 0.83076 0.0
C202 C 0.13778 0.19203 0.8195 0.0
C203 C 0.14529 0.19674 0.82726 0.0
C204 C 0.13991 0.18136 0.81539 0.0
C205 C 0.14937 0.17562 0.81886 0.0
U206 U 0.1825 0.17603 0.84523 0.0
O207 O 0.18957 0.16052 0.85176 0.0
O208 O 0.19951 0.17128 0.84068 0.0
C209 C 0.19879 0.16171 0.846 0.0
C210 C 0.16692 0.17429 0.82981 0.0
C211 C 0.20223 0.15193 0.83968 0.0
C212 C 0.19825 0.13694 0.8267 0.0
C213 C 0.19477 0.14626 0.83257 0.0
C214 C 0.21667 0.13894 0.83489 0.0
C215 C 0.20926 0.13318 0.82777 0.0
C216 C 0.21318 0.14821 0.84078 0.0
C217 C 0.18855 0.19606 0.86935 0.0
C218 C 0.20573 0.19631 0.88023 0.0
C219 C 0.19035 0.20781 0.88564 0.0
C220 C 0.18406 0.2038 0.87663 0.0
C221 C 0.20128 0.20415 0.88754 0.0
C222 C 0.19941 0.19228 0.87123 0.0
C223 C 0.18181 0.19215 0.85981 0.0
O224 O 0.17646 0.17961 0.82828 0.0
O225 O 0.16642 0.16901 0.83942 0.0
O226 O 0.17663 0.18253 0.86119 0.0
O227 O 0.18647 0.19326 0.84999 0.0
H228 H 0.16043 0.19476 0.83672 0.0
H229 H 0.14383 0.20488 0.83069 0.0
H230 H 0.13439 0.17754 0.80931 0.0
H231 H 0.1509 0.16747 0.81548 0.0
H232 H 0.19236 0.13277 0.8212 0.0
H233 H 0.18628 0.14906 0.83156 0.0
H234 H 0.22516 0.13619 0.83602 0.0
H235 H 0.21905 0.15247 0.84624 0.0
H236 H 0.21407 0.19323 0.88152 0.0
H237 H 0.18671 0.21393 0.891 0.0
H238 H 0.1757 0.20683 0.8753 0.0
H239 H 0.203 0.18625 0.86571 0.0
C240 C 0.8198 0.15186 0.83798 0.0
C241 C 0.82631 0.14226 0.83749 0.0
C242 C 0.81214 0.13299 0.82606 0.0
C243 C 0.8225 0.13292 0.83161 0.0
C244 C 0.8057 0.14263 0.82648 0.0
C245 C 0.80947 0.15192 0.83241 0.0
U246 U 0.83951 0.17667 0.84417 0.0
O247 O 0.83564 0.19373 0.84902 0.0
O248 O 0.84552 0.18324 0.86025 0.0
C249 C 0.84017 0.19261 0.85897 0.0
C250 C 0.82334 0.16168 0.84457 0.0
C251 C 0.83348 0.19625 0.86857 0.0
C252 C 0.8169 0.20466 0.87621 0.0
C253 C 0.82272 0.20051 0.86713 0.0
C254 C 0.83235 0.20014 0.8884 0.0
C255 C 0.82169 0.20462 0.88693 0.0
C256 C 0.83819 0.19606 0.87931 0.0
C257 C 0.86465 0.18207 0.82502 0.0
C258 C 0.87895 0.19633 0.82801 0.0
C259 C 0.87838 0.18607 0.81074 0.0
C260 C 0.86911 0.18001 0.81452 0.0
C261 C 0.8834 0.19434 0.81741 0.0
C262 C 0.86961 0.19026 0.83177 0.0
C263 C 0.85473 0.17567 0.82861 0.0
O264 O 0.83256 0.16083 0.8505 0.0
O265 O 0.82244 0.17138 0.83955 0.0
O266 O 0.84516 0.18067 0.8272 0.0
O267 O 0.85552 0.17044 0.83822 0.0
H268 H 0.83431 0.14191 0.84169 0.0
H269 H 0.82769 0.12566 0.83137 0.0
H270 H 0.79761 0.14289 0.82242 0.0
H271 H 0.80423 0.15915 0.83274 0.0
H272 H 0.80866 0.20796 0.87483 0.0
H273 H 0.81882 0.20081 0.85898 0.0
H274 H 0.83632 0.2001 0.89653 0.0
H275 H 0.84651 0.19293 0.88065 0.0
H276 H 0.88257 0.2027 0.8333 0.0
H277 H 0.88169 0.18421 0.80262 0.0
H278 H 0.86539 0.1737 0.80921 0.0
H279 H 0.86623 0.192 0.8399 0.0
C280 C 0.83796 0.86068 0.82101 0.0
C281 C 0.82801 0.86396 0.82598 0.0
C282 C 0.82634 0.87917 0.81252 0.0
C283 C 0.82225 0.87315 0.82178 0.0
C284 C 0.83638 0.87585 0.80766 0.0
C285 C 0.84211 0.86669 0.81187 0.0
U286 U 0.84217 0.8362 0.84129 0.0
O287 O 0.8477 0.81926 0.83788 0.0
O288 O 0.85774 0.83007 0.84879 0.0
C289 C 0.85706 0.82056 0.84351 0.0
C290 C 0.84412 0.851 0.82516 0.0
C291 C 0.86725 0.81713 0.8378 0.0
C292 C 0.87921 0.81699 0.82154 0.0
C293 C 0.86966 0.82072 0.82692 0.0
C294 C 0.8841 0.80622 0.83793 0.0
C295 C 0.88652 0.80964 0.82697 0.0
C296 C 0.87456 0.80992 0.84327 0.0
C297 C 0.82138 0.83042 0.86481 0.0
C298 C 0.82435 0.81683 0.87959 0.0
C299 C 0.80644 0.82564 0.87762 0.0
C300 C 0.81043 0.83173 0.86848 0.0
C301 C 0.81334 0.81811 0.8833 0.0
C302 C 0.82833 0.82291 0.8704 0.0
C303 C 0.82536 0.83693 0.85514 0.0
O304 O 0.84893 0.85214 0.83496 0.0
O305 O 0.83908 0.8413 0.82392 0.0
O306 O 0.82481 0.83181 0.84553 0.0
O307 O 0.83473 0.84256 0.85659 0.0
H308 H 0.82468 0.85939 0.83306 0.0
H309 H 0.8145 0.87541 0.82565 0.0
H310 H 0.83987 0.88038 0.80065 0.0
H311 H 0.8498 0.8643 0.80796 0.0
H312 H 0.88088 0.81987 0.81315 0.0
H313 H 0.86414 0.82634 0.82258 0.0
H314 H 0.88945 0.80046 0.8423 0.0
H315 H 0.87281 0.80704 0.85166 0.0
H316 H 0.82984 0.81102 0.8837 0.0
H317 H 0.79797 0.82692 0.88033 0.0
H318 H 0.80495 0.8375 0.86427 0.0
H319 H 0.8368 0.82174 0.86764 0.0
C320 C 0.18389 0.6504 0.69569 0.0
C321 C 0.1943 0.64836 0.69093 0.0
C322 C 0.19614 0.63159 0.70233 0.0
C323 C 0.20039 0.63905 0.69424 0.0
C324 C 0.18565 0.63367 0.70697 0.0
C325 C 0.1796 0.64298 0.70368 0.0
U326 U 0.17852 0.67578 0.67703 0.0
O327 O 0.16262 0.68233 0.67073 0.0
O328 O 0.17336 0.69258 0.68154 0.0
C329 C 0.16369 0.69159 0.67639 0.0
C330 C 0.17745 0.66024 0.69252 0.0
C331 C 0.15387 0.69484 0.68281 0.0
C332 C 0.14273 0.69422 0.69965 0.0
C333 C 0.15194 0.69068 0.69359 0.0
C334 C 0.13721 0.70593 0.68414 0.0
C335 C 0.13527 0.70193 0.69501 0.0
C336 C 0.14642 0.70242 0.67812 0.0
C337 C 0.19806 0.68231 0.65258 0.0
C338 C 0.19612 0.69847 0.64047 0.0
C339 C 0.21101 0.68553 0.63739 0.0
C340 C 0.20732 0.6791 0.64643 0.0
C341 C 0.20549 0.69533 0.63432 0.0
C342 C 0.19245 0.69202 0.64954 0.0
C343 C 0.19449 0.67549 0.66218 0.0
O344 O 0.18256 0.66989 0.69394 0.0
O345 O 0.17201 0.65959 0.683 0.0
O346 O 0.18496 0.67007 0.66099 0.0
O347 O 0.19562 0.6802 0.67196 0.0
H348 H 0.19773 0.65399 0.6847 0.0
H349 H 0.20838 0.63764 0.69041 0.0
H350 H 0.1822 0.6282 0.71332 0.0
H351 H 0.17159 0.64444 0.70746 0.0
H352 H 0.14142 0.6909 0.70795 0.0
H353 H 0.15759 0.68478 0.69734 0.0
H354 H 0.13175 0.71198 0.68036 0.0
H355 H 0.14779 0.70573 0.66982 0.0
H356 H 0.19175 0.70602 0.63841 0.0
H357 H 0.21814 0.68278 0.63275 0.0
H358 H 0.21173 0.67161 0.64864 0.0
H359 H 0.18528 0.69463 0.65422 0.0
C360 C 0.82099 0.68647 0.65803 0.0
C361 C 0.82845 0.6939 0.65277 0.0
C362 C 0.81412 0.69882 0.63918 0.0
C363 C 0.82506 0.69999 0.64339 0.0
C364 C 0.80669 0.69139 0.64454 0.0
C365 C 0.8101 0.68527 0.65386 0.0
U366 U 0.84048 0.68108 0.68278 0.0
O367 O 0.83648 0.67578 0.69989 0.0
O368 O 0.84685 0.66533 0.68945 0.0
C369 C 0.84149 0.66623 0.69889 0.0
C370 C 0.82436 0.67997 0.66789 0.0
C371 C 0.83497 0.65636 0.70239 0.0
C372 C 0.82024 0.64259 0.69921 0.0
C373 C 0.8263 0.65204 0.69573 0.0
C374 C 0.83143 0.64176 0.71606 0.0
C375 C 0.82275 0.63732 0.70942 0.0
C376 C 0.83748 0.65118 0.71256 0.0
C377 C 0.86546 0.70056 0.6881 0.0
C378 C 0.87702 0.69945 0.70477 0.0
C379 C 0.88214 0.71217 0.68985 0.0
C380 C 0.87277 0.70866 0.68374 0.0
C381 C 0.88436 0.70764 0.70045 0.0
C382 C 0.86766 0.69592 0.69863 0.0
C383 C 0.85557 0.69712 0.6816 0.0
O384 O 0.83374 0.67457 0.66701 0.0
O385 O 0.82338 0.68502 0.67748 0.0
O386 O 0.84595 0.69815 0.68663 0.0
O387 O 0.85639 0.68769 0.67626 0.0
H388 H 0.83688 0.69499 0.65593 0.0
H389 H 0.83094 0.70573 0.63954 0.0
H390 H 0.79825 0.6902 0.64143 0.0
H391 H 0.80423 0.67958 0.65782 0.0
H392 H 0.81369 0.63934 0.69384 0.0
H393 H 0.82426 0.65594 0.68783 0.0
H394 H 0.83347 0.63805 0.72404 0.0
H395 H 0.84411 0.65444 0.71784 0.0
H396 H 0.87856 0.6957 0.71285 0.0
H397 H 0.88754 0.71857 0.68634 0.0
H398 H 0.87118 0.71234 0.67564 0.0
H399 H 0.86212 0.68961 0.7021 0.0
C400 C 0.82356 0.33382 0.65807 0.0
C401 C 0.82839 0.32373 0.65513 0.0
C402 C 0.81597 0.32229 0.63899 0.0
C403 C 0.82463 0.31801 0.64566 0.0
C404 C 0.8113 0.33249 0.64194 0.0
C405 C 0.81506 0.33818 0.65138 0.0
U406 U 0.84256 0.33816 0.68364 0.0
O407 O 0.84924 0.35368 0.6908 0.0
O408 O 0.83801 0.34296 0.70065 0.0
C409 C 0.84325 0.35262 0.6999 0.0
C410 C 0.82707 0.33984 0.66815 0.0
C411 C 0.83688 0.36245 0.7034 0.0
C412 C 0.83116 0.38165 0.70083 0.0
C413 C 0.83677 0.37232 0.69704 0.0
C414 C 0.82552 0.3714 0.71733 0.0
C415 C 0.8255 0.38131 0.71104 0.0
C416 C 0.83118 0.36211 0.71357 0.0
C417 C 0.86659 0.31797 0.68926 0.0
C418 C 0.87888 0.31866 0.70545 0.0
C419 C 0.88162 0.30482 0.69126 0.0
C420 C 0.87258 0.30898 0.68523 0.0
C421 C 0.88486 0.30956 0.70148 0.0
C422 C 0.8698 0.32283 0.69939 0.0
C423 C 0.85702 0.32202 0.68276 0.0
O424 O 0.82555 0.33448 0.67761 0.0
O425 O 0.83676 0.34509 0.66763 0.0
O426 O 0.85847 0.33166 0.6777 0.0
O427 O 0.84723 0.32095 0.68753 0.0
H428 H 0.83497 0.32024 0.66022 0.0
H429 H 0.82835 0.31014 0.64369 0.0
H430 H 0.80476 0.33611 0.63691 0.0
H431 H 0.81126 0.34598 0.6535 0.0
H432 H 0.83122 0.38913 0.69575 0.0
H433 H 0.84109 0.37289 0.68916 0.0
H434 H 0.82137 0.37091 0.72529 0.0
H435 H 0.83122 0.35466 0.7187 0.0
H436 H 0.88109 0.32245 0.71332 0.0
H437 H 0.88613 0.29793 0.68786 0.0
H438 H 0.87024 0.30516 0.6774 0.0
H439 H 0.86526 0.32978 0.70263 0.0
C440 C 0.15811 0.3093 0.68864 0.0
C441 C 0.15354 0.31663 0.69633 0.0
C442 C 0.13968 0.30255 0.7017 0.0
C443 C 0.14438 0.3133 0.70278 0.0
C444 C 0.14434 0.29525 0.694 0.0
C445 C 0.15346 0.29861 0.68753 0.0
U446 U 0.18224 0.32926 0.68189 0.0
O447 O 0.19937 0.32582 0.67668 0.0
O448 O 0.18836 0.33542 0.66572 0.0
C449 C 0.19802 0.33054 0.66686 0.0
C450 C 0.16773 0.31266 0.68179 0.0
C451 C 0.20165 0.32403 0.65727 0.0
C452 C 0.19994 0.30797 0.64519 0.0
C453 C 0.19626 0.31403 0.65433 0.0
C454 C 0.21437 0.3219 0.64184 0.0
C455 C 0.20908 0.31181 0.63886 0.0
C456 C 0.21069 0.32793 0.65096 0.0
C457 C 0.18701 0.35486 0.70028 0.0
C458 C 0.20306 0.36737 0.69863 0.0
C459 C 0.1883 0.37151 0.71154 0.0
C460 C 0.18256 0.36184 0.70832 0.0
C461 C 0.19864 0.37439 0.70676 0.0
C462 C 0.19728 0.3577 0.6954 0.0
C463 C 0.18088 0.34463 0.69721 0.0
O464 O 0.1665 0.32177 0.67584 0.0
O465 O 0.17749 0.31216 0.68679 0.0
O466 O 0.1863 0.33533 0.69867 0.0
O467 O 0.17537 0.34501 0.68772 0.0
H468 H 0.15707 0.32491 0.69735 0.0
H469 H 0.14107 0.31907 0.70872 0.0
H470 H 0.14085 0.28697 0.69287 0.0
H471 H 0.15688 0.29284 0.68163 0.0
H472 H 0.19574 0.30019 0.64318 0.0
H473 H 0.18925 0.31089 0.65914 0.0
H474 H 0.22131 0.3252 0.63706 0.0
H475 H 0.21492 0.33566 0.65308 0.0
H476 H 0.21094 0.36941 0.69471 0.0
H477 H 0.18474 0.37663 0.71791 0.0
H478 H 0.17466 0.35975 0.71219 0.0
H479 H 0.20082 0.35241 0.68914 0.0
C480 C 0.15785 0.30892 0.33507 0.0
C481 C 0.15472 0.31461 0.32534 0.0
C482 C 0.13961 0.30116 0.32215 0.0
C483 C 0.14567 0.31077 0.31893 0.0
C484 C 0.14277 0.29555 0.33197 0.0
C485 C 0.15182 0.29939 0.33836 0.0
U486 U 0.18146 0.32973 0.34116 0.0
O487 O 0.18761 0.33626 0.35717 0.0
O488 O 0.19875 0.32685 0.34652 0.0
C489 C 0.19735 0.33154 0.35624 0.0
C490 C 0.16742 0.31275 0.34182 0.0
C491 C 0.201 0.32497 0.36594 0.0
C492 C 0.19969 0.30841 0.37762 0.0
C493 C 0.19598 0.31464 0.36846 0.0
C494 C 0.21339 0.32282 0.38186 0.0
C495 C 0.20847 0.31241 0.38442 0.0
C496 C 0.20968 0.32903 0.37271 0.0
C497 C 0.18544 0.35509 0.32194 0.0
C498 C 0.19994 0.36916 0.32475 0.0
C499 C 0.1876 0.37037 0.30876 0.0
C500 C 0.18206 0.36064 0.31222 0.0
C501 C 0.19663 0.37474 0.31495 0.0
C502 C 0.1944 0.3594 0.32821 0.0
C503 C 0.17957 0.34478 0.32531 0.0
O504 O 0.17715 0.31244 0.33688 0.0
O505 O 0.16595 0.32196 0.34736 0.0
O506 O 0.17415 0.34518 0.33476 0.0
O507 O 0.18521 0.3356 0.32418 0.0
H508 H 0.15932 0.32198 0.32267 0.0
H509 H 0.14355 0.31522 0.31135 0.0
H510 H 0.1382 0.28822 0.33477 0.0
H511 H 0.15411 0.29492 0.34587 0.0
H512 H 0.19581 0.30038 0.37926 0.0
H513 H 0.18927 0.31137 0.3633 0.0
H514 H 0.22005 0.32622 0.387 0.0
H515 H 0.21361 0.33701 0.3709 0.0
H516 H 0.20694 0.37223 0.32965 0.0
H517 H 0.18473 0.37453 0.30126 0.0
H518 H 0.17514 0.35743 0.3073 0.0
H519 H 0.19714 0.35518 0.33572 0.0
C520 C 0.15298 0.6852 0.32162 0.0
C521 C 0.14317 0.68624 0.32785 0.0
C522 C 0.13477 0.69734 0.31302 0.0
C523 C 0.13416 0.69222 0.32358 0.0
C524 C 0.14464 0.6964 0.30688 0.0
C525 C 0.15361 0.69036 0.31111 0.0
U526 U 0.17713 0.67876 0.34192 0.0
O527 O 0.18256 0.6627 0.3488 0.0
O528 O 0.19393 0.67273 0.33843 0.0
C529 C 0.19219 0.66322 0.34366 0.0
C530 C 0.16241 0.67838 0.32562 0.0
C531 C 0.19528 0.65318 0.33757 0.0
C532 C 0.19452 0.6416 0.32108 0.0
C533 C 0.19126 0.65111 0.32677 0.0
C534 C 0.20571 0.63607 0.33699 0.0
C535 C 0.20182 0.63397 0.32612 0.0
C536 C 0.20248 0.64558 0.34264 0.0
C537 C 0.18322 0.69832 0.36641 0.0
C538 C 0.19999 0.69783 0.37789 0.0
C539 C 0.18484 0.70979 0.38292 0.0
C540 C 0.17874 0.70612 0.37365 0.0
C541 C 0.19557 0.70575 0.38512 0.0
C542 C 0.19386 0.69412 0.36863 0.0
C543 C 0.17677 0.6949 0.35651 0.0
O544 O 0.17241 0.6829 0.32464 0.0
O545 O 0.16104 0.67292 0.33506 0.0
O546 O 0.17083 0.68568 0.35754 0.0
O547 O 0.18206 0.69566 0.34698 0.0
H548 H 0.14238 0.68236 0.33597 0.0
H549 H 0.12672 0.69287 0.32856 0.0
H550 H 0.14533 0.7001 0.29866 0.0
H551 H 0.161 0.6896 0.30607 0.0
H552 H 0.19128 0.64017 0.31277 0.0
H553 H 0.18564 0.65686 0.32274 0.0
H554 H 0.21144 0.63046 0.34106 0.0
H555 H 0.20568 0.64705 0.35097 0.0
H556 H 0.20818 0.69446 0.37942 0.0
H557 H 0.18124 0.71598 0.38823 0.0
H558 H 0.17055 0.70946 0.37205 0.0
H559 H 0.19744 0.68806 0.36315 0.0
C560 C 0.82659 0.65632 0.33438 0.0
C561 C 0.83315 0.64674 0.33453 0.0
C562 C 0.81996 0.63727 0.32215 0.0
C563 C 0.82986 0.63732 0.32849 0.0
C564 C 0.81343 0.64686 0.32198 0.0
C565 C 0.81668 0.65624 0.32806 0.0
U566 U 0.84489 0.68219 0.34039 0.0
O567 O 0.84009 0.69888 0.34571 0.0
O568 O 0.85112 0.68889 0.35629 0.0
C569 C 0.84533 0.69803 0.35532 0.0
C570 C 0.82966 0.66626 0.34105 0.0
C571 C 0.8389 0.70113 0.36517 0.0
C572 C 0.82438 0.69737 0.37877 0.0
C573 C 0.83037 0.6942 0.36937 0.0
C574 C 0.8354 0.71439 0.3798 0.0
C575 C 0.82684 0.70751 0.38411 0.0
C576 C 0.84137 0.71122 0.37043 0.0
C577 C 0.86923 0.68938 0.32094 0.0
C578 C 0.88059 0.70622 0.32256 0.0
C579 C 0.88471 0.69275 0.30837 0.0
C580 C 0.87582 0.68604 0.31204 0.0
C581 C 0.88717 0.70296 0.31353 0.0
C582 C 0.87169 0.69949 0.32623 0.0
C583 C 0.85975 0.68229 0.32443 0.0
O584 O 0.83906 0.66592 0.34674 0.0
O585 O 0.82802 0.67595 0.33622 0.0
O586 O 0.84988 0.68675 0.32336 0.0
O587 O 0.86105 0.67689 0.33389 0.0
H588 H 0.84081 0.64647 0.33934 0.0
H589 H 0.83511 0.6301 0.32873 0.0
H590 H 0.80568 0.64704 0.31731 0.0
H591 H 0.81137 0.66344 0.3279 0.0
H592 H 0.81792 0.69182 0.38193 0.0
H593 H 0.82836 0.68636 0.3654 0.0
H594 H 0.8374 0.72233 0.38356 0.0
H595 H 0.8479 0.71669 0.36726 0.0
H596 H 0.88219 0.71408 0.32665 0.0
H597 H 0.8897 0.68989 0.30152 0.0
H598 H 0.87406 0.67824 0.30789 0.0
H599 H 0.86666 0.7022 0.33311 0.0
C600 C 0.84476 0.36104 0.32079 0.0
C601 C 0.83642 0.36531 0.32758 0.0
C602 C 0.83311 0.38022 0.3141 0.0
C603 C 0.83064 0.37482 0.32426 0.0
C604 C 0.84148 0.37585 0.30735 0.0
C605 C 0.84724 0.36637 0.31068 0.0
U606 U 0.84999 0.33592 0.33994 0.0
O607 O 0.85442 0.31884 0.33566 0.0
O608 O 0.86594 0.32901 0.34574 0.0
C609 C 0.8644 0.31973 0.3402 0.0
C610 C 0.85094 0.35106 0.32405 0.0
C611 C 0.87393 0.31597 0.33347 0.0
C612 C 0.88139 0.30755 0.31678 0.0
C613 C 0.87241 0.31185 0.32263 0.0
C614 C 0.89366 0.31162 0.33235 0.0
C615 C 0.8921 0.30729 0.32161 0.0
C616 C 0.88467 0.31585 0.33823 0.0
C617 C 0.83112 0.33046 0.36517 0.0
C618 C 0.83262 0.31427 0.37731 0.0
C619 C 0.81856 0.32799 0.3808 0.0
C620 C 0.82227 0.33418 0.37161 0.0
C621 C 0.82363 0.31791 0.38374 0.0
C622 C 0.83632 0.32049 0.36809 0.0
C623 C 0.83461 0.33699 0.35534 0.0
O624 O 0.85673 0.35176 0.33336 0.0
O625 O 0.84545 0.34157 0.32306 0.0
O626 O 0.83297 0.33215 0.34569 0.0
O627 O 0.84435 0.3421 0.35612 0.0
H628 H 0.83439 0.3613 0.33543 0.0
H629 H 0.82432 0.37801 0.32971 0.0
H630 H 0.84348 0.37965 0.2994 0.0
H631 H 0.85363 0.36316 0.30531 0.0
H632 H 0.87994 0.30438 0.30847 0.0
H633 H 0.86426 0.31179 0.31869 0.0
H634 H 0.90177 0.31142 0.33636 0.0
H635 H 0.88607 0.31886 0.34661 0.0
H636 H 0.83664 0.3065 0.37927 0.0
H637 H 0.81174 0.33113 0.38565 0.0
H638 H 0.81817 0.34188 0.36949 0.0
H639 H 0.84316 0.31748 0.36319 0.0
C640 C 0.69092 0.15337 0.7005 0.0
C641 C 0.69912 0.14845 0.69398 0.0
C642 C 0.70253 0.13472 0.70864 0.0
C643 C 0.70486 0.13917 0.69801 0.0
C644 C 0.6943 0.13973 0.71509 0.0
C645 C 0.68857 0.14895 0.71106 0.0
U646 U 0.68594 0.17781 0.68028 0.0
O647 O 0.67013 0.18405 0.67349 0.0
O648 O 0.68066 0.19479 0.68399 0.0
C649 C 0.67096 0.19345 0.67896 0.0
C650 C 0.68469 0.16307 0.69651 0.0
C651 C 0.66097 0.19694 0.6852 0.0
C652 C 0.64086 0.19632 0.68809 0.0
C653 C 0.65033 0.19248 0.6827 0.0
C654 C 0.6524 0.20916 0.69866 0.0
C655 C 0.64176 0.20476 0.69609 0.0
C656 C 0.66187 0.20534 0.69325 0.0
C657 C 0.70579 0.18331 0.65583 0.0
C658 C 0.70416 0.19904 0.64312 0.0
C659 C 0.71881 0.18573 0.64057 0.0
C660 C 0.715 0.17971 0.64983 0.0
C661 C 0.71348 0.19551 0.63711 0.0
C662 C 0.70035 0.193 0.6524 0.0
C663 C 0.70211 0.17692 0.66568 0.0
O664 O 0.68985 0.17273 0.6975 0.0
O665 O 0.67944 0.16191 0.68694 0.0
O666 O 0.69261 0.17142 0.6646 0.0
O667 O 0.70309 0.18208 0.67524 0.0
H668 H 0.70108 0.15178 0.68581 0.0
H669 H 0.71121 0.13557 0.69287 0.0
H670 H 0.69218 0.13643 0.72323 0.0
H671 H 0.68225 0.15262 0.71619 0.0
H672 H 0.6328 0.19268 0.68598 0.0
H673 H 0.64928 0.18609 0.67646 0.0
H674 H 0.65339 0.21579 0.70464 0.0
H675 H 0.66989 0.20911 0.69525 0.0
H676 H 0.69992 0.20659 0.64077 0.0
H677 H 0.7259 0.18268 0.63606 0.0
H678 H 0.71928 0.17223 0.65233 0.0
H679 H 0.69323 0.19591 0.65696 0.0
C680 C 0.31973 0.17816 0.65766 0.0
C681 C 0.32543 0.17759 0.64749 0.0
C682 C 0.31195 0.18982 0.63865 0.0
C683 C 0.32157 0.18335 0.63809 0.0
C684 C 0.30624 0.19035 0.6488 0.0
C685 C 0.31005 0.18454 0.65817 0.0
U686 U 0.34018 0.17364 0.68192 0.0
O687 O 0.33697 0.16926 0.69943 0.0
O688 O 0.34684 0.15821 0.68911 0.0
C689 C 0.34189 0.15963 0.69871 0.0
C690 C 0.32354 0.17198 0.66769 0.0
C691 C 0.33546 0.14999 0.70295 0.0
C692 C 0.31927 0.13758 0.70218 0.0
C693 C 0.32536 0.14668 0.69792 0.0
C694 C 0.33337 0.13499 0.71646 0.0
C695 C 0.32319 0.13165 0.71153 0.0
C696 C 0.33944 0.14408 0.7122 0.0
C697 C 0.36513 0.19392 0.6849 0.0
C698 C 0.37823 0.19373 0.70043 0.0
C699 C 0.38049 0.20729 0.68557 0.0
C700 C 0.37108 0.20287 0.68018 0.0
C701 C 0.38414 0.20285 0.6958 0.0
C702 C 0.36878 0.1893 0.69502 0.0
C703 C 0.35502 0.18973 0.67923 0.0
O704 O 0.33278 0.16635 0.66679 0.0
O705 O 0.32285 0.17726 0.67718 0.0
O706 O 0.34566 0.19093 0.68466 0.0
O707 O 0.35579 0.17998 0.67449 0.0
H708 H 0.33288 0.17271 0.64676 0.0
H709 H 0.3262 0.18284 0.63041 0.0
H710 H 0.29872 0.19514 0.64946 0.0
H711 H 0.3054 0.18502 0.66584 0.0
H712 H 0.31141 0.13532 0.69826 0.0
H713 H 0.32216 0.15118 0.69077 0.0
H714 H 0.33671 0.13053 0.72357 0.0
H715 H 0.34724 0.14651 0.71616 0.0
H716 H 0.38077 0.19017 0.70835 0.0
H717 H 0.38494 0.21419 0.68168 0.0
H718 H 0.36839 0.2065 0.67235 0.0
H719 H 0.36426 0.18238 0.69879 0.0
C720 C 0.31884 0.83394 0.65734 0.0
C721 C 0.32354 0.82388 0.65411 0.0
C722 C 0.31048 0.82259 0.63847 0.0
C723 C 0.3194 0.81825 0.64474 0.0
C724 C 0.30592 0.83274 0.64172 0.0
C725 C 0.31005 0.83834 0.65107 0.0
U726 U 0.3393 0.83861 0.68175 0.0
O727 O 0.34596 0.85439 0.68845 0.0
O728 O 0.33585 0.84327 0.69903 0.0
C729 C 0.34069 0.85311 0.69795 0.0
C730 C 0.32284 0.83993 0.66727 0.0
C731 C 0.33439 0.86282 0.70189 0.0
C732 C 0.31851 0.8707 0.71137 0.0
C733 C 0.32396 0.86151 0.70706 0.0
C734 C 0.33367 0.88274 0.70528 0.0
C735 C 0.32333 0.88141 0.71061 0.0
C736 C 0.33915 0.87355 0.70103 0.0
C737 C 0.36419 0.81935 0.68609 0.0
C738 C 0.37587 0.81909 0.70273 0.0
C739 C 0.381 0.80836 0.68664 0.0
C740 C 0.37156 0.81212 0.68095 0.0
C741 C 0.38325 0.81175 0.69763 0.0
C742 C 0.36644 0.82288 0.697 0.0
C743 C 0.35417 0.82295 0.67999 0.0
O744 O 0.32206 0.83448 0.67676 0.0
O745 O 0.33233 0.84543 0.66618 0.0
O746 O 0.35502 0.83259 0.67482 0.0
O747 O 0.34467 0.82155 0.68523 0.0
H748 H 0.33034 0.82036 0.65887 0.0
H749 H 0.32304 0.81042 0.64252 0.0
H750 H 0.29918 0.83642 0.637 0.0
H751 H 0.30636 0.84612 0.65342 0.0
H752 H 0.3105 0.86941 0.71533 0.0
H753 H 0.32005 0.85338 0.70792 0.0
H754 H 0.33768 0.89085 0.70468 0.0
H755 H 0.34724 0.87481 0.69721 0.0
H756 H 0.37743 0.82195 0.71113 0.0
H757 H 0.38642 0.80262 0.68252 0.0
H758 H 0.36995 0.8093 0.67254 0.0
H759 H 0.36087 0.82851 0.70109 0.0
C760 C 0.65814 0.81656 0.68405 0.0
C761 C 0.65577 0.82038 0.69477 0.0
C762 C 0.63883 0.80886 0.69525 0.0
C763 C 0.64622 0.81654 0.70034 0.0
C764 C 0.64122 0.80519 0.68445 0.0
C765 C 0.65077 0.809 0.67892 0.0
U766 U 0.68327 0.83627 0.68004 0.0
O767 O 0.70057 0.83246 0.67566 0.0
O768 O 0.69057 0.843 0.6646 0.0
C769 C 0.69997 0.8377 0.66604 0.0
C770 C 0.66828 0.82022 0.67814 0.0
C771 C 0.70395 0.83153 0.65636 0.0
C772 C 0.70117 0.81787 0.64174 0.0
C773 C 0.69718 0.82356 0.65099 0.0
C774 C 0.71874 0.828 0.64323 0.0
C775 C 0.71202 0.82001 0.63776 0.0
C776 C 0.71473 0.83369 0.65242 0.0
C777 C 0.68804 0.86076 0.69976 0.0
C778 C 0.70452 0.87278 0.69903 0.0
C779 C 0.68962 0.87684 0.71179 0.0
C780 C 0.68363 0.86751 0.70802 0.0
C781 C 0.70015 0.87958 0.70736 0.0
C782 C 0.6985 0.86346 0.69525 0.0
C783 C 0.68162 0.85094 0.69599 0.0
O784 O 0.66762 0.82972 0.67273 0.0
O785 O 0.67769 0.81914 0.68368 0.0
O786 O 0.68656 0.84135 0.69731 0.0
O787 O 0.67663 0.85196 0.68627 0.0
H788 H 0.66135 0.82627 0.69885 0.0
H789 H 0.64457 0.81961 0.7086 0.0
H790 H 0.63581 0.79917 0.68035 0.0
H791 H 0.65248 0.80595 0.67066 0.0
H792 H 0.69583 0.8117 0.63779 0.0
H793 H 0.68883 0.82175 0.65395 0.0
H794 H 0.72706 0.82997 0.6403 0.0
H795 H 0.72006 0.83984 0.65645 0.0
H796 H 0.71254 0.87472 0.69536 0.0
H797 H 0.68607 0.8818 0.71831 0.0
H798 H 0.67557 0.86553 0.71161 0.0
H799 H 0.70201 0.85835 0.68881 0.0
C800 C 0.65642 0.81558 0.33744 0.0
C801 C 0.65247 0.82151 0.32816 0.0
C802 C 0.63769 0.80762 0.32536 0.0
C803 C 0.64318 0.81757 0.32217 0.0
C804 C 0.64169 0.80175 0.33471 0.0
C805 C 0.65097 0.8057 0.34068 0.0
U806 U 0.6805 0.83625 0.34199 0.0
O807 O 0.68733 0.84324 0.35753 0.0
O808 O 0.69792 0.83332 0.3468 0.0
C809 C 0.69697 0.83838 0.35639 0.0
C810 C 0.66627 0.8195 0.34372 0.0
C811 C 0.70095 0.83214 0.36618 0.0
C812 C 0.7 0.81605 0.37852 0.0
C813 C 0.69595 0.82197 0.3693 0.0
C814 C 0.71402 0.83045 0.38162 0.0
C815 C 0.70913 0.8202 0.38477 0.0
C816 C 0.70996 0.83636 0.37241 0.0
C817 C 0.68417 0.86083 0.32177 0.0
C818 C 0.69945 0.87428 0.32321 0.0
C819 C 0.68585 0.87591 0.3083 0.0
C820 C 0.68022 0.86645 0.31233 0.0
C821 C 0.69557 0.87992 0.31366 0.0
C822 C 0.6938 0.8648 0.32723 0.0
C823 C 0.67824 0.85076 0.3257 0.0
O824 O 0.67581 0.81888 0.33848 0.0
O825 O 0.66512 0.82892 0.349 0.0
O826 O 0.67319 0.8516 0.33532 0.0
O827 O 0.68366 0.84144 0.32468 0.0
H828 H 0.65659 0.82917 0.32555 0.0
H829 H 0.64025 0.82236 0.31509 0.0
H830 H 0.63778 0.79398 0.3373 0.0
H831 H 0.65395 0.80099 0.3478 0.0
H832 H 0.69612 0.80812 0.38063 0.0
H833 H 0.68899 0.81859 0.36456 0.0
H834 H 0.72094 0.83397 0.38632 0.0
H835 H 0.71389 0.84422 0.37013 0.0
H836 H 0.70697 0.87707 0.32746 0.0
H837 H 0.68254 0.88013 0.30103 0.0
H838 H 0.67277 0.86351 0.30804 0.0
H839 H 0.69699 0.86053 0.33452 0.0
C840 C 0.65562 0.1859 0.32267 0.0
C841 C 0.65194 0.19442 0.32958 0.0
C842 C 0.6374 0.19906 0.31609 0.0
C843 C 0.64289 0.20092 0.32634 0.0
C844 C 0.64115 0.1905 0.30924 0.0
C845 C 0.65016 0.18399 0.3125 0.0
U846 U 0.68087 0.17921 0.34121 0.0
O847 O 0.68661 0.16301 0.34745 0.0
O848 O 0.69735 0.17314 0.33651 0.0
C849 C 0.69587 0.16356 0.34168 0.0
C850 C 0.66515 0.17898 0.32585 0.0
C851 C 0.69847 0.1536 0.33523 0.0
C852 C 0.69683 0.14247 0.31847 0.0
C853 C 0.69399 0.15189 0.32454 0.0
C854 C 0.70849 0.1363 0.33378 0.0
C855 C 0.70414 0.13457 0.32301 0.0
C856 C 0.70568 0.14572 0.33981 0.0
C857 C 0.68888 0.19835 0.36572 0.0
C858 C 0.70638 0.20553 0.37345 0.0
C859 C 0.69061 0.20223 0.38554 0.0
C860 C 0.68425 0.19858 0.37643 0.0
C861 C 0.70172 0.20585 0.38415 0.0
C862 C 0.70005 0.20181 0.36434 0.0
C863 C 0.68175 0.19507 0.35611 0.0
O864 O 0.67505 0.18357 0.32433 0.0
O865 O 0.66428 0.17363 0.33539 0.0
O866 O 0.6757 0.18593 0.35735 0.0
O867 O 0.68619 0.19604 0.34616 0.0
H868 H 0.6561 0.19605 0.33745 0.0
H869 H 0.64029 0.20752 0.33176 0.0
H870 H 0.63704 0.18874 0.30137 0.0
H871 H 0.65288 0.17744 0.30707 0.0
H872 H 0.69324 0.14134 0.31025 0.0
H873 H 0.68836 0.15786 0.32088 0.0
H874 H 0.71425 0.13048 0.33747 0.0
H875 H 0.70923 0.14691 0.34804 0.0
H876 H 0.71496 0.20815 0.37212 0.0
H877 H 0.68674 0.20249 0.39365 0.0
H878 H 0.67564 0.19608 0.37772 0.0
H879 H 0.70389 0.20176 0.35622 0.0
C880 C 0.32536 0.15035 0.33299 0.0
C881 C 0.33204 0.14089 0.33216 0.0
C882 C 0.31814 0.1319 0.32019 0.0
C883 C 0.32845 0.13176 0.32585 0.0
C884 C 0.31157 0.14142 0.32089 0.0
C885 C 0.31512 0.15051 0.32725 0.0
U886 U 0.34436 0.1752 0.34121 0.0
O887 O 0.33987 0.19175 0.34714 0.0
O888 O 0.34972 0.18076 0.35788 0.0
C889 C 0.34414 0.19004 0.35711 0.0
C890 C 0.32857 0.15984 0.34019 0.0
C891 C 0.33704 0.19271 0.36674 0.0
C892 C 0.3194 0.19851 0.37455 0.0
C893 C 0.32575 0.19543 0.36538 0.0
C894 C 0.3354 0.19597 0.38664 0.0
C895 C 0.32417 0.19887 0.38527 0.0
C896 C 0.34177 0.19298 0.37746 0.0
C897 C 0.37001 0.1826 0.32348 0.0
C898 C 0.38071 0.19988 0.32492 0.0
C899 C 0.38703 0.18526 0.31289 0.0
C900 C 0.37785 0.17864 0.31597 0.0
C901 C 0.38853 0.196 0.31725 0.0
C902 C 0.37153 0.19322 0.32803 0.0
C903 C 0.36015 0.17566 0.32616 0.0
O904 O 0.33765 0.15883 0.34629 0.0
O905 O 0.32758 0.16979 0.33573 0.0
O906 O 0.35047 0.18044 0.32476 0.0
O907 O 0.36075 0.16977 0.3354 0.0
H908 H 0.33997 0.14047 0.33648 0.0
H909 H 0.33374 0.12458 0.32539 0.0
H910 H 0.30353 0.14174 0.31676 0.0
H911 H 0.30976 0.15763 0.32784 0.0
H912 H 0.31074 0.20057 0.37324 0.0
H913 H 0.32183 0.19528 0.35724 0.0
H914 H 0.33935 0.19628 0.39477 0.0
H915 H 0.35047 0.191 0.37873 0.0
H916 H 0.38169 0.20805 0.32854 0.0
H917 H 0.39281 0.18207 0.30687 0.0
H918 H 0.37678 0.17047 0.31235 0.0
H919 H 0.36558 0.1964 0.33389 0.0
C920 C 0.34135 0.86101 0.31849 0.0
C921 C 0.33041 0.86338 0.32164 0.0
C922 C 0.3308 0.88019 0.31012 0.0
C923 C 0.32516 0.87287 0.31746 0.0
C924 C 0.34182 0.87782 0.30715 0.0
C925 C 0.34703 0.86832 0.31129 0.0
U926 U 0.34457 0.83605 0.33842 0.0
O927 O 0.34869 0.81875 0.33453 0.0
O928 O 0.35981 0.82866 0.34529 0.0
C929 C 0.35837 0.81937 0.33973 0.0
C930 C 0.34693 0.85086 0.32237 0.0
C931 C 0.36808 0.81522 0.33354 0.0
C932 C 0.38741 0.81688 0.32753 0.0
C933 C 0.37819 0.8213 0.33291 0.0
C934 C 0.37657 0.80032 0.32314 0.0
C935 C 0.38672 0.80632 0.32262 0.0
C936 C 0.36738 0.8047 0.32858 0.0
C937 C 0.32435 0.8317 0.36275 0.0
C938 C 0.32624 0.81705 0.37667 0.0
C939 C 0.31031 0.82913 0.37706 0.0
C940 C 0.31435 0.83482 0.36769 0.0
C941 C 0.31621 0.82018 0.38171 0.0
C942 C 0.33027 0.82276 0.36727 0.0
C943 C 0.32843 0.83789 0.35294 0.0
O944 O 0.3522 0.85158 0.33197 0.0
O945 O 0.34119 0.84153 0.32124 0.0
O946 O 0.32715 0.83285 0.34334 0.0
O947 O 0.33825 0.84279 0.35407 0.0
H948 H 0.3259 0.85784 0.32724 0.0
H949 H 0.31671 0.87451 0.32 0.0
H950 H 0.34635 0.88318 0.3014 0.0
H951 H 0.35547 0.86662 0.30875 0.0
H952 H 0.39508 0.82174 0.32718 0.0
H953 H 0.37903 0.82942 0.33665 0.0
H954 H 0.3758 0.79211 0.31957 0.0
H955 H 0.35974 0.79979 0.32903 0.0
H956 H 0.33104 0.81027 0.38008 0.0
H957 H 0.30248 0.83166 0.38059 0.0
H958 H 0.30965 0.84168 0.36428 0.0
H959 H 0.33802 0.82023 0.36356 0.0
C960 C 0.6909 0.65172 0.20366 0.0
C961 C 0.69986 0.64793 0.19738 0.0
C962 C 0.70327 0.63329 0.21111 0.0
C963 C 0.706 0.63879 0.20108 0.0
C964 C 0.69429 0.63718 0.21736 0.0
C965 C 0.68817 0.6463 0.21366 0.0
U966 U 0.68506 0.67604 0.18371 0.0
O967 O 0.66906 0.68184 0.17696 0.0
O968 O 0.67935 0.69287 0.18742 0.0
C969 C 0.6698 0.69139 0.18217 0.0
C970 C 0.68429 0.66126 0.19995 0.0
C971 C 0.6598 0.69466 0.18828 0.0
C972 C 0.64697 0.69253 0.20377 0.0
C973 C 0.6565 0.68917 0.19809 0.0
C974 C 0.64399 0.70687 0.18984 0.0
C975 C 0.64059 0.70143 0.1997 0.0
C976 C 0.65349 0.70351 0.1842 0.0
C977 C 0.70445 0.68201 0.15907 0.0
C978 C 0.7013 0.69688 0.14563 0.0
C979 C 0.71767 0.6855 0.14416 0.0
C980 C 0.7143 0.67941 0.15356 0.0
C981 C 0.71123 0.69433 0.14008 0.0
C982 C 0.69795 0.69078 0.15506 0.0
C983 C 0.70113 0.67552 0.16898 0.0
O984 O 0.6892 0.67106 0.20091 0.0
O985 O 0.67892 0.66003 0.19045 0.0
O986 O 0.69179 0.66972 0.16804 0.0
O987 O 0.70207 0.68073 0.17852 0.0
H988 H 0.70208 0.65203 0.18962 0.0
H989 H 0.71279 0.63596 0.196 0.0
H990 H 0.69207 0.63328 0.22521 0.0
H991 H 0.6813 0.64914 0.21864 0.0
H992 H 0.64455 0.68811 0.21128 0.0
H993 H 0.66128 0.6823 0.20135 0.0
H994 H 0.63941 0.71386 0.18657 0.0
H995 H 0.65594 0.70787 0.17666 0.0
H996 H 0.69621 0.7037 0.1428 0.0
H997 H 0.72527 0.68321 0.14002 0.0
H998 H 0.71941 0.67265 0.15653 0.0
H999 H 0.69032 0.69293 0.15924 0.0
C1000 C 0.32184 0.67715 0.15856 0.0
C1001 C 0.32718 0.68731 0.15602 0.0
C1002 C 0.31585 0.68914 0.13919 0.0
C1003 C 0.3242 0.69327 0.14643 0.0
C1004 C 0.31062 0.67889 0.14175 0.0
C1005 C 0.31359 0.67296 0.15135 0.0
U1006 U 0.34042 0.67207 0.18401 0.0
O1007 O 0.33584 0.66772 0.20123 0.0
O1008 O 0.34599 0.65637 0.19153 0.0
C1009 C 0.34047 0.65792 0.20078 0.0
C1010 C 0.32467 0.6709 0.16874 0.0
C1011 C 0.33345 0.64849 0.20455 0.0
C1012 C 0.31808 0.63536 0.20171 0.0
C1013 C 0.32466 0.64433 0.19794 0.0
C1014 C 0.329 0.63466 0.21874 0.0
C1015 C 0.32018 0.6304 0.21217 0.0
C1016 C 0.33556 0.64361 0.21496 0.0
C1017 C 0.36602 0.69092 0.18899 0.0
C1018 C 0.37727 0.69031 0.20589 0.0
C1019 C 0.38308 0.70201 0.1904 0.0
C1020 C 0.37369 0.69851 0.18433 0.0
C1021 C 0.38497 0.69798 0.20127 0.0
C1022 C 0.36788 0.68679 0.19979 0.0
C1023 C 0.35613 0.68748 0.18248 0.0
O1024 O 0.33386 0.66514 0.16832 0.0
O1025 O 0.32364 0.67634 0.17811 0.0
O1026 O 0.34647 0.6891 0.18723 0.0
O1027 O 0.35672 0.67777 0.17762 0.0
H1028 H 0.33362 0.69065 0.16148 0.0
H1029 H 0.32847 0.70108 0.14463 0.0
H1030 H 0.30407 0.67554 0.13644 0.0
H1031 H 0.30936 0.66514 0.1532 0.0
H1032 H 0.31143 0.63223 0.19639 0.0
H1033 H 0.32292 0.64802 0.18987 0.0
H1034 H 0.33073 0.63118 0.2269 0.0
H1035 H 0.34228 0.64676 0.22019 0.0
H1036 H 0.37854 0.68696 0.21419 0.0
H1037 H 0.38876 0.70802 0.18665 0.0
H1038 H 0.37237 0.70179 0.17601 0.0
H1039 H 0.36207 0.68087 0.20349 0.0
C1040 C 0.32078 0.33734 0.16022 0.0
C1041 C 0.32613 0.32768 0.15681 0.0
C1042 C 0.31351 0.32611 0.14083 0.0
C1043 C 0.32253 0.32211 0.14719 0.0
C1044 C 0.30829 0.33588 0.14427 0.0
C1045 C 0.31189 0.34141 0.15386 0.0
U1046 U 0.34015 0.34186 0.18547 0.0
O1047 O 0.3463 0.35752 0.19282 0.0
O1048 O 0.33591 0.34603 0.20271 0.0
C1049 C 0.34091 0.35582 0.20218 0.0
C1050 C 0.32422 0.34323 0.17041 0.0
C1051 C 0.33441 0.36521 0.20621 0.0
C1052 C 0.31866 0.37761 0.20476 0.0
C1053 C 0.32476 0.36873 0.20063 0.0
C1054 C 0.33184 0.37955 0.22002 0.0
C1055 C 0.3221 0.3831 0.21455 0.0
C1056 C 0.33792 0.3707 0.21589 0.0
C1057 C 0.36521 0.32311 0.19046 0.0
C1058 C 0.37801 0.32553 0.20608 0.0
C1059 C 0.38057 0.31046 0.19316 0.0
C1060 C 0.37122 0.31387 0.18709 0.0
C1061 C 0.3841 0.31624 0.20273 0.0
C1062 C 0.36865 0.32894 0.19999 0.0
C1063 C 0.35537 0.32651 0.18396 0.0
O1064 O 0.32317 0.33757 0.17975 0.0
O1065 O 0.33364 0.34894 0.16981 0.0
O1066 O 0.35619 0.33625 0.17898 0.0
O1067 O 0.3457 0.32481 0.18881 0.0
H1068 H 0.33301 0.32441 0.16164 0.0
H1069 H 0.32668 0.31457 0.14485 0.0
H1070 H 0.30145 0.3393 0.13949 0.0
H1071 H 0.30769 0.34888 0.15634 0.0
H1072 H 0.31115 0.38005 0.2004 0.0
H1073 H 0.32192 0.36456 0.19315 0.0
H1074 H 0.33484 0.38369 0.22746 0.0
H1075 H 0.34537 0.36813 0.22028 0.0
H1076 H 0.38056 0.33023 0.21333 0.0
H1077 H 0.38493 0.30318 0.19044 0.0
H1078 H 0.36866 0.30925 0.17978 0.0
H1079 H 0.3641 0.33611 0.2027 0.0
C1080 C 0.6597 0.31964 0.18982 0.0
C1081 C 0.65665 0.32578 0.19916 0.0
C1082 C 0.64086 0.31312 0.20241 0.0
C1083 C 0.6473 0.32255 0.2054 0.0
C1084 C 0.64395 0.30708 0.19297 0.0
C1085 C 0.65328 0.31032 0.18675 0.0
U1086 U 0.68572 0.33777 0.18376 0.0
O1087 O 0.70229 0.33258 0.17823 0.0
O1088 O 0.69233 0.34368 0.16771 0.0
C1089 C 0.70124 0.33749 0.16847 0.0
C1090 C 0.66961 0.32268 0.18325 0.0
C1091 C 0.70397 0.33071 0.15863 0.0
C1092 C 0.7004 0.32484 0.13954 0.0
C1093 C 0.69735 0.33089 0.1489 0.0
C1094 C 0.71664 0.3182 0.14944 0.0
C1095 C 0.71009 0.31844 0.13969 0.0
C1096 C 0.71364 0.32431 0.15877 0.0
C1097 C 0.6936 0.3625 0.2027 0.0
C1098 C 0.7108 0.37016 0.21066 0.0
C1099 C 0.69557 0.38236 0.20614 0.0
C1100 C 0.68924 0.37326 0.20237 0.0
C1101 C 0.70638 0.38091 0.21046 0.0
C1102 C 0.70449 0.36106 0.20682 0.0
C1103 C 0.68641 0.35291 0.19939 0.0
O1104 O 0.66918 0.33217 0.17778 0.0
O1105 O 0.67925 0.32111 0.18821 0.0
O1106 O 0.69058 0.34294 0.20065 0.0
O1107 O 0.68071 0.35406 0.19007 0.0
H1108 H 0.66155 0.33299 0.20166 0.0
H1109 H 0.64522 0.32732 0.21268 0.0
H1110 H 0.63911 0.29988 0.19034 0.0
H1111 H 0.6555 0.3055 0.17955 0.0
H1112 H 0.69513 0.32512 0.13219 0.0
H1113 H 0.68986 0.33576 0.14847 0.0
H1114 H 0.72424 0.31347 0.14978 0.0
H1115 H 0.71897 0.32411 0.16609 0.0
H1116 H 0.71914 0.36878 0.21384 0.0
H1117 H 0.69187 0.3905 0.206 0.0
H1118 H 0.68084 0.37461 0.19936 0.0
H1119 H 0.70812 0.35289 0.20722 0.0
C1120 C 0.65516 0.32007 0.83343 0.0
C1121 C 0.65257 0.32549 0.82338 0.0
C1122 C 0.63655 0.31303 0.82065 0.0
C1123 C 0.64334 0.32199 0.81703 0.0
C1124 C 0.63914 0.30773 0.8308 0.0
C1125 C 0.64837 0.31123 0.83713 0.0
U1126 U 0.68015 0.33939 0.83904 0.0
O1127 O 0.68712 0.34559 0.85484 0.0
O1128 O 0.69732 0.33532 0.84402 0.0
C1129 C 0.69643 0.34011 0.85377 0.0
C1130 C 0.66503 0.32337 0.84002 0.0
C1131 C 0.70027 0.33354 0.86352 0.0
C1132 C 0.69814 0.32696 0.88264 0.0
C1133 C 0.69398 0.33267 0.87334 0.0
C1134 C 0.71483 0.32273 0.87245 0.0
C1135 C 0.70866 0.32199 0.88235 0.0
C1136 C 0.71071 0.32848 0.86318 0.0
C1137 C 0.68571 0.36434 0.81982 0.0
C1138 C 0.70257 0.37577 0.82097 0.0
C1139 C 0.6877 0.38092 0.80828 0.0
C1140 C 0.68145 0.37163 0.81175 0.0
C1141 C 0.69836 0.38309 0.81281 0.0
C1142 C 0.69628 0.36649 0.82446 0.0
C1143 C 0.67906 0.35452 0.8232 0.0
O1144 O 0.67464 0.32239 0.83496 0.0
O1145 O 0.66425 0.33271 0.84552 0.0
O1146 O 0.67383 0.35533 0.83272 0.0
O1147 O 0.68392 0.34491 0.82197 0.0
H1148 H 0.65772 0.33237 0.82042 0.0
H1149 H 0.64151 0.32632 0.80931 0.0
H1150 H 0.63419 0.30072 0.83376 0.0
H1151 H 0.65028 0.30693 0.84485 0.0
H1152 H 0.69321 0.32668 0.89016 0.0
H1153 H 0.68592 0.33653 0.87391 0.0
H1154 H 0.72288 0.31885 0.87184 0.0
H1155 H 0.71575 0.32905 0.85575 0.0
H1156 H 0.7107 0.37727 0.82471 0.0
H1157 H 0.68427 0.3863 0.8019 0.0
H1158 H 0.6733 0.37008 0.80807 0.0
H1159 H 0.69968 0.36097 0.83075 0.0
C1160 C 0.65533 0.68112 0.81943 0.0
C1161 C 0.65679 0.69069 0.81275 0.0
C1162 C 0.63668 0.69225 0.81034 0.0
C1163 C 0.64759 0.69619 0.80828 0.0
C1164 C 0.63521 0.68277 0.81712 0.0
C1165 C 0.64442 0.67724 0.82156 0.0
U1166 U 0.67966 0.67548 0.8399 0.0
O1167 O 0.68574 0.65956 0.8465 0.0
O1168 O 0.69676 0.67028 0.83645 0.0
C1169 C 0.69539 0.66061 0.84147 0.0
C1170 C 0.66506 0.67471 0.82348 0.0
C1171 C 0.69896 0.65089 0.83515 0.0
C1172 C 0.69724 0.63858 0.81926 0.0
C1173 C 0.69354 0.64773 0.82525 0.0
C1174 C 0.71176 0.63564 0.83304 0.0
C1175 C 0.70645 0.63246 0.82305 0.0
C1176 C 0.70805 0.64477 0.83901 0.0
C1177 C 0.68476 0.69482 0.86477 0.0
C1178 C 0.70126 0.69437 0.87664 0.0
C1179 C 0.68593 0.70625 0.88133 0.0
C1180 C 0.68007 0.70258 0.87191 0.0
C1181 C 0.69662 0.70223 0.8838 0.0
C1182 C 0.69537 0.69068 0.86722 0.0
C1183 C 0.67852 0.69133 0.85475 0.0
O1184 O 0.67493 0.67958 0.82265 0.0
O1185 O 0.6638 0.66914 0.83287 0.0
O1186 O 0.67296 0.68185 0.85559 0.0
O1187 O 0.68384 0.69248 0.84528 0.0
H1188 H 0.66506 0.69387 0.81083 0.0
H1189 H 0.64901 0.70353 0.80319 0.0
H1190 H 0.62693 0.67942 0.81875 0.0
H1191 H 0.643 0.66979 0.82651 0.0
H1192 H 0.69304 0.63643 0.81154 0.0
H1193 H 0.68651 0.65238 0.82213 0.0
H1194 H 0.71876 0.63104 0.83629 0.0
H1195 H 0.71231 0.64708 0.84666 0.0
H1196 H 0.70941 0.69101 0.87836 0.0
H1197 H 0.68217 0.7124 0.88657 0.0
H1198 H 0.6719 0.70589 0.87013 0.0
H1199 H 0.6991 0.68463 0.86182 0.0
C1200 C 0.32223 0.64761 0.83206 0.0
C1201 C 0.31613 0.64929 0.82216 0.0
C1202 C 0.31382 0.6293 0.81972 0.0
C1203 C 0.31199 0.64025 0.81607 0.0
C1204 C 0.32001 0.62761 0.82955 0.0
C1205 C 0.32412 0.63666 0.83568 0.0
U1206 U 0.3419 0.67244 0.83872 0.0
O1207 O 0.33785 0.68912 0.84469 0.0
O1208 O 0.34844 0.67827 0.85484 0.0
C1209 C 0.34303 0.68767 0.85425 0.0
C1210 C 0.32601 0.65713 0.839 0.0
C1211 C 0.3367 0.69066 0.8642 0.0
C1212 C 0.32334 0.68621 0.87877 0.0
C1213 C 0.32929 0.68309 0.86933 0.0
C1214 C 0.33209 0.70449 0.87796 0.0
C1215 C 0.32465 0.69697 0.88316 0.0
C1216 C 0.33806 0.70135 0.86858 0.0
C1217 C 0.3664 0.67978 0.81932 0.0
C1218 C 0.37454 0.69736 0.81289 0.0
C1219 C 0.3861 0.68115 0.81465 0.0
C1220 C 0.37688 0.67489 0.81832 0.0
C1221 C 0.38501 0.69243 0.81179 0.0
C1222 C 0.36534 0.69112 0.81665 0.0
C1223 C 0.35665 0.67282 0.82267 0.0
O1224 O 0.33555 0.65604 0.84434 0.0
O1225 O 0.32474 0.66713 0.83472 0.0
O1226 O 0.3468 0.67738 0.82178 0.0
O1227 O 0.35784 0.66689 0.83183 0.0
H1228 H 0.31443 0.6576 0.81914 0.0
H1229 H 0.30736 0.64184 0.80846 0.0
H1230 H 0.32146 0.61928 0.83266 0.0
H1231 H 0.32863 0.63508 0.84336 0.0
H1232 H 0.31759 0.68026 0.88252 0.0
H1233 H 0.32809 0.67481 0.86602 0.0
H1234 H 0.3334 0.71278 0.8812 0.0
H1235 H 0.34375 0.7073 0.86473 0.0
H1236 H 0.37347 0.70606 0.81087 0.0
H1237 H 0.39403 0.67708 0.81379 0.0
H1238 H 0.3779 0.66615 0.82025 0.0
H1239 H 0.35739 0.69518 0.81734 0.0
C1240 C 0.339 0.3615 0.81511 0.0
C1241 C 0.32952 0.36511 0.82072 0.0
C1242 C 0.32688 0.37973 0.80679 0.0
C1243 C 0.32352 0.37417 0.8166 0.0
C1244 C 0.33644 0.37608 0.80128 0.0
C1245 C 0.34242 0.36705 0.8054 0.0
U1246 U 0.3445 0.33774 0.83589 0.0
O1247 O 0.34972 0.32064 0.83269 0.0
O1248 O 0.3605 0.33178 0.84253 0.0
C1249 C 0.35947 0.32212 0.83759 0.0
C1250 C 0.34539 0.35194 0.81916 0.0
C1251 C 0.36918 0.31863 0.83116 0.0
C1252 C 0.38026 0.3191 0.81429 0.0
C1253 C 0.3711 0.32271 0.82035 0.0
C1254 C 0.38578 0.30744 0.82984 0.0
C1255 C 0.3877 0.31139 0.81895 0.0
C1256 C 0.3766 0.31102 0.83587 0.0
C1257 C 0.32526 0.33306 0.86093 0.0
C1258 C 0.32826 0.31878 0.87503 0.0
C1259 C 0.31189 0.33024 0.87582 0.0
C1260 C 0.31535 0.3359 0.8662 0.0
C1261 C 0.31829 0.3216 0.88037 0.0
C1262 C 0.33171 0.32446 0.86539 0.0
C1263 C 0.32866 0.33912 0.85079 0.0
O1264 O 0.35087 0.3534 0.82856 0.0
O1265 O 0.34024 0.34223 0.8186 0.0
O1266 O 0.32747 0.33363 0.84144 0.0
O1267 O 0.33816 0.34469 0.85144 0.0
H1268 H 0.32675 0.3609 0.82824 0.0
H1269 H 0.31614 0.3767 0.82099 0.0
H1270 H 0.33936 0.38026 0.79381 0.0
H1271 H 0.34974 0.3644 0.80099 0.0
H1272 H 0.38157 0.32241 0.80598 0.0
H1273 H 0.36548 0.32864 0.8166 0.0
H1274 H 0.39125 0.30141 0.83363 0.0
H1275 H 0.37524 0.30777 0.84419 0.0
H1276 H 0.33344 0.31225 0.87836 0.0
H1277 H 0.30409 0.33252 0.87958 0.0
H1278 H 0.31024 0.34249 0.86284 0.0
H1279 H 0.3394 0.32216 0.86141 0.0
H1280 H 0.27514 0.23755 0.95811 0.0
N1281 N 0.27175 0.25608 0.96929 0.0
H1282 H 0.26203 0.22773 0.94581 0.0
H1283 H 0.24947 0.26031 0.96707 0.0
H1284 H 0.23624 0.25052 0.95482 0.0
H1285 H 0.26222 0.27431 0.95951 0.0
H1286 H 0.27092 0.28684 0.946 0.0
H1287 H 0.29306 0.25684 0.96339 0.0
H1288 H 0.3018 0.26915 0.94953 0.0
H1289 H 0.27801 0.24319 0.98615 0.0
H1290 H 0.26127 0.27379 0.9788 0.0
H1291 H 0.27525 0.24608 0.00606 0.0
H1292 H 0.25888 0.27701 0.99861 0.0
H1293 H 0.26593 0.24754 0.05422 0.0
H1294 H 0.25724 0.23435 0.06729 0.0
H1295 H 0.23215 0.25847 0.07472 0.0
H1296 H 0.24112 0.27168 0.06187 0.0
H1297 H 0.25899 0.29054 0.05623 0.0
H1298 H 0.27044 0.30051 0.06995 0.0
H1299 H 0.29086 0.27153 0.07416 0.0
H1300 H 0.27921 0.26159 0.06068 0.0
H1301 H 0.2782 0.25965 0.04132 0.0
H1302 H 0.2811 0.25683 0.02148 0.0
H1303 H 0.24889 0.27095 0.01441 0.0
N1304 N 0.26002 0.2692 0.05095 0.0
H1305 H 0.24633 0.27415 0.03428 0.0
C1306 C 0.26332 0.24962 0.96351 0.0
C1307 C 0.26659 0.24026 0.9576 0.0
C1308 C 0.25908 0.23467 0.95058 0.0
C1309 C 0.24809 0.23837 0.94928 0.0
C1310 C 0.24469 0.24754 0.95553 0.0
C1311 C 0.25222 0.25311 0.9626 0.0
C1312 C 0.27704 0.26465 0.96259 0.0
C1313 C 0.27094 0.27329 0.95765 0.0
C1314 C 0.2759 0.28038 0.94977 0.0
C1315 C 0.28704 0.27895 0.94656 0.0
C1316 C 0.29325 0.27059 0.95186 0.0
C1317 C 0.28828 0.26353 0.95978 0.0
C1318 C 0.26995 0.25825 0.98094 0.0
C1319 C 0.27382 0.25058 0.98885 0.0
C1320 C 0.2723 0.25231 1.00025 0.0
C1321 C 0.26688 0.26183 0.00404 0.0
C1322 C 0.26297 0.26951 0.99606 0.0
C1323 C 0.26442 0.26772 0.98465 0.0
C1324 C 0.25416 0.26063 0.05712 0.0
C1325 C 0.25848 0.24992 0.05854 0.0
C1326 C 0.25347 0.24237 0.066 0.0
C1327 C 0.24406 0.2454 0.07216 0.0
C1328 C 0.2395 0.25594 0.07028 0.0
C1329 C 0.24452 0.26346 0.06287 0.0
C1330 C 0.26823 0.27537 0.05734 0.0
C1331 C 0.26612 0.28646 0.05991 0.0
C1332 C 0.27268 0.29213 0.06777 0.0
C1333 C 0.28154 0.2868 0.07325 0.0
C1334 C 0.28401 0.27584 0.07023 0.0
C1335 C 0.27742 0.27018 0.06238 0.0
C1336 C 0.26206 0.26725 0.03931 0.0
C1337 C 0.2718 0.26222 0.03553 0.0
C1338 C 0.2734 0.26051 0.02412 0.0
C1339 C 0.26525 0.26368 0.01624 0.0
C1340 C 0.25547 0.26859 0.02013 0.0
C1341 C 0.25394 0.27036 0.03151 0.0
H1342 H 0.78509 0.27193 0.95811 0.0
N1343 N 0.76725 0.26737 0.97032 0.0
H1344 H 0.79478 0.25952 0.94563 0.0
H1345 H 0.76336 0.24499 0.96843 0.0
H1346 H 0.77319 0.23232 0.95614 0.0
H1347 H 0.74953 0.25771 0.95938 0.0
H1348 H 0.73723 0.26681 0.94594 0.0
H1349 H 0.76605 0.28904 0.96604 0.0
H1350 H 0.75378 0.29825 0.95256 0.0
H1351 H 0.78212 0.26615 0.98677 0.0
H1352 H 0.74691 0.2623 0.98002 0.0
H1353 H 0.77887 0.26216 0.00641 0.0
H1354 H 0.74348 0.25917 0.99965 0.0
H1355 H 0.77088 0.26103 0.06248 0.0
H1356 H 0.78287 0.2509 0.07537 0.0
H1357 H 0.76535 0.22034 0.06712 0.0
H1358 H 0.75308 0.23069 0.05459 0.0
H1359 H 0.73487 0.24836 0.06406 0.0
H1360 H 0.7264 0.26061 0.07759 0.0
H1361 H 0.74869 0.28727 0.06721 0.0
H1362 H 0.7573 0.27487 0.05402 0.0
H1363 H 0.7693 0.26551 0.04251 0.0
H1364 H 0.77242 0.26916 0.02281 0.0
H1365 H 0.74458 0.24728 0.01463 0.0
N1366 N 0.75257 0.25255 0.05155 0.0
H1367 H 0.74105 0.24447 0.03444 0.0
C1368 C 0.77358 0.2594 0.96421 0.0
C1369 C 0.78259 0.26325 0.95784 0.0
C1370 C 0.78813 0.25611 0.95074 0.0
C1371 C 0.78479 0.24488 0.94986 0.0
C1372 C 0.77591 0.24094 0.95651 0.0
C1373 C 0.77034 0.24813 0.96361 0.0
C1374 C 0.75876 0.27273 0.9637 0.0
C1375 C 0.75041 0.26658 0.95807 0.0
C1376 C 0.74342 0.27179 0.95034 0.0
C1377 C 0.74459 0.28324 0.9481 0.0
C1378 C 0.75259 0.28944 0.95415 0.0
C1379 C 0.75961 0.28421 0.96184 0.0
C1380 C 0.76484 0.26461 0.98182 0.0
C1381 C 0.77367 0.26451 0.98954 0.0
C1382 C 0.77175 0.26236 1.00083 0.0
C1383 C 0.76086 0.26044 0.00479 0.0
C1384 C 0.75201 0.26043 0.997 0.0
C1385 C 0.75397 0.26235 0.98566 0.0
C1386 C 0.76099 0.2466 0.05765 0.0
C1387 C 0.76972 0.25214 0.06331 0.0
C1388 C 0.77662 0.2463 0.07067 0.0
C1389 C 0.77499 0.2348 0.07244 0.0
C1390 C 0.76669 0.22922 0.06619 0.0
C1391 C 0.75974 0.23508 0.05892 0.0
C1392 C 0.74666 0.26063 0.05795 0.0
C1393 C 0.73775 0.25692 0.06456 0.0
C1394 C 0.73292 0.26396 0.07228 0.0
C1395 C 0.73689 0.27494 0.07357 0.0
C1396 C 0.74553 0.27881 0.06659 0.0
C1397 C 0.7504 0.27173 0.0589 0.0
C1398 C 0.75475 0.2549 0.03996 0.0
C1399 C 0.76372 0.2617 0.03649 0.0
C1400 C 0.76561 0.26361 0.02514 0.0
C1401 C 0.75876 0.25854 0.01696 0.0
C1402 C 0.7499 0.25158 0.02055 0.0
C1403 C 0.7479 0.24988 0.0319 0.0
H1404 H 0.75594 0.76963 0.95979 0.0
N1405 N 0.76445 0.75089 0.96955 0.0
H1406 H 0.76555 0.782 0.94672 0.0
H1407 H 0.78599 0.75103 0.96454 0.0
H1408 H 0.79576 0.76349 0.95147 0.0
H1409 H 0.76771 0.73237 0.95832 0.0
H1410 H 0.75485 0.72313 0.94534 0.0
H1411 H 0.74244 0.75588 0.96643 0.0
H1412 H 0.72945 0.74667 0.95349 0.0
H1413 H 0.75387 0.76849 0.9791 0.0
H1414 H 0.7702 0.73764 0.98631 0.0
H1415 H 0.75111 0.77143 0.99892 0.0
H1416 H 0.76709 0.74026 0.00621 0.0
H1417 H 0.74962 0.78507 0.05554 0.0
H1418 H 0.76105 0.7965 0.06815 0.0
H1419 H 0.78323 0.76899 0.07323 0.0
H1420 H 0.77186 0.75774 0.06057 0.0
H1421 H 0.75918 0.74271 0.05596 0.0
H1422 H 0.75131 0.73006 0.07002 0.0
H1423 H 0.72452 0.75292 0.07536 0.0
H1424 H 0.73271 0.76565 0.06158 0.0
H1425 H 0.73821 0.76844 0.03442 0.0
H1426 H 0.74084 0.76521 0.01455 0.0
H1427 H 0.7729 0.75086 0.02178 0.0
N1428 N 0.75194 0.76366 0.05112 0.0
H1429 H 0.76995 0.75374 0.04162 0.0
C1430 C 0.77029 0.7594 0.96324 0.0
C1431 C 0.76469 0.76837 0.95827 0.0
C1432 C 0.77022 0.77546 0.95076 0.0
C1433 C 0.78142 0.7737 0.94798 0.0
C1434 C 0.7871 0.76499 0.95331 0.0
C1435 C 0.78158 0.75794 0.96086 0.0
C1436 C 0.75607 0.74478 0.96333 0.0
C1437 C 0.75929 0.73537 0.95746 0.0
C1438 C 0.75192 0.73011 0.95006 0.0
C1439 C 0.74112 0.73419 0.94833 0.0
C1440 C 0.73775 0.74341 0.95453 0.0
C1441 C 0.74515 0.74864 0.96199 0.0
C1442 C 0.76237 0.75285 0.98119 0.0
C1443 C 0.75684 0.76231 0.98492 0.0
C1444 C 0.75517 0.76393 0.99633 0.0
C1445 C 0.75889 0.7561 0.00427 0.0
C1446 C 0.76429 0.74659 1.00043 0.0
C1447 C 0.766 0.74502 0.98905 0.0
C1448 C 0.75987 0.7706 0.05703 0.0
C1449 C 0.7571 0.78163 0.05918 0.0
C1450 C 0.76358 0.78809 0.06647 0.0
C1451 C 0.773 0.78362 0.0718 0.0
C1452 C 0.77609 0.77273 0.06921 0.0
C1453 C 0.76958 0.76626 0.06192 0.0
C1454 C 0.74653 0.75517 0.05778 0.0
C1455 C 0.75154 0.74492 0.06005 0.0
C1456 C 0.74699 0.73767 0.06808 0.0
C1457 C 0.73735 0.74053 0.07396 0.0
C1458 C 0.73207 0.75054 0.07119 0.0
C1459 C 0.73665 0.75777 0.06322 0.0
C1460 C 0.75386 0.76142 0.03952 0.0
C1461 C 0.74578 0.76456 0.03168 0.0
C1462 C 0.74735 0.76278 0.02031 0.0
C1463 C 0.75713 0.75783 0.01646 0.0
C1464 C 0.76521 0.75458 0.02439 0.0
C1465 C 0.76357 0.7563 0.03579 0.0
H1466 H 0.27805 0.75036 0.96059 0.0
N1467 N 0.25909 0.7417 0.97011 0.0
H1468 H 0.29015 0.74093 0.94763 0.0
H1469 H 0.25883 0.72014 0.96533 0.0
H1470 H 0.27105 0.71053 0.95241 0.0
H1471 H 0.24085 0.73789 0.95803 0.0
H1472 H 0.23212 0.7504 0.94452 0.0
H1473 H 0.26451 0.76367 0.96697 0.0
H1474 H 0.25608 0.77619 0.9532 0.0
H1475 H 0.2793 0.74628 0.98064 0.0
H1476 H 0.24381 0.74361 0.98583 0.0
H1477 H 0.28219 0.74981 1.00026 0.0
H1478 H 0.24657 0.7479 0.00547 0.0
H1479 H 0.29154 0.75987 0.06225 0.0
H1480 H 0.30008 0.74716 0.0757 0.0
H1481 H 0.27421 0.72271 0.06879 0.0
H1482 H 0.26568 0.73549 0.05554 0.0
H1483 H 0.25301 0.7498 0.06128 0.0
H1484 H 0.24184 0.76022 0.07432 0.0
H1485 H 0.26259 0.78936 0.06836 0.0
H1486 H 0.27399 0.77867 0.05563 0.0
H1487 H 0.28402 0.76521 0.03448 0.0
H1488 H 0.28079 0.76229 0.01462 0.0
H1489 H 0.25251 0.74089 0.02243 0.0
N1490 N 0.27235 0.75709 0.05143 0.0
H1491 H 0.25538 0.74458 0.04215 0.0
C1492 C 0.26753 0.73592 0.964 0.0
C1493 C 0.27658 0.74162 0.95905 0.0
C1494 C 0.28353 0.73619 0.95164 0.0
C1495 C 0.28154 0.72498 0.94893 0.0
C1496 C 0.27274 0.71919 0.95423 0.0
C1497 C 0.26583 0.72463 0.96169 0.0
C1498 C 0.25331 0.74982 0.96345 0.0
C1499 C 0.24405 0.74632 0.95715 0.0
C1500 C 0.23917 0.75344 0.94936 0.0
C1501 C 0.2435 0.76425 0.94765 0.0
C1502 C 0.2525 0.76794 0.95434 0.0
C1503 C 0.25736 0.76079 0.96218 0.0
C1504 C 0.26126 0.74455 0.98163 0.0
C1505 C 0.27206 0.74657 0.98591 0.0
C1506 C 0.27372 0.74871 0.99725 0.0
C1507 C 0.26464 0.74913 0.00461 0.0
C1508 C 0.25383 0.7474 1.00022 0.0
C1509 C 0.25221 0.74507 0.98893 0.0
C1510 C 0.27801 0.74869 0.05785 0.0
C1511 C 0.28787 0.75168 0.06348 0.0
C1512 C 0.29273 0.74439 0.07115 0.0
C1513 C 0.28778 0.73394 0.07339 0.0
C1514 C 0.27814 0.73077 0.06738 0.0
C1515 C 0.27329 0.73806 0.0597 0.0
C1516 C 0.26441 0.76347 0.05752 0.0
C1517 C 0.25506 0.75847 0.06262 0.0
C1518 C 0.24864 0.76448 0.07008 0.0
C1519 C 0.25139 0.77562 0.07254 0.0
C1520 C 0.26037 0.78074 0.06688 0.0
C1521 C 0.26681 0.7747 0.0595 0.0
C1522 C 0.27009 0.75501 0.03982 0.0
C1523 C 0.27711 0.75992 0.03185 0.0
C1524 C 0.27529 0.75814 0.02049 0.0
C1525 C 0.26643 0.75125 0.01678 0.0
C1526 C 0.25934 0.74637 0.02485 0.0
C1527 C 0.26108 0.74832 0.03622 0.0
H1528 H 0.96177 0.23947 0.28284 0.0
N1529 N 0.97396 0.24441 0.26512 0.0
H1530 H 0.94962 0.25175 0.29309 0.0
H1531 H 0.9729 0.26704 0.26245 0.0
H1532 H 0.96096 0.27951 0.27284 0.0
H1533 H 0.96264 0.25514 0.24844 0.0
H1534 H 0.949 0.2468 0.23578 0.0
H1535 H 0.9698 0.22285 0.26221 0.0
H1536 H 0.95644 0.2143 0.2492 0.0
H1537 H 0.99111 0.23817 0.27762 0.0
H1538 H 0.98304 0.25571 0.24731 0.0
H1539 H 0.01099 0.24105 0.27401 0.0
H1540 H 0.00284 0.25823 0.24334 0.0
H1541 H 0.05853 0.25012 0.27097 0.0
H1542 H 0.07183 0.2586 0.28405 0.0
H1543 H 0.08036 0.28357 0.25933 0.0
H1544 H 0.06727 0.2748 0.24623 0.0
H1545 H 0.06041 0.25702 0.22764 0.0
H1546 H 0.07362 0.24547 0.21776 0.0
H1547 H 0.07775 0.22527 0.24736 0.0
H1548 H 0.06482 0.23702 0.2572 0.0
H1549 H 0.04545 0.23784 0.2589 0.0
H1550 H 0.02561 0.23519 0.2625 0.0
H1551 H 0.01933 0.26781 0.24874 0.0
N1552 N 0.0555 0.25617 0.24915 0.0
H1553 H 0.03919 0.27015 0.24475 0.0
C1554 C 0.96828 0.2523 0.27194 0.0
C1555 C 0.96179 0.24825 0.28078 0.0
C1556 C 0.95486 0.2553 0.28663 0.0
C1557 C 0.95427 0.26665 0.2838 0.0
C1558 C 0.9611 0.2708 0.27516 0.0
C1559 C 0.96802 0.2637 0.26928 0.0
C1560 C 0.9672 0.2396 0.25636 0.0
C1561 C 0.96146 0.24621 0.24858 0.0
C1562 C 0.95367 0.2414 0.24128 0.0
C1563 C 0.95151 0.22986 0.24152 0.0
C1564 C 0.95771 0.22323 0.24893 0.0
C1565 C 0.96544 0.22807 0.25628 0.0
C1566 C 0.98558 0.24663 0.26275 0.0
C1567 C 0.99366 0.24261 0.27015 0.0
C1568 C 0.00502 0.24418 0.26801 0.0
C1569 C 0.00861 0.2498 0.25831 0.0
C1570 C 1.00045 0.25397 0.25095 0.0
C1571 C 0.98907 0.25246 0.25316 0.0
C1572 C 0.06196 0.26184 0.25759 0.0
C1573 C 0.06316 0.25749 0.26842 0.0
C1574 C 0.07075 0.26238 0.27591 0.0
C1575 C 0.07726 0.2717 0.2727 0.0
C1576 C 0.07564 0.27628 0.26201 0.0
C1577 C 0.0681 0.27137 0.25455 0.0
C1578 C 0.06154 0.2479 0.24312 0.0
C1579 C 0.06396 0.24992 0.23189 0.0
C1580 C 0.07151 0.2433 0.22626 0.0
C1581 C 0.07684 0.23448 0.23178 0.0
C1582 C 0.07394 0.2321 0.24289 0.0
C1583 C 0.0664 0.23875 0.24851 0.0
C1584 C 0.04383 0.25418 0.25141 0.0
C1585 C 0.03983 0.24438 0.25656 0.0
C1586 C 0.02843 0.24293 0.25873 0.0
C1587 C 0.02077 0.25128 0.25592 0.0
C1588 C 0.02487 0.2611 0.25084 0.0
C1589 C 0.03624 0.26249 0.24861 0.0
H1590 H 0.76586 0.05894 0.26382 0.0
N1591 N 0.74725 0.04924 0.25437 0.0
H1592 H 0.77886 0.07179 0.2548 0.0
H1593 H 0.74793 0.05473 0.23289 0.0
H1594 H 0.76074 0.06798 0.2238 0.0
H1595 H 0.72923 0.06128 0.25095 0.0
H1596 H 0.72059 0.07407 0.26389 0.0
H1597 H 0.75213 0.05096 0.27664 0.0
H1598 H 0.74352 0.06369 0.2897 0.0
H1599 H 0.76537 0.03969 0.26465 0.0
H1600 H 0.73376 0.03243 0.24885 0.0
H1601 H 0.76865 0.01995 0.26699 0.0
H1602 H 0.7367 0.01253 0.25163 0.0
H1603 H 0.78329 0.96335 0.26556 0.0
H1604 H 0.79313 0.95067 0.2534 0.0
H1605 H 0.76311 0.94615 0.23373 0.0
H1606 H 0.75331 0.95854 0.24611 0.0
H1607 H 0.73986 0.96324 0.26006 0.0
H1608 H 0.72783 0.94936 0.26924 0.0
H1609 H 0.75376 0.9434 0.29362 0.0
H1610 H 0.76582 0.95701 0.28413 0.0
H1611 H 0.76712 0.98412 0.27904 0.0
H1612 H 0.76331 0.00391 0.27697 0.0
H1613 H 0.74711 0.99739 0.24536 0.0
N1614 N 0.76169 0.96779 0.26527 0.0
H1615 H 0.75052 0.9776 0.24782 0.0
C1616 C 0.75592 0.05575 0.24899 0.0
C1617 C 0.7648 0.06061 0.25503 0.0
C1618 C 0.77218 0.06811 0.24987 0.0
C1619 C 0.77079 0.07104 0.23859 0.0
C1620 C 0.76214 0.06586 0.23247 0.0
C1621 C 0.7548 0.05829 0.23764 0.0
C1622 C 0.74129 0.05517 0.26278 0.0
C1623 C 0.7322 0.06159 0.25947 0.0
C1624 C 0.72729 0.06889 0.26689 0.0
C1625 C 0.73141 0.06997 0.27782 0.0
C1626 C 0.74024 0.06317 0.28129 0.0
C1627 C 0.74513 0.05582 0.27386 0.0
C1628 C 0.74932 0.03761 0.25642 0.0
C1629 C 0.75907 0.03388 0.26172 0.0
C1630 C 0.7609 0.02249 0.26316 0.0
C1631 C 0.75296 0.01453 0.25948 0.0
C1632 C 0.74312 0.01834 0.25438 0.0
C1633 C 0.74136 0.02972 0.25286 0.0
C1634 C 0.76762 0.96199 0.25675 0.0
C1635 C 0.77894 0.95982 0.25846 0.0
C1636 C 0.78454 0.95257 0.25148 0.0
C1637 C 0.7789 0.94731 0.2426 0.0
C1638 C 0.76767 0.94992 0.24057 0.0
C1639 C 0.76207 0.95715 0.24759 0.0
C1640 C 0.75378 0.96108 0.27141 0.0
C1641 C 0.74289 0.95903 0.26745 0.0
C1642 C 0.736 0.95112 0.27274 0.0
C1643 C 0.73987 0.94515 0.2821 0.0
C1644 C 0.75058 0.94766 0.28632 0.0
C1645 C 0.75745 0.95551 0.281 0.0
C1646 C 0.75924 0.97938 0.26358 0.0
C1647 C 0.76273 0.987 0.27169 0.0
C1648 C 0.76061 0.99833 0.27043 0.0
C1649 C 0.75498 1.00236 0.26094 0.0
C1650 C 0.75137 0.99464 0.25284 0.0
C1651 C 0.75341 0.98327 0.25418 0.0
H1652 H 0.0626 0.76301 0.2693 0.0
N1653 N 0.05139 0.75492 0.25107 0.0
H1654 H 0.07508 0.75259 0.28143 0.0
H1655 H 0.05344 0.73296 0.25203 0.0
H1656 H 0.06561 0.72231 0.26444 0.0
H1657 H 0.06253 0.75013 0.23282 0.0
H1658 H 0.07654 0.76168 0.22332 0.0
H1659 H 0.0563 0.77669 0.25561 0.0
H1660 H 0.07036 0.7884 0.24614 0.0
H1661 H 0.04174 0.76207 0.27044 0.0
H1662 H 0.03531 0.75532 0.2358 0.0
H1663 H 0.02217 0.76622 0.27308 0.0
H1664 H 0.01584 0.76023 0.23812 0.0
H1665 H 0.95971 0.77784 0.28102 0.0
H1666 H 0.94686 0.76599 0.29178 0.0
H1667 H 0.95422 0.73838 0.27046 0.0
H1668 H 0.96715 0.75014 0.26 0.0
H1669 H 0.95992 0.76222 0.24536 0.0
H1670 H 0.9465 0.77059 0.23267 0.0
H1671 H 0.95351 0.80274 0.24717 0.0
H1672 H 0.96664 0.79412 0.26018 0.0
H1673 H 0.98803 0.78182 0.27309 0.0
H1674 H 0.0078 0.77841 0.27018 0.0
H1675 H 0.99897 0.75418 0.24506 0.0
N1676 N 0.97065 0.77261 0.26272 0.0
H1677 H 0.97939 0.75834 0.24748 0.0
C1678 C 0.05712 0.74875 0.25967 0.0
C1679 C 0.06307 0.75411 0.26828 0.0
C1680 C 0.07019 0.74811 0.27527 0.0
C1681 C 0.07149 0.7366 0.27385 0.0
C1682 C 0.06501 0.73119 0.26564 0.0
C1683 C 0.05795 0.73722 0.25862 0.0
C1684 C 0.05842 0.76254 0.24488 0.0
C1685 C 0.06406 0.75856 0.23561 0.0
C1686 C 0.07204 0.76518 0.2302 0.0
C1687 C 0.07459 0.77597 0.23398 0.0
C1688 C 0.06866 0.78009 0.24309 0.0
C1689 C 0.0606 0.77345 0.24847 0.0
C1690 C 0.04001 0.75818 0.25291 0.0
C1691 C 0.03616 0.76157 0.26335 0.0
C1692 C 0.02489 0.76407 0.26482 0.0
C1693 C 0.01725 0.7635 0.25585 0.0
C1694 C 0.02129 0.76048 0.24534 0.0
C1695 C 0.03248 0.75778 0.24394 0.0
C1696 C 0.96445 0.76494 0.26973 0.0
C1697 C 0.95871 0.76916 0.27884 0.0
C1698 C 0.95129 0.76241 0.28489 0.0
C1699 C 0.94942 0.75124 0.28192 0.0
C1700 C 0.95553 0.7469 0.27305 0.0
C1701 C 0.96295 0.75367 0.26701 0.0
C1702 C 0.96426 0.77756 0.25381 0.0
C1703 C 0.95873 0.77108 0.24571 0.0
C1704 C 0.95104 0.77592 0.2384 0.0
C1705 C 0.94878 0.78735 0.23896 0.0
C1706 C 0.95484 0.79388 0.24664 0.0
C1707 C 0.96245 0.78901 0.254 0.0
C1708 C 0.9822 0.77027 0.26064 0.0
C1709 C 0.99042 0.77582 0.26693 0.0
C1710 C 1.00174 0.77375 0.26531 0.0
C1711 C 0.00513 0.76592 0.25743 0.0
C1712 C 0.99681 0.76039 0.2511 0.0
C1713 C 0.9855 0.76263 0.25259 0.0
H1714 H 0.29763 0.9612 0.24753 0.0
N1715 N 0.27595 0.96529 0.24791 0.0
H1716 H 0.30795 0.94845 0.25966 0.0
H1717 H 0.26802 0.95516 0.26689 0.0
H1718 H 0.27817 0.94238 0.27891 0.0
H1719 H 0.25409 0.96198 0.25374 0.0
H1720 H 0.24096 0.94868 0.24528 0.0
H1721 H 0.27884 0.95364 0.22956 0.0
H1722 H 0.26581 0.94027 0.22106 0.0
H1723 H 0.28049 0.98218 0.23426 0.0
H1724 H 0.26596 0.97446 0.26613 0.0
H1725 H 0.27663 1.00188 0.23689 0.0
H1726 H 0.26244 0.99408 0.26905 0.0
H1727 H 0.27845 0.05753 0.2533 0.0
H1728 H 0.28999 0.07061 0.26388 0.0
H1729 H 0.27218 0.06143 0.29381 0.0
H1730 H 0.26035 0.04865 0.28299 0.0
H1731 H 0.24115 0.05578 0.26492 0.0
H1732 H 0.23143 0.06892 0.25282 0.0
H1733 H 0.25572 0.06369 0.2271 0.0
H1734 H 0.2654 0.05053 0.23934 0.0
H1735 H 0.27828 0.03753 0.25022 0.0
H1736 H 0.28212 0.01791 0.24718 0.0
H1737 H 0.25098 0.00882 0.263 0.0
N1738 N 0.26027 0.04587 0.26108 0.0
H1739 H 0.24747 0.02846 0.26634 0.0
C1740 C 0.2821 0.95922 0.25629 0.0
C1741 C 0.29343 0.95731 0.25454 0.0
C1742 C 0.29926 0.94994 0.2614 0.0
C1743 C 0.29386 0.94431 0.2702 0.0
C1744 C 0.28262 0.94665 0.27228 0.0
C1745 C 0.27679 0.954 0.26539 0.0
C1746 C 0.26747 0.9588 0.24224 0.0
C1747 C 0.25665 0.95741 0.24651 0.0
C1748 C 0.24917 0.94974 0.2417 0.0
C1749 C 0.25235 0.94336 0.23253 0.0
C1750 C 0.26303 0.94512 0.22803 0.0
C1751 C 0.27049 0.95274 0.23287 0.0
C1752 C 0.2736 0.97682 0.24997 0.0
C1753 C 0.27654 0.98476 0.24186 0.0
C1754 C 0.27439 0.99604 0.24343 0.0
C1755 C 0.26924 0.99965 0.25321 0.0
C1756 C 0.26627 0.99164 0.26134 0.0
C1757 C 0.26838 0.98035 0.25973 0.0
C1758 C 0.26845 0.05216 0.26737 0.0
C1759 C 0.27712 0.05819 0.26216 0.0
C1760 C 0.28377 0.06567 0.26825 0.0
C1761 C 0.28194 0.06721 0.27969 0.0
C1762 C 0.27367 0.06065 0.28497 0.0
C1763 C 0.26699 0.05325 0.27885 0.0
C1764 C 0.25396 0.05219 0.25306 0.0
C1765 C 0.24422 0.0573 0.25658 0.0
C1766 C 0.23868 0.06479 0.24964 0.0
C1767 C 0.24281 0.06739 0.23899 0.0
C1768 C 0.25239 0.06195 0.2353 0.0
C1769 C 0.25789 0.05438 0.24226 0.0
C1770 C 0.2626 0.03445 0.2586 0.0
C1771 C 0.27229 0.03132 0.25303 0.0
C1772 C 0.27444 0.02006 0.25124 0.0
C1773 C 0.26691 0.0117 0.2549 0.0
C1774 C 0.25711 0.01495 0.26026 0.0
C1775 C 0.25502 0.02618 0.2621 0.0
H1776 H 0.06203 0.74096 0.76247 0.0
N1777 N 0.05334 0.76075 0.75556 0.0
H1778 H 0.07446 0.72932 0.75178 0.0
H1779 H 0.05773 0.76248 0.734 0.0
H1780 H 0.06995 0.75073 0.72311 0.0
H1781 H 0.06507 0.77938 0.75243 0.0
H1782 H 0.0791 0.78762 0.76487 0.0
H1783 H 0.05754 0.75428 0.77714 0.0
H1784 H 0.07124 0.76261 0.78975 0.0
H1785 H 0.04339 0.74454 0.76848 0.0
H1786 H 0.03684 0.77281 0.74741 0.0
H1787 H 0.02359 0.74251 0.77243 0.0
H1788 H 0.01686 0.7704 0.75057 0.0
H1789 H 0.95873 0.73231 0.77354 0.0
H1790 H 0.94536 0.72436 0.76022 0.0
H1791 H 0.95536 0.74915 0.73588 0.0
H1792 H 0.96871 0.75707 0.74935 0.0
H1793 H 0.96224 0.76984 0.76355 0.0
H1794 H 0.94946 0.78143 0.77382 0.0
H1795 H 0.95435 0.76098 0.80312 0.0
H1796 H 0.96696 0.74924 0.79264 0.0
H1797 H 0.98665 0.73479 0.76984 0.0
H1798 H 0.00643 0.73693 0.76567 0.0
H1799 H 1.00245 0.7725 0.76292 0.0
N1800 N 0.9714 0.75042 0.77101 0.0
H1801 H 0.98261 0.77015 0.76631 0.0
C1802 C 0.05896 0.75263 0.74901 0.0
C1803 C 0.06351 0.74302 0.75383 0.0
C1804 C 0.07064 0.73635 0.74769 0.0
C1805 C 0.07334 0.73916 0.73662 0.0
C1806 C 0.06824 0.74844 0.73167 0.0
C1807 C 0.06115 0.75509 0.73782 0.0
C1808 C 0.06018 0.76628 0.76382 0.0
C1809 C 0.06625 0.77583 0.76066 0.0
C1810 C 0.07425 0.78053 0.7678 0.0
C1811 C 0.07636 0.77575 0.77832 0.0
C1812 C 0.06996 0.7664 0.78165 0.0
C1813 C 0.06199 0.76168 0.77446 0.0
C1814 C 0.04164 0.759 0.75779 0.0
C1815 C 0.03769 0.75033 0.76469 0.0
C1816 C 0.02626 0.74908 0.7668 0.0
C1817 C 0.01846 0.7563 0.76186 0.0
C1818 C 0.02251 0.76482 0.75478 0.0
C1819 C 0.03395 0.76617 0.75285 0.0
C1820 C 0.96468 0.74524 0.76245 0.0
C1821 C 0.95815 0.73588 0.76526 0.0
C1822 C 0.95055 0.73136 0.75763 0.0
C1823 C 0.94926 0.73614 0.74699 0.0
C1824 C 0.95606 0.74536 0.74405 0.0
C1825 C 0.96373 0.74985 0.7517 0.0
C1826 C 0.96558 0.75863 0.77735 0.0
C1827 C 0.96075 0.76796 0.77223 0.0
C1828 C 0.95344 0.77462 0.77814 0.0
C1829 C 0.95077 0.77207 0.78927 0.0
C1830 C 0.95607 0.76307 0.79451 0.0
C1831 C 0.96338 0.75643 0.78859 0.0
C1832 C 0.98308 0.75224 0.7685 0.0
C1833 C 0.99007 0.74304 0.76827 0.0
C1834 C 1.00143 0.74431 0.766 0.0
C1835 C 0.00621 0.75492 0.76404 0.0
C1836 C 0.99915 0.76417 0.76421 0.0
C1837 C 0.98771 0.76285 0.76628 0.0
H1838 H 0.27642 0.05029 0.76612 0.0
N1839 N 0.25422 0.04681 0.76167 0.0
H1840 H 0.28876 0.06373 0.75671 0.0
H1841 H 0.24987 0.05832 0.74328 0.0
H1842 H 0.26221 0.07153 0.73358 0.0
H1843 H 0.23261 0.05122 0.7624 0.0
H1844 H 0.22335 0.06408 0.7749 0.0
H1845 H 0.26354 0.05654 0.78018 0.0
H1846 H 0.25444 0.0694 0.79259 0.0
H1847 H 0.26502 0.03715 0.77949 0.0
H1848 H 0.24931 0.03035 0.74787 0.0
H1849 H 0.26874 0.01745 0.78203 0.0
H1850 H 0.25345 0.01064 0.75005 0.0
H1851 H 0.28881 0.95447 0.77721 0.0
H1852 H 0.29847 0.94197 0.76478 0.0
H1853 H 0.27627 0.95133 0.73792 0.0
H1854 H 0.26652 0.96366 0.75056 0.0
H1855 H 0.25253 0.95521 0.76325 0.0
H1856 H 0.2403 0.94142 0.77205 0.0
H1857 H 0.25736 0.9466 0.80341 0.0
H1858 H 0.26968 0.96043 0.79446 0.0
H1859 H 0.2833 0.98297 0.77878 0.0
H1860 H 0.27977 1.00275 0.77594 0.0
H1861 H 0.24844 0.99433 0.7598 0.0
N1862 N 0.2705 0.96576 0.77296 0.0
H1863 H 0.25234 0.97467 0.76221 0.0
C1864 C 0.26219 0.05335 0.75539 0.0
C1865 C 0.27331 0.05479 0.75895 0.0
C1866 C 0.28037 0.06246 0.75352 0.0
C1867 C 0.27644 0.06881 0.74445 0.0
C1868 C 0.26545 0.06695 0.74066 0.0
C1869 C 0.25842 0.05933 0.7461 0.0
C1870 C 0.24872 0.05281 0.77036 0.0
C1871 C 0.23733 0.05495 0.76916 0.0
C1872 C 0.2321 0.06239 0.77623 0.0
C1873 C 0.23817 0.06785 0.78469 0.0
C1874 C 0.24948 0.06527 0.78624 0.0
C1875 C 0.25471 0.05786 0.77913 0.0
C1876 C 0.25672 0.03524 0.76351 0.0
C1877 C 0.26237 0.03145 0.77306 0.0
C1878 C 0.26461 0.02012 0.77445 0.0
C1879 C 0.26139 0.01234 0.76626 0.0
C1880 C 0.25587 0.01626 0.75665 0.0
C1881 C 0.25356 0.02755 0.75534 0.0
C1882 C 0.277 0.96002 0.76484 0.0
C1883 C 0.28621 0.95399 0.76857 0.0
C1884 C 0.29172 0.94687 0.76143 0.0
C1885 C 0.28814 0.94559 0.75033 0.0
C1886 C 0.27916 0.95199 0.74646 0.0
C1887 C 0.27363 0.95914 0.75365 0.0
C1888 C 0.26201 0.95895 0.77824 0.0
C1889 C 0.25348 0.95363 0.77207 0.0
C1890 C 0.24647 0.9457 0.77712 0.0
C1891 C 0.24789 0.94286 0.78842 0.0
C1892 C 0.25614 0.94851 0.79466 0.0
C1893 C 0.26311 0.95648 0.78961 0.0
C1894 C 0.2681 0.97731 0.77082 0.0
C1895 C 0.27571 0.98544 0.77458 0.0
C1896 C 0.2736 0.99675 0.77303 0.0
C1897 C 0.26375 1.00024 0.76772 0.0
C1898 C 0.25618 0.99203 0.76382 0.0
C1899 C 0.25836 0.9807 0.76529 0.0
H1900 H 0.95915 0.23182 0.75484 0.0
N1901 N 0.9704 0.25056 0.75865 0.0
H1902 H 0.94621 0.22207 0.76732 0.0
H1903 H 0.96704 0.25545 0.78055 0.0
H1904 H 0.95406 0.24575 0.79317 0.0
H1905 H 0.96162 0.26952 0.76721 0.0
H1906 H 0.94887 0.28204 0.75765 0.0
H1907 H 0.96509 0.25068 0.73716 0.0
H1908 H 0.95211 0.26301 0.72755 0.0
H1909 H 0.98618 0.23651 0.75323 0.0
H1910 H 0.98116 0.26794 0.76912 0.0
H1911 H 0.00623 0.23824 0.75669 0.0
H1912 H 1.00122 0.27006 0.77215 0.0
H1913 H 0.05454 0.23758 0.76727 0.0
H1914 H 0.06712 0.22447 0.77642 0.0
H1915 H 0.07731 0.24996 0.79965 0.0
H1916 H 0.06473 0.26298 0.79043 0.0
H1917 H 0.05938 0.28098 0.7714 0.0
H1918 H 0.07269 0.28986 0.75855 0.0
H1919 H 0.07493 0.25907 0.74057 0.0
H1920 H 0.06174 0.25033 0.75335 0.0
H1921 H 0.04247 0.24951 0.75423 0.0
H1922 H 0.02248 0.24767 0.75108 0.0
H1923 H 0.01654 0.26364 0.78253 0.0
N1924 N 0.05292 0.25974 0.77198 0.0
H1925 H 0.03667 0.26593 0.78531 0.0
C1926 C 0.96401 0.24433 0.76675 0.0
C1927 C 0.95822 0.23476 0.76327 0.0
C1928 C 0.95086 0.2292 0.77043 0.0
C1929 C 0.94908 0.23314 0.78125 0.0
C1930 C 0.95517 0.24257 0.78485 0.0
C1931 C 0.96261 0.2481 0.77768 0.0
C1932 C 0.96439 0.25916 0.75285 0.0
C1933 C 0.95984 0.2682 0.75849 0.0
C1934 C 0.95243 0.2753 0.75303 0.0
C1935 C 0.94937 0.2735 0.74184 0.0
C1936 C 0.95435 0.26475 0.73612 0.0
C1937 C 0.96177 0.25768 0.74158 0.0
C1938 C 0.98217 0.25211 0.76078 0.0
C1939 C 0.98945 0.24385 0.75737 0.0
C1940 C 1.00093 0.24491 0.7593 0.0
C1941 C 0.00546 0.25435 0.76464 0.0
C1942 C 0.99809 0.26261 0.76813 0.0
C1943 C 0.98656 0.26147 0.7663 0.0
C1944 C 0.05873 0.25129 0.77819 0.0
C1945 C 0.05934 0.24029 0.77443 0.0
C1946 C 0.06659 0.23282 0.77964 0.0
C1947 C 0.07328 0.23618 0.78873 0.0
C1948 C 0.07221 0.24704 0.79276 0.0
C1949 C 0.06504 0.2545 0.78751 0.0
C1950 C 0.05944 0.26505 0.76332 0.0
C1951 C 0.06258 0.27624 0.76453 0.0
C1952 C 0.07025 0.28126 0.75725 0.0
C1953 C 0.0749 0.27515 0.74856 0.0
C1954 C 0.07141 0.26405 0.74709 0.0
C1955 C 0.06381 0.25902 0.75442 0.0
C1956 C 0.04113 0.258 0.76999 0.0
C1957 C 0.03693 0.25268 0.76043 0.0
C1958 C 0.0254 0.25154 0.75869 0.0
C1959 C 0.01778 0.25553 0.76652 0.0
C1960 C 0.02207 0.26066 0.77618 0.0
C1961 C 0.03358 0.26189 0.77785 0.0
H1962 H 0.79038 0.96064 0.75412 0.0
N1963 N 0.76889 0.9655 0.75477 0.0
H1964 H 0.80032 0.94741 0.76597 0.0
H1965 H 0.76085 0.95568 0.77387 0.0
H1966 H 0.77077 0.94279 0.78594 0.0
H1967 H 0.74706 0.9619 0.76054 0.0
H1968 H 0.73396 0.94885 0.75164 0.0
H1969 H 0.77176 0.95458 0.73596 0.0
H1970 H 0.75874 0.9415 0.727 0.0
H1971 H 0.77428 0.98242 0.74145 0.0
H1972 H 0.75846 0.97472 0.77271 0.0
H1973 H 0.77074 1.00217 0.74412 0.0
H1974 H 0.75525 0.99439 0.77568 0.0
H1975 H 0.77279 0.0577 0.76036 0.0
H1976 H 0.78427 0.07075 0.77101 0.0
H1977 H 0.76587 0.062 0.80071 0.0
H1978 H 0.75411 0.04925 0.78981 0.0
H1979 H 0.7355 0.05692 0.77128 0.0
H1980 H 0.72644 0.07022 0.75884 0.0
H1981 H 0.7509 0.06375 0.7336 0.0
H1982 H 0.75994 0.05047 0.74619 0.0
H1983 H 0.77257 0.03768 0.75768 0.0
H1984 H 0.77616 0.01801 0.75469 0.0
H1985 H 0.74433 0.00943 0.76938 0.0
N1986 N 0.75433 0.04633 0.76792 0.0
H1987 H 0.74107 0.02912 0.77269 0.0
C1988 C 0.77492 0.95925 0.76309 0.0
C1989 C 0.78615 0.95695 0.76121 0.0
C1990 C 0.79181 0.94939 0.76801 0.0
C1991 C 0.78633 0.94395 0.77689 0.0
C1992 C 0.7752 0.94668 0.77909 0.0
C1993 C 0.76954 0.95421 0.77224 0.0
C1994 C 0.76042 0.95919 0.74889 0.0
C1995 C 0.74961 0.95761 0.75314 0.0
C1996 C 0.74215 0.95009 0.74808 0.0
C1997 C 0.74532 0.94408 0.73864 0.0
C1998 C 0.75598 0.94607 0.73417 0.0
C1999 C 0.76343 0.95352 0.73927 0.0
C2000 C 0.76673 0.97706 0.75686 0.0
C2001 C 0.77012 0.98501 0.74894 0.0
C2002 C 0.76815 0.99632 0.75053 0.0
C2003 C 0.76273 0.99996 0.76015 0.0
C2004 C 0.75931 0.99193 0.7681 0.0
C2005 C 0.76124 0.98062 0.76646 0.0
C2006 C 0.7625 0.05253 0.7743 0.0
C2007 C 0.77132 0.05844 0.76919 0.0
C2008 C 0.77794 0.0659 0.77533 0.0
C2009 C 0.77593 0.06757 0.78672 0.0
C2010 C 0.76751 0.06113 0.79192 0.0
C2011 C 0.76086 0.05374 0.78575 0.0
C2012 C 0.74835 0.05271 0.75969 0.0
C2013 C 0.73874 0.05821 0.76297 0.0
C2014 C 0.73358 0.06579 0.75583 0.0
C2015 C 0.73796 0.06809 0.74522 0.0
C2016 C 0.74739 0.06226 0.74176 0.0
C2017 C 0.75252 0.05461 0.74892 0.0
C2018 C 0.75656 0.03486 0.76551 0.0
C2019 C 0.76639 0.03158 0.76027 0.0
C2020 C 0.76839 0.02028 0.7585 0.0
C2021 C 0.76057 0.01204 0.76185 0.0
C2022 C 0.75066 0.01545 0.76689 0.0
C2023 C 0.74872 0.02671 0.76871 0.0
H2024 H 0.26871 0.73665 0.45736 0.0
N2025 N 0.2656 0.75511 0.46874 0.0
H2026 H 0.25556 0.7273 0.44473 0.0
H2027 H 0.24351 0.76001 0.46611 0.0
H2028 H 0.23025 0.7507 0.45353 0.0
H2029 H 0.2568 0.77379 0.4591 0.0
H2030 H 0.26611 0.78626 0.44595 0.0
H2031 H 0.28703 0.75537 0.4633 0.0
H2032 H 0.29639 0.76765 0.44981 0.0
H2033 H 0.27091 0.74157 0.48541 0.0
H2034 H 0.25556 0.77298 0.47843 0.0
H2035 H 0.26765 0.74402 0.5053 0.0
H2036 H 0.25269 0.77576 0.49825 0.0
H2037 H 0.25725 0.74502 0.5535 0.0
H2038 H 0.24804 0.73222 0.56661 0.0
H2039 H 0.22415 0.75747 0.57418 0.0
H2040 H 0.23364 0.77028 0.56131 0.0
H2041 H 0.25245 0.7884 0.55548 0.0
H2042 H 0.2645 0.79794 0.56902 0.0
H2043 H 0.28329 0.76792 0.57357 0.0
H2044 H 0.27104 0.75842 0.56031 0.0
H2045 H 0.27023 0.75664 0.54094 0.0
H2046 H 0.27346 0.7541 0.52113 0.0
H2047 H 0.24206 0.76969 0.51363 0.0
N2048 N 0.25238 0.76697 0.55036 0.0
H2049 H 0.23918 0.77262 0.53351 0.0
C2050 C 0.25712 0.74899 0.46267 0.0
C2051 C 0.26025 0.7396 0.45672 0.0
C2052 C 0.25272 0.73428 0.44952 0.0
C2053 C 0.24186 0.73828 0.44808 0.0
C2054 C 0.23859 0.74749 0.45435 0.0
C2055 C 0.24615 0.75279 0.46161 0.0
C2056 C 0.27126 0.76365 0.46231 0.0
C2057 C 0.26551 0.77254 0.45739 0.0
C2058 C 0.27083 0.77961 0.44972 0.0
C2059 C 0.28198 0.77791 0.4467 0.0
C2060 C 0.28784 0.7693 0.452 0.0
C2061 C 0.28252 0.76226 0.45971 0.0
C2062 C 0.2636 0.75708 0.48039 0.0
C2063 C 0.26692 0.74905 0.48819 0.0
C2064 C 0.26512 0.75052 0.49958 0.0
C2065 C 0.25995 0.76013 0.50348 0.0
C2066 C 0.25657 0.76818 0.49561 0.0
C2067 C 0.25831 0.76665 0.4842 0.0
C2068 C 0.24612 0.75864 0.55647 0.0
C2069 C 0.24994 0.74773 0.55786 0.0
C2070 C 0.24463 0.74041 0.56534 0.0
C2071 C 0.23542 0.74386 0.57156 0.0
C2072 C 0.23134 0.7546 0.5697 0.0
C2073 C 0.23666 0.76189 0.56226 0.0
C2074 C 0.26083 0.77275 0.5568 0.0
C2075 C 0.25934 0.78398 0.55922 0.0
C2076 C 0.26624 0.78941 0.56696 0.0
C2077 C 0.27483 0.78368 0.57247 0.0
C2078 C 0.27666 0.77254 0.56962 0.0
C2079 C 0.26972 0.76712 0.5619 0.0
C2080 C 0.25448 0.76495 0.53874 0.0
C2081 C 0.26406 0.75957 0.53507 0.0
C2082 C 0.26585 0.75803 0.52367 0.0
C2083 C 0.25805 0.76172 0.51567 0.0
C2084 C 0.24838 0.76694 0.51945 0.0
C2085 C 0.24666 0.76854 0.53083 0.0
H2086 H 0.77459 0.78477 0.5621 0.0
N2087 N 0.77019 0.76615 0.55121 0.0
H2088 H 0.76242 0.79441 0.57493 0.0
H2089 H 0.74795 0.76165 0.55422 0.0
H2090 H 0.73564 0.77125 0.56705 0.0
H2091 H 0.76064 0.74774 0.56108 0.0
H2092 H 0.76957 0.73529 0.57437 0.0
H2093 H 0.79172 0.76562 0.55652 0.0
H2094 H 0.80081 0.75309 0.56985 0.0
H2095 H 0.77596 0.77943 0.53442 0.0
H2096 H 0.75922 0.7483 0.5417 0.0
H2097 H 0.77288 0.77652 0.51451 0.0
H2098 H 0.75659 0.74499 0.52188 0.0
H2099 H 0.76239 0.77434 0.46682 0.0
H2100 H 0.75297 0.78656 0.4535 0.0
H2101 H 0.73052 0.75955 0.44459 0.0
H2102 H 0.74024 0.74734 0.45767 0.0
H2103 H 0.75974 0.73064 0.46433 0.0
H2104 H 0.77255 0.72223 0.45118 0.0
H2105 H 0.78982 0.75384 0.44745 0.0
H2106 H 0.7768 0.76219 0.46022 0.0
H2107 H 0.7762 0.7629 0.47952 0.0
H2108 H 0.77879 0.76611 0.49933 0.0
H2109 H 0.74682 0.75027 0.50577 0.0
N2110 N 0.75843 0.752 0.46952 0.0
H2111 H 0.7446 0.74661 0.48589 0.0
C2112 C 0.76221 0.77253 0.55723 0.0
C2113 C 0.76601 0.78195 0.56297 0.0
C2114 C 0.75903 0.78744 0.57028 0.0
C2115 C 0.74805 0.78358 0.57206 0.0
C2116 C 0.74409 0.77436 0.56596 0.0
C2117 C 0.75109 0.7689 0.55858 0.0
C2118 C 0.77556 0.75761 0.5577 0.0
C2119 C 0.76946 0.74882 0.56269 0.0
C2120 C 0.7746 0.74169 0.57033 0.0
C2121 C 0.7859 0.74323 0.57322 0.0
C2122 C 0.79206 0.75176 0.5679 0.0
C2123 C 0.78693 0.75885 0.56021 0.0
C2124 C 0.76795 0.76409 0.53957 0.0
C2125 C 0.77168 0.77193 0.5317 0.0
C2126 C 0.76999 0.77018 0.5203 0.0
C2127 C 0.76457 0.76045 0.51648 0.0
C2128 C 0.76069 0.75265 0.52444 0.0
C2129 C 0.76229 0.75448 0.53586 0.0
C2130 C 0.75202 0.75989 0.46318 0.0
C2131 C 0.75536 0.7711 0.4621 0.0
C2132 C 0.74992 0.7781 0.4545 0.0
C2133 C 0.74106 0.77401 0.44786 0.0
C2134 C 0.73744 0.76292 0.44939 0.0
C2135 C 0.74289 0.75596 0.45694 0.0
C2136 C 0.76731 0.74699 0.46336 0.0
C2137 C 0.76645 0.73566 0.46085 0.0
C2138 C 0.77379 0.73088 0.45333 0.0
C2139 C 0.78217 0.73738 0.44815 0.0
C2140 C 0.78335 0.74863 0.45111 0.0
C2141 C 0.77597 0.7534 0.45858 0.0
C2142 C 0.76023 0.75434 0.48118 0.0
C2143 C 0.76977 0.76003 0.48514 0.0
C2144 C 0.77119 0.76197 0.49656 0.0
C2145 C 0.76303 0.75844 0.50427 0.0
C2146 C 0.75341 0.75293 0.50019 0.0
C2147 C 0.75207 0.75089 0.48881 0.0
H2148 H 0.77879 0.25651 0.56113 0.0
N2149 N 0.7601 0.26469 0.55095 0.0
H2150 H 0.7908 0.26634 0.57438 0.0
H2151 H 0.76005 0.28626 0.55551 0.0
H2152 H 0.7719 0.29616 0.56898 0.0
H2153 H 0.74154 0.26815 0.56213 0.0
H2154 H 0.73234 0.25559 0.57543 0.0
H2155 H 0.76511 0.24285 0.55441 0.0
H2156 H 0.7562 0.23027 0.56798 0.0
H2157 H 0.77952 0.2578 0.54118 0.0
H2158 H 0.74528 0.26596 0.5345 0.0
H2159 H 0.78256 0.25503 0.52142 0.0
H2160 H 0.748 0.26249 0.51474 0.0
H2161 H 0.7911 0.2462 0.4588 0.0
H2162 H 0.80181 0.25774 0.44566 0.0
H2163 H 0.78023 0.28526 0.45216 0.0
H2164 H 0.7698 0.27379 0.46539 0.0
H2165 H 0.75472 0.26154 0.45953 0.0
H2166 H 0.74162 0.25301 0.44642 0.0
H2167 H 0.75704 0.22123 0.45194 0.0
H2168 H 0.77044 0.23001 0.46474 0.0
H2169 H 0.78251 0.24125 0.48628 0.0
H2170 H 0.77947 0.2438 0.50617 0.0
H2171 H 0.75571 0.26944 0.49851 0.0
N2172 N 0.77261 0.25149 0.46936 0.0
H2173 H 0.75826 0.2662 0.47873 0.0
C2174 C 0.76851 0.27069 0.55725 0.0
C2175 C 0.77738 0.26523 0.56257 0.0
C2176 C 0.7842 0.27084 0.57025 0.0
C2177 C 0.78226 0.28202 0.57285 0.0
C2178 C 0.77372 0.28759 0.56711 0.0
C2179 C 0.76693 0.28197 0.55941 0.0
C2180 C 0.75399 0.25646 0.55733 0.0
C2181 C 0.74461 0.2598 0.56321 0.0
C2182 C 0.73946 0.25265 0.57089 0.0
C2183 C 0.74363 0.24197 0.57292 0.0
C2184 C 0.75274 0.23842 0.5666 0.0
C2185 C 0.75787 0.2456 0.55887 0.0
C2186 C 0.76215 0.26228 0.53937 0.0
C2187 C 0.7726 0.25892 0.5355 0.0
C2188 C 0.7743 0.25722 0.52411 0.0
C2189 C 0.76556 0.25859 0.51632 0.0
C2190 C 0.75505 0.26162 0.52033 0.0
C2191 C 0.75342 0.2635 0.53168 0.0
C2192 C 0.77968 0.25907 0.46313 0.0
C2193 C 0.78887 0.2548 0.45756 0.0
C2194 C 0.79489 0.26138 0.44997 0.0
C2195 C 0.79182 0.27241 0.44775 0.0
C2196 C 0.7829 0.27684 0.45372 0.0
C2197 C 0.77688 0.27025 0.46132 0.0
C2198 C 0.76363 0.2464 0.46308 0.0
C2199 C 0.7552 0.25272 0.45806 0.0
C2200 C 0.74765 0.24779 0.45056 0.0
C2201 C 0.74832 0.23643 0.44799 0.0
C2202 C 0.75641 0.23004 0.45351 0.0
C2203 C 0.76399 0.235 0.46093 0.0
C2204 C 0.77077 0.25361 0.481 0.0
C2205 C 0.77665 0.24742 0.48895 0.0
C2206 C 0.77495 0.24897 0.50034 0.0
C2207 C 0.76737 0.2569 0.5041 0.0
C2208 C 0.7615 0.26314 0.49605 0.0
C2209 C 0.76309 0.26143 0.48464 0.0
H2210 H 0.27222 0.25216 0.45997 0.0
N2211 N 0.25403 0.2421 0.46969 0.0
H2212 H 0.28517 0.24354 0.44732 0.0
H2213 H 0.25591 0.22048 0.46573 0.0
H2214 H 0.2692 0.21161 0.45338 0.0
H2215 H 0.23662 0.23764 0.45664 0.0
H2216 H 0.22758 0.25013 0.44332 0.0
H2217 H 0.2581 0.26446 0.46763 0.0
H2218 H 0.24935 0.277 0.4541 0.0
H2219 H 0.27345 0.24853 0.48062 0.0
H2220 H 0.23836 0.24182 0.48518 0.0
H2221 H 0.27568 0.25168 0.50042 0.0
H2222 H 0.24033 0.24578 0.50497 0.0
H2223 H 0.28295 0.25984 0.56308 0.0
H2224 H 0.29214 0.24744 0.57635 0.0
H2225 H 0.26849 0.22128 0.56792 0.0
H2226 H 0.25918 0.23384 0.55503 0.0
H2227 H 0.24495 0.24733 0.5604 0.0
H2228 H 0.23275 0.25659 0.57349 0.0
H2229 H 0.25299 0.28651 0.57057 0.0
H2230 H 0.26501 0.2772 0.55735 0.0
H2231 H 0.27546 0.26573 0.53524 0.0
H2232 H 0.27288 0.26323 0.51524 0.0
H2233 H 0.24655 0.23906 0.5218 0.0
N2234 N 0.26429 0.25596 0.55169 0.0
H2235 H 0.24866 0.24235 0.54165 0.0
C2236 C 0.263 0.23695 0.46377 0.0
C2237 C 0.27156 0.24329 0.4587 0.0
C2238 C 0.27904 0.23831 0.45149 0.0
C2239 C 0.2782 0.22687 0.44922 0.0
C2240 C 0.26998 0.22047 0.45476 0.0
C2241 C 0.26246 0.22548 0.46193 0.0
C2242 C 0.24801 0.2501 0.46308 0.0
C2243 C 0.23927 0.24628 0.45625 0.0
C2244 C 0.23421 0.25341 0.44858 0.0
C2245 C 0.23784 0.26454 0.44752 0.0
C2246 C 0.24631 0.2685 0.45473 0.0
C2247 C 0.25135 0.26134 0.46244 0.0
C2248 C 0.25569 0.24474 0.48133 0.0
C2249 C 0.26616 0.24782 0.48582 0.0
C2250 C 0.26741 0.24976 0.49725 0.0
C2251 C 0.25821 0.24895 0.50447 0.0
C2252 C 0.2477 0.24622 0.49984 0.0
C2253 C 0.24651 0.24406 0.48847 0.0
C2254 C 0.27044 0.24781 0.55798 0.0
C2255 C 0.27991 0.25135 0.56395 0.0
C2256 C 0.28515 0.24423 0.57152 0.0
C2257 C 0.28103 0.23334 0.57327 0.0
C2258 C 0.27179 0.22966 0.56693 0.0
C2259 C 0.26651 0.23683 0.55941 0.0
C2260 C 0.25589 0.26163 0.55785 0.0
C2261 C 0.24659 0.25596 0.56235 0.0
C2262 C 0.23968 0.26124 0.56994 0.0
C2263 C 0.24192 0.27228 0.57316 0.0
C2264 C 0.25092 0.27806 0.5682 0.0
C2265 C 0.25781 0.27277 0.56064 0.0
C2266 C 0.26241 0.25414 0.53997 0.0
C2267 C 0.26911 0.25994 0.53231 0.0
C2268 C 0.26767 0.25839 0.52085 0.0
C2269 C 0.25956 0.25083 0.51675 0.0
C2270 C 0.2528 0.24506 0.52452 0.0
C2271 C 0.25411 0.2468 0.53598 0.0
H2272 H 0.77268 0.45617 0.78626 0.0
N2273 N 0.77011 0.46812 0.7678 0.0
H2274 H 0.75923 0.44321 0.79476 0.0
H2275 H 0.74824 0.46535 0.76156 0.0
H2276 H 0.73467 0.45248 0.77004 0.0
H2277 H 0.76223 0.45755 0.74911 0.0
H2278 H 0.77242 0.44443 0.73789 0.0
H2279 H 0.79192 0.46463 0.76834 0.0
H2280 H 0.80237 0.4518 0.75685 0.0
H2281 H 0.7738 0.48462 0.78188 0.0
H2282 H 0.76118 0.47771 0.74897 0.0
H2283 H 0.76996 0.50434 0.77921 0.0
H2284 H 0.75772 0.49746 0.74599 0.0
H2285 H 0.75888 0.55196 0.77752 0.0
H2286 H 0.74921 0.56479 0.78966 0.0
H2287 H 0.72626 0.57237 0.76288 0.0
H2288 H 0.73624 0.5598 0.75072 0.0
H2289 H 0.75594 0.55502 0.73381 0.0
H2290 H 0.76846 0.56886 0.72523 0.0
H2291 H 0.78584 0.57267 0.75663 0.0
H2292 H 0.7731 0.55923 0.76517 0.0
H2293 H 0.77232 0.5402 0.76712 0.0
H2294 H 0.77603 0.52055 0.76974 0.0
H2295 H 0.74608 0.51222 0.75116 0.0
N2296 N 0.75495 0.54921 0.75518 0.0
H2297 H 0.74271 0.53202 0.74819 0.0
C2298 C 0.76149 0.46171 0.77332 0.0
C2299 C 0.76433 0.45553 0.78282 0.0
C2300 C 0.75662 0.44815 0.78766 0.0
C2301 C 0.74588 0.44678 0.78305 0.0
C2302 C 0.74292 0.45325 0.77371 0.0
C2303 C 0.75064 0.46067 0.7689 0.0
C2304 C 0.77632 0.46205 0.75966 0.0
C2305 C 0.77102 0.45651 0.75075 0.0
C2306 C 0.7769 0.449 0.74429 0.0
C2307 C 0.78821 0.44691 0.74654 0.0
C2308 C 0.79362 0.453 0.75502 0.0
C2309 C 0.78771 0.46045 0.76151 0.0
C2310 C 0.7679 0.47969 0.76564 0.0
C2311 C 0.7703 0.48741 0.77403 0.0
C2312 C 0.76816 0.4987 0.77244 0.0
C2313 C 0.76358 0.50259 0.76234 0.0
C2314 C 0.76113 0.4948 0.75392 0.0
C2315 C 0.76321 0.48347 0.75557 0.0
C2316 C 0.74829 0.55497 0.76316 0.0
C2317 C 0.75167 0.55625 0.77431 0.0
C2318 C 0.7461 0.56357 0.78127 0.0
C2319 C 0.73704 0.56974 0.77721 0.0
C2320 C 0.73333 0.56794 0.76623 0.0
C2321 C 0.73893 0.56067 0.75929 0.0
C2322 C 0.76358 0.55598 0.75008 0.0
C2323 C 0.7626 0.55869 0.73876 0.0
C2324 C 0.76977 0.5666 0.73388 0.0
C2325 C 0.77812 0.57196 0.74026 0.0
C2326 C 0.7794 0.56885 0.75151 0.0
C2327 C 0.77218 0.561 0.75638 0.0
C2328 C 0.75724 0.53764 0.75735 0.0
C2329 C 0.76656 0.53421 0.76356 0.0
C2330 C 0.76863 0.52288 0.76514 0.0
C2331 C 0.76138 0.5147 0.76065 0.0
C2332 C 0.75198 0.51821 0.75458 0.0
C2333 C 0.74997 0.52953 0.75295 0.0
H2334 H 0.25699 0.55213 0.76954 0.0
N2335 N 0.26453 0.54662 0.74906 0.0
H2336 H 0.26623 0.56483 0.78262 0.0
H2337 H 0.28533 0.55445 0.74786 0.0
H2338 H 0.29494 0.56671 0.76109 0.0
H2339 H 0.26742 0.55726 0.72979 0.0
H2340 H 0.25463 0.57021 0.72074 0.0
H2341 H 0.243 0.55008 0.75504 0.0
H2342 H 0.23005 0.56283 0.74598 0.0
H2343 H 0.25045 0.5328 0.76066 0.0
H2344 H 0.27819 0.53359 0.73817 0.0
H2345 H 0.25022 0.51242 0.76039 0.0
H2346 H 0.27853 0.51333 0.73828 0.0
H2347 H 0.26043 0.45592 0.76845 0.0
H2348 H 0.27078 0.44367 0.78098 0.0
H2349 H 0.29884 0.44524 0.75865 0.0
H2350 H 0.28846 0.45767 0.7463 0.0
H2351 H 0.26938 0.45151 0.72966 0.0
H2352 H 0.25604 0.43802 0.72187 0.0
H2353 H 0.23233 0.44648 0.74721 0.0
H2354 H 0.24584 0.46 0.75492 0.0
H2355 H 0.26039 0.47582 0.76563 0.0
H2356 H 0.25941 0.49609 0.76615 0.0
H2357 H 0.26914 0.49772 0.73157 0.0
N2358 N 0.26725 0.46332 0.74801 0.0
H2359 H 0.2707 0.47756 0.73141 0.0
C2360 C 0.27047 0.55247 0.7577 0.0
C2361 C 0.26531 0.55521 0.76772 0.0
C2362 C 0.27065 0.56243 0.77522 0.0
C2363 C 0.2813 0.56695 0.77286 0.0
C2364 C 0.28666 0.56363 0.76308 0.0
C2365 C 0.28126 0.55652 0.75556 0.0
C2366 C 0.25616 0.55268 0.74303 0.0
C2367 C 0.25917 0.55828 0.7332 0.0
C2368 C 0.25184 0.56566 0.72805 0.0
C2369 C 0.24132 0.56762 0.73267 0.0
C2370 C 0.23815 0.56163 0.74229 0.0
C2371 C 0.2455 0.55424 0.74743 0.0
C2372 C 0.26423 0.53467 0.74925 0.0
C2373 C 0.25648 0.52857 0.75565 0.0
C2374 C 0.25646 0.51689 0.75558 0.0
C2375 C 0.26429 0.51112 0.74922 0.0
C2376 C 0.27216 0.51737 0.74304 0.0
C2377 C 0.27207 0.52898 0.74302 0.0
C2378 C 0.27373 0.45776 0.75645 0.0
C2379 C 0.26891 0.45386 0.7664 0.0
C2380 C 0.2748 0.44675 0.77351 0.0
C2381 C 0.28562 0.44338 0.77079 0.0
C2382 C 0.29059 0.44775 0.76109 0.0
C2383 C 0.28469 0.45485 0.75401 0.0
C2384 C 0.2586 0.45669 0.74283 0.0
C2385 C 0.26122 0.45059 0.73337 0.0
C2386 C 0.25357 0.44291 0.72894 0.0
C2387 C 0.24313 0.44114 0.73395 0.0
C2388 C 0.24036 0.44757 0.74324 0.0
C2389 C 0.24803 0.45532 0.74763 0.0
C2390 C 0.26584 0.47518 0.74851 0.0
C2391 C 0.26237 0.48055 0.7582 0.0
C2392 C 0.26171 0.49219 0.75844 0.0
C2393 C 0.26435 0.49867 0.74895 0.0
C2394 C 0.26737 0.49314 0.73916 0.0
C2395 C 0.26817 0.48157 0.739 0.0
H2396 H 0.2663 0.55722 0.27057 0.0
N2397 N 0.24783 0.54749 0.2609 0.0
H2398 H 0.27957 0.56985 0.2616 0.0
H2399 H 0.24896 0.55264 0.23936 0.0
H2400 H 0.26205 0.56564 0.23032 0.0
H2401 H 0.22981 0.55932 0.25679 0.0
H2402 H 0.22076 0.5723 0.26923 0.0
H2403 H 0.2522 0.54975 0.28321 0.0
H2404 H 0.24318 0.56269 0.29579 0.0
H2405 H 0.2656 0.53789 0.27172 0.0
H2406 H 0.23432 0.53074 0.25523 0.0
H2407 H 0.26873 0.51812 0.27419 0.0
H2408 H 0.23708 0.51084 0.25815 0.0
H2409 H 0.28323 0.46114 0.27354 0.0
H2410 H 0.29367 0.44863 0.26173 0.0
H2411 H 0.26498 0.44521 0.23998 0.0
H2412 H 0.25455 0.45736 0.25204 0.0
H2413 H 0.24043 0.46069 0.26551 0.0
H2414 H 0.22843 0.4463 0.27391 0.0
H2415 H 0.25298 0.44144 0.29993 0.0
H2416 H 0.26506 0.45551 0.29118 0.0
H2417 H 0.26703 0.48219 0.28591 0.0
H2418 H 0.26329 0.502 0.28391 0.0
H2419 H 0.24747 0.4957 0.25207 0.0
N2420 N 0.26177 0.46595 0.27196 0.0
H2421 H 0.25077 0.4759 0.25447 0.0
C2422 C 0.25664 0.55386 0.2556 0.0
C2423 C 0.26544 0.55876 0.26174 0.0
C2424 C 0.27296 0.56613 0.25661 0.0
C2425 C 0.27183 0.56887 0.24525 0.0
C2426 C 0.26326 0.56365 0.23905 0.0
C2427 C 0.25576 0.55623 0.24419 0.0
C2428 C 0.24165 0.55357 0.26903 0.0
C2429 C 0.23258 0.55984 0.26537 0.0
C2430 C 0.22743 0.56725 0.2725 0.0
C2431 C 0.23128 0.56859 0.2835 0.0
C2432 C 0.2401 0.56196 0.28732 0.0
C2433 C 0.24523 0.55449 0.28017 0.0
C2434 C 0.24974 0.53585 0.26313 0.0
C2435 C 0.25934 0.5321 0.26868 0.0
C2436 C 0.26108 0.5207 0.27019 0.0
C2437 C 0.25319 0.51276 0.26633 0.0
C2438 C 0.24347 0.51661 0.26103 0.0
C2439 C 0.24181 0.528 0.25943 0.0
C2440 C 0.26817 0.46031 0.26368 0.0
C2441 C 0.27931 0.45789 0.26607 0.0
C2442 C 0.28526 0.45073 0.25929 0.0
C2443 C 0.28015 0.44582 0.24991 0.0
C2444 C 0.26913 0.4487 0.24722 0.0
C2445 C 0.26318 0.45581 0.25405 0.0
C2446 C 0.25369 0.45908 0.2777 0.0
C2447 C 0.24315 0.45661 0.27308 0.0
C2448 C 0.23627 0.44841 0.27794 0.0
C2449 C 0.2398 0.44257 0.28752 0.0
C2450 C 0.25009 0.44556 0.29243 0.0
C2451 C 0.25696 0.45369 0.28753 0.0
C2452 C 0.25932 0.47755 0.27033 0.0
C2453 C 0.26273 0.48512 0.27852 0.0
C2454 C 0.26065 0.49647 0.2773 0.0
C2455 C 0.25515 0.50057 0.26777 0.0
C2456 C 0.25162 0.4929 0.25959 0.0
C2457 C 0.25361 0.48151 0.26089 0.0
H2458 H 0.78258 0.45793 0.25965 0.0
N2459 N 0.76455 0.46652 0.27019 0.0
H2460 H 0.79592 0.44498 0.26767 0.0
H2461 H 0.76676 0.46086 0.29152 0.0
H2462 H 0.7799 0.44766 0.29961 0.0
H2463 H 0.74715 0.45379 0.27559 0.0
H2464 H 0.73686 0.44076 0.2637 0.0
H2465 H 0.76708 0.46444 0.2477 0.0
H2466 H 0.7567 0.45152 0.23559 0.0
H2467 H 0.78367 0.47795 0.26362 0.0
H2468 H 0.74881 0.48173 0.27088 0.0
H2469 H 0.78564 0.49785 0.26064 0.0
H2470 H 0.75051 0.50162 0.26716 0.0
H2471 H 0.79102 0.56156 0.25219 0.0
H2472 H 0.80038 0.57511 0.26426 0.0
H2473 H 0.77934 0.5645 0.29153 0.0
H2474 H 0.76984 0.5513 0.27933 0.0
H2475 H 0.75438 0.55656 0.2667 0.0
H2476 H 0.74094 0.56919 0.25836 0.0
H2477 H 0.75885 0.5683 0.22731 0.0
H2478 H 0.77209 0.55539 0.2357 0.0
H2479 H 0.78429 0.53306 0.24678 0.0
H2480 H 0.78217 0.51296 0.24923 0.0
H2481 H 0.75701 0.51827 0.27415 0.0
N2482 N 0.77328 0.54898 0.25686 0.0
H2483 H 0.75866 0.53819 0.271 0.0
C2484 C 0.77369 0.46044 0.27504 0.0
C2485 C 0.7821 0.45595 0.26844 0.0
C2486 C 0.78966 0.44843 0.27302 0.0
C2487 C 0.78893 0.44516 0.28427 0.0
C2488 C 0.78081 0.45006 0.29095 0.0
C2489 C 0.77328 0.45761 0.28636 0.0
C2490 C 0.75781 0.46007 0.26254 0.0
C2491 C 0.74912 0.45346 0.26682 0.0
C2492 C 0.74324 0.44604 0.25999 0.0
C2493 C 0.74594 0.44507 0.24866 0.0
C2494 C 0.75449 0.45196 0.24429 0.0
C2495 C 0.76038 0.45941 0.25117 0.0
C2496 C 0.76605 0.47824 0.26763 0.0
C2497 C 0.77637 0.48299 0.26447 0.0
C2498 C 0.77748 0.49448 0.26265 0.0
C2499 C 0.76826 0.50151 0.2637 0.0
C2500 C 0.7579 0.49664 0.26653 0.0
C2501 C 0.75686 0.4852 0.26855 0.0
C2502 C 0.77978 0.55534 0.2648 0.0
C2503 C 0.78862 0.56201 0.26085 0.0
C2504 C 0.79396 0.56975 0.26778 0.0
C2505 C 0.79058 0.57098 0.27888 0.0
C2506 C 0.78205 0.56392 0.28298 0.0
C2507 C 0.77666 0.55623 0.27601 0.0
C2508 C 0.76422 0.55494 0.25177 0.0
C2509 C 0.75525 0.55881 0.25802 0.0
C2510 C 0.74764 0.56618 0.25326 0.0
C2511 C 0.74886 0.56987 0.24218 0.0
C2512 C 0.75756 0.56557 0.23582 0.0
C2513 C 0.76515 0.55819 0.24059 0.0
C2514 C 0.77178 0.53719 0.25877 0.0
C2515 C 0.77831 0.52984 0.25275 0.0
C2516 C 0.77713 0.51833 0.25425 0.0
C2517 C 0.76945 0.51384 0.26196 0.0
C2518 C 0.7629 0.52129 0.268 0.0
C2519 C 0.76396 0.5328 0.26634 0.0
H2520 H 0.563 0.28278 0.74749 0.0
N2521 N 0.55421 0.2624 0.74983 0.0
H2522 H 0.57559 0.29243 0.7605 0.0
H2523 H 0.55933 0.25561 0.77077 0.0
H2524 H 0.57166 0.26525 0.78398 0.0
H2525 H 0.5608 0.24175 0.7557 0.0
H2526 H 0.57441 0.23057 0.74585 0.0
H2527 H 0.56189 0.26619 0.72938 0.0
H2528 H 0.57511 0.25491 0.71918 0.0
H2529 H 0.54098 0.27219 0.73497 0.0
H2530 H 0.54053 0.25177 0.76453 0.0
H2531 H 0.52064 0.27255 0.73486 0.0
H2532 H 0.52015 0.25257 0.76497 0.0
H2533 H 0.45856 0.28392 0.74567 0.0
H2534 H 0.4462 0.29253 0.75907 0.0
H2535 H 0.45696 0.2692 0.78432 0.0
H2536 H 0.46932 0.26064 0.77076 0.0
H2537 H 0.46271 0.24651 0.75778 0.0
H2538 H 0.44985 0.23329 0.74891 0.0
H2539 H 0.45125 0.2527 0.71851 0.0
H2540 H 0.46428 0.26578 0.72745 0.0
H2541 H 0.48556 0.28156 0.74325 0.0
H2542 H 0.50584 0.28054 0.744 0.0
H2543 H 0.50305 0.24694 0.75687 0.0
N2544 N 0.4707 0.26594 0.74865 0.0
H2545 H 0.48276 0.24836 0.75669 0.0
C2546 C 0.56021 0.26856 0.75821 0.0
C2547 C 0.56472 0.27905 0.75554 0.0
C2548 C 0.57189 0.28453 0.763 0.0
C2549 C 0.5747 0.27959 0.77327 0.0
C2550 C 0.5698 0.26923 0.77608 0.0
C2551 C 0.56265 0.26375 0.76859 0.0
C2552 C 0.56041 0.25479 0.74325 0.0
C2553 C 0.56377 0.24454 0.74765 0.0
C2554 C 0.57153 0.23816 0.74198 0.0
C2555 C 0.57601 0.2419 0.73177 0.0
C2556 C 0.57206 0.25188 0.72712 0.0
C2557 C 0.56439 0.25827 0.73285 0.0
C2558 C 0.54223 0.26204 0.74978 0.0
C2559 C 0.53644 0.26782 0.74147 0.0
C2560 C 0.5248 0.26811 0.74153 0.0
C2561 C 0.51864 0.26274 0.75002 0.0
C2562 C 0.52452 0.25675 0.75825 0.0
C2563 C 0.5362 0.25635 0.75808 0.0
C2564 C 0.46481 0.27167 0.75721 0.0
C2565 C 0.45839 0.28083 0.75417 0.0
C2566 C 0.45136 0.28573 0.76184 0.0
C2567 C 0.45055 0.28153 0.77277 0.0
C2568 C 0.4573 0.27255 0.77593 0.0
C2569 C 0.46441 0.26769 0.76823 0.0
C2570 C 0.46448 0.25714 0.74323 0.0
C2571 C 0.46045 0.2478 0.74915 0.0
C2572 C 0.453 0.24029 0.74409 0.0
C2573 C 0.44944 0.24197 0.73302 0.0
C2574 C 0.4539 0.25107 0.727 0.0
C2575 C 0.46133 0.25857 0.73207 0.0
C2576 C 0.48263 0.26504 0.74975 0.0
C2577 C 0.48936 0.27402 0.74631 0.0
C2578 C 0.50097 0.27335 0.74663 0.0
C2579 C 0.5062 0.26357 0.7503 0.0
C2580 C 0.4994 0.25464 0.75404 0.0
C2581 C 0.48773 0.25539 0.75386 0.0
H2582 H 0.45832 0.74464 0.75353 0.0
N2583 N 0.46963 0.76218 0.76303 0.0
H2584 H 0.44556 0.73178 0.76289 0.0
H2585 H 0.46654 0.76 0.78487 0.0
H2586 H 0.45407 0.74679 0.79447 0.0
H2587 H 0.45767 0.77992 0.76741 0.0
H2588 H 0.44456 0.78938 0.75502 0.0
H2589 H 0.46693 0.75836 0.74073 0.0
H2590 H 0.45385 0.76781 0.7282 0.0
H2591 H 0.47897 0.74309 0.75503 0.0
H2592 H 0.48639 0.77677 0.76486 0.0
H2593 H 0.49868 0.73993 0.75214 0.0
H2594 H 0.50612 0.77398 0.76122 0.0
H2595 H 0.55951 0.72884 0.7462 0.0
H2596 H 0.57251 0.71852 0.75797 0.0
H2597 H 0.56936 0.7432 0.78362 0.0
H2598 H 0.55674 0.7536 0.77165 0.0
H2599 H 0.56016 0.76803 0.75791 0.0
H2600 H 0.57393 0.77982 0.74835 0.0
H2601 H 0.57058 0.75929 0.71914 0.0
H2602 H 0.55706 0.74737 0.72894 0.0
H2603 H 0.534 0.73959 0.73901 0.0
H2604 H 0.51415 0.74308 0.74126 0.0
H2605 H 0.5221 0.76588 0.76793 0.0
N2606 N 0.55103 0.74863 0.75008 0.0
H2607 H 0.54185 0.76293 0.76497 0.0
C2608 C 0.46335 0.75338 0.76852 0.0
C2609 C 0.45755 0.74512 0.76247 0.0
C2610 C 0.45028 0.73769 0.76788 0.0
C2611 C 0.44868 0.73827 0.77946 0.0
C2612 C 0.45491 0.74621 0.78553 0.0
C2613 C 0.46213 0.7537 0.78009 0.0
C2614 C 0.46326 0.76848 0.75502 0.0
C2615 C 0.45703 0.77741 0.75879 0.0
C2616 C 0.44956 0.7828 0.75169 0.0
C2617 C 0.44811 0.77933 0.74062 0.0
C2618 C 0.45467 0.7706 0.73671 0.0
C2619 C 0.46221 0.76524 0.74384 0.0
C2620 C 0.48116 0.76017 0.76038 0.0
C2621 C 0.4848 0.74987 0.75648 0.0
C2622 C 0.49617 0.7481 0.7547 0.0
C2623 C 0.50416 0.75666 0.75651 0.0
C2624 C 0.50037 0.76706 0.76001 0.0
C2625 C 0.48904 0.76874 0.76199 0.0
C2626 C 0.55705 0.74193 0.75802 0.0
C2627 C 0.56146 0.73187 0.75447 0.0
C2628 C 0.56888 0.72598 0.76123 0.0
C2629 C 0.57206 0.73004 0.77176 0.0
C2630 C 0.56724 0.73991 0.7755 0.0
C2631 C 0.55987 0.74582 0.76869 0.0
C2632 C 0.55762 0.75679 0.74411 0.0
C2633 C 0.56225 0.76618 0.7494 0.0
C2634 C 0.57012 0.77294 0.7439 0.0
C2635 C 0.57349 0.77042 0.73301 0.0
C2636 C 0.56836 0.76134 0.72758 0.0
C2637 C 0.56054 0.7546 0.7331 0.0
C2638 C 0.53942 0.75082 0.75191 0.0
C2639 C 0.5314 0.74535 0.74532 0.0
C2640 C 0.52003 0.7473 0.74671 0.0
C2641 C 0.51636 0.75472 0.75486 0.0
C2642 C 0.52449 0.76023 0.76146 0.0
C2643 C 0.53588 0.7584 0.75991 0.0
H2644 H 0.55948 0.77813 0.25653 0.0
N2645 N 0.55347 0.75678 0.25662 0.0
H2646 H 0.57247 0.78752 0.26931 0.0
H2647 H 0.56206 0.748 0.27593 0.0
H2648 H 0.57461 0.75736 0.28893 0.0
H2649 H 0.55895 0.73524 0.26132 0.0
H2650 H 0.57275 0.72437 0.25145 0.0
H2651 H 0.56254 0.7616 0.2371 0.0
H2652 H 0.57594 0.75063 0.22685 0.0
H2653 H 0.53671 0.76444 0.24443 0.0
H2654 H 0.54385 0.74344 0.27269 0.0
H2655 H 0.51673 0.76114 0.24707 0.0
H2656 H 0.524 0.74059 0.27584 0.0
H2657 H 0.46139 0.76219 0.2614 0.0
H2658 H 0.44867 0.77428 0.27105 0.0
H2659 H 0.45568 0.75704 0.30196 0.0
H2660 H 0.46812 0.74465 0.29206 0.0
H2661 H 0.45895 0.72595 0.27377 0.0
H2662 H 0.44571 0.71718 0.26083 0.0
H2663 H 0.45615 0.74026 0.23504 0.0
H2664 H 0.46932 0.74902 0.24812 0.0
H2665 H 0.48177 0.76268 0.26153 0.0
H2666 H 0.50165 0.76552 0.2583 0.0
H2667 H 0.50766 0.7319 0.26952 0.0
N2668 N 0.47163 0.74389 0.27025 0.0
H2669 H 0.48779 0.72941 0.2733 0.0
C2670 C 0.55968 0.76242 0.26528 0.0
C2671 C 0.5626 0.77364 0.26372 0.0
C2672 C 0.57001 0.77899 0.27105 0.0
C2673 C 0.57466 0.77318 0.28014 0.0
C2674 C 0.57134 0.76204 0.28193 0.0
C2675 C 0.56399 0.7567 0.27456 0.0
C2676 C 0.55982 0.7493 0.24998 0.0
C2677 C 0.56254 0.7386 0.25375 0.0
C2678 C 0.57041 0.73236 0.24805 0.0
C2679 C 0.57564 0.73669 0.23844 0.0
C2680 C 0.57232 0.74713 0.23436 0.0
C2681 C 0.56456 0.75337 0.24011 0.0
C2682 C 0.5418 0.75431 0.25838 0.0
C2683 C 0.53394 0.75916 0.25125 0.0
C2684 C 0.52251 0.75734 0.25286 0.0
C2685 C 0.51863 0.75066 0.26175 0.0
C2686 C 0.52658 0.74568 0.26882 0.0
C2687 C 0.53803 0.7474 0.2671 0.0
C2688 C 0.46569 0.75242 0.27602 0.0
C2689 C 0.46035 0.7611 0.27028 0.0
C2690 C 0.45308 0.76807 0.27584 0.0
C2691 C 0.45102 0.76658 0.28729 0.0
C2692 C 0.45687 0.7583 0.29311 0.0
C2693 C 0.46409 0.75129 0.28751 0.0
C2694 C 0.4651 0.73809 0.26193 0.0
C2695 C 0.45851 0.72896 0.26526 0.0
C2696 C 0.45097 0.72396 0.25785 0.0
C2697 C 0.44984 0.72805 0.2469 0.0
C2698 C 0.45673 0.737 0.24345 0.0
C2699 C 0.46432 0.74197 0.25089 0.0
C2700 C 0.48328 0.74585 0.26785 0.0
C2701 C 0.48735 0.75595 0.26338 0.0
C2702 C 0.49878 0.75752 0.26142 0.0
C2703 C 0.50639 0.74897 0.26369 0.0
C2704 C 0.50218 0.73879 0.2679 0.0
C2705 C 0.4908 0.7373 0.26999 0.0
H2706 H 0.56158 0.27181 0.29345 0.0
N2707 N 0.5538 0.27095 0.2727 0.0
H2708 H 0.57412 0.25865 0.3026 0.0
H2709 H 0.55926 0.25056 0.26485 0.0
H2710 H 0.57185 0.23743 0.27382 0.0
H2711 H 0.55686 0.26511 0.2511 0.0
H2712 H 0.57055 0.27346 0.23832 0.0
H2713 H 0.56535 0.28969 0.27568 0.0
H2714 H 0.57873 0.2984 0.26289 0.0
H2715 H 0.54035 0.28628 0.28036 0.0
H2716 H 0.54027 0.25527 0.26279 0.0
H2717 H 0.52002 0.28646 0.27957 0.0
H2718 H 0.51985 0.255 0.26244 0.0
H2719 H 0.45773 0.27362 0.29026 0.0
H2720 H 0.44555 0.25953 0.29888 0.0
H2721 H 0.45676 0.23537 0.27523 0.0
H2722 H 0.46891 0.24961 0.26665 0.0
H2723 H 0.4634 0.2628 0.25227 0.0
H2724 H 0.45051 0.27121 0.23897 0.0
H2725 H 0.44941 0.30059 0.25932 0.0
H2726 H 0.46256 0.29217 0.27244 0.0
H2727 H 0.48424 0.27842 0.2878 0.0
H2728 H 0.50454 0.27781 0.28771 0.0
H2729 H 0.50333 0.26294 0.25507 0.0
N2730 N 0.47008 0.27155 0.27222 0.0
H2731 H 0.48294 0.2631 0.25556 0.0
C2732 C 0.55942 0.26215 0.27854 0.0
C2733 C 0.56358 0.26417 0.28927 0.0
C2734 C 0.57082 0.25671 0.29442 0.0
C2735 C 0.57407 0.24704 0.2889 0.0
C2736 C 0.56944 0.24474 0.27835 0.0
C2737 C 0.56221 0.25225 0.2732 0.0
C2738 C 0.56019 0.27677 0.26435 0.0
C2739 C 0.56151 0.27245 0.25364 0.0
C2740 C 0.56931 0.27727 0.24634 0.0
C2741 C 0.57587 0.28652 0.24963 0.0
C2742 C 0.57401 0.29115 0.26016 0.0
C2743 C 0.56629 0.28629 0.26743 0.0
C2744 C 0.54181 0.27073 0.2718 0.0
C2745 C 0.53589 0.27946 0.2764 0.0
C2746 C 0.52425 0.27947 0.27602 0.0
C2747 C 0.51818 0.27064 0.27111 0.0
C2748 C 0.52418 0.26197 0.26625 0.0
C2749 C 0.53589 0.26205 0.26653 0.0
C2750 C 0.46417 0.26267 0.27786 0.0
C2751 C 0.45768 0.26523 0.28709 0.0
C2752 C 0.45076 0.25716 0.292 0.0
C2753 C 0.45015 0.24632 0.28772 0.0
C2754 C 0.45695 0.24367 0.27864 0.0
C2755 C 0.46393 0.25177 0.27376 0.0
C2756 C 0.46402 0.27692 0.26333 0.0
C2757 C 0.46063 0.27116 0.25373 0.0
C2758 C 0.45313 0.27594 0.24618 0.0
C2759 C 0.44881 0.28655 0.24811 0.0
C2760 C 0.45263 0.29247 0.25748 0.0
C2761 C 0.46014 0.28768 0.265 0.0
C2762 C 0.48206 0.27097 0.27167 0.0
C2763 C 0.48838 0.27502 0.28064 0.0
C2764 C 0.50001 0.27474 0.28051 0.0
C2765 C 0.50569 0.27049 0.27129 0.0
C2766 C 0.4993 0.26623 0.26234 0.0
C2767 C 0.4876 0.26641 0.26255 0.0
C2768 C 0.21145 0.20728 0.11709 0.0
C2769 C 0.21892 0.20281 0.12491 0.0
C2770 C 0.21526 0.21396 0.1082 0.0
C2771 C 0.22682 0.21626 0.1071 0.0
C2772 C 0.23441 0.21171 0.11491 0.0
C2773 C 0.23037 0.20506 0.12371 0.0
C2774 C 0.20691 0.21864 0.10004 0.0
C2775 C 0.24679 0.214 0.11407 0.0
C2776 C 0.2383 0.22639 0.07923 0.0
C2777 C 0.23938 0.23788 0.08095 0.0
C2778 C 0.23412 0.21926 0.08761 0.0
C2779 C 0.23098 0.22371 0.09798 0.0
C2780 C 0.232 0.2353 0.09975 0.0
C2781 C 0.2362 0.24222 0.09124 0.0
C2782 C 0.23314 0.20695 0.0854 0.0
C2783 C 0.22879 0.24038 0.11069 0.0
H2784 H 0.20261 0.20547 0.11787 0.0
H2785 H 0.23619 0.20178 0.12979 0.0
H2786 H 0.20732 0.22786 0.10019 0.0
H2787 H 0.20897 0.21607 0.09146 0.0
H2788 H 0.19824 0.21587 0.10191 0.0
H2789 H 0.25161 0.20958 0.12062 0.0
H2790 H 0.24984 0.21143 0.10581 0.0
H2791 H 0.24852 0.22305 0.11482 0.0
H2792 H 0.24064 0.22297 0.07128 0.0
H2793 H 0.23719 0.25104 0.09274 0.0
H2794 H 0.2244 0.20405 0.08658 0.0
H2795 H 0.23837 0.20232 0.09144 0.0
H2796 H 0.23576 0.20482 0.07684 0.0
H2797 H 0.21997 0.23827 0.11261 0.0
H2798 H 0.22985 0.24957 0.11065 0.0
H2799 H 0.23398 0.2369 0.11752 0.0
C2800 C 0.80886 0.19735 0.11659 0.0
C2801 C 0.80804 0.20192 0.12725 0.0
C2802 C 0.80424 0.20271 0.10724 0.0
C2803 C 0.79873 0.21292 0.10857 0.0
C2804 C 0.79821 0.21776 0.11925 0.0
C2805 C 0.80283 0.21218 0.12846 0.0
C2806 C 0.80491 0.19725 0.096 0.0
C2807 C 0.79251 0.22868 0.12101 0.0
C2808 C 0.79267 0.23127 0.08331 0.0
C2809 C 0.78135 0.22882 0.08129 0.0
C2810 C 0.79849 0.22608 0.09207 0.0
C2811 C 0.79289 0.2182 0.09895 0.0
C2812 C 0.78153 0.21555 0.09684 0.0
C2813 C 0.7759 0.22092 0.0881 0.0
C2814 C 0.81059 0.22915 0.09408 0.0
C2815 C 0.77525 0.20719 0.10396 0.0
H2816 H 0.81278 0.18938 0.1156 0.0
H2817 H 0.80231 0.21583 0.13665 0.0
H2818 H 0.7964 0.19485 0.09311 0.0
H2819 H 0.80842 0.20317 0.08977 0.0
H2820 H 0.81011 0.18971 0.09623 0.0
H2821 H 0.79344 0.23167 0.1297 0.0
H2822 H 0.79598 0.23512 0.11529 0.0
H2823 H 0.78349 0.22775 0.11906 0.0
H2824 H 0.79699 0.23727 0.07804 0.0
H2825 H 0.76711 0.21911 0.08679 0.0
H2826 H 0.81576 0.2216 0.09383 0.0
H2827 H 0.81163 0.23277 0.10249 0.0
H2828 H 0.81381 0.23523 0.08783 0.0
H2829 H 0.77964 0.19915 0.1041 0.0
H2830 H 0.76658 0.2057 0.10093 0.0
H2831 H 0.77492 0.21016 0.11266 0.0
C2832 C 0.80335 0.8076 0.12628 0.0
C2833 C 0.8061 0.81895 0.1253 0.0
C2834 C 0.79852 0.80174 0.11734 0.0
C2835 C 0.79639 0.80734 0.10715 0.0
C2836 C 0.79943 0.81871 0.106 0.0
C2837 C 0.80422 0.82437 0.11508 0.0
C2838 C 0.79538 0.78963 0.11892 0.0
C2839 C 0.79737 0.82497 0.09526 0.0
C2840 C 0.79079 0.78999 0.08123 0.0
C2841 C 0.77911 0.79002 0.08057 0.0
C2842 C 0.79655 0.79566 0.08976 0.0
C2843 C 0.79049 0.80145 0.09788 0.0
C2844 C 0.7787 0.80156 0.09722 0.0
C2845 C 0.77317 0.79586 0.08859 0.0
C2846 C 0.80912 0.7954 0.09014 0.0
C2847 C 0.7719 0.80757 0.10573 0.0
H2848 H 0.80465 0.80337 0.13417 0.0
H2849 H 0.80648 0.83309 0.1142 0.0
H2850 H 0.7862 0.78853 0.1182 0.0
H2851 H 0.79915 0.78458 0.1123 0.0
H2852 H 0.79811 0.78634 0.12715 0.0
H2853 H 0.80074 0.83363 0.09552 0.0
H2854 H 0.80125 0.82061 0.08822 0.0
H2855 H 0.78829 0.82526 0.09353 0.0
H2856 H 0.79545 0.78556 0.07502 0.0
H2857 H 0.76414 0.79577 0.08827 0.0
H2858 H 0.81195 0.79155 0.09806 0.0
H2859 H 0.81261 0.804 0.08988 0.0
H2860 H 0.81262 0.79068 0.08311 0.0
H2861 H 0.77351 0.80406 0.11415 0.0
H2862 H 0.76281 0.80697 0.10397 0.0
H2863 H 0.77442 0.81648 0.10593 0.0
C2864 C 0.21991 0.81409 0.11634 0.0
C2865 C 0.21949 0.80892 0.12685 0.0
C2866 C 0.22454 0.80872 0.10717 0.0
C2867 C 0.22882 0.7979 0.10851 0.0
C2868 C 0.22818 0.79253 0.11903 0.0
C2869 C 0.22355 0.79812 0.12807 0.0
C2870 C 0.22514 0.81476 0.09612 0.0
C2871 C 0.23256 0.78096 0.12079 0.0
C2872 C 0.23388 0.7803 0.08286 0.0
C2873 C 0.24543 0.78164 0.08146 0.0
C2874 C 0.22833 0.78558 0.09157 0.0
C2875 C 0.23447 0.7924 0.09906 0.0
C2876 C 0.24611 0.79388 0.09763 0.0
C2877 C 0.25144 0.78845 0.0889 0.0
C2878 C 0.21592 0.78379 0.09284 0.0
C2879 C 0.25297 0.80108 0.10541 0.0
H2880 H 0.2169 0.82248 0.11536 0.0
H2881 H 0.22312 0.79402 0.13613 0.0
H2882 H 0.23399 0.81619 0.0938 0.0
H2883 H 0.22122 0.80962 0.08949 0.0
H2884 H 0.22095 0.82291 0.0963 0.0
H2885 H 0.23095 0.77774 0.12933 0.0
H2886 H 0.22865 0.77517 0.11471 0.0
H2887 H 0.24168 0.78096 0.11933 0.0
H2888 H 0.22914 0.77515 0.07711 0.0
H2889 H 0.26039 0.78937 0.08807 0.0
H2890 H 0.21164 0.79188 0.09247 0.0
H2891 H 0.21411 0.78 0.10109 0.0
H2892 H 0.21233 0.77831 0.08628 0.0
H2893 H 0.24958 0.80959 0.10558 0.0
H2894 H 0.26187 0.80164 0.10297 0.0
H2895 H 0.25249 0.79767 0.11401 0.0
C2896 C 0.21127 0.79975 0.90087 0.0
C2897 C 0.2188 0.80473 0.89338 0.0
C2898 C 0.21505 0.79335 0.90994 0.0
C2899 C 0.22663 0.79189 0.91158 0.0
C2900 C 0.23427 0.79693 0.90407 0.0
C2901 C 0.23027 0.80327 0.89508 0.0
C2902 C 0.20663 0.78811 0.91776 0.0
C2903 C 0.24669 0.79553 0.90548 0.0
C2904 C 0.23747 0.7828 0.94007 0.0
C2905 C 0.23899 0.77139 0.93852 0.0
C2906 C 0.23338 0.78957 0.93141 0.0
C2907 C 0.23077 0.78482 0.92094 0.0
C2908 C 0.23227 0.77331 0.91934 0.0
C2909 C 0.23637 0.76675 0.92812 0.0
C2910 C 0.23189 0.80181 0.93344 0.0
C2911 C 0.22964 0.76792 0.90829 0.0
H2912 H 0.2024 0.80095 0.89972 0.0
H2913 H 0.23614 0.80695 0.88925 0.0
H2914 H 0.20742 0.77894 0.91773 0.0
H2915 H 0.20829 0.79092 0.92639 0.0
H2916 H 0.19793 0.7902 0.91545 0.0
H2917 H 0.25154 0.80022 0.89909 0.0
H2918 H 0.2494 0.79839 0.91384 0.0
H2919 H 0.24876 0.7866 0.90491 0.0
H2920 H 0.23937 0.78644 0.9481 0.0
H2921 H 0.23772 0.75799 0.92676 0.0
H2922 H 0.22309 0.80407 0.93187 0.0
H2923 H 0.23711 0.80676 0.92757 0.0
H2924 H 0.2342 0.80421 0.94208 0.0
H2925 H 0.22081 0.76935 0.90595 0.0
H2926 H 0.23106 0.75882 0.90847 0.0
H2927 H 0.23489 0.77174 0.90169 0.0
C2928 C 0.21927 0.21171 0.89552 0.0
C2929 C 0.20803 0.20865 0.897 0.0
C2930 C 0.22562 0.21634 0.90426 0.0
C2931 C 0.22064 0.21792 0.91477 0.0
C2932 C 0.20935 0.21472 0.91637 0.0
C2933 C 0.20319 0.21015 0.90747 0.0
C2934 C 0.23762 0.21968 0.90219 0.0
C2935 C 0.20375 0.21621 0.92746 0.0
C2936 C 0.2401 0.22146 0.93973 0.0
C2937 C 0.24048 0.23305 0.94094 0.0
C2938 C 0.23355 0.21641 0.93138 0.0
C2939 C 0.22722 0.22311 0.92402 0.0
C2940 C 0.22739 0.23479 0.92534 0.0
C2941 C 0.234 0.23962 0.93378 0.0
C2942 C 0.23353 0.20392 0.93032 0.0
C2943 C 0.2208 0.24223 0.91765 0.0
H2944 H 0.22304 0.21072 0.88743 0.0
H2945 H 0.19456 0.20767 0.90874 0.0
H2946 H 0.23878 0.22874 0.90352 0.0
H2947 H 0.24316 0.21536 0.90819 0.0
H2948 H 0.24031 0.21771 0.89361 0.0
H2949 H 0.19498 0.2131 0.92741 0.0
H2950 H 0.20842 0.21174 0.93407 0.0
H2951 H 0.20384 0.22513 0.92969 0.0
H2952 H 0.24499 0.21632 0.94531 0.0
H2953 H 0.23435 0.24858 0.93454 0.0
H2954 H 0.23691 0.20162 0.9221 0.0
H2955 H 0.22487 0.20056 0.93073 0.0
H2956 H 0.23859 0.19987 0.93693 0.0
H2957 H 0.22377 0.24135 0.90899 0.0
H2958 H 0.22153 0.25112 0.92 0.0
H2959 H 0.21186 0.23971 0.91773 0.0
C2960 C 0.8107 0.21999 0.89519 0.0
C2961 C 0.81579 0.20965 0.89646 0.0
C2962 C 0.80551 0.22511 0.90419 0.0
C2963 C 0.80531 0.21973 0.91472 0.0
C2964 C 0.81026 0.20919 0.91602 0.0
C2965 C 0.81549 0.20431 0.90688 0.0
C2966 C 0.80042 0.23639 0.90248 0.0
C2967 C 0.8101 0.20313 0.92707 0.0
C2968 C 0.80173 0.23848 0.9397 0.0
C2969 C 0.79021 0.23758 0.9416 0.0
C2970 C 0.80679 0.23251 0.93117 0.0
C2971 C 0.80021 0.22534 0.92442 0.0
C2972 C 0.78867 0.22402 0.92657 0.0
C2973 C 0.7838 0.23018 0.93509 0.0
C2974 C 0.81912 0.23416 0.92916 0.0
C2975 C 0.78138 0.21639 0.91962 0.0
H2976 H 0.81103 0.22424 0.88721 0.0
H2977 H 0.81931 0.19626 0.90788 0.0
H2978 H 0.7915 0.2361 0.90482 0.0
H2979 H 0.80467 0.24255 0.90795 0.0
H2980 H 0.80107 0.23936 0.89372 0.0
H2981 H 0.81395 0.19483 0.9266 0.0
H2982 H 0.81468 0.20811 0.93341 0.0
H2983 H 0.8014 0.20207 0.93 0.0
H2984 H 0.80679 0.24401 0.9448 0.0
H2985 H 0.77489 0.2295 0.93638 0.0
H2986 H 0.82044 0.23789 0.92079 0.0
H2987 H 0.82334 0.22603 0.92931 0.0
H2988 H 0.82315 0.23965 0.93545 0.0
H2989 H 0.78089 0.21965 0.91097 0.0
H2990 H 0.77279 0.21556 0.92294 0.0
H2991 H 0.78506 0.20801 0.91923 0.0
C2992 C 0.81557 0.81029 0.90266 0.0
C2993 C 0.80903 0.81161 0.89302 0.0
C2994 C 0.81151 0.80431 0.91193 0.0
C2995 C 0.80066 0.79947 0.91155 0.0
C2996 C 0.79405 0.80073 0.90182 0.0
C2997 C 0.7983 0.80679 0.8927 0.0
C2998 C 0.8188 0.8032 0.92216 0.0
C2999 C 0.78248 0.79563 0.90102 0.0
C3000 C 0.79328 0.77529 0.9309 0.0
C3001 C 0.7869 0.78046 0.93905 0.0
C3002 C 0.79795 0.7814 0.92202 0.0
C3003 C 0.79624 0.79299 0.92125 0.0
C3004 C 0.78999 0.79831 0.92956 0.0
C3005 C 0.78537 0.79198 0.93833 0.0
C3006 C 0.8045 0.77539 0.91331 0.0
C3007 C 0.78804 0.81066 0.92909 0.0
H3008 H 0.82382 0.8141 0.90303 0.0
H3009 H 0.79325 0.80764 0.88523 0.0
H3010 H 0.81455 0.80673 0.92946 0.0
H3011 H 0.82023 0.79429 0.92403 0.0
H3012 H 0.82701 0.80749 0.92116 0.0
H3013 H 0.77839 0.7974 0.89288 0.0
H3014 H 0.78288 0.78649 0.90219 0.0
H3015 H 0.77718 0.79887 0.90775 0.0
H3016 H 0.79436 0.76637 0.93128 0.0
H3017 H 0.78055 0.79606 0.94465 0.0
H3018 H 0.81292 0.77924 0.91246 0.0
H3019 H 0.80026 0.77615 0.90511 0.0
H3020 H 0.80542 0.76643 0.91532 0.0
H3021 H 0.79612 0.81526 0.92865 0.0
H3022 H 0.78338 0.8136 0.93642 0.0
H3023 H 0.78325 0.81276 0.92144 0.0
C3024 C 0.12537 0.19899 0.20303 0.0
C3025 C 0.13308 0.20649 0.19824 0.0
C3026 C 0.11592 0.20278 0.20862 0.0
C3027 C 0.11412 0.21434 0.20946 0.0
C3028 C 0.1219 0.22194 0.2047 0.0
C3029 C 0.13127 0.21794 0.19918 0.0
C3030 C 0.10782 0.19441 0.21359 0.0
C3031 C 0.12035 0.23434 0.20546 0.0
C3032 C 0.08523 0.22563 0.21494 0.0
C3033 C 0.08598 0.22839 0.22625 0.0
C3034 C 0.0942 0.22075 0.20944 0.0
C3035 C 0.10418 0.21856 0.21539 0.0
C3036 C 0.10486 0.22101 0.22688 0.0
C3037 C 0.09578 0.2259 0.23216 0.0
C3038 C 0.09312 0.21823 0.19719 0.0
C3039 C 0.11534 0.21883 0.23353 0.0
H3040 H 0.12664 0.19014 0.20226 0.0
H3041 H 0.13726 0.2238 0.19568 0.0
H3042 H 0.10705 0.19581 0.22266 0.0
H3043 H 0.09943 0.19548 0.20984 0.0
H3044 H 0.11043 0.18571 0.21226 0.0
H3045 H 0.12712 0.23914 0.20126 0.0
H3046 H 0.11227 0.23663 0.20161 0.0
H3047 H 0.1201 0.23685 0.21432 0.0
H3048 H 0.07765 0.22738 0.21033 0.0
H3049 H 0.09654 0.22815 0.24085 0.0
H3050 H 0.09514 0.20942 0.19565 0.0
H3051 H 0.09917 0.22344 0.19243 0.0
H3052 H 0.08461 0.21982 0.19391 0.0
H3053 H 0.11786 0.21007 0.23254 0.0
H3054 H 0.11427 0.22049 0.24254 0.0
H3055 H 0.12226 0.22418 0.23037 0.0
C3056 C 0.80012 0.12382 0.20902 0.0
C3057 C 0.81174 0.12379 0.21047 0.0
C3058 C 0.79338 0.11501 0.21302 0.0
C3059 C 0.79836 0.10596 0.21864 0.0
C3060 C 0.8101 0.10575 0.21992 0.0
C3061 C 0.81663 0.11464 0.2158 0.0
C3062 C 0.7809 0.11554 0.21148 0.0
C3063 C 0.81574 0.09625 0.22585 0.0
C3064 C 0.78084 0.08948 0.23945 0.0
C3065 C 0.77797 0.07988 0.23343 0.0
C3066 C 0.78746 0.09799 0.23473 0.0
C3067 C 0.79128 0.09696 0.22367 0.0
C3068 C 0.78839 0.08734 0.21751 0.0
C3069 C 0.78179 0.07891 0.22247 0.0
C3070 C 0.79035 0.10811 0.24159 0.0
C3071 C 0.79228 0.08594 0.2057 0.0
H3072 H 0.79625 0.13089 0.20502 0.0
H3073 H 0.82561 0.11444 0.21678 0.0
H3074 H 0.7777 0.10786 0.20742 0.0
H3075 H 0.77683 0.11603 0.21972 0.0
H3076 H 0.77838 0.12282 0.20638 0.0
H3077 H 0.82497 0.09712 0.22576 0.0
H3078 H 0.81295 0.09581 0.23463 0.0
H3079 H 0.81332 0.08825 0.22191 0.0
H3080 H 0.77776 0.09043 0.24783 0.0
H3081 H 0.7797 0.0715 0.21778 0.0
H3082 H 0.7872 0.11569 0.23739 0.0
H3083 H 0.79954 0.1091 0.24234 0.0
H3084 H 0.78678 0.10761 0.25009 0.0
H3085 H 0.78936 0.09295 0.20045 0.0
H3086 H 0.7892 0.07803 0.20199 0.0
H3087 H 0.80152 0.08612 0.20546 0.0
C3088 C 0.8917 0.80295 0.20865 0.0
C3089 C 0.89244 0.81244 0.20181 0.0
C3090 C 0.90109 0.79896 0.21438 0.0
C3091 C 0.91147 0.80464 0.21334 0.0
C3092 C 0.91228 0.81423 0.20645 0.0
C3093 C 0.90277 0.81798 0.20073 0.0
C3094 C 0.89988 0.78865 0.22155 0.0
C3095 C 0.92316 0.8206 0.20522 0.0
C3096 C 0.93253 0.80011 0.2367 0.0
C3097 C 0.93964 0.79226 0.23208 0.0
C3098 C 0.9235 0.80438 0.23061 0.0
C3099 C 0.92142 0.80065 0.21964 0.0
C3100 C 0.92863 0.79285 0.21485 0.0
C3101 C 0.93766 0.78878 0.2211 0.0
C3102 C 0.91605 0.81273 0.23602 0.0
C3103 C 0.92667 0.78864 0.20319 0.0
H3104 H 0.88378 0.79854 0.2094 0.0
H3105 H 0.90338 0.82538 0.19555 0.0
H3106 H 0.90575 0.78224 0.21874 0.0
H3107 H 0.90207 0.79063 0.23031 0.0
H3108 H 0.89129 0.78508 0.22131 0.0
H3109 H 0.92244 0.8278 0.19943 0.0
H3110 H 0.92601 0.82367 0.21346 0.0
H3111 H 0.92969 0.81504 0.20209 0.0
H3112 H 0.93381 0.80272 0.24523 0.0
H3113 H 0.94317 0.78284 0.21739 0.0
H3114 H 0.90752 0.80914 0.2369 0.0
H3115 H 0.9154 0.82027 0.2307 0.0
H3116 H 0.91915 0.81523 0.24438 0.0
H3117 H 0.91843 0.78435 0.20266 0.0
H3118 H 0.93318 0.78277 0.20057 0.0
H3119 H 0.92652 0.79571 0.19721 0.0
C3120 C 0.2077 0.89839 0.20917 0.0
C3121 C 0.21284 0.88812 0.20769 0.0
C3122 C 0.2138 0.90772 0.21293 0.0
C3123 C 0.22532 0.90678 0.21529 0.0
C3124 C 0.23059 0.89648 0.2137 0.0
C3125 C 0.2243 0.88729 0.20991 0.0
C3126 C 0.20788 0.91856 0.21446 0.0
C3127 C 0.24285 0.89512 0.21616 0.0
C3128 C 0.24385 0.93276 0.21654 0.0
C3129 C 0.24487 0.93442 0.22805 0.0
C3130 C 0.23738 0.92391 0.21226 0.0
C3131 C 0.23183 0.9165 0.21967 0.0
C3132 C 0.23268 0.91824 0.23129 0.0
C3133 C 0.23917 0.92717 0.23533 0.0
C3134 C 0.23663 0.92239 0.19981 0.0
C3135 C 0.22692 0.91051 0.23947 0.0
H3136 H 0.19889 0.89914 0.20733 0.0
H3137 H 0.22831 0.87937 0.20892 0.0
H3138 H 0.20844 0.92112 0.2233 0.0
H3139 H 0.21198 0.92521 0.20943 0.0
H3140 H 0.19894 0.91799 0.21201 0.0
H3141 H 0.24575 0.88664 0.21425 0.0
H3142 H 0.24784 0.90123 0.21123 0.0
H3143 H 0.24456 0.89682 0.22508 0.0
H3144 H 0.24813 0.93839 0.21086 0.0
H3145 H 0.24004 0.92829 0.24424 0.0
H3146 H 0.22777 0.92227 0.19709 0.0
H3147 H 0.24017 0.91427 0.19753 0.0
H3148 H 0.24115 0.92907 0.19517 0.0
H3149 H 0.21785 0.91007 0.23765 0.0
H3150 H 0.22815 0.91318 0.24823 0.0
H3151 H 0.23017 0.90199 0.23861 0.0
C3152 C 0.12275 0.79906 0.82146 0.0
C3153 C 0.1331 0.80015 0.81614 0.0
C3154 C 0.11322 0.79528 0.81567 0.0
C3155 C 0.11402 0.79256 0.80426 0.0
C3156 C 0.12441 0.79374 0.79882 0.0
C3157 C 0.13382 0.79749 0.80483 0.0
C3158 C 0.10232 0.79405 0.82179 0.0
C3159 C 0.1256 0.79101 0.78665 0.0
C3160 C 0.09264 0.7728 0.79123 0.0
C3161 C 0.08563 0.78014 0.78548 0.0
C3162 C 0.10178 0.77674 0.79752 0.0
C3163 C 0.10404 0.78831 0.79804 0.0
C3164 C 0.09692 0.79578 0.7924 0.0
C3165 C 0.08779 0.79161 0.78622 0.0
C3166 C 0.10915 0.7685 0.80343 0.0
C3167 C 0.09904 0.80818 0.79275 0.0
H3168 H 0.12216 0.80096 0.83024 0.0
H3169 H 0.14174 0.79844 0.80063 0.0
H3170 H 0.09583 0.79907 0.8176 0.0
H3171 H 0.09941 0.78525 0.82162 0.0
H3172 H 0.10304 0.79671 0.83061 0.0
H3173 H 0.13421 0.79254 0.7836 0.0
H3174 H 0.12332 0.78216 0.78524 0.0
H3175 H 0.11979 0.79608 0.78158 0.0
H3176 H 0.09118 0.76392 0.79057 0.0
H3177 H 0.08235 0.79736 0.78195 0.0
H3178 H 0.1098 0.77052 0.81241 0.0
H3179 H 0.1177 0.76903 0.79998 0.0
H3180 H 0.10599 0.75981 0.8026 0.0
H3181 H 0.09922 0.81104 0.8015 0.0
H3182 H 0.0926 0.81288 0.7881 0.0
H3183 H 0.10731 0.81021 0.78913 0.0
C3184 C 0.20631 0.11371 0.82073 0.0
C3185 C 0.21305 0.12332 0.82149 0.0
C3186 C 0.2099 0.10431 0.81497 0.0
C3187 C 0.22047 0.10454 0.8098 0.0
C3188 C 0.22729 0.11424 0.81049 0.0
C3189 C 0.22351 0.12349 0.81633 0.0
C3190 C 0.20241 0.09412 0.81447 0.0
C3191 C 0.23858 0.11488 0.80502 0.0
C3192 C 0.23512 0.07767 0.8028 0.0
C3193 C 0.233 0.07678 0.79134 0.0
C3194 C 0.23087 0.08651 0.80897 0.0
C3195 C 0.22441 0.0947 0.80354 0.0
C3196 C 0.22207 0.09373 0.79202 0.0
C3197 C 0.22637 0.08479 0.78607 0.0
C3198 C 0.23348 0.0872 0.82126 0.0
C3199 C 0.21527 0.10231 0.78589 0.0
H3200 H 0.19827 0.11346 0.82479 0.0
H3201 H 0.22871 0.13093 0.81675 0.0
H3202 H 0.20046 0.09207 0.80567 0.0
H3203 H 0.20676 0.08688 0.81815 0.0
H3204 H 0.19446 0.09524 0.81896 0.0
H3205 H 0.24287 0.12301 0.80635 0.0
H3206 H 0.24396 0.10821 0.80836 0.0
H3207 H 0.23765 0.11352 0.79593 0.0
H3208 H 0.24014 0.07147 0.80696 0.0
H3209 H 0.22484 0.08427 0.77719 0.0
H3210 H 0.22566 0.0878 0.82606 0.0
H3211 H 0.23852 0.09483 0.82296 0.0
H3212 H 0.23816 0.0799 0.82434 0.0
H3213 H 0.2071 0.10328 0.78999 0.0
H3214 H 0.21379 0.1001 0.77704 0.0
H3215 H 0.21966 0.1105 0.78618 0.0
C3216 C 0.89334 0.20471 0.80214 0.0
C3217 C 0.89319 0.20085 0.81319 0.0
C3218 C 0.9027 0.21033 0.7978 0.0
C3219 C 0.9122 0.21217 0.80466 0.0
C3220 C 0.91202 0.20853 0.8159 0.0
C3221 C 0.90251 0.20293 0.82004 0.0
C3222 C 0.9025 0.21415 0.78579 0.0
C3223 C 0.92198 0.21032 0.82347 0.0
C3224 C 0.9393 0.21613 0.78884 0.0
C3225 C 0.94042 0.22775 0.7884 0.0
C3226 C 0.9304 0.21095 0.7945 0.0
C3227 C 0.9224 0.21752 0.79985 0.0
C3228 C 0.92376 0.22924 0.79985 0.0
C3229 C 0.93275 0.23421 0.79413 0.0
C3230 C 0.92932 0.19843 0.79437 0.0
C3231 C 0.91542 0.23655 0.80545 0.0
H3232 H 0.8861 0.20331 0.79686 0.0
H3233 H 0.90249 0.1999 0.82857 0.0
H3234 H 0.90432 0.2232 0.78525 0.0
H3235 H 0.90908 0.20989 0.78109 0.0
H3236 H 0.89433 0.21241 0.78168 0.0
H3237 H 0.92031 0.20754 0.83215 0.0
H3238 H 0.92918 0.20568 0.82028 0.0
H3239 H 0.92445 0.21925 0.82356 0.0
H3240 H 0.94528 0.21109 0.78457 0.0
H3241 H 0.9335 0.24319 0.79375 0.0
H3242 H 0.92177 0.19593 0.78956 0.0
H3243 H 0.92829 0.19514 0.80296 0.0
H3244 H 0.93667 0.19449 0.79058 0.0
H3245 H 0.90732 0.23599 0.80096 0.0
H3246 H 0.91821 0.2454 0.80561 0.0
H3247 H 0.91395 0.23367 0.81412 0.0
C3248 C 0.81538 0.89664 0.81488 0.0
C3249 C 0.82018 0.88883 0.80785 0.0
C3250 C 0.80973 0.90588 0.81051 0.0
C3251 C 0.80885 0.90734 0.79883 0.0
C3252 C 0.81363 0.89945 0.79169 0.0
C3253 C 0.81921 0.89031 0.79628 0.0
C3254 C 0.80475 0.91409 0.8184 0.0
C3255 C 0.81284 0.90066 0.77919 0.0
C3256 C 0.78607 0.92512 0.78611 0.0
C3257 C 0.79195 0.93493 0.78331 0.0
C3258 C 0.79139 0.91621 0.79144 0.0
C3259 C 0.80291 0.91707 0.794 0.0
C3260 C 0.80884 0.92703 0.79144 0.0
C3261 C 0.8033 0.93584 0.78615 0.0
C3262 C 0.78475 0.90574 0.79402 0.0
C3263 C 0.82112 0.92829 0.79406 0.0
H3264 H 0.81619 0.89564 0.82382 0.0
H3265 H 0.82273 0.88423 0.79077 0.0
H3266 H 0.8085 0.92247 0.81696 0.0
H3267 H 0.79566 0.91473 0.8168 0.0
H3268 H 0.80607 0.91173 0.82726 0.0
H3269 H 0.81705 0.89384 0.7748 0.0
H3270 H 0.80397 0.90074 0.77654 0.0
H3271 H 0.81669 0.90869 0.77652 0.0
H3272 H 0.77735 0.92423 0.7838 0.0
H3273 H 0.80788 0.94343 0.78416 0.0
H3274 H 0.78573 0.90345 0.80294 0.0
H3275 H 0.78794 0.89876 0.78907 0.0
H3276 H 0.77573 0.90665 0.79214 0.0
H3277 H 0.82269 0.92656 0.80301 0.0
H3278 H 0.82442 0.93675 0.79202 0.0
H3279 H 0.82586 0.92215 0.78925 0.0
C3280 C 0.21314 0.11458 0.20123 0.0
C3281 C 0.21093 0.12356 0.20822 0.0
C3282 C 0.21865 0.10513 0.20527 0.0
C3283 C 0.22205 0.10464 0.21658 0.0
C3284 C 0.22006 0.11377 0.2236 0.0
C3285 C 0.21454 0.12309 0.21935 0.0
C3286 C 0.2206 0.09557 0.19752 0.0
C3287 C 0.22363 0.11364 0.23569 0.0
C3288 C 0.22584 0.07701 0.2316 0.0
C3289 C 0.23749 0.07626 0.23215 0.0
C3290 C 0.22071 0.086 0.22621 0.0
C3291 C 0.22738 0.09447 0.22123 0.0
C3292 C 0.23913 0.09354 0.22137 0.0
C3293 C 0.24404 0.08445 0.22681 0.0
C3294 C 0.20815 0.08662 0.22619 0.0
C3295 C 0.24654 0.10239 0.21616 0.0
H3296 H 0.2103 0.11483 0.19264 0.0
H3297 H 0.21304 0.13006 0.22476 0.0
H3298 H 0.22957 0.09348 0.1975 0.0
H3299 H 0.21595 0.08808 0.20049 0.0
H3300 H 0.21792 0.09745 0.18885 0.0
H3301 H 0.22176 0.12153 0.23996 0.0
H3302 H 0.2193 0.10672 0.24014 0.0
H3303 H 0.23271 0.11217 0.23637 0.0
H3304 H 0.22071 0.07064 0.23556 0.0
H3305 H 0.25305 0.08401 0.22729 0.0
H3306 H 0.20498 0.08785 0.21758 0.0
H3307 H 0.20556 0.09387 0.23113 0.0
H3308 H 0.20415 0.07901 0.22976 0.0
H3309 H 0.24385 0.1041 0.20747 0.0
H3310 H 0.25544 0.09999 0.21614 0.0
H3311 H 0.24581 0.11025 0.22084 0.0
C3312 C 0.21662 0.88561 0.80194 0.0
C3313 C 0.2113 0.88519 0.8123 0.0
C3314 C 0.2225 0.89517 0.79841 0.0
C3315 C 0.22305 0.9046 0.80537 0.0
C3316 C 0.21774 0.90423 0.81586 0.0
C3317 C 0.21195 0.89453 0.81921 0.0
C3318 C 0.22814 0.89518 0.78721 0.0
C3319 C 0.21809 0.91413 0.8235 0.0
C3320 C 0.24663 0.92545 0.8 0.0
C3321 C 0.24131 0.9335 0.79342 0.0
C3322 C 0.24074 0.91612 0.80413 0.0
C3323 C 0.22924 0.91481 0.80166 0.0
C3324 C 0.22376 0.92304 0.79525 0.0
C3325 C 0.22987 0.93226 0.79119 0.0
C3326 C 0.24691 0.90751 0.81086 0.0
C3327 C 0.21149 0.92198 0.79251 0.0
H3328 H 0.21627 0.87838 0.79662 0.0
H3329 H 0.20776 0.89431 0.82717 0.0
H3330 H 0.22477 0.90191 0.78187 0.0
H3331 H 0.23721 0.89686 0.78827 0.0
H3332 H 0.22698 0.88715 0.78282 0.0
H3333 H 0.21355 0.9125 0.83139 0.0
H3334 H 0.22686 0.91642 0.82553 0.0
H3335 H 0.21434 0.9214 0.81925 0.0
H3336 H 0.2555 0.92626 0.80163 0.0
H3337 H 0.22569 0.9385 0.7862 0.0
H3338 H 0.24678 0.8995 0.80636 0.0
H3339 H 0.24273 0.90605 0.81895 0.0
H3340 H 0.25573 0.91001 0.81247 0.0
H3341 H 0.20993 0.9145 0.78736 0.0
H3342 H 0.20835 0.92935 0.78792 0.0
H3343 H 0.20661 0.92089 0.80027 0.0
C3344 C 0.11749 0.19283 0.81417 0.0
C3345 C 0.12786 0.19826 0.81551 0.0
C3346 C 0.10816 0.19853 0.81008 0.0
C3347 C 0.10922 0.20994 0.80721 0.0
C3348 C 0.11964 0.21549 0.80864 0.0
C3349 C 0.12881 0.20959 0.81278 0.0
C3350 C 0.09719 0.19234 0.80875 0.0
C3351 C 0.12115 0.22763 0.80564 0.0
C3352 C 0.08885 0.22275 0.78654 0.0
C3353 C 0.08188 0.22873 0.79355 0.0
C3354 C 0.09765 0.21644 0.79089 0.0
C3355 C 0.09951 0.21605 0.80254 0.0
C3356 C 0.09231 0.22182 0.80968 0.0
C3357 C 0.08361 0.22811 0.8051 0.0
C3358 C 0.10516 0.21046 0.78298 0.0
C3359 C 0.09394 0.22154 0.82215 0.0
H3360 H 0.11664 0.18411 0.81639 0.0
H3361 H 0.13682 0.21382 0.81365 0.0
H3362 H 0.09063 0.19648 0.81358 0.0
H3363 H 0.09453 0.19248 0.79989 0.0
H3364 H 0.09768 0.18354 0.81157 0.0
H3365 H 0.12973 0.23077 0.80742 0.0
H3366 H 0.11932 0.22891 0.79666 0.0
H3367 H 0.11518 0.23268 0.81036 0.0
H3368 H 0.08768 0.2233 0.7776 0.0
H3369 H 0.07818 0.23261 0.81058 0.0
H3370 H 0.1055 0.20151 0.78524 0.0
H3371 H 0.11377 0.21391 0.78365 0.0
H3372 H 0.10233 0.21122 0.77419 0.0
H3373 H 0.09402 0.21282 0.82521 0.0
H3374 H 0.08731 0.22603 0.82658 0.0
H3375 H 0.10212 0.22539 0.82435 0.0
C3376 C 0.80281 0.12404 0.80956 0.0
C3377 C 0.80789 0.12298 0.82007 0.0
C3378 C 0.79825 0.11476 0.80406 0.0
C3379 C 0.79869 0.10414 0.80921 0.0
C3380 C 0.80399 0.10298 0.81971 0.0
C3381 C 0.80856 0.1124 0.825 0.0
C3382 C 0.79276 0.11634 0.79282 0.0
C3383 C 0.80456 0.09182 0.82551 0.0
C3384 C 0.7763 0.08319 0.80045 0.0
C3385 C 0.78202 0.07651 0.79294 0.0
C3386 C 0.78168 0.09204 0.80594 0.0
C3387 C 0.79308 0.09438 0.80384 0.0
C3388 C 0.79897 0.08761 0.7964 0.0
C3389 C 0.79339 0.07874 0.79106 0.0
C3390 C 0.7751 0.09904 0.81383 0.0
C3391 C 0.81113 0.08985 0.79393 0.0
H3392 H 0.8024 0.13217 0.80564 0.0
H3393 H 0.81237 0.11154 0.83316 0.0
H3394 H 0.79647 0.11072 0.78665 0.0
H3395 H 0.78376 0.11415 0.79336 0.0
H3396 H 0.79361 0.12503 0.7897 0.0
H3397 H 0.80949 0.09221 0.83337 0.0
H3398 H 0.79601 0.08878 0.82748 0.0
H3399 H 0.80833 0.08563 0.81996 0.0
H3400 H 0.76748 0.0817 0.80182 0.0
H3401 H 0.79793 0.07357 0.78539 0.0
H3402 H 0.77473 0.1077 0.81063 0.0
H3403 H 0.77928 0.09933 0.82209 0.0
H3404 H 0.76644 0.09582 0.81495 0.0
H3405 H 0.81218 0.09824 0.79015 0.0
H3406 H 0.81459 0.08365 0.78816 0.0
H3407 H 0.81608 0.08976 0.80176 0.0
C3408 C 0.90667 0.80426 0.82684 0.0
C3409 C 0.89646 0.80528 0.82117 0.0
C3410 C 0.91591 0.7995 0.82171 0.0
C3411 C 0.91494 0.79563 0.81065 0.0
C3412 C 0.90474 0.79689 0.80478 0.0
C3413 C 0.89564 0.80171 0.8101 0.0
C3414 C 0.92665 0.79838 0.82823 0.0
C3415 C 0.90334 0.79284 0.79298 0.0
C3416 C 0.94112 0.78985 0.79399 0.0
C3417 C 0.94192 0.77827 0.79513 0.0
C3418 C 0.93246 0.79564 0.79908 0.0
C3419 C 0.92437 0.78971 0.80541 0.0
C3420 C 0.92519 0.77805 0.80666 0.0
C3421 C 0.93393 0.77248 0.80152 0.0
C3422 C 0.9319 0.80808 0.79759 0.0
C3423 C 0.91673 0.7714 0.81331 0.0
H3424 H 0.90743 0.80716 0.83533 0.0
H3425 H 0.88776 0.80235 0.8057 0.0
H3426 H 0.92853 0.78946 0.82945 0.0
H3427 H 0.93368 0.8022 0.82353 0.0
H3428 H 0.92625 0.80235 0.83653 0.0
H3429 H 0.8951 0.79498 0.78937 0.0
H3430 H 0.90997 0.79649 0.78762 0.0
H3431 H 0.90421 0.78368 0.79279 0.0
H3432 H 0.94729 0.7944 0.78915 0.0
H3433 H 0.93434 0.76352 0.80228 0.0
H3434 H 0.93199 0.81217 0.80583 0.0
H3435 H 0.92397 0.81029 0.79339 0.0
H3436 H 0.93895 0.81149 0.7926 0.0
H3437 H 0.91639 0.77456 0.82194 0.0
H3438 H 0.91866 0.76241 0.81365 0.0
H3439 H 0.90831 0.77237 0.80958 0.0
C3440 C 0.81245 0.8947 0.22344 0.0
C3441 C 0.81343 0.89335 0.2119 0.0
C3442 C 0.80664 0.90364 0.22788 0.0
C3443 C 0.80163 0.91146 0.22063 0.0
C3444 C 0.80246 0.91009 0.20896 0.0
C3445 C 0.80834 0.90106 0.20474 0.0
C3446 C 0.80592 0.90475 0.24037 0.0
C3447 C 0.79721 0.91823 0.20095 0.0
C3448 C 0.77872 0.9287 0.23324 0.0
C3449 C 0.7845 0.93855 0.23604 0.0
C3450 C 0.78409 0.91997 0.22789 0.0
C3451 C 0.79556 0.92105 0.22532 0.0
C3452 C 0.80137 0.93108 0.22782 0.0
C3453 C 0.79577 0.9397 0.23313 0.0
C3454 C 0.77758 0.90943 0.22535 0.0
C3455 C 0.81359 0.93258 0.2252 0.0
H3456 H 0.81617 0.88868 0.22904 0.0
H3457 H 0.80914 0.90015 0.19582 0.0
H3458 H 0.80965 0.91282 0.24299 0.0
H3459 H 0.79706 0.90467 0.24295 0.0
H3460 H 0.81026 0.89796 0.24487 0.0
H3461 H 0.79843 0.91589 0.19213 0.0
H3462 H 0.78814 0.91872 0.20255 0.0
H3463 H 0.80085 0.92666 0.20226 0.0
H3464 H 0.77006 0.92763 0.23559 0.0
H3465 H 0.80027 0.94733 0.23511 0.0
H3466 H 0.78089 0.90248 0.23044 0.0
H3467 H 0.77856 0.90719 0.21648 0.0
H3468 H 0.76856 0.91021 0.22712 0.0
H3469 H 0.81851 0.92651 0.2301 0.0
H3470 H 0.81675 0.94108 0.22711 0.0
H3471 H 0.81507 0.9309 0.21627 0.0
C3472 C 0.13222 0.7935 0.20734 0.0
C3473 C 0.13315 0.80441 0.2032 0.0
C3474 C 0.12251 0.7897 0.21271 0.0
C3475 C 0.11347 0.79697 0.214 0.0
C3476 C 0.11444 0.80808 0.21008 0.0
C3477 C 0.12428 0.81167 0.20474 0.0
C3478 C 0.12185 0.77781 0.21683 0.0
C3479 C 0.105 0.81609 0.2113 0.0
C3480 C 0.08522 0.78258 0.2172 0.0
C3481 C 0.08387 0.78251 0.22879 0.0
C3482 C 0.09461 0.78763 0.21225 0.0
C3483 C 0.10288 0.79275 0.21905 0.0
C3484 C 0.10134 0.79312 0.23072 0.0
C3485 C 0.09185 0.788 0.23545 0.0
C3486 C 0.09588 0.78711 0.19978 0.0
C3487 C 0.10995 0.7985 0.23826 0.0
H3488 H 0.13911 0.78789 0.20636 0.0
H3489 H 0.12489 0.82008 0.20149 0.0
H3490 H 0.11988 0.77758 0.22583 0.0
H3491 H 0.11503 0.77329 0.21241 0.0
H3492 H 0.12975 0.77333 0.21552 0.0
H3493 H 0.10729 0.8246 0.20838 0.0
H3494 H 0.09766 0.81309 0.20644 0.0
H3495 H 0.10242 0.8165 0.22013 0.0
H3496 H 0.079 0.77849 0.21199 0.0
H3497 H 0.09093 0.7879 0.24442 0.0
H3498 H 0.10314 0.78194 0.19772 0.0
H3499 H 0.09753 0.79554 0.1963 0.0
H3500 H 0.08836 0.78352 0.19561 0.0
H3501 H 0.11772 0.79364 0.23812 0.0
H3502 H 0.10706 0.79898 0.247 0.0
H3503 H 0.11207 0.80701 0.23525 0.0
C3504 C 0.89419 0.21399 0.21136 0.0
C3505 C 0.89478 0.20494 0.20412 0.0
C3506 C 0.90367 0.21788 0.21715 0.0
C3507 C 0.91398 0.21253 0.21577 0.0
C3508 C 0.91463 0.20337 0.2085 0.0
C3509 C 0.90503 0.19972 0.20271 0.0
C3510 C 0.90264 0.22775 0.22474 0.0
C3511 C 0.92543 0.19737 0.2069 0.0
C3512 C 0.94029 0.22882 0.22373 0.0
C3513 C 0.94236 0.2249 0.23458 0.0
C3514 C 0.9312 0.22475 0.21744 0.0
C3515 C 0.92403 0.21648 0.22206 0.0
C3516 C 0.92624 0.21226 0.23287 0.0
C3517 C 0.93532 0.21656 0.23901 0.0
C3518 C 0.92911 0.22948 0.20595 0.0
C3519 C 0.91884 0.2034 0.23808 0.0
H3520 H 0.88632 0.21815 0.21236 0.0
H3521 H 0.90551 0.19266 0.19721 0.0
H3522 H 0.90496 0.22536 0.23338 0.0
H3523 H 0.9085 0.23448 0.22209 0.0
H3524 H 0.89407 0.23107 0.22477 0.0
H3525 H 0.92456 0.19043 0.2009 0.0
H3526 H 0.93196 0.20325 0.20385 0.0
H3527 H 0.92839 0.19397 0.215 0.0
H3528 H 0.94576 0.23514 0.22015 0.0
H3529 H 0.93669 0.21358 0.24744 0.0
H3530 H 0.9209 0.23358 0.20569 0.0
H3531 H 0.9288 0.22271 0.19974 0.0
H3532 H 0.93563 0.23565 0.20343 0.0
H3533 H 0.91035 0.20668 0.23925 0.0
H3534 H 0.92207 0.20052 0.24628 0.0
H3535 H 0.91804 0.19614 0.23248 0.0
C3536 C 0.20213 0.70702 0.61718 0.0
C3537 C 0.20962 0.70229 0.62482 0.0
C3538 C 0.20596 0.7136 0.60821 0.0
C3539 C 0.21755 0.71553 0.60685 0.0
C3540 C 0.22515 0.71074 0.6145 0.0
C3541 C 0.2211 0.7042 0.62338 0.0
C3542 C 0.19759 0.71855 0.60022 0.0
C3543 C 0.23757 0.71264 0.6134 0.0
C3544 C 0.22891 0.72512 0.57875 0.0
C3545 C 0.23049 0.73657 0.58042 0.0
C3546 C 0.22457 0.71819 0.58721 0.0
C3547 C 0.22176 0.7228 0.59761 0.0
C3548 C 0.22325 0.73435 0.59931 0.0
C3549 C 0.2276 0.74108 0.59072 0.0
C3550 C 0.22307 0.70591 0.58506 0.0
C3551 C 0.22042 0.73961 0.61028 0.0
H3552 H 0.19326 0.70548 0.61813 0.0
H3553 H 0.22694 0.70072 0.62932 0.0
H3554 H 0.19833 0.72775 0.60032 0.0
H3555 H 0.19934 0.71585 0.59161 0.0
H3556 H 0.18888 0.7161 0.60231 0.0
H3557 H 0.24238 0.70811 0.61988 0.0
H3558 H 0.24036 0.7099 0.60509 0.0
H3559 H 0.2396 0.72164 0.61404 0.0
H3560 H 0.23102 0.72158 0.57078 0.0
H3561 H 0.22898 0.74987 0.59218 0.0
H3562 H 0.21427 0.70333 0.58647 0.0
H3563 H 0.22828 0.70111 0.59098 0.0
H3564 H 0.22539 0.70366 0.57644 0.0
H3565 H 0.21158 0.73777 0.61239 0.0
H3566 H 0.22175 0.74876 0.61016 0.0
H3567 H 0.22563 0.73601 0.61703 0.0
C3568 C 0.81729 0.70645 0.6199 0.0
C3569 C 0.81043 0.70533 0.62927 0.0
C3570 C 0.8138 0.71244 0.61044 0.0
C3571 C 0.80323 0.7175 0.61037 0.0
C3572 C 0.79631 0.71646 0.61983 0.0
C3573 C 0.79998 0.71038 0.62914 0.0
C3574 C 0.82139 0.7133 0.6005 0.0
C3575 C 0.78503 0.72182 0.62014 0.0
C3576 C 0.79753 0.7416 0.59057 0.0
C3577 C 0.79098 0.73646 0.58229 0.0
C3578 C 0.80174 0.73549 0.59963 0.0
C3579 C 0.7994 0.72395 0.60044 0.0
C3580 C 0.79302 0.71865 0.59198 0.0
C3581 C 0.78886 0.72498 0.58303 0.0
C3582 C 0.80845 0.74147 0.60851 0.0
C3583 C 0.79041 0.70635 0.5925 0.0
H3584 H 0.82532 0.70247 0.61989 0.0
H3585 H 0.7947 0.70969 0.63641 0.0
H3586 H 0.81713 0.70977 0.59307 0.0
H3587 H 0.82334 0.72216 0.5986 0.0
H3588 H 0.82934 0.70888 0.60186 0.0
H3589 H 0.78067 0.72025 0.62814 0.0
H3590 H 0.78597 0.73093 0.61887 0.0
H3591 H 0.77969 0.7186 0.61326 0.0
H3592 H 0.79907 0.75049 0.59015 0.0
H3593 H 0.7839 0.72094 0.57662 0.0
H3594 H 0.81661 0.73743 0.60973 0.0
H3595 H 0.80398 0.74093 0.61655 0.0
H3596 H 0.80994 0.75037 0.60641 0.0
H3597 H 0.79822 0.70161 0.59333 0.0
H3598 H 0.7858 0.7034 0.585 0.0
H3599 H 0.7853 0.70441 0.59995 0.0
C3600 C 0.81896 0.31092 0.62178 0.0
C3601 C 0.81165 0.3161 0.6291 0.0
C3602 C 0.81493 0.30521 0.61236 0.0
C3603 C 0.80331 0.30464 0.61021 0.0
C3604 C 0.7959 0.3098 0.61761 0.0
C3605 C 0.80015 0.31544 0.62694 0.0
C3606 C 0.8231 0.29983 0.60469 0.0
C3607 C 0.78344 0.30934 0.61567 0.0
C3608 C 0.7919 0.29881 0.58114 0.0
C3609 C 0.78854 0.28761 0.58206 0.0
C3610 C 0.79701 0.30437 0.59013 0.0
C3611 C 0.79882 0.29861 0.6003 0.0
C3612 C 0.79575 0.28723 0.60117 0.0
C3613 C 0.79064 0.28188 0.59207 0.0
C3614 C 0.8002 0.3165 0.58883 0.0
C3615 C 0.79751 0.28078 0.61186 0.0
H3616 H 0.82787 0.31148 0.62332 0.0
H3617 H 0.79442 0.31924 0.63264 0.0
H3618 H 0.82121 0.29079 0.6041 0.0
H3619 H 0.82228 0.30339 0.59618 0.0
H3620 H 0.83187 0.30097 0.60755 0.0
H3621 H 0.77881 0.31382 0.62217 0.0
H3622 H 0.7814 0.31305 0.60743 0.0
H3623 H 0.78045 0.30057 0.61555 0.0
H3624 H 0.79044 0.30327 0.57341 0.0
H3625 H 0.78794 0.27328 0.59294 0.0
H3626 H 0.8091 0.31784 0.5911 0.0
H3627 H 0.79521 0.32153 0.59459 0.0
H3628 H 0.79883 0.31961 0.58021 0.0
H3629 H 0.80632 0.28158 0.61465 0.0
H3630 H 0.79535 0.27182 0.61097 0.0
H3631 H 0.79228 0.28426 0.61852 0.0
C3632 C 0.22465 0.30434 0.62743 0.0
C3633 C 0.21317 0.30538 0.62919 0.0
C3634 C 0.22869 0.29864 0.61819 0.0
C3635 C 0.22108 0.29382 0.61048 0.0
C3636 C 0.20948 0.29469 0.61228 0.0
C3637 C 0.20566 0.30045 0.62161 0.0
C3638 C 0.24113 0.29786 0.61662 0.0
C3639 C 0.2011 0.28965 0.60427 0.0
C3640 C 0.23267 0.28877 0.5816 0.0
C3641 C 0.2355 0.27752 0.58225 0.0
C3642 C 0.22763 0.29409 0.59059 0.0
C3643 C 0.22535 0.28802 0.60049 0.0
C3644 C 0.22781 0.27656 0.60105 0.0
C3645 C 0.23286 0.27146 0.59195 0.0
C3646 C 0.22509 0.3063 0.58962 0.0
C3647 C 0.22551 0.26978 0.61144 0.0
H3648 H 0.23052 0.30794 0.63334 0.0
H3649 H 0.19678 0.3013 0.62284 0.0
H3650 H 0.24356 0.28902 0.61626 0.0
H3651 H 0.24356 0.30182 0.6086 0.0
H3652 H 0.24594 0.30195 0.62343 0.0
H3653 H 0.19237 0.29077 0.60701 0.0
H3654 H 0.20211 0.29351 0.59591 0.0
H3655 H 0.20259 0.28063 0.60337 0.0
H3656 H 0.23453 0.29348 0.5741 0.0
H3657 H 0.23514 0.2628 0.5926 0.0
H3658 H 0.23031 0.31105 0.59566 0.0
H3659 H 0.21625 0.30774 0.59172 0.0
H3660 H 0.22671 0.30966 0.58114 0.0
H3661 H 0.23091 0.27283 0.61834 0.0
H3662 H 0.22708 0.2608 0.61025 0.0
H3663 H 0.21674 0.27076 0.61406 0.0
C3664 C 0.20512 0.29994 0.40102 0.0
C3665 C 0.21261 0.30569 0.39403 0.0
C3666 C 0.20894 0.29346 0.41001 0.0
C3667 C 0.22054 0.2927 0.41208 0.0
C3668 C 0.22814 0.29855 0.40513 0.0
C3669 C 0.22409 0.30496 0.3962 0.0
C3670 C 0.20057 0.28735 0.41723 0.0
C3671 C 0.24057 0.29792 0.40702 0.0
C3672 C 0.23081 0.28296 0.44056 0.0
C3673 C 0.23319 0.27178 0.43856 0.0
C3674 C 0.22662 0.28986 0.43206 0.0
C3675 C 0.22476 0.28547 0.42128 0.0
C3676 C 0.2271 0.2742 0.41922 0.0
C3677 C 0.23129 0.26751 0.42786 0.0
C3678 C 0.22421 0.30184 0.43458 0.0
C3679 C 0.22528 0.2692 0.40784 0.0
H3680 H 0.19623 0.30058 0.39951 0.0
H3681 H 0.22995 0.30924 0.39076 0.0
H3682 H 0.20194 0.27827 0.4168 0.0
H3683 H 0.20172 0.2898 0.42605 0.0
H3684 H 0.19183 0.28901 0.41468 0.0
H3685 H 0.24535 0.30326 0.40109 0.0
H3686 H 0.24271 0.30051 0.41562 0.0
H3687 H 0.24329 0.28922 0.4061 0.0
H3688 H 0.23215 0.28631 0.44882 0.0
H3689 H 0.2333 0.25895 0.42616 0.0
H3690 H 0.21534 0.30359 0.43273 0.0
H3691 H 0.22933 0.30739 0.42917 0.0
H3692 H 0.22599 0.30394 0.44341 0.0
H3693 H 0.21647 0.27018 0.40519 0.0
H3694 H 0.2273 0.26024 0.40766 0.0
H3695 H 0.23054 0.27367 0.40164 0.0
C3696 C 0.21353 0.71275 0.39362 0.0
C3697 C 0.20218 0.70998 0.39479 0.0
C3698 C 0.21977 0.71715 0.40254 0.0
C3699 C 0.21457 0.71881 0.41293 0.0
C3700 C 0.20316 0.7159 0.41422 0.0
C3701 C 0.19711 0.71155 0.40514 0.0
C3702 C 0.2319 0.72018 0.4008 0.0
C3703 C 0.19733 0.71747 0.42517 0.0
C3704 C 0.23356 0.72165 0.43832 0.0
C3705 C 0.23424 0.73323 0.4396 0.0
C3706 C 0.22702 0.71684 0.42982 0.0
C3707 C 0.22105 0.72375 0.42237 0.0
C3708 C 0.22152 0.73542 0.42375 0.0
C3709 C 0.22809 0.74002 0.43235 0.0
C3710 C 0.22668 0.70435 0.42868 0.0
C3711 C 0.2153 0.74309 0.41598 0.0
H3712 H 0.21748 0.7117 0.38562 0.0
H3713 H 0.18838 0.70931 0.40616 0.0
H3714 H 0.23327 0.7292 0.40223 0.0
H3715 H 0.23717 0.71567 0.40691 0.0
H3716 H 0.23475 0.7182 0.39228 0.0
H3717 H 0.18848 0.71459 0.42488 0.0
H3718 H 0.2017 0.71285 0.43187 0.0
H3719 H 0.19759 0.72639 0.42745 0.0
H3720 H 0.23818 0.71635 0.44396 0.0
H3721 H 0.22869 0.74897 0.43317 0.0
H3722 H 0.23021 0.70199 0.42055 0.0
H3723 H 0.21792 0.70124 0.42885 0.0
H3724 H 0.23143 0.70012 0.43541 0.0
H3725 H 0.21846 0.7422 0.40738 0.0
H3726 H 0.21621 0.75195 0.41841 0.0
H3727 H 0.20631 0.7408 0.41581 0.0
C3728 C 0.80885 0.70948 0.39447 0.0
C3729 C 0.82046 0.71102 0.39405 0.0
C3730 C 0.80268 0.71327 0.40355 0.0
C3731 C 0.80824 0.71876 0.41243 0.0
C3732 C 0.81998 0.72014 0.41217 0.0
C3733 C 0.82594 0.71624 0.40302 0.0
C3734 C 0.79017 0.71163 0.40351 0.0
C3735 C 0.82623 0.72594 0.42147 0.0
C3736 C 0.79157 0.73893 0.42959 0.0
C3737 C 0.78917 0.73264 0.4392 0.0
C3738 C 0.79781 0.73453 0.42088 0.0
C3739 C 0.80174 0.72353 0.42173 0.0
C3740 C 0.7994 0.71714 0.43141 0.0
C3741 C 0.79316 0.72176 0.44003 0.0
C3742 C 0.80012 0.74165 0.41071 0.0
C3743 C 0.80344 0.70538 0.43263 0.0
H3744 H 0.80452 0.70557 0.38755 0.0
H3745 H 0.83492 0.7173 0.40287 0.0
H3746 H 0.78747 0.70736 0.41128 0.0
H3747 H 0.78609 0.71983 0.40324 0.0
H3748 H 0.78718 0.70668 0.39628 0.0
H3749 H 0.8354 0.72595 0.42023 0.0
H3750 H 0.8235 0.73467 0.42204 0.0
H3751 H 0.82433 0.72184 0.42956 0.0
H3752 H 0.78835 0.74725 0.42874 0.0
H3753 H 0.79146 0.71687 0.44746 0.0
H3754 H 0.79646 0.73763 0.40322 0.0
H3755 H 0.80924 0.74245 0.40937 0.0
H3756 H 0.79664 0.7501 0.41142 0.0
H3757 H 0.80002 0.7002 0.42577 0.0
H3758 H 0.80096 0.70151 0.44069 0.0
H3759 H 0.81266 0.70527 0.43201 0.0
C3760 C 0.8079 0.30989 0.3951 0.0
C3761 C 0.81941 0.31119 0.39336 0.0
C3762 C 0.80375 0.30364 0.40413 0.0
C3763 C 0.81126 0.29852 0.41164 0.0
C3764 C 0.82289 0.29979 0.40995 0.0
C3765 C 0.82682 0.30609 0.40083 0.0
C3766 C 0.79129 0.30245 0.40558 0.0
C3767 C 0.83118 0.29449 0.41778 0.0
C3768 C 0.79989 0.29036 0.44015 0.0
C3769 C 0.79742 0.27901 0.43877 0.0
C3770 C 0.80461 0.29677 0.43149 0.0
C3771 C 0.8069 0.29172 0.42116 0.0
C3772 C 0.80461 0.28023 0.41978 0.0
C3773 C 0.7999 0.27404 0.42857 0.0
C3774 C 0.80697 0.30898 0.43331 0.0
C3775 C 0.80688 0.27453 0.4089 0.0
H3776 H 0.8021 0.31364 0.38928 0.0
H3777 H 0.83572 0.30715 0.39963 0.0
H3778 H 0.78876 0.29355 0.40525 0.0
H3779 H 0.78888 0.30557 0.41387 0.0
H3780 H 0.78656 0.30705 0.39909 0.0
H3781 H 0.83994 0.29632 0.41536 0.0
H3782 H 0.8299 0.29749 0.42637 0.0
H3783 H 0.82984 0.28534 0.41794 0.0
H3784 H 0.79812 0.29426 0.44803 0.0
H3785 H 0.79786 0.26532 0.42734 0.0
H3786 H 0.80185 0.31399 0.42748 0.0
H3787 H 0.81585 0.31097 0.43152 0.0
H3788 H 0.80514 0.31155 0.44196 0.0
H3789 H 0.80166 0.27819 0.40219 0.0
H3790 H 0.80509 0.26545 0.40932 0.0
H3791 H 0.81572 0.27586 0.40651 0.0
C3792 C 0.11525 0.70754 0.69639 0.0
C3793 C 0.12568 0.70607 0.70152 0.0
C3794 C 0.10636 0.7122 0.70219 0.0
C3795 C 0.10792 0.71549 0.71339 0.0
C3796 C 0.11831 0.71371 0.71871 0.0
C3797 C 0.12706 0.70902 0.71272 0.0
C3798 C 0.0954 0.71388 0.69621 0.0
C3799 C 0.12033 0.71712 0.73064 0.0
C3800 C 0.09 0.73876 0.72415 0.0
C3801 C 0.08199 0.73295 0.73049 0.0
C3802 C 0.09842 0.73317 0.71854 0.0
C3803 C 0.09892 0.72144 0.71928 0.0
C3804 C 0.09086 0.7155 0.72565 0.0
C3805 C 0.08251 0.72132 0.73119 0.0
C3806 C 0.10686 0.73985 0.71189 0.0
C3807 C 0.09109 0.70299 0.72661 0.0
H3808 H 0.11405 0.70512 0.68779 0.0
H3809 H 0.13511 0.70802 0.71672 0.0
H3810 H 0.08847 0.71008 0.70108 0.0
H3811 H 0.09375 0.7229 0.69545 0.0
H3812 H 0.0953 0.71025 0.68775 0.0
H3813 H 0.12861 0.7145 0.7338 0.0
H3814 H 0.11985 0.72629 0.7313 0.0
H3815 H 0.11378 0.71347 0.73609 0.0
H3816 H 0.08982 0.74776 0.72373 0.0
H3817 H 0.07632 0.71675 0.736 0.0
H3818 H 0.10673 0.73711 0.7031 0.0
H3819 H 0.11537 0.73839 0.71521 0.0
H3820 H 0.10527 0.74891 0.71209 0.0
H3821 H 0.09043 0.69925 0.71823 0.0
H3822 H 0.08421 0.6996 0.73184 0.0
H3823 H 0.09915 0.70038 0.73029 0.0
C3824 C 0.82177 0.61842 0.71846 0.0
C3825 C 0.81632 0.62729 0.71322 0.0
C3826 C 0.81579 0.60912 0.72252 0.0
C3827 C 0.80405 0.60864 0.72129 0.0
C3828 C 0.7985 0.61745 0.71581 0.0
C3829 C 0.8047 0.62667 0.71186 0.0
C3830 C 0.82202 0.59991 0.7283 0.0
C3831 C 0.78599 0.61725 0.71433 0.0
C3832 C 0.78899 0.58066 0.72447 0.0
C3833 C 0.78502 0.5812 0.73541 0.0
C3834 C 0.79519 0.58952 0.71975 0.0
C3835 C 0.79752 0.59913 0.72613 0.0
C3836 C 0.79361 0.5997 0.73719 0.0
C3837 C 0.78738 0.59077 0.74167 0.0
C3838 C 0.79922 0.5886 0.70793 0.0
C3839 C 0.79591 0.6098 0.74429 0.0
H3840 H 0.83077 0.61873 0.71938 0.0
H3841 H 0.80039 0.63352 0.70794 0.0
H3842 H 0.81923 0.59912 0.73706 0.0
H3843 H 0.82013 0.59186 0.7242 0.0
H3844 H 0.83118 0.60137 0.72826 0.0
H3845 H 0.783 0.62449 0.70942 0.0
H3846 H 0.78326 0.60951 0.71007 0.0
H3847 H 0.78192 0.61726 0.72259 0.0
H3848 H 0.7873 0.57328 0.7196 0.0
H3849 H 0.78418 0.59138 0.75005 0.0
H3850 H 0.80844 0.58941 0.70772 0.0
H3851 H 0.79583 0.59548 0.70279 0.0
H3852 H 0.7967 0.58058 0.70407 0.0
H3853 H 0.80503 0.61134 0.74501 0.0
H3854 H 0.79242 0.60887 0.75279 0.0
H3855 H 0.79227 0.61725 0.74028 0.0
C3856 C 0.9023 0.31193 0.71312 0.0
C3857 C 0.89441 0.3049 0.70794 0.0
C3858 C 0.91149 0.30758 0.71894 0.0
C3859 C 0.91283 0.29592 0.7196 0.0
C3860 C 0.90483 0.28879 0.7145 0.0
C3861 C 0.89573 0.29336 0.70876 0.0
C3862 C 0.91983 0.31546 0.72428 0.0
C3863 C 0.9059 0.27632 0.71505 0.0
C3864 C 0.94128 0.28339 0.72516 0.0
C3865 C 0.94045 0.28017 0.73639 0.0
C3866 C 0.93249 0.28881 0.71969 0.0
C3867 C 0.92261 0.29111 0.72556 0.0
C3868 C 0.92185 0.2882 0.73698 0.0
C3869 C 0.93075 0.28276 0.74224 0.0
C3870 C 0.93366 0.29181 0.70752 0.0
C3871 C 0.91148 0.29049 0.74356 0.0
H3872 H 0.90141 0.32086 0.71244 0.0
H3873 H 0.88958 0.28785 0.70496 0.0
H3874 H 0.92058 0.31358 0.7333 0.0
H3875 H 0.92817 0.31432 0.72059 0.0
H3876 H 0.91748 0.32429 0.72321 0.0
H3877 H 0.89893 0.27192 0.7107 0.0
H3878 H 0.91386 0.27385 0.71124 0.0
H3879 H 0.90608 0.27348 0.72386 0.0
H3880 H 0.94878 0.28156 0.72061 0.0
H3881 H 0.92994 0.28018 0.75086 0.0
H3882 H 0.93196 0.30075 0.70617 0.0
H3883 H 0.92742 0.28702 0.70256 0.0
H3884 H 0.94209 0.29004 0.7043 0.0
H3885 H 0.90924 0.29936 0.74272 0.0
H3886 H 0.9125 0.28845 0.75254 0.0
H3887 H 0.90438 0.28549 0.7402 0.0
C3888 C 0.21638 0.38433 0.71233 0.0
C3889 C 0.20484 0.38458 0.71039 0.0
C3890 C 0.22228 0.39379 0.71607 0.0
C3891 C 0.21652 0.40378 0.71789 0.0
C3892 C 0.20489 0.40413 0.71585 0.0
C3893 C 0.1992 0.39453 0.71214 0.0
C3894 C 0.23467 0.39306 0.71818 0.0
C3895 C 0.19846 0.41463 0.71763 0.0
C3896 C 0.23031 0.42478 0.73735 0.0
C3897 C 0.23551 0.43214 0.72983 0.0
C3898 C 0.22393 0.41564 0.73358 0.0
C3899 C 0.22268 0.41382 0.722 0.0
C3900 C 0.22765 0.42141 0.71436 0.0
C3901 C 0.23401 0.43046 0.71837 0.0
C3902 C 0.21879 0.40773 0.742 0.0
C3903 C 0.22645 0.41983 0.70196 0.0
H3904 H 0.22078 0.37665 0.71115 0.0
H3905 H 0.19031 0.39484 0.71053 0.0
H3906 H 0.23919 0.39935 0.71304 0.0
H3907 H 0.23656 0.39493 0.72703 0.0
H3908 H 0.23793 0.38472 0.71625 0.0
H3909 H 0.18947 0.41356 0.71555 0.0
H3910 H 0.19926 0.41724 0.72644 0.0
H3911 H 0.20199 0.42146 0.71242 0.0
H3912 H 0.23154 0.42593 0.74622 0.0
H3913 H 0.2379 0.43619 0.7125 0.0
H3914 H 0.22247 0.39939 0.74115 0.0
H3915 H 0.2097 0.40679 0.74043 0.0
H3916 H 0.22011 0.41058 0.75069 0.0
H3917 H 0.23037 0.41194 0.69953 0.0
H3918 H 0.23038 0.42674 0.69713 0.0
H3919 H 0.2175 0.41919 0.6996 0.0
C3920 C 0.12244 0.3043 0.31048 0.0
C3921 C 0.1301 0.29693 0.31524 0.0
C3922 C 0.11355 0.30042 0.30381 0.0
C3923 C 0.11227 0.28888 0.30184 0.0
C3924 C 0.1199 0.28139 0.3067 0.0
C3925 C 0.12872 0.2855 0.31333 0.0
C3926 C 0.10558 0.30867 0.29879 0.0
C3927 C 0.11885 0.26903 0.30477 0.0
C3928 C 0.08424 0.27739 0.29168 0.0
C3929 C 0.0861 0.27631 0.28022 0.0
C3930 C 0.09265 0.28153 0.29881 0.0
C3931 C 0.10317 0.28466 0.2944 0.0
C3932 C 0.10508 0.28364 0.28284 0.0
C3933 C 0.09655 0.27946 0.27591 0.0
C3934 C 0.0903 0.2825 0.31109 0.0
C3935 C 0.11618 0.28685 0.2778 0.0
H3936 H 0.12335 0.31313 0.31204 0.0
H3937 H 0.13468 0.27976 0.31684 0.0
H3938 H 0.10585 0.30824 0.28957 0.0
H3939 H 0.09692 0.30656 0.30132 0.0
H3940 H 0.10757 0.31733 0.30134 0.0
H3941 H 0.12525 0.26429 0.30945 0.0
H3942 H 0.11048 0.26595 0.30732 0.0
H3943 H 0.11972 0.26728 0.29577 0.0
H3944 H 0.07618 0.27507 0.29506 0.0
H3945 H 0.09814 0.27847 0.26711 0.0
H3946 H 0.09158 0.29123 0.31376 0.0
H3947 H 0.09621 0.27735 0.31594 0.0
H3948 H 0.08166 0.27981 0.3132 0.0
H3949 H 0.11826 0.29566 0.27966 0.0
H3950 H 0.11625 0.28575 0.26863 0.0
H3951 H 0.12286 0.28173 0.28154 0.0
C3952 C 0.20863 0.62476 0.3088 0.0
C3953 C 0.20553 0.62396 0.32003 0.0
C3954 C 0.21255 0.61549 0.30308 0.0
C3955 C 0.21339 0.60513 0.30869 0.0
C3956 C 0.21013 0.60422 0.31997 0.0
C3957 C 0.20626 0.61364 0.3255 0.0
C3958 C 0.21598 0.61683 0.29107 0.0
C3959 C 0.21081 0.59332 0.32622 0.0
C3960 C 0.21506 0.57931 0.29071 0.0
C3961 C 0.22657 0.5774 0.29065 0.0
C3962 C 0.21063 0.58816 0.29671 0.0
C3963 C 0.21787 0.59532 0.30279 0.0
C3964 C 0.22947 0.59329 0.30297 0.0
C3965 C 0.23367 0.58436 0.29691 0.0
C3966 C 0.19821 0.58998 0.29638 0.0
C3967 C 0.23748 0.60073 0.30932 0.0
H3968 H 0.20823 0.63272 0.30455 0.0
H3969 H 0.20374 0.6129 0.33412 0.0
H3970 H 0.22494 0.61489 0.29021 0.0
H3971 H 0.2112 0.61088 0.2858 0.0
H3972 H 0.21462 0.62538 0.28784 0.0
H3973 H 0.20772 0.59393 0.33489 0.0
H3974 H 0.20586 0.58682 0.32183 0.0
H3975 H 0.21958 0.59054 0.32651 0.0
H3976 H 0.2095 0.5739 0.28599 0.0
H3977 H 0.24258 0.58306 0.29679 0.0
H3978 H 0.19647 0.59814 0.29244 0.0
H3979 H 0.19487 0.59017 0.30496 0.0
H3980 H 0.19366 0.58341 0.29165 0.0
H3981 H 0.23724 0.60929 0.30583 0.0
H3982 H 0.24619 0.59779 0.30897 0.0
H3983 H 0.23497 0.6012 0.31816 0.0
C3984 C 0.89816 0.7116 0.2979 0.0
C3985 C 0.89647 0.71021 0.30938 0.0
C3986 C 0.90693 0.7183 0.29381 0.0
C3987 C 0.91422 0.7238 0.30136 0.0
C3988 C 0.91256 0.72248 0.31296 0.0
C3989 C 0.90371 0.7157 0.31683 0.0
C3990 C 0.90836 0.71954 0.28138 0.0
C3991 C 0.92016 0.72819 0.32128 0.0
C3992 C 0.94248 0.73311 0.2901 0.0
C3993 C 0.94068 0.74435 0.28759 0.0
C3994 C 0.93403 0.72638 0.29481 0.0
C3995 C 0.92351 0.73099 0.29707 0.0
C3996 C 0.92172 0.74238 0.29479 0.0
C3997 C 0.93031 0.74891 0.29007 0.0
C3998 C 0.93628 0.71428 0.29715 0.0
C3999 C 0.91063 0.74762 0.29705 0.0
H4000 H 0.89251 0.70754 0.29207 0.0
H4001 H 0.90255 0.71458 0.32571 0.0
H4002 H 0.90772 0.72841 0.27891 0.0
H4003 H 0.91678 0.71677 0.27896 0.0
H4004 H 0.90204 0.71464 0.27661 0.0
H4005 H 0.91774 0.72633 0.33002 0.0
H4006 H 0.92887 0.72555 0.32006 0.0
H4007 H 0.92 0.73732 0.31994 0.0
H4008 H 0.9505 0.72955 0.28834 0.0
H4009 H 0.92877 0.75753 0.28802 0.0
H4010 H 0.93065 0.70899 0.29199 0.0
H4011 H 0.9345 0.71226 0.306 0.0
H4012 H 0.94503 0.71208 0.29536 0.0
H4013 H 0.90406 0.74367 0.29178 0.0
H4014 H 0.91076 0.7567 0.29534 0.0
H4015 H 0.90823 0.74619 0.30586 0.0
C4016 C 0.83251 0.39919 0.30517 0.0
C4017 C 0.82691 0.39026 0.31042 0.0
C4018 C 0.82672 0.40848 0.30119 0.0
C4019 C 0.81502 0.4089 0.3025 0.0
C4020 C 0.80933 0.40004 0.30799 0.0
C4021 C 0.81533 0.39084 0.31187 0.0
C4022 C 0.8331 0.41775 0.29541 0.0
C4023 C 0.79686 0.40017 0.30957 0.0
C4024 C 0.80044 0.43669 0.2997 0.0
C4025 C 0.79608 0.43614 0.28883 0.0
C4026 C 0.80669 0.42794 0.30424 0.0
C4027 C 0.80866 0.41841 0.29776 0.0
C4028 C 0.80442 0.41787 0.28674 0.0
C4029 C 0.79818 0.4267 0.28244 0.0
C4030 C 0.81108 0.42885 0.316 0.0
C4031 C 0.80633 0.40786 0.27954 0.0
H4032 H 0.84147 0.39892 0.30417 0.0
H4033 H 0.8109 0.38395 0.31579 0.0
H4034 H 0.83016 0.41855 0.28666 0.0
H4035 H 0.83154 0.42577 0.29954 0.0
H4036 H 0.84222 0.41633 0.29538 0.0
H4037 H 0.79376 0.39289 0.31444 0.0
H4038 H 0.79446 0.40787 0.3139 0.0
H4039 H 0.79261 0.4002 0.30133 0.0
H4040 H 0.79898 0.44399 0.30467 0.0
H4041 H 0.79469 0.42608 0.27411 0.0
H4042 H 0.82028 0.428 0.31611 0.0
H4043 H 0.80756 0.42199 0.32118 0.0
H4044 H 0.80898 0.43688 0.31989 0.0
H4045 H 0.81539 0.40639 0.2788 0.0
H4046 H 0.80273 0.40885 0.27106 0.0
H4047 H 0.80253 0.40035 0.28348 0.0
C4048 C 0.19738 0.61146 0.70789 0.0
C4049 C 0.20267 0.6218 0.70609 0.0
C4050 C 0.20335 0.60227 0.71186 0.0
C4051 C 0.21491 0.60344 0.71411 0.0
C4052 C 0.22034 0.61382 0.71215 0.0
C4053 C 0.21417 0.62285 0.70816 0.0
C4054 C 0.19725 0.59135 0.71378 0.0
C4055 C 0.23265 0.61543 0.71447 0.0
C4056 C 0.22851 0.58373 0.73487 0.0
C4057 C 0.23402 0.57638 0.72785 0.0
C4058 C 0.22216 0.59246 0.7305 0.0
C4059 C 0.22127 0.59393 0.71882 0.0
C4060 C 0.22665 0.58644 0.71168 0.0
C4061 C 0.23296 0.57777 0.71628 0.0
C4062 C 0.21657 0.60027 0.7384 0.0
C4063 C 0.22587 0.58768 0.69919 0.0
H4064 H 0.18853 0.61052 0.70616 0.0
H4065 H 0.21831 0.63084 0.70693 0.0
H4066 H 0.20125 0.58468 0.70899 0.0
H4067 H 0.19777 0.58899 0.72271 0.0
H4068 H 0.18833 0.59171 0.7113 0.0
H4069 H 0.2357 0.6239 0.71219 0.0
H4070 H 0.23438 0.61398 0.72345 0.0
H4071 H 0.23748 0.60927 0.70978 0.0
H4072 H 0.22942 0.58286 0.74381 0.0
H4073 H 0.23708 0.57206 0.7108 0.0
H4074 H 0.20749 0.60051 0.7366 0.0
H4075 H 0.21996 0.60883 0.73721 0.0
H4076 H 0.21779 0.5978 0.74726 0.0
H4077 H 0.21701 0.58755 0.69649 0.0
H4078 H 0.23028 0.58099 0.69479 0.0
H4079 H 0.22952 0.59581 0.69658 0.0
C4080 C 0.2059 0.39326 0.31871 0.0
C4081 C 0.20263 0.38501 0.31111 0.0
C4082 C 0.21164 0.40293 0.31517 0.0
C4083 C 0.21419 0.40439 0.30375 0.0
C4084 C 0.21084 0.39613 0.29603 0.0
C4085 C 0.20512 0.38656 0.2998 0.0
C4086 C 0.21504 0.41154 0.32366 0.0
C4087 C 0.21345 0.39734 0.2838 0.0
C4088 C 0.22147 0.43328 0.29245 0.0
C4089 C 0.23315 0.43297 0.29201 0.0
C4090 C 0.21518 0.42409 0.29636 0.0
C4091 C 0.2207 0.41436 0.29991 0.0
C4092 C 0.23247 0.41403 0.29957 0.0
C4093 C 0.23854 0.4233 0.2956 0.0
C4094 C 0.20263 0.42475 0.29659 0.0
C4095 C 0.23868 0.40381 0.30326 0.0
H4096 H 0.20389 0.3922 0.32744 0.0
H4097 H 0.20277 0.38016 0.29389 0.0
H4098 H 0.22425 0.41255 0.32381 0.0
H4099 H 0.21155 0.41971 0.32132 0.0
H4100 H 0.2122 0.40929 0.33217 0.0
H4101 H 0.20997 0.39034 0.27882 0.0
H4102 H 0.21003 0.40522 0.28048 0.0
H4103 H 0.22261 0.39774 0.28262 0.0
H4104 H 0.21723 0.44073 0.28979 0.0
H4105 H 0.24753 0.42287 0.29509 0.0
H4106 H 0.19958 0.42315 0.30515 0.0
H4107 H 0.19889 0.41824 0.29117 0.0
H4108 H 0.19962 0.43298 0.29373 0.0
H4109 H 0.23647 0.40158 0.31195 0.0
H4110 H 0.24787 0.40501 0.30279 0.0
H4111 H 0.23621 0.39666 0.29796 0.0
C4112 C 0.11428 0.69878 0.30894 0.0
C4113 C 0.12508 0.70338 0.30827 0.0
C4114 C 0.10515 0.70409 0.30394 0.0
C4115 C 0.10684 0.71428 0.29817 0.0
C4116 C 0.11769 0.7191 0.2977 0.0
C4117 C 0.12667 0.71358 0.30272 0.0
C4118 C 0.09374 0.69863 0.30456 0.0
C4119 C 0.11984 0.73001 0.29173 0.0
C4120 C 0.08667 0.72253 0.2751 0.0
C4121 C 0.0801 0.73045 0.28035 0.0
C4122 C 0.09524 0.71708 0.28087 0.0
C4123 C 0.0974 0.71965 0.29216 0.0
C4124 C 0.09073 0.72753 0.29757 0.0
C4125 C 0.08216 0.73281 0.29162 0.0
C4126 C 0.10213 0.70872 0.27478 0.0
C4127 C 0.09278 0.7305 0.30961 0.0
H4128 H 0.113 0.69084 0.31311 0.0
H4129 H 0.13497 0.71726 0.30229 0.0
H4130 H 0.08764 0.70451 0.30797 0.0
H4131 H 0.09083 0.69638 0.29608 0.0
H4132 H 0.09371 0.691 0.30984 0.0
H4133 H 0.12865 0.73291 0.29257 0.0
H4134 H 0.11784 0.72911 0.28275 0.0
H4135 H 0.11435 0.7365 0.29504 0.0
H4136 H 0.08532 0.72078 0.26636 0.0
H4137 H 0.07706 0.73881 0.2958 0.0
H4138 H 0.10201 0.70066 0.27933 0.0
H4139 H 0.11094 0.71166 0.27443 0.0
H4140 H 0.09908 0.70731 0.26614 0.0
H4141 H 0.09227 0.72292 0.31491 0.0
H4142 H 0.08671 0.7366 0.31268 0.0
H4143 H 0.10131 0.73407 0.31062 0.0
C4144 C 0.81212 0.6282 0.30498 0.0
C4145 C 0.81633 0.62721 0.31586 0.0
C4146 C 0.80835 0.61883 0.29906 0.0
C4147 C 0.80873 0.60819 0.30416 0.0
C4148 C 0.81307 0.60711 0.3151 0.0
C4149 C 0.81685 0.61662 0.3208 0.0
C4150 C 0.80388 0.62033 0.28737 0.0
C4151 C 0.81353 0.59593 0.32086 0.0
C4152 C 0.78856 0.58624 0.29283 0.0
C4153 C 0.79544 0.58005 0.2859 0.0
C4154 C 0.79283 0.59525 0.29899 0.0
C4155 C 0.80425 0.59825 0.29814 0.0
C4156 C 0.81129 0.59196 0.2913 0.0
C4157 C 0.80682 0.58293 0.2853 0.0
C4158 C 0.78504 0.60172 0.3062 0.0
C4159 C 0.82352 0.5949 0.29017 0.0
H4160 H 0.81183 0.63633 0.30105 0.0
H4161 H 0.81997 0.6158 0.32925 0.0
H4162 H 0.80854 0.6151 0.28152 0.0
H4163 H 0.79501 0.61757 0.28699 0.0
H4164 H 0.80446 0.62911 0.28448 0.0
H4165 H 0.81747 0.59644 0.32924 0.0
H4166 H 0.80497 0.59241 0.32177 0.0
H4167 H 0.81828 0.59003 0.31576 0.0
H4168 H 0.77973 0.58424 0.29323 0.0
H4169 H 0.81224 0.57813 0.28009 0.0
H4170 H 0.78449 0.61038 0.30306 0.0
H4171 H 0.78832 0.60211 0.31485 0.0
H4172 H 0.7765 0.59799 0.30638 0.0
H4173 H 0.8245 0.60339 0.28662 0.0
H4174 H 0.82794 0.58901 0.28475 0.0
H4175 H 0.82761 0.59492 0.29848 0.0
C4176 C 0.89996 0.29192 0.31025 0.0
C4177 C 0.90152 0.30213 0.31565 0.0
C4178 C 0.90883 0.28669 0.30498 0.0
C4179 C 0.91956 0.29181 0.30502 0.0
C4180 C 0.92117 0.3022 0.3103 0.0
C4181 C 0.91215 0.30721 0.31559 0.0
C4182 C 0.90677 0.27557 0.29953 0.0
C4183 C 0.93243 0.30798 0.31042 0.0
C4184 C 0.94405 0.27265 0.30088 0.0
C4185 C 0.94609 0.27388 0.28944 0.0
C4186 C 0.93562 0.27862 0.3061 0.0
C4187 C 0.92911 0.2861 0.29977 0.0
C4188 C 0.93139 0.2877 0.28831 0.0
C4189 C 0.93981 0.28155 0.28328 0.0
C4190 C 0.93348 0.27667 0.31834 0.0
C4191 C 0.92469 0.29565 0.28127 0.0
H4192 H 0.89182 0.28787 0.31039 0.0
H4193 H 0.91339 0.31515 0.31964 0.0
H4194 H 0.90918 0.27602 0.29064 0.0
H4195 H 0.91202 0.26919 0.30359 0.0
H4196 H 0.89791 0.27281 0.30004 0.0
H4197 H 0.93223 0.31618 0.31458 0.0
H4198 H 0.93859 0.30271 0.31482 0.0
H4199 H 0.93544 0.30922 0.30178 0.0
H4200 H 0.94896 0.26689 0.30576 0.0
H4201 H 0.94121 0.28249 0.27442 0.0
H4202 H 0.92496 0.2731 0.31947 0.0
H4203 H 0.93387 0.28466 0.32286 0.0
H4204 H 0.93956 0.27092 0.32219 0.0
H4205 H 0.91592 0.29261 0.28068 0.0
H4206 H 0.92805 0.2966 0.27272 0.0
H4207 H 0.92457 0.30395 0.28522 0.0
C4208 C 0.80925 0.39036 0.72017 0.0
C4209 C 0.81982 0.39133 0.7153 0.0
C4210 C 0.80402 0.39964 0.72468 0.0
C4211 C 0.80951 0.41015 0.72439 0.0
C4212 C 0.82009 0.41123 0.71931 0.0
C4213 C 0.8251 0.40182 0.7148 0.0
C4214 C 0.79269 0.39814 0.72993 0.0
C4215 C 0.82626 0.42226 0.7189 0.0
C4216 C 0.7922 0.43592 0.72925 0.0
C4217 C 0.7941 0.43788 0.74062 0.0
C4218 C 0.79723 0.42701 0.72382 0.0
C4219 C 0.80439 0.4199 0.72988 0.0
C4220 C 0.8065 0.42193 0.7413 0.0
C4221 C 0.80131 0.43084 0.74652 0.0
C4222 C 0.79476 0.42512 0.71164 0.0
C4223 C 0.81409 0.41457 0.74806 0.0
H4224 H 0.80505 0.38231 0.72046 0.0
H4225 H 0.83331 0.40261 0.71115 0.0
H4226 H 0.79323 0.40011 0.73893 0.0
H4227 H 0.78671 0.40399 0.72609 0.0
H4228 H 0.78931 0.38954 0.72903 0.0
H4229 H 0.83417 0.42183 0.71419 0.0
H4230 H 0.82094 0.42868 0.71498 0.0
H4231 H 0.82821 0.42504 0.72749 0.0
H4232 H 0.78676 0.44136 0.72458 0.0
H4233 H 0.80269 0.4321 0.75535 0.0
H4234 H 0.79076 0.41682 0.71052 0.0
H4235 H 0.80263 0.42518 0.70685 0.0
H4236 H 0.78918 0.43151 0.70806 0.0
H4237 H 0.8106 0.40597 0.74834 0.0
H4238 H 0.81522 0.41753 0.75674 0.0
H4239 H 0.82239 0.41419 0.74409 0.0
C4240 C 0.12967 0.28833 0.71352 0.0
C4241 C 0.12998 0.29894 0.70859 0.0
C4242 C 0.12055 0.28476 0.71997 0.0
C4243 C 0.11148 0.29194 0.72151 0.0
C4244 C 0.11173 0.30266 0.71656 0.0
C4245 C 0.12099 0.30604 0.71019 0.0
C4246 C 0.12065 0.27329 0.72518 0.0
C4247 C 0.1022 0.31054 0.71795 0.0
C4248 C 0.0839 0.27835 0.72996 0.0
C4249 C 0.08387 0.28008 0.74149 0.0
C4250 C 0.0927 0.28237 0.72332 0.0
C4251 C 0.10175 0.28821 0.72833 0.0
C4252 C 0.10169 0.29015 0.73994 0.0
C4253 C 0.09274 0.28609 0.74637 0.0
C4254 C 0.09241 0.28022 0.71096 0.0
C4255 C 0.11121 0.29626 0.74563 0.0
H4256 H 0.13665 0.28285 0.71245 0.0
H4257 H 0.12111 0.3142 0.7063 0.0
H4258 H 0.11996 0.27392 0.73436 0.0
H4259 H 0.11335 0.26835 0.7222 0.0
H4260 H 0.12836 0.26874 0.72322 0.0
H4261 H 0.10367 0.31859 0.71357 0.0
H4262 H 0.09438 0.3067 0.71469 0.0
H4263 H 0.1009 0.3122 0.72691 0.0
H4264 H 0.07702 0.2738 0.72612 0.0
H4265 H 0.09287 0.28733 0.75529 0.0
H4266 H 0.09952 0.27496 0.70866 0.0
H4267 H 0.09332 0.28816 0.70627 0.0
H4268 H 0.08455 0.27599 0.70827 0.0
H4269 H 0.11901 0.29155 0.74467 0.0
H4270 H 0.1097 0.29745 0.75464 0.0
H4271 H 0.11258 0.30452 0.74166 0.0
C4272 C 0.90459 0.7133 0.70186 0.0
C4273 C 0.89423 0.71155 0.70702 0.0
C4274 C 0.91391 0.71719 0.70791 0.0
C4275 C 0.91286 0.71943 0.7194 0.0
C4276 C 0.90246 0.71763 0.72467 0.0
C4277 C 0.89328 0.7137 0.71842 0.0
C4278 C 0.92487 0.71893 0.70201 0.0
C4279 C 0.90098 0.71997 0.7369 0.0
C4280 C 0.93858 0.72037 0.73812 0.0
C4281 C 0.94046 0.73184 0.73927 0.0
C4282 C 0.92977 0.71621 0.73151 0.0
C4283 C 0.92263 0.7237 0.72593 0.0
C4284 C 0.92462 0.73529 0.72686 0.0
C4285 C 0.93352 0.73922 0.7335 0.0
C4286 C 0.92798 0.7038 0.73067 0.0
C4287 C 0.91718 0.74356 0.72107 0.0
H4288 H 0.90542 0.71152 0.69308 0.0
H4289 H 0.88529 0.71251 0.72244 0.0
H4290 H 0.92763 0.72775 0.70266 0.0
H4291 H 0.93139 0.71382 0.70604 0.0
H4292 H 0.92433 0.71672 0.69306 0.0
H4293 H 0.89237 0.71806 0.73976 0.0
H4294 H 0.90688 0.71495 0.74191 0.0
H4295 H 0.90294 0.72884 0.73858 0.0
H4296 H 0.94399 0.71462 0.74244 0.0
H4297 H 0.93482 0.7481 0.73446 0.0
H4298 H 0.92789 0.70126 0.72181 0.0
H4299 H 0.91975 0.70141 0.7342 0.0
H4300 H 0.93453 0.69909 0.73516 0.0
H4301 H 0.91679 0.74185 0.71202 0.0
H4302 H 0.92011 0.75227 0.72228 0.0
H4303 H 0.90857 0.74269 0.72431 0.0
C4304 C 0.72924 0.2037 0.62589 0.0
C4305 C 0.71773 0.20204 0.62738 0.0
C4306 C 0.73341 0.20989 0.61682 0.0
C4307 C 0.72591 0.21458 0.60901 0.0
C4308 C 0.71428 0.21289 0.61041 0.0
C4309 C 0.71034 0.20666 0.61957 0.0
C4310 C 0.74586 0.21154 0.61568 0.0
C4311 C 0.70601 0.21774 0.60227 0.0
C4312 C 0.73615 0.23964 0.59226 0.0
C4313 C 0.73888 0.23488 0.58203 0.0
C4314 C 0.73183 0.23315 0.60104 0.0
C4315 C 0.73022 0.22157 0.59962 0.0
C4316 C 0.73293 0.21669 0.58931 0.0
C4317 C 0.73724 0.2234 0.58065 0.0
C4318 C 0.72912 0.23868 0.6119 0.0
C4319 C 0.73132 0.20438 0.58746 0.0
H4320 H 0.73502 0.20031 0.63195 0.0
H4321 H 0.70145 0.20531 0.62056 0.0
H4322 H 0.7486 0.20859 0.60743 0.0
H4323 H 0.74804 0.22052 0.61614 0.0
H4324 H 0.75059 0.20707 0.62226 0.0
H4325 H 0.69726 0.21544 0.60438 0.0
H4326 H 0.70686 0.22693 0.60215 0.0
H4327 H 0.70776 0.21482 0.59374 0.0
H4328 H 0.73758 0.24846 0.5935 0.0
H4329 H 0.73924 0.21967 0.57275 0.0
H4330 H 0.73426 0.23512 0.61872 0.0
H4331 H 0.72025 0.23707 0.61404 0.0
H4332 H 0.73063 0.24781 0.6116 0.0
H4333 H 0.73643 0.19966 0.59354 0.0
H4334 H 0.73367 0.20189 0.57892 0.0
H4335 H 0.72248 0.20194 0.58886 0.0
C4336 C 0.3073 0.19084 0.61824 0.0
C4337 C 0.30784 0.19598 0.62868 0.0
C4338 C 0.3032 0.1965 0.60883 0.0
C4339 C 0.29961 0.20759 0.60986 0.0
C4340 C 0.30027 0.21287 0.62034 0.0
C4341 C 0.30434 0.20699 0.62962 0.0
C4342 C 0.30253 0.19056 0.59782 0.0
C4343 C 0.29663 0.22471 0.62177 0.0
C4344 C 0.29747 0.22621 0.58418 0.0
C4345 C 0.28592 0.22614 0.58216 0.0
C4346 C 0.30206 0.22008 0.59305 0.0
C4347 C 0.29497 0.21365 0.60003 0.0
C4348 C 0.28335 0.21331 0.59787 0.0
C4349 C 0.27897 0.21959 0.58901 0.0
C4350 C 0.31449 0.22067 0.59509 0.0
C4351 C 0.2755 0.20652 0.60509 0.0
H4352 H 0.30989 0.1823 0.61749 0.0
H4353 H 0.30487 0.21106 0.63763 0.0
H4354 H 0.29374 0.19004 0.59494 0.0
H4355 H 0.30728 0.19531 0.59142 0.0
H4356 H 0.30587 0.18202 0.59836 0.0
H4357 H 0.2979 0.22769 0.63042 0.0
H4358 H 0.30136 0.23029 0.61604 0.0
H4359 H 0.28767 0.22542 0.61957 0.0
H4360 H 0.30293 0.23111 0.57885 0.0
H4361 H 0.27003 0.2196 0.58766 0.0
H4362 H 0.31798 0.2122 0.59511 0.0
H4363 H 0.31624 0.22428 0.6034 0.0
H4364 H 0.31891 0.22579 0.58871 0.0
H4365 H 0.27823 0.19777 0.60556 0.0
H4366 H 0.26678 0.20663 0.60193 0.0
H4367 H 0.27565 0.2098 0.61369 0.0
C4368 C 0.31288 0.81148 0.62099 0.0
C4369 C 0.30582 0.81655 0.62864 0.0
C4370 C 0.30853 0.80595 0.6116 0.0
C4371 C 0.29685 0.80546 0.6098 0.0
C4372 C 0.28969 0.81049 0.61753 0.0
C4373 C 0.29425 0.81594 0.62684 0.0
C4374 C 0.31643 0.80068 0.60356 0.0
C4375 C 0.27719 0.81012 0.61596 0.0
C4376 C 0.28467 0.80028 0.58091 0.0
C4377 C 0.2813 0.78907 0.58167 0.0
C4378 C 0.29 0.80564 0.58989 0.0
C4379 C 0.29204 0.79966 0.59989 0.0
C4380 C 0.28895 0.78828 0.6006 0.0
C4381 C 0.2836 0.78313 0.59151 0.0
C4382 C 0.29319 0.81778 0.58878 0.0
C4383 C 0.29096 0.7816 0.61111 0.0
H4384 H 0.32182 0.812 0.62224 0.0
H4385 H 0.28872 0.81966 0.63279 0.0
H4386 H 0.31445 0.79168 0.60282 0.0
H4387 H 0.3154 0.80445 0.59517 0.0
H4388 H 0.32529 0.8017 0.6062 0.0
H4389 H 0.27278 0.81447 0.62271 0.0
H4390 H 0.27491 0.81401 0.60788 0.0
H4391 H 0.27415 0.80136 0.61575 0.0
H4392 H 0.28306 0.8049 0.57331 0.0
H4393 H 0.28089 0.77452 0.59227 0.0
H4394 H 0.30216 0.81905 0.59079 0.0
H4395 H 0.28841 0.8227 0.59482 0.0
H4396 H 0.29156 0.8211 0.58028 0.0
H4397 H 0.29985 0.78229 0.61365 0.0
H4398 H 0.28871 0.77267 0.61008 0.0
H4399 H 0.28594 0.78497 0.61798 0.0
C4400 C 0.72735 0.81018 0.62798 0.0
C4401 C 0.71637 0.81402 0.62794 0.0
C4402 C 0.73179 0.80496 0.61863 0.0
C4403 C 0.7251 0.80353 0.60897 0.0
C4404 C 0.71394 0.80719 0.60894 0.0
C4405 C 0.70971 0.81238 0.61843 0.0
C4406 C 0.7437 0.80111 0.61906 0.0
C4407 C 0.70655 0.80583 0.5988 0.0
C4408 C 0.74116 0.80034 0.58205 0.0
C4409 C 0.74112 0.78876 0.58078 0.0
C4410 C 0.73564 0.80527 0.59097 0.0
C4411 C 0.72995 0.79847 0.59884 0.0
C4412 C 0.72952 0.78681 0.59736 0.0
C4413 C 0.7351 0.7821 0.58835 0.0
C4414 C 0.73624 0.81775 0.59219 0.0
C4415 C 0.72355 0.77927 0.60556 0.0
H4416 H 0.7325 0.81125 0.63536 0.0
H4417 H 0.70125 0.81541 0.61829 0.0
H4418 H 0.74401 0.79211 0.6172 0.0
H4419 H 0.74867 0.80556 0.6126 0.0
H4420 H 0.74769 0.80258 0.6273 0.0
H4421 H 0.69794 0.80869 0.60026 0.0
H4422 H 0.71012 0.81063 0.59172 0.0
H4423 H 0.70616 0.79698 0.59629 0.0
H4424 H 0.74566 0.80555 0.57615 0.0
H4425 H 0.73513 0.77314 0.58751 0.0
H4426 H 0.74098 0.81991 0.59985 0.0
H4427 H 0.72775 0.82111 0.59306 0.0
H4428 H 0.74036 0.8219 0.58498 0.0
H4429 H 0.7279 0.7796 0.61374 0.0
H4430 H 0.72322 0.7705 0.60276 0.0
H4431 H 0.71492 0.78211 0.60686 0.0
C4432 C 0.7252 0.813 0.39607 0.0
C4433 C 0.71364 0.81379 0.39442 0.0
C4434 C 0.7296 0.80685 0.40501 0.0
C4435 C 0.72229 0.80131 0.4125 0.0
C4436 C 0.71062 0.80215 0.41096 0.0
C4437 C 0.70644 0.80837 0.40194 0.0
C4438 C 0.7421 0.80613 0.40634 0.0
C4439 C 0.70254 0.79638 0.41876 0.0
C4440 C 0.73353 0.77647 0.42848 0.0
C4441 C 0.736 0.78103 0.43895 0.0
C4442 C 0.72897 0.78294 0.41987 0.0
C4443 C 0.72687 0.79431 0.42171 0.0
C4444 C 0.7293 0.79899 0.43225 0.0
C4445 C 0.73385 0.7923 0.44074 0.0
C4446 C 0.72654 0.77764 0.40874 0.0
C4447 C 0.72717 0.81108 0.43453 0.0
H4448 H 0.73083 0.81702 0.39023 0.0
H4449 H 0.6975 0.80905 0.40082 0.0
H4450 H 0.74468 0.80894 0.41476 0.0
H4451 H 0.74467 0.79737 0.40555 0.0
H4452 H 0.74664 0.81124 0.40005 0.0
H4453 H 0.69372 0.79809 0.41659 0.0
H4454 H 0.70377 0.78727 0.41854 0.0
H4455 H 0.70416 0.79908 0.42744 0.0
H4456 H 0.73536 0.76783 0.42693 0.0
H4457 H 0.73564 0.79587 0.44882 0.0
H4458 H 0.73155 0.78184 0.40217 0.0
H4459 H 0.71763 0.77865 0.40649 0.0
H4460 H 0.72843 0.76864 0.40873 0.0
H4461 H 0.73209 0.81641 0.42873 0.0
H4462 H 0.72939 0.81341 0.44321 0.0
H4463 H 0.71824 0.81289 0.43305 0.0
C4464 C 0.70815 0.20458 0.40408 0.0
C4465 C 0.70836 0.21015 0.39377 0.0
C4466 C 0.71439 0.20857 0.4132 0.0
C4467 C 0.72093 0.21842 0.41203 0.0
C4468 C 0.72111 0.22412 0.40167 0.0
C4469 C 0.71486 0.2199 0.39266 0.0
C4470 C 0.71407 0.20219 0.42407 0.0
C4471 C 0.72789 0.23469 0.40009 0.0
C4472 C 0.7299 0.23453 0.43786 0.0
C4473 C 0.74107 0.23142 0.43912 0.0
C4474 C 0.72322 0.23028 0.42916 0.0
C4475 C 0.72776 0.22268 0.42157 0.0
C4476 C 0.73895 0.21935 0.42291 0.0
C4477 C 0.74547 0.22379 0.43161 0.0
C4478 C 0.71133 0.23406 0.428 0.0
C4479 C 0.74412 0.21124 0.41502 0.0
H4480 H 0.70323 0.19699 0.40496 0.0
H4481 H 0.71493 0.22433 0.38477 0.0
H4482 H 0.72258 0.19946 0.42634 0.0
H4483 H 0.71121 0.20763 0.43084 0.0
H4484 H 0.70847 0.19476 0.42367 0.0
H4485 H 0.727 0.23822 0.39156 0.0
H4486 H 0.72528 0.24101 0.40617 0.0
H4487 H 0.73684 0.23307 0.40169 0.0
H4488 H 0.72637 0.2403 0.44368 0.0
H4489 H 0.75413 0.22148 0.43235 0.0
H4490 H 0.70554 0.22678 0.42821 0.0
H4491 H 0.71015 0.23827 0.41983 0.0
H4492 H 0.70898 0.23987 0.43469 0.0
H4493 H 0.73901 0.20348 0.41467 0.0
H4494 H 0.75276 0.20911 0.4175 0.0
H4495 H 0.74429 0.21484 0.40649 0.0
C4496 C 0.31083 0.21193 0.39407 0.0
C4497 C 0.31753 0.20252 0.39496 0.0
C4498 C 0.30464 0.2156 0.40316 0.0
C4499 C 0.30507 0.20969 0.4134 0.0
C4500 C 0.31178 0.20015 0.41434 0.0
C4501 C 0.31796 0.19671 0.40512 0.0
C4502 C 0.29768 0.22587 0.40184 0.0
C4503 C 0.31236 0.19354 0.42505 0.0
C4504 C 0.29657 0.22523 0.43937 0.0
C4505 C 0.28538 0.22182 0.44058 0.0
C4506 C 0.30313 0.2212 0.4307 0.0
C4507 C 0.29845 0.21349 0.42307 0.0
C4508 C 0.28729 0.20976 0.42442 0.0
C4509 C 0.28088 0.214 0.4331 0.0
C4510 C 0.315 0.2254 0.42954 0.0
C4511 C 0.28199 0.20149 0.41651 0.0
H4512 H 0.31057 0.21654 0.38629 0.0
H4513 H 0.32304 0.18938 0.40583 0.0
H4514 H 0.2888 0.22381 0.40352 0.0
H4515 H 0.30039 0.23221 0.40799 0.0
H4516 H 0.29831 0.22958 0.39336 0.0
H4517 H 0.31796 0.18632 0.42443 0.0
H4518 H 0.3154 0.19894 0.43191 0.0
H4519 H 0.30391 0.19046 0.42735 0.0
H4520 H 0.30019 0.23113 0.44519 0.0
H4521 H 0.27222 0.21143 0.43381 0.0
H4522 H 0.31598 0.22988 0.42148 0.0
H4523 H 0.3208 0.21832 0.42949 0.0
H4524 H 0.31752 0.23111 0.43636 0.0
H4525 H 0.28147 0.20522 0.40805 0.0
H4526 H 0.27347 0.19888 0.41912 0.0
H4527 H 0.28721 0.194 0.41593 0.0
C4528 C 0.30696 0.81997 0.40043 0.0
C4529 C 0.31182 0.81413 0.39169 0.0
C4530 C 0.30239 0.81437 0.40969 0.0
C4531 C 0.3027 0.80263 0.41028 0.0
C4532 C 0.30777 0.79669 0.40159 0.0
C4533 C 0.31226 0.8025 0.39242 0.0
C4534 C 0.29708 0.82102 0.41877 0.0
C4535 C 0.30827 0.78416 0.4019 0.0
C4536 C 0.29847 0.78809 0.43828 0.0
C4537 C 0.28725 0.78462 0.43758 0.0
C4538 C 0.3036 0.794 0.4295 0.0
C4539 C 0.29737 0.79653 0.41977 0.0
C4540 C 0.28602 0.79316 0.41906 0.0
C4541 C 0.28112 0.78724 0.42793 0.0
C4542 C 0.31571 0.79746 0.4306 0.0
C4543 C 0.27908 0.79569 0.40884 0.0
H4544 H 0.30675 0.82896 0.40005 0.0
H4545 H 0.31587 0.7979 0.38567 0.0
H4546 H 0.28812 0.8187 0.41942 0.0
H4547 H 0.30103 0.81909 0.42691 0.0
H4548 H 0.2978 0.83012 0.41723 0.0
H4549 H 0.3129 0.78081 0.39473 0.0
H4550 H 0.31235 0.78134 0.40972 0.0
H4551 H 0.2997 0.78055 0.4018 0.0
H4552 H 0.30325 0.78622 0.44574 0.0
H4553 H 0.27252 0.78444 0.42719 0.0
H4554 H 0.3166 0.80661 0.42967 0.0
H4555 H 0.3206 0.79368 0.42385 0.0
H4556 H 0.31937 0.79494 0.43873 0.0
H4557 H 0.27908 0.80478 0.40723 0.0
H4558 H 0.27031 0.7927 0.40968 0.0
H4559 H 0.28275 0.79173 0.40145 0.0
C4560 C 0.63169 0.21169 0.71289 0.0
C4561 C 0.63164 0.20923 0.70149 0.0
C4562 C 0.6224 0.21642 0.71795 0.0
C4563 C 0.61281 0.2188 0.71147 0.0
C4564 C 0.61261 0.21612 0.70001 0.0
C4565 C 0.62201 0.21137 0.69517 0.0
C4566 C 0.62293 0.21909 0.7302 0.0
C4567 C 0.60258 0.21857 0.69279 0.0
C4568 C 0.58541 0.2242 0.72623 0.0
C4569 C 0.58525 0.23586 0.72634 0.0
C4570 C 0.59429 0.21852 0.72141 0.0
C4571 C 0.60323 0.22463 0.71653 0.0
C4572 C 0.60309 0.23638 0.71656 0.0
C4573 C 0.59416 0.24184 0.72149 0.0
C4574 C 0.59415 0.20597 0.72156 0.0
C4575 C 0.61244 0.24323 0.71147 0.0
H4576 H 0.63903 0.20992 0.71787 0.0
H4577 H 0.62193 0.20963 0.68633 0.0
H4578 H 0.62233 0.22819 0.73136 0.0
H4579 H 0.61576 0.21513 0.73458 0.0
H4580 H 0.63077 0.21624 0.73419 0.0
H4581 H 0.6035 0.21544 0.68418 0.0
H4582 H 0.59496 0.21475 0.69647 0.0
H4583 H 0.60132 0.22768 0.69238 0.0
H4584 H 0.57854 0.21949 0.72985 0.0
H4585 H 0.59427 0.25083 0.72172 0.0
H4586 H 0.60163 0.2029 0.72601 0.0
H4587 H 0.59446 0.2028 0.71293 0.0
H4588 H 0.5866 0.20244 0.72567 0.0
H4589 H 0.62041 0.24141 0.7158 0.0
H4590 H 0.61096 0.2523 0.71194 0.0
H4591 H 0.61346 0.24098 0.7026 0.0
C4592 C 0.31554 0.12077 0.72779 0.0
C4593 C 0.31663 0.1221 0.71623 0.0
C4594 C 0.3093 0.11189 0.73236 0.0
C4595 C 0.30397 0.10413 0.7252 0.0
C4596 C 0.30509 0.10536 0.71353 0.0
C4597 C 0.3114 0.11432 0.70918 0.0
C4598 C 0.30827 0.11091 0.74485 0.0
C4599 C 0.29955 0.09726 0.70562 0.0
C4600 C 0.29491 0.0761 0.73738 0.0
C4601 C 0.28353 0.07773 0.73931 0.0
C4602 C 0.30165 0.08458 0.73273 0.0
C4603 C 0.29692 0.09495 0.72993 0.0
C4604 C 0.28544 0.09663 0.73182 0.0
C4605 C 0.27891 0.08802 0.73649 0.0
C4606 C 0.31386 0.08247 0.73084 0.0
C4607 C 0.28007 0.10756 0.729 0.0
H4608 H 0.31942 0.12681 0.7333 0.0
H4609 H 0.31232 0.11519 0.70025 0.0
H4610 H 0.2994 0.11159 0.74726 0.0
H4611 H 0.31112 0.10264 0.74771 0.0
H4612 H 0.31321 0.11742 0.74927 0.0
H4613 H 0.30144 0.09923 0.69677 0.0
H4614 H 0.30231 0.0887 0.7075 0.0
H4615 H 0.29038 0.09735 0.70673 0.0
H4616 H 0.29853 0.06815 0.73944 0.0
H4617 H 0.27018 0.08945 0.73814 0.0
H4618 H 0.31903 0.0885 0.73564 0.0
H4619 H 0.31588 0.08374 0.72192 0.0
H4620 H 0.31623 0.07392 0.73334 0.0
H4621 H 0.28412 0.11434 0.73386 0.0
H4622 H 0.271 0.10746 0.73078 0.0
H4623 H 0.28128 0.10959 0.72006 0.0
C4624 C 0.39226 0.80397 0.71489 0.0
C4625 C 0.39316 0.80747 0.70376 0.0
C4626 C 0.40144 0.79958 0.72067 0.0
C4627 C 0.41181 0.79868 0.7152 0.0
C4628 C 0.41281 0.80231 0.70401 0.0
C4629 C 0.40348 0.80664 0.69842 0.0
C4630 C 0.4 0.79575 0.73258 0.0
C4631 C 0.42372 0.80157 0.69791 0.0
C4632 C 0.43765 0.79592 0.73355 0.0
C4633 C 0.43934 0.78441 0.73345 0.0
C4634 C 0.42886 0.8007 0.72749 0.0
C4635 C 0.42154 0.79381 0.72118 0.0
C4636 C 0.42336 0.78222 0.72085 0.0
C4637 C 0.43223 0.77767 0.72696 0.0
C4638 C 0.42727 0.8131 0.72801 0.0
C4639 C 0.41574 0.77459 0.71425 0.0
H4640 H 0.3843 0.80445 0.71904 0.0
H4641 H 0.40429 0.80946 0.68987 0.0
H4642 H 0.40179 0.78676 0.73331 0.0
H4643 H 0.40603 0.80022 0.73805 0.0
H4644 H 0.39144 0.79715 0.73568 0.0
H4645 H 0.42318 0.80491 0.68928 0.0
H4646 H 0.43034 0.80625 0.70246 0.0
H4647 H 0.42633 0.79278 0.69755 0.0
H4648 H 0.44318 0.8012 0.73844 0.0
H4649 H 0.43338 0.76876 0.72694 0.0
H4650 H 0.41911 0.81487 0.73183 0.0
H4651 H 0.42717 0.81671 0.71949 0.0
H4652 H 0.43393 0.81735 0.73293 0.0
H4653 H 0.40716 0.77489 0.71761 0.0
H4654 H 0.41852 0.76583 0.7145 0.0
H4655 H 0.41533 0.77739 0.70544 0.0
C4656 C 0.7012 0.89947 0.71356 0.0
C4657 C 0.70657 0.88943 0.71153 0.0
C4658 C 0.7071 0.90874 0.71777 0.0
C4659 C 0.71865 0.90795 0.72004 0.0
C4660 C 0.72415 0.89787 0.71793 0.0
C4661 C 0.71805 0.88875 0.71369 0.0
C4662 C 0.70095 0.91935 0.71984 0.0
C4663 C 0.73645 0.89666 0.72029 0.0
C4664 C 0.73676 0.93414 0.72228 0.0
C4665 C 0.73787 0.9353 0.73385 0.0
C4666 C 0.73037 0.92541 0.71767 0.0
C4667 C 0.72499 0.9176 0.72479 0.0
C4668 C 0.7259 0.91884 0.73647 0.0
C4669 C 0.73231 0.92768 0.74086 0.0
C4670 C 0.72953 0.92443 0.70517 0.0
C4671 C 0.72034 0.91067 0.74436 0.0
H4672 H 0.69236 0.90012 0.71177 0.0
H4673 H 0.72224 0.88098 0.71229 0.0
H4674 H 0.70154 0.92153 0.72878 0.0
H4675 H 0.70485 0.9263 0.71506 0.0
H4676 H 0.692 0.91867 0.71745 0.0
H4677 H 0.73951 0.88833 0.71802 0.0
H4678 H 0.74128 0.90306 0.71557 0.0
H4679 H 0.73816 0.89804 0.72926 0.0
H4680 H 0.74094 0.94006 0.71681 0.0
H4681 H 0.73325 0.92842 0.7498 0.0
H4682 H 0.72065 0.92421 0.70252 0.0
H4683 H 0.73324 0.91652 0.70249 0.0
H4684 H 0.73385 0.93141 0.70078 0.0
H4685 H 0.71127 0.91011 0.74256 0.0
H4686 H 0.72155 0.91301 0.75322 0.0
H4687 H 0.72377 0.90227 0.74314 0.0
C4688 C 0.62796 0.80357 0.3072 0.0
C4689 C 0.62794 0.80325 0.31888 0.0
C4690 C 0.61903 0.79907 0.30099 0.0
C4691 C 0.60983 0.7941 0.30657 0.0
C4692 C 0.60966 0.79391 0.31835 0.0
C4693 C 0.6187 0.79849 0.32436 0.0
C4694 C 0.61954 0.79943 0.28843 0.0
C4695 C 0.60001 0.7887 0.32462 0.0
C4696 C 0.58273 0.7897 0.29035 0.0
C4697 C 0.58343 0.7785 0.28729 0.0
C4698 C 0.59122 0.79488 0.29668 0.0
C4699 C 0.60061 0.78871 0.30008 0.0
C4700 C 0.6013 0.77738 0.29714 0.0
C4701 C 0.59274 0.77244 0.29076 0.0
C4702 C 0.59019 0.80698 0.29964 0.0
C4703 C 0.61116 0.7705 0.30061 0.0
H4704 H 0.63511 0.8071 0.30289 0.0
H4705 H 0.61852 0.79836 0.33338 0.0
H4706 H 0.61966 0.79085 0.28515 0.0
H4707 H 0.612 0.80345 0.28498 0.0
H4708 H 0.62703 0.80403 0.28536 0.0
H4709 H 0.60097 0.78956 0.33378 0.0
H4710 H 0.59209 0.7926 0.322 0.0
H4711 H 0.59928 0.77974 0.32261 0.0
H4712 H 0.57553 0.79443 0.28782 0.0
H4713 H 0.59349 0.76385 0.28827 0.0
H4714 H 0.5973 0.81183 0.29612 0.0
H4715 H 0.59055 0.80796 0.30881 0.0
H4716 H 0.5823 0.81058 0.29647 0.0
H4717 H 0.61891 0.77411 0.29698 0.0
H4718 H 0.61029 0.76172 0.29791 0.0
H4719 H 0.61218 0.77063 0.30979 0.0
C4720 C 0.70815 0.11419 0.32164 0.0
C4721 C 0.70744 0.12468 0.3165 0.0
C4722 C 0.71168 0.10489 0.31572 0.0
C4723 C 0.71461 0.10607 0.30437 0.0
C4724 C 0.71376 0.11659 0.29908 0.0
C4725 C 0.71017 0.12575 0.3052 0.0
C4726 C 0.7124 0.0938 0.32164 0.0
C4727 C 0.71684 0.11822 0.28701 0.0
C4728 C 0.73432 0.08542 0.2915 0.0
C4729 C 0.72698 0.07867 0.28527 0.0
C4730 C 0.73038 0.09424 0.29788 0.0
C4731 C 0.71882 0.09638 0.29807 0.0
C4732 C 0.71134 0.08945 0.29201 0.0
C4733 C 0.71551 0.0807 0.28567 0.0
C4734 C 0.73865 0.10144 0.3042 0.0
C4735 C 0.69894 0.0914 0.29205 0.0
H4736 H 0.70591 0.11325 0.33033 0.0
H4737 H 0.70977 0.13384 0.30119 0.0
H4738 H 0.70727 0.08748 0.31718 0.0
H4739 H 0.72113 0.09093 0.32163 0.0
H4740 H 0.70953 0.09419 0.33039 0.0
H4741 H 0.71545 0.12686 0.28405 0.0
H4742 H 0.72574 0.11624 0.28582 0.0
H4743 H 0.71185 0.11246 0.28172 0.0
H4744 H 0.74321 0.08402 0.29112 0.0
H4745 H 0.70977 0.07546 0.28097 0.0
H4746 H 0.7364 0.10168 0.31313 0.0
H4747 H 0.73838 0.1101 0.30096 0.0
H4748 H 0.74732 0.09845 0.30351 0.0
H4749 H 0.69583 0.09139 0.30073 0.0
H4750 H 0.6942 0.08502 0.28726 0.0
H4751 H 0.69719 0.0997 0.2884 0.0
C4752 C 0.40872 0.19878 0.31228 0.0
C4753 C 0.39805 0.2032 0.31355 0.0
C4754 C 0.41766 0.20539 0.30836 0.0
C4755 C 0.41591 0.21668 0.3056 0.0
C4756 C 0.4052 0.22123 0.30698 0.0
C4757 C 0.39642 0.21445 0.31094 0.0
C4758 C 0.42896 0.20025 0.30708 0.0
C4759 C 0.40297 0.23322 0.30409 0.0
C4760 C 0.44039 0.23716 0.3039 0.0
C4761 C 0.44199 0.23808 0.29236 0.0
C4762 C 0.43209 0.23006 0.30834 0.0
C4763 C 0.4252 0.22373 0.30107 0.0
C4764 C 0.42695 0.22441 0.28944 0.0
C4765 C 0.43532 0.23156 0.28523 0.0
C4766 C 0.43056 0.22951 0.32079 0.0
C4767 C 0.41976 0.21783 0.2814 0.0
H4768 H 0.41009 0.19014 0.31441 0.0
H4769 H 0.38818 0.21789 0.31175 0.0
H4770 H 0.43155 0.20071 0.29824 0.0
H4771 H 0.43529 0.20496 0.31199 0.0
H4772 H 0.42902 0.19141 0.30983 0.0
H4773 H 0.39424 0.23555 0.30585 0.0
H4774 H 0.40867 0.23877 0.30889 0.0
H4775 H 0.40463 0.23476 0.29513 0.0
H4776 H 0.44559 0.24207 0.30947 0.0
H4777 H 0.4364 0.23232 0.27631 0.0
H4778 H 0.43103 0.22077 0.32376 0.0
H4779 H 0.42218 0.23254 0.32295 0.0
H4780 H 0.43692 0.23457 0.32533 0.0
H4781 H 0.41996 0.20886 0.28357 0.0
H4782 H 0.42248 0.21894 0.27264 0.0
H4783 H 0.41097 0.22046 0.28204 0.0
C4784 C 0.31415 0.88922 0.30131 0.0
C4785 C 0.32516 0.89008 0.30529 0.0
C4786 C 0.30897 0.8983 0.29611 0.0
C4787 C 0.31492 0.9085 0.29487 0.0
C4788 C 0.32592 0.9095 0.29912 0.0
C4789 C 0.33091 0.90029 0.30426 0.0
C4790 C 0.29723 0.89686 0.29165 0.0
C4791 C 0.33252 0.92025 0.29803 0.0
C4792 C 0.30617 0.9277 0.27118 0.0
C4793 C 0.29966 0.93548 0.27668 0.0
C4794 C 0.31124 0.91896 0.27701 0.0
C4795 C 0.3098 0.91795 0.28866 0.0
C4796 C 0.30336 0.92585 0.29431 0.0
C4797 C 0.29834 0.9345 0.28825 0.0
C4798 C 0.31799 0.91068 0.27066 0.0
C4799 C 0.30169 0.92511 0.30673 0.0
H4800 H 0.30968 0.88134 0.30196 0.0
H4801 H 0.33936 0.90107 0.30745 0.0
H4802 H 0.29181 0.90335 0.29507 0.0
H4803 H 0.29722 0.8979 0.28247 0.0
H4804 H 0.29356 0.88857 0.29374 0.0
H4805 H 0.34078 0.91985 0.30226 0.0
H4806 H 0.33386 0.92225 0.2891 0.0
H4807 H 0.3278 0.92718 0.30162 0.0
H4808 H 0.30708 0.92827 0.26222 0.0
H4809 H 0.2934 0.94053 0.29258 0.0
H4810 H 0.31422 0.90224 0.2716 0.0
H4811 H 0.32658 0.91037 0.27411 0.0
H4812 H 0.31847 0.91275 0.26164 0.0
H4813 H 0.29741 0.91715 0.30891 0.0
H4814 H 0.29668 0.93206 0.30992 0.0
H4815 H 0.30988 0.92518 0.31108 0.0
C4816 C 0.7121 0.12451 0.72419 0.0
C4817 C 0.70856 0.12486 0.71304 0.0
C4818 C 0.71724 0.11507 0.72869 0.0
C4819 C 0.71892 0.10572 0.72187 0.0
C4820 C 0.71561 0.1061 0.71053 0.0
C4821 C 0.71048 0.11567 0.70625 0.0
C4822 C 0.72071 0.11505 0.7408 0.0
C4823 C 0.71727 0.09631 0.70299 0.0
C4824 C 0.73998 0.08487 0.73275 0.0
C4825 C 0.73306 0.07704 0.73816 0.0
C4826 C 0.73549 0.09405 0.72707 0.0
C4827 C 0.72379 0.09544 0.72678 0.0
C4828 C 0.71675 0.08733 0.73186 0.0
C4829 C 0.72146 0.07824 0.73747 0.0
C4830 C 0.74329 0.10249 0.72176 0.0
C4831 C 0.70423 0.08845 0.7317 0.0
H4832 H 0.71083 0.13164 0.72945 0.0
H4833 H 0.70769 0.11583 0.69765 0.0
H4834 H 0.71607 0.10841 0.74535 0.0
H4835 H 0.72971 0.11323 0.74159 0.0
H4836 H 0.71913 0.12312 0.74488 0.0
H4837 H 0.71477 0.09812 0.69425 0.0
H4838 H 0.72613 0.09385 0.70313 0.0
H4839 H 0.71227 0.08907 0.70605 0.0
H4840 H 0.74895 0.08409 0.73333 0.0
H4841 H 0.71605 0.07215 0.74149 0.0
H4842 H 0.74284 0.11047 0.72628 0.0
H4843 H 0.74074 0.10413 0.71301 0.0
H4844 H 0.75207 0.09974 0.72188 0.0
H4845 H 0.7019 0.09591 0.73645 0.0
H4846 H 0.6999 0.08108 0.73539 0.0
H4847 H 0.70118 0.08962 0.72304 0.0
C4848 C 0.70327 0.89114 0.29767 0.0
C4849 C 0.7017 0.88984 0.30918 0.0
C4850 C 0.70914 0.90036 0.2933 0.0
C4851 C 0.71359 0.90851 0.30061 0.0
C4852 C 0.71196 0.90731 0.31222 0.0
C4853 C 0.70605 0.89799 0.31636 0.0
C4854 C 0.71074 0.9013 0.28087 0.0
C4855 C 0.71656 0.91581 0.32028 0.0
C4856 C 0.73818 0.92596 0.2903 0.0
C4857 C 0.73308 0.93591 0.28708 0.0
C4858 C 0.73195 0.91706 0.29481 0.0
C4859 C 0.7203 0.91805 0.29611 0.0
C4860 C 0.71508 0.92806 0.29291 0.0
C4861 C 0.72153 0.93687 0.28843 0.0
C4862 C 0.73785 0.90652 0.29808 0.0
C4863 C 0.70267 0.92944 0.29416 0.0
H4864 H 0.70008 0.88482 0.29206 0.0
H4865 H 0.70475 0.89713 0.32525 0.0
H4866 H 0.70753 0.90934 0.27776 0.0
H4867 H 0.71976 0.90114 0.27891 0.0
H4868 H 0.70644 0.89446 0.2763 0.0
H4869 H 0.71432 0.91383 0.32904 0.0
H4870 H 0.72578 0.91628 0.31966 0.0
H4871 H 0.71337 0.92416 0.31812 0.0
H4872 H 0.74706 0.92505 0.2891 0.0
H4873 H 0.71753 0.94455 0.28606 0.0
H4874 H 0.7345 0.89946 0.29311 0.0
H4875 H 0.73629 0.90451 0.30697 0.0
H4876 H 0.74699 0.90717 0.29678 0.0
H4877 H 0.69812 0.92308 0.28918 0.0
H4878 H 0.6999 0.9378 0.29143 0.0
H4879 H 0.70027 0.92813 0.30298 0.0
C4880 C 0.62708 0.20987 0.30145 0.0
C4881 C 0.62787 0.20605 0.3125 0.0
C4882 C 0.61812 0.2164 0.29788 0.0
C4883 C 0.60971 0.21918 0.30552 0.0
C4884 C 0.61044 0.21535 0.31668 0.0
C4885 C 0.61951 0.20886 0.32004 0.0
C4886 C 0.61772 0.22038 0.28594 0.0
C4887 C 0.60161 0.2181 0.32506 0.0
C4888 C 0.59249 0.24459 0.29855 0.0
C4889 C 0.58286 0.23981 0.29376 0.0
C4890 C 0.60119 0.23797 0.30258 0.0
C4891 C 0.60025 0.22626 0.30184 0.0
C4892 C 0.59047 0.22136 0.29721 0.0
C4893 C 0.58191 0.22819 0.29319 0.0
C4894 C 0.61151 0.24354 0.30737 0.0
C4895 C 0.58911 0.20891 0.29634 0.0
H4896 H 0.63357 0.20787 0.29561 0.0
H4897 H 0.61999 0.20583 0.32855 0.0
H4898 H 0.60987 0.21745 0.2819 0.0
H4899 H 0.61776 0.2296 0.28564 0.0
H4900 H 0.62486 0.21742 0.28102 0.0
H4901 H 0.60333 0.21439 0.33339 0.0
H4902 H 0.60108 0.22724 0.32594 0.0
H4903 H 0.59334 0.21503 0.32211 0.0
H4904 H 0.59339 0.25356 0.29886 0.0
H4905 H 0.57445 0.22443 0.28959 0.0
H4906 H 0.61884 0.24157 0.30222 0.0
H4907 H 0.61317 0.24032 0.31589 0.0
H4908 H 0.61077 0.25272 0.30775 0.0
H4909 H 0.59563 0.20561 0.29083 0.0
H4910 H 0.58081 0.20638 0.29297 0.0
H4911 H 0.59024 0.20497 0.30464 0.0
C4912 C 0.30895 0.12336 0.3034 0.0
C4913 C 0.31404 0.12204 0.31387 0.0
C4914 C 0.30442 0.1142 0.29765 0.0
C4915 C 0.30491 0.10345 0.30251 0.0
C4916 C 0.31028 0.10203 0.31295 0.0
C4917 C 0.3148 0.11133 0.31849 0.0
C4918 C 0.29886 0.11607 0.28649 0.0
C4919 C 0.31092 0.09073 0.31845 0.0
C4920 C 0.28243 0.08267 0.29359 0.0
C4921 C 0.28808 0.07612 0.28591 0.0
C4922 C 0.28787 0.09145 0.29916 0.0
C4923 C 0.29924 0.09384 0.29696 0.0
C4924 C 0.30504 0.08722 0.28932 0.0
C4925 C 0.29941 0.07843 0.28391 0.0
C4926 C 0.28137 0.09829 0.30726 0.0
C4927 C 0.31716 0.08952 0.28674 0.0
H4928 H 0.30847 0.13159 0.29971 0.0
H4929 H 0.31862 0.11026 0.32662 0.0
H4930 H 0.3025 0.11056 0.28016 0.0
H4931 H 0.28986 0.11391 0.28705 0.0
H4932 H 0.29974 0.12482 0.28356 0.0
H4933 H 0.31596 0.09091 0.32624 0.0
H4934 H 0.30239 0.08764 0.32046 0.0
H4935 H 0.31461 0.08468 0.31268 0.0
H4936 H 0.27364 0.08114 0.29506 0.0
H4937 H 0.30388 0.07335 0.27809 0.0
H4938 H 0.28103 0.10702 0.30427 0.0
H4939 H 0.28561 0.09836 0.3155 0.0
H4940 H 0.2727 0.09509 0.30837 0.0
H4941 H 0.31818 0.09801 0.28319 0.0
H4942 H 0.32054 0.08348 0.28075 0.0
H4943 H 0.32221 0.0892 0.29451 0.0
C4944 C 0.39546 0.79586 0.30703 0.0
C4945 C 0.3966 0.80141 0.31721 0.0
C4946 C 0.4046 0.79073 0.30209 0.0
C4947 C 0.41514 0.79109 0.30748 0.0
C4948 C 0.41639 0.79684 0.31766 0.0
C4949 C 0.40712 0.80196 0.32238 0.0
C4950 C 0.40293 0.78477 0.29118 0.0
C4951 C 0.42746 0.79734 0.32371 0.0
C4952 C 0.43504 0.76791 0.30058 0.0
C4953 C 0.44226 0.77312 0.29293 0.0
C4954 C 0.42634 0.77372 0.30552 0.0
C4955 C 0.42471 0.78502 0.30269 0.0
C4956 C 0.43203 0.79039 0.29509 0.0
C4957 C 0.44073 0.7844 0.29033 0.0
C4958 C 0.41873 0.76768 0.3136 0.0
C4959 C 0.43058 0.80243 0.29185 0.0
H4960 H 0.3874 0.79553 0.30291 0.0
H4961 H 0.40805 0.80613 0.3303 0.0
H4962 H 0.40892 0.78805 0.28492 0.0
H4963 H 0.40459 0.7758 0.29232 0.0
H4964 H 0.39433 0.78567 0.28781 0.0
H4965 H 0.42718 0.80258 0.33128 0.0
H4966 H 0.42993 0.78884 0.32622 0.0
H4967 H 0.43403 0.80072 0.31813 0.0
H4968 H 0.43598 0.75917 0.30251 0.0
H4969 H 0.44633 0.78855 0.28454 0.0
H4970 H 0.41011 0.76739 0.31021 0.0
H4971 H 0.41849 0.77221 0.3216 0.0
H4972 H 0.42141 0.75904 0.31531 0.0
H4973 H 0.42231 0.80351 0.28783 0.0
H4974 H 0.43713 0.80547 0.28603 0.0
H4975 H 0.43079 0.8077 0.29938 0.0
C4976 C 0.31318 0.89021 0.72635 0.0
C4977 C 0.31779 0.89111 0.71568 0.0
C4978 C 0.30826 0.89936 0.73144 0.0
C4979 C 0.30787 0.90968 0.72569 0.0
C4980 C 0.31237 0.91061 0.71485 0.0
C4981 C 0.31731 0.90133 0.71 0.0
C4982 C 0.30364 0.89803 0.74304 0.0
C4983 C 0.31201 0.92142 0.70841 0.0
C4984 C 0.28672 0.93025 0.73626 0.0
C4985 C 0.29336 0.9371 0.74313 0.0
C4986 C 0.29138 0.92152 0.73026 0.0
C4987 C 0.30295 0.91952 0.73118 0.0
C4988 C 0.30975 0.92661 0.73781 0.0
C4989 C 0.30488 0.93532 0.74366 0.0
C4990 C 0.28385 0.91419 0.72323 0.0
C4991 C 0.32212 0.92478 0.73901 0.0
H4992 H 0.31365 0.88239 0.73086 0.0
H4993 H 0.32074 0.90206 0.7017 0.0
H4994 H 0.30811 0.90377 0.74879 0.0
H4995 H 0.29471 0.90026 0.7431 0.0
H4996 H 0.30443 0.88941 0.7463 0.0
H4997 H 0.31562 0.92071 0.69997 0.0
H4998 H 0.30328 0.9242 0.70758 0.0
H4999 H 0.3167 0.92798 0.713 0.0
H5000 H 0.2778 0.93144 0.73589 0.0
H5001 H 0.31011 0.94067 0.74879 0.0
H5002 H 0.28353 0.90568 0.72684 0.0
H5003 H 0.28721 0.91354 0.71469 0.0
H5004 H 0.27522 0.91736 0.72269 0.0
H5005 H 0.32358 0.91659 0.74302 0.0
H5006 H 0.32632 0.93132 0.74408 0.0
H5007 H 0.32607 0.92464 0.7307 0.0
C5008 C 0.61861 0.80309 0.69559 0.0
C5009 C 0.62883 0.80446 0.70122 0.0
C5010 C 0.6093 0.79825 0.70089 0.0
C5011 C 0.61021 0.79466 0.71211 0.0
C5012 C 0.6204 0.79631 0.71795 0.0
C5013 C 0.62958 0.80119 0.71244 0.0
C5014 C 0.59858 0.7967 0.69438 0.0
C5015 C 0.62172 0.79257 0.72991 0.0
C5016 C 0.58368 0.78837 0.72846 0.0
C5017 C 0.58277 0.77677 0.72757 0.0
C5018 C 0.59256 0.79433 0.72349 0.0
C5019 C 0.60073 0.78855 0.7175 0.0
C5020 C 0.59987 0.77684 0.71659 0.0
C5021 C 0.59093 0.77112 0.72164 0.0
C5022 C 0.59319 0.8068 0.72462 0.0
C5023 C 0.60842 0.77034 0.71033 0.0
H5024 H 0.61791 0.80575 0.68697 0.0
H5025 H 0.63746 0.80212 0.71683 0.0
H5026 H 0.59666 0.7877 0.69347 0.0
H5027 H 0.59156 0.80039 0.69893 0.0
H5028 H 0.59903 0.80054 0.68595 0.0
H5029 H 0.62993 0.79511 0.73349 0.0
H5030 H 0.61504 0.79607 0.73508 0.0
H5031 H 0.6209 0.78339 0.73044 0.0
H5032 H 0.57738 0.79282 0.73296 0.0
H5033 H 0.59045 0.76214 0.7211 0.0
H5034 H 0.59302 0.81079 0.71626 0.0
H5035 H 0.60117 0.80931 0.72866 0.0
H5036 H 0.58621 0.81006 0.72958 0.0
H5037 H 0.60881 0.77329 0.70156 0.0
H5038 H 0.60653 0.76128 0.71037 0.0
H5039 H 0.6168 0.77174 0.71407 0.0
C5040 C 0.40204 0.20119 0.70672 0.0
C5041 C 0.39395 0.20789 0.70167 0.0
C5042 C 0.41141 0.20593 0.71208 0.0
C5043 C 0.41271 0.21764 0.71242 0.0
C5044 C 0.40453 0.22444 0.70743 0.0
C5045 C 0.39526 0.21948 0.70213 0.0
C5046 C 0.41996 0.19842 0.71731 0.0
C5047 C 0.40555 0.23696 0.70766 0.0
C5048 C 0.43109 0.23172 0.73423 0.0
C5049 C 0.44053 0.23478 0.72801 0.0
C5050 C 0.42213 0.22581 0.72936 0.0
C5051 C 0.42261 0.22288 0.71799 0.0
C5052 C 0.43227 0.22561 0.71176 0.0
C5053 C 0.4411 0.23153 0.71684 0.0
C5054 C 0.41198 0.22308 0.73629 0.0
C5055 C 0.43312 0.22259 0.69963 0.0
H5056 H 0.40113 0.19223 0.70631 0.0
H5057 H 0.38896 0.22472 0.69842 0.0
H5058 H 0.4282 0.19993 0.71338 0.0
H5059 H 0.42093 0.20031 0.72629 0.0
H5060 H 0.41767 0.18948 0.71643 0.0
H5061 H 0.39845 0.24105 0.70341 0.0
H5062 H 0.40597 0.23985 0.7164 0.0
H5063 H 0.4134 0.23972 0.70357 0.0
H5064 H 0.43049 0.23432 0.74281 0.0
H5065 H 0.44843 0.23373 0.71202 0.0
H5066 H 0.40981 0.2141 0.73569 0.0
H5067 H 0.40475 0.22776 0.73305 0.0
H5068 H 0.41325 0.22519 0.7452 0.0
H5069 H 0.43141 0.21358 0.69853 0.0
H5070 H 0.44147 0.22465 0.69616 0.0
H5071 H 0.42675 0.22712 0.69473 0.0
C5072 C 0.72618 0.70396 0.12884 0.0
C5073 C 0.71492 0.70088 0.13013 0.0
C5074 C 0.7298 0.71014 0.11953 0.0
C5075 C 0.72198 0.71336 0.11128 0.0
C5076 C 0.71061 0.71024 0.11249 0.0
C5077 C 0.70722 0.70405 0.12189 0.0
C5078 C 0.74198 0.71335 0.1186 0.0
C5079 C 0.70202 0.71349 0.10387 0.0
C5080 C 0.72949 0.73844 0.09319 0.0
C5081 C 0.73315 0.73347 0.08336 0.0
C5082 C 0.72573 0.732 0.10226 0.0
C5083 C 0.72567 0.72026 0.10156 0.0
C5084 C 0.7293 0.71517 0.09166 0.0
C5085 C 0.733 0.72183 0.08269 0.0
C5086 C 0.72197 0.73777 0.11265 0.0
C5087 C 0.72935 0.70269 0.09059 0.0
H5088 H 0.73217 0.70168 0.13523 0.0
H5089 H 0.69853 0.70159 0.12273 0.0
H5090 H 0.74538 0.71028 0.11065 0.0
H5091 H 0.74296 0.72253 0.11851 0.0
H5092 H 0.74705 0.70996 0.12558 0.0
H5093 H 0.69355 0.71024 0.10592 0.0
H5094 H 0.7017 0.72267 0.10317 0.0
H5095 H 0.70439 0.71031 0.09559 0.0
H5096 H 0.72976 0.74741 0.09389 0.0
H5097 H 0.73571 0.71791 0.07511 0.0
H5098 H 0.72733 0.73535 0.1198 0.0
H5099 H 0.71331 0.73513 0.11469 0.0
H5100 H 0.72227 0.74696 0.11177 0.0
H5101 H 0.73486 0.69906 0.09707 0.0
H5102 H 0.73227 0.70002 0.08229 0.0
H5103 H 0.72084 0.69921 0.09195 0.0
C5104 C 0.3104 0.6902 0.11897 0.0
C5105 C 0.31242 0.69558 0.12912 0.0
C5106 C 0.30676 0.69611 0.10953 0.0
C5107 C 0.30506 0.7077 0.11024 0.0
C5108 C 0.30724 0.71321 0.12042 0.0
C5109 C 0.3109 0.70709 0.12972 0.0
C5110 C 0.30459 0.68994 0.09882 0.0
C5111 C 0.30549 0.72554 0.12155 0.0
C5112 C 0.30379 0.72544 0.08388 0.0
C5113 C 0.29226 0.7267 0.08243 0.0
C5114 C 0.30808 0.71915 0.09279 0.0
C5115 C 0.30067 0.71401 0.10047 0.0
C5116 C 0.28903 0.7151 0.09895 0.0
C5117 C 0.28497 0.72142 0.08997 0.0
C5118 C 0.32055 0.71812 0.09408 0.0
C5119 C 0.28084 0.70979 0.10696 0.0
H5120 H 0.3117 0.68133 0.1184 0.0
H5121 H 0.31232 0.7113 0.13756 0.0
H5122 H 0.29568 0.6906 0.09641 0.0
H5123 H 0.30958 0.69374 0.09199 0.0
H5124 H 0.30667 0.681 0.09953 0.0
H5125 H 0.30789 0.72864 0.12993 0.0
H5126 H 0.31045 0.73017 0.11522 0.0
H5127 H 0.29659 0.72744 0.12 0.0
H5128 H 0.30947 0.7294 0.07804 0.0
H5129 H 0.27606 0.72249 0.08903 0.0
H5130 H 0.32284 0.70923 0.09432 0.0
H5131 H 0.32331 0.72181 0.10209 0.0
H5132 H 0.32517 0.72232 0.08722 0.0
H5133 H 0.28222 0.70072 0.10754 0.0
H5134 H 0.27204 0.71117 0.10444 0.0
H5135 H 0.28218 0.71324 0.11541 0.0
C5136 C 0.29796 0.31889 0.12863 0.0
C5137 C 0.30944 0.32011 0.13073 0.0
C5138 C 0.29393 0.31342 0.1191 0.0
C5139 C 0.30156 0.30901 0.11143 0.0
C5140 C 0.31316 0.31015 0.1135 0.0
C5141 C 0.31696 0.31567 0.12312 0.0
C5142 C 0.2815 0.31235 0.11724 0.0
C5143 C 0.32155 0.30556 0.10554 0.0
C5144 C 0.29005 0.28635 0.09242 0.0
C5145 C 0.28757 0.29234 0.08266 0.0
C5146 C 0.2949 0.2916 0.10172 0.0
C5147 C 0.29732 0.30316 0.10129 0.0
C5148 C 0.29512 0.3092 0.09137 0.0
C5149 C 0.29028 0.30373 0.08219 0.0
C5150 C 0.2971 0.28484 0.11213 0.0
C5151 C 0.2976 0.32152 0.09056 0.0
H5152 H 0.29207 0.32212 0.13454 0.0
H5153 H 0.32584 0.31668 0.1246 0.0
H5154 H 0.27917 0.31627 0.10918 0.0
H5155 H 0.27899 0.30345 0.11679 0.0
H5156 H 0.27668 0.31629 0.12396 0.0
H5157 H 0.33028 0.30707 0.10837 0.0
H5158 H 0.32016 0.29648 0.10458 0.0
H5159 H 0.32046 0.30942 0.09719 0.0
H5160 H 0.28784 0.2776 0.09296 0.0
H5161 H 0.28853 0.30841 0.07464 0.0
H5162 H 0.29173 0.28775 0.11895 0.0
H5163 H 0.30588 0.28602 0.11488 0.0
H5164 H 0.29544 0.27583 0.11088 0.0
H5165 H 0.29238 0.32601 0.09657 0.0
H5166 H 0.29598 0.3249 0.08209 0.0
H5167 H 0.30644 0.32328 0.09281 0.0
C5168 C 0.71729 0.30126 0.13069 0.0
C5169 C 0.71349 0.31218 0.12966 0.0
C5170 C 0.72077 0.29534 0.12135 0.0
C5171 C 0.72052 0.30049 0.1107 0.0
C5172 C 0.71661 0.31148 0.10959 0.0
C5173 C 0.71311 0.31718 0.11907 0.0
C5174 C 0.72478 0.2836 0.12288 0.0
C5175 C 0.71631 0.31729 0.09841 0.0
C5176 C 0.73982 0.2888 0.0889 0.0
C5177 C 0.73252 0.28205 0.08261 0.0
C5178 C 0.73598 0.29502 0.09789 0.0
C5179 C 0.72457 0.29442 0.10078 0.0
C5180 C 0.71711 0.28778 0.09438 0.0
C5181 C 0.72116 0.28172 0.08536 0.0
C5182 C 0.7442 0.30203 0.10447 0.0
C5183 C 0.70488 0.28691 0.0972 0.0
H5184 H 0.71747 0.2973 0.13883 0.0
H5185 H 0.71031 0.32566 0.11823 0.0
H5186 H 0.71977 0.27786 0.11758 0.0
H5187 H 0.73357 0.28307 0.12018 0.0
H5188 H 0.72421 0.28071 0.13166 0.0
H5189 H 0.71281 0.32575 0.09891 0.0
H5190 H 0.72486 0.31798 0.09499 0.0
H5191 H 0.71122 0.31235 0.09243 0.0
H5192 H 0.74864 0.289 0.08699 0.0
H5193 H 0.71542 0.27666 0.08048 0.0
H5194 H 0.74474 0.29884 0.11315 0.0
H5195 H 0.74132 0.31073 0.10487 0.0
H5196 H 0.75268 0.30205 0.10082 0.0
H5197 H 0.70387 0.28337 0.10569 0.0
H5198 H 0.70012 0.2816 0.09124 0.0
H5199 H 0.70118 0.29529 0.0972 0.0
C5200 C 0.72467 0.31748 0.8951 0.0
C5201 C 0.71332 0.31626 0.89237 0.0
C5202 C 0.72926 0.31204 0.9044 0.0
C5203 C 0.72233 0.30527 0.91124 0.0
C5204 C 0.71085 0.3041 0.90863 0.0
C5205 C 0.70648 0.30958 0.89922 0.0
C5206 C 0.74156 0.3135 0.90687 0.0
C5207 C 0.70318 0.29698 0.91573 0.0
C5208 C 0.73695 0.28329 0.92863 0.0
C5209 C 0.73808 0.28855 0.93897 0.0
C5210 C 0.7316 0.28853 0.91962 0.0
C5211 C 0.72722 0.29927 0.92098 0.0
C5212 C 0.72804 0.3045 0.93148 0.0
C5213 C 0.7335 0.29909 0.94034 0.0
C5214 C 0.73098 0.2827 0.90855 0.0
C5215 C 0.72338 0.3159 0.93329 0.0
H5216 H 0.72999 0.32278 0.89001 0.0
H5217 H 0.69774 0.30848 0.89712 0.0
H5218 H 0.74279 0.31702 0.9153 0.0
H5219 H 0.74565 0.3053 0.90681 0.0
H5220 H 0.74581 0.31906 0.90074 0.0
H5221 H 0.69439 0.29722 0.9128 0.0
H5222 H 0.70595 0.28823 0.91566 0.0
H5223 H 0.70357 0.2998 0.9245 0.0
H5224 H 0.7406 0.27522 0.92746 0.0
H5225 H 0.73424 0.30315 0.94833 0.0
H5226 H 0.73587 0.2875 0.90229 0.0
H5227 H 0.72223 0.28228 0.90551 0.0
H5228 H 0.73425 0.27413 0.90902 0.0
H5229 H 0.72789 0.32208 0.92801 0.0
H5230 H 0.7241 0.31854 0.94211 0.0
H5231 H 0.71447 0.31604 0.93076 0.0
C5232 C 0.69757 0.70792 0.90389 0.0
C5233 C 0.70295 0.70641 0.89369 0.0
C5234 C 0.70336 0.7122 0.91317 0.0
C5235 C 0.71481 0.71508 0.91224 0.0
C5236 C 0.72031 0.71348 0.90201 0.0
C5237 C 0.71433 0.70916 0.89287 0.0
C5238 C 0.6972 0.71371 0.92395 0.0
C5239 C 0.7325 0.71649 0.90065 0.0
C5240 C 0.72781 0.73609 0.93222 0.0
C5241 C 0.73372 0.72923 0.9396 0.0
C5242 C 0.72149 0.73159 0.9234 0.0
C5243 C 0.72102 0.71993 0.92192 0.0
C5244 C 0.72674 0.71294 0.92949 0.0
C5245 C 0.73303 0.71767 0.93822 0.0
C5246 C 0.71553 0.73934 0.9155 0.0
C5247 C 0.72638 0.70046 0.92826 0.0
H5248 H 0.68881 0.70569 0.90464 0.0
H5249 H 0.71852 0.70816 0.88499 0.0
H5250 H 0.70134 0.70901 0.93074 0.0
H5251 H 0.69743 0.7226 0.92631 0.0
H5252 H 0.68835 0.71087 0.92337 0.0
H5253 H 0.73561 0.71456 0.89221 0.0
H5254 H 0.73386 0.72549 0.90219 0.0
H5255 H 0.73757 0.71191 0.90688 0.0
H5256 H 0.72842 0.74503 0.93311 0.0
H5257 H 0.73747 0.7123 0.94396 0.0
H5258 H 0.70654 0.73708 0.91504 0.0
H5259 H 0.71896 0.73851 0.907 0.0
H5260 H 0.71638 0.74817 0.91803 0.0
H5261 H 0.71762 0.69738 0.92813 0.0
H5262 H 0.73092 0.69616 0.93509 0.0
H5263 H 0.73015 0.69815 0.92022 0.0
C5264 C 0.31714 0.69335 0.90237 0.0
C5265 C 0.31823 0.70042 0.89308 0.0
C5266 C 0.31131 0.69668 0.91187 0.0
C5267 C 0.30642 0.7073 0.91205 0.0
C5268 C 0.30741 0.71442 0.90265 0.0
C5269 C 0.31331 0.71091 0.89331 0.0
C5270 C 0.31048 0.68887 0.92173 0.0
C5271 C 0.30224 0.72577 0.90246 0.0
C5272 C 0.28269 0.71328 0.93181 0.0
C5273 C 0.28811 0.71963 0.94004 0.0
C5274 C 0.28859 0.70896 0.92282 0.0
C5275 C 0.30021 0.71101 0.92202 0.0
C5276 C 0.3058 0.71713 0.93048 0.0
C5277 C 0.29967 0.72139 0.93936 0.0
C5278 C 0.28231 0.70254 0.91396 0.0
C5279 C 0.31819 0.71943 0.92998 0.0
H5280 H 0.32101 0.68529 0.9023 0.0
H5281 H 0.31399 0.71635 0.8861 0.0
H5282 H 0.31429 0.69284 0.92918 0.0
H5283 H 0.3016 0.68709 0.92368 0.0
H5284 H 0.31469 0.68088 0.92026 0.0
H5285 H 0.30372 0.73027 0.89449 0.0
H5286 H 0.29311 0.72496 0.90377 0.0
H5287 H 0.30571 0.73087 0.90936 0.0
H5288 H 0.27373 0.71201 0.93218 0.0
H5289 H 0.30394 0.72619 0.94575 0.0
H5290 H 0.28623 0.69438 0.91265 0.0
H5291 H 0.28271 0.70716 0.90594 0.0
H5292 H 0.27341 0.7011 0.91613 0.0
H5293 H 0.32273 0.71154 0.92904 0.0
H5294 H 0.32139 0.72373 0.93754 0.0
H5295 H 0.32014 0.72469 0.9226 0.0
C5296 C 0.31534 0.30392 0.89137 0.0
C5297 C 0.31447 0.31552 0.89056 0.0
C5298 C 0.31132 0.29805 0.90072 0.0
C5299 C 0.30626 0.30389 0.90948 0.0
C5300 C 0.30554 0.3156 0.90881 0.0
C5301 C 0.30966 0.32127 0.89939 0.0
C5302 C 0.31225 0.28556 0.90111 0.0
C5303 C 0.30023 0.32215 0.91797 0.0
C5304 C 0.28554 0.28801 0.9277 0.0
C5305 C 0.29194 0.28568 0.93725 0.0
C5306 C 0.29008 0.29398 0.91867 0.0
C5307 C 0.30133 0.2977 0.91913 0.0
C5308 C 0.30784 0.29545 0.92875 0.0
C5309 C 0.30307 0.28948 0.93769 0.0
C5310 C 0.28285 0.2962 0.90858 0.0
C5311 C 0.31986 0.29929 0.92956 0.0
H5312 H 0.31892 0.29938 0.88456 0.0
H5313 H 0.30911 0.33024 0.89893 0.0
H5314 H 0.31656 0.28294 0.90887 0.0
H5315 H 0.3038 0.28166 0.90119 0.0
H5316 H 0.31686 0.28231 0.89388 0.0
H5317 H 0.30066 0.33125 0.91637 0.0
H5318 H 0.29136 0.31957 0.91883 0.0
H5319 H 0.30442 0.32038 0.92604 0.0
H5320 H 0.27701 0.28494 0.92717 0.0
H5321 H 0.30805 0.28784 0.94506 0.0
H5322 H 0.28651 0.29231 0.90114 0.0
H5323 H 0.28251 0.30527 0.90691 0.0
H5324 H 0.2742 0.29293 0.90962 0.0
H5325 H 0.32472 0.29563 0.92272 0.0
H5326 H 0.32377 0.29693 0.93763 0.0
H5327 H 0.32044 0.30845 0.92857 0.0
C5328 C 0.62096 0.70837 0.1998 0.0
C5329 C 0.63054 0.70522 0.20574 0.0
C5330 C 0.61171 0.71274 0.20526 0.0
C5331 C 0.612 0.71397 0.21697 0.0
C5332 C 0.62148 0.71044 0.22306 0.0
C5333 C 0.63063 0.70613 0.21738 0.0
C5334 C 0.60178 0.71637 0.19845 0.0
C5335 C 0.62211 0.71159 0.23555 0.0
C5336 C 0.59429 0.7367 0.22911 0.0
C5337 C 0.58493 0.73072 0.23302 0.0
C5338 C 0.60313 0.73133 0.22395 0.0
C5339 C 0.60272 0.71965 0.22271 0.0
C5340 C 0.59339 0.71351 0.22676 0.0
C5341 C 0.5846 0.71912 0.23185 0.0
C5342 C 0.61291 0.73821 0.21976 0.0
C5343 C 0.59267 0.70104 0.22565 0.0
H5344 H 0.62071 0.70751 0.19083 0.0
H5345 H 0.63801 0.70381 0.22204 0.0
H5346 H 0.59403 0.71239 0.20169 0.0
H5347 H 0.60083 0.72549 0.19914 0.0
H5348 H 0.60258 0.71427 0.18951 0.0
H5349 H 0.62965 0.70766 0.23915 0.0
H5350 H 0.62227 0.72052 0.23778 0.0
H5351 H 0.61462 0.70775 0.23946 0.0
H5352 H 0.59477 0.74562 0.2302 0.0
H5353 H 0.5774 0.71442 0.23477 0.0
H5354 H 0.61384 0.73706 0.21066 0.0
H5355 H 0.62073 0.73539 0.22379 0.0
H5356 H 0.61198 0.74721 0.2214 0.0
H5357 H 0.59272 0.69876 0.21672 0.0
H5358 H 0.58502 0.69744 0.22952 0.0
H5359 H 0.60006 0.69719 0.22961 0.0
C5360 C 0.31804 0.61197 0.222 0.0
C5361 C 0.31316 0.6209 0.2163 0.0
C5362 C 0.31151 0.60321 0.22638 0.0
C5363 C 0.29978 0.60332 0.225 0.0
C5364 C 0.2948 0.61218 0.21906 0.0
C5365 C 0.30154 0.62086 0.2148 0.0
C5366 C 0.31714 0.59391 0.23265 0.0
C5367 C 0.28233 0.61261 0.21741 0.0
C5368 C 0.28319 0.57633 0.2292 0.0
C5369 C 0.27919 0.57756 0.24006 0.0
C5370 C 0.2899 0.58464 0.22418 0.0
C5371 C 0.29269 0.5944 0.23017 0.0
C5372 C 0.28871 0.59567 0.24114 0.0
C5373 C 0.282 0.58727 0.24593 0.0
C5374 C 0.29398 0.58298 0.21247 0.0
C5375 C 0.29149 0.60594 0.24781 0.0
H5376 H 0.32702 0.61183 0.22304 0.0
H5377 H 0.29767 0.62777 0.21052 0.0
H5378 H 0.31423 0.59368 0.24139 0.0
H5379 H 0.31485 0.58579 0.22889 0.0
H5380 H 0.32637 0.59486 0.23268 0.0
H5381 H 0.27981 0.61979 0.21215 0.0
H5382 H 0.27922 0.60484 0.21346 0.0
H5383 H 0.27819 0.61322 0.2256 0.0
H5384 H 0.28116 0.56883 0.22464 0.0
H5385 H 0.27878 0.58841 0.25423 0.0
H5386 H 0.30322 0.58325 0.21235 0.0
H5387 H 0.29105 0.58982 0.207 0.0
H5388 H 0.29104 0.57495 0.20892 0.0
H5389 H 0.30066 0.607 0.24861 0.0
H5390 H 0.28784 0.6056 0.25628 0.0
H5391 H 0.28833 0.61341 0.24341 0.0
C5392 C 0.39387 0.3123 0.22091 0.0
C5393 C 0.39401 0.31247 0.20923 0.0
C5394 C 0.403 0.30841 0.22712 0.0
C5395 C 0.41253 0.30457 0.22154 0.0
C5396 C 0.4128 0.30486 0.20976 0.0
C5397 C 0.40356 0.30882 0.20376 0.0
C5398 C 0.40237 0.30822 0.23967 0.0
C5399 C 0.42281 0.30088 0.20348 0.0
C5400 C 0.43973 0.30246 0.23797 0.0
C5401 C 0.43984 0.29113 0.24081 0.0
C5402 C 0.43096 0.30694 0.23163 0.0
C5403 C 0.42207 0.29992 0.22801 0.0
C5404 C 0.42221 0.28845 0.23072 0.0
C5405 C 0.43106 0.28421 0.23708 0.0
C5406 C 0.43114 0.31921 0.22889 0.0
C5407 C 0.4129 0.28068 0.22704 0.0
H5408 H 0.3865 0.31498 0.22522 0.0
H5409 H 0.40383 0.30908 0.19475 0.0
H5410 H 0.40288 0.29953 0.24278 0.0
H5411 H 0.40956 0.31291 0.24328 0.0
H5412 H 0.39455 0.31185 0.24276 0.0
H5413 H 0.42183 0.30192 0.19433 0.0
H5414 H 0.43041 0.3055 0.2062 0.0
H5415 H 0.42415 0.29196 0.20536 0.0
H5416 H 0.44652 0.30786 0.24071 0.0
H5417 H 0.43094 0.27548 0.23939 0.0
H5418 H 0.42372 0.32317 0.23248 0.0
H5419 H 0.43072 0.32048 0.21975 0.0
H5420 H 0.43875 0.32351 0.23215 0.0
H5421 H 0.40491 0.28331 0.23067 0.0
H5422 H 0.41439 0.27193 0.22957 0.0
H5423 H 0.41194 0.28104 0.21785 0.0
C5424 C 0.7184 0.38945 0.22538 0.0
C5425 C 0.71282 0.39051 0.21514 0.0
C5426 C 0.72402 0.39856 0.23022 0.0
C5427 C 0.72413 0.40899 0.22467 0.0
C5428 C 0.71871 0.41005 0.21421 0.0
C5429 C 0.71308 0.40082 0.20959 0.0
C5430 C 0.72962 0.39708 0.24142 0.0
C5431 C 0.71874 0.42099 0.20796 0.0
C5432 C 0.7287 0.43435 0.24292 0.0
C5433 C 0.74017 0.4365 0.24169 0.0
C5434 C 0.72334 0.42559 0.23723 0.0
C5435 C 0.72956 0.41884 0.23004 0.0
C5436 C 0.74104 0.42122 0.22843 0.0
C5437 C 0.74621 0.42999 0.23429 0.0
C5438 C 0.71108 0.42337 0.23917 0.0
C5439 C 0.74795 0.41426 0.22079 0.0
H5440 H 0.71812 0.38156 0.22979 0.0
H5441 H 0.70889 0.40166 0.20162 0.0
H5442 H 0.73854 0.39962 0.24092 0.0
H5443 H 0.72568 0.40252 0.24762 0.0
H5444 H 0.72908 0.38836 0.24449 0.0
H5445 H 0.71457 0.42033 0.1997 0.0
H5446 H 0.71441 0.42732 0.21291 0.0
H5447 H 0.72743 0.42404 0.20673 0.0
H5448 H 0.72391 0.43944 0.24846 0.0
H5449 H 0.75509 0.43149 0.23336 0.0
H5450 H 0.70988 0.41503 0.24304 0.0
H5451 H 0.70648 0.42333 0.23113 0.0
H5452 H 0.70734 0.42964 0.24467 0.0
H5453 H 0.74849 0.40569 0.22419 0.0
H5454 H 0.75654 0.4177 0.21978 0.0
H5455 H 0.74392 0.41368 0.21247 0.0
C5456 C 0.61682 0.30588 0.81874 0.0
C5457 C 0.62696 0.309 0.81374 0.0
C5458 C 0.60791 0.30152 0.81239 0.0
C5459 C 0.60915 0.30024 0.80077 0.0
C5460 C 0.61927 0.30358 0.79564 0.0
C5461 C 0.62805 0.30791 0.80218 0.0
C5462 C 0.59724 0.29811 0.81817 0.0
C5463 C 0.62093 0.30232 0.78327 0.0
C5464 C 0.59137 0.27842 0.78593 0.0
C5465 C 0.58319 0.28489 0.78073 0.0
C5466 C 0.59977 0.2833 0.79257 0.0
C5467 C 0.60004 0.29496 0.79403 0.0
C5468 C 0.59176 0.30155 0.78891 0.0
C5469 C 0.58343 0.29644 0.78232 0.0
C5470 C 0.60846 0.27598 0.79786 0.0
C5471 C 0.59175 0.314 0.7903 0.0
H5472 H 0.61586 0.30684 0.82764 0.0
H5473 H 0.63588 0.31017 0.79827 0.0
H5474 H 0.59006 0.30236 0.81425 0.0
H5475 H 0.59575 0.28904 0.81722 0.0
H5476 H 0.59744 0.30007 0.82718 0.0
H5477 H 0.62911 0.30577 0.78049 0.0
H5478 H 0.62044 0.2934 0.78105 0.0
H5479 H 0.61421 0.30658 0.77861 0.0
H5480 H 0.59138 0.26953 0.7846 0.0
H5481 H 0.57708 0.30149 0.77843 0.0
H5482 H 0.60862 0.27717 0.80701 0.0
H5483 H 0.61684 0.27836 0.7947 0.0
H5484 H 0.60691 0.26703 0.79614 0.0
H5485 H 0.59143 0.3161 0.79926 0.0
H5486 H 0.5846 0.31791 0.78596 0.0
H5487 H 0.5996 0.31769 0.78697 0.0
C5488 C 0.7032 0.61523 0.81164 0.0
C5489 C 0.71064 0.6229 0.81656 0.0
C5490 C 0.70708 0.60624 0.80545 0.0
C5491 C 0.7187 0.60488 0.80411 0.0
C5492 C 0.72625 0.61255 0.8091 0.0
C5493 C 0.72214 0.62145 0.81525 0.0
C5494 C 0.69876 0.59824 0.80027 0.0
C5495 C 0.7387 0.61144 0.80783 0.0
C5496 C 0.73004 0.57684 0.79552 0.0
C5497 C 0.73192 0.57853 0.78411 0.0
C5498 C 0.72559 0.58528 0.80211 0.0
C5499 C 0.72298 0.59566 0.79719 0.0
C5500 C 0.72475 0.59736 0.78566 0.0
C5501 C 0.72921 0.58881 0.77929 0.0
C5502 C 0.7238 0.58313 0.81437 0.0
C5503 C 0.72213 0.60831 0.78008 0.0
H5504 H 0.69431 0.6162 0.81272 0.0
H5505 H 0.72796 0.62741 0.81887 0.0
H5506 H 0.69968 0.59834 0.79109 0.0
H5507 H 0.70039 0.58965 0.80319 0.0
H5508 H 0.69002 0.6003 0.80229 0.0
H5509 H 0.74346 0.61791 0.81249 0.0
H5510 H 0.74133 0.60314 0.81084 0.0
H5511 H 0.74094 0.61209 0.79891 0.0
H5512 H 0.732 0.5689 0.79931 0.0
H5513 H 0.73082 0.59029 0.77053 0.0
H5514 H 0.71496 0.58454 0.81652 0.0
H5515 H 0.72897 0.58903 0.81933 0.0
H5516 H 0.72597 0.57452 0.81687 0.0
H5517 H 0.71328 0.61041 0.78148 0.0
H5518 H 0.72365 0.60819 0.77097 0.0
H5519 H 0.72733 0.61505 0.78379 0.0
C5520 C 0.40522 0.69828 0.81254 0.0
C5521 C 0.3947 0.69897 0.80742 0.0
C5522 C 0.41441 0.70442 0.80845 0.0
C5523 C 0.41308 0.71133 0.79895 0.0
C5524 C 0.40249 0.712 0.79371 0.0
C5525 C 0.39343 0.70585 0.79803 0.0
C5526 C 0.42552 0.70358 0.81434 0.0
C5527 C 0.40074 0.71918 0.78349 0.0
C5528 C 0.43327 0.73541 0.79331 0.0
C5529 C 0.4401 0.73106 0.78502 0.0
C5530 C 0.42465 0.72899 0.79812 0.0
C5531 C 0.42271 0.71796 0.7945 0.0
C5532 C 0.42968 0.71343 0.7863 0.0
C5533 C 0.43831 0.72001 0.78171 0.0
C5534 C 0.41745 0.73411 0.80689 0.0
C5535 C 0.42787 0.70171 0.78219 0.0
H5536 H 0.40622 0.69305 0.81986 0.0
H5537 H 0.38537 0.7063 0.79394 0.0
H5538 H 0.43192 0.70066 0.80849 0.0
H5539 H 0.42829 0.71191 0.81728 0.0
H5540 H 0.42519 0.69781 0.8216 0.0
H5541 H 0.39202 0.71869 0.78033 0.0
H5542 H 0.40283 0.72797 0.78542 0.0
H5543 H 0.40641 0.71659 0.77677 0.0
H5544 H 0.43443 0.74398 0.79583 0.0
H5545 H 0.44363 0.7165 0.77544 0.0
H5546 H 0.41719 0.72874 0.81443 0.0
H5547 H 0.40877 0.73476 0.80372 0.0
H5548 H 0.42048 0.74253 0.8093 0.0
H5549 H 0.4281 0.69576 0.78929 0.0
H5550 H 0.43423 0.6993 0.77604 0.0
H5551 H 0.4195 0.70091 0.77825 0.0
C5552 C 0.3185 0.39019 0.7907 0.0
C5553 C 0.32044 0.38925 0.80221 0.0
C5554 C 0.3127 0.39922 0.78617 0.0
C5555 C 0.30868 0.40753 0.7933 0.0
C5556 C 0.31051 0.40659 0.80493 0.0
C5557 C 0.31635 0.39746 0.80925 0.0
C5558 C 0.31088 0.39986 0.77373 0.0
C5559 C 0.30636 0.41528 0.81281 0.0
C5560 C 0.30292 0.43546 0.77953 0.0
C5561 C 0.29139 0.43471 0.77754 0.0
C5562 C 0.3086 0.42683 0.78497 0.0
C5563 C 0.30262 0.4172 0.78851 0.0
C5564 C 0.29093 0.41655 0.78686 0.0
C5565 C 0.28547 0.42529 0.78139 0.0
C5566 C 0.32106 0.42788 0.7866 0.0
C5567 C 0.28424 0.40644 0.79051 0.0
H5568 H 0.32145 0.3838 0.78521 0.0
H5569 H 0.3179 0.39686 0.81813 0.0
H5570 H 0.30183 0.4001 0.77181 0.0
H5571 H 0.31471 0.40763 0.77038 0.0
H5572 H 0.3145 0.3927 0.76934 0.0
H5573 H 0.3083 0.41325 0.82164 0.0
H5574 H 0.31021 0.42348 0.81073 0.0
H5575 H 0.29721 0.41612 0.81187 0.0
H5576 H 0.30754 0.44277 0.77672 0.0
H5577 H 0.27659 0.42454 0.77976 0.0
H5578 H 0.32526 0.42143 0.78169 0.0
H5579 H 0.32328 0.42646 0.79548 0.0
H5580 H 0.32438 0.43617 0.784 0.0
H5581 H 0.28677 0.39913 0.78562 0.0
H5582 H 0.27513 0.40756 0.78937 0.0
H5583 H 0.28594 0.40452 0.7994 0.0
C5584 C 0.72145 0.62359 0.21433 0.0
C5585 C 0.70978 0.62357 0.21514 0.0
C5586 C 0.72769 0.61465 0.21844 0.0
C5587 C 0.72216 0.60544 0.2235 0.0
C5588 C 0.71038 0.6053 0.22421 0.0
C5589 C 0.70435 0.61434 0.22001 0.0
C5590 C 0.74024 0.61513 0.21752 0.0
C5591 C 0.70416 0.59564 0.22952 0.0
C5592 C 0.73779 0.57827 0.2264 0.0
C5593 C 0.74156 0.5787 0.23749 0.0
C5594 C 0.73141 0.58686 0.22176 0.0
C5595 C 0.72871 0.59612 0.22835 0.0
C5596 C 0.73236 0.59655 0.23957 0.0
C5597 C 0.73874 0.58786 0.24399 0.0
C5598 C 0.72766 0.58608 0.20977 0.0
C5599 C 0.72967 0.60627 0.24688 0.0
H5600 H 0.72574 0.63073 0.2107 0.0
H5601 H 0.69533 0.61415 0.22052 0.0
H5602 H 0.74405 0.61505 0.22596 0.0
H5603 H 0.74322 0.6077 0.21312 0.0
H5604 H 0.74325 0.62269 0.21302 0.0
H5605 H 0.69498 0.59667 0.22919 0.0
H5606 H 0.70623 0.5878 0.22528 0.0
H5607 H 0.70676 0.59475 0.23836 0.0
H5608 H 0.73982 0.57118 0.22134 0.0
H5609 H 0.74177 0.58839 0.25249 0.0
H5610 H 0.73112 0.59322 0.20494 0.0
H5611 H 0.71844 0.58653 0.20922 0.0
H5612 H 0.73032 0.57826 0.2058 0.0
H5613 H 0.73331 0.61403 0.2433 0.0
H5614 H 0.7329 0.60522 0.25551 0.0
H5615 H 0.72051 0.60733 0.24723 0.0
C5616 C 0.70015 0.40318 0.80713 0.0
C5617 C 0.70512 0.39283 0.80888 0.0
C5618 C 0.70636 0.41236 0.80314 0.0
C5619 C 0.71783 0.41117 0.80081 0.0
C5620 C 0.72292 0.40078 0.80264 0.0
C5621 C 0.71651 0.39175 0.80667 0.0
C5622 C 0.70065 0.42331 0.80136 0.0
C5623 C 0.73511 0.39915 0.80021 0.0
C5624 C 0.73207 0.4311 0.78046 0.0
C5625 C 0.73808 0.43817 0.78764 0.0
C5626 C 0.7253 0.4224 0.78463 0.0
C5627 C 0.72449 0.42073 0.79628 0.0
C5628 C 0.73033 0.42799 0.80359 0.0
C5629 C 0.73705 0.43661 0.79918 0.0
C5630 C 0.71924 0.41483 0.77657 0.0
C5631 C 0.72962 0.42654 0.81606 0.0
H5632 H 0.69138 0.40412 0.80896 0.0
H5633 H 0.72038 0.38375 0.80786 0.0
H5634 H 0.70493 0.42989 0.8063 0.0
H5635 H 0.70119 0.42584 0.79248 0.0
H5636 H 0.69173 0.42292 0.80376 0.0
H5637 H 0.73784 0.3906 0.80225 0.0
H5638 H 0.73673 0.40083 0.79127 0.0
H5639 H 0.74029 0.40513 0.80506 0.0
H5640 H 0.73293 0.43214 0.77153 0.0
H5641 H 0.74157 0.44211 0.80478 0.0
H5642 H 0.71019 0.41458 0.7784 0.0
H5643 H 0.72232 0.40623 0.77754 0.0
H5644 H 0.7204 0.4175 0.76777 0.0
H5645 H 0.72079 0.4266 0.81872 0.0
H5646 H 0.73431 0.43315 0.8206 0.0
H5647 H 0.73303 0.41836 0.81853 0.0
C5648 C 0.62723 0.70125 0.79396 0.0
C5649 C 0.62691 0.69782 0.80515 0.0
C5650 C 0.61807 0.7064 0.78888 0.0
C5651 C 0.60832 0.70822 0.79513 0.0
C5652 C 0.60793 0.70479 0.80643 0.0
C5653 C 0.61721 0.69961 0.8113 0.0
C5654 C 0.61881 0.70985 0.77679 0.0
C5655 C 0.59772 0.70666 0.81341 0.0
C5656 C 0.58908 0.73065 0.78411 0.0
C5657 C 0.58087 0.72438 0.77845 0.0
C5658 C 0.59787 0.72549 0.78982 0.0
C5659 C 0.59857 0.71376 0.78981 0.0
C5660 C 0.59021 0.70736 0.78432 0.0
C5661 C 0.58145 0.71274 0.77875 0.0
C5662 C 0.60659 0.73261 0.7956 0.0
C5663 C 0.59066 0.69484 0.78411 0.0
H5664 H 0.63462 0.69974 0.7891 0.0
H5665 H 0.61693 0.69709 0.81997 0.0
H5666 H 0.6121 0.70564 0.77192 0.0
H5667 H 0.61755 0.71893 0.77594 0.0
H5668 H 0.62697 0.70781 0.77308 0.0
H5669 H 0.59872 0.70348 0.82205 0.0
H5670 H 0.59595 0.71567 0.81372 0.0
H5671 H 0.59035 0.70249 0.80956 0.0
H5672 H 0.58884 0.73964 0.7838 0.0
H5673 H 0.57508 0.7078 0.77456 0.0
H5674 H 0.61477 0.73162 0.79152 0.0
H5675 H 0.60757 0.7299 0.8044 0.0
H5676 H 0.60447 0.74156 0.79544 0.0
H5677 H 0.59832 0.69224 0.77979 0.0
H5678 H 0.58331 0.69105 0.77981 0.0
H5679 H 0.59108 0.69146 0.79272 0.0
C5680 C 0.31558 0.61033 0.81137 0.0
C5681 C 0.30912 0.61971 0.81337 0.0
C5682 C 0.3113 0.60136 0.80516 0.0
C5683 C 0.30027 0.60172 0.8009 0.0
C5684 C 0.29365 0.61108 0.80306 0.0
C5685 C 0.29816 0.61995 0.80923 0.0
C5686 C 0.31866 0.59158 0.80296 0.0
C5687 C 0.28183 0.61176 0.79875 0.0
C5688 C 0.29231 0.5847 0.77546 0.0
C5689 C 0.28653 0.57559 0.78018 0.0
C5690 C 0.29699 0.59312 0.78212 0.0
C5691 C 0.29577 0.59254 0.79382 0.0
C5692 C 0.29001 0.58336 0.79867 0.0
C5693 C 0.28549 0.57498 0.7918 0.0
C5694 C 0.30309 0.60275 0.7766 0.0
C5695 C 0.2885 0.58246 0.81111 0.0
H5696 H 0.32409 0.61013 0.81446 0.0
H5697 H 0.29306 0.62709 0.8109 0.0
H5698 H 0.31451 0.58377 0.80583 0.0
H5699 H 0.32002 0.59081 0.79388 0.0
H5700 H 0.3269 0.59238 0.80718 0.0
H5701 H 0.27765 0.61943 0.80147 0.0
H5702 H 0.28178 0.6116 0.78951 0.0
H5703 H 0.27687 0.60445 0.80167 0.0
H5704 H 0.29298 0.58541 0.76649 0.0
H5705 H 0.28116 0.56793 0.79555 0.0
H5706 H 0.31162 0.60364 0.78015 0.0
H5707 H 0.29869 0.61059 0.77826 0.0
H5708 H 0.30374 0.60172 0.76745 0.0
H5709 H 0.29674 0.58266 0.81536 0.0
H5710 H 0.28396 0.57472 0.8136 0.0
H5711 H 0.28379 0.58968 0.81411 0.0
C5712 C 0.39602 0.30451 0.80121 0.0
C5713 C 0.39734 0.30735 0.81245 0.0
C5714 C 0.40495 0.30043 0.79506 0.0
C5715 C 0.41551 0.29917 0.80024 0.0
C5716 C 0.41693 0.30211 0.81155 0.0
C5717 C 0.40784 0.30614 0.81752 0.0
C5718 C 0.40306 0.29735 0.78302 0.0
C5719 C 0.42806 0.30096 0.81736 0.0
C5720 C 0.43539 0.27896 0.78691 0.0
C5721 C 0.44221 0.28612 0.78054 0.0
C5722 C 0.42681 0.28311 0.79352 0.0
C5723 C 0.42501 0.29471 0.79381 0.0
C5724 C 0.43206 0.302 0.78765 0.0
C5725 C 0.44055 0.29762 0.78108 0.0
C5726 C 0.41946 0.27505 0.79994 0.0
C5727 C 0.43048 0.31441 0.78779 0.0
H5728 H 0.38791 0.30528 0.79727 0.0
H5729 H 0.40897 0.30844 0.82616 0.0
H5730 H 0.40887 0.30218 0.77762 0.0
H5731 H 0.40485 0.28842 0.78183 0.0
H5732 H 0.39439 0.2989 0.7802 0.0
H5733 H 0.42783 0.30371 0.82616 0.0
H5734 H 0.43068 0.29217 0.8172 0.0
H5735 H 0.43451 0.30595 0.81291 0.0
H5736 H 0.43651 0.27006 0.78643 0.0
H5737 H 0.44587 0.30321 0.77629 0.0
H5738 H 0.41076 0.27552 0.79679 0.0
H5739 H 0.41937 0.27731 0.80887 0.0
H5740 H 0.42226 0.26634 0.79923 0.0
H5741 H 0.42219 0.31643 0.78424 0.0
H5742 H 0.43698 0.31898 0.78296 0.0
H5743 H 0.43068 0.31745 0.79648 0.0
C5744 C 0.31115 0.40063 0.21208 0.0
C5745 C 0.31557 0.39243 0.21913 0.0
C5746 C 0.30521 0.40959 0.21638 0.0
C5747 C 0.30365 0.41039 0.22802 0.0
C5748 C 0.30801 0.40209 0.23517 0.0
C5749 C 0.31388 0.39322 0.23064 0.0
C5750 C 0.30068 0.41826 0.20849 0.0
C5751 C 0.30649 0.40257 0.24762 0.0
C5752 C 0.29752 0.43817 0.2414 0.0
C5753 C 0.28604 0.43717 0.24346 0.0
C5754 C 0.30331 0.42964 0.23614 0.0
C5755 C 0.29748 0.41987 0.2328 0.0
C5756 C 0.28585 0.41895 0.23455 0.0
C5757 C 0.28029 0.42757 0.23988 0.0
C5758 C 0.31571 0.43096 0.23442 0.0
C5759 C 0.27931 0.40869 0.23109 0.0
H5760 H 0.3125 0.40016 0.20319 0.0
H5761 H 0.3171 0.38684 0.23615 0.0
H5762 H 0.29153 0.41888 0.20951 0.0
H5763 H 0.30439 0.42652 0.21047 0.0
H5764 H 0.30245 0.41636 0.19965 0.0
H5765 H 0.31039 0.39547 0.25203 0.0
H5766 H 0.3102 0.41041 0.25088 0.0
H5767 H 0.29748 0.40257 0.24963 0.0
H5768 H 0.30203 0.4456 0.24398 0.0
H5769 H 0.27146 0.4266 0.24158 0.0
H5770 H 0.31777 0.42973 0.22554 0.0
H5771 H 0.32015 0.42452 0.2393 0.0
H5772 H 0.31893 0.43927 0.23701 0.0
H5773 H 0.28081 0.40688 0.2222 0.0
H5774 H 0.27021 0.40958 0.23234 0.0
H5775 H 0.28216 0.40142 0.23601 0.0
C5776 C 0.6292 0.29815 0.21153 0.0
C5777 C 0.63106 0.30946 0.20915 0.0
C5778 C 0.62001 0.29453 0.21786 0.0
C5779 C 0.61247 0.30241 0.22195 0.0
C5780 C 0.61427 0.31385 0.21955 0.0
C5781 C 0.62354 0.31724 0.2132 0.0
C5782 C 0.61845 0.28227 0.22029 0.0
C5783 C 0.60641 0.32251 0.22375 0.0
C5784 C 0.58373 0.29186 0.23089 0.0
C5785 C 0.58508 0.29092 0.24247 0.0
C5786 C 0.59252 0.29572 0.22411 0.0
C5787 C 0.60292 0.29869 0.22902 0.0
C5788 C 0.60429 0.29785 0.2407 0.0
C5789 C 0.59539 0.29396 0.24726 0.0
C5790 C 0.59073 0.29651 0.21168 0.0
C5791 C 0.61524 0.30089 0.24627 0.0
H5792 H 0.63505 0.29209 0.20858 0.0
H5793 H 0.62483 0.32598 0.21129 0.0
H5794 H 0.61881 0.28075 0.2294 0.0
H5795 H 0.61012 0.27939 0.21733 0.0
H5796 H 0.6249 0.27719 0.21627 0.0
H5797 H 0.60885 0.33104 0.22099 0.0
H5798 H 0.59781 0.32066 0.22077 0.0
H5799 H 0.60624 0.32229 0.23298 0.0
H5800 H 0.57578 0.28964 0.22712 0.0
H5801 H 0.59661 0.29306 0.25617 0.0
H5802 H 0.59662 0.29101 0.20738 0.0
H5803 H 0.59248 0.30512 0.20874 0.0
H5804 H 0.58209 0.29411 0.20918 0.0
H5805 H 0.6219 0.29545 0.24322 0.0
H5806 H 0.61485 0.30009 0.25548 0.0
H5807 H 0.61769 0.30957 0.24411 0.0
C5808 C 0.40533 0.70307 0.20273 0.0
C5809 C 0.39486 0.70193 0.2078 0.0
C5810 C 0.41466 0.70709 0.2087 0.0
C5811 C 0.4135 0.71005 0.22001 0.0
C5812 C 0.40298 0.70882 0.22519 0.0
C5813 C 0.39381 0.70476 0.21903 0.0
C5814 C 0.42574 0.70821 0.20289 0.0
C5815 C 0.40139 0.71194 0.23722 0.0
C5816 C 0.439 0.71185 0.23899 0.0
C5817 C 0.44105 0.72335 0.23939 0.0
C5818 C 0.4302 0.70738 0.23256 0.0
C5819 C 0.42324 0.7146 0.22639 0.0
C5820 C 0.42541 0.7262 0.22657 0.0
C5821 C 0.43428 0.73043 0.23305 0.0
C5822 C 0.42822 0.69496 0.23253 0.0
C5823 C 0.41818 0.73418 0.22013 0.0
H5824 H 0.40625 0.70076 0.1941 0.0
H5825 H 0.38572 0.70404 0.22297 0.0
H5826 H 0.42864 0.71701 0.20296 0.0
H5827 H 0.43211 0.70329 0.2074 0.0
H5828 H 0.4253 0.70536 0.19413 0.0
H5829 H 0.39272 0.71032 0.24007 0.0
H5830 H 0.40716 0.70718 0.24263 0.0
H5831 H 0.40343 0.72089 0.23836 0.0
H5832 H 0.44427 0.70631 0.24377 0.0
H5833 H 0.4357 0.73934 0.23342 0.0
H5834 H 0.42821 0.69184 0.22387 0.0
H5835 H 0.41991 0.69295 0.23608 0.0
H5836 H 0.43463 0.69046 0.23743 0.0
H5837 H 0.41789 0.73189 0.21121 0.0
H5838 H 0.42121 0.74292 0.22081 0.0
H5839 H 0.40951 0.73365 0.22327 0.0
loop_
_geom_bond_atom_site_label_1
_geom_bond_atom_site_label_2
_geom_bond_distance
_geom_bond_site_symmetry_2
_ccdc_geom_bond_type
C0 C1 1.264 . S
C0 C5 1.479 . S
C0 C10 1.465 . S
C1 C0 1.264 . S
C1 C3 1.339 . S
C1 H28 0.931 . S
C2 C3 1.395 . S
C2 C4 1.320 . S
C3 C1 1.339 . S
C3 C2 1.395 . S
C3 H29 0.929 . S
C4 C2 1.320 . S
C4 C5 1.405 . S
C4 H30 0.930 . S
C5 C0 1.479 . S
C5 C4 1.405 . S
C5 H31 0.931 . S
U6 O7 2.454 . S
U6 O8 2.458 . S
U6 C9 2.984 . S
U6 C10 2.847 . S
U6 C23 2.882 . S
U6 O24 2.441 . S
U6 O25 2.420 . S
U6 O26 2.455 . S
U6 O27 2.449 . S
O7 U6 2.454 . S
O7 C9 1.353 . S
O8 U6 2.458 . S
O8 C9 1.286 . S
C9 U6 2.984 . S
C9 O7 1.353 . S
C9 O8 1.286 . S
C9 C11 1.363 . S
C10 C0 1.465 . S
C10 U6 2.847 . S
C10 O24 1.249 . S
C10 O25 1.202 . S
C11 C9 1.363 . S
C11 C13 1.408 . S
C11 C16 1.342 . S
C12 C13 1.310 . S
C12 C15 1.461 . S
C12 H32 0.932 . S
C13 C11 1.408 . S
C13 C12 1.310 . S
C13 H33 0.930 . S
C14 C15 1.474 . S
C14 C16 1.285 . S
C14 H34 0.929 . S
C15 C12 1.461 . S
C15 C14 1.474 . S
C16 C11 1.342 . S
C16 C14 1.285 . S
C16 H35 0.930 . S
C17 C20 1.424 . S
C17 C22 1.245 . S
C17 C23 1.428 . S
C18 C21 1.260 . S
C18 C22 1.477 . S
C18 H36 0.932 . S
C19 C20 1.384 . S
C19 C21 1.479 . S
C19 H37 0.929 . S
C20 C17 1.424 . S
C20 C19 1.384 . S
C20 H38 0.928 . S
C21 C18 1.260 . S
C21 C19 1.479 . S
C22 C17 1.245 . S
C22 C18 1.477 . S
C22 H39 0.932 . S
C23 U6 2.882 . S
C23 C17 1.428 . S
C23 O26 1.301 . S
C23 O27 1.282 . S
O24 U6 2.441 . S
O24 C10 1.249 . S
O25 U6 2.420 . S
O25 C10 1.202 . S
O26 U6 2.455 . S
O26 C23 1.301 . S
O27 U6 2.449 . S
O27 C23 1.282 . S
H28 C1 0.931 . S
H29 C3 0.929 . S
H30 C4 0.930 . S
H31 C5 0.931 . S
H32 C12 0.932 . S
H33 C13 0.930 . S
H34 C14 0.929 . S
H35 C16 0.930 . S
H36 C18 0.932 . S
H37 C19 0.929 . S
H38 C20 0.928 . S
H39 C22 0.932 . S
C40 C41 1.264 . S
C40 C45 1.479 . S
C40 C50 1.465 . S
C41 C40 1.264 . S
C41 C43 1.339 . S
C41 H68 0.931 . S
C42 C43 1.395 . S
C42 C44 1.320 . S
C43 C41 1.339 . S
C43 C42 1.395 . S
C43 H69 0.929 . S
C44 C42 1.320 . S
C44 C45 1.405 . S
C44 H70 0.930 . S
C45 C40 1.479 . S
C45 C44 1.405 . S
C45 H71 0.931 . S
U46 O47 2.454 . S
U46 O48 2.458 . S
U46 C49 2.984 . S
U46 C50 2.847 . S
U46 C63 2.882 . S
U46 O64 2.441 . S
U46 O65 2.420 . S
U46 O66 2.455 . S
U46 O67 2.449 . S
O47 U46 2.454 . S
O47 C49 1.353 . S
O48 U46 2.458 . S
O48 C49 1.286 . S
C49 U46 2.984 . S
C49 O47 1.353 . S
C49 O48 1.286 . S
C49 C51 1.363 . S
C50 C40 1.465 . S
C50 U46 2.847 . S
C50 O64 1.249 . S
C50 O65 1.202 . S
C51 C49 1.363 . S
C51 C53 1.408 . S
C51 C56 1.342 . S
C52 C53 1.310 . S
C52 C55 1.461 . S
C52 H72 0.932 . S
C53 C51 1.408 . S
C53 C52 1.310 . S
C53 H73 0.930 . S
C54 C55 1.474 . S
C54 C56 1.285 . S
C54 H74 0.929 . S
C55 C52 1.461 . S
C55 C54 1.474 . S
C56 C51 1.342 . S
C56 C54 1.285 . S
C56 H75 0.930 . S
C57 C60 1.424 . S
C57 C62 1.245 . S
C57 C63 1.428 . S
C58 C61 1.260 . S
C58 C62 1.477 . S
C58 H76 0.932 . S
C59 C60 1.384 . S
C59 C61 1.479 . S
C59 H77 0.929 . S
C60 C57 1.424 . S
C60 C59 1.384 . S
C60 H78 0.928 . S
C61 C58 1.260 . S
C61 C59 1.479 . S
C62 C57 1.245 . S
C62 C58 1.477 . S
C62 H79 0.932 . S
C63 U46 2.882 . S
C63 C57 1.428 . S
C63 O66 1.301 . S
C63 O67 1.282 . S
O64 U46 2.441 . S
O64 C50 1.249 . S
O65 U46 2.420 . S
O65 C50 1.202 . S
O66 U46 2.455 . S
O66 C63 1.301 . S
O67 U46 2.449 . S
O67 C63 1.282 . S
H68 C41 0.931 . S
H69 C43 0.929 . S
H70 C44 0.930 . S
H71 C45 0.931 . S
H72 C52 0.932 . S
H73 C53 0.930 . S
H74 C54 0.929 . S
H75 C56 0.930 . S
H76 C58 0.932 . S
H77 C59 0.929 . S
H78 C60 0.928 . S
H79 C62 0.932 . S
C80 C81 1.264 . S
C80 C85 1.479 . S
C80 C90 1.465 . S
C81 C80 1.264 . S
C81 C83 1.339 . S
C81 H108 0.931 . S
C82 C83 1.395 . S
C82 C84 1.320 . S
C83 C81 1.339 . S
C83 C82 1.395 . S
C83 H109 0.929 . S
C84 C82 1.320 . S
C84 C85 1.405 . S
C84 H110 0.930 . S
C85 C80 1.479 . S
C85 C84 1.405 . S
C85 H111 0.931 . S
U86 O87 2.454 . S
U86 O88 2.458 . S
U86 C89 2.984 . S
U86 C90 2.847 . S
U86 C103 2.882 . S
U86 O104 2.441 . S
U86 O105 2.420 . S
U86 O106 2.455 . S
U86 O107 2.449 . S
O87 U86 2.454 . S
O87 C89 1.353 . S
O88 U86 2.458 . S
O88 C89 1.286 . S
C89 U86 2.984 . S
C89 O87 1.353 . S
C89 O88 1.286 . S
C89 C91 1.363 . S
C90 C80 1.465 . S
C90 U86 2.847 . S
C90 O104 1.249 . S
C90 O105 1.202 . S
C91 C89 1.363 . S
C91 C93 1.408 . S
C91 C96 1.342 . S
C92 C93 1.310 . S
C92 C95 1.461 . S
C92 H112 0.932 . S
C93 C91 1.408 . S
C93 C92 1.310 . S
C93 H113 0.930 . S
C94 C95 1.474 . S
C94 C96 1.285 . S
C94 H114 0.929 . S
C95 C92 1.461 . S
C95 C94 1.474 . S
C96 C91 1.342 . S
C96 C94 1.285 . S
C96 H115 0.930 . S
C97 C100 1.424 . S
C97 C102 1.245 . S
C97 C103 1.428 . S
C98 C101 1.260 . S
C98 C102 1.477 . S
C98 H116 0.932 . S
C99 C100 1.384 . S
C99 C101 1.479 . S
C99 H117 0.929 . S
C100 C97 1.424 . S
C100 C99 1.384 . S
C100 H118 0.928 . S
C101 C98 1.260 . S
C101 C99 1.479 . S
C102 C97 1.245 . S
C102 C98 1.477 . S
C102 H119 0.932 . S
C103 U86 2.882 . S
C103 C97 1.428 . S
C103 O106 1.301 . S
C103 O107 1.282 . S
O104 U86 2.441 . S
O104 C90 1.249 . S
O105 U86 2.420 . S
O105 C90 1.202 . S
O106 U86 2.455 . S
O106 C103 1.301 . S
O107 U86 2.449 . S
O107 C103 1.282 . S
H108 C81 0.931 . S
H109 C83 0.929 . S
H110 C84 0.930 . S
H111 C85 0.931 . S
H112 C92 0.932 . S
H113 C93 0.930 . S
H114 C94 0.929 . S
H115 C96 0.930 . S
H116 C98 0.932 . S
H117 C99 0.929 . S
H118 C100 0.928 . S
H119 C102 0.932 . S
C120 C121 1.264 . S
C120 C125 1.479 . S
C120 C130 1.465 . S
C121 C120 1.264 . S
C121 C123 1.339 . S
C121 H148 0.931 . S
C122 C123 1.395 . S
C122 C124 1.320 . S
C123 C121 1.339 . S
C123 C122 1.395 . S
C123 H149 0.929 . S
C124 C122 1.320 . S
C124 C125 1.405 . S
C124 H150 0.930 . S
C125 C120 1.479 . S
C125 C124 1.405 . S
C125 H151 0.931 . S
U126 O127 2.454 . S
U126 O128 2.458 . S
U126 C129 2.984 . S
U126 C130 2.847 . S
U126 C143 2.882 . S
U126 O144 2.441 . S
U126 O145 2.420 . S
U126 O146 2.455 . S
U126 O147 2.449 . S
O127 U126 2.454 . S
O127 C129 1.353 . S
O128 U126 2.458 . S
O128 C129 1.286 . S
C129 U126 2.984 . S
C129 O127 1.353 . S
C129 O128 1.286 . S
C129 C131 1.363 . S
C130 C120 1.465 . S
C130 U126 2.847 . S
C130 O144 1.249 . S
C130 O145 1.202 . S
C131 C129 1.363 . S
C131 C133 1.408 . S
C131 C136 1.342 . S
C132 C133 1.310 . S
C132 C135 1.461 . S
C132 H152 0.932 . S
C133 C131 1.408 . S
C133 C132 1.310 . S
C133 H153 0.930 . S
C134 C135 1.474 . S
C134 C136 1.285 . S
C134 H154 0.929 . S
C135 C132 1.461 . S
C135 C134 1.474 . S
C136 C131 1.342 . S
C136 C134 1.285 . S
C136 H155 0.930 . S
C137 C140 1.424 . S
C137 C142 1.245 . S
C137 C143 1.428 . S
C138 C141 1.260 . S
C138 C142 1.477 . S
C138 H156 0.932 . S
C139 C140 1.384 . S
C139 C141 1.479 . S
C139 H157 0.929 . S
C140 C137 1.424 . S
C140 C139 1.384 . S
C140 H158 0.928 . S
C141 C138 1.260 . S
C141 C139 1.479 . S
C142 C137 1.245 . S
C142 C138 1.477 . S
C142 H159 0.932 . S
C143 U126 2.882 . S
C143 C137 1.428 . S
C143 O146 1.301 . S
C143 O147 1.282 . S
O144 U126 2.441 . S
O144 C130 1.249 . S
O145 U126 2.420 . S
O145 C130 1.202 . S
O146 U126 2.455 . S
O146 C143 1.301 . S
O147 U126 2.449 . S
O147 C143 1.282 . S
H148 C121 0.931 . S
H149 C123 0.929 . S
H150 C124 0.930 . S
H151 C125 0.931 . S
H152 C132 0.932 . S
H153 C133 0.930 . S
H154 C134 0.929 . S
H155 C136 0.930 . S
H156 C138 0.932 . S
H157 C139 0.929 . S
H158 C140 0.928 . S
H159 C142 0.932 . S
C160 C161 1.264 . S
C160 C165 1.479 . S
C160 C170 1.465 . S
C161 C160 1.264 . S
C161 C163 1.339 . S
C161 H188 0.931 . S
C162 C163 1.395 . S
C162 C164 1.320 . S
C163 C161 1.339 . S
C163 C162 1.395 . S
C163 H189 0.929 . S
C164 C162 1.320 . S
C164 C165 1.405 . S
C164 H190 0.930 . S
C165 C160 1.479 . S
C165 C164 1.405 . S
C165 H191 0.931 . S
U166 O167 2.454 . S
U166 O168 2.458 . S
U166 C169 2.984 . S
U166 C170 2.847 . S
U166 C183 2.882 . S
U166 O184 2.441 . S
U166 O185 2.420 . S
U166 O186 2.455 . S
U166 O187 2.449 . S
O167 U166 2.454 . S
O167 C169 1.353 . S
O168 U166 2.458 . S
O168 C169 1.286 . S
C169 U166 2.984 . S
C169 O167 1.353 . S
C169 O168 1.286 . S
C169 C171 1.363 . S
C170 C160 1.465 . S
C170 U166 2.847 . S
C170 O184 1.249 . S
C170 O185 1.202 . S
C171 C169 1.363 . S
C171 C173 1.408 . S
C171 C176 1.342 . S
C172 C173 1.310 . S
C172 C175 1.461 . S
C172 H192 0.932 . S
C173 C171 1.408 . S
C173 C172 1.310 . S
C173 H193 0.930 . S
C174 C175 1.474 . S
C174 C176 1.285 . S
C174 H194 0.929 . S
C175 C172 1.461 . S
C175 C174 1.474 . S
C176 C171 1.342 . S
C176 C174 1.285 . S
C176 H195 0.930 . S
C177 C180 1.424 . S
C177 C182 1.245 . S
C177 C183 1.428 . S
C178 C181 1.260 . S
C178 C182 1.477 . S
C178 H196 0.932 . S
C179 C180 1.384 . S
C179 C181 1.479 . S
C179 H197 0.929 . S
C180 C177 1.424 . S
C180 C179 1.384 . S
C180 H198 0.928 . S
C181 C178 1.260 . S
C181 C179 1.479 . S
C182 C177 1.245 . S
C182 C178 1.477 . S
C182 H199 0.932 . S
C183 U166 2.882 . S
C183 C177 1.428 . S
C183 O186 1.301 . S
C183 O187 1.282 . S
O184 U166 2.441 . S
O184 C170 1.249 . S
O185 U166 2.420 . S
O185 C170 1.202 . S
O186 U166 2.455 . S
O186 C183 1.301 . S
O187 U166 2.449 . S
O187 C183 1.282 . S
H188 C161 0.931 . S
H189 C163 0.929 . S
H190 C164 0.930 . S
H191 C165 0.931 . S
H192 C172 0.932 . S
H193 C173 0.930 . S
H194 C174 0.929 . S
H195 C176 0.930 . S
H196 C178 0.932 . S
H197 C179 0.929 . S
H198 C180 0.928 . S
H199 C182 0.932 . S
C200 C201 1.264 . S
C200 C205 1.479 . S
C200 C210 1.465 . S
C201 C200 1.264 . S
C201 C203 1.339 . S
C201 H228 0.931 . S
C202 C203 1.395 . S
C202 C204 1.320 . S
C203 C201 1.339 . S
C203 C202 1.395 . S
C203 H229 0.929 . S
C204 C202 1.320 . S
C204 C205 1.405 . S
C204 H230 0.930 . S
C205 C200 1.479 . S
C205 C204 1.405 . S
C205 H231 0.931 . S
U206 O207 2.454 . S
U206 O208 2.458 . S
U206 C209 2.984 . S
U206 C210 2.847 . S
U206 C223 2.882 . S
U206 O224 2.441 . S
U206 O225 2.420 . S
U206 O226 2.455 . S
U206 O227 2.449 . S
O207 U206 2.454 . S
O207 C209 1.353 . S
O208 U206 2.458 . S
O208 C209 1.286 . S
C209 U206 2.984 . S
C209 O207 1.353 . S
C209 O208 1.286 . S
C209 C211 1.363 . S
C210 C200 1.465 . S
C210 U206 2.847 . S
C210 O224 1.249 . S
C210 O225 1.202 . S
C211 C209 1.363 . S
C211 C213 1.408 . S
C211 C216 1.342 . S
C212 C213 1.310 . S
C212 C215 1.461 . S
C212 H232 0.932 . S
C213 C211 1.408 . S
C213 C212 1.310 . S
C213 H233 0.930 . S
C214 C215 1.474 . S
C214 C216 1.285 . S
C214 H234 0.929 . S
C215 C212 1.461 . S
C215 C214 1.474 . S
C216 C211 1.342 . S
C216 C214 1.285 . S
C216 H235 0.930 . S
C217 C220 1.424 . S
C217 C222 1.245 . S
C217 C223 1.428 . S
C218 C221 1.260 . S
C218 C222 1.477 . S
C218 H236 0.932 . S
C219 C220 1.384 . S
C219 C221 1.479 . S
C219 H237 0.929 . S
C220 C217 1.424 . S
C220 C219 1.384 . S
C220 H238 0.928 . S
C221 C218 1.260 . S
C221 C219 1.479 . S
C222 C217 1.245 . S
C222 C218 1.477 . S
C222 H239 0.932 . S
C223 U206 2.882 . S
C223 C217 1.428 . S
C223 O226 1.301 . S
C223 O227 1.282 . S
O224 U206 2.441 . S
O224 C210 1.249 . S
O225 U206 2.420 . S
O225 C210 1.202 . S
O226 U206 2.455 . S
O226 C223 1.301 . S
O227 U206 2.449 . S
O227 C223 1.282 . S
H228 C201 0.931 . S
H229 C203 0.929 . S
H230 C204 0.930 . S
H231 C205 0.931 . S
H232 C212 0.932 . S
H233 C213 0.930 . S
H234 C214 0.929 . S
H235 C216 0.930 . S
H236 C218 0.932 . S
H237 C219 0.929 . S
H238 C220 0.928 . S
H239 C222 0.932 . S
C240 C241 1.264 . S
C240 C245 1.479 . S
C240 C250 1.465 . S
C241 C240 1.264 . S
C241 C243 1.339 . S
C241 H268 0.931 . S
C242 C243 1.395 . S
C242 C244 1.320 . S
C243 C241 1.339 . S
C243 C242 1.395 . S
C243 H269 0.929 . S
C244 C242 1.320 . S
C244 C245 1.405 . S
C244 H270 0.930 . S
C245 C240 1.479 . S
C245 C244 1.405 . S
C245 H271 0.931 . S
U246 O247 2.454 . S
U246 O248 2.458 . S
U246 C249 2.984 . S
U246 C250 2.847 . S
U246 C263 2.882 . S
U246 O264 2.441 . S
U246 O265 2.420 . S
U246 O266 2.455 . S
U246 O267 2.449 . S
O247 U246 2.454 . S
O247 C249 1.353 . S
O248 U246 2.458 . S
O248 C249 1.286 . S
C249 U246 2.984 . S
C249 O247 1.353 . S
C249 O248 1.286 . S
C249 C251 1.363 . S
C250 C240 1.465 . S
C250 U246 2.847 . S
C250 O264 1.249 . S
C250 O265 1.202 . S
C251 C249 1.363 . S
C251 C253 1.408 . S
C251 C256 1.342 . S
C252 C253 1.310 . S
C252 C255 1.461 . S
C252 H272 0.932 . S
C253 C251 1.408 . S
C253 C252 1.310 . S
C253 H273 0.930 . S
C254 C255 1.474 . S
C254 C256 1.285 . S
C254 H274 0.929 . S
C255 C252 1.461 . S
C255 C254 1.474 . S
C256 C251 1.342 . S
C256 C254 1.285 . S
C256 H275 0.930 . S
C257 C260 1.424 . S
C257 C262 1.245 . S
C257 C263 1.428 . S
C258 C261 1.260 . S
C258 C262 1.477 . S
C258 H276 0.932 . S
C259 C260 1.384 . S
C259 C261 1.479 . S
C259 H277 0.929 . S
C260 C257 1.424 . S
C260 C259 1.384 . S
C260 H278 0.928 . S
C261 C258 1.260 . S
C261 C259 1.479 . S
C262 C257 1.245 . S
C262 C258 1.477 . S
C262 H279 0.932 . S
C263 U246 2.882 . S
C263 C257 1.428 . S
C263 O266 1.301 . S
C263 O267 1.282 . S
O264 U246 2.441 . S
O264 C250 1.249 . S
O265 U246 2.420 . S
O265 C250 1.202 . S
O266 U246 2.455 . S
O266 C263 1.301 . S
O267 U246 2.449 . S
O267 C263 1.282 . S
H268 C241 0.931 . S
H269 C243 0.929 . S
H270 C244 0.930 . S
H271 C245 0.931 . S
H272 C252 0.932 . S
H273 C253 0.930 . S
H274 C254 0.929 . S
H275 C256 0.930 . S
H276 C258 0.932 . S
H277 C259 0.929 . S
H278 C260 0.928 . S
H279 C262 0.932 . S
C280 C281 1.264 . S
C280 C285 1.479 . S
C280 C290 1.465 . S
C281 C280 1.264 . S
C281 C283 1.339 . S
C281 H308 0.931 . S
C282 C283 1.395 . S
C282 C284 1.320 . S
C283 C281 1.339 . S
C283 C282 1.395 . S
C283 H309 0.929 . S
C284 C282 1.320 . S
C284 C285 1.405 . S
C284 H310 0.930 . S
C285 C280 1.479 . S
C285 C284 1.405 . S
C285 H311 0.931 . S
U286 O287 2.454 . S
U286 O288 2.458 . S
U286 C289 2.984 . S
U286 C290 2.847 . S
U286 C303 2.882 . S
U286 O304 2.441 . S
U286 O305 2.420 . S
U286 O306 2.455 . S
U286 O307 2.449 . S
O287 U286 2.454 . S
O287 C289 1.353 . S
O288 U286 2.458 . S
O288 C289 1.286 . S
C289 U286 2.984 . S
C289 O287 1.353 . S
C289 O288 1.286 . S
C289 C291 1.363 . S
C290 C280 1.465 . S
C290 U286 2.847 . S
C290 O304 1.249 . S
C290 O305 1.202 . S
C291 C289 1.363 . S
C291 C293 1.408 . S
C291 C296 1.342 . S
C292 C293 1.310 . S
C292 C295 1.461 . S
C292 H312 0.932 . S
C293 C291 1.408 . S
C293 C292 1.310 . S
C293 H313 0.930 . S
C294 C295 1.474 . S
C294 C296 1.285 . S
C294 H314 0.929 . S
C295 C292 1.461 . S
C295 C294 1.474 . S
C296 C291 1.342 . S
C296 C294 1.285 . S
C296 H315 0.930 . S
C297 C300 1.424 . S
C297 C302 1.245 . S
C297 C303 1.428 . S
C298 C301 1.260 . S
C298 C302 1.477 . S
C298 H316 0.932 . S
C299 C300 1.384 . S
C299 C301 1.479 . S
C299 H317 0.929 . S
C300 C297 1.424 . S
C300 C299 1.384 . S
C300 H318 0.928 . S
C301 C298 1.260 . S
C301 C299 1.479 . S
C302 C297 1.245 . S
C302 C298 1.477 . S
C302 H319 0.932 . S
C303 U286 2.882 . S
C303 C297 1.428 . S
C303 O306 1.301 . S
C303 O307 1.282 . S
O304 U286 2.441 . S
O304 C290 1.249 . S
O305 U286 2.420 . S
O305 C290 1.202 . S
O306 U286 2.455 . S
O306 C303 1.301 . S
O307 U286 2.449 . S
O307 C303 1.282 . S
H308 C281 0.931 . S
H309 C283 0.929 . S
H310 C284 0.930 . S
H311 C285 0.931 . S
H312 C292 0.932 . S
H313 C293 0.930 . S
H314 C294 0.929 . S
H315 C296 0.930 . S
H316 C298 0.932 . S
H317 C299 0.929 . S
H318 C300 0.928 . S
H319 C302 0.932 . S
C320 C321 1.264 . S
C320 C325 1.479 . S
C320 C330 1.465 . S
C321 C320 1.264 . S
C321 C323 1.339 . S
C321 H348 0.931 . S
C322 C323 1.395 . S
C322 C324 1.320 . S
C323 C321 1.339 . S
C323 C322 1.395 . S
C323 H349 0.929 . S
C324 C322 1.320 . S
C324 C325 1.405 . S
C324 H350 0.930 . S
C325 C320 1.479 . S
C325 C324 1.405 . S
C325 H351 0.931 . S
U326 O327 2.454 . S
U326 O328 2.458 . S
U326 C329 2.984 . S
U326 C330 2.847 . S
U326 C343 2.882 . S
U326 O344 2.441 . S
U326 O345 2.420 . S
U326 O346 2.455 . S
U326 O347 2.449 . S
O327 U326 2.454 . S
O327 C329 1.353 . S
O328 U326 2.458 . S
O328 C329 1.286 . S
C329 U326 2.984 . S
C329 O327 1.353 . S
C329 O328 1.286 . S
C329 C331 1.363 . S
C330 C320 1.465 . S
C330 U326 2.847 . S
C330 O344 1.249 . S
C330 O345 1.202 . S
C331 C329 1.363 . S
C331 C333 1.408 . S
C331 C336 1.342 . S
C332 C333 1.310 . S
C332 C335 1.461 . S
C332 H352 0.932 . S
C333 C331 1.408 . S
C333 C332 1.310 . S
C333 H353 0.930 . S
C334 C335 1.474 . S
C334 C336 1.285 . S
C334 H354 0.929 . S
C335 C332 1.461 . S
C335 C334 1.474 . S
C336 C331 1.342 . S
C336 C334 1.285 . S
C336 H355 0.930 . S
C337 C340 1.424 . S
C337 C342 1.245 . S
C337 C343 1.428 . S
C338 C341 1.260 . S
C338 C342 1.477 . S
C338 H356 0.932 . S
C339 C340 1.384 . S
C339 C341 1.479 . S
C339 H357 0.929 . S
C340 C337 1.424 . S
C340 C339 1.384 . S
C340 H358 0.928 . S
C341 C338 1.260 . S
C341 C339 1.479 . S
C342 C337 1.245 . S
C342 C338 1.477 . S
C342 H359 0.932 . S
C343 U326 2.882 . S
C343 C337 1.428 . S
C343 O346 1.301 . S
C343 O347 1.282 . S
O344 U326 2.441 . S
O344 C330 1.249 . S
O345 U326 2.420 . S
O345 C330 1.202 . S
O346 U326 2.455 . S
O346 C343 1.301 . S
O347 U326 2.449 . S
O347 C343 1.282 . S
H348 C321 0.931 . S
H349 C323 0.929 . S
H350 C324 0.930 . S
H351 C325 0.931 . S
H352 C332 0.932 . S
H353 C333 0.930 . S
H354 C334 0.929 . S
H355 C336 0.930 . S
H356 C338 0.932 . S
H357 C339 0.929 . S
H358 C340 0.928 . S
H359 C342 0.932 . S
C360 C361 1.264 . S
C360 C365 1.479 . S
C360 C370 1.465 . S
C361 C360 1.264 . S
C361 C363 1.339 . S
C361 H388 0.931 . S
C362 C363 1.395 . S
C362 C364 1.320 . S
C363 C361 1.339 . S
C363 C362 1.395 . S
C363 H389 0.929 . S
C364 C362 1.320 . S
C364 C365 1.405 . S
C364 H390 0.930 . S
C365 C360 1.479 . S
C365 C364 1.405 . S
C365 H391 0.931 . S
U366 O367 2.454 . S
U366 O368 2.458 . S
U366 C369 2.984 . S
U366 C370 2.847 . S
U366 C383 2.882 . S
U366 O384 2.441 . S
U366 O385 2.420 . S
U366 O386 2.455 . S
U366 O387 2.449 . S
O367 U366 2.454 . S
O367 C369 1.353 . S
O368 U366 2.458 . S
O368 C369 1.286 . S
C369 U366 2.984 . S
C369 O367 1.353 . S
C369 O368 1.286 . S
C369 C371 1.363 . S
C370 C360 1.465 . S
C370 U366 2.847 . S
C370 O384 1.249 . S
C370 O385 1.202 . S
C371 C369 1.363 . S
C371 C373 1.408 . S
C371 C376 1.342 . S
C372 C373 1.310 . S
C372 C375 1.461 . S
C372 H392 0.932 . S
C373 C371 1.408 . S
C373 C372 1.310 . S
C373 H393 0.930 . S
C374 C375 1.474 . S
C374 C376 1.285 . S
C374 H394 0.929 . S
C375 C372 1.461 . S
C375 C374 1.474 . S
C376 C371 1.342 . S
C376 C374 1.285 . S
C376 H395 0.930 . S
C377 C380 1.424 . S
C377 C382 1.245 . S
C377 C383 1.428 . S
C378 C381 1.260 . S
C378 C382 1.477 . S
C378 H396 0.932 . S
C379 C380 1.384 . S
C379 C381 1.479 . S
C379 H397 0.929 . S
C380 C377 1.424 . S
C380 C379 1.384 . S
C380 H398 0.928 . S
C381 C378 1.260 . S
C381 C379 1.479 . S
C382 C377 1.245 . S
C382 C378 1.477 . S
C382 H399 0.932 . S
C383 U366 2.882 . S
C383 C377 1.428 . S
C383 O386 1.301 . S
C383 O387 1.282 . S
O384 U366 2.441 . S
O384 C370 1.249 . S
O385 U366 2.420 . S
O385 C370 1.202 . S
O386 U366 2.455 . S
O386 C383 1.301 . S
O387 U366 2.449 . S
O387 C383 1.282 . S
H388 C361 0.931 . S
H389 C363 0.929 . S
H390 C364 0.930 . S
H391 C365 0.931 . S
H392 C372 0.932 . S
H393 C373 0.930 . S
H394 C374 0.929 . S
H395 C376 0.930 . S
H396 C378 0.932 . S
H397 C379 0.929 . S
H398 C380 0.928 . S
H399 C382 0.932 . S
C400 C401 1.264 . S
C400 C405 1.479 . S
C400 C410 1.465 . S
C401 C400 1.264 . S
C401 C403 1.339 . S
C401 H428 0.931 . S
C402 C403 1.395 . S
C402 C404 1.320 . S
C403 C401 1.339 . S
C403 C402 1.395 . S
C403 H429 0.929 . S
C404 C402 1.320 . S
C404 C405 1.405 . S
C404 H430 0.930 . S
C405 C400 1.479 . S
C405 C404 1.405 . S
C405 H431 0.931 . S
U406 O407 2.454 . S
U406 O408 2.458 . S
U406 C409 2.984 . S
U406 C410 2.847 . S
U406 C423 2.882 . S
U406 O424 2.441 . S
U406 O425 2.420 . S
U406 O426 2.455 . S
U406 O427 2.449 . S
O407 U406 2.454 . S
O407 C409 1.353 . S
O408 U406 2.458 . S
O408 C409 1.286 . S
C409 U406 2.984 . S
C409 O407 1.353 . S
C409 O408 1.286 . S
C409 C411 1.363 . S
C410 C400 1.465 . S
C410 U406 2.847 . S
C410 O424 1.249 . S
C410 O425 1.202 . S
C411 C409 1.363 . S
C411 C413 1.408 . S
C411 C416 1.342 . S
C412 C413 1.310 . S
C412 C415 1.461 . S
C412 H432 0.932 . S
C413 C411 1.408 . S
C413 C412 1.310 . S
C413 H433 0.930 . S
C414 C415 1.474 . S
C414 C416 1.285 . S
C414 H434 0.929 . S
C415 C412 1.461 . S
C415 C414 1.474 . S
C416 C411 1.342 . S
C416 C414 1.285 . S
C416 H435 0.930 . S
C417 C420 1.424 . S
C417 C422 1.245 . S
C417 C423 1.428 . S
C418 C421 1.260 . S
C418 C422 1.477 . S
C418 H436 0.932 . S
C419 C420 1.384 . S
C419 C421 1.479 . S
C419 H437 0.929 . S
C420 C417 1.424 . S
C420 C419 1.384 . S
C420 H438 0.928 . S
C421 C418 1.260 . S
C421 C419 1.479 . S
C422 C417 1.245 . S
C422 C418 1.477 . S
C422 H439 0.932 . S
C423 U406 2.882 . S
C423 C417 1.428 . S
C423 O426 1.301 . S
C423 O427 1.282 . S
O424 U406 2.441 . S
O424 C410 1.249 . S
O425 U406 2.420 . S
O425 C410 1.202 . S
O426 U406 2.455 . S
O426 C423 1.301 . S
O427 U406 2.449 . S
O427 C423 1.282 . S
H428 C401 0.931 . S
H429 C403 0.929 . S
H430 C404 0.930 . S
H431 C405 0.931 . S
H432 C412 0.932 . S
H433 C413 0.930 . S
H434 C414 0.929 . S
H435 C416 0.930 . S
H436 C418 0.932 . S
H437 C419 0.929 . S
H438 C420 0.928 . S
H439 C422 0.932 . S
C440 C441 1.264 . S
C440 C445 1.479 . S
C440 C450 1.465 . S
C441 C440 1.264 . S
C441 C443 1.339 . S
C441 H468 0.931 . S
C442 C443 1.395 . S
C442 C444 1.320 . S
C443 C441 1.339 . S
C443 C442 1.395 . S
C443 H469 0.929 . S
C444 C442 1.320 . S
C444 C445 1.405 . S
C444 H470 0.930 . S
C445 C440 1.479 . S
C445 C444 1.405 . S
C445 H471 0.931 . S
U446 O447 2.454 . S
U446 O448 2.458 . S
U446 C449 2.984 . S
U446 C450 2.847 . S
U446 C463 2.882 . S
U446 O464 2.441 . S
U446 O465 2.420 . S
U446 O466 2.455 . S
U446 O467 2.449 . S
O447 U446 2.454 . S
O447 C449 1.353 . S
O448 U446 2.458 . S
O448 C449 1.286 . S
C449 U446 2.984 . S
C449 O447 1.353 . S
C449 O448 1.286 . S
C449 C451 1.363 . S
C450 C440 1.465 . S
C450 U446 2.847 . S
C450 O464 1.249 . S
C450 O465 1.202 . S
C451 C449 1.363 . S
C451 C453 1.408 . S
C451 C456 1.342 . S
C452 C453 1.310 . S
C452 C455 1.461 . S
C452 H472 0.932 . S
C453 C451 1.408 . S
C453 C452 1.310 . S
C453 H473 0.930 . S
C454 C455 1.474 . S
C454 C456 1.285 . S
C454 H474 0.929 . S
C455 C452 1.461 . S
C455 C454 1.474 . S
C456 C451 1.342 . S
C456 C454 1.285 . S
C456 H475 0.930 . S
C457 C460 1.424 . S
C457 C462 1.245 . S
C457 C463 1.428 . S
C458 C461 1.260 . S
C458 C462 1.477 . S
C458 H476 0.932 . S
C459 C460 1.384 . S
C459 C461 1.479 . S
C459 H477 0.929 . S
C460 C457 1.424 . S
C460 C459 1.384 . S
C460 H478 0.928 . S
C461 C458 1.260 . S
C461 C459 1.479 . S
C462 C457 1.245 . S
C462 C458 1.477 . S
C462 H479 0.932 . S
C463 U446 2.882 . S
C463 C457 1.428 . S
C463 O466 1.301 . S
C463 O467 1.282 . S
O464 U446 2.441 . S
O464 C450 1.249 . S
O465 U446 2.420 . S
O465 C450 1.202 . S
O466 U446 2.455 . S
O466 C463 1.301 . S
O467 U446 2.449 . S
O467 C463 1.282 . S
H468 C441 0.931 . S
H469 C443 0.929 . S
H470 C444 0.930 . S
H471 C445 0.931 . S
H472 C452 0.932 . S
H473 C453 0.930 . S
H474 C454 0.929 . S
H475 C456 0.930 . S
H476 C458 0.932 . S
H477 C459 0.929 . S
H478 C460 0.928 . S
H479 C462 0.932 . S
C480 C481 1.264 . S
C480 C485 1.479 . S
C480 C490 1.465 . S
C481 C480 1.264 . S
C481 C483 1.339 . S
C481 H508 0.931 . S
C482 C483 1.395 . S
C482 C484 1.320 . S
C483 C481 1.339 . S
C483 C482 1.395 . S
C483 H509 0.929 . S
C484 C482 1.320 . S
C484 C485 1.405 . S
C484 H510 0.930 . S
C485 C480 1.479 . S
C485 C484 1.405 . S
C485 H511 0.931 . S
U486 O487 2.454 . S
U486 O488 2.458 . S
U486 C489 2.984 . S
U486 C490 2.847 . S
U486 C503 2.882 . S
U486 O504 2.441 . S
U486 O505 2.420 . S
U486 O506 2.455 . S
U486 O507 2.449 . S
O487 U486 2.454 . S
O487 C489 1.353 . S
O488 U486 2.458 . S
O488 C489 1.286 . S
C489 U486 2.984 . S
C489 O487 1.353 . S
C489 O488 1.286 . S
C489 C491 1.363 . S
C490 C480 1.465 . S
C490 U486 2.847 . S
C490 O504 1.249 . S
C490 O505 1.202 . S
C491 C489 1.363 . S
C491 C493 1.408 . S
C491 C496 1.342 . S
C492 C493 1.310 . S
C492 C495 1.461 . S
C492 H512 0.932 . S
C493 C491 1.408 . S
C493 C492 1.310 . S
C493 H513 0.930 . S
C494 C495 1.474 . S
C494 C496 1.285 . S
C494 H514 0.929 . S
C495 C492 1.461 . S
C495 C494 1.474 . S
C496 C491 1.342 . S
C496 C494 1.285 . S
C496 H515 0.930 . S
C497 C500 1.424 . S
C497 C502 1.245 . S
C497 C503 1.428 . S
C498 C501 1.260 . S
C498 C502 1.477 . S
C498 H516 0.932 . S
C499 C500 1.384 . S
C499 C501 1.479 . S
C499 H517 0.929 . S
C500 C497 1.424 . S
C500 C499 1.384 . S
C500 H518 0.928 . S
C501 C498 1.260 . S
C501 C499 1.479 . S
C502 C497 1.245 . S
C502 C498 1.477 . S
C502 H519 0.932 . S
C503 U486 2.882 . S
C503 C497 1.428 . S
C503 O506 1.301 . S
C503 O507 1.282 . S
O504 U486 2.441 . S
O504 C490 1.249 . S
O505 U486 2.420 . S
O505 C490 1.202 . S
O506 U486 2.455 . S
O506 C503 1.301 . S
O507 U486 2.449 . S
O507 C503 1.282 . S
H508 C481 0.931 . S
H509 C483 0.929 . S
H510 C484 0.930 . S
H511 C485 0.931 . S
H512 C492 0.932 . S
H513 C493 0.930 . S
H514 C494 0.929 . S
H515 C496 0.930 . S
H516 C498 0.932 . S
H517 C499 0.929 . S
H518 C500 0.928 . S
H519 C502 0.932 . S
C520 C521 1.264 . S
C520 C525 1.479 . S
C520 C530 1.465 . S
C521 C520 1.264 . S
C521 C523 1.339 . S
C521 H548 0.931 . S
C522 C523 1.395 . S
C522 C524 1.320 . S
C523 C521 1.339 . S
C523 C522 1.395 . S
C523 H549 0.929 . S
C524 C522 1.320 . S
C524 C525 1.405 . S
C524 H550 0.930 . S
C525 C520 1.479 . S
C525 C524 1.405 . S
C525 H551 0.931 . S
U526 O527 2.454 . S
U526 O528 2.458 . S
U526 C529 2.984 . S
U526 C530 2.847 . S
U526 C543 2.882 . S
U526 O544 2.441 . S
U526 O545 2.420 . S
U526 O546 2.455 . S
U526 O547 2.449 . S
O527 U526 2.454 . S
O527 C529 1.353 . S
O528 U526 2.458 . S
O528 C529 1.286 . S
C529 U526 2.984 . S
C529 O527 1.353 . S
C529 O528 1.286 . S
C529 C531 1.363 . S
C530 C520 1.465 . S
C530 U526 2.847 . S
C530 O544 1.249 . S
C530 O545 1.202 . S
C531 C529 1.363 . S
C531 C533 1.408 . S
C531 C536 1.342 . S
C532 C533 1.310 . S
C532 C535 1.461 . S
C532 H552 0.932 . S
C533 C531 1.408 . S
C533 C532 1.310 . S
C533 H553 0.930 . S
C534 C535 1.474 . S
C534 C536 1.285 . S
C534 H554 0.929 . S
C535 C532 1.461 . S
C535 C534 1.474 . S
C536 C531 1.342 . S
C536 C534 1.285 . S
C536 H555 0.930 . S
C537 C540 1.424 . S
C537 C542 1.245 . S
C537 C543 1.428 . S
C538 C541 1.260 . S
C538 C542 1.477 . S
C538 H556 0.932 . S
C539 C540 1.384 . S
C539 C541 1.479 . S
C539 H557 0.929 . S
C540 C537 1.424 . S
C540 C539 1.384 . S
C540 H558 0.928 . S
C541 C538 1.260 . S
C541 C539 1.479 . S
C542 C537 1.245 . S
C542 C538 1.477 . S
C542 H559 0.932 . S
C543 U526 2.882 . S
C543 C537 1.428 . S
C543 O546 1.301 . S
C543 O547 1.282 . S
O544 U526 2.441 . S
O544 C530 1.249 . S
O545 U526 2.420 . S
O545 C530 1.202 . S
O546 U526 2.455 . S
O546 C543 1.301 . S
O547 U526 2.449 . S
O547 C543 1.282 . S
H548 C521 0.931 . S
H549 C523 0.929 . S
H550 C524 0.930 . S
H551 C525 0.931 . S
H552 C532 0.932 . S
H553 C533 0.930 . S
H554 C534 0.929 . S
H555 C536 0.930 . S
H556 C538 0.932 . S
H557 C539 0.929 . S
H558 C540 0.928 . S
H559 C542 0.932 . S
C560 C561 1.264 . S
C560 C565 1.479 . S
C560 C570 1.465 . S
C561 C560 1.264 . S
C561 C563 1.339 . S
C561 H588 0.931 . S
C562 C563 1.395 . S
C562 C564 1.320 . S
C563 C561 1.339 . S
C563 C562 1.395 . S
C563 H589 0.929 . S
C564 C562 1.320 . S
C564 C565 1.405 . S
C564 H590 0.930 . S
C565 C560 1.479 . S
C565 C564 1.405 . S
C565 H591 0.931 . S
U566 O567 2.454 . S
U566 O568 2.458 . S
U566 C569 2.984 . S
U566 C570 2.847 . S
U566 C583 2.882 . S
U566 O584 2.441 . S
U566 O585 2.420 . S
U566 O586 2.455 . S
U566 O587 2.449 . S
O567 U566 2.454 . S
O567 C569 1.353 . S
O568 U566 2.458 . S
O568 C569 1.286 . S
C569 U566 2.984 . S
C569 O567 1.353 . S
C569 O568 1.286 . S
C569 C571 1.363 . S
C570 C560 1.465 . S
C570 U566 2.847 . S
C570 O584 1.249 . S
C570 O585 1.202 . S
C571 C569 1.363 . S
C571 C573 1.408 . S
C571 C576 1.342 . S
C572 C573 1.310 . S
C572 C575 1.461 . S
C572 H592 0.932 . S
C573 C571 1.408 . S
C573 C572 1.310 . S
C573 H593 0.930 . S
C574 C575 1.474 . S
C574 C576 1.285 . S
C574 H594 0.929 . S
C575 C572 1.461 . S
C575 C574 1.474 . S
C576 C571 1.342 . S
C576 C574 1.285 . S
C576 H595 0.930 . S
C577 C580 1.424 . S
C577 C582 1.245 . S
C577 C583 1.428 . S
C578 C581 1.260 . S
C578 C582 1.477 . S
C578 H596 0.932 . S
C579 C580 1.384 . S
C579 C581 1.479 . S
C579 H597 0.929 . S
C580 C577 1.424 . S
C580 C579 1.384 . S
C580 H598 0.928 . S
C581 C578 1.260 . S
C581 C579 1.479 . S
C582 C577 1.245 . S
C582 C578 1.477 . S
C582 H599 0.932 . S
C583 U566 2.882 . S
C583 C577 1.428 . S
C583 O586 1.301 . S
C583 O587 1.282 . S
O584 U566 2.441 . S
O584 C570 1.249 . S
O585 U566 2.420 . S
O585 C570 1.202 . S
O586 U566 2.455 . S
O586 C583 1.301 . S
O587 U566 2.449 . S
O587 C583 1.282 . S
H588 C561 0.931 . S
H589 C563 0.929 . S
H590 C564 0.930 . S
H591 C565 0.931 . S
H592 C572 0.932 . S
H593 C573 0.930 . S
H594 C574 0.929 . S
H595 C576 0.930 . S
H596 C578 0.932 . S
H597 C579 0.929 . S
H598 C580 0.928 . S
H599 C582 0.932 . S
C600 C601 1.264 . S
C600 C605 1.479 . S
C600 C610 1.465 . S
C601 C600 1.264 . S
C601 C603 1.339 . S
C601 H628 0.931 . S
C602 C603 1.395 . S
C602 C604 1.320 . S
C603 C601 1.339 . S
C603 C602 1.395 . S
C603 H629 0.929 . S
C604 C602 1.320 . S
C604 C605 1.405 . S
C604 H630 0.930 . S
C605 C600 1.479 . S
C605 C604 1.405 . S
C605 H631 0.931 . S
U606 O607 2.454 . S
U606 O608 2.458 . S
U606 C609 2.984 . S
U606 C610 2.847 . S
U606 C623 2.882 . S
U606 O624 2.441 . S
U606 O625 2.420 . S
U606 O626 2.455 . S
U606 O627 2.449 . S
O607 U606 2.454 . S
O607 C609 1.353 . S
O608 U606 2.458 . S
O608 C609 1.286 . S
C609 U606 2.984 . S
C609 O607 1.353 . S
C609 O608 1.286 . S
C609 C611 1.363 . S
C610 C600 1.465 . S
C610 U606 2.847 . S
C610 O624 1.249 . S
C610 O625 1.202 . S
C611 C609 1.363 . S
C611 C613 1.408 . S
C611 C616 1.342 . S
C612 C613 1.310 . S
C612 C615 1.461 . S
C612 H632 0.932 . S
C613 C611 1.408 . S
C613 C612 1.310 . S
C613 H633 0.930 . S
C614 C615 1.474 . S
C614 C616 1.285 . S
C614 H634 0.929 . S
C615 C612 1.461 . S
C615 C614 1.474 . S
C616 C611 1.342 . S
C616 C614 1.285 . S
C616 H635 0.930 . S
C617 C620 1.424 . S
C617 C622 1.245 . S
C617 C623 1.428 . S
C618 C621 1.260 . S
C618 C622 1.477 . S
C618 H636 0.932 . S
C619 C620 1.384 . S
C619 C621 1.479 . S
C619 H637 0.929 . S
C620 C617 1.424 . S
C620 C619 1.384 . S
C620 H638 0.928 . S
C621 C618 1.260 . S
C621 C619 1.479 . S
C622 C617 1.245 . S
C622 C618 1.477 . S
C622 H639 0.932 . S
C623 U606 2.882 . S
C623 C617 1.428 . S
C623 O626 1.301 . S
C623 O627 1.282 . S
O624 U606 2.441 . S
O624 C610 1.249 . S
O625 U606 2.420 . S
O625 C610 1.202 . S
O626 U606 2.455 . S
O626 C623 1.301 . S
O627 U606 2.449 . S
O627 C623 1.282 . S
H628 C601 0.931 . S
H629 C603 0.929 . S
H630 C604 0.930 . S
H631 C605 0.931 . S
H632 C612 0.932 . S
H633 C613 0.930 . S
H634 C614 0.929 . S
H635 C616 0.930 . S
H636 C618 0.932 . S
H637 C619 0.929 . S
H638 C620 0.928 . S
H639 C622 0.932 . S
C640 C641 1.264 . S
C640 C645 1.479 . S
C640 C650 1.465 . S
C641 C640 1.264 . S
C641 C643 1.339 . S
C641 H668 0.931 . S
C642 C643 1.395 . S
C642 C644 1.320 . S
C643 C641 1.339 . S
C643 C642 1.395 . S
C643 H669 0.929 . S
C644 C642 1.320 . S
C644 C645 1.405 . S
C644 H670 0.930 . S
C645 C640 1.479 . S
C645 C644 1.405 . S
C645 H671 0.931 . S
U646 O647 2.454 . S
U646 O648 2.458 . S
U646 C649 2.984 . S
U646 C650 2.847 . S
U646 C663 2.882 . S
U646 O664 2.441 . S
U646 O665 2.420 . S
U646 O666 2.455 . S
U646 O667 2.449 . S
O647 U646 2.454 . S
O647 C649 1.353 . S
O648 U646 2.458 . S
O648 C649 1.286 . S
C649 U646 2.984 . S
C649 O647 1.353 . S
C649 O648 1.286 . S
C649 C651 1.363 . S
C650 C640 1.465 . S
C650 U646 2.847 . S
C650 O664 1.249 . S
C650 O665 1.202 . S
C651 C649 1.363 . S
C651 C653 1.408 . S
C651 C656 1.342 . S
C652 C653 1.310 . S
C652 C655 1.461 . S
C652 H672 0.932 . S
C653 C651 1.408 . S
C653 C652 1.310 . S
C653 H673 0.930 . S
C654 C655 1.474 . S
C654 C656 1.285 . S
C654 H674 0.929 . S
C655 C652 1.461 . S
C655 C654 1.474 . S
C656 C651 1.342 . S
C656 C654 1.285 . S
C656 H675 0.930 . S
C657 C660 1.424 . S
C657 C662 1.245 . S
C657 C663 1.428 . S
C658 C661 1.260 . S
C658 C662 1.477 . S
C658 H676 0.932 . S
C659 C660 1.384 . S
C659 C661 1.479 . S
C659 H677 0.929 . S
C660 C657 1.424 . S
C660 C659 1.384 . S
C660 H678 0.928 . S
C661 C658 1.260 . S
C661 C659 1.479 . S
C662 C657 1.245 . S
C662 C658 1.477 . S
C662 H679 0.932 . S
C663 U646 2.882 . S
C663 C657 1.428 . S
C663 O666 1.301 . S
C663 O667 1.282 . S
O664 U646 2.441 . S
O664 C650 1.249 . S
O665 U646 2.420 . S
O665 C650 1.202 . S
O666 U646 2.455 . S
O666 C663 1.301 . S
O667 U646 2.449 . S
O667 C663 1.282 . S
H668 C641 0.931 . S
H669 C643 0.929 . S
H670 C644 0.930 . S
H671 C645 0.931 . S
H672 C652 0.932 . S
H673 C653 0.930 . S
H674 C654 0.929 . S
H675 C656 0.930 . S
H676 C658 0.932 . S
H677 C659 0.929 . S
H678 C660 0.928 . S
H679 C662 0.932 . S
C680 C681 1.264 . S
C680 C685 1.479 . S
C680 C690 1.465 . S
C681 C680 1.264 . S
C681 C683 1.339 . S
C681 H708 0.931 . S
C682 C683 1.395 . S
C682 C684 1.320 . S
C683 C681 1.339 . S
C683 C682 1.395 . S
C683 H709 0.929 . S
C684 C682 1.320 . S
C684 C685 1.405 . S
C684 H710 0.930 . S
C685 C680 1.479 . S
C685 C684 1.405 . S
C685 H711 0.931 . S
U686 O687 2.454 . S
U686 O688 2.458 . S
U686 C689 2.984 . S
U686 C690 2.847 . S
U686 C703 2.882 . S
U686 O704 2.441 . S
U686 O705 2.420 . S
U686 O706 2.455 . S
U686 O707 2.449 . S
O687 U686 2.454 . S
O687 C689 1.353 . S
O688 U686 2.458 . S
O688 C689 1.286 . S
C689 U686 2.984 . S
C689 O687 1.353 . S
C689 O688 1.286 . S
C689 C691 1.363 . S
C690 C680 1.465 . S
C690 U686 2.847 . S
C690 O704 1.249 . S
C690 O705 1.202 . S
C691 C689 1.363 . S
C691 C693 1.408 . S
C691 C696 1.342 . S
C692 C693 1.310 . S
C692 C695 1.461 . S
C692 H712 0.932 . S
C693 C691 1.408 . S
C693 C692 1.310 . S
C693 H713 0.930 . S
C694 C695 1.474 . S
C694 C696 1.285 . S
C694 H714 0.929 . S
C695 C692 1.461 . S
C695 C694 1.474 . S
C696 C691 1.342 . S
C696 C694 1.285 . S
C696 H715 0.930 . S
C697 C700 1.424 . S
C697 C702 1.245 . S
C697 C703 1.428 . S
C698 C701 1.260 . S
C698 C702 1.477 . S
C698 H716 0.932 . S
C699 C700 1.384 . S
C699 C701 1.479 . S
C699 H717 0.929 . S
C700 C697 1.424 . S
C700 C699 1.384 . S
C700 H718 0.928 . S
C701 C698 1.260 . S
C701 C699 1.479 . S
C702 C697 1.245 . S
C702 C698 1.477 . S
C702 H719 0.932 . S
C703 U686 2.882 . S
C703 C697 1.428 . S
C703 O706 1.301 . S
C703 O707 1.282 . S
O704 U686 2.441 . S
O704 C690 1.249 . S
O705 U686 2.420 . S
O705 C690 1.202 . S
O706 U686 2.455 . S
O706 C703 1.301 . S
O707 U686 2.449 . S
O707 C703 1.282 . S
H708 C681 0.931 . S
H709 C683 0.929 . S
H710 C684 0.930 . S
H711 C685 0.931 . S
H712 C692 0.932 . S
H713 C693 0.930 . S
H714 C694 0.929 . S
H715 C696 0.930 . S
H716 C698 0.932 . S
H717 C699 0.929 . S
H718 C700 0.928 . S
H719 C702 0.932 . S
C720 C721 1.264 . S
C720 C725 1.479 . S
C720 C730 1.465 . S
C721 C720 1.264 . S
C721 C723 1.339 . S
C721 H748 0.931 . S
C722 C723 1.395 . S
C722 C724 1.320 . S
C723 C721 1.339 . S
C723 C722 1.395 . S
C723 H749 0.929 . S
C724 C722 1.320 . S
C724 C725 1.405 . S
C724 H750 0.930 . S
C725 C720 1.479 . S
C725 C724 1.405 . S
C725 H751 0.931 . S
U726 O727 2.454 . S
U726 O728 2.458 . S
U726 C729 2.984 . S
U726 C730 2.847 . S
U726 C743 2.882 . S
U726 O744 2.441 . S
U726 O745 2.420 . S
U726 O746 2.455 . S
U726 O747 2.449 . S
O727 U726 2.454 . S
O727 C729 1.353 . S
O728 U726 2.458 . S
O728 C729 1.286 . S
C729 U726 2.984 . S
C729 O727 1.353 . S
C729 O728 1.286 . S
C729 C731 1.363 . S
C730 C720 1.465 . S
C730 U726 2.847 . S
C730 O744 1.249 . S
C730 O745 1.202 . S
C731 C729 1.363 . S
C731 C733 1.408 . S
C731 C736 1.342 . S
C732 C733 1.310 . S
C732 C735 1.461 . S
C732 H752 0.932 . S
C733 C731 1.408 . S
C733 C732 1.310 . S
C733 H753 0.930 . S
C734 C735 1.474 . S
C734 C736 1.285 . S
C734 H754 0.929 . S
C735 C732 1.461 . S
C735 C734 1.474 . S
C736 C731 1.342 . S
C736 C734 1.285 . S
C736 H755 0.930 . S
C737 C740 1.424 . S
C737 C742 1.245 . S
C737 C743 1.428 . S
C738 C741 1.260 . S
C738 C742 1.477 . S
C738 H756 0.932 . S
C739 C740 1.384 . S
C739 C741 1.479 . S
C739 H757 0.929 . S
C740 C737 1.424 . S
C740 C739 1.384 . S
C740 H758 0.928 . S
C741 C738 1.260 . S
C741 C739 1.479 . S
C742 C737 1.245 . S
C742 C738 1.477 . S
C742 H759 0.932 . S
C743 U726 2.882 . S
C743 C737 1.428 . S
C743 O746 1.301 . S
C743 O747 1.282 . S
O744 U726 2.441 . S
O744 C730 1.249 . S
O745 U726 2.420 . S
O745 C730 1.202 . S
O746 U726 2.455 . S
O746 C743 1.301 . S
O747 U726 2.449 . S
O747 C743 1.282 . S
H748 C721 0.931 . S
H749 C723 0.929 . S
H750 C724 0.930 . S
H751 C725 0.931 . S
H752 C732 0.932 . S
H753 C733 0.930 . S
H754 C734 0.929 . S
H755 C736 0.930 . S
H756 C738 0.932 . S
H757 C739 0.929 . S
H758 C740 0.928 . S
H759 C742 0.932 . S
C760 C761 1.264 . S
C760 C765 1.479 . S
C760 C770 1.465 . S
C761 C760 1.264 . S
C761 C763 1.339 . S
C761 H788 0.931 . S
C762 C763 1.395 . S
C762 C764 1.320 . S
C763 C761 1.339 . S
C763 C762 1.395 . S
C763 H789 0.929 . S
C764 C762 1.320 . S
C764 C765 1.405 . S
C764 H790 0.930 . S
C765 C760 1.479 . S
C765 C764 1.405 . S
C765 H791 0.931 . S
U766 O767 2.454 . S
U766 O768 2.458 . S
U766 C769 2.984 . S
U766 C770 2.847 . S
U766 C783 2.882 . S
U766 O784 2.441 . S
U766 O785 2.420 . S
U766 O786 2.455 . S
U766 O787 2.449 . S
O767 U766 2.454 . S
O767 C769 1.353 . S
O768 U766 2.458 . S
O768 C769 1.286 . S
C769 U766 2.984 . S
C769 O767 1.353 . S
C769 O768 1.286 . S
C769 C771 1.363 . S
C770 C760 1.465 . S
C770 U766 2.847 . S
C770 O784 1.249 . S
C770 O785 1.202 . S
C771 C769 1.363 . S
C771 C773 1.408 . S
C771 C776 1.342 . S
C772 C773 1.310 . S
C772 C775 1.461 . S
C772 H792 0.932 . S
C773 C771 1.408 . S
C773 C772 1.310 . S
C773 H793 0.930 . S
C774 C775 1.474 . S
C774 C776 1.285 . S
C774 H794 0.929 . S
C775 C772 1.461 . S
C775 C774 1.474 . S
C776 C771 1.342 . S
C776 C774 1.285 . S
C776 H795 0.930 . S
C777 C780 1.424 . S
C777 C782 1.245 . S
C777 C783 1.428 . S
C778 C781 1.260 . S
C778 C782 1.477 . S
C778 H796 0.932 . S
C779 C780 1.384 . S
C779 C781 1.479 . S
C779 H797 0.929 . S
C780 C777 1.424 . S
C780 C779 1.384 . S
C780 H798 0.928 . S
C781 C778 1.260 . S
C781 C779 1.479 . S
C782 C777 1.245 . S
C782 C778 1.477 . S
C782 H799 0.932 . S
C783 U766 2.882 . S
C783 C777 1.428 . S
C783 O786 1.301 . S
C783 O787 1.282 . S
O784 U766 2.441 . S
O784 C770 1.249 . S
O785 U766 2.420 . S
O785 C770 1.202 . S
O786 U766 2.455 . S
O786 C783 1.301 . S
O787 U766 2.449 . S
O787 C783 1.282 . S
H788 C761 0.931 . S
H789 C763 0.929 . S
H790 C764 0.930 . S
H791 C765 0.931 . S
H792 C772 0.932 . S
H793 C773 0.930 . S
H794 C774 0.929 . S
H795 C776 0.930 . S
H796 C778 0.932 . S
H797 C779 0.929 . S
H798 C780 0.928 . S
H799 C782 0.932 . S
C800 C801 1.264 . S
C800 C805 1.479 . S
C800 C810 1.465 . S
C801 C800 1.264 . S
C801 C803 1.339 . S
C801 H828 0.931 . S
C802 C803 1.395 . S
C802 C804 1.320 . S
C803 C801 1.339 . S
C803 C802 1.395 . S
C803 H829 0.929 . S
C804 C802 1.320 . S
C804 C805 1.405 . S
C804 H830 0.930 . S
C805 C800 1.479 . S
C805 C804 1.405 . S
C805 H831 0.931 . S
U806 O807 2.454 . S
U806 O808 2.458 . S
U806 C809 2.984 . S
U806 C810 2.847 . S
U806 C823 2.882 . S
U806 O824 2.441 . S
U806 O825 2.420 . S
U806 O826 2.455 . S
U806 O827 2.449 . S
O807 U806 2.454 . S
O807 C809 1.353 . S
O808 U806 2.458 . S
O808 C809 1.286 . S
C809 U806 2.984 . S
C809 O807 1.353 . S
C809 O808 1.286 . S
C809 C811 1.363 . S
C810 C800 1.465 . S
C810 U806 2.847 . S
C810 O824 1.249 . S
C810 O825 1.202 . S
C811 C809 1.363 . S
C811 C813 1.408 . S
C811 C816 1.342 . S
C812 C813 1.310 . S
C812 C815 1.461 . S
C812 H832 0.932 . S
C813 C811 1.408 . S
C813 C812 1.310 . S
C813 H833 0.930 . S
C814 C815 1.474 . S
C814 C816 1.285 . S
C814 H834 0.929 . S
C815 C812 1.461 . S
C815 C814 1.474 . S
C816 C811 1.342 . S
C816 C814 1.285 . S
C816 H835 0.930 . S
C817 C820 1.424 . S
C817 C822 1.245 . S
C817 C823 1.428 . S
C818 C821 1.260 . S
C818 C822 1.477 . S
C818 H836 0.932 . S
C819 C820 1.384 . S
C819 C821 1.479 . S
C819 H837 0.929 . S
C820 C817 1.424 . S
C820 C819 1.384 . S
C820 H838 0.928 . S
C821 C818 1.260 . S
C821 C819 1.479 . S
C822 C817 1.245 . S
C822 C818 1.477 . S
C822 H839 0.932 . S
C823 U806 2.882 . S
C823 C817 1.428 . S
C823 O826 1.301 . S
C823 O827 1.282 . S
O824 U806 2.441 . S
O824 C810 1.249 . S
O825 U806 2.420 . S
O825 C810 1.202 . S
O826 U806 2.455 . S
O826 C823 1.301 . S
O827 U806 2.449 . S
O827 C823 1.282 . S
H828 C801 0.931 . S
H829 C803 0.929 . S
H830 C804 0.930 . S
H831 C805 0.931 . S
H832 C812 0.932 . S
H833 C813 0.930 . S
H834 C814 0.929 . S
H835 C816 0.930 . S
H836 C818 0.932 . S
H837 C819 0.929 . S
H838 C820 0.928 . S
H839 C822 0.932 . S
C840 C841 1.264 . S
C840 C845 1.479 . S
C840 C850 1.465 . S
C841 C840 1.264 . S
C841 C843 1.339 . S
C841 H868 0.931 . S
C842 C843 1.395 . S
C842 C844 1.320 . S
C843 C841 1.339 . S
C843 C842 1.395 . S
C843 H869 0.929 . S
C844 C842 1.320 . S
C844 C845 1.405 . S
C844 H870 0.930 . S
C845 C840 1.479 . S
C845 C844 1.405 . S
C845 H871 0.931 . S
U846 O847 2.454 . S
U846 O848 2.458 . S
U846 C849 2.984 . S
U846 C850 2.847 . S
U846 C863 2.882 . S
U846 O864 2.441 . S
U846 O865 2.420 . S
U846 O866 2.455 . S
U846 O867 2.449 . S
O847 U846 2.454 . S
O847 C849 1.353 . S
O848 U846 2.458 . S
O848 C849 1.286 . S
C849 U846 2.984 . S
C849 O847 1.353 . S
C849 O848 1.286 . S
C849 C851 1.363 . S
C850 C840 1.465 . S
C850 U846 2.847 . S
C850 O864 1.249 . S
C850 O865 1.202 . S
C851 C849 1.363 . S
C851 C853 1.408 . S
C851 C856 1.342 . S
C852 C853 1.310 . S
C852 C855 1.461 . S
C852 H872 0.932 . S
C853 C851 1.408 . S
C853 C852 1.310 . S
C853 H873 0.930 . S
C854 C855 1.474 . S
C854 C856 1.285 . S
C854 H874 0.929 . S
C855 C852 1.461 . S
C855 C854 1.474 . S
C856 C851 1.342 . S
C856 C854 1.285 . S
C856 H875 0.930 . S
C857 C860 1.424 . S
C857 C862 1.245 . S
C857 C863 1.428 . S
C858 C861 1.260 . S
C858 C862 1.477 . S
C858 H876 0.932 . S
C859 C860 1.384 . S
C859 C861 1.479 . S
C859 H877 0.929 . S
C860 C857 1.424 . S
C860 C859 1.384 . S
C860 H878 0.928 . S
C861 C858 1.260 . S
C861 C859 1.479 . S
C862 C857 1.245 . S
C862 C858 1.477 . S
C862 H879 0.932 . S
C863 U846 2.882 . S
C863 C857 1.428 . S
C863 O866 1.301 . S
C863 O867 1.282 . S
O864 U846 2.441 . S
O864 C850 1.249 . S
O865 U846 2.420 . S
O865 C850 1.202 . S
O866 U846 2.455 . S
O866 C863 1.301 . S
O867 U846 2.449 . S
O867 C863 1.282 . S
H868 C841 0.931 . S
H869 C843 0.929 . S
H870 C844 0.930 . S
H871 C845 0.931 . S
H872 C852 0.932 . S
H873 C853 0.930 . S
H874 C854 0.929 . S
H875 C856 0.930 . S
H876 C858 0.932 . S
H877 C859 0.929 . S
H878 C860 0.928 . S
H879 C862 0.932 . S
C880 C881 1.264 . S
C880 C885 1.479 . S
C880 C890 1.465 . S
C881 C880 1.264 . S
C881 C883 1.339 . S
C881 H908 0.931 . S
C882 C883 1.395 . S
C882 C884 1.320 . S
C883 C881 1.339 . S
C883 C882 1.395 . S
C883 H909 0.929 . S
C884 C882 1.320 . S
C884 C885 1.405 . S
C884 H910 0.930 . S
C885 C880 1.479 . S
C885 C884 1.405 . S
C885 H911 0.931 . S
U886 O887 2.454 . S
U886 O888 2.458 . S
U886 C889 2.984 . S
U886 C890 2.847 . S
U886 C903 2.882 . S
U886 O904 2.441 . S
U886 O905 2.420 . S
U886 O906 2.455 . S
U886 O907 2.449 . S
O887 U886 2.454 . S
O887 C889 1.353 . S
O888 U886 2.458 . S
O888 C889 1.286 . S
C889 U886 2.984 . S
C889 O887 1.353 . S
C889 O888 1.286 . S
C889 C891 1.363 . S
C890 C880 1.465 . S
C890 U886 2.847 . S
C890 O904 1.249 . S
C890 O905 1.202 . S
C891 C889 1.363 . S
C891 C893 1.408 . S
C891 C896 1.342 . S
C892 C893 1.310 . S
C892 C895 1.461 . S
C892 H912 0.932 . S
C893 C891 1.408 . S
C893 C892 1.310 . S
C893 H913 0.930 . S
C894 C895 1.474 . S
C894 C896 1.285 . S
C894 H914 0.929 . S
C895 C892 1.461 . S
C895 C894 1.474 . S
C896 C891 1.342 . S
C896 C894 1.285 . S
C896 H915 0.930 . S
C897 C900 1.424 . S
C897 C902 1.245 . S
C897 C903 1.428 . S
C898 C901 1.260 . S
C898 C902 1.477 . S
C898 H916 0.932 . S
C899 C900 1.384 . S
C899 C901 1.479 . S
C899 H917 0.929 . S
C900 C897 1.424 . S
C900 C899 1.384 . S
C900 H918 0.928 . S
C901 C898 1.260 . S
C901 C899 1.479 . S
C902 C897 1.245 . S
C902 C898 1.477 . S
C902 H919 0.932 . S
C903 U886 2.882 . S
C903 C897 1.428 . S
C903 O906 1.301 . S
C903 O907 1.282 . S
O904 U886 2.441 . S
O904 C890 1.249 . S
O905 U886 2.420 . S
O905 C890 1.202 . S
O906 U886 2.455 . S
O906 C903 1.301 . S
O907 U886 2.449 . S
O907 C903 1.282 . S
H908 C881 0.931 . S
H909 C883 0.929 . S
H910 C884 0.930 . S
H911 C885 0.931 . S
H912 C892 0.932 . S
H913 C893 0.930 . S
H914 C894 0.929 . S
H915 C896 0.930 . S
H916 C898 0.932 . S
H917 C899 0.929 . S
H918 C900 0.928 . S
H919 C902 0.932 . S
C920 C921 1.264 . S
C920 C925 1.479 . S
C920 C930 1.465 . S
C921 C920 1.264 . S
C921 C923 1.339 . S
C921 H948 0.931 . S
C922 C923 1.395 . S
C922 C924 1.320 . S
C923 C921 1.339 . S
C923 C922 1.395 . S
C923 H949 0.929 . S
C924 C922 1.320 . S
C924 C925 1.405 . S
C924 H950 0.930 . S
C925 C920 1.479 . S
C925 C924 1.405 . S
C925 H951 0.931 . S
U926 O927 2.454 . S
U926 O928 2.458 . S
U926 C929 2.984 . S
U926 C930 2.847 . S
U926 C943 2.882 . S
U926 O944 2.441 . S
U926 O945 2.420 . S
U926 O946 2.455 . S
U926 O947 2.449 . S
O927 U926 2.454 . S
O927 C929 1.353 . S
O928 U926 2.458 . S
O928 C929 1.286 . S
C929 U926 2.984 . S
C929 O927 1.353 . S
C929 O928 1.286 . S
C929 C931 1.363 . S
C930 C920 1.465 . S
C930 U926 2.847 . S
C930 O944 1.249 . S
C930 O945 1.202 . S
C931 C929 1.363 . S
C931 C933 1.408 . S
C931 C936 1.342 . S
C932 C933 1.310 . S
C932 C935 1.461 . S
C932 H952 0.932 . S
C933 C931 1.408 . S
C933 C932 1.310 . S
C933 H953 0.930 . S
C934 C935 1.474 . S
C934 C936 1.285 . S
C934 H954 0.929 . S
C935 C932 1.461 . S
C935 C934 1.474 . S
C936 C931 1.342 . S
C936 C934 1.285 . S
C936 H955 0.930 . S
C937 C940 1.424 . S
C937 C942 1.245 . S
C937 C943 1.428 . S
C938 C941 1.260 . S
C938 C942 1.477 . S
C938 H956 0.932 . S
C939 C940 1.384 . S
C939 C941 1.479 . S
C939 H957 0.929 . S
C940 C937 1.424 . S
C940 C939 1.384 . S
C940 H958 0.928 . S
C941 C938 1.260 . S
C941 C939 1.479 . S
C942 C937 1.245 . S
C942 C938 1.477 . S
C942 H959 0.932 . S
C943 U926 2.882 . S
C943 C937 1.428 . S
C943 O946 1.301 . S
C943 O947 1.282 . S
O944 U926 2.441 . S
O944 C930 1.249 . S
O945 U926 2.420 . S
O945 C930 1.202 . S
O946 U926 2.455 . S
O946 C943 1.301 . S
O947 U926 2.449 . S
O947 C943 1.282 . S
H948 C921 0.931 . S
H949 C923 0.929 . S
H950 C924 0.930 . S
H951 C925 0.931 . S
H952 C932 0.932 . S
H953 C933 0.930 . S
H954 C934 0.929 . S
H955 C936 0.930 . S
H956 C938 0.932 . S
H957 C939 0.929 . S
H958 C940 0.928 . S
H959 C942 0.932 . S
C960 C961 1.264 . S
C960 C965 1.479 . S
C960 C970 1.465 . S
C961 C960 1.264 . S
C961 C963 1.339 . S
C961 H988 0.931 . S
C962 C963 1.395 . S
C962 C964 1.320 . S
C963 C961 1.339 . S
C963 C962 1.395 . S
C963 H989 0.929 . S
C964 C962 1.320 . S
C964 C965 1.405 . S
C964 H990 0.930 . S
C965 C960 1.479 . S
C965 C964 1.405 . S
C965 H991 0.931 . S
U966 O967 2.454 . S
U966 O968 2.458 . S
U966 C969 2.984 . S
U966 C970 2.847 . S
U966 C983 2.882 . S
U966 O984 2.441 . S
U966 O985 2.420 . S
U966 O986 2.455 . S
U966 O987 2.449 . S
O967 U966 2.454 . S
O967 C969 1.353 . S
O968 U966 2.458 . S
O968 C969 1.286 . S
C969 U966 2.984 . S
C969 O967 1.353 . S
C969 O968 1.286 . S
C969 C971 1.363 . S
C970 C960 1.465 . S
C970 U966 2.847 . S
C970 O984 1.249 . S
C970 O985 1.202 . S
C971 C969 1.363 . S
C971 C973 1.408 . S
C971 C976 1.342 . S
C972 C973 1.310 . S
C972 C975 1.461 . S
C972 H992 0.932 . S
C973 C971 1.408 . S
C973 C972 1.310 . S
C973 H993 0.930 . S
C974 C975 1.474 . S
C974 C976 1.285 . S
C974 H994 0.929 . S
C975 C972 1.461 . S
C975 C974 1.474 . S
C976 C971 1.342 . S
C976 C974 1.285 . S
C976 H995 0.930 . S
C977 C980 1.424 . S
C977 C982 1.245 . S
C977 C983 1.428 . S
C978 C981 1.260 . S
C978 C982 1.477 . S
C978 H996 0.932 . S
C979 C980 1.384 . S
C979 C981 1.479 . S
C979 H997 0.929 . S
C980 C977 1.424 . S
C980 C979 1.384 . S
C980 H998 0.928 . S
C981 C978 1.260 . S
C981 C979 1.479 . S
C982 C977 1.245 . S
C982 C978 1.477 . S
C982 H999 0.932 . S
C983 U966 2.882 . S
C983 C977 1.428 . S
C983 O986 1.301 . S
C983 O987 1.282 . S
O984 U966 2.441 . S
O984 C970 1.249 . S
O985 U966 2.420 . S
O985 C970 1.202 . S
O986 U966 2.455 . S
O986 C983 1.301 . S
O987 U966 2.449 . S
O987 C983 1.282 . S
H988 C961 0.931 . S
H989 C963 0.929 . S
H990 C964 0.930 . S
H991 C965 0.931 . S
H992 C972 0.932 . S
H993 C973 0.930 . S
H994 C974 0.929 . S
H995 C976 0.930 . S
H996 C978 0.932 . S
H997 C979 0.929 . S
H998 C980 0.928 . S
H999 C982 0.932 . S
C1000 C1001 1.264 . S
C1000 C1005 1.479 . S
C1000 C1010 1.465 . S
C1001 C1000 1.264 . S
C1001 C1003 1.339 . S
C1001 H1028 0.931 . S
C1002 C1003 1.395 . S
C1002 C1004 1.320 . S
C1003 C1001 1.339 . S
C1003 C1002 1.395 . S
C1003 H1029 0.929 . S
C1004 C1002 1.320 . S
C1004 C1005 1.405 . S
C1004 H1030 0.930 . S
C1005 C1000 1.479 . S
C1005 C1004 1.405 . S
C1005 H1031 0.931 . S
U1006 O1007 2.454 . S
U1006 O1008 2.458 . S
U1006 C1009 2.984 . S
U1006 C1010 2.847 . S
U1006 C1023 2.882 . S
U1006 O1024 2.441 . S
U1006 O1025 2.420 . S
U1006 O1026 2.455 . S
U1006 O1027 2.449 . S
O1007 U1006 2.454 . S
O1007 C1009 1.353 . S
O1008 U1006 2.458 . S
O1008 C1009 1.286 . S
C1009 U1006 2.984 . S
C1009 O1007 1.353 . S
C1009 O1008 1.286 . S
C1009 C1011 1.363 . S
C1010 C1000 1.465 . S
C1010 U1006 2.847 . S
C1010 O1024 1.249 . S
C1010 O1025 1.202 . S
C1011 C1009 1.363 . S
C1011 C1013 1.408 . S
C1011 C1016 1.342 . S
C1012 C1013 1.310 . S
C1012 C1015 1.461 . S
C1012 H1032 0.932 . S
C1013 C1011 1.408 . S
C1013 C1012 1.310 . S
C1013 H1033 0.930 . S
C1014 C1015 1.474 . S
C1014 C1016 1.285 . S
C1014 H1034 0.929 . S
C1015 C1012 1.461 . S
C1015 C1014 1.474 . S
C1016 C1011 1.342 . S
C1016 C1014 1.285 . S
C1016 H1035 0.930 . S
C1017 C1020 1.424 . S
C1017 C1022 1.245 . S
C1017 C1023 1.428 . S
C1018 C1021 1.260 . S
C1018 C1022 1.477 . S
C1018 H1036 0.932 . S
C1019 C1020 1.384 . S
C1019 C1021 1.479 . S
C1019 H1037 0.929 . S
C1020 C1017 1.424 . S
C1020 C1019 1.384 . S
C1020 H1038 0.928 . S
C1021 C1018 1.260 . S
C1021 C1019 1.479 . S
C1022 C1017 1.245 . S
C1022 C1018 1.477 . S
C1022 H1039 0.932 . S
C1023 U1006 2.882 . S
C1023 C1017 1.428 . S
C1023 O1026 1.301 . S
C1023 O1027 1.282 . S
O1024 U1006 2.441 . S
O1024 C1010 1.249 . S
O1025 U1006 2.420 . S
O1025 C1010 1.202 . S
O1026 U1006 2.455 . S
O1026 C1023 1.301 . S
O1027 U1006 2.449 . S
O1027 C1023 1.282 . S
H1028 C1001 0.931 . S
H1029 C1003 0.929 . S
H1030 C1004 0.930 . S
H1031 C1005 0.931 . S
H1032 C1012 0.932 . S
H1033 C1013 0.930 . S
H1034 C1014 0.929 . S
H1035 C1016 0.930 . S
H1036 C1018 0.932 . S
H1037 C1019 0.929 . S
H1038 C1020 0.928 . S
H1039 C1022 0.932 . S
C1040 C1041 1.264 . S
C1040 C1045 1.479 . S
C1040 C1050 1.465 . S
C1041 C1040 1.264 . S
C1041 C1043 1.339 . S
C1041 H1068 0.931 . S
C1042 C1043 1.395 . S
C1042 C1044 1.320 . S
C1043 C1041 1.339 . S
C1043 C1042 1.395 . S
C1043 H1069 0.929 . S
C1044 C1042 1.320 . S
C1044 C1045 1.405 . S
C1044 H1070 0.930 . S
C1045 C1040 1.479 . S
C1045 C1044 1.405 . S
C1045 H1071 0.931 . S
U1046 O1047 2.454 . S
U1046 O1048 2.458 . S
U1046 C1049 2.984 . S
U1046 C1050 2.847 . S
U1046 C1063 2.882 . S
U1046 O1064 2.441 . S
U1046 O1065 2.420 . S
U1046 O1066 2.455 . S
U1046 O1067 2.449 . S
O1047 U1046 2.454 . S
O1047 C1049 1.353 . S
O1048 U1046 2.458 . S
O1048 C1049 1.286 . S
C1049 U1046 2.984 . S
C1049 O1047 1.353 . S
C1049 O1048 1.286 . S
C1049 C1051 1.363 . S
C1050 C1040 1.465 . S
C1050 U1046 2.847 . S
C1050 O1064 1.249 . S
C1050 O1065 1.202 . S
C1051 C1049 1.363 . S
C1051 C1053 1.408 . S
C1051 C1056 1.342 . S
C1052 C1053 1.310 . S
C1052 C1055 1.461 . S
C1052 H1072 0.932 . S
C1053 C1051 1.408 . S
C1053 C1052 1.310 . S
C1053 H1073 0.930 . S
C1054 C1055 1.474 . S
C1054 C1056 1.285 . S
C1054 H1074 0.929 . S
C1055 C1052 1.461 . S
C1055 C1054 1.474 . S
C1056 C1051 1.342 . S
C1056 C1054 1.285 . S
C1056 H1075 0.930 . S
C1057 C1060 1.424 . S
C1057 C1062 1.245 . S
C1057 C1063 1.428 . S
C1058 C1061 1.260 . S
C1058 C1062 1.477 . S
C1058 H1076 0.932 . S
C1059 C1060 1.384 . S
C1059 C1061 1.479 . S
C1059 H1077 0.929 . S
C1060 C1057 1.424 . S
C1060 C1059 1.384 . S
C1060 H1078 0.928 . S
C1061 C1058 1.260 . S
C1061 C1059 1.479 . S
C1062 C1057 1.245 . S
C1062 C1058 1.477 . S
C1062 H1079 0.932 . S
C1063 U1046 2.882 . S
C1063 C1057 1.428 . S
C1063 O1066 1.301 . S
C1063 O1067 1.282 . S
O1064 U1046 2.441 . S
O1064 C1050 1.249 . S
O1065 U1046 2.420 . S
O1065 C1050 1.202 . S
O1066 U1046 2.455 . S
O1066 C1063 1.301 . S
O1067 U1046 2.449 . S
O1067 C1063 1.282 . S
H1068 C1041 0.931 . S
H1069 C1043 0.929 . S
H1070 C1044 0.930 . S
H1071 C1045 0.931 . S
H1072 C1052 0.932 . S
H1073 C1053 0.930 . S
H1074 C1054 0.929 . S
H1075 C1056 0.930 . S
H1076 C1058 0.932 . S
H1077 C1059 0.929 . S
H1078 C1060 0.928 . S
H1079 C1062 0.932 . S
C1080 C1081 1.264 . S
C1080 C1085 1.479 . S
C1080 C1090 1.465 . S
C1081 C1080 1.264 . S
C1081 C1083 1.339 . S
C1081 H1108 0.931 . S
C1082 C1083 1.395 . S
C1082 C1084 1.320 . S
C1083 C1081 1.339 . S
C1083 C1082 1.395 . S
C1083 H1109 0.929 . S
C1084 C1082 1.320 . S
C1084 C1085 1.405 . S
C1084 H1110 0.930 . S
C1085 C1080 1.479 . S
C1085 C1084 1.405 . S
C1085 H1111 0.931 . S
U1086 O1087 2.454 . S
U1086 O1088 2.458 . S
U1086 C1089 2.984 . S
U1086 C1090 2.847 . S
U1086 C1103 2.882 . S
U1086 O1104 2.441 . S
U1086 O1105 2.420 . S
U1086 O1106 2.455 . S
U1086 O1107 2.449 . S
O1087 U1086 2.454 . S
O1087 C1089 1.353 . S
O1088 U1086 2.458 . S
O1088 C1089 1.286 . S
C1089 U1086 2.984 . S
C1089 O1087 1.353 . S
C1089 O1088 1.286 . S
C1089 C1091 1.363 . S
C1090 C1080 1.465 . S
C1090 U1086 2.847 . S
C1090 O1104 1.249 . S
C1090 O1105 1.202 . S
C1091 C1089 1.363 . S
C1091 C1093 1.408 . S
C1091 C1096 1.342 . S
C1092 C1093 1.310 . S
C1092 C1095 1.461 . S
C1092 H1112 0.932 . S
C1093 C1091 1.408 . S
C1093 C1092 1.310 . S
C1093 H1113 0.930 . S
C1094 C1095 1.474 . S
C1094 C1096 1.285 . S
C1094 H1114 0.929 . S
C1095 C1092 1.461 . S
C1095 C1094 1.474 . S
C1096 C1091 1.342 . S
C1096 C1094 1.285 . S
C1096 H1115 0.930 . S
C1097 C1100 1.424 . S
C1097 C1102 1.245 . S
C1097 C1103 1.428 . S
C1098 C1101 1.260 . S
C1098 C1102 1.477 . S
C1098 H1116 0.932 . S
C1099 C1100 1.384 . S
C1099 C1101 1.479 . S
C1099 H1117 0.929 . S
C1100 C1097 1.424 . S
C1100 C1099 1.384 . S
C1100 H1118 0.928 . S
C1101 C1098 1.260 . S
C1101 C1099 1.479 . S
C1102 C1097 1.245 . S
C1102 C1098 1.477 . S
C1102 H1119 0.932 . S
C1103 U1086 2.882 . S
C1103 C1097 1.428 . S
C1103 O1106 1.301 . S
C1103 O1107 1.282 . S
O1104 U1086 2.441 . S
O1104 C1090 1.249 . S
O1105 U1086 2.420 . S
O1105 C1090 1.202 . S
O1106 U1086 2.455 . S
O1106 C1103 1.301 . S
O1107 U1086 2.449 . S
O1107 C1103 1.282 . S
H1108 C1081 0.931 . S
H1109 C1083 0.929 . S
H1110 C1084 0.930 . S
H1111 C1085 0.931 . S
H1112 C1092 0.932 . S
H1113 C1093 0.930 . S
H1114 C1094 0.929 . S
H1115 C1096 0.930 . S
H1116 C1098 0.932 . S
H1117 C1099 0.929 . S
H1118 C1100 0.928 . S
H1119 C1102 0.932 . S
C1120 C1121 1.264 . S
C1120 C1125 1.479 . S
C1120 C1130 1.465 . S
C1121 C1120 1.264 . S
C1121 C1123 1.339 . S
C1121 H1148 0.931 . S
C1122 C1123 1.395 . S
C1122 C1124 1.320 . S
C1123 C1121 1.339 . S
C1123 C1122 1.395 . S
C1123 H1149 0.929 . S
C1124 C1122 1.320 . S
C1124 C1125 1.405 . S
C1124 H1150 0.930 . S
C1125 C1120 1.479 . S
C1125 C1124 1.405 . S
C1125 H1151 0.931 . S
U1126 O1127 2.454 . S
U1126 O1128 2.458 . S
U1126 C1129 2.984 . S
U1126 C1130 2.847 . S
U1126 C1143 2.882 . S
U1126 O1144 2.441 . S
U1126 O1145 2.420 . S
U1126 O1146 2.455 . S
U1126 O1147 2.449 . S
O1127 U1126 2.454 . S
O1127 C1129 1.353 . S
O1128 U1126 2.458 . S
O1128 C1129 1.286 . S
C1129 U1126 2.984 . S
C1129 O1127 1.353 . S
C1129 O1128 1.286 . S
C1129 C1131 1.363 . S
C1130 C1120 1.465 . S
C1130 U1126 2.847 . S
C1130 O1144 1.249 . S
C1130 O1145 1.202 . S
C1131 C1129 1.363 . S
C1131 C1133 1.408 . S
C1131 C1136 1.342 . S
C1132 C1133 1.310 . S
C1132 C1135 1.461 . S
C1132 H1152 0.932 . S
C1133 C1131 1.408 . S
C1133 C1132 1.310 . S
C1133 H1153 0.930 . S
C1134 C1135 1.474 . S
C1134 C1136 1.285 . S
C1134 H1154 0.929 . S
C1135 C1132 1.461 . S
C1135 C1134 1.474 . S
C1136 C1131 1.342 . S
C1136 C1134 1.285 . S
C1136 H1155 0.930 . S
C1137 C1140 1.424 . S
C1137 C1142 1.245 . S
C1137 C1143 1.428 . S
C1138 C1141 1.260 . S
C1138 C1142 1.477 . S
C1138 H1156 0.932 . S
C1139 C1140 1.384 . S
C1139 C1141 1.479 . S
C1139 H1157 0.929 . S
C1140 C1137 1.424 . S
C1140 C1139 1.384 . S
C1140 H1158 0.928 . S
C1141 C1138 1.260 . S
C1141 C1139 1.479 . S
C1142 C1137 1.245 . S
C1142 C1138 1.477 . S
C1142 H1159 0.932 . S
C1143 U1126 2.882 . S
C1143 C1137 1.428 . S
C1143 O1146 1.301 . S
C1143 O1147 1.282 . S
O1144 U1126 2.441 . S
O1144 C1130 1.249 . S
O1145 U1126 2.420 . S
O1145 C1130 1.202 . S
O1146 U1126 2.455 . S
O1146 C1143 1.301 . S
O1147 U1126 2.449 . S
O1147 C1143 1.282 . S
H1148 C1121 0.931 . S
H1149 C1123 0.929 . S
H1150 C1124 0.930 . S
H1151 C1125 0.931 . S
H1152 C1132 0.932 . S
H1153 C1133 0.930 . S
H1154 C1134 0.929 . S
H1155 C1136 0.930 . S
H1156 C1138 0.932 . S
H1157 C1139 0.929 . S
H1158 C1140 0.928 . S
H1159 C1142 0.932 . S
C1160 C1161 1.264 . S
C1160 C1165 1.479 . S
C1160 C1170 1.465 . S
C1161 C1160 1.264 . S
C1161 C1163 1.339 . S
C1161 H1188 0.931 . S
C1162 C1163 1.395 . S
C1162 C1164 1.320 . S
C1163 C1161 1.339 . S
C1163 C1162 1.395 . S
C1163 H1189 0.929 . S
C1164 C1162 1.320 . S
C1164 C1165 1.405 . S
C1164 H1190 0.930 . S
C1165 C1160 1.479 . S
C1165 C1164 1.405 . S
C1165 H1191 0.931 . S
U1166 O1167 2.454 . S
U1166 O1168 2.458 . S
U1166 C1169 2.984 . S
U1166 C1170 2.847 . S
U1166 C1183 2.882 . S
U1166 O1184 2.441 . S
U1166 O1185 2.420 . S
U1166 O1186 2.455 . S
U1166 O1187 2.449 . S
O1167 U1166 2.454 . S
O1167 C1169 1.353 . S
O1168 U1166 2.458 . S
O1168 C1169 1.286 . S
C1169 U1166 2.984 . S
C1169 O1167 1.353 . S
C1169 O1168 1.286 . S
C1169 C1171 1.363 . S
C1170 C1160 1.465 . S
C1170 U1166 2.847 . S
C1170 O1184 1.249 . S
C1170 O1185 1.202 . S
C1171 C1169 1.363 . S
C1171 C1173 1.408 . S
C1171 C1176 1.342 . S
C1172 C1173 1.310 . S
C1172 C1175 1.461 . S
C1172 H1192 0.932 . S
C1173 C1171 1.408 . S
C1173 C1172 1.310 . S
C1173 H1193 0.930 . S
C1174 C1175 1.474 . S
C1174 C1176 1.285 . S
C1174 H1194 0.929 . S
C1175 C1172 1.461 . S
C1175 C1174 1.474 . S
C1176 C1171 1.342 . S
C1176 C1174 1.285 . S
C1176 H1195 0.930 . S
C1177 C1180 1.424 . S
C1177 C1182 1.245 . S
C1177 C1183 1.428 . S
C1178 C1181 1.260 . S
C1178 C1182 1.477 . S
C1178 H1196 0.932 . S
C1179 C1180 1.384 . S
C1179 C1181 1.479 . S
C1179 H1197 0.929 . S
C1180 C1177 1.424 . S
C1180 C1179 1.384 . S
C1180 H1198 0.928 . S
C1181 C1178 1.260 . S
C1181 C1179 1.479 . S
C1182 C1177 1.245 . S
C1182 C1178 1.477 . S
C1182 H1199 0.932 . S
C1183 U1166 2.882 . S
C1183 C1177 1.428 . S
C1183 O1186 1.301 . S
C1183 O1187 1.282 . S
O1184 U1166 2.441 . S
O1184 C1170 1.249 . S
O1185 U1166 2.420 . S
O1185 C1170 1.202 . S
O1186 U1166 2.455 . S
O1186 C1183 1.301 . S
O1187 U1166 2.449 . S
O1187 C1183 1.282 . S
H1188 C1161 0.931 . S
H1189 C1163 0.929 . S
H1190 C1164 0.930 . S
H1191 C1165 0.931 . S
H1192 C1172 0.932 . S
H1193 C1173 0.930 . S
H1194 C1174 0.929 . S
H1195 C1176 0.930 . S
H1196 C1178 0.932 . S
H1197 C1179 0.929 . S
H1198 C1180 0.928 . S
H1199 C1182 0.932 . S
C1200 C1201 1.264 . S
C1200 C1205 1.479 . S
C1200 C1210 1.465 . S
C1201 C1200 1.264 . S
C1201 C1203 1.339 . S
C1201 H1228 0.931 . S
C1202 C1203 1.395 . S
C1202 C1204 1.320 . S
C1203 C1201 1.339 . S
C1203 C1202 1.395 . S
C1203 H1229 0.929 . S
C1204 C1202 1.320 . S
C1204 C1205 1.405 . S
C1204 H1230 0.930 . S
C1205 C1200 1.479 . S
C1205 C1204 1.405 . S
C1205 H1231 0.931 . S
U1206 O1207 2.454 . S
U1206 O1208 2.458 . S
U1206 C1209 2.984 . S
U1206 C1210 2.847 . S
U1206 C1223 2.882 . S
U1206 O1224 2.441 . S
U1206 O1225 2.420 . S
U1206 O1226 2.455 . S
U1206 O1227 2.449 . S
O1207 U1206 2.454 . S
O1207 C1209 1.353 . S
O1208 U1206 2.458 . S
O1208 C1209 1.286 . S
C1209 U1206 2.984 . S
C1209 O1207 1.353 . S
C1209 O1208 1.286 . S
C1209 C1211 1.363 . S
C1210 C1200 1.465 . S
C1210 U1206 2.847 . S
C1210 O1224 1.249 . S
C1210 O1225 1.202 . S
C1211 C1209 1.363 . S
C1211 C1213 1.408 . S
C1211 C1216 1.342 . S
C1212 C1213 1.310 . S
C1212 C1215 1.461 . S
C1212 H1232 0.932 . S
C1213 C1211 1.408 . S
C1213 C1212 1.310 . S
C1213 H1233 0.930 . S
C1214 C1215 1.474 . S
C1214 C1216 1.285 . S
C1214 H1234 0.929 . S
C1215 C1212 1.461 . S
C1215 C1214 1.474 . S
C1216 C1211 1.342 . S
C1216 C1214 1.285 . S
C1216 H1235 0.930 . S
C1217 C1220 1.424 . S
C1217 C1222 1.245 . S
C1217 C1223 1.428 . S
C1218 C1221 1.260 . S
C1218 C1222 1.477 . S
C1218 H1236 0.932 . S
C1219 C1220 1.384 . S
C1219 C1221 1.479 . S
C1219 H1237 0.929 . S
C1220 C1217 1.424 . S
C1220 C1219 1.384 . S
C1220 H1238 0.928 . S
C1221 C1218 1.260 . S
C1221 C1219 1.479 . S
C1222 C1217 1.245 . S
C1222 C1218 1.477 . S
C1222 H1239 0.932 . S
C1223 U1206 2.882 . S
C1223 C1217 1.428 . S
C1223 O1226 1.301 . S
C1223 O1227 1.282 . S
O1224 U1206 2.441 . S
O1224 C1210 1.249 . S
O1225 U1206 2.420 . S
O1225 C1210 1.202 . S
O1226 U1206 2.455 . S
O1226 C1223 1.301 . S
O1227 U1206 2.449 . S
O1227 C1223 1.282 . S
H1228 C1201 0.931 . S
H1229 C1203 0.929 . S
H1230 C1204 0.930 . S
H1231 C1205 0.931 . S
H1232 C1212 0.932 . S
H1233 C1213 0.930 . S
H1234 C1214 0.929 . S
H1235 C1216 0.930 . S
H1236 C1218 0.932 . S
H1237 C1219 0.929 . S
H1238 C1220 0.928 . S
H1239 C1222 0.932 . S
C1240 C1241 1.264 . S
C1240 C1245 1.479 . S
C1240 C1250 1.465 . S
C1241 C1240 1.264 . S
C1241 C1243 1.339 . S
C1241 H1268 0.931 . S
C1242 C1243 1.395 . S
C1242 C1244 1.320 . S
C1243 C1241 1.339 . S
C1243 C1242 1.395 . S
C1243 H1269 0.929 . S
C1244 C1242 1.320 . S
C1244 C1245 1.405 . S
C1244 H1270 0.930 . S
C1245 C1240 1.479 . S
C1245 C1244 1.405 . S
C1245 H1271 0.931 . S
U1246 O1247 2.454 . S
U1246 O1248 2.458 . S
U1246 C1249 2.984 . S
U1246 C1250 2.847 . S
U1246 C1263 2.882 . S
U1246 O1264 2.441 . S
U1246 O1265 2.420 . S
U1246 O1266 2.455 . S
U1246 O1267 2.449 . S
O1247 U1246 2.454 . S
O1247 C1249 1.353 . S
O1248 U1246 2.458 . S
O1248 C1249 1.286 . S
C1249 U1246 2.984 . S
C1249 O1247 1.353 . S
C1249 O1248 1.286 . S
C1249 C1251 1.363 . S
C1250 C1240 1.465 . S
C1250 U1246 2.847 . S
C1250 O1264 1.249 . S
C1250 O1265 1.202 . S
C1251 C1249 1.363 . S
C1251 C1253 1.408 . S
C1251 C1256 1.342 . S
C1252 C1253 1.310 . S
C1252 C1255 1.461 . S
C1252 H1272 0.932 . S
C1253 C1251 1.408 . S
C1253 C1252 1.310 . S
C1253 H1273 0.930 . S
C1254 C1255 1.474 . S
C1254 C1256 1.285 . S
C1254 H1274 0.929 . S
C1255 C1252 1.461 . S
C1255 C1254 1.474 . S
C1256 C1251 1.342 . S
C1256 C1254 1.285 . S
C1256 H1275 0.930 . S
C1257 C1260 1.424 . S
C1257 C1262 1.245 . S
C1257 C1263 1.428 . S
C1258 C1261 1.260 . S
C1258 C1262 1.477 . S
C1258 H1276 0.932 . S
C1259 C1260 1.384 . S
C1259 C1261 1.479 . S
C1259 H1277 0.929 . S
C1260 C1257 1.424 . S
C1260 C1259 1.384 . S
C1260 H1278 0.928 . S
C1261 C1258 1.260 . S
C1261 C1259 1.479 . S
C1262 C1257 1.245 . S
C1262 C1258 1.477 . S
C1262 H1279 0.932 . S
C1263 U1246 2.882 . S
C1263 C1257 1.428 . S
C1263 O1266 1.301 . S
C1263 O1267 1.282 . S
O1264 U1246 2.441 . S
O1264 C1250 1.249 . S
O1265 U1246 2.420 . S
O1265 C1250 1.202 . S
O1266 U1246 2.455 . S
O1266 C1263 1.301 . S
O1267 U1246 2.449 . S
O1267 C1263 1.282 . S
H1268 C1241 0.931 . S
H1269 C1243 0.929 . S
H1270 C1244 0.930 . S
H1271 C1245 0.931 . S
H1272 C1252 0.932 . S
H1273 C1253 0.930 . S
H1274 C1254 0.929 . S
H1275 C1256 0.930 . S
H1276 C1258 0.932 . S
H1277 C1259 0.929 . S
H1278 C1260 0.928 . S
H1279 C1262 0.932 . S
H1280 C1307 0.929 . S
N1281 C1306 1.433 . S
N1281 C1312 1.435 . S
N1281 C1318 1.423 . S
H1282 C1308 0.930 . S
H1283 C1311 0.931 . S
H1284 C1310 0.929 . S
H1285 C1313 0.930 . S
H1286 C1314 0.932 . S
H1287 C1317 0.929 . S
H1288 C1316 0.931 . S
H1289 C1319 0.929 . S
H1290 C1323 0.932 . S
H1291 C1320 0.931 . S
H1292 C1322 0.929 . S
H1293 C1325 0.929 . S
H1294 C1326 0.930 . S
H1295 C1328 0.929 . S
H1296 C1329 0.931 . S
H1297 C1331 0.930 . S
H1298 C1332 0.932 . S
H1299 C1334 0.931 . S
H1300 C1335 0.929 . S
H1301 C1337 0.929 . S
H1302 C1338 0.931 . S
H1303 C1340 0.929 . S
N1304 C1324 1.433 . S
N1304 C1330 1.435 . S
N1304 C1336 1.423 . S
H1305 C1341 0.932 . S
C1306 N1281 1.433 . S
C1306 C1307 1.363 . S
C1306 C1311 1.370 . S
C1307 H1280 0.929 . S
C1307 C1306 1.363 . S
C1307 C1308 1.385 . S
C1308 H1282 0.930 . S
C1308 C1307 1.385 . S
C1308 C1309 1.357 . S
C1309 C1308 1.357 . S
C1309 C1310 1.406 . S
C1310 H1284 0.929 . S
C1310 C1309 1.406 . S
C1310 C1311 1.391 . S
C1311 H1283 0.931 . S
C1311 C1306 1.370 . S
C1311 C1310 1.391 . S
C1312 N1281 1.435 . S
C1312 C1313 1.358 . S
C1312 C1317 1.371 . S
C1313 H1285 0.930 . S
C1313 C1312 1.358 . S
C1313 C1314 1.405 . S
C1314 H1286 0.932 . S
C1314 C1313 1.405 . S
C1314 C1315 1.383 . S
C1315 C1314 1.383 . S
C1315 C1316 1.393 . S
C1316 H1288 0.931 . S
C1316 C1315 1.393 . S
C1316 C1317 1.382 . S
C1317 H1287 0.929 . S
C1317 C1312 1.371 . S
C1317 C1316 1.382 . S
C1318 N1281 1.423 . S
C1318 C1319 1.362 . S
C1318 C1323 1.388 . S
C1319 H1289 0.929 . S
C1319 C1318 1.362 . S
C1319 C1320 1.376 . S
C1320 H1291 0.931 . S
C1320 C1319 1.376 . S
C1320 C1321 1.398 . S
C1321 C1320 1.398 . S
C1321 C1322 1.350 . S
C1321 C1339 1.468 1_556 S
C1322 H1292 0.929 . S
C1322 C1321 1.350 . S
C1322 C1323 1.443 . S
C1323 H1290 0.932 . S
C1323 C1318 1.388 . S
C1323 C1322 1.443 . S
C1324 N1304 1.433 . S
C1324 C1325 1.363 . S
C1324 C1329 1.370 . S
C1325 H1293 0.929 . S
C1325 C1324 1.363 . S
C1325 C1326 1.385 . S
C1326 H1294 0.930 . S
C1326 C1325 1.385 . S
C1326 C1327 1.357 . S
C1327 C1326 1.357 . S
C1327 C1328 1.406 . S
C1328 H1295 0.929 . S
C1328 C1327 1.406 . S
C1328 C1329 1.391 . S
C1329 H1296 0.931 . S
C1329 C1324 1.370 . S
C1329 C1328 1.391 . S
C1330 N1304 1.435 . S
C1330 C1331 1.358 . S
C1330 C1335 1.371 . S
C1331 H1297 0.930 . S
C1331 C1330 1.358 . S
C1331 C1332 1.405 . S
C1332 H1298 0.932 . S
C1332 C1331 1.405 . S
C1332 C1333 1.383 . S
C1333 C1332 1.383 . S
C1333 C1334 1.393 . S
C1334 H1299 0.931 . S
C1334 C1333 1.393 . S
C1334 C1335 1.382 . S
C1335 H1300 0.929 . S
C1335 C1330 1.371 . S
C1335 C1334 1.382 . S
C1336 N1304 1.423 . S
C1336 C1337 1.362 . S
C1336 C1341 1.388 . S
C1337 H1301 0.929 . S
C1337 C1336 1.362 . S
C1337 C1338 1.376 . S
C1338 H1302 0.931 . S
C1338 C1337 1.376 . S
C1338 C1339 1.396 . S
C1339 C1321 1.468 1_554 S
C1339 C1338 1.396 . S
C1339 C1340 1.348 . S
C1340 H1303 0.929 . S
C1340 C1339 1.348 . S
C1340 C1341 1.443 . S
C1341 H1305 0.932 . S
C1341 C1336 1.388 . S
C1341 C1340 1.443 . S
H1342 C1369 0.929 . S
N1343 C1368 1.433 . S
N1343 C1374 1.435 . S
N1343 C1380 1.423 . S
H1344 C1370 0.930 . S
H1345 C1373 0.931 . S
H1346 C1372 0.929 . S
H1347 C1375 0.930 . S
H1348 C1376 0.932 . S
H1349 C1379 0.929 . S
H1350 C1378 0.931 . S
H1351 C1381 0.929 . S
H1352 C1385 0.932 . S
H1353 C1382 0.932 . S
H1354 C1384 0.924 . S
H1355 C1387 0.929 . S
H1356 C1388 0.930 . S
H1357 C1390 0.929 . S
H1358 C1391 0.931 . S
H1359 C1393 0.930 . S
H1360 C1394 0.932 . S
H1361 C1396 0.931 . S
H1362 C1397 0.929 . S
H1363 C1399 0.929 . S
H1364 C1400 0.931 . S
H1365 C1402 0.929 . S
N1366 C1386 1.433 . S
N1366 C1392 1.435 . S
N1366 C1398 1.423 . S
H1367 C1403 0.932 . S
C1368 N1343 1.433 . S
C1368 C1369 1.363 . S
C1368 C1373 1.370 . S
C1369 H1342 0.929 . S
C1369 C1368 1.363 . S
C1369 C1370 1.385 . S
C1370 H1344 0.930 . S
C1370 C1369 1.385 . S
C1370 C1371 1.357 . S
C1371 C1370 1.357 . S
C1371 C1372 1.406 . S
C1372 H1346 0.929 . S
C1372 C1371 1.406 . S
C1372 C1373 1.391 . S
C1373 H1345 0.931 . S
C1373 C1368 1.370 . S
C1373 C1372 1.391 . S
C1374 N1343 1.435 . S
C1374 C1375 1.358 . S
C1374 C1379 1.371 . S
C1375 H1347 0.930 . S
C1375 C1374 1.358 . S
C1375 C1376 1.405 . S
C1376 H1348 0.932 . S
C1376 C1375 1.405 . S
C1376 C1377 1.383 . S
C1377 C1376 1.383 . S
C1377 C1378 1.393 . S
C1378 H1350 0.931 . S
C1378 C1377 1.393 . S
C1378 C1379 1.382 . S
C1379 H1349 0.929 . S
C1379 C1374 1.371 . S
C1379 C1378 1.382 . S
C1380 N1343 1.423 . S
C1380 C1381 1.362 . S
C1380 C1385 1.388 . S
C1381 H1351 0.929 . S
C1381 C1380 1.362 . S
C1381 C1382 1.376 . S
C1382 H1353 0.932 . S
C1382 C1381 1.376 . S
C1382 C1383 1.396 1_556 S
C1383 C1382 1.396 1_554 S
C1383 C1384 1.348 1_554 S
C1383 C1401 1.472 . S
C1384 H1354 0.924 . S
C1384 C1383 1.348 1_556 S
C1384 C1385 1.443 . S
C1385 H1352 0.932 . S
C1385 C1380 1.388 . S
C1385 C1384 1.443 . S
C1386 N1366 1.433 . S
C1386 C1387 1.363 . S
C1386 C1391 1.370 . S
C1387 H1355 0.929 . S
C1387 C1386 1.363 . S
C1387 C1388 1.385 . S
C1388 H1356 0.930 . S
C1388 C1387 1.385 . S
C1388 C1389 1.357 . S
C1389 C1388 1.357 . S
C1389 C1390 1.406 . S
C1390 H1357 0.929 . S
C1390 C1389 1.406 . S
C1390 C1391 1.391 . S
C1391 H1358 0.931 . S
C1391 C1386 1.370 . S
C1391 C1390 1.391 . S
C1392 N1366 1.435 . S
C1392 C1393 1.358 . S
C1392 C1397 1.371 . S
C1393 H1359 0.930 . S
C1393 C1392 1.358 . S
C1393 C1394 1.405 . S
C1394 H1360 0.932 . S
C1394 C1393 1.405 . S
C1394 C1395 1.383 . S
C1395 C1394 1.383 . S
C1395 C1396 1.393 . S
C1396 H1361 0.931 . S
C1396 C1395 1.393 . S
C1396 C1397 1.382 . S
C1397 H1362 0.929 . S
C1397 C1392 1.371 . S
C1397 C1396 1.382 . S
C1398 N1366 1.423 . S
C1398 C1399 1.362 . S
C1398 C1403 1.388 . S
C1399 H1363 0.929 . S
C1399 C1398 1.362 . S
C1399 C1400 1.376 . S
C1400 H1364 0.931 . S
C1400 C1399 1.376 . S
C1400 C1401 1.396 . S
C1401 C1383 1.472 . S
C1401 C1400 1.396 . S
C1401 C1402 1.348 . S
C1402 H1365 0.929 . S
C1402 C1401 1.348 . S
C1402 C1403 1.443 . S
C1403 H1367 0.932 . S
C1403 C1398 1.388 . S
C1403 C1402 1.443 . S
H1404 C1431 0.929 . S
N1405 C1430 1.433 . S
N1405 C1436 1.435 . S
N1405 C1442 1.423 . S
H1406 C1432 0.930 . S
H1407 C1435 0.931 . S
H1408 C1434 0.929 . S
H1409 C1437 0.930 . S
H1410 C1438 0.932 . S
H1411 C1441 0.929 . S
H1412 C1440 0.931 . S
H1413 C1443 0.929 . S
H1414 C1447 0.932 . S
H1415 C1444 0.931 . S
H1416 C1446 0.929 . S
H1417 C1449 0.929 . S
H1418 C1450 0.930 . S
H1419 C1452 0.929 . S
H1420 C1453 0.931 . S
H1421 C1455 0.930 . S
H1422 C1456 0.932 . S
H1423 C1458 0.931 . S
H1424 C1459 0.929 . S
H1425 C1461 0.929 . S
H1426 C1462 0.931 . S
H1427 C1464 0.929 . S
N1428 C1448 1.433 . S
N1428 C1454 1.435 . S
N1428 C1460 1.423 . S
H1429 C1465 0.932 . S
C1430 N1405 1.433 . S
C1430 C1431 1.363 . S
C1430 C1435 1.370 . S
C1431 H1404 0.929 . S
C1431 C1430 1.363 . S
C1431 C1432 1.385 . S
C1432 H1406 0.930 . S
C1432 C1431 1.385 . S
C1432 C1433 1.357 . S
C1433 C1432 1.357 . S
C1433 C1434 1.406 . S
C1434 H1408 0.929 . S
C1434 C1433 1.406 . S
C1434 C1435 1.391 . S
C1435 H1407 0.931 . S
C1435 C1430 1.370 . S
C1435 C1434 1.391 . S
C1436 N1405 1.435 . S
C1436 C1437 1.358 . S
C1436 C1441 1.371 . S
C1437 H1409 0.930 . S
C1437 C1436 1.358 . S
C1437 C1438 1.405 . S
C1438 H1410 0.932 . S
C1438 C1437 1.405 . S
C1438 C1439 1.383 . S
C1439 C1438 1.383 . S
C1439 C1440 1.393 . S
C1440 H1412 0.931 . S
C1440 C1439 1.393 . S
C1440 C1441 1.382 . S
C1441 H1411 0.929 . S
C1441 C1436 1.371 . S
C1441 C1440 1.382 . S
C1442 N1405 1.423 . S
C1442 C1443 1.362 . S
C1442 C1447 1.388 . S
C1443 H1413 0.929 . S
C1443 C1442 1.362 . S
C1443 C1444 1.376 . S
C1444 H1415 0.931 . S
C1444 C1443 1.376 . S
C1444 C1445 1.391 . S
C1445 C1444 1.391 . S
C1445 C1446 1.343 . S
C1445 C1463 1.481 1_556 S
C1446 H1416 0.929 . S
C1446 C1445 1.343 . S
C1446 C1447 1.443 . S
C1447 H1414 0.932 . S
C1447 C1442 1.388 . S
C1447 C1446 1.443 . S
C1448 N1428 1.433 . S
C1448 C1449 1.363 . S
C1448 C1453 1.370 . S
C1449 H1417 0.929 . S
C1449 C1448 1.363 . S
C1449 C1450 1.385 . S
C1450 H1418 0.930 . S
C1450 C1449 1.385 . S
C1450 C1451 1.357 . S
C1451 C1450 1.357 . S
C1451 C1452 1.406 . S
C1452 H1419 0.929 . S
C1452 C1451 1.406 . S
C1452 C1453 1.391 . S
C1453 H1420 0.931 . S
C1453 C1448 1.370 . S
C1453 C1452 1.391 . S
C1454 N1428 1.435 . S
C1454 C1455 1.358 . S
C1454 C1459 1.371 . S
C1455 H1421 0.930 . S
C1455 C1454 1.358 . S
C1455 C1456 1.405 . S
C1456 H1422 0.932 . S
C1456 C1455 1.405 . S
C1456 C1457 1.383 . S
C1457 C1456 1.383 . S
C1457 C1458 1.393 . S
C1458 H1423 0.931 . S
C1458 C1457 1.393 . S
C1458 C1459 1.382 . S
C1459 H1424 0.929 . S
C1459 C1454 1.371 . S
C1459 C1458 1.382 . S
C1460 N1428 1.423 . S
C1460 C1461 1.362 . S
C1460 C1465 1.388 . S
C1461 H1425 0.929 . S
C1461 C1460 1.362 . S
C1461 C1462 1.376 . S
C1462 H1426 0.931 . S
C1462 C1461 1.376 . S
C1462 C1463 1.396 . S
C1463 C1445 1.481 1_554 S
C1463 C1462 1.396 . S
C1463 C1464 1.348 . S
C1464 H1427 0.929 . S
C1464 C1463 1.348 . S
C1464 C1465 1.443 . S
C1465 H1429 0.932 . S
C1465 C1460 1.388 . S
C1465 C1464 1.443 . S
H1466 C1493 0.929 . S
N1467 C1492 1.433 . S
N1467 C1498 1.435 . S
N1467 C1504 1.423 . S
H1468 C1494 0.930 . S
H1469 C1497 0.931 . S
H1470 C1496 0.929 . S
H1471 C1499 0.930 . S
H1472 C1500 0.932 . S
H1473 C1503 0.929 . S
H1474 C1502 0.931 . S
H1475 C1505 0.929 . S
H1476 C1509 0.932 . S
H1477 C1506 0.963 . S
H1478 C1508 0.929 . S
H1479 C1511 0.929 . S
H1480 C1512 0.930 . S
H1481 C1514 0.929 . S
H1482 C1515 0.931 . S
H1483 C1517 0.930 . S
H1484 C1518 0.932 . S
H1485 C1520 0.931 . S
H1486 C1521 0.929 . S
H1487 C1523 0.929 . S
H1488 C1524 0.931 . S
H1489 C1526 0.929 . S
N1490 C1510 1.433 . S
N1490 C1516 1.435 . S
N1490 C1522 1.423 . S
H1491 C1527 0.932 . S
C1492 N1467 1.433 . S
C1492 C1493 1.363 . S
C1492 C1497 1.370 . S
C1493 H1466 0.929 . S
C1493 C1492 1.363 . S
C1493 C1494 1.385 . S
C1494 H1468 0.930 . S
C1494 C1493 1.385 . S
C1494 C1495 1.357 . S
C1495 C1494 1.357 . S
C1495 C1496 1.406 . S
C1496 H1470 0.929 . S
C1496 C1495 1.406 . S
C1496 C1497 1.391 . S
C1497 H1469 0.931 . S
C1497 C1492 1.370 . S
C1497 C1496 1.391 . S
C1498 N1467 1.435 . S
C1498 C1499 1.358 . S
C1498 C1503 1.371 . S
C1499 H1471 0.930 . S
C1499 C1498 1.358 . S
C1499 C1500 1.405 . S
C1500 H1472 0.932 . S
C1500 C1499 1.405 . S
C1500 C1501 1.383 . S
C1501 C1500 1.383 . S
C1501 C1502 1.393 . S
C1502 H1474 0.931 . S
C1502 C1501 1.393 . S
C1502 C1503 1.382 . S
C1503 H1473 0.929 . S
C1503 C1498 1.371 . S
C1503 C1502 1.382 . S
C1504 N1467 1.423 . S
C1504 C1505 1.362 . S
C1504 C1509 1.388 . S
C1505 H1475 0.929 . S
C1505 C1504 1.362 . S
C1505 C1506 1.376 . S
C1506 H1477 0.963 . S
C1506 C1505 1.376 . S
C1506 C1507 1.396 1_556 S
C1507 C1506 1.396 1_554 S
C1507 C1508 1.348 1_554 S
C1507 C1525 1.472 . S
C1508 H1478 0.929 . S
C1508 C1507 1.348 1_556 S
C1508 C1509 1.443 . S
C1509 H1476 0.932 . S
C1509 C1504 1.388 . S
C1509 C1508 1.443 . S
C1510 N1490 1.433 . S
C1510 C1511 1.363 . S
C1510 C1515 1.370 . S
C1511 H1479 0.929 . S
C1511 C1510 1.363 . S
C1511 C1512 1.385 . S
C1512 H1480 0.930 . S
C1512 C1511 1.385 . S
C1512 C1513 1.357 . S
C1513 C1512 1.357 . S
C1513 C1514 1.406 . S
C1514 H1481 0.929 . S
C1514 C1513 1.406 . S
C1514 C1515 1.391 . S
C1515 H1482 0.931 . S
C1515 C1510 1.370 . S
C1515 C1514 1.391 . S
C1516 N1490 1.435 . S
C1516 C1517 1.358 . S
C1516 C1521 1.371 . S
C1517 H1483 0.930 . S
C1517 C1516 1.358 . S
C1517 C1518 1.405 . S
C1518 H1484 0.932 . S
C1518 C1517 1.405 . S
C1518 C1519 1.383 . S
C1519 C1518 1.383 . S
C1519 C1520 1.393 . S
C1520 H1485 0.931 . S
C1520 C1519 1.393 . S
C1520 C1521 1.382 . S
C1521 H1486 0.929 . S
C1521 C1516 1.371 . S
C1521 C1520 1.382 . S
C1522 N1490 1.423 . S
C1522 C1523 1.362 . S
C1522 C1527 1.388 . S
C1523 H1487 0.929 . S
C1523 C1522 1.362 . S
C1523 C1524 1.376 . S
C1524 H1488 0.931 . S
C1524 C1523 1.376 . S
C1524 C1525 1.396 . S
C1525 C1507 1.472 . S
C1525 C1524 1.396 . S
C1525 C1526 1.348 . S
C1526 H1489 0.929 . S
C1526 C1525 1.348 . S
C1526 C1527 1.443 . S
C1527 H1491 0.932 . S
C1527 C1522 1.388 . S
C1527 C1526 1.443 . S
H1528 C1555 0.929 . S
N1529 C1554 1.433 . S
N1529 C1560 1.435 . S
N1529 C1566 1.423 . S
H1530 C1556 0.930 . S
H1531 C1559 0.931 . S
H1532 C1558 0.929 . S
H1533 C1561 0.930 . S
H1534 C1562 0.932 . S
H1535 C1565 0.929 . S
H1536 C1564 0.931 . S
H1537 C1567 0.929 . S
H1538 C1571 0.932 . S
H1539 C1568 0.932 1_455 S
H1540 C1570 0.958 . S
H1541 C1573 0.929 . S
H1542 C1574 0.930 . S
H1543 C1576 0.929 . S
H1544 C1577 0.931 . S
H1545 C1579 0.930 . S
H1546 C1580 0.932 . S
H1547 C1582 0.931 . S
H1548 C1583 0.929 . S
H1549 C1585 0.929 . S
H1550 C1586 0.931 . S
H1551 C1588 0.929 . S
N1552 C1572 1.433 . S
N1552 C1578 1.435 . S
N1552 C1584 1.423 . S
H1553 C1589 0.932 . S
C1554 N1529 1.433 . S
C1554 C1555 1.363 . S
C1554 C1559 1.370 . S
C1555 H1528 0.929 . S
C1555 C1554 1.363 . S
C1555 C1556 1.385 . S
C1556 H1530 0.930 . S
C1556 C1555 1.385 . S
C1556 C1557 1.357 . S
C1557 C1556 1.357 . S
C1557 C1558 1.406 . S
C1558 H1532 0.929 . S
C1558 C1557 1.406 . S
C1558 C1559 1.391 . S
C1559 H1531 0.931 . S
C1559 C1554 1.370 . S
C1559 C1558 1.391 . S
C1560 N1529 1.435 . S
C1560 C1561 1.358 . S
C1560 C1565 1.371 . S
C1561 H1533 0.930 . S
C1561 C1560 1.358 . S
C1561 C1562 1.405 . S
C1562 H1534 0.932 . S
C1562 C1561 1.405 . S
C1562 C1563 1.383 . S
C1563 C1562 1.383 . S
C1563 C1564 1.393 . S
C1564 H1536 0.931 . S
C1564 C1563 1.393 . S
C1564 C1565 1.382 . S
C1565 H1535 0.929 . S
C1565 C1560 1.371 . S
C1565 C1564 1.382 . S
C1566 N1529 1.423 . S
C1566 C1567 1.362 . S
C1566 C1571 1.388 . S
C1567 H1537 0.929 . S
C1567 C1566 1.362 . S
C1567 C1568 1.376 . S
C1568 H1539 0.932 1_655 S
C1568 C1567 1.376 . S
C1568 C1569 1.396 1_655 S
C1569 C1568 1.396 1_455 S
C1569 C1570 1.348 1_455 S
C1569 C1587 1.472 . S
C1570 H1540 0.958 . S
C1570 C1569 1.348 1_655 S
C1570 C1571 1.443 . S
C1571 H1538 0.932 . S
C1571 C1566 1.388 . S
C1571 C1570 1.443 . S
C1572 N1552 1.433 . S
C1572 C1573 1.363 . S
C1572 C1577 1.370 . S
C1573 H1541 0.929 . S
C1573 C1572 1.363 . S
C1573 C1574 1.385 . S
C1574 H1542 0.930 . S
C1574 C1573 1.385 . S
C1574 C1575 1.357 . S
C1575 C1574 1.357 . S
C1575 C1576 1.406 . S
C1576 H1543 0.929 . S
C1576 C1575 1.406 . S
C1576 C1577 1.391 . S
C1577 H1544 0.931 . S
C1577 C1572 1.370 . S
C1577 C1576 1.391 . S
C1578 N1552 1.435 . S
C1578 C1579 1.358 . S
C1578 C1583 1.371 . S
C1579 H1545 0.930 . S
C1579 C1578 1.358 . S
C1579 C1580 1.405 . S
C1580 H1546 0.932 . S
C1580 C1579 1.405 . S
C1580 C1581 1.383 . S
C1581 C1580 1.383 . S
C1581 C1582 1.393 . S
C1582 H1547 0.931 . S
C1582 C1581 1.393 . S
C1582 C1583 1.382 . S
C1583 H1548 0.929 . S
C1583 C1578 1.371 . S
C1583 C1582 1.382 . S
C1584 N1552 1.423 . S
C1584 C1585 1.362 . S
C1584 C1589 1.388 . S
C1585 H1549 0.929 . S
C1585 C1584 1.362 . S
C1585 C1586 1.376 . S
C1586 H1550 0.931 . S
C1586 C1585 1.376 . S
C1586 C1587 1.396 . S
C1587 C1569 1.472 . S
C1587 C1586 1.396 . S
C1587 C1588 1.348 . S
C1588 H1551 0.929 . S
C1588 C1587 1.348 . S
C1588 C1589 1.443 . S
C1589 H1553 0.932 . S
C1589 C1584 1.388 . S
C1589 C1588 1.443 . S
H1590 C1617 0.929 . S
N1591 C1616 1.433 . S
N1591 C1622 1.435 . S
N1591 C1628 1.423 . S
H1592 C1618 0.930 . S
H1593 C1621 0.931 . S
H1594 C1620 0.929 . S
H1595 C1623 0.930 . S
H1596 C1624 0.932 . S
H1597 C1627 0.929 . S
H1598 C1626 0.931 . S
H1599 C1629 0.929 . S
H1600 C1633 0.932 . S
H1601 C1630 0.931 . S
H1602 C1632 0.929 . S
H1603 C1635 0.929 . S
H1604 C1636 0.930 . S
H1605 C1638 0.929 . S
H1606 C1639 0.931 . S
H1607 C1641 0.930 . S
H1608 C1642 0.932 . S
H1609 C1644 0.931 . S
H1610 C1645 0.929 . S
H1611 C1647 0.929 . S
H1612 C1648 0.931 . S
H1613 C1650 0.929 . S
N1614 C1634 1.433 . S
N1614 C1640 1.435 . S
N1614 C1646 1.423 . S
H1615 C1651 0.932 . S
C1616 N1591 1.433 . S
C1616 C1617 1.363 . S
C1616 C1621 1.370 . S
C1617 H1590 0.929 . S
C1617 C1616 1.363 . S
C1617 C1618 1.385 . S
C1618 H1592 0.930 . S
C1618 C1617 1.385 . S
C1618 C1619 1.357 . S
C1619 C1618 1.357 . S
C1619 C1620 1.406 . S
C1620 H1594 0.929 . S
C1620 C1619 1.406 . S
C1620 C1621 1.391 . S
C1621 H1593 0.931 . S
C1621 C1616 1.370 . S
C1621 C1620 1.391 . S
C1622 N1591 1.435 . S
C1622 C1623 1.358 . S
C1622 C1627 1.371 . S
C1623 H1595 0.930 . S
C1623 C1622 1.358 . S
C1623 C1624 1.405 . S
C1624 H1596 0.932 . S
C1624 C1623 1.405 . S
C1624 C1625 1.383 . S
C1625 C1624 1.383 . S
C1625 C1626 1.393 . S
C1626 H1598 0.931 . S
C1626 C1625 1.393 . S
C1626 C1627 1.382 . S
C1627 H1597 0.929 . S
C1627 C1622 1.371 . S
C1627 C1626 1.382 . S
C1628 N1591 1.423 . S
C1628 C1629 1.362 . S
C1628 C1633 1.388 . S
C1629 H1599 0.929 . S
C1629 C1628 1.362 . S
C1629 C1630 1.376 . S
C1630 H1601 0.931 . S
C1630 C1629 1.376 . S
C1630 C1631 1.396 . S
C1631 C1630 1.396 . S
C1631 C1632 1.348 . S
C1631 C1649 1.472 1_545 S
C1632 H1602 0.929 . S
C1632 C1631 1.348 . S
C1632 C1633 1.443 . S
C1633 H1600 0.932 . S
C1633 C1628 1.388 . S
C1633 C1632 1.443 . S
C1634 N1614 1.433 . S
C1634 C1635 1.363 . S
C1634 C1639 1.370 . S
C1635 H1603 0.929 . S
C1635 C1634 1.363 . S
C1635 C1636 1.385 . S
C1636 H1604 0.930 . S
C1636 C1635 1.385 . S
C1636 C1637 1.357 . S
C1637 C1636 1.357 . S
C1637 C1638 1.406 . S
C1638 H1605 0.929 . S
C1638 C1637 1.406 . S
C1638 C1639 1.391 . S
C1639 H1606 0.931 . S
C1639 C1634 1.370 . S
C1639 C1638 1.391 . S
C1640 N1614 1.435 . S
C1640 C1641 1.358 . S
C1640 C1645 1.371 . S
C1641 H1607 0.930 . S
C1641 C1640 1.358 . S
C1641 C1642 1.405 . S
C1642 H1608 0.932 . S
C1642 C1641 1.405 . S
C1642 C1643 1.383 . S
C1643 C1642 1.383 . S
C1643 C1644 1.393 . S
C1644 H1609 0.931 . S
C1644 C1643 1.393 . S
C1644 C1645 1.382 . S
C1645 H1610 0.929 . S
C1645 C1640 1.371 . S
C1645 C1644 1.382 . S
C1646 N1614 1.423 . S
C1646 C1647 1.362 . S
C1646 C1651 1.388 . S
C1647 H1611 0.929 . S
C1647 C1646 1.362 . S
C1647 C1648 1.376 . S
C1648 H1612 0.931 . S
C1648 C1647 1.376 . S
C1648 C1649 1.396 . S
C1649 C1631 1.472 1_565 S
C1649 C1648 1.396 . S
C1649 C1650 1.348 . S
C1650 H1613 0.929 . S
C1650 C1649 1.348 . S
C1650 C1651 1.443 . S
C1651 H1615 0.932 . S
C1651 C1646 1.388 . S
C1651 C1650 1.443 . S
H1652 C1679 0.929 . S
N1653 C1678 1.433 . S
N1653 C1684 1.435 . S
N1653 C1690 1.423 . S
H1654 C1680 0.930 . S
H1655 C1683 0.931 . S
H1656 C1682 0.929 . S
H1657 C1685 0.930 . S
H1658 C1686 0.932 . S
H1659 C1689 0.929 . S
H1660 C1688 0.931 . S
H1661 C1691 0.929 . S
H1662 C1695 0.932 . S
H1663 C1692 0.931 . S
H1664 C1694 0.929 . S
H1665 C1697 0.929 . S
H1666 C1698 0.930 . S
H1667 C1700 0.929 . S
H1668 C1701 0.931 . S
H1669 C1703 0.930 . S
H1670 C1704 0.932 . S
H1671 C1706 0.931 . S
H1672 C1707 0.929 . S
H1673 C1709 0.929 . S
H1674 C1710 0.976 . S
H1675 C1712 0.935 1_455 S
N1676 C1696 1.433 . S
N1676 C1702 1.435 . S
N1676 C1708 1.423 . S
H1677 C1713 0.932 . S
C1678 N1653 1.433 . S
C1678 C1679 1.363 . S
C1678 C1683 1.370 . S
C1679 H1652 0.929 . S
C1679 C1678 1.363 . S
C1679 C1680 1.385 . S
C1680 H1654 0.930 . S
C1680 C1679 1.385 . S
C1680 C1681 1.357 . S
C1681 C1680 1.357 . S
C1681 C1682 1.406 . S
C1682 H1656 0.929 . S
C1682 C1681 1.406 . S
C1682 C1683 1.391 . S
C1683 H1655 0.931 . S
C1683 C1678 1.370 . S
C1683 C1682 1.391 . S
C1684 N1653 1.435 . S
C1684 C1685 1.358 . S
C1684 C1689 1.371 . S
C1685 H1657 0.930 . S
C1685 C1684 1.358 . S
C1685 C1686 1.405 . S
C1686 H1658 0.932 . S
C1686 C1685 1.405 . S
C1686 C1687 1.383 . S
C1687 C1686 1.383 . S
C1687 C1688 1.393 . S
C1688 H1660 0.931 . S
C1688 C1687 1.393 . S
C1688 C1689 1.382 . S
C1689 H1659 0.929 . S
C1689 C1684 1.371 . S
C1689 C1688 1.382 . S
C1690 N1653 1.423 . S
C1690 C1691 1.362 . S
C1690 C1695 1.388 . S
C1691 H1661 0.929 . S
C1691 C1690 1.362 . S
C1691 C1692 1.376 . S
C1692 H1663 0.931 . S
C1692 C1691 1.376 . S
C1692 C1693 1.396 . S
C1693 C1692 1.396 . S
C1693 C1694 1.348 . S
C1693 C1711 1.472 . S
C1694 H1664 0.929 . S
C1694 C1693 1.348 . S
C1694 C1695 1.443 . S
C1695 H1662 0.932 . S
C1695 C1690 1.388 . S
C1695 C1694 1.443 . S
C1696 N1676 1.433 . S
C1696 C1697 1.363 . S
C1696 C1701 1.370 . S
C1697 H1665 0.929 . S
C1697 C1696 1.363 . S
C1697 C1698 1.385 . S
C1698 H1666 0.930 . S
C1698 C1697 1.385 . S
C1698 C1699 1.357 . S
C1699 C1698 1.357 . S
C1699 C1700 1.406 . S
C1700 H1667 0.929 . S
C1700 C1699 1.406 . S
C1700 C1701 1.391 . S
C1701 H1668 0.931 . S
C1701 C1696 1.370 . S
C1701 C1700 1.391 . S
C1702 N1676 1.435 . S
C1702 C1703 1.358 . S
C1702 C1707 1.371 . S
C1703 H1669 0.930 . S
C1703 C1702 1.358 . S
C1703 C1704 1.405 . S
C1704 H1670 0.932 . S
C1704 C1703 1.405 . S
C1704 C1705 1.383 . S
C1705 C1704 1.383 . S
C1705 C1706 1.393 . S
C1706 H1671 0.931 . S
C1706 C1705 1.393 . S
C1706 C1707 1.382 . S
C1707 H1672 0.929 . S
C1707 C1702 1.371 . S
C1707 C1706 1.382 . S
C1708 N1676 1.423 . S
C1708 C1709 1.362 . S
C1708 C1713 1.388 . S
C1709 H1673 0.929 . S
C1709 C1708 1.362 . S
C1709 C1710 1.376 . S
C1710 H1674 0.976 . S
C1710 C1709 1.376 . S
C1710 C1711 1.396 1_655 S
C1711 C1693 1.472 . S
C1711 C1710 1.396 1_455 S
C1711 C1712 1.348 1_455 S
C1712 H1675 0.935 1_655 S
C1712 C1711 1.348 1_655 S
C1712 C1713 1.443 . S
C1713 H1677 0.932 . S
C1713 C1708 1.388 . S
C1713 C1712 1.443 . S
H1714 C1741 0.929 . S
N1715 C1740 1.433 . S
N1715 C1746 1.435 . S
N1715 C1752 1.423 . S
H1716 C1742 0.930 . S
H1717 C1745 0.931 . S
H1718 C1744 0.929 . S
H1719 C1747 0.930 . S
H1720 C1748 0.932 . S
H1721 C1751 0.929 . S
H1722 C1750 0.931 . S
H1723 C1753 0.929 . S
H1724 C1757 0.932 . S
H1725 C1754 0.931 . S
H1726 C1756 0.929 . S
H1727 C1759 0.929 . S
H1728 C1760 0.930 . S
H1729 C1762 0.929 . S
H1730 C1763 0.931 . S
H1731 C1765 0.930 . S
H1732 C1766 0.932 . S
H1733 C1768 0.931 . S
H1734 C1769 0.929 . S
H1735 C1771 0.929 . S
H1736 C1772 0.931 . S
H1737 C1774 0.929 . S
N1738 C1758 1.433 . S
N1738 C1764 1.435 . S
N1738 C1770 1.423 . S
H1739 C1775 0.932 . S
C1740 N1715 1.433 . S
C1740 C1741 1.363 . S
C1740 C1745 1.370 . S
C1741 H1714 0.929 . S
C1741 C1740 1.363 . S
C1741 C1742 1.385 . S
C1742 H1716 0.930 . S
C1742 C1741 1.385 . S
C1742 C1743 1.357 . S
C1743 C1742 1.357 . S
C1743 C1744 1.406 . S
C1744 H1718 0.929 . S
C1744 C1743 1.406 . S
C1744 C1745 1.391 . S
C1745 H1717 0.931 . S
C1745 C1740 1.370 . S
C1745 C1744 1.391 . S
C1746 N1715 1.435 . S
C1746 C1747 1.358 . S
C1746 C1751 1.371 . S
C1747 H1719 0.930 . S
C1747 C1746 1.358 . S
C1747 C1748 1.405 . S
C1748 H1720 0.932 . S
C1748 C1747 1.405 . S
C1748 C1749 1.383 . S
C1749 C1748 1.383 . S
C1749 C1750 1.393 . S
C1750 H1722 0.931 . S
C1750 C1749 1.393 . S
C1750 C1751 1.382 . S
C1751 H1721 0.929 . S
C1751 C1746 1.371 . S
C1751 C1750 1.382 . S
C1752 N1715 1.423 . S
C1752 C1753 1.362 . S
C1752 C1757 1.388 . S
C1753 H1723 0.929 . S
C1753 C1752 1.362 . S
C1753 C1754 1.376 . S
C1754 H1725 0.931 . S
C1754 C1753 1.376 . S
C1754 C1755 1.396 . S
C1755 C1754 1.396 . S
C1755 C1756 1.348 . S
C1755 C1773 1.472 1_565 S
C1756 H1726 0.929 . S
C1756 C1755 1.348 . S
C1756 C1757 1.443 . S
C1757 H1724 0.932 . S
C1757 C1752 1.388 . S
C1757 C1756 1.443 . S
C1758 N1738 1.433 . S
C1758 C1759 1.363 . S
C1758 C1763 1.370 . S
C1759 H1727 0.929 . S
C1759 C1758 1.363 . S
C1759 C1760 1.385 . S
C1760 H1728 0.930 . S
C1760 C1759 1.385 . S
C1760 C1761 1.357 . S
C1761 C1760 1.357 . S
C1761 C1762 1.406 . S
C1762 H1729 0.929 . S
C1762 C1761 1.406 . S
C1762 C1763 1.391 . S
C1763 H1730 0.931 . S
C1763 C1758 1.370 . S
C1763 C1762 1.391 . S
C1764 N1738 1.435 . S
C1764 C1765 1.358 . S
C1764 C1769 1.371 . S
C1765 H1731 0.930 . S
C1765 C1764 1.358 . S
C1765 C1766 1.405 . S
C1766 H1732 0.932 . S
C1766 C1765 1.405 . S
C1766 C1767 1.383 . S
C1767 C1766 1.383 . S
C1767 C1768 1.393 . S
C1768 H1733 0.931 . S
C1768 C1767 1.393 . S
C1768 C1769 1.382 . S
C1769 H1734 0.929 . S
C1769 C1764 1.371 . S
C1769 C1768 1.382 . S
C1770 N1738 1.423 . S
C1770 C1771 1.362 . S
C1770 C1775 1.388 . S
C1771 H1735 0.929 . S
C1771 C1770 1.362 . S
C1771 C1772 1.376 . S
C1772 H1736 0.931 . S
C1772 C1771 1.376 . S
C1772 C1773 1.396 . S
C1773 C1755 1.472 1_545 S
C1773 C1772 1.396 . S
C1773 C1774 1.348 . S
C1774 H1737 0.929 . S
C1774 C1773 1.348 . S
C1774 C1775 1.443 . S
C1775 H1739 0.932 . S
C1775 C1770 1.388 . S
C1775 C1774 1.443 . S
H1776 C1803 0.929 . S
N1777 C1802 1.433 . S
N1777 C1808 1.435 . S
N1777 C1814 1.423 . S
H1778 C1804 0.930 . S
H1779 C1807 0.931 . S
H1780 C1806 0.929 . S
H1781 C1809 0.930 . S
H1782 C1810 0.932 . S
H1783 C1813 0.929 . S
H1784 C1812 0.931 . S
H1785 C1815 0.929 . S
H1786 C1819 0.932 . S
H1787 C1816 0.931 . S
H1788 C1818 0.929 . S
H1789 C1821 0.929 . S
H1790 C1822 0.930 . S
H1791 C1824 0.929 . S
H1792 C1825 0.931 . S
H1793 C1827 0.930 . S
H1794 C1828 0.932 . S
H1795 C1830 0.931 . S
H1796 C1831 0.929 . S
H1797 C1833 0.929 . S
H1798 C1834 0.960 . S
H1799 C1836 0.929 1_455 S
N1800 C1820 1.433 . S
N1800 C1826 1.435 . S
N1800 C1832 1.423 . S
H1801 C1837 0.932 . S
C1802 N1777 1.433 . S
C1802 C1803 1.363 . S
C1802 C1807 1.370 . S
C1803 H1776 0.929 . S
C1803 C1802 1.363 . S
C1803 C1804 1.385 . S
C1804 H1778 0.930 . S
C1804 C1803 1.385 . S
C1804 C1805 1.357 . S
C1805 C1804 1.357 . S
C1805 C1806 1.406 . S
C1806 H1780 0.929 . S
C1806 C1805 1.406 . S
C1806 C1807 1.391 . S
C1807 H1779 0.931 . S
C1807 C1802 1.370 . S
C1807 C1806 1.391 . S
C1808 N1777 1.435 . S
C1808 C1809 1.358 . S
C1808 C1813 1.371 . S
C1809 H1781 0.930 . S
C1809 C1808 1.358 . S
C1809 C1810 1.405 . S
C1810 H1782 0.932 . S
C1810 C1809 1.405 . S
C1810 C1811 1.383 . S
C1811 C1810 1.383 . S
C1811 C1812 1.393 . S
C1812 H1784 0.931 . S
C1812 C1811 1.393 . S
C1812 C1813 1.382 . S
C1813 H1783 0.929 . S
C1813 C1808 1.371 . S
C1813 C1812 1.382 . S
C1814 N1777 1.423 . S
C1814 C1815 1.362 . S
C1814 C1819 1.388 . S
C1815 H1785 0.929 . S
C1815 C1814 1.362 . S
C1815 C1816 1.376 . S
C1816 H1787 0.931 . S
C1816 C1815 1.376 . S
C1816 C1817 1.396 . S
C1817 C1816 1.396 . S
C1817 C1818 1.348 . S
C1817 C1835 1.472 . S
C1818 H1788 0.929 . S
C1818 C1817 1.348 . S
C1818 C1819 1.443 . S
C1819 H1786 0.932 . S
C1819 C1814 1.388 . S
C1819 C1818 1.443 . S
C1820 N1800 1.433 . S
C1820 C1821 1.363 . S
C1820 C1825 1.370 . S
C1821 H1789 0.929 . S
C1821 C1820 1.363 . S
C1821 C1822 1.385 . S
C1822 H1790 0.930 . S
C1822 C1821 1.385 . S
C1822 C1823 1.357 . S
C1823 C1822 1.357 . S
C1823 C1824 1.406 . S
C1824 H1791 0.929 . S
C1824 C1823 1.406 . S
C1824 C1825 1.391 . S
C1825 H1792 0.931 . S
C1825 C1820 1.370 . S
C1825 C1824 1.391 . S
C1826 N1800 1.435 . S
C1826 C1827 1.358 . S
C1826 C1831 1.371 . S
C1827 H1793 0.930 . S
C1827 C1826 1.358 . S
C1827 C1828 1.405 . S
C1828 H1794 0.932 . S
C1828 C1827 1.405 . S
C1828 C1829 1.383 . S
C1829 C1828 1.383 . S
C1829 C1830 1.393 . S
C1830 H1795 0.931 . S
C1830 C1829 1.393 . S
C1830 C1831 1.382 . S
C1831 H1796 0.929 . S
C1831 C1826 1.371 . S
C1831 C1830 1.382 . S
C1832 N1800 1.423 . S
C1832 C1833 1.362 . S
C1832 C1837 1.388 . S
C1833 H1797 0.929 . S
C1833 C1832 1.362 . S
C1833 C1834 1.376 . S
C1834 H1798 0.960 . S
C1834 C1833 1.376 . S
C1834 C1835 1.396 1_655 S
C1835 C1817 1.472 . S
C1835 C1834 1.396 1_455 S
C1835 C1836 1.348 1_455 S
C1836 H1799 0.929 1_655 S
C1836 C1835 1.348 1_655 S
C1836 C1837 1.443 . S
C1837 H1801 0.932 . S
C1837 C1832 1.388 . S
C1837 C1836 1.443 . S
H1838 C1865 0.929 . S
N1839 C1864 1.433 . S
N1839 C1870 1.435 . S
N1839 C1876 1.423 . S
H1840 C1866 0.930 . S
H1841 C1869 0.931 . S
H1842 C1868 0.929 . S
H1843 C1871 0.930 . S
H1844 C1872 0.932 . S
H1845 C1875 0.929 . S
H1846 C1874 0.931 . S
H1847 C1877 0.929 . S
H1848 C1881 0.932 . S
H1849 C1878 0.931 . S
H1850 C1880 0.929 . S
H1851 C1883 0.929 . S
H1852 C1884 0.930 . S
H1853 C1886 0.929 . S
H1854 C1887 0.931 . S
H1855 C1889 0.930 . S
H1856 C1890 0.932 . S
H1857 C1892 0.931 . S
H1858 C1893 0.929 . S
H1859 C1895 0.929 . S
H1860 C1896 0.931 . S
H1861 C1898 0.929 . S
N1862 C1882 1.433 . S
N1862 C1888 1.435 . S
N1862 C1894 1.423 . S
H1863 C1899 0.932 . S
C1864 N1839 1.433 . S
C1864 C1865 1.363 . S
C1864 C1869 1.370 . S
C1865 H1838 0.929 . S
C1865 C1864 1.363 . S
C1865 C1866 1.385 . S
C1866 H1840 0.930 . S
C1866 C1865 1.385 . S
C1866 C1867 1.357 . S
C1867 C1866 1.357 . S
C1867 C1868 1.406 . S
C1868 H1842 0.929 . S
C1868 C1867 1.406 . S
C1868 C1869 1.391 . S
C1869 H1841 0.931 . S
C1869 C1864 1.370 . S
C1869 C1868 1.391 . S
C1870 N1839 1.435 . S
C1870 C1871 1.358 . S
C1870 C1875 1.371 . S
C1871 H1843 0.930 . S
C1871 C1870 1.358 . S
C1871 C1872 1.405 . S
C1872 H1844 0.932 . S
C1872 C1871 1.405 . S
C1872 C1873 1.383 . S
C1873 C1872 1.383 . S
C1873 C1874 1.393 . S
C1874 H1846 0.931 . S
C1874 C1873 1.393 . S
C1874 C1875 1.382 . S
C1875 H1845 0.929 . S
C1875 C1870 1.371 . S
C1875 C1874 1.382 . S
C1876 N1839 1.423 . S
C1876 C1877 1.362 . S
C1876 C1881 1.388 . S
C1877 H1847 0.929 . S
C1877 C1876 1.362 . S
C1877 C1878 1.376 . S
C1878 H1849 0.931 . S
C1878 C1877 1.376 . S
C1878 C1879 1.396 . S
C1879 C1878 1.396 . S
C1879 C1880 1.348 . S
C1879 C1897 1.472 1_545 S
C1880 H1850 0.929 . S
C1880 C1879 1.348 . S
C1880 C1881 1.443 . S
C1881 H1848 0.932 . S
C1881 C1876 1.388 . S
C1881 C1880 1.443 . S
C1882 N1862 1.433 . S
C1882 C1883 1.363 . S
C1882 C1887 1.370 . S
C1883 H1851 0.929 . S
C1883 C1882 1.363 . S
C1883 C1884 1.385 . S
C1884 H1852 0.930 . S
C1884 C1883 1.385 . S
C1884 C1885 1.357 . S
C1885 C1884 1.357 . S
C1885 C1886 1.406 . S
C1886 H1853 0.929 . S
C1886 C1885 1.406 . S
C1886 C1887 1.391 . S
C1887 H1854 0.931 . S
C1887 C1882 1.370 . S
C1887 C1886 1.391 . S
C1888 N1862 1.435 . S
C1888 C1889 1.358 . S
C1888 C1893 1.371 . S
C1889 H1855 0.930 . S
C1889 C1888 1.358 . S
C1889 C1890 1.405 . S
C1890 H1856 0.932 . S
C1890 C1889 1.405 . S
C1890 C1891 1.383 . S
C1891 C1890 1.383 . S
C1891 C1892 1.393 . S
C1892 H1857 0.931 . S
C1892 C1891 1.393 . S
C1892 C1893 1.382 . S
C1893 H1858 0.929 . S
C1893 C1888 1.371 . S
C1893 C1892 1.382 . S
C1894 N1862 1.423 . S
C1894 C1895 1.362 . S
C1894 C1899 1.388 . S
C1895 H1859 0.929 . S
C1895 C1894 1.362 . S
C1895 C1896 1.376 . S
C1896 H1860 0.931 . S
C1896 C1895 1.376 . S
C1896 C1897 1.396 . S
C1897 C1879 1.472 1_565 S
C1897 C1896 1.396 . S
C1897 C1898 1.348 . S
C1898 H1861 0.929 . S
C1898 C1897 1.348 . S
C1898 C1899 1.443 . S
C1899 H1863 0.932 . S
C1899 C1894 1.388 . S
C1899 C1898 1.443 . S
H1900 C1927 0.929 . S
N1901 C1926 1.433 . S
N1901 C1932 1.435 . S
N1901 C1938 1.423 . S
H1902 C1928 0.930 . S
H1903 C1931 0.931 . S
H1904 C1930 0.929 . S
H1905 C1933 0.930 . S
H1906 C1934 0.932 . S
H1907 C1937 0.929 . S
H1908 C1936 0.931 . S
H1909 C1939 0.929 . S
H1910 C1943 0.932 . S
H1911 C1940 0.931 . S
H1912 C1942 0.961 . S
H1913 C1945 0.929 . S
H1914 C1946 0.930 . S
H1915 C1948 0.929 . S
H1916 C1949 0.931 . S
H1917 C1951 0.930 . S
H1918 C1952 0.932 . S
H1919 C1954 0.931 . S
H1920 C1955 0.929 . S
H1921 C1957 0.929 . S
H1922 C1958 0.931 . S
H1923 C1960 0.929 . S
N1924 C1944 1.433 . S
N1924 C1950 1.435 . S
N1924 C1956 1.423 . S
H1925 C1961 0.932 . S
C1926 N1901 1.433 . S
C1926 C1927 1.363 . S
C1926 C1931 1.370 . S
C1927 H1900 0.929 . S
C1927 C1926 1.363 . S
C1927 C1928 1.385 . S
C1928 H1902 0.930 . S
C1928 C1927 1.385 . S
C1928 C1929 1.357 . S
C1929 C1928 1.357 . S
C1929 C1930 1.406 . S
C1930 H1904 0.929 . S
C1930 C1929 1.406 . S
C1930 C1931 1.391 . S
C1931 H1903 0.931 . S
C1931 C1926 1.370 . S
C1931 C1930 1.391 . S
C1932 N1901 1.435 . S
C1932 C1933 1.358 . S
C1932 C1937 1.371 . S
C1933 H1905 0.930 . S
C1933 C1932 1.358 . S
C1933 C1934 1.405 . S
C1934 H1906 0.932 . S
C1934 C1933 1.405 . S
C1934 C1935 1.383 . S
C1935 C1934 1.383 . S
C1935 C1936 1.393 . S
C1936 H1908 0.931 . S
C1936 C1935 1.393 . S
C1936 C1937 1.382 . S
C1937 H1907 0.929 . S
C1937 C1932 1.371 . S
C1937 C1936 1.382 . S
C1938 N1901 1.423 . S
C1938 C1939 1.362 . S
C1938 C1943 1.388 . S
C1939 H1909 0.929 . S
C1939 C1938 1.362 . S
C1939 C1940 1.376 . S
C1940 H1911 0.931 . S
C1940 C1939 1.376 . S
C1940 C1941 1.396 1_655 S
C1941 C1940 1.396 1_455 S
C1941 C1942 1.348 1_455 S
C1941 C1959 1.472 . S
C1942 H1912 0.961 . S
C1942 C1941 1.348 1_655 S
C1942 C1943 1.443 . S
C1943 H1910 0.932 . S
C1943 C1938 1.388 . S
C1943 C1942 1.443 . S
C1944 N1924 1.433 . S
C1944 C1945 1.363 . S
C1944 C1949 1.370 . S
C1945 H1913 0.929 . S
C1945 C1944 1.363 . S
C1945 C1946 1.385 . S
C1946 H1914 0.930 . S
C1946 C1945 1.385 . S
C1946 C1947 1.357 . S
C1947 C1946 1.357 . S
C1947 C1948 1.406 . S
C1948 H1915 0.929 . S
C1948 C1947 1.406 . S
C1948 C1949 1.391 . S
C1949 H1916 0.931 . S
C1949 C1944 1.370 . S
C1949 C1948 1.391 . S
C1950 N1924 1.435 . S
C1950 C1951 1.358 . S
C1950 C1955 1.371 . S
C1951 H1917 0.930 . S
C1951 C1950 1.358 . S
C1951 C1952 1.405 . S
C1952 H1918 0.932 . S
C1952 C1951 1.405 . S
C1952 C1953 1.383 . S
C1953 C1952 1.383 . S
C1953 C1954 1.393 . S
C1954 H1919 0.931 . S
C1954 C1953 1.393 . S
C1954 C1955 1.382 . S
C1955 H1920 0.929 . S
C1955 C1950 1.371 . S
C1955 C1954 1.382 . S
C1956 N1924 1.423 . S
C1956 C1957 1.362 . S
C1956 C1961 1.388 . S
C1957 H1921 0.929 . S
C1957 C1956 1.362 . S
C1957 C1958 1.376 . S
C1958 H1922 0.931 . S
C1958 C1957 1.376 . S
C1958 C1959 1.396 . S
C1959 C1941 1.472 . S
C1959 C1958 1.396 . S
C1959 C1960 1.348 . S
C1960 H1923 0.929 . S
C1960 C1959 1.348 . S
C1960 C1961 1.443 . S
C1961 H1925 0.932 . S
C1961 C1956 1.388 . S
C1961 C1960 1.443 . S
H1962 C1989 0.929 . S
N1963 C1988 1.433 . S
N1963 C1994 1.435 . S
N1963 C2000 1.423 . S
H1964 C1990 0.930 . S
H1965 C1993 0.931 . S
H1966 C1992 0.929 . S
H1967 C1995 0.930 . S
H1968 C1996 0.932 . S
H1969 C1999 0.929 . S
H1970 C1998 0.931 . S
H1971 C2001 0.929 . S
H1972 C2005 0.932 . S
H1973 C2002 0.931 . S
H1974 C2004 0.929 . S
H1975 C2007 0.929 . S
H1976 C2008 0.930 . S
H1977 C2010 0.929 . S
H1978 C2011 0.931 . S
H1979 C2013 0.930 . S
H1980 C2014 0.932 . S
H1981 C2016 0.931 . S
H1982 C2017 0.929 . S
H1983 C2019 0.929 . S
H1984 C2020 0.931 . S
H1985 C2022 0.929 . S
N1986 C2006 1.433 . S
N1986 C2012 1.435 . S
N1986 C2018 1.423 . S
H1987 C2023 0.932 . S
C1988 N1963 1.433 . S
C1988 C1989 1.363 . S
C1988 C1993 1.370 . S
C1989 H1962 0.929 . S
C1989 C1988 1.363 . S
C1989 C1990 1.385 . S
C1990 H1964 0.930 . S
C1990 C1989 1.385 . S
C1990 C1991 1.357 . S
C1991 C1990 1.357 . S
C1991 C1992 1.406 . S
C1992 H1966 0.929 . S
C1992 C1991 1.406 . S
C1992 C1993 1.391 . S
C1993 H1965 0.931 . S
C1993 C1988 1.370 . S
C1993 C1992 1.391 . S
C1994 N1963 1.435 . S
C1994 C1995 1.358 . S
C1994 C1999 1.371 . S
C1995 H1967 0.930 . S
C1995 C1994 1.358 . S
C1995 C1996 1.405 . S
C1996 H1968 0.932 . S
C1996 C1995 1.405 . S
C1996 C1997 1.383 . S
C1997 C1996 1.383 . S
C1997 C1998 1.393 . S
C1998 H1970 0.931 . S
C1998 C1997 1.393 . S
C1998 C1999 1.382 . S
C1999 H1969 0.929 . S
C1999 C1994 1.371 . S
C1999 C1998 1.382 . S
C2000 N1963 1.423 . S
C2000 C2001 1.362 . S
C2000 C2005 1.388 . S
C2001 H1971 0.929 . S
C2001 C2000 1.362 . S
C2001 C2002 1.376 . S
C2002 H1973 0.931 . S
C2002 C2001 1.376 . S
C2002 C2003 1.439 . S
C2003 C2002 1.439 . S
C2003 C2004 1.388 . S
C2003 C2021 1.397 1_565 S
C2004 H1974 0.929 . S
C2004 C2003 1.388 . S
C2004 C2005 1.443 . S
C2005 H1972 0.932 . S
C2005 C2000 1.388 . S
C2005 C2004 1.443 . S
C2006 N1986 1.433 . S
C2006 C2007 1.363 . S
C2006 C2011 1.370 . S
C2007 H1975 0.929 . S
C2007 C2006 1.363 . S
C2007 C2008 1.385 . S
C2008 H1976 0.930 . S
C2008 C2007 1.385 . S
C2008 C2009 1.357 . S
C2009 C2008 1.357 . S
C2009 C2010 1.406 . S
C2010 H1977 0.929 . S
C2010 C2009 1.406 . S
C2010 C2011 1.391 . S
C2011 H1978 0.931 . S
C2011 C2006 1.370 . S
C2011 C2010 1.391 . S
C2012 N1986 1.435 . S
C2012 C2013 1.358 . S
C2012 C2017 1.371 . S
C2013 H1979 0.930 . S
C2013 C2012 1.358 . S
C2013 C2014 1.405 . S
C2014 H1980 0.932 . S
C2014 C2013 1.405 . S
C2014 C2015 1.383 . S
C2015 C2014 1.383 . S
C2015 C2016 1.393 . S
C2016 H1981 0.931 . S
C2016 C2015 1.393 . S
C2016 C2017 1.382 . S
C2017 H1982 0.929 . S
C2017 C2012 1.371 . S
C2017 C2016 1.382 . S
C2018 N1986 1.423 . S
C2018 C2019 1.362 . S
C2018 C2023 1.388 . S
C2019 H1983 0.929 . S
C2019 C2018 1.362 . S
C2019 C2020 1.376 . S
C2020 H1984 0.931 . S
C2020 C2019 1.376 . S
C2020 C2021 1.396 . S
C2021 C2003 1.397 1_545 S
C2021 C2020 1.396 . S
C2021 C2022 1.348 . S
C2022 H1985 0.929 . S
C2022 C2021 1.348 . S
C2022 C2023 1.443 . S
C2023 H1987 0.932 . S
C2023 C2018 1.388 . S
C2023 C2022 1.443 . S
H2024 C2051 0.929 . S
N2025 C2050 1.433 . S
N2025 C2056 1.435 . S
N2025 C2062 1.423 . S
H2026 C2052 0.930 . S
H2027 C2055 0.931 . S
H2028 C2054 0.929 . S
H2029 C2057 0.930 . S
H2030 C2058 0.932 . S
H2031 C2061 0.929 . S
H2032 C2060 0.931 . S
H2033 C2063 0.929 . S
H2034 C2067 0.932 . S
H2035 C2064 0.931 . S
H2036 C2066 0.929 . S
H2037 C2069 0.929 . S
H2038 C2070 0.930 . S
H2039 C2072 0.929 . S
H2040 C2073 0.931 . S
H2041 C2075 0.930 . S
H2042 C2076 0.932 . S
H2043 C2078 0.931 . S
H2044 C2079 0.929 . S
H2045 C2081 0.929 . S
H2046 C2082 0.931 . S
H2047 C2084 0.929 . S
N2048 C2068 1.433 . S
N2048 C2074 1.435 . S
N2048 C2080 1.423 . S
H2049 C2085 0.932 . S
C2050 N2025 1.433 . S
C2050 C2051 1.363 . S
C2050 C2055 1.370 . S
C2051 H2024 0.929 . S
C2051 C2050 1.363 . S
C2051 C2052 1.385 . S
C2052 H2026 0.930 . S
C2052 C2051 1.385 . S
C2052 C2053 1.357 . S
C2053 C2052 1.357 . S
C2053 C2054 1.406 . S
C2054 H2028 0.929 . S
C2054 C2053 1.406 . S
C2054 C2055 1.391 . S
C2055 H2027 0.931 . S
C2055 C2050 1.370 . S
C2055 C2054 1.391 . S
C2056 N2025 1.435 . S
C2056 C2057 1.358 . S
C2056 C2061 1.371 . S
C2057 H2029 0.930 . S
C2057 C2056 1.358 . S
C2057 C2058 1.405 . S
C2058 H2030 0.932 . S
C2058 C2057 1.405 . S
C2058 C2059 1.383 . S
C2059 C2058 1.383 . S
C2059 C2060 1.393 . S
C2060 H2032 0.931 . S
C2060 C2059 1.393 . S
C2060 C2061 1.382 . S
C2061 H2031 0.929 . S
C2061 C2056 1.371 . S
C2061 C2060 1.382 . S
C2062 N2025 1.423 . S
C2062 C2063 1.362 . S
C2062 C2067 1.388 . S
C2063 H2033 0.929 . S
C2063 C2062 1.362 . S
C2063 C2064 1.376 . S
C2064 H2035 0.931 . S
C2064 C2063 1.376 . S
C2064 C2065 1.396 . S
C2065 C2064 1.396 . S
C2065 C2066 1.348 . S
C2065 C2083 1.472 . S
C2066 H2036 0.929 . S
C2066 C2065 1.348 . S
C2066 C2067 1.443 . S
C2067 H2034 0.932 . S
C2067 C2062 1.388 . S
C2067 C2066 1.443 . S
C2068 N2048 1.433 . S
C2068 C2069 1.363 . S
C2068 C2073 1.370 . S
C2069 H2037 0.929 . S
C2069 C2068 1.363 . S
C2069 C2070 1.385 . S
C2070 H2038 0.930 . S
C2070 C2069 1.385 . S
C2070 C2071 1.357 . S
C2071 C2070 1.357 . S
C2071 C2072 1.406 . S
C2072 H2039 0.929 . S
C2072 C2071 1.406 . S
C2072 C2073 1.391 . S
C2073 H2040 0.931 . S
C2073 C2068 1.370 . S
C2073 C2072 1.391 . S
C2074 N2048 1.435 . S
C2074 C2075 1.358 . S
C2074 C2079 1.371 . S
C2075 H2041 0.930 . S
C2075 C2074 1.358 . S
C2075 C2076 1.405 . S
C2076 H2042 0.932 . S
C2076 C2075 1.405 . S
C2076 C2077 1.383 . S
C2077 C2076 1.383 . S
C2077 C2078 1.393 . S
C2078 H2043 0.931 . S
C2078 C2077 1.393 . S
C2078 C2079 1.382 . S
C2079 H2044 0.929 . S
C2079 C2074 1.371 . S
C2079 C2078 1.382 . S
C2080 N2048 1.423 . S
C2080 C2081 1.362 . S
C2080 C2085 1.388 . S
C2081 H2045 0.929 . S
C2081 C2080 1.362 . S
C2081 C2082 1.376 . S
C2082 H2046 0.931 . S
C2082 C2081 1.376 . S
C2082 C2083 1.396 . S
C2083 C2065 1.472 . S
C2083 C2082 1.396 . S
C2083 C2084 1.348 . S
C2084 H2047 0.929 . S
C2084 C2083 1.348 . S
C2084 C2085 1.443 . S
C2085 H2049 0.932 . S
C2085 C2080 1.388 . S
C2085 C2084 1.443 . S
H2086 C2113 0.929 . S
N2087 C2112 1.433 . S
N2087 C2118 1.435 . S
N2087 C2124 1.423 . S
H2088 C2114 0.930 . S
H2089 C2117 0.931 . S
H2090 C2116 0.929 . S
H2091 C2119 0.930 . S
H2092 C2120 0.932 . S
H2093 C2123 0.929 . S
H2094 C2122 0.931 . S
H2095 C2125 0.929 . S
H2096 C2129 0.932 . S
H2097 C2126 0.931 . S
H2098 C2128 0.929 . S
H2099 C2131 0.929 . S
H2100 C2132 0.930 . S
H2101 C2134 0.929 . S
H2102 C2135 0.931 . S
H2103 C2137 0.930 . S
H2104 C2138 0.932 . S
H2105 C2140 0.931 . S
H2106 C2141 0.929 . S
H2107 C2143 0.929 . S
H2108 C2144 0.931 . S
H2109 C2146 0.929 . S
N2110 C2130 1.433 . S
N2110 C2136 1.435 . S
N2110 C2142 1.423 . S
H2111 C2147 0.932 . S
C2112 N2087 1.433 . S
C2112 C2113 1.363 . S
C2112 C2117 1.370 . S
C2113 H2086 0.929 . S
C2113 C2112 1.363 . S
C2113 C2114 1.385 . S
C2114 H2088 0.930 . S
C2114 C2113 1.385 . S
C2114 C2115 1.357 . S
C2115 C2114 1.357 . S
C2115 C2116 1.406 . S
C2116 H2090 0.929 . S
C2116 C2115 1.406 . S
C2116 C2117 1.391 . S
C2117 H2089 0.931 . S
C2117 C2112 1.370 . S
C2117 C2116 1.391 . S
C2118 N2087 1.435 . S
C2118 C2119 1.358 . S
C2118 C2123 1.371 . S
C2119 H2091 0.930 . S
C2119 C2118 1.358 . S
C2119 C2120 1.405 . S
C2120 H2092 0.932 . S
C2120 C2119 1.405 . S
C2120 C2121 1.383 . S
C2121 C2120 1.383 . S
C2121 C2122 1.393 . S
C2122 H2094 0.931 . S
C2122 C2121 1.393 . S
C2122 C2123 1.382 . S
C2123 H2093 0.929 . S
C2123 C2118 1.371 . S
C2123 C2122 1.382 . S
C2124 N2087 1.423 . S
C2124 C2125 1.362 . S
C2124 C2129 1.388 . S
C2125 H2095 0.929 . S
C2125 C2124 1.362 . S
C2125 C2126 1.376 . S
C2126 H2097 0.931 . S
C2126 C2125 1.376 . S
C2126 C2127 1.396 . S
C2127 C2126 1.396 . S
C2127 C2128 1.348 . S
C2127 C2145 1.472 . S
C2128 H2098 0.929 . S
C2128 C2127 1.348 . S
C2128 C2129 1.443 . S
C2129 H2096 0.932 . S
C2129 C2124 1.388 . S
C2129 C2128 1.443 . S
C2130 N2110 1.433 . S
C2130 C2131 1.363 . S
C2130 C2135 1.370 . S
C2131 H2099 0.929 . S
C2131 C2130 1.363 . S
C2131 C2132 1.385 . S
C2132 H2100 0.930 . S
C2132 C2131 1.385 . S
C2132 C2133 1.357 . S
C2133 C2132 1.357 . S
C2133 C2134 1.406 . S
C2134 H2101 0.929 . S
C2134 C2133 1.406 . S
C2134 C2135 1.391 . S
C2135 H2102 0.931 . S
C2135 C2130 1.370 . S
C2135 C2134 1.391 . S
C2136 N2110 1.435 . S
C2136 C2137 1.358 . S
C2136 C2141 1.371 . S
C2137 H2103 0.930 . S
C2137 C2136 1.358 . S
C2137 C2138 1.405 . S
C2138 H2104 0.932 . S
C2138 C2137 1.405 . S
C2138 C2139 1.383 . S
C2139 C2138 1.383 . S
C2139 C2140 1.393 . S
C2140 H2105 0.931 . S
C2140 C2139 1.393 . S
C2140 C2141 1.382 . S
C2141 H2106 0.929 . S
C2141 C2136 1.371 . S
C2141 C2140 1.382 . S
C2142 N2110 1.423 . S
C2142 C2143 1.362 . S
C2142 C2147 1.388 . S
C2143 H2107 0.929 . S
C2143 C2142 1.362 . S
C2143 C2144 1.376 . S
C2144 H2108 0.931 . S
C2144 C2143 1.376 . S
C2144 C2145 1.396 . S
C2145 C2127 1.472 . S
C2145 C2144 1.396 . S
C2145 C2146 1.348 . S
C2146 H2109 0.929 . S
C2146 C2145 1.348 . S
C2146 C2147 1.443 . S
C2147 H2111 0.932 . S
C2147 C2142 1.388 . S
C2147 C2146 1.443 . S
H2148 C2175 0.929 . S
N2149 C2174 1.433 . S
N2149 C2180 1.435 . S
N2149 C2186 1.423 . S
H2150 C2176 0.930 . S
H2151 C2179 0.931 . S
H2152 C2178 0.929 . S
H2153 C2181 0.930 . S
H2154 C2182 0.932 . S
H2155 C2185 0.929 . S
H2156 C2184 0.931 . S
H2157 C2187 0.929 . S
H2158 C2191 0.932 . S
H2159 C2188 0.931 . S
H2160 C2190 0.929 . S
H2161 C2193 0.929 . S
H2162 C2194 0.930 . S
H2163 C2196 0.929 . S
H2164 C2197 0.931 . S
H2165 C2199 0.930 . S
H2166 C2200 0.932 . S
H2167 C2202 0.931 . S
H2168 C2203 0.929 . S
H2169 C2205 0.929 . S
H2170 C2206 0.931 . S
H2171 C2208 0.929 . S
N2172 C2192 1.433 . S
N2172 C2198 1.435 . S
N2172 C2204 1.423 . S
H2173 C2209 0.932 . S
C2174 N2149 1.433 . S
C2174 C2175 1.363 . S
C2174 C2179 1.370 . S
C2175 H2148 0.929 . S
C2175 C2174 1.363 . S
C2175 C2176 1.385 . S
C2176 H2150 0.930 . S
C2176 C2175 1.385 . S
C2176 C2177 1.357 . S
C2177 C2176 1.357 . S
C2177 C2178 1.406 . S
C2178 H2152 0.929 . S
C2178 C2177 1.406 . S
C2178 C2179 1.391 . S
C2179 H2151 0.931 . S
C2179 C2174 1.370 . S
C2179 C2178 1.391 . S
C2180 N2149 1.435 . S
C2180 C2181 1.358 . S
C2180 C2185 1.371 . S
C2181 H2153 0.930 . S
C2181 C2180 1.358 . S
C2181 C2182 1.405 . S
C2182 H2154 0.932 . S
C2182 C2181 1.405 . S
C2182 C2183 1.383 . S
C2183 C2182 1.383 . S
C2183 C2184 1.393 . S
C2184 H2156 0.931 . S
C2184 C2183 1.393 . S
C2184 C2185 1.382 . S
C2185 H2155 0.929 . S
C2185 C2180 1.371 . S
C2185 C2184 1.382 . S
C2186 N2149 1.423 . S
C2186 C2187 1.362 . S
C2186 C2191 1.388 . S
C2187 H2157 0.929 . S
C2187 C2186 1.362 . S
C2187 C2188 1.376 . S
C2188 H2159 0.931 . S
C2188 C2187 1.376 . S
C2188 C2189 1.396 . S
C2189 C2188 1.396 . S
C2189 C2190 1.348 . S
C2189 C2207 1.472 . S
C2190 H2160 0.929 . S
C2190 C2189 1.348 . S
C2190 C2191 1.443 . S
C2191 H2158 0.932 . S
C2191 C2186 1.388 . S
C2191 C2190 1.443 . S
C2192 N2172 1.433 . S
C2192 C2193 1.363 . S
C2192 C2197 1.370 . S
C2193 H2161 0.929 . S
C2193 C2192 1.363 . S
C2193 C2194 1.385 . S
C2194 H2162 0.930 . S
C2194 C2193 1.385 . S
C2194 C2195 1.357 . S
C2195 C2194 1.357 . S
C2195 C2196 1.406 . S
C2196 H2163 0.929 . S
C2196 C2195 1.406 . S
C2196 C2197 1.391 . S
C2197 H2164 0.931 . S
C2197 C2192 1.370 . S
C2197 C2196 1.391 . S
C2198 N2172 1.435 . S
C2198 C2199 1.358 . S
C2198 C2203 1.371 . S
C2199 H2165 0.930 . S
C2199 C2198 1.358 . S
C2199 C2200 1.405 . S
C2200 H2166 0.932 . S
C2200 C2199 1.405 . S
C2200 C2201 1.383 . S
C2201 C2200 1.383 . S
C2201 C2202 1.393 . S
C2202 H2167 0.931 . S
C2202 C2201 1.393 . S
C2202 C2203 1.382 . S
C2203 H2168 0.929 . S
C2203 C2198 1.371 . S
C2203 C2202 1.382 . S
C2204 N2172 1.423 . S
C2204 C2205 1.362 . S
C2204 C2209 1.388 . S
C2205 H2169 0.929 . S
C2205 C2204 1.362 . S
C2205 C2206 1.376 . S
C2206 H2170 0.931 . S
C2206 C2205 1.376 . S
C2206 C2207 1.396 . S
C2207 C2189 1.472 . S
C2207 C2206 1.396 . S
C2207 C2208 1.348 . S
C2208 H2171 0.929 . S
C2208 C2207 1.348 . S
C2208 C2209 1.443 . S
C2209 H2173 0.932 . S
C2209 C2204 1.388 . S
C2209 C2208 1.443 . S
H2210 C2237 0.929 . S
N2211 C2236 1.433 . S
N2211 C2242 1.435 . S
N2211 C2248 1.423 . S
H2212 C2238 0.930 . S
H2213 C2241 0.931 . S
H2214 C2240 0.929 . S
H2215 C2243 0.930 . S
H2216 C2244 0.932 . S
H2217 C2247 0.929 . S
H2218 C2246 0.931 . S
H2219 C2249 0.929 . S
H2220 C2253 0.932 . S
H2221 C2250 0.931 . S
H2222 C2252 0.929 . S
H2223 C2255 0.929 . S
H2224 C2256 0.930 . S
H2225 C2258 0.929 . S
H2226 C2259 0.931 . S
H2227 C2261 0.930 . S
H2228 C2262 0.932 . S
H2229 C2264 0.931 . S
H2230 C2265 0.929 . S
H2231 C2267 0.929 . S
H2232 C2268 0.931 . S
H2233 C2270 0.929 . S
N2234 C2254 1.433 . S
N2234 C2260 1.435 . S
N2234 C2266 1.423 . S
H2235 C2271 0.932 . S
C2236 N2211 1.433 . S
C2236 C2237 1.363 . S
C2236 C2241 1.370 . S
C2237 H2210 0.929 . S
C2237 C2236 1.363 . S
C2237 C2238 1.385 . S
C2238 H2212 0.930 . S
C2238 C2237 1.385 . S
C2238 C2239 1.357 . S
C2239 C2238 1.357 . S
C2239 C2240 1.406 . S
C2240 H2214 0.929 . S
C2240 C2239 1.406 . S
C2240 C2241 1.391 . S
C2241 H2213 0.931 . S
C2241 C2236 1.370 . S
C2241 C2240 1.391 . S
C2242 N2211 1.435 . S
C2242 C2243 1.358 . S
C2242 C2247 1.371 . S
C2243 H2215 0.930 . S
C2243 C2242 1.358 . S
C2243 C2244 1.405 . S
C2244 H2216 0.932 . S
C2244 C2243 1.405 . S
C2244 C2245 1.383 . S
C2245 C2244 1.383 . S
C2245 C2246 1.393 . S
C2246 H2218 0.931 . S
C2246 C2245 1.393 . S
C2246 C2247 1.382 . S
C2247 H2217 0.929 . S
C2247 C2242 1.371 . S
C2247 C2246 1.382 . S
C2248 N2211 1.423 . S
C2248 C2249 1.362 . S
C2248 C2253 1.388 . S
C2249 H2219 0.929 . S
C2249 C2248 1.362 . S
C2249 C2250 1.376 . S
C2250 H2221 0.931 . S
C2250 C2249 1.376 . S
C2250 C2251 1.396 . S
C2251 C2250 1.396 . S
C2251 C2252 1.348 . S
C2251 C2269 1.472 . S
C2252 H2222 0.929 . S
C2252 C2251 1.348 . S
C2252 C2253 1.443 . S
C2253 H2220 0.932 . S
C2253 C2248 1.388 . S
C2253 C2252 1.443 . S
C2254 N2234 1.433 . S
C2254 C2255 1.363 . S
C2254 C2259 1.370 . S
C2255 H2223 0.929 . S
C2255 C2254 1.363 . S
C2255 C2256 1.385 . S
C2256 H2224 0.930 . S
C2256 C2255 1.385 . S
C2256 C2257 1.357 . S
C2257 C2256 1.357 . S
C2257 C2258 1.406 . S
C2258 H2225 0.929 . S
C2258 C2257 1.406 . S
C2258 C2259 1.391 . S
C2259 H2226 0.931 . S
C2259 C2254 1.370 . S
C2259 C2258 1.391 . S
C2260 N2234 1.435 . S
C2260 C2261 1.358 . S
C2260 C2265 1.371 . S
C2261 H2227 0.930 . S
C2261 C2260 1.358 . S
C2261 C2262 1.405 . S
C2262 H2228 0.932 . S
C2262 C2261 1.405 . S
C2262 C2263 1.383 . S
C2263 C2262 1.383 . S
C2263 C2264 1.393 . S
C2264 H2229 0.931 . S
C2264 C2263 1.393 . S
C2264 C2265 1.382 . S
C2265 H2230 0.929 . S
C2265 C2260 1.371 . S
C2265 C2264 1.382 . S
C2266 N2234 1.423 . S
C2266 C2267 1.362 . S
C2266 C2271 1.388 . S
C2267 H2231 0.929 . S
C2267 C2266 1.362 . S
C2267 C2268 1.376 . S
C2268 H2232 0.931 . S
C2268 C2267 1.376 . S
C2268 C2269 1.396 . S
C2269 C2251 1.472 . S
C2269 C2268 1.396 . S
C2269 C2270 1.348 . S
C2270 H2233 0.929 . S
C2270 C2269 1.348 . S
C2270 C2271 1.443 . S
C2271 H2235 0.932 . S
C2271 C2266 1.388 . S
C2271 C2270 1.443 . S
H2272 C2299 0.929 . S
N2273 C2298 1.433 . S
N2273 C2304 1.435 . S
N2273 C2310 1.423 . S
H2274 C2300 0.930 . S
H2275 C2303 0.931 . S
H2276 C2302 0.929 . S
H2277 C2305 0.930 . S
H2278 C2306 0.932 . S
H2279 C2309 0.929 . S
H2280 C2308 0.931 . S
H2281 C2311 0.929 . S
H2282 C2315 0.932 . S
H2283 C2312 0.931 . S
H2284 C2314 0.929 . S
H2285 C2317 0.929 . S
H2286 C2318 0.930 . S
H2287 C2320 0.929 . S
H2288 C2321 0.931 . S
H2289 C2323 0.930 . S
H2290 C2324 0.932 . S
H2291 C2326 0.931 . S
H2292 C2327 0.929 . S
H2293 C2329 0.929 . S
H2294 C2330 0.931 . S
H2295 C2332 0.929 . S
N2296 C2316 1.433 . S
N2296 C2322 1.435 . S
N2296 C2328 1.423 . S
H2297 C2333 0.932 . S
C2298 N2273 1.433 . S
C2298 C2299 1.363 . S
C2298 C2303 1.370 . S
C2299 H2272 0.929 . S
C2299 C2298 1.363 . S
C2299 C2300 1.385 . S
C2300 H2274 0.930 . S
C2300 C2299 1.385 . S
C2300 C2301 1.357 . S
C2301 C2300 1.357 . S
C2301 C2302 1.406 . S
C2302 H2276 0.929 . S
C2302 C2301 1.406 . S
C2302 C2303 1.391 . S
C2303 H2275 0.931 . S
C2303 C2298 1.370 . S
C2303 C2302 1.391 . S
C2304 N2273 1.435 . S
C2304 C2305 1.358 . S
C2304 C2309 1.371 . S
C2305 H2277 0.930 . S
C2305 C2304 1.358 . S
C2305 C2306 1.405 . S
C2306 H2278 0.932 . S
C2306 C2305 1.405 . S
C2306 C2307 1.383 . S
C2307 C2306 1.383 . S
C2307 C2308 1.393 . S
C2308 H2280 0.931 . S
C2308 C2307 1.393 . S
C2308 C2309 1.382 . S
C2309 H2279 0.929 . S
C2309 C2304 1.371 . S
C2309 C2308 1.382 . S
C2310 N2273 1.423 . S
C2310 C2311 1.362 . S
C2310 C2315 1.388 . S
C2311 H2281 0.929 . S
C2311 C2310 1.362 . S
C2311 C2312 1.376 . S
C2312 H2283 0.931 . S
C2312 C2311 1.376 . S
C2312 C2313 1.396 . S
C2313 C2312 1.396 . S
C2313 C2314 1.348 . S
C2313 C2331 1.472 . S
C2314 H2284 0.929 . S
C2314 C2313 1.348 . S
C2314 C2315 1.443 . S
C2315 H2282 0.932 . S
C2315 C2310 1.388 . S
C2315 C2314 1.443 . S
C2316 N2296 1.433 . S
C2316 C2317 1.363 . S
C2316 C2321 1.370 . S
C2317 H2285 0.929 . S
C2317 C2316 1.363 . S
C2317 C2318 1.385 . S
C2318 H2286 0.930 . S
C2318 C2317 1.385 . S
C2318 C2319 1.357 . S
C2319 C2318 1.357 . S
C2319 C2320 1.406 . S
C2320 H2287 0.929 . S
C2320 C2319 1.406 . S
C2320 C2321 1.391 . S
C2321 H2288 0.931 . S
C2321 C2316 1.370 . S
C2321 C2320 1.391 . S
C2322 N2296 1.435 . S
C2322 C2323 1.358 . S
C2322 C2327 1.371 . S
C2323 H2289 0.930 . S
C2323 C2322 1.358 . S
C2323 C2324 1.405 . S
C2324 H2290 0.932 . S
C2324 C2323 1.405 . S
C2324 C2325 1.383 . S
C2325 C2324 1.383 . S
C2325 C2326 1.393 . S
C2326 H2291 0.931 . S
C2326 C2325 1.393 . S
C2326 C2327 1.382 . S
C2327 H2292 0.929 . S
C2327 C2322 1.371 . S
C2327 C2326 1.382 . S
C2328 N2296 1.423 . S
C2328 C2329 1.362 . S
C2328 C2333 1.388 . S
C2329 H2293 0.929 . S
C2329 C2328 1.362 . S
C2329 C2330 1.376 . S
C2330 H2294 0.931 . S
C2330 C2329 1.376 . S
C2330 C2331 1.396 . S
C2331 C2313 1.472 . S
C2331 C2330 1.396 . S
C2331 C2332 1.348 . S
C2332 H2295 0.929 . S
C2332 C2331 1.348 . S
C2332 C2333 1.443 . S
C2333 H2297 0.932 . S
C2333 C2328 1.388 . S
C2333 C2332 1.443 . S
H2334 C2361 0.929 . S
N2335 C2360 1.433 . S
N2335 C2366 1.435 . S
N2335 C2372 1.423 . S
H2336 C2362 0.930 . S
H2337 C2365 0.931 . S
H2338 C2364 0.929 . S
H2339 C2367 0.930 . S
H2340 C2368 0.932 . S
H2341 C2371 0.929 . S
H2342 C2370 0.931 . S
H2343 C2373 0.929 . S
H2344 C2377 0.932 . S
H2345 C2374 0.931 . S
H2346 C2376 0.929 . S
H2347 C2379 0.929 . S
H2348 C2380 0.930 . S
H2349 C2382 0.929 . S
H2350 C2383 0.931 . S
H2351 C2385 0.930 . S
H2352 C2386 0.932 . S
H2353 C2388 0.931 . S
H2354 C2389 0.929 . S
H2355 C2391 0.929 . S
H2356 C2392 0.931 . S
H2357 C2394 0.929 . S
N2358 C2378 1.433 . S
N2358 C2384 1.435 . S
N2358 C2390 1.423 . S
H2359 C2395 0.932 . S
C2360 N2335 1.433 . S
C2360 C2361 1.363 . S
C2360 C2365 1.370 . S
C2361 H2334 0.929 . S
C2361 C2360 1.363 . S
C2361 C2362 1.385 . S
C2362 H2336 0.930 . S
C2362 C2361 1.385 . S
C2362 C2363 1.357 . S
C2363 C2362 1.357 . S
C2363 C2364 1.406 . S
C2364 H2338 0.929 . S
C2364 C2363 1.406 . S
C2364 C2365 1.391 . S
C2365 H2337 0.931 . S
C2365 C2360 1.370 . S
C2365 C2364 1.391 . S
C2366 N2335 1.435 . S
C2366 C2367 1.358 . S
C2366 C2371 1.371 . S
C2367 H2339 0.930 . S
C2367 C2366 1.358 . S
C2367 C2368 1.405 . S
C2368 H2340 0.932 . S
C2368 C2367 1.405 . S
C2368 C2369 1.383 . S
C2369 C2368 1.383 . S
C2369 C2370 1.393 . S
C2370 H2342 0.931 . S
C2370 C2369 1.393 . S
C2370 C2371 1.382 . S
C2371 H2341 0.929 . S
C2371 C2366 1.371 . S
C2371 C2370 1.382 . S
C2372 N2335 1.423 . S
C2372 C2373 1.362 . S
C2372 C2377 1.388 . S
C2373 H2343 0.929 . S
C2373 C2372 1.362 . S
C2373 C2374 1.376 . S
C2374 H2345 0.931 . S
C2374 C2373 1.376 . S
C2374 C2375 1.396 . S
C2375 C2374 1.396 . S
C2375 C2376 1.348 . S
C2375 C2393 1.472 . S
C2376 H2346 0.929 . S
C2376 C2375 1.348 . S
C2376 C2377 1.443 . S
C2377 H2344 0.932 . S
C2377 C2372 1.388 . S
C2377 C2376 1.443 . S
C2378 N2358 1.433 . S
C2378 C2379 1.363 . S
C2378 C2383 1.370 . S
C2379 H2347 0.929 . S
C2379 C2378 1.363 . S
C2379 C2380 1.385 . S
C2380 H2348 0.930 . S
C2380 C2379 1.385 . S
C2380 C2381 1.357 . S
C2381 C2380 1.357 . S
C2381 C2382 1.406 . S
C2382 H2349 0.929 . S
C2382 C2381 1.406 . S
C2382 C2383 1.391 . S
C2383 H2350 0.931 . S
C2383 C2378 1.370 . S
C2383 C2382 1.391 . S
C2384 N2358 1.435 . S
C2384 C2385 1.358 . S
C2384 C2389 1.371 . S
C2385 H2351 0.930 . S
C2385 C2384 1.358 . S
C2385 C2386 1.405 . S
C2386 H2352 0.932 . S
C2386 C2385 1.405 . S
C2386 C2387 1.383 . S
C2387 C2386 1.383 . S
C2387 C2388 1.393 . S
C2388 H2353 0.931 . S
C2388 C2387 1.393 . S
C2388 C2389 1.382 . S
C2389 H2354 0.929 . S
C2389 C2384 1.371 . S
C2389 C2388 1.382 . S
C2390 N2358 1.423 . S
C2390 C2391 1.362 . S
C2390 C2395 1.388 . S
C2391 H2355 0.929 . S
C2391 C2390 1.362 . S
C2391 C2392 1.376 . S
C2392 H2356 0.931 . S
C2392 C2391 1.376 . S
C2392 C2393 1.396 . S
C2393 C2375 1.472 . S
C2393 C2392 1.396 . S
C2393 C2394 1.348 . S
C2394 H2357 0.929 . S
C2394 C2393 1.348 . S
C2394 C2395 1.443 . S
C2395 H2359 0.932 . S
C2395 C2390 1.388 . S
C2395 C2394 1.443 . S
H2396 C2423 0.929 . S
N2397 C2422 1.433 . S
N2397 C2428 1.435 . S
N2397 C2434 1.423 . S
H2398 C2424 0.930 . S
H2399 C2427 0.931 . S
H2400 C2426 0.929 . S
H2401 C2429 0.930 . S
H2402 C2430 0.932 . S
H2403 C2433 0.929 . S
H2404 C2432 0.931 . S
H2405 C2435 0.929 . S
H2406 C2439 0.932 . S
H2407 C2436 0.931 . S
H2408 C2438 0.929 . S
H2409 C2441 0.929 . S
H2410 C2442 0.930 . S
H2411 C2444 0.929 . S
H2412 C2445 0.931 . S
H2413 C2447 0.930 . S
H2414 C2448 0.932 . S
H2415 C2450 0.931 . S
H2416 C2451 0.929 . S
H2417 C2453 0.929 . S
H2418 C2454 0.931 . S
H2419 C2456 0.929 . S
N2420 C2440 1.433 . S
N2420 C2446 1.435 . S
N2420 C2452 1.423 . S
H2421 C2457 0.932 . S
C2422 N2397 1.433 . S
C2422 C2423 1.363 . S
C2422 C2427 1.370 . S
C2423 H2396 0.929 . S
C2423 C2422 1.363 . S
C2423 C2424 1.385 . S
C2424 H2398 0.930 . S
C2424 C2423 1.385 . S
C2424 C2425 1.357 . S
C2425 C2424 1.357 . S
C2425 C2426 1.406 . S
C2426 H2400 0.929 . S
C2426 C2425 1.406 . S
C2426 C2427 1.391 . S
C2427 H2399 0.931 . S
C2427 C2422 1.370 . S
C2427 C2426 1.391 . S
C2428 N2397 1.435 . S
C2428 C2429 1.358 . S
C2428 C2433 1.371 . S
C2429 H2401 0.930 . S
C2429 C2428 1.358 . S
C2429 C2430 1.405 . S
C2430 H2402 0.932 . S
C2430 C2429 1.405 . S
C2430 C2431 1.383 . S
C2431 C2430 1.383 . S
C2431 C2432 1.393 . S
C2432 H2404 0.931 . S
C2432 C2431 1.393 . S
C2432 C2433 1.382 . S
C2433 H2403 0.929 . S
C2433 C2428 1.371 . S
C2433 C2432 1.382 . S
C2434 N2397 1.423 . S
C2434 C2435 1.362 . S
C2434 C2439 1.388 . S
C2435 H2405 0.929 . S
C2435 C2434 1.362 . S
C2435 C2436 1.376 . S
C2436 H2407 0.931 . S
C2436 C2435 1.376 . S
C2436 C2437 1.396 . S
C2437 C2436 1.396 . S
C2437 C2438 1.348 . S
C2437 C2455 1.472 . S
C2438 H2408 0.929 . S
C2438 C2437 1.348 . S
C2438 C2439 1.443 . S
C2439 H2406 0.932 . S
C2439 C2434 1.388 . S
C2439 C2438 1.443 . S
C2440 N2420 1.433 . S
C2440 C2441 1.363 . S
C2440 C2445 1.370 . S
C2441 H2409 0.929 . S
C2441 C2440 1.363 . S
C2441 C2442 1.385 . S
C2442 H2410 0.930 . S
C2442 C2441 1.385 . S
C2442 C2443 1.357 . S
C2443 C2442 1.357 . S
C2443 C2444 1.406 . S
C2444 H2411 0.929 . S
C2444 C2443 1.406 . S
C2444 C2445 1.391 . S
C2445 H2412 0.931 . S
C2445 C2440 1.370 . S
C2445 C2444 1.391 . S
C2446 N2420 1.435 . S
C2446 C2447 1.358 . S
C2446 C2451 1.371 . S
C2447 H2413 0.930 . S
C2447 C2446 1.358 . S
C2447 C2448 1.405 . S
C2448 H2414 0.932 . S
C2448 C2447 1.405 . S
C2448 C2449 1.383 . S
C2449 C2448 1.383 . S
C2449 C2450 1.393 . S
C2450 H2415 0.931 . S
C2450 C2449 1.393 . S
C2450 C2451 1.382 . S
C2451 H2416 0.929 . S
C2451 C2446 1.371 . S
C2451 C2450 1.382 . S
C2452 N2420 1.423 . S
C2452 C2453 1.362 . S
C2452 C2457 1.388 . S
C2453 H2417 0.929 . S
C2453 C2452 1.362 . S
C2453 C2454 1.376 . S
C2454 H2418 0.931 . S
C2454 C2453 1.376 . S
C2454 C2455 1.396 . S
C2455 C2437 1.472 . S
C2455 C2454 1.396 . S
C2455 C2456 1.348 . S
C2456 H2419 0.929 . S
C2456 C2455 1.348 . S
C2456 C2457 1.443 . S
C2457 H2421 0.932 . S
C2457 C2452 1.388 . S
C2457 C2456 1.443 . S
H2458 C2485 0.929 . S
N2459 C2484 1.433 . S
N2459 C2490 1.435 . S
N2459 C2496 1.423 . S
H2460 C2486 0.930 . S
H2461 C2489 0.931 . S
H2462 C2488 0.929 . S
H2463 C2491 0.930 . S
H2464 C2492 0.932 . S
H2465 C2495 0.929 . S
H2466 C2494 0.931 . S
H2467 C2497 0.929 . S
H2468 C2501 0.932 . S
H2469 C2498 0.931 . S
H2470 C2500 0.929 . S
H2471 C2503 0.929 . S
H2472 C2504 0.930 . S
H2473 C2506 0.929 . S
H2474 C2507 0.931 . S
H2475 C2509 0.930 . S
H2476 C2510 0.932 . S
H2477 C2512 0.931 . S
H2478 C2513 0.929 . S
H2479 C2515 0.929 . S
H2480 C2516 0.931 . S
H2481 C2518 0.929 . S
N2482 C2502 1.433 . S
N2482 C2508 1.435 . S
N2482 C2514 1.423 . S
H2483 C2519 0.932 . S
C2484 N2459 1.433 . S
C2484 C2485 1.363 . S
C2484 C2489 1.370 . S
C2485 H2458 0.929 . S
C2485 C2484 1.363 . S
C2485 C2486 1.385 . S
C2486 H2460 0.930 . S
C2486 C2485 1.385 . S
C2486 C2487 1.357 . S
C2487 C2486 1.357 . S
C2487 C2488 1.406 . S
C2488 H2462 0.929 . S
C2488 C2487 1.406 . S
C2488 C2489 1.391 . S
C2489 H2461 0.931 . S
C2489 C2484 1.370 . S
C2489 C2488 1.391 . S
C2490 N2459 1.435 . S
C2490 C2491 1.358 . S
C2490 C2495 1.371 . S
C2491 H2463 0.930 . S
C2491 C2490 1.358 . S
C2491 C2492 1.405 . S
C2492 H2464 0.932 . S
C2492 C2491 1.405 . S
C2492 C2493 1.383 . S
C2493 C2492 1.383 . S
C2493 C2494 1.393 . S
C2494 H2466 0.931 . S
C2494 C2493 1.393 . S
C2494 C2495 1.382 . S
C2495 H2465 0.929 . S
C2495 C2490 1.371 . S
C2495 C2494 1.382 . S
C2496 N2459 1.423 . S
C2496 C2497 1.362 . S
C2496 C2501 1.388 . S
C2497 H2467 0.929 . S
C2497 C2496 1.362 . S
C2497 C2498 1.376 . S
C2498 H2469 0.931 . S
C2498 C2497 1.376 . S
C2498 C2499 1.396 . S
C2499 C2498 1.396 . S
C2499 C2500 1.348 . S
C2499 C2517 1.472 . S
C2500 H2470 0.929 . S
C2500 C2499 1.348 . S
C2500 C2501 1.443 . S
C2501 H2468 0.932 . S
C2501 C2496 1.388 . S
C2501 C2500 1.443 . S
C2502 N2482 1.433 . S
C2502 C2503 1.363 . S
C2502 C2507 1.370 . S
C2503 H2471 0.929 . S
C2503 C2502 1.363 . S
C2503 C2504 1.385 . S
C2504 H2472 0.930 . S
C2504 C2503 1.385 . S
C2504 C2505 1.357 . S
C2505 C2504 1.357 . S
C2505 C2506 1.406 . S
C2506 H2473 0.929 . S
C2506 C2505 1.406 . S
C2506 C2507 1.391 . S
C2507 H2474 0.931 . S
C2507 C2502 1.370 . S
C2507 C2506 1.391 . S
C2508 N2482 1.435 . S
C2508 C2509 1.358 . S
C2508 C2513 1.371 . S
C2509 H2475 0.930 . S
C2509 C2508 1.358 . S
C2509 C2510 1.405 . S
C2510 H2476 0.932 . S
C2510 C2509 1.405 . S
C2510 C2511 1.383 . S
C2511 C2510 1.383 . S
C2511 C2512 1.393 . S
C2512 H2477 0.931 . S
C2512 C2511 1.393 . S
C2512 C2513 1.382 . S
C2513 H2478 0.929 . S
C2513 C2508 1.371 . S
C2513 C2512 1.382 . S
C2514 N2482 1.423 . S
C2514 C2515 1.362 . S
C2514 C2519 1.388 . S
C2515 H2479 0.929 . S
C2515 C2514 1.362 . S
C2515 C2516 1.376 . S
C2516 H2480 0.931 . S
C2516 C2515 1.376 . S
C2516 C2517 1.396 . S
C2517 C2499 1.472 . S
C2517 C2516 1.396 . S
C2517 C2518 1.348 . S
C2518 H2481 0.929 . S
C2518 C2517 1.348 . S
C2518 C2519 1.443 . S
C2519 H2483 0.932 . S
C2519 C2514 1.388 . S
C2519 C2518 1.443 . S
H2520 C2547 0.929 . S
N2521 C2546 1.433 . S
N2521 C2552 1.435 . S
N2521 C2558 1.423 . S
H2522 C2548 0.930 . S
H2523 C2551 0.931 . S
H2524 C2550 0.929 . S
H2525 C2553 0.930 . S
H2526 C2554 0.932 . S
H2527 C2557 0.929 . S
H2528 C2556 0.931 . S
H2529 C2559 0.929 . S
H2530 C2563 0.932 . S
H2531 C2560 0.931 . S
H2532 C2562 0.929 . S
H2533 C2565 0.929 . S
H2534 C2566 0.930 . S
H2535 C2568 0.929 . S
H2536 C2569 0.931 . S
H2537 C2571 0.930 . S
H2538 C2572 0.932 . S
H2539 C2574 0.931 . S
H2540 C2575 0.929 . S
H2541 C2577 0.929 . S
H2542 C2578 0.931 . S
H2543 C2580 0.929 . S
N2544 C2564 1.433 . S
N2544 C2570 1.435 . S
N2544 C2576 1.423 . S
H2545 C2581 0.932 . S
C2546 N2521 1.433 . S
C2546 C2547 1.363 . S
C2546 C2551 1.370 . S
C2547 H2520 0.929 . S
C2547 C2546 1.363 . S
C2547 C2548 1.385 . S
C2548 H2522 0.930 . S
C2548 C2547 1.385 . S
C2548 C2549 1.357 . S
C2549 C2548 1.357 . S
C2549 C2550 1.406 . S
C2550 H2524 0.929 . S
C2550 C2549 1.406 . S
C2550 C2551 1.391 . S
C2551 H2523 0.931 . S
C2551 C2546 1.370 . S
C2551 C2550 1.391 . S
C2552 N2521 1.435 . S
C2552 C2553 1.358 . S
C2552 C2557 1.371 . S
C2553 H2525 0.930 . S
C2553 C2552 1.358 . S
C2553 C2554 1.405 . S
C2554 H2526 0.932 . S
C2554 C2553 1.405 . S
C2554 C2555 1.383 . S
C2555 C2554 1.383 . S
C2555 C2556 1.393 . S
C2556 H2528 0.931 . S
C2556 C2555 1.393 . S
C2556 C2557 1.382 . S
C2557 H2527 0.929 . S
C2557 C2552 1.371 . S
C2557 C2556 1.382 . S
C2558 N2521 1.423 . S
C2558 C2559 1.362 . S
C2558 C2563 1.388 . S
C2559 H2529 0.929 . S
C2559 C2558 1.362 . S
C2559 C2560 1.376 . S
C2560 H2531 0.931 . S
C2560 C2559 1.376 . S
C2560 C2561 1.396 . S
C2561 C2560 1.396 . S
C2561 C2562 1.348 . S
C2561 C2579 1.472 . S
C2562 H2532 0.929 . S
C2562 C2561 1.348 . S
C2562 C2563 1.443 . S
C2563 H2530 0.932 . S
C2563 C2558 1.388 . S
C2563 C2562 1.443 . S
C2564 N2544 1.433 . S
C2564 C2565 1.363 . S
C2564 C2569 1.370 . S
C2565 H2533 0.929 . S
C2565 C2564 1.363 . S
C2565 C2566 1.385 . S
C2566 H2534 0.930 . S
C2566 C2565 1.385 . S
C2566 C2567 1.357 . S
C2567 C2566 1.357 . S
C2567 C2568 1.406 . S
C2568 H2535 0.929 . S
C2568 C2567 1.406 . S
C2568 C2569 1.391 . S
C2569 H2536 0.931 . S
C2569 C2564 1.370 . S
C2569 C2568 1.391 . S
C2570 N2544 1.435 . S
C2570 C2571 1.358 . S
C2570 C2575 1.371 . S
C2571 H2537 0.930 . S
C2571 C2570 1.358 . S
C2571 C2572 1.405 . S
C2572 H2538 0.932 . S
C2572 C2571 1.405 . S
C2572 C2573 1.383 . S
C2573 C2572 1.383 . S
C2573 C2574 1.393 . S
C2574 H2539 0.931 . S
C2574 C2573 1.393 . S
C2574 C2575 1.382 . S
C2575 H2540 0.929 . S
C2575 C2570 1.371 . S
C2575 C2574 1.382 . S
C2576 N2544 1.423 . S
C2576 C2577 1.362 . S
C2576 C2581 1.388 . S
C2577 H2541 0.929 . S
C2577 C2576 1.362 . S
C2577 C2578 1.376 . S
C2578 H2542 0.931 . S
C2578 C2577 1.376 . S
C2578 C2579 1.396 . S
C2579 C2561 1.472 . S
C2579 C2578 1.396 . S
C2579 C2580 1.348 . S
C2580 H2543 0.929 . S
C2580 C2579 1.348 . S
C2580 C2581 1.443 . S
C2581 H2545 0.932 . S
C2581 C2576 1.388 . S
C2581 C2580 1.443 . S
H2582 C2609 0.929 . S
N2583 C2608 1.433 . S
N2583 C2614 1.435 . S
N2583 C2620 1.423 . S
H2584 C2610 0.930 . S
H2585 C2613 0.931 . S
H2586 C2612 0.929 . S
H2587 C2615 0.930 . S
H2588 C2616 0.932 . S
H2589 C2619 0.929 . S
H2590 C2618 0.931 . S
H2591 C2621 0.929 . S
H2592 C2625 0.932 . S
H2593 C2622 0.931 . S
H2594 C2624 0.929 . S
H2595 C2627 0.929 . S
H2596 C2628 0.930 . S
H2597 C2630 0.929 . S
H2598 C2631 0.931 . S
H2599 C2633 0.930 . S
H2600 C2634 0.932 . S
H2601 C2636 0.931 . S
H2602 C2637 0.929 . S
H2603 C2639 0.929 . S
H2604 C2640 0.931 . S
H2605 C2642 0.929 . S
N2606 C2626 1.433 . S
N2606 C2632 1.435 . S
N2606 C2638 1.423 . S
H2607 C2643 0.932 . S
C2608 N2583 1.433 . S
C2608 C2609 1.363 . S
C2608 C2613 1.370 . S
C2609 H2582 0.929 . S
C2609 C2608 1.363 . S
C2609 C2610 1.385 . S
C2610 H2584 0.930 . S
C2610 C2609 1.385 . S
C2610 C2611 1.357 . S
C2611 C2610 1.357 . S
C2611 C2612 1.406 . S
C2612 H2586 0.929 . S
C2612 C2611 1.406 . S
C2612 C2613 1.391 . S
C2613 H2585 0.931 . S
C2613 C2608 1.370 . S
C2613 C2612 1.391 . S
C2614 N2583 1.435 . S
C2614 C2615 1.358 . S
C2614 C2619 1.371 . S
C2615 H2587 0.930 . S
C2615 C2614 1.358 . S
C2615 C2616 1.405 . S
C2616 H2588 0.932 . S
C2616 C2615 1.405 . S
C2616 C2617 1.383 . S
C2617 C2616 1.383 . S
C2617 C2618 1.393 . S
C2618 H2590 0.931 . S
C2618 C2617 1.393 . S
C2618 C2619 1.382 . S
C2619 H2589 0.929 . S
C2619 C2614 1.371 . S
C2619 C2618 1.382 . S
C2620 N2583 1.423 . S
C2620 C2621 1.362 . S
C2620 C2625 1.388 . S
C2621 H2591 0.929 . S
C2621 C2620 1.362 . S
C2621 C2622 1.376 . S
C2622 H2593 0.931 . S
C2622 C2621 1.376 . S
C2622 C2623 1.396 . S
C2623 C2622 1.396 . S
C2623 C2624 1.348 . S
C2623 C2641 1.472 . S
C2624 H2594 0.929 . S
C2624 C2623 1.348 . S
C2624 C2625 1.443 . S
C2625 H2592 0.932 . S
C2625 C2620 1.388 . S
C2625 C2624 1.443 . S
C2626 N2606 1.433 . S
C2626 C2627 1.363 . S
C2626 C2631 1.370 . S
C2627 H2595 0.929 . S
C2627 C2626 1.363 . S
C2627 C2628 1.385 . S
C2628 H2596 0.930 . S
C2628 C2627 1.385 . S
C2628 C2629 1.357 . S
C2629 C2628 1.357 . S
C2629 C2630 1.406 . S
C2630 H2597 0.929 . S
C2630 C2629 1.406 . S
C2630 C2631 1.391 . S
C2631 H2598 0.931 . S
C2631 C2626 1.370 . S
C2631 C2630 1.391 . S
C2632 N2606 1.435 . S
C2632 C2633 1.358 . S
C2632 C2637 1.371 . S
C2633 H2599 0.930 . S
C2633 C2632 1.358 . S
C2633 C2634 1.405 . S
C2634 H2600 0.932 . S
C2634 C2633 1.405 . S
C2634 C2635 1.383 . S
C2635 C2634 1.383 . S
C2635 C2636 1.393 . S
C2636 H2601 0.931 . S
C2636 C2635 1.393 . S
C2636 C2637 1.382 . S
C2637 H2602 0.929 . S
C2637 C2632 1.371 . S
C2637 C2636 1.382 . S
C2638 N2606 1.423 . S
C2638 C2639 1.362 . S
C2638 C2643 1.388 . S
C2639 H2603 0.929 . S
C2639 C2638 1.362 . S
C2639 C2640 1.376 . S
C2640 H2604 0.931 . S
C2640 C2639 1.376 . S
C2640 C2641 1.396 . S
C2641 C2623 1.472 . S
C2641 C2640 1.396 . S
C2641 C2642 1.348 . S
C2642 H2605 0.929 . S
C2642 C2641 1.348 . S
C2642 C2643 1.443 . S
C2643 H2607 0.932 . S
C2643 C2638 1.388 . S
C2643 C2642 1.443 . S
H2644 C2671 0.929 . S
N2645 C2670 1.433 . S
N2645 C2676 1.435 . S
N2645 C2682 1.423 . S
H2646 C2672 0.930 . S
H2647 C2675 0.931 . S
H2648 C2674 0.929 . S
H2649 C2677 0.930 . S
H2650 C2678 0.932 . S
H2651 C2681 0.929 . S
H2652 C2680 0.931 . S
H2653 C2683 0.929 . S
H2654 C2687 0.932 . S
H2655 C2684 0.931 . S
H2656 C2686 0.929 . S
H2657 C2689 0.929 . S
H2658 C2690 0.930 . S
H2659 C2692 0.929 . S
H2660 C2693 0.931 . S
H2661 C2695 0.930 . S
H2662 C2696 0.932 . S
H2663 C2698 0.931 . S
H2664 C2699 0.929 . S
H2665 C2701 0.929 . S
H2666 C2702 0.931 . S
H2667 C2704 0.929 . S
N2668 C2688 1.433 . S
N2668 C2694 1.435 . S
N2668 C2700 1.423 . S
H2669 C2705 0.932 . S
C2670 N2645 1.433 . S
C2670 C2671 1.363 . S
C2670 C2675 1.370 . S
C2671 H2644 0.929 . S
C2671 C2670 1.363 . S
C2671 C2672 1.385 . S
C2672 H2646 0.930 . S
C2672 C2671 1.385 . S
C2672 C2673 1.357 . S
C2673 C2672 1.357 . S
C2673 C2674 1.406 . S
C2674 H2648 0.929 . S
C2674 C2673 1.406 . S
C2674 C2675 1.391 . S
C2675 H2647 0.931 . S
C2675 C2670 1.370 . S
C2675 C2674 1.391 . S
C2676 N2645 1.435 . S
C2676 C2677 1.358 . S
C2676 C2681 1.371 . S
C2677 H2649 0.930 . S
C2677 C2676 1.358 . S
C2677 C2678 1.405 . S
C2678 H2650 0.932 . S
C2678 C2677 1.405 . S
C2678 C2679 1.383 . S
C2679 C2678 1.383 . S
C2679 C2680 1.393 . S
C2680 H2652 0.931 . S
C2680 C2679 1.393 . S
C2680 C2681 1.382 . S
C2681 H2651 0.929 . S
C2681 C2676 1.371 . S
C2681 C2680 1.382 . S
C2682 N2645 1.423 . S
C2682 C2683 1.362 . S
C2682 C2687 1.388 . S
C2683 H2653 0.929 . S
C2683 C2682 1.362 . S
C2683 C2684 1.376 . S
C2684 H2655 0.931 . S
C2684 C2683 1.376 . S
C2684 C2685 1.396 . S
C2685 C2684 1.396 . S
C2685 C2686 1.348 . S
C2685 C2703 1.472 . S
C2686 H2656 0.929 . S
C2686 C2685 1.348 . S
C2686 C2687 1.443 . S
C2687 H2654 0.932 . S
C2687 C2682 1.388 . S
C2687 C2686 1.443 . S
C2688 N2668 1.433 . S
C2688 C2689 1.363 . S
C2688 C2693 1.370 . S
C2689 H2657 0.929 . S
C2689 C2688 1.363 . S
C2689 C2690 1.385 . S
C2690 H2658 0.930 . S
C2690 C2689 1.385 . S
C2690 C2691 1.357 . S
C2691 C2690 1.357 . S
C2691 C2692 1.406 . S
C2692 H2659 0.929 . S
C2692 C2691 1.406 . S
C2692 C2693 1.391 . S
C2693 H2660 0.931 . S
C2693 C2688 1.370 . S
C2693 C2692 1.391 . S
C2694 N2668 1.435 . S
C2694 C2695 1.358 . S
C2694 C2699 1.371 . S
C2695 H2661 0.930 . S
C2695 C2694 1.358 . S
C2695 C2696 1.405 . S
C2696 H2662 0.932 . S
C2696 C2695 1.405 . S
C2696 C2697 1.383 . S
C2697 C2696 1.383 . S
C2697 C2698 1.393 . S
C2698 H2663 0.931 . S
C2698 C2697 1.393 . S
C2698 C2699 1.382 . S
C2699 H2664 0.929 . S
C2699 C2694 1.371 . S
C2699 C2698 1.382 . S
C2700 N2668 1.423 . S
C2700 C2701 1.362 . S
C2700 C2705 1.388 . S
C2701 H2665 0.929 . S
C2701 C2700 1.362 . S
C2701 C2702 1.376 . S
C2702 H2666 0.931 . S
C2702 C2701 1.376 . S
C2702 C2703 1.396 . S
C2703 C2685 1.472 . S
C2703 C2702 1.396 . S
C2703 C2704 1.348 . S
C2704 H2667 0.929 . S
C2704 C2703 1.348 . S
C2704 C2705 1.443 . S
C2705 H2669 0.932 . S
C2705 C2700 1.388 . S
C2705 C2704 1.443 . S
H2706 C2733 0.929 . S
N2707 C2732 1.433 . S
N2707 C2738 1.435 . S
N2707 C2744 1.423 . S
H2708 C2734 0.930 . S
H2709 C2737 0.931 . S
H2710 C2736 0.929 . S
H2711 C2739 0.930 . S
H2712 C2740 0.932 . S
H2713 C2743 0.929 . S
H2714 C2742 0.931 . S
H2715 C2745 0.929 . S
H2716 C2749 0.932 . S
H2717 C2746 0.931 . S
H2718 C2748 0.929 . S
H2719 C2751 0.929 . S
H2720 C2752 0.930 . S
H2721 C2754 0.929 . S
H2722 C2755 0.931 . S
H2723 C2757 0.930 . S
H2724 C2758 0.932 . S
H2725 C2760 0.931 . S
H2726 C2761 0.929 . S
H2727 C2763 0.929 . S
H2728 C2764 0.931 . S
H2729 C2766 0.929 . S
N2730 C2750 1.433 . S
N2730 C2756 1.435 . S
N2730 C2762 1.423 . S
H2731 C2767 0.932 . S
C2732 N2707 1.433 . S
C2732 C2733 1.363 . S
C2732 C2737 1.370 . S
C2733 H2706 0.929 . S
C2733 C2732 1.363 . S
C2733 C2734 1.385 . S
C2734 H2708 0.930 . S
C2734 C2733 1.385 . S
C2734 C2735 1.357 . S
C2735 C2734 1.357 . S
C2735 C2736 1.406 . S
C2736 H2710 0.929 . S
C2736 C2735 1.406 . S
C2736 C2737 1.391 . S
C2737 H2709 0.931 . S
C2737 C2732 1.370 . S
C2737 C2736 1.391 . S
C2738 N2707 1.435 . S
C2738 C2739 1.358 . S
C2738 C2743 1.371 . S
C2739 H2711 0.930 . S
C2739 C2738 1.358 . S
C2739 C2740 1.405 . S
C2740 H2712 0.932 . S
C2740 C2739 1.405 . S
C2740 C2741 1.383 . S
C2741 C2740 1.383 . S
C2741 C2742 1.393 . S
C2742 H2714 0.931 . S
C2742 C2741 1.393 . S
C2742 C2743 1.382 . S
C2743 H2713 0.929 . S
C2743 C2738 1.371 . S
C2743 C2742 1.382 . S
C2744 N2707 1.423 . S
C2744 C2745 1.362 . S
C2744 C2749 1.388 . S
C2745 H2715 0.929 . S
C2745 C2744 1.362 . S
C2745 C2746 1.376 . S
C2746 H2717 0.931 . S
C2746 C2745 1.376 . S
C2746 C2747 1.396 . S
C2747 C2746 1.396 . S
C2747 C2748 1.348 . S
C2747 C2765 1.472 . S
C2748 H2718 0.929 . S
C2748 C2747 1.348 . S
C2748 C2749 1.443 . S
C2749 H2716 0.932 . S
C2749 C2744 1.388 . S
C2749 C2748 1.443 . S
C2750 N2730 1.433 . S
C2750 C2751 1.363 . S
C2750 C2755 1.370 . S
C2751 H2719 0.929 . S
C2751 C2750 1.363 . S
C2751 C2752 1.385 . S
C2752 H2720 0.930 . S
C2752 C2751 1.385 . S
C2752 C2753 1.357 . S
C2753 C2752 1.357 . S
C2753 C2754 1.406 . S
C2754 H2721 0.929 . S
C2754 C2753 1.406 . S
C2754 C2755 1.391 . S
C2755 H2722 0.931 . S
C2755 C2750 1.370 . S
C2755 C2754 1.391 . S
C2756 N2730 1.435 . S
C2756 C2757 1.358 . S
C2756 C2761 1.371 . S
C2757 H2723 0.930 . S
C2757 C2756 1.358 . S
C2757 C2758 1.405 . S
C2758 H2724 0.932 . S
C2758 C2757 1.405 . S
C2758 C2759 1.383 . S
C2759 C2758 1.383 . S
C2759 C2760 1.393 . S
C2760 H2725 0.931 . S
C2760 C2759 1.393 . S
C2760 C2761 1.382 . S
C2761 H2726 0.929 . S
C2761 C2756 1.371 . S
C2761 C2760 1.382 . S
C2762 N2730 1.423 . S
C2762 C2763 1.362 . S
C2762 C2767 1.388 . S
C2763 H2727 0.929 . S
C2763 C2762 1.362 . S
C2763 C2764 1.376 . S
C2764 H2728 0.931 . S
C2764 C2763 1.376 . S
C2764 C2765 1.396 . S
C2765 C2747 1.472 . S
C2765 C2764 1.396 . S
C2765 C2766 1.348 . S
C2766 H2729 0.929 . S
C2766 C2765 1.348 . S
C2766 C2767 1.443 . S
C2767 H2731 0.932 . S
C2767 C2762 1.388 . S
C2767 C2766 1.443 . S
C2768 C2769 1.391 . S
C2768 C2770 1.394 . S
C2768 H2784 0.931 . S
C2769 C2768 1.391 . S
C2769 C2773 1.376 . S
C2770 C2768 1.394 . S
C2770 C2771 1.369 . S
C2770 C2774 1.531 . S
C2771 C2770 1.369 . S
C2771 C2772 1.410 . S
C2771 C2779 1.503 . S
C2772 C2771 1.410 . S
C2772 C2773 1.392 . S
C2772 C2775 1.511 . S
C2773 C2769 1.376 . S
C2773 C2772 1.392 . S
C2773 H2785 0.929 . S
C2774 C2770 1.531 . S
C2774 H2786 0.960 . S
C2774 H2787 0.962 . S
C2774 H2788 0.960 . S
C2775 C2772 1.511 . S
C2775 H2789 0.961 . S
C2775 H2790 0.961 . S
C2775 H2791 0.961 . S
C2776 C2777 1.370 . S
C2776 C2778 1.363 . S
C2776 H2792 0.931 . S
C2777 C2776 1.370 . S
C2777 C2781 1.408 . S
C2778 C2776 1.363 . S
C2778 C2779 1.370 . S
C2778 C2782 1.524 . S
C2779 C2771 1.503 . S
C2779 C2778 1.370 . S
C2779 C2780 1.403 . S
C2780 C2779 1.403 . S
C2780 C2781 1.404 . S
C2780 C2783 1.539 . S
C2781 C2777 1.408 . S
C2781 C2780 1.404 . S
C2781 H2793 0.930 . S
C2782 C2778 1.524 . S
C2782 H2794 0.956 . S
C2782 H2795 0.961 . S
C2782 H2796 0.961 . S
C2783 C2780 1.539 . S
C2783 H2797 0.958 . S
C2783 H2798 0.961 . S
C2783 H2799 0.960 . S
H2784 C2768 0.931 . S
H2785 C2773 0.929 . S
H2786 C2774 0.960 . S
H2787 C2774 0.962 . S
H2788 C2774 0.960 . S
H2789 C2775 0.961 . S
H2790 C2775 0.961 . S
H2791 C2775 0.961 . S
H2792 C2776 0.931 . S
H2793 C2781 0.930 . S
H2794 C2782 0.956 . S
H2795 C2782 0.961 . S
H2796 C2782 0.961 . S
H2797 C2783 0.958 . S
H2798 C2783 0.961 . S
H2799 C2783 0.960 . S
C2800 C2801 1.391 . S
C2800 C2802 1.394 . S
C2800 H2816 0.931 . S
C2801 C2800 1.391 . S
C2801 C2805 1.376 . S
C2802 C2800 1.394 . S
C2802 C2803 1.369 . S
C2802 C2806 1.531 . S
C2803 C2802 1.369 . S
C2803 C2804 1.410 . S
C2803 C2811 1.503 . S
C2804 C2803 1.410 . S
C2804 C2805 1.392 . S
C2804 C2807 1.511 . S
C2805 C2801 1.376 . S
C2805 C2804 1.392 . S
C2805 H2817 0.929 . S
C2806 C2802 1.531 . S
C2806 H2818 0.960 . S
C2806 H2819 0.962 . S
C2806 H2820 0.960 . S
C2807 C2804 1.511 . S
C2807 H2821 0.961 . S
C2807 H2822 0.961 . S
C2807 H2823 0.961 . S
C2808 C2809 1.370 . S
C2808 C2810 1.363 . S
C2808 H2824 0.931 . S
C2809 C2808 1.370 . S
C2809 C2813 1.408 . S
C2810 C2808 1.363 . S
C2810 C2811 1.370 . S
C2810 C2814 1.524 . S
C2811 C2803 1.503 . S
C2811 C2810 1.370 . S
C2811 C2812 1.403 . S
C2812 C2811 1.403 . S
C2812 C2813 1.404 . S
C2812 C2815 1.539 . S
C2813 C2809 1.408 . S
C2813 C2812 1.404 . S
C2813 H2825 0.930 . S
C2814 C2810 1.524 . S
C2814 H2826 0.956 . S
C2814 H2827 0.961 . S
C2814 H2828 0.961 . S
C2815 C2812 1.539 . S
C2815 H2829 0.958 . S
C2815 H2830 0.961 . S
C2815 H2831 0.960 . S
H2816 C2800 0.931 . S
H2817 C2805 0.929 . S
H2818 C2806 0.960 . S
H2819 C2806 0.962 . S
H2820 C2806 0.960 . S
H2821 C2807 0.961 . S
H2822 C2807 0.961 . S
H2823 C2807 0.961 . S
H2824 C2808 0.931 . S
H2825 C2813 0.930 . S
H2826 C2814 0.956 . S
H2827 C2814 0.961 . S
H2828 C2814 0.961 . S
H2829 C2815 0.958 . S
H2830 C2815 0.961 . S
H2831 C2815 0.960 . S
C2832 C2833 1.391 . S
C2832 C2834 1.394 . S
C2832 H2848 0.931 . S
C2833 C2832 1.391 . S
C2833 C2837 1.376 . S
C2834 C2832 1.394 . S
C2834 C2835 1.369 . S
C2834 C2838 1.531 . S
C2835 C2834 1.369 . S
C2835 C2836 1.410 . S
C2835 C2843 1.503 . S
C2836 C2835 1.410 . S
C2836 C2837 1.392 . S
C2836 C2839 1.511 . S
C2837 C2833 1.376 . S
C2837 C2836 1.392 . S
C2837 H2849 0.929 . S
C2838 C2834 1.531 . S
C2838 H2850 0.960 . S
C2838 H2851 0.962 . S
C2838 H2852 0.960 . S
C2839 C2836 1.511 . S
C2839 H2853 0.961 . S
C2839 H2854 0.961 . S
C2839 H2855 0.961 . S
C2840 C2841 1.370 . S
C2840 C2842 1.363 . S
C2840 H2856 0.931 . S
C2841 C2840 1.370 . S
C2841 C2845 1.408 . S
C2842 C2840 1.363 . S
C2842 C2843 1.370 . S
C2842 C2846 1.524 . S
C2843 C2835 1.503 . S
C2843 C2842 1.370 . S
C2843 C2844 1.403 . S
C2844 C2843 1.403 . S
C2844 C2845 1.404 . S
C2844 C2847 1.539 . S
C2845 C2841 1.408 . S
C2845 C2844 1.404 . S
C2845 H2857 0.930 . S
C2846 C2842 1.524 . S
C2846 H2858 0.956 . S
C2846 H2859 0.961 . S
C2846 H2860 0.961 . S
C2847 C2844 1.539 . S
C2847 H2861 0.958 . S
C2847 H2862 0.961 . S
C2847 H2863 0.960 . S
H2848 C2832 0.931 . S
H2849 C2837 0.929 . S
H2850 C2838 0.960 . S
H2851 C2838 0.962 . S
H2852 C2838 0.960 . S
H2853 C2839 0.961 . S
H2854 C2839 0.961 . S
H2855 C2839 0.961 . S
H2856 C2840 0.931 . S
H2857 C2845 0.930 . S
H2858 C2846 0.956 . S
H2859 C2846 0.961 . S
H2860 C2846 0.961 . S
H2861 C2847 0.958 . S
H2862 C2847 0.961 . S
H2863 C2847 0.960 . S
C2864 C2865 1.391 . S
C2864 C2866 1.394 . S
C2864 H2880 0.931 . S
C2865 C2864 1.391 . S
C2865 C2869 1.376 . S
C2866 C2864 1.394 . S
C2866 C2867 1.369 . S
C2866 C2870 1.531 . S
C2867 C2866 1.369 . S
C2867 C2868 1.410 . S
C2867 C2875 1.503 . S
C2868 C2867 1.410 . S
C2868 C2869 1.392 . S
C2868 C2871 1.511 . S
C2869 C2865 1.376 . S
C2869 C2868 1.392 . S
C2869 H2881 0.929 . S
C2870 C2866 1.531 . S
C2870 H2882 0.960 . S
C2870 H2883 0.962 . S
C2870 H2884 0.960 . S
C2871 C2868 1.511 . S
C2871 H2885 0.961 . S
C2871 H2886 0.961 . S
C2871 H2887 0.961 . S
C2872 C2873 1.370 . S
C2872 C2874 1.363 . S
C2872 H2888 0.931 . S
C2873 C2872 1.370 . S
C2873 C2877 1.408 . S
C2874 C2872 1.363 . S
C2874 C2875 1.370 . S
C2874 C2878 1.524 . S
C2875 C2867 1.503 . S
C2875 C2874 1.370 . S
C2875 C2876 1.403 . S
C2876 C2875 1.403 . S
C2876 C2877 1.404 . S
C2876 C2879 1.539 . S
C2877 C2873 1.408 . S
C2877 C2876 1.404 . S
C2877 H2889 0.930 . S
C2878 C2874 1.524 . S
C2878 H2890 0.956 . S
C2878 H2891 0.961 . S
C2878 H2892 0.961 . S
C2879 C2876 1.539 . S
C2879 H2893 0.958 . S
C2879 H2894 0.961 . S
C2879 H2895 0.960 . S
H2880 C2864 0.931 . S
H2881 C2869 0.929 . S
H2882 C2870 0.960 . S
H2883 C2870 0.962 . S
H2884 C2870 0.960 . S
H2885 C2871 0.961 . S
H2886 C2871 0.961 . S
H2887 C2871 0.961 . S
H2888 C2872 0.931 . S
H2889 C2877 0.930 . S
H2890 C2878 0.956 . S
H2891 C2878 0.961 . S
H2892 C2878 0.961 . S
H2893 C2879 0.958 . S
H2894 C2879 0.961 . S
H2895 C2879 0.960 . S
C2896 C2897 1.391 . S
C2896 C2898 1.394 . S
C2896 H2912 0.931 . S
C2897 C2896 1.391 . S
C2897 C2901 1.376 . S
C2898 C2896 1.394 . S
C2898 C2899 1.369 . S
C2898 C2902 1.531 . S
C2899 C2898 1.369 . S
C2899 C2900 1.410 . S
C2899 C2907 1.503 . S
C2900 C2899 1.410 . S
C2900 C2901 1.392 . S
C2900 C2903 1.511 . S
C2901 C2897 1.376 . S
C2901 C2900 1.392 . S
C2901 H2913 0.929 . S
C2902 C2898 1.531 . S
C2902 H2914 0.960 . S
C2902 H2915 0.962 . S
C2902 H2916 0.960 . S
C2903 C2900 1.511 . S
C2903 H2917 0.961 . S
C2903 H2918 0.961 . S
C2903 H2919 0.961 . S
C2904 C2905 1.370 . S
C2904 C2906 1.363 . S
C2904 H2920 0.931 . S
C2905 C2904 1.370 . S
C2905 C2909 1.408 . S
C2906 C2904 1.363 . S
C2906 C2907 1.370 . S
C2906 C2910 1.524 . S
C2907 C2899 1.503 . S
C2907 C2906 1.370 . S
C2907 C2908 1.403 . S
C2908 C2907 1.403 . S
C2908 C2909 1.404 . S
C2908 C2911 1.539 . S
C2909 C2905 1.408 . S
C2909 C2908 1.404 . S
C2909 H2921 0.930 . S
C2910 C2906 1.524 . S
C2910 H2922 0.956 . S
C2910 H2923 0.961 . S
C2910 H2924 0.961 . S
C2911 C2908 1.539 . S
C2911 H2925 0.958 . S
C2911 H2926 0.961 . S
C2911 H2927 0.960 . S
H2912 C2896 0.931 . S
H2913 C2901 0.929 . S
H2914 C2902 0.960 . S
H2915 C2902 0.962 . S
H2916 C2902 0.960 . S
H2917 C2903 0.961 . S
H2918 C2903 0.961 . S
H2919 C2903 0.961 . S
H2920 C2904 0.931 . S
H2921 C2909 0.930 . S
H2922 C2910 0.956 . S
H2923 C2910 0.961 . S
H2924 C2910 0.961 . S
H2925 C2911 0.958 . S
H2926 C2911 0.961 . S
H2927 C2911 0.960 . S
C2928 C2929 1.391 . S
C2928 C2930 1.394 . S
C2928 H2944 0.931 . S
C2929 C2928 1.391 . S
C2929 C2933 1.376 . S
C2930 C2928 1.394 . S
C2930 C2931 1.369 . S
C2930 C2934 1.531 . S
C2931 C2930 1.369 . S
C2931 C2932 1.410 . S
C2931 C2939 1.503 . S
C2932 C2931 1.410 . S
C2932 C2933 1.392 . S
C2932 C2935 1.511 . S
C2933 C2929 1.376 . S
C2933 C2932 1.392 . S
C2933 H2945 0.929 . S
C2934 C2930 1.531 . S
C2934 H2946 0.960 . S
C2934 H2947 0.962 . S
C2934 H2948 0.960 . S
C2935 C2932 1.511 . S
C2935 H2949 0.961 . S
C2935 H2950 0.961 . S
C2935 H2951 0.961 . S
C2936 C2937 1.370 . S
C2936 C2938 1.363 . S
C2936 H2952 0.931 . S
C2937 C2936 1.370 . S
C2937 C2941 1.408 . S
C2938 C2936 1.363 . S
C2938 C2939 1.370 . S
C2938 C2942 1.524 . S
C2939 C2931 1.503 . S
C2939 C2938 1.370 . S
C2939 C2940 1.403 . S
C2940 C2939 1.403 . S
C2940 C2941 1.404 . S
C2940 C2943 1.539 . S
C2941 C2937 1.408 . S
C2941 C2940 1.404 . S
C2941 H2953 0.930 . S
C2942 C2938 1.524 . S
C2942 H2954 0.956 . S
C2942 H2955 0.961 . S
C2942 H2956 0.961 . S
C2943 C2940 1.539 . S
C2943 H2957 0.958 . S
C2943 H2958 0.961 . S
C2943 H2959 0.960 . S
H2944 C2928 0.931 . S
H2945 C2933 0.929 . S
H2946 C2934 0.960 . S
H2947 C2934 0.962 . S
H2948 C2934 0.960 . S
H2949 C2935 0.961 . S
H2950 C2935 0.961 . S
H2951 C2935 0.961 . S
H2952 C2936 0.931 . S
H2953 C2941 0.930 . S
H2954 C2942 0.956 . S
H2955 C2942 0.961 . S
H2956 C2942 0.961 . S
H2957 C2943 0.958 . S
H2958 C2943 0.961 . S
H2959 C2943 0.960 . S
C2960 C2961 1.391 . S
C2960 C2962 1.394 . S
C2960 H2976 0.931 . S
C2961 C2960 1.391 . S
C2961 C2965 1.376 . S
C2962 C2960 1.394 . S
C2962 C2963 1.369 . S
C2962 C2966 1.531 . S
C2963 C2962 1.369 . S
C2963 C2964 1.410 . S
C2963 C2971 1.503 . S
C2964 C2963 1.410 . S
C2964 C2965 1.392 . S
C2964 C2967 1.511 . S
C2965 C2961 1.376 . S
C2965 C2964 1.392 . S
C2965 H2977 0.929 . S
C2966 C2962 1.531 . S
C2966 H2978 0.960 . S
C2966 H2979 0.962 . S
C2966 H2980 0.960 . S
C2967 C2964 1.511 . S
C2967 H2981 0.961 . S
C2967 H2982 0.961 . S
C2967 H2983 0.961 . S
C2968 C2969 1.370 . S
C2968 C2970 1.363 . S
C2968 H2984 0.931 . S
C2969 C2968 1.370 . S
C2969 C2973 1.408 . S
C2970 C2968 1.363 . S
C2970 C2971 1.370 . S
C2970 C2974 1.524 . S
C2971 C2963 1.503 . S
C2971 C2970 1.370 . S
C2971 C2972 1.403 . S
C2972 C2971 1.403 . S
C2972 C2973 1.404 . S
C2972 C2975 1.539 . S
C2973 C2969 1.408 . S
C2973 C2972 1.404 . S
C2973 H2985 0.930 . S
C2974 C2970 1.524 . S
C2974 H2986 0.956 . S
C2974 H2987 0.961 . S
C2974 H2988 0.961 . S
C2975 C2972 1.539 . S
C2975 H2989 0.958 . S
C2975 H2990 0.961 . S
C2975 H2991 0.960 . S
H2976 C2960 0.931 . S
H2977 C2965 0.929 . S
H2978 C2966 0.960 . S
H2979 C2966 0.962 . S
H2980 C2966 0.960 . S
H2981 C2967 0.961 . S
H2982 C2967 0.961 . S
H2983 C2967 0.961 . S
H2984 C2968 0.931 . S
H2985 C2973 0.930 . S
H2986 C2974 0.956 . S
H2987 C2974 0.961 . S
H2988 C2974 0.961 . S
H2989 C2975 0.958 . S
H2990 C2975 0.961 . S
H2991 C2975 0.960 . S
C2992 C2993 1.391 . S
C2992 C2994 1.394 . S
C2992 H3008 0.931 . S
C2993 C2992 1.391 . S
C2993 C2997 1.376 . S
C2994 C2992 1.394 . S
C2994 C2995 1.369 . S
C2994 C2998 1.531 . S
C2995 C2994 1.369 . S
C2995 C2996 1.410 . S
C2995 C3003 1.503 . S
C2996 C2995 1.410 . S
C2996 C2997 1.392 . S
C2996 C2999 1.511 . S
C2997 C2993 1.376 . S
C2997 C2996 1.392 . S
C2997 H3009 0.929 . S
C2998 C2994 1.531 . S
C2998 H3010 0.960 . S
C2998 H3011 0.962 . S
C2998 H3012 0.960 . S
C2999 C2996 1.511 . S
C2999 H3013 0.961 . S
C2999 H3014 0.961 . S
C2999 H3015 0.961 . S
C3000 C3001 1.370 . S
C3000 C3002 1.363 . S
C3000 H3016 0.931 . S
C3001 C3000 1.370 . S
C3001 C3005 1.408 . S
C3002 C3000 1.363 . S
C3002 C3003 1.370 . S
C3002 C3006 1.524 . S
C3003 C2995 1.503 . S
C3003 C3002 1.370 . S
C3003 C3004 1.403 . S
C3004 C3003 1.403 . S
C3004 C3005 1.404 . S
C3004 C3007 1.539 . S
C3005 C3001 1.408 . S
C3005 C3004 1.404 . S
C3005 H3017 0.930 . S
C3006 C3002 1.524 . S
C3006 H3018 0.956 . S
C3006 H3019 0.961 . S
C3006 H3020 0.961 . S
C3007 C3004 1.539 . S
C3007 H3021 0.958 . S
C3007 H3022 0.961 . S
C3007 H3023 0.960 . S
H3008 C2992 0.931 . S
H3009 C2997 0.929 . S
H3010 C2998 0.960 . S
H3011 C2998 0.962 . S
H3012 C2998 0.960 . S
H3013 C2999 0.961 . S
H3014 C2999 0.961 . S
H3015 C2999 0.961 . S
H3016 C3000 0.931 . S
H3017 C3005 0.930 . S
H3018 C3006 0.956 . S
H3019 C3006 0.961 . S
H3020 C3006 0.961 . S
H3021 C3007 0.958 . S
H3022 C3007 0.961 . S
H3023 C3007 0.960 . S
C3024 C3025 1.391 . S
C3024 C3026 1.394 . S
C3024 H3040 0.931 . S
C3025 C3024 1.391 . S
C3025 C3029 1.376 . S
C3026 C3024 1.394 . S
C3026 C3027 1.369 . S
C3026 C3030 1.531 . S
C3027 C3026 1.369 . S
C3027 C3028 1.410 . S
C3027 C3035 1.503 . S
C3028 C3027 1.410 . S
C3028 C3029 1.392 . S
C3028 C3031 1.511 . S
C3029 C3025 1.376 . S
C3029 C3028 1.392 . S
C3029 H3041 0.929 . S
C3030 C3026 1.531 . S
C3030 H3042 0.960 . S
C3030 H3043 0.962 . S
C3030 H3044 0.960 . S
C3031 C3028 1.511 . S
C3031 H3045 0.961 . S
C3031 H3046 0.961 . S
C3031 H3047 0.961 . S
C3032 C3033 1.370 . S
C3032 C3034 1.363 . S
C3032 H3048 0.931 . S
C3033 C3032 1.370 . S
C3033 C3037 1.408 . S
C3034 C3032 1.363 . S
C3034 C3035 1.370 . S
C3034 C3038 1.524 . S
C3035 C3027 1.503 . S
C3035 C3034 1.370 . S
C3035 C3036 1.403 . S
C3036 C3035 1.403 . S
C3036 C3037 1.404 . S
C3036 C3039 1.539 . S
C3037 C3033 1.408 . S
C3037 C3036 1.404 . S
C3037 H3049 0.930 . S
C3038 C3034 1.524 . S
C3038 H3050 0.956 . S
C3038 H3051 0.961 . S
C3038 H3052 0.961 . S
C3039 C3036 1.539 . S
C3039 H3053 0.958 . S
C3039 H3054 0.961 . S
C3039 H3055 0.960 . S
H3040 C3024 0.931 . S
H3041 C3029 0.929 . S
H3042 C3030 0.960 . S
H3043 C3030 0.962 . S
H3044 C3030 0.960 . S
H3045 C3031 0.961 . S
H3046 C3031 0.961 . S
H3047 C3031 0.961 . S
H3048 C3032 0.931 . S
H3049 C3037 0.930 . S
H3050 C3038 0.956 . S
H3051 C3038 0.961 . S
H3052 C3038 0.961 . S
H3053 C3039 0.958 . S
H3054 C3039 0.961 . S
H3055 C3039 0.960 . S
C3056 C3057 1.391 . S
C3056 C3058 1.394 . S
C3056 H3072 0.931 . S
C3057 C3056 1.391 . S
C3057 C3061 1.376 . S
C3058 C3056 1.394 . S
C3058 C3059 1.369 . S
C3058 C3062 1.531 . S
C3059 C3058 1.369 . S
C3059 C3060 1.410 . S
C3059 C3067 1.503 . S
C3060 C3059 1.410 . S
C3060 C3061 1.392 . S
C3060 C3063 1.511 . S
C3061 C3057 1.376 . S
C3061 C3060 1.392 . S
C3061 H3073 0.929 . S
C3062 C3058 1.531 . S
C3062 H3074 0.960 . S
C3062 H3075 0.962 . S
C3062 H3076 0.960 . S
C3063 C3060 1.511 . S
C3063 H3077 0.961 . S
C3063 H3078 0.961 . S
C3063 H3079 0.961 . S
C3064 C3065 1.370 . S
C3064 C3066 1.363 . S
C3064 H3080 0.931 . S
C3065 C3064 1.370 . S
C3065 C3069 1.408 . S
C3066 C3064 1.363 . S
C3066 C3067 1.370 . S
C3066 C3070 1.524 . S
C3067 C3059 1.503 . S
C3067 C3066 1.370 . S
C3067 C3068 1.403 . S
C3068 C3067 1.403 . S
C3068 C3069 1.404 . S
C3068 C3071 1.539 . S
C3069 C3065 1.408 . S
C3069 C3068 1.404 . S
C3069 H3081 0.930 . S
C3070 C3066 1.524 . S
C3070 H3082 0.956 . S
C3070 H3083 0.961 . S
C3070 H3084 0.961 . S
C3071 C3068 1.539 . S
C3071 H3085 0.958 . S
C3071 H3086 0.961 . S
C3071 H3087 0.960 . S
H3072 C3056 0.931 . S
H3073 C3061 0.929 . S
H3074 C3062 0.960 . S
H3075 C3062 0.962 . S
H3076 C3062 0.960 . S
H3077 C3063 0.961 . S
H3078 C3063 0.961 . S
H3079 C3063 0.961 . S
H3080 C3064 0.931 . S
H3081 C3069 0.930 . S
H3082 C3070 0.956 . S
H3083 C3070 0.961 . S
H3084 C3070 0.961 . S
H3085 C3071 0.958 . S
H3086 C3071 0.961 . S
H3087 C3071 0.960 . S
C3088 C3089 1.391 . S
C3088 C3090 1.394 . S
C3088 H3104 0.931 . S
C3089 C3088 1.391 . S
C3089 C3093 1.376 . S
C3090 C3088 1.394 . S
C3090 C3091 1.369 . S
C3090 C3094 1.531 . S
C3091 C3090 1.369 . S
C3091 C3092 1.410 . S
C3091 C3099 1.503 . S
C3092 C3091 1.410 . S
C3092 C3093 1.392 . S
C3092 C3095 1.511 . S
C3093 C3089 1.376 . S
C3093 C3092 1.392 . S
C3093 H3105 0.929 . S
C3094 C3090 1.531 . S
C3094 H3106 0.960 . S
C3094 H3107 0.962 . S
C3094 H3108 0.960 . S
C3095 C3092 1.511 . S
C3095 H3109 0.961 . S
C3095 H3110 0.961 . S
C3095 H3111 0.961 . S
C3096 C3097 1.370 . S
C3096 C3098 1.363 . S
C3096 H3112 0.931 . S
C3097 C3096 1.370 . S
C3097 C3101 1.408 . S
C3098 C3096 1.363 . S
C3098 C3099 1.370 . S
C3098 C3102 1.524 . S
C3099 C3091 1.503 . S
C3099 C3098 1.370 . S
C3099 C3100 1.403 . S
C3100 C3099 1.403 . S
C3100 C3101 1.404 . S
C3100 C3103 1.539 . S
C3101 C3097 1.408 . S
C3101 C3100 1.404 . S
C3101 H3113 0.930 . S
C3102 C3098 1.524 . S
C3102 H3114 0.956 . S
C3102 H3115 0.961 . S
C3102 H3116 0.961 . S
C3103 C3100 1.539 . S
C3103 H3117 0.958 . S
C3103 H3118 0.961 . S
C3103 H3119 0.960 . S
H3104 C3088 0.931 . S
H3105 C3093 0.929 . S
H3106 C3094 0.960 . S
H3107 C3094 0.962 . S
H3108 C3094 0.960 . S
H3109 C3095 0.961 . S
H3110 C3095 0.961 . S
H3111 C3095 0.961 . S
H3112 C3096 0.931 . S
H3113 C3101 0.930 . S
H3114 C3102 0.956 . S
H3115 C3102 0.961 . S
H3116 C3102 0.961 . S
H3117 C3103 0.958 . S
H3118 C3103 0.961 . S
H3119 C3103 0.960 . S
C3120 C3121 1.391 . S
C3120 C3122 1.394 . S
C3120 H3136 0.931 . S
C3121 C3120 1.391 . S
C3121 C3125 1.376 . S
C3122 C3120 1.394 . S
C3122 C3123 1.369 . S
C3122 C3126 1.531 . S
C3123 C3122 1.369 . S
C3123 C3124 1.410 . S
C3123 C3131 1.503 . S
C3124 C3123 1.410 . S
C3124 C3125 1.392 . S
C3124 C3127 1.511 . S
C3125 C3121 1.376 . S
C3125 C3124 1.392 . S
C3125 H3137 0.929 . S
C3126 C3122 1.531 . S
C3126 H3138 0.960 . S
C3126 H3139 0.962 . S
C3126 H3140 0.960 . S
C3127 C3124 1.511 . S
C3127 H3141 0.961 . S
C3127 H3142 0.961 . S
C3127 H3143 0.961 . S
C3128 C3129 1.370 . S
C3128 C3130 1.363 . S
C3128 H3144 0.931 . S
C3129 C3128 1.370 . S
C3129 C3133 1.408 . S
C3130 C3128 1.363 . S
C3130 C3131 1.370 . S
C3130 C3134 1.524 . S
C3131 C3123 1.503 . S
C3131 C3130 1.370 . S
C3131 C3132 1.403 . S
C3132 C3131 1.403 . S
C3132 C3133 1.404 . S
C3132 C3135 1.539 . S
C3133 C3129 1.408 . S
C3133 C3132 1.404 . S
C3133 H3145 0.930 . S
C3134 C3130 1.524 . S
C3134 H3146 0.956 . S
C3134 H3147 0.961 . S
C3134 H3148 0.961 . S
C3135 C3132 1.539 . S
C3135 H3149 0.958 . S
C3135 H3150 0.961 . S
C3135 H3151 0.960 . S
H3136 C3120 0.931 . S
H3137 C3125 0.929 . S
H3138 C3126 0.960 . S
H3139 C3126 0.962 . S
H3140 C3126 0.960 . S
H3141 C3127 0.961 . S
H3142 C3127 0.961 . S
H3143 C3127 0.961 . S
H3144 C3128 0.931 . S
H3145 C3133 0.930 . S
H3146 C3134 0.956 . S
H3147 C3134 0.961 . S
H3148 C3134 0.961 . S
H3149 C3135 0.958 . S
H3150 C3135 0.961 . S
H3151 C3135 0.960 . S
C3152 C3153 1.391 . S
C3152 C3154 1.394 . S
C3152 H3168 0.931 . S
C3153 C3152 1.391 . S
C3153 C3157 1.376 . S
C3154 C3152 1.394 . S
C3154 C3155 1.369 . S
C3154 C3158 1.531 . S
C3155 C3154 1.369 . S
C3155 C3156 1.410 . S
C3155 C3163 1.503 . S
C3156 C3155 1.410 . S
C3156 C3157 1.392 . S
C3156 C3159 1.511 . S
C3157 C3153 1.376 . S
C3157 C3156 1.392 . S
C3157 H3169 0.929 . S
C3158 C3154 1.531 . S
C3158 H3170 0.960 . S
C3158 H3171 0.962 . S
C3158 H3172 0.960 . S
C3159 C3156 1.511 . S
C3159 H3173 0.961 . S
C3159 H3174 0.961 . S
C3159 H3175 0.961 . S
C3160 C3161 1.370 . S
C3160 C3162 1.363 . S
C3160 H3176 0.931 . S
C3161 C3160 1.370 . S
C3161 C3165 1.408 . S
C3162 C3160 1.363 . S
C3162 C3163 1.370 . S
C3162 C3166 1.524 . S
C3163 C3155 1.503 . S
C3163 C3162 1.370 . S
C3163 C3164 1.403 . S
C3164 C3163 1.403 . S
C3164 C3165 1.404 . S
C3164 C3167 1.539 . S
C3165 C3161 1.408 . S
C3165 C3164 1.404 . S
C3165 H3177 0.930 . S
C3166 C3162 1.524 . S
C3166 H3178 0.956 . S
C3166 H3179 0.961 . S
C3166 H3180 0.961 . S
C3167 C3164 1.539 . S
C3167 H3181 0.958 . S
C3167 H3182 0.961 . S
C3167 H3183 0.960 . S
H3168 C3152 0.931 . S
H3169 C3157 0.929 . S
H3170 C3158 0.960 . S
H3171 C3158 0.962 . S
H3172 C3158 0.960 . S
H3173 C3159 0.961 . S
H3174 C3159 0.961 . S
H3175 C3159 0.961 . S
H3176 C3160 0.931 . S
H3177 C3165 0.930 . S
H3178 C3166 0.956 . S
H3179 C3166 0.961 . S
H3180 C3166 0.961 . S
H3181 C3167 0.958 . S
H3182 C3167 0.961 . S
H3183 C3167 0.960 . S
C3184 C3185 1.391 . S
C3184 C3186 1.394 . S
C3184 H3200 0.931 . S
C3185 C3184 1.391 . S
C3185 C3189 1.376 . S
C3186 C3184 1.394 . S
C3186 C3187 1.369 . S
C3186 C3190 1.531 . S
C3187 C3186 1.369 . S
C3187 C3188 1.410 . S
C3187 C3195 1.503 . S
C3188 C3187 1.410 . S
C3188 C3189 1.392 . S
C3188 C3191 1.511 . S
C3189 C3185 1.376 . S
C3189 C3188 1.392 . S
C3189 H3201 0.929 . S
C3190 C3186 1.531 . S
C3190 H3202 0.960 . S
C3190 H3203 0.962 . S
C3190 H3204 0.960 . S
C3191 C3188 1.511 . S
C3191 H3205 0.961 . S
C3191 H3206 0.961 . S
C3191 H3207 0.961 . S
C3192 C3193 1.370 . S
C3192 C3194 1.363 . S
C3192 H3208 0.931 . S
C3193 C3192 1.370 . S
C3193 C3197 1.408 . S
C3194 C3192 1.363 . S
C3194 C3195 1.370 . S
C3194 C3198 1.524 . S
C3195 C3187 1.503 . S
C3195 C3194 1.370 . S
C3195 C3196 1.403 . S
C3196 C3195 1.403 . S
C3196 C3197 1.404 . S
C3196 C3199 1.539 . S
C3197 C3193 1.408 . S
C3197 C3196 1.404 . S
C3197 H3209 0.930 . S
C3198 C3194 1.524 . S
C3198 H3210 0.956 . S
C3198 H3211 0.961 . S
C3198 H3212 0.961 . S
C3199 C3196 1.539 . S
C3199 H3213 0.958 . S
C3199 H3214 0.961 . S
C3199 H3215 0.960 . S
H3200 C3184 0.931 . S
H3201 C3189 0.929 . S
H3202 C3190 0.960 . S
H3203 C3190 0.962 . S
H3204 C3190 0.960 . S
H3205 C3191 0.961 . S
H3206 C3191 0.961 . S
H3207 C3191 0.961 . S
H3208 C3192 0.931 . S
H3209 C3197 0.930 . S
H3210 C3198 0.956 . S
H3211 C3198 0.961 . S
H3212 C3198 0.961 . S
H3213 C3199 0.958 . S
H3214 C3199 0.961 . S
H3215 C3199 0.960 . S
C3216 C3217 1.391 . S
C3216 C3218 1.394 . S
C3216 H3232 0.931 . S
C3217 C3216 1.391 . S
C3217 C3221 1.376 . S
C3218 C3216 1.394 . S
C3218 C3219 1.369 . S
C3218 C3222 1.531 . S
C3219 C3218 1.369 . S
C3219 C3220 1.410 . S
C3219 C3227 1.503 . S
C3220 C3219 1.410 . S
C3220 C3221 1.392 . S
C3220 C3223 1.511 . S
C3221 C3217 1.376 . S
C3221 C3220 1.392 . S
C3221 H3233 0.929 . S
C3222 C3218 1.531 . S
C3222 H3234 0.960 . S
C3222 H3235 0.962 . S
C3222 H3236 0.960 . S
C3223 C3220 1.511 . S
C3223 H3237 0.961 . S
C3223 H3238 0.961 . S
C3223 H3239 0.961 . S
C3224 C3225 1.370 . S
C3224 C3226 1.363 . S
C3224 H3240 0.931 . S
C3225 C3224 1.370 . S
C3225 C3229 1.408 . S
C3226 C3224 1.363 . S
C3226 C3227 1.370 . S
C3226 C3230 1.524 . S
C3227 C3219 1.503 . S
C3227 C3226 1.370 . S
C3227 C3228 1.403 . S
C3228 C3227 1.403 . S
C3228 C3229 1.404 . S
C3228 C3231 1.539 . S
C3229 C3225 1.408 . S
C3229 C3228 1.404 . S
C3229 H3241 0.930 . S
C3230 C3226 1.524 . S
C3230 H3242 0.956 . S
C3230 H3243 0.961 . S
C3230 H3244 0.961 . S
C3231 C3228 1.539 . S
C3231 H3245 0.958 . S
C3231 H3246 0.961 . S
C3231 H3247 0.960 . S
H3232 C3216 0.931 . S
H3233 C3221 0.929 . S
H3234 C3222 0.960 . S
H3235 C3222 0.962 . S
H3236 C3222 0.960 . S
H3237 C3223 0.961 . S
H3238 C3223 0.961 . S
H3239 C3223 0.961 . S
H3240 C3224 0.931 . S
H3241 C3229 0.930 . S
H3242 C3230 0.956 . S
H3243 C3230 0.961 . S
H3244 C3230 0.961 . S
H3245 C3231 0.958 . S
H3246 C3231 0.961 . S
H3247 C3231 0.960 . S
C3248 C3249 1.391 . S
C3248 C3250 1.394 . S
C3248 H3264 0.931 . S
C3249 C3248 1.391 . S
C3249 C3253 1.376 . S
C3250 C3248 1.394 . S
C3250 C3251 1.369 . S
C3250 C3254 1.531 . S
C3251 C3250 1.369 . S
C3251 C3252 1.410 . S
C3251 C3259 1.503 . S
C3252 C3251 1.410 . S
C3252 C3253 1.392 . S
C3252 C3255 1.511 . S
C3253 C3249 1.376 . S
C3253 C3252 1.392 . S
C3253 H3265 0.929 . S
C3254 C3250 1.531 . S
C3254 H3266 0.960 . S
C3254 H3267 0.962 . S
C3254 H3268 0.960 . S
C3255 C3252 1.511 . S
C3255 H3269 0.961 . S
C3255 H3270 0.961 . S
C3255 H3271 0.961 . S
C3256 C3257 1.370 . S
C3256 C3258 1.363 . S
C3256 H3272 0.931 . S
C3257 C3256 1.370 . S
C3257 C3261 1.408 . S
C3258 C3256 1.363 . S
C3258 C3259 1.370 . S
C3258 C3262 1.524 . S
C3259 C3251 1.503 . S
C3259 C3258 1.370 . S
C3259 C3260 1.403 . S
C3260 C3259 1.403 . S
C3260 C3261 1.404 . S
C3260 C3263 1.539 . S
C3261 C3257 1.408 . S
C3261 C3260 1.404 . S
C3261 H3273 0.930 . S
C3262 C3258 1.524 . S
C3262 H3274 0.956 . S
C3262 H3275 0.961 . S
C3262 H3276 0.961 . S
C3263 C3260 1.539 . S
C3263 H3277 0.958 . S
C3263 H3278 0.961 . S
C3263 H3279 0.960 . S
H3264 C3248 0.931 . S
H3265 C3253 0.929 . S
H3266 C3254 0.960 . S
H3267 C3254 0.962 . S
H3268 C3254 0.960 . S
H3269 C3255 0.961 . S
H3270 C3255 0.961 . S
H3271 C3255 0.961 . S
H3272 C3256 0.931 . S
H3273 C3261 0.930 . S
H3274 C3262 0.956 . S
H3275 C3262 0.961 . S
H3276 C3262 0.961 . S
H3277 C3263 0.958 . S
H3278 C3263 0.961 . S
H3279 C3263 0.960 . S
C3280 C3281 1.391 . S
C3280 C3282 1.394 . S
C3280 H3296 0.931 . S
C3281 C3280 1.391 . S
C3281 C3285 1.376 . S
C3282 C3280 1.394 . S
C3282 C3283 1.369 . S
C3282 C3286 1.531 . S
C3283 C3282 1.369 . S
C3283 C3284 1.410 . S
C3283 C3291 1.503 . S
C3284 C3283 1.410 . S
C3284 C3285 1.392 . S
C3284 C3287 1.511 . S
C3285 C3281 1.376 . S
C3285 C3284 1.392 . S
C3285 H3297 0.929 . S
C3286 C3282 1.531 . S
C3286 H3298 0.960 . S
C3286 H3299 0.962 . S
C3286 H3300 0.960 . S
C3287 C3284 1.511 . S
C3287 H3301 0.961 . S
C3287 H3302 0.961 . S
C3287 H3303 0.961 . S
C3288 C3289 1.370 . S
C3288 C3290 1.363 . S
C3288 H3304 0.931 . S
C3289 C3288 1.370 . S
C3289 C3293 1.408 . S
C3290 C3288 1.363 . S
C3290 C3291 1.370 . S
C3290 C3294 1.524 . S
C3291 C3283 1.503 . S
C3291 C3290 1.370 . S
C3291 C3292 1.403 . S
C3292 C3291 1.403 . S
C3292 C3293 1.404 . S
C3292 C3295 1.539 . S
C3293 C3289 1.408 . S
C3293 C3292 1.404 . S
C3293 H3305 0.930 . S
C3294 C3290 1.524 . S
C3294 H3306 0.956 . S
C3294 H3307 0.961 . S
C3294 H3308 0.961 . S
C3295 C3292 1.539 . S
C3295 H3309 0.958 . S
C3295 H3310 0.961 . S
C3295 H3311 0.960 . S
H3296 C3280 0.931 . S
H3297 C3285 0.929 . S
H3298 C3286 0.960 . S
H3299 C3286 0.962 . S
H3300 C3286 0.960 . S
H3301 C3287 0.961 . S
H3302 C3287 0.961 . S
H3303 C3287 0.961 . S
H3304 C3288 0.931 . S
H3305 C3293 0.930 . S
H3306 C3294 0.956 . S
H3307 C3294 0.961 . S
H3308 C3294 0.961 . S
H3309 C3295 0.958 . S
H3310 C3295 0.961 . S
H3311 C3295 0.960 . S
C3312 C3313 1.391 . S
C3312 C3314 1.394 . S
C3312 H3328 0.931 . S
C3313 C3312 1.391 . S
C3313 C3317 1.376 . S
C3314 C3312 1.394 . S
C3314 C3315 1.369 . S
C3314 C3318 1.531 . S
C3315 C3314 1.369 . S
C3315 C3316 1.410 . S
C3315 C3323 1.503 . S
C3316 C3315 1.410 . S
C3316 C3317 1.392 . S
C3316 C3319 1.511 . S
C3317 C3313 1.376 . S
C3317 C3316 1.392 . S
C3317 H3329 0.929 . S
C3318 C3314 1.531 . S
C3318 H3330 0.960 . S
C3318 H3331 0.962 . S
C3318 H3332 0.960 . S
C3319 C3316 1.511 . S
C3319 H3333 0.961 . S
C3319 H3334 0.961 . S
C3319 H3335 0.961 . S
C3320 C3321 1.370 . S
C3320 C3322 1.363 . S
C3320 H3336 0.931 . S
C3321 C3320 1.370 . S
C3321 C3325 1.408 . S
C3322 C3320 1.363 . S
C3322 C3323 1.370 . S
C3322 C3326 1.524 . S
C3323 C3315 1.503 . S
C3323 C3322 1.370 . S
C3323 C3324 1.403 . S
C3324 C3323 1.403 . S
C3324 C3325 1.404 . S
C3324 C3327 1.539 . S
C3325 C3321 1.408 . S
C3325 C3324 1.404 . S
C3325 H3337 0.930 . S
C3326 C3322 1.524 . S
C3326 H3338 0.956 . S
C3326 H3339 0.961 . S
C3326 H3340 0.961 . S
C3327 C3324 1.539 . S
C3327 H3341 0.958 . S
C3327 H3342 0.961 . S
C3327 H3343 0.960 . S
H3328 C3312 0.931 . S
H3329 C3317 0.929 . S
H3330 C3318 0.960 . S
H3331 C3318 0.962 . S
H3332 C3318 0.960 . S
H3333 C3319 0.961 . S
H3334 C3319 0.961 . S
H3335 C3319 0.961 . S
H3336 C3320 0.931 . S
H3337 C3325 0.930 . S
H3338 C3326 0.956 . S
H3339 C3326 0.961 . S
H3340 C3326 0.961 . S
H3341 C3327 0.958 . S
H3342 C3327 0.961 . S
H3343 C3327 0.960 . S
C3344 C3345 1.391 . S
C3344 C3346 1.394 . S
C3344 H3360 0.931 . S
C3345 C3344 1.391 . S
C3345 C3349 1.376 . S
C3346 C3344 1.394 . S
C3346 C3347 1.369 . S
C3346 C3350 1.531 . S
C3347 C3346 1.369 . S
C3347 C3348 1.410 . S
C3347 C3355 1.503 . S
C3348 C3347 1.410 . S
C3348 C3349 1.392 . S
C3348 C3351 1.511 . S
C3349 C3345 1.376 . S
C3349 C3348 1.392 . S
C3349 H3361 0.929 . S
C3350 C3346 1.531 . S
C3350 H3362 0.960 . S
C3350 H3363 0.962 . S
C3350 H3364 0.960 . S
C3351 C3348 1.511 . S
C3351 H3365 0.961 . S
C3351 H3366 0.961 . S
C3351 H3367 0.961 . S
C3352 C3353 1.370 . S
C3352 C3354 1.363 . S
C3352 H3368 0.931 . S
C3353 C3352 1.370 . S
C3353 C3357 1.408 . S
C3354 C3352 1.363 . S
C3354 C3355 1.370 . S
C3354 C3358 1.524 . S
C3355 C3347 1.503 . S
C3355 C3354 1.370 . S
C3355 C3356 1.403 . S
C3356 C3355 1.403 . S
C3356 C3357 1.404 . S
C3356 C3359 1.539 . S
C3357 C3353 1.408 . S
C3357 C3356 1.404 . S
C3357 H3369 0.930 . S
C3358 C3354 1.524 . S
C3358 H3370 0.956 . S
C3358 H3371 0.961 . S
C3358 H3372 0.961 . S
C3359 C3356 1.539 . S
C3359 H3373 0.958 . S
C3359 H3374 0.961 . S
C3359 H3375 0.960 . S
H3360 C3344 0.931 . S
H3361 C3349 0.929 . S
H3362 C3350 0.960 . S
H3363 C3350 0.962 . S
H3364 C3350 0.960 . S
H3365 C3351 0.961 . S
H3366 C3351 0.961 . S
H3367 C3351 0.961 . S
H3368 C3352 0.931 . S
H3369 C3357 0.930 . S
H3370 C3358 0.956 . S
H3371 C3358 0.961 . S
H3372 C3358 0.961 . S
H3373 C3359 0.958 . S
H3374 C3359 0.961 . S
H3375 C3359 0.960 . S
C3376 C3377 1.391 . S
C3376 C3378 1.394 . S
C3376 H3392 0.931 . S
C3377 C3376 1.391 . S
C3377 C3381 1.376 . S
C3378 C3376 1.394 . S
C3378 C3379 1.369 . S
C3378 C3382 1.531 . S
C3379 C3378 1.369 . S
C3379 C3380 1.410 . S
C3379 C3387 1.503 . S
C3380 C3379 1.410 . S
C3380 C3381 1.392 . S
C3380 C3383 1.511 . S
C3381 C3377 1.376 . S
C3381 C3380 1.392 . S
C3381 H3393 0.929 . S
C3382 C3378 1.531 . S
C3382 H3394 0.960 . S
C3382 H3395 0.962 . S
C3382 H3396 0.960 . S
C3383 C3380 1.511 . S
C3383 H3397 0.961 . S
C3383 H3398 0.961 . S
C3383 H3399 0.961 . S
C3384 C3385 1.370 . S
C3384 C3386 1.363 . S
C3384 H3400 0.931 . S
C3385 C3384 1.370 . S
C3385 C3389 1.408 . S
C3386 C3384 1.363 . S
C3386 C3387 1.370 . S
C3386 C3390 1.524 . S
C3387 C3379 1.503 . S
C3387 C3386 1.370 . S
C3387 C3388 1.403 . S
C3388 C3387 1.403 . S
C3388 C3389 1.404 . S
C3388 C3391 1.539 . S
C3389 C3385 1.408 . S
C3389 C3388 1.404 . S
C3389 H3401 0.930 . S
C3390 C3386 1.524 . S
C3390 H3402 0.956 . S
C3390 H3403 0.961 . S
C3390 H3404 0.961 . S
C3391 C3388 1.539 . S
C3391 H3405 0.958 . S
C3391 H3406 0.961 . S
C3391 H3407 0.960 . S
H3392 C3376 0.931 . S
H3393 C3381 0.929 . S
H3394 C3382 0.960 . S
H3395 C3382 0.962 . S
H3396 C3382 0.960 . S
H3397 C3383 0.961 . S
H3398 C3383 0.961 . S
H3399 C3383 0.961 . S
H3400 C3384 0.931 . S
H3401 C3389 0.930 . S
H3402 C3390 0.956 . S
H3403 C3390 0.961 . S
H3404 C3390 0.961 . S
H3405 C3391 0.958 . S
H3406 C3391 0.961 . S
H3407 C3391 0.960 . S
C3408 C3409 1.391 . S
C3408 C3410 1.394 . S
C3408 H3424 0.931 . S
C3409 C3408 1.391 . S
C3409 C3413 1.376 . S
C3410 C3408 1.394 . S
C3410 C3411 1.369 . S
C3410 C3414 1.531 . S
C3411 C3410 1.369 . S
C3411 C3412 1.410 . S
C3411 C3419 1.503 . S
C3412 C3411 1.410 . S
C3412 C3413 1.392 . S
C3412 C3415 1.511 . S
C3413 C3409 1.376 . S
C3413 C3412 1.392 . S
C3413 H3425 0.929 . S
C3414 C3410 1.531 . S
C3414 H3426 0.960 . S
C3414 H3427 0.962 . S
C3414 H3428 0.960 . S
C3415 C3412 1.511 . S
C3415 H3429 0.961 . S
C3415 H3430 0.961 . S
C3415 H3431 0.961 . S
C3416 C3417 1.370 . S
C3416 C3418 1.363 . S
C3416 H3432 0.931 . S
C3417 C3416 1.370 . S
C3417 C3421 1.408 . S
C3418 C3416 1.363 . S
C3418 C3419 1.370 . S
C3418 C3422 1.524 . S
C3419 C3411 1.503 . S
C3419 C3418 1.370 . S
C3419 C3420 1.403 . S
C3420 C3419 1.403 . S
C3420 C3421 1.404 . S
C3420 C3423 1.539 . S
C3421 C3417 1.408 . S
C3421 C3420 1.404 . S
C3421 H3433 0.930 . S
C3422 C3418 1.524 . S
C3422 H3434 0.956 . S
C3422 H3435 0.961 . S
C3422 H3436 0.961 . S
C3423 C3420 1.539 . S
C3423 H3437 0.958 . S
C3423 H3438 0.961 . S
C3423 H3439 0.960 . S
H3424 C3408 0.931 . S
H3425 C3413 0.929 . S
H3426 C3414 0.960 . S
H3427 C3414 0.962 . S
H3428 C3414 0.960 . S
H3429 C3415 0.961 . S
H3430 C3415 0.961 . S
H3431 C3415 0.961 . S
H3432 C3416 0.931 . S
H3433 C3421 0.930 . S
H3434 C3422 0.956 . S
H3435 C3422 0.961 . S
H3436 C3422 0.961 . S
H3437 C3423 0.958 . S
H3438 C3423 0.961 . S
H3439 C3423 0.960 . S
C3440 C3441 1.391 . S
C3440 C3442 1.394 . S
C3440 H3456 0.931 . S
C3441 C3440 1.391 . S
C3441 C3445 1.376 . S
C3442 C3440 1.394 . S
C3442 C3443 1.369 . S
C3442 C3446 1.531 . S
C3443 C3442 1.369 . S
C3443 C3444 1.410 . S
C3443 C3451 1.503 . S
C3444 C3443 1.410 . S
C3444 C3445 1.392 . S
C3444 C3447 1.511 . S
C3445 C3441 1.376 . S
C3445 C3444 1.392 . S
C3445 H3457 0.929 . S
C3446 C3442 1.531 . S
C3446 H3458 0.960 . S
C3446 H3459 0.962 . S
C3446 H3460 0.960 . S
C3447 C3444 1.511 . S
C3447 H3461 0.961 . S
C3447 H3462 0.961 . S
C3447 H3463 0.961 . S
C3448 C3449 1.370 . S
C3448 C3450 1.363 . S
C3448 H3464 0.931 . S
C3449 C3448 1.370 . S
C3449 C3453 1.408 . S
C3450 C3448 1.363 . S
C3450 C3451 1.370 . S
C3450 C3454 1.524 . S
C3451 C3443 1.503 . S
C3451 C3450 1.370 . S
C3451 C3452 1.403 . S
C3452 C3451 1.403 . S
C3452 C3453 1.404 . S
C3452 C3455 1.539 . S
C3453 C3449 1.408 . S
C3453 C3452 1.404 . S
C3453 H3465 0.930 . S
C3454 C3450 1.524 . S
C3454 H3466 0.956 . S
C3454 H3467 0.961 . S
C3454 H3468 0.961 . S
C3455 C3452 1.539 . S
C3455 H3469 0.958 . S
C3455 H3470 0.961 . S
C3455 H3471 0.960 . S
H3456 C3440 0.931 . S
H3457 C3445 0.929 . S
H3458 C3446 0.960 . S
H3459 C3446 0.962 . S
H3460 C3446 0.960 . S
H3461 C3447 0.961 . S
H3462 C3447 0.961 . S
H3463 C3447 0.961 . S
H3464 C3448 0.931 . S
H3465 C3453 0.930 . S
H3466 C3454 0.956 . S
H3467 C3454 0.961 . S
H3468 C3454 0.961 . S
H3469 C3455 0.958 . S
H3470 C3455 0.961 . S
H3471 C3455 0.960 . S
C3472 C3473 1.391 . S
C3472 C3474 1.394 . S
C3472 H3488 0.931 . S
C3473 C3472 1.391 . S
C3473 C3477 1.376 . S
C3474 C3472 1.394 . S
C3474 C3475 1.369 . S
C3474 C3478 1.531 . S
C3475 C3474 1.369 . S
C3475 C3476 1.410 . S
C3475 C3483 1.503 . S
C3476 C3475 1.410 . S
C3476 C3477 1.392 . S
C3476 C3479 1.511 . S
C3477 C3473 1.376 . S
C3477 C3476 1.392 . S
C3477 H3489 0.929 . S
C3478 C3474 1.531 . S
C3478 H3490 0.960 . S
C3478 H3491 0.962 . S
C3478 H3492 0.960 . S
C3479 C3476 1.511 . S
C3479 H3493 0.961 . S
C3479 H3494 0.961 . S
C3479 H3495 0.961 . S
C3480 C3481 1.370 . S
C3480 C3482 1.363 . S
C3480 H3496 0.931 . S
C3481 C3480 1.370 . S
C3481 C3485 1.408 . S
C3482 C3480 1.363 . S
C3482 C3483 1.370 . S
C3482 C3486 1.524 . S
C3483 C3475 1.503 . S
C3483 C3482 1.370 . S
C3483 C3484 1.403 . S
C3484 C3483 1.403 . S
C3484 C3485 1.404 . S
C3484 C3487 1.539 . S
C3485 C3481 1.408 . S
C3485 C3484 1.404 . S
C3485 H3497 0.930 . S
C3486 C3482 1.524 . S
C3486 H3498 0.956 . S
C3486 H3499 0.961 . S
C3486 H3500 0.961 . S
C3487 C3484 1.539 . S
C3487 H3501 0.958 . S
C3487 H3502 0.961 . S
C3487 H3503 0.960 . S
H3488 C3472 0.931 . S
H3489 C3477 0.929 . S
H3490 C3478 0.960 . S
H3491 C3478 0.962 . S
H3492 C3478 0.960 . S
H3493 C3479 0.961 . S
H3494 C3479 0.961 . S
H3495 C3479 0.961 . S
H3496 C3480 0.931 . S
H3497 C3485 0.930 . S
H3498 C3486 0.956 . S
H3499 C3486 0.961 . S
H3500 C3486 0.961 . S
H3501 C3487 0.958 . S
H3502 C3487 0.961 . S
H3503 C3487 0.960 . S
C3504 C3505 1.391 . S
C3504 C3506 1.394 . S
C3504 H3520 0.931 . S
C3505 C3504 1.391 . S
C3505 C3509 1.376 . S
C3506 C3504 1.394 . S
C3506 C3507 1.369 . S
C3506 C3510 1.531 . S
C3507 C3506 1.369 . S
C3507 C3508 1.410 . S
C3507 C3515 1.503 . S
C3508 C3507 1.410 . S
C3508 C3509 1.392 . S
C3508 C3511 1.511 . S
C3509 C3505 1.376 . S
C3509 C3508 1.392 . S
C3509 H3521 0.929 . S
C3510 C3506 1.531 . S
C3510 H3522 0.960 . S
C3510 H3523 0.962 . S
C3510 H3524 0.960 . S
C3511 C3508 1.511 . S
C3511 H3525 0.961 . S
C3511 H3526 0.961 . S
C3511 H3527 0.961 . S
C3512 C3513 1.370 . S
C3512 C3514 1.363 . S
C3512 H3528 0.931 . S
C3513 C3512 1.370 . S
C3513 C3517 1.408 . S
C3514 C3512 1.363 . S
C3514 C3515 1.370 . S
C3514 C3518 1.524 . S
C3515 C3507 1.503 . S
C3515 C3514 1.370 . S
C3515 C3516 1.403 . S
C3516 C3515 1.403 . S
C3516 C3517 1.404 . S
C3516 C3519 1.539 . S
C3517 C3513 1.408 . S
C3517 C3516 1.404 . S
C3517 H3529 0.930 . S
C3518 C3514 1.524 . S
C3518 H3530 0.956 . S
C3518 H3531 0.961 . S
C3518 H3532 0.961 . S
C3519 C3516 1.539 . S
C3519 H3533 0.958 . S
C3519 H3534 0.961 . S
C3519 H3535 0.960 . S
H3520 C3504 0.931 . S
H3521 C3509 0.929 . S
H3522 C3510 0.960 . S
H3523 C3510 0.962 . S
H3524 C3510 0.960 . S
H3525 C3511 0.961 . S
H3526 C3511 0.961 . S
H3527 C3511 0.961 . S
H3528 C3512 0.931 . S
H3529 C3517 0.930 . S
H3530 C3518 0.956 . S
H3531 C3518 0.961 . S
H3532 C3518 0.961 . S
H3533 C3519 0.958 . S
H3534 C3519 0.961 . S
H3535 C3519 0.960 . S
C3536 C3537 1.391 . S
C3536 C3538 1.394 . S
C3536 H3552 0.931 . S
C3537 C3536 1.391 . S
C3537 C3541 1.376 . S
C3538 C3536 1.394 . S
C3538 C3539 1.369 . S
C3538 C3542 1.531 . S
C3539 C3538 1.369 . S
C3539 C3540 1.410 . S
C3539 C3547 1.503 . S
C3540 C3539 1.410 . S
C3540 C3541 1.392 . S
C3540 C3543 1.511 . S
C3541 C3537 1.376 . S
C3541 C3540 1.392 . S
C3541 H3553 0.929 . S
C3542 C3538 1.531 . S
C3542 H3554 0.960 . S
C3542 H3555 0.962 . S
C3542 H3556 0.960 . S
C3543 C3540 1.511 . S
C3543 H3557 0.961 . S
C3543 H3558 0.961 . S
C3543 H3559 0.961 . S
C3544 C3545 1.370 . S
C3544 C3546 1.363 . S
C3544 H3560 0.931 . S
C3545 C3544 1.370 . S
C3545 C3549 1.408 . S
C3546 C3544 1.363 . S
C3546 C3547 1.370 . S
C3546 C3550 1.524 . S
C3547 C3539 1.503 . S
C3547 C3546 1.370 . S
C3547 C3548 1.403 . S
C3548 C3547 1.403 . S
C3548 C3549 1.404 . S
C3548 C3551 1.539 . S
C3549 C3545 1.408 . S
C3549 C3548 1.404 . S
C3549 H3561 0.930 . S
C3550 C3546 1.524 . S
C3550 H3562 0.956 . S
C3550 H3563 0.961 . S
C3550 H3564 0.961 . S
C3551 C3548 1.539 . S
C3551 H3565 0.958 . S
C3551 H3566 0.961 . S
C3551 H3567 0.960 . S
H3552 C3536 0.931 . S
H3553 C3541 0.929 . S
H3554 C3542 0.960 . S
H3555 C3542 0.962 . S
H3556 C3542 0.960 . S
H3557 C3543 0.961 . S
H3558 C3543 0.961 . S
H3559 C3543 0.961 . S
H3560 C3544 0.931 . S
H3561 C3549 0.930 . S
H3562 C3550 0.956 . S
H3563 C3550 0.961 . S
H3564 C3550 0.961 . S
H3565 C3551 0.958 . S
H3566 C3551 0.961 . S
H3567 C3551 0.960 . S
C3568 C3569 1.391 . S
C3568 C3570 1.394 . S
C3568 H3584 0.931 . S
C3569 C3568 1.391 . S
C3569 C3573 1.376 . S
C3570 C3568 1.394 . S
C3570 C3571 1.369 . S
C3570 C3574 1.531 . S
C3571 C3570 1.369 . S
C3571 C3572 1.410 . S
C3571 C3579 1.503 . S
C3572 C3571 1.410 . S
C3572 C3573 1.392 . S
C3572 C3575 1.511 . S
C3573 C3569 1.376 . S
C3573 C3572 1.392 . S
C3573 H3585 0.929 . S
C3574 C3570 1.531 . S
C3574 H3586 0.960 . S
C3574 H3587 0.962 . S
C3574 H3588 0.960 . S
C3575 C3572 1.511 . S
C3575 H3589 0.961 . S
C3575 H3590 0.961 . S
C3575 H3591 0.961 . S
C3576 C3577 1.370 . S
C3576 C3578 1.363 . S
C3576 H3592 0.931 . S
C3577 C3576 1.370 . S
C3577 C3581 1.408 . S
C3578 C3576 1.363 . S
C3578 C3579 1.370 . S
C3578 C3582 1.524 . S
C3579 C3571 1.503 . S
C3579 C3578 1.370 . S
C3579 C3580 1.403 . S
C3580 C3579 1.403 . S
C3580 C3581 1.404 . S
C3580 C3583 1.539 . S
C3581 C3577 1.408 . S
C3581 C3580 1.404 . S
C3581 H3593 0.930 . S
C3582 C3578 1.524 . S
C3582 H3594 0.956 . S
C3582 H3595 0.961 . S
C3582 H3596 0.961 . S
C3583 C3580 1.539 . S
C3583 H3597 0.958 . S
C3583 H3598 0.961 . S
C3583 H3599 0.960 . S
H3584 C3568 0.931 . S
H3585 C3573 0.929 . S
H3586 C3574 0.960 . S
H3587 C3574 0.962 . S
H3588 C3574 0.960 . S
H3589 C3575 0.961 . S
H3590 C3575 0.961 . S
H3591 C3575 0.961 . S
H3592 C3576 0.931 . S
H3593 C3581 0.930 . S
H3594 C3582 0.956 . S
H3595 C3582 0.961 . S
H3596 C3582 0.961 . S
H3597 C3583 0.958 . S
H3598 C3583 0.961 . S
H3599 C3583 0.960 . S
C3600 C3601 1.391 . S
C3600 C3602 1.394 . S
C3600 H3616 0.931 . S
C3601 C3600 1.391 . S
C3601 C3605 1.376 . S
C3602 C3600 1.394 . S
C3602 C3603 1.369 . S
C3602 C3606 1.531 . S
C3603 C3602 1.369 . S
C3603 C3604 1.410 . S
C3603 C3611 1.503 . S
C3604 C3603 1.410 . S
C3604 C3605 1.392 . S
C3604 C3607 1.511 . S
C3605 C3601 1.376 . S
C3605 C3604 1.392 . S
C3605 H3617 0.929 . S
C3606 C3602 1.531 . S
C3606 H3618 0.960 . S
C3606 H3619 0.962 . S
C3606 H3620 0.960 . S
C3607 C3604 1.511 . S
C3607 H3621 0.961 . S
C3607 H3622 0.961 . S
C3607 H3623 0.961 . S
C3608 C3609 1.370 . S
C3608 C3610 1.363 . S
C3608 H3624 0.931 . S
C3609 C3608 1.370 . S
C3609 C3613 1.408 . S
C3610 C3608 1.363 . S
C3610 C3611 1.370 . S
C3610 C3614 1.524 . S
C3611 C3603 1.503 . S
C3611 C3610 1.370 . S
C3611 C3612 1.403 . S
C3612 C3611 1.403 . S
C3612 C3613 1.404 . S
C3612 C3615 1.539 . S
C3613 C3609 1.408 . S
C3613 C3612 1.404 . S
C3613 H3625 0.930 . S
C3614 C3610 1.524 . S
C3614 H3626 0.956 . S
C3614 H3627 0.961 . S
C3614 H3628 0.961 . S
C3615 C3612 1.539 . S
C3615 H3629 0.958 . S
C3615 H3630 0.961 . S
C3615 H3631 0.960 . S
H3616 C3600 0.931 . S
H3617 C3605 0.929 . S
H3618 C3606 0.960 . S
H3619 C3606 0.962 . S
H3620 C3606 0.960 . S
H3621 C3607 0.961 . S
H3622 C3607 0.961 . S
H3623 C3607 0.961 . S
H3624 C3608 0.931 . S
H3625 C3613 0.930 . S
H3626 C3614 0.956 . S
H3627 C3614 0.961 . S
H3628 C3614 0.961 . S
H3629 C3615 0.958 . S
H3630 C3615 0.961 . S
H3631 C3615 0.960 . S
C3632 C3633 1.391 . S
C3632 C3634 1.394 . S
C3632 H3648 0.931 . S
C3633 C3632 1.391 . S
C3633 C3637 1.376 . S
C3634 C3632 1.394 . S
C3634 C3635 1.369 . S
C3634 C3638 1.531 . S
C3635 C3634 1.369 . S
C3635 C3636 1.410 . S
C3635 C3643 1.503 . S
C3636 C3635 1.410 . S
C3636 C3637 1.392 . S
C3636 C3639 1.511 . S
C3637 C3633 1.376 . S
C3637 C3636 1.392 . S
C3637 H3649 0.929 . S
C3638 C3634 1.531 . S
C3638 H3650 0.960 . S
C3638 H3651 0.962 . S
C3638 H3652 0.960 . S
C3639 C3636 1.511 . S
C3639 H3653 0.961 . S
C3639 H3654 0.961 . S
C3639 H3655 0.961 . S
C3640 C3641 1.370 . S
C3640 C3642 1.363 . S
C3640 H3656 0.931 . S
C3641 C3640 1.370 . S
C3641 C3645 1.408 . S
C3642 C3640 1.363 . S
C3642 C3643 1.370 . S
C3642 C3646 1.524 . S
C3643 C3635 1.503 . S
C3643 C3642 1.370 . S
C3643 C3644 1.403 . S
C3644 C3643 1.403 . S
C3644 C3645 1.404 . S
C3644 C3647 1.539 . S
C3645 C3641 1.408 . S
C3645 C3644 1.404 . S
C3645 H3657 0.930 . S
C3646 C3642 1.524 . S
C3646 H3658 0.956 . S
C3646 H3659 0.961 . S
C3646 H3660 0.961 . S
C3647 C3644 1.539 . S
C3647 H3661 0.958 . S
C3647 H3662 0.961 . S
C3647 H3663 0.960 . S
H3648 C3632 0.931 . S
H3649 C3637 0.929 . S
H3650 C3638 0.960 . S
H3651 C3638 0.962 . S
H3652 C3638 0.960 . S
H3653 C3639 0.961 . S
H3654 C3639 0.961 . S
H3655 C3639 0.961 . S
H3656 C3640 0.931 . S
H3657 C3645 0.930 . S
H3658 C3646 0.956 . S
H3659 C3646 0.961 . S
H3660 C3646 0.961 . S
H3661 C3647 0.958 . S
H3662 C3647 0.961 . S
H3663 C3647 0.960 . S
C3664 C3665 1.391 . S
C3664 C3666 1.394 . S
C3664 H3680 0.931 . S
C3665 C3664 1.391 . S
C3665 C3669 1.376 . S
C3666 C3664 1.394 . S
C3666 C3667 1.369 . S
C3666 C3670 1.531 . S
C3667 C3666 1.369 . S
C3667 C3668 1.410 . S
C3667 C3675 1.503 . S
C3668 C3667 1.410 . S
C3668 C3669 1.392 . S
C3668 C3671 1.511 . S
C3669 C3665 1.376 . S
C3669 C3668 1.392 . S
C3669 H3681 0.929 . S
C3670 C3666 1.531 . S
C3670 H3682 0.960 . S
C3670 H3683 0.962 . S
C3670 H3684 0.960 . S
C3671 C3668 1.511 . S
C3671 H3685 0.961 . S
C3671 H3686 0.961 . S
C3671 H3687 0.961 . S
C3672 C3673 1.370 . S
C3672 C3674 1.363 . S
C3672 H3688 0.931 . S
C3673 C3672 1.370 . S
C3673 C3677 1.408 . S
C3674 C3672 1.363 . S
C3674 C3675 1.370 . S
C3674 C3678 1.524 . S
C3675 C3667 1.503 . S
C3675 C3674 1.370 . S
C3675 C3676 1.403 . S
C3676 C3675 1.403 . S
C3676 C3677 1.404 . S
C3676 C3679 1.539 . S
C3677 C3673 1.408 . S
C3677 C3676 1.404 . S
C3677 H3689 0.930 . S
C3678 C3674 1.524 . S
C3678 H3690 0.956 . S
C3678 H3691 0.961 . S
C3678 H3692 0.961 . S
C3679 C3676 1.539 . S
C3679 H3693 0.958 . S
C3679 H3694 0.961 . S
C3679 H3695 0.960 . S
H3680 C3664 0.931 . S
H3681 C3669 0.929 . S
H3682 C3670 0.960 . S
H3683 C3670 0.962 . S
H3684 C3670 0.960 . S
H3685 C3671 0.961 . S
H3686 C3671 0.961 . S
H3687 C3671 0.961 . S
H3688 C3672 0.931 . S
H3689 C3677 0.930 . S
H3690 C3678 0.956 . S
H3691 C3678 0.961 . S
H3692 C3678 0.961 . S
H3693 C3679 0.958 . S
H3694 C3679 0.961 . S
H3695 C3679 0.960 . S
C3696 C3697 1.391 . S
C3696 C3698 1.394 . S
C3696 H3712 0.931 . S
C3697 C3696 1.391 . S
C3697 C3701 1.376 . S
C3698 C3696 1.394 . S
C3698 C3699 1.369 . S
C3698 C3702 1.531 . S
C3699 C3698 1.369 . S
C3699 C3700 1.410 . S
C3699 C3707 1.503 . S
C3700 C3699 1.410 . S
C3700 C3701 1.392 . S
C3700 C3703 1.511 . S
C3701 C3697 1.376 . S
C3701 C3700 1.392 . S
C3701 H3713 0.929 . S
C3702 C3698 1.531 . S
C3702 H3714 0.960 . S
C3702 H3715 0.962 . S
C3702 H3716 0.960 . S
C3703 C3700 1.511 . S
C3703 H3717 0.961 . S
C3703 H3718 0.961 . S
C3703 H3719 0.961 . S
C3704 C3705 1.370 . S
C3704 C3706 1.363 . S
C3704 H3720 0.931 . S
C3705 C3704 1.370 . S
C3705 C3709 1.408 . S
C3706 C3704 1.363 . S
C3706 C3707 1.370 . S
C3706 C3710 1.524 . S
C3707 C3699 1.503 . S
C3707 C3706 1.370 . S
C3707 C3708 1.403 . S
C3708 C3707 1.403 . S
C3708 C3709 1.404 . S
C3708 C3711 1.539 . S
C3709 C3705 1.408 . S
C3709 C3708 1.404 . S
C3709 H3721 0.930 . S
C3710 C3706 1.524 . S
C3710 H3722 0.956 . S
C3710 H3723 0.961 . S
C3710 H3724 0.961 . S
C3711 C3708 1.539 . S
C3711 H3725 0.958 . S
C3711 H3726 0.961 . S
C3711 H3727 0.960 . S
H3712 C3696 0.931 . S
H3713 C3701 0.929 . S
H3714 C3702 0.960 . S
H3715 C3702 0.962 . S
H3716 C3702 0.960 . S
H3717 C3703 0.961 . S
H3718 C3703 0.961 . S
H3719 C3703 0.961 . S
H3720 C3704 0.931 . S
H3721 C3709 0.930 . S
H3722 C3710 0.956 . S
H3723 C3710 0.961 . S
H3724 C3710 0.961 . S
H3725 C3711 0.958 . S
H3726 C3711 0.961 . S
H3727 C3711 0.960 . S
C3728 C3729 1.391 . S
C3728 C3730 1.394 . S
C3728 H3744 0.931 . S
C3729 C3728 1.391 . S
C3729 C3733 1.376 . S
C3730 C3728 1.394 . S
C3730 C3731 1.369 . S
C3730 C3734 1.531 . S
C3731 C3730 1.369 . S
C3731 C3732 1.410 . S
C3731 C3739 1.503 . S
C3732 C3731 1.410 . S
C3732 C3733 1.392 . S
C3732 C3735 1.511 . S
C3733 C3729 1.376 . S
C3733 C3732 1.392 . S
C3733 H3745 0.929 . S
C3734 C3730 1.531 . S
C3734 H3746 0.960 . S
C3734 H3747 0.962 . S
C3734 H3748 0.960 . S
C3735 C3732 1.511 . S
C3735 H3749 0.961 . S
C3735 H3750 0.961 . S
C3735 H3751 0.961 . S
C3736 C3737 1.370 . S
C3736 C3738 1.363 . S
C3736 H3752 0.931 . S
C3737 C3736 1.370 . S
C3737 C3741 1.408 . S
C3738 C3736 1.363 . S
C3738 C3739 1.370 . S
C3738 C3742 1.524 . S
C3739 C3731 1.503 . S
C3739 C3738 1.370 . S
C3739 C3740 1.403 . S
C3740 C3739 1.403 . S
C3740 C3741 1.404 . S
C3740 C3743 1.539 . S
C3741 C3737 1.408 . S
C3741 C3740 1.404 . S
C3741 H3753 0.930 . S
C3742 C3738 1.524 . S
C3742 H3754 0.956 . S
C3742 H3755 0.961 . S
C3742 H3756 0.961 . S
C3743 C3740 1.539 . S
C3743 H3757 0.958 . S
C3743 H3758 0.961 . S
C3743 H3759 0.960 . S
H3744 C3728 0.931 . S
H3745 C3733 0.929 . S
H3746 C3734 0.960 . S
H3747 C3734 0.962 . S
H3748 C3734 0.960 . S
H3749 C3735 0.961 . S
H3750 C3735 0.961 . S
H3751 C3735 0.961 . S
H3752 C3736 0.931 . S
H3753 C3741 0.930 . S
H3754 C3742 0.956 . S
H3755 C3742 0.961 . S
H3756 C3742 0.961 . S
H3757 C3743 0.958 . S
H3758 C3743 0.961 . S
H3759 C3743 0.960 . S
C3760 C3761 1.391 . S
C3760 C3762 1.394 . S
C3760 H3776 0.931 . S
C3761 C3760 1.391 . S
C3761 C3765 1.376 . S
C3762 C3760 1.394 . S
C3762 C3763 1.369 . S
C3762 C3766 1.531 . S
C3763 C3762 1.369 . S
C3763 C3764 1.410 . S
C3763 C3771 1.503 . S
C3764 C3763 1.410 . S
C3764 C3765 1.392 . S
C3764 C3767 1.511 . S
C3765 C3761 1.376 . S
C3765 C3764 1.392 . S
C3765 H3777 0.929 . S
C3766 C3762 1.531 . S
C3766 H3778 0.960 . S
C3766 H3779 0.962 . S
C3766 H3780 0.960 . S
C3767 C3764 1.511 . S
C3767 H3781 0.961 . S
C3767 H3782 0.961 . S
C3767 H3783 0.961 . S
C3768 C3769 1.370 . S
C3768 C3770 1.363 . S
C3768 H3784 0.931 . S
C3769 C3768 1.370 . S
C3769 C3773 1.408 . S
C3770 C3768 1.363 . S
C3770 C3771 1.370 . S
C3770 C3774 1.524 . S
C3771 C3763 1.503 . S
C3771 C3770 1.370 . S
C3771 C3772 1.403 . S
C3772 C3771 1.403 . S
C3772 C3773 1.404 . S
C3772 C3775 1.539 . S
C3773 C3769 1.408 . S
C3773 C3772 1.404 . S
C3773 H3785 0.930 . S
C3774 C3770 1.524 . S
C3774 H3786 0.956 . S
C3774 H3787 0.961 . S
C3774 H3788 0.961 . S
C3775 C3772 1.539 . S
C3775 H3789 0.958 . S
C3775 H3790 0.961 . S
C3775 H3791 0.960 . S
H3776 C3760 0.931 . S
H3777 C3765 0.929 . S
H3778 C3766 0.960 . S
H3779 C3766 0.962 . S
H3780 C3766 0.960 . S
H3781 C3767 0.961 . S
H3782 C3767 0.961 . S
H3783 C3767 0.961 . S
H3784 C3768 0.931 . S
H3785 C3773 0.930 . S
H3786 C3774 0.956 . S
H3787 C3774 0.961 . S
H3788 C3774 0.961 . S
H3789 C3775 0.958 . S
H3790 C3775 0.961 . S
H3791 C3775 0.960 . S
C3792 C3793 1.391 . S
C3792 C3794 1.394 . S
C3792 H3808 0.931 . S
C3793 C3792 1.391 . S
C3793 C3797 1.376 . S
C3794 C3792 1.394 . S
C3794 C3795 1.369 . S
C3794 C3798 1.531 . S
C3795 C3794 1.369 . S
C3795 C3796 1.410 . S
C3795 C3803 1.503 . S
C3796 C3795 1.410 . S
C3796 C3797 1.392 . S
C3796 C3799 1.511 . S
C3797 C3793 1.376 . S
C3797 C3796 1.392 . S
C3797 H3809 0.929 . S
C3798 C3794 1.531 . S
C3798 H3810 0.960 . S
C3798 H3811 0.962 . S
C3798 H3812 0.960 . S
C3799 C3796 1.511 . S
C3799 H3813 0.961 . S
C3799 H3814 0.961 . S
C3799 H3815 0.961 . S
C3800 C3801 1.370 . S
C3800 C3802 1.363 . S
C3800 H3816 0.931 . S
C3801 C3800 1.370 . S
C3801 C3805 1.408 . S
C3802 C3800 1.363 . S
C3802 C3803 1.370 . S
C3802 C3806 1.524 . S
C3803 C3795 1.503 . S
C3803 C3802 1.370 . S
C3803 C3804 1.403 . S
C3804 C3803 1.403 . S
C3804 C3805 1.404 . S
C3804 C3807 1.539 . S
C3805 C3801 1.408 . S
C3805 C3804 1.404 . S
C3805 H3817 0.930 . S
C3806 C3802 1.524 . S
C3806 H3818 0.956 . S
C3806 H3819 0.961 . S
C3806 H3820 0.961 . S
C3807 C3804 1.539 . S
C3807 H3821 0.958 . S
C3807 H3822 0.961 . S
C3807 H3823 0.960 . S
H3808 C3792 0.931 . S
H3809 C3797 0.929 . S
H3810 C3798 0.960 . S
H3811 C3798 0.962 . S
H3812 C3798 0.960 . S
H3813 C3799 0.961 . S
H3814 C3799 0.961 . S
H3815 C3799 0.961 . S
H3816 C3800 0.931 . S
H3817 C3805 0.930 . S
H3818 C3806 0.956 . S
H3819 C3806 0.961 . S
H3820 C3806 0.961 . S
H3821 C3807 0.958 . S
H3822 C3807 0.961 . S
H3823 C3807 0.960 . S
C3824 C3825 1.391 . S
C3824 C3826 1.394 . S
C3824 H3840 0.931 . S
C3825 C3824 1.391 . S
C3825 C3829 1.376 . S
C3826 C3824 1.394 . S
C3826 C3827 1.369 . S
C3826 C3830 1.531 . S
C3827 C3826 1.369 . S
C3827 C3828 1.410 . S
C3827 C3835 1.503 . S
C3828 C3827 1.410 . S
C3828 C3829 1.392 . S
C3828 C3831 1.511 . S
C3829 C3825 1.376 . S
C3829 C3828 1.392 . S
C3829 H3841 0.929 . S
C3830 C3826 1.531 . S
C3830 H3842 0.960 . S
C3830 H3843 0.962 . S
C3830 H3844 0.960 . S
C3831 C3828 1.511 . S
C3831 H3845 0.961 . S
C3831 H3846 0.961 . S
C3831 H3847 0.961 . S
C3832 C3833 1.370 . S
C3832 C3834 1.363 . S
C3832 H3848 0.931 . S
C3833 C3832 1.370 . S
C3833 C3837 1.408 . S
C3834 C3832 1.363 . S
C3834 C3835 1.370 . S
C3834 C3838 1.524 . S
C3835 C3827 1.503 . S
C3835 C3834 1.370 . S
C3835 C3836 1.403 . S
C3836 C3835 1.403 . S
C3836 C3837 1.404 . S
C3836 C3839 1.539 . S
C3837 C3833 1.408 . S
C3837 C3836 1.404 . S
C3837 H3849 0.930 . S
C3838 C3834 1.524 . S
C3838 H3850 0.956 . S
C3838 H3851 0.961 . S
C3838 H3852 0.961 . S
C3839 C3836 1.539 . S
C3839 H3853 0.958 . S
C3839 H3854 0.961 . S
C3839 H3855 0.960 . S
H3840 C3824 0.931 . S
H3841 C3829 0.929 . S
H3842 C3830 0.960 . S
H3843 C3830 0.962 . S
H3844 C3830 0.960 . S
H3845 C3831 0.961 . S
H3846 C3831 0.961 . S
H3847 C3831 0.961 . S
H3848 C3832 0.931 . S
H3849 C3837 0.930 . S
H3850 C3838 0.956 . S
H3851 C3838 0.961 . S
H3852 C3838 0.961 . S
H3853 C3839 0.958 . S
H3854 C3839 0.961 . S
H3855 C3839 0.960 . S
C3856 C3857 1.391 . S
C3856 C3858 1.394 . S
C3856 H3872 0.931 . S
C3857 C3856 1.391 . S
C3857 C3861 1.376 . S
C3858 C3856 1.394 . S
C3858 C3859 1.369 . S
C3858 C3862 1.531 . S
C3859 C3858 1.369 . S
C3859 C3860 1.410 . S
C3859 C3867 1.503 . S
C3860 C3859 1.410 . S
C3860 C3861 1.392 . S
C3860 C3863 1.511 . S
C3861 C3857 1.376 . S
C3861 C3860 1.392 . S
C3861 H3873 0.929 . S
C3862 C3858 1.531 . S
C3862 H3874 0.960 . S
C3862 H3875 0.962 . S
C3862 H3876 0.960 . S
C3863 C3860 1.511 . S
C3863 H3877 0.961 . S
C3863 H3878 0.961 . S
C3863 H3879 0.961 . S
C3864 C3865 1.370 . S
C3864 C3866 1.363 . S
C3864 H3880 0.931 . S
C3865 C3864 1.370 . S
C3865 C3869 1.408 . S
C3866 C3864 1.363 . S
C3866 C3867 1.370 . S
C3866 C3870 1.524 . S
C3867 C3859 1.503 . S
C3867 C3866 1.370 . S
C3867 C3868 1.403 . S
C3868 C3867 1.403 . S
C3868 C3869 1.404 . S
C3868 C3871 1.539 . S
C3869 C3865 1.408 . S
C3869 C3868 1.404 . S
C3869 H3881 0.930 . S
C3870 C3866 1.524 . S
C3870 H3882 0.956 . S
C3870 H3883 0.961 . S
C3870 H3884 0.961 . S
C3871 C3868 1.539 . S
C3871 H3885 0.958 . S
C3871 H3886 0.961 . S
C3871 H3887 0.960 . S
H3872 C3856 0.931 . S
H3873 C3861 0.929 . S
H3874 C3862 0.960 . S
H3875 C3862 0.962 . S
H3876 C3862 0.960 . S
H3877 C3863 0.961 . S
H3878 C3863 0.961 . S
H3879 C3863 0.961 . S
H3880 C3864 0.931 . S
H3881 C3869 0.930 . S
H3882 C3870 0.956 . S
H3883 C3870 0.961 . S
H3884 C3870 0.961 . S
H3885 C3871 0.958 . S
H3886 C3871 0.961 . S
H3887 C3871 0.960 . S
C3888 C3889 1.391 . S
C3888 C3890 1.394 . S
C3888 H3904 0.931 . S
C3889 C3888 1.391 . S
C3889 C3893 1.376 . S
C3890 C3888 1.394 . S
C3890 C3891 1.369 . S
C3890 C3894 1.531 . S
C3891 C3890 1.369 . S
C3891 C3892 1.410 . S
C3891 C3899 1.503 . S
C3892 C3891 1.410 . S
C3892 C3893 1.392 . S
C3892 C3895 1.511 . S
C3893 C3889 1.376 . S
C3893 C3892 1.392 . S
C3893 H3905 0.929 . S
C3894 C3890 1.531 . S
C3894 H3906 0.960 . S
C3894 H3907 0.962 . S
C3894 H3908 0.960 . S
C3895 C3892 1.511 . S
C3895 H3909 0.961 . S
C3895 H3910 0.961 . S
C3895 H3911 0.961 . S
C3896 C3897 1.370 . S
C3896 C3898 1.363 . S
C3896 H3912 0.931 . S
C3897 C3896 1.370 . S
C3897 C3901 1.408 . S
C3898 C3896 1.363 . S
C3898 C3899 1.370 . S
C3898 C3902 1.524 . S
C3899 C3891 1.503 . S
C3899 C3898 1.370 . S
C3899 C3900 1.403 . S
C3900 C3899 1.403 . S
C3900 C3901 1.404 . S
C3900 C3903 1.539 . S
C3901 C3897 1.408 . S
C3901 C3900 1.404 . S
C3901 H3913 0.930 . S
C3902 C3898 1.524 . S
C3902 H3914 0.956 . S
C3902 H3915 0.961 . S
C3902 H3916 0.961 . S
C3903 C3900 1.539 . S
C3903 H3917 0.958 . S
C3903 H3918 0.961 . S
C3903 H3919 0.960 . S
H3904 C3888 0.931 . S
H3905 C3893 0.929 . S
H3906 C3894 0.960 . S
H3907 C3894 0.962 . S
H3908 C3894 0.960 . S
H3909 C3895 0.961 . S
H3910 C3895 0.961 . S
H3911 C3895 0.961 . S
H3912 C3896 0.931 . S
H3913 C3901 0.930 . S
H3914 C3902 0.956 . S
H3915 C3902 0.961 . S
H3916 C3902 0.961 . S
H3917 C3903 0.958 . S
H3918 C3903 0.961 . S
H3919 C3903 0.960 . S
C3920 C3921 1.391 . S
C3920 C3922 1.394 . S
C3920 H3936 0.931 . S
C3921 C3920 1.391 . S
C3921 C3925 1.376 . S
C3922 C3920 1.394 . S
C3922 C3923 1.369 . S
C3922 C3926 1.531 . S
C3923 C3922 1.369 . S
C3923 C3924 1.410 . S
C3923 C3931 1.503 . S
C3924 C3923 1.410 . S
C3924 C3925 1.392 . S
C3924 C3927 1.511 . S
C3925 C3921 1.376 . S
C3925 C3924 1.392 . S
C3925 H3937 0.929 . S
C3926 C3922 1.531 . S
C3926 H3938 0.960 . S
C3926 H3939 0.962 . S
C3926 H3940 0.960 . S
C3927 C3924 1.511 . S
C3927 H3941 0.961 . S
C3927 H3942 0.961 . S
C3927 H3943 0.961 . S
C3928 C3929 1.370 . S
C3928 C3930 1.363 . S
C3928 H3944 0.931 . S
C3929 C3928 1.370 . S
C3929 C3933 1.408 . S
C3930 C3928 1.363 . S
C3930 C3931 1.370 . S
C3930 C3934 1.524 . S
C3931 C3923 1.503 . S
C3931 C3930 1.370 . S
C3931 C3932 1.403 . S
C3932 C3931 1.403 . S
C3932 C3933 1.404 . S
C3932 C3935 1.539 . S
C3933 C3929 1.408 . S
C3933 C3932 1.404 . S
C3933 H3945 0.930 . S
C3934 C3930 1.524 . S
C3934 H3946 0.956 . S
C3934 H3947 0.961 . S
C3934 H3948 0.961 . S
C3935 C3932 1.539 . S
C3935 H3949 0.958 . S
C3935 H3950 0.961 . S
C3935 H3951 0.960 . S
H3936 C3920 0.931 . S
H3937 C3925 0.929 . S
H3938 C3926 0.960 . S
H3939 C3926 0.962 . S
H3940 C3926 0.960 . S
H3941 C3927 0.961 . S
H3942 C3927 0.961 . S
H3943 C3927 0.961 . S
H3944 C3928 0.931 . S
H3945 C3933 0.930 . S
H3946 C3934 0.956 . S
H3947 C3934 0.961 . S
H3948 C3934 0.961 . S
H3949 C3935 0.958 . S
H3950 C3935 0.961 . S
H3951 C3935 0.960 . S
C3952 C3953 1.391 . S
C3952 C3954 1.394 . S
C3952 H3968 0.931 . S
C3953 C3952 1.391 . S
C3953 C3957 1.376 . S
C3954 C3952 1.394 . S
C3954 C3955 1.369 . S
C3954 C3958 1.531 . S
C3955 C3954 1.369 . S
C3955 C3956 1.410 . S
C3955 C3963 1.503 . S
C3956 C3955 1.410 . S
C3956 C3957 1.392 . S
C3956 C3959 1.511 . S
C3957 C3953 1.376 . S
C3957 C3956 1.392 . S
C3957 H3969 0.929 . S
C3958 C3954 1.531 . S
C3958 H3970 0.960 . S
C3958 H3971 0.962 . S
C3958 H3972 0.960 . S
C3959 C3956 1.511 . S
C3959 H3973 0.961 . S
C3959 H3974 0.961 . S
C3959 H3975 0.961 . S
C3960 C3961 1.370 . S
C3960 C3962 1.363 . S
C3960 H3976 0.931 . S
C3961 C3960 1.370 . S
C3961 C3965 1.408 . S
C3962 C3960 1.363 . S
C3962 C3963 1.370 . S
C3962 C3966 1.524 . S
C3963 C3955 1.503 . S
C3963 C3962 1.370 . S
C3963 C3964 1.403 . S
C3964 C3963 1.403 . S
C3964 C3965 1.404 . S
C3964 C3967 1.539 . S
C3965 C3961 1.408 . S
C3965 C3964 1.404 . S
C3965 H3977 0.930 . S
C3966 C3962 1.524 . S
C3966 H3978 0.956 . S
C3966 H3979 0.961 . S
C3966 H3980 0.961 . S
C3967 C3964 1.539 . S
C3967 H3981 0.958 . S
C3967 H3982 0.961 . S
C3967 H3983 0.960 . S
H3968 C3952 0.931 . S
H3969 C3957 0.929 . S
H3970 C3958 0.960 . S
H3971 C3958 0.962 . S
H3972 C3958 0.960 . S
H3973 C3959 0.961 . S
H3974 C3959 0.961 . S
H3975 C3959 0.961 . S
H3976 C3960 0.931 . S
H3977 C3965 0.930 . S
H3978 C3966 0.956 . S
H3979 C3966 0.961 . S
H3980 C3966 0.961 . S
H3981 C3967 0.958 . S
H3982 C3967 0.961 . S
H3983 C3967 0.960 . S
C3984 C3985 1.391 . S
C3984 C3986 1.394 . S
C3984 H4000 0.931 . S
C3985 C3984 1.391 . S
C3985 C3989 1.376 . S
C3986 C3984 1.394 . S
C3986 C3987 1.369 . S
C3986 C3990 1.531 . S
C3987 C3986 1.369 . S
C3987 C3988 1.410 . S
C3987 C3995 1.503 . S
C3988 C3987 1.410 . S
C3988 C3989 1.392 . S
C3988 C3991 1.511 . S
C3989 C3985 1.376 . S
C3989 C3988 1.392 . S
C3989 H4001 0.929 . S
C3990 C3986 1.531 . S
C3990 H4002 0.960 . S
C3990 H4003 0.962 . S
C3990 H4004 0.960 . S
C3991 C3988 1.511 . S
C3991 H4005 0.961 . S
C3991 H4006 0.961 . S
C3991 H4007 0.961 . S
C3992 C3993 1.370 . S
C3992 C3994 1.363 . S
C3992 H4008 0.931 . S
C3993 C3992 1.370 . S
C3993 C3997 1.408 . S
C3994 C3992 1.363 . S
C3994 C3995 1.370 . S
C3994 C3998 1.524 . S
C3995 C3987 1.503 . S
C3995 C3994 1.370 . S
C3995 C3996 1.403 . S
C3996 C3995 1.403 . S
C3996 C3997 1.404 . S
C3996 C3999 1.539 . S
C3997 C3993 1.408 . S
C3997 C3996 1.404 . S
C3997 H4009 0.930 . S
C3998 C3994 1.524 . S
C3998 H4010 0.956 . S
C3998 H4011 0.961 . S
C3998 H4012 0.961 . S
C3999 C3996 1.539 . S
C3999 H4013 0.958 . S
C3999 H4014 0.961 . S
C3999 H4015 0.960 . S
H4000 C3984 0.931 . S
H4001 C3989 0.929 . S
H4002 C3990 0.960 . S
H4003 C3990 0.962 . S
H4004 C3990 0.960 . S
H4005 C3991 0.961 . S
H4006 C3991 0.961 . S
H4007 C3991 0.961 . S
H4008 C3992 0.931 . S
H4009 C3997 0.930 . S
H4010 C3998 0.956 . S
H4011 C3998 0.961 . S
H4012 C3998 0.961 . S
H4013 C3999 0.958 . S
H4014 C3999 0.961 . S
H4015 C3999 0.960 . S
C4016 C4017 1.391 . S
C4016 C4018 1.394 . S
C4016 H4032 0.931 . S
C4017 C4016 1.391 . S
C4017 C4021 1.376 . S
C4018 C4016 1.394 . S
C4018 C4019 1.369 . S
C4018 C4022 1.531 . S
C4019 C4018 1.369 . S
C4019 C4020 1.410 . S
C4019 C4027 1.503 . S
C4020 C4019 1.410 . S
C4020 C4021 1.392 . S
C4020 C4023 1.511 . S
C4021 C4017 1.376 . S
C4021 C4020 1.392 . S
C4021 H4033 0.929 . S
C4022 C4018 1.531 . S
C4022 H4034 0.960 . S
C4022 H4035 0.962 . S
C4022 H4036 0.960 . S
C4023 C4020 1.511 . S
C4023 H4037 0.961 . S
C4023 H4038 0.961 . S
C4023 H4039 0.961 . S
C4024 C4025 1.370 . S
C4024 C4026 1.363 . S
C4024 H4040 0.931 . S
C4025 C4024 1.370 . S
C4025 C4029 1.408 . S
C4026 C4024 1.363 . S
C4026 C4027 1.370 . S
C4026 C4030 1.524 . S
C4027 C4019 1.503 . S
C4027 C4026 1.370 . S
C4027 C4028 1.403 . S
C4028 C4027 1.403 . S
C4028 C4029 1.404 . S
C4028 C4031 1.539 . S
C4029 C4025 1.408 . S
C4029 C4028 1.404 . S
C4029 H4041 0.930 . S
C4030 C4026 1.524 . S
C4030 H4042 0.956 . S
C4030 H4043 0.961 . S
C4030 H4044 0.961 . S
C4031 C4028 1.539 . S
C4031 H4045 0.958 . S
C4031 H4046 0.961 . S
C4031 H4047 0.960 . S
H4032 C4016 0.931 . S
H4033 C4021 0.929 . S
H4034 C4022 0.960 . S
H4035 C4022 0.962 . S
H4036 C4022 0.960 . S
H4037 C4023 0.961 . S
H4038 C4023 0.961 . S
H4039 C4023 0.961 . S
H4040 C4024 0.931 . S
H4041 C4029 0.930 . S
H4042 C4030 0.956 . S
H4043 C4030 0.961 . S
H4044 C4030 0.961 . S
H4045 C4031 0.958 . S
H4046 C4031 0.961 . S
H4047 C4031 0.960 . S
C4048 C4049 1.391 . S
C4048 C4050 1.394 . S
C4048 H4064 0.931 . S
C4049 C4048 1.391 . S
C4049 C4053 1.376 . S
C4050 C4048 1.394 . S
C4050 C4051 1.369 . S
C4050 C4054 1.531 . S
C4051 C4050 1.369 . S
C4051 C4052 1.410 . S
C4051 C4059 1.503 . S
C4052 C4051 1.410 . S
C4052 C4053 1.392 . S
C4052 C4055 1.511 . S
C4053 C4049 1.376 . S
C4053 C4052 1.392 . S
C4053 H4065 0.929 . S
C4054 C4050 1.531 . S
C4054 H4066 0.960 . S
C4054 H4067 0.962 . S
C4054 H4068 0.960 . S
C4055 C4052 1.511 . S
C4055 H4069 0.961 . S
C4055 H4070 0.961 . S
C4055 H4071 0.961 . S
C4056 C4057 1.370 . S
C4056 C4058 1.363 . S
C4056 H4072 0.931 . S
C4057 C4056 1.370 . S
C4057 C4061 1.408 . S
C4058 C4056 1.363 . S
C4058 C4059 1.370 . S
C4058 C4062 1.524 . S
C4059 C4051 1.503 . S
C4059 C4058 1.370 . S
C4059 C4060 1.403 . S
C4060 C4059 1.403 . S
C4060 C4061 1.404 . S
C4060 C4063 1.539 . S
C4061 C4057 1.408 . S
C4061 C4060 1.404 . S
C4061 H4073 0.930 . S
C4062 C4058 1.524 . S
C4062 H4074 0.956 . S
C4062 H4075 0.961 . S
C4062 H4076 0.961 . S
C4063 C4060 1.539 . S
C4063 H4077 0.958 . S
C4063 H4078 0.961 . S
C4063 H4079 0.960 . S
H4064 C4048 0.931 . S
H4065 C4053 0.929 . S
H4066 C4054 0.960 . S
H4067 C4054 0.962 . S
H4068 C4054 0.960 . S
H4069 C4055 0.961 . S
H4070 C4055 0.961 . S
H4071 C4055 0.961 . S
H4072 C4056 0.931 . S
H4073 C4061 0.930 . S
H4074 C4062 0.956 . S
H4075 C4062 0.961 . S
H4076 C4062 0.961 . S
H4077 C4063 0.958 . S
H4078 C4063 0.961 . S
H4079 C4063 0.960 . S
C4080 C4081 1.391 . S
C4080 C4082 1.394 . S
C4080 H4096 0.931 . S
C4081 C4080 1.391 . S
C4081 C4085 1.376 . S
C4082 C4080 1.394 . S
C4082 C4083 1.369 . S
C4082 C4086 1.531 . S
C4083 C4082 1.369 . S
C4083 C4084 1.410 . S
C4083 C4091 1.503 . S
C4084 C4083 1.410 . S
C4084 C4085 1.392 . S
C4084 C4087 1.511 . S
C4085 C4081 1.376 . S
C4085 C4084 1.392 . S
C4085 H4097 0.929 . S
C4086 C4082 1.531 . S
C4086 H4098 0.960 . S
C4086 H4099 0.962 . S
C4086 H4100 0.960 . S
C4087 C4084 1.511 . S
C4087 H4101 0.961 . S
C4087 H4102 0.961 . S
C4087 H4103 0.961 . S
C4088 C4089 1.370 . S
C4088 C4090 1.363 . S
C4088 H4104 0.931 . S
C4089 C4088 1.370 . S
C4089 C4093 1.408 . S
C4090 C4088 1.363 . S
C4090 C4091 1.370 . S
C4090 C4094 1.524 . S
C4091 C4083 1.503 . S
C4091 C4090 1.370 . S
C4091 C4092 1.403 . S
C4092 C4091 1.403 . S
C4092 C4093 1.404 . S
C4092 C4095 1.539 . S
C4093 C4089 1.408 . S
C4093 C4092 1.404 . S
C4093 H4105 0.930 . S
C4094 C4090 1.524 . S
C4094 H4106 0.956 . S
C4094 H4107 0.961 . S
C4094 H4108 0.961 . S
C4095 C4092 1.539 . S
C4095 H4109 0.958 . S
C4095 H4110 0.961 . S
C4095 H4111 0.960 . S
H4096 C4080 0.931 . S
H4097 C4085 0.929 . S
H4098 C4086 0.960 . S
H4099 C4086 0.962 . S
H4100 C4086 0.960 . S
H4101 C4087 0.961 . S
H4102 C4087 0.961 . S
H4103 C4087 0.961 . S
H4104 C4088 0.931 . S
H4105 C4093 0.930 . S
H4106 C4094 0.956 . S
H4107 C4094 0.961 . S
H4108 C4094 0.961 . S
H4109 C4095 0.958 . S
H4110 C4095 0.961 . S
H4111 C4095 0.960 . S
C4112 C4113 1.391 . S
C4112 C4114 1.394 . S
C4112 H4128 0.931 . S
C4113 C4112 1.391 . S
C4113 C4117 1.376 . S
C4114 C4112 1.394 . S
C4114 C4115 1.369 . S
C4114 C4118 1.531 . S
C4115 C4114 1.369 . S
C4115 C4116 1.410 . S
C4115 C4123 1.503 . S
C4116 C4115 1.410 . S
C4116 C4117 1.392 . S
C4116 C4119 1.511 . S
C4117 C4113 1.376 . S
C4117 C4116 1.392 . S
C4117 H4129 0.929 . S
C4118 C4114 1.531 . S
C4118 H4130 0.960 . S
C4118 H4131 0.962 . S
C4118 H4132 0.960 . S
C4119 C4116 1.511 . S
C4119 H4133 0.961 . S
C4119 H4134 0.961 . S
C4119 H4135 0.961 . S
C4120 C4121 1.370 . S
C4120 C4122 1.363 . S
C4120 H4136 0.931 . S
C4121 C4120 1.370 . S
C4121 C4125 1.408 . S
C4122 C4120 1.363 . S
C4122 C4123 1.370 . S
C4122 C4126 1.524 . S
C4123 C4115 1.503 . S
C4123 C4122 1.370 . S
C4123 C4124 1.403 . S
C4124 C4123 1.403 . S
C4124 C4125 1.404 . S
C4124 C4127 1.539 . S
C4125 C4121 1.408 . S
C4125 C4124 1.404 . S
C4125 H4137 0.930 . S
C4126 C4122 1.524 . S
C4126 H4138 0.956 . S
C4126 H4139 0.961 . S
C4126 H4140 0.961 . S
C4127 C4124 1.539 . S
C4127 H4141 0.958 . S
C4127 H4142 0.961 . S
C4127 H4143 0.960 . S
H4128 C4112 0.931 . S
H4129 C4117 0.929 . S
H4130 C4118 0.960 . S
H4131 C4118 0.962 . S
H4132 C4118 0.960 . S
H4133 C4119 0.961 . S
H4134 C4119 0.961 . S
H4135 C4119 0.961 . S
H4136 C4120 0.931 . S
H4137 C4125 0.930 . S
H4138 C4126 0.956 . S
H4139 C4126 0.961 . S
H4140 C4126 0.961 . S
H4141 C4127 0.958 . S
H4142 C4127 0.961 . S
H4143 C4127 0.960 . S
C4144 C4145 1.391 . S
C4144 C4146 1.394 . S
C4144 H4160 0.931 . S
C4145 C4144 1.391 . S
C4145 C4149 1.376 . S
C4146 C4144 1.394 . S
C4146 C4147 1.369 . S
C4146 C4150 1.531 . S
C4147 C4146 1.369 . S
C4147 C4148 1.410 . S
C4147 C4155 1.503 . S
C4148 C4147 1.410 . S
C4148 C4149 1.392 . S
C4148 C4151 1.511 . S
C4149 C4145 1.376 . S
C4149 C4148 1.392 . S
C4149 H4161 0.929 . S
C4150 C4146 1.531 . S
C4150 H4162 0.960 . S
C4150 H4163 0.962 . S
C4150 H4164 0.960 . S
C4151 C4148 1.511 . S
C4151 H4165 0.961 . S
C4151 H4166 0.961 . S
C4151 H4167 0.961 . S
C4152 C4153 1.370 . S
C4152 C4154 1.363 . S
C4152 H4168 0.931 . S
C4153 C4152 1.370 . S
C4153 C4157 1.408 . S
C4154 C4152 1.363 . S
C4154 C4155 1.370 . S
C4154 C4158 1.524 . S
C4155 C4147 1.503 . S
C4155 C4154 1.370 . S
C4155 C4156 1.403 . S
C4156 C4155 1.403 . S
C4156 C4157 1.404 . S
C4156 C4159 1.539 . S
C4157 C4153 1.408 . S
C4157 C4156 1.404 . S
C4157 H4169 0.930 . S
C4158 C4154 1.524 . S
C4158 H4170 0.956 . S
C4158 H4171 0.961 . S
C4158 H4172 0.961 . S
C4159 C4156 1.539 . S
C4159 H4173 0.958 . S
C4159 H4174 0.961 . S
C4159 H4175 0.960 . S
H4160 C4144 0.931 . S
H4161 C4149 0.929 . S
H4162 C4150 0.960 . S
H4163 C4150 0.962 . S
H4164 C4150 0.960 . S
H4165 C4151 0.961 . S
H4166 C4151 0.961 . S
H4167 C4151 0.961 . S
H4168 C4152 0.931 . S
H4169 C4157 0.930 . S
H4170 C4158 0.956 . S
H4171 C4158 0.961 . S
H4172 C4158 0.961 . S
H4173 C4159 0.958 . S
H4174 C4159 0.961 . S
H4175 C4159 0.960 . S
C4176 C4177 1.391 . S
C4176 C4178 1.394 . S
C4176 H4192 0.931 . S
C4177 C4176 1.391 . S
C4177 C4181 1.376 . S
C4178 C4176 1.394 . S
C4178 C4179 1.369 . S
C4178 C4182 1.531 . S
C4179 C4178 1.369 . S
C4179 C4180 1.410 . S
C4179 C4187 1.503 . S
C4180 C4179 1.410 . S
C4180 C4181 1.392 . S
C4180 C4183 1.511 . S
C4181 C4177 1.376 . S
C4181 C4180 1.392 . S
C4181 H4193 0.929 . S
C4182 C4178 1.531 . S
C4182 H4194 0.960 . S
C4182 H4195 0.962 . S
C4182 H4196 0.960 . S
C4183 C4180 1.511 . S
C4183 H4197 0.961 . S
C4183 H4198 0.961 . S
C4183 H4199 0.961 . S
C4184 C4185 1.370 . S
C4184 C4186 1.363 . S
C4184 H4200 0.931 . S
C4185 C4184 1.370 . S
C4185 C4189 1.408 . S
C4186 C4184 1.363 . S
C4186 C4187 1.370 . S
C4186 C4190 1.524 . S
C4187 C4179 1.503 . S
C4187 C4186 1.370 . S
C4187 C4188 1.403 . S
C4188 C4187 1.403 . S
C4188 C4189 1.404 . S
C4188 C4191 1.539 . S
C4189 C4185 1.408 . S
C4189 C4188 1.404 . S
C4189 H4201 0.930 . S
C4190 C4186 1.524 . S
C4190 H4202 0.956 . S
C4190 H4203 0.961 . S
C4190 H4204 0.961 . S
C4191 C4188 1.539 . S
C4191 H4205 0.958 . S
C4191 H4206 0.961 . S
C4191 H4207 0.960 . S
H4192 C4176 0.931 . S
H4193 C4181 0.929 . S
H4194 C4182 0.960 . S
H4195 C4182 0.962 . S
H4196 C4182 0.960 . S
H4197 C4183 0.961 . S
H4198 C4183 0.961 . S
H4199 C4183 0.961 . S
H4200 C4184 0.931 . S
H4201 C4189 0.930 . S
H4202 C4190 0.956 . S
H4203 C4190 0.961 . S
H4204 C4190 0.961 . S
H4205 C4191 0.958 . S
H4206 C4191 0.961 . S
H4207 C4191 0.960 . S
C4208 C4209 1.391 . S
C4208 C4210 1.394 . S
C4208 H4224 0.931 . S
C4209 C4208 1.391 . S
C4209 C4213 1.376 . S
C4210 C4208 1.394 . S
C4210 C4211 1.369 . S
C4210 C4214 1.531 . S
C4211 C4210 1.369 . S
C4211 C4212 1.410 . S
C4211 C4219 1.503 . S
C4212 C4211 1.410 . S
C4212 C4213 1.392 . S
C4212 C4215 1.511 . S
C4213 C4209 1.376 . S
C4213 C4212 1.392 . S
C4213 H4225 0.929 . S
C4214 C4210 1.531 . S
C4214 H4226 0.960 . S
C4214 H4227 0.962 . S
C4214 H4228 0.960 . S
C4215 C4212 1.511 . S
C4215 H4229 0.961 . S
C4215 H4230 0.961 . S
C4215 H4231 0.961 . S
C4216 C4217 1.370 . S
C4216 C4218 1.363 . S
C4216 H4232 0.931 . S
C4217 C4216 1.370 . S
C4217 C4221 1.408 . S
C4218 C4216 1.363 . S
C4218 C4219 1.370 . S
C4218 C4222 1.524 . S
C4219 C4211 1.503 . S
C4219 C4218 1.370 . S
C4219 C4220 1.403 . S
C4220 C4219 1.403 . S
C4220 C4221 1.404 . S
C4220 C4223 1.539 . S
C4221 C4217 1.408 . S
C4221 C4220 1.404 . S
C4221 H4233 0.930 . S
C4222 C4218 1.524 . S
C4222 H4234 0.956 . S
C4222 H4235 0.961 . S
C4222 H4236 0.961 . S
C4223 C4220 1.539 . S
C4223 H4237 0.958 . S
C4223 H4238 0.961 . S
C4223 H4239 0.960 . S
H4224 C4208 0.931 . S
H4225 C4213 0.929 . S
H4226 C4214 0.960 . S
H4227 C4214 0.962 . S
H4228 C4214 0.960 . S
H4229 C4215 0.961 . S
H4230 C4215 0.961 . S
H4231 C4215 0.961 . S
H4232 C4216 0.931 . S
H4233 C4221 0.930 . S
H4234 C4222 0.956 . S
H4235 C4222 0.961 . S
H4236 C4222 0.961 . S
H4237 C4223 0.958 . S
H4238 C4223 0.961 . S
H4239 C4223 0.960 . S
C4240 C4241 1.391 . S
C4240 C4242 1.394 . S
C4240 H4256 0.931 . S
C4241 C4240 1.391 . S
C4241 C4245 1.376 . S
C4242 C4240 1.394 . S
C4242 C4243 1.369 . S
C4242 C4246 1.531 . S
C4243 C4242 1.369 . S
C4243 C4244 1.410 . S
C4243 C4251 1.503 . S
C4244 C4243 1.410 . S
C4244 C4245 1.392 . S
C4244 C4247 1.511 . S
C4245 C4241 1.376 . S
C4245 C4244 1.392 . S
C4245 H4257 0.929 . S
C4246 C4242 1.531 . S
C4246 H4258 0.960 . S
C4246 H4259 0.962 . S
C4246 H4260 0.960 . S
C4247 C4244 1.511 . S
C4247 H4261 0.961 . S
C4247 H4262 0.961 . S
C4247 H4263 0.961 . S
C4248 C4249 1.370 . S
C4248 C4250 1.363 . S
C4248 H4264 0.931 . S
C4249 C4248 1.370 . S
C4249 C4253 1.408 . S
C4250 C4248 1.363 . S
C4250 C4251 1.370 . S
C4250 C4254 1.524 . S
C4251 C4243 1.503 . S
C4251 C4250 1.370 . S
C4251 C4252 1.403 . S
C4252 C4251 1.403 . S
C4252 C4253 1.404 . S
C4252 C4255 1.539 . S
C4253 C4249 1.408 . S
C4253 C4252 1.404 . S
C4253 H4265 0.930 . S
C4254 C4250 1.524 . S
C4254 H4266 0.956 . S
C4254 H4267 0.961 . S
C4254 H4268 0.961 . S
C4255 C4252 1.539 . S
C4255 H4269 0.958 . S
C4255 H4270 0.961 . S
C4255 H4271 0.960 . S
H4256 C4240 0.931 . S
H4257 C4245 0.929 . S
H4258 C4246 0.960 . S
H4259 C4246 0.962 . S
H4260 C4246 0.960 . S
H4261 C4247 0.961 . S
H4262 C4247 0.961 . S
H4263 C4247 0.961 . S
H4264 C4248 0.931 . S
H4265 C4253 0.930 . S
H4266 C4254 0.956 . S
H4267 C4254 0.961 . S
H4268 C4254 0.961 . S
H4269 C4255 0.958 . S
H4270 C4255 0.961 . S
H4271 C4255 0.960 . S
C4272 C4273 1.391 . S
C4272 C4274 1.394 . S
C4272 H4288 0.931 . S
C4273 C4272 1.391 . S
C4273 C4277 1.376 . S
C4274 C4272 1.394 . S
C4274 C4275 1.369 . S
C4274 C4278 1.531 . S
C4275 C4274 1.369 . S
C4275 C4276 1.410 . S
C4275 C4283 1.503 . S
C4276 C4275 1.410 . S
C4276 C4277 1.392 . S
C4276 C4279 1.511 . S
C4277 C4273 1.376 . S
C4277 C4276 1.392 . S
C4277 H4289 0.929 . S
C4278 C4274 1.531 . S
C4278 H4290 0.960 . S
C4278 H4291 0.962 . S
C4278 H4292 0.960 . S
C4279 C4276 1.511 . S
C4279 H4293 0.961 . S
C4279 H4294 0.961 . S
C4279 H4295 0.961 . S
C4280 C4281 1.370 . S
C4280 C4282 1.363 . S
C4280 H4296 0.931 . S
C4281 C4280 1.370 . S
C4281 C4285 1.408 . S
C4282 C4280 1.363 . S
C4282 C4283 1.370 . S
C4282 C4286 1.524 . S
C4283 C4275 1.503 . S
C4283 C4282 1.370 . S
C4283 C4284 1.403 . S
C4284 C4283 1.403 . S
C4284 C4285 1.404 . S
C4284 C4287 1.539 . S
C4285 C4281 1.408 . S
C4285 C4284 1.404 . S
C4285 H4297 0.930 . S
C4286 C4282 1.524 . S
C4286 H4298 0.956 . S
C4286 H4299 0.961 . S
C4286 H4300 0.961 . S
C4287 C4284 1.539 . S
C4287 H4301 0.958 . S
C4287 H4302 0.961 . S
C4287 H4303 0.960 . S
H4288 C4272 0.931 . S
H4289 C4277 0.929 . S
H4290 C4278 0.960 . S
H4291 C4278 0.962 . S
H4292 C4278 0.960 . S
H4293 C4279 0.961 . S
H4294 C4279 0.961 . S
H4295 C4279 0.961 . S
H4296 C4280 0.931 . S
H4297 C4285 0.930 . S
H4298 C4286 0.956 . S
H4299 C4286 0.961 . S
H4300 C4286 0.961 . S
H4301 C4287 0.958 . S
H4302 C4287 0.961 . S
H4303 C4287 0.960 . S
C4304 C4305 1.391 . S
C4304 C4306 1.394 . S
C4304 H4320 0.931 . S
C4305 C4304 1.391 . S
C4305 C4309 1.376 . S
C4306 C4304 1.394 . S
C4306 C4307 1.369 . S
C4306 C4310 1.531 . S
C4307 C4306 1.369 . S
C4307 C4308 1.410 . S
C4307 C4315 1.503 . S
C4308 C4307 1.410 . S
C4308 C4309 1.392 . S
C4308 C4311 1.511 . S
C4309 C4305 1.376 . S
C4309 C4308 1.392 . S
C4309 H4321 0.929 . S
C4310 C4306 1.531 . S
C4310 H4322 0.960 . S
C4310 H4323 0.962 . S
C4310 H4324 0.960 . S
C4311 C4308 1.511 . S
C4311 H4325 0.961 . S
C4311 H4326 0.961 . S
C4311 H4327 0.961 . S
C4312 C4313 1.370 . S
C4312 C4314 1.363 . S
C4312 H4328 0.931 . S
C4313 C4312 1.370 . S
C4313 C4317 1.408 . S
C4314 C4312 1.363 . S
C4314 C4315 1.370 . S
C4314 C4318 1.524 . S
C4315 C4307 1.503 . S
C4315 C4314 1.370 . S
C4315 C4316 1.403 . S
C4316 C4315 1.403 . S
C4316 C4317 1.404 . S
C4316 C4319 1.539 . S
C4317 C4313 1.408 . S
C4317 C4316 1.404 . S
C4317 H4329 0.930 . S
C4318 C4314 1.524 . S
C4318 H4330 0.956 . S
C4318 H4331 0.961 . S
C4318 H4332 0.961 . S
C4319 C4316 1.539 . S
C4319 H4333 0.958 . S
C4319 H4334 0.961 . S
C4319 H4335 0.960 . S
H4320 C4304 0.931 . S
H4321 C4309 0.929 . S
H4322 C4310 0.960 . S
H4323 C4310 0.962 . S
H4324 C4310 0.960 . S
H4325 C4311 0.961 . S
H4326 C4311 0.961 . S
H4327 C4311 0.961 . S
H4328 C4312 0.931 . S
H4329 C4317 0.930 . S
H4330 C4318 0.956 . S
H4331 C4318 0.961 . S
H4332 C4318 0.961 . S
H4333 C4319 0.958 . S
H4334 C4319 0.961 . S
H4335 C4319 0.960 . S
C4336 C4337 1.391 . S
C4336 C4338 1.394 . S
C4336 H4352 0.931 . S
C4337 C4336 1.391 . S
C4337 C4341 1.376 . S
C4338 C4336 1.394 . S
C4338 C4339 1.369 . S
C4338 C4342 1.531 . S
C4339 C4338 1.369 . S
C4339 C4340 1.410 . S
C4339 C4347 1.503 . S
C4340 C4339 1.410 . S
C4340 C4341 1.392 . S
C4340 C4343 1.511 . S
C4341 C4337 1.376 . S
C4341 C4340 1.392 . S
C4341 H4353 0.929 . S
C4342 C4338 1.531 . S
C4342 H4354 0.960 . S
C4342 H4355 0.962 . S
C4342 H4356 0.960 . S
C4343 C4340 1.511 . S
C4343 H4357 0.961 . S
C4343 H4358 0.961 . S
C4343 H4359 0.961 . S
C4344 C4345 1.370 . S
C4344 C4346 1.363 . S
C4344 H4360 0.931 . S
C4345 C4344 1.370 . S
C4345 C4349 1.408 . S
C4346 C4344 1.363 . S
C4346 C4347 1.370 . S
C4346 C4350 1.524 . S
C4347 C4339 1.503 . S
C4347 C4346 1.370 . S
C4347 C4348 1.403 . S
C4348 C4347 1.403 . S
C4348 C4349 1.404 . S
C4348 C4351 1.539 . S
C4349 C4345 1.408 . S
C4349 C4348 1.404 . S
C4349 H4361 0.930 . S
C4350 C4346 1.524 . S
C4350 H4362 0.956 . S
C4350 H4363 0.961 . S
C4350 H4364 0.961 . S
C4351 C4348 1.539 . S
C4351 H4365 0.958 . S
C4351 H4366 0.961 . S
C4351 H4367 0.960 . S
H4352 C4336 0.931 . S
H4353 C4341 0.929 . S
H4354 C4342 0.960 . S
H4355 C4342 0.962 . S
H4356 C4342 0.960 . S
H4357 C4343 0.961 . S
H4358 C4343 0.961 . S
H4359 C4343 0.961 . S
H4360 C4344 0.931 . S
H4361 C4349 0.930 . S
H4362 C4350 0.956 . S
H4363 C4350 0.961 . S
H4364 C4350 0.961 . S
H4365 C4351 0.958 . S
H4366 C4351 0.961 . S
H4367 C4351 0.960 . S
C4368 C4369 1.391 . S
C4368 C4370 1.394 . S
C4368 H4384 0.931 . S
C4369 C4368 1.391 . S
C4369 C4373 1.376 . S
C4370 C4368 1.394 . S
C4370 C4371 1.369 . S
C4370 C4374 1.531 . S
C4371 C4370 1.369 . S
C4371 C4372 1.410 . S
C4371 C4379 1.503 . S
C4372 C4371 1.410 . S
C4372 C4373 1.392 . S
C4372 C4375 1.511 . S
C4373 C4369 1.376 . S
C4373 C4372 1.392 . S
C4373 H4385 0.929 . S
C4374 C4370 1.531 . S
C4374 H4386 0.960 . S
C4374 H4387 0.962 . S
C4374 H4388 0.960 . S
C4375 C4372 1.511 . S
C4375 H4389 0.961 . S
C4375 H4390 0.961 . S
C4375 H4391 0.961 . S
C4376 C4377 1.370 . S
C4376 C4378 1.363 . S
C4376 H4392 0.931 . S
C4377 C4376 1.370 . S
C4377 C4381 1.408 . S
C4378 C4376 1.363 . S
C4378 C4379 1.370 . S
C4378 C4382 1.524 . S
C4379 C4371 1.503 . S
C4379 C4378 1.370 . S
C4379 C4380 1.403 . S
C4380 C4379 1.403 . S
C4380 C4381 1.404 . S
C4380 C4383 1.539 . S
C4381 C4377 1.408 . S
C4381 C4380 1.404 . S
C4381 H4393 0.930 . S
C4382 C4378 1.524 . S
C4382 H4394 0.956 . S
C4382 H4395 0.961 . S
C4382 H4396 0.961 . S
C4383 C4380 1.539 . S
C4383 H4397 0.958 . S
C4383 H4398 0.961 . S
C4383 H4399 0.960 . S
H4384 C4368 0.931 . S
H4385 C4373 0.929 . S
H4386 C4374 0.960 . S
H4387 C4374 0.962 . S
H4388 C4374 0.960 . S
H4389 C4375 0.961 . S
H4390 C4375 0.961 . S
H4391 C4375 0.961 . S
H4392 C4376 0.931 . S
H4393 C4381 0.930 . S
H4394 C4382 0.956 . S
H4395 C4382 0.961 . S
H4396 C4382 0.961 . S
H4397 C4383 0.958 . S
H4398 C4383 0.961 . S
H4399 C4383 0.960 . S
C4400 C4401 1.391 . S
C4400 C4402 1.394 . S
C4400 H4416 0.931 . S
C4401 C4400 1.391 . S
C4401 C4405 1.376 . S
C4402 C4400 1.394 . S
C4402 C4403 1.369 . S
C4402 C4406 1.531 . S
C4403 C4402 1.369 . S
C4403 C4404 1.410 . S
C4403 C4411 1.503 . S
C4404 C4403 1.410 . S
C4404 C4405 1.392 . S
C4404 C4407 1.511 . S
C4405 C4401 1.376 . S
C4405 C4404 1.392 . S
C4405 H4417 0.929 . S
C4406 C4402 1.531 . S
C4406 H4418 0.960 . S
C4406 H4419 0.962 . S
C4406 H4420 0.960 . S
C4407 C4404 1.511 . S
C4407 H4421 0.961 . S
C4407 H4422 0.961 . S
C4407 H4423 0.961 . S
C4408 C4409 1.370 . S
C4408 C4410 1.363 . S
C4408 H4424 0.931 . S
C4409 C4408 1.370 . S
C4409 C4413 1.408 . S
C4410 C4408 1.363 . S
C4410 C4411 1.370 . S
C4410 C4414 1.524 . S
C4411 C4403 1.503 . S
C4411 C4410 1.370 . S
C4411 C4412 1.403 . S
C4412 C4411 1.403 . S
C4412 C4413 1.404 . S
C4412 C4415 1.539 . S
C4413 C4409 1.408 . S
C4413 C4412 1.404 . S
C4413 H4425 0.930 . S
C4414 C4410 1.524 . S
C4414 H4426 0.956 . S
C4414 H4427 0.961 . S
C4414 H4428 0.961 . S
C4415 C4412 1.539 . S
C4415 H4429 0.958 . S
C4415 H4430 0.961 . S
C4415 H4431 0.960 . S
H4416 C4400 0.931 . S
H4417 C4405 0.929 . S
H4418 C4406 0.960 . S
H4419 C4406 0.962 . S
H4420 C4406 0.960 . S
H4421 C4407 0.961 . S
H4422 C4407 0.961 . S
H4423 C4407 0.961 . S
H4424 C4408 0.931 . S
H4425 C4413 0.930 . S
H4426 C4414 0.956 . S
H4427 C4414 0.961 . S
H4428 C4414 0.961 . S
H4429 C4415 0.958 . S
H4430 C4415 0.961 . S
H4431 C4415 0.960 . S
C4432 C4433 1.391 . S
C4432 C4434 1.394 . S
C4432 H4448 0.931 . S
C4433 C4432 1.391 . S
C4433 C4437 1.376 . S
C4434 C4432 1.394 . S
C4434 C4435 1.369 . S
C4434 C4438 1.531 . S
C4435 C4434 1.369 . S
C4435 C4436 1.410 . S
C4435 C4443 1.503 . S
C4436 C4435 1.410 . S
C4436 C4437 1.392 . S
C4436 C4439 1.511 . S
C4437 C4433 1.376 . S
C4437 C4436 1.392 . S
C4437 H4449 0.929 . S
C4438 C4434 1.531 . S
C4438 H4450 0.960 . S
C4438 H4451 0.962 . S
C4438 H4452 0.960 . S
C4439 C4436 1.511 . S
C4439 H4453 0.961 . S
C4439 H4454 0.961 . S
C4439 H4455 0.961 . S
C4440 C4441 1.370 . S
C4440 C4442 1.363 . S
C4440 H4456 0.931 . S
C4441 C4440 1.370 . S
C4441 C4445 1.408 . S
C4442 C4440 1.363 . S
C4442 C4443 1.370 . S
C4442 C4446 1.524 . S
C4443 C4435 1.503 . S
C4443 C4442 1.370 . S
C4443 C4444 1.403 . S
C4444 C4443 1.403 . S
C4444 C4445 1.404 . S
C4444 C4447 1.539 . S
C4445 C4441 1.408 . S
C4445 C4444 1.404 . S
C4445 H4457 0.930 . S
C4446 C4442 1.524 . S
C4446 H4458 0.956 . S
C4446 H4459 0.961 . S
C4446 H4460 0.961 . S
C4447 C4444 1.539 . S
C4447 H4461 0.958 . S
C4447 H4462 0.961 . S
C4447 H4463 0.960 . S
H4448 C4432 0.931 . S
H4449 C4437 0.929 . S
H4450 C4438 0.960 . S
H4451 C4438 0.962 . S
H4452 C4438 0.960 . S
H4453 C4439 0.961 . S
H4454 C4439 0.961 . S
H4455 C4439 0.961 . S
H4456 C4440 0.931 . S
H4457 C4445 0.930 . S
H4458 C4446 0.956 . S
H4459 C4446 0.961 . S
H4460 C4446 0.961 . S
H4461 C4447 0.958 . S
H4462 C4447 0.961 . S
H4463 C4447 0.960 . S
C4464 C4465 1.391 . S
C4464 C4466 1.394 . S
C4464 H4480 0.931 . S
C4465 C4464 1.391 . S
C4465 C4469 1.376 . S
C4466 C4464 1.394 . S
C4466 C4467 1.369 . S
C4466 C4470 1.531 . S
C4467 C4466 1.369 . S
C4467 C4468 1.410 . S
C4467 C4475 1.503 . S
C4468 C4467 1.410 . S
C4468 C4469 1.392 . S
C4468 C4471 1.511 . S
C4469 C4465 1.376 . S
C4469 C4468 1.392 . S
C4469 H4481 0.929 . S
C4470 C4466 1.531 . S
C4470 H4482 0.960 . S
C4470 H4483 0.962 . S
C4470 H4484 0.960 . S
C4471 C4468 1.511 . S
C4471 H4485 0.961 . S
C4471 H4486 0.961 . S
C4471 H4487 0.961 . S
C4472 C4473 1.370 . S
C4472 C4474 1.363 . S
C4472 H4488 0.931 . S
C4473 C4472 1.370 . S
C4473 C4477 1.408 . S
C4474 C4472 1.363 . S
C4474 C4475 1.370 . S
C4474 C4478 1.524 . S
C4475 C4467 1.503 . S
C4475 C4474 1.370 . S
C4475 C4476 1.403 . S
C4476 C4475 1.403 . S
C4476 C4477 1.404 . S
C4476 C4479 1.539 . S
C4477 C4473 1.408 . S
C4477 C4476 1.404 . S
C4477 H4489 0.930 . S
C4478 C4474 1.524 . S
C4478 H4490 0.956 . S
C4478 H4491 0.961 . S
C4478 H4492 0.961 . S
C4479 C4476 1.539 . S
C4479 H4493 0.958 . S
C4479 H4494 0.961 . S
C4479 H4495 0.960 . S
H4480 C4464 0.931 . S
H4481 C4469 0.929 . S
H4482 C4470 0.960 . S
H4483 C4470 0.962 . S
H4484 C4470 0.960 . S
H4485 C4471 0.961 . S
H4486 C4471 0.961 . S
H4487 C4471 0.961 . S
H4488 C4472 0.931 . S
H4489 C4477 0.930 . S
H4490 C4478 0.956 . S
H4491 C4478 0.961 . S
H4492 C4478 0.961 . S
H4493 C4479 0.958 . S
H4494 C4479 0.961 . S
H4495 C4479 0.960 . S
C4496 C4497 1.391 . S
C4496 C4498 1.394 . S
C4496 H4512 0.931 . S
C4497 C4496 1.391 . S
C4497 C4501 1.376 . S
C4498 C4496 1.394 . S
C4498 C4499 1.369 . S
C4498 C4502 1.531 . S
C4499 C4498 1.369 . S
C4499 C4500 1.410 . S
C4499 C4507 1.503 . S
C4500 C4499 1.410 . S
C4500 C4501 1.392 . S
C4500 C4503 1.511 . S
C4501 C4497 1.376 . S
C4501 C4500 1.392 . S
C4501 H4513 0.929 . S
C4502 C4498 1.531 . S
C4502 H4514 0.960 . S
C4502 H4515 0.962 . S
C4502 H4516 0.960 . S
C4503 C4500 1.511 . S
C4503 H4517 0.961 . S
C4503 H4518 0.961 . S
C4503 H4519 0.961 . S
C4504 C4505 1.370 . S
C4504 C4506 1.363 . S
C4504 H4520 0.931 . S
C4505 C4504 1.370 . S
C4505 C4509 1.408 . S
C4506 C4504 1.363 . S
C4506 C4507 1.370 . S
C4506 C4510 1.524 . S
C4507 C4499 1.503 . S
C4507 C4506 1.370 . S
C4507 C4508 1.403 . S
C4508 C4507 1.403 . S
C4508 C4509 1.404 . S
C4508 C4511 1.539 . S
C4509 C4505 1.408 . S
C4509 C4508 1.404 . S
C4509 H4521 0.930 . S
C4510 C4506 1.524 . S
C4510 H4522 0.956 . S
C4510 H4523 0.961 . S
C4510 H4524 0.961 . S
C4511 C4508 1.539 . S
C4511 H4525 0.958 . S
C4511 H4526 0.961 . S
C4511 H4527 0.960 . S
H4512 C4496 0.931 . S
H4513 C4501 0.929 . S
H4514 C4502 0.960 . S
H4515 C4502 0.962 . S
H4516 C4502 0.960 . S
H4517 C4503 0.961 . S
H4518 C4503 0.961 . S
H4519 C4503 0.961 . S
H4520 C4504 0.931 . S
H4521 C4509 0.930 . S
H4522 C4510 0.956 . S
H4523 C4510 0.961 . S
H4524 C4510 0.961 . S
H4525 C4511 0.958 . S
H4526 C4511 0.961 . S
H4527 C4511 0.960 . S
C4528 C4529 1.391 . S
C4528 C4530 1.394 . S
C4528 H4544 0.931 . S
C4529 C4528 1.391 . S
C4529 C4533 1.376 . S
C4530 C4528 1.394 . S
C4530 C4531 1.369 . S
C4530 C4534 1.531 . S
C4531 C4530 1.369 . S
C4531 C4532 1.410 . S
C4531 C4539 1.503 . S
C4532 C4531 1.410 . S
C4532 C4533 1.392 . S
C4532 C4535 1.511 . S
C4533 C4529 1.376 . S
C4533 C4532 1.392 . S
C4533 H4545 0.929 . S
C4534 C4530 1.531 . S
C4534 H4546 0.960 . S
C4534 H4547 0.962 . S
C4534 H4548 0.960 . S
C4535 C4532 1.511 . S
C4535 H4549 0.961 . S
C4535 H4550 0.961 . S
C4535 H4551 0.961 . S
C4536 C4537 1.370 . S
C4536 C4538 1.363 . S
C4536 H4552 0.931 . S
C4537 C4536 1.370 . S
C4537 C4541 1.408 . S
C4538 C4536 1.363 . S
C4538 C4539 1.370 . S
C4538 C4542 1.524 . S
C4539 C4531 1.503 . S
C4539 C4538 1.370 . S
C4539 C4540 1.403 . S
C4540 C4539 1.403 . S
C4540 C4541 1.404 . S
C4540 C4543 1.539 . S
C4541 C4537 1.408 . S
C4541 C4540 1.404 . S
C4541 H4553 0.930 . S
C4542 C4538 1.524 . S
C4542 H4554 0.956 . S
C4542 H4555 0.961 . S
C4542 H4556 0.961 . S
C4543 C4540 1.539 . S
C4543 H4557 0.958 . S
C4543 H4558 0.961 . S
C4543 H4559 0.960 . S
H4544 C4528 0.931 . S
H4545 C4533 0.929 . S
H4546 C4534 0.960 . S
H4547 C4534 0.962 . S
H4548 C4534 0.960 . S
H4549 C4535 0.961 . S
H4550 C4535 0.961 . S
H4551 C4535 0.961 . S
H4552 C4536 0.931 . S
H4553 C4541 0.930 . S
H4554 C4542 0.956 . S
H4555 C4542 0.961 . S
H4556 C4542 0.961 . S
H4557 C4543 0.958 . S
H4558 C4543 0.961 . S
H4559 C4543 0.960 . S
C4560 C4561 1.391 . S
C4560 C4562 1.394 . S
C4560 H4576 0.931 . S
C4561 C4560 1.391 . S
C4561 C4565 1.376 . S
C4562 C4560 1.394 . S
C4562 C4563 1.369 . S
C4562 C4566 1.531 . S
C4563 C4562 1.369 . S
C4563 C4564 1.410 . S
C4563 C4571 1.503 . S
C4564 C4563 1.410 . S
C4564 C4565 1.392 . S
C4564 C4567 1.511 . S
C4565 C4561 1.376 . S
C4565 C4564 1.392 . S
C4565 H4577 0.929 . S
C4566 C4562 1.531 . S
C4566 H4578 0.960 . S
C4566 H4579 0.962 . S
C4566 H4580 0.960 . S
C4567 C4564 1.511 . S
C4567 H4581 0.961 . S
C4567 H4582 0.961 . S
C4567 H4583 0.961 . S
C4568 C4569 1.370 . S
C4568 C4570 1.363 . S
C4568 H4584 0.931 . S
C4569 C4568 1.370 . S
C4569 C4573 1.408 . S
C4570 C4568 1.363 . S
C4570 C4571 1.370 . S
C4570 C4574 1.524 . S
C4571 C4563 1.503 . S
C4571 C4570 1.370 . S
C4571 C4572 1.403 . S
C4572 C4571 1.403 . S
C4572 C4573 1.404 . S
C4572 C4575 1.539 . S
C4573 C4569 1.408 . S
C4573 C4572 1.404 . S
C4573 H4585 0.930 . S
C4574 C4570 1.524 . S
C4574 H4586 0.956 . S
C4574 H4587 0.961 . S
C4574 H4588 0.961 . S
C4575 C4572 1.539 . S
C4575 H4589 0.958 . S
C4575 H4590 0.961 . S
C4575 H4591 0.960 . S
H4576 C4560 0.931 . S
H4577 C4565 0.929 . S
H4578 C4566 0.960 . S
H4579 C4566 0.962 . S
H4580 C4566 0.960 . S
H4581 C4567 0.961 . S
H4582 C4567 0.961 . S
H4583 C4567 0.961 . S
H4584 C4568 0.931 . S
H4585 C4573 0.930 . S
H4586 C4574 0.956 . S
H4587 C4574 0.961 . S
H4588 C4574 0.961 . S
H4589 C4575 0.958 . S
H4590 C4575 0.961 . S
H4591 C4575 0.960 . S
C4592 C4593 1.391 . S
C4592 C4594 1.394 . S
C4592 H4608 0.931 . S
C4593 C4592 1.391 . S
C4593 C4597 1.376 . S
C4594 C4592 1.394 . S
C4594 C4595 1.369 . S
C4594 C4598 1.531 . S
C4595 C4594 1.369 . S
C4595 C4596 1.410 . S
C4595 C4603 1.503 . S
C4596 C4595 1.410 . S
C4596 C4597 1.392 . S
C4596 C4599 1.511 . S
C4597 C4593 1.376 . S
C4597 C4596 1.392 . S
C4597 H4609 0.929 . S
C4598 C4594 1.531 . S
C4598 H4610 0.960 . S
C4598 H4611 0.962 . S
C4598 H4612 0.960 . S
C4599 C4596 1.511 . S
C4599 H4613 0.961 . S
C4599 H4614 0.961 . S
C4599 H4615 0.961 . S
C4600 C4601 1.370 . S
C4600 C4602 1.363 . S
C4600 H4616 0.931 . S
C4601 C4600 1.370 . S
C4601 C4605 1.408 . S
C4602 C4600 1.363 . S
C4602 C4603 1.370 . S
C4602 C4606 1.524 . S
C4603 C4595 1.503 . S
C4603 C4602 1.370 . S
C4603 C4604 1.403 . S
C4604 C4603 1.403 . S
C4604 C4605 1.404 . S
C4604 C4607 1.539 . S
C4605 C4601 1.408 . S
C4605 C4604 1.404 . S
C4605 H4617 0.930 . S
C4606 C4602 1.524 . S
C4606 H4618 0.956 . S
C4606 H4619 0.961 . S
C4606 H4620 0.961 . S
C4607 C4604 1.539 . S
C4607 H4621 0.958 . S
C4607 H4622 0.961 . S
C4607 H4623 0.960 . S
H4608 C4592 0.931 . S
H4609 C4597 0.929 . S
H4610 C4598 0.960 . S
H4611 C4598 0.962 . S
H4612 C4598 0.960 . S
H4613 C4599 0.961 . S
H4614 C4599 0.961 . S
H4615 C4599 0.961 . S
H4616 C4600 0.931 . S
H4617 C4605 0.930 . S
H4618 C4606 0.956 . S
H4619 C4606 0.961 . S
H4620 C4606 0.961 . S
H4621 C4607 0.958 . S
H4622 C4607 0.961 . S
H4623 C4607 0.960 . S
C4624 C4625 1.391 . S
C4624 C4626 1.394 . S
C4624 H4640 0.931 . S
C4625 C4624 1.391 . S
C4625 C4629 1.376 . S
C4626 C4624 1.394 . S
C4626 C4627 1.369 . S
C4626 C4630 1.531 . S
C4627 C4626 1.369 . S
C4627 C4628 1.410 . S
C4627 C4635 1.503 . S
C4628 C4627 1.410 . S
C4628 C4629 1.392 . S
C4628 C4631 1.511 . S
C4629 C4625 1.376 . S
C4629 C4628 1.392 . S
C4629 H4641 0.929 . S
C4630 C4626 1.531 . S
C4630 H4642 0.960 . S
C4630 H4643 0.962 . S
C4630 H4644 0.960 . S
C4631 C4628 1.511 . S
C4631 H4645 0.961 . S
C4631 H4646 0.961 . S
C4631 H4647 0.961 . S
C4632 C4633 1.370 . S
C4632 C4634 1.363 . S
C4632 H4648 0.931 . S
C4633 C4632 1.370 . S
C4633 C4637 1.408 . S
C4634 C4632 1.363 . S
C4634 C4635 1.370 . S
C4634 C4638 1.524 . S
C4635 C4627 1.503 . S
C4635 C4634 1.370 . S
C4635 C4636 1.403 . S
C4636 C4635 1.403 . S
C4636 C4637 1.404 . S
C4636 C4639 1.539 . S
C4637 C4633 1.408 . S
C4637 C4636 1.404 . S
C4637 H4649 0.930 . S
C4638 C4634 1.524 . S
C4638 H4650 0.956 . S
C4638 H4651 0.961 . S
C4638 H4652 0.961 . S
C4639 C4636 1.539 . S
C4639 H4653 0.958 . S
C4639 H4654 0.961 . S
C4639 H4655 0.960 . S
H4640 C4624 0.931 . S
H4641 C4629 0.929 . S
H4642 C4630 0.960 . S
H4643 C4630 0.962 . S
H4644 C4630 0.960 . S
H4645 C4631 0.961 . S
H4646 C4631 0.961 . S
H4647 C4631 0.961 . S
H4648 C4632 0.931 . S
H4649 C4637 0.930 . S
H4650 C4638 0.956 . S
H4651 C4638 0.961 . S
H4652 C4638 0.961 . S
H4653 C4639 0.958 . S
H4654 C4639 0.961 . S
H4655 C4639 0.960 . S
C4656 C4657 1.391 . S
C4656 C4658 1.394 . S
C4656 H4672 0.931 . S
C4657 C4656 1.391 . S
C4657 C4661 1.376 . S
C4658 C4656 1.394 . S
C4658 C4659 1.369 . S
C4658 C4662 1.531 . S
C4659 C4658 1.369 . S
C4659 C4660 1.410 . S
C4659 C4667 1.503 . S
C4660 C4659 1.410 . S
C4660 C4661 1.392 . S
C4660 C4663 1.511 . S
C4661 C4657 1.376 . S
C4661 C4660 1.392 . S
C4661 H4673 0.929 . S
C4662 C4658 1.531 . S
C4662 H4674 0.960 . S
C4662 H4675 0.962 . S
C4662 H4676 0.960 . S
C4663 C4660 1.511 . S
C4663 H4677 0.961 . S
C4663 H4678 0.961 . S
C4663 H4679 0.961 . S
C4664 C4665 1.370 . S
C4664 C4666 1.363 . S
C4664 H4680 0.931 . S
C4665 C4664 1.370 . S
C4665 C4669 1.408 . S
C4666 C4664 1.363 . S
C4666 C4667 1.370 . S
C4666 C4670 1.524 . S
C4667 C4659 1.503 . S
C4667 C4666 1.370 . S
C4667 C4668 1.403 . S
C4668 C4667 1.403 . S
C4668 C4669 1.404 . S
C4668 C4671 1.539 . S
C4669 C4665 1.408 . S
C4669 C4668 1.404 . S
C4669 H4681 0.930 . S
C4670 C4666 1.524 . S
C4670 H4682 0.956 . S
C4670 H4683 0.961 . S
C4670 H4684 0.961 . S
C4671 C4668 1.539 . S
C4671 H4685 0.958 . S
C4671 H4686 0.961 . S
C4671 H4687 0.960 . S
H4672 C4656 0.931 . S
H4673 C4661 0.929 . S
H4674 C4662 0.960 . S
H4675 C4662 0.962 . S
H4676 C4662 0.960 . S
H4677 C4663 0.961 . S
H4678 C4663 0.961 . S
H4679 C4663 0.961 . S
H4680 C4664 0.931 . S
H4681 C4669 0.930 . S
H4682 C4670 0.956 . S
H4683 C4670 0.961 . S
H4684 C4670 0.961 . S
H4685 C4671 0.958 . S
H4686 C4671 0.961 . S
H4687 C4671 0.960 . S
C4688 C4689 1.391 . S
C4688 C4690 1.394 . S
C4688 H4704 0.931 . S
C4689 C4688 1.391 . S
C4689 C4693 1.376 . S
C4690 C4688 1.394 . S
C4690 C4691 1.369 . S
C4690 C4694 1.531 . S
C4691 C4690 1.369 . S
C4691 C4692 1.410 . S
C4691 C4699 1.503 . S
C4692 C4691 1.410 . S
C4692 C4693 1.392 . S
C4692 C4695 1.511 . S
C4693 C4689 1.376 . S
C4693 C4692 1.392 . S
C4693 H4705 0.929 . S
C4694 C4690 1.531 . S
C4694 H4706 0.960 . S
C4694 H4707 0.962 . S
C4694 H4708 0.960 . S
C4695 C4692 1.511 . S
C4695 H4709 0.961 . S
C4695 H4710 0.961 . S
C4695 H4711 0.961 . S
C4696 C4697 1.370 . S
C4696 C4698 1.363 . S
C4696 H4712 0.931 . S
C4697 C4696 1.370 . S
C4697 C4701 1.408 . S
C4698 C4696 1.363 . S
C4698 C4699 1.370 . S
C4698 C4702 1.524 . S
C4699 C4691 1.503 . S
C4699 C4698 1.370 . S
C4699 C4700 1.403 . S
C4700 C4699 1.403 . S
C4700 C4701 1.404 . S
C4700 C4703 1.539 . S
C4701 C4697 1.408 . S
C4701 C4700 1.404 . S
C4701 H4713 0.930 . S
C4702 C4698 1.524 . S
C4702 H4714 0.956 . S
C4702 H4715 0.961 . S
C4702 H4716 0.961 . S
C4703 C4700 1.539 . S
C4703 H4717 0.958 . S
C4703 H4718 0.961 . S
C4703 H4719 0.960 . S
H4704 C4688 0.931 . S
H4705 C4693 0.929 . S
H4706 C4694 0.960 . S
H4707 C4694 0.962 . S
H4708 C4694 0.960 . S
H4709 C4695 0.961 . S
H4710 C4695 0.961 . S
H4711 C4695 0.961 . S
H4712 C4696 0.931 . S
H4713 C4701 0.930 . S
H4714 C4702 0.956 . S
H4715 C4702 0.961 . S
H4716 C4702 0.961 . S
H4717 C4703 0.958 . S
H4718 C4703 0.961 . S
H4719 C4703 0.960 . S
C4720 C4721 1.391 . S
C4720 C4722 1.394 . S
C4720 H4736 0.931 . S
C4721 C4720 1.391 . S
C4721 C4725 1.376 . S
C4722 C4720 1.394 . S
C4722 C4723 1.369 . S
C4722 C4726 1.531 . S
C4723 C4722 1.369 . S
C4723 C4724 1.410 . S
C4723 C4731 1.503 . S
C4724 C4723 1.410 . S
C4724 C4725 1.392 . S
C4724 C4727 1.511 . S
C4725 C4721 1.376 . S
C4725 C4724 1.392 . S
C4725 H4737 0.929 . S
C4726 C4722 1.531 . S
C4726 H4738 0.960 . S
C4726 H4739 0.962 . S
C4726 H4740 0.960 . S
C4727 C4724 1.511 . S
C4727 H4741 0.961 . S
C4727 H4742 0.961 . S
C4727 H4743 0.961 . S
C4728 C4729 1.370 . S
C4728 C4730 1.363 . S
C4728 H4744 0.931 . S
C4729 C4728 1.370 . S
C4729 C4733 1.408 . S
C4730 C4728 1.363 . S
C4730 C4731 1.370 . S
C4730 C4734 1.524 . S
C4731 C4723 1.503 . S
C4731 C4730 1.370 . S
C4731 C4732 1.403 . S
C4732 C4731 1.403 . S
C4732 C4733 1.404 . S
C4732 C4735 1.539 . S
C4733 C4729 1.408 . S
C4733 C4732 1.404 . S
C4733 H4745 0.930 . S
C4734 C4730 1.524 . S
C4734 H4746 0.956 . S
C4734 H4747 0.961 . S
C4734 H4748 0.961 . S
C4735 C4732 1.539 . S
C4735 H4749 0.958 . S
C4735 H4750 0.961 . S
C4735 H4751 0.960 . S
H4736 C4720 0.931 . S
H4737 C4725 0.929 . S
H4738 C4726 0.960 . S
H4739 C4726 0.962 . S
H4740 C4726 0.960 . S
H4741 C4727 0.961 . S
H4742 C4727 0.961 . S
H4743 C4727 0.961 . S
H4744 C4728 0.931 . S
H4745 C4733 0.930 . S
H4746 C4734 0.956 . S
H4747 C4734 0.961 . S
H4748 C4734 0.961 . S
H4749 C4735 0.958 . S
H4750 C4735 0.961 . S
H4751 C4735 0.960 . S
C4752 C4753 1.391 . S
C4752 C4754 1.394 . S
C4752 H4768 0.931 . S
C4753 C4752 1.391 . S
C4753 C4757 1.376 . S
C4754 C4752 1.394 . S
C4754 C4755 1.369 . S
C4754 C4758 1.531 . S
C4755 C4754 1.369 . S
C4755 C4756 1.410 . S
C4755 C4763 1.503 . S
C4756 C4755 1.410 . S
C4756 C4757 1.392 . S
C4756 C4759 1.511 . S
C4757 C4753 1.376 . S
C4757 C4756 1.392 . S
C4757 H4769 0.929 . S
C4758 C4754 1.531 . S
C4758 H4770 0.960 . S
C4758 H4771 0.962 . S
C4758 H4772 0.960 . S
C4759 C4756 1.511 . S
C4759 H4773 0.961 . S
C4759 H4774 0.961 . S
C4759 H4775 0.961 . S
C4760 C4761 1.370 . S
C4760 C4762 1.363 . S
C4760 H4776 0.931 . S
C4761 C4760 1.370 . S
C4761 C4765 1.408 . S
C4762 C4760 1.363 . S
C4762 C4763 1.370 . S
C4762 C4766 1.524 . S
C4763 C4755 1.503 . S
C4763 C4762 1.370 . S
C4763 C4764 1.403 . S
C4764 C4763 1.403 . S
C4764 C4765 1.404 . S
C4764 C4767 1.539 . S
C4765 C4761 1.408 . S
C4765 C4764 1.404 . S
C4765 H4777 0.930 . S
C4766 C4762 1.524 . S
C4766 H4778 0.956 . S
C4766 H4779 0.961 . S
C4766 H4780 0.961 . S
C4767 C4764 1.539 . S
C4767 H4781 0.958 . S
C4767 H4782 0.961 . S
C4767 H4783 0.960 . S
H4768 C4752 0.931 . S
H4769 C4757 0.929 . S
H4770 C4758 0.960 . S
H4771 C4758 0.962 . S
H4772 C4758 0.960 . S
H4773 C4759 0.961 . S
H4774 C4759 0.961 . S
H4775 C4759 0.961 . S
H4776 C4760 0.931 . S
H4777 C4765 0.930 . S
H4778 C4766 0.956 . S
H4779 C4766 0.961 . S
H4780 C4766 0.961 . S
H4781 C4767 0.958 . S
H4782 C4767 0.961 . S
H4783 C4767 0.960 . S
C4784 C4785 1.391 . S
C4784 C4786 1.394 . S
C4784 H4800 0.931 . S
C4785 C4784 1.391 . S
C4785 C4789 1.376 . S
C4786 C4784 1.394 . S
C4786 C4787 1.369 . S
C4786 C4790 1.531 . S
C4787 C4786 1.369 . S
C4787 C4788 1.410 . S
C4787 C4795 1.503 . S
C4788 C4787 1.410 . S
C4788 C4789 1.392 . S
C4788 C4791 1.511 . S
C4789 C4785 1.376 . S
C4789 C4788 1.392 . S
C4789 H4801 0.929 . S
C4790 C4786 1.531 . S
C4790 H4802 0.960 . S
C4790 H4803 0.962 . S
C4790 H4804 0.960 . S
C4791 C4788 1.511 . S
C4791 H4805 0.961 . S
C4791 H4806 0.961 . S
C4791 H4807 0.961 . S
C4792 C4793 1.370 . S
C4792 C4794 1.363 . S
C4792 H4808 0.931 . S
C4793 C4792 1.370 . S
C4793 C4797 1.408 . S
C4794 C4792 1.363 . S
C4794 C4795 1.370 . S
C4794 C4798 1.524 . S
C4795 C4787 1.503 . S
C4795 C4794 1.370 . S
C4795 C4796 1.403 . S
C4796 C4795 1.403 . S
C4796 C4797 1.404 . S
C4796 C4799 1.539 . S
C4797 C4793 1.408 . S
C4797 C4796 1.404 . S
C4797 H4809 0.930 . S
C4798 C4794 1.524 . S
C4798 H4810 0.956 . S
C4798 H4811 0.961 . S
C4798 H4812 0.961 . S
C4799 C4796 1.539 . S
C4799 H4813 0.958 . S
C4799 H4814 0.961 . S
C4799 H4815 0.960 . S
H4800 C4784 0.931 . S
H4801 C4789 0.929 . S
H4802 C4790 0.960 . S
H4803 C4790 0.962 . S
H4804 C4790 0.960 . S
H4805 C4791 0.961 . S
H4806 C4791 0.961 . S
H4807 C4791 0.961 . S
H4808 C4792 0.931 . S
H4809 C4797 0.930 . S
H4810 C4798 0.956 . S
H4811 C4798 0.961 . S
H4812 C4798 0.961 . S
H4813 C4799 0.958 . S
H4814 C4799 0.961 . S
H4815 C4799 0.960 . S
C4816 C4817 1.391 . S
C4816 C4818 1.394 . S
C4816 H4832 0.931 . S
C4817 C4816 1.391 . S
C4817 C4821 1.376 . S
C4818 C4816 1.394 . S
C4818 C4819 1.369 . S
C4818 C4822 1.531 . S
C4819 C4818 1.369 . S
C4819 C4820 1.410 . S
C4819 C4827 1.503 . S
C4820 C4819 1.410 . S
C4820 C4821 1.392 . S
C4820 C4823 1.511 . S
C4821 C4817 1.376 . S
C4821 C4820 1.392 . S
C4821 H4833 0.929 . S
C4822 C4818 1.531 . S
C4822 H4834 0.960 . S
C4822 H4835 0.962 . S
C4822 H4836 0.960 . S
C4823 C4820 1.511 . S
C4823 H4837 0.961 . S
C4823 H4838 0.961 . S
C4823 H4839 0.961 . S
C4824 C4825 1.370 . S
C4824 C4826 1.363 . S
C4824 H4840 0.931 . S
C4825 C4824 1.370 . S
C4825 C4829 1.408 . S
C4826 C4824 1.363 . S
C4826 C4827 1.370 . S
C4826 C4830 1.524 . S
C4827 C4819 1.503 . S
C4827 C4826 1.370 . S
C4827 C4828 1.403 . S
C4828 C4827 1.403 . S
C4828 C4829 1.404 . S
C4828 C4831 1.539 . S
C4829 C4825 1.408 . S
C4829 C4828 1.404 . S
C4829 H4841 0.930 . S
C4830 C4826 1.524 . S
C4830 H4842 0.956 . S
C4830 H4843 0.961 . S
C4830 H4844 0.961 . S
C4831 C4828 1.539 . S
C4831 H4845 0.958 . S
C4831 H4846 0.961 . S
C4831 H4847 0.960 . S
H4832 C4816 0.931 . S
H4833 C4821 0.929 . S
H4834 C4822 0.960 . S
H4835 C4822 0.962 . S
H4836 C4822 0.960 . S
H4837 C4823 0.961 . S
H4838 C4823 0.961 . S
H4839 C4823 0.961 . S
H4840 C4824 0.931 . S
H4841 C4829 0.930 . S
H4842 C4830 0.956 . S
H4843 C4830 0.961 . S
H4844 C4830 0.961 . S
H4845 C4831 0.958 . S
H4846 C4831 0.961 . S
H4847 C4831 0.960 . S
C4848 C4849 1.391 . S
C4848 C4850 1.394 . S
C4848 H4864 0.931 . S
C4849 C4848 1.391 . S
C4849 C4853 1.376 . S
C4850 C4848 1.394 . S
C4850 C4851 1.369 . S
C4850 C4854 1.531 . S
C4851 C4850 1.369 . S
C4851 C4852 1.410 . S
C4851 C4859 1.503 . S
C4852 C4851 1.410 . S
C4852 C4853 1.392 . S
C4852 C4855 1.511 . S
C4853 C4849 1.376 . S
C4853 C4852 1.392 . S
C4853 H4865 0.929 . S
C4854 C4850 1.531 . S
C4854 H4866 0.960 . S
C4854 H4867 0.962 . S
C4854 H4868 0.960 . S
C4855 C4852 1.511 . S
C4855 H4869 0.961 . S
C4855 H4870 0.961 . S
C4855 H4871 0.961 . S
C4856 C4857 1.370 . S
C4856 C4858 1.363 . S
C4856 H4872 0.931 . S
C4857 C4856 1.370 . S
C4857 C4861 1.408 . S
C4858 C4856 1.363 . S
C4858 C4859 1.370 . S
C4858 C4862 1.524 . S
C4859 C4851 1.503 . S
C4859 C4858 1.370 . S
C4859 C4860 1.403 . S
C4860 C4859 1.403 . S
C4860 C4861 1.404 . S
C4860 C4863 1.539 . S
C4861 C4857 1.408 . S
C4861 C4860 1.404 . S
C4861 H4873 0.930 . S
C4862 C4858 1.524 . S
C4862 H4874 0.956 . S
C4862 H4875 0.961 . S
C4862 H4876 0.961 . S
C4863 C4860 1.539 . S
C4863 H4877 0.958 . S
C4863 H4878 0.961 . S
C4863 H4879 0.960 . S
H4864 C4848 0.931 . S
H4865 C4853 0.929 . S
H4866 C4854 0.960 . S
H4867 C4854 0.962 . S
H4868 C4854 0.960 . S
H4869 C4855 0.961 . S
H4870 C4855 0.961 . S
H4871 C4855 0.961 . S
H4872 C4856 0.931 . S
H4873 C4861 0.930 . S
H4874 C4862 0.956 . S
H4875 C4862 0.961 . S
H4876 C4862 0.961 . S
H4877 C4863 0.958 . S
H4878 C4863 0.961 . S
H4879 C4863 0.960 . S
C4880 C4881 1.391 . S
C4880 C4882 1.394 . S
C4880 H4896 0.931 . S
C4881 C4880 1.391 . S
C4881 C4885 1.376 . S
C4882 C4880 1.394 . S
C4882 C4883 1.369 . S
C4882 C4886 1.531 . S
C4883 C4882 1.369 . S
C4883 C4884 1.410 . S
C4883 C4891 1.503 . S
C4884 C4883 1.410 . S
C4884 C4885 1.392 . S
C4884 C4887 1.511 . S
C4885 C4881 1.376 . S
C4885 C4884 1.392 . S
C4885 H4897 0.929 . S
C4886 C4882 1.531 . S
C4886 H4898 0.960 . S
C4886 H4899 0.962 . S
C4886 H4900 0.960 . S
C4887 C4884 1.511 . S
C4887 H4901 0.961 . S
C4887 H4902 0.961 . S
C4887 H4903 0.961 . S
C4888 C4889 1.370 . S
C4888 C4890 1.363 . S
C4888 H4904 0.931 . S
C4889 C4888 1.370 . S
C4889 C4893 1.408 . S
C4890 C4888 1.363 . S
C4890 C4891 1.370 . S
C4890 C4894 1.524 . S
C4891 C4883 1.503 . S
C4891 C4890 1.370 . S
C4891 C4892 1.403 . S
C4892 C4891 1.403 . S
C4892 C4893 1.404 . S
C4892 C4895 1.539 . S
C4893 C4889 1.408 . S
C4893 C4892 1.404 . S
C4893 H4905 0.930 . S
C4894 C4890 1.524 . S
C4894 H4906 0.956 . S
C4894 H4907 0.961 . S
C4894 H4908 0.961 . S
C4895 C4892 1.539 . S
C4895 H4909 0.958 . S
C4895 H4910 0.961 . S
C4895 H4911 0.960 . S
H4896 C4880 0.931 . S
H4897 C4885 0.929 . S
H4898 C4886 0.960 . S
H4899 C4886 0.962 . S
H4900 C4886 0.960 . S
H4901 C4887 0.961 . S
H4902 C4887 0.961 . S
H4903 C4887 0.961 . S
H4904 C4888 0.931 . S
H4905 C4893 0.930 . S
H4906 C4894 0.956 . S
H4907 C4894 0.961 . S
H4908 C4894 0.961 . S
H4909 C4895 0.958 . S
H4910 C4895 0.961 . S
H4911 C4895 0.960 . S
C4912 C4913 1.391 . S
C4912 C4914 1.394 . S
C4912 H4928 0.931 . S
C4913 C4912 1.391 . S
C4913 C4917 1.376 . S
C4914 C4912 1.394 . S
C4914 C4915 1.369 . S
C4914 C4918 1.531 . S
C4915 C4914 1.369 . S
C4915 C4916 1.410 . S
C4915 C4923 1.503 . S
C4916 C4915 1.410 . S
C4916 C4917 1.392 . S
C4916 C4919 1.511 . S
C4917 C4913 1.376 . S
C4917 C4916 1.392 . S
C4917 H4929 0.929 . S
C4918 C4914 1.531 . S
C4918 H4930 0.960 . S
C4918 H4931 0.962 . S
C4918 H4932 0.960 . S
C4919 C4916 1.511 . S
C4919 H4933 0.961 . S
C4919 H4934 0.961 . S
C4919 H4935 0.961 . S
C4920 C4921 1.370 . S
C4920 C4922 1.363 . S
C4920 H4936 0.931 . S
C4921 C4920 1.370 . S
C4921 C4925 1.408 . S
C4922 C4920 1.363 . S
C4922 C4923 1.370 . S
C4922 C4926 1.524 . S
C4923 C4915 1.503 . S
C4923 C4922 1.370 . S
C4923 C4924 1.403 . S
C4924 C4923 1.403 . S
C4924 C4925 1.404 . S
C4924 C4927 1.539 . S
C4925 C4921 1.408 . S
C4925 C4924 1.404 . S
C4925 H4937 0.930 . S
C4926 C4922 1.524 . S
C4926 H4938 0.956 . S
C4926 H4939 0.961 . S
C4926 H4940 0.961 . S
C4927 C4924 1.539 . S
C4927 H4941 0.958 . S
C4927 H4942 0.961 . S
C4927 H4943 0.960 . S
H4928 C4912 0.931 . S
H4929 C4917 0.929 . S
H4930 C4918 0.960 . S
H4931 C4918 0.962 . S
H4932 C4918 0.960 . S
H4933 C4919 0.961 . S
H4934 C4919 0.961 . S
H4935 C4919 0.961 . S
H4936 C4920 0.931 . S
H4937 C4925 0.930 . S
H4938 C4926 0.956 . S
H4939 C4926 0.961 . S
H4940 C4926 0.961 . S
H4941 C4927 0.958 . S
H4942 C4927 0.961 . S
H4943 C4927 0.960 . S
C4944 C4945 1.391 . S
C4944 C4946 1.394 . S
C4944 H4960 0.931 . S
C4945 C4944 1.391 . S
C4945 C4949 1.376 . S
C4946 C4944 1.394 . S
C4946 C4947 1.369 . S
C4946 C4950 1.531 . S
C4947 C4946 1.369 . S
C4947 C4948 1.410 . S
C4947 C4955 1.503 . S
C4948 C4947 1.410 . S
C4948 C4949 1.392 . S
C4948 C4951 1.511 . S
C4949 C4945 1.376 . S
C4949 C4948 1.392 . S
C4949 H4961 0.929 . S
C4950 C4946 1.531 . S
C4950 H4962 0.960 . S
C4950 H4963 0.962 . S
C4950 H4964 0.960 . S
C4951 C4948 1.511 . S
C4951 H4965 0.961 . S
C4951 H4966 0.961 . S
C4951 H4967 0.961 . S
C4952 C4953 1.370 . S
C4952 C4954 1.363 . S
C4952 H4968 0.931 . S
C4953 C4952 1.370 . S
C4953 C4957 1.408 . S
C4954 C4952 1.363 . S
C4954 C4955 1.370 . S
C4954 C4958 1.524 . S
C4955 C4947 1.503 . S
C4955 C4954 1.370 . S
C4955 C4956 1.403 . S
C4956 C4955 1.403 . S
C4956 C4957 1.404 . S
C4956 C4959 1.539 . S
C4957 C4953 1.408 . S
C4957 C4956 1.404 . S
C4957 H4969 0.930 . S
C4958 C4954 1.524 . S
C4958 H4970 0.956 . S
C4958 H4971 0.961 . S
C4958 H4972 0.961 . S
C4959 C4956 1.539 . S
C4959 H4973 0.958 . S
C4959 H4974 0.961 . S
C4959 H4975 0.960 . S
H4960 C4944 0.931 . S
H4961 C4949 0.929 . S
H4962 C4950 0.960 . S
H4963 C4950 0.962 . S
H4964 C4950 0.960 . S
H4965 C4951 0.961 . S
H4966 C4951 0.961 . S
H4967 C4951 0.961 . S
H4968 C4952 0.931 . S
H4969 C4957 0.930 . S
H4970 C4958 0.956 . S
H4971 C4958 0.961 . S
H4972 C4958 0.961 . S
H4973 C4959 0.958 . S
H4974 C4959 0.961 . S
H4975 C4959 0.960 . S
C4976 C4977 1.391 . S
C4976 C4978 1.394 . S
C4976 H4992 0.931 . S
C4977 C4976 1.391 . S
C4977 C4981 1.376 . S
C4978 C4976 1.394 . S
C4978 C4979 1.369 . S
C4978 C4982 1.531 . S
C4979 C4978 1.369 . S
C4979 C4980 1.410 . S
C4979 C4987 1.503 . S
C4980 C4979 1.410 . S
C4980 C4981 1.392 . S
C4980 C4983 1.511 . S
C4981 C4977 1.376 . S
C4981 C4980 1.392 . S
C4981 H4993 0.929 . S
C4982 C4978 1.531 . S
C4982 H4994 0.960 . S
C4982 H4995 0.962 . S
C4982 H4996 0.960 . S
C4983 C4980 1.511 . S
C4983 H4997 0.961 . S
C4983 H4998 0.961 . S
C4983 H4999 0.961 . S
C4984 C4985 1.370 . S
C4984 C4986 1.363 . S
C4984 H5000 0.931 . S
C4985 C4984 1.370 . S
C4985 C4989 1.408 . S
C4986 C4984 1.363 . S
C4986 C4987 1.370 . S
C4986 C4990 1.524 . S
C4987 C4979 1.503 . S
C4987 C4986 1.370 . S
C4987 C4988 1.403 . S
C4988 C4987 1.403 . S
C4988 C4989 1.404 . S
C4988 C4991 1.539 . S
C4989 C4985 1.408 . S
C4989 C4988 1.404 . S
C4989 H5001 0.930 . S
C4990 C4986 1.524 . S
C4990 H5002 0.956 . S
C4990 H5003 0.961 . S
C4990 H5004 0.961 . S
C4991 C4988 1.539 . S
C4991 H5005 0.958 . S
C4991 H5006 0.961 . S
C4991 H5007 0.960 . S
H4992 C4976 0.931 . S
H4993 C4981 0.929 . S
H4994 C4982 0.960 . S
H4995 C4982 0.962 . S
H4996 C4982 0.960 . S
H4997 C4983 0.961 . S
H4998 C4983 0.961 . S
H4999 C4983 0.961 . S
H5000 C4984 0.931 . S
H5001 C4989 0.930 . S
H5002 C4990 0.956 . S
H5003 C4990 0.961 . S
H5004 C4990 0.961 . S
H5005 C4991 0.958 . S
H5006 C4991 0.961 . S
H5007 C4991 0.960 . S
C5008 C5009 1.391 . S
C5008 C5010 1.394 . S
C5008 H5024 0.931 . S
C5009 C5008 1.391 . S
C5009 C5013 1.376 . S
C5010 C5008 1.394 . S
C5010 C5011 1.369 . S
C5010 C5014 1.531 . S
C5011 C5010 1.369 . S
C5011 C5012 1.410 . S
C5011 C5019 1.503 . S
C5012 C5011 1.410 . S
C5012 C5013 1.392 . S
C5012 C5015 1.511 . S
C5013 C5009 1.376 . S
C5013 C5012 1.392 . S
C5013 H5025 0.929 . S
C5014 C5010 1.531 . S
C5014 H5026 0.960 . S
C5014 H5027 0.962 . S
C5014 H5028 0.960 . S
C5015 C5012 1.511 . S
C5015 H5029 0.961 . S
C5015 H5030 0.961 . S
C5015 H5031 0.961 . S
C5016 C5017 1.370 . S
C5016 C5018 1.363 . S
C5016 H5032 0.931 . S
C5017 C5016 1.370 . S
C5017 C5021 1.408 . S
C5018 C5016 1.363 . S
C5018 C5019 1.370 . S
C5018 C5022 1.524 . S
C5019 C5011 1.503 . S
C5019 C5018 1.370 . S
C5019 C5020 1.403 . S
C5020 C5019 1.403 . S
C5020 C5021 1.404 . S
C5020 C5023 1.539 . S
C5021 C5017 1.408 . S
C5021 C5020 1.404 . S
C5021 H5033 0.930 . S
C5022 C5018 1.524 . S
C5022 H5034 0.956 . S
C5022 H5035 0.961 . S
C5022 H5036 0.961 . S
C5023 C5020 1.539 . S
C5023 H5037 0.958 . S
C5023 H5038 0.961 . S
C5023 H5039 0.960 . S
H5024 C5008 0.931 . S
H5025 C5013 0.929 . S
H5026 C5014 0.960 . S
H5027 C5014 0.962 . S
H5028 C5014 0.960 . S
H5029 C5015 0.961 . S
H5030 C5015 0.961 . S
H5031 C5015 0.961 . S
H5032 C5016 0.931 . S
H5033 C5021 0.930 . S
H5034 C5022 0.956 . S
H5035 C5022 0.961 . S
H5036 C5022 0.961 . S
H5037 C5023 0.958 . S
H5038 C5023 0.961 . S
H5039 C5023 0.960 . S
C5040 C5041 1.391 . S
C5040 C5042 1.394 . S
C5040 H5056 0.931 . S
C5041 C5040 1.391 . S
C5041 C5045 1.376 . S
C5042 C5040 1.394 . S
C5042 C5043 1.369 . S
C5042 C5046 1.531 . S
C5043 C5042 1.369 . S
C5043 C5044 1.410 . S
C5043 C5051 1.503 . S
C5044 C5043 1.410 . S
C5044 C5045 1.392 . S
C5044 C5047 1.511 . S
C5045 C5041 1.376 . S
C5045 C5044 1.392 . S
C5045 H5057 0.929 . S
C5046 C5042 1.531 . S
C5046 H5058 0.960 . S
C5046 H5059 0.962 . S
C5046 H5060 0.960 . S
C5047 C5044 1.511 . S
C5047 H5061 0.961 . S
C5047 H5062 0.961 . S
C5047 H5063 0.961 . S
C5048 C5049 1.370 . S
C5048 C5050 1.363 . S
C5048 H5064 0.931 . S
C5049 C5048 1.370 . S
C5049 C5053 1.408 . S
C5050 C5048 1.363 . S
C5050 C5051 1.370 . S
C5050 C5054 1.524 . S
C5051 C5043 1.503 . S
C5051 C5050 1.370 . S
C5051 C5052 1.403 . S
C5052 C5051 1.403 . S
C5052 C5053 1.404 . S
C5052 C5055 1.539 . S
C5053 C5049 1.408 . S
C5053 C5052 1.404 . S
C5053 H5065 0.930 . S
C5054 C5050 1.524 . S
C5054 H5066 0.956 . S
C5054 H5067 0.961 . S
C5054 H5068 0.961 . S
C5055 C5052 1.539 . S
C5055 H5069 0.958 . S
C5055 H5070 0.961 . S
C5055 H5071 0.960 . S
H5056 C5040 0.931 . S
H5057 C5045 0.929 . S
H5058 C5046 0.960 . S
H5059 C5046 0.962 . S
H5060 C5046 0.960 . S
H5061 C5047 0.961 . S
H5062 C5047 0.961 . S
H5063 C5047 0.961 . S
H5064 C5048 0.931 . S
H5065 C5053 0.930 . S
H5066 C5054 0.956 . S
H5067 C5054 0.961 . S
H5068 C5054 0.961 . S
H5069 C5055 0.958 . S
H5070 C5055 0.961 . S
H5071 C5055 0.960 . S
C5072 C5073 1.391 . S
C5072 C5074 1.394 . S
C5072 H5088 0.931 . S
C5073 C5072 1.391 . S
C5073 C5077 1.376 . S
C5074 C5072 1.394 . S
C5074 C5075 1.369 . S
C5074 C5078 1.531 . S
C5075 C5074 1.369 . S
C5075 C5076 1.410 . S
C5075 C5083 1.503 . S
C5076 C5075 1.410 . S
C5076 C5077 1.392 . S
C5076 C5079 1.511 . S
C5077 C5073 1.376 . S
C5077 C5076 1.392 . S
C5077 H5089 0.929 . S
C5078 C5074 1.531 . S
C5078 H5090 0.960 . S
C5078 H5091 0.962 . S
C5078 H5092 0.960 . S
C5079 C5076 1.511 . S
C5079 H5093 0.961 . S
C5079 H5094 0.961 . S
C5079 H5095 0.961 . S
C5080 C5081 1.370 . S
C5080 C5082 1.363 . S
C5080 H5096 0.931 . S
C5081 C5080 1.370 . S
C5081 C5085 1.408 . S
C5082 C5080 1.363 . S
C5082 C5083 1.370 . S
C5082 C5086 1.524 . S
C5083 C5075 1.503 . S
C5083 C5082 1.370 . S
C5083 C5084 1.403 . S
C5084 C5083 1.403 . S
C5084 C5085 1.404 . S
C5084 C5087 1.539 . S
C5085 C5081 1.408 . S
C5085 C5084 1.404 . S
C5085 H5097 0.930 . S
C5086 C5082 1.524 . S
C5086 H5098 0.956 . S
C5086 H5099 0.961 . S
C5086 H5100 0.961 . S
C5087 C5084 1.539 . S
C5087 H5101 0.958 . S
C5087 H5102 0.961 . S
C5087 H5103 0.960 . S
H5088 C5072 0.931 . S
H5089 C5077 0.929 . S
H5090 C5078 0.960 . S
H5091 C5078 0.962 . S
H5092 C5078 0.960 . S
H5093 C5079 0.961 . S
H5094 C5079 0.961 . S
H5095 C5079 0.961 . S
H5096 C5080 0.931 . S
H5097 C5085 0.930 . S
H5098 C5086 0.956 . S
H5099 C5086 0.961 . S
H5100 C5086 0.961 . S
H5101 C5087 0.958 . S
H5102 C5087 0.961 . S
H5103 C5087 0.960 . S
C5104 C5105 1.391 . S
C5104 C5106 1.394 . S
C5104 H5120 0.931 . S
C5105 C5104 1.391 . S
C5105 C5109 1.376 . S
C5106 C5104 1.394 . S
C5106 C5107 1.369 . S
C5106 C5110 1.531 . S
C5107 C5106 1.369 . S
C5107 C5108 1.410 . S
C5107 C5115 1.503 . S
C5108 C5107 1.410 . S
C5108 C5109 1.392 . S
C5108 C5111 1.511 . S
C5109 C5105 1.376 . S
C5109 C5108 1.392 . S
C5109 H5121 0.929 . S
C5110 C5106 1.531 . S
C5110 H5122 0.960 . S
C5110 H5123 0.962 . S
C5110 H5124 0.960 . S
C5111 C5108 1.511 . S
C5111 H5125 0.961 . S
C5111 H5126 0.961 . S
C5111 H5127 0.961 . S
C5112 C5113 1.370 . S
C5112 C5114 1.363 . S
C5112 H5128 0.931 . S
C5113 C5112 1.370 . S
C5113 C5117 1.408 . S
C5114 C5112 1.363 . S
C5114 C5115 1.370 . S
C5114 C5118 1.524 . S
C5115 C5107 1.503 . S
C5115 C5114 1.370 . S
C5115 C5116 1.403 . S
C5116 C5115 1.403 . S
C5116 C5117 1.404 . S
C5116 C5119 1.539 . S
C5117 C5113 1.408 . S
C5117 C5116 1.404 . S
C5117 H5129 0.930 . S
C5118 C5114 1.524 . S
C5118 H5130 0.956 . S
C5118 H5131 0.961 . S
C5118 H5132 0.961 . S
C5119 C5116 1.539 . S
C5119 H5133 0.958 . S
C5119 H5134 0.961 . S
C5119 H5135 0.960 . S
H5120 C5104 0.931 . S
H5121 C5109 0.929 . S
H5122 C5110 0.960 . S
H5123 C5110 0.962 . S
H5124 C5110 0.960 . S
H5125 C5111 0.961 . S
H5126 C5111 0.961 . S
H5127 C5111 0.961 . S
H5128 C5112 0.931 . S
H5129 C5117 0.930 . S
H5130 C5118 0.956 . S
H5131 C5118 0.961 . S
H5132 C5118 0.961 . S
H5133 C5119 0.958 . S
H5134 C5119 0.961 . S
H5135 C5119 0.960 . S
C5136 C5137 1.391 . S
C5136 C5138 1.394 . S
C5136 H5152 0.931 . S
C5137 C5136 1.391 . S
C5137 C5141 1.376 . S
C5138 C5136 1.394 . S
C5138 C5139 1.369 . S
C5138 C5142 1.531 . S
C5139 C5138 1.369 . S
C5139 C5140 1.410 . S
C5139 C5147 1.503 . S
C5140 C5139 1.410 . S
C5140 C5141 1.392 . S
C5140 C5143 1.511 . S
C5141 C5137 1.376 . S
C5141 C5140 1.392 . S
C5141 H5153 0.929 . S
C5142 C5138 1.531 . S
C5142 H5154 0.960 . S
C5142 H5155 0.962 . S
C5142 H5156 0.960 . S
C5143 C5140 1.511 . S
C5143 H5157 0.961 . S
C5143 H5158 0.961 . S
C5143 H5159 0.961 . S
C5144 C5145 1.370 . S
C5144 C5146 1.363 . S
C5144 H5160 0.931 . S
C5145 C5144 1.370 . S
C5145 C5149 1.408 . S
C5146 C5144 1.363 . S
C5146 C5147 1.370 . S
C5146 C5150 1.524 . S
C5147 C5139 1.503 . S
C5147 C5146 1.370 . S
C5147 C5148 1.403 . S
C5148 C5147 1.403 . S
C5148 C5149 1.404 . S
C5148 C5151 1.539 . S
C5149 C5145 1.408 . S
C5149 C5148 1.404 . S
C5149 H5161 0.930 . S
C5150 C5146 1.524 . S
C5150 H5162 0.956 . S
C5150 H5163 0.961 . S
C5150 H5164 0.961 . S
C5151 C5148 1.539 . S
C5151 H5165 0.958 . S
C5151 H5166 0.961 . S
C5151 H5167 0.960 . S
H5152 C5136 0.931 . S
H5153 C5141 0.929 . S
H5154 C5142 0.960 . S
H5155 C5142 0.962 . S
H5156 C5142 0.960 . S
H5157 C5143 0.961 . S
H5158 C5143 0.961 . S
H5159 C5143 0.961 . S
H5160 C5144 0.931 . S
H5161 C5149 0.930 . S
H5162 C5150 0.956 . S
H5163 C5150 0.961 . S
H5164 C5150 0.961 . S
H5165 C5151 0.958 . S
H5166 C5151 0.961 . S
H5167 C5151 0.960 . S
C5168 C5169 1.391 . S
C5168 C5170 1.394 . S
C5168 H5184 0.931 . S
C5169 C5168 1.391 . S
C5169 C5173 1.376 . S
C5170 C5168 1.394 . S
C5170 C5171 1.369 . S
C5170 C5174 1.531 . S
C5171 C5170 1.369 . S
C5171 C5172 1.410 . S
C5171 C5179 1.503 . S
C5172 C5171 1.410 . S
C5172 C5173 1.392 . S
C5172 C5175 1.511 . S
C5173 C5169 1.376 . S
C5173 C5172 1.392 . S
C5173 H5185 0.929 . S
C5174 C5170 1.531 . S
C5174 H5186 0.960 . S
C5174 H5187 0.962 . S
C5174 H5188 0.960 . S
C5175 C5172 1.511 . S
C5175 H5189 0.961 . S
C5175 H5190 0.961 . S
C5175 H5191 0.961 . S
C5176 C5177 1.370 . S
C5176 C5178 1.363 . S
C5176 H5192 0.931 . S
C5177 C5176 1.370 . S
C5177 C5181 1.408 . S
C5178 C5176 1.363 . S
C5178 C5179 1.370 . S
C5178 C5182 1.524 . S
C5179 C5171 1.503 . S
C5179 C5178 1.370 . S
C5179 C5180 1.403 . S
C5180 C5179 1.403 . S
C5180 C5181 1.404 . S
C5180 C5183 1.539 . S
C5181 C5177 1.408 . S
C5181 C5180 1.404 . S
C5181 H5193 0.930 . S
C5182 C5178 1.524 . S
C5182 H5194 0.956 . S
C5182 H5195 0.961 . S
C5182 H5196 0.961 . S
C5183 C5180 1.539 . S
C5183 H5197 0.958 . S
C5183 H5198 0.961 . S
C5183 H5199 0.960 . S
H5184 C5168 0.931 . S
H5185 C5173 0.929 . S
H5186 C5174 0.960 . S
H5187 C5174 0.962 . S
H5188 C5174 0.960 . S
H5189 C5175 0.961 . S
H5190 C5175 0.961 . S
H5191 C5175 0.961 . S
H5192 C5176 0.931 . S
H5193 C5181 0.930 . S
H5194 C5182 0.956 . S
H5195 C5182 0.961 . S
H5196 C5182 0.961 . S
H5197 C5183 0.958 . S
H5198 C5183 0.961 . S
H5199 C5183 0.960 . S
C5200 C5201 1.391 . S
C5200 C5202 1.394 . S
C5200 H5216 0.931 . S
C5201 C5200 1.391 . S
C5201 C5205 1.376 . S
C5202 C5200 1.394 . S
C5202 C5203 1.369 . S
C5202 C5206 1.531 . S
C5203 C5202 1.369 . S
C5203 C5204 1.410 . S
C5203 C5211 1.503 . S
C5204 C5203 1.410 . S
C5204 C5205 1.392 . S
C5204 C5207 1.511 . S
C5205 C5201 1.376 . S
C5205 C5204 1.392 . S
C5205 H5217 0.929 . S
C5206 C5202 1.531 . S
C5206 H5218 0.960 . S
C5206 H5219 0.962 . S
C5206 H5220 0.960 . S
C5207 C5204 1.511 . S
C5207 H5221 0.961 . S
C5207 H5222 0.961 . S
C5207 H5223 0.961 . S
C5208 C5209 1.370 . S
C5208 C5210 1.363 . S
C5208 H5224 0.931 . S
C5209 C5208 1.370 . S
C5209 C5213 1.408 . S
C5210 C5208 1.363 . S
C5210 C5211 1.370 . S
C5210 C5214 1.524 . S
C5211 C5203 1.503 . S
C5211 C5210 1.370 . S
C5211 C5212 1.403 . S
C5212 C5211 1.403 . S
C5212 C5213 1.404 . S
C5212 C5215 1.539 . S
C5213 C5209 1.408 . S
C5213 C5212 1.404 . S
C5213 H5225 0.930 . S
C5214 C5210 1.524 . S
C5214 H5226 0.956 . S
C5214 H5227 0.961 . S
C5214 H5228 0.961 . S
C5215 C5212 1.539 . S
C5215 H5229 0.958 . S
C5215 H5230 0.961 . S
C5215 H5231 0.960 . S
H5216 C5200 0.931 . S
H5217 C5205 0.929 . S
H5218 C5206 0.960 . S
H5219 C5206 0.962 . S
H5220 C5206 0.960 . S
H5221 C5207 0.961 . S
H5222 C5207 0.961 . S
H5223 C5207 0.961 . S
H5224 C5208 0.931 . S
H5225 C5213 0.930 . S
H5226 C5214 0.956 . S
H5227 C5214 0.961 . S
H5228 C5214 0.961 . S
H5229 C5215 0.958 . S
H5230 C5215 0.961 . S
H5231 C5215 0.960 . S
C5232 C5233 1.391 . S
C5232 C5234 1.394 . S
C5232 H5248 0.931 . S
C5233 C5232 1.391 . S
C5233 C5237 1.376 . S
C5234 C5232 1.394 . S
C5234 C5235 1.369 . S
C5234 C5238 1.531 . S
C5235 C5234 1.369 . S
C5235 C5236 1.410 . S
C5235 C5243 1.503 . S
C5236 C5235 1.410 . S
C5236 C5237 1.392 . S
C5236 C5239 1.511 . S
C5237 C5233 1.376 . S
C5237 C5236 1.392 . S
C5237 H5249 0.929 . S
C5238 C5234 1.531 . S
C5238 H5250 0.960 . S
C5238 H5251 0.962 . S
C5238 H5252 0.960 . S
C5239 C5236 1.511 . S
C5239 H5253 0.961 . S
C5239 H5254 0.961 . S
C5239 H5255 0.961 . S
C5240 C5241 1.370 . S
C5240 C5242 1.363 . S
C5240 H5256 0.931 . S
C5241 C5240 1.370 . S
C5241 C5245 1.408 . S
C5242 C5240 1.363 . S
C5242 C5243 1.370 . S
C5242 C5246 1.524 . S
C5243 C5235 1.503 . S
C5243 C5242 1.370 . S
C5243 C5244 1.403 . S
C5244 C5243 1.403 . S
C5244 C5245 1.404 . S
C5244 C5247 1.539 . S
C5245 C5241 1.408 . S
C5245 C5244 1.404 . S
C5245 H5257 0.930 . S
C5246 C5242 1.524 . S
C5246 H5258 0.956 . S
C5246 H5259 0.961 . S
C5246 H5260 0.961 . S
C5247 C5244 1.539 . S
C5247 H5261 0.958 . S
C5247 H5262 0.961 . S
C5247 H5263 0.960 . S
H5248 C5232 0.931 . S
H5249 C5237 0.929 . S
H5250 C5238 0.960 . S
H5251 C5238 0.962 . S
H5252 C5238 0.960 . S
H5253 C5239 0.961 . S
H5254 C5239 0.961 . S
H5255 C5239 0.961 . S
H5256 C5240 0.931 . S
H5257 C5245 0.930 . S
H5258 C5246 0.956 . S
H5259 C5246 0.961 . S
H5260 C5246 0.961 . S
H5261 C5247 0.958 . S
H5262 C5247 0.961 . S
H5263 C5247 0.960 . S
C5264 C5265 1.391 . S
C5264 C5266 1.394 . S
C5264 H5280 0.931 . S
C5265 C5264 1.391 . S
C5265 C5269 1.376 . S
C5266 C5264 1.394 . S
C5266 C5267 1.369 . S
C5266 C5270 1.531 . S
C5267 C5266 1.369 . S
C5267 C5268 1.410 . S
C5267 C5275 1.503 . S
C5268 C5267 1.410 . S
C5268 C5269 1.392 . S
C5268 C5271 1.511 . S
C5269 C5265 1.376 . S
C5269 C5268 1.392 . S
C5269 H5281 0.929 . S
C5270 C5266 1.531 . S
C5270 H5282 0.960 . S
C5270 H5283 0.962 . S
C5270 H5284 0.960 . S
C5271 C5268 1.511 . S
C5271 H5285 0.961 . S
C5271 H5286 0.961 . S
C5271 H5287 0.961 . S
C5272 C5273 1.370 . S
C5272 C5274 1.363 . S
C5272 H5288 0.931 . S
C5273 C5272 1.370 . S
C5273 C5277 1.408 . S
C5274 C5272 1.363 . S
C5274 C5275 1.370 . S
C5274 C5278 1.524 . S
C5275 C5267 1.503 . S
C5275 C5274 1.370 . S
C5275 C5276 1.403 . S
C5276 C5275 1.403 . S
C5276 C5277 1.404 . S
C5276 C5279 1.539 . S
C5277 C5273 1.408 . S
C5277 C5276 1.404 . S
C5277 H5289 0.930 . S
C5278 C5274 1.524 . S
C5278 H5290 0.956 . S
C5278 H5291 0.961 . S
C5278 H5292 0.961 . S
C5279 C5276 1.539 . S
C5279 H5293 0.958 . S
C5279 H5294 0.961 . S
C5279 H5295 0.960 . S
H5280 C5264 0.931 . S
H5281 C5269 0.929 . S
H5282 C5270 0.960 . S
H5283 C5270 0.962 . S
H5284 C5270 0.960 . S
H5285 C5271 0.961 . S
H5286 C5271 0.961 . S
H5287 C5271 0.961 . S
H5288 C5272 0.931 . S
H5289 C5277 0.930 . S
H5290 C5278 0.956 . S
H5291 C5278 0.961 . S
H5292 C5278 0.961 . S
H5293 C5279 0.958 . S
H5294 C5279 0.961 . S
H5295 C5279 0.960 . S
C5296 C5297 1.391 . S
C5296 C5298 1.394 . S
C5296 H5312 0.931 . S
C5297 C5296 1.391 . S
C5297 C5301 1.376 . S
C5298 C5296 1.394 . S
C5298 C5299 1.369 . S
C5298 C5302 1.531 . S
C5299 C5298 1.369 . S
C5299 C5300 1.410 . S
C5299 C5307 1.503 . S
C5300 C5299 1.410 . S
C5300 C5301 1.392 . S
C5300 C5303 1.511 . S
C5301 C5297 1.376 . S
C5301 C5300 1.392 . S
C5301 H5313 0.929 . S
C5302 C5298 1.531 . S
C5302 H5314 0.960 . S
C5302 H5315 0.962 . S
C5302 H5316 0.960 . S
C5303 C5300 1.511 . S
C5303 H5317 0.961 . S
C5303 H5318 0.961 . S
C5303 H5319 0.961 . S
C5304 C5305 1.370 . S
C5304 C5306 1.363 . S
C5304 H5320 0.931 . S
C5305 C5304 1.370 . S
C5305 C5309 1.408 . S
C5306 C5304 1.363 . S
C5306 C5307 1.370 . S
C5306 C5310 1.524 . S
C5307 C5299 1.503 . S
C5307 C5306 1.370 . S
C5307 C5308 1.403 . S
C5308 C5307 1.403 . S
C5308 C5309 1.404 . S
C5308 C5311 1.539 . S
C5309 C5305 1.408 . S
C5309 C5308 1.404 . S
C5309 H5321 0.930 . S
C5310 C5306 1.524 . S
C5310 H5322 0.956 . S
C5310 H5323 0.961 . S
C5310 H5324 0.961 . S
C5311 C5308 1.539 . S
C5311 H5325 0.958 . S
C5311 H5326 0.961 . S
C5311 H5327 0.960 . S
H5312 C5296 0.931 . S
H5313 C5301 0.929 . S
H5314 C5302 0.960 . S
H5315 C5302 0.962 . S
H5316 C5302 0.960 . S
H5317 C5303 0.961 . S
H5318 C5303 0.961 . S
H5319 C5303 0.961 . S
H5320 C5304 0.931 . S
H5321 C5309 0.930 . S
H5322 C5310 0.956 . S
H5323 C5310 0.961 . S
H5324 C5310 0.961 . S
H5325 C5311 0.958 . S
H5326 C5311 0.961 . S
H5327 C5311 0.960 . S
C5328 C5329 1.391 . S
C5328 C5330 1.394 . S
C5328 H5344 0.931 . S
C5329 C5328 1.391 . S
C5329 C5333 1.376 . S
C5330 C5328 1.394 . S
C5330 C5331 1.369 . S
C5330 C5334 1.531 . S
C5331 C5330 1.369 . S
C5331 C5332 1.410 . S
C5331 C5339 1.503 . S
C5332 C5331 1.410 . S
C5332 C5333 1.392 . S
C5332 C5335 1.511 . S
C5333 C5329 1.376 . S
C5333 C5332 1.392 . S
C5333 H5345 0.929 . S
C5334 C5330 1.531 . S
C5334 H5346 0.960 . S
C5334 H5347 0.962 . S
C5334 H5348 0.960 . S
C5335 C5332 1.511 . S
C5335 H5349 0.961 . S
C5335 H5350 0.961 . S
C5335 H5351 0.961 . S
C5336 C5337 1.370 . S
C5336 C5338 1.363 . S
C5336 H5352 0.931 . S
C5337 C5336 1.370 . S
C5337 C5341 1.408 . S
C5338 C5336 1.363 . S
C5338 C5339 1.370 . S
C5338 C5342 1.524 . S
C5339 C5331 1.503 . S
C5339 C5338 1.370 . S
C5339 C5340 1.403 . S
C5340 C5339 1.403 . S
C5340 C5341 1.404 . S
C5340 C5343 1.539 . S
C5341 C5337 1.408 . S
C5341 C5340 1.404 . S
C5341 H5353 0.930 . S
C5342 C5338 1.524 . S
C5342 H5354 0.956 . S
C5342 H5355 0.961 . S
C5342 H5356 0.961 . S
C5343 C5340 1.539 . S
C5343 H5357 0.958 . S
C5343 H5358 0.961 . S
C5343 H5359 0.960 . S
H5344 C5328 0.931 . S
H5345 C5333 0.929 . S
H5346 C5334 0.960 . S
H5347 C5334 0.962 . S
H5348 C5334 0.960 . S
H5349 C5335 0.961 . S
H5350 C5335 0.961 . S
H5351 C5335 0.961 . S
H5352 C5336 0.931 . S
H5353 C5341 0.930 . S
H5354 C5342 0.956 . S
H5355 C5342 0.961 . S
H5356 C5342 0.961 . S
H5357 C5343 0.958 . S
H5358 C5343 0.961 . S
H5359 C5343 0.960 . S
C5360 C5361 1.391 . S
C5360 C5362 1.394 . S
C5360 H5376 0.931 . S
C5361 C5360 1.391 . S
C5361 C5365 1.376 . S
C5362 C5360 1.394 . S
C5362 C5363 1.369 . S
C5362 C5366 1.531 . S
C5363 C5362 1.369 . S
C5363 C5364 1.410 . S
C5363 C5371 1.503 . S
C5364 C5363 1.410 . S
C5364 C5365 1.392 . S
C5364 C5367 1.511 . S
C5365 C5361 1.376 . S
C5365 C5364 1.392 . S
C5365 H5377 0.929 . S
C5366 C5362 1.531 . S
C5366 H5378 0.960 . S
C5366 H5379 0.962 . S
C5366 H5380 0.960 . S
C5367 C5364 1.511 . S
C5367 H5381 0.961 . S
C5367 H5382 0.961 . S
C5367 H5383 0.961 . S
C5368 C5369 1.370 . S
C5368 C5370 1.363 . S
C5368 H5384 0.931 . S
C5369 C5368 1.370 . S
C5369 C5373 1.408 . S
C5370 C5368 1.363 . S
C5370 C5371 1.370 . S
C5370 C5374 1.524 . S
C5371 C5363 1.503 . S
C5371 C5370 1.370 . S
C5371 C5372 1.403 . S
C5372 C5371 1.403 . S
C5372 C5373 1.404 . S
C5372 C5375 1.539 . S
C5373 C5369 1.408 . S
C5373 C5372 1.404 . S
C5373 H5385 0.930 . S
C5374 C5370 1.524 . S
C5374 H5386 0.956 . S
C5374 H5387 0.961 . S
C5374 H5388 0.961 . S
C5375 C5372 1.539 . S
C5375 H5389 0.958 . S
C5375 H5390 0.961 . S
C5375 H5391 0.960 . S
H5376 C5360 0.931 . S
H5377 C5365 0.929 . S
H5378 C5366 0.960 . S
H5379 C5366 0.962 . S
H5380 C5366 0.960 . S
H5381 C5367 0.961 . S
H5382 C5367 0.961 . S
H5383 C5367 0.961 . S
H5384 C5368 0.931 . S
H5385 C5373 0.930 . S
H5386 C5374 0.956 . S
H5387 C5374 0.961 . S
H5388 C5374 0.961 . S
H5389 C5375 0.958 . S
H5390 C5375 0.961 . S
H5391 C5375 0.960 . S
C5392 C5393 1.391 . S
C5392 C5394 1.394 . S
C5392 H5408 0.931 . S
C5393 C5392 1.391 . S
C5393 C5397 1.376 . S
C5394 C5392 1.394 . S
C5394 C5395 1.369 . S
C5394 C5398 1.531 . S
C5395 C5394 1.369 . S
C5395 C5396 1.410 . S
C5395 C5403 1.503 . S
C5396 C5395 1.410 . S
C5396 C5397 1.392 . S
C5396 C5399 1.511 . S
C5397 C5393 1.376 . S
C5397 C5396 1.392 . S
C5397 H5409 0.929 . S
C5398 C5394 1.531 . S
C5398 H5410 0.960 . S
C5398 H5411 0.962 . S
C5398 H5412 0.960 . S
C5399 C5396 1.511 . S
C5399 H5413 0.961 . S
C5399 H5414 0.961 . S
C5399 H5415 0.961 . S
C5400 C5401 1.370 . S
C5400 C5402 1.363 . S
C5400 H5416 0.931 . S
C5401 C5400 1.370 . S
C5401 C5405 1.408 . S
C5402 C5400 1.363 . S
C5402 C5403 1.370 . S
C5402 C5406 1.524 . S
C5403 C5395 1.503 . S
C5403 C5402 1.370 . S
C5403 C5404 1.403 . S
C5404 C5403 1.403 . S
C5404 C5405 1.404 . S
C5404 C5407 1.539 . S
C5405 C5401 1.408 . S
C5405 C5404 1.404 . S
C5405 H5417 0.930 . S
C5406 C5402 1.524 . S
C5406 H5418 0.956 . S
C5406 H5419 0.961 . S
C5406 H5420 0.961 . S
C5407 C5404 1.539 . S
C5407 H5421 0.958 . S
C5407 H5422 0.961 . S
C5407 H5423 0.960 . S
H5408 C5392 0.931 . S
H5409 C5397 0.929 . S
H5410 C5398 0.960 . S
H5411 C5398 0.962 . S
H5412 C5398 0.960 . S
H5413 C5399 0.961 . S
H5414 C5399 0.961 . S
H5415 C5399 0.961 . S
H5416 C5400 0.931 . S
H5417 C5405 0.930 . S
H5418 C5406 0.956 . S
H5419 C5406 0.961 . S
H5420 C5406 0.961 . S
H5421 C5407 0.958 . S
H5422 C5407 0.961 . S
H5423 C5407 0.960 . S
C5424 C5425 1.391 . S
C5424 C5426 1.394 . S
C5424 H5440 0.931 . S
C5425 C5424 1.391 . S
C5425 C5429 1.376 . S
C5426 C5424 1.394 . S
C5426 C5427 1.369 . S
C5426 C5430 1.531 . S
C5427 C5426 1.369 . S
C5427 C5428 1.410 . S
C5427 C5435 1.503 . S
C5428 C5427 1.410 . S
C5428 C5429 1.392 . S
C5428 C5431 1.511 . S
C5429 C5425 1.376 . S
C5429 C5428 1.392 . S
C5429 H5441 0.929 . S
C5430 C5426 1.531 . S
C5430 H5442 0.960 . S
C5430 H5443 0.962 . S
C5430 H5444 0.960 . S
C5431 C5428 1.511 . S
C5431 H5445 0.961 . S
C5431 H5446 0.961 . S
C5431 H5447 0.961 . S
C5432 C5433 1.370 . S
C5432 C5434 1.363 . S
C5432 H5448 0.931 . S
C5433 C5432 1.370 . S
C5433 C5437 1.408 . S
C5434 C5432 1.363 . S
C5434 C5435 1.370 . S
C5434 C5438 1.524 . S
C5435 C5427 1.503 . S
C5435 C5434 1.370 . S
C5435 C5436 1.403 . S
C5436 C5435 1.403 . S
C5436 C5437 1.404 . S
C5436 C5439 1.539 . S
C5437 C5433 1.408 . S
C5437 C5436 1.404 . S
C5437 H5449 0.930 . S
C5438 C5434 1.524 . S
C5438 H5450 0.956 . S
C5438 H5451 0.961 . S
C5438 H5452 0.961 . S
C5439 C5436 1.539 . S
C5439 H5453 0.958 . S
C5439 H5454 0.961 . S
C5439 H5455 0.960 . S
H5440 C5424 0.931 . S
H5441 C5429 0.929 . S
H5442 C5430 0.960 . S
H5443 C5430 0.962 . S
H5444 C5430 0.960 . S
H5445 C5431 0.961 . S
H5446 C5431 0.961 . S
H5447 C5431 0.961 . S
H5448 C5432 0.931 . S
H5449 C5437 0.930 . S
H5450 C5438 0.956 . S
H5451 C5438 0.961 . S
H5452 C5438 0.961 . S
H5453 C5439 0.958 . S
H5454 C5439 0.961 . S
H5455 C5439 0.960 . S
C5456 C5457 1.391 . S
C5456 C5458 1.394 . S
C5456 H5472 0.931 . S
C5457 C5456 1.391 . S
C5457 C5461 1.376 . S
C5458 C5456 1.394 . S
C5458 C5459 1.369 . S
C5458 C5462 1.531 . S
C5459 C5458 1.369 . S
C5459 C5460 1.410 . S
C5459 C5467 1.503 . S
C5460 C5459 1.410 . S
C5460 C5461 1.392 . S
C5460 C5463 1.511 . S
C5461 C5457 1.376 . S
C5461 C5460 1.392 . S
C5461 H5473 0.929 . S
C5462 C5458 1.531 . S
C5462 H5474 0.960 . S
C5462 H5475 0.962 . S
C5462 H5476 0.960 . S
C5463 C5460 1.511 . S
C5463 H5477 0.961 . S
C5463 H5478 0.961 . S
C5463 H5479 0.961 . S
C5464 C5465 1.370 . S
C5464 C5466 1.363 . S
C5464 H5480 0.931 . S
C5465 C5464 1.370 . S
C5465 C5469 1.408 . S
C5466 C5464 1.363 . S
C5466 C5467 1.370 . S
C5466 C5470 1.524 . S
C5467 C5459 1.503 . S
C5467 C5466 1.370 . S
C5467 C5468 1.403 . S
C5468 C5467 1.403 . S
C5468 C5469 1.404 . S
C5468 C5471 1.539 . S
C5469 C5465 1.408 . S
C5469 C5468 1.404 . S
C5469 H5481 0.930 . S
C5470 C5466 1.524 . S
C5470 H5482 0.956 . S
C5470 H5483 0.961 . S
C5470 H5484 0.961 . S
C5471 C5468 1.539 . S
C5471 H5485 0.958 . S
C5471 H5486 0.961 . S
C5471 H5487 0.960 . S
H5472 C5456 0.931 . S
H5473 C5461 0.929 . S
H5474 C5462 0.960 . S
H5475 C5462 0.962 . S
H5476 C5462 0.960 . S
H5477 C5463 0.961 . S
H5478 C5463 0.961 . S
H5479 C5463 0.961 . S
H5480 C5464 0.931 . S
H5481 C5469 0.930 . S
H5482 C5470 0.956 . S
H5483 C5470 0.961 . S
H5484 C5470 0.961 . S
H5485 C5471 0.958 . S
H5486 C5471 0.961 . S
H5487 C5471 0.960 . S
C5488 C5489 1.391 . S
C5488 C5490 1.394 . S
C5488 H5504 0.931 . S
C5489 C5488 1.391 . S
C5489 C5493 1.376 . S
C5490 C5488 1.394 . S
C5490 C5491 1.369 . S
C5490 C5494 1.531 . S
C5491 C5490 1.369 . S
C5491 C5492 1.410 . S
C5491 C5499 1.503 . S
C5492 C5491 1.410 . S
C5492 C5493 1.392 . S
C5492 C5495 1.511 . S
C5493 C5489 1.376 . S
C5493 C5492 1.392 . S
C5493 H5505 0.929 . S
C5494 C5490 1.531 . S
C5494 H5506 0.960 . S
C5494 H5507 0.962 . S
C5494 H5508 0.960 . S
C5495 C5492 1.511 . S
C5495 H5509 0.961 . S
C5495 H5510 0.961 . S
C5495 H5511 0.961 . S
C5496 C5497 1.370 . S
C5496 C5498 1.363 . S
C5496 H5512 0.931 . S
C5497 C5496 1.370 . S
C5497 C5501 1.408 . S
C5498 C5496 1.363 . S
C5498 C5499 1.370 . S
C5498 C5502 1.524 . S
C5499 C5491 1.503 . S
C5499 C5498 1.370 . S
C5499 C5500 1.403 . S
C5500 C5499 1.403 . S
C5500 C5501 1.404 . S
C5500 C5503 1.539 . S
C5501 C5497 1.408 . S
C5501 C5500 1.404 . S
C5501 H5513 0.930 . S
C5502 C5498 1.524 . S
C5502 H5514 0.956 . S
C5502 H5515 0.961 . S
C5502 H5516 0.961 . S
C5503 C5500 1.539 . S
C5503 H5517 0.958 . S
C5503 H5518 0.961 . S
C5503 H5519 0.960 . S
H5504 C5488 0.931 . S
H5505 C5493 0.929 . S
H5506 C5494 0.960 . S
H5507 C5494 0.962 . S
H5508 C5494 0.960 . S
H5509 C5495 0.961 . S
H5510 C5495 0.961 . S
H5511 C5495 0.961 . S
H5512 C5496 0.931 . S
H5513 C5501 0.930 . S
H5514 C5502 0.956 . S
H5515 C5502 0.961 . S
H5516 C5502 0.961 . S
H5517 C5503 0.958 . S
H5518 C5503 0.961 . S
H5519 C5503 0.960 . S
C5520 C5521 1.391 . S
C5520 C5522 1.394 . S
C5520 H5536 0.931 . S
C5521 C5520 1.391 . S
C5521 C5525 1.376 . S
C5522 C5520 1.394 . S
C5522 C5523 1.369 . S
C5522 C5526 1.531 . S
C5523 C5522 1.369 . S
C5523 C5524 1.410 . S
C5523 C5531 1.503 . S
C5524 C5523 1.410 . S
C5524 C5525 1.392 . S
C5524 C5527 1.511 . S
C5525 C5521 1.376 . S
C5525 C5524 1.392 . S
C5525 H5537 0.929 . S
C5526 C5522 1.531 . S
C5526 H5538 0.960 . S
C5526 H5539 0.962 . S
C5526 H5540 0.960 . S
C5527 C5524 1.511 . S
C5527 H5541 0.961 . S
C5527 H5542 0.961 . S
C5527 H5543 0.961 . S
C5528 C5529 1.370 . S
C5528 C5530 1.363 . S
C5528 H5544 0.931 . S
C5529 C5528 1.370 . S
C5529 C5533 1.408 . S
C5530 C5528 1.363 . S
C5530 C5531 1.370 . S
C5530 C5534 1.524 . S
C5531 C5523 1.503 . S
C5531 C5530 1.370 . S
C5531 C5532 1.403 . S
C5532 C5531 1.403 . S
C5532 C5533 1.404 . S
C5532 C5535 1.539 . S
C5533 C5529 1.408 . S
C5533 C5532 1.404 . S
C5533 H5545 0.930 . S
C5534 C5530 1.524 . S
C5534 H5546 0.956 . S
C5534 H5547 0.961 . S
C5534 H5548 0.961 . S
C5535 C5532 1.539 . S
C5535 H5549 0.958 . S
C5535 H5550 0.961 . S
C5535 H5551 0.960 . S
H5536 C5520 0.931 . S
H5537 C5525 0.929 . S
H5538 C5526 0.960 . S
H5539 C5526 0.962 . S
H5540 C5526 0.960 . S
H5541 C5527 0.961 . S
H5542 C5527 0.961 . S
H5543 C5527 0.961 . S
H5544 C5528 0.931 . S
H5545 C5533 0.930 . S
H5546 C5534 0.956 . S
H5547 C5534 0.961 . S
H5548 C5534 0.961 . S
H5549 C5535 0.958 . S
H5550 C5535 0.961 . S
H5551 C5535 0.960 . S
C5552 C5553 1.391 . S
C5552 C5554 1.394 . S
C5552 H5568 0.931 . S
C5553 C5552 1.391 . S
C5553 C5557 1.376 . S
C5554 C5552 1.394 . S
C5554 C5555 1.369 . S
C5554 C5558 1.531 . S
C5555 C5554 1.369 . S
C5555 C5556 1.410 . S
C5555 C5563 1.503 . S
C5556 C5555 1.410 . S
C5556 C5557 1.392 . S
C5556 C5559 1.511 . S
C5557 C5553 1.376 . S
C5557 C5556 1.392 . S
C5557 H5569 0.929 . S
C5558 C5554 1.531 . S
C5558 H5570 0.960 . S
C5558 H5571 0.962 . S
C5558 H5572 0.960 . S
C5559 C5556 1.511 . S
C5559 H5573 0.961 . S
C5559 H5574 0.961 . S
C5559 H5575 0.961 . S
C5560 C5561 1.370 . S
C5560 C5562 1.363 . S
C5560 H5576 0.931 . S
C5561 C5560 1.370 . S
C5561 C5565 1.408 . S
C5562 C5560 1.363 . S
C5562 C5563 1.370 . S
C5562 C5566 1.524 . S
C5563 C5555 1.503 . S
C5563 C5562 1.370 . S
C5563 C5564 1.403 . S
C5564 C5563 1.403 . S
C5564 C5565 1.404 . S
C5564 C5567 1.539 . S
C5565 C5561 1.408 . S
C5565 C5564 1.404 . S
C5565 H5577 0.930 . S
C5566 C5562 1.524 . S
C5566 H5578 0.956 . S
C5566 H5579 0.961 . S
C5566 H5580 0.961 . S
C5567 C5564 1.539 . S
C5567 H5581 0.958 . S
C5567 H5582 0.961 . S
C5567 H5583 0.960 . S
H5568 C5552 0.931 . S
H5569 C5557 0.929 . S
H5570 C5558 0.960 . S
H5571 C5558 0.962 . S
H5572 C5558 0.960 . S
H5573 C5559 0.961 . S
H5574 C5559 0.961 . S
H5575 C5559 0.961 . S
H5576 C5560 0.931 . S
H5577 C5565 0.930 . S
H5578 C5566 0.956 . S
H5579 C5566 0.961 . S
H5580 C5566 0.961 . S
H5581 C5567 0.958 . S
H5582 C5567 0.961 . S
H5583 C5567 0.960 . S
C5584 C5585 1.391 . S
C5584 C5586 1.394 . S
C5584 H5600 0.931 . S
C5585 C5584 1.391 . S
C5585 C5589 1.376 . S
C5586 C5584 1.394 . S
C5586 C5587 1.369 . S
C5586 C5590 1.531 . S
C5587 C5586 1.369 . S
C5587 C5588 1.410 . S
C5587 C5595 1.503 . S
C5588 C5587 1.410 . S
C5588 C5589 1.392 . S
C5588 C5591 1.511 . S
C5589 C5585 1.376 . S
C5589 C5588 1.392 . S
C5589 H5601 0.929 . S
C5590 C5586 1.531 . S
C5590 H5602 0.960 . S
C5590 H5603 0.962 . S
C5590 H5604 0.960 . S
C5591 C5588 1.511 . S
C5591 H5605 0.961 . S
C5591 H5606 0.961 . S
C5591 H5607 0.961 . S
C5592 C5593 1.370 . S
C5592 C5594 1.363 . S
C5592 H5608 0.931 . S
C5593 C5592 1.370 . S
C5593 C5597 1.408 . S
C5594 C5592 1.363 . S
C5594 C5595 1.370 . S
C5594 C5598 1.524 . S
C5595 C5587 1.503 . S
C5595 C5594 1.370 . S
C5595 C5596 1.403 . S
C5596 C5595 1.403 . S
C5596 C5597 1.404 . S
C5596 C5599 1.539 . S
C5597 C5593 1.408 . S
C5597 C5596 1.404 . S
C5597 H5609 0.930 . S
C5598 C5594 1.524 . S
C5598 H5610 0.956 . S
C5598 H5611 0.961 . S
C5598 H5612 0.961 . S
C5599 C5596 1.539 . S
C5599 H5613 0.958 . S
C5599 H5614 0.961 . S
C5599 H5615 0.960 . S
H5600 C5584 0.931 . S
H5601 C5589 0.929 . S
H5602 C5590 0.960 . S
H5603 C5590 0.962 . S
H5604 C5590 0.960 . S
H5605 C5591 0.961 . S
H5606 C5591 0.961 . S
H5607 C5591 0.961 . S
H5608 C5592 0.931 . S
H5609 C5597 0.930 . S
H5610 C5598 0.956 . S
H5611 C5598 0.961 . S
H5612 C5598 0.961 . S
H5613 C5599 0.958 . S
H5614 C5599 0.961 . S
H5615 C5599 0.960 . S
C5616 C5617 1.391 . S
C5616 C5618 1.394 . S
C5616 H5632 0.931 . S
C5617 C5616 1.391 . S
C5617 C5621 1.376 . S
C5618 C5616 1.394 . S
C5618 C5619 1.369 . S
C5618 C5622 1.531 . S
C5619 C5618 1.369 . S
C5619 C5620 1.410 . S
C5619 C5627 1.503 . S
C5620 C5619 1.410 . S
C5620 C5621 1.392 . S
C5620 C5623 1.511 . S
C5621 C5617 1.376 . S
C5621 C5620 1.392 . S
C5621 H5633 0.929 . S
C5622 C5618 1.531 . S
C5622 H5634 0.960 . S
C5622 H5635 0.962 . S
C5622 H5636 0.960 . S
C5623 C5620 1.511 . S
C5623 H5637 0.961 . S
C5623 H5638 0.961 . S
C5623 H5639 0.961 . S
C5624 C5625 1.370 . S
C5624 C5626 1.363 . S
C5624 H5640 0.931 . S
C5625 C5624 1.370 . S
C5625 C5629 1.408 . S
C5626 C5624 1.363 . S
C5626 C5627 1.370 . S
C5626 C5630 1.524 . S
C5627 C5619 1.503 . S
C5627 C5626 1.370 . S
C5627 C5628 1.403 . S
C5628 C5627 1.403 . S
C5628 C5629 1.404 . S
C5628 C5631 1.539 . S
C5629 C5625 1.408 . S
C5629 C5628 1.404 . S
C5629 H5641 0.930 . S
C5630 C5626 1.524 . S
C5630 H5642 0.956 . S
C5630 H5643 0.961 . S
C5630 H5644 0.961 . S
C5631 C5628 1.539 . S
C5631 H5645 0.958 . S
C5631 H5646 0.961 . S
C5631 H5647 0.960 . S
H5632 C5616 0.931 . S
H5633 C5621 0.929 . S
H5634 C5622 0.960 . S
H5635 C5622 0.962 . S
H5636 C5622 0.960 . S
H5637 C5623 0.961 . S
H5638 C5623 0.961 . S
H5639 C5623 0.961 . S
H5640 C5624 0.931 . S
H5641 C5629 0.930 . S
H5642 C5630 0.956 . S
H5643 C5630 0.961 . S
H5644 C5630 0.961 . S
H5645 C5631 0.958 . S
H5646 C5631 0.961 . S
H5647 C5631 0.960 . S
C5648 C5649 1.391 . S
C5648 C5650 1.394 . S
C5648 H5664 0.931 . S
C5649 C5648 1.391 . S
C5649 C5653 1.376 . S
C5650 C5648 1.394 . S
C5650 C5651 1.369 . S
C5650 C5654 1.531 . S
C5651 C5650 1.369 . S
C5651 C5652 1.410 . S
C5651 C5659 1.503 . S
C5652 C5651 1.410 . S
C5652 C5653 1.392 . S
C5652 C5655 1.511 . S
C5653 C5649 1.376 . S
C5653 C5652 1.392 . S
C5653 H5665 0.929 . S
C5654 C5650 1.531 . S
C5654 H5666 0.960 . S
C5654 H5667 0.962 . S
C5654 H5668 0.960 . S
C5655 C5652 1.511 . S
C5655 H5669 0.961 . S
C5655 H5670 0.961 . S
C5655 H5671 0.961 . S
C5656 C5657 1.370 . S
C5656 C5658 1.363 . S
C5656 H5672 0.931 . S
C5657 C5656 1.370 . S
C5657 C5661 1.408 . S
C5658 C5656 1.363 . S
C5658 C5659 1.370 . S
C5658 C5662 1.524 . S
C5659 C5651 1.503 . S
C5659 C5658 1.370 . S
C5659 C5660 1.403 . S
C5660 C5659 1.403 . S
C5660 C5661 1.404 . S
C5660 C5663 1.539 . S
C5661 C5657 1.408 . S
C5661 C5660 1.404 . S
C5661 H5673 0.930 . S
C5662 C5658 1.524 . S
C5662 H5674 0.956 . S
C5662 H5675 0.961 . S
C5662 H5676 0.961 . S
C5663 C5660 1.539 . S
C5663 H5677 0.958 . S
C5663 H5678 0.961 . S
C5663 H5679 0.960 . S
H5664 C5648 0.931 . S
H5665 C5653 0.929 . S
H5666 C5654 0.960 . S
H5667 C5654 0.962 . S
H5668 C5654 0.960 . S
H5669 C5655 0.961 . S
H5670 C5655 0.961 . S
H5671 C5655 0.961 . S
H5672 C5656 0.931 . S
H5673 C5661 0.930 . S
H5674 C5662 0.956 . S
H5675 C5662 0.961 . S
H5676 C5662 0.961 . S
H5677 C5663 0.958 . S
H5678 C5663 0.961 . S
H5679 C5663 0.960 . S
C5680 C5681 1.391 . S
C5680 C5682 1.394 . S
C5680 H5696 0.931 . S
C5681 C5680 1.391 . S
C5681 C5685 1.376 . S
C5682 C5680 1.394 . S
C5682 C5683 1.369 . S
C5682 C5686 1.531 . S
C5683 C5682 1.369 . S
C5683 C5684 1.410 . S
C5683 C5691 1.503 . S
C5684 C5683 1.410 . S
C5684 C5685 1.392 . S
C5684 C5687 1.511 . S
C5685 C5681 1.376 . S
C5685 C5684 1.392 . S
C5685 H5697 0.929 . S
C5686 C5682 1.531 . S
C5686 H5698 0.960 . S
C5686 H5699 0.962 . S
C5686 H5700 0.960 . S
C5687 C5684 1.511 . S
C5687 H5701 0.961 . S
C5687 H5702 0.961 . S
C5687 H5703 0.961 . S
C5688 C5689 1.370 . S
C5688 C5690 1.363 . S
C5688 H5704 0.931 . S
C5689 C5688 1.370 . S
C5689 C5693 1.408 . S
C5690 C5688 1.363 . S
C5690 C5691 1.370 . S
C5690 C5694 1.524 . S
C5691 C5683 1.503 . S
C5691 C5690 1.370 . S
C5691 C5692 1.403 . S
C5692 C5691 1.403 . S
C5692 C5693 1.404 . S
C5692 C5695 1.539 . S
C5693 C5689 1.408 . S
C5693 C5692 1.404 . S
C5693 H5705 0.930 . S
C5694 C5690 1.524 . S
C5694 H5706 0.956 . S
C5694 H5707 0.961 . S
C5694 H5708 0.961 . S
C5695 C5692 1.539 . S
C5695 H5709 0.958 . S
C5695 H5710 0.961 . S
C5695 H5711 0.960 . S
H5696 C5680 0.931 . S
H5697 C5685 0.929 . S
H5698 C5686 0.960 . S
H5699 C5686 0.962 . S
H5700 C5686 0.960 . S
H5701 C5687 0.961 . S
H5702 C5687 0.961 . S
H5703 C5687 0.961 . S
H5704 C5688 0.931 . S
H5705 C5693 0.930 . S
H5706 C5694 0.956 . S
H5707 C5694 0.961 . S
H5708 C5694 0.961 . S
H5709 C5695 0.958 . S
H5710 C5695 0.961 . S
H5711 C5695 0.960 . S
C5712 C5713 1.391 . S
C5712 C5714 1.394 . S
C5712 H5728 0.931 . S
C5713 C5712 1.391 . S
C5713 C5717 1.376 . S
C5714 C5712 1.394 . S
C5714 C5715 1.369 . S
C5714 C5718 1.531 . S
C5715 C5714 1.369 . S
C5715 C5716 1.410 . S
C5715 C5723 1.503 . S
C5716 C5715 1.410 . S
C5716 C5717 1.392 . S
C5716 C5719 1.511 . S
C5717 C5713 1.376 . S
C5717 C5716 1.392 . S
C5717 H5729 0.929 . S
C5718 C5714 1.531 . S
C5718 H5730 0.960 . S
C5718 H5731 0.962 . S
C5718 H5732 0.960 . S
C5719 C5716 1.511 . S
C5719 H5733 0.961 . S
C5719 H5734 0.961 . S
C5719 H5735 0.961 . S
C5720 C5721 1.370 . S
C5720 C5722 1.363 . S
C5720 H5736 0.931 . S
C5721 C5720 1.370 . S
C5721 C5725 1.408 . S
C5722 C5720 1.363 . S
C5722 C5723 1.370 . S
C5722 C5726 1.524 . S
C5723 C5715 1.503 . S
C5723 C5722 1.370 . S
C5723 C5724 1.403 . S
C5724 C5723 1.403 . S
C5724 C5725 1.404 . S
C5724 C5727 1.539 . S
C5725 C5721 1.408 . S
C5725 C5724 1.404 . S
C5725 H5737 0.930 . S
C5726 C5722 1.524 . S
C5726 H5738 0.956 . S
C5726 H5739 0.961 . S
C5726 H5740 0.961 . S
C5727 C5724 1.539 . S
C5727 H5741 0.958 . S
C5727 H5742 0.961 . S
C5727 H5743 0.960 . S
H5728 C5712 0.931 . S
H5729 C5717 0.929 . S
H5730 C5718 0.960 . S
H5731 C5718 0.962 . S
H5732 C5718 0.960 . S
H5733 C5719 0.961 . S
H5734 C5719 0.961 . S
H5735 C5719 0.961 . S
H5736 C5720 0.931 . S
H5737 C5725 0.930 . S
H5738 C5726 0.956 . S
H5739 C5726 0.961 . S
H5740 C5726 0.961 . S
H5741 C5727 0.958 . S
H5742 C5727 0.961 . S
H5743 C5727 0.960 . S
C5744 C5745 1.391 . S
C5744 C5746 1.394 . S
C5744 H5760 0.931 . S
C5745 C5744 1.391 . S
C5745 C5749 1.376 . S
C5746 C5744 1.394 . S
C5746 C5747 1.369 . S
C5746 C5750 1.531 . S
C5747 C5746 1.369 . S
C5747 C5748 1.410 . S
C5747 C5755 1.503 . S
C5748 C5747 1.410 . S
C5748 C5749 1.392 . S
C5748 C5751 1.511 . S
C5749 C5745 1.376 . S
C5749 C5748 1.392 . S
C5749 H5761 0.929 . S
C5750 C5746 1.531 . S
C5750 H5762 0.960 . S
C5750 H5763 0.962 . S
C5750 H5764 0.960 . S
C5751 C5748 1.511 . S
C5751 H5765 0.961 . S
C5751 H5766 0.961 . S
C5751 H5767 0.961 . S
C5752 C5753 1.370 . S
C5752 C5754 1.363 . S
C5752 H5768 0.931 . S
C5753 C5752 1.370 . S
C5753 C5757 1.408 . S
C5754 C5752 1.363 . S
C5754 C5755 1.370 . S
C5754 C5758 1.524 . S
C5755 C5747 1.503 . S
C5755 C5754 1.370 . S
C5755 C5756 1.403 . S
C5756 C5755 1.403 . S
C5756 C5757 1.404 . S
C5756 C5759 1.539 . S
C5757 C5753 1.408 . S
C5757 C5756 1.404 . S
C5757 H5769 0.930 . S
C5758 C5754 1.524 . S
C5758 H5770 0.956 . S
C5758 H5771 0.961 . S
C5758 H5772 0.961 . S
C5759 C5756 1.539 . S
C5759 H5773 0.958 . S
C5759 H5774 0.961 . S
C5759 H5775 0.960 . S
H5760 C5744 0.931 . S
H5761 C5749 0.929 . S
H5762 C5750 0.960 . S
H5763 C5750 0.962 . S
H5764 C5750 0.960 . S
H5765 C5751 0.961 . S
H5766 C5751 0.961 . S
H5767 C5751 0.961 . S
H5768 C5752 0.931 . S
H5769 C5757 0.930 . S
H5770 C5758 0.956 . S
H5771 C5758 0.961 . S
H5772 C5758 0.961 . S
H5773 C5759 0.958 . S
H5774 C5759 0.961 . S
H5775 C5759 0.960 . S
C5776 C5777 1.391 . S
C5776 C5778 1.394 . S
C5776 H5792 0.931 . S
C5777 C5776 1.391 . S
C5777 C5781 1.376 . S
C5778 C5776 1.394 . S
C5778 C5779 1.369 . S
C5778 C5782 1.531 . S
C5779 C5778 1.369 . S
C5779 C5780 1.410 . S
C5779 C5787 1.503 . S
C5780 C5779 1.410 . S
C5780 C5781 1.392 . S
C5780 C5783 1.511 . S
C5781 C5777 1.376 . S
C5781 C5780 1.392 . S
C5781 H5793 0.929 . S
C5782 C5778 1.531 . S
C5782 H5794 0.960 . S
C5782 H5795 0.962 . S
C5782 H5796 0.960 . S
C5783 C5780 1.511 . S
C5783 H5797 0.961 . S
C5783 H5798 0.961 . S
C5783 H5799 0.961 . S
C5784 C5785 1.370 . S
C5784 C5786 1.363 . S
C5784 H5800 0.931 . S
C5785 C5784 1.370 . S
C5785 C5789 1.408 . S
C5786 C5784 1.363 . S
C5786 C5787 1.370 . S
C5786 C5790 1.524 . S
C5787 C5779 1.503 . S
C5787 C5786 1.370 . S
C5787 C5788 1.403 . S
C5788 C5787 1.403 . S
C5788 C5789 1.404 . S
C5788 C5791 1.539 . S
C5789 C5785 1.408 . S
C5789 C5788 1.404 . S
C5789 H5801 0.930 . S
C5790 C5786 1.524 . S
C5790 H5802 0.956 . S
C5790 H5803 0.961 . S
C5790 H5804 0.961 . S
C5791 C5788 1.539 . S
C5791 H5805 0.958 . S
C5791 H5806 0.961 . S
C5791 H5807 0.960 . S
H5792 C5776 0.931 . S
H5793 C5781 0.929 . S
H5794 C5782 0.960 . S
H5795 C5782 0.962 . S
H5796 C5782 0.960 . S
H5797 C5783 0.961 . S
H5798 C5783 0.961 . S
H5799 C5783 0.961 . S
H5800 C5784 0.931 . S
H5801 C5789 0.930 . S
H5802 C5790 0.956 . S
H5803 C5790 0.961 . S
H5804 C5790 0.961 . S
H5805 C5791 0.958 . S
H5806 C5791 0.961 . S
H5807 C5791 0.960 . S
C5808 C5809 1.391 . S
C5808 C5810 1.394 . S
C5808 H5824 0.931 . S
C5809 C5808 1.391 . S
C5809 C5813 1.376 . S
C5810 C5808 1.394 . S
C5810 C5811 1.369 . S
C5810 C5814 1.531 . S
C5811 C5810 1.369 . S
C5811 C5812 1.410 . S
C5811 C5819 1.503 . S
C5812 C5811 1.410 . S
C5812 C5813 1.392 . S
C5812 C5815 1.511 . S
C5813 C5809 1.376 . S
C5813 C5812 1.392 . S
C5813 H5825 0.929 . S
C5814 C5810 1.531 . S
C5814 H5826 0.960 . S
C5814 H5827 0.962 . S
C5814 H5828 0.960 . S
C5815 C5812 1.511 . S
C5815 H5829 0.961 . S
C5815 H5830 0.961 . S
C5815 H5831 0.961 . S
C5816 C5817 1.370 . S
C5816 C5818 1.363 . S
C5816 H5832 0.931 . S
C5817 C5816 1.370 . S
C5817 C5821 1.408 . S
C5818 C5816 1.363 . S
C5818 C5819 1.370 . S
C5818 C5822 1.524 . S
C5819 C5811 1.503 . S
C5819 C5818 1.370 . S
C5819 C5820 1.403 . S
C5820 C5819 1.403 . S
C5820 C5821 1.404 . S
C5820 C5823 1.539 . S
C5821 C5817 1.408 . S
C5821 C5820 1.404 . S
C5821 H5833 0.930 . S
C5822 C5818 1.524 . S
C5822 H5834 0.956 . S
C5822 H5835 0.961 . S
C5822 H5836 0.961 . S
C5823 C5820 1.539 . S
C5823 H5837 0.958 . S
C5823 H5838 0.961 . S
C5823 H5839 0.960 . S
H5824 C5808 0.931 . S
H5825 C5813 0.929 . S
H5826 C5814 0.960 . S
H5827 C5814 0.962 . S
H5828 C5814 0.960 . S
H5829 C5815 0.961 . S
H5830 C5815 0.961 . S
H5831 C5815 0.961 . S
H5832 C5816 0.931 . S
H5833 C5821 0.930 . S
H5834 C5822 0.956 . S
H5835 C5822 0.961 . S
H5836 C5822 0.961 . S
H5837 C5823 0.958 . S
H5838 C5823 0.961 . S
H5839 C5823 0.960 . S
C2777 C1327 1.415 . S
C2769 C21 1.549 . S
C2809 C1389 1.375 . S
C2801 C42 1.489 . S
C2833 C82 1.554 . S
C2841 C1451 1.414 . S
C2873 C1519 1.425 . S
C2865 C135 1.464 . S
C2897 C175 1.427 . S
C2905 C1501 1.372 . S
C2929 C221 1.605 . S
C2937 C1309 1.520 . S
C2961 C255 1.616 . S
C2969 C1371 1.528 . S
C3001 C1433 1.521 . S
C2993 C301 1.622 . S
C3033 C1581 1.475 . S
C3025 C15 1.532 . S
C3057 C55 1.510 . S
C3065 C1619 1.411 . S
C3089 C101 1.614 . S
C3097 C1705 1.595 . S
C3129 C1749 1.464 . S
C3121 C141 1.539 . S
C3153 C162 1.419 . S
C3161 C1811 1.384 . S
C3193 C1873 1.539 . S
C3185 C215 1.582 . S
C3217 C261 1.603 . S
C3225 C1929 1.497 . S
C3257 C1991 1.436 . S
C3249 C282 1.539 . S
C3281 C2 1.576 . S
C3289 C1767 1.557 . S
C3313 C181 1.391 . S
C3321 C1891 1.373 . S
C3353 C1947 1.451 . S
C3345 C202 1.521 . S
C3377 C242 1.571 . S
C3385 C2009 1.443 . S
C3417 C1829 1.464 . S
C3409 C295 1.515 . S
C3449 C1637 1.515 . S
C3441 C95 1.619 . S
C3473 C122 1.523 . S
C3481 C1687 1.444 . S
C3513 C1563 1.539 . S
C3505 C61 1.574 . S
C3545 C2071 1.503 . S
C3537 C341 1.636 . S
C3569 C362 1.424 . S
C3577 C2121 1.383 . S
C3601 C402 1.524 . S
C3609 C2177 1.362 . S
C3641 C2263 1.447 . S
C3633 C455 1.524 . S
C3665 C495 1.498 . S
C3673 C2245 1.442 . S
C3697 C541 1.602 . S
C3705 C2053 1.515 . S
C3729 C575 1.515 . S
C3737 C2139 1.488 . S
C3761 C621 1.655 . S
C3769 C2195 1.557 . S
C3801 C1805 1.466 . S
C3793 C335 1.565 . S
C3825 C375 1.454 . S
C3833 C2325 1.402 . S
C3865 C1935 1.539 . S
C3857 C421 1.578 . S
C3889 C461 1.546 . S
C3897 C2387 1.487 . S
C3921 C482 1.465 . S
C3929 C1575 1.326 . S
C3961 C2431 1.529 . S
C3953 C535 1.585 . S
C3985 C581 1.557 . S
C3993 C1699 1.450 . S
C4025 C2487 1.476 . S
C4017 C602 1.579 . S
C4049 C322 1.643 . S
C4057 C2369 1.640 . S
C4089 C2449 1.419 . S
C4081 C501 1.441 . S
C4113 C522 1.549 . S
C4121 C1681 1.420 . S
C4153 C2505 1.382 . S
C4145 C562 1.537 . S
C4177 C615 1.664 . S
C4185 C1557 1.588 . S
C4209 C415 1.513 . S
C4217 C2307 1.477 . S
C4241 C442 1.502 . S
C4249 C1953 1.432 . S
C4273 C381 1.508 . S
C4281 C1823 1.363 . S
C4305 C661 1.419 . S
C4313 C2183 1.448 . S
C4345 C2257 1.333 . S
C4337 C682 1.454 . S
C4369 C722 1.530 . S
C4377 C2077 1.482 . S
C4401 C775 1.544 . S
C4409 C2115 1.412 . S
C4433 C815 1.543 . S
C4441 C2133 1.465 . S
C4465 C861 1.535 . S
C4473 C2201 1.553 . S
C4505 C2239 1.480 . S
C4497 C895 1.582 . S
C4529 C941 1.608 . S
C4537 C2059 1.574 . S
C4569 C2555 1.448 . S
C4561 C655 1.473 . S
C4593 C695 1.545 . S
C4601 C1867 1.422 . S
C4633 C2617 1.555 . S
C4625 C741 1.570 . S
C4657 C781 1.538 . S
C4665 C1997 1.492 . S
C4689 C802 1.491 . S
C4697 C2673 1.370 . S
C4721 C855 1.495 . S
C4729 C1625 1.473 . S
C4761 C2753 1.526 . S
C4753 C901 1.618 . S
C4785 C922 1.562 . S
C4793 C1743 1.448 . S
C4825 C2015 1.480 . S
C4817 C642 1.475 . S
C4857 C1643 1.501 . S
C4849 C821 1.499 . S
C4881 C842 1.462 . S
C4889 C2735 1.407 . S
C4913 C882 1.624 . S
C4921 C1761 1.524 . S
C4953 C2691 1.475 . S
C4945 C935 1.610 . S
C4985 C1885 1.368 . S
C4977 C735 1.523 . S
C5017 C2635 1.487 . S
C5009 C762 1.527 . S
C5049 C2573 1.504 . S
C5041 C701 1.529 . S
C5073 C981 1.467 . S
C5081 C1457 1.483 . S
C5105 C1002 1.478 . S
C5113 C1513 1.336 . S
C5145 C1333 1.473 . S
C5137 C1042 1.455 . S
C5177 C1395 1.429 . S
C5169 C1095 1.487 . S
C5209 C1377 1.526 . S
C5201 C1135 1.538 . S
C5241 C1439 1.582 . S
C5233 C1181 1.573 . S
C5273 C1495 1.431 . S
C5265 C1215 1.554 . S
C5297 C1261 1.616 . S
C5305 C1315 1.582 . S
C5329 C975 1.492 . S
C5337 C2679 1.456 . S
C5369 C2425 1.403 . S
C5361 C1015 1.521 . S
C5401 C2759 1.554 . S
C5393 C1061 1.587 . S
C5433 C2493 1.478 . S
C5425 C1101 1.515 . S
C5457 C1122 1.467 . S
C5465 C2549 1.403 . S
C5497 C2319 1.436 . S
C5489 C1175 1.585 . S
C5529 C2611 1.489 . S
C5521 C1221 1.594 . S
C5553 C1242 1.525 . S
C5561 C2381 1.374 . S
C5593 C2511 1.440 . S
C5585 C962 1.473 . S
C5625 C2301 1.406 . S
C5617 C1141 1.480 . S
C5657 C2629 1.473 . S
C5649 C1162 1.563 . S
C5681 C1202 1.640 . S
C5689 C2363 1.551 . S
C5713 C1255 1.577 . S
C5721 C2567 1.481 . S
C5745 C1055 1.494 . S
C5753 C2443 1.383 . S
C5777 C1082 1.517 . S
C5785 C2741 1.443 . S
C5817 C2697 1.474 . S
C5809 C1021 1.510 . S
