# Generated by pormake.
# Topology rtl, (3,6)-cn, num edge types: 1
# Building blocks:
#     Node 0, Type 0, BuildingBlock: BETDAH_clean_linker_0, # of connection points: 3
#     Node 1, Type 0, BuildingBlock: BETDAH_clean_linker_0, # of connection points: 3
#     Node 2, Type 0, BuildingBlock: BETDAH_clean_linker_0, # of connection points: 3
#     Node 3, Type 0, BuildingBlock: BETDAH_clean_linker_0, # of connection points: 3
#     Node 4, Type 1, BuildingBlock: KUMBUR_clean_sbu_1, # of connection points: 6
#     Node 5, Type 1, BuildingBlock: KUMBUR_clean_sbu_1, # of connection points: 6
#     Edge 6, Type (0, 1), BuildingBlock: XUDNAN_clean_linker_2, # of connection points: 2
#     Edge 7, Type (0, 1), BuildingBlock: XUDNAN_clean_linker_2, # of connection points: 2
#     Edge 8, Type (0, 1), BuildingBlock: XUDNAN_clean_linker_2, # of connection points: 2
#     Edge 9, Type (0, 1), BuildingBlock: XUDNAN_clean_linker_2, # of connection points: 2
#     Edge 10, Type (0, 1), BuildingBlock: XUDNAN_clean_linker_2, # of connection points: 2
#     Edge 11, Type (0, 1), BuildingBlock: XUDNAN_clean_linker_2, # of connection points: 2
#     Edge 12, Type (0, 1), BuildingBlock: XUDNAN_clean_linker_2, # of connection points: 2
#     Edge 13, Type (0, 1), BuildingBlock: XUDNAN_clean_linker_2, # of connection points: 2
#     Edge 14, Type (0, 1), BuildingBlock: XUDNAN_clean_linker_2, # of connection points: 2
#     Edge 15, Type (0, 1), BuildingBlock: XUDNAN_clean_linker_2, # of connection points: 2
#     Edge 16, Type (0, 1), BuildingBlock: XUDNAN_clean_linker_2, # of connection points: 2
#     Edge 17, Type (0, 1), BuildingBlock: XUDNAN_clean_linker_2, # of connection points: 2
# Relax obj value: 0.049
# Max RMSD: 0.218
# Mean RMSD: 0.157
data_MOF--net-rtl--node1-KUMBUR_clean_sbu_1--node2-BETDAH_clean_linker_0--edge1-XUDNAN_clean_linker_2
_symmetry_space_group_name_H-M    P1
_symmetry_Int_Tables_number       1
_symmetry_cell_setting            triclinic
loop_
_symmetry_equiv_pos_as_xyz
'x, y, z'
_cell_length_a     35.195995
_cell_length_b     35.368067
_cell_length_c     26.969181
_cell_angle_alpha  78.648648
_cell_angle_beta   100.47974
_cell_angle_gamma 91.206212
loop_
_atom_site_label
_atom_site_type_symbol
_atom_site_fract_x
_atom_site_fract_y
_atom_site_fract_z
_atom_type_partial_charge
H0 H 0.13672 0.86914 0.02021 0.0
H1 H 0.24213 0.80363 0.08551 0.0
H2 H 0.21171 0.84222 0.9222 0.0
C3 C 0.16241 0.85498 0.01532 0.0
C4 C 0.17031 0.85715 0.96559 0.0
C5 C 0.18823 0.83609 0.059 0.0
C6 C 0.22176 0.81789 0.05231 0.0
C7 C 0.22965 0.81967 1.00257 0.0
C8 C 0.20425 0.83966 0.95998 0.0
N9 N 0.26441 0.80492 0.9936 0.0
C10 C 0.28367 0.77134 0.02133 0.0
H11 H 0.65755 0.6469 0.67123 0.0
H12 H 0.74334 0.72441 0.61506 0.0
H13 H 0.71994 0.71964 0.76717 0.0
C14 C 0.67991 0.6679 0.67744 0.0
C15 C 0.68672 0.68098 0.72407 0.0
C16 C 0.6998 0.68382 0.63751 0.0
C17 C 0.72779 0.7122 0.64548 0.0
C18 C 0.73547 0.72478 0.69263 0.0
C19 C 0.7146 0.70928 0.7313 0.0
N20 N 0.7633 0.75335 0.7027 0.0
C21 C 0.78554 0.77307 0.66842 0.0
H22 H 0.88692 0.14881 0.09367 0.0
H23 H 0.79554 0.20864 0.13444 0.0
H24 H 0.78825 0.1932 0.9788 0.0
C25 C 0.85947 0.1643 0.08246 0.0
C26 C 0.83978 0.16943 0.03143 0.0
C27 C 0.84358 0.17815 0.11967 0.0
C28 C 0.80786 0.19807 0.10567 0.0
C29 C 0.7879 0.20337 0.05448 0.0
C30 C 0.80377 0.18862 0.01812 0.0
N31 N 0.75136 0.22234 0.03791 0.0
C32 C 0.73704 0.24935 0.06115 0.0
H33 H 0.4049 0.3743 0.48384 0.0
H34 H 0.30459 0.30965 0.51956 0.0
H35 H 0.33722 0.31752 0.37184 0.0
C36 C 0.3805 0.35654 0.47306 0.0
C37 C 0.37405 0.34753 0.42389 0.0
C38 C 0.3553 0.34374 0.50782 0.0
C39 C 0.32435 0.31965 0.49349 0.0
C40 C 0.31799 0.31011 0.44427 0.0
C41 C 0.34249 0.3247 0.40976 0.0
N42 N 0.28673 0.28711 0.42677 0.0
C43 C 0.26372 0.26401 0.45693 0.0
Tb44 Tb 0.05138 0.98388 0.50069 0.0
C45 C 0.95047 0.12391 0.48691 0.0
N46 N 0.98423 0.11257 0.51952 0.0
C47 C 1.00867 0.17664 0.4992 0.0
C48 C 0.94499 0.16176 0.45777 0.0
C49 C 0.01233 0.13903 0.52809 0.0
C50 C 0.97507 0.18793 0.46329 0.0
C51 C 0.88459 0.10868 0.45283 0.0
C52 C 0.92077 0.09778 0.48408 0.0
C53 C 0.87916 0.14614 0.42306 0.0
C54 C 0.90942 0.17252 0.42515 0.0
Tb55 Tb 0.98683 0.0498 0.56333 0.0
N56 N 0.92734 0.06162 0.51264 0.0
C57 C 0.85489 0.08171 0.45303 0.0
C58 C 0.89815 0.03554 0.51433 0.0
C59 C 0.86167 0.04504 0.48409 0.0
H60 H 0.03722 0.13186 0.55818 0.0
H61 H 0.8387 0.02423 0.48512 0.0
H62 H 0.02243 0.89636 0.5443 0.0
H63 H 0.1954 0.04111 0.49896 0.0
H64 H 0.90295 0.00756 0.53926 0.0
H65 H 0.82655 0.08904 0.42985 0.0
H66 H 0.12541 0.0389 0.46828 0.0
H67 H 0.03145 0.19715 0.50549 0.0
H68 H 0.85159 0.15516 0.39873 0.0
H69 H 0.90472 0.20141 0.40229 0.0
H70 H 0.05121 0.83584 0.59939 0.0
H71 H 0.9721 0.21723 0.44145 0.0
H72 H 0.22842 0.98776 0.5653 0.0
N73 N 0.07496 0.9272 0.55237 0.0
C74 C 0.11355 0.92539 0.57075 0.0
C75 C 0.06903 0.86089 0.5919 0.0
C76 C 0.13133 0.89143 0.60199 0.0
C77 C 0.05277 0.89521 0.56087 0.0
C78 C 0.10843 0.85908 0.61296 0.0
N79 N 0.11728 0.98807 0.52254 0.0
C80 C 0.13876 0.01688 0.4999 0.0
C81 C 0.17576 0.9561 0.57275 0.0
C82 C 0.13533 0.95724 0.55621 0.0
C83 C 0.19732 0.98746 0.5535 0.0
C84 C 0.17878 0.01767 0.51616 0.0
H85 H 0.12098 0.83244 0.63691 0.0
H86 H 0.18556 0.86498 0.64476 0.0
H87 H 0.22449 0.92172 0.61937 0.0
O88 O 0.08154 0.96711 0.44738 0.0
O89 O 0.0506 0.96706 0.58415 0.0
O90 O 0.04285 0.02583 0.60417 0.0
O91 O 0.02021 0.96055 0.43979 0.0
O92 O 0.06548 0.04592 0.49423 0.0
O93 O 0.04827 0.06476 0.56498 0.0
O94 O 0.9599 0.02953 0.62718 0.0
O95 O 0.96991 0.03629 0.48636 0.0
O96 O 0.02571 0.03831 0.45483 0.0
O97 O 0.97901 0.08782 0.61162 0.0
O98 O 0.97412 0.98817 0.57647 0.0
O99 O 0.9925 0.96384 0.50953 0.0
C100 C 0.05133 0.98903 0.61842 0.0
C101 C 0.05468 0.91566 0.40877 0.0
C102 C 0.08026 0.87603 0.35701 0.0
C103 C 0.0586 0.84488 0.37732 0.0
C104 C 0.0334 0.88402 0.42861 0.0
C105 C 0.03559 0.84885 0.41312 0.0
C106 C 0.07842 0.91134 0.37335 0.0
C107 C 0.06981 0.06808 0.52898 0.0
C108 C 0.05093 0.95385 0.42217 0.0
C109 C 0.17137 0.89067 0.6203 0.0
C110 C 0.19351 0.92303 0.60596 0.0
C111 C 0.98927 0.04809 0.44932 0.0
C112 C 0.92619 0.07672 0.65443 0.0
C113 C 0.89438 0.09673 0.71871 0.0
C114 C 0.86151 0.10775 0.6804 0.0
C115 C 0.89326 0.08825 0.61692 0.0
C116 C 0.92654 0.08076 0.70527 0.0
C117 C 0.861 0.10333 0.63 0.0
C118 C 0.97205 0.96244 0.5466 0.0
C119 C 0.96136 0.06277 0.64105 0.0
H120 H 0.05967 0.81735 0.36569 0.0
H121 H 0.01466 0.88655 0.45548 0.0
H122 H 0.01904 0.82464 0.42853 0.0
H123 H 0.09455 0.93577 0.35737 0.0
H124 H 0.83654 0.12085 0.68889 0.0
H125 H 0.89255 0.08634 0.57747 0.0
H126 H 0.95209 0.07181 0.73413 0.0
H127 H 0.83577 0.11237 0.60072 0.0
Tb128 Tb 0.48643 0.49038 0.0165 0.0
C129 C 0.62993 0.57589 0.05979 0.0
N130 N 0.61991 0.54201 0.08773 0.0
C131 C 0.68035 0.51359 0.08326 0.0
C132 C 0.6646 0.57931 0.04014 0.0
C133 C 0.64595 0.51192 0.10264 0.0
C134 C 0.68936 0.54717 0.05097 0.0
C135 C 0.61586 0.64393 0.02592 0.0
C136 C 0.60599 0.60777 0.0526 0.0
C137 C 0.64969 0.6472 1.00476 0.0
C138 C 0.67393 0.61491 0.01166 0.0
Tb139 Tb 0.56107 0.5427 0.11338 0.0
N140 N 0.57253 0.60307 0.07124 0.0
C141 C 0.59123 0.67555 0.02111 0.0
C142 C 0.54911 0.634 0.06858 0.0
C143 C 0.55792 0.67064 0.04303 0.0
H144 H 0.64103 0.48673 0.13039 0.0
H145 H 0.53896 0.69499 0.04005 0.0
H146 H 0.40193 0.52177 0.02813 0.0
H147 H 0.53666 0.34653 0.01728 0.0
H148 H 0.52333 0.63014 0.08543 0.0
H149 H 0.59777 0.70386 1.00088 0.0
H150 H 0.5359 0.41749 0.99445 0.0
H151 H 0.70025 0.4892 0.09408 0.0
H152 H 0.65752 0.67459 0.98338 0.0
H153 H 0.70024 0.61797 0.9958 0.0
H154 H 0.34206 0.49402 0.05472 0.0
H155 H 0.7162 0.54852 0.03643 0.0
H156 H 0.48538 0.31283 0.05991 0.0
N157 N 0.4312 0.46757 0.0434 0.0
C158 C 0.42843 0.42871 0.05625 0.0
C159 C 0.36632 0.47536 0.05591 0.0
C160 C 0.39493 0.41152 0.07166 0.0
C161 C 0.40038 0.49102 0.04133 0.0
C162 C 0.36363 0.43545 0.07134 0.0
N163 N 0.4884 0.42432 0.03095 0.0
C164 C 0.51501 0.40331 0.01622 0.0
C165 C 0.45645 0.36574 0.06215 0.0
C166 C 0.45858 0.4063 0.05106 0.0
C167 C 0.48585 0.34407 0.05183 0.0
C168 C 0.51488 0.36298 0.02786 0.0
H169 H 0.33705 0.42337 0.08204 0.0
H170 H 0.36808 0.35734 0.09788 0.0
H171 H 0.42218 0.31717 0.08996 0.0
O172 O 0.46395 0.46778 0.9498 0.0
O173 O 0.47703 0.48292 0.09668 0.0
O174 O 0.53714 0.48775 0.14726 0.0
O175 O 0.45771 0.52868 0.95141 0.0
O176 O 0.54828 0.47351 0.03296 0.0
O177 O 0.57295 0.48161 0.11582 0.0
O178 O 0.54989 0.57219 0.16965 0.0
O179 O 0.53999 0.56659 0.03143 0.0
O180 O 0.53896 0.51536 0.9924 0.0
O181 O 0.60547 0.5463 0.17648 0.0
O182 O 0.50002 0.55464 0.10981 0.0
O183 O 0.46923 0.54745 0.02812 0.0
C184 C 0.50173 0.47406 0.14042 0.0
C185 C 0.42918 0.50904 0.87122 0.0
C186 C 0.4038 0.48794 0.79028 0.0
C187 C 0.38766 0.52507 0.76998 0.0
C188 C 0.41298 0.54586 0.84954 0.0
C189 C 0.39232 0.55369 0.79936 0.0
C190 C 0.42441 0.48002 0.84141 0.0
C191 C 0.57084 0.46243 0.07812 0.0
C192 C 0.4505 0.50148 0.92493 0.0
C193 C 0.39336 0.37116 0.08519 0.0
C194 C 0.4242 0.34829 0.08077 0.0
C195 C 0.54752 0.55132 0.99373 0.0
C196 C 0.58427 0.55127 0.25333 0.0
C197 C 0.60051 0.563 0.3412 0.0
C198 C 0.58011 0.52957 0.3579 0.0
C199 C 0.5642 0.51822 0.27089 0.0
C200 C 0.60276 0.57323 0.28851 0.0
C201 C 0.5624 0.50728 0.323 0.0
C202 C 0.47144 0.5621 0.07014 0.0
C203 C 0.58382 0.56488 0.19808 0.0
H204 H 0.37094 0.53198 0.73138 0.0
H205 H 0.41602 0.56866 0.87149 0.0
H206 H 0.37972 0.58209 0.7832 0.0
H207 H 0.43712 0.45164 0.85765 0.0
H208 H 0.57686 0.52104 0.39769 0.0
H209 H 0.54934 0.50144 0.24411 0.0
H210 H 0.61851 0.59853 0.27444 0.0
H211 H 0.54652 0.48187 0.33623 0.0
H212 H 0.21364 0.22102 0.40522 0.0
H213 H 0.25427 0.24571 0.55685 0.0
H214 H 0.2087 0.19765 0.59255 0.0
H215 H 0.11326 0.20857 0.41588 0.0
H216 H 0.10643 0.16998 0.38048 0.0
H217 H 0.14195 0.20624 0.36752 0.0
H218 H 0.19482 0.15283 0.38501 0.0
H219 H 0.15946 0.11646 0.39825 0.0
H220 H 0.20238 0.11891 0.44543 0.0
H221 H 0.15857 0.14644 0.61085 0.0
H222 H 0.10816 0.09669 0.61085 0.0
H223 H 0.10016 0.10635 0.44644 0.0
C224 C 0.21275 0.21628 0.44593 0.0
C225 C 0.23708 0.23681 0.47858 0.0
C226 C 0.23557 0.2301 0.53152 0.0
C227 C 0.20987 0.20292 0.55195 0.0
C228 C 0.18614 0.18292 0.5187 0.0
C229 C 0.18736 0.18934 0.46678 0.0
C230 C 0.15903 0.16409 0.43922 0.0
C231 C 0.12835 0.1887 0.39837 0.0
C232 C 0.1802 0.13644 0.41559 0.0
C233 C 0.14154 0.14242 0.48364 0.0
C234 C 0.15755 0.15361 0.52918 0.0
C235 C 0.1459 0.13752 0.57538 0.0
C236 C 0.1172 0.10934 0.57497 0.0
C237 C 0.10046 0.09746 0.5287 0.0
C238 C 0.11283 0.1144 0.48252 0.0
H239 H 0.31174 0.72955 0.96293 0.0
H240 H 0.3099 0.73689 0.12087 0.0
H241 H 0.35523 0.6807 0.15103 0.0
H242 H 0.31816 0.62389 0.98236 0.0
H243 H 0.35032 0.62517 0.93715 0.0
H244 H 0.31565 0.66375 0.92861 0.0
H245 H 0.37093 0.71335 0.92732 0.0
H246 H 0.40569 0.67493 0.93597 0.0
H247 H 0.41111 0.70748 0.9804 0.0
H248 H 0.40429 0.62711 0.16302 0.0
H249 H 0.45249 0.5794 0.15695 0.0
H250 H 0.42164 0.60657 0.99043 0.0
C251 C 0.32044 0.71875 1.00386 0.0
C252 C 0.30733 0.73686 0.03988 0.0
C253 C 0.31956 0.72284 0.09302 0.0
C254 C 0.34522 0.69108 0.11031 0.0
C255 C 0.35809 0.67393 0.07375 0.0
C256 C 0.34594 0.68717 0.02161 0.0
C257 C 0.36542 0.66494 0.99022 0.0
C258 C 0.3356 0.64314 0.95767 0.0
C259 C 0.38973 0.69178 0.9565 0.0
C260 C 0.39083 0.63735 0.03278 0.0
C261 C 0.38613 0.64298 0.08065 0.0
C262 C 0.4079 0.62224 0.12576 0.0
C263 C 0.43533 0.59529 0.12186 0.0
C264 C 0.44076 0.58915 0.07319 0.0
C265 C 0.41781 0.61023 0.02817 0.0
H266 H 0.821 0.83612 0.69416 0.0
H267 H 0.80828 0.76394 0.58 0.0
H268 H 0.85467 0.80495 0.5346 0.0
H269 H 0.82837 0.92724 0.60766 0.0
H270 H 0.86355 0.94602 0.65372 0.0
H271 H 0.82885 0.91151 0.67556 0.0
H272 H 0.88466 0.86693 0.73133 0.0
H273 H 0.91946 0.90128 0.70951 0.0
H274 H 0.92216 0.85208 0.70145 0.0
H275 H 0.90415 0.85421 0.50328 0.0
H276 H 0.95072 0.9068 0.48827 0.0
H277 H 0.93023 0.94553 0.6244 0.0
C278 C 0.82787 0.8292 0.65937 0.0
C279 C 0.81125 0.79722 0.64014 0.0
C280 C 0.82083 0.78858 0.59492 0.0
C281 C 0.8471 0.81166 0.56907 0.0
C282 C 0.86334 0.8431 0.58919 0.0
C283 C 0.85392 0.85185 0.63331 0.0
C284 C 0.87554 0.88672 0.64769 0.0
C285 C 0.84739 0.91983 0.64604 0.0
C286 C 0.90202 0.8761 0.70062 0.0
C287 C 0.89877 0.89627 0.60497 0.0
C288 C 0.89145 0.87093 0.57149 0.0
C289 C 0.90997 0.8742 0.52929 0.0
C290 C 0.93648 0.90416 0.52113 0.0
C291 C 0.9443 0.93048 0.55506 0.0
C292 C 0.92502 0.92615 0.59748 0.0
H293 H 0.70253 0.31202 0.99751 0.0
H294 H 0.72606 0.25358 0.15708 0.0
H295 H 0.68714 0.30338 0.17975 0.0
H296 H 0.70488 0.41077 0.02072 0.0
H297 H 0.66613 0.4272 0.96755 0.0
H298 H 0.69771 0.38841 0.9652 0.0
H299 H 0.6382 0.34524 0.94849 0.0
H300 H 0.60641 0.38355 0.95173 0.0
H301 H 0.6053 0.33712 0.9934 0.0
H302 H 0.64311 0.35815 0.18346 0.0
H303 H 0.59827 0.41379 0.16872 0.0
H304 H 0.60418 0.43645 1.00634 0.0
C305 C 0.69988 0.31019 0.03732 0.0
C306 C 0.7173 0.27953 0.07587 0.0
C307 C 0.71302 0.27729 0.12737 0.0
C308 C 0.69099 0.30534 0.14042 0.0
C309 C 0.67365 0.33518 0.10133 0.0
C310 C 0.67805 0.33787 0.05085 0.0
C311 C 0.65548 0.37195 0.0158 0.0
C312 C 0.68268 0.40132 0.99086 0.0
C313 C 0.62452 0.35866 0.97495 0.0
C314 C 0.63731 0.38785 0.05425 0.0
C315 C 0.64821 0.36635 0.1034 0.0
C316 C 0.63456 0.37523 0.14517 0.0
C317 C 0.60914 0.40687 0.13644 0.0
C318 C 0.59749 0.4291 0.08632 0.0
C319 C 0.61208 0.41955 0.0449 0.0
H320 H 0.12079 0.82241 0.09676 0.0
H321 H 0.23938 0.85712 0.13793 0.0
H322 H 0.22539 0.87011 0.21978 0.0
H323 H 0.07714 0.89278 0.14468 0.0
H324 H 0.04052 0.86162 0.16844 0.0
H325 H 0.06054 0.85256 0.11496 0.0
H326 H 0.07987 0.78303 0.16381 0.0
H327 H 0.05952 0.79172 0.21728 0.0
H328 H 0.10909 0.77566 0.22728 0.0
H329 H 0.19626 0.88532 0.29354 0.0
H330 H 0.15632 0.89461 0.3572 0.0
H331 H 0.05764 0.84773 0.2689 0.0
C332 C 0.14395 0.83222 0.12338 0.0
C333 C 0.18124 0.83864 0.11108 0.0
C334 C 0.21077 0.85149 0.14688 0.0
C335 C 0.20299 0.85923 0.19327 0.0
C336 C 0.16564 0.85351 0.20361 0.0
C337 C 0.13678 0.83966 0.17002 0.0
C338 C 0.09895 0.8364 0.18974 0.0
C339 C 0.06744 0.86239 0.15222 0.0
C340 C 0.08611 0.79419 0.20016 0.0
C341 C 0.11079 0.85112 0.23932 0.0
C342 C 0.1493 0.86112 0.24656 0.0
C343 C 0.16622 0.8771 0.28855 0.0
C344 C 0.14331 0.88251 0.32431 0.0
C345 C 0.10405 0.8716 0.31816 0.0
C346 C 0.08774 0.85578 0.27498 0.0
H347 H 0.67799 0.60688 0.77593 0.0
H348 H 0.641 0.72535 0.76106 0.0
H349 H 0.59921 0.70439 0.82556 0.0
H350 H 0.58767 0.56121 0.79438 0.0
H351 H 0.60949 0.521 0.84243 0.0
H352 H 0.63579 0.54488 0.79403 0.0
H353 H 0.69217 0.55709 0.86521 0.0
H354 H 0.66608 0.5333 0.91389 0.0
H355 H 0.68261 0.58182 0.91416 0.0
H356 H 0.56042 0.67082 0.88955 0.0
H357 H 0.53147 0.6274 0.95566 0.0
H358 H 0.59604 0.53071 0.93397 0.0
C359 C 0.66093 0.62824 0.7863 0.0
C360 C 0.66243 0.66771 0.76351 0.0
C361 C 0.6402 0.69503 0.77827 0.0
C362 C 0.61632 0.68337 0.81465 0.0
C363 C 0.61536 0.6443 0.83641 0.0
C364 C 0.63742 0.61714 0.82342 0.0
C365 C 0.63223 0.57722 0.85451 0.0
C366 C 0.61528 0.54944 0.81922 0.0
C367 C 0.67055 0.56144 0.88898 0.0
C368 C 0.60341 0.58617 0.88632 0.0
C369 C 0.59395 0.62503 0.87496 0.0
C370 C 0.56783 0.64039 0.89903 0.0
C371 C 0.55161 0.61555 0.93659 0.0
C372 C 0.56195 0.57593 0.9503 0.0
C373 C 0.58761 0.56093 0.9241 0.0
H374 H 0.83278 0.11828 0.19577 0.0
H375 H 0.90368 0.21809 0.16141 0.0
H376 H 0.94689 0.19783 0.24579 0.0
H377 H 0.84231 0.11367 0.33439 0.0
H378 H 0.84605 0.0617 0.35028 0.0
H379 H 0.81839 0.08546 0.28963 0.0
H380 H 0.85815 0.05089 0.24042 0.0
H381 H 0.88591 0.02612 0.30035 0.0
H382 H 0.91008 0.05413 0.25224 0.0
H383 H 0.98706 0.16176 0.32746 0.0
H384 H 0.01813 0.11562 0.4051 0.0
H385 H 0.9195 0.04075 0.38892 0.0
C386 C 0.85663 0.13647 0.20709 0.0
C387 C 0.8646 0.17021 0.1732 0.0
C388 C 0.89685 0.19266 0.18777 0.0
C389 C 0.92154 0.18125 0.23536 0.0
C390 C 0.91349 0.14726 0.26764 0.0
C391 C 0.88159 0.12538 0.25436 0.0
C392 C 0.88104 0.08862 0.29407 0.0
C393 C 0.84483 0.0873 0.31863 0.0
C394 C 0.88398 0.05285 0.27034 0.0
C395 C 0.91752 0.09327 0.3319 0.0
C396 C 0.93613 0.12703 0.31554 0.0
C397 C 0.97239 0.13566 0.34119 0.0
C398 C 0.98998 0.10922 0.38483 0.0
C399 C 0.97091 0.07507 0.40279 0.0
C400 C 0.93421 0.06712 0.37621 0.0
H401 H 0.37531 0.41602 0.52452 0.0
H402 H 0.34754 0.30269 0.60396 0.0
H403 H 0.35883 0.32604 0.68625 0.0
H404 H 0.4527 0.43495 0.62338 0.0
H405 H 0.44077 0.4856 0.61213 0.0
H406 H 0.43011 0.45967 0.5602 0.0
H407 H 0.35819 0.4811 0.5441 0.0
H408 H 0.36862 0.50716 0.59587 0.0
H409 H 0.33166 0.4711 0.59634 0.0
H410 H 0.37372 0.3632 0.76061 0.0
H411 H 0.38747 0.4107 0.81777 0.0
H412 H 0.408 0.49775 0.68807 0.0
C413 C 0.37203 0.39579 0.55921 0.0
C414 C 0.36087 0.35732 0.55767 0.0
C415 C 0.35587 0.33233 0.60398 0.0
C416 C 0.3625 0.34529 0.65097 0.0
C417 C 0.3741 0.3833 0.65102 0.0
C418 C 0.3787 0.40812 0.60613 0.0
C419 C 0.39092 0.44767 0.61576 0.0
C420 C 0.43101 0.45754 0.60206 0.0
C421 C 0.36053 0.47857 0.58628 0.0
C422 C 0.39227 0.44153 0.67314 0.0
C423 C 0.38266 0.40426 0.69307 0.0
C424 C 0.3814 0.3924 0.74529 0.0
C425 C 0.38952 0.41951 0.77757 0.0
C426 C 0.39865 0.45809 0.7575 0.0
C427 C 0.4006 0.46872 0.70467 0.0
H428 H 0.68915 0.61084 0.61692 0.0
H429 H 0.68547 0.73165 0.54311 0.0
H430 H 0.66241 0.71381 0.45873 0.0
H431 H 0.72136 0.57401 0.51304 0.0
H432 H 0.69245 0.53135 0.52157 0.0
H433 H 0.7107 0.5536 0.57563 0.0
H434 H 0.64103 0.55894 0.5925 0.0
H435 H 0.62255 0.53697 0.53834 0.0
H436 H 0.60415 0.58343 0.54159 0.0
H437 H 0.63413 0.68324 0.38381 0.0
H438 H 0.60676 0.6422 0.32281 0.0
H439 H 0.63292 0.5406 0.44432 0.0
C440 C 0.68381 0.63348 0.58289 0.0
C441 C 0.68921 0.67264 0.58651 0.0
C442 C 0.68203 0.70145 0.54113 0.0
C443 C 0.66873 0.69161 0.49309 0.0
C444 C 0.66318 0.65278 0.49097 0.0
C445 C 0.67094 0.62412 0.53456 0.0
C446 C 0.662 0.58465 0.5218 0.0
C447 C 0.69883 0.55942 0.53371 0.0
C448 C 0.63056 0.56485 0.55025 0.0
C449 C 0.64722 0.59566 0.4644 0.0
C450 C 0.64808 0.63508 0.44742 0.0
C451 C 0.63404 0.65224 0.39646 0.0
C452 C 0.61878 0.62851 0.36191 0.0
C453 C 0.61795 0.58783 0.37813 0.0
C454 C 0.63272 0.57145 0.43027 0.0
H455 H 0.80316 0.13322 0.95509 0.0
H456 H 0.91509 0.17482 0.01752 0.0
H457 H 0.94278 0.15545 0.94828 0.0
H458 H 0.83908 0.05092 0.91155 0.0
H459 H 0.80247 0.05732 0.85426 0.0
H460 H 0.79246 0.07109 0.91152 0.0
H461 H 0.77387 0.14012 0.86004 0.0
H462 H 0.7839 0.12663 0.80273 0.0
H463 H 0.80794 0.16724 0.82514 0.0
H464 H 0.95669 0.13722 0.86772 0.0
H465 H 0.95599 0.12093 0.78281 0.0
H466 H 0.83528 0.08965 0.77418 0.0
C467 C 0.83356 0.13805 0.9544 0.0
C468 C 0.85698 0.15549 0.99179 0.0
C469 C 0.8967 0.16103 0.98972 0.0
C470 C 0.91266 0.15025 0.95044 0.0
C471 C 0.88859 0.1337 0.91374 0.0
C472 C 0.84995 0.1274 0.91558 0.0
C473 C 0.82988 0.11087 0.87015 0.0
C474 C 0.81511 0.07013 0.88795 0.0
C475 C 0.79696 0.13783 0.8376 0.0
C476 C 0.86304 0.1098 0.84172 0.0
C477 C 0.89672 0.1228 0.86765 0.0
C478 C 0.93064 0.12637 0.84747 0.0
C479 C 0.93 0.11679 0.79926 0.0
C480 C 0.89565 0.10374 0.77167 0.0
C481 C 0.86198 0.09973 0.7939 0.0
H482 H 0.35343 0.38522 0.32372 0.0
H483 H 0.45304 0.34388 0.44103 0.0
H484 H 0.4963 0.36875 0.37952 0.0
H485 H 0.39166 0.36431 0.21496 0.0
H486 H 0.36908 0.40694 0.17301 0.0
H487 H 0.34769 0.38363 0.22635 0.0
H488 H 0.34964 0.44941 0.25656 0.0
H489 H 0.37241 0.47162 0.20367 0.0
H490 H 0.39528 0.47313 0.26872 0.0
H491 H 0.52843 0.39817 0.30537 0.0
H492 H 0.54787 0.43388 0.22612 0.0
H493 H 0.42732 0.45846 0.15749 0.0
C494 C 0.38436 0.38117 0.33626 0.0
C495 C 0.39997 0.36245 0.38698 0.0
C496 C 0.44057 0.35824 0.40235 0.0
C497 C 0.46529 0.3721 0.36763 0.0
C498 C 0.44894 0.39035 0.31783 0.0
C499 C 0.40945 0.39524 0.30232 0.0
C500 C 0.39932 0.41689 0.24718 0.0
C501 C 0.37556 0.39136 0.21341 0.0
C502 C 0.3779 0.45502 0.24387 0.0
C503 C 0.43934 0.42393 0.23412 0.0
C504 C 0.46749 0.40795 0.27533 0.0
C505 C 0.50664 0.41092 0.27296 0.0
C506 C 0.51737 0.43142 0.22775 0.0
C507 C 0.48918 0.44938 0.18563 0.0
C508 C 0.44958 0.44491 0.18872 0.0
H509 H 0.14941 0.83937 0.86945 0.0
H510 H 0.13495 0.92717 0.95693 0.0
H511 H 0.09844 0.96789 0.87864 0.0
H512 H 0.16784 0.90367 0.75965 0.0
H513 H 0.14291 0.87588 0.71485 0.0
H514 H 0.16384 0.85213 0.77888 0.0
H515 H 0.09689 0.82309 0.79067 0.0
H516 H 0.07616 0.84746 0.72651 0.0
H517 H 0.0556 0.85485 0.78047 0.0
H518 H 0.06904 1.00153 0.79004 0.0
H519 H 0.04752 0.02565 0.69742 0.0
H520 H 0.08174 0.91669 0.66621 0.0
C521 C 0.13819 0.86698 0.87232 0.0
C522 C 0.14491 0.8799 0.91959 0.0
C523 C 0.12961 0.91622 0.92157 0.0
C524 C 0.109 0.93968 0.87718 0.0
C525 C 0.10375 0.92642 0.83108 0.0
C526 C 0.11765 0.89081 0.82835 0.0
C527 C 0.11028 0.88451 0.77341 0.0
C528 C 0.14852 0.87874 0.7557 0.0
C529 C 0.08311 0.85046 0.76744 0.0
C530 C 0.09075 0.92249 0.74548 0.0
C531 C 0.08707 0.94608 0.77961 0.0
C532 C 0.07146 0.98319 0.76301 0.0
C533 C 0.05945 0.99665 0.71014 0.0
C534 C 0.06313 0.97316 0.67419 0.0
C535 C 0.07858 0.93538 0.69242 0.0
loop_
_geom_bond_atom_site_label_1
_geom_bond_atom_site_label_2
_geom_bond_distance
_geom_bond_site_symmetry_2
_ccdc_geom_bond_type
H0 C3 0.929 . S
H1 C6 0.929 . S
H2 C8 0.930 . S
C3 H0 0.929 . S
C3 C4 1.398 1_554 S
C3 C5 1.396 . S
C4 C3 1.398 1_556 S
C4 C8 1.407 . S
C5 C3 1.396 . S
C5 C6 1.394 . S
C6 H1 0.929 . S
C6 C5 1.394 . S
C6 C7 1.382 . S
C7 C6 1.382 . S
C7 C8 1.392 1_554 S
C7 N9 1.420 . S
C8 H2 0.930 . S
C8 C4 1.407 . S
C8 C7 1.392 1_556 S
N9 C7 1.420 . S
N9 C10 1.244 . S
C10 N9 1.244 . S
H11 C14 0.929 . S
H12 C17 0.929 . S
H13 C19 0.930 . S
C14 H11 0.929 . S
C14 C15 1.398 . S
C14 C16 1.396 . S
C15 C14 1.398 . S
C15 C19 1.407 . S
C16 C14 1.396 . S
C16 C17 1.394 . S
C17 H12 0.929 . S
C17 C16 1.394 . S
C17 C18 1.382 . S
C18 C17 1.382 . S
C18 C19 1.392 . S
C18 N20 1.420 . S
C19 H13 0.930 . S
C19 C15 1.407 . S
C19 C18 1.392 . S
N20 C18 1.420 . S
N20 C21 1.244 . S
C21 N20 1.244 . S
H22 C25 0.929 . S
H23 C28 0.929 . S
H24 C30 0.930 1_556 S
C25 H22 0.929 . S
C25 C26 1.398 . S
C25 C27 1.396 . S
C26 C25 1.398 . S
C26 C30 1.407 . S
C27 C25 1.396 . S
C27 C28 1.394 . S
C28 H23 0.929 . S
C28 C27 1.394 . S
C28 C29 1.382 . S
C29 C28 1.382 . S
C29 C30 1.392 . S
C29 N31 1.420 . S
C30 H24 0.930 1_554 S
C30 C26 1.407 . S
C30 C29 1.392 . S
N31 C29 1.420 . S
N31 C32 1.244 . S
C32 N31 1.244 . S
H33 C36 0.929 . S
H34 C39 0.929 . S
H35 C41 0.930 . S
C36 H33 0.929 . S
C36 C37 1.398 . S
C36 C38 1.396 . S
C37 C36 1.398 . S
C37 C41 1.407 . S
C38 C36 1.396 . S
C38 C39 1.394 . S
C39 H34 0.929 . S
C39 C38 1.394 . S
C39 C40 1.382 . S
C40 C39 1.382 . S
C40 C41 1.392 . S
C40 N42 1.420 . S
C41 H35 0.930 . S
C41 C37 1.407 . S
C41 C40 1.392 . S
N42 C40 1.420 . S
N42 C43 1.244 . S
C43 N42 1.244 . S
Tb44 N73 2.617 . S
Tb44 N79 2.572 . S
Tb44 O88 2.465 . S
Tb44 O89 2.387 . S
Tb44 O91 2.428 . S
Tb44 O92 2.308 1_565 S
Tb44 O96 2.349 1_465 S
Tb44 O99 2.393 1_455 S
Tb44 C108 2.802 . S
C45 N46 1.379 . S
C45 C48 1.416 . S
C45 C52 1.424 . S
N46 C45 1.379 . S
N46 C49 1.334 1_655 S
N46 Tb55 2.617 . S
C47 C49 1.390 . S
C47 C50 1.339 1_455 S
C47 H67 0.930 . S
C48 C45 1.416 . S
C48 C50 1.416 . S
C48 C54 1.448 . S
C49 N46 1.334 1_455 S
C49 C47 1.390 . S
C49 H60 0.930 . S
C50 C47 1.339 1_655 S
C50 C48 1.416 . S
C50 H71 0.930 . S
C51 C52 1.413 . S
C51 C53 1.427 . S
C51 C57 1.416 . S
C52 C45 1.424 . S
C52 C51 1.413 . S
C52 N56 1.361 . S
C53 C51 1.427 . S
C53 C54 1.328 . S
C53 H68 0.929 . S
C54 C48 1.448 . S
C54 C53 1.328 . S
C54 H69 0.930 . S
Tb55 N46 2.617 . S
Tb55 N56 2.572 . S
Tb55 O90 2.349 1_655 S
Tb55 O93 2.393 1_655 S
Tb55 O94 2.465 . S
Tb55 O95 2.387 . S
Tb55 O97 2.428 . S
Tb55 O98 2.308 1_545 S
Tb55 C119 2.802 . S
N56 C52 1.361 . S
N56 Tb55 2.572 . S
N56 C58 1.340 . S
C57 C51 1.416 . S
C57 C59 1.332 . S
C57 H65 0.931 . S
C58 N56 1.340 . S
C58 C59 1.407 . S
C58 H64 0.930 . S
C59 C57 1.332 . S
C59 C58 1.407 . S
C59 H61 0.929 . S
H60 C49 0.930 . S
H61 C59 0.929 . S
H62 C77 0.930 1_655 S
H63 C84 0.929 . S
H64 C58 0.930 . S
H65 C57 0.931 . S
H66 C80 0.930 . S
H67 C47 0.930 . S
H68 C53 0.929 . S
H69 C54 0.930 . S
H70 C75 0.930 1_655 S
H71 C50 0.930 . S
H72 C83 0.931 . S
N73 Tb44 2.617 . S
N73 C74 1.379 . S
N73 C77 1.334 . S
C74 N73 1.379 . S
C74 C76 1.416 . S
C74 C82 1.424 . S
C75 H70 0.930 1_455 S
C75 C77 1.390 . S
C75 C78 1.339 . S
C76 C74 1.416 . S
C76 C78 1.416 . S
C76 C109 1.448 . S
C77 H62 0.930 1_455 S
C77 N73 1.334 . S
C77 C75 1.390 . S
C78 C75 1.339 . S
C78 C76 1.416 . S
C78 H85 0.930 . S
N79 Tb44 2.572 . S
N79 C80 1.340 . S
N79 C82 1.361 . S
C80 H66 0.930 . S
C80 N79 1.340 . S
C80 C84 1.407 . S
C81 C82 1.413 . S
C81 C83 1.416 . S
C81 C110 1.427 . S
C82 C74 1.424 . S
C82 N79 1.361 . S
C82 C81 1.413 . S
C83 H72 0.931 . S
C83 C81 1.416 . S
C83 C84 1.332 . S
C84 H63 0.929 . S
C84 C80 1.407 . S
C84 C83 1.332 . S
H85 C78 0.930 . S
H86 C109 0.930 . S
H87 C110 0.929 . S
O88 Tb44 2.465 . S
O88 C108 1.264 . S
O89 Tb44 2.387 . S
O89 C100 1.264 . S
O90 Tb55 2.349 1_455 S
O90 C100 1.243 1_545 S
O91 Tb44 2.428 . S
O91 C108 1.256 . S
O92 Tb44 2.308 1_545 S
O92 C107 1.266 . S
O93 Tb55 2.393 1_455 S
O93 C107 1.248 . S
O94 Tb55 2.465 . S
O94 C119 1.264 . S
O95 Tb55 2.387 . S
O95 C111 1.264 . S
O96 Tb44 2.349 1_645 S
O96 C111 1.243 . S
O97 Tb55 2.428 . S
O97 C119 1.256 . S
O98 Tb55 2.308 1_565 S
O98 C118 1.266 . S
O99 Tb44 2.393 1_655 S
O99 C118 1.248 . S
C100 O89 1.264 . S
C100 O90 1.243 1_565 S
C101 C104 1.399 . S
C101 C106 1.383 . S
C101 C108 1.496 . S
C102 C103 1.399 . S
C102 C106 1.389 . S
C103 C102 1.399 . S
C103 C105 1.380 . S
C103 H120 0.929 . S
C104 C101 1.399 . S
C104 C105 1.392 . S
C104 H121 0.929 . S
C105 C103 1.380 . S
C105 C104 1.392 . S
C105 H122 0.929 . S
C106 C101 1.383 . S
C106 C102 1.389 . S
C106 H123 0.931 . S
C107 O92 1.266 . S
C107 O93 1.248 . S
C108 Tb44 2.802 . S
C108 O88 1.264 . S
C108 O91 1.256 . S
C108 C101 1.496 . S
C109 C76 1.448 . S
C109 H86 0.930 . S
C109 C110 1.328 . S
C110 C81 1.427 . S
C110 H87 0.929 . S
C110 C109 1.328 . S
C111 O95 1.264 . S
C111 O96 1.243 . S
C112 C115 1.399 . S
C112 C116 1.383 . S
C112 C119 1.496 . S
C113 C114 1.399 . S
C113 C116 1.389 . S
C114 C113 1.399 . S
C114 C117 1.380 . S
C114 H124 0.929 . S
C115 C112 1.399 . S
C115 C117 1.392 . S
C115 H125 0.929 . S
C116 C112 1.383 . S
C116 C113 1.389 . S
C116 H126 0.931 . S
C117 C114 1.380 . S
C117 C115 1.392 . S
C117 H127 0.929 . S
C118 O98 1.266 . S
C118 O99 1.248 . S
C119 Tb55 2.802 . S
C119 O94 1.264 . S
C119 O97 1.256 . S
C119 C112 1.496 . S
H120 C103 0.929 . S
H121 C104 0.929 . S
H122 C105 0.929 . S
H123 C106 0.931 . S
H124 C114 0.929 . S
H125 C115 0.929 . S
H126 C116 0.931 . S
H127 C117 0.929 . S
Tb128 N157 2.620 . S
Tb128 N163 2.573 . S
Tb128 O172 2.454 1_554 S
Tb128 O173 2.399 . S
Tb128 O175 2.417 1_554 S
Tb128 O176 2.310 . S
Tb128 O180 2.343 1_554 S
Tb128 O183 2.397 . S
Tb128 C192 2.790 1_554 S
C129 N130 1.379 . S
C129 C132 1.416 . S
C129 C136 1.424 . S
N130 C129 1.379 . S
N130 C133 1.334 . S
N130 Tb139 2.617 . S
C131 C133 1.390 . S
C131 C134 1.339 . S
C131 H151 0.930 . S
C132 C129 1.416 . S
C132 C134 1.416 . S
C132 C138 1.448 . S
C133 N130 1.334 . S
C133 C131 1.390 . S
C133 H144 0.930 . S
C134 C131 1.339 . S
C134 C132 1.416 . S
C134 H155 0.930 . S
C135 C136 1.413 . S
C135 C137 1.427 . S
C135 C141 1.416 . S
C136 C129 1.424 . S
C136 C135 1.413 . S
C136 N140 1.361 . S
C137 C135 1.427 . S
C137 C138 1.328 . S
C137 H152 0.929 . S
C138 C132 1.448 . S
C138 C137 1.328 . S
C138 H153 0.930 . S
Tb139 N130 2.617 . S
Tb139 N140 2.572 . S
Tb139 O174 2.349 . S
Tb139 O177 2.393 . S
Tb139 O178 2.465 . S
Tb139 O179 2.387 . S
Tb139 O181 2.428 . S
Tb139 O182 2.308 . S
Tb139 C203 2.802 . S
N140 C136 1.361 . S
N140 Tb139 2.572 . S
N140 C142 1.340 . S
C141 C135 1.416 . S
C141 C143 1.332 . S
C141 H149 0.931 . S
C142 N140 1.340 . S
C142 C143 1.407 . S
C142 H148 0.930 . S
C143 C141 1.332 . S
C143 C142 1.407 . S
C143 H145 0.929 . S
H144 C133 0.930 . S
H145 C143 0.929 . S
H146 C161 0.930 . S
H147 C168 0.929 . S
H148 C142 0.930 . S
H149 C141 0.931 . S
H150 C164 0.930 . S
H151 C131 0.930 . S
H152 C137 0.929 . S
H153 C138 0.930 . S
H154 C159 0.930 1_556 S
H155 C134 0.930 . S
H156 C167 0.931 . S
N157 Tb128 2.620 . S
N157 C158 1.379 . S
N157 C161 1.334 1_554 S
C158 N157 1.379 . S
C158 C160 1.416 . S
C158 C166 1.424 . S
C159 H154 0.930 1_554 S
C159 C161 1.391 1_554 S
C159 C162 1.338 . S
C160 C158 1.416 . S
C160 C162 1.416 . S
C160 C193 1.448 . S
C161 H146 0.930 . S
C161 N157 1.334 1_556 S
C161 C159 1.391 1_556 S
C162 C159 1.338 . S
C162 C160 1.416 . S
C162 H169 0.930 . S
N163 Tb128 2.573 . S
N163 C164 1.340 . S
N163 C166 1.361 . S
C164 H150 0.930 . S
C164 N163 1.340 . S
C164 C168 1.407 . S
C165 C166 1.413 . S
C165 C167 1.416 . S
C165 C194 1.427 . S
C166 C158 1.424 . S
C166 N163 1.361 . S
C166 C165 1.413 . S
C167 H156 0.931 . S
C167 C165 1.416 . S
C167 C168 1.332 . S
C168 H147 0.929 . S
C168 C164 1.407 . S
C168 C167 1.332 . S
H169 C162 0.930 . S
H170 C193 0.930 . S
H171 C194 0.929 . S
O172 Tb128 2.454 1_556 S
O172 C192 1.264 . S
O173 Tb128 2.399 . S
O173 C184 1.264 . S
O174 Tb139 2.349 . S
O174 C184 1.243 . S
O175 Tb128 2.417 1_556 S
O175 C192 1.256 . S
O176 Tb128 2.310 . S
O176 C191 1.266 . S
O177 Tb139 2.393 . S
O177 C191 1.248 . S
O178 Tb139 2.465 . S
O178 C203 1.264 . S
O179 Tb139 2.387 . S
O179 C195 1.264 1_554 S
O180 Tb128 2.343 1_556 S
O180 C195 1.243 . S
O181 Tb139 2.428 . S
O181 C203 1.256 . S
O182 Tb139 2.308 . S
O182 C202 1.266 . S
O183 Tb128 2.397 . S
O183 C202 1.248 . S
C184 O173 1.264 . S
C184 O174 1.243 . S
C185 C188 1.399 . S
C185 C190 1.383 . S
C185 C192 1.496 . S
C186 C187 1.399 . S
C186 C190 1.389 . S
C187 C186 1.399 . S
C187 C189 1.380 . S
C187 H204 0.929 . S
C188 C185 1.399 . S
C188 C189 1.392 . S
C188 H205 0.929 . S
C189 C187 1.380 . S
C189 C188 1.392 . S
C189 H206 0.929 . S
C190 C185 1.383 . S
C190 C186 1.389 . S
C190 H207 0.931 . S
C191 O176 1.266 . S
C191 O177 1.248 . S
C192 Tb128 2.790 1_556 S
C192 O172 1.264 . S
C192 O175 1.256 . S
C192 C185 1.496 . S
C193 C160 1.448 . S
C193 H170 0.930 . S
C193 C194 1.328 . S
C194 C165 1.427 . S
C194 H171 0.929 . S
C194 C193 1.328 . S
C195 O179 1.264 1_556 S
C195 O180 1.243 . S
C196 C199 1.399 . S
C196 C200 1.383 . S
C196 C203 1.496 . S
C197 C198 1.399 . S
C197 C200 1.389 . S
C198 C197 1.399 . S
C198 C201 1.380 . S
C198 H208 0.929 . S
C199 C196 1.399 . S
C199 C201 1.392 . S
C199 H209 0.929 . S
C200 C196 1.383 . S
C200 C197 1.389 . S
C200 H210 0.931 . S
C201 C198 1.380 . S
C201 C199 1.392 . S
C201 H211 0.929 . S
C202 O182 1.266 . S
C202 O183 1.248 . S
C203 Tb139 2.802 . S
C203 O178 1.264 . S
C203 O181 1.256 . S
C203 C196 1.496 . S
H204 C187 0.929 . S
H205 C188 0.929 . S
H206 C189 0.929 . S
H207 C190 0.931 . S
H208 C198 0.929 . S
H209 C199 0.929 . S
H210 C200 0.931 . S
H211 C201 0.929 . S
H212 C224 0.930 . S
H213 C226 0.930 . S
H214 C227 0.930 . S
H215 C231 0.959 . S
H216 C231 0.959 . S
H217 C231 0.961 . S
H218 C232 0.960 . S
H219 C232 0.961 . S
H220 C232 0.959 . S
H221 C235 0.929 . S
H222 C236 0.931 . S
H223 C238 0.930 . S
C224 H212 0.930 . S
C224 C225 1.399 . S
C224 C229 1.399 . S
C225 C224 1.399 . S
C225 C226 1.376 . S
C226 H213 0.930 . S
C226 C225 1.376 . S
C226 C227 1.388 . S
C227 H214 0.930 . S
C227 C226 1.388 . S
C227 C228 1.390 . S
C228 C227 1.390 . S
C228 C229 1.394 . S
C228 C234 1.465 . S
C229 C224 1.399 . S
C229 C228 1.394 . S
C229 C230 1.516 . S
C230 C229 1.516 . S
C230 C231 1.502 . S
C230 C232 1.561 . S
C230 C233 1.526 . S
C231 H215 0.959 . S
C231 H216 0.959 . S
C231 H217 0.961 . S
C231 C230 1.502 . S
C232 H218 0.960 . S
C232 H219 0.961 . S
C232 H220 0.959 . S
C232 C230 1.561 . S
C233 C230 1.526 . S
C233 C234 1.396 . S
C233 C238 1.390 . S
C234 C228 1.465 . S
C234 C233 1.396 . S
C234 C235 1.399 . S
C235 H221 0.929 . S
C235 C234 1.399 . S
C235 C236 1.385 . S
C236 H222 0.931 . S
C236 C235 1.385 . S
C236 C237 1.389 . S
C237 C236 1.389 . S
C237 C238 1.387 . S
C238 H223 0.930 . S
C238 C233 1.390 . S
C238 C237 1.387 . S
H239 C251 0.930 1_556 S
H240 C253 0.930 . S
H241 C254 0.930 . S
H242 C258 0.959 . S
H243 C258 0.959 . S
H244 C258 0.961 . S
H245 C259 0.960 . S
H246 C259 0.961 . S
H247 C259 0.959 . S
H248 C262 0.929 . S
H249 C263 0.931 . S
H250 C265 0.930 1_556 S
C251 H239 0.930 1_554 S
C251 C252 1.399 . S
C251 C256 1.399 . S
C252 C251 1.399 . S
C252 C253 1.376 . S
C253 H240 0.930 . S
C253 C252 1.376 . S
C253 C254 1.388 . S
C254 H241 0.930 . S
C254 C253 1.388 . S
C254 C255 1.390 . S
C255 C254 1.390 . S
C255 C256 1.394 . S
C255 C261 1.465 . S
C256 C251 1.399 . S
C256 C255 1.394 . S
C256 C257 1.516 1_554 S
C257 C256 1.516 1_556 S
C257 C258 1.502 . S
C257 C259 1.561 . S
C257 C260 1.526 1_556 S
C258 H242 0.959 . S
C258 H243 0.959 . S
C258 H244 0.961 . S
C258 C257 1.502 . S
C259 H245 0.960 . S
C259 H246 0.961 . S
C259 H247 0.959 . S
C259 C257 1.561 . S
C260 C257 1.526 1_554 S
C260 C261 1.396 . S
C260 C265 1.390 . S
C261 C255 1.465 . S
C261 C260 1.396 . S
C261 C262 1.399 . S
C262 H248 0.929 . S
C262 C261 1.399 . S
C262 C263 1.385 . S
C263 H249 0.931 . S
C263 C262 1.385 . S
C263 C264 1.389 . S
C264 C263 1.389 . S
C264 C265 1.387 . S
C265 H250 0.930 1_554 S
C265 C260 1.390 . S
C265 C264 1.387 . S
H266 C278 0.930 . S
H267 C280 0.930 . S
H268 C281 0.930 . S
H269 C285 0.959 . S
H270 C285 0.959 . S
H271 C285 0.961 . S
H272 C286 0.960 . S
H273 C286 0.961 . S
H274 C286 0.959 . S
H275 C289 0.929 . S
H276 C290 0.931 . S
H277 C292 0.930 . S
C278 H266 0.930 . S
C278 C279 1.399 . S
C278 C283 1.399 . S
C279 C278 1.399 . S
C279 C280 1.376 . S
C280 H267 0.930 . S
C280 C279 1.376 . S
C280 C281 1.388 . S
C281 H268 0.930 . S
C281 C280 1.388 . S
C281 C282 1.390 . S
C282 C281 1.390 . S
C282 C283 1.394 . S
C282 C288 1.465 . S
C283 C278 1.399 . S
C283 C282 1.394 . S
C283 C284 1.516 . S
C284 C283 1.516 . S
C284 C285 1.502 . S
C284 C286 1.561 . S
C284 C287 1.526 . S
C285 H269 0.959 . S
C285 H270 0.959 . S
C285 H271 0.961 . S
C285 C284 1.502 . S
C286 H272 0.960 . S
C286 H273 0.961 . S
C286 H274 0.959 . S
C286 C284 1.561 . S
C287 C284 1.526 . S
C287 C288 1.396 . S
C287 C292 1.390 . S
C288 C282 1.465 . S
C288 C287 1.396 . S
C288 C289 1.399 . S
C289 H275 0.929 . S
C289 C288 1.399 . S
C289 C290 1.385 . S
C290 H276 0.931 . S
C290 C289 1.385 . S
C290 C291 1.389 . S
C291 C290 1.389 . S
C291 C292 1.387 . S
C292 H277 0.930 . S
C292 C287 1.390 . S
C292 C291 1.387 . S
H293 C305 0.930 1_556 S
H294 C307 0.930 . S
H295 C308 0.930 . S
H296 C312 0.959 . S
H297 C312 0.959 . S
H298 C312 0.961 . S
H299 C313 0.960 . S
H300 C313 0.961 . S
H301 C313 0.959 1_554 S
H302 C316 0.929 . S
H303 C317 0.931 . S
H304 C319 0.930 1_556 S
C305 H293 0.930 1_554 S
C305 C306 1.399 . S
C305 C310 1.399 . S
C306 C305 1.399 . S
C306 C307 1.376 . S
C307 H294 0.930 . S
C307 C306 1.376 . S
C307 C308 1.388 . S
C308 H295 0.930 . S
C308 C307 1.388 . S
C308 C309 1.390 . S
C309 C308 1.390 . S
C309 C310 1.394 . S
C309 C315 1.465 . S
C310 C305 1.399 . S
C310 C309 1.394 . S
C310 C311 1.516 1_554 S
C311 C310 1.516 1_556 S
C311 C312 1.502 . S
C311 C313 1.561 . S
C311 C314 1.526 1_556 S
C312 H296 0.959 . S
C312 H297 0.959 . S
C312 H298 0.961 . S
C312 C311 1.502 . S
C313 H299 0.960 . S
C313 H300 0.961 . S
C313 H301 0.959 1_556 S
C313 C311 1.561 . S
C314 C311 1.526 1_554 S
C314 C315 1.396 . S
C314 C319 1.390 . S
C315 C309 1.465 . S
C315 C314 1.396 . S
C315 C316 1.399 . S
C316 H302 0.929 . S
C316 C315 1.399 . S
C316 C317 1.385 . S
C317 H303 0.931 . S
C317 C316 1.385 . S
C317 C318 1.389 . S
C318 C317 1.389 . S
C318 C319 1.387 . S
C319 H304 0.930 1_554 S
C319 C314 1.390 . S
C319 C318 1.387 . S
H320 C332 0.930 . S
H321 C334 0.930 . S
H322 C335 0.930 . S
H323 C339 0.959 . S
H324 C339 0.959 . S
H325 C339 0.961 . S
H326 C340 0.960 . S
H327 C340 0.961 . S
H328 C340 0.959 . S
H329 C343 0.929 . S
H330 C344 0.931 . S
H331 C346 0.930 . S
C332 H320 0.930 . S
C332 C333 1.399 . S
C332 C337 1.399 . S
C333 C332 1.399 . S
C333 C334 1.376 . S
C334 H321 0.930 . S
C334 C333 1.376 . S
C334 C335 1.388 . S
C335 H322 0.930 . S
C335 C334 1.388 . S
C335 C336 1.390 . S
C336 C335 1.390 . S
C336 C337 1.394 . S
C336 C342 1.465 . S
C337 C332 1.399 . S
C337 C336 1.394 . S
C337 C338 1.516 . S
C338 C337 1.516 . S
C338 C339 1.502 . S
C338 C340 1.561 . S
C338 C341 1.526 . S
C339 H323 0.959 . S
C339 H324 0.959 . S
C339 H325 0.961 . S
C339 C338 1.502 . S
C340 H326 0.960 . S
C340 H327 0.961 . S
C340 H328 0.959 . S
C340 C338 1.561 . S
C341 C338 1.526 . S
C341 C342 1.396 . S
C341 C346 1.390 . S
C342 C336 1.465 . S
C342 C341 1.396 . S
C342 C343 1.399 . S
C343 H329 0.929 . S
C343 C342 1.399 . S
C343 C344 1.385 . S
C344 H330 0.931 . S
C344 C343 1.385 . S
C344 C345 1.389 . S
C345 C344 1.389 . S
C345 C346 1.387 . S
C346 H331 0.930 . S
C346 C341 1.390 . S
C346 C345 1.387 . S
H347 C359 0.930 . S
H348 C361 0.930 . S
H349 C362 0.930 . S
H350 C366 0.959 . S
H351 C366 0.959 . S
H352 C366 0.961 . S
H353 C367 0.960 . S
H354 C367 0.961 . S
H355 C367 0.959 . S
H356 C370 0.929 . S
H357 C371 0.931 . S
H358 C373 0.930 . S
C359 H347 0.930 . S
C359 C360 1.399 . S
C359 C364 1.399 . S
C360 C359 1.399 . S
C360 C361 1.376 . S
C361 H348 0.930 . S
C361 C360 1.376 . S
C361 C362 1.388 . S
C362 H349 0.930 . S
C362 C361 1.388 . S
C362 C363 1.390 . S
C363 C362 1.390 . S
C363 C364 1.394 . S
C363 C369 1.465 . S
C364 C359 1.399 . S
C364 C363 1.394 . S
C364 C365 1.516 . S
C365 C364 1.516 . S
C365 C366 1.502 . S
C365 C367 1.561 . S
C365 C368 1.526 . S
C366 H350 0.959 . S
C366 H351 0.959 . S
C366 H352 0.961 . S
C366 C365 1.502 . S
C367 H353 0.960 . S
C367 H354 0.961 . S
C367 H355 0.959 . S
C367 C365 1.561 . S
C368 C365 1.526 . S
C368 C369 1.396 . S
C368 C373 1.390 . S
C369 C363 1.465 . S
C369 C368 1.396 . S
C369 C370 1.399 . S
C370 H356 0.929 . S
C370 C369 1.399 . S
C370 C371 1.385 . S
C371 H357 0.931 . S
C371 C370 1.385 . S
C371 C372 1.389 . S
C372 C371 1.389 . S
C372 C373 1.387 . S
C373 H358 0.930 . S
C373 C368 1.390 . S
C373 C372 1.387 . S
H374 C386 0.930 . S
H375 C388 0.930 . S
H376 C389 0.930 . S
H377 C393 0.959 . S
H378 C393 0.959 1_565 S
H379 C393 0.961 . S
H380 C394 0.960 . S
H381 C394 0.961 . S
H382 C394 0.959 . S
H383 C397 0.929 . S
H384 C398 0.931 . S
H385 C400 0.930 . S
C386 H374 0.930 . S
C386 C387 1.399 . S
C386 C391 1.399 . S
C387 C386 1.399 . S
C387 C388 1.376 . S
C388 H375 0.930 . S
C388 C387 1.376 . S
C388 C389 1.388 . S
C389 H376 0.930 . S
C389 C388 1.388 . S
C389 C390 1.390 . S
C390 C389 1.390 . S
C390 C391 1.394 . S
C390 C396 1.465 . S
C391 C386 1.399 . S
C391 C390 1.394 . S
C391 C392 1.516 . S
C392 C391 1.516 . S
C392 C393 1.502 . S
C392 C394 1.561 . S
C392 C395 1.526 . S
C393 H377 0.959 . S
C393 H378 0.959 1_545 S
C393 H379 0.961 . S
C393 C392 1.502 . S
C394 H380 0.960 . S
C394 H381 0.961 . S
C394 H382 0.959 . S
C394 C392 1.561 . S
C395 C392 1.526 . S
C395 C396 1.396 . S
C395 C400 1.390 . S
C396 C390 1.465 . S
C396 C395 1.396 . S
C396 C397 1.399 . S
C397 H383 0.929 . S
C397 C396 1.399 . S
C397 C398 1.385 . S
C398 H384 0.931 . S
C398 C397 1.385 . S
C398 C399 1.389 . S
C399 C398 1.389 . S
C399 C400 1.387 . S
C400 H385 0.930 . S
C400 C395 1.390 . S
C400 C399 1.387 . S
H401 C413 0.930 . S
H402 C415 0.930 . S
H403 C416 0.930 . S
H404 C420 0.959 . S
H405 C420 0.959 . S
H406 C420 0.961 . S
H407 C421 0.960 . S
H408 C421 0.961 . S
H409 C421 0.959 . S
H410 C424 0.929 . S
H411 C425 0.931 . S
H412 C427 0.930 . S
C413 H401 0.930 . S
C413 C414 1.399 . S
C413 C418 1.399 . S
C414 C413 1.399 . S
C414 C415 1.376 . S
C415 H402 0.930 . S
C415 C414 1.376 . S
C415 C416 1.388 . S
C416 H403 0.930 . S
C416 C415 1.388 . S
C416 C417 1.390 . S
C417 C416 1.390 . S
C417 C418 1.394 . S
C417 C423 1.465 . S
C418 C413 1.399 . S
C418 C417 1.394 . S
C418 C419 1.516 . S
C419 C418 1.516 . S
C419 C420 1.502 . S
C419 C421 1.561 . S
C419 C422 1.526 . S
C420 H404 0.959 . S
C420 H405 0.959 . S
C420 H406 0.961 . S
C420 C419 1.502 . S
C421 H407 0.960 . S
C421 H408 0.961 . S
C421 H409 0.959 . S
C421 C419 1.561 . S
C422 C419 1.526 . S
C422 C423 1.396 . S
C422 C427 1.390 . S
C423 C417 1.465 . S
C423 C422 1.396 . S
C423 C424 1.399 . S
C424 H410 0.929 . S
C424 C423 1.399 . S
C424 C425 1.385 . S
C425 H411 0.931 . S
C425 C424 1.385 . S
C425 C426 1.389 . S
C426 C425 1.389 . S
C426 C427 1.387 . S
C427 H412 0.930 . S
C427 C422 1.390 . S
C427 C426 1.387 . S
H428 C440 0.930 . S
H429 C442 0.930 . S
H430 C443 0.930 . S
H431 C447 0.959 . S
H432 C447 0.959 . S
H433 C447 0.961 . S
H434 C448 0.960 . S
H435 C448 0.961 . S
H436 C448 0.959 . S
H437 C451 0.929 . S
H438 C452 0.931 . S
H439 C454 0.930 . S
C440 H428 0.930 . S
C440 C441 1.399 . S
C440 C445 1.399 . S
C441 C440 1.399 . S
C441 C442 1.376 . S
C442 H429 0.930 . S
C442 C441 1.376 . S
C442 C443 1.388 . S
C443 H430 0.930 . S
C443 C442 1.388 . S
C443 C444 1.390 . S
C444 C443 1.390 . S
C444 C445 1.394 . S
C444 C450 1.465 . S
C445 C440 1.399 . S
C445 C444 1.394 . S
C445 C446 1.516 . S
C446 C445 1.516 . S
C446 C447 1.502 . S
C446 C448 1.561 . S
C446 C449 1.526 . S
C447 H431 0.959 . S
C447 H432 0.959 . S
C447 H433 0.961 . S
C447 C446 1.502 . S
C448 H434 0.960 . S
C448 H435 0.961 . S
C448 H436 0.959 . S
C448 C446 1.561 . S
C449 C446 1.526 . S
C449 C450 1.396 . S
C449 C454 1.390 . S
C450 C444 1.465 . S
C450 C449 1.396 . S
C450 C451 1.399 . S
C451 H437 0.929 . S
C451 C450 1.399 . S
C451 C452 1.385 . S
C452 H438 0.931 . S
C452 C451 1.385 . S
C452 C453 1.389 . S
C453 C452 1.389 . S
C453 C454 1.387 . S
C454 H439 0.930 . S
C454 C449 1.390 . S
C454 C453 1.387 . S
H455 C467 0.930 . S
H456 C469 0.930 1_554 S
H457 C470 0.930 . S
H458 C474 0.959 . S
H459 C474 0.959 . S
H460 C474 0.961 . S
H461 C475 0.960 . S
H462 C475 0.961 . S
H463 C475 0.959 . S
H464 C478 0.929 . S
H465 C479 0.931 . S
H466 C481 0.930 . S
C467 H455 0.930 . S
C467 C468 1.399 . S
C467 C472 1.399 . S
C468 C467 1.399 . S
C468 C469 1.376 . S
C469 H456 0.930 1_556 S
C469 C468 1.376 . S
C469 C470 1.388 . S
C470 H457 0.930 . S
C470 C469 1.388 . S
C470 C471 1.390 . S
C471 C470 1.390 . S
C471 C472 1.394 . S
C471 C477 1.465 . S
C472 C467 1.399 . S
C472 C471 1.394 . S
C472 C473 1.516 . S
C473 C472 1.516 . S
C473 C474 1.502 . S
C473 C475 1.561 . S
C473 C476 1.526 . S
C474 H458 0.959 . S
C474 H459 0.959 . S
C474 H460 0.961 . S
C474 C473 1.502 . S
C475 H461 0.960 . S
C475 H462 0.961 . S
C475 H463 0.959 . S
C475 C473 1.561 . S
C476 C473 1.526 . S
C476 C477 1.396 . S
C476 C481 1.390 . S
C477 C471 1.465 . S
C477 C476 1.396 . S
C477 C478 1.399 . S
C478 H464 0.929 . S
C478 C477 1.399 . S
C478 C479 1.385 . S
C479 H465 0.931 . S
C479 C478 1.385 . S
C479 C480 1.389 . S
C480 C479 1.389 . S
C480 C481 1.387 . S
C481 H466 0.930 . S
C481 C476 1.390 . S
C481 C480 1.387 . S
H482 C494 0.930 . S
H483 C496 0.930 . S
H484 C497 0.930 . S
H485 C501 0.959 . S
H486 C501 0.959 . S
H487 C501 0.961 . S
H488 C502 0.960 . S
H489 C502 0.961 . S
H490 C502 0.959 . S
H491 C505 0.929 . S
H492 C506 0.931 . S
H493 C508 0.930 . S
C494 H482 0.930 . S
C494 C495 1.399 . S
C494 C499 1.399 . S
C495 C494 1.399 . S
C495 C496 1.376 . S
C496 H483 0.930 . S
C496 C495 1.376 . S
C496 C497 1.388 . S
C497 H484 0.930 . S
C497 C496 1.388 . S
C497 C498 1.390 . S
C498 C497 1.390 . S
C498 C499 1.394 . S
C498 C504 1.465 . S
C499 C494 1.399 . S
C499 C498 1.394 . S
C499 C500 1.516 . S
C500 C499 1.516 . S
C500 C501 1.502 . S
C500 C502 1.561 . S
C500 C503 1.526 . S
C501 H485 0.959 . S
C501 H486 0.959 . S
C501 H487 0.961 . S
C501 C500 1.502 . S
C502 H488 0.960 . S
C502 H489 0.961 . S
C502 H490 0.959 . S
C502 C500 1.561 . S
C503 C500 1.526 . S
C503 C504 1.396 . S
C503 C508 1.390 . S
C504 C498 1.465 . S
C504 C503 1.396 . S
C504 C505 1.399 . S
C505 H491 0.929 . S
C505 C504 1.399 . S
C505 C506 1.385 . S
C506 H492 0.931 . S
C506 C505 1.385 . S
C506 C507 1.389 . S
C507 C506 1.389 . S
C507 C508 1.387 . S
C508 H493 0.930 . S
C508 C503 1.390 . S
C508 C507 1.387 . S
H509 C521 0.930 . S
H510 C523 0.930 . S
H511 C524 0.930 . S
H512 C528 0.959 . S
H513 C528 0.959 . S
H514 C528 0.961 . S
H515 C529 0.960 . S
H516 C529 0.961 . S
H517 C529 0.959 . S
H518 C532 0.929 1_545 S
H519 C533 0.931 1_545 S
H520 C535 0.930 . S
C521 H509 0.930 . S
C521 C522 1.399 . S
C521 C526 1.399 . S
C522 C521 1.399 . S
C522 C523 1.376 . S
C523 H510 0.930 . S
C523 C522 1.376 . S
C523 C524 1.388 . S
C524 H511 0.930 . S
C524 C523 1.388 . S
C524 C525 1.390 . S
C525 C524 1.390 . S
C525 C526 1.394 . S
C525 C531 1.465 . S
C526 C521 1.399 . S
C526 C525 1.394 . S
C526 C527 1.516 . S
C527 C526 1.516 . S
C527 C528 1.502 . S
C527 C529 1.561 . S
C527 C530 1.526 . S
C528 H512 0.959 . S
C528 H513 0.959 . S
C528 H514 0.961 . S
C528 C527 1.502 . S
C529 H515 0.960 . S
C529 H516 0.961 . S
C529 H517 0.959 . S
C529 C527 1.561 . S
C530 C527 1.526 . S
C530 C531 1.396 . S
C530 C535 1.390 . S
C531 C525 1.465 . S
C531 C530 1.396 . S
C531 C532 1.399 . S
C532 H518 0.929 1_565 S
C532 C531 1.399 . S
C532 C533 1.385 . S
C533 H519 0.931 1_565 S
C533 C532 1.385 . S
C533 C534 1.389 . S
C534 C533 1.389 . S
C534 C535 1.387 . S
C535 H520 0.930 . S
C535 C530 1.390 . S
C535 C534 1.387 . S
C237 C107 1.643 . S
C225 C43 1.666 . S
C252 C10 1.659 . S
C264 C202 1.657 . S
C279 C21 1.631 . S
C291 C118 1.634 . S
C306 C32 1.607 . S
C318 C191 1.596 . S
C345 C102 1.475 . S
C333 C5 1.620 . S
C372 C195 1.698 . S
C360 C15 1.706 . S
C387 C27 1.627 . S
C399 C111 1.642 . S
C414 C38 1.604 . S
C426 C186 1.413 . S
C453 C197 1.452 . S
C441 C16 1.550 . S
C480 C113 1.321 . S
C468 C26 1.538 1_556 S
C507 C184 1.630 . S
C495 C37 1.606 . S
C522 C4 1.568 . S
C534 C100 1.580 . S
