# Generated by pormake.
# Topology pyr, (3,6)-cn, num edge types: 1
# Building blocks:
#     Node 0, Type 0, BuildingBlock: PAMTOO_clean_linker_0, # of connection points: 3
#     Node 1, Type 0, BuildingBlock: PAMTOO_clean_linker_0, # of connection points: 3
#     Node 2, Type 0, BuildingBlock: PAMTOO_clean_linker_0, # of connection points: 3
#     Node 3, Type 0, BuildingBlock: PAMTOO_clean_linker_0, # of connection points: 3
#     Node 4, Type 0, BuildingBlock: PAMTOO_clean_linker_0, # of connection points: 3
#     Node 5, Type 0, BuildingBlock: PAMTOO_clean_linker_0, # of connection points: 3
#     Node 6, Type 0, BuildingBlock: PAMTOO_clean_linker_0, # of connection points: 3
#     Node 7, Type 0, BuildingBlock: PAMTOO_clean_linker_0, # of connection points: 3
#     Node 8, Type 1, BuildingBlock: GEDQOX_clean_sbu_0, # of connection points: 6
#     Node 9, Type 1, BuildingBlock: GEDQOX_clean_sbu_0, # of connection points: 6
#     Node 10, Type 1, BuildingBlock: GEDQOX_clean_sbu_0, # of connection points: 6
#     Node 11, Type 1, BuildingBlock: GEDQOX_clean_sbu_0, # of connection points: 6
#     Edge 12, Type (0, 1), BuildingBlock: XIVTED_clean_linker_0, # of connection points: 2
#     Edge 13, Type (0, 1), BuildingBlock: XIVTED_clean_linker_0, # of connection points: 2
#     Edge 14, Type (0, 1), BuildingBlock: XIVTED_clean_linker_0, # of connection points: 2
#     Edge 15, Type (0, 1), BuildingBlock: XIVTED_clean_linker_0, # of connection points: 2
#     Edge 16, Type (0, 1), BuildingBlock: XIVTED_clean_linker_0, # of connection points: 2
#     Edge 17, Type (0, 1), BuildingBlock: XIVTED_clean_linker_0, # of connection points: 2
#     Edge 18, Type (0, 1), BuildingBlock: XIVTED_clean_linker_0, # of connection points: 2
#     Edge 19, Type (0, 1), BuildingBlock: XIVTED_clean_linker_0, # of connection points: 2
#     Edge 20, Type (0, 1), BuildingBlock: XIVTED_clean_linker_0, # of connection points: 2
#     Edge 21, Type (0, 1), BuildingBlock: XIVTED_clean_linker_0, # of connection points: 2
#     Edge 22, Type (0, 1), BuildingBlock: XIVTED_clean_linker_0, # of connection points: 2
#     Edge 23, Type (0, 1), BuildingBlock: XIVTED_clean_linker_0, # of connection points: 2
#     Edge 24, Type (0, 1), BuildingBlock: XIVTED_clean_linker_0, # of connection points: 2
#     Edge 25, Type (0, 1), BuildingBlock: XIVTED_clean_linker_0, # of connection points: 2
#     Edge 26, Type (0, 1), BuildingBlock: XIVTED_clean_linker_0, # of connection points: 2
#     Edge 27, Type (0, 1), BuildingBlock: XIVTED_clean_linker_0, # of connection points: 2
#     Edge 28, Type (0, 1), BuildingBlock: XIVTED_clean_linker_0, # of connection points: 2
#     Edge 29, Type (0, 1), BuildingBlock: XIVTED_clean_linker_0, # of connection points: 2
#     Edge 30, Type (0, 1), BuildingBlock: XIVTED_clean_linker_0, # of connection points: 2
#     Edge 31, Type (0, 1), BuildingBlock: XIVTED_clean_linker_0, # of connection points: 2
#     Edge 32, Type (0, 1), BuildingBlock: XIVTED_clean_linker_0, # of connection points: 2
#     Edge 33, Type (0, 1), BuildingBlock: XIVTED_clean_linker_0, # of connection points: 2
#     Edge 34, Type (0, 1), BuildingBlock: XIVTED_clean_linker_0, # of connection points: 2
#     Edge 35, Type (0, 1), BuildingBlock: XIVTED_clean_linker_0, # of connection points: 2
# Relax obj value: 0.170
# Max RMSD: 0.233
# Mean RMSD: 0.151
data_MOF--net-pyr--node1-GEDQOX_clean_sbu_0--node2-PAMTOO_clean_linker_0--edge1-XIVTED_clean_linker_0
_symmetry_space_group_name_H-M    P1
_symmetry_Int_Tables_number       1
_symmetry_cell_setting            triclinic
loop_
_symmetry_equiv_pos_as_xyz
'x, y, z'
_cell_length_a     39.089435
_cell_length_b     39.906405
_cell_length_c     35.584593
_cell_angle_alpha  89.111439
_cell_angle_beta   94.283422
_cell_angle_gamma 92.29325
loop_
_atom_site_label
_atom_site_type_symbol
_atom_site_fract_x
_atom_site_fract_y
_atom_site_fract_z
_atom_type_partial_charge
H0 H 0.17682 0.229 0.22379 0.0
H1 H 0.25517 0.1552 0.22975 0.0
H2 H 0.25589 0.23357 0.14478 0.0
H3 H 0.28067 0.16003 0.12147 0.0
C4 C 0.29695 0.15516 0.14778 0.0
O5 O 0.29121 0.18117 0.17359 0.0
H6 H 0.28662 0.13119 0.15949 0.0
C7 C 0.19926 0.21888 0.21301 0.0
C8 C 0.2136 0.23584 0.18143 0.0
C9 C 0.21311 0.18946 0.23141 0.0
C10 C 0.24325 0.17669 0.21622 0.0
C11 C 0.25928 0.19198 0.18464 0.0
C12 C 0.24384 0.22152 0.1681 0.0
H13 H 0.36075 0.84743 0.80136 0.0
H14 H 0.36899 0.78253 0.7064 0.0
H15 H 0.45855 0.81175 0.77603 0.0
H16 H 0.46904 0.80791 0.69553 0.0
C17 C 0.44862 0.78868 0.68713 0.0
O18 O 0.4344 0.77558 0.71875 0.0
H19 H 0.4287 0.801 0.66827 0.0
C20 C 0.37557 0.83224 0.78412 0.0
C21 C 0.41124 0.83158 0.79222 0.0
C22 C 0.35959 0.81507 0.75273 0.0
C23 C 0.37993 0.79548 0.73124 0.0
C24 C 0.41528 0.79395 0.74008 0.0
C25 C 0.43094 0.81218 0.77025 0.0
H26 H 0.8449 0.3478 0.84553 0.0
H27 H 0.74609 0.37803 0.7972 0.0
H28 H 0.82389 0.45231 0.82944 0.0
H29 H 0.74793 0.47629 0.83644 0.0
C30 C 0.73734 0.45364 0.82116 0.0
O31 O 0.76183 0.44178 0.79935 0.0
H32 H 0.72969 0.4346 0.84254 0.0
C33 C 0.8274 0.36712 0.83615 0.0
C34 C 0.83842 0.40092 0.83931 0.0
C35 C 0.79403 0.35825 0.82108 0.0
C36 C 0.7722 0.38384 0.80818 0.0
C37 C 0.78317 0.41749 0.81123 0.0
C38 C 0.81609 0.42604 0.82668 0.0
H39 H 0.87082 0.82319 0.38502 0.0
H40 H 0.86552 0.7619 0.28635 0.0
H41 H 0.92639 0.85325 0.28889 0.0
H42 H 0.8947 0.83077 0.20159 0.0
C43 C 0.88391 0.80852 0.21646 0.0
O44 O 0.90486 0.80187 0.24847 0.0
H45 H 0.85752 0.81451 0.22346 0.0
C46 C 0.87812 0.8189 0.35682 0.0
C47 C 0.90045 0.84219 0.33984 0.0
C48 C 0.8656 0.78963 0.3381 0.0
C49 C 0.87492 0.78415 0.30145 0.0
C50 C 0.89596 0.80763 0.28365 0.0
C51 C 0.9089 0.83631 0.30278 0.0
H52 H 0.86452 0.94253 0.83272 0.0
H53 H 0.8645 0.86474 0.9191 0.0
H54 H 0.94302 0.86851 0.8404 0.0
H55 H 0.92621 0.79829 0.86215 0.0
C56 C 0.91946 0.8009 0.89172 0.0
O57 O 0.92213 0.83567 0.90068 0.0
H58 H 0.89198 0.79264 0.8918 0.0
C59 C 0.87562 0.92055 0.846 0.0
C60 C 0.9059 0.90773 0.83097 0.0
C61 C 0.85949 0.90587 0.87807 0.0
C62 C 0.87531 0.87653 0.89485 0.0
C63 C 0.9052 0.86215 0.88118 0.0
C64 C 0.91977 0.87846 0.84964 0.0
H65 H 0.77453 0.22786 0.26307 0.0
H66 H 0.67268 0.26574 0.25395 0.0
H67 H 0.74648 0.30434 0.3384 0.0
H68 H 0.67725 0.27225 0.35744 0.0
C69 C 0.66268 0.29054 0.33918 0.0
O70 O 0.68285 0.30458 0.31235 0.0
H71 H 0.64037 0.27659 0.32477 0.0
C72 C 0.75618 0.24501 0.27227 0.0
C73 C 0.76526 0.2662 0.30308 0.0
C74 C 0.72308 0.24508 0.25376 0.0
C75 C 0.69875 0.26627 0.2667 0.0
C76 C 0.70727 0.28692 0.29761 0.0
C77 C 0.74052 0.2876 0.31497 0.0
H78 H 0.31495 0.698 0.16779 0.0
H79 H 0.33524 0.60461 0.22693 0.0
H80 H 0.41088 0.68461 0.23293 0.0
H81 H 0.43414 0.61899 0.21542 0.0
C82 C 0.4206 0.6041 0.23694 0.0
O83 O 0.39661 0.62299 0.25243 0.0
H84 H 0.40768 0.58174 0.22299 0.0
C85 C 0.33145 0.68253 0.18597 0.0
C86 C 0.36372 0.69571 0.19999 0.0
C87 C 0.32064 0.64951 0.19534 0.0
C88 C 0.34287 0.62983 0.21844 0.0
C89 C 0.37526 0.64249 0.23129 0.0
C90 C 0.3855 0.67535 0.22264 0.0
H91 H 0.23278 0.24995 0.75882 0.0
H92 H 0.33289 0.26283 0.81731 0.0
H93 H 0.30987 0.17685 0.74839 0.0
H94 H 0.38199 0.18821 0.75061 0.0
C95 C 0.38336 0.21048 0.76914 0.0
O96 O 0.35666 0.2079 0.7926 0.0
H97 H 0.40799 0.20954 0.78677 0.0
C98 C 0.25834 0.24106 0.76583 0.0
C99 C 0.26852 0.21134 0.74978 0.0
C100 C 0.28149 0.25992 0.79013 0.0
C101 C 0.31486 0.24882 0.79833 0.0
C102 C 0.32479 0.21888 0.78342 0.0
C103 C 0.3017 0.20011 0.75951 0.0
Nd104 Nd 0.08162 1.01923 0.52871 0.0
Nd105 Nd 0.04393 0.0786 0.53831 0.0
C106 C 0.10311 0.95755 0.52474 0.0
C107 C 0.11912 0.93582 0.55413 0.0
C108 C 0.12017 0.90114 0.54921 0.0
C109 C 0.1375 0.8812 0.57662 0.0
C110 C 0.15428 0.89577 0.6092 0.0
C111 C 0.1521 0.93053 0.61425 0.0
C112 C 0.13447 0.95022 0.58721 0.0
C113 C 0.11815 0.06548 0.57367 0.0
C114 C 1.02922 1.01907 0.60151 0.0
C115 C 1.02187 0.13984 0.54542 0.0
C116 C 1.00683 0.16566 0.52016 0.0
C117 C 1.01706 0.17057 0.48342 0.0
C118 C 0.99851 0.19128 0.45794 0.0
C119 C 0.96914 0.20697 0.46861 0.0
C120 C 0.96013 0.20308 0.50606 0.0
C121 C 0.97888 0.18274 0.53155 0.0
C122 C 1.00847 0.03201 0.49295 0.0
C123 C 0.09532 0.07825 0.4645 0.0
O124 O 0.07098 0.96405 0.52811 0.0
O125 O 0.12163 0.98424 0.51645 0.0
O126 O 0.13151 0.04754 0.54907 0.0
O127 O 0.0868 0.05769 0.57561 0.0
O128 O 0.04599 1.00096 0.57802 0.0
O129 O 1.0283 0.05194 0.59483 0.0
O130 O 0.05423 0.13361 0.54289 0.0
O131 O 1.00257 0.11267 0.54871 0.0
O132 O 0.99454 0.04851 0.5184 0.0
O133 O 0.03951 0.04078 0.49126 0.0
O134 O 0.07857 0.09663 0.48785 0.0
O135 O 0.09655 0.04544 0.47173 0.0
H136 H 0.10811 0.8896 0.52396 0.0
H137 H 0.13812 0.85449 0.572 0.0
H138 H 0.16515 0.94299 0.63836 0.0
H139 H 0.13371 0.97699 0.59163 0.0
H140 H 0.0385 0.15744 0.47396 0.0
H141 H 1.00656 0.19411 0.42956 0.0
H142 H 0.9374 0.21413 0.51531 0.0
H143 H 0.97044 0.17898 0.55969 0.0
Nd144 Nd 0.58204 1.01606 0.04547 0.0
Nd145 Nd 0.58134 0.05199 0.99068 0.0
C146 C 0.58094 0.96493 0.09386 0.0
C147 C 0.55394 0.94124 0.10642 0.0
C148 C 0.54569 0.91147 0.08659 0.0
C149 C 0.51945 0.88957 0.09743 0.0
C150 C 0.50094 0.8968 0.12849 0.0
C151 C 0.50944 0.92634 0.14867 0.0
C152 C 0.53573 0.94834 0.13778 0.0
C153 C 0.52699 0.06009 0.05634 0.0
C154 C 0.53307 0.99074 0.97518 0.0
C155 C 0.5824 0.10068 0.93923 0.0
C156 C 0.60886 0.11923 0.91926 0.0
C157 C 0.63884 0.13222 0.93882 0.0
C158 C 0.66322 0.15069 0.91968 0.0
C159 C 0.65834 0.15618 0.88051 0.0
C160 C 0.62878 0.14212 0.86085 0.0
C161 C 0.60419 0.1239 0.88013 0.0
C162 C 0.63674 1.00803 0.98052 0.0
C163 C 0.62709 0.07919 0.06238 0.0
O164 O 0.58858 0.96231 0.05904 0.0
O165 O 0.57974 0.99609 0.10393 0.0
O166 O 0.55218 0.053 0.08051 0.0
O167 O 0.53276 0.04595 0.02519 0.0
O168 O 0.55485 0.97996 1.00178 0.0
O169 O 0.53325 0.02285 0.96847 0.0
O170 O 0.58208 0.10594 0.97526 0.0
O171 O 0.57745 0.06915 0.93087 0.0
O172 O 0.61126 1.01438 0.95653 0.0
O173 O 0.63085 0.0227 1.01128 0.0
O174 O 0.60505 0.08895 0.03538 0.0
O175 O 0.62856 0.04709 0.06901 0.0
H176 H 0.55945 0.90504 0.06255 0.0
H177 H 0.51406 0.86664 0.08182 0.0
H178 H 0.49558 0.93262 0.17268 0.0
H179 H 0.5416 0.97099 0.15377 0.0
H180 H 0.64323 0.12864 0.96902 0.0
H181 H 0.6853 0.16162 0.93591 0.0
H182 H 0.62445 0.14548 0.83064 0.0
H183 H 0.58136 0.11369 0.86454 0.0
Nd184 Nd 0.52657 0.51024 0.54055 0.0
Nd185 Nd 0.59751 0.54276 0.54248 0.0
C186 C 0.46138 0.48943 0.53848 0.0
C187 C 0.44351 0.46625 0.56358 0.0
C188 C 0.41395 0.4478 0.55025 0.0
C189 C 0.39939 0.42302 0.5731 0.0
C190 C 0.41433 0.41628 0.60956 0.0
C191 C 0.44342 0.43563 0.62302 0.0
C192 C 0.45784 0.46031 0.60027 0.0
C193 C 0.56859 0.4943 0.60343 0.0
C194 C 0.53815 0.58609 0.56928 0.0
C195 C 0.66317 0.5619 0.55205 0.0
C196 C 0.6873 0.58117 0.52957 0.0
C197 C 0.68522 0.57893 0.49011 0.0
C198 C 0.70598 0.6 0.46889 0.0
C199 C 0.72871 0.62395 0.48678 0.0
C200 C 0.73122 0.62559 0.52633 0.0
C201 C 0.71072 0.6043 0.54753 0.0
C202 C 0.55726 0.55957 0.47883 0.0
C203 C 0.58387 0.46873 0.50593 0.0
O204 O 0.47282 0.51785 0.55334 0.0
O205 O 0.48391 0.47579 0.51881 0.0
O206 O 0.54692 0.47301 0.58688 0.0
O207 O 0.56616 0.52261 0.58823 0.0
O208 O 0.51788 0.56648 0.54709 0.0
O209 O 0.56995 0.57793 0.57884 0.0
O210 O 0.65259 0.5323 0.53974 0.0
O211 O 0.63848 0.57897 0.56403 0.0
O212 O 0.58096 0.57947 0.49445 0.0
O213 O 0.5579 0.53119 0.49441 0.0
O214 O 0.60559 0.48739 0.5278 0.0
O215 O 0.55136 0.47628 0.50068 0.0
H216 H 0.40269 0.45196 0.52189 0.0
H217 H 0.37682 0.40878 0.562 0.0
H218 H 0.45606 0.43077 0.65058 0.0
H219 H 0.48089 0.47406 0.61098 0.0
H220 H 0.66692 0.56156 0.47562 0.0
H221 H 0.70329 0.59845 0.43844 0.0
H222 H 0.74877 0.64363 0.54082 0.0
H223 H 0.71249 0.60651 0.57794 0.0
Nd224 Nd 0.04235 0.51422 0.0587 0.0
Nd225 Nd 0.10222 0.53056 0.01532 0.0
C226 C 0.97968 0.5063 0.0811 0.0
C227 C 0.95347 0.53103 0.08675 0.0
C228 C 0.9427 0.55325 0.05756 0.0
C229 C 0.92417 0.58123 0.06526 0.0
C230 C 0.91623 0.58764 0.10227 0.0
C231 C 0.92451 0.5639 0.1308 0.0
C232 C 0.94293 0.53582 0.12306 0.0
C233 C 0.09417 0.54963 0.09798 0.0
C234 C 0.04316 0.58832 1.0081 0.0
C235 C 0.16353 0.53566 0.98932 0.0
C236 C 0.18017 0.50813 0.97182 0.0
C237 C 0.2139 0.51124 0.96102 0.0
C238 C 0.2281 0.48452 0.94309 0.0
C239 C 0.20863 0.45448 0.93576 0.0
C240 C 0.17486 0.4518 0.94688 0.0
C241 C 0.16093 0.47819 0.96484 0.0
C242 C 0.05104 0.4957 0.97485 0.0
C243 C 0.10205 0.45744 0.06824 0.0
O244 O 0.98699 0.50133 0.04633 0.0
O245 O 1.00708 0.50857 0.10452 0.0
O246 O 0.07763 0.5243 0.11235 0.0
O247 O 0.08312 0.55564 0.06463 0.0
O248 O 1.02479 0.56449 0.0255 0.0
O249 O 0.07624 0.58291 1.00432 0.0
O250 O 0.15908 0.53151 0.02523 0.0
O251 O 0.13587 0.54556 0.97011 0.0
O252 O 0.06947 0.5197 0.96083 0.0
O253 O 0.06093 0.48936 1.00861 0.0
O254 O 0.12 0.48096 0.04987 0.0
O255 O 0.0691 0.46278 0.0725 0.0
H256 H 0.95018 0.55019 0.02916 0.0
H257 H 0.91751 0.59873 0.04257 0.0
H258 H 0.91892 0.56816 0.15965 0.0
H259 H 0.95088 0.51902 0.146 0.0
H260 H 0.22908 0.53422 0.96621 0.0
H261 H 0.25427 0.48732 0.93515 0.0
H262 H 0.15871 0.42954 0.94098 0.0
H263 H 0.1347 0.47541 0.97274 0.0
H264 H 0.17376 0.21806 0.28604 0.0
H265 H 0.13396 0.04874 0.4108 0.0
H266 H 0.21255 0.12213 0.26051 0.0
H267 H 0.09783 0.14545 0.43691 0.0
H268 H 0.16186 0.07427 0.35671 0.0
H269 H 0.14616 0.19214 0.33946 0.0
C270 C 0.17657 0.19147 0.29086 0.0
C271 C 0.19612 0.17296 0.2667 0.0
C272 C 0.14788 0.09012 0.37409 0.0
C273 C 0.1634 0.14202 0.33124 0.0
C274 C 0.13162 0.07536 0.40549 0.0
C275 C 0.1128 0.09436 0.42977 0.0
C276 C 0.14594 0.12483 0.36549 0.0
C277 C 0.11161 0.12906 0.41996 0.0
C278 C 0.16061 0.17652 0.32229 0.0
C279 C 0.19842 0.1384 0.27721 0.0
N280 N 0.12755 0.14273 0.38931 0.0
N281 N 0.18254 0.1245 0.30782 0.0
H282 H 0.45502 0.88382 0.7793 0.0
H283 H 0.51346 0.92554 0.99062 0.0
H284 H 0.40604 0.8312 0.86868 0.0
H285 H 0.50479 1.00258 0.90434 0.0
H286 H 0.48168 0.88603 0.94709 0.0
H287 H 0.48254 0.92317 0.82549 0.0
C288 C 0.45031 0.88055 0.80878 0.0
C289 C 0.42845 0.85441 0.82047 0.0
C290 C 0.48655 0.9117 0.938 0.0
C291 C 0.45984 0.89887 0.8732 0.0
C292 C 0.50468 0.93415 0.96266 0.0
C293 C 0.5117 0.9673 0.95095 0.0
C294 C 0.47635 0.92238 0.90125 0.0
C295 C 0.49978 0.97728 0.91451 0.0
C296 C 0.46576 0.90302 0.83498 0.0
C297 C 0.42283 0.85116 0.85883 0.0
N298 N 0.4831 0.95477 0.89075 0.0
N299 N 0.43875 0.87305 0.88408 0.0
H300 H 0.72098 0.51433 0.78939 0.0
H301 H 0.57424 0.43573 0.64422 0.0
H302 H 0.6862 0.41057 0.79266 0.0
H303 H 0.61151 0.53893 0.64171 0.0
H304 H 0.61133 0.42661 0.70193 0.0
H305 H 0.67645 0.52496 0.73915 0.0
C306 C 0.70336 0.494 0.78 0.0
C307 C 0.70669 0.46171 0.79538 0.0
C308 C 0.61121 0.45128 0.68882 0.0
C309 C 0.65654 0.47322 0.73725 0.0
C310 C 0.59017 0.45642 0.65592 0.0
C311 C 0.59004 0.48803 0.63828 0.0
C312 C 0.63217 0.47799 0.70392 0.0
C313 C 0.61096 0.51412 0.65447 0.0
C314 C 0.67814 0.49994 0.75118 0.0
C315 C 0.68391 0.43592 0.78175 0.0
N316 N 0.63126 0.50848 0.6863 0.0
N317 N 0.65987 0.44217 0.75323 0.0
H318 H 0.92347 0.79554 0.15835 0.0
H319 H 0.86753 0.60163 0.15121 0.0
H320 H 0.84175 0.75228 0.22045 0.0
H321 H 0.93725 0.6493 0.07644 0.0
H322 H 0.85428 0.65698 0.17367 0.0
H323 H 0.92568 0.74283 0.12452 0.0
C324 C 0.90558 0.77505 0.16428 0.0
C325 C 0.88218 0.77819 0.19185 0.0
C326 C 0.87208 0.65533 0.15194 0.0
C327 C 0.88507 0.71759 0.15418 0.0
C328 C 0.87971 0.62374 0.1392 0.0
C329 C 0.90366 0.62078 0.11207 0.0
C330 C 0.88884 0.68412 0.13775 0.0
C331 C 0.91841 0.65031 0.09716 0.0
C332 C 0.90687 0.74495 0.14511 0.0
C333 C 0.85998 0.75078 0.19916 0.0
N334 N 0.91108 0.68067 0.11053 0.0
N335 N 0.86215 0.72149 0.18066 0.0
H336 H 0.3592 0.13771 0.19153 0.0
H337 H 0.46507 0.07829 1.01356 0.0
H338 H 0.32198 0.15119 0.07585 0.0
H339 H 0.50925 0.07856 0.12786 0.0
H340 H 0.41298 0.1032 0.03546 0.0
H341 H 0.41295 0.11605 0.1698 0.0
C342 C 0.36232 0.13723 0.16157 0.0
C343 C 0.33512 0.14814 0.13608 0.0
C344 C 0.43398 0.09788 0.05597 0.0
C345 C 0.39818 0.1207 0.10994 0.0
C346 C 0.46421 0.08337 0.04326 0.0
C347 C 0.49294 0.07569 0.06834 0.0
C348 C 0.43105 0.1051 0.09465 0.0
C349 C 0.48868 0.08357 0.10671 0.0
C350 C 0.39334 0.12419 0.14895 0.0
C351 C 0.34167 0.14456 0.09737 0.0
N352 N 0.45914 0.09731 0.11827 0.0
N353 N 0.37156 0.13146 0.08594 0.0
H354 H 0.31262 0.7714 0.71471 0.0
H355 H 0.16546 0.90334 0.68609 0.0
H356 H 0.32227 0.8715 0.76034 0.0
H357 H 0.19398 0.84252 0.59479 0.0
H358 H 0.21065 0.87839 0.72727 0.0
H359 H 0.25672 0.78511 0.68406 0.0
C360 C 0.30311 0.79609 0.71872 0.0
C361 C 0.32295 0.82049 0.73974 0.0
C362 C 0.20642 0.87019 0.69836 0.0
C363 C 0.25823 0.83548 0.70609 0.0
C364 C 0.18086 0.88455 0.67467 0.0
C365 C 0.1764 0.87584 0.63641 0.0
C366 C 0.22713 0.84634 0.68404 0.0
C367 C 0.19633 0.85022 0.62391 0.0
C368 C 0.27104 0.80367 0.70144 0.0
C369 C 0.30825 0.85157 0.7449 0.0
N370 N 0.22109 0.83659 0.64758 0.0
N371 N 0.27691 0.85818 0.72804 0.0
H372 H 0.86899 0.37616 0.90498 0.0
H373 H 1.02967 0.50604 0.90166 0.0
H374 H 0.88524 0.44707 0.81467 0.0
H375 H 1.00841 0.44492 0.99892 0.0
H376 H 0.98057 0.47911 0.86649 0.0
H377 H 0.92377 0.39544 0.93684 0.0
C378 C 0.88436 0.39547 0.89166 0.0
C379 C 0.87263 0.41024 0.8573 0.0
C380 C 0.98665 0.47141 0.89546 0.0
C381 C 0.93486 0.43251 0.89356 0.0
C382 C 1.0147 0.48675 0.91553 0.0
C383 C 1.02281 0.47778 0.95324 0.0
C384 C 0.96649 0.44697 0.91329 0.0
C385 C 1.00276 0.45259 0.96987 0.0
C386 C 0.91545 0.40659 0.90993 0.0
C387 C 0.89322 0.43538 0.84138 0.0
N388 N 0.97527 0.43812 0.94979 0.0
N389 N 0.9233 0.44581 0.85973 0.0
H390 H 0.86721 0.72089 0.33621 0.0
H391 H 0.73618 0.69163 0.49587 0.0
H392 H 0.81408 0.80089 0.38422 0.0
H393 H 0.7657 0.61168 0.42626 0.0
H394 H 0.76824 0.73181 0.45817 0.0
H395 H 0.83291 0.68016 0.37088 0.0
C396 C 0.84812 0.72993 0.3537 0.0
C397 C 0.84371 0.76447 0.35742 0.0
C398 C 0.76768 0.70549 0.45106 0.0
C399 C 0.8049 0.71793 0.39777 0.0
C400 C 0.74964 0.68254 0.47276 0.0
C401 C 0.74847 0.6483 0.46425 0.0
C402 C 0.785 0.69413 0.42082 0.0
C403 C 0.76587 0.63791 0.43361 0.0
C404 C 0.82869 0.70664 0.37365 0.0
C405 C 0.81892 0.77461 0.38103 0.0
N406 N 0.78361 0.66074 0.41309 0.0
N407 N 0.80062 0.75148 0.40046 0.0
H408 H 0.14518 0.25806 0.18025 0.0
H409 H 0.16984 0.43567 0.06496 0.0
H410 H 0.24224 0.29083 0.13959 0.0
H411 H 0.07456 0.40231 0.10887 0.0
H412 H 0.19631 0.38406 0.09062 0.0
H413 H 0.12 0.30946 0.15436 0.0
C414 C 0.1618 0.27578 0.16633 0.0
C415 C 0.19692 0.26855 0.16336 0.0
C416 C 0.16959 0.38781 0.09478 0.0
C417 C 0.16636 0.33005 0.1316 0.0
C418 C 0.15416 0.41776 0.07992 0.0
C419 C 0.11925 0.42463 0.08417 0.0
C420 C 0.15056 0.36326 0.11467 0.0
C421 C 0.10129 0.3992 0.10428 0.0
C422 C 0.14686 0.30566 0.15099 0.0
C423 C 0.21533 0.29379 0.14322 0.0
N424 N 0.11683 0.37045 0.11837 0.0
N425 N 0.20016 0.32265 0.12864 0.0
H426 H 0.80911 0.30973 0.87461 0.0
H427 H 0.64361 0.20208 0.82397 0.0
H428 H 0.74864 0.32566 0.76957 0.0
H429 H 0.72855 0.16238 0.89314 0.0
H430 H 0.68231 0.2457 0.80081 0.0
H431 H 0.78164 0.25441 0.87994 0.0
C432 C 0.79066 0.30144 0.85214 0.0
C433 C 0.78095 0.32278 0.82177 0.0
C434 C 0.6926 0.22702 0.82049 0.0
C435 C 0.74854 0.25958 0.82853 0.0
C436 C 0.67053 0.20196 0.83366 0.0
C437 C 0.68265 0.17884 0.86119 0.0
C438 C 0.72682 0.22935 0.83545 0.0
C439 C 0.71781 0.18031 0.87287 0.0
C440 C 0.77484 0.26977 0.85536 0.0
C441 C 0.75628 0.31055 0.79404 0.0
N442 N 0.73853 0.20559 0.86052 0.0
N443 N 0.74043 0.27999 0.79845 0.0
H444 H 0.91923 0.90521 0.31278 0.0
H445 H 0.95332 0.99233 0.50952 0.0
H446 H 0.91706 0.84712 0.41636 0.0
H447 H 1.02345 1.01243 0.42318 0.0
H448 H 0.92592 0.94655 0.47123 0.0
H449 H 0.94531 0.95251 0.34902 0.0
C450 C 0.92417 0.90215 0.34294 0.0
C451 C 0.9156 0.87178 0.3613 0.0
C452 C 0.94716 0.96123 0.4607 0.0
C453 C 0.94407 0.92645 0.40278 0.0
C454 C 0.96262 0.98732 0.48231 0.0
C455 C 0.9906 1.00593 0.46935 0.0
C456 C 0.95921 0.95453 0.42555 0.0
C457 C 1.00196 0.99843 0.43408 0.0
C458 C 0.93882 0.92931 0.36352 0.0
C459 C 0.92209 0.87002 0.40075 0.0
N460 N 0.98601 0.97337 0.41313 0.0
N461 N 0.9356 0.89705 0.42016 0.0
H462 H 0.51423 0.76654 0.69462 0.0
H463 H 0.47389 0.611 0.55643 0.0
H464 H 0.41568 0.74654 0.63501 0.0
H465 H 0.57254 0.63176 0.61618 0.0
H466 H 0.45257 0.66161 0.58293 0.0
H467 H 0.53671 0.71827 0.66417 0.0
C468 C 0.49753 0.75213 0.67469 0.0
C469 C 0.46335 0.76071 0.66663 0.0
C470 C 0.4789 0.65512 0.59016 0.0
C471 C 0.48845 0.70522 0.6323 0.0
C472 C 0.4911 0.62622 0.57504 0.0
C473 C 0.52502 0.61705 0.5842 0.0
C474 C 0.50078 0.67498 0.61465 0.0
C475 C 0.54617 0.63778 0.6084 0.0
C476 C 0.51025 0.72456 0.65743 0.0
C477 C 0.44238 0.74092 0.64136 0.0
N478 N 0.53367 0.6657 0.62284 0.0
N479 N 0.45527 0.71405 0.62504 0.0
H480 H 0.90564 0.97516 0.80281 0.0
H481 H 1.02721 0.95171 0.62749 0.0
H482 H 0.948 0.88078 0.77759 0.0
H483 H 0.9889 0.04709 0.65519 0.0
H484 H 0.99833 0.92582 0.68078 0.0
H485 H 0.93413 1.00106 0.74954 0.0
C486 C 0.92058 0.9594 0.7864 0.0
C487 C 0.92357 0.9249 0.79647 0.0
C488 C 0.99609 0.95245 0.67544 0.0
C489 C 0.95786 0.95591 0.73296 0.0
C490 C 1.01285 0.96753 0.64451 0.0
C491 C 1.01124 1.00229 0.63557 0.0
C492 C 0.97672 0.97163 0.69884 0.0
C493 C 0.99158 0.02045 0.65995 0.0
C494 C 0.93732 0.97464 0.75552 0.0
C495 C 0.94447 0.90726 0.77275 0.0
N496 N 0.97549 1.0052 0.68965 0.0
N497 N 0.96027 0.92262 0.74295 0.0
H498 H 0.6859 0.2583 0.18727 0.0
H499 H 0.67238 0.06676 0.12303 0.0
H500 H 0.73728 0.17856 0.249 0.0
H501 H 0.62587 0.14759 0.05831 0.0
H502 H 0.69963 0.10774 0.16728 0.0
H503 H 0.66643 0.21857 0.13786 0.0
C504 C 0.69316 0.23243 0.19035 0.0
C505 C 0.71313 0.22171 0.22237 0.0
C506 C 0.68369 0.11654 0.14323 0.0
C507 C 0.69099 0.17605 0.16589 0.0
C508 C 0.66817 0.09315 0.11792 0.0
C509 C 0.6466 0.10376 0.0871 0.0
C510 C 0.67748 0.15079 0.13778 0.0
C511 C 0.64213 0.13828 0.08182 0.0
C512 C 0.68218 0.20978 0.16206 0.0
C513 C 0.72218 0.188 0.22466 0.0
N514 N 0.6572 0.16052 0.10707 0.0
N515 N 0.71083 0.16632 0.19694 0.0
H516 H 0.42142 0.54521 0.27739 0.0
H517 H 0.56186 0.61565 0.43433 0.0
H518 H 0.47505 0.64114 0.26857 0.0
H519 H 0.51192 0.51746 0.43959 0.0
H520 H 0.5322 0.62469 0.37218 0.0
H521 H 0.45714 0.53303 0.33501 0.0
C522 C 0.44132 0.56332 0.28726 0.0
C523 C 0.4459 0.5939 0.26814 0.0
C524 C 0.52782 0.60112 0.38688 0.0
C525 C 0.48596 0.58083 0.33438 0.0
C526 C 0.54461 0.59605 0.42235 0.0
C527 C 0.53919 0.56583 0.44193 0.0
C528 C 0.5054 0.57581 0.37113 0.0
C529 C 0.51672 0.54114 0.4253 0.0
C530 C 0.46151 0.55654 0.32021 0.0
C531 C 0.47131 0.61704 0.28238 0.0
N532 N 0.50057 0.54671 0.39084 0.0
N533 N 0.49032 0.61011 0.31484 0.0
H534 H 0.31391 0.32205 0.79363 0.0
H535 H 0.19825 0.38716 0.94924 0.0
H536 H 0.22497 0.26635 0.82935 0.0
H537 H 0.25089 0.45663 0.87689 0.0
H538 H 0.21546 0.34087 0.91201 0.0
H539 H 0.2978 0.37047 0.82945 0.0
C540 C 0.2909 0.32016 0.80885 0.0
C541 C 0.27064 0.2903 0.80859 0.0
C542 C 0.22323 0.36626 0.9043 0.0
C543 C 0.25262 0.34498 0.84995 0.0
C544 C 0.21337 0.39278 0.92548 0.0
C545 C 0.22256 0.42605 0.91584 0.0
C546 C 0.243 0.3728 0.87356 0.0
C547 C 0.24327 0.43147 0.88549 0.0
C548 C 0.28175 0.34771 0.82916 0.0
C549 C 0.24108 0.28903 0.82862 0.0
N550 N 0.25278 0.40509 0.86534 0.0
N551 N 0.23315 0.31587 0.84884 0.0
H552 H 0.80447 0.94107 0.84087 0.0
H553 H 0.6976 0.98584 0.0231 0.0
H554 H 0.83674 0.90704 0.95279 0.0
H555 H 0.65625 0.99532 0.90823 0.0
H556 H 0.74971 0.96162 1.00003 0.0
H557 H 0.75365 0.96474 0.86579 0.0
C558 C 0.8015 0.9385 0.87077 0.0
C559 C 0.82656 0.92127 0.89397 0.0
C560 C 0.72934 0.96902 0.97968 0.0
C561 C 0.76568 0.94985 0.924 0.0
C562 C 0.69911 0.98317 0.99305 0.0
C563 C 0.67111 0.99328 0.96814 0.0
C564 C 0.73306 0.96489 0.94052 0.0
C565 C 0.67618 0.98835 0.92932 0.0
C566 C 0.77173 0.95218 0.88518 0.0
C567 C 0.81909 0.91936 0.93274 0.0
N568 N 0.70572 0.97512 0.91719 0.0
N569 N 0.79025 0.93331 0.94608 0.0
H570 H 0.82799 0.25306 0.27631 0.0
H571 H 0.93082 0.26227 0.47812 0.0
H572 H 0.78108 0.27453 0.37915 0.0
H573 H 0.95349 0.19087 0.39421 0.0
H574 H 0.88431 0.28258 0.43508 0.0
H575 H 0.88229 0.24469 0.31353 0.0
C576 C 0.82894 0.25619 0.30653 0.0
C577 C 0.79948 0.26427 0.32444 0.0
C578 C 0.89992 0.26281 0.42604 0.0
C579 C 0.86197 0.25599 0.36674 0.0
C580 C 0.92636 0.25106 0.45059 0.0
C581 C 0.94574 0.22421 0.44026 0.0
C582 C 0.89314 0.24806 0.39063 0.0
C583 C 0.93941 0.21159 0.40358 0.0
C584 C 0.86006 0.25169 0.32761 0.0
C585 C 0.8029 0.26891 0.36369 0.0
N586 N 0.91342 0.22342 0.38021 0.0
N587 N 0.83349 0.26466 0.38345 0.0
H588 H 0.30299 0.58446 0.17545 0.0
H589 H 0.11897 0.61265 0.0839 0.0
H590 H 0.25984 0.6821 0.1827 0.0
H591 H 0.13962 0.52406 0.15148 0.0
H592 H 0.17363 0.6385 0.10973 0.0
H593 H 0.24607 0.56107 0.15587 0.0
C594 C 0.28166 0.60103 0.1733 0.0
C595 C 0.28638 0.63538 0.18131 0.0
C596 C 0.16589 0.61357 0.11912 0.0
C597 C 0.22148 0.60869 0.15747 0.0
C598 C 0.13494 0.59885 0.10445 0.0
C599 C 0.12504 0.56636 0.11585 0.0
C600 C 0.1873 0.59513 0.14431 0.0
C601 C 0.14643 0.5493 0.14233 0.0
C602 C 0.24924 0.58758 0.16195 0.0
C603 C 0.25771 0.65563 0.17646 0.0
N604 N 0.17699 0.56372 0.15531 0.0
N605 N 0.22644 0.642 0.16455 0.0
H606 H 0.40036 0.27453 0.7928 0.0
H607 H 0.39119 0.35381 0.58556 0.0
H608 H 0.36493 0.21894 0.69364 0.0
H609 H 0.40911 0.41303 0.68616 0.0
H610 H 0.37807 0.3049 0.62461 0.0
H611 H 0.40133 0.32621 0.75455 0.0
C612 C 0.3929 0.27335 0.7629 0.0
C613 C 0.38334 0.24257 0.74603 0.0
C614 C 0.38451 0.32867 0.63815 0.0
C615 C 0.38416 0.30121 0.70218 0.0
C616 C 0.39176 0.35674 0.61581 0.0
C617 C 0.40166 0.3876 0.63257 0.0
C618 C 0.38746 0.33134 0.67758 0.0
C619 C 0.40237 0.38961 0.67202 0.0
C620 C 0.39325 0.30275 0.74113 0.0
C621 C 0.37314 0.2422 0.70743 0.0
N622 N 0.39578 0.3618 0.69318 0.0
N623 N 0.37415 0.27104 0.68669 0.0
H624 H 0.90008 0.75668 0.94998 0.0
H625 H 0.06995 0.64161 0.9644 0.0
H626 H 0.98848 0.78084 0.88849 0.0
H627 H 0.97716 0.61294 0.0163 0.0
H628 H 0.04284 0.6933 0.94013 0.0
H629 H 0.92922 0.70748 0.97797 0.0
C630 C 0.92604 0.75251 0.94298 0.0
C631 C 0.9415 0.77463 0.9169 0.0
C632 C 1.02821 0.67587 0.95687 0.0
C633 C 0.97586 0.71551 0.9491 0.0
C634 C 0.0439 0.64586 0.97101 0.0
C635 C 1.02642 0.62158 0.99297 0.0
C636 C 0.99417 0.68305 0.96441 0.0
C637 C 0.99235 0.62995 0.99974 0.0
C638 C 0.94271 0.72366 0.95883 0.0
C639 C 0.97514 0.76586 0.90882 0.0
N640 N 0.97781 0.65928 0.98588 0.0
N641 N 0.9907 0.73764 0.92445 0.0
H642 H 0.35905 0.72704 0.13082 0.0
H643 H 0.48834 0.87678 0.20026 0.0
H644 H 0.39572 0.74262 0.24687 0.0
H645 H 0.45198 0.86196 0.08393 0.0
H646 H 0.44776 0.83268 0.21884 0.0
H647 H 0.38588 0.78112 0.11412 0.0
C648 C 0.37224 0.74213 0.15287 0.0
C649 C 0.37563 0.73018 0.19017 0.0
C650 C 0.44839 0.83928 0.18926 0.0
C651 C 0.40674 0.79172 0.17128 0.0
C652 C 0.47144 0.86462 0.17866 0.0
C653 C 0.47387 0.87275 0.14044 0.0
C654 C 0.42773 0.82183 0.16144 0.0
C655 C 0.4515 0.85594 0.11366 0.0
C656 C 0.38772 0.77289 0.14331 0.0
C657 C 0.39315 0.75063 0.21762 0.0
N658 N 0.4296 0.83103 0.12463 0.0
N659 N 0.40835 0.78023 0.20756 0.0
H660 H 0.28439 0.18318 0.68424 0.0
H661 H 0.09665 0.10078 0.63272 0.0
H662 H 0.19935 0.19606 0.75264 0.0
H663 H 0.18581 0.08298 0.57247 0.0
H664 H 0.13214 0.13848 0.67504 0.0
H665 H 0.24696 0.14925 0.64089 0.0
C666 C 0.25781 0.17874 0.69023 0.0
C667 C 0.24511 0.19215 0.7224 0.0
C668 C 0.14386 0.12632 0.65252 0.0
C669 C 0.20179 0.15342 0.67248 0.0
C670 C 0.12366 0.10485 0.62843 0.0
C671 C 0.13844 0.08865 0.59928 0.0
C672 C 0.17896 0.13163 0.64718 0.0
C673 C 0.17344 0.09483 0.59474 0.0
C674 C 0.23636 0.15946 0.66534 0.0
C675 C 0.21019 0.18626 0.72814 0.0
N676 N 0.19247 0.11576 0.61842 0.0
N677 N 0.18975 0.16716 0.70352 0.0
H678 H 0.59839 0.31564 0.33997 0.0
H679 H 0.64991 0.44748 0.50429 0.0
H680 H 0.70069 0.32646 0.39361 0.0
H681 H 0.54625 0.42715 0.45718 0.0
H682 H 0.66974 0.40416 0.46384 0.0
H683 H 0.57952 0.3582 0.38173 0.0
C684 C 0.61684 0.32708 0.36062 0.0
C685 C 0.651 0.31747 0.36375 0.0
C686 C 0.64265 0.40913 0.46255 0.0
C687 C 0.62979 0.36617 0.41159 0.0
C688 C 0.63129 0.43378 0.48571 0.0
C689 C 0.59636 0.44102 0.48413 0.0
C690 C 0.61889 0.39176 0.43758 0.0
C691 C 0.57343 0.42253 0.4594 0.0
C692 C 0.60611 0.3513 0.38451 0.0
C693 C 0.67405 0.33319 0.39066 0.0
N694 N 0.58511 0.39892 0.43706 0.0
N695 N 0.66303 0.35677 0.41367 0.0
loop_
_geom_bond_atom_site_label_1
_geom_bond_atom_site_label_2
_geom_bond_distance
_geom_bond_site_symmetry_2
_ccdc_geom_bond_type
H0 C7 0.929 . S
H1 C10 0.930 . S
H2 C12 0.929 . S
H3 C4 0.969 . S
C4 H3 0.969 . S
C4 O5 1.550 . S
C4 H6 0.973 . S
O5 C4 1.550 . S
O5 C11 1.412 . S
H6 C4 0.973 . S
C7 H0 0.929 . S
C7 C8 1.400 . S
C7 C9 1.364 . S
C8 C7 1.400 . S
C8 C12 1.377 . S
C9 C7 1.364 . S
C9 C10 1.374 . S
C10 H1 0.930 . S
C10 C9 1.374 . S
C10 C11 1.383 . S
C11 O5 1.412 . S
C11 C10 1.383 . S
C11 C12 1.394 . S
C12 H2 0.929 . S
C12 C8 1.377 . S
C12 C11 1.394 . S
H13 C20 0.929 . S
H14 C23 0.930 . S
H15 C25 0.929 . S
H16 C17 0.969 . S
C17 H16 0.969 . S
C17 O18 1.550 . S
C17 H19 0.973 . S
O18 C17 1.550 . S
O18 C24 1.412 . S
H19 C17 0.973 . S
C20 H13 0.929 . S
C20 C21 1.400 . S
C20 C22 1.364 . S
C21 C20 1.400 . S
C21 C25 1.377 . S
C22 C20 1.364 . S
C22 C23 1.374 . S
C23 H14 0.930 . S
C23 C22 1.374 . S
C23 C24 1.383 . S
C24 O18 1.412 . S
C24 C23 1.383 . S
C24 C25 1.394 . S
C25 H15 0.929 . S
C25 C21 1.377 . S
C25 C24 1.394 . S
H26 C33 0.929 . S
H27 C36 0.930 . S
H28 C38 0.929 . S
H29 C30 0.969 . S
C30 H29 0.969 . S
C30 O31 1.550 . S
C30 H32 0.973 . S
O31 C30 1.550 . S
O31 C37 1.412 . S
H32 C30 0.973 . S
C33 H26 0.929 . S
C33 C34 1.400 . S
C33 C35 1.364 . S
C34 C33 1.400 . S
C34 C38 1.377 . S
C35 C33 1.364 . S
C35 C36 1.374 . S
C36 H27 0.930 . S
C36 C35 1.374 . S
C36 C37 1.383 . S
C37 O31 1.412 . S
C37 C36 1.383 . S
C37 C38 1.394 . S
C38 H28 0.929 . S
C38 C34 1.377 . S
C38 C37 1.394 . S
H39 C46 0.929 . S
H40 C49 0.930 . S
H41 C51 0.929 . S
H42 C43 0.969 . S
C43 H42 0.969 . S
C43 O44 1.550 . S
C43 H45 0.973 . S
O44 C43 1.550 . S
O44 C50 1.412 . S
H45 C43 0.973 . S
C46 H39 0.929 . S
C46 C47 1.400 . S
C46 C48 1.364 . S
C47 C46 1.400 . S
C47 C51 1.377 . S
C48 C46 1.364 . S
C48 C49 1.374 . S
C49 H40 0.930 . S
C49 C48 1.374 . S
C49 C50 1.383 . S
C50 O44 1.412 . S
C50 C49 1.383 . S
C50 C51 1.394 . S
C51 H41 0.929 . S
C51 C47 1.377 . S
C51 C50 1.394 . S
H52 C59 0.929 . S
H53 C62 0.930 . S
H54 C64 0.929 . S
H55 C56 0.969 . S
C56 H55 0.969 . S
C56 O57 1.550 . S
C56 H58 0.973 . S
O57 C56 1.550 . S
O57 C63 1.412 . S
H58 C56 0.973 . S
C59 H52 0.929 . S
C59 C60 1.400 . S
C59 C61 1.364 . S
C60 C59 1.400 . S
C60 C64 1.377 . S
C61 C59 1.364 . S
C61 C62 1.374 . S
C62 H53 0.930 . S
C62 C61 1.374 . S
C62 C63 1.383 . S
C63 O57 1.412 . S
C63 C62 1.383 . S
C63 C64 1.394 . S
C64 H54 0.929 . S
C64 C60 1.377 . S
C64 C63 1.394 . S
H65 C72 0.929 . S
H66 C75 0.930 . S
H67 C77 0.929 . S
H68 C69 0.969 . S
C69 H68 0.969 . S
C69 O70 1.550 . S
C69 H71 0.973 . S
O70 C69 1.550 . S
O70 C76 1.412 . S
H71 C69 0.973 . S
C72 H65 0.929 . S
C72 C73 1.400 . S
C72 C74 1.364 . S
C73 C72 1.400 . S
C73 C77 1.377 . S
C74 C72 1.364 . S
C74 C75 1.374 . S
C75 H66 0.930 . S
C75 C74 1.374 . S
C75 C76 1.383 . S
C76 O70 1.412 . S
C76 C75 1.383 . S
C76 C77 1.394 . S
C77 H67 0.929 . S
C77 C73 1.377 . S
C77 C76 1.394 . S
H78 C85 0.929 . S
H79 C88 0.930 . S
H80 C90 0.929 . S
H81 C82 0.969 . S
C82 H81 0.969 . S
C82 O83 1.550 . S
C82 H84 0.973 . S
O83 C82 1.550 . S
O83 C89 1.412 . S
H84 C82 0.973 . S
C85 H78 0.929 . S
C85 C86 1.400 . S
C85 C87 1.364 . S
C86 C85 1.400 . S
C86 C90 1.377 . S
C87 C85 1.364 . S
C87 C88 1.374 . S
C88 H79 0.930 . S
C88 C87 1.374 . S
C88 C89 1.383 . S
C89 O83 1.412 . S
C89 C88 1.383 . S
C89 C90 1.394 . S
C90 H80 0.929 . S
C90 C86 1.377 . S
C90 C89 1.394 . S
H91 C98 0.929 . S
H92 C101 0.930 . S
H93 C103 0.929 . S
H94 C95 0.969 . S
C95 H94 0.969 . S
C95 O96 1.550 . S
C95 H97 0.973 . S
O96 C95 1.550 . S
O96 C102 1.412 . S
H97 C95 0.973 . S
C98 H91 0.929 . S
C98 C99 1.400 . S
C98 C100 1.364 . S
C99 C98 1.400 . S
C99 C103 1.377 . S
C100 C98 1.364 . S
C100 C101 1.374 . S
C101 H92 0.930 . S
C101 C100 1.374 . S
C101 C102 1.383 . S
C102 O96 1.412 . S
C102 C101 1.383 . S
C102 C103 1.394 . S
C103 H93 0.929 . S
C103 C99 1.377 . S
C103 C102 1.394 . S
Nd104 C106 2.829 1_545 S
Nd104 O124 2.490 1_545 S
Nd104 O125 2.488 1_545 S
Nd104 O126 2.495 . S
Nd104 O127 2.691 . S
Nd104 O128 2.409 1_545 S
Nd104 O133 2.412 1_545 S
Nd104 O135 2.430 . S
Nd105 C115 2.836 . S
Nd105 O127 2.414 1_655 S
Nd105 O129 2.424 . S
Nd105 O130 2.500 . S
Nd105 O131 2.492 . S
Nd105 O132 2.487 1_545 S
Nd105 O133 2.682 1_645 S
Nd105 O134 2.410 1_655 S
C106 Nd104 2.829 1_565 S
C106 C107 1.498 . S
C106 O124 1.258 . S
C106 O125 1.239 . S
C107 C106 1.498 . S
C107 C108 1.366 . S
C107 C112 1.407 . S
C108 C107 1.366 . S
C108 C109 1.392 . S
C108 H136 0.930 . S
C109 C108 1.392 . S
C109 C110 1.398 . S
C109 H137 0.929 . S
C110 C109 1.398 . S
C110 C111 1.352 . S
C111 C110 1.352 . S
C111 C112 1.384 . S
C111 H138 0.930 . S
C112 C107 1.407 . S
C112 C111 1.384 . S
C112 H139 0.929 . S
C113 O126 1.241 . S
C113 O127 1.273 . S
C114 O128 1.251 . S
C114 O129 1.268 1_465 S
C115 Nd105 2.836 . S
C115 C116 1.498 . S
C115 O130 1.258 . S
C115 O131 1.239 . S
C116 C115 1.498 . S
C116 C117 1.366 . S
C116 C121 1.407 . S
C117 C116 1.366 . S
C117 C118 1.392 . S
C117 H140 0.930 . S
C118 C117 1.392 . S
C118 C119 1.398 . S
C118 H141 0.929 . S
C119 C118 1.398 . S
C119 C120 1.352 . S
C120 C119 1.352 . S
C120 C121 1.384 . S
C120 H142 0.930 . S
C121 C116 1.407 . S
C121 C120 1.384 . S
C121 H143 0.929 . S
C122 O132 1.241 . S
C122 O133 1.273 1_655 S
C123 O134 1.251 . S
C123 O135 1.268 . S
O124 Nd104 2.490 1_565 S
O124 C106 1.258 . S
O125 Nd104 2.488 1_565 S
O125 C106 1.239 . S
O126 Nd104 2.495 . S
O126 C113 1.241 . S
O127 Nd104 2.691 . S
O127 Nd105 2.414 1_455 S
O127 C113 1.273 . S
O128 Nd104 2.409 1_565 S
O128 C114 1.251 . S
O129 Nd105 2.424 . S
O129 C114 1.268 1_645 S
O130 Nd105 2.500 . S
O130 C115 1.258 . S
O131 Nd105 2.492 . S
O131 C115 1.239 . S
O132 Nd105 2.487 1_565 S
O132 C122 1.241 . S
O133 Nd104 2.412 1_565 S
O133 Nd105 2.682 1_465 S
O133 C122 1.273 1_455 S
O134 Nd105 2.410 1_455 S
O134 C123 1.251 . S
O135 Nd104 2.430 . S
O135 C123 1.268 . S
H136 C108 0.930 . S
H137 C109 0.929 . S
H138 C111 0.930 . S
H139 C112 0.929 . S
H140 C117 0.930 . S
H141 C118 0.929 . S
H142 C120 0.930 . S
H143 C121 0.929 . S
Nd144 C146 2.836 . S
Nd144 O164 2.500 . S
Nd144 O165 2.492 . S
Nd144 O166 2.487 1_565 S
Nd144 O167 2.682 1_565 S
Nd144 O168 2.410 1_554 S
Nd144 O173 2.404 1_554 S
Nd144 O175 2.424 1_565 S
Nd145 C155 2.836 . S
Nd145 O167 2.414 1_556 S
Nd145 O169 2.424 1_545 S
Nd145 O170 2.500 . S
Nd145 O171 2.492 . S
Nd145 O172 2.487 . S
Nd145 O173 2.688 1_545 S
Nd145 O174 2.410 1_556 S
C146 Nd144 2.836 . S
C146 C147 1.498 . S
C146 O164 1.258 . S
C146 O165 1.239 . S
C147 C146 1.498 . S
C147 C148 1.366 . S
C147 C152 1.407 . S
C148 C147 1.366 . S
C148 C149 1.392 . S
C148 H176 0.930 . S
C149 C148 1.392 . S
C149 C150 1.398 . S
C149 H177 0.929 . S
C150 C149 1.398 . S
C150 C151 1.352 . S
C151 C150 1.352 . S
C151 C152 1.384 . S
C151 H178 0.930 . S
C152 C147 1.407 . S
C152 C151 1.384 . S
C152 H179 0.929 . S
C153 O166 1.241 . S
C153 O167 1.273 . S
C154 O168 1.251 . S
C154 O169 1.268 . S
C155 Nd145 2.836 . S
C155 C156 1.498 . S
C155 O170 1.258 . S
C155 O171 1.239 . S
C156 C155 1.498 . S
C156 C157 1.366 . S
C156 C161 1.407 . S
C157 C156 1.366 . S
C157 C158 1.392 . S
C157 H180 0.930 . S
C158 C157 1.392 . S
C158 C159 1.398 . S
C158 H181 0.929 . S
C159 C158 1.398 . S
C159 C160 1.352 . S
C160 C159 1.352 . S
C160 C161 1.384 . S
C160 H182 0.930 . S
C161 C156 1.407 . S
C161 C160 1.384 . S
C161 H183 0.929 . S
C162 O172 1.241 1_565 S
C162 O173 1.281 . S
C163 O174 1.251 . S
C163 O175 1.268 . S
O164 Nd144 2.500 . S
O164 C146 1.258 . S
O165 Nd144 2.492 . S
O165 C146 1.239 . S
O166 Nd144 2.487 1_545 S
O166 C153 1.241 . S
O167 Nd144 2.682 1_545 S
O167 Nd145 2.414 1_554 S
O167 C153 1.273 . S
O168 Nd144 2.410 1_556 S
O168 C154 1.251 . S
O169 Nd145 2.424 1_565 S
O169 C154 1.268 . S
O170 Nd145 2.500 . S
O170 C155 1.258 . S
O171 Nd145 2.492 . S
O171 C155 1.239 . S
O172 Nd145 2.487 . S
O172 C162 1.241 1_545 S
O173 Nd144 2.404 1_556 S
O173 Nd145 2.688 1_565 S
O173 C162 1.281 . S
O174 Nd145 2.410 1_554 S
O174 C163 1.251 . S
O175 Nd144 2.424 1_545 S
O175 C163 1.268 . S
H176 C148 0.930 . S
H177 C149 0.929 . S
H178 C151 0.930 . S
H179 C152 0.929 . S
H180 C157 0.930 . S
H181 C158 0.929 . S
H182 C160 0.930 . S
H183 C161 0.929 . S
Nd184 C186 2.836 . S
Nd184 O204 2.500 . S
Nd184 O205 2.492 . S
Nd184 O206 2.487 . S
Nd184 O207 2.682 . S
Nd184 O208 2.410 . S
Nd184 O213 2.414 . S
Nd184 O215 2.424 . S
Nd185 C195 2.836 . S
Nd185 O207 2.414 . S
Nd185 O209 2.424 . S
Nd185 O210 2.500 . S
Nd185 O211 2.492 . S
Nd185 O212 2.487 . S
Nd185 O213 2.682 . S
Nd185 O214 2.410 . S
C186 Nd184 2.836 . S
C186 C187 1.498 . S
C186 O204 1.258 . S
C186 O205 1.239 . S
C187 C186 1.498 . S
C187 C188 1.366 . S
C187 C192 1.407 . S
C188 C187 1.366 . S
C188 C189 1.392 . S
C188 H216 0.930 . S
C189 C188 1.392 . S
C189 C190 1.398 . S
C189 H217 0.929 . S
C190 C189 1.398 . S
C190 C191 1.352 . S
C191 C190 1.352 . S
C191 C192 1.384 . S
C191 H218 0.930 . S
C192 C187 1.407 . S
C192 C191 1.384 . S
C192 H219 0.929 . S
C193 O206 1.241 . S
C193 O207 1.273 . S
C194 O208 1.251 . S
C194 O209 1.268 . S
C195 Nd185 2.836 . S
C195 C196 1.498 . S
C195 O210 1.258 . S
C195 O211 1.239 . S
C196 C195 1.498 . S
C196 C197 1.366 . S
C196 C201 1.407 . S
C197 C196 1.366 . S
C197 C198 1.392 . S
C197 H220 0.930 . S
C198 C197 1.392 . S
C198 C199 1.398 . S
C198 H221 0.929 . S
C199 C198 1.398 . S
C199 C200 1.352 . S
C200 C199 1.352 . S
C200 C201 1.384 . S
C200 H222 0.930 . S
C201 C196 1.407 . S
C201 C200 1.384 . S
C201 H223 0.929 . S
C202 O212 1.241 . S
C202 O213 1.273 . S
C203 O214 1.251 . S
C203 O215 1.268 . S
O204 Nd184 2.500 . S
O204 C186 1.258 . S
O205 Nd184 2.492 . S
O205 C186 1.239 . S
O206 Nd184 2.487 . S
O206 C193 1.241 . S
O207 Nd184 2.682 . S
O207 Nd185 2.414 . S
O207 C193 1.273 . S
O208 Nd184 2.410 . S
O208 C194 1.251 . S
O209 Nd185 2.424 . S
O209 C194 1.268 . S
O210 Nd185 2.500 . S
O210 C195 1.258 . S
O211 Nd185 2.492 . S
O211 C195 1.239 . S
O212 Nd185 2.487 . S
O212 C202 1.241 . S
O213 Nd184 2.414 . S
O213 Nd185 2.682 . S
O213 C202 1.273 . S
O214 Nd185 2.410 . S
O214 C203 1.251 . S
O215 Nd184 2.424 . S
O215 C203 1.268 . S
H216 C188 0.930 . S
H217 C189 0.929 . S
H218 C191 0.930 . S
H219 C192 0.929 . S
H220 C197 0.930 . S
H221 C198 0.929 . S
H222 C200 0.930 . S
H223 C201 0.929 . S
Nd224 C226 2.836 1_455 S
Nd224 O244 2.500 1_455 S
Nd224 O245 2.492 . S
Nd224 O246 2.487 . S
Nd224 O247 2.682 . S
Nd224 O248 2.410 . S
Nd224 O253 2.414 1_455 S
Nd224 O255 2.424 . S
Nd225 C235 2.836 . S
Nd225 O247 2.414 1_556 S
Nd225 O249 2.424 . S
Nd225 O250 2.500 . S
Nd225 O251 2.492 . S
Nd225 O252 2.487 1_455 S
Nd225 O253 2.682 1_456 S
Nd225 O254 2.410 1_556 S
C226 Nd224 2.836 1_655 S
C226 C227 1.498 . S
C226 O244 1.258 . S
C226 O245 1.239 1_655 S
C227 C226 1.498 . S
C227 C228 1.366 . S
C227 C232 1.407 . S
C228 C227 1.366 . S
C228 C229 1.392 . S
C228 H256 0.930 . S
C229 C228 1.392 . S
C229 C230 1.398 . S
C229 H257 0.929 . S
C230 C229 1.398 . S
C230 C231 1.352 . S
C231 C230 1.352 . S
C231 C232 1.384 . S
C231 H258 0.930 . S
C232 C227 1.407 . S
C232 C231 1.384 . S
C232 H259 0.929 1_655 S
C233 O246 1.241 . S
C233 O247 1.273 . S
C234 O248 1.251 . S
C234 O249 1.268 1_554 S
C235 Nd225 2.836 . S
C235 C236 1.498 . S
C235 O250 1.258 . S
C235 O251 1.239 . S
C236 C235 1.498 . S
C236 C237 1.366 . S
C236 C241 1.407 . S
C237 C236 1.366 . S
C237 C238 1.392 . S
C237 H260 0.930 . S
C238 C237 1.392 . S
C238 C239 1.398 . S
C238 H261 0.929 . S
C239 C238 1.398 . S
C239 C240 1.352 . S
C240 C239 1.352 . S
C240 C241 1.384 . S
C240 H262 0.930 . S
C241 C236 1.407 . S
C241 C240 1.384 . S
C241 H263 0.929 . S
C242 O252 1.241 . S
C242 O253 1.273 1_556 S
C243 O254 1.251 . S
C243 O255 1.268 . S
O244 Nd224 2.500 1_655 S
O244 C226 1.258 . S
O245 Nd224 2.492 . S
O245 C226 1.239 1_455 S
O246 Nd224 2.487 . S
O246 C233 1.241 . S
O247 Nd224 2.682 . S
O247 Nd225 2.414 1_554 S
O247 C233 1.273 . S
O248 Nd224 2.410 . S
O248 C234 1.251 . S
O249 Nd225 2.424 . S
O249 C234 1.268 1_556 S
O250 Nd225 2.500 . S
O250 C235 1.258 . S
O251 Nd225 2.492 . S
O251 C235 1.239 . S
O252 Nd225 2.487 1_655 S
O252 C242 1.241 . S
O253 Nd224 2.414 1_655 S
O253 Nd225 2.682 1_654 S
O253 C242 1.273 1_554 S
O254 Nd225 2.410 1_554 S
O254 C243 1.251 . S
O255 Nd224 2.424 . S
O255 C243 1.268 . S
H256 C228 0.930 . S
H257 C229 0.929 . S
H258 C231 0.930 . S
H259 C232 0.929 1_455 S
H260 C237 0.930 . S
H261 C238 0.929 . S
H262 C240 0.930 . S
H263 C241 0.929 . S
H264 C270 0.930 . S
H265 C274 0.930 . S
H266 C279 0.929 . S
H267 C277 0.929 . S
H268 C272 0.929 . S
H269 C278 0.929 . S
C270 H264 0.930 . S
C270 C271 1.367 . S
C270 C278 1.378 . S
C271 C270 1.367 . S
C271 C279 1.433 . S
C272 H268 0.929 . S
C272 C274 1.378 . S
C272 C276 1.350 . S
C273 C276 1.463 . S
C273 C278 1.350 . S
C273 N281 1.427 . S
C274 H265 0.930 . S
C274 C272 1.378 . S
C274 C275 1.367 . S
C275 C274 1.367 . S
C275 C277 1.433 . S
C276 C272 1.350 . S
C276 C273 1.463 . S
C276 N280 1.427 . S
C277 H267 0.929 . S
C277 C275 1.433 . S
C277 N280 1.384 . S
C278 H269 0.929 . S
C278 C270 1.378 . S
C278 C273 1.350 . S
C279 H266 0.929 . S
C279 C271 1.433 . S
C279 N281 1.384 . S
N280 C276 1.427 . S
N280 C277 1.384 . S
N281 C273 1.427 . S
N281 C279 1.384 . S
H282 C288 0.930 . S
H283 C292 0.930 . S
H284 C297 0.929 . S
H285 C295 0.929 . S
H286 C290 0.929 . S
H287 C296 0.929 . S
C288 H282 0.930 . S
C288 C289 1.367 . S
C288 C296 1.378 . S
C289 C288 1.367 . S
C289 C297 1.433 . S
C290 H286 0.929 . S
C290 C292 1.378 . S
C290 C294 1.350 . S
C291 C294 1.463 . S
C291 C296 1.350 . S
C291 N299 1.427 . S
C292 H283 0.930 . S
C292 C290 1.378 . S
C292 C293 1.367 . S
C293 C292 1.367 . S
C293 C295 1.433 . S
C294 C290 1.350 . S
C294 C291 1.463 . S
C294 N298 1.427 . S
C295 H285 0.929 . S
C295 C293 1.433 . S
C295 N298 1.384 . S
C296 H287 0.929 . S
C296 C288 1.378 . S
C296 C291 1.350 . S
C297 H284 0.929 . S
C297 C289 1.433 . S
C297 N299 1.384 . S
N298 C294 1.427 . S
N298 C295 1.384 . S
N299 C291 1.427 . S
N299 C297 1.384 . S
H300 C306 0.930 . S
H301 C310 0.930 . S
H302 C315 0.929 . S
H303 C313 0.929 . S
H304 C308 0.929 . S
H305 C314 0.929 . S
C306 H300 0.930 . S
C306 C307 1.367 . S
C306 C314 1.378 . S
C307 C306 1.367 . S
C307 C315 1.433 . S
C308 H304 0.929 . S
C308 C310 1.378 . S
C308 C312 1.350 . S
C309 C312 1.463 . S
C309 C314 1.350 . S
C309 N317 1.427 . S
C310 H301 0.930 . S
C310 C308 1.378 . S
C310 C311 1.367 . S
C311 C310 1.367 . S
C311 C313 1.433 . S
C312 C308 1.350 . S
C312 C309 1.463 . S
C312 N316 1.427 . S
C313 H303 0.929 . S
C313 C311 1.433 . S
C313 N316 1.384 . S
C314 H305 0.929 . S
C314 C306 1.378 . S
C314 C309 1.350 . S
C315 H302 0.929 . S
C315 C307 1.433 . S
C315 N317 1.384 . S
N316 C312 1.427 . S
N316 C313 1.384 . S
N317 C309 1.427 . S
N317 C315 1.384 . S
H318 C324 0.930 . S
H319 C328 0.930 . S
H320 C333 0.929 . S
H321 C331 0.929 . S
H322 C326 0.929 . S
H323 C332 0.929 . S
C324 H318 0.930 . S
C324 C325 1.367 . S
C324 C332 1.378 . S
C325 C324 1.367 . S
C325 C333 1.433 . S
C326 H322 0.929 . S
C326 C328 1.378 . S
C326 C330 1.350 . S
C327 C330 1.463 . S
C327 C332 1.350 . S
C327 N335 1.427 . S
C328 H319 0.930 . S
C328 C326 1.378 . S
C328 C329 1.367 . S
C329 C328 1.367 . S
C329 C331 1.433 . S
C330 C326 1.350 . S
C330 C327 1.463 . S
C330 N334 1.427 . S
C331 H321 0.929 . S
C331 C329 1.433 . S
C331 N334 1.384 . S
C332 H323 0.929 . S
C332 C324 1.378 . S
C332 C327 1.350 . S
C333 H320 0.929 . S
C333 C325 1.433 . S
C333 N335 1.384 . S
N334 C330 1.427 . S
N334 C331 1.384 . S
N335 C327 1.427 . S
N335 C333 1.384 . S
H336 C342 0.930 . S
H337 C346 0.930 . S
H338 C351 0.929 . S
H339 C349 0.929 . S
H340 C344 0.929 . S
H341 C350 0.929 . S
C342 H336 0.930 . S
C342 C343 1.367 . S
C342 C350 1.378 . S
C343 C342 1.367 . S
C343 C351 1.433 . S
C344 H340 0.929 . S
C344 C346 1.378 . S
C344 C348 1.350 . S
C345 C348 1.463 . S
C345 C350 1.350 . S
C345 N353 1.427 . S
C346 H337 0.930 . S
C346 C344 1.378 . S
C346 C347 1.367 . S
C347 C346 1.367 . S
C347 C349 1.433 . S
C348 C344 1.350 . S
C348 C345 1.463 . S
C348 N352 1.427 . S
C349 H339 0.929 . S
C349 C347 1.433 . S
C349 N352 1.384 . S
C350 H341 0.929 . S
C350 C342 1.378 . S
C350 C345 1.350 . S
C351 H338 0.929 . S
C351 C343 1.433 . S
C351 N353 1.384 . S
N352 C348 1.427 . S
N352 C349 1.384 . S
N353 C345 1.427 . S
N353 C351 1.384 . S
H354 C360 0.930 . S
H355 C364 0.930 . S
H356 C369 0.929 . S
H357 C367 0.929 . S
H358 C362 0.929 . S
H359 C368 0.929 . S
C360 H354 0.930 . S
C360 C361 1.367 . S
C360 C368 1.378 . S
C361 C360 1.367 . S
C361 C369 1.433 . S
C362 H358 0.929 . S
C362 C364 1.378 . S
C362 C366 1.350 . S
C363 C366 1.463 . S
C363 C368 1.350 . S
C363 N371 1.427 . S
C364 H355 0.930 . S
C364 C362 1.378 . S
C364 C365 1.367 . S
C365 C364 1.367 . S
C365 C367 1.433 . S
C366 C362 1.350 . S
C366 C363 1.463 . S
C366 N370 1.427 . S
C367 H357 0.929 . S
C367 C365 1.433 . S
C367 N370 1.384 . S
C368 H359 0.929 . S
C368 C360 1.378 . S
C368 C363 1.350 . S
C369 H356 0.929 . S
C369 C361 1.433 . S
C369 N371 1.384 . S
N370 C366 1.427 . S
N370 C367 1.384 . S
N371 C363 1.427 . S
N371 C369 1.384 . S
H372 C378 0.930 . S
H373 C382 0.930 . S
H374 C387 0.929 . S
H375 C385 0.929 1_554 S
H376 C380 0.929 . S
H377 C386 0.929 . S
C378 H372 0.930 . S
C378 C379 1.367 . S
C378 C386 1.378 . S
C379 C378 1.367 . S
C379 C387 1.433 . S
C380 H376 0.929 . S
C380 C382 1.378 . S
C380 C384 1.350 . S
C381 C384 1.463 . S
C381 C386 1.350 . S
C381 N389 1.427 . S
C382 H373 0.930 . S
C382 C380 1.378 . S
C382 C383 1.367 . S
C383 C382 1.367 . S
C383 C385 1.433 . S
C384 C380 1.350 . S
C384 C381 1.463 . S
C384 N388 1.427 . S
C385 H375 0.929 1_556 S
C385 C383 1.433 . S
C385 N388 1.384 . S
C386 H377 0.929 . S
C386 C378 1.378 . S
C386 C381 1.350 . S
C387 H374 0.929 . S
C387 C379 1.433 . S
C387 N389 1.384 . S
N388 C384 1.427 . S
N388 C385 1.384 . S
N389 C381 1.427 . S
N389 C387 1.384 . S
H390 C396 0.930 . S
H391 C400 0.930 . S
H392 C405 0.929 . S
H393 C403 0.929 . S
H394 C398 0.929 . S
H395 C404 0.929 . S
C396 H390 0.930 . S
C396 C397 1.367 . S
C396 C404 1.378 . S
C397 C396 1.367 . S
C397 C405 1.433 . S
C398 H394 0.929 . S
C398 C400 1.378 . S
C398 C402 1.350 . S
C399 C402 1.463 . S
C399 C404 1.350 . S
C399 N407 1.427 . S
C400 H391 0.930 . S
C400 C398 1.378 . S
C400 C401 1.367 . S
C401 C400 1.367 . S
C401 C403 1.433 . S
C402 C398 1.350 . S
C402 C399 1.463 . S
C402 N406 1.427 . S
C403 H393 0.929 . S
C403 C401 1.433 . S
C403 N406 1.384 . S
C404 H395 0.929 . S
C404 C396 1.378 . S
C404 C399 1.350 . S
C405 H392 0.929 . S
C405 C397 1.433 . S
C405 N407 1.384 . S
N406 C402 1.427 . S
N406 C403 1.384 . S
N407 C399 1.427 . S
N407 C405 1.384 . S
H408 C414 0.930 . S
H409 C418 0.930 . S
H410 C423 0.929 . S
H411 C421 0.929 . S
H412 C416 0.929 . S
H413 C422 0.929 . S
C414 H408 0.930 . S
C414 C415 1.367 . S
C414 C422 1.378 . S
C415 C414 1.367 . S
C415 C423 1.433 . S
C416 H412 0.929 . S
C416 C418 1.378 . S
C416 C420 1.350 . S
C417 C420 1.463 . S
C417 C422 1.350 . S
C417 N425 1.427 . S
C418 H409 0.930 . S
C418 C416 1.378 . S
C418 C419 1.367 . S
C419 C418 1.367 . S
C419 C421 1.433 . S
C420 C416 1.350 . S
C420 C417 1.463 . S
C420 N424 1.427 . S
C421 H411 0.929 . S
C421 C419 1.433 . S
C421 N424 1.384 . S
C422 H413 0.929 . S
C422 C414 1.378 . S
C422 C417 1.350 . S
C423 H410 0.929 . S
C423 C415 1.433 . S
C423 N425 1.384 . S
N424 C420 1.427 . S
N424 C421 1.384 . S
N425 C417 1.427 . S
N425 C423 1.384 . S
H426 C432 0.930 . S
H427 C436 0.930 . S
H428 C441 0.929 . S
H429 C439 0.929 . S
H430 C434 0.929 . S
H431 C440 0.929 . S
C432 H426 0.930 . S
C432 C433 1.367 . S
C432 C440 1.378 . S
C433 C432 1.367 . S
C433 C441 1.433 . S
C434 H430 0.929 . S
C434 C436 1.378 . S
C434 C438 1.350 . S
C435 C438 1.463 . S
C435 C440 1.350 . S
C435 N443 1.427 . S
C436 H427 0.930 . S
C436 C434 1.378 . S
C436 C437 1.367 . S
C437 C436 1.367 . S
C437 C439 1.433 . S
C438 C434 1.350 . S
C438 C435 1.463 . S
C438 N442 1.427 . S
C439 H429 0.929 . S
C439 C437 1.433 . S
C439 N442 1.384 . S
C440 H431 0.929 . S
C440 C432 1.378 . S
C440 C435 1.350 . S
C441 H428 0.929 . S
C441 C433 1.433 . S
C441 N443 1.384 . S
N442 C438 1.427 . S
N442 C439 1.384 . S
N443 C435 1.427 . S
N443 C441 1.384 . S
H444 C450 0.930 . S
H445 C454 0.930 . S
H446 C459 0.929 . S
H447 C457 0.929 1_455 S
H448 C452 0.929 . S
H449 C458 0.929 . S
C450 H444 0.930 . S
C450 C451 1.367 . S
C450 C458 1.378 . S
C451 C450 1.367 . S
C451 C459 1.433 . S
C452 H448 0.929 . S
C452 C454 1.378 . S
C452 C456 1.350 . S
C453 C456 1.463 . S
C453 C458 1.350 . S
C453 N461 1.427 . S
C454 H445 0.930 . S
C454 C452 1.378 . S
C454 C455 1.367 . S
C455 C454 1.367 . S
C455 C457 1.433 . S
C456 C452 1.350 . S
C456 C453 1.463 . S
C456 N460 1.427 . S
C457 H447 0.929 1_655 S
C457 C455 1.433 . S
C457 N460 1.384 . S
C458 H449 0.929 . S
C458 C450 1.378 . S
C458 C453 1.350 . S
C459 H446 0.929 . S
C459 C451 1.433 . S
C459 N461 1.384 . S
N460 C456 1.427 . S
N460 C457 1.384 . S
N461 C453 1.427 . S
N461 C459 1.384 . S
H462 C468 0.930 . S
H463 C472 0.930 . S
H464 C477 0.929 . S
H465 C475 0.929 . S
H466 C470 0.929 . S
H467 C476 0.929 . S
C468 H462 0.930 . S
C468 C469 1.367 . S
C468 C476 1.378 . S
C469 C468 1.367 . S
C469 C477 1.433 . S
C470 H466 0.929 . S
C470 C472 1.378 . S
C470 C474 1.350 . S
C471 C474 1.463 . S
C471 C476 1.350 . S
C471 N479 1.427 . S
C472 H463 0.930 . S
C472 C470 1.378 . S
C472 C473 1.367 . S
C473 C472 1.367 . S
C473 C475 1.433 . S
C474 C470 1.350 . S
C474 C471 1.463 . S
C474 N478 1.427 . S
C475 H465 0.929 . S
C475 C473 1.433 . S
C475 N478 1.384 . S
C476 H467 0.929 . S
C476 C468 1.378 . S
C476 C471 1.350 . S
C477 H464 0.929 . S
C477 C469 1.433 . S
C477 N479 1.384 . S
N478 C474 1.427 . S
N478 C475 1.384 . S
N479 C471 1.427 . S
N479 C477 1.384 . S
H480 C486 0.930 . S
H481 C490 0.930 . S
H482 C495 0.929 . S
H483 C493 0.929 1_545 S
H484 C488 0.929 . S
H485 C494 0.929 . S
C486 H480 0.930 . S
C486 C487 1.367 . S
C486 C494 1.378 . S
C487 C486 1.367 . S
C487 C495 1.433 . S
C488 H484 0.929 . S
C488 C490 1.378 . S
C488 C492 1.350 . S
C489 C492 1.463 . S
C489 C494 1.350 . S
C489 N497 1.427 . S
C490 H481 0.930 . S
C490 C488 1.378 . S
C490 C491 1.367 . S
C491 C490 1.367 . S
C491 C493 1.433 . S
C492 C488 1.350 . S
C492 C489 1.463 . S
C492 N496 1.427 . S
C493 H483 0.929 1_565 S
C493 C491 1.433 . S
C493 N496 1.384 . S
C494 H485 0.929 . S
C494 C486 1.378 . S
C494 C489 1.350 . S
C495 H482 0.929 . S
C495 C487 1.433 . S
C495 N497 1.384 . S
N496 C492 1.427 . S
N496 C493 1.384 . S
N497 C489 1.427 . S
N497 C495 1.384 . S
H498 C504 0.930 . S
H499 C508 0.930 . S
H500 C513 0.929 . S
H501 C511 0.929 . S
H502 C506 0.929 . S
H503 C512 0.929 . S
C504 H498 0.930 . S
C504 C505 1.367 . S
C504 C512 1.378 . S
C505 C504 1.367 . S
C505 C513 1.433 . S
C506 H502 0.929 . S
C506 C508 1.378 . S
C506 C510 1.350 . S
C507 C510 1.463 . S
C507 C512 1.350 . S
C507 N515 1.427 . S
C508 H499 0.930 . S
C508 C506 1.378 . S
C508 C509 1.367 . S
C509 C508 1.367 . S
C509 C511 1.433 . S
C510 C506 1.350 . S
C510 C507 1.463 . S
C510 N514 1.427 . S
C511 H501 0.929 . S
C511 C509 1.433 . S
C511 N514 1.384 . S
C512 H503 0.929 . S
C512 C504 1.378 . S
C512 C507 1.350 . S
C513 H500 0.929 . S
C513 C505 1.433 . S
C513 N515 1.384 . S
N514 C510 1.427 . S
N514 C511 1.384 . S
N515 C507 1.427 . S
N515 C513 1.384 . S
H516 C522 0.930 . S
H517 C526 0.930 . S
H518 C531 0.929 . S
H519 C529 0.929 . S
H520 C524 0.929 . S
H521 C530 0.929 . S
C522 H516 0.930 . S
C522 C523 1.367 . S
C522 C530 1.378 . S
C523 C522 1.367 . S
C523 C531 1.433 . S
C524 H520 0.929 . S
C524 C526 1.378 . S
C524 C528 1.350 . S
C525 C528 1.463 . S
C525 C530 1.350 . S
C525 N533 1.427 . S
C526 H517 0.930 . S
C526 C524 1.378 . S
C526 C527 1.367 . S
C527 C526 1.367 . S
C527 C529 1.433 . S
C528 C524 1.350 . S
C528 C525 1.463 . S
C528 N532 1.427 . S
C529 H519 0.929 . S
C529 C527 1.433 . S
C529 N532 1.384 . S
C530 H521 0.929 . S
C530 C522 1.378 . S
C530 C525 1.350 . S
C531 H518 0.929 . S
C531 C523 1.433 . S
C531 N533 1.384 . S
N532 C528 1.427 . S
N532 C529 1.384 . S
N533 C525 1.427 . S
N533 C531 1.384 . S
H534 C540 0.930 . S
H535 C544 0.930 . S
H536 C549 0.929 . S
H537 C547 0.929 . S
H538 C542 0.929 . S
H539 C548 0.929 . S
C540 H534 0.930 . S
C540 C541 1.367 . S
C540 C548 1.378 . S
C541 C540 1.367 . S
C541 C549 1.433 . S
C542 H538 0.929 . S
C542 C544 1.378 . S
C542 C546 1.350 . S
C543 C546 1.463 . S
C543 C548 1.350 . S
C543 N551 1.427 . S
C544 H535 0.930 . S
C544 C542 1.378 . S
C544 C545 1.367 . S
C545 C544 1.367 . S
C545 C547 1.433 . S
C546 C542 1.350 . S
C546 C543 1.463 . S
C546 N550 1.427 . S
C547 H537 0.929 . S
C547 C545 1.433 . S
C547 N550 1.384 . S
C548 H539 0.929 . S
C548 C540 1.378 . S
C548 C543 1.350 . S
C549 H536 0.929 . S
C549 C541 1.433 . S
C549 N551 1.384 . S
N550 C546 1.427 . S
N550 C547 1.384 . S
N551 C543 1.427 . S
N551 C549 1.384 . S
H552 C558 0.930 . S
H553 C562 0.930 1_554 S
H554 C567 0.929 . S
H555 C565 0.929 . S
H556 C560 0.929 . S
H557 C566 0.929 . S
C558 H552 0.930 . S
C558 C559 1.367 . S
C558 C566 1.378 . S
C559 C558 1.367 . S
C559 C567 1.433 . S
C560 H556 0.929 . S
C560 C562 1.378 . S
C560 C564 1.350 . S
C561 C564 1.463 . S
C561 C566 1.350 . S
C561 N569 1.427 . S
C562 H553 0.930 1_556 S
C562 C560 1.378 . S
C562 C563 1.367 . S
C563 C562 1.367 . S
C563 C565 1.433 . S
C564 C560 1.350 . S
C564 C561 1.463 . S
C564 N568 1.427 . S
C565 H555 0.929 . S
C565 C563 1.433 . S
C565 N568 1.384 . S
C566 H557 0.929 . S
C566 C558 1.378 . S
C566 C561 1.350 . S
C567 H554 0.929 . S
C567 C559 1.433 . S
C567 N569 1.384 . S
N568 C564 1.427 . S
N568 C565 1.384 . S
N569 C561 1.427 . S
N569 C567 1.384 . S
H570 C576 0.930 . S
H571 C580 0.930 . S
H572 C585 0.929 . S
H573 C583 0.929 . S
H574 C578 0.929 . S
H575 C584 0.929 . S
C576 H570 0.930 . S
C576 C577 1.367 . S
C576 C584 1.378 . S
C577 C576 1.367 . S
C577 C585 1.433 . S
C578 H574 0.929 . S
C578 C580 1.378 . S
C578 C582 1.350 . S
C579 C582 1.463 . S
C579 C584 1.350 . S
C579 N587 1.427 . S
C580 H571 0.930 . S
C580 C578 1.378 . S
C580 C581 1.367 . S
C581 C580 1.367 . S
C581 C583 1.433 . S
C582 C578 1.350 . S
C582 C579 1.463 . S
C582 N586 1.427 . S
C583 H573 0.929 . S
C583 C581 1.433 . S
C583 N586 1.384 . S
C584 H575 0.929 . S
C584 C576 1.378 . S
C584 C579 1.350 . S
C585 H572 0.929 . S
C585 C577 1.433 . S
C585 N587 1.384 . S
N586 C582 1.427 . S
N586 C583 1.384 . S
N587 C579 1.427 . S
N587 C585 1.384 . S
H588 C594 0.930 . S
H589 C598 0.930 . S
H590 C603 0.929 . S
H591 C601 0.929 . S
H592 C596 0.929 . S
H593 C602 0.929 . S
C594 H588 0.930 . S
C594 C595 1.367 . S
C594 C602 1.378 . S
C595 C594 1.367 . S
C595 C603 1.433 . S
C596 H592 0.929 . S
C596 C598 1.378 . S
C596 C600 1.350 . S
C597 C600 1.463 . S
C597 C602 1.350 . S
C597 N605 1.427 . S
C598 H589 0.930 . S
C598 C596 1.378 . S
C598 C599 1.367 . S
C599 C598 1.367 . S
C599 C601 1.433 . S
C600 C596 1.350 . S
C600 C597 1.463 . S
C600 N604 1.427 . S
C601 H591 0.929 . S
C601 C599 1.433 . S
C601 N604 1.384 . S
C602 H593 0.929 . S
C602 C594 1.378 . S
C602 C597 1.350 . S
C603 H590 0.929 . S
C603 C595 1.433 . S
C603 N605 1.384 . S
N604 C600 1.427 . S
N604 C601 1.384 . S
N605 C597 1.427 . S
N605 C603 1.384 . S
H606 C612 0.930 . S
H607 C616 0.930 . S
H608 C621 0.929 . S
H609 C619 0.929 . S
H610 C614 0.929 . S
H611 C620 0.929 . S
C612 H606 0.930 . S
C612 C613 1.367 . S
C612 C620 1.378 . S
C613 C612 1.367 . S
C613 C621 1.433 . S
C614 H610 0.929 . S
C614 C616 1.378 . S
C614 C618 1.350 . S
C615 C618 1.463 . S
C615 C620 1.350 . S
C615 N623 1.427 . S
C616 H607 0.930 . S
C616 C614 1.378 . S
C616 C617 1.367 . S
C617 C616 1.367 . S
C617 C619 1.433 . S
C618 C614 1.350 . S
C618 C615 1.463 . S
C618 N622 1.427 . S
C619 H609 0.929 . S
C619 C617 1.433 . S
C619 N622 1.384 . S
C620 H611 0.929 . S
C620 C612 1.378 . S
C620 C615 1.350 . S
C621 H608 0.929 . S
C621 C613 1.433 . S
C621 N623 1.384 . S
N622 C618 1.427 . S
N622 C619 1.384 . S
N623 C615 1.427 . S
N623 C621 1.384 . S
H624 C630 0.930 1_554 S
H625 C634 0.930 . S
H626 C639 0.929 . S
H627 C637 0.929 . S
H628 C632 0.929 . S
H629 C638 0.929 1_554 S
C630 H624 0.930 1_556 S
C630 C631 1.367 . S
C630 C638 1.378 . S
C631 C630 1.367 . S
C631 C639 1.433 . S
C632 H628 0.929 . S
C632 C634 1.378 . S
C632 C636 1.350 . S
C633 C636 1.463 . S
C633 C638 1.350 . S
C633 N641 1.427 . S
C634 H625 0.930 . S
C634 C632 1.378 . S
C634 C635 1.367 . S
C635 C634 1.367 . S
C635 C637 1.433 1_556 S
C636 C632 1.350 . S
C636 C633 1.463 . S
C636 N640 1.427 1_556 S
C637 H627 0.929 . S
C637 C635 1.433 1_554 S
C637 N640 1.384 . S
C638 H629 0.929 1_556 S
C638 C630 1.378 . S
C638 C633 1.350 . S
C639 H626 0.929 . S
C639 C631 1.433 . S
C639 N641 1.384 . S
N640 C636 1.427 1_554 S
N640 C637 1.384 . S
N641 C633 1.427 . S
N641 C639 1.384 . S
H642 C648 0.930 . S
H643 C652 0.930 . S
H644 C657 0.929 . S
H645 C655 0.929 . S
H646 C650 0.929 . S
H647 C656 0.929 . S
C648 H642 0.930 . S
C648 C649 1.367 . S
C648 C656 1.378 . S
C649 C648 1.367 . S
C649 C657 1.433 . S
C650 H646 0.929 . S
C650 C652 1.378 . S
C650 C654 1.350 . S
C651 C654 1.463 . S
C651 C656 1.350 . S
C651 N659 1.427 . S
C652 H643 0.930 . S
C652 C650 1.378 . S
C652 C653 1.367 . S
C653 C652 1.367 . S
C653 C655 1.433 . S
C654 C650 1.350 . S
C654 C651 1.463 . S
C654 N658 1.427 . S
C655 H645 0.929 . S
C655 C653 1.433 . S
C655 N658 1.384 . S
C656 H647 0.929 . S
C656 C648 1.378 . S
C656 C651 1.350 . S
C657 H644 0.929 . S
C657 C649 1.433 . S
C657 N659 1.384 . S
N658 C654 1.427 . S
N658 C655 1.384 . S
N659 C651 1.427 . S
N659 C657 1.384 . S
H660 C666 0.930 . S
H661 C670 0.930 . S
H662 C675 0.929 . S
H663 C673 0.929 . S
H664 C668 0.929 . S
H665 C674 0.929 . S
C666 H660 0.930 . S
C666 C667 1.367 . S
C666 C674 1.378 . S
C667 C666 1.367 . S
C667 C675 1.433 . S
C668 H664 0.929 . S
C668 C670 1.378 . S
C668 C672 1.350 . S
C669 C672 1.463 . S
C669 C674 1.350 . S
C669 N677 1.427 . S
C670 H661 0.930 . S
C670 C668 1.378 . S
C670 C671 1.367 . S
C671 C670 1.367 . S
C671 C673 1.433 . S
C672 C668 1.350 . S
C672 C669 1.463 . S
C672 N676 1.427 . S
C673 H663 0.929 . S
C673 C671 1.433 . S
C673 N676 1.384 . S
C674 H665 0.929 . S
C674 C666 1.378 . S
C674 C669 1.350 . S
C675 H662 0.929 . S
C675 C667 1.433 . S
C675 N677 1.384 . S
N676 C672 1.427 . S
N676 C673 1.384 . S
N677 C669 1.427 . S
N677 C675 1.384 . S
H678 C684 0.930 . S
H679 C688 0.930 . S
H680 C693 0.929 . S
H681 C691 0.929 . S
H682 C686 0.929 . S
H683 C692 0.929 . S
C684 H678 0.930 . S
C684 C685 1.367 . S
C684 C692 1.378 . S
C685 C684 1.367 . S
C685 C693 1.433 . S
C686 H682 0.929 . S
C686 C688 1.378 . S
C686 C690 1.350 . S
C687 C690 1.463 . S
C687 C692 1.350 . S
C687 N695 1.427 . S
C688 H679 0.930 . S
C688 C686 1.378 . S
C688 C689 1.367 . S
C689 C688 1.367 . S
C689 C691 1.433 . S
C690 C686 1.350 . S
C690 C687 1.463 . S
C690 N694 1.427 . S
C691 H681 0.929 . S
C691 C689 1.433 . S
C691 N694 1.384 . S
C692 H683 0.929 . S
C692 C684 1.378 . S
C692 C687 1.350 . S
C693 H680 0.929 . S
C693 C685 1.433 . S
C693 N695 1.384 . S
N694 C690 1.427 . S
N694 C691 1.384 . S
N695 C687 1.427 . S
N695 C693 1.384 . S
C271 C9 3.315 . S
C275 C123 3.281 . S
C289 C21 2.031 . S
C293 C154 2.089 . S
C311 C193 0.913 . S
C307 C30 0.898 . S
C325 C43 0.610 . S
C329 C230 0.453 . S
C347 C153 2.706 . S
C343 C4 2.777 . S
C365 C110 1.773 . S
C361 C22 1.783 . S
C383 C242 0.980 . S
C379 C34 1.025 . S
C401 C199 0.900 . S
C397 C48 0.904 . S
C415 C8 2.335 . S
C419 C243 2.328 . S
C437 C159 1.446 . S
C433 C35 1.459 . S
C451 C47 0.474 . S
C455 C122 0.513 . S
C469 C17 1.965 . S
C473 C194 2.134 . S
C491 C114 2.806 1_655 S
C487 C60 2.824 . S
C505 C74 2.375 . S
C509 C163 2.461 . S
C523 C82 0.800 . S
C527 C202 0.785 . S
C541 C100 0.738 . S
C545 C239 0.742 . S
C559 C61 3.229 . S
C563 C162 3.159 . S
C581 C119 1.386 . S
C577 C73 1.380 . S
C599 C233 1.495 . S
C595 C87 1.538 . S
C617 C190 0.783 . S
C613 C95 0.766 . S
C631 C56 2.437 . S
C635 C234 2.486 1_656 S
C653 C150 1.424 . S
C649 C86 1.425 . S
C671 C113 0.515 . S
C667 C99 0.398 . S
C685 C69 2.083 . S
C689 C203 2.194 . S
