# Generated by pormake.
# Topology pyr, (3,6)-cn, num edge types: 1
# Building blocks:
#     Node 0, Type 0, BuildingBlock: BETDAH_clean_linker_0, # of connection points: 3
#     Node 1, Type 0, BuildingBlock: BETDAH_clean_linker_0, # of connection points: 3
#     Node 2, Type 0, BuildingBlock: BETDAH_clean_linker_0, # of connection points: 3
#     Node 3, Type 0, BuildingBlock: BETDAH_clean_linker_0, # of connection points: 3
#     Node 4, Type 0, BuildingBlock: BETDAH_clean_linker_0, # of connection points: 3
#     Node 5, Type 0, BuildingBlock: BETDAH_clean_linker_0, # of connection points: 3
#     Node 6, Type 0, BuildingBlock: BETDAH_clean_linker_0, # of connection points: 3
#     Node 7, Type 0, BuildingBlock: BETDAH_clean_linker_0, # of connection points: 3
#     Node 8, Type 1, BuildingBlock: MIDCAF_clean_sbu_0, # of connection points: 6
#     Node 9, Type 1, BuildingBlock: MIDCAF_clean_sbu_0, # of connection points: 6
#     Node 10, Type 1, BuildingBlock: MIDCAF_clean_sbu_0, # of connection points: 6
#     Node 11, Type 1, BuildingBlock: MIDCAF_clean_sbu_0, # of connection points: 6
#     Edge 12, Type (0, 1), BuildingBlock: TEMPAE_clean_linker_10, # of connection points: 2
#     Edge 13, Type (0, 1), BuildingBlock: TEMPAE_clean_linker_10, # of connection points: 2
#     Edge 14, Type (0, 1), BuildingBlock: TEMPAE_clean_linker_10, # of connection points: 2
#     Edge 15, Type (0, 1), BuildingBlock: TEMPAE_clean_linker_10, # of connection points: 2
#     Edge 16, Type (0, 1), BuildingBlock: TEMPAE_clean_linker_10, # of connection points: 2
#     Edge 17, Type (0, 1), BuildingBlock: TEMPAE_clean_linker_10, # of connection points: 2
#     Edge 18, Type (0, 1), BuildingBlock: TEMPAE_clean_linker_10, # of connection points: 2
#     Edge 19, Type (0, 1), BuildingBlock: TEMPAE_clean_linker_10, # of connection points: 2
#     Edge 20, Type (0, 1), BuildingBlock: TEMPAE_clean_linker_10, # of connection points: 2
#     Edge 21, Type (0, 1), BuildingBlock: TEMPAE_clean_linker_10, # of connection points: 2
#     Edge 22, Type (0, 1), BuildingBlock: TEMPAE_clean_linker_10, # of connection points: 2
#     Edge 23, Type (0, 1), BuildingBlock: TEMPAE_clean_linker_10, # of connection points: 2
#     Edge 24, Type (0, 1), BuildingBlock: TEMPAE_clean_linker_10, # of connection points: 2
#     Edge 25, Type (0, 1), BuildingBlock: TEMPAE_clean_linker_10, # of connection points: 2
#     Edge 26, Type (0, 1), BuildingBlock: TEMPAE_clean_linker_10, # of connection points: 2
#     Edge 27, Type (0, 1), BuildingBlock: TEMPAE_clean_linker_10, # of connection points: 2
#     Edge 28, Type (0, 1), BuildingBlock: TEMPAE_clean_linker_10, # of connection points: 2
#     Edge 29, Type (0, 1), BuildingBlock: TEMPAE_clean_linker_10, # of connection points: 2
#     Edge 30, Type (0, 1), BuildingBlock: TEMPAE_clean_linker_10, # of connection points: 2
#     Edge 31, Type (0, 1), BuildingBlock: TEMPAE_clean_linker_10, # of connection points: 2
#     Edge 32, Type (0, 1), BuildingBlock: TEMPAE_clean_linker_10, # of connection points: 2
#     Edge 33, Type (0, 1), BuildingBlock: TEMPAE_clean_linker_10, # of connection points: 2
#     Edge 34, Type (0, 1), BuildingBlock: TEMPAE_clean_linker_10, # of connection points: 2
#     Edge 35, Type (0, 1), BuildingBlock: TEMPAE_clean_linker_10, # of connection points: 2
# Relax obj value: 0.085
# Max RMSD: 0.181
# Mean RMSD: 0.134
data_MOF--net-pry--node1-MIDCAF_clean_sbu_0--node2-BETDAH_clean_linker_0--edge1-TEMPAE_clean_linker_10
_symmetry_space_group_name_H-M    P1
_symmetry_Int_Tables_number       1
_symmetry_cell_setting            triclinic
loop_
_symmetry_equiv_pos_as_xyz
'x, y, z'
_cell_length_a     34.847829
_cell_length_b     35.520596
_cell_length_c     36.961234
_cell_angle_alpha  90.505923
_cell_angle_beta   90.820379
_cell_angle_gamma 97.154035
loop_
_atom_site_label
_atom_site_type_symbol
_atom_site_fract_x
_atom_site_fract_y
_atom_site_fract_z
_atom_type_partial_charge
H0 H 0.22685 0.16256 0.27238 0.0
H1 H 0.23195 0.20335 0.16316 0.0
H2 H 0.14083 0.23 0.23231 0.0
C3 C 0.21575 0.17926 0.25111 0.0
C4 C 0.18189 0.19638 0.25669 0.0
C5 C 0.234 0.18177 0.21742 0.0
C6 C 0.21862 0.20212 0.18953 0.0
C7 C 0.18597 0.22067 0.19507 0.0
C8 C 0.16732 0.21746 0.22861 0.0
N9 N 0.16947 0.23767 0.16499 0.0
C10 C 0.16356 0.27569 0.16342 0.0
H11 H 0.39026 0.81048 0.77209 0.0
H12 H 0.3523 0.92057 0.75889 0.0
H13 H 0.35049 0.84443 0.66803 0.0
C14 C 0.37743 0.83078 0.7555 0.0
C15 C 0.36982 0.82274 0.71866 0.0
C16 C 0.37186 0.86628 0.77013 0.0
C17 C 0.35629 0.89288 0.74807 0.0
C18 C 0.34776 0.88462 0.71148 0.0
C19 C 0.35535 0.84995 0.69673 0.0
N20 N 0.33668 0.91288 0.68823 0.0
C21 C 0.29998 0.92429 0.68842 0.0
H22 H 0.74988 0.34303 0.94076 0.0
H23 H 0.72321 0.38777 0.83657 0.0
H24 H 0.66034 0.28371 0.87308 0.0
C25 C 0.73239 0.34144 0.91616 0.0
C26 C 0.70416 0.3103 0.91001 0.0
C27 C 0.73965 0.36924 0.88939 0.0
C28 C 0.71729 0.36655 0.85732 0.0
C29 C 0.68827 0.33573 0.8518 0.0
C30 C 0.68238 0.30771 0.87786 0.0
N31 N 0.66515 0.33104 0.81997 0.0
C32 C 0.66032 0.36004 0.79631 0.0
H33 H 0.7923 0.73769 0.41173 0.0
H34 H 0.89505 0.73135 0.34983 0.0
H35 H 0.8047 0.63694 0.34998 0.0
C36 C 0.80903 0.72214 0.39364 0.0
C37 C 0.79426 0.68561 0.38185 0.0
C38 C 0.84531 0.73869 0.38214 0.0
C39 C 0.86684 0.71864 0.35854 0.0
C40 C 0.85208 0.6818 0.34695 0.0
C41 C 0.816 0.66539 0.35891 0.0
N42 N 0.87315 0.65994 0.32421 0.0
C43 C 0.89729 0.67509 0.2971 0.0
H44 H 0.98342 0.89929 0.8879 0.0
H45 H 0.92259 0.93273 0.9814 0.0
H46 H 0.93967 0.00722 0.89035 0.0
C47 C 0.96822 0.91982 0.90185 0.0
C48 C 0.96265 0.95385 0.88479 0.0
C49 C 0.9538 0.91197 0.9367 0.0
C50 C 0.93329 0.93833 0.95434 0.0
C51 C 0.92847 0.9729 0.93765 0.0
C52 C 0.94343 0.98054 0.90312 0.0
N53 N 0.91199 0.00183 0.95635 0.0
C54 C 0.87403 0.99782 0.96826 0.0
H55 H 0.64333 0.07166 0.40186 0.0
H56 H 0.64007 0.12276 0.50718 0.0
H57 H 0.55031 0.13616 0.4298 0.0
C58 C 0.62941 0.08896 0.42064 0.0
C59 C 0.59473 0.10327 0.41054 0.0
C60 C 0.64676 0.09691 0.45488 0.0
C61 C 0.62804 0.1178 0.4801 0.0
C62 C 0.59329 0.13165 0.47107 0.0
C63 C 0.57702 0.12491 0.43628 0.0
N64 N 0.57234 0.14753 0.49871 0.0
C65 C 0.569 0.18604 0.50188 0.0
H66 H 0.38847 0.64531 0.08125 0.0
H67 H 0.42121 0.55217 0.14287 0.0
H68 H 0.49488 0.65831 0.14367 0.0
C69 C 0.40893 0.63395 0.09915 0.0
C70 C 0.44254 0.6571 0.11084 0.0
C71 C 0.40045 0.59651 0.11123 0.0
C72 C 0.42713 0.58118 0.13369 0.0
C73 C 0.46148 0.6034 0.14453 0.0
C74 C 0.46881 0.64134 0.13378 0.0
N75 N 0.48921 0.58708 0.16543 0.0
C76 C 0.49387 0.5946 0.2022 0.0
H77 H 0.16035 0.42216 0.56983 0.0
H78 H 0.11045 0.50148 0.63764 0.0
H79 H 0.0391 0.40349 0.59391 0.0
C80 C 0.13512 0.43142 0.58239 0.0
C81 C 0.09927 0.40903 0.57901 0.0
C82 C 0.13895 0.465 0.60295 0.0
C83 C 0.10705 0.47596 0.62101 0.0
C84 C 0.07078 0.4539 0.61743 0.0
C85 C 0.06684 0.42107 0.59566 0.0
N86 N 0.03837 0.46315 0.63681 0.0
C87 C 0.04197 0.47814 0.67171 0.0
Zn88 Zn 0.96191 0.08051 0.58013 0.0
Zn89 Zn 0.04644 0.00955 0.51225 0.0
Zn90 Zn 0.00293 0.04798 0.54266 0.0
C91 C 0.06527 0.0791 0.4812 0.0
C92 C 0.97345 0.97997 0.48839 0.0
O93 O 0.01132 0.03478 0.60284 0.0
O94 O 0.96389 0.06043 0.62838 0.0
C95 C 0.01485 0.13679 0.55107 0.0
O96 O 0.03959 0.08724 0.50405 0.0
O97 O 0.07498 0.04612 0.48079 0.0
O98 O 0.00842 0.97479 0.48622 0.0
O99 O 0.96379 0.00687 0.5087 0.0
O100 O 0.99005 0.13078 0.57546 0.0
O101 O 0.02336 0.10871 0.53172 0.0
O102 O 0.9401 0.03221 0.52396 0.0
O103 O 0.91146 0.07229 0.55701 0.0
C104 C 0.90941 0.04711 0.5327 0.0
O105 O 0.039 0.01908 0.5832 0.0
O106 O 0.07561 0.9868 0.54944 0.0
C107 C 0.99186 0.04142 0.63134 0.0
C108 C 0.06562 0.9969 0.58024 0.0
Zn109 Zn 0.47784 0.05743 0.03113 0.0
Zn110 Zn 0.55448 0.99474 0.10959 0.0
Zn111 Zn 0.51726 0.02367 0.07005 0.0
C112 C 0.60607 0.01316 0.05851 0.0
C113 C 0.49979 0.93841 0.08855 0.0
O114 O 0.47785 0.05475 0.10544 0.0
O115 O 0.44054 0.07544 0.06337 0.0
C116 C 0.55157 0.09294 0.02169 0.0
O117 O 0.58051 0.03624 0.05379 0.0
O118 O 0.59935 0.9864 0.08051 0.0
O119 O 0.51751 0.94926 0.11747 0.0
O120 O 0.49944 0.96186 0.06214 0.0
O121 O 0.51699 0.09677 0.01385 0.0
O122 O 0.55916 0.06489 0.04137 0.0
O123 O 0.48434 0.98028 0.03194 0.0
O124 O 0.45713 0.01905 0.99613 0.0
C125 C 0.46358 0.98592 0.0037 0.0
O126 O 0.50566 0.03989 0.12759 0.0
O127 O 0.56203 0.02983 0.15097 0.0
C128 C 0.44879 0.07225 0.09637 0.0
C129 C 0.53001 0.04237 0.15446 0.0
Zn130 Zn 0.54546 0.58488 0.57614 0.0
Zn131 Zn 0.43122 0.47289 0.49963 0.0
Zn132 Zn 0.49622 0.53648 0.54922 0.0
C133 C 0.49024 0.44145 0.54451 0.0
C134 C 0.48006 0.52962 0.45925 0.0
O135 O 0.47091 0.57879 0.58692 0.0
O136 O 0.52114 0.61575 0.61026 0.0
C137 C 0.56137 0.5134 0.59962 0.0
O138 O 0.50433 0.4744 0.5579 0.0
O139 O 0.46299 0.43753 0.52119 0.0
O140 O 0.45425 0.50116 0.45873 0.0
O141 O 0.49605 0.54377 0.48906 0.0
O142 O 0.57438 0.5481 0.59892 0.0
O143 O 0.5308 0.50099 0.58105 0.0
O144 O 0.5297 0.56638 0.50523 0.0
O145 O 0.56782 0.6113 0.53437 0.0
C146 C 0.55611 0.59517 0.50512 0.0
O147 O 0.44356 0.55134 0.57402 0.0
O148 O 0.4215 0.50642 0.53747 0.0
C149 C 0.48514 0.60662 0.60802 0.0
C150 C 0.41505 0.52845 0.56234 0.0
Zn151 Zn 0.09586 0.61422 0.98222 0.0
Zn152 Zn 0.00151 0.53647 0.05371 0.0
Zn153 Zn 0.04568 0.5755 0.01288 0.0
C154 C 0.06676 0.50739 0.06837 0.0
C155 C 0.97527 0.51895 0.98319 0.0
O156 O 0.03316 0.63632 0.01726 0.0
O157 O 0.06874 0.65836 0.97155 0.0
C158 C 0.13448 0.58826 0.03668 0.0
O159 O 0.07753 0.53498 0.04663 0.0
O160 O 0.03185 0.50067 0.07714 0.0
O161 O 0.96645 0.51394 0.01588 0.0
O162 O 0.00596 0.54093 0.97475 0.0
O163 O 0.13748 0.61906 0.01965 0.0
O164 O 0.10296 0.56516 0.03413 0.0
O165 O 0.03856 0.55929 0.95495 0.0
O166 O 0.09903 0.57871 0.94087 0.0
C167 C 0.06647 0.56094 0.93224 0.0
O168 O 0.0161 0.61594 0.04597 0.0
O169 O 0.98315 0.57592 0.08309 0.0
C170 C 0.04263 0.66263 0.99392 0.0
C171 C 0.99331 0.60943 0.07302 0.0
C172 C 0.17591 0.20269 0.32393 0.0
C173 C 0.16006 0.18892 0.29064 0.0
C174 C 0.15768 0.19185 0.35666 0.0
C175 C 0.12355 0.1655 0.35615 0.0
C176 C 0.10665 0.15277 0.32234 0.0
C177 C 0.1249 0.165 0.29001 0.0
C178 C 0.17621 0.20691 0.39188 0.0
C179 C 0.07102 0.12388 0.32028 0.0
C180 C 0.11385 0.09524 0.43324 0.0
C181 C 0.08219 0.10547 0.45264 0.0
C182 C 0.12709 0.11439 0.40199 0.0
C183 C 0.10976 0.14621 0.39034 0.0
C184 C 0.0791 0.15817 0.4107 0.0
C185 C 0.06491 0.13701 0.44102 0.0
C186 C 0.15877 0.09943 0.38062 0.0
C187 C 0.06102 0.19297 0.40016 0.0
H188 H 0.20308 0.22125 0.32438 0.0
H189 H 0.11283 0.15413 0.26423 0.0
H190 H 0.154 0.21514 0.41062 0.0
H191 H 0.19056 0.18442 0.4052 0.0
H192 H 0.19826 0.23184 0.38772 0.0
H193 H 0.05915 0.11998 0.29225 0.0
H194 H 0.07838 0.09614 0.33 0.0
H195 H 0.04817 0.1324 0.33806 0.0
H196 H 0.12757 0.07091 0.44161 0.0
H197 H 0.03988 0.14467 0.45506 0.0
H198 H 0.18418 0.12144 0.37895 0.0
H199 H 0.14843 0.0924 0.35254 0.0
H200 H 0.16838 0.07361 0.39277 0.0
H201 H 0.08375 0.21769 0.3984 0.0
H202 H 0.03902 0.1998 0.41984 0.0
H203 H 0.0471 0.18872 0.37302 0.0
C204 C 0.37477 0.85427 0.83685 0.0
C205 C 0.38621 0.87703 0.80717 0.0
C206 C 0.38794 0.86494 0.87207 0.0
C207 C 0.41353 0.89883 0.87749 0.0
C208 C 0.42644 0.92094 0.84725 0.0
C209 C 0.41241 0.90989 0.81253 0.0
C210 C 0.37338 0.84075 0.90355 0.0
C211 C 0.45396 0.95712 0.85165 0.0
C212 C 0.41122 0.95872 0.96216 0.0
C213 C 0.44736 0.95552 0.97825 0.0
C214 C 0.39902 0.93883 0.93037 0.0
C215 C 0.42304 0.91407 0.91469 0.0
C216 C 0.45806 0.90806 0.93252 0.0
C217 C 0.47026 0.92952 0.96382 0.0
C218 C 0.36204 0.94706 0.91187 0.0
C219 C 0.48385 0.88101 0.91716 0.0
H220 H 0.35472 0.82868 0.83259 0.0
H221 H 0.42192 0.92701 0.78943 0.0
H222 H 0.39787 0.83504 0.92133 0.0
H223 H 0.35396 0.8562 0.92009 0.0
H224 H 0.35712 0.81329 0.89456 0.0
H225 H 0.46341 0.96943 0.82523 0.0
H226 H 0.4397 0.97844 0.86688 0.0
H227 H 0.47997 0.95177 0.86749 0.0
H228 H 0.39361 0.97913 0.97306 0.0
H229 H 0.49881 0.92799 0.97527 0.0
H230 H 0.34359 0.92029 0.90457 0.0
H231 H 0.36909 0.96255 0.88639 0.0
H232 H 0.34513 0.96459 0.92906 0.0
H233 H 0.46667 0.85339 0.91023 0.0
H234 H 0.50745 0.87602 0.93638 0.0
H235 H 0.49698 0.89269 0.89182 0.0
C236 C 0.61883 0.4063 0.77577 0.0
C237 C 0.6508 0.38699 0.77023 0.0
C238 C 0.60535 0.42825 0.74819 0.0
C239 C 0.62423 0.43013 0.71447 0.0
C240 C 0.65779 0.41206 0.70959 0.0
C241 C 0.67071 0.39049 0.73774 0.0
C242 C 0.57019 0.44817 0.75472 0.0
C243 C 0.67906 0.41428 0.67421 0.0
C244 C 0.56486 0.45207 0.6323 0.0
C245 C 0.57927 0.48999 0.62635 0.0
C246 C 0.58005 0.43175 0.66038 0.0
C247 C 0.60872 0.45059 0.68405 0.0
C248 C 0.62284 0.48901 0.67862 0.0
C249 C 0.60871 0.50788 0.64936 0.0
C250 C 0.56502 0.39039 0.66508 0.0
C251 C 0.65193 0.51061 0.70437 0.0
H252 H 0.60364 0.40322 0.80121 0.0
H253 H 0.6955 0.37527 0.7339 0.0
H254 H 0.57499 0.47784 0.74505 0.0
H255 H 0.54511 0.4334 0.73929 0.0
H256 H 0.56263 0.44851 0.78382 0.0
H257 H 0.70575 0.40017 0.67551 0.0
H258 H 0.65981 0.4006 0.65241 0.0
H259 H 0.68711 0.44432 0.66654 0.0
H260 H 0.54124 0.43854 0.61574 0.0
H261 H 0.61983 0.53743 0.64556 0.0
H262 H 0.55031 0.38636 0.69143 0.0
H263 H 0.58948 0.37313 0.66541 0.0
H264 H 0.54434 0.37945 0.64315 0.0
H265 H 0.6397 0.51079 0.73192 0.0
H266 H 0.66012 0.54048 0.69602 0.0
H267 H 0.67851 0.49647 0.70622 0.0
C268 C 0.91189 0.71105 0.24116 0.0
C269 C 0.91989 0.68275 0.26521 0.0
C270 C 0.92752 0.7125 0.20625 0.0
C271 C 0.9504 0.68427 0.19533 0.0
C272 C 0.96076 0.65751 0.22084 0.0
C273 C 0.94544 0.65728 0.25561 0.0
C274 C 0.91709 0.74237 0.18039 0.0
C275 C 0.98483 0.62661 0.21047 0.0
C276 C 0.94097 0.634 0.10583 0.0
C277 C 0.97932 0.6398 0.09441 0.0
C278 C 0.92966 0.65199 0.13696 0.0
C279 C 0.95731 0.67727 0.15642 0.0
C280 C 0.99436 0.68773 0.14166 0.0
C281 C 0.0054 0.66802 0.11113 0.0
C282 C 0.88987 0.63957 0.15161 0.0
C283 C 0.02365 0.71655 0.16029 0.0
H284 H 0.89191 0.73069 0.24888 0.0
H285 H 0.95125 0.63537 0.27448 0.0
H286 H 0.94107 0.75103 0.1616 0.0
H287 H 0.89138 0.7308 0.16393 0.0
H288 H 0.90982 0.76785 0.19517 0.0
H289 H 0.99224 0.60968 0.23412 0.0
H290 H 0.96862 0.60712 0.19035 0.0
H291 H 0.01208 0.63898 0.19776 0.0
H292 H 0.92086 0.61216 0.09266 0.0
H293 H 0.03516 0.67244 0.10232 0.0
H294 H 0.8759 0.66439 0.16041 0.0
H295 H 0.89247 0.62142 0.1756 0.0
H296 H 0.87064 0.6231 0.1313 0.0
H297 H 0.00944 0.73998 0.17214 0.0
H298 H 0.04621 0.72861 0.14124 0.0
H299 H 0.03809 0.7028 0.18263 0.0
C300 C 0.30519 0.17782 0.22006 0.0
C301 C 0.26784 0.16155 0.21005 0.0
C302 C 0.33794 0.16191 0.20816 0.0
C303 C 0.33308 0.12893 0.18582 0.0
C304 C 0.29516 0.11125 0.17752 0.0
C305 C 0.26302 0.12796 0.18951 0.0
C306 C 0.37767 0.18199 0.21729 0.0
C307 C 0.28845 0.07616 0.15381 0.0
C308 C 0.40398 0.11905 0.11066 0.0
C309 C 0.42418 0.08959 0.12277 0.0
C310 C 0.37545 0.13277 0.1315 0.0
C311 C 0.36671 0.11698 0.16584 0.0
C312 C 0.38848 0.08871 0.17935 0.0
C313 C 0.4171 0.07527 0.1576 0.0
C314 C 0.35338 0.16302 0.1158 0.0
C315 C 0.38037 0.07154 0.21602 0.0
H316 H 0.30881 0.20401 0.23572 0.0
H317 H 0.23405 0.11555 0.18168 0.0
H318 H 0.39735 0.16136 0.22587 0.0
H319 H 0.39015 0.19642 0.19286 0.0
H320 H 0.37686 0.2036 0.23908 0.0
H321 H 0.25776 0.06313 0.1538 0.0
H322 H 0.29643 0.08367 0.12558 0.0
H323 H 0.30701 0.05476 0.16296 0.0
H324 H 0.40963 0.13079 0.084 0.0
H325 H 0.43252 0.05251 0.16714 0.0
H326 H 0.35389 0.18723 0.13502 0.0
H327 H 0.32266 0.15126 0.11118 0.0
H328 H 0.36536 0.17392 0.08967 0.0
H329 H 0.37973 0.09418 0.2368 0.0
H330 H 0.40231 0.05297 0.22425 0.0
H331 H 0.35146 0.05446 0.21549 0.0
C332 C 0.23318 0.93144 0.70723 0.0
C333 C 0.26283 0.93719 0.68199 0.0
C334 C 0.19634 0.94205 0.69933 0.0
C335 C 0.18933 0.95832 0.66535 0.0
C336 C 0.21988 0.96502 0.64034 0.0
C337 C 0.25625 0.95437 0.64905 0.0
C338 C 0.16466 0.93467 0.72672 0.0
C339 C 0.21382 0.9821 0.60371 0.0
C340 C 0.09579 0.94718 0.6122 0.0
C341 C 0.08729 0.98467 0.61163 0.0
C342 C 0.12655 0.93705 0.63324 0.0
C343 C 0.14967 0.96532 0.65383 0.0
C344 C 0.13825 0.00219 0.65669 0.0
C345 C 0.10693 0.01148 0.63549 0.0
C346 C 0.13705 0.89722 0.62977 0.0
C347 C 0.16164 0.03292 0.6789 0.0
H348 H 0.23858 0.91806 0.73275 0.0
H349 H 0.27942 0.9587 0.62965 0.0
H350 H 0.14943 0.96007 0.73018 0.0
H351 H 0.14293 0.91119 0.7169 0.0
H352 H 0.17599 0.92678 0.75347 0.0
H353 H 0.24104 0.9872 0.58824 0.0
H354 H 0.19252 0.96278 0.58755 0.0
H355 H 0.20187 0.00944 0.60688 0.0
H356 H 0.08032 0.92641 0.59385 0.0
H357 H 0.10034 0.04052 0.635 0.0
H358 H 0.14559 0.88651 0.6564 0.0
H359 H 0.16211 0.8973 0.61157 0.0
H360 H 0.11272 0.87728 0.61831 0.0
H361 H 0.17096 0.02166 0.70506 0.0
H362 H 0.14507 0.0571 0.6843 0.0
H363 H 0.1881 0.04373 0.66397 0.0
C364 C 0.7752 0.42567 0.92099 0.0
C365 C 0.77347 0.39836 0.89335 0.0
C366 C 0.80958 0.44975 0.92825 0.0
C367 C 0.84305 0.44544 0.90799 0.0
C368 C 0.84064 0.41924 0.87875 0.0
C369 C 0.80566 0.39617 0.87158 0.0
C370 C 0.81084 0.47771 0.95938 0.0
C371 C 0.8758 0.41327 0.85707 0.0
C372 C 0.93132 0.51712 0.92903 0.0
C373 C 0.94906 0.49815 0.95641 0.0
C374 C 0.8978 0.49948 0.91112 0.0
C375 C 0.88155 0.46272 0.92176 0.0
C376 C 0.90085 0.44287 0.94799 0.0
C377 C 0.93462 0.46067 0.96454 0.0
C378 C 0.87832 0.52109 0.88276 0.0
C379 C 0.88424 0.40399 0.96081 0.0
H380 H 0.75008 0.42727 0.93766 0.0
H381 H 0.80413 0.37474 0.85035 0.0
H382 H 0.82729 0.46738 0.98241 0.0
H383 H 0.82595 0.50571 0.9515 0.0
H384 H 0.78141 0.48156 0.96876 0.0
H385 H 0.86806 0.39593 0.83227 0.0
H386 H 0.89179 0.44089 0.84923 0.0
H387 H 0.8957 0.39844 0.87395 0.0
H388 H 0.94175 0.54651 0.92362 0.0
H389 H 0.94824 0.44624 0.98606 0.0
H390 H 0.85072 0.52889 0.89336 0.0
H391 H 0.8712 0.50308 0.85832 0.0
H392 H 0.89669 0.54745 0.87479 0.0
H393 H 0.85684 0.40606 0.97522 0.0
H394 H 0.9043 0.39142 0.9795 0.0
H395 H 0.87737 0.38434 0.93748 0.0
C396 C 0.72451 0.66677 0.36878 0.0
C397 C 0.75577 0.66885 0.39315 0.0
C398 C 0.68705 0.65328 0.37986 0.0
C399 C 0.68124 0.64077 0.41582 0.0
C400 C 0.7132 0.64179 0.44018 0.0
C401 C 0.75016 0.65622 0.42856 0.0
C402 C 0.6538 0.65273 0.35326 0.0
C403 C 0.70823 0.62869 0.4788 0.0
C404 C 0.59065 0.6456 0.46849 0.0
C405 C 0.57762 0.60702 0.47252 0.0
C406 C 0.62249 0.65735 0.44702 0.0
C407 C 0.64163 0.62969 0.42937 0.0
C408 C 0.62564 0.59102 0.42987 0.0
C409 C 0.59346 0.58005 0.45151 0.0
C410 C 0.63816 0.69895 0.44663 0.0
C411 C 0.64494 0.56085 0.41087 0.0
H412 H 0.72931 0.67666 0.34134 0.0
H413 H 0.77469 0.65794 0.44716 0.0
H414 H 0.64325 0.62289 0.34611 0.0
H415 H 0.62941 0.66547 0.3654 0.0
H416 H 0.66239 0.66805 0.32799 0.0
H417 H 0.73633 0.6292 0.49349 0.0
H418 H 0.69026 0.64728 0.49355 0.0
H419 H 0.6929 0.59939 0.47937 0.0
H420 H 0.57802 0.66638 0.48468 0.0
H421 H 0.58331 0.55018 0.4548 0.0
H422 H 0.64652 0.70797 0.41889 0.0
H423 H 0.66449 0.70384 0.46414 0.0
H424 H 0.61682 0.71711 0.45681 0.0
H425 H 0.65309 0.56979 0.38307 0.0
H426 H 0.62597 0.5333 0.40937 0.0
H427 H 0.6719 0.55659 0.4258 0.0
C428 C 0.12542 0.32982 0.1669 0.0
C429 C 0.15744 0.31404 0.15403 0.0
C430 C 0.11631 0.36478 0.15375 0.0
C431 C 0.13965 0.38415 0.12686 0.0
C432 C 0.17287 0.36868 0.11481 0.0
C433 C 0.1814 0.33383 0.12865 0.0
C434 C 0.08052 0.37999 0.16725 0.0
C435 C 0.19877 0.3883 0.08653 0.0
C436 C 0.08416 0.44247 0.06382 0.0
C437 C 0.09236 0.47902 0.07867 0.0
C438 C 0.10083 0.41181 0.07823 0.0
C439 C 0.12644 0.41775 0.10842 0.0
C440 C 0.13667 0.45517 0.12218 0.0
C441 C 0.11906 0.48541 0.1074 0.0
C442 C 0.08929 0.37266 0.06229 0.0
C443 C 0.16463 0.46295 0.15363 0.0
H444 H 0.10674 0.31421 0.18631 0.0
H445 H 0.20611 0.32135 0.11863 0.0
H446 H 0.08748 0.41013 0.17575 0.0
H447 H 0.05863 0.37885 0.14503 0.0
H448 H 0.06751 0.36353 0.19042 0.0
H449 H 0.22127 0.37084 0.07757 0.0
H450 H 0.18154 0.39514 0.06252 0.0
H451 H 0.2134 0.41542 0.09786 0.0
H452 H 0.06304 0.43754 0.0419 0.0
H453 H 0.12489 0.51361 0.11924 0.0
H454 H 0.07281 0.35448 0.08247 0.0
H455 H 0.11539 0.35918 0.05559 0.0
H456 H 0.07108 0.37324 0.03743 0.0
H457 H 0.15117 0.45044 0.17852 0.0
H458 H 0.17299 0.49383 0.15835 0.0
H459 H 0.19115 0.44941 0.14887 0.0
C460 C 0.7032 0.24266 0.92527 0.0
C461 C 0.69695 0.27925 0.936 0.0
C462 C 0.68622 0.21085 0.94387 0.0
C463 C 0.6621 0.216 0.9735 0.0
C464 C 0.65864 0.25313 0.98639 0.0
C465 C 0.67631 0.28451 0.9674 0.0
C466 C 0.69079 0.17179 0.92943 0.0
C467 C 0.63285 0.25978 0.01766 0.0
C468 C 0.57351 0.14348 0.9783 0.0
C469 C 0.58192 0.12195 0.00836 0.0
C470 C 0.59916 0.17441 0.96722 0.0
C471 C 0.63486 0.18344 0.98594 0.0
C472 C 0.64401 0.16146 0.01589 0.0
C473 C 0.61697 0.13127 0.0272 0.0
C474 C 0.58761 0.19785 0.93583 0.0
C475 C 0.68209 0.17004 0.03599 0.0
H476 H 0.71904 0.23887 0.90072 0.0
H477 H 0.67122 0.31294 0.97525 0.0
H478 H 0.69545 0.15229 0.95192 0.0
H479 H 0.66394 0.15995 0.91473 0.0
H480 H 0.7153 0.17244 0.91045 0.0
H481 H 0.63816 0.28948 0.02795 0.0
H482 H 0.60215 0.25391 0.00865 0.0
H483 H 0.63716 0.24029 0.04022 0.0
H484 H 0.54622 0.13666 0.96379 0.0
H485 H 0.62246 0.11604 0.05154 0.0
H486 H 0.60826 0.19672 0.91341 0.0
H487 H 0.58861 0.22801 0.94432 0.0
H488 H 0.55803 0.18789 0.92529 0.0
H489 H 0.70594 0.16466 0.01782 0.0
H490 H 0.68342 0.15245 0.06056 0.0
H491 H 0.68721 0.20041 0.04409 0.0
C492 C 0.88758 0.78057 0.42421 0.0
C493 C 0.86063 0.77669 0.39566 0.0
C494 C 0.90089 0.81648 0.4388 0.0
C495 C 0.88704 0.84909 0.42413 0.0
C496 C 0.85965 0.84508 0.39526 0.0
C497 C 0.84653 0.80874 0.38149 0.0
C498 C 0.93023 0.81958 0.4695 0.0
C499 C 0.84483 0.87918 0.37853 0.0
C500 C 0.90996 0.93821 0.4823 0.0
C501 C 0.94537 0.95331 0.46774 0.0
C502 C 0.88903 0.90526 0.46697 0.0
C503 C 0.90421 0.8874 0.43677 0.0
C504 C 0.93832 0.90452 0.42043 0.0
C505 C 0.95817 0.93742 0.4359 0.0
C506 C 0.85229 0.88804 0.4846 0.0
C507 C 0.95579 0.88641 0.38845 0.0
H508 H 0.89794 0.75544 0.43527 0.0
H509 H 0.8254 0.8053 0.35951 0.0
H510 H 0.95748 0.83639 0.46086 0.0
H511 H 0.91932 0.83473 0.49284 0.0
H512 H 0.93692 0.79137 0.47866 0.0
H513 H 0.82234 0.87108 0.35732 0.0
H514 H 0.83254 0.89628 0.3997 0.0
H515 H 0.8691 0.89764 0.36619 0.0
H516 H 0.9001 0.9504 0.50696 0.0
H517 H 0.9854 0.94938 0.42435 0.0
H518 H 0.8577 0.86187 0.49897 0.0
H519 H 0.82936 0.87981 0.46388 0.0
H520 H 0.84155 0.90784 0.50439 0.0
H521 H 0.96682 0.85988 0.39715 0.0
H522 H 0.98016 0.90535 0.37673 0.0
H523 H 0.93365 0.87867 0.36693 0.0
C524 C 0.40897 0.79042 0.67529 0.0
C525 C 0.3811 0.78774 0.70233 0.0
C526 C 0.42228 0.75784 0.66105 0.0
C527 C 0.40661 0.72166 0.6736 0.0
C528 C 0.37757 0.71876 0.7002 0.0
C529 C 0.36552 0.75199 0.71469 0.0
C530 C 0.45395 0.76223 0.63335 0.0
C531 C 0.35967 0.68066 0.71364 0.0
C532 C 0.42784 0.64206 0.6109 0.0
C533 C 0.46048 0.63041 0.62773 0.0
C534 C 0.40796 0.6697 0.62704 0.0
C535 C 0.42227 0.68727 0.65992 0.0
C536 C 0.45463 0.67476 0.67757 0.0
C537 C 0.47324 0.64635 0.6613 0.0
C538 C 0.37307 0.68163 0.60774 0.0
C539 C 0.47124 0.69313 0.71236 0.0
H540 H 0.42124 0.8182 0.66613 0.0
H541 H 0.3439 0.75012 0.73562 0.0
H542 H 0.47974 0.75021 0.64397 0.0
H543 H 0.44422 0.74622 0.60829 0.0
H544 H 0.46273 0.79237 0.62626 0.0
H545 H 0.33523 0.68317 0.73211 0.0
H546 H 0.34905 0.66198 0.69044 0.0
H547 H 0.38182 0.66653 0.7283 0.0
H548 H 0.41892 0.63089 0.58428 0.0
H549 H 0.49891 0.63773 0.6741 0.0
H550 H 0.38124 0.70936 0.59457 0.0
H551 H 0.34981 0.68524 0.62718 0.0
H552 H 0.36146 0.66063 0.58662 0.0
H553 H 0.48393 0.72275 0.70699 0.0
H554 H 0.49412 0.67774 0.72436 0.0
H555 H 0.44818 0.69441 0.73253 0.0
C556 C 0.94799 0.95263 0.81883 0.0
C557 C 0.9749 0.96096 0.84706 0.0
C558 C 0.95738 0.96255 0.78307 0.0
C559 C 0.99461 0.98147 0.77539 0.0
C560 C 0.02252 0.98838 0.80375 0.0
C561 C 0.01226 0.9781 0.83939 0.0
C562 C 0.9266 0.95479 0.75386 0.0
C563 C 0.06249 0.00831 0.79674 0.0
C564 C 0.01324 0.99262 0.67421 0.0
C565 C 0.00082 0.02808 0.66809 0.0
C566 C 0.01439 0.978 0.70958 0.0
C567 C 0.00176 0.99894 0.73908 0.0
C568 C 0.99138 0.03564 0.73307 0.0
C569 C 0.99141 0.04977 0.69786 0.0
C570 C 0.02693 0.93931 0.71501 0.0
C571 C 0.97747 0.05907 0.76342 0.0
H572 H 0.91912 0.93936 0.82499 0.0
H573 H 0.03299 0.98452 0.86142 0.0
H574 H 0.91802 0.98204 0.7441 0.0
H575 H 0.93803 0.94024 0.73041 0.0
H576 H 0.90037 0.937 0.76363 0.0
H577 H 0.08223 0.00725 0.82049 0.0
H578 H 0.07522 0.99539 0.77301 0.0
H579 H 0.0607 0.03849 0.7903 0.0
H580 H 0.01977 0.97537 0.65137 0.0
H581 H 0.98211 0.07741 0.69339 0.0
H582 H 0.00115 0.9184 0.71978 0.0
H583 H 0.04624 0.93937 0.73915 0.0
H584 H 0.04226 0.92983 0.69107 0.0
H585 H 0.94937 0.04504 0.77327 0.0
H586 H 0.97349 0.08822 0.75474 0.0
H587 H 0.99824 0.06119 0.78656 0.0
C588 C 0.60142 0.09106 0.34368 0.0
C589 C 0.57743 0.09549 0.3733 0.0
C590 C 0.58607 0.08234 0.3089 0.0
C591 C 0.54564 0.07981 0.30271 0.0
C592 C 0.5211 0.08504 0.33201 0.0
C593 C 0.53716 0.09215 0.36701 0.0
C594 C 0.61333 0.07562 0.27873 0.0
C595 C 0.47791 0.08308 0.32636 0.0
C596 C 0.52556 0.09106 0.20251 0.0
C597 C 0.51976 0.05311 0.1912 0.0
C598 C 0.5301 0.10045 0.23956 0.0
C599 C 0.52968 0.0711 0.26543 0.0
C600 C 0.52023 0.03285 0.25407 0.0
C601 C 0.51525 0.0244 0.21706 0.0
C602 C 0.53899 0.1416 0.25064 0.0
C603 C 0.52 0.00043 0.28024 0.0
H604 H 0.63253 0.09463 0.34741 0.0
H605 H 0.51793 0.09467 0.3894 0.0
H606 H 0.60411 0.04776 0.26543 0.0
H607 H 0.61256 0.09776 0.25785 0.0
H608 H 0.64368 0.07603 0.28852 0.0
H609 H 0.46282 0.0891 0.35164 0.0
H610 H 0.47143 0.1038 0.30552 0.0
H611 H 0.46589 0.05452 0.31613 0.0
H612 H 0.52964 0.11318 0.1824 0.0
H613 H 0.51137 0.99498 0.20807 0.0
H614 H 0.57032 0.14815 0.25706 0.0
H615 H 0.52294 0.14751 0.27535 0.0
H616 H 0.53153 0.16084 0.22881 0.0
H617 H 0.55028 0.99567 0.2864 0.0
H618 H 0.50444 0.97368 0.26875 0.0
H619 H 0.50642 0.0069 0.30612 0.0
C620 C 0.53335 0.59363 0.25757 0.0
C621 C 0.49787 0.59769 0.24092 0.0
C622 C 0.5361 0.5896 0.29521 0.0
C623 C 0.50244 0.58929 0.31624 0.0
C624 C 0.46711 0.59611 0.29956 0.0
C625 C 0.46525 0.60016 0.26188 0.0
C626 C 0.57422 0.58221 0.31177 0.0
C627 C 0.43053 0.59575 0.32103 0.0
C628 C 0.48883 0.52102 0.39377 0.0
C629 C 0.49163 0.54552 0.42385 0.0
C630 C 0.49351 0.53499 0.35876 0.0
C631 C 0.50208 0.57453 0.35367 0.0
C632 C 0.50751 0.59933 0.38405 0.0
C633 C 0.50137 0.58455 0.41895 0.0
C634 C 0.48746 0.50741 0.3272 0.0
C635 C 0.51856 0.64141 0.37961 0.0
H636 H 0.55849 0.5916 0.24104 0.0
H637 H 0.43783 0.6032 0.24865 0.0
H638 H 0.57761 0.59304 0.34002 0.0
H639 H 0.57555 0.55117 0.31222 0.0
H640 H 0.59886 0.5954 0.29559 0.0
H641 H 0.40677 0.60593 0.30494 0.0
H642 H 0.42081 0.56638 0.32993 0.0
H643 H 0.43595 0.61376 0.3457 0.0
H644 H 0.48157 0.49073 0.39753 0.0
H645 H 0.50265 0.6036 0.4421 0.0
H646 H 0.51308 0.51067 0.30954 0.0
H647 H 0.46221 0.51355 0.31062 0.0
H648 H 0.48226 0.47741 0.33603 0.0
H649 H 0.54386 0.64679 0.36164 0.0
H650 H 0.52579 0.65611 0.40595 0.0
H651 H 0.49428 0.65394 0.36662 0.0
C652 C 0.03958 0.46248 0.73604 0.0
C653 C 0.04539 0.48988 0.70914 0.0
C654 C 0.04245 0.47288 0.77276 0.0
C655 C 0.05124 0.51165 0.7826 0.0
C656 C 0.05746 0.53944 0.75526 0.0
C657 C 0.05447 0.52814 0.71866 0.0
C658 C 0.03618 0.4424 0.80104 0.0
C659 C 0.06727 0.581 0.76466 0.0
C660 C 0.02528 0.54188 0.87734 0.0
C661 C 0.06122 0.54482 0.8952 0.0
C662 C 0.02154 0.53112 0.84063 0.0
C663 C 0.05455 0.52291 0.82152 0.0
C664 C 0.09076 0.52507 0.83969 0.0
C665 C 0.09365 0.53608 0.87623 0.0
C666 C 0.98251 0.52944 0.82205 0.0
C667 C 0.12659 0.51617 0.82048 0.0
H668 H 0.03277 0.43284 0.72831 0.0
H669 H 0.05915 0.54914 0.69754 0.0
H670 H 0.06217 0.44335 0.81887 0.0
H671 H 0.01159 0.44751 0.81839 0.0
H672 H 0.03006 0.41353 0.78886 0.0
H673 H 0.07075 0.59902 0.74022 0.0
H674 H 0.04419 0.5906 0.78153 0.0
H675 H 0.09453 0.5855 0.78087 0.0
H676 H 0.00047 0.54953 0.89161 0.0
H677 H 0.12159 0.53834 0.88992 0.0
H678 H 0.97383 0.50068 0.81045 0.0
H679 H 0.98419 0.54971 0.79928 0.0
H680 H 0.95968 0.53636 0.84076 0.0
H681 H 0.12206 0.48665 0.80977 0.0
H682 H 0.15259 0.51939 0.83852 0.0
H683 H 0.13235 0.53521 0.79703 0.0
C684 C 0.82413 0.9937 0.01534 0.0
C685 C 0.8346 0.99947 0.97926 0.0
C686 C 0.78644 0.99777 0.02661 0.0
C687 C 0.75879 0.00801 0.00112 0.0
C688 C 0.76959 0.014 0.96461 0.0
C689 C 0.80743 0.00962 0.95412 0.0
C690 C 0.77621 0.99117 0.06579 0.0
C691 C 0.74119 0.02511 0.93667 0.0
C692 C 0.65282 0.98116 0.02348 0.0
C693 C 0.64262 0.01502 0.0382 0.0
C694 C 0.69016 0.97876 0.01067 0.0
C695 C 0.71826 0.01112 0.01243 0.0
C696 C 0.7079 0.04579 0.02628 0.0
C697 C 0.6702 0.04726 0.03921 0.0
C698 C 0.7 0.94105 0.99682 0.0
C699 C 0.73699 0.08097 0.02847 0.0
H700 H 0.8455 0.98632 0.03478 0.0
H701 H 0.81592 0.01453 0.92627 0.0
H702 H 0.76565 0.01678 0.0775 0.0
H703 H 0.75242 0.96745 0.06779 0.0
H704 H 0.80122 0.98429 0.08235 0.0
H705 H 0.75429 0.02938 0.90956 0.0
H706 H 0.71597 0.0028 0.93438 0.0
H707 H 0.73014 0.05173 0.94524 0.0
H708 H 0.63179 0.95593 0.0233 0.0
H709 H 0.66327 0.07283 0.05218 0.0
H710 H 0.72246 0.93101 0.01462 0.0
H711 H 0.71216 0.94419 0.96929 0.0
H712 H 0.67443 0.91897 0.99585 0.0
H713 H 0.76441 0.07463 0.04129 0.0
H714 H 0.72613 0.1041 0.04416 0.0
H715 H 0.74381 0.09122 0.00075 0.0
C716 C 0.69176 0.04658 0.45656 0.0
C717 C 0.68474 0.0839 0.46414 0.0
C718 C 0.72779 0.03439 0.46484 0.0
C719 C 0.75771 0.06022 0.48067 0.0
C720 C 0.75076 0.09798 0.48824 0.0
C721 C 0.71439 0.10926 0.48004 0.0
C722 C 0.73371 0.99377 0.45704 0.0
C723 C 0.78173 0.12656 0.50513 0.0
C724 C 0.8392 0.0294 0.53801 0.0
C725 C 0.87106 0.0371 0.51529 0.0
C726 C 0.80174 0.03453 0.52635 0.0
C727 C 0.79582 0.04767 0.49092 0.0
C728 C 0.82739 0.05245 0.46682 0.0
C729 C 0.86478 0.04709 0.47932 0.0
C730 C 0.76922 0.02927 0.55313 0.0
C731 C 0.82228 0.06633 0.42882 0.0
H732 H 0.66883 0.02673 0.44461 0.0
H733 H 0.7093 0.13823 0.4856 0.0
H734 H 0.75875 0.99291 0.43898 0.0
H735 H 0.74051 0.97961 0.48256 0.0
H736 H 0.70782 0.97735 0.44411 0.0
H737 H 0.77188 0.1549 0.50882 0.0
H738 H 0.7906 0.11644 0.53192 0.0
H739 H 0.80773 0.12971 0.48792 0.0
H740 H 0.84416 0.02239 0.56607 0.0
H741 H 0.88945 0.05403 0.462 0.0
H742 H 0.74319 0.01267 0.54076 0.0
H743 H 0.76115 0.05741 0.56108 0.0
H744 H 0.77747 0.01467 0.578 0.0
H745 H 0.79716 0.04944 0.4152 0.0
H746 H 0.84842 0.06475 0.41229 0.0
H747 H 0.81623 0.09627 0.42977 0.0
C748 C 0.34735 0.57631 0.06697 0.0
C749 C 0.36198 0.57558 0.10239 0.0
C750 C 0.30766 0.56823 0.05975 0.0
C751 C 0.28216 0.55865 0.08867 0.0
C752 C 0.29735 0.5529 0.12363 0.0
C753 C 0.3373 0.56169 0.13019 0.0
C754 C 0.29279 0.57455 0.02197 0.0
C755 C 0.27112 0.54136 0.1548 0.0
C756 C 0.19327 0.60701 0.07409 0.0
C757 C 0.16827 0.57827 0.05696 0.0
C758 C 0.22932 0.59993 0.0876 0.0
C759 C 0.24067 0.56318 0.08354 0.0
C760 C 0.21416 0.53329 0.06893 0.0
C761 C 0.1782 0.5413 0.0555 0.0
C762 C 0.25648 0.63264 0.10341 0.0
C763 C 0.22478 0.49363 0.06491 0.0
H764 H 0.36662 0.58638 0.04537 0.0
H765 H 0.34861 0.56088 0.15762 0.0
H766 H 0.27033 0.55112 0.01355 0.0
H767 H 0.27928 0.60126 0.02156 0.0
H768 H 0.31629 0.57686 0.00181 0.0
H769 H 0.28727 0.53063 0.17786 0.0
H770 H 0.25762 0.56625 0.16437 0.0
H771 H 0.24745 0.51915 0.14618 0.0
H772 H 0.18531 0.63555 0.07543 0.0
H773 H 0.159 0.51918 0.04178 0.0
H774 H 0.28084 0.64009 0.08471 0.0
H775 H 0.26892 0.62457 0.12957 0.0
H776 H 0.24183 0.6583 0.1079 0.0
H777 H 0.24448 0.49247 0.04174 0.0
H778 H 0.19883 0.47261 0.05987 0.0
H779 H 0.24025 0.4854 0.08947 0.0
C780 C 0.19154 0.50993 0.57802 0.0
C781 C 0.17723 0.48708 0.60659 0.0
C782 C 0.23086 0.52387 0.57677 0.0
C783 C 0.25612 0.514 0.60449 0.0
C784 C 0.24111 0.49333 0.63479 0.0
C785 C 0.20155 0.48007 0.63549 0.0
C786 C 0.24592 0.54562 0.54391 0.0
C787 C 0.26733 0.48159 0.66437 0.0
C788 C 0.3506 0.49216 0.56743 0.0
C789 C 0.3758 0.52477 0.57703 0.0
C790 C 0.31206 0.48789 0.57751 0.0
C791 C 0.298 0.51726 0.59745 0.0
C792 C 0.32348 0.54961 0.60867 0.0
C793 C 0.36249 0.55268 0.59869 0.0
C794 C 0.28621 0.45239 0.56558 0.0
C795 C 0.30927 0.58154 0.62974 0.0
H796 H 0.17243 0.51484 0.5556 0.0
H797 H 0.19016 0.46191 0.65727 0.0
H798 H 0.26782 0.56975 0.55192 0.0
H799 H 0.26022 0.52663 0.52589 0.0
H800 H 0.22233 0.55661 0.52824 0.0
H801 H 0.2509 0.47152 0.6887 0.0
H802 H 0.28275 0.45818 0.65423 0.0
H803 H 0.28953 0.50548 0.67233 0.0
H804 H 0.36085 0.46981 0.55142 0.0
H805 H 0.38209 0.57713 0.60703 0.0
H806 H 0.264 0.45986 0.54602 0.0
H807 H 0.27085 0.43883 0.58909 0.0
H808 H 0.30259 0.43122 0.55246 0.0
H809 H 0.29123 0.59719 0.61168 0.0
H810 H 0.33352 0.60187 0.64077 0.0
H811 H 0.29083 0.57031 0.65239 0.0
C812 C 0.93269 0.84546 0.95618 0.0
C813 C 0.96153 0.87654 0.9546 0.0
C814 C 0.94152 0.80985 0.96784 0.0
C815 C 0.98 0.80553 0.97841 0.0
C816 C 0.00854 0.83769 0.97908 0.0
C817 C 0.99903 0.87272 0.96679 0.0
C818 C 0.91031 0.77635 0.96639 0.0
C819 C 0.0498 0.8346 0.99046 0.0
C820 C 0.00767 0.71448 0.02063 0.0
C821 C 0.02278 0.69717 0.99076 0.0
C822 C 0.99243 0.7493 0.01715 0.0
C823 C 0.99203 0.76687 0.98283 0.0
C824 C 0.00568 0.7485 0.95234 0.0
C825 C 0.02098 0.71416 0.95673 0.0
C826 C 0.97833 0.76795 0.0504 0.0
C827 C 0.00538 0.76571 0.91509 0.0
H828 H 0.90373 0.84855 0.94654 0.0
H829 H 0.02125 0.89691 0.96552 0.0
H830 H 0.91589 0.75726 0.94364 0.0
H831 H 0.91057 0.75971 0.99162 0.0
H832 H 0.88109 0.78519 0.96236 0.0
H833 H 0.06698 0.86289 0.99437 0.0
H834 H 0.05061 0.81854 0.016 0.0
H835 H 0.06382 0.81883 0.96938 0.0
H836 H 0.00925 0.70174 0.04686 0.0
H837 H 0.03208 0.70072 0.93329 0.0
H838 H 0.94958 0.77727 0.04507 0.0
H839 H 0.99862 0.79365 0.05748 0.0
H840 H 0.97625 0.74871 0.07403 0.0
H841 H 0.976 0.77253 0.90801 0.0
H842 H 0.0145 0.74653 0.89382 0.0
H843 H 0.02525 0.79265 0.91481 0.0
C844 C 0.48657 0.71658 0.09562 0.0
C845 C 0.44903 0.69787 0.10019 0.0
C846 C 0.49285 0.7556 0.0884 0.0
C847 C 0.46079 0.77621 0.08454 0.0
C848 C 0.42286 0.75712 0.0867 0.0
C849 C 0.41745 0.71854 0.09534 0.0
C850 C 0.53382 0.77515 0.08694 0.0
C851 C 0.38792 0.77791 0.08179 0.0
C852 C 0.47592 0.87783 0.11781 0.0
C853 C 0.48344 0.89806 0.08574 0.0
C854 C 0.4681 0.8383 0.11753 0.0
C855 C 0.46684 0.81833 0.08419 0.0
C856 C 0.47207 0.83863 0.05141 0.0
C857 C 0.48067 0.87841 0.05263 0.0
C858 C 0.46287 0.81787 0.15318 0.0
C859 C 0.47026 0.81838 0.01526 0.0
H860 H 0.51123 0.70097 0.09832 0.0
H861 H 0.38825 0.70509 0.09952 0.0
H862 H 0.53787 0.79262 0.06225 0.0
H863 H 0.53961 0.7946 0.1106 0.0
H864 H 0.55547 0.75469 0.08725 0.0
H865 H 0.36075 0.7581 0.07865 0.0
H866 H 0.38519 0.79647 0.10567 0.0
H867 H 0.39122 0.79635 0.05767 0.0
H868 H 0.47775 0.89289 0.14355 0.0
H869 H 0.48712 0.89379 0.02798 0.0
H870 H 0.48535 0.79857 0.15657 0.0
H871 H 0.43432 0.80018 0.15357 0.0
H872 H 0.46482 0.83774 0.17671 0.0
H873 H 0.49694 0.80476 0.0117 0.0
H874 H 0.46782 0.83817 0.99247 0.0
H875 H 0.44534 0.79566 0.01385 0.0
C876 C 0.07025 0.35908 0.53504 0.0
C877 C 0.09687 0.37061 0.56288 0.0
C878 C 0.06359 0.32084 0.52404 0.0
C879 C 0.08277 0.29359 0.54249 0.0
C880 C 0.11192 0.30576 0.56862 0.0
C881 C 0.11889 0.34427 0.5782 0.0
C882 C 0.03326 0.30913 0.49521 0.0
C883 C 0.13229 0.27776 0.5898 0.0
C884 C 0.01789 0.20496 0.56688 0.0
C885 C 0.03256 0.17661 0.5464 0.0
C886 C 0.0342 0.24275 0.5657 0.0
C887 C 0.06522 0.25328 0.54216 0.0
C888 C 0.07973 0.22526 0.52047 0.0
C889 C 0.0639 0.18692 0.52368 0.0
C890 C 0.01849 0.27123 0.59041 0.0
C891 C 0.11177 0.23575 0.49402 0.0
H892 H 0.05362 0.37966 0.52291 0.0
H893 H 0.13946 0.35332 0.59981 0.0
H894 H 0.04209 0.28621 0.47776 0.0
H895 H 0.00571 0.29798 0.5082 0.0
H896 H 0.02781 0.33345 0.47799 0.0
H897 H 0.15829 0.29182 0.60451 0.0
H898 H 0.11213 0.26365 0.60993 0.0
H899 H 0.14114 0.25536 0.57181 0.0
H900 H 0.99378 0.19764 0.58476 0.0
H901 H 0.07641 0.16517 0.50901 0.0
H902 H 0.00625 0.29307 0.57415 0.0
H903 H 0.04211 0.28595 0.6077 0.0
H904 H 0.99548 0.25782 0.60834 0.0
H905 H 0.10313 0.25716 0.47484 0.0
H906 H 0.11888 0.21079 0.47829 0.0
H907 H 0.13822 0.24886 0.50853 0.0
C908 C 0.55528 0.2502 0.48443 0.0
C909 C 0.56333 0.22461 0.51116 0.0
C910 C 0.547 0.2868 0.49386 0.0
C911 C 0.54674 0.29782 0.53089 0.0
C912 C 0.55571 0.27207 0.55783 0.0
C913 C 0.56384 0.23571 0.54761 0.0
C914 C 0.53709 0.31314 0.46427 0.0
C915 C 0.55532 0.28241 0.59752 0.0
C916 C 0.54631 0.40385 0.54899 0.0
C917 C 0.50669 0.4059 0.55235 0.0
C918 C 0.5602 0.36854 0.54411 0.0
C919 C 0.53367 0.33484 0.54145 0.0
C920 C 0.49388 0.33672 0.54698 0.0
C921 C 0.48105 0.37207 0.55291 0.0
C922 C 0.60295 0.36761 0.5394 0.0
C923 C 0.46436 0.30178 0.54394 0.0
H924 H 0.55466 0.24133 0.45625 0.0
H925 H 0.56983 0.21561 0.56823 0.0
H926 H 0.50635 0.31799 0.46642 0.0
H927 H 0.55496 0.34113 0.46733 0.0
H928 H 0.54159 0.30154 0.43685 0.0
H929 H 0.56732 0.26113 0.6148 0.0
H930 H 0.57219 0.31061 0.60264 0.0
H931 H 0.52517 0.28439 0.60586 0.0
H932 H 0.5661 0.42988 0.54777 0.0
H933 H 0.45026 0.37357 0.55512 0.0
H934 H 0.60868 0.36127 0.51068 0.0
H935 H 0.61307 0.3448 0.556 0.0
H936 H 0.62006 0.39509 0.54711 0.0
H937 H 0.46357 0.29042 0.51583 0.0
H938 H 0.4348 0.30779 0.5509 0.0
H939 H 0.47252 0.27921 0.56198 0.0
loop_
_geom_bond_atom_site_label_1
_geom_bond_atom_site_label_2
_geom_bond_distance
_geom_bond_site_symmetry_2
_ccdc_geom_bond_type
H0 C3 0.929 . S
H1 C6 0.929 . S
H2 C8 0.930 . S
C3 H0 0.929 . S
C3 C4 1.398 . S
C3 C5 1.396 . S
C4 C3 1.398 . S
C4 C8 1.407 . S
C5 C3 1.396 . S
C5 C6 1.394 . S
C6 H1 0.929 . S
C6 C5 1.394 . S
C6 C7 1.382 . S
C7 C6 1.382 . S
C7 C8 1.392 . S
C7 N9 1.420 . S
C8 H2 0.930 . S
C8 C4 1.407 . S
C8 C7 1.392 . S
N9 C7 1.420 . S
N9 C10 1.244 . S
C10 N9 1.244 . S
H11 C14 0.929 . S
H12 C17 0.929 . S
H13 C19 0.930 . S
C14 H11 0.929 . S
C14 C15 1.398 . S
C14 C16 1.396 . S
C15 C14 1.398 . S
C15 C19 1.407 . S
C16 C14 1.396 . S
C16 C17 1.394 . S
C17 H12 0.929 . S
C17 C16 1.394 . S
C17 C18 1.382 . S
C18 C17 1.382 . S
C18 C19 1.392 . S
C18 N20 1.420 . S
C19 H13 0.930 . S
C19 C15 1.407 . S
C19 C18 1.392 . S
N20 C18 1.420 . S
N20 C21 1.244 . S
C21 N20 1.244 . S
H22 C25 0.929 . S
H23 C28 0.929 . S
H24 C30 0.930 . S
C25 H22 0.929 . S
C25 C26 1.398 . S
C25 C27 1.396 . S
C26 C25 1.398 . S
C26 C30 1.407 . S
C27 C25 1.396 . S
C27 C28 1.394 . S
C28 H23 0.929 . S
C28 C27 1.394 . S
C28 C29 1.382 . S
C29 C28 1.382 . S
C29 C30 1.392 . S
C29 N31 1.420 . S
C30 H24 0.930 . S
C30 C26 1.407 . S
C30 C29 1.392 . S
N31 C29 1.420 . S
N31 C32 1.244 . S
C32 N31 1.244 . S
H33 C36 0.929 . S
H34 C39 0.929 . S
H35 C41 0.930 . S
C36 H33 0.929 . S
C36 C37 1.398 . S
C36 C38 1.396 . S
C37 C36 1.398 . S
C37 C41 1.407 . S
C38 C36 1.396 . S
C38 C39 1.394 . S
C39 H34 0.929 . S
C39 C38 1.394 . S
C39 C40 1.382 . S
C40 C39 1.382 . S
C40 C41 1.392 . S
C40 N42 1.420 . S
C41 H35 0.930 . S
C41 C37 1.407 . S
C41 C40 1.392 . S
N42 C40 1.420 . S
N42 C43 1.244 . S
C43 N42 1.244 . S
H44 C47 0.929 . S
H45 C50 0.929 . S
H46 C52 0.930 1_545 S
C47 H44 0.929 . S
C47 C48 1.398 . S
C47 C49 1.396 . S
C48 C47 1.398 . S
C48 C52 1.407 . S
C49 C47 1.396 . S
C49 C50 1.394 . S
C50 H45 0.929 . S
C50 C49 1.394 . S
C50 C51 1.382 . S
C51 C50 1.382 . S
C51 C52 1.392 . S
C51 N53 1.420 1_565 S
C52 H46 0.930 1_565 S
C52 C48 1.407 . S
C52 C51 1.392 . S
N53 C51 1.420 1_545 S
N53 C54 1.244 1_545 S
C54 N53 1.244 1_565 S
H55 C58 0.929 . S
H56 C61 0.929 . S
H57 C63 0.930 . S
C58 H55 0.929 . S
C58 C59 1.398 . S
C58 C60 1.396 . S
C59 C58 1.398 . S
C59 C63 1.407 . S
C60 C58 1.396 . S
C60 C61 1.394 . S
C61 H56 0.929 . S
C61 C60 1.394 . S
C61 C62 1.382 . S
C62 C61 1.382 . S
C62 C63 1.392 . S
C62 N64 1.420 . S
C63 H57 0.930 . S
C63 C59 1.407 . S
C63 C62 1.392 . S
N64 C62 1.420 . S
N64 C65 1.244 . S
C65 N64 1.244 . S
H66 C69 0.929 . S
H67 C72 0.929 . S
H68 C74 0.930 . S
C69 H66 0.929 . S
C69 C70 1.398 . S
C69 C71 1.396 . S
C70 C69 1.398 . S
C70 C74 1.407 . S
C71 C69 1.396 . S
C71 C72 1.394 . S
C72 H67 0.929 . S
C72 C71 1.394 . S
C72 C73 1.382 . S
C73 C72 1.382 . S
C73 C74 1.392 . S
C73 N75 1.420 . S
C74 H68 0.930 . S
C74 C70 1.407 . S
C74 C73 1.392 . S
N75 C73 1.420 . S
N75 C76 1.244 . S
C76 N75 1.244 . S
H77 C80 0.929 . S
H78 C83 0.929 . S
H79 C85 0.930 . S
C80 H77 0.929 . S
C80 C81 1.398 . S
C80 C82 1.396 . S
C81 C80 1.398 . S
C81 C85 1.407 . S
C82 C80 1.396 . S
C82 C83 1.394 . S
C83 H78 0.929 . S
C83 C82 1.394 . S
C83 C84 1.382 . S
C84 C83 1.382 . S
C84 C85 1.392 . S
C84 N86 1.420 . S
C85 H79 0.930 . S
C85 C81 1.407 . S
C85 C84 1.392 . S
N86 C84 1.420 . S
N86 C87 1.244 . S
C87 N86 1.244 . S
Zn88 O94 1.920 . S
Zn88 O100 1.898 . S
Zn88 O103 1.905 . S
Zn89 O97 1.905 1_565 S
Zn89 O98 1.898 . S
Zn89 O106 1.920 . S
Zn90 O93 2.080 1_455 S
Zn90 O96 2.114 . S
Zn90 O99 2.120 1_445 S
Zn90 O101 2.120 . S
Zn90 O102 2.114 1_455 S
Zn90 O105 2.080 . S
C91 O96 1.166 . S
C91 O97 1.182 . S
C92 O98 1.167 1_655 S
C92 O99 1.299 . S
O93 Zn90 2.080 1_655 S
O93 C107 1.305 . S
O94 Zn88 1.920 . S
O94 C107 1.234 . S
C95 O100 1.167 1_455 S
C95 O101 1.299 . S
O96 Zn90 2.114 . S
O96 C91 1.166 . S
O97 Zn89 1.905 1_545 S
O97 C91 1.182 . S
O98 Zn89 1.898 . S
O98 C92 1.167 1_455 S
O99 Zn90 2.120 1_665 S
O99 C92 1.299 . S
O100 Zn88 1.898 . S
O100 C95 1.167 1_655 S
O101 Zn90 2.120 . S
O101 C95 1.299 . S
O102 Zn90 2.114 1_655 S
O102 C104 1.166 . S
O103 Zn88 1.905 . S
O103 C104 1.182 . S
C104 O102 1.166 . S
C104 O103 1.182 . S
O105 Zn90 2.080 . S
O105 C108 1.305 1_545 S
O106 Zn89 1.920 . S
O106 C108 1.234 . S
C107 O93 1.305 . S
C107 O94 1.234 . S
C108 O105 1.305 1_565 S
C108 O106 1.234 . S
Zn109 O115 1.920 . S
Zn109 O121 1.897 1_554 S
Zn109 O124 1.905 1_554 S
Zn110 O118 1.905 . S
Zn110 O119 1.898 . S
Zn110 O127 1.920 . S
Zn111 O114 2.080 . S
Zn111 O117 2.117 . S
Zn111 O120 2.120 1_545 S
Zn111 O122 2.120 . S
Zn111 O123 2.114 . S
Zn111 O126 2.080 . S
C112 O117 1.165 1_565 S
C112 O118 1.185 . S
C113 O119 1.167 . S
C113 O120 1.299 . S
O114 Zn111 2.080 . S
O114 C128 1.305 . S
O115 Zn109 1.920 . S
O115 C128 1.234 . S
C116 O121 1.165 1_554 S
C116 O122 1.299 . S
O117 Zn111 2.117 . S
O117 C112 1.165 1_545 S
O118 Zn110 1.905 . S
O118 C112 1.185 . S
O119 Zn110 1.898 . S
O119 C113 1.167 . S
O120 Zn111 2.120 1_565 S
O120 C113 1.299 . S
O121 Zn109 1.897 1_556 S
O121 C116 1.165 1_556 S
O122 Zn111 2.120 . S
O122 C116 1.299 . S
O123 Zn111 2.114 . S
O123 C125 1.167 1_544 S
O124 Zn109 1.905 1_556 S
O124 C125 1.176 1_545 S
C125 O123 1.167 1_566 S
C125 O124 1.176 1_565 S
O126 Zn111 2.080 . S
O126 C129 1.305 . S
O127 Zn110 1.920 . S
O127 C129 1.234 1_565 S
C128 O114 1.305 . S
C128 O115 1.234 . S
C129 O126 1.305 . S
C129 O127 1.234 1_545 S
Zn130 O136 1.920 . S
Zn130 O142 1.898 . S
Zn130 O145 1.905 . S
Zn131 O139 1.905 . S
Zn131 O140 1.898 . S
Zn131 O148 1.920 . S
Zn132 O135 2.080 . S
Zn132 O138 2.114 . S
Zn132 O141 2.120 . S
Zn132 O143 2.120 . S
Zn132 O144 2.114 . S
Zn132 O147 2.080 . S
C133 O138 1.166 . S
C133 O139 1.182 . S
C134 O140 1.167 . S
C134 O141 1.299 . S
O135 Zn132 2.080 . S
O135 C149 1.305 . S
O136 Zn130 1.920 . S
O136 C149 1.234 . S
C137 O142 1.167 . S
C137 O143 1.299 . S
O138 Zn132 2.114 . S
O138 C133 1.166 . S
O139 Zn131 1.905 . S
O139 C133 1.182 . S
O140 Zn131 1.898 . S
O140 C134 1.167 . S
O141 Zn132 2.120 . S
O141 C134 1.299 . S
O142 Zn130 1.898 . S
O142 C137 1.167 . S
O143 Zn132 2.120 . S
O143 C137 1.299 . S
O144 Zn132 2.114 . S
O144 C146 1.166 . S
O145 Zn130 1.905 . S
O145 C146 1.182 . S
C146 O144 1.166 . S
C146 O145 1.182 . S
O147 Zn132 2.080 . S
O147 C150 1.305 . S
O148 Zn131 1.920 . S
O148 C150 1.234 . S
C149 O135 1.305 . S
C149 O136 1.234 . S
C150 O147 1.305 . S
C150 O148 1.234 . S
Zn151 O157 1.920 . S
Zn151 O163 1.898 . S
Zn151 O166 1.905 . S
Zn152 O160 1.905 1_655 S
Zn152 O161 1.898 . S
Zn152 O169 1.920 . S
Zn153 O156 2.080 1_554 S
Zn153 O159 2.114 . S
Zn153 O162 2.120 1_454 S
Zn153 O164 2.120 . S
Zn153 O165 2.114 1_554 S
Zn153 O168 2.080 . S
C154 O159 1.166 . S
C154 O160 1.182 . S
C155 O161 1.167 1_556 S
C155 O162 1.299 . S
O156 Zn153 2.080 1_556 S
O156 C170 1.305 . S
O157 Zn151 1.920 . S
O157 C170 1.234 . S
C158 O163 1.167 1_554 S
C158 O164 1.299 . S
O159 Zn153 2.114 . S
O159 C154 1.166 . S
O160 Zn152 1.905 1_455 S
O160 C154 1.182 . S
O161 Zn152 1.898 . S
O161 C155 1.167 1_554 S
O162 Zn153 2.120 1_656 S
O162 C155 1.299 . S
O163 Zn151 1.898 . S
O163 C158 1.167 1_556 S
O164 Zn153 2.120 . S
O164 C158 1.299 . S
O165 Zn153 2.114 1_556 S
O165 C167 1.166 . S
O166 Zn151 1.905 . S
O166 C167 1.182 . S
C167 O165 1.166 . S
C167 O166 1.182 . S
O168 Zn153 2.080 . S
O168 C171 1.305 1_455 S
O169 Zn152 1.920 . S
O169 C171 1.234 . S
C170 O156 1.305 . S
C170 O157 1.234 . S
C171 O168 1.305 1_655 S
C171 O169 1.234 . S
C172 C173 1.391 . S
C172 C174 1.394 . S
C172 H188 0.931 . S
C173 C172 1.391 . S
C173 C177 1.376 . S
C174 C172 1.394 . S
C174 C175 1.369 . S
C174 C178 1.531 . S
C175 C174 1.369 . S
C175 C176 1.410 . S
C175 C183 1.503 . S
C176 C175 1.410 . S
C176 C177 1.392 . S
C176 C179 1.511 . S
C177 C173 1.376 . S
C177 C176 1.392 . S
C177 H189 0.929 . S
C178 C174 1.531 . S
C178 H190 0.960 . S
C178 H191 0.962 . S
C178 H192 0.960 . S
C179 C176 1.511 . S
C179 H193 0.961 . S
C179 H194 0.961 . S
C179 H195 0.961 . S
C180 C181 1.370 . S
C180 C182 1.363 . S
C180 H196 0.931 . S
C181 C180 1.370 . S
C181 C185 1.408 . S
C182 C180 1.363 . S
C182 C183 1.370 . S
C182 C186 1.524 . S
C183 C175 1.503 . S
C183 C182 1.370 . S
C183 C184 1.403 . S
C184 C183 1.403 . S
C184 C185 1.404 . S
C184 C187 1.539 . S
C185 C181 1.408 . S
C185 C184 1.404 . S
C185 H197 0.930 . S
C186 C182 1.524 . S
C186 H198 0.956 . S
C186 H199 0.961 . S
C186 H200 0.961 . S
C187 C184 1.539 . S
C187 H201 0.958 . S
C187 H202 0.961 . S
C187 H203 0.960 . S
H188 C172 0.931 . S
H189 C177 0.929 . S
H190 C178 0.960 . S
H191 C178 0.962 . S
H192 C178 0.960 . S
H193 C179 0.961 . S
H194 C179 0.961 . S
H195 C179 0.961 . S
H196 C180 0.931 . S
H197 C185 0.930 . S
H198 C186 0.956 . S
H199 C186 0.961 . S
H200 C186 0.961 . S
H201 C187 0.958 . S
H202 C187 0.961 . S
H203 C187 0.960 . S
C204 C205 1.391 . S
C204 C206 1.394 . S
C204 H220 0.931 . S
C205 C204 1.391 . S
C205 C209 1.376 . S
C206 C204 1.394 . S
C206 C207 1.369 . S
C206 C210 1.531 . S
C207 C206 1.369 . S
C207 C208 1.410 . S
C207 C215 1.503 . S
C208 C207 1.410 . S
C208 C209 1.392 . S
C208 C211 1.511 . S
C209 C205 1.376 . S
C209 C208 1.392 . S
C209 H221 0.929 . S
C210 C206 1.531 . S
C210 H222 0.960 . S
C210 H223 0.962 . S
C210 H224 0.960 . S
C211 C208 1.511 . S
C211 H225 0.961 . S
C211 H226 0.961 . S
C211 H227 0.961 . S
C212 C213 1.370 . S
C212 C214 1.363 . S
C212 H228 0.931 1_565 S
C213 C212 1.370 . S
C213 C217 1.408 . S
C214 C212 1.363 . S
C214 C215 1.370 . S
C214 C218 1.524 . S
C215 C207 1.503 . S
C215 C214 1.370 . S
C215 C216 1.403 . S
C216 C215 1.403 . S
C216 C217 1.404 . S
C216 C219 1.539 . S
C217 C213 1.408 . S
C217 C216 1.404 . S
C217 H229 0.930 . S
C218 C214 1.524 . S
C218 H230 0.956 . S
C218 H231 0.961 . S
C218 H232 0.961 1_565 S
C219 C216 1.539 . S
C219 H233 0.958 . S
C219 H234 0.961 . S
C219 H235 0.960 . S
H220 C204 0.931 . S
H221 C209 0.929 . S
H222 C210 0.960 . S
H223 C210 0.962 . S
H224 C210 0.960 . S
H225 C211 0.961 . S
H226 C211 0.961 . S
H227 C211 0.961 . S
H228 C212 0.931 1_545 S
H229 C217 0.930 . S
H230 C218 0.956 . S
H231 C218 0.961 . S
H232 C218 0.961 1_545 S
H233 C219 0.958 . S
H234 C219 0.961 . S
H235 C219 0.960 . S
C236 C237 1.391 . S
C236 C238 1.394 . S
C236 H252 0.931 . S
C237 C236 1.391 . S
C237 C241 1.376 . S
C238 C236 1.394 . S
C238 C239 1.369 . S
C238 C242 1.531 . S
C239 C238 1.369 . S
C239 C240 1.410 . S
C239 C247 1.503 . S
C240 C239 1.410 . S
C240 C241 1.392 . S
C240 C243 1.511 . S
C241 C237 1.376 . S
C241 C240 1.392 . S
C241 H253 0.929 . S
C242 C238 1.531 . S
C242 H254 0.960 . S
C242 H255 0.962 . S
C242 H256 0.960 . S
C243 C240 1.511 . S
C243 H257 0.961 . S
C243 H258 0.961 . S
C243 H259 0.961 . S
C244 C245 1.370 . S
C244 C246 1.363 . S
C244 H260 0.931 . S
C245 C244 1.370 . S
C245 C249 1.408 . S
C246 C244 1.363 . S
C246 C247 1.370 . S
C246 C250 1.524 . S
C247 C239 1.503 . S
C247 C246 1.370 . S
C247 C248 1.403 . S
C248 C247 1.403 . S
C248 C249 1.404 . S
C248 C251 1.539 . S
C249 C245 1.408 . S
C249 C248 1.404 . S
C249 H261 0.930 . S
C250 C246 1.524 . S
C250 H262 0.956 . S
C250 H263 0.961 . S
C250 H264 0.961 . S
C251 C248 1.539 . S
C251 H265 0.958 . S
C251 H266 0.961 . S
C251 H267 0.960 . S
H252 C236 0.931 . S
H253 C241 0.929 . S
H254 C242 0.960 . S
H255 C242 0.962 . S
H256 C242 0.960 . S
H257 C243 0.961 . S
H258 C243 0.961 . S
H259 C243 0.961 . S
H260 C244 0.931 . S
H261 C249 0.930 . S
H262 C250 0.956 . S
H263 C250 0.961 . S
H264 C250 0.961 . S
H265 C251 0.958 . S
H266 C251 0.961 . S
H267 C251 0.960 . S
C268 C269 1.391 . S
C268 C270 1.394 . S
C268 H284 0.931 . S
C269 C268 1.391 . S
C269 C273 1.376 . S
C270 C268 1.394 . S
C270 C271 1.369 . S
C270 C274 1.531 . S
C271 C270 1.369 . S
C271 C272 1.410 . S
C271 C279 1.503 . S
C272 C271 1.410 . S
C272 C273 1.392 . S
C272 C275 1.511 . S
C273 C269 1.376 . S
C273 C272 1.392 . S
C273 H285 0.929 . S
C274 C270 1.531 . S
C274 H286 0.960 . S
C274 H287 0.962 . S
C274 H288 0.960 . S
C275 C272 1.511 . S
C275 H289 0.961 . S
C275 H290 0.961 . S
C275 H291 0.961 . S
C276 C277 1.370 . S
C276 C278 1.363 . S
C276 H292 0.931 . S
C277 C276 1.370 . S
C277 C281 1.408 1_655 S
C278 C276 1.363 . S
C278 C279 1.370 . S
C278 C282 1.524 . S
C279 C271 1.503 . S
C279 C278 1.370 . S
C279 C280 1.403 . S
C280 C279 1.403 . S
C280 C281 1.404 1_655 S
C280 C283 1.539 1_655 S
C281 C277 1.408 1_455 S
C281 C280 1.404 1_455 S
C281 H293 0.930 . S
C282 C278 1.524 . S
C282 H294 0.956 . S
C282 H295 0.961 . S
C282 H296 0.961 . S
C283 C280 1.539 1_455 S
C283 H297 0.958 . S
C283 H298 0.961 . S
C283 H299 0.960 . S
H284 C268 0.931 . S
H285 C273 0.929 . S
H286 C274 0.960 . S
H287 C274 0.962 . S
H288 C274 0.960 . S
H289 C275 0.961 . S
H290 C275 0.961 . S
H291 C275 0.961 . S
H292 C276 0.931 . S
H293 C281 0.930 . S
H294 C282 0.956 . S
H295 C282 0.961 . S
H296 C282 0.961 . S
H297 C283 0.958 . S
H298 C283 0.961 . S
H299 C283 0.960 . S
C300 C301 1.391 . S
C300 C302 1.394 . S
C300 H316 0.931 . S
C301 C300 1.391 . S
C301 C305 1.376 . S
C302 C300 1.394 . S
C302 C303 1.369 . S
C302 C306 1.531 . S
C303 C302 1.369 . S
C303 C304 1.410 . S
C303 C311 1.503 . S
C304 C303 1.410 . S
C304 C305 1.392 . S
C304 C307 1.511 . S
C305 C301 1.376 . S
C305 C304 1.392 . S
C305 H317 0.929 . S
C306 C302 1.531 . S
C306 H318 0.960 . S
C306 H319 0.962 . S
C306 H320 0.960 . S
C307 C304 1.511 . S
C307 H321 0.961 . S
C307 H322 0.961 . S
C307 H323 0.961 . S
C308 C309 1.370 . S
C308 C310 1.363 . S
C308 H324 0.931 . S
C309 C308 1.370 . S
C309 C313 1.408 . S
C310 C308 1.363 . S
C310 C311 1.370 . S
C310 C314 1.524 . S
C311 C303 1.503 . S
C311 C310 1.370 . S
C311 C312 1.403 . S
C312 C311 1.403 . S
C312 C313 1.404 . S
C312 C315 1.539 . S
C313 C309 1.408 . S
C313 C312 1.404 . S
C313 H325 0.930 . S
C314 C310 1.524 . S
C314 H326 0.956 . S
C314 H327 0.961 . S
C314 H328 0.961 . S
C315 C312 1.539 . S
C315 H329 0.958 . S
C315 H330 0.961 . S
C315 H331 0.960 . S
H316 C300 0.931 . S
H317 C305 0.929 . S
H318 C306 0.960 . S
H319 C306 0.962 . S
H320 C306 0.960 . S
H321 C307 0.961 . S
H322 C307 0.961 . S
H323 C307 0.961 . S
H324 C308 0.931 . S
H325 C313 0.930 . S
H326 C314 0.956 . S
H327 C314 0.961 . S
H328 C314 0.961 . S
H329 C315 0.958 . S
H330 C315 0.961 . S
H331 C315 0.960 . S
C332 C333 1.391 . S
C332 C334 1.394 . S
C332 H348 0.931 . S
C333 C332 1.391 . S
C333 C337 1.376 . S
C334 C332 1.394 . S
C334 C335 1.369 . S
C334 C338 1.531 . S
C335 C334 1.369 . S
C335 C336 1.410 . S
C335 C343 1.503 . S
C336 C335 1.410 . S
C336 C337 1.392 . S
C336 C339 1.511 . S
C337 C333 1.376 . S
C337 C336 1.392 . S
C337 H349 0.929 . S
C338 C334 1.531 . S
C338 H350 0.960 . S
C338 H351 0.962 . S
C338 H352 0.960 . S
C339 C336 1.511 . S
C339 H353 0.961 . S
C339 H354 0.961 . S
C339 H355 0.961 . S
C340 C341 1.370 . S
C340 C342 1.363 . S
C340 H356 0.931 . S
C341 C340 1.370 . S
C341 C345 1.408 1_565 S
C342 C340 1.363 . S
C342 C343 1.370 . S
C342 C346 1.524 . S
C343 C335 1.503 . S
C343 C342 1.370 . S
C343 C344 1.403 1_565 S
C344 C343 1.403 1_545 S
C344 C345 1.404 . S
C344 C347 1.539 . S
C345 C341 1.408 1_545 S
C345 C344 1.404 . S
C345 H357 0.930 . S
C346 C342 1.524 . S
C346 H358 0.956 . S
C346 H359 0.961 . S
C346 H360 0.961 . S
C347 C344 1.539 . S
C347 H361 0.958 . S
C347 H362 0.961 . S
C347 H363 0.960 . S
H348 C332 0.931 . S
H349 C337 0.929 . S
H350 C338 0.960 . S
H351 C338 0.962 . S
H352 C338 0.960 . S
H353 C339 0.961 . S
H354 C339 0.961 . S
H355 C339 0.961 . S
H356 C340 0.931 . S
H357 C345 0.930 . S
H358 C346 0.956 . S
H359 C346 0.961 . S
H360 C346 0.961 . S
H361 C347 0.958 . S
H362 C347 0.961 . S
H363 C347 0.960 . S
C364 C365 1.391 . S
C364 C366 1.394 . S
C364 H380 0.931 . S
C365 C364 1.391 . S
C365 C369 1.376 . S
C366 C364 1.394 . S
C366 C367 1.369 . S
C366 C370 1.531 . S
C367 C366 1.369 . S
C367 C368 1.410 . S
C367 C375 1.503 . S
C368 C367 1.410 . S
C368 C369 1.392 . S
C368 C371 1.511 . S
C369 C365 1.376 . S
C369 C368 1.392 . S
C369 H381 0.929 . S
C370 C366 1.531 . S
C370 H382 0.960 . S
C370 H383 0.962 . S
C370 H384 0.960 . S
C371 C368 1.511 . S
C371 H385 0.961 . S
C371 H386 0.961 . S
C371 H387 0.961 . S
C372 C373 1.370 . S
C372 C374 1.363 . S
C372 H388 0.931 . S
C373 C372 1.370 . S
C373 C377 1.408 . S
C374 C372 1.363 . S
C374 C375 1.370 . S
C374 C378 1.524 . S
C375 C367 1.503 . S
C375 C374 1.370 . S
C375 C376 1.403 . S
C376 C375 1.403 . S
C376 C377 1.404 . S
C376 C379 1.539 . S
C377 C373 1.408 . S
C377 C376 1.404 . S
C377 H389 0.930 1_556 S
C378 C374 1.524 . S
C378 H390 0.956 . S
C378 H391 0.961 . S
C378 H392 0.961 . S
C379 C376 1.539 . S
C379 H393 0.958 1_556 S
C379 H394 0.961 1_556 S
C379 H395 0.960 . S
H380 C364 0.931 . S
H381 C369 0.929 . S
H382 C370 0.960 . S
H383 C370 0.962 . S
H384 C370 0.960 . S
H385 C371 0.961 . S
H386 C371 0.961 . S
H387 C371 0.961 . S
H388 C372 0.931 . S
H389 C377 0.930 1_554 S
H390 C378 0.956 . S
H391 C378 0.961 . S
H392 C378 0.961 . S
H393 C379 0.958 1_554 S
H394 C379 0.961 1_554 S
H395 C379 0.960 . S
C396 C397 1.391 . S
C396 C398 1.394 . S
C396 H412 0.931 . S
C397 C396 1.391 . S
C397 C401 1.376 . S
C398 C396 1.394 . S
C398 C399 1.369 . S
C398 C402 1.531 . S
C399 C398 1.369 . S
C399 C400 1.410 . S
C399 C407 1.503 . S
C400 C399 1.410 . S
C400 C401 1.392 . S
C400 C403 1.511 . S
C401 C397 1.376 . S
C401 C400 1.392 . S
C401 H413 0.929 . S
C402 C398 1.531 . S
C402 H414 0.960 . S
C402 H415 0.962 . S
C402 H416 0.960 . S
C403 C400 1.511 . S
C403 H417 0.961 . S
C403 H418 0.961 . S
C403 H419 0.961 . S
C404 C405 1.370 . S
C404 C406 1.363 . S
C404 H420 0.931 . S
C405 C404 1.370 . S
C405 C409 1.408 . S
C406 C404 1.363 . S
C406 C407 1.370 . S
C406 C410 1.524 . S
C407 C399 1.503 . S
C407 C406 1.370 . S
C407 C408 1.403 . S
C408 C407 1.403 . S
C408 C409 1.404 . S
C408 C411 1.539 . S
C409 C405 1.408 . S
C409 C408 1.404 . S
C409 H421 0.930 . S
C410 C406 1.524 . S
C410 H422 0.956 . S
C410 H423 0.961 . S
C410 H424 0.961 . S
C411 C408 1.539 . S
C411 H425 0.958 . S
C411 H426 0.961 . S
C411 H427 0.960 . S
H412 C396 0.931 . S
H413 C401 0.929 . S
H414 C402 0.960 . S
H415 C402 0.962 . S
H416 C402 0.960 . S
H417 C403 0.961 . S
H418 C403 0.961 . S
H419 C403 0.961 . S
H420 C404 0.931 . S
H421 C409 0.930 . S
H422 C410 0.956 . S
H423 C410 0.961 . S
H424 C410 0.961 . S
H425 C411 0.958 . S
H426 C411 0.961 . S
H427 C411 0.960 . S
C428 C429 1.391 . S
C428 C430 1.394 . S
C428 H444 0.931 . S
C429 C428 1.391 . S
C429 C433 1.376 . S
C430 C428 1.394 . S
C430 C431 1.369 . S
C430 C434 1.531 . S
C431 C430 1.369 . S
C431 C432 1.410 . S
C431 C439 1.503 . S
C432 C431 1.410 . S
C432 C433 1.392 . S
C432 C435 1.511 . S
C433 C429 1.376 . S
C433 C432 1.392 . S
C433 H445 0.929 . S
C434 C430 1.531 . S
C434 H446 0.960 . S
C434 H447 0.962 . S
C434 H448 0.960 . S
C435 C432 1.511 . S
C435 H449 0.961 . S
C435 H450 0.961 . S
C435 H451 0.961 . S
C436 C437 1.370 . S
C436 C438 1.363 . S
C436 H452 0.931 . S
C437 C436 1.370 . S
C437 C441 1.408 . S
C438 C436 1.363 . S
C438 C439 1.370 . S
C438 C442 1.524 . S
C439 C431 1.503 . S
C439 C438 1.370 . S
C439 C440 1.403 . S
C440 C439 1.403 . S
C440 C441 1.404 . S
C440 C443 1.539 . S
C441 C437 1.408 . S
C441 C440 1.404 . S
C441 H453 0.930 . S
C442 C438 1.524 . S
C442 H454 0.956 . S
C442 H455 0.961 . S
C442 H456 0.961 . S
C443 C440 1.539 . S
C443 H457 0.958 . S
C443 H458 0.961 . S
C443 H459 0.960 . S
H444 C428 0.931 . S
H445 C433 0.929 . S
H446 C434 0.960 . S
H447 C434 0.962 . S
H448 C434 0.960 . S
H449 C435 0.961 . S
H450 C435 0.961 . S
H451 C435 0.961 . S
H452 C436 0.931 . S
H453 C441 0.930 . S
H454 C442 0.956 . S
H455 C442 0.961 . S
H456 C442 0.961 . S
H457 C443 0.958 . S
H458 C443 0.961 . S
H459 C443 0.960 . S
C460 C461 1.391 . S
C460 C462 1.394 . S
C460 H476 0.931 . S
C461 C460 1.391 . S
C461 C465 1.376 . S
C462 C460 1.394 . S
C462 C463 1.369 . S
C462 C466 1.531 . S
C463 C462 1.369 . S
C463 C464 1.410 . S
C463 C471 1.503 . S
C464 C463 1.410 . S
C464 C465 1.392 . S
C464 C467 1.511 1_556 S
C465 C461 1.376 . S
C465 C464 1.392 . S
C465 H477 0.929 . S
C466 C462 1.531 . S
C466 H478 0.960 . S
C466 H479 0.962 . S
C466 H480 0.960 . S
C467 C464 1.511 1_554 S
C467 H481 0.961 . S
C467 H482 0.961 . S
C467 H483 0.961 . S
C468 C469 1.370 1_556 S
C468 C470 1.363 . S
C468 H484 0.931 . S
C469 C468 1.370 1_554 S
C469 C473 1.408 . S
C470 C468 1.363 . S
C470 C471 1.370 . S
C470 C474 1.524 . S
C471 C463 1.503 . S
C471 C470 1.370 . S
C471 C472 1.403 . S
C472 C471 1.403 . S
C472 C473 1.404 1_556 S
C472 C475 1.539 1_556 S
C473 C469 1.408 . S
C473 C472 1.404 1_554 S
C473 H485 0.930 . S
C474 C470 1.524 . S
C474 H486 0.956 . S
C474 H487 0.961 . S
C474 H488 0.961 . S
C475 C472 1.539 1_554 S
C475 H489 0.958 1_554 S
C475 H490 0.961 . S
C475 H491 0.960 . S
H476 C460 0.931 . S
H477 C465 0.929 . S
H478 C466 0.960 . S
H479 C466 0.962 . S
H480 C466 0.960 . S
H481 C467 0.961 . S
H482 C467 0.961 . S
H483 C467 0.961 . S
H484 C468 0.931 . S
H485 C473 0.930 . S
H486 C474 0.956 . S
H487 C474 0.961 . S
H488 C474 0.961 . S
H489 C475 0.958 1_556 S
H490 C475 0.961 . S
H491 C475 0.960 . S
C492 C493 1.391 . S
C492 C494 1.394 . S
C492 H508 0.931 . S
C493 C492 1.391 . S
C493 C497 1.376 . S
C494 C492 1.394 . S
C494 C495 1.369 . S
C494 C498 1.531 . S
C495 C494 1.369 . S
C495 C496 1.410 . S
C495 C503 1.503 . S
C496 C495 1.410 . S
C496 C497 1.392 . S
C496 C499 1.511 . S
C497 C493 1.376 . S
C497 C496 1.392 . S
C497 H509 0.929 . S
C498 C494 1.531 . S
C498 H510 0.960 . S
C498 H511 0.962 . S
C498 H512 0.960 . S
C499 C496 1.511 . S
C499 H513 0.961 . S
C499 H514 0.961 . S
C499 H515 0.961 . S
C500 C501 1.370 . S
C500 C502 1.363 . S
C500 H516 0.931 . S
C501 C500 1.370 . S
C501 C505 1.408 . S
C502 C500 1.363 . S
C502 C503 1.370 . S
C502 C506 1.524 . S
C503 C495 1.503 . S
C503 C502 1.370 . S
C503 C504 1.403 . S
C504 C503 1.403 . S
C504 C505 1.404 . S
C504 C507 1.539 . S
C505 C501 1.408 . S
C505 C504 1.404 . S
C505 H517 0.930 1_655 S
C506 C502 1.524 . S
C506 H518 0.956 . S
C506 H519 0.961 . S
C506 H520 0.961 . S
C507 C504 1.539 . S
C507 H521 0.958 1_655 S
C507 H522 0.961 . S
C507 H523 0.960 . S
H508 C492 0.931 . S
H509 C497 0.929 . S
H510 C498 0.960 . S
H511 C498 0.962 . S
H512 C498 0.960 . S
H513 C499 0.961 . S
H514 C499 0.961 . S
H515 C499 0.961 . S
H516 C500 0.931 . S
H517 C505 0.930 1_455 S
H518 C506 0.956 . S
H519 C506 0.961 . S
H520 C506 0.961 . S
H521 C507 0.958 1_455 S
H522 C507 0.961 . S
H523 C507 0.960 . S
C524 C525 1.391 . S
C524 C526 1.394 . S
C524 H540 0.931 . S
C525 C524 1.391 . S
C525 C529 1.376 . S
C526 C524 1.394 . S
C526 C527 1.369 . S
C526 C530 1.531 . S
C527 C526 1.369 . S
C527 C528 1.410 . S
C527 C535 1.503 . S
C528 C527 1.410 . S
C528 C529 1.392 . S
C528 C531 1.511 . S
C529 C525 1.376 . S
C529 C528 1.392 . S
C529 H541 0.929 . S
C530 C526 1.531 . S
C530 H542 0.960 . S
C530 H543 0.962 . S
C530 H544 0.960 . S
C531 C528 1.511 . S
C531 H545 0.961 . S
C531 H546 0.961 . S
C531 H547 0.961 . S
C532 C533 1.370 . S
C532 C534 1.363 . S
C532 H548 0.931 . S
C533 C532 1.370 . S
C533 C537 1.408 . S
C534 C532 1.363 . S
C534 C535 1.370 . S
C534 C538 1.524 . S
C535 C527 1.503 . S
C535 C534 1.370 . S
C535 C536 1.403 . S
C536 C535 1.403 . S
C536 C537 1.404 . S
C536 C539 1.539 . S
C537 C533 1.408 . S
C537 C536 1.404 . S
C537 H549 0.930 . S
C538 C534 1.524 . S
C538 H550 0.956 . S
C538 H551 0.961 . S
C538 H552 0.961 . S
C539 C536 1.539 . S
C539 H553 0.958 . S
C539 H554 0.961 . S
C539 H555 0.960 . S
H540 C524 0.931 . S
H541 C529 0.929 . S
H542 C530 0.960 . S
H543 C530 0.962 . S
H544 C530 0.960 . S
H545 C531 0.961 . S
H546 C531 0.961 . S
H547 C531 0.961 . S
H548 C532 0.931 . S
H549 C537 0.930 . S
H550 C538 0.956 . S
H551 C538 0.961 . S
H552 C538 0.961 . S
H553 C539 0.958 . S
H554 C539 0.961 . S
H555 C539 0.960 . S
C556 C557 1.391 . S
C556 C558 1.394 . S
C556 H572 0.931 . S
C557 C556 1.391 . S
C557 C561 1.376 1_665 S
C558 C556 1.394 . S
C558 C559 1.369 1_565 S
C558 C562 1.531 . S
C559 C558 1.369 1_545 S
C559 C560 1.410 1_655 S
C559 C567 1.503 . S
C560 C559 1.410 1_455 S
C560 C561 1.392 . S
C560 C563 1.511 . S
C561 C557 1.376 1_445 S
C561 C560 1.392 . S
C561 H573 0.929 . S
C562 C558 1.531 . S
C562 H574 0.960 . S
C562 H575 0.962 . S
C562 H576 0.960 . S
C563 C560 1.511 . S
C563 H577 0.961 . S
C563 H578 0.961 . S
C563 H579 0.961 . S
C564 C565 1.370 1_565 S
C564 C566 1.363 . S
C564 H580 0.931 1_655 S
C565 C564 1.370 1_545 S
C565 C569 1.408 . S
C566 C564 1.363 . S
C566 C567 1.370 1_565 S
C566 C570 1.524 1_655 S
C567 C559 1.503 . S
C567 C566 1.370 1_545 S
C567 C568 1.403 . S
C568 C567 1.403 . S
C568 C569 1.404 . S
C568 C571 1.539 . S
C569 C565 1.408 . S
C569 C568 1.404 . S
C569 H581 0.930 . S
C570 C566 1.524 1_455 S
C570 H582 0.956 1_455 S
C570 H583 0.961 . S
C570 H584 0.961 . S
C571 C568 1.539 . S
C571 H585 0.958 . S
C571 H586 0.961 . S
C571 H587 0.960 . S
H572 C556 0.931 . S
H573 C561 0.929 . S
H574 C562 0.960 . S
H575 C562 0.962 . S
H576 C562 0.960 . S
H577 C563 0.961 . S
H578 C563 0.961 . S
H579 C563 0.961 . S
H580 C564 0.931 1_455 S
H581 C569 0.930 . S
H582 C570 0.956 1_655 S
H583 C570 0.961 . S
H584 C570 0.961 . S
H585 C571 0.958 . S
H586 C571 0.961 . S
H587 C571 0.960 . S
C588 C589 1.391 . S
C588 C590 1.394 . S
C588 H604 0.931 . S
C589 C588 1.391 . S
C589 C593 1.376 . S
C590 C588 1.394 . S
C590 C591 1.369 . S
C590 C594 1.531 . S
C591 C590 1.369 . S
C591 C592 1.410 . S
C591 C599 1.503 . S
C592 C591 1.410 . S
C592 C593 1.392 . S
C592 C595 1.511 . S
C593 C589 1.376 . S
C593 C592 1.392 . S
C593 H605 0.929 . S
C594 C590 1.531 . S
C594 H606 0.960 . S
C594 H607 0.962 . S
C594 H608 0.960 . S
C595 C592 1.511 . S
C595 H609 0.961 . S
C595 H610 0.961 . S
C595 H611 0.961 . S
C596 C597 1.370 . S
C596 C598 1.363 . S
C596 H612 0.931 . S
C597 C596 1.370 . S
C597 C601 1.408 . S
C598 C596 1.363 . S
C598 C599 1.370 . S
C598 C602 1.524 . S
C599 C591 1.503 . S
C599 C598 1.370 . S
C599 C600 1.403 . S
C600 C599 1.403 . S
C600 C601 1.404 . S
C600 C603 1.539 1_545 S
C601 C597 1.408 . S
C601 C600 1.404 . S
C601 H613 0.930 1_545 S
C602 C598 1.524 . S
C602 H614 0.956 . S
C602 H615 0.961 . S
C602 H616 0.961 . S
C603 C600 1.539 1_565 S
C603 H617 0.958 . S
C603 H618 0.961 . S
C603 H619 0.960 . S
H604 C588 0.931 . S
H605 C593 0.929 . S
H606 C594 0.960 . S
H607 C594 0.962 . S
H608 C594 0.960 . S
H609 C595 0.961 . S
H610 C595 0.961 . S
H611 C595 0.961 . S
H612 C596 0.931 . S
H613 C601 0.930 1_565 S
H614 C602 0.956 . S
H615 C602 0.961 . S
H616 C602 0.961 . S
H617 C603 0.958 . S
H618 C603 0.961 . S
H619 C603 0.960 . S
C620 C621 1.391 . S
C620 C622 1.394 . S
C620 H636 0.931 . S
C621 C620 1.391 . S
C621 C625 1.376 . S
C622 C620 1.394 . S
C622 C623 1.369 . S
C622 C626 1.531 . S
C623 C622 1.369 . S
C623 C624 1.410 . S
C623 C631 1.503 . S
C624 C623 1.410 . S
C624 C625 1.392 . S
C624 C627 1.511 . S
C625 C621 1.376 . S
C625 C624 1.392 . S
C625 H637 0.929 . S
C626 C622 1.531 . S
C626 H638 0.960 . S
C626 H639 0.962 . S
C626 H640 0.960 . S
C627 C624 1.511 . S
C627 H641 0.961 . S
C627 H642 0.961 . S
C627 H643 0.961 . S
C628 C629 1.370 . S
C628 C630 1.363 . S
C628 H644 0.931 . S
C629 C628 1.370 . S
C629 C633 1.408 . S
C630 C628 1.363 . S
C630 C631 1.370 . S
C630 C634 1.524 . S
C631 C623 1.503 . S
C631 C630 1.370 . S
C631 C632 1.403 . S
C632 C631 1.403 . S
C632 C633 1.404 . S
C632 C635 1.539 . S
C633 C629 1.408 . S
C633 C632 1.404 . S
C633 H645 0.930 . S
C634 C630 1.524 . S
C634 H646 0.956 . S
C634 H647 0.961 . S
C634 H648 0.961 . S
C635 C632 1.539 . S
C635 H649 0.958 . S
C635 H650 0.961 . S
C635 H651 0.960 . S
H636 C620 0.931 . S
H637 C625 0.929 . S
H638 C626 0.960 . S
H639 C626 0.962 . S
H640 C626 0.960 . S
H641 C627 0.961 . S
H642 C627 0.961 . S
H643 C627 0.961 . S
H644 C628 0.931 . S
H645 C633 0.930 . S
H646 C634 0.956 . S
H647 C634 0.961 . S
H648 C634 0.961 . S
H649 C635 0.958 . S
H650 C635 0.961 . S
H651 C635 0.960 . S
C652 C653 1.391 . S
C652 C654 1.394 . S
C652 H668 0.931 . S
C653 C652 1.391 . S
C653 C657 1.376 . S
C654 C652 1.394 . S
C654 C655 1.369 . S
C654 C658 1.531 . S
C655 C654 1.369 . S
C655 C656 1.410 . S
C655 C663 1.503 . S
C656 C655 1.410 . S
C656 C657 1.392 . S
C656 C659 1.511 . S
C657 C653 1.376 . S
C657 C656 1.392 . S
C657 H669 0.929 . S
C658 C654 1.531 . S
C658 H670 0.960 . S
C658 H671 0.962 . S
C658 H672 0.960 . S
C659 C656 1.511 . S
C659 H673 0.961 . S
C659 H674 0.961 . S
C659 H675 0.961 . S
C660 C661 1.370 . S
C660 C662 1.363 . S
C660 H676 0.931 . S
C661 C660 1.370 . S
C661 C665 1.408 . S
C662 C660 1.363 . S
C662 C663 1.370 . S
C662 C666 1.524 1_455 S
C663 C655 1.503 . S
C663 C662 1.370 . S
C663 C664 1.403 . S
C664 C663 1.403 . S
C664 C665 1.404 . S
C664 C667 1.539 . S
C665 C661 1.408 . S
C665 C664 1.404 . S
C665 H677 0.930 . S
C666 C662 1.524 1_655 S
C666 H678 0.956 . S
C666 H679 0.961 1_655 S
C666 H680 0.961 . S
C667 C664 1.539 . S
C667 H681 0.958 . S
C667 H682 0.961 . S
C667 H683 0.960 . S
H668 C652 0.931 . S
H669 C657 0.929 . S
H670 C658 0.960 . S
H671 C658 0.962 . S
H672 C658 0.960 . S
H673 C659 0.961 . S
H674 C659 0.961 . S
H675 C659 0.961 . S
H676 C660 0.931 . S
H677 C665 0.930 . S
H678 C666 0.956 . S
H679 C666 0.961 1_455 S
H680 C666 0.961 . S
H681 C667 0.958 . S
H682 C667 0.961 . S
H683 C667 0.960 . S
C684 C685 1.387 1_545 S
C684 C686 1.401 . S
C684 H700 0.924 1_545 S
C685 C684 1.387 1_565 S
C685 C689 1.377 1_564 S
C686 C684 1.401 . S
C686 C687 1.369 . S
C686 C690 1.531 . S
C687 C686 1.369 . S
C687 C688 1.410 1_554 S
C687 C695 1.503 . S
C688 C687 1.410 1_556 S
C688 C689 1.392 . S
C688 C691 1.511 . S
C689 C685 1.377 1_546 S
C689 C688 1.392 . S
C689 H701 0.929 . S
C690 C686 1.531 . S
C690 H702 0.960 . S
C690 H703 0.962 1_545 S
C690 H704 0.960 . S
C691 C688 1.511 . S
C691 H705 0.960 1_545 S
C691 H706 0.961 . S
C691 H707 0.961 . S
C692 C693 1.370 1_565 S
C692 C694 1.363 . S
C692 H708 0.931 . S
C693 C692 1.370 1_545 S
C693 C697 1.408 . S
C694 C692 1.363 . S
C694 C695 1.370 1_565 S
C694 C698 1.524 . S
C695 C687 1.503 . S
C695 C694 1.370 1_545 S
C695 C696 1.403 . S
C696 C695 1.403 . S
C696 C697 1.404 . S
C696 C699 1.539 . S
C697 C693 1.408 . S
C697 C696 1.404 . S
C697 H709 0.930 . S
C698 C694 1.524 . S
C698 H710 0.956 . S
C698 H711 0.961 . S
C698 H712 0.961 . S
C699 C696 1.539 . S
C699 H713 0.958 . S
C699 H714 0.961 . S
C699 H715 0.960 . S
H700 C684 0.924 1_565 S
H701 C689 0.929 . S
H702 C690 0.960 . S
H703 C690 0.962 1_565 S
H704 C690 0.960 . S
H705 C691 0.960 1_565 S
H706 C691 0.961 . S
H707 C691 0.961 . S
H708 C692 0.931 . S
H709 C697 0.930 . S
H710 C698 0.956 . S
H711 C698 0.961 . S
H712 C698 0.961 . S
H713 C699 0.958 . S
H714 C699 0.961 . S
H715 C699 0.960 . S
C716 C717 1.391 . S
C716 C718 1.394 . S
C716 H732 0.931 . S
C717 C716 1.391 . S
C717 C721 1.376 . S
C718 C716 1.394 . S
C718 C719 1.369 . S
C718 C722 1.531 . S
C719 C718 1.369 . S
C719 C720 1.410 . S
C719 C727 1.503 . S
C720 C719 1.410 . S
C720 C721 1.392 . S
C720 C723 1.511 . S
C721 C717 1.376 . S
C721 C720 1.392 . S
C721 H733 0.929 . S
C722 C718 1.531 . S
C722 H734 0.960 . S
C722 H735 0.962 1_545 S
C722 H736 0.960 1_545 S
C723 C720 1.511 . S
C723 H737 0.961 . S
C723 H738 0.961 . S
C723 H739 0.961 . S
C724 C725 1.370 . S
C724 C726 1.363 . S
C724 H740 0.931 . S
C725 C724 1.370 . S
C725 C729 1.408 . S
C726 C724 1.363 . S
C726 C727 1.370 . S
C726 C730 1.524 . S
C727 C719 1.503 . S
C727 C726 1.370 . S
C727 C728 1.403 . S
C728 C727 1.403 . S
C728 C729 1.404 . S
C728 C731 1.539 . S
C729 C725 1.408 . S
C729 C728 1.404 . S
C729 H741 0.930 . S
C730 C726 1.524 . S
C730 H742 0.956 . S
C730 H743 0.961 . S
C730 H744 0.961 . S
C731 C728 1.539 . S
C731 H745 0.958 . S
C731 H746 0.961 . S
C731 H747 0.960 . S
H732 C716 0.931 . S
H733 C721 0.929 . S
H734 C722 0.960 . S
H735 C722 0.962 1_565 S
H736 C722 0.960 1_565 S
H737 C723 0.961 . S
H738 C723 0.961 . S
H739 C723 0.961 . S
H740 C724 0.931 . S
H741 C729 0.930 . S
H742 C730 0.956 . S
H743 C730 0.961 . S
H744 C730 0.961 . S
H745 C731 0.958 . S
H746 C731 0.961 . S
H747 C731 0.960 . S
C748 C749 1.391 . S
C748 C750 1.394 . S
C748 H764 0.931 . S
C749 C748 1.391 . S
C749 C753 1.376 . S
C750 C748 1.394 . S
C750 C751 1.369 . S
C750 C754 1.531 . S
C751 C750 1.369 . S
C751 C752 1.410 . S
C751 C759 1.503 . S
C752 C751 1.410 . S
C752 C753 1.392 . S
C752 C755 1.511 . S
C753 C749 1.376 . S
C753 C752 1.392 . S
C753 H765 0.929 . S
C754 C750 1.531 . S
C754 H766 0.960 . S
C754 H767 0.962 . S
C754 H768 0.960 1_554 S
C755 C752 1.511 . S
C755 H769 0.961 . S
C755 H770 0.961 . S
C755 H771 0.961 . S
C756 C757 1.370 . S
C756 C758 1.363 . S
C756 H772 0.931 . S
C757 C756 1.370 . S
C757 C761 1.408 . S
C758 C756 1.363 . S
C758 C759 1.370 . S
C758 C762 1.524 . S
C759 C751 1.503 . S
C759 C758 1.370 . S
C759 C760 1.403 . S
C760 C759 1.403 . S
C760 C761 1.404 . S
C760 C763 1.539 . S
C761 C757 1.408 . S
C761 C760 1.404 . S
C761 H773 0.930 . S
C762 C758 1.524 . S
C762 H774 0.956 . S
C762 H775 0.961 . S
C762 H776 0.961 . S
C763 C760 1.539 . S
C763 H777 0.958 . S
C763 H778 0.961 . S
C763 H779 0.960 . S
H764 C748 0.931 . S
H765 C753 0.929 . S
H766 C754 0.960 . S
H767 C754 0.962 . S
H768 C754 0.960 1_556 S
H769 C755 0.961 . S
H770 C755 0.961 . S
H771 C755 0.961 . S
H772 C756 0.931 . S
H773 C761 0.930 . S
H774 C762 0.956 . S
H775 C762 0.961 . S
H776 C762 0.961 . S
H777 C763 0.958 . S
H778 C763 0.961 . S
H779 C763 0.960 . S
C780 C781 1.391 . S
C780 C782 1.394 . S
C780 H796 0.931 . S
C781 C780 1.391 . S
C781 C785 1.376 . S
C782 C780 1.394 . S
C782 C783 1.369 . S
C782 C786 1.531 . S
C783 C782 1.369 . S
C783 C784 1.410 . S
C783 C791 1.503 . S
C784 C783 1.410 . S
C784 C785 1.392 . S
C784 C787 1.511 . S
C785 C781 1.376 . S
C785 C784 1.392 . S
C785 H797 0.929 . S
C786 C782 1.531 . S
C786 H798 0.960 . S
C786 H799 0.962 . S
C786 H800 0.960 . S
C787 C784 1.511 . S
C787 H801 0.961 . S
C787 H802 0.961 . S
C787 H803 0.961 . S
C788 C789 1.370 . S
C788 C790 1.363 . S
C788 H804 0.931 . S
C789 C788 1.370 . S
C789 C793 1.408 . S
C790 C788 1.363 . S
C790 C791 1.370 . S
C790 C794 1.524 . S
C791 C783 1.503 . S
C791 C790 1.370 . S
C791 C792 1.403 . S
C792 C791 1.403 . S
C792 C793 1.404 . S
C792 C795 1.539 . S
C793 C789 1.408 . S
C793 C792 1.404 . S
C793 H805 0.930 . S
C794 C790 1.524 . S
C794 H806 0.956 . S
C794 H807 0.961 . S
C794 H808 0.961 . S
C795 C792 1.539 . S
C795 H809 0.958 . S
C795 H810 0.961 . S
C795 H811 0.960 . S
H796 C780 0.931 . S
H797 C785 0.929 . S
H798 C786 0.960 . S
H799 C786 0.962 . S
H800 C786 0.960 . S
H801 C787 0.961 . S
H802 C787 0.961 . S
H803 C787 0.961 . S
H804 C788 0.931 . S
H805 C793 0.930 . S
H806 C794 0.956 . S
H807 C794 0.961 . S
H808 C794 0.961 . S
H809 C795 0.958 . S
H810 C795 0.961 . S
H811 C795 0.960 . S
C812 C813 1.391 . S
C812 C814 1.394 . S
C812 H828 0.931 . S
C813 C812 1.391 . S
C813 C817 1.376 1_655 S
C814 C812 1.394 . S
C814 C815 1.369 . S
C814 C818 1.531 . S
C815 C814 1.369 . S
C815 C816 1.410 1_655 S
C815 C823 1.503 1_655 S
C816 C815 1.410 1_455 S
C816 C817 1.392 . S
C816 C819 1.511 . S
C817 C813 1.376 1_455 S
C817 C816 1.392 . S
C817 H829 0.929 . S
C818 C814 1.531 . S
C818 H830 0.960 . S
C818 H831 0.962 . S
C818 H832 0.960 . S
C819 C816 1.511 . S
C819 H833 0.961 . S
C819 H834 0.961 . S
C819 H835 0.961 . S
C820 C821 1.370 1_554 S
C820 C822 1.359 1_455 S
C820 H836 0.936 . S
C821 C820 1.370 1_556 S
C821 C825 1.408 . S
C822 C820 1.359 1_655 S
C822 C823 1.369 1_654 S
C822 C826 1.530 . S
C823 C815 1.503 1_455 S
C823 C822 1.369 1_456 S
C823 C824 1.403 . S
C824 C823 1.403 . S
C824 C825 1.404 . S
C824 C827 1.539 . S
C825 C821 1.408 . S
C825 C824 1.404 . S
C825 H837 0.930 . S
C826 C822 1.530 . S
C826 H838 0.956 . S
C826 H839 0.961 1_655 S
C826 H840 0.961 . S
C827 C824 1.539 . S
C827 H841 0.958 . S
C827 H842 0.961 . S
C827 H843 0.960 . S
H828 C812 0.931 . S
H829 C817 0.929 . S
H830 C818 0.960 . S
H831 C818 0.962 . S
H832 C818 0.960 . S
H833 C819 0.961 . S
H834 C819 0.961 . S
H835 C819 0.961 . S
H836 C820 0.936 . S
H837 C825 0.930 . S
H838 C826 0.956 . S
H839 C826 0.961 1_455 S
H840 C826 0.961 . S
H841 C827 0.958 . S
H842 C827 0.961 . S
H843 C827 0.960 . S
C844 C845 1.391 . S
C844 C846 1.394 . S
C844 H860 0.931 . S
C845 C844 1.391 . S
C845 C849 1.376 . S
C846 C844 1.394 . S
C846 C847 1.369 . S
C846 C850 1.531 . S
C847 C846 1.369 . S
C847 C848 1.410 . S
C847 C855 1.503 . S
C848 C847 1.410 . S
C848 C849 1.392 . S
C848 C851 1.511 . S
C849 C845 1.376 . S
C849 C848 1.392 . S
C849 H861 0.929 . S
C850 C846 1.531 . S
C850 H862 0.960 . S
C850 H863 0.962 . S
C850 H864 0.960 . S
C851 C848 1.511 . S
C851 H865 0.961 . S
C851 H866 0.961 . S
C851 H867 0.961 . S
C852 C853 1.370 . S
C852 C854 1.363 . S
C852 H868 0.931 . S
C853 C852 1.370 . S
C853 C857 1.408 . S
C854 C852 1.363 . S
C854 C855 1.370 . S
C854 C858 1.524 . S
C855 C847 1.503 . S
C855 C854 1.370 . S
C855 C856 1.403 . S
C856 C855 1.403 . S
C856 C857 1.404 . S
C856 C859 1.539 . S
C857 C853 1.408 . S
C857 C856 1.404 . S
C857 H869 0.930 . S
C858 C854 1.524 . S
C858 H870 0.956 . S
C858 H871 0.961 . S
C858 H872 0.961 . S
C859 C856 1.539 . S
C859 H873 0.958 . S
C859 H874 0.961 1_554 S
C859 H875 0.960 . S
H860 C844 0.931 . S
H861 C849 0.929 . S
H862 C850 0.960 . S
H863 C850 0.962 . S
H864 C850 0.960 . S
H865 C851 0.961 . S
H866 C851 0.961 . S
H867 C851 0.961 . S
H868 C852 0.931 . S
H869 C857 0.930 . S
H870 C858 0.956 . S
H871 C858 0.961 . S
H872 C858 0.961 . S
H873 C859 0.958 . S
H874 C859 0.961 1_556 S
H875 C859 0.960 . S
C876 C877 1.391 . S
C876 C878 1.394 . S
C876 H892 0.931 . S
C877 C876 1.391 . S
C877 C881 1.376 . S
C878 C876 1.394 . S
C878 C879 1.369 . S
C878 C882 1.531 . S
C879 C878 1.369 . S
C879 C880 1.410 . S
C879 C887 1.503 . S
C880 C879 1.410 . S
C880 C881 1.392 . S
C880 C883 1.511 . S
C881 C877 1.376 . S
C881 C880 1.392 . S
C881 H893 0.929 . S
C882 C878 1.531 . S
C882 H894 0.960 . S
C882 H895 0.962 1_455 S
C882 H896 0.960 . S
C883 C880 1.511 . S
C883 H897 0.961 . S
C883 H898 0.961 . S
C883 H899 0.961 . S
C884 C885 1.370 . S
C884 C886 1.363 . S
C884 H900 0.931 1_455 S
C885 C884 1.370 . S
C885 C889 1.408 . S
C886 C884 1.363 . S
C886 C887 1.370 . S
C886 C890 1.524 . S
C887 C879 1.503 . S
C887 C886 1.370 . S
C887 C888 1.403 . S
C888 C887 1.403 . S
C888 C889 1.404 . S
C888 C891 1.539 . S
C889 C885 1.408 . S
C889 C888 1.404 . S
C889 H901 0.930 . S
C890 C886 1.524 . S
C890 H902 0.956 1_455 S
C890 H903 0.961 . S
C890 H904 0.961 1_455 S
C891 C888 1.539 . S
C891 H905 0.958 . S
C891 H906 0.961 . S
C891 H907 0.960 . S
H892 C876 0.931 . S
H893 C881 0.929 . S
H894 C882 0.960 . S
H895 C882 0.962 1_655 S
H896 C882 0.960 . S
H897 C883 0.961 . S
H898 C883 0.961 . S
H899 C883 0.961 . S
H900 C884 0.931 1_655 S
H901 C889 0.930 . S
H902 C890 0.956 1_655 S
H903 C890 0.961 . S
H904 C890 0.961 1_655 S
H905 C891 0.958 . S
H906 C891 0.961 . S
H907 C891 0.960 . S
C908 C909 1.391 . S
C908 C910 1.394 . S
C908 H924 0.931 . S
C909 C908 1.391 . S
C909 C913 1.376 . S
C910 C908 1.394 . S
C910 C911 1.369 . S
C910 C914 1.531 . S
C911 C910 1.369 . S
C911 C912 1.410 . S
C911 C919 1.503 . S
C912 C911 1.410 . S
C912 C913 1.392 . S
C912 C915 1.511 . S
C913 C909 1.376 . S
C913 C912 1.392 . S
C913 H925 0.929 . S
C914 C910 1.531 . S
C914 H926 0.960 . S
C914 H927 0.962 . S
C914 H928 0.960 . S
C915 C912 1.511 . S
C915 H929 0.961 . S
C915 H930 0.961 . S
C915 H931 0.961 . S
C916 C917 1.370 . S
C916 C918 1.363 . S
C916 H932 0.931 . S
C917 C916 1.370 . S
C917 C921 1.408 . S
C918 C916 1.363 . S
C918 C919 1.370 . S
C918 C922 1.524 . S
C919 C911 1.503 . S
C919 C918 1.370 . S
C919 C920 1.403 . S
C920 C919 1.403 . S
C920 C921 1.404 . S
C920 C923 1.539 . S
C921 C917 1.408 . S
C921 C920 1.404 . S
C921 H933 0.930 . S
C922 C918 1.524 . S
C922 H934 0.956 . S
C922 H935 0.961 . S
C922 H936 0.961 . S
C923 C920 1.539 . S
C923 H937 0.958 . S
C923 H938 0.961 . S
C923 H939 0.960 . S
H924 C908 0.931 . S
H925 C913 0.929 . S
H926 C914 0.960 . S
H927 C914 0.962 . S
H928 C914 0.960 . S
H929 C915 0.961 . S
H930 C915 0.961 . S
H931 C915 0.961 . S
H932 C916 0.931 . S
H933 C921 0.930 . S
H934 C922 0.956 . S
H935 C922 0.961 . S
H936 C922 0.961 . S
H937 C923 0.958 . S
H938 C923 0.961 . S
H939 C923 0.960 . S
C173 C4 1.715 . S
C181 C91 1.608 . S
C205 C16 1.819 . S
C213 C125 1.704 . S
C245 C137 1.048 . S
C237 C32 1.102 . S
C269 C43 1.348 . S
C277 C171 1.270 . S
C309 C128 1.844 . S
C301 C5 1.967 . S
C341 C108 1.266 . S
C333 C21 1.322 . S
C373 C155 1.250 . S
C365 C27 1.388 . S
C405 C146 1.375 . S
C397 C37 1.431 . S
C429 C10 1.568 . S
C437 C154 1.489 . S
C469 C116 1.502 . S
C461 C26 1.607 . S
C493 C38 1.287 . S
C501 C92 1.167 . S
C525 C15 1.676 . S
C533 C149 1.563 . S
C565 C107 1.772 . S
C557 C48 1.898 . S
C589 C59 1.682 . S
C597 C129 1.549 . S
C621 C76 1.474 . S
C629 C134 1.413 . S
C653 C87 1.293 . S
C661 C167 1.276 . S
C685 C54 1.495 1_554 S
C693 C112 1.424 1_545 S
C725 C104 1.833 . S
C717 C60 1.932 . S
C757 C158 1.443 . S
C749 C71 1.498 . S
C789 C150 1.359 . S
C781 C82 1.455 . S
C813 C49 1.806 . S
C821 C170 1.708 . S
C853 C113 1.273 . S
C845 C70 1.370 . S
C885 C95 1.551 . S
C877 C81 1.656 . S
C909 C65 1.584 . S
C917 C133 1.474 . S
