# Generated by pormake.
# Topology ctn, (3,4)-cn, num edge types: 1
# Building blocks:
#     Node 0, Type 0, BuildingBlock: PAMTOO_clean_linker_0, # of connection points: 3
#     Node 1, Type 0, BuildingBlock: PAMTOO_clean_linker_0, # of connection points: 3
#     Node 2, Type 0, BuildingBlock: PAMTOO_clean_linker_0, # of connection points: 3
#     Node 3, Type 0, BuildingBlock: PAMTOO_clean_linker_0, # of connection points: 3
#     Node 4, Type 0, BuildingBlock: PAMTOO_clean_linker_0, # of connection points: 3
#     Node 5, Type 0, BuildingBlock: PAMTOO_clean_linker_0, # of connection points: 3
#     Node 6, Type 0, BuildingBlock: PAMTOO_clean_linker_0, # of connection points: 3
#     Node 7, Type 0, BuildingBlock: PAMTOO_clean_linker_0, # of connection points: 3
#     Node 8, Type 0, BuildingBlock: PAMTOO_clean_linker_0, # of connection points: 3
#     Node 9, Type 0, BuildingBlock: PAMTOO_clean_linker_0, # of connection points: 3
#     Node 10, Type 0, BuildingBlock: PAMTOO_clean_linker_0, # of connection points: 3
#     Node 11, Type 0, BuildingBlock: PAMTOO_clean_linker_0, # of connection points: 3
#     Node 12, Type 0, BuildingBlock: PAMTOO_clean_linker_0, # of connection points: 3
#     Node 13, Type 0, BuildingBlock: PAMTOO_clean_linker_0, # of connection points: 3
#     Node 14, Type 0, BuildingBlock: PAMTOO_clean_linker_0, # of connection points: 3
#     Node 15, Type 0, BuildingBlock: PAMTOO_clean_linker_0, # of connection points: 3
#     Node 16, Type 1, BuildingBlock: TATPOV_clean_sbu_0, # of connection points: 4
#     Node 17, Type 1, BuildingBlock: TATPOV_clean_sbu_0, # of connection points: 4
#     Node 18, Type 1, BuildingBlock: TATPOV_clean_sbu_0, # of connection points: 4
#     Node 19, Type 1, BuildingBlock: TATPOV_clean_sbu_0, # of connection points: 4
#     Node 20, Type 1, BuildingBlock: TATPOV_clean_sbu_0, # of connection points: 4
#     Node 21, Type 1, BuildingBlock: TATPOV_clean_sbu_0, # of connection points: 4
#     Node 22, Type 1, BuildingBlock: TATPOV_clean_sbu_0, # of connection points: 4
#     Node 23, Type 1, BuildingBlock: TATPOV_clean_sbu_0, # of connection points: 4
#     Node 24, Type 1, BuildingBlock: TATPOV_clean_sbu_0, # of connection points: 4
#     Node 25, Type 1, BuildingBlock: TATPOV_clean_sbu_0, # of connection points: 4
#     Node 26, Type 1, BuildingBlock: TATPOV_clean_sbu_0, # of connection points: 4
#     Node 27, Type 1, BuildingBlock: TATPOV_clean_sbu_0, # of connection points: 4
#     Edge 28, Type (0, 1), BuildingBlock: UVAHIK_clean_linker_0, # of connection points: 2
#     Edge 29, Type (0, 1), BuildingBlock: UVAHIK_clean_linker_0, # of connection points: 2
#     Edge 30, Type (0, 1), BuildingBlock: UVAHIK_clean_linker_0, # of connection points: 2
#     Edge 31, Type (0, 1), BuildingBlock: UVAHIK_clean_linker_0, # of connection points: 2
#     Edge 32, Type (0, 1), BuildingBlock: UVAHIK_clean_linker_0, # of connection points: 2
#     Edge 33, Type (0, 1), BuildingBlock: UVAHIK_clean_linker_0, # of connection points: 2
#     Edge 34, Type (0, 1), BuildingBlock: UVAHIK_clean_linker_0, # of connection points: 2
#     Edge 35, Type (0, 1), BuildingBlock: UVAHIK_clean_linker_0, # of connection points: 2
#     Edge 36, Type (0, 1), BuildingBlock: UVAHIK_clean_linker_0, # of connection points: 2
#     Edge 37, Type (0, 1), BuildingBlock: UVAHIK_clean_linker_0, # of connection points: 2
#     Edge 38, Type (0, 1), BuildingBlock: UVAHIK_clean_linker_0, # of connection points: 2
#     Edge 39, Type (0, 1), BuildingBlock: UVAHIK_clean_linker_0, # of connection points: 2
#     Edge 40, Type (0, 1), BuildingBlock: UVAHIK_clean_linker_0, # of connection points: 2
#     Edge 41, Type (0, 1), BuildingBlock: UVAHIK_clean_linker_0, # of connection points: 2
#     Edge 42, Type (0, 1), BuildingBlock: UVAHIK_clean_linker_0, # of connection points: 2
#     Edge 43, Type (0, 1), BuildingBlock: UVAHIK_clean_linker_0, # of connection points: 2
#     Edge 44, Type (0, 1), BuildingBlock: UVAHIK_clean_linker_0, # of connection points: 2
#     Edge 45, Type (0, 1), BuildingBlock: UVAHIK_clean_linker_0, # of connection points: 2
#     Edge 46, Type (0, 1), BuildingBlock: UVAHIK_clean_linker_0, # of connection points: 2
#     Edge 47, Type (0, 1), BuildingBlock: UVAHIK_clean_linker_0, # of connection points: 2
#     Edge 48, Type (0, 1), BuildingBlock: UVAHIK_clean_linker_0, # of connection points: 2
#     Edge 49, Type (0, 1), BuildingBlock: UVAHIK_clean_linker_0, # of connection points: 2
#     Edge 50, Type (0, 1), BuildingBlock: UVAHIK_clean_linker_0, # of connection points: 2
#     Edge 51, Type (0, 1), BuildingBlock: UVAHIK_clean_linker_0, # of connection points: 2
#     Edge 52, Type (0, 1), BuildingBlock: UVAHIK_clean_linker_0, # of connection points: 2
#     Edge 53, Type (0, 1), BuildingBlock: UVAHIK_clean_linker_0, # of connection points: 2
#     Edge 54, Type (0, 1), BuildingBlock: UVAHIK_clean_linker_0, # of connection points: 2
#     Edge 55, Type (0, 1), BuildingBlock: UVAHIK_clean_linker_0, # of connection points: 2
#     Edge 56, Type (0, 1), BuildingBlock: UVAHIK_clean_linker_0, # of connection points: 2
#     Edge 57, Type (0, 1), BuildingBlock: UVAHIK_clean_linker_0, # of connection points: 2
#     Edge 58, Type (0, 1), BuildingBlock: UVAHIK_clean_linker_0, # of connection points: 2
#     Edge 59, Type (0, 1), BuildingBlock: UVAHIK_clean_linker_0, # of connection points: 2
#     Edge 60, Type (0, 1), BuildingBlock: UVAHIK_clean_linker_0, # of connection points: 2
#     Edge 61, Type (0, 1), BuildingBlock: UVAHIK_clean_linker_0, # of connection points: 2
#     Edge 62, Type (0, 1), BuildingBlock: UVAHIK_clean_linker_0, # of connection points: 2
#     Edge 63, Type (0, 1), BuildingBlock: UVAHIK_clean_linker_0, # of connection points: 2
#     Edge 64, Type (0, 1), BuildingBlock: UVAHIK_clean_linker_0, # of connection points: 2
#     Edge 65, Type (0, 1), BuildingBlock: UVAHIK_clean_linker_0, # of connection points: 2
#     Edge 66, Type (0, 1), BuildingBlock: UVAHIK_clean_linker_0, # of connection points: 2
#     Edge 67, Type (0, 1), BuildingBlock: UVAHIK_clean_linker_0, # of connection points: 2
#     Edge 68, Type (0, 1), BuildingBlock: UVAHIK_clean_linker_0, # of connection points: 2
#     Edge 69, Type (0, 1), BuildingBlock: UVAHIK_clean_linker_0, # of connection points: 2
#     Edge 70, Type (0, 1), BuildingBlock: UVAHIK_clean_linker_0, # of connection points: 2
#     Edge 71, Type (0, 1), BuildingBlock: UVAHIK_clean_linker_0, # of connection points: 2
#     Edge 72, Type (0, 1), BuildingBlock: UVAHIK_clean_linker_0, # of connection points: 2
#     Edge 73, Type (0, 1), BuildingBlock: UVAHIK_clean_linker_0, # of connection points: 2
#     Edge 74, Type (0, 1), BuildingBlock: UVAHIK_clean_linker_0, # of connection points: 2
#     Edge 75, Type (0, 1), BuildingBlock: UVAHIK_clean_linker_0, # of connection points: 2
# Relax obj value: 0.066
# Max RMSD: 0.186
# Mean RMSD: 0.118
data_MOF--net-ctn--node1-TATPOV_clean_sbu_0--node2-PAMTOO_clean_linker_0--edge1-UVAHIK_clean_linker_0
_symmetry_space_group_name_H-M    P1
_symmetry_Int_Tables_number       1
_symmetry_cell_setting            triclinic
loop_
_symmetry_equiv_pos_as_xyz
'x, y, z'
_cell_length_a     69.440295
_cell_length_b     69.863481
_cell_length_c     70.928216
_cell_angle_alpha  86.247937
_cell_angle_beta   93.472919
_cell_angle_gamma 98.374213
loop_
_atom_site_label
_atom_site_type_symbol
_atom_site_fract_x
_atom_site_fract_y
_atom_site_fract_z
_atom_type_partial_charge
H0 H 0.013 0.06044 0.05253 0.0
H1 H 0.03682 0.00861 0.07205 0.0
H2 H 0.06002 0.04285 0.02403 0.0
H3 H 0.05346 0.00135 0.02013 0.0
C4 C 0.05792 0.99617 0.03471 0.0
O5 O 0.06253 0.01171 0.04603 0.0
H6 H 0.04534 0.98622 0.04041 0.0
C7 C 0.02308 0.0502 0.05106 0.0
C8 C 0.03634 0.05362 0.03659 0.0
C9 C 0.0231 0.0341 0.06405 0.0
C10 C 0.03667 0.02125 0.06237 0.0
C11 C 0.04986 0.0244 0.04788 0.0
C12 C 0.04981 0.04064 0.0352 0.0
H13 H 0.29376 0.69436 0.27345 0.0
H14 H 0.25649 0.71055 0.22609 0.0
H15 H 0.30744 0.74928 0.24222 0.0
H16 H 0.27102 0.76731 0.23294 0.0
C17 C 0.26491 0.75799 0.22124 0.0
O18 O 0.27691 0.74431 0.21893 0.0
H19 H 0.25022 0.75069 0.22506 0.0
C20 C 0.29053 0.70456 0.26194 0.0
C21 C 0.30292 0.72228 0.25937 0.0
C22 C 0.2737 0.7001 0.25006 0.0
C23 C 0.2692 0.71373 0.2356 0.0
C24 C 0.28123 0.73147 0.23307 0.0
C25 C 0.29806 0.73567 0.24479 0.0
H26 H 0.97787 0.46482 0.10822 0.0
H27 H 0.92959 0.43082 0.0797 0.0
H28 H 0.98265 0.40697 0.09289 0.0
H29 H 0.94451 0.41418 0.05058 0.0
C30 C 0.94344 0.3995 0.05795 0.0
O31 O 0.94735 0.4006 0.07722 0.0
H32 H 0.92804 0.39281 0.05551 0.0
C33 C 0.97181 0.4516 0.10153 0.0
C34 C 0.98265 0.43605 0.10186 0.0
C35 C 0.95271 0.44989 0.09351 0.0
C36 C 0.94437 0.4324 0.08586 0.0
C37 C 0.95537 0.41718 0.08518 0.0
C38 C 0.97445 0.41901 0.09312 0.0
H39 H 0.71325 0.807 0.25418 0.0
H40 H 0.69573 0.74687 0.24288 0.0
H41 H 0.74208 0.78059 0.21288 0.0
H42 H 0.70745 0.7563 0.19228 0.0
C43 C 0.70956 0.74262 0.20064 0.0
O44 O 0.72086 0.74655 0.217 0.0
H45 H 0.69491 0.73519 0.20443 0.0
C46 C 0.71466 0.79442 0.24648 0.0
C47 C 0.72893 0.79596 0.23304 0.0
C48 C 0.70258 0.77677 0.25035 0.0
C49 C 0.70507 0.76054 0.24051 0.0
C50 C 0.7192 0.762 0.22698 0.0
C51 C 0.73126 0.7796 0.22343 0.0
H52 H 0.10143 0.97061 0.49447 0.0
H53 H 0.04735 0.96143 0.46089 0.0
H54 H 0.09112 0.009 0.44609 0.0
H55 H 0.05331 0.01957 0.43847 0.0
C56 C 0.0444 0.00499 0.43857 0.0
O57 O 0.05637 0.9911 0.4371 0.0
H58 H 0.03695 0.00256 0.45219 0.0
C59 C 0.0921 0.97474 0.48254 0.0
C60 C 0.09849 0.99107 0.47073 0.0
C61 C 0.07365 0.9639 0.47917 0.0
C62 C 0.06172 0.96944 0.46363 0.0
C63 C 0.06804 0.98569 0.45181 0.0
C64 C 0.08638 0.99644 0.45534 0.0
H65 H 0.19201 0.75892 0.78677 0.0
H66 H 0.2117 0.71979 0.75008 0.0
H67 H 0.24475 0.73432 0.80139 0.0
H68 H 0.26849 0.7309 0.76754 0.0
C69 C 0.25809 0.71969 0.76034 0.0
O70 O 0.24242 0.71396 0.77151 0.0
H71 H 0.25303 0.72603 0.74644 0.0
C72 C 0.20258 0.7498 0.78352 0.0
C73 C 0.2186 0.74789 0.79628 0.0
C74 C 0.19993 0.73987 0.76672 0.0
C75 C 0.21362 0.72791 0.76273 0.0
C76 C 0.22974 0.72603 0.7752 0.0
C77 C 0.23221 0.73598 0.79189 0.0
H78 H 0.9405 0.56922 0.49966 0.0
H79 H 0.96662 0.53836 0.45949 0.0
H80 H 0.9982 0.59004 0.48149 0.0
H81 H 0.00556 0.5873 0.4413 0.0
C82 C 0.99974 0.5717 0.44015 0.0
O83 O 0.99862 0.5628 0.45808 0.0
H84 H 0.98502 0.57072 0.43279 0.0
C85 C 0.9526 0.56764 0.49123 0.0
C86 C 0.96955 0.58133 0.49231 0.0
C87 C 0.95119 0.55193 0.4795 0.0
C88 C 0.96704 0.55036 0.4685 0.0
C89 C 0.98377 0.5642 0.46913 0.0
C90 C 0.98513 0.57947 0.48115 0.0
H91 H 0.81703 0.83508 0.88222 0.0
H92 H 0.86224 0.80286 0.86837 0.0
H93 H 0.83838 0.84052 0.8261 0.0
H94 H 0.84094 0.79755 0.82007 0.0
C95 C 0.85681 0.79873 0.82417 0.0
O96 O 0.86298 0.81565 0.83316 0.0
H97 H 0.85896 0.78609 0.83405 0.0
C98 C 0.82717 0.83167 0.87233 0.0
C99 C 0.82656 0.83987 0.85371 0.0
C100 C 0.83988 0.81811 0.87783 0.0
C101 C 0.85272 0.81368 0.86471 0.0
C102 C 0.8521 0.8217 0.84614 0.0
C103 C 0.83906 0.83475 0.84065 0.0
H104 H 0.32095 0.33384 0.36814 0.0
H105 H 0.36996 0.31379 0.34499 0.0
H106 H 0.34642 0.36245 0.31805 0.0
H107 H 0.35995 0.34334 0.28896 0.0
C108 C 0.36403 0.33118 0.29852 0.0
O109 O 0.37132 0.33835 0.31565 0.0
H110 H 0.35059 0.32052 0.30053 0.0
C111 C 0.33225 0.33558 0.35803 0.0
C112 C 0.33212 0.34995 0.34319 0.0
C113 C 0.34591 0.32244 0.35897 0.0
C114 C 0.35954 0.32393 0.34486 0.0
C115 C 0.35962 0.33831 0.33021 0.0
C116 C 0.34633 0.35158 0.32968 0.0
H117 H 0.47517 0.96997 0.60487 0.0
H118 H 0.42434 0.93445 0.58183 0.0
H119 H 0.47795 0.9112 0.59144 0.0
H120 H 0.43503 0.91587 0.55228 0.0
C121 C 0.43614 0.90171 0.5602 0.0
O122 O 0.44157 0.90419 0.57904 0.0
H123 H 0.42121 0.89344 0.55931 0.0
C124 C 0.46821 0.95641 0.59943 0.0
C125 C 0.47889 0.94074 0.59954 0.0
C126 C 0.44856 0.95459 0.59275 0.0
C127 C 0.43963 0.93662 0.58637 0.0
C128 C 0.45038 0.92127 0.58545 0.0
C129 C 0.46996 0.92336 0.59189 0.0
H130 H 0.21905 0.30388 0.75496 0.0
H131 H 0.19905 0.24505 0.7406 0.0
H132 H 0.24448 0.27927 0.70995 0.0
H133 H 0.20841 0.25625 0.69031 0.0
C134 C 0.21154 0.24226 0.69745 0.0
O135 O 0.22322 0.2454 0.71372 0.0
H136 H 0.19735 0.23375 0.70122 0.0
C137 C 0.21967 0.29184 0.74623 0.0
C138 C 0.23318 0.29393 0.73196 0.0
C139 C 0.20712 0.27437 0.7495 0.0
C140 C 0.20868 0.25861 0.7386 0.0
C141 C 0.2222 0.26045 0.72448 0.0
C142 C 0.23441 0.278 0.7212 0.0
H143 H 0.79491 0.1942 0.77305 0.0
H144 H 0.75714 0.21087 0.7263 0.0
H145 H 0.80793 0.2497 0.74265 0.0
H146 H 0.77116 0.26749 0.73398 0.0
C147 C 0.76511 0.25833 0.72215 0.0
O148 O 0.77725 0.24486 0.71954 0.0
H149 H 0.75048 0.25081 0.72592 0.0
C150 C 0.79151 0.20457 0.76176 0.0
C151 C 0.80375 0.22241 0.75938 0.0
C152 C 0.77461 0.20018 0.74994 0.0
C153 C 0.76989 0.214 0.73577 0.0
C154 C 0.78176 0.23186 0.73345 0.0
C155 C 0.79866 0.23599 0.74509 0.0
H156 H 0.51267 0.56302 0.55029 0.0
H157 H 0.53696 0.51141 0.56944 0.0
H158 H 0.55986 0.54604 0.52152 0.0
H159 H 0.55374 0.50444 0.5172 0.0
C160 C 0.55789 0.4992 0.53184 0.0
O161 O 0.56245 0.51471 0.5432 0.0
H162 H 0.54514 0.48934 0.53733 0.0
C163 C 0.52308 0.55311 0.5489 0.0
C164 C 0.53623 0.55669 0.53432 0.0
C165 C 0.52318 0.5369 0.56173 0.0
C166 C 0.53671 0.52408 0.55982 0.0
C167 C 0.54972 0.5273 0.54518 0.0
C168 C 0.54953 0.5436 0.53257 0.0
H169 H 0.59015 0.47194 0.99152 0.0
H170 H 0.53332 0.46718 0.96243 0.0
H171 H 0.57767 0.51388 0.94708 0.0
H172 H 0.53926 0.52536 0.94232 0.0
C173 C 0.53029 0.51083 0.94175 0.0
O174 O 0.54215 0.49712 0.93916 0.0
H175 H 0.52301 0.50757 0.95539 0.0
C176 C 0.57996 0.47722 0.98095 0.0
C177 C 0.58602 0.49418 0.96988 0.0
C178 C 0.56089 0.46728 0.97864 0.0
C179 C 0.54814 0.47434 0.96452 0.0
C180 C 0.55429 0.49096 0.9531 0.0
C181 C 0.57311 0.50095 0.9559 0.0
H182 H 0.70289 0.26796 0.28504 0.0
H183 H 0.72212 0.22857 0.2484 0.0
H184 H 0.75232 0.23886 0.30204 0.0
H185 H 0.77733 0.23403 0.26898 0.0
C186 C 0.76662 0.22328 0.26153 0.0
O187 O 0.7501 0.21905 0.27179 0.0
H188 H 0.76284 0.22958 0.24721 0.0
C189 C 0.7132 0.25848 0.28199 0.0
C190 C 0.728 0.2549 0.29564 0.0
C191 C 0.71094 0.24921 0.26482 0.0
C192 C 0.72364 0.23601 0.26145 0.0
C193 C 0.73853 0.23241 0.27484 0.0
C194 C 0.74075 0.24187 0.29182 0.0
H195 H 0.44596 0.0611 0.99833 0.0
H196 H 0.46977 0.03028 0.95657 0.0
H197 H 0.50332 0.0809 0.97874 0.0
H198 H 0.50918 0.0787 0.93834 0.0
C199 C 0.50314 0.06318 0.93697 0.0
O200 O 0.50227 0.05394 0.95477 0.0
H201 H 0.4883 0.06248 0.92992 0.0
C202 C 0.45768 0.05939 0.98948 0.0
C203 C 0.47494 0.07271 0.99032 0.0
C204 C 0.45545 0.04392 0.97739 0.0
C205 C 0.47083 0.04212 0.96587 0.0
C206 C 0.48789 0.05554 0.96631 0.0
C207 C 0.49003 0.07063 0.97862 0.0
Zn208 Zn 0.27958 0.85491 0.99758 0.0
Zn209 Zn 0.25032 0.87461 0.99963 0.0
O210 O 0.25283 0.86068 0.02638 0.0
O211 O 0.27925 0.84695 0.0252 0.0
O212 O 0.22786 0.89004 0.00168 0.0
O213 O 0.29668 0.87896 0.98822 0.0
O214 O 0.27356 0.89601 0.99393 0.0
C215 C 0.26542 0.85081 0.03444 0.0
C216 C 0.24862 0.84235 0.97142 0.0
O217 O 0.24161 0.85675 0.97714 0.0
O218 O 0.26439 0.83772 0.97894 0.0
C219 C 0.21313 0.88343 0.01121 0.0
O220 O 0.21215 0.86595 0.01946 0.0
C221 C 0.29073 0.89516 0.98889 0.0
Zn222 Zn 0.11915 0.44239 0.30048 0.0
Zn223 Zn 0.14092 0.47642 0.29011 0.0
O224 O 0.12354 0.48396 0.31002 0.0
O225 O 0.10537 0.4566 0.31847 0.0
O226 O 0.1576 0.50167 0.28314 0.0
O227 O 0.14383 0.43145 0.30928 0.0
O228 O 0.16119 0.45909 0.30029 0.0
C229 C 0.11014 0.47467 0.31992 0.0
C230 C 0.11426 0.45369 0.26065 0.0
O231 O 0.12629 0.46849 0.26509 0.0
O232 O 0.10907 0.44044 0.27315 0.0
C233 C 0.15012 0.51694 0.27836 0.0
O234 O 0.13106 0.51609 0.27759 0.0
C235 C 0.16025 0.44179 0.30745 0.0
Zn236 Zn 0.81825 0.60819 0.00477 0.0
Zn237 Zn 0.80673 0.62345 0.03526 0.0
O238 O 0.82746 0.60688 0.0465 0.0
O239 O 0.83941 0.59747 0.0211 0.0
O240 O 0.79876 0.63632 0.05762 0.0
O241 O 0.82351 0.63478 0.99169 0.0
O242 O 0.8161 0.64715 0.01758 0.0
C243 C 0.83957 0.59806 0.03891 0.0
C244 C 0.77787 0.59539 0.01242 0.0
O245 O 0.78144 0.60737 0.02541 0.0
O246 O 0.79132 0.5925 0.0021 0.0
C247 C 0.78678 0.62805 0.06949 0.0
O248 O 0.77928 0.60984 0.06767 0.0
C249 C 0.82176 0.64942 0.00072 0.0
Zn250 Zn 0.85231 0.01128 0.28066 0.0
Zn251 Zn 0.87477 0.01571 0.2516 0.0
O252 O 0.86131 0.04072 0.24886 0.0
O253 O 0.84095 0.03528 0.27193 0.0
O254 O 0.89298 0.01839 0.22997 0.0
O255 O 0.87534 0.0121 0.2992 0.0
O256 O 0.89406 0.01429 0.27501 0.0
C257 C 0.84774 0.04579 0.25798 0.0
C258 C 0.84346 0.97968 0.25681 0.0
O259 O 0.85646 0.98975 0.24689 0.0
O260 O 0.83927 0.98572 0.27227 0.0
C261 C 0.88727 0.02043 0.21267 0.0
O262 O 0.86872 0.02121 0.20838 0.0
C263 C 0.8921 0.01302 0.29284 0.0
Zn264 Zn 0.32701 0.11509 0.49916 0.0
Zn265 Zn 0.31452 0.13341 0.52705 0.0
O266 O 0.33541 0.11818 0.54042 0.0
O267 O 0.3481 0.1062 0.51683 0.0
O268 O 0.30548 0.14764 0.54798 0.0
O269 O 0.33211 0.14029 0.48368 0.0
O270 O 0.32354 0.15553 0.50732 0.0
C271 C 0.34783 0.10862 0.53433 0.0
C272 C 0.2867 0.10239 0.50672 0.0
O273 O 0.28976 0.11584 0.51829 0.0
O274 O 0.30045 0.09863 0.49724 0.0
C275 C 0.29585 0.13856 0.5613 0.0
O276 O 0.29206 0.11957 0.56151 0.0
C277 C 0.32967 0.15591 0.49069 0.0
Zn278 Zn 0.34441 0.51031 0.77279 0.0
Zn279 Zn 0.37078 0.51684 0.74635 0.0
O280 O 0.3569 0.54152 0.74318 0.0
O281 O 0.33478 0.53539 0.76463 0.0
O282 O 0.39073 0.5207 0.72619 0.0
O283 O 0.3661 0.50924 0.79299 0.0
O284 O 0.38775 0.51517 0.77117 0.0
C285 C 0.34271 0.54639 0.75154 0.0
C286 C 0.33882 0.48079 0.7465 0.0
O287 O 0.35386 0.49082 0.73955 0.0
O288 O 0.33162 0.48619 0.76089 0.0
C289 C 0.38556 0.52241 0.70872 0.0
O290 O 0.36698 0.52222 0.70381 0.0
C291 C 0.38371 0.51197 0.7885 0.0
Zn292 Zn 0.78043 0.35746 0.49965 0.0
Zn293 Zn 0.75084 0.37681 0.50142 0.0
O294 O 0.75311 0.36277 0.52816 0.0
O295 O 0.77981 0.34943 0.52723 0.0
O296 O 0.72817 0.39203 0.50312 0.0
O297 O 0.7974 0.38172 0.49053 0.0
O298 O 0.77394 0.39841 0.49605 0.0
C299 C 0.76576 0.35304 0.53633 0.0
C300 C 0.74994 0.34479 0.47309 0.0
O301 O 0.74271 0.35909 0.47875 0.0
O302 O 0.76564 0.3402 0.48082 0.0
C303 C 0.7134 0.38558 0.51265 0.0
O304 O 0.71245 0.36827 0.52127 0.0
C305 C 0.79121 0.39781 0.49118 0.0
Zn306 Zn 0.62195 0.93976 0.79066 0.0
Zn307 Zn 0.64392 0.97415 0.78237 0.0
O308 O 0.62635 0.9805 0.80269 0.0
O309 O 0.60844 0.95264 0.80996 0.0
O310 O 0.66062 0.99975 0.77674 0.0
O311 O 0.64646 0.92803 0.79794 0.0
O312 O 0.66412 0.95636 0.79184 0.0
C313 C 0.61306 0.97059 0.81228 0.0
C314 C 0.61707 0.95343 0.75162 0.0
O315 O 0.6294 0.96773 0.75679 0.0
O316 O 0.61157 0.93964 0.76346 0.0
C317 C 0.653 0.01507 0.77258 0.0
O318 O 0.63391 0.01398 0.77162 0.0
C319 C 0.66294 0.9385 0.79729 0.0
Zn320 Zn 0.0183 0.29655 0.88089 0.0
Zn321 Zn 0.01733 0.26107 0.89757 0.0
O322 O 0.04241 0.2647 0.88235 0.0
O323 O 0.04265 0.29364 0.86805 0.0
O324 O 0.01742 0.23467 0.9112 0.0
O325 O 0.02033 0.30844 0.90612 0.0
O326 O 0.01687 0.279 0.91975 0.0
C327 C 0.05031 0.2783 0.87122 0.0
C328 C 0.98365 0.27047 0.87021 0.0
O329 O 0.99187 0.25816 0.88071 0.0
O330 O 0.99177 0.2879 0.86832 0.0
C331 C 0.03302 0.23024 0.91961 0.0
O332 O 0.04896 0.24292 0.91905 0.0
C333 C 0.0186 0.29732 0.92092 0.0
Zn334 Zn 0.51481 0.80072 0.3823 0.0
Zn335 Zn 0.51458 0.76592 0.40005 0.0
O336 O 0.53972 0.76941 0.38496 0.0
O337 O 0.53932 0.79785 0.36977 0.0
O338 O 0.51554 0.74046 0.41519 0.0
O339 O 0.51636 0.81382 0.40683 0.0
O340 O 0.51352 0.78479 0.42132 0.0
C341 C 0.54733 0.78278 0.37343 0.0
C342 C 0.48074 0.77344 0.37224 0.0
O343 O 0.48919 0.76161 0.38314 0.0
O344 O 0.4885 0.79095 0.36994 0.0
C345 C 0.51935 0.72516 0.4083 0.0
O346 O 0.52245 0.72542 0.39019 0.0
C347 C 0.51477 0.80315 0.42193 0.0
Zn348 Zn 0.95832 0.77805 0.61503 0.0
Zn349 Zn 0.99216 0.77355 0.63433 0.0
O350 O 1.00013 0.79763 0.6167 0.0
O351 O 0.97237 0.80182 0.60136 0.0
O352 O 0.01672 0.76987 0.64995 0.0
O353 O 0.94552 0.78066 0.63926 0.0
O354 O 0.97326 0.77704 0.65483 0.0
C355 C 0.99047 0.8071 0.60445 0.0
C356 C 0.97182 0.74194 0.60891 0.0
O357 O 0.9859 0.7485 0.62014 0.0
O358 O 0.95799 0.75169 0.60467 0.0
C359 C 0.03255 0.76787 0.64269 0.0
O360 O 0.0332 0.76839 0.62418 0.0
C361 C 0.95547 0.77972 0.65476 0.0
Zn362 Zn 0.46604 0.26836 0.11383 0.0
Zn363 Zn 0.50241 0.26748 0.12938 0.0
O364 O 0.50643 0.29154 0.11107 0.0
O365 O 0.47697 0.29213 0.09779 0.0
O366 O 0.52906 0.26547 0.14156 0.0
O367 O 0.45648 0.27074 0.13984 0.0
O368 O 0.48639 0.2708 0.15212 0.0
C369 C 0.49481 0.29929 0.09933 0.0
C370 C 0.4809 0.23364 0.10673 0.0
O371 O 0.49579 0.24172 0.11611 0.0
O372 O 0.46589 0.24199 0.10398 0.0
C373 C 0.53937 0.27979 0.14912 0.0
O374 O 0.53265 0.29646 0.14859 0.0
C375 C 0.46843 0.2717 0.15408 0.0
C376 C 0.21622 0.77684 0.81498 0.0
C377 C 0.22068 0.75788 0.81438 0.0
C378 C 0.21753 0.78594 0.83211 0.0
C379 C 0.24119 0.7843 0.87998 0.0
H380 H 0.2011 0.81373 0.89298 0.0
C381 C 0.24269 0.81233 0.95374 0.0
C382 C 0.23968 0.83164 0.95504 0.0
C383 C 0.23799 0.80301 0.93695 0.0
C384 C 0.21249 0.8057 0.88948 0.0
H385 H 0.22982 0.73358 0.83146 0.0
H386 H 0.23235 0.7495 0.86124 0.0
H387 H 0.19828 0.79842 0.86266 0.0
H388 H 0.22831 0.85598 0.94014 0.0
H389 H 0.22032 0.83973 0.91046 0.0
H390 H 0.25558 0.79168 0.9065 0.0
C391 C 0.228 0.75742 0.84841 0.0
C392 C 0.21088 0.79694 0.87212 0.0
C393 C 0.22662 0.7483 0.83132 0.0
C394 C 0.23067 0.84105 0.93955 0.0
C395 C 0.22615 0.83174 0.92256 0.0
C396 C 0.24282 0.79307 0.89723 0.0
C397 C 0.22346 0.77633 0.84902 0.0
C398 C 0.22517 0.78602 0.86724 0.0
C399 C 0.23042 0.81283 0.92089 0.0
C400 C 0.22842 0.80373 0.90231 0.0
H401 H 0.21187 0.78476 0.80217 0.0
H402 H 0.21421 0.80062 0.83205 0.0
H403 H 0.25265 0.77635 0.8765 0.0
H404 H 0.24939 0.80463 0.96555 0.0
H405 H 0.2409 0.78825 0.93639 0.0
C406 C 0.02918 0.57232 0.42067 0.0
C407 C 0.01253 0.56187 0.42867 0.0
C408 C 0.04062 0.56319 0.40951 0.0
C409 C 0.05206 0.5151 0.39931 0.0
H410 H 0.06938 0.54088 0.35195 0.0
C411 C 0.0843 0.475 0.34302 0.0
C412 C 0.09992 0.48498 0.33299 0.0
C413 C 0.07443 0.48468 0.35515 0.0
C414 C 0.06491 0.53359 0.36525 0.0
H415 H 0.99465 0.53385 0.43131 0.0
H416 H 0.01466 0.51778 0.41181 0.0
H417 H 0.0508 0.55723 0.37241 0.0
H418 H 0.11751 0.51298 0.32799 0.0
H419 H 0.10045 0.5298 0.34941 0.0
H420 H 0.06615 0.49148 0.39221 0.0
C421 C 0.01902 0.53296 0.41431 0.0
C422 C 0.05424 0.54296 0.37697 0.0
C423 C 0.00754 0.54213 0.42539 0.0
C424 C 0.10551 0.50486 0.33546 0.0
C425 C 0.09565 0.51454 0.34766 0.0
C426 C 0.06279 0.50577 0.38764 0.0
C427 C 0.03564 0.54341 0.40618 0.0
C428 C 0.04756 0.53375 0.39405 0.0
C429 C 0.07997 0.50456 0.35763 0.0
C430 C 0.06922 0.51483 0.37039 0.0
H431 H 0.03329 0.58758 0.42297 0.0
H432 H 0.05343 0.57158 0.40359 0.0
H433 H 0.04738 0.50776 0.41253 0.0
H434 H 0.07954 0.45971 0.3414 0.0
H435 H 0.06223 0.47661 0.36235 0.0
C436 C 0.85426 0.8008 0.90632 0.0
C437 C 0.83782 0.80638 0.89604 0.0
C438 C 0.85208 0.78664 0.92121 0.0
C439 C 0.81806 0.74376 0.9336 0.0
H440 H 0.85067 0.74049 0.97975 0.0
C441 C 0.82809 0.67106 0.97164 0.0
C442 C 0.82513 0.66901 0.99114 0.0
C443 C 0.82966 0.68925 0.96209 0.0
C444 C 0.84138 0.74131 0.96698 0.0
H445 H 0.80618 0.80234 0.8942 0.0
H446 H 0.80244 0.77795 0.92031 0.0
H447 H 0.85271 0.77111 0.96038 0.0
H448 H 0.82229 0.68465 0.01605 0.0
H449 H 0.82533 0.71666 0.99923 0.0
H450 H 0.80707 0.71396 0.93983 0.0
C451 C 0.81701 0.78437 0.91671 0.0
C452 C 0.8426 0.75875 0.95588 0.0
C453 C 0.81917 0.79852 0.90187 0.0
C454 C 0.8245 0.68573 0.00101 0.0
C455 C 0.82629 0.70404 0.99143 0.0
C456 C 0.81701 0.72637 0.94453 0.0
C457 C 0.83342 0.77774 0.92605 0.0
C458 C 0.83107 0.76007 0.93897 0.0
C459 C 0.8285 0.70588 0.97181 0.0
C460 C 0.82884 0.72487 0.96116 0.0
H461 H 0.86882 0.80675 0.90229 0.0
H462 H 0.86501 0.7818 0.92811 0.0
H463 H 0.80918 0.7442 0.92053 0.0
H464 H 0.82872 0.65853 0.96358 0.0
H465 H 0.83164 0.69032 0.947 0.0
C466 C 0.00985 0.9982 0.42486 0.0
C467 C 0.02967 0.00437 0.4221 0.0
C468 C 0.99615 0.99809 0.4096 0.0
C469 C 0.98873 0.01971 0.36117 0.0
H470 H 0.94394 0.97949 0.35959 0.0
C471 C 0.92827 0.01491 0.30019 0.0
C472 C 0.90912 0.01187 0.30631 0.0
C473 C 0.94411 0.01334 0.31315 0.0
C474 C 0.95636 0.99085 0.35987 0.0
H475 H 0.0509 0.01472 0.40135 0.0
H476 H 0.02699 0.01425 0.37446 0.0
H477 H 0.96964 0.97749 0.38429 0.0
H478 H 0.89163 0.00486 0.33087 0.0
H479 H 0.91909 0.00207 0.35325 0.0
H480 H 0.97527 0.03304 0.33668 0.0
C481 C 0.02194 0.00987 0.38846 0.0
C482 C 0.97105 0.98975 0.37406 0.0
C483 C 0.03564 0.01005 0.40377 0.0
C484 C 0.90616 0.00729 0.32562 0.0
C485 C 0.9219 0.00554 0.33847 0.0
C486 C 0.97406 0.02073 0.34687 0.0
C487 C 0.00201 0.00398 0.39121 0.0
C488 C 0.98724 0.00436 0.37513 0.0
C489 C 0.94102 0.00846 0.33239 0.0
C490 C 0.95754 0.00651 0.34632 0.0
H491 H 0.00491 0.9937 0.43887 0.0
H492 H 0.98091 0.99375 0.41232 0.0
H493 H 0.00089 0.03131 0.36166 0.0
H494 H 0.93104 0.01847 0.28542 0.0
H495 H 0.95872 0.01563 0.3081 0.0
C496 C 0.21831 0.21121 0.68454 0.0
C497 C 0.22154 0.23153 0.68412 0.0
C498 C 0.22737 0.20127 0.67191 0.0
C499 C 0.25003 0.20814 0.62579 0.0
H500 H 0.27014 0.16035 0.64163 0.0
C501 C 0.29272 0.16959 0.57602 0.0
C502 C 0.28853 0.14929 0.57609 0.0
C503 C 0.28538 0.17974 0.58968 0.0
C504 C 0.26442 0.17357 0.63693 0.0
H505 H 0.23748 0.25742 0.67103 0.0
H506 H 0.25342 0.24011 0.64892 0.0
H507 H 0.25595 0.17784 0.66472 0.0
H508 H 0.27343 0.12371 0.59068 0.0
H509 H 0.26045 0.14141 0.61434 0.0
H510 H 0.2583 0.20381 0.59798 0.0
C511 C 0.24354 0.23184 0.65867 0.0
C512 C 0.2563 0.1836 0.65017 0.0
C513 C 0.2345 0.24174 0.67133 0.0
C514 C 0.27699 0.13935 0.59024 0.0
C515 C 0.26963 0.14949 0.60388 0.0
C516 C 0.25812 0.1981 0.61255 0.0
C517 C 0.23994 0.21149 0.65869 0.0
C518 C 0.24897 0.20098 0.64475 0.0
C519 C 0.27365 0.16983 0.60372 0.0
C520 C 0.26537 0.18067 0.61794 0.0
H521 H 0.20856 0.20303 0.69448 0.0
H522 H 0.22419 0.18562 0.67223 0.0
H523 H 0.24423 0.22131 0.62107 0.0
H524 H 0.30163 0.17771 0.56537 0.0
H525 H 0.289 0.19536 0.58929 0.0
C526 C 0.51519 0.52875 0.59576 0.0
C527 C 0.50909 0.53358 0.57702 0.0
C528 C 0.50212 0.52705 0.61029 0.0
C529 C 0.45521 0.54232 0.62143 0.0
H530 H 0.4562 0.50334 0.66284 0.0
C531 C 0.39452 0.52704 0.67481 0.0
C532 C 0.40016 0.52399 0.69402 0.0
C533 C 0.40813 0.5282 0.66088 0.0
C534 C 0.45587 0.51444 0.65147 0.0
H535 H 0.48425 0.53945 0.55869 0.0
H536 H 0.46145 0.53623 0.58385 0.0
H537 H 0.47916 0.5048 0.63785 0.0
H538 H 0.42461 0.51978 0.71362 0.0
H539 H 0.44836 0.52183 0.68926 0.0
H540 H 0.43184 0.55184 0.63494 0.0
C541 C 0.47644 0.53429 0.5875 0.0
C542 C 0.46905 0.51529 0.63713 0.0
C543 C 0.4895 0.53608 0.57304 0.0
C544 C 0.41976 0.52215 0.69896 0.0
C545 C 0.43336 0.5232 0.68499 0.0
C546 C 0.44201 0.54141 0.63569 0.0
C547 C 0.48262 0.53005 0.60638 0.0
C548 C 0.46883 0.52918 0.62186 0.0
C549 C 0.42771 0.52625 0.66578 0.0
C550 C 0.44211 0.52741 0.65085 0.0
H551 H 0.53022 0.52689 0.5993 0.0
H552 H 0.50746 0.52393 0.62466 0.0
H553 H 0.45487 0.5535 0.61014 0.0
H554 H 0.37955 0.52848 0.67048 0.0
H555 H 0.40322 0.53033 0.6462 0.0
C556 C 0.75179 0.26289 0.68858 0.0
C557 C 0.76307 0.27062 0.70411 0.0
C558 C 0.7506 0.27386 0.67145 0.0
C559 C 0.77777 0.31486 0.64442 0.0
H560 H 0.73052 0.31107 0.61197 0.0
C561 C 0.74836 0.34805 0.56688 0.0
C562 C 0.76433 0.34573 0.55638 0.0
C563 C 0.74726 0.3407 0.58573 0.0
C564 C 0.74376 0.31249 0.62096 0.0
H565 H 0.78199 0.29576 0.71403 0.0
H566 H 0.7797 0.31513 0.68422 0.0
H567 H 0.72987 0.29509 0.64366 0.0
H568 H 0.79167 0.33392 0.55755 0.0
H569 H 0.78964 0.32112 0.59004 0.0
H570 H 0.79167 0.33225 0.62181 0.0
C571 C 0.77186 0.30055 0.68517 0.0
C572 C 0.74345 0.30314 0.63904 0.0
C573 C 0.7731 0.28954 0.70227 0.0
C574 C 0.77916 0.33604 0.56517 0.0
C575 C 0.77809 0.3288 0.58391 0.0
C576 C 0.77807 0.32419 0.6264 0.0
C577 C 0.76074 0.29279 0.66948 0.0
C578 C 0.76055 0.30395 0.65087 0.0
C579 C 0.76216 0.33103 0.59445 0.0
C580 C 0.76118 0.32281 0.61431 0.0
H581 H 0.74413 0.24822 0.68965 0.0
H582 H 0.74219 0.26728 0.65959 0.0
H583 H 0.79125 0.31569 0.65304 0.0
H584 H 0.73669 0.35544 0.56053 0.0
H585 H 0.73484 0.34273 0.59353 0.0
C586 C 0.51183 0.95938 0.60806 0.0
C587 C 0.49864 0.94207 0.60919 0.0
C588 C 0.52908 0.96146 0.61945 0.0
C589 C 0.56163 0.93425 0.65107 0.0
H590 H 0.56889 0.98029 0.67989 0.0
C591 C 0.61088 0.96943 0.71941 0.0
C592 C 0.60852 0.95294 0.73198 0.0
C593 C 0.60139 0.9691 0.7014 0.0
C594 C 0.5674 0.96754 0.67172 0.0
H595 H 0.49378 0.91309 0.62265 0.0
H596 H 0.52382 0.91665 0.64226 0.0
H597 H 0.54523 0.97773 0.65306 0.0
H598 H 0.595 0.92294 0.73516 0.0
H599 H 0.5785 0.92243 0.70404 0.0
H600 H 0.58328 0.92375 0.6702 0.0
C601 C 0.52094 0.92858 0.63247 0.0
C602 C 0.55382 0.96607 0.65632 0.0
C603 C 0.50368 0.92653 0.62118 0.0
C604 C 0.59709 0.93595 0.7259 0.0
C605 C 0.58775 0.93559 0.70794 0.0
C606 C 0.57522 0.93573 0.66645 0.0
C607 C 0.5336 0.94623 0.63211 0.0
C608 C 0.55033 0.94914 0.64621 0.0
C609 C 0.58953 0.95222 0.69556 0.0
C610 C 0.57778 0.95211 0.67734 0.0
H611 H 0.50858 0.97151 0.59871 0.0
H612 H 0.53868 0.97514 0.61866 0.0
H613 H 0.55953 0.92117 0.64335 0.0
H614 H 0.61962 0.98274 0.72365 0.0
H615 H 0.60314 0.98211 0.69212 0.0
C616 C 0.83335 0.21207 0.77732 0.0
C617 C 0.82191 0.22672 0.77162 0.0
C618 C 0.85054 0.2162 0.78854 0.0
C619 C 0.88868 0.25611 0.80052 0.0
H620 H 0.90033 0.22311 0.84461 0.0
C621 C 0.95381 0.2789 0.85193 0.0
C622 C 0.96466 0.26465 0.85996 0.0
C623 C 0.93624 0.27374 0.84168 0.0
C624 C 0.89745 0.23234 0.83219 0.0
H625 H 0.81954 0.25713 0.77376 0.0
H626 H 0.84976 0.26436 0.79292 0.0
H627 H 0.87002 0.21503 0.82562 0.0
H628 H 0.96541 0.23372 0.86364 0.0
H629 H 0.9349 0.22466 0.84525 0.0
H630 H 0.91614 0.27321 0.80668 0.0
C631 C 0.84541 0.24972 0.78858 0.0
C632 C 0.88005 0.22773 0.82136 0.0
C633 C 0.82812 0.24556 0.77753 0.0
C634 C 0.95737 0.24504 0.85768 0.0
C635 C 0.93982 0.23986 0.84721 0.0
C636 C 0.90614 0.26061 0.8112 0.0
C637 C 0.85683 0.23509 0.79416 0.0
C638 C 0.87542 0.23967 0.80551 0.0
C639 C 0.9291 0.25417 0.83894 0.0
C640 C 0.9107 0.2489 0.8273 0.0
H641 H 0.82925 0.19747 0.77279 0.0
H642 H 0.85917 0.20469 0.79245 0.0
H643 H 0.88566 0.2654 0.78818 0.0
H644 H 0.95888 0.29414 0.8536 0.0
H645 H 0.9282 0.28516 0.83597 0.0
C646 C 0.44664 0.87075 0.5507 0.0
C647 C 0.45003 0.89104 0.55097 0.0
C648 C 0.45786 0.86105 0.53982 0.0
C649 C 0.48471 0.87014 0.49674 0.0
H650 H 0.50014 0.81952 0.5094 0.0
C651 C 0.51963 0.83198 0.44161 0.0
C652 C 0.51291 0.81218 0.43992 0.0
C653 C 0.51563 0.84135 0.4574 0.0
C654 C 0.49581 0.8336 0.50561 0.0
H655 H 0.46882 0.91699 0.54173 0.0
H656 H 0.48854 0.90008 0.52269 0.0
H657 H 0.48667 0.83647 0.53353 0.0
H658 H 0.49752 0.78644 0.4539 0.0
H659 H 0.48994 0.80292 0.48127 0.0
H660 H 0.49295 0.86715 0.46874 0.0
C661 C 0.47695 0.89168 0.53051 0.0
C662 C 0.48816 0.84333 0.51946 0.0
C663 C 0.46575 0.90136 0.54142 0.0
C664 C 0.50293 0.80171 0.45483 0.0
C665 C 0.49865 0.81118 0.47056 0.0
C666 C 0.49219 0.86041 0.48291 0.0
C667 C 0.47272 0.87149 0.5291 0.0
C668 C 0.4824 0.86166 0.51511 0.0
C669 C 0.50449 0.83125 0.47178 0.0
C670 C 0.49773 0.84194 0.48708 0.0
H671 H 0.4347 0.86251 0.55816 0.0
H672 H 0.4542 0.84551 0.53901 0.0
H673 H 0.48002 0.88405 0.49279 0.0
H674 H 0.52761 0.84039 0.43047 0.0
H675 H 0.52086 0.85668 0.45808 0.0
C676 C 0.1821 0.28882 0.7659 0.0
C677 C 0.19204 0.27299 0.76381 0.0
C678 C 0.16821 0.28789 0.77946 0.0
C679 C 0.13428 0.25439 0.80786 0.0
H680 H 0.13401 0.29953 0.83684 0.0
C681 C 0.07615 0.25884 0.86277 0.0
C682 C 0.0682 0.27632 0.86151 0.0
C683 C 0.09261 0.25711 0.85281 0.0
C684 C 0.13382 0.28682 0.82881 0.0
H685 H 0.19487 0.2436 0.77434 0.0
H686 H 0.17024 0.24191 0.79791 0.0
H687 H 0.16006 0.29884 0.8155 0.0
H688 H 0.07152 0.30573 0.84893 0.0
H689 H 0.09984 0.30267 0.83165 0.0
H690 H 0.10768 0.24261 0.82084 0.0
C691 C 0.17334 0.25505 0.78898 0.0
C692 C 0.14875 0.28644 0.81659 0.0
C693 C 0.18741 0.25602 0.77545 0.0
C694 C 0.07722 0.29204 0.8503 0.0
C695 C 0.09361 0.29034 0.84046 0.0
C696 C 0.11925 0.2548 0.82008 0.0
C697 C 0.16373 0.27106 0.79123 0.0
C698 C 0.14892 0.27042 0.80563 0.0
C699 C 0.1015 0.27287 0.84152 0.0
C700 C 0.1186 0.27124 0.83034 0.0
H701 H 0.18488 0.30194 0.75688 0.0
H702 H 0.16074 0.30033 0.78054 0.0
H703 H 0.13398 0.24187 0.79955 0.0
H704 H 0.06955 0.24644 0.87128 0.0
H705 H 0.09841 0.24348 0.854 0.0
C706 C 0.53759 0.57277 0.50145 0.0
C707 C 0.53582 0.57403 0.52097 0.0
C708 C 0.53615 0.58888 0.48888 0.0
C709 C 0.51608 0.63521 0.48476 0.0
H710 H 0.55052 0.64812 0.44337 0.0
C711 C 0.51866 0.70758 0.4403 0.0
C712 C 0.52084 0.70745 0.42073 0.0
C713 C 0.52043 0.69104 0.45212 0.0
C714 C 0.54061 0.64458 0.4547 0.0
H715 H 0.53203 0.59352 0.54261 0.0
H716 H 0.52944 0.62149 0.52075 0.0
H717 H 0.55406 0.61982 0.4647 0.0
H718 H 0.52645 0.68971 0.39825 0.0
H719 H 0.52925 0.66077 0.41885 0.0
H720 H 0.50255 0.65984 0.4748 0.0
C721 C 0.53155 0.60795 0.51509 0.0
C722 C 0.54267 0.62837 0.46695 0.0
C723 C 0.53304 0.5919 0.52764 0.0
C724 C 0.52473 0.69034 0.41326 0.0
C725 C 0.52647 0.67377 0.4251 0.0
C726 C 0.51398 0.65136 0.47251 0.0
C727 C 0.53288 0.6066 0.49554 0.0
C728 C 0.53052 0.62357 0.48221 0.0
C729 C 0.52436 0.67391 0.44469 0.0
C730 C 0.5263 0.65635 0.45739 0.0
H731 H 0.53954 0.55919 0.49581 0.0
H732 H 0.53708 0.58731 0.47389 0.0
H733 H 0.50623 0.63172 0.49615 0.0
H734 H 0.51575 0.72052 0.44657 0.0
H735 H 0.51902 0.6918 0.46717 0.0
C736 C 0.85996 0.80214 0.78884 0.0
C737 C 0.86826 0.79819 0.80695 0.0
C738 C 0.8702 0.80057 0.7728 0.0
C739 C 0.91923 0.79962 0.756 0.0
H740 H 0.89057 0.77243 0.71478 0.0
C741 C 0.95642 0.77959 0.69028 0.0
C742 C 0.9463 0.78185 0.67268 0.0
C743 C 0.94749 0.78154 0.7071 0.0
C744 C 0.89875 0.78025 0.72606 0.0
H745 H 0.89398 0.79055 0.8227 0.0
H746 H 0.91201 0.78777 0.79456 0.0
H747 H 0.87404 0.77663 0.74319 0.0
H748 H 0.91895 0.78823 0.65899 0.0
H749 H 0.90361 0.7919 0.68813 0.0
H750 H 0.94393 0.80338 0.73873 0.0
C751 C 0.89757 0.79198 0.79275 0.0
C752 C 0.88926 0.78265 0.74234 0.0
C753 C 0.88727 0.79347 0.80882 0.0
C754 C 0.92715 0.78624 0.67228 0.0
C755 C 0.91828 0.78824 0.68903 0.0
C756 C 0.92873 0.79728 0.73963 0.0
C757 C 0.88901 0.79521 0.77456 0.0
C758 C 0.89934 0.79248 0.75744 0.0
C759 C 0.92828 0.78581 0.70665 0.0
C760 C 0.91854 0.78771 0.7244 0.0
H761 H 0.84542 0.8061 0.7871 0.0
H762 H 0.86337 0.80351 0.75898 0.0
H763 H 0.92734 0.80737 0.76736 0.0
H764 H 0.97118 0.77618 0.69109 0.0
H765 H 0.95554 0.7794 0.72045 0.0
C766 C 0.06876 0.94882 0.51187 0.0
C767 C 0.06666 0.9472 0.49219 0.0
C768 C 0.06169 0.9333 0.52418 0.0
C769 C 0.05381 0.89546 0.54775 0.0
H770 H 0.00449 0.86492 0.53364 0.0
C771 C 0.02067 0.82702 0.59209 0.0
C772 C 0.00029 0.82385 0.59314 0.0
C773 C 0.02961 0.84201 0.58012 0.0
C774 C 0.01819 0.8734 0.53791 0.0
H775 H 0.05606 0.92792 0.46996 0.0
H776 H 0.04404 0.90065 0.49142 0.0
H777 H 0.01842 0.89104 0.51216 0.0
H778 H 0.97342 0.83445 0.58313 0.0
H779 H 0.98897 0.86079 0.56281 0.0
H780 H 0.05312 0.87823 0.57387 0.0
C781 C 0.05071 0.91406 0.49738 0.0
C782 C 0.02635 0.88822 0.52542 0.0
C783 C 0.05763 0.92965 0.48506 0.0
C784 C 0.98913 0.83635 0.58249 0.0
C785 C 0.99805 0.85138 0.5707 0.0
C786 C 0.04555 0.88069 0.56032 0.0
C787 C 0.05249 0.91575 0.5171 0.0
C788 C 0.04422 0.89951 0.5302 0.0
C789 C 0.01836 0.8542 0.56908 0.0
C790 C 0.02756 0.86958 0.55561 0.0
H791 H 0.07544 0.96227 0.51775 0.0
H792 H 0.06301 0.93527 0.53924 0.0
H793 H 0.06772 0.90368 0.5518 0.0
H794 H 0.02966 0.81758 0.60008 0.0
H795 H 0.04527 0.84367 0.57913 0.0
C796 C 0.1847 0.74377 0.73383 0.0
C797 C 0.18276 0.74188 0.75351 0.0
C798 C 0.16864 0.74628 0.7215 0.0
C799 C 0.12054 0.76292 0.72019 0.0
H800 H 0.11088 0.73581 0.67381 0.0
C801 C 0.04892 0.76331 0.67481 0.0
C802 C 0.04998 0.76486 0.65502 0.0
C803 C 0.0653 0.76044 0.6865 0.0
C804 C 0.1135 0.74368 0.68659 0.0
H805 H 0.16221 0.74044 0.77559 0.0
H806 H 0.1343 0.74493 0.75413 0.0
H807 H 0.13913 0.73077 0.69476 0.0
H808 H 0.06915 0.7646 0.63203 0.0
H809 H 0.09782 0.75986 0.65247 0.0
H810 H 0.09503 0.77592 0.71205 0.0
C811 C 0.14831 0.74482 0.74824 0.0
C812 C 0.12968 0.74077 0.6986 0.0
C813 C 0.16432 0.74226 0.76054 0.0
C814 C 0.06782 0.76344 0.64721 0.0
C815 C 0.08423 0.7606 0.65893 0.0
C816 C 0.10441 0.76588 0.70817 0.0
C817 C 0.1503 0.74701 0.72858 0.0
C818 C 0.13332 0.75027 0.71559 0.0
C819 C 0.08318 0.7591 0.67872 0.0
C820 C 0.10062 0.75622 0.69127 0.0
H821 H 0.19874 0.74376 0.72796 0.0
H822 H 0.1707 0.74812 0.70644 0.0
H823 H 0.12312 0.77074 0.733 0.0
H824 H 0.0354 0.76423 0.68131 0.0
H825 H 0.06387 0.75904 0.70167 0.0
C826 C 0.98795 0.60262 0.51655 0.0
C827 C 0.9709 0.59744 0.50521 0.0
C828 C 0.98884 0.61721 0.5293 0.0
C829 C 0.95711 0.64322 0.55527 0.0
H830 H 0.00274 0.68219 0.55986 0.0
C831 C 0.95564 0.71554 0.58878 0.0
C832 C 0.97192 0.7234 0.59996 0.0
C833 C 0.95607 0.69885 0.57914 0.0
C834 C 0.99002 0.67123 0.55898 0.0
H835 H 0.94171 0.60398 0.49785 0.0
H836 H 0.94327 0.62941 0.52003 0.0
H837 H 0.00265 0.65584 0.53886 0.0
H838 H 0.00129 0.71955 0.61015 0.0
H839 H 0.00199 0.69026 0.59327 0.0
H840 H 0.94435 0.65874 0.57513 0.0
C841 C 0.9558 0.62193 0.51938 0.0
C842 C 0.98996 0.65616 0.54692 0.0
C843 C 0.95491 0.60738 0.50665 0.0
C844 C 0.9885 0.71388 0.60164 0.0
C845 C 0.98896 0.69718 0.59189 0.0
C846 C 0.95718 0.65826 0.5673 0.0
C847 C 0.9727 0.6269 0.53097 0.0
C848 C 0.97337 0.64218 0.54469 0.0
C849 C 0.9728 0.6896 0.58039 0.0
C850 C 0.9735 0.67262 0.56905 0.0
H851 H 0.00044 0.59508 0.5159 0.0
H852 H 0.00202 0.62061 0.53813 0.0
H853 H 0.94427 0.63243 0.55418 0.0
H854 H 0.94262 0.72248 0.58716 0.0
H855 H 0.94347 0.69354 0.57022 0.0
C856 C 0.7324 0.8315 0.22472 0.0
C857 C 0.7412 0.81482 0.22916 0.0
C858 C 0.74373 0.84969 0.2231 0.0
C859 C 0.76799 0.88582 0.23635 0.0
H860 H 0.82121 0.89584 0.22057 0.0
C861 C 0.82044 0.94945 0.26323 0.0
C862 C 0.83292 0.96089 0.25072 0.0
C863 C 0.80972 0.9321 0.25782 0.0
C864 C 0.80628 0.89333 0.22479 0.0
H865 H 0.76868 0.80382 0.23462 0.0
H866 H 0.78857 0.83573 0.23254 0.0
H867 H 0.80132 0.86464 0.21472 0.0
H868 H 0.84429 0.96269 0.22275 0.0
H869 H 0.82521 0.93208 0.21315 0.0
H870 H 0.77277 0.91437 0.24632 0.0
C871 C 0.77296 0.8348 0.22983 0.0
C872 C 0.79495 0.87539 0.22164 0.0
C873 C 0.7616 0.81652 0.23114 0.0
C874 C 0.83475 0.95424 0.23269 0.0
C875 C 0.82389 0.93672 0.22723 0.0
C876 C 0.77922 0.90366 0.23939 0.0
C877 C 0.76411 0.85168 0.22629 0.0
C878 C 0.77575 0.87129 0.22771 0.0
C879 C 0.81102 0.92564 0.23968 0.0
C880 C 0.79864 0.90748 0.23412 0.0
H881 H 0.71669 0.83049 0.22285 0.0
H882 H 0.73642 0.86227 0.21984 0.0
H883 H 0.75342 0.88322 0.24149 0.0
H884 H 0.81882 0.9539 0.27733 0.0
H885 H 0.80036 0.9237 0.26795 0.0
C886 C 0.79571 0.20594 0.25836 0.0
C887 C 0.77543 0.20507 0.25926 0.0
C888 C 0.80396 0.18915 0.25603 0.0
C889 C 0.79431 0.1367 0.26505 0.0
H890 H 0.83386 0.13411 0.22933 0.0
C891 C 0.81973 0.0643 0.25475 0.0
C892 C 0.83968 0.06398 0.25293 0.0
C893 C 0.81212 0.08176 0.25311 0.0
C894 C 0.823 0.13464 0.23953 0.0
H895 H 0.74779 0.18621 0.25696 0.0
H896 H 0.76218 0.15685 0.25342 0.0
H897 H 0.82043 0.16439 0.23148 0.0
H898 H 0.86726 0.08152 0.24717 0.0
H899 H 0.85409 0.11238 0.24496 0.0
H900 H 0.79712 0.10741 0.27368 0.0
C901 C 0.77174 0.17044 0.25487 0.0
C902 C 0.81528 0.15197 0.24071 0.0
C903 C 0.7635 0.18723 0.25696 0.0
C904 C 0.85178 0.08141 0.24852 0.0
C905 C 0.8442 0.09905 0.24725 0.0
C906 C 0.80215 0.11954 0.26406 0.0
C907 C 0.79206 0.17118 0.25456 0.0
C908 C 0.8007 0.15309 0.25336 0.0
C909 C 0.82434 0.09947 0.2501 0.0
C910 C 0.81642 0.11813 0.25113 0.0
H911 H 0.8052 0.21959 0.25964 0.0
H912 H 0.81966 0.19015 0.25583 0.0
H913 H 0.78338 0.13724 0.27521 0.0
H914 H 0.81004 0.05101 0.25792 0.0
H915 H 0.79665 0.08135 0.25471 0.0
C916 C 0.4268 0.02457 0.99338 0.0
C917 C 0.43713 0.02977 0.97688 0.0
C918 C 0.4095 0.01156 0.99288 0.0
C919 C 0.38561 0.96976 0.97055 0.0
H920 H 0.33695 0.9832 0.98618 0.0
C921 C 0.31706 0.91321 0.96979 0.0
C922 C 0.30426 0.91292 0.98439 0.0
C923 C 0.33162 0.92894 0.96683 0.0
C924 C 0.35044 0.97906 0.98202 0.0
H925 H 0.43699 0.02524 0.94683 0.0
H926 H 0.40734 0.00166 0.94635 0.0
H927 H 0.36595 0.00764 0.98556 0.0
H928 H 0.29621 0.92891 0.00709 0.0
H929 H 0.32234 0.95597 0.00274 0.0
H930 H 0.37088 0.94103 0.96811 0.0
C931 C 0.41265 0.00802 0.95954 0.0
C932 C 0.36698 0.99314 0.98154 0.0
C933 C 0.42973 0.02138 0.95991 0.0
C934 C 0.30584 0.92891 0.99563 0.0
C935 C 0.32081 0.94445 0.99303 0.0
C936 C 0.36926 0.95558 0.97145 0.0
C937 C 0.40238 0.0031 0.976 0.0
C938 C 0.38466 0.98856 0.9758 0.0
C939 C 0.3342 0.94449 0.97883 0.0
C940 C 0.35139 0.95998 0.9772 0.0
H941 H 0.43219 0.03026 0.00683 0.0
H942 H 0.40193 0.00772 0.0058 0.0
H943 H 0.3992 0.96588 0.96631 0.0
H944 H 0.31596 0.90111 0.96079 0.0
H945 H 0.3411 0.92865 0.95531 0.0
C946 C 0.30654 0.36376 0.32243 0.0
C947 C 0.31582 0.36163 0.34046 0.0
C948 C 0.2903 0.37343 0.31982 0.0
C949 C 0.26365 0.40817 0.34009 0.0
H950 H 0.21985 0.38267 0.3102 0.0
C951 C 0.17731 0.41384 0.31936 0.0
C952 C 0.17832 0.43348 0.31318 0.0
C953 C 0.19429 0.40565 0.32392 0.0
C954 C 0.23189 0.38991 0.31868 0.0
H955 H 0.31561 0.3684 0.36982 0.0
H956 H 0.28703 0.38542 0.36523 0.0
H957 H 0.24929 0.36753 0.31578 0.0
H958 H 0.19801 0.46005 0.30747 0.0
H959 H 0.22773 0.44567 0.31546 0.0
H960 H 0.24611 0.43059 0.34294 0.0
C961 C 0.29247 0.3796 0.35314 0.0
C962 C 0.24882 0.38134 0.32172 0.0
C963 C 0.30871 0.36977 0.35578 0.0
C964 C 0.19672 0.44486 0.31213 0.0
C965 C 0.21374 0.43667 0.31681 0.0
C966 C 0.24671 0.41686 0.3369 0.0
C967 C 0.28293 0.38125 0.33516 0.0
C968 C 0.2649 0.39039 0.33239 0.0
C969 C 0.21269 0.41691 0.3225 0.0
C970 C 0.23066 0.40779 0.32617 0.0
H971 H 0.31147 0.35742 0.31037 0.0
H972 H 0.28338 0.37465 0.30577 0.0
H973 H 0.27586 0.41549 0.3483 0.0
H974 H 0.1634 0.40465 0.32043 0.0
H975 H 0.19302 0.39044 0.3285 0.0
C976 C 0.13456 0.99385 0.47694 0.0
C977 C 0.11764 0.00272 0.47477 0.0
C978 C 0.15265 0.00485 0.48091 0.0
C979 C 0.1777 0.05589 0.48026 0.0
H980 H 0.21695 0.03267 0.51146 0.0
C981 C 0.25045 0.09861 0.50898 0.0
C982 C 0.26712 0.09108 0.50425 0.0
C983 C 0.23192 0.08805 0.50603 0.0
C984 C 0.20609 0.03929 0.50272 0.0
H985 H 0.1061 0.02981 0.47533 0.0
H986 H 0.1375 0.04897 0.48304 0.0
H987 H 0.18498 0.01392 0.50531 0.0
H988 H 0.2775 0.06643 0.49319 0.0
H989 H 0.24512 0.0478 0.48856 0.0
H990 H 0.19885 0.08148 0.47824 0.0
C991 C 0.13706 0.03368 0.48106 0.0
C992 C 0.18782 0.02853 0.49904 0.0
C993 C 0.11903 0.02272 0.47675 0.0
C994 C 0.26492 0.07265 0.49688 0.0
C995 C 0.24644 0.06194 0.49432 0.0
C996 C 0.19586 0.06676 0.48425 0.0
C997 C 0.15415 0.02491 0.48315 0.0
C998 C 0.17342 0.0366 0.48758 0.0
C999 C 0.22979 0.06962 0.49872 0.0
C1000 C 0.21025 0.05847 0.49534 0.0
H1001 H 0.13382 0.97845 0.47532 0.0
H1002 H 0.16547 0.99761 0.48197 0.0
H1003 H 0.16719 0.06254 0.4711 0.0
H1004 H 0.25171 0.1128 0.51464 0.0
H1005 H 0.21924 0.0942 0.50958 0.0
C1006 C 0.7704 0.16398 0.75578 0.0
C1007 C 0.76205 0.18111 0.75226 0.0
C1008 C 0.75862 0.14603 0.75777 0.0
C1009 C 0.70891 0.1213 0.74639 0.0
H1010 H 0.72251 0.08332 0.78539 0.0
C1011 C 0.65711 0.05104 0.76552 0.0
C1012 C 0.66548 0.03397 0.76945 0.0
C1013 C 0.6689 0.06894 0.76308 0.0
C1014 C 0.71863 0.09367 0.77427 0.0
H1015 H 0.73472 0.19281 0.74835 0.0
H1016 H 0.71416 0.16149 0.75181 0.0
H1017 H 0.74302 0.11464 0.78194 0.0
H1018 H 0.69283 0.02232 0.77364 0.0
H1019 H 0.71336 0.0535 0.76918 0.0
H1020 H 0.68451 0.10032 0.73873 0.0
C1021 C 0.72984 0.16191 0.75276 0.0
C1022 C 0.73039 0.11163 0.77231 0.0
C1023 C 0.74162 0.17986 0.75079 0.0
C1024 C 0.6859 0.03519 0.7707 0.0
C1025 C 0.69768 0.05309 0.76826 0.0
C1026 C 0.69716 0.10332 0.74835 0.0
C1027 C 0.7382 0.14478 0.75626 0.0
C1028 C 0.72567 0.12567 0.75834 0.0
C1029 C 0.68933 0.0702 0.76451 0.0
C1030 C 0.70187 0.08929 0.76232 0.0
H1031 H 0.78608 0.16439 0.75669 0.0
H1032 H 0.76553 0.13309 0.76017 0.0
H1033 H 0.70503 0.13167 0.7353 0.0
H1034 H 0.64143 0.05062 0.76451 0.0
H1035 H 0.66199 0.08186 0.76042 0.0
C1036 C 0.42358 0.97407 0.57724 0.0
C1037 C 0.43749 0.97143 0.59212 0.0
C1038 C 0.41369 0.99016 0.57611 0.0
C1039 C 0.38783 0.0204 0.58438 0.0
H1040 H 0.41976 0.07072 0.57961 0.0
C1041 C 0.3538 0.08981 0.56482 0.0
C1042 C 0.3606 0.09835 0.54754 0.0
C1043 C 0.36403 0.07645 0.57524 0.0
C1044 C 0.41067 0.05679 0.58125 0.0
H1045 H 0.45132 0.98367 0.61782 0.0
H1046 H 0.43467 0.0123 0.61516 0.0
H1047 H 0.43517 0.04176 0.58846 0.0
H1048 H 0.38411 0.10098 0.52839 0.0
H1049 H 0.40226 0.07818 0.54685 0.0
H1050 H 0.36341 0.03527 0.57659 0.0
C1051 C 0.43143 0.00167 0.60454 0.0
C1052 C 0.41945 0.04028 0.58633 0.0
C1053 C 0.44107 0.98534 0.60592 0.0
C1054 C 0.37855 0.09456 0.54166 0.0
C1055 C 0.38897 0.08158 0.55226 0.0
C1056 C 0.37902 0.03693 0.57964 0.0
C1057 C 0.41769 0.00421 0.5896 0.0
C1058 C 0.40815 0.02189 0.58734 0.0
C1059 C 0.38144 0.07184 0.56875 0.0
C1060 C 0.39042 0.0552 0.57746 0.0
H1061 H 0.42067 0.964 0.5661 0.0
H1062 H 0.40335 0.99196 0.56428 0.0
H1063 H 0.37883 0.00636 0.58513 0.0
H1064 H 0.33992 0.09238 0.5696 0.0
H1065 H 0.35796 0.06912 0.58794 0.0
C1066 C 0.57569 0.4707 0.54163 0.0
C1067 C 0.57515 0.48843 0.53121 0.0
C1068 C 0.5911 0.46012 0.54007 0.0
C1069 C 0.64176 0.464 0.52479 0.0
H1070 H 0.62863 0.40855 0.52034 0.0
C1071 C 0.69829 0.41603 0.50512 0.0
C1072 C 0.6977 0.3976 0.5145 0.0
C1073 C 0.68358 0.42739 0.50718 0.0
C1074 C 0.63262 0.42398 0.5218 0.0
H1075 H 0.59061 0.50947 0.51173 0.0
H1076 H 0.6176 0.49098 0.5089 0.0
H1077 H 0.60296 0.42798 0.52448 0.0
H1078 H 0.68113 0.37674 0.53351 0.0
H1079 H 0.65572 0.39656 0.53728 0.0
H1080 H 0.67146 0.45996 0.52215 0.0
C1081 C 0.60614 0.4852 0.51827 0.0
C1082 C 0.61787 0.43514 0.52418 0.0
C1083 C 0.59068 0.49576 0.5198 0.0
C1084 C 0.68203 0.39081 0.52598 0.0
C1085 C 0.66736 0.40216 0.52807 0.0
C1086 C 0.65655 0.45282 0.52245 0.0
C1087 C 0.60639 0.4671 0.52817 0.0
C1088 C 0.62224 0.45529 0.52575 0.0
C1089 C 0.66791 0.4206 0.5187 0.0
C1090 C 0.65218 0.43263 0.52096 0.0
H1091 H 0.56401 0.46486 0.55072 0.0
H1092 H 0.59101 0.44643 0.54819 0.0
H1093 H 0.64568 0.47945 0.52616 0.0
H1094 H 0.71012 0.42171 0.49614 0.0
H1095 H 0.68437 0.4414 0.49956 0.0
C1096 C 0.72611 0.28352 0.31495 0.0
C1097 C 0.72948 0.26421 0.31409 0.0
C1098 C 0.72653 0.29195 0.33235 0.0
C1099 C 0.74602 0.28751 0.38156 0.0
H1100 H 0.70627 0.31837 0.39232 0.0
C1101 C 0.74409 0.31486 0.45529 0.0
C1102 C 0.74144 0.33428 0.45646 0.0
C1103 C 0.74004 0.30572 0.43832 0.0
C1104 C 0.71757 0.30994 0.38948 0.0
H1105 H 0.73588 0.23867 0.331 0.0
H1106 H 0.73697 0.25349 0.36128 0.0
H1107 H 0.70516 0.30397 0.36167 0.0
H1108 H 0.7314 0.35907 0.4411 0.0
H1109 H 0.72465 0.34322 0.41112 0.0
H1110 H 0.75871 0.29368 0.40903 0.0
C1111 C 0.73409 0.26213 0.34845 0.0
C1112 C 0.71693 0.30169 0.37192 0.0
C1113 C 0.73356 0.25365 0.33107 0.0
C1114 C 0.73343 0.34404 0.4406 0.0
C1115 C 0.72962 0.33494 0.42344 0.0
C1116 C 0.74672 0.29581 0.399 0.0
C1117 C 0.7305 0.28134 0.3493 0.0
C1118 C 0.73112 0.29031 0.36782 0.0
C1119 C 0.73357 0.31588 0.42194 0.0
C1120 C 0.73244 0.30703 0.40327 0.0
H1121 H 0.72322 0.29218 0.30215 0.0
H1122 H 0.72402 0.30688 0.33251 0.0
H1123 H 0.75737 0.27914 0.37871 0.0
H1124 H 0.75006 0.30693 0.46737 0.0
H1125 H 0.74266 0.29085 0.43788 0.0
C1126 C 0.53213 0.06386 0.91688 0.0
C1127 C 0.51552 0.05344 0.92496 0.0
C1128 C 0.54314 0.05487 0.90516 0.0
C1129 C 0.53961 0.01277 0.87544 0.0
H1130 H 0.59604 0.02405 0.87771 0.0
C1131 C 0.58709 0.96945 0.83554 0.0
C1132 C 0.60265 0.98006 0.82588 0.0
C1133 C 0.57684 0.97843 0.84793 0.0
C1134 C 0.58028 0.0209 0.8768 0.0
H1135 H 0.49736 0.02557 0.92731 0.0
H1136 H 0.51676 0.00964 0.90713 0.0
H1137 H 0.57747 0.03951 0.89897 0.0
H1138 H 0.61979 0.00845 0.82188 0.0
H1139 H 0.60185 0.02413 0.84355 0.0
H1140 H 0.54243 0.99408 0.85334 0.0
C1141 C 0.52118 0.02483 0.90958 0.0
C1142 C 0.56963 0.02976 0.88896 0.0
C1143 C 0.51015 0.03385 0.92124 0.0
C1144 C 0.60789 0.99984 0.8291 0.0
C1145 C 0.59768 0.00881 0.84158 0.0
C1146 C 0.55026 0.00386 0.86335 0.0
C1147 C 0.53775 0.03526 0.9013 0.0
C1148 C 0.54916 0.02579 0.88845 0.0
C1149 C 0.58195 0.99823 0.85103 0.0
C1150 C 0.57071 0.0078 0.86389 0.0
H1151 H 0.53649 0.07903 0.91945 0.0
H1152 H 0.55564 0.06341 0.89883 0.0
H1153 H 0.52386 0.00966 0.87439 0.0
H1154 H 0.58268 0.95418 0.83345 0.0
H1155 H 0.56497 0.96982 0.85519 0.0
C1156 C 0.34104 0.30922 0.39253 0.0
C1157 C 0.34493 0.30627 0.37377 0.0
C1158 C 0.33947 0.29377 0.40621 0.0
C1159 C 0.32982 0.24022 0.41041 0.0
H1160 H 0.3524 0.24586 0.46147 0.0
C1161 C 0.33886 0.17422 0.46035 0.0
C1162 C 0.33292 0.17433 0.47895 0.0
C1163 C 0.34045 0.19106 0.44854 0.0
C1164 C 0.34586 0.24415 0.44731 0.0
H1165 H 0.3501 0.28467 0.35474 0.0
H1166 H 0.34795 0.25801 0.3786 0.0
H1167 H 0.35487 0.27396 0.43878 0.0
H1168 H 0.32466 0.19248 0.4999 0.0
H1169 H 0.32755 0.22208 0.47913 0.0
H1170 H 0.32105 0.21044 0.41878 0.0
C1171 C 0.34585 0.27218 0.38273 0.0
C1172 C 0.34724 0.26022 0.43433 0.0
C1173 C 0.34737 0.28757 0.36908 0.0
C1174 C 0.32924 0.19189 0.48565 0.0
C1175 C 0.33094 0.20884 0.47379 0.0
C1176 C 0.32853 0.22421 0.42331 0.0
C1177 C 0.3417 0.27503 0.40141 0.0
C1178 C 0.33947 0.25836 0.41564 0.0
C1179 C 0.33621 0.20848 0.455 0.0
C1180 C 0.33677 0.22591 0.44181 0.0
H1181 H 0.33923 0.32349 0.39664 0.0
H1182 H 0.33614 0.29644 0.42044 0.0
H1183 H 0.32323 0.23837 0.39629 0.0
H1184 H 0.34194 0.16101 0.45472 0.0
H1185 H 0.3449 0.19041 0.43425 0.0
C1186 C 0.49567 0.50426 0.92808 0.0
C1187 C 0.5154 0.5111 0.92545 0.0
C1188 C 0.48191 0.50454 0.91288 0.0
C1189 C 0.47653 0.50595 0.86084 0.0
H1190 H 0.42745 0.52383 0.86858 0.0
C1191 C 0.41913 0.51695 0.79954 0.0
C1192 C 0.39943 0.51158 0.80357 0.0
C1193 C 0.43376 0.51705 0.81404 0.0
C1194 C 0.44098 0.51857 0.86621 0.0
H1195 H 0.5364 0.52313 0.90499 0.0
H1196 H 0.51232 0.52363 0.87827 0.0
H1197 H 0.45197 0.5235 0.89458 0.0
H1198 H 0.37975 0.50165 0.82595 0.0
H1199 H 0.40514 0.50148 0.851 0.0
H1200 H 0.46542 0.50079 0.83251 0.0
C1201 C 0.50747 0.51807 0.89207 0.0
C1202 C 0.45504 0.51841 0.88113 0.0
C1203 C 0.52121 0.5179 0.90731 0.0
C1204 C 0.39474 0.50604 0.82234 0.0
C1205 C 0.40933 0.50606 0.83676 0.0
C1206 C 0.46239 0.506 0.84591 0.0
C1207 C 0.48765 0.5115 0.89471 0.0
C1208 C 0.47293 0.512 0.87866 0.0
C1209 C 0.42901 0.51173 0.83286 0.0
C1210 C 0.44438 0.51219 0.84846 0.0
H1211 H 0.49087 0.49874 0.9419 0.0
H1212 H 0.46679 0.49911 0.9153 0.0
H1213 H 0.49011 0.50075 0.85856 0.0
H1214 H 0.42324 0.52133 0.78524 0.0
H1215 H 0.44876 0.52167 0.81055 0.0
C1216 C 0.73492 0.73859 0.17787 0.0
C1217 C 0.7193 0.73022 0.18871 0.0
C1218 C 0.74352 0.72732 0.16612 0.0
C1219 C 0.74845 0.67661 0.15704 0.0
H1220 H 0.75956 0.69839 0.10652 0.0
C1221 C 0.76634 0.63069 0.09697 0.0
C1222 C 0.78063 0.63921 0.08458 0.0
C1223 C 0.75989 0.64158 0.11058 0.0
C1224 C 0.75681 0.69217 0.12065 0.0
H1225 H 0.70095 0.70346 0.19657 0.0
H1226 H 0.71578 0.68371 0.17587 0.0
H1227 H 0.74669 0.71777 0.12874 0.0
H1228 H 0.79972 0.66573 0.07713 0.0
H1229 H 0.78863 0.68459 0.10094 0.0
H1230 H 0.75843 0.65092 0.14883 0.0
C1231 C 0.72146 0.69896 0.17643 0.0
C1232 C 0.74942 0.7033 0.13341 0.0
C1233 C 0.71287 0.71025 0.18817 0.0
C1234 C 0.7886 0.65873 0.08636 0.0
C1235 C 0.78217 0.66959 0.09995 0.0
C1236 C 0.75584 0.66546 0.14426 0.0
C1237 C 0.73673 0.70741 0.16507 0.0
C1238 C 0.74511 0.69565 0.15175 0.0
C1239 C 0.76758 0.66122 0.11209 0.0
C1240 C 0.76007 0.6731 0.12589 0.0
H1241 H 0.74028 0.75392 0.17831 0.0
H1242 H 0.75549 0.73421 0.15784 0.0
H1243 H 0.74551 0.67037 0.17114 0.0
H1244 H 0.75987 0.6157 0.09596 0.0
H1245 H 0.7485 0.63473 0.11958 0.0
C1246 C 0.98945 0.03374 0.07535 0.0
C1247 C 0.00897 0.03095 0.07932 0.0
C1248 C 0.97635 0.03193 0.08979 0.0
C1249 C 0.96872 0.01217 0.13917 0.0
H1250 H 0.93198 0.04913 0.1378 0.0
C1251 C 0.92091 0.0192 0.20195 0.0
C1252 C 0.90134 0.02157 0.19753 0.0
C1253 C 0.93409 0.02005 0.18764 0.0
C1254 C 0.942 0.03857 0.1383 0.0
H1255 H 0.02993 0.02379 0.10159 0.0
H1256 H 0.00711 0.02077 0.12688 0.0
H1257 H 0.95479 0.05087 0.11278 0.0
H1258 H 0.88033 0.0267 0.17452 0.0
H1259 H 0.90331 0.02816 0.14961 0.0
H1260 H 0.95597 2e-05 0.16484 0.0
C1261 C 0.00185 0.02412 0.11253 0.0
C1262 C 0.95509 0.03953 0.12392 0.0
C1263 C 0.01495 0.02586 0.09804 0.0
C1264 C 0.8953 0.02486 0.17846 0.0
C1265 C 0.9085 0.02579 0.16416 0.0
C1266 C 0.95567 0.01126 0.15361 0.0
C1267 C 0.98241 0.02734 0.10862 0.0
C1268 C 0.96858 0.0263 0.1241 0.0
C1269 C 0.92806 0.02338 0.16857 0.0
C1270 C 0.9421 0.02441 0.15332 0.0
H1271 H 0.98428 0.03734 0.06103 0.0
H1272 H 0.96142 0.03407 0.08614 0.0
H1273 H 0.97871 0.00158 0.13966 0.0
H1274 H 0.92608 0.01665 0.21648 0.0
H1275 H 0.94909 0.01834 0.19155 0.0
C1276 C 0.25152 0.76225 0.18766 0.0
C1277 C 0.26306 0.77003 0.20302 0.0
C1278 C 0.25044 0.77299 0.17038 0.0
C1279 C 0.27811 0.81312 0.14263 0.0
H1280 H 0.23053 0.81 0.11069 0.0
C1281 C 0.24843 0.84634 0.06522 0.0
C1282 C 0.26414 0.84363 0.05454 0.0
C1283 C 0.24745 0.83912 0.08412 0.0
C1284 C 0.24387 0.81123 0.11954 0.0
H1285 H 0.28259 0.795 0.21247 0.0
H1286 H 0.2805 0.81397 0.18241 0.0
H1287 H 0.22995 0.79435 0.14253 0.0
H1288 H 0.29115 0.83126 0.05544 0.0
H1289 H 0.28934 0.81869 0.08802 0.0
H1290 H 0.29204 0.83 0.11974 0.0
C1291 C 0.27237 0.79953 0.1836 0.0
C1292 C 0.2436 0.80207 0.1377 0.0
C1293 C 0.27348 0.78875 0.20085 0.0
C1294 C 0.27885 0.83369 0.0632 0.0
C1295 C 0.2779 0.82658 0.08199 0.0
C1296 C 0.27838 0.82226 0.12453 0.0
C1297 C 0.26096 0.79173 0.16809 0.0
C1298 C 0.26079 0.80265 0.14935 0.0
C1299 C 0.26223 0.82919 0.09271 0.0
C1300 C 0.26135 0.82112 0.11262 0.0
H1301 H 0.24356 0.74773 0.18898 0.0
H1302 H 0.2418 0.76639 0.15867 0.0
H1303 H 0.29166 0.81376 0.15112 0.0
H1304 H 0.23686 0.85393 0.05897 0.0
H1305 H 0.23523 0.84146 0.09205 0.0
C1306 C 0.01494 0.45444 0.11247 0.0
C1307 C 0.00169 0.43718 0.11281 0.0
C1308 C 0.03131 0.45647 0.12505 0.0
C1309 C 0.06107 0.4293 0.15993 0.0
H1310 H 0.06748 0.47679 0.18649 0.0
C1311 C 0.10854 0.46773 0.22755 0.0
C1312 C 0.10578 0.45203 0.24104 0.0
C1313 C 0.09935 0.46639 0.20947 0.0
C1314 C 0.0662 0.4636 0.179 0.0
H1315 H 0.99574 0.40821 0.12603 0.0
H1316 H 0.02418 0.41173 0.14794 0.0
H1317 H 0.0453 0.4734 0.15862 0.0
H1318 H 0.09175 0.42239 0.24583 0.0
H1319 H 0.07574 0.42013 0.21449 0.0
H1320 H 0.08144 0.41925 0.18081 0.0
C1321 C 0.02211 0.42365 0.13783 0.0
C1322 C 0.05347 0.46165 0.16298 0.0
C1323 C 0.00577 0.42161 0.12524 0.0
C1324 C 0.09416 0.43479 0.23584 0.0
C1325 C 0.08509 0.43343 0.21778 0.0
C1326 C 0.07376 0.43124 0.17597 0.0
C1327 C 0.03478 0.44128 0.13825 0.0
C1328 C 0.05038 0.44429 0.15353 0.0
C1329 C 0.08735 0.44928 0.20446 0.0
C1330 C 0.07608 0.44822 0.18597 0.0
H1331 H 0.01235 0.46659 0.10283 0.0
H1332 H 0.04098 0.47012 0.12477 0.0
H1333 H 0.05929 0.41587 0.15278 0.0
H1334 H 0.11745 0.4812 0.23109 0.0
H1335 H 0.10148 0.4788 0.19945 0.0
C1336 C 0.33226 0.71208 0.27788 0.0
C1337 C 0.32094 0.7267 0.27177 0.0
C1338 C 0.34932 0.71632 0.28928 0.0
C1339 C 0.38729 0.75645 0.30117 0.0
H1340 H 0.39838 0.72421 0.34599 0.0
C1341 C 0.45083 0.78089 0.35354 0.0
C1342 C 0.46193 0.76702 0.36194 0.0
C1343 C 0.43352 0.77524 0.34307 0.0
C1344 C 0.39566 0.73321 0.33337 0.0
H1345 H 0.31859 0.75719 0.27337 0.0
H1346 H 0.34855 0.76462 0.29285 0.0
H1347 H 0.36843 0.71565 0.32657 0.0
H1348 H 0.46336 0.73624 0.36615 0.0
H1349 H 0.43324 0.72631 0.34739 0.0
H1350 H 0.41453 0.77382 0.30758 0.0
C1351 C 0.34424 0.7499 0.28868 0.0
C1352 C 0.37847 0.72833 0.3223 0.0
C1353 C 0.3271 0.74564 0.27746 0.0
C1354 C 0.45511 0.74728 0.35988 0.0
C1355 C 0.4378 0.7416 0.34919 0.0
C1356 C 0.40452 0.76122 0.31209 0.0
C1357 C 0.35557 0.73531 0.29466 0.0
C1358 C 0.37402 0.74003 0.3062 0.0
C1359 C 0.4269 0.75555 0.34048 0.0
C1360 C 0.40885 0.74982 0.32848 0.0
H1361 H 0.32818 0.6974 0.27355 0.0
H1362 H 0.35787 0.70483 0.29351 0.0
H1363 H 0.38444 0.76553 0.28864 0.0
H1364 H 0.45551 0.79623 0.35504 0.0
H1365 H 0.42529 0.78639 0.33703 0.0
C1366 C 0.97382 0.39681 0.04115 0.0
C1367 C 0.95679 0.38766 0.04943 0.0
C1368 C 0.9846 0.38632 0.03063 0.0
C1369 C 0.99188 0.33699 0.01861 0.0
H1370 H 0.00111 0.36203 0.96895 0.0
C1371 C 0.00598 0.29569 0.9535 0.0
C1372 C 0.01713 0.30589 0.93922 0.0
C1373 C 0.00197 0.30509 0.96938 0.0
C1374 C 0.99911 0.35489 0.98285 0.0
H1375 H 0.9386 0.36019 0.05484 0.0
H1376 H 0.95742 0.34175 0.0364 0.0
H1377 H 0.9887 0.37947 0.99288 0.0
H1378 H 0.03419 0.33336 0.93108 0.0
H1379 H 0.02798 0.34945 0.95901 0.0
H1380 H 0.00214 0.31227 0.00841 0.0
C1381 C 0.96241 0.35702 0.0379 0.0
C1382 C 0.99193 0.36495 0.9966 0.0
C1383 C 0.95159 0.36756 0.04837 0.0
C1384 C 0.0253 0.32521 0.94173 0.0
C1385 C 0.02159 0.33447 0.95769 0.0
C1386 C 0.99928 0.32693 0.00485 0.0
C1387 C 0.97864 0.36643 0.02836 0.0
C1388 C 0.98801 0.35608 0.01457 0.0
C1389 C 0.00926 0.3248 0.97139 0.0
C1390 C 0.00279 0.3357 0.9867 0.0
H1391 H 0.97826 0.41226 0.04208 0.0
H1392 H 0.99725 0.39389 0.02374 0.0
H1393 H 0.9891 0.32981 0.03238 0.0
H1394 H 0.99944 0.2808 0.9519 0.0
H1395 H 0.99232 0.29716 0.97953 0.0
C1396 C 0.68327 0.75911 0.27687 0.0
C1397 C 0.68729 0.77557 0.26442 0.0
C1398 C 0.66928 0.75842 0.29043 0.0
C1399 C 0.6445 0.79043 0.31686 0.0
H1400 H 0.60433 0.74615 0.3236 0.0
C1401 C 0.57384 0.79628 0.35198 0.0
C1402 C 0.56519 0.78077 0.36368 0.0
C1403 C 0.59005 0.79447 0.34194 0.0
C1404 C 0.61565 0.75848 0.32215 0.0
H1405 H 0.67908 0.80384 0.25605 0.0
H1406 H 0.65509 0.80274 0.27982 0.0
H1407 H 0.63011 0.74496 0.30183 0.0
H1408 H 0.56705 0.7512 0.37417 0.0
H1409 H 0.59566 0.74807 0.35659 0.0
H1410 H 0.63011 0.80408 0.33695 0.0
C1411 C 0.66296 0.79051 0.27929 0.0
C1412 C 0.63038 0.75781 0.30965 0.0
C1413 C 0.67676 0.79114 0.26568 0.0
C1414 C 0.57338 0.76343 0.3653 0.0
C1415 C 0.58968 0.7616 0.35515 0.0
C1416 C 0.6299 0.79107 0.32939 0.0
C1417 C 0.65917 0.77423 0.29192 0.0
C1418 C 0.64467 0.77398 0.30653 0.0
C1419 C 0.59816 0.77711 0.3433 0.0
C1420 C 0.615 0.77531 0.33183 0.0
H1421 H 0.69121 0.74692 0.27642 0.0
H1422 H 0.66671 0.74571 0.30003 0.0
H1423 H 0.65556 0.80296 0.31506 0.0
H1424 H 0.56794 0.80985 0.35033 0.0
H1425 H 0.59594 0.80659 0.3327 0.0
C1426 C 0.01823 0.07591 0.01537 0.0
C1427 C 0.03603 0.07079 0.02306 0.0
C1428 C 0.01779 0.09246 0.00325 0.0
C1429 C 0.04877 0.12834 0.97288 0.0
H1430 H 0.00827 0.16005 0.97848 0.0
C1431 C 0.05078 0.20595 0.93837 0.0
C1432 C 0.03319 0.21129 0.93031 0.0
C1433 C 0.05098 0.18831 0.94886 0.0
C1434 C 0.01954 0.15124 0.97658 0.0
H1435 H 0.06738 0.07901 0.02395 0.0
H1436 H 0.06666 0.10805 0.00298 0.0
H1437 H 0.00903 0.13032 0.99829 0.0
H1438 H 0.00203 0.20215 0.92683 0.0
H1439 H 0.0024 0.17136 0.94518 0.0
H1440 H 0.05943 0.14952 0.95134 0.0
C1441 C 0.05301 0.09909 0.00605 0.0
C1442 C 0.01997 0.13416 0.98793 0.0
C1443 C 0.05344 0.08245 0.0181 0.0
C1444 C 0.01582 0.1985 0.93287 0.0
C1445 C 0.01602 0.1809 0.94347 0.0
C1446 C 0.04839 0.14549 0.96159 0.0
C1447 C 0.03516 0.1044 0.99857 0.0
C1448 C 0.0346 0.12248 0.98625 0.0
C1449 C 0.03359 0.17563 0.95164 0.0
C1450 C 0.03378 0.15716 0.96333 0.0
H1451 H 0.00458 0.06704 0.01867 0.0
H1452 H 0.00381 0.09584 0.99747 0.0
H1453 H 0.06007 0.11958 0.97097 0.0
H1454 H 0.06443 0.21544 0.93668 0.0
H1455 H 0.06474 0.18479 0.95513 0.0
C1456 C 0.39858 0.32981 0.28939 0.0
C1457 C 0.37882 0.32174 0.28913 0.0
C1458 C 0.41162 0.32221 0.27863 0.0
C1459 C 0.41601 0.28018 0.24974 0.0
H1460 H 0.45171 0.31789 0.22176 0.0
C1461 C 0.44164 0.26899 0.17642 0.0
C1462 C 0.46141 0.27443 0.17284 0.0
C1463 C 0.43455 0.27268 0.19361 0.0
C1464 C 0.44207 0.30715 0.22972 0.0
H1465 H 0.35712 0.2998 0.27715 0.0
H1466 H 0.37956 0.28686 0.25811 0.0
H1467 H 0.43375 0.32841 0.24676 0.0
H1468 H 0.48938 0.28768 0.18457 0.0
H1469 H 0.47676 0.29468 0.21458 0.0
H1470 H 0.42349 0.25919 0.23175 0.0
C1471 C 0.38531 0.2985 0.26713 0.0
C1472 C 0.4318 0.31314 0.24411 0.0
C1473 C 0.37237 0.30598 0.27797 0.0
C1474 C 0.47407 0.28329 0.18698 0.0
C1475 C 0.46688 0.28734 0.20408 0.0
C1476 C 0.42606 0.27426 0.23519 0.0
C1477 C 0.40507 0.30664 0.26711 0.0
C1478 C 0.41821 0.29982 0.25394 0.0
C1479 C 0.44702 0.28218 0.20747 0.0
C1480 C 0.4388 0.28779 0.22474 0.0
H1481 H 0.40385 0.34223 0.29758 0.0
H1482 H 0.42675 0.32877 0.27907 0.0
H1483 H 0.40605 0.26942 0.25732 0.0
H1484 H 0.43155 0.26206 0.16583 0.0
H1485 H 0.41914 0.26873 0.19579 0.0
C1486 C 0.56107 0.44854 0.01022 0.0
C1487 C 0.55432 0.44981 0.9911 0.0
C1488 C 0.55505 0.43215 0.0219 0.0
C1489 C 0.51521 0.39333 0.02896 0.0
H1490 H 0.55322 0.36555 0.05699 0.0
C1491 C 0.49166 0.32091 0.0702 0.0
C1492 C 0.50207 0.31648 0.08713 0.0
C1493 C 0.49837 0.33706 0.05853 0.0
C1494 C 0.54237 0.37329 0.04955 0.0
H1495 H 0.53593 0.43451 0.9694 0.0
H1496 H 0.52482 0.40629 0.99011 0.0
H1497 H 0.56421 0.39416 0.03672 0.0
H1498 H 0.52759 0.32556 0.10523 0.0
H1499 H 0.53891 0.3543 0.08529 0.0
H1500 H 0.49331 0.37314 0.04216 0.0
C1501 C 0.5349 0.41804 0.99588 0.0
C1502 C 0.54871 0.3896 0.03785 0.0
C1503 C 0.5412 0.43428 0.98408 0.0
C1504 C 0.51932 0.32857 0.0922 0.0
C1505 C 0.52586 0.34498 0.08067 0.0
C1506 C 0.50884 0.37726 0.04092 0.0
C1507 C 0.54185 0.41682 0.01486 0.0
C1508 C 0.53518 0.39966 0.02736 0.0
C1509 C 0.51547 0.34945 0.06365 0.0
C1510 C 0.52233 0.3669 0.05127 0.0
H1511 H 0.5708 0.46034 0.01632 0.0
H1512 H 0.56042 0.43161 0.03656 0.0
H1513 H 0.5045 0.40103 0.02119 0.0
H1514 H 0.47843 0.31172 0.0658 0.0
H1515 H 0.4902 0.33966 0.04535 0.0
C1516 C 0.69036 0.27188 0.24716 0.0
C1517 C 0.69494 0.25298 0.25079 0.0
C1518 C 0.6746 0.27535 0.23487 0.0
C1519 C 0.64116 0.25437 0.19659 0.0
H1520 H 0.60678 0.2883 0.21309 0.0
C1521 C 0.56477 0.2592 0.16098 0.0
C1522 C 0.55832 0.27743 0.15911 0.0
C1523 C 0.58223 0.25677 0.17111 0.0
C1524 C 0.61637 0.27902 0.20811 0.0
H1525 H 0.68667 0.22296 0.24409 0.0
H1526 H 0.65917 0.22904 0.22256 0.0
H1527 H 0.63589 0.28307 0.23248 0.0
H1528 H 0.56543 0.30751 0.16603 0.0
H1529 H 0.59601 0.30332 0.18348 0.0
H1530 H 0.62155 0.25026 0.17224 0.0
C1531 C 0.66791 0.24119 0.22911 0.0
C1532 C 0.63306 0.27601 0.21925 0.0
C1533 C 0.68368 0.23771 0.24144 0.0
C1534 C 0.56991 0.29324 0.1673 0.0
C1535 C 0.5874 0.29082 0.17739 0.0
C1536 C 0.62447 0.25743 0.18541 0.0
C1537 C 0.66305 0.26002 0.22587 0.0
C1538 C 0.64561 0.26359 0.21367 0.0
C1539 C 0.59369 0.27251 0.17957 0.0
C1540 C 0.61181 0.26972 0.19108 0.0
H1541 H 0.69896 0.28402 0.25387 0.0
H1542 H 0.67145 0.29007 0.23242 0.0
H1543 H 0.65067 0.24491 0.19178 0.0
H1544 H 0.55618 0.24669 0.15488 0.0
H1545 H 0.5865 0.24242 0.1727 0.0
C1546 C 0.4613 0.09866 0.00588 0.0
C1547 C 0.47708 0.0887 0.00346 0.0
C1548 C 0.46292 0.11307 0.01884 0.0
C1549 C 0.49811 0.1476 0.04456 0.0
H1550 H 0.45474 0.14879 0.07625 0.0
C1551 C 0.49852 0.20652 0.09851 0.0
C1552 C 0.48129 0.21496 0.09812 0.0
C1553 C 0.49901 0.18965 0.08903 0.0
C1554 C 0.46694 0.14872 0.06745 0.0
H1555 H 0.50706 0.08628 0.01262 0.0
H1556 H 0.50995 0.11175 0.03511 0.0
H1557 H 0.45385 0.12247 0.05517 0.0
H1558 H 0.45095 0.21194 0.08789 0.0
H1559 H 0.45187 0.18283 0.07135 0.0
H1560 H 0.51097 0.17416 0.05649 0.0
C1561 C 0.49634 0.10834 0.02693 0.0
C1562 C 0.46642 0.13365 0.05537 0.0
C1563 C 0.49469 0.09381 0.01401 0.0
C1564 C 0.46447 0.20587 0.08851 0.0
C1565 C 0.46496 0.18905 0.07911 0.0
C1566 C 0.4986 0.16276 0.05661 0.0
C1567 C 0.48039 0.11797 0.02961 0.0
C1568 C 0.48181 0.13313 0.04352 0.0
C1569 C 0.48226 0.18084 0.07907 0.0
C1570 C 0.48283 0.16368 0.06791 0.0
H1571 H 0.44768 0.0954 0.99769 0.0
H1572 H 0.45051 0.12053 0.02029 0.0
H1573 H 0.51013 0.14763 0.03551 0.0
H1574 H 0.51172 0.21315 0.10581 0.0
H1575 H 0.51251 0.18356 0.08941 0.0
C1576 C 0.23755 0.33023 0.72858 0.0
C1577 C 0.24552 0.3129 0.72811 0.0
C1578 C 0.24914 0.34814 0.7258 0.0
C1579 C 0.30028 0.37137 0.72945 0.0
H1580 H 0.27777 0.41542 0.70629 0.0
C1581 C 0.34058 0.45047 0.72977 0.0
C1582 C 0.32957 0.46261 0.73824 0.0
C1583 C 0.33183 0.4322 0.72416 0.0
C1584 C 0.28431 0.40322 0.71265 0.0
H1585 H 0.27191 0.30087 0.72389 0.0
H1586 H 0.29213 0.33226 0.71864 0.0
H1587 H 0.25965 0.3829 0.70438 0.0
H1588 H 0.30068 0.46568 0.74655 0.0
H1589 H 0.28542 0.4342 0.73637 0.0
H1590 H 0.3248 0.3919 0.73801 0.0
C1591 C 0.27693 0.33193 0.72144 0.0
C1592 C 0.2739 0.3846 0.71169 0.0
C1593 C 0.2653 0.31394 0.72427 0.0
C1594 C 0.30955 0.45659 0.74013 0.0
C1595 C 0.30077 0.43862 0.7342 0.0
C1596 C 0.31079 0.39001 0.73025 0.0
C1597 C 0.26901 0.34927 0.72232 0.0
C1598 C 0.28143 0.36852 0.72068 0.0
C1599 C 0.31186 0.42606 0.72651 0.0
C1600 C 0.3026 0.40617 0.72242 0.0
H1601 H 0.2223 0.32998 0.73118 0.0
H1602 H 0.24256 0.36113 0.72688 0.0
H1603 H 0.3065 0.35937 0.73664 0.0
H1604 H 0.35606 0.45475 0.72824 0.0
H1605 H 0.34067 0.42276 0.71826 0.0
C1606 C 0.28836 0.70495 0.75506 0.0
C1607 C 0.26809 0.70254 0.7568 0.0
C1608 C 0.29766 0.68927 0.75119 0.0
C1609 C 0.28762 0.63926 0.73376 0.0
H1610 H 0.3371 0.63317 0.7602 0.0
C1611 C 0.31554 0.56615 0.74879 0.0
C1612 C 0.33528 0.56496 0.74654 0.0
C1613 C 0.30851 0.5839 0.74635 0.0
C1614 C 0.32346 0.63485 0.75245 0.0
H1615 H 0.24153 0.68208 0.75477 0.0
H1616 H 0.2577 0.65457 0.74884 0.0
H1617 H 0.32243 0.66234 0.76368 0.0
H1618 H 0.36311 0.58134 0.7395 0.0
H1619 H 0.35083 0.61277 0.73569 0.0
H1620 H 0.28827 0.61125 0.72336 0.0
C1621 C 0.26652 0.66856 0.75028 0.0
C1622 C 0.31501 0.65158 0.75443 0.0
C1623 C 0.25723 0.68428 0.75397 0.0
C1624 C 0.3478 0.58186 0.74121 0.0
C1625 C 0.34082 0.5998 0.73915 0.0
C1626 C 0.29595 0.62246 0.73198 0.0
C1627 C 0.28688 0.67081 0.74887 0.0
C1628 C 0.29676 0.65383 0.74542 0.0
C1629 C 0.32113 0.60098 0.74192 0.0
C1630 C 0.31377 0.61992 0.74159 0.0
H1631 H 0.29701 0.71901 0.75667 0.0
H1632 H 0.31329 0.69169 0.74983 0.0
H1633 H 0.27383 0.64066 0.72619 0.0
H1634 H 0.30554 0.55335 0.75284 0.0
H1635 H 0.29333 0.58437 0.74875 0.0
C1636 C 0.92664 0.52818 0.46208 0.0
C1637 C 0.9333 0.53722 0.47892 0.0
C1638 C 0.91005 0.51419 0.4617 0.0
C1639 C 0.8642 0.49799 0.48288 0.0
H1640 H 0.87099 0.44594 0.47162 0.0
C1641 C 0.80516 0.43201 0.4975 0.0
C1642 C 0.80454 0.41575 0.48677 0.0
C1643 C 0.81969 0.44795 0.49487 0.0
C1644 C 0.86857 0.46044 0.47435 0.0
H1645 H 0.92752 0.53824 0.50862 0.0
H1646 H 0.89809 0.51458 0.50753 0.0
H1647 H 0.89837 0.47184 0.46966 0.0
H1648 H 0.81753 0.40381 0.46402 0.0
H1649 H 0.84194 0.43196 0.45848 0.0
H1650 H 0.83431 0.48692 0.48706 0.0
C1651 C 0.90587 0.5184 0.49472 0.0
C1652 C 0.88438 0.47523 0.47335 0.0
C1653 C 0.92269 0.53204 0.49526 0.0
C1654 C 0.81789 0.41611 0.47265 0.0
C1655 C 0.83203 0.43221 0.46964 0.0
C1656 C 0.84821 0.48328 0.48345 0.0
C1657 C 0.89952 0.50927 0.47799 0.0
C1658 C 0.88238 0.49404 0.47784 0.0
C1659 C 0.83358 0.44812 0.48112 0.0
C1660 C 0.85021 0.46421 0.47942 0.0
H1661 H 0.93412 0.53198 0.44912 0.0
H1662 H 0.90533 0.50731 0.44862 0.0
H1663 H 0.86236 0.51248 0.48631 0.0
H1664 H 0.79507 0.43198 0.50857 0.0
H1665 H 0.82045 0.45973 0.50418 0.0
C1666 C 0.79836 0.84674 0.83216 0.0
C1667 C 0.81144 0.8521 0.84742 0.0
C1668 C 0.78311 0.85732 0.82697 0.0
C1669 C 0.76677 0.90313 0.82404 0.0
H1670 H 0.71475 0.8761 0.83176 0.0
C1671 C 0.6979 0.94106 0.80937 0.0
C1672 C 0.68073 0.92973 0.80278 0.0
C1673 C 0.71439 0.93241 0.81524 0.0
C1674 C 0.7291 0.88382 0.82917 0.0
H1675 H 0.81927 0.87288 0.86892 0.0
H1676 H 0.79275 0.8919 0.85934 0.0
H1677 H 0.74292 0.85974 0.84052 0.0
H1678 H 0.66756 0.90065 0.79644 0.0
H1679 H 0.6964 0.88574 0.80568 0.0
H1680 H 0.75313 0.92691 0.81184 0.0
C1681 C 0.79429 0.87938 0.85162 0.0
C1682 C 0.74521 0.87446 0.83438 0.0
C1683 C 0.80934 0.86853 0.8571 0.0
C1684 C 0.68051 0.90972 0.80172 0.0
C1685 C 0.69706 0.90115 0.80719 0.0
C1686 C 0.75061 0.91241 0.81843 0.0
C1687 C 0.78093 0.87364 0.8367 0.0
C1688 C 0.76412 0.88401 0.83179 0.0
C1689 C 0.71416 0.91229 0.81431 0.0
C1690 C 0.73152 0.90281 0.8208 0.0
H1691 H 0.79958 0.83401 0.82462 0.0
H1692 H 0.77289 0.85267 0.81544 0.0
H1693 H 0.7813 0.91068 0.82187 0.0
H1694 H 0.69844 0.95653 0.81042 0.0
H1695 H 0.72716 0.94147 0.82085 0.0
C1696 C 0.60798 0.52467 0.97729 0.0
C1697 C 0.6057 0.50503 0.97337 0.0
C1698 C 0.62645 0.53463 0.98183 0.0
C1699 C 0.67686 0.52589 0.9976 0.0
H1700 H 0.68972 0.58056 0.98313 0.0
C1701 C 0.75515 0.56762 0.99961 0.0
C1702 C 0.758 0.58492 0.00912 0.0
C1703 C 0.73639 0.55787 0.99604 0.0
C1704 C 0.68623 0.56532 0.98737 0.0
H1705 H 0.6208 0.48048 0.97047 0.0
H1706 H 0.65319 0.49799 0.97748 0.0
H1707 H 0.65751 0.56358 0.97434 0.0
H1708 H 0.74344 0.60561 0.02231 0.0
H1709 H 0.71048 0.58875 0.01553 0.0
H1710 H 0.70598 0.52763 0.00992 0.0
C1711 C 0.64074 0.50563 0.97779 0.0
C1712 C 0.66775 0.55557 0.98242 0.0
C1713 C 0.62222 0.49561 0.9736 0.0
C1714 C 0.74168 0.59228 0.015 0.0
C1715 C 0.72287 0.58272 0.01107 0.0
C1716 C 0.69542 0.53557 0.00222 0.0
C1717 C 0.64311 0.52523 0.98223 0.0
C1718 C 0.6628 0.5357 0.98747 0.0
C1719 C 0.72009 0.56543 0.00157 0.0
C1720 C 0.70025 0.55536 0.99715 0.0
H1721 H 0.59538 0.53217 0.97739 0.0
H1722 H 0.62757 0.54958 0.98546 0.0
H1723 H 0.67352 0.51074 0.00217 0.0
H1724 H 0.76744 0.56156 0.99497 0.0
H1725 H 0.73459 0.54461 0.98861 0.0
C1726 C 0.26908 0.66399 0.25662 0.0
C1727 C 0.26094 0.68119 0.25266 0.0
C1728 C 0.2571 0.6462 0.259 0.0
C1729 C 0.20713 0.62171 0.2483 0.0
H1730 H 0.22041 0.58474 0.28843 0.0
C1731 C 0.15462 0.55267 0.26986 0.0
C1732 C 0.16278 0.53557 0.27439 0.0
C1733 C 0.1666 0.57036 0.26671 0.0
C1734 C 0.21662 0.59479 0.27701 0.0
H1735 H 0.2338 0.69318 0.24833 0.0
H1736 H 0.2129 0.66213 0.25249 0.0
H1737 H 0.24127 0.61573 0.28401 0.0
H1738 H 0.18995 0.52362 0.27885 0.0
H1739 H 0.2108 0.55441 0.27318 0.0
H1740 H 0.18245 0.60076 0.24133 0.0
C1741 C 0.22856 0.66237 0.25348 0.0
C1742 C 0.22858 0.61257 0.27448 0.0
C1743 C 0.24053 0.68017 0.25111 0.0
C1744 C 0.18318 0.53652 0.27547 0.0
C1745 C 0.19514 0.5542 0.27234 0.0
C1746 C 0.19517 0.60391 0.25083 0.0
C1747 C 0.2367 0.64518 0.25747 0.0
C1748 C 0.22398 0.62625 0.2601 0.0
C1749 C 0.18701 0.57136 0.26803 0.0
C1750 C 0.19977 0.59024 0.26522 0.0
H1751 H 0.28474 0.66423 0.2576 0.0
H1752 H 0.26385 0.6332 0.26177 0.0
H1753 H 0.20332 0.6318 0.23692 0.0
H1754 H 0.13897 0.55247 0.26894 0.0
H1755 H 0.15986 0.58333 0.26363 0.0
C1756 C 0.92285 0.46441 0.09953 0.0
C1757 C 0.94167 0.46653 0.09278 0.0
C1758 C 0.9123 0.48009 0.09824 0.0
C1759 C 0.9175 0.53387 0.08707 0.0
H1760 H 0.86204 0.5228 0.07445 0.0
C1761 C 0.87105 0.58489 0.04388 0.0
C1762 C 0.85295 0.58707 0.05065 0.0
C1763 C 0.88258 0.57215 0.05334 0.0
C1764 C 0.87746 0.52609 0.07829 0.0
H1765 H 0.96426 0.48652 0.07939 0.0
H1766 H 0.94566 0.51358 0.07624 0.0
H1767 H 0.88064 0.49616 0.08228 0.0
H1768 H 0.83292 0.57817 0.07289 0.0
H1769 H 0.8529 0.55521 0.08914 0.0
H1770 H 0.9143 0.56386 0.08161 0.0
C1771 C 0.93917 0.50015 0.08322 0.0
C1772 C 0.88817 0.51082 0.08285 0.0
C1773 C 0.94983 0.4846 0.08486 0.0
C1774 C 0.8469 0.57685 0.06748 0.0
C1775 C 0.85824 0.56369 0.0767 0.0
C1776 C 0.90683 0.54911 0.08212 0.0
C1777 C 0.9202 0.49813 0.08981 0.0
C1778 C 0.90844 0.51446 0.08694 0.0
C1779 C 0.876 0.56101 0.06949 0.0
C1780 C 0.88678 0.54531 0.0774 0.0
H1781 H 0.91635 0.45064 0.10588 0.0
H1782 H 0.89794 0.478 0.10383 0.0
H1783 H 0.93294 0.53735 0.09063 0.0
H1784 H 0.87603 0.59262 0.03093 0.0
H1785 H 0.89615 0.57022 0.04744 0.0
C1786 C 0.07595 0.96767 0.04377 0.0
C1787 C 0.07526 0.98558 0.03374 0.0
C1788 C 0.09136 0.95722 0.0418 0.0
C1789 C 0.14183 0.96154 0.02589 0.0
H1790 H 0.12859 0.90627 0.0203 0.0
C1791 C 0.19809 0.91405 0.0045 0.0
C1792 C 0.1975 0.89543 0.01349 0.0
C1793 C 0.18344 0.92536 0.00697 0.0
C1794 C 0.13262 0.92164 0.02207 0.0
H1795 H 0.09048 0.00706 0.01449 0.0
H1796 H 0.11749 0.98879 0.01093 0.0
H1797 H 0.10301 0.92555 0.02522 0.0
H1798 H 0.18103 0.87422 0.03224 0.0
H1799 H 0.15574 0.89395 0.03673 0.0
H1800 H 0.17148 0.95759 0.02278 0.0
C1801 C 0.10613 0.98279 0.02033 0.0
C1802 C 0.11792 0.93271 0.0249 0.0
C1803 C 0.09066 0.99321 0.02228 0.0
C1804 C 0.18192 0.88843 0.025 0.0
C1805 C 0.16732 0.89973 0.0275 0.0
C1806 C 0.15657 0.95044 0.02311 0.0
C1807 C 0.10652 0.9645 0.02983 0.0
C1808 C 0.12232 0.9528 0.0269 0.0
C1809 C 0.16785 0.91835 0.01852 0.0
C1810 C 0.15217 0.93032 0.02121 0.0
H1811 H 0.06436 0.96158 0.05288 0.0
H1812 H 0.09138 0.94337 0.04961 0.0
H1813 H 0.14577 0.97693 0.02757 0.0
H1814 H 0.20985 0.9199 0.99551 0.0
H1815 H 0.18421 0.93952 0.99964 0.0
loop_
_geom_bond_atom_site_label_1
_geom_bond_atom_site_label_2
_geom_bond_distance
_geom_bond_site_symmetry_2
_ccdc_geom_bond_type
H0 C7 0.929 . S
H1 C10 0.930 . S
H2 C12 0.929 . S
H3 C4 0.969 1_565 S
C4 H3 0.969 1_545 S
C4 O5 1.550 . S
C4 H6 0.975 . S
O5 C4 1.550 . S
O5 C11 1.412 . S
H6 C4 0.975 . S
C7 H0 0.929 . S
C7 C8 1.400 . S
C7 C9 1.364 . S
C8 C7 1.400 . S
C8 C12 1.377 . S
C9 C7 1.364 . S
C9 C10 1.374 . S
C10 H1 0.930 . S
C10 C9 1.374 . S
C10 C11 1.383 . S
C11 O5 1.412 . S
C11 C10 1.383 . S
C11 C12 1.394 . S
C12 H2 0.929 . S
C12 C8 1.377 . S
C12 C11 1.394 . S
H13 C20 0.929 . S
H14 C23 0.930 . S
H15 C25 0.929 . S
H16 C17 0.969 . S
C17 H16 0.969 . S
C17 O18 1.550 . S
C17 H19 0.973 . S
O18 C17 1.550 . S
O18 C24 1.412 . S
H19 C17 0.973 . S
C20 H13 0.929 . S
C20 C21 1.400 . S
C20 C22 1.364 . S
C21 C20 1.400 . S
C21 C25 1.377 . S
C22 C20 1.364 . S
C22 C23 1.374 . S
C23 H14 0.930 . S
C23 C22 1.374 . S
C23 C24 1.383 . S
C24 O18 1.412 . S
C24 C23 1.383 . S
C24 C25 1.394 . S
C25 H15 0.929 . S
C25 C21 1.377 . S
C25 C24 1.394 . S
H26 C33 0.929 . S
H27 C36 0.930 . S
H28 C38 0.929 . S
H29 C30 0.969 . S
C30 H29 0.969 . S
C30 O31 1.550 . S
C30 H32 0.973 . S
O31 C30 1.550 . S
O31 C37 1.412 . S
H32 C30 0.973 . S
C33 H26 0.929 . S
C33 C34 1.400 . S
C33 C35 1.364 . S
C34 C33 1.400 . S
C34 C38 1.377 . S
C35 C33 1.364 . S
C35 C36 1.374 . S
C36 H27 0.930 . S
C36 C35 1.374 . S
C36 C37 1.383 . S
C37 O31 1.412 . S
C37 C36 1.383 . S
C37 C38 1.394 . S
C38 H28 0.929 . S
C38 C34 1.377 . S
C38 C37 1.394 . S
H39 C46 0.929 . S
H40 C49 0.930 . S
H41 C51 0.929 . S
H42 C43 0.969 . S
C43 H42 0.969 . S
C43 O44 1.550 . S
C43 H45 0.973 . S
O44 C43 1.550 . S
O44 C50 1.412 . S
H45 C43 0.973 . S
C46 H39 0.929 . S
C46 C47 1.400 . S
C46 C48 1.364 . S
C47 C46 1.400 . S
C47 C51 1.377 . S
C48 C46 1.364 . S
C48 C49 1.374 . S
C49 H40 0.930 . S
C49 C48 1.374 . S
C49 C50 1.383 . S
C50 O44 1.412 . S
C50 C49 1.383 . S
C50 C51 1.394 . S
C51 H41 0.929 . S
C51 C47 1.377 . S
C51 C50 1.394 . S
H52 C59 0.929 . S
H53 C62 0.930 . S
H54 C64 0.929 . S
H55 C56 0.969 . S
C56 H55 0.969 . S
C56 O57 1.550 . S
C56 H58 0.973 . S
O57 C56 1.550 . S
O57 C63 1.412 . S
H58 C56 0.973 . S
C59 H52 0.929 . S
C59 C60 1.400 . S
C59 C61 1.364 . S
C60 C59 1.400 . S
C60 C64 1.377 . S
C61 C59 1.364 . S
C61 C62 1.374 . S
C62 H53 0.930 . S
C62 C61 1.374 . S
C62 C63 1.383 . S
C63 O57 1.412 . S
C63 C62 1.383 . S
C63 C64 1.394 . S
C64 H54 0.929 . S
C64 C60 1.377 . S
C64 C63 1.394 . S
H65 C72 0.929 . S
H66 C75 0.930 . S
H67 C77 0.929 . S
H68 C69 0.969 . S
C69 H68 0.969 . S
C69 O70 1.550 . S
C69 H71 0.973 . S
O70 C69 1.550 . S
O70 C76 1.412 . S
H71 C69 0.973 . S
C72 H65 0.929 . S
C72 C73 1.400 . S
C72 C74 1.364 . S
C73 C72 1.400 . S
C73 C77 1.377 . S
C74 C72 1.364 . S
C74 C75 1.374 . S
C75 H66 0.930 . S
C75 C74 1.374 . S
C75 C76 1.383 . S
C76 O70 1.412 . S
C76 C75 1.383 . S
C76 C77 1.394 . S
C77 H67 0.929 . S
C77 C73 1.377 . S
C77 C76 1.394 . S
H78 C85 0.929 . S
H79 C88 0.930 . S
H80 C90 0.929 1_455 S
H81 C82 0.969 . S
C82 H81 0.969 . S
C82 O83 1.550 1_655 S
C82 H84 0.973 . S
O83 C82 1.550 1_455 S
O83 C89 1.412 1_455 S
H84 C82 0.973 . S
C85 H78 0.929 . S
C85 C86 1.400 . S
C85 C87 1.364 . S
C86 C85 1.400 . S
C86 C90 1.377 . S
C87 C85 1.364 . S
C87 C88 1.374 . S
C88 H79 0.930 . S
C88 C87 1.374 . S
C88 C89 1.383 . S
C89 O83 1.412 1_655 S
C89 C88 1.383 . S
C89 C90 1.394 . S
C90 H80 0.929 1_655 S
C90 C86 1.377 . S
C90 C89 1.394 . S
H91 C98 0.929 . S
H92 C101 0.930 . S
H93 C103 0.929 . S
H94 C95 0.969 . S
C95 H94 0.969 . S
C95 O96 1.550 . S
C95 H97 0.973 . S
O96 C95 1.550 . S
O96 C102 1.412 . S
H97 C95 0.973 . S
C98 H91 0.929 . S
C98 C99 1.400 . S
C98 C100 1.364 . S
C99 C98 1.400 . S
C99 C103 1.377 . S
C100 C98 1.364 . S
C100 C101 1.374 . S
C101 H92 0.930 . S
C101 C100 1.374 . S
C101 C102 1.383 . S
C102 O96 1.412 . S
C102 C101 1.383 . S
C102 C103 1.394 . S
C103 H93 0.929 . S
C103 C99 1.377 . S
C103 C102 1.394 . S
H104 C111 0.929 . S
H105 C114 0.930 . S
H106 C116 0.929 . S
H107 C108 0.969 . S
C108 H107 0.969 . S
C108 O109 1.550 . S
C108 H110 0.973 . S
O109 C108 1.550 . S
O109 C115 1.412 . S
H110 C108 0.973 . S
C111 H104 0.929 . S
C111 C112 1.400 . S
C111 C113 1.364 . S
C112 C111 1.400 . S
C112 C116 1.377 . S
C113 C111 1.364 . S
C113 C114 1.374 . S
C114 H105 0.930 . S
C114 C113 1.374 . S
C114 C115 1.383 . S
C115 O109 1.412 . S
C115 C114 1.383 . S
C115 C116 1.394 . S
C116 H106 0.929 . S
C116 C112 1.377 . S
C116 C115 1.394 . S
H117 C124 0.929 . S
H118 C127 0.930 . S
H119 C129 0.929 . S
H120 C121 0.969 . S
C121 H120 0.969 . S
C121 O122 1.550 . S
C121 H123 0.973 . S
O122 C121 1.550 . S
O122 C128 1.412 . S
H123 C121 0.973 . S
C124 H117 0.929 . S
C124 C125 1.400 . S
C124 C126 1.364 . S
C125 C124 1.400 . S
C125 C129 1.377 . S
C126 C124 1.364 . S
C126 C127 1.374 . S
C127 H118 0.930 . S
C127 C126 1.374 . S
C127 C128 1.383 . S
C128 O122 1.412 . S
C128 C127 1.383 . S
C128 C129 1.394 . S
C129 H119 0.929 . S
C129 C125 1.377 . S
C129 C128 1.394 . S
H130 C137 0.929 . S
H131 C140 0.930 . S
H132 C142 0.929 . S
H133 C134 0.969 . S
C134 H133 0.969 . S
C134 O135 1.550 . S
C134 H136 0.973 . S
O135 C134 1.550 . S
O135 C141 1.412 . S
H136 C134 0.973 . S
C137 H130 0.929 . S
C137 C138 1.400 . S
C137 C139 1.364 . S
C138 C137 1.400 . S
C138 C142 1.377 . S
C139 C137 1.364 . S
C139 C140 1.374 . S
C140 H131 0.930 . S
C140 C139 1.374 . S
C140 C141 1.383 . S
C141 O135 1.412 . S
C141 C140 1.383 . S
C141 C142 1.394 . S
C142 H132 0.929 . S
C142 C138 1.377 . S
C142 C141 1.394 . S
H143 C150 0.929 . S
H144 C153 0.930 . S
H145 C155 0.929 . S
H146 C147 0.969 . S
C147 H146 0.969 . S
C147 O148 1.550 . S
C147 H149 0.973 . S
O148 C147 1.550 . S
O148 C154 1.412 . S
H149 C147 0.973 . S
C150 H143 0.929 . S
C150 C151 1.400 . S
C150 C152 1.364 . S
C151 C150 1.400 . S
C151 C155 1.377 . S
C152 C150 1.364 . S
C152 C153 1.374 . S
C153 H144 0.930 . S
C153 C152 1.374 . S
C153 C154 1.383 . S
C154 O148 1.412 . S
C154 C153 1.383 . S
C154 C155 1.394 . S
C155 H145 0.929 . S
C155 C151 1.377 . S
C155 C154 1.394 . S
H156 C163 0.929 . S
H157 C166 0.930 . S
H158 C168 0.929 . S
H159 C160 0.969 . S
C160 H159 0.969 . S
C160 O161 1.550 . S
C160 H162 0.973 . S
O161 C160 1.550 . S
O161 C167 1.412 . S
H162 C160 0.973 . S
C163 H156 0.929 . S
C163 C164 1.400 . S
C163 C165 1.364 . S
C164 C163 1.400 . S
C164 C168 1.377 . S
C165 C163 1.364 . S
C165 C166 1.374 . S
C166 H157 0.930 . S
C166 C165 1.374 . S
C166 C167 1.383 . S
C167 O161 1.412 . S
C167 C166 1.383 . S
C167 C168 1.394 . S
C168 H158 0.929 . S
C168 C164 1.377 . S
C168 C167 1.394 . S
H169 C176 0.929 . S
H170 C179 0.930 . S
H171 C181 0.929 . S
H172 C173 0.969 . S
C173 H172 0.969 . S
C173 O174 1.550 . S
C173 H175 0.973 . S
O174 C173 1.550 . S
O174 C180 1.412 . S
H175 C173 0.973 . S
C176 H169 0.929 . S
C176 C177 1.400 . S
C176 C178 1.364 . S
C177 C176 1.400 . S
C177 C181 1.377 . S
C178 C176 1.364 . S
C178 C179 1.374 . S
C179 H170 0.930 . S
C179 C178 1.374 . S
C179 C180 1.383 . S
C180 O174 1.412 . S
C180 C179 1.383 . S
C180 C181 1.394 . S
C181 H171 0.929 . S
C181 C177 1.377 . S
C181 C180 1.394 . S
H182 C189 0.929 . S
H183 C192 0.930 . S
H184 C194 0.929 . S
H185 C186 0.969 . S
C186 H185 0.969 . S
C186 O187 1.550 . S
C186 H188 0.973 . S
O187 C186 1.550 . S
O187 C193 1.412 . S
H188 C186 0.973 . S
C189 H182 0.929 . S
C189 C190 1.400 . S
C189 C191 1.364 . S
C190 C189 1.400 . S
C190 C194 1.377 . S
C191 C189 1.364 . S
C191 C192 1.374 . S
C192 H183 0.930 . S
C192 C191 1.374 . S
C192 C193 1.383 . S
C193 O187 1.412 . S
C193 C192 1.383 . S
C193 C194 1.394 . S
C194 H184 0.929 . S
C194 C190 1.377 . S
C194 C193 1.394 . S
H195 C202 0.929 . S
H196 C205 0.930 . S
H197 C207 0.929 . S
H198 C199 0.969 . S
C199 H198 0.969 . S
C199 O200 1.550 . S
C199 H201 0.973 . S
O200 C199 1.550 . S
O200 C206 1.412 . S
H201 C199 0.973 . S
C202 H195 0.929 . S
C202 C203 1.400 . S
C202 C204 1.364 . S
C203 C202 1.400 . S
C203 C207 1.377 . S
C204 C202 1.364 . S
C204 C205 1.374 . S
C205 H196 0.930 . S
C205 C204 1.374 . S
C205 C206 1.383 . S
C206 O200 1.412 . S
C206 C205 1.383 . S
C206 C207 1.394 . S
C207 H197 0.929 . S
C207 C203 1.377 . S
C207 C206 1.394 . S
Zn208 O211 2.058 . S
Zn208 O213 2.032 1_554 S
Zn208 O218 2.027 1_554 S
Zn209 O210 1.962 . S
Zn209 O212 1.986 . S
Zn209 O214 1.996 . S
Zn209 O217 1.943 1_554 S
O210 Zn209 1.962 . S
O210 C215 1.254 . S
O211 Zn208 2.058 . S
O211 C215 1.269 . S
O212 Zn209 1.986 . S
O212 C219 1.262 . S
O213 Zn208 2.032 1_556 S
O213 C221 1.260 . S
O214 Zn209 1.996 . S
O214 C221 1.257 1_554 S
C215 O210 1.254 . S
C215 O211 1.269 . S
C216 O217 1.249 . S
C216 O218 1.270 . S
O217 Zn209 1.943 1_556 S
O217 C216 1.249 . S
O218 Zn208 2.027 1_556 S
O218 C216 1.270 . S
C219 O212 1.262 . S
C219 O220 1.232 . S
O220 C219 1.232 . S
C221 O213 1.260 . S
C221 O214 1.257 1_556 S
Zn222 O225 2.031 . S
Zn222 O227 2.049 . S
Zn222 O232 2.067 . S
Zn223 O224 1.962 . S
Zn223 O226 1.986 . S
Zn223 O228 1.996 . S
Zn223 O231 1.943 . S
O224 Zn223 1.962 . S
O224 C229 1.254 . S
O225 Zn222 2.031 . S
O225 C229 1.269 . S
O226 Zn223 1.986 . S
O226 C233 1.262 . S
O227 Zn222 2.049 . S
O227 C235 1.260 . S
O228 Zn223 1.996 . S
O228 C235 1.257 . S
C229 O224 1.254 . S
C229 O225 1.269 . S
C230 O231 1.249 . S
C230 O232 1.270 . S
O231 Zn223 1.943 . S
O231 C230 1.249 . S
O232 Zn222 2.067 . S
O232 C230 1.270 . S
C233 O226 1.262 . S
C233 O234 1.232 . S
O234 C233 1.232 . S
C235 O227 1.260 . S
C235 O228 1.257 . S
Zn236 O239 2.031 . S
Zn236 O241 2.049 1_554 S
Zn236 O246 2.067 . S
Zn237 O238 1.962 . S
Zn237 O240 1.986 . S
Zn237 O242 1.996 . S
Zn237 O245 1.943 . S
O238 Zn237 1.962 . S
O238 C243 1.254 . S
O239 Zn236 2.031 . S
O239 C243 1.269 . S
O240 Zn237 1.986 . S
O240 C247 1.262 . S
O241 Zn236 2.049 1_556 S
O241 C249 1.260 1_556 S
O242 Zn237 1.996 . S
O242 C249 1.257 . S
C243 O238 1.254 . S
C243 O239 1.269 . S
C244 O245 1.249 . S
C244 O246 1.270 . S
O245 Zn237 1.943 . S
O245 C244 1.249 . S
O246 Zn236 2.067 . S
O246 C244 1.270 . S
C247 O240 1.262 . S
C247 O248 1.232 . S
O248 C247 1.232 . S
C249 O241 1.260 1_554 S
C249 O242 1.257 . S
Zn250 O253 2.031 . S
Zn250 O255 2.049 . S
Zn250 O260 2.067 1_545 S
Zn251 O252 1.962 . S
Zn251 O254 1.986 . S
Zn251 O256 1.996 . S
Zn251 O259 1.943 1_545 S
O252 Zn251 1.962 . S
O252 C257 1.254 . S
O253 Zn250 2.031 . S
O253 C257 1.269 . S
O254 Zn251 1.986 . S
O254 C261 1.262 . S
O255 Zn250 2.049 . S
O255 C263 1.260 . S
O256 Zn251 1.996 . S
O256 C263 1.257 . S
C257 O252 1.254 . S
C257 O253 1.269 . S
C258 O259 1.249 . S
C258 O260 1.270 . S
O259 Zn251 1.943 1_565 S
O259 C258 1.249 . S
O260 Zn250 2.067 1_565 S
O260 C258 1.270 . S
C261 O254 1.262 . S
C261 O262 1.232 . S
O262 C261 1.232 . S
C263 O255 1.260 . S
C263 O256 1.257 . S
Zn264 O267 2.031 . S
Zn264 O269 2.049 . S
Zn264 O274 2.067 . S
Zn265 O266 1.962 . S
Zn265 O268 1.986 . S
Zn265 O270 1.996 . S
Zn265 O273 1.943 . S
O266 Zn265 1.962 . S
O266 C271 1.254 . S
O267 Zn264 2.031 . S
O267 C271 1.269 . S
O268 Zn265 1.986 . S
O268 C275 1.262 . S
O269 Zn264 2.049 . S
O269 C277 1.260 . S
O270 Zn265 1.996 . S
O270 C277 1.257 . S
C271 O266 1.254 . S
C271 O267 1.269 . S
C272 O273 1.249 . S
C272 O274 1.270 . S
O273 Zn265 1.943 . S
O273 C272 1.249 . S
O274 Zn264 2.067 . S
O274 C272 1.270 . S
C275 O268 1.262 . S
C275 O276 1.232 . S
O276 C275 1.232 . S
C277 O269 1.260 . S
C277 O270 1.257 . S
Zn278 O281 2.031 . S
Zn278 O283 2.049 . S
Zn278 O288 2.067 . S
Zn279 O280 1.962 . S
Zn279 O282 1.986 . S
Zn279 O284 1.996 . S
Zn279 O287 1.943 . S
O280 Zn279 1.962 . S
O280 C285 1.254 . S
O281 Zn278 2.031 . S
O281 C285 1.269 . S
O282 Zn279 1.986 . S
O282 C289 1.262 . S
O283 Zn278 2.049 . S
O283 C291 1.260 . S
O284 Zn279 1.996 . S
O284 C291 1.257 . S
C285 O280 1.254 . S
C285 O281 1.269 . S
C286 O287 1.249 . S
C286 O288 1.270 . S
O287 Zn279 1.943 . S
O287 C286 1.249 . S
O288 Zn278 2.067 . S
O288 C286 1.270 . S
C289 O282 1.262 . S
C289 O290 1.232 . S
O290 C289 1.232 . S
C291 O283 1.260 . S
C291 O284 1.257 . S
Zn292 O295 2.031 . S
Zn292 O297 2.049 . S
Zn292 O302 2.067 . S
Zn293 O294 1.962 . S
Zn293 O296 1.986 . S
Zn293 O298 1.996 . S
Zn293 O301 1.943 . S
O294 Zn293 1.962 . S
O294 C299 1.254 . S
O295 Zn292 2.031 . S
O295 C299 1.269 . S
O296 Zn293 1.986 . S
O296 C303 1.262 . S
O297 Zn292 2.049 . S
O297 C305 1.260 . S
O298 Zn293 1.996 . S
O298 C305 1.257 . S
C299 O294 1.254 . S
C299 O295 1.269 . S
C300 O301 1.249 . S
C300 O302 1.270 . S
O301 Zn293 1.943 . S
O301 C300 1.249 . S
O302 Zn292 2.067 . S
O302 C300 1.270 . S
C303 O296 1.262 . S
C303 O304 1.232 . S
O304 C303 1.232 . S
C305 O297 1.260 . S
C305 O298 1.257 . S
Zn306 O309 2.031 . S
Zn306 O311 2.049 . S
Zn306 O316 2.067 . S
Zn307 O308 1.962 . S
Zn307 O310 1.986 . S
Zn307 O312 1.996 1_545 S
Zn307 O315 1.943 . S
O308 Zn307 1.962 . S
O308 C313 1.254 . S
O309 Zn306 2.031 . S
O309 C313 1.269 1_565 S
O310 Zn307 1.986 . S
O310 C317 1.262 . S
O311 Zn306 2.049 . S
O311 C319 1.260 . S
O312 Zn307 1.996 1_565 S
O312 C319 1.257 . S
C313 O308 1.254 . S
C313 O309 1.269 1_545 S
C314 O315 1.249 1_565 S
C314 O316 1.270 . S
O315 Zn307 1.943 . S
O315 C314 1.249 1_545 S
O316 Zn306 2.067 . S
O316 C314 1.270 . S
C317 O310 1.262 . S
C317 O318 1.232 . S
O318 C317 1.232 . S
C319 O311 1.260 . S
C319 O312 1.257 . S
Zn320 O323 2.031 . S
Zn320 O325 2.049 1_455 S
Zn320 O330 2.067 1_455 S
Zn321 O322 1.962 . S
Zn321 O324 1.986 . S
Zn321 O326 1.996 . S
Zn321 O329 1.943 1_455 S
O322 Zn321 1.962 . S
O322 C327 1.254 . S
O323 Zn320 2.031 . S
O323 C327 1.269 . S
O324 Zn321 1.986 . S
O324 C331 1.262 . S
O325 Zn320 2.049 1_655 S
O325 C333 1.260 . S
O326 Zn321 1.996 . S
O326 C333 1.257 1_455 S
C327 O322 1.254 . S
C327 O323 1.269 . S
C328 O329 1.249 . S
C328 O330 1.270 . S
O329 Zn321 1.943 1_655 S
O329 C328 1.249 . S
O330 Zn320 2.067 1_655 S
O330 C328 1.270 . S
C331 O324 1.262 . S
C331 O332 1.232 . S
O332 C331 1.232 . S
C333 O325 1.260 . S
C333 O326 1.257 1_655 S
Zn334 O337 2.031 . S
Zn334 O339 2.049 . S
Zn334 O344 2.067 . S
Zn335 O336 1.962 . S
Zn335 O338 1.986 . S
Zn335 O340 1.996 . S
Zn335 O343 1.943 . S
O336 Zn335 1.962 . S
O336 C341 1.254 . S
O337 Zn334 2.031 . S
O337 C341 1.269 . S
O338 Zn335 1.986 . S
O338 C345 1.262 . S
O339 Zn334 2.049 . S
O339 C347 1.260 . S
O340 Zn335 1.996 . S
O340 C347 1.257 . S
C341 O336 1.254 . S
C341 O337 1.269 . S
C342 O343 1.249 . S
C342 O344 1.270 . S
O343 Zn335 1.943 . S
O343 C342 1.249 . S
O344 Zn334 2.067 . S
O344 C342 1.270 . S
C345 O338 1.262 . S
C345 O346 1.232 . S
O346 C345 1.232 . S
C347 O339 1.260 . S
C347 O340 1.257 . S
Zn348 O351 2.031 1_655 S
Zn348 O353 2.049 . S
Zn348 O358 2.067 . S
Zn349 O350 1.962 . S
Zn349 O352 1.986 . S
Zn349 O354 1.996 . S
Zn349 O357 1.943 . S
O350 Zn349 1.962 . S
O350 C355 1.254 . S
O351 Zn348 2.031 1_455 S
O351 C355 1.269 . S
O352 Zn349 1.986 . S
O352 C359 1.262 . S
O353 Zn348 2.049 . S
O353 C361 1.260 . S
O354 Zn349 1.996 . S
O354 C361 1.257 1_455 S
C355 O350 1.254 . S
C355 O351 1.269 . S
C356 O357 1.249 . S
C356 O358 1.270 1_455 S
O357 Zn349 1.943 . S
O357 C356 1.249 . S
O358 Zn348 2.067 . S
O358 C356 1.270 1_655 S
C359 O352 1.262 . S
C359 O360 1.232 . S
O360 C359 1.232 . S
C361 O353 1.260 . S
C361 O354 1.257 1_655 S
Zn362 O365 2.031 . S
Zn362 O367 2.049 . S
Zn362 O372 2.067 . S
Zn363 O364 1.962 . S
Zn363 O366 1.986 . S
Zn363 O368 1.996 . S
Zn363 O371 1.943 . S
O364 Zn363 1.962 . S
O364 C369 1.254 . S
O365 Zn362 2.031 . S
O365 C369 1.269 . S
O366 Zn363 1.986 . S
O366 C373 1.262 . S
O367 Zn362 2.049 . S
O367 C375 1.260 . S
O368 Zn363 1.996 . S
O368 C375 1.257 . S
C369 O364 1.254 . S
C369 O365 1.269 . S
C370 O371 1.249 . S
C370 O372 1.270 . S
O371 Zn363 1.943 . S
O371 C370 1.249 . S
O372 Zn362 2.067 . S
O372 C370 1.270 . S
C373 O366 1.262 . S
C373 O374 1.232 . S
O374 C373 1.232 . S
C375 O367 1.260 . S
C375 O368 1.257 . S
C376 C377 1.349 . S
C376 C378 1.327 . S
C376 H401 0.950 . S
C377 C376 1.349 . S
C377 C393 1.349 . S
C378 C376 1.327 . S
C378 C397 1.429 . S
C378 H402 0.950 . S
C379 C396 1.574 . S
C379 C398 1.368 . S
C379 H403 0.949 . S
H380 C384 0.949 . S
C381 C382 1.349 . S
C381 C383 1.327 . S
C381 H404 0.950 . S
C382 C381 1.349 . S
C382 C394 1.349 . S
C383 C381 1.327 . S
C383 C399 1.429 . S
C383 H405 0.950 . S
C384 H380 0.949 . S
C384 C392 1.574 . S
C384 C400 1.368 . S
H385 C393 0.950 . S
H386 C391 0.950 . S
H387 C392 0.949 . S
H388 C394 0.950 . S
H389 C395 0.950 . S
H390 C396 0.949 . S
C391 H386 0.950 . S
C391 C393 1.327 . S
C391 C397 1.429 . S
C392 C384 1.574 . S
C392 H387 0.949 . S
C392 C398 1.368 . S
C393 C377 1.349 . S
C393 H385 0.950 . S
C393 C391 1.327 . S
C394 C382 1.349 . S
C394 H388 0.950 . S
C394 C395 1.327 . S
C395 H389 0.950 . S
C395 C394 1.327 . S
C395 C399 1.429 . S
C396 C379 1.574 . S
C396 H390 0.949 . S
C396 C400 1.368 . S
C397 C378 1.429 . S
C397 C391 1.429 . S
C397 C398 1.523 . S
C398 C379 1.368 . S
C398 C392 1.368 . S
C398 C397 1.523 . S
C399 C383 1.429 . S
C399 C395 1.429 . S
C399 C400 1.523 . S
C400 C384 1.368 . S
C400 C396 1.368 . S
C400 C399 1.523 . S
H401 C376 0.950 . S
H402 C378 0.950 . S
H403 C379 0.949 . S
H404 C381 0.950 . S
H405 C383 0.950 . S
C406 C407 1.349 . S
C406 C408 1.327 . S
C406 H431 0.950 . S
C407 C406 1.349 . S
C407 C423 1.349 . S
C408 C406 1.327 . S
C408 C427 1.429 . S
C408 H432 0.950 . S
C409 C426 1.574 . S
C409 C428 1.368 . S
C409 H433 0.949 . S
H410 C414 0.949 . S
C411 C412 1.349 . S
C411 C413 1.327 . S
C411 H434 0.950 . S
C412 C411 1.349 . S
C412 C424 1.349 . S
C413 C411 1.327 . S
C413 C429 1.429 . S
C413 H435 0.950 . S
C414 H410 0.949 . S
C414 C422 1.574 . S
C414 C430 1.368 . S
H415 C423 0.950 1_655 S
H416 C421 0.950 . S
H417 C422 0.949 . S
H418 C424 0.950 . S
H419 C425 0.950 . S
H420 C426 0.949 . S
C421 H416 0.950 . S
C421 C423 1.327 . S
C421 C427 1.429 . S
C422 C414 1.574 . S
C422 H417 0.949 . S
C422 C428 1.368 . S
C423 C407 1.349 . S
C423 H415 0.950 1_455 S
C423 C421 1.327 . S
C424 C412 1.349 . S
C424 H418 0.950 . S
C424 C425 1.327 . S
C425 H419 0.950 . S
C425 C424 1.327 . S
C425 C429 1.429 . S
C426 C409 1.574 . S
C426 H420 0.949 . S
C426 C430 1.368 . S
C427 C408 1.429 . S
C427 C421 1.429 . S
C427 C428 1.523 . S
C428 C409 1.368 . S
C428 C422 1.368 . S
C428 C427 1.523 . S
C429 C413 1.429 . S
C429 C425 1.429 . S
C429 C430 1.523 . S
C430 C414 1.368 . S
C430 C426 1.368 . S
C430 C429 1.523 . S
H431 C406 0.950 . S
H432 C408 0.950 . S
H433 C409 0.949 . S
H434 C411 0.950 . S
H435 C413 0.950 . S
C436 C437 1.349 . S
C436 C438 1.327 . S
C436 H461 0.950 . S
C437 C436 1.349 . S
C437 C453 1.349 . S
C438 C436 1.327 . S
C438 C457 1.429 . S
C438 H462 0.950 . S
C439 C456 1.574 . S
C439 C458 1.368 . S
C439 H463 0.949 . S
H440 C444 0.949 . S
C441 C442 1.349 . S
C441 C443 1.327 . S
C441 H464 0.950 . S
C442 C441 1.349 . S
C442 C454 1.349 . S
C443 C441 1.327 . S
C443 C459 1.429 . S
C443 H465 0.950 . S
C444 H440 0.949 . S
C444 C452 1.574 . S
C444 C460 1.368 . S
H445 C453 0.950 . S
H446 C451 0.950 . S
H447 C452 0.949 . S
H448 C454 0.950 . S
H449 C455 0.950 . S
H450 C456 0.949 . S
C451 H446 0.950 . S
C451 C453 1.327 . S
C451 C457 1.429 . S
C452 C444 1.574 . S
C452 H447 0.949 . S
C452 C458 1.368 . S
C453 C437 1.349 . S
C453 H445 0.950 . S
C453 C451 1.327 . S
C454 C442 1.349 . S
C454 H448 0.950 . S
C454 C455 1.327 . S
C455 H449 0.950 . S
C455 C454 1.327 . S
C455 C459 1.429 . S
C456 C439 1.574 . S
C456 H450 0.949 . S
C456 C460 1.368 . S
C457 C438 1.429 . S
C457 C451 1.429 . S
C457 C458 1.523 . S
C458 C439 1.368 . S
C458 C452 1.368 . S
C458 C457 1.523 . S
C459 C443 1.429 . S
C459 C455 1.429 . S
C459 C460 1.523 . S
C460 C444 1.368 . S
C460 C456 1.368 . S
C460 C459 1.523 . S
H461 C436 0.950 . S
H462 C438 0.950 . S
H463 C439 0.949 . S
H464 C441 0.950 . S
H465 C443 0.950 . S
C466 C467 1.349 . S
C466 C468 1.327 . S
C466 H491 0.950 . S
C467 C466 1.349 . S
C467 C483 1.349 . S
C468 C466 1.327 . S
C468 C487 1.429 1_455 S
C468 H492 0.955 . S
C469 C486 1.574 . S
C469 C488 1.368 . S
C469 H493 0.949 . S
H470 C474 0.949 . S
C471 C472 1.349 1_565 S
C471 C473 1.327 . S
C471 H494 0.950 . S
C472 C471 1.349 1_545 S
C472 C484 1.349 . S
C473 C471 1.327 . S
C473 C489 1.429 . S
C473 H495 0.950 . S
C474 H470 0.949 . S
C474 C482 1.574 1_545 S
C474 C490 1.368 1_545 S
H475 C483 0.950 . S
H476 C481 0.938 1_655 S
H477 C482 0.949 1_545 S
H478 C484 0.950 . S
H479 C485 0.950 . S
H480 C486 0.949 . S
C481 H476 0.938 1_455 S
C481 C483 1.327 . S
C481 C487 1.429 1_455 S
C482 C474 1.574 1_565 S
C482 H477 0.949 1_565 S
C482 C488 1.368 . S
C483 C467 1.349 . S
C483 H475 0.950 . S
C483 C481 1.327 . S
C484 C472 1.349 . S
C484 H478 0.950 . S
C484 C485 1.327 . S
C485 H479 0.950 . S
C485 C484 1.327 . S
C485 C489 1.429 1_545 S
C486 C469 1.574 . S
C486 H480 0.949 . S
C486 C490 1.368 . S
C487 C468 1.429 1_655 S
C487 C481 1.429 1_655 S
C487 C488 1.523 . S
C488 C469 1.368 . S
C488 C482 1.368 . S
C488 C487 1.523 . S
C489 C473 1.429 . S
C489 C485 1.429 1_565 S
C489 C490 1.523 . S
C490 C474 1.368 1_565 S
C490 C486 1.368 . S
C490 C489 1.523 . S
H491 C466 0.950 . S
H492 C468 0.955 . S
H493 C469 0.949 . S
H494 C471 0.950 . S
H495 C473 0.950 . S
C496 C497 1.349 . S
C496 C498 1.327 . S
C496 H521 0.950 . S
C497 C496 1.349 . S
C497 C513 1.349 . S
C498 C496 1.327 . S
C498 C517 1.429 . S
C498 H522 0.950 . S
C499 C516 1.574 . S
C499 C518 1.368 . S
C499 H523 0.949 . S
H500 C504 0.949 . S
C501 C502 1.349 . S
C501 C503 1.327 . S
C501 H524 0.950 . S
C502 C501 1.349 . S
C502 C514 1.349 . S
C503 C501 1.327 . S
C503 C519 1.429 . S
C503 H525 0.950 . S
C504 H500 0.949 . S
C504 C512 1.574 . S
C504 C520 1.368 . S
H505 C513 0.950 . S
H506 C511 0.950 . S
H507 C512 0.949 . S
H508 C514 0.950 . S
H509 C515 0.950 . S
H510 C516 0.949 . S
C511 H506 0.950 . S
C511 C513 1.327 . S
C511 C517 1.429 . S
C512 C504 1.574 . S
C512 H507 0.949 . S
C512 C518 1.368 . S
C513 C497 1.349 . S
C513 H505 0.950 . S
C513 C511 1.327 . S
C514 C502 1.349 . S
C514 H508 0.950 . S
C514 C515 1.327 . S
C515 H509 0.950 . S
C515 C514 1.327 . S
C515 C519 1.429 . S
C516 C499 1.574 . S
C516 H510 0.949 . S
C516 C520 1.368 . S
C517 C498 1.429 . S
C517 C511 1.429 . S
C517 C518 1.523 . S
C518 C499 1.368 . S
C518 C512 1.368 . S
C518 C517 1.523 . S
C519 C503 1.429 . S
C519 C515 1.429 . S
C519 C520 1.523 . S
C520 C504 1.368 . S
C520 C516 1.368 . S
C520 C519 1.523 . S
H521 C496 0.950 . S
H522 C498 0.950 . S
H523 C499 0.949 . S
H524 C501 0.950 . S
H525 C503 0.950 . S
C526 C527 1.349 . S
C526 C528 1.327 . S
C526 H551 0.950 . S
C527 C526 1.349 . S
C527 C543 1.349 . S
C528 C526 1.327 . S
C528 C547 1.429 . S
C528 H552 0.950 . S
C529 C546 1.574 . S
C529 C548 1.368 . S
C529 H553 0.949 . S
H530 C534 0.949 . S
C531 C532 1.349 . S
C531 C533 1.327 . S
C531 H554 0.950 . S
C532 C531 1.349 . S
C532 C544 1.349 . S
C533 C531 1.327 . S
C533 C549 1.429 . S
C533 H555 0.950 . S
C534 H530 0.949 . S
C534 C542 1.574 . S
C534 C550 1.368 . S
H535 C543 0.950 . S
H536 C541 0.950 . S
H537 C542 0.949 . S
H538 C544 0.950 . S
H539 C545 0.950 . S
H540 C546 0.949 . S
C541 H536 0.950 . S
C541 C543 1.327 . S
C541 C547 1.429 . S
C542 C534 1.574 . S
C542 H537 0.949 . S
C542 C548 1.368 . S
C543 C527 1.349 . S
C543 H535 0.950 . S
C543 C541 1.327 . S
C544 C532 1.349 . S
C544 H538 0.950 . S
C544 C545 1.327 . S
C545 H539 0.950 . S
C545 C544 1.327 . S
C545 C549 1.429 . S
C546 C529 1.574 . S
C546 H540 0.949 . S
C546 C550 1.368 . S
C547 C528 1.429 . S
C547 C541 1.429 . S
C547 C548 1.523 . S
C548 C529 1.368 . S
C548 C542 1.368 . S
C548 C547 1.523 . S
C549 C533 1.429 . S
C549 C545 1.429 . S
C549 C550 1.523 . S
C550 C534 1.368 . S
C550 C546 1.368 . S
C550 C549 1.523 . S
H551 C526 0.950 . S
H552 C528 0.950 . S
H553 C529 0.949 . S
H554 C531 0.950 . S
H555 C533 0.950 . S
C556 C557 1.349 . S
C556 C558 1.327 . S
C556 H581 0.950 . S
C557 C556 1.349 . S
C557 C573 1.349 . S
C558 C556 1.327 . S
C558 C577 1.429 . S
C558 H582 0.950 . S
C559 C576 1.574 . S
C559 C578 1.368 . S
C559 H583 0.949 . S
H560 C564 0.949 . S
C561 C562 1.349 . S
C561 C563 1.327 . S
C561 H584 0.950 . S
C562 C561 1.349 . S
C562 C574 1.349 . S
C563 C561 1.327 . S
C563 C579 1.429 . S
C563 H585 0.950 . S
C564 H560 0.949 . S
C564 C572 1.574 . S
C564 C580 1.368 . S
H565 C573 0.950 . S
H566 C571 0.950 . S
H567 C572 0.949 . S
H568 C574 0.950 . S
H569 C575 0.950 . S
H570 C576 0.949 . S
C571 H566 0.950 . S
C571 C573 1.327 . S
C571 C577 1.429 . S
C572 C564 1.574 . S
C572 H567 0.949 . S
C572 C578 1.368 . S
C573 C557 1.349 . S
C573 H565 0.950 . S
C573 C571 1.327 . S
C574 C562 1.349 . S
C574 H568 0.950 . S
C574 C575 1.327 . S
C575 H569 0.950 . S
C575 C574 1.327 . S
C575 C579 1.429 . S
C576 C559 1.574 . S
C576 H570 0.949 . S
C576 C580 1.368 . S
C577 C558 1.429 . S
C577 C571 1.429 . S
C577 C578 1.523 . S
C578 C559 1.368 . S
C578 C572 1.368 . S
C578 C577 1.523 . S
C579 C563 1.429 . S
C579 C575 1.429 . S
C579 C580 1.523 . S
C580 C564 1.368 . S
C580 C576 1.368 . S
C580 C579 1.523 . S
H581 C556 0.950 . S
H582 C558 0.950 . S
H583 C559 0.949 . S
H584 C561 0.950 . S
H585 C563 0.950 . S
C586 C587 1.349 . S
C586 C588 1.327 . S
C586 H611 0.950 . S
C587 C586 1.349 . S
C587 C603 1.349 . S
C588 C586 1.327 . S
C588 C607 1.429 . S
C588 H612 0.950 . S
C589 C606 1.574 . S
C589 C608 1.368 . S
C589 H613 0.949 . S
H590 C594 0.951 . S
C591 C592 1.349 . S
C591 C593 1.327 . S
C591 H614 0.950 . S
C592 C591 1.349 . S
C592 C604 1.393 . S
C593 C591 1.327 . S
C593 C609 1.429 . S
C593 H615 0.950 . S
C594 H590 0.951 . S
C594 C602 1.574 . S
C594 C610 1.368 . S
H595 C603 0.950 . S
H596 C601 0.950 . S
H597 C602 0.949 . S
H598 C604 0.900 1_545 S
H599 C605 0.950 1_545 S
H600 C606 0.949 . S
C601 H596 0.950 . S
C601 C603 1.327 . S
C601 C607 1.429 . S
C602 C594 1.574 . S
C602 H597 0.949 . S
C602 C608 1.368 . S
C603 C587 1.349 . S
C603 H595 0.950 . S
C603 C601 1.327 . S
C604 C592 1.393 . S
C604 H598 0.900 1_565 S
C604 C605 1.335 . S
C605 H599 0.950 1_565 S
C605 C604 1.335 . S
C605 C609 1.429 . S
C606 C589 1.574 . S
C606 H600 0.949 . S
C606 C610 1.368 . S
C607 C588 1.429 . S
C607 C601 1.429 . S
C607 C608 1.523 . S
C608 C589 1.368 . S
C608 C602 1.368 . S
C608 C607 1.523 . S
C609 C593 1.429 . S
C609 C605 1.429 . S
C609 C610 1.523 . S
C610 C594 1.368 . S
C610 C606 1.368 . S
C610 C609 1.523 . S
H611 C586 0.950 . S
H612 C588 0.950 . S
H613 C589 0.949 . S
H614 C591 0.950 . S
H615 C593 0.950 . S
C616 C617 1.349 . S
C616 C618 1.327 . S
C616 H641 0.950 . S
C617 C616 1.349 . S
C617 C633 1.349 . S
C618 C616 1.327 . S
C618 C637 1.429 . S
C618 H642 0.950 . S
C619 C636 1.574 . S
C619 C638 1.368 . S
C619 H643 0.949 . S
H620 C624 0.949 . S
C621 C622 1.349 . S
C621 C623 1.327 . S
C621 H644 0.950 . S
C622 C621 1.349 . S
C622 C634 1.349 . S
C623 C621 1.327 . S
C623 C639 1.429 . S
C623 H645 0.950 . S
C624 H620 0.949 . S
C624 C632 1.574 . S
C624 C640 1.368 . S
H625 C633 0.950 . S
H626 C631 0.950 . S
H627 C632 0.949 . S
H628 C634 0.950 . S
H629 C635 0.950 . S
H630 C636 0.949 . S
C631 H626 0.950 . S
C631 C633 1.327 . S
C631 C637 1.429 . S
C632 C624 1.574 . S
C632 H627 0.949 . S
C632 C638 1.368 . S
C633 C617 1.349 . S
C633 H625 0.950 . S
C633 C631 1.327 . S
C634 C622 1.349 . S
C634 H628 0.950 . S
C634 C635 1.327 . S
C635 H629 0.950 . S
C635 C634 1.327 . S
C635 C639 1.429 . S
C636 C619 1.574 . S
C636 H630 0.949 . S
C636 C640 1.368 . S
C637 C618 1.429 . S
C637 C631 1.429 . S
C637 C638 1.523 . S
C638 C619 1.368 . S
C638 C632 1.368 . S
C638 C637 1.523 . S
C639 C623 1.429 . S
C639 C635 1.429 . S
C639 C640 1.523 . S
C640 C624 1.368 . S
C640 C636 1.368 . S
C640 C639 1.523 . S
H641 C616 0.950 . S
H642 C618 0.950 . S
H643 C619 0.949 . S
H644 C621 0.950 . S
H645 C623 0.950 . S
C646 C647 1.349 . S
C646 C648 1.327 . S
C646 H671 0.950 . S
C647 C646 1.349 . S
C647 C663 1.349 . S
C648 C646 1.327 . S
C648 C667 1.429 . S
C648 H672 0.950 . S
C649 C666 1.574 . S
C649 C668 1.368 . S
C649 H673 0.949 . S
H650 C654 0.949 . S
C651 C652 1.349 . S
C651 C653 1.327 . S
C651 H674 0.950 . S
C652 C651 1.349 . S
C652 C664 1.349 . S
C653 C651 1.327 . S
C653 C669 1.429 . S
C653 H675 0.950 . S
C654 H650 0.949 . S
C654 C662 1.574 . S
C654 C670 1.368 . S
H655 C663 0.950 . S
H656 C661 0.950 . S
H657 C662 0.949 . S
H658 C664 0.950 . S
H659 C665 0.950 . S
H660 C666 0.949 . S
C661 H656 0.950 . S
C661 C663 1.327 . S
C661 C667 1.429 . S
C662 C654 1.574 . S
C662 H657 0.949 . S
C662 C668 1.368 . S
C663 C647 1.349 . S
C663 H655 0.950 . S
C663 C661 1.327 . S
C664 C652 1.349 . S
C664 H658 0.950 . S
C664 C665 1.327 . S
C665 H659 0.950 . S
C665 C664 1.327 . S
C665 C669 1.429 . S
C666 C649 1.574 . S
C666 H660 0.949 . S
C666 C670 1.368 . S
C667 C648 1.429 . S
C667 C661 1.429 . S
C667 C668 1.523 . S
C668 C649 1.368 . S
C668 C662 1.368 . S
C668 C667 1.523 . S
C669 C653 1.429 . S
C669 C665 1.429 . S
C669 C670 1.523 . S
C670 C654 1.368 . S
C670 C666 1.368 . S
C670 C669 1.523 . S
H671 C646 0.950 . S
H672 C648 0.950 . S
H673 C649 0.949 . S
H674 C651 0.950 . S
H675 C653 0.950 . S
C676 C677 1.349 . S
C676 C678 1.327 . S
C676 H701 0.950 . S
C677 C676 1.349 . S
C677 C693 1.349 . S
C678 C676 1.327 . S
C678 C697 1.429 . S
C678 H702 0.950 . S
C679 C696 1.574 . S
C679 C698 1.368 . S
C679 H703 0.949 . S
H680 C684 0.949 . S
C681 C682 1.349 . S
C681 C683 1.327 . S
C681 H704 0.950 . S
C682 C681 1.349 . S
C682 C694 1.349 . S
C683 C681 1.327 . S
C683 C699 1.429 . S
C683 H705 0.950 . S
C684 H680 0.949 . S
C684 C692 1.574 . S
C684 C700 1.368 . S
H685 C693 0.950 . S
H686 C691 0.950 . S
H687 C692 0.949 . S
H688 C694 0.950 . S
H689 C695 0.950 . S
H690 C696 0.949 . S
C691 H686 0.950 . S
C691 C693 1.327 . S
C691 C697 1.429 . S
C692 C684 1.574 . S
C692 H687 0.949 . S
C692 C698 1.368 . S
C693 C677 1.349 . S
C693 H685 0.950 . S
C693 C691 1.327 . S
C694 C682 1.349 . S
C694 H688 0.950 . S
C694 C695 1.327 . S
C695 H689 0.950 . S
C695 C694 1.327 . S
C695 C699 1.429 . S
C696 C679 1.574 . S
C696 H690 0.949 . S
C696 C700 1.368 . S
C697 C678 1.429 . S
C697 C691 1.429 . S
C697 C698 1.523 . S
C698 C679 1.368 . S
C698 C692 1.368 . S
C698 C697 1.523 . S
C699 C683 1.429 . S
C699 C695 1.429 . S
C699 C700 1.523 . S
C700 C684 1.368 . S
C700 C696 1.368 . S
C700 C699 1.523 . S
H701 C676 0.950 . S
H702 C678 0.950 . S
H703 C679 0.949 . S
H704 C681 0.950 . S
H705 C683 0.950 . S
C706 C707 1.349 . S
C706 C708 1.327 . S
C706 H731 0.950 . S
C707 C706 1.349 . S
C707 C723 1.349 . S
C708 C706 1.327 . S
C708 C727 1.429 . S
C708 H732 0.950 . S
C709 C726 1.574 . S
C709 C728 1.368 . S
C709 H733 0.949 . S
H710 C714 0.949 . S
C711 C712 1.349 . S
C711 C713 1.327 . S
C711 H734 0.950 . S
C712 C711 1.349 . S
C712 C724 1.349 . S
C713 C711 1.327 . S
C713 C729 1.429 . S
C713 H735 0.950 . S
C714 H710 0.949 . S
C714 C722 1.574 . S
C714 C730 1.368 . S
H715 C723 0.950 . S
H716 C721 0.950 . S
H717 C722 0.949 . S
H718 C724 0.950 . S
H719 C725 0.950 . S
H720 C726 0.949 . S
C721 H716 0.950 . S
C721 C723 1.327 . S
C721 C727 1.429 . S
C722 C714 1.574 . S
C722 H717 0.949 . S
C722 C728 1.368 . S
C723 C707 1.349 . S
C723 H715 0.950 . S
C723 C721 1.327 . S
C724 C712 1.349 . S
C724 H718 0.950 . S
C724 C725 1.327 . S
C725 H719 0.950 . S
C725 C724 1.327 . S
C725 C729 1.429 . S
C726 C709 1.574 . S
C726 H720 0.949 . S
C726 C730 1.368 . S
C727 C708 1.429 . S
C727 C721 1.429 . S
C727 C728 1.523 . S
C728 C709 1.368 . S
C728 C722 1.368 . S
C728 C727 1.523 . S
C729 C713 1.429 . S
C729 C725 1.429 . S
C729 C730 1.523 . S
C730 C714 1.368 . S
C730 C726 1.368 . S
C730 C729 1.523 . S
H731 C706 0.950 . S
H732 C708 0.950 . S
H733 C709 0.949 . S
H734 C711 0.950 . S
H735 C713 0.950 . S
C736 C737 1.349 . S
C736 C738 1.327 . S
C736 H761 0.950 . S
C737 C736 1.349 . S
C737 C753 1.349 . S
C738 C736 1.327 . S
C738 C757 1.429 . S
C738 H762 0.950 . S
C739 C756 1.574 . S
C739 C758 1.368 . S
C739 H763 0.949 . S
H740 C744 0.949 . S
C741 C742 1.349 . S
C741 C743 1.327 . S
C741 H764 0.950 . S
C742 C741 1.349 . S
C742 C754 1.349 . S
C743 C741 1.327 . S
C743 C759 1.429 . S
C743 H765 0.950 . S
C744 H740 0.949 . S
C744 C752 1.574 . S
C744 C760 1.368 . S
H745 C753 0.950 . S
H746 C751 0.950 . S
H747 C752 0.949 . S
H748 C754 0.950 . S
H749 C755 0.950 . S
H750 C756 0.949 . S
C751 H746 0.950 . S
C751 C753 1.327 . S
C751 C757 1.429 . S
C752 C744 1.574 . S
C752 H747 0.949 . S
C752 C758 1.368 . S
C753 C737 1.349 . S
C753 H745 0.950 . S
C753 C751 1.327 . S
C754 C742 1.349 . S
C754 H748 0.950 . S
C754 C755 1.327 . S
C755 H749 0.950 . S
C755 C754 1.327 . S
C755 C759 1.429 . S
C756 C739 1.574 . S
C756 H750 0.949 . S
C756 C760 1.368 . S
C757 C738 1.429 . S
C757 C751 1.429 . S
C757 C758 1.523 . S
C758 C739 1.368 . S
C758 C752 1.368 . S
C758 C757 1.523 . S
C759 C743 1.429 . S
C759 C755 1.429 . S
C759 C760 1.523 . S
C760 C744 1.368 . S
C760 C756 1.368 . S
C760 C759 1.523 . S
H761 C736 0.950 . S
H762 C738 0.950 . S
H763 C739 0.949 . S
H764 C741 0.950 . S
H765 C743 0.950 . S
C766 C767 1.349 . S
C766 C768 1.327 . S
C766 H791 0.950 . S
C767 C766 1.349 . S
C767 C783 1.349 . S
C768 C766 1.327 . S
C768 C787 1.429 . S
C768 H792 0.950 . S
C769 C786 1.574 . S
C769 C788 1.368 . S
C769 H793 0.949 . S
H770 C774 0.949 . S
C771 C772 1.349 . S
C771 C773 1.327 . S
C771 H794 0.950 . S
C772 C771 1.349 . S
C772 C784 1.349 . S
C773 C771 1.327 . S
C773 C789 1.429 . S
C773 H795 0.950 . S
C774 H770 0.949 . S
C774 C782 1.574 . S
C774 C790 1.368 . S
H775 C783 0.950 . S
H776 C781 0.950 . S
H777 C782 0.949 . S
H778 C784 0.950 . S
H779 C785 0.950 . S
H780 C786 0.949 . S
C781 H776 0.950 . S
C781 C783 1.327 . S
C781 C787 1.429 . S
C782 C774 1.574 . S
C782 H777 0.949 . S
C782 C788 1.368 . S
C783 C767 1.349 . S
C783 H775 0.950 . S
C783 C781 1.327 . S
C784 C772 1.349 . S
C784 H778 0.950 . S
C784 C785 1.327 . S
C785 H779 0.950 . S
C785 C784 1.327 . S
C785 C789 1.429 . S
C786 C769 1.574 . S
C786 H780 0.949 . S
C786 C790 1.368 . S
C787 C768 1.429 . S
C787 C781 1.429 . S
C787 C788 1.523 . S
C788 C769 1.368 . S
C788 C782 1.368 . S
C788 C787 1.523 . S
C789 C773 1.429 . S
C789 C785 1.429 . S
C789 C790 1.523 . S
C790 C774 1.368 . S
C790 C786 1.368 . S
C790 C789 1.523 . S
H791 C766 0.950 . S
H792 C768 0.950 . S
H793 C769 0.949 . S
H794 C771 0.950 . S
H795 C773 0.950 . S
C796 C797 1.349 . S
C796 C798 1.327 . S
C796 H821 0.950 . S
C797 C796 1.349 . S
C797 C813 1.349 . S
C798 C796 1.327 . S
C798 C817 1.429 . S
C798 H822 0.950 . S
C799 C816 1.574 . S
C799 C818 1.368 . S
C799 H823 0.949 . S
H800 C804 0.949 . S
C801 C802 1.349 . S
C801 C803 1.327 . S
C801 H824 0.950 . S
C802 C801 1.349 . S
C802 C814 1.349 . S
C803 C801 1.327 . S
C803 C819 1.429 . S
C803 H825 0.950 . S
C804 H800 0.949 . S
C804 C812 1.574 . S
C804 C820 1.368 . S
H805 C813 0.950 . S
H806 C811 0.950 . S
H807 C812 0.949 . S
H808 C814 0.950 . S
H809 C815 0.950 . S
H810 C816 0.949 . S
C811 H806 0.950 . S
C811 C813 1.327 . S
C811 C817 1.429 . S
C812 C804 1.574 . S
C812 H807 0.949 . S
C812 C818 1.368 . S
C813 C797 1.349 . S
C813 H805 0.950 . S
C813 C811 1.327 . S
C814 C802 1.349 . S
C814 H808 0.950 . S
C814 C815 1.327 . S
C815 H809 0.950 . S
C815 C814 1.327 . S
C815 C819 1.429 . S
C816 C799 1.574 . S
C816 H810 0.949 . S
C816 C820 1.368 . S
C817 C798 1.429 . S
C817 C811 1.429 . S
C817 C818 1.523 . S
C818 C799 1.368 . S
C818 C812 1.368 . S
C818 C817 1.523 . S
C819 C803 1.429 . S
C819 C815 1.429 . S
C819 C820 1.523 . S
C820 C804 1.368 . S
C820 C816 1.368 . S
C820 C819 1.523 . S
H821 C796 0.950 . S
H822 C798 0.950 . S
H823 C799 0.949 . S
H824 C801 0.950 . S
H825 C803 0.950 . S
C826 C827 1.349 . S
C826 C828 1.327 . S
C826 H851 0.946 . S
C827 C826 1.349 . S
C827 C843 1.349 . S
C828 C826 1.327 . S
C828 C847 1.429 . S
C828 H852 0.950 1_655 S
C829 C846 1.574 . S
C829 C848 1.368 . S
C829 H853 0.949 . S
H830 C834 0.949 . S
C831 C832 1.349 1_655 S
C831 C833 1.327 . S
C831 H854 0.950 . S
C832 C831 1.349 1_455 S
C832 C844 1.349 . S
C833 C831 1.327 . S
C833 C849 1.402 1_655 S
C833 H855 0.950 . S
C834 H830 0.949 . S
C834 C842 1.574 . S
C834 C850 1.368 1_455 S
H835 C843 0.950 . S
H836 C841 0.950 . S
H837 C842 0.949 . S
H838 C844 0.950 . S
H839 C845 0.950 . S
H840 C846 0.949 . S
C841 H836 0.950 . S
C841 C843 1.327 . S
C841 C847 1.429 . S
C842 C834 1.574 . S
C842 H837 0.949 . S
C842 C848 1.368 1_455 S
C843 C827 1.349 . S
C843 H835 0.950 . S
C843 C841 1.327 . S
C844 C832 1.349 . S
C844 H838 0.950 . S
C844 C845 1.327 . S
C845 H839 0.950 . S
C845 C844 1.327 . S
C845 C849 1.457 . S
C846 C829 1.574 . S
C846 H840 0.949 . S
C846 C850 1.368 . S
C847 C828 1.429 . S
C847 C841 1.429 . S
C847 C848 1.523 . S
C848 C829 1.368 . S
C848 C842 1.368 1_655 S
C848 C847 1.523 . S
C849 C833 1.402 1_455 S
C849 C845 1.457 . S
C849 C850 1.522 1_455 S
C850 C834 1.368 1_655 S
C850 C846 1.368 . S
C850 C849 1.522 1_655 S
H851 C826 0.946 . S
H852 C828 0.950 1_455 S
H853 C829 0.949 . S
H854 C831 0.950 . S
H855 C833 0.950 . S
C856 C857 1.349 . S
C856 C858 1.327 . S
C856 H881 0.950 . S
C857 C856 1.349 . S
C857 C873 1.349 . S
C858 C856 1.327 . S
C858 C877 1.429 . S
C858 H882 0.950 . S
C859 C876 1.574 . S
C859 C878 1.368 . S
C859 H883 0.949 . S
H860 C864 0.949 . S
C861 C862 1.349 . S
C861 C863 1.327 . S
C861 H884 0.950 . S
C862 C861 1.349 . S
C862 C874 1.349 . S
C863 C861 1.327 . S
C863 C879 1.429 . S
C863 H885 0.950 . S
C864 H860 0.949 . S
C864 C872 1.574 . S
C864 C880 1.368 . S
H865 C873 0.950 . S
H866 C871 0.950 . S
H867 C872 0.949 . S
H868 C874 0.950 . S
H869 C875 0.950 . S
H870 C876 0.949 . S
C871 H866 0.950 . S
C871 C873 1.327 . S
C871 C877 1.429 . S
C872 C864 1.574 . S
C872 H867 0.949 . S
C872 C878 1.368 . S
C873 C857 1.349 . S
C873 H865 0.950 . S
C873 C871 1.327 . S
C874 C862 1.349 . S
C874 H868 0.950 . S
C874 C875 1.327 . S
C875 H869 0.950 . S
C875 C874 1.327 . S
C875 C879 1.429 . S
C876 C859 1.574 . S
C876 H870 0.949 . S
C876 C880 1.368 . S
C877 C858 1.429 . S
C877 C871 1.429 . S
C877 C878 1.523 . S
C878 C859 1.368 . S
C878 C872 1.368 . S
C878 C877 1.523 . S
C879 C863 1.429 . S
C879 C875 1.429 . S
C879 C880 1.523 . S
C880 C864 1.368 . S
C880 C876 1.368 . S
C880 C879 1.523 . S
H881 C856 0.950 . S
H882 C858 0.950 . S
H883 C859 0.949 . S
H884 C861 0.950 . S
H885 C863 0.950 . S
C886 C887 1.349 . S
C886 C888 1.327 . S
C886 H911 0.950 . S
C887 C886 1.349 . S
C887 C903 1.349 . S
C888 C886 1.327 . S
C888 C907 1.429 . S
C888 H912 0.950 . S
C889 C906 1.574 . S
C889 C908 1.368 . S
C889 H913 0.949 . S
H890 C894 0.949 . S
C891 C892 1.349 . S
C891 C893 1.327 . S
C891 H914 0.950 . S
C892 C891 1.349 . S
C892 C904 1.349 . S
C893 C891 1.327 . S
C893 C909 1.429 . S
C893 H915 0.950 . S
C894 H890 0.949 . S
C894 C902 1.574 . S
C894 C910 1.368 . S
H895 C903 0.950 . S
H896 C901 0.950 . S
H897 C902 0.949 . S
H898 C904 0.950 . S
H899 C905 0.950 . S
H900 C906 0.949 . S
C901 H896 0.950 . S
C901 C903 1.327 . S
C901 C907 1.429 . S
C902 C894 1.574 . S
C902 H897 0.949 . S
C902 C908 1.368 . S
C903 C887 1.349 . S
C903 H895 0.950 . S
C903 C901 1.327 . S
C904 C892 1.349 . S
C904 H898 0.950 . S
C904 C905 1.327 . S
C905 H899 0.950 . S
C905 C904 1.327 . S
C905 C909 1.429 . S
C906 C889 1.574 . S
C906 H900 0.949 . S
C906 C910 1.368 . S
C907 C888 1.429 . S
C907 C901 1.429 . S
C907 C908 1.523 . S
C908 C889 1.368 . S
C908 C902 1.368 . S
C908 C907 1.523 . S
C909 C893 1.429 . S
C909 C905 1.429 . S
C909 C910 1.523 . S
C910 C894 1.368 . S
C910 C906 1.368 . S
C910 C909 1.523 . S
H911 C886 0.950 . S
H912 C888 0.950 . S
H913 C889 0.949 . S
H914 C891 0.950 . S
H915 C893 0.950 . S
C916 C917 1.349 . S
C916 C918 1.327 . S
C916 H941 0.950 . S
C917 C916 1.349 . S
C917 C933 1.349 . S
C918 C916 1.327 . S
C918 C937 1.429 . S
C918 H942 0.997 . S
C919 C936 1.574 . S
C919 C938 1.368 1_565 S
C919 H943 0.949 . S
H920 C924 0.949 1_554 S
C921 C922 1.349 . S
C921 C923 1.327 . S
C921 H944 0.950 . S
C922 C921 1.349 . S
C922 C934 1.349 1_556 S
C923 C921 1.327 . S
C923 C939 1.429 . S
C923 H945 0.950 . S
C924 H920 0.949 1_556 S
C924 C932 1.574 1_565 S
C924 C940 1.368 . S
H925 C933 0.950 . S
H926 C931 0.950 . S
H927 C932 0.949 1_554 S
H928 C934 0.950 . S
H929 C935 0.946 . S
H930 C936 0.949 . S
C931 H926 0.950 . S
C931 C933 1.327 . S
C931 C937 1.429 . S
C932 C924 1.574 1_545 S
C932 H927 0.949 1_556 S
C932 C938 1.368 . S
C933 C917 1.349 . S
C933 H925 0.950 . S
C933 C931 1.327 . S
C934 C922 1.349 1_554 S
C934 H928 0.950 . S
C934 C935 1.327 . S
C935 H929 0.946 . S
C935 C934 1.327 . S
C935 C939 1.432 1_554 S
C936 C919 1.574 . S
C936 H930 0.949 . S
C936 C940 1.368 . S
C937 C918 1.429 . S
C937 C931 1.429 . S
C937 C938 1.523 . S
C938 C919 1.368 1_545 S
C938 C932 1.368 . S
C938 C937 1.523 . S
C939 C923 1.429 . S
C939 C935 1.432 1_556 S
C939 C940 1.523 . S
C940 C924 1.368 . S
C940 C936 1.368 . S
C940 C939 1.523 . S
H941 C916 0.950 . S
H942 C918 0.997 . S
H943 C919 0.949 . S
H944 C921 0.950 . S
H945 C923 0.950 . S
C946 C947 1.349 . S
C946 C948 1.327 . S
C946 H971 0.950 . S
C947 C946 1.349 . S
C947 C963 1.349 . S
C948 C946 1.327 . S
C948 C967 1.429 . S
C948 H972 0.950 . S
C949 C966 1.574 . S
C949 C968 1.368 . S
C949 H973 0.949 . S
H950 C954 0.949 . S
C951 C952 1.349 . S
C951 C953 1.327 . S
C951 H974 0.950 . S
C952 C951 1.349 . S
C952 C964 1.349 . S
C953 C951 1.327 . S
C953 C969 1.429 . S
C953 H975 0.950 . S
C954 H950 0.949 . S
C954 C962 1.574 . S
C954 C970 1.368 . S
H955 C963 0.950 . S
H956 C961 0.950 . S
H957 C962 0.949 . S
H958 C964 0.950 . S
H959 C965 0.950 . S
H960 C966 0.949 . S
C961 H956 0.950 . S
C961 C963 1.327 . S
C961 C967 1.429 . S
C962 C954 1.574 . S
C962 H957 0.949 . S
C962 C968 1.368 . S
C963 C947 1.349 . S
C963 H955 0.950 . S
C963 C961 1.327 . S
C964 C952 1.349 . S
C964 H958 0.950 . S
C964 C965 1.327 . S
C965 H959 0.950 . S
C965 C964 1.327 . S
C965 C969 1.429 . S
C966 C949 1.574 . S
C966 H960 0.949 . S
C966 C970 1.368 . S
C967 C948 1.429 . S
C967 C961 1.429 . S
C967 C968 1.523 . S
C968 C949 1.368 . S
C968 C962 1.368 . S
C968 C967 1.523 . S
C969 C953 1.429 . S
C969 C965 1.429 . S
C969 C970 1.523 . S
C970 C954 1.368 . S
C970 C966 1.368 . S
C970 C969 1.523 . S
H971 C946 0.950 . S
H972 C948 0.950 . S
H973 C949 0.949 . S
H974 C951 0.950 . S
H975 C953 0.950 . S
C976 C977 1.349 . S
C976 C978 1.327 . S
C976 H1001 0.950 . S
C977 C976 1.349 . S
C977 C993 1.346 . S
C978 C976 1.327 . S
C978 C997 1.429 1_565 S
C978 H1002 0.950 . S
C979 C996 1.574 . S
C979 C998 1.368 . S
C979 H1003 0.949 . S
H980 C984 0.949 . S
C981 C982 1.349 . S
C981 C983 1.327 . S
C981 H1004 0.950 . S
C982 C981 1.349 . S
C982 C994 1.349 . S
C983 C981 1.327 . S
C983 C999 1.429 . S
C983 H1005 0.950 . S
C984 H980 0.949 . S
C984 C992 1.574 . S
C984 C1000 1.368 . S
H985 C993 0.951 1_545 S
H986 C991 0.950 . S
H987 C992 0.910 1_565 S
H988 C994 0.950 . S
H989 C995 0.950 . S
H990 C996 0.949 . S
C991 H986 0.950 . S
C991 C993 1.329 1_545 S
C991 C997 1.429 . S
C992 C984 1.574 . S
C992 H987 0.910 1_545 S
C992 C998 1.368 . S
C993 C977 1.346 . S
C993 H985 0.951 1_565 S
C993 C991 1.329 1_565 S
C994 C982 1.349 . S
C994 H988 0.950 . S
C994 C995 1.327 . S
C995 H989 0.950 . S
C995 C994 1.327 . S
C995 C999 1.429 . S
C996 C979 1.574 . S
C996 H990 0.949 . S
C996 C1000 1.368 . S
C997 C978 1.429 1_545 S
C997 C991 1.429 . S
C997 C998 1.523 . S
C998 C979 1.368 . S
C998 C992 1.368 . S
C998 C997 1.523 . S
C999 C983 1.429 . S
C999 C995 1.429 . S
C999 C1000 1.523 . S
C1000 C984 1.368 . S
C1000 C996 1.368 . S
C1000 C999 1.523 . S
H1001 C976 0.950 . S
H1002 C978 0.950 . S
H1003 C979 0.949 . S
H1004 C981 0.950 . S
H1005 C983 0.950 . S
C1006 C1007 1.349 . S
C1006 C1008 1.327 . S
C1006 H1031 0.950 . S
C1007 C1006 1.349 . S
C1007 C1023 1.349 . S
C1008 C1006 1.327 . S
C1008 C1027 1.429 . S
C1008 H1032 0.950 . S
C1009 C1026 1.574 . S
C1009 C1028 1.368 . S
C1009 H1033 0.949 . S
H1010 C1014 0.949 . S
C1011 C1012 1.349 . S
C1011 C1013 1.327 . S
C1011 H1034 0.950 . S
C1012 C1011 1.349 . S
C1012 C1024 1.349 . S
C1013 C1011 1.327 . S
C1013 C1029 1.429 . S
C1013 H1035 0.950 . S
C1014 H1010 0.949 . S
C1014 C1022 1.574 . S
C1014 C1030 1.368 . S
H1015 C1023 0.950 . S
H1016 C1021 0.950 . S
H1017 C1022 0.949 . S
H1018 C1024 0.950 . S
H1019 C1025 0.950 . S
H1020 C1026 0.949 . S
C1021 H1016 0.950 . S
C1021 C1023 1.327 . S
C1021 C1027 1.429 . S
C1022 C1014 1.574 . S
C1022 H1017 0.949 . S
C1022 C1028 1.368 . S
C1023 C1007 1.349 . S
C1023 H1015 0.950 . S
C1023 C1021 1.327 . S
C1024 C1012 1.349 . S
C1024 H1018 0.950 . S
C1024 C1025 1.327 . S
C1025 H1019 0.950 . S
C1025 C1024 1.327 . S
C1025 C1029 1.429 . S
C1026 C1009 1.574 . S
C1026 H1020 0.949 . S
C1026 C1030 1.368 . S
C1027 C1008 1.429 . S
C1027 C1021 1.429 . S
C1027 C1028 1.523 . S
C1028 C1009 1.368 . S
C1028 C1022 1.368 . S
C1028 C1027 1.523 . S
C1029 C1013 1.429 . S
C1029 C1025 1.429 . S
C1029 C1030 1.523 . S
C1030 C1014 1.368 . S
C1030 C1026 1.368 . S
C1030 C1029 1.523 . S
H1031 C1006 0.950 . S
H1032 C1008 0.950 . S
H1033 C1009 0.949 . S
H1034 C1011 0.950 . S
H1035 C1013 0.950 . S
C1036 C1037 1.349 . S
C1036 C1038 1.327 . S
C1036 H1061 0.950 . S
C1037 C1036 1.349 . S
C1037 C1053 1.349 . S
C1038 C1036 1.327 . S
C1038 C1057 1.429 1_565 S
C1038 H1062 0.950 . S
C1039 C1056 1.574 . S
C1039 C1058 1.368 . S
C1039 H1063 0.949 . S
H1040 C1044 0.949 . S
C1041 C1042 1.349 . S
C1041 C1043 1.327 . S
C1041 H1064 0.950 . S
C1042 C1041 1.349 . S
C1042 C1054 1.349 . S
C1043 C1041 1.327 . S
C1043 C1059 1.429 . S
C1043 H1065 0.950 . S
C1044 H1040 0.949 . S
C1044 C1052 1.574 . S
C1044 C1060 1.368 . S
H1045 C1053 0.950 . S
H1046 C1051 0.950 . S
H1047 C1052 0.949 . S
H1048 C1054 0.950 . S
H1049 C1055 0.950 . S
H1050 C1056 0.949 . S
C1051 H1046 0.950 . S
C1051 C1053 1.327 1_545 S
C1051 C1057 1.429 . S
C1052 C1044 1.574 . S
C1052 H1047 0.949 . S
C1052 C1058 1.368 . S
C1053 C1037 1.349 . S
C1053 H1045 0.950 . S
C1053 C1051 1.327 1_565 S
C1054 C1042 1.349 . S
C1054 H1048 0.950 . S
C1054 C1055 1.327 . S
C1055 H1049 0.950 . S
C1055 C1054 1.327 . S
C1055 C1059 1.429 . S
C1056 C1039 1.574 . S
C1056 H1050 0.949 . S
C1056 C1060 1.368 . S
C1057 C1038 1.429 1_545 S
C1057 C1051 1.429 . S
C1057 C1058 1.523 . S
C1058 C1039 1.368 . S
C1058 C1052 1.368 . S
C1058 C1057 1.523 . S
C1059 C1043 1.429 . S
C1059 C1055 1.429 . S
C1059 C1060 1.523 . S
C1060 C1044 1.368 . S
C1060 C1056 1.368 . S
C1060 C1059 1.523 . S
H1061 C1036 0.950 . S
H1062 C1038 0.950 . S
H1063 C1039 0.949 . S
H1064 C1041 0.950 . S
H1065 C1043 0.950 . S
C1066 C1067 1.349 . S
C1066 C1068 1.327 . S
C1066 H1091 0.950 . S
C1067 C1066 1.349 . S
C1067 C1083 1.349 . S
C1068 C1066 1.327 . S
C1068 C1087 1.429 . S
C1068 H1092 0.950 . S
C1069 C1086 1.574 . S
C1069 C1088 1.368 . S
C1069 H1093 0.949 . S
H1070 C1074 0.949 . S
C1071 C1072 1.349 . S
C1071 C1073 1.327 . S
C1071 H1094 0.950 . S
C1072 C1071 1.349 . S
C1072 C1084 1.349 . S
C1073 C1071 1.327 . S
C1073 C1089 1.429 . S
C1073 H1095 0.950 . S
C1074 H1070 0.949 . S
C1074 C1082 1.574 . S
C1074 C1090 1.368 . S
H1075 C1083 0.950 . S
H1076 C1081 0.950 . S
H1077 C1082 0.949 . S
H1078 C1084 0.950 . S
H1079 C1085 0.950 . S
H1080 C1086 0.949 . S
C1081 H1076 0.950 . S
C1081 C1083 1.327 . S
C1081 C1087 1.429 . S
C1082 C1074 1.574 . S
C1082 H1077 0.949 . S
C1082 C1088 1.368 . S
C1083 C1067 1.349 . S
C1083 H1075 0.950 . S
C1083 C1081 1.327 . S
C1084 C1072 1.349 . S
C1084 H1078 0.950 . S
C1084 C1085 1.327 . S
C1085 H1079 0.950 . S
C1085 C1084 1.327 . S
C1085 C1089 1.429 . S
C1086 C1069 1.574 . S
C1086 H1080 0.949 . S
C1086 C1090 1.368 . S
C1087 C1068 1.429 . S
C1087 C1081 1.429 . S
C1087 C1088 1.523 . S
C1088 C1069 1.368 . S
C1088 C1082 1.368 . S
C1088 C1087 1.523 . S
C1089 C1073 1.429 . S
C1089 C1085 1.429 . S
C1089 C1090 1.523 . S
C1090 C1074 1.368 . S
C1090 C1086 1.368 . S
C1090 C1089 1.523 . S
H1091 C1066 0.950 . S
H1092 C1068 0.950 . S
H1093 C1069 0.949 . S
H1094 C1071 0.950 . S
H1095 C1073 0.950 . S
C1096 C1097 1.349 . S
C1096 C1098 1.327 . S
C1096 H1121 0.950 . S
C1097 C1096 1.349 . S
C1097 C1113 1.349 . S
C1098 C1096 1.327 . S
C1098 C1117 1.429 . S
C1098 H1122 0.950 . S
C1099 C1116 1.574 . S
C1099 C1118 1.368 . S
C1099 H1123 0.949 . S
H1100 C1104 0.949 . S
C1101 C1102 1.349 . S
C1101 C1103 1.327 . S
C1101 H1124 0.950 . S
C1102 C1101 1.349 . S
C1102 C1114 1.349 . S
C1103 C1101 1.327 . S
C1103 C1119 1.429 . S
C1103 H1125 0.950 . S
C1104 H1100 0.949 . S
C1104 C1112 1.574 . S
C1104 C1120 1.368 . S
H1105 C1113 0.950 . S
H1106 C1111 0.950 . S
H1107 C1112 0.949 . S
H1108 C1114 0.950 . S
H1109 C1115 0.950 . S
H1110 C1116 0.949 . S
C1111 H1106 0.950 . S
C1111 C1113 1.327 . S
C1111 C1117 1.429 . S
C1112 C1104 1.574 . S
C1112 H1107 0.949 . S
C1112 C1118 1.368 . S
C1113 C1097 1.349 . S
C1113 H1105 0.950 . S
C1113 C1111 1.327 . S
C1114 C1102 1.349 . S
C1114 H1108 0.950 . S
C1114 C1115 1.327 . S
C1115 H1109 0.950 . S
C1115 C1114 1.327 . S
C1115 C1119 1.429 . S
C1116 C1099 1.574 . S
C1116 H1110 0.949 . S
C1116 C1120 1.368 . S
C1117 C1098 1.429 . S
C1117 C1111 1.429 . S
C1117 C1118 1.523 . S
C1118 C1099 1.368 . S
C1118 C1112 1.368 . S
C1118 C1117 1.523 . S
C1119 C1103 1.429 . S
C1119 C1115 1.429 . S
C1119 C1120 1.523 . S
C1120 C1104 1.368 . S
C1120 C1116 1.368 . S
C1120 C1119 1.523 . S
H1121 C1096 0.950 . S
H1122 C1098 0.950 . S
H1123 C1099 0.949 . S
H1124 C1101 0.950 . S
H1125 C1103 0.950 . S
C1126 C1127 1.349 . S
C1126 C1128 1.327 . S
C1126 H1151 0.950 . S
C1127 C1126 1.349 . S
C1127 C1143 1.349 . S
C1128 C1126 1.327 . S
C1128 C1147 1.429 . S
C1128 H1152 0.950 . S
C1129 C1146 1.574 . S
C1129 C1148 1.368 . S
C1129 H1153 0.949 . S
H1130 C1134 0.949 . S
C1131 C1132 1.349 1_565 S
C1131 C1133 1.327 1_565 S
C1131 H1154 0.950 . S
C1132 C1131 1.349 1_545 S
C1132 C1144 1.349 . S
C1133 C1131 1.327 1_545 S
C1133 C1149 1.429 . S
C1133 H1155 0.950 1_545 S
C1134 H1130 0.949 . S
C1134 C1142 1.574 . S
C1134 C1150 1.368 . S
H1135 C1143 0.950 . S
H1136 C1141 0.950 . S
H1137 C1142 0.949 . S
H1138 C1144 0.950 . S
H1139 C1145 0.950 . S
H1140 C1146 0.947 . S
C1141 H1136 0.950 . S
C1141 C1143 1.327 . S
C1141 C1147 1.429 . S
C1142 C1134 1.574 . S
C1142 H1137 0.949 . S
C1142 C1148 1.368 . S
C1143 C1127 1.349 . S
C1143 H1135 0.950 . S
C1143 C1141 1.327 . S
C1144 C1132 1.349 . S
C1144 H1138 0.950 . S
C1144 C1145 1.327 . S
C1145 H1139 0.950 . S
C1145 C1144 1.327 . S
C1145 C1149 1.429 . S
C1146 C1129 1.574 . S
C1146 H1140 0.947 . S
C1146 C1150 1.368 . S
C1147 C1128 1.429 . S
C1147 C1141 1.429 . S
C1147 C1148 1.523 . S
C1148 C1129 1.368 . S
C1148 C1142 1.368 . S
C1148 C1147 1.523 . S
C1149 C1133 1.429 . S
C1149 C1145 1.429 . S
C1149 C1150 1.523 . S
C1150 C1134 1.368 . S
C1150 C1146 1.368 . S
C1150 C1149 1.523 . S
H1151 C1126 0.950 . S
H1152 C1128 0.950 . S
H1153 C1129 0.949 . S
H1154 C1131 0.950 . S
H1155 C1133 0.950 1_565 S
C1156 C1157 1.349 . S
C1156 C1158 1.327 . S
C1156 H1181 0.950 . S
C1157 C1156 1.349 . S
C1157 C1173 1.349 . S
C1158 C1156 1.327 . S
C1158 C1177 1.429 . S
C1158 H1182 0.950 . S
C1159 C1176 1.574 . S
C1159 C1178 1.368 . S
C1159 H1183 0.949 . S
H1160 C1164 0.949 . S
C1161 C1162 1.349 . S
C1161 C1163 1.327 . S
C1161 H1184 0.950 . S
C1162 C1161 1.349 . S
C1162 C1174 1.349 . S
C1163 C1161 1.327 . S
C1163 C1179 1.429 . S
C1163 H1185 0.950 . S
C1164 H1160 0.949 . S
C1164 C1172 1.574 . S
C1164 C1180 1.368 . S
H1165 C1173 0.950 . S
H1166 C1171 0.950 . S
H1167 C1172 0.949 . S
H1168 C1174 0.950 . S
H1169 C1175 0.950 . S
H1170 C1176 0.949 . S
C1171 H1166 0.950 . S
C1171 C1173 1.327 . S
C1171 C1177 1.429 . S
C1172 C1164 1.574 . S
C1172 H1167 0.949 . S
C1172 C1178 1.368 . S
C1173 C1157 1.349 . S
C1173 H1165 0.950 . S
C1173 C1171 1.327 . S
C1174 C1162 1.349 . S
C1174 H1168 0.950 . S
C1174 C1175 1.327 . S
C1175 H1169 0.950 . S
C1175 C1174 1.327 . S
C1175 C1179 1.429 . S
C1176 C1159 1.574 . S
C1176 H1170 0.949 . S
C1176 C1180 1.368 . S
C1177 C1158 1.429 . S
C1177 C1171 1.429 . S
C1177 C1178 1.523 . S
C1178 C1159 1.368 . S
C1178 C1172 1.368 . S
C1178 C1177 1.523 . S
C1179 C1163 1.429 . S
C1179 C1175 1.429 . S
C1179 C1180 1.523 . S
C1180 C1164 1.368 . S
C1180 C1176 1.368 . S
C1180 C1179 1.523 . S
H1181 C1156 0.950 . S
H1182 C1158 0.950 . S
H1183 C1159 0.949 . S
H1184 C1161 0.950 . S
H1185 C1163 0.950 . S
C1186 C1187 1.349 . S
C1186 C1188 1.327 . S
C1186 H1211 0.950 . S
C1187 C1186 1.349 . S
C1187 C1203 1.349 . S
C1188 C1186 1.327 . S
C1188 C1207 1.429 . S
C1188 H1212 0.950 . S
C1189 C1206 1.574 . S
C1189 C1208 1.368 . S
C1189 H1213 0.949 . S
H1190 C1194 0.949 . S
C1191 C1192 1.349 . S
C1191 C1193 1.327 . S
C1191 H1214 0.950 . S
C1192 C1191 1.349 . S
C1192 C1204 1.349 . S
C1193 C1191 1.327 . S
C1193 C1209 1.429 . S
C1193 H1215 0.950 . S
C1194 H1190 0.949 . S
C1194 C1202 1.574 . S
C1194 C1210 1.368 . S
H1195 C1203 0.950 . S
H1196 C1201 0.950 . S
H1197 C1202 0.949 . S
H1198 C1204 0.950 . S
H1199 C1205 0.950 . S
H1200 C1206 0.949 . S
C1201 H1196 0.950 . S
C1201 C1203 1.327 . S
C1201 C1207 1.429 . S
C1202 C1194 1.574 . S
C1202 H1197 0.949 . S
C1202 C1208 1.368 . S
C1203 C1187 1.349 . S
C1203 H1195 0.950 . S
C1203 C1201 1.327 . S
C1204 C1192 1.349 . S
C1204 H1198 0.950 . S
C1204 C1205 1.327 . S
C1205 H1199 0.950 . S
C1205 C1204 1.327 . S
C1205 C1209 1.429 . S
C1206 C1189 1.574 . S
C1206 H1200 0.949 . S
C1206 C1210 1.368 . S
C1207 C1188 1.429 . S
C1207 C1201 1.429 . S
C1207 C1208 1.523 . S
C1208 C1189 1.368 . S
C1208 C1202 1.368 . S
C1208 C1207 1.523 . S
C1209 C1193 1.429 . S
C1209 C1205 1.429 . S
C1209 C1210 1.523 . S
C1210 C1194 1.368 . S
C1210 C1206 1.368 . S
C1210 C1209 1.523 . S
H1211 C1186 0.950 . S
H1212 C1188 0.950 . S
H1213 C1189 0.949 . S
H1214 C1191 0.950 . S
H1215 C1193 0.950 . S
C1216 C1217 1.349 . S
C1216 C1218 1.327 . S
C1216 H1241 0.950 . S
C1217 C1216 1.349 . S
C1217 C1233 1.349 . S
C1218 C1216 1.327 . S
C1218 C1237 1.429 . S
C1218 H1242 0.950 . S
C1219 C1236 1.574 . S
C1219 C1238 1.368 . S
C1219 H1243 0.949 . S
H1220 C1224 0.949 . S
C1221 C1222 1.349 . S
C1221 C1223 1.327 . S
C1221 H1244 0.950 . S
C1222 C1221 1.349 . S
C1222 C1234 1.349 . S
C1223 C1221 1.327 . S
C1223 C1239 1.429 . S
C1223 H1245 0.950 . S
C1224 H1220 0.949 . S
C1224 C1232 1.574 . S
C1224 C1240 1.368 . S
H1225 C1233 0.950 . S
H1226 C1231 0.950 . S
H1227 C1232 0.949 . S
H1228 C1234 0.950 . S
H1229 C1235 0.950 . S
H1230 C1236 0.949 . S
C1231 H1226 0.950 . S
C1231 C1233 1.327 . S
C1231 C1237 1.429 . S
C1232 C1224 1.574 . S
C1232 H1227 0.949 . S
C1232 C1238 1.368 . S
C1233 C1217 1.349 . S
C1233 H1225 0.950 . S
C1233 C1231 1.327 . S
C1234 C1222 1.349 . S
C1234 H1228 0.950 . S
C1234 C1235 1.327 . S
C1235 H1229 0.950 . S
C1235 C1234 1.327 . S
C1235 C1239 1.429 . S
C1236 C1219 1.574 . S
C1236 H1230 0.949 . S
C1236 C1240 1.368 . S
C1237 C1218 1.429 . S
C1237 C1231 1.429 . S
C1237 C1238 1.523 . S
C1238 C1219 1.368 . S
C1238 C1232 1.368 . S
C1238 C1237 1.523 . S
C1239 C1223 1.429 . S
C1239 C1235 1.429 . S
C1239 C1240 1.523 . S
C1240 C1224 1.368 . S
C1240 C1236 1.368 . S
C1240 C1239 1.523 . S
H1241 C1216 0.950 . S
H1242 C1218 0.950 . S
H1243 C1219 0.949 . S
H1244 C1221 0.950 . S
H1245 C1223 0.950 . S
C1246 C1247 1.349 1_655 S
C1246 C1248 1.327 . S
C1246 H1271 0.950 . S
C1247 C1246 1.349 1_455 S
C1247 C1263 1.349 . S
C1248 C1246 1.327 . S
C1248 C1267 1.429 . S
C1248 H1272 0.950 . S
C1249 C1266 1.574 . S
C1249 C1268 1.368 . S
C1249 H1273 0.949 . S
H1250 C1254 0.949 . S
C1251 C1252 1.349 . S
C1251 C1253 1.327 . S
C1251 H1274 0.950 . S
C1252 C1251 1.349 . S
C1252 C1264 1.349 . S
C1253 C1251 1.327 . S
C1253 C1269 1.429 . S
C1253 H1275 0.950 . S
C1254 H1250 0.949 . S
C1254 C1262 1.574 . S
C1254 C1270 1.368 . S
H1255 C1263 0.950 . S
H1256 C1261 0.950 1_455 S
H1257 C1262 0.949 . S
H1258 C1264 0.950 . S
H1259 C1265 0.950 . S
H1260 C1266 0.949 . S
C1261 H1256 0.950 1_655 S
C1261 C1263 1.327 1_655 S
C1261 C1267 1.428 . S
C1262 C1254 1.574 . S
C1262 H1257 0.949 . S
C1262 C1268 1.368 . S
C1263 C1247 1.349 . S
C1263 H1255 0.950 . S
C1263 C1261 1.327 1_455 S
C1264 C1252 1.349 . S
C1264 H1258 0.950 . S
C1264 C1265 1.327 . S
C1265 H1259 0.950 . S
C1265 C1264 1.327 . S
C1265 C1269 1.429 . S
C1266 C1249 1.574 . S
C1266 H1260 0.949 . S
C1266 C1270 1.368 . S
C1267 C1248 1.429 . S
C1267 C1261 1.428 . S
C1267 C1268 1.523 . S
C1268 C1249 1.368 . S
C1268 C1262 1.368 . S
C1268 C1267 1.523 . S
C1269 C1253 1.429 . S
C1269 C1265 1.429 . S
C1269 C1270 1.523 . S
C1270 C1254 1.368 . S
C1270 C1266 1.368 . S
C1270 C1269 1.523 . S
H1271 C1246 0.950 . S
H1272 C1248 0.950 . S
H1273 C1249 0.949 . S
H1274 C1251 0.950 . S
H1275 C1253 0.950 . S
C1276 C1277 1.349 . S
C1276 C1278 1.327 . S
C1276 H1301 0.950 . S
C1277 C1276 1.349 . S
C1277 C1293 1.349 . S
C1278 C1276 1.327 . S
C1278 C1297 1.429 . S
C1278 H1302 0.950 . S
C1279 C1296 1.574 . S
C1279 C1298 1.368 . S
C1279 H1303 0.949 . S
H1280 C1284 0.949 . S
C1281 C1282 1.349 . S
C1281 C1283 1.327 . S
C1281 H1304 0.950 . S
C1282 C1281 1.349 . S
C1282 C1294 1.349 . S
C1283 C1281 1.327 . S
C1283 C1299 1.429 . S
C1283 H1305 0.950 . S
C1284 H1280 0.949 . S
C1284 C1292 1.574 . S
C1284 C1300 1.368 . S
H1285 C1293 0.950 . S
H1286 C1291 0.950 . S
H1287 C1292 0.949 . S
H1288 C1294 0.950 . S
H1289 C1295 0.950 . S
H1290 C1296 0.949 . S
C1291 H1286 0.950 . S
C1291 C1293 1.327 . S
C1291 C1297 1.429 . S
C1292 C1284 1.574 . S
C1292 H1287 0.949 . S
C1292 C1298 1.368 . S
C1293 C1277 1.349 . S
C1293 H1285 0.950 . S
C1293 C1291 1.327 . S
C1294 C1282 1.349 . S
C1294 H1288 0.950 . S
C1294 C1295 1.327 . S
C1295 H1289 0.950 . S
C1295 C1294 1.327 . S
C1295 C1299 1.429 . S
C1296 C1279 1.574 . S
C1296 H1290 0.949 . S
C1296 C1300 1.368 . S
C1297 C1278 1.429 . S
C1297 C1291 1.429 . S
C1297 C1298 1.523 . S
C1298 C1279 1.368 . S
C1298 C1292 1.368 . S
C1298 C1297 1.523 . S
C1299 C1283 1.429 . S
C1299 C1295 1.429 . S
C1299 C1300 1.523 . S
C1300 C1284 1.368 . S
C1300 C1296 1.368 . S
C1300 C1299 1.523 . S
H1301 C1276 0.950 . S
H1302 C1278 0.950 . S
H1303 C1279 0.949 . S
H1304 C1281 0.950 . S
H1305 C1283 0.950 . S
C1306 C1307 1.349 . S
C1306 C1308 1.327 1_655 S
C1306 H1331 0.950 . S
C1307 C1306 1.349 . S
C1307 C1323 1.349 1_655 S
C1308 C1306 1.327 1_455 S
C1308 C1327 1.429 . S
C1308 H1332 0.950 . S
C1309 C1326 1.574 . S
C1309 C1328 1.368 . S
C1309 H1333 0.949 . S
H1310 C1314 0.949 . S
C1311 C1312 1.349 . S
C1311 C1313 1.327 . S
C1311 H1334 0.950 . S
C1312 C1311 1.349 . S
C1312 C1324 1.349 . S
C1313 C1311 1.327 . S
C1313 C1329 1.429 . S
C1313 H1335 0.950 . S
C1314 H1310 0.949 . S
C1314 C1322 1.574 . S
C1314 C1330 1.368 . S
H1315 C1323 0.950 . S
H1316 C1321 0.950 . S
H1317 C1322 0.949 . S
H1318 C1324 0.950 . S
H1319 C1325 0.950 . S
H1320 C1326 0.949 . S
C1321 H1316 0.950 . S
C1321 C1323 1.327 . S
C1321 C1327 1.429 . S
C1322 C1314 1.574 . S
C1322 H1317 0.949 . S
C1322 C1328 1.368 . S
C1323 C1307 1.349 1_455 S
C1323 H1315 0.950 . S
C1323 C1321 1.327 . S
C1324 C1312 1.349 . S
C1324 H1318 0.950 . S
C1324 C1325 1.327 . S
C1325 H1319 0.950 . S
C1325 C1324 1.327 . S
C1325 C1329 1.429 . S
C1326 C1309 1.574 . S
C1326 H1320 0.949 . S
C1326 C1330 1.368 . S
C1327 C1308 1.429 . S
C1327 C1321 1.429 . S
C1327 C1328 1.523 . S
C1328 C1309 1.368 . S
C1328 C1322 1.368 . S
C1328 C1327 1.523 . S
C1329 C1313 1.429 . S
C1329 C1325 1.429 . S
C1329 C1330 1.523 . S
C1330 C1314 1.368 . S
C1330 C1326 1.368 . S
C1330 C1329 1.523 . S
H1331 C1306 0.950 . S
H1332 C1308 0.950 . S
H1333 C1309 0.949 . S
H1334 C1311 0.950 . S
H1335 C1313 0.950 . S
C1336 C1337 1.349 . S
C1336 C1338 1.327 . S
C1336 H1361 0.950 . S
C1337 C1336 1.349 . S
C1337 C1353 1.349 . S
C1338 C1336 1.327 . S
C1338 C1357 1.429 . S
C1338 H1362 0.950 . S
C1339 C1356 1.574 . S
C1339 C1358 1.368 . S
C1339 H1363 0.949 . S
H1340 C1344 0.949 . S
C1341 C1342 1.349 . S
C1341 C1343 1.327 . S
C1341 H1364 0.950 . S
C1342 C1341 1.349 . S
C1342 C1354 1.349 . S
C1343 C1341 1.327 . S
C1343 C1359 1.429 . S
C1343 H1365 0.950 . S
C1344 H1340 0.949 . S
C1344 C1352 1.574 . S
C1344 C1360 1.368 . S
H1345 C1353 0.950 . S
H1346 C1351 0.950 . S
H1347 C1352 0.949 . S
H1348 C1354 0.950 . S
H1349 C1355 0.950 . S
H1350 C1356 0.949 . S
C1351 H1346 0.950 . S
C1351 C1353 1.327 . S
C1351 C1357 1.429 . S
C1352 C1344 1.574 . S
C1352 H1347 0.949 . S
C1352 C1358 1.368 . S
C1353 C1337 1.349 . S
C1353 H1345 0.950 . S
C1353 C1351 1.327 . S
C1354 C1342 1.349 . S
C1354 H1348 0.950 . S
C1354 C1355 1.327 . S
C1355 H1349 0.950 . S
C1355 C1354 1.327 . S
C1355 C1359 1.429 . S
C1356 C1339 1.574 . S
C1356 H1350 0.949 . S
C1356 C1360 1.368 . S
C1357 C1338 1.429 . S
C1357 C1351 1.429 . S
C1357 C1358 1.523 . S
C1358 C1339 1.368 . S
C1358 C1352 1.368 . S
C1358 C1357 1.523 . S
C1359 C1343 1.429 . S
C1359 C1355 1.429 . S
C1359 C1360 1.523 . S
C1360 C1344 1.368 . S
C1360 C1356 1.368 . S
C1360 C1359 1.523 . S
H1361 C1336 0.950 . S
H1362 C1338 0.950 . S
H1363 C1339 0.949 . S
H1364 C1341 0.950 . S
H1365 C1343 0.950 . S
C1366 C1367 1.349 . S
C1366 C1368 1.327 . S
C1366 H1391 0.950 . S
C1367 C1366 1.349 . S
C1367 C1383 1.349 . S
C1368 C1366 1.327 . S
C1368 C1387 1.429 . S
C1368 H1392 0.950 . S
C1369 C1386 1.574 1_554 S
C1369 C1388 1.368 . S
C1369 H1393 0.949 . S
H1370 C1374 0.949 . S
C1371 C1372 1.349 . S
C1371 C1373 1.327 . S
C1371 H1394 0.950 . S
C1372 C1371 1.349 . S
C1372 C1384 1.343 1_655 S
C1373 C1371 1.327 . S
C1373 C1389 1.429 . S
C1373 H1395 0.950 . S
C1374 H1370 0.949 . S
C1374 C1382 1.574 . S
C1374 C1390 1.368 . S
H1375 C1383 0.950 . S
H1376 C1381 0.950 . S
H1377 C1382 0.949 . S
H1378 C1384 0.966 . S
H1379 C1385 0.950 1_455 S
H1380 C1386 0.949 . S
C1381 H1376 0.950 . S
C1381 C1383 1.327 . S
C1381 C1387 1.429 . S
C1382 C1374 1.574 . S
C1382 H1377 0.949 . S
C1382 C1388 1.368 1_556 S
C1383 C1367 1.349 . S
C1383 H1375 0.950 . S
C1383 C1381 1.327 . S
C1384 C1372 1.343 1_455 S
C1384 H1378 0.966 . S
C1384 C1385 1.317 1_455 S
C1385 H1379 0.950 1_655 S
C1385 C1384 1.317 1_655 S
C1385 C1389 1.429 . S
C1386 C1369 1.574 1_556 S
C1386 H1380 0.949 . S
C1386 C1390 1.368 . S
C1387 C1368 1.429 . S
C1387 C1381 1.429 . S
C1387 C1388 1.523 . S
C1388 C1369 1.368 . S
C1388 C1382 1.368 1_554 S
C1388 C1387 1.523 . S
C1389 C1373 1.429 . S
C1389 C1385 1.429 . S
C1389 C1390 1.523 . S
C1390 C1374 1.368 . S
C1390 C1386 1.368 . S
C1390 C1389 1.523 . S
H1391 C1366 0.950 . S
H1392 C1368 0.950 . S
H1393 C1369 0.949 . S
H1394 C1371 0.950 . S
H1395 C1373 0.950 . S
C1396 C1397 1.349 . S
C1396 C1398 1.327 . S
C1396 H1421 0.950 . S
C1397 C1396 1.349 . S
C1397 C1413 1.349 . S
C1398 C1396 1.327 . S
C1398 C1417 1.429 . S
C1398 H1422 0.950 . S
C1399 C1416 1.574 . S
C1399 C1418 1.368 . S
C1399 H1423 0.949 . S
H1400 C1404 0.949 . S
C1401 C1402 1.349 . S
C1401 C1403 1.327 . S
C1401 H1424 0.950 . S
C1402 C1401 1.349 . S
C1402 C1414 1.349 . S
C1403 C1401 1.327 . S
C1403 C1419 1.429 . S
C1403 H1425 0.950 . S
C1404 H1400 0.949 . S
C1404 C1412 1.574 . S
C1404 C1420 1.368 . S
H1405 C1413 0.950 . S
H1406 C1411 0.950 . S
H1407 C1412 0.949 . S
H1408 C1414 0.950 . S
H1409 C1415 0.950 . S
H1410 C1416 0.949 . S
C1411 H1406 0.950 . S
C1411 C1413 1.327 . S
C1411 C1417 1.429 . S
C1412 C1404 1.574 . S
C1412 H1407 0.949 . S
C1412 C1418 1.368 . S
C1413 C1397 1.349 . S
C1413 H1405 0.950 . S
C1413 C1411 1.327 . S
C1414 C1402 1.349 . S
C1414 H1408 0.950 . S
C1414 C1415 1.327 . S
C1415 H1409 0.950 . S
C1415 C1414 1.327 . S
C1415 C1419 1.429 . S
C1416 C1399 1.574 . S
C1416 H1410 0.949 . S
C1416 C1420 1.368 . S
C1417 C1398 1.429 . S
C1417 C1411 1.429 . S
C1417 C1418 1.523 . S
C1418 C1399 1.368 . S
C1418 C1412 1.368 . S
C1418 C1417 1.523 . S
C1419 C1403 1.429 . S
C1419 C1415 1.429 . S
C1419 C1420 1.523 . S
C1420 C1404 1.368 . S
C1420 C1416 1.368 . S
C1420 C1419 1.523 . S
H1421 C1396 0.950 . S
H1422 C1398 0.950 . S
H1423 C1399 0.949 . S
H1424 C1401 0.950 . S
H1425 C1403 0.950 . S
C1426 C1427 1.349 . S
C1426 C1428 1.327 . S
C1426 H1451 0.950 1_455 S
C1427 C1426 1.349 . S
C1427 C1443 1.349 . S
C1428 C1426 1.327 . S
C1428 C1447 1.429 1_554 S
C1428 H1452 0.950 1_455 S
C1429 C1446 1.574 . S
C1429 C1448 1.368 . S
C1429 H1453 0.949 . S
H1430 C1434 0.991 . S
C1431 C1432 1.349 . S
C1431 C1433 1.327 . S
C1431 H1454 0.950 . S
C1432 C1431 1.349 . S
C1432 C1444 1.349 1_455 S
C1433 C1431 1.327 . S
C1433 C1449 1.429 . S
C1433 H1455 0.950 . S
C1434 H1430 0.991 . S
C1434 C1442 1.565 1_655 S
C1434 C1450 1.331 1_655 S
H1435 C1443 0.950 . S
H1436 C1441 0.950 . S
H1437 C1442 0.949 1_655 S
H1438 C1444 0.950 . S
H1439 C1445 0.950 . S
H1440 C1446 0.949 . S
C1441 H1436 0.950 . S
C1441 C1443 1.327 1_556 S
C1441 C1447 1.429 . S
C1442 C1434 1.565 1_455 S
C1442 H1437 0.949 1_455 S
C1442 C1448 1.368 . S
C1443 C1427 1.349 . S
C1443 H1435 0.950 . S
C1443 C1441 1.327 1_554 S
C1444 C1432 1.349 1_655 S
C1444 H1438 0.950 . S
C1444 C1445 1.327 . S
C1445 H1439 0.950 . S
C1445 C1444 1.327 . S
C1445 C1449 1.429 1_655 S
C1446 C1429 1.574 . S
C1446 H1440 0.949 . S
C1446 C1450 1.368 . S
C1447 C1428 1.429 1_556 S
C1447 C1441 1.429 . S
C1447 C1448 1.523 . S
C1448 C1429 1.368 . S
C1448 C1442 1.368 . S
C1448 C1447 1.523 . S
C1449 C1433 1.429 . S
C1449 C1445 1.429 1_455 S
C1449 C1450 1.523 . S
C1450 C1434 1.331 1_455 S
C1450 C1446 1.368 . S
C1450 C1449 1.523 . S
H1451 C1426 0.950 1_655 S
H1452 C1428 0.950 1_655 S
H1453 C1429 0.949 . S
H1454 C1431 0.950 . S
H1455 C1433 0.950 . S
C1456 C1457 1.349 . S
C1456 C1458 1.327 . S
C1456 H1481 0.950 . S
C1457 C1456 1.349 . S
C1457 C1473 1.349 . S
C1458 C1456 1.327 . S
C1458 C1477 1.429 . S
C1458 H1482 0.950 . S
C1459 C1476 1.574 . S
C1459 C1478 1.368 . S
C1459 H1483 0.949 . S
H1460 C1464 0.949 . S
C1461 C1462 1.349 . S
C1461 C1463 1.327 . S
C1461 H1484 0.950 . S
C1462 C1461 1.349 . S
C1462 C1474 1.349 . S
C1463 C1461 1.327 . S
C1463 C1479 1.429 . S
C1463 H1485 0.950 . S
C1464 H1460 0.949 . S
C1464 C1472 1.574 . S
C1464 C1480 1.368 . S
H1465 C1473 0.950 . S
H1466 C1471 0.950 . S
H1467 C1472 0.949 . S
H1468 C1474 0.950 . S
H1469 C1475 0.950 . S
H1470 C1476 0.949 . S
C1471 H1466 0.950 . S
C1471 C1473 1.327 . S
C1471 C1477 1.429 . S
C1472 C1464 1.574 . S
C1472 H1467 0.949 . S
C1472 C1478 1.368 . S
C1473 C1457 1.349 . S
C1473 H1465 0.950 . S
C1473 C1471 1.327 . S
C1474 C1462 1.349 . S
C1474 H1468 0.950 . S
C1474 C1475 1.327 . S
C1475 H1469 0.950 . S
C1475 C1474 1.327 . S
C1475 C1479 1.429 . S
C1476 C1459 1.574 . S
C1476 H1470 0.949 . S
C1476 C1480 1.368 . S
C1477 C1458 1.429 . S
C1477 C1471 1.429 . S
C1477 C1478 1.523 . S
C1478 C1459 1.368 . S
C1478 C1472 1.368 . S
C1478 C1477 1.523 . S
C1479 C1463 1.429 . S
C1479 C1475 1.429 . S
C1479 C1480 1.523 . S
C1480 C1464 1.368 . S
C1480 C1476 1.368 . S
C1480 C1479 1.523 . S
H1481 C1456 0.950 . S
H1482 C1458 0.950 . S
H1483 C1459 0.949 . S
H1484 C1461 0.950 . S
H1485 C1463 0.950 . S
C1486 C1487 1.349 1_554 S
C1486 C1488 1.327 . S
C1486 H1511 0.950 . S
C1487 C1486 1.349 1_556 S
C1487 C1503 1.349 . S
C1488 C1486 1.327 . S
C1488 C1507 1.429 . S
C1488 H1512 0.950 . S
C1489 C1506 1.574 . S
C1489 C1508 1.368 . S
C1489 H1513 0.949 . S
H1490 C1494 0.949 . S
C1491 C1492 1.349 . S
C1491 C1493 1.327 . S
C1491 H1514 0.950 . S
C1492 C1491 1.349 . S
C1492 C1504 1.349 . S
C1493 C1491 1.327 . S
C1493 C1509 1.429 . S
C1493 H1515 0.950 . S
C1494 H1490 0.949 . S
C1494 C1502 1.574 . S
C1494 C1510 1.368 . S
H1495 C1503 0.950 . S
H1496 C1501 0.941 1_556 S
H1497 C1502 0.949 . S
H1498 C1504 0.950 . S
H1499 C1505 0.950 . S
H1500 C1506 0.949 . S
C1501 H1496 0.941 1_554 S
C1501 C1503 1.327 1_554 S
C1501 C1507 1.429 . S
C1502 C1494 1.574 . S
C1502 H1497 0.949 . S
C1502 C1508 1.368 . S
C1503 C1487 1.349 . S
C1503 H1495 0.950 . S
C1503 C1501 1.327 1_556 S
C1504 C1492 1.349 . S
C1504 H1498 0.950 . S
C1504 C1505 1.327 . S
C1505 H1499 0.950 . S
C1505 C1504 1.327 . S
C1505 C1509 1.429 . S
C1506 C1489 1.574 . S
C1506 H1500 0.949 . S
C1506 C1510 1.368 . S
C1507 C1488 1.429 . S
C1507 C1501 1.429 . S
C1507 C1508 1.523 . S
C1508 C1489 1.368 . S
C1508 C1502 1.368 . S
C1508 C1507 1.523 . S
C1509 C1493 1.429 . S
C1509 C1505 1.429 . S
C1509 C1510 1.523 . S
C1510 C1494 1.368 . S
C1510 C1506 1.368 . S
C1510 C1509 1.523 . S
H1511 C1486 0.950 . S
H1512 C1488 0.950 . S
H1513 C1489 0.949 . S
H1514 C1491 0.950 . S
H1515 C1493 0.950 . S
C1516 C1517 1.349 . S
C1516 C1518 1.327 . S
C1516 H1541 0.950 . S
C1517 C1516 1.349 . S
C1517 C1533 1.349 . S
C1518 C1516 1.327 . S
C1518 C1537 1.429 . S
C1518 H1542 0.950 . S
C1519 C1536 1.574 . S
C1519 C1538 1.368 . S
C1519 H1543 0.949 . S
H1520 C1524 0.949 . S
C1521 C1522 1.349 . S
C1521 C1523 1.327 . S
C1521 H1544 0.950 . S
C1522 C1521 1.349 . S
C1522 C1534 1.349 . S
C1523 C1521 1.327 . S
C1523 C1539 1.429 . S
C1523 H1545 0.950 . S
C1524 H1520 0.949 . S
C1524 C1532 1.574 . S
C1524 C1540 1.368 . S
H1525 C1533 0.950 . S
H1526 C1531 0.950 . S
H1527 C1532 0.949 . S
H1528 C1534 0.950 . S
H1529 C1535 0.950 . S
H1530 C1536 0.949 . S
C1531 H1526 0.950 . S
C1531 C1533 1.327 . S
C1531 C1537 1.429 . S
C1532 C1524 1.574 . S
C1532 H1527 0.949 . S
C1532 C1538 1.368 . S
C1533 C1517 1.349 . S
C1533 H1525 0.950 . S
C1533 C1531 1.327 . S
C1534 C1522 1.349 . S
C1534 H1528 0.950 . S
C1534 C1535 1.327 . S
C1535 H1529 0.950 . S
C1535 C1534 1.327 . S
C1535 C1539 1.429 . S
C1536 C1519 1.574 . S
C1536 H1530 0.949 . S
C1536 C1540 1.368 . S
C1537 C1518 1.429 . S
C1537 C1531 1.429 . S
C1537 C1538 1.523 . S
C1538 C1519 1.368 . S
C1538 C1532 1.368 . S
C1538 C1537 1.523 . S
C1539 C1523 1.429 . S
C1539 C1535 1.429 . S
C1539 C1540 1.523 . S
C1540 C1524 1.368 . S
C1540 C1536 1.368 . S
C1540 C1539 1.523 . S
H1541 C1516 0.950 . S
H1542 C1518 0.950 . S
H1543 C1519 0.949 . S
H1544 C1521 0.950 . S
H1545 C1523 0.950 . S
C1546 C1547 1.349 . S
C1546 C1548 1.366 . S
C1546 H1571 0.912 1_554 S
C1547 C1546 1.349 . S
C1547 C1563 1.349 . S
C1548 C1546 1.366 . S
C1548 C1567 1.429 . S
C1548 H1572 0.950 . S
C1549 C1566 1.574 . S
C1549 C1568 1.368 . S
C1549 H1573 0.949 . S
H1550 C1554 0.949 . S
C1551 C1552 1.349 . S
C1551 C1553 1.327 . S
C1551 H1574 0.950 . S
C1552 C1551 1.349 . S
C1552 C1564 1.349 . S
C1553 C1551 1.327 . S
C1553 C1569 1.429 . S
C1553 H1575 0.950 . S
C1554 H1550 0.949 . S
C1554 C1562 1.574 . S
C1554 C1570 1.368 . S
H1555 C1563 0.950 . S
H1556 C1561 0.950 . S
H1557 C1562 0.949 . S
H1558 C1564 0.950 . S
H1559 C1565 0.950 . S
H1560 C1566 0.949 . S
C1561 H1556 0.950 . S
C1561 C1563 1.327 . S
C1561 C1567 1.429 . S
C1562 C1554 1.574 . S
C1562 H1557 0.949 . S
C1562 C1568 1.368 . S
C1563 C1547 1.349 . S
C1563 H1555 0.950 . S
C1563 C1561 1.327 . S
C1564 C1552 1.349 . S
C1564 H1558 0.950 . S
C1564 C1565 1.327 . S
C1565 H1559 0.950 . S
C1565 C1564 1.327 . S
C1565 C1569 1.429 . S
C1566 C1549 1.574 . S
C1566 H1560 0.949 . S
C1566 C1570 1.368 . S
C1567 C1548 1.429 . S
C1567 C1561 1.429 . S
C1567 C1568 1.523 . S
C1568 C1549 1.368 . S
C1568 C1562 1.368 . S
C1568 C1567 1.523 . S
C1569 C1553 1.429 . S
C1569 C1565 1.429 . S
C1569 C1570 1.523 . S
C1570 C1554 1.368 . S
C1570 C1566 1.368 . S
C1570 C1569 1.523 . S
H1571 C1546 0.912 1_556 S
H1572 C1548 0.950 . S
H1573 C1549 0.949 . S
H1574 C1551 0.950 . S
H1575 C1553 0.950 . S
C1576 C1577 1.349 . S
C1576 C1578 1.327 . S
C1576 H1601 0.950 . S
C1577 C1576 1.349 . S
C1577 C1593 1.349 . S
C1578 C1576 1.327 . S
C1578 C1597 1.429 . S
C1578 H1602 0.950 . S
C1579 C1596 1.574 . S
C1579 C1598 1.368 . S
C1579 H1603 0.949 . S
H1580 C1584 0.949 . S
C1581 C1582 1.349 . S
C1581 C1583 1.327 . S
C1581 H1604 0.950 . S
C1582 C1581 1.349 . S
C1582 C1594 1.349 . S
C1583 C1581 1.327 . S
C1583 C1599 1.429 . S
C1583 H1605 0.950 . S
C1584 H1580 0.949 . S
C1584 C1592 1.574 . S
C1584 C1600 1.368 . S
H1585 C1593 0.950 . S
H1586 C1591 0.950 . S
H1587 C1592 0.949 . S
H1588 C1594 0.950 . S
H1589 C1595 0.950 . S
H1590 C1596 0.949 . S
C1591 H1586 0.950 . S
C1591 C1593 1.327 . S
C1591 C1597 1.429 . S
C1592 C1584 1.574 . S
C1592 H1587 0.949 . S
C1592 C1598 1.368 . S
C1593 C1577 1.349 . S
C1593 H1585 0.950 . S
C1593 C1591 1.327 . S
C1594 C1582 1.349 . S
C1594 H1588 0.950 . S
C1594 C1595 1.327 . S
C1595 H1589 0.950 . S
C1595 C1594 1.327 . S
C1595 C1599 1.429 . S
C1596 C1579 1.574 . S
C1596 H1590 0.949 . S
C1596 C1600 1.368 . S
C1597 C1578 1.429 . S
C1597 C1591 1.429 . S
C1597 C1598 1.523 . S
C1598 C1579 1.368 . S
C1598 C1592 1.368 . S
C1598 C1597 1.523 . S
C1599 C1583 1.429 . S
C1599 C1595 1.429 . S
C1599 C1600 1.523 . S
C1600 C1584 1.368 . S
C1600 C1596 1.368 . S
C1600 C1599 1.523 . S
H1601 C1576 0.950 . S
H1602 C1578 0.950 . S
H1603 C1579 0.949 . S
H1604 C1581 0.950 . S
H1605 C1583 0.950 . S
C1606 C1607 1.349 . S
C1606 C1608 1.327 . S
C1606 H1631 0.950 . S
C1607 C1606 1.349 . S
C1607 C1623 1.349 . S
C1608 C1606 1.327 . S
C1608 C1627 1.429 . S
C1608 H1632 0.950 . S
C1609 C1626 1.574 . S
C1609 C1628 1.368 . S
C1609 H1633 0.949 . S
H1610 C1614 0.949 . S
C1611 C1612 1.349 . S
C1611 C1613 1.327 . S
C1611 H1634 0.950 . S
C1612 C1611 1.349 . S
C1612 C1624 1.349 . S
C1613 C1611 1.327 . S
C1613 C1629 1.429 . S
C1613 H1635 0.950 . S
C1614 H1610 0.949 . S
C1614 C1622 1.574 . S
C1614 C1630 1.368 . S
H1615 C1623 0.950 . S
H1616 C1621 0.950 . S
H1617 C1622 0.949 . S
H1618 C1624 0.950 . S
H1619 C1625 0.950 . S
H1620 C1626 0.949 . S
C1621 H1616 0.950 . S
C1621 C1623 1.327 . S
C1621 C1627 1.429 . S
C1622 C1614 1.574 . S
C1622 H1617 0.949 . S
C1622 C1628 1.368 . S
C1623 C1607 1.349 . S
C1623 H1615 0.950 . S
C1623 C1621 1.327 . S
C1624 C1612 1.349 . S
C1624 H1618 0.950 . S
C1624 C1625 1.327 . S
C1625 H1619 0.950 . S
C1625 C1624 1.327 . S
C1625 C1629 1.429 . S
C1626 C1609 1.574 . S
C1626 H1620 0.949 . S
C1626 C1630 1.368 . S
C1627 C1608 1.429 . S
C1627 C1621 1.429 . S
C1627 C1628 1.523 . S
C1628 C1609 1.368 . S
C1628 C1622 1.368 . S
C1628 C1627 1.523 . S
C1629 C1613 1.429 . S
C1629 C1625 1.429 . S
C1629 C1630 1.523 . S
C1630 C1614 1.368 . S
C1630 C1626 1.368 . S
C1630 C1629 1.523 . S
H1631 C1606 0.950 . S
H1632 C1608 0.950 . S
H1633 C1609 0.949 . S
H1634 C1611 0.950 . S
H1635 C1613 0.950 . S
C1636 C1637 1.349 . S
C1636 C1638 1.327 . S
C1636 H1661 0.950 . S
C1637 C1636 1.349 . S
C1637 C1653 1.349 . S
C1638 C1636 1.327 . S
C1638 C1657 1.429 . S
C1638 H1662 0.950 . S
C1639 C1656 1.574 . S
C1639 C1658 1.368 . S
C1639 H1663 0.949 . S
H1640 C1644 0.949 . S
C1641 C1642 1.349 . S
C1641 C1643 1.327 . S
C1641 H1664 0.950 . S
C1642 C1641 1.349 . S
C1642 C1654 1.349 . S
C1643 C1641 1.327 . S
C1643 C1659 1.429 . S
C1643 H1665 0.950 . S
C1644 H1640 0.949 . S
C1644 C1652 1.574 . S
C1644 C1660 1.368 . S
H1645 C1653 0.950 . S
H1646 C1651 0.950 . S
H1647 C1652 0.949 . S
H1648 C1654 0.950 . S
H1649 C1655 0.950 . S
H1650 C1656 0.949 . S
C1651 H1646 0.950 . S
C1651 C1653 1.327 . S
C1651 C1657 1.429 . S
C1652 C1644 1.574 . S
C1652 H1647 0.949 . S
C1652 C1658 1.368 . S
C1653 C1637 1.349 . S
C1653 H1645 0.950 . S
C1653 C1651 1.327 . S
C1654 C1642 1.349 . S
C1654 H1648 0.950 . S
C1654 C1655 1.327 . S
C1655 H1649 0.950 . S
C1655 C1654 1.327 . S
C1655 C1659 1.429 . S
C1656 C1639 1.574 . S
C1656 H1650 0.949 . S
C1656 C1660 1.368 . S
C1657 C1638 1.429 . S
C1657 C1651 1.429 . S
C1657 C1658 1.523 . S
C1658 C1639 1.368 . S
C1658 C1652 1.368 . S
C1658 C1657 1.523 . S
C1659 C1643 1.429 . S
C1659 C1655 1.429 . S
C1659 C1660 1.523 . S
C1660 C1644 1.368 . S
C1660 C1656 1.368 . S
C1660 C1659 1.523 . S
H1661 C1636 0.950 . S
H1662 C1638 0.950 . S
H1663 C1639 0.949 . S
H1664 C1641 0.950 . S
H1665 C1643 0.950 . S
C1666 C1667 1.349 . S
C1666 C1668 1.327 . S
C1666 H1691 0.950 . S
C1667 C1666 1.349 . S
C1667 C1683 1.349 . S
C1668 C1666 1.327 . S
C1668 C1687 1.429 . S
C1668 H1692 0.950 . S
C1669 C1686 1.574 . S
C1669 C1688 1.368 . S
C1669 H1693 0.949 . S
H1670 C1674 0.949 . S
C1671 C1672 1.349 . S
C1671 C1673 1.327 . S
C1671 H1694 0.950 . S
C1672 C1671 1.349 . S
C1672 C1684 1.349 . S
C1673 C1671 1.327 . S
C1673 C1689 1.429 . S
C1673 H1695 0.950 . S
C1674 H1670 0.949 . S
C1674 C1682 1.574 . S
C1674 C1690 1.368 . S
H1675 C1683 0.950 . S
H1676 C1681 0.950 . S
H1677 C1682 0.949 . S
H1678 C1684 0.950 . S
H1679 C1685 0.950 . S
H1680 C1686 0.949 . S
C1681 H1676 0.950 . S
C1681 C1683 1.327 . S
C1681 C1687 1.429 . S
C1682 C1674 1.574 . S
C1682 H1677 0.949 . S
C1682 C1688 1.368 . S
C1683 C1667 1.349 . S
C1683 H1675 0.950 . S
C1683 C1681 1.327 . S
C1684 C1672 1.349 . S
C1684 H1678 0.950 . S
C1684 C1685 1.327 . S
C1685 H1679 0.950 . S
C1685 C1684 1.327 . S
C1685 C1689 1.429 . S
C1686 C1669 1.574 . S
C1686 H1680 0.949 . S
C1686 C1690 1.368 . S
C1687 C1668 1.429 . S
C1687 C1681 1.429 . S
C1687 C1688 1.523 . S
C1688 C1669 1.368 . S
C1688 C1682 1.368 . S
C1688 C1687 1.523 . S
C1689 C1673 1.429 . S
C1689 C1685 1.429 . S
C1689 C1690 1.523 . S
C1690 C1674 1.368 . S
C1690 C1686 1.368 . S
C1690 C1689 1.523 . S
H1691 C1666 0.950 . S
H1692 C1668 0.950 . S
H1693 C1669 0.949 . S
H1694 C1671 0.950 . S
H1695 C1673 0.950 . S
C1696 C1697 1.349 . S
C1696 C1698 1.327 . S
C1696 H1721 0.950 . S
C1697 C1696 1.349 . S
C1697 C1713 1.349 . S
C1698 C1696 1.327 . S
C1698 C1717 1.429 . S
C1698 H1722 0.950 . S
C1699 C1716 1.574 . S
C1699 C1718 1.368 1_554 S
C1699 H1723 0.949 . S
H1700 C1704 0.949 . S
C1701 C1702 1.349 . S
C1701 C1703 1.327 . S
C1701 H1724 0.950 . S
C1702 C1701 1.349 . S
C1702 C1714 1.349 . S
C1703 C1701 1.327 . S
C1703 C1719 1.429 . S
C1703 H1725 0.950 . S
C1704 H1700 0.949 . S
C1704 C1712 1.574 . S
C1704 C1720 1.368 1_556 S
H1705 C1713 0.950 . S
H1706 C1711 0.927 1_554 S
H1707 C1712 0.949 . S
H1708 C1714 0.950 . S
H1709 C1715 0.950 . S
H1710 C1716 0.949 . S
C1711 H1706 0.927 1_556 S
C1711 C1713 1.327 . S
C1711 C1717 1.429 . S
C1712 C1704 1.574 . S
C1712 H1707 0.949 . S
C1712 C1718 1.368 . S
C1713 C1697 1.349 . S
C1713 H1705 0.950 . S
C1713 C1711 1.327 . S
C1714 C1702 1.349 . S
C1714 H1708 0.950 . S
C1714 C1715 1.327 . S
C1715 H1709 0.950 . S
C1715 C1714 1.327 . S
C1715 C1719 1.429 . S
C1716 C1699 1.574 . S
C1716 H1710 0.949 . S
C1716 C1720 1.368 . S
C1717 C1698 1.429 . S
C1717 C1711 1.429 . S
C1717 C1718 1.523 . S
C1718 C1699 1.368 1_556 S
C1718 C1712 1.368 . S
C1718 C1717 1.523 . S
C1719 C1703 1.429 . S
C1719 C1715 1.429 . S
C1719 C1720 1.523 . S
C1720 C1704 1.368 1_554 S
C1720 C1716 1.368 . S
C1720 C1719 1.523 . S
H1721 C1696 0.950 . S
H1722 C1698 0.950 . S
H1723 C1699 0.949 . S
H1724 C1701 0.950 . S
H1725 C1703 0.950 . S
C1726 C1727 1.349 . S
C1726 C1728 1.327 . S
C1726 H1751 0.950 . S
C1727 C1726 1.349 . S
C1727 C1743 1.349 . S
C1728 C1726 1.327 . S
C1728 C1747 1.429 . S
C1728 H1752 0.950 . S
C1729 C1746 1.574 . S
C1729 C1748 1.368 . S
C1729 H1753 0.949 . S
H1730 C1734 0.949 . S
C1731 C1732 1.349 . S
C1731 C1733 1.327 . S
C1731 H1754 0.950 . S
C1732 C1731 1.349 . S
C1732 C1744 1.349 . S
C1733 C1731 1.327 . S
C1733 C1749 1.429 . S
C1733 H1755 0.950 . S
C1734 H1730 0.949 . S
C1734 C1742 1.574 . S
C1734 C1750 1.368 . S
H1735 C1743 0.950 . S
H1736 C1741 0.950 . S
H1737 C1742 0.949 . S
H1738 C1744 0.950 . S
H1739 C1745 0.950 . S
H1740 C1746 0.949 . S
C1741 H1736 0.950 . S
C1741 C1743 1.327 . S
C1741 C1747 1.429 . S
C1742 C1734 1.574 . S
C1742 H1737 0.949 . S
C1742 C1748 1.368 . S
C1743 C1727 1.349 . S
C1743 H1735 0.950 . S
C1743 C1741 1.327 . S
C1744 C1732 1.349 . S
C1744 H1738 0.950 . S
C1744 C1745 1.327 . S
C1745 H1739 0.950 . S
C1745 C1744 1.327 . S
C1745 C1749 1.429 . S
C1746 C1729 1.574 . S
C1746 H1740 0.949 . S
C1746 C1750 1.368 . S
C1747 C1728 1.429 . S
C1747 C1741 1.429 . S
C1747 C1748 1.523 . S
C1748 C1729 1.368 . S
C1748 C1742 1.368 . S
C1748 C1747 1.523 . S
C1749 C1733 1.429 . S
C1749 C1745 1.429 . S
C1749 C1750 1.523 . S
C1750 C1734 1.368 . S
C1750 C1746 1.368 . S
C1750 C1749 1.523 . S
H1751 C1726 0.950 . S
H1752 C1728 0.950 . S
H1753 C1729 0.949 . S
H1754 C1731 0.950 . S
H1755 C1733 0.950 . S
C1756 C1757 1.349 . S
C1756 C1758 1.327 . S
C1756 H1781 0.950 . S
C1757 C1756 1.349 . S
C1757 C1773 1.349 . S
C1758 C1756 1.327 . S
C1758 C1777 1.429 . S
C1758 H1782 0.950 . S
C1759 C1776 1.574 . S
C1759 C1778 1.368 . S
C1759 H1783 0.949 . S
H1760 C1764 0.949 . S
C1761 C1762 1.349 . S
C1761 C1763 1.327 . S
C1761 H1784 0.950 . S
C1762 C1761 1.349 . S
C1762 C1774 1.349 . S
C1763 C1761 1.327 . S
C1763 C1779 1.429 . S
C1763 H1785 0.950 . S
C1764 H1760 0.949 . S
C1764 C1772 1.574 . S
C1764 C1780 1.368 . S
H1765 C1773 0.950 . S
H1766 C1771 0.950 . S
H1767 C1772 0.949 . S
H1768 C1774 0.950 . S
H1769 C1775 0.950 . S
H1770 C1776 0.949 . S
C1771 H1766 0.950 . S
C1771 C1773 1.327 . S
C1771 C1777 1.429 . S
C1772 C1764 1.574 . S
C1772 H1767 0.949 . S
C1772 C1778 1.368 . S
C1773 C1757 1.349 . S
C1773 H1765 0.950 . S
C1773 C1771 1.327 . S
C1774 C1762 1.349 . S
C1774 H1768 0.950 . S
C1774 C1775 1.327 . S
C1775 H1769 0.950 . S
C1775 C1774 1.327 . S
C1775 C1779 1.429 . S
C1776 C1759 1.574 . S
C1776 H1770 0.949 . S
C1776 C1780 1.368 . S
C1777 C1758 1.429 . S
C1777 C1771 1.429 . S
C1777 C1778 1.523 . S
C1778 C1759 1.368 . S
C1778 C1772 1.368 . S
C1778 C1777 1.523 . S
C1779 C1763 1.429 . S
C1779 C1775 1.429 . S
C1779 C1780 1.523 . S
C1780 C1764 1.368 . S
C1780 C1776 1.368 . S
C1780 C1779 1.523 . S
H1781 C1756 0.950 . S
H1782 C1758 0.950 . S
H1783 C1759 0.949 . S
H1784 C1761 0.950 . S
H1785 C1763 0.950 . S
C1786 C1787 1.349 . S
C1786 C1788 1.327 . S
C1786 H1811 0.950 . S
C1787 C1786 1.349 . S
C1787 C1803 1.349 1_565 S
C1788 C1786 1.327 . S
C1788 C1807 1.429 . S
C1788 H1812 0.950 . S
C1789 C1806 1.574 . S
C1789 C1808 1.368 . S
C1789 H1813 0.963 . S
H1790 C1794 0.949 . S
C1791 C1792 1.349 1_556 S
C1791 C1793 1.327 . S
C1791 H1814 0.950 . S
C1792 C1791 1.349 1_554 S
C1792 C1804 1.349 . S
C1793 C1791 1.327 . S
C1793 C1809 1.429 1_556 S
C1793 H1815 0.950 . S
C1794 H1790 0.949 . S
C1794 C1802 1.574 . S
C1794 C1810 1.368 . S
H1795 C1803 0.950 . S
H1796 C1801 0.950 1_545 S
H1797 C1802 0.949 . S
H1798 C1804 0.950 . S
H1799 C1805 0.950 . S
H1800 C1806 0.949 1_556 S
C1801 H1796 0.950 1_565 S
C1801 C1803 1.327 1_565 S
C1801 C1807 1.429 . S
C1802 C1794 1.574 . S
C1802 H1797 0.949 . S
C1802 C1808 1.368 . S
C1803 C1787 1.349 1_545 S
C1803 H1795 0.950 . S
C1803 C1801 1.327 1_545 S
C1804 C1792 1.349 . S
C1804 H1798 0.950 . S
C1804 C1805 1.327 . S
C1805 H1799 0.950 . S
C1805 C1804 1.327 . S
C1805 C1809 1.429 . S
C1806 C1789 1.574 . S
C1806 H1800 0.949 1_554 S
C1806 C1810 1.368 . S
C1807 C1788 1.429 . S
C1807 C1801 1.429 . S
C1807 C1808 1.523 . S
C1808 C1789 1.368 . S
C1808 C1802 1.368 . S
C1808 C1807 1.523 . S
C1809 C1793 1.429 1_554 S
C1809 C1805 1.429 . S
C1809 C1810 1.523 . S
C1810 C1794 1.368 . S
C1810 C1806 1.368 . S
C1810 C1809 1.523 . S
H1811 C1786 0.950 . S
H1812 C1788 0.950 . S
H1813 C1789 0.963 . S
H1814 C1791 0.950 . S
H1815 C1793 0.950 . S
C382 C216 1.746 . S
C377 C73 1.795 . S
C412 C229 1.218 . S
C407 C82 1.178 1_455 S
C437 C100 2.009 . S
C442 C249 1.887 1_556 S
C472 C263 1.199 . S
C467 C56 1.218 . S
C502 C275 1.383 . S
C497 C134 1.358 . S
C532 C289 1.700 . S
C527 C165 1.688 . S
C557 C147 1.112 . S
C562 C299 1.142 . S
C592 C314 1.894 . S
C587 C125 1.916 . S
C617 C151 1.367 . S
C622 C328 1.349 . S
C652 C347 1.349 . S
C647 C121 1.360 . S
C677 C139 1.806 . S
C682 C327 1.811 . S
C712 C345 1.190 . S
C707 C164 1.194 . S
C737 C95 1.411 . S
C742 C361 1.365 . S
C767 C61 1.456 . S
C772 C355 1.456 . S
C797 C74 1.447 . S
C802 C359 1.446 . S
C827 C86 1.843 . S
C832 C356 1.817 . S
C857 C47 1.396 . S
C862 C258 1.362 . S
C887 C186 1.222 . S
C892 C257 1.262 . S
C922 C221 1.293 . S
C917 C204 1.399 . S
C952 C235 1.912 . S
C947 C112 2.021 . S
C977 C60 1.370 . S
C982 C272 1.331 . S
C1012 C317 1.456 . S
C1007 C152 1.453 . S
C1042 C271 1.943 . S
C1037 C126 1.959 . S
C1072 C303 1.165 . S
C1067 C160 1.154 . S
C1102 C300 1.746 . S
C1097 C190 1.795 . S
C1127 C199 1.178 . S
C1132 C313 1.219 . S
C1157 C113 2.008 . S
C1162 C277 1.887 . S
C1192 C291 1.198 . S
C1187 C173 1.218 . S
C1217 C43 1.358 . S
C1222 C247 1.383 . S
C1252 C261 1.700 . S
C1247 C9 1.688 . S
C1282 C215 1.141 . S
C1277 C17 1.112 . S
C1312 C230 1.894 . S
C1307 C34 1.916 . S
C1337 C21 1.367 . S
C1342 C342 1.349 . S
C1367 C30 1.360 . S
C1372 C333 1.350 . S
C1397 C48 1.806 . S
C1402 C341 1.811 . S
C1427 C8 1.194 . S
C1432 C331 1.190 . S
C1462 C375 1.365 . S
C1457 C108 1.411 . S
C1492 C369 1.456 . S
C1487 C178 1.456 . S
C1522 C373 1.447 . S
C1517 C191 1.447 . S
C1547 C203 1.843 1_554 S
C1552 C370 1.817 . S
C1577 C138 1.396 . S
C1582 C286 1.362 . S
C1612 C285 1.262 . S
C1607 C69 1.222 . S
C1642 C305 1.293 . S
C1637 C87 1.399 . S
C1672 C319 1.912 . S
C1667 C99 2.020 . S
C1697 C177 1.370 . S
C1702 C244 1.331 . S
C1732 C233 1.456 . S
C1727 C22 1.453 . S
C1757 C35 1.958 . S
C1762 C243 1.943 . S
C1792 C219 1.165 . S
C1787 C4 1.154 1_565 S
