# Generated by pormake.
# Topology pts, (4,4)-cn, num edge types: 1
# Building blocks:
#     Node 0, Type 0, BuildingBlock: NAHDIM_clean_linker_0, # of connection points: 4
#     Node 1, Type 0, BuildingBlock: NAHDIM_clean_linker_0, # of connection points: 4
#     Node 2, Type 1, BuildingBlock: UXUYUI_clean_sbu_0, # of connection points: 4
#     Node 3, Type 1, BuildingBlock: UXUYUI_clean_sbu_0, # of connection points: 4
#     Edge 4, Type (0, 1), BuildingBlock: TEMPAE_clean_linker_10, # of connection points: 2
#     Edge 5, Type (0, 1), BuildingBlock: TEMPAE_clean_linker_10, # of connection points: 2
#     Edge 6, Type (0, 1), BuildingBlock: TEMPAE_clean_linker_10, # of connection points: 2
#     Edge 7, Type (0, 1), BuildingBlock: TEMPAE_clean_linker_10, # of connection points: 2
#     Edge 8, Type (0, 1), BuildingBlock: TEMPAE_clean_linker_10, # of connection points: 2
#     Edge 9, Type (0, 1), BuildingBlock: TEMPAE_clean_linker_10, # of connection points: 2
#     Edge 10, Type (0, 1), BuildingBlock: TEMPAE_clean_linker_10, # of connection points: 2
#     Edge 11, Type (0, 1), BuildingBlock: TEMPAE_clean_linker_10, # of connection points: 2
# Relax obj value: 0.021
# Max RMSD: 0.066
# Mean RMSD: 0.065
data_MOF--net-pts--node1-UXUYUI_clean_sbu_0--node2-NAHDIM_clean_linker_0--edge1-TEMPAE_clean_linker_10
_symmetry_space_group_name_H-M    P1
_symmetry_Int_Tables_number       1
_symmetry_cell_setting            triclinic
loop_
_symmetry_equiv_pos_as_xyz
'x, y, z'
_cell_length_a     38.337064
_cell_length_b     38.324669
_cell_length_c     62.378129
_cell_angle_alpha  90.431926
_cell_angle_beta   89.610243
_cell_angle_gamma 90.006176
loop_
_atom_site_label
_atom_site_type_symbol
_atom_site_fract_x
_atom_site_fract_y
_atom_site_fract_z
_atom_type_partial_charge
C0 C 0.69803 0.94727 0.13368 0.0
C1 C 0.72027 0.96925 0.11831 0.0
C2 C 0.67544 0.99629 0.09571 0.0
C3 C 0.66656 0.9658 0.08426 0.0
C4 C 0.63905 0.96579 0.06956 0.0
C5 C 0.62011 0.99687 0.06608 0.0
C6 C 0.62935 0.02775 0.07721 0.0
C7 C 0.65697 0.02703 0.09187 0.0
C8 C 0.62987 0.93237 0.05791 0.0
C9 C 0.6098 0.06137 0.07373 0.0
C10 C 0.36802 0.90527 0.07651 0.0
C11 C 0.38283 0.92889 0.0942 0.0
C12 C 0.42821 0.9645 0.07661 0.0
C13 C 0.43716 0.99846 0.07076 0.0
C14 C 0.46967 0.00593 0.06141 0.0
C15 C 0.4936 0.97849 0.05747 0.0
C16 C 0.48479 0.94399 0.06333 0.0
C17 C 0.45227 0.93734 0.07296 0.0
C18 C 0.47839 0.04312 0.05568 0.0
C19 C 0.50967 0.91411 0.05926 0.0
C20 C 0.451 0.98549 0.91895 0.0
C21 C 0.45918 0.01864 0.92722 0.0
C22 C 0.48982 0.02404 0.93895 0.0
C23 C 0.51269 0.99571 0.94242 0.0
C24 C 0.50546 0.96276 0.93308 0.0
C25 C 0.47476 0.95818 0.92125 0.0
C26 C 0.49732 0.05978 0.94813 0.0
C27 C 0.52956 0.93215 0.93626 0.0
C28 C 0.78224 0.06573 0.94929 0.0
C29 C 0.76662 0.04138 0.93234 0.0
C30 C 0.70297 0.04332 0.93418 0.0
C31 C 0.67758 0.06849 0.93864 0.0
C32 C 0.64513 0.05913 0.9474 0.0
C33 C 0.6378 0.02356 0.95134 0.0
C34 C 0.66282 0.99777 0.94593 0.0
C35 C 0.6952 0.00792 0.93735 0.0
C36 C 0.61887 0.08726 0.95274 0.0
C37 C 0.65539 0.95955 0.94935 0.0
C38 C 0.58987 0.99651 0.05136 0.0
C39 C 0.55699 0.98944 0.06011 0.0
C40 C 0.52773 0.98586 0.04705 0.0
C41 C 0.53127 0.98904 0.02457 0.0
C42 C 0.50266 0.98417 0.01089 0.0
C43 C 0.50636 0.98752 0.98881 0.0
C44 C 0.53879 0.99606 0.97954 0.0
C45 C 0.54269 -5e-05 0.95712 0.0
C46 C 0.57522 0.0086 0.94842 0.0
C47 C 0.60424 0.01348 0.96156 0.0
C48 C 0.60094 0.00942 0.98402 0.0
C49 C 0.62966 0.01383 0.99771 0.0
C50 C 0.62616 0.00952 0.01976 0.0
C51 C 0.59371 0.00114 0.029 0.0
C52 C 0.56432 0.99708 0.01555 0.0
C53 C 0.56803 0.00083 0.99302 0.0
C54 C 0.37528 0.965 0.93399 0.0
C55 C 0.38789 0.98964 0.91633 0.0
O56 O 0.70112 0.99721 0.1107 0.0
O57 O 0.73426 0.05401 0.92632 0.0
O58 O 0.42039 0.97904 0.90885 0.0
O59 O 0.39611 0.95933 0.08548 0.0
H60 H 0.72907 0.95264 0.10461 0.0
H61 H 0.67521 0.93599 0.12527 0.0
H62 H 0.68828 0.9635 0.14729 0.0
H63 H 0.7137 0.92535 0.14009 0.0
H64 H 0.68061 0.94176 0.08678 0.0
H65 H 0.66403 0.05047 0.10065 0.0
H66 H 0.60237 0.92522 0.06144 0.0
H67 H 0.64696 0.91028 0.06249 0.0
H68 H 0.63218 0.93629 0.04034 0.0
H69 H 0.62117 0.08352 0.0829 0.0
H70 H 0.58215 0.05805 0.07872 0.0
H71 H 0.61 0.0679 0.05642 0.0
H72 H 0.40386 0.91462 0.10267 0.0
H73 H 0.35672 0.88126 0.08362 0.0
H74 H 0.38887 0.89733 0.06507 0.0
H75 H 0.34743 0.91903 0.0674 0.0
H76 H 0.4185 0.01924 0.07364 0.0
H77 H 0.44589 0.91085 0.07734 0.0
H78 H 0.48063 0.04544 0.038 0.0
H79 H 0.50398 0.05057 0.0626 0.0
H80 H 0.45826 0.06183 0.06151 0.0
H81 H 0.4979 0.88842 0.06318 0.0
H82 H 0.53336 0.91777 0.06917 0.0
H83 H 0.51806 0.91378 0.04219 0.0
H84 H 0.38939 0.01628 0.92342 0.0
H85 H 0.44175 0.04036 0.92456 0.0
H86 H 0.46847 0.93286 0.91445 0.0
H87 H 0.49595 0.05878 0.9659 0.0
H88 H 0.47855 0.07974 0.94249 0.0
H89 H 0.52415 0.06803 0.94365 0.0
H90 H 0.52072 0.90846 0.92747 0.0
H91 H 0.5311 0.92604 0.9536 0.0
H92 H 0.55627 0.93896 0.93071 0.0
H93 H 0.76427 0.01518 0.93974 0.0
H94 H 0.80831 0.05615 0.95424 0.0
H95 H 0.76499 0.06653 0.96367 0.0
H96 H 0.78491 0.09266 0.94301 0.0
H97 H 0.68362 0.09568 0.93571 0.0
H98 H 0.7141 0.98814 0.93289 0.0
H99 H 0.61176 0.08605 0.97001 0.0
H100 H 0.5947 0.08281 0.94342 0.0
H101 H 0.6289 0.1138 0.94916 0.0
H102 H 0.67675 0.94257 0.94318 0.0
H103 H 0.63073 0.95217 0.94124 0.0
H104 H 0.65181 0.95457 0.96673 0.0
H105 H 0.55421 0.98621 0.07731 0.0
H106 H 0.47706 0.97761 0.01709 0.0
H107 H 0.48339 0.98339 0.97912 0.0
H108 H 0.57792 0.01183 0.93122 0.0
H109 H 0.65524 0.02049 0.99152 0.0
H110 H 0.64918 0.01307 0.0295 0.0
H111 H 0.34888 0.97282 0.93973 0.0
H112 H 0.39337 0.96624 0.94782 0.0
H113 H 0.37432 0.93763 0.92803 0.0
C114 C 0.15237 0.3325 0.5768 0.0
C115 C 0.12585 0.34224 0.59435 0.0
C116 C 0.08663 0.38454 0.57711 0.0
C117 C 0.05295 0.3893 0.56925 0.0
C118 C 0.04268 0.42116 0.56034 0.0
C119 C 0.06691 0.4489 0.55915 0.0
C120 C 0.10103 0.44443 0.56716 0.0
C121 C 0.11058 0.41233 0.5761 0.0
C122 C 0.00601 0.42511 0.55206 0.0
C123 C 0.12746 0.47357 0.56609 0.0
C124 C 0.95425 0.61907 0.65357 0.0
C125 C 0.98358 0.63067 0.6385 0.0
C126 C 0.98713 0.60971 0.6016 0.0
C127 C 0.02349 0.60767 0.59928 0.0
C128 C 0.03861 0.58625 0.5834 0.0
C129 C 0.01686 0.56631 0.56974 0.0
C130 C 0.98013 0.56924 0.57167 0.0
C131 C 0.96578 0.59149 0.58736 0.0
C132 C 0.07782 0.58441 0.58149 0.0
C133 C 0.95603 0.54807 0.55763 0.0
C134 C 0.00376 0.66119 0.44043 0.0
C135 C 0.03933 0.65668 0.44492 0.0
C136 C 0.05187 0.62456 0.45234 0.0
C137 C 0.02842 0.59642 0.45509 0.0
C138 C 0.99296 0.60039 0.44946 0.0
C139 C 0.98116 0.63275 0.44203 0.0
C140 C 0.09001 0.62084 0.45766 0.0
C141 C 0.9674 0.57072 0.45185 0.0
C142 C 0.13584 0.34577 0.43448 0.0
C143 C 0.10485 0.35486 0.42021 0.0
C144 C 0.0971 0.41752 0.42141 0.0
C145 C 0.12013 0.44494 0.42559 0.0
C146 C 0.10919 0.47441 0.43734 0.0
C147 C 0.0742 0.47656 0.44462 0.0
C148 C 0.05021 0.44998 0.43902 0.0
C149 C 0.06197 0.42065 0.4275 0.0
C150 C 0.13529 0.50249 0.4428 0.0
C151 C 0.01245 0.45196 0.44591 0.0
C152 C 0.05665 0.48248 0.54931 0.0
C153 C 0.04316 0.50861 0.5627 0.0
C154 C 0.03241 0.54066 0.55448 0.0
C155 C 0.03535 0.54706 0.53223 0.0
C156 C 0.02534 0.57917 0.52343 0.0
C157 C 0.02722 0.58472 0.50142 0.0
C158 C 0.03935 0.55842 0.48736 0.0
C159 C 0.04053 0.56345 0.46491 0.0
C160 C 0.05241 0.53663 0.45139 0.0
C161 C 0.06341 0.50474 0.45972 0.0
C162 C 0.06283 0.49938 0.48214 0.0
C163 C 0.07417 0.46776 0.49107 0.0
C164 C 0.0725 0.46229 0.51306 0.0
C165 C 0.05937 0.48818 0.527 0.0
C166 C 0.0485 0.52053 0.51842 0.0
C167 C 0.05037 0.52618 0.49597 0.0
C168 C 0.97109 0.74097 0.45516 0.0
C169 C 0.00071 0.72494 0.4418 0.0
O170 O 0.09469 0.35274 0.58528 0.0
O171 O 0.10943 0.38803 0.41189 0.0
O172 O 0.99041 0.69237 0.43434 0.0
O173 O 0.97189 0.62871 0.61754 0.0
H174 H 0.13664 0.36374 0.60439 0.0
H175 H 0.15828 0.35539 0.56662 0.0
H176 H 0.14201 0.31134 0.56635 0.0
H177 H 0.17713 0.32359 0.58411 0.0
H178 H 0.03464 0.36779 0.57011 0.0
H179 H 0.1368 0.40923 0.58205 0.0
H180 H 0.99315 0.44779 0.56 0.0
H181 H 0.9899 0.40146 0.55487 0.0
H182 H 0.00682 0.43036 0.53459 0.0
H183 H 0.15313 0.46587 0.57272 0.0
H184 H 0.11759 0.49657 0.57521 0.0
H185 H 0.1312 0.48171 0.54918 0.0
H186 H 0.00563 0.61222 0.641 0.0
H187 H 0.96303 0.6203 0.6705 0.0
H188 H 0.94679 0.5917 0.64979 0.0
H189 H 0.93087 0.6359 0.65175 0.0
H190 H 0.04003 0.62273 0.6099 0.0
H191 H 0.93772 0.59366 0.58918 0.0
H192 H 0.08689 0.55855 0.5871 0.0
H193 H 0.09088 0.60499 0.59117 0.0
H194 H 0.08602 0.58707 0.56446 0.0
H195 H 0.92824 0.55105 0.56245 0.0
H196 H 0.9631 0.52 0.55831 0.0
H197 H 0.9589 0.55647 0.54073 0.0
H198 H 0.02337 0.72286 0.45277 0.0
H199 H 0.05735 0.67809 0.44262 0.0
H200 H 0.95391 0.63632 0.43808 0.0
H201 H 0.09282 0.61541 0.47502 0.0
H202 H 0.10521 0.64467 0.45375 0.0
H203 H 0.10132 0.59834 0.4487 0.0
H204 H 0.94094 0.57766 0.4461 0.0
H205 H 0.96549 0.56319 0.46897 0.0
H206 H 0.97686 0.54758 0.44271 0.0
H207 H 0.08108 0.35389 0.43055 0.0
H208 H 0.13277 0.31904 0.44102 0.0
H209 H 0.13716 0.36444 0.44816 0.0
H210 H 0.16076 0.34724 0.42533 0.0
H211 H 0.14709 0.44244 0.42046 0.0
H212 H 0.04387 0.39995 0.42346 0.0
H213 H 0.13813 0.50438 0.46048 0.0
H214 H 0.1257 0.52813 0.43713 0.0
H215 H 0.16133 0.49735 0.43552 0.0
H216 H 0.9963 0.43151 0.43808 0.0
H217 H 0.00149 0.47798 0.44207 0.0
H218 H 0.01057 0.44862 0.46355 0.0
H219 H 0.04064 0.50377 0.57976 0.0
H220 H 0.01571 0.60029 0.53346 0.0
H221 H 0.01883 0.60985 0.49556 0.0
H222 H 0.05273 0.54049 0.43417 0.0
H223 H 0.08436 0.44677 0.48115 0.0
H224 H 0.08142 0.43737 0.51897 0.0
H225 H 0.94685 0.7431 0.44559 0.0
H226 H 0.9786 0.76735 0.46104 0.0
H227 H 0.96557 0.72428 0.46926 0.0
Li228 Li 0.07364 0.05399 0.27271 0.0
Li229 Li 0.0628 0.99132 0.27597 0.0
Li230 Li 0.09637 0.01495 0.24594 0.0
Li231 Li 0.03341 0.02401 0.2486 0.0
C232 C 0.14159 0.00535 0.2762 0.0
N233 N 0.20943 0.98162 0.27245 0.0
C234 C 0.14954 0.97063 0.28082 0.0
C235 C 0.16816 0.02804 0.26975 0.0
C236 C 0.18401 0.95914 0.27883 0.0
C237 C 0.20228 0.01552 0.26791 0.0
C238 C 0.0126 0.0211 0.2983 0.0
C239 C 0.97252 0.98398 0.31752 0.0
N240 N 0.98165 -2e-05 0.33619 0.0
C241 C 0.02155 0.0372 0.31768 0.0
C242 C 0.9878 0.99434 0.29819 0.0
C243 C 0.00559 0.02616 0.33666 0.0
C244 C 0.0531 0.1178 0.29151 0.0
N245 N 0.08069 0.09597 0.28861 0.0
C246 C 0.11712 0.13331 0.30957 0.0
C247 C 0.11233 0.10311 0.29729 0.0
C248 C 0.08897 0.1562 0.31313 0.0
C249 C 0.05666 0.1482 0.30376 0.0
H250 H 0.02813 0.1112 0.2846 0.0
H251 H 0.13374 0.08518 0.29487 0.0
C252 C 0.04729 0.92217 0.28939 0.0
N253 N 0.05898 0.95401 0.29585 0.0
C254 C 0.04267 0.8955 0.30428 0.0
C255 C 0.06301 0.93469 0.33206 0.0
C256 C 0.06754 0.96046 0.31661 0.0
C257 C 0.0501 0.90181 0.32598 0.0
H258 H 0.04121 0.91757 0.27273 0.0
H259 H 0.07739 0.98586 0.3212 0.0
C260 C 0.06973 0.09362 0.23918 0.0
N261 N 0.06837 0.16564 0.23765 0.0
C262 C 0.03818 0.11115 0.23622 0.0
C263 C 0.10062 0.11272 0.24128 0.0
C264 C 0.03804 0.14757 0.23549 0.0
C265 C 0.09937 0.14912 0.24051 0.0
C266 C 0.04041 0.96278 0.22987 0.0
C267 C 0.0525 0.96261 0.20868 0.0
C268 C 0.00825 0.94748 0.23478 0.0
C269 C 0.0321 0.94722 0.19272 0.0
C270 C 0.98858 0.93247 0.21835 0.0
N271 N 0.00081 0.93264 0.19784 0.0
C272 C 0.14473 0.97123 0.22501 0.0
C273 C 0.14909 0.03071 0.21515 0.0
C274 C 0.17215 0.96239 0.21118 0.0
N275 N 0.13387 0.0049 0.22673 0.0
C276 C 0.17676 0.02308 0.20121 0.0
C277 C 0.18853 0.98851 0.19906 0.0
H278 H 0.13202 0.95126 0.23441 0.0
H279 H 0.13969 0.05718 0.21667 0.0
C280 C 0.9602 0.02661 0.24248 0.0
N281 N 0.9917 0.02779 0.23241 0.0
C282 C 0.92954 0.02575 0.23056 0.0
C283 C 0.96428 0.02888 0.19814 0.0
C284 C 0.99425 0.02987 0.21071 0.0
C285 C 0.93137 0.02613 0.20804 0.0
H286 H 0.95889 0.0257 0.25976 0.0
H287 H 0.0197 0.03115 0.20316 0.0
O288 O 0.10787 0.01687 0.27753 0.0
O289 O 0.02846 0.03103 0.27959 0.0
O290 O 0.0703 0.05801 0.24043 0.0
O291 O 0.05964 0.97842 0.24566 0.0
H292 H 0.12931 0.95263 0.28567 0.0
H293 H 0.16239 0.05485 0.26578 0.0
H294 H 0.19052 0.93231 0.28227 0.0
H295 H 0.22304 0.0327 0.26275 0.0
H296 H 0.95351 0.96312 0.31768 0.0
H297 H 0.04092 0.05768 0.31815 0.0
H298 H 0.98088 0.98125 0.2834 0.0
H299 H 0.01239 0.03829 0.35178 0.0
H300 H 0.14258 0.1386 0.31627 0.0
H301 H 0.03409 0.16473 0.30634 0.0
H302 H 0.03259 0.87051 0.29897 0.0
H303 H 0.06955 0.94041 0.34858 0.0
H304 H 0.014 0.09683 0.23471 0.0
H305 H 0.12519 0.09961 0.24391 0.0
H306 H 0.01379 0.16149 0.23329 0.0
H307 H 0.12302 0.16423 0.24228 0.0
H308 H 0.07712 0.97463 0.20452 0.0
H309 H 0.99829 0.94773 0.25104 0.0
H310 H 0.04105 0.94705 0.17623 0.0
H311 H 0.96352 0.92082 0.2219 0.0
H312 H 0.18064 0.93548 0.21012 0.0
H313 H 0.18843 0.04389 0.19195 0.0
H314 H 0.9047 0.02437 0.23887 0.0
H315 H 0.96699 0.02896 0.18085 0.0
Li316 Li 0.03627 0.01354 0.76296 0.0
Li317 Li 0.0992 0.00285 0.76152 0.0
Li318 Li 0.06992 0.03566 0.73349 0.0
Li319 Li 0.0616 0.97277 0.73686 0.0
C320 C 0.08434 0.08179 0.76321 0.0
N321 N 0.10553 0.15025 0.75861 0.0
C322 C 0.11957 0.09057 0.76518 0.0
C323 C 0.05986 0.10786 0.759 0.0
C324 C 0.12975 0.12534 0.76281 0.0
C325 C 0.07112 0.1423 0.75667 0.0
C326 C 0.07415 0.95359 0.78603 0.0
C327 C 0.11501 0.91442 0.8026 0.0
N328 N 0.10274 0.92426 0.82224 0.0
C329 C 0.06189 0.96325 0.80638 0.0
C330 C 0.10085 0.92888 0.7841 0.0
C331 C 0.07668 0.94812 0.82449 0.0
C332 C 0.97575 0.99366 0.78551 0.0
N333 N 0.99794 0.02073 0.78203 0.0
C334 C 0.96725 0.05615 0.80755 0.0
C335 C 0.99421 0.05161 0.79263 0.0
C336 C 0.94406 0.02854 0.81166 0.0
C337 C 0.9484 0.99706 0.80026 0.0
H338 H 0.97979 0.96917 0.77713 0.0
H339 H 0.01252 0.07251 0.78979 0.0
C340 C 0.17022 0.98699 0.77106 0.0
N341 N 0.13965 2e-05 0.77885 0.0
C342 C 0.1991 0.984 0.78448 0.0
C343 C 0.16448 0.00829 0.81351 0.0
C344 C 0.13646 0.01109 0.79951 0.0
C345 C 0.19625 0.99441 0.80606 0.0
H346 H 0.17211 0.97871 0.7545 0.0
H347 H 0.11192 0.0218 0.80515 0.0
C348 C 0.99044 0.00941 0.73242 0.0
N349 N 0.91853 0.00914 0.73568 0.0
C350 C 0.97195 0.97818 0.73013 0.0
C351 C 0.97235 0.04052 0.73627 0.0
C352 C 0.9356 0.97859 0.73183 0.0
C353 C 0.936 0.03983 0.73792 0.0
C354 C 0.11799 0.97932 0.71346 0.0
C355 C 0.11339 0.99115 0.69253 0.0
C356 C 0.13411 0.94716 0.71692 0.0
C357 C 0.12491 0.97046 0.67536 0.0
C358 C 0.14518 0.9272 0.69931 0.0
N359 N 0.14039 0.93917 0.67907 0.0
C360 C 0.10889 0.08517 0.71063 0.0
C361 C 0.04799 0.08834 0.70461 0.0
C362 C 0.11468 0.11387 0.69745 0.0
N363 N 0.07594 0.07329 0.7141 0.0
C364 C 0.05257 0.11715 0.69131 0.0
C365 C 0.08627 0.13041 0.68769 0.0
H366 H 0.13062 0.07258 0.71839 0.0
H367 H 0.02213 0.07815 0.70748 0.0
C368 C 0.05418 0.89988 0.73282 0.0
N369 N 0.05361 0.93021 0.7217 0.0
C370 C 0.04763 0.86822 0.72245 0.0
C371 C 0.03985 0.89952 0.68932 0.0
C372 C 0.04646 0.93066 0.70038 0.0
C373 C 0.04019 0.86776 0.70043 0.0
H374 H 0.05935 0.90028 0.7498 0.0
H375 H 0.04554 0.95526 0.69202 0.0
O376 O 0.07395 0.04777 0.76495 0.0
O377 O 0.06059 0.96872 0.76811 0.0
O378 O 0.02608 0.00945 0.73122 0.0
O379 O 0.10634 0.9989 0.73048 0.0
H380 H 0.13891 0.07072 0.76827 0.0
H381 H 0.03255 0.10147 0.75716 0.0
H382 H 0.15695 0.13248 0.7642 0.0
H383 H 0.0525 0.16268 0.75322 0.0
H384 H 0.13588 0.8955 0.80135 0.0
H385 H 0.0415 0.98254 0.80823 0.0
H386 H 0.11097 0.9214 0.76851 0.0
H387 H 0.06756 0.95548 0.84034 0.0
H388 H 0.96469 0.08093 0.81588 0.0
H389 H 0.93151 0.97492 0.80317 0.0
H390 H 0.22318 0.97313 0.77816 0.0
H391 H 0.16141 0.01715 0.82994 0.0
H392 H 0.9855 0.95382 0.72727 0.0
H393 H 0.98625 0.06486 0.73837 0.0
H394 H 0.92096 0.9546 0.73018 0.0
H395 H 0.92168 0.06366 0.74107 0.0
H396 H 0.10075 0.01585 0.68955 0.0
H397 H 0.13757 0.93746 0.733 0.0
H398 H 0.1214 0.97922 0.65907 0.0
H399 H 0.15747 0.90215 0.70174 0.0
H400 H 0.14104 0.12343 0.69528 0.0
H401 H 0.03001 0.1288 0.68384 0.0
H402 H 0.04846 0.84432 0.73159 0.0
H403 H 0.03377 0.90036 0.67241 0.0
C404 C 0.32754 0.96118 0.10453 0.0
C405 C 0.35442 0.93826 0.11022 0.0
C406 C 0.30062 0.96953 0.11902 0.0
C407 C 0.30064 0.9547 0.13974 0.0
C408 C 0.32771 0.93161 0.14561 0.0
C409 C 0.35417 0.9235 0.13073 0.0
C410 C 0.27206 0.99406 0.11212 0.0
C411 C 0.32865 0.91539 0.16758 0.0
C412 C 0.24762 0.00031 0.18333 0.0
C413 C 0.21745 0.97965 0.18406 0.0
C414 C 0.27505 0.99232 0.16911 0.0
C415 C 0.2721 0.96312 0.15519 0.0
C416 C 0.2417 0.94216 0.15587 0.0
C417 C 0.21479 0.95062 0.17035 0.0
C418 C 0.30719 0.01509 0.16897 0.0
C419 C 0.23747 0.91101 0.14115 0.0
H420 H 0.32756 0.97245 0.08864 0.0
H421 H 0.37475 0.90559 0.13513 0.0
H422 H 0.2464 0.98078 0.11322 0.0
H423 H 0.27103 0.01705 0.12302 0.0
H424 H 0.27588 0.00334 0.09544 0.0
H425 H 0.35186 0.89846 0.16976 0.0
H426 H 0.32888 0.93613 0.18009 0.0
H427 H 0.30484 0.89951 0.17023 0.0
H428 H 0.24993 0.02253 0.19408 0.0
H429 H 0.19133 0.93483 0.17069 0.0
H430 H 0.31093 0.02668 0.15287 0.0
H431 H 0.33063 0.99911 0.17233 0.0
H432 H 0.30561 0.03655 0.18102 0.0
H433 H 0.23883 0.91947 0.12419 0.0
H434 H 0.21231 0.89726 0.14379 0.0
H435 H 0.25908 0.89225 0.14362 0.0
C436 C 0.09792 0.28348 0.60141 0.0
C437 C 0.1191 0.31103 0.60855 0.0
C438 C 0.09217 0.25403 0.61418 0.0
C439 C 0.10822 0.25193 0.6345 0.0
C440 C 0.12987 0.27949 0.64172 0.0
C441 C 0.13517 0.30864 0.62861 0.0
C442 C 0.06902 0.22511 0.6059 0.0
C443 C 0.14753 0.27811 0.66326 0.0
C444 C 0.06936 0.1903 0.67567 0.0
C445 C 0.09176 0.16146 0.67395 0.0
C446 C 0.07442 0.21994 0.66294 0.0
C447 C 0.10256 0.22074 0.64814 0.0
C448 C 0.12525 0.19172 0.64631 0.0
C449 C 0.11958 0.16243 0.65924 0.0
C450 C 0.04976 0.25045 0.66538 0.0
C451 C 0.15548 0.19156 0.63066 0.0
H452 H 0.08592 0.285 0.58576 0.0
H453 H 0.15197 0.32963 0.63403 0.0
H454 H 0.08395 0.20034 0.6049 0.0
H455 H 0.04696 0.22084 0.61718 0.0
H456 H 0.0583 0.23089 0.58981 0.0
H457 H 0.16328 0.30185 0.6666 0.0
H458 H 0.12772 0.27524 0.67618 0.0
H459 H 0.16488 0.25498 0.66395 0.0
H460 H 0.04812 0.18992 0.68722 0.0
H461 H 0.13672 0.14005 0.65765 0.0
H462 H 0.03715 0.25598 0.64982 0.0
H463 H 0.06447 0.27418 0.67012 0.0
H464 H 0.02908 0.24563 0.67757 0.0
H465 H 0.14574 0.19495 0.61409 0.0
H466 H 0.17081 0.167 0.63128 0.0
H467 H 0.17314 0.2138 0.63412 0.0
C468 C 0.74958 0.00989 0.14494 0.0
C469 C 0.75224 0.98252 0.12995 0.0
C470 C 0.77837 0.02001 0.15731 0.0
C471 C 0.81048 0.00218 0.15471 0.0
C472 C 0.81351 0.97505 0.13928 0.0
C473 C 0.7843 0.96542 0.12718 0.0
C474 C 0.7741 0.04895 0.17368 0.0
C475 C 0.84731 0.95541 0.13602 0.0
C476 C 0.89487 0.04076 0.17601 0.0
C477 C 0.89935 0.02182 0.19497 0.0
C478 C 0.86566 0.03523 0.16294 0.0
C479 C 0.84034 0.01024 0.16901 0.0
C480 C 0.8443 0.99164 0.18836 0.0
C481 C 0.87378 0.99758 0.20105 0.0
C482 C 0.86227 0.05558 0.14243 0.0
C483 C 0.81785 0.96477 0.19539 0.0
H484 H 0.72468 0.02281 0.14733 0.0
H485 H 0.78633 0.94396 0.11583 0.0
H486 H 0.77708 0.03824 0.19004 0.0
H487 H 0.79473 0.06893 0.17147 0.0
H488 H 0.74822 0.06184 0.17265 0.0
H489 H 0.84595 0.93648 0.12247 0.0
H490 H 0.86897 0.97393 0.13289 0.0
H491 H 0.85383 0.94098 0.15081 0.0
H492 H 0.91429 0.05985 0.17134 0.0
H493 H 0.87728 0.98242 0.21548 0.0
H494 H 0.83677 0.06923 0.14209 0.0
H495 H 0.86303 0.03743 0.12849 0.0
H496 H 0.8834 0.07516 0.14048 0.0
H497 H 0.79139 0.97647 0.19597 0.0
H498 H 0.82384 0.95388 0.2114 0.0
H499 H 0.81715 0.94299 0.18358 0.0
C500 C 0.02466 0.67303 0.65645 0.0
C501 C 0.99482 0.6675 0.64401 0.0
C502 C 0.03337 0.7065 0.66393 0.0
C503 C 0.01152 0.73508 0.65901 0.0
C504 C 0.98196 0.72986 0.64588 0.0
C505 C 0.97389 0.69609 0.6386 0.0
C506 C 0.06512 0.71099 0.67788 0.0
C507 C 0.95802 0.75968 0.6403 0.0
C508 C 0.01034 0.80975 0.69925 0.0
C509 C 0.03211 0.83432 0.68935 0.0
C510 C 0.00313 0.77759 0.68939 0.0
C511 C 0.01801 0.76976 0.66909 0.0
C512 C 0.03959 0.79463 0.65882 0.0
C513 C 0.04636 0.82667 0.66907 0.0
C514 C 0.97983 0.75184 0.70083 0.0
C515 C 0.05593 0.78714 0.63719 0.0
H516 H 0.04068 0.65094 0.66083 0.0
H517 H 0.95058 0.6918 0.62919 0.0
H518 H 0.08187 0.73232 0.67169 0.0
H519 H 0.05686 0.71846 0.69436 0.0
H520 H 0.08094 0.68676 0.67874 0.0
H521 H 0.93797 0.75188 0.62842 0.0
H522 H 0.94457 0.76924 0.65502 0.0
H523 H 0.97326 0.78181 0.63374 0.0
H524 H 0.99875 0.81575 0.71474 0.0
H525 H 0.06342 0.84546 0.66142 0.0
H526 H 0.99445 0.72743 0.70394 0.0
H527 H 0.95731 0.74488 0.69057 0.0
H528 H 0.96978 0.76224 0.71635 0.0
H529 H 0.07365 0.76436 0.63832 0.0
H530 H 0.07104 0.80971 0.63101 0.0
H531 H 0.03545 0.78028 0.6254 0.0
C532 C 0.33977 0.01861 0.89554 0.0
C533 C 0.3621 0.99 0.89807 0.0
C534 C 0.31418 0.01864 0.8796 0.0
C535 C 0.31056 0.98916 0.86599 0.0
C536 C 0.33325 0.9603 0.86828 0.0
C537 C 0.35878 0.96106 0.88431 0.0
C538 C 0.29052 0.04995 0.87762 0.0
C539 C 0.33001 0.92833 0.85415 0.0
C540 C 0.22105 0.97747 0.84144 0.0
C541 C 0.22616 0.99103 0.82084 0.0
C542 C 0.24859 0.97575 0.85607 0.0
C543 C 0.282 0.98812 0.84999 0.0
C544 C 0.28753 0.00109 0.82904 0.0
C545 C 0.25953 0.00227 0.81467 0.0
C546 C 0.24174 0.96141 0.87818 0.0
C547 C 0.32274 0.01468 0.82205 0.0
H548 H 0.34204 0.04088 0.90626 0.0
H549 H 0.37583 0.93879 0.88638 0.0
H550 H 0.29136 0.05999 0.86099 0.0
H551 H 0.26317 0.04223 0.88107 0.0
H552 H 0.29783 0.07143 0.88878 0.0
H553 H 0.35063 0.90873 0.85739 0.0
H554 H 0.30417 0.91596 0.85675 0.0
H555 H 0.33157 0.93578 0.83702 0.0
H556 H 0.19539 0.96827 0.84613 0.0
H557 H 0.26349 0.01298 0.7988 0.0
H558 H 0.24577 0.98221 0.89039 0.0
H559 H 0.26041 0.94012 0.88168 0.0
H560 H 0.21478 0.95115 0.87998 0.0
H561 H 0.32974 0.03786 0.83188 0.0
H562 H 0.32319 0.02217 0.80488 0.0
H563 H 0.34311 0.99465 0.82469 0.0
C564 C 0.07452 0.30352 0.40289 0.0
C565 C 0.10134 0.32837 0.40223 0.0
C566 C 0.07232 0.27703 0.38733 0.0
C567 C 0.09782 0.27508 0.37083 0.0
C568 C 0.12462 0.30045 0.36984 0.0
C569 C 0.12604 0.32685 0.38555 0.0
C570 C 0.04322 0.25058 0.38887 0.0
C571 C 0.15238 0.29909 0.35257 0.0
C572 C 0.11201 0.18528 0.34627 0.0
C573 C 0.09282 0.18741 0.32725 0.0
C574 C 0.11456 0.21392 0.3603 0.0
C575 C 0.09728 0.24544 0.35531 0.0
C576 C 0.07835 0.24802 0.33598 0.0
C577 C 0.07642 0.219 0.32215 0.0
C578 C 0.13506 0.21015 0.38075 0.0
C579 C 0.05956 0.2812 0.33013 0.0
H580 H 0.05551 0.30448 0.41582 0.0
H581 H 0.14692 0.34591 0.3851 0.0
H582 H 0.02884 0.24916 0.37351 0.0
H583 H 0.05429 0.22431 0.39182 0.0
H584 H 0.02442 0.25688 0.40196 0.0
H585 H 0.17033 0.32182 0.35337 0.0
H586 H 0.16795 0.27486 0.3542 0.0
H587 H 0.14018 0.29832 0.33651 0.0
H588 H 0.12432 0.16086 0.35052 0.0
H589 H 0.06198 0.22104 0.30734 0.0
H590 H 0.11732 0.21287 0.39479 0.0
H591 H 0.15486 0.23117 0.38198 0.0
H592 H 0.14852 0.18454 0.3817 0.0
H593 H 0.03912 0.28707 0.34231 0.0
H594 H 0.04708 0.2794 0.31414 0.0
H595 H 0.07804 0.30348 0.33012 0.0
C596 C 0.81298 0.01041 0.91043 0.0
C597 C 0.79057 0.03906 0.91299 0.0
C598 C 0.83691 0.00873 0.89333 0.0
C599 C 0.83865 0.03651 0.87853 0.0
C600 C 0.81595 0.06544 0.88094 0.0
C601 C 0.79229 0.06645 0.89821 0.0
C602 C 0.86077 0.9775 0.89134 0.0
C603 C 0.81712 0.0956 0.86552 0.0
C604 C 0.924 0.0478 0.84816 0.0
C605 C 0.91647 0.03196 0.82838 0.0
C606 C 0.89874 0.04991 0.8645 0.0
C607 C 0.86511 0.0358 0.86099 0.0
C608 C 0.85715 0.02024 0.84096 0.0
C609 C 0.88293 0.01849 0.82489 0.0
C610 C 0.90827 0.06662 0.88567 0.0
C611 C 0.82152 0.00507 0.8366 0.0
H612 H 0.81205 0.98945 0.92199 0.0
H613 H 0.77538 0.08889 0.90035 0.0
H614 H 0.85793 0.96516 0.8753 0.0
H615 H 0.88833 0.98597 0.89282 0.0
H616 H 0.85532 0.95758 0.90377 0.0
H617 H 0.79672 0.11542 0.86912 0.0
H618 H 0.84303 0.10843 0.86624 0.0
H619 H 0.8136 0.086 0.84885 0.0
H620 H 0.94999 0.05782 0.85109 0.0
H621 H 0.87683 0.00659 0.80955 0.0
H622 H 0.90616 0.04711 0.89867 0.0
H623 H 0.88979 0.08804 0.8896 0.0
H624 H 0.93518 0.07736 0.88558 0.0
H625 H 0.81605 0.98359 0.84796 0.0
H626 H 0.81922 0.99473 0.81998 0.0
H627 H 0.80117 0.02526 0.83922 0.0
C628 C 0.98639 0.75261 0.40619 0.0
C629 C 0.00989 0.74824 0.4231 0.0
C630 C 0.99334 0.77627 0.38965 0.0
C631 C 0.02465 0.79586 0.38996 0.0
C632 C 0.04893 0.79081 0.40665 0.0
C633 C 0.04116 0.7672 0.4231 0.0
C634 C 0.9667 0.78107 0.37219 0.0
C635 C 0.08273 0.811 0.40743 0.0
C636 C 0.05456 0.84004 0.33864 0.0
C637 C 0.04373 0.87454 0.3423 0.0
C638 C 0.04865 0.81411 0.35404 0.0
C639 C 0.03121 0.82289 0.37342 0.0
C640 C 0.02002 0.85764 0.37711 0.0
C641 C 0.02654 0.88306 0.36153 0.0
C642 C 0.06124 0.77741 0.34964 0.0
C643 C 0.001 0.86795 0.39747 0.0
H644 H 0.96217 0.738 0.4062 0.0
H645 H 0.05934 0.76394 0.43616 0.0
H646 H 0.95652 0.80817 0.37273 0.0
H647 H 0.97903 0.77711 0.35622 0.0
H648 H 0.94439 0.76275 0.37377 0.0
H649 H 0.09978 0.80244 0.42073 0.0
H650 H 0.09722 0.80788 0.39208 0.0
H651 H 0.07714 0.83922 0.40956 0.0
H652 H 0.06811 0.83345 0.32385 0.0
H653 H 0.0177 0.90961 0.36427 0.0
H654 H 0.03894 0.75898 0.35016 0.0
H655 H 0.07976 0.76936 0.36227 0.0
H656 H 0.07441 0.77487 0.33379 0.0
H657 H 0.97692 0.85214 0.39924 0.0
H658 H 0.99373 0.89601 0.39777 0.0
H659 H 0.01759 0.86254 0.41157 0.0
loop_
_geom_bond_atom_site_label_1
_geom_bond_atom_site_label_2
_geom_bond_distance
_geom_bond_site_symmetry_2
_ccdc_geom_bond_type
C0 C1 1.560 . S
C0 H61 0.959 . S
C0 H62 0.959 . S
C0 H63 0.960 . S
C1 C0 1.560 . S
C1 O56 1.426 . S
C1 H60 0.980 . S
C2 C3 1.407 1_545 S
C2 C7 1.418 . S
C2 O56 1.334 . S
C3 C2 1.407 1_565 S
C3 C4 1.360 . S
C3 H64 0.929 . S
C4 C3 1.360 . S
C4 C5 1.401 1_565 S
C4 C8 1.527 . S
C5 C4 1.401 1_545 S
C5 C6 1.405 . S
C5 C38 1.587 1_545 S
C6 C5 1.405 . S
C6 C7 1.332 . S
C6 C9 1.496 . S
C7 C2 1.418 . S
C7 C6 1.332 . S
C7 H65 0.929 . S
C8 C4 1.527 . S
C8 H66 0.959 . S
C8 H67 0.961 . S
C8 H68 0.961 . S
C9 C6 1.496 . S
C9 H69 0.960 . S
C9 H70 0.960 . S
C9 H71 0.961 . S
C10 C11 1.517 . S
C10 H73 0.961 . S
C10 H74 0.960 . S
C10 H75 0.959 . S
C11 C10 1.517 . S
C11 O59 1.468 . S
C11 H72 0.980 1_565 S
C12 C13 1.349 . S
C12 C17 1.367 . S
C12 O59 1.408 . S
C13 C12 1.349 . S
C13 C14 1.407 1_565 S
C13 H76 0.930 1_565 S
C14 C13 1.407 1_545 S
C14 C15 1.449 1_545 S
C14 C18 1.535 . S
C15 C14 1.449 1_565 S
C15 C16 1.384 . S
C15 C40 1.553 . S
C16 C15 1.384 . S
C16 C17 1.364 . S
C16 C19 1.450 . S
C17 C12 1.367 . S
C17 C16 1.364 . S
C17 H77 0.931 . S
C18 C14 1.535 . S
C18 H78 0.959 . S
C18 H79 0.961 . S
C18 H80 0.959 . S
C19 C16 1.450 . S
C19 H81 0.960 . S
C19 H82 0.960 . S
C19 H83 0.960 . S
C20 C21 1.309 1_565 S
C20 C25 1.304 . S
C20 O58 1.435 . S
C21 C20 1.309 1_545 S
C21 C22 1.476 . S
C21 H85 0.930 . S
C22 C21 1.476 . S
C22 C23 1.400 1_545 S
C22 C26 1.567 . S
C23 C22 1.400 1_565 S
C23 C24 1.373 . S
C23 C45 1.432 . S
C24 C23 1.373 . S
C24 C25 1.339 . S
C24 C27 1.530 . S
C25 C20 1.304 . S
C25 C24 1.339 . S
C25 H86 0.930 . S
C26 C22 1.567 . S
C26 H87 0.961 . S
C26 H88 0.960 . S
C26 H89 0.958 . S
C27 C24 1.530 . S
C27 H90 0.961 . S
C27 H91 0.960 . S
C27 H92 0.960 . S
C28 C29 1.530 . S
C28 H94 0.961 . S
C28 H95 0.961 . S
C28 H96 0.959 . S
C29 C28 1.530 . S
C29 O57 1.412 . S
C29 H93 0.997 . S
C30 C31 1.288 . S
C30 C35 1.377 1_545 S
C30 O57 1.393 . S
C31 C30 1.288 . S
C31 C32 1.369 . S
C31 H97 0.932 . S
C32 C31 1.369 . S
C32 C33 1.398 . S
C32 C36 1.527 . S
C33 C32 1.398 . S
C33 C34 1.380 1_545 S
C33 C47 1.494 1_545 S
C34 C33 1.380 1_565 S
C34 C35 1.383 . S
C34 C37 1.603 . S
C35 C30 1.377 1_565 S
C35 C34 1.383 . S
C35 H98 0.929 . S
C36 C32 1.527 . S
C36 H99 0.961 . S
C36 H100 0.959 . S
C36 H101 0.959 . S
C37 C34 1.603 . S
C37 H102 0.960 . S
C37 H103 0.962 . S
C37 H104 0.961 . S
C38 C5 1.587 1_565 S
C38 C39 1.360 . S
C38 C51 1.412 . S
C39 C38 1.360 . S
C39 C40 1.365 . S
C39 H105 0.929 . S
C40 C15 1.553 . S
C40 C39 1.365 . S
C40 C41 1.404 . S
C41 C40 1.404 . S
C41 C42 1.395 . S
C41 C52 1.451 . S
C42 C41 1.395 . S
C42 C43 1.322 . S
C42 H106 0.930 . S
C43 C42 1.322 . S
C43 C44 1.459 1_554 S
C43 H107 0.929 1_554 S
C44 C43 1.459 1_556 S
C44 C45 1.445 . S
C44 C53 1.395 1_556 S
C45 C23 1.432 . S
C45 C44 1.445 . S
C45 C46 1.370 . S
C46 C45 1.370 . S
C46 C47 1.440 . S
C46 H108 0.930 . S
C47 C33 1.494 1_565 S
C47 C46 1.440 . S
C47 C48 1.362 . S
C48 C47 1.362 . S
C48 C49 1.399 1_566 S
C48 C53 1.446 1_556 S
C49 C48 1.399 1_544 S
C49 C50 1.346 1_545 S
C49 H109 0.932 1_554 S
C50 C49 1.346 1_565 S
C50 C51 1.455 . S
C50 H110 0.930 1_565 S
C51 C38 1.412 . S
C51 C50 1.455 . S
C51 C52 1.331 . S
C52 C41 1.451 . S
C52 C51 1.331 . S
C52 C53 1.497 . S
C53 C44 1.395 1_554 S
C53 C48 1.446 1_554 S
C53 C52 1.497 . S
C54 C55 1.582 . S
C54 H111 0.962 . S
C54 H112 0.959 . S
C54 H113 0.958 . S
C55 C54 1.582 . S
C55 O58 1.458 . S
C55 H84 0.980 1_565 S
O56 C1 1.426 . S
O56 C2 1.334 . S
O57 C29 1.412 . S
O57 C30 1.393 . S
O58 C20 1.435 . S
O58 C55 1.458 . S
O59 C11 1.468 . S
O59 C12 1.408 . S
H60 C1 0.980 . S
H61 C0 0.959 . S
H62 C0 0.959 . S
H63 C0 0.960 . S
H64 C3 0.929 . S
H65 C7 0.929 . S
H66 C8 0.959 . S
H67 C8 0.961 . S
H68 C8 0.961 . S
H69 C9 0.960 . S
H70 C9 0.960 . S
H71 C9 0.961 . S
H72 C11 0.980 1_545 S
H73 C10 0.961 . S
H74 C10 0.960 . S
H75 C10 0.959 . S
H76 C13 0.930 1_545 S
H77 C17 0.931 . S
H78 C18 0.959 . S
H79 C18 0.961 . S
H80 C18 0.959 . S
H81 C19 0.960 . S
H82 C19 0.960 . S
H83 C19 0.960 . S
H84 C55 0.980 1_545 S
H85 C21 0.930 . S
H86 C25 0.930 . S
H87 C26 0.961 . S
H88 C26 0.960 . S
H89 C26 0.958 . S
H90 C27 0.961 . S
H91 C27 0.960 . S
H92 C27 0.960 . S
H93 C29 0.997 . S
H94 C28 0.961 . S
H95 C28 0.961 . S
H96 C28 0.959 . S
H97 C31 0.932 . S
H98 C35 0.929 . S
H99 C36 0.961 . S
H100 C36 0.959 . S
H101 C36 0.959 . S
H102 C37 0.960 . S
H103 C37 0.962 . S
H104 C37 0.961 . S
H105 C39 0.929 . S
H106 C42 0.930 . S
H107 C43 0.929 1_556 S
H108 C46 0.930 . S
H109 C49 0.932 1_556 S
H110 C50 0.930 1_545 S
H111 C54 0.962 . S
H112 C54 0.959 . S
H113 C54 0.958 . S
C114 C115 1.560 . S
C114 H175 0.959 . S
C114 H176 0.959 . S
C114 H177 0.960 . S
C115 C114 1.560 . S
C115 O170 1.426 . S
C115 H174 0.980 . S
C116 C117 1.407 . S
C116 C121 1.418 . S
C116 O170 1.334 . S
C117 C116 1.407 . S
C117 C118 1.360 . S
C117 H178 0.929 . S
C118 C117 1.360 . S
C118 C119 1.401 . S
C118 C122 1.527 1_455 S
C119 C118 1.401 . S
C119 C120 1.405 . S
C119 C152 1.587 . S
C120 C119 1.405 . S
C120 C121 1.332 . S
C120 C123 1.496 . S
C121 C116 1.418 . S
C121 C120 1.332 . S
C121 H179 0.929 . S
C122 C118 1.527 1_655 S
C122 H180 0.959 . S
C122 H181 0.961 . S
C122 H182 0.961 . S
C123 C120 1.496 . S
C123 H183 0.960 . S
C123 H184 0.960 . S
C123 H185 0.961 . S
C124 C125 1.517 . S
C124 H187 0.961 . S
C124 H188 0.960 . S
C124 H189 0.959 . S
C125 C124 1.517 . S
C125 O173 1.468 . S
C125 H186 0.980 . S
C126 C127 1.349 . S
C126 C131 1.367 1_455 S
C126 O173 1.408 . S
C127 C126 1.349 . S
C127 C128 1.407 . S
C127 H190 0.930 . S
C128 C127 1.407 . S
C128 C129 1.449 . S
C128 C132 1.535 . S
C129 C128 1.449 . S
C129 C130 1.384 1_455 S
C129 C154 1.553 . S
C130 C129 1.384 1_655 S
C130 C131 1.364 . S
C130 C133 1.450 . S
C131 C126 1.367 1_655 S
C131 C130 1.364 . S
C131 H191 0.931 . S
C132 C128 1.535 . S
C132 H192 0.959 . S
C132 H193 0.961 . S
C132 H194 0.959 . S
C133 C130 1.450 . S
C133 H195 0.960 . S
C133 H196 0.960 . S
C133 H197 0.960 . S
C134 C135 1.309 . S
C134 C139 1.304 . S
C134 O172 1.435 . S
C135 C134 1.309 . S
C135 C136 1.476 . S
C135 H199 0.930 . S
C136 C135 1.476 . S
C136 C137 1.400 . S
C136 C140 1.567 . S
C137 C136 1.400 . S
C137 C138 1.373 . S
C137 C159 1.432 . S
C138 C137 1.373 . S
C138 C139 1.339 . S
C138 C141 1.530 1_455 S
C139 C134 1.304 . S
C139 C138 1.339 . S
C139 H200 0.930 1_455 S
C140 C136 1.567 . S
C140 H201 0.961 . S
C140 H202 0.960 . S
C140 H203 0.958 . S
C141 C138 1.530 1_655 S
C141 H204 0.961 . S
C141 H205 0.960 . S
C141 H206 0.960 . S
C142 C143 1.530 . S
C142 H208 0.961 . S
C142 H209 0.961 . S
C142 H210 0.959 . S
C143 C142 1.530 . S
C143 O171 1.412 . S
C143 H207 0.980 . S
C144 C145 1.288 . S
C144 C149 1.377 . S
C144 O171 1.393 . S
C145 C144 1.288 . S
C145 C146 1.369 . S
C145 H211 0.932 . S
C146 C145 1.369 . S
C146 C147 1.398 . S
C146 C150 1.527 . S
C147 C146 1.398 . S
C147 C148 1.380 . S
C147 C161 1.497 . S
C148 C147 1.380 . S
C148 C149 1.383 . S
C148 C151 1.603 . S
C149 C144 1.377 . S
C149 C148 1.383 . S
C149 H212 0.929 . S
C150 C146 1.527 . S
C150 H213 0.961 . S
C150 H214 0.959 . S
C150 H215 0.959 . S
C151 C148 1.603 . S
C151 H216 0.960 1_455 S
C151 H217 0.962 1_455 S
C151 H218 0.961 1_455 S
C152 C119 1.587 . S
C152 C153 1.360 . S
C152 C165 1.412 . S
C153 C152 1.360 . S
C153 C154 1.365 . S
C153 H219 0.929 . S
C154 C129 1.553 . S
C154 C153 1.365 . S
C154 C155 1.404 . S
C155 C154 1.404 . S
C155 C156 1.395 . S
C155 C166 1.451 . S
C156 C155 1.395 . S
C156 C157 1.322 . S
C156 H220 0.930 . S
C157 C156 1.322 . S
C157 C158 1.459 . S
C157 H221 0.929 . S
C158 C157 1.459 . S
C158 C159 1.445 . S
C158 C167 1.395 . S
C159 C137 1.432 . S
C159 C158 1.445 . S
C159 C160 1.370 . S
C160 C159 1.370 . S
C160 C161 1.438 . S
C160 H222 0.930 . S
C161 C147 1.497 . S
C161 C160 1.438 . S
C161 C162 1.360 . S
C162 C161 1.360 . S
C162 C163 1.401 . S
C162 C167 1.446 . S
C163 C162 1.401 . S
C163 C164 1.347 . S
C163 H223 0.929 . S
C164 C163 1.347 . S
C164 C165 1.455 . S
C164 H224 0.930 . S
C165 C152 1.412 . S
C165 C164 1.455 . S
C165 C166 1.331 . S
C166 C155 1.451 . S
C166 C165 1.331 . S
C166 C167 1.497 . S
C167 C158 1.395 . S
C167 C162 1.446 . S
C167 C166 1.497 . S
C168 C169 1.582 . S
C168 H225 0.962 . S
C168 H226 0.959 . S
C168 H227 0.958 . S
C169 C168 1.582 . S
C169 O172 1.458 . S
C169 H198 0.980 . S
O170 C115 1.426 . S
O170 C116 1.334 . S
O171 C143 1.412 . S
O171 C144 1.393 . S
O172 C134 1.435 . S
O172 C169 1.458 . S
O173 C125 1.468 . S
O173 C126 1.408 . S
H174 C115 0.980 . S
H175 C114 0.959 . S
H176 C114 0.959 . S
H177 C114 0.960 . S
H178 C117 0.929 . S
H179 C121 0.929 . S
H180 C122 0.959 . S
H181 C122 0.961 . S
H182 C122 0.961 . S
H183 C123 0.960 . S
H184 C123 0.960 . S
H185 C123 0.961 . S
H186 C125 0.980 . S
H187 C124 0.961 . S
H188 C124 0.960 . S
H189 C124 0.959 . S
H190 C127 0.930 . S
H191 C131 0.931 . S
H192 C132 0.959 . S
H193 C132 0.961 . S
H194 C132 0.959 . S
H195 C133 0.960 . S
H196 C133 0.960 . S
H197 C133 0.960 . S
H198 C169 0.980 . S
H199 C135 0.930 . S
H200 C139 0.930 1_655 S
H201 C140 0.961 . S
H202 C140 0.960 . S
H203 C140 0.958 . S
H204 C141 0.961 . S
H205 C141 0.960 . S
H206 C141 0.960 . S
H207 C143 0.980 . S
H208 C142 0.961 . S
H209 C142 0.961 . S
H210 C142 0.959 . S
H211 C145 0.932 . S
H212 C149 0.929 . S
H213 C150 0.961 . S
H214 C150 0.959 . S
H215 C150 0.959 . S
H216 C151 0.960 1_655 S
H217 C151 0.962 1_655 S
H218 C151 0.961 1_655 S
H219 C153 0.929 . S
H220 C156 0.930 . S
H221 C157 0.929 . S
H222 C160 0.930 . S
H223 C163 0.929 . S
H224 C164 0.930 . S
H225 C168 0.962 . S
H226 C168 0.959 . S
H227 C168 0.958 . S
Li228 N245 1.990 . S
Li228 O288 1.956 . S
Li228 O289 1.970 . S
Li228 O290 1.961 . S
Li229 N253 1.990 . S
Li229 O288 1.970 1_565 S
Li229 O289 1.956 1_565 S
Li229 O291 1.961 . S
Li230 N275 1.990 . S
Li230 O288 1.961 . S
Li230 O290 1.956 . S
Li230 O291 1.970 1_545 S
Li231 N281 1.990 1_455 S
Li231 O289 1.961 . S
Li231 O290 1.970 . S
Li231 O291 1.956 1_545 S
C232 C234 1.348 1_545 S
C232 C235 1.356 . S
C232 O288 1.325 . S
N233 C236 1.314 1_545 S
N233 C237 1.279 . S
C234 C232 1.348 1_565 S
C234 C236 1.353 . S
C234 H292 0.929 . S
C235 C232 1.356 . S
C235 C237 1.358 . S
C235 H293 0.930 . S
C236 N233 1.314 1_565 S
C236 C234 1.353 . S
C236 H294 0.930 . S
C237 N233 1.279 . S
C237 C235 1.358 . S
C237 H295 0.930 . S
C238 C241 1.348 . S
C238 C242 1.359 1_545 S
C238 O289 1.321 1_655 S
C239 N240 1.279 1_565 S
C239 C242 1.358 . S
C239 H296 0.930 . S
N240 C239 1.279 1_545 S
N240 C243 1.314 . S
C241 C238 1.348 . S
C241 C243 1.353 . S
C241 H297 0.929 1_655 S
C242 C238 1.359 1_565 S
C242 C239 1.358 . S
C242 H298 0.930 . S
C243 N240 1.314 . S
C243 C241 1.353 . S
C243 H299 0.930 . S
C244 N245 1.314 . S
C244 C249 1.353 . S
C244 H250 0.930 . S
N245 Li228 1.990 . S
N245 C244 1.314 . S
N245 C247 1.279 . S
C246 C247 1.358 . S
C246 C248 1.356 . S
C246 H300 0.930 . S
C247 N245 1.279 . S
C247 C246 1.358 . S
C247 H251 0.930 . S
C248 C246 1.356 . S
C248 C249 1.348 . S
C249 C244 1.353 . S
C249 C248 1.348 . S
C249 H301 0.929 . S
H250 C244 0.930 . S
H251 C247 0.930 . S
C252 N253 1.314 . S
C252 C254 1.353 . S
C252 H258 0.930 . S
N253 Li229 1.990 . S
N253 C252 1.314 . S
N253 C256 1.279 . S
C254 C252 1.353 . S
C254 C257 1.348 . S
C254 H302 0.929 . S
C255 C256 1.358 . S
C255 C257 1.356 . S
C255 H303 0.930 . S
C256 N253 1.279 . S
C256 C255 1.358 . S
C256 H259 0.930 . S
C257 C254 1.348 . S
C257 C255 1.356 . S
H258 C252 0.930 . S
H259 C256 0.930 . S
C260 C262 1.348 . S
C260 C263 1.356 . S
C260 O290 1.325 . S
N261 C264 1.314 . S
N261 C265 1.279 . S
C262 C260 1.348 . S
C262 C264 1.353 . S
C262 H304 0.929 . S
C263 C260 1.356 . S
C263 C265 1.358 . S
C263 H305 0.930 . S
C264 N261 1.314 . S
C264 C262 1.353 . S
C264 H306 0.930 . S
C265 N261 1.279 . S
C265 C263 1.358 . S
C265 H307 0.930 . S
C266 C267 1.348 . S
C266 C268 1.356 . S
C266 O291 1.325 . S
C267 C266 1.348 . S
C267 C269 1.353 . S
C267 H308 0.929 . S
C268 C266 1.356 . S
C268 C270 1.358 . S
C268 H309 0.930 . S
C269 C267 1.353 . S
C269 N271 1.314 . S
C269 H310 0.930 . S
C270 C268 1.358 . S
C270 N271 1.279 . S
C270 H311 0.930 . S
N271 C269 1.314 . S
N271 C270 1.279 . S
C272 C274 1.353 . S
C272 N275 1.314 1_565 S
C272 H278 0.930 . S
C273 N275 1.279 . S
C273 C276 1.358 . S
C273 H279 0.930 . S
C274 C272 1.353 . S
C274 C277 1.348 1_565 S
C274 H312 0.929 . S
N275 Li230 1.990 . S
N275 C272 1.314 1_545 S
N275 C273 1.279 . S
C276 C273 1.358 . S
C276 C277 1.356 . S
C276 H313 0.930 . S
C277 C274 1.348 1_545 S
C277 C276 1.356 . S
H278 C272 0.930 . S
H279 C273 0.930 . S
C280 N281 1.314 . S
C280 C282 1.353 . S
C280 H286 0.930 . S
N281 Li231 1.990 1_655 S
N281 C280 1.314 . S
N281 C284 1.279 1_545 S
C282 C280 1.353 . S
C282 C285 1.348 . S
C282 H314 0.929 . S
C283 C284 1.358 . S
C283 C285 1.356 1_565 S
C283 H315 0.930 . S
C284 N281 1.279 1_565 S
C284 C283 1.358 . S
C284 H287 0.930 1_655 S
C285 C282 1.348 . S
C285 C283 1.356 1_545 S
H286 C280 0.930 . S
H287 C284 0.930 1_455 S
O288 Li228 1.956 . S
O288 Li229 1.970 1_545 S
O288 Li230 1.961 . S
O288 C232 1.325 . S
O289 Li228 1.970 . S
O289 Li229 1.956 1_545 S
O289 Li231 1.961 . S
O289 C238 1.321 1_455 S
O290 Li228 1.961 . S
O290 Li230 1.956 . S
O290 Li231 1.970 . S
O290 C260 1.325 . S
O291 Li229 1.961 . S
O291 Li230 1.970 1_565 S
O291 Li231 1.956 1_565 S
O291 C266 1.325 . S
H292 C234 0.929 . S
H293 C235 0.930 . S
H294 C236 0.930 . S
H295 C237 0.930 . S
H296 C239 0.930 . S
H297 C241 0.929 1_455 S
H298 C242 0.930 . S
H299 C243 0.930 . S
H300 C246 0.930 . S
H301 C249 0.929 . S
H302 C254 0.929 . S
H303 C255 0.930 . S
H304 C262 0.929 . S
H305 C263 0.930 . S
H306 C264 0.930 . S
H307 C265 0.930 . S
H308 C267 0.929 . S
H309 C268 0.930 . S
H310 C269 0.930 . S
H311 C270 0.930 . S
H312 C274 0.929 . S
H313 C276 0.930 . S
H314 C282 0.929 . S
H315 C283 0.930 . S
Li316 N333 1.990 1_455 S
Li316 O376 1.956 . S
Li316 O377 1.970 1_545 S
Li316 O378 1.961 . S
Li317 N341 1.990 . S
Li317 O376 1.970 . S
Li317 O377 1.956 1_545 S
Li317 O379 1.961 . S
Li318 N363 1.990 . S
Li318 O376 1.961 . S
Li318 O378 1.956 . S
Li318 O379 1.970 . S
Li319 N369 1.990 . S
Li319 O377 1.961 . S
Li319 O378 1.970 1_565 S
Li319 O379 1.956 1_565 S
C320 C322 1.348 . S
C320 C323 1.356 . S
C320 O376 1.325 . S
N321 C324 1.314 . S
N321 C325 1.279 . S
C322 C320 1.348 . S
C322 C324 1.353 . S
C322 H380 0.929 . S
C323 C320 1.356 . S
C323 C325 1.358 . S
C323 H381 0.930 . S
C324 N321 1.314 . S
C324 C322 1.353 . S
C324 H382 0.930 . S
C325 N321 1.279 . S
C325 C323 1.358 . S
C325 H383 0.930 . S
C326 C329 1.348 . S
C326 C330 1.356 . S
C326 O377 1.325 . S
C327 N328 1.279 . S
C327 C330 1.358 . S
C327 H384 0.930 . S
N328 C327 1.279 . S
N328 C331 1.314 . S
C329 C326 1.348 . S
C329 C331 1.353 . S
C329 H385 0.929 . S
C330 C326 1.356 . S
C330 C327 1.358 . S
C330 H386 0.930 . S
C331 N328 1.314 . S
C331 C329 1.353 . S
C331 H387 0.930 . S
C332 N333 1.314 1_565 S
C332 C337 1.353 . S
C332 H338 0.930 . S
N333 Li316 1.990 1_655 S
N333 C332 1.314 1_545 S
N333 C335 1.279 . S
C334 C335 1.358 . S
C334 C336 1.356 . S
C334 H388 0.930 . S
C335 N333 1.279 . S
C335 C334 1.358 . S
C335 H339 0.930 . S
C336 C334 1.356 . S
C336 C337 1.348 1_545 S
C337 C332 1.353 . S
C337 C336 1.348 1_565 S
C337 H389 0.929 . S
H338 C332 0.930 . S
H339 C335 0.930 . S
C340 N341 1.314 . S
C340 C342 1.353 . S
C340 H346 0.930 . S
N341 Li317 1.990 . S
N341 C340 1.314 . S
N341 C344 1.279 1_545 S
C342 C340 1.353 . S
C342 C345 1.348 . S
C342 H390 0.929 . S
C343 C344 1.358 . S
C343 C345 1.356 1_565 S
C343 H391 0.930 . S
C344 N341 1.279 1_565 S
C344 C343 1.358 . S
C344 H347 0.930 . S
C345 C342 1.348 . S
C345 C343 1.356 1_545 S
H346 C340 0.930 . S
H347 C344 0.930 . S
C348 C350 1.348 1_545 S
C348 C351 1.356 . S
C348 O378 1.325 1_655 S
N349 C352 1.314 1_545 S
N349 C353 1.279 . S
C350 C348 1.348 1_565 S
C350 C352 1.353 . S
C350 H392 0.929 1_655 S
C351 C348 1.356 . S
C351 C353 1.358 . S
C351 H393 0.930 . S
C352 N349 1.314 1_565 S
C352 C350 1.353 . S
C352 H394 0.930 . S
C353 N349 1.279 . S
C353 C351 1.358 . S
C353 H395 0.930 . S
C354 C355 1.348 . S
C354 C356 1.356 1_545 S
C354 O379 1.325 . S
C355 C354 1.348 . S
C355 C357 1.353 . S
C355 H396 0.929 . S
C356 C354 1.356 1_565 S
C356 C358 1.358 . S
C356 H397 0.930 . S
C357 C355 1.353 . S
C357 N359 1.314 . S
C357 H398 0.930 . S
C358 C356 1.358 . S
C358 N359 1.279 1_565 S
C358 H399 0.930 . S
N359 C357 1.314 . S
N359 C358 1.279 1_545 S
C360 C362 1.353 . S
C360 N363 1.314 . S
C360 H366 0.930 . S
C361 N363 1.279 . S
C361 C364 1.358 . S
C361 H367 0.930 . S
C362 C360 1.353 . S
C362 C365 1.348 . S
C362 H400 0.929 . S
N363 Li318 1.990 . S
N363 C360 1.314 . S
N363 C361 1.279 . S
C364 C361 1.358 . S
C364 C365 1.356 . S
C364 H401 0.930 . S
C365 C362 1.348 . S
C365 C364 1.356 . S
H366 C360 0.930 . S
H367 C361 0.930 . S
C368 N369 1.314 . S
C368 C370 1.353 . S
C368 H374 0.930 . S
N369 Li319 1.990 . S
N369 C368 1.314 . S
N369 C372 1.279 . S
C370 C368 1.353 . S
C370 C373 1.348 . S
C370 H402 0.929 . S
C371 C372 1.358 . S
C371 C373 1.356 . S
C371 H403 0.930 . S
C372 N369 1.279 . S
C372 C371 1.358 . S
C372 H375 0.930 . S
C373 C370 1.348 . S
C373 C371 1.356 . S
H374 C368 0.930 . S
H375 C372 0.930 . S
O376 Li316 1.956 . S
O376 Li317 1.970 . S
O376 Li318 1.961 . S
O376 C320 1.325 . S
O377 Li316 1.970 1_565 S
O377 Li317 1.956 1_565 S
O377 Li319 1.961 . S
O377 C326 1.325 . S
O378 Li316 1.961 . S
O378 Li318 1.956 . S
O378 Li319 1.970 1_545 S
O378 C348 1.325 1_455 S
O379 Li317 1.961 . S
O379 Li318 1.970 . S
O379 Li319 1.956 1_545 S
O379 C354 1.325 . S
H380 C322 0.929 . S
H381 C323 0.930 . S
H382 C324 0.930 . S
H383 C325 0.930 . S
H384 C327 0.930 . S
H385 C329 0.929 . S
H386 C330 0.930 . S
H387 C331 0.930 . S
H388 C334 0.930 . S
H389 C337 0.929 . S
H390 C342 0.929 . S
H391 C343 0.930 . S
H392 C350 0.929 1_455 S
H393 C351 0.930 . S
H394 C352 0.930 . S
H395 C353 0.930 . S
H396 C355 0.929 . S
H397 C356 0.930 . S
H398 C357 0.930 . S
H399 C358 0.930 . S
H400 C362 0.929 . S
H401 C364 0.930 . S
H402 C370 0.929 . S
H403 C371 0.930 . S
C404 C405 1.388 1_545 S
C404 C406 1.394 . S
C404 H420 0.931 . S
C405 C404 1.388 1_565 S
C405 C409 1.380 . S
C406 C404 1.394 . S
C406 C407 1.369 1_545 S
C406 C410 1.531 . S
C407 C406 1.369 1_565 S
C407 C408 1.410 . S
C407 C415 1.501 1_565 S
C408 C407 1.410 . S
C408 C409 1.392 . S
C408 C411 1.511 . S
C409 C405 1.380 . S
C409 C408 1.392 . S
C409 H421 0.929 . S
C410 C406 1.531 . S
C410 H422 0.960 1_545 S
C410 H423 0.962 . S
C410 H424 0.960 . S
C411 C408 1.511 . S
C411 H425 0.961 . S
C411 H426 0.961 . S
C411 H427 0.961 . S
C412 C413 1.370 . S
C412 C414 1.363 . S
C412 H428 0.931 . S
C413 C412 1.370 . S
C413 C417 1.408 1_545 S
C414 C412 1.363 . S
C414 C415 1.396 . S
C414 C418 1.524 . S
C415 C407 1.501 1_545 S
C415 C414 1.396 . S
C415 C416 1.380 1_545 S
C416 C415 1.380 1_565 S
C416 C417 1.404 . S
C416 C419 1.539 . S
C417 C413 1.408 1_565 S
C417 C416 1.404 . S
C417 H429 0.930 . S
C418 C414 1.524 . S
C418 H430 0.956 . S
C418 H431 0.961 . S
C418 H432 0.961 . S
C419 C416 1.539 . S
C419 H433 0.958 . S
C419 H434 0.961 . S
C419 H435 0.960 . S
H420 C404 0.931 . S
H421 C409 0.929 . S
H422 C410 0.960 1_565 S
H423 C410 0.962 . S
H424 C410 0.960 . S
H425 C411 0.961 . S
H426 C411 0.961 . S
H427 C411 0.961 . S
H428 C412 0.931 . S
H429 C417 0.930 . S
H430 C418 0.956 . S
H431 C418 0.961 . S
H432 C418 0.961 . S
H433 C419 0.958 . S
H434 C419 0.961 . S
H435 C419 0.960 . S
C436 C437 1.391 . S
C436 C438 1.394 . S
C436 H452 0.931 . S
C437 C436 1.391 . S
C437 C441 1.376 . S
C438 C436 1.394 . S
C438 C439 1.369 . S
C438 C442 1.531 . S
C439 C438 1.369 . S
C439 C440 1.410 . S
C439 C447 1.503 . S
C440 C439 1.410 . S
C440 C441 1.392 . S
C440 C443 1.511 . S
C441 C437 1.376 . S
C441 C440 1.392 . S
C441 H453 0.929 . S
C442 C438 1.531 . S
C442 H454 0.960 . S
C442 H455 0.962 . S
C442 H456 0.960 . S
C443 C440 1.511 . S
C443 H457 0.961 . S
C443 H458 0.961 . S
C443 H459 0.961 . S
C444 C445 1.370 . S
C444 C446 1.363 . S
C444 H460 0.931 . S
C445 C444 1.370 . S
C445 C449 1.408 . S
C446 C444 1.363 . S
C446 C447 1.370 . S
C446 C450 1.524 . S
C447 C439 1.503 . S
C447 C446 1.370 . S
C447 C448 1.403 . S
C448 C447 1.403 . S
C448 C449 1.404 . S
C448 C451 1.539 . S
C449 C445 1.408 . S
C449 C448 1.404 . S
C449 H461 0.930 . S
C450 C446 1.524 . S
C450 H462 0.956 . S
C450 H463 0.961 . S
C450 H464 0.961 . S
C451 C448 1.539 . S
C451 H465 0.958 . S
C451 H466 0.961 . S
C451 H467 0.960 . S
H452 C436 0.931 . S
H453 C441 0.929 . S
H454 C442 0.960 . S
H455 C442 0.962 . S
H456 C442 0.960 . S
H457 C443 0.961 . S
H458 C443 0.961 . S
H459 C443 0.961 . S
H460 C444 0.931 . S
H461 C449 0.930 . S
H462 C450 0.956 . S
H463 C450 0.961 . S
H464 C450 0.961 . S
H465 C451 0.958 . S
H466 C451 0.961 . S
H467 C451 0.960 . S
C468 C469 1.391 . S
C468 C470 1.394 . S
C468 H484 0.931 . S
C469 C468 1.391 . S
C469 C473 1.376 1_545 S
C470 C468 1.394 . S
C470 C471 1.369 . S
C470 C474 1.531 . S
C471 C470 1.369 . S
C471 C472 1.410 1_545 S
C471 C479 1.503 . S
C472 C471 1.410 1_565 S
C472 C473 1.392 . S
C472 C475 1.511 . S
C473 C469 1.376 1_565 S
C473 C472 1.392 . S
C473 H485 0.929 . S
C474 C470 1.531 . S
C474 H486 0.960 . S
C474 H487 0.962 . S
C474 H488 0.960 . S
C475 C472 1.511 . S
C475 H489 0.961 . S
C475 H490 0.961 . S
C475 H491 0.961 . S
C476 C477 1.370 . S
C476 C478 1.363 . S
C476 H492 0.931 . S
C477 C476 1.370 . S
C477 C481 1.408 . S
C478 C476 1.363 . S
C478 C479 1.370 . S
C478 C482 1.524 . S
C479 C471 1.503 . S
C479 C478 1.370 . S
C479 C480 1.403 . S
C480 C479 1.403 . S
C480 C481 1.404 . S
C480 C483 1.539 . S
C481 C477 1.408 . S
C481 C480 1.404 . S
C481 H493 0.930 . S
C482 C478 1.524 . S
C482 H494 0.956 . S
C482 H495 0.961 1_545 S
C482 H496 0.960 1_545 S
C483 C480 1.539 . S
C483 H497 0.958 . S
C483 H498 0.961 . S
C483 H499 0.960 . S
H484 C468 0.931 . S
H485 C473 0.929 . S
H486 C474 0.960 . S
H487 C474 0.962 . S
H488 C474 0.960 . S
H489 C475 0.961 . S
H490 C475 0.961 . S
H491 C475 0.961 . S
H492 C476 0.931 . S
H493 C481 0.930 . S
H494 C482 0.956 . S
H495 C482 0.961 1_565 S
H496 C482 0.960 1_565 S
H497 C483 0.958 . S
H498 C483 0.961 . S
H499 C483 0.960 . S
C500 C501 1.391 . S
C500 C502 1.394 . S
C500 H516 0.931 . S
C501 C500 1.391 . S
C501 C505 1.376 . S
C502 C500 1.394 . S
C502 C503 1.369 . S
C502 C506 1.531 . S
C503 C502 1.369 . S
C503 C504 1.410 . S
C503 C511 1.503 . S
C504 C503 1.410 . S
C504 C505 1.392 . S
C504 C507 1.511 . S
C505 C501 1.376 . S
C505 C504 1.392 . S
C505 H517 0.929 . S
C506 C502 1.531 . S
C506 H518 0.960 . S
C506 H519 0.962 . S
C506 H520 0.960 . S
C507 C504 1.511 . S
C507 H521 0.961 . S
C507 H522 0.961 . S
C507 H523 0.961 . S
C508 C509 1.370 . S
C508 C510 1.363 . S
C508 H524 0.931 . S
C509 C508 1.370 . S
C509 C513 1.408 . S
C510 C508 1.363 . S
C510 C511 1.370 . S
C510 C514 1.524 . S
C511 C503 1.503 . S
C511 C510 1.370 . S
C511 C512 1.403 . S
C512 C511 1.403 . S
C512 C513 1.404 . S
C512 C515 1.539 . S
C513 C509 1.408 . S
C513 C512 1.404 . S
C513 H525 0.930 . S
C514 C510 1.524 . S
C514 H526 0.956 . S
C514 H527 0.961 . S
C514 H528 0.966 . S
C515 C512 1.539 . S
C515 H529 0.958 . S
C515 H530 0.961 . S
C515 H531 0.960 . S
H516 C500 0.931 . S
H517 C505 0.929 . S
H518 C506 0.960 . S
H519 C506 0.962 . S
H520 C506 0.960 . S
H521 C507 0.961 . S
H522 C507 0.961 . S
H523 C507 0.961 . S
H524 C508 0.931 . S
H525 C513 0.930 . S
H526 C514 0.956 . S
H527 C514 0.961 . S
H528 C514 0.966 . S
H529 C515 0.958 . S
H530 C515 0.961 . S
H531 C515 0.960 . S
C532 C533 1.391 . S
C532 C534 1.394 . S
C532 H548 0.931 . S
C533 C532 1.391 . S
C533 C537 1.376 . S
C534 C532 1.394 . S
C534 C535 1.369 . S
C534 C538 1.531 . S
C535 C534 1.369 . S
C535 C536 1.410 . S
C535 C543 1.503 . S
C536 C535 1.410 . S
C536 C537 1.392 . S
C536 C539 1.511 1_545 S
C537 C533 1.376 . S
C537 C536 1.392 . S
C537 H549 0.929 1_545 S
C538 C534 1.531 . S
C538 H550 0.960 . S
C538 H551 0.962 . S
C538 H552 0.960 . S
C539 C536 1.511 1_565 S
C539 H553 0.961 . S
C539 H554 0.961 . S
C539 H555 0.961 1_565 S
C540 C541 1.370 1_565 S
C540 C542 1.363 . S
C540 H556 0.931 . S
C541 C540 1.370 1_545 S
C541 C545 1.408 . S
C542 C540 1.363 . S
C542 C543 1.370 1_565 S
C542 C546 1.524 . S
C543 C535 1.503 . S
C543 C542 1.370 1_545 S
C543 C544 1.403 . S
C544 C543 1.403 . S
C544 C545 1.404 . S
C544 C547 1.539 . S
C545 C541 1.408 . S
C545 C544 1.404 . S
C545 H557 0.930 . S
C546 C542 1.524 . S
C546 H558 0.956 . S
C546 H559 0.961 . S
C546 H560 0.961 . S
C547 C544 1.539 . S
C547 H561 0.958 . S
C547 H562 0.961 . S
C547 H563 0.960 . S
H548 C532 0.931 . S
H549 C537 0.929 1_565 S
H550 C538 0.960 . S
H551 C538 0.962 . S
H552 C538 0.960 . S
H553 C539 0.961 . S
H554 C539 0.961 . S
H555 C539 0.961 1_545 S
H556 C540 0.931 . S
H557 C545 0.930 . S
H558 C546 0.956 . S
H559 C546 0.961 . S
H560 C546 0.961 . S
H561 C547 0.958 . S
H562 C547 0.961 . S
H563 C547 0.960 . S
C564 C565 1.391 . S
C564 C566 1.394 . S
C564 H580 0.931 . S
C565 C564 1.391 . S
C565 C569 1.376 . S
C566 C564 1.394 . S
C566 C567 1.369 . S
C566 C570 1.531 1_455 S
C567 C566 1.369 . S
C567 C568 1.410 . S
C567 C575 1.503 . S
C568 C567 1.410 . S
C568 C569 1.392 . S
C568 C571 1.511 . S
C569 C565 1.376 . S
C569 C568 1.392 . S
C569 H581 0.929 . S
C570 C566 1.531 1_655 S
C570 H582 0.960 . S
C570 H583 0.962 . S
C570 H584 0.960 . S
C571 C568 1.511 . S
C571 H585 0.961 . S
C571 H586 0.961 . S
C571 H587 0.961 . S
C572 C573 1.370 . S
C572 C574 1.363 . S
C572 H588 0.931 . S
C573 C572 1.370 . S
C573 C577 1.408 . S
C574 C572 1.363 . S
C574 C575 1.370 . S
C574 C578 1.524 . S
C575 C567 1.503 . S
C575 C574 1.370 . S
C575 C576 1.403 . S
C576 C575 1.403 . S
C576 C577 1.404 . S
C576 C579 1.539 . S
C577 C573 1.408 . S
C577 C576 1.404 . S
C577 H589 0.930 . S
C578 C574 1.524 . S
C578 H590 0.956 . S
C578 H591 0.961 . S
C578 H592 0.961 . S
C579 C576 1.539 . S
C579 H593 0.958 . S
C579 H594 0.961 . S
C579 H595 0.960 . S
H580 C564 0.931 . S
H581 C569 0.929 . S
H582 C570 0.960 . S
H583 C570 0.962 . S
H584 C570 0.960 . S
H585 C571 0.961 . S
H586 C571 0.961 . S
H587 C571 0.961 . S
H588 C572 0.931 . S
H589 C577 0.930 . S
H590 C578 0.956 . S
H591 C578 0.961 . S
H592 C578 0.961 . S
H593 C579 0.958 . S
H594 C579 0.961 . S
H595 C579 0.960 . S
C596 C597 1.413 . S
C596 C598 1.394 . S
C596 H612 0.931 . S
C597 C596 1.413 . S
C597 C601 1.355 1_565 S
C598 C596 1.394 . S
C598 C599 1.369 . S
C598 C602 1.531 . S
C599 C598 1.369 . S
C599 C600 1.410 1_565 S
C599 C607 1.503 1_565 S
C600 C599 1.410 1_545 S
C600 C601 1.392 . S
C600 C603 1.511 . S
C601 C597 1.355 1_545 S
C601 C600 1.392 . S
C601 H613 0.929 . S
C602 C598 1.531 . S
C602 H614 0.960 . S
C602 H615 0.962 . S
C602 H616 0.960 . S
C603 C600 1.511 . S
C603 H617 0.961 . S
C603 H618 0.961 . S
C603 H619 0.961 . S
C604 C605 1.370 . S
C604 C606 1.363 . S
C604 H620 0.931 . S
C605 C604 1.370 . S
C605 C609 1.408 1_545 S
C606 C604 1.363 . S
C606 C607 1.370 . S
C606 C610 1.524 . S
C607 C599 1.503 1_545 S
C607 C606 1.370 . S
C607 C608 1.403 1_545 S
C608 C607 1.403 1_565 S
C608 C609 1.404 . S
C608 C611 1.539 . S
C609 C605 1.408 1_565 S
C609 C608 1.404 . S
C609 H621 0.930 . S
C610 C606 1.524 . S
C610 H622 0.956 . S
C610 H623 0.961 . S
C610 H624 0.961 . S
C611 C608 1.539 . S
C611 H625 0.958 . S
C611 H626 0.961 . S
C611 H627 0.960 . S
H612 C596 0.931 . S
H613 C601 0.929 . S
H614 C602 0.960 . S
H615 C602 0.962 . S
H616 C602 0.960 . S
H617 C603 0.961 . S
H618 C603 0.961 . S
H619 C603 0.961 . S
H620 C604 0.931 . S
H621 C609 0.930 . S
H622 C610 0.956 . S
H623 C610 0.961 . S
H624 C610 0.961 . S
H625 C611 0.958 . S
H626 C611 0.961 . S
H627 C611 0.960 . S
C628 C629 1.391 . S
C628 C630 1.394 . S
C628 H644 0.931 . S
C629 C628 1.391 . S
C629 C633 1.376 . S
C630 C628 1.394 . S
C630 C631 1.369 . S
C630 C634 1.531 . S
C631 C630 1.369 . S
C631 C632 1.410 . S
C631 C639 1.503 . S
C632 C631 1.410 . S
C632 C633 1.392 . S
C632 C635 1.511 . S
C633 C629 1.376 . S
C633 C632 1.392 . S
C633 H645 0.929 . S
C634 C630 1.531 . S
C634 H646 0.960 . S
C634 H647 0.962 . S
C634 H648 0.960 . S
C635 C632 1.511 . S
C635 H649 0.961 . S
C635 H650 0.961 . S
C635 H651 0.961 . S
C636 C637 1.370 . S
C636 C638 1.363 . S
C636 H652 0.931 . S
C637 C636 1.370 . S
C637 C641 1.408 . S
C638 C636 1.363 . S
C638 C639 1.370 . S
C638 C642 1.524 . S
C639 C631 1.503 . S
C639 C638 1.370 . S
C639 C640 1.403 . S
C640 C639 1.403 . S
C640 C641 1.404 . S
C640 C643 1.539 1_455 S
C641 C637 1.408 . S
C641 C640 1.404 . S
C641 H653 0.930 . S
C642 C638 1.524 . S
C642 H654 0.956 . S
C642 H655 0.961 . S
C642 H656 0.961 . S
C643 C640 1.539 1_655 S
C643 H657 0.958 . S
C643 H658 0.961 . S
C643 H659 0.964 . S
H644 C628 0.931 . S
H645 C633 0.929 . S
H646 C634 0.960 . S
H647 C634 0.962 . S
H648 C634 0.960 . S
H649 C635 0.961 . S
H650 C635 0.961 . S
H651 C635 0.961 . S
H652 C636 0.931 . S
H653 C641 0.930 . S
H654 C642 0.956 . S
H655 C642 0.961 . S
H656 C642 0.961 . S
H657 C643 0.958 . S
H658 C643 0.961 . S
H659 C643 0.964 . S
C413 C277 1.479 . S
C405 C11 0.882 . S
C445 C365 1.313 . S
C437 C115 1.074 . S
C477 C285 1.313 . S
C469 C1 0.973 . S
C509 C373 1.475 . S
C501 C125 0.998 . S
C541 C345 1.574 . S
C533 C55 1.221 1_545 S
C573 C248 1.407 . S
C565 C143 1.183 . S
C605 C336 1.409 . S
C597 C29 1.174 1_565 S
C629 C169 1.078 . S
C637 C257 1.573 . S
