# Generated by pormake.
# Topology eea, (3,6)-cn, num edge types: 1
# Building blocks:
#     Node 0, Type 0, BuildingBlock: BETDIP_clean_linker_0, # of connection points: 3
#     Node 1, Type 0, BuildingBlock: BETDIP_clean_linker_0, # of connection points: 3
#     Node 2, Type 0, BuildingBlock: BETDIP_clean_linker_0, # of connection points: 3
#     Node 3, Type 0, BuildingBlock: BETDIP_clean_linker_0, # of connection points: 3
#     Node 4, Type 0, BuildingBlock: BETDIP_clean_linker_0, # of connection points: 3
#     Node 5, Type 0, BuildingBlock: BETDIP_clean_linker_0, # of connection points: 3
#     Node 6, Type 0, BuildingBlock: BETDIP_clean_linker_0, # of connection points: 3
#     Node 7, Type 0, BuildingBlock: BETDIP_clean_linker_0, # of connection points: 3
#     Node 8, Type 0, BuildingBlock: BETDIP_clean_linker_0, # of connection points: 3
#     Node 9, Type 0, BuildingBlock: BETDIP_clean_linker_0, # of connection points: 3
#     Node 10, Type 0, BuildingBlock: BETDIP_clean_linker_0, # of connection points: 3
#     Node 11, Type 0, BuildingBlock: BETDIP_clean_linker_0, # of connection points: 3
#     Node 12, Type 0, BuildingBlock: BETDIP_clean_linker_0, # of connection points: 3
#     Node 13, Type 0, BuildingBlock: BETDIP_clean_linker_0, # of connection points: 3
#     Node 14, Type 0, BuildingBlock: BETDIP_clean_linker_0, # of connection points: 3
#     Node 15, Type 0, BuildingBlock: BETDIP_clean_linker_0, # of connection points: 3
#     Node 16, Type 0, BuildingBlock: BETDIP_clean_linker_0, # of connection points: 3
#     Node 17, Type 0, BuildingBlock: BETDIP_clean_linker_0, # of connection points: 3
#     Node 18, Type 1, BuildingBlock: CUKXOW_clean_sbu_0, # of connection points: 6
#     Node 19, Type 1, BuildingBlock: CUKXOW_clean_sbu_0, # of connection points: 6
#     Node 20, Type 1, BuildingBlock: CUKXOW_clean_sbu_0, # of connection points: 6
#     Node 21, Type 1, BuildingBlock: CUKXOW_clean_sbu_0, # of connection points: 6
#     Node 22, Type 1, BuildingBlock: CUKXOW_clean_sbu_0, # of connection points: 6
#     Node 23, Type 1, BuildingBlock: CUKXOW_clean_sbu_0, # of connection points: 6
#     Node 24, Type 1, BuildingBlock: CUKXOW_clean_sbu_0, # of connection points: 6
#     Node 25, Type 1, BuildingBlock: CUKXOW_clean_sbu_0, # of connection points: 6
#     Node 26, Type 1, BuildingBlock: CUKXOW_clean_sbu_0, # of connection points: 6
#     Edge 27, Type (0, 1), BuildingBlock: XUDNAN_clean_linker_2, # of connection points: 2
#     Edge 28, Type (0, 1), BuildingBlock: XUDNAN_clean_linker_2, # of connection points: 2
#     Edge 29, Type (0, 1), BuildingBlock: XUDNAN_clean_linker_2, # of connection points: 2
#     Edge 30, Type (0, 1), BuildingBlock: XUDNAN_clean_linker_2, # of connection points: 2
#     Edge 31, Type (0, 1), BuildingBlock: XUDNAN_clean_linker_2, # of connection points: 2
#     Edge 32, Type (0, 1), BuildingBlock: XUDNAN_clean_linker_2, # of connection points: 2
#     Edge 33, Type (0, 1), BuildingBlock: XUDNAN_clean_linker_2, # of connection points: 2
#     Edge 34, Type (0, 1), BuildingBlock: XUDNAN_clean_linker_2, # of connection points: 2
#     Edge 35, Type (0, 1), BuildingBlock: XUDNAN_clean_linker_2, # of connection points: 2
#     Edge 36, Type (0, 1), BuildingBlock: XUDNAN_clean_linker_2, # of connection points: 2
#     Edge 37, Type (0, 1), BuildingBlock: XUDNAN_clean_linker_2, # of connection points: 2
#     Edge 38, Type (0, 1), BuildingBlock: XUDNAN_clean_linker_2, # of connection points: 2
#     Edge 39, Type (0, 1), BuildingBlock: XUDNAN_clean_linker_2, # of connection points: 2
#     Edge 40, Type (0, 1), BuildingBlock: XUDNAN_clean_linker_2, # of connection points: 2
#     Edge 41, Type (0, 1), BuildingBlock: XUDNAN_clean_linker_2, # of connection points: 2
#     Edge 42, Type (0, 1), BuildingBlock: XUDNAN_clean_linker_2, # of connection points: 2
#     Edge 43, Type (0, 1), BuildingBlock: XUDNAN_clean_linker_2, # of connection points: 2
#     Edge 44, Type (0, 1), BuildingBlock: XUDNAN_clean_linker_2, # of connection points: 2
#     Edge 45, Type (0, 1), BuildingBlock: XUDNAN_clean_linker_2, # of connection points: 2
#     Edge 46, Type (0, 1), BuildingBlock: XUDNAN_clean_linker_2, # of connection points: 2
#     Edge 47, Type (0, 1), BuildingBlock: XUDNAN_clean_linker_2, # of connection points: 2
#     Edge 48, Type (0, 1), BuildingBlock: XUDNAN_clean_linker_2, # of connection points: 2
#     Edge 49, Type (0, 1), BuildingBlock: XUDNAN_clean_linker_2, # of connection points: 2
#     Edge 50, Type (0, 1), BuildingBlock: XUDNAN_clean_linker_2, # of connection points: 2
#     Edge 51, Type (0, 1), BuildingBlock: XUDNAN_clean_linker_2, # of connection points: 2
#     Edge 52, Type (0, 1), BuildingBlock: XUDNAN_clean_linker_2, # of connection points: 2
#     Edge 53, Type (0, 1), BuildingBlock: XUDNAN_clean_linker_2, # of connection points: 2
#     Edge 54, Type (0, 1), BuildingBlock: XUDNAN_clean_linker_2, # of connection points: 2
#     Edge 55, Type (0, 1), BuildingBlock: XUDNAN_clean_linker_2, # of connection points: 2
#     Edge 56, Type (0, 1), BuildingBlock: XUDNAN_clean_linker_2, # of connection points: 2
#     Edge 57, Type (0, 1), BuildingBlock: XUDNAN_clean_linker_2, # of connection points: 2
#     Edge 58, Type (0, 1), BuildingBlock: XUDNAN_clean_linker_2, # of connection points: 2
#     Edge 59, Type (0, 1), BuildingBlock: XUDNAN_clean_linker_2, # of connection points: 2
#     Edge 60, Type (0, 1), BuildingBlock: XUDNAN_clean_linker_2, # of connection points: 2
#     Edge 61, Type (0, 1), BuildingBlock: XUDNAN_clean_linker_2, # of connection points: 2
#     Edge 62, Type (0, 1), BuildingBlock: XUDNAN_clean_linker_2, # of connection points: 2
#     Edge 63, Type (0, 1), BuildingBlock: XUDNAN_clean_linker_2, # of connection points: 2
#     Edge 64, Type (0, 1), BuildingBlock: XUDNAN_clean_linker_2, # of connection points: 2
#     Edge 65, Type (0, 1), BuildingBlock: XUDNAN_clean_linker_2, # of connection points: 2
#     Edge 66, Type (0, 1), BuildingBlock: XUDNAN_clean_linker_2, # of connection points: 2
#     Edge 67, Type (0, 1), BuildingBlock: XUDNAN_clean_linker_2, # of connection points: 2
#     Edge 68, Type (0, 1), BuildingBlock: XUDNAN_clean_linker_2, # of connection points: 2
#     Edge 69, Type (0, 1), BuildingBlock: XUDNAN_clean_linker_2, # of connection points: 2
#     Edge 70, Type (0, 1), BuildingBlock: XUDNAN_clean_linker_2, # of connection points: 2
#     Edge 71, Type (0, 1), BuildingBlock: XUDNAN_clean_linker_2, # of connection points: 2
#     Edge 72, Type (0, 1), BuildingBlock: XUDNAN_clean_linker_2, # of connection points: 2
#     Edge 73, Type (0, 1), BuildingBlock: XUDNAN_clean_linker_2, # of connection points: 2
#     Edge 74, Type (0, 1), BuildingBlock: XUDNAN_clean_linker_2, # of connection points: 2
#     Edge 75, Type (0, 1), BuildingBlock: XUDNAN_clean_linker_2, # of connection points: 2
#     Edge 76, Type (0, 1), BuildingBlock: XUDNAN_clean_linker_2, # of connection points: 2
#     Edge 77, Type (0, 1), BuildingBlock: XUDNAN_clean_linker_2, # of connection points: 2
#     Edge 78, Type (0, 1), BuildingBlock: XUDNAN_clean_linker_2, # of connection points: 2
#     Edge 79, Type (0, 1), BuildingBlock: XUDNAN_clean_linker_2, # of connection points: 2
#     Edge 80, Type (0, 1), BuildingBlock: XUDNAN_clean_linker_2, # of connection points: 2
# Relax obj value: 0.035
# Max RMSD: 0.161
# Mean RMSD: 0.094
data_MOF--net-eea--node1-CUKXOW_clean_sbu_0--node2-BETDIP_clean_linker_0--edge1-XUDNAN_clean_linker_2
_symmetry_space_group_name_H-M    P1
_symmetry_Int_Tables_number       1
_symmetry_cell_setting            triclinic
loop_
_symmetry_equiv_pos_as_xyz
'x, y, z'
_cell_length_a     60.151647
_cell_length_b     56.665087
_cell_length_c     50.408358
_cell_angle_alpha  93.304382
_cell_angle_beta   93.348618
_cell_angle_gamma 119.92559
loop_
_atom_site_label
_atom_site_type_symbol
_atom_site_fract_x
_atom_site_fract_y
_atom_site_fract_z
_atom_type_partial_charge
H0 H 0.21747 0.09951 0.37678 0.0
H1 H 0.25828 0.15824 0.44476 0.0
H2 H 0.25641 0.08136 0.44016 0.0
H3 H 0.22146 0.1646 0.4342 0.0
C4 C 0.22427 0.16673 0.41317 0.0
C5 C 0.2287 0.10496 0.39603 0.0
C6 C 0.23531 0.08665 0.40688 0.0
C7 C 0.2362 0.13033 0.40985 0.0
C8 C 0.25148 0.13818 0.4344 0.0
C9 C 0.25905 0.12069 0.44507 0.0
C10 C 0.25081 0.0949 0.43147 0.0
N11 N 0.22903 0.14804 0.39811 0.0
H12 H 0.92596 0.12002 0.41409 0.0
H13 H 0.86534 0.10355 0.4643 0.0
H14 H 0.9397 0.17584 0.48281 0.0
H15 H 0.83986 0.07851 0.42656 0.0
C16 C 0.85034 0.06908 0.41872 0.0
C17 C 0.91913 0.12596 0.43123 0.0
C18 C 0.93587 0.15013 0.44769 0.0
C19 C 0.89363 0.10911 0.43693 0.0
C20 C 0.88485 0.11654 0.45949 0.0
C21 C 0.90131 0.14075 0.47608 0.0
C22 C 0.92678 0.15726 0.47003 0.0
N23 N 0.87773 0.08427 0.4203 0.0
H24 H 0.88187 0.76833 0.39645 0.0
H25 H 0.90861 0.7466 0.4664 0.0
H26 H 0.83328 0.73843 0.46022 0.0
H27 H 0.9301 0.73588 0.43049 0.0
C28 C 0.93809 0.75659 0.42482 0.0
C29 C 0.87838 0.76032 0.41574 0.0
C30 C 0.8549 0.75279 0.42625 0.0
C31 C 0.89762 0.7579 0.43001 0.0
C32 C 0.89354 0.74817 0.45525 0.0
C33 C 0.87049 0.7414 0.46656 0.0
C34 C 0.85113 0.74357 0.45178 0.0
N35 N 0.92164 0.76733 0.41945 0.0
H36 H 0.09405 0.20844 0.61403 0.0
H37 H 0.15363 0.25995 0.56642 0.0
H38 H 0.08196 0.25958 0.56212 0.0
H39 H 0.1497 0.21519 0.55876 0.0
C40 C 0.15436 0.21487 0.57987 0.0
C41 C 0.10117 0.22383 0.60005 0.0
C42 C 0.08535 0.23359 0.5896 0.0
C43 C 0.12546 0.23253 0.59086 0.0
C44 C 0.13447 0.2524 0.57256 0.0
C45 C 0.11896 0.26228 0.5619 0.0
C46 C 0.09446 0.25272 0.57064 0.0
N47 N 0.14028 0.2203 0.59869 0.0
H48 H 0.81255 0.87963 0.62864 0.0
H49 H 0.78639 0.90005 0.55739 0.0
H50 H 0.77034 0.81736 0.56364 0.0
H51 H 0.78152 0.92857 0.58952 0.0
C52 C 0.79983 0.93687 0.60167 0.0
C53 C 0.80258 0.87348 0.60866 0.0
C54 C 0.79235 0.84649 0.59729 0.0
C55 C 0.79974 0.89255 0.59466 0.0
C56 C 0.78714 0.88472 0.5686 0.0
C57 C 0.77625 0.85755 0.55683 0.0
C58 C 0.77909 0.83858 0.57158 0.0
N59 N 0.81003 0.91958 0.60718 0.0
H60 H 0.13705 0.91118 0.62976 0.0
H61 H 0.10272 0.86521 0.55286 0.0
H62 H 0.17785 0.93758 0.56057 0.0
H63 H 0.07314 0.83348 0.57639 0.0
C64 C 0.07335 0.84359 0.59543 0.0
C65 C 0.13816 0.90814 0.60855 0.0
C66 C 0.15978 0.92705 0.59687 0.0
C67 C 0.11746 0.88574 0.59304 0.0
C68 C 0.11866 0.88202 0.56529 0.0
C69 C 0.14037 0.90093 0.55333 0.0
C70 C 0.16078 0.92321 0.5694 0.0
N71 N 0.09547 0.86864 0.60617 0.0
H72 H 0.88383 0.42229 0.71562 0.0
H73 H 0.91936 0.48569 0.78092 0.0
H74 H 0.91776 0.40965 0.78714 0.0
H75 H 0.92425 0.51332 0.74699 0.0
C76 C 0.90553 0.50111 0.73555 0.0
C77 C 0.89455 0.42985 0.73521 0.0
C78 C 0.90036 0.41284 0.7498 0.0
C79 C 0.90205 0.45646 0.7458 0.0
C80 C 0.9149 0.46589 0.77169 0.0
C81 C 0.92083 0.44916 0.7865 0.0
C82 C 0.91407 0.42292 0.77527 0.0
N83 N 0.89434 0.47224 0.73095 0.0
H84 H 0.58507 0.45584 0.73026 0.0
H85 H 0.52437 0.443 0.77912 0.0
H86 H 0.60069 0.5121 0.79898 0.0
H87 H 0.49831 0.41417 0.74385 0.0
C88 C 0.50924 0.40555 0.73545 0.0
C89 C 0.57844 0.46242 0.74715 0.0
C90 C 0.59579 0.4861 0.76382 0.0
C91 C 0.55268 0.44663 0.75252 0.0
C92 C 0.54414 0.45501 0.77472 0.0
C93 C 0.56127 0.47891 0.7915 0.0
C94 C 0.58709 0.49403 0.78594 0.0
N95 N 0.53653 0.42169 0.73611 0.0
H96 H 0.56458 0.11221 0.73338 0.0
H97 H 0.57945 0.09073 0.81046 0.0
H98 H 0.5071 0.08535 0.78914 0.0
H99 H 0.61963 0.12204 0.80493 0.0
C100 C 0.62143 0.11761 0.78418 0.0
C101 C 0.55822 0.10491 0.75246 0.0
C102 C 0.53372 0.09931 0.75904 0.0
C103 C 0.57514 0.10242 0.77104 0.0
C104 C 0.56696 0.09326 0.79603 0.0
C105 C 0.54276 0.08786 0.80287 0.0
C106 C 0.52616 0.09039 0.7841 0.0
N107 N 0.60037 0.10969 0.76447 0.0
H108 H 0.75957 0.55486 0.95752 0.0
H109 H 0.81008 0.58836 0.89645 0.0
H110 H 0.73923 0.59007 0.89392 0.0
H111 H 0.82823 0.56542 0.91082 0.0
C112 C 0.82421 0.56169 0.93134 0.0
C113 C 0.76371 0.56466 0.93916 0.0
C114 C 0.74693 0.57255 0.92745 0.0
C115 C 0.78606 0.56949 0.92775 0.0
C116 C 0.79197 0.58278 0.90428 0.0
C117 C 0.7751 0.59014 0.89156 0.0
C118 C 0.75239 0.58448 0.90322 0.0
N119 N 0.80263 0.56187 0.94133 0.0
H120 H 0.45738 0.21601 0.97189 0.0
H121 H 0.42472 0.23037 0.90097 0.0
H122 H 0.42795 0.15645 0.9029 0.0
H123 H 0.42145 0.26099 0.93086 0.0
C124 C 0.43998 0.26967 0.94265 0.0
C125 C 0.44792 0.20901 0.95173 0.0
C126 C 0.44302 0.18375 0.93939 0.0
C127 C 0.4412 0.22579 0.93828 0.0
C128 C 0.42898 0.21707 0.9121 0.0
C129 C 0.42408 0.19203 0.8993 0.0
C130 C 0.43104 0.17539 0.91305 0.0
N131 N 0.44937 0.25237 0.95071 0.0
H132 H 0.79503 0.24188 0.96811 0.0
H133 H 0.76709 0.18402 0.89814 0.0
H134 H 0.84487 0.2524 0.90682 0.0
H135 H 0.72809 0.17088 0.91129 0.0
C136 C 0.73054 0.17551 0.93281 0.0
C137 C 0.79808 0.23513 0.94878 0.0
C138 C 0.82195 0.25014 0.9387 0.0
C139 C 0.77799 0.21154 0.93419 0.0
C140 C 0.78224 0.20251 0.90936 0.0
C141 C 0.80639 0.21704 0.89915 0.0
C142 C 0.826 0.24116 0.91392 0.0
N143 N 0.75439 0.19693 0.94588 0.0
H144 H 0.53316 0.75875 0.05109 0.0
H145 H 0.58121 0.82698 0.10868 0.0
H146 H 0.57281 0.74776 0.11841 0.0
H147 H 0.578 0.85162 0.07635 0.0
C148 C 0.55838 0.83864 0.06717 0.0
C149 C 0.54612 0.76705 0.06933 0.0
C150 C 0.55269 0.75031 0.08326 0.0
C151 C 0.55615 0.79453 0.07844 0.0
C152 C 0.57327 0.80564 0.10191 0.0
C153 C 0.57967 0.78912 0.11687 0.0
C154 C 0.56915 0.76134 0.10711 0.0
N155 N 0.54715 0.80971 0.06437 0.0
H156 H 0.23569 0.78306 0.06294 0.0
H157 H 0.18512 0.77202 0.1234 0.0
H158 H 0.25077 0.85153 0.11865 0.0
H159 H 0.15559 0.73899 0.0925 0.0
C160 C 0.16587 0.73039 0.08257 0.0
C161 C 0.23075 0.79171 0.07976 0.0
C162 C 0.24612 0.81974 0.08886 0.0
C163 C 0.20839 0.7746 0.09142 0.0
C164 C 0.20201 0.78514 0.11368 0.0
C165 C 0.21751 0.8127 0.12383 0.0
C166 C 0.23956 0.83001 0.11143 0.0
N167 N 0.19265 0.74704 0.07997 0.0
H168 H 0.20654 0.4226 0.06277 0.0
H169 H 0.2281 0.3919 0.12877 0.0
H170 H 0.16307 0.4043 0.13121 0.0
H171 H 0.24833 0.43826 0.05341 0.0
C172 C 0.25511 0.42614 0.06322 0.0
C173 C 0.20348 0.41578 0.08253 0.0
C174 C 0.1822 0.41346 0.09509 0.0
C175 C 0.22021 0.40846 0.09519 0.0
C176 C 0.21563 0.39875 0.12021 0.0
C177 C 0.19577 0.39806 0.13417 0.0
C178 C 0.17894 0.40534 0.12123 0.0
N179 N 0.24175 0.40988 0.08361 0.0
H180 H 0.43371 0.8791 0.28625 0.0
H181 H 0.47711 0.91369 0.22004 0.0
H182 H 0.41021 0.91992 0.23092 0.0
H183 H 0.48605 0.88042 0.22377 0.0
C184 C 0.4897 0.88107 0.24523 0.0
C185 C 0.43654 0.89026 0.26884 0.0
C186 C 0.41929 0.89911 0.26074 0.0
C187 C 0.45716 0.89492 0.2541 0.0
C188 C 0.46097 0.90928 0.23138 0.0
C189 C 0.4437 0.91763 0.22266 0.0
C190 C 0.42306 0.9127 0.23746 0.0
N191 N 0.47396 0.8853 0.26261 0.0
H192 H 0.13613 0.55183 0.30887 0.0
H193 H 0.10402 0.56785 0.2383 0.0
H194 H 0.09342 0.48769 0.24515 0.0
H195 H 0.13927 0.6133 0.25256 0.0
C196 C 0.13633 0.61331 0.27362 0.0
C197 C 0.12562 0.54489 0.28916 0.0
C198 C 0.11591 0.51777 0.27841 0.0
C199 C 0.12209 0.56331 0.27461 0.0
C200 C 0.10806 0.55425 0.24917 0.0
C201 C 0.09744 0.52684 0.23867 0.0
C202 C 0.10181 0.5089 0.25317 0.0
N203 N 0.13098 0.59001 0.28716 0.0
H204 H 0.46013 0.59575 0.28761 0.0
H205 H 0.42567 0.53963 0.21663 0.0
H206 H 0.50562 0.60236 0.22287 0.0
H207 H 0.39687 0.51314 0.24171 0.0
C208 C 0.39612 0.52544 0.25855 0.0
C209 C 0.46169 0.58858 0.26778 0.0
C210 C 0.48507 0.6022 0.25638 0.0
C211 C 0.44029 0.56562 0.25392 0.0
C212 C 0.44233 0.5565 0.2281 0.0
C213 C 0.4659 0.56926 0.21669 0.0
C214 C 0.48713 0.59245 0.23094 0.0
N215 N 0.41726 0.55215 0.26675 0.0
Tb216 Tb 0.51616 0.02216 0.01217 0.0
C217 C 0.4945 0.95933 0.01201 0.0
Tb218 Tb 0.45625 0.98361 0.00863 0.0
O219 O 0.52131 0.0126 0.0529 0.0
O220 O 0.48665 0.00942 0.03808 0.0
O221 O 0.51428 0.98296 0.00677 0.0
C222 C 0.40751 0.94876 0.01724 0.0
O223 O 0.47125 0.95582 0.01542 0.0
C224 C 0.4749 1.00136 0.96365 0.0
C225 C 0.47894 0.0473 0.01014 0.0
O226 O 0.41952 0.94545 0.99805 0.0
O227 O 0.4228 0.97185 0.03145 0.0
O228 O 0.45139 0.99367 0.96844 0.0
O229 O 0.48567 0.996 0.98269 0.0
O230 O 0.45839 0.02329 0.01315 0.0
O231 O 0.50228 0.05082 0.00792 0.0
C232 C 0.56413 0.05779 0.00177 0.0
O233 O 0.55522 0.05597 0.02487 0.0
O234 O 0.54599 0.03942 0.98441 0.0
C235 C 0.49753 0.00423 0.0572 0.0
Tb236 Tb 0.97982 0.49482 0.02021 0.0
C237 C 0.03983 0.53933 0.01971 0.0
Tb238 Tb 0.01951 0.47602 0.01559 0.0
O239 O 0.97465 0.48365 0.06107 0.0
O240 O 0.00979 0.4961 0.04558 0.0
O241 O 0.0156 0.53421 0.01887 0.0
C242 C 0.05173 0.45736 0.02638 0.0
O243 O 0.04597 0.51985 0.02011 0.0
C244 C 1.00058 0.48319 0.9703 0.0
C245 C 0.96032 0.4318 0.01471 0.0
O246 O 0.04014 0.45517 0.00304 0.0
O247 O 0.04502 0.46986 0.04368 0.0
O248 O 0.0232 0.48541 0.97361 0.0
O249 O 0.98938 0.47462 0.9908 0.0
O250 O 0.98437 0.43778 0.02175 0.0
O251 O 0.95473 0.45095 0.00871 0.0
C252 C 0.94802 0.51428 0.01085 0.0
O253 O 0.9483 0.50116 0.03101 0.0
O254 O 0.96595 0.51685 0.99613 0.0
C255 C 0.99732 0.48628 0.06518 0.0
Tb256 Tb 0.47773 0.50092 0.00391 0.0
C257 C 0.50148 0.46348 0.9945 0.0
Tb258 Tb 0.537 0.52904 0.00375 0.0
O259 O 0.47223 0.48708 0.96137 0.0
O260 O 0.50549 0.52314 0.97766 0.0
O261 O 0.48094 0.4646 1.00087 0.0
C262 C 0.58528 0.5457 0.99258 0.0
O263 O 0.52445 0.48561 0.9934 0.0
C264 C 0.51979 0.52399 0.05065 0.0
C265 C 0.51282 0.56604 0.01388 0.0
O266 O 0.56633 0.54096 0.97519 0.0
O267 O 0.57703 0.5414 0.01599 0.0
O268 O 0.54225 0.54358 0.04594 0.0
O269 O 0.50931 0.50722 0.03007 0.0
O270 O 0.53304 0.56537 0.00521 0.0
O271 O 0.49071 0.54362 0.01701 0.0
C272 C 0.43043 0.48098 0.01926 0.0
O273 O 0.43871 0.49524 0.99905 0.0
O274 O 0.44872 0.47811 0.03061 0.0
C275 C 0.4949 0.5066 0.95699 0.0
Tb276 Tb 0.19419 0.36452 0.35274 0.0
C277 C 0.183 0.30546 0.3604 0.0
Tb278 Tb 0.13782 0.32053 0.35821 0.0
O279 O 0.20357 0.36249 0.39498 0.0
O280 O 0.16732 0.35588 0.38114 0.0
O281 O 0.19944 0.32929 0.35199 0.0
C282 C 0.0977 0.28441 0.38196 0.0
O283 O 0.15915 0.29875 0.36555 0.0
C284 C 0.15041 0.32736 0.30915 0.0
C285 C 0.14912 0.37823 0.34577 0.0
O286 O 0.09721 0.28779 0.35667 0.0
O287 O 0.12052 0.30135 0.39357 0.0
O288 O 0.12686 0.31805 0.31511 0.0
O289 O 0.16432 0.32943 0.32976 0.0
O290 O 0.13409 0.35682 0.3585 0.0
O291 O 0.17162 0.38276 0.33819 0.0
C292 C 0.23854 0.40501 0.33908 0.0
O293 O 0.22767 0.40606 0.36025 0.0
O294 O 0.22454 0.38119 0.32577 0.0
C295 C 0.18071 0.35599 0.40124 0.0
Tb296 Tb 0.66174 0.84069 0.33802 0.0
C297 C 0.72198 0.88034 0.34892 0.0
Tb298 Tb 0.69687 0.81573 0.33631 0.0
O299 O 0.66984 0.85037 0.38158 0.0
O300 O 0.67182 0.81788 0.36271 0.0
O301 O 0.69908 0.87829 0.34438 0.0
C302 C 0.72961 0.79826 0.34846 0.0
O303 O 0.72537 0.85887 0.34728 0.0
C304 C 0.68162 0.82359 0.28945 0.0
C305 C 0.63775 0.7768 0.32686 0.0
O306 O 0.71508 0.7917 0.32615 0.0
O307 O 0.7259 0.81484 0.36384 0.0
O308 O 0.68833 0.80543 0.29297 0.0
O309 O 0.68655 0.83823 0.31122 0.0
O310 O 0.65941 0.7797 0.33863 0.0
O311 O 0.63571 0.79822 0.32075 0.0
C312 C 0.63082 0.85986 0.32328 0.0
O313 O 0.62479 0.84012 0.33842 0.0
O314 O 0.65406 0.86874 0.31715 0.0
C315 C 0.67666 0.83214 0.38462 0.0
Tb316 Tb 0.15371 0.83813 0.34653 0.0
C317 C 0.17358 0.79668 0.34082 0.0
Tb318 Tb 0.21312 0.86063 0.34149 0.0
O319 O 0.14097 0.83207 0.30333 0.0
O320 O 0.17879 0.84681 0.31713 0.0
O321 O 0.15618 0.80154 0.35091 0.0
C322 C 0.2595 0.86979 0.33134 0.0
O323 O 0.19561 0.81618 0.33322 0.0
C324 C 0.19932 0.86638 0.38905 0.0
C325 C 0.19242 0.90155 0.3409 0.0
O326 O 0.24878 0.86095 0.35303 0.0
O327 O 0.24414 0.87365 0.31524 0.0
O328 O 0.22157 0.88294 0.38111 0.0
O329 O 0.18698 0.84673 0.3712 0.0
O330 O 0.21118 0.89712 0.33402 0.0
O331 O 0.1702 0.88237 0.34847 0.0
C332 C 0.11156 0.82714 0.3699 0.0
O333 O 0.13317 0.85025 0.37334 0.0
O334 O 0.11357 0.81013 0.35314 0.0
C335 C 0.16399 0.84042 0.29611 0.0
Tb336 Tb 0.86512 0.68973 0.68423 0.0
C337 C 0.84587 0.62703 0.68673 0.0
Tb338 Tb 0.8061 0.64922 0.68341 0.0
O339 O 0.8701 0.6845 0.7267 0.0
O340 O 0.83602 0.6809 0.70975 0.0
O341 O 0.86564 0.65154 0.68365 0.0
C342 C 0.76357 0.61455 0.70486 0.0
O343 O 0.82182 0.62196 0.6874 0.0
C344 C 0.82221 0.6605 0.63622 0.0
C345 C 0.82443 0.70991 0.67531 0.0
O346 O 0.78665 0.62814 0.717 0.0
O347 O 0.76416 0.62056 0.68026 0.0
O348 O 0.79816 0.65066 0.64065 0.0
O349 O 0.83465 0.6596 0.65691 0.0
O350 O 0.8067 0.68795 0.68559 0.0
O351 O 0.8472 0.71312 0.67008 0.0
C352 C 0.91313 0.72649 0.67482 0.0
O353 O 0.89898 0.73107 0.69043 0.0
O354 O 0.90043 0.70111 0.66478 0.0
C355 C 0.84673 0.67827 0.73052 0.0
Tb356 Tb 0.32707 0.17016 0.66728 0.0
C357 C 0.38763 0.21273 0.67332 0.0
Tb358 Tb 0.36765 0.14918 0.6668 0.0
O359 O 0.33017 0.1782 0.7117 0.0
O360 O 0.35012 0.16268 0.69318 0.0
O361 O 0.36394 0.20824 0.66665 0.0
C362 C 0.39858 0.12896 0.67776 0.0
O363 O 0.39301 0.19295 0.67695 0.0
C364 C 0.35421 0.16133 0.62136 0.0
C365 C 0.30732 0.1063 0.66399 0.0
O366 O 0.38867 0.12863 0.65405 0.0
O367 O 0.39056 0.14003 0.6951 0.0
O368 O 0.37633 0.16299 0.62717 0.0
O369 O 0.34018 0.15096 0.63984 0.0
O370 O 0.33129 0.11093 0.66877 0.0
O371 O 0.30158 0.12587 0.66052 0.0
C372 C 0.29546 0.1864 0.64716 0.0
O373 O 0.29162 0.17237 0.6677 0.0
O374 O 0.31716 0.19146 0.63833 0.0
C375 C 0.34709 0.17046 0.71573 0.0
Tb376 Tb 0.82389 0.15798 0.69273 0.0
C377 C 0.8472 0.12101 0.67852 0.0
Tb378 Tb 0.88244 0.18696 0.68577 0.0
O379 O 0.81437 0.1434 0.65016 0.0
O380 O 0.84826 0.18007 0.66417 0.0
O381 O 0.827 0.12151 0.68723 0.0
C382 C 0.92518 0.20095 0.66168 0.0
O383 O 0.86951 0.14344 0.67589 0.0
C384 C 0.8701 0.1818 0.73471 0.0
C385 C 0.85893 0.22395 0.69884 0.0
O386 O 0.92326 0.19813 0.68702 0.0
O387 O 0.9034 0.19672 0.6504 0.0
O388 O 0.89175 0.20176 0.72834 0.0
O389 O 0.85805 0.16504 0.71443 0.0
O390 O 0.87882 0.22327 0.68939 0.0
O391 O 0.83712 0.20155 0.70305 0.0
C392 C 0.78019 0.1417 0.71545 0.0
O393 O 0.78368 0.14868 0.69126 0.0
O394 O 0.80107 0.14348 0.72644 0.0
C395 C 0.83602 0.1634 0.64391 0.0
H396 H 0.29378 0.86472 0.10803 0.0
H397 H 0.24746 0.81704 0.03459 0.0
H398 H 0.28343 0.8449 0.00884 0.0
H399 H 0.32415 0.93028 0.07916 0.0
H400 H 0.35478 0.94295 0.09849 0.0
H401 H 0.32543 0.91904 0.11166 0.0
H402 H 0.3435 0.88654 0.11825 0.0
H403 H 0.37281 0.9103 0.10497 0.0
H404 H 0.35439 0.87536 0.09019 0.0
H405 H 0.32498 0.87548 0.99097 0.0
H406 H 0.36884 0.91025 0.9818 0.0
H407 H 0.38743 0.94146 0.06552 0.0
C408 C 0.29107 0.8603 0.08652 0.0
C409 C 0.26781 0.8381 0.07355 0.0
C410 C 0.26525 0.83318 0.04528 0.0
C411 C 0.28554 0.84911 0.03034 0.0
C412 C 0.30825 0.87036 0.04375 0.0
C413 C 0.31109 0.87633 0.07114 0.0
C414 C 0.33757 0.90074 0.08037 0.0
C415 C 0.33534 0.92467 0.09317 0.0
C416 C 0.35297 0.89274 0.09958 0.0
C417 C 0.34913 0.90722 0.05392 0.0
C418 C 0.33191 0.88924 0.03312 0.0
C419 C 0.33853 0.88998 0.00701 0.0
C420 C 0.36345 0.90971 0.00198 0.0
C421 C 0.38122 0.92866 0.02286 0.0
C422 C 0.37393 0.92749 0.04913 0.0
H423 H 0.15708 0.43988 0.11391 0.0
H424 H 0.16286 0.39707 0.04272 0.0
H425 H 0.13045 0.40389 0.01772 0.0
H426 H 0.08825 0.41207 0.10331 0.0
H427 H 0.08969 0.44335 0.11567 0.0
H428 H 0.11386 0.43571 0.12809 0.0
H429 H 0.14966 0.48196 0.11464 0.0
H430 H 0.12556 0.48967 0.10217 0.0
H431 H 0.14856 0.48994 0.08064 0.0
H432 H 0.09735 0.41485 1.00027 0.0
H433 H 0.06554 0.42966 0.9915 0.0
H434 H 0.08004 0.46444 0.07393 0.0
C435 C 0.15145 0.43183 0.09311 0.0
C436 C 0.16278 0.41814 0.08026 0.0
C437 C 0.15494 0.40812 0.05292 0.0
C438 C 0.13636 0.4117 0.03856 0.0
C439 C 0.12563 0.42525 0.05178 0.0
C440 C 0.13283 0.43518 0.07842 0.0
C441 C 0.11812 0.44892 0.08777 0.0
C442 C 0.10149 0.43412 0.11003 0.0
C443 C 0.13658 0.47944 0.09683 0.0
C444 C 0.10154 0.44506 0.06222 0.0
C445 C 0.10623 0.43138 0.04172 0.0
C446 C 0.09346 0.42555 0.01616 0.0
C447 C 0.07543 0.43401 0.01136 0.0
C448 C 0.07033 0.44807 0.03203 0.0
C449 C 0.08352 0.45359 0.05779 0.0
H450 H 0.57806 0.72126 0.07874 0.0
H451 H 0.50274 0.71351 0.06442 0.0
H452 H 0.48484 0.66591 0.04476 0.0
H453 H 0.57484 0.68307 0.01879 0.0
H454 H 0.59078 0.66656 0.03367 0.0
H455 H 0.59772 0.6997 0.04793 0.0
H456 H 0.58548 0.68084 0.09375 0.0
H457 H 0.57867 0.64766 0.07971 0.0
H458 H 0.55436 0.65111 0.09587 0.0
H459 H 0.47505 0.61967 0.02648 0.0
H460 H 0.47378 0.57702 0.01057 0.0
H461 H 0.55557 0.61441 0.03534 0.0
C462 C 0.55774 0.7094 0.07177 0.0
C463 C 0.54179 0.72113 0.073 0.0
C464 C 0.51536 0.70506 0.06338 0.0
C465 C 0.505 0.67797 0.0523 0.0
C466 C 0.5213 0.6672 0.05095 0.0
C467 C 0.54707 0.68229 0.06049 0.0
C468 C 0.56037 0.66579 0.05611 0.0
C469 C 0.58222 0.67961 0.03805 0.0
C470 C 0.57031 0.66107 0.08296 0.0
C471 C 0.53815 0.63931 0.04217 0.0
C472 C 0.51575 0.64054 0.03971 0.0
C473 C 0.49247 0.61847 0.02819 0.0
C474 C 0.49196 0.59437 0.01917 0.0
C475 C 0.51464 0.59256 0.0214 0.0
C476 C 0.53808 0.61544 0.03287 0.0
H477 H 0.84108 0.30349 0.92931 0.0
H478 H 0.84994 0.25168 0.98376 0.0
H479 H 0.88594 0.29271 0.01025 0.0
H480 H 0.90797 0.35339 0.92968 0.0
H481 H 0.90279 0.38205 0.9289 0.0
H482 H 0.87798 0.34863 0.91437 0.0
H483 H 0.84555 0.35136 0.94427 0.0
H484 H 0.8703 0.38478 0.95893 0.0
H485 H 0.85333 0.35791 0.97999 0.0
H486 H 0.92271 0.33941 0.02898 0.0
H487 H 0.95547 0.38842 0.04035 0.0
H488 H 0.92015 0.4097 0.97565 0.0
C489 C 0.85067 0.30094 0.94685 0.0
C490 C 0.84305 0.27466 0.9546 0.0
C491 C 0.8557 0.27181 0.97767 0.0
C492 C 0.8761 0.29493 0.99274 0.0
C493 C 0.88325 0.32069 0.98462 0.0
C494 C 0.87073 0.32383 0.96237 0.0
C495 C 0.88189 0.35375 0.95815 0.0
C496 C 0.89334 0.3598 0.93118 0.0
C497 C 0.86155 0.36245 0.96049 0.0
C498 C 0.90278 0.36694 0.98133 0.0
C499 C 0.90344 0.34755 0.99623 0.0
C500 C 0.92212 0.35481 0.0177 0.0
C501 C 0.94063 0.38262 0.024 0.0
C502 C 0.94 0.40277 0.0092 0.0
C503 C 0.92068 0.39476 0.98775 0.0
H504 H 0.69746 0.55729 0.90602 0.0
H505 H 0.74652 0.58289 0.98097 0.0
H506 H 0.71081 0.57958 0.00499 0.0
H507 H 0.66476 0.59483 0.92184 0.0
H508 H 0.63394 0.56862 0.90556 0.0
H509 H 0.66325 0.5726 0.89386 0.0
H510 H 0.6478 0.52176 0.89969 0.0
H511 H 0.61844 0.51764 0.91134 0.0
H512 H 0.63865 0.50919 0.93165 0.0
H513 H 0.67025 0.57303 0.02129 0.0
H514 H 0.62654 0.5634 0.02903 0.0
H515 H 0.60334 0.54375 0.94383 0.0
C516 C 0.70074 0.56236 0.92746 0.0
C517 C 0.72485 0.57006 0.94158 0.0
C518 C 0.72817 0.57632 0.96969 0.0
C519 C 0.70805 0.57476 0.98354 0.0
C520 C 0.68465 0.5671 0.96907 0.0
C521 C 0.68081 0.56102 0.94167 0.0
C522 C 0.65358 0.55323 0.93112 0.0
C523 C 0.65392 0.57354 0.91196 0.0
C524 C 0.63874 0.5237 0.91766 0.0
C525 C 0.64277 0.55579 0.95693 0.0
C526 C 0.66112 0.56382 0.97852 0.0
C527 C 0.65575 0.5669 0.00456 0.0
C528 C 0.63088 0.56138 0.00875 0.0
C529 C 0.61169 0.55303 0.98704 0.0
C530 C 0.61778 0.55044 0.96074 0.0
H531 H 0.41747 0.1277 0.94135 0.0
H532 H 0.48911 0.20236 0.96916 0.0
H533 H 0.50413 0.17571 0.9936 0.0
H534 H 0.41088 0.09353 0.00152 0.0
H535 H 0.39884 0.06021 0.98385 0.0
H536 H 0.39297 0.08506 0.96908 0.0
H537 H 0.41405 0.08075 0.927 0.0
H538 H 0.41964 0.05565 0.94154 0.0
H539 H 0.44618 0.0858 0.9308 0.0
H540 H 0.51266 0.14129 0.01284 0.0
H541 H 0.51453 0.10069 0.02491 0.0
H542 H 0.4371 0.04794 0.98615 0.0
C543 C 0.43631 0.13841 0.95258 0.0
C544 C 0.45196 0.16721 0.9536 0.0
C545 C 0.47652 0.18043 0.96853 0.0
C546 C 0.48529 0.16546 0.98241 0.0
C547 C 0.4693 0.13722 0.98126 0.0
C548 C 0.44538 0.12374 0.96668 0.0
C549 C 0.43248 0.09307 0.96812 0.0
C550 C 0.4073 0.08234 0.98144 0.0
C551 C 0.42782 0.07793 0.94021 0.0
C552 C 0.45296 0.09148 0.98569 0.0
C553 C 0.47404 0.11723 0.99297 0.0
C554 C 0.49615 0.12103 0.00758 0.0
C555 C 0.49701 0.09787 0.01438 0.0
C556 C 0.47582 0.07125 0.00682 0.0
C557 C 0.45328 0.06809 0.99284 0.0
H558 H 0.68126 0.13724 0.91316 0.0
H559 H 0.72916 0.17976 0.98726 0.0
H560 H 0.69169 0.15453 0.01259 0.0
H561 H 0.62477 0.13747 0.93313 0.0
H562 H 0.60221 0.10421 0.91646 0.0
H563 H 0.63268 0.12491 0.90358 0.0
H564 H 0.64359 0.08639 0.90607 0.0
H565 H 0.61306 0.06488 0.91851 0.0
H566 H 0.64253 0.07185 0.93718 0.0
H567 H 0.64915 0.12473 0.02999 0.0
H568 H 0.6044 0.09193 0.0383 0.0
H569 H 0.58378 0.06824 0.9532 0.0
C570 C 0.68381 0.14116 0.93473 0.0
C571 C 0.70811 0.16045 0.94822 0.0
C572 C 0.71074 0.16514 0.97644 0.0
C573 C 0.68956 0.15089 0.99103 0.0
C574 C 0.66585 0.13204 0.97713 0.0
C575 C 0.66283 0.12714 0.94962 0.0
C576 C 0.63515 0.10607 0.93958 0.0
C577 C 0.62298 0.11891 0.92215 0.0
C578 C 0.6335 0.0808 0.92444 0.0
C579 C 0.62324 0.09935 0.9658 0.0
C580 C 0.64127 0.1148 0.98718 0.0
C581 C 0.63488 0.11249 0.01341 0.0
C582 C 0.60943 0.09382 0.01794 0.0
C583 C 0.59073 0.07754 0.9964 0.0
C584 C 0.59776 0.08039 0.97001 0.0
H585 H 0.86607 0.55885 0.91761 0.0
H586 H 0.81979 0.54925 0.98345 0.0
H587 H 0.84741 0.53761 0.01127 0.0
H588 H 0.87676 0.50323 0.92884 0.0
H589 H 0.90945 0.52056 0.9201 0.0
H590 H 0.88639 0.52873 0.90548 0.0
H591 H 0.91667 0.57984 0.92261 0.0
H592 H 0.93981 0.57181 0.93732 0.0
H593 H 0.92773 0.58929 0.95766 0.0
H594 H 0.87914 0.52558 0.03153 0.0
H595 H 0.91304 0.51419 0.04283 0.0
H596 H 0.93934 0.53241 0.9643 0.0
C597 C 0.86184 0.55437 0.93793 0.0
C598 C 0.8408 0.55495 0.94836 0.0
C599 C 0.83579 0.54895 0.975 0.0
C600 C 0.8514 0.54233 0.99098 0.0
C601 C 0.87197 0.54189 0.98008 0.0
C602 C 0.87727 0.54778 0.95418 0.0
C603 C 0.90038 0.54552 0.94723 0.0
C604 C 0.89278 0.52318 0.92404 0.0
C605 C 0.92245 0.57327 0.94083 0.0
C606 C 0.90714 0.53729 0.97321 0.0
C607 C 0.8905 0.53532 0.9919 0.0
C608 C 0.89239 0.52724 0.01713 0.0
C609 C 0.91168 0.52083 0.02338 0.0
C610 C 0.92886 0.52266 0.00452 0.0
C611 C 0.92665 0.53119 0.9792 0.0
H612 H 0.42184 0.30501 0.94219 0.0
H613 H 0.49064 0.3009 0.96354 0.0
H614 H 0.51454 0.35054 0.978 0.0
H615 H 0.45343 0.37174 0.91776 0.0
H616 H 0.43196 0.38169 0.93145 0.0
H617 H 0.42071 0.34612 0.92179 0.0
H618 H 0.40728 0.33446 0.96944 0.0
H619 H 0.41849 0.36999 0.97918 0.0
H620 H 0.43085 0.35211 0.9979 0.0
H621 H 0.53115 0.40125 0.9892 0.0
H622 H 0.53789 0.44782 0.9997 0.0
H623 H 0.45746 0.41756 0.97337 0.0
C624 C 0.44195 0.31463 0.94987 0.0
C625 C 0.45441 0.29923 0.95176 0.0
C626 C 0.48069 0.31235 0.96204 0.0
C627 C 0.49445 0.34055 0.97019 0.0
C628 C 0.48158 0.3552 0.96811 0.0
C629 C 0.45584 0.34262 0.95842 0.0
C630 C 0.44619 0.36269 0.95917 0.0
C631 C 0.43757 0.36573 0.93086 0.0
C632 C 0.42442 0.35431 0.97752 0.0
C633 C 0.47044 0.38847 0.97093 0.0
C634 C 0.49079 0.38392 0.97559 0.0
C635 C 0.5153 0.405 0.9858 0.0
C636 C 0.51897 0.43135 0.99165 0.0
C637 C 0.49813 0.43614 0.98769 0.0
C638 C 0.47366 0.4144 0.97705 0.0
H639 H 0.11407 0.69571 0.08051 0.0
H640 H 0.18404 0.70109 0.05519 0.0
H641 H 0.1587 0.65369 0.03371 0.0
H642 H 0.08461 0.62654 0.09612 0.0
H643 H 0.0524 0.61808 0.08421 0.0
H644 H 0.07595 0.65278 0.09664 0.0
H645 H 0.06826 0.66938 0.05199 0.0
H646 H 0.04479 0.63466 0.03936 0.0
H647 H 0.07187 0.65467 0.02101 0.0
H648 H 0.12621 0.6051 0.01703 0.0
H649 H 0.08887 0.55843 0.00664 0.0
H650 H 0.03961 0.58473 0.04168 0.0
C651 C 0.12399 0.68691 0.0703 0.0
C652 C 0.15096 0.70205 0.06945 0.0
C653 C 0.16337 0.6899 0.05604 0.0
C654 C 0.14913 0.663 0.04372 0.0
C655 C 0.12253 0.64862 0.0449 0.0
C656 C 0.11005 0.66012 0.05782 0.0
C657 C 0.08138 0.63996 0.05683 0.0
C658 C 0.07311 0.63399 0.08513 0.0
C659 C 0.06565 0.65029 0.04137 0.0
C660 C 0.07973 0.6152 0.04158 0.0
C661 C 0.10369 0.62068 0.03486 0.0
C662 C 0.10732 0.60065 0.02194 0.0
C663 C 0.08599 0.5742 0.01614 0.0
C664 C 0.0613 0.56802 0.02312 0.0
C665 C 0.05813 0.58897 0.03561 0.0
H666 H 0.28874 0.45887 0.02894 0.0
H667 H 0.27904 0.40096 0.08638 0.0
H668 H 0.32223 0.40844 0.08042 0.0
H669 H 0.32441 0.43965 0.98441 0.0
H670 H 0.34549 0.47424 0.97701 0.0
H671 H 0.31327 0.46388 0.98501 0.0
H672 H 0.33174 0.50344 0.02308 0.0
H673 H 0.36401 0.51383 0.01527 0.0
H674 H 0.35537 0.50613 0.04863 0.0
H675 H 0.36701 0.42376 0.07077 0.0
H676 H 0.41046 0.44426 0.05555 0.0
H677 H 0.39177 0.49122 0.00291 0.0
C678 C 0.29568 0.44761 0.04002 0.0
C679 C 0.2805 0.42941 0.05815 0.0
C680 C 0.29022 0.41507 0.0724 0.0
C681 C 0.3148 0.41916 0.06918 0.0
C682 C 0.32941 0.43749 0.05149 0.0
C683 C 0.32024 0.45133 0.03692 0.0
C684 C 0.34022 0.47006 0.01944 0.0
C685 C 0.33024 0.46143 0.9897 0.0
C686 C 0.34831 0.50015 0.02707 0.0
C687 C 0.36205 0.46472 0.02672 0.0
C688 C 0.35533 0.44591 0.04534 0.0
C689 C 0.37243 0.43829 0.05598 0.0
C690 C 0.39707 0.45009 0.04726 0.0
C691 C 0.40432 0.46911 0.02795 0.0
C692 C 0.38657 0.47649 0.01751 0.0
H693 H 0.57731 0.89269 0.06133 0.0
H694 H 0.50708 0.81357 0.04834 0.0
H695 H 0.48329 0.83556 0.03124 0.0
H696 H 0.54844 0.93124 0.08324 0.0
H697 H 0.56901 0.96082 0.06669 0.0
H698 H 0.58051 0.93871 0.07742 0.0
H699 H 0.59054 0.93198 0.02916 0.0
H700 H 0.579 0.95404 0.01829 0.0
H701 H 0.56534 0.91986 0.00203 0.0
H702 H 0.46663 0.86674 0.01798 0.0
H703 H 0.45895 0.90444 0.00776 0.0
H704 H 0.54048 0.96275 0.02728 0.0
C705 C 0.55696 0.88002 0.05473 0.0
C706 C 0.54406 0.85147 0.0561 0.0
C707 C 0.51741 0.83549 0.04734 0.0
C708 C 0.50371 0.8478 0.03762 0.0
C709 C 0.51699 0.87606 0.03656 0.0
C710 C 0.54307 0.89194 0.0447 0.0
C711 C 0.55276 0.92188 0.04165 0.0
C712 C 0.56329 0.93917 0.06887 0.0
C713 C 0.57311 0.93256 0.02158 0.0
C714 C 0.52805 0.92039 0.03073 0.0
C715 C 0.50759 0.89381 0.02807 0.0
C716 C 0.48258 0.88759 0.01965 0.0
C717 C 0.47839 0.90911 0.01392 0.0
C718 C 0.49915 0.93646 0.01632 0.0
C719 C 0.52429 0.942 0.02465 0.0
H720 H 0.95331 0.16824 0.39946 0.0
H721 H 0.9793 0.17341 0.48285 0.0
H722 H 0.02365 0.20719 0.47451 0.0
H723 H 0.01179 0.17554 0.37225 0.0
H724 H 0.01064 0.19589 0.34659 0.0
H725 H 0.98123 0.17069 0.3587 0.0
H726 H 0.96952 0.2081 0.36999 0.0
H727 H 0.99898 0.23344 0.35815 0.0
H728 H 0.99192 0.23836 0.3916 0.0
H729 H 0.06426 0.24253 0.45817 0.0
H730 H 0.09935 0.27605 0.43423 0.0
H731 H 0.04782 0.24776 0.36098 0.0
C732 C 0.96846 0.17607 0.4158 0.0
C733 C 0.96287 0.16826 0.44183 0.0
C734 C 0.98312 0.17932 0.46282 0.0
C735 C 0.00837 0.19843 0.45826 0.0
C736 C 0.01313 0.20618 0.43255 0.0
C737 C 0.99385 0.19524 0.41159 0.0
C738 C 0.00408 0.20792 0.38611 0.0
C739 C 1.0018 0.18621 0.36465 0.0
C740 C 0.9903 0.22284 0.37587 0.0
C741 C 0.03202 0.22795 0.39614 0.0
C742 C 0.03678 0.22652 0.423 0.0
C743 C 0.06085 0.24361 0.43707 0.0
C744 C 0.08064 0.26259 0.42331 0.0
C745 C 0.07629 0.26428 0.39576 0.0
C746 C 0.05167 0.24672 0.38201 0.0
H747 H 0.82797 0.77721 0.443 0.0
H748 H 0.83668 0.7341 0.37409 0.0
H749 H 0.80451 0.73994 0.34695 0.0
H750 H 0.7589 0.75053 0.42881 0.0
H751 H 0.76092 0.78242 0.43983 0.0
H752 H 0.78364 0.77377 0.45452 0.0
H753 H 0.82162 0.81905 0.44214 0.0
H754 H 0.79913 0.82806 0.42767 0.0
H755 H 0.82276 0.82706 0.40797 0.0
H756 H 0.77235 0.75127 0.32713 0.0
H757 H 0.74269 0.76832 0.3156 0.0
H758 H 0.75572 0.80509 0.39705 0.0
C759 C 0.82277 0.76866 0.4223 0.0
C760 C 0.83466 0.75513 0.41057 0.0
C761 C 0.82781 0.74464 0.38333 0.0
C762 C 0.80953 0.74776 0.36783 0.0
C763 C 0.79837 0.76149 0.37988 0.0
C764 C 0.8047 0.7718 0.40648 0.0
C765 C 0.79062 0.78668 0.41423 0.0
C766 C 0.77244 0.77249 0.43562 0.0
C767 C 0.80968 0.81701 0.42354 0.0
C768 C 0.77564 0.78337 0.38775 0.0
C769 C 0.7802 0.76856 0.36828 0.0
C770 C 0.76858 0.76287 0.34219 0.0
C771 C 0.75182 0.77263 0.33583 0.0
C772 C 0.74712 0.78805 0.35542 0.0
C773 C 0.75914 0.79344 0.38168 0.0
H774 H 0.26041 0.05698 0.40218 0.0
H775 H 0.18764 0.05301 0.37993 0.0
H776 H 0.17099 0.00737 0.35618 0.0
H777 H 0.26236 0.02033 0.34148 0.0
H778 H 0.27512 1.00202 0.35882 0.0
H779 H 0.2824 0.03544 0.37266 0.0
H780 H 0.2643 0.01581 0.41679 0.0
H781 H 0.25733 0.98248 0.40316 0.0
H782 H 0.23205 0.98694 0.41561 0.0
H783 H 0.16079 0.96118 0.33769 0.0
H784 H 0.1572 0.91627 0.32708 0.0
H785 H 0.23623 0.94924 0.36071 0.0
C786 C 0.24098 0.04655 0.39232 0.0
C787 C 0.22552 0.05893 0.39267 0.0
C788 C 0.20018 0.04442 0.37944 0.0
C789 C 0.19045 0.01837 0.36595 0.0
C790 C 0.20622 0.00691 0.36585 0.0
C791 C 0.23087 0.02038 0.37879 0.0
C792 C 0.24316 0.00264 0.37684 0.0
C793 C 0.26719 0.01591 0.36153 0.0
C794 C 0.24958 0.99661 0.40476 0.0
C795 C 0.22146 0.97705 0.36099 0.0
C796 C 0.20037 0.98007 0.35481 0.0
C797 C 0.17729 0.95868 0.34203 0.0
C798 C 0.17544 0.9333 0.33603 0.0
C799 C 0.19659 0.92955 0.34258 0.0
C800 C 0.22008 0.95188 0.35467 0.0
H801 H 0.51239 0.65433 0.24223 0.0
H802 H 0.50842 0.60331 0.30468 0.0
H803 H 0.54693 0.64271 0.32997 0.0
H804 H 0.58091 0.6939 0.24453 0.0
H805 H 0.58208 0.7257 0.23964 0.0
H806 H 0.55425 0.69381 0.22606 0.0
H807 H 0.52455 0.70615 0.25113 0.0
H808 H 0.55217 0.73842 0.26431 0.0
H809 H 0.53123 0.7155 0.2867 0.0
H810 H 0.58726 0.68684 0.34687 0.0
H811 H 0.62464 0.73376 0.35628 0.0
H812 H 0.60038 0.75715 0.28459 0.0
C813 C 0.5197 0.65159 0.26125 0.0
C814 C 0.5077 0.62593 0.27159 0.0
C815 C 0.51748 0.62293 0.29659 0.0
C816 C 0.53929 0.64512 0.311 0.0
C817 C 0.55076 0.67022 0.30028 0.0
C818 C 0.54112 0.67368 0.27615 0.0
C819 C 0.55677 0.70291 0.26936 0.0
C820 C 0.56922 0.7041 0.24333 0.0
C821 C 0.54018 0.71654 0.26779 0.0
C822 C 0.57686 0.71532 0.29328 0.0
C823 C 0.5732 0.69602 0.31073 0.0
C824 C 0.59013 0.70221 0.33354 0.0
C825 C 0.61132 0.72884 0.33867 0.0
C826 C 0.61513 0.74903 0.32131 0.0
C827 C 0.59759 0.74219 0.29843 0.0
H828 H 0.3704 0.88708 0.24173 0.0
H829 H 0.41828 0.90023 0.31531 0.0
H830 H 0.38216 0.89278 0.34114 0.0
H831 H 0.34094 0.92412 0.26709 0.0
H832 H 0.31003 0.90161 0.24858 0.0
H833 H 0.33901 0.90607 0.23561 0.0
H834 H 0.32063 0.85367 0.23247 0.0
H835 H 0.29158 0.8491 0.24539 0.0
H836 H 0.3099 0.83586 0.26178 0.0
H837 H 0.34083 0.8839 0.35906 0.0
H838 H 0.29782 0.87637 0.36776 0.0
H839 H 0.27841 0.8728 0.28291 0.0
C840 C 0.37351 0.88866 0.26328 0.0
C841 C 0.39732 0.89415 0.27639 0.0
C842 C 0.40016 0.89551 0.30466 0.0
C843 C 0.3798 0.89151 0.31957 0.0
C844 C 0.35677 0.88642 0.30597 0.0
C845 C 0.35356 0.88516 0.27848 0.0
C846 C 0.32718 0.88042 0.26879 0.0
C847 C 0.32944 0.9045 0.25416 0.0
C848 C 0.3114 0.85314 0.25106 0.0
C849 C 0.3161 0.87928 0.29517 0.0
C850 C 0.33336 0.88249 0.31636 0.0
C851 C 0.32722 0.88153 0.34265 0.0
C852 C 0.30279 0.87723 0.34739 0.0
C853 C 0.28506 0.87436 0.32599 0.0
C854 C 0.29182 0.8754 0.29961 0.0
H855 H 0.13431 0.48485 0.26126 0.0
H856 H 0.10577 0.50678 0.32991 0.0
H857 H 0.11018 0.47254 0.35466 0.0
H858 H 0.10289 0.41363 0.26783 0.0
H859 H 0.12877 0.40874 0.25843 0.0
H860 H 0.1246 0.43527 0.24514 0.0
H861 H 0.17079 0.47264 0.26303 0.0
H862 H 0.17641 0.44649 0.27486 0.0
H863 H 0.18197 0.47509 0.2976 0.0
H864 H 0.11565 0.43391 0.3708 0.0
H865 H 0.12638 0.39779 0.37886 0.0
H866 H 0.15388 0.40368 0.30057 0.0
C867 C 0.12907 0.48246 0.28154 0.0
C868 C 0.11966 0.49831 0.29374 0.0
C869 C 0.11315 0.49486 0.32034 0.0
C870 C 0.11547 0.4754 0.33445 0.0
C871 C 0.12461 0.45989 0.32173 0.0
C872 C 0.13165 0.46351 0.29601 0.0
C873 C 0.14116 0.44452 0.28692 0.0
C874 C 0.12329 0.42438 0.26314 0.0
C875 C 0.16926 0.46066 0.28022 0.0
C876 C 0.13891 0.42998 0.3117 0.0
C877 C 0.12878 0.43865 0.33139 0.0
C878 C 0.12385 0.42718 0.35563 0.0
C879 C 0.12986 0.40664 0.35999 0.0
C880 C 0.14114 0.39832 0.34042 0.0
C881 C 0.1456 0.41006 0.31598 0.0
H882 H 0.35405 0.47471 0.2479 0.0
H883 H 0.3877 0.54723 0.3046 0.0
H884 H 0.35052 0.52452 0.33105 0.0
H885 H 0.28735 0.45735 0.25009 0.0
H886 H 0.27525 0.42102 0.24745 0.0
H887 H 0.30414 0.44333 0.23262 0.0
H888 H 0.32901 0.42455 0.25949 0.0
H889 H 0.30021 0.40224 0.27441 0.0
H890 H 0.3293 0.42584 0.29534 0.0
H891 H 0.31015 0.49325 0.352 0.0
H892 H 0.26934 0.45594 0.36542 0.0
H893 H 0.26218 0.40416 0.29483 0.0
C894 C 0.35347 0.48583 0.26581 0.0
C895 C 0.37368 0.51266 0.27422 0.0
C896 C 0.37239 0.52664 0.29777 0.0
C897 C 0.35136 0.51391 0.31292 0.0
C898 C 0.3318 0.48732 0.30416 0.0
C899 C 0.33263 0.47348 0.28108 0.0
C900 C 0.30935 0.44492 0.27621 0.0
C901 C 0.29306 0.44146 0.25004 0.0
C902 C 0.31746 0.42311 0.27638 0.0
C903 C 0.29542 0.44474 0.30029 0.0
C904 C 0.30862 0.46939 0.31615 0.0
C905 C 0.29961 0.4739 0.33968 0.0
C906 C 0.27648 0.45264 0.34716 0.0
C907 C 0.26275 0.4273 0.33115 0.0
C908 C 0.27234 0.42338 0.30743 0.0
H909 H 0.49889 0.85999 0.28984 0.0
H910 H 0.53433 0.90484 0.22294 0.0
H911 H 0.57528 0.90741 0.23832 0.0
H912 H 0.55586 0.89332 0.33906 0.0
H913 H 0.54879 0.862 0.353 0.0
H914 H 0.52291 0.86607 0.3386 0.0
H915 H 0.50646 0.82174 0.30692 0.0
H916 H 0.53224 0.81752 0.32124 0.0
H917 H 0.5282 0.81868 0.28572 0.0
H918 H 0.6116 0.90471 0.25984 0.0
H919 H 0.64085 0.89275 0.28372 0.0
H920 H 0.58167 0.84603 0.3351 0.0
C921 C 0.51548 0.87068 0.2788 0.0
C922 C 0.51384 0.88264 0.25549 0.0
C923 C 0.53548 0.89577 0.24095 0.0
C924 C 0.55877 0.89743 0.24959 0.0
C925 C 0.55987 0.88536 0.27253 0.0
C926 C 0.53878 0.87187 0.28678 0.0
C927 C 0.5447 0.85852 0.30929 0.0
C928 C 0.54296 0.87072 0.33661 0.0
C929 C 0.52684 0.82726 0.30556 0.0
C930 C 0.57233 0.86656 0.30531 0.0
C931 C 0.5807 0.88245 0.28426 0.0
C932 C 0.60533 0.89232 0.27638 0.0
C933 C 0.6218 0.88544 0.29012 0.0
C934 C 0.61349 0.86851 0.31123 0.0
C935 C 0.58849 0.85909 0.31908 0.0
H936 H 0.16224 0.66545 0.25928 0.0
H937 H 0.11961 0.61803 0.32193 0.0
H938 H 0.12568 0.66008 0.34664 0.0
H939 H 0.20955 0.72486 0.30383 0.0
H940 H 0.21142 0.74909 0.28112 0.0
H941 H 0.20375 0.71525 0.2683 0.0
H942 H 0.16182 0.70785 0.24259 0.0
H943 H 0.16944 0.74167 0.25532 0.0
H944 H 0.13898 0.71245 0.26056 0.0
H945 H 0.13384 0.70669 0.36303 0.0
H946 H 0.14618 0.75536 0.37147 0.0
H947 H 0.18638 0.77321 0.30009 0.0
C948 C 0.15428 0.66403 0.27825 0.0
C949 C 0.14047 0.63857 0.28873 0.0
C950 C 0.13039 0.63738 0.31362 0.0
C951 C 0.13369 0.66113 0.32778 0.0
C952 C 0.14744 0.68596 0.31695 0.0
C953 C 0.15784 0.68765 0.2929 0.0
C954 C 0.17206 0.71695 0.28588 0.0
C955 C 0.20091 0.72713 0.28472 0.0
C956 C 0.15983 0.71989 0.25953 0.0
C957 C 0.16768 0.73136 0.30953 0.0
C958 C 0.15326 0.71307 0.32711 0.0
C959 C 0.14545 0.72128 0.34963 0.0
C960 C 0.15249 0.7489 0.35424 0.0
C961 C 0.16753 0.76801 0.33667 0.0
C962 C 0.17538 0.75911 0.31419 0.0
H963 H 0.7982 0.03699 0.4098 0.0
H964 H 0.8692 0.03709 0.39854 0.0
H965 H 0.84401 0.9892 0.37824 0.0
H966 H 0.76251 0.96849 0.42728 0.0
H967 H 0.73246 0.96149 0.40995 0.0
H968 H 0.75611 0.99598 0.42293 0.0
H969 H 0.75599 0.01205 0.37581 0.0
H970 H 0.73234 0.97757 0.36271 0.0
H971 H 0.76232 0.99555 0.348 0.0
H972 H 0.81102 0.94062 0.36107 0.0
H973 H 0.77272 0.89536 0.347 0.0
H974 H 0.72313 0.92727 0.36831 0.0
C975 C 0.8084 0.02694 0.40288 0.0
C976 C 0.8356 0.04072 0.40567 0.0
C977 C 0.84836 0.02696 0.39652 0.0
C978 C 0.83421 0.99974 0.38498 0.0
C979 C 0.80737 0.98668 0.38263 0.0
C980 C 0.79458 0.99984 0.3912 0.0
C981 C 0.76561 0.98108 0.38667 0.0
C982 C 0.75346 0.97649 0.41329 0.0
C983 C 0.75335 0.99223 0.36713 0.0
C984 C 0.76409 0.95525 0.37433 0.0
C985 C 0.78838 0.95887 0.37226 0.0
C986 C 0.7919 0.93761 0.36239 0.0
C987 C 0.77001 0.91195 0.3545 0.0
C988 C 0.7449 0.90779 0.35634 0.0
C989 C 0.74202 0.92987 0.36627 0.0
H990 H 0.968 0.73621 0.40824 0.0
H991 H 0.96927 0.81208 0.42976 0.0
H992 H 0.01506 0.83836 0.42109 0.0
H993 H 0.03405 0.75802 0.43414 0.0
H994 H 0.03911 0.7402 0.40649 0.0
H995 H 0.00722 0.72732 0.41683 0.0
H996 H 0.9901 0.72848 0.36879 0.0
H997 H 0.0219 0.74131 0.35833 0.0
H998 H 0.00525 0.76001 0.3533 0.0
H999 H 0.06057 0.85624 0.4102 0.0
H1000 H 0.10123 0.8648 0.39266 0.0
H1001 H 0.06914 0.77745 0.37436 0.0
C1002 C 0.9781 0.75835 0.41136 0.0
C1003 C 0.96537 0.77223 0.41978 0.0
C1004 C 0.97882 0.80117 0.42324 0.0
C1005 C 0.00481 0.81622 0.41854 0.0
C1006 C 0.01685 0.80196 0.41005 0.0
C1007 C 0.00386 0.77369 0.40611 0.0
C1008 C 0.02064 0.76346 0.39478 0.0
C1009 C 0.02554 0.74623 0.41423 0.0
C1010 C 0.00876 0.74738 0.36716 0.0
C1011 C 0.04499 0.79039 0.39274 0.0
C1012 C 0.04259 0.81232 0.4022 0.0
C1013 C 0.06264 0.83926 0.40261 0.0
C1014 C 0.08561 0.84391 0.39265 0.0
C1015 C 0.08804 0.82177 0.38197 0.0
C1016 C 0.06759 0.79471 0.38224 0.0
H1017 H 0.19931 0.19219 0.4316 0.0
H1018 H 0.23997 0.18701 0.3653 0.0
H1019 H 0.23386 0.22211 0.3444 0.0
H1020 H 0.15139 0.19971 0.39254 0.0
H1021 H 0.15066 0.2233 0.41753 0.0
H1022 H 0.15864 0.19817 0.4274 0.0
H1023 H 0.20134 0.23639 0.45266 0.0
H1024 H 0.19434 0.26215 0.44278 0.0
H1025 H 0.22391 0.26397 0.43509 0.0
H1026 H 0.22539 0.25983 0.33225 0.0
H1027 H 0.21162 0.29408 0.32758 0.0
H1028 H 0.17336 0.27166 0.39975 0.0
C1029 C 0.20681 0.19842 0.41263 0.0
C1030 C 0.2201 0.18702 0.40003 0.0
C1031 C 0.22962 0.19547 0.37519 0.0
C1032 C 0.22631 0.21543 0.36323 0.0
C1033 C 0.21312 0.22635 0.37622 0.0
C1034 C 0.20322 0.21786 0.40019 0.0
C1035 C 0.18955 0.23253 0.40991 0.0
C1036 C 0.16086 0.21222 0.41196 0.0
C1037 C 0.20309 0.24977 0.43669 0.0
C1038 C 0.1931 0.25049 0.38757 0.0
C1039 C 0.20716 0.24699 0.36856 0.0
C1040 C 0.21408 0.26247 0.34681 0.0
C1041 C 0.20627 0.28188 0.34435 0.0
C1042 C 0.19123 0.28514 0.3632 0.0
C1043 C 0.18451 0.26916 0.38495 0.0
H1044 H 0.61505 0.50616 0.71682 0.0
H1045 H 0.63816 0.5041 0.79941 0.0
H1046 H 0.68363 0.53556 0.79257 0.0
H1047 H 0.67201 0.51011 0.68889 0.0
H1048 H 0.6734 0.53322 0.66506 0.0
H1049 H 0.64286 0.50888 0.67585 0.0
H1050 H 0.63486 0.54843 0.69028 0.0
H1051 H 0.66545 0.5729 0.67978 0.0
H1052 H 0.65836 0.5765 0.71353 0.0
H1053 H 0.72583 0.56911 0.77795 0.0
H1054 H 0.76293 0.60199 0.75589 0.0
H1055 H 0.71319 0.58295 0.68246 0.0
C1056 C 0.6298 0.51193 0.73325 0.0
C1057 C 0.62318 0.50272 0.75865 0.0
C1058 C 0.64287 0.51107 0.77986 0.0
C1059 C 0.66872 0.52885 0.77615 0.0
C1060 C 0.67457 0.53808 0.75108 0.0
C1061 C 0.65576 0.52985 0.72992 0.0
C1062 C 0.66728 0.54383 0.70537 0.0
C1063 C 0.66367 0.52275 0.68244 0.0
C1064 C 0.6558 0.56146 0.69674 0.0
C1065 C 0.69541 0.56145 0.71619 0.0
C1066 C 0.69912 0.55767 0.74258 0.0
C1067 C 0.72322 0.57207 0.75723 0.0
C1068 C 0.74415 0.59075 0.74453 0.0
C1069 C 0.74088 0.5949 0.71748 0.0
C1070 C 0.71619 0.58006 0.70313 0.0
H1071 H 0.5051 0.12259 0.77234 0.0
H1072 H 0.52213 0.08576 0.70449 0.0
H1073 H 0.48945 0.08952 0.67552 0.0
H1074 H 0.43748 0.0876 0.7562 0.0
H1075 H 0.43407 0.11617 0.76797 0.0
H1076 H 0.46004 0.11241 0.78252 0.0
H1077 H 0.49322 0.16107 0.77133 0.0
H1078 H 0.46729 0.16502 0.75697 0.0
H1079 H 0.49309 0.16962 0.73744 0.0
H1080 H 0.45305 0.09591 0.65455 0.0
H1081 H 0.41785 0.10568 0.64356 0.0
H1082 H 0.4243 0.136 0.72625 0.0
C1083 C 0.50201 0.11525 0.75138 0.0
C1084 C 0.51604 0.10365 0.74072 0.0
C1085 C 0.51173 0.09487 0.71306 0.0
C1086 C 0.4931 0.09676 0.69653 0.0
C1087 C 0.47905 0.10754 0.70798 0.0
C1088 C 0.48347 0.11676 0.7348 0.0
C1089 C 0.46551 0.1268 0.74266 0.0
C1090 C 0.44826 0.10972 0.76357 0.0
C1091 C 0.48069 0.15745 0.75268 0.0
C1092 C 0.45008 0.1217 0.7161 0.0
C1093 C 0.45814 0.1107 0.69624 0.0
C1094 C 0.44664 0.10451 0.66999 0.0
C1095 C 0.42663 0.11002 0.66393 0.0
C1096 C 0.41833 0.1214 0.68409 0.0
C1097 C 0.43013 0.12708 0.71046 0.0
H1098 H 0.92581 0.38372 0.74778 0.0
H1099 H 0.85104 0.37621 0.7294 0.0
H1100 H 0.83253 0.32726 0.71421 0.0
H1101 H 0.92088 0.33849 0.69106 0.0
H1102 H 0.93708 0.32399 0.70928 0.0
H1103 H 0.94454 0.35847 0.71889 0.0
H1104 H 0.93365 0.3461 0.76701 0.0
H1105 H 0.9262 0.3116 0.7575 0.0
H1106 H 0.90258 0.31764 0.772 0.0
H1107 H 0.82154 0.27879 0.70345 0.0
H1108 H 0.8195 0.23446 0.69407 0.0
H1109 H 0.90179 0.27347 0.71675 0.0
C1110 C 0.90557 0.37172 0.74048 0.0
C1111 C 0.88985 0.38375 0.73964 0.0
C1112 C 0.86348 0.36748 0.72988 0.0
C1113 C 0.85276 0.33963 0.72138 0.0
C1114 C 0.86872 0.32838 0.72252 0.0
C1115 C 0.8946 0.34391 0.73156 0.0
C1116 C 0.9075 0.32675 0.73032 0.0
C1117 C 0.92876 0.33758 0.71125 0.0
C1118 C 0.91811 0.32545 0.75838 0.0
C1119 C 0.88481 0.29919 0.71918 0.0
C1120 C 0.86257 0.30055 0.71519 0.0
C1121 C 0.83888 0.27752 0.70621 0.0
C1122 C 0.8379 0.25244 0.70101 0.0
C1123 C 0.86053 0.25066 0.70438 0.0
C1124 C 0.88428 0.27439 0.71353 0.0
H1125 H 0.1805 0.98038 0.58707 0.0
H1126 H 0.18753 0.92829 0.64256 0.0
H1127 H 0.22569 0.96884 0.66715 0.0
H1128 H 0.24693 0.02419 0.58327 0.0
H1129 H 0.24501 0.05478 0.58161 0.0
H1130 H 0.21764 0.02208 0.56925 0.0
H1131 H 0.18899 0.03033 0.60046 0.0
H1132 H 0.2161 0.06336 0.61265 0.0
H1133 H 0.19897 0.03884 0.63579 0.0
H1134 H 0.26565 0.01494 0.68283 0.0
H1135 H 0.30133 0.06318 0.69097 0.0
H1136 H 0.26583 0.08486 0.62683 0.0
C1137 C 0.18997 0.97759 0.60455 0.0
C1138 C 0.18126 0.95132 0.61296 0.0
C1139 C 0.19395 0.94835 0.63596 0.0
C1140 C 0.21562 0.97121 0.64994 0.0
C1141 C 0.22401 0.99685 0.64084 0.0
C1142 C 0.21129 1.00016 0.61891 0.0
C1143 C 0.22419 0.02973 0.61294 0.0
C1144 C 0.23402 0.03286 0.58512 0.0
C1145 C 0.20597 0.04124 0.61564 0.0
C1146 C 0.24628 0.04262 0.63485 0.0
C1147 C 0.2461 0.02334 0.65058 0.0
C1148 C 0.26571 0.03027 0.67094 0.0
C1149 C 0.2859 0.05762 0.67537 0.0
C1150 C 0.28598 0.07768 0.65985 0.0
C1151 C 0.26586 0.07002 0.63944 0.0
H1152 H 0.06806 0.23155 0.63954 0.0
H1153 H 0.04223 0.21226 0.55488 0.0
H1154 H 0.99852 0.20101 0.56456 0.0
H1155 H 0.00679 0.17758 0.66224 0.0
H1156 H 0.00917 0.19909 0.69133 0.0
H1157 H 0.03801 0.20341 0.67802 0.0
H1158 H 0.05333 0.25458 0.67432 0.0
H1159 H 0.02439 0.25033 0.68722 0.0
H1160 H 0.03283 0.26373 0.65545 0.0
H1161 H 0.95923 0.19642 0.58238 0.0
H1162 H 0.92467 0.19404 0.60803 0.0
H1163 H 0.97432 0.21458 0.68182 0.0
C1164 C 0.05298 0.22427 0.62319 0.0
C1165 C 0.05849 0.22283 0.59645 0.0
C1166 C 0.03841 0.21365 0.57548 0.0
C1167 C 0.01353 0.20721 0.58077 0.0
C1168 C 0.0089 0.20979 0.6072 0.0
C1169 C 0.02784 0.21766 0.62816 0.0
C1170 C 0.01765 0.21953 0.65462 0.0
C1171 C 0.01792 0.19866 0.67262 0.0
C1172 C 0.03297 0.24878 0.66873 0.0
C1173 C 0.99027 0.21202 0.64512 0.0
C1174 C 0.98575 0.20656 0.61765 0.0
C1175 C 0.9624 0.20031 0.60393 0.0
C1176 C 0.94294 0.19919 0.61867 0.0
C1177 C 0.94684 0.20411 0.64688 0.0
C1178 C 0.97084 0.21064 0.66027 0.0
H1179 H 0.81707 0.81815 0.58537 0.0
H1180 H 0.77296 0.82982 0.6444 0.0
H1181 H 0.77658 0.79628 0.67102 0.0
H1182 H 0.79224 0.74579 0.58897 0.0
H1183 H 0.82292 0.748 0.58591 0.0
H1184 H 0.81594 0.77203 0.57104 0.0
H1185 H 0.85727 0.81212 0.59727 0.0
H1186 H 0.86411 0.78803 0.61224 0.0
H1187 H 0.86167 0.81339 0.63312 0.0
H1188 H 0.78335 0.76014 0.69008 0.0
H1189 H 0.79553 0.7261 0.70216 0.0
H1190 H 0.83836 0.74053 0.63279 0.0
C1191 C 0.80811 0.81344 0.60385 0.0
C1192 C 0.79457 0.82628 0.61288 0.0
C1193 C 0.78336 0.82008 0.63727 0.0
C1194 C 0.78529 0.80107 0.65243 0.0
C1195 C 0.79885 0.7888 0.6431 0.0
C1196 C 0.81031 0.7949 0.61952 0.0
C1197 C 0.82458 0.77952 0.61457 0.0
C1198 C 0.81323 0.76019 0.58858 0.0
C1199 C 0.85363 0.79946 0.61429 0.0
C1200 C 0.8191 0.76364 0.63888 0.0
C1201 C 0.80401 0.76909 0.65492 0.0
C1202 C 0.79541 0.75593 0.67785 0.0
C1203 C 0.80238 0.73664 0.68453 0.0
C1204 C 0.81815 0.73106 0.66863 0.0
C1205 C 0.82673 0.74489 0.64561 0.0
H1206 H 0.03107 0.79219 0.58504 0.0
H1207 H 0.06504 0.8649 0.64159 0.0
H1208 H 0.02798 0.84264 0.668 0.0
H1209 H 0.96471 0.77533 0.58728 0.0
H1210 H 0.95211 0.73892 0.58508 0.0
H1211 H 0.98118 0.76066 0.57022 0.0
H1212 H 0.00545 0.74163 0.59771 0.0
H1213 H 0.97647 0.71988 0.61268 0.0
H1214 H 0.00562 0.74338 0.63356 0.0
H1215 H 0.98689 0.81305 0.68794 0.0
H1216 H 0.94492 0.77727 0.70066 0.0
H1217 H 0.93814 0.72301 0.63245 0.0
C1218 C 0.03063 0.80337 0.60297 0.0
C1219 C 0.05096 0.83023 0.61125 0.0
C1220 C 0.04978 0.84426 0.63485 0.0
C1221 C 0.02876 0.83181 0.65001 0.0
C1222 C 0.00909 0.80528 0.64139 0.0
C1223 C 0.00982 0.79115 0.61847 0.0
C1224 C 0.98623 0.76271 0.61387 0.0
C1225 C 0.97011 0.75921 0.58755 0.0
C1226 C 0.99391 0.7406 0.6145 0.0
C1227 C 0.97225 0.76306 0.63783 0.0
C1228 C 0.98568 0.78791 0.65333 0.0
C1229 C 0.97628 0.79344 0.67608 0.0
C1230 C 0.95247 0.77304 0.68315 0.0
C1231 C 0.93855 0.74739 0.66771 0.0
C1232 C 0.94863 0.74234 0.64483 0.0
H1233 H 0.1689 0.20038 0.62707 0.0
H1234 H 0.19239 0.22557 0.54897 0.0
H1235 H 0.23162 0.22285 0.55868 0.0
H1236 H 0.23328 0.23517 0.66336 0.0
H1237 H 0.22659 0.20765 0.68368 0.0
H1238 H 0.2009 0.21312 0.67156 0.0
H1239 H 0.17506 0.16305 0.64984 0.0
H1240 H 0.20067 0.15744 0.6619 0.0
H1241 H 0.18978 0.15085 0.62677 0.0
H1242 H 0.26798 0.21752 0.57609 0.0
H1243 H 0.29863 0.20696 0.59946 0.0
H1244 H 0.25138 0.18227 0.66562 0.0
C1245 C 0.1825 0.20558 0.61224 0.0
C1246 C 0.17782 0.21347 0.58734 0.0
C1247 C 0.19573 0.21959 0.56817 0.0
C1248 C 0.21808 0.21818 0.57351 0.0
C1249 C 0.22218 0.21023 0.59806 0.0
C1250 C 0.20488 0.20377 0.61708 0.0
C1251 C 0.21353 0.19437 0.64122 0.0
C1252 C 0.2189 0.21374 0.66645 0.0
C1253 C 0.19357 0.16466 0.64516 0.0
C1254 C 0.23829 0.1966 0.63269 0.0
C1255 C 0.24295 0.20609 0.60781 0.0
C1256 C 0.26458 0.21008 0.59558 0.0
C1257 C 0.2819 0.20407 0.60904 0.0
C1258 C 0.27736 0.19379 0.63429 0.0
C1259 C 0.25529 0.19008 0.6463 0.0
H1260 H 0.77847 0.96928 0.60547 0.0
H1261 H 0.84843 0.96785 0.62815 0.0
H1262 H 0.86814 0.01483 0.65055 0.0
H1263 H 0.80921 0.04064 0.59306 0.0
H1264 H 0.78473 0.0458 0.60661 0.0
H1265 H 0.77656 0.01248 0.59163 0.0
H1266 H 0.75837 0.99154 0.6353 0.0
H1267 H 0.76662 0.02485 0.6504 0.0
H1268 H 0.77869 0.00527 0.66645 0.0
H1269 H 0.88071 0.0627 0.66906 0.0
H1270 H 0.88419 0.10676 0.68473 0.0
H1271 H 0.805 0.07568 0.65275 0.0
C1272 C 0.79796 0.97894 0.61512 0.0
C1273 C 0.81195 0.96501 0.6151 0.0
C1274 C 0.83735 0.97814 0.62801 0.0
C1275 C 0.84872 0.00484 0.64073 0.0
C1276 C 0.83434 0.01798 0.64052 0.0
C1277 C 0.80946 0.00542 0.62818 0.0
C1278 C 0.79795 0.02377 0.63136 0.0
C1279 C 0.79176 0.0311 0.60404 0.0
C1280 C 0.77399 0.01056 0.6468 0.0
C1281 C 0.82016 0.04852 0.6476 0.0
C1282 C 0.84112 0.04496 0.65232 0.0
C1283 C 0.86432 0.06558 0.66576 0.0
C1284 C 0.86613 0.09049 0.67458 0.0
C1285 C 0.84471 0.09431 0.67038 0.0
C1286 C 0.82144 0.07299 0.65682 0.0
H1287 H 0.45715 0.37114 0.7274 0.0
H1288 H 0.52982 0.37545 0.71497 0.0
H1289 H 0.50631 0.32731 0.69549 0.0
H1290 H 0.42508 0.30343 0.74638 0.0
H1291 H 0.39412 0.29409 0.72953 0.0
H1292 H 0.41658 0.3293 0.74135 0.0
H1293 H 0.41421 0.34329 0.69367 0.0
H1294 H 0.39174 0.30808 0.6817 0.0
H1295 H 0.42107 0.32699 0.66613 0.0
H1296 H 0.47524 0.278 0.68025 0.0
H1297 H 0.43855 0.23105 0.66898 0.0
H1298 H 0.38568 0.25875 0.68959 0.0
C1299 C 0.46804 0.36196 0.72032 0.0
C1300 C 0.49527 0.37703 0.72263 0.0
C1301 C 0.50895 0.36437 0.71332 0.0
C1302 C 0.49576 0.33702 0.70221 0.0
C1303 C 0.46891 0.32266 0.70035 0.0
C1304 C 0.45516 0.3347 0.70899 0.0
C1305 C 0.4264 0.31448 0.70526 0.0
C1306 C 0.41488 0.31007 0.73223 0.0
C1307 C 0.41254 0.32377 0.68551 0.0
C1308 C 0.42616 0.2891 0.69355 0.0
C1309 C 0.45091 0.29429 0.69092 0.0
C1310 C 0.45576 0.27375 0.68191 0.0
C1311 C 0.4348 0.24714 0.67562 0.0
C1312 C 0.40925 0.24131 0.67816 0.0
C1313 C 0.40494 0.2627 0.68695 0.0
H1314 H 0.6402 0.12023 0.73477 0.0
H1315 H 0.65797 0.11988 0.81936 0.0
H1316 H 0.69952 0.12374 0.8105 0.0
H1317 H 0.6699 0.08196 0.71002 0.0
H1318 H 0.68257 0.10233 0.68263 0.0
H1319 H 0.65347 0.09802 0.69523 0.0
H1320 H 0.67395 0.15066 0.70308 0.0
H1321 H 0.70307 0.15513 0.69046 0.0
H1322 H 0.70442 0.17061 0.72322 0.0
H1323 H 0.73895 0.12803 0.79302 0.0
H1324 H 0.77554 0.13524 0.76807 0.0
H1325 H 0.73376 0.13495 0.69477 0.0
C1326 C 0.65277 0.12071 0.75132 0.0
C1327 C 0.64589 0.11953 0.77775 0.0
C1328 C 0.66296 0.12068 0.79898 0.0
C1329 C 0.68652 0.12279 0.79415 0.0
C1330 C 0.69285 0.12399 0.76795 0.0
C1331 C 0.67664 0.12321 0.74687 0.0
C1332 C 0.68885 0.12625 0.72084 0.0
C1333 C 0.67274 0.10061 0.70101 0.0
C1334 C 0.69281 0.15221 0.70869 0.0
C1335 C 0.7144 0.12889 0.73065 0.0
C1336 C 0.71612 0.12726 0.75788 0.0
C1337 C 0.73784 0.12928 0.77169 0.0
C1338 C 0.75849 0.13333 0.75734 0.0
C1339 C 0.75739 0.13557 0.72954 0.0
C1340 C 0.73502 0.1332 0.71601 0.0
H1341 H 0.92489 0.55602 0.73598 0.0
H1342 H 0.85639 0.47769 0.71028 0.0
H1343 H 0.83424 0.50151 0.69354 0.0
H1344 H 0.89256 0.59063 0.75835 0.0
H1345 H 0.91494 0.62285 0.74678 0.0
H1346 H 0.92562 0.59963 0.75605 0.0
H1347 H 0.94175 0.60002 0.7094 0.0
H1348 H 0.93108 0.62323 0.69999 0.0
H1349 H 0.91972 0.59128 0.67985 0.0
H1350 H 0.8187 0.53384 0.68214 0.0
H1351 H 0.81153 0.57239 0.67494 0.0
H1352 H 0.89074 0.6298 0.70619 0.0
C1353 C 0.90529 0.54393 0.72662 0.0
C1354 C 0.89237 0.51506 0.72436 0.0
C1355 C 0.86671 0.49985 0.71212 0.0
C1356 C 0.85396 0.51319 0.70258 0.0
C1357 C 0.8672 0.54172 0.70524 0.0
C1358 C 0.89236 0.55693 0.71678 0.0
C1359 C 0.90213 0.58735 0.71746 0.0
C1360 C 0.90922 0.6009 0.74638 0.0
C1361 C 0.92503 0.60129 0.70067 0.0
C1362 C 0.87847 0.58688 0.70468 0.0
C1363 C 0.85849 0.56036 0.69791 0.0
C1364 C 0.8343 0.5547 0.68706 0.0
C1365 C 0.8304 0.57672 0.68311 0.0
C1366 C 0.85066 0.60408 0.68971 0.0
C1367 C 0.87504 0.60913 0.70045 0.0
H1368 H 0.48688 0.96062 0.2061 0.0
H1369 H 0.40658 0.90123 0.18118 0.0
H1370 H 0.41163 0.91769 0.13638 0.0
H1371 H 0.48912 0.01544 0.16849 0.0
H1372 H 0.52157 0.02716 0.16039 0.0
H1373 H 0.51133 0.01159 0.1909 0.0
H1374 H 0.5249 0.97616 0.1772 0.0
H1375 H 0.53497 0.99146 0.14657 0.0
H1376 H 0.51167 0.95551 0.14558 0.0
H1377 H 0.42666 0.93622 0.09333 0.0
H1378 H 0.44943 0.96025 0.05586 0.0
H1379 H 0.51863 0.01127 0.10881 0.0
C1380 C 0.47033 0.95138 0.19125 0.0
C1381 C 0.44631 0.92973 0.19698 0.0
C1382 C 0.42503 0.91805 0.17719 0.0
C1383 C 0.42776 0.92715 0.1517 0.0
C1384 C 0.4518 0.94818 0.14652 0.0
C1385 C 0.47262 0.96052 0.1658 0.0
C1386 C 0.49636 0.98265 0.15484 0.0
C1387 C 0.5051 0.01089 0.16953 0.0
C1388 C 0.51827 0.97603 0.15613 0.0
C1389 C 0.4857 0.98047 0.12624 0.0
C1390 C 0.46001 0.96029 0.12193 0.0
C1391 C 0.44641 0.95293 0.09675 0.0
C1392 C 0.4592 0.96714 0.07561 0.0
C1393 C 0.48492 0.98894 0.07973 0.0
C1394 C 0.49859 0.99526 0.10529 0.0
H1395 H 0.10683 0.54128 0.18752 0.0
H1396 H 0.04718 0.4877 0.235 0.0
H1397 H 0.01568 0.46911 0.19487 0.0
H1398 H 0.06849 0.55744 0.14505 0.0
H1399 H 0.08323 0.55653 0.11517 0.0
H1400 H 0.10142 0.56484 0.14734 0.0
H1401 H 0.1108 0.52545 0.13688 0.0
H1402 H 0.09249 0.51696 0.10469 0.0
H1403 H 0.08431 0.4912 0.12756 0.0
H1404 H 0.99003 0.45926 0.15105 0.0
H1405 H 0.97187 0.45734 0.10517 0.0
H1406 H 0.04835 0.51475 0.08477 0.0
C1407 C 0.08714 0.52554 0.18927 0.0
C1408 C 0.07924 0.51586 0.21419 0.0
C1409 C 0.05346 0.49521 0.21596 0.0
C1410 C 0.0355 0.48454 0.19333 0.0
C1411 C 0.04379 0.49442 0.169 0.0
C1412 C 0.06903 0.51422 0.16667 0.0
C1413 C 0.07267 0.52133 0.13808 0.0
C1414 C 0.082 0.55184 0.13632 0.0
C1415 C 0.09116 0.51325 0.1261 0.0
C1416 C 0.04533 0.50326 0.12504 0.0
C1417 C 0.02905 0.48781 0.14325 0.0
C1418 C 1.00262 0.47089 0.13647 0.0
C1419 C 0.99248 0.46996 0.11045 0.0
C1420 C 0.00876 0.48565 0.09154 0.0
C1421 C 0.03557 0.50215 0.09879 0.0
H1422 H 0.49556 0.59635 0.17657 0.0
H1423 H 0.44317 0.51489 0.19824 0.0
H1424 H 0.44865 0.49475 0.15642 0.0
H1425 H 0.47791 0.58166 0.1042 0.0
H1426 H 0.51063 0.60251 0.09643 0.0
H1427 H 0.50047 0.61116 0.1266 0.0
H1428 H 0.53728 0.60997 0.15475 0.0
H1429 H 0.54767 0.60161 0.12468 0.0
H1430 H 0.54009 0.57974 0.15136 0.0
H1431 H 0.46105 0.48299 0.1131 0.0
H1432 H 0.48191 0.48092 0.07272 0.0
H1433 H 0.52848 0.56947 0.08108 0.0
C1434 C 0.48515 0.57428 0.17257 0.0
C1435 C 0.4686 0.55733 0.19073 0.0
C1436 C 0.45537 0.5285 0.18446 0.0
C1437 C 0.45846 0.51677 0.16077 0.0
C1438 C 0.47504 0.53404 0.14351 0.0
C1439 C 0.48827 0.56218 0.14913 0.0
C1440 C 0.50631 0.57604 0.12811 0.0
C1441 C 0.49835 0.59389 0.11294 0.0
C1442 C 0.5345 0.59281 0.14047 0.0
C1443 C 0.5016 0.55123 0.11027 0.0
C1444 C 0.48311 0.52722 0.11917 0.0
C1445 C 0.47553 0.50165 0.1059 0.0
C1446 C 0.48738 0.50064 0.08303 0.0
C1447 C 0.50673 0.52498 0.07405 0.0
C1448 C 0.51384 0.55053 0.08778 0.0
H1449 H 0.967 0.45892 0.81145 0.0
H1450 H 0.89597 0.45752 0.82555 0.0
H1451 H 0.90986 0.46845 0.87397 0.0
H1452 H 0.97265 0.42895 0.86931 0.0
H1453 H 0.00713 0.45039 0.87606 0.0
H1454 H 0.99216 0.44344 0.84236 0.0
H1455 H 0.0132 0.49548 0.83836 0.0
H1456 H 0.02829 0.5026 0.87207 0.0
H1457 H 0.00818 0.51658 0.86261 0.0
H1458 H 0.92849 0.47338 0.92038 0.0
H1459 H 0.95317 0.47756 0.96266 0.0
H1460 H 0.01531 0.48219 0.91955 0.0
C1461 C 0.95463 0.46125 0.82483 0.0
C1462 C 0.93047 0.45747 0.81503 0.0
C1463 C 0.9146 0.46056 0.83287 0.0
C1464 C 0.92231 0.46669 0.8603 0.0
C1465 C 0.94615 0.47015 0.86946 0.0
C1466 C 0.96232 0.46803 0.85233 0.0
C1467 C 0.98694 0.47276 0.86764 0.0
C1468 C 0.98988 0.44737 0.8636 0.0
C1469 C 0.01055 0.49839 0.85969 0.0
C1470 C 0.98172 0.47718 0.89607 0.0
C1471 C 0.95794 0.47532 0.89653 0.0
C1472 C 0.94755 0.4759 0.92031 0.0
C1473 C 0.96188 0.47863 0.9443 0.0
C1474 C 0.98672 0.48168 0.94451 0.0
C1475 C 0.99678 0.48095 0.92001 0.0
H1476 H 0.52645 0.4474 0.82615 0.0
H1477 H 0.57645 0.53173 0.81033 0.0
H1478 H 0.56556 0.5477 0.85127 0.0
H1479 H 0.47619 0.45857 0.8503 0.0
H1480 H 0.46873 0.43471 0.87512 0.0
H1481 H 0.48092 0.42973 0.84478 0.0
H1482 H 0.51805 0.42887 0.8727 0.0
H1483 H 0.50606 0.43408 0.9031 0.0
H1484 H 0.53889 0.4573 0.89705 0.0
H1485 H 0.55162 0.55482 0.89534 0.0
H1486 H 0.53109 0.55232 0.93708 0.0
H1487 H 0.4868 0.46386 0.92202 0.0
C1488 C 0.53483 0.46922 0.83099 0.0
C1489 C 0.55272 0.48824 0.81509 0.0
C1490 C 0.5633 0.51665 0.82246 0.0
C1491 C 0.55711 0.526 0.84563 0.0
C1492 C 0.53987 0.50674 0.86105 0.0
C1493 C 0.5285 0.47895 0.85385 0.0
C1494 C 0.51004 0.46263 0.87369 0.0
C1495 C 0.48233 0.4454 0.86016 0.0
C1496 C 0.51879 0.44467 0.88744 0.0
C1497 C 0.5129 0.48563 0.89311 0.0
C1498 C 0.53053 0.5109 0.88566 0.0
C1499 C 0.53747 0.53518 0.90118 0.0
C1500 C 0.52582 0.5336 0.92481 0.0
C1501 C 0.50718 0.50798 0.93233 0.0
C1502 C 0.50065 0.48373 0.91631 0.0
H1503 H 0.54706 0.05086 0.83306 0.0
H1504 H 0.52108 0.10992 0.83409 0.0
H1505 H 0.505 0.09706 0.8778 0.0
H1506 H 0.49427 0.99966 0.86063 0.0
H1507 H 0.51224 0.9883 0.88072 0.0
H1508 H 0.52427 0.00389 0.8507 0.0
H1509 H 0.56724 0.04005 0.87774 0.0
H1510 H 0.55532 0.02445 0.90789 0.0
H1511 H 0.56642 0.06023 0.9062 0.0
H1512 H 0.48629 0.0739 0.91699 0.0
H1513 H 0.46817 0.04322 0.95211 0.0
H1514 H 0.5091 1.00144 0.92968 0.0
C1515 C 0.5385 0.06146 0.84282 0.0
C1516 C 0.5351 0.08122 0.83011 0.0
C1517 C 0.52348 0.0944 0.84328 0.0
C1518 C 0.5145 0.08743 0.8682 0.0
C1519 C 0.51757 0.06748 0.87991 0.0
C1520 C 0.52948 0.0548 0.86791 0.0
C1521 C 0.52874 0.03278 0.88429 0.0
C1522 C 0.514 0.00449 0.86812 0.0
C1523 C 0.55607 0.03978 0.89463 0.0
C1524 C 0.514 0.0347 0.90696 0.0
C1525 C 0.50779 0.0549 0.90387 0.0
C1526 C 0.49173 0.05865 0.9202 0.0
C1527 C 0.48157 0.04118 0.94014 0.0
C1528 C 0.48802 0.02074 0.94409 0.0
C1529 C 0.50472 0.01765 0.92757 0.0
H1530 H 0.14749 0.26249 0.52106 0.0
H1531 H 0.1096 0.30441 0.5534 0.0
H1532 H 0.12101 0.33278 0.51562 0.0
H1533 H 0.20127 0.32182 0.49944 0.0
H1534 H 0.20257 0.30389 0.46944 0.0
H1535 H 0.19098 0.28593 0.49848 0.0
H1536 H 0.14929 0.25054 0.47092 0.0
H1537 H 0.15807 0.26779 0.44112 0.0
H1538 H 0.12865 0.26094 0.4544 0.0
H1539 H 0.1342 0.35446 0.47241 0.0
H1540 H 0.15221 0.37105 0.42981 0.0
H1541 H 0.18536 0.31852 0.4289 0.0
C1542 C 0.14207 0.27805 0.52073 0.0
C1543 C 0.12753 0.28103 0.54035 0.0
C1544 C 0.12032 0.30126 0.53845 0.0
C1545 C 0.12685 0.31764 0.51713 0.0
C1546 C 0.14095 0.31388 0.49807 0.0
C1547 C 0.14882 0.29489 0.49995 0.0
C1548 C 0.16366 0.29467 0.47682 0.0
C1549 C 0.19125 0.302 0.48664 0.0
C1550 C 0.14907 0.26683 0.45985 0.0
C1551 C 0.16352 0.31701 0.46191 0.0
C1552 C 0.14978 0.3274 0.47413 0.0
C1553 C 0.14544 0.34688 0.46298 0.0
C1554 C 0.1557 0.35618 0.43889 0.0
C1555 C 0.17064 0.34653 0.42674 0.0
C1556 C 0.17462 0.32675 0.43837 0.0
H1557 H 0.74886 0.87905 0.53184 0.0
H1558 H 0.77031 0.81669 0.51904 0.0
H1559 H 0.74474 0.80157 0.47529 0.0
H1560 H 0.68566 0.84301 0.49848 0.0
H1561 H 0.68821 0.87219 0.48329 0.0
H1562 H 0.7067 0.87707 0.51462 0.0
H1563 H 0.74888 0.90939 0.49435 0.0
H1564 H 0.73051 0.90486 0.46306 0.0
H1565 H 0.75647 0.89757 0.4641 0.0
H1566 H 0.71524 0.79199 0.43318 0.0
H1567 H 0.68911 0.79288 0.39389 0.0
H1568 H 0.69289 0.86578 0.43135 0.0
C1569 C 0.74875 0.8625 0.5199 0.0
C1570 C 0.76159 0.84896 0.52958 0.0
C1571 C 0.76015 0.82704 0.5129 0.0
C1572 C 0.74581 0.81838 0.48774 0.0
C1573 C 0.73344 0.83218 0.47906 0.0
C1574 C 0.73523 0.85413 0.49442 0.0
C1575 C 0.72144 0.86658 0.47983 0.0
C1576 C 0.69918 0.86458 0.49496 0.0
C1577 C 0.74046 0.89636 0.47505 0.0
C1578 C 0.71144 0.84804 0.4539 0.0
C1579 C 0.7182 0.82803 0.45403 0.0
C1580 C 0.71029 0.8079 0.43268 0.0
C1581 C 0.69563 0.80867 0.41039 0.0
C1582 C 0.6898 0.82993 0.40924 0.0
C1583 C 0.69743 0.84953 0.43152 0.0
H1584 H 0.12997 0.85475 0.52103 0.0
H1585 H 0.15642 0.94127 0.52 0.0
H1586 H 0.16977 0.94014 0.47499 0.0
H1587 H 0.17815 0.85325 0.49206 0.0
H1588 H 0.1596 0.8215 0.47097 0.0
H1589 H 0.14736 0.82718 0.50089 0.0
H1590 H 0.1056 0.81782 0.47345 0.0
H1591 H 0.11749 0.812 0.44317 0.0
H1592 H 0.10763 0.83722 0.44568 0.0
H1593 H 0.18921 0.93275 0.43615 0.0
H1594 H 0.20765 0.91745 0.40136 0.0
H1595 H 0.16527 0.83454 0.42341 0.0
C1596 C 0.13758 0.87313 0.51083 0.0
C1597 C 0.1425 0.89819 0.52418 0.0
C1598 C 0.15289 0.92196 0.51036 0.0
C1599 C 0.16038 0.9215 0.48469 0.0
C1600 C 0.1567 0.89692 0.47268 0.0
C1601 C 0.14481 0.87291 0.48483 0.0
C1602 C 0.14486 0.84978 0.46802 0.0
C1603 C 0.1583 0.83721 0.48394 0.0
C1604 C 0.11726 0.82791 0.45692 0.0
C1605 C 0.1604 0.86512 0.44582 0.0
C1606 C 0.16676 0.89224 0.44884 0.0
C1607 C 0.18362 0.91137 0.43297 0.0
C1608 C 0.19418 0.90256 0.41341 0.0
C1609 C 0.18752 0.87481 0.40955 0.0
C1610 C 0.17015 0.85576 0.42569 0.0
H1611 H 0.61081 0.77178 0.14188 0.0
H1612 H 0.58621 0.83183 0.15266 0.0
H1613 H 0.6132 0.84995 0.19536 0.0
H1614 H 0.6034 0.75592 0.20808 0.0
H1615 H 0.6299 0.74956 0.21222 0.0
H1616 H 0.61299 0.74373 0.17967 0.0
H1617 H 0.65482 0.77656 0.15988 0.0
H1618 H 0.67274 0.78213 0.19178 0.0
H1619 H 0.67515 0.81086 0.17579 0.0
H1620 H 0.64436 0.86268 0.23694 0.0
H1621 H 0.67059 0.86337 0.27693 0.0
H1622 H 0.66618 0.7889 0.24364 0.0
C1623 C 0.61075 0.78863 0.153 0.0
C1624 C 0.59643 0.80049 0.14298 0.0
C1625 C 0.59758 0.82279 0.15878 0.0
C1626 C 0.61277 0.83321 0.1834 0.0
C1627 C 0.62634 0.82083 0.19254 0.0
C1628 C 0.62503 0.79867 0.17806 0.0
C1629 C 0.63898 0.78702 0.19369 0.0
C1630 C 0.62022 0.75727 0.19873 0.0
C1631 C 0.66178 0.78929 0.17943 0.0
C1632 C 0.64823 0.80603 0.2193 0.0
C1633 C 0.64138 0.82588 0.21793 0.0
C1634 C 0.64906 0.84667 0.23857 0.0
C1635 C 0.66347 0.84664 0.2615 0.0
C1636 C 0.66892 0.82531 0.26417 0.0
C1637 C 0.66168 0.80511 0.24248 0.0
H1638 H 0.24061 0.83082 0.17533 0.0
H1639 H 0.17444 0.81638 0.12287 0.0
H1640 H 0.15583 0.82672 0.16117 0.0
H1641 H 0.20742 0.79905 0.22874 0.0
H1642 H 0.23102 0.8232 0.25481 0.0
H1643 H 0.24091 0.81855 0.22288 0.0
H1644 H 0.26192 0.8703 0.21976 0.0
H1645 H 0.25068 0.87579 0.25066 0.0
H1646 H 0.24253 0.88638 0.22047 0.0
H1647 H 0.14189 0.83283 0.20492 0.0
H1648 H 0.13364 0.83548 0.25202 0.0
H1649 H 0.20821 0.84545 0.27732 0.0
C1650 C 0.22261 0.83072 0.17196 0.0
C1651 C 0.20902 0.82324 0.14622 0.0
C1652 C 0.18517 0.82243 0.14245 0.0
C1653 C 0.17449 0.82825 0.16405 0.0
C1654 C 0.18793 0.83485 0.18933 0.0
C1655 C 0.21155 0.83632 0.19346 0.0
C1656 C 0.22096 0.84207 0.22303 0.0
C1657 C 0.22532 0.81935 0.23293 0.0
C1658 C 0.2455 0.8703 0.22881 0.0
C1659 C 0.1983 0.84204 0.23485 0.0
C1660 C 0.17974 0.83838 0.21494 0.0
C1661 C 0.15645 0.83616 0.22069 0.0
C1662 C 0.15189 0.83757 0.2475 0.0
C1663 C 0.17045 0.84105 0.26826 0.0
C1664 C 0.19403 0.84353 0.26184 0.0
H1665 H 0.15133 0.37208 0.16082 0.0
H1666 H 0.23444 0.40596 0.17197 0.0
H1667 H 0.23038 0.38775 0.21529 0.0
H1668 H 0.149 0.39264 0.22937 0.0
H1669 H 0.11768 0.36352 0.23259 0.0
H1670 H 0.12571 0.37631 0.20053 0.0
H1671 H 0.11545 0.32882 0.17987 0.0
H1672 H 0.10695 0.31535 0.21158 0.0
H1673 H 0.13115 0.31213 0.1949 0.0
H1674 H 0.21721 0.36173 0.25491 0.0
H1675 H 0.19732 0.34 0.29471 0.0
H1676 H 0.12495 0.33236 0.26409 0.0
C1677 C 0.16879 0.37598 0.17231 0.0
C1678 C 0.19309 0.38951 0.16195 0.0
C1679 C 0.21532 0.39434 0.17831 0.0
C1680 C 0.21332 0.38427 0.20325 0.0
C1681 C 0.1891 0.37024 0.21227 0.0
C1682 C 0.16733 0.36691 0.19785 0.0
C1683 C 0.14409 0.35338 0.21367 0.0
C1684 C 0.13347 0.3726 0.21939 0.0
C1685 C 0.12317 0.32578 0.19913 0.0
C1686 C 0.15628 0.34944 0.23903 0.0
C1687 C 0.18213 0.35867 0.23729 0.0
C1688 C 0.19725 0.35544 0.25704 0.0
C1689 C 0.18593 0.34346 0.27973 0.0
C1690 C 0.16021 0.33617 0.2832 0.0
C1691 C 0.14492 0.33849 0.26225 0.0
H1692 H 0.80295 0.58571 0.85149 0.0
H1693 H 0.76364 0.62914 0.87576 0.0
H1694 H 0.7757 0.65414 0.83602 0.0
H1695 H 0.85732 0.64448 0.83201 0.0
H1696 H 0.86193 0.62615 0.80446 0.0
H1697 H 0.84747 0.60885 0.83297 0.0
H1698 H 0.8077 0.57214 0.80198 0.0
H1699 H 0.82201 0.58936 0.77334 0.0
H1700 H 0.79032 0.58263 0.77986 0.0
H1701 H 0.79197 0.67468 0.79354 0.0
H1702 H 0.81489 0.69227 0.75359 0.0
H1703 H 0.8488 0.64078 0.76071 0.0
C1704 C 0.79691 0.60054 0.84874 0.0
C1705 C 0.78191 0.60493 0.86696 0.0
C1706 C 0.77434 0.62446 0.86195 0.0
C1707 C 0.78131 0.63907 0.83946 0.0
C1708 C 0.79633 0.63443 0.82228 0.0
C1709 C 0.80431 0.61589 0.82681 0.0
C1710 C 0.82192 0.61622 0.80632 0.0
C1711 C 0.84875 0.62442 0.81975 0.0
C1712 C 0.80975 0.58844 0.78937 0.0
C1713 C 0.82295 0.63821 0.78988 0.0
C1714 C 0.80752 0.64796 0.79905 0.0
C1715 C 0.80437 0.66748 0.78639 0.0
C1716 C 0.81746 0.67738 0.76384 0.0
C1717 C 0.83394 0.66828 0.7547 0.0
C1718 C 0.83678 0.64852 0.76788 0.0
H1719 H 0.37933 0.18616 0.87473 0.0
H1720 H 0.4482 0.18343 0.85925 0.0
H1721 H 0.43565 0.17737 0.81066 0.0
H1722 H 0.33726 0.13382 0.81962 0.0
H1723 H 0.31922 0.15065 0.8123 0.0
H1724 H 0.33321 0.15394 0.84588 0.0
H1725 H 0.35718 0.20672 0.84642 0.0
H1726 H 0.34349 0.20361 0.81277 0.0
H1727 H 0.37798 0.22275 0.82077 0.0
H1728 H 0.41893 0.17813 0.76454 0.0
H1729 H 0.39521 0.17759 0.72295 0.0
H1730 H 0.33381 0.17314 0.76681 0.0
C1731 C 0.39148 0.18386 0.86101 0.0
C1732 C 0.41468 0.18515 0.87056 0.0
C1733 C 0.43025 0.18219 0.85222 0.0
C1734 C 0.42336 0.17893 0.82465 0.0
C1735 C 0.4006 0.17819 0.81582 0.0
C1736 C 0.38456 0.17994 0.83338 0.0
C1737 C 0.36103 0.17819 0.81844 0.0
C1738 C 0.33621 0.15262 0.82442 0.0
C1739 C 0.35987 0.20438 0.825 0.0
C1740 C 0.36664 0.17575 0.78976 0.0
C1741 C 0.38975 0.17613 0.78886 0.0
C1742 C 0.40024 0.17648 0.76493 0.0
C1743 C 0.38635 0.17551 0.74124 0.0
C1744 C 0.36184 0.17312 0.74135 0.0
C1745 C 0.35213 0.17395 0.76605 0.0
H1746 H 0.83574 0.24619 0.85979 0.0
H1747 H 0.78978 0.16345 0.88181 0.0
H1748 H 0.80046 0.14564 0.84182 0.0
H1749 H 0.82099 0.22925 0.78756 0.0
H1750 H 0.85317 0.25379 0.78068 0.0
H1751 H 0.84023 0.25996 0.80992 0.0
H1752 H 0.87944 0.2653 0.83964 0.0
H1753 H 0.89234 0.25896 0.81048 0.0
H1754 H 0.88682 0.23811 0.83778 0.0
H1755 H 0.81729 0.13669 0.80036 0.0
H1756 H 0.8387 0.13747 0.75965 0.0
H1757 H 0.87562 0.22593 0.76581 0.0
C1758 C 0.82789 0.22431 0.85627 0.0
C1759 C 0.81172 0.20627 0.87404 0.0
C1760 C 0.80172 0.17774 0.86836 0.0
C1761 C 0.80786 0.16739 0.84575 0.0
C1762 C 0.82415 0.18578 0.82899 0.0
C1763 C 0.83398 0.21363 0.83388 0.0
C1764 C 0.8517 0.22901 0.81308 0.0
C1765 C 0.84087 0.24387 0.79685 0.0
C1766 C 0.8792 0.24902 0.82603 0.0
C1767 C 0.85063 0.20547 0.79606 0.0
C1768 C 0.83442 0.18068 0.80545 0.0
C1769 C 0.83004 0.15597 0.79285 0.0
C1770 C 0.84228 0.15659 0.76984 0.0
C1771 C 0.85881 0.18172 0.75986 0.0
C1772 C 0.86327 0.20647 0.7733 0.0
H1773 H 0.24797 0.11652 0.49719 0.0
H1774 H 0.31094 0.1469 0.44723 0.0
H1775 H 0.34238 0.16454 0.48753 0.0
H1776 H 0.28013 0.17286 0.55125 0.0
H1777 H 0.26656 0.15059 0.57715 0.0
H1778 H 0.24914 0.14205 0.54448 0.0
H1779 H 0.24662 0.09484 0.54149 0.0
H1780 H 0.26397 0.10366 0.57418 0.0
H1781 H 0.27594 0.09358 0.54633 0.0
H1782 H 0.36666 0.17697 0.53254 0.0
H1783 H 0.38263 0.1811 0.57977 0.0
H1784 H 0.30411 0.14265 0.60125 0.0
C1785 C 0.26841 0.12699 0.49494 0.0
C1786 C 0.2773 0.13045 0.46936 0.0
C1787 C 0.30402 0.14412 0.46682 0.0
C1788 C 0.32191 0.1543 0.48953 0.0
C1789 C 0.31267 0.15067 0.51457 0.0
C1790 C 0.28657 0.13727 0.51748 0.0
C1791 C 0.28187 0.13508 0.54673 0.0
C1792 C 0.26865 0.15111 0.5554 0.0
C1793 C 0.26618 0.10499 0.55249 0.0
C1794 C 0.30937 0.14865 0.55969 0.0
C1795 C 0.3268 0.15784 0.54075 0.0
C1796 C 0.35325 0.17005 0.5476 0.0
C1797 C 0.36213 0.17232 0.57445 0.0
C1798 C 0.34462 0.16228 0.59407 0.0
C1799 C 0.31794 0.15081 0.58666 0.0
H1800 H 0.87002 0.10804 0.51239 0.0
H1801 H 0.91187 0.19232 0.4934 0.0
H1802 H 0.89917 0.20693 0.53392 0.0
H1803 H 0.81605 0.11147 0.53747 0.0
H1804 H 0.81258 0.08962 0.56345 0.0
H1805 H 0.82499 0.08561 0.53289 0.0
H1806 H 0.86579 0.09183 0.56016 0.0
H1807 H 0.85344 0.09594 0.59071 0.0
H1808 H 0.88479 0.12203 0.58323 0.0
H1809 H 0.88419 0.21297 0.57748 0.0
H1810 H 0.86519 0.20945 0.62034 0.0
H1811 H 0.83031 0.12119 0.60966 0.0
C1812 C 0.8762 0.12951 0.51651 0.0
C1813 C 0.89219 0.14905 0.49976 0.0
C1814 C 0.90009 0.17701 0.50615 0.0
C1815 C 0.89284 0.18552 0.52905 0.0
C1816 C 0.87739 0.16581 0.54525 0.0
C1817 C 0.86892 0.13836 0.53921 0.0
C1818 C 0.85243 0.12143 0.5601 0.0
C1819 C 0.82487 0.10082 0.54773 0.0
C1820 C 0.86487 0.10697 0.57439 0.0
C1821 C 0.85296 0.14372 0.57872 0.0
C1822 C 0.86771 0.16919 0.56989 0.0
C1823 C 0.87229 0.19312 0.58442 0.0
C1824 C 0.86148 0.19096 0.60866 0.0
C1825 C 0.8461 0.16508 0.61786 0.0
C1826 C 0.8416 0.14116 0.60264 0.0
H1827 H 0.82707 0.70081 0.48598 0.0
H1828 H 0.90664 0.76387 0.50975 0.0
H1829 H 0.90246 0.74969 0.55526 0.0
H1830 H 0.80259 0.70845 0.54858 0.0
H1831 H 0.78003 0.67238 0.54829 0.0
H1832 H 0.78887 0.68736 0.51727 0.0
H1833 H 0.80299 0.65258 0.50304 0.0
H1834 H 0.79422 0.6374 0.53395 0.0
H1835 H 0.82641 0.64984 0.52462 0.0
H1836 H 0.89054 0.72868 0.59737 0.0
H1837 H 0.87065 0.70259 0.63478 0.0
H1838 H 0.79862 0.65325 0.58551 0.0
C1839 C 0.84351 0.71182 0.50084 0.0
C1840 C 0.8673 0.73325 0.49417 0.0
C1841 C 0.88841 0.74701 0.51418 0.0
C1842 C 0.88618 0.73926 0.54015 0.0
C1843 C 0.86263 0.7179 0.54593 0.0
C1844 C 0.84158 0.70446 0.52703 0.0
C1845 C 0.81856 0.68205 0.53875 0.0
C1846 C 0.79619 0.68792 0.53819 0.0
C1847 C 0.81005 0.6538 0.52422 0.0
C1848 C 0.83016 0.68486 0.56709 0.0
C1849 C 0.85561 0.70569 0.57062 0.0
C1850 C 0.87068 0.71217 0.59477 0.0
C1851 C 0.85945 0.6969 0.61589 0.0
C1852 C 0.83359 0.67543 0.61301 0.0
C1853 C 0.8186 0.66947 0.58826 0.0
loop_
_geom_bond_atom_site_label_1
_geom_bond_atom_site_label_2
_geom_bond_distance
_geom_bond_site_symmetry_2
_ccdc_geom_bond_type
H0 C5 0.930 . S
H1 C8 0.930 . S
H2 C10 0.930 . S
H3 C4 1.016 . S
C4 H3 1.016 . S
C4 N11 1.286 . S
C5 H0 0.930 . S
C5 C6 1.397 . S
C5 C7 1.361 . S
C6 C5 1.397 . S
C6 C10 1.390 . S
C7 C5 1.361 . S
C7 C8 1.393 . S
C7 N11 1.413 . S
C8 H1 0.930 . S
C8 C7 1.393 . S
C8 C9 1.399 . S
C9 C8 1.399 . S
C9 C10 1.381 . S
C10 H2 0.930 . S
C10 C6 1.390 . S
C10 C9 1.381 . S
N11 C4 1.286 . S
N11 C7 1.413 . S
H12 C17 0.930 . S
H13 C20 0.930 . S
H14 C22 0.930 . S
H15 C16 1.016 . S
C16 H15 1.016 . S
C16 N23 1.286 . S
C17 H12 0.930 . S
C17 C18 1.397 . S
C17 C19 1.361 . S
C18 C17 1.397 . S
C18 C22 1.390 . S
C19 C17 1.361 . S
C19 C20 1.393 . S
C19 N23 1.413 . S
C20 H13 0.930 . S
C20 C19 1.393 . S
C20 C21 1.399 . S
C21 C20 1.399 . S
C21 C22 1.381 . S
C22 H14 0.930 . S
C22 C18 1.390 . S
C22 C21 1.381 . S
N23 C16 1.286 . S
N23 C19 1.413 . S
H24 C29 0.930 . S
H25 C32 0.930 . S
H26 C34 0.930 . S
H27 C28 1.016 . S
C28 H27 1.016 . S
C28 N35 1.286 . S
C29 H24 0.930 . S
C29 C30 1.397 . S
C29 C31 1.361 . S
C30 C29 1.397 . S
C30 C34 1.390 . S
C31 C29 1.361 . S
C31 C32 1.393 . S
C31 N35 1.413 . S
C32 H25 0.930 . S
C32 C31 1.393 . S
C32 C33 1.399 . S
C33 C32 1.399 . S
C33 C34 1.381 . S
C34 H26 0.930 . S
C34 C30 1.390 . S
C34 C33 1.381 . S
N35 C28 1.286 . S
N35 C31 1.413 . S
H36 C41 0.930 . S
H37 C44 0.930 . S
H38 C46 0.930 . S
H39 C40 1.016 . S
C40 H39 1.016 . S
C40 N47 1.286 . S
C41 H36 0.930 . S
C41 C42 1.397 . S
C41 C43 1.361 . S
C42 C41 1.397 . S
C42 C46 1.390 . S
C43 C41 1.361 . S
C43 C44 1.393 . S
C43 N47 1.413 . S
C44 H37 0.930 . S
C44 C43 1.393 . S
C44 C45 1.399 . S
C45 C44 1.399 . S
C45 C46 1.381 . S
C46 H38 0.930 . S
C46 C42 1.390 . S
C46 C45 1.381 . S
N47 C40 1.286 . S
N47 C43 1.413 . S
H48 C53 0.930 . S
H49 C56 0.930 . S
H50 C58 0.930 . S
H51 C52 1.016 . S
C52 H51 1.016 . S
C52 N59 1.286 . S
C53 H48 0.930 . S
C53 C54 1.397 . S
C53 C55 1.361 . S
C54 C53 1.397 . S
C54 C58 1.390 . S
C55 C53 1.361 . S
C55 C56 1.393 . S
C55 N59 1.413 . S
C56 H49 0.930 . S
C56 C55 1.393 . S
C56 C57 1.399 . S
C57 C56 1.399 . S
C57 C58 1.381 . S
C58 H50 0.930 . S
C58 C54 1.390 . S
C58 C57 1.381 . S
N59 C52 1.286 . S
N59 C55 1.413 . S
H60 C65 0.930 . S
H61 C68 0.930 . S
H62 C70 0.930 . S
H63 C64 1.016 . S
C64 H63 1.016 . S
C64 N71 1.286 . S
C65 H60 0.930 . S
C65 C66 1.397 . S
C65 C67 1.361 . S
C66 C65 1.397 . S
C66 C70 1.390 . S
C67 C65 1.361 . S
C67 C68 1.393 . S
C67 N71 1.413 . S
C68 H61 0.930 . S
C68 C67 1.393 . S
C68 C69 1.399 . S
C69 C68 1.399 . S
C69 C70 1.381 . S
C70 H62 0.930 . S
C70 C66 1.390 . S
C70 C69 1.381 . S
N71 C64 1.286 . S
N71 C67 1.413 . S
H72 C77 0.930 . S
H73 C80 0.930 . S
H74 C82 0.930 . S
H75 C76 1.016 . S
C76 H75 1.016 . S
C76 N83 1.286 . S
C77 H72 0.930 . S
C77 C78 1.397 . S
C77 C79 1.361 . S
C78 C77 1.397 . S
C78 C82 1.390 . S
C79 C77 1.361 . S
C79 C80 1.393 . S
C79 N83 1.413 . S
C80 H73 0.930 . S
C80 C79 1.393 . S
C80 C81 1.399 . S
C81 C80 1.399 . S
C81 C82 1.381 . S
C82 H74 0.930 . S
C82 C78 1.390 . S
C82 C81 1.381 . S
N83 C76 1.286 . S
N83 C79 1.413 . S
H84 C89 0.930 . S
H85 C92 0.930 . S
H86 C94 0.930 . S
H87 C88 1.016 . S
C88 H87 1.016 . S
C88 N95 1.286 . S
C89 H84 0.930 . S
C89 C90 1.397 . S
C89 C91 1.361 . S
C90 C89 1.397 . S
C90 C94 1.390 . S
C91 C89 1.361 . S
C91 C92 1.393 . S
C91 N95 1.413 . S
C92 H85 0.930 . S
C92 C91 1.393 . S
C92 C93 1.399 . S
C93 C92 1.399 . S
C93 C94 1.381 . S
C94 H86 0.930 . S
C94 C90 1.390 . S
C94 C93 1.381 . S
N95 C88 1.286 . S
N95 C91 1.413 . S
H96 C101 0.930 . S
H97 C104 0.930 . S
H98 C106 0.930 . S
H99 C100 1.016 . S
C100 H99 1.016 . S
C100 N107 1.286 . S
C101 H96 0.930 . S
C101 C102 1.397 . S
C101 C103 1.361 . S
C102 C101 1.397 . S
C102 C106 1.390 . S
C103 C101 1.361 . S
C103 C104 1.393 . S
C103 N107 1.413 . S
C104 H97 0.930 . S
C104 C103 1.393 . S
C104 C105 1.399 . S
C105 C104 1.399 . S
C105 C106 1.381 . S
C106 H98 0.930 . S
C106 C102 1.390 . S
C106 C105 1.381 . S
N107 C100 1.286 . S
N107 C103 1.413 . S
H108 C113 0.930 . S
H109 C116 0.930 . S
H110 C118 0.930 . S
H111 C112 1.016 . S
C112 H111 1.016 . S
C112 N119 1.286 . S
C113 H108 0.930 . S
C113 C114 1.397 . S
C113 C115 1.361 . S
C114 C113 1.397 . S
C114 C118 1.390 . S
C115 C113 1.361 . S
C115 C116 1.393 . S
C115 N119 1.413 . S
C116 H109 0.930 . S
C116 C115 1.393 . S
C116 C117 1.399 . S
C117 C116 1.399 . S
C117 C118 1.381 . S
C118 H110 0.930 . S
C118 C114 1.390 . S
C118 C117 1.381 . S
N119 C112 1.286 . S
N119 C115 1.413 . S
H120 C125 0.930 . S
H121 C128 0.930 . S
H122 C130 0.930 . S
H123 C124 1.016 . S
C124 H123 1.016 . S
C124 N131 1.286 . S
C125 H120 0.930 . S
C125 C126 1.397 . S
C125 C127 1.361 . S
C126 C125 1.397 . S
C126 C130 1.390 . S
C127 C125 1.361 . S
C127 C128 1.393 . S
C127 N131 1.413 . S
C128 H121 0.930 . S
C128 C127 1.393 . S
C128 C129 1.399 . S
C129 C128 1.399 . S
C129 C130 1.381 . S
C130 H122 0.930 . S
C130 C126 1.390 . S
C130 C129 1.381 . S
N131 C124 1.286 . S
N131 C127 1.413 . S
H132 C137 0.930 . S
H133 C140 0.930 . S
H134 C142 0.930 . S
H135 C136 1.016 . S
C136 H135 1.016 . S
C136 N143 1.286 . S
C137 H132 0.930 . S
C137 C138 1.397 . S
C137 C139 1.361 . S
C138 C137 1.397 . S
C138 C142 1.390 . S
C139 C137 1.361 . S
C139 C140 1.393 . S
C139 N143 1.413 . S
C140 H133 0.930 . S
C140 C139 1.393 . S
C140 C141 1.399 . S
C141 C140 1.399 . S
C141 C142 1.381 . S
C142 H134 0.930 . S
C142 C138 1.390 . S
C142 C141 1.381 . S
N143 C136 1.286 . S
N143 C139 1.413 . S
H144 C149 0.930 . S
H145 C152 0.930 . S
H146 C154 0.930 . S
H147 C148 1.016 . S
C148 H147 1.016 . S
C148 N155 1.286 . S
C149 H144 0.930 . S
C149 C150 1.397 . S
C149 C151 1.361 . S
C150 C149 1.397 . S
C150 C154 1.390 . S
C151 C149 1.361 . S
C151 C152 1.393 . S
C151 N155 1.413 . S
C152 H145 0.930 . S
C152 C151 1.393 . S
C152 C153 1.399 . S
C153 C152 1.399 . S
C153 C154 1.381 . S
C154 H146 0.930 . S
C154 C150 1.390 . S
C154 C153 1.381 . S
N155 C148 1.286 . S
N155 C151 1.413 . S
H156 C161 0.930 . S
H157 C164 0.930 . S
H158 C166 0.930 . S
H159 C160 1.016 . S
C160 H159 1.016 . S
C160 N167 1.286 . S
C161 H156 0.930 . S
C161 C162 1.397 . S
C161 C163 1.361 . S
C162 C161 1.397 . S
C162 C166 1.390 . S
C163 C161 1.361 . S
C163 C164 1.393 . S
C163 N167 1.413 . S
C164 H157 0.930 . S
C164 C163 1.393 . S
C164 C165 1.399 . S
C165 C164 1.399 . S
C165 C166 1.381 . S
C166 H158 0.930 . S
C166 C162 1.390 . S
C166 C165 1.381 . S
N167 C160 1.286 . S
N167 C163 1.413 . S
H168 C173 0.930 . S
H169 C176 0.930 . S
H170 C178 0.930 . S
H171 C172 1.016 . S
C172 H171 1.016 . S
C172 N179 1.286 . S
C173 H168 0.930 . S
C173 C174 1.397 . S
C173 C175 1.361 . S
C174 C173 1.397 . S
C174 C178 1.390 . S
C175 C173 1.361 . S
C175 C176 1.393 . S
C175 N179 1.413 . S
C176 H169 0.930 . S
C176 C175 1.393 . S
C176 C177 1.399 . S
C177 C176 1.399 . S
C177 C178 1.381 . S
C178 H170 0.930 . S
C178 C174 1.390 . S
C178 C177 1.381 . S
N179 C172 1.286 . S
N179 C175 1.413 . S
H180 C185 0.930 . S
H181 C188 0.930 . S
H182 C190 0.930 . S
H183 C184 1.016 . S
C184 H183 1.016 . S
C184 N191 1.286 . S
C185 H180 0.930 . S
C185 C186 1.397 . S
C185 C187 1.361 . S
C186 C185 1.397 . S
C186 C190 1.390 . S
C187 C185 1.361 . S
C187 C188 1.393 . S
C187 N191 1.413 . S
C188 H181 0.930 . S
C188 C187 1.393 . S
C188 C189 1.399 . S
C189 C188 1.399 . S
C189 C190 1.381 . S
C190 H182 0.930 . S
C190 C186 1.390 . S
C190 C189 1.381 . S
N191 C184 1.286 . S
N191 C187 1.413 . S
H192 C197 0.930 . S
H193 C200 0.930 . S
H194 C202 0.930 . S
H195 C196 1.016 . S
C196 H195 1.016 . S
C196 N203 1.286 . S
C197 H192 0.930 . S
C197 C198 1.397 . S
C197 C199 1.361 . S
C198 C197 1.397 . S
C198 C202 1.390 . S
C199 C197 1.361 . S
C199 C200 1.393 . S
C199 N203 1.413 . S
C200 H193 0.930 . S
C200 C199 1.393 . S
C200 C201 1.399 . S
C201 C200 1.399 . S
C201 C202 1.381 . S
C202 H194 0.930 . S
C202 C198 1.390 . S
C202 C201 1.381 . S
N203 C196 1.286 . S
N203 C199 1.413 . S
H204 C209 0.930 . S
H205 C212 0.930 . S
H206 C214 0.930 . S
H207 C208 1.016 . S
C208 H207 1.016 . S
C208 N215 1.286 . S
C209 H204 0.930 . S
C209 C210 1.397 . S
C209 C211 1.361 . S
C210 C209 1.397 . S
C210 C214 1.390 . S
C211 C209 1.361 . S
C211 C212 1.393 . S
C211 N215 1.413 . S
C212 H205 0.930 . S
C212 C211 1.393 . S
C212 C213 1.399 . S
C213 C212 1.399 . S
C213 C214 1.381 . S
C214 H206 0.930 . S
C214 C210 1.390 . S
C214 C213 1.381 . S
N215 C208 1.286 . S
N215 C211 1.413 . S
Tb216 O219 2.453 . S
Tb216 O220 2.596 1_545 S
Tb216 O221 2.374 1_545 S
Tb216 O229 2.343 1_554 S
Tb216 O231 2.353 . S
Tb216 O233 2.427 . S
Tb216 O234 2.513 1_554 S
C217 O221 1.251 . S
C217 O223 1.263 1_554 S
Tb218 O220 2.343 1_556 S
Tb218 O223 2.353 . S
Tb218 O226 2.427 1_556 S
Tb218 O227 2.513 1_556 S
Tb218 O228 2.453 . S
Tb218 O229 2.596 1_565 S
Tb218 O230 2.374 1_565 S
O219 Tb216 2.453 . S
O219 C235 1.245 1_545 S
O220 Tb216 2.596 1_565 S
O220 Tb218 2.343 1_554 S
O220 C235 1.259 . S
O221 Tb216 2.374 1_565 S
O221 C217 1.251 . S
C222 O226 1.275 . S
C222 O227 1.246 . S
O223 C217 1.263 1_556 S
O223 Tb218 2.353 . S
C224 O228 1.245 1_545 S
C224 O229 1.259 . S
C225 O230 1.250 1_554 S
C225 O231 1.263 . S
O226 Tb218 2.427 1_554 S
O226 C222 1.275 . S
O227 Tb218 2.513 1_554 S
O227 C222 1.246 . S
O228 Tb218 2.453 . S
O228 C224 1.245 1_565 S
O229 Tb216 2.343 1_556 S
O229 Tb218 2.596 1_545 S
O229 C224 1.259 . S
O230 Tb218 2.374 1_545 S
O230 C225 1.250 1_556 S
O231 Tb216 2.353 . S
O231 C225 1.263 . S
C232 O233 1.275 1_556 S
C232 O234 1.246 . S
O233 Tb216 2.427 . S
O233 C232 1.275 1_554 S
O234 Tb216 2.513 1_556 S
O234 C232 1.246 . S
C235 O219 1.245 1_565 S
C235 O220 1.259 . S
Tb236 O239 2.453 . S
Tb236 O240 2.596 1_655 S
Tb236 O241 2.374 1_655 S
Tb236 O249 2.343 1_554 S
Tb236 O251 2.353 . S
Tb236 O253 2.427 1_554 S
Tb236 O254 2.513 1_554 S
C237 O241 1.251 . S
C237 O243 1.263 . S
Tb238 O240 2.343 1_556 S
Tb238 O243 2.353 1_556 S
Tb238 O246 2.427 1_556 S
Tb238 O247 2.513 1_556 S
Tb238 O248 2.453 . S
Tb238 O249 2.596 1_455 S
Tb238 O250 2.374 1_455 S
O239 Tb236 2.453 . S
O239 C255 1.245 1_655 S
O240 Tb236 2.596 1_455 S
O240 Tb238 2.343 1_554 S
O240 C255 1.259 . S
O241 Tb236 2.374 1_455 S
O241 C237 1.251 . S
C242 O246 1.275 . S
C242 O247 1.246 . S
O243 C237 1.263 . S
O243 Tb238 2.353 1_554 S
C244 O248 1.245 1_655 S
C244 O249 1.259 . S
C245 O250 1.251 1_554 S
C245 O251 1.262 . S
O246 Tb238 2.427 1_554 S
O246 C242 1.275 . S
O247 Tb238 2.513 1_554 S
O247 C242 1.246 . S
O248 Tb238 2.453 . S
O248 C244 1.245 1_455 S
O249 Tb236 2.343 1_556 S
O249 Tb238 2.596 1_655 S
O249 C244 1.259 . S
O250 Tb238 2.374 1_655 S
O250 C245 1.251 1_556 S
O251 Tb236 2.353 . S
O251 C245 1.262 . S
C252 O253 1.275 . S
C252 O254 1.246 . S
O253 Tb236 2.427 1_556 S
O253 C252 1.275 . S
O254 Tb236 2.513 1_556 S
O254 C252 1.246 . S
C255 O239 1.245 1_455 S
C255 O240 1.259 . S
Tb256 O259 2.453 . S
Tb256 O260 2.596 . S
Tb256 O261 2.374 1_556 S
Tb256 O269 2.343 1_556 S
Tb256 O271 2.353 1_556 S
Tb256 O273 2.427 1_556 S
Tb256 O274 2.513 1_556 S
C257 O261 1.251 . S
C257 O263 1.263 . S
Tb258 O260 2.343 1_554 S
Tb258 O263 2.353 . S
Tb258 O266 2.427 . S
Tb258 O267 2.513 1_554 S
Tb258 O268 2.453 . S
Tb258 O269 2.596 . S
Tb258 O270 2.374 . S
O259 Tb256 2.453 . S
O259 C275 1.245 . S
O260 Tb256 2.596 . S
O260 Tb258 2.343 1_556 S
O260 C275 1.259 . S
O261 Tb256 2.374 1_554 S
O261 C257 1.251 . S
C262 O266 1.275 1_556 S
C262 O267 1.246 . S
O263 C257 1.263 . S
O263 Tb258 2.353 . S
C264 O268 1.245 . S
C264 O269 1.259 . S
C265 O270 1.250 . S
C265 O271 1.263 . S
O266 Tb258 2.427 . S
O266 C262 1.275 1_554 S
O267 Tb258 2.513 1_556 S
O267 C262 1.246 . S
O268 Tb258 2.453 . S
O268 C264 1.245 . S
O269 Tb256 2.343 1_554 S
O269 Tb258 2.596 . S
O269 C264 1.259 . S
O270 Tb258 2.374 . S
O270 C265 1.250 . S
O271 Tb256 2.353 1_554 S
O271 C265 1.263 . S
C272 O273 1.275 . S
C272 O274 1.246 . S
O273 Tb256 2.427 1_554 S
O273 C272 1.275 . S
O274 Tb256 2.513 1_554 S
O274 C272 1.246 . S
C275 O259 1.245 . S
C275 O260 1.259 . S
Tb276 O279 2.453 . S
Tb276 O280 2.596 . S
Tb276 O281 2.374 . S
Tb276 O289 2.343 . S
Tb276 O291 2.353 . S
Tb276 O293 2.427 . S
Tb276 O294 2.513 . S
C277 O281 1.251 . S
C277 O283 1.263 . S
Tb278 O280 2.343 . S
Tb278 O283 2.353 . S
Tb278 O286 2.427 . S
Tb278 O287 2.513 . S
Tb278 O288 2.453 . S
Tb278 O289 2.596 . S
Tb278 O290 2.374 . S
O279 Tb276 2.453 . S
O279 C295 1.245 . S
O280 Tb276 2.596 . S
O280 Tb278 2.343 . S
O280 C295 1.259 . S
O281 Tb276 2.374 . S
O281 C277 1.251 . S
C282 O286 1.275 . S
C282 O287 1.246 . S
O283 C277 1.263 . S
O283 Tb278 2.353 . S
C284 O288 1.245 . S
C284 O289 1.259 . S
C285 O290 1.250 . S
C285 O291 1.263 . S
O286 Tb278 2.427 . S
O286 C282 1.275 . S
O287 Tb278 2.513 . S
O287 C282 1.246 . S
O288 Tb278 2.453 . S
O288 C284 1.245 . S
O289 Tb276 2.343 . S
O289 Tb278 2.596 . S
O289 C284 1.259 . S
O290 Tb278 2.374 . S
O290 C285 1.250 . S
O291 Tb276 2.353 . S
O291 C285 1.263 . S
C292 O293 1.275 . S
C292 O294 1.246 . S
O293 Tb276 2.427 . S
O293 C292 1.275 . S
O294 Tb276 2.513 . S
O294 C292 1.246 . S
C295 O279 1.245 . S
C295 O280 1.259 . S
Tb296 O299 2.453 . S
Tb296 O300 2.596 . S
Tb296 O301 2.374 . S
Tb296 O309 2.343 . S
Tb296 O311 2.353 . S
Tb296 O313 2.427 . S
Tb296 O314 2.513 . S
C297 O301 1.251 . S
C297 O303 1.263 . S
Tb298 O300 2.343 . S
Tb298 O303 2.353 . S
Tb298 O306 2.427 . S
Tb298 O307 2.513 . S
Tb298 O308 2.453 . S
Tb298 O309 2.596 . S
Tb298 O310 2.374 . S
O299 Tb296 2.453 . S
O299 C315 1.245 . S
O300 Tb296 2.596 . S
O300 Tb298 2.343 . S
O300 C315 1.259 . S
O301 Tb296 2.374 . S
O301 C297 1.251 . S
C302 O306 1.275 . S
C302 O307 1.246 . S
O303 C297 1.263 . S
O303 Tb298 2.353 . S
C304 O308 1.245 . S
C304 O309 1.259 . S
C305 O310 1.250 . S
C305 O311 1.263 . S
O306 Tb298 2.427 . S
O306 C302 1.275 . S
O307 Tb298 2.513 . S
O307 C302 1.246 . S
O308 Tb298 2.453 . S
O308 C304 1.245 . S
O309 Tb296 2.343 . S
O309 Tb298 2.596 . S
O309 C304 1.259 . S
O310 Tb298 2.374 . S
O310 C305 1.250 . S
O311 Tb296 2.353 . S
O311 C305 1.263 . S
C312 O313 1.275 . S
C312 O314 1.246 . S
O313 Tb296 2.427 . S
O313 C312 1.275 . S
O314 Tb296 2.513 . S
O314 C312 1.246 . S
C315 O299 1.245 . S
C315 O300 1.259 . S
Tb316 O319 2.453 . S
Tb316 O320 2.596 . S
Tb316 O321 2.374 . S
Tb316 O329 2.343 . S
Tb316 O331 2.353 . S
Tb316 O333 2.427 . S
Tb316 O334 2.513 . S
C317 O321 1.251 . S
C317 O323 1.263 . S
Tb318 O320 2.343 . S
Tb318 O323 2.353 . S
Tb318 O326 2.427 . S
Tb318 O327 2.513 . S
Tb318 O328 2.453 . S
Tb318 O329 2.596 . S
Tb318 O330 2.374 . S
O319 Tb316 2.453 . S
O319 C335 1.245 . S
O320 Tb316 2.596 . S
O320 Tb318 2.343 . S
O320 C335 1.259 . S
O321 Tb316 2.374 . S
O321 C317 1.251 . S
C322 O326 1.275 . S
C322 O327 1.246 . S
O323 C317 1.263 . S
O323 Tb318 2.353 . S
C324 O328 1.245 . S
C324 O329 1.259 . S
C325 O330 1.250 . S
C325 O331 1.263 . S
O326 Tb318 2.427 . S
O326 C322 1.275 . S
O327 Tb318 2.513 . S
O327 C322 1.246 . S
O328 Tb318 2.453 . S
O328 C324 1.245 . S
O329 Tb316 2.343 . S
O329 Tb318 2.596 . S
O329 C324 1.259 . S
O330 Tb318 2.374 . S
O330 C325 1.250 . S
O331 Tb316 2.353 . S
O331 C325 1.263 . S
C332 O333 1.275 . S
C332 O334 1.246 . S
O333 Tb316 2.427 . S
O333 C332 1.275 . S
O334 Tb316 2.513 . S
O334 C332 1.246 . S
C335 O319 1.245 . S
C335 O320 1.259 . S
Tb336 O339 2.453 . S
Tb336 O340 2.596 . S
Tb336 O341 2.374 . S
Tb336 O349 2.343 . S
Tb336 O351 2.353 . S
Tb336 O353 2.427 . S
Tb336 O354 2.513 . S
C337 O341 1.251 . S
C337 O343 1.263 . S
Tb338 O340 2.343 . S
Tb338 O343 2.353 . S
Tb338 O346 2.427 . S
Tb338 O347 2.513 . S
Tb338 O348 2.453 . S
Tb338 O349 2.596 . S
Tb338 O350 2.374 . S
O339 Tb336 2.453 . S
O339 C355 1.245 . S
O340 Tb336 2.596 . S
O340 Tb338 2.343 . S
O340 C355 1.259 . S
O341 Tb336 2.374 . S
O341 C337 1.251 . S
C342 O346 1.275 . S
C342 O347 1.246 . S
O343 C337 1.263 . S
O343 Tb338 2.353 . S
C344 O348 1.245 . S
C344 O349 1.259 . S
C345 O350 1.250 . S
C345 O351 1.263 . S
O346 Tb338 2.427 . S
O346 C342 1.275 . S
O347 Tb338 2.513 . S
O347 C342 1.246 . S
O348 Tb338 2.453 . S
O348 C344 1.245 . S
O349 Tb336 2.343 . S
O349 Tb338 2.596 . S
O349 C344 1.259 . S
O350 Tb338 2.374 . S
O350 C345 1.250 . S
O351 Tb336 2.353 . S
O351 C345 1.263 . S
C352 O353 1.275 . S
C352 O354 1.246 . S
O353 Tb336 2.427 . S
O353 C352 1.275 . S
O354 Tb336 2.513 . S
O354 C352 1.246 . S
C355 O339 1.245 . S
C355 O340 1.259 . S
Tb356 O359 2.453 . S
Tb356 O360 2.596 . S
Tb356 O361 2.374 . S
Tb356 O369 2.343 . S
Tb356 O371 2.353 . S
Tb356 O373 2.427 . S
Tb356 O374 2.513 . S
C357 O361 1.251 . S
C357 O363 1.263 . S
Tb358 O360 2.343 . S
Tb358 O363 2.353 . S
Tb358 O366 2.427 . S
Tb358 O367 2.513 . S
Tb358 O368 2.453 . S
Tb358 O369 2.596 . S
Tb358 O370 2.374 . S
O359 Tb356 2.453 . S
O359 C375 1.245 . S
O360 Tb356 2.596 . S
O360 Tb358 2.343 . S
O360 C375 1.259 . S
O361 Tb356 2.374 . S
O361 C357 1.251 . S
C362 O366 1.275 . S
C362 O367 1.246 . S
O363 C357 1.263 . S
O363 Tb358 2.353 . S
C364 O368 1.245 . S
C364 O369 1.259 . S
C365 O370 1.250 . S
C365 O371 1.263 . S
O366 Tb358 2.427 . S
O366 C362 1.275 . S
O367 Tb358 2.513 . S
O367 C362 1.246 . S
O368 Tb358 2.453 . S
O368 C364 1.245 . S
O369 Tb356 2.343 . S
O369 Tb358 2.596 . S
O369 C364 1.259 . S
O370 Tb358 2.374 . S
O370 C365 1.250 . S
O371 Tb356 2.353 . S
O371 C365 1.263 . S
C372 O373 1.275 . S
C372 O374 1.246 . S
O373 Tb356 2.427 . S
O373 C372 1.275 . S
O374 Tb356 2.513 . S
O374 C372 1.246 . S
C375 O359 1.245 . S
C375 O360 1.259 . S
Tb376 O379 2.453 . S
Tb376 O380 2.596 . S
Tb376 O381 2.374 . S
Tb376 O389 2.343 . S
Tb376 O391 2.353 . S
Tb376 O393 2.427 . S
Tb376 O394 2.513 . S
C377 O381 1.251 . S
C377 O383 1.263 . S
Tb378 O380 2.343 . S
Tb378 O383 2.353 . S
Tb378 O386 2.427 . S
Tb378 O387 2.513 . S
Tb378 O388 2.453 . S
Tb378 O389 2.596 . S
Tb378 O390 2.374 . S
O379 Tb376 2.453 . S
O379 C395 1.245 . S
O380 Tb376 2.596 . S
O380 Tb378 2.343 . S
O380 C395 1.259 . S
O381 Tb376 2.374 . S
O381 C377 1.251 . S
C382 O386 1.275 . S
C382 O387 1.246 . S
O383 C377 1.263 . S
O383 Tb378 2.353 . S
C384 O388 1.245 . S
C384 O389 1.259 . S
C385 O390 1.250 . S
C385 O391 1.263 . S
O386 Tb378 2.427 . S
O386 C382 1.275 . S
O387 Tb378 2.513 . S
O387 C382 1.246 . S
O388 Tb378 2.453 . S
O388 C384 1.245 . S
O389 Tb376 2.343 . S
O389 Tb378 2.596 . S
O389 C384 1.259 . S
O390 Tb378 2.374 . S
O390 C385 1.250 . S
O391 Tb376 2.353 . S
O391 C385 1.263 . S
C392 O393 1.275 . S
C392 O394 1.246 . S
O393 Tb376 2.427 . S
O393 C392 1.275 . S
O394 Tb376 2.513 . S
O394 C392 1.246 . S
C395 O379 1.245 . S
C395 O380 1.259 . S
H396 C408 0.930 . S
H397 C410 0.930 . S
H398 C411 0.930 . S
H399 C415 0.959 . S
H400 C415 0.959 . S
H401 C415 0.961 . S
H402 C416 0.960 . S
H403 C416 0.961 . S
H404 C416 0.959 . S
H405 C419 0.929 1_556 S
H406 C420 0.931 1_556 S
H407 C422 0.930 . S
C408 H396 0.930 . S
C408 C409 1.399 . S
C408 C413 1.399 . S
C409 C408 1.399 . S
C409 C410 1.376 . S
C410 H397 0.930 . S
C410 C409 1.376 . S
C410 C411 1.388 . S
C411 H398 0.930 . S
C411 C410 1.388 . S
C411 C412 1.390 . S
C412 C411 1.390 . S
C412 C413 1.394 . S
C412 C418 1.465 . S
C413 C408 1.399 . S
C413 C412 1.394 . S
C413 C414 1.516 . S
C414 C413 1.516 . S
C414 C415 1.502 . S
C414 C416 1.561 . S
C414 C417 1.526 . S
C415 H399 0.959 . S
C415 H400 0.959 . S
C415 H401 0.961 . S
C415 C414 1.502 . S
C416 H402 0.960 . S
C416 H403 0.961 . S
C416 H404 0.959 . S
C416 C414 1.561 . S
C417 C414 1.526 . S
C417 C418 1.396 . S
C417 C422 1.390 . S
C418 C412 1.465 . S
C418 C417 1.396 . S
C418 C419 1.399 . S
C419 H405 0.929 1_554 S
C419 C418 1.399 . S
C419 C420 1.385 . S
C420 H406 0.931 1_554 S
C420 C419 1.385 . S
C420 C421 1.389 . S
C421 C420 1.389 . S
C421 C422 1.387 . S
C422 H407 0.930 . S
C422 C417 1.390 . S
C422 C421 1.387 . S
H423 C435 0.930 . S
H424 C437 0.930 . S
H425 C438 0.930 . S
H426 C442 0.959 . S
H427 C442 0.959 . S
H428 C442 0.961 . S
H429 C443 0.960 . S
H430 C443 0.961 . S
H431 C443 0.959 . S
H432 C446 0.929 . S
H433 C447 0.931 . S
H434 C449 0.930 . S
C435 H423 0.930 . S
C435 C436 1.399 . S
C435 C440 1.399 . S
C436 C435 1.399 . S
C436 C437 1.376 . S
C437 H424 0.930 . S
C437 C436 1.376 . S
C437 C438 1.388 . S
C438 H425 0.930 . S
C438 C437 1.388 . S
C438 C439 1.390 . S
C439 C438 1.390 . S
C439 C440 1.394 . S
C439 C445 1.465 . S
C440 C435 1.399 . S
C440 C439 1.394 . S
C440 C441 1.516 . S
C441 C440 1.516 . S
C441 C442 1.502 . S
C441 C443 1.561 . S
C441 C444 1.526 . S
C442 H426 0.959 . S
C442 H427 0.959 . S
C442 H428 0.961 . S
C442 C441 1.502 . S
C443 H429 0.960 . S
C443 H430 0.961 . S
C443 H431 0.959 . S
C443 C441 1.561 . S
C444 C441 1.526 . S
C444 C445 1.396 . S
C444 C449 1.390 . S
C445 C439 1.465 . S
C445 C444 1.396 . S
C445 C446 1.399 . S
C446 H432 0.929 . S
C446 C445 1.399 . S
C446 C447 1.385 . S
C447 H433 0.931 . S
C447 C446 1.385 . S
C447 C448 1.389 . S
C448 C447 1.389 . S
C448 C449 1.387 . S
C449 H434 0.930 . S
C449 C444 1.390 . S
C449 C448 1.387 . S
H450 C462 0.930 . S
H451 C464 0.930 . S
H452 C465 0.930 . S
H453 C469 0.957 1_554 S
H454 C469 0.959 . S
H455 C469 0.961 . S
H456 C470 0.960 . S
H457 C470 0.961 . S
H458 C470 0.949 1_554 S
H459 C473 0.929 . S
H460 C474 0.931 . S
H461 C476 0.930 1_556 S
C462 H450 0.930 . S
C462 C463 1.399 . S
C462 C467 1.399 . S
C463 C462 1.399 . S
C463 C464 1.376 . S
C464 H451 0.930 . S
C464 C463 1.376 . S
C464 C465 1.388 . S
C465 H452 0.930 . S
C465 C464 1.388 . S
C465 C466 1.390 . S
C466 C465 1.390 . S
C466 C467 1.394 . S
C466 C472 1.465 . S
C467 C462 1.399 . S
C467 C466 1.394 . S
C467 C468 1.516 . S
C468 C467 1.516 . S
C468 C469 1.502 1_554 S
C468 C470 1.561 1_554 S
C468 C471 1.526 . S
C469 H453 0.957 1_556 S
C469 H454 0.959 . S
C469 H455 0.961 . S
C469 C468 1.502 1_556 S
C470 H456 0.960 . S
C470 H457 0.961 . S
C470 H458 0.949 1_556 S
C470 C468 1.561 1_556 S
C471 C468 1.526 . S
C471 C472 1.396 . S
C471 C476 1.390 . S
C472 C466 1.465 . S
C472 C471 1.396 . S
C472 C473 1.399 . S
C473 H459 0.929 . S
C473 C472 1.399 . S
C473 C474 1.385 . S
C474 H460 0.931 . S
C474 C473 1.385 . S
C474 C475 1.389 . S
C475 C474 1.389 . S
C475 C476 1.387 . S
C476 H461 0.930 1_554 S
C476 C471 1.390 . S
C476 C475 1.387 . S
H477 C489 0.930 . S
H478 C491 0.930 . S
H479 C492 0.930 1_554 S
H480 C496 0.959 . S
H481 C496 0.959 . S
H482 C496 0.961 . S
H483 C497 0.960 . S
H484 C497 0.961 . S
H485 C497 0.959 . S
H486 C500 0.929 . S
H487 C501 0.931 . S
H488 C503 0.930 . S
C489 H477 0.930 . S
C489 C490 1.399 . S
C489 C494 1.399 . S
C490 C489 1.399 . S
C490 C491 1.376 . S
C491 H478 0.930 . S
C491 C490 1.376 . S
C491 C492 1.388 . S
C492 H479 0.930 1_556 S
C492 C491 1.388 . S
C492 C493 1.390 . S
C493 C492 1.390 . S
C493 C494 1.394 . S
C493 C499 1.465 . S
C494 C489 1.399 . S
C494 C493 1.394 . S
C494 C495 1.516 . S
C495 C494 1.516 . S
C495 C496 1.502 . S
C495 C497 1.561 . S
C495 C498 1.526 . S
C496 H480 0.959 . S
C496 H481 0.959 . S
C496 H482 0.961 . S
C496 C495 1.502 . S
C497 H483 0.960 . S
C497 H484 0.961 . S
C497 H485 0.959 . S
C497 C495 1.561 . S
C498 C495 1.526 . S
C498 C499 1.396 . S
C498 C503 1.390 . S
C499 C493 1.465 . S
C499 C498 1.396 . S
C499 C500 1.399 1_556 S
C500 H486 0.929 . S
C500 C499 1.399 1_554 S
C500 C501 1.385 . S
C501 H487 0.931 . S
C501 C500 1.385 . S
C501 C502 1.389 1_554 S
C502 C501 1.389 1_556 S
C502 C503 1.387 . S
C503 H488 0.930 . S
C503 C498 1.390 . S
C503 C502 1.387 . S
H504 C516 0.930 . S
H505 C518 0.930 . S
H506 C519 0.930 . S
H507 C523 0.959 . S
H508 C523 0.959 . S
H509 C523 0.961 . S
H510 C524 0.960 . S
H511 C524 0.961 . S
H512 C524 0.959 . S
H513 C527 0.929 . S
H514 C528 0.931 1_554 S
H515 C530 0.930 . S
C516 H504 0.930 . S
C516 C517 1.399 . S
C516 C521 1.399 . S
C517 C516 1.399 . S
C517 C518 1.376 . S
C518 H505 0.930 . S
C518 C517 1.376 . S
C518 C519 1.388 . S
C519 H506 0.930 . S
C519 C518 1.388 . S
C519 C520 1.390 . S
C520 C519 1.390 . S
C520 C521 1.394 . S
C520 C526 1.465 . S
C521 C516 1.399 . S
C521 C520 1.394 . S
C521 C522 1.516 . S
C522 C521 1.516 . S
C522 C523 1.502 . S
C522 C524 1.561 . S
C522 C525 1.526 . S
C523 H507 0.959 . S
C523 H508 0.959 . S
C523 H509 0.961 . S
C523 C522 1.502 . S
C524 H510 0.960 . S
C524 H511 0.961 . S
C524 H512 0.959 . S
C524 C522 1.561 . S
C525 C522 1.526 . S
C525 C526 1.396 . S
C525 C530 1.390 . S
C526 C520 1.465 . S
C526 C525 1.396 . S
C526 C527 1.399 . S
C527 H513 0.929 . S
C527 C526 1.399 . S
C527 C528 1.385 . S
C528 H514 0.931 1_556 S
C528 C527 1.385 . S
C528 C529 1.389 . S
C529 C528 1.389 . S
C529 C530 1.387 . S
C530 H515 0.930 . S
C530 C525 1.390 . S
C530 C529 1.387 . S
H531 C543 0.930 . S
H532 C545 0.930 . S
H533 C546 0.930 . S
H534 C550 0.959 . S
H535 C550 0.959 . S
H536 C550 0.961 . S
H537 C551 0.960 . S
H538 C551 0.961 . S
H539 C551 0.959 1_556 S
H540 C554 0.929 . S
H541 C555 0.931 . S
H542 C557 0.930 . S
C543 H531 0.930 . S
C543 C544 1.399 . S
C543 C548 1.399 . S
C544 C543 1.399 . S
C544 C545 1.376 . S
C545 H532 0.930 . S
C545 C544 1.376 . S
C545 C546 1.388 . S
C546 H533 0.930 . S
C546 C545 1.388 . S
C546 C547 1.390 . S
C547 C546 1.390 . S
C547 C548 1.394 . S
C547 C553 1.465 . S
C548 C543 1.399 . S
C548 C547 1.394 . S
C548 C549 1.516 1_556 S
C549 C548 1.516 1_554 S
C549 C550 1.502 . S
C549 C551 1.561 . S
C549 C552 1.526 1_554 S
C550 H534 0.959 . S
C550 H535 0.959 . S
C550 H536 0.961 . S
C550 C549 1.502 . S
C551 H537 0.960 . S
C551 H538 0.961 . S
C551 H539 0.959 1_554 S
C551 C549 1.561 . S
C552 C549 1.526 1_556 S
C552 C553 1.396 . S
C552 C557 1.390 1_556 S
C553 C547 1.465 . S
C553 C552 1.396 . S
C553 C554 1.399 . S
C554 H540 0.929 . S
C554 C553 1.399 . S
C554 C555 1.385 . S
C555 H541 0.931 . S
C555 C554 1.385 . S
C555 C556 1.389 . S
C556 C555 1.389 . S
C556 C557 1.387 1_556 S
C557 H542 0.930 . S
C557 C552 1.390 1_554 S
C557 C556 1.387 1_554 S
H558 C570 0.930 . S
H559 C572 0.930 1_554 S
H560 C573 0.932 . S
H561 C577 0.959 . S
H562 C577 0.959 . S
H563 C577 0.961 . S
H564 C578 0.960 . S
H565 C578 0.961 . S
H566 C578 0.959 . S
H567 C581 0.929 . S
H568 C582 0.931 . S
H569 C584 0.930 . S
C570 H558 0.930 . S
C570 C571 1.399 . S
C570 C575 1.399 . S
C571 C570 1.399 . S
C571 C572 1.376 . S
C572 H559 0.930 1_556 S
C572 C571 1.376 . S
C572 C573 1.387 1_556 S
C573 H560 0.932 . S
C573 C572 1.387 1_554 S
C573 C574 1.389 1_554 S
C574 C573 1.389 1_556 S
C574 C575 1.394 . S
C574 C580 1.465 . S
C575 C570 1.399 . S
C575 C574 1.394 . S
C575 C576 1.516 . S
C576 C575 1.516 . S
C576 C577 1.502 . S
C576 C578 1.561 . S
C576 C579 1.526 . S
C577 H561 0.959 . S
C577 H562 0.959 . S
C577 H563 0.961 . S
C577 C576 1.502 . S
C578 H564 0.960 . S
C578 H565 0.961 . S
C578 H566 0.959 . S
C578 C576 1.561 . S
C579 C576 1.526 . S
C579 C580 1.396 . S
C579 C584 1.390 . S
C580 C574 1.465 . S
C580 C579 1.396 . S
C580 C581 1.399 1_556 S
C581 H567 0.929 . S
C581 C580 1.399 1_554 S
C581 C582 1.385 . S
C582 H568 0.931 . S
C582 C581 1.385 . S
C582 C583 1.389 1_554 S
C583 C582 1.389 1_556 S
C583 C584 1.387 . S
C584 H569 0.930 . S
C584 C579 1.390 . S
C584 C583 1.387 . S
H585 C597 0.930 . S
H586 C599 0.930 . S
H587 C600 0.924 1_554 S
H588 C604 0.959 . S
H589 C604 0.959 . S
H590 C604 0.961 . S
H591 C605 0.960 . S
H592 C605 0.961 . S
H593 C605 0.959 . S
H594 C608 0.929 1_554 S
H595 C609 0.931 1_554 S
H596 C611 0.930 . S
C597 H585 0.930 . S
C597 C598 1.399 . S
C597 C602 1.399 . S
C598 C597 1.399 . S
C598 C599 1.376 . S
C599 H586 0.930 . S
C599 C598 1.376 . S
C599 C600 1.388 . S
C600 H587 0.924 1_556 S
C600 C599 1.388 . S
C600 C601 1.390 . S
C601 C600 1.390 . S
C601 C602 1.394 . S
C601 C607 1.465 . S
C602 C597 1.399 . S
C602 C601 1.394 . S
C602 C603 1.516 . S
C603 C602 1.516 . S
C603 C604 1.502 . S
C603 C605 1.561 . S
C603 C606 1.526 . S
C604 H588 0.959 . S
C604 H589 0.959 . S
C604 H590 0.961 . S
C604 C603 1.502 . S
C605 H591 0.960 . S
C605 H592 0.961 . S
C605 H593 0.959 . S
C605 C603 1.561 . S
C606 C603 1.526 . S
C606 C607 1.396 . S
C606 C611 1.390 . S
C607 C601 1.465 . S
C607 C606 1.396 . S
C607 C608 1.399 . S
C608 H594 0.929 1_556 S
C608 C607 1.399 . S
C608 C609 1.385 . S
C609 H595 0.931 1_556 S
C609 C608 1.385 . S
C609 C610 1.389 . S
C610 C609 1.389 . S
C610 C611 1.387 . S
C611 H596 0.930 . S
C611 C606 1.390 . S
C611 C610 1.387 . S
H612 C624 0.903 1_554 S
H613 C626 0.930 . S
H614 C627 0.930 . S
H615 C631 0.959 . S
H616 C631 0.959 . S
H617 C631 0.961 . S
H618 C632 0.960 . S
H619 C632 0.961 . S
H620 C632 0.959 . S
H621 C635 0.929 . S
H622 C636 0.931 . S
H623 C638 0.930 . S
C624 H612 0.903 1_556 S
C624 C625 1.423 . S
C624 C629 1.403 . S
C625 C624 1.423 . S
C625 C626 1.376 . S
C626 H613 0.930 . S
C626 C625 1.376 . S
C626 C627 1.388 . S
C627 H614 0.930 . S
C627 C626 1.388 . S
C627 C628 1.390 . S
C628 C627 1.390 . S
C628 C629 1.394 . S
C628 C634 1.465 . S
C629 C624 1.403 . S
C629 C628 1.394 . S
C629 C630 1.516 1_556 S
C630 C629 1.516 1_554 S
C630 C631 1.502 . S
C630 C632 1.561 . S
C630 C633 1.526 . S
C631 H615 0.959 . S
C631 H616 0.959 . S
C631 H617 0.961 . S
C631 C630 1.502 . S
C632 H618 0.960 . S
C632 H619 0.961 . S
C632 H620 0.959 . S
C632 C630 1.561 . S
C633 C630 1.526 . S
C633 C634 1.396 1_554 S
C633 C638 1.390 . S
C634 C628 1.465 . S
C634 C633 1.396 1_556 S
C634 C635 1.399 . S
C635 H621 0.929 . S
C635 C634 1.399 . S
C635 C636 1.385 . S
C636 H622 0.931 . S
C636 C635 1.385 . S
C636 C637 1.389 . S
C637 C636 1.389 . S
C637 C638 1.387 1_556 S
C638 H623 0.930 . S
C638 C633 1.390 . S
C638 C637 1.387 1_554 S
H639 C651 0.930 . S
H640 C653 0.930 . S
H641 C654 0.930 . S
H642 C658 0.959 . S
H643 C658 0.959 1_556 S
H644 C658 0.958 1_556 S
H645 C659 0.960 . S
H646 C659 0.961 . S
H647 C659 0.959 . S
H648 C662 0.929 . S
H649 C663 0.931 . S
H650 C665 0.930 1_556 S
C651 H639 0.930 . S
C651 C652 1.399 . S
C651 C656 1.399 . S
C652 C651 1.399 . S
C652 C653 1.376 . S
C653 H640 0.930 . S
C653 C652 1.376 . S
C653 C654 1.388 . S
C654 H641 0.930 . S
C654 C653 1.388 . S
C654 C655 1.390 . S
C655 C654 1.390 . S
C655 C656 1.394 . S
C655 C661 1.465 . S
C656 C651 1.399 . S
C656 C655 1.394 . S
C656 C657 1.516 . S
C657 C656 1.516 . S
C657 C658 1.502 . S
C657 C659 1.561 1_554 S
C657 C660 1.526 . S
C658 H642 0.959 . S
C658 H643 0.959 1_554 S
C658 H644 0.958 1_554 S
C658 C657 1.502 . S
C659 H645 0.960 . S
C659 H646 0.961 . S
C659 H647 0.959 . S
C659 C657 1.561 1_556 S
C660 C657 1.526 . S
C660 C661 1.396 . S
C660 C665 1.390 . S
C661 C655 1.465 . S
C661 C660 1.396 . S
C661 C662 1.399 . S
C662 H648 0.929 . S
C662 C661 1.399 . S
C662 C663 1.385 . S
C663 H649 0.931 . S
C663 C662 1.385 . S
C663 C664 1.389 . S
C664 C663 1.389 . S
C664 C665 1.387 . S
C665 H650 0.930 1_554 S
C665 C660 1.390 . S
C665 C664 1.387 . S
H666 C678 0.930 . S
H667 C680 0.930 . S
H668 C681 0.930 . S
H669 C685 0.959 . S
H670 C685 0.959 . S
H671 C685 0.961 . S
H672 C686 0.960 . S
H673 C686 0.961 . S
H674 C686 0.959 . S
H675 C689 0.929 . S
H676 C690 0.931 . S
H677 C692 0.930 . S
C678 H666 0.930 . S
C678 C679 1.399 . S
C678 C683 1.399 . S
C679 C678 1.399 . S
C679 C680 1.376 . S
C680 H667 0.930 . S
C680 C679 1.376 . S
C680 C681 1.388 . S
C681 H668 0.930 . S
C681 C680 1.388 . S
C681 C682 1.390 . S
C682 C681 1.390 . S
C682 C683 1.394 . S
C682 C688 1.465 . S
C683 C678 1.399 . S
C683 C682 1.394 . S
C683 C684 1.516 . S
C684 C683 1.516 . S
C684 C685 1.502 . S
C684 C686 1.561 . S
C684 C687 1.526 . S
C685 H669 0.959 . S
C685 H670 0.959 . S
C685 H671 0.961 . S
C685 C684 1.502 . S
C686 H672 0.960 . S
C686 H673 0.961 . S
C686 H674 0.959 . S
C686 C684 1.561 . S
C687 C684 1.526 . S
C687 C688 1.396 . S
C687 C692 1.390 . S
C688 C682 1.465 . S
C688 C687 1.396 . S
C688 C689 1.399 . S
C689 H675 0.929 . S
C689 C688 1.399 . S
C689 C690 1.385 . S
C690 H676 0.931 . S
C690 C689 1.385 . S
C690 C691 1.389 . S
C691 C690 1.389 . S
C691 C692 1.387 . S
C692 H677 0.930 . S
C692 C687 1.390 . S
C692 C691 1.387 . S
H693 C705 0.930 . S
H694 C707 0.930 . S
H695 C708 0.930 . S
H696 C712 0.959 . S
H697 C712 0.959 . S
H698 C712 0.961 . S
H699 C713 0.960 . S
H700 C713 0.961 . S
H701 C713 0.959 . S
H702 C716 0.929 . S
H703 C717 0.931 . S
H704 C719 0.930 1_556 S
C705 H693 0.930 . S
C705 C706 1.399 . S
C705 C710 1.399 . S
C706 C705 1.399 . S
C706 C707 1.376 . S
C707 H694 0.930 . S
C707 C706 1.376 . S
C707 C708 1.388 . S
C708 H695 0.930 . S
C708 C707 1.388 . S
C708 C709 1.390 . S
C709 C708 1.390 . S
C709 C710 1.394 . S
C709 C715 1.465 . S
C710 C705 1.399 . S
C710 C709 1.394 . S
C710 C711 1.514 1_554 S
C711 C710 1.514 1_556 S
C711 C712 1.503 . S
C711 C713 1.562 . S
C711 C714 1.525 1_556 S
C712 H696 0.959 . S
C712 H697 0.959 . S
C712 H698 0.961 . S
C712 C711 1.503 . S
C713 H699 0.960 . S
C713 H700 0.961 . S
C713 H701 0.959 . S
C713 C711 1.562 . S
C714 C711 1.525 1_554 S
C714 C715 1.396 . S
C714 C719 1.390 . S
C715 C709 1.465 . S
C715 C714 1.396 . S
C715 C716 1.399 . S
C716 H702 0.929 . S
C716 C715 1.399 . S
C716 C717 1.385 . S
C717 H703 0.931 . S
C717 C716 1.385 . S
C717 C718 1.389 . S
C718 C717 1.389 . S
C718 C719 1.387 . S
C719 H704 0.930 1_554 S
C719 C714 1.390 . S
C719 C718 1.387 . S
H720 C732 0.930 . S
H721 C734 0.930 . S
H722 C735 0.930 . S
H723 C739 0.959 . S
H724 C739 0.959 . S
H725 C739 0.961 . S
H726 C740 0.960 . S
H727 C740 0.961 . S
H728 C740 0.959 . S
H729 C743 0.929 . S
H730 C744 0.931 . S
H731 C746 0.930 . S
C732 H720 0.930 . S
C732 C733 1.399 . S
C732 C737 1.399 . S
C733 C732 1.399 . S
C733 C734 1.376 . S
C734 H721 0.930 . S
C734 C733 1.376 . S
C734 C735 1.388 . S
C735 H722 0.930 . S
C735 C734 1.388 . S
C735 C736 1.390 . S
C736 C735 1.390 . S
C736 C737 1.394 . S
C736 C742 1.465 1_655 S
C737 C732 1.399 . S
C737 C736 1.394 . S
C737 C738 1.516 . S
C738 C737 1.516 . S
C738 C739 1.502 . S
C738 C740 1.561 . S
C738 C741 1.526 1_655 S
C739 H723 0.959 . S
C739 H724 0.959 . S
C739 H725 0.961 . S
C739 C738 1.502 . S
C740 H726 0.960 . S
C740 H727 0.961 . S
C740 H728 0.959 . S
C740 C738 1.561 . S
C741 C738 1.526 1_455 S
C741 C742 1.396 . S
C741 C746 1.390 . S
C742 C736 1.465 1_455 S
C742 C741 1.396 . S
C742 C743 1.399 . S
C743 H729 0.929 . S
C743 C742 1.399 . S
C743 C744 1.385 . S
C744 H730 0.931 . S
C744 C743 1.385 . S
C744 C745 1.389 . S
C745 C744 1.389 . S
C745 C746 1.387 . S
C746 H731 0.930 . S
C746 C741 1.390 . S
C746 C745 1.387 . S
H747 C759 0.930 . S
H748 C761 0.930 . S
H749 C762 0.930 . S
H750 C766 0.959 . S
H751 C766 0.959 . S
H752 C766 0.961 . S
H753 C767 0.960 . S
H754 C767 0.961 . S
H755 C767 0.959 . S
H756 C770 0.929 . S
H757 C771 0.931 . S
H758 C773 0.930 . S
C759 H747 0.930 . S
C759 C760 1.399 . S
C759 C764 1.399 . S
C760 C759 1.399 . S
C760 C761 1.376 . S
C761 H748 0.930 . S
C761 C760 1.376 . S
C761 C762 1.388 . S
C762 H749 0.930 . S
C762 C761 1.388 . S
C762 C763 1.390 . S
C763 C762 1.390 . S
C763 C764 1.394 . S
C763 C769 1.465 . S
C764 C759 1.399 . S
C764 C763 1.394 . S
C764 C765 1.516 . S
C765 C764 1.516 . S
C765 C766 1.502 . S
C765 C767 1.561 . S
C765 C768 1.526 . S
C766 H750 0.959 . S
C766 H751 0.959 . S
C766 H752 0.961 . S
C766 C765 1.502 . S
C767 H753 0.960 . S
C767 H754 0.961 . S
C767 H755 0.959 . S
C767 C765 1.561 . S
C768 C765 1.526 . S
C768 C769 1.396 . S
C768 C773 1.390 . S
C769 C763 1.465 . S
C769 C768 1.396 . S
C769 C770 1.399 . S
C770 H756 0.929 . S
C770 C769 1.399 . S
C770 C771 1.385 . S
C771 H757 0.931 . S
C771 C770 1.385 . S
C771 C772 1.389 . S
C772 C771 1.389 . S
C772 C773 1.387 . S
C773 H758 0.930 . S
C773 C768 1.390 . S
C773 C772 1.387 . S
H774 C786 0.930 . S
H775 C788 0.930 . S
H776 C789 0.930 . S
H777 C793 0.959 . S
H778 C793 0.996 . S
H779 C793 0.961 . S
H780 C794 0.960 1_545 S
H781 C794 0.961 . S
H782 C794 0.959 . S
H783 C797 0.929 . S
H784 C798 0.931 . S
H785 C800 0.930 . S
C786 H774 0.930 . S
C786 C787 1.399 . S
C786 C791 1.399 . S
C787 C786 1.399 . S
C787 C788 1.376 . S
C788 H775 0.930 . S
C788 C787 1.376 . S
C788 C789 1.388 . S
C789 H776 0.930 . S
C789 C788 1.388 . S
C789 C790 1.390 . S
C790 C789 1.390 . S
C790 C791 1.394 . S
C790 C796 1.465 1_545 S
C791 C786 1.399 . S
C791 C790 1.394 . S
C791 C792 1.516 . S
C792 C791 1.516 . S
C792 C793 1.502 . S
C792 C794 1.561 1_545 S
C792 C795 1.526 1_545 S
C793 H777 0.959 . S
C793 H778 0.996 . S
C793 H779 0.961 . S
C793 C792 1.502 . S
C794 H780 0.960 1_565 S
C794 H781 0.961 . S
C794 H782 0.959 . S
C794 C792 1.561 1_565 S
C795 C792 1.526 1_565 S
C795 C796 1.396 . S
C795 C800 1.390 . S
C796 C790 1.465 1_565 S
C796 C795 1.396 . S
C796 C797 1.399 . S
C797 H783 0.929 . S
C797 C796 1.399 . S
C797 C798 1.385 . S
C798 H784 0.931 . S
C798 C797 1.385 . S
C798 C799 1.389 . S
C799 C798 1.389 . S
C799 C800 1.387 . S
C800 H785 0.930 . S
C800 C795 1.390 . S
C800 C799 1.387 . S
H801 C813 0.930 . S
H802 C815 0.930 . S
H803 C816 0.930 . S
H804 C820 0.959 . S
H805 C820 0.959 . S
H806 C820 0.961 . S
H807 C821 0.960 . S
H808 C821 0.961 . S
H809 C821 0.959 . S
H810 C824 0.929 . S
H811 C825 0.931 . S
H812 C827 0.930 . S
C813 H801 0.930 . S
C813 C814 1.399 . S
C813 C818 1.399 . S
C814 C813 1.399 . S
C814 C815 1.376 . S
C815 H802 0.930 . S
C815 C814 1.376 . S
C815 C816 1.388 . S
C816 H803 0.930 . S
C816 C815 1.388 . S
C816 C817 1.390 . S
C817 C816 1.390 . S
C817 C818 1.394 . S
C817 C823 1.465 . S
C818 C813 1.399 . S
C818 C817 1.394 . S
C818 C819 1.516 . S
C819 C818 1.516 . S
C819 C820 1.502 . S
C819 C821 1.561 . S
C819 C822 1.526 . S
C820 H804 0.959 . S
C820 H805 0.959 . S
C820 H806 0.961 . S
C820 C819 1.502 . S
C821 H807 0.960 . S
C821 H808 0.961 . S
C821 H809 0.959 . S
C821 C819 1.561 . S
C822 C819 1.526 . S
C822 C823 1.396 . S
C822 C827 1.390 . S
C823 C817 1.465 . S
C823 C822 1.396 . S
C823 C824 1.399 . S
C824 H810 0.929 . S
C824 C823 1.399 . S
C824 C825 1.385 . S
C825 H811 0.931 . S
C825 C824 1.385 . S
C825 C826 1.389 . S
C826 C825 1.389 . S
C826 C827 1.387 . S
C827 H812 0.930 . S
C827 C822 1.390 . S
C827 C826 1.387 . S
H828 C840 0.930 . S
H829 C842 0.930 . S
H830 C843 0.930 . S
H831 C847 0.959 . S
H832 C847 0.959 . S
H833 C847 0.961 . S
H834 C848 0.960 . S
H835 C848 0.961 . S
H836 C848 0.959 . S
H837 C851 0.929 . S
H838 C852 0.931 . S
H839 C854 0.930 . S
C840 H828 0.930 . S
C840 C841 1.399 . S
C840 C845 1.399 . S
C841 C840 1.399 . S
C841 C842 1.376 . S
C842 H829 0.930 . S
C842 C841 1.376 . S
C842 C843 1.388 . S
C843 H830 0.930 . S
C843 C842 1.388 . S
C843 C844 1.390 . S
C844 C843 1.390 . S
C844 C845 1.394 . S
C844 C850 1.465 . S
C845 C840 1.399 . S
C845 C844 1.394 . S
C845 C846 1.516 . S
C846 C845 1.516 . S
C846 C847 1.502 . S
C846 C848 1.561 . S
C846 C849 1.526 . S
C847 H831 0.959 . S
C847 H832 0.959 . S
C847 H833 0.961 . S
C847 C846 1.502 . S
C848 H834 0.960 . S
C848 H835 0.961 . S
C848 H836 0.959 . S
C848 C846 1.561 . S
C849 C846 1.526 . S
C849 C850 1.396 . S
C849 C854 1.390 . S
C850 C844 1.465 . S
C850 C849 1.396 . S
C850 C851 1.399 . S
C851 H837 0.929 . S
C851 C850 1.399 . S
C851 C852 1.385 . S
C852 H838 0.931 . S
C852 C851 1.385 . S
C852 C853 1.389 . S
C853 C852 1.389 . S
C853 C854 1.387 . S
C854 H839 0.930 . S
C854 C849 1.390 . S
C854 C853 1.387 . S
H855 C867 0.930 . S
H856 C869 0.930 . S
H857 C870 0.930 . S
H858 C874 0.959 . S
H859 C874 0.959 . S
H860 C874 0.961 . S
H861 C875 0.960 . S
H862 C875 0.961 . S
H863 C875 0.959 . S
H864 C878 0.929 . S
H865 C879 0.931 . S
H866 C881 0.930 . S
C867 H855 0.930 . S
C867 C868 1.399 . S
C867 C872 1.399 . S
C868 C867 1.399 . S
C868 C869 1.376 . S
C869 H856 0.930 . S
C869 C868 1.376 . S
C869 C870 1.388 . S
C870 H857 0.930 . S
C870 C869 1.388 . S
C870 C871 1.390 . S
C871 C870 1.390 . S
C871 C872 1.394 . S
C871 C877 1.465 . S
C872 C867 1.399 . S
C872 C871 1.394 . S
C872 C873 1.516 . S
C873 C872 1.516 . S
C873 C874 1.502 . S
C873 C875 1.561 . S
C873 C876 1.526 . S
C874 H858 0.959 . S
C874 H859 0.959 . S
C874 H860 0.961 . S
C874 C873 1.502 . S
C875 H861 0.960 . S
C875 H862 0.961 . S
C875 H863 0.959 . S
C875 C873 1.561 . S
C876 C873 1.526 . S
C876 C877 1.396 . S
C876 C881 1.390 . S
C877 C871 1.465 . S
C877 C876 1.396 . S
C877 C878 1.399 . S
C878 H864 0.929 . S
C878 C877 1.399 . S
C878 C879 1.385 . S
C879 H865 0.931 . S
C879 C878 1.385 . S
C879 C880 1.389 . S
C880 C879 1.389 . S
C880 C881 1.387 . S
C881 H866 0.930 . S
C881 C876 1.390 . S
C881 C880 1.387 . S
H882 C894 0.930 . S
H883 C896 0.930 . S
H884 C897 0.930 . S
H885 C901 0.959 . S
H886 C901 0.959 . S
H887 C901 0.961 . S
H888 C902 0.960 . S
H889 C902 0.961 . S
H890 C902 0.959 . S
H891 C905 0.929 . S
H892 C906 0.931 . S
H893 C908 0.930 . S
C894 H882 0.930 . S
C894 C895 1.399 . S
C894 C899 1.399 . S
C895 C894 1.399 . S
C895 C896 1.376 . S
C896 H883 0.930 . S
C896 C895 1.376 . S
C896 C897 1.388 . S
C897 H884 0.930 . S
C897 C896 1.388 . S
C897 C898 1.390 . S
C898 C897 1.390 . S
C898 C899 1.394 . S
C898 C904 1.465 . S
C899 C894 1.399 . S
C899 C898 1.394 . S
C899 C900 1.516 . S
C900 C899 1.516 . S
C900 C901 1.502 . S
C900 C902 1.561 . S
C900 C903 1.526 . S
C901 H885 0.959 . S
C901 H886 0.959 . S
C901 H887 0.961 . S
C901 C900 1.502 . S
C902 H888 0.960 . S
C902 H889 0.961 . S
C902 H890 0.959 . S
C902 C900 1.561 . S
C903 C900 1.526 . S
C903 C904 1.396 . S
C903 C908 1.390 . S
C904 C898 1.465 . S
C904 C903 1.396 . S
C904 C905 1.399 . S
C905 H891 0.929 . S
C905 C904 1.399 . S
C905 C906 1.385 . S
C906 H892 0.931 . S
C906 C905 1.385 . S
C906 C907 1.389 . S
C907 C906 1.389 . S
C907 C908 1.387 . S
C908 H893 0.930 . S
C908 C903 1.390 . S
C908 C907 1.387 . S
H909 C921 0.930 . S
H910 C923 0.930 . S
H911 C924 0.930 . S
H912 C928 0.959 . S
H913 C928 0.959 . S
H914 C928 0.961 . S
H915 C929 0.960 . S
H916 C929 0.961 . S
H917 C929 0.959 . S
H918 C932 0.929 . S
H919 C933 0.931 . S
H920 C935 0.930 . S
C921 H909 0.930 . S
C921 C922 1.399 . S
C921 C926 1.399 . S
C922 C921 1.399 . S
C922 C923 1.376 . S
C923 H910 0.930 . S
C923 C922 1.376 . S
C923 C924 1.388 . S
C924 H911 0.930 . S
C924 C923 1.388 . S
C924 C925 1.390 . S
C925 C924 1.390 . S
C925 C926 1.394 . S
C925 C931 1.465 . S
C926 C921 1.399 . S
C926 C925 1.394 . S
C926 C927 1.516 . S
C927 C926 1.516 . S
C927 C928 1.502 . S
C927 C929 1.561 . S
C927 C930 1.526 . S
C928 H912 0.959 . S
C928 H913 0.959 . S
C928 H914 0.961 . S
C928 C927 1.502 . S
C929 H915 0.960 . S
C929 H916 0.961 . S
C929 H917 0.959 . S
C929 C927 1.561 . S
C930 C927 1.526 . S
C930 C931 1.396 . S
C930 C935 1.390 . S
C931 C925 1.465 . S
C931 C930 1.396 . S
C931 C932 1.399 . S
C932 H918 0.929 . S
C932 C931 1.399 . S
C932 C933 1.385 . S
C933 H919 0.931 . S
C933 C932 1.385 . S
C933 C934 1.389 . S
C934 C933 1.389 . S
C934 C935 1.387 . S
C935 H920 0.930 . S
C935 C930 1.390 . S
C935 C934 1.387 . S
H936 C948 0.930 . S
H937 C950 0.930 . S
H938 C951 0.930 . S
H939 C955 0.959 . S
H940 C955 0.959 . S
H941 C955 0.961 . S
H942 C956 0.960 . S
H943 C956 0.961 . S
H944 C956 0.959 . S
H945 C959 0.929 . S
H946 C960 0.931 . S
H947 C962 0.930 . S
C948 H936 0.930 . S
C948 C949 1.399 . S
C948 C953 1.399 . S
C949 C948 1.399 . S
C949 C950 1.376 . S
C950 H937 0.930 . S
C950 C949 1.376 . S
C950 C951 1.388 . S
C951 H938 0.930 . S
C951 C950 1.388 . S
C951 C952 1.390 . S
C952 C951 1.390 . S
C952 C953 1.394 . S
C952 C958 1.465 . S
C953 C948 1.399 . S
C953 C952 1.394 . S
C953 C954 1.516 . S
C954 C953 1.516 . S
C954 C955 1.502 . S
C954 C956 1.561 . S
C954 C957 1.526 . S
C955 H939 0.959 . S
C955 H940 0.959 . S
C955 H941 0.961 . S
C955 C954 1.502 . S
C956 H942 0.960 . S
C956 H943 0.961 . S
C956 H944 0.959 . S
C956 C954 1.561 . S
C957 C954 1.526 . S
C957 C958 1.396 . S
C957 C962 1.390 . S
C958 C952 1.465 . S
C958 C957 1.396 . S
C958 C959 1.399 . S
C959 H945 0.929 . S
C959 C958 1.399 . S
C959 C960 1.385 . S
C960 H946 0.931 . S
C960 C959 1.385 . S
C960 C961 1.389 . S
C961 C960 1.389 . S
C961 C962 1.387 . S
C962 H947 0.930 . S
C962 C957 1.390 . S
C962 C961 1.387 . S
H963 C975 0.930 . S
H964 C977 0.930 . S
H965 C978 0.930 . S
H966 C982 0.959 . S
H967 C982 0.959 . S
H968 C982 0.961 . S
H969 C983 0.960 . S
H970 C983 0.961 . S
H971 C983 0.959 . S
H972 C986 0.929 . S
H973 C987 0.931 . S
H974 C989 0.930 . S
C975 H963 0.930 . S
C975 C976 1.399 . S
C975 C980 1.399 1_545 S
C976 C975 1.399 . S
C976 C977 1.376 . S
C977 H964 0.930 . S
C977 C976 1.376 . S
C977 C978 1.388 1_545 S
C978 H965 0.930 . S
C978 C977 1.388 1_565 S
C978 C979 1.390 . S
C979 C978 1.390 . S
C979 C980 1.394 . S
C979 C985 1.465 . S
C980 C975 1.399 1_565 S
C980 C979 1.394 . S
C980 C981 1.516 . S
C981 C980 1.516 . S
C981 C982 1.502 . S
C981 C983 1.561 . S
C981 C984 1.526 . S
C982 H966 0.959 . S
C982 H967 0.959 . S
C982 H968 0.961 . S
C982 C981 1.502 . S
C983 H969 0.960 . S
C983 H970 0.961 . S
C983 H971 0.959 . S
C983 C981 1.561 . S
C984 C981 1.526 . S
C984 C985 1.396 . S
C984 C989 1.390 . S
C985 C979 1.465 . S
C985 C984 1.396 . S
C985 C986 1.399 . S
C986 H972 0.929 . S
C986 C985 1.399 . S
C986 C987 1.385 . S
C987 H973 0.931 . S
C987 C986 1.385 . S
C987 C988 1.389 . S
C988 C987 1.389 . S
C988 C989 1.387 . S
C989 H974 0.930 . S
C989 C984 1.390 . S
C989 C988 1.387 . S
H990 C1002 0.930 . S
H991 C1004 0.930 . S
H992 C1005 0.930 . S
H993 C1009 0.959 . S
H994 C1009 0.959 . S
H995 C1009 0.961 . S
H996 C1010 0.960 1_655 S
H997 C1010 0.961 . S
H998 C1010 0.959 . S
H999 C1013 0.929 . S
H1000 C1014 0.931 . S
H1001 C1016 0.930 . S
C1002 H990 0.930 . S
C1002 C1003 1.399 . S
C1002 C1007 1.399 1_655 S
C1003 C1002 1.399 . S
C1003 C1004 1.376 . S
C1004 H991 0.930 . S
C1004 C1003 1.376 . S
C1004 C1005 1.388 1_655 S
C1005 H992 0.930 . S
C1005 C1004 1.388 1_455 S
C1005 C1006 1.390 . S
C1006 C1005 1.390 . S
C1006 C1007 1.394 . S
C1006 C1012 1.465 . S
C1007 C1002 1.399 1_455 S
C1007 C1006 1.394 . S
C1007 C1008 1.516 . S
C1008 C1007 1.516 . S
C1008 C1009 1.502 . S
C1008 C1010 1.561 . S
C1008 C1011 1.526 . S
C1009 H993 0.959 . S
C1009 H994 0.959 . S
C1009 H995 0.961 . S
C1009 C1008 1.502 . S
C1010 H996 0.960 1_455 S
C1010 H997 0.961 . S
C1010 H998 0.959 . S
C1010 C1008 1.561 . S
C1011 C1008 1.526 . S
C1011 C1012 1.396 . S
C1011 C1016 1.390 . S
C1012 C1006 1.465 . S
C1012 C1011 1.396 . S
C1012 C1013 1.399 . S
C1013 H999 0.929 . S
C1013 C1012 1.399 . S
C1013 C1014 1.385 . S
C1014 H1000 0.931 . S
C1014 C1013 1.385 . S
C1014 C1015 1.389 . S
C1015 C1014 1.389 . S
C1015 C1016 1.387 . S
C1016 H1001 0.930 . S
C1016 C1011 1.390 . S
C1016 C1015 1.387 . S
H1017 C1029 0.930 . S
H1018 C1031 0.930 . S
H1019 C1032 0.930 . S
H1020 C1036 0.959 . S
H1021 C1036 0.959 . S
H1022 C1036 0.961 . S
H1023 C1037 0.960 . S
H1024 C1037 0.961 . S
H1025 C1037 0.959 . S
H1026 C1040 0.929 . S
H1027 C1041 0.931 . S
H1028 C1043 0.930 . S
C1029 H1017 0.930 . S
C1029 C1030 1.399 . S
C1029 C1034 1.399 . S
C1030 C1029 1.399 . S
C1030 C1031 1.376 . S
C1031 H1018 0.930 . S
C1031 C1030 1.376 . S
C1031 C1032 1.388 . S
C1032 H1019 0.930 . S
C1032 C1031 1.388 . S
C1032 C1033 1.390 . S
C1033 C1032 1.390 . S
C1033 C1034 1.394 . S
C1033 C1039 1.465 . S
C1034 C1029 1.399 . S
C1034 C1033 1.394 . S
C1034 C1035 1.516 . S
C1035 C1034 1.516 . S
C1035 C1036 1.502 . S
C1035 C1037 1.561 . S
C1035 C1038 1.526 . S
C1036 H1020 0.959 . S
C1036 H1021 0.959 . S
C1036 H1022 0.961 . S
C1036 C1035 1.502 . S
C1037 H1023 0.960 . S
C1037 H1024 0.961 . S
C1037 H1025 0.959 . S
C1037 C1035 1.561 . S
C1038 C1035 1.526 . S
C1038 C1039 1.396 . S
C1038 C1043 1.390 . S
C1039 C1033 1.465 . S
C1039 C1038 1.396 . S
C1039 C1040 1.399 . S
C1040 H1026 0.929 . S
C1040 C1039 1.399 . S
C1040 C1041 1.385 . S
C1041 H1027 0.931 . S
C1041 C1040 1.385 . S
C1041 C1042 1.389 . S
C1042 C1041 1.389 . S
C1042 C1043 1.387 . S
C1043 H1028 0.930 . S
C1043 C1038 1.390 . S
C1043 C1042 1.387 . S
H1044 C1056 0.930 . S
H1045 C1058 0.930 . S
H1046 C1059 0.930 . S
H1047 C1063 0.959 . S
H1048 C1063 0.959 . S
H1049 C1063 0.961 . S
H1050 C1064 0.960 . S
H1051 C1064 0.961 . S
H1052 C1064 0.959 . S
H1053 C1067 0.929 . S
H1054 C1068 0.931 . S
H1055 C1070 0.930 . S
C1056 H1044 0.930 . S
C1056 C1057 1.399 . S
C1056 C1061 1.399 . S
C1057 C1056 1.399 . S
C1057 C1058 1.376 . S
C1058 H1045 0.930 . S
C1058 C1057 1.376 . S
C1058 C1059 1.388 . S
C1059 H1046 0.930 . S
C1059 C1058 1.388 . S
C1059 C1060 1.390 . S
C1060 C1059 1.390 . S
C1060 C1061 1.394 . S
C1060 C1066 1.465 . S
C1061 C1056 1.399 . S
C1061 C1060 1.394 . S
C1061 C1062 1.516 . S
C1062 C1061 1.516 . S
C1062 C1063 1.502 . S
C1062 C1064 1.561 . S
C1062 C1065 1.526 . S
C1063 H1047 0.959 . S
C1063 H1048 0.959 . S
C1063 H1049 0.961 . S
C1063 C1062 1.502 . S
C1064 H1050 0.960 . S
C1064 H1051 0.961 . S
C1064 H1052 0.959 . S
C1064 C1062 1.561 . S
C1065 C1062 1.526 . S
C1065 C1066 1.396 . S
C1065 C1070 1.390 . S
C1066 C1060 1.465 . S
C1066 C1065 1.396 . S
C1066 C1067 1.399 . S
C1067 H1053 0.929 . S
C1067 C1066 1.399 . S
C1067 C1068 1.385 . S
C1068 H1054 0.931 . S
C1068 C1067 1.385 . S
C1068 C1069 1.389 . S
C1069 C1068 1.389 . S
C1069 C1070 1.387 . S
C1070 H1055 0.930 . S
C1070 C1065 1.390 . S
C1070 C1069 1.387 . S
H1071 C1083 0.930 . S
H1072 C1085 0.930 . S
H1073 C1086 0.930 . S
H1074 C1090 0.959 . S
H1075 C1090 0.959 . S
H1076 C1090 0.961 . S
H1077 C1091 0.960 . S
H1078 C1091 0.961 . S
H1079 C1091 0.959 . S
H1080 C1094 0.929 . S
H1081 C1095 0.931 . S
H1082 C1097 0.930 . S
C1083 H1071 0.930 . S
C1083 C1084 1.399 . S
C1083 C1088 1.399 . S
C1084 C1083 1.399 . S
C1084 C1085 1.376 . S
C1085 H1072 0.930 . S
C1085 C1084 1.376 . S
C1085 C1086 1.388 . S
C1086 H1073 0.930 . S
C1086 C1085 1.388 . S
C1086 C1087 1.390 . S
C1087 C1086 1.390 . S
C1087 C1088 1.394 . S
C1087 C1093 1.465 . S
C1088 C1083 1.399 . S
C1088 C1087 1.394 . S
C1088 C1089 1.516 . S
C1089 C1088 1.516 . S
C1089 C1090 1.502 . S
C1089 C1091 1.561 . S
C1089 C1092 1.526 . S
C1090 H1074 0.959 . S
C1090 H1075 0.959 . S
C1090 H1076 0.961 . S
C1090 C1089 1.502 . S
C1091 H1077 0.960 . S
C1091 H1078 0.961 . S
C1091 H1079 0.959 . S
C1091 C1089 1.561 . S
C1092 C1089 1.526 . S
C1092 C1093 1.396 . S
C1092 C1097 1.390 . S
C1093 C1087 1.465 . S
C1093 C1092 1.396 . S
C1093 C1094 1.399 . S
C1094 H1080 0.929 . S
C1094 C1093 1.399 . S
C1094 C1095 1.385 . S
C1095 H1081 0.931 . S
C1095 C1094 1.385 . S
C1095 C1096 1.389 . S
C1096 C1095 1.389 . S
C1096 C1097 1.387 . S
C1097 H1082 0.930 . S
C1097 C1092 1.390 . S
C1097 C1096 1.387 . S
H1098 C1110 0.930 . S
H1099 C1112 0.930 . S
H1100 C1113 0.930 . S
H1101 C1117 0.959 . S
H1102 C1117 0.959 . S
H1103 C1117 0.961 . S
H1104 C1118 0.960 . S
H1105 C1118 0.961 . S
H1106 C1118 0.959 . S
H1107 C1121 0.929 . S
H1108 C1122 0.931 . S
H1109 C1124 0.930 . S
C1110 H1098 0.930 . S
C1110 C1111 1.399 . S
C1110 C1115 1.399 . S
C1111 C1110 1.399 . S
C1111 C1112 1.376 . S
C1112 H1099 0.930 . S
C1112 C1111 1.376 . S
C1112 C1113 1.388 . S
C1113 H1100 0.930 . S
C1113 C1112 1.388 . S
C1113 C1114 1.390 . S
C1114 C1113 1.390 . S
C1114 C1115 1.394 . S
C1114 C1120 1.465 . S
C1115 C1110 1.399 . S
C1115 C1114 1.394 . S
C1115 C1116 1.516 . S
C1116 C1115 1.516 . S
C1116 C1117 1.502 . S
C1116 C1118 1.561 . S
C1116 C1119 1.526 . S
C1117 H1101 0.959 . S
C1117 H1102 0.959 . S
C1117 H1103 0.961 . S
C1117 C1116 1.502 . S
C1118 H1104 0.960 . S
C1118 H1105 0.961 . S
C1118 H1106 0.959 . S
C1118 C1116 1.561 . S
C1119 C1116 1.526 . S
C1119 C1120 1.396 . S
C1119 C1124 1.390 . S
C1120 C1114 1.465 . S
C1120 C1119 1.396 . S
C1120 C1121 1.399 . S
C1121 H1107 0.929 . S
C1121 C1120 1.399 . S
C1121 C1122 1.385 . S
C1122 H1108 0.931 . S
C1122 C1121 1.385 . S
C1122 C1123 1.389 . S
C1123 C1122 1.389 . S
C1123 C1124 1.387 . S
C1124 H1109 0.930 . S
C1124 C1119 1.390 . S
C1124 C1123 1.387 . S
H1125 C1137 0.930 . S
H1126 C1139 0.930 . S
H1127 C1140 0.930 . S
H1128 C1144 0.959 . S
H1129 C1144 0.959 1_545 S
H1130 C1144 0.961 . S
H1131 C1145 0.964 . S
H1132 C1145 0.961 . S
H1133 C1145 0.959 . S
H1134 C1148 0.929 . S
H1135 C1149 0.931 . S
H1136 C1151 0.930 . S
C1137 H1125 0.930 . S
C1137 C1138 1.399 . S
C1137 C1142 1.399 . S
C1138 C1137 1.399 . S
C1138 C1139 1.376 . S
C1139 H1126 0.930 . S
C1139 C1138 1.376 . S
C1139 C1140 1.388 . S
C1140 H1127 0.930 . S
C1140 C1139 1.388 . S
C1140 C1141 1.390 . S
C1141 C1140 1.390 . S
C1141 C1142 1.394 . S
C1141 C1147 1.465 1_565 S
C1142 C1137 1.399 . S
C1142 C1141 1.394 . S
C1142 C1143 1.516 1_565 S
C1143 C1142 1.516 1_545 S
C1143 C1144 1.502 1_545 S
C1143 C1145 1.561 . S
C1143 C1146 1.526 . S
C1144 H1128 0.959 . S
C1144 H1129 0.959 1_565 S
C1144 H1130 0.961 . S
C1144 C1143 1.502 1_565 S
C1145 H1131 0.964 . S
C1145 H1132 0.961 . S
C1145 H1133 0.959 . S
C1145 C1143 1.561 . S
C1146 C1143 1.526 . S
C1146 C1147 1.396 . S
C1146 C1151 1.390 . S
C1147 C1141 1.465 1_545 S
C1147 C1146 1.396 . S
C1147 C1148 1.399 . S
C1148 H1134 0.929 . S
C1148 C1147 1.399 . S
C1148 C1149 1.385 . S
C1149 H1135 0.931 . S
C1149 C1148 1.385 . S
C1149 C1150 1.389 . S
C1150 C1149 1.389 . S
C1150 C1151 1.387 . S
C1151 H1136 0.930 . S
C1151 C1146 1.390 . S
C1151 C1150 1.387 . S
H1152 C1164 0.930 . S
H1153 C1166 0.930 . S
H1154 C1167 0.930 . S
H1155 C1171 0.959 . S
H1156 C1171 0.959 . S
H1157 C1171 0.961 . S
H1158 C1172 0.960 . S
H1159 C1172 0.961 . S
H1160 C1172 0.959 . S
H1161 C1175 0.929 . S
H1162 C1176 0.931 . S
H1163 C1178 0.930 . S
C1164 H1152 0.930 . S
C1164 C1165 1.399 . S
C1164 C1169 1.399 . S
C1165 C1164 1.399 . S
C1165 C1166 1.376 . S
C1166 H1153 0.930 . S
C1166 C1165 1.376 . S
C1166 C1167 1.388 . S
C1167 H1154 0.930 . S
C1167 C1166 1.388 . S
C1167 C1168 1.390 . S
C1168 C1167 1.390 . S
C1168 C1169 1.394 . S
C1168 C1174 1.465 1_455 S
C1169 C1164 1.399 . S
C1169 C1168 1.394 . S
C1169 C1170 1.516 . S
C1170 C1169 1.516 . S
C1170 C1171 1.502 . S
C1170 C1172 1.561 . S
C1170 C1173 1.526 1_455 S
C1171 H1155 0.959 . S
C1171 H1156 0.959 . S
C1171 H1157 0.961 . S
C1171 C1170 1.502 . S
C1172 H1158 0.960 . S
C1172 H1159 0.961 . S
C1172 H1160 0.959 . S
C1172 C1170 1.561 . S
C1173 C1170 1.526 1_655 S
C1173 C1174 1.396 . S
C1173 C1178 1.390 . S
C1174 C1168 1.465 1_655 S
C1174 C1173 1.396 . S
C1174 C1175 1.399 . S
C1175 H1161 0.929 . S
C1175 C1174 1.399 . S
C1175 C1176 1.385 . S
C1176 H1162 0.931 . S
C1176 C1175 1.385 . S
C1176 C1177 1.389 . S
C1177 C1176 1.389 . S
C1177 C1178 1.387 . S
C1178 H1163 0.930 . S
C1178 C1173 1.390 . S
C1178 C1177 1.387 . S
H1179 C1191 0.930 . S
H1180 C1193 0.930 . S
H1181 C1194 0.930 . S
H1182 C1198 0.959 . S
H1183 C1198 0.959 . S
H1184 C1198 0.961 . S
H1185 C1199 0.960 . S
H1186 C1199 0.961 . S
H1187 C1199 0.959 . S
H1188 C1202 0.929 . S
H1189 C1203 0.931 . S
H1190 C1205 0.930 . S
C1191 H1179 0.930 . S
C1191 C1192 1.399 . S
C1191 C1196 1.399 . S
C1192 C1191 1.399 . S
C1192 C1193 1.376 . S
C1193 H1180 0.930 . S
C1193 C1192 1.376 . S
C1193 C1194 1.388 . S
C1194 H1181 0.930 . S
C1194 C1193 1.388 . S
C1194 C1195 1.390 . S
C1195 C1194 1.390 . S
C1195 C1196 1.394 . S
C1195 C1201 1.465 . S
C1196 C1191 1.399 . S
C1196 C1195 1.394 . S
C1196 C1197 1.516 . S
C1197 C1196 1.516 . S
C1197 C1198 1.502 . S
C1197 C1199 1.561 . S
C1197 C1200 1.526 . S
C1198 H1182 0.959 . S
C1198 H1183 0.959 . S
C1198 H1184 0.961 . S
C1198 C1197 1.502 . S
C1199 H1185 0.960 . S
C1199 H1186 0.961 . S
C1199 H1187 0.959 . S
C1199 C1197 1.561 . S
C1200 C1197 1.526 . S
C1200 C1201 1.396 . S
C1200 C1205 1.390 . S
C1201 C1195 1.465 . S
C1201 C1200 1.396 . S
C1201 C1202 1.399 . S
C1202 H1188 0.929 . S
C1202 C1201 1.399 . S
C1202 C1203 1.385 . S
C1203 H1189 0.931 . S
C1203 C1202 1.385 . S
C1203 C1204 1.389 . S
C1204 C1203 1.389 . S
C1204 C1205 1.387 . S
C1205 H1190 0.930 . S
C1205 C1200 1.390 . S
C1205 C1204 1.387 . S
H1206 C1218 0.930 . S
H1207 C1220 0.930 . S
H1208 C1221 0.930 . S
H1209 C1225 0.959 . S
H1210 C1225 0.959 . S
H1211 C1225 0.961 . S
H1212 C1226 0.960 . S
H1213 C1226 0.961 . S
H1214 C1226 0.959 . S
H1215 C1229 0.929 . S
H1216 C1230 0.931 . S
H1217 C1232 0.930 . S
C1218 H1206 0.930 . S
C1218 C1219 1.399 . S
C1218 C1223 1.399 1_455 S
C1219 C1218 1.399 . S
C1219 C1220 1.376 . S
C1220 H1207 0.930 . S
C1220 C1219 1.376 . S
C1220 C1221 1.388 . S
C1221 H1208 0.930 . S
C1221 C1220 1.388 . S
C1221 C1222 1.390 1_455 S
C1222 C1221 1.390 1_655 S
C1222 C1223 1.394 . S
C1222 C1228 1.465 . S
C1223 C1218 1.399 1_655 S
C1223 C1222 1.394 . S
C1223 C1224 1.516 . S
C1224 C1223 1.516 . S
C1224 C1225 1.502 . S
C1224 C1226 1.561 . S
C1224 C1227 1.526 . S
C1225 H1209 0.959 . S
C1225 H1210 0.959 . S
C1225 H1211 0.961 . S
C1225 C1224 1.502 . S
C1226 H1212 0.960 . S
C1226 H1213 0.961 . S
C1226 H1214 0.959 . S
C1226 C1224 1.561 . S
C1227 C1224 1.526 . S
C1227 C1228 1.396 . S
C1227 C1232 1.390 . S
C1228 C1222 1.465 . S
C1228 C1227 1.396 . S
C1228 C1229 1.399 . S
C1229 H1215 0.929 . S
C1229 C1228 1.399 . S
C1229 C1230 1.385 . S
C1230 H1216 0.931 . S
C1230 C1229 1.385 . S
C1230 C1231 1.389 . S
C1231 C1230 1.389 . S
C1231 C1232 1.387 . S
C1232 H1217 0.930 . S
C1232 C1227 1.390 . S
C1232 C1231 1.387 . S
H1233 C1245 0.930 . S
H1234 C1247 0.930 . S
H1235 C1248 0.930 . S
H1236 C1252 0.959 . S
H1237 C1252 0.959 . S
H1238 C1252 0.961 . S
H1239 C1253 0.960 . S
H1240 C1253 0.961 . S
H1241 C1253 0.959 . S
H1242 C1256 0.929 . S
H1243 C1257 0.931 . S
H1244 C1259 0.930 . S
C1245 H1233 0.930 . S
C1245 C1246 1.399 . S
C1245 C1250 1.399 . S
C1246 C1245 1.399 . S
C1246 C1247 1.376 . S
C1247 H1234 0.930 . S
C1247 C1246 1.376 . S
C1247 C1248 1.388 . S
C1248 H1235 0.930 . S
C1248 C1247 1.388 . S
C1248 C1249 1.390 . S
C1249 C1248 1.390 . S
C1249 C1250 1.394 . S
C1249 C1255 1.465 . S
C1250 C1245 1.399 . S
C1250 C1249 1.394 . S
C1250 C1251 1.516 . S
C1251 C1250 1.516 . S
C1251 C1252 1.502 . S
C1251 C1253 1.561 . S
C1251 C1254 1.526 . S
C1252 H1236 0.959 . S
C1252 H1237 0.959 . S
C1252 H1238 0.961 . S
C1252 C1251 1.502 . S
C1253 H1239 0.960 . S
C1253 H1240 0.961 . S
C1253 H1241 0.959 . S
C1253 C1251 1.561 . S
C1254 C1251 1.526 . S
C1254 C1255 1.396 . S
C1254 C1259 1.390 . S
C1255 C1249 1.465 . S
C1255 C1254 1.396 . S
C1255 C1256 1.399 . S
C1256 H1242 0.929 . S
C1256 C1255 1.399 . S
C1256 C1257 1.385 . S
C1257 H1243 0.931 . S
C1257 C1256 1.385 . S
C1257 C1258 1.389 . S
C1258 C1257 1.389 . S
C1258 C1259 1.387 . S
C1259 H1244 0.930 . S
C1259 C1254 1.390 . S
C1259 C1258 1.387 . S
H1260 C1272 0.930 . S
H1261 C1274 0.930 . S
H1262 C1275 0.930 . S
H1263 C1279 0.959 . S
H1264 C1279 0.959 . S
H1265 C1279 0.961 . S
H1266 C1280 0.960 . S
H1267 C1280 0.961 . S
H1268 C1280 0.959 . S
H1269 C1283 0.929 . S
H1270 C1284 0.931 . S
H1271 C1286 0.930 . S
C1272 H1260 0.930 . S
C1272 C1273 1.399 . S
C1272 C1277 1.399 1_565 S
C1273 C1272 1.399 . S
C1273 C1274 1.376 . S
C1274 H1261 0.930 . S
C1274 C1273 1.376 . S
C1274 C1275 1.388 1_565 S
C1275 H1262 0.930 . S
C1275 C1274 1.388 1_545 S
C1275 C1276 1.390 . S
C1276 C1275 1.390 . S
C1276 C1277 1.394 . S
C1276 C1282 1.465 . S
C1277 C1272 1.399 1_545 S
C1277 C1276 1.394 . S
C1277 C1278 1.516 . S
C1278 C1277 1.516 . S
C1278 C1279 1.502 . S
C1278 C1280 1.561 . S
C1278 C1281 1.526 . S
C1279 H1263 0.959 . S
C1279 H1264 0.959 . S
C1279 H1265 0.961 . S
C1279 C1278 1.502 . S
C1280 H1266 0.960 . S
C1280 H1267 0.961 . S
C1280 H1268 0.959 . S
C1280 C1278 1.561 . S
C1281 C1278 1.526 . S
C1281 C1282 1.396 . S
C1281 C1286 1.390 . S
C1282 C1276 1.465 . S
C1282 C1281 1.396 . S
C1282 C1283 1.399 . S
C1283 H1269 0.929 . S
C1283 C1282 1.399 . S
C1283 C1284 1.385 . S
C1284 H1270 0.931 . S
C1284 C1283 1.385 . S
C1284 C1285 1.389 . S
C1285 C1284 1.389 . S
C1285 C1286 1.387 . S
C1286 H1271 0.930 . S
C1286 C1281 1.390 . S
C1286 C1285 1.387 . S
H1287 C1299 0.930 . S
H1288 C1301 0.930 . S
H1289 C1302 0.930 . S
H1290 C1306 0.959 . S
H1291 C1306 0.959 . S
H1292 C1306 0.961 . S
H1293 C1307 0.960 . S
H1294 C1307 0.961 . S
H1295 C1307 0.959 . S
H1296 C1310 0.929 . S
H1297 C1311 0.931 . S
H1298 C1313 0.930 . S
C1299 H1287 0.930 . S
C1299 C1300 1.399 . S
C1299 C1304 1.399 . S
C1300 C1299 1.399 . S
C1300 C1301 1.376 . S
C1301 H1288 0.930 . S
C1301 C1300 1.376 . S
C1301 C1302 1.388 . S
C1302 H1289 0.930 . S
C1302 C1301 1.388 . S
C1302 C1303 1.390 . S
C1303 C1302 1.390 . S
C1303 C1304 1.394 . S
C1303 C1309 1.465 . S
C1304 C1299 1.399 . S
C1304 C1303 1.394 . S
C1304 C1305 1.516 . S
C1305 C1304 1.516 . S
C1305 C1306 1.502 . S
C1305 C1307 1.561 . S
C1305 C1308 1.526 . S
C1306 H1290 0.959 . S
C1306 H1291 0.959 . S
C1306 H1292 0.961 . S
C1306 C1305 1.502 . S
C1307 H1293 0.960 . S
C1307 H1294 0.961 . S
C1307 H1295 0.959 . S
C1307 C1305 1.561 . S
C1308 C1305 1.526 . S
C1308 C1309 1.396 . S
C1308 C1313 1.390 . S
C1309 C1303 1.465 . S
C1309 C1308 1.396 . S
C1309 C1310 1.399 . S
C1310 H1296 0.929 . S
C1310 C1309 1.399 . S
C1310 C1311 1.385 . S
C1311 H1297 0.931 . S
C1311 C1310 1.385 . S
C1311 C1312 1.389 . S
C1312 C1311 1.389 . S
C1312 C1313 1.387 . S
C1313 H1298 0.930 . S
C1313 C1308 1.390 . S
C1313 C1312 1.387 . S
H1314 C1326 0.930 . S
H1315 C1328 0.930 . S
H1316 C1329 0.930 . S
H1317 C1333 0.959 . S
H1318 C1333 0.959 . S
H1319 C1333 0.961 . S
H1320 C1334 0.960 . S
H1321 C1334 0.961 . S
H1322 C1334 0.959 . S
H1323 C1337 0.929 . S
H1324 C1338 0.931 . S
H1325 C1340 0.930 . S
C1326 H1314 0.930 . S
C1326 C1327 1.399 . S
C1326 C1331 1.399 . S
C1327 C1326 1.399 . S
C1327 C1328 1.376 . S
C1328 H1315 0.930 . S
C1328 C1327 1.376 . S
C1328 C1329 1.388 . S
C1329 H1316 0.930 . S
C1329 C1328 1.388 . S
C1329 C1330 1.390 . S
C1330 C1329 1.390 . S
C1330 C1331 1.394 . S
C1330 C1336 1.465 . S
C1331 C1326 1.399 . S
C1331 C1330 1.394 . S
C1331 C1332 1.516 . S
C1332 C1331 1.516 . S
C1332 C1333 1.502 . S
C1332 C1334 1.561 . S
C1332 C1335 1.526 . S
C1333 H1317 0.959 . S
C1333 H1318 0.959 . S
C1333 H1319 0.961 . S
C1333 C1332 1.502 . S
C1334 H1320 0.960 . S
C1334 H1321 0.961 . S
C1334 H1322 0.959 . S
C1334 C1332 1.561 . S
C1335 C1332 1.526 . S
C1335 C1336 1.396 . S
C1335 C1340 1.390 . S
C1336 C1330 1.465 . S
C1336 C1335 1.396 . S
C1336 C1337 1.399 . S
C1337 H1323 0.929 . S
C1337 C1336 1.399 . S
C1337 C1338 1.385 . S
C1338 H1324 0.931 . S
C1338 C1337 1.385 . S
C1338 C1339 1.389 . S
C1339 C1338 1.389 . S
C1339 C1340 1.387 . S
C1340 H1325 0.930 . S
C1340 C1335 1.390 . S
C1340 C1339 1.387 . S
H1341 C1353 0.930 . S
H1342 C1355 0.930 . S
H1343 C1356 0.930 . S
H1344 C1360 0.959 . S
H1345 C1360 0.959 . S
H1346 C1360 0.961 . S
H1347 C1361 0.960 . S
H1348 C1361 0.961 . S
H1349 C1361 0.959 . S
H1350 C1364 0.929 . S
H1351 C1365 0.931 . S
H1352 C1367 0.930 . S
C1353 H1341 0.930 . S
C1353 C1354 1.399 . S
C1353 C1358 1.399 . S
C1354 C1353 1.399 . S
C1354 C1355 1.376 . S
C1355 H1342 0.930 . S
C1355 C1354 1.376 . S
C1355 C1356 1.388 . S
C1356 H1343 0.930 . S
C1356 C1355 1.388 . S
C1356 C1357 1.390 . S
C1357 C1356 1.390 . S
C1357 C1358 1.394 . S
C1357 C1363 1.465 . S
C1358 C1353 1.399 . S
C1358 C1357 1.394 . S
C1358 C1359 1.516 . S
C1359 C1358 1.516 . S
C1359 C1360 1.502 . S
C1359 C1361 1.561 . S
C1359 C1362 1.526 . S
C1360 H1344 0.959 . S
C1360 H1345 0.959 . S
C1360 H1346 0.961 . S
C1360 C1359 1.502 . S
C1361 H1347 0.960 . S
C1361 H1348 0.961 . S
C1361 H1349 0.959 . S
C1361 C1359 1.561 . S
C1362 C1359 1.526 . S
C1362 C1363 1.396 . S
C1362 C1367 1.390 . S
C1363 C1357 1.465 . S
C1363 C1362 1.396 . S
C1363 C1364 1.399 . S
C1364 H1350 0.929 . S
C1364 C1363 1.399 . S
C1364 C1365 1.385 . S
C1365 H1351 0.931 . S
C1365 C1364 1.385 . S
C1365 C1366 1.389 . S
C1366 C1365 1.389 . S
C1366 C1367 1.387 . S
C1367 H1352 0.930 . S
C1367 C1362 1.390 . S
C1367 C1366 1.387 . S
H1368 C1380 0.930 . S
H1369 C1382 0.930 . S
H1370 C1383 0.930 . S
H1371 C1387 0.959 . S
H1372 C1387 0.959 1_545 S
H1373 C1387 0.961 . S
H1374 C1388 0.960 . S
H1375 C1388 0.961 . S
H1376 C1388 0.959 . S
H1377 C1391 0.929 . S
H1378 C1392 0.931 . S
H1379 C1394 0.930 1_545 S
C1380 H1368 0.930 . S
C1380 C1381 1.399 . S
C1380 C1385 1.399 . S
C1381 C1380 1.399 . S
C1381 C1382 1.376 . S
C1382 H1369 0.930 . S
C1382 C1381 1.376 . S
C1382 C1383 1.388 . S
C1383 H1370 0.930 . S
C1383 C1382 1.388 . S
C1383 C1384 1.390 . S
C1384 C1383 1.390 . S
C1384 C1385 1.394 . S
C1384 C1390 1.465 . S
C1385 C1380 1.399 . S
C1385 C1384 1.394 . S
C1385 C1386 1.516 . S
C1386 C1385 1.516 . S
C1386 C1387 1.502 . S
C1386 C1388 1.561 1_565 S
C1386 C1389 1.526 . S
C1387 H1371 0.959 . S
C1387 H1372 0.959 1_565 S
C1387 H1373 0.961 . S
C1387 C1386 1.502 . S
C1388 H1374 0.960 . S
C1388 H1375 0.961 . S
C1388 H1376 0.959 . S
C1388 C1386 1.561 1_545 S
C1389 C1386 1.526 . S
C1389 C1390 1.396 . S
C1389 C1394 1.390 . S
C1390 C1384 1.465 . S
C1390 C1389 1.396 . S
C1390 C1391 1.399 . S
C1391 H1377 0.929 . S
C1391 C1390 1.399 . S
C1391 C1392 1.385 . S
C1392 H1378 0.931 . S
C1392 C1391 1.385 . S
C1392 C1393 1.389 . S
C1393 C1392 1.389 . S
C1393 C1394 1.387 . S
C1394 H1379 0.930 1_565 S
C1394 C1389 1.390 . S
C1394 C1393 1.387 . S
H1395 C1407 0.930 . S
H1396 C1409 0.930 . S
H1397 C1410 0.930 . S
H1398 C1414 0.959 . S
H1399 C1414 0.959 . S
H1400 C1414 0.961 . S
H1401 C1415 0.960 . S
H1402 C1415 0.961 . S
H1403 C1415 0.959 . S
H1404 C1418 0.929 . S
H1405 C1419 0.895 1_655 S
H1406 C1421 0.930 . S
C1407 H1395 0.930 . S
C1407 C1408 1.399 . S
C1407 C1412 1.399 . S
C1408 C1407 1.399 . S
C1408 C1409 1.376 . S
C1409 H1396 0.930 . S
C1409 C1408 1.376 . S
C1409 C1410 1.388 . S
C1410 H1397 0.930 . S
C1410 C1409 1.388 . S
C1410 C1411 1.390 . S
C1411 C1410 1.390 . S
C1411 C1412 1.394 . S
C1411 C1417 1.465 . S
C1412 C1407 1.399 . S
C1412 C1411 1.394 . S
C1412 C1413 1.516 . S
C1413 C1412 1.516 . S
C1413 C1414 1.502 . S
C1413 C1415 1.561 . S
C1413 C1416 1.526 . S
C1414 H1398 0.959 . S
C1414 H1399 0.959 . S
C1414 H1400 0.961 . S
C1414 C1413 1.502 . S
C1415 H1401 0.960 . S
C1415 H1402 0.961 . S
C1415 H1403 0.959 . S
C1415 C1413 1.561 . S
C1416 C1413 1.526 . S
C1416 C1417 1.396 . S
C1416 C1421 1.390 . S
C1417 C1411 1.465 . S
C1417 C1416 1.396 . S
C1417 C1418 1.399 . S
C1418 H1404 0.929 . S
C1418 C1417 1.399 . S
C1418 C1419 1.385 . S
C1419 H1405 0.895 1_455 S
C1419 C1418 1.385 . S
C1419 C1420 1.389 . S
C1420 C1419 1.389 . S
C1420 C1421 1.387 . S
C1421 H1406 0.930 . S
C1421 C1416 1.390 . S
C1421 C1420 1.387 . S
H1422 C1434 0.930 . S
H1423 C1436 0.930 . S
H1424 C1437 0.930 . S
H1425 C1441 0.959 . S
H1426 C1441 0.959 . S
H1427 C1441 0.961 . S
H1428 C1442 0.960 . S
H1429 C1442 0.961 . S
H1430 C1442 0.959 . S
H1431 C1445 0.929 . S
H1432 C1446 0.931 . S
H1433 C1448 0.930 . S
C1434 H1422 0.930 . S
C1434 C1435 1.399 . S
C1434 C1439 1.399 . S
C1435 C1434 1.399 . S
C1435 C1436 1.376 . S
C1436 H1423 0.930 . S
C1436 C1435 1.376 . S
C1436 C1437 1.388 . S
C1437 H1424 0.930 . S
C1437 C1436 1.388 . S
C1437 C1438 1.390 . S
C1438 C1437 1.390 . S
C1438 C1439 1.394 . S
C1438 C1444 1.465 . S
C1439 C1434 1.399 . S
C1439 C1438 1.394 . S
C1439 C1440 1.516 . S
C1440 C1439 1.516 . S
C1440 C1441 1.502 . S
C1440 C1442 1.561 . S
C1440 C1443 1.526 . S
C1441 H1425 0.959 . S
C1441 H1426 0.959 . S
C1441 H1427 0.961 . S
C1441 C1440 1.502 . S
C1442 H1428 0.960 . S
C1442 H1429 0.961 . S
C1442 H1430 0.959 . S
C1442 C1440 1.561 . S
C1443 C1440 1.526 . S
C1443 C1444 1.396 . S
C1443 C1448 1.390 . S
C1444 C1438 1.465 . S
C1444 C1443 1.396 . S
C1444 C1445 1.399 . S
C1445 H1431 0.929 . S
C1445 C1444 1.399 . S
C1445 C1446 1.385 . S
C1446 H1432 0.931 . S
C1446 C1445 1.385 . S
C1446 C1447 1.389 . S
C1447 C1446 1.389 . S
C1447 C1448 1.387 . S
C1448 H1433 0.930 . S
C1448 C1443 1.390 . S
C1448 C1447 1.387 . S
H1449 C1461 0.930 . S
H1450 C1463 0.930 . S
H1451 C1464 0.930 . S
H1452 C1468 0.959 . S
H1453 C1468 0.959 . S
H1454 C1468 0.961 . S
H1455 C1469 0.960 . S
H1456 C1469 0.961 1_455 S
H1457 C1469 0.959 . S
H1458 C1472 0.929 . S
H1459 C1473 0.931 . S
H1460 C1475 0.930 1_455 S
C1461 H1449 0.930 . S
C1461 C1462 1.399 . S
C1461 C1466 1.399 . S
C1462 C1461 1.399 . S
C1462 C1463 1.376 . S
C1463 H1450 0.930 . S
C1463 C1462 1.376 . S
C1463 C1464 1.388 . S
C1464 H1451 0.930 . S
C1464 C1463 1.388 . S
C1464 C1465 1.390 . S
C1465 C1464 1.390 . S
C1465 C1466 1.394 . S
C1465 C1471 1.465 . S
C1466 C1461 1.399 . S
C1466 C1465 1.394 . S
C1466 C1467 1.516 . S
C1467 C1466 1.516 . S
C1467 C1468 1.502 1_655 S
C1467 C1469 1.561 . S
C1467 C1470 1.526 . S
C1468 H1452 0.959 . S
C1468 H1453 0.959 . S
C1468 H1454 0.961 . S
C1468 C1467 1.502 1_455 S
C1469 H1455 0.960 . S
C1469 H1456 0.961 1_655 S
C1469 H1457 0.959 . S
C1469 C1467 1.561 . S
C1470 C1467 1.526 . S
C1470 C1471 1.396 . S
C1470 C1475 1.390 . S
C1471 C1465 1.465 . S
C1471 C1470 1.396 . S
C1471 C1472 1.399 . S
C1472 H1458 0.929 . S
C1472 C1471 1.399 . S
C1472 C1473 1.385 . S
C1473 H1459 0.931 . S
C1473 C1472 1.385 . S
C1473 C1474 1.389 . S
C1474 C1473 1.389 . S
C1474 C1475 1.387 . S
C1475 H1460 0.930 1_655 S
C1475 C1470 1.390 . S
C1475 C1474 1.387 . S
H1476 C1488 0.930 . S
H1477 C1490 0.930 . S
H1478 C1491 0.930 . S
H1479 C1495 0.959 . S
H1480 C1495 0.959 . S
H1481 C1495 0.961 . S
H1482 C1496 0.960 . S
H1483 C1496 0.961 . S
H1484 C1496 0.959 . S
H1485 C1499 0.929 . S
H1486 C1500 0.931 . S
H1487 C1502 0.930 . S
C1488 H1476 0.930 . S
C1488 C1489 1.399 . S
C1488 C1493 1.399 . S
C1489 C1488 1.399 . S
C1489 C1490 1.376 . S
C1490 H1477 0.930 . S
C1490 C1489 1.376 . S
C1490 C1491 1.388 . S
C1491 H1478 0.930 . S
C1491 C1490 1.388 . S
C1491 C1492 1.390 . S
C1492 C1491 1.390 . S
C1492 C1493 1.394 . S
C1492 C1498 1.465 . S
C1493 C1488 1.399 . S
C1493 C1492 1.394 . S
C1493 C1494 1.516 . S
C1494 C1493 1.516 . S
C1494 C1495 1.502 . S
C1494 C1496 1.561 . S
C1494 C1497 1.526 . S
C1495 H1479 0.959 . S
C1495 H1480 0.959 . S
C1495 H1481 0.961 . S
C1495 C1494 1.502 . S
C1496 H1482 0.960 . S
C1496 H1483 0.961 . S
C1496 H1484 0.959 . S
C1496 C1494 1.561 . S
C1497 C1494 1.526 . S
C1497 C1498 1.396 . S
C1497 C1502 1.390 . S
C1498 C1492 1.465 . S
C1498 C1497 1.396 . S
C1498 C1499 1.399 . S
C1499 H1485 0.929 . S
C1499 C1498 1.399 . S
C1499 C1500 1.385 . S
C1500 H1486 0.931 . S
C1500 C1499 1.385 . S
C1500 C1501 1.389 . S
C1501 C1500 1.389 . S
C1501 C1502 1.387 . S
C1502 H1487 0.930 . S
C1502 C1497 1.390 . S
C1502 C1501 1.387 . S
H1503 C1515 0.930 . S
H1504 C1517 0.930 . S
H1505 C1518 0.930 . S
H1506 C1522 0.959 . S
H1507 C1522 0.959 . S
H1508 C1522 0.961 . S
H1509 C1523 0.960 . S
H1510 C1523 0.961 . S
H1511 C1523 0.959 . S
H1512 C1526 0.929 . S
H1513 C1527 0.931 . S
H1514 C1529 0.973 . S
C1515 H1503 0.930 . S
C1515 C1516 1.399 . S
C1515 C1520 1.399 . S
C1516 C1515 1.399 . S
C1516 C1517 1.376 . S
C1517 H1504 0.930 . S
C1517 C1516 1.376 . S
C1517 C1518 1.388 . S
C1518 H1505 0.930 . S
C1518 C1517 1.388 . S
C1518 C1519 1.390 . S
C1519 C1518 1.390 . S
C1519 C1520 1.394 . S
C1519 C1525 1.465 . S
C1520 C1515 1.399 . S
C1520 C1519 1.394 . S
C1520 C1521 1.516 . S
C1521 C1520 1.516 . S
C1521 C1522 1.502 1_545 S
C1521 C1523 1.561 . S
C1521 C1524 1.526 . S
C1522 H1506 0.959 . S
C1522 H1507 0.959 . S
C1522 H1508 0.961 . S
C1522 C1521 1.502 1_565 S
C1523 H1509 0.960 . S
C1523 H1510 0.961 . S
C1523 H1511 0.959 . S
C1523 C1521 1.561 . S
C1524 C1521 1.526 . S
C1524 C1525 1.396 . S
C1524 C1529 1.390 . S
C1525 C1519 1.465 . S
C1525 C1524 1.396 . S
C1525 C1526 1.399 . S
C1526 H1512 0.929 . S
C1526 C1525 1.399 . S
C1526 C1527 1.385 . S
C1527 H1513 0.931 . S
C1527 C1526 1.385 . S
C1527 C1528 1.389 . S
C1528 C1527 1.389 . S
C1528 C1529 1.387 . S
C1529 H1514 0.973 . S
C1529 C1524 1.390 . S
C1529 C1528 1.387 . S
H1530 C1542 0.930 . S
H1531 C1544 0.930 . S
H1532 C1545 0.930 . S
H1533 C1549 0.959 . S
H1534 C1549 0.959 . S
H1535 C1549 0.961 . S
H1536 C1550 0.960 . S
H1537 C1550 0.961 . S
H1538 C1550 0.959 . S
H1539 C1553 0.929 . S
H1540 C1554 0.931 . S
H1541 C1556 0.930 . S
C1542 H1530 0.930 . S
C1542 C1543 1.399 . S
C1542 C1547 1.399 . S
C1543 C1542 1.399 . S
C1543 C1544 1.376 . S
C1544 H1531 0.930 . S
C1544 C1543 1.376 . S
C1544 C1545 1.388 . S
C1545 H1532 0.930 . S
C1545 C1544 1.388 . S
C1545 C1546 1.390 . S
C1546 C1545 1.390 . S
C1546 C1547 1.394 . S
C1546 C1552 1.465 . S
C1547 C1542 1.399 . S
C1547 C1546 1.394 . S
C1547 C1548 1.516 . S
C1548 C1547 1.516 . S
C1548 C1549 1.502 . S
C1548 C1550 1.561 . S
C1548 C1551 1.526 . S
C1549 H1533 0.959 . S
C1549 H1534 0.959 . S
C1549 H1535 0.961 . S
C1549 C1548 1.502 . S
C1550 H1536 0.960 . S
C1550 H1537 0.961 . S
C1550 H1538 0.959 . S
C1550 C1548 1.561 . S
C1551 C1548 1.526 . S
C1551 C1552 1.396 . S
C1551 C1556 1.390 . S
C1552 C1546 1.465 . S
C1552 C1551 1.396 . S
C1552 C1553 1.399 . S
C1553 H1539 0.929 . S
C1553 C1552 1.399 . S
C1553 C1554 1.385 . S
C1554 H1540 0.931 . S
C1554 C1553 1.385 . S
C1554 C1555 1.389 . S
C1555 C1554 1.389 . S
C1555 C1556 1.387 . S
C1556 H1541 0.930 . S
C1556 C1551 1.390 . S
C1556 C1555 1.387 . S
H1557 C1569 0.930 . S
H1558 C1571 0.930 . S
H1559 C1572 0.930 . S
H1560 C1576 0.959 . S
H1561 C1576 0.959 . S
H1562 C1576 0.961 . S
H1563 C1577 0.960 . S
H1564 C1577 0.961 . S
H1565 C1577 0.959 . S
H1566 C1580 0.929 . S
H1567 C1581 0.931 . S
H1568 C1583 0.930 . S
C1569 H1557 0.930 . S
C1569 C1570 1.399 . S
C1569 C1574 1.399 . S
C1570 C1569 1.399 . S
C1570 C1571 1.376 . S
C1571 H1558 0.930 . S
C1571 C1570 1.376 . S
C1571 C1572 1.388 . S
C1572 H1559 0.930 . S
C1572 C1571 1.388 . S
C1572 C1573 1.390 . S
C1573 C1572 1.390 . S
C1573 C1574 1.394 . S
C1573 C1579 1.465 . S
C1574 C1569 1.399 . S
C1574 C1573 1.394 . S
C1574 C1575 1.516 . S
C1575 C1574 1.516 . S
C1575 C1576 1.502 . S
C1575 C1577 1.561 . S
C1575 C1578 1.526 . S
C1576 H1560 0.959 . S
C1576 H1561 0.959 . S
C1576 H1562 0.961 . S
C1576 C1575 1.502 . S
C1577 H1563 0.960 . S
C1577 H1564 0.961 . S
C1577 H1565 0.959 . S
C1577 C1575 1.561 . S
C1578 C1575 1.526 . S
C1578 C1579 1.396 . S
C1578 C1583 1.390 . S
C1579 C1573 1.465 . S
C1579 C1578 1.396 . S
C1579 C1580 1.399 . S
C1580 H1566 0.929 . S
C1580 C1579 1.399 . S
C1580 C1581 1.385 . S
C1581 H1567 0.931 . S
C1581 C1580 1.385 . S
C1581 C1582 1.389 . S
C1582 C1581 1.389 . S
C1582 C1583 1.387 . S
C1583 H1568 0.930 . S
C1583 C1578 1.390 . S
C1583 C1582 1.387 . S
H1584 C1596 0.930 . S
H1585 C1598 0.930 . S
H1586 C1599 0.930 . S
H1587 C1603 0.959 . S
H1588 C1603 0.959 . S
H1589 C1603 0.961 . S
H1590 C1604 0.960 . S
H1591 C1604 0.961 . S
H1592 C1604 0.959 . S
H1593 C1607 0.929 . S
H1594 C1608 0.931 . S
H1595 C1610 0.930 . S
C1596 H1584 0.930 . S
C1596 C1597 1.399 . S
C1596 C1601 1.399 . S
C1597 C1596 1.399 . S
C1597 C1598 1.376 . S
C1598 H1585 0.930 . S
C1598 C1597 1.376 . S
C1598 C1599 1.388 . S
C1599 H1586 0.930 . S
C1599 C1598 1.388 . S
C1599 C1600 1.390 . S
C1600 C1599 1.390 . S
C1600 C1601 1.394 . S
C1600 C1606 1.465 . S
C1601 C1596 1.399 . S
C1601 C1600 1.394 . S
C1601 C1602 1.516 . S
C1602 C1601 1.516 . S
C1602 C1603 1.502 . S
C1602 C1604 1.561 . S
C1602 C1605 1.526 . S
C1603 H1587 0.959 . S
C1603 H1588 0.959 . S
C1603 H1589 0.961 . S
C1603 C1602 1.502 . S
C1604 H1590 0.960 . S
C1604 H1591 0.961 . S
C1604 H1592 0.959 . S
C1604 C1602 1.561 . S
C1605 C1602 1.526 . S
C1605 C1606 1.396 . S
C1605 C1610 1.390 . S
C1606 C1600 1.465 . S
C1606 C1605 1.396 . S
C1606 C1607 1.399 . S
C1607 H1593 0.929 . S
C1607 C1606 1.399 . S
C1607 C1608 1.385 . S
C1608 H1594 0.931 . S
C1608 C1607 1.385 . S
C1608 C1609 1.389 . S
C1609 C1608 1.389 . S
C1609 C1610 1.387 . S
C1610 H1595 0.930 . S
C1610 C1605 1.390 . S
C1610 C1609 1.387 . S
H1611 C1623 0.930 . S
H1612 C1625 0.930 . S
H1613 C1626 0.930 . S
H1614 C1630 0.959 . S
H1615 C1630 0.959 . S
H1616 C1630 0.961 . S
H1617 C1631 0.960 . S
H1618 C1631 0.961 . S
H1619 C1631 0.959 . S
H1620 C1634 0.929 . S
H1621 C1635 0.931 . S
H1622 C1637 0.930 . S
C1623 H1611 0.930 . S
C1623 C1624 1.399 . S
C1623 C1628 1.399 . S
C1624 C1623 1.399 . S
C1624 C1625 1.376 . S
C1625 H1612 0.930 . S
C1625 C1624 1.376 . S
C1625 C1626 1.388 . S
C1626 H1613 0.930 . S
C1626 C1625 1.388 . S
C1626 C1627 1.390 . S
C1627 C1626 1.390 . S
C1627 C1628 1.394 . S
C1627 C1633 1.465 . S
C1628 C1623 1.399 . S
C1628 C1627 1.394 . S
C1628 C1629 1.516 . S
C1629 C1628 1.516 . S
C1629 C1630 1.502 . S
C1629 C1631 1.561 . S
C1629 C1632 1.526 . S
C1630 H1614 0.959 . S
C1630 H1615 0.959 . S
C1630 H1616 0.961 . S
C1630 C1629 1.502 . S
C1631 H1617 0.960 . S
C1631 H1618 0.961 . S
C1631 H1619 0.959 . S
C1631 C1629 1.561 . S
C1632 C1629 1.526 . S
C1632 C1633 1.396 . S
C1632 C1637 1.390 . S
C1633 C1627 1.465 . S
C1633 C1632 1.396 . S
C1633 C1634 1.399 . S
C1634 H1620 0.929 . S
C1634 C1633 1.399 . S
C1634 C1635 1.385 . S
C1635 H1621 0.931 . S
C1635 C1634 1.385 . S
C1635 C1636 1.389 . S
C1636 C1635 1.389 . S
C1636 C1637 1.387 . S
C1637 H1622 0.930 . S
C1637 C1632 1.390 . S
C1637 C1636 1.387 . S
H1638 C1650 0.930 . S
H1639 C1652 0.930 . S
H1640 C1653 0.930 . S
H1641 C1657 0.959 . S
H1642 C1657 0.959 . S
H1643 C1657 0.961 . S
H1644 C1658 0.960 . S
H1645 C1658 0.961 . S
H1646 C1658 0.959 . S
H1647 C1661 0.929 . S
H1648 C1662 0.931 . S
H1649 C1664 0.930 . S
C1650 H1638 0.930 . S
C1650 C1651 1.399 . S
C1650 C1655 1.399 . S
C1651 C1650 1.399 . S
C1651 C1652 1.376 . S
C1652 H1639 0.930 . S
C1652 C1651 1.376 . S
C1652 C1653 1.388 . S
C1653 H1640 0.930 . S
C1653 C1652 1.388 . S
C1653 C1654 1.390 . S
C1654 C1653 1.390 . S
C1654 C1655 1.394 . S
C1654 C1660 1.465 . S
C1655 C1650 1.399 . S
C1655 C1654 1.394 . S
C1655 C1656 1.516 . S
C1656 C1655 1.516 . S
C1656 C1657 1.502 . S
C1656 C1658 1.561 . S
C1656 C1659 1.526 . S
C1657 H1641 0.959 . S
C1657 H1642 0.959 . S
C1657 H1643 0.961 . S
C1657 C1656 1.502 . S
C1658 H1644 0.960 . S
C1658 H1645 0.961 . S
C1658 H1646 0.959 . S
C1658 C1656 1.561 . S
C1659 C1656 1.526 . S
C1659 C1660 1.396 . S
C1659 C1664 1.390 . S
C1660 C1654 1.465 . S
C1660 C1659 1.396 . S
C1660 C1661 1.399 . S
C1661 H1647 0.929 . S
C1661 C1660 1.399 . S
C1661 C1662 1.385 . S
C1662 H1648 0.931 . S
C1662 C1661 1.385 . S
C1662 C1663 1.389 . S
C1663 C1662 1.389 . S
C1663 C1664 1.387 . S
C1664 H1649 0.930 . S
C1664 C1659 1.390 . S
C1664 C1663 1.387 . S
H1665 C1677 0.930 . S
H1666 C1679 0.930 . S
H1667 C1680 0.930 . S
H1668 C1684 0.959 . S
H1669 C1684 0.959 . S
H1670 C1684 0.961 . S
H1671 C1685 0.960 . S
H1672 C1685 0.961 . S
H1673 C1685 0.959 . S
H1674 C1688 0.929 . S
H1675 C1689 0.931 . S
H1676 C1691 0.930 . S
C1677 H1665 0.930 . S
C1677 C1678 1.399 . S
C1677 C1682 1.399 . S
C1678 C1677 1.399 . S
C1678 C1679 1.376 . S
C1679 H1666 0.930 . S
C1679 C1678 1.376 . S
C1679 C1680 1.388 . S
C1680 H1667 0.930 . S
C1680 C1679 1.388 . S
C1680 C1681 1.390 . S
C1681 C1680 1.390 . S
C1681 C1682 1.394 . S
C1681 C1687 1.465 . S
C1682 C1677 1.399 . S
C1682 C1681 1.394 . S
C1682 C1683 1.516 . S
C1683 C1682 1.516 . S
C1683 C1684 1.502 . S
C1683 C1685 1.561 . S
C1683 C1686 1.526 . S
C1684 H1668 0.959 . S
C1684 H1669 0.959 . S
C1684 H1670 0.961 . S
C1684 C1683 1.502 . S
C1685 H1671 0.960 . S
C1685 H1672 0.961 . S
C1685 H1673 0.959 . S
C1685 C1683 1.561 . S
C1686 C1683 1.526 . S
C1686 C1687 1.396 . S
C1686 C1691 1.390 . S
C1687 C1681 1.465 . S
C1687 C1686 1.396 . S
C1687 C1688 1.399 . S
C1688 H1674 0.929 . S
C1688 C1687 1.399 . S
C1688 C1689 1.385 . S
C1689 H1675 0.931 . S
C1689 C1688 1.385 . S
C1689 C1690 1.389 . S
C1690 C1689 1.389 . S
C1690 C1691 1.387 . S
C1691 H1676 0.930 . S
C1691 C1686 1.390 . S
C1691 C1690 1.387 . S
H1692 C1704 0.930 . S
H1693 C1706 0.930 . S
H1694 C1707 0.930 . S
H1695 C1711 0.959 . S
H1696 C1711 0.959 . S
H1697 C1711 0.961 . S
H1698 C1712 0.960 . S
H1699 C1712 0.961 . S
H1700 C1712 0.959 . S
H1701 C1715 0.929 . S
H1702 C1716 0.931 . S
H1703 C1718 0.930 . S
C1704 H1692 0.930 . S
C1704 C1705 1.399 . S
C1704 C1709 1.399 . S
C1705 C1704 1.399 . S
C1705 C1706 1.376 . S
C1706 H1693 0.930 . S
C1706 C1705 1.376 . S
C1706 C1707 1.388 . S
C1707 H1694 0.930 . S
C1707 C1706 1.388 . S
C1707 C1708 1.390 . S
C1708 C1707 1.390 . S
C1708 C1709 1.394 . S
C1708 C1714 1.465 . S
C1709 C1704 1.399 . S
C1709 C1708 1.394 . S
C1709 C1710 1.516 . S
C1710 C1709 1.516 . S
C1710 C1711 1.502 . S
C1710 C1712 1.561 . S
C1710 C1713 1.526 . S
C1711 H1695 0.959 . S
C1711 H1696 0.959 . S
C1711 H1697 0.961 . S
C1711 C1710 1.502 . S
C1712 H1698 0.960 . S
C1712 H1699 0.961 . S
C1712 H1700 0.959 . S
C1712 C1710 1.561 . S
C1713 C1710 1.526 . S
C1713 C1714 1.396 . S
C1713 C1718 1.390 . S
C1714 C1708 1.465 . S
C1714 C1713 1.396 . S
C1714 C1715 1.399 . S
C1715 H1701 0.929 . S
C1715 C1714 1.399 . S
C1715 C1716 1.385 . S
C1716 H1702 0.931 . S
C1716 C1715 1.385 . S
C1716 C1717 1.389 . S
C1717 C1716 1.389 . S
C1717 C1718 1.387 . S
C1718 H1703 0.930 . S
C1718 C1713 1.390 . S
C1718 C1717 1.387 . S
H1719 C1731 0.930 . S
H1720 C1733 0.930 . S
H1721 C1734 0.930 . S
H1722 C1738 0.959 . S
H1723 C1738 0.959 . S
H1724 C1738 0.961 . S
H1725 C1739 0.960 . S
H1726 C1739 0.961 . S
H1727 C1739 0.959 . S
H1728 C1742 0.929 . S
H1729 C1743 0.931 . S
H1730 C1745 0.930 . S
C1731 H1719 0.930 . S
C1731 C1732 1.399 . S
C1731 C1736 1.399 . S
C1732 C1731 1.399 . S
C1732 C1733 1.376 . S
C1733 H1720 0.930 . S
C1733 C1732 1.376 . S
C1733 C1734 1.388 . S
C1734 H1721 0.930 . S
C1734 C1733 1.388 . S
C1734 C1735 1.390 . S
C1735 C1734 1.390 . S
C1735 C1736 1.394 . S
C1735 C1741 1.465 . S
C1736 C1731 1.399 . S
C1736 C1735 1.394 . S
C1736 C1737 1.516 . S
C1737 C1736 1.516 . S
C1737 C1738 1.502 . S
C1737 C1739 1.561 . S
C1737 C1740 1.526 . S
C1738 H1722 0.959 . S
C1738 H1723 0.959 . S
C1738 H1724 0.961 . S
C1738 C1737 1.502 . S
C1739 H1725 0.960 . S
C1739 H1726 0.961 . S
C1739 H1727 0.959 . S
C1739 C1737 1.561 . S
C1740 C1737 1.526 . S
C1740 C1741 1.396 . S
C1740 C1745 1.390 . S
C1741 C1735 1.465 . S
C1741 C1740 1.396 . S
C1741 C1742 1.399 . S
C1742 H1728 0.929 . S
C1742 C1741 1.399 . S
C1742 C1743 1.385 . S
C1743 H1729 0.931 . S
C1743 C1742 1.385 . S
C1743 C1744 1.389 . S
C1744 C1743 1.389 . S
C1744 C1745 1.387 . S
C1745 H1730 0.930 . S
C1745 C1740 1.390 . S
C1745 C1744 1.387 . S
H1746 C1758 0.930 . S
H1747 C1760 0.930 . S
H1748 C1761 0.930 . S
H1749 C1765 0.959 . S
H1750 C1765 0.959 . S
H1751 C1765 0.961 . S
H1752 C1766 0.960 . S
H1753 C1766 0.961 . S
H1754 C1766 0.959 . S
H1755 C1769 0.929 . S
H1756 C1770 0.931 . S
H1757 C1772 0.930 . S
C1758 H1746 0.930 . S
C1758 C1759 1.399 . S
C1758 C1763 1.399 . S
C1759 C1758 1.399 . S
C1759 C1760 1.376 . S
C1760 H1747 0.930 . S
C1760 C1759 1.376 . S
C1760 C1761 1.388 . S
C1761 H1748 0.930 . S
C1761 C1760 1.388 . S
C1761 C1762 1.390 . S
C1762 C1761 1.390 . S
C1762 C1763 1.394 . S
C1762 C1768 1.465 . S
C1763 C1758 1.399 . S
C1763 C1762 1.394 . S
C1763 C1764 1.516 . S
C1764 C1763 1.516 . S
C1764 C1765 1.502 . S
C1764 C1766 1.561 . S
C1764 C1767 1.526 . S
C1765 H1749 0.959 . S
C1765 H1750 0.959 . S
C1765 H1751 0.961 . S
C1765 C1764 1.502 . S
C1766 H1752 0.960 . S
C1766 H1753 0.961 . S
C1766 H1754 0.959 . S
C1766 C1764 1.561 . S
C1767 C1764 1.526 . S
C1767 C1768 1.396 . S
C1767 C1772 1.390 . S
C1768 C1762 1.465 . S
C1768 C1767 1.396 . S
C1768 C1769 1.399 . S
C1769 H1755 0.929 . S
C1769 C1768 1.399 . S
C1769 C1770 1.385 . S
C1770 H1756 0.931 . S
C1770 C1769 1.385 . S
C1770 C1771 1.389 . S
C1771 C1770 1.389 . S
C1771 C1772 1.387 . S
C1772 H1757 0.930 . S
C1772 C1767 1.390 . S
C1772 C1771 1.387 . S
H1773 C1785 0.930 . S
H1774 C1787 0.930 . S
H1775 C1788 0.930 . S
H1776 C1792 0.959 . S
H1777 C1792 0.959 . S
H1778 C1792 0.961 . S
H1779 C1793 0.960 . S
H1780 C1793 0.961 . S
H1781 C1793 0.959 . S
H1782 C1796 0.929 . S
H1783 C1797 0.931 . S
H1784 C1799 0.930 . S
C1785 H1773 0.930 . S
C1785 C1786 1.399 . S
C1785 C1790 1.399 . S
C1786 C1785 1.399 . S
C1786 C1787 1.376 . S
C1787 H1774 0.930 . S
C1787 C1786 1.376 . S
C1787 C1788 1.388 . S
C1788 H1775 0.930 . S
C1788 C1787 1.388 . S
C1788 C1789 1.390 . S
C1789 C1788 1.390 . S
C1789 C1790 1.394 . S
C1789 C1795 1.465 . S
C1790 C1785 1.399 . S
C1790 C1789 1.394 . S
C1790 C1791 1.516 . S
C1791 C1790 1.516 . S
C1791 C1792 1.502 . S
C1791 C1793 1.561 . S
C1791 C1794 1.526 . S
C1792 H1776 0.959 . S
C1792 H1777 0.959 . S
C1792 H1778 0.961 . S
C1792 C1791 1.502 . S
C1793 H1779 0.960 . S
C1793 H1780 0.961 . S
C1793 H1781 0.959 . S
C1793 C1791 1.561 . S
C1794 C1791 1.526 . S
C1794 C1795 1.396 . S
C1794 C1799 1.390 . S
C1795 C1789 1.465 . S
C1795 C1794 1.396 . S
C1795 C1796 1.399 . S
C1796 H1782 0.929 . S
C1796 C1795 1.399 . S
C1796 C1797 1.385 . S
C1797 H1783 0.931 . S
C1797 C1796 1.385 . S
C1797 C1798 1.389 . S
C1798 C1797 1.389 . S
C1798 C1799 1.387 . S
C1799 H1784 0.930 . S
C1799 C1794 1.390 . S
C1799 C1798 1.387 . S
H1800 C1812 0.930 . S
H1801 C1814 0.930 . S
H1802 C1815 0.930 . S
H1803 C1819 0.959 . S
H1804 C1819 0.959 . S
H1805 C1819 0.961 . S
H1806 C1820 0.960 . S
H1807 C1820 0.961 . S
H1808 C1820 0.959 . S
H1809 C1823 0.929 . S
H1810 C1824 0.931 . S
H1811 C1826 0.930 . S
C1812 H1800 0.930 . S
C1812 C1813 1.399 . S
C1812 C1817 1.399 . S
C1813 C1812 1.399 . S
C1813 C1814 1.376 . S
C1814 H1801 0.930 . S
C1814 C1813 1.376 . S
C1814 C1815 1.388 . S
C1815 H1802 0.930 . S
C1815 C1814 1.388 . S
C1815 C1816 1.390 . S
C1816 C1815 1.390 . S
C1816 C1817 1.394 . S
C1816 C1822 1.465 . S
C1817 C1812 1.399 . S
C1817 C1816 1.394 . S
C1817 C1818 1.516 . S
C1818 C1817 1.516 . S
C1818 C1819 1.502 . S
C1818 C1820 1.561 . S
C1818 C1821 1.526 . S
C1819 H1803 0.959 . S
C1819 H1804 0.959 . S
C1819 H1805 0.961 . S
C1819 C1818 1.502 . S
C1820 H1806 0.960 . S
C1820 H1807 0.961 . S
C1820 H1808 0.959 . S
C1820 C1818 1.561 . S
C1821 C1818 1.526 . S
C1821 C1822 1.396 . S
C1821 C1826 1.390 . S
C1822 C1816 1.465 . S
C1822 C1821 1.396 . S
C1822 C1823 1.399 . S
C1823 H1809 0.929 . S
C1823 C1822 1.399 . S
C1823 C1824 1.385 . S
C1824 H1810 0.931 . S
C1824 C1823 1.385 . S
C1824 C1825 1.389 . S
C1825 C1824 1.389 . S
C1825 C1826 1.387 . S
C1826 H1811 0.930 . S
C1826 C1821 1.390 . S
C1826 C1825 1.387 . S
H1827 C1839 0.930 . S
H1828 C1841 0.930 . S
H1829 C1842 0.930 . S
H1830 C1846 0.959 . S
H1831 C1846 0.959 . S
H1832 C1846 0.961 . S
H1833 C1847 0.960 . S
H1834 C1847 0.961 . S
H1835 C1847 0.959 . S
H1836 C1850 0.929 . S
H1837 C1851 0.931 . S
H1838 C1853 0.930 . S
C1839 H1827 0.930 . S
C1839 C1840 1.399 . S
C1839 C1844 1.399 . S
C1840 C1839 1.399 . S
C1840 C1841 1.376 . S
C1841 H1828 0.930 . S
C1841 C1840 1.376 . S
C1841 C1842 1.388 . S
C1842 H1829 0.930 . S
C1842 C1841 1.388 . S
C1842 C1843 1.390 . S
C1843 C1842 1.390 . S
C1843 C1844 1.394 . S
C1843 C1849 1.465 . S
C1844 C1839 1.399 . S
C1844 C1843 1.394 . S
C1844 C1845 1.516 . S
C1845 C1844 1.516 . S
C1845 C1846 1.502 . S
C1845 C1847 1.561 . S
C1845 C1848 1.526 . S
C1846 H1830 0.959 . S
C1846 H1831 0.959 . S
C1846 H1832 0.961 . S
C1846 C1845 1.502 . S
C1847 H1833 0.960 . S
C1847 H1834 0.961 . S
C1847 H1835 0.959 . S
C1847 C1845 1.561 . S
C1848 C1845 1.526 . S
C1848 C1849 1.396 . S
C1848 C1853 1.390 . S
C1849 C1843 1.465 . S
C1849 C1848 1.396 . S
C1849 C1850 1.399 . S
C1850 H1836 0.929 . S
C1850 C1849 1.399 . S
C1850 C1851 1.385 . S
C1851 H1837 0.931 . S
C1851 C1850 1.385 . S
C1851 C1852 1.389 . S
C1852 C1851 1.389 . S
C1852 C1853 1.387 . S
C1853 H1838 0.930 . S
C1853 C1848 1.390 . S
C1853 C1852 1.387 . S
C409 C162 1.557 . S
C421 C222 1.515 . S
C436 C174 1.519 . S
C448 C242 1.462 . S
C463 C150 1.489 . S
C475 C265 1.522 . S
C490 C138 1.434 . S
C502 C245 1.410 1_556 S
C529 C262 1.409 . S
C517 C114 1.442 . S
C544 C126 1.451 . S
C556 C225 1.474 1_556 S
C583 C232 1.510 . S
C571 C136 1.580 . S
C610 C252 1.394 . S
C598 C112 1.462 . S
C625 C124 1.508 . S
C637 C257 1.578 1_556 S
C652 C160 1.421 . S
C664 C237 1.479 . S
C679 C172 1.436 . S
C691 C272 1.404 . S
C718 C217 1.552 . S
C706 C148 1.495 . S
C745 C282 1.554 . S
C733 C18 1.545 . S
C760 C30 1.521 . S
C772 C302 1.461 . S
C787 C6 1.519 . S
C799 C325 1.501 . S
C814 C210 1.433 . S
C826 C305 1.410 . S
C841 C186 1.443 . S
C853 C322 1.406 . S
C868 C198 1.472 . S
C880 C285 1.457 . S
C895 C208 1.579 . S
C907 C292 1.522 . S
C922 C184 1.416 . S
C934 C312 1.454 . S
C961 C317 1.532 . S
C949 C196 1.555 . S
C976 C16 1.410 . S
C988 C297 1.478 . S
C1015 C332 1.437 . S
C1003 C28 1.439 . S
C1030 C4 1.549 . S
C1042 C277 1.517 . S
C1069 C342 1.553 . S
C1057 C90 1.545 . S
C1084 C102 1.517 . S
C1096 C362 1.466 . S
C1123 C385 1.501 . S
C1111 C78 1.519 . S
C1150 C365 1.409 . S
C1138 C66 1.434 . S
C1177 C382 1.447 . S
C1165 C42 1.442 . S
C1192 C54 1.471 . S
C1204 C345 1.451 . S
C1219 C64 1.578 . S
C1231 C352 1.507 . S
C1246 C40 1.417 . S
C1258 C372 1.461 . S
C1285 C377 1.578 . S
C1273 C52 1.506 . S
C1300 C88 1.469 . S
C1312 C357 1.449 . S
C1327 C100 1.417 . S
C1339 C392 1.439 . S
C1354 C76 1.512 . S
C1366 C337 1.558 . S
C1381 C189 1.366 . S
C1393 C235 1.324 . S
C1420 C255 1.591 . S
C1408 C201 1.725 . S
C1435 C213 1.528 . S
C1447 C264 1.459 . S
C1462 C81 1.668 . S
C1474 C244 1.657 . S
C1489 C93 1.574 . S
C1501 C275 1.530 . S
C1528 C224 1.334 . S
C1516 C105 1.325 . S
C1543 C45 1.350 . S
C1555 C295 1.311 . S
C1570 C57 1.704 . S
C1582 C315 1.660 . S
C1597 C69 1.509 . S
C1609 C324 1.513 . S
C1624 C153 1.663 . S
C1636 C304 1.650 . S
C1663 C335 1.475 . S
C1651 C165 1.591 . S
C1678 C177 1.353 . S
C1690 C284 1.319 . S
C1705 C117 1.351 . S
C1717 C355 1.304 . S
C1732 C129 1.711 . S
C1744 C375 1.662 . S
C1771 C384 1.462 . S
C1759 C141 1.530 . S
C1786 C9 1.689 . S
C1798 C364 1.605 . S
C1813 C21 1.575 . S
C1825 C395 1.525 . S
C1840 C33 1.348 . S
C1852 C344 1.343 . S
