# Generated by pormake.
# Topology apo, (3,6)-cn, num edge types: 1
# Building blocks:
#     Node 0, Type 0, BuildingBlock: KAKCAD_clean_linker_0, # of connection points: 3
#     Node 1, Type 0, BuildingBlock: KAKCAD_clean_linker_0, # of connection points: 3
#     Node 2, Type 0, BuildingBlock: KAKCAD_clean_linker_0, # of connection points: 3
#     Node 3, Type 0, BuildingBlock: KAKCAD_clean_linker_0, # of connection points: 3
#     Node 4, Type 0, BuildingBlock: KAKCAD_clean_linker_0, # of connection points: 3
#     Node 5, Type 0, BuildingBlock: KAKCAD_clean_linker_0, # of connection points: 3
#     Node 6, Type 0, BuildingBlock: KAKCAD_clean_linker_0, # of connection points: 3
#     Node 7, Type 0, BuildingBlock: KAKCAD_clean_linker_0, # of connection points: 3
#     Node 8, Type 1, BuildingBlock: MIDCAF_clean_sbu_0, # of connection points: 6
#     Node 9, Type 1, BuildingBlock: MIDCAF_clean_sbu_0, # of connection points: 6
#     Node 10, Type 1, BuildingBlock: MIDCAF_clean_sbu_0, # of connection points: 6
#     Node 11, Type 1, BuildingBlock: MIDCAF_clean_sbu_0, # of connection points: 6
#     Edge 12, Type (0, 1), BuildingBlock: CIFDUS_clean_linker_0, # of connection points: 2
#     Edge 13, Type (0, 1), BuildingBlock: CIFDUS_clean_linker_0, # of connection points: 2
#     Edge 14, Type (0, 1), BuildingBlock: CIFDUS_clean_linker_0, # of connection points: 2
#     Edge 15, Type (0, 1), BuildingBlock: CIFDUS_clean_linker_0, # of connection points: 2
#     Edge 16, Type (0, 1), BuildingBlock: CIFDUS_clean_linker_0, # of connection points: 2
#     Edge 17, Type (0, 1), BuildingBlock: CIFDUS_clean_linker_0, # of connection points: 2
#     Edge 18, Type (0, 1), BuildingBlock: CIFDUS_clean_linker_0, # of connection points: 2
#     Edge 19, Type (0, 1), BuildingBlock: CIFDUS_clean_linker_0, # of connection points: 2
#     Edge 20, Type (0, 1), BuildingBlock: CIFDUS_clean_linker_0, # of connection points: 2
#     Edge 21, Type (0, 1), BuildingBlock: CIFDUS_clean_linker_0, # of connection points: 2
#     Edge 22, Type (0, 1), BuildingBlock: CIFDUS_clean_linker_0, # of connection points: 2
#     Edge 23, Type (0, 1), BuildingBlock: CIFDUS_clean_linker_0, # of connection points: 2
#     Edge 24, Type (0, 1), BuildingBlock: CIFDUS_clean_linker_0, # of connection points: 2
#     Edge 25, Type (0, 1), BuildingBlock: CIFDUS_clean_linker_0, # of connection points: 2
#     Edge 26, Type (0, 1), BuildingBlock: CIFDUS_clean_linker_0, # of connection points: 2
#     Edge 27, Type (0, 1), BuildingBlock: CIFDUS_clean_linker_0, # of connection points: 2
#     Edge 28, Type (0, 1), BuildingBlock: CIFDUS_clean_linker_0, # of connection points: 2
#     Edge 29, Type (0, 1), BuildingBlock: CIFDUS_clean_linker_0, # of connection points: 2
#     Edge 30, Type (0, 1), BuildingBlock: CIFDUS_clean_linker_0, # of connection points: 2
#     Edge 31, Type (0, 1), BuildingBlock: CIFDUS_clean_linker_0, # of connection points: 2
#     Edge 32, Type (0, 1), BuildingBlock: CIFDUS_clean_linker_0, # of connection points: 2
#     Edge 33, Type (0, 1), BuildingBlock: CIFDUS_clean_linker_0, # of connection points: 2
#     Edge 34, Type (0, 1), BuildingBlock: CIFDUS_clean_linker_0, # of connection points: 2
#     Edge 35, Type (0, 1), BuildingBlock: CIFDUS_clean_linker_0, # of connection points: 2
# Relax obj value: 0.085
# Max RMSD: 0.099
# Mean RMSD: 0.090
data_MOF--net-apo--node1-MIDCAF_clean_sbu_0--node2-KAKCAD_clean_linker_0--edge1-CIFDUS_clean_linker_0
_symmetry_space_group_name_H-M    P1
_symmetry_Int_Tables_number       1
_symmetry_cell_setting            triclinic
loop_
_symmetry_equiv_pos_as_xyz
'x, y, z'
_cell_length_a     38.399477
_cell_length_b     45.746618
_cell_length_c     40.43534
_cell_angle_alpha  89.922959
_cell_angle_beta   89.785549
_cell_angle_gamma 90.050957
loop_
_atom_site_label
_atom_site_type_symbol
_atom_site_fract_x
_atom_site_fract_y
_atom_site_fract_z
_atom_type_partial_charge
C0 C 0.36118 0.41606 0.34012 0.0
C1 C 0.39231 0.42797 0.35233 0.0
C2 C 0.34719 0.39064 0.35379 0.0
C3 C 0.36425 0.37596 0.37969 0.0
C4 C 0.39634 0.38704 0.39083 0.0
C5 C 0.41017 0.41282 0.37737 0.0
C6 C 0.34719 0.3504 0.39603 0.0
C7 C 0.32637 0.33122 0.37749 0.0
C8 C 0.30538 0.31001 0.39296 0.0
C9 C 0.30691 0.30701 0.42758 0.0
C10 C 0.32921 0.32472 0.44628 0.0
C11 C 0.34905 0.34647 0.43049 0.0
C12 C 0.33118 0.32129 0.48258 0.0
C13 C 0.30195 0.3267 0.50265 0.0
C14 C 0.36298 0.31406 0.49741 0.0
C15 C 0.36579 0.31289 0.53181 0.0
C16 C 0.33702 0.31952 0.55204 0.0
C17 C 0.28084 0.29205 0.37298 0.0
C18 C 0.26368 0.30428 0.34553 0.0
C19 C 0.27374 0.26284 0.38145 0.0
C20 C 0.24951 0.24655 0.3635 0.0
C21 C 0.2321 0.25889 0.33625 0.0
C22 C 0.23992 0.28785 0.32725 0.0
C23 C 0.30496 0.32618 0.53718 0.0
H24 H 0.34703 0.42682 0.32045 0.0
H25 H 0.3222 0.3832 0.34475 0.0
H26 H 0.41052 0.37612 0.41036 0.0
H27 H 0.43414 0.42144 0.38748 0.0
H28 H 0.32622 0.33308 0.35079 0.0
H29 H 0.36468 0.36109 0.44539 0.0
H30 H 0.29062 0.29113 0.44018 0.0
H31 H 0.27721 0.33243 0.49163 0.0
H32 H 0.3858 0.30982 0.48233 0.0
H33 H 0.39095 0.30817 0.54262 0.0
H34 H 0.26793 0.32684 0.33847 0.0
H35 H 0.28674 0.25251 0.40211 0.0
H36 H 0.28251 0.33159 0.55226 0.0
H37 H 0.22742 0.29803 0.30622 0.0
H38 H 0.24382 0.2245 0.37164 0.0
C39 C 0.1054 0.08188 0.83134 0.0
C40 C 0.06874 0.08151 0.83184 0.0
C41 C 0.12382 0.10513 0.84532 0.0
C42 C 0.10599 0.12844 0.86031 0.0
C43 C 0.0694 0.12875 0.85949 0.0
C44 C 0.05098 0.1056 0.84534 0.0
C45 C 0.12533 0.15129 0.87875 0.0
C46 C 0.15556 0.16407 0.86555 0.0
C47 C 0.1741 0.18522 0.88351 0.0
C48 C 0.16224 0.19347 0.91514 0.0
C49 C 0.13232 0.18045 0.92904 0.0
C50 C 0.11414 0.15944 0.91049 0.0
C51 C 0.12034 0.18761 0.96323 0.0
C52 C 0.14417 0.19118 0.98929 0.0
C53 C 0.08455 0.1889 0.97046 0.0
C54 C 0.07283 0.19217 1.00293 0.0
C55 C 0.09649 0.19487 0.02927 0.0
C56 C 0.2065 0.19793 0.86951 0.0
C57 C 0.23301 0.17954 0.8576 0.0
C58 C 0.21135 0.22836 0.86827 0.0
C59 C 0.24233 0.24016 0.85564 0.0
C60 C 0.26921 0.22171 0.84465 0.0
C61 C 0.2642 0.19131 0.84559 0.0
C62 C 0.13238 0.19484 0.02192 0.0
H63 H 0.11997 0.06353 0.82161 0.0
H64 H 0.152 0.10417 0.84583 0.0
H65 H 0.05498 0.14669 0.87038 0.0
H66 H 0.02279 0.10626 0.84564 0.0
H67 H 0.16448 0.15783 0.84108 0.0
H68 H 0.0918 0.14845 0.92128 0.0
H69 H 0.1766 0.2097 0.92905 0.0
H70 H 0.17194 0.19015 0.9847 0.0
H71 H 0.0654 0.18676 0.95102 0.0
H72 H 0.04501 0.19158 1.00734 0.0
H73 H 0.22995 0.156 0.85841 0.0
H74 H 0.1912 0.24298 0.87712 0.0
H75 H 0.15144 0.19729 0.04138 0.0
H76 H 0.2846 0.17665 0.83735 0.0
H77 H 0.24576 0.26367 0.8555 0.0
C78 C 0.8736 0.07897 0.69247 0.0
C79 C 0.90944 0.07397 0.68782 0.0
C80 C 0.85821 0.10487 0.68149 0.0
C81 C 0.87834 0.12661 0.66593 0.0
C82 C 0.91451 0.12231 0.66297 0.0
C83 C 0.92984 0.09627 0.67363 0.0
C84 C 0.8614 0.15273 0.65093 0.0
C85 C 0.83259 0.16608 0.66615 0.0
C86 C 0.81524 0.18949 0.65085 0.0
C87 C 0.82733 0.19998 0.62013 0.0
C88 C 0.85625 0.187 0.60463 0.0
C89 C 0.87289 0.16336 0.62017 0.0
C90 C 0.8688 0.19689 0.57161 0.0
C91 C 0.84558 0.20149 0.54528 0.0
C92 C 0.90471 0.19927 0.56554 0.0
C93 C 0.91727 0.2045 0.5337 0.0
C94 C 0.89428 0.20777 0.50691 0.0
C95 C 0.78338 0.20182 0.66628 0.0
C96 C 0.75672 0.18307 0.67727 0.0
C97 C 0.77895 0.23218 0.66946 0.0
C98 C 0.74815 0.24356 0.68287 0.0
C99 C 0.72107 0.22477 0.69277 0.0
C100 C 0.72579 0.19443 0.69016 0.0
C101 C 0.8582 0.20681 0.51321 0.0
H102 H 0.85718 0.06254 0.70392 0.0
H103 H 0.83029 0.10726 0.68406 0.0
H104 H 0.93095 0.13883 0.65171 0.0
H105 H 0.95747 0.09319 0.66949 0.0
H106 H 0.82356 0.15832 0.69002 0.0
H107 H 0.8941 0.1524 0.60751 0.0
H108 H 0.81393 0.21789 0.60809 0.0
H109 H 0.81774 0.19968 0.54918 0.0
H110 H 0.92326 0.19615 0.58536 0.0
H111 H 0.9452 0.20458 0.52996 0.0
H112 H 0.75935 0.15958 0.67492 0.0
H113 H 0.79921 0.24708 0.66137 0.0
H114 H 0.83973 0.20952 0.49328 0.0
H115 H 0.70524 0.17952 0.69755 0.0
H116 H 0.74495 0.26705 0.68429 0.0
C117 C 0.62566 0.40923 0.19092 0.0
C118 C 0.58964 0.41064 0.18464 0.0
C119 C 0.64568 0.386 0.17872 0.0
C120 C 0.63012 0.36388 0.15977 0.0
C121 C 0.59388 0.36428 0.15529 0.0
C122 C 0.57384 0.38727 0.16776 0.0
C123 C 0.65188 0.34247 0.14148 0.0
C124 C 0.67818 0.32633 0.15736 0.0
C125 C 0.69912 0.30675 0.1392 0.0
C126 C 0.69453 0.30456 0.10476 0.0
C127 C 0.66853 0.32058 0.08875 0.0
C128 C 0.64701 0.33912 0.10727 0.0
C129 C 0.66429 0.31874 0.05247 0.0
C130 C 0.69165 0.32693 0.03123 0.0
C131 C 0.63212 0.31063 0.03895 0.0
C132 C 0.62702 0.31151 1.00477 0.0
C133 C 0.65377 0.32112 0.98357 0.0
C134 C 0.72569 0.28819 0.15565 0.0
C135 C 0.74913 0.2999 0.1788 0.0
C136 C 0.72895 0.25868 0.14661 0.0
C137 C 0.75616 0.24171 0.15882 0.0
C138 C 0.78084 0.25378 0.18042 0.0
C139 C 0.77651 0.2828 0.19111 0.0
C140 C 0.6863 0.32846 0.99704 0.0
H141 H 0.63883 0.42691 0.20353 0.0
H142 H 0.67361 0.3863 0.18235 0.0
H143 H 0.58118 0.34727 0.14114 0.0
H144 H 0.54608 0.38725 0.16312 0.0
H145 H 0.68171 0.32847 0.18383 0.0
H146 H 0.62727 0.3519 0.09471 0.0
H147 H 0.71117 0.29029 0.09029 0.0
H148 H 0.71663 0.33341 0.04121 0.0
H149 H 0.61071 0.30423 0.05492 0.0
H150 H 0.60154 0.30618 0.99504 0.0
H151 H 0.74725 0.32259 0.18621 0.0
H152 H 0.71081 0.24882 0.12945 0.0
H153 H 0.70721 0.33614 0.98119 0.0
H154 H 0.79523 0.29268 0.20767 0.0
H155 H 0.75842 0.21924 0.15066 0.0
C156 C 0.60776 0.58765 0.68464 0.0
C157 C 0.602 0.56328 0.66427 0.0
C158 C 0.62899 0.6107 0.67374 0.0
C159 C 0.64508 0.60962 0.64241 0.0
C160 C 0.64009 0.58471 0.62265 0.0
C161 C 0.6187 0.56194 0.63336 0.0
C162 C 0.66639 0.63446 0.62972 0.0
C163 C 0.68896 0.65 0.65058 0.0
C164 C 0.70964 0.67287 0.63807 0.0
C165 C 0.70744 0.68042 0.60437 0.0
C166 C 0.6847 0.66533 0.58326 0.0
C167 C 0.66427 0.64254 0.59623 0.0
C168 C 0.6806 0.67379 0.54794 0.0
C169 C 0.67534 0.70313 0.53895 0.0
C170 C 0.67812 0.65213 0.52342 0.0
C171 C 0.66798 0.65933 0.49128 0.0
C172 C 0.65998 0.68838 0.48288 0.0
C173 C 0.73373 0.68876 0.66023 0.0
C174 C 0.72153 0.70136 0.68976 0.0
C175 C 0.76904 0.69167 0.65176 0.0
C176 C 0.79167 0.70725 0.6722 0.0
C177 C 0.7793 0.72065 0.70122 0.0
C178 C 0.74404 0.71749 0.7099 0.0
C179 C 0.66505 0.71035 0.50675 0.0
H180 H 0.59517 0.58919 0.70859 0.0
H181 H 0.63209 0.62963 0.6895 0.0
H182 H 0.65278 0.58273 0.5988 0.0
H183 H 0.61536 0.54311 0.61746 0.0
H184 H 0.69126 0.64382 0.67636 0.0
H185 H 0.64583 0.63154 0.58028 0.0
H186 H 0.72326 0.69812 0.59467 0.0
H187 H 0.67706 0.72031 0.55728 0.0
H188 H 0.68251 0.62936 0.52951 0.0
H189 H 0.66412 0.6418 0.47369 0.0
H190 H 0.69436 0.69943 0.69676 0.0
H191 H 0.77908 0.68197 0.62924 0.0
H192 H 0.65945 0.73298 0.50098 0.0
H193 H 0.73388 0.72775 0.73204 0.0
H194 H 0.81862 0.70972 0.66469 0.0
C195 C 0.83299 0.8103 0.9855 0.0
C196 C 0.86796 0.80966 0.97507 0.0
C197 C 0.82465 0.81341 0.01911 0.0
C198 C 0.85114 0.81645 0.0428 0.0
C199 C 0.88603 0.81524 0.0324 0.0
C200 C 0.89434 0.81174 0.999 0.0
C201 C 0.84272 0.8223 0.07807 0.0
C202 C 0.81801 0.80527 0.09511 0.0
C203 C 0.81043 0.81081 0.12858 0.0
C204 C 0.82769 0.8337 0.14483 0.0
C205 C 0.85135 0.85186 0.12786 0.0
C206 C 0.85902 0.84563 0.09454 0.0
C207 C 0.86578 0.87857 0.14407 0.0
C208 C 0.84521 0.89474 0.16637 0.0
C209 C 0.89925 0.88915 0.13615 0.0
C210 C 0.91105 0.91582 0.14888 0.0
C211 C 0.88985 0.93242 0.1702 0.0
C212 C 0.78279 0.79417 0.14622 0.0
C213 C 0.75018 0.78998 0.13136 0.0
C214 C 0.78792 0.78411 0.17874 0.0
C215 C 0.76081 0.77053 0.1962 0.0
C216 C 0.72792 0.76712 0.1816 0.0
C217 C 0.72303 0.77671 0.14889 0.0
C218 C 0.85723 0.92103 0.17952 0.0
H219 H 0.81213 0.80876 0.96763 0.0
H220 H 0.79752 0.81443 0.02645 0.0
H221 H 0.90695 0.81737 0.05014 0.0
H222 H 0.92153 0.81176 0.99176 0.0
H223 H 0.80501 0.7875 0.08244 0.0
H224 H 0.87655 0.8597 0.08076 0.0
H225 H 0.82168 0.83795 0.17057 0.0
H226 H 0.81913 0.88775 0.17287 0.0
H227 H 0.91618 0.87711 0.1196 0.0
H228 H 0.93625 0.9239 0.14096 0.0
H229 H 0.74533 0.79774 0.10647 0.0
H230 H 0.81287 0.78693 0.19075 0.0
H231 H 0.84044 0.9328 0.19645 0.0
H232 H 0.69811 0.77395 0.13681 0.0
H233 H 0.76532 0.7633 0.22133 0.0
C234 C 0.10021 0.89234 0.29811 0.0
C235 C 0.08943 0.91719 0.31561 0.0
C236 C 0.11946 0.87044 0.31397 0.0
C237 C 0.12919 0.87336 0.34744 0.0
C238 C 0.11813 0.89844 0.36472 0.0
C239 C 0.0982 0.91987 0.3491 0.0
C240 C 0.1515 0.85097 0.36415 0.0
C241 C 0.17688 0.8353 0.34627 0.0
C242 C 0.19858 0.815 0.36211 0.0
C243 C 0.19527 0.81053 0.39638 0.0
C244 C 0.16998 0.82572 0.41477 0.0
C245 C 0.14805 0.84558 0.39835 0.0
C246 C 0.16534 0.82031 0.45089 0.0
C247 C 0.16497 0.79167 0.46358 0.0
C248 C 0.15905 0.84369 0.47267 0.0
C249 C 0.15071 0.83851 0.50588 0.0
C250 C 0.14832 0.80979 0.51813 0.0
C251 C 0.22432 0.798 0.34265 0.0
C252 C 0.21348 0.78126 0.31544 0.0
C253 C 0.25957 0.79768 0.35172 0.0
C254 C 0.28348 0.7805 0.33424 0.0
C255 C 0.27241 0.76288 0.30784 0.0
C256 C 0.23725 0.76357 0.29843 0.0
C257 C 0.15647 0.78647 0.49678 0.0
H258 H 0.09377 0.8899 0.2722 0.0
H259 H 0.12673 0.85128 0.29988 0.0
H260 H 0.12565 0.90212 0.39014 0.0
H261 H 0.09071 0.93916 0.36292 0.0
H262 H 0.18055 0.83928 0.32008 0.0
H263 H 0.12763 0.85634 0.41226 0.0
H264 H 0.21218 0.79497 0.40863 0.0
H265 H 0.16962 0.77316 0.44749 0.0
H266 H 0.15964 0.86604 0.46379 0.0
H267 H 0.14429 0.85697 0.5215 0.0
H268 H 0.18639 0.7811 0.30807 0.0
H269 H 0.26854 0.81051 0.37252 0.0
H270 H 0.15511 0.7641 0.5055 0.0
H271 H 0.22808 0.75002 0.2783 0.0
H272 H 0.31037 0.78002 0.34224 0.0
C273 C 0.32932 0.68584 0.02869 0.0
C274 C 0.3643 0.68664 0.03885 0.0
C275 C 0.32098 0.6855 0.99495 0.0
C276 C 0.3475 0.6853 0.97092 0.0
C277 C 0.38235 0.68682 0.98105 0.0
C278 C 0.39066 0.68776 0.01464 0.0
C279 C 0.3392 0.68063 0.93557 0.0
C280 C 0.31809 0.70032 0.91809 0.0
C281 C 0.30976 0.69526 0.88459 0.0
C282 C 0.3225 0.66981 0.86919 0.0
C283 C 0.34367 0.64997 0.88641 0.0
C284 C 0.35212 0.65573 0.9195 0.0
C285 C 0.35572 0.62254 0.87038 0.0
C286 C 0.33276 0.60587 0.85105 0.0
C287 C 0.38975 0.61217 0.87547 0.0
C288 C 0.40018 0.58525 0.86246 0.0
C289 C 0.3768 0.56811 0.84413 0.0
C290 C 0.28753 0.71618 0.86569 0.0
C291 C 0.26016 0.73118 0.88145 0.0
C292 C 0.29324 0.7212 0.83163 0.0
C293 C 0.27209 0.74056 0.81391 0.0
C294 C 0.24533 0.75574 0.83002 0.0
C295 C 0.23954 0.75091 0.86388 0.0
C296 C 0.34319 0.57898 0.83806 0.0
H297 H 0.30853 0.6849 0.04684 0.0
H298 H 0.29391 0.68409 0.98765 0.0
H299 H 0.40321 0.68656 0.96293 0.0
H300 H 0.41784 0.68797 0.0217 0.0
H301 H 0.30888 0.71981 0.93052 0.0
H302 H 0.36775 0.64025 0.93331 0.0
H303 H 0.31571 0.66518 0.84376 0.0
H304 H 0.30629 0.6131 0.84687 0.0
H305 H 0.40818 0.62468 0.88991 0.0
H306 H 0.42616 0.5774 0.86783 0.0
H307 H 0.25433 0.72753 0.90735 0.0
H308 H 0.31441 0.71055 0.81865 0.0
H309 H 0.32469 0.56642 0.82374 0.0
H310 H 0.21881 0.76234 0.87671 0.0
H311 H 0.27714 0.74421 0.78785 0.0
Zn312 Zn 0.03042 0.12061 0.32386 0.0
Zn313 Zn 0.96504 0.14803 0.17562 0.0
Zn314 Zn 0.00562 0.13536 0.26983 0.0
C315 C 0.0321 0.16336 0.21296 0.0
C316 C 0.97258 0.08828 0.20884 0.0
O317 O 0.972 0.15621 0.30843 0.0
O318 O 0.00291 0.14677 0.35316 0.0
C319 C 0.08511 0.14699 0.2916 0.0
O320 O 0.04573 0.15863 0.24107 0.0
O321 O 0.00025 0.1569 0.21088 0.0
O322 O 0.96312 0.10412 0.1842 0.0
O323 O 0.98618 0.09857 0.236 0.0
O324 O 0.08023 0.13064 0.31634 0.0
O325 O 0.05983 0.15246 0.27165 0.0
O326 O 0.0032 0.08755 0.26855 0.0
O327 O 0.01672 0.07896 0.3207 0.0
C328 C 0.00759 0.06964 0.29268 0.0
O329 O 0.95973 0.16351 0.27739 0.0
O330 O 0.96445 0.15699 0.22516 0.0
C331 C 0.97703 0.15889 0.33977 0.0
C332 C 0.94719 0.1681 0.24874 0.0
Zn333 Zn 0.51041 0.3582 0.70729 0.0
Zn334 Zn 0.47535 0.35898 0.8237 0.0
Zn335 Zn 0.49372 0.35818 0.76734 0.0
C336 C 0.46157 0.41376 0.80235 0.0
C337 C 0.43321 0.31855 0.79739 0.0
O338 O 0.54264 0.3325 0.7641 0.0
O339 O 0.54539 0.32648 0.70997 0.0
C340 C 0.52016 0.415 0.72701 0.0
O341 O 0.48408 0.4046 0.78101 0.0
O342 O 0.44865 0.39602 0.8229 0.0
O343 O 0.44784 0.32222 0.82496 0.0
O344 O 0.4441 0.33306 0.77199 0.0
O345 O 0.52698 0.39875 0.70267 0.0
O346 O 0.50536 0.40432 0.75307 0.0
O347 O 0.45051 0.33742 0.7384 0.0
O348 O 0.46559 0.34881 0.68715 0.0
C349 C 0.44389 0.33805 0.70717 0.0
O350 O 0.53544 0.33762 0.79762 0.0
O351 O 0.52184 0.35911 0.84469 0.0
C352 C 0.55686 0.32077 0.73846 0.0
C353 C 0.54297 0.34428 0.82771 0.0
Zn354 Zn 0.03286 0.86695 0.80392 0.0
Zn355 Zn 0.97509 0.84741 0.69241 0.0
Zn356 Zn 0.0066 0.85725 0.74755 0.0
C357 C 0.96676 0.9067 0.70483 0.0
C358 C 0.9395 0.81423 0.73708 0.0
O359 O 0.06065 0.83968 0.74461 0.0
O360 O 0.08038 0.85431 0.79306 0.0
C361 C 0.01731 0.92121 0.78219 0.0
O362 O 0.98719 0.90014 0.729 0.0
O363 O 0.95699 0.88716 0.68492 0.0
O364 O 0.94056 0.8186 0.70635 0.0
O365 O 0.96136 0.82704 0.75644 0.0
O366 O 0.02598 0.90913 0.80892 0.0
O367 O 0.00939 0.90557 0.75671 0.0
O368 O 0.97615 0.8332 0.78686 0.0
O369 O 0.00589 0.84094 0.83276 0.0
C370 C 0.98064 0.82911 0.81817 0.0
O371 O 0.04599 0.83834 0.71263 0.0
O372 O 0.01528 0.83325 0.66682 0.0
C373 C 0.08558 0.8417 0.76576 0.0
C374 C 0.04387 0.83103 0.68189 0.0
Zn375 Zn 0.53803 0.62686 0.20397 0.0
Zn376 Zn 0.47882 0.63966 0.32015 0.0
Zn377 Zn 0.50997 0.63393 0.26275 0.0
C378 C 0.5453 0.66381 0.32705 0.0
C379 C 0.48134 0.58011 0.30758 0.0
O380 O 0.47588 0.65572 0.22519 0.0
O381 O 0.50347 0.64847 0.1777 0.0
C382 C 0.58533 0.6589 0.24222 0.0
O383 O 0.54744 0.65594 0.2965 0.0
O384 O 0.51751 0.65958 0.34314 0.0
O385 O 0.46978 0.59789 0.32874 0.0
O386 O 0.49779 0.58939 0.28175 0.0
O387 O 0.58218 0.64725 0.21413 0.0
O388 O 0.56098 0.6565 0.26405 0.0
O389 O 0.51787 0.58617 0.25268 0.0
O390 O 0.53839 0.58388 0.20148 0.0
C391 C 0.52905 0.57118 0.22776 0.0
O392 O 0.461 0.66012 0.25626 0.0
O393 O 0.43847 0.66285 0.30667 0.0
C394 C 0.47811 0.65901 0.19355 0.0
C395 C 0.43696 0.66892 0.27631 0.0
H396 H 0.02635 0.94022 0.33067 0.0
H397 H 0.11325 0.94933 0.26379 0.0
H398 H 0.09075 0.9965 0.24477 0.0
H399 H 0.05288 0.03889 0.25588 0.0
H400 H 0.96627 0.02991 0.32297 0.0
H401 H 0.98154 0.97874 0.3329 0.0
C402 C 0.03972 0.95224 0.31127 0.0
C403 C 0.07153 0.94169 0.29887 0.0
C404 C 0.02672 0.97937 0.30067 0.0
C405 C 0.0887 0.95717 0.27363 0.0
C406 C 0.07595 0.98418 0.26293 0.0
C407 C 0.03626 0.02519 0.27115 0.0
C408 C 0.00807 0.0378 0.28812 0.0
C409 C 0.0458 0.99604 0.27733 0.0
C410 C 0.98761 0.02034 0.30913 0.0
C411 C 0.99664 0.99124 0.31513 0.0
H412 H 0.43833 0.54966 0.81698 0.0
H413 H 0.33706 0.51897 0.84828 0.0
H414 H 0.35368 0.46889 0.83544 0.0
H415 H 0.39804 0.43343 0.81917 0.0
H416 H 0.50004 0.46294 0.79014 0.0
H417 H 0.4822 0.51388 0.79779 0.0
C418 C 0.41992 0.53199 0.82089 0.0
C419 C 0.38651 0.53809 0.83362 0.0
C420 C 0.42979 0.50307 0.81379 0.0
C421 C 0.36277 0.51499 0.83814 0.0
C422 C 0.37232 0.48629 0.83104 0.0
C423 C 0.41627 0.45106 0.81424 0.0
C424 C 0.45029 0.44457 0.80369 0.0
C425 C 0.4059 0.48005 0.81939 0.0
C426 C 0.47356 0.46752 0.79729 0.0
C427 C 0.46342 0.49658 0.80217 0.0
H428 H 0.6014 0.534 0.72312 0.0
H429 H 0.5504 0.53833 0.62837 0.0
H430 H 0.5169 0.49448 0.64162 0.0
H431 H 0.50697 0.45204 0.67732 0.0
H432 H 0.55959 0.44563 0.77085 0.0
H433 H 0.58708 0.49341 0.76143 0.0
C434 C 0.58244 0.5256 0.70573 0.0
C435 C 0.57866 0.5391 0.67465 0.0
C436 C 0.56363 0.50003 0.71332 0.0
C437 C 0.55414 0.52799 0.65222 0.0
C438 C 0.53494 0.50298 0.65979 0.0
C439 C 0.52383 0.46153 0.69593 0.0
C440 C 0.53089 0.44581 0.72493 0.0
C441 C 0.54019 0.4884 0.68983 0.0
C442 C 0.55326 0.45782 0.74868 0.0
C443 C 0.5692 0.48494 0.74312 0.0
H444 H 0.95515 0.95272 0.18633 0.0
H445 H 0.84795 0.98021 0.17679 0.0
H446 H 0.86405 0.02979 0.19139 0.0
H447 H 0.90862 0.06637 0.20319 0.0
H448 H 0.01639 0.04136 0.20703 0.0
H449 H 0.00027 0.98985 0.19861 0.0
C450 C 0.93531 0.96955 0.18737 0.0
C451 C 0.90027 0.96243 0.18067 0.0
C452 C 0.94488 -0.0015 0.19492 0.0
C453 C 0.87496 0.98463 0.18252 0.0
C454 C 0.88416 0.01319 0.19057 0.0
C455 C 0.92844 0.04947 0.2026 0.0
C456 C 0.96347 0.05714 0.20684 0.0
C457 C 0.919 0.02042 0.19641 0.0
C458 C 0.98917 0.03547 0.2053 0.0
C459 C 0.97993 0.00622 0.19993 0.0
H460 H 0.88014 0.02076 0.67777 0.0
H461 H 0.97388 0.0616 0.71407 0.0
H462 H 0.00029 0.01352 0.72213 0.0
H463 H 0.99727 0.95957 0.7163 0.0
H464 H 0.9021 0.9197 0.68342 0.0
H465 H 0.87578 0.96769 0.67604 0.0
C466 C 0.90606 0.01927 0.68817 0.0
C467 C 0.92488 0.04487 0.69533 0.0
C468 C 0.92094 0.99165 0.69305 0.0
C469 C 0.95887 0.04231 0.70795 0.0
C470 C 0.97397 0.0148 0.71272 0.0
C471 C 0.9705 0.96151 0.70885 0.0
C472 C 0.95155 0.93619 0.70129 0.0
C473 C 0.95532 0.9893 0.70512 0.0
C474 C 0.91733 0.9389 0.68944 0.0
C475 C 0.90217 0.96632 0.68534 0.0
H476 H 0.59399 0.446 0.23936 0.0
H477 H 0.54035 0.43676 0.14624 0.0
H478 H 0.51238 0.48384 0.15429 0.0
H479 H 0.50876 0.53043 0.18399 0.0
H480 H 0.56557 0.54196 0.27453 0.0
H481 H 0.58626 0.49135 0.27166 0.0
C482 C 0.576 0.45419 0.22095 0.0
C483 C 0.5695 0.43772 0.19218 0.0
C484 C 0.56045 0.4818 0.22534 0.0
C485 C 0.54563 0.44859 0.16885 0.0
C486 C 0.52977 0.47574 0.17326 0.0
C487 C 0.52487 0.52148 0.20353 0.0
C488 C 0.53482 0.53942 0.22998 0.0
C489 C 0.53769 0.49284 0.20092 0.0
C490 C 0.55641 0.52803 0.25474 0.0
C491 C 0.56875 0.4993 0.25272 0.0
H492 H 0.45924 0.44653 0.34012 0.0
H493 H 0.35218 0.47554 0.33915 0.0
H494 H 0.37057 0.52404 0.32197 0.0
H495 H 0.41679 0.55926 0.31048 0.0
H496 H 0.524 0.53282 0.31609 0.0
H497 H 0.5061 0.48226 0.3277 0.0
C498 C 0.43997 0.46347 0.33617 0.0
C499 C 0.40432 0.45718 0.3407 0.0
C500 C 0.45078 0.49174 0.32685 0.0
C501 C 0.37971 0.47943 0.33521 0.0
C502 C 0.39018 0.50733 0.32562 0.0
C503 C 0.43615 0.54223 0.31379 0.0
C504 C 0.47159 0.54923 0.31128 0.0
C505 C 0.42558 0.51378 0.32171 0.0
C506 C 0.49661 0.5274 0.31624 0.0
C507 C 0.4863 0.49871 0.32354 0.0
H508 H 0.08193 0.04632 0.77865 0.0
H509 H 0.01222 0.05653 0.86185 0.0
H510 H 0.98564 0.00941 0.84989 0.0
H511 H 0.98793 0.96224 0.82094 0.0
H512 H 0.06034 0.95028 0.74058 0.0
H513 H 0.0802 0.00091 0.7462 0.0
C514 C 0.06075 0.03833 0.79401 0.0
C515 C 0.0494 0.05491 0.8213 0.0
C516 C 0.04616 0.01075 0.78757 0.0
C517 C 0.0214 0.04445 0.84053 0.0
C518 C 0.00632 0.01732 0.83389 0.0
C519 C 0.00722 0.97115 0.80403 0.0
C520 C 0.02212 0.95301 0.7799 0.0
C521 C 0.0192 -9e-05 0.80814 0.0
C522 C 0.04793 0.96425 0.75875 0.0
C523 C 0.05953 0.99304 0.76222 0.0
H524 H 0.12571 0.17125 0.08533 0.0
H525 H 0.03753 0.22199 0.05221 0.0
H526 H 0.01076 0.21759 0.10655 0.0
H527 H 0.00977 0.19583 0.16195 0.0
H528 H 0.09933 0.14877 0.1974 0.0
H529 H 0.12866 0.15595 0.14392 0.0
C530 C 0.10105 0.182 0.09008 0.0
C531 C 0.08332 0.19622 0.0641 0.0
C532 C 0.08598 0.17997 0.12183 0.0
C533 C 0.05132 0.20994 0.07113 0.0
C534 C 0.03602 0.20766 0.10236 0.0
C535 C 0.03595 0.18753 0.15806 0.0
C536 C 0.05228 0.17149 0.18323 0.0
C537 C 0.05265 0.19206 0.12757 0.0
C538 C 0.08631 0.16116 0.17826 0.0
C539 C 0.10293 0.16514 0.14765 0.0
H540 H 0.36517 0.28038 0.59507 0.0
H541 H 0.32129 0.36692 0.58946 0.0
H542 H 0.34372 0.3782 0.64443 0.0
H543 H 0.3872 0.36716 0.68721 0.0
H544 H 0.43271 0.28139 0.69207 0.0
H545 H 0.39741 0.26557 0.64511 0.0
C546 C 0.35968 0.30136 0.60641 0.0
C547 C 0.34218 0.32298 0.58814 0.0
C548 C 0.37307 0.3078 0.63789 0.0
C549 C 0.33479 0.34998 0.60307 0.0
C550 C 0.34781 0.3565 0.63442 0.0
C551 C 0.38782 0.34457 0.67906 0.0
C552 C 0.41227 0.32537 0.69291 0.0
C553 C 0.36851 0.33611 0.65124 0.0
C554 C 0.41361 0.29632 0.68196 0.0
C555 C 0.39391 0.28748 0.65471 0.0
H556 H 0.62646 0.2839 0.93785 0.0
H557 H 0.6625 0.37237 0.9511 0.0
H558 H 0.63689 0.38649 0.89826 0.0
H559 H 0.59442 0.37573 0.85465 0.0
H560 H 0.55827 0.28757 0.84065 0.0
H561 H 0.59449 0.27089 0.88678 0.0
C562 C 0.62946 0.30603 0.92861 0.0
C563 C 0.64584 0.3272 0.94842 0.0
C564 C 0.61453 0.31401 0.89819 0.0
C565 C 0.64997 0.35575 0.93623 0.0
C566 C 0.63515 0.36387 0.90612 0.0
C567 C 0.59579 0.35267 0.86084 0.0
C568 C 0.57386 0.33284 0.84459 0.0
C569 C 0.61604 0.3435 0.88771 0.0
C570 C 0.57534 0.30307 0.85275 0.0
C571 C 0.59561 0.29366 0.87942 0.0
H572 H 0.86858 0.18233 0.4506 0.0
H573 H 0.95224 0.23726 0.48554 0.0
H574 H 0.9835 0.23027 0.43367 0.0
H575 H 0.99149 0.20178 0.38279 0.0
H576 H 0.90751 0.14865 0.34618 0.0
H577 H 0.87134 0.16249 0.39382 0.0
C578 C 0.89309 0.19359 0.44656 0.0
C579 C 0.90853 0.20949 0.47255 0.0
C580 C 0.91096 0.18965 0.41641 0.0
C581 C 0.94029 0.22399 0.46655 0.0
C582 C 0.95817 0.22014 0.43678 0.0
C583 C 0.9648 0.19409 0.38475 0.0
C584 C 0.9521 0.17413 0.36139 0.0
C585 C 0.94448 0.20195 0.41222 0.0
C586 C 0.91762 0.1642 0.36391 0.0
C587 C 0.89715 0.17186 0.39132 0.0
H588 H 0.91736 0.7764 0.94495 0.0
H589 H 0.84018 0.84245 0.92514 0.0
H590 H 0.86393 0.84939 0.86948 0.0
H591 H 0.91373 0.8435 0.83108 0.0
H592 H 0.99329 0.78033 0.85345 0.0
H593 H 0.96128 0.76482 0.90279 0.0
C594 C 0.90538 0.79194 0.9282 0.0
C595 C 0.87747 0.80925 0.93936 0.0
C596 C 0.91973 0.79632 0.89657 0.0
C597 C 0.86173 0.82888 0.9172 0.0
C598 C 0.87547 0.833 0.88541 0.0
C599 C 0.9231 0.82545 0.84603 0.0
C600 C 0.95557 0.81286 0.83872 0.0
C601 C 0.9054 0.81776 0.87536 0.0
C602 C 0.96809 0.79001 0.85856 0.0
C603 C 0.95004 0.78145 0.88699 0.0
H604 H 0.67345 0.66693 0.42066 0.0
H605 H 0.60362 0.72355 0.47465 0.0
H606 H 0.5648 0.72565 0.42737 0.0
H607 H 0.54536 0.70416 0.37531 0.0
H608 H 0.61319 0.64633 0.32117 0.0
H609 H 0.65831 0.65235 0.3634 0.0
C610 C 0.65006 0.68016 0.4218 0.0
C611 C 0.64131 0.69472 0.45143 0.0
C612 C 0.62729 0.68084 0.39457 0.0
C613 C 0.61121 0.71221 0.45226 0.0
C614 C 0.58874 0.71323 0.42527 0.0
C615 C 0.57046 0.69359 0.37228 0.0
C616 C 0.57585 0.67453 0.34552 0.0
C617 C 0.59576 0.69661 0.39695 0.0
C618 C 0.60851 0.66117 0.34157 0.0
C619 C 0.63412 0.66432 0.36595 0.0
H620 H 0.4101 0.71966 0.07373 0.0
H621 H 0.34059 0.64608 0.08304 0.0
H622 H 0.36527 0.63431 0.13714 0.0
H623 H 0.414 0.63979 0.17658 0.0
H624 H 0.48507 0.71196 0.16535 0.0
H625 H 0.45207 0.72998 0.11794 0.0
C626 C 0.39991 0.70143 0.08798 0.0
C627 C 0.37394 0.68353 0.07425 0.0
C628 C 0.41462 0.69455 0.11879 0.0
C629 C 0.36058 0.6602 0.09309 0.0
C630 C 0.37485 0.65334 0.12394 0.0
C631 C 0.4212 0.66014 0.16455 0.0
C632 C 0.45159 0.67477 0.17443 0.0
C633 C 0.40284 0.66966 0.13643 0.0
C634 C 0.46141 0.70068 0.15831 0.0
C635 C 0.44282 0.71074 0.13095 0.0
H636 H 0.16197 0.83799 0.57673 0.0
H637 H 0.09921 0.76937 0.53423 0.0
H638 H 0.06559 0.76571 0.58514 0.0
H639 H 0.04738 0.78775 0.63742 0.0
H640 H 0.10809 0.857 0.68049 0.0
H641 H 0.14959 0.85427 0.63423 0.0
C642 C 0.1413 0.82192 0.57888 0.0
C643 C 0.13291 0.80423 0.55145 0.0
C644 C 0.12159 0.82013 0.60831 0.0
C645 C 0.10643 0.78317 0.55485 0.0
C646 C 0.08695 0.78118 0.58394 0.0
C647 C 0.0704 0.80154 0.63721 0.0
C648 C 0.07461 0.82272 0.66201 0.0
C649 C 0.09342 0.8003 0.61025 0.0
C650 C 0.10447 0.84043 0.66169 0.0
C651 C 0.12788 0.83913 0.63499 0.0
H652 H 0.23046 0.20041 0.32253 0.0
H653 H 0.1709 0.27978 0.31059 0.0
H654 H 0.12255 0.2519 0.28811 0.0
H655 H 0.09365 0.20451 0.28021 0.0
H656 H 0.1501 0.12509 0.29998 0.0
H657 H 0.20306 0.15322 0.31079 0.0
C658 C 0.20693 0.21167 0.31505 0.0
C659 C 0.20439 0.24219 0.31874 0.0
C660 C 0.17849 0.19536 0.30354 0.0
C661 C 0.17396 0.25639 0.30789 0.0
C662 C 0.14604 0.24041 0.29524 0.0
C663 C 0.11791 0.19343 0.28584 0.0
C664 C 0.11827 0.1629 0.28917 0.0
C665 C 0.14758 0.20983 0.29398 0.0
C666 C 0.14948 0.14863 0.29717 0.0
C667 C 0.17959 0.16472 0.30362 0.0
H668 H 0.28298 0.26352 0.79808 0.0
H669 H 0.33204 0.20746 0.86993 0.0
H670 H 0.38825 0.23057 0.85889 0.0
H671 H 0.42216 0.26961 0.83278 0.0
H672 H 0.37461 0.32523 0.7597 0.0
H673 H 0.31925 0.29903 0.76653 0.0
C674 C 0.30613 0.25627 0.81099 0.0
C675 C 0.30345 0.23405 0.83499 0.0
C676 C 0.33852 0.26951 0.80424 0.0
C677 C 0.33357 0.2245 0.85134 0.0
C678 C 0.36565 0.23775 0.84511 0.0
C679 C 0.3998 0.27565 0.81794 0.0
C680 C 0.40226 0.29942 0.79601 0.0
C681 C 0.36826 0.26065 0.82216 0.0
C682 C 0.37333 0.30688 0.77661 0.0
C683 C 0.34162 0.2921 0.78079 0.0
H684 H 0.7066 0.26561 0.74028 0.0
H685 H 0.65865 0.21079 0.66659 0.0
H686 H 0.60231 0.23349 0.67738 0.0
H687 H 0.56814 0.27215 0.70339 0.0
H688 H 0.61422 0.32678 0.77809 0.0
H689 H 0.66971 0.30055 0.772 0.0
C690 C 0.68365 0.25852 0.72694 0.0
C691 C 0.68671 0.23677 0.70248 0.0
C692 C 0.65114 0.27157 0.73349 0.0
C693 C 0.65685 0.22743 0.68556 0.0
C694 C 0.62468 0.24046 0.69163 0.0
C695 C 0.59019 0.27791 0.7188 0.0
C696 C 0.58741 0.30143 0.7409 0.0
C697 C 0.62173 0.26295 0.71495 0.0
C698 C 0.61585 0.3086 0.76102 0.0
C699 C 0.64761 0.29382 0.75725 0.0
H700 H 0.81084 0.2461 0.24144 0.0
H701 H 0.82205 0.22356 0.13832 0.0
H702 H 0.87368 0.19486 0.1507 0.0
H703 H 0.91559 0.17634 0.1901 0.0
H704 H 0.9062 0.19765 0.2936 0.0
H705 H 0.85384 0.22661 0.28187 0.0
C706 C 0.82473 0.23494 0.22178 0.0
C707 C 0.81244 0.23675 0.18904 0.0
C708 C 0.85459 0.21823 0.22911 0.0
C709 C 0.8306 0.22212 0.16377 0.0
C710 C 0.86024 0.2058 0.17079 0.0
C711 C 0.90219 0.18721 0.21021 0.0
C712 C 0.91484 0.18484 0.24265 0.0
C713 C 0.87238 0.20366 0.20329 0.0
C714 C 0.89694 0.1991 0.26837 0.0
C715 C 0.86707 0.2157 0.26165 0.0
H716 H 0.84364 0.70826 0.72549 0.0
H717 H 0.76725 0.77699 0.71885 0.0
H718 H 0.80991 0.8125 0.73861 0.0
H719 H 0.87165 0.8252 0.74607 0.0
H720 H 0.9485 0.75699 0.75105 0.0
H721 H 0.903 0.71988 0.74483 0.0
C722 C 0.83622 0.7309 0.7292 0.0
C723 C 0.80263 0.74017 0.72024 0.0
C724 C 0.86102 0.75124 0.74028 0.0
C725 C 0.79301 0.76941 0.72552 0.0
C726 C 0.81745 0.78974 0.73665 0.0
C727 C 0.87805 0.80213 0.74752 0.0
C728 C 0.91311 0.79364 0.7492 0.0
C729 C 0.85191 0.78112 0.74262 0.0
C730 C 0.92151 0.76384 0.75034 0.0
C731 C 0.89556 0.7427 0.74616 0.0
H732 H 0.72872 0.71691 0.218 0.0
H733 H 0.66128 0.78687 0.18646 0.0
H734 H 0.61102 0.76158 0.21013 0.0
H735 H 0.58531 0.71636 0.23187 0.0
H736 H 0.65158 0.64451 0.2589 0.0
H737 H 0.70338 0.67397 0.24629 0.0
C738 C 0.70312 0.72687 0.21701 0.0
C739 C 0.6986 0.75348 0.20005 0.0
C740 C 0.67418 0.71187 0.2301 0.0
C741 C 0.66527 0.76611 0.19879 0.0
C742 C 0.63656 0.75174 0.21246 0.0
C743 C 0.61119 0.70772 0.23631 0.0
C744 C 0.61494 0.67868 0.24682 0.0
C745 C 0.64054 0.72419 0.22715 0.0
C746 C 0.64836 0.66711 0.25149 0.0
C747 C 0.67786 0.6838 0.24379 0.0
H748 H 0.33554 0.77353 0.27898 0.0
H749 H 0.26378 0.70431 0.30383 0.0
H750 H 0.3075 0.66775 0.28913 0.0
H751 H 0.36897 0.65603 0.27876 0.0
H752 H 0.44106 0.72456 0.25322 0.0
H753 H 0.3943 0.7609 0.25753 0.0
C754 C 0.32938 0.75042 0.28042 0.0
C755 C 0.29676 0.74152 0.29286 0.0
C756 C 0.35467 0.72948 0.27178 0.0
C757 C 0.28876 0.7116 0.29435 0.0
C758 C 0.31378 0.69071 0.28608 0.0
C759 C 0.37397 0.67878 0.27273 0.0
C760 C 0.40814 0.68777 0.26564 0.0
C761 C 0.34718 0.69942 0.27597 0.0
C762 C 0.41473 0.71723 0.25827 0.0
C763 C 0.38812 0.73801 0.26128 0.0
H764 H 0.19976 0.74629 0.77955 0.0
H765 H 0.24286 0.81364 0.84164 0.0
H766 H 0.20114 0.84895 0.81985 0.0
H767 H 0.14689 0.85818 0.79097 0.0
H768 H 0.09914 0.79033 0.73282 0.0
H769 H 0.14881 0.75802 0.74387 0.0
C770 C 0.20035 0.76889 0.78758 0.0
C771 C 0.22394 0.77749 0.81231 0.0
C772 C 0.17544 0.78887 0.77566 0.0
C773 C 0.22464 0.80667 0.82282 0.0
C774 C 0.20084 0.8268 0.81037 0.0
C775 C 0.14782 0.83657 0.77993 0.0
C776 C 0.11921 0.82642 0.76164 0.0
C777 C 0.17531 0.81782 0.78788 0.0
C778 C 0.12087 0.79862 0.74703 0.0
C779 C 0.14903 0.78001 0.75379 0.0
loop_
_geom_bond_atom_site_label_1
_geom_bond_atom_site_label_2
_geom_bond_distance
_geom_bond_site_symmetry_2
_ccdc_geom_bond_type
C0 C1 1.386 . S
C0 C2 1.397 . S
C0 H24 0.931 . S
C1 C0 1.386 . S
C1 C5 1.397 . S
C2 C0 1.397 . S
C2 C3 1.384 . S
C2 H25 0.930 . S
C3 C2 1.384 . S
C3 C4 1.377 . S
C3 C6 1.481 . S
C4 C3 1.377 . S
C4 C5 1.389 . S
C4 H26 0.929 . S
C5 C1 1.397 . S
C5 C4 1.389 . S
C5 H27 0.931 . S
C6 C3 1.481 . S
C6 C7 1.387 . S
C6 C11 1.390 . S
C7 C6 1.387 . S
C7 C8 1.401 . S
C7 H28 0.930 . S
C8 C7 1.401 . S
C8 C9 1.376 . S
C8 C17 1.511 . S
C9 C8 1.376 . S
C9 C10 1.392 . S
C9 H30 0.931 . S
C10 C9 1.392 . S
C10 C11 1.361 . S
C10 C12 1.500 . S
C11 C6 1.390 . S
C11 C10 1.361 . S
C11 H29 0.931 . S
C12 C10 1.500 . S
C12 C13 1.371 . S
C12 C14 1.365 . S
C13 C12 1.371 . S
C13 C23 1.386 . S
C13 H31 0.931 . S
C14 C12 1.365 . S
C14 C15 1.409 . S
C14 H32 0.929 . S
C15 C14 1.409 . S
C15 C16 1.380 . S
C15 H33 0.930 . S
C16 C15 1.380 . S
C16 C23 1.357 . S
C17 C8 1.511 . S
C17 C18 1.341 . S
C17 C19 1.371 . S
C18 C17 1.341 . S
C18 C22 1.394 . S
C18 H34 0.930 . S
C19 C17 1.371 . S
C19 C20 1.392 . S
C19 H35 0.931 . S
C20 C19 1.392 . S
C20 C21 1.331 . S
C20 H38 0.932 . S
C21 C20 1.331 . S
C21 C22 1.336 . S
C22 C18 1.394 . S
C22 C21 1.336 . S
C22 H37 0.929 . S
C23 C13 1.386 . S
C23 C16 1.357 . S
C23 H36 0.928 . S
H24 C0 0.931 . S
H25 C2 0.930 . S
H26 C4 0.929 . S
H27 C5 0.931 . S
H28 C7 0.930 . S
H29 C11 0.931 . S
H30 C9 0.931 . S
H31 C13 0.931 . S
H32 C14 0.929 . S
H33 C15 0.930 . S
H34 C18 0.930 . S
H35 C19 0.931 . S
H36 C23 0.928 . S
H37 C22 0.929 . S
H38 C20 0.932 . S
C39 C40 1.386 . S
C39 C41 1.397 . S
C39 H63 0.931 . S
C40 C39 1.386 . S
C40 C44 1.397 . S
C41 C39 1.397 . S
C41 C42 1.384 . S
C41 H64 0.930 . S
C42 C41 1.384 . S
C42 C43 1.377 . S
C42 C45 1.481 . S
C43 C42 1.377 . S
C43 C44 1.389 . S
C43 H65 0.929 . S
C44 C40 1.397 . S
C44 C43 1.389 . S
C44 H66 0.931 . S
C45 C42 1.481 . S
C45 C46 1.387 . S
C45 C50 1.390 . S
C46 C45 1.387 . S
C46 C47 1.401 . S
C46 H67 0.930 . S
C47 C46 1.401 . S
C47 C48 1.376 . S
C47 C56 1.511 . S
C48 C47 1.376 . S
C48 C49 1.392 . S
C48 H69 0.931 . S
C49 C48 1.392 . S
C49 C50 1.361 . S
C49 C51 1.500 . S
C50 C45 1.390 . S
C50 C49 1.361 . S
C50 H68 0.931 . S
C51 C49 1.500 . S
C51 C52 1.371 . S
C51 C53 1.365 . S
C52 C51 1.371 . S
C52 C62 1.386 1_556 S
C52 H70 0.931 . S
C53 C51 1.365 . S
C53 C54 1.409 . S
C53 H71 0.929 . S
C54 C53 1.409 . S
C54 C55 1.380 1_556 S
C54 H72 0.934 . S
C55 C54 1.380 1_554 S
C55 C62 1.357 . S
C56 C47 1.511 . S
C56 C57 1.341 . S
C56 C58 1.371 . S
C57 C56 1.341 . S
C57 C61 1.394 . S
C57 H73 0.930 . S
C58 C56 1.371 . S
C58 C59 1.392 . S
C58 H74 0.931 . S
C59 C58 1.392 . S
C59 C60 1.331 . S
C59 H77 0.932 . S
C60 C59 1.331 . S
C60 C61 1.336 . S
C61 C57 1.394 . S
C61 C60 1.336 . S
C61 H76 0.929 . S
C62 C52 1.386 1_554 S
C62 C55 1.357 . S
C62 H75 0.928 . S
H63 C39 0.931 . S
H64 C41 0.930 . S
H65 C43 0.929 . S
H66 C44 0.931 . S
H67 C46 0.930 . S
H68 C50 0.931 . S
H69 C48 0.931 . S
H70 C52 0.931 . S
H71 C53 0.929 . S
H72 C54 0.934 . S
H73 C57 0.930 . S
H74 C58 0.931 . S
H75 C62 0.928 . S
H76 C61 0.929 . S
H77 C59 0.932 . S
C78 C79 1.386 . S
C78 C80 1.397 . S
C78 H102 0.931 . S
C79 C78 1.386 . S
C79 C83 1.397 . S
C80 C78 1.397 . S
C80 C81 1.384 . S
C80 H103 0.930 . S
C81 C80 1.384 . S
C81 C82 1.377 . S
C81 C84 1.481 . S
C82 C81 1.377 . S
C82 C83 1.389 . S
C82 H104 0.929 . S
C83 C79 1.397 . S
C83 C82 1.389 . S
C83 H105 0.931 . S
C84 C81 1.481 . S
C84 C85 1.387 . S
C84 C89 1.390 . S
C85 C84 1.387 . S
C85 C86 1.401 . S
C85 H106 0.930 . S
C86 C85 1.401 . S
C86 C87 1.376 . S
C86 C95 1.511 . S
C87 C86 1.376 . S
C87 C88 1.392 . S
C87 H108 0.931 . S
C88 C87 1.392 . S
C88 C89 1.361 . S
C88 C90 1.500 . S
C89 C84 1.390 . S
C89 C88 1.361 . S
C89 H107 0.931 . S
C90 C88 1.500 . S
C90 C91 1.371 . S
C90 C92 1.365 . S
C91 C90 1.371 . S
C91 C101 1.386 . S
C91 H109 0.931 . S
C92 C90 1.365 . S
C92 C93 1.409 . S
C92 H110 0.929 . S
C93 C92 1.409 . S
C93 C94 1.380 . S
C93 H111 0.930 . S
C94 C93 1.380 . S
C94 C101 1.357 . S
C95 C86 1.511 . S
C95 C96 1.341 . S
C95 C97 1.371 . S
C96 C95 1.341 . S
C96 C100 1.394 . S
C96 H112 0.930 . S
C97 C95 1.371 . S
C97 C98 1.392 . S
C97 H113 0.931 . S
C98 C97 1.392 . S
C98 C99 1.331 . S
C98 H116 0.932 . S
C99 C98 1.331 . S
C99 C100 1.336 . S
C100 C96 1.394 . S
C100 C99 1.336 . S
C100 H115 0.929 . S
C101 C91 1.386 . S
C101 C94 1.357 . S
C101 H114 0.928 . S
H102 C78 0.931 . S
H103 C80 0.930 . S
H104 C82 0.929 . S
H105 C83 0.931 . S
H106 C85 0.930 . S
H107 C89 0.931 . S
H108 C87 0.931 . S
H109 C91 0.931 . S
H110 C92 0.929 . S
H111 C93 0.930 . S
H112 C96 0.930 . S
H113 C97 0.931 . S
H114 C101 0.928 . S
H115 C100 0.929 . S
H116 C98 0.932 . S
C117 C118 1.386 . S
C117 C119 1.397 . S
C117 H141 0.931 . S
C118 C117 1.386 . S
C118 C122 1.397 . S
C119 C117 1.397 . S
C119 C120 1.384 . S
C119 H142 0.930 . S
C120 C119 1.384 . S
C120 C121 1.377 . S
C120 C123 1.481 . S
C121 C120 1.377 . S
C121 C122 1.389 . S
C121 H143 0.929 . S
C122 C118 1.397 . S
C122 C121 1.389 . S
C122 H144 0.931 . S
C123 C120 1.481 . S
C123 C124 1.387 . S
C123 C128 1.390 . S
C124 C123 1.387 . S
C124 C125 1.401 . S
C124 H145 0.930 . S
C125 C124 1.401 . S
C125 C126 1.376 . S
C125 C134 1.511 . S
C126 C125 1.376 . S
C126 C127 1.392 . S
C126 H147 0.931 . S
C127 C126 1.392 . S
C127 C128 1.361 . S
C127 C129 1.500 . S
C128 C123 1.390 . S
C128 C127 1.361 . S
C128 H146 0.931 . S
C129 C127 1.500 . S
C129 C130 1.371 . S
C129 C131 1.365 . S
C130 C129 1.371 . S
C130 C140 1.386 1_554 S
C130 H148 0.931 . S
C131 C129 1.365 . S
C131 C132 1.409 . S
C131 H149 0.929 . S
C132 C131 1.409 . S
C132 C133 1.380 1_554 S
C132 H150 0.930 . S
C133 C132 1.380 1_556 S
C133 C140 1.357 . S
C134 C125 1.511 . S
C134 C135 1.341 . S
C134 C136 1.371 . S
C135 C134 1.341 . S
C135 C139 1.394 . S
C135 H151 0.930 . S
C136 C134 1.371 . S
C136 C137 1.392 . S
C136 H152 0.931 . S
C137 C136 1.392 . S
C137 C138 1.331 . S
C137 H155 0.932 . S
C138 C137 1.331 . S
C138 C139 1.336 . S
C139 C135 1.394 . S
C139 C138 1.336 . S
C139 H154 0.929 . S
C140 C130 1.386 1_556 S
C140 C133 1.357 . S
C140 H153 0.928 . S
H141 C117 0.931 . S
H142 C119 0.930 . S
H143 C121 0.929 . S
H144 C122 0.931 . S
H145 C124 0.930 . S
H146 C128 0.931 . S
H147 C126 0.931 . S
H148 C130 0.931 . S
H149 C131 0.929 . S
H150 C132 0.930 . S
H151 C135 0.930 . S
H152 C136 0.931 . S
H153 C140 0.928 . S
H154 C139 0.929 . S
H155 C137 0.932 . S
C156 C157 1.386 . S
C156 C158 1.397 . S
C156 H180 0.931 . S
C157 C156 1.386 . S
C157 C161 1.397 . S
C158 C156 1.397 . S
C158 C159 1.384 . S
C158 H181 0.930 . S
C159 C158 1.384 . S
C159 C160 1.377 . S
C159 C162 1.481 . S
C160 C159 1.377 . S
C160 C161 1.389 . S
C160 H182 0.929 . S
C161 C157 1.397 . S
C161 C160 1.389 . S
C161 H183 0.931 . S
C162 C159 1.481 . S
C162 C163 1.387 . S
C162 C167 1.390 . S
C163 C162 1.387 . S
C163 C164 1.401 . S
C163 H184 0.930 . S
C164 C163 1.401 . S
C164 C165 1.376 . S
C164 C173 1.511 . S
C165 C164 1.376 . S
C165 C166 1.392 . S
C165 H186 0.931 . S
C166 C165 1.392 . S
C166 C167 1.361 . S
C166 C168 1.500 . S
C167 C162 1.390 . S
C167 C166 1.361 . S
C167 H185 0.931 . S
C168 C166 1.500 . S
C168 C169 1.371 . S
C168 C170 1.365 . S
C169 C168 1.371 . S
C169 C179 1.386 . S
C169 H187 0.931 . S
C170 C168 1.365 . S
C170 C171 1.409 . S
C170 H188 0.929 . S
C171 C170 1.409 . S
C171 C172 1.380 . S
C171 H189 0.930 . S
C172 C171 1.380 . S
C172 C179 1.357 . S
C173 C164 1.511 . S
C173 C174 1.341 . S
C173 C175 1.371 . S
C174 C173 1.341 . S
C174 C178 1.394 . S
C174 H190 0.930 . S
C175 C173 1.371 . S
C175 C176 1.392 . S
C175 H191 0.931 . S
C176 C175 1.392 . S
C176 C177 1.331 . S
C176 H194 0.932 . S
C177 C176 1.331 . S
C177 C178 1.336 . S
C178 C174 1.394 . S
C178 C177 1.336 . S
C178 H193 0.929 . S
C179 C169 1.386 . S
C179 C172 1.357 . S
C179 H192 0.928 . S
H180 C156 0.931 . S
H181 C158 0.930 . S
H182 C160 0.929 . S
H183 C161 0.931 . S
H184 C163 0.930 . S
H185 C167 0.931 . S
H186 C165 0.931 . S
H187 C169 0.931 . S
H188 C170 0.929 . S
H189 C171 0.930 . S
H190 C174 0.930 . S
H191 C175 0.931 . S
H192 C179 0.928 . S
H193 C178 0.929 . S
H194 C176 0.932 . S
C195 C196 1.386 . S
C195 C197 1.397 1_556 S
C195 H219 0.931 . S
C196 C195 1.386 . S
C196 C200 1.397 1_556 S
C197 C195 1.397 1_554 S
C197 C198 1.384 . S
C197 H220 0.930 . S
C198 C197 1.384 . S
C198 C199 1.377 . S
C198 C201 1.481 . S
C199 C198 1.377 . S
C199 C200 1.389 . S
C199 H221 0.929 . S
C200 C196 1.397 1_554 S
C200 C199 1.389 . S
C200 H222 0.931 . S
C201 C198 1.481 . S
C201 C202 1.387 . S
C201 C206 1.390 . S
C202 C201 1.387 . S
C202 C203 1.401 . S
C202 H223 0.930 . S
C203 C202 1.401 . S
C203 C204 1.376 . S
C203 C212 1.511 . S
C204 C203 1.376 . S
C204 C205 1.392 . S
C204 H225 0.931 . S
C205 C204 1.392 . S
C205 C206 1.361 . S
C205 C207 1.500 . S
C206 C201 1.390 . S
C206 C205 1.361 . S
C206 H224 0.931 . S
C207 C205 1.500 . S
C207 C208 1.371 . S
C207 C209 1.365 . S
C208 C207 1.371 . S
C208 C218 1.386 . S
C208 H226 0.931 . S
C209 C207 1.365 . S
C209 C210 1.409 . S
C209 H227 0.929 . S
C210 C209 1.409 . S
C210 C211 1.380 . S
C210 H228 0.930 . S
C211 C210 1.380 . S
C211 C218 1.357 . S
C212 C203 1.511 . S
C212 C213 1.341 . S
C212 C214 1.371 . S
C213 C212 1.341 . S
C213 C217 1.394 . S
C213 H229 0.930 . S
C214 C212 1.371 . S
C214 C215 1.392 . S
C214 H230 0.931 . S
C215 C214 1.392 . S
C215 C216 1.331 . S
C215 H233 0.932 . S
C216 C215 1.331 . S
C216 C217 1.336 . S
C217 C213 1.394 . S
C217 C216 1.336 . S
C217 H232 0.929 . S
C218 C208 1.386 . S
C218 C211 1.357 . S
C218 H231 0.928 . S
H219 C195 0.931 . S
H220 C197 0.930 . S
H221 C199 0.929 . S
H222 C200 0.931 . S
H223 C202 0.930 . S
H224 C206 0.931 . S
H225 C204 0.931 . S
H226 C208 0.931 . S
H227 C209 0.929 . S
H228 C210 0.930 . S
H229 C213 0.930 . S
H230 C214 0.931 . S
H231 C218 0.928 . S
H232 C217 0.929 . S
H233 C215 0.932 . S
C234 C235 1.386 . S
C234 C236 1.397 . S
C234 H258 0.931 . S
C235 C234 1.386 . S
C235 C239 1.397 . S
C236 C234 1.397 . S
C236 C237 1.384 . S
C236 H259 0.930 . S
C237 C236 1.384 . S
C237 C238 1.377 . S
C237 C240 1.481 . S
C238 C237 1.377 . S
C238 C239 1.389 . S
C238 H260 0.929 . S
C239 C235 1.397 . S
C239 C238 1.389 . S
C239 H261 0.931 . S
C240 C237 1.481 . S
C240 C241 1.387 . S
C240 C245 1.390 . S
C241 C240 1.387 . S
C241 C242 1.401 . S
C241 H262 0.930 . S
C242 C241 1.401 . S
C242 C243 1.376 . S
C242 C251 1.511 . S
C243 C242 1.376 . S
C243 C244 1.392 . S
C243 H264 0.931 . S
C244 C243 1.392 . S
C244 C245 1.361 . S
C244 C246 1.500 . S
C245 C240 1.390 . S
C245 C244 1.361 . S
C245 H263 0.931 . S
C246 C244 1.500 . S
C246 C247 1.371 . S
C246 C248 1.365 . S
C247 C246 1.371 . S
C247 C257 1.386 . S
C247 H265 0.931 . S
C248 C246 1.365 . S
C248 C249 1.409 . S
C248 H266 0.929 . S
C249 C248 1.409 . S
C249 C250 1.380 . S
C249 H267 0.930 . S
C250 C249 1.380 . S
C250 C257 1.357 . S
C251 C242 1.511 . S
C251 C252 1.341 . S
C251 C253 1.371 . S
C252 C251 1.341 . S
C252 C256 1.394 . S
C252 H268 0.930 . S
C253 C251 1.371 . S
C253 C254 1.392 . S
C253 H269 0.931 . S
C254 C253 1.392 . S
C254 C255 1.331 . S
C254 H272 0.932 . S
C255 C254 1.331 . S
C255 C256 1.336 . S
C256 C252 1.394 . S
C256 C255 1.336 . S
C256 H271 0.929 . S
C257 C247 1.386 . S
C257 C250 1.357 . S
C257 H270 0.928 . S
H258 C234 0.931 . S
H259 C236 0.930 . S
H260 C238 0.929 . S
H261 C239 0.931 . S
H262 C241 0.930 . S
H263 C245 0.931 . S
H264 C243 0.931 . S
H265 C247 0.931 . S
H266 C248 0.929 . S
H267 C249 0.930 . S
H268 C252 0.930 . S
H269 C253 0.931 . S
H270 C257 0.928 . S
H271 C256 0.929 . S
H272 C254 0.932 . S
C273 C274 1.386 . S
C273 C275 1.397 1_554 S
C273 H297 0.931 . S
C274 C273 1.386 . S
C274 C278 1.397 1_554 S
C275 C273 1.397 1_556 S
C275 C276 1.384 . S
C275 H298 0.930 . S
C276 C275 1.384 . S
C276 C277 1.377 . S
C276 C279 1.481 . S
C277 C276 1.377 . S
C277 C278 1.389 . S
C277 H299 0.929 . S
C278 C274 1.397 1_556 S
C278 C277 1.389 . S
C278 H300 0.931 . S
C279 C276 1.481 . S
C279 C280 1.387 . S
C279 C284 1.390 . S
C280 C279 1.387 . S
C280 C281 1.401 . S
C280 H301 0.930 . S
C281 C280 1.401 . S
C281 C282 1.376 . S
C281 C290 1.511 . S
C282 C281 1.376 . S
C282 C283 1.392 . S
C282 H303 0.931 . S
C283 C282 1.392 . S
C283 C284 1.361 . S
C283 C285 1.500 . S
C284 C279 1.390 . S
C284 C283 1.361 . S
C284 H302 0.931 . S
C285 C283 1.500 . S
C285 C286 1.371 . S
C285 C287 1.365 . S
C286 C285 1.371 . S
C286 C296 1.386 . S
C286 H304 0.931 . S
C287 C285 1.365 . S
C287 C288 1.409 . S
C287 H305 0.929 . S
C288 C287 1.409 . S
C288 C289 1.380 . S
C288 H306 0.930 . S
C289 C288 1.380 . S
C289 C296 1.357 . S
C290 C281 1.511 . S
C290 C291 1.341 . S
C290 C292 1.371 . S
C291 C290 1.341 . S
C291 C295 1.394 . S
C291 H307 0.930 . S
C292 C290 1.371 . S
C292 C293 1.392 . S
C292 H308 0.931 . S
C293 C292 1.392 . S
C293 C294 1.331 . S
C293 H311 0.932 . S
C294 C293 1.331 . S
C294 C295 1.336 . S
C295 C291 1.394 . S
C295 C294 1.336 . S
C295 H310 0.929 . S
C296 C286 1.386 . S
C296 C289 1.357 . S
C296 H309 0.928 . S
H297 C273 0.931 . S
H298 C275 0.930 . S
H299 C277 0.929 . S
H300 C278 0.931 . S
H301 C280 0.930 . S
H302 C284 0.931 . S
H303 C282 0.931 . S
H304 C286 0.931 . S
H305 C287 0.929 . S
H306 C288 0.930 . S
H307 C291 0.930 . S
H308 C292 0.931 . S
H309 C296 0.928 . S
H310 C295 0.929 . S
H311 C293 0.932 . S
Zn312 O318 1.920 1_455 S
Zn312 O324 1.898 . S
Zn312 O327 1.905 . S
Zn313 O321 1.905 1_655 S
Zn313 O322 1.898 . S
Zn313 O330 1.920 . S
Zn314 O317 2.080 1_455 S
Zn314 O320 2.114 . S
Zn314 O323 2.120 1_455 S
Zn314 O325 2.120 . S
Zn314 O326 2.114 . S
Zn314 O329 2.080 1_455 S
C315 O320 1.166 . S
C315 O321 1.182 . S
C316 O322 1.167 . S
C316 O323 1.299 . S
O317 Zn314 2.080 1_655 S
O317 C331 1.305 . S
O318 Zn312 1.920 1_655 S
O318 C331 1.234 . S
C319 O324 1.167 . S
C319 O325 1.299 . S
O320 Zn314 2.114 . S
O320 C315 1.166 . S
O321 Zn313 1.905 1_455 S
O321 C315 1.182 . S
O322 Zn313 1.898 . S
O322 C316 1.167 . S
O323 Zn314 2.120 1_655 S
O323 C316 1.299 . S
O324 Zn312 1.898 . S
O324 C319 1.167 . S
O325 Zn314 2.120 . S
O325 C319 1.299 . S
O326 Zn314 2.114 . S
O326 C328 1.166 . S
O327 Zn312 1.905 . S
O327 C328 1.182 . S
C328 O326 1.166 . S
C328 O327 1.182 . S
O329 Zn314 2.080 1_655 S
O329 C332 1.305 . S
O330 Zn313 1.920 . S
O330 C332 1.234 . S
C331 O317 1.305 . S
C331 O318 1.234 . S
C332 O329 1.305 . S
C332 O330 1.234 . S
Zn333 O339 1.920 . S
Zn333 O345 1.898 . S
Zn333 O348 1.905 . S
Zn334 O342 1.905 . S
Zn334 O343 1.898 . S
Zn334 O351 1.920 . S
Zn335 O338 2.080 . S
Zn335 O341 2.114 . S
Zn335 O344 2.120 . S
Zn335 O346 2.120 . S
Zn335 O347 2.114 . S
Zn335 O350 2.080 . S
C336 O341 1.166 . S
C336 O342 1.182 . S
C337 O343 1.167 . S
C337 O344 1.299 . S
O338 Zn335 2.080 . S
O338 C352 1.305 . S
O339 Zn333 1.920 . S
O339 C352 1.234 . S
C340 O345 1.167 . S
C340 O346 1.299 . S
O341 Zn335 2.114 . S
O341 C336 1.166 . S
O342 Zn334 1.905 . S
O342 C336 1.182 . S
O343 Zn334 1.898 . S
O343 C337 1.167 . S
O344 Zn335 2.120 . S
O344 C337 1.299 . S
O345 Zn333 1.898 . S
O345 C340 1.167 . S
O346 Zn335 2.120 . S
O346 C340 1.299 . S
O347 Zn335 2.114 . S
O347 C349 1.166 . S
O348 Zn333 1.905 . S
O348 C349 1.182 . S
C349 O347 1.166 . S
C349 O348 1.182 . S
O350 Zn335 2.080 . S
O350 C353 1.305 . S
O351 Zn334 1.920 . S
O351 C353 1.234 . S
C352 O338 1.305 . S
C352 O339 1.234 . S
C353 O350 1.305 . S
C353 O351 1.234 . S
Zn354 O360 1.920 . S
Zn354 O366 1.898 . S
Zn354 O369 1.905 1_455 S
Zn355 O363 1.905 . S
Zn355 O364 1.898 . S
Zn355 O372 1.920 1_655 S
Zn356 O359 2.088 . S
Zn356 O362 2.105 1_455 S
Zn356 O365 2.112 1_455 S
Zn356 O367 2.129 . S
Zn356 O368 2.107 1_455 S
Zn356 O371 2.087 . S
C357 O362 1.166 . S
C357 O363 1.182 . S
C358 O364 1.167 . S
C358 O365 1.299 . S
O359 Zn356 2.088 . S
O359 C373 1.305 . S
O360 Zn354 1.920 . S
O360 C373 1.234 . S
C361 O366 1.167 . S
C361 O367 1.299 . S
O362 Zn356 2.105 1_655 S
O362 C357 1.166 . S
O363 Zn355 1.905 . S
O363 C357 1.182 . S
O364 Zn355 1.898 . S
O364 C358 1.167 . S
O365 Zn356 2.112 1_655 S
O365 C358 1.299 . S
O366 Zn354 1.898 . S
O366 C361 1.167 . S
O367 Zn356 2.129 . S
O367 C361 1.299 . S
O368 Zn356 2.107 1_655 S
O368 C370 1.166 . S
O369 Zn354 1.905 1_655 S
O369 C370 1.182 . S
C370 O368 1.166 . S
C370 O369 1.182 . S
O371 Zn356 2.087 . S
O371 C374 1.305 . S
O372 Zn355 1.920 1_455 S
O372 C374 1.234 . S
C373 O359 1.305 . S
C373 O360 1.234 . S
C374 O371 1.305 . S
C374 O372 1.234 . S
Zn375 O381 1.920 . S
Zn375 O387 1.898 . S
Zn375 O390 1.905 . S
Zn376 O384 1.905 . S
Zn376 O385 1.898 . S
Zn376 O393 1.920 . S
Zn377 O380 2.080 . S
Zn377 O383 2.114 . S
Zn377 O386 2.120 . S
Zn377 O388 2.120 . S
Zn377 O389 2.114 . S
Zn377 O392 2.080 . S
C378 O383 1.166 . S
C378 O384 1.182 . S
C379 O385 1.167 . S
C379 O386 1.299 . S
O380 Zn377 2.080 . S
O380 C394 1.305 . S
O381 Zn375 1.920 . S
O381 C394 1.234 . S
C382 O387 1.167 . S
C382 O388 1.299 . S
O383 Zn377 2.114 . S
O383 C378 1.166 . S
O384 Zn376 1.905 . S
O384 C378 1.182 . S
O385 Zn376 1.898 . S
O385 C379 1.167 . S
O386 Zn377 2.120 . S
O386 C379 1.299 . S
O387 Zn375 1.898 . S
O387 C382 1.167 . S
O388 Zn377 2.120 . S
O388 C382 1.299 . S
O389 Zn377 2.114 . S
O389 C391 1.166 . S
O390 Zn375 1.905 . S
O390 C391 1.182 . S
C391 O389 1.166 . S
C391 O390 1.182 . S
O392 Zn377 2.080 . S
O392 C395 1.305 . S
O393 Zn376 1.920 . S
O393 C395 1.234 . S
C394 O380 1.305 . S
C394 O381 1.234 . S
C395 O392 1.305 . S
C395 O393 1.234 . S
H396 C402 0.930 . S
H397 C405 0.930 . S
H398 C406 0.930 . S
H399 C407 0.930 . S
H400 C410 0.930 . S
H401 C411 0.930 . S
C402 H396 0.930 . S
C402 C403 1.355 . S
C402 C404 1.415 1_565 S
C403 C402 1.355 . S
C403 C405 1.419 . S
C404 C402 1.415 1_545 S
C404 C409 1.425 . S
C404 C411 1.409 . S
C405 H397 0.930 . S
C405 C403 1.419 . S
C405 C406 1.362 1_565 S
C406 H398 0.930 . S
C406 C405 1.362 1_545 S
C406 C409 1.409 . S
C407 H399 0.930 . S
C407 C408 1.355 . S
C407 C409 1.415 . S
C408 C407 1.355 . S
C408 C410 1.419 . S
C409 C404 1.425 . S
C409 C406 1.409 . S
C409 C407 1.415 . S
C410 H400 0.930 . S
C410 C408 1.419 . S
C410 C411 1.362 . S
C411 H401 0.930 . S
C411 C404 1.409 . S
C411 C410 1.362 . S
H412 C418 0.930 . S
H413 C421 0.930 . S
H414 C422 0.930 . S
H415 C423 0.930 . S
H416 C426 0.930 . S
H417 C427 0.930 . S
C418 H412 0.930 . S
C418 C419 1.355 . S
C418 C420 1.415 . S
C419 C418 1.355 . S
C419 C421 1.419 . S
C420 C418 1.415 . S
C420 C425 1.425 . S
C420 C427 1.409 . S
C421 H413 0.930 . S
C421 C419 1.419 . S
C421 C422 1.362 . S
C422 H414 0.930 . S
C422 C421 1.362 . S
C422 C425 1.409 . S
C423 H415 0.930 . S
C423 C424 1.355 . S
C423 C425 1.415 . S
C424 C423 1.355 . S
C424 C426 1.419 . S
C425 C420 1.425 . S
C425 C422 1.409 . S
C425 C423 1.415 . S
C426 H416 0.930 . S
C426 C424 1.419 . S
C426 C427 1.362 . S
C427 H417 0.930 . S
C427 C420 1.409 . S
C427 C426 1.362 . S
H428 C434 0.930 . S
H429 C437 0.930 . S
H430 C438 0.930 . S
H431 C439 0.930 . S
H432 C442 0.930 . S
H433 C443 0.930 . S
C434 H428 0.930 . S
C434 C435 1.355 . S
C434 C436 1.415 . S
C435 C434 1.355 . S
C435 C437 1.419 . S
C436 C434 1.415 . S
C436 C441 1.425 . S
C436 C443 1.409 . S
C437 H429 0.930 . S
C437 C435 1.419 . S
C437 C438 1.362 . S
C438 H430 0.930 . S
C438 C437 1.362 . S
C438 C441 1.409 . S
C439 H431 0.930 . S
C439 C440 1.355 . S
C439 C441 1.415 . S
C440 C439 1.355 . S
C440 C442 1.419 . S
C441 C436 1.425 . S
C441 C438 1.409 . S
C441 C439 1.415 . S
C442 H432 0.930 . S
C442 C440 1.419 . S
C442 C443 1.362 . S
C443 H433 0.930 . S
C443 C436 1.409 . S
C443 C442 1.362 . S
H444 C450 0.930 . S
H445 C453 0.930 . S
H446 C454 0.930 . S
H447 C455 0.930 . S
H448 C458 0.930 1_455 S
H449 C459 0.930 . S
C450 H444 0.930 . S
C450 C451 1.355 . S
C450 C452 1.415 1_565 S
C451 C450 1.355 . S
C451 C453 1.419 . S
C452 C450 1.415 1_545 S
C452 C457 1.425 . S
C452 C459 1.409 . S
C453 H445 0.930 . S
C453 C451 1.419 . S
C453 C454 1.362 1_565 S
C454 H446 0.930 . S
C454 C453 1.362 1_545 S
C454 C457 1.409 . S
C455 H447 0.930 . S
C455 C456 1.355 . S
C455 C457 1.415 . S
C456 C455 1.355 . S
C456 C458 1.419 . S
C457 C452 1.425 . S
C457 C454 1.409 . S
C457 C455 1.415 . S
C458 H448 0.930 1_655 S
C458 C456 1.419 . S
C458 C459 1.362 . S
C459 H449 0.930 . S
C459 C452 1.409 . S
C459 C458 1.362 . S
H460 C466 0.927 1_565 S
H461 C469 0.930 . S
H462 C470 0.930 . S
H463 C471 0.930 . S
H464 C474 0.930 . S
H465 C475 0.930 . S
C466 H460 0.927 1_545 S
C466 C467 1.355 . S
C466 C468 1.415 1_545 S
C467 C466 1.355 . S
C467 C469 1.419 . S
C468 C466 1.415 1_565 S
C468 C473 1.425 . S
C468 C475 1.409 . S
C469 H461 0.930 . S
C469 C467 1.419 . S
C469 C470 1.362 . S
C470 H462 0.930 . S
C470 C469 1.362 . S
C470 C473 1.409 1_545 S
C471 H463 0.930 . S
C471 C472 1.355 . S
C471 C473 1.415 . S
C472 C471 1.355 . S
C472 C474 1.419 . S
C473 C468 1.425 . S
C473 C470 1.409 1_565 S
C473 C471 1.415 . S
C474 H464 0.930 . S
C474 C472 1.419 . S
C474 C475 1.362 . S
C475 H465 0.930 . S
C475 C468 1.409 . S
C475 C474 1.362 . S
H476 C482 0.930 . S
H477 C485 0.930 . S
H478 C486 0.930 . S
H479 C487 0.930 . S
H480 C490 0.930 . S
H481 C491 0.930 . S
C482 H476 0.930 . S
C482 C483 1.355 . S
C482 C484 1.415 . S
C483 C482 1.355 . S
C483 C485 1.419 . S
C484 C482 1.415 . S
C484 C489 1.425 . S
C484 C491 1.409 . S
C485 H477 0.930 . S
C485 C483 1.419 . S
C485 C486 1.362 . S
C486 H478 0.930 . S
C486 C485 1.362 . S
C486 C489 1.409 . S
C487 H479 0.930 . S
C487 C488 1.355 . S
C487 C489 1.415 . S
C488 C487 1.355 . S
C488 C490 1.419 . S
C489 C484 1.425 . S
C489 C486 1.409 . S
C489 C487 1.415 . S
C490 H480 0.930 . S
C490 C488 1.419 . S
C490 C491 1.362 . S
C491 H481 0.930 . S
C491 C484 1.409 . S
C491 C490 1.362 . S
H492 C498 0.930 . S
H493 C501 0.930 . S
H494 C502 0.930 . S
H495 C503 0.930 . S
H496 C506 0.930 . S
H497 C507 0.930 . S
C498 H492 0.930 . S
C498 C499 1.355 . S
C498 C500 1.415 . S
C499 C498 1.355 . S
C499 C501 1.419 . S
C500 C498 1.415 . S
C500 C505 1.425 . S
C500 C507 1.409 . S
C501 H493 0.930 . S
C501 C499 1.419 . S
C501 C502 1.362 . S
C502 H494 0.930 . S
C502 C501 1.362 . S
C502 C505 1.409 . S
C503 H495 0.930 . S
C503 C504 1.355 . S
C503 C505 1.415 . S
C504 C503 1.355 . S
C504 C506 1.419 . S
C505 C500 1.425 . S
C505 C502 1.409 . S
C505 C503 1.415 . S
C506 H496 0.930 . S
C506 C504 1.419 . S
C506 C507 1.362 . S
C507 H497 0.930 . S
C507 C500 1.409 . S
C507 C506 1.362 . S
H508 C514 0.930 . S
H509 C517 0.930 . S
H510 C518 0.930 . S
H511 C519 0.930 . S
H512 C522 0.930 . S
H513 C523 0.930 . S
C514 H508 0.930 . S
C514 C515 1.355 . S
C514 C516 1.415 1_545 S
C515 C514 1.355 . S
C515 C517 1.419 . S
C516 C514 1.415 1_565 S
C516 C521 1.425 . S
C516 C523 1.409 . S
C517 H509 0.930 . S
C517 C515 1.419 . S
C517 C518 1.362 1_545 S
C518 H510 0.930 . S
C518 C517 1.362 1_565 S
C518 C521 1.409 . S
C519 H511 0.930 . S
C519 C520 1.355 . S
C519 C521 1.415 . S
C520 C519 1.355 . S
C520 C522 1.419 . S
C521 C516 1.425 . S
C521 C518 1.409 . S
C521 C519 1.415 . S
C522 H512 0.930 . S
C522 C520 1.419 . S
C522 C523 1.362 . S
C523 H513 0.930 . S
C523 C516 1.409 . S
C523 C522 1.362 . S
H524 C530 0.930 . S
H525 C533 0.930 . S
H526 C534 0.930 . S
H527 C535 0.930 . S
H528 C538 0.930 . S
H529 C539 0.930 . S
C530 H524 0.930 . S
C530 C531 1.355 . S
C530 C532 1.415 . S
C531 C530 1.355 . S
C531 C533 1.419 . S
C532 C530 1.415 . S
C532 C537 1.425 . S
C532 C539 1.409 . S
C533 H525 0.930 . S
C533 C531 1.419 . S
C533 C534 1.362 . S
C534 H526 0.930 . S
C534 C533 1.362 . S
C534 C537 1.409 . S
C535 H527 0.930 . S
C535 C536 1.355 . S
C535 C537 1.415 . S
C536 C535 1.355 . S
C536 C538 1.419 . S
C537 C532 1.425 . S
C537 C534 1.409 . S
C537 C535 1.415 . S
C538 H528 0.930 . S
C538 C536 1.419 . S
C538 C539 1.362 . S
C539 H529 0.930 . S
C539 C532 1.409 . S
C539 C538 1.362 . S
H540 C546 0.930 . S
H541 C549 0.930 . S
H542 C550 0.930 . S
H543 C551 0.930 . S
H544 C554 0.930 . S
H545 C555 0.930 . S
C546 H540 0.930 . S
C546 C547 1.355 . S
C546 C548 1.415 . S
C547 C546 1.355 . S
C547 C549 1.419 . S
C548 C546 1.415 . S
C548 C553 1.425 . S
C548 C555 1.409 . S
C549 H541 0.930 . S
C549 C547 1.419 . S
C549 C550 1.362 . S
C550 H542 0.930 . S
C550 C549 1.362 . S
C550 C553 1.409 . S
C551 H543 0.930 . S
C551 C552 1.355 . S
C551 C553 1.415 . S
C552 C551 1.355 . S
C552 C554 1.419 . S
C553 C548 1.425 . S
C553 C550 1.409 . S
C553 C551 1.415 . S
C554 H544 0.930 . S
C554 C552 1.419 . S
C554 C555 1.362 . S
C555 H545 0.930 . S
C555 C548 1.409 . S
C555 C554 1.362 . S
H556 C562 0.930 . S
H557 C565 0.930 . S
H558 C566 0.930 . S
H559 C567 0.930 . S
H560 C570 0.930 . S
H561 C571 0.930 . S
C562 H556 0.930 . S
C562 C563 1.355 . S
C562 C564 1.415 . S
C563 C562 1.355 . S
C563 C565 1.419 . S
C564 C562 1.415 . S
C564 C569 1.425 . S
C564 C571 1.409 . S
C565 H557 0.930 . S
C565 C563 1.419 . S
C565 C566 1.362 . S
C566 H558 0.930 . S
C566 C565 1.362 . S
C566 C569 1.409 . S
C567 H559 0.930 . S
C567 C568 1.355 . S
C567 C569 1.415 . S
C568 C567 1.355 . S
C568 C570 1.419 . S
C569 C564 1.425 . S
C569 C566 1.409 . S
C569 C567 1.415 . S
C570 H560 0.930 . S
C570 C568 1.419 . S
C570 C571 1.362 . S
C571 H561 0.930 . S
C571 C564 1.409 . S
C571 C570 1.362 . S
H572 C578 0.930 . S
H573 C581 0.930 . S
H574 C582 0.930 . S
H575 C583 0.930 . S
H576 C586 0.930 . S
H577 C587 0.930 . S
C578 H572 0.930 . S
C578 C579 1.355 . S
C578 C580 1.415 . S
C579 C578 1.355 . S
C579 C581 1.419 . S
C580 C578 1.415 . S
C580 C585 1.425 . S
C580 C587 1.409 . S
C581 H573 0.930 . S
C581 C579 1.419 . S
C581 C582 1.362 . S
C582 H574 0.930 . S
C582 C581 1.362 . S
C582 C585 1.409 . S
C583 H575 0.930 . S
C583 C584 1.355 . S
C583 C585 1.415 . S
C584 C583 1.355 . S
C584 C586 1.419 . S
C585 C580 1.425 . S
C585 C582 1.409 . S
C585 C583 1.415 . S
C586 H576 0.930 . S
C586 C584 1.419 . S
C586 C587 1.362 . S
C587 H577 0.930 . S
C587 C580 1.409 . S
C587 C586 1.362 . S
H588 C594 0.930 . S
H589 C597 0.930 . S
H590 C598 0.930 . S
H591 C599 0.930 . S
H592 C602 0.930 . S
H593 C603 0.930 . S
C594 H588 0.930 . S
C594 C595 1.355 . S
C594 C596 1.415 . S
C595 C594 1.355 . S
C595 C597 1.419 . S
C596 C594 1.415 . S
C596 C601 1.425 . S
C596 C603 1.409 . S
C597 H589 0.930 . S
C597 C595 1.419 . S
C597 C598 1.362 . S
C598 H590 0.930 . S
C598 C597 1.362 . S
C598 C601 1.409 . S
C599 H591 0.930 . S
C599 C600 1.355 . S
C599 C601 1.415 . S
C600 C599 1.355 . S
C600 C602 1.419 . S
C601 C596 1.425 . S
C601 C598 1.409 . S
C601 C599 1.415 . S
C602 H592 0.930 . S
C602 C600 1.419 . S
C602 C603 1.362 . S
C603 H593 0.930 . S
C603 C596 1.409 . S
C603 C602 1.362 . S
H604 C610 0.930 . S
H605 C613 0.930 . S
H606 C614 0.930 . S
H607 C615 0.930 . S
H608 C618 0.930 . S
H609 C619 0.930 . S
C610 H604 0.930 . S
C610 C611 1.355 . S
C610 C612 1.415 . S
C611 C610 1.355 . S
C611 C613 1.419 . S
C612 C610 1.415 . S
C612 C617 1.425 . S
C612 C619 1.409 . S
C613 H605 0.930 . S
C613 C611 1.419 . S
C613 C614 1.362 . S
C614 H606 0.930 . S
C614 C613 1.362 . S
C614 C617 1.409 . S
C615 H607 0.930 . S
C615 C616 1.355 . S
C615 C617 1.415 . S
C616 C615 1.355 . S
C616 C618 1.419 . S
C617 C612 1.425 . S
C617 C614 1.409 . S
C617 C615 1.415 . S
C618 H608 0.930 . S
C618 C616 1.419 . S
C618 C619 1.362 . S
C619 H609 0.930 . S
C619 C612 1.409 . S
C619 C618 1.362 . S
H620 C626 0.930 . S
H621 C629 0.930 . S
H622 C630 0.930 . S
H623 C631 0.930 . S
H624 C634 0.930 . S
H625 C635 0.930 . S
C626 H620 0.930 . S
C626 C627 1.355 . S
C626 C628 1.415 . S
C627 C626 1.355 . S
C627 C629 1.419 . S
C628 C626 1.415 . S
C628 C633 1.425 . S
C628 C635 1.409 . S
C629 H621 0.930 . S
C629 C627 1.419 . S
C629 C630 1.362 . S
C630 H622 0.930 . S
C630 C629 1.362 . S
C630 C633 1.409 . S
C631 H623 0.930 . S
C631 C632 1.355 . S
C631 C633 1.415 . S
C632 C631 1.355 . S
C632 C634 1.419 . S
C633 C628 1.425 . S
C633 C630 1.409 . S
C633 C631 1.415 . S
C634 H624 0.930 . S
C634 C632 1.419 . S
C634 C635 1.362 . S
C635 H625 0.930 . S
C635 C628 1.409 . S
C635 C634 1.362 . S
H636 C642 0.930 . S
H637 C645 0.930 . S
H638 C646 0.930 . S
H639 C647 0.930 . S
H640 C650 0.930 . S
H641 C651 0.930 . S
C642 H636 0.930 . S
C642 C643 1.355 . S
C642 C644 1.415 . S
C643 C642 1.355 . S
C643 C645 1.419 . S
C644 C642 1.415 . S
C644 C649 1.425 . S
C644 C651 1.409 . S
C645 H637 0.930 . S
C645 C643 1.419 . S
C645 C646 1.362 . S
C646 H638 0.930 . S
C646 C645 1.362 . S
C646 C649 1.409 . S
C647 H639 0.930 . S
C647 C648 1.355 . S
C647 C649 1.415 . S
C648 C647 1.355 . S
C648 C650 1.419 . S
C649 C644 1.425 . S
C649 C646 1.409 . S
C649 C647 1.415 . S
C650 H640 0.930 . S
C650 C648 1.419 . S
C650 C651 1.362 . S
C651 H641 0.930 . S
C651 C644 1.409 . S
C651 C650 1.362 . S
H652 C658 0.930 . S
H653 C661 0.930 . S
H654 C662 0.930 . S
H655 C663 0.930 . S
H656 C666 0.930 . S
H657 C667 0.930 . S
C658 H652 0.930 . S
C658 C659 1.355 . S
C658 C660 1.415 . S
C659 C658 1.355 . S
C659 C661 1.419 . S
C660 C658 1.415 . S
C660 C665 1.425 . S
C660 C667 1.409 . S
C661 H653 0.930 . S
C661 C659 1.419 . S
C661 C662 1.362 . S
C662 H654 0.930 . S
C662 C661 1.362 . S
C662 C665 1.409 . S
C663 H655 0.930 . S
C663 C664 1.355 . S
C663 C665 1.415 . S
C664 C663 1.355 . S
C664 C666 1.419 . S
C665 C660 1.425 . S
C665 C662 1.409 . S
C665 C663 1.415 . S
C666 H656 0.930 . S
C666 C664 1.419 . S
C666 C667 1.362 . S
C667 H657 0.930 . S
C667 C660 1.409 . S
C667 C666 1.362 . S
H668 C674 0.930 . S
H669 C677 0.930 . S
H670 C678 0.930 . S
H671 C679 0.930 . S
H672 C682 0.930 . S
H673 C683 0.930 . S
C674 H668 0.930 . S
C674 C675 1.355 . S
C674 C676 1.415 . S
C675 C674 1.355 . S
C675 C677 1.419 . S
C676 C674 1.415 . S
C676 C681 1.425 . S
C676 C683 1.409 . S
C677 H669 0.930 . S
C677 C675 1.419 . S
C677 C678 1.362 . S
C678 H670 0.930 . S
C678 C677 1.362 . S
C678 C681 1.409 . S
C679 H671 0.930 . S
C679 C680 1.355 . S
C679 C681 1.415 . S
C680 C679 1.355 . S
C680 C682 1.419 . S
C681 C676 1.425 . S
C681 C678 1.409 . S
C681 C679 1.415 . S
C682 H672 0.930 . S
C682 C680 1.419 . S
C682 C683 1.362 . S
C683 H673 0.930 . S
C683 C676 1.409 . S
C683 C682 1.362 . S
H684 C690 0.930 . S
H685 C693 0.930 . S
H686 C694 0.930 . S
H687 C695 0.930 . S
H688 C698 0.930 . S
H689 C699 0.930 . S
C690 H684 0.930 . S
C690 C691 1.355 . S
C690 C692 1.415 . S
C691 C690 1.355 . S
C691 C693 1.419 . S
C692 C690 1.415 . S
C692 C697 1.425 . S
C692 C699 1.409 . S
C693 H685 0.930 . S
C693 C691 1.419 . S
C693 C694 1.362 . S
C694 H686 0.930 . S
C694 C693 1.362 . S
C694 C697 1.409 . S
C695 H687 0.930 . S
C695 C696 1.355 . S
C695 C697 1.415 . S
C696 C695 1.355 . S
C696 C698 1.419 . S
C697 C692 1.425 . S
C697 C694 1.409 . S
C697 C695 1.415 . S
C698 H688 0.930 . S
C698 C696 1.419 . S
C698 C699 1.362 . S
C699 H689 0.930 . S
C699 C692 1.409 . S
C699 C698 1.362 . S
H700 C706 0.930 . S
H701 C709 0.930 . S
H702 C710 0.930 . S
H703 C711 0.930 . S
H704 C714 0.930 . S
H705 C715 0.930 . S
C706 H700 0.930 . S
C706 C707 1.355 . S
C706 C708 1.415 . S
C707 C706 1.355 . S
C707 C709 1.419 . S
C708 C706 1.415 . S
C708 C713 1.425 . S
C708 C715 1.409 . S
C709 H701 0.930 . S
C709 C707 1.419 . S
C709 C710 1.362 . S
C710 H702 0.930 . S
C710 C709 1.362 . S
C710 C713 1.409 . S
C711 H703 0.930 . S
C711 C712 1.355 . S
C711 C713 1.415 . S
C712 C711 1.355 . S
C712 C714 1.419 . S
C713 C708 1.425 . S
C713 C710 1.409 . S
C713 C711 1.415 . S
C714 H704 0.930 . S
C714 C712 1.419 . S
C714 C715 1.362 . S
C715 H705 0.930 . S
C715 C708 1.409 . S
C715 C714 1.362 . S
H716 C722 0.930 . S
H717 C725 0.930 . S
H718 C726 0.930 . S
H719 C727 0.930 . S
H720 C730 0.930 . S
H721 C731 0.930 . S
C722 H716 0.930 . S
C722 C723 1.355 . S
C722 C724 1.415 . S
C723 C722 1.355 . S
C723 C725 1.419 . S
C724 C722 1.415 . S
C724 C729 1.425 . S
C724 C731 1.409 . S
C725 H717 0.930 . S
C725 C723 1.419 . S
C725 C726 1.362 . S
C726 H718 0.930 . S
C726 C725 1.362 . S
C726 C729 1.409 . S
C727 H719 0.930 . S
C727 C728 1.355 . S
C727 C729 1.415 . S
C728 C727 1.355 . S
C728 C730 1.419 . S
C729 C724 1.425 . S
C729 C726 1.409 . S
C729 C727 1.415 . S
C730 H720 0.930 . S
C730 C728 1.419 . S
C730 C731 1.362 . S
C731 H721 0.930 . S
C731 C724 1.409 . S
C731 C730 1.362 . S
H732 C738 0.930 . S
H733 C741 0.930 . S
H734 C742 0.930 . S
H735 C743 0.930 . S
H736 C746 0.930 . S
H737 C747 0.930 . S
C738 H732 0.930 . S
C738 C739 1.355 . S
C738 C740 1.415 . S
C739 C738 1.355 . S
C739 C741 1.419 . S
C740 C738 1.415 . S
C740 C745 1.425 . S
C740 C747 1.409 . S
C741 H733 0.930 . S
C741 C739 1.419 . S
C741 C742 1.362 . S
C742 H734 0.930 . S
C742 C741 1.362 . S
C742 C745 1.409 . S
C743 H735 0.930 . S
C743 C744 1.355 . S
C743 C745 1.415 . S
C744 C743 1.355 . S
C744 C746 1.419 . S
C745 C740 1.425 . S
C745 C742 1.409 . S
C745 C743 1.415 . S
C746 H736 0.930 . S
C746 C744 1.419 . S
C746 C747 1.362 . S
C747 H737 0.930 . S
C747 C740 1.409 . S
C747 C746 1.362 . S
H748 C754 0.930 . S
H749 C757 0.930 . S
H750 C758 0.930 . S
H751 C759 0.930 . S
H752 C762 0.930 . S
H753 C763 0.930 . S
C754 H748 0.930 . S
C754 C755 1.355 . S
C754 C756 1.415 . S
C755 C754 1.355 . S
C755 C757 1.419 . S
C756 C754 1.415 . S
C756 C761 1.425 . S
C756 C763 1.409 . S
C757 H749 0.930 . S
C757 C755 1.419 . S
C757 C758 1.362 . S
C758 H750 0.930 . S
C758 C757 1.362 . S
C758 C761 1.409 . S
C759 H751 0.930 . S
C759 C760 1.355 . S
C759 C761 1.415 . S
C760 C759 1.355 . S
C760 C762 1.419 . S
C761 C756 1.425 . S
C761 C758 1.409 . S
C761 C759 1.415 . S
C762 H752 0.930 . S
C762 C760 1.419 . S
C762 C763 1.362 . S
C763 H753 0.930 . S
C763 C756 1.409 . S
C763 C762 1.362 . S
H764 C770 0.930 . S
H765 C773 0.930 . S
H766 C774 0.930 . S
H767 C775 0.930 . S
H768 C778 0.930 . S
H769 C779 0.930 . S
C770 H764 0.930 . S
C770 C771 1.355 . S
C770 C772 1.415 . S
C771 C770 1.355 . S
C771 C773 1.419 . S
C772 C770 1.415 . S
C772 C777 1.425 . S
C772 C779 1.409 . S
C773 H765 0.930 . S
C773 C771 1.419 . S
C773 C774 1.362 . S
C774 H766 0.930 . S
C774 C773 1.362 . S
C774 C777 1.409 . S
C775 H767 0.930 . S
C775 C776 1.355 . S
C775 C777 1.415 . S
C776 C775 1.355 . S
C776 C778 1.419 . S
C777 C772 1.425 . S
C777 C774 1.409 . S
C777 C775 1.415 . S
C778 H768 0.930 . S
C778 C776 1.419 . S
C778 C779 1.362 . S
C779 H769 0.930 . S
C779 C772 1.409 . S
C779 C778 1.362 . S
C403 C235 1.451 . S
C408 C328 1.440 . S
C424 C336 1.421 . S
C419 C289 1.449 . S
C440 C340 1.436 . S
C435 C157 1.414 . S
C451 C211 1.445 . S
C456 C316 1.390 . S
C472 C357 1.374 . S
C467 C79 1.462 . S
C488 C391 1.402 . S
C483 C118 1.438 . S
C499 C1 1.408 . S
C504 C379 1.435 . S
C515 C40 1.410 . S
C520 C361 1.436 . S
C536 C315 1.372 . S
C531 C55 1.449 . S
C552 C349 1.259 . S
C547 C16 1.455 . S
C568 C353 1.283 . S
C563 C133 1.448 . S
C584 C331 1.373 . S
C579 C94 1.447 . S
C600 C370 1.287 . S
C595 C196 1.450 . S
C611 C172 1.473 . S
C616 C378 1.336 . S
C632 C394 1.355 . S
C627 C274 1.447 . S
C643 C250 1.475 . S
C648 C374 1.329 . S
C664 C319 1.336 . S
C659 C21 1.486 . S
C680 C337 1.270 . S
C675 C60 1.491 . S
C691 C99 1.473 . S
C696 C352 1.308 . S
C712 C332 1.247 . S
C707 C138 1.483 . S
C728 C358 1.255 . S
C723 C177 1.508 . S
C739 C216 1.499 . S
C744 C382 1.373 . S
C755 C255 1.496 . S
C760 C395 1.268 . S
C771 C294 1.493 . S
C776 C373 1.366 . S
