# Generated by pormake.
# Topology pyr, (3,6)-cn, num edge types: 1
# Building blocks:
#     Node 0, Type 0, BuildingBlock: PAMTOO_clean_linker_0, # of connection points: 3
#     Node 1, Type 0, BuildingBlock: PAMTOO_clean_linker_0, # of connection points: 3
#     Node 2, Type 0, BuildingBlock: PAMTOO_clean_linker_0, # of connection points: 3
#     Node 3, Type 0, BuildingBlock: PAMTOO_clean_linker_0, # of connection points: 3
#     Node 4, Type 0, BuildingBlock: PAMTOO_clean_linker_0, # of connection points: 3
#     Node 5, Type 0, BuildingBlock: PAMTOO_clean_linker_0, # of connection points: 3
#     Node 6, Type 0, BuildingBlock: PAMTOO_clean_linker_0, # of connection points: 3
#     Node 7, Type 0, BuildingBlock: PAMTOO_clean_linker_0, # of connection points: 3
#     Node 8, Type 1, BuildingBlock: GEDQOX_clean_sbu_0, # of connection points: 6
#     Node 9, Type 1, BuildingBlock: GEDQOX_clean_sbu_0, # of connection points: 6
#     Node 10, Type 1, BuildingBlock: GEDQOX_clean_sbu_0, # of connection points: 6
#     Node 11, Type 1, BuildingBlock: GEDQOX_clean_sbu_0, # of connection points: 6
#     Edge 12, Type (0, 1), BuildingBlock: UVAHIK_clean_linker_0, # of connection points: 2
#     Edge 13, Type (0, 1), BuildingBlock: UVAHIK_clean_linker_0, # of connection points: 2
#     Edge 14, Type (0, 1), BuildingBlock: UVAHIK_clean_linker_0, # of connection points: 2
#     Edge 15, Type (0, 1), BuildingBlock: UVAHIK_clean_linker_0, # of connection points: 2
#     Edge 16, Type (0, 1), BuildingBlock: UVAHIK_clean_linker_0, # of connection points: 2
#     Edge 17, Type (0, 1), BuildingBlock: UVAHIK_clean_linker_0, # of connection points: 2
#     Edge 18, Type (0, 1), BuildingBlock: UVAHIK_clean_linker_0, # of connection points: 2
#     Edge 19, Type (0, 1), BuildingBlock: UVAHIK_clean_linker_0, # of connection points: 2
#     Edge 20, Type (0, 1), BuildingBlock: UVAHIK_clean_linker_0, # of connection points: 2
#     Edge 21, Type (0, 1), BuildingBlock: UVAHIK_clean_linker_0, # of connection points: 2
#     Edge 22, Type (0, 1), BuildingBlock: UVAHIK_clean_linker_0, # of connection points: 2
#     Edge 23, Type (0, 1), BuildingBlock: UVAHIK_clean_linker_0, # of connection points: 2
#     Edge 24, Type (0, 1), BuildingBlock: UVAHIK_clean_linker_0, # of connection points: 2
#     Edge 25, Type (0, 1), BuildingBlock: UVAHIK_clean_linker_0, # of connection points: 2
#     Edge 26, Type (0, 1), BuildingBlock: UVAHIK_clean_linker_0, # of connection points: 2
#     Edge 27, Type (0, 1), BuildingBlock: UVAHIK_clean_linker_0, # of connection points: 2
#     Edge 28, Type (0, 1), BuildingBlock: UVAHIK_clean_linker_0, # of connection points: 2
#     Edge 29, Type (0, 1), BuildingBlock: UVAHIK_clean_linker_0, # of connection points: 2
#     Edge 30, Type (0, 1), BuildingBlock: UVAHIK_clean_linker_0, # of connection points: 2
#     Edge 31, Type (0, 1), BuildingBlock: UVAHIK_clean_linker_0, # of connection points: 2
#     Edge 32, Type (0, 1), BuildingBlock: UVAHIK_clean_linker_0, # of connection points: 2
#     Edge 33, Type (0, 1), BuildingBlock: UVAHIK_clean_linker_0, # of connection points: 2
#     Edge 34, Type (0, 1), BuildingBlock: UVAHIK_clean_linker_0, # of connection points: 2
#     Edge 35, Type (0, 1), BuildingBlock: UVAHIK_clean_linker_0, # of connection points: 2
# Relax obj value: 0.137
# Max RMSD: 0.230
# Mean RMSD: 0.148
data_MOF--net-pyr--node1-GEDQOX_clean_sbu_0--node2-PAMTOO_clean_linker_0--edge1-UVAHIK_clean_linker_0
_symmetry_space_group_name_H-M    P1
_symmetry_Int_Tables_number       1
_symmetry_cell_setting            triclinic
loop_
_symmetry_equiv_pos_as_xyz
'x, y, z'
_cell_length_a     49.152032
_cell_length_b     50.79619
_cell_length_c     44.472961
_cell_angle_alpha  86.529191
_cell_angle_beta   91.03367
_cell_angle_gamma 90.685685
loop_
_atom_site_label
_atom_site_type_symbol
_atom_site_fract_x
_atom_site_fract_y
_atom_site_fract_z
_atom_type_partial_charge
H0 H 0.18393 0.2032 0.23014 0.0
H1 H 0.24593 0.14397 0.23 0.0
H2 H 0.24744 0.20933 0.1642 0.0
H3 H 0.26516 0.15864 0.14115 0.0
C4 C 0.2742 0.1491 0.16212 0.0
O5 O 0.27326 0.16657 0.18497 0.0
H6 H 0.26141 0.13143 0.16826 0.0
C7 C 0.20167 0.19524 0.22001 0.0
C8 C 0.21366 0.20934 0.1951 0.0
C9 C 0.21282 0.17154 0.23294 0.0
C10 C 0.23689 0.16206 0.22059 0.0
C11 C 0.24942 0.17561 0.19584 0.0
C12 C 0.23772 0.19916 0.1833 0.0
H13 H 0.36887 0.81722 0.7982 0.0
H14 H 0.39056 0.76897 0.72612 0.0
H15 H 0.44975 0.78576 0.79431 0.0
H16 H 0.47346 0.78612 0.73505 0.0
C17 C 0.45744 0.77468 0.72339 0.0
O18 O 0.44079 0.76212 0.74453 0.0
H19 H 0.44556 0.78885 0.70839 0.0
C20 C 0.38359 0.80523 0.78758 0.0
C21 C 0.41007 0.80277 0.79994 0.0
C22 C 0.37632 0.7932 0.7609 0.0
C23 C 0.39567 0.77819 0.74686 0.0
C24 C 0.42195 0.77544 0.7591 0.0
C25 C 0.42905 0.78746 0.78567 0.0
H26 H 0.7702 0.37941 0.93006 0.0
H27 H 0.70744 0.41363 0.87168 0.0
H28 H 0.77706 0.46012 0.8949 0.0
H29 H 0.72418 0.49404 0.88285 0.0
C30 C 0.71319 0.4774 0.87271 0.0
O31 O 0.73175 0.45944 0.86376 0.0
H32 H 0.6993 0.46819 0.88997 0.0
C33 C 0.76217 0.39602 0.91638 0.0
C34 C 0.77673 0.42002 0.91448 0.0
C35 C 0.73695 0.39358 0.90136 0.0
C36 C 0.72656 0.41529 0.88399 0.0
C37 C 0.74102 0.43919 0.88193 0.0
C38 C 0.76588 0.44161 0.89726 0.0
H39 H 0.88407 0.8137 0.32439 0.0
H40 H 0.84623 0.79799 0.23932 0.0
H41 H 0.89082 0.87025 0.24869 0.0
H42 H 0.89858 0.85073 0.19197 0.0
C43 C 0.87972 0.83885 0.18864 0.0
O44 O 0.86198 0.84234 0.21181 0.0
H45 H 0.87016 0.8467 0.16717 0.0
C46 C 0.88027 0.81933 0.3008 0.0
C47 C 0.89 0.84377 0.28873 0.0
C48 C 0.86455 0.80259 0.2833 0.0
C49 C 0.85831 0.81062 0.25326 0.0
C50 C 0.86786 0.83495 0.2409 0.0
C51 C 0.88348 0.85156 0.25863 0.0
H52 H 0.85796 0.89981 0.86465 0.0
H53 H 0.85386 0.83743 0.93509 0.0
H54 H 0.91942 0.83997 0.87291 0.0
H55 H 0.89763 0.7873 0.88884 0.0
C56 C 0.89405 0.78907 0.91327 0.0
O57 O 0.89934 0.81484 0.92068 0.0
H58 H 0.87219 0.78436 0.91719 0.0
C59 C 0.86597 0.88206 0.87599 0.0
C60 C 0.88997 0.8712 0.86492 0.0
C61 C 0.85231 0.87036 0.9014 0.0
C62 C 0.86367 0.84722 0.91584 0.0
C63 C 0.8878 0.83627 0.90554 0.0
C64 C 0.90068 0.84833 0.88024 0.0
H65 H 0.77372 0.21916 0.24723 0.0
H66 H 0.70346 0.26896 0.23776 0.0
H67 H 0.76579 0.28574 0.30218 0.0
H68 H 0.70373 0.2723 0.31699 0.0
C69 C 0.69746 0.29017 0.3029 0.0
O70 O 0.71719 0.29764 0.28223 0.0
H71 H 0.67849 0.28515 0.29037 0.0
C72 C 0.76311 0.23671 0.2529 0.0
C73 C 0.77364 0.25213 0.27582 0.0
C74 C 0.73776 0.24253 0.239 0.0
C75 C 0.72325 0.26437 0.24774 0.0
C76 C 0.73323 0.27943 0.27084 0.0
C77 C 0.75851 0.27372 0.28435 0.0
H78 H 0.37283 0.6353 0.10532 0.0
H79 H 0.37226 0.58785 0.18933 0.0
H80 H 0.44299 0.63312 0.16472 0.0
H81 H 0.44798 0.57536 0.18736 0.0
C82 C 0.43698 0.57847 0.20853 0.0
O83 O 0.4214 0.60086 0.20535 0.0
H84 H 0.42353 0.56104 0.21341 0.0
C85 C 0.38279 0.62787 0.126 0.0
C86 C 0.40951 0.63624 0.13244 0.0
C87 C 0.36906 0.61003 0.14613 0.0
C88 C 0.38254 0.60079 0.17282 0.0
C89 C 0.40916 0.60888 0.17909 0.0
C90 C 0.42264 0.62641 0.15897 0.0
H91 H 0.21065 0.23276 0.78067 0.0
H92 H 0.27835 0.28536 0.76031 0.0
H93 H 0.25584 0.22679 0.69929 0.0
H94 H 0.31853 0.24022 0.70018 0.0
C95 C 0.31565 0.25907 0.71114 0.0
O96 O 0.28865 0.26599 0.70912 0.0
H97 H 0.3225 0.25621 0.73513 0.0
C98 C 0.22742 0.23914 0.76641 0.0
C99 C 0.23122 0.22716 0.73914 0.0
C100 C 0.24446 0.26014 0.77451 0.0
C101 C 0.26563 0.26857 0.75527 0.0
C102 C 0.26977 0.25631 0.7285 0.0
C103 C 0.25274 0.23566 0.72051 0.0
Nd104 Nd 0.0696 0.99416 0.54487 0.0
Nd105 Nd 0.03314 0.03942 0.54814 0.0
C106 C 0.09341 0.94778 0.54427 0.0
C107 C 0.11035 0.93159 0.5658 0.0
C108 C 0.1042 0.90476 0.57169 0.0
C109 C 0.12048 0.8892 0.5917 0.0
C110 C 0.14333 0.9002 0.60605 0.0
C111 C 0.14922 0.92718 0.60021 0.0
C112 C 0.13283 0.94272 0.58051 0.0
C113 C 0.09075 0.03265 0.5797 0.0
C114 C 1.02441 0.99312 0.5992 0.0
C115 C 1.00891 0.08558 0.54845 0.0
C116 C 0.99595 0.10376 0.5255 0.0
C117 C 1.00997 0.11369 0.49986 0.0
C118 C 0.99633 0.12876 0.47704 0.0
C119 C 0.96842 0.13379 0.47933 0.0
C120 C 0.95468 0.12451 0.50535 0.0
C121 C 0.96836 0.10977 0.52828 0.0
C122 C 1.01252 1.00049 0.51322 0.0
C123 C 0.07823 0.04098 0.4938 0.0
O124 O 0.06783 0.95032 0.55101 0.0
O125 O 0.10437 0.96981 0.53336 0.0
O126 O 0.10529 0.0188 0.56274 0.0
O127 O 0.06644 0.02483 0.57963 0.0
O128 O 0.0376 0.97879 0.58035 0.0
O129 O 1.02386 0.01901 0.59443 0.0
O130 O 0.03537 0.08311 0.54774 0.0
O131 O 0.99625 0.06305 0.55369 0.0
O132 O 0.998 1.01328 0.53129 0.0
O133 O 0.03658 1.009 0.5131 0.0
O134 O 0.0644 0.05512 0.51223 0.0
O135 O 0.07929 1.01509 0.49875 0.0
H136 H 0.08684 0.89583 0.56074 0.0
H137 H 0.11511 0.8686 0.59595 0.0
H138 H 0.16689 0.9363 0.61031 0.0
H139 H 0.13802 0.96342 0.57658 0.0
H140 H 0.03123 0.10925 0.49701 0.0
H141 H 1.00732 0.13562 0.45712 0.0
H142 H 0.93323 0.12839 0.50779 0.0
H143 H 0.95716 0.10239 0.54786 0.0
Nd144 Nd 0.56926 0.99624 0.06068 0.0
Nd145 Nd 0.56238 0.03092 1.00904 0.0
C146 C 0.57492 0.95424 0.09817 0.0
C147 C 0.56722 0.92638 0.09531 0.0
C148 C 0.57355 0.91334 0.06934 0.0
C149 C 0.56312 0.88811 0.06514 0.0
C150 C 0.54589 0.87568 0.08659 0.0
C151 C 0.54016 0.88845 0.11289 0.0
C152 C 0.55084 0.91355 0.11725 0.0
C153 C 0.52851 0.03242 0.06878 0.0
C154 C 0.53113 0.97718 1.0052 0.0
C155 C 0.55524 0.07142 0.96946 0.0
C156 C 0.56835 0.09733 0.96278 0.0
C157 C 0.57055 0.1161 0.9847 0.0
C158 C 0.58328 0.14042 0.978 0.0
C159 C 0.59427 0.14631 0.94942 0.0
C160 C 0.59217 0.12751 0.92757 0.0
C161 C 0.57917 0.10329 0.93416 0.0
C162 C 0.60351 0.9949 1.00166 0.0
C163 C 0.60177 0.04986 0.06469 0.0
O164 O 0.59447 0.96369 0.08101 0.0
O165 O 0.55461 0.97043 0.09918 0.0
O166 O 0.54771 0.02639 0.08831 0.0
O167 O 0.53154 0.01994 0.04516 0.0
O168 O 0.54918 0.96967 0.02608 0.0
O169 O 0.52857 1.0023 0.99715 0.0
O170 O 0.54192 0.06826 0.9946 0.0
O171 O 0.56943 0.05077 0.96392 0.0
O172 O 0.58446 1.00055 0.98187 0.0
O173 O 0.60018 1.00769 0.02491 0.0
O174 O 0.58659 0.05727 0.04098 0.0
O175 O 0.60123 0.02532 0.07577 0.0
H176 H 0.58582 0.92292 0.05179 0.0
H177 H 0.56765 0.87874 0.04459 0.0
H178 H 0.52714 0.87912 0.1299 0.0
H179 H 0.54558 0.92331 0.13732 0.0
H180 H 0.56261 0.11201 1.00708 0.0
H181 H 0.58492 0.15447 0.99535 0.0
H182 H 0.60033 0.13167 0.90529 0.0
H183 H 0.57768 0.08913 0.91691 0.0
Nd184 Nd 0.57244 0.52361 0.52073 0.0
Nd185 Nd 0.6301 0.54604 0.52602 0.0
C186 C 0.52473 0.50305 0.50651 0.0
C187 C 0.49912 0.49612 0.52148 0.0
C188 C 0.47683 0.48768 0.50442 0.0
C189 C 0.45445 0.47562 0.51872 0.0
C190 C 0.45425 0.47158 0.55032 0.0
C191 C 0.47582 0.48195 0.56734 0.0
C192 C 0.49806 0.49418 0.55302 0.0
C193 C 0.59371 0.52002 0.57836 0.0
C194 C 0.58044 0.58058 0.5468 0.0
C195 C 0.68195 0.55899 0.53293 0.0
C196 C 0.69956 0.58015 0.52014 0.0
C197 C 0.72678 0.57466 0.51447 0.0
C198 C 0.74245 0.59249 0.4968 0.0
C199 C 0.7311 0.61615 0.4845 0.0
C200 C 0.70419 0.62218 0.49167 0.0
C201 C 0.68849 0.60425 0.50918 0.0
C202 C 0.60138 0.56285 0.47466 0.0
C203 C 0.62262 0.48767 0.50088 0.0
O204 O 0.53052 0.52819 0.50154 0.0
O205 O 0.54562 0.48909 0.51638 0.0
O206 O 0.56823 0.52396 0.57208 0.0
O207 O 0.6067 0.51612 0.55495 0.0
O208 O 0.56539 0.56737 0.52775 0.0
O209 O 0.60544 0.5731 0.55427 0.0
O210 O 0.67301 0.54274 0.51326 0.0
O211 O 0.66318 0.56545 0.55163 0.0
O212 O 0.61777 0.57817 0.48879 0.0
O213 O 0.60191 0.54003 0.48677 0.0
O214 O 0.6393 0.50351 0.51495 0.0
O215 O 0.59653 0.49285 0.4974 0.0
H216 H 0.47736 0.4891 0.48002 0.0
H217 H 0.43792 0.46832 0.50499 0.0
H218 H 0.47651 0.47901 0.59166 0.0
H219 H 0.51518 0.50057 0.56652 0.0
H220 H 0.73549 0.55594 0.52238 0.0
H221 H 0.76297 0.58705 0.49148 0.0
H222 H 0.69499 0.64043 0.48301 0.0
H223 H 0.66737 0.6087 0.51302 0.0
Nd224 Nd 0.0435 0.50499 0.08946 0.0
Nd225 Nd 0.08661 0.51406 0.04219 0.0
C226 C 0.99846 0.50436 0.1207 0.0
C227 C 0.98495 0.52681 0.13319 0.0
C228 C 1.00027 0.54962 0.13838 0.0
C229 C 0.98776 0.57186 0.14832 0.0
C230 C 0.95958 0.57192 0.15303 0.0
C231 C 0.94416 0.54908 0.1477 0.0
C232 C 0.95682 0.5266 0.13789 0.0
C233 C 0.08964 0.53072 0.10811 0.0
C234 C 0.04148 0.5595 0.04306 0.0
C235 C 0.13307 0.51748 1.01323 0.0
C236 C 0.15042 0.49724 1.00175 0.0
C237 C 0.17315 0.50433 0.98441 0.0
C238 C 0.188 0.48489 0.97113 0.0
C239 C 0.18023 0.45814 0.97505 0.0
C240 C 0.15796 0.45119 0.9934 0.0
C241 C 0.14318 0.47057 1.00656 0.0
C242 C 0.04077 0.48882 0.02239 0.0
C243 C 0.08719 0.45855 0.08696 0.0
O244 O 0.99838 0.50468 0.09125 0.0
O245 O 1.02225 0.49842 0.13277 0.0
O246 O 0.07703 0.51293 0.12487 0.0
O247 O 0.07734 0.53492 0.08336 0.0
O248 O 1.02793 0.54204 0.06062 0.0
O249 O 0.06697 0.55506 0.03588 0.0
O250 O 0.13163 0.51747 0.04259 0.0
O251 O 0.10929 0.51995 0.99976 0.0
O252 O 0.05476 0.50549 1.00552 0.0
O253 O 0.05218 0.48442 0.0477 0.0
O254 O 0.10139 0.47638 0.07054 0.0
O255 O 0.06163 0.46321 0.09373 0.0
H256 H 1.02193 0.55041 0.1342 0.0
H257 H 1.0001 0.58932 0.15152 0.0
H258 H 0.92239 0.54864 0.15108 0.0
H259 H 0.94464 0.50928 0.13357 0.0
H260 H 0.17897 0.52487 0.98051 0.0
H261 H 0.2052 0.49084 0.95733 0.0
H262 H 0.1511 0.43088 0.99647 0.0
H263 H 0.12549 0.46478 1.01964 0.0
C264 C 0.21464 0.14507 0.28351 0.0
C265 C 0.19929 0.15707 0.25946 0.0
C266 C 0.20184 0.13238 0.30862 0.0
C267 C 0.13484 0.12769 0.34841 0.0
H268 H 0.16679 0.06584 0.38955 0.0
C269 C 0.09154 0.08181 0.46148 0.0
C270 C 0.09204 0.0542 0.46695 0.0
C271 C 0.10465 0.09419 0.43643 0.0
C272 C 0.15734 0.08295 0.37828 0.0
H273 H 0.15802 0.16403 0.24308 0.0
H274 H 0.1359 0.14194 0.28632 0.0
H275 H 0.18898 0.08683 0.34564 0.0
H276 H 0.10686 0.01813 0.44971 0.0
H277 H 0.12924 0.03951 0.40608 0.0
H278 H 0.10285 0.12347 0.38055 0.0
C279 C 0.15791 0.14284 0.28627 0.0
C280 C 0.17037 0.0953 0.35315 0.0
C281 C 0.17069 0.15557 0.26126 0.0
C282 C 0.10604 0.0394 0.44647 0.0
C283 C 0.11912 0.05178 0.4214 0.0
C284 C 0.12181 0.11535 0.37351 0.0
C285 C 0.17321 0.13114 0.31056 0.0
C286 C 0.15935 0.1179 0.33767 0.0
C287 C 0.11871 0.07942 0.41589 0.0
C288 C 0.13278 0.09272 0.38895 0.0
H289 H 0.23666 0.14601 0.28333 0.0
H290 H 0.21452 0.12402 0.32684 0.0
H291 H 0.12572 0.14519 0.33761 0.0
H292 H 0.08111 0.09398 0.47668 0.0
H293 H 0.10406 0.11549 0.43348 0.0
C294 C 0.43531 0.80641 0.84925 0.0
C295 C 0.41856 0.81786 0.82619 0.0
C296 C 0.44486 0.82135 0.87274 0.0
C297 C 0.43421 0.88428 0.90948 0.0
H298 H 0.51055 0.87735 0.93166 0.0
C299 C 0.49561 0.96497 0.96726 0.0
C300 C 0.51511 0.95719 0.98943 0.0
C301 C 0.48169 0.94615 0.95105 0.0
C302 C 0.48909 0.87925 0.92611 0.0
H303 H 0.39864 0.85394 0.80982 0.0
H304 H 0.41536 0.87995 0.85052 0.0
H305 H 0.48999 0.84751 0.89669 0.0
H306 H 0.5347 0.92346 1.01257 0.0
H307 H 0.51036 0.89063 0.98422 0.0
H308 H 0.43361 0.91658 0.93827 0.0
C309 C 0.4207 0.85931 0.85089 0.0
C310 C 0.47727 0.86211 0.90607 0.0
C311 C 0.41111 0.84438 0.8275 0.0
C312 C 0.51989 0.93013 0.99555 0.0
C313 C 0.50604 0.91132 0.97923 0.0
C314 C 0.44607 0.90149 0.92943 0.0
C315 C 0.43796 0.84809 0.87362 0.0
C316 C 0.44979 0.86469 0.89712 0.0
C317 C 0.48702 0.91914 0.95655 0.0
C318 C 0.47375 0.89943 0.93758 0.0
H319 H 0.44115 0.78593 0.84904 0.0
H320 H 0.45779 0.81198 0.89012 0.0
H321 H 0.41287 0.88651 0.90351 0.0
H322 H 0.49141 0.98564 0.96202 0.0
H323 H 0.46738 0.95284 0.9335 0.0
C324 C 0.67687 0.47015 0.8337 0.0
C325 C 0.69681 0.4868 0.84548 0.0
C326 C 0.66414 0.4769 0.80606 0.0
C327 C 0.67575 0.51688 0.73551 0.0
H328 H 0.60047 0.49821 0.71905 0.0
C329 C 0.58951 0.52609 0.63314 0.0
C330 C 0.60544 0.51913 0.60905 0.0
C331 C 0.60023 0.52488 0.66245 0.0
C332 C 0.62143 0.50389 0.7233 0.0
H333 H 0.71912 0.52354 0.83799 0.0
H334 H 0.69629 0.53586 0.78995 0.0
H335 H 0.61868 0.49241 0.77021 0.0
H336 H 0.64513 0.50593 0.59636 0.0
H337 H 0.66376 0.50307 0.64773 0.0
H338 H 0.67837 0.52874 0.68866 0.0
C339 C 0.69064 0.51745 0.80188 0.0
C340 C 0.63196 0.50026 0.7526 0.0
C341 C 0.70349 0.51059 0.82949 0.0
C342 C 0.63242 0.51133 0.61462 0.0
C343 C 0.64312 0.50992 0.644 0.0
C344 C 0.66517 0.52066 0.70622 0.0
C345 C 0.67116 0.50045 0.78959 0.0
C346 C 0.65934 0.50636 0.75898 0.0
C347 C 0.62707 0.5165 0.6683 0.0
C348 C 0.63798 0.51388 0.69969 0.0
H349 H 0.67187 0.45145 0.84543 0.0
H350 H 0.64961 0.46311 0.79705 0.0
H351 H 0.69701 0.52152 0.73953 0.0
H352 H 0.56871 0.53249 0.62936 0.0
H353 H 0.58748 0.53057 0.68052 0.0
C354 C 0.90873 0.79921 0.20256 0.0
C355 C 0.88634 0.81011 0.18648 0.0
C356 C 0.91455 0.77248 0.20141 0.0
C357 C 0.88495 0.70813 0.1812 0.0
H358 H 0.96084 0.68947 0.17521 0.0
C359 C 0.92314 0.6062 0.14721 0.0
C360 C 0.94665 0.59635 0.1622 0.0
C361 C 0.91346 0.6312 0.15287 0.0
C362 C 0.93957 0.69429 0.17728 0.0
H363 H 0.8518 0.8017 0.15767 0.0
H364 H 0.86242 0.75496 0.1547 0.0
H365 H 0.94876 0.73533 0.17924 0.0
H366 H 0.97715 0.60395 0.19651 0.0
H367 H 0.96027 0.64746 0.20638 0.0
H368 H 0.87592 0.66688 0.1785 0.0
C369 C 0.87538 0.76697 0.16844 0.0
C370 C 0.93262 0.72061 0.17962 0.0
C371 C 0.86945 0.79372 0.16981 0.0
C372 C 0.9593 0.61127 0.18419 0.0
C373 C 0.94967 0.63618 0.18981 0.0
C374 C 0.89193 0.68172 0.17866 0.0
C375 C 0.89814 0.75606 0.18405 0.0
C376 C 0.90526 0.72789 0.18171 0.0
C377 C 0.92714 0.64674 0.17359 0.0
C378 C 0.91934 0.67454 0.1768 0.0
H379 H 0.92162 0.81141 0.21616 0.0
H380 H 0.93185 0.76464 0.21429 0.0
H381 H 0.86369 0.713 0.18311 0.0
H382 H 0.91309 0.59521 0.13 0.0
H383 H 0.89611 0.63889 0.13994 0.0
C384 C 0.31873 0.15325 0.13307 0.0
C385 C 0.30317 0.14021 0.15583 0.0
C386 C 0.34359 0.14283 0.12411 0.0
C387 C 0.39756 0.09288 0.14707 0.0
H388 H 0.4153 0.09963 0.06237 0.0
C389 C 0.50189 0.05791 0.10504 0.0
C390 C 0.50316 0.04642 0.07706 0.0
C391 C 0.47804 0.06995 0.11418 0.0
C392 C 0.41069 0.0973 0.0861 0.0
H393 H 0.30237 0.10642 0.1878 0.0
H394 H 0.34545 0.08822 0.17241 0.0
H395 H 0.37371 0.11917 0.07967 0.0
H396 H 0.47994 0.03913 0.03654 0.0
H397 H 0.43817 0.05992 0.05247 0.0
H398 H 0.4341 0.07046 0.15345 0.0
C399 C 0.33868 0.10663 0.16137 0.0
C400 C 0.38683 0.10892 0.09619 0.0
C401 C 0.31383 0.11706 0.17029 0.0
C402 C 0.47982 0.04778 0.05821 0.0
C403 C 0.45582 0.05987 0.06739 0.0
C404 C 0.42139 0.0813 0.13701 0.0
C405 C 0.35384 0.11903 0.1377 0.0
C406 C 0.37976 0.10694 0.1269 0.0
C407 C 0.45438 0.07097 0.09574 0.0
C408 C 0.42851 0.08329 0.10632 0.0
H409 H 0.31121 0.17113 0.12146 0.0
H410 H 0.35468 0.15345 0.10631 0.0
H411 H 0.39329 0.09096 0.1709 0.0
H412 H 0.51943 0.05748 0.12015 0.0
H413 H 0.47831 0.07866 0.1358 0.0
C414 C 0.34726 0.80597 0.71579 0.0
C415 C 0.34925 0.79803 0.74652 0.0
C416 C 0.32209 0.81234 0.70246 0.0
C417 C 0.2529 0.83306 0.72178 0.0
H418 H 0.23929 0.823 0.63712 0.0
C419 C 0.17433 0.89418 0.65147 0.0
C420 C 0.16168 0.88365 0.62618 0.0
C421 C 0.19391 0.87985 0.66842 0.0
C422 C 0.24237 0.82558 0.66093 0.0
H423 H 0.3264 0.78966 0.78724 0.0
H424 H 0.28216 0.80009 0.76381 0.0
H425 H 0.27935 0.80384 0.66193 0.0
H426 H 0.15879 0.84901 0.59997 0.0
H427 H 0.19193 0.82354 0.63039 0.0
H428 H 0.21556 0.85426 0.72095 0.0
C429 C 0.30014 0.80204 0.75011 0.0
C430 C 0.26569 0.81493 0.67508 0.0
C431 C 0.32544 0.79596 0.76354 0.0
C432 C 0.168 0.85777 0.61933 0.0
C433 C 0.18736 0.84328 0.63656 0.0
C434 C 0.22937 0.84341 0.70773 0.0
C435 C 0.29818 0.81065 0.71946 0.0
C436 C 0.27169 0.81916 0.70547 0.0
C437 C 0.2011 0.85438 0.66086 0.0
C438 C 0.22416 0.84044 0.67689 0.0
H439 H 0.36535 0.80815 0.70225 0.0
H440 H 0.32158 0.81945 0.67902 0.0
H441 H 0.25682 0.83689 0.74516 0.0
H442 H 0.16956 0.91381 0.65788 0.0
H443 H 0.20413 0.88926 0.68675 0.0
C444 C 0.80999 0.44477 0.94568 0.0
C445 C 0.80356 0.42242 0.92975 0.0
C446 C 0.83582 0.44778 0.95864 0.0
C447 C 0.9062 0.42871 0.94915 0.0
H448 H 0.91731 0.45788 0.02711 0.0
C449 C 0.99969 0.46083 0.0337 0.0
C450 C 1.01497 0.4766 1.01304 0.0
C451 C 0.97444 0.45052 0.0251 0.0
C452 C 0.91454 0.44941 1.00547 0.0
H453 H 0.81889 0.38548 0.91526 0.0
H454 H 0.86414 0.39075 0.938 0.0
H455 H 0.87134 0.44622 1.01037 0.0
H456 H 1.01637 0.49351 0.96717 0.0
H457 H 0.97237 0.47543 0.95208 0.0
H458 H 0.94932 0.43237 0.94399 0.0
C459 C 0.84918 0.40593 0.94038 0.0
C460 C 0.88825 0.44297 0.9958 0.0
C461 C 0.82326 0.40283 0.92759 0.0
C462 C 1.00497 0.48138 0.9835 0.0
C463 C 0.97988 0.4709 0.97483 0.0
C464 C 0.93246 0.43531 0.95873 0.0
C465 C 0.85578 0.42856 0.95577 0.0
C466 C 0.88379 0.43297 0.96734 0.0
C467 C 0.96424 0.4556 0.99562 0.0
C468 C 0.93683 0.44614 0.98677 0.0
H469 H 0.79509 0.46005 0.94791 0.0
H470 H 0.84042 0.46556 0.97011 0.0
H471 H 0.90335 0.42121 0.92701 0.0
H472 H 1.00701 0.45685 0.05663 0.0
H473 H 0.96285 0.43864 0.04149 0.0
C474 C 0.82616 0.77054 0.29365 0.0
C475 C 0.8537 0.77752 0.29739 0.0
C476 C 0.81495 0.74934 0.31094 0.0
C477 C 0.82511 0.71553 0.38482 0.0
H478 H 0.77008 0.66672 0.35751 0.0
C479 C 0.77472 0.63759 0.46635 0.0
C480 C 0.74657 0.63344 0.46255 0.0
C481 C 0.78932 0.65286 0.44485 0.0
C482 C 0.78526 0.68038 0.36553 0.0
H483 H 0.89165 0.76639 0.32006 0.0
H484 H 0.87204 0.72948 0.35032 0.0
H485 H 0.79319 0.69652 0.32083 0.0
H486 H 0.71182 0.64185 0.43284 0.0
H487 H 0.73702 0.66928 0.3961 0.0
H488 H 0.8167 0.70017 0.4295 0.0
C489 C 0.85901 0.7407 0.3345 0.0
C490 C 0.79854 0.69733 0.3445 0.0
C491 C 0.87021 0.7618 0.31719 0.0
C492 C 0.73338 0.64501 0.4368 0.0
C493 C 0.74794 0.66037 0.41541 0.0
C494 C 0.81173 0.69873 0.40583 0.0
C495 C 0.8311 0.73479 0.33227 0.0
C496 C 0.81843 0.71524 0.35398 0.0
C497 C 0.7761 0.66442 0.4191 0.0
C498 C 0.79142 0.68116 0.3965 0.0
H499 H 0.81292 0.78237 0.27868 0.0
H500 H 0.79333 0.74532 0.30884 0.0
H501 H 0.84003 0.72944 0.39287 0.0
H502 H 0.78548 0.6291 0.486 0.0
H503 H 0.81105 0.65538 0.44828 0.0
C504 C 0.17253 0.23817 0.18185 0.0
C505 C 0.201 0.23473 0.18202 0.0
C506 C 0.16065 0.26209 0.17115 0.0
C507 C 0.17316 0.32401 0.12326 0.0
H508 H 0.11309 0.3507 0.16726 0.0
C509 C 0.12809 0.42852 0.0928 0.0
C510 C 0.10022 0.43282 0.09733 0.0
C511 C 0.14045 0.40459 0.10275 0.0
C512 C 0.12953 0.34351 0.15425 0.0
H513 H 0.239 0.25459 0.17022 0.0
H514 H 0.21829 0.29593 0.15109 0.0
H515 H 0.13412 0.30922 0.18448 0.0
H516 H 0.06357 0.41459 0.11573 0.0
H517 H 0.08471 0.3729 0.13228 0.0
H518 H 0.16837 0.35802 0.09272 0.0
C519 C 0.20511 0.27995 0.15932 0.0
C520 C 0.14174 0.31955 0.16429 0.0
C521 C 0.21705 0.25605 0.17029 0.0
C522 C 0.08509 0.41225 0.11194 0.0
C523 C 0.09739 0.38823 0.1217 0.0
C524 C 0.16079 0.34788 0.11303 0.0
C525 C 0.1767 0.2835 0.15985 0.0
C526 C 0.16378 0.30933 0.14901 0.0
C527 C 0.12538 0.38391 0.11744 0.0
C528 C 0.1387 0.35817 0.12832 0.0
H529 H 0.15917 0.22226 0.18984 0.0
H530 H 0.13871 0.26366 0.17144 0.0
H531 H 0.18981 0.31678 0.11055 0.0
H532 H 0.14057 0.4438 0.08176 0.0
H533 H 0.16204 0.40258 0.09931 0.0
C534 C 0.73451 0.34438 0.90028 0.0
C535 C 0.72148 0.36841 0.90397 0.0
C536 C 0.72002 0.32058 0.90348 0.0
C537 C 0.66125 0.29033 0.94109 0.0
H538 H 0.66666 0.237 0.88274 0.0
C539 C 0.59587 0.19552 0.94992 0.0
C540 C 0.60805 0.17196 0.94254 0.0
C541 C 0.60905 0.21971 0.9439 0.0
C542 C 0.6652 0.25152 0.89947 0.0
H543 H 0.6832 0.38649 0.91385 0.0
H544 H 0.65789 0.34479 0.91976 0.0
H545 H 0.6912 0.27881 0.87467 0.0
H546 H 0.64358 0.1551 0.92332 0.0
H547 H 0.66702 0.19725 0.91353 0.0
H548 H 0.63596 0.263 0.9664 0.0
C549 C 0.67927 0.34442 0.91431 0.0
C550 C 0.67917 0.27549 0.89475 0.0
C551 C 0.69367 0.36824 0.91073 0.0
C552 C 0.63362 0.17303 0.92893 0.0
C553 C 0.64697 0.1972 0.92323 0.0
C554 C 0.64754 0.26628 0.94601 0.0
C555 C 0.69234 0.32038 0.91081 0.0
C556 C 0.67729 0.29511 0.9155 0.0
C557 C 0.63488 0.22086 0.93071 0.0
C558 C 0.64931 0.24656 0.92525 0.0
H559 H 0.75589 0.34402 0.89484 0.0
H560 H 0.7306 0.3023 0.90085 0.0
H561 H 0.65977 0.30501 0.95766 0.0
H562 H 0.57599 0.19524 0.96008 0.0
H563 H 0.59886 0.23753 0.94942 0.0
C564 C 0.92502 0.85006 0.32942 0.0
C565 C 0.90614 0.86111 0.30824 0.0
C566 C 0.93781 0.86561 0.35037 0.0
C567 C 0.95721 0.93275 0.36706 0.0
H568 H 0.9516 0.90672 0.45064 0.0
C569 C 1.0166 0.97804 0.46519 0.0
C570 C 1.00103 0.98382 0.49008 0.0
C571 C 1.00534 0.96336 0.44242 0.0
C572 C 0.95325 0.91422 0.42741 0.0
H573 H 0.887 0.89754 0.29158 0.0
H574 H 0.91008 0.92491 0.32784 0.0
H575 H 0.93215 0.88083 0.41076 0.0
H576 H 0.96181 0.97841 0.51116 0.0
H577 H 0.94225 0.95212 0.47155 0.0
H578 H 0.97856 0.96606 0.38379 0.0
C579 C 0.91465 0.90408 0.32823 0.0
C580 C 0.94233 0.89937 0.40463 0.0
C581 C 0.90155 0.88843 0.30743 0.0
C582 C 0.9742 0.97423 0.49216 0.0
C583 C 0.96306 0.95918 0.46959 0.0
C584 C 0.96853 0.94744 0.38986 0.0
C585 C 0.93236 0.89265 0.35034 0.0
C586 C 0.94418 0.9085 0.37426 0.0
C587 C 0.97847 0.95384 0.4444 0.0
C588 C 0.96656 0.93832 0.42023 0.0
H589 H 0.92956 0.82921 0.33019 0.0
H590 H 0.95177 0.85643 0.36686 0.0
H591 H 0.95894 0.94016 0.34381 0.0
H592 H 0.03737 0.98522 0.46305 0.0
H593 H 1.01771 0.95927 0.42336 0.0
C594 C 0.49692 0.74655 0.70997 0.0
C595 C 0.47 0.75465 0.70451 0.0
C596 C 0.50866 0.72828 0.69199 0.0
C597 C 0.49174 0.67616 0.64014 0.0
H598 H 0.56582 0.68822 0.61359 0.0
C599 C 0.54141 0.61048 0.55538 0.0
C600 C 0.56835 0.60274 0.56192 0.0
C601 C 0.52935 0.62998 0.57142 0.0
C602 C 0.5452 0.68444 0.62102 0.0
H603 H 0.43383 0.74945 0.67699 0.0
H604 H 0.45433 0.71756 0.64527 0.0
H605 H 0.54472 0.71976 0.64491 0.0
H606 H 0.60389 0.60984 0.59008 0.0
H607 H 0.58283 0.6436 0.61811 0.0
H608 H 0.49229 0.64073 0.61647 0.0
C609 C 0.46643 0.72531 0.66338 0.0
C610 C 0.53312 0.7025 0.639 0.0
C611 C 0.45473 0.74363 0.68135 0.0
C612 C 0.58314 0.61537 0.58435 0.0
C613 C 0.57109 0.63484 0.60037 0.0
C614 C 0.50384 0.65807 0.62219 0.0
C615 C 0.49361 0.71758 0.66834 0.0
C616 C 0.50629 0.69851 0.64889 0.0
C617 C 0.54395 0.64218 0.59434 0.0
C618 C 0.53076 0.66193 0.61252 0.0
H619 H 0.50894 0.7545 0.72803 0.0
H620 H 0.52947 0.72236 0.69676 0.0
H621 H 0.47117 0.67234 0.6477 0.0
H622 H 0.52944 0.60121 0.53819 0.0
H623 H 0.50855 0.63545 0.5659 0.0
C624 C 0.90509 0.91133 0.83191 0.0
C625 C 0.90392 0.88371 0.83748 0.0
C626 C 0.91801 0.92288 0.80629 0.0
C627 C 0.968 0.90889 0.7466 0.0
H628 H 0.93733 0.97125 0.70518 0.0
C629 C 1.01047 0.95263 0.63191 0.0
C630 C 1.01071 0.98023 0.62632 0.0
C631 C 0.99754 0.94073 0.65738 0.0
C632 C 0.9465 0.95404 0.71658 0.0
H633 H 0.91546 0.8468 0.81941 0.0
H634 H 0.93793 0.86681 0.77514 0.0
H635 H 0.91509 0.9512 0.74954 0.0
H636 H 0.99742 0.01681 0.64376 0.0
H637 H 0.97539 0.99629 0.68799 0.0
H638 H 0.99948 0.91178 0.71372 0.0
C639 C 0.92918 0.87966 0.79086 0.0
C640 C 0.93363 0.94246 0.74221 0.0
C641 C 0.91622 0.86811 0.81644 0.0
C642 C 0.99764 0.99551 0.64706 0.0
C643 C 0.98476 0.98364 0.67249 0.0
C644 C 0.98091 0.92051 0.721 0.0
C645 C 0.93031 0.90727 0.78527 0.0
C646 C 0.94414 0.91967 0.75773 0.0
C647 C 0.9844 0.95601 0.67815 0.0
C648 C 0.97044 0.94334 0.70551 0.0
H649 H 0.89641 0.92419 0.84765 0.0
H650 H 0.91873 0.94419 0.80326 0.0
H651 H 0.9771 0.89164 0.75801 0.0
H652 H 1.0202 0.94012 0.61652 0.0
H653 H 0.99753 0.91943 0.66048 0.0
C654 C 0.6976 0.21652 0.22152 0.0
C655 C 0.725 0.22415 0.21804 0.0
C656 C 0.6857 0.19812 0.20319 0.0
C657 C 0.69163 0.1668 0.13133 0.0
H658 H 0.6477 0.11175 0.17139 0.0
C659 C 0.61973 0.09603 0.06858 0.0
C660 C 0.61885 0.06953 0.07972 0.0
C661 C 0.63469 0.11479 0.08392 0.0
C662 C 0.66008 0.12685 0.15988 0.0
H663 H 0.76127 0.21882 0.19218 0.0
H664 H 0.74036 0.18638 0.16 0.0
H665 H 0.66994 0.14485 0.20095 0.0
H666 H 0.63376 0.04181 0.11513 0.0
H667 H 0.65978 0.07447 0.14172 0.0
H668 H 0.68167 0.14861 0.09018 0.0
C669 C 0.72814 0.19484 0.1769 0.0
C670 C 0.67258 0.14598 0.17677 0.0
C671 C 0.74014 0.21323 0.19543 0.0
C672 C 0.63382 0.06208 0.10602 0.0
C673 C 0.64866 0.08081 0.12136 0.0
C674 C 0.67892 0.1477 0.11434 0.0
C675 C 0.70089 0.18686 0.1809 0.0
C676 C 0.68836 0.16624 0.1627 0.0
C677 C 0.64895 0.10743 0.11074 0.0
C678 C 0.66299 0.12753 0.12847 0.0
H679 H 0.68547 0.22426 0.23899 0.0
H680 H 0.66458 0.19257 0.20658 0.0
H681 H 0.70358 0.18228 0.11989 0.0
H682 H 0.60848 0.10242 0.04832 0.0
H683 H 0.63439 0.13519 0.0753 0.0
C684 C 0.44714 0.58148 0.26376 0.0
C685 C 0.45675 0.58127 0.23427 0.0
C686 C 0.46524 0.58458 0.28786 0.0
C687 C 0.53554 0.57229 0.31042 0.0
H688 H 0.51861 0.61422 0.37763 0.0
C689 C 0.57605 0.54886 0.42963 0.0
C690 C 0.58737 0.56938 0.44572 0.0
C691 C 0.56294 0.55425 0.40202 0.0
C692 C 0.52378 0.60277 0.35881 0.0
H693 H 0.49249 0.58501 0.20648 0.0
H694 H 0.52437 0.58994 0.2488 0.0
H695 H 0.48975 0.61709 0.33204 0.0
H696 H 0.59356 0.61166 0.44597 0.0
H697 H 0.56969 0.62126 0.39742 0.0
H698 H 0.56889 0.55718 0.33757 0.0
C699 C 0.50286 0.58759 0.25327 0.0
C700 C 0.50719 0.60421 0.33291 0.0
C701 C 0.48469 0.5847 0.22913 0.0
C702 C 0.58506 0.59553 0.43386 0.0
C703 C 0.57145 0.60099 0.40625 0.0
C704 C 0.55191 0.57064 0.33638 0.0
C705 C 0.4933 0.58743 0.28288 0.0
C706 C 0.51258 0.58853 0.30875 0.0
C707 C 0.56051 0.58031 0.39004 0.0
C708 C 0.54579 0.58538 0.36105 0.0
H709 H 0.4256 0.57912 0.2681 0.0
H710 H 0.45735 0.58406 0.31048 0.0
H711 H 0.5401 0.55986 0.29224 0.0
H712 H 0.57743 0.52851 0.4383 0.0
H713 H 0.55428 0.538 0.3902 0.0
C714 C 0.26024 0.28472 0.81901 0.0
C715 C 0.23877 0.27522 0.80121 0.0
C716 C 0.25525 0.30239 0.8411 0.0
C717 C 0.20587 0.35286 0.85692 0.0
H718 H 0.24415 0.35457 0.93382 0.0
C719 C 0.19925 0.44291 0.92732 0.0
C720 C 0.1934 0.43773 0.95793 0.0
C721 C 0.20763 0.42267 0.90986 0.0
C722 C 0.23325 0.35428 0.91246 0.0
H723 H 0.19503 0.27573 0.79375 0.0
H724 H 0.18625 0.306 0.83278 0.0
H725 H 0.25126 0.31782 0.9018 0.0
H726 H 0.19366 0.40766 0.99472 0.0
H727 H 0.20781 0.37219 0.96404 0.0
H728 H 0.18755 0.38895 0.86756 0.0
C729 C 0.20702 0.30016 0.82928 0.0
C730 C 0.23744 0.33334 0.89407 0.0
C731 C 0.21202 0.28253 0.80718 0.0
C732 C 0.19763 0.41218 0.97108 0.0
C733 C 0.20598 0.39192 0.95358 0.0
C734 C 0.20175 0.37373 0.8752 0.0
C735 C 0.22866 0.3109 0.84583 0.0
C736 C 0.22373 0.33241 0.86612 0.0
C737 C 0.21027 0.3968 0.92258 0.0
C738 C 0.21544 0.37475 0.90312 0.0
H739 H 0.28105 0.27917 0.81517 0.0
H740 H 0.27236 0.31034 0.85341 0.0
H741 H 0.19534 0.35297 0.83531 0.0
H742 H 0.19604 0.46229 0.91641 0.0
H743 H 0.21128 0.42715 0.88614 0.0
C744 C 0.80855 0.89686 0.89298 0.0
C745 C 0.82645 0.8824 0.91273 0.0
C746 C 0.78498 0.90859 0.90343 0.0
C747 C 0.74978 0.92597 0.97511 0.0
H748 H 0.68931 0.93882 0.91948 0.0
C749 C 0.65382 0.98458 1.00923 0.0
C750 C 0.62878 0.98044 0.99431 0.0
C751 C 0.67777 0.97234 1.00023 0.0
C752 C 0.70563 0.93512 0.93577 0.0
H753 H 0.83241 0.86937 0.95979 0.0
H754 H 0.79092 0.88814 0.97748 0.0
H755 H 0.7294 0.91746 0.90281 0.0
H756 H 0.60928 0.95918 0.95901 0.0
H757 H 0.65002 0.93685 0.94453 0.0
H758 H 0.72523 0.94232 1.00856 0.0
C759 C 0.79548 0.89125 0.95382 0.0
C760 C 0.72928 0.92318 0.92584 0.0
C761 C 0.81936 0.87989 0.94343 0.0
C762 C 0.62823 0.96308 0.97085 0.0
C763 C 0.65193 0.95043 0.96227 0.0
C764 C 0.72587 0.93751 0.98522 0.0
C765 C 0.77776 0.90599 0.93408 0.0
C766 C 0.75203 0.91846 0.94517 0.0
C767 C 0.67741 0.95512 0.97633 0.0
C768 C 0.70323 0.94244 0.96575 0.0
H769 H 0.81246 0.89908 0.8691 0.0
H770 H 0.77262 0.92001 0.88719 0.0
H771 H 0.76661 0.92328 0.99096 0.0
H772 H 0.65509 0.99795 0.0273 0.0
H773 H 0.69666 0.97703 1.01166 0.0
C774 C 0.82083 0.23301 0.27821 0.0
C775 C 0.79894 0.24415 0.29278 0.0
C776 C 0.8436 0.22367 0.29474 0.0
C777 C 0.88027 0.22735 0.36752 0.0
H778 H 0.89934 0.15464 0.35706 0.0
C779 C 0.96266 0.17166 0.44083 0.0
C780 C 0.95321 0.14756 0.45413 0.0
C781 C 0.94751 0.1849 0.41775 0.0
C782 C 0.89438 0.17503 0.36003 0.0
H783 H 0.78417 0.25427 0.33635 0.0
H784 H 0.82404 0.23875 0.36477 0.0
H785 H 0.86626 0.17659 0.32264 0.0
H786 H 0.92122 0.11788 0.45314 0.0
H787 H 0.89493 0.14082 0.41276 0.0
H788 H 0.90777 0.22549 0.40552 0.0
C789 C 0.82366 0.23744 0.34054 0.0
C790 C 0.87564 0.18765 0.34023 0.0
C791 C 0.8008 0.24643 0.32414 0.0
C792 C 0.92881 0.13658 0.44345 0.0
C793 C 0.91392 0.14956 0.42017 0.0
C794 C 0.89927 0.21483 0.38711 0.0
C795 C 0.8451 0.22561 0.32611 0.0
C796 C 0.86786 0.21369 0.34427 0.0
C797 C 0.92297 0.17396 0.40727 0.0
C798 C 0.90593 0.18833 0.38404 0.0
H799 H 0.82029 0.23127 0.25406 0.0
H800 H 0.85995 0.21476 0.28306 0.0
H801 H 0.87475 0.24751 0.37099 0.0
H802 H 0.98142 0.18052 0.44873 0.0
H803 H 0.95493 0.20367 0.40813 0.0
C804 C 0.32161 0.61971 0.12663 0.0
C805 C 0.34042 0.60179 0.14012 0.0
C806 C 0.29441 0.61227 0.12245 0.0
C807 C 0.24843 0.55327 0.12283 0.0
H808 H 0.19258 0.60512 0.13318 0.0
C809 C 0.13433 0.52697 0.13532 0.0
C810 C 0.11731 0.54053 0.11415 0.0
C811 C 0.16145 0.5349 0.13887 0.0
C812 C 0.20803 0.59052 0.13017 0.0
H813 H 0.34538 0.56163 0.15886 0.0
H814 H 0.2979 0.54919 0.15321 0.0
H815 H 0.24042 0.61778 0.13802 0.0
H816 H 0.1147 0.57333 0.08074 0.0
H817 H 0.162 0.58773 0.0877 0.0
H818 H 0.21573 0.52585 0.11605 0.0
C819 C 0.30416 0.56884 0.14517 0.0
C820 C 0.23544 0.59776 0.13268 0.0
C821 C 0.33141 0.57613 0.14888 0.0
C822 C 0.12749 0.56262 0.09728 0.0
C823 C 0.15443 0.57086 0.10126 0.0
C824 C 0.22102 0.54595 0.12089 0.0
C825 C 0.28524 0.58684 0.13205 0.0
C826 C 0.25603 0.57924 0.12897 0.0
C827 C 0.17172 0.55681 0.12174 0.0
C828 C 0.20065 0.56452 0.12448 0.0
H829 H 0.32767 0.63974 0.1199 0.0
H830 H 0.28059 0.62654 0.11176 0.0
H831 H 0.26362 0.53859 0.1192 0.0
H832 H 0.12695 0.50976 0.14843 0.0
H833 H 0.17446 0.52387 0.15489 0.0
C834 C 0.3372 0.30411 0.71073 0.0
C835 C 0.33183 0.281 0.69582 0.0
C836 C 0.34886 0.3261 0.69535 0.0
C837 C 0.35719 0.35603 0.61836 0.0
H838 H 0.41302 0.39838 0.65563 0.0
C839 C 0.42612 0.43015 0.55209 0.0
C840 C 0.4338 0.45368 0.56524 0.0
C841 C 0.41039 0.41115 0.5679 0.0
C842 C 0.3971 0.38702 0.64511 0.0
H843 H 0.334 0.2626 0.65331 0.0
H844 H 0.35513 0.30076 0.62649 0.0
H845 H 0.39377 0.36017 0.68386 0.0
H846 H 0.42943 0.47636 0.60463 0.0
H847 H 0.40205 0.44292 0.63242 0.0
H848 H 0.36096 0.3826 0.57938 0.0
C849 C 0.35018 0.30203 0.64999 0.0
C850 C 0.38614 0.36508 0.66124 0.0
C851 C 0.33845 0.28009 0.66537 0.0
C852 C 0.42422 0.45829 0.59404 0.0
C853 C 0.40857 0.43916 0.60995 0.0
C854 C 0.36821 0.37791 0.6022 0.0
C855 C 0.35516 0.32541 0.6647 0.0
C856 C 0.36629 0.34916 0.64792 0.0
C857 C 0.40206 0.41515 0.59729 0.0
C858 C 0.38848 0.39347 0.6153 0.0
H859 H 0.33159 0.30539 0.73404 0.0
H860 H 0.35209 0.34391 0.70722 0.0
H861 H 0.34149 0.3445 0.60768 0.0
H862 H 0.43353 0.42566 0.53021 0.0
H863 H 0.40599 0.39272 0.55768 0.0
C864 C 0.9008 0.75198 0.95411 0.0
C865 C 0.9119 0.76896 0.9312 0.0
C866 C 0.91594 0.73094 0.96765 0.0
C867 C 0.97621 0.68864 0.95412 0.0
H868 H 0.96566 0.66369 0.03719 0.0
C869 C 0.04068 0.60273 1.01114 0.0
C870 C 1.0277 0.58452 0.03147 0.0
C871 C 1.02747 0.62583 0.99981 0.0
C872 C 0.96872 0.67011 1.01383 0.0
H873 H 0.9482 0.77761 0.90555 0.0
H874 H 0.9749 0.74141 0.92949 0.0
H875 H 0.94187 0.70282 1.0168 0.0
H876 H 0.99032 0.57691 0.05585 0.0
H877 H 0.96738 0.6168 0.03611 0.0
H878 H 1.00301 0.65588 0.95115 0.0
C879 C 0.95421 0.74388 0.93665 0.0
C880 C 0.95498 0.69274 1.00204 0.0
C881 C 0.93902 0.76494 0.92311 0.0
C882 C 1.00113 0.59033 0.04028 0.0
C883 C 0.98795 0.61346 0.02904 0.0
C884 C 0.99 0.66604 0.96594 0.0
C885 C 0.94279 0.72616 0.95881 0.0
C886 C 0.95833 0.70241 0.97189 0.0
C887 C 1.00081 0.63162 1.00848 0.0
C888 C 0.98643 0.65624 0.99599 0.0
H889 H 0.87994 0.75437 0.96082 0.0
H890 H 0.9061 0.71783 0.9843 0.0
H891 H 0.97914 0.69491 0.93069 0.0
H892 H 0.06111 0.59913 1.00378 0.0
H893 H 0.03836 0.63931 0.98442 0.0
C894 C 0.45029 0.65454 0.10519 0.0
C895 C 0.42302 0.65711 0.11329 0.0
C896 C 0.46455 0.67607 0.09199 0.0
C897 C 0.45694 0.74595 0.06119 0.0
H898 H 0.52754 0.75458 0.09995 0.0
C899 C 0.50497 0.8462 0.08508 0.0
C900 C 0.53306 0.8499 0.08113 0.0
C901 C 0.49281 0.82171 0.08096 0.0
C902 C 0.50811 0.75229 0.08844 0.0
H903 H 0.38879 0.68359 0.11253 0.0
H904 H 0.41371 0.72136 0.09036 0.0
H905 H 0.5036 0.71258 0.10618 0.0
H906 H 0.5704 0.83123 0.06911 0.0
H907 H 0.54913 0.78802 0.06243 0.0
H908 H 0.46097 0.78643 0.04513 0.0
C909 C 0.42409 0.70268 0.09343 0.0
C910 C 0.49436 0.72814 0.09189 0.0
C911 C 0.40976 0.68105 0.10625 0.0
C912 C 0.5487 0.82883 0.07229 0.0
C913 C 0.53657 0.80418 0.06855 0.0
C914 C 0.47059 0.77022 0.05803 0.0
C915 C 0.45193 0.70071 0.0871 0.0
C916 C 0.46826 0.72487 0.07901 0.0
C917 C 0.50855 0.80036 0.07311 0.0
C918 C 0.49598 0.77378 0.0723 0.0
H919 H 0.46085 0.63614 0.11011 0.0
H920 H 0.48577 0.67366 0.08674 0.0
H921 H 0.43713 0.74397 0.05045 0.0
H922 H 0.49242 0.86225 0.09152 0.0
H923 H 0.47122 0.81923 0.08496 0.0
C924 C 0.20015 0.21039 0.69968 0.0
C925 C 0.21172 0.20717 0.72873 0.0
C926 C 0.18299 0.19103 0.68872 0.0
C927 C 0.17105 0.12053 0.69543 0.0
H928 H 0.10719 0.13777 0.64588 0.0
C929 C 0.08471 0.06583 0.61813 0.0
C930 C 0.10205 0.05133 0.60078 0.0
C931 C 0.09549 0.08371 0.63797 0.0
C932 C 0.12475 0.13257 0.65998 0.0
H933 H 0.21392 0.18172 0.76953 0.0
H934 H 0.18398 0.14735 0.75007 0.0
H935 H 0.12953 0.17193 0.67415 0.0
H936 H 0.1441 0.04387 0.59058 0.0
H937 H 0.16296 0.07508 0.62522 0.0
H938 H 0.16674 0.08136 0.68055 0.0
C939 C 0.18824 0.16495 0.73588 0.0
C940 C 0.13762 0.15214 0.67599 0.0
C941 C 0.20521 0.18457 0.74703 0.0
C942 C 0.1303 0.05479 0.60375 0.0
C943 C 0.14108 0.07248 0.62374 0.0
C944 C 0.1583 0.10101 0.67923 0.0
C945 C 0.17719 0.16794 0.7065 0.0
C946 C 0.16125 0.14645 0.6933 0.0
C947 C 0.12379 0.08721 0.64095 0.0
C948 C 0.1354 0.10699 0.66082 0.0
H949 H 0.20465 0.22781 0.68527 0.0
H950 H 0.17502 0.19374 0.66588 0.0
H951 H 0.18934 0.11565 0.70844 0.0
H952 H 0.06282 0.0635 0.61621 0.0
H953 H 0.08171 0.09475 0.65104 0.0
C954 C 0.66576 0.31758 0.33145 0.0
C955 C 0.69248 0.31172 0.32378 0.0
C956 C 0.6609 0.33556 0.35318 0.0
C957 C 0.69072 0.39086 0.39193 0.0
H958 H 0.6351 0.37246 0.45056 0.0
C959 C 0.66159 0.46109 0.48371 0.0
C960 C 0.63343 0.46454 0.48655 0.0
C961 C 0.67142 0.4407 0.46723 0.0
C962 C 0.65062 0.37793 0.4343 0.0
H963 H 0.73511 0.31948 0.33316 0.0
H964 H 0.72661 0.35144 0.37103 0.0
H965 H 0.64718 0.34089 0.41402 0.0
H966 H 0.59357 0.44865 0.47533 0.0
H967 H 0.6106 0.41348 0.44662 0.0
H968 H 0.69358 0.42824 0.41168 0.0
C969 C 0.70945 0.34235 0.3599 0.0
C970 C 0.65751 0.35987 0.41337 0.0
C971 C 0.71432 0.32417 0.33824 0.0
C972 C 0.61539 0.44662 0.47357 0.0
C973 C 0.62518 0.42629 0.45724 0.0
C974 C 0.68372 0.40903 0.41283 0.0
C975 C 0.68268 0.34794 0.36784 0.0
C976 C 0.6772 0.36635 0.39156 0.0
C977 C 0.65327 0.4233 0.45347 0.0
C978 C 0.66316 0.40296 0.43382 0.0
H979 H 0.64859 0.30792 0.32097 0.0
H980 H 0.64004 0.33972 0.35858 0.0
H981 H 0.70591 0.3964 0.3753 0.0
H982 H 0.67603 0.47458 0.49344 0.0
H983 H 0.69319 0.43873 0.46496 0.0
loop_
_geom_bond_atom_site_label_1
_geom_bond_atom_site_label_2
_geom_bond_distance
_geom_bond_site_symmetry_2
_ccdc_geom_bond_type
H0 C7 0.929 . S
H1 C10 0.930 . S
H2 C12 0.929 . S
H3 C4 0.969 . S
C4 H3 0.969 . S
C4 O5 1.550 . S
C4 H6 0.973 . S
O5 C4 1.550 . S
O5 C11 1.412 . S
H6 C4 0.973 . S
C7 H0 0.929 . S
C7 C8 1.400 . S
C7 C9 1.364 . S
C8 C7 1.400 . S
C8 C12 1.377 . S
C9 C7 1.364 . S
C9 C10 1.374 . S
C10 H1 0.930 . S
C10 C9 1.374 . S
C10 C11 1.383 . S
C11 O5 1.412 . S
C11 C10 1.383 . S
C11 C12 1.394 . S
C12 H2 0.929 . S
C12 C8 1.377 . S
C12 C11 1.394 . S
H13 C20 0.929 . S
H14 C23 0.930 . S
H15 C25 0.929 . S
H16 C17 0.969 . S
C17 H16 0.969 . S
C17 O18 1.550 . S
C17 H19 0.973 . S
O18 C17 1.550 . S
O18 C24 1.412 . S
H19 C17 0.973 . S
C20 H13 0.929 . S
C20 C21 1.400 . S
C20 C22 1.364 . S
C21 C20 1.400 . S
C21 C25 1.377 . S
C22 C20 1.364 . S
C22 C23 1.374 . S
C23 H14 0.930 . S
C23 C22 1.374 . S
C23 C24 1.383 . S
C24 O18 1.412 . S
C24 C23 1.383 . S
C24 C25 1.394 . S
C25 H15 0.929 . S
C25 C21 1.377 . S
C25 C24 1.394 . S
H26 C33 0.929 . S
H27 C36 0.930 . S
H28 C38 0.929 . S
H29 C30 0.969 . S
C30 H29 0.969 . S
C30 O31 1.550 . S
C30 H32 0.973 . S
O31 C30 1.550 . S
O31 C37 1.412 . S
H32 C30 0.973 . S
C33 H26 0.929 . S
C33 C34 1.400 . S
C33 C35 1.364 . S
C34 C33 1.400 . S
C34 C38 1.377 . S
C35 C33 1.364 . S
C35 C36 1.374 . S
C36 H27 0.930 . S
C36 C35 1.374 . S
C36 C37 1.383 . S
C37 O31 1.412 . S
C37 C36 1.383 . S
C37 C38 1.394 . S
C38 H28 0.929 . S
C38 C34 1.377 . S
C38 C37 1.394 . S
H39 C46 0.929 . S
H40 C49 0.930 . S
H41 C51 0.929 . S
H42 C43 0.969 . S
C43 H42 0.969 . S
C43 O44 1.550 . S
C43 H45 0.973 . S
O44 C43 1.550 . S
O44 C50 1.412 . S
H45 C43 0.973 . S
C46 H39 0.929 . S
C46 C47 1.400 . S
C46 C48 1.364 . S
C47 C46 1.400 . S
C47 C51 1.377 . S
C48 C46 1.364 . S
C48 C49 1.374 . S
C49 H40 0.930 . S
C49 C48 1.374 . S
C49 C50 1.383 . S
C50 O44 1.412 . S
C50 C49 1.383 . S
C50 C51 1.394 . S
C51 H41 0.929 . S
C51 C47 1.377 . S
C51 C50 1.394 . S
H52 C59 0.929 . S
H53 C62 0.930 . S
H54 C64 0.929 . S
H55 C56 0.969 . S
C56 H55 0.969 . S
C56 O57 1.550 . S
C56 H58 0.973 . S
O57 C56 1.550 . S
O57 C63 1.412 . S
H58 C56 0.973 . S
C59 H52 0.929 . S
C59 C60 1.400 . S
C59 C61 1.364 . S
C60 C59 1.400 . S
C60 C64 1.377 . S
C61 C59 1.364 . S
C61 C62 1.374 . S
C62 H53 0.930 . S
C62 C61 1.374 . S
C62 C63 1.383 . S
C63 O57 1.412 . S
C63 C62 1.383 . S
C63 C64 1.394 . S
C64 H54 0.929 . S
C64 C60 1.377 . S
C64 C63 1.394 . S
H65 C72 0.929 . S
H66 C75 0.930 . S
H67 C77 0.929 . S
H68 C69 0.969 . S
C69 H68 0.969 . S
C69 O70 1.550 . S
C69 H71 0.973 . S
O70 C69 1.550 . S
O70 C76 1.412 . S
H71 C69 0.973 . S
C72 H65 0.929 . S
C72 C73 1.400 . S
C72 C74 1.364 . S
C73 C72 1.400 . S
C73 C77 1.377 . S
C74 C72 1.364 . S
C74 C75 1.374 . S
C75 H66 0.930 . S
C75 C74 1.374 . S
C75 C76 1.383 . S
C76 O70 1.412 . S
C76 C75 1.383 . S
C76 C77 1.394 . S
C77 H67 0.929 . S
C77 C73 1.377 . S
C77 C76 1.394 . S
H78 C85 0.929 . S
H79 C88 0.930 . S
H80 C90 0.929 . S
H81 C82 0.969 . S
C82 H81 0.969 . S
C82 O83 1.550 . S
C82 H84 0.973 . S
O83 C82 1.550 . S
O83 C89 1.412 . S
H84 C82 0.973 . S
C85 H78 0.929 . S
C85 C86 1.400 . S
C85 C87 1.364 . S
C86 C85 1.400 . S
C86 C90 1.377 . S
C87 C85 1.364 . S
C87 C88 1.374 . S
C88 H79 0.930 . S
C88 C87 1.374 . S
C88 C89 1.383 . S
C89 O83 1.412 . S
C89 C88 1.383 . S
C89 C90 1.394 . S
C90 H80 0.929 . S
C90 C86 1.377 . S
C90 C89 1.394 . S
H91 C98 0.929 . S
H92 C101 0.930 . S
H93 C103 0.929 . S
H94 C95 0.969 . S
C95 H94 0.969 . S
C95 O96 1.550 . S
C95 H97 0.973 . S
O96 C95 1.550 . S
O96 C102 1.412 . S
H97 C95 0.973 . S
C98 H91 0.929 . S
C98 C99 1.400 . S
C98 C100 1.364 . S
C99 C98 1.400 . S
C99 C103 1.377 . S
C100 C98 1.364 . S
C100 C101 1.374 . S
C101 H92 0.930 . S
C101 C100 1.374 . S
C101 C102 1.383 . S
C102 O96 1.412 . S
C102 C101 1.383 . S
C102 C103 1.394 . S
C103 H93 0.929 . S
C103 C99 1.377 . S
C103 C102 1.394 . S
Nd104 C106 2.836 . S
Nd104 O124 2.500 . S
Nd104 O125 2.492 . S
Nd104 O126 2.487 1_565 S
Nd104 O127 2.682 1_565 S
Nd104 O128 2.410 . S
Nd104 O133 2.414 . S
Nd104 O135 2.424 1_565 S
Nd105 C115 2.836 . S
Nd105 O127 2.414 1_655 S
Nd105 O129 2.424 . S
Nd105 O130 2.500 . S
Nd105 O131 2.492 . S
Nd105 O132 2.487 1_545 S
Nd105 O133 2.682 1_645 S
Nd105 O134 2.410 1_655 S
C106 Nd104 2.836 . S
C106 C107 1.498 . S
C106 O124 1.258 . S
C106 O125 1.239 . S
C107 C106 1.498 . S
C107 C108 1.366 . S
C107 C112 1.407 . S
C108 C107 1.366 . S
C108 C109 1.392 . S
C108 H136 0.930 . S
C109 C108 1.392 . S
C109 C110 1.398 . S
C109 H137 0.929 . S
C110 C109 1.398 . S
C110 C111 1.352 . S
C111 C110 1.352 . S
C111 C112 1.384 . S
C111 H138 0.930 . S
C112 C107 1.407 . S
C112 C111 1.384 . S
C112 H139 0.929 . S
C113 O126 1.241 . S
C113 O127 1.273 . S
C114 O128 1.251 . S
C114 O129 1.268 1_465 S
C115 Nd105 2.836 . S
C115 C116 1.498 . S
C115 O130 1.258 . S
C115 O131 1.239 . S
C116 C115 1.498 . S
C116 C117 1.366 . S
C116 C121 1.407 . S
C117 C116 1.366 . S
C117 C118 1.392 . S
C117 H140 0.930 . S
C118 C117 1.392 . S
C118 C119 1.398 . S
C118 H141 0.929 . S
C119 C118 1.398 . S
C119 C120 1.352 . S
C120 C119 1.352 . S
C120 C121 1.384 . S
C120 H142 0.930 . S
C121 C116 1.407 . S
C121 C120 1.384 . S
C121 H143 0.929 . S
C122 O132 1.241 . S
C122 O133 1.273 1_655 S
C123 O134 1.251 . S
C123 O135 1.268 . S
O124 Nd104 2.500 . S
O124 C106 1.258 . S
O125 Nd104 2.492 . S
O125 C106 1.239 . S
O126 Nd104 2.487 1_545 S
O126 C113 1.241 . S
O127 Nd104 2.682 1_545 S
O127 Nd105 2.414 1_455 S
O127 C113 1.273 . S
O128 Nd104 2.410 . S
O128 C114 1.251 . S
O129 Nd105 2.424 . S
O129 C114 1.268 1_645 S
O130 Nd105 2.500 . S
O130 C115 1.258 . S
O131 Nd105 2.492 . S
O131 C115 1.239 . S
O132 Nd105 2.487 1_565 S
O132 C122 1.241 . S
O133 Nd104 2.414 . S
O133 Nd105 2.682 1_465 S
O133 C122 1.273 1_455 S
O134 Nd105 2.410 1_455 S
O134 C123 1.251 . S
O135 Nd104 2.424 1_545 S
O135 C123 1.268 . S
H136 C108 0.930 . S
H137 C109 0.929 . S
H138 C111 0.930 . S
H139 C112 0.929 . S
H140 C117 0.930 . S
H141 C118 0.929 . S
H142 C120 0.930 . S
H143 C121 0.929 . S
Nd144 C146 2.836 . S
Nd144 O164 2.500 . S
Nd144 O165 2.492 . S
Nd144 O166 2.487 1_565 S
Nd144 O167 2.682 1_565 S
Nd144 O168 2.410 1_554 S
Nd144 O173 2.414 1_554 S
Nd144 O175 2.424 1_565 S
Nd145 C155 2.836 . S
Nd145 O167 2.414 1_556 S
Nd145 O169 2.424 1_545 S
Nd145 O170 2.500 . S
Nd145 O171 2.492 . S
Nd145 O172 2.487 . S
Nd145 O173 2.682 1_545 S
Nd145 O174 2.410 1_556 S
C146 Nd144 2.836 . S
C146 C147 1.498 . S
C146 O164 1.258 . S
C146 O165 1.239 . S
C147 C146 1.498 . S
C147 C148 1.366 . S
C147 C152 1.407 . S
C148 C147 1.366 . S
C148 C149 1.392 . S
C148 H176 0.930 . S
C149 C148 1.392 . S
C149 C150 1.398 . S
C149 H177 0.929 . S
C150 C149 1.398 . S
C150 C151 1.352 . S
C151 C150 1.352 . S
C151 C152 1.384 . S
C151 H178 0.930 . S
C152 C147 1.407 . S
C152 C151 1.384 . S
C152 H179 0.929 . S
C153 O166 1.241 . S
C153 O167 1.273 . S
C154 O168 1.251 . S
C154 O169 1.268 . S
C155 Nd145 2.836 . S
C155 C156 1.498 . S
C155 O170 1.258 . S
C155 O171 1.239 . S
C156 C155 1.498 . S
C156 C157 1.366 . S
C156 C161 1.407 . S
C157 C156 1.366 . S
C157 C158 1.392 . S
C157 H180 0.930 . S
C158 C157 1.392 . S
C158 C159 1.398 . S
C158 H181 0.929 . S
C159 C158 1.398 . S
C159 C160 1.352 . S
C160 C159 1.352 . S
C160 C161 1.384 . S
C160 H182 0.930 . S
C161 C156 1.407 . S
C161 C160 1.384 . S
C161 H183 0.929 . S
C162 O172 1.241 1_565 S
C162 O173 1.273 . S
C163 O174 1.251 . S
C163 O175 1.268 . S
O164 Nd144 2.500 . S
O164 C146 1.258 . S
O165 Nd144 2.492 . S
O165 C146 1.239 . S
O166 Nd144 2.487 1_545 S
O166 C153 1.241 . S
O167 Nd144 2.682 1_545 S
O167 Nd145 2.414 1_554 S
O167 C153 1.273 . S
O168 Nd144 2.410 1_556 S
O168 C154 1.251 . S
O169 Nd145 2.424 1_565 S
O169 C154 1.268 . S
O170 Nd145 2.500 . S
O170 C155 1.258 . S
O171 Nd145 2.492 . S
O171 C155 1.239 . S
O172 Nd145 2.487 . S
O172 C162 1.241 1_545 S
O173 Nd144 2.414 1_556 S
O173 Nd145 2.682 1_565 S
O173 C162 1.273 . S
O174 Nd145 2.410 1_554 S
O174 C163 1.251 . S
O175 Nd144 2.424 1_545 S
O175 C163 1.268 . S
H176 C148 0.930 . S
H177 C149 0.929 . S
H178 C151 0.930 . S
H179 C152 0.929 . S
H180 C157 0.930 . S
H181 C158 0.929 . S
H182 C160 0.930 . S
H183 C161 0.929 . S
Nd184 C186 2.836 . S
Nd184 O204 2.500 . S
Nd184 O205 2.492 . S
Nd184 O206 2.487 . S
Nd184 O207 2.682 . S
Nd184 O208 2.410 . S
Nd184 O213 2.414 . S
Nd184 O215 2.424 . S
Nd185 C195 2.836 . S
Nd185 O207 2.414 . S
Nd185 O209 2.424 . S
Nd185 O210 2.500 . S
Nd185 O211 2.492 . S
Nd185 O212 2.487 . S
Nd185 O213 2.682 . S
Nd185 O214 2.410 . S
C186 Nd184 2.836 . S
C186 C187 1.498 . S
C186 O204 1.258 . S
C186 O205 1.239 . S
C187 C186 1.498 . S
C187 C188 1.366 . S
C187 C192 1.407 . S
C188 C187 1.366 . S
C188 C189 1.392 . S
C188 H216 0.930 . S
C189 C188 1.392 . S
C189 C190 1.398 . S
C189 H217 0.929 . S
C190 C189 1.398 . S
C190 C191 1.352 . S
C191 C190 1.352 . S
C191 C192 1.384 . S
C191 H218 0.930 . S
C192 C187 1.407 . S
C192 C191 1.384 . S
C192 H219 0.929 . S
C193 O206 1.241 . S
C193 O207 1.273 . S
C194 O208 1.251 . S
C194 O209 1.268 . S
C195 Nd185 2.836 . S
C195 C196 1.498 . S
C195 O210 1.258 . S
C195 O211 1.239 . S
C196 C195 1.498 . S
C196 C197 1.366 . S
C196 C201 1.407 . S
C197 C196 1.366 . S
C197 C198 1.392 . S
C197 H220 0.930 . S
C198 C197 1.392 . S
C198 C199 1.398 . S
C198 H221 0.929 . S
C199 C198 1.398 . S
C199 C200 1.352 . S
C200 C199 1.352 . S
C200 C201 1.384 . S
C200 H222 0.930 . S
C201 C196 1.407 . S
C201 C200 1.384 . S
C201 H223 0.929 . S
C202 O212 1.241 . S
C202 O213 1.273 . S
C203 O214 1.251 . S
C203 O215 1.268 . S
O204 Nd184 2.500 . S
O204 C186 1.258 . S
O205 Nd184 2.492 . S
O205 C186 1.239 . S
O206 Nd184 2.487 . S
O206 C193 1.241 . S
O207 Nd184 2.682 . S
O207 Nd185 2.414 . S
O207 C193 1.273 . S
O208 Nd184 2.410 . S
O208 C194 1.251 . S
O209 Nd185 2.424 . S
O209 C194 1.268 . S
O210 Nd185 2.500 . S
O210 C195 1.258 . S
O211 Nd185 2.492 . S
O211 C195 1.239 . S
O212 Nd185 2.487 . S
O212 C202 1.241 . S
O213 Nd184 2.414 . S
O213 Nd185 2.682 . S
O213 C202 1.273 . S
O214 Nd185 2.410 . S
O214 C203 1.251 . S
O215 Nd184 2.424 . S
O215 C203 1.268 . S
H216 C188 0.930 . S
H217 C189 0.929 . S
H218 C191 0.930 . S
H219 C192 0.929 . S
H220 C197 0.930 . S
H221 C198 0.929 . S
H222 C200 0.930 . S
H223 C201 0.929 . S
Nd224 C226 2.835 . S
Nd224 O244 2.500 1_455 S
Nd224 O245 2.492 . S
Nd224 O246 2.487 . S
Nd224 O247 2.682 . S
Nd224 O248 2.410 . S
Nd224 O253 2.414 . S
Nd224 O255 2.424 . S
Nd225 C235 2.836 . S
Nd225 O247 2.414 1_556 S
Nd225 O249 2.424 . S
Nd225 O250 2.500 . S
Nd225 O251 2.492 . S
Nd225 O252 2.487 1_455 S
Nd225 O253 2.682 1_556 S
Nd225 O254 2.410 1_556 S
C226 Nd224 2.835 . S
C226 C227 1.499 1_455 S
C226 O244 1.259 1_455 S
C226 O245 1.237 . S
C227 C226 1.499 1_655 S
C227 C228 1.366 . S
C227 C232 1.412 . S
C228 C227 1.366 . S
C228 C229 1.392 . S
C228 H256 0.930 . S
C229 C228 1.392 . S
C229 C230 1.398 . S
C229 H257 0.929 . S
C230 C229 1.398 . S
C230 C231 1.352 . S
C231 C230 1.352 . S
C231 C232 1.394 . S
C231 H258 0.930 . S
C232 C227 1.412 . S
C232 C231 1.394 . S
C232 H259 0.915 1_655 S
C233 O246 1.241 . S
C233 O247 1.273 . S
C234 O248 1.251 . S
C234 O249 1.268 1_554 S
C235 Nd225 2.836 . S
C235 C236 1.498 . S
C235 O250 1.258 . S
C235 O251 1.239 . S
C236 C235 1.498 . S
C236 C237 1.366 . S
C236 C241 1.407 . S
C237 C236 1.366 . S
C237 C238 1.392 . S
C237 H260 0.930 . S
C238 C237 1.392 . S
C238 C239 1.398 . S
C238 H261 0.929 . S
C239 C238 1.398 . S
C239 C240 1.352 . S
C240 C239 1.352 . S
C240 C241 1.384 . S
C240 H262 0.930 . S
C241 C236 1.407 . S
C241 C240 1.384 . S
C241 H263 0.929 . S
C242 O252 1.241 . S
C242 O253 1.273 1_656 S
C243 O254 1.251 . S
C243 O255 1.268 . S
O244 Nd224 2.500 1_655 S
O244 C226 1.259 1_655 S
O245 Nd224 2.492 . S
O245 C226 1.237 . S
O246 Nd224 2.487 . S
O246 C233 1.241 . S
O247 Nd224 2.682 . S
O247 Nd225 2.414 1_554 S
O247 C233 1.273 . S
O248 Nd224 2.410 . S
O248 C234 1.251 . S
O249 Nd225 2.424 . S
O249 C234 1.268 1_556 S
O250 Nd225 2.500 . S
O250 C235 1.258 . S
O251 Nd225 2.492 . S
O251 C235 1.239 . S
O252 Nd225 2.487 1_655 S
O252 C242 1.241 . S
O253 Nd224 2.414 . S
O253 Nd225 2.682 1_554 S
O253 C242 1.273 1_454 S
O254 Nd225 2.410 1_554 S
O254 C243 1.251 . S
O255 Nd224 2.424 . S
O255 C243 1.268 . S
H256 C228 0.930 . S
H257 C229 0.929 . S
H258 C231 0.930 . S
H259 C232 0.915 1_455 S
H260 C237 0.930 . S
H261 C238 0.929 . S
H262 C240 0.930 . S
H263 C241 0.929 . S
C264 C265 1.349 . S
C264 C266 1.327 . S
C264 H289 0.950 . S
C265 C264 1.349 . S
C265 C281 1.349 . S
C266 C264 1.327 . S
C266 C285 1.429 . S
C266 H290 0.950 . S
C267 C284 1.574 . S
C267 C286 1.368 . S
C267 H291 0.949 . S
H268 C272 0.949 . S
C269 C270 1.349 . S
C269 C271 1.327 . S
C269 H292 0.950 . S
C270 C269 1.349 . S
C270 C282 1.349 . S
C271 C269 1.327 . S
C271 C287 1.429 . S
C271 H293 0.950 . S
C272 H268 0.949 . S
C272 C280 1.574 . S
C272 C288 1.368 . S
H273 C281 0.950 . S
H274 C279 0.950 . S
H275 C280 0.949 . S
H276 C282 0.950 . S
H277 C283 0.950 . S
H278 C284 0.949 . S
C279 H274 0.950 . S
C279 C281 1.327 . S
C279 C285 1.429 . S
C280 C272 1.574 . S
C280 H275 0.949 . S
C280 C286 1.368 . S
C281 C265 1.349 . S
C281 H273 0.950 . S
C281 C279 1.327 . S
C282 C270 1.349 . S
C282 H276 0.950 . S
C282 C283 1.327 . S
C283 H277 0.950 . S
C283 C282 1.327 . S
C283 C287 1.429 . S
C284 C267 1.574 . S
C284 H278 0.949 . S
C284 C288 1.368 . S
C285 C266 1.429 . S
C285 C279 1.429 . S
C285 C286 1.523 . S
C286 C267 1.368 . S
C286 C280 1.368 . S
C286 C285 1.523 . S
C287 C271 1.429 . S
C287 C283 1.429 . S
C287 C288 1.523 . S
C288 C272 1.368 . S
C288 C284 1.368 . S
C288 C287 1.523 . S
H289 C264 0.950 . S
H290 C266 0.950 . S
H291 C267 0.949 . S
H292 C269 0.950 . S
H293 C271 0.950 . S
C294 C295 1.349 . S
C294 C296 1.327 . S
C294 H319 0.950 . S
C295 C294 1.349 . S
C295 C311 1.349 . S
C296 C294 1.327 . S
C296 C315 1.429 . S
C296 H320 0.950 . S
C297 C314 1.574 . S
C297 C316 1.368 . S
C297 H321 0.949 . S
H298 C302 0.949 . S
C299 C300 1.349 . S
C299 C301 1.327 . S
C299 H322 0.950 . S
C300 C299 1.349 . S
C300 C312 1.349 . S
C301 C299 1.327 . S
C301 C317 1.429 . S
C301 H323 0.950 . S
C302 H298 0.949 . S
C302 C310 1.574 . S
C302 C318 1.368 . S
H303 C311 0.950 . S
H304 C309 0.950 . S
H305 C310 0.949 . S
H306 C312 0.950 . S
H307 C313 0.950 . S
H308 C314 0.949 . S
C309 H304 0.950 . S
C309 C311 1.327 . S
C309 C315 1.429 . S
C310 C302 1.574 . S
C310 H305 0.949 . S
C310 C316 1.368 . S
C311 C295 1.349 . S
C311 H303 0.950 . S
C311 C309 1.327 . S
C312 C300 1.349 . S
C312 H306 0.950 . S
C312 C313 1.327 . S
C313 H307 0.950 . S
C313 C312 1.327 . S
C313 C317 1.429 . S
C314 C297 1.574 . S
C314 H308 0.949 . S
C314 C318 1.368 . S
C315 C296 1.429 . S
C315 C309 1.429 . S
C315 C316 1.523 . S
C316 C297 1.368 . S
C316 C310 1.368 . S
C316 C315 1.523 . S
C317 C301 1.429 . S
C317 C313 1.429 . S
C317 C318 1.523 . S
C318 C302 1.368 . S
C318 C314 1.368 . S
C318 C317 1.523 . S
H319 C294 0.950 . S
H320 C296 0.950 . S
H321 C297 0.949 . S
H322 C299 0.950 . S
H323 C301 0.950 . S
C324 C325 1.349 . S
C324 C326 1.327 . S
C324 H349 0.950 . S
C325 C324 1.349 . S
C325 C341 1.349 . S
C326 C324 1.327 . S
C326 C345 1.429 . S
C326 H350 0.950 . S
C327 C344 1.574 . S
C327 C346 1.368 . S
C327 H351 0.949 . S
H328 C332 0.949 . S
C329 C330 1.349 . S
C329 C331 1.327 . S
C329 H352 0.950 . S
C330 C329 1.349 . S
C330 C342 1.349 . S
C331 C329 1.327 . S
C331 C347 1.429 . S
C331 H353 0.950 . S
C332 H328 0.949 . S
C332 C340 1.574 . S
C332 C348 1.368 . S
H333 C341 0.950 . S
H334 C339 0.950 . S
H335 C340 0.949 . S
H336 C342 0.950 . S
H337 C343 0.950 . S
H338 C344 0.949 . S
C339 H334 0.950 . S
C339 C341 1.327 . S
C339 C345 1.429 . S
C340 C332 1.574 . S
C340 H335 0.949 . S
C340 C346 1.368 . S
C341 C325 1.349 . S
C341 H333 0.950 . S
C341 C339 1.327 . S
C342 C330 1.349 . S
C342 H336 0.950 . S
C342 C343 1.327 . S
C343 H337 0.950 . S
C343 C342 1.327 . S
C343 C347 1.429 . S
C344 C327 1.574 . S
C344 H338 0.949 . S
C344 C348 1.368 . S
C345 C326 1.429 . S
C345 C339 1.429 . S
C345 C346 1.523 . S
C346 C327 1.368 . S
C346 C340 1.368 . S
C346 C345 1.523 . S
C347 C331 1.429 . S
C347 C343 1.429 . S
C347 C348 1.523 . S
C348 C332 1.368 . S
C348 C344 1.368 . S
C348 C347 1.523 . S
H349 C324 0.950 . S
H350 C326 0.950 . S
H351 C327 0.949 . S
H352 C329 0.950 . S
H353 C331 0.950 . S
C354 C355 1.349 . S
C354 C356 1.327 . S
C354 H379 0.950 . S
C355 C354 1.349 . S
C355 C371 1.349 . S
C356 C354 1.327 . S
C356 C375 1.429 . S
C356 H380 0.950 . S
C357 C374 1.574 . S
C357 C376 1.368 . S
C357 H381 0.949 . S
H358 C362 0.949 . S
C359 C360 1.349 . S
C359 C361 1.327 . S
C359 H382 0.950 . S
C360 C359 1.349 . S
C360 C372 1.349 . S
C361 C359 1.327 . S
C361 C377 1.429 . S
C361 H383 0.950 . S
C362 H358 0.949 . S
C362 C370 1.574 . S
C362 C378 1.368 . S
H363 C371 0.950 . S
H364 C369 0.950 . S
H365 C370 0.949 . S
H366 C372 0.950 . S
H367 C373 0.950 . S
H368 C374 0.949 . S
C369 H364 0.950 . S
C369 C371 1.327 . S
C369 C375 1.429 . S
C370 C362 1.574 . S
C370 H365 0.949 . S
C370 C376 1.368 . S
C371 C355 1.349 . S
C371 H363 0.950 . S
C371 C369 1.327 . S
C372 C360 1.349 . S
C372 H366 0.950 . S
C372 C373 1.327 . S
C373 H367 0.950 . S
C373 C372 1.327 . S
C373 C377 1.429 . S
C374 C357 1.574 . S
C374 H368 0.949 . S
C374 C378 1.368 . S
C375 C356 1.429 . S
C375 C369 1.429 . S
C375 C376 1.523 . S
C376 C357 1.368 . S
C376 C370 1.368 . S
C376 C375 1.523 . S
C377 C361 1.429 . S
C377 C373 1.429 . S
C377 C378 1.523 . S
C378 C362 1.368 . S
C378 C374 1.368 . S
C378 C377 1.523 . S
H379 C354 0.950 . S
H380 C356 0.950 . S
H381 C357 0.949 . S
H382 C359 0.950 . S
H383 C361 0.950 . S
C384 C385 1.349 . S
C384 C386 1.327 . S
C384 H409 0.950 . S
C385 C384 1.349 . S
C385 C401 1.349 . S
C386 C384 1.327 . S
C386 C405 1.429 . S
C386 H410 0.950 . S
C387 C404 1.574 . S
C387 C406 1.368 . S
C387 H411 0.949 . S
H388 C392 0.949 . S
C389 C390 1.349 . S
C389 C391 1.327 . S
C389 H412 0.950 . S
C390 C389 1.349 . S
C390 C402 1.349 . S
C391 C389 1.327 . S
C391 C407 1.429 . S
C391 H413 0.950 . S
C392 H388 0.949 . S
C392 C400 1.574 . S
C392 C408 1.368 . S
H393 C401 0.950 . S
H394 C399 0.950 . S
H395 C400 0.949 . S
H396 C402 0.950 . S
H397 C403 0.950 . S
H398 C404 0.949 . S
C399 H394 0.950 . S
C399 C401 1.327 . S
C399 C405 1.429 . S
C400 C392 1.574 . S
C400 H395 0.949 . S
C400 C406 1.368 . S
C401 C385 1.349 . S
C401 H393 0.950 . S
C401 C399 1.327 . S
C402 C390 1.349 . S
C402 H396 0.950 . S
C402 C403 1.327 . S
C403 H397 0.950 . S
C403 C402 1.327 . S
C403 C407 1.429 . S
C404 C387 1.574 . S
C404 H398 0.949 . S
C404 C408 1.368 . S
C405 C386 1.429 . S
C405 C399 1.429 . S
C405 C406 1.523 . S
C406 C387 1.368 . S
C406 C400 1.368 . S
C406 C405 1.523 . S
C407 C391 1.429 . S
C407 C403 1.429 . S
C407 C408 1.523 . S
C408 C392 1.368 . S
C408 C404 1.368 . S
C408 C407 1.523 . S
H409 C384 0.950 . S
H410 C386 0.950 . S
H411 C387 0.949 . S
H412 C389 0.950 . S
H413 C391 0.950 . S
C414 C415 1.349 . S
C414 C416 1.327 . S
C414 H439 0.950 . S
C415 C414 1.349 . S
C415 C431 1.349 . S
C416 C414 1.327 . S
C416 C435 1.429 . S
C416 H440 0.950 . S
C417 C434 1.574 . S
C417 C436 1.368 . S
C417 H441 0.949 . S
H418 C422 0.949 . S
C419 C420 1.349 . S
C419 C421 1.327 . S
C419 H442 0.950 . S
C420 C419 1.349 . S
C420 C432 1.349 . S
C421 C419 1.327 . S
C421 C437 1.429 . S
C421 H443 0.950 . S
C422 H418 0.949 . S
C422 C430 1.574 . S
C422 C438 1.368 . S
H423 C431 0.950 . S
H424 C429 0.950 . S
H425 C430 0.949 . S
H426 C432 0.950 . S
H427 C433 0.950 . S
H428 C434 0.949 . S
C429 H424 0.950 . S
C429 C431 1.327 . S
C429 C435 1.429 . S
C430 C422 1.574 . S
C430 H425 0.949 . S
C430 C436 1.368 . S
C431 C415 1.349 . S
C431 H423 0.950 . S
C431 C429 1.327 . S
C432 C420 1.349 . S
C432 H426 0.950 . S
C432 C433 1.327 . S
C433 H427 0.950 . S
C433 C432 1.327 . S
C433 C437 1.429 . S
C434 C417 1.574 . S
C434 H428 0.949 . S
C434 C438 1.368 . S
C435 C416 1.429 . S
C435 C429 1.429 . S
C435 C436 1.523 . S
C436 C417 1.368 . S
C436 C430 1.368 . S
C436 C435 1.523 . S
C437 C421 1.429 . S
C437 C433 1.429 . S
C437 C438 1.523 . S
C438 C422 1.368 . S
C438 C434 1.368 . S
C438 C437 1.523 . S
H439 C414 0.950 . S
H440 C416 0.950 . S
H441 C417 0.949 . S
H442 C419 0.950 . S
H443 C421 0.950 . S
C444 C445 1.349 . S
C444 C446 1.327 . S
C444 H469 0.950 . S
C445 C444 1.349 . S
C445 C461 1.349 . S
C446 C444 1.327 . S
C446 C465 1.429 . S
C446 H470 0.950 . S
C447 C464 1.574 . S
C447 C466 1.368 . S
C447 H471 0.949 . S
H448 C452 0.949 . S
C449 C450 1.349 . S
C449 C451 1.327 . S
C449 H472 0.950 . S
C450 C449 1.349 . S
C450 C462 1.349 . S
C451 C449 1.327 . S
C451 C467 1.429 . S
C451 H473 0.950 . S
C452 H448 0.949 . S
C452 C460 1.574 . S
C452 C468 1.368 . S
H453 C461 0.950 . S
H454 C459 0.950 . S
H455 C460 0.949 . S
H456 C462 0.950 1_554 S
H457 C463 0.950 . S
H458 C464 0.949 . S
C459 H454 0.950 . S
C459 C461 1.327 . S
C459 C465 1.429 . S
C460 C452 1.574 . S
C460 H455 0.949 . S
C460 C466 1.368 . S
C461 C445 1.349 . S
C461 H453 0.950 . S
C461 C459 1.327 . S
C462 C450 1.349 . S
C462 H456 0.950 1_556 S
C462 C463 1.327 . S
C463 H457 0.950 . S
C463 C462 1.327 . S
C463 C467 1.429 . S
C464 C447 1.574 . S
C464 H458 0.949 . S
C464 C468 1.368 . S
C465 C446 1.429 . S
C465 C459 1.429 . S
C465 C466 1.523 . S
C466 C447 1.368 . S
C466 C460 1.368 . S
C466 C465 1.523 . S
C467 C451 1.429 . S
C467 C463 1.429 . S
C467 C468 1.523 . S
C468 C452 1.368 . S
C468 C464 1.368 . S
C468 C467 1.523 . S
H469 C444 0.950 . S
H470 C446 0.950 . S
H471 C447 0.949 . S
H472 C449 0.950 . S
H473 C451 0.950 . S
C474 C475 1.349 . S
C474 C476 1.327 . S
C474 H499 0.950 . S
C475 C474 1.349 . S
C475 C491 1.349 . S
C476 C474 1.327 . S
C476 C495 1.429 . S
C476 H500 0.950 . S
C477 C494 1.574 . S
C477 C496 1.368 . S
C477 H501 0.949 . S
H478 C482 0.949 . S
C479 C480 1.349 . S
C479 C481 1.327 . S
C479 H502 0.950 . S
C480 C479 1.349 . S
C480 C492 1.349 . S
C481 C479 1.327 . S
C481 C497 1.429 . S
C481 H503 0.950 . S
C482 H478 0.949 . S
C482 C490 1.574 . S
C482 C498 1.368 . S
H483 C491 0.950 . S
H484 C489 0.950 . S
H485 C490 0.949 . S
H486 C492 0.950 . S
H487 C493 0.950 . S
H488 C494 0.949 . S
C489 H484 0.950 . S
C489 C491 1.327 . S
C489 C495 1.429 . S
C490 C482 1.574 . S
C490 H485 0.949 . S
C490 C496 1.368 . S
C491 C475 1.349 . S
C491 H483 0.950 . S
C491 C489 1.327 . S
C492 C480 1.349 . S
C492 H486 0.950 . S
C492 C493 1.327 . S
C493 H487 0.950 . S
C493 C492 1.327 . S
C493 C497 1.429 . S
C494 C477 1.574 . S
C494 H488 0.949 . S
C494 C498 1.368 . S
C495 C476 1.429 . S
C495 C489 1.429 . S
C495 C496 1.523 . S
C496 C477 1.368 . S
C496 C490 1.368 . S
C496 C495 1.523 . S
C497 C481 1.429 . S
C497 C493 1.429 . S
C497 C498 1.523 . S
C498 C482 1.368 . S
C498 C494 1.368 . S
C498 C497 1.523 . S
H499 C474 0.950 . S
H500 C476 0.950 . S
H501 C477 0.949 . S
H502 C479 0.950 . S
H503 C481 0.950 . S
C504 C505 1.349 . S
C504 C506 1.327 . S
C504 H529 0.950 . S
C505 C504 1.349 . S
C505 C521 1.349 . S
C506 C504 1.327 . S
C506 C525 1.429 . S
C506 H530 0.950 . S
C507 C524 1.574 . S
C507 C526 1.368 . S
C507 H531 0.949 . S
H508 C512 0.949 . S
C509 C510 1.349 . S
C509 C511 1.327 . S
C509 H532 0.950 . S
C510 C509 1.349 . S
C510 C522 1.349 . S
C511 C509 1.327 . S
C511 C527 1.429 . S
C511 H533 0.950 . S
C512 H508 0.949 . S
C512 C520 1.574 . S
C512 C528 1.368 . S
H513 C521 0.950 . S
H514 C519 0.950 . S
H515 C520 0.949 . S
H516 C522 0.950 . S
H517 C523 0.950 . S
H518 C524 0.949 . S
C519 H514 0.950 . S
C519 C521 1.327 . S
C519 C525 1.429 . S
C520 C512 1.574 . S
C520 H515 0.949 . S
C520 C526 1.368 . S
C521 C505 1.349 . S
C521 H513 0.950 . S
C521 C519 1.327 . S
C522 C510 1.349 . S
C522 H516 0.950 . S
C522 C523 1.327 . S
C523 H517 0.950 . S
C523 C522 1.327 . S
C523 C527 1.429 . S
C524 C507 1.574 . S
C524 H518 0.949 . S
C524 C528 1.368 . S
C525 C506 1.429 . S
C525 C519 1.429 . S
C525 C526 1.523 . S
C526 C507 1.368 . S
C526 C520 1.368 . S
C526 C525 1.523 . S
C527 C511 1.429 . S
C527 C523 1.429 . S
C527 C528 1.523 . S
C528 C512 1.368 . S
C528 C524 1.368 . S
C528 C527 1.523 . S
H529 C504 0.950 . S
H530 C506 0.950 . S
H531 C507 0.949 . S
H532 C509 0.950 . S
H533 C511 0.950 . S
C534 C535 1.349 . S
C534 C536 1.327 . S
C534 H559 0.950 . S
C535 C534 1.349 . S
C535 C551 1.349 . S
C536 C534 1.327 . S
C536 C555 1.429 . S
C536 H560 0.950 . S
C537 C554 1.574 . S
C537 C556 1.368 . S
C537 H561 0.949 . S
H538 C542 0.949 . S
C539 C540 1.349 . S
C539 C541 1.327 . S
C539 H562 0.950 . S
C540 C539 1.349 . S
C540 C552 1.349 . S
C541 C539 1.327 . S
C541 C557 1.429 . S
C541 H563 0.950 . S
C542 H538 0.949 . S
C542 C550 1.574 . S
C542 C558 1.368 . S
H543 C551 0.950 . S
H544 C549 0.950 . S
H545 C550 0.949 . S
H546 C552 0.950 . S
H547 C553 0.950 . S
H548 C554 0.949 . S
C549 H544 0.950 . S
C549 C551 1.327 . S
C549 C555 1.429 . S
C550 C542 1.574 . S
C550 H545 0.949 . S
C550 C556 1.368 . S
C551 C535 1.349 . S
C551 H543 0.950 . S
C551 C549 1.327 . S
C552 C540 1.349 . S
C552 H546 0.950 . S
C552 C553 1.327 . S
C553 H547 0.950 . S
C553 C552 1.327 . S
C553 C557 1.429 . S
C554 C537 1.574 . S
C554 H548 0.949 . S
C554 C558 1.368 . S
C555 C536 1.429 . S
C555 C549 1.429 . S
C555 C556 1.523 . S
C556 C537 1.368 . S
C556 C550 1.368 . S
C556 C555 1.523 . S
C557 C541 1.429 . S
C557 C553 1.429 . S
C557 C558 1.523 . S
C558 C542 1.368 . S
C558 C554 1.368 . S
C558 C557 1.523 . S
H559 C534 0.950 . S
H560 C536 0.950 . S
H561 C537 0.949 . S
H562 C539 0.950 . S
H563 C541 0.950 . S
C564 C565 1.349 . S
C564 C566 1.327 . S
C564 H589 0.950 . S
C565 C564 1.349 . S
C565 C581 1.349 . S
C566 C564 1.327 . S
C566 C585 1.429 . S
C566 H590 0.950 . S
C567 C584 1.574 . S
C567 C586 1.368 . S
C567 H591 0.949 . S
H568 C572 0.949 . S
C569 C570 1.349 . S
C569 C571 1.327 . S
C569 H592 0.950 . S
C570 C569 1.349 . S
C570 C582 1.349 . S
C571 C569 1.327 . S
C571 C587 1.429 . S
C571 H593 0.950 . S
C572 H568 0.949 . S
C572 C580 1.574 . S
C572 C588 1.368 . S
H573 C581 0.950 . S
H574 C579 0.950 . S
H575 C580 0.949 . S
H576 C582 0.950 1_455 S
H577 C583 0.950 . S
H578 C584 0.949 . S
C579 H574 0.950 . S
C579 C581 1.327 . S
C579 C585 1.429 . S
C580 C572 1.574 . S
C580 H575 0.949 . S
C580 C586 1.368 . S
C581 C565 1.349 . S
C581 H573 0.950 . S
C581 C579 1.327 . S
C582 C570 1.349 . S
C582 H576 0.950 1_655 S
C582 C583 1.327 . S
C583 H577 0.950 . S
C583 C582 1.327 . S
C583 C587 1.429 . S
C584 C567 1.574 . S
C584 H578 0.949 . S
C584 C588 1.368 . S
C585 C566 1.429 . S
C585 C579 1.429 . S
C585 C586 1.523 . S
C586 C567 1.368 . S
C586 C580 1.368 . S
C586 C585 1.523 . S
C587 C571 1.429 . S
C587 C583 1.429 . S
C587 C588 1.523 . S
C588 C572 1.368 . S
C588 C584 1.368 . S
C588 C587 1.523 . S
H589 C564 0.950 . S
H590 C566 0.950 . S
H591 C567 0.949 . S
H592 C569 0.950 . S
H593 C571 0.950 . S
C594 C595 1.349 . S
C594 C596 1.327 . S
C594 H619 0.950 . S
C595 C594 1.349 . S
C595 C611 1.349 . S
C596 C594 1.327 . S
C596 C615 1.429 . S
C596 H620 0.950 . S
C597 C614 1.574 . S
C597 C616 1.368 . S
C597 H621 0.949 . S
H598 C602 0.949 . S
C599 C600 1.349 . S
C599 C601 1.327 . S
C599 H622 0.950 . S
C600 C599 1.349 . S
C600 C612 1.349 . S
C601 C599 1.327 . S
C601 C617 1.429 . S
C601 H623 0.950 . S
C602 H598 0.949 . S
C602 C610 1.574 . S
C602 C618 1.368 . S
H603 C611 0.950 . S
H604 C609 0.950 . S
H605 C610 0.949 . S
H606 C612 0.950 . S
H607 C613 0.950 . S
H608 C614 0.949 . S
C609 H604 0.950 . S
C609 C611 1.327 . S
C609 C615 1.429 . S
C610 C602 1.574 . S
C610 H605 0.949 . S
C610 C616 1.368 . S
C611 C595 1.349 . S
C611 H603 0.950 . S
C611 C609 1.327 . S
C612 C600 1.349 . S
C612 H606 0.950 . S
C612 C613 1.327 . S
C613 H607 0.950 . S
C613 C612 1.327 . S
C613 C617 1.429 . S
C614 C597 1.574 . S
C614 H608 0.949 . S
C614 C618 1.368 . S
C615 C596 1.429 . S
C615 C609 1.429 . S
C615 C616 1.523 . S
C616 C597 1.368 . S
C616 C610 1.368 . S
C616 C615 1.523 . S
C617 C601 1.429 . S
C617 C613 1.429 . S
C617 C618 1.523 . S
C618 C602 1.368 . S
C618 C614 1.368 . S
C618 C617 1.523 . S
H619 C594 0.950 . S
H620 C596 0.950 . S
H621 C597 0.949 . S
H622 C599 0.950 . S
H623 C601 0.950 . S
C624 C625 1.349 . S
C624 C626 1.327 . S
C624 H649 0.950 . S
C625 C624 1.349 . S
C625 C641 1.349 . S
C626 C624 1.327 . S
C626 C645 1.429 . S
C626 H650 0.950 . S
C627 C644 1.574 . S
C627 C646 1.368 . S
C627 H651 0.949 . S
H628 C632 0.949 . S
C629 C630 1.349 . S
C629 C631 1.327 . S
C629 H652 0.950 1_655 S
C630 C629 1.349 . S
C630 C642 1.349 . S
C631 C629 1.327 . S
C631 C647 1.429 . S
C631 H653 0.950 . S
C632 H628 0.949 . S
C632 C640 1.574 . S
C632 C648 1.368 . S
H633 C641 0.950 . S
H634 C639 0.950 . S
H635 C640 0.949 . S
H636 C642 0.950 . S
H637 C643 0.950 . S
H638 C644 0.949 . S
C639 H634 0.950 . S
C639 C641 1.327 . S
C639 C645 1.429 . S
C640 C632 1.574 . S
C640 H635 0.949 . S
C640 C646 1.368 . S
C641 C625 1.349 . S
C641 H633 0.950 . S
C641 C639 1.327 . S
C642 C630 1.349 . S
C642 H636 0.950 . S
C642 C643 1.327 . S
C643 H637 0.950 . S
C643 C642 1.327 . S
C643 C647 1.429 . S
C644 C627 1.574 . S
C644 H638 0.949 . S
C644 C648 1.368 . S
C645 C626 1.429 . S
C645 C639 1.429 . S
C645 C646 1.523 . S
C646 C627 1.368 . S
C646 C640 1.368 . S
C646 C645 1.523 . S
C647 C631 1.429 . S
C647 C643 1.429 . S
C647 C648 1.523 . S
C648 C632 1.368 . S
C648 C644 1.368 . S
C648 C647 1.523 . S
H649 C624 0.950 . S
H650 C626 0.950 . S
H651 C627 0.949 . S
H652 C629 0.950 1_455 S
H653 C631 0.950 . S
C654 C655 1.349 . S
C654 C656 1.327 . S
C654 H679 0.950 . S
C655 C654 1.349 . S
C655 C671 1.349 . S
C656 C654 1.327 . S
C656 C675 1.429 . S
C656 H680 0.950 . S
C657 C674 1.574 . S
C657 C676 1.368 . S
C657 H681 0.949 . S
H658 C662 0.949 . S
C659 C660 1.349 . S
C659 C661 1.327 . S
C659 H682 0.950 . S
C660 C659 1.349 . S
C660 C672 1.349 . S
C661 C659 1.327 . S
C661 C677 1.429 . S
C661 H683 0.950 . S
C662 H658 0.949 . S
C662 C670 1.574 . S
C662 C678 1.368 . S
H663 C671 0.950 . S
H664 C669 0.950 . S
H665 C670 0.949 . S
H666 C672 0.950 . S
H667 C673 0.950 . S
H668 C674 0.949 . S
C669 H664 0.950 . S
C669 C671 1.327 . S
C669 C675 1.429 . S
C670 C662 1.574 . S
C670 H665 0.949 . S
C670 C676 1.368 . S
C671 C655 1.349 . S
C671 H663 0.950 . S
C671 C669 1.327 . S
C672 C660 1.349 . S
C672 H666 0.950 . S
C672 C673 1.327 . S
C673 H667 0.950 . S
C673 C672 1.327 . S
C673 C677 1.429 . S
C674 C657 1.574 . S
C674 H668 0.949 . S
C674 C678 1.368 . S
C675 C656 1.429 . S
C675 C669 1.429 . S
C675 C676 1.523 . S
C676 C657 1.368 . S
C676 C670 1.368 . S
C676 C675 1.523 . S
C677 C661 1.429 . S
C677 C673 1.429 . S
C677 C678 1.523 . S
C678 C662 1.368 . S
C678 C674 1.368 . S
C678 C677 1.523 . S
H679 C654 0.950 . S
H680 C656 0.950 . S
H681 C657 0.949 . S
H682 C659 0.950 . S
H683 C661 0.950 . S
C684 C685 1.349 . S
C684 C686 1.327 . S
C684 H709 0.950 . S
C685 C684 1.349 . S
C685 C701 1.349 . S
C686 C684 1.327 . S
C686 C705 1.429 . S
C686 H710 0.950 . S
C687 C704 1.574 . S
C687 C706 1.368 . S
C687 H711 0.949 . S
H688 C692 0.949 . S
C689 C690 1.349 . S
C689 C691 1.327 . S
C689 H712 0.950 . S
C690 C689 1.349 . S
C690 C702 1.349 . S
C691 C689 1.327 . S
C691 C707 1.429 . S
C691 H713 0.950 . S
C692 H688 0.949 . S
C692 C700 1.574 . S
C692 C708 1.368 . S
H693 C701 0.950 . S
H694 C699 0.950 . S
H695 C700 0.949 . S
H696 C702 0.950 . S
H697 C703 0.950 . S
H698 C704 0.949 . S
C699 H694 0.950 . S
C699 C701 1.327 . S
C699 C705 1.429 . S
C700 C692 1.574 . S
C700 H695 0.949 . S
C700 C706 1.368 . S
C701 C685 1.349 . S
C701 H693 0.950 . S
C701 C699 1.327 . S
C702 C690 1.349 . S
C702 H696 0.950 . S
C702 C703 1.327 . S
C703 H697 0.950 . S
C703 C702 1.327 . S
C703 C707 1.429 . S
C704 C687 1.574 . S
C704 H698 0.949 . S
C704 C708 1.368 . S
C705 C686 1.429 . S
C705 C699 1.429 . S
C705 C706 1.523 . S
C706 C687 1.368 . S
C706 C700 1.368 . S
C706 C705 1.523 . S
C707 C691 1.429 . S
C707 C703 1.429 . S
C707 C708 1.523 . S
C708 C692 1.368 . S
C708 C704 1.368 . S
C708 C707 1.523 . S
H709 C684 0.950 . S
H710 C686 0.950 . S
H711 C687 0.949 . S
H712 C689 0.950 . S
H713 C691 0.950 . S
C714 C715 1.349 . S
C714 C716 1.327 . S
C714 H739 0.950 . S
C715 C714 1.349 . S
C715 C731 1.349 . S
C716 C714 1.327 . S
C716 C735 1.429 . S
C716 H740 0.950 . S
C717 C734 1.574 . S
C717 C736 1.368 . S
C717 H741 0.949 . S
H718 C722 0.949 . S
C719 C720 1.349 . S
C719 C721 1.327 . S
C719 H742 0.950 . S
C720 C719 1.349 . S
C720 C732 1.349 . S
C721 C719 1.327 . S
C721 C737 1.429 . S
C721 H743 0.950 . S
C722 H718 0.949 . S
C722 C730 1.574 . S
C722 C738 1.368 . S
H723 C731 0.950 . S
H724 C729 0.950 . S
H725 C730 0.949 . S
H726 C732 0.950 . S
H727 C733 0.950 . S
H728 C734 0.949 . S
C729 H724 0.950 . S
C729 C731 1.327 . S
C729 C735 1.429 . S
C730 C722 1.574 . S
C730 H725 0.949 . S
C730 C736 1.368 . S
C731 C715 1.349 . S
C731 H723 0.950 . S
C731 C729 1.327 . S
C732 C720 1.349 . S
C732 H726 0.950 . S
C732 C733 1.327 . S
C733 H727 0.950 . S
C733 C732 1.327 . S
C733 C737 1.429 . S
C734 C717 1.574 . S
C734 H728 0.949 . S
C734 C738 1.368 . S
C735 C716 1.429 . S
C735 C729 1.429 . S
C735 C736 1.523 . S
C736 C717 1.368 . S
C736 C730 1.368 . S
C736 C735 1.523 . S
C737 C721 1.429 . S
C737 C733 1.429 . S
C737 C738 1.523 . S
C738 C722 1.368 . S
C738 C734 1.368 . S
C738 C737 1.523 . S
H739 C714 0.950 . S
H740 C716 0.950 . S
H741 C717 0.949 . S
H742 C719 0.950 . S
H743 C721 0.950 . S
C744 C745 1.349 . S
C744 C746 1.327 . S
C744 H769 0.950 . S
C745 C744 1.349 . S
C745 C761 1.349 . S
C746 C744 1.327 . S
C746 C765 1.429 . S
C746 H770 0.950 . S
C747 C764 1.574 . S
C747 C766 1.368 . S
C747 H771 0.949 . S
H748 C752 0.949 . S
C749 C750 1.349 . S
C749 C751 1.327 . S
C749 H772 0.950 1_556 S
C750 C749 1.349 . S
C750 C762 1.349 . S
C751 C749 1.327 . S
C751 C767 1.429 . S
C751 H773 0.950 1_556 S
C752 H748 0.949 . S
C752 C760 1.574 . S
C752 C768 1.368 . S
H753 C761 0.950 . S
H754 C759 0.950 . S
H755 C760 0.949 . S
H756 C762 0.950 . S
H757 C763 0.950 . S
H758 C764 0.949 . S
C759 H754 0.950 . S
C759 C761 1.327 . S
C759 C765 1.429 . S
C760 C752 1.574 . S
C760 H755 0.949 . S
C760 C766 1.368 . S
C761 C745 1.349 . S
C761 H753 0.950 . S
C761 C759 1.327 . S
C762 C750 1.349 . S
C762 H756 0.950 . S
C762 C763 1.327 . S
C763 H757 0.950 . S
C763 C762 1.327 . S
C763 C767 1.429 . S
C764 C747 1.574 . S
C764 H758 0.949 . S
C764 C768 1.368 . S
C765 C746 1.429 . S
C765 C759 1.429 . S
C765 C766 1.523 . S
C766 C747 1.368 . S
C766 C760 1.368 . S
C766 C765 1.523 . S
C767 C751 1.429 . S
C767 C763 1.429 . S
C767 C768 1.523 . S
C768 C752 1.368 . S
C768 C764 1.368 . S
C768 C767 1.523 . S
H769 C744 0.950 . S
H770 C746 0.950 . S
H771 C747 0.949 . S
H772 C749 0.950 1_554 S
H773 C751 0.950 1_554 S
C774 C775 1.349 . S
C774 C776 1.327 . S
C774 H799 0.950 . S
C775 C774 1.349 . S
C775 C791 1.349 . S
C776 C774 1.327 . S
C776 C795 1.429 . S
C776 H800 0.950 . S
C777 C794 1.574 . S
C777 C796 1.368 . S
C777 H801 0.949 . S
H778 C782 0.949 . S
C779 C780 1.349 . S
C779 C781 1.327 . S
C779 H802 0.950 . S
C780 C779 1.349 . S
C780 C792 1.349 . S
C781 C779 1.327 . S
C781 C797 1.429 . S
C781 H803 0.950 . S
C782 H778 0.949 . S
C782 C790 1.574 . S
C782 C798 1.368 . S
H783 C791 0.950 . S
H784 C789 0.950 . S
H785 C790 0.949 . S
H786 C792 0.950 . S
H787 C793 0.950 . S
H788 C794 0.949 . S
C789 H784 0.950 . S
C789 C791 1.327 . S
C789 C795 1.429 . S
C790 C782 1.574 . S
C790 H785 0.949 . S
C790 C796 1.368 . S
C791 C775 1.349 . S
C791 H783 0.950 . S
C791 C789 1.327 . S
C792 C780 1.349 . S
C792 H786 0.950 . S
C792 C793 1.327 . S
C793 H787 0.950 . S
C793 C792 1.327 . S
C793 C797 1.429 . S
C794 C777 1.574 . S
C794 H788 0.949 . S
C794 C798 1.368 . S
C795 C776 1.429 . S
C795 C789 1.429 . S
C795 C796 1.523 . S
C796 C777 1.368 . S
C796 C790 1.368 . S
C796 C795 1.523 . S
C797 C781 1.429 . S
C797 C793 1.429 . S
C797 C798 1.523 . S
C798 C782 1.368 . S
C798 C794 1.368 . S
C798 C797 1.523 . S
H799 C774 0.950 . S
H800 C776 0.950 . S
H801 C777 0.949 . S
H802 C779 0.950 . S
H803 C781 0.950 . S
C804 C805 1.349 . S
C804 C806 1.327 . S
C804 H829 0.950 . S
C805 C804 1.349 . S
C805 C821 1.349 . S
C806 C804 1.327 . S
C806 C825 1.429 . S
C806 H830 0.950 . S
C807 C824 1.574 . S
C807 C826 1.368 . S
C807 H831 0.949 . S
H808 C812 0.949 . S
C809 C810 1.349 . S
C809 C811 1.327 . S
C809 H832 0.950 . S
C810 C809 1.349 . S
C810 C822 1.349 . S
C811 C809 1.327 . S
C811 C827 1.429 . S
C811 H833 0.950 . S
C812 H808 0.949 . S
C812 C820 1.574 . S
C812 C828 1.368 . S
H813 C821 0.950 . S
H814 C819 0.950 . S
H815 C820 0.949 . S
H816 C822 0.950 . S
H817 C823 0.950 . S
H818 C824 0.949 . S
C819 H814 0.950 . S
C819 C821 1.327 . S
C819 C825 1.429 . S
C820 C812 1.574 . S
C820 H815 0.949 . S
C820 C826 1.368 . S
C821 C805 1.349 . S
C821 H813 0.950 . S
C821 C819 1.327 . S
C822 C810 1.349 . S
C822 H816 0.950 . S
C822 C823 1.327 . S
C823 H817 0.950 . S
C823 C822 1.327 . S
C823 C827 1.429 . S
C824 C807 1.574 . S
C824 H818 0.949 . S
C824 C828 1.368 . S
C825 C806 1.429 . S
C825 C819 1.429 . S
C825 C826 1.523 . S
C826 C807 1.368 . S
C826 C820 1.368 . S
C826 C825 1.523 . S
C827 C811 1.429 . S
C827 C823 1.429 . S
C827 C828 1.523 . S
C828 C812 1.368 . S
C828 C824 1.368 . S
C828 C827 1.523 . S
H829 C804 0.950 . S
H830 C806 0.950 . S
H831 C807 0.949 . S
H832 C809 0.950 . S
H833 C811 0.950 . S
C834 C835 1.349 . S
C834 C836 1.327 . S
C834 H859 0.950 . S
C835 C834 1.349 . S
C835 C851 1.349 . S
C836 C834 1.327 . S
C836 C855 1.429 . S
C836 H860 0.950 . S
C837 C854 1.574 . S
C837 C856 1.368 . S
C837 H861 0.949 . S
H838 C842 0.949 . S
C839 C840 1.349 . S
C839 C841 1.327 . S
C839 H862 0.950 . S
C840 C839 1.349 . S
C840 C852 1.349 . S
C841 C839 1.327 . S
C841 C857 1.429 . S
C841 H863 0.950 . S
C842 H838 0.949 . S
C842 C850 1.574 . S
C842 C858 1.368 . S
H843 C851 0.950 . S
H844 C849 0.950 . S
H845 C850 0.949 . S
H846 C852 0.950 . S
H847 C853 0.950 . S
H848 C854 0.949 . S
C849 H844 0.950 . S
C849 C851 1.327 . S
C849 C855 1.429 . S
C850 C842 1.574 . S
C850 H845 0.949 . S
C850 C856 1.368 . S
C851 C835 1.349 . S
C851 H843 0.950 . S
C851 C849 1.327 . S
C852 C840 1.349 . S
C852 H846 0.950 . S
C852 C853 1.327 . S
C853 H847 0.950 . S
C853 C852 1.327 . S
C853 C857 1.429 . S
C854 C837 1.574 . S
C854 H848 0.949 . S
C854 C858 1.368 . S
C855 C836 1.429 . S
C855 C849 1.429 . S
C855 C856 1.523 . S
C856 C837 1.368 . S
C856 C850 1.368 . S
C856 C855 1.523 . S
C857 C841 1.429 . S
C857 C853 1.429 . S
C857 C858 1.523 . S
C858 C842 1.368 . S
C858 C854 1.368 . S
C858 C857 1.523 . S
H859 C834 0.950 . S
H860 C836 0.950 . S
H861 C837 0.949 . S
H862 C839 0.950 . S
H863 C841 0.950 . S
C864 C865 1.349 . S
C864 C866 1.327 . S
C864 H889 0.950 . S
C865 C864 1.349 . S
C865 C881 1.349 . S
C866 C864 1.327 . S
C866 C885 1.429 . S
C866 H890 0.950 . S
C867 C884 1.574 . S
C867 C886 1.368 . S
C867 H891 0.949 . S
H868 C872 0.949 1_554 S
C869 C870 1.349 1_655 S
C869 C871 1.327 . S
C869 H892 0.950 . S
C870 C869 1.349 1_455 S
C870 C882 1.349 1_456 S
C871 C869 1.327 . S
C871 C887 1.429 . S
C871 H893 0.950 . S
C872 H868 0.949 1_556 S
C872 C880 1.574 . S
C872 C888 1.368 . S
H873 C881 0.950 . S
H874 C879 0.950 . S
H875 C880 0.949 1_554 S
H876 C882 0.950 1_455 S
H877 C883 0.950 . S
H878 C884 0.949 . S
C879 H874 0.950 . S
C879 C881 1.327 . S
C879 C885 1.429 . S
C880 C872 1.574 . S
C880 H875 0.949 1_556 S
C880 C886 1.368 . S
C881 C865 1.349 . S
C881 H873 0.950 . S
C881 C879 1.327 . S
C882 C870 1.349 1_654 S
C882 H876 0.950 1_655 S
C882 C883 1.327 . S
C883 H877 0.950 . S
C883 C882 1.327 . S
C883 C887 1.429 1_554 S
C884 C867 1.574 . S
C884 H878 0.949 . S
C884 C888 1.368 . S
C885 C866 1.429 . S
C885 C879 1.429 . S
C885 C886 1.523 . S
C886 C867 1.368 . S
C886 C880 1.368 . S
C886 C885 1.523 . S
C887 C871 1.429 . S
C887 C883 1.429 1_556 S
C887 C888 1.523 . S
C888 C872 1.368 . S
C888 C884 1.368 . S
C888 C887 1.523 . S
H889 C864 0.950 . S
H890 C866 0.950 . S
H891 C867 0.949 . S
H892 C869 0.950 . S
H893 C871 0.950 . S
C894 C895 1.349 . S
C894 C896 1.327 . S
C894 H919 0.950 . S
C895 C894 1.349 . S
C895 C911 1.349 . S
C896 C894 1.327 . S
C896 C915 1.429 . S
C896 H920 0.950 . S
C897 C914 1.574 . S
C897 C916 1.368 . S
C897 H921 0.949 . S
H898 C902 0.949 . S
C899 C900 1.349 . S
C899 C901 1.327 . S
C899 H922 0.950 . S
C900 C899 1.349 . S
C900 C912 1.349 . S
C901 C899 1.327 . S
C901 C917 1.429 . S
C901 H923 0.950 . S
C902 H898 0.949 . S
C902 C910 1.574 . S
C902 C918 1.368 . S
H903 C911 0.950 . S
H904 C909 0.950 . S
H905 C910 0.949 . S
H906 C912 0.950 . S
H907 C913 0.950 . S
H908 C914 0.949 . S
C909 H904 0.950 . S
C909 C911 1.327 . S
C909 C915 1.429 . S
C910 C902 1.574 . S
C910 H905 0.949 . S
C910 C916 1.368 . S
C911 C895 1.349 . S
C911 H903 0.950 . S
C911 C909 1.327 . S
C912 C900 1.349 . S
C912 H906 0.950 . S
C912 C913 1.327 . S
C913 H907 0.950 . S
C913 C912 1.327 . S
C913 C917 1.429 . S
C914 C897 1.574 . S
C914 H908 0.949 . S
C914 C918 1.368 . S
C915 C896 1.429 . S
C915 C909 1.429 . S
C915 C916 1.523 . S
C916 C897 1.368 . S
C916 C910 1.368 . S
C916 C915 1.523 . S
C917 C901 1.429 . S
C917 C913 1.429 . S
C917 C918 1.523 . S
C918 C902 1.368 . S
C918 C914 1.368 . S
C918 C917 1.523 . S
H919 C894 0.950 . S
H920 C896 0.950 . S
H921 C897 0.949 . S
H922 C899 0.950 . S
H923 C901 0.950 . S
C924 C925 1.349 . S
C924 C926 1.327 . S
C924 H949 0.950 . S
C925 C924 1.349 . S
C925 C941 1.349 . S
C926 C924 1.327 . S
C926 C945 1.429 . S
C926 H950 0.950 . S
C927 C944 1.574 . S
C927 C946 1.368 . S
C927 H951 0.949 . S
H928 C932 0.949 . S
C929 C930 1.349 . S
C929 C931 1.327 . S
C929 H952 0.950 . S
C930 C929 1.349 . S
C930 C942 1.349 . S
C931 C929 1.327 . S
C931 C947 1.429 . S
C931 H953 0.950 . S
C932 H928 0.949 . S
C932 C940 1.574 . S
C932 C948 1.368 . S
H933 C941 0.950 . S
H934 C939 0.950 . S
H935 C940 0.949 . S
H936 C942 0.950 . S
H937 C943 0.950 . S
H938 C944 0.949 . S
C939 H934 0.950 . S
C939 C941 1.327 . S
C939 C945 1.429 . S
C940 C932 1.574 . S
C940 H935 0.949 . S
C940 C946 1.368 . S
C941 C925 1.349 . S
C941 H933 0.950 . S
C941 C939 1.327 . S
C942 C930 1.349 . S
C942 H936 0.950 . S
C942 C943 1.327 . S
C943 H937 0.950 . S
C943 C942 1.327 . S
C943 C947 1.429 . S
C944 C927 1.574 . S
C944 H938 0.949 . S
C944 C948 1.368 . S
C945 C926 1.429 . S
C945 C939 1.429 . S
C945 C946 1.523 . S
C946 C927 1.368 . S
C946 C940 1.368 . S
C946 C945 1.523 . S
C947 C931 1.429 . S
C947 C943 1.429 . S
C947 C948 1.523 . S
C948 C932 1.368 . S
C948 C944 1.368 . S
C948 C947 1.523 . S
H949 C924 0.950 . S
H950 C926 0.950 . S
H951 C927 0.949 . S
H952 C929 0.950 . S
H953 C931 0.950 . S
C954 C955 1.349 . S
C954 C956 1.327 . S
C954 H979 0.950 . S
C955 C954 1.349 . S
C955 C971 1.349 . S
C956 C954 1.327 . S
C956 C975 1.429 . S
C956 H980 0.950 . S
C957 C974 1.574 . S
C957 C976 1.368 . S
C957 H981 0.949 . S
H958 C962 0.949 . S
C959 C960 1.349 . S
C959 C961 1.327 . S
C959 H982 0.950 . S
C960 C959 1.349 . S
C960 C972 1.349 . S
C961 C959 1.327 . S
C961 C977 1.429 . S
C961 H983 0.950 . S
C962 H958 0.949 . S
C962 C970 1.574 . S
C962 C978 1.368 . S
H963 C971 0.950 . S
H964 C969 0.950 . S
H965 C970 0.949 . S
H966 C972 0.950 . S
H967 C973 0.950 . S
H968 C974 0.949 . S
C969 H964 0.950 . S
C969 C971 1.327 . S
C969 C975 1.429 . S
C970 C962 1.574 . S
C970 H965 0.949 . S
C970 C976 1.368 . S
C971 C955 1.349 . S
C971 H963 0.950 . S
C971 C969 1.327 . S
C972 C960 1.349 . S
C972 H966 0.950 . S
C972 C973 1.327 . S
C973 H967 0.950 . S
C973 C972 1.327 . S
C973 C977 1.429 . S
C974 C957 1.574 . S
C974 H968 0.949 . S
C974 C978 1.368 . S
C975 C956 1.429 . S
C975 C969 1.429 . S
C975 C976 1.523 . S
C976 C957 1.368 . S
C976 C970 1.368 . S
C976 C975 1.523 . S
C977 C961 1.429 . S
C977 C973 1.429 . S
C977 C978 1.523 . S
C978 C962 1.368 . S
C978 C974 1.368 . S
C978 C977 1.523 . S
H979 C954 0.950 . S
H980 C956 0.950 . S
H981 C957 0.949 . S
H982 C959 0.950 . S
H983 C961 0.950 . S
C265 C9 3.425 . S
C270 C123 3.392 . S
C295 C21 2.071 . S
C300 C154 2.111 . S
C330 C193 0.771 . S
C325 C30 0.773 . S
C355 C43 0.519 . S
C360 C230 0.254 . S
C390 C153 2.754 . S
C385 C4 2.803 . S
C420 C110 1.977 . S
C415 C22 1.970 . S
C450 C242 0.842 . S
C445 C34 0.860 . S
C480 C199 0.721 . S
C475 C48 0.720 . S
C505 C8 2.310 . S
C510 C243 2.302 . S
C540 C159 1.441 . S
C535 C35 1.446 . S
C565 C47 0.538 . S
C570 C122 0.566 . S
C595 C17 2.060 . S
C600 C194 2.200 . S
C630 C114 2.831 1_655 S
C625 C60 2.847 . S
C655 C74 2.478 . S
C660 C163 2.543 . S
C685 C82 0.588 . S
C690 C202 0.609 . S
C715 C100 0.671 . S
C720 C239 0.675 . S
C745 C61 3.322 . S
C750 C162 3.262 . S
C780 C119 1.511 . S
C775 C73 1.495 . S
C810 C233 1.416 . S
C805 C87 1.456 . S
C840 C190 0.570 . S
C835 C95 0.595 . S
C865 C56 2.464 . S
C870 C234 2.515 1_556 S
C900 C150 1.420 . S
C895 C86 1.418 . S
C930 C113 0.534 . S
C925 C99 0.457 . S
C955 C69 2.163 . S
C960 C203 2.273 . S
