# Generated by pormake.
# Topology sqc, (4,8)-cn, num edge types: 1
# Building blocks:
#     Node 0, Type 0, BuildingBlock: KUFVIS_clean_linker_0, # of connection points: 4
#     Node 1, Type 0, BuildingBlock: KUFVIS_clean_linker_0, # of connection points: 4
#     Node 2, Type 0, BuildingBlock: KUFVIS_clean_linker_0, # of connection points: 4
#     Node 3, Type 0, BuildingBlock: KUFVIS_clean_linker_0, # of connection points: 4
#     Node 4, Type 0, BuildingBlock: KUFVIS_clean_linker_0, # of connection points: 4
#     Node 5, Type 0, BuildingBlock: KUFVIS_clean_linker_0, # of connection points: 4
#     Node 6, Type 0, BuildingBlock: KUFVIS_clean_linker_0, # of connection points: 4
#     Node 7, Type 0, BuildingBlock: KUFVIS_clean_linker_0, # of connection points: 4
#     Node 8, Type 1, BuildingBlock: TAGTUT_clean_sbu_3, # of connection points: 8
#     Node 9, Type 1, BuildingBlock: TAGTUT_clean_sbu_3, # of connection points: 8
#     Node 10, Type 1, BuildingBlock: TAGTUT_clean_sbu_3, # of connection points: 8
#     Node 11, Type 1, BuildingBlock: TAGTUT_clean_sbu_3, # of connection points: 8
#     Edge 12, Type (0, 1), BuildingBlock: ZUJKAS_clean_linker_0, # of connection points: 2
#     Edge 13, Type (0, 1), BuildingBlock: ZUJKAS_clean_linker_0, # of connection points: 2
#     Edge 14, Type (0, 1), BuildingBlock: ZUJKAS_clean_linker_0, # of connection points: 2
#     Edge 15, Type (0, 1), BuildingBlock: ZUJKAS_clean_linker_0, # of connection points: 2
#     Edge 16, Type (0, 1), BuildingBlock: ZUJKAS_clean_linker_0, # of connection points: 2
#     Edge 17, Type (0, 1), BuildingBlock: ZUJKAS_clean_linker_0, # of connection points: 2
#     Edge 18, Type (0, 1), BuildingBlock: ZUJKAS_clean_linker_0, # of connection points: 2
#     Edge 19, Type (0, 1), BuildingBlock: ZUJKAS_clean_linker_0, # of connection points: 2
#     Edge 20, Type (0, 1), BuildingBlock: ZUJKAS_clean_linker_0, # of connection points: 2
#     Edge 21, Type (0, 1), BuildingBlock: ZUJKAS_clean_linker_0, # of connection points: 2
#     Edge 22, Type (0, 1), BuildingBlock: ZUJKAS_clean_linker_0, # of connection points: 2
#     Edge 23, Type (0, 1), BuildingBlock: ZUJKAS_clean_linker_0, # of connection points: 2
#     Edge 24, Type (0, 1), BuildingBlock: ZUJKAS_clean_linker_0, # of connection points: 2
#     Edge 25, Type (0, 1), BuildingBlock: ZUJKAS_clean_linker_0, # of connection points: 2
#     Edge 26, Type (0, 1), BuildingBlock: ZUJKAS_clean_linker_0, # of connection points: 2
#     Edge 27, Type (0, 1), BuildingBlock: ZUJKAS_clean_linker_0, # of connection points: 2
#     Edge 28, Type (0, 1), BuildingBlock: ZUJKAS_clean_linker_0, # of connection points: 2
#     Edge 29, Type (0, 1), BuildingBlock: ZUJKAS_clean_linker_0, # of connection points: 2
#     Edge 30, Type (0, 1), BuildingBlock: ZUJKAS_clean_linker_0, # of connection points: 2
#     Edge 31, Type (0, 1), BuildingBlock: ZUJKAS_clean_linker_0, # of connection points: 2
#     Edge 32, Type (0, 1), BuildingBlock: ZUJKAS_clean_linker_0, # of connection points: 2
#     Edge 33, Type (0, 1), BuildingBlock: ZUJKAS_clean_linker_0, # of connection points: 2
#     Edge 34, Type (0, 1), BuildingBlock: ZUJKAS_clean_linker_0, # of connection points: 2
#     Edge 35, Type (0, 1), BuildingBlock: ZUJKAS_clean_linker_0, # of connection points: 2
#     Edge 36, Type (0, 1), BuildingBlock: ZUJKAS_clean_linker_0, # of connection points: 2
#     Edge 37, Type (0, 1), BuildingBlock: ZUJKAS_clean_linker_0, # of connection points: 2
#     Edge 38, Type (0, 1), BuildingBlock: ZUJKAS_clean_linker_0, # of connection points: 2
#     Edge 39, Type (0, 1), BuildingBlock: ZUJKAS_clean_linker_0, # of connection points: 2
#     Edge 40, Type (0, 1), BuildingBlock: ZUJKAS_clean_linker_0, # of connection points: 2
#     Edge 41, Type (0, 1), BuildingBlock: ZUJKAS_clean_linker_0, # of connection points: 2
#     Edge 42, Type (0, 1), BuildingBlock: ZUJKAS_clean_linker_0, # of connection points: 2
#     Edge 43, Type (0, 1), BuildingBlock: ZUJKAS_clean_linker_0, # of connection points: 2
# Relax obj value: 0.178
# Max RMSD: 0.272
# Mean RMSD: 0.223
data_MOF--net-sqc--node1-TAGTUT_clean_sbu_3--node2-KUFVIS_clean_linker_0--edge1-ZUJKAS_clean_linker_0
_symmetry_space_group_name_H-M    P1
_symmetry_Int_Tables_number       1
_symmetry_cell_setting            triclinic
loop_
_symmetry_equiv_pos_as_xyz
'x, y, z'
_cell_length_a     31.457682
_cell_length_b     31.419216
_cell_length_c     89.613286
_cell_angle_alpha  91.031398
_cell_angle_beta   90.071156
_cell_angle_gamma 89.878155
loop_
_atom_site_label
_atom_site_type_symbol
_atom_site_fract_x
_atom_site_fract_y
_atom_site_fract_z
_atom_type_partial_charge
H0 H 0.8889 0.98676 0.4978 0.0
H1 H 0.00476 0.03798 0.51497 0.0
H2 H 0.00626 0.93726 0.48097 0.0
H3 H 0.06973 0.95796 0.47618 0.0
H4 H 0.18561 0.99048 0.49839 0.0
H5 H 0.06816 0.01847 0.52021 0.0
C6 C 0.92342 0.98674 0.4979 0.0
C7 C 0.94554 0.95962 0.48819 0.0
C8 C 0.94486 0.01425 0.50763 0.0
C9 C 0.98943 0.01502 0.50765 0.0
C10 C 0.01322 0.98748 0.49806 0.0
C11 C 0.99022 0.95962 0.48833 0.0
C12 C 0.06136 0.98807 0.49817 0.0
C13 C 0.08518 0.97091 0.48602 0.0
C14 C 0.12984 0.97142 0.48617 0.0
C15 C 0.15112 0.98976 0.49834 0.0
C16 C 0.12889 0.00737 0.51041 0.0
C17 C 0.08426 0.00608 0.51042 0.0
H18 H 0.34395 0.86523 0.75164 0.0
H19 H 0.3051 0.75186 0.77376 0.0
H20 H 0.41379 0.75013 0.74408 0.0
H21 H 0.3892 0.68645 0.73819 0.0
H22 H 0.38145 0.57495 0.76462 0.0
H23 H 0.34018 0.69467 0.78327 0.0
C24 C 0.34885 0.83175 0.7539 0.0
C25 C 0.3814 0.8095 0.7466 0.0
C26 C 0.32183 0.81135 0.76386 0.0
C27 C 0.32713 0.76757 0.76642 0.0
C28 C 0.35976 0.7443 0.759 0.0
C29 C 0.38736 0.76632 0.74945 0.0
C30 C 0.36494 0.69717 0.76067 0.0
C31 C 0.38178 0.67216 0.74876 0.0
C32 C 0.3893 0.62846 0.75031 0.0
C33 C 0.37802 0.60915 0.76365 0.0
C34 C 0.35976 0.63267 0.77542 0.0
C35 C 0.35352 0.67671 0.77397 0.0
H36 H 0.76549 0.97706 0.99109 0.0
H37 H 0.652 0.98619 0.01701 0.0
H38 H 0.65261 0.02542 0.97092 0.0
H39 H 0.60078 0.06558 0.9774 0.0
H40 H 0.48036 0.0542 -0.00116 0.0
H41 H 0.58458 0.97904 0.01405 0.0
C42 C 0.73198 0.98489 0.99182 0.0
C43 C 0.71157 0.00365 0.97971 0.0
C44 C 0.70997 0.97745 0.00507 0.0
C45 C 0.66723 0.98954 0.0063 0.0
C46 C 0.64533 0.00724 -0.00586 0.0
C47 C 0.66807 0.01319 0.98072 0.0
C48 C 0.59959 0.02058 -0.0044 0.0
C49 C 0.58185 0.05068 0.98588 0.0
C50 C 0.53885 0.06195 0.98677 0.0
C51 C 0.51382 0.04594 -0.00175 0.0
C52 C 0.53068 0.01683 0.00832 0.0
C53 C 0.57298 0.00324 0.00665 0.0
H54 H 0.36183 0.43538 0.24296 0.0
H55 H 0.3733 0.31168 0.26154 0.0
H56 H 0.26587 0.3417 0.23332 0.0
H57 H 0.27354 0.2687 0.22763 0.0
H58 H 0.25895 0.16176 0.25618 0.0
H59 H 0.32353 0.27278 0.27267 0.0
C60 C 0.34977 0.40322 0.24394 0.0
C61 C 0.31161 0.39179 0.23688 0.0
C62 C 0.37135 0.37472 0.25302 0.0
C63 C 0.35575 0.33337 0.25457 0.0
C64 C 0.31779 0.32045 0.24738 0.0
C65 C 0.29595 0.35014 0.23846 0.0
C66 C 0.30024 0.27688 0.24987 0.0
C67 C 0.27791 0.25467 0.23848 0.0
C68 C 0.26186 0.21369 0.24097 0.0
C69 C 0.26918 0.19436 0.25467 0.0
C70 C 0.29243 0.21502 0.26595 0.0
C71 C 0.30689 0.25659 0.26365 0.0
H72 H 0.83135 0.36681 0.24691 0.0
H73 H 0.76856 0.25318 0.26129 0.0
H74 H 0.87801 0.24539 0.23216 0.0
H75 H 0.83558 0.19372 0.22178 0.0
H76 H 0.81757 0.07241 0.24159 0.0
H77 H 0.80221 0.18603 0.26851 0.0
C78 C 0.8294 0.33234 0.24712 0.0
C79 C 0.8581 0.30802 0.23871 0.0
C80 C 0.79709 0.3129 0.25527 0.0
C81 C 0.79413 0.26816 0.25525 0.0
C82 C 0.8229 0.24317 0.24669 0.0
C83 C 0.85515 0.26371 0.23866 0.0
C84 C 0.81883 0.19599 0.24534 0.0
C85 C 0.82794 0.17541 0.23155 0.0
C86 C 0.82756 0.13104 0.23022 0.0
C87 C 0.81736 0.10688 0.24261 0.0
C88 C 0.80837 0.12632 0.25643 0.0
C89 C 0.80839 0.17102 0.25775 0.0
H90 H 0.85553 0.93328 0.74362 0.0
H91 H 0.8917 0.81022 0.75886 0.0
H92 H 0.78602 0.82339 0.72833 0.0
H93 H 0.80844 0.75452 0.72201 0.0
H94 H 0.82022 0.64054 0.74736 0.0
H95 H 0.84924 0.7604 0.76822 0.0
C96 C 0.85096 0.89908 0.74349 0.0
C97 C 0.81862 0.88121 0.73466 0.0
C98 C 0.8768 0.87367 0.75241 0.0
C99 C 0.87049 0.82961 0.75229 0.0
C100 C 0.83741 0.81066 0.74388 0.0
C101 C 0.81188 0.83691 0.73483 0.0
C102 C 0.82983 0.76379 0.74494 0.0
C103 C 0.81548 0.73945 0.73251 0.0
C104 C 0.81214 0.69497 0.73342 0.0
C105 C 0.82299 0.67488 0.74668 0.0
C106 C 0.83711 0.6982 0.75912 0.0
C107 C 0.83916 0.74263 0.75838 0.0
H108 H 0.6952 0.44747 0.00712 0.0
H109 H 0.57902 0.41936 0.98461 0.0
H110 H 0.5813 0.50572 0.02314 0.0
H111 H 0.51963 0.52518 0.01697 0.0
H112 H 0.40074 0.48175 -0.00024 0.0
H113 H 0.51278 0.41325 0.98765 0.0
C114 C 0.66092 0.45091 0.00646 0.0
C115 C 0.64042 0.47928 0.01618 0.0
C116 C 0.63862 0.42861 -0.00462 0.0
C117 C 0.59474 0.43556 -0.00623 0.0
C118 C 0.57215 0.46292 0.00378 0.0
C119 C 0.59616 0.48478 0.01502 0.0
C120 C 0.52426 0.46847 0.00247 0.0
C121 C 0.50275 0.5019 0.01026 0.0
C122 C 0.45841 0.50646 0.00935 0.0
C123 C 0.43503 0.47828 0.00043 0.0
C124 C 0.45479 0.44531 0.9925 0.0
C125 C 0.49907 0.44013 -0.00644 0.0
H126 H 0.26209 0.5162 0.50415 0.0
H127 H 0.13766 0.48453 0.5192 0.0
H128 H 0.15674 0.531 0.47451 0.0
H129 H 0.09119 0.5503 0.47576 0.0
H130 H 0.971 0.49637 0.48658 0.0
H131 H 0.08165 0.45563 0.51014 0.0
C132 C 0.22823 0.51408 0.50202 0.0
C133 C 0.21183 0.52756 0.48836 0.0
C134 C 0.20154 0.49703 0.51285 0.0
C135 C 0.15766 0.49537 0.51025 0.0
C136 C 0.1402 0.5076 0.49644 0.0
C137 C 0.16818 0.52312 0.48549 0.0
C138 C 0.09331 0.50375 0.49346 0.0
C139 C 0.07338 0.52795 0.48229 0.0
C140 C 0.02987 0.52348 0.4793 0.0
C141 C 0.00512 0.49732 0.48828 0.0
C142 C 0.02359 0.47425 0.49982 0.0
C143 C 0.06777 0.47608 0.50188 0.0
C144 C 0.13925 0.69394 0.14036 0.0
C145 C 0.99892 0.61413 0.13703 0.0
C146 C 0.98164 0.6744 0.0944 0.0
Mg147 Mg 0.17165 0.78196 0.12671 0.0
Mg148 Mg 0.11018 0.85646 0.11247 0.0
O149 O 0.12159 0.79871 0.11427 0.0
Mg150 Mg 0.08018 0.7545 0.12047 0.0
O151 O 0.04385 0.70597 0.12654 0.0
Mg152 Mg 0.07214 0.65866 0.11481 0.0
Mg153 Mg 0.98466 0.70673 0.12688 0.0
C154 C 0.02571 0.81825 0.09819 0.0
O155 O 0.04272 0.79777 0.1371 0.0
O156 O 0.21173 0.82905 0.11287 0.0
O157 O 0.97697 0.76889 0.13749 0.0
O158 O 0.15887 0.83697 0.1443 0.0
O159 O 0.16795 0.87489 0.10152 0.0
O160 O 0.11152 0.88192 0.13457 0.0
O161 O 0.11332 0.70957 0.10347 0.0
O162 O 0.18009 0.72964 0.10913 0.0
C163 C 0.1538 0.70593 0.10189 0.0
C164 C 0.20522 0.86001 0.10398 0.0
O165 O 0.03274 0.78075 0.1032 0.0
O166 O 0.03224 0.61258 0.12879 0.0
O167 O 0.05 0.85022 0.10097 0.0
O168 O 0.01844 0.65744 0.09628 0.0
O169 O 0.9758 0.64765 0.13836 0.0
O170 O 0.9643 0.69774 0.10445 0.0
O171 O 0.1281 0.73279 0.13826 0.0
O172 O 0.12226 0.66277 0.13313 0.0
C173 C 0.13554 0.87052 0.14526 0.0
C174 C 0.00329 0.79868 0.14098 0.0
C175 C 0.63636 0.81887 0.38702 0.0
C176 C 0.71459 0.67655 0.38415 0.0
C177 C 0.64138 0.65422 0.34367 0.0
Mg178 Mg 0.54487 0.84933 0.37415 0.0
Mg179 Mg 0.4701 0.78464 0.36048 0.0
O180 O 0.5278 0.79881 0.36169 0.0
Mg181 Mg 0.57284 0.75903 0.36836 0.0
O182 O 0.62134 0.72332 0.37488 0.0
Mg183 Mg 0.66639 0.74758 0.36174 0.0
Mg184 Mg 0.61937 0.66454 0.37699 0.0
C185 C 0.51037 0.70128 0.3458 0.0
O186 O 0.5311 0.72537 0.38579 0.0
O187 O 0.49492 0.88722 0.36076 0.0
O188 O 0.55958 0.66004 0.38883 0.0
O189 O 0.49203 0.836 0.39196 0.0
O190 O 0.44762 0.84244 0.35016 0.0
O191 O 0.4478 0.78614 0.3829 0.0
O192 O 0.61571 0.79018 0.35109 0.0
O193 O 0.59553 0.85741 0.35642 0.0
C194 C 0.61968 0.83062 0.34952 0.0
C195 C 0.46227 0.8801 0.35247 0.0
O196 O 0.54721 0.71051 0.3511 0.0
O197 O 0.71484 0.70746 0.37498 0.0
O198 O 0.47685 0.72337 0.34872 0.0
O199 O 0.65956 0.69092 0.34399 0.0
O200 O 0.6806 0.65614 0.38727 0.0
O201 O 0.62197 0.63985 0.35498 0.0
O202 O 0.59693 0.80816 0.38561 0.0
O203 O 0.66618 0.80018 0.37959 0.0
C204 C 0.45952 0.81168 0.39333 0.0
C205 C 0.53056 0.688 0.3914 0.0
C206 C 0.63086 0.17963 0.63804 0.0
C207 C 0.48427 0.11426 0.64027 0.0
C208 C 0.45646 0.18452 0.6005 0.0
Mg209 Mg 0.66702 0.26601 0.62445 0.0
Mg210 Mg 0.60954 0.34838 0.61368 0.0
O211 O 0.61541 0.28957 0.61434 0.0
Mg212 Mg 0.5721 0.24922 0.62178 0.0
O213 O 0.53343 0.20397 0.62898 0.0
Mg214 Mg 0.552 0.15603 0.61537 0.0
Mg215 Mg 0.47568 0.20981 0.63321 0.0
C216 C 0.51721 0.32116 0.60275 0.0
O217 O 0.54581 0.29397 0.64047 0.0
O218 O 0.70679 0.31051 0.60972 0.0
O219 O 0.47983 0.26984 0.64567 0.0
O220 O 0.66552 0.31924 0.64319 0.0
O221 O 0.66504 0.36181 0.60047 0.0
O222 O 0.62073 0.37016 0.63585 0.0
O223 O 0.59425 0.20362 0.60297 0.0
O224 O 0.66419 0.21602 0.60587 0.0
C225 C 0.63329 0.19627 0.59953 0.0
C226 C 0.70101 0.34275 0.60135 0.0
O227 O 0.52229 0.28236 0.60681 0.0
O228 O 0.51284 0.11162 0.6301 0.0
O229 O 0.54528 0.35018 0.60505 0.0
O230 O 0.49234 0.1649 0.59992 0.0
O231 O 0.46636 0.14962 0.64393 0.0
O232 O 0.44513 0.20642 0.61196 0.0
O233 O 0.62308 0.21975 0.63708 0.0
O234 O 0.60835 0.15157 0.63114 0.0
C235 C 0.64613 0.3548 0.64545 0.0
C236 C 0.51001 0.29704 0.64736 0.0
C237 C 0.14279 0.31193 0.89092 0.0
C238 C 0.2259 0.17346 0.88148 0.0
C239 C 0.15442 0.16447 0.8403 0.0
Mg240 Mg 0.05037 0.34373 0.87937 0.0
Mg241 Mg 0.97633 0.28349 0.86313 0.0
O242 O 0.03376 0.29525 0.86589 0.0
Mg243 Mg 0.08032 0.25458 0.87059 0.0
O244 O 0.1309 0.21875 0.87508 0.0
Mg245 Mg 0.17438 0.25024 0.86301 0.0
Mg246 Mg 0.13093 0.15946 0.87343 0.0
C247 C 0.0161 0.20157 0.84712 0.0
O248 O 0.04159 0.21324 0.88679 0.0
O249 O 0.99973 0.38482 0.86743 0.0
O250 O 0.07211 0.14812 0.88552 0.0
O251 O 0.99876 0.32477 0.89698 0.0
O252 O 0.95581 0.34309 0.85393 0.0
O253 O 0.95274 0.28118 0.88527 0.0
O254 O 0.12067 0.29204 0.85408 0.0
O255 O 0.09838 0.35727 0.86116 0.0
C256 C 0.12204 0.33279 0.85312 0.0
C257 C 0.96889 0.37998 0.85816 0.0
O258 O 0.05327 0.20896 0.85255 0.0
O259 O 0.2244 0.20869 0.87448 0.0
O260 O 0.98344 0.22486 0.85008 0.0
O261 O 0.17225 0.20048 0.84305 0.0
O262 O 0.1934 0.14924 0.88283 0.0
O263 O 0.13344 0.14484 0.85017 0.0
O264 O 0.10372 0.30041 0.88923 0.0
O265 O 0.17269 0.29667 0.8827 0.0
C266 C 0.96527 0.30137 0.89696 0.0
C267 C 0.04254 0.17349 0.89007 0.0
H268 H 0.19435 0.00831 0.47103 0.0
H269 H 0.24783 0.97231 0.45552 0.0
H270 H 0.17862 0.85455 0.45873 0.0
H271 H 0.12492 0.89053 0.47447 0.0
H272 H 0.29269 0.89416 0.46813 0.0
H273 H 0.21451 0.87024 0.41275 0.0
H274 H 0.19925 0.91327 0.4253 0.0
H275 H 0.18489 0.85966 0.42949 0.0
C276 C 0.19002 0.97496 0.46814 0.0
C277 C 0.15566 0.95209 0.47398 0.0
C278 C 0.22061 0.95446 0.45934 0.0
C279 C 0.21723 0.91082 0.4561 0.0
C280 C 0.18158 0.88835 0.46109 0.0
H281 H 0.39259 0.76149 0.40116 0.0
H282 H 0.33546 0.77963 0.4185 0.0
C283 C 0.15084 0.90893 0.46996 0.0
C284 C 0.25301 0.8886 0.4486 0.0
H285 H 0.28548 0.84775 0.41502 0.0
C286 C 0.29113 0.88362 0.45655 0.0
C287 C 0.25056 0.87464 0.43359 0.0
C288 C 0.21025 0.87967 0.42466 0.0
C289 C 0.3273 0.86567 0.44975 0.0
C290 C 0.32553 0.8534 0.4345 0.0
C291 C 0.28688 0.85719 0.42671 0.0
C292 C 0.36372 0.83887 0.42611 0.0
C293 C 0.36696 0.85995 0.45899 0.0
C294 C 0.39951 0.86534 0.42501 0.0
C295 C 0.43271 0.85472 0.41525 0.0
C296 C 0.43034 0.8178 0.40619 0.0
C297 C 0.39552 0.79022 0.40794 0.0
C298 C 0.36265 0.80061 0.41781 0.0
H299 H 0.35922 0.85704 0.47103 0.0
H300 H 0.38513 0.83131 0.45531 0.0
H301 H 0.38761 0.88827 0.4578 0.0
H302 H 0.40073 0.89545 0.43107 0.0
H303 H 0.45876 0.8769 0.41409 0.0
H304 H 0.39773 0.7808 0.71836 0.0
H305 H 0.42625 0.82215 0.69775 0.0
H306 H 0.44762 0.92848 0.72794 0.0
H307 H 0.41978 0.88714 0.74859 0.0
H308 H 0.38484 0.89718 0.68982 0.0
H309 H 0.555 0.92741 0.70187 0.0
H310 H 0.52582 0.88436 0.71016 0.0
H311 H 0.52117 0.93765 0.71766 0.0
C312 C 0.40994 0.81246 0.72068 0.0
C313 C 0.40643 0.83096 0.73502 0.0
C314 C 0.426 0.83604 0.70891 0.0
C315 C 0.43923 0.87817 0.71138 0.0
C316 C 0.43823 0.89575 0.72587 0.0
H317 H 0.42387 0.10453 0.66195 0.0
H318 H 0.41289 0.04236 0.67749 0.0
C319 C 0.42202 0.87229 0.73762 0.0
C320 C 0.44806 0.9059 0.69865 0.0
H321 H 0.52044 0.97619 0.68532 0.0
C322 C 0.41476 0.91389 0.68864 0.0
C323 C 0.48715 0.9274 0.69714 0.0
C324 C 0.52449 0.9185 0.70719 0.0
C325 C 0.41879 0.94459 0.6776 0.0
C326 C 0.45692 0.96799 0.67671 0.0
C327 C 0.49105 0.95841 0.68618 0.0
C328 C 0.46132 0.00406 0.66655 0.0
C329 C 0.382 0.95235 0.66718 0.0
C330 C 0.49217 0.00288 0.65532 0.0
C331 C 0.49851 0.03824 0.64642 0.0
C332 C 0.4744 0.0756 0.64874 0.0
C333 C 0.44289 0.07629 0.65985 0.0
C334 C 0.43646 0.04077 0.66869 0.0
H335 H 0.35997 0.92477 0.66669 0.0
H336 H 0.36381 0.98057 0.67123 0.0
H337 H 0.39342 0.95885 0.65572 0.0
H338 H 0.51175 0.97481 0.65358 0.0
H339 H 0.52316 0.03659 0.63799 0.0
H340 H 0.48504 0.13031 0.98905 0.0
H341 H 0.43952 0.15789 0.96918 0.0
H342 H 0.49934 0.07205 0.93744 0.0
H343 H 0.54556 0.0454 0.95709 0.0
H344 H 0.4774 0.14734 0.92475 0.0
H345 H 0.34268 0.08015 0.95663 0.0
H346 H 0.37174 0.12054 0.96667 0.0
H347 H 0.39736 0.07105 0.96168 0.0
C348 C 0.48909 0.11823 0.97774 0.0
C349 C 0.51836 0.08549 0.97459 0.0
C350 C 0.46304 0.13378 0.96645 0.0
C351 C 0.46534 0.11606 0.95197 0.0
C352 C 0.49695 0.08593 0.94857 0.0
H353 H 0.25012 0.0963 0.89239 0.0
H354 H 0.31223 0.08149 0.90794 0.0
C355 C 0.52338 0.07082 0.95979 0.0
C356 C 0.43209 0.12512 0.94081 0.0
H357 H 0.32558 0.11601 0.93455 0.0
C358 C 0.44416 0.14061 0.92686 0.0
C359 C 0.38895 0.11516 0.94351 0.0
C360 C 0.37436 0.0954 0.95787 0.0
C361 C 0.41406 0.14682 0.91553 0.0
C362 C 0.37074 0.13823 0.91843 0.0
C363 C 0.35881 0.12261 0.93237 0.0
C364 C 0.33677 0.14581 0.90737 0.0
C365 C 0.42913 0.16147 0.90049 0.0
C366 C 0.33042 0.18663 0.90172 0.0
C367 C 0.29541 0.19497 0.89268 0.0
C368 C 0.26555 0.16283 0.8894 0.0
C369 C 0.2725 0.12169 0.89477 0.0
C370 C 0.30793 0.11322 0.90363 0.0
H371 H 0.46312 0.15332 0.89862 0.0
H372 H 0.40998 0.14706 0.8913 0.0
H373 H 0.426 0.1966 0.89999 0.0
H374 H 0.35152 0.21254 0.9048 0.0
H375 H 0.29074 0.22716 0.88886 0.0
H376 H 0.18338 0.17824 0.24186 0.0
H377 H 0.15622 0.12129 0.22546 0.0
H378 H 0.2675 0.13174 0.19769 0.0
H379 H 0.29424 0.18955 0.21393 0.0
H380 H 0.1946 0.11505 0.1814 0.0
H381 H 0.20991 0.00362 0.22844 0.0
H382 H 0.17574 0.0482 0.23242 0.0
H383 H 0.23144 0.05679 0.22914 0.0
C384 C 0.20133 0.16917 0.23199 0.0
C385 C 0.24082 0.18811 0.22911 0.0
C386 C 0.18611 0.13634 0.22276 0.0
C387 C 0.21049 0.12143 0.21064 0.0
C388 C 0.2484 0.14253 0.20708 0.0
H389 H 0.19993 0.87393 0.16599 0.0
H390 H 0.21668 0.93413 0.18273 0.0
C391 C 0.26348 0.17572 0.21626 0.0
C392 C 0.19775 0.08236 0.20226 0.0
H393 H 0.17738 0.97636 0.20636 0.0
C394 C 0.19081 0.08474 0.18685 0.0
C395 C 0.19372 0.04261 0.20935 0.0
C396 C 0.2035 0.0374 0.22572 0.0
C397 C 0.1792 0.04861 0.17835 0.0
C398 C 0.17346 0.00924 0.18555 0.0
C399 C 0.18116 0.00668 0.20092 0.0
C400 C 0.16037 0.97028 0.17717 0.0
C401 C 0.17413 0.0528 0.16169 0.0
C402 C 0.12208 0.96965 0.16917 0.0
C403 C 0.11261 0.93559 0.15955 0.0
C404 C 0.14086 0.90098 0.15794 0.0
C405 C 0.17744 0.89998 0.16697 0.0
C406 C 0.18717 0.93446 0.17649 0.0
H407 H 0.1907 0.08141 0.15751 0.0
H408 H 0.18673 0.02429 0.15566 0.0
H409 H 0.13988 0.056 0.15896 0.0
H410 H 0.10035 0.9964 0.16986 0.0
H411 H 0.08412 0.93746 0.1528 0.0
H412 H 0.19466 0.97408 0.52611 0.0
H413 H 0.24596 0.01321 0.54164 0.0
H414 H 0.17185 0.12778 0.53709 0.0
H415 H 0.12024 0.08868 0.52139 0.0
H416 H 0.28126 0.10558 0.52738 0.0
H417 H 0.2148 0.09923 0.58494 0.0
H418 H 0.207 0.05521 0.57198 0.0
H419 H 0.18051 0.10478 0.56889 0.0
C420 C 0.18876 0.00738 0.52872 0.0
C421 C 0.15358 0.02844 0.52254 0.0
C422 C 0.21811 0.02965 0.53753 0.0
C423 C 0.21272 0.0733 0.54037 0.0
C424 C 0.17637 0.09402 0.53499 0.0
H425 H 0.38078 0.22593 0.59686 0.0
H426 H 0.32201 0.20499 0.58059 0.0
C427 C 0.14682 0.07164 0.52616 0.0
C428 C 0.24707 0.09743 0.54792 0.0
H429 H 0.28339 0.12806 0.5823 0.0
C430 C 0.28167 0.111 0.53937 0.0
C431 C 0.24718 0.10446 0.56349 0.0
C432 C 0.21048 0.09031 0.57298 0.0
C433 C 0.31702 0.13076 0.54609 0.0
C434 C 0.31803 0.13624 0.56179 0.0
C435 C 0.28268 0.12379 0.57026 0.0
C436 C 0.35596 0.15303 0.56982 0.0
C437 C 0.3529 0.14557 0.53633 0.0
C438 C 0.39517 0.13163 0.56885 0.0
C439 C 0.42919 0.14383 0.57805 0.0
C440 C 0.42437 0.17729 0.58856 0.0
C441 C 0.3857 0.19998 0.58893 0.0
C442 C 0.35191 0.18797 0.57967 0.0
H443 H 0.34186 0.1513 0.52475 0.0
H444 H 0.36743 0.17527 0.54088 0.0
H445 H 0.37783 0.12056 0.5358 0.0
H446 H 0.39884 0.10408 0.56153 0.0
H447 H 0.45831 0.12542 0.57755 0.0
H448 H 0.25625 0.85263 0.75078 0.0
H449 H 0.21658 0.91303 0.76148 0.0
H450 H 0.27611 0.89246 0.80413 0.0
H451 H 0.31554 0.83158 0.79344 0.0
H452 H 0.18816 0.92022 0.80555 0.0
H453 H 0.28868 0.02149 0.76961 0.0
H454 H 0.25863 0.9808 0.76002 0.0
H455 H 0.30027 0.96605 0.77266 0.0
C456 C 0.25955 0.86006 0.76258 0.0
C457 C 0.28877 0.83754 0.77134 0.0
C458 C 0.23728 0.89479 0.76863 0.0
C459 C 0.24421 0.90779 0.78349 0.0
C460 C 0.27052 0.88303 0.7926 0.0
H461 H 0.23308 0.14814 0.82937 0.0
H462 H 0.2522 0.08728 0.81327 0.0
C463 C 0.29273 0.84809 0.78656 0.0
C464 C 0.22761 0.94935 0.78907 0.0
H465 H 0.23846 0.05675 0.78491 0.0
C466 C 0.19882 0.9501 0.80099 0.0
C467 C 0.24208 0.98827 0.78318 0.0
C468 C 0.27438 0.98941 0.77074 0.0
C469 C 0.18434 0.98877 0.8073 0.0
C470 C 0.19868 0.02777 0.80136 0.0
C471 C 0.22718 0.02692 0.78933 0.0
C472 C 0.18715 0.06951 0.80832 0.0
C473 C 0.15518 0.98738 0.82065 0.0
C474 C 0.14444 0.08162 0.80998 0.0
C475 C 0.13351 0.11618 0.81926 0.0
C476 C 0.1652 0.13979 0.82669 0.0
C477 C 0.20805 0.13076 0.82362 0.0
C478 C 0.21897 0.09571 0.81454 0.0
H479 H 0.15521 0.95557 0.82587 0.0
H480 H 0.16455 0.01152 0.82923 0.0
H481 H 0.12217 0.99441 0.81706 0.0
H482 H 0.11953 0.06281 0.80482 0.0
H483 H 0.10031 0.12289 0.82133 0.0
H484 H 0.521 0.93359 0.01624 0.0
H485 H 0.47049 0.90518 0.03434 0.0
H486 H 0.42693 0.0325 0.04478 0.0
H487 H 0.47774 0.06114 0.02692 0.0
H488 H 0.43955 0.97786 0.07027 0.0
H489 H 0.34022 0.90536 0.02511 0.0
H490 H 0.39569 0.89138 0.02495 0.0
H491 H 0.37994 0.94528 0.02153 0.0
C492 C 0.50116 0.95552 0.02258 0.0
C493 C 0.50303 0.99954 0.02012 0.0
C494 C 0.47217 0.93926 0.03282 0.0
C495 C 0.44475 0.96678 0.04072 0.0
C496 C 0.44777 0.0108 0.03872 0.0
H497 H 0.20399 0.92139 0.08268 0.0
H498 H 0.26389 0.94756 0.06818 0.0
C499 C 0.47657 0.02705 0.02848 0.0
C500 C 0.41137 0.94983 0.05053 0.0
H501 H 0.31792 0.89493 0.04986 0.0
C502 C 0.41305 0.9595 0.06586 0.0
C503 C 0.37665 0.92646 0.04464 0.0
C504 C 0.37259 0.91667 0.02815 0.0
C505 C 0.38075 0.94627 0.07552 0.0
C506 C 0.34623 0.92263 0.06963 0.0
C507 C 0.34461 0.91295 0.05431 0.0
C508 C 0.31076 0.90839 0.0791 0.0
C509 C 0.38319 0.95852 0.09185 0.0
C510 C 0.31746 0.87779 0.09005 0.0
C511 C 0.2833 0.86266 0.09835 0.0
C512 C 0.24181 0.87783 0.09581 0.0
C513 C 0.23545 0.90902 0.08496 0.0
C514 C 0.26961 0.924 0.07664 0.0
H515 H 0.40712 0.98384 0.09403 0.0
H516 H 0.35177 0.96978 0.09598 0.0
H517 H 0.39231 0.93019 0.09835 0.0
H518 H 0.34895 0.86495 0.09194 0.0
H519 H 0.28937 0.83859 0.1066 0.0
H520 H 0.37173 0.20973 0.27811 0.0
H521 H 0.39674 0.15706 0.29596 0.0
H522 H 0.26879 0.1108 0.30097 0.0
H523 H 0.24334 0.16367 0.28324 0.0
H524 H 0.34308 0.12439 0.3293 0.0
H525 H 0.37075 0.02003 0.27921 0.0
H526 H 0.38114 0.0764 0.27834 0.0
H527 H 0.32752 0.05792 0.27979 0.0
C528 C 0.34868 0.18942 0.28342 0.0
C529 C 0.30561 0.19061 0.27921 0.0
C530 C 0.36306 0.15924 0.29354 0.0
C531 C 0.33456 0.13009 0.29965 0.0
C532 C 0.29114 0.13317 0.29634 0.0
H533 H 0.38942 0.88038 0.33552 0.0
H534 H 0.35569 0.94146 0.3237 0.0
C535 C 0.27674 0.16325 0.2862 0.0
C536 C 0.35076 0.09324 0.30791 0.0
H537 H 0.38996 0.99286 0.3025 0.0
C538 C 0.35332 0.09555 0.32351 0.0
C539 C 0.36351 0.0557 0.30025 0.0
C540 C 0.36068 0.05191 0.28346 0.0
C541 C 0.36888 0.06107 0.33169 0.0
C542 C 0.38273 0.0238 0.32398 0.0
C543 C 0.37939 0.02143 0.30838 0.0
C544 C 0.40195 0.98726 0.33179 0.0
C545 C 0.36986 0.06466 0.3485 0.0
C546 C 0.43937 0.99269 0.34012 0.0
C547 C 0.45869 0.95795 0.34689 0.0
C548 C 0.44122 0.91687 0.34536 0.0
C549 C 0.40376 0.9115 0.33694 0.0
C550 C 0.38438 0.94638 0.3302 0.0
H551 H 0.34716 0.08917 0.35273 0.0
H552 H 0.36214 0.03375 0.35366 0.0
H553 H 0.40223 0.07419 0.35216 0.0
H554 H 0.45411 0.02373 0.34117 0.0
H555 H 0.48764 0.96332 0.35319 0.0
H556 H 0.89073 0.07758 0.50022 0.0
H557 H 0.83409 0.10783 0.51589 0.0
H558 H 0.881 0.03693 0.55331 0.0
H559 H 0.93837 0.00766 0.53769 0.0
H560 H 0.77267 0.05976 0.52804 0.0
H561 H 0.85577 0.15074 0.57286 0.0
H562 H 0.88206 0.13375 0.55588 0.0
H563 H 0.87464 0.09703 0.57083 0.0
C564 C 0.88984 0.06995 0.51195 0.0
C565 C 0.91909 0.04094 0.51787 0.0
C566 C 0.8573 0.08681 0.52085 0.0
C567 C 0.85332 0.07475 0.53579 0.0
C568 C 0.8839 0.0474 0.54191 0.0
H569 H 0.66748 0.11952 0.60482 0.0
H570 H 0.71665 0.08248 0.58787 0.0
C571 C 0.91675 0.03081 0.53303 0.0
C572 C 0.81505 0.08749 0.54445 0.0
H573 H 0.78246 0.13616 0.5768 0.0
C574 C 0.7748 0.07669 0.53867 0.0
C575 C 0.81784 0.10944 0.55832 0.0
C576 C 0.85987 0.1238 0.56478 0.0
C577 C 0.73733 0.08685 0.54648 0.0
C578 C 0.74025 0.10836 0.56039 0.0
C579 C 0.78041 0.11914 0.56618 0.0
C580 C 0.70227 0.12196 0.56899 0.0
C581 C 0.69496 0.07409 0.53993 0.0
C582 C 0.67611 0.1547 0.5637 0.0
C583 C 0.64766 0.17556 0.57336 0.0
C584 C 0.64522 0.16386 0.58837 0.0
C585 C 0.66824 0.12839 0.5932 0.0
C586 C 0.69663 0.10757 0.58358 0.0
H587 H 0.69845 0.04972 0.53087 0.0
H588 H 0.67375 0.06141 0.54868 0.0
H589 H 0.67935 0.10252 0.53518 0.0
H590 H 0.68046 0.16672 0.55255 0.0
H591 H 0.63115 0.20366 0.56955 0.0
H592 H 0.85799 0.06183 0.26615 0.0
H593 H 0.83693 0.00468 0.28271 0.0
H594 H 0.71908 0.07029 0.29211 0.0
H595 H 0.73966 0.12719 0.2751 0.0
H596 H 0.81386 0.99682 0.3117 0.0
H597 H 0.67933 0.95713 0.27401 0.0
H598 H 0.72054 0.99411 0.26904 0.0
H599 H 0.67747 0.01104 0.28095 0.0
C600 C 0.82791 0.06439 0.27198 0.0
C601 C 0.80008 0.09848 0.26922 0.0
C602 C 0.81593 0.03175 0.28141 0.0
C603 C 0.77595 0.03266 0.28827 0.0
C604 C 0.74964 0.06852 0.28658 0.0
H605 H 0.66508 0.89968 0.35746 0.0
H606 H 0.71233 0.94044 0.3419 0.0
C607 C 0.76159 0.10124 0.27706 0.0
C608 C 0.76096 0.99493 0.29641 0.0
H609 H 0.68032 0.92266 0.2975 0.0
C610 C 0.78483 0.98037 0.30854 0.0
C611 C 0.72405 0.97242 0.2919 0.0
C612 C 0.6991 0.98412 0.27816 0.0
C613 C 0.7713 0.94549 0.31685 0.0
C614 C 0.73246 0.92528 0.3131 0.0
C615 C 0.71 0.93824 0.30043 0.0
C616 C 0.71121 0.8955 0.32331 0.0
C617 C 0.79845 0.93104 0.3297 0.0
C618 C 0.69508 0.85611 0.31815 0.0
C619 C 0.66759 0.83253 0.32712 0.0
C620 C 0.65547 0.84865 0.34119 0.0
C621 C 0.67381 0.88661 0.34662 0.0
C622 C 0.70125 0.9098 0.33778 0.0
H623 H 0.83265 0.93702 0.32749 0.0
H624 H 0.78965 0.94948 0.33991 0.0
H625 H 0.79405 0.89664 0.33186 0.0
H626 H 0.70215 0.8447 0.30694 0.0
H627 H 0.65363 0.80344 0.32269 0.0
H628 H 0.78749 0.99894 0.01633 0.0
H629 H 0.82737 0.96287 0.03578 0.0
H630 H 0.72263 0.87675 0.04224 0.0
H631 H 0.68265 0.91234 0.02244 0.0
H632 H 0.80468 0.94769 0.06647 0.0
H633 H 0.82703 0.79894 0.03234 0.0
H634 H 0.81046 0.84819 0.02402 0.0
H635 H 0.7739 0.81886 0.0352 0.0
C636 C 0.77296 0.97231 0.02188 0.0
C637 C 0.73229 0.95801 0.01778 0.0
C638 C 0.79559 0.95196 0.03304 0.0
C639 C 0.77802 0.91696 0.04027 0.0
C640 C 0.73679 0.90346 0.03663 0.0
H641 H 0.94957 0.77751 0.10055 0.0
H642 H 0.88257 0.79576 0.08808 0.0
C643 C 0.71398 0.92394 0.02543 0.0
C644 C 0.80433 0.89411 0.05114 0.0
H645 H 0.86852 0.80693 0.05397 0.0
C646 C 0.81791 0.91646 0.06395 0.0
C647 C 0.82125 0.8533 0.0478 0.0
C648 C 0.80772 0.82825 0.03408 0.0
C649 C 0.8502 0.90028 0.07299 0.0
C650 C 0.86941 0.8611 0.06897 0.0
C651 C 0.85361 0.83711 0.05688 0.0
C652 C 0.90961 0.84788 0.07589 0.0
C653 C 0.8652 0.92618 0.08631 0.0
C654 C 0.94674 0.8706 0.07279 0.0
C655 C 0.98488 0.85994 0.07968 0.0
C656 C 0.98649 0.82618 0.08972 0.0
C657 C 0.9494 0.80282 0.09254 0.0
C658 C 0.91112 0.8135 0.08559 0.0
H659 H 0.84082 0.94968 0.09005 0.0
H660 H 0.87322 0.90522 0.09577 0.0
H661 H 0.89432 0.94386 0.08325 0.0
H662 H 0.94601 0.89704 0.06519 0.0
H663 H 0.01298 0.87852 0.07732 0.0
H664 H 0.93236 0.93823 0.74672 0.0
H665 H 0.96988 0.98222 0.76517 0.0
H666 H 0.92832 0.89935 0.80011 0.0
H667 H 0.88951 0.85599 0.78176 0.0
H668 H 0.9029 0.98035 0.80459 0.0
H669 H 0.07463 0.97924 0.7916 0.0
H670 H 0.04313 0.98858 0.77528 0.0
H671 H 0.03879 0.93855 0.78466 0.0
C672 C 0.93203 0.92886 0.75829 0.0
C673 C 0.90754 0.89405 0.76283 0.0
C674 C 0.95397 0.95369 0.76881 0.0
C675 C 0.95212 0.94388 0.784 0.0
C676 C 0.93036 0.90726 0.78842 0.0
H677 H 0.05364 0.1246 0.85088 0.0
H678 H 0.04072 0.05863 0.83658 0.0
C679 C 0.90834 0.88244 0.77791 0.0
C680 C 0.96599 0.97583 0.7953 0.0
H681 H 0.04792 0.04177 0.80487 0.0
C682 C 0.9349 0.99316 0.80486 0.0
C683 C 0.00776 0.99234 0.79572 0.0
C684 C 0.04308 0.97337 0.78637 0.0
C685 C 0.9438 0.02814 0.81422 0.0
C686 C 0.98462 0.04666 0.8138 0.0
C687 C 0.01648 0.02784 0.80494 0.0
C688 C 0.99402 0.0867 0.82198 0.0
C689 C 0.90917 0.04557 0.82426 0.0
C690 C 0.97253 0.12426 0.81829 0.0
C691 C 0.98013 0.16194 0.82633 0.0
C692 C 0.00983 0.16267 0.83802 0.0
C693 C 0.03162 0.12511 0.8416 0.0
C694 C 0.02394 0.08739 0.83357 0.0
H695 H 0.88421 0.0214 0.82631 0.0
H696 H 0.92235 0.05658 0.83517 0.0
H697 H 0.89387 0.07316 0.81885 0.0
H698 H 0.94963 0.12433 0.80925 0.0
H699 H 0.96281 0.19046 0.82343 0.0
H700 H 0.88591 0.9004 0.49457 0.0
H701 H 0.82918 0.87553 0.4779 0.0
H702 H 0.88902 0.93882 0.44116 0.0
H703 H 0.94585 0.96399 0.45792 0.0
H704 H 0.80402 0.96474 0.4472 0.0
H705 H 0.81704 0.78851 0.44329 0.0
H706 H 0.81942 0.8105 0.46192 0.0
H707 H 0.86105 0.822 0.4489 0.0
C708 C 0.88783 0.90744 0.4828 0.0
C709 C 0.92031 0.93377 0.47746 0.0
C710 C 0.85537 0.89333 0.47329 0.0
C711 C 0.8549 0.90531 0.45829 0.0
C712 C 0.88892 0.92915 0.45271 0.0
H713 H 0.68844 0.88592 0.38409 0.0
H714 H 0.73604 0.91316 0.40346 0.0
C715 C 0.92159 0.94309 0.46222 0.0
C716 C 0.81649 0.89758 0.44903 0.0
H717 H 0.75393 0.8194 0.4339 0.0
C718 C 0.79312 0.93295 0.44424 0.0
C719 C 0.80193 0.85613 0.44544 0.0
C720 C 0.82627 0.81704 0.45003 0.0
C721 C 0.75566 0.92801 0.43586 0.0
C722 C 0.74154 0.88658 0.43198 0.0
C723 C 0.76451 0.85117 0.43702 0.0
C724 C 0.70601 0.87902 0.42136 0.0
C725 C 0.73146 0.96718 0.43129 0.0
C726 C 0.67201 0.8522 0.42505 0.0
C727 C 0.64427 0.83699 0.41394 0.0
C728 C 0.65074 0.84796 0.399 0.0
C729 C 0.68229 0.87777 0.39559 0.0
C730 C 0.70968 0.89319 0.40666 0.0
H731 H 0.7376 0.99439 0.43908 0.0
H732 H 0.74203 0.97661 0.42002 0.0
H733 H 0.6967 0.96114 0.43088 0.0
H734 H 0.66876 0.84073 0.43632 0.0
H735 H 0.62085 0.81322 0.41677 0.0
H736 H 0.90373 0.13884 0.21632 0.0
H737 H 0.9345 0.08847 0.19814 0.0
H738 H 0.81488 0.02176 0.19548 0.0
H739 H 0.78454 0.07136 0.21397 0.0
H740 H 0.87952 0.97111 0.20391 0.0
H741 H 0.92777 0.06059 0.15387 0.0
H742 H 0.94702 0.08316 0.17114 0.0
H743 H 0.89081 0.08188 0.1675 0.0
C744 C 0.88365 0.11438 0.21139 0.0
C745 C 0.84188 0.10877 0.21648 0.0
C746 C 0.90121 0.08565 0.201 0.0
C747 C 0.87694 0.05143 0.19542 0.0
C748 C 0.83414 0.04795 0.19965 0.0
H749 H 0.92024 0.82105 0.14493 0.0
H750 H 0.892 0.88356 0.15806 0.0
C751 C 0.81679 0.07629 0.21015 0.0
C752 C 0.89747 0.01585 0.18709 0.0
H753 H 0.9547 0.98979 0.15585 0.0
C754 C 0.89568 0.97523 0.19335 0.0
C755 C 0.9191 0.02139 0.17343 0.0
C756 C 0.92105 0.06404 0.166 0.0
C757 C 0.91467 0.93995 0.18629 0.0
C758 C 0.93585 0.94538 0.1726 0.0
C759 C 0.93841 0.98598 0.1664 0.0
C760 C 0.95361 0.90856 0.16428 0.0
C761 C 0.91209 0.89703 0.19354 0.0
C762 C 0.99766 0.9022 0.16342 0.0
C763 C 0.01405 0.86629 0.15595 0.0
C764 C 0.98656 0.83638 0.14921 0.0
C765 C 0.94239 0.84319 0.15009 0.0
C766 C 0.92612 0.87898 0.15753 0.0
H767 H 0.90192 0.89967 0.20539 0.0
H768 H 0.88866 0.87693 0.18741 0.0
H769 H 0.94334 0.88055 0.19301 0.0
H770 H 0.01919 0.92465 0.16874 0.0
H771 H 0.04811 0.86167 0.15561 0.0
H772 H 0.70888 0.08027 0.96602 0.0
H773 H 0.75999 0.10792 0.94811 0.0
H774 H 0.8246 0.98671 0.94691 0.0
H775 H 0.77305 0.95852 0.96459 0.0
H776 H 0.84678 0.11124 0.95571 0.0
H777 H 0.82163 0.02062 0.90269 0.0
H778 H 0.7816 0.02456 0.9171 0.0
H779 H 0.82552 0.98841 0.91901 0.0
C780 C 0.73306 0.05904 0.96154 0.0
C781 C 0.73708 0.01727 0.96674 0.0
C782 C 0.76238 0.07498 0.95139 0.0
C783 C 0.79591 0.0493 0.94615 0.0
C784 C 0.79859 0.00685 0.95065 0.0
H785 H 0.0298 0.09033 0.89779 0.0
H786 H 0.96993 0.0611 0.91159 0.0
C787 C 0.76935 0.99091 0.96084 0.0
C788 C 0.83092 0.06834 0.93755 0.0
H789 H 0.8855 0.06082 0.90474 0.0
C790 C 0.85507 0.10053 0.94451 0.0
C791 C 0.84178 0.0539 0.92304 0.0
C792 C 0.8161 0.02021 0.91493 0.0
C793 C 0.89049 0.11814 0.93746 0.0
C794 C 0.90146 0.10374 0.92291 0.0
C795 C 0.8771 0.0717 0.91591 0.0
C796 C 0.93801 0.12166 0.91475 0.0
C797 C 0.91648 0.15106 0.94588 0.0
C798 C 0.93987 0.16535 0.91192 0.0
C799 C 0.97428 0.18222 0.90423 0.0
C800 C 0.0072 0.15572 0.89893 0.0
C801 C 0.00513 0.11182 0.90173 0.0
C802 C 0.97083 0.09498 0.90956 0.0
H803 H 0.91173 0.14902 0.95813 0.0
H804 H 0.95091 0.14738 0.94346 0.0
H805 H 0.90638 0.18332 0.94246 0.0
H806 H 0.91449 0.18636 0.91558 0.0
H807 H 0.97493 0.21599 0.90233 0.0
H808 H 0.80196 0.87485 0.70471 0.0
H809 H 0.77124 0.93038 0.68895 0.0
H810 H 0.74692 0.00842 0.7281 0.0
H811 H 0.77757 0.95334 0.74381 0.0
H812 H 0.69108 0.97353 0.68896 0.0
H813 H 0.82442 0.08347 0.70248 0.0
H814 H 0.82636 0.02738 0.70646 0.0
H815 H 0.79677 0.06323 0.71837 0.0
C816 C 0.78913 0.90345 0.70993 0.0
C817 C 0.79251 0.91005 0.72543 0.0
C818 C 0.77192 0.93524 0.70095 0.0
C819 C 0.75792 0.97397 0.70735 0.0
C820 C 0.75858 0.97928 0.72291 0.0
H821 H 0.64201 0.19845 0.66767 0.0
H822 H 0.67716 0.15132 0.68558 0.0
C823 C 0.7758 0.94768 0.73186 0.0
C824 C 0.74391 0.0094 0.69777 0.0
H825 H 0.76833 0.11115 0.68784 0.0
C826 C 0.70797 0.00357 0.68871 0.0
C827 C 0.76601 0.04866 0.6975 0.0
C828 C 0.80576 0.05613 0.70661 0.0
C829 C 0.69336 0.03604 0.67944 0.0
C830 C 0.71568 0.07509 0.67905 0.0
C831 C 0.75134 0.08119 0.68821 0.0
C832 C 0.70306 0.10885 0.66861 0.0
C833 C 0.65403 0.02846 0.6701 0.0
C834 C 0.70839 0.10192 0.65325 0.0
C835 C 0.68869 0.12872 0.64311 0.0
C836 C 0.66359 0.16308 0.64815 0.0
C837 C 0.66181 0.17261 0.66351 0.0
C838 C 0.68146 0.14548 0.67373 0.0
H839 H 0.63569 0.0005 0.67392 0.0
H840 H 0.63299 0.05689 0.67043 0.0
H841 H 0.66348 0.02251 0.65832 0.0
H842 H 0.72531 0.07405 0.64911 0.0
H843 H 0.69027 0.12058 0.63132 0.0
H844 H 0.63645 0.42499 0.9648 0.0
H845 H 0.68848 0.38971 0.94838 0.0
H846 H 0.74998 0.33574 0.98676 0.0
H847 H 0.69704 0.36894 0.003 0.0
H848 H 0.76904 0.4104 0.94918 0.0
H849 H 0.75924 0.23738 0.9584 0.0
H850 H 0.71798 0.27375 0.96445 0.0
H851 H 0.76476 0.26615 0.97573 0.0
C852 C 0.66 0.40414 0.96963 0.0
C853 C 0.66297 0.39999 0.98517 0.0
C854 C 0.68993 0.38427 0.96027 0.0
C855 C 0.72317 0.35994 0.96632 0.0
C856 C 0.7243 0.35353 0.98175 0.0
H857 H 0.97146 0.34871 0.92307 0.0
H858 H 0.91539 0.35919 0.94176 0.0
C859 C 0.69424 0.37295 0.99106 0.0
C860 C 0.75982 0.34654 0.95691 0.0
H861 H 0.82516 0.26275 0.9482 0.0
C862 C 0.78098 0.37798 0.94885 0.0
C863 C 0.7755 0.30427 0.95647 0.0
C864 C 0.75287 0.26843 0.96411 0.0
C865 C 0.81747 0.36853 0.94046 0.0
C866 C 0.83428 0.3267 0.94055 0.0
C867 C 0.81286 0.29504 0.94845 0.0
C868 C 0.87166 0.31455 0.93133 0.0
C869 C 0.83686 0.40329 0.93126 0.0
C870 C 0.86696 0.28361 0.92001 0.0
C871 C 0.89903 0.27711 0.90951 0.0
C872 C 0.93656 0.30149 0.91007 0.0
C873 C 0.94282 0.32976 0.92221 0.0
C874 C 0.91064 0.33605 0.93282 0.0
H875 H 0.81422 0.42994 0.9295 0.0
H876 H 0.8651 0.41638 0.93716 0.0
H877 H 0.84716 0.39078 0.92017 0.0
H878 H 0.83742 0.26624 0.91875 0.0
H879 H 0.89321 0.25458 0.90045 0.0
H880 H 0.86116 0.29992 0.20868 0.0
H881 H 0.89818 0.34637 0.19149 0.0
H882 H 0.95842 0.41112 0.22879 0.0
H883 H 0.91923 0.36599 0.24604 0.0
H884 H 0.92269 0.46573 0.21248 0.0
H885 H 0.01251 0.36001 0.17426 0.0
H886 H 0.95814 0.34341 0.17469 0.0
H887 H 0.99 0.34114 0.19142 0.0
C888 C 0.88333 0.32326 0.21314 0.0
C889 C 0.8876 0.32956 0.2286 0.0
C890 C 0.90474 0.34962 0.20332 0.0
C891 C 0.93164 0.38194 0.2088 0.0
C892 C 0.93793 0.38635 0.22429 0.0
H893 H 0.05413 0.55311 0.14624 0.0
H894 H 0.04052 0.49666 0.16397 0.0
C895 C 0.91574 0.3606 0.23413 0.0
C896 C 0.94779 0.4148 0.1986 0.0
H897 H 0.99212 0.42877 0.16431 0.0
C898 C 0.93862 0.45759 0.20208 0.0
C899 C 0.96908 0.40449 0.1851 0.0
C900 C 0.98339 0.35976 0.18126 0.0
C901 C 0.94851 0.4901 0.19221 0.0
C902 C 0.96635 0.47936 0.17815 0.0
C903 C 0.9774 0.43685 0.17493 0.0
C904 C 0.97381 0.51188 0.16671 0.0
C905 C 0.9399 0.5356 0.19703 0.0
C906 C 0.94051 0.53835 0.16201 0.0
C907 C 0.94834 0.57115 0.15208 0.0
C908 C 0.98935 0.57719 0.14636 0.0
C909 C 0.02212 0.54914 0.15043 0.0
C910 C 0.01444 0.5169 0.16058 0.0
H911 H 0.94007 0.53921 0.20939 0.0
H912 H 0.96382 0.55766 0.1924 0.0
H913 H 0.90794 0.5452 0.19304 0.0
H914 H 0.90857 0.53409 0.16621 0.0
H915 H 0.92241 0.59197 0.14899 0.0
H916 H 0.9782 0.48971 0.45803 0.0
H917 H 0.93828 0.52734 0.43899 0.0
H918 H 0.99531 0.64592 0.4534 0.0
H919 H 0.03523 0.60818 0.47273 0.0
H920 H 0.90706 0.64804 0.45239 0.0
H921 H 0.97054 0.58125 0.39948 0.0
H922 H 0.95797 0.54011 0.41237 0.0
H923 H 0.99905 0.57801 0.41695 0.0
C924 C 0.98262 0.52373 0.45701 0.0
C925 C 0.00954 0.54615 0.46686 0.0
C926 C 0.96022 0.5451 0.44602 0.0
C927 C 0.96441 0.58927 0.44463 0.0
C928 C 0.99213 0.61171 0.4542 0.0
H929 H 0.79489 0.70547 0.37832 0.0
H930 H 0.85999 0.69113 0.3924 0.0
C931 C 0.01487 0.5902 0.46519 0.0
C932 C 0.93581 0.61191 0.43437 0.0
H933 H 0.89755 0.60703 0.39875 0.0
C934 C 0.90561 0.63996 0.44058 0.0
C935 C 0.93429 0.60173 0.41894 0.0
C936 C 0.96753 0.57396 0.41152 0.0
C937 C 0.87185 0.65532 0.43199 0.0
C938 C 0.86816 0.64182 0.41692 0.0
C939 C 0.9002 0.61666 0.4104 0.0
C940 C 0.82932 0.65023 0.40824 0.0
C941 C 0.83944 0.68451 0.43921 0.0
C942 C 0.79097 0.63109 0.41235 0.0
C943 C 0.75387 0.63881 0.4043 0.0
C944 C 0.75448 0.66599 0.39202 0.0
C945 C 0.79327 0.68451 0.38777 0.0
C946 C 0.83048 0.67645 0.39578 0.0
H947 H 0.85256 0.70092 0.44929 0.0
H948 H 0.82823 0.70884 0.43127 0.0
H949 H 0.81158 0.66549 0.44269 0.0
H950 H 0.78975 0.61021 0.42183 0.0
H951 H 0.72461 0.62406 0.40789 0.0
H952 H 0.73586 0.69759 0.71889 0.0
H953 H 0.70559 0.64015 0.70321 0.0
H954 H 0.82485 0.57233 0.70502 0.0
H955 H 0.85522 0.62986 0.72029 0.0
H956 H 0.78632 0.56375 0.67778 0.0
H957 H 0.67296 0.5298 0.72356 0.0
H958 H 0.66918 0.58257 0.7163 0.0
H959 H 0.71666 0.56643 0.72587 0.0
C960 C 0.75589 0.6711 0.71545 0.0
C961 C 0.79768 0.66784 0.72079 0.0
C962 C 0.73847 0.63805 0.70672 0.0
C963 C 0.76265 0.60143 0.70336 0.0
C964 C 0.80551 0.60006 0.70762 0.0
H965 H 0.71741 0.3504 0.66312 0.0
H966 H 0.74585 0.40815 0.67897 0.0
C967 C 0.82288 0.63297 0.71627 0.0
C968 C 0.74305 0.56315 0.69636 0.0
H969 H 0.66748 0.4869 0.70169 0.0
C970 C 0.76039 0.5469 0.68301 0.0
C971 C 0.70954 0.54095 0.70333 0.0
C972 C 0.69118 0.5555 0.71812 0.0
C973 C 0.74465 0.50946 0.67629 0.0
C974 C 0.71105 0.48748 0.68322 0.0
C975 C 0.69357 0.5037 0.69653 0.0
C976 C 0.6915 0.44952 0.67609 0.0
C977 C 0.76337 0.49417 0.66164 0.0
C978 C 0.6507 0.45289 0.67001 0.0
C979 C 0.63418 0.41997 0.66116 0.0
C980 C 0.65839 0.38309 0.65811 0.0
C981 C 0.69792 0.3783 0.66526 0.0
C982 C 0.7144 0.41141 0.67418 0.0
H983 H 0.78415 0.5185 0.65656 0.0
H984 H 0.78272 0.46518 0.66353 0.0
H985 H 0.73777 0.48565 0.65359 0.0
H986 H 0.63276 0.48217 0.67134 0.0
H987 H 0.60361 0.42474 0.65588 0.0
H988 H 0.69904 0.44904 0.03567 0.0
H989 H 0.75616 0.48944 0.04784 0.0
H990 H 0.70137 0.60643 0.03228 0.0
H991 H 0.6441 0.56591 0.01986 0.0
H992 H 0.81025 0.54805 0.0286 0.0
H993 H 0.73524 0.62496 0.07855 0.0
H994 H 0.7151 0.57583 0.07051 0.0
H995 H 0.70701 0.62491 0.06103 0.0
C996 C 0.69851 0.48348 0.03519 0.0
C997 C 0.66718 0.50437 0.0268 0.0
C998 C 0.73126 0.50645 0.04207 0.0
C999 C 0.73313 0.55081 0.04086 0.0
C1000 C 0.70034 0.57217 0.03338 0.0
H1001 H 0.92043 0.72125 0.08084 0.0
H1002 H 0.86252 0.69433 0.06523 0.0
C1003 C 0.66747 0.54908 0.02642 0.0
C1004 C 0.77135 0.57384 0.04633 0.0
H1005 H 0.80795 0.63758 0.0747 0.0
C1006 C 0.80982 0.56789 0.03863 0.0
C1007 C 0.77048 0.59991 0.0593 0.0
C1008 C 0.7299 0.60691 0.06794 0.0
C1009 C 0.84769 0.58704 0.04366 0.0
C1010 C 0.84728 0.61189 0.057 0.0
C1011 C 0.80843 0.61856 0.06449 0.0
C1012 C 0.88673 0.62985 0.06383 0.0
C1013 C 0.88756 0.58078 0.03454 0.0
C1014 C 0.92087 0.60319 0.0677 0.0
C1015 C 0.95466 0.6189 0.07639 0.0
C1016 C 0.95439 0.66131 0.08164 0.0
C1017 C 0.92163 0.68852 0.07694 0.0
C1018 C 0.88828 0.67303 0.06809 0.0
H1019 H 0.87995 0.57423 0.02261 0.0
H1020 H 0.90853 0.60912 0.03529 0.0
H1021 H 0.90533 0.55292 0.03877 0.0
H1022 H 0.92013 0.56957 0.06485 0.0
H1023 H 0.97898 0.59695 0.08005 0.0
H1024 H 0.74593 0.37218 0.243 0.0
H1025 H 0.70961 0.43084 0.25606 0.0
H1026 H 0.74383 0.3768 0.29833 0.0
H1027 H 0.78074 0.31804 0.2852 0.0
H1028 H 0.64536 0.43989 0.2782 0.0
H1029 H 0.80418 0.49392 0.29789 0.0
H1030 H 0.79755 0.45335 0.28357 0.0
H1031 H 0.79074 0.44049 0.30288 0.0
C1032 C 0.74461 0.37224 0.25508 0.0
C1033 C 0.7662 0.34085 0.26314 0.0
C1034 C 0.72396 0.40576 0.26252 0.0
C1035 C 0.7248 0.40861 0.27814 0.0
C1036 C 0.74343 0.37545 0.28624 0.0
H1037 H 0.6026 0.57766 0.33953 0.0
H1038 H 0.61981 0.52236 0.32139 0.0
C1039 C 0.76406 0.34172 0.27878 0.0
C1040 C 0.70986 0.44817 0.28576 0.0
H1041 H 0.74465 0.53215 0.30711 0.0
C1042 C 0.66701 0.46016 0.2845 0.0
C1043 C 0.73845 0.47524 0.29357 0.0
C1044 C 0.78538 0.46546 0.29448 0.0
C1045 C 0.65164 0.49773 0.29137 0.0
C1046 C 0.67987 0.52368 0.29985 0.0
C1047 C 0.723 0.51236 0.30062 0.0
C1048 C 0.66499 0.56018 0.30924 0.0
C1049 C 0.60531 0.50907 0.28951 0.0
C1050 C 0.68467 0.6003 0.30853 0.0
C1051 C 0.67525 0.63235 0.31914 0.0
C1052 C 0.64628 0.62454 0.33069 0.0
C1053 C 0.62524 0.58498 0.33085 0.0
C1054 C 0.63464 0.55323 0.32033 0.0
H1055 H 0.59258 0.4964 0.27875 0.0
H1056 H 0.58679 0.49439 0.29859 0.0
H1057 H 0.6001 0.54403 0.29001 0.0
H1058 H 0.70848 0.60626 0.3001 0.0
H1059 H 0.69216 0.66229 0.31872 0.0
H1060 H 0.95303 0.42563 0.49373 0.0
H1061 H 0.90116 0.39965 0.51172 0.0
H1062 H 0.98048 0.4444 0.54799 0.0
H1063 H 0.03158 0.47205 0.53014 0.0
H1064 H 0.90465 0.34367 0.53565 0.0
H1065 H 0.86863 0.50927 0.55445 0.0
H1066 H 0.89936 0.49728 0.53792 0.0
H1067 H 0.92361 0.49456 0.55605 0.0
C1068 C 0.95952 0.42976 0.50554 0.0
C1069 C 0.9961 0.45149 0.5105 0.0
C1070 C 0.93001 0.41468 0.51579 0.0
C1071 C 0.93662 0.42104 0.53114 0.0
C1072 C 0.97445 0.44001 0.53616 0.0
H1073 H 0.78351 0.31529 0.60203 0.0
H1074 H 0.84104 0.33415 0.58518 0.0
C1075 C 0.00387 0.4553 0.52593 0.0
C1076 C 0.9028 0.41015 0.54184 0.0
H1077 H 0.83523 0.45403 0.56764 0.0
C1078 C 0.88946 0.36771 0.54267 0.0
C1079 C 0.88258 0.44183 0.55075 0.0
C1080 C 0.89391 0.48836 0.54969 0.0
C1081 C 0.85665 0.35595 0.55235 0.0
C1082 C 0.83734 0.38746 0.56159 0.0
C1083 C 0.85042 0.42995 0.56063 0.0
C1084 C 0.8029 0.37718 0.57213 0.0
C1085 C 0.84231 0.31013 0.55233 0.0
C1086 C 0.76287 0.3965 0.57075 0.0
C1087 C 0.72995 0.38622 0.58048 0.0
C1088 C 0.73657 0.35641 0.59177 0.0
C1089 C 0.77715 0.33807 0.59337 0.0
C1090 C 0.81005 0.34855 0.58369 0.0
H1091 H 0.85219 0.29278 0.54199 0.0
H1092 H 0.8569 0.29383 0.56196 0.0
H1093 H 0.80722 0.30795 0.5534 0.0
H1094 H 0.75688 0.41898 0.56196 0.0
H1095 H 0.69914 0.40095 0.57894 0.0
H1096 H 0.891 0.63097 0.75959 0.0
H1097 H 0.91039 0.58749 0.78078 0.0
H1098 H 0.83724 0.66978 0.81007 0.0
H1099 H 0.81674 0.71329 0.78862 0.0
H1100 H 0.95195 0.60844 0.80745 0.0
H1101 H 0.78722 0.54997 0.81687 0.0
H1102 H 0.80218 0.57693 0.80007 0.0
H1103 H 0.79526 0.60665 0.81718 0.0
C1104 C 0.87899 0.63985 0.77054 0.0
C1105 C 0.85183 0.67509 0.77244 0.0
C1106 C 0.8903 0.61514 0.78265 0.0
C1107 C 0.87477 0.62506 0.79694 0.0
C1108 C 0.84901 0.66125 0.79907 0.0
H1109 H 0.9791 0.46296 0.86726 0.0
H1110 H 0.95301 0.52669 0.85495 0.0
C1111 C 0.83764 0.68622 0.78687 0.0
C1112 C 0.88497 0.59605 0.80929 0.0
H1113 H 0.84189 0.51825 0.83064 0.0
C1114 C 0.92791 0.58919 0.81275 0.0
C1115 C 0.85342 0.57077 0.81601 0.0
C1116 C 0.8069 0.57604 0.81234 0.0
C1117 C 0.94041 0.55637 0.82222 0.0
C1118 C 0.90894 0.53033 0.82866 0.0
C1119 C 0.86586 0.5384 0.82572 0.0
C1120 C 0.92042 0.49215 0.83726 0.0
C1121 C 0.98729 0.54826 0.82448 0.0
C1122 C 0.90902 0.4516 0.83181 0.0
C1123 C 0.92345 0.41506 0.8389 0.0
C1124 C 0.94973 0.41844 0.85157 0.0
C1125 C 0.95943 0.45919 0.8574 0.0
C1126 C 0.94466 0.49569 0.85037 0.0
H1127 H 0.00711 0.56534 0.81627 0.0
H1128 H 0.99666 0.55949 0.83582 0.0
H1129 H 0.99456 0.51371 0.82353 0.0
H1130 H 0.89019 0.44818 0.82172 0.0
H1131 H 0.91524 0.38423 0.83414 0.0
H1132 H 0.40079 0.56424 -0.00046 0.0
H1133 H 0.34743 0.60167 0.01472 0.0
H1134 H 0.40703 0.55543 0.05469 0.0
H1135 H 0.46064 0.51815 0.0395 0.0
H1136 H 0.29278 0.5561 0.03278 0.0
H1137 H 0.37928 0.67925 0.06583 0.0
H1138 H 0.40116 0.65471 0.04914 0.0
H1139 H 0.40301 0.6273 0.06657 0.0
C1140 C 0.40329 0.56335 0.01159 0.0
C1141 C 0.43473 0.5384 0.01839 0.0
C1142 C 0.37271 0.58448 0.02023 0.0
C1143 C 0.37322 0.58124 0.03581 0.0
C1144 C 0.40641 0.55884 0.04269 0.0
H1145 H 0.21076 0.64596 0.10914 0.0
H1146 H 0.26018 0.61044 0.09197 0.0
C1147 C 0.43713 0.53772 0.03402 0.0
C1148 C 0.33659 0.59701 0.04469 0.0
H1149 H 0.30941 0.66215 0.07398 0.0
C1150 C 0.29626 0.57959 0.04171 0.0
C1151 C 0.34131 0.62755 0.05632 0.0
C1152 C 0.38343 0.64863 0.0596 0.0
C1153 C 0.2607 0.59099 0.05037 0.0
C1154 C 0.26564 0.62089 0.06219 0.0
C1155 C 0.30581 0.63888 0.06498 0.0
C1156 C 0.22999 0.63395 0.07204 0.0
C1157 C 0.21849 0.57009 0.04711 0.0
C1158 C 0.19524 0.657 0.06646 0.0
C1159 C 0.16641 0.67672 0.07631 0.0
C1160 C 0.1725 0.67388 0.09177 0.0
C1161 C 0.20525 0.64808 0.09724 0.0
C1162 C 0.23367 0.62815 0.08746 0.0
H1163 H 0.22208 0.54108 0.03995 0.0
H1164 H 0.20231 0.56131 0.05762 0.0
H1165 H 0.1977 0.59283 0.04118 0.0
H1166 H 0.19219 0.66237 0.05461 0.0
H1167 H 0.14195 0.6973 0.07189 0.0
H1168 H 0.40264 0.57573 0.79243 0.0
H1169 H 0.37019 0.52048 0.80763 0.0
H1170 H 0.24751 0.57957 0.80209 0.0
H1171 H 0.27971 0.63469 0.78677 0.0
H1172 H 0.30762 0.51891 0.83392 0.0
H1173 H 0.24798 0.45875 0.77907 0.0
H1174 H 0.29122 0.49626 0.78076 0.0
H1175 H 0.23732 0.51398 0.78319 0.0
C1176 C 0.369 0.57774 0.79494 0.0
C1177 C 0.3435 0.60911 0.78834 0.0
C1178 C 0.35057 0.5462 0.80358 0.0
C1179 C 0.30649 0.54571 0.8057 0.0
C1180 C 0.28162 0.57943 0.80043 0.0
H1181 H 0.10572 0.39988 0.83598 0.0
H1182 H 0.15707 0.44519 0.82359 0.0
C1183 C 0.30005 0.61107 0.79182 0.0
C1184 C 0.28578 0.50727 0.81147 0.0
H1185 H 0.22072 0.42566 0.80063 0.0
C1186 C 0.28904 0.49811 0.82667 0.0
C1187 C 0.26233 0.47995 0.80184 0.0
C1188 C 0.25967 0.48735 0.78527 0.0
C1189 C 0.26702 0.46355 0.83269 0.0
C1190 C 0.2418 0.43752 0.82317 0.0
C1191 C 0.24031 0.44559 0.80785 0.0
C1192 C 0.21151 0.40642 0.82918 0.0
C1193 C 0.26889 0.4564 0.84928 0.0
C1194 C 0.2251 0.36868 0.83591 0.0
C1195 C 0.19552 0.34225 0.84287 0.0
C1196 C 0.15238 0.3538 0.84325 0.0
C1197 C 0.13887 0.39038 0.83582 0.0
C1198 C 0.16812 0.4163 0.82878 0.0
H1199 H 0.28712 0.48167 0.85529 0.0
H1200 H 0.23625 0.45534 0.85397 0.0
H1201 H 0.28425 0.42527 0.85141 0.0
H1202 H 0.25854 0.36046 0.83618 0.0
H1203 H 0.20665 0.31443 0.84868 0.0
H1204 H 0.26265 0.53029 0.53136 0.0
H1205 H 0.30308 0.49219 0.5503 0.0
H1206 H 0.22371 0.38182 0.54347 0.0
H1207 H 0.18342 0.41951 0.52436 0.0
H1208 H 0.27745 0.44268 0.57758 0.0
H1209 H 0.34902 0.34728 0.53084 0.0
H1210 H 0.32167 0.39689 0.52769 0.0
H1211 H 0.29197 0.3501 0.53208 0.0
C1212 C 0.25338 0.49818 0.53409 0.0
C1213 C 0.22028 0.47765 0.52629 0.0
C1214 C 0.27628 0.47658 0.54494 0.0
C1215 C 0.26654 0.43416 0.54809 0.0
C1216 C 0.23171 0.41452 0.54109 0.0
H1217 H 0.45581 0.26966 0.59038 0.0
H1218 H 0.38853 0.29166 0.57897 0.0
C1219 C 0.20864 0.43616 0.53026 0.0
C1220 C 0.29596 0.40945 0.5574 0.0
H1221 H 0.37852 0.3393 0.55458 0.0
C1222 C 0.29916 0.41954 0.57265 0.0
C1223 C 0.32389 0.37912 0.55088 0.0
C1224 C 0.32187 0.36763 0.53446 0.0
C1225 C 0.3308 0.40112 0.5815 0.0
C1226 C 0.36053 0.3729 0.57476 0.0
C1227 C 0.35576 0.36105 0.55969 0.0
C1228 C 0.39937 0.35901 0.58262 0.0
C1229 C 0.33251 0.41263 0.5979 0.0
C1230 C 0.42798 0.3896 0.58815 0.0
C1231 C 0.46616 0.37717 0.59466 0.0
C1232 C 0.47674 0.3338 0.59566 0.0
C1233 C 0.4482 0.30317 0.59 0.0
C1234 C 0.40985 0.31569 0.58347 0.0
H1235 H 0.30045 0.42109 0.60223 0.0
H1236 H 0.3455 0.38608 0.60454 0.0
H1237 H 0.35326 0.44084 0.59957 0.0
H1238 H 0.4212 0.42325 0.58717 0.0
H1239 H 0.48738 0.40168 0.59888 0.0
H1240 H 0.37128 0.3799 0.28311 0.0
H1241 H 0.41454 0.42813 0.29842 0.0
H1242 H 0.4921 0.45588 0.26012 0.0
H1243 H 0.44695 0.40939 0.24456 0.0
H1244 H 0.49387 0.44442 0.30701 0.0
H1245 H 0.43969 0.56975 0.2681 0.0
H1246 H 0.42048 0.5159 0.26681 0.0
H1247 H 0.47224 0.52903 0.2597 0.0
C1248 C 0.39846 0.39519 0.27809 0.0
C1249 C 0.4057 0.39142 0.26269 0.0
C1250 C 0.42312 0.42288 0.28682 0.0
C1251 C 0.45565 0.44676 0.2803 0.0
C1252 C 0.46622 0.43889 0.26527 0.0
H1253 H 0.56523 0.67511 0.32408 0.0
H1254 H 0.55924 0.61163 0.30778 0.0
C1255 C 0.44086 0.41197 0.25644 0.0
C1256 C 0.47389 0.48347 0.28875 0.0
H1257 H 0.47693 0.59227 0.28935 0.0
C1258 C 0.49071 0.47669 0.30305 0.0
C1259 C 0.46941 0.52576 0.28363 0.0
C1260 C 0.44916 0.53575 0.26879 0.0
C1261 C 0.50159 0.511 0.31254 0.0
C1262 C 0.49585 0.55294 0.30754 0.0
C1263 C 0.48132 0.55985 0.29303 0.0
C1264 C 0.5006 0.59016 0.31766 0.0
C1265 C 0.51767 0.50232 0.32805 0.0
C1266 C 0.46898 0.59933 0.32827 0.0
C1267 C 0.47178 0.63593 0.3373 0.0
C1268 C 0.50665 0.66337 0.336 0.0
C1269 C 0.53832 0.65406 0.32538 0.0
C1270 C 0.53498 0.61796 0.31611 0.0
H1271 H 0.52989 0.46928 0.329 0.0
H1272 H 0.54326 0.52496 0.33125 0.0
H1273 H 0.49119 0.50677 0.3361 0.0
H1274 H 0.44187 0.57843 0.32942 0.0
H1275 H 0.44705 0.64246 0.34543 0.0
H1276 H 0.38964 0.3952 0.00128 0.0
H1277 H 0.3322 0.36726 0.98548 0.0
H1278 H 0.39858 0.40978 0.94639 0.0
H1279 H 0.45645 0.43699 0.96222 0.0
H1280 H 0.28308 0.41858 0.96887 0.0
H1281 H 0.35561 0.29487 0.93217 0.0
H1282 H 0.38126 0.31429 0.94899 0.0
H1283 H 0.38466 0.34393 0.93203 0.0
C1284 C 0.39268 0.39693 0.98926 0.0
C1285 C 0.4276 0.41777 0.98291 0.0
C1286 C 0.3597 0.38136 0.98026 0.0
C1287 C 0.36099 0.38632 0.96473 0.0
C1288 C 0.39717 0.4048 0.9583 0.0
H1289 H 0.19328 0.38083 0.89044 0.0
H1290 H 0.24187 0.40221 0.9105 0.0
C1291 C 0.43035 0.4202 0.96733 0.0
C1292 C 0.32269 0.37669 0.95553 0.0
H1293 H 0.28896 0.32383 0.92408 0.0
C1294 C 0.28423 0.39736 0.9592 0.0
C1295 C 0.32409 0.34897 0.94292 0.0
C1296 C 0.36351 0.32391 0.93887 0.0
C1297 C 0.2477 0.39221 0.95029 0.0
C1298 C 0.24973 0.36589 0.93741 0.0
C1299 C 0.28771 0.34433 0.93394 0.0
C1300 C 0.21358 0.36143 0.9269 0.0
C1301 C 0.20751 0.41589 0.95434 0.0
C1302 C 0.17999 0.33336 0.92979 0.0
C1303 C 0.15168 0.3215 0.91834 0.0
C1304 C 0.15708 0.3374 0.90391 0.0
C1305 C 0.18807 0.36868 0.90153 0.0
C1306 C 0.21614 0.38054 0.91293 0.0
H1307 H 0.21154 0.4366 0.96442 0.0
H1308 H 0.19733 0.43582 0.94486 0.0
H1309 H 0.18167 0.39275 0.95644 0.0
H1310 H 0.17774 0.3181 0.9405 0.0
H1311 H 0.12876 0.29657 0.92034 0.0
H1312 H 0.37089 0.63084 0.7203 0.0
H1313 H 0.39623 0.58181 0.70067 0.0
H1314 H 0.4727 0.51612 0.73299 0.0
H1315 H 0.4494 0.56616 0.75242 0.0
H1316 H 0.51407 0.52317 0.70692 0.0
H1317 H 0.35068 0.46203 0.69689 0.0
H1318 H 0.35682 0.51802 0.69391 0.0
H1319 H 0.36338 0.49727 0.71235 0.0
C1320 C 0.39378 0.60651 0.72315 0.0
C1321 C 0.40764 0.602 0.73797 0.0
C1322 C 0.40781 0.57817 0.71196 0.0
C1323 C 0.43549 0.54462 0.71545 0.0
C1324 C 0.45101 0.54149 0.73006 0.0
H1325 H 0.46244 0.29984 0.67267 0.0
H1326 H 0.44686 0.36187 0.68861 0.0
C1327 C 0.43737 0.56992 0.74119 0.0
C1328 C 0.44709 0.51142 0.70418 0.0
H1329 H 0.40534 0.43222 0.68214 0.0
C1330 C 0.49032 0.50335 0.70144 0.0
C1331 C 0.41604 0.48529 0.69719 0.0
C1332 C 0.36916 0.49071 0.7003 0.0
C1333 C 0.50343 0.4694 0.69212 0.0
C1334 C 0.47237 0.44349 0.68503 0.0
C1335 C 0.42913 0.45215 0.68754 0.0
C1336 C 0.48373 0.40587 0.67557 0.0
C1337 C 0.55038 0.46098 0.69033 0.0
C1338 C 0.50971 0.40986 0.66293 0.0
C1339 C 0.51934 0.37419 0.65398 0.0
C1340 C 0.50236 0.33417 0.65732 0.0
C1341 C 0.47604 0.33031 0.66986 0.0
C1342 C 0.46706 0.36575 0.67895 0.0
H1343 H 0.56924 0.47601 0.6995 0.0
H1344 H 0.55736 0.42633 0.68998 0.0
H1345 H 0.56102 0.47481 0.67969 0.0
H1346 H 0.52186 0.44065 0.65981 0.0
H1347 H 0.53879 0.3782 0.64415 0.0
H1348 H 0.29092 0.49984 0.48003 0.0
H1349 H 0.34068 0.53444 0.46323 0.0
H1350 H 0.24761 0.63168 0.45431 0.0
H1351 H 0.1977 0.59768 0.47137 0.0
H1352 H 0.29188 0.59534 0.42832 0.0
H1353 H 0.40041 0.65036 0.47357 0.0
H1354 H 0.38682 0.59488 0.47419 0.0
H1355 H 0.34617 0.63448 0.47698 0.0
C1356 C 0.28108 0.52871 0.47456 0.0
C1357 C 0.24058 0.54634 0.47716 0.0
C1358 C 0.3095 0.54837 0.46497 0.0
C1359 C 0.29795 0.58593 0.45778 0.0
C1360 C 0.25707 0.60282 0.45987 0.0
H1361 H 0.48601 0.73915 0.41071 0.0
H1362 H 0.42612 0.71875 0.42661 0.0
C1363 C 0.22859 0.58324 0.46953 0.0
C1364 C 0.32894 0.60742 0.44815 0.0
H1365 H 0.42711 0.65333 0.4487 0.0
C1366 C 0.32125 0.60847 0.43275 0.0
C1367 C 0.36681 0.6251 0.45406 0.0
C1368 C 0.37552 0.6266 0.47062 0.0
C1369 C 0.35162 0.62493 0.42298 0.0
C1370 C 0.39057 0.64023 0.42882 0.0
C1371 C 0.39732 0.64114 0.44428 0.0
C1372 C 0.42573 0.65304 0.419 0.0
C1373 C 0.34212 0.62538 0.40648 0.0
C1374 C 0.4457 0.62254 0.40978 0.0
C1375 C 0.47998 0.63396 0.40087 0.0
C1376 C 0.49458 0.67617 0.40094 0.0
C1377 C 0.4747 0.70665 0.41024 0.0
C1378 C 0.44073 0.69504 0.41933 0.0
H1379 H 0.30747 0.62291 0.40423 0.0
H1380 H 0.35435 0.65491 0.4014 0.0
H1381 H 0.35809 0.59782 0.40094 0.0
H1382 H 0.43505 0.58976 0.40963 0.0
H1383 H 0.49483 0.60985 0.39381 0.0
H1384 H 0.29432 0.47274 0.24634 0.0
H1385 H 0.26516 0.53094 0.2318 0.0
H1386 H 0.2456 0.44478 0.19445 0.0
H1387 H 0.2756 0.38608 0.20895 0.0
H1388 H 0.30232 0.55652 0.20361 0.0
H1389 H 0.1312 0.51351 0.19932 0.0
H1390 H 0.16564 0.49278 0.21364 0.0
H1391 H 0.16872 0.47184 0.19491 0.0
C1392 C 0.28355 0.46604 0.23505 0.0
C1393 C 0.28778 0.42495 0.22869 0.0
C1394 C 0.26681 0.49933 0.22679 0.0
C1395 C 0.25336 0.49218 0.21207 0.0
C1396 C 0.25555 0.45081 0.20586 0.0
H1397 H 0.2124 0.64985 0.13753 0.0
H1398 H 0.2449 0.60697 0.157 0.0
C1399 C 0.27255 0.41733 0.21414 0.0
C1400 C 0.23977 0.52873 0.20298 0.0
H1401 H 0.1547 0.57137 0.18488 0.0
C1402 C 0.26999 0.55995 0.19957 0.0
C1403 C 0.19752 0.53329 0.19791 0.0
C1404 C 0.16366 0.50133 0.20168 0.0
C1405 C 0.25928 0.59504 0.19082 0.0
C1406 C 0.21734 0.59895 0.18539 0.0
C1407 C 0.18683 0.56836 0.18914 0.0
C1408 C 0.2051 0.63229 0.17472 0.0
C1409 C 0.29287 0.62755 0.18735 0.0
C1410 C 0.17328 0.66212 0.17838 0.0
C1411 C 0.1553 0.68737 0.16729 0.0
C1412 C 0.16848 0.68239 0.1524 0.0
C1413 C 0.20245 0.65487 0.149 0.0
C1414 C 0.22081 0.63018 0.16009 0.0
H1415 H 0.32034 0.6256 0.19511 0.0
H1416 H 0.30469 0.62178 0.17582 0.0
H1417 H 0.27945 0.66026 0.18795 0.0
H1418 H 0.16056 0.66394 0.18961 0.0
H1419 H 0.12836 0.70752 0.17008 0.0
loop_
_geom_bond_atom_site_label_1
_geom_bond_atom_site_label_2
_geom_bond_distance
_geom_bond_site_symmetry_2
_ccdc_geom_bond_type
H0 C6 0.930 . S
H1 C9 0.931 . S
H2 C11 0.931 . S
H3 C13 0.930 . S
H4 C15 0.931 . S
H5 C17 0.931 . S
C6 H0 0.930 . S
C6 C7 1.380 1_545 S
C6 C8 1.394 . S
C7 C6 1.380 1_565 S
C7 C11 1.382 . S
C8 C6 1.394 . S
C8 C9 1.400 . S
C9 H1 0.931 . S
C9 C8 1.400 . S
C9 C10 1.375 1_645 S
C10 C9 1.375 1_465 S
C10 C11 1.415 1_455 S
C10 C12 1.501 . S
C11 H2 0.931 . S
C11 C7 1.382 . S
C11 C10 1.415 1_655 S
C12 C10 1.501 . S
C12 C13 1.384 . S
C12 C17 1.408 1_565 S
C13 H3 0.930 . S
C13 C12 1.384 . S
C13 C14 1.389 . S
C14 C13 1.389 . S
C14 C15 1.419 . S
C15 H4 0.931 . S
C15 C14 1.419 . S
C15 C16 1.350 1_565 S
C16 C15 1.350 1_545 S
C16 C17 1.400 . S
C17 H5 0.931 . S
C17 C12 1.408 1_545 S
C17 C16 1.400 . S
H18 C24 0.930 . S
H19 C27 0.931 . S
H20 C29 0.931 . S
H21 C31 0.930 . S
H22 C33 0.930 . S
H23 C35 0.931 . S
C24 H18 0.930 . S
C24 C25 1.380 . S
C24 C26 1.394 . S
C25 C24 1.380 . S
C25 C29 1.382 . S
C26 C24 1.394 . S
C26 C27 1.400 . S
C27 H19 0.931 . S
C27 C26 1.400 . S
C27 C28 1.375 . S
C28 C27 1.375 . S
C28 C29 1.415 . S
C28 C30 1.501 . S
C29 H20 0.931 . S
C29 C25 1.382 . S
C29 C28 1.415 . S
C30 C28 1.501 . S
C30 C31 1.384 . S
C30 C35 1.408 . S
C31 H21 0.930 . S
C31 C30 1.384 . S
C31 C32 1.389 . S
C32 C31 1.389 . S
C32 C33 1.405 . S
C33 H22 0.930 . S
C33 C32 1.405 . S
C33 C34 1.364 . S
C34 C33 1.364 . S
C34 C35 1.400 . S
C35 H23 0.931 . S
C35 C30 1.408 . S
C35 C34 1.400 . S
H36 C42 0.929 . S
H37 C45 0.931 . S
H38 C47 0.931 . S
H39 C49 0.930 . S
H40 C51 0.930 . S
H41 C53 0.931 . S
C42 H36 0.929 . S
C42 C43 1.381 1_564 S
C42 C44 1.394 . S
C43 C42 1.381 1_546 S
C43 C47 1.382 . S
C44 C42 1.394 . S
C44 C45 1.400 . S
C45 H37 0.931 . S
C45 C44 1.400 . S
C45 C46 1.375 1_565 S
C46 C45 1.375 1_545 S
C46 C47 1.415 1_554 S
C46 C48 1.501 . S
C47 H38 0.931 . S
C47 C43 1.382 . S
C47 C46 1.415 1_556 S
C48 C46 1.501 . S
C48 C49 1.384 1_554 S
C48 C53 1.408 1_545 S
C49 H39 0.930 . S
C49 C48 1.384 1_556 S
C49 C50 1.389 . S
C50 C49 1.389 . S
C50 C51 1.405 1_556 S
C51 H40 0.930 . S
C51 C50 1.405 1_554 S
C51 C52 1.364 1_545 S
C52 C51 1.364 1_565 S
C52 C53 1.400 . S
C53 H41 0.931 . S
C53 C48 1.408 1_565 S
C53 C52 1.400 . S
H54 C60 0.930 . S
H55 C63 0.931 . S
H56 C65 0.931 . S
H57 C67 0.930 . S
H58 C69 0.930 . S
H59 C71 0.931 . S
C60 H54 0.930 . S
C60 C61 1.380 . S
C60 C62 1.394 . S
C61 C60 1.380 . S
C61 C65 1.382 . S
C62 C60 1.394 . S
C62 C63 1.400 . S
C63 H55 0.931 . S
C63 C62 1.400 . S
C63 C64 1.375 . S
C64 C63 1.375 . S
C64 C65 1.415 . S
C64 C66 1.501 . S
C65 H56 0.931 . S
C65 C61 1.382 . S
C65 C64 1.415 . S
C66 C64 1.501 . S
C66 C67 1.384 . S
C66 C71 1.408 . S
C67 H57 0.930 . S
C67 C66 1.384 . S
C67 C68 1.389 . S
C68 C67 1.389 . S
C68 C69 1.405 . S
C69 H58 0.930 . S
C69 C68 1.405 . S
C69 C70 1.364 . S
C70 C69 1.364 . S
C70 C71 1.400 . S
C71 H59 0.931 . S
C71 C66 1.408 . S
C71 C70 1.400 . S
H72 C78 0.930 . S
H73 C81 0.931 . S
H74 C83 0.931 . S
H75 C85 0.930 . S
H76 C87 0.930 . S
H77 C89 0.931 . S
C78 H72 0.930 . S
C78 C79 1.380 . S
C78 C80 1.394 . S
C79 C78 1.380 . S
C79 C83 1.382 . S
C80 C78 1.394 . S
C80 C81 1.400 . S
C81 H73 0.931 . S
C81 C80 1.400 . S
C81 C82 1.375 . S
C82 C81 1.375 . S
C82 C83 1.415 . S
C82 C84 1.501 . S
C83 H74 0.931 . S
C83 C79 1.382 . S
C83 C82 1.415 . S
C84 C82 1.501 . S
C84 C85 1.384 . S
C84 C89 1.408 . S
C85 H75 0.930 . S
C85 C84 1.384 . S
C85 C86 1.389 . S
C86 C85 1.389 . S
C86 C87 1.405 . S
C87 H76 0.930 . S
C87 C86 1.405 . S
C87 C88 1.364 . S
C88 C87 1.364 . S
C88 C89 1.400 . S
C89 H77 0.931 . S
C89 C84 1.408 . S
C89 C88 1.400 . S
H90 C96 0.930 . S
H91 C99 0.931 . S
H92 C101 0.931 . S
H93 C103 0.930 . S
H94 C105 0.930 . S
H95 C107 0.931 . S
C96 H90 0.930 . S
C96 C97 1.380 . S
C96 C98 1.394 . S
C97 C96 1.380 . S
C97 C101 1.382 . S
C98 C96 1.394 . S
C98 C99 1.400 . S
C99 H91 0.931 . S
C99 C98 1.400 . S
C99 C100 1.375 . S
C100 C99 1.375 . S
C100 C101 1.415 . S
C100 C102 1.501 . S
C101 H92 0.931 . S
C101 C97 1.382 . S
C101 C100 1.415 . S
C102 C100 1.501 . S
C102 C103 1.384 . S
C102 C107 1.408 . S
C103 H93 0.930 . S
C103 C102 1.384 . S
C103 C104 1.389 . S
C104 C103 1.389 . S
C104 C105 1.405 . S
C105 H94 0.930 . S
C105 C104 1.405 . S
C105 C106 1.364 . S
C106 C105 1.364 . S
C106 C107 1.400 . S
C107 H95 0.931 . S
C107 C102 1.408 . S
C107 C106 1.400 . S
H108 C114 0.930 . S
H109 C117 0.931 . S
H110 C119 0.931 . S
H111 C121 0.930 . S
H112 C123 0.930 . S
H113 C125 0.931 . S
C114 H108 0.930 . S
C114 C115 1.380 . S
C114 C116 1.394 1_554 S
C115 C114 1.380 . S
C115 C119 1.382 . S
C116 C114 1.394 1_556 S
C116 C117 1.400 . S
C117 H109 0.931 . S
C117 C116 1.400 . S
C117 C118 1.375 1_556 S
C118 C117 1.375 1_554 S
C118 C119 1.415 . S
C118 C120 1.501 . S
C119 H110 0.931 . S
C119 C115 1.382 . S
C119 C118 1.415 . S
C120 C118 1.501 . S
C120 C121 1.384 . S
C120 C125 1.408 1_554 S
C121 H111 0.930 . S
C121 C120 1.384 . S
C121 C122 1.389 . S
C122 C121 1.389 . S
C122 C123 1.405 . S
C123 H112 0.930 . S
C123 C122 1.405 . S
C123 C124 1.364 1_554 S
C124 C123 1.364 1_556 S
C124 C125 1.400 . S
C125 H113 0.931 . S
C125 C120 1.408 1_556 S
C125 C124 1.400 . S
H126 C132 0.930 . S
H127 C135 0.931 . S
H128 C137 0.931 . S
H129 C139 0.930 . S
H130 C141 0.930 . S
H131 C143 0.931 . S
C132 H126 0.930 . S
C132 C133 1.380 . S
C132 C134 1.394 . S
C133 C132 1.380 . S
C133 C137 1.382 . S
C134 C132 1.394 . S
C134 C135 1.400 . S
C135 H127 0.931 . S
C135 C134 1.400 . S
C135 C136 1.375 . S
C136 C135 1.375 . S
C136 C137 1.415 . S
C136 C138 1.501 . S
C137 H128 0.931 . S
C137 C133 1.382 . S
C137 C136 1.415 . S
C138 C136 1.501 . S
C138 C139 1.384 . S
C138 C143 1.408 . S
C139 H129 0.930 . S
C139 C138 1.384 . S
C139 C140 1.389 . S
C140 C139 1.389 . S
C140 C141 1.405 . S
C141 H130 0.930 . S
C141 C140 1.405 . S
C141 C142 1.364 . S
C142 C141 1.364 . S
C142 C143 1.400 . S
C143 H131 0.931 . S
C143 C138 1.408 . S
C143 C142 1.400 . S
C144 O171 1.312 . S
C144 O172 1.208 . S
C145 O166 1.331 1_655 S
C145 O169 1.244 . S
C146 O168 1.264 1_655 S
C146 O170 1.273 . S
Mg147 O149 1.936 . S
Mg147 O156 2.081 . S
Mg147 O158 2.023 . S
Mg147 O162 2.031 . S
Mg147 O171 2.291 . S
Mg148 O149 1.963 . S
Mg148 O159 1.942 . S
Mg148 O160 1.955 . S
Mg148 O167 1.986 . S
O149 Mg147 1.936 . S
O149 Mg148 1.963 . S
O149 Mg150 1.915 . S
Mg150 O149 1.915 . S
Mg150 O151 1.915 . S
Mg150 O155 2.013 . S
Mg150 O161 2.114 . S
Mg150 O165 2.013 . S
Mg150 O171 2.114 . S
O151 Mg150 1.915 . S
O151 Mg152 1.936 . S
O151 Mg153 1.963 1_455 S
Mg152 O151 1.936 . S
Mg152 O161 2.291 . S
Mg152 O166 2.081 . S
Mg152 O168 2.023 . S
Mg152 O172 2.031 . S
Mg153 O151 1.963 1_655 S
Mg153 O157 1.986 . S
Mg153 O169 1.942 . S
Mg153 O170 1.955 . S
C154 O165 1.191 . S
C154 O167 1.307 . S
O155 Mg150 2.013 . S
O155 C174 1.191 . S
O156 Mg147 2.081 . S
O156 C164 1.331 . S
O157 Mg153 1.986 . S
O157 C174 1.307 1_655 S
O158 Mg147 2.023 . S
O158 C173 1.264 . S
O159 Mg148 1.942 . S
O159 C164 1.244 . S
O160 Mg148 1.955 . S
O160 C173 1.273 . S
O161 Mg150 2.114 . S
O161 Mg152 2.291 . S
O161 C163 1.312 . S
O162 Mg147 2.031 . S
O162 C163 1.208 . S
C163 O161 1.312 . S
C163 O162 1.208 . S
C164 O156 1.331 . S
C164 O159 1.244 . S
O165 Mg150 2.013 . S
O165 C154 1.191 . S
O166 C145 1.331 1_455 S
O166 Mg152 2.081 . S
O167 Mg148 1.986 . S
O167 C154 1.307 . S
O168 C146 1.264 1_455 S
O168 Mg152 2.023 . S
O169 C145 1.244 . S
O169 Mg153 1.942 . S
O170 C146 1.273 . S
O170 Mg153 1.955 . S
O171 C144 1.312 . S
O171 Mg147 2.291 . S
O171 Mg150 2.114 . S
O172 C144 1.208 . S
O172 Mg152 2.031 . S
C173 O158 1.264 . S
C173 O160 1.273 . S
C174 O155 1.191 . S
C174 O157 1.307 1_455 S
C175 O202 1.312 . S
C175 O203 1.208 . S
C176 O197 1.331 . S
C176 O200 1.244 . S
C177 O199 1.264 . S
C177 O201 1.273 . S
Mg178 O180 1.936 . S
Mg178 O187 2.081 . S
Mg178 O189 2.023 . S
Mg178 O193 2.031 . S
Mg178 O202 2.291 . S
Mg179 O180 1.963 . S
Mg179 O190 1.942 . S
Mg179 O191 1.955 . S
Mg179 O198 1.986 . S
O180 Mg178 1.936 . S
O180 Mg179 1.963 . S
O180 Mg181 1.915 . S
Mg181 O180 1.915 . S
Mg181 O182 1.915 . S
Mg181 O186 2.013 . S
Mg181 O192 2.114 . S
Mg181 O196 2.013 . S
Mg181 O202 2.114 . S
O182 Mg181 1.915 . S
O182 Mg183 1.936 . S
O182 Mg184 1.963 . S
Mg183 O182 1.936 . S
Mg183 O192 2.291 . S
Mg183 O197 2.081 . S
Mg183 O199 2.023 . S
Mg183 O203 2.031 . S
Mg184 O182 1.963 . S
Mg184 O188 1.986 . S
Mg184 O200 1.942 . S
Mg184 O201 1.955 . S
C185 O196 1.191 . S
C185 O198 1.307 . S
O186 Mg181 2.013 . S
O186 C205 1.191 . S
O187 Mg178 2.081 . S
O187 C195 1.331 . S
O188 Mg184 1.986 . S
O188 C205 1.307 . S
O189 Mg178 2.023 . S
O189 C204 1.264 . S
O190 Mg179 1.942 . S
O190 C195 1.244 . S
O191 Mg179 1.955 . S
O191 C204 1.273 . S
O192 Mg181 2.114 . S
O192 Mg183 2.291 . S
O192 C194 1.312 . S
O193 Mg178 2.031 . S
O193 C194 1.208 . S
C194 O192 1.312 . S
C194 O193 1.208 . S
C195 O187 1.331 . S
C195 O190 1.244 . S
O196 Mg181 2.013 . S
O196 C185 1.191 . S
O197 C176 1.331 . S
O197 Mg183 2.081 . S
O198 Mg179 1.986 . S
O198 C185 1.307 . S
O199 C177 1.264 . S
O199 Mg183 2.023 . S
O200 C176 1.244 . S
O200 Mg184 1.942 . S
O201 C177 1.273 . S
O201 Mg184 1.955 . S
O202 C175 1.312 . S
O202 Mg178 2.291 . S
O202 Mg181 2.114 . S
O203 C175 1.208 . S
O203 Mg183 2.031 . S
C204 O189 1.264 . S
C204 O191 1.273 . S
C205 O186 1.191 . S
C205 O188 1.307 . S
C206 O233 1.312 . S
C206 O234 1.208 . S
C207 O228 1.331 . S
C207 O231 1.244 . S
C208 O230 1.264 . S
C208 O232 1.273 . S
Mg209 O211 1.936 . S
Mg209 O218 2.081 . S
Mg209 O220 2.023 . S
Mg209 O224 2.031 . S
Mg209 O233 2.291 . S
Mg210 O211 1.963 . S
Mg210 O221 1.942 . S
Mg210 O222 1.955 . S
Mg210 O229 1.986 . S
O211 Mg209 1.936 . S
O211 Mg210 1.963 . S
O211 Mg212 1.915 . S
Mg212 O211 1.915 . S
Mg212 O213 1.915 . S
Mg212 O217 2.013 . S
Mg212 O223 2.114 . S
Mg212 O227 2.013 . S
Mg212 O233 2.114 . S
O213 Mg212 1.915 . S
O213 Mg214 1.936 . S
O213 Mg215 1.963 . S
Mg214 O213 1.936 . S
Mg214 O223 2.291 . S
Mg214 O228 2.081 . S
Mg214 O230 2.023 . S
Mg214 O234 2.031 . S
Mg215 O213 1.963 . S
Mg215 O219 1.986 . S
Mg215 O231 1.942 . S
Mg215 O232 1.955 . S
C216 O227 1.191 . S
C216 O229 1.307 . S
O217 Mg212 2.013 . S
O217 C236 1.191 . S
O218 Mg209 2.081 . S
O218 C226 1.331 . S
O219 Mg215 1.986 . S
O219 C236 1.307 . S
O220 Mg209 2.023 . S
O220 C235 1.264 . S
O221 Mg210 1.942 . S
O221 C226 1.244 . S
O222 Mg210 1.955 . S
O222 C235 1.273 . S
O223 Mg212 2.114 . S
O223 Mg214 2.291 . S
O223 C225 1.312 . S
O224 Mg209 2.031 . S
O224 C225 1.208 . S
C225 O223 1.312 . S
C225 O224 1.208 . S
C226 O218 1.331 . S
C226 O221 1.244 . S
O227 Mg212 2.013 . S
O227 C216 1.191 . S
O228 C207 1.331 . S
O228 Mg214 2.081 . S
O229 Mg210 1.986 . S
O229 C216 1.307 . S
O230 C208 1.264 . S
O230 Mg214 2.023 . S
O231 C207 1.244 . S
O231 Mg215 1.942 . S
O232 C208 1.273 . S
O232 Mg215 1.955 . S
O233 C206 1.312 . S
O233 Mg209 2.291 . S
O233 Mg212 2.114 . S
O234 C206 1.208 . S
O234 Mg214 2.031 . S
C235 O220 1.264 . S
C235 O222 1.273 . S
C236 O217 1.191 . S
C236 O219 1.307 . S
C237 O264 1.312 . S
C237 O265 1.208 . S
C238 O259 1.331 . S
C238 O262 1.244 . S
C239 O261 1.264 . S
C239 O263 1.273 . S
Mg240 O242 1.936 . S
Mg240 O249 2.081 . S
Mg240 O251 2.023 . S
Mg240 O255 2.031 . S
Mg240 O264 2.291 . S
Mg241 O242 1.963 1_655 S
Mg241 O252 1.942 . S
Mg241 O253 1.955 . S
Mg241 O260 1.986 . S
O242 Mg240 1.936 . S
O242 Mg241 1.963 1_455 S
O242 Mg243 1.915 . S
Mg243 O242 1.915 . S
Mg243 O244 1.915 . S
Mg243 O248 2.013 . S
Mg243 O254 2.114 . S
Mg243 O258 2.013 . S
Mg243 O264 2.114 . S
O244 Mg243 1.915 . S
O244 Mg245 1.936 . S
O244 Mg246 1.963 . S
Mg245 O244 1.936 . S
Mg245 O254 2.291 . S
Mg245 O259 2.081 . S
Mg245 O261 2.023 . S
Mg245 O265 2.031 . S
Mg246 O244 1.963 . S
Mg246 O250 1.986 . S
Mg246 O262 1.942 . S
Mg246 O263 1.955 . S
C247 O258 1.191 . S
C247 O260 1.307 1_455 S
O248 Mg243 2.013 . S
O248 C267 1.191 . S
O249 Mg240 2.081 . S
O249 C257 1.331 1_455 S
O250 Mg246 1.986 . S
O250 C267 1.307 . S
O251 Mg240 2.023 . S
O251 C266 1.264 1_455 S
O252 Mg241 1.942 . S
O252 C257 1.244 . S
O253 Mg241 1.955 . S
O253 C266 1.273 . S
O254 Mg243 2.114 . S
O254 Mg245 2.291 . S
O254 C256 1.312 . S
O255 Mg240 2.031 . S
O255 C256 1.208 . S
C256 O254 1.312 . S
C256 O255 1.208 . S
C257 O249 1.331 1_655 S
C257 O252 1.244 . S
O258 Mg243 2.013 . S
O258 C247 1.191 . S
O259 C238 1.331 . S
O259 Mg245 2.081 . S
O260 Mg241 1.986 . S
O260 C247 1.307 1_655 S
O261 C239 1.264 . S
O261 Mg245 2.023 . S
O262 C238 1.244 . S
O262 Mg246 1.942 . S
O263 C239 1.273 . S
O263 Mg246 1.955 . S
O264 C237 1.312 . S
O264 Mg240 2.291 . S
O264 Mg243 2.114 . S
O265 C237 1.208 . S
O265 Mg245 2.031 . S
C266 O251 1.264 1_655 S
C266 O253 1.273 . S
C267 O248 1.191 . S
C267 O250 1.307 . S
H268 C276 0.929 1_545 S
H269 C278 0.930 . S
H270 C280 0.930 . S
H271 C283 0.929 . S
H272 C286 0.930 . S
H273 C288 0.960 . S
H274 C288 0.960 . S
H275 C288 0.960 . S
C276 H268 0.929 1_565 S
C276 C277 1.377 . S
C276 C278 1.384 . S
C277 C276 1.377 . S
C277 C283 1.390 . S
C278 H269 0.930 . S
C278 C276 1.384 . S
C278 C279 1.372 . S
C279 C278 1.372 . S
C279 C280 1.400 . S
C279 C284 1.490 . S
C280 H270 0.930 . S
C280 C279 1.400 . S
C280 C283 1.386 . S
H281 C297 0.930 . S
H282 C298 0.931 . S
C283 H271 0.929 . S
C283 C277 1.390 . S
C283 C280 1.386 . S
C284 C279 1.490 . S
C284 C286 1.395 . S
C284 C287 1.403 . S
H285 C291 0.930 . S
C286 H272 0.930 . S
C286 C284 1.395 . S
C286 C289 1.403 . S
C287 C284 1.403 . S
C287 C288 1.524 . S
C287 C291 1.400 . S
C288 H273 0.960 . S
C288 H274 0.960 . S
C288 H275 0.960 . S
C288 C287 1.524 . S
C289 C286 1.403 . S
C289 C290 1.392 . S
C289 C293 1.495 . S
C290 C289 1.392 . S
C290 C291 1.385 . S
C290 C292 1.478 . S
C291 H285 0.930 . S
C291 C287 1.400 . S
C291 C290 1.385 . S
C292 C290 1.478 . S
C292 C294 1.381 . S
C292 C298 1.383 . S
C293 C289 1.495 . S
C293 H299 0.959 . S
C293 H300 0.961 . S
C293 H301 0.960 . S
C294 C292 1.381 . S
C294 C295 1.394 . S
C294 H302 0.930 . S
C295 C294 1.394 . S
C295 C296 1.383 . S
C295 H303 0.929 . S
C296 C295 1.383 . S
C296 C297 1.377 . S
C297 H281 0.930 . S
C297 C296 1.377 . S
C297 C298 1.379 . S
C298 H282 0.931 . S
C298 C292 1.383 . S
C298 C297 1.379 . S
H299 C293 0.959 . S
H300 C293 0.961 . S
H301 C293 0.960 . S
H302 C294 0.930 . S
H303 C295 0.929 . S
H304 C312 0.929 . S
H305 C314 0.930 . S
H306 C316 0.930 . S
H307 C319 0.929 . S
H308 C322 0.930 . S
H309 C324 0.960 . S
H310 C324 0.960 . S
H311 C324 0.960 . S
C312 H304 0.929 . S
C312 C313 1.377 . S
C312 C314 1.384 . S
C313 C312 1.377 . S
C313 C319 1.390 . S
C314 H305 0.930 . S
C314 C312 1.384 . S
C314 C315 1.372 . S
C315 C314 1.372 . S
C315 C316 1.400 . S
C315 C320 1.490 . S
C316 H306 0.930 . S
C316 C315 1.400 . S
C316 C319 1.386 . S
H317 C333 0.930 . S
H318 C334 0.931 . S
C319 H307 0.929 . S
C319 C313 1.390 . S
C319 C316 1.386 . S
C320 C315 1.490 . S
C320 C322 1.395 . S
C320 C323 1.403 . S
H321 C327 0.930 . S
C322 H308 0.930 . S
C322 C320 1.395 . S
C322 C325 1.403 . S
C323 C320 1.403 . S
C323 C324 1.524 . S
C323 C327 1.400 . S
C324 H309 0.960 . S
C324 H310 0.960 . S
C324 H311 0.960 . S
C324 C323 1.524 . S
C325 C322 1.403 . S
C325 C326 1.389 1_565 S
C325 C329 1.495 1_565 S
C326 C325 1.389 1_545 S
C326 C327 1.382 1_545 S
C326 C328 1.484 . S
C327 H321 0.930 . S
C327 C323 1.400 . S
C327 C326 1.382 1_565 S
C328 C326 1.484 . S
C328 C330 1.381 . S
C328 C334 1.383 . S
C329 C325 1.495 1_545 S
C329 H335 0.959 1_545 S
C329 H336 0.961 . S
C329 H337 0.960 . S
C330 C328 1.381 . S
C330 C331 1.394 . S
C330 H338 0.930 . S
C331 C330 1.394 . S
C331 C332 1.383 . S
C331 H339 0.929 . S
C332 C331 1.383 . S
C332 C333 1.377 . S
C333 H317 0.930 . S
C333 C332 1.377 . S
C333 C334 1.379 . S
C334 H318 0.931 . S
C334 C328 1.383 . S
C334 C333 1.379 . S
H335 C329 0.959 1_565 S
H336 C329 0.961 . S
H337 C329 0.960 . S
H338 C330 0.930 . S
H339 C331 0.929 . S
H340 C348 0.929 . S
H341 C350 0.930 . S
H342 C352 0.930 . S
H343 C355 0.929 1_565 S
H344 C358 0.930 . S
H345 C360 0.960 . S
H346 C360 0.960 . S
H347 C360 0.960 . S
C348 H340 0.929 . S
C348 C349 1.377 . S
C348 C350 1.384 . S
C349 C348 1.377 . S
C349 C355 1.390 . S
C350 H341 0.930 . S
C350 C348 1.384 . S
C350 C351 1.372 . S
C351 C350 1.372 . S
C351 C352 1.400 . S
C351 C356 1.490 . S
C352 H342 0.930 . S
C352 C351 1.400 . S
C352 C355 1.386 . S
H353 C369 0.930 . S
H354 C370 0.931 . S
C355 H343 0.929 1_545 S
C355 C349 1.390 . S
C355 C352 1.386 . S
C356 C351 1.490 . S
C356 C358 1.395 . S
C356 C359 1.403 . S
H357 C363 0.930 . S
C358 H344 0.930 . S
C358 C356 1.395 . S
C358 C361 1.403 . S
C359 C356 1.403 . S
C359 C360 1.524 . S
C359 C363 1.400 . S
C360 H345 0.960 . S
C360 H346 0.960 . S
C360 H347 0.960 . S
C360 C359 1.524 . S
C361 C358 1.403 . S
C361 C362 1.392 . S
C361 C365 1.495 . S
C362 C361 1.392 . S
C362 C363 1.385 . S
C362 C364 1.478 . S
C363 H357 0.930 . S
C363 C359 1.400 . S
C363 C362 1.385 . S
C364 C362 1.478 . S
C364 C366 1.381 . S
C364 C370 1.383 . S
C365 C361 1.495 . S
C365 H371 0.959 . S
C365 H372 0.961 . S
C365 H373 0.960 . S
C366 C364 1.381 . S
C366 C367 1.394 . S
C366 H374 0.930 . S
C367 C366 1.394 . S
C367 C368 1.383 . S
C367 H375 0.929 . S
C368 C367 1.383 . S
C368 C369 1.377 . S
C369 H353 0.930 . S
C369 C368 1.377 . S
C369 C370 1.379 . S
C370 H354 0.931 . S
C370 C364 1.383 . S
C370 C369 1.379 . S
H371 C365 0.959 . S
H372 C365 0.961 . S
H373 C365 0.960 . S
H374 C366 0.930 . S
H375 C367 0.929 . S
H376 C384 0.929 . S
H377 C386 0.930 . S
H378 C388 0.930 . S
H379 C391 0.929 . S
H380 C394 0.930 . S
H381 C396 0.960 1_565 S
H382 C396 0.960 . S
H383 C396 0.960 . S
C384 H376 0.929 . S
C384 C385 1.377 . S
C384 C386 1.384 . S
C385 C384 1.377 . S
C385 C391 1.390 . S
C386 H377 0.930 . S
C386 C384 1.384 . S
C386 C387 1.372 . S
C387 C386 1.372 . S
C387 C388 1.400 . S
C387 C392 1.490 . S
C388 H378 0.930 . S
C388 C387 1.400 . S
C388 C391 1.386 . S
H389 C405 0.930 . S
H390 C406 0.931 . S
C391 H379 0.929 . S
C391 C385 1.390 . S
C391 C388 1.386 . S
C392 C387 1.490 . S
C392 C394 1.395 . S
C392 C395 1.403 . S
H393 C399 0.930 . S
C394 H380 0.930 . S
C394 C392 1.395 . S
C394 C397 1.403 . S
C395 C392 1.403 . S
C395 C396 1.524 . S
C395 C399 1.400 1_545 S
C396 H381 0.960 1_545 S
C396 H382 0.960 . S
C396 H383 0.960 . S
C396 C395 1.524 . S
C397 C394 1.403 . S
C397 C398 1.392 1_545 S
C397 C401 1.495 . S
C398 C397 1.392 1_565 S
C398 C399 1.385 . S
C398 C400 1.478 . S
C399 H393 0.930 . S
C399 C395 1.400 1_565 S
C399 C398 1.385 . S
C400 C398 1.478 . S
C400 C402 1.381 . S
C400 C406 1.383 . S
C401 C397 1.495 . S
C401 H407 0.959 . S
C401 H408 0.961 . S
C401 H409 0.960 . S
C402 C400 1.381 . S
C402 C403 1.394 . S
C402 H410 0.930 . S
C403 C402 1.394 . S
C403 C404 1.383 . S
C403 H411 0.929 . S
C404 C403 1.383 . S
C404 C405 1.377 . S
C405 H389 0.930 . S
C405 C404 1.377 . S
C405 C406 1.379 . S
C406 H390 0.931 . S
C406 C400 1.383 . S
C406 C405 1.379 . S
H407 C401 0.959 . S
H408 C401 0.961 . S
H409 C401 0.960 . S
H410 C402 0.930 . S
H411 C403 0.929 . S
H412 C420 0.941 . S
H413 C422 0.930 . S
H414 C424 0.930 . S
H415 C427 0.929 . S
H416 C430 0.930 . S
H417 C432 0.960 . S
H418 C432 0.960 . S
H419 C432 0.960 . S
C420 H412 0.941 . S
C420 C421 1.377 . S
C420 C422 1.384 . S
C421 C420 1.377 . S
C421 C427 1.390 . S
C422 H413 0.930 . S
C422 C420 1.384 . S
C422 C423 1.372 . S
C423 C422 1.372 . S
C423 C424 1.400 . S
C423 C428 1.490 . S
C424 H414 0.930 . S
C424 C423 1.400 . S
C424 C427 1.386 . S
H425 C441 0.930 . S
H426 C442 0.931 . S
C427 H415 0.929 . S
C427 C421 1.390 . S
C427 C424 1.386 . S
C428 C423 1.490 . S
C428 C430 1.395 . S
C428 C431 1.403 . S
H429 C435 0.930 . S
C430 H416 0.930 . S
C430 C428 1.395 . S
C430 C433 1.403 . S
C431 C428 1.403 . S
C431 C432 1.524 . S
C431 C435 1.400 . S
C432 H417 0.960 . S
C432 H418 0.960 . S
C432 H419 0.960 . S
C432 C431 1.524 . S
C433 C430 1.403 . S
C433 C434 1.392 . S
C433 C437 1.495 . S
C434 C433 1.392 . S
C434 C435 1.385 . S
C434 C436 1.478 . S
C435 H429 0.930 . S
C435 C431 1.400 . S
C435 C434 1.385 . S
C436 C434 1.478 . S
C436 C438 1.381 . S
C436 C442 1.383 . S
C437 C433 1.495 . S
C437 H443 0.959 . S
C437 H444 0.961 . S
C437 H445 0.960 . S
C438 C436 1.381 . S
C438 C439 1.394 . S
C438 H446 0.930 . S
C439 C438 1.394 . S
C439 C440 1.383 . S
C439 H447 0.929 . S
C440 C439 1.383 . S
C440 C441 1.377 . S
C441 H425 0.930 . S
C441 C440 1.377 . S
C441 C442 1.379 . S
C442 H426 0.931 . S
C442 C436 1.383 . S
C442 C441 1.379 . S
H443 C437 0.959 . S
H444 C437 0.961 . S
H445 C437 0.960 . S
H446 C438 0.930 . S
H447 C439 0.929 . S
H448 C456 0.929 . S
H449 C458 0.930 . S
H450 C460 0.930 . S
H451 C463 0.929 . S
H452 C466 0.930 . S
H453 C468 0.960 1_545 S
H454 C468 0.960 . S
H455 C468 0.960 . S
C456 H448 0.929 . S
C456 C457 1.377 . S
C456 C458 1.384 . S
C457 C456 1.377 . S
C457 C463 1.390 . S
C458 H449 0.930 . S
C458 C456 1.384 . S
C458 C459 1.372 . S
C459 C458 1.372 . S
C459 C460 1.400 . S
C459 C464 1.490 . S
C460 H450 0.930 . S
C460 C459 1.400 . S
C460 C463 1.386 . S
H461 C477 0.930 . S
H462 C478 0.931 . S
C463 H451 0.929 . S
C463 C457 1.390 . S
C463 C460 1.386 . S
C464 C459 1.490 . S
C464 C466 1.395 . S
C464 C467 1.403 . S
H465 C471 0.930 . S
C466 H452 0.930 . S
C466 C464 1.395 . S
C466 C469 1.403 . S
C467 C464 1.403 . S
C467 C468 1.524 . S
C467 C471 1.400 1_565 S
C468 H453 0.960 1_565 S
C468 H454 0.960 . S
C468 H455 0.960 . S
C468 C467 1.524 . S
C469 C466 1.403 . S
C469 C470 1.392 1_565 S
C469 C473 1.495 . S
C470 C469 1.392 1_545 S
C470 C471 1.385 . S
C470 C472 1.478 . S
C471 H465 0.930 . S
C471 C467 1.400 1_545 S
C471 C470 1.385 . S
C472 C470 1.478 . S
C472 C474 1.381 . S
C472 C478 1.383 . S
C473 C469 1.495 . S
C473 H479 0.959 . S
C473 H480 0.961 . S
C473 H481 0.960 . S
C474 C472 1.381 . S
C474 C475 1.394 . S
C474 H482 0.930 . S
C475 C474 1.394 . S
C475 C476 1.383 . S
C475 H483 0.929 . S
C476 C475 1.383 . S
C476 C477 1.377 . S
C477 H461 0.930 . S
C477 C476 1.377 . S
C477 C478 1.379 . S
C478 H462 0.931 . S
C478 C472 1.383 . S
C478 C477 1.379 . S
H479 C473 0.959 . S
H480 C473 0.961 . S
H481 C473 0.960 . S
H482 C474 0.930 . S
H483 C475 0.929 . S
H484 C492 0.929 . S
H485 C494 0.930 . S
H486 C496 0.930 . S
H487 C499 0.929 . S
H488 C502 0.930 . S
H489 C504 0.960 . S
H490 C504 0.960 . S
H491 C504 0.960 . S
C492 H484 0.929 . S
C492 C493 1.377 . S
C492 C494 1.384 . S
C493 C492 1.377 . S
C493 C499 1.390 . S
C494 H485 0.930 . S
C494 C492 1.384 . S
C494 C495 1.372 . S
C495 C494 1.372 . S
C495 C496 1.400 . S
C495 C500 1.490 . S
C496 H486 0.930 . S
C496 C495 1.400 . S
C496 C499 1.386 . S
H497 C513 0.930 . S
H498 C514 0.931 . S
C499 H487 0.929 . S
C499 C493 1.390 . S
C499 C496 1.386 . S
C500 C495 1.490 . S
C500 C502 1.395 . S
C500 C503 1.403 . S
H501 C507 0.930 . S
C502 H488 0.930 . S
C502 C500 1.395 . S
C502 C505 1.403 . S
C503 C500 1.403 . S
C503 C504 1.524 . S
C503 C507 1.400 . S
C504 H489 0.960 . S
C504 H490 0.960 . S
C504 H491 0.960 . S
C504 C503 1.524 . S
C505 C502 1.403 . S
C505 C506 1.392 . S
C505 C509 1.495 . S
C506 C505 1.392 . S
C506 C507 1.385 . S
C506 C508 1.478 . S
C507 H501 0.930 . S
C507 C503 1.400 . S
C507 C506 1.385 . S
C508 C506 1.478 . S
C508 C510 1.381 . S
C508 C514 1.383 . S
C509 C505 1.495 . S
C509 H515 0.959 . S
C509 H516 0.961 . S
C509 H517 0.960 . S
C510 C508 1.381 . S
C510 C511 1.394 . S
C510 H518 0.930 . S
C511 C510 1.394 . S
C511 C512 1.383 . S
C511 H519 0.929 . S
C512 C511 1.383 . S
C512 C513 1.377 . S
C513 H497 0.930 . S
C513 C512 1.377 . S
C513 C514 1.379 . S
C514 H498 0.931 . S
C514 C508 1.383 . S
C514 C513 1.379 . S
H515 C509 0.959 . S
H516 C509 0.961 . S
H517 C509 0.960 . S
H518 C510 0.930 . S
H519 C511 0.929 . S
H520 C528 0.929 . S
H521 C530 0.930 . S
H522 C532 0.930 . S
H523 C535 0.929 . S
H524 C538 0.930 . S
H525 C540 0.960 1_565 S
H526 C540 0.960 . S
H527 C540 0.960 . S
C528 H520 0.929 . S
C528 C529 1.377 . S
C528 C530 1.384 . S
C529 C528 1.377 . S
C529 C535 1.390 . S
C530 H521 0.930 . S
C530 C528 1.384 . S
C530 C531 1.372 . S
C531 C530 1.372 . S
C531 C532 1.400 . S
C531 C536 1.490 . S
C532 H522 0.930 . S
C532 C531 1.400 . S
C532 C535 1.386 . S
H533 C549 0.930 . S
H534 C550 0.931 . S
C535 H523 0.929 . S
C535 C529 1.390 . S
C535 C532 1.386 . S
C536 C531 1.490 . S
C536 C538 1.395 . S
C536 C539 1.403 . S
H537 C543 0.928 . S
C538 H524 0.930 . S
C538 C536 1.395 . S
C538 C541 1.403 . S
C539 C536 1.403 . S
C539 C540 1.524 . S
C539 C543 1.402 1_545 S
C540 H525 0.960 1_545 S
C540 H526 0.960 . S
C540 H527 0.960 . S
C540 C539 1.524 . S
C541 C538 1.403 . S
C541 C542 1.392 . S
C541 C545 1.495 . S
C542 C541 1.392 . S
C542 C543 1.385 1_545 S
C542 C544 1.478 1_545 S
C543 H537 0.928 . S
C543 C539 1.402 1_565 S
C543 C542 1.385 1_565 S
C544 C542 1.478 1_565 S
C544 C546 1.381 . S
C544 C550 1.383 . S
C545 C541 1.495 . S
C545 H551 0.959 . S
C545 H552 0.961 . S
C545 H553 0.960 . S
C546 C544 1.381 . S
C546 C547 1.394 . S
C546 H554 0.930 . S
C547 C546 1.394 . S
C547 C548 1.383 . S
C547 H555 0.929 . S
C548 C547 1.383 . S
C548 C549 1.377 . S
C549 H533 0.930 . S
C549 C548 1.377 . S
C549 C550 1.379 . S
C550 H534 0.931 . S
C550 C544 1.383 . S
C550 C549 1.379 . S
H551 C545 0.959 . S
H552 C545 0.961 . S
H553 C545 0.960 . S
H554 C546 0.930 . S
H555 C547 0.929 . S
H556 C564 0.929 . S
H557 C566 0.930 . S
H558 C568 0.930 . S
H559 C571 0.929 1_565 S
H560 C574 0.930 . S
H561 C576 0.960 . S
H562 C576 0.960 . S
H563 C576 0.960 . S
C564 H556 0.929 . S
C564 C565 1.377 . S
C564 C566 1.384 . S
C565 C564 1.377 . S
C565 C571 1.390 . S
C566 H557 0.930 . S
C566 C564 1.384 . S
C566 C567 1.372 . S
C567 C566 1.372 . S
C567 C568 1.400 . S
C567 C572 1.490 . S
C568 H558 0.930 . S
C568 C567 1.400 . S
C568 C571 1.386 . S
H569 C585 0.930 . S
H570 C586 0.931 . S
C571 H559 0.929 1_545 S
C571 C565 1.390 . S
C571 C568 1.386 . S
C572 C567 1.490 . S
C572 C574 1.395 . S
C572 C575 1.403 . S
H573 C579 0.930 . S
C574 H560 0.930 . S
C574 C572 1.395 . S
C574 C577 1.403 . S
C575 C572 1.403 . S
C575 C576 1.524 . S
C575 C579 1.400 . S
C576 H561 0.960 . S
C576 H562 0.960 . S
C576 H563 0.960 . S
C576 C575 1.524 . S
C577 C574 1.403 . S
C577 C578 1.392 . S
C577 C581 1.495 . S
C578 C577 1.392 . S
C578 C579 1.385 . S
C578 C580 1.478 . S
C579 H573 0.930 . S
C579 C575 1.400 . S
C579 C578 1.385 . S
C580 C578 1.478 . S
C580 C582 1.381 . S
C580 C586 1.383 . S
C581 C577 1.495 . S
C581 H587 0.959 . S
C581 H588 0.961 . S
C581 H589 0.960 . S
C582 C580 1.381 . S
C582 C583 1.394 . S
C582 H590 0.930 . S
C583 C582 1.394 . S
C583 C584 1.383 . S
C583 H591 0.929 . S
C584 C583 1.383 . S
C584 C585 1.377 . S
C585 H569 0.930 . S
C585 C584 1.377 . S
C585 C586 1.379 . S
C586 H570 0.931 . S
C586 C580 1.383 . S
C586 C585 1.379 . S
H587 C581 0.959 . S
H588 C581 0.961 . S
H589 C581 0.960 . S
H590 C582 0.930 . S
H591 C583 0.929 . S
H592 C600 0.929 . S
H593 C602 0.930 1_565 S
H594 C604 0.930 . S
H595 C607 0.929 . S
H596 C610 0.930 . S
H597 C612 0.960 . S
H598 C612 0.960 . S
H599 C612 0.960 . S
C600 H592 0.929 . S
C600 C601 1.377 . S
C600 C602 1.384 . S
C601 C600 1.377 . S
C601 C607 1.390 . S
C602 H593 0.930 1_545 S
C602 C600 1.384 . S
C602 C603 1.372 . S
C603 C602 1.372 . S
C603 C604 1.400 . S
C603 C608 1.490 1_545 S
C604 H594 0.930 . S
C604 C603 1.400 . S
C604 C607 1.386 . S
H605 C621 0.930 . S
H606 C622 0.931 . S
C607 H595 0.929 . S
C607 C601 1.390 . S
C607 C604 1.386 . S
C608 C603 1.490 1_565 S
C608 C610 1.395 . S
C608 C611 1.403 . S
H609 C615 0.930 . S
C610 H596 0.930 . S
C610 C608 1.395 . S
C610 C613 1.403 . S
C611 C608 1.403 . S
C611 C612 1.524 1_565 S
C611 C615 1.400 . S
C612 H597 0.960 . S
C612 H598 0.960 . S
C612 H599 0.960 . S
C612 C611 1.524 1_545 S
C613 C610 1.403 . S
C613 C614 1.392 . S
C613 C617 1.495 . S
C614 C613 1.392 . S
C614 C615 1.385 . S
C614 C616 1.478 . S
C615 H609 0.930 . S
C615 C611 1.400 . S
C615 C614 1.385 . S
C616 C614 1.478 . S
C616 C618 1.381 . S
C616 C622 1.383 . S
C617 C613 1.495 . S
C617 H623 0.959 . S
C617 H624 0.961 . S
C617 H625 0.960 . S
C618 C616 1.381 . S
C618 C619 1.394 . S
C618 H626 0.930 . S
C619 C618 1.394 . S
C619 C620 1.383 . S
C619 H627 0.929 . S
C620 C619 1.383 . S
C620 C621 1.377 . S
C621 H605 0.930 . S
C621 C620 1.377 . S
C621 C622 1.379 . S
C622 H606 0.931 . S
C622 C616 1.383 . S
C622 C621 1.379 . S
H623 C617 0.959 . S
H624 C617 0.961 . S
H625 C617 0.960 . S
H626 C618 0.930 . S
H627 C619 0.929 . S
H628 C636 0.929 1_545 S
H629 C638 0.930 . S
H630 C640 0.930 . S
H631 C643 0.929 . S
H632 C646 0.930 . S
H633 C648 0.960 . S
H634 C648 0.960 . S
H635 C648 0.960 . S
C636 H628 0.929 1_565 S
C636 C637 1.377 . S
C636 C638 1.384 . S
C637 C636 1.377 . S
C637 C643 1.390 . S
C638 H629 0.930 . S
C638 C636 1.384 . S
C638 C639 1.372 . S
C639 C638 1.372 . S
C639 C640 1.400 . S
C639 C644 1.490 . S
C640 H630 0.930 . S
C640 C639 1.400 . S
C640 C643 1.386 . S
H641 C657 0.930 . S
H642 C658 0.931 . S
C643 H631 0.929 . S
C643 C637 1.390 . S
C643 C640 1.386 . S
C644 C639 1.490 . S
C644 C646 1.395 . S
C644 C647 1.403 . S
H645 C651 0.930 . S
C646 H632 0.930 . S
C646 C644 1.395 . S
C646 C649 1.403 . S
C647 C644 1.403 . S
C647 C648 1.524 . S
C647 C651 1.400 . S
C648 H633 0.960 . S
C648 H634 0.960 . S
C648 H635 0.960 . S
C648 C647 1.524 . S
C649 C646 1.403 . S
C649 C650 1.392 . S
C649 C653 1.495 . S
C650 C649 1.392 . S
C650 C651 1.385 . S
C650 C652 1.478 . S
C651 H645 0.930 . S
C651 C647 1.400 . S
C651 C650 1.385 . S
C652 C650 1.478 . S
C652 C654 1.381 . S
C652 C658 1.383 . S
C653 C649 1.495 . S
C653 H659 0.959 . S
C653 H660 0.961 . S
C653 H661 0.960 . S
C654 C652 1.381 . S
C654 C655 1.394 1_655 S
C654 H662 0.930 . S
C655 C654 1.394 1_455 S
C655 C656 1.383 . S
C655 H663 0.929 . S
C656 C655 1.383 . S
C656 C657 1.377 1_455 S
C657 H641 0.930 . S
C657 C656 1.377 1_655 S
C657 C658 1.379 . S
C658 H642 0.931 . S
C658 C652 1.383 . S
C658 C657 1.379 . S
H659 C653 0.959 . S
H660 C653 0.961 . S
H661 C653 0.960 . S
H662 C654 0.930 . S
H663 C655 0.929 . S
H664 C672 0.929 . S
H665 C674 0.930 1_545 S
H666 C676 0.930 . S
H667 C679 0.929 . S
H668 C682 0.930 . S
H669 C684 0.960 1_455 S
H670 C684 0.960 . S
H671 C684 0.960 . S
C672 H664 0.929 . S
C672 C673 1.377 . S
C672 C674 1.384 . S
C673 C672 1.377 . S
C673 C679 1.390 . S
C674 H665 0.930 1_565 S
C674 C672 1.384 . S
C674 C675 1.372 . S
C675 C674 1.372 . S
C675 C676 1.400 . S
C675 C680 1.490 1_565 S
C676 H666 0.930 . S
C676 C675 1.400 . S
C676 C679 1.386 . S
H677 C693 0.930 . S
H678 C694 0.931 . S
C679 H667 0.929 . S
C679 C673 1.390 . S
C679 C676 1.386 . S
C680 C675 1.490 1_545 S
C680 C682 1.395 . S
C680 C683 1.403 . S
H681 C687 0.930 . S
C682 H668 0.930 . S
C682 C680 1.395 . S
C682 C685 1.403 . S
C683 C680 1.403 . S
C683 C684 1.524 1_545 S
C683 C687 1.400 . S
C684 H669 0.960 1_655 S
C684 H670 0.960 . S
C684 H671 0.960 . S
C684 C683 1.524 1_565 S
C685 C682 1.403 . S
C685 C686 1.392 . S
C685 C689 1.495 . S
C686 C685 1.392 . S
C686 C687 1.385 . S
C686 C688 1.478 . S
C687 H681 0.930 . S
C687 C683 1.400 . S
C687 C686 1.385 . S
C688 C686 1.478 . S
C688 C690 1.381 . S
C688 C694 1.383 . S
C689 C685 1.495 . S
C689 H695 0.959 . S
C689 H696 0.961 . S
C689 H697 0.960 . S
C690 C688 1.381 . S
C690 C691 1.394 1_655 S
C690 H698 0.930 . S
C691 C690 1.394 1_455 S
C691 C692 1.383 . S
C691 H699 0.929 . S
C692 C691 1.383 . S
C692 C693 1.377 1_455 S
C693 H677 0.930 . S
C693 C692 1.377 1_655 S
C693 C694 1.379 . S
C694 H678 0.931 . S
C694 C688 1.383 . S
C694 C693 1.379 . S
H695 C689 0.959 . S
H696 C689 0.961 . S
H697 C689 0.960 . S
H698 C690 0.930 . S
H699 C691 0.929 . S
H700 C708 0.929 . S
H701 C710 0.930 . S
H702 C712 0.930 . S
H703 C715 0.929 . S
H704 C718 0.930 . S
H705 C720 0.960 . S
H706 C720 0.960 . S
H707 C720 0.960 . S
C708 H700 0.929 . S
C708 C709 1.377 . S
C708 C710 1.384 . S
C709 C708 1.377 . S
C709 C715 1.390 . S
C710 H701 0.930 . S
C710 C708 1.384 . S
C710 C711 1.372 . S
C711 C710 1.372 . S
C711 C712 1.400 . S
C711 C716 1.490 . S
C712 H702 0.930 . S
C712 C711 1.400 . S
C712 C715 1.386 . S
H713 C729 0.930 . S
H714 C730 0.931 . S
C715 H703 0.929 . S
C715 C709 1.390 . S
C715 C712 1.386 . S
C716 C711 1.490 . S
C716 C718 1.395 . S
C716 C719 1.403 . S
H717 C723 0.930 . S
C718 H704 0.930 . S
C718 C716 1.395 . S
C718 C721 1.403 . S
C719 C716 1.403 . S
C719 C720 1.524 . S
C719 C723 1.400 . S
C720 H705 0.960 . S
C720 H706 0.960 . S
C720 H707 0.960 . S
C720 C719 1.524 . S
C721 C718 1.403 . S
C721 C722 1.392 . S
C721 C725 1.495 . S
C722 C721 1.392 . S
C722 C723 1.385 . S
C722 C724 1.478 . S
C723 H717 0.930 . S
C723 C719 1.400 . S
C723 C722 1.385 . S
C724 C722 1.478 . S
C724 C726 1.381 . S
C724 C730 1.383 . S
C725 C721 1.495 . S
C725 H731 0.959 . S
C725 H732 0.961 . S
C725 H733 0.960 . S
C726 C724 1.381 . S
C726 C727 1.394 . S
C726 H734 0.930 . S
C727 C726 1.394 . S
C727 C728 1.383 . S
C727 H735 0.929 . S
C728 C727 1.383 . S
C728 C729 1.377 . S
C729 H713 0.930 . S
C729 C728 1.377 . S
C729 C730 1.379 . S
C730 H714 0.931 . S
C730 C724 1.383 . S
C730 C729 1.379 . S
H731 C725 0.959 . S
H732 C725 0.961 . S
H733 C725 0.960 . S
H734 C726 0.930 . S
H735 C727 0.929 . S
H736 C744 0.929 . S
H737 C746 0.930 1_565 S
H738 C748 0.930 . S
H739 C751 0.929 . S
H740 C754 0.930 . S
H741 C756 0.960 1_455 S
H742 C756 0.960 . S
H743 C756 0.960 . S
C744 H736 0.929 . S
C744 C745 1.377 . S
C744 C746 1.384 . S
C745 C744 1.377 . S
C745 C751 1.390 . S
C746 H737 0.930 1_545 S
C746 C744 1.384 . S
C746 C747 1.372 . S
C747 C746 1.372 . S
C747 C748 1.400 . S
C747 C752 1.490 1_545 S
C748 H738 0.930 . S
C748 C747 1.400 . S
C748 C751 1.386 . S
H749 C765 0.930 . S
H750 C766 0.931 . S
C751 H739 0.929 . S
C751 C745 1.390 . S
C751 C748 1.386 . S
C752 C747 1.490 1_565 S
C752 C754 1.395 . S
C752 C755 1.403 . S
H753 C759 0.930 . S
C754 H740 0.930 . S
C754 C752 1.395 . S
C754 C757 1.403 . S
C755 C752 1.403 . S
C755 C756 1.524 1_565 S
C755 C759 1.400 . S
C756 H741 0.960 1_655 S
C756 H742 0.960 . S
C756 H743 0.960 . S
C756 C755 1.524 1_545 S
C757 C754 1.403 . S
C757 C758 1.392 . S
C757 C761 1.495 . S
C758 C757 1.392 . S
C758 C759 1.385 . S
C758 C760 1.478 . S
C759 H753 0.930 . S
C759 C755 1.400 . S
C759 C758 1.385 . S
C760 C758 1.478 . S
C760 C762 1.381 . S
C760 C766 1.383 . S
C761 C757 1.495 . S
C761 H767 0.959 . S
C761 H768 0.961 . S
C761 H769 0.960 . S
C762 C760 1.381 . S
C762 C763 1.394 1_655 S
C762 H770 0.930 . S
C763 C762 1.394 1_455 S
C763 C764 1.383 . S
C763 H771 0.929 . S
C764 C763 1.383 . S
C764 C765 1.377 1_455 S
C765 H749 0.930 . S
C765 C764 1.377 1_655 S
C765 C766 1.379 . S
C766 H750 0.931 . S
C766 C760 1.383 . S
C766 C765 1.379 . S
H767 C761 0.959 . S
H768 C761 0.961 . S
H769 C761 0.960 . S
H770 C762 0.930 . S
H771 C763 0.929 . S
H772 C780 0.929 . S
H773 C782 0.930 . S
H774 C784 0.930 . S
H775 C787 0.929 1_565 S
H776 C790 0.930 . S
H777 C792 0.960 . S
H778 C792 0.960 . S
H779 C792 0.960 . S
C780 H772 0.929 . S
C780 C781 1.377 . S
C780 C782 1.384 . S
C781 C780 1.377 . S
C781 C787 1.390 . S
C782 H773 0.930 . S
C782 C780 1.384 . S
C782 C783 1.372 . S
C783 C782 1.372 . S
C783 C784 1.400 . S
C783 C788 1.490 . S
C784 H774 0.930 . S
C784 C783 1.400 . S
C784 C787 1.386 . S
H785 C801 0.930 . S
H786 C802 0.931 . S
C787 H775 0.929 1_545 S
C787 C781 1.390 . S
C787 C784 1.386 . S
C788 C783 1.490 . S
C788 C790 1.395 . S
C788 C791 1.403 . S
H789 C795 0.930 . S
C790 H776 0.930 . S
C790 C788 1.395 . S
C790 C793 1.403 . S
C791 C788 1.403 . S
C791 C792 1.524 . S
C791 C795 1.400 . S
C792 H777 0.960 . S
C792 H778 0.960 . S
C792 H779 0.960 . S
C792 C791 1.524 . S
C793 C790 1.403 . S
C793 C794 1.392 . S
C793 C797 1.495 . S
C794 C793 1.392 . S
C794 C795 1.385 . S
C794 C796 1.478 . S
C795 H789 0.930 . S
C795 C791 1.400 . S
C795 C794 1.385 . S
C796 C794 1.478 . S
C796 C798 1.381 . S
C796 C802 1.383 . S
C797 C793 1.495 . S
C797 H803 0.959 . S
C797 H804 0.961 . S
C797 H805 0.960 . S
C798 C796 1.381 . S
C798 C799 1.394 . S
C798 H806 0.930 . S
C799 C798 1.394 . S
C799 C800 1.383 1_655 S
C799 H807 0.929 . S
C800 C799 1.383 1_455 S
C800 C801 1.377 . S
C801 H785 0.930 . S
C801 C800 1.377 . S
C801 C802 1.379 1_455 S
C802 H786 0.931 . S
C802 C796 1.383 . S
C802 C801 1.379 1_655 S
H803 C797 0.959 . S
H804 C797 0.961 . S
H805 C797 0.960 . S
H806 C798 0.930 . S
H807 C799 0.929 . S
H808 C816 0.929 . S
H809 C818 0.930 . S
H810 C820 0.930 1_545 S
H811 C823 0.929 . S
H812 C826 0.930 1_565 S
H813 C828 0.960 . S
H814 C828 0.960 . S
H815 C828 0.960 . S
C816 H808 0.929 . S
C816 C817 1.377 . S
C816 C818 1.384 . S
C817 C816 1.377 . S
C817 C823 1.390 . S
C818 H809 0.930 . S
C818 C816 1.384 . S
C818 C819 1.372 . S
C819 C818 1.372 . S
C819 C820 1.400 . S
C819 C824 1.490 1_565 S
C820 H810 0.930 1_565 S
C820 C819 1.400 . S
C820 C823 1.386 . S
H821 C837 0.930 . S
H822 C838 0.931 . S
C823 H811 0.929 . S
C823 C817 1.390 . S
C823 C820 1.386 . S
C824 C819 1.490 1_545 S
C824 C826 1.395 . S
C824 C827 1.403 . S
H825 C831 0.930 . S
C826 H812 0.930 1_545 S
C826 C824 1.395 . S
C826 C829 1.403 . S
C827 C824 1.403 . S
C827 C828 1.524 . S
C827 C831 1.400 . S
C828 H813 0.960 . S
C828 H814 0.960 . S
C828 H815 0.960 . S
C828 C827 1.524 . S
C829 C826 1.403 . S
C829 C830 1.392 . S
C829 C833 1.495 . S
C830 C829 1.392 . S
C830 C831 1.385 . S
C830 C832 1.478 . S
C831 H825 0.930 . S
C831 C827 1.400 . S
C831 C830 1.385 . S
C832 C830 1.478 . S
C832 C834 1.381 . S
C832 C838 1.383 . S
C833 C829 1.495 . S
C833 H839 0.959 . S
C833 H840 0.961 . S
C833 H841 0.960 . S
C834 C832 1.381 . S
C834 C835 1.394 . S
C834 H842 0.930 . S
C835 C834 1.394 . S
C835 C836 1.383 . S
C835 H843 0.929 . S
C836 C835 1.383 . S
C836 C837 1.377 . S
C837 H821 0.930 . S
C837 C836 1.377 . S
C837 C838 1.379 . S
C838 H822 0.931 . S
C838 C832 1.383 . S
C838 C837 1.379 . S
H839 C833 0.959 . S
H840 C833 0.961 . S
H841 C833 0.960 . S
H842 C834 0.930 . S
H843 C835 0.929 . S
H844 C852 0.929 . S
H845 C854 0.930 . S
H846 C856 0.930 . S
H847 C859 0.929 . S
H848 C862 0.930 . S
H849 C864 0.960 . S
H850 C864 0.960 . S
H851 C864 0.960 . S
C852 H844 0.929 . S
C852 C853 1.377 . S
C852 C854 1.384 . S
C853 C852 1.377 . S
C853 C859 1.390 . S
C854 H845 0.930 . S
C854 C852 1.384 . S
C854 C855 1.372 . S
C855 C854 1.372 . S
C855 C856 1.400 . S
C855 C860 1.490 . S
C856 H846 0.930 . S
C856 C855 1.400 . S
C856 C859 1.386 . S
H857 C873 0.930 . S
H858 C874 0.931 . S
C859 H847 0.929 . S
C859 C853 1.390 . S
C859 C856 1.386 . S
C860 C855 1.490 . S
C860 C862 1.395 . S
C860 C863 1.403 . S
H861 C867 0.930 . S
C862 H848 0.930 . S
C862 C860 1.395 . S
C862 C865 1.403 . S
C863 C860 1.403 . S
C863 C864 1.524 . S
C863 C867 1.400 . S
C864 H849 0.960 . S
C864 H850 0.960 . S
C864 H851 0.960 . S
C864 C863 1.524 . S
C865 C862 1.403 . S
C865 C866 1.392 . S
C865 C869 1.495 . S
C866 C865 1.392 . S
C866 C867 1.385 . S
C866 C868 1.478 . S
C867 H861 0.930 . S
C867 C863 1.400 . S
C867 C866 1.385 . S
C868 C866 1.478 . S
C868 C870 1.381 . S
C868 C874 1.383 . S
C869 C865 1.495 . S
C869 H875 0.959 . S
C869 H876 0.961 . S
C869 H877 0.960 . S
C870 C868 1.381 . S
C870 C871 1.394 . S
C870 H878 0.930 . S
C871 C870 1.394 . S
C871 C872 1.383 . S
C871 H879 0.929 . S
C872 C871 1.383 . S
C872 C873 1.377 . S
C873 H857 0.930 . S
C873 C872 1.377 . S
C873 C874 1.379 . S
C874 H858 0.931 . S
C874 C868 1.383 . S
C874 C873 1.379 . S
H875 C869 0.959 . S
H876 C869 0.961 . S
H877 C869 0.960 . S
H878 C870 0.930 . S
H879 C871 0.929 . S
H880 C888 0.929 . S
H881 C890 0.930 . S
H882 C892 0.930 . S
H883 C895 0.929 . S
H884 C898 0.930 . S
H885 C900 0.960 1_455 S
H886 C900 0.960 . S
H887 C900 0.960 . S
C888 H880 0.929 . S
C888 C889 1.377 . S
C888 C890 1.384 . S
C889 C888 1.377 . S
C889 C895 1.390 . S
C890 H881 0.930 . S
C890 C888 1.384 . S
C890 C891 1.372 . S
C891 C890 1.372 . S
C891 C892 1.400 . S
C891 C896 1.490 . S
C892 H882 0.930 . S
C892 C891 1.400 . S
C892 C895 1.386 . S
H893 C909 0.930 1_455 S
H894 C910 0.931 . S
C895 H883 0.929 . S
C895 C889 1.390 . S
C895 C892 1.386 . S
C896 C891 1.490 . S
C896 C898 1.395 . S
C896 C899 1.403 . S
H897 C903 0.930 . S
C898 H884 0.930 . S
C898 C896 1.395 . S
C898 C901 1.403 . S
C899 C896 1.403 . S
C899 C900 1.524 . S
C899 C903 1.400 . S
C900 H885 0.960 1_655 S
C900 H886 0.960 . S
C900 H887 0.960 . S
C900 C899 1.524 . S
C901 C898 1.403 . S
C901 C902 1.392 . S
C901 C905 1.495 . S
C902 C901 1.392 . S
C902 C903 1.385 . S
C902 C904 1.478 . S
C903 H897 0.930 . S
C903 C899 1.400 . S
C903 C902 1.385 . S
C904 C902 1.478 . S
C904 C906 1.381 . S
C904 C910 1.383 . S
C905 C901 1.495 . S
C905 H911 0.959 . S
C905 H912 0.961 . S
C905 H913 0.960 . S
C906 C904 1.381 . S
C906 C907 1.394 . S
C906 H914 0.930 . S
C907 C906 1.394 . S
C907 C908 1.383 . S
C907 H915 0.929 . S
C908 C907 1.383 . S
C908 C909 1.377 . S
C909 H893 0.930 1_655 S
C909 C908 1.377 . S
C909 C910 1.379 . S
C910 H894 0.931 . S
C910 C904 1.383 . S
C910 C909 1.379 . S
H911 C905 0.959 . S
H912 C905 0.961 . S
H913 C905 0.960 . S
H914 C906 0.930 . S
H915 C907 0.929 . S
H916 C924 0.929 . S
H917 C926 0.930 . S
H918 C928 0.930 . S
H919 C931 0.929 . S
H920 C934 0.930 . S
H921 C936 0.960 . S
H922 C936 0.960 . S
H923 C936 0.960 . S
C924 H916 0.929 . S
C924 C925 1.377 1_655 S
C924 C926 1.384 . S
C925 C924 1.377 1_455 S
C925 C931 1.390 . S
C926 H917 0.930 . S
C926 C924 1.384 . S
C926 C927 1.372 . S
C927 C926 1.372 . S
C927 C928 1.400 . S
C927 C932 1.490 . S
C928 H918 0.930 . S
C928 C927 1.400 . S
C928 C931 1.386 1_655 S
H929 C945 0.930 . S
H930 C946 0.931 . S
C931 H919 0.929 . S
C931 C925 1.390 . S
C931 C928 1.386 1_455 S
C932 C927 1.490 . S
C932 C934 1.395 . S
C932 C935 1.403 . S
H933 C939 0.930 . S
C934 H920 0.930 . S
C934 C932 1.395 . S
C934 C937 1.403 . S
C935 C932 1.403 . S
C935 C936 1.524 . S
C935 C939 1.400 . S
C936 H921 0.960 . S
C936 H922 0.960 . S
C936 H923 0.960 . S
C936 C935 1.524 . S
C937 C934 1.403 . S
C937 C938 1.392 . S
C937 C941 1.495 . S
C938 C937 1.392 . S
C938 C939 1.385 . S
C938 C940 1.478 . S
C939 H933 0.930 . S
C939 C935 1.400 . S
C939 C938 1.385 . S
C940 C938 1.478 . S
C940 C942 1.381 . S
C940 C946 1.383 . S
C941 C937 1.495 . S
C941 H947 0.959 . S
C941 H948 0.961 . S
C941 H949 0.960 . S
C942 C940 1.381 . S
C942 C943 1.394 . S
C942 H950 0.930 . S
C943 C942 1.394 . S
C943 C944 1.383 . S
C943 H951 0.929 . S
C944 C943 1.383 . S
C944 C945 1.377 . S
C945 H929 0.930 . S
C945 C944 1.377 . S
C945 C946 1.379 . S
C946 H930 0.931 . S
C946 C940 1.383 . S
C946 C945 1.379 . S
H947 C941 0.959 . S
H948 C941 0.961 . S
H949 C941 0.960 . S
H950 C942 0.930 . S
H951 C943 0.929 . S
H952 C960 0.929 . S
H953 C962 0.930 . S
H954 C964 0.930 . S
H955 C967 0.929 . S
H956 C970 0.930 . S
H957 C972 0.960 . S
H958 C972 0.960 . S
H959 C972 0.960 . S
C960 H952 0.929 . S
C960 C961 1.377 . S
C960 C962 1.384 . S
C961 C960 1.377 . S
C961 C967 1.390 . S
C962 H953 0.930 . S
C962 C960 1.384 . S
C962 C963 1.372 . S
C963 C962 1.372 . S
C963 C964 1.400 . S
C963 C968 1.490 . S
C964 H954 0.930 . S
C964 C963 1.400 . S
C964 C967 1.386 . S
H965 C981 0.930 . S
H966 C982 0.931 . S
C967 H955 0.929 . S
C967 C961 1.390 . S
C967 C964 1.386 . S
C968 C963 1.490 . S
C968 C970 1.395 . S
C968 C971 1.403 . S
H969 C975 0.930 . S
C970 H956 0.930 . S
C970 C968 1.395 . S
C970 C973 1.403 . S
C971 C968 1.403 . S
C971 C972 1.524 . S
C971 C975 1.400 . S
C972 H957 0.960 . S
C972 H958 0.960 . S
C972 H959 0.960 . S
C972 C971 1.524 . S
C973 C970 1.403 . S
C973 C974 1.392 . S
C973 C977 1.495 . S
C974 C973 1.392 . S
C974 C975 1.385 . S
C974 C976 1.478 . S
C975 H969 0.930 . S
C975 C971 1.400 . S
C975 C974 1.385 . S
C976 C974 1.478 . S
C976 C978 1.381 . S
C976 C982 1.383 . S
C977 C973 1.495 . S
C977 H983 0.959 . S
C977 H984 0.961 . S
C977 H985 0.960 . S
C978 C976 1.381 . S
C978 C979 1.394 . S
C978 H986 0.930 . S
C979 C978 1.394 . S
C979 C980 1.383 . S
C979 H987 0.929 . S
C980 C979 1.383 . S
C980 C981 1.377 . S
C981 H965 0.930 . S
C981 C980 1.377 . S
C981 C982 1.379 . S
C982 H966 0.931 . S
C982 C976 1.383 . S
C982 C981 1.379 . S
H983 C977 0.959 . S
H984 C977 0.961 . S
H985 C977 0.960 . S
H986 C978 0.930 . S
H987 C979 0.929 . S
H988 C996 0.929 . S
H989 C998 0.930 . S
H990 C1000 0.930 . S
H991 C1003 0.929 . S
H992 C1006 0.930 . S
H993 C1008 0.960 . S
H994 C1008 0.960 . S
H995 C1008 0.960 . S
C996 H988 0.929 . S
C996 C997 1.377 . S
C996 C998 1.384 . S
C997 C996 1.377 . S
C997 C1003 1.390 . S
C998 H989 0.930 . S
C998 C996 1.384 . S
C998 C999 1.372 . S
C999 C998 1.372 . S
C999 C1000 1.400 . S
C999 C1004 1.490 . S
C1000 H990 0.930 . S
C1000 C999 1.400 . S
C1000 C1003 1.386 . S
H1001 C1017 0.930 . S
H1002 C1018 0.931 . S
C1003 H991 0.929 . S
C1003 C997 1.390 . S
C1003 C1000 1.386 . S
C1004 C999 1.490 . S
C1004 C1006 1.395 . S
C1004 C1007 1.403 . S
H1005 C1011 0.930 . S
C1006 H992 0.930 . S
C1006 C1004 1.395 . S
C1006 C1009 1.403 . S
C1007 C1004 1.403 . S
C1007 C1008 1.524 . S
C1007 C1011 1.400 . S
C1008 H993 0.960 . S
C1008 H994 0.960 . S
C1008 H995 0.960 . S
C1008 C1007 1.524 . S
C1009 C1006 1.403 . S
C1009 C1010 1.392 . S
C1009 C1013 1.495 . S
C1010 C1009 1.392 . S
C1010 C1011 1.385 . S
C1010 C1012 1.478 . S
C1011 H1005 0.930 . S
C1011 C1007 1.400 . S
C1011 C1010 1.385 . S
C1012 C1010 1.478 . S
C1012 C1014 1.381 . S
C1012 C1018 1.383 . S
C1013 C1009 1.495 . S
C1013 H1019 0.959 . S
C1013 H1020 0.961 . S
C1013 H1021 0.960 . S
C1014 C1012 1.381 . S
C1014 C1015 1.394 . S
C1014 H1022 0.930 . S
C1015 C1014 1.394 . S
C1015 C1016 1.383 . S
C1015 H1023 0.929 . S
C1016 C1015 1.383 . S
C1016 C1017 1.377 . S
C1017 H1001 0.930 . S
C1017 C1016 1.377 . S
C1017 C1018 1.379 . S
C1018 H1002 0.931 . S
C1018 C1012 1.383 . S
C1018 C1017 1.379 . S
H1019 C1013 0.959 . S
H1020 C1013 0.961 . S
H1021 C1013 0.960 . S
H1022 C1014 0.930 . S
H1023 C1015 0.929 . S
H1024 C1032 0.929 . S
H1025 C1034 0.930 . S
H1026 C1036 0.930 . S
H1027 C1039 0.929 . S
H1028 C1042 0.930 . S
H1029 C1044 0.960 . S
H1030 C1044 0.960 . S
H1031 C1044 0.960 . S
C1032 H1024 0.929 . S
C1032 C1033 1.377 . S
C1032 C1034 1.384 . S
C1033 C1032 1.377 . S
C1033 C1039 1.390 . S
C1034 H1025 0.930 . S
C1034 C1032 1.384 . S
C1034 C1035 1.372 . S
C1035 C1034 1.372 . S
C1035 C1036 1.400 . S
C1035 C1040 1.490 . S
C1036 H1026 0.930 . S
C1036 C1035 1.400 . S
C1036 C1039 1.386 . S
H1037 C1053 0.930 . S
H1038 C1054 0.931 . S
C1039 H1027 0.929 . S
C1039 C1033 1.390 . S
C1039 C1036 1.386 . S
C1040 C1035 1.490 . S
C1040 C1042 1.395 . S
C1040 C1043 1.403 . S
H1041 C1047 0.930 . S
C1042 H1028 0.930 . S
C1042 C1040 1.395 . S
C1042 C1045 1.403 . S
C1043 C1040 1.403 . S
C1043 C1044 1.524 . S
C1043 C1047 1.400 . S
C1044 H1029 0.960 . S
C1044 H1030 0.960 . S
C1044 H1031 0.960 . S
C1044 C1043 1.524 . S
C1045 C1042 1.403 . S
C1045 C1046 1.392 . S
C1045 C1049 1.495 . S
C1046 C1045 1.392 . S
C1046 C1047 1.385 . S
C1046 C1048 1.478 . S
C1047 H1041 0.930 . S
C1047 C1043 1.400 . S
C1047 C1046 1.385 . S
C1048 C1046 1.478 . S
C1048 C1050 1.381 . S
C1048 C1054 1.383 . S
C1049 C1045 1.495 . S
C1049 H1055 0.959 . S
C1049 H1056 0.961 . S
C1049 H1057 0.960 . S
C1050 C1048 1.381 . S
C1050 C1051 1.394 . S
C1050 H1058 0.930 . S
C1051 C1050 1.394 . S
C1051 C1052 1.383 . S
C1051 H1059 0.929 . S
C1052 C1051 1.383 . S
C1052 C1053 1.377 . S
C1053 H1037 0.930 . S
C1053 C1052 1.377 . S
C1053 C1054 1.379 . S
C1054 H1038 0.931 . S
C1054 C1048 1.383 . S
C1054 C1053 1.379 . S
H1055 C1049 0.959 . S
H1056 C1049 0.961 . S
H1057 C1049 0.960 . S
H1058 C1050 0.930 . S
H1059 C1051 0.929 . S
H1060 C1068 0.929 . S
H1061 C1070 0.930 . S
H1062 C1072 0.930 . S
H1063 C1075 0.929 . S
H1064 C1078 0.930 . S
H1065 C1080 0.960 . S
H1066 C1080 0.960 . S
H1067 C1080 0.960 . S
C1068 H1060 0.929 . S
C1068 C1069 1.377 1_655 S
C1068 C1070 1.384 . S
C1069 C1068 1.377 1_455 S
C1069 C1075 1.390 . S
C1070 H1061 0.930 . S
C1070 C1068 1.384 . S
C1070 C1071 1.372 . S
C1071 C1070 1.372 . S
C1071 C1072 1.400 . S
C1071 C1076 1.490 . S
C1072 H1062 0.930 . S
C1072 C1071 1.400 . S
C1072 C1075 1.386 1_655 S
H1073 C1089 0.930 . S
H1074 C1090 0.931 . S
C1075 H1063 0.929 . S
C1075 C1069 1.390 . S
C1075 C1072 1.386 1_455 S
C1076 C1071 1.490 . S
C1076 C1078 1.395 . S
C1076 C1079 1.403 . S
H1077 C1083 0.930 . S
C1078 H1064 0.930 . S
C1078 C1076 1.395 . S
C1078 C1081 1.403 . S
C1079 C1076 1.403 . S
C1079 C1080 1.524 . S
C1079 C1083 1.400 . S
C1080 H1065 0.960 . S
C1080 H1066 0.960 . S
C1080 H1067 0.960 . S
C1080 C1079 1.524 . S
C1081 C1078 1.403 . S
C1081 C1082 1.392 . S
C1081 C1085 1.495 . S
C1082 C1081 1.392 . S
C1082 C1083 1.385 . S
C1082 C1084 1.478 . S
C1083 H1077 0.930 . S
C1083 C1079 1.400 . S
C1083 C1082 1.385 . S
C1084 C1082 1.478 . S
C1084 C1086 1.381 . S
C1084 C1090 1.383 . S
C1085 C1081 1.495 . S
C1085 H1091 0.959 . S
C1085 H1092 0.961 . S
C1085 H1093 0.960 . S
C1086 C1084 1.381 . S
C1086 C1087 1.394 . S
C1086 H1094 0.930 . S
C1087 C1086 1.394 . S
C1087 C1088 1.383 . S
C1087 H1095 0.929 . S
C1088 C1087 1.383 . S
C1088 C1089 1.377 . S
C1089 H1073 0.930 . S
C1089 C1088 1.377 . S
C1089 C1090 1.379 . S
C1090 H1074 0.931 . S
C1090 C1084 1.383 . S
C1090 C1089 1.379 . S
H1091 C1085 0.959 . S
H1092 C1085 0.961 . S
H1093 C1085 0.960 . S
H1094 C1086 0.930 . S
H1095 C1087 0.929 . S
H1096 C1104 0.929 . S
H1097 C1106 0.930 . S
H1098 C1108 0.930 . S
H1099 C1111 0.929 . S
H1100 C1114 0.930 . S
H1101 C1116 0.960 . S
H1102 C1116 0.960 . S
H1103 C1116 0.960 . S
C1104 H1096 0.929 . S
C1104 C1105 1.377 . S
C1104 C1106 1.384 . S
C1105 C1104 1.377 . S
C1105 C1111 1.390 . S
C1106 H1097 0.930 . S
C1106 C1104 1.384 . S
C1106 C1107 1.372 . S
C1107 C1106 1.372 . S
C1107 C1108 1.400 . S
C1107 C1112 1.490 . S
C1108 H1098 0.930 . S
C1108 C1107 1.400 . S
C1108 C1111 1.386 . S
H1109 C1125 0.930 . S
H1110 C1126 0.931 . S
C1111 H1099 0.929 . S
C1111 C1105 1.390 . S
C1111 C1108 1.386 . S
C1112 C1107 1.490 . S
C1112 C1114 1.395 . S
C1112 C1115 1.403 . S
H1113 C1119 0.930 . S
C1114 H1100 0.930 . S
C1114 C1112 1.395 . S
C1114 C1117 1.403 . S
C1115 C1112 1.403 . S
C1115 C1116 1.524 . S
C1115 C1119 1.400 . S
C1116 H1101 0.960 . S
C1116 H1102 0.960 . S
C1116 H1103 0.960 . S
C1116 C1115 1.524 . S
C1117 C1114 1.403 . S
C1117 C1118 1.392 . S
C1117 C1121 1.495 1_655 S
C1118 C1117 1.392 . S
C1118 C1119 1.385 . S
C1118 C1120 1.478 . S
C1119 H1113 0.930 . S
C1119 C1115 1.400 . S
C1119 C1118 1.385 . S
C1120 C1118 1.478 . S
C1120 C1122 1.381 . S
C1120 C1126 1.383 . S
C1121 C1117 1.495 1_455 S
C1121 H1127 0.959 . S
C1121 H1128 0.961 . S
C1121 H1129 0.960 . S
C1122 C1120 1.381 . S
C1122 C1123 1.394 . S
C1122 H1130 0.930 . S
C1123 C1122 1.394 . S
C1123 C1124 1.383 . S
C1123 H1131 0.929 . S
C1124 C1123 1.383 . S
C1124 C1125 1.377 . S
C1125 H1109 0.930 . S
C1125 C1124 1.377 . S
C1125 C1126 1.379 . S
C1126 H1110 0.931 . S
C1126 C1120 1.383 . S
C1126 C1125 1.379 . S
H1127 C1121 0.959 . S
H1128 C1121 0.961 . S
H1129 C1121 0.960 . S
H1130 C1122 0.930 . S
H1131 C1123 0.929 . S
H1132 C1140 0.929 . S
H1133 C1142 0.930 . S
H1134 C1144 0.930 . S
H1135 C1147 0.929 . S
H1136 C1150 0.930 . S
H1137 C1152 0.960 . S
H1138 C1152 0.960 . S
H1139 C1152 0.960 . S
C1140 H1132 0.929 . S
C1140 C1141 1.377 . S
C1140 C1142 1.384 . S
C1141 C1140 1.377 . S
C1141 C1147 1.390 . S
C1142 H1133 0.930 . S
C1142 C1140 1.384 . S
C1142 C1143 1.372 . S
C1143 C1142 1.372 . S
C1143 C1144 1.400 . S
C1143 C1148 1.490 . S
C1144 H1134 0.930 . S
C1144 C1143 1.400 . S
C1144 C1147 1.386 . S
H1145 C1161 0.930 . S
H1146 C1162 0.931 . S
C1147 H1135 0.929 . S
C1147 C1141 1.390 . S
C1147 C1144 1.386 . S
C1148 C1143 1.490 . S
C1148 C1150 1.395 . S
C1148 C1151 1.403 . S
H1149 C1155 0.930 . S
C1150 H1136 0.930 . S
C1150 C1148 1.395 . S
C1150 C1153 1.403 . S
C1151 C1148 1.403 . S
C1151 C1152 1.524 . S
C1151 C1155 1.400 . S
C1152 H1137 0.960 . S
C1152 H1138 0.960 . S
C1152 H1139 0.960 . S
C1152 C1151 1.524 . S
C1153 C1150 1.403 . S
C1153 C1154 1.392 . S
C1153 C1157 1.495 . S
C1154 C1153 1.392 . S
C1154 C1155 1.385 . S
C1154 C1156 1.478 . S
C1155 H1149 0.930 . S
C1155 C1151 1.400 . S
C1155 C1154 1.385 . S
C1156 C1154 1.478 . S
C1156 C1158 1.381 . S
C1156 C1162 1.383 . S
C1157 C1153 1.495 . S
C1157 H1163 0.959 . S
C1157 H1164 0.961 . S
C1157 H1165 0.960 . S
C1158 C1156 1.381 . S
C1158 C1159 1.394 . S
C1158 H1166 0.930 . S
C1159 C1158 1.394 . S
C1159 C1160 1.383 . S
C1159 H1167 0.929 . S
C1160 C1159 1.383 . S
C1160 C1161 1.377 . S
C1161 H1145 0.930 . S
C1161 C1160 1.377 . S
C1161 C1162 1.379 . S
C1162 H1146 0.931 . S
C1162 C1156 1.383 . S
C1162 C1161 1.379 . S
H1163 C1157 0.959 . S
H1164 C1157 0.961 . S
H1165 C1157 0.960 . S
H1166 C1158 0.930 . S
H1167 C1159 0.929 . S
H1168 C1176 0.929 . S
H1169 C1178 0.930 . S
H1170 C1180 0.930 . S
H1171 C1183 0.929 . S
H1172 C1186 0.930 . S
H1173 C1188 0.960 . S
H1174 C1188 0.960 . S
H1175 C1188 0.960 . S
C1176 H1168 0.929 . S
C1176 C1177 1.377 . S
C1176 C1178 1.384 . S
C1177 C1176 1.377 . S
C1177 C1183 1.390 . S
C1178 H1169 0.930 . S
C1178 C1176 1.384 . S
C1178 C1179 1.372 . S
C1179 C1178 1.372 . S
C1179 C1180 1.400 . S
C1179 C1184 1.490 . S
C1180 H1170 0.930 . S
C1180 C1179 1.400 . S
C1180 C1183 1.386 . S
H1181 C1197 0.930 . S
H1182 C1198 0.931 . S
C1183 H1171 0.929 . S
C1183 C1177 1.390 . S
C1183 C1180 1.386 . S
C1184 C1179 1.490 . S
C1184 C1186 1.395 . S
C1184 C1187 1.403 . S
H1185 C1191 0.930 . S
C1186 H1172 0.930 . S
C1186 C1184 1.395 . S
C1186 C1189 1.403 . S
C1187 C1184 1.403 . S
C1187 C1188 1.524 . S
C1187 C1191 1.400 . S
C1188 H1173 0.960 . S
C1188 H1174 0.960 . S
C1188 H1175 0.960 . S
C1188 C1187 1.524 . S
C1189 C1186 1.403 . S
C1189 C1190 1.392 . S
C1189 C1193 1.495 . S
C1190 C1189 1.392 . S
C1190 C1191 1.385 . S
C1190 C1192 1.478 . S
C1191 H1185 0.930 . S
C1191 C1187 1.400 . S
C1191 C1190 1.385 . S
C1192 C1190 1.478 . S
C1192 C1194 1.381 . S
C1192 C1198 1.383 . S
C1193 C1189 1.495 . S
C1193 H1199 0.959 . S
C1193 H1200 0.961 . S
C1193 H1201 0.960 . S
C1194 C1192 1.381 . S
C1194 C1195 1.394 . S
C1194 H1202 0.930 . S
C1195 C1194 1.394 . S
C1195 C1196 1.383 . S
C1195 H1203 0.929 . S
C1196 C1195 1.383 . S
C1196 C1197 1.377 . S
C1197 H1181 0.930 . S
C1197 C1196 1.377 . S
C1197 C1198 1.379 . S
C1198 H1182 0.931 . S
C1198 C1192 1.383 . S
C1198 C1197 1.379 . S
H1199 C1193 0.959 . S
H1200 C1193 0.961 . S
H1201 C1193 0.960 . S
H1202 C1194 0.930 . S
H1203 C1195 0.929 . S
H1204 C1212 0.929 . S
H1205 C1214 0.930 . S
H1206 C1216 0.930 . S
H1207 C1219 0.929 . S
H1208 C1222 0.930 . S
H1209 C1224 0.960 . S
H1210 C1224 0.960 . S
H1211 C1224 0.960 . S
C1212 H1204 0.929 . S
C1212 C1213 1.377 . S
C1212 C1214 1.384 . S
C1213 C1212 1.377 . S
C1213 C1219 1.390 . S
C1214 H1205 0.930 . S
C1214 C1212 1.384 . S
C1214 C1215 1.372 . S
C1215 C1214 1.372 . S
C1215 C1216 1.400 . S
C1215 C1220 1.490 . S
C1216 H1206 0.930 . S
C1216 C1215 1.400 . S
C1216 C1219 1.386 . S
H1217 C1233 0.930 . S
H1218 C1234 0.931 . S
C1219 H1207 0.929 . S
C1219 C1213 1.390 . S
C1219 C1216 1.386 . S
C1220 C1215 1.490 . S
C1220 C1222 1.395 . S
C1220 C1223 1.403 . S
H1221 C1227 0.930 . S
C1222 H1208 0.930 . S
C1222 C1220 1.395 . S
C1222 C1225 1.403 . S
C1223 C1220 1.403 . S
C1223 C1224 1.524 . S
C1223 C1227 1.400 . S
C1224 H1209 0.960 . S
C1224 H1210 0.960 . S
C1224 H1211 0.960 . S
C1224 C1223 1.524 . S
C1225 C1222 1.403 . S
C1225 C1226 1.392 . S
C1225 C1229 1.495 . S
C1226 C1225 1.392 . S
C1226 C1227 1.385 . S
C1226 C1228 1.478 . S
C1227 H1221 0.930 . S
C1227 C1223 1.400 . S
C1227 C1226 1.385 . S
C1228 C1226 1.478 . S
C1228 C1230 1.381 . S
C1228 C1234 1.383 . S
C1229 C1225 1.495 . S
C1229 H1235 0.959 . S
C1229 H1236 0.961 . S
C1229 H1237 0.960 . S
C1230 C1228 1.381 . S
C1230 C1231 1.394 . S
C1230 H1238 0.930 . S
C1231 C1230 1.394 . S
C1231 C1232 1.383 . S
C1231 H1239 0.929 . S
C1232 C1231 1.383 . S
C1232 C1233 1.377 . S
C1233 H1217 0.930 . S
C1233 C1232 1.377 . S
C1233 C1234 1.379 . S
C1234 H1218 0.931 . S
C1234 C1228 1.383 . S
C1234 C1233 1.379 . S
H1235 C1229 0.959 . S
H1236 C1229 0.961 . S
H1237 C1229 0.960 . S
H1238 C1230 0.930 . S
H1239 C1231 0.929 . S
H1240 C1248 0.929 . S
H1241 C1250 0.930 . S
H1242 C1252 0.930 . S
H1243 C1255 0.929 . S
H1244 C1258 0.930 . S
H1245 C1260 0.960 . S
H1246 C1260 0.960 . S
H1247 C1260 0.960 . S
C1248 H1240 0.929 . S
C1248 C1249 1.377 . S
C1248 C1250 1.384 . S
C1249 C1248 1.377 . S
C1249 C1255 1.390 . S
C1250 H1241 0.930 . S
C1250 C1248 1.384 . S
C1250 C1251 1.372 . S
C1251 C1250 1.372 . S
C1251 C1252 1.400 . S
C1251 C1256 1.490 . S
C1252 H1242 0.930 . S
C1252 C1251 1.400 . S
C1252 C1255 1.386 . S
H1253 C1269 0.930 . S
H1254 C1270 0.931 . S
C1255 H1243 0.929 . S
C1255 C1249 1.390 . S
C1255 C1252 1.386 . S
C1256 C1251 1.490 . S
C1256 C1258 1.395 . S
C1256 C1259 1.403 . S
H1257 C1263 0.930 . S
C1258 H1244 0.930 . S
C1258 C1256 1.395 . S
C1258 C1261 1.403 . S
C1259 C1256 1.403 . S
C1259 C1260 1.524 . S
C1259 C1263 1.400 . S
C1260 H1245 0.960 . S
C1260 H1246 0.960 . S
C1260 H1247 0.960 . S
C1260 C1259 1.524 . S
C1261 C1258 1.403 . S
C1261 C1262 1.392 . S
C1261 C1265 1.495 . S
C1262 C1261 1.392 . S
C1262 C1263 1.385 . S
C1262 C1264 1.478 . S
C1263 H1257 0.930 . S
C1263 C1259 1.400 . S
C1263 C1262 1.385 . S
C1264 C1262 1.478 . S
C1264 C1266 1.381 . S
C1264 C1270 1.383 . S
C1265 C1261 1.495 . S
C1265 H1271 0.959 . S
C1265 H1272 0.961 . S
C1265 H1273 0.960 . S
C1266 C1264 1.381 . S
C1266 C1267 1.394 . S
C1266 H1274 0.930 . S
C1267 C1266 1.394 . S
C1267 C1268 1.383 . S
C1267 H1275 0.929 . S
C1268 C1267 1.383 . S
C1268 C1269 1.377 . S
C1269 H1253 0.930 . S
C1269 C1268 1.377 . S
C1269 C1270 1.379 . S
C1270 H1254 0.931 . S
C1270 C1264 1.383 . S
C1270 C1269 1.379 . S
H1271 C1265 0.959 . S
H1272 C1265 0.961 . S
H1273 C1265 0.960 . S
H1274 C1266 0.930 . S
H1275 C1267 0.929 . S
H1276 C1284 0.899 1_554 S
H1277 C1286 0.930 . S
H1278 C1288 0.930 . S
H1279 C1291 0.929 . S
H1280 C1294 0.930 . S
H1281 C1296 0.960 . S
H1282 C1296 0.960 . S
H1283 C1296 0.960 . S
C1284 H1276 0.899 1_556 S
C1284 C1285 1.377 . S
C1284 C1286 1.384 . S
C1285 C1284 1.377 . S
C1285 C1291 1.390 . S
C1286 H1277 0.930 . S
C1286 C1284 1.384 . S
C1286 C1287 1.372 . S
C1287 C1286 1.372 . S
C1287 C1288 1.400 . S
C1287 C1292 1.490 . S
C1288 H1278 0.930 . S
C1288 C1287 1.400 . S
C1288 C1291 1.386 . S
H1289 C1305 0.930 . S
H1290 C1306 0.931 . S
C1291 H1279 0.929 . S
C1291 C1285 1.390 . S
C1291 C1288 1.386 . S
C1292 C1287 1.490 . S
C1292 C1294 1.395 . S
C1292 C1295 1.403 . S
H1293 C1299 0.930 . S
C1294 H1280 0.930 . S
C1294 C1292 1.395 . S
C1294 C1297 1.403 . S
C1295 C1292 1.403 . S
C1295 C1296 1.524 . S
C1295 C1299 1.400 . S
C1296 H1281 0.960 . S
C1296 H1282 0.960 . S
C1296 H1283 0.960 . S
C1296 C1295 1.524 . S
C1297 C1294 1.403 . S
C1297 C1298 1.392 . S
C1297 C1301 1.495 . S
C1298 C1297 1.392 . S
C1298 C1299 1.385 . S
C1298 C1300 1.478 . S
C1299 H1293 0.930 . S
C1299 C1295 1.400 . S
C1299 C1298 1.385 . S
C1300 C1298 1.478 . S
C1300 C1302 1.381 . S
C1300 C1306 1.383 . S
C1301 C1297 1.495 . S
C1301 H1307 0.959 . S
C1301 H1308 0.961 . S
C1301 H1309 0.960 . S
C1302 C1300 1.381 . S
C1302 C1303 1.394 . S
C1302 H1310 0.930 . S
C1303 C1302 1.394 . S
C1303 C1304 1.383 . S
C1303 H1311 0.929 . S
C1304 C1303 1.383 . S
C1304 C1305 1.377 . S
C1305 H1289 0.930 . S
C1305 C1304 1.377 . S
C1305 C1306 1.379 . S
C1306 H1290 0.931 . S
C1306 C1300 1.383 . S
C1306 C1305 1.379 . S
H1307 C1301 0.959 . S
H1308 C1301 0.961 . S
H1309 C1301 0.960 . S
H1310 C1302 0.930 . S
H1311 C1303 0.929 . S
H1312 C1320 0.929 . S
H1313 C1322 0.930 . S
H1314 C1324 0.930 . S
H1315 C1327 0.929 . S
H1316 C1330 0.930 . S
H1317 C1332 0.960 . S
H1318 C1332 0.960 . S
H1319 C1332 0.960 . S
C1320 H1312 0.929 . S
C1320 C1321 1.377 . S
C1320 C1322 1.384 . S
C1321 C1320 1.377 . S
C1321 C1327 1.390 . S
C1322 H1313 0.930 . S
C1322 C1320 1.384 . S
C1322 C1323 1.372 . S
C1323 C1322 1.372 . S
C1323 C1324 1.400 . S
C1323 C1328 1.490 . S
C1324 H1314 0.930 . S
C1324 C1323 1.400 . S
C1324 C1327 1.386 . S
H1325 C1341 0.930 . S
H1326 C1342 0.931 . S
C1327 H1315 0.929 . S
C1327 C1321 1.390 . S
C1327 C1324 1.386 . S
C1328 C1323 1.490 . S
C1328 C1330 1.395 . S
C1328 C1331 1.403 . S
H1329 C1335 0.930 . S
C1330 H1316 0.930 . S
C1330 C1328 1.395 . S
C1330 C1333 1.403 . S
C1331 C1328 1.403 . S
C1331 C1332 1.524 . S
C1331 C1335 1.400 . S
C1332 H1317 0.960 . S
C1332 H1318 0.960 . S
C1332 H1319 0.960 . S
C1332 C1331 1.524 . S
C1333 C1330 1.403 . S
C1333 C1334 1.392 . S
C1333 C1337 1.495 . S
C1334 C1333 1.392 . S
C1334 C1335 1.385 . S
C1334 C1336 1.478 . S
C1335 H1329 0.930 . S
C1335 C1331 1.400 . S
C1335 C1334 1.385 . S
C1336 C1334 1.478 . S
C1336 C1338 1.381 . S
C1336 C1342 1.383 . S
C1337 C1333 1.495 . S
C1337 H1343 0.959 . S
C1337 H1344 0.961 . S
C1337 H1345 0.960 . S
C1338 C1336 1.381 . S
C1338 C1339 1.394 . S
C1338 H1346 0.930 . S
C1339 C1338 1.394 . S
C1339 C1340 1.383 . S
C1339 H1347 0.929 . S
C1340 C1339 1.383 . S
C1340 C1341 1.377 . S
C1341 H1325 0.930 . S
C1341 C1340 1.377 . S
C1341 C1342 1.379 . S
C1342 H1326 0.931 . S
C1342 C1336 1.383 . S
C1342 C1341 1.379 . S
H1343 C1337 0.959 . S
H1344 C1337 0.961 . S
H1345 C1337 0.960 . S
H1346 C1338 0.930 . S
H1347 C1339 0.929 . S
H1348 C1356 0.929 . S
H1349 C1358 0.930 . S
H1350 C1360 0.930 . S
H1351 C1363 0.929 . S
H1352 C1366 0.930 . S
H1353 C1368 0.960 . S
H1354 C1368 0.960 . S
H1355 C1368 0.960 . S
C1356 H1348 0.929 . S
C1356 C1357 1.377 . S
C1356 C1358 1.384 . S
C1357 C1356 1.377 . S
C1357 C1363 1.390 . S
C1358 H1349 0.930 . S
C1358 C1356 1.384 . S
C1358 C1359 1.372 . S
C1359 C1358 1.372 . S
C1359 C1360 1.400 . S
C1359 C1364 1.490 . S
C1360 H1350 0.930 . S
C1360 C1359 1.400 . S
C1360 C1363 1.386 . S
H1361 C1377 0.930 . S
H1362 C1378 0.931 . S
C1363 H1351 0.929 . S
C1363 C1357 1.390 . S
C1363 C1360 1.386 . S
C1364 C1359 1.490 . S
C1364 C1366 1.395 . S
C1364 C1367 1.403 . S
H1365 C1371 0.930 . S
C1366 H1352 0.930 . S
C1366 C1364 1.395 . S
C1366 C1369 1.403 . S
C1367 C1364 1.403 . S
C1367 C1368 1.524 . S
C1367 C1371 1.400 . S
C1368 H1353 0.960 . S
C1368 H1354 0.960 . S
C1368 H1355 0.960 . S
C1368 C1367 1.524 . S
C1369 C1366 1.403 . S
C1369 C1370 1.392 . S
C1369 C1373 1.495 . S
C1370 C1369 1.392 . S
C1370 C1371 1.385 . S
C1370 C1372 1.478 . S
C1371 H1365 0.930 . S
C1371 C1367 1.400 . S
C1371 C1370 1.385 . S
C1372 C1370 1.478 . S
C1372 C1374 1.381 . S
C1372 C1378 1.383 . S
C1373 C1369 1.495 . S
C1373 H1379 0.959 . S
C1373 H1380 0.961 . S
C1373 H1381 0.960 . S
C1374 C1372 1.381 . S
C1374 C1375 1.394 . S
C1374 H1382 0.930 . S
C1375 C1374 1.394 . S
C1375 C1376 1.383 . S
C1375 H1383 0.929 . S
C1376 C1375 1.383 . S
C1376 C1377 1.377 . S
C1377 H1361 0.930 . S
C1377 C1376 1.377 . S
C1377 C1378 1.379 . S
C1378 H1362 0.931 . S
C1378 C1372 1.383 . S
C1378 C1377 1.379 . S
H1379 C1373 0.959 . S
H1380 C1373 0.961 . S
H1381 C1373 0.960 . S
H1382 C1374 0.930 . S
H1383 C1375 0.929 . S
H1384 C1392 0.929 . S
H1385 C1394 0.930 . S
H1386 C1396 0.930 . S
H1387 C1399 0.929 . S
H1388 C1402 0.930 . S
H1389 C1404 0.960 . S
H1390 C1404 0.960 . S
H1391 C1404 0.960 . S
C1392 H1384 0.929 . S
C1392 C1393 1.377 . S
C1392 C1394 1.384 . S
C1393 C1392 1.377 . S
C1393 C1399 1.390 . S
C1394 H1385 0.930 . S
C1394 C1392 1.384 . S
C1394 C1395 1.372 . S
C1395 C1394 1.372 . S
C1395 C1396 1.400 . S
C1395 C1400 1.490 . S
C1396 H1386 0.930 . S
C1396 C1395 1.400 . S
C1396 C1399 1.386 . S
H1397 C1413 0.930 . S
H1398 C1414 0.931 . S
C1399 H1387 0.929 . S
C1399 C1393 1.390 . S
C1399 C1396 1.386 . S
C1400 C1395 1.490 . S
C1400 C1402 1.395 . S
C1400 C1403 1.403 . S
H1401 C1407 0.930 . S
C1402 H1388 0.930 . S
C1402 C1400 1.395 . S
C1402 C1405 1.403 . S
C1403 C1400 1.403 . S
C1403 C1404 1.524 . S
C1403 C1407 1.400 . S
C1404 H1389 0.960 . S
C1404 H1390 0.960 . S
C1404 H1391 0.960 . S
C1404 C1403 1.524 . S
C1405 C1402 1.403 . S
C1405 C1406 1.392 . S
C1405 C1409 1.495 . S
C1406 C1405 1.392 . S
C1406 C1407 1.385 . S
C1406 C1408 1.478 . S
C1407 H1401 0.930 . S
C1407 C1403 1.400 . S
C1407 C1406 1.385 . S
C1408 C1406 1.478 . S
C1408 C1410 1.381 . S
C1408 C1414 1.383 . S
C1409 C1405 1.495 . S
C1409 H1415 0.959 . S
C1409 H1416 0.961 . S
C1409 H1417 0.960 . S
C1410 C1408 1.381 . S
C1410 C1411 1.394 . S
C1410 H1418 0.930 . S
C1411 C1410 1.394 . S
C1411 C1412 1.383 . S
C1411 H1419 0.929 . S
C1412 C1411 1.383 . S
C1412 C1413 1.377 . S
C1413 H1397 0.930 . S
C1413 C1412 1.377 . S
C1413 C1414 1.379 . S
C1414 H1398 0.931 . S
C1414 C1408 1.383 . S
C1414 C1413 1.379 . S
H1415 C1409 0.959 . S
H1416 C1409 0.961 . S
H1417 C1409 0.960 . S
H1418 C1410 0.930 . S
H1419 C1411 0.929 . S
C296 C204 1.832 . S
C277 C14 1.836 . S
C313 C25 1.753 . S
C332 C207 1.745 . S
C349 C50 1.733 . S
C368 C238 1.713 . S
C404 C173 1.767 . S
C385 C68 1.814 . S
C440 C208 1.828 . S
C421 C16 1.821 . S
C476 C239 1.763 . S
C457 C26 1.806 . S
C512 C164 1.709 . S
C493 C52 1.729 . S
C548 C195 1.731 . S
C529 C70 1.744 . S
C565 C8 1.286 . S
C584 C225 1.228 . S
C601 C88 1.260 . S
C620 C194 1.205 . S
C637 C44 1.178 . S
C656 C154 1.143 . S
C692 C247 1.179 . S
C673 C98 1.201 . S
C728 C175 1.221 . S
C709 C7 1.286 . S
C745 C86 1.212 . S
C764 C174 1.192 . S
C781 C43 1.191 . S
C800 C267 1.200 . S
C836 C206 1.157 . S
C817 C97 1.272 . S
C853 C116 1.831 . S
C872 C266 1.791 . S
C889 C79 1.750 . S
C908 C145 1.757 . S
C925 C140 1.733 . S
C944 C176 1.744 . S
C961 C104 1.817 . S
C980 C235 1.772 . S
C1016 C146 1.832 . S
C997 C115 1.830 . S
C1033 C80 1.804 . S
C1052 C177 1.784 . S
C1069 C142 1.720 . S
C1088 C226 1.732 . S
C1124 C257 1.746 . S
C1105 C106 1.741 . S
C1141 C122 1.292 . S
C1160 C163 1.249 . S
C1177 C34 1.259 . S
C1196 C256 1.180 . S
C1213 C134 1.177 . S
C1232 C216 1.143 . S
C1268 C185 1.186 . S
C1249 C62 1.203 . S
C1304 C237 1.243 . S
C1285 C124 1.286 . S
C1340 C236 1.218 . S
C1321 C32 1.216 . S
C1376 C205 1.165 . S
C1357 C133 1.187 . S
C1412 C144 1.220 . S
C1393 C61 1.267 . S
