# Generated by pormake.
# Topology nom, (4,4)-cn, num edge types: 1
# Building blocks:
#     Node 0, Type 0, BuildingBlock: MIFKUJ_clean_linker_1, # of connection points: 4
#     Node 1, Type 0, BuildingBlock: MIFKUJ_clean_linker_1, # of connection points: 4
#     Node 2, Type 0, BuildingBlock: MIFKUJ_clean_linker_1, # of connection points: 4
#     Node 3, Type 0, BuildingBlock: MIFKUJ_clean_linker_1, # of connection points: 4
#     Node 4, Type 0, BuildingBlock: MIFKUJ_clean_linker_1, # of connection points: 4
#     Node 5, Type 0, BuildingBlock: MIFKUJ_clean_linker_1, # of connection points: 4
#     Node 6, Type 1, BuildingBlock: QUQFOY_clean_sbu_1, # of connection points: 4
#     Node 7, Type 1, BuildingBlock: QUQFOY_clean_sbu_1, # of connection points: 4
#     Node 8, Type 1, BuildingBlock: QUQFOY_clean_sbu_1, # of connection points: 4
#     Node 9, Type 1, BuildingBlock: QUQFOY_clean_sbu_1, # of connection points: 4
#     Node 10, Type 1, BuildingBlock: QUQFOY_clean_sbu_1, # of connection points: 4
#     Node 11, Type 1, BuildingBlock: QUQFOY_clean_sbu_1, # of connection points: 4
#     Edge 12, Type (0, 1), BuildingBlock: ZUJKAS_clean_linker_0, # of connection points: 2
#     Edge 13, Type (0, 1), BuildingBlock: ZUJKAS_clean_linker_0, # of connection points: 2
#     Edge 14, Type (0, 1), BuildingBlock: ZUJKAS_clean_linker_0, # of connection points: 2
#     Edge 15, Type (0, 1), BuildingBlock: ZUJKAS_clean_linker_0, # of connection points: 2
#     Edge 16, Type (0, 1), BuildingBlock: ZUJKAS_clean_linker_0, # of connection points: 2
#     Edge 17, Type (0, 1), BuildingBlock: ZUJKAS_clean_linker_0, # of connection points: 2
#     Edge 18, Type (0, 1), BuildingBlock: ZUJKAS_clean_linker_0, # of connection points: 2
#     Edge 19, Type (0, 1), BuildingBlock: ZUJKAS_clean_linker_0, # of connection points: 2
#     Edge 20, Type (0, 1), BuildingBlock: ZUJKAS_clean_linker_0, # of connection points: 2
#     Edge 21, Type (0, 1), BuildingBlock: ZUJKAS_clean_linker_0, # of connection points: 2
#     Edge 22, Type (0, 1), BuildingBlock: ZUJKAS_clean_linker_0, # of connection points: 2
#     Edge 23, Type (0, 1), BuildingBlock: ZUJKAS_clean_linker_0, # of connection points: 2
#     Edge 24, Type (0, 1), BuildingBlock: ZUJKAS_clean_linker_0, # of connection points: 2
#     Edge 25, Type (0, 1), BuildingBlock: ZUJKAS_clean_linker_0, # of connection points: 2
#     Edge 26, Type (0, 1), BuildingBlock: ZUJKAS_clean_linker_0, # of connection points: 2
#     Edge 27, Type (0, 1), BuildingBlock: ZUJKAS_clean_linker_0, # of connection points: 2
#     Edge 28, Type (0, 1), BuildingBlock: ZUJKAS_clean_linker_0, # of connection points: 2
#     Edge 29, Type (0, 1), BuildingBlock: ZUJKAS_clean_linker_0, # of connection points: 2
#     Edge 30, Type (0, 1), BuildingBlock: ZUJKAS_clean_linker_0, # of connection points: 2
#     Edge 31, Type (0, 1), BuildingBlock: ZUJKAS_clean_linker_0, # of connection points: 2
#     Edge 32, Type (0, 1), BuildingBlock: ZUJKAS_clean_linker_0, # of connection points: 2
#     Edge 33, Type (0, 1), BuildingBlock: ZUJKAS_clean_linker_0, # of connection points: 2
#     Edge 34, Type (0, 1), BuildingBlock: ZUJKAS_clean_linker_0, # of connection points: 2
#     Edge 35, Type (0, 1), BuildingBlock: ZUJKAS_clean_linker_0, # of connection points: 2
# Relax obj value: 0.014
# Max RMSD: 0.112
# Mean RMSD: 0.111
data_MOF--net-nom--node1-QUQFOY_clean_sbu_1--node2-MIFKUJ_clean_linker_1--edge1-ZUJKAS_clean_linker_0
_symmetry_space_group_name_H-M    P1
_symmetry_Int_Tables_number       1
_symmetry_cell_setting            triclinic
loop_
_symmetry_equiv_pos_as_xyz
'x, y, z'
_cell_length_a     69.241412
_cell_length_b     69.225212
_cell_length_c     66.934628
_cell_angle_alpha  89.995971
_cell_angle_beta   90.00518
_cell_angle_gamma 120.00793
loop_
_atom_site_label
_atom_site_type_symbol
_atom_site_fract_x
_atom_site_fract_y
_atom_site_fract_z
_atom_type_partial_charge
H0 H 0.98925 0.48331 0.28317 0.0
H1 H 0.95953 0.46745 0.25813 0.0
H2 H 0.92893 0.5022 0.28515 0.0
H3 H 0.959 0.51852 0.30986 0.0
H4 H 0.02013 0.52487 0.29194 0.0
H5 H 0.9567 0.4653 0.32733 0.0
H6 H 0.91788 0.44634 0.33866 0.0
H7 H 0.93056 0.5058 0.37065 0.0
H8 H 0.96929 0.52453 0.35941 0.0
H9 H 0.03527 0.55699 0.37343 0.0
H10 H 0.06495 0.57117 0.39846 0.0
H11 H 0.09209 0.53333 0.37103 0.0
H12 H 0.0625 0.51943 0.34592 0.0
H13 H 0.00287 0.51543 0.36444 0.0
H14 H 0.06467 0.57472 0.33181 0.0
H15 H 0.10319 0.59675 0.32032 0.0
H16 H 0.09385 0.54231 0.28233 0.0
H17 H 0.05534 0.52004 0.29424 0.0
C18 C 0.97621 0.50185 0.29859 0.0
C19 C 0.97625 0.48767 0.28361 0.0
C20 C 0.95928 0.47862 0.26932 0.0
C21 C 0.94187 0.48349 0.26979 0.0
C22 C 0.94197 0.49791 0.28462 0.0
C23 C 0.95912 0.50721 0.29875 0.0
C24 C 0.994 0.51087 0.31403 0.0
C25 C 0.01637 0.5225 0.30779 0.0
C26 C 0.98908 0.50847 0.33474 0.0
C27 C 0.96583 0.49641 0.34237 0.0
C28 C 0.95109 0.47421 0.33681 0.0
C29 C 0.9289 0.46342 0.34325 0.0
C30 C 0.92108 0.47456 0.35553 0.0
C31 C 0.93608 0.49661 0.36145 0.0
C32 C 0.95822 0.50738 0.35498 0.0
C33 C 0.04677 0.53729 0.35773 0.0
C34 C 0.04758 0.55169 0.37287 0.0
C35 C 0.06453 0.55974 0.38719 0.0
C36 C 0.08094 0.55343 0.38673 0.0
C37 C 0.07995 0.53883 0.37162 0.0
C38 C 0.063 0.5308 0.3573 0.0
C39 C 0.02898 0.52909 0.34234 0.0
C40 C 0.00664 0.51766 0.34859 0.0
C41 C 0.03393 0.53194 0.32165 0.0
C42 C 0.05718 0.54554 0.31418 0.0
C43 C 0.07096 0.56737 0.32121 0.0
C44 C 0.09298 0.57997 0.31462 0.0
C45 C 0.10158 0.57117 0.30056 0.0
C46 C 0.08764 0.54953 0.29313 0.0
C47 C 0.06565 0.53681 0.29992 0.0
H48 H 0.43296 0.96929 0.52095 0.0
H49 H 0.41242 0.93071 0.53295 0.0
H50 H 0.46342 0.91893 0.50864 0.0
H51 H 0.48398 0.9576 0.49685 0.0
H52 H 0.47697 0.00365 0.52958 0.0
H53 H 0.43332 0.96143 0.47167 0.0
H54 H 0.42062 0.93171 0.44673 0.0
H55 H 0.48901 0.9562 0.42883 0.0
H56 H 0.50145 0.9861 0.45349 0.0
H57 H 0.53232 0.05545 0.46298 0.0
H58 H 0.55035 0.09398 0.45098 0.0
H59 H 0.49916 0.1025 0.47974 0.0
H60 H 0.48173 0.06427 0.49211 0.0
H61 H 0.4905 0.01966 0.45704 0.0
H62 H 0.53529 0.0617 0.5108 0.0
H63 H 0.55183 0.0918 0.53523 0.0
H64 H 0.48727 0.0672 0.56285 0.0
H65 H 0.47061 0.03759 0.53773 0.0
C66 C 0.45989 0.96624 0.5079 0.0
C67 C 0.43975 0.95841 0.51831 0.0
C68 C 0.42798 0.93635 0.52503 0.0
C69 C 0.43628 0.92178 0.52167 0.0
C70 C 0.45669 0.9298 0.51158 0.0
C71 C 0.46837 0.95182 0.50472 0.0
C72 C 0.47185 0.9894 0.50012 0.0
C73 C 0.47964 0.00718 0.51371 0.0
C74 C 0.47614 0.99396 0.4795 0.0
C75 C 0.46833 0.97589 0.46446 0.0
C76 C 0.44554 0.9603 0.4624 0.0
C77 C 0.43833 0.94327 0.44819 0.0
C78 C 0.45379 0.94154 0.43576 0.0
C79 C 0.47661 0.95723 0.43792 0.0
C80 C 0.48378 0.97428 0.45205 0.0
C81 C 0.50582 0.05708 0.47859 0.0
C82 C 0.525 0.06566 0.46663 0.0
C83 C 0.53523 0.08767 0.45972 0.0
C84 C 0.52631 0.10147 0.46446 0.0
C85 C 0.50681 0.09259 0.47614 0.0
C86 C 0.49672 0.07067 0.48315 0.0
C87 C 0.49527 0.03396 0.48645 0.0
C88 C 0.48778 0.01618 0.47291 0.0
C89 C 0.49171 0.02942 0.50717 0.0
C90 C 0.50164 0.04755 0.52225 0.0
C91 C 0.52462 0.06294 0.52195 0.0
C92 C 0.53412 0.08001 0.53609 0.0
C93 C 0.52089 0.08192 0.55103 0.0
C94 C 0.49788 0.06639 0.55139 0.0
C95 C 0.48837 0.04934 0.53716 0.0
H96 H 0.52169 0.54599 0.70257 0.0
H97 H 0.50763 0.56186 0.72741 0.0
H98 H 0.44199 0.52545 0.70113 0.0
H99 H 0.45594 0.50912 0.67664 0.0
H100 H 0.5116 0.5044 0.69475 0.0
H101 H 0.50568 0.56212 0.65811 0.0
H102 H 0.48481 0.57994 0.6465 0.0
H103 H 0.43891 0.5194 0.6154 0.0
H104 H 0.45983 0.50176 0.627 0.0
H105 H 0.49359 0.47028 0.6135 0.0
H106 H 0.50914 0.45617 0.58844 0.0
H107 H 0.57368 0.49254 0.61694 0.0
H108 H 0.55824 0.50731 0.64139 0.0
H109 H 0.50231 0.5112 0.62204 0.0
H110 H 0.50238 0.45225 0.65908 0.0
H111 H 0.51803 0.42983 0.6714 0.0
H112 H 0.57066 0.48798 0.70091 0.0
H113 H 0.55431 0.51009 0.68904 0.0
C114 C 0.48997 0.52662 0.68754 0.0
C115 C 0.50423 0.54129 0.70223 0.0
C116 C 0.4962 0.55034 0.71641 0.0
C117 C 0.47376 0.54498 0.7161 0.0
C118 C 0.45943 0.53012 0.70152 0.0
C119 C 0.4674 0.52082 0.68751 0.0
C120 C 0.49879 0.51742 0.67231 0.0
C121 C 0.50986 0.50622 0.67886 0.0
C122 C 0.49585 0.51906 0.65154 0.0
C123 C 0.48418 0.53052 0.6436 0.0
C124 C 0.49113 0.55272 0.64877 0.0
C125 C 0.47916 0.56286 0.64216 0.0
C126 C 0.46015 0.55108 0.63006 0.0
C127 C 0.45363 0.52906 0.62447 0.0
C128 C 0.46554 0.51892 0.63114 0.0
C129 C 0.52468 0.48969 0.62943 0.0
C130 C 0.51111 0.47528 0.61428 0.0
C131 C 0.51998 0.46706 0.60009 0.0
C132 C 0.54265 0.47315 0.60073 0.0
C133 C 0.55621 0.48767 0.61588 0.0
C134 C 0.54735 0.49594 0.63002 0.0
C135 C 0.51525 0.49842 0.64451 0.0
C136 C 0.50414 0.50953 0.63794 0.0
C137 C 0.51776 0.49638 0.66525 0.0
C138 C 0.52728 0.48285 0.67303 0.0
C139 C 0.5173 0.46015 0.6682 0.0
C140 C 0.52639 0.44739 0.67517 0.0
C141 C 0.54578 0.45709 0.68704 0.0
C142 C 0.5556 0.47985 0.69202 0.0
C143 C 0.54634 0.49256 0.68518 0.0
H144 H 0.03493 0.52376 0.78388 0.0
H145 H 0.06496 0.54058 0.75927 0.0
H146 H 0.09325 0.50208 0.78297 0.0
H147 H 0.06272 0.48475 0.80712 0.0
H148 H 0.00281 0.48067 0.79053 0.0
H149 H 0.06566 0.53885 0.82697 0.0
H150 H 0.10434 0.55797 0.83859 0.0
H151 H 0.09242 0.49782 0.86885 0.0
H152 H 0.05375 0.4789 0.8573 0.0
H153 H 0.98596 0.44654 0.87167 0.0
H154 H 0.95641 0.43352 0.89679 0.0
H155 H 0.93238 0.47435 0.86993 0.0
H156 H 0.96176 0.48702 0.84474 0.0
H157 H 0.01977 0.48795 0.86309 0.0
H158 H 0.95675 0.43057 0.83004 0.0
H159 H 0.91801 0.41018 0.81879 0.0
H160 H 0.92988 0.46572 0.78115 0.0
H161 H 0.96857 0.48641 0.7929 0.0
C162 C 0.0467 0.50317 0.79745 0.0
C163 C 0.04752 0.51882 0.78366 0.0
C164 C 0.06482 0.52859 0.76974 0.0
C165 C 0.08163 0.52282 0.76927 0.0
C166 C 0.08052 0.50679 0.78286 0.0
C167 C 0.06317 0.497 0.79677 0.0
C168 C 0.0288 0.49366 0.81274 0.0
C169 C 0.00647 0.48248 0.8064 0.0
C170 C 0.03366 0.49541 0.83344 0.0
C171 C 0.05689 0.50737 0.84109 0.0
C172 C 0.07142 0.52979 0.83608 0.0
C173 C 0.09353 0.54068 0.8427 0.0
C174 C 0.10152 0.52941 0.85459 0.0
C175 C 0.08676 0.50708 0.85992 0.0
C176 C 0.06466 0.49621 0.85328 0.0
C177 C 0.97594 0.46759 0.85625 0.0
C178 C 0.97433 0.4527 0.87124 0.0
C179 C 0.95746 0.44532 0.88561 0.0
C180 C 0.94197 0.45284 0.88535 0.0
C181 C 0.94376 0.46791 0.87037 0.0
C182 C 0.9606 0.47524 0.856 0.0
C183 C 0.99374 0.47529 0.8409 0.0
C184 C 0.01605 0.48609 0.84723 0.0
C185 C 0.98884 0.47301 0.8202 0.0
C186 C 0.96553 0.46023 0.81263 0.0
C187 C 0.951 0.43851 0.81956 0.0
C188 C 0.92886 0.42685 0.8131 0.0
C189 C 0.9209 0.43645 0.79923 0.0
C190 C 0.9356 0.4579 0.79181 0.0
C191 C 0.9577 0.46971 0.7985 0.0
H192 H 0.56759 0.05418 0.02387 0.0
H193 H 0.58868 0.09274 0.0355 0.0
H194 H 0.54266 0.10755 0.00486 0.0
H195 H 0.52163 0.06888 0.99323 0.0
H196 H 0.52516 0.02143 0.02943 0.0
H197 H 0.57088 0.06359 0.97333 0.0
H198 H 0.58499 0.09351 0.94852 0.0
H199 H 0.51833 0.06692 0.92495 0.0
H200 H 0.50423 0.03751 0.95026 0.0
H201 H 0.47324 0.96821 0.96133 0.0
H202 H 0.45759 0.92996 0.94883 0.0
H203 H 0.50712 0.92298 0.98232 0.0
H204 H 0.52297 0.96125 0.99425 0.0
H205 H 0.51439 0.00463 0.95687 0.0
H206 H 0.46847 0.96216 0.0113 0.0
H207 H 0.4531 0.9325 0.03632 0.0
H208 H 0.51864 0.95882 0.06239 0.0
H209 H 0.53384 0.98862 0.03743 0.0
C210 C 0.54317 0.05868 0.00751 0.0
C211 C 0.56192 0.06568 0.01981 0.0
C212 C 0.57393 0.08772 0.02649 0.0
C213 C 0.56738 0.10325 0.02108 0.0
C214 C 0.54833 0.09609 0.00906 0.0
C215 C 0.53627 0.07399 0.00242 0.0
C216 C 0.53115 0.03544 -0.00019 0.0
C217 C 0.523 0.01778 0.01356 0.0
C218 C 0.52771 0.03062 0.97912 0.0
C219 C 0.53646 0.04849 0.96379 0.0
C220 C 0.55929 0.06433 0.96292 0.0
C221 C 0.56736 0.08131 0.94862 0.0
C222 C 0.55277 0.08265 0.93479 0.0
C223 C 0.52995 0.06658 0.93558 0.0
C224 C 0.52189 0.04964 0.9499 0.0
C225 C 0.49914 0.96752 0.97886 0.0
C226 C 0.48074 0.95843 0.96589 0.0
C227 C 0.47172 0.93653 0.95889 0.0
C228 C 0.4811 0.92342 0.96458 0.0
C229 C 0.49964 0.93268 0.97746 0.0
C230 C 0.5086 0.9545 0.98446 0.0
C231 C 0.50872 0.99067 0.98649 0.0
C232 C 0.51641 0.0083 0.97274 0.0
C233 C 0.51162 0.99547 0.00718 0.0
C234 C 0.50233 0.97751 0.02243 0.0
C235 C 0.47954 0.96145 0.02234 0.0
C236 C 0.47079 0.94445 0.03661 0.0
C237 C 0.48465 0.94323 0.05133 0.0
C238 C 0.50746 0.95943 0.05142 0.0
C239 C 0.51619 0.97644 0.03715 0.0
H240 H 0.5195 0.49558 0.20084 0.0
H241 H 0.53289 0.47922 0.22572 0.0
H242 H 0.60038 0.5213 0.20468 0.0
H243 H 0.58675 0.53735 0.17961 0.0
H244 H 0.53028 0.53945 0.19538 0.0
H245 H 0.53808 0.48291 0.15919 0.0
H246 H 0.55971 0.4658 0.14814 0.0
H247 H 0.60409 0.52597 0.11574 0.0
H248 H 0.58303 0.54332 0.12767 0.0
H249 H 0.54767 0.57333 0.11352 0.0
H250 H 0.53107 0.5862 0.08834 0.0
H251 H 0.46715 0.54909 0.11776 0.0
H252 H 0.48362 0.53553 0.14228 0.0
H253 H 0.54063 0.5334 0.12275 0.0
H254 H 0.53708 0.59095 0.15777 0.0
H255 H 0.52038 0.61251 0.17001 0.0
H256 H 0.47282 0.5556 0.20437 0.0
H257 H 0.48927 0.53388 0.19159 0.0
C258 C 0.5521 0.51754 0.1883 0.0
C259 C 0.53719 0.50132 0.20165 0.0
C260 C 0.54489 0.49204 0.2159 0.0
C261 C 0.56772 0.49894 0.2172 0.0
C262 C 0.58266 0.51536 0.20388 0.0
C263 C 0.57492 0.52462 0.1896 0.0
C264 C 0.54363 0.52696 0.17302 0.0
C265 C 0.53227 0.53788 0.17948 0.0
C266 C 0.54704 0.52565 0.15232 0.0
C267 C 0.55916 0.51455 0.14456 0.0
C268 C 0.55256 0.49246 0.14982 0.0
C269 C 0.56482 0.4826 0.14329 0.0
C270 C 0.58377 0.49454 0.13114 0.0
C271 C 0.58987 0.51642 0.12538 0.0
C272 C 0.5777 0.5263 0.13203 0.0
C273 C 0.51696 0.55362 0.1299 0.0
C274 C 0.53006 0.56789 0.11447 0.0
C275 C 0.52058 0.57541 0.1002 0.0
C276 C 0.49778 0.56875 0.10106 0.0
C277 C 0.4847 0.55438 0.11651 0.0
C278 C 0.49416 0.5468 0.13069 0.0
C279 C 0.52698 0.54562 0.14509 0.0
C280 C 0.53862 0.53498 0.13863 0.0
C281 C 0.52428 0.54759 0.16582 0.0
C282 C 0.51428 0.56072 0.1736 0.0
C283 C 0.52296 0.58305 0.16783 0.0
C284 C 0.51353 0.59543 0.175 0.0
C285 C 0.49527 0.58578 0.18819 0.0
C286 C 0.4867 0.56344 0.19406 0.0
C287 C 0.49619 0.55107 0.1869 0.0
O288 O 0.61474 0.38025 0.43291 0.0
Cd289 Cd 0.61978 0.36739 0.40693 0.0
Cd290 Cd 0.66045 0.40494 0.40923 0.0
O291 O 0.6485 0.40936 0.43613 0.0
O292 O 0.5953 0.33574 0.40689 0.0
O293 O 0.63096 0.34558 0.40855 0.0
C294 C 0.61028 0.32996 0.40849 0.0
C295 C 0.69616 0.40947 0.40729 0.0
C296 C 0.62872 0.39737 0.44261 0.0
C297 C 0.6315 0.40038 0.37379 0.0
O298 O 0.64937 0.41256 0.38343 0.0
O299 O 0.61744 0.38108 0.38022 0.0
O300 O 0.69312 0.42627 0.40944 0.0
O301 O 0.67874 0.38977 0.40689 0.0
O302 O 0.24901 0.61133 0.60235 0.0
Cd303 Cd 0.26826 0.62022 0.5768 0.0
Cd304 Cd 0.26501 0.65726 0.58049 0.0
O305 O 0.24999 0.64326 0.60745 0.0
O306 O 0.27947 0.59879 0.57558 0.0
O307 O 0.30169 0.6351 0.57955 0.0
C308 C 0.2993 0.61539 0.57829 0.0
C309 C 0.29398 0.69418 0.57872 0.0
C310 C 0.24402 0.62346 0.61291 0.0
C311 C 0.24349 0.62853 0.54445 0.0
O312 O 0.24587 0.64481 0.55505 0.0
O313 O 0.25233 0.6171 0.54987 0.0
O314 O 0.27364 0.68933 0.58167 0.0
O315 O 0.29804 0.67791 0.57736 0.0
O316 O 0.64291 0.24633 0.76524 0.0
Cd317 Cd 0.6554 0.26541 0.7398 0.0
Cd318 Cd 0.61776 0.26811 0.74336 0.0
O319 O 0.61435 0.25157 0.77 0.0
O320 O 0.68725 0.27332 0.73858 0.0
O321 O 0.67668 0.29836 0.74299 0.0
C322 C 0.69259 0.29379 0.74159 0.0
C323 C 0.61217 0.29869 0.74233 0.0
C324 C 0.62623 0.24329 0.77559 0.0
C325 C 0.62194 0.24465 0.70702 0.0
O326 O 0.60969 0.24963 0.71739 0.0
O327 O 0.64157 0.25038 0.71281 0.0
O328 O 0.59577 0.2786 0.74428 0.0
O329 O 0.6321 0.30159 0.74165 0.0
O330 O 0.41289 0.64985 0.93259 0.0
Cd331 Cd 0.40449 0.66115 0.90727 0.0
Cd332 Cd 0.36738 0.62033 0.91015 0.0
O333 O 0.38103 0.6186 0.93699 0.0
O334 O 0.42676 0.6936 0.90675 0.0
O335 O 0.39061 0.68059 0.91051 0.0
C336 C 0.41061 0.6975 0.90957 0.0
C337 C 0.33021 0.61152 0.9082 0.0
C338 C 0.40071 0.63239 0.94276 0.0
C339 C 0.39644 0.62893 0.87412 0.0
O340 O 0.38033 0.61459 0.8846 0.0
O341 O 0.40758 0.64911 0.87987 0.0
O342 O 0.33555 0.5963 0.91058 0.0
O343 O 0.34612 0.63207 0.90755 0.0
O344 O 0.77663 0.37554 0.05403 0.0
Cd345 Cd 0.7565 0.36416 0.07906 0.0
Cd346 Cd 0.75944 0.40439 0.07574 0.0
O347 O 0.77472 0.40598 0.04884 0.0
O348 O 0.74562 0.33156 0.07957 0.0
O349 O 0.72321 0.34539 0.07535 0.0
C350 C 0.7258 0.32818 0.07643 0.0
C351 C 0.73104 0.41317 0.07764 0.0
C352 C 0.78133 0.39262 0.0435 0.0
C353 C 0.7802 0.39647 0.11204 0.0
O354 O 0.7783 0.41056 0.1013 0.0
O355 O 0.77127 0.37622 0.10655 0.0
O356 O 0.7516 0.42839 0.07527 0.0
O357 O 0.72642 0.39263 0.07827 0.0
O358 O 0.4096 0.77824 0.2197 0.0
Cd359 Cd 0.40301 0.75926 0.24518 0.0
Cd360 Cd 0.36267 0.75654 0.24173 0.0
O361 O 0.37571 0.77271 0.21493 0.0
O362 O 0.42725 0.7518 0.24622 0.0
O363 O 0.39169 0.72632 0.24247 0.0
C364 C 0.41228 0.73119 0.24358 0.0
C365 C 0.32652 0.72597 0.24272 0.0
C366 C 0.39586 0.78109 0.20931 0.0
C367 C 0.39043 0.78029 0.27787 0.0
O368 O 0.37314 0.77534 0.26757 0.0
O369 O 0.40424 0.77445 0.27205 0.0
O370 O 0.33019 0.74598 0.24008 0.0
O371 O 0.34354 0.72315 0.2443 0.0
H372 H 0.13882 0.5954 0.32327 0.0
H373 H 0.17715 0.61935 0.31175 0.0
H374 H 0.15556 0.60173 0.25068 0.0
H375 H 0.11718 0.57741 0.26217 0.0
H376 H 0.19509 0.60289 0.25784 0.0
H377 H 0.19872 0.67979 0.28642 0.0
H378 H 0.1921 0.65917 0.30546 0.0
H379 H 0.17303 0.65346 0.28508 0.0
C380 C 0.14225 0.59667 0.30738 0.0
C381 C 0.12498 0.58473 0.29359 0.0
C382 C 0.16414 0.61037 0.30082 0.0
C383 C 0.16913 0.61271 0.28033 0.0
C384 C 0.15205 0.60026 0.26656 0.0
H385 H 0.28822 0.7252 0.23208 0.0
H386 H 0.24997 0.6962 0.2392 0.0
C387 C 0.13016 0.58635 0.27313 0.0
C388 C 0.19206 0.62855 0.27327 0.0
H389 H 0.23282 0.68327 0.27519 0.0
C390 C 0.20334 0.6205 0.26154 0.0
C391 C 0.20265 0.65157 0.27783 0.0
C392 C 0.19094 0.66158 0.28921 0.0
C393 C 0.2251 0.63481 0.25453 0.0
C394 C 0.23599 0.65768 0.25977 0.0
C395 C 0.22455 0.66572 0.27128 0.0
C396 C 0.25914 0.67383 0.25338 0.0
C397 C 0.23599 0.62537 0.24128 0.0
C398 C 0.27708 0.67076 0.25862 0.0
C399 C 0.29904 0.68725 0.2543 0.0
C400 C 0.30342 0.70726 0.24501 0.0
C401 C 0.2854 0.71001 0.23932 0.0
C402 C 0.26351 0.69345 0.2434 0.0
H403 H 0.22342 0.60967 0.23393 0.0
H404 H 0.24635 0.6375 0.22955 0.0
H405 H 0.24695 0.6215 0.25049 0.0
H406 H 0.2742 0.65602 0.26673 0.0
H407 H 0.3126 0.68475 0.25902 0.0
H408 H 0.53103 0.13809 0.48456 0.0
H409 H 0.54738 0.17631 0.47241 0.0
H410 H 0.56415 0.15699 0.4167 0.0
H411 H 0.54665 0.11838 0.42828 0.0
H412 H 0.58909 0.20593 0.46105 0.0
H413 H 0.53127 0.18768 0.39722 0.0
H414 H 0.5264 0.16738 0.41633 0.0
H415 H 0.54604 0.17253 0.3966 0.0
C416 C 0.53785 0.14183 0.46959 0.0
C417 C 0.53722 0.12501 0.45732 0.0
C418 C 0.54742 0.16378 0.46274 0.0
C419 C 0.55667 0.16948 0.44351 0.0
C420 C 0.55668 0.15291 0.43142 0.0
H421 H 0.63723 0.31137 0.41004 0.0
H422 H 0.62588 0.27229 0.41679 0.0
C423 C 0.54691 0.13087 0.43819 0.0
C424 C 0.56626 0.1928 0.4363 0.0
H425 H 0.56091 0.22479 0.40029 0.0
C426 C 0.583 0.21007 0.44772 0.0
C427 C 0.55813 0.19817 0.419 0.0
C428 C 0.53933 0.18051 0.40666 0.0
C429 C 0.59157 0.23257 0.44255 0.0
C430 C 0.58362 0.23794 0.42514 0.0
C431 C 0.56716 0.22064 0.41352 0.0
C432 C 0.59073 0.26135 0.41963 0.0
C433 C 0.60835 0.25035 0.45629 0.0
C434 C 0.57469 0.26801 0.41812 0.0
C435 C 0.58107 0.29016 0.41395 0.0
C436 C 0.60367 0.30622 0.41126 0.0
C437 C 0.61971 0.29944 0.41219 0.0
C438 C 0.61326 0.27714 0.4162 0.0
H439 H 0.60855 0.24356 0.47128 0.0
H440 H 0.62527 0.25733 0.44975 0.0
H441 H 0.60475 0.26417 0.45816 0.0
H442 H 0.55721 0.25614 0.42064 0.0
H443 H 0.56827 0.29478 0.41333 0.0
H444 H 0.44846 0.57675 0.6525 0.0
H445 H 0.42418 0.59143 0.64283 0.0
H446 H 0.41642 0.56272 0.58416 0.0
H447 H 0.44122 0.54853 0.59349 0.0
H448 H 0.42258 0.60659 0.58408 0.0
H449 H 0.3563 0.55004 0.63689 0.0
H450 H 0.38323 0.56744 0.64794 0.0
H451 H 0.3795 0.54634 0.63023 0.0
C452 C 0.44191 0.57387 0.63743 0.0
C453 C 0.44666 0.56132 0.62381 0.0
C454 C 0.42786 0.5821 0.63199 0.0
C455 C 0.41824 0.57786 0.61289 0.0
C456 C 0.42359 0.56606 0.59902 0.0
H457 H 0.29904 0.57608 0.57458 0.0
H458 H 0.32921 0.56866 0.58201 0.0
C459 C 0.43761 0.55782 0.60443 0.0
C460 C 0.40186 0.58486 0.60757 0.0
H461 H 0.34992 0.57571 0.61907 0.0
C462 C 0.40671 0.59994 0.59175 0.0
C463 C 0.38108 0.5759 0.61747 0.0
C464 C 0.37454 0.55889 0.63397 0.0
C465 C 0.3913 0.60633 0.58558 0.0
C466 C 0.37063 0.59754 0.59563 0.0
C467 C 0.36584 0.58251 0.61147 0.0
C468 C 0.35321 0.60284 0.58952 0.0
C469 C 0.39697 0.62193 0.56804 0.0
C470 C 0.35676 0.62462 0.59106 0.0
C471 C 0.33948 0.62896 0.58675 0.0
C472 C 0.31835 0.61155 0.58097 0.0
C473 C 0.31508 0.58988 0.57901 0.0
C474 C 0.33231 0.58559 0.58327 0.0
H475 H 0.41127 0.62333 0.55932 0.0
H476 H 0.38239 0.6162 0.55792 0.0
H477 H 0.40152 0.63879 0.57356 0.0
H478 H 0.37266 0.63811 0.59616 0.0
H479 H 0.34249 0.6458 0.5885 0.0
H480 H 0.90474 0.43035 0.76107 0.0
H481 H 0.86582 0.40841 0.75025 0.0
H482 H 0.84492 0.39301 0.81172 0.0
H483 H 0.88382 0.41444 0.82254 0.0
H484 H 0.82565 0.35667 0.78969 0.0
H485 H 0.81607 0.42228 0.75139 0.0
H486 H 0.8388 0.41972 0.7416 0.0
H487 H 0.83974 0.42862 0.76704 0.0
C488 C 0.89178 0.42249 0.77226 0.0
C489 C 0.89728 0.42407 0.79264 0.0
C490 C 0.86954 0.41006 0.76607 0.0
C491 C 0.85236 0.39935 0.78018 0.0
C492 C 0.85786 0.40116 0.80056 0.0
H493 H 0.7092 0.33548 0.75783 0.0
H494 H 0.74811 0.36175 0.76667 0.0
C495 C 0.88008 0.41334 0.80672 0.0
C496 C 0.82879 0.38512 0.77374 0.0
H497 H 0.78716 0.38464 0.74589 0.0
C498 C 0.81722 0.36285 0.78021 0.0
C499 C 0.81765 0.39324 0.76158 0.0
C500 C 0.82862 0.41733 0.75516 0.0
C501 C 0.795 0.3484 0.77467 0.0
C502 C 0.78419 0.35621 0.76174 0.0
C503 C 0.79557 0.37858 0.75555 0.0
C504 C 0.76099 0.34135 0.75474 0.0
C505 C 0.78322 0.32502 0.78307 0.0
C506 C 0.75543 0.32157 0.74446 0.0
C507 C 0.73326 0.30648 0.73961 0.0
C508 C 0.71622 0.31105 0.7446 0.0
C509 C 0.72196 0.33148 0.75382 0.0
C510 C 0.74417 0.34649 0.75889 0.0
H511 H 0.79133 0.32386 0.79699 0.0
H512 H 0.76546 0.31934 0.78637 0.0
H513 H 0.78387 0.31345 0.77198 0.0
H514 H 0.7682 0.31756 0.74058 0.0
H515 H 0.72942 0.29101 0.73228 0.0
H516 H 0.50392 0.90314 0.95137 0.0
H517 H 0.4887 0.86442 0.9408 0.0
H518 H 0.42196 0.85228 0.95044 0.0
H519 H 0.43709 0.89107 0.96115 0.0
H520 H 0.46223 0.82673 0.96395 0.0
H521 H 0.41822 0.82646 0.89435 0.0
H522 H 0.43891 0.85191 0.9062 0.0
H523 H 0.41123 0.83659 0.91633 0.0
C524 C 0.486 0.89225 0.95126 0.0
C525 C 0.47172 0.90018 0.95717 0.0
C526 C 0.47732 0.87016 0.94511 0.0
C527 C 0.4542 0.85553 0.94463 0.0
C528 C 0.43984 0.8634 0.95031 0.0
H529 H 0.3811 0.71171 0.91909 0.0
H530 H 0.39011 0.74988 0.9275 0.0
C531 C 0.44852 0.88556 0.95644 0.0
C532 C 0.44537 0.8318 0.93922 0.0
H533 H 0.41429 0.79193 0.90456 0.0
C534 C 0.45172 0.81913 0.95099 0.0
C535 C 0.43151 0.82186 0.92239 0.0
C536 C 0.42465 0.83489 0.90896 0.0
C537 C 0.44481 0.79687 0.94627 0.0
C538 C 0.43146 0.78711 0.92915 0.0
C539 C 0.42457 0.79953 0.91765 0.0
C540 C 0.42556 0.76439 0.92252 0.0
C541 C 0.45189 0.78395 0.95964 0.0
C542 C 0.44242 0.76011 0.9164 0.0
C543 C 0.43737 0.73847 0.9116 0.0
C544 C 0.41531 0.72063 0.91275 0.0
C545 C 0.39826 0.72508 0.91811 0.0
C546 C 0.40336 0.74685 0.92291 0.0
H547 H 0.45708 0.79174 0.97464 0.0
H548 H 0.43817 0.76646 0.96148 0.0
H549 H 0.4663 0.78361 0.95277 0.0
H550 H 0.4596 0.77351 0.91571 0.0
H551 H 0.45089 0.73569 0.9074 0.0
H552 H 0.56933 0.45133 0.11952 0.0
H553 H 0.59214 0.43477 0.11033 0.0
H554 H 0.65177 0.49852 0.11849 0.0
H555 H 0.62926 0.51493 0.12855 0.0
H556 H 0.62217 0.44487 0.07966 0.0
H557 H 0.66473 0.45803 0.15261 0.0
H558 H 0.64046 0.461 0.14938 0.0
H559 H 0.66767 0.48335 0.14246 0.0
C560 C 0.58732 0.46176 0.11962 0.0
C561 C 0.59744 0.48446 0.1249 0.0
C562 C 0.60031 0.4523 0.11421 0.0
C563 C 0.62367 0.46531 0.11406 0.0
C564 C 0.6338 0.48804 0.11892 0.0
H565 H 0.7369 0.45508 0.07962 0.0
H566 H 0.70911 0.46576 0.0876 0.0
C567 C 0.62086 0.49748 0.1244 0.0
C568 C 0.63754 0.4553 0.10861 0.0
H569 H 0.68078 0.44901 0.12505 0.0
C570 C 0.6348 0.44551 0.08966 0.0
C571 C 0.65391 0.456 0.12175 0.0
C572 C 0.65674 0.46495 0.14276 0.0
C573 C 0.64863 0.43726 0.08322 0.0
C574 C 0.66551 0.4388 0.09608 0.0
C575 C 0.66787 0.44802 0.11519 0.0
C576 C 0.68164 0.43191 0.08974 0.0
C577 C 0.64568 0.42763 0.0625 0.0
C578 C 0.67529 0.40928 0.08815 0.0
C579 C 0.6912 0.40306 0.08367 0.0
C580 C 0.71367 0.41941 0.08069 0.0
C581 C 0.71976 0.44205 0.0818 0.0
C582 C 0.70392 0.44822 0.08638 0.0
H583 H 0.63331 0.42972 0.05359 0.0
H584 H 0.66188 0.43573 0.05446 0.0
H585 H 0.63995 0.40955 0.06358 0.0
H586 H 0.65817 0.39647 0.09087 0.0
H587 H 0.68599 0.38549 0.08296 0.0
H588 H 0.45214 0.89763 0.54093 0.0
H589 H 0.43095 0.85858 0.55181 0.0
H590 H 0.37057 0.85377 0.52872 0.0
H591 H 0.39161 0.89269 0.51771 0.0
H592 H 0.39093 0.83867 0.57858 0.0
H593 H 0.37572 0.80069 0.5029 0.0
H594 H 0.39796 0.82873 0.50803 0.0
H595 H 0.36974 0.82301 0.50587 0.0
C596 C 0.43437 0.88819 0.53807 0.0
C597 C 0.42353 0.8982 0.52844 0.0
C598 C 0.42231 0.86596 0.54437 0.0
C599 C 0.39928 0.85331 0.5409 0.0
C600 C 0.38839 0.86324 0.53137 0.0
H601 H 0.29151 0.73161 0.58607 0.0
H602 H 0.31934 0.77021 0.57837 0.0
C603 C 0.40039 0.8855 0.52522 0.0
C604 C 0.38646 0.82975 0.54744 0.0
H605 H 0.3556 0.77655 0.52977 0.0
C606 C 0.38335 0.82505 0.56795 0.0
C607 C 0.37682 0.81205 0.5335 0.0
C608 C 0.3803 0.81623 0.51133 0.0
C609 C 0.37012 0.80308 0.57489 0.0
C610 C 0.35975 0.78547 0.56093 0.0
C611 C 0.36354 0.79011 0.54044 0.0
C612 C 0.34387 0.76229 0.56718 0.0
C613 C 0.36715 0.79885 0.59709 0.0
C614 C 0.34846 0.74504 0.56344 0.0
C615 C 0.3326 0.72291 0.56792 0.0
C616 C 0.31174 0.71767 0.5759 0.0
C617 C 0.3074 0.73508 0.57995 0.0
C618 C 0.32332 0.75717 0.57564 0.0
H619 H 0.38031 0.81302 0.60575 0.0
H620 H 0.35073 0.79658 0.60164 0.0
H621 H 0.36745 0.78341 0.60104 0.0
H622 H 0.36419 0.74869 0.55678 0.0
H623 H 0.33639 0.70986 0.56454 0.0
H624 H 0.54853 0.42407 0.66686 0.0
H625 H 0.56263 0.4003 0.6791 0.0
H626 H 0.58099 0.43627 0.7349 0.0
H627 H 0.56561 0.45926 0.72327 0.0
H628 H 0.60313 0.40917 0.69065 0.0
H629 H 0.54449 0.37317 0.75446 0.0
H630 H 0.54124 0.38967 0.73534 0.0
H631 H 0.56124 0.40302 0.75507 0.0
C632 C 0.55522 0.42675 0.68188 0.0
C633 C 0.55558 0.44343 0.69416 0.0
C634 C 0.56352 0.41327 0.68877 0.0
C635 C 0.57252 0.41621 0.70806 0.0
C636 C 0.57365 0.43332 0.72014 0.0
H637 H 0.64262 0.34357 0.7408 0.0
H638 H 0.63502 0.37404 0.7344 0.0
C639 C 0.56511 0.44668 0.71333 0.0
C640 C 0.58051 0.40115 0.71538 0.0
H641 H 0.57191 0.36264 0.75134 0.0
C642 C 0.59639 0.39906 0.70397 0.0
C643 C 0.57154 0.38782 0.73268 0.0
C644 C 0.55354 0.38832 0.74501 0.0
C645 C 0.60317 0.38367 0.70909 0.0
C646 C 0.59432 0.37045 0.72646 0.0
C647 C 0.57884 0.37292 0.73813 0.0
C648 C 0.59926 0.35253 0.73181 0.0
C649 C 0.61895 0.38102 0.6953 0.0
C650 C 0.58166 0.33045 0.73336 0.0
C651 C 0.58591 0.31314 0.73735 0.0
C652 C 0.6079 0.31748 0.7398 0.0
C653 C 0.62552 0.33968 0.73882 0.0
C654 C 0.62121 0.35708 0.73502 0.0
H655 H 0.61985 0.38839 0.68034 0.0
H656 H 0.63595 0.38969 0.70184 0.0
H657 H 0.61378 0.36315 0.69333 0.0
H658 H 0.56459 0.32651 0.731 0.0
H659 H 0.57193 0.29626 0.73801 0.0
H660 H 0.11826 0.52694 0.89105 0.0
H661 H 0.15741 0.54385 0.90091 0.0
H662 H 0.17765 0.57463 0.84289 0.0
H663 H 0.13857 0.55717 0.83266 0.0
H664 H 0.19986 0.55298 0.8542 0.0
H665 H 0.20236 0.60833 0.91523 0.0
H666 H 0.18069 0.57981 0.91818 0.0
H667 H 0.17979 0.59582 0.89741 0.0
C668 C 0.13103 0.53731 0.88037 0.0
C669 C 0.12526 0.5407 0.86106 0.0
C670 C 0.1534 0.5472 0.88613 0.0
C671 C 0.17044 0.56081 0.87275 0.0
C672 C 0.16475 0.56436 0.85352 0.0
H673 H 0.31329 0.63887 0.89916 0.0
H674 H 0.27453 0.62751 0.8908 0.0
C675 C 0.1424 0.55447 0.84774 0.0
C676 C 0.19421 0.57012 0.87834 0.0
H677 H 0.23359 0.6026 0.91282 0.0
C678 C 0.20727 0.56396 0.86693 0.0
C679 C 0.20393 0.58465 0.89483 0.0
C680 C 0.19105 0.59274 0.90702 0.0
C681 C 0.2296 0.57143 0.87185 0.0
C682 C 0.23903 0.58515 0.88884 0.0
C683 C 0.22622 0.59187 0.89994 0.0
C684 C 0.26209 0.5923 0.8954 0.0
C685 C 0.24294 0.56463 0.85876 0.0
C686 C 0.26774 0.57633 0.90133 0.0
C687 C 0.28977 0.58272 0.90608 0.0
C688 C 0.3066 0.60527 0.90511 0.0
C689 C 0.30073 0.62138 0.9 0.0
C690 C 0.27862 0.61493 0.89521 0.0
H691 H 0.2353 0.55915 0.84374 0.0
H692 H 0.26032 0.57859 0.85693 0.0
H693 H 0.24359 0.55047 0.86585 0.0
H694 H 0.25514 0.55882 0.90193 0.0
H695 H 0.29366 0.56989 0.91011 0.0
H696 H 0.57892 0.14087 0.99907 0.0
H697 H 0.60286 0.17976 0.00919 0.0
H698 H 0.61068 0.15815 0.06752 0.0
H699 H 0.58624 0.11924 0.05775 0.0
H700 H 0.60375 0.19544 0.0681 0.0
H701 H 0.67086 0.20713 0.01542 0.0
H702 H 0.64392 0.19734 0.00428 0.0
H703 H 0.6479 0.17994 0.02177 0.0
C704 C 0.58544 0.14439 0.01416 0.0
C705 C 0.5808 0.12693 0.02756 0.0
C706 C 0.59927 0.16662 0.01985 0.0
C707 C 0.60879 0.1718 0.039 0.0
C708 C 0.60359 0.15449 0.05263 0.0
H709 H 0.72655 0.28932 0.07941 0.0
H710 H 0.69683 0.25176 0.07117 0.0
C711 C 0.58978 0.13226 0.04697 0.0
C712 C 0.62487 0.19518 0.04462 0.0
H713 H 0.67664 0.23868 0.03374 0.0
C714 C 0.61966 0.20497 0.06056 0.0
C715 C 0.64571 0.20743 0.03489 0.0
C716 C 0.65261 0.19743 0.01825 0.0
C717 C 0.63479 0.22674 0.06704 0.0
C718 C 0.65552 0.23904 0.05717 0.0
C719 C 0.66066 0.22925 0.0412 0.0
C720 C 0.67268 0.26172 0.06365 0.0
C721 C 0.62875 0.23619 0.0847 0.0
C722 C 0.66889 0.27981 0.06236 0.0
C723 C 0.68591 0.30141 0.06712 0.0
C724 C 0.70701 0.30525 0.07313 0.0
C725 C 0.71052 0.28699 0.07481 0.0
C726 C 0.69355 0.26548 0.07008 0.0
H727 H 0.6144 0.22304 0.09319 0.0
H728 H 0.64317 0.24495 0.09499 0.0
H729 H 0.62411 0.2485 0.07934 0.0
H730 H 0.653 0.27732 0.05712 0.0
H731 H 0.68272 0.31515 0.06557 0.0
H732 H 0.51697 0.62911 0.20097 0.0
H733 H 0.50057 0.65141 0.21203 0.0
H734 H 0.43466 0.59494 0.20343 0.0
H735 H 0.45095 0.57249 0.19228 0.0
H736 H 0.47267 0.66125 0.1899 0.0
H737 H 0.43084 0.61619 0.25966 0.0
H738 H 0.45185 0.6124 0.24722 0.0
H739 H 0.42384 0.59904 0.2377 0.0
C740 C 0.49898 0.62142 0.20142 0.0
C741 C 0.48527 0.59902 0.19572 0.0
C742 C 0.48964 0.63415 0.20784 0.0
C743 C 0.4664 0.62476 0.20879 0.0
C744 C 0.45263 0.60238 0.20324 0.0
H745 H 0.38559 0.68681 0.23444 0.0
H746 H 0.39768 0.65988 0.22636 0.0
C747 C 0.46197 0.58959 0.19685 0.0
C748 C 0.45675 0.63885 0.21456 0.0
H749 H 0.42418 0.64513 0.24939 0.0
C750 C 0.46209 0.65773 0.20292 0.0
C751 C 0.44282 0.63412 0.23148 0.0
C752 C 0.4371 0.61445 0.24487 0.0
C753 C 0.45395 0.67206 0.20774 0.0
C754 C 0.44036 0.66758 0.22484 0.0
C755 C 0.43463 0.64849 0.2363 0.0
C756 C 0.43271 0.68311 0.23132 0.0
C757 C 0.45986 0.69185 0.19441 0.0
C758 C 0.44834 0.70481 0.23735 0.0
C759 C 0.44154 0.72016 0.24195 0.0
C760 C 0.41892 0.71408 0.24071 0.0
C761 C 0.40313 0.69202 0.23549 0.0
C762 C 0.41 0.67662 0.23088 0.0
H763 H 0.46556 0.68984 0.17944 0.0
H764 H 0.44537 0.69442 0.19248 0.0
H765 H 0.4736 0.70709 0.20138 0.0
H766 H 0.46591 0.71001 0.2381 0.0
H767 H 0.45412 0.73695 0.24606 0.0
H768 H 0.90404 0.47626 0.39203 0.0
H769 H 0.86487 0.46078 0.40117 0.0
H770 H 0.84498 0.4322 0.34232 0.0
H771 H 0.88416 0.44832 0.33281 0.0
H772 H 0.82488 0.45563 0.35335 0.0
H773 H 0.81632 0.39749 0.41406 0.0
H774 H 0.83921 0.42523 0.4179 0.0
H775 H 0.83959 0.40915 0.39693 0.0
C776 C 0.89134 0.46663 0.38103 0.0
C777 C 0.89726 0.46357 0.36167 0.0
C778 C 0.86893 0.45753 0.38638 0.0
C779 C 0.85197 0.44502 0.37254 0.0
C780 C 0.85779 0.44161 0.3533 0.0
H781 H 0.70843 0.37837 0.39835 0.0
H782 H 0.74595 0.38548 0.38988 0.0
C783 C 0.8802 0.45073 0.34793 0.0
C784 C 0.8283 0.43711 0.3776 0.0
H785 H 0.78746 0.40699 0.41179 0.0
C786 C 0.81664 0.4448 0.366 0.0
C787 C 0.81746 0.42278 0.39398 0.0
C788 C 0.82871 0.41299 0.40632 0.0
C789 C 0.79472 0.43921 0.37074 0.0
C790 C 0.7843 0.42586 0.38773 0.0
C791 C 0.79561 0.41745 0.39892 0.0
C792 C 0.76194 0.42116 0.39435 0.0
C793 C 0.78291 0.44771 0.35752 0.0
C794 C 0.7587 0.43876 0.40025 0.0
C795 C 0.73741 0.43479 0.40506 0.0
C796 C 0.7189 0.41307 0.40419 0.0
C797 C 0.72233 0.39528 0.39912 0.0
C798 C 0.74372 0.39931 0.39427 0.0
H799 H 0.79066 0.45243 0.34247 0.0
H800 H 0.76502 0.43497 0.35577 0.0
H801 H 0.78393 0.46276 0.36444 0.0
H802 H 0.77262 0.45569 0.40077 0.0
H803 H 0.73541 0.44885 0.40906 0.0
H804 H 0.07722 0.55853 0.42684 0.0
H805 H 0.10672 0.5725 0.45202 0.0
H806 H 0.1545 0.58039 0.4068 0.0
H807 H 0.12525 0.56723 0.38135 0.0
H808 H 0.13299 0.55488 0.46317 0.0
H809 H 0.18503 0.64114 0.43436 0.0
H810 H 0.15681 0.62289 0.426 0.0
H811 H 0.17927 0.61966 0.41638 0.0
C812 C 0.09407 0.56357 0.42217 0.0
C813 C 0.09889 0.56188 0.40205 0.0
C814 C 0.11087 0.57139 0.43661 0.0
C815 C 0.13285 0.57775 0.43124 0.0
C816 C 0.13773 0.57595 0.41121 0.0
H817 H 0.23462 0.59483 0.518 0.0
H818 H 0.20895 0.58271 0.48959 0.0
C819 C 0.12093 0.56816 0.39674 0.0
C820 C 0.15045 0.58568 0.44677 0.0
H821 H 0.19998 0.63041 0.46122 0.0
C822 C 0.14766 0.57138 0.46275 0.0
C823 C 0.16944 0.6073 0.44625 0.0
C824 C 0.1728 0.62375 0.42994 0.0
C825 C 0.16335 0.5781 0.47825 0.0
C826 C 0.18257 0.59956 0.47755 0.0
C827 C 0.18535 0.61388 0.46159 0.0
C828 C 0.1994 0.60781 0.49377 0.0
C829 C 0.15888 0.5624 0.49554 0.0
C830 C 0.20319 0.62647 0.50503 0.0
C831 C 0.21797 0.63356 0.52116 0.0
C832 C 0.2293 0.62213 0.52632 0.0
C833 C 0.22605 0.6039 0.51454 0.0
C834 C 0.21129 0.59687 0.49836 0.0
H835 H 0.1411 0.54901 0.49617 0.0
H836 H 0.1692 0.55437 0.49381 0.0
H837 H 0.16335 0.57155 0.50996 0.0
H838 H 0.19426 0.63521 0.50166 0.0
H839 H 0.22012 0.6477 0.52985 0.0
H840 H 0.5609 0.09721 0.57014 0.0
H841 H 0.57792 0.12685 0.59511 0.0
H842 H 0.52129 0.13676 0.59175 0.0
H843 H 0.50425 0.10736 0.56646 0.0
H844 H 0.5884 0.17287 0.5916 0.0
H845 H 0.52752 0.12646 0.65212 0.0
H846 H 0.53051 0.11276 0.63036 0.0
H847 H 0.51583 0.12796 0.62857 0.0
C848 C 0.55213 0.10582 0.57454 0.0
C849 C 0.53118 0.09988 0.5663 0.0
C850 C 0.56185 0.12268 0.58888 0.0
C851 C 0.55076 0.13381 0.59538 0.0
C852 C 0.52995 0.1281 0.58713 0.0
H853 H 0.58198 0.23217 0.68893 0.0
H854 H 0.56537 0.20702 0.66052 0.0
C855 C 0.52021 0.11126 0.57273 0.0
C856 C 0.56106 0.1514 0.61082 0.0
H857 H 0.55504 0.16362 0.65898 0.0
C858 C 0.58114 0.17091 0.60634 0.0
C859 C 0.55145 0.14875 0.62996 0.0
C860 C 0.53023 0.12781 0.6357 0.0
C861 C 0.59185 0.18799 0.62053 0.0
C862 C 0.58243 0.18519 0.63981 0.0
C863 C 0.56221 0.16575 0.64418 0.0
C864 C 0.59343 0.20193 0.6559 0.0
C865 C 0.61293 0.20897 0.61464 0.0
C866 C 0.61481 0.20754 0.66266 0.0
C867 C 0.62443 0.22203 0.67885 0.0
C868 C 0.61272 0.23096 0.68874 0.0
C869 C 0.59146 0.22559 0.68169 0.0
C870 C 0.58192 0.2112 0.66546 0.0
H871 H 0.61421 0.21129 0.59817 0.0
H872 H 0.61379 0.22392 0.62164 0.0
H873 H 0.62756 0.20779 0.61973 0.0
H874 H 0.6238 0.2002 0.65581 0.0
H875 H 0.64075 0.22568 0.68397 0.0
H876 H 0.44821 0.56423 0.70937 0.0
H877 H 0.43502 0.5812 0.73402 0.0
H878 H 0.46657 0.56421 0.78103 0.0
H879 H 0.48022 0.54778 0.75641 0.0
H880 H 0.40788 0.56401 0.76512 0.0
H881 H 0.49043 0.62909 0.79245 0.0
H882 H 0.48721 0.61291 0.7703 0.0
H883 H 0.48717 0.60181 0.79466 0.0
C884 C 0.45232 0.56416 0.72498 0.0
C885 C 0.46538 0.55487 0.73099 0.0
C886 C 0.44484 0.5739 0.73903 0.0
C887 C 0.45022 0.57444 0.75933 0.0
C888 C 0.46282 0.56466 0.76538 0.0
H889 H 0.38233 0.58635 0.86173 0.0
H890 H 0.39471 0.57443 0.83256 0.0
C891 C 0.47051 0.55517 0.75133 0.0
C892 C 0.4421 0.58456 0.77429 0.0
H893 H 0.4591 0.62129 0.81321 0.0
C894 C 0.41911 0.57672 0.7755 0.0
C895 C 0.45677 0.6015 0.78756 0.0
C896 C 0.48178 0.61199 0.78604 0.0
C897 C 0.41031 0.58471 0.79011 0.0
C898 C 0.42484 0.60049 0.80427 0.0
C899 C 0.44791 0.60897 0.80255 0.0
C900 C 0.41649 0.60783 0.82143 0.0
C901 C 0.38555 0.57623 0.79009 0.0
C902 C 0.42504 0.63064 0.82525 0.0
C903 C 0.4183 0.63756 0.84219 0.0
C904 C 0.40282 0.62178 0.85561 0.0
C905 C 0.39409 0.59895 0.8516 0.0
C906 C 0.40103 0.59208 0.83481 0.0
H907 H 0.37835 0.57081 0.77491 0.0
H908 H 0.37715 0.56152 0.80011 0.0
H909 H 0.38176 0.58916 0.79543 0.0
H910 H 0.43709 0.64311 0.8152 0.0
H911 H 0.42534 0.65526 0.84485 0.0
H912 H 0.94554 0.4471 0.92538 0.0
H913 H 0.91654 0.43524 0.95087 0.0
H914 H 0.86964 0.43082 0.90616 0.0
H915 H 0.8983 0.44179 0.88041 0.0
H916 H 0.89369 0.4562 0.96223 0.0
H917 H 0.83505 0.37096 0.93447 0.0
H918 H 0.86337 0.38709 0.92557 0.0
H919 H 0.8422 0.39252 0.91623 0.0
C920 C 0.92896 0.44322 0.92088 0.0
C921 C 0.92423 0.44531 0.90082 0.0
C922 C 0.91244 0.43661 0.93551 0.0
C923 C 0.89086 0.43188 0.93038 0.0
C924 C 0.88606 0.43398 0.9104 0.0
H925 H 0.7942 0.42706 0.01691 0.0
H926 H 0.81979 0.4364 0.98867 0.0
C927 C 0.90256 0.44053 0.89574 0.0
C928 C 0.87368 0.4256 0.94613 0.0
H929 H 0.82219 0.3844 0.961 0.0
C930 C 0.87806 0.4405 0.96198 0.0
C931 C 0.8534 0.405 0.94585 0.0
C932 C 0.84825 0.38785 0.92973 0.0
C933 C 0.86269 0.43543 0.97755 0.0
C934 C 0.84216 0.41508 0.97702 0.0
C935 C 0.83782 0.4001 0.96123 0.0
C936 C 0.82543 0.40865 0.99319 0.0
C937 C 0.86882 0.45165 0.99468 0.0
C938 C 0.81943 0.38947 0.0046 0.0
C939 C 0.80467 0.38397 0.02062 0.0
C940 C 0.79557 0.39754 0.02554 0.0
C941 C 0.80103 0.41635 0.01365 0.0
C942 C 0.81575 0.42179 0.99756 0.0
H943 H 0.88707 0.46352 0.9953 0.0
H944 H 0.8603 0.46148 0.99273 0.0
H945 H 0.86346 0.44271 0.00918 0.0
H946 H 0.82662 0.37905 0.0014 0.0
H947 H 0.80078 0.36932 0.0294 0.0
H948 H 0.49442 0.94686 0.09126 0.0
H949 H 0.47879 0.91747 0.11654 0.0
H950 H 0.43728 0.86997 0.07177 0.0
H951 H 0.45345 0.89908 0.04622 0.0
H952 H 0.43497 0.89223 0.12824 0.0
H953 H 0.46643 0.83812 0.09879 0.0
H954 H 0.47702 0.86643 0.09037 0.0
H955 H 0.45089 0.84438 0.08103 0.0
C956 C 0.48224 0.93009 0.0867 0.0
C957 C 0.47527 0.92531 0.06668 0.0
C958 C 0.47321 0.91335 0.1012 0.0
C959 C 0.45709 0.89148 0.09599 0.0
C960 C 0.44999 0.88664 0.07606 0.0
H961 H 0.37146 0.79102 0.18328 0.0
H962 H 0.38533 0.81668 0.15486 0.0
C963 C 0.45906 0.90337 0.06152 0.0
C964 C 0.44725 0.87399 0.11159 0.0
H965 H 0.44094 0.82377 0.12583 0.0
C966 C 0.43625 0.87725 0.12772 0.0
C967 C 0.44915 0.85458 0.11095 0.0
C968 C 0.46168 0.85068 0.09446 0.0
C969 C 0.42706 0.86161 0.14326 0.0
C970 C 0.42855 0.84197 0.14241 0.0
C971 C 0.4396 0.83873 0.12631 0.0
C972 C 0.41973 0.82517 0.15864 0.0
C973 C 0.41641 0.86657 0.1607 0.0
C974 C 0.43432 0.82078 0.16968 0.0
C975 C 0.42645 0.80601 0.18581 0.0
C976 C 0.40377 0.79528 0.1912 0.0
C977 C 0.38904 0.79912 0.17965 0.0
C978 C 0.39695 0.81387 0.16347 0.0
H979 H 0.42136 0.8845 0.16137 0.0
H980 H 0.398 0.85672 0.15914 0.0
H981 H 0.42101 0.86186 0.17504 0.0
H982 H 0.45195 0.82925 0.16613 0.0
H983 H 0.43826 0.8034 0.19431 0.0
H984 H 0.55418 0.48873 0.25609 0.0
H985 H 0.56693 0.47182 0.28099 0.0
H986 H 0.61285 0.47057 0.23821 0.0
H987 H 0.59954 0.48669 0.21289 0.0
H988 H 0.58958 0.43104 0.25893 0.0
H989 H 0.62572 0.50274 0.31115 0.0
H990 H 0.59711 0.49332 0.30514 0.0
H991 H 0.61797 0.5049 0.28585 0.0
C992 C 0.56688 0.48471 0.2519 0.0
C993 C 0.57586 0.48911 0.23248 0.0
C994 C 0.57434 0.4753 0.26624 0.0
C995 C 0.5911 0.4703 0.26155 0.0
C996 C 0.60002 0.47448 0.24217 0.0
H997 H 0.65964 0.43866 0.35366 0.0
H998 H 0.65097 0.4548 0.325 0.0
C999 C 0.59252 0.48385 0.22777 0.0
C1000 C 0.59896 0.46028 0.27682 0.0
H1001 H 0.62078 0.46834 0.3238 0.0
C1002 C 0.59657 0.43924 0.27306 0.0
C1003 C 0.6084 0.47118 0.2951 0.0
C1004 C 0.61268 0.49438 0.2995 0.0
C1005 C 0.60277 0.4285 0.28737 0.0
C1006 C 0.61116 0.43893 0.30606 0.0
C1007 C 0.61413 0.46025 0.30955 0.0
C1008 C 0.61678 0.42804 0.32234 0.0
C1009 C 0.60046 0.40622 0.28226 0.0
C1010 C 0.60047 0.40753 0.33032 0.0
C1011 C 0.60541 0.39815 0.34665 0.0
C1012 C 0.62669 0.40928 0.35549 0.0
C1013 C 0.64307 0.42966 0.34726 0.0
C1014 C 0.63815 0.43893 0.33087 0.0
H1015 H 0.60037 0.40382 0.26584 0.0
H1016 H 0.61421 0.40448 0.2889 0.0
H1017 H 0.58443 0.39272 0.28829 0.0
H1018 H 0.58371 0.39908 0.32428 0.0
H1019 H 0.59237 0.38252 0.3527 0.0
H1020 H 0.42055 0.89777 0.43894 0.0
H1021 H 0.40795 0.86866 0.41342 0.0
H1022 H 0.45765 0.91537 0.37269 0.0
H1023 H 0.46962 0.94481 0.39771 0.0
H1024 H 0.41738 0.89134 0.35495 0.0
H1025 H 0.43891 0.8349 0.39585 0.0
H1026 H 0.42057 0.84157 0.40929 0.0
H1027 H 0.44854 0.86322 0.4037 0.0
C1028 C 0.42869 0.90191 0.4245 0.0
C1029 C 0.44619 0.92364 0.42043 0.0
C1030 C 0.42166 0.88515 0.41002 0.0
C1031 C 0.43214 0.88974 0.39129 0.0
C1032 C 0.44945 0.91142 0.38712 0.0
H1033 H 0.42871 0.79985 0.30016 0.0
H1034 H 0.43761 0.82546 0.32829 0.0
C1035 C 0.4564 0.92819 0.40151 0.0
C1036 C 0.42478 0.87219 0.37573 0.0
H1037 H 0.41904 0.82125 0.36544 0.0
C1038 C 0.41772 0.87601 0.35724 0.0
C1039 C 0.42548 0.85231 0.3787 0.0
C1040 C 0.43397 0.84778 0.39788 0.0
C1041 C 0.4114 0.86053 0.34159 0.0
C1042 C 0.41161 0.84041 0.34469 0.0
C1043 C 0.41867 0.83658 0.36318 0.0
C1044 C 0.40547 0.82361 0.32861 0.0
C1045 C 0.40521 0.86621 0.3217 0.0
C1046 C 0.38423 0.81358 0.31982 0.0
C1047 C 0.37915 0.79907 0.30364 0.0
C1048 C 0.39512 0.79408 0.2961 0.0
C1049 C 0.41604 0.80336 0.30555 0.0
C1050 C 0.42116 0.818 0.32164 0.0
H1051 H 0.41145 0.88438 0.32026 0.0
H1052 H 0.412 0.86093 0.30914 0.0
H1053 H 0.38678 0.85736 0.32028 0.0
H1054 H 0.37169 0.81724 0.32529 0.0
H1055 H 0.36279 0.79202 0.29686 0.0
H1056 H 0.58319 0.49592 0.58199 0.0
H1057 H 0.5985 0.48195 0.55655 0.0
H1058 H 0.53901 0.41732 0.55932 0.0
H1059 H 0.52369 0.43099 0.58503 0.0
H1060 H 0.6058 0.44419 0.5585 0.0
H1061 H 0.54547 0.43542 0.49941 0.0
H1062 H 0.54999 0.45193 0.52164 0.0
H1063 H 0.53334 0.42207 0.52278 0.0
C1064 C 0.57345 0.47866 0.57737 0.0
C1065 C 0.55215 0.4646 0.5855 0.0
C1066 C 0.58219 0.47075 0.56277 0.0
C1067 C 0.56976 0.44871 0.55592 0.0
C1068 C 0.54869 0.43451 0.56419 0.0
H1069 H 0.58894 0.3738 0.46217 0.0
H1070 H 0.57565 0.38573 0.49078 0.0
C1071 C 0.53994 0.44237 0.57882 0.0
C1072 C 0.57879 0.44063 0.53998 0.0
H1073 H 0.56996 0.42197 0.49184 0.0
C1074 C 0.59803 0.43935 0.54389 0.0
C1075 C 0.56856 0.43435 0.521 0.0
C1076 C 0.5483 0.43614 0.5158 0.0
C1077 C 0.60714 0.43157 0.52936 0.0
C1078 C 0.59695 0.42536 0.51033 0.0
C1079 C 0.57771 0.42668 0.50646 0.0
C1080 C 0.60594 0.41757 0.49407 0.0
C1081 C 0.62727 0.42961 0.53466 0.0
C1082 C 0.62747 0.43145 0.48647 0.0
C1083 C 0.6352 0.42463 0.47014 0.0
C1084 C 0.62141 0.40389 0.46096 0.0
C1085 C 0.59999 0.38989 0.46884 0.0
C1086 C 0.59234 0.39668 0.4852 0.0
H1087 H 0.62916 0.42898 0.5511 0.0
H1088 H 0.6262 0.41447 0.52788 0.0
H1089 H 0.64249 0.44441 0.52886 0.0
H1090 H 0.63807 0.44785 0.4928 0.0
H1091 H 0.65172 0.43589 0.46437 0.0
H1092 H 0.10039 0.5031 0.7472 0.0
H1093 H 0.13049 0.52071 0.72264 0.0
H1094 H 0.13433 0.58402 0.73308 0.0
H1095 H 0.1048 0.56673 0.75811 0.0
H1096 H 0.12995 0.54219 0.68787 0.0
H1097 H 0.19953 0.60005 0.73703 0.0
H1098 H 0.174 0.57705 0.74667 0.0
H1099 H 0.17499 0.60248 0.73919 0.0
C1100 C 0.1079 0.52085 0.74453 0.0
C1101 C 0.10021 0.53352 0.75464 0.0
C1102 C 0.12501 0.53085 0.73041 0.0
C1103 C 0.13485 0.55373 0.72625 0.0
C1104 C 0.12727 0.56643 0.73635 0.0
H1105 H 0.22794 0.64345 0.63805 0.0
H1106 H 0.20217 0.62634 0.66609 0.0
C1107 C 0.11018 0.55646 0.75045 0.0
C1108 C 0.15218 0.56404 0.71055 0.0
H1109 H 0.20574 0.60548 0.70194 0.0
C1110 C 0.14658 0.5559 0.69096 0.0
C1111 C 0.17383 0.58199 0.71464 0.0
C1112 C 0.18107 0.5908 0.73555 0.0
C1113 C 0.16188 0.56554 0.67525 0.0
C1114 C 0.18348 0.58356 0.67931 0.0
C1115 C 0.18915 0.59166 0.6989 0.0
C1116 C 0.2003 0.59432 0.66328 0.0
C1117 C 0.15462 0.55672 0.65433 0.0
C1118 C 0.20822 0.58214 0.6528 0.0
C1119 C 0.22291 0.59182 0.63679 0.0
C1120 C 0.23005 0.61394 0.631 0.0
C1121 C 0.22273 0.62637 0.64205 0.0
C1122 C 0.20801 0.61664 0.65808 0.0
H1123 H 0.13617 0.54655 0.65304 0.0
H1124 H 0.1608 0.5706 0.64337 0.0
H1125 H 0.16168 0.54597 0.65026 0.0
H1126 H 0.20277 0.56501 0.65684 0.0
H1127 H 0.22832 0.58181 0.62872 0.0
H1128 H 0.53383 0.10705 0.92216 0.0
H1129 H 0.54722 0.1355 0.89595 0.0
H1130 H 0.60472 0.12787 0.88706 0.0
H1131 H 0.59112 0.0989 0.91277 0.0
H1132 H 0.58774 0.17625 0.89309 0.0
H1133 H 0.57786 0.1189 0.8309 0.0
H1134 H 0.56529 0.10899 0.85511 0.0
H1135 H 0.5944 0.11851 0.85139 0.0
C1136 C 0.54922 0.11127 0.91449 0.0
C1137 C 0.56131 0.10056 0.91944 0.0
C1138 C 0.55692 0.12764 0.89964 0.0
C1139 C 0.57678 0.13354 0.88938 0.0
C1140 C 0.58916 0.12328 0.89457 0.0
H1141 H 0.64786 0.22299 0.79164 0.0
H1142 H 0.63645 0.19769 0.82021 0.0
C1143 C 0.58147 0.1069 0.90942 0.0
C1144 C 0.58448 0.15036 0.87319 0.0
H1145 H 0.59614 0.15746 0.8233 0.0
C1146 C 0.58952 0.17217 0.87781 0.0
C1147 C 0.58674 0.14492 0.85328 0.0
C1148 C 0.58061 0.12152 0.84727 0.0
C1149 C 0.59718 0.18884 0.86308 0.0
C1150 C 0.59951 0.18341 0.84319 0.0
C1151 C 0.59442 0.16158 0.83858 0.0
C1152 C 0.6071 0.20001 0.82682 0.0
C1153 C 0.60314 0.21221 0.86898 0.0
C1154 C 0.59439 0.20976 0.8211 0.0
C1155 C 0.60087 0.22427 0.80476 0.0
C1156 C 0.62011 0.22917 0.79375 0.0
C1157 C 0.63296 0.21961 0.79975 0.0
C1158 C 0.62646 0.20512 0.81608 0.0
H1159 H 0.60578 0.21489 0.88535 0.0
H1160 H 0.61846 0.22476 0.86114 0.0
H1161 H 0.58931 0.21511 0.8647 0.0
H1162 H 0.57915 0.20571 0.82897 0.0
H1163 H 0.59053 0.23126 0.8005 0.0
H1164 H 0.51555 0.61038 0.08429 0.0
H1165 H 0.49884 0.62278 0.05874 0.0
H1166 H 0.4403 0.55736 0.05785 0.0
H1167 H 0.45697 0.54466 0.08306 0.0
H1168 H 0.48402 0.60368 0.01983 0.0
H1169 H 0.41534 0.60026 0.0654 0.0
H1170 H 0.4394 0.60074 0.07639 0.0
H1171 H 0.41732 0.57535 0.06594 0.0
C1172 C 0.49917 0.59858 0.07859 0.0
C1173 C 0.48758 0.57652 0.08579 0.0
C1174 C 0.4896 0.60575 0.0641 0.0
C1175 C 0.46822 0.59108 0.05666 0.0
C1176 C 0.45662 0.56907 0.06373 0.0
H1177 H 0.38162 0.59444 0.96557 0.0
H1178 H 0.3984 0.58544 0.99361 0.0
C1179 C 0.46619 0.56186 0.07816 0.0
C1180 C 0.45837 0.59847 0.04088 0.0
H1181 H 0.41417 0.60579 0.03049 0.0
C1182 C 0.46885 0.60434 0.02217 0.0
C1183 C 0.43854 0.59917 0.04402 0.0
C1184 C 0.42704 0.59374 0.06406 0.0
C1185 C 0.4597 0.61035 0.00628 0.0
C1186 C 0.4398 0.61099 0.00937 0.0
C1187 C 0.42943 0.6053 0.02817 0.0
C1188 C 0.42927 0.61707 0.99314 0.0
C1189 C 0.47104 0.61525 0.98616 0.0
C1190 C 0.44083 0.63806 0.98393 0.0
C1191 C 0.43134 0.64322 0.96784 0.0
C1192 C 0.41 0.62756 0.96079 0.0
C1193 C 0.3981 0.60686 0.97058 0.0
C1194 C 0.40766 0.60169 0.98661 0.0
H1195 H 0.48253 0.60846 0.98496 0.0
H1196 H 0.45861 0.60814 0.9739 0.0
H1197 H 0.481 0.63358 0.98401 0.0
H1198 H 0.4573 0.65037 0.98905 0.0
H1199 H 0.44089 0.65939 0.96079 0.0
H1200 H 0.89699 0.46343 0.27648 0.0
H1201 H 0.8669 0.44613 0.2518 0.0
H1202 H 0.91561 0.46435 0.20478 0.0
H1203 H 0.94566 0.48116 0.22942 0.0
H1204 H 0.85648 0.46309 0.22069 0.0
H1205 H 0.87568 0.3992 0.19331 0.0
H1206 H 0.88835 0.41543 0.21551 0.0
H1207 H 0.89931 0.42675 0.19118 0.0
C1208 C 0.90123 0.46372 0.26087 0.0
C1209 C 0.92363 0.47347 0.25486 0.0
C1210 C 0.88405 0.45379 0.2468 0.0
C1211 C 0.88897 0.4535 0.22648 0.0
C1212 C 0.91137 0.46372 0.22043 0.0
H1213 H 0.80809 0.43931 0.12415 0.0
H1214 H 0.83255 0.45188 0.15322 0.0
C1215 C 0.92853 0.47343 0.2345 0.0
C1216 C 0.87076 0.44308 0.21152 0.0
H1217 H 0.85151 0.40618 0.1727 0.0
C1218 C 0.85524 0.45047 0.21033 0.0
C1219 C 0.86882 0.42626 0.19827 0.0
C1220 C 0.88378 0.41627 0.19976 0.0
C1221 C 0.83839 0.44213 0.19576 0.0
C1222 C 0.83742 0.42643 0.18164 0.0
C1223 C 0.8524 0.41842 0.18334 0.0
C1224 C 0.8216 0.41869 0.16457 0.0
C1225 C 0.82173 0.45013 0.19578 0.0
C1226 C 0.80765 0.39579 0.16092 0.0
C1227 C 0.79388 0.3885 0.14405 0.0
C1228 C 0.79378 0.404 0.13052 0.0
C1229 C 0.80756 0.42691 0.13436 0.0
C1230 C 0.82147 0.43416 0.15109 0.0
H1231 H 0.8199 0.45558 0.21093 0.0
H1232 H 0.82769 0.46471 0.18566 0.0
H1233 H 0.80508 0.43692 0.19056 0.0
H1234 H 0.80757 0.38354 0.17105 0.0
H1235 H 0.78348 0.37074 0.14152 0.0
loop_
_geom_bond_atom_site_label_1
_geom_bond_atom_site_label_2
_geom_bond_distance
_geom_bond_site_symmetry_2
_ccdc_geom_bond_type
H0 C19 0.949 . S
H1 C20 0.950 . S
H2 C22 0.950 . S
H3 C23 0.950 . S
H4 C25 0.950 . S
H5 C28 0.950 . S
H6 C29 0.950 . S
H7 C31 0.951 . S
H8 C32 0.949 . S
H9 C34 0.949 . S
H10 C35 0.950 . S
H11 C37 0.950 . S
H12 C38 0.950 . S
H13 C40 0.952 . S
H14 C43 0.950 . S
H15 C44 0.950 . S
H16 C46 0.951 . S
H17 C47 0.949 . S
C18 C19 1.376 . S
C18 C23 1.386 . S
C18 C24 1.483 . S
C19 H0 0.949 . S
C19 C18 1.376 . S
C19 C20 1.397 . S
C20 H1 0.950 . S
C20 C19 1.397 . S
C20 C21 1.391 . S
C21 C20 1.391 . S
C21 C22 1.405 . S
C22 H2 0.950 . S
C22 C21 1.405 . S
C22 C23 1.367 . S
C23 H3 0.950 . S
C23 C18 1.386 . S
C23 C22 1.367 . S
C24 C18 1.483 . S
C24 C25 1.382 1_655 S
C24 C26 1.403 . S
C25 H4 0.950 . S
C25 C24 1.382 1_455 S
C25 C41 1.411 . S
C26 C24 1.403 . S
C26 C27 1.489 . S
C26 C40 1.411 1_655 S
C27 C26 1.489 . S
C27 C28 1.383 . S
C27 C32 1.382 . S
C28 H5 0.950 . S
C28 C27 1.383 . S
C28 C29 1.395 . S
C29 H6 0.950 . S
C29 C28 1.395 . S
C29 C30 1.288 . S
C30 C29 1.288 . S
C30 C31 1.392 . S
C31 H7 0.951 . S
C31 C30 1.392 . S
C31 C32 1.392 . S
C32 H8 0.949 . S
C32 C27 1.382 . S
C32 C31 1.392 . S
C33 C34 1.376 . S
C33 C38 1.386 . S
C33 C39 1.483 . S
C34 H9 0.949 . S
C34 C33 1.376 . S
C34 C35 1.397 . S
C35 H10 0.950 . S
C35 C34 1.397 . S
C35 C36 1.391 . S
C36 C35 1.391 . S
C36 C37 1.405 . S
C37 H11 0.950 . S
C37 C36 1.405 . S
C37 C38 1.367 . S
C38 H12 0.950 . S
C38 C33 1.386 . S
C38 C37 1.367 . S
C39 C33 1.483 . S
C39 C40 1.382 . S
C39 C41 1.403 . S
C40 H13 0.952 . S
C40 C26 1.411 1_455 S
C40 C39 1.382 . S
C41 C25 1.411 . S
C41 C39 1.403 . S
C41 C42 1.489 . S
C42 C41 1.489 . S
C42 C43 1.383 . S
C42 C47 1.382 . S
C43 H14 0.950 . S
C43 C42 1.383 . S
C43 C44 1.395 . S
C44 H15 0.950 . S
C44 C43 1.395 . S
C44 C45 1.288 . S
C45 C44 1.288 . S
C45 C46 1.392 . S
C46 H16 0.951 . S
C46 C45 1.392 . S
C46 C47 1.392 . S
C47 H17 0.949 . S
C47 C42 1.382 . S
C47 C46 1.392 . S
H48 C67 0.949 . S
H49 C68 0.950 . S
H50 C70 0.950 . S
H51 C71 0.950 . S
H52 C73 0.941 1_565 S
H53 C76 0.950 . S
H54 C77 0.950 . S
H55 C79 0.951 . S
H56 C80 0.949 . S
H57 C82 0.949 . S
H58 C83 0.950 . S
H59 C85 0.950 . S
H60 C86 0.950 . S
H61 C88 0.950 . S
H62 C91 0.950 . S
H63 C92 0.950 . S
H64 C94 0.951 . S
H65 C95 0.949 . S
C66 C67 1.376 . S
C66 C71 1.386 . S
C66 C72 1.483 . S
C67 H48 0.949 . S
C67 C66 1.376 . S
C67 C68 1.397 . S
C68 H49 0.950 . S
C68 C67 1.397 . S
C68 C69 1.391 . S
C69 C68 1.391 . S
C69 C70 1.405 . S
C70 H50 0.950 . S
C70 C69 1.405 . S
C70 C71 1.367 . S
C71 H51 0.950 . S
C71 C66 1.386 . S
C71 C70 1.367 . S
C72 C66 1.483 . S
C72 C73 1.382 1_565 S
C72 C74 1.403 . S
C73 H52 0.941 1_545 S
C73 C72 1.382 1_545 S
C73 C89 1.411 . S
C74 C72 1.403 . S
C74 C75 1.489 . S
C74 C88 1.411 1_565 S
C75 C74 1.489 . S
C75 C76 1.383 . S
C75 C80 1.382 . S
C76 H53 0.950 . S
C76 C75 1.383 . S
C76 C77 1.395 . S
C77 H54 0.950 . S
C77 C76 1.395 . S
C77 C78 1.288 . S
C78 C77 1.288 . S
C78 C79 1.392 . S
C79 H55 0.951 . S
C79 C78 1.392 . S
C79 C80 1.392 . S
C80 H56 0.949 . S
C80 C75 1.382 . S
C80 C79 1.392 . S
C81 C82 1.376 . S
C81 C86 1.386 . S
C81 C87 1.483 . S
C82 H57 0.949 . S
C82 C81 1.376 . S
C82 C83 1.397 . S
C83 H58 0.950 . S
C83 C82 1.397 . S
C83 C84 1.391 . S
C84 C83 1.391 . S
C84 C85 1.405 . S
C85 H59 0.950 . S
C85 C84 1.405 . S
C85 C86 1.367 . S
C86 H60 0.950 . S
C86 C81 1.386 . S
C86 C85 1.367 . S
C87 C81 1.483 . S
C87 C88 1.382 . S
C87 C89 1.403 . S
C88 H61 0.950 . S
C88 C74 1.411 1_545 S
C88 C87 1.382 . S
C89 C73 1.411 . S
C89 C87 1.403 . S
C89 C90 1.489 . S
C90 C89 1.489 . S
C90 C91 1.383 . S
C90 C95 1.382 . S
C91 H62 0.950 . S
C91 C90 1.383 . S
C91 C92 1.395 . S
C92 H63 0.950 . S
C92 C91 1.395 . S
C92 C93 1.288 . S
C93 C92 1.288 . S
C93 C94 1.392 . S
C94 H64 0.951 . S
C94 C93 1.392 . S
C94 C95 1.392 . S
C95 H65 0.949 . S
C95 C90 1.382 . S
C95 C94 1.392 . S
H96 C115 0.949 . S
H97 C116 0.950 . S
H98 C118 0.950 . S
H99 C119 0.950 . S
H100 C121 0.950 . S
H101 C124 0.950 . S
H102 C125 0.950 . S
H103 C127 0.951 . S
H104 C128 0.949 . S
H105 C130 0.949 . S
H106 C131 0.950 . S
H107 C133 0.950 . S
H108 C134 0.950 . S
H109 C136 0.950 . S
H110 C139 0.950 . S
H111 C140 0.950 . S
H112 C142 0.951 . S
H113 C143 0.949 . S
C114 C115 1.376 . S
C114 C119 1.386 . S
C114 C120 1.483 . S
C115 H96 0.949 . S
C115 C114 1.376 . S
C115 C116 1.397 . S
C116 H97 0.950 . S
C116 C115 1.397 . S
C116 C117 1.391 . S
C117 C116 1.391 . S
C117 C118 1.405 . S
C118 H98 0.950 . S
C118 C117 1.405 . S
C118 C119 1.367 . S
C119 H99 0.950 . S
C119 C114 1.386 . S
C119 C118 1.367 . S
C120 C114 1.483 . S
C120 C121 1.382 . S
C120 C122 1.403 . S
C121 H100 0.950 . S
C121 C120 1.382 . S
C121 C137 1.411 . S
C122 C120 1.403 . S
C122 C123 1.489 . S
C122 C136 1.411 . S
C123 C122 1.489 . S
C123 C124 1.383 . S
C123 C128 1.382 . S
C124 H101 0.950 . S
C124 C123 1.383 . S
C124 C125 1.395 . S
C125 H102 0.950 . S
C125 C124 1.395 . S
C125 C126 1.288 . S
C126 C125 1.288 . S
C126 C127 1.392 . S
C127 H103 0.951 . S
C127 C126 1.392 . S
C127 C128 1.392 . S
C128 H104 0.949 . S
C128 C123 1.382 . S
C128 C127 1.392 . S
C129 C130 1.376 . S
C129 C134 1.386 . S
C129 C135 1.483 . S
C130 H105 0.949 . S
C130 C129 1.376 . S
C130 C131 1.397 . S
C131 H106 0.950 . S
C131 C130 1.397 . S
C131 C132 1.391 . S
C132 C131 1.391 . S
C132 C133 1.405 . S
C133 H107 0.950 . S
C133 C132 1.405 . S
C133 C134 1.367 . S
C134 H108 0.950 . S
C134 C129 1.386 . S
C134 C133 1.367 . S
C135 C129 1.483 . S
C135 C136 1.382 . S
C135 C137 1.403 . S
C136 H109 0.950 . S
C136 C122 1.411 . S
C136 C135 1.382 . S
C137 C121 1.411 . S
C137 C135 1.403 . S
C137 C138 1.489 . S
C138 C137 1.489 . S
C138 C139 1.383 . S
C138 C143 1.382 . S
C139 H110 0.950 . S
C139 C138 1.383 . S
C139 C140 1.395 . S
C140 H111 0.950 . S
C140 C139 1.395 . S
C140 C141 1.288 . S
C141 C140 1.288 . S
C141 C142 1.392 . S
C142 H112 0.951 . S
C142 C141 1.392 . S
C142 C143 1.392 . S
C143 H113 0.949 . S
C143 C138 1.382 . S
C143 C142 1.392 . S
H144 C163 0.949 . S
H145 C164 0.950 . S
H146 C166 0.950 . S
H147 C167 0.950 . S
H148 C169 0.958 . S
H149 C172 0.950 . S
H150 C173 0.950 . S
H151 C175 0.951 . S
H152 C176 0.949 . S
H153 C178 0.949 . S
H154 C179 0.950 . S
H155 C181 0.950 . S
H156 C182 0.950 . S
H157 C184 0.950 . S
H158 C187 0.950 . S
H159 C188 0.950 . S
H160 C190 0.951 . S
H161 C191 0.949 . S
C162 C163 1.376 . S
C162 C167 1.386 . S
C162 C168 1.483 . S
C163 H144 0.949 . S
C163 C162 1.376 . S
C163 C164 1.397 . S
C164 H145 0.950 . S
C164 C163 1.397 . S
C164 C165 1.391 . S
C165 C164 1.391 . S
C165 C166 1.405 . S
C166 H146 0.950 . S
C166 C165 1.405 . S
C166 C167 1.367 . S
C167 H147 0.950 . S
C167 C162 1.386 . S
C167 C166 1.367 . S
C168 C162 1.483 . S
C168 C169 1.382 . S
C168 C170 1.403 . S
C169 H148 0.958 . S
C169 C168 1.382 . S
C169 C185 1.411 1_455 S
C170 C168 1.403 . S
C170 C171 1.489 . S
C170 C184 1.411 . S
C171 C170 1.489 . S
C171 C172 1.383 . S
C171 C176 1.382 . S
C172 H149 0.950 . S
C172 C171 1.383 . S
C172 C173 1.395 . S
C173 H150 0.950 . S
C173 C172 1.395 . S
C173 C174 1.288 . S
C174 C173 1.288 . S
C174 C175 1.392 . S
C175 H151 0.951 . S
C175 C174 1.392 . S
C175 C176 1.392 . S
C176 H152 0.949 . S
C176 C171 1.382 . S
C176 C175 1.392 . S
C177 C178 1.376 . S
C177 C182 1.386 . S
C177 C183 1.483 . S
C178 H153 0.949 . S
C178 C177 1.376 . S
C178 C179 1.397 . S
C179 H154 0.950 . S
C179 C178 1.397 . S
C179 C180 1.391 . S
C180 C179 1.391 . S
C180 C181 1.405 . S
C181 H155 0.950 . S
C181 C180 1.405 . S
C181 C182 1.367 . S
C182 H156 0.950 . S
C182 C177 1.386 . S
C182 C181 1.367 . S
C183 C177 1.483 . S
C183 C184 1.382 1_655 S
C183 C185 1.403 . S
C184 H157 0.950 . S
C184 C170 1.411 . S
C184 C183 1.382 1_455 S
C185 C169 1.411 1_655 S
C185 C183 1.403 . S
C185 C186 1.489 . S
C186 C185 1.489 . S
C186 C187 1.383 . S
C186 C191 1.382 . S
C187 H158 0.950 . S
C187 C186 1.383 . S
C187 C188 1.395 . S
C188 H159 0.950 . S
C188 C187 1.395 . S
C188 C189 1.288 . S
C189 C188 1.288 . S
C189 C190 1.392 . S
C190 H160 0.951 . S
C190 C189 1.392 . S
C190 C191 1.392 . S
C191 H161 0.949 . S
C191 C186 1.382 . S
C191 C190 1.392 . S
H192 C211 0.949 . S
H193 C212 0.950 . S
H194 C214 0.950 . S
H195 C215 0.950 . S
H196 C217 0.950 . S
H197 C220 0.950 . S
H198 C221 0.950 . S
H199 C223 0.951 . S
H200 C224 0.949 . S
H201 C226 0.949 . S
H202 C227 0.950 . S
H203 C229 0.950 . S
H204 C230 0.950 . S
H205 C232 0.950 1_565 S
H206 C235 0.950 . S
H207 C236 0.950 . S
H208 C238 0.951 . S
H209 C239 0.949 . S
C210 C211 1.376 . S
C210 C215 1.386 1_554 S
C210 C216 1.483 1_554 S
C211 H192 0.949 . S
C211 C210 1.376 . S
C211 C212 1.397 . S
C212 H193 0.950 . S
C212 C211 1.397 . S
C212 C213 1.391 . S
C213 C212 1.391 . S
C213 C214 1.405 . S
C214 H194 0.950 . S
C214 C213 1.405 . S
C214 C215 1.367 1_554 S
C215 H195 0.950 . S
C215 C210 1.386 1_556 S
C215 C214 1.367 1_556 S
C216 C210 1.483 1_556 S
C216 C217 1.382 1_556 S
C216 C218 1.403 . S
C217 H196 0.950 . S
C217 C216 1.382 1_554 S
C217 C233 1.411 1_545 S
C218 C216 1.403 . S
C218 C219 1.489 . S
C218 C232 1.411 . S
C219 C218 1.489 . S
C219 C220 1.383 . S
C219 C224 1.382 . S
C220 H197 0.950 . S
C220 C219 1.383 . S
C220 C221 1.395 . S
C221 H198 0.950 . S
C221 C220 1.395 . S
C221 C222 1.288 . S
C222 C221 1.288 . S
C222 C223 1.392 . S
C223 H199 0.951 . S
C223 C222 1.392 . S
C223 C224 1.392 . S
C224 H200 0.949 . S
C224 C219 1.382 . S
C224 C223 1.392 . S
C225 C226 1.376 . S
C225 C230 1.386 . S
C225 C231 1.483 . S
C226 H201 0.949 . S
C226 C225 1.376 . S
C226 C227 1.397 . S
C227 H202 0.950 . S
C227 C226 1.397 . S
C227 C228 1.391 . S
C228 C227 1.391 . S
C228 C229 1.405 . S
C229 H203 0.950 . S
C229 C228 1.405 . S
C229 C230 1.367 . S
C230 H204 0.950 . S
C230 C225 1.386 . S
C230 C229 1.367 . S
C231 C225 1.483 . S
C231 C232 1.382 1_565 S
C231 C233 1.403 1_556 S
C232 H205 0.950 1_545 S
C232 C218 1.411 . S
C232 C231 1.382 1_545 S
C233 C217 1.411 1_565 S
C233 C231 1.403 1_554 S
C233 C234 1.489 . S
C234 C233 1.489 . S
C234 C235 1.383 . S
C234 C239 1.382 . S
C235 H206 0.950 . S
C235 C234 1.383 . S
C235 C236 1.395 . S
C236 H207 0.950 . S
C236 C235 1.395 . S
C236 C237 1.288 . S
C237 C236 1.288 . S
C237 C238 1.392 . S
C238 H208 0.951 . S
C238 C237 1.392 . S
C238 C239 1.392 . S
C239 H209 0.949 . S
C239 C234 1.382 . S
C239 C238 1.392 . S
H240 C259 0.949 . S
H241 C260 0.950 . S
H242 C262 0.950 . S
H243 C263 0.950 . S
H244 C265 0.950 . S
H245 C268 0.950 . S
H246 C269 0.950 . S
H247 C271 0.951 . S
H248 C272 0.949 . S
H249 C274 0.949 . S
H250 C275 0.950 . S
H251 C277 0.950 . S
H252 C278 0.950 . S
H253 C280 0.950 . S
H254 C283 0.950 . S
H255 C284 0.950 . S
H256 C286 0.951 . S
H257 C287 0.949 . S
C258 C259 1.376 . S
C258 C263 1.386 . S
C258 C264 1.483 . S
C259 H240 0.949 . S
C259 C258 1.376 . S
C259 C260 1.397 . S
C260 H241 0.950 . S
C260 C259 1.397 . S
C260 C261 1.391 . S
C261 C260 1.391 . S
C261 C262 1.405 . S
C262 H242 0.950 . S
C262 C261 1.405 . S
C262 C263 1.367 . S
C263 H243 0.950 . S
C263 C258 1.386 . S
C263 C262 1.367 . S
C264 C258 1.483 . S
C264 C265 1.382 . S
C264 C266 1.403 . S
C265 H244 0.950 . S
C265 C264 1.382 . S
C265 C281 1.411 . S
C266 C264 1.403 . S
C266 C267 1.489 . S
C266 C280 1.411 . S
C267 C266 1.489 . S
C267 C268 1.383 . S
C267 C272 1.382 . S
C268 H245 0.950 . S
C268 C267 1.383 . S
C268 C269 1.395 . S
C269 H246 0.950 . S
C269 C268 1.395 . S
C269 C270 1.288 . S
C270 C269 1.288 . S
C270 C271 1.392 . S
C271 H247 0.951 . S
C271 C270 1.392 . S
C271 C272 1.392 . S
C272 H248 0.949 . S
C272 C267 1.382 . S
C272 C271 1.392 . S
C273 C274 1.376 . S
C273 C278 1.386 . S
C273 C279 1.483 . S
C274 H249 0.949 . S
C274 C273 1.376 . S
C274 C275 1.397 . S
C275 H250 0.950 . S
C275 C274 1.397 . S
C275 C276 1.391 . S
C276 C275 1.391 . S
C276 C277 1.405 . S
C277 H251 0.950 . S
C277 C276 1.405 . S
C277 C278 1.367 . S
C278 H252 0.950 . S
C278 C273 1.386 . S
C278 C277 1.367 . S
C279 C273 1.483 . S
C279 C280 1.382 . S
C279 C281 1.403 . S
C280 H253 0.950 . S
C280 C266 1.411 . S
C280 C279 1.382 . S
C281 C265 1.411 . S
C281 C279 1.403 . S
C281 C282 1.489 . S
C282 C281 1.489 . S
C282 C283 1.383 . S
C282 C287 1.382 . S
C283 H254 0.950 . S
C283 C282 1.383 . S
C283 C284 1.395 . S
C284 H255 0.950 . S
C284 C283 1.395 . S
C284 C285 1.288 . S
C285 C284 1.288 . S
C285 C286 1.392 . S
C286 H256 0.951 . S
C286 C285 1.392 . S
C286 C287 1.392 . S
C287 H257 0.949 . S
C287 C282 1.382 . S
C287 C286 1.392 . S
O288 Cd289 2.223 . S
O288 C296 1.315 . S
Cd289 O288 2.223 . S
Cd289 O292 2.297 . S
Cd289 O293 2.439 . S
Cd289 O299 2.240 . S
Cd290 O291 2.240 . S
Cd290 O298 2.223 . S
Cd290 O300 2.297 . S
Cd290 O301 2.439 . S
O291 Cd290 2.240 . S
O291 C296 1.279 . S
O292 Cd289 2.297 . S
O292 C294 1.247 . S
O293 Cd289 2.439 . S
O293 C294 1.208 . S
C294 O292 1.247 . S
C294 O293 1.208 . S
C295 O300 1.247 . S
C295 O301 1.208 . S
C296 O288 1.315 . S
C296 O291 1.279 . S
C297 O298 1.315 . S
C297 O299 1.279 . S
O298 Cd290 2.223 . S
O298 C297 1.315 . S
O299 Cd289 2.240 . S
O299 C297 1.279 . S
O300 Cd290 2.297 . S
O300 C295 1.247 . S
O301 Cd290 2.439 . S
O301 C295 1.208 . S
O302 Cd303 2.223 . S
O302 C310 1.315 . S
Cd303 O302 2.223 . S
Cd303 O306 2.297 . S
Cd303 O307 2.439 . S
Cd303 O313 2.240 . S
Cd304 O305 2.240 . S
Cd304 O312 2.223 . S
Cd304 O314 2.297 . S
Cd304 O315 2.439 . S
O305 Cd304 2.240 . S
O305 C310 1.279 . S
O306 Cd303 2.297 . S
O306 C308 1.247 . S
O307 Cd303 2.439 . S
O307 C308 1.208 . S
C308 O306 1.247 . S
C308 O307 1.208 . S
C309 O314 1.247 . S
C309 O315 1.208 . S
C310 O302 1.315 . S
C310 O305 1.279 . S
C311 O312 1.315 . S
C311 O313 1.279 . S
O312 Cd304 2.223 . S
O312 C311 1.315 . S
O313 Cd303 2.240 . S
O313 C311 1.279 . S
O314 Cd304 2.297 . S
O314 C309 1.247 . S
O315 Cd304 2.439 . S
O315 C309 1.208 . S
O316 Cd317 2.223 . S
O316 C324 1.315 . S
Cd317 O316 2.223 . S
Cd317 O320 2.297 . S
Cd317 O321 2.439 . S
Cd317 O327 2.240 . S
Cd318 O319 2.240 . S
Cd318 O326 2.223 . S
Cd318 O328 2.297 . S
Cd318 O329 2.439 . S
O319 Cd318 2.240 . S
O319 C324 1.279 . S
O320 Cd317 2.297 . S
O320 C322 1.247 . S
O321 Cd317 2.439 . S
O321 C322 1.208 . S
C322 O320 1.247 . S
C322 O321 1.208 . S
C323 O328 1.247 . S
C323 O329 1.208 . S
C324 O316 1.315 . S
C324 O319 1.279 . S
C325 O326 1.315 . S
C325 O327 1.279 . S
O326 Cd318 2.223 . S
O326 C325 1.315 . S
O327 Cd317 2.240 . S
O327 C325 1.279 . S
O328 Cd318 2.297 . S
O328 C323 1.247 . S
O329 Cd318 2.439 . S
O329 C323 1.208 . S
O330 Cd331 2.223 . S
O330 C338 1.315 . S
Cd331 O330 2.223 . S
Cd331 O334 2.297 . S
Cd331 O335 2.439 . S
Cd331 O341 2.240 . S
Cd332 O333 2.240 . S
Cd332 O340 2.223 . S
Cd332 O342 2.297 . S
Cd332 O343 2.439 . S
O333 Cd332 2.240 . S
O333 C338 1.279 . S
O334 Cd331 2.297 . S
O334 C336 1.247 . S
O335 Cd331 2.439 . S
O335 C336 1.208 . S
C336 O334 1.247 . S
C336 O335 1.208 . S
C337 O342 1.247 . S
C337 O343 1.208 . S
C338 O330 1.315 . S
C338 O333 1.279 . S
C339 O340 1.315 . S
C339 O341 1.279 . S
O340 Cd332 2.223 . S
O340 C339 1.315 . S
O341 Cd331 2.240 . S
O341 C339 1.279 . S
O342 Cd332 2.297 . S
O342 C337 1.247 . S
O343 Cd332 2.439 . S
O343 C337 1.208 . S
O344 Cd345 2.223 . S
O344 C352 1.315 . S
Cd345 O344 2.223 . S
Cd345 O348 2.297 . S
Cd345 O349 2.439 . S
Cd345 O355 2.240 . S
Cd346 O347 2.240 . S
Cd346 O354 2.223 . S
Cd346 O356 2.297 . S
Cd346 O357 2.439 . S
O347 Cd346 2.240 . S
O347 C352 1.279 . S
O348 Cd345 2.297 . S
O348 C350 1.247 . S
O349 Cd345 2.439 . S
O349 C350 1.208 . S
C350 O348 1.247 . S
C350 O349 1.208 . S
C351 O356 1.247 . S
C351 O357 1.208 . S
C352 O344 1.315 . S
C352 O347 1.279 . S
C353 O354 1.315 . S
C353 O355 1.279 . S
O354 Cd346 2.223 . S
O354 C353 1.315 . S
O355 Cd345 2.240 . S
O355 C353 1.279 . S
O356 Cd346 2.297 . S
O356 C351 1.247 . S
O357 Cd346 2.439 . S
O357 C351 1.208 . S
O358 Cd359 2.223 . S
O358 C366 1.315 . S
Cd359 O358 2.223 . S
Cd359 O362 2.297 . S
Cd359 O363 2.439 . S
Cd359 O369 2.240 . S
Cd360 O361 2.240 . S
Cd360 O368 2.223 . S
Cd360 O370 2.297 . S
Cd360 O371 2.439 . S
O361 Cd360 2.240 . S
O361 C366 1.279 . S
O362 Cd359 2.297 . S
O362 C364 1.247 . S
O363 Cd359 2.439 . S
O363 C364 1.208 . S
C364 O362 1.247 . S
C364 O363 1.208 . S
C365 O370 1.247 . S
C365 O371 1.208 . S
C366 O358 1.315 . S
C366 O361 1.279 . S
C367 O368 1.315 . S
C367 O369 1.279 . S
O368 Cd360 2.223 . S
O368 C367 1.315 . S
O369 Cd359 2.240 . S
O369 C367 1.279 . S
O370 Cd360 2.297 . S
O370 C365 1.247 . S
O371 Cd360 2.439 . S
O371 C365 1.208 . S
H372 C380 0.929 . S
H373 C382 0.930 . S
H374 C384 0.930 . S
H375 C387 0.929 . S
H376 C390 0.930 . S
H377 C392 0.960 . S
H378 C392 0.960 . S
H379 C392 0.960 . S
C380 H372 0.929 . S
C380 C381 1.377 . S
C380 C382 1.384 . S
C381 C380 1.377 . S
C381 C387 1.390 . S
C382 H373 0.930 . S
C382 C380 1.384 . S
C382 C383 1.372 . S
C383 C382 1.372 . S
C383 C384 1.400 . S
C383 C388 1.490 . S
C384 H374 0.930 . S
C384 C383 1.400 . S
C384 C387 1.386 . S
H385 C401 0.930 . S
H386 C402 0.931 . S
C387 H375 0.929 . S
C387 C381 1.390 . S
C387 C384 1.386 . S
C388 C383 1.490 . S
C388 C390 1.395 . S
C388 C391 1.403 . S
H389 C395 0.930 . S
C390 H376 0.930 . S
C390 C388 1.395 . S
C390 C393 1.403 . S
C391 C388 1.403 . S
C391 C392 1.524 . S
C391 C395 1.400 . S
C392 H377 0.960 . S
C392 H378 0.960 . S
C392 H379 0.960 . S
C392 C391 1.524 . S
C393 C390 1.403 . S
C393 C394 1.392 . S
C393 C397 1.495 . S
C394 C393 1.392 . S
C394 C395 1.385 . S
C394 C396 1.478 . S
C395 H389 0.930 . S
C395 C391 1.400 . S
C395 C394 1.385 . S
C396 C394 1.478 . S
C396 C398 1.381 . S
C396 C402 1.383 . S
C397 C393 1.495 . S
C397 H403 0.959 . S
C397 H404 0.961 . S
C397 H405 0.960 . S
C398 C396 1.381 . S
C398 C399 1.394 . S
C398 H406 0.930 . S
C399 C398 1.394 . S
C399 C400 1.383 . S
C399 H407 0.929 . S
C400 C399 1.383 . S
C400 C401 1.377 . S
C401 H385 0.930 . S
C401 C400 1.377 . S
C401 C402 1.379 . S
C402 H386 0.931 . S
C402 C396 1.383 . S
C402 C401 1.379 . S
H403 C397 0.959 . S
H404 C397 0.961 . S
H405 C397 0.960 . S
H406 C398 0.930 . S
H407 C399 0.929 . S
H408 C416 0.929 . S
H409 C418 0.930 . S
H410 C420 0.930 . S
H411 C423 0.929 . S
H412 C426 0.930 . S
H413 C428 0.960 . S
H414 C428 0.960 . S
H415 C428 0.960 . S
C416 H408 0.929 . S
C416 C417 1.377 . S
C416 C418 1.384 . S
C417 C416 1.377 . S
C417 C423 1.390 . S
C418 H409 0.930 . S
C418 C416 1.384 . S
C418 C419 1.372 . S
C419 C418 1.372 . S
C419 C420 1.400 . S
C419 C424 1.490 . S
C420 H410 0.930 . S
C420 C419 1.400 . S
C420 C423 1.386 . S
H421 C437 0.930 . S
H422 C438 0.931 . S
C423 H411 0.929 . S
C423 C417 1.390 . S
C423 C420 1.386 . S
C424 C419 1.490 . S
C424 C426 1.395 . S
C424 C427 1.403 . S
H425 C431 0.930 . S
C426 H412 0.930 . S
C426 C424 1.395 . S
C426 C429 1.403 . S
C427 C424 1.403 . S
C427 C428 1.524 . S
C427 C431 1.400 . S
C428 H413 0.960 . S
C428 H414 0.960 . S
C428 H415 0.960 . S
C428 C427 1.524 . S
C429 C426 1.403 . S
C429 C430 1.392 . S
C429 C433 1.495 . S
C430 C429 1.392 . S
C430 C431 1.385 . S
C430 C432 1.478 . S
C431 H425 0.930 . S
C431 C427 1.400 . S
C431 C430 1.385 . S
C432 C430 1.478 . S
C432 C434 1.381 . S
C432 C438 1.383 . S
C433 C429 1.495 . S
C433 H439 0.959 . S
C433 H440 0.961 . S
C433 H441 0.960 . S
C434 C432 1.381 . S
C434 C435 1.394 . S
C434 H442 0.930 . S
C435 C434 1.394 . S
C435 C436 1.383 . S
C435 H443 0.929 . S
C436 C435 1.383 . S
C436 C437 1.377 . S
C437 H421 0.930 . S
C437 C436 1.377 . S
C437 C438 1.379 . S
C438 H422 0.931 . S
C438 C432 1.383 . S
C438 C437 1.379 . S
H439 C433 0.959 . S
H440 C433 0.961 . S
H441 C433 0.960 . S
H442 C434 0.930 . S
H443 C435 0.929 . S
H444 C452 0.929 . S
H445 C454 0.930 . S
H446 C456 0.930 . S
H447 C459 0.929 . S
H448 C462 0.930 . S
H449 C464 0.960 . S
H450 C464 0.960 . S
H451 C464 0.960 . S
C452 H444 0.929 . S
C452 C453 1.377 . S
C452 C454 1.384 . S
C453 C452 1.377 . S
C453 C459 1.390 . S
C454 H445 0.930 . S
C454 C452 1.384 . S
C454 C455 1.372 . S
C455 C454 1.372 . S
C455 C456 1.400 . S
C455 C460 1.490 . S
C456 H446 0.930 . S
C456 C455 1.400 . S
C456 C459 1.386 . S
H457 C473 0.930 . S
H458 C474 0.931 . S
C459 H447 0.929 . S
C459 C453 1.390 . S
C459 C456 1.386 . S
C460 C455 1.490 . S
C460 C462 1.395 . S
C460 C463 1.403 . S
H461 C467 0.930 . S
C462 H448 0.930 . S
C462 C460 1.395 . S
C462 C465 1.403 . S
C463 C460 1.403 . S
C463 C464 1.524 . S
C463 C467 1.400 . S
C464 H449 0.960 . S
C464 H450 0.960 . S
C464 H451 0.960 . S
C464 C463 1.524 . S
C465 C462 1.403 . S
C465 C466 1.392 . S
C465 C469 1.495 . S
C466 C465 1.392 . S
C466 C467 1.385 . S
C466 C468 1.478 . S
C467 H461 0.930 . S
C467 C463 1.400 . S
C467 C466 1.385 . S
C468 C466 1.478 . S
C468 C470 1.381 . S
C468 C474 1.383 . S
C469 C465 1.495 . S
C469 H475 0.959 . S
C469 H476 0.961 . S
C469 H477 0.960 . S
C470 C468 1.381 . S
C470 C471 1.394 . S
C470 H478 0.930 . S
C471 C470 1.394 . S
C471 C472 1.383 . S
C471 H479 0.929 . S
C472 C471 1.383 . S
C472 C473 1.377 . S
C473 H457 0.930 . S
C473 C472 1.377 . S
C473 C474 1.379 . S
C474 H458 0.931 . S
C474 C468 1.383 . S
C474 C473 1.379 . S
H475 C469 0.959 . S
H476 C469 0.961 . S
H477 C469 0.960 . S
H478 C470 0.930 . S
H479 C471 0.929 . S
H480 C488 0.929 . S
H481 C490 0.930 . S
H482 C492 0.930 . S
H483 C495 0.929 . S
H484 C498 0.930 . S
H485 C500 0.960 . S
H486 C500 0.960 . S
H487 C500 0.960 . S
C488 H480 0.929 . S
C488 C489 1.377 . S
C488 C490 1.384 . S
C489 C488 1.377 . S
C489 C495 1.390 . S
C490 H481 0.930 . S
C490 C488 1.384 . S
C490 C491 1.372 . S
C491 C490 1.372 . S
C491 C492 1.400 . S
C491 C496 1.490 . S
C492 H482 0.930 . S
C492 C491 1.400 . S
C492 C495 1.386 . S
H493 C509 0.930 . S
H494 C510 0.931 . S
C495 H483 0.929 . S
C495 C489 1.390 . S
C495 C492 1.386 . S
C496 C491 1.490 . S
C496 C498 1.395 . S
C496 C499 1.403 . S
H497 C503 0.930 . S
C498 H484 0.930 . S
C498 C496 1.395 . S
C498 C501 1.403 . S
C499 C496 1.403 . S
C499 C500 1.524 . S
C499 C503 1.400 . S
C500 H485 0.960 . S
C500 H486 0.960 . S
C500 H487 0.960 . S
C500 C499 1.524 . S
C501 C498 1.403 . S
C501 C502 1.392 . S
C501 C505 1.495 . S
C502 C501 1.392 . S
C502 C503 1.385 . S
C502 C504 1.478 . S
C503 H497 0.930 . S
C503 C499 1.400 . S
C503 C502 1.385 . S
C504 C502 1.478 . S
C504 C506 1.381 . S
C504 C510 1.383 . S
C505 C501 1.495 . S
C505 H511 0.959 . S
C505 H512 0.961 . S
C505 H513 0.960 . S
C506 C504 1.381 . S
C506 C507 1.394 . S
C506 H514 0.930 . S
C507 C506 1.394 . S
C507 C508 1.383 . S
C507 H515 0.929 . S
C508 C507 1.383 . S
C508 C509 1.377 . S
C509 H493 0.930 . S
C509 C508 1.377 . S
C509 C510 1.379 . S
C510 H494 0.931 . S
C510 C504 1.383 . S
C510 C509 1.379 . S
H511 C505 0.959 . S
H512 C505 0.961 . S
H513 C505 0.960 . S
H514 C506 0.930 . S
H515 C507 0.929 . S
H516 C524 0.929 . S
H517 C526 0.930 . S
H518 C528 0.930 . S
H519 C531 0.929 . S
H520 C534 0.930 . S
H521 C536 0.960 . S
H522 C536 0.960 . S
H523 C536 0.960 . S
C524 H516 0.929 . S
C524 C525 1.377 . S
C524 C526 1.384 . S
C525 C524 1.377 . S
C525 C531 1.390 . S
C526 H517 0.930 . S
C526 C524 1.384 . S
C526 C527 1.372 . S
C527 C526 1.372 . S
C527 C528 1.400 . S
C527 C532 1.490 . S
C528 H518 0.930 . S
C528 C527 1.400 . S
C528 C531 1.386 . S
H529 C545 0.930 . S
H530 C546 0.931 . S
C531 H519 0.929 . S
C531 C525 1.390 . S
C531 C528 1.386 . S
C532 C527 1.490 . S
C532 C534 1.395 . S
C532 C535 1.403 . S
H533 C539 0.930 . S
C534 H520 0.930 . S
C534 C532 1.395 . S
C534 C537 1.403 . S
C535 C532 1.403 . S
C535 C536 1.524 . S
C535 C539 1.400 . S
C536 H521 0.960 . S
C536 H522 0.960 . S
C536 H523 0.960 . S
C536 C535 1.524 . S
C537 C534 1.403 . S
C537 C538 1.392 . S
C537 C541 1.495 . S
C538 C537 1.392 . S
C538 C539 1.385 . S
C538 C540 1.478 . S
C539 H533 0.930 . S
C539 C535 1.400 . S
C539 C538 1.385 . S
C540 C538 1.478 . S
C540 C542 1.381 . S
C540 C546 1.383 . S
C541 C537 1.495 . S
C541 H547 0.959 . S
C541 H548 0.961 . S
C541 H549 0.960 . S
C542 C540 1.381 . S
C542 C543 1.394 . S
C542 H550 0.930 . S
C543 C542 1.394 . S
C543 C544 1.383 . S
C543 H551 0.929 . S
C544 C543 1.383 . S
C544 C545 1.377 . S
C545 H529 0.930 . S
C545 C544 1.377 . S
C545 C546 1.379 . S
C546 H530 0.931 . S
C546 C540 1.383 . S
C546 C545 1.379 . S
H547 C541 0.959 . S
H548 C541 0.961 . S
H549 C541 0.960 . S
H550 C542 0.930 . S
H551 C543 0.929 . S
H552 C560 0.929 . S
H553 C562 0.930 . S
H554 C564 0.930 . S
H555 C567 0.929 . S
H556 C570 0.930 . S
H557 C572 0.960 . S
H558 C572 0.960 . S
H559 C572 0.960 . S
C560 H552 0.929 . S
C560 C561 1.377 . S
C560 C562 1.384 . S
C561 C560 1.377 . S
C561 C567 1.390 . S
C562 H553 0.930 . S
C562 C560 1.384 . S
C562 C563 1.372 . S
C563 C562 1.372 . S
C563 C564 1.400 . S
C563 C568 1.490 . S
C564 H554 0.930 . S
C564 C563 1.400 . S
C564 C567 1.386 . S
H565 C581 0.930 . S
H566 C582 0.931 . S
C567 H555 0.929 . S
C567 C561 1.390 . S
C567 C564 1.386 . S
C568 C563 1.490 . S
C568 C570 1.395 . S
C568 C571 1.403 . S
H569 C575 0.930 . S
C570 H556 0.930 . S
C570 C568 1.395 . S
C570 C573 1.403 . S
C571 C568 1.403 . S
C571 C572 1.524 . S
C571 C575 1.400 . S
C572 H557 0.960 . S
C572 H558 0.960 . S
C572 H559 0.960 . S
C572 C571 1.524 . S
C573 C570 1.403 . S
C573 C574 1.392 . S
C573 C577 1.495 . S
C574 C573 1.392 . S
C574 C575 1.385 . S
C574 C576 1.478 . S
C575 H569 0.930 . S
C575 C571 1.400 . S
C575 C574 1.385 . S
C576 C574 1.478 . S
C576 C578 1.381 . S
C576 C582 1.383 . S
C577 C573 1.495 . S
C577 H583 0.959 . S
C577 H584 0.961 . S
C577 H585 0.960 . S
C578 C576 1.381 . S
C578 C579 1.394 . S
C578 H586 0.930 . S
C579 C578 1.394 . S
C579 C580 1.383 . S
C579 H587 0.929 . S
C580 C579 1.383 . S
C580 C581 1.377 . S
C581 H565 0.930 . S
C581 C580 1.377 . S
C581 C582 1.379 . S
C582 H566 0.931 . S
C582 C576 1.383 . S
C582 C581 1.379 . S
H583 C577 0.959 . S
H584 C577 0.961 . S
H585 C577 0.960 . S
H586 C578 0.930 . S
H587 C579 0.929 . S
H588 C596 0.929 . S
H589 C598 0.930 . S
H590 C600 0.930 . S
H591 C603 0.929 . S
H592 C606 0.930 . S
H593 C608 0.960 . S
H594 C608 0.960 . S
H595 C608 0.960 . S
C596 H588 0.929 . S
C596 C597 1.377 . S
C596 C598 1.384 . S
C597 C596 1.377 . S
C597 C603 1.390 . S
C598 H589 0.930 . S
C598 C596 1.384 . S
C598 C599 1.372 . S
C599 C598 1.372 . S
C599 C600 1.400 . S
C599 C604 1.490 . S
C600 H590 0.930 . S
C600 C599 1.400 . S
C600 C603 1.386 . S
H601 C617 0.930 . S
H602 C618 0.931 . S
C603 H591 0.929 . S
C603 C597 1.390 . S
C603 C600 1.386 . S
C604 C599 1.490 . S
C604 C606 1.395 . S
C604 C607 1.403 . S
H605 C611 0.930 . S
C606 H592 0.930 . S
C606 C604 1.395 . S
C606 C609 1.403 . S
C607 C604 1.403 . S
C607 C608 1.524 . S
C607 C611 1.400 . S
C608 H593 0.960 . S
C608 H594 0.960 . S
C608 H595 0.960 . S
C608 C607 1.524 . S
C609 C606 1.403 . S
C609 C610 1.392 . S
C609 C613 1.495 . S
C610 C609 1.392 . S
C610 C611 1.385 . S
C610 C612 1.478 . S
C611 H605 0.930 . S
C611 C607 1.400 . S
C611 C610 1.385 . S
C612 C610 1.478 . S
C612 C614 1.381 . S
C612 C618 1.383 . S
C613 C609 1.495 . S
C613 H619 0.959 . S
C613 H620 0.961 . S
C613 H621 0.960 . S
C614 C612 1.381 . S
C614 C615 1.394 . S
C614 H622 0.930 . S
C615 C614 1.394 . S
C615 C616 1.383 . S
C615 H623 0.929 . S
C616 C615 1.383 . S
C616 C617 1.377 . S
C617 H601 0.930 . S
C617 C616 1.377 . S
C617 C618 1.379 . S
C618 H602 0.931 . S
C618 C612 1.383 . S
C618 C617 1.379 . S
H619 C613 0.959 . S
H620 C613 0.961 . S
H621 C613 0.960 . S
H622 C614 0.930 . S
H623 C615 0.929 . S
H624 C632 0.929 . S
H625 C634 0.930 . S
H626 C636 0.930 . S
H627 C639 0.929 . S
H628 C642 0.930 . S
H629 C644 0.960 . S
H630 C644 0.960 . S
H631 C644 0.960 . S
C632 H624 0.929 . S
C632 C633 1.377 . S
C632 C634 1.384 . S
C633 C632 1.377 . S
C633 C639 1.390 . S
C634 H625 0.930 . S
C634 C632 1.384 . S
C634 C635 1.372 . S
C635 C634 1.372 . S
C635 C636 1.400 . S
C635 C640 1.490 . S
C636 H626 0.930 . S
C636 C635 1.400 . S
C636 C639 1.386 . S
H637 C653 0.930 . S
H638 C654 0.931 . S
C639 H627 0.929 . S
C639 C633 1.390 . S
C639 C636 1.386 . S
C640 C635 1.490 . S
C640 C642 1.395 . S
C640 C643 1.403 . S
H641 C647 0.930 . S
C642 H628 0.930 . S
C642 C640 1.395 . S
C642 C645 1.403 . S
C643 C640 1.403 . S
C643 C644 1.524 . S
C643 C647 1.400 . S
C644 H629 0.960 . S
C644 H630 0.960 . S
C644 H631 0.960 . S
C644 C643 1.524 . S
C645 C642 1.403 . S
C645 C646 1.392 . S
C645 C649 1.495 . S
C646 C645 1.392 . S
C646 C647 1.385 . S
C646 C648 1.478 . S
C647 H641 0.930 . S
C647 C643 1.400 . S
C647 C646 1.385 . S
C648 C646 1.478 . S
C648 C650 1.381 . S
C648 C654 1.383 . S
C649 C645 1.495 . S
C649 H655 0.959 . S
C649 H656 0.961 . S
C649 H657 0.960 . S
C650 C648 1.381 . S
C650 C651 1.394 . S
C650 H658 0.930 . S
C651 C650 1.394 . S
C651 C652 1.383 . S
C651 H659 0.929 . S
C652 C651 1.383 . S
C652 C653 1.377 . S
C653 H637 0.930 . S
C653 C652 1.377 . S
C653 C654 1.379 . S
C654 H638 0.931 . S
C654 C648 1.383 . S
C654 C653 1.379 . S
H655 C649 0.959 . S
H656 C649 0.961 . S
H657 C649 0.960 . S
H658 C650 0.930 . S
H659 C651 0.929 . S
H660 C668 0.929 . S
H661 C670 0.930 . S
H662 C672 0.930 . S
H663 C675 0.929 . S
H664 C678 0.930 . S
H665 C680 0.960 . S
H666 C680 0.960 . S
H667 C680 0.960 . S
C668 H660 0.929 . S
C668 C669 1.377 . S
C668 C670 1.384 . S
C669 C668 1.377 . S
C669 C675 1.390 . S
C670 H661 0.930 . S
C670 C668 1.384 . S
C670 C671 1.372 . S
C671 C670 1.372 . S
C671 C672 1.400 . S
C671 C676 1.490 . S
C672 H662 0.930 . S
C672 C671 1.400 . S
C672 C675 1.386 . S
H673 C689 0.930 . S
H674 C690 0.931 . S
C675 H663 0.929 . S
C675 C669 1.390 . S
C675 C672 1.386 . S
C676 C671 1.490 . S
C676 C678 1.395 . S
C676 C679 1.403 . S
H677 C683 0.930 . S
C678 H664 0.930 . S
C678 C676 1.395 . S
C678 C681 1.403 . S
C679 C676 1.403 . S
C679 C680 1.524 . S
C679 C683 1.400 . S
C680 H665 0.960 . S
C680 H666 0.960 . S
C680 H667 0.960 . S
C680 C679 1.524 . S
C681 C678 1.403 . S
C681 C682 1.392 . S
C681 C685 1.495 . S
C682 C681 1.392 . S
C682 C683 1.385 . S
C682 C684 1.478 . S
C683 H677 0.930 . S
C683 C679 1.400 . S
C683 C682 1.385 . S
C684 C682 1.478 . S
C684 C686 1.381 . S
C684 C690 1.383 . S
C685 C681 1.495 . S
C685 H691 0.959 . S
C685 H692 0.961 . S
C685 H693 0.960 . S
C686 C684 1.381 . S
C686 C687 1.394 . S
C686 H694 0.930 . S
C687 C686 1.394 . S
C687 C688 1.383 . S
C687 H695 0.929 . S
C688 C687 1.383 . S
C688 C689 1.377 . S
C689 H673 0.930 . S
C689 C688 1.377 . S
C689 C690 1.379 . S
C690 H674 0.931 . S
C690 C684 1.383 . S
C690 C689 1.379 . S
H691 C685 0.959 . S
H692 C685 0.961 . S
H693 C685 0.960 . S
H694 C686 0.930 . S
H695 C687 0.929 . S
H696 C704 0.929 1_556 S
H697 C706 0.930 . S
H698 C708 0.930 . S
H699 C711 0.929 . S
H700 C714 0.930 . S
H701 C716 0.960 . S
H702 C716 0.960 . S
H703 C716 0.960 . S
C704 H696 0.929 1_554 S
C704 C705 1.377 . S
C704 C706 1.384 . S
C705 C704 1.377 . S
C705 C711 1.390 . S
C706 H697 0.930 . S
C706 C704 1.384 . S
C706 C707 1.372 . S
C707 C706 1.372 . S
C707 C708 1.400 . S
C707 C712 1.490 . S
C708 H698 0.930 . S
C708 C707 1.400 . S
C708 C711 1.386 . S
H709 C725 0.930 . S
H710 C726 0.931 . S
C711 H699 0.929 . S
C711 C705 1.390 . S
C711 C708 1.386 . S
C712 C707 1.490 . S
C712 C714 1.395 . S
C712 C715 1.403 . S
H713 C719 0.930 . S
C714 H700 0.930 . S
C714 C712 1.395 . S
C714 C717 1.403 . S
C715 C712 1.403 . S
C715 C716 1.524 . S
C715 C719 1.400 . S
C716 H701 0.960 . S
C716 H702 0.960 . S
C716 H703 0.960 . S
C716 C715 1.524 . S
C717 C714 1.403 . S
C717 C718 1.392 . S
C717 C721 1.495 . S
C718 C717 1.392 . S
C718 C719 1.385 . S
C718 C720 1.478 . S
C719 H713 0.930 . S
C719 C715 1.400 . S
C719 C718 1.385 . S
C720 C718 1.478 . S
C720 C722 1.381 . S
C720 C726 1.383 . S
C721 C717 1.495 . S
C721 H727 0.959 . S
C721 H728 0.961 . S
C721 H729 0.960 . S
C722 C720 1.381 . S
C722 C723 1.394 . S
C722 H730 0.930 . S
C723 C722 1.394 . S
C723 C724 1.383 . S
C723 H731 0.929 . S
C724 C723 1.383 . S
C724 C725 1.377 . S
C725 H709 0.930 . S
C725 C724 1.377 . S
C725 C726 1.379 . S
C726 H710 0.931 . S
C726 C720 1.383 . S
C726 C725 1.379 . S
H727 C721 0.959 . S
H728 C721 0.961 . S
H729 C721 0.960 . S
H730 C722 0.930 . S
H731 C723 0.929 . S
H732 C740 0.929 . S
H733 C742 0.930 . S
H734 C744 0.930 . S
H735 C747 0.929 . S
H736 C750 0.930 . S
H737 C752 0.960 . S
H738 C752 0.960 . S
H739 C752 0.960 . S
C740 H732 0.929 . S
C740 C741 1.377 . S
C740 C742 1.384 . S
C741 C740 1.377 . S
C741 C747 1.390 . S
C742 H733 0.930 . S
C742 C740 1.384 . S
C742 C743 1.372 . S
C743 C742 1.372 . S
C743 C744 1.400 . S
C743 C748 1.490 . S
C744 H734 0.930 . S
C744 C743 1.400 . S
C744 C747 1.386 . S
H745 C761 0.930 . S
H746 C762 0.931 . S
C747 H735 0.929 . S
C747 C741 1.390 . S
C747 C744 1.386 . S
C748 C743 1.490 . S
C748 C750 1.395 . S
C748 C751 1.403 . S
H749 C755 0.930 . S
C750 H736 0.930 . S
C750 C748 1.395 . S
C750 C753 1.403 . S
C751 C748 1.403 . S
C751 C752 1.524 . S
C751 C755 1.400 . S
C752 H737 0.960 . S
C752 H738 0.960 . S
C752 H739 0.960 . S
C752 C751 1.524 . S
C753 C750 1.403 . S
C753 C754 1.392 . S
C753 C757 1.495 . S
C754 C753 1.392 . S
C754 C755 1.385 . S
C754 C756 1.478 . S
C755 H749 0.930 . S
C755 C751 1.400 . S
C755 C754 1.385 . S
C756 C754 1.478 . S
C756 C758 1.381 . S
C756 C762 1.383 . S
C757 C753 1.495 . S
C757 H763 0.959 . S
C757 H764 0.961 . S
C757 H765 0.960 . S
C758 C756 1.381 . S
C758 C759 1.394 . S
C758 H766 0.930 . S
C759 C758 1.394 . S
C759 C760 1.383 . S
C759 H767 0.929 . S
C760 C759 1.383 . S
C760 C761 1.377 . S
C761 H745 0.930 . S
C761 C760 1.377 . S
C761 C762 1.379 . S
C762 H746 0.931 . S
C762 C756 1.383 . S
C762 C761 1.379 . S
H763 C757 0.959 . S
H764 C757 0.961 . S
H765 C757 0.960 . S
H766 C758 0.930 . S
H767 C759 0.929 . S
H768 C776 0.929 . S
H769 C778 0.930 . S
H770 C780 0.930 . S
H771 C783 0.929 . S
H772 C786 0.930 . S
H773 C788 0.960 . S
H774 C788 0.960 . S
H775 C788 0.960 . S
C776 H768 0.929 . S
C776 C777 1.377 . S
C776 C778 1.384 . S
C777 C776 1.377 . S
C777 C783 1.390 . S
C778 H769 0.930 . S
C778 C776 1.384 . S
C778 C779 1.372 . S
C779 C778 1.372 . S
C779 C780 1.400 . S
C779 C784 1.490 . S
C780 H770 0.930 . S
C780 C779 1.400 . S
C780 C783 1.386 . S
H781 C797 0.930 . S
H782 C798 0.931 . S
C783 H771 0.929 . S
C783 C777 1.390 . S
C783 C780 1.386 . S
C784 C779 1.490 . S
C784 C786 1.395 . S
C784 C787 1.403 . S
H785 C791 0.930 . S
C786 H772 0.930 . S
C786 C784 1.395 . S
C786 C789 1.403 . S
C787 C784 1.403 . S
C787 C788 1.524 . S
C787 C791 1.400 . S
C788 H773 0.960 . S
C788 H774 0.960 . S
C788 H775 0.960 . S
C788 C787 1.524 . S
C789 C786 1.403 . S
C789 C790 1.392 . S
C789 C793 1.495 . S
C790 C789 1.392 . S
C790 C791 1.385 . S
C790 C792 1.478 . S
C791 H785 0.930 . S
C791 C787 1.400 . S
C791 C790 1.385 . S
C792 C790 1.478 . S
C792 C794 1.381 . S
C792 C798 1.383 . S
C793 C789 1.495 . S
C793 H799 0.959 . S
C793 H800 0.961 . S
C793 H801 0.960 . S
C794 C792 1.381 . S
C794 C795 1.394 . S
C794 H802 0.930 . S
C795 C794 1.394 . S
C795 C796 1.383 . S
C795 H803 0.929 . S
C796 C795 1.383 . S
C796 C797 1.377 . S
C797 H781 0.930 . S
C797 C796 1.377 . S
C797 C798 1.379 . S
C798 H782 0.931 . S
C798 C792 1.383 . S
C798 C797 1.379 . S
H799 C793 0.959 . S
H800 C793 0.961 . S
H801 C793 0.960 . S
H802 C794 0.930 . S
H803 C795 0.929 . S
H804 C812 0.929 . S
H805 C814 0.930 . S
H806 C816 0.930 . S
H807 C819 0.929 . S
H808 C822 0.930 . S
H809 C824 0.960 . S
H810 C824 0.960 . S
H811 C824 0.960 . S
C812 H804 0.929 . S
C812 C813 1.377 . S
C812 C814 1.384 . S
C813 C812 1.377 . S
C813 C819 1.390 . S
C814 H805 0.930 . S
C814 C812 1.384 . S
C814 C815 1.372 . S
C815 C814 1.372 . S
C815 C816 1.400 . S
C815 C820 1.490 . S
C816 H806 0.930 . S
C816 C815 1.400 . S
C816 C819 1.386 . S
H817 C833 0.930 . S
H818 C834 0.931 . S
C819 H807 0.929 . S
C819 C813 1.390 . S
C819 C816 1.386 . S
C820 C815 1.490 . S
C820 C822 1.395 . S
C820 C823 1.403 . S
H821 C827 0.930 . S
C822 H808 0.930 . S
C822 C820 1.395 . S
C822 C825 1.403 . S
C823 C820 1.403 . S
C823 C824 1.524 . S
C823 C827 1.400 . S
C824 H809 0.960 . S
C824 H810 0.960 . S
C824 H811 0.960 . S
C824 C823 1.524 . S
C825 C822 1.403 . S
C825 C826 1.392 . S
C825 C829 1.495 . S
C826 C825 1.392 . S
C826 C827 1.385 . S
C826 C828 1.478 . S
C827 H821 0.930 . S
C827 C823 1.400 . S
C827 C826 1.385 . S
C828 C826 1.478 . S
C828 C830 1.381 . S
C828 C834 1.383 . S
C829 C825 1.495 . S
C829 H835 0.959 . S
C829 H836 0.961 . S
C829 H837 0.960 . S
C830 C828 1.381 . S
C830 C831 1.394 . S
C830 H838 0.930 . S
C831 C830 1.394 . S
C831 C832 1.383 . S
C831 H839 0.929 . S
C832 C831 1.383 . S
C832 C833 1.377 . S
C833 H817 0.930 . S
C833 C832 1.377 . S
C833 C834 1.379 . S
C834 H818 0.931 . S
C834 C828 1.383 . S
C834 C833 1.379 . S
H835 C829 0.959 . S
H836 C829 0.961 . S
H837 C829 0.960 . S
H838 C830 0.930 . S
H839 C831 0.929 . S
H840 C848 0.929 . S
H841 C850 0.930 . S
H842 C852 0.930 . S
H843 C855 0.929 . S
H844 C858 0.930 . S
H845 C860 0.960 . S
H846 C860 0.960 . S
H847 C860 0.960 . S
C848 H840 0.929 . S
C848 C849 1.377 . S
C848 C850 1.384 . S
C849 C848 1.377 . S
C849 C855 1.390 . S
C850 H841 0.930 . S
C850 C848 1.384 . S
C850 C851 1.372 . S
C851 C850 1.372 . S
C851 C852 1.400 . S
C851 C856 1.490 . S
C852 H842 0.930 . S
C852 C851 1.400 . S
C852 C855 1.386 . S
H853 C869 0.930 . S
H854 C870 0.931 . S
C855 H843 0.929 . S
C855 C849 1.390 . S
C855 C852 1.386 . S
C856 C851 1.490 . S
C856 C858 1.395 . S
C856 C859 1.403 . S
H857 C863 0.930 . S
C858 H844 0.930 . S
C858 C856 1.395 . S
C858 C861 1.403 . S
C859 C856 1.403 . S
C859 C860 1.524 . S
C859 C863 1.400 . S
C860 H845 0.960 . S
C860 H846 0.960 . S
C860 H847 0.960 . S
C860 C859 1.524 . S
C861 C858 1.403 . S
C861 C862 1.392 . S
C861 C865 1.495 . S
C862 C861 1.392 . S
C862 C863 1.385 . S
C862 C864 1.478 . S
C863 H857 0.930 . S
C863 C859 1.400 . S
C863 C862 1.385 . S
C864 C862 1.478 . S
C864 C866 1.381 . S
C864 C870 1.383 . S
C865 C861 1.495 . S
C865 H871 0.959 . S
C865 H872 0.961 . S
C865 H873 0.960 . S
C866 C864 1.381 . S
C866 C867 1.394 . S
C866 H874 0.930 . S
C867 C866 1.394 . S
C867 C868 1.383 . S
C867 H875 0.929 . S
C868 C867 1.383 . S
C868 C869 1.377 . S
C869 H853 0.930 . S
C869 C868 1.377 . S
C869 C870 1.379 . S
C870 H854 0.931 . S
C870 C864 1.383 . S
C870 C869 1.379 . S
H871 C865 0.959 . S
H872 C865 0.961 . S
H873 C865 0.960 . S
H874 C866 0.930 . S
H875 C867 0.929 . S
H876 C884 0.929 . S
H877 C886 0.930 . S
H878 C888 0.930 . S
H879 C891 0.929 . S
H880 C894 0.930 . S
H881 C896 0.960 . S
H882 C896 0.960 . S
H883 C896 0.960 . S
C884 H876 0.929 . S
C884 C885 1.377 . S
C884 C886 1.384 . S
C885 C884 1.377 . S
C885 C891 1.390 . S
C886 H877 0.930 . S
C886 C884 1.384 . S
C886 C887 1.372 . S
C887 C886 1.372 . S
C887 C888 1.400 . S
C887 C892 1.490 . S
C888 H878 0.930 . S
C888 C887 1.400 . S
C888 C891 1.386 . S
H889 C905 0.930 . S
H890 C906 0.931 . S
C891 H879 0.929 . S
C891 C885 1.390 . S
C891 C888 1.386 . S
C892 C887 1.490 . S
C892 C894 1.395 . S
C892 C895 1.403 . S
H893 C899 0.930 . S
C894 H880 0.930 . S
C894 C892 1.395 . S
C894 C897 1.403 . S
C895 C892 1.403 . S
C895 C896 1.524 . S
C895 C899 1.400 . S
C896 H881 0.960 . S
C896 H882 0.960 . S
C896 H883 0.960 . S
C896 C895 1.524 . S
C897 C894 1.403 . S
C897 C898 1.392 . S
C897 C901 1.495 . S
C898 C897 1.392 . S
C898 C899 1.385 . S
C898 C900 1.478 . S
C899 H893 0.930 . S
C899 C895 1.400 . S
C899 C898 1.385 . S
C900 C898 1.478 . S
C900 C902 1.381 . S
C900 C906 1.383 . S
C901 C897 1.495 . S
C901 H907 0.959 . S
C901 H908 0.961 . S
C901 H909 0.960 . S
C902 C900 1.381 . S
C902 C903 1.394 . S
C902 H910 0.930 . S
C903 C902 1.394 . S
C903 C904 1.383 . S
C903 H911 0.929 . S
C904 C903 1.383 . S
C904 C905 1.377 . S
C905 H889 0.930 . S
C905 C904 1.377 . S
C905 C906 1.379 . S
C906 H890 0.931 . S
C906 C900 1.383 . S
C906 C905 1.379 . S
H907 C901 0.959 . S
H908 C901 0.961 . S
H909 C901 0.960 . S
H910 C902 0.930 . S
H911 C903 0.929 . S
H912 C920 0.929 . S
H913 C922 0.930 . S
H914 C924 0.930 . S
H915 C927 0.929 . S
H916 C930 0.930 . S
H917 C932 0.960 . S
H918 C932 0.960 . S
H919 C932 0.960 . S
C920 H912 0.929 . S
C920 C921 1.377 . S
C920 C922 1.384 . S
C921 C920 1.377 . S
C921 C927 1.390 . S
C922 H913 0.930 . S
C922 C920 1.384 . S
C922 C923 1.372 . S
C923 C922 1.372 . S
C923 C924 1.400 . S
C923 C928 1.490 . S
C924 H914 0.930 . S
C924 C923 1.400 . S
C924 C927 1.386 . S
H925 C941 0.930 . S
H926 C942 0.931 1_556 S
C927 H915 0.929 . S
C927 C921 1.390 . S
C927 C924 1.386 . S
C928 C923 1.490 . S
C928 C930 1.395 . S
C928 C931 1.403 . S
H929 C935 0.930 . S
C930 H916 0.930 . S
C930 C928 1.395 . S
C930 C933 1.403 . S
C931 C928 1.403 . S
C931 C932 1.524 . S
C931 C935 1.400 . S
C932 H917 0.960 . S
C932 H918 0.960 . S
C932 H919 0.960 . S
C932 C931 1.524 . S
C933 C930 1.403 . S
C933 C934 1.392 . S
C933 C937 1.495 . S
C934 C933 1.392 . S
C934 C935 1.385 . S
C934 C936 1.478 1_556 S
C935 H929 0.930 . S
C935 C931 1.400 . S
C935 C934 1.385 . S
C936 C934 1.478 1_554 S
C936 C938 1.381 . S
C936 C942 1.383 . S
C937 C933 1.495 . S
C937 H943 0.959 . S
C937 H944 0.961 . S
C937 H945 0.960 1_556 S
C938 C936 1.381 . S
C938 C939 1.394 . S
C938 H946 0.930 . S
C939 C938 1.394 . S
C939 C940 1.383 . S
C939 H947 0.929 . S
C940 C939 1.383 . S
C940 C941 1.377 . S
C941 H925 0.930 . S
C941 C940 1.377 . S
C941 C942 1.380 . S
C942 H926 0.931 1_554 S
C942 C936 1.383 . S
C942 C941 1.380 . S
H943 C937 0.959 . S
H944 C937 0.961 . S
H945 C937 0.960 1_554 S
H946 C938 0.930 . S
H947 C939 0.929 . S
H948 C956 0.929 . S
H949 C958 0.930 . S
H950 C960 0.930 . S
H951 C963 0.929 . S
H952 C966 0.930 . S
H953 C968 0.960 . S
H954 C968 0.960 . S
H955 C968 0.960 . S
C956 H948 0.929 . S
C956 C957 1.377 . S
C956 C958 1.384 . S
C957 C956 1.377 . S
C957 C963 1.390 . S
C958 H949 0.930 . S
C958 C956 1.384 . S
C958 C959 1.372 . S
C959 C958 1.372 . S
C959 C960 1.400 . S
C959 C964 1.490 . S
C960 H950 0.930 . S
C960 C959 1.400 . S
C960 C963 1.386 . S
H961 C977 0.930 . S
H962 C978 0.931 . S
C963 H951 0.929 . S
C963 C957 1.390 . S
C963 C960 1.386 . S
C964 C959 1.490 . S
C964 C966 1.395 . S
C964 C967 1.403 . S
H965 C971 0.930 . S
C966 H952 0.930 . S
C966 C964 1.395 . S
C966 C969 1.403 . S
C967 C964 1.403 . S
C967 C968 1.524 . S
C967 C971 1.400 . S
C968 H953 0.960 . S
C968 H954 0.960 . S
C968 H955 0.960 . S
C968 C967 1.524 . S
C969 C966 1.403 . S
C969 C970 1.392 . S
C969 C973 1.495 . S
C970 C969 1.392 . S
C970 C971 1.385 . S
C970 C972 1.478 . S
C971 H965 0.930 . S
C971 C967 1.400 . S
C971 C970 1.385 . S
C972 C970 1.478 . S
C972 C974 1.381 . S
C972 C978 1.383 . S
C973 C969 1.495 . S
C973 H979 0.959 . S
C973 H980 0.961 . S
C973 H981 0.960 . S
C974 C972 1.381 . S
C974 C975 1.394 . S
C974 H982 0.930 . S
C975 C974 1.394 . S
C975 C976 1.383 . S
C975 H983 0.929 . S
C976 C975 1.383 . S
C976 C977 1.377 . S
C977 H961 0.930 . S
C977 C976 1.377 . S
C977 C978 1.379 . S
C978 H962 0.931 . S
C978 C972 1.383 . S
C978 C977 1.379 . S
H979 C973 0.959 . S
H980 C973 0.961 . S
H981 C973 0.960 . S
H982 C974 0.930 . S
H983 C975 0.929 . S
H984 C992 0.929 . S
H985 C994 0.930 . S
H986 C996 0.930 . S
H987 C999 0.929 . S
H988 C1002 0.930 . S
H989 C1004 0.960 . S
H990 C1004 0.960 . S
H991 C1004 0.960 . S
C992 H984 0.929 . S
C992 C993 1.377 . S
C992 C994 1.384 . S
C993 C992 1.377 . S
C993 C999 1.390 . S
C994 H985 0.930 . S
C994 C992 1.384 . S
C994 C995 1.372 . S
C995 C994 1.372 . S
C995 C996 1.400 . S
C995 C1000 1.490 . S
C996 H986 0.930 . S
C996 C995 1.400 . S
C996 C999 1.386 . S
H997 C1013 0.930 . S
H998 C1014 0.931 . S
C999 H987 0.929 . S
C999 C993 1.390 . S
C999 C996 1.386 . S
C1000 C995 1.490 . S
C1000 C1002 1.395 . S
C1000 C1003 1.403 . S
H1001 C1007 0.930 . S
C1002 H988 0.930 . S
C1002 C1000 1.395 . S
C1002 C1005 1.403 . S
C1003 C1000 1.403 . S
C1003 C1004 1.524 . S
C1003 C1007 1.400 . S
C1004 H989 0.960 . S
C1004 H990 0.960 . S
C1004 H991 0.960 . S
C1004 C1003 1.524 . S
C1005 C1002 1.403 . S
C1005 C1006 1.392 . S
C1005 C1009 1.495 . S
C1006 C1005 1.392 . S
C1006 C1007 1.385 . S
C1006 C1008 1.478 . S
C1007 H1001 0.930 . S
C1007 C1003 1.400 . S
C1007 C1006 1.385 . S
C1008 C1006 1.478 . S
C1008 C1010 1.381 . S
C1008 C1014 1.383 . S
C1009 C1005 1.495 . S
C1009 H1015 0.959 . S
C1009 H1016 0.961 . S
C1009 H1017 0.960 . S
C1010 C1008 1.381 . S
C1010 C1011 1.394 . S
C1010 H1018 0.930 . S
C1011 C1010 1.394 . S
C1011 C1012 1.383 . S
C1011 H1019 0.929 . S
C1012 C1011 1.383 . S
C1012 C1013 1.377 . S
C1013 H997 0.930 . S
C1013 C1012 1.377 . S
C1013 C1014 1.379 . S
C1014 H998 0.931 . S
C1014 C1008 1.383 . S
C1014 C1013 1.379 . S
H1015 C1009 0.959 . S
H1016 C1009 0.961 . S
H1017 C1009 0.960 . S
H1018 C1010 0.930 . S
H1019 C1011 0.929 . S
H1020 C1028 0.929 . S
H1021 C1030 0.930 . S
H1022 C1032 0.930 . S
H1023 C1035 0.929 . S
H1024 C1038 0.930 . S
H1025 C1040 0.960 . S
H1026 C1040 0.960 . S
H1027 C1040 0.960 . S
C1028 H1020 0.929 . S
C1028 C1029 1.377 . S
C1028 C1030 1.384 . S
C1029 C1028 1.377 . S
C1029 C1035 1.390 . S
C1030 H1021 0.930 . S
C1030 C1028 1.384 . S
C1030 C1031 1.372 . S
C1031 C1030 1.372 . S
C1031 C1032 1.400 . S
C1031 C1036 1.490 . S
C1032 H1022 0.930 . S
C1032 C1031 1.400 . S
C1032 C1035 1.386 . S
H1033 C1049 0.930 . S
H1034 C1050 0.931 . S
C1035 H1023 0.929 . S
C1035 C1029 1.390 . S
C1035 C1032 1.386 . S
C1036 C1031 1.490 . S
C1036 C1038 1.395 . S
C1036 C1039 1.403 . S
H1037 C1043 0.930 . S
C1038 H1024 0.930 . S
C1038 C1036 1.395 . S
C1038 C1041 1.403 . S
C1039 C1036 1.403 . S
C1039 C1040 1.524 . S
C1039 C1043 1.400 . S
C1040 H1025 0.960 . S
C1040 H1026 0.960 . S
C1040 H1027 0.960 . S
C1040 C1039 1.524 . S
C1041 C1038 1.403 . S
C1041 C1042 1.392 . S
C1041 C1045 1.495 . S
C1042 C1041 1.392 . S
C1042 C1043 1.385 . S
C1042 C1044 1.478 . S
C1043 H1037 0.930 . S
C1043 C1039 1.400 . S
C1043 C1042 1.385 . S
C1044 C1042 1.478 . S
C1044 C1046 1.381 . S
C1044 C1050 1.383 . S
C1045 C1041 1.495 . S
C1045 H1051 0.959 . S
C1045 H1052 0.961 . S
C1045 H1053 0.960 . S
C1046 C1044 1.381 . S
C1046 C1047 1.394 . S
C1046 H1054 0.930 . S
C1047 C1046 1.394 . S
C1047 C1048 1.383 . S
C1047 H1055 0.929 . S
C1048 C1047 1.383 . S
C1048 C1049 1.377 . S
C1049 H1033 0.930 . S
C1049 C1048 1.377 . S
C1049 C1050 1.379 . S
C1050 H1034 0.931 . S
C1050 C1044 1.383 . S
C1050 C1049 1.379 . S
H1051 C1045 0.959 . S
H1052 C1045 0.961 . S
H1053 C1045 0.960 . S
H1054 C1046 0.930 . S
H1055 C1047 0.929 . S
H1056 C1064 0.929 . S
H1057 C1066 0.930 . S
H1058 C1068 0.930 . S
H1059 C1071 0.929 . S
H1060 C1074 0.930 . S
H1061 C1076 0.960 . S
H1062 C1076 0.960 . S
H1063 C1076 0.960 . S
C1064 H1056 0.929 . S
C1064 C1065 1.377 . S
C1064 C1066 1.384 . S
C1065 C1064 1.377 . S
C1065 C1071 1.390 . S
C1066 H1057 0.930 . S
C1066 C1064 1.384 . S
C1066 C1067 1.372 . S
C1067 C1066 1.372 . S
C1067 C1068 1.400 . S
C1067 C1072 1.490 . S
C1068 H1058 0.930 . S
C1068 C1067 1.400 . S
C1068 C1071 1.386 . S
H1069 C1085 0.930 . S
H1070 C1086 0.931 . S
C1071 H1059 0.929 . S
C1071 C1065 1.390 . S
C1071 C1068 1.386 . S
C1072 C1067 1.490 . S
C1072 C1074 1.395 . S
C1072 C1075 1.403 . S
H1073 C1079 0.930 . S
C1074 H1060 0.930 . S
C1074 C1072 1.395 . S
C1074 C1077 1.403 . S
C1075 C1072 1.403 . S
C1075 C1076 1.524 . S
C1075 C1079 1.400 . S
C1076 H1061 0.960 . S
C1076 H1062 0.960 . S
C1076 H1063 0.960 . S
C1076 C1075 1.524 . S
C1077 C1074 1.403 . S
C1077 C1078 1.392 . S
C1077 C1081 1.495 . S
C1078 C1077 1.392 . S
C1078 C1079 1.385 . S
C1078 C1080 1.478 . S
C1079 H1073 0.930 . S
C1079 C1075 1.400 . S
C1079 C1078 1.385 . S
C1080 C1078 1.478 . S
C1080 C1082 1.381 . S
C1080 C1086 1.383 . S
C1081 C1077 1.495 . S
C1081 H1087 0.959 . S
C1081 H1088 0.961 . S
C1081 H1089 0.960 . S
C1082 C1080 1.381 . S
C1082 C1083 1.394 . S
C1082 H1090 0.930 . S
C1083 C1082 1.394 . S
C1083 C1084 1.383 . S
C1083 H1091 0.929 . S
C1084 C1083 1.383 . S
C1084 C1085 1.377 . S
C1085 H1069 0.930 . S
C1085 C1084 1.377 . S
C1085 C1086 1.379 . S
C1086 H1070 0.931 . S
C1086 C1080 1.383 . S
C1086 C1085 1.379 . S
H1087 C1081 0.959 . S
H1088 C1081 0.961 . S
H1089 C1081 0.960 . S
H1090 C1082 0.930 . S
H1091 C1083 0.929 . S
H1092 C1100 0.929 . S
H1093 C1102 0.930 . S
H1094 C1104 0.930 . S
H1095 C1107 0.929 . S
H1096 C1110 0.930 . S
H1097 C1112 0.960 . S
H1098 C1112 0.960 . S
H1099 C1112 0.960 . S
C1100 H1092 0.929 . S
C1100 C1101 1.377 . S
C1100 C1102 1.384 . S
C1101 C1100 1.377 . S
C1101 C1107 1.390 . S
C1102 H1093 0.930 . S
C1102 C1100 1.384 . S
C1102 C1103 1.372 . S
C1103 C1102 1.372 . S
C1103 C1104 1.400 . S
C1103 C1108 1.490 . S
C1104 H1094 0.930 . S
C1104 C1103 1.400 . S
C1104 C1107 1.386 . S
H1105 C1121 0.930 . S
H1106 C1122 0.931 . S
C1107 H1095 0.929 . S
C1107 C1101 1.390 . S
C1107 C1104 1.386 . S
C1108 C1103 1.490 . S
C1108 C1110 1.395 . S
C1108 C1111 1.403 . S
H1109 C1115 0.930 . S
C1110 H1096 0.930 . S
C1110 C1108 1.395 . S
C1110 C1113 1.403 . S
C1111 C1108 1.403 . S
C1111 C1112 1.524 . S
C1111 C1115 1.400 . S
C1112 H1097 0.960 . S
C1112 H1098 0.960 . S
C1112 H1099 0.960 . S
C1112 C1111 1.524 . S
C1113 C1110 1.403 . S
C1113 C1114 1.392 . S
C1113 C1117 1.495 . S
C1114 C1113 1.392 . S
C1114 C1115 1.385 . S
C1114 C1116 1.478 . S
C1115 H1109 0.930 . S
C1115 C1111 1.400 . S
C1115 C1114 1.385 . S
C1116 C1114 1.478 . S
C1116 C1118 1.381 . S
C1116 C1122 1.383 . S
C1117 C1113 1.495 . S
C1117 H1123 0.959 . S
C1117 H1124 0.961 . S
C1117 H1125 0.960 . S
C1118 C1116 1.381 . S
C1118 C1119 1.394 . S
C1118 H1126 0.930 . S
C1119 C1118 1.394 . S
C1119 C1120 1.383 . S
C1119 H1127 0.929 . S
C1120 C1119 1.383 . S
C1120 C1121 1.377 . S
C1121 H1105 0.930 . S
C1121 C1120 1.377 . S
C1121 C1122 1.379 . S
C1122 H1106 0.931 . S
C1122 C1116 1.383 . S
C1122 C1121 1.379 . S
H1123 C1117 0.959 . S
H1124 C1117 0.961 . S
H1125 C1117 0.960 . S
H1126 C1118 0.930 . S
H1127 C1119 0.929 . S
H1128 C1136 0.929 . S
H1129 C1138 0.930 . S
H1130 C1140 0.930 . S
H1131 C1143 0.929 . S
H1132 C1146 0.930 . S
H1133 C1148 0.960 . S
H1134 C1148 0.960 . S
H1135 C1148 0.960 . S
C1136 H1128 0.929 . S
C1136 C1137 1.377 . S
C1136 C1138 1.384 . S
C1137 C1136 1.377 . S
C1137 C1143 1.390 . S
C1138 H1129 0.930 . S
C1138 C1136 1.384 . S
C1138 C1139 1.372 . S
C1139 C1138 1.372 . S
C1139 C1140 1.400 . S
C1139 C1144 1.490 . S
C1140 H1130 0.930 . S
C1140 C1139 1.400 . S
C1140 C1143 1.386 . S
H1141 C1157 0.930 . S
H1142 C1158 0.931 . S
C1143 H1131 0.929 . S
C1143 C1137 1.390 . S
C1143 C1140 1.386 . S
C1144 C1139 1.490 . S
C1144 C1146 1.395 . S
C1144 C1147 1.403 . S
H1145 C1151 0.930 . S
C1146 H1132 0.930 . S
C1146 C1144 1.395 . S
C1146 C1149 1.403 . S
C1147 C1144 1.403 . S
C1147 C1148 1.524 . S
C1147 C1151 1.400 . S
C1148 H1133 0.960 . S
C1148 H1134 0.960 . S
C1148 H1135 0.960 . S
C1148 C1147 1.524 . S
C1149 C1146 1.403 . S
C1149 C1150 1.392 . S
C1149 C1153 1.495 . S
C1150 C1149 1.392 . S
C1150 C1151 1.385 . S
C1150 C1152 1.478 . S
C1151 H1145 0.930 . S
C1151 C1147 1.400 . S
C1151 C1150 1.385 . S
C1152 C1150 1.478 . S
C1152 C1154 1.381 . S
C1152 C1158 1.383 . S
C1153 C1149 1.495 . S
C1153 H1159 0.959 . S
C1153 H1160 0.961 . S
C1153 H1161 0.960 . S
C1154 C1152 1.381 . S
C1154 C1155 1.394 . S
C1154 H1162 0.930 . S
C1155 C1154 1.394 . S
C1155 C1156 1.383 . S
C1155 H1163 0.929 . S
C1156 C1155 1.383 . S
C1156 C1157 1.377 . S
C1157 H1141 0.930 . S
C1157 C1156 1.377 . S
C1157 C1158 1.379 . S
C1158 H1142 0.931 . S
C1158 C1152 1.383 . S
C1158 C1157 1.379 . S
H1159 C1153 0.959 . S
H1160 C1153 0.961 . S
H1161 C1153 0.960 . S
H1162 C1154 0.930 . S
H1163 C1155 0.929 . S
H1164 C1172 0.929 . S
H1165 C1174 0.930 . S
H1166 C1176 0.930 . S
H1167 C1179 0.929 . S
H1168 C1182 0.930 . S
H1169 C1184 0.960 . S
H1170 C1184 0.960 . S
H1171 C1184 0.960 . S
C1172 H1164 0.929 . S
C1172 C1173 1.377 . S
C1172 C1174 1.384 . S
C1173 C1172 1.377 . S
C1173 C1179 1.390 . S
C1174 H1165 0.930 . S
C1174 C1172 1.384 . S
C1174 C1175 1.372 . S
C1175 C1174 1.372 . S
C1175 C1176 1.400 . S
C1175 C1180 1.490 . S
C1176 H1166 0.930 . S
C1176 C1175 1.400 . S
C1176 C1179 1.386 . S
H1177 C1193 0.930 . S
H1178 C1194 0.931 . S
C1179 H1167 0.929 . S
C1179 C1173 1.390 . S
C1179 C1176 1.386 . S
C1180 C1175 1.490 . S
C1180 C1182 1.395 . S
C1180 C1183 1.403 . S
H1181 C1187 0.930 . S
C1182 H1168 0.930 . S
C1182 C1180 1.395 . S
C1182 C1185 1.403 1_554 S
C1183 C1180 1.403 . S
C1183 C1184 1.524 . S
C1183 C1187 1.400 . S
C1184 H1169 0.960 . S
C1184 H1170 0.960 . S
C1184 H1171 0.960 . S
C1184 C1183 1.524 . S
C1185 C1182 1.403 1_556 S
C1185 C1186 1.392 . S
C1185 C1189 1.495 . S
C1186 C1185 1.392 . S
C1186 C1187 1.385 1_556 S
C1186 C1188 1.478 . S
C1187 H1181 0.930 . S
C1187 C1183 1.400 . S
C1187 C1186 1.385 1_554 S
C1188 C1186 1.478 . S
C1188 C1190 1.381 . S
C1188 C1194 1.383 . S
C1189 C1185 1.495 . S
C1189 H1195 0.959 . S
C1189 H1196 0.961 . S
C1189 H1197 0.960 . S
C1190 C1188 1.381 . S
C1190 C1191 1.394 . S
C1190 H1198 0.930 . S
C1191 C1190 1.394 . S
C1191 C1192 1.383 . S
C1191 H1199 0.929 . S
C1192 C1191 1.383 . S
C1192 C1193 1.377 . S
C1193 H1177 0.930 . S
C1193 C1192 1.377 . S
C1193 C1194 1.379 . S
C1194 H1178 0.931 . S
C1194 C1188 1.383 . S
C1194 C1193 1.379 . S
H1195 C1189 0.959 . S
H1196 C1189 0.961 . S
H1197 C1189 0.960 . S
H1198 C1190 0.930 . S
H1199 C1191 0.929 . S
H1200 C1208 0.929 . S
H1201 C1210 0.930 . S
H1202 C1212 0.930 . S
H1203 C1215 0.929 . S
H1204 C1218 0.930 . S
H1205 C1220 0.960 . S
H1206 C1220 0.960 . S
H1207 C1220 0.960 . S
C1208 H1200 0.929 . S
C1208 C1209 1.377 . S
C1208 C1210 1.384 . S
C1209 C1208 1.377 . S
C1209 C1215 1.390 . S
C1210 H1201 0.930 . S
C1210 C1208 1.384 . S
C1210 C1211 1.372 . S
C1211 C1210 1.372 . S
C1211 C1212 1.400 . S
C1211 C1216 1.490 . S
C1212 H1202 0.930 . S
C1212 C1211 1.400 . S
C1212 C1215 1.386 . S
H1213 C1229 0.930 . S
H1214 C1230 0.931 . S
C1215 H1203 0.929 . S
C1215 C1209 1.390 . S
C1215 C1212 1.386 . S
C1216 C1211 1.490 . S
C1216 C1218 1.395 . S
C1216 C1219 1.403 . S
H1217 C1223 0.930 . S
C1218 H1204 0.930 . S
C1218 C1216 1.395 . S
C1218 C1221 1.403 . S
C1219 C1216 1.403 . S
C1219 C1220 1.524 . S
C1219 C1223 1.400 . S
C1220 H1205 0.960 . S
C1220 H1206 0.960 . S
C1220 H1207 0.960 . S
C1220 C1219 1.524 . S
C1221 C1218 1.403 . S
C1221 C1222 1.392 . S
C1221 C1225 1.495 . S
C1222 C1221 1.392 . S
C1222 C1223 1.385 . S
C1222 C1224 1.478 . S
C1223 H1217 0.930 . S
C1223 C1219 1.400 . S
C1223 C1222 1.385 . S
C1224 C1222 1.478 . S
C1224 C1226 1.381 . S
C1224 C1230 1.383 . S
C1225 C1221 1.495 . S
C1225 H1231 0.959 . S
C1225 H1232 0.961 . S
C1225 H1233 0.960 . S
C1226 C1224 1.381 . S
C1226 C1227 1.394 . S
C1226 H1234 0.930 . S
C1227 C1226 1.394 . S
C1227 C1228 1.383 . S
C1227 H1235 0.929 . S
C1228 C1227 1.383 . S
C1228 C1229 1.377 . S
C1229 H1213 0.930 . S
C1229 C1228 1.377 . S
C1229 C1230 1.379 . S
C1230 H1214 0.931 . S
C1230 C1224 1.383 . S
C1230 C1229 1.379 . S
H1231 C1225 0.959 . S
H1232 C1225 0.961 . S
H1233 C1225 0.960 . S
H1234 C1226 0.930 . S
H1235 C1227 0.929 . S
C400 C365 1.510 . S
C381 C45 1.524 . S
C417 C84 1.483 . S
C436 C294 1.472 . S
C453 C126 1.503 . S
C472 C308 1.503 . S
C489 C189 1.482 . S
C508 C322 1.428 . S
C544 C336 1.504 . S
C525 C228 1.520 . S
C561 C270 1.480 . S
C580 C351 1.452 . S
C597 C69 1.483 . S
C616 C309 1.430 . S
C633 C141 1.525 . S
C652 C323 1.510 . S
C669 C174 1.481 . S
C688 C337 1.437 . S
C724 C350 1.506 . S
C705 C213 1.509 . S
C760 C364 1.437 . S
C741 C285 1.483 . S
C796 C295 1.482 . S
C777 C30 1.506 . S
C813 C36 1.512 . S
C832 C311 1.505 . S
C849 C93 1.627 . S
C868 C325 1.597 . S
C904 C339 1.470 . S
C885 C117 1.502 . S
C921 C180 1.623 . S
C940 C352 1.613 . S
C976 C366 1.503 . S
C957 C237 1.510 . S
C1012 C297 1.612 . S
C993 C261 1.611 . S
C1048 C367 1.580 . S
C1029 C78 1.596 . S
C1065 C132 1.511 . S
C1084 C296 1.495 . S
C1120 C310 1.597 . S
C1101 C165 1.611 . S
C1137 C222 1.494 . S
C1156 C324 1.485 . S
C1173 C276 1.621 . S
C1192 C338 1.593 . S
C1209 C21 1.502 . S
C1228 C353 1.470 . S
