# Generated by pormake.
# Topology pyr, (3,6)-cn, num edge types: 1
# Building blocks:
#     Node 0, Type 0, BuildingBlock: BELTOD_clean_linker_0, # of connection points: 3
#     Node 1, Type 0, BuildingBlock: BELTOD_clean_linker_0, # of connection points: 3
#     Node 2, Type 0, BuildingBlock: BELTOD_clean_linker_0, # of connection points: 3
#     Node 3, Type 0, BuildingBlock: BELTOD_clean_linker_0, # of connection points: 3
#     Node 4, Type 0, BuildingBlock: BELTOD_clean_linker_0, # of connection points: 3
#     Node 5, Type 0, BuildingBlock: BELTOD_clean_linker_0, # of connection points: 3
#     Node 6, Type 0, BuildingBlock: BELTOD_clean_linker_0, # of connection points: 3
#     Node 7, Type 0, BuildingBlock: BELTOD_clean_linker_0, # of connection points: 3
#     Node 8, Type 1, BuildingBlock: MIDCAF_clean_sbu_0, # of connection points: 6
#     Node 9, Type 1, BuildingBlock: MIDCAF_clean_sbu_0, # of connection points: 6
#     Node 10, Type 1, BuildingBlock: MIDCAF_clean_sbu_0, # of connection points: 6
#     Node 11, Type 1, BuildingBlock: MIDCAF_clean_sbu_0, # of connection points: 6
#     Edge 12, Type (0, 1), BuildingBlock: ZUJKAS_clean_linker_0, # of connection points: 2
#     Edge 13, Type (0, 1), BuildingBlock: ZUJKAS_clean_linker_0, # of connection points: 2
#     Edge 14, Type (0, 1), BuildingBlock: ZUJKAS_clean_linker_0, # of connection points: 2
#     Edge 15, Type (0, 1), BuildingBlock: ZUJKAS_clean_linker_0, # of connection points: 2
#     Edge 16, Type (0, 1), BuildingBlock: ZUJKAS_clean_linker_0, # of connection points: 2
#     Edge 17, Type (0, 1), BuildingBlock: ZUJKAS_clean_linker_0, # of connection points: 2
#     Edge 18, Type (0, 1), BuildingBlock: ZUJKAS_clean_linker_0, # of connection points: 2
#     Edge 19, Type (0, 1), BuildingBlock: ZUJKAS_clean_linker_0, # of connection points: 2
#     Edge 20, Type (0, 1), BuildingBlock: ZUJKAS_clean_linker_0, # of connection points: 2
#     Edge 21, Type (0, 1), BuildingBlock: ZUJKAS_clean_linker_0, # of connection points: 2
#     Edge 22, Type (0, 1), BuildingBlock: ZUJKAS_clean_linker_0, # of connection points: 2
#     Edge 23, Type (0, 1), BuildingBlock: ZUJKAS_clean_linker_0, # of connection points: 2
#     Edge 24, Type (0, 1), BuildingBlock: ZUJKAS_clean_linker_0, # of connection points: 2
#     Edge 25, Type (0, 1), BuildingBlock: ZUJKAS_clean_linker_0, # of connection points: 2
#     Edge 26, Type (0, 1), BuildingBlock: ZUJKAS_clean_linker_0, # of connection points: 2
#     Edge 27, Type (0, 1), BuildingBlock: ZUJKAS_clean_linker_0, # of connection points: 2
#     Edge 28, Type (0, 1), BuildingBlock: ZUJKAS_clean_linker_0, # of connection points: 2
#     Edge 29, Type (0, 1), BuildingBlock: ZUJKAS_clean_linker_0, # of connection points: 2
#     Edge 30, Type (0, 1), BuildingBlock: ZUJKAS_clean_linker_0, # of connection points: 2
#     Edge 31, Type (0, 1), BuildingBlock: ZUJKAS_clean_linker_0, # of connection points: 2
#     Edge 32, Type (0, 1), BuildingBlock: ZUJKAS_clean_linker_0, # of connection points: 2
#     Edge 33, Type (0, 1), BuildingBlock: ZUJKAS_clean_linker_0, # of connection points: 2
#     Edge 34, Type (0, 1), BuildingBlock: ZUJKAS_clean_linker_0, # of connection points: 2
#     Edge 35, Type (0, 1), BuildingBlock: ZUJKAS_clean_linker_0, # of connection points: 2
# Relax obj value: 0.020
# Max RMSD: 0.062
# Mean RMSD: 0.033
data_MOF--net-pyr--node1-MIDCAF_clean_sbu_0--node2-BELTOD_clean_linker_0--edge1-ZUJKAS_clean_linker_0
_symmetry_space_group_name_H-M    P1
_symmetry_Int_Tables_number       1
_symmetry_cell_setting            triclinic
loop_
_symmetry_equiv_pos_as_xyz
'x, y, z'
_cell_length_a     51.135284
_cell_length_b     51.469637
_cell_length_c     50.732225
_cell_angle_alpha  89.811939
_cell_angle_beta   90.13135
_cell_angle_gamma 90.244372
loop_
_atom_site_label
_atom_site_type_symbol
_atom_site_fract_x
_atom_site_fract_y
_atom_site_fract_z
_atom_type_partial_charge
P0 P 0.25651 0.2719 0.25786 0.0
H1 H 0.30841 0.2806 0.23587 0.0
H2 H 0.33872 0.25272 0.21203 0.0
H3 H 0.28115 0.19096 0.21248 0.0
H4 H 0.25114 0.2189 0.23687 0.0
H5 H 0.23397 0.32272 0.26761 0.0
H6 H 0.20927 0.353 0.24022 0.0
H7 H 0.21092 0.29801 0.17601 0.0
H8 H 0.23629 0.26804 0.2035 0.0
H9 H 0.26859 0.24304 0.30547 0.0
H10 H 0.20067 0.25675 0.25699 0.0
O11 O 0.27543 0.29038 0.2771 0.0
H12 H 0.24238 0.2164 0.33538 0.0
H13 H 0.17428 0.22966 0.28661 0.0
C14 C 0.27776 0.25165 0.23856 0.0
C15 C 0.30232 0.26106 0.23081 0.0
C16 C 0.31957 0.24512 0.21701 0.0
C17 C 0.31249 0.21948 0.21048 0.0
C18 C 0.28745 0.21041 0.21764 0.0
C19 C 0.27021 0.2264 0.23147 0.0
C20 C 0.23735 0.29336 0.23744 0.0
C21 C 0.22908 0.31721 0.2476 0.0
C22 C 0.21476 0.33444 0.23194 0.0
C23 C 0.20814 0.32805 0.2058 0.0
C24 C 0.21606 0.3038 0.19586 0.0
C25 C 0.23046 0.28656 0.2116 0.0
C26 C 0.23651 0.25218 0.27929 0.0
C27 C 0.24799 0.24029 0.30129 0.0
C28 C 0.233 0.22488 0.31825 0.0
C29 C 0.20617 0.22089 0.31345 0.0
C30 C 0.19477 0.23265 0.29112 0.0
C31 C 0.20987 0.24807 0.2741 0.0
P32 P 0.32506 0.82661 0.71659 0.0
H33 H 0.37281 0.80836 0.74168 0.0
H34 H 0.39251 0.81697 0.78476 0.0
H35 H 0.32348 0.85959 0.8074 0.0
H36 H 0.30368 0.85013 0.76486 0.0
H37 H 0.32806 0.80777 0.66291 0.0
H38 H 0.33572 0.76495 0.64414 0.0
H39 H 0.33312 0.73113 0.72222 0.0
H40 H 0.32582 0.77435 0.74089 0.0
H41 H 0.30649 0.87958 0.71191 0.0
H42 H 0.27246 0.80284 0.7144 0.0
O43 O 0.34512 0.84522 0.69868 0.0
H44 H 0.2633 0.8984 0.70537 0.0
H45 H 0.22883 0.82161 0.70815 0.0
C46 C 0.33675 0.82846 0.75006 0.0
C47 C 0.36167 0.81895 0.75623 0.0
C48 C 0.373 0.8241 0.78078 0.0
C49 C 0.3597 0.83918 0.79953 0.0
C50 C 0.33419 0.84764 0.79365 0.0
C51 C 0.32286 0.84236 0.76914 0.0
C52 C 0.32703 0.79428 0.70329 0.0
C53 C 0.3289 0.79109 0.67597 0.0
C54 C 0.33306 0.76652 0.66524 0.0
C55 C 0.33525 0.74455 0.68168 0.0
C56 C 0.33198 0.74769 0.70905 0.0
C57 C 0.32776 0.77237 0.71975 0.0
C58 C 0.29269 0.83982 0.71308 0.0
C59 C 0.28964 0.86678 0.71114 0.0
C60 C 0.26486 0.87754 0.70769 0.0
C61 C 0.24256 0.86152 0.70622 0.0
C62 C 0.24565 0.83446 0.7089 0.0
C63 C 0.27054 0.8237 0.71248 0.0
P64 P 0.75685 0.27449 0.77363 0.0
H65 H 0.79828 0.26563 0.81192 0.0
H66 H 0.82646 0.29471 0.83738 0.0
H67 H 0.78857 0.36095 0.80145 0.0
H68 H 0.7599 0.33178 0.77693 0.0
H69 H 0.72922 0.22614 0.76312 0.0
H70 H 0.70497 0.19571 0.79117 0.0
H71 H 0.71847 0.24563 0.85817 0.0
H72 H 0.7426 0.27598 0.83001 0.0
H73 H 0.76566 0.29627 0.72141 0.0
H74 H 0.70223 0.29205 0.77711 0.0
O75 O 0.77688 0.25609 0.75578 0.0
H76 H 0.73833 0.32158 0.69134 0.0
H77 H 0.67475 0.31763 0.74719 0.0
C78 C 0.77697 0.29647 0.79258 0.0
C79 C 0.79601 0.28643 0.80965 0.0
C80 C 0.81227 0.30312 0.82401 0.0
C81 C 0.80994 0.33026 0.82141 0.0
C82 C 0.79074 0.34021 0.80424 0.0
C83 C 0.77437 0.32347 0.79002 0.0
C84 C 0.73811 0.25305 0.79455 0.0
C85 C 0.72693 0.23051 0.78385 0.0
C86 C 0.71299 0.21321 0.79988 0.0
C87 C 0.71001 0.21814 0.82696 0.0
C88 C 0.72085 0.24105 0.8375 0.0
C89 C 0.7346 0.25845 0.82138 0.0
C90 C 0.73581 0.29189 0.75123 0.0
C91 C 0.74574 0.3006 0.72705 0.0
C92 C 0.73015 0.31524 0.70997 0.0
C93 C 0.70432 0.32159 0.71683 0.0
C94 C 0.69441 0.31274 0.74114 0.0
C95 C 0.71012 0.29817 0.75829 0.0
P96 P 0.77549 0.77718 0.27348 0.0
H97 H 0.79332 0.83035 0.26451 0.0
H98 H 0.81977 0.86045 0.29062 0.0
H99 H 0.82719 0.8021 0.35166 0.0
H100 H 0.80136 0.77191 0.32501 0.0
H101 H 0.76787 0.76195 0.21861 0.0
H102 H 0.7953 0.73895 0.18711 0.0
H103 H 0.85538 0.73093 0.24661 0.0
H104 H 0.82789 0.75442 0.27792 0.0
H105 H 0.74323 0.78549 0.31975 0.0
H106 H 0.76662 0.72045 0.27205 0.0
O107 O 0.75382 0.7948 0.25656 0.0
H108 H 0.71628 0.75664 0.3468 0.0
H109 H 0.73921 0.69154 0.29858 0.0
C110 C 0.79495 0.79912 0.29307 0.0
C111 C 0.80056 0.82411 0.28357 0.0
C112 C 0.81557 0.84135 0.29861 0.0
C113 C 0.82542 0.83383 0.3234 0.0
C114 C 0.82007 0.80853 0.33261 0.0
C115 C 0.8051 0.79129 0.3175 0.0
C116 C 0.79605 0.76031 0.25044 0.0
C117 C 0.78703 0.75542 0.22483 0.0
C118 C 0.80267 0.74208 0.20688 0.0
C119 C 0.82762 0.73317 0.21427 0.0
C120 C 0.83648 0.73791 0.24012 0.0
C121 C 0.82075 0.75125 0.25808 0.0
C122 C 0.75723 0.75511 0.29415 0.0
C123 C 0.74268 0.76495 0.31521 0.0
C124 C 0.72708 0.74844 0.3305 0.0
C125 C 0.72548 0.72173 0.32484 0.0
C126 C 0.74025 0.71192 0.30373 0.0
C127 C 0.7559 0.72848 0.28846 0.0
P128 P 0.92067 0.92906 0.92956 0.0
H129 H 0.89939 0.96267 0.97042 0.0
H130 H 0.85625 0.98189 0.97716 0.0
H131 H 0.82793 0.94398 0.90682 0.0
H132 H 0.87108 0.92424 0.90047 0.0
H133 H 0.94104 0.90704 0.97863 0.0
H134 H 0.94223 0.86286 0.99626 0.0
H135 H 0.90158 0.83513 0.927 0.0
H136 H 0.9002 0.87963 0.90963 0.0
H137 H 0.90454 0.96099 0.88423 0.0
H138 H 0.96032 0.9003 0.90031 0.0
O139 O 0.94245 0.947 0.94606 0.0
H140 H 0.91992 0.9637 0.83884 0.0
H141 H 0.97652 0.9037 0.85486 0.0
C142 C 0.88862 0.94263 0.93453 0.0
C143 C 0.88395 0.95852 0.95639 0.0
C144 C 0.85928 0.96942 0.96029 0.0
C145 C 0.83889 0.96469 0.94231 0.0
C146 C 0.84346 0.94831 0.9207 0.0
C147 C 0.86805 0.93702 0.91709 0.0
C148 C 0.92098 0.89648 0.94259 0.0
C149 C 0.93243 0.89147 0.9672 0.0
C150 C 0.93313 0.86617 0.97724 0.0
C151 C 0.92219 0.84541 0.96295 0.0
C152 C 0.91003 0.85069 0.93859 0.0
C153 C 0.9094 0.87605 0.92854 0.0
C154 C 0.93051 0.92966 0.89543 0.0
C155 C 0.91964 0.94777 0.87789 0.0
C156 C 0.92857 0.94945 0.85194 0.0
C157 C 0.94917 0.93367 0.84329 0.0
C158 C 0.96047 0.91593 0.86101 0.0
C159 C 0.95113 0.91389 0.88688 0.0
P160 P 0.66544 0.16258 0.38787 0.0
H161 H 0.68994 0.21122 0.40372 0.0
H162 H 0.67742 0.245 0.43449 0.0
H163 H 0.61087 0.19866 0.4588 0.0
H164 H 0.6231 0.16529 0.42681 0.0
H165 H 0.70072 0.12631 0.36294 0.0
H166 H 0.72958 0.09261 0.38003 0.0
H167 H 0.70073 0.10666 0.45872 0.0
H168 H 0.6722 0.14081 0.44142 0.0
H169 H 0.62602 0.18879 0.35647 0.0
H170 H 0.64186 0.11043 0.38211 0.0
O171 O 0.68359 0.17765 0.36513 0.0
H172 H 0.59186 0.17264 0.3269 0.0
H173 H 0.60757 0.09419 0.35288 0.0
C174 C 0.65711 0.18607 0.4126 0.0
C175 C 0.67267 0.2083 0.41568 0.0
C176 C 0.66562 0.22752 0.43362 0.0
C177 C 0.64303 0.22471 0.4492 0.0
C178 C 0.62811 0.20174 0.44683 0.0
C179 C 0.6351 0.18259 0.42863 0.0
C180 C 0.68483 0.13644 0.40098 0.0
C181 C 0.70055 0.12206 0.38387 0.0
C182 C 0.71682 0.10257 0.39365 0.0
C183 C 0.71757 0.09698 0.42079 0.0
C184 C 0.70089 0.11075 0.43777 0.0
C185 C 0.68456 0.13028 0.42791 0.0
C186 C 0.63671 0.15081 0.37116 0.0
C187 C 0.62169 0.16817 0.35619 0.0
C188 C 0.60208 0.15891 0.3394 0.0
C189 C 0.59722 0.13209 0.3373 0.0
C190 C 0.61116 0.11492 0.35373 0.0
C191 C 0.63076 0.12422 0.37052 0.0
P192 P 0.40982 0.61874 0.1099 0.0
H193 H 0.36524 0.63086 0.07589 0.0
H194 H 0.32065 0.61384 0.07354 0.0
H195 H 0.3373 0.56146 0.13799 0.0
H196 H 0.38187 0.57908 0.1408 0.0
H197 H 0.45059 0.64773 0.08247 0.0
H198 H 0.45504 0.69317 0.06949 0.0
H199 H 0.3788 0.70911 0.10231 0.0
H200 H 0.37518 0.66381 0.11636 0.0
H201 H 0.44376 0.57955 0.13362 0.0
H202 H 0.40521 0.6498 0.15798 0.0
O203 O 0.42699 0.60074 0.08886 0.0
H204 H 0.4615 0.57398 0.17795 0.0
H205 H 0.42351 0.64483 0.20226 0.0
C206 C 0.37659 0.60699 0.10919 0.0
C207 C 0.35918 0.61619 0.08997 0.0
C208 C 0.33373 0.60639 0.08858 0.0
C209 C 0.32547 0.58661 0.10585 0.0
C210 C 0.34315 0.57684 0.1246 0.0
C211 C 0.36854 0.58702 0.12629 0.0
C212 C 0.41227 0.65225 0.09973 0.0
C213 C 0.43476 0.66098 0.0867 0.0
C214 C 0.43718 0.687 0.07911 0.0
C215 C 0.41711 0.70486 0.08446 0.0
C216 C 0.39471 0.69601 0.09792 0.0
C217 C 0.39246 0.67001 0.10573 0.0
C218 C 0.42357 0.61534 0.1424 0.0
C219 C 0.43942 0.594 0.14843 0.0
C220 C 0.44967 0.59091 0.17379 0.0
C221 C 0.44416 0.60909 0.19366 0.0
C222 C 0.42804 0.63038 0.18751 0.0
C223 C 0.41773 0.63338 0.16213 0.0
P224 P 0.17288 0.37817 0.67788 0.0
H225 H 0.1953 0.32725 0.66644 0.0
H226 H 0.18389 0.2934 0.63499 0.0
H227 H 0.12221 0.34195 0.60379 0.0
H228 H 0.13311 0.37527 0.63634 0.0
H229 H 0.20579 0.41924 0.69999 0.0
H230 H 0.23637 0.45038 0.6799 0.0
H231 H 0.21369 0.42355 0.60266 0.0
H232 H 0.18278 0.39315 0.62251 0.0
H233 H 0.12462 0.35164 0.69269 0.0
H234 H 0.15746 0.42856 0.70049 0.0
O235 O 0.19149 0.36461 0.70117 0.0
H236 H 0.08817 0.3639 0.72083 0.0
H237 H 0.12183 0.44059 0.72962 0.0
C238 C 0.16475 0.35356 0.65399 0.0
C239 C 0.17924 0.33056 0.65292 0.0
C240 C 0.17287 0.31131 0.63464 0.0
C241 C 0.15209 0.31484 0.61674 0.0
C242 C 0.13802 0.33831 0.61752 0.0
C243 C 0.14426 0.35743 0.63605 0.0
C244 C 0.19197 0.40377 0.66284 0.0
C245 C 0.20691 0.42053 0.67871 0.0
C246 C 0.22433 0.4383 0.66727 0.0
C247 C 0.22739 0.43919 0.6398 0.0
C248 C 0.21172 0.42311 0.62392 0.0
C249 C 0.19401 0.4057 0.63533 0.0
C250 C 0.14365 0.38926 0.69408 0.0
C251 C 0.12375 0.37136 0.69999 0.0
C252 C 0.10303 0.37831 0.7164 0.0
C253 C 0.10207 0.40319 0.72773 0.0
C254 C 0.12163 0.42138 0.72099 0.0
C255 C 0.14222 0.41445 0.70437 0.0
Zn256 Zn 0.98981 0.0628 0.55027 0.0
Zn257 Zn 0.05148 0.99522 0.49851 0.0
Zn258 Zn 0.01977 0.02868 0.52435 0.0
C259 C 0.06617 0.04639 0.48442 0.0
C260 C 0.99961 0.98716 0.48093 0.0
O261 O 0.02023 0.01756 0.56646 0.0
O262 O 0.99441 0.04636 0.58556 0.0
C263 C 0.0305 0.09131 0.52851 0.0
O264 O 0.04802 0.05185 0.50111 0.0
O265 O 0.07196 0.02298 0.4798 0.0
O266 O 0.02228 0.9776 0.4795 0.0
O267 O 0.99516 0.00681 0.49594 0.0
O268 O 0.0103 0.09436 0.54239 0.0
O269 O 0.03637 0.06858 0.5197 0.0
O270 O 0.97918 0.02443 0.50969 0.0
O271 O 0.95754 0.05591 0.52974 0.0
C272 C 0.95795 0.03719 0.51374 0.0
O273 O 0.03942 0.00299 0.5535 0.0
O274 O 0.06601 0.97801 0.53042 0.0
C275 C 0.00885 0.02656 0.58714 0.0
C276 C 0.05692 0.98505 0.55238 0.0
Zn277 Zn 0.49248 0.05134 0.9998 0.0
Zn278 Zn 0.55333 0.99252 0.06314 0.0
Zn279 Zn 0.52217 0.02093 0.03261 0.0
C280 C 0.58475 0.01189 0.02367 0.0
C281 C 0.51418 0.95949 0.04387 0.0
O282 O 0.49997 0.04892 0.05692 0.0
O283 O 0.47817 0.07355 0.0285 0.0
C284 C 0.54472 0.05759 0.98491 0.0
O285 O 0.56346 0.02436 0.01869 0.0
O286 O 0.58541 0.99505 0.04177 0.0
O287 O 0.53283 0.95997 0.06021 0.0
O288 O 0.50795 0.98016 0.0309 0.0
O289 O 0.52212 0.06479 0.97811 0.0
O290 O 0.54796 0.04174 0.00438 0.0
O291 O 0.49524 0.99479 0.01124 0.0
O292 O 0.47146 0.02129 0.98648 0.0
C293 C 0.477 0.99854 0.99408 0.0
O294 O 0.51797 0.03565 0.07319 0.0
O295 O 0.54946 0.01504 0.09474 0.0
C296 C 0.48411 0.06775 0.05198 0.0
C297 C 0.53138 0.03168 0.09432 0.0
Zn298 Zn 0.54832 0.55416 0.54685 0.0
Zn299 Zn 0.49059 0.49246 0.48394 0.0
Zn300 Zn 0.5203 0.52391 0.51335 0.0
C301 C 0.52725 0.46103 0.50861 0.0
C302 C 0.51614 0.52811 0.45012 0.0
O303 O 0.49332 0.54525 0.53972 0.0
O304 O 0.51807 0.56858 0.56668 0.0
C305 C 0.5639 0.50276 0.55531 0.0
O306 O 0.53465 0.48337 0.51746 0.0
O307 O 0.50717 0.45921 0.4942 0.0
O308 O 0.50136 0.5084 0.45017 0.0
O309 O 0.52529 0.53722 0.47195 0.0
O310 O 0.56898 0.52553 0.56305 0.0
O311 O 0.54682 0.49888 0.53697 0.0
O312 O 0.54259 0.55161 0.48835 0.0
O313 O 0.56413 0.57511 0.51783 0.0
C314 C 0.55882 0.57002 0.49404 0.0
O315 O 0.47876 0.52688 0.52536 0.0
O316 O 0.45587 0.50159 0.49852 0.0
C317 C 0.49567 0.56158 0.55883 0.0
C318 C 0.45676 0.51723 0.5176 0.0
Zn319 Zn 0.0367 0.55562 0.98197 0.0
Zn320 Zn 0.97786 0.4985 0.05166 0.0
Zn321 Zn 0.00779 0.52696 0.01636 0.0
C322 C 0.03151 0.49052 0.06329 0.0
C323 C 0.96681 0.48153 0.9996 0.0
O324 O 0.99514 0.5681 0.01811 0.0
O325 O 0.0211 0.58981 0.99085 0.0
C326 C 0.07092 0.53164 0.01797 0.0
O327 O 0.03442 0.50616 0.0436 0.0
O328 O 0.00888 0.48443 0.07125 0.0
O329 O 0.961 0.47697 0.02339 0.0
O330 O 0.98388 0.4991 0.99373 0.0
O331 O 0.07104 0.54574 0.99754 0.0
O332 O 0.04924 0.52313 0.02764 0.0
O333 O 0.0019 0.51104 0.9763 0.0
O334 O 0.02458 0.53699 0.94989 0.0
C335 C 0.00997 0.51738 0.95308 0.0
O336 O 0.98267 0.55399 0.03841 0.0
O337 O 0.95914 0.52967 0.06571 0.0
C338 C 0.00236 0.58953 0.00702 0.0
C339 C 0.96539 0.55179 0.05676 0.0
H340 H 0.15625 0.22958 0.33122 0.0
H341 H 0.13091 0.20314 0.36238 0.0
H342 H 0.19474 0.14896 0.36825 0.0
H343 H 0.22006 0.17504 0.33705 0.0
H344 H 0.11523 0.15111 0.35897 0.0
H345 H 0.17983 0.1663 0.44544 0.0
H346 H 0.18173 0.18626 0.41616 0.0
H347 H 0.1969 0.15479 0.41692 0.0
C348 C 0.16483 0.21193 0.339 0.0
C349 C 0.1903 0.20456 0.33177 0.0
C350 C 0.15038 0.19694 0.35693 0.0
C351 C 0.16115 0.17438 0.36806 0.0
C352 C 0.18631 0.16667 0.36046 0.0
H353 H 0.11575 0.04563 0.46505 0.0
H354 H 0.13742 0.07871 0.43796 0.0
C355 C 0.20076 0.18161 0.34259 0.0
C356 C 0.14593 0.15841 0.3871 0.0
H357 H 0.14833 0.13205 0.44896 0.0
C358 C 0.12227 0.14718 0.37876 0.0
C359 C 0.15512 0.1534 0.41296 0.0
C360 C 0.17966 0.16602 0.42354 0.0
C361 C 0.10815 0.13014 0.39517 0.0
C362 C 0.11777 0.12452 0.42073 0.0
C363 C 0.14105 0.13632 0.42933 0.0
C364 C 0.10477 0.1053 0.43826 0.0
C365 C 0.08361 0.11746 0.38466 0.0
C366 C 0.07937 0.10947 0.44777 0.0
C367 C 0.06691 0.09052 0.46319 0.0
C368 C 0.07978 0.06725 0.46963 0.0
C369 C 0.10538 0.06338 0.46046 0.0
C370 C 0.1178 0.08229 0.44506 0.0
H371 H 0.08171 0.11982 0.36296 0.0
H372 H 0.0833 0.0964 0.38948 0.0
H373 H 0.06631 0.12651 0.39401 0.0
H374 H 0.06909 0.12724 0.44302 0.0
H375 H 0.04702 0.09386 0.4696 0.0
H376 H 0.3394 0.84457 0.84941 0.0
H377 H 0.35996 0.86622 0.88715 0.0
H378 H 0.43108 0.87578 0.84268 0.0
H379 H 0.41057 0.85509 0.80467 0.0
H380 H 0.40897 0.85822 0.91699 0.0
H381 H 0.40577 0.95059 0.85996 0.0
H382 H 0.38737 0.92214 0.8504 0.0
H383 H 0.42181 0.92414 0.84368 0.0
C384 C 0.35948 0.85111 0.84772 0.0
C385 C 0.3732 0.84833 0.82386 0.0
C386 C 0.37126 0.86326 0.86938 0.0
C387 C 0.3969 0.87285 0.86754 0.0
C388 C 0.41118 0.86868 0.84438 0.0
H389 H 0.49637 0.95032 0.98281 0.0
H390 H 0.47574 0.91702 0.95515 0.0
C391 C 0.39944 0.85663 0.82273 0.0
C392 C 0.40785 0.88945 0.88868 0.0
H393 H 0.42733 0.95168 0.90106 0.0
C394 C 0.41298 0.87866 0.91361 0.0
C395 C 0.4127 0.91617 0.88424 0.0
C396 C 0.40645 0.92909 0.85822 0.0
C397 C 0.42326 0.89395 0.93417 0.0
C398 C 0.42862 0.92055 0.9295 0.0
C399 C 0.42325 0.93126 0.90461 0.0
C400 C 0.4395 0.93808 0.94996 0.0
C401 C 0.42788 0.88169 0.96079 0.0
C402 C 0.42589 0.96075 0.95655 0.0
C403 C 0.43768 0.97977 0.97213 0.0
C404 C 0.46328 0.97646 0.98158 0.0
C405 C 0.47645 0.95317 0.97616 0.0
C406 C 0.46466 0.93412 0.96038 0.0
H407 H 0.41694 0.86311 0.96302 0.0
H408 H 0.44903 0.8775 0.96311 0.0
H409 H 0.42205 0.89504 0.97687 0.0
H410 H 0.40649 0.96422 0.94869 0.0
H411 H 0.42707 0.99753 0.97603 0.0
H412 H 0.71954 0.36515 0.68996 0.0
H413 H 0.69308 0.39268 0.66113 0.0
H414 H 0.62607 0.34341 0.67477 0.0
H415 H 0.65259 0.31538 0.70347 0.0
H416 H 0.63636 0.35923 0.61896 0.0
H417 H 0.63407 0.44137 0.68964 0.0
H418 H 0.66603 0.42838 0.68339 0.0
H419 H 0.64187 0.40856 0.69955 0.0
C420 C 0.69925 0.35997 0.68665 0.0
C421 C 0.68817 0.33807 0.69904 0.0
C422 C 0.68412 0.37583 0.6703 0.0
C423 C 0.6576 0.37017 0.66601 0.0
C424 C 0.6465 0.34812 0.67793 0.0
H425 H 0.54306 0.45584 0.56984 0.0
H426 H 0.56457 0.42134 0.59536 0.0
C427 C 0.66162 0.33226 0.69444 0.0
C428 C 0.64153 0.38776 0.64948 0.0
H429 H 0.61943 0.45012 0.64613 0.0
C430 C 0.63236 0.37903 0.62493 0.0
C431 C 0.63636 0.41351 0.65743 0.0
C432 C 0.64487 0.42354 0.68403 0.0
C433 C 0.61903 0.39583 0.6076 0.0
C434 C 0.61452 0.42183 0.6153 0.0
C435 C 0.62306 0.43023 0.64018 0.0
C436 C 0.60194 0.44116 0.59764 0.0
C437 C 0.61093 0.38605 0.58079 0.0
C438 C 0.6157 0.46378 0.59058 0.0
C439 C 0.60346 0.48343 0.57617 0.0
C440 C 0.57723 0.48081 0.56837 0.0
C441 C 0.56349 0.45803 0.57509 0.0
C442 C 0.57577 0.43833 0.58961 0.0
H443 H 0.61984 0.36696 0.57615 0.0
H444 H 0.58936 0.38377 0.58011 0.0
H445 H 0.61663 0.40023 0.56529 0.0
H446 H 0.63585 0.46645 0.5967 0.0
H447 H 0.61442 0.50088 0.5714 0.0
H448 H 0.88052 0.73753 0.20607 0.0
H449 H 0.90744 0.71294 0.17508 0.0
H450 H 0.83894 0.67131 0.14861 0.0
H451 H 0.81201 0.69564 0.17948 0.0
H452 H 0.91522 0.66075 0.17348 0.0
H453 H 0.87172 0.69308 0.07915 0.0
H454 H 0.86593 0.70975 0.10984 0.0
H455 H 0.84734 0.68112 0.10153 0.0
C456 C 0.8712 0.72314 0.19364 0.0
C457 C 0.84407 0.71865 0.19518 0.0
C458 C 0.88658 0.70923 0.17581 0.0
C459 C 0.87514 0.69068 0.1591 0.0
C460 C 0.84811 0.68609 0.1607 0.0
H461 H 0.91518 0.55703 0.07306 0.0
H462 H 0.89569 0.59425 0.0956 0.0
C463 C 0.83273 0.69998 0.17845 0.0
C464 C 0.89154 0.67473 0.14131 0.0
H465 H 0.89608 0.653 0.07787 0.0
C466 C 0.91138 0.65943 0.15249 0.0
C467 C 0.88667 0.67316 0.11386 0.0
C468 C 0.86694 0.69038 0.10034 0.0
C469 C 0.92535 0.6415 0.13727 0.0
C470 C 0.91936 0.63888 0.11021 0.0
C471 C 0.90043 0.65498 0.09871 0.0
C472 C 0.93081 0.61777 0.09432 0.0
C473 C 0.94555 0.62451 0.1504 0.0
C474 C 0.95689 0.61892 0.08587 0.0
C475 C 0.96806 0.59767 0.07299 0.0
C476 C 0.95322 0.57509 0.06829 0.0
C477 C 0.92699 0.57425 0.07635 0.0
C478 C 0.91583 0.59549 0.0891 0.0
H479 H 0.94674 0.62783 0.172 0.0
H480 H 0.9409 0.60372 0.14686 0.0
H481 H 0.96505 0.62853 0.14167 0.0
H482 H 0.96874 0.63598 0.08979 0.0
H483 H 0.98848 0.59858 0.06744 0.0
H484 H 0.34605 0.2322 0.17029 0.0
H485 H 0.37754 0.20407 0.14824 0.0
H486 H 0.35317 0.13966 0.19696 0.0
H487 H 0.32183 0.16772 0.21943 0.0
H488 H 0.41963 0.17446 0.17107 0.0
H489 H 0.34578 0.1121 0.12078 0.0
H490 H 0.33762 0.14319 0.13485 0.0
H491 H 0.34216 0.11542 0.15584 0.0
C492 C 0.34747 0.2121 0.17648 0.0
C493 C 0.33129 0.20223 0.1966 0.0
C494 C 0.36545 0.19604 0.16379 0.0
C495 C 0.36753 0.16974 0.1708 0.0
C496 C 0.35157 0.1598 0.19095 0.0
H497 H 0.45923 0.04764 0.09467 0.0
H498 H 0.4336 0.07133 0.12766 0.0
C499 C 0.3336 0.17587 0.2037 0.0
C500 C 0.38636 0.1528 0.15687 0.0
H501 H 0.39007 0.10156 0.11446 0.0
C502 C 0.4132 0.15845 0.15877 0.0
C503 C 0.37793 0.1318 0.14102 0.0
C504 C 0.34931 0.12527 0.13774 0.0
C505 C 0.43181 0.1438 0.14499 0.0
C506 C 0.4233 0.12335 0.12848 0.0
C507 C 0.39654 0.11724 0.12717 0.0
C508 C 0.44149 0.10927 0.11088 0.0
C509 C 0.46044 0.15029 0.14822 0.0
C510 C 0.45456 0.12273 0.09067 0.0
C511 C 0.46933 0.10924 0.07209 0.0
C512 C 0.47146 0.0821 0.07351 0.0
C513 C 0.45874 0.06866 0.09391 0.0
C514 C 0.44386 0.08213 0.11248 0.0
H515 H 0.46422 0.16097 0.16685 0.0
H516 H 0.47255 0.13242 0.14807 0.0
H517 H 0.46678 0.16286 0.1316 0.0
H518 H 0.45249 0.14357 0.08865 0.0
H519 H 0.47859 0.11996 0.05621 0.0
H520 H 0.22147 0.9062 0.72626 0.0
H521 H 0.18181 0.9284 0.71144 0.0
H522 H 0.16557 0.86562 0.65766 0.0
H523 H 0.20516 0.84344 0.67221 0.0
H524 H 0.17543 0.94497 0.66115 0.0
H525 H 0.09328 0.87989 0.68723 0.0
H526 H 0.12528 0.87699 0.70213 0.0
H527 H 0.11873 0.86281 0.67037 0.0
C528 C 0.20924 0.89695 0.71153 0.0
C529 C 0.21658 0.87311 0.70029 0.0
C530 C 0.1865 0.90959 0.70322 0.0
C531 C 0.17052 0.89855 0.68368 0.0
C532 C 0.17719 0.87422 0.67326 0.0
H533 H 0.07292 0.93529 0.55837 0.0
H534 H 0.09625 0.91644 0.59583 0.0
C535 C 0.19992 0.86157 0.68156 0.0
C536 C 0.14909 0.91387 0.67151 0.0
H537 H 0.08558 0.90969 0.6509 0.0
C538 C 0.1556 0.9376 0.65944 0.0
C539 C 0.12321 0.90426 0.66938 0.0
C540 C 0.11463 0.87971 0.68322 0.0
C541 C 0.13754 0.95097 0.64363 0.0
C542 C 0.11213 0.94052 0.64016 0.0
C543 C 0.1051 0.91762 0.65354 0.0
C544 C 0.09417 0.95104 0.61983 0.0
C545 C 0.1464 0.9752 0.62929 0.0
C546 C 0.08457 0.97653 0.62122 0.0
C547 C 0.07144 0.98746 0.59963 0.0
C548 C 0.0674 0.97289 0.57658 0.0
C549 C 0.07581 0.94697 0.57588 0.0
C550 C 0.08897 0.93612 0.59733 0.0
H551 H 0.16782 0.97849 0.63111 0.0
H552 H 0.14131 0.97401 0.60804 0.0
H553 H 0.13628 0.99232 0.63764 0.0
H554 H 0.0882 0.98829 0.63852 0.0
H555 H 0.06564 0.00764 0.60049 0.0
H556 H 0.7972 0.37655 0.84473 0.0
H557 H 0.82539 0.40508 0.87073 0.0
H558 H 0.88974 0.35225 0.86025 0.0
H559 H 0.86209 0.32428 0.83307 0.0
H560 H 0.84806 0.39417 0.91641 0.0
H561 H 0.92516 0.42062 0.84465 0.0
H562 H 0.89482 0.40535 0.83486 0.0
H563 H 0.92119 0.38612 0.84793 0.0
C564 C 0.8175 0.37125 0.8474 0.0
C565 C 0.82732 0.34806 0.83671 0.0
C566 C 0.83357 0.38753 0.86244 0.0
C567 C 0.85982 0.38105 0.86715 0.0
C568 C 0.86975 0.35802 0.85641 0.0
H569 H 0.95105 0.4311 1.00123 0.0
H570 H 0.92595 0.40732 0.96795 0.0
C571 C 0.85374 0.34179 0.84122 0.0
C572 C 0.87614 0.39733 0.88497 0.0
H573 H 0.93467 0.42934 0.89007 0.0
C574 C 0.86689 0.40203 0.91053 0.0
C575 C 0.90059 0.4079 0.87724 0.0
C576 C 0.91092 0.40499 0.84958 0.0
C577 C 0.88162 0.41639 0.92877 0.0
C578 C 0.90665 0.42578 0.92151 0.0
C579 C 0.91565 0.42178 0.89572 0.0
C580 C 0.9237 0.43962 0.94061 0.0
C581 C 0.87006 0.42158 0.95559 0.0
C582 C 0.93168 0.46534 0.93583 0.0
C583 C 0.94618 0.47891 0.9548 0.0
C584 C 0.9532 0.46684 0.97866 0.0
C585 C 0.9458 0.44089 0.98305 0.0
C586 C 0.9314 0.42733 0.9641 0.0
H587 H 0.84839 0.41985 0.95534 0.0
H588 H 0.87768 0.40709 0.96988 0.0
H589 H 0.87543 0.44128 0.96271 0.0
H590 H 0.92601 0.47517 0.9178 0.0
H591 H 0.95127 0.49904 0.95112 0.0
H592 H 0.67628 0.73207 0.34311 0.0
H593 H 0.64811 0.70416 0.36991 0.0
H594 H 0.70626 0.64378 0.36805 0.0
H595 H 0.73504 0.67195 0.34198 0.0
H596 H 0.62712 0.65564 0.35892 0.0
H597 H 0.69198 0.65169 0.44686 0.0
H598 H 0.69678 0.67485 0.4205 0.0
H599 H 0.707 0.64173 0.41658 0.0
C600 C 0.68328 0.71298 0.34867 0.0
C601 C 0.70808 0.70438 0.3406 0.0
C602 C 0.66703 0.69696 0.3638 0.0
C603 C 0.67521 0.67202 0.37129 0.0
C604 C 0.69973 0.66313 0.36289 0.0
H605 H 0.5723 0.55445 0.44407 0.0
H606 H 0.59993 0.57812 0.4125 0.0
C607 C 0.71604 0.67917 0.34775 0.0
C608 C 0.65795 0.65548 0.38789 0.0
H609 H 0.6536 0.62602 0.44816 0.0
C610 C 0.63293 0.64907 0.37841 0.0
C611 C 0.6655 0.64712 0.41338 0.0
C612 C 0.69168 0.65434 0.42511 0.0
C613 C 0.6152 0.63469 0.3938 0.0
C614 C 0.62278 0.62616 0.41918 0.0
C615 C 0.64788 0.6324 0.42859 0.0
C616 C 0.60448 0.61221 0.43704 0.0
C617 C 0.58826 0.62925 0.38311 0.0
C618 C 0.59776 0.6235 0.46118 0.0
C619 C 0.58199 0.61009 0.47909 0.0
C620 C 0.57254 0.58505 0.47329 0.0
C621 C 0.57872 0.57394 0.44881 0.0
C622 C 0.59463 0.58741 0.43083 0.0
H623 H 0.58385 0.6411 0.36532 0.0
H624 H 0.58699 0.60845 0.37769 0.0
H625 H 0.57314 0.63307 0.39828 0.0
H626 H 0.60507 0.6426 0.46637 0.0
H627 H 0.5776 0.61919 0.49779 0.0
H628 H 0.21484 0.3393 0.15321 0.0
H629 H 0.19029 0.37035 0.12618 0.0
H630 H 0.14316 0.39018 0.19346 0.0
H631 H 0.16722 0.35902 0.22047 0.0
H632 H 0.13689 0.37106 0.11542 0.0
H633 H 0.16699 0.46145 0.1661 0.0
H634 H 0.18403 0.43107 0.1705 0.0
H635 H 0.15438 0.43733 0.18838 0.0
C636 C 0.19915 0.35015 0.16224 0.0
C637 C 0.19313 0.34671 0.18911 0.0
C638 C 0.18528 0.36804 0.14679 0.0
C639 C 0.16527 0.38299 0.15793 0.0
C640 C 0.15901 0.3794 0.18462 0.0
H641 H 0.03691 0.4779 0.11506 0.0
H642 H 0.07268 0.45384 0.13587 0.0
C643 C 0.1728 0.36151 0.20004 0.0
C644 C 0.1499 0.40139 0.14148 0.0
H645 H 0.1289 0.4643 0.13849 0.0
C646 C 0.13546 0.39153 0.12016 0.0
C647 C 0.14819 0.42815 0.14761 0.0
C648 C 0.16444 0.44021 0.16923 0.0
C649 C 0.11823 0.40738 0.10575 0.0
C650 C 0.11564 0.43386 0.11267 0.0
C651 C 0.13085 0.44397 0.1333 0.0
C652 C 0.09556 0.45065 0.10023 0.0
C653 C 0.10197 0.39541 0.08406 0.0
C654 C 0.09685 0.4573 0.0734 0.0
C655 C 0.07635 0.47098 0.06145 0.0
C656 C 0.05443 0.47848 0.07622 0.0
C657 C 0.05361 0.47244 0.10323 0.0
C658 C 0.07406 0.4588 0.11515 0.0
H659 H 0.1033 0.37387 0.08396 0.0
H660 H 0.08112 0.40096 0.08618 0.0
H661 H 0.10891 0.40277 0.06471 0.0
H662 H 0.11338 0.45135 0.06158 0.0
H663 H 0.0772 0.4748 0.04047 0.0
H664 H 0.66369 0.19338 0.81655 0.0
H665 H 0.63965 0.16318 0.84512 0.0
H666 H 0.69951 0.17051 0.90461 0.0
H667 H 0.72382 0.20065 0.87608 0.0
H668 H 0.67849 0.11526 0.88981 0.0
H669 H 0.60459 0.18945 0.91745 0.0
H670 H 0.61243 0.18667 0.88299 0.0
H671 H 0.63679 0.19813 0.90569 0.0
C672 C 0.67187 0.18838 0.8356 0.0
C673 C 0.69561 0.19949 0.8441 0.0
C674 C 0.65809 0.1712 0.85191 0.0
C675 C 0.66784 0.1647 0.87692 0.0
C676 C 0.69172 0.17531 0.88533 0.0
H677 H 0.57631 0.09561 0.00323 0.0
H678 H 0.60982 0.11971 0.9785 0.0
C679 C 0.70544 0.19267 0.86912 0.0
C680 C 0.65246 0.14766 0.89468 0.0
H681 H 0.59704 0.14649 0.93195 0.0
C682 C 0.66073 0.12203 0.89915 0.0
C683 C 0.6295 0.15671 0.90697 0.0
C684 C 0.62025 0.18428 0.90328 0.0
C685 C 0.64617 0.10498 0.91522 0.0
C686 C 0.62281 0.11389 0.92696 0.0
C687 C 0.61495 0.1397 0.92291 0.0
C688 C 0.60567 0.0968 0.94302 0.0
C689 C 0.6559 0.07768 0.91964 0.0
C690 C 0.5925 0.07574 0.93138 0.0
C691 C 0.57335 0.06205 0.94548 0.0
C692 C 0.56735 0.06913 0.97144 0.0
C693 C 0.58101 0.08965 0.98334 0.0
C694 C 0.60006 0.10338 0.96924 0.0
H695 H 0.67699 0.07582 0.91479 0.0
H696 H 0.65286 0.07154 0.94039 0.0
H697 H 0.64475 0.06414 0.90681 0.0
H698 H 0.59611 0.07068 0.91101 0.0
H699 H 0.56264 0.04653 0.93587 0.0
H700 H 0.81813 0.88621 0.33037 0.0
H701 H 0.84557 0.91645 0.35549 0.0
H702 H 0.89574 0.85317 0.37853 0.0
H703 H 0.86912 0.82304 0.35274 0.0
H704 H 0.85848 0.91748 0.40873 0.0
H705 H 0.94719 0.9055 0.34774 0.0
H706 H 0.91536 0.89432 0.33717 0.0
H707 H 0.93462 0.87505 0.35957 0.0
C708 C 0.83519 0.87877 0.34053 0.0
C709 C 0.84152 0.85219 0.33934 0.0
C710 C 0.85072 0.89606 0.35504 0.0
C711 C 0.87294 0.88714 0.3685 0.0
C712 C 0.87897 0.86057 0.36785 0.0
H713 H 0.99291 0.93578 0.4726 0.0
H714 H 0.96007 0.91445 0.44502 0.0
C715 C 0.86353 0.8433 0.35334 0.0
C716 C 0.88989 0.90544 0.38339 0.0
H717 H 0.95339 0.92504 0.39007 0.0
C718 C 0.87917 0.91945 0.40448 0.0
C719 C 0.9168 0.90825 0.37757 0.0
C720 C 0.92913 0.8952 0.3541 0.0
C721 C 0.895 0.935 0.42082 0.0
C722 C 0.92214 0.93662 0.41578 0.0
C723 C 0.9326 0.92354 0.39403 0.0
C724 C 0.94054 0.95003 0.43386 0.0
C725 C 0.88288 0.94867 0.44399 0.0
C726 C 0.94039 0.97717 0.43679 0.0
C727 C 0.95925 0.98945 0.4526 0.0
C728 C 0.97839 0.97471 0.46569 0.0
C729 C 0.9783 0.94759 0.46282 0.0
C730 C 0.95955 0.93538 0.44711 0.0
H731 H 0.86237 0.94238 0.44746 0.0
H732 H 0.89448 0.94504 0.46215 0.0
H733 H 0.88294 0.96992 0.44025 0.0
H734 H 0.92624 0.98886 0.42627 0.0
H735 H 0.95944 0.01043 0.45385 0.0
H736 H 0.31856 0.72221 0.63545 0.0
H737 H 0.33667 0.68389 0.61377 0.0
H738 H 0.38786 0.67121 0.68019 0.0
H739 H 0.37016 0.70954 0.70182 0.0
H740 H 0.38839 0.68103 0.60009 0.0
H741 H 0.36266 0.59758 0.66401 0.0
H742 H 0.34602 0.62842 0.66588 0.0
H743 H 0.37699 0.62393 0.68216 0.0
C744 C 0.33343 0.71106 0.64561 0.0
C745 C 0.343 0.71907 0.67033 0.0
C746 C 0.34363 0.68907 0.63326 0.0
C747 C 0.36341 0.6745 0.64547 0.0
C748 C 0.37216 0.68175 0.67065 0.0
H749 H 0.49005 0.57635 0.60988 0.0
H750 H 0.45377 0.60053 0.6292 0.0
C751 C 0.36201 0.70375 0.683 0.0
C752 C 0.37739 0.65402 0.63062 0.0
H753 H 0.39942 0.59158 0.63494 0.0
C754 C 0.39036 0.6613 0.60738 0.0
C755 C 0.37997 0.62832 0.64021 0.0
C756 C 0.36545 0.619 0.6643 0.0
C757 C 0.40711 0.6441 0.59434 0.0
C758 C 0.41058 0.61871 0.60454 0.0
C759 C 0.39672 0.61104 0.62715 0.0
C760 C 0.43051 0.60097 0.59351 0.0
C761 C 0.42214 0.6538 0.57065 0.0
C762 C 0.42917 0.59261 0.56722 0.0
C763 C 0.45009 0.57913 0.55604 0.0
C764 C 0.47235 0.57324 0.57116 0.0
C765 C 0.47309 0.5806 0.59779 0.0
C766 C 0.45232 0.59425 0.60888 0.0
H767 H 0.42106 0.67526 0.56849 0.0
H768 H 0.44304 0.64816 0.57204 0.0
H769 H 0.41384 0.64495 0.55254 0.0
H770 H 0.41241 0.59736 0.55508 0.0
H771 H 0.44933 0.57438 0.53529 0.0
H772 H 0.99974 0.94211 0.82812 0.0
H773 H 0.01535 0.95365 0.78384 0.0
H774 H 0.93731 0.94311 0.75311 0.0
H775 H 0.92153 0.93252 0.7974 0.0
H776 H 0.01583 0.93171 0.73419 0.0
H777 H 0.95202 0.01841 0.73599 0.0
H778 H 0.95744 0.99848 0.76474 0.0
H779 H 0.93397 0.98874 0.74011 0.0
C780 C 0.98605 0.94191 0.81179 0.0
C781 C 0.95938 0.93681 0.81615 0.0
C782 C 0.99497 0.94847 0.78653 0.0
C783 C 0.97738 0.94983 0.76528 0.0
C784 C 0.9511 0.94286 0.76934 0.0
H785 H 0.00662 0.9746 0.59814 0.0
H786 H 0.00318 0.95455 0.64197 0.0
C787 C 0.94211 0.93675 0.79459 0.0
C788 C 0.98587 0.96054 0.73943 0.0
H789 H 0.97192 0.00851 0.69518 0.0
C790 C 0.00637 0.94859 0.72565 0.0
C791 C 0.97395 0.98293 0.7286 0.0
C792 C 0.95333 0.99806 0.74324 0.0
C793 C 0.01479 0.9581 0.70099 0.0
C794 C 0.00192 0.97975 0.68966 0.0
C795 C 0.98175 0.99184 0.70373 0.0
C796 C 0.00864 0.99059 0.66331 0.0
C797 C 0.03762 0.9452 0.68761 0.0
C798 C 0.01308 0.01742 0.66062 0.0
C799 C 0.0143 0.02888 0.63571 0.0
C800 C 0.01167 0.01369 0.61296 0.0
C801 C 0.00892 0.98664 0.61547 0.0
C802 C 0.00716 0.97517 0.6405 0.0
H803 H 0.05024 0.93484 0.70203 0.0
H804 H 0.03015 0.93066 0.67332 0.0
H805 H 0.04978 0.95956 0.6767 0.0
H806 H 0.01436 0.02973 0.67786 0.0
H807 H 0.01653 0.04978 0.63422 0.0
H808 H 0.60702 0.09139 0.30481 0.0
H809 H 0.58227 0.07775 0.26623 0.0
H810 H 0.52421 0.13619 0.28207 0.0
H811 H 0.54925 0.15025 0.3209 0.0
H812 H 0.53263 0.05963 0.25833 0.0
H813 H 0.54711 0.15488 0.20779 0.0
H814 H 0.56429 0.14656 0.23771 0.0
H815 H 0.53036 0.15535 0.23888 0.0
C816 C 0.58872 0.10103 0.30049 0.0
C817 C 0.58014 0.12195 0.31591 0.0
C818 C 0.57461 0.09328 0.27831 0.0
C819 C 0.55159 0.1062 0.27101 0.0
C820 C 0.54222 0.12631 0.28702 0.0
H821 H 0.48885 0.03234 0.12671 0.0
H822 H 0.48535 0.05453 0.16942 0.0
C823 C 0.55649 0.13425 0.30922 0.0
C824 C 0.5387 0.09915 0.24577 0.0
H825 H 0.53001 0.12082 0.18267 0.0
C826 C 0.53152 0.07309 0.24186 0.0
C827 C 0.53729 0.11681 0.22437 0.0
C828 C 0.54529 0.14494 0.22718 0.0
C829 C 0.52492 0.06374 0.21675 0.0
C830 C 0.52484 0.08113 0.19507 0.0
C831 C 0.53005 0.10759 0.19936 0.0
C832 C 0.52411 0.07157 0.16753 0.0
C833 C 0.52015 0.03497 0.21334 0.0
C834 C 0.5464 0.07494 0.15174 0.0
C835 C 0.54804 0.06292 0.12722 0.0
C836 C 0.52736 0.04752 0.11795 0.0
C837 C 0.50461 0.04491 0.13314 0.0
C838 C 0.50283 0.05717 0.15769 0.0
H839 H 0.52497 0.02373 0.23144 0.0
H840 H 0.49922 0.03156 0.20865 0.0
H841 H 0.532 0.02729 0.19681 0.0
H842 H 0.5631 0.08584 0.15895 0.0
H843 H 0.56588 0.06488 0.11589 0.0
H844 H 0.49293 0.59227 0.20812 0.0
H845 H 0.50899 0.58305 0.2526 0.0
H846 H 0.43596 0.6094 0.28511 0.0
H847 H 0.41931 0.61767 0.24068 0.0
H848 H 0.51549 0.61411 0.29734 0.0
H849 H 0.44245 0.53559 0.31417 0.0
H850 H 0.44831 0.5495 0.28203 0.0
H851 H 0.42861 0.56651 0.30561 0.0
C852 C 0.4802 0.59595 0.22471 0.0
C853 C 0.45469 0.60541 0.22078 0.0
C854 C 0.48952 0.59091 0.25013 0.0
C855 C 0.47353 0.59518 0.27211 0.0
C856 C 0.44846 0.60557 0.26837 0.0
H857 H 0.5146 0.58027 0.43918 0.0
H858 H 0.50769 0.59946 0.39525 0.0
C859 C 0.43908 0.61053 0.24295 0.0
C860 C 0.48275 0.5877 0.29879 0.0
H861 H 0.46986 0.54645 0.34996 0.0
C862 C 0.5055 0.59938 0.30893 0.0
C863 C 0.46984 0.56824 0.31368 0.0
C864 C 0.44609 0.55403 0.30329 0.0
C865 C 0.51566 0.59208 0.33363 0.0
C866 C 0.50262 0.57284 0.34859 0.0
C867 C 0.47979 0.56131 0.33848 0.0
C868 C 0.51264 0.56323 0.3743 0.0
C869 C 0.54071 0.60426 0.3432 0.0
C870 C 0.51872 0.53682 0.37696 0.0
C871 C 0.52248 0.52592 0.40185 0.0
C872 C 0.52036 0.54124 0.4246 0.0
C873 C 0.51663 0.56814 0.4219 0.0
C874 C 0.51263 0.57908 0.39683 0.0
H875 H 0.55052 0.61596 0.32764 0.0
H876 H 0.53639 0.61716 0.3601 0.0
H877 H 0.55432 0.58892 0.35011 0.0
H878 H 0.51893 0.52427 0.35985 0.0
H879 H 0.52533 0.50512 0.40343 0.0
H880 H 0.0765 0.44938 0.73594 0.0
H881 H 0.04965 0.46115 0.77389 0.0
H882 H 0.05526 0.38283 0.80365 0.0
H883 H 0.08307 0.37116 0.76658 0.0
H884 H 0.00215 0.44162 0.79732 0.0
H885 H 0.0896 0.4272 0.86131 0.0
H886 H 0.0918 0.42838 0.82586 0.0
H887 H 0.0797 0.39965 0.84202 0.0
C888 C 0.07197 0.43461 0.75049 0.0
C889 C 0.08234 0.40942 0.74833 0.0
C890 C 0.05637 0.44131 0.77202 0.0
C891 C 0.05082 0.42295 0.79176 0.0
C892 C 0.05962 0.39737 0.78879 0.0
H893 H 0.00661 0.46443 0.95223 0.0
H894 H 0.00865 0.43667 0.91312 0.0
C895 C 0.07534 0.39069 0.76739 0.0
C896 C 0.03825 0.43133 0.81661 0.0
H897 H 0.05168 0.44245 0.88151 0.0
C898 C 0.01282 0.44153 0.81582 0.0
C899 C 0.05217 0.43108 0.84075 0.0
C900 C 0.07989 0.42119 0.84267 0.0
C901 C 0.00124 0.45216 0.83846 0.0
C902 C 0.01568 0.45297 0.86225 0.0
C903 C 0.04057 0.44165 0.86328 0.0
C904 C 0.00735 0.46857 0.88525 0.0
C905 C 0.97388 0.46281 0.83665 0.0
C906 C 0.00507 0.4956 0.88252 0.0
C907 C 0.00391 0.51142 0.90477 0.0
C908 C 0.00494 0.5005 0.93015 0.0
C909 C 0.00538 0.47333 0.9329 0.0
C910 C 0.00663 0.45747 0.91058 0.0
H911 H 0.96251 0.45306 0.8208 0.0
H912 H 0.96328 0.46045 0.85561 0.0
H913 H 0.97488 0.48384 0.83186 0.0
H914 H 0.00619 0.50466 0.86326 0.0
H915 H 0.00371 0.53232 0.90214 0.0
H916 H 0.80927 0.99161 0.90662 0.0
H917 H 0.76629 0.01141 0.91372 0.0
H918 H 0.76648 0.98296 0.99385 0.0
H919 H 0.80972 0.96423 0.9871 0.0
H920 H 0.72146 0.99161 0.92345 0.0
H921 H 0.74396 0.05501 0.00745 0.0
H922 H 0.7694 0.03966 0.98854 0.0
H923 H 0.754 0.02271 0.01564 0.0
C924 C 0.80013 0.98983 0.92578 0.0
C925 C 0.81285 0.97658 0.94639 0.0
C926 C 0.77565 1.0012 0.92986 0.0
C927 C 0.76334 0.99935 0.95455 0.0
C928 C 0.77592 0.98566 0.97495 0.0
H929 H 0.61125 0.97405 0.99935 0.0
H930 H 0.65327 0.97736 0.97705 0.0
C931 C 0.80054 0.9747 0.97102 0.0
C932 C 0.73655 0.00982 0.95864 0.0
H933 H 0.69863 0.03934 0.00493 0.0
C934 C 0.71662 0.00258 0.94098 0.0
C935 C 0.73005 0.02505 0.98088 0.0
C936 C 0.75061 0.0363 0.99896 0.0
C937 C 0.69027 0.00795 0.94634 0.0
C938 C 0.68359 0.01998 0.97043 0.0
C939 C 0.70362 0.02951 0.98675 0.0
C940 C 0.65649 0.01917 0.98089 0.0
C941 C 0.66978 0.99995 0.9265 0.0
C942 C 0.64436 0.04151 0.99098 0.0
C943 C 0.62026 0.03953 0.00401 0.0
C944 C 0.60815 0.01522 0.00718 0.0
C945 C 0.62008 0.99306 0.99676 0.0
C946 C 0.64398 0.99501 0.98377 0.0
H947 H 0.67755 1.00147 0.90611 0.0
H948 H 0.66429 0.97934 0.92995 0.0
H949 H 0.65195 0.0121 0.92799 0.0
H950 H 0.6539 0.06029 0.98954 0.0
H951 H 0.61184 0.05665 0.01286 0.0
H952 H 0.73273 0.05006 0.40017 0.0
H953 H 0.76994 0.02345 0.41406 0.0
H954 H 0.78448 0.07586 0.47867 0.0
H955 H 0.74765 0.10247 0.46493 0.0
H956 H 0.81933 0.04058 0.41409 0.0
H957 H 0.79605 0.00687 0.51443 0.0
H958 H 0.77122 0.0188 0.49211 0.0
H959 H 0.79019 0.04108 0.51186 0.0
C960 C 0.74362 0.05566 0.4176 0.0
C961 C 0.73726 0.07847 0.43139 0.0
C962 C 0.76476 0.04033 0.42559 0.0
C963 C 0.77978 0.0474 0.44764 0.0
C964 C 0.77275 0.06953 0.46207 0.0
H965 H 0.93166 0.07051 0.48291 0.0
H966 H 0.88879 0.06418 0.46268 0.0
C967 C 0.75166 0.08482 0.45412 0.0
C968 C 0.80491 0.03425 0.45352 0.0
H969 H 0.84266 0.0148 0.5054 0.0
C970 C 0.82421 0.03417 0.43388 0.0
C971 C 0.81127 0.02527 0.47912 0.0
C972 C 0.79093 0.02273 0.50046 0.0
C973 C 0.85026 0.02812 0.4399 0.0
C974 C 0.85718 0.0224 0.46627 0.0
C975 C 0.83743 0.01962 0.48525 0.0
C976 C 0.88464 0.02418 0.47544 0.0
C977 C 0.87038 0.0295 0.41826 0.0
C978 C 0.89657 0.0038 0.48945 0.0
C979 C 0.92133 0.00738 0.50085 0.0
C980 C 0.93403 0.03153 0.49878 0.0
C981 C 0.92226 0.05165 0.48446 0.0
C982 C 0.89788 0.04797 0.47277 0.0
H983 H 0.8617 0.02378 0.39903 0.0
H984 H 0.87751 0.04981 0.41632 0.0
H985 H 0.88735 0.01678 0.42251 0.0
H986 H 0.88645 0.98546 0.49214 0.0
H987 H 0.93004 0.99174 0.51215 0.0
H988 H 0.31076 0.53561 0.10193 0.0
H989 H 0.26692 0.51869 0.09159 0.0
H990 H 0.2361 0.59649 0.09467 0.0
H991 H 0.27983 0.61348 0.10432 0.0
H992 H 0.21604 0.52124 0.11424 0.0
H993 H 0.22214 0.57361 0.01882 0.0
H994 H 0.25004 0.56957 0.0402 0.0
H995 H 0.22653 0.5947 0.04657 0.0
C996 C 0.2945 0.54898 0.10083 0.0
C997 C 0.29866 0.57587 0.10349 0.0
C998 C 0.26951 0.53931 0.09496 0.0
C999 C 0.24841 0.55641 0.09187 0.0
C1000 C 0.25225 0.58304 0.09644 0.0
H1001 H 0.0827 0.53642 0.07013 0.0
H1002 H 0.1266 0.53654 0.08968 0.0
C1003 C 0.27719 0.59272 0.10193 0.0
C1004 C 0.22299 0.54703 0.08143 0.0
H1005 H 0.18049 0.55685 0.03064 0.0
C1006 C 0.20827 0.52878 0.09585 0.0
C1007 C 0.21323 0.55639 0.0571 0.0
C1008 C 0.22891 0.57443 0.03963 0.0
C1009 C 0.18348 0.52046 0.087 0.0
C1010 C 0.17311 0.53111 0.06345 0.0
C1011 C 0.18831 0.5487 0.04875 0.0
C1012 C 0.14629 0.5254 0.05368 0.0
C1013 C 0.16883 0.50025 0.1028 0.0
C1014 C 0.1426 0.51872 0.02709 0.0
C1015 C 0.11773 0.51945 0.01581 0.0
C1016 C 0.096 0.52625 0.03105 0.0
C1017 C 0.09925 0.53094 0.0581 0.0
C1018 C 0.1243 0.53077 0.06931 0.0
H1019 H 0.18243 0.48789 0.11441 0.0
H1020 H 0.15566 0.51011 0.11692 0.0
H1021 H 0.15675 0.48755 0.08991 0.0
H1022 H 0.15922 0.51445 0.01464 0.0
H1023 H 0.11559 0.51567 0.99492 0.0
H1024 H 0.23683 0.49152 0.64461 0.0
H1025 H 0.27206 0.51679 0.62345 0.0
H1026 H 0.30178 0.44641 0.58875 0.0
H1027 H 0.26615 0.42166 0.60862 0.0
H1028 H 0.32319 0.51703 0.62652 0.0
H1029 H 0.29774 0.49053 0.52486 0.0
H1030 H 0.27613 0.48361 0.55205 0.0
H1031 H 0.30185 0.46124 0.54347 0.0
C1032 C 0.25083 0.48165 0.63222 0.0
C1033 C 0.24858 0.45481 0.62774 0.0
C1034 C 0.27092 0.49603 0.6202 0.0
C1035 C 0.28915 0.48366 0.60381 0.0
C1036 C 0.28739 0.45663 0.60035 0.0
H1037 H 0.44742 0.50874 0.5694 0.0
H1038 H 0.40484 0.50853 0.59108 0.0
C1039 C 0.26712 0.44245 0.61184 0.0
C1040 C 0.31053 0.49841 0.59063 0.0
H1041 H 0.34368 0.50072 0.53259 0.0
C1042 C 0.32742 0.51396 0.60583 0.0
C1043 C 0.31556 0.49551 0.56339 0.0
C1044 C 0.29661 0.48208 0.54501 0.0
C1045 C 0.35037 0.5247 0.59498 0.0
C1046 C 0.35715 0.51869 0.56862 0.0
C1047 C 0.33907 0.505 0.55297 0.0
C1048 C 0.38359 0.52389 0.55741 0.0
C1049 C 0.36702 0.54224 0.61195 0.0
C1050 C 0.38619 0.53253 0.53119 0.0
C1051 C 0.41036 0.53142 0.51847 0.0
C1052 C 0.43252 0.52257 0.53202 0.0
C1053 C 0.43052 0.51587 0.55873 0.0
C1054 C 0.40617 0.5161 0.57121 0.0
H1055 H 0.3546 0.55395 0.62532 0.0
H1056 H 0.38002 0.53022 0.62453 0.0
H1057 H 0.3792 0.55569 0.59994 0.0
H1058 H 0.36922 0.53876 0.52006 0.0
H1059 H 0.4116 0.53672 0.49782 0.0
H1060 H 0.96461 0.82243 0.98595 0.0
H1061 H 0.96912 0.77739 1.00046 0.0
H1062 H 0.8894 0.76179 0.97735 0.0
H1063 H 0.88472 0.80698 0.96266 0.0
H1064 H 0.9417 0.7468 0.03734 0.0
H1065 H 0.93089 0.70852 0.93527 0.0
H1066 H 0.93594 0.74259 0.94187 0.0
H1067 H 0.9044 0.72802 0.9472 0.0
C1068 C 0.94789 0.80955 0.98425 0.0
C1069 C 0.92434 0.81828 0.97299 0.0
C1070 C 0.95052 0.78378 0.99254 0.0
C1071 C 0.9297 0.76615 0.98972 0.0
C1072 C 0.90587 0.77495 0.97927 0.0
H1073 H 0.94955 0.59681 0.00982 0.0
H1074 H 0.92652 0.63872 0.0107 0.0
C1075 C 0.90324 0.80075 0.97085 0.0
C1076 C 0.93373 0.73836 0.99651 0.0
H1077 H 0.94059 0.67847 0.96861 0.0
C1078 C 0.94109 0.73179 0.0224 0.0
C1079 C 0.9328 0.71874 0.97702 0.0
C1080 C 0.92578 0.72471 0.94873 0.0
C1081 C 0.94856 0.70633 0.02901 0.0
C1082 C 0.9489 0.68714 0.00921 0.0
C1083 C 0.94016 0.69331 0.98374 0.0
C1084 C 0.96188 0.66181 0.01327 0.0
C1085 C 0.95676 0.70015 0.0569 0.0
C1086 C 0.98925 0.66104 0.01475 0.0
C1087 C 0.00234 0.63733 0.01386 0.0
C1088 C 0.98826 0.61396 0.01187 0.0
C1089 C 0.96078 0.61461 0.01165 0.0
C1090 C 0.94766 0.63845 0.01213 0.0
H1091 H 0.94978 0.71505 0.071 0.0
H1092 H 0.94912 0.68082 0.06303 0.0
H1093 H 0.97842 0.69949 0.05797 0.0
H1094 H 1.00056 0.67889 0.01524 0.0
H1095 H 0.02353 0.6373 0.01394 0.0
H1096 H 0.40146 0.74804 0.11181 0.0
H1097 H 0.40893 0.79355 0.1005 0.0
H1098 H 0.44848 0.77044 0.02938 0.0
H1099 H 0.43964 0.72496 0.03967 0.0
H1100 H 0.45445 0.8159 0.09774 0.0
H1101 H 0.40616 0.82953 0.00132 0.0
H1102 H 0.4003 0.80123 0.02161 0.0
H1103 H 0.42839 0.80273 1.00023 0.0
C1104 C 0.41104 0.75258 0.09335 0.0
C1105 C 0.42001 0.7327 0.07672 0.0
C1106 C 0.41545 0.77868 0.08698 0.0
C1107 C 0.42898 0.78553 0.06391 0.0
C1108 C 0.43744 0.76577 0.04697 0.0
H1109 H 0.53433 0.91117 0.04473 0.0
H1110 H 0.51056 0.87004 0.04742 0.0
C1111 C 0.4328 0.73968 0.05317 0.0
C1112 C 0.43694 0.81295 0.05916 0.0
H1113 H 0.44057 0.86047 0.01205 0.0
C1114 C 0.45096 0.82574 0.07913 0.0
C1115 C 0.43219 0.82606 0.03501 0.0
C1116 C 0.41568 0.81424 0.01346 0.0
C1117 C 0.46141 0.85064 0.0752 0.0
C1118 C 0.45835 0.86291 0.0504 0.0
C1119 C 0.44322 0.85082 0.03086 0.0
C1120 C 0.47226 0.88747 0.04428 0.0
C1121 C 0.47607 0.86345 0.09755 0.0
C1122 C 0.45859 0.91075 0.0401 0.0
C1123 C 0.47224 0.93441 0.03836 0.0
C1124 C 0.49963 0.93489 0.04067 0.0
C1125 C 0.5132 0.91134 0.04312 0.0
C1126 C 0.49966 0.88786 0.0447 0.0
H1127 H 0.47029 0.8552 0.11696 0.0
H1128 H 0.49735 0.86014 0.095 0.0
H1129 H 0.47262 0.88473 0.0978 0.0
H1130 H 0.43742 0.91077 0.03955 0.0
H1131 H 0.46134 0.95234 0.03669 0.0
H1132 H 0.18414 0.28084 0.59042 0.0
H1133 H 0.17105 0.24317 0.56411 0.0
H1134 H 0.09002 0.26343 0.5742 0.0
H1135 H 0.1027 0.30042 0.60133 0.0
H1136 H 0.13639 0.20316 0.58578 0.0
H1137 H 0.09791 0.2467 0.49353 0.0
H1138 H 0.12093 0.26332 0.51477 0.0
H1139 H 0.08684 0.26212 0.52321 0.0
C1140 C 0.16352 0.27735 0.58704 0.0
C1141 C 0.14449 0.29367 0.59822 0.0
C1142 C 0.15612 0.25596 0.57176 0.0
C1143 C 0.12962 0.25076 0.56695 0.0
C1144 C 0.11062 0.26746 0.57723 0.0
H1145 H 0.01685 0.1421 0.52784 0.0
H1146 H 0.04582 0.17959 0.53135 0.0
C1147 C 0.11795 0.28865 0.59274 0.0
C1148 C 0.12141 0.22637 0.55391 0.0
H1149 H 0.08399 0.20318 0.50338 0.0
C1150 C 0.12543 0.20294 0.56744 0.0
C1151 C 0.10717 0.22634 0.53004 0.0
C1152 C 0.1031 0.25093 0.51436 0.0
C1153 C 0.1138 0.17971 0.55886 0.0
C1154 C 0.09839 0.17985 0.5356 0.0
C1155 C 0.09584 0.20305 0.52115 0.0
C1156 C 0.08155 0.15737 0.52843 0.0
C1157 C 0.1165 0.15578 0.57595 0.0
C1158 C 0.09193 0.13245 0.52442 0.0
C1159 C 0.0753 0.11079 0.52293 0.0
C1160 C 0.04806 0.11389 0.52472 0.0
C1161 C 0.03777 0.13908 0.52654 0.0
C1162 C 0.05432 0.16057 0.5284 0.0
H1163 H 0.12491 0.16032 0.59562 0.0
H1164 H 0.09721 0.14622 0.57889 0.0
H1165 H 0.12967 0.14174 0.56616 0.0
H1166 H 0.11288 0.12958 0.52376 0.0
H1167 H 0.08381 0.09162 0.52184 0.0
H1168 H 0.67328 0.25843 0.47841 0.0
H1169 H 0.6591 0.29837 0.50003 0.0
H1170 H 0.57894 0.28023 0.48094 0.0
H1171 H 0.59285 0.24095 0.4583 0.0
H1172 H 0.62884 0.33674 0.46861 0.0
H1173 H 0.57886 0.30575 0.56051 0.0
H1174 H 0.60372 0.28643 0.54467 0.0
H1175 H 0.57104 0.28698 0.53166 0.0
C1176 C 0.65259 0.2628 0.47892 0.0
C1177 C 0.63426 0.24652 0.46627 0.0
C1178 C 0.64454 0.28551 0.49154 0.0
C1179 C 0.61799 0.29207 0.49225 0.0
C1180 C 0.5995 0.27523 0.48099 0.0
H1181 H 0.50947 0.41134 0.51094 0.0
H1182 H 0.53537 0.37168 0.51194 0.0
C1183 C 0.60753 0.2527 0.46809 0.0
C1184 C 0.60975 0.31806 0.50131 0.0
H1185 H 0.56939 0.34849 0.5447 0.0
C1186 C 0.61628 0.33953 0.48556 0.0
C1187 C 0.59334 0.32142 0.52335 0.0
C1188 C 0.58643 0.29898 0.54122 0.0
C1189 C 0.60532 0.36404 0.49013 0.0
C1190 C 0.588 0.36729 0.51163 0.0
C1191 C 0.58268 0.34603 0.52828 0.0
C1192 C 0.57268 0.39149 0.51501 0.0
C1193 C 0.61096 0.38564 0.4707 0.0
C1194 C 0.58494 0.41588 0.51725 0.0
C1195 C 0.57013 0.43867 0.51615 0.0
C1196 C 0.54279 0.43738 0.51357 0.0
C1197 C 0.53051 0.41293 0.51293 0.0
C1198 C 0.5453 0.39024 0.51367 0.0
H1199 H 0.62001 0.37829 0.45229 0.0
H1200 H 0.59278 0.39615 0.46537 0.0
H1201 H 0.62479 0.39971 0.47972 0.0
H1202 H 0.60601 0.41734 0.51883 0.0
H1203 H 0.58016 0.45724 0.51627 0.0
loop_
_geom_bond_atom_site_label_1
_geom_bond_atom_site_label_2
_geom_bond_distance
_geom_bond_site_symmetry_2
_ccdc_geom_bond_type
P0 O11 1.490 . S
P0 C14 1.812 . S
P0 C20 1.803 . S
P0 C26 1.819 . S
H1 C15 0.941 . S
H2 C16 0.939 . S
H3 C18 0.940 . S
H4 C19 0.940 . S
H5 C21 0.939 . S
H6 C22 0.942 . S
H7 C24 0.940 . S
H8 C25 0.939 . S
H9 C27 0.941 . S
H10 C31 0.939 . S
O11 P0 1.490 . S
H12 C28 0.939 . S
H13 C30 0.940 . S
C14 P0 1.812 . S
C14 C15 1.389 . S
C14 C19 1.391 . S
C15 H1 0.941 . S
C15 C14 1.389 . S
C15 C16 1.397 . S
C16 H2 0.939 . S
C16 C15 1.397 . S
C16 C17 1.378 . S
C17 C16 1.378 . S
C17 C18 1.378 . S
C18 H3 0.940 . S
C18 C17 1.378 . S
C18 C19 1.396 . S
C19 H4 0.940 . S
C19 C14 1.391 . S
C19 C18 1.396 . S
C20 P0 1.803 . S
C20 C21 1.378 . S
C20 C25 1.400 . S
C21 H5 0.939 . S
C21 C20 1.378 . S
C21 C22 1.361 . S
C22 H6 0.942 . S
C22 C21 1.361 . S
C22 C23 1.369 . S
C23 C22 1.369 . S
C23 C24 1.404 . S
C24 H7 0.940 . S
C24 C23 1.404 . S
C24 C25 1.389 . S
C25 H8 0.939 . S
C25 C20 1.400 . S
C25 C24 1.389 . S
C26 P0 1.819 . S
C26 C27 1.391 . S
C26 C31 1.391 . S
C27 H9 0.941 . S
C27 C26 1.391 . S
C27 C28 1.396 . S
C28 H12 0.939 . S
C28 C27 1.396 . S
C28 C29 1.397 . S
C29 C28 1.397 . S
C29 C30 1.385 . S
C30 H13 0.940 . S
C30 C29 1.385 . S
C30 C31 1.388 . S
C31 H10 0.939 . S
C31 C26 1.391 . S
C31 C30 1.388 . S
P32 O43 1.490 . S
P32 C46 1.812 . S
P32 C52 1.803 . S
P32 C58 1.819 . S
H33 C47 0.941 . S
H34 C48 0.939 . S
H35 C50 0.940 . S
H36 C51 0.940 . S
H37 C53 0.939 . S
H38 C54 0.942 . S
H39 C56 0.940 . S
H40 C57 0.939 . S
H41 C59 0.941 . S
H42 C63 0.939 . S
O43 P32 1.490 . S
H44 C60 0.939 . S
H45 C62 0.940 . S
C46 P32 1.812 . S
C46 C47 1.389 . S
C46 C51 1.391 . S
C47 H33 0.941 . S
C47 C46 1.389 . S
C47 C48 1.397 . S
C48 H34 0.939 . S
C48 C47 1.397 . S
C48 C49 1.378 . S
C49 C48 1.378 . S
C49 C50 1.378 . S
C50 H35 0.940 . S
C50 C49 1.378 . S
C50 C51 1.396 . S
C51 H36 0.940 . S
C51 C46 1.391 . S
C51 C50 1.396 . S
C52 P32 1.803 . S
C52 C53 1.378 . S
C52 C57 1.400 . S
C53 H37 0.939 . S
C53 C52 1.378 . S
C53 C54 1.361 . S
C54 H38 0.942 . S
C54 C53 1.361 . S
C54 C55 1.369 . S
C55 C54 1.369 . S
C55 C56 1.404 . S
C56 H39 0.940 . S
C56 C55 1.404 . S
C56 C57 1.389 . S
C57 H40 0.939 . S
C57 C52 1.400 . S
C57 C56 1.389 . S
C58 P32 1.819 . S
C58 C59 1.391 . S
C58 C63 1.391 . S
C59 H41 0.941 . S
C59 C58 1.391 . S
C59 C60 1.396 . S
C60 H44 0.939 . S
C60 C59 1.396 . S
C60 C61 1.397 . S
C61 C60 1.397 . S
C61 C62 1.385 . S
C62 H45 0.940 . S
C62 C61 1.385 . S
C62 C63 1.388 . S
C63 H42 0.939 . S
C63 C58 1.391 . S
C63 C62 1.388 . S
P64 O75 1.490 . S
P64 C78 1.812 . S
P64 C84 1.803 . S
P64 C90 1.819 . S
H65 C79 0.941 . S
H66 C80 0.939 . S
H67 C82 0.940 . S
H68 C83 0.940 . S
H69 C85 0.939 . S
H70 C86 0.942 . S
H71 C88 0.940 . S
H72 C89 0.939 . S
H73 C91 0.941 . S
H74 C95 0.939 . S
O75 P64 1.490 . S
H76 C92 0.939 . S
H77 C94 0.940 . S
C78 P64 1.812 . S
C78 C79 1.389 . S
C78 C83 1.391 . S
C79 H65 0.941 . S
C79 C78 1.389 . S
C79 C80 1.397 . S
C80 H66 0.939 . S
C80 C79 1.397 . S
C80 C81 1.378 . S
C81 C80 1.378 . S
C81 C82 1.378 . S
C82 H67 0.940 . S
C82 C81 1.378 . S
C82 C83 1.396 . S
C83 H68 0.940 . S
C83 C78 1.391 . S
C83 C82 1.396 . S
C84 P64 1.803 . S
C84 C85 1.378 . S
C84 C89 1.400 . S
C85 H69 0.939 . S
C85 C84 1.378 . S
C85 C86 1.361 . S
C86 H70 0.942 . S
C86 C85 1.361 . S
C86 C87 1.369 . S
C87 C86 1.369 . S
C87 C88 1.404 . S
C88 H71 0.940 . S
C88 C87 1.404 . S
C88 C89 1.389 . S
C89 H72 0.939 . S
C89 C84 1.400 . S
C89 C88 1.389 . S
C90 P64 1.819 . S
C90 C91 1.391 . S
C90 C95 1.391 . S
C91 H73 0.941 . S
C91 C90 1.391 . S
C91 C92 1.396 . S
C92 H76 0.939 . S
C92 C91 1.396 . S
C92 C93 1.397 . S
C93 C92 1.397 . S
C93 C94 1.385 . S
C94 H77 0.940 . S
C94 C93 1.385 . S
C94 C95 1.388 . S
C95 H74 0.939 . S
C95 C90 1.391 . S
C95 C94 1.388 . S
P96 O107 1.490 . S
P96 C110 1.812 . S
P96 C116 1.803 . S
P96 C122 1.819 . S
H97 C111 0.941 . S
H98 C112 0.939 . S
H99 C114 0.940 . S
H100 C115 0.940 . S
H101 C117 0.939 . S
H102 C118 0.942 . S
H103 C120 0.940 . S
H104 C121 0.939 . S
H105 C123 0.941 . S
H106 C127 0.939 . S
O107 P96 1.490 . S
H108 C124 0.939 . S
H109 C126 0.940 . S
C110 P96 1.812 . S
C110 C111 1.389 . S
C110 C115 1.391 . S
C111 H97 0.941 . S
C111 C110 1.389 . S
C111 C112 1.397 . S
C112 H98 0.939 . S
C112 C111 1.397 . S
C112 C113 1.378 . S
C113 C112 1.378 . S
C113 C114 1.378 . S
C114 H99 0.940 . S
C114 C113 1.378 . S
C114 C115 1.396 . S
C115 H100 0.940 . S
C115 C110 1.391 . S
C115 C114 1.396 . S
C116 P96 1.803 . S
C116 C117 1.378 . S
C116 C121 1.400 . S
C117 H101 0.939 . S
C117 C116 1.378 . S
C117 C118 1.361 . S
C118 H102 0.942 . S
C118 C117 1.361 . S
C118 C119 1.369 . S
C119 C118 1.369 . S
C119 C120 1.404 . S
C120 H103 0.940 . S
C120 C119 1.404 . S
C120 C121 1.389 . S
C121 H104 0.939 . S
C121 C116 1.400 . S
C121 C120 1.389 . S
C122 P96 1.819 . S
C122 C123 1.391 . S
C122 C127 1.391 . S
C123 H105 0.941 . S
C123 C122 1.391 . S
C123 C124 1.396 . S
C124 H108 0.939 . S
C124 C123 1.396 . S
C124 C125 1.397 . S
C125 C124 1.397 . S
C125 C126 1.385 . S
C126 H109 0.940 . S
C126 C125 1.385 . S
C126 C127 1.388 . S
C127 H106 0.939 . S
C127 C122 1.391 . S
C127 C126 1.388 . S
P128 O139 1.490 . S
P128 C142 1.812 . S
P128 C148 1.803 . S
P128 C154 1.819 . S
H129 C143 0.941 1_554 S
H130 C144 0.939 1_554 S
H131 C146 0.940 . S
H132 C147 0.940 . S
H133 C149 0.939 . S
H134 C150 0.942 1_455 S
H135 C152 0.940 . S
H136 C153 0.939 . S
H137 C155 0.941 . S
H138 C159 0.939 . S
O139 P128 1.490 . S
H140 C156 0.939 1_545 S
H141 C158 0.940 . S
C142 P128 1.812 . S
C142 C143 1.389 . S
C142 C147 1.391 . S
C143 H129 0.941 1_556 S
C143 C142 1.389 . S
C143 C144 1.397 . S
C144 H130 0.939 1_556 S
C144 C143 1.397 . S
C144 C145 1.378 . S
C145 C144 1.378 . S
C145 C146 1.378 . S
C146 H131 0.940 . S
C146 C145 1.378 . S
C146 C147 1.396 . S
C147 H132 0.940 . S
C147 C142 1.391 . S
C147 C146 1.396 . S
C148 P128 1.803 . S
C148 C149 1.378 . S
C148 C153 1.400 . S
C149 H133 0.939 . S
C149 C148 1.378 . S
C149 C150 1.361 . S
C150 H134 0.942 1_655 S
C150 C149 1.361 . S
C150 C151 1.369 . S
C151 C150 1.369 . S
C151 C152 1.404 . S
C152 H135 0.940 . S
C152 C151 1.404 . S
C152 C153 1.389 . S
C153 H136 0.939 . S
C153 C148 1.400 . S
C153 C152 1.389 . S
C154 P128 1.819 . S
C154 C155 1.391 . S
C154 C159 1.391 . S
C155 H137 0.941 . S
C155 C154 1.391 . S
C155 C156 1.396 . S
C156 H140 0.939 1_565 S
C156 C155 1.396 . S
C156 C157 1.397 . S
C157 C156 1.397 . S
C157 C158 1.385 . S
C158 H141 0.940 . S
C158 C157 1.385 . S
C158 C159 1.388 . S
C159 H138 0.939 . S
C159 C154 1.391 . S
C159 C158 1.388 . S
P160 O171 1.490 . S
P160 C174 1.812 . S
P160 C180 1.803 . S
P160 C186 1.819 . S
H161 C175 0.941 . S
H162 C176 0.939 . S
H163 C178 0.940 . S
H164 C179 0.940 . S
H165 C181 0.939 . S
H166 C182 0.942 . S
H167 C184 0.940 . S
H168 C185 0.939 . S
H169 C187 0.941 . S
H170 C191 0.939 . S
O171 P160 1.490 . S
H172 C188 0.939 . S
H173 C190 0.940 . S
C174 P160 1.812 . S
C174 C175 1.389 . S
C174 C179 1.391 . S
C175 H161 0.941 . S
C175 C174 1.389 . S
C175 C176 1.397 . S
C176 H162 0.939 . S
C176 C175 1.397 . S
C176 C177 1.378 . S
C177 C176 1.378 . S
C177 C178 1.378 . S
C178 H163 0.940 . S
C178 C177 1.378 . S
C178 C179 1.396 . S
C179 H164 0.940 . S
C179 C174 1.391 . S
C179 C178 1.396 . S
C180 P160 1.803 . S
C180 C181 1.378 . S
C180 C185 1.400 . S
C181 H165 0.939 . S
C181 C180 1.378 . S
C181 C182 1.361 . S
C182 H166 0.942 . S
C182 C181 1.361 . S
C182 C183 1.369 . S
C183 C182 1.369 . S
C183 C184 1.404 . S
C184 H167 0.940 . S
C184 C183 1.404 . S
C184 C185 1.389 . S
C185 H168 0.939 . S
C185 C180 1.400 . S
C185 C184 1.389 . S
C186 P160 1.819 . S
C186 C187 1.391 . S
C186 C191 1.391 . S
C187 H169 0.941 . S
C187 C186 1.391 . S
C187 C188 1.396 . S
C188 H172 0.939 . S
C188 C187 1.396 . S
C188 C189 1.397 . S
C189 C188 1.397 . S
C189 C190 1.385 . S
C190 H173 0.940 . S
C190 C189 1.385 . S
C190 C191 1.388 . S
C191 H170 0.939 . S
C191 C186 1.391 . S
C191 C190 1.388 . S
P192 O203 1.490 . S
P192 C206 1.812 . S
P192 C212 1.803 . S
P192 C218 1.819 . S
H193 C207 0.941 . S
H194 C208 0.939 . S
H195 C210 0.940 . S
H196 C211 0.940 . S
H197 C213 0.939 . S
H198 C214 0.942 . S
H199 C216 0.940 . S
H200 C217 0.939 . S
H201 C219 0.941 . S
H202 C223 0.939 . S
O203 P192 1.490 . S
H204 C220 0.939 . S
H205 C222 0.940 . S
C206 P192 1.812 . S
C206 C207 1.389 . S
C206 C211 1.391 . S
C207 H193 0.941 . S
C207 C206 1.389 . S
C207 C208 1.397 . S
C208 H194 0.939 . S
C208 C207 1.397 . S
C208 C209 1.378 . S
C209 C208 1.378 . S
C209 C210 1.378 . S
C210 H195 0.940 . S
C210 C209 1.378 . S
C210 C211 1.396 . S
C211 H196 0.940 . S
C211 C206 1.391 . S
C211 C210 1.396 . S
C212 P192 1.803 . S
C212 C213 1.378 . S
C212 C217 1.400 . S
C213 H197 0.939 . S
C213 C212 1.378 . S
C213 C214 1.361 . S
C214 H198 0.942 . S
C214 C213 1.361 . S
C214 C215 1.369 . S
C215 C214 1.369 . S
C215 C216 1.404 . S
C216 H199 0.940 . S
C216 C215 1.404 . S
C216 C217 1.389 . S
C217 H200 0.939 . S
C217 C212 1.400 . S
C217 C216 1.389 . S
C218 P192 1.819 . S
C218 C219 1.391 . S
C218 C223 1.391 . S
C219 H201 0.941 . S
C219 C218 1.391 . S
C219 C220 1.396 . S
C220 H204 0.939 . S
C220 C219 1.396 . S
C220 C221 1.397 . S
C221 C220 1.397 . S
C221 C222 1.385 . S
C222 H205 0.940 . S
C222 C221 1.385 . S
C222 C223 1.388 . S
C223 H202 0.939 . S
C223 C218 1.391 . S
C223 C222 1.388 . S
P224 O235 1.490 . S
P224 C238 1.812 . S
P224 C244 1.803 . S
P224 C250 1.819 . S
H225 C239 0.941 . S
H226 C240 0.939 . S
H227 C242 0.940 . S
H228 C243 0.940 . S
H229 C245 0.939 . S
H230 C246 0.942 . S
H231 C248 0.940 . S
H232 C249 0.939 . S
H233 C251 0.941 . S
H234 C255 0.939 . S
O235 P224 1.490 . S
H236 C252 0.939 . S
H237 C254 0.940 . S
C238 P224 1.812 . S
C238 C239 1.389 . S
C238 C243 1.391 . S
C239 H225 0.941 . S
C239 C238 1.389 . S
C239 C240 1.397 . S
C240 H226 0.939 . S
C240 C239 1.397 . S
C240 C241 1.378 . S
C241 C240 1.378 . S
C241 C242 1.378 . S
C242 H227 0.940 . S
C242 C241 1.378 . S
C242 C243 1.396 . S
C243 H228 0.940 . S
C243 C238 1.391 . S
C243 C242 1.396 . S
C244 P224 1.803 . S
C244 C245 1.378 . S
C244 C249 1.400 . S
C245 H229 0.939 . S
C245 C244 1.378 . S
C245 C246 1.361 . S
C246 H230 0.942 . S
C246 C245 1.361 . S
C246 C247 1.369 . S
C247 C246 1.369 . S
C247 C248 1.404 . S
C248 H231 0.940 . S
C248 C247 1.404 . S
C248 C249 1.389 . S
C249 H232 0.939 . S
C249 C244 1.400 . S
C249 C248 1.389 . S
C250 P224 1.819 . S
C250 C251 1.391 . S
C250 C255 1.391 . S
C251 H233 0.941 . S
C251 C250 1.391 . S
C251 C252 1.396 . S
C252 H236 0.939 . S
C252 C251 1.396 . S
C252 C253 1.397 . S
C253 C252 1.397 . S
C253 C254 1.385 . S
C254 H237 0.940 . S
C254 C253 1.385 . S
C254 C255 1.388 . S
C255 H234 0.939 . S
C255 C250 1.391 . S
C255 C254 1.388 . S
Zn256 O262 1.920 . S
Zn256 O268 1.898 . S
Zn256 O271 1.905 . S
Zn257 O265 1.905 1_565 S
Zn257 O266 1.898 . S
Zn257 O274 1.920 . S
Zn258 O261 2.080 1_455 S
Zn258 O264 2.114 . S
Zn258 O267 2.120 1_445 S
Zn258 O269 2.120 . S
Zn258 O270 2.114 1_455 S
Zn258 O273 2.080 . S
C259 O264 1.166 . S
C259 O265 1.182 . S
C260 O266 1.167 1_655 S
C260 O267 1.299 . S
O261 Zn258 2.080 1_655 S
O261 C275 1.305 . S
O262 Zn256 1.920 . S
O262 C275 1.234 . S
C263 O268 1.167 1_455 S
C263 O269 1.299 . S
O264 Zn258 2.114 . S
O264 C259 1.166 . S
O265 Zn257 1.905 1_545 S
O265 C259 1.182 . S
O266 Zn257 1.898 . S
O266 C260 1.167 1_455 S
O267 Zn258 2.120 1_665 S
O267 C260 1.299 . S
O268 Zn256 1.898 . S
O268 C263 1.167 1_655 S
O269 Zn258 2.120 . S
O269 C263 1.299 . S
O270 Zn258 2.114 1_655 S
O270 C272 1.166 . S
O271 Zn256 1.905 . S
O271 C272 1.182 . S
C272 O270 1.166 . S
C272 O271 1.182 . S
O273 Zn258 2.080 . S
O273 C276 1.305 . S
O274 Zn257 1.920 . S
O274 C276 1.234 1_565 S
C275 O261 1.305 . S
C275 O262 1.234 . S
C276 O273 1.305 . S
C276 O274 1.234 1_545 S
Zn277 O283 1.920 1_556 S
Zn277 O289 1.898 . S
Zn277 O292 1.905 . S
Zn278 O286 1.905 . S
Zn278 O287 1.898 . S
Zn278 O295 1.920 . S
Zn279 O282 2.080 . S
Zn279 O285 2.114 1_545 S
Zn279 O288 2.120 1_545 S
Zn279 O290 2.120 . S
Zn279 O291 2.114 1_554 S
Zn279 O294 2.080 . S
C280 O285 1.166 . S
C280 O286 1.182 . S
C281 O287 1.167 . S
C281 O288 1.299 . S
O282 Zn279 2.080 . S
O282 C296 1.305 . S
O283 Zn277 1.920 1_554 S
O283 C296 1.234 . S
C284 O289 1.177 . S
C284 O290 1.284 1_556 S
O285 Zn279 2.114 1_565 S
O285 C280 1.166 . S
O286 Zn278 1.905 . S
O286 C280 1.182 . S
O287 Zn278 1.898 . S
O287 C281 1.167 . S
O288 Zn279 2.120 1_565 S
O288 C281 1.299 . S
O289 Zn277 1.898 . S
O289 C284 1.177 . S
O290 Zn279 2.120 . S
O290 C284 1.284 1_554 S
O291 Zn279 2.114 1_556 S
O291 C293 1.166 . S
O292 Zn277 1.905 . S
O292 C293 1.182 . S
C293 O291 1.166 . S
C293 O292 1.182 . S
O294 Zn279 2.080 . S
O294 C297 1.305 . S
O295 Zn278 1.920 . S
O295 C297 1.234 1_565 S
C296 O282 1.305 . S
C296 O283 1.234 . S
C297 O294 1.305 . S
C297 O295 1.234 1_545 S
Zn298 O304 1.920 . S
Zn298 O310 1.898 . S
Zn298 O313 1.905 . S
Zn299 O307 1.905 . S
Zn299 O308 1.898 . S
Zn299 O316 1.920 . S
Zn300 O303 2.080 . S
Zn300 O306 2.114 . S
Zn300 O309 2.120 . S
Zn300 O311 2.120 . S
Zn300 O312 2.114 . S
Zn300 O315 2.080 . S
C301 O306 1.166 . S
C301 O307 1.182 . S
C302 O308 1.167 . S
C302 O309 1.299 . S
O303 Zn300 2.080 . S
O303 C317 1.305 . S
O304 Zn298 1.920 . S
O304 C317 1.234 . S
C305 O310 1.167 . S
C305 O311 1.299 . S
O306 Zn300 2.114 . S
O306 C301 1.166 . S
O307 Zn299 1.905 . S
O307 C301 1.182 . S
O308 Zn299 1.898 . S
O308 C302 1.167 . S
O309 Zn300 2.120 . S
O309 C302 1.299 . S
O310 Zn298 1.898 . S
O310 C305 1.167 . S
O311 Zn300 2.120 . S
O311 C305 1.299 . S
O312 Zn300 2.114 . S
O312 C314 1.166 . S
O313 Zn298 1.905 . S
O313 C314 1.182 . S
C314 O312 1.166 . S
C314 O313 1.182 . S
O315 Zn300 2.080 . S
O315 C318 1.305 . S
O316 Zn299 1.920 . S
O316 C318 1.234 . S
C317 O303 1.305 . S
C317 O304 1.234 . S
C318 O315 1.305 . S
C318 O316 1.234 . S
Zn319 O325 1.920 . S
Zn319 O331 1.898 . S
Zn319 O334 1.905 . S
Zn320 O328 1.905 1_655 S
Zn320 O329 1.898 . S
Zn320 O337 1.920 . S
Zn321 O324 2.080 1_554 S
Zn321 O327 2.114 . S
Zn321 O330 2.120 1_454 S
Zn321 O332 2.120 . S
Zn321 O333 2.114 1_554 S
Zn321 O336 2.080 . S
C322 O327 1.166 . S
C322 O328 1.182 . S
C323 O329 1.167 1_556 S
C323 O330 1.299 . S
O324 Zn321 2.080 1_556 S
O324 C338 1.305 . S
O325 Zn319 1.920 . S
O325 C338 1.234 . S
C326 O331 1.167 1_554 S
C326 O332 1.299 . S
O327 Zn321 2.114 . S
O327 C322 1.166 . S
O328 Zn320 1.905 1_455 S
O328 C322 1.182 . S
O329 Zn320 1.898 . S
O329 C323 1.167 1_554 S
O330 Zn321 2.120 1_656 S
O330 C323 1.299 . S
O331 Zn319 1.898 . S
O331 C326 1.167 1_556 S
O332 Zn321 2.120 . S
O332 C326 1.299 . S
O333 Zn321 2.114 1_556 S
O333 C335 1.166 . S
O334 Zn319 1.905 . S
O334 C335 1.182 . S
C335 O333 1.166 . S
C335 O334 1.182 . S
O336 Zn321 2.080 . S
O336 C339 1.305 1_455 S
O337 Zn320 1.920 . S
O337 C339 1.234 . S
C338 O324 1.305 . S
C338 O325 1.234 . S
C339 O336 1.305 1_655 S
C339 O337 1.234 . S
H340 C348 0.929 . S
H341 C350 0.930 . S
H342 C352 0.930 . S
H343 C355 0.929 . S
H344 C358 0.930 . S
H345 C360 0.960 . S
H346 C360 0.960 . S
H347 C360 0.960 . S
C348 H340 0.929 . S
C348 C349 1.377 . S
C348 C350 1.384 . S
C349 C348 1.377 . S
C349 C355 1.390 . S
C350 H341 0.930 . S
C350 C348 1.384 . S
C350 C351 1.372 . S
C351 C350 1.372 . S
C351 C352 1.400 . S
C351 C356 1.490 . S
C352 H342 0.930 . S
C352 C351 1.400 . S
C352 C355 1.386 . S
H353 C369 0.930 . S
H354 C370 0.931 . S
C355 H343 0.929 . S
C355 C349 1.390 . S
C355 C352 1.386 . S
C356 C351 1.490 . S
C356 C358 1.395 . S
C356 C359 1.403 . S
H357 C363 0.930 . S
C358 H344 0.930 . S
C358 C356 1.395 . S
C358 C361 1.403 . S
C359 C356 1.403 . S
C359 C360 1.524 . S
C359 C363 1.400 . S
C360 H345 0.960 . S
C360 H346 0.960 . S
C360 H347 0.960 . S
C360 C359 1.524 . S
C361 C358 1.403 . S
C361 C362 1.392 . S
C361 C365 1.495 . S
C362 C361 1.392 . S
C362 C363 1.385 . S
C362 C364 1.478 . S
C363 H357 0.930 . S
C363 C359 1.400 . S
C363 C362 1.385 . S
C364 C362 1.478 . S
C364 C366 1.381 . S
C364 C370 1.383 . S
C365 C361 1.495 . S
C365 H371 0.959 . S
C365 H372 0.961 . S
C365 H373 0.960 . S
C366 C364 1.381 . S
C366 C367 1.394 . S
C366 H374 0.930 . S
C367 C366 1.394 . S
C367 C368 1.383 . S
C367 H375 0.929 . S
C368 C367 1.383 . S
C368 C369 1.377 . S
C369 H353 0.930 . S
C369 C368 1.377 . S
C369 C370 1.379 . S
C370 H354 0.931 . S
C370 C364 1.383 . S
C370 C369 1.379 . S
H371 C365 0.959 . S
H372 C365 0.961 . S
H373 C365 0.960 . S
H374 C366 0.930 . S
H375 C367 0.929 . S
H376 C384 0.929 . S
H377 C386 0.930 . S
H378 C388 0.930 . S
H379 C391 0.929 . S
H380 C394 0.930 . S
H381 C396 0.960 . S
H382 C396 0.960 . S
H383 C396 0.960 . S
C384 H376 0.929 . S
C384 C385 1.377 . S
C384 C386 1.384 . S
C385 C384 1.377 . S
C385 C391 1.390 . S
C386 H377 0.930 . S
C386 C384 1.384 . S
C386 C387 1.372 . S
C387 C386 1.372 . S
C387 C388 1.400 . S
C387 C392 1.490 . S
C388 H378 0.930 . S
C388 C387 1.400 . S
C388 C391 1.386 . S
H389 C405 0.930 . S
H390 C406 0.931 . S
C391 H379 0.929 . S
C391 C385 1.390 . S
C391 C388 1.386 . S
C392 C387 1.490 . S
C392 C394 1.395 . S
C392 C395 1.403 . S
H393 C399 0.930 . S
C394 H380 0.930 . S
C394 C392 1.395 . S
C394 C397 1.403 . S
C395 C392 1.403 . S
C395 C396 1.524 . S
C395 C399 1.400 . S
C396 H381 0.960 . S
C396 H382 0.960 . S
C396 H383 0.960 . S
C396 C395 1.524 . S
C397 C394 1.403 . S
C397 C398 1.392 . S
C397 C401 1.495 . S
C398 C397 1.392 . S
C398 C399 1.385 . S
C398 C400 1.478 . S
C399 H393 0.930 . S
C399 C395 1.400 . S
C399 C398 1.385 . S
C400 C398 1.478 . S
C400 C402 1.381 . S
C400 C406 1.383 . S
C401 C397 1.495 . S
C401 H407 0.959 . S
C401 H408 0.961 . S
C401 H409 0.960 . S
C402 C400 1.381 . S
C402 C403 1.394 . S
C402 H410 0.930 . S
C403 C402 1.394 . S
C403 C404 1.383 . S
C403 H411 0.929 . S
C404 C403 1.383 . S
C404 C405 1.377 . S
C405 H389 0.930 . S
C405 C404 1.377 . S
C405 C406 1.379 . S
C406 H390 0.931 . S
C406 C400 1.383 . S
C406 C405 1.379 . S
H407 C401 0.959 . S
H408 C401 0.961 . S
H409 C401 0.960 . S
H410 C402 0.930 . S
H411 C403 0.929 . S
H412 C420 0.929 . S
H413 C422 0.930 . S
H414 C424 0.930 . S
H415 C427 0.929 . S
H416 C430 0.930 . S
H417 C432 0.960 . S
H418 C432 0.960 . S
H419 C432 0.960 . S
C420 H412 0.929 . S
C420 C421 1.377 . S
C420 C422 1.384 . S
C421 C420 1.377 . S
C421 C427 1.390 . S
C422 H413 0.930 . S
C422 C420 1.384 . S
C422 C423 1.372 . S
C423 C422 1.372 . S
C423 C424 1.400 . S
C423 C428 1.490 . S
C424 H414 0.930 . S
C424 C423 1.400 . S
C424 C427 1.386 . S
H425 C441 0.930 . S
H426 C442 0.931 . S
C427 H415 0.929 . S
C427 C421 1.390 . S
C427 C424 1.386 . S
C428 C423 1.490 . S
C428 C430 1.395 . S
C428 C431 1.403 . S
H429 C435 0.930 . S
C430 H416 0.930 . S
C430 C428 1.395 . S
C430 C433 1.403 . S
C431 C428 1.403 . S
C431 C432 1.524 . S
C431 C435 1.400 . S
C432 H417 0.960 . S
C432 H418 0.960 . S
C432 H419 0.960 . S
C432 C431 1.524 . S
C433 C430 1.403 . S
C433 C434 1.392 . S
C433 C437 1.495 . S
C434 C433 1.392 . S
C434 C435 1.385 . S
C434 C436 1.478 . S
C435 H429 0.930 . S
C435 C431 1.400 . S
C435 C434 1.385 . S
C436 C434 1.478 . S
C436 C438 1.381 . S
C436 C442 1.383 . S
C437 C433 1.495 . S
C437 H443 0.959 . S
C437 H444 0.961 . S
C437 H445 0.960 . S
C438 C436 1.381 . S
C438 C439 1.394 . S
C438 H446 0.930 . S
C439 C438 1.394 . S
C439 C440 1.383 . S
C439 H447 0.929 . S
C440 C439 1.383 . S
C440 C441 1.377 . S
C441 H425 0.930 . S
C441 C440 1.377 . S
C441 C442 1.379 . S
C442 H426 0.931 . S
C442 C436 1.383 . S
C442 C441 1.379 . S
H443 C437 0.959 . S
H444 C437 0.961 . S
H445 C437 0.960 . S
H446 C438 0.930 . S
H447 C439 0.929 . S
H448 C456 0.929 . S
H449 C458 0.930 . S
H450 C460 0.930 . S
H451 C463 0.929 . S
H452 C466 0.930 . S
H453 C468 0.960 . S
H454 C468 0.960 . S
H455 C468 0.960 . S
C456 H448 0.929 . S
C456 C457 1.377 . S
C456 C458 1.384 . S
C457 C456 1.377 . S
C457 C463 1.390 . S
C458 H449 0.930 . S
C458 C456 1.384 . S
C458 C459 1.372 . S
C459 C458 1.372 . S
C459 C460 1.400 . S
C459 C464 1.490 . S
C460 H450 0.930 . S
C460 C459 1.400 . S
C460 C463 1.386 . S
H461 C477 0.930 . S
H462 C478 0.931 . S
C463 H451 0.929 . S
C463 C457 1.390 . S
C463 C460 1.386 . S
C464 C459 1.490 . S
C464 C466 1.395 . S
C464 C467 1.403 . S
H465 C471 0.930 . S
C466 H452 0.930 . S
C466 C464 1.395 . S
C466 C469 1.403 . S
C467 C464 1.403 . S
C467 C468 1.524 . S
C467 C471 1.400 . S
C468 H453 0.960 . S
C468 H454 0.960 . S
C468 H455 0.960 . S
C468 C467 1.524 . S
C469 C466 1.403 . S
C469 C470 1.392 . S
C469 C473 1.495 . S
C470 C469 1.392 . S
C470 C471 1.385 . S
C470 C472 1.478 . S
C471 H465 0.930 . S
C471 C467 1.400 . S
C471 C470 1.385 . S
C472 C470 1.478 . S
C472 C474 1.381 . S
C472 C478 1.383 . S
C473 C469 1.495 . S
C473 H479 0.959 . S
C473 H480 0.961 . S
C473 H481 0.960 1_655 S
C474 C472 1.381 . S
C474 C475 1.394 1_655 S
C474 H482 0.930 1_655 S
C475 C474 1.394 1_455 S
C475 C476 1.383 1_455 S
C475 H483 0.929 . S
C476 C475 1.383 1_655 S
C476 C477 1.377 . S
C477 H461 0.930 . S
C477 C476 1.377 . S
C477 C478 1.379 . S
C478 H462 0.931 . S
C478 C472 1.383 . S
C478 C477 1.379 . S
H479 C473 0.959 . S
H480 C473 0.961 . S
H481 C473 0.960 1_455 S
H482 C474 0.930 1_455 S
H483 C475 0.929 . S
H484 C492 0.929 . S
H485 C494 0.930 . S
H486 C496 0.930 . S
H487 C499 0.929 . S
H488 C502 0.930 . S
H489 C504 0.960 . S
H490 C504 0.960 . S
H491 C504 0.960 . S
C492 H484 0.929 . S
C492 C493 1.377 . S
C492 C494 1.384 . S
C493 C492 1.377 . S
C493 C499 1.390 . S
C494 H485 0.930 . S
C494 C492 1.384 . S
C494 C495 1.372 . S
C495 C494 1.372 . S
C495 C496 1.400 . S
C495 C500 1.490 . S
C496 H486 0.930 . S
C496 C495 1.400 . S
C496 C499 1.386 . S
H497 C513 0.930 . S
H498 C514 0.931 . S
C499 H487 0.929 . S
C499 C493 1.390 . S
C499 C496 1.386 . S
C500 C495 1.490 . S
C500 C502 1.395 . S
C500 C503 1.403 . S
H501 C507 0.930 . S
C502 H488 0.930 . S
C502 C500 1.395 . S
C502 C505 1.403 . S
C503 C500 1.403 . S
C503 C504 1.524 . S
C503 C507 1.400 . S
C504 H489 0.960 . S
C504 H490 0.960 . S
C504 H491 0.960 . S
C504 C503 1.524 . S
C505 C502 1.403 . S
C505 C506 1.392 . S
C505 C509 1.495 . S
C506 C505 1.392 . S
C506 C507 1.385 . S
C506 C508 1.478 . S
C507 H501 0.930 . S
C507 C503 1.400 . S
C507 C506 1.385 . S
C508 C506 1.478 . S
C508 C510 1.381 . S
C508 C514 1.383 . S
C509 C505 1.495 . S
C509 H515 0.959 . S
C509 H516 0.961 . S
C509 H517 0.960 . S
C510 C508 1.381 . S
C510 C511 1.394 . S
C510 H518 0.930 . S
C511 C510 1.394 . S
C511 C512 1.383 . S
C511 H519 0.929 . S
C512 C511 1.383 . S
C512 C513 1.377 . S
C513 H497 0.930 . S
C513 C512 1.377 . S
C513 C514 1.379 . S
C514 H498 0.931 . S
C514 C508 1.383 . S
C514 C513 1.379 . S
H515 C509 0.959 . S
H516 C509 0.961 . S
H517 C509 0.960 . S
H518 C510 0.930 . S
H519 C511 0.929 . S
H520 C528 0.929 . S
H521 C530 0.930 . S
H522 C532 0.930 . S
H523 C535 0.929 . S
H524 C538 0.930 . S
H525 C540 0.960 . S
H526 C540 0.960 . S
H527 C540 0.960 . S
C528 H520 0.929 . S
C528 C529 1.377 . S
C528 C530 1.384 . S
C529 C528 1.377 . S
C529 C535 1.390 . S
C530 H521 0.930 . S
C530 C528 1.384 . S
C530 C531 1.372 . S
C531 C530 1.372 . S
C531 C532 1.400 . S
C531 C536 1.490 . S
C532 H522 0.930 . S
C532 C531 1.400 . S
C532 C535 1.386 . S
H533 C549 0.930 . S
H534 C550 0.931 . S
C535 H523 0.929 . S
C535 C529 1.390 . S
C535 C532 1.386 . S
C536 C531 1.490 . S
C536 C538 1.395 . S
C536 C539 1.403 . S
H537 C543 0.930 . S
C538 H524 0.930 . S
C538 C536 1.395 . S
C538 C541 1.403 . S
C539 C536 1.403 . S
C539 C540 1.524 . S
C539 C543 1.400 . S
C540 H525 0.960 . S
C540 H526 0.960 . S
C540 H527 0.960 . S
C540 C539 1.524 . S
C541 C538 1.403 . S
C541 C542 1.392 . S
C541 C545 1.495 1_565 S
C542 C541 1.392 . S
C542 C543 1.385 . S
C542 C544 1.478 . S
C543 H537 0.930 . S
C543 C539 1.400 . S
C543 C542 1.385 . S
C544 C542 1.478 . S
C544 C546 1.381 . S
C544 C550 1.383 . S
C545 C541 1.495 1_545 S
C545 H551 0.959 . S
C545 H552 0.961 . S
C545 H553 0.960 . S
C546 C544 1.381 . S
C546 C547 1.394 1_565 S
C546 H554 0.930 1_565 S
C547 C546 1.394 1_545 S
C547 C548 1.383 1_545 S
C547 H555 0.929 . S
C548 C547 1.383 1_565 S
C548 C549 1.377 . S
C549 H533 0.930 . S
C549 C548 1.377 . S
C549 C550 1.379 . S
C550 H534 0.931 . S
C550 C544 1.383 . S
C550 C549 1.379 . S
H551 C545 0.959 . S
H552 C545 0.961 . S
H553 C545 0.960 . S
H554 C546 0.930 1_545 S
H555 C547 0.929 . S
H556 C564 0.929 . S
H557 C566 0.930 . S
H558 C568 0.930 . S
H559 C571 0.929 . S
H560 C574 0.930 . S
H561 C576 0.960 . S
H562 C576 0.960 . S
H563 C576 0.960 . S
C564 H556 0.929 . S
C564 C565 1.377 . S
C564 C566 1.384 . S
C565 C564 1.377 . S
C565 C571 1.390 . S
C566 H557 0.930 . S
C566 C564 1.384 . S
C566 C567 1.372 . S
C567 C566 1.372 . S
C567 C568 1.400 . S
C567 C572 1.490 . S
C568 H558 0.930 . S
C568 C567 1.400 . S
C568 C571 1.386 . S
H569 C585 0.930 . S
H570 C586 0.931 . S
C571 H559 0.929 . S
C571 C565 1.390 . S
C571 C568 1.386 . S
C572 C567 1.490 . S
C572 C574 1.395 . S
C572 C575 1.403 . S
H573 C579 0.930 . S
C574 H560 0.930 . S
C574 C572 1.395 . S
C574 C577 1.403 . S
C575 C572 1.403 . S
C575 C576 1.524 . S
C575 C579 1.400 . S
C576 H561 0.960 . S
C576 H562 0.960 . S
C576 H563 0.960 . S
C576 C575 1.524 . S
C577 C574 1.403 . S
C577 C578 1.392 . S
C577 C581 1.495 . S
C578 C577 1.392 . S
C578 C579 1.385 . S
C578 C580 1.478 . S
C579 H573 0.930 . S
C579 C575 1.400 . S
C579 C578 1.385 . S
C580 C578 1.478 . S
C580 C582 1.381 . S
C580 C586 1.383 . S
C581 C577 1.495 . S
C581 H587 0.959 . S
C581 H588 0.961 . S
C581 H589 0.960 . S
C582 C580 1.381 . S
C582 C583 1.394 . S
C582 H590 0.930 . S
C583 C582 1.394 . S
C583 C584 1.383 . S
C583 H591 0.929 1_556 S
C584 C583 1.383 . S
C584 C585 1.377 . S
C585 H569 0.930 . S
C585 C584 1.377 . S
C585 C586 1.379 . S
C586 H570 0.931 . S
C586 C580 1.383 . S
C586 C585 1.379 . S
H587 C581 0.959 . S
H588 C581 0.961 . S
H589 C581 0.960 . S
H590 C582 0.930 . S
H591 C583 0.929 1_554 S
H592 C600 0.929 . S
H593 C602 0.930 . S
H594 C604 0.930 . S
H595 C607 0.929 . S
H596 C610 0.930 . S
H597 C612 0.960 . S
H598 C612 0.960 . S
H599 C612 0.960 . S
C600 H592 0.929 . S
C600 C601 1.377 . S
C600 C602 1.384 . S
C601 C600 1.377 . S
C601 C607 1.390 . S
C602 H593 0.930 . S
C602 C600 1.384 . S
C602 C603 1.372 . S
C603 C602 1.372 . S
C603 C604 1.400 . S
C603 C608 1.490 . S
C604 H594 0.930 . S
C604 C603 1.400 . S
C604 C607 1.386 . S
H605 C621 0.930 . S
H606 C622 0.931 . S
C607 H595 0.929 . S
C607 C601 1.390 . S
C607 C604 1.386 . S
C608 C603 1.490 . S
C608 C610 1.395 . S
C608 C611 1.403 . S
H609 C615 0.930 . S
C610 H596 0.930 . S
C610 C608 1.395 . S
C610 C613 1.403 . S
C611 C608 1.403 . S
C611 C612 1.524 . S
C611 C615 1.400 . S
C612 H597 0.960 . S
C612 H598 0.960 . S
C612 H599 0.960 . S
C612 C611 1.524 . S
C613 C610 1.403 . S
C613 C614 1.392 . S
C613 C617 1.495 . S
C614 C613 1.392 . S
C614 C615 1.385 . S
C614 C616 1.478 . S
C615 H609 0.930 . S
C615 C611 1.400 . S
C615 C614 1.385 . S
C616 C614 1.478 . S
C616 C618 1.381 . S
C616 C622 1.383 . S
C617 C613 1.495 . S
C617 H623 0.959 . S
C617 H624 0.961 . S
C617 H625 0.960 . S
C618 C616 1.381 . S
C618 C619 1.394 . S
C618 H626 0.930 . S
C619 C618 1.394 . S
C619 C620 1.383 . S
C619 H627 0.929 . S
C620 C619 1.383 . S
C620 C621 1.377 . S
C621 H605 0.930 . S
C621 C620 1.377 . S
C621 C622 1.379 . S
C622 H606 0.931 . S
C622 C616 1.383 . S
C622 C621 1.379 . S
H623 C617 0.959 . S
H624 C617 0.961 . S
H625 C617 0.960 . S
H626 C618 0.930 . S
H627 C619 0.929 . S
H628 C636 0.929 . S
H629 C638 0.930 . S
H630 C640 0.930 . S
H631 C643 0.929 . S
H632 C646 0.930 . S
H633 C648 0.960 . S
H634 C648 0.960 . S
H635 C648 0.960 . S
C636 H628 0.929 . S
C636 C637 1.377 . S
C636 C638 1.384 . S
C637 C636 1.377 . S
C637 C643 1.390 . S
C638 H629 0.930 . S
C638 C636 1.384 . S
C638 C639 1.372 . S
C639 C638 1.372 . S
C639 C640 1.400 . S
C639 C644 1.490 . S
C640 H630 0.930 . S
C640 C639 1.400 . S
C640 C643 1.386 . S
H641 C657 0.930 . S
H642 C658 0.931 . S
C643 H631 0.929 . S
C643 C637 1.390 . S
C643 C640 1.386 . S
C644 C639 1.490 . S
C644 C646 1.395 . S
C644 C647 1.403 . S
H645 C651 0.930 . S
C646 H632 0.930 . S
C646 C644 1.395 . S
C646 C649 1.403 . S
C647 C644 1.403 . S
C647 C648 1.524 . S
C647 C651 1.400 . S
C648 H633 0.960 . S
C648 H634 0.960 . S
C648 H635 0.960 . S
C648 C647 1.524 . S
C649 C646 1.403 . S
C649 C650 1.392 . S
C649 C653 1.495 . S
C650 C649 1.392 . S
C650 C651 1.385 . S
C650 C652 1.478 . S
C651 H645 0.930 . S
C651 C647 1.400 . S
C651 C650 1.385 . S
C652 C650 1.478 . S
C652 C654 1.381 . S
C652 C658 1.383 . S
C653 C649 1.495 . S
C653 H659 0.959 . S
C653 H660 0.961 . S
C653 H661 0.960 . S
C654 C652 1.381 . S
C654 C655 1.394 . S
C654 H662 0.930 . S
C655 C654 1.394 . S
C655 C656 1.383 . S
C655 H663 0.929 . S
C656 C655 1.383 . S
C656 C657 1.377 . S
C657 H641 0.930 . S
C657 C656 1.377 . S
C657 C658 1.379 . S
C658 H642 0.931 . S
C658 C652 1.383 . S
C658 C657 1.379 . S
H659 C653 0.959 . S
H660 C653 0.961 . S
H661 C653 0.960 . S
H662 C654 0.930 . S
H663 C655 0.929 . S
H664 C672 0.929 . S
H665 C674 0.930 . S
H666 C676 0.930 . S
H667 C679 0.929 . S
H668 C682 0.930 . S
H669 C684 0.960 . S
H670 C684 0.960 . S
H671 C684 0.960 . S
C672 H664 0.929 . S
C672 C673 1.377 . S
C672 C674 1.384 . S
C673 C672 1.377 . S
C673 C679 1.390 . S
C674 H665 0.930 . S
C674 C672 1.384 . S
C674 C675 1.372 . S
C675 C674 1.372 . S
C675 C676 1.400 . S
C675 C680 1.490 . S
C676 H666 0.930 . S
C676 C675 1.400 . S
C676 C679 1.386 . S
H677 C693 0.930 . S
H678 C694 0.931 1_554 S
C679 H667 0.929 . S
C679 C673 1.390 . S
C679 C676 1.386 . S
C680 C675 1.490 . S
C680 C682 1.395 . S
C680 C683 1.403 . S
H681 C687 0.930 . S
C682 H668 0.930 . S
C682 C680 1.395 . S
C682 C685 1.403 . S
C683 C680 1.403 . S
C683 C684 1.524 . S
C683 C687 1.400 . S
C684 H669 0.960 . S
C684 H670 0.960 . S
C684 H671 0.960 . S
C684 C683 1.524 . S
C685 C682 1.403 . S
C685 C686 1.392 . S
C685 C689 1.495 . S
C686 C685 1.392 . S
C686 C687 1.385 . S
C686 C688 1.478 . S
C687 H681 0.930 . S
C687 C683 1.400 . S
C687 C686 1.385 . S
C688 C686 1.478 . S
C688 C690 1.381 . S
C688 C694 1.383 . S
C689 C685 1.495 . S
C689 H695 0.959 . S
C689 H696 0.961 . S
C689 H697 0.960 . S
C690 C688 1.381 . S
C690 C691 1.394 . S
C690 H698 0.930 . S
C691 C690 1.394 . S
C691 C692 1.383 . S
C691 H699 0.929 . S
C692 C691 1.383 . S
C692 C693 1.377 1_556 S
C693 H677 0.930 . S
C693 C692 1.377 1_554 S
C693 C694 1.379 1_554 S
C694 H678 0.931 1_556 S
C694 C688 1.383 . S
C694 C693 1.379 1_556 S
H695 C689 0.959 . S
H696 C689 0.961 . S
H697 C689 0.960 . S
H698 C690 0.930 . S
H699 C691 0.929 . S
H700 C708 0.929 . S
H701 C710 0.930 . S
H702 C712 0.930 . S
H703 C715 0.929 . S
H704 C718 0.930 . S
H705 C720 0.960 . S
H706 C720 0.960 . S
H707 C720 0.960 . S
C708 H700 0.929 . S
C708 C709 1.377 . S
C708 C710 1.384 . S
C709 C708 1.377 . S
C709 C715 1.390 . S
C710 H701 0.930 . S
C710 C708 1.384 . S
C710 C711 1.372 . S
C711 C710 1.372 . S
C711 C712 1.400 . S
C711 C716 1.490 . S
C712 H702 0.930 . S
C712 C711 1.400 . S
C712 C715 1.386 . S
H713 C729 0.930 . S
H714 C730 0.931 . S
C715 H703 0.929 . S
C715 C709 1.390 . S
C715 C712 1.386 . S
C716 C711 1.490 . S
C716 C718 1.395 . S
C716 C719 1.403 . S
H717 C723 0.930 . S
C718 H704 0.930 . S
C718 C716 1.395 . S
C718 C721 1.403 . S
C719 C716 1.403 . S
C719 C720 1.524 . S
C719 C723 1.400 . S
C720 H705 0.960 . S
C720 H706 0.960 . S
C720 H707 0.960 . S
C720 C719 1.524 . S
C721 C718 1.403 . S
C721 C722 1.392 . S
C721 C725 1.495 . S
C722 C721 1.392 . S
C722 C723 1.385 . S
C722 C724 1.478 . S
C723 H717 0.930 . S
C723 C719 1.400 . S
C723 C722 1.385 . S
C724 C722 1.478 . S
C724 C726 1.381 . S
C724 C730 1.383 . S
C725 C721 1.495 . S
C725 H731 0.959 . S
C725 H732 0.961 . S
C725 H733 0.960 . S
C726 C724 1.381 . S
C726 C727 1.394 . S
C726 H734 0.930 . S
C727 C726 1.394 . S
C727 C728 1.383 . S
C727 H735 0.929 . S
C728 C727 1.383 . S
C728 C729 1.377 . S
C729 H713 0.930 . S
C729 C728 1.377 . S
C729 C730 1.379 . S
C730 H714 0.931 . S
C730 C724 1.383 . S
C730 C729 1.379 . S
H731 C725 0.959 . S
H732 C725 0.961 . S
H733 C725 0.960 . S
H734 C726 0.930 . S
H735 C727 0.929 . S
H736 C744 0.929 . S
H737 C746 0.930 . S
H738 C748 0.930 . S
H739 C751 0.929 . S
H740 C754 0.930 . S
H741 C756 0.960 . S
H742 C756 0.960 . S
H743 C756 0.960 . S
C744 H736 0.929 . S
C744 C745 1.377 . S
C744 C746 1.384 . S
C745 C744 1.377 . S
C745 C751 1.390 . S
C746 H737 0.930 . S
C746 C744 1.384 . S
C746 C747 1.372 . S
C747 C746 1.372 . S
C747 C748 1.400 . S
C747 C752 1.490 . S
C748 H738 0.930 . S
C748 C747 1.400 . S
C748 C751 1.386 . S
H749 C765 0.930 . S
H750 C766 0.931 . S
C751 H739 0.929 . S
C751 C745 1.390 . S
C751 C748 1.386 . S
C752 C747 1.490 . S
C752 C754 1.395 . S
C752 C755 1.403 . S
H753 C759 0.930 . S
C754 H740 0.930 . S
C754 C752 1.395 . S
C754 C757 1.403 . S
C755 C752 1.403 . S
C755 C756 1.524 . S
C755 C759 1.400 . S
C756 H741 0.960 . S
C756 H742 0.960 . S
C756 H743 0.960 . S
C756 C755 1.524 . S
C757 C754 1.403 . S
C757 C758 1.392 . S
C757 C761 1.495 . S
C758 C757 1.392 . S
C758 C759 1.385 . S
C758 C760 1.478 . S
C759 H753 0.930 . S
C759 C755 1.400 . S
C759 C758 1.385 . S
C760 C758 1.478 . S
C760 C762 1.381 . S
C760 C766 1.383 . S
C761 C757 1.495 . S
C761 H767 0.959 . S
C761 H768 0.961 . S
C761 H769 0.960 . S
C762 C760 1.381 . S
C762 C763 1.394 . S
C762 H770 0.930 . S
C763 C762 1.394 . S
C763 C764 1.383 . S
C763 H771 0.929 . S
C764 C763 1.383 . S
C764 C765 1.377 . S
C765 H749 0.930 . S
C765 C764 1.377 . S
C765 C766 1.379 . S
C766 H750 0.931 . S
C766 C760 1.383 . S
C766 C765 1.379 . S
H767 C761 0.959 . S
H768 C761 0.961 . S
H769 C761 0.960 . S
H770 C762 0.930 . S
H771 C763 0.929 . S
H772 C780 0.929 1_455 S
H773 C782 0.930 1_455 S
H774 C784 0.930 . S
H775 C787 0.929 . S
H776 C790 0.930 . S
H777 C792 0.960 . S
H778 C792 0.960 . S
H779 C792 0.960 . S
C780 H772 0.929 1_655 S
C780 C781 1.377 . S
C780 C782 1.384 . S
C781 C780 1.377 . S
C781 C787 1.390 . S
C782 H773 0.930 1_655 S
C782 C780 1.384 . S
C782 C783 1.372 . S
C783 C782 1.372 . S
C783 C784 1.400 . S
C783 C788 1.490 . S
C784 H774 0.930 . S
C784 C783 1.400 . S
C784 C787 1.386 . S
H785 C801 0.930 . S
H786 C802 0.931 . S
C787 H775 0.929 . S
C787 C781 1.390 . S
C787 C784 1.386 . S
C788 C783 1.490 . S
C788 C790 1.395 . S
C788 C791 1.403 1_565 S
H789 C795 0.930 . S
C790 H776 0.930 . S
C790 C788 1.395 . S
C790 C793 1.403 . S
C791 C788 1.403 1_545 S
C791 C792 1.524 . S
C791 C795 1.400 . S
C792 H777 0.960 . S
C792 H778 0.960 . S
C792 H779 0.960 . S
C792 C791 1.524 . S
C793 C790 1.403 . S
C793 C794 1.405 . S
C793 C797 1.495 1_655 S
C794 C793 1.405 . S
C794 C795 1.374 1_565 S
C794 C796 1.475 1_565 S
C795 H789 0.930 . S
C795 C791 1.400 . S
C795 C794 1.374 1_545 S
C796 C794 1.475 1_545 S
C796 C798 1.381 1_655 S
C796 C802 1.383 . S
C797 C793 1.495 1_455 S
C797 H803 0.959 . S
C797 H804 0.961 1_455 S
C797 H805 0.960 . S
C798 C796 1.381 1_455 S
C798 C799 1.394 . S
C798 H806 0.930 . S
C799 C798 1.394 . S
C799 C800 1.383 1_455 S
C799 H807 0.929 . S
C800 C799 1.383 1_655 S
C800 C801 1.377 . S
C801 H785 0.930 . S
C801 C800 1.377 . S
C801 C802 1.379 . S
C802 H786 0.931 . S
C802 C796 1.383 . S
C802 C801 1.379 . S
H803 C797 0.959 . S
H804 C797 0.961 1_655 S
H805 C797 0.960 . S
H806 C798 0.930 . S
H807 C799 0.929 . S
H808 C816 0.929 . S
H809 C818 0.930 . S
H810 C820 0.930 . S
H811 C823 0.929 . S
H812 C826 0.930 . S
H813 C828 0.960 . S
H814 C828 0.960 . S
H815 C828 0.960 . S
C816 H808 0.929 . S
C816 C817 1.377 . S
C816 C818 1.384 . S
C817 C816 1.377 . S
C817 C823 1.390 . S
C818 H809 0.930 . S
C818 C816 1.384 . S
C818 C819 1.372 . S
C819 C818 1.372 . S
C819 C820 1.400 . S
C819 C824 1.490 . S
C820 H810 0.930 . S
C820 C819 1.400 . S
C820 C823 1.386 . S
H821 C837 0.930 . S
H822 C838 0.931 . S
C823 H811 0.929 . S
C823 C817 1.390 . S
C823 C820 1.386 . S
C824 C819 1.490 . S
C824 C826 1.395 . S
C824 C827 1.403 . S
H825 C831 0.930 . S
C826 H812 0.930 . S
C826 C824 1.395 . S
C826 C829 1.403 . S
C827 C824 1.403 . S
C827 C828 1.524 . S
C827 C831 1.400 . S
C828 H813 0.960 . S
C828 H814 0.960 . S
C828 H815 0.960 . S
C828 C827 1.524 . S
C829 C826 1.403 . S
C829 C830 1.392 . S
C829 C833 1.495 . S
C830 C829 1.392 . S
C830 C831 1.385 . S
C830 C832 1.478 . S
C831 H825 0.930 . S
C831 C827 1.400 . S
C831 C830 1.385 . S
C832 C830 1.478 . S
C832 C834 1.381 . S
C832 C838 1.383 . S
C833 C829 1.495 . S
C833 H839 0.959 1_545 S
C833 H840 0.961 1_545 S
C833 H841 0.960 . S
C834 C832 1.381 . S
C834 C835 1.394 . S
C834 H842 0.930 . S
C835 C834 1.394 . S
C835 C836 1.383 . S
C835 H843 0.929 . S
C836 C835 1.383 . S
C836 C837 1.377 . S
C837 H821 0.930 . S
C837 C836 1.377 . S
C837 C838 1.379 . S
C838 H822 0.931 . S
C838 C832 1.383 . S
C838 C837 1.379 . S
H839 C833 0.959 1_565 S
H840 C833 0.961 1_565 S
H841 C833 0.960 . S
H842 C834 0.930 . S
H843 C835 0.929 . S
H844 C852 0.929 . S
H845 C854 0.930 . S
H846 C856 0.930 . S
H847 C859 0.929 . S
H848 C862 0.930 . S
H849 C864 0.960 . S
H850 C864 0.960 . S
H851 C864 0.960 . S
C852 H844 0.929 . S
C852 C853 1.377 . S
C852 C854 1.384 . S
C853 C852 1.377 . S
C853 C859 1.390 . S
C854 H845 0.930 . S
C854 C852 1.384 . S
C854 C855 1.372 . S
C855 C854 1.372 . S
C855 C856 1.400 . S
C855 C860 1.490 . S
C856 H846 0.930 . S
C856 C855 1.400 . S
C856 C859 1.386 . S
H857 C873 0.930 . S
H858 C874 0.931 . S
C859 H847 0.929 . S
C859 C853 1.390 . S
C859 C856 1.386 . S
C860 C855 1.490 . S
C860 C862 1.395 . S
C860 C863 1.403 . S
H861 C867 0.930 . S
C862 H848 0.930 . S
C862 C860 1.395 . S
C862 C865 1.403 . S
C863 C860 1.403 . S
C863 C864 1.524 . S
C863 C867 1.400 . S
C864 H849 0.960 . S
C864 H850 0.960 . S
C864 H851 0.960 . S
C864 C863 1.524 . S
C865 C862 1.403 . S
C865 C866 1.392 . S
C865 C869 1.495 . S
C866 C865 1.392 . S
C866 C867 1.385 . S
C866 C868 1.478 . S
C867 H861 0.930 . S
C867 C863 1.400 . S
C867 C866 1.385 . S
C868 C866 1.478 . S
C868 C870 1.381 . S
C868 C874 1.383 . S
C869 C865 1.495 . S
C869 H875 0.959 . S
C869 H876 0.961 . S
C869 H877 0.960 . S
C870 C868 1.381 . S
C870 C871 1.394 . S
C870 H878 0.930 . S
C871 C870 1.394 . S
C871 C872 1.383 . S
C871 H879 0.929 . S
C872 C871 1.383 . S
C872 C873 1.377 . S
C873 H857 0.930 . S
C873 C872 1.377 . S
C873 C874 1.379 . S
C874 H858 0.931 . S
C874 C868 1.383 . S
C874 C873 1.379 . S
H875 C869 0.959 . S
H876 C869 0.961 . S
H877 C869 0.960 . S
H878 C870 0.930 . S
H879 C871 0.929 . S
H880 C888 0.929 . S
H881 C890 0.930 . S
H882 C892 0.930 . S
H883 C895 0.929 . S
H884 C898 0.930 . S
H885 C900 0.960 . S
H886 C900 0.960 . S
H887 C900 0.960 . S
C888 H880 0.929 . S
C888 C889 1.377 . S
C888 C890 1.384 . S
C889 C888 1.377 . S
C889 C895 1.390 . S
C890 H881 0.930 . S
C890 C888 1.384 . S
C890 C891 1.372 . S
C891 C890 1.372 . S
C891 C892 1.400 . S
C891 C896 1.490 . S
C892 H882 0.930 . S
C892 C891 1.400 . S
C892 C895 1.386 . S
H893 C909 0.930 . S
H894 C910 0.931 . S
C895 H883 0.929 . S
C895 C889 1.390 . S
C895 C892 1.386 . S
C896 C891 1.490 . S
C896 C898 1.395 . S
C896 C899 1.403 . S
H897 C903 0.930 . S
C898 H884 0.930 . S
C898 C896 1.395 . S
C898 C901 1.403 . S
C899 C896 1.403 . S
C899 C900 1.524 . S
C899 C903 1.400 . S
C900 H885 0.960 . S
C900 H886 0.960 . S
C900 H887 0.960 . S
C900 C899 1.524 . S
C901 C898 1.403 . S
C901 C902 1.392 . S
C901 C905 1.488 1_455 S
C902 C901 1.392 . S
C902 C903 1.385 . S
C902 C904 1.478 . S
C903 H897 0.930 . S
C903 C899 1.400 . S
C903 C902 1.385 . S
C904 C902 1.478 . S
C904 C906 1.381 . S
C904 C910 1.383 . S
C905 C901 1.488 1_655 S
C905 H911 0.964 . S
C905 H912 0.964 . S
C905 H913 0.960 . S
C906 C904 1.381 . S
C906 C907 1.394 . S
C906 H914 0.930 . S
C907 C906 1.394 . S
C907 C908 1.383 . S
C907 H915 0.929 . S
C908 C907 1.383 . S
C908 C909 1.377 . S
C909 H893 0.930 . S
C909 C908 1.377 . S
C909 C910 1.379 . S
C910 H894 0.931 . S
C910 C904 1.383 . S
C910 C909 1.379 . S
H911 C905 0.964 . S
H912 C905 0.964 . S
H913 C905 0.960 . S
H914 C906 0.930 . S
H915 C907 0.929 . S
H916 C924 0.929 1_545 S
H917 C926 0.930 . S
H918 C928 0.930 1_554 S
H919 C931 0.929 . S
H920 C934 0.930 . S
H921 C936 0.960 . S
H922 C936 0.960 . S
H923 C936 0.960 . S
C924 H916 0.929 1_565 S
C924 C925 1.377 . S
C924 C926 1.384 1_565 S
C925 C924 1.377 . S
C925 C931 1.390 . S
C926 H917 0.930 . S
C926 C924 1.384 1_545 S
C926 C927 1.372 1_545 S
C927 C926 1.372 1_565 S
C927 C928 1.400 . S
C927 C932 1.490 . S
C928 H918 0.930 1_556 S
C928 C927 1.400 . S
C928 C931 1.386 . S
H929 C945 0.930 . S
H930 C946 0.931 . S
C931 H919 0.929 . S
C931 C925 1.390 . S
C931 C928 1.386 . S
C932 C927 1.490 . S
C932 C934 1.395 . S
C932 C935 1.403 1_556 S
H933 C939 0.930 . S
C934 H920 0.930 . S
C934 C932 1.395 . S
C934 C937 1.403 . S
C935 C932 1.403 1_554 S
C935 C936 1.524 . S
C935 C939 1.400 . S
C936 H921 0.960 . S
C936 H922 0.960 . S
C936 H923 0.960 . S
C936 C935 1.524 . S
C937 C934 1.403 . S
C937 C938 1.425 . S
C937 C941 1.495 . S
C938 C937 1.425 . S
C938 C939 1.357 1_556 S
C938 C940 1.472 1_556 S
C939 H933 0.930 . S
C939 C935 1.400 . S
C939 C938 1.357 1_554 S
C940 C938 1.472 1_554 S
C940 C942 1.385 1_565 S
C940 C946 1.383 . S
C941 C937 1.495 . S
C941 H947 0.959 . S
C941 H948 0.961 . S
C941 H949 0.960 1_565 S
C942 C940 1.385 1_545 S
C942 C943 1.401 . S
C942 H950 0.920 1_554 S
C943 C942 1.401 . S
C943 C944 1.351 1_545 S
C943 H951 0.929 . S
C944 C943 1.351 1_565 S
C944 C945 1.414 . S
C945 H929 0.930 . S
C945 C944 1.414 . S
C945 C946 1.379 . S
C946 H930 0.931 . S
C946 C940 1.383 . S
C946 C945 1.379 . S
H947 C941 0.959 . S
H948 C941 0.961 . S
H949 C941 0.960 1_545 S
H950 C942 0.920 1_556 S
H951 C943 0.929 . S
H952 C960 0.929 . S
H953 C962 0.930 . S
H954 C964 0.930 . S
H955 C967 0.929 . S
H956 C970 0.930 . S
H957 C972 0.960 . S
H958 C972 0.960 . S
H959 C972 0.960 . S
C960 H952 0.929 . S
C960 C961 1.377 . S
C960 C962 1.384 . S
C961 C960 1.377 . S
C961 C967 1.390 . S
C962 H953 0.930 . S
C962 C960 1.384 . S
C962 C963 1.372 . S
C963 C962 1.372 . S
C963 C964 1.400 . S
C963 C968 1.490 . S
C964 H954 0.930 . S
C964 C963 1.400 . S
C964 C967 1.386 . S
H965 C981 0.930 . S
H966 C982 0.931 . S
C967 H955 0.929 . S
C967 C961 1.390 . S
C967 C964 1.386 . S
C968 C963 1.490 . S
C968 C970 1.395 . S
C968 C971 1.403 . S
H969 C975 0.930 . S
C970 H956 0.930 . S
C970 C968 1.395 . S
C970 C973 1.403 . S
C971 C968 1.403 . S
C971 C972 1.524 . S
C971 C975 1.400 . S
C972 H957 0.960 . S
C972 H958 0.960 . S
C972 H959 0.960 . S
C972 C971 1.524 . S
C973 C970 1.403 . S
C973 C974 1.392 . S
C973 C977 1.495 . S
C974 C973 1.392 . S
C974 C975 1.385 . S
C974 C976 1.478 . S
C975 H969 0.930 . S
C975 C971 1.400 . S
C975 C974 1.385 . S
C976 C974 1.478 . S
C976 C978 1.381 . S
C976 C982 1.383 . S
C977 C973 1.495 . S
C977 H983 0.959 . S
C977 H984 0.961 . S
C977 H985 0.960 . S
C978 C976 1.381 . S
C978 C979 1.394 . S
C978 H986 0.930 . S
C979 C978 1.394 . S
C979 C980 1.383 . S
C979 H987 0.929 . S
C980 C979 1.383 . S
C980 C981 1.377 . S
C981 H965 0.930 . S
C981 C980 1.377 . S
C981 C982 1.379 . S
C982 H966 0.931 . S
C982 C976 1.383 . S
C982 C981 1.379 . S
H983 C977 0.959 . S
H984 C977 0.961 . S
H985 C977 0.960 . S
H986 C978 0.930 . S
H987 C979 0.929 . S
H988 C996 0.929 . S
H989 C998 0.930 . S
H990 C1000 0.930 . S
H991 C1003 0.929 . S
H992 C1006 0.930 . S
H993 C1008 0.960 . S
H994 C1008 0.960 1_554 S
H995 C1008 0.960 . S
C996 H988 0.929 . S
C996 C997 1.377 . S
C996 C998 1.384 . S
C997 C996 1.377 . S
C997 C1003 1.390 . S
C998 H989 0.930 . S
C998 C996 1.384 . S
C998 C999 1.372 . S
C999 C998 1.372 . S
C999 C1000 1.400 . S
C999 C1004 1.490 . S
C1000 H990 0.930 . S
C1000 C999 1.400 . S
C1000 C1003 1.386 . S
H1001 C1017 0.928 1_556 S
H1002 C1018 0.931 . S
C1003 H991 0.929 . S
C1003 C997 1.390 . S
C1003 C1000 1.386 . S
C1004 C999 1.490 . S
C1004 C1006 1.395 . S
C1004 C1007 1.403 . S
H1005 C1011 0.930 . S
C1006 H992 0.930 . S
C1006 C1004 1.395 . S
C1006 C1009 1.403 . S
C1007 C1004 1.403 . S
C1007 C1008 1.524 1_554 S
C1007 C1011 1.400 . S
C1008 H993 0.960 . S
C1008 H994 0.960 1_556 S
C1008 H995 0.960 . S
C1008 C1007 1.524 1_556 S
C1009 C1006 1.403 . S
C1009 C1010 1.392 . S
C1009 C1013 1.495 . S
C1010 C1009 1.392 . S
C1010 C1011 1.385 . S
C1010 C1012 1.478 . S
C1011 H1005 0.930 . S
C1011 C1007 1.400 . S
C1011 C1010 1.385 . S
C1012 C1010 1.478 . S
C1012 C1014 1.381 . S
C1012 C1018 1.383 . S
C1013 C1009 1.495 . S
C1013 H1019 0.959 . S
C1013 H1020 0.961 . S
C1013 H1021 0.960 . S
C1014 C1012 1.381 . S
C1014 C1015 1.394 . S
C1014 H1022 0.930 . S
C1015 C1014 1.394 . S
C1015 C1016 1.383 . S
C1015 H1023 0.929 . S
C1016 C1015 1.383 . S
C1016 C1017 1.377 . S
C1017 H1001 0.928 1_554 S
C1017 C1016 1.377 . S
C1017 C1018 1.379 . S
C1018 H1002 0.931 . S
C1018 C1012 1.383 . S
C1018 C1017 1.379 . S
H1019 C1013 0.959 . S
H1020 C1013 0.961 . S
H1021 C1013 0.960 . S
H1022 C1014 0.930 . S
H1023 C1015 0.929 . S
H1024 C1032 0.929 . S
H1025 C1034 0.930 . S
H1026 C1036 0.930 . S
H1027 C1039 0.929 . S
H1028 C1042 0.930 . S
H1029 C1044 0.960 . S
H1030 C1044 0.960 . S
H1031 C1044 0.960 . S
C1032 H1024 0.929 . S
C1032 C1033 1.377 . S
C1032 C1034 1.384 . S
C1033 C1032 1.377 . S
C1033 C1039 1.390 . S
C1034 H1025 0.930 . S
C1034 C1032 1.384 . S
C1034 C1035 1.372 . S
C1035 C1034 1.372 . S
C1035 C1036 1.400 . S
C1035 C1040 1.490 . S
C1036 H1026 0.930 . S
C1036 C1035 1.400 . S
C1036 C1039 1.386 . S
H1037 C1053 0.930 . S
H1038 C1054 0.931 . S
C1039 H1027 0.929 . S
C1039 C1033 1.390 . S
C1039 C1036 1.386 . S
C1040 C1035 1.490 . S
C1040 C1042 1.395 . S
C1040 C1043 1.403 . S
H1041 C1047 0.930 . S
C1042 H1028 0.930 . S
C1042 C1040 1.395 . S
C1042 C1045 1.403 . S
C1043 C1040 1.403 . S
C1043 C1044 1.524 . S
C1043 C1047 1.400 . S
C1044 H1029 0.960 . S
C1044 H1030 0.960 . S
C1044 H1031 0.960 . S
C1044 C1043 1.524 . S
C1045 C1042 1.403 . S
C1045 C1046 1.392 . S
C1045 C1049 1.495 . S
C1046 C1045 1.392 . S
C1046 C1047 1.385 . S
C1046 C1048 1.478 . S
C1047 H1041 0.930 . S
C1047 C1043 1.400 . S
C1047 C1046 1.385 . S
C1048 C1046 1.478 . S
C1048 C1050 1.381 . S
C1048 C1054 1.383 . S
C1049 C1045 1.495 . S
C1049 H1055 0.959 . S
C1049 H1056 0.961 . S
C1049 H1057 0.960 . S
C1050 C1048 1.381 . S
C1050 C1051 1.394 . S
C1050 H1058 0.930 . S
C1051 C1050 1.394 . S
C1051 C1052 1.383 . S
C1051 H1059 0.929 . S
C1052 C1051 1.383 . S
C1052 C1053 1.377 . S
C1053 H1037 0.930 . S
C1053 C1052 1.377 . S
C1053 C1054 1.379 . S
C1054 H1038 0.931 . S
C1054 C1048 1.383 . S
C1054 C1053 1.379 . S
H1055 C1049 0.959 . S
H1056 C1049 0.961 . S
H1057 C1049 0.960 . S
H1058 C1050 0.930 . S
H1059 C1051 0.929 . S
H1060 C1068 0.929 1_455 S
H1061 C1070 0.930 1_455 S
H1062 C1072 0.930 1_554 S
H1063 C1075 0.929 1_554 S
H1064 C1078 0.930 . S
H1065 C1080 0.960 . S
H1066 C1080 0.960 . S
H1067 C1080 0.960 . S
C1068 H1060 0.929 1_655 S
C1068 C1069 1.377 . S
C1068 C1070 1.384 . S
C1069 C1068 1.377 . S
C1069 C1075 1.390 . S
C1070 H1061 0.930 1_655 S
C1070 C1068 1.384 . S
C1070 C1071 1.372 . S
C1071 C1070 1.372 . S
C1071 C1072 1.400 . S
C1071 C1076 1.490 . S
C1072 H1062 0.930 1_556 S
C1072 C1071 1.400 . S
C1072 C1075 1.386 . S
H1073 C1089 0.924 1_655 S
H1074 C1090 0.931 . S
C1075 H1063 0.929 1_556 S
C1075 C1069 1.390 . S
C1075 C1072 1.386 . S
C1076 C1071 1.490 . S
C1076 C1078 1.395 1_655 S
C1076 C1079 1.403 . S
H1077 C1083 0.930 . S
C1078 H1064 0.930 . S
C1078 C1076 1.395 1_455 S
C1078 C1081 1.403 . S
C1079 C1076 1.403 . S
C1079 C1080 1.524 . S
C1079 C1083 1.400 . S
C1080 H1065 0.960 . S
C1080 H1066 0.960 . S
C1080 H1067 0.960 . S
C1080 C1079 1.524 . S
C1081 C1078 1.403 . S
C1081 C1082 1.392 . S
C1081 C1085 1.495 . S
C1082 C1081 1.392 . S
C1082 C1083 1.385 1_455 S
C1082 C1084 1.478 . S
C1083 H1077 0.930 . S
C1083 C1079 1.400 . S
C1083 C1082 1.385 1_655 S
C1084 C1082 1.478 . S
C1084 C1086 1.381 . S
C1084 C1090 1.383 1_456 S
C1085 C1081 1.495 . S
C1085 H1091 0.959 . S
C1085 H1092 0.961 1_556 S
C1085 H1093 0.960 . S
C1086 C1084 1.381 . S
C1086 C1087 1.394 . S
C1086 H1094 0.930 . S
C1087 C1086 1.394 . S
C1087 C1088 1.383 . S
C1087 H1095 0.929 . S
C1088 C1087 1.383 . S
C1088 C1089 1.384 1_556 S
C1089 H1073 0.924 1_455 S
C1089 C1088 1.384 1_554 S
C1089 C1090 1.378 1_455 S
C1090 H1074 0.931 . S
C1090 C1084 1.383 1_654 S
C1090 C1089 1.378 1_655 S
H1091 C1085 0.959 . S
H1092 C1085 0.961 1_554 S
H1093 C1085 0.960 . S
H1094 C1086 0.930 . S
H1095 C1087 0.929 . S
H1096 C1104 0.929 . S
H1097 C1106 0.930 . S
H1098 C1108 0.930 . S
H1099 C1111 0.929 . S
H1100 C1114 0.930 . S
H1101 C1116 0.960 . S
H1102 C1116 0.960 . S
H1103 C1116 0.960 . S
C1104 H1096 0.929 . S
C1104 C1105 1.377 . S
C1104 C1106 1.384 . S
C1105 C1104 1.377 . S
C1105 C1111 1.390 . S
C1106 H1097 0.930 . S
C1106 C1104 1.384 . S
C1106 C1107 1.372 . S
C1107 C1106 1.372 . S
C1107 C1108 1.400 . S
C1107 C1112 1.490 . S
C1108 H1098 0.930 . S
C1108 C1107 1.400 . S
C1108 C1111 1.386 . S
H1109 C1125 0.930 . S
H1110 C1126 0.931 . S
C1111 H1099 0.929 . S
C1111 C1105 1.390 . S
C1111 C1108 1.386 . S
C1112 C1107 1.490 . S
C1112 C1114 1.395 . S
C1112 C1115 1.403 . S
H1113 C1119 0.930 . S
C1114 H1100 0.930 . S
C1114 C1112 1.395 . S
C1114 C1117 1.403 . S
C1115 C1112 1.403 . S
C1115 C1116 1.524 . S
C1115 C1119 1.400 . S
C1116 H1101 0.960 . S
C1116 H1102 0.960 . S
C1116 H1103 0.960 . S
C1116 C1115 1.524 . S
C1117 C1114 1.403 . S
C1117 C1118 1.392 . S
C1117 C1121 1.495 . S
C1118 C1117 1.392 . S
C1118 C1119 1.385 . S
C1118 C1120 1.478 . S
C1119 H1113 0.930 . S
C1119 C1115 1.400 . S
C1119 C1118 1.385 . S
C1120 C1118 1.478 . S
C1120 C1122 1.381 . S
C1120 C1126 1.383 . S
C1121 C1117 1.495 . S
C1121 H1127 0.959 . S
C1121 H1128 0.961 . S
C1121 H1129 0.960 . S
C1122 C1120 1.381 . S
C1122 C1123 1.394 . S
C1122 H1130 0.930 . S
C1123 C1122 1.394 . S
C1123 C1124 1.383 . S
C1123 H1131 0.929 . S
C1124 C1123 1.383 . S
C1124 C1125 1.377 . S
C1125 H1109 0.930 . S
C1125 C1124 1.377 . S
C1125 C1126 1.379 . S
C1126 H1110 0.931 . S
C1126 C1120 1.383 . S
C1126 C1125 1.379 . S
H1127 C1121 0.959 . S
H1128 C1121 0.961 . S
H1129 C1121 0.960 . S
H1130 C1122 0.930 . S
H1131 C1123 0.929 . S
H1132 C1140 0.929 . S
H1133 C1142 0.930 . S
H1134 C1144 0.930 . S
H1135 C1147 0.929 . S
H1136 C1150 0.930 . S
H1137 C1152 0.960 . S
H1138 C1152 0.960 . S
H1139 C1152 0.960 . S
C1140 H1132 0.929 . S
C1140 C1141 1.377 . S
C1140 C1142 1.384 . S
C1141 C1140 1.377 . S
C1141 C1147 1.390 . S
C1142 H1133 0.930 . S
C1142 C1140 1.384 . S
C1142 C1143 1.372 . S
C1143 C1142 1.372 . S
C1143 C1144 1.400 . S
C1143 C1148 1.490 . S
C1144 H1134 0.930 . S
C1144 C1143 1.400 . S
C1144 C1147 1.386 . S
H1145 C1161 0.930 1_655 S
H1146 C1162 0.931 1_655 S
C1147 H1135 0.929 . S
C1147 C1141 1.390 . S
C1147 C1144 1.386 . S
C1148 C1143 1.490 . S
C1148 C1150 1.395 . S
C1148 C1151 1.403 . S
H1149 C1155 0.930 . S
C1150 H1136 0.930 . S
C1150 C1148 1.395 . S
C1150 C1153 1.403 . S
C1151 C1148 1.403 . S
C1151 C1152 1.524 . S
C1151 C1155 1.400 . S
C1152 H1137 0.960 . S
C1152 H1138 0.960 . S
C1152 H1139 0.960 . S
C1152 C1151 1.524 . S
C1153 C1150 1.403 . S
C1153 C1154 1.392 . S
C1153 C1157 1.495 . S
C1154 C1153 1.392 . S
C1154 C1155 1.385 . S
C1154 C1156 1.478 . S
C1155 H1149 0.930 . S
C1155 C1151 1.400 . S
C1155 C1154 1.385 . S
C1156 C1154 1.478 . S
C1156 C1158 1.381 . S
C1156 C1162 1.383 . S
C1157 C1153 1.495 . S
C1157 H1163 0.959 . S
C1157 H1164 0.961 . S
C1157 H1165 0.960 . S
C1158 C1156 1.381 . S
C1158 C1159 1.394 . S
C1158 H1166 0.930 . S
C1159 C1158 1.394 . S
C1159 C1160 1.383 . S
C1159 H1167 0.929 . S
C1160 C1159 1.383 . S
C1160 C1161 1.377 . S
C1161 H1145 0.930 1_455 S
C1161 C1160 1.377 . S
C1161 C1162 1.379 . S
C1162 H1146 0.931 1_455 S
C1162 C1156 1.383 . S
C1162 C1161 1.379 . S
H1163 C1157 0.959 . S
H1164 C1157 0.961 . S
H1165 C1157 0.960 . S
H1166 C1158 0.930 . S
H1167 C1159 0.929 . S
H1168 C1176 0.929 . S
H1169 C1178 0.930 . S
H1170 C1180 0.930 . S
H1171 C1183 0.929 . S
H1172 C1186 0.930 . S
H1173 C1188 0.960 . S
H1174 C1188 0.960 . S
H1175 C1188 0.960 . S
C1176 H1168 0.929 . S
C1176 C1177 1.377 . S
C1176 C1178 1.384 . S
C1177 C1176 1.377 . S
C1177 C1183 1.390 . S
C1178 H1169 0.930 . S
C1178 C1176 1.384 . S
C1178 C1179 1.372 . S
C1179 C1178 1.372 . S
C1179 C1180 1.400 . S
C1179 C1184 1.490 . S
C1180 H1170 0.930 . S
C1180 C1179 1.400 . S
C1180 C1183 1.386 . S
H1181 C1197 0.930 . S
H1182 C1198 0.931 . S
C1183 H1171 0.929 . S
C1183 C1177 1.390 . S
C1183 C1180 1.386 . S
C1184 C1179 1.490 . S
C1184 C1186 1.395 . S
C1184 C1187 1.403 . S
H1185 C1191 0.930 . S
C1186 H1172 0.930 . S
C1186 C1184 1.395 . S
C1186 C1189 1.403 . S
C1187 C1184 1.403 . S
C1187 C1188 1.524 . S
C1187 C1191 1.400 . S
C1188 H1173 0.960 . S
C1188 H1174 0.960 . S
C1188 H1175 0.960 . S
C1188 C1187 1.524 . S
C1189 C1186 1.403 . S
C1189 C1190 1.392 . S
C1189 C1193 1.495 . S
C1190 C1189 1.392 . S
C1190 C1191 1.385 . S
C1190 C1192 1.478 . S
C1191 H1185 0.930 . S
C1191 C1187 1.400 . S
C1191 C1190 1.385 . S
C1192 C1190 1.478 . S
C1192 C1194 1.381 . S
C1192 C1198 1.383 . S
C1193 C1189 1.495 . S
C1193 H1199 0.959 . S
C1193 H1200 0.961 . S
C1193 H1201 0.960 . S
C1194 C1192 1.381 . S
C1194 C1195 1.394 . S
C1194 H1202 0.930 . S
C1195 C1194 1.394 . S
C1195 C1196 1.383 . S
C1195 H1203 0.929 . S
C1196 C1195 1.383 . S
C1196 C1197 1.377 . S
C1197 H1181 0.930 . S
C1197 C1196 1.377 . S
C1197 C1198 1.379 . S
C1198 H1182 0.931 . S
C1198 C1192 1.383 . S
C1198 C1197 1.379 . S
H1199 C1193 0.959 . S
H1200 C1193 0.961 . S
H1201 C1193 0.960 . S
H1202 C1194 0.930 . S
H1203 C1195 0.929 . S
C349 C29 1.560 . S
C368 C259 1.501 . S
C385 C49 1.456 . S
C404 C293 1.409 1_565 S
C440 C305 1.399 . S
C421 C93 1.512 . S
C457 C119 1.435 . S
C476 C339 1.346 . S
C512 C296 1.412 . S
C493 C17 1.492 . S
C548 C276 1.429 1_565 S
C529 C61 1.522 . S
C584 C323 1.322 . S
C565 C81 1.445 . S
C620 C314 1.467 . S
C601 C125 1.521 . S
C637 C23 1.480 . S
C656 C322 1.381 . S
C692 C284 1.400 . S
C673 C87 1.455 . S
C709 C113 1.522 . S
C728 C260 1.466 . S
C745 C55 1.488 . S
C764 C317 1.373 . S
C800 C275 1.567 . S
C781 C157 1.668 . S
C817 C189 1.532 . S
C836 C297 1.511 . S
C853 C221 1.695 . S
C872 C302 1.587 . S
C889 C253 1.567 . S
C908 C335 1.599 . S
C925 C145 1.732 . S
C944 C280 1.632 . S
C980 C272 1.574 . S
C961 C183 1.550 . S
C1016 C326 1.593 . S
C997 C209 1.716 . S
C1052 C318 1.544 . S
C1033 C247 1.532 . S
C1069 C151 1.666 . S
C1088 C338 1.515 . S
C1124 C281 1.516 . S
C1105 C215 1.692 . S
C1160 C263 1.558 . S
C1141 C241 1.583 . S
C1177 C177 1.600 . S
C1196 C301 1.597 . S
