# Generated by pormake.
# Topology rtl, (3,6)-cn, num edge types: 1
# Building blocks:
#     Node 0, Type 0, BuildingBlock: PAMTOO_clean_linker_0, # of connection points: 3
#     Node 1, Type 0, BuildingBlock: PAMTOO_clean_linker_0, # of connection points: 3
#     Node 2, Type 0, BuildingBlock: PAMTOO_clean_linker_0, # of connection points: 3
#     Node 3, Type 0, BuildingBlock: PAMTOO_clean_linker_0, # of connection points: 3
#     Node 4, Type 1, BuildingBlock: VOLQOD_clean_sbu_1, # of connection points: 6
#     Node 5, Type 1, BuildingBlock: VOLQOD_clean_sbu_1, # of connection points: 6
#     Edge 6, Type (0, 1), BuildingBlock: FUNLAD_clean_linker_0, # of connection points: 2
#     Edge 7, Type (0, 1), BuildingBlock: FUNLAD_clean_linker_0, # of connection points: 2
#     Edge 8, Type (0, 1), BuildingBlock: FUNLAD_clean_linker_0, # of connection points: 2
#     Edge 9, Type (0, 1), BuildingBlock: FUNLAD_clean_linker_0, # of connection points: 2
#     Edge 10, Type (0, 1), BuildingBlock: FUNLAD_clean_linker_0, # of connection points: 2
#     Edge 11, Type (0, 1), BuildingBlock: FUNLAD_clean_linker_0, # of connection points: 2
#     Edge 12, Type (0, 1), BuildingBlock: FUNLAD_clean_linker_0, # of connection points: 2
#     Edge 13, Type (0, 1), BuildingBlock: FUNLAD_clean_linker_0, # of connection points: 2
#     Edge 14, Type (0, 1), BuildingBlock: FUNLAD_clean_linker_0, # of connection points: 2
#     Edge 15, Type (0, 1), BuildingBlock: FUNLAD_clean_linker_0, # of connection points: 2
#     Edge 16, Type (0, 1), BuildingBlock: FUNLAD_clean_linker_0, # of connection points: 2
#     Edge 17, Type (0, 1), BuildingBlock: FUNLAD_clean_linker_0, # of connection points: 2
# Relax obj value: 0.041
# Max RMSD: 0.144
# Mean RMSD: 0.097
data_MOF--net-rtl--node1-VOLQOD_clean_sbu_1--node2-PAMTOO_clean_linker_0--edge1-FUNLAD_clean_linker_0
_symmetry_space_group_name_H-M    P1
_symmetry_Int_Tables_number       1
_symmetry_cell_setting            triclinic
loop_
_symmetry_equiv_pos_as_xyz
'x, y, z'
_cell_length_a     43.535972
_cell_length_b     44.206844
_cell_length_c     25.579243
_cell_angle_alpha  92.414524
_cell_angle_beta   90.443186
_cell_angle_gamma 90.134592
loop_
_atom_site_label
_atom_site_type_symbol
_atom_site_fract_x
_atom_site_fract_y
_atom_site_fract_z
_atom_type_partial_charge
H0 H 0.14987 0.84235 0.99089 0.0
H1 H 0.20891 0.78031 0.06936 0.0
H2 H 0.21564 0.78892 0.90334 0.0
H3 H 0.21716 0.72711 0.93966 0.0
C4 C 0.23032 0.73102 0.97685 0.0
O5 O 0.23713 0.76137 0.98435 0.0
H6 H 0.21577 0.72342 0.00942 0.0
C7 C 0.16765 0.82521 0.9897 0.0
C8 C 0.18115 0.81693 0.94161 0.0
C9 C 0.17736 0.81227 0.03624 0.0
C10 C 0.20123 0.79093 0.03417 0.0
C11 C 0.21486 0.78255 0.98626 0.0
C12 C 0.20508 0.79575 0.94019 0.0
H13 H 0.67146 0.63062 0.48397 0.0
H14 H 0.73231 0.69819 0.42654 0.0
H15 H 0.70988 0.69937 0.58976 0.0
H16 H 0.71705 0.75973 0.55324 0.0
C17 C 0.73072 0.7547 0.51738 0.0
O18 O 0.74177 0.72551 0.51808 0.0
H19 H 0.71541 0.75729 0.48276 0.0
C20 C 0.68605 0.65029 0.49128 0.0
C21 C 0.68838 0.66351 0.54202 0.0
C22 C 0.70171 0.66261 0.44945 0.0
C23 C 0.72026 0.68828 0.45857 0.0
C24 C 0.72346 0.70114 0.50931 0.0
C25 C 0.70769 0.68874 0.55095 0.0
H26 H 0.85887 0.14944 0.00988 0.0
H27 H 0.78897 0.197 0.92658 0.0
H28 H 0.78841 0.19861 0.09432 0.0
H29 H 0.72763 0.19273 0.04821 0.0
C30 C 0.73122 0.2044 0.01104 0.0
O31 O 0.76035 0.21668 0.01059 0.0
H32 H 0.72842 0.18745 0.97789 0.0
C33 C 0.83891 0.16406 0.0101 0.0
C34 C 0.82564 0.17328 0.05802 0.0
C35 C 0.82603 0.17246 0.96238 0.0
C36 C 0.79926 0.19011 0.96289 0.0
C37 C 0.78578 0.19933 0.01044 0.0
C38 C 0.79896 0.19105 0.05785 0.0
H39 H 0.33774 0.37153 0.488 0.0
H40 H 0.28278 0.3074 0.56831 0.0
H41 H 0.28687 0.30246 0.4006 0.0
H42 H 0.2256 0.2943 0.4451 0.0
C43 C 0.23203 0.28204 0.48071 0.0
O44 O 0.26344 0.27842 0.48304 0.0
H45 H 0.22411 0.2958 0.51547 0.0
C46 C 0.32182 0.3526 0.48685 0.0
C47 C 0.31344 0.33871 0.43845 0.0
C48 C 0.31099 0.34157 0.53395 0.0
C49 C 0.2915 0.31621 0.5324 0.0
C50 C 0.28271 0.30239 0.4843 0.0
C51 C 0.29384 0.31341 0.4375 0.0
O52 O 0.93556 0.97189 0.49388 0.0
Zn53 Zn 0.96317 0.00845 0.49974 0.0
O54 O 0.00654 -0.003 0.49798 0.0
Zn55 Zn 0.02741 0.01222 0.56201 0.0
Zn56 Zn 0.00962 0.95288 0.4926 0.0
Zn57 Zn 0.02584 0.01432 0.43729 0.0
O58 O 0.06009 0.04275 0.54596 0.0
O59 O 0.0599 0.04308 0.45925 0.0
O60 O 0.95324 0.03112 0.56708 0.0
O61 O -0.00257 0.03327 0.61099 0.0
O62 O 0.04752 0.97826 0.60003 0.0
O63 O 0.03315 0.93711 0.55331 0.0
O64 O 0.03211 0.93914 0.42749 0.0
O65 O 0.9522 0.03549 0.44116 0.0
O66 O 0.04304 0.98177 0.38853 0.0
O67 O 0.99562 0.03872 0.39691 0.0
C68 C 0.94058 0.9435 0.49129 0.0
C69 C 0.07057 0.05253 0.50348 0.0
C70 C 0.04732 0.9496 0.59223 0.0
C71 C 0.9689 0.03927 0.60751 0.0
C72 C 0.04394 0.95302 0.38994 0.0
C73 C 0.96745 0.04548 0.40326 0.0
O74 O 0.96783 0.93308 0.49099 0.0
O75 O 0.5757 0.45825 -0.00131 0.0
Zn76 Zn 0.55557 0.49915 -0.0041 0.0
O77 O 0.51079 0.49617 -0.00174 0.0
Zn78 Zn 0.49277 0.51399 0.93633 0.0
Zn79 Zn 0.49912 0.45353 -7e-05 0.0
Zn80 Zn 0.49582 0.51791 0.06113 0.0
O81 O 0.46242 0.54678 0.9563 0.0
O82 O 0.46461 0.54927 0.04303 0.0
O83 O 0.56914 0.51902 0.93075 0.0
O84 O 0.52561 0.53223 0.8921 0.0
O85 O 0.46951 0.48252 0.89232 0.0
O86 O 0.47335 0.44084 0.93737 0.0
O87 O 0.47457 0.44551 0.06408 0.0
O88 O 0.57189 0.52526 0.0561 0.0
O89 O 0.47454 0.48961 0.10889 0.0
O90 O 0.53032 0.53934 0.10047 0.0
C91 C 0.56502 0.43146 0.00037 0.0
C92 C 0.45358 0.55823 0.00014 0.0
C93 C 0.46347 0.45464 0.89795 0.0
C94 C 0.55486 0.53186 0.89418 0.0
C95 C 0.46708 0.46174 0.10424 0.0
C96 C 0.55929 0.54004 0.09393 0.0
O97 O 0.53621 0.42652 0.00072 0.0
C98 C 0.2113 0.23705 0.52638 0.0
C99 C 0.21681 0.25151 0.47959 0.0
C100 C 0.197 0.20869 0.52555 0.0
C101 C 0.18795 0.19427 0.47768 0.0
C102 C 0.1947 0.20833 0.43087 0.0
C103 C 0.20902 0.23667 0.43177 0.0
C104 C 0.17138 0.16477 0.47467 0.0
C105 C 0.15443 0.15445 0.51409 0.0
C106 C 0.13521 0.12656 0.50973 0.0
C107 C 0.12533 0.11356 0.55586 0.0
C108 C 0.10515 0.0889 0.55388 0.0
C109 C 0.09418 0.07677 0.50557 0.0
H110 H 0.13097 0.12369 0.42474 0.0
C111 C 0.10459 0.08933 0.4593 0.0
C112 C 0.12475 0.11399 0.46128 0.0
H113 H 0.09647 0.0807 0.42139 0.0
H114 H 0.21796 0.2478 0.56361 0.0
H115 H 0.19343 0.19818 0.56243 0.0
H116 H 0.18842 0.19759 0.39343 0.0
H117 H 0.21373 0.24715 0.39515 0.0
H118 H 0.17218 0.15198 0.43758 0.0
H119 H 0.15367 0.16726 0.55117 0.0
H120 H 0.13285 0.12283 0.59373 0.0
H121 H 0.09761 0.07984 0.59033 0.0
C122 C 0.27472 0.70648 0.02201 0.0
C123 C 0.25961 0.71315 0.9753 0.0
C124 C 0.30193 0.68977 0.02091 0.0
C125 C 0.31451 0.67936 0.97284 0.0
C126 C 0.29987 0.68712 0.92615 0.0
C127 C 0.27269 0.70388 0.92733 0.0
C128 C 0.3428 0.66058 0.96956 0.0
C129 C 0.35276 0.64349 0.00865 0.0
C130 C 0.37989 0.62317 0.00472 0.0
C131 C 0.39373 0.61392 0.05112 0.0
C132 C 0.4181 0.59342 0.04961 0.0
C133 C 0.42907 0.58145 0.00152 0.0
H134 H 0.3806 0.61725 0.91979 0.0
C135 C 0.41547 0.59094 0.95496 0.0
C136 C 0.39109 0.61149 0.95648 0.0
H137 H 0.42319 0.58202 0.91725 0.0
H138 H 0.26539 0.71417 0.05938 0.0
H139 H 0.31306 0.68547 0.05777 0.0
H140 H 0.30924 0.67982 0.88859 0.0
H141 H 0.26172 0.70936 0.89078 0.0
H142 H 0.35507 0.66018 0.93279 0.0
H143 H 0.34046 0.64388 0.04539 0.0
H144 H 0.38548 0.62238 0.08882 0.0
H145 H 0.42796 0.58661 0.08628 0.0
C146 C 0.76277 0.79327 0.47193 0.0
C147 C 0.75732 0.77637 0.51617 0.0
C148 C 0.78792 0.81295 0.4708 0.0
C149 C 0.80812 0.81598 0.51397 0.0
C150 C 0.80285 0.79866 0.55779 0.0
C151 C 0.77758 0.77917 0.55903 0.0
C152 C 0.83543 0.83615 0.51387 0.0
C153 C 0.83659 0.86152 0.48658 0.0
C154 C 0.86367 0.882 0.48767 0.0
C155 C 0.85924 0.91295 0.48025 0.0
C156 C 0.88417 0.93293 0.48146 0.0
C157 C 0.9142 0.92226 0.48926 0.0
H158 H 0.89811 0.84733 0.499 0.0
C159 C 0.91871 0.89112 0.49547 0.0
C160 C 0.89373 0.8712 0.49474 0.0
H161 H 0.94155 0.88211 0.50123 0.0
H162 H 0.74769 0.79113 0.43809 0.0
H163 H 0.79177 0.8252 0.4357 0.0
H164 H 0.81823 0.80034 0.59131 0.0
H165 H 0.77391 0.7661 0.59334 0.0
H166 H 0.85448 0.83074 0.5395 0.0
H167 H 0.81639 0.86862 0.46517 0.0
H168 H 0.83635 0.92178 0.47419 0.0
H169 H 0.87988 0.95673 0.47615 0.0
C170 C 0.70635 0.25195 0.04739 0.0
C171 C 0.7081 0.2294 0.00728 0.0
C172 C 0.68569 0.2759 0.04359 0.0
C173 C 0.66641 0.27771 -0.0006 0.0
C174 C 0.66773 0.25473 0.95989 0.0
C175 C 0.68858 0.2309 0.96355 0.0
C176 C 0.6442 0.30282 -0.00598 0.0
C177 C 0.64914 0.33086 0.01509 0.0
C178 C 0.62716 0.35618 0.00966 0.0
C179 C 0.63828 0.38603 0.01298 0.0
C180 C 0.61821 0.41048 0.00925 0.0
C181 C 0.58646 0.40558 0.00285 0.0
H182 H 0.58583 0.3286 0.00218 0.0
C183 C 0.57529 0.37567 -7e-05 0.0
C184 C 0.59539 0.35123 0.00333 0.0
H185 H 0.55095 0.37107 -0.00465 0.0
H186 H 0.7211 0.25104 0.0816 0.0
H187 H 0.68464 0.29266 0.07558 0.0
H188 H 0.65292 0.25546 0.92573 0.0
H189 H 0.68951 0.21372 0.93213 0.0
H190 H 0.62407 0.29839 0.96952 0.0
H191 H 0.67077 0.336 0.03505 0.0
H192 H 0.66262 0.39047 0.01832 0.0
H193 H 0.62759 0.43321 0.01196 0.0
C194 C 0.13068 0.82693 0.0879 0.0
C195 C 0.16251 0.82163 0.08643 0.0
C196 C 0.11702 0.83928 0.13301 0.0
C197 C 0.13485 0.84641 0.17785 0.0
C198 C 0.16622 0.83923 0.17777 0.0
C199 C 0.18003 0.82714 0.1323 0.0
C200 C 0.12118 0.86213 0.22433 0.0
C201 C 0.10022 0.88419 0.21933 0.0
C202 C 0.08682 0.90154 0.26432 0.0
C203 C 0.07767 0.93155 0.25765 0.0
C204 C 0.06417 0.94842 0.29867 0.0
C205 C 0.05891 0.93535 0.34693 0.0
H206 H 0.08791 0.86512 0.31864 0.0
C207 C 0.0678 0.90517 0.35348 0.0
C208 C 0.08177 0.88844 0.31265 0.0
H209 H 0.06401 0.89445 0.39021 0.0
H210 H 0.11634 0.82203 0.05378 0.0
H211 H 0.09253 0.84355 0.13255 0.0
H212 H 0.18032 0.84422 0.21216 0.0
H213 H 0.20459 0.82331 0.13247 0.0
H214 H 0.13023 0.85718 0.26273 0.0
H215 H 0.09386 0.89112 0.18042 0.0
H216 H 0.08111 0.94204 0.2206 0.0
H217 H 0.05741 0.97154 0.29226 0.0
C218 C 0.68242 0.64747 0.63461 0.0
C219 C 0.66973 0.65133 0.58469 0.0
C220 C 0.66498 0.63455 0.67367 0.0
C221 C 0.6345 0.6251 0.66335 0.0
C222 C 0.62162 0.63 0.614 0.0
C223 C 0.63899 0.64289 0.57513 0.0
C224 C 0.61514 0.6103 0.70256 0.0
C225 C 0.62654 0.59602 0.74397 0.0
C226 C 0.60724 0.57966 0.78151 0.0
C227 C 0.62168 0.55958 0.81493 0.0
C228 C 0.60467 0.54381 0.85106 0.0
C229 C 0.57272 0.5477 0.85457 0.0
H230 H 0.56306 0.59965 0.76193 0.0
C231 C 0.55818 0.56777 0.82124 0.0
C232 C 0.57522 0.58378 0.78545 0.0
H233 H 0.53366 0.57164 0.82348 0.0
H234 H 0.70601 0.65389 0.64318 0.0
H235 H 0.67551 0.63218 0.71169 0.0
H236 H 0.59809 0.62343 0.60513 0.0
H237 H 0.62829 0.64624 0.53745 0.0
H238 H 0.59066 0.6096 0.69454 0.0
H239 H 0.65123 0.59476 0.74946 0.0
H240 H 0.64627 0.55603 0.81311 0.0
H241 H 0.61663 0.52857 0.87626 0.0
C242 C 0.87152 0.16336 0.11419 0.0
C243 C 0.83946 0.16341 0.10765 0.0
C244 C 0.88497 0.15089 0.15798 0.0
C245 C 0.86659 0.13842 0.19678 0.0
C246 C 0.83448 0.13947 0.19104 0.0
C247 C 0.82102 0.15192 0.14705 0.0
C248 C 0.87989 0.12193 0.24117 0.0
C249 C 0.90959 0.12397 0.25627 0.0
C250 C 0.92366 0.10429 0.29546 0.0
C251 C 0.95524 0.09829 0.29219 0.0
C252 C 0.9694 0.07911 0.32696 0.0
C253 C 0.95232 0.06573 0.36632 0.0
H254 H 0.88241 0.09615 0.34025 0.0
C255 C 0.9208 0.07226 0.37039 0.0
C256 C 0.9066 0.09136 0.33539 0.0
H257 H 0.90702 0.0626 0.40061 0.0
H258 H 0.88632 0.17233 0.08468 0.0
H259 H 0.90974 0.15011 0.15965 0.0
H260 H 0.81973 0.12991 0.22005 0.0
H261 H 0.79624 0.1514 0.14288 0.0
H262 H 0.86468 0.10647 0.26039 0.0
H263 H 0.92497 0.13933 0.23735 0.0
H264 H 0.96897 0.10811 0.26204 0.0
H265 H 0.99376 0.07481 0.32292 0.0
C266 C 0.33247 0.33899 0.6249 0.0
C267 C 0.3211 0.3563 0.58427 0.0
C268 C 0.34561 0.35319 0.6696 0.0
C269 C 0.34758 0.385 0.67435 0.0
C270 C 0.33446 0.40219 0.63512 0.0
C271 C 0.32152 0.38803 0.59042 0.0
C272 C 0.36394 0.40121 0.71834 0.0
C273 C 0.38722 0.38897 0.74518 0.0
C274 C 0.406 0.40648 0.78459 0.0
C275 C 0.4207 0.39105 0.82448 0.0
C276 C 0.43933 0.40665 0.86131 0.0
C277 C 0.44403 0.43803 0.85854 0.0
H278 H 0.40091 0.45038 0.75017 0.0
C279 C 0.42968 0.45342 0.81808 0.0
C280 C 0.41091 0.43784 0.78146 0.0
H281 H 0.43294 0.47755 0.81458 0.0
H282 H 0.33231 0.31449 0.62123 0.0
H283 H 0.35446 0.33914 0.69986 0.0
H284 H 0.33525 0.42671 0.63811 0.0
H285 H 0.31242 0.40192 0.56005 0.0
H286 H 0.35783 0.42474 0.72638 0.0
H287 H 0.39337 0.36541 0.7377 0.0
H288 H 0.41764 0.36684 0.82734 0.0
H289 H 0.45014 0.39404 0.89181 0.0
C290 C 0.68455 0.66689 0.35675 0.0
C291 C 0.69681 0.64927 0.39617 0.0
C292 C 0.67422 0.6531 0.30965 0.0
C293 C 0.67627 0.6215 0.30129 0.0
C294 C 0.69083 0.60432 0.33906 0.0
C295 C 0.7007 0.61803 0.3864 0.0
C296 C 0.66143 0.60552 0.2557 0.0
C297 C 0.63386 0.61412 0.23735 0.0
C298 C 0.61549 0.59536 0.19914 0.0
C299 C 0.58334 0.59725 0.20096 0.0
C300 C 0.5651 0.57911 0.16717 0.0
C301 C 0.57865 0.55897 0.13021 0.0
H302 H 0.65386 0.57409 0.15825 0.0
C303 C 0.61089 0.55757 0.12757 0.0
C304 C 0.62914 0.57556 0.16169 0.0
H305 H 0.62209 0.54251 0.09921 0.0
H306 H 0.68135 0.69103 0.36353 0.0
H307 H 0.66379 0.66701 0.28056 0.0
H308 H 0.69293 0.57999 0.33325 0.0
H309 H 0.71027 0.60407 0.41626 0.0
H310 H 0.67124 0.58407 0.24211 0.0
H311 H 0.62279 0.63397 0.25517 0.0
H312 H 0.57226 0.61244 0.22927 0.0
H313 H 0.54036 0.581 0.16995 0.0
C314 C 0.87256 0.16236 0.90758 0.0
C315 C 0.84043 0.16199 0.9125 0.0
C316 C 0.88652 0.14983 0.86283 0.0
C317 C 0.86861 0.13646 0.82205 0.0
C318 C 0.83646 0.13755 0.82572 0.0
C319 C 0.82247 0.15009 0.87061 0.0
C320 C 0.88274 0.12095 0.77562 0.0
C321 C 0.91015 0.1069 0.77786 0.0
C322 C 0.92448 0.0899 0.73301 0.0
C323 C 0.95599 0.08336 0.73576 0.0
C324 C 0.97044 0.06691 0.69517 0.0
C325 C 0.95362 0.05645 0.6509 0.0
H326 H 0.88307 0.08272 0.6857 0.0
C327 C 0.922 0.06271 0.64831 0.0
C328 C 0.90755 0.07914 0.68892 0.0
H329 H 0.90827 0.05478 0.61497 0.0
H330 H 0.88697 0.17213 0.93866 0.0
H331 H 0.91131 0.15066 0.86046 0.0
H332 H 0.82215 0.12776 0.79453 0.0
H333 H 0.79766 0.14944 0.8733 0.0
H334 H 0.86941 0.12017 0.7396 0.0
H335 H 0.92292 0.10757 0.81453 0.0
H336 H 0.96957 0.09111 0.76942 0.0
H337 H 0.99481 0.06247 0.69855 0.0
C338 C 0.328 0.38179 0.38326 0.0
C339 C 0.32612 0.35042 0.38959 0.0
C340 C 0.34312 0.39317 0.3404 0.0
C341 C 0.35686 0.37339 0.30301 0.0
C342 C 0.35336 0.34204 0.30761 0.0
C343 C 0.33824 0.33061 0.35065 0.0
C344 C 0.37525 0.38483 0.25938 0.0
C345 C 0.3917 0.4107 0.26426 0.0
C346 C 0.41114 0.42283 0.22241 0.0
C347 C 0.42041 0.45328 0.2272 0.0
C348 C 0.43877 0.46585 0.18918 0.0
C349 C 0.44847 0.44817 0.14548 0.0
H350 H 0.41558 0.38118 0.17448 0.0
C351 C 0.43966 0.41753 0.14105 0.0
C352 C 0.42128 0.40495 0.17911 0.0
H353 H 0.44692 0.40318 0.10808 0.0
H354 H 0.31813 0.39759 0.41194 0.0
H355 H 0.34411 0.41747 0.3369 0.0
H356 H 0.36337 0.32634 0.2789 0.0
H357 H 0.33716 0.30633 0.35451 0.0
H358 H 0.37602 0.37085 0.22356 0.0
H359 H 0.39101 0.42396 0.30096 0.0
H360 H 0.4132 0.46754 0.26034 0.0
H361 H 0.44517 0.4895 0.19397 0.0
C362 C 0.13792 0.83177 0.88363 0.0
C363 C 0.16966 0.83046 0.89331 0.0
C364 C 0.12653 0.84677 0.84077 0.0
C365 C 0.14669 0.86079 0.80648 0.0
C366 C 0.17848 0.8591 0.81572 0.0
C367 C 0.18992 0.84379 0.85851 0.0
C368 C 0.13496 0.87912 0.76339 0.0
C369 C 0.10786 0.87332 0.7393 0.0
C370 C 0.09417 0.89317 0.70013 0.0
C371 C 0.07357 0.88054 0.66283 0.0
C372 C 0.05871 0.89881 0.62738 0.0
C373 C 0.06373 0.93027 0.6291 0.0
H374 H 0.11451 0.93526 0.7309 0.0
C375 C 0.08431 0.94297 0.66656 0.0
C376 C 0.09945 0.92461 0.70168 0.0
H377 H 0.08864 0.96713 0.66898 0.0
H378 H 0.12182 0.82161 0.90987 0.0
H379 H 0.10187 0.84828 0.83587 0.0
H380 H 0.19446 0.86995 0.79015 0.0
H381 H 0.21448 0.84331 0.86545 0.0
H382 H 0.14917 0.89772 0.75109 0.0
H383 H 0.09522 0.85293 0.74793 0.0
H384 H 0.06885 0.85643 0.66123 0.0
H385 H 0.0429 0.88828 0.59917 0.0
loop_
_geom_bond_atom_site_label_1
_geom_bond_atom_site_label_2
_geom_bond_distance
_geom_bond_site_symmetry_2
_ccdc_geom_bond_type
H0 C7 0.929 . S
H1 C10 0.930 . S
H2 C12 0.929 . S
H3 C4 0.969 . S
C4 H3 0.969 . S
C4 O5 1.550 1_554 S
C4 H6 0.973 . S
O5 C4 1.550 1_556 S
O5 C11 1.412 . S
H6 C4 0.973 . S
C7 H0 0.929 . S
C7 C8 1.400 1_554 S
C7 C9 1.364 . S
C8 C7 1.400 1_556 S
C8 C12 1.377 . S
C9 C7 1.364 . S
C9 C10 1.374 . S
C10 H1 0.930 . S
C10 C9 1.374 . S
C10 C11 1.383 1_554 S
C11 O5 1.412 . S
C11 C10 1.383 1_556 S
C11 C12 1.394 . S
C12 H2 0.929 . S
C12 C8 1.377 . S
C12 C11 1.394 . S
H13 C20 0.929 . S
H14 C23 0.930 . S
H15 C25 0.929 . S
H16 C17 0.969 . S
C17 H16 0.969 . S
C17 O18 1.550 . S
C17 H19 0.973 . S
O18 C17 1.550 . S
O18 C24 1.412 . S
H19 C17 0.973 . S
C20 H13 0.929 . S
C20 C21 1.400 . S
C20 C22 1.364 . S
C21 C20 1.400 . S
C21 C25 1.377 . S
C22 C20 1.364 . S
C22 C23 1.374 . S
C23 H14 0.930 . S
C23 C22 1.374 . S
C23 C24 1.383 . S
C24 O18 1.412 . S
C24 C23 1.383 . S
C24 C25 1.394 . S
C25 H15 0.929 . S
C25 C21 1.377 . S
C25 C24 1.394 . S
H26 C33 0.929 . S
H27 C36 0.930 . S
H28 C38 0.929 . S
H29 C30 0.969 . S
C30 H29 0.969 . S
C30 O31 1.550 1_556 S
C30 H32 0.973 . S
O31 C30 1.550 1_554 S
O31 C37 1.412 . S
H32 C30 0.973 . S
C33 H26 0.929 . S
C33 C34 1.400 . S
C33 C35 1.364 1_554 S
C34 C33 1.400 . S
C34 C38 1.377 . S
C35 C33 1.364 1_556 S
C35 C36 1.374 . S
C36 H27 0.930 . S
C36 C35 1.374 . S
C36 C37 1.383 1_556 S
C37 O31 1.412 . S
C37 C36 1.383 1_554 S
C37 C38 1.394 . S
C38 H28 0.929 . S
C38 C34 1.377 . S
C38 C37 1.394 . S
H39 C46 0.929 . S
H40 C49 0.930 . S
H41 C51 0.929 . S
H42 C43 0.969 . S
C43 H42 0.969 . S
C43 O44 1.550 . S
C43 H45 0.973 . S
O44 C43 1.550 . S
O44 C50 1.412 . S
H45 C43 0.973 . S
C46 H39 0.929 . S
C46 C47 1.400 . S
C46 C48 1.364 . S
C47 C46 1.400 . S
C47 C51 1.377 . S
C48 C46 1.364 . S
C48 C49 1.374 . S
C49 H40 0.930 . S
C49 C48 1.374 . S
C49 C50 1.383 . S
C50 O44 1.412 . S
C50 C49 1.383 . S
C50 C51 1.394 . S
C51 H41 0.929 . S
C51 C47 1.377 . S
C51 C50 1.394 . S
O52 Zn53 1.953 1_565 S
O52 C68 1.225 . S
Zn53 O52 1.953 1_545 S
Zn53 O54 1.952 1_655 S
Zn53 O60 1.919 . S
Zn53 O65 1.924 . S
O54 Zn53 1.952 1_455 S
O54 Zn55 1.929 . S
O54 Zn56 1.930 1_545 S
O54 Zn57 1.956 . S
Zn55 O54 1.929 . S
Zn55 O58 1.933 . S
Zn55 O61 1.941 . S
Zn55 O62 1.965 1_545 S
Zn56 O54 1.930 1_565 S
Zn56 O63 1.938 . S
Zn56 O64 1.906 . S
Zn56 O74 1.953 1_455 S
Zn57 O54 1.956 . S
Zn57 O59 1.932 . S
Zn57 O66 1.977 1_545 S
Zn57 O67 1.910 1_455 S
O58 Zn55 1.933 . S
O58 C69 1.226 . S
O59 Zn57 1.932 . S
O59 C69 1.307 . S
O60 Zn53 1.919 . S
O60 C71 1.253 . S
O61 Zn55 1.941 . S
O61 C71 1.283 1_455 S
O62 Zn55 1.965 1_565 S
O62 C70 1.303 . S
O63 Zn56 1.938 . S
O63 C70 1.247 . S
O64 Zn56 1.906 . S
O64 C72 1.304 . S
O65 Zn53 1.924 . S
O65 C73 1.311 . S
O66 Zn57 1.977 1_565 S
O66 C72 1.272 . S
O67 Zn57 1.910 1_655 S
O67 C73 1.231 . S
C68 O52 1.225 . S
C68 O74 1.298 . S
C69 O58 1.226 . S
C69 O59 1.307 . S
C70 O62 1.303 . S
C70 O63 1.247 . S
C71 O60 1.253 . S
C71 O61 1.283 1_655 S
C72 O64 1.304 . S
C72 O66 1.272 . S
C73 O65 1.311 . S
C73 O67 1.231 . S
O74 Zn56 1.953 1_655 S
O74 C68 1.298 . S
O75 Zn76 1.953 . S
O75 C91 1.225 1_556 S
Zn76 O75 1.953 . S
Zn76 O77 1.949 1_556 S
Zn76 O83 1.919 . S
Zn76 O88 1.924 1_556 S
O77 Zn76 1.949 1_554 S
O77 Zn78 1.923 1_554 S
O77 Zn79 1.950 . S
O77 Zn80 1.945 . S
Zn78 O77 1.923 1_556 S
Zn78 O81 1.933 . S
Zn78 O84 1.941 . S
Zn78 O85 1.965 . S
Zn79 O77 1.950 . S
Zn79 O86 1.938 1_554 S
Zn79 O87 1.906 . S
Zn79 O97 1.953 . S
Zn80 O77 1.945 . S
Zn80 O82 1.932 . S
Zn80 O89 1.977 . S
Zn80 O90 1.910 . S
O81 Zn78 1.933 . S
O81 C92 1.226 1_556 S
O82 Zn80 1.932 . S
O82 C92 1.307 . S
O83 Zn76 1.919 . S
O83 C94 1.253 . S
O84 Zn78 1.941 . S
O84 C94 1.283 . S
O85 Zn78 1.965 . S
O85 C93 1.303 . S
O86 Zn79 1.938 1_556 S
O86 C93 1.247 . S
O87 Zn79 1.906 . S
O87 C95 1.304 . S
O88 Zn76 1.924 1_554 S
O88 C96 1.311 . S
O89 Zn80 1.977 . S
O89 C95 1.272 . S
O90 Zn80 1.910 . S
O90 C96 1.231 . S
C91 O75 1.225 1_554 S
C91 O97 1.298 . S
C92 O81 1.226 1_554 S
C92 O82 1.307 . S
C93 O85 1.303 . S
C93 O86 1.247 . S
C94 O83 1.253 . S
C94 O84 1.283 . S
C95 O87 1.304 . S
C95 O89 1.272 . S
C96 O88 1.311 . S
C96 O90 1.231 . S
O97 Zn79 1.953 . S
O97 C91 1.298 . S
C98 C99 1.386 . S
C98 C100 1.383 . S
C98 H114 0.951 . S
C99 C98 1.386 . S
C99 C103 1.383 . S
C100 C98 1.383 . S
C100 C101 1.402 . S
C100 H115 0.951 . S
C101 C100 1.402 . S
C101 C102 1.375 . S
C101 C104 1.481 . S
C102 C101 1.375 . S
C102 C103 1.367 . S
C102 H116 0.951 . S
C103 C99 1.383 . S
C103 C102 1.367 . S
C103 H117 0.950 . S
C104 C101 1.481 . S
C104 C105 1.297 . S
C104 H118 0.950 . S
C105 C104 1.297 . S
C105 C106 1.479 . S
C105 H119 0.950 . S
C106 C105 1.479 . S
C106 C107 1.375 . S
C106 C112 1.404 . S
C107 C106 1.375 . S
C107 C108 1.369 . S
C107 H120 0.950 . S
C108 C107 1.369 . S
C108 C109 1.392 . S
C108 H121 0.951 . S
C109 C108 1.392 . S
C109 C111 1.384 . S
H110 C112 0.949 . S
C111 C109 1.384 . S
C111 C112 1.385 . S
C111 H113 0.950 . S
C112 C106 1.404 . S
C112 H110 0.949 . S
C112 C111 1.385 . S
H113 C111 0.950 . S
H114 C98 0.951 . S
H115 C100 0.951 . S
H116 C102 0.951 . S
H117 C103 0.950 . S
H118 C104 0.950 . S
H119 C105 0.950 . S
H120 C107 0.950 . S
H121 C108 0.951 . S
C122 C123 1.386 . S
C122 C124 1.383 . S
C122 H138 0.951 . S
C123 C122 1.386 . S
C123 C127 1.383 1_554 S
C124 C122 1.383 . S
C124 C125 1.402 1_554 S
C124 H139 0.951 . S
C125 C124 1.402 1_556 S
C125 C126 1.375 . S
C125 C128 1.481 . S
C126 C125 1.375 . S
C126 C127 1.367 . S
C126 H140 0.951 . S
C127 C123 1.383 1_556 S
C127 C126 1.367 . S
C127 H141 0.950 . S
C128 C125 1.481 . S
C128 C129 1.297 1_556 S
C128 H142 0.950 . S
C129 C128 1.297 1_554 S
C129 C130 1.479 . S
C129 H143 0.950 . S
C130 C129 1.479 . S
C130 C131 1.375 . S
C130 C136 1.404 1_554 S
C131 C130 1.375 . S
C131 C132 1.369 . S
C131 H144 0.950 . S
C132 C131 1.369 . S
C132 C133 1.392 . S
C132 H145 0.951 . S
C133 C132 1.392 . S
C133 C135 1.384 1_554 S
H134 C136 0.949 . S
C135 C133 1.384 1_556 S
C135 C136 1.385 . S
C135 H137 0.950 . S
C136 C130 1.404 1_556 S
C136 H134 0.949 . S
C136 C135 1.385 . S
H137 C135 0.950 . S
H138 C122 0.951 . S
H139 C124 0.951 . S
H140 C126 0.951 . S
H141 C127 0.950 . S
H142 C128 0.950 . S
H143 C129 0.950 . S
H144 C131 0.950 . S
H145 C132 0.951 . S
C146 C147 1.386 . S
C146 C148 1.383 . S
C146 H162 0.951 . S
C147 C146 1.386 . S
C147 C151 1.383 . S
C148 C146 1.383 . S
C148 C149 1.402 . S
C148 H163 0.951 . S
C149 C148 1.402 . S
C149 C150 1.375 . S
C149 C152 1.481 . S
C150 C149 1.375 . S
C150 C151 1.367 . S
C150 H164 0.951 . S
C151 C147 1.383 . S
C151 C150 1.367 . S
C151 H165 0.950 . S
C152 C149 1.481 . S
C152 C153 1.297 . S
C152 H166 0.950 . S
C153 C152 1.297 . S
C153 C154 1.479 . S
C153 H167 0.950 . S
C154 C153 1.479 . S
C154 C155 1.375 . S
C154 C160 1.404 . S
C155 C154 1.375 . S
C155 C156 1.369 . S
C155 H168 0.950 . S
C156 C155 1.369 . S
C156 C157 1.392 . S
C156 H169 0.951 . S
C157 C156 1.392 . S
C157 C159 1.384 . S
H158 C160 0.949 . S
C159 C157 1.384 . S
C159 C160 1.385 . S
C159 H161 0.950 . S
C160 C154 1.404 . S
C160 H158 0.949 . S
C160 C159 1.385 . S
H161 C159 0.950 . S
H162 C146 0.951 . S
H163 C148 0.951 . S
H164 C150 0.951 . S
H165 C151 0.950 . S
H166 C152 0.950 . S
H167 C153 0.950 . S
H168 C155 0.950 . S
H169 C156 0.951 . S
C170 C171 1.386 1_554 S
C170 C172 1.383 . S
C170 H186 0.951 . S
C171 C170 1.386 1_556 S
C171 C175 1.383 . S
C172 C170 1.383 . S
C172 C173 1.402 1_554 S
C172 H187 0.951 . S
C173 C172 1.402 1_556 S
C173 C174 1.375 . S
C173 C176 1.481 . S
C174 C173 1.375 . S
C174 C175 1.367 . S
C174 H188 0.951 . S
C175 C171 1.383 . S
C175 C174 1.367 . S
C175 H189 0.950 . S
C176 C173 1.481 . S
C176 C177 1.297 . S
C176 H190 0.950 . S
C177 C176 1.297 . S
C177 C178 1.479 . S
C177 H191 0.950 1_556 S
C178 C177 1.479 . S
C178 C179 1.375 1_556 S
C178 C184 1.404 . S
C179 C178 1.375 1_554 S
C179 C180 1.369 . S
C179 H192 0.950 . S
C180 C179 1.369 . S
C180 C181 1.392 1_554 S
C180 H193 0.951 . S
C181 C180 1.392 1_556 S
C181 C183 1.384 . S
H182 C184 0.949 . S
C183 C181 1.384 . S
C183 C184 1.385 . S
C183 H185 0.950 . S
C184 C178 1.404 . S
C184 H182 0.949 . S
C184 C183 1.385 . S
H185 C183 0.950 . S
H186 C170 0.951 . S
H187 C172 0.951 . S
H188 C174 0.951 . S
H189 C175 0.950 . S
H190 C176 0.950 . S
H191 C177 0.950 1_554 S
H192 C179 0.950 . S
H193 C180 0.951 . S
C194 C195 1.386 . S
C194 C196 1.383 . S
C194 H210 0.951 . S
C195 C194 1.386 . S
C195 C199 1.383 . S
C196 C194 1.383 . S
C196 C197 1.402 . S
C196 H211 0.951 . S
C197 C196 1.402 . S
C197 C198 1.375 . S
C197 C200 1.481 . S
C198 C197 1.375 . S
C198 C199 1.367 . S
C198 H212 0.951 . S
C199 C195 1.383 . S
C199 C198 1.367 . S
C199 H213 0.950 . S
C200 C197 1.481 . S
C200 C201 1.297 . S
C200 H214 0.950 . S
C201 C200 1.297 . S
C201 C202 1.479 . S
C201 H215 0.950 . S
C202 C201 1.479 . S
C202 C203 1.375 . S
C202 C208 1.404 . S
C203 C202 1.375 . S
C203 C204 1.369 . S
C203 H216 0.950 . S
C204 C203 1.369 . S
C204 C205 1.392 . S
C204 H217 0.951 . S
C205 C204 1.392 . S
C205 C207 1.384 . S
H206 C208 0.949 . S
C207 C205 1.384 . S
C207 C208 1.385 . S
C207 H209 0.950 . S
C208 C202 1.404 . S
C208 H206 0.949 . S
C208 C207 1.385 . S
H209 C207 0.950 . S
H210 C194 0.951 . S
H211 C196 0.951 . S
H212 C198 0.951 . S
H213 C199 0.950 . S
H214 C200 0.950 . S
H215 C201 0.950 . S
H216 C203 0.950 . S
H217 C204 0.951 . S
C218 C219 1.386 . S
C218 C220 1.383 . S
C218 H234 0.951 . S
C219 C218 1.386 . S
C219 C223 1.383 . S
C220 C218 1.383 . S
C220 C221 1.402 . S
C220 H235 0.951 . S
C221 C220 1.402 . S
C221 C222 1.375 . S
C221 C224 1.481 . S
C222 C221 1.375 . S
C222 C223 1.367 . S
C222 H236 0.951 . S
C223 C219 1.383 . S
C223 C222 1.367 . S
C223 H237 0.950 . S
C224 C221 1.481 . S
C224 C225 1.297 . S
C224 H238 0.950 . S
C225 C224 1.297 . S
C225 C226 1.479 . S
C225 H239 0.950 . S
C226 C225 1.479 . S
C226 C227 1.375 . S
C226 C232 1.404 . S
C227 C226 1.375 . S
C227 C228 1.369 . S
C227 H240 0.950 . S
C228 C227 1.369 . S
C228 C229 1.392 . S
C228 H241 0.951 . S
C229 C228 1.392 . S
C229 C231 1.384 . S
H230 C232 0.949 . S
C231 C229 1.384 . S
C231 C232 1.385 . S
C231 H233 0.950 . S
C232 C226 1.404 . S
C232 H230 0.949 . S
C232 C231 1.385 . S
H233 C231 0.950 . S
H234 C218 0.951 . S
H235 C220 0.951 . S
H236 C222 0.951 . S
H237 C223 0.950 . S
H238 C224 0.950 . S
H239 C225 0.950 . S
H240 C227 0.950 . S
H241 C228 0.951 . S
C242 C243 1.386 . S
C242 C244 1.383 . S
C242 H258 0.951 . S
C243 C242 1.386 . S
C243 C247 1.383 . S
C244 C242 1.383 . S
C244 C245 1.402 . S
C244 H259 0.951 . S
C245 C244 1.402 . S
C245 C246 1.375 . S
C245 C248 1.481 . S
C246 C245 1.375 . S
C246 C247 1.367 . S
C246 H260 0.951 . S
C247 C243 1.383 . S
C247 C246 1.367 . S
C247 H261 0.950 . S
C248 C245 1.481 . S
C248 C249 1.297 . S
C248 H262 0.950 . S
C249 C248 1.297 . S
C249 C250 1.479 . S
C249 H263 0.950 . S
C250 C249 1.479 . S
C250 C251 1.375 . S
C250 C256 1.404 . S
C251 C250 1.375 . S
C251 C252 1.369 . S
C251 H264 0.950 . S
C252 C251 1.369 . S
C252 C253 1.392 . S
C252 H265 0.951 . S
C253 C252 1.392 . S
C253 C255 1.384 . S
H254 C256 0.949 . S
C255 C253 1.384 . S
C255 C256 1.385 . S
C255 H257 0.950 . S
C256 C250 1.404 . S
C256 H254 0.949 . S
C256 C255 1.385 . S
H257 C255 0.950 . S
H258 C242 0.951 . S
H259 C244 0.951 . S
H260 C246 0.951 . S
H261 C247 0.950 . S
H262 C248 0.950 . S
H263 C249 0.950 . S
H264 C251 0.950 . S
H265 C252 0.951 . S
C266 C267 1.386 . S
C266 C268 1.383 . S
C266 H282 0.951 . S
C267 C266 1.386 . S
C267 C271 1.383 . S
C268 C266 1.383 . S
C268 C269 1.402 . S
C268 H283 0.951 . S
C269 C268 1.402 . S
C269 C270 1.375 . S
C269 C272 1.481 . S
C270 C269 1.375 . S
C270 C271 1.367 . S
C270 H284 0.951 . S
C271 C267 1.383 . S
C271 C270 1.367 . S
C271 H285 0.950 . S
C272 C269 1.481 . S
C272 C273 1.297 . S
C272 H286 0.950 . S
C273 C272 1.297 . S
C273 C274 1.479 . S
C273 H287 0.950 . S
C274 C273 1.479 . S
C274 C275 1.375 . S
C274 C280 1.404 . S
C275 C274 1.375 . S
C275 C276 1.369 . S
C275 H288 0.950 . S
C276 C275 1.369 . S
C276 C277 1.392 . S
C276 H289 0.951 . S
C277 C276 1.392 . S
C277 C279 1.384 . S
H278 C280 0.949 . S
C279 C277 1.384 . S
C279 C280 1.385 . S
C279 H281 0.950 . S
C280 C274 1.404 . S
C280 H278 0.949 . S
C280 C279 1.385 . S
H281 C279 0.950 . S
H282 C266 0.951 . S
H283 C268 0.951 . S
H284 C270 0.951 . S
H285 C271 0.950 . S
H286 C272 0.950 . S
H287 C273 0.950 . S
H288 C275 0.950 . S
H289 C276 0.951 . S
C290 C291 1.386 . S
C290 C292 1.383 . S
C290 H306 0.951 . S
C291 C290 1.386 . S
C291 C295 1.383 . S
C292 C290 1.383 . S
C292 C293 1.402 . S
C292 H307 0.951 . S
C293 C292 1.402 . S
C293 C294 1.375 . S
C293 C296 1.481 . S
C294 C293 1.375 . S
C294 C295 1.367 . S
C294 H308 0.951 . S
C295 C291 1.383 . S
C295 C294 1.367 . S
C295 H309 0.950 . S
C296 C293 1.481 . S
C296 C297 1.297 . S
C296 H310 0.950 . S
C297 C296 1.297 . S
C297 C298 1.479 . S
C297 H311 0.950 . S
C298 C297 1.479 . S
C298 C299 1.375 . S
C298 C304 1.404 . S
C299 C298 1.375 . S
C299 C300 1.369 . S
C299 H312 0.950 . S
C300 C299 1.369 . S
C300 C301 1.392 . S
C300 H313 0.951 . S
C301 C300 1.392 . S
C301 C303 1.384 . S
H302 C304 0.949 . S
C303 C301 1.384 . S
C303 C304 1.385 . S
C303 H305 0.950 . S
C304 C298 1.404 . S
C304 H302 0.949 . S
C304 C303 1.385 . S
H305 C303 0.950 . S
H306 C290 0.951 . S
H307 C292 0.951 . S
H308 C294 0.951 . S
H309 C295 0.950 . S
H310 C296 0.950 . S
H311 C297 0.950 . S
H312 C299 0.950 . S
H313 C300 0.951 . S
C314 C315 1.386 . S
C314 C316 1.383 . S
C314 H330 0.951 . S
C315 C314 1.386 . S
C315 C319 1.383 . S
C316 C314 1.383 . S
C316 C317 1.402 . S
C316 H331 0.951 . S
C317 C316 1.402 . S
C317 C318 1.375 . S
C317 C320 1.481 . S
C318 C317 1.375 . S
C318 C319 1.367 . S
C318 H332 0.951 . S
C319 C315 1.383 . S
C319 C318 1.367 . S
C319 H333 0.950 . S
C320 C317 1.481 . S
C320 C321 1.297 . S
C320 H334 0.950 . S
C321 C320 1.297 . S
C321 C322 1.479 . S
C321 H335 0.950 . S
C322 C321 1.479 . S
C322 C323 1.375 . S
C322 C328 1.404 . S
C323 C322 1.375 . S
C323 C324 1.369 . S
C323 H336 0.950 . S
C324 C323 1.369 . S
C324 C325 1.392 . S
C324 H337 0.951 . S
C325 C324 1.392 . S
C325 C327 1.384 . S
H326 C328 0.949 . S
C327 C325 1.384 . S
C327 C328 1.385 . S
C327 H329 0.950 . S
C328 C322 1.404 . S
C328 H326 0.949 . S
C328 C327 1.385 . S
H329 C327 0.950 . S
H330 C314 0.951 . S
H331 C316 0.951 . S
H332 C318 0.951 . S
H333 C319 0.950 . S
H334 C320 0.950 . S
H335 C321 0.950 . S
H336 C323 0.950 . S
H337 C324 0.951 . S
C338 C339 1.386 . S
C338 C340 1.383 . S
C338 H354 0.951 . S
C339 C338 1.386 . S
C339 C343 1.383 . S
C340 C338 1.383 . S
C340 C341 1.402 . S
C340 H355 0.951 . S
C341 C340 1.402 . S
C341 C342 1.375 . S
C341 C344 1.481 . S
C342 C341 1.375 . S
C342 C343 1.367 . S
C342 H356 0.951 . S
C343 C339 1.383 . S
C343 C342 1.367 . S
C343 H357 0.950 . S
C344 C341 1.481 . S
C344 C345 1.297 . S
C344 H358 0.950 . S
C345 C344 1.297 . S
C345 C346 1.479 . S
C345 H359 0.950 . S
C346 C345 1.479 . S
C346 C347 1.375 . S
C346 C352 1.404 . S
C347 C346 1.375 . S
C347 C348 1.369 . S
C347 H360 0.950 . S
C348 C347 1.369 . S
C348 C349 1.392 . S
C348 H361 0.951 . S
C349 C348 1.392 . S
C349 C351 1.384 . S
H350 C352 0.949 . S
C351 C349 1.384 . S
C351 C352 1.385 . S
C351 H353 0.950 . S
C352 C346 1.404 . S
C352 H350 0.949 . S
C352 C351 1.385 . S
H353 C351 0.950 . S
H354 C338 0.951 . S
H355 C340 0.951 . S
H356 C342 0.951 . S
H357 C343 0.950 . S
H358 C344 0.950 . S
H359 C345 0.950 . S
H360 C347 0.950 . S
H361 C348 0.951 . S
C362 C363 1.386 . S
C362 C364 1.383 . S
C362 H378 0.951 . S
C363 C362 1.386 . S
C363 C367 1.383 . S
C364 C362 1.383 . S
C364 C365 1.402 . S
C364 H379 0.951 . S
C365 C364 1.402 . S
C365 C366 1.375 . S
C365 C368 1.481 . S
C366 C365 1.375 . S
C366 C367 1.367 . S
C366 H380 0.951 . S
C367 C363 1.383 . S
C367 C366 1.367 . S
C367 H381 0.950 . S
C368 C365 1.481 . S
C368 C369 1.297 . S
C368 H382 0.950 . S
C369 C368 1.297 . S
C369 C370 1.479 . S
C369 H383 0.950 . S
C370 C369 1.479 . S
C370 C371 1.375 . S
C370 C376 1.404 . S
C371 C370 1.375 . S
C371 C372 1.369 . S
C371 H384 0.950 . S
C372 C371 1.369 . S
C372 C373 1.392 . S
C372 H385 0.951 . S
C373 C372 1.392 . S
C373 C375 1.384 . S
H374 C376 0.949 . S
C375 C373 1.384 . S
C375 C376 1.385 . S
C375 H377 0.950 . S
C376 C370 1.404 . S
C376 H374 0.949 . S
C376 C375 1.385 . S
H377 C375 0.950 . S
H378 C362 0.951 . S
H379 C364 0.951 . S
H380 C366 0.951 . S
H381 C367 0.950 . S
H382 C368 0.950 . S
H383 C369 0.950 . S
H384 C371 0.950 . S
H385 C372 0.951 . S
C109 C69 1.476 . S
C99 C43 1.441 . S
C123 C4 1.454 . S
C133 C92 1.466 . S
C147 C17 1.495 . S
C157 C68 1.508 . S
C171 C30 1.445 . S
C181 C91 1.507 1_556 S
C205 C72 1.375 . S
C195 C9 1.454 . S
C229 C94 1.499 . S
C219 C21 1.495 . S
C243 C34 1.473 . S
C253 C73 1.387 . S
C267 C48 1.474 . S
C277 C93 1.498 . S
C301 C96 1.420 . S
C291 C22 1.446 . S
C325 C71 1.407 . S
C315 C35 1.516 . S
C349 C95 1.365 . S
C339 C47 1.467 . S
C363 C8 1.498 . S
C373 C70 1.455 . S
