# Generated by pormake.
# Topology pyr, (3,6)-cn, num edge types: 1
# Building blocks:
#     Node 0, Type 0, BuildingBlock: CUQRIR_clean_linker_1, # of connection points: 3
#     Node 1, Type 0, BuildingBlock: CUQRIR_clean_linker_1, # of connection points: 3
#     Node 2, Type 0, BuildingBlock: CUQRIR_clean_linker_1, # of connection points: 3
#     Node 3, Type 0, BuildingBlock: CUQRIR_clean_linker_1, # of connection points: 3
#     Node 4, Type 0, BuildingBlock: CUQRIR_clean_linker_1, # of connection points: 3
#     Node 5, Type 0, BuildingBlock: CUQRIR_clean_linker_1, # of connection points: 3
#     Node 6, Type 0, BuildingBlock: CUQRIR_clean_linker_1, # of connection points: 3
#     Node 7, Type 0, BuildingBlock: CUQRIR_clean_linker_1, # of connection points: 3
#     Node 8, Type 1, BuildingBlock: FUNLAD_clean_sbu_0, # of connection points: 6
#     Node 9, Type 1, BuildingBlock: FUNLAD_clean_sbu_0, # of connection points: 6
#     Node 10, Type 1, BuildingBlock: FUNLAD_clean_sbu_0, # of connection points: 6
#     Node 11, Type 1, BuildingBlock: FUNLAD_clean_sbu_0, # of connection points: 6
#     Edge 12, Type (0, 1), BuildingBlock: TEMPAE_clean_linker_10, # of connection points: 2
#     Edge 13, Type (0, 1), BuildingBlock: TEMPAE_clean_linker_10, # of connection points: 2
#     Edge 14, Type (0, 1), BuildingBlock: TEMPAE_clean_linker_10, # of connection points: 2
#     Edge 15, Type (0, 1), BuildingBlock: TEMPAE_clean_linker_10, # of connection points: 2
#     Edge 16, Type (0, 1), BuildingBlock: TEMPAE_clean_linker_10, # of connection points: 2
#     Edge 17, Type (0, 1), BuildingBlock: TEMPAE_clean_linker_10, # of connection points: 2
#     Edge 18, Type (0, 1), BuildingBlock: TEMPAE_clean_linker_10, # of connection points: 2
#     Edge 19, Type (0, 1), BuildingBlock: TEMPAE_clean_linker_10, # of connection points: 2
#     Edge 20, Type (0, 1), BuildingBlock: TEMPAE_clean_linker_10, # of connection points: 2
#     Edge 21, Type (0, 1), BuildingBlock: TEMPAE_clean_linker_10, # of connection points: 2
#     Edge 22, Type (0, 1), BuildingBlock: TEMPAE_clean_linker_10, # of connection points: 2
#     Edge 23, Type (0, 1), BuildingBlock: TEMPAE_clean_linker_10, # of connection points: 2
#     Edge 24, Type (0, 1), BuildingBlock: TEMPAE_clean_linker_10, # of connection points: 2
#     Edge 25, Type (0, 1), BuildingBlock: TEMPAE_clean_linker_10, # of connection points: 2
#     Edge 26, Type (0, 1), BuildingBlock: TEMPAE_clean_linker_10, # of connection points: 2
#     Edge 27, Type (0, 1), BuildingBlock: TEMPAE_clean_linker_10, # of connection points: 2
#     Edge 28, Type (0, 1), BuildingBlock: TEMPAE_clean_linker_10, # of connection points: 2
#     Edge 29, Type (0, 1), BuildingBlock: TEMPAE_clean_linker_10, # of connection points: 2
#     Edge 30, Type (0, 1), BuildingBlock: TEMPAE_clean_linker_10, # of connection points: 2
#     Edge 31, Type (0, 1), BuildingBlock: TEMPAE_clean_linker_10, # of connection points: 2
#     Edge 32, Type (0, 1), BuildingBlock: TEMPAE_clean_linker_10, # of connection points: 2
#     Edge 33, Type (0, 1), BuildingBlock: TEMPAE_clean_linker_10, # of connection points: 2
#     Edge 34, Type (0, 1), BuildingBlock: TEMPAE_clean_linker_10, # of connection points: 2
#     Edge 35, Type (0, 1), BuildingBlock: TEMPAE_clean_linker_10, # of connection points: 2
# Relax obj value: 0.187
# Max RMSD: 0.226
# Mean RMSD: 0.154
data_MOF--net-pry--node1-FUNLAD_clean_sbu_0--node2-CUQRIR_clean_linker_1--edge1-TEMPAE_clean_linker_10
_symmetry_space_group_name_H-M    P1
_symmetry_Int_Tables_number       1
_symmetry_cell_setting            triclinic
loop_
_symmetry_equiv_pos_as_xyz
'x, y, z'
_cell_length_a     33.228077
_cell_length_b     35.319919
_cell_length_c     35.158256
_cell_angle_alpha  88.279933
_cell_angle_beta   92.025647
_cell_angle_gamma 87.232814
loop_
_atom_site_label
_atom_site_type_symbol
_atom_site_fract_x
_atom_site_fract_y
_atom_site_fract_z
_atom_type_partial_charge
C0 C 0.16995 0.25812 0.21367 0.0
N1 N 0.19382 0.22673 0.22445 0.0
N2 N 0.18327 0.2756 0.18178 0.0
C3 C 0.13552 0.27377 0.23612 0.0
C4 C 0.21648 0.25382 0.17366 0.0
N5 N 0.22318 0.22439 0.1994 0.0
C6 C 0.24202 0.26081 0.13981 0.0
H7 H 0.10728 0.26097 0.22632 0.0
H8 H 0.13157 0.30499 0.23178 0.0
H9 H 0.14064 0.26694 0.26697 0.0
H10 H 0.26676 0.27913 0.14839 0.0
H11 H 0.22396 0.27536 0.11606 0.0
H12 H 0.25585 0.23404 0.12946 0.0
C13 C 0.38675 0.9055 0.69645 0.0
N14 N 0.38185 0.93521 0.71981 0.0
N15 N 0.41939 0.88288 0.70749 0.0
C16 C 0.36008 0.89915 0.6618 0.0
C17 C 0.43449 0.90023 0.73861 0.0
N18 N 0.41193 0.9324 0.74626 0.0
C19 C 0.46938 0.88384 0.76322 0.0
H20 H 0.37679 0.88328 0.64011 0.0
H21 H 0.34767 0.92628 0.64853 0.0
H22 H 0.33434 0.88245 0.67058 0.0
H23 H 0.4726 0.85261 0.76071 0.0
H24 H 0.4654 0.89057 0.79352 0.0
H25 H 0.49756 0.89617 0.75374 0.0
C26 C 0.60431 0.51066 1.00333 0.0
N27 N 0.63827 0.5007 0.02456 0.0
N28 N 0.61194 0.53489 0.97417 0.0
C29 C 0.5652 0.49099 1.00626 0.0
C30 C 0.65134 0.54164 0.98012 0.0
N31 N 0.66737 0.52069 1.01018 0.0
C32 C 0.67586 0.5631 0.95226 0.0
H33 H 0.56931 0.46151 0.99658 0.0
H34 H 0.54078 0.50605 0.98855 0.0
H35 H 0.55609 0.48974 0.0363 0.0
H36 H 0.70309 0.57402 0.9665 0.0
H37 H 0.65752 0.58718 0.93861 0.0
H38 H 0.68562 0.54374 0.92969 0.0
C39 C 0.91579 0.6212 0.45834 0.0
N40 N 0.9485 0.63899 0.44667 0.0
N41 N 0.90573 0.63224 0.49343 0.0
C42 C 0.89036 0.59697 0.43349 0.0
C43 C 0.93386 0.65725 0.5028 0.0
N44 N 0.95999 0.66144 0.47433 0.0
C45 C 0.93301 0.68072 0.53791 0.0
H46 H 0.86153 0.61282 0.4254 0.0
H47 H 0.88308 0.57079 0.44944 0.0
H48 H 0.90584 0.58875 0.40733 0.0
H49 H 0.96097 0.67444 0.55554 0.0
H50 H 0.90718 0.67454 0.55582 0.0
H51 H 0.93173 0.71133 0.52958 0.0
C52 C 0.88319 0.92247 0.89613 0.0
N53 N 0.91124 0.91423 0.86991 0.0
N54 N 0.86125 0.95481 0.88627 0.0
C55 C 0.87514 0.89696 0.92988 0.0
C56 C 0.87699 0.96618 0.85299 0.0
N57 N 0.90736 0.94165 0.84262 0.0
C58 C 0.86331 1.00213 0.83125 0.0
H59 H 0.8576 0.87297 0.91996 0.0
H60 H 0.85766 0.91196 0.95157 0.0
H61 H 0.90394 0.88499 0.94322 0.0
H62 H 0.84856 0.02276 0.85016 0.0
H63 H 0.84116 0.9953 0.80843 0.0
H64 H 0.88915 1.01532 0.81781 0.0
C65 C 0.72766 0.25187 0.40477 0.0
N66 N 0.73456 0.22058 0.38373 0.0
N67 N 0.69324 0.27161 0.39264 0.0
C68 C 0.75415 0.26272 0.43793 0.0
C69 C 0.67945 0.25111 0.36327 0.0
N70 N 0.70411 0.21989 0.35786 0.0
C71 C 0.64329 0.26318 0.33797 0.0
H72 H 0.77002 0.23755 0.45217 0.0
H73 H 0.73626 0.27814 0.45914 0.0
H74 H 0.77726 0.28165 0.4273 0.0
H75 H 0.64755 0.25414 0.30836 0.0
H76 H 0.63768 0.29441 0.3377 0.0
H77 H 0.61632 0.24972 0.34888 0.0
C78 C 0.42068 0.61745 0.08524 0.0
N79 N 0.45186 0.63805 0.09668 0.0
N80 N 0.41236 0.62321 0.04745 0.0
C81 C 0.39358 0.5973 0.11189 0.0
C82 C 0.44027 0.64761 0.03645 0.0
N83 N 0.46374 0.65749 0.06651 0.0
C84 C 0.44414 0.66189 0.99606 0.0
H85 H 0.40482 0.59709 0.14195 0.0
H86 H 0.39097 0.56759 0.10315 0.0
H87 H 0.3629 0.6113 0.10987 0.0
H88 H 0.42261 0.68639 0.98971 0.0
H89 H 0.43668 0.63931 0.97607 0.0
H90 H 0.47516 0.67095 0.99139 0.0
C91 C 0.10145 0.52463 0.57382 0.0
N92 N 0.13535 0.51135 0.55741 0.0
N93 N 0.1046 0.56126 0.58349 0.0
C94 C 0.06871 0.4999 0.58765 0.0
C95 C 0.1414 0.56978 0.57123 0.0
N96 N 0.16086 0.53913 0.55677 0.0
C97 C 0.15836 0.6084 0.57408 0.0
H98 H 0.03883 0.51259 0.57786 0.0
H99 H 0.06961 0.49864 0.61926 0.0
H100 H 0.07151 0.47055 0.57754 0.0
H101 H 0.1746 0.61088 0.6019 0.0
H102 H 0.13356 0.63066 0.57204 0.0
H103 H 0.17984 0.61319 0.55114 0.0
C104 C 0.10599 0.10132 0.47075 0.0
N105 N 0.07975 0.16024 0.56972 0.0
C106 C 0.11917 0.16927 0.57113 0.0
C107 C 0.12973 0.20667 0.57409 0.0
C108 C 0.09961 0.23583 0.57388 0.0
C109 C 0.05909 0.22585 0.57437 0.0
C110 C 0.04979 0.18762 0.57247 0.0
Zn111 Zn 0.06912 0.10637 0.55196 0.0
C112 C 0.99299 0.10306 0.50361 0.0
N113 N 0.05968 0.99696 0.50683 0.0
C114 C 0.08702 0.97814 0.48551 0.0
C115 C 0.02678 0.97976 0.51942 0.0
C116 C 0.02191 0.9416 0.51337 0.0
C117 C 0.04959 0.92082 0.49167 0.0
C118 C 0.08208 0.94016 0.47685 0.0
Zn119 Zn 0.06774 0.05017 0.52573 0.0
O120 O 0.09943 0.12243 0.49898 0.0
C121 C 0.14241 0.05296 0.57533 0.0
O122 O 0.09573 0.06708 0.47333 0.0
H123 H 1.00468 0.99527 0.53545 0.0
H124 H 0.14293 0.14801 0.56736 0.0
H125 H 0.11301 0.99235 0.47567 0.0
O126 O 0.12515 0.08527 0.58017 0.0
O127 O 0.12613 0.03122 0.55162 0.0
H128 H 0.01859 0.18023 0.57079 0.0
O129 O 0.04101 0.03369 0.57925 0.0
O130 O 0.03865 0.0896 0.60436 0.0
O131 O 1.00852 0.06964 0.49976 0.0
O132 O 1.01208 0.12556 0.52451 0.0
C133 C 0.03206 0.05425 0.60717 0.0
H134 H 0.16139 0.2127 0.57467 0.0
H135 H 0.03471 0.24734 0.57399 0.0
H136 H 0.99697 0.92881 0.52684 0.0
H137 H 0.10386 0.92635 0.45908 0.0
C138 C 0.61582 0.05353 0.02411 0.0
N139 N 0.55317 0.16096 0.0281 0.0
C140 C 0.59221 0.17116 0.02823 0.0
C141 C 0.60154 0.20892 0.03076 0.0
C142 C 0.57065 0.23684 0.03423 0.0
C143 C 0.53044 0.22627 0.03081 0.0
C144 C 0.52231 0.18787 0.02764 0.0
Zn145 Zn 0.54549 0.10559 0.04558 0.0
C146 C 0.50185 0.05622 0.99156 0.0
N147 N 0.53991 0.99437 0.09389 0.0
C148 C 0.57501 0.9757 0.10619 0.0
C149 C 0.5048 0.97624 0.09113 0.0
C150 C 0.50461 0.93727 0.09895 0.0
C151 C 0.541 0.91701 0.10899 0.0
C152 C 0.57633 0.93665 0.1135 0.0
Zn153 Zn 0.54282 0.04842 0.07297 0.0
O154 O 0.60069 0.08707 1.01866 0.0
C155 C 0.58786 0.0973 0.12585 0.0
O156 O 0.5981 0.03118 0.0462 0.0
H157 H 0.47739 0.99162 0.08097 0.0
H158 H 0.61677 0.15006 0.03 0.0
H159 H 0.60254 0.99073 0.10836 0.0
O160 O 0.5789 0.11975 0.0975 0.0
O161 O 0.57678 0.06336 0.12419 0.0
H162 H 0.49145 0.17954 0.02791 0.0
O163 O 0.48666 0.06619 0.09995 0.0
O164 O 0.48968 0.12231 0.07234 0.0
O165 O 0.50978 0.03381 1.02042 0.0
O166 O 0.51209 0.0906 0.99365 0.0
C167 C 0.47155 0.0999 0.09425 0.0
H168 H 0.63295 0.21587 0.03214 0.0
H169 H 0.50562 0.247 0.03308 0.0
H170 H 0.4769 0.92272 0.09477 0.0
H171 H 0.60487 0.92172 0.1211 0.0
C172 C 0.56374 0.50863 0.50525 0.0
N173 N 0.55329 0.54615 0.61775 0.0
C174 C 0.53743 0.51452 0.63296 0.0
C175 C 0.54176 0.50641 0.67214 0.0
C176 C 0.56293 0.53097 0.69534 0.0
C177 C 0.57982 0.56268 0.6786 0.0
C178 C 0.57445 0.56985 0.63974 0.0
Zn179 Zn 0.54182 0.56468 0.56306 0.0
C180 C 0.61428 0.60115 0.53179 0.0
N181 N 0.51852 0.61233 0.45176 0.0
C182 C 0.49941 0.58868 0.42812 0.0
C183 C 0.5294 0.64708 0.43923 0.0
C184 C 0.52121 0.65907 0.4013 0.0
C185 C 0.50159 0.63503 0.3763 0.0
C186 C 0.49076 0.59941 0.39024 0.0
Zn187 Zn 0.53077 0.59231 0.5061 0.0
O188 O 0.56294 0.51157 0.54124 0.0
C189 C 0.45793 0.55567 0.53629 0.0
O190 O 0.55103 0.53711 0.48416 0.0
H191 H 0.54464 0.66537 0.45857 0.0
H192 H 0.52038 0.4963 0.61496 0.0
H193 H 0.49115 0.56113 0.43857 0.0
O194 O 0.48182 0.54561 0.56421 0.0
O195 O 0.47077 0.57536 0.5089 0.0
H196 H 0.58587 0.59543 0.62748 0.0
O197 O 0.51176 0.64701 0.52954 0.0
O198 O 0.52125 0.61807 0.58515 0.0
O199 O 0.59041 0.60919 0.50341 0.0
O200 O 0.60153 0.58352 0.56059 0.0
C201 C 0.51096 0.64814 0.56577 0.0
H202 H 0.52834 0.48165 0.68424 0.0
H203 H 0.59561 0.58271 0.69564 0.0
H204 H 0.52995 0.68681 0.39171 0.0
H205 H 0.47644 0.57957 0.37186 0.0
C206 C 1.01268 0.66125 0.98254 0.0
N207 N 0.02994 0.61316 0.09566 0.0
C208 C 0.0342 0.64845 0.10933 0.0
C209 C 0.02782 0.65525 0.14785 0.0
C210 C 0.01807 0.62515 0.17264 0.0
C211 C 1.01541 0.58897 0.15754 0.0
C212 C 0.01996 0.58396 0.11901 0.0
Zn213 Zn 0.03575 0.59942 0.03974 0.0
C214 C 0.95879 0.56669 1.01164 0.0
N215 N 0.04337 0.56296 0.92605 0.0
C216 C 0.06459 0.58759 0.90514 0.0
C217 C 0.01963 0.53762 0.90886 0.0
C218 C 1.01492 0.538 0.86906 0.0
C219 C 0.03461 0.56493 0.8472 0.0
C220 C 0.06082 0.58889 0.8657 0.0
Zn221 Zn 0.03966 0.57548 0.98228 0.0
O222 O 1.0135 0.65623 1.01869 0.0
C223 C 0.11695 0.60657 1.01182 0.0
O224 O 0.02227 0.63304 0.9625 0.0
H225 H 1.00253 0.51863 0.92594 0.0
H226 H 0.04172 0.67147 0.0903 0.0
H227 H 0.08249 0.60827 0.91894 0.0
O228 O 0.09585 0.61652 0.03967 0.0
O229 O 0.10083 0.58899 0.98473 0.0
H230 H 1.01485 0.5564 0.10791 0.0
O231 O 0.05834 0.51759 1.00268 0.0
O232 O 0.05905 0.54319 0.05852 0.0
O233 O 0.97793 0.56194 0.98139 0.0
O234 O 0.976 0.58108 0.04013 0.0
C235 C 0.06531 0.51413 0.03863 0.0
H236 H 0.02977 0.68384 0.15771 0.0
H237 H 1.0095 0.56431 0.17507 0.0
H238 H 0.99467 0.51882 0.8557 0.0
H239 H 0.07739 0.6094 0.84986 0.0
C240 C 0.2158 0.19423 0.28657 0.0
C241 C 0.18693 0.20094 0.25667 0.0
C242 C 0.20606 0.17552 0.32121 0.0
C243 C 0.16622 0.16369 0.32667 0.0
C244 C 0.13759 0.16912 0.29581 0.0
C245 C 0.1484 0.18704 0.2614 0.0
C246 C 0.23811 0.1697 0.35253 0.0
C247 C 0.0947 0.1577 0.29972 0.0
C248 C 0.13864 0.09306 0.40675 0.0
C249 C 0.12368 0.11707 0.43481 0.0
C250 C 0.15391 0.10767 0.37236 0.0
C251 C 0.15359 0.14747 0.36486 0.0
C252 C 0.13881 0.17181 0.39325 0.0
C253 C 0.12458 0.15646 0.42772 0.0
C254 C 0.17004 0.08035 0.34376 0.0
C255 C 0.13691 0.21429 0.38679 0.0
H256 H 0.24546 0.20515 0.28359 0.0
H257 H 0.12594 0.19183 0.23845 0.0
H258 H 0.2309 0.18854 0.37629 0.0
H259 H 0.23889 0.14006 0.36404 0.0
H260 H 0.26851 0.17598 0.34256 0.0
H261 H 0.07631 0.1627 0.27287 0.0
H262 H 0.09421 0.12726 0.30826 0.0
H263 H 0.08032 0.17411 0.32246 0.0
H264 H 0.13846 0.06263 0.41165 0.0
H265 H 0.11307 0.17553 0.44881 0.0
H266 H 0.20069 0.08792 0.33569 0.0
H267 H 0.15052 0.08233 0.31746 0.0
H268 H 0.17145 0.05052 0.35488 0.0
H269 H 0.1673 0.22415 0.38076 0.0
H270 H 0.12537 0.22952 0.41168 0.0
H271 H 0.11697 0.22219 0.36152 0.0
C272 C 0.45875 0.97044 0.78445 0.0
C273 C 0.41971 0.95782 0.77755 0.0
C274 C 0.46968 0.9886 0.81836 0.0
C275 C 0.44077 0.99547 0.84647 0.0
C276 C 0.40056 0.98485 0.83863 0.0
C277 C 0.39062 0.96602 0.80457 0.0
C278 C 0.51291 0.99881 0.82486 0.0
C279 C 0.36825 0.99207 0.86693 0.0
C280 C 0.48138 1.00194 0.9503 0.0
C281 C 0.48344 0.04126 0.9552 0.0
C282 C 0.46706 0.98695 0.91568 0.0
C283 C 0.45348 1.01155 0.88464 0.0
C284 C 0.45435 0.05132 0.88975 0.0
C285 C 0.46957 0.06559 0.92452 0.0
C286 C 0.46757 0.94447 0.91199 0.0
C287 C 0.43965 0.07895 0.85816 0.0
H288 H 0.48137 0.96468 0.76367 0.0
H289 H 0.36052 0.95621 0.79991 0.0
H290 H 0.5143 0.02924 0.83143 0.0
H291 H 0.5265 0.98219 0.84978 0.0
H292 H 0.53146 0.99309 0.79979 0.0
H293 H 0.33777 0.98648 0.85503 0.0
H294 H 0.37453 0.97347 0.89265 0.0
H295 H 0.36828 0.02185 0.87614 0.0
H296 H 0.49206 0.98256 0.97335 0.0
H297 H 0.47075 0.09595 0.92758 0.0
H298 H 0.48768 0.93587 0.88889 0.0
H299 H 0.43693 0.93554 0.90406 0.0
H300 H 0.47816 0.92901 0.93875 0.0
H301 H 0.45958 0.07627 0.83363 0.0
H302 H 0.43908 0.10879 0.86732 0.0
H303 H 0.40887 0.07229 0.848 0.0
C304 C 0.58004 0.56509 0.91597 0.0
C305 C 0.59398 0.53245 0.93666 0.0
C306 C 0.5693 0.56326 0.87711 0.0
C307 C 0.57269 0.52792 0.85909 0.0
C308 C 0.58432 0.49455 0.88066 0.0
C309 C 0.59525 0.49732 0.91912 0.0
C310 C 0.55709 0.59943 0.85485 0.0
C311 C 0.5883 0.45634 0.86259 0.0
C312 C 0.53126 0.51993 0.75784 0.0
C313 C 0.56587 0.52557 0.73714 0.0
C314 C 0.5329 0.52033 0.79777 0.0
C315 C 0.56999 0.5265 0.81706 0.0
C316 C 0.60525 0.53088 0.79626 0.0
C317 C 0.60275 0.53024 0.75654 0.0
C318 C 0.4949 0.51518 0.81922 0.0
C319 C 0.64551 0.53704 0.81591 0.0
H320 H 0.57945 0.59211 0.9298 0.0
H321 H 0.60692 0.47225 0.9352 0.0
H322 H 0.58169 0.60694 0.83589 0.0
H323 H 0.52985 0.59553 0.83651 0.0
H324 H 0.55091 0.62351 0.87377 0.0
H325 H 0.59181 0.43272 0.88423 0.0
H326 H 0.5616 0.45172 0.84379 0.0
H327 H 0.61514 0.45532 0.84468 0.0
H328 H 0.50265 0.51674 0.74278 0.0
H329 H 0.62956 0.53423 0.74046 0.0
H330 H 0.4871 0.54132 0.83465 0.0
H331 H 0.49974 0.49174 0.84087 0.0
H332 H 0.46893 0.50889 0.80007 0.0
H333 H 0.6434 0.56307 0.83278 0.0
H334 H 0.66999 0.5399 0.79545 0.0
H335 H 0.65398 0.51295 0.83604 0.0
C336 C 0.99917 0.62375 0.39951 0.0
C337 C 0.96189 0.64045 0.40833 0.0
C338 C 1.01125 0.62347 0.36163 0.0
C339 C 0.98605 0.6419 0.33263 0.0
C340 C 0.94923 0.66047 0.34204 0.0
C341 C 0.93694 0.65828 0.37961 0.0
C342 C 0.04969 0.6017 0.35241 0.0
C343 C 0.92234 0.68191 0.31237 0.0
C344 C 0.02796 0.65896 0.23459 0.0
C345 C 1.00964 0.63074 0.21365 0.0
C346 C 0.02029 0.66339 0.27335 0.0
C347 C 0.99536 0.63786 0.29197 0.0
C348 C 0.97723 0.60914 0.27127 0.0
C349 C 0.98335 0.60689 0.23229 0.0
C350 C 0.03837 0.69561 0.29422 0.0
C351 C 0.95112 0.58072 0.2902 0.0
H352 H 0.01795 0.60975 0.42206 0.0
H353 H 0.90817 0.67131 0.38702 0.0
H354 H 0.04231 0.57732 0.33466 0.0
H355 H 0.06926 0.61985 0.3356 0.0
H356 H 0.06691 0.59075 0.37844 0.0
H357 H 0.89845 0.6998 0.32542 0.0
H358 H 0.94038 0.70032 0.29416 0.0
H359 H 0.90755 0.66163 0.2936 0.0
H360 H 0.04846 0.67752 0.22095 0.0
H361 H 0.96718 0.58618 0.21657 0.0
H362 H 0.05926 0.68427 0.31756 0.0
H363 H 1.01422 0.71297 0.30746 0.0
H364 H 0.05515 0.71432 0.27511 0.0
H365 H 0.9666 0.56824 0.31647 0.0
H366 H 0.94361 0.55732 0.27117 0.0
H367 H 0.92253 0.59505 0.29863 0.0
C368 C 0.25233 0.16661 0.17125 0.0
C369 C 0.25581 0.19573 0.1973 0.0
C370 C 0.28676 0.14721 0.15728 0.0
C371 C 0.326 0.15671 0.16988 0.0
C372 C 0.32942 0.18404 0.19853 0.0
C373 C 0.29447 0.20344 0.21143 0.0
C374 C 0.28107 0.11884 0.12656 0.0
C375 C 0.37018 0.19485 0.21364 0.0
C376 C 0.41842 0.09324 0.14419 0.0
C377 C 0.43374 0.11353 0.11327 0.0
C378 C 0.38375 0.10683 0.16296 0.0
C379 C 0.36309 0.14133 0.15033 0.0
C380 C 0.37812 0.16157 0.11878 0.0
C381 C 0.41316 0.14772 0.10101 0.0
C382 C 0.36954 0.08449 0.19673 0.0
C383 C 0.35711 0.1981 0.10365 0.0
H384 H 0.22269 0.16144 0.15925 0.0
H385 H 0.29748 0.22665 0.23063 0.0
H386 H 0.29056 0.13109 0.09905 0.0
H387 H 0.30021 0.09267 0.13294 0.0
H388 H 0.24916 0.11111 0.12313 0.0
H389 H 0.36785 0.21199 0.23953 0.0
H390 H 0.38992 0.16915 0.22054 0.0
H391 H 0.385 0.21173 0.1915 0.0
H392 H 0.43397 0.06696 0.15423 0.0
H393 H 0.42436 0.16375 0.07718 0.0
H394 H 0.33799 0.07658 0.19136 0.0
H395 H 0.36981 0.10227 0.22222 0.0
H396 H 0.38866 0.05824 0.20316 0.0
H397 H 0.32516 0.19325 0.09584 0.0
H398 H 0.3717 0.20996 0.07828 0.0
H399 H 0.35711 0.21954 0.12607 0.0
C400 C 0.35572 0.99356 0.68607 0.0
C401 C 0.35041 0.96478 0.71356 0.0
C402 C 0.32249 1.0118 0.66562 0.0
C403 C 0.2827 1.00146 0.67313 0.0
C404 C 0.27713 0.9751 0.70354 0.0
C405 C 0.31095 0.95695 0.72306 0.0
C406 C 0.33033 0.03949 0.63355 0.0
C407 C 0.23554 0.96361 0.71343 0.0
C408 C 0.19186 0.06168 0.6303 0.0
C409 C 0.17947 0.04043 0.59908 0.0
C410 C 0.22518 0.04954 0.65444 0.0
C411 C 0.24745 0.01543 0.64723 0.0
C412 C 0.23556 0.99417 0.61538 0.0
C413 C 0.20172 1.00671 0.59198 0.0
C414 C 0.23609 0.07293 0.68817 0.0
C415 C 0.25859 0.95794 0.60608 0.0
H416 H 0.38609 0.99879 0.67771 0.0
H417 H 0.30667 0.93398 0.74343 0.0
H418 H 0.32428 0.02607 0.60592 0.0
H419 H 0.30983 0.06514 0.63451 0.0
H420 H 0.362 0.04829 0.63446 0.0
H421 H 0.2358 0.94723 0.74092 0.0
H422 H 0.2147 0.98896 0.71514 0.0
H423 H 0.22336 0.94576 0.69072 0.0
H424 H 0.17494 0.08766 0.63643 0.0
H425 H 0.19265 0.98998 0.56808 0.0
H426 H 0.26782 0.08113 0.68676 0.0
H427 H 0.23371 0.05579 0.7149 0.0
H428 H 0.2163 0.09906 0.68967 0.0
H429 H 0.29065 0.9637 0.60165 0.0
H430 H 0.24605 0.94489 0.58014 0.0
H431 H 0.25796 0.93713 0.6303 0.0
C432 C 0.73563 0.49553 0.99778 0.0
C433 C 0.70968 0.51687 1.02031 0.0
C434 C 0.77745 0.49899 1.00063 0.0
C435 C 0.79343 0.52642 0.02467 0.0
C436 C 0.76743 0.54728 0.04838 0.0
C437 C 0.72583 0.54176 0.04627 0.0
C438 C 0.80412 0.47524 0.97578 0.0
C439 C 0.78292 0.57784 0.07333 0.0
C440 C 0.90658 0.53033 0.04336 0.0
C441 C 0.91697 0.55549 1.01419 0.0
C442 C 0.86658 0.51991 0.04676 0.0
C443 C 0.83619 0.53646 1.02141 0.0
C444 C 0.84665 0.56248 0.99228 0.0
C445 C 0.88716 0.57105 0.98853 0.0
C446 C 0.85692 0.49088 0.07705 0.0
C447 C 0.81498 0.5817 0.96541 0.0
H448 H 0.72313 0.47805 0.97604 0.0
H449 H 0.7054 0.55919 0.06253 0.0
H450 H 0.81333 0.4928 0.95121 0.0
H451 H 0.83195 0.46464 0.99187 0.0
H452 H 0.78837 0.45061 0.96461 0.0
H453 H 0.75974 0.58866 0.09284 0.0
H454 H 0.80993 0.56717 0.09053 0.0
H455 H 0.79211 0.60189 0.05509 0.0
H456 H 0.92995 0.51831 0.06309 0.0
H457 H 0.89541 0.59084 0.96628 0.0
H458 H 0.84241 0.46669 0.06365 0.0
H459 H 0.83515 0.50344 0.09687 0.0
H460 H 0.88424 0.47989 0.09377 0.0
H461 H 0.80046 0.56032 0.94779 0.0
H462 H 0.82778 0.60311 0.9461 0.0
H463 H 0.79102 0.59593 0.98185 0.0
C464 C 0.8406 0.66207 0.50953 0.0
C465 C 0.86638 0.62958 0.50869 0.0
C466 C 0.80005 0.65942 0.51835 0.0
C467 C 0.78475 0.62323 0.52511 0.0
C468 C 0.81111 0.59044 0.52581 0.0
C469 C 0.85187 0.59413 0.51801 0.0
C470 C 0.77316 0.69512 0.51824 0.0
C471 C 0.79579 0.55129 0.53222 0.0
C472 C 0.68056 0.61274 0.56394 0.0
C473 C 0.65721 0.60952 0.53029 0.0
C474 C 0.72206 0.61821 0.56277 0.0
C475 C 0.74062 0.61935 0.52718 0.0
C476 C 0.71707 0.61632 0.49313 0.0
C477 C 0.67552 0.61197 0.4951 0.0
C478 C 0.74606 0.62249 0.59952 0.0
C479 C 0.73593 0.61672 0.45464 0.0
H480 H 0.85188 0.6894 0.50168 0.0
H481 H 0.8721 0.56918 0.51734 0.0
H482 H 0.75279 0.69643 0.4925 0.0
H483 H 0.75397 0.69509 0.54344 0.0
H484 H 0.79079 0.72106 0.51823 0.0
H485 H 0.82068 0.52911 0.53493 0.0
H486 H 0.778 0.55015 0.55828 0.0
H487 H 0.77542 0.54454 0.50792 0.0
H488 H 0.66634 0.61102 0.59119 0.0
H489 H 0.65757 0.60911 0.46907 0.0
H490 H 0.76252 0.64907 0.59825 0.0
H491 H 0.76894 0.59868 0.60366 0.0
H492 H 0.72668 0.62301 0.62463 0.0
H493 H 0.75075 0.64381 0.44971 0.0
H494 H 0.71347 0.61327 0.43099 0.0
H495 H 0.75958 0.59352 0.45376 0.0
C496 C 0.12484 0.31189 0.14939 0.0
C497 C 0.16586 0.30919 0.16082 0.0
C498 C 0.1077 0.344 0.12853 0.0
C499 C 0.13205 0.37444 0.11835 0.0
C500 C 0.17357 0.37172 0.12975 0.0
C501 C 0.18979 0.33944 0.15089 0.0
C502 C 0.06334 0.34543 0.11757 0.0
C503 C 0.20096 0.40311 0.1198 0.0
C504 C 0.09556 0.44626 0.0378 0.0
C505 C 0.08112 0.47747 0.05816 0.0
C506 C 0.11199 0.41267 0.05681 0.0
C507 C 0.11388 0.40971 0.0973 0.0
C508 C 0.09876 0.44094 0.11785 0.0
C509 C 0.0829 0.47414 0.09823 0.0
C510 C 0.12789 0.38043 0.03352 0.0
C511 C 0.09957 0.43945 0.16084 0.0
H512 H 0.10618 0.28858 0.15654 0.0
H513 H 0.22133 0.33793 0.15994 0.0
H514 H 0.048 0.37041 0.1302 0.0
H515 H 0.05903 0.34884 0.0862 0.0
H516 H 0.0485 0.31949 0.1272 0.0
H517 H 0.23279 0.39616 0.12923 0.0
H518 H 0.1997 0.40884 0.08857 0.0
H519 H 0.19057 0.42963 0.13335 0.0
H520 H 0.09462 0.44826 1.00697 0.0
H521 H 0.07185 0.49775 0.11458 0.0
H522 H 0.11219 0.35427 0.04063 0.0
H523 H 0.16044 0.37449 0.04059 0.0
H524 H 0.12395 0.3867 1.00243 0.0
H525 H 0.08325 0.41473 0.17125 0.0
H526 H 0.08568 0.46556 0.17273 0.0
H527 H 0.13116 0.43565 0.17212 0.0
C528 C 0.65959 0.4344 1.01884 0.0
C529 C 0.64415 0.46318 0.04147 0.0
C530 C 0.65124 0.3965 0.02586 0.0
C531 C 0.62543 0.38729 0.05553 0.0
C532 C 0.61288 0.41563 0.08085 0.0
C533 C 0.62289 0.45337 0.07372 0.0
C534 C 0.66609 0.36716 0.99856 0.0
C535 C 0.58524 0.40709 0.11278 0.0
C536 C 0.56027 0.30753 0.0257 0.0
C537 C 0.58108 0.27605 0.0435 0.0
C538 C 0.57277 0.34436 0.03166 0.0
C539 C 0.60708 0.34974 0.05572 0.0
C540 C 0.62663 0.3183 0.07558 0.0
C541 C 0.61324 0.28188 0.06942 0.0
C542 C 0.55064 0.37731 1.0104 0.0
C543 C 0.66319 0.32278 0.10148 0.0
H544 H 0.67386 0.44191 0.99276 0.0
H545 H 0.61024 0.47579 0.09071 0.0
H546 H 0.67706 0.34068 1.01417 0.0
H547 H 0.64084 0.36003 0.97896 0.0
H548 H 0.69082 0.37756 0.98119 0.0
H549 H 0.58585 0.42919 0.13459 0.0
H550 H 0.5539 0.40622 0.10096 0.0
H551 H 0.59342 0.37906 0.12673 0.0
H552 H 0.53533 0.30331 1.00583 0.0
H553 H 0.62868 0.25775 0.08431 0.0
H554 H 0.57001 0.38859 0.98806 0.0
H555 H 0.54383 0.40058 0.03005 0.0
H556 H 0.52196 0.36903 0.99653 0.0
H557 H 0.68938 0.32899 0.084 0.0
H558 H 0.67098 0.29675 0.11927 0.0
H559 H 0.65822 0.34697 0.12046 0.0
C560 C 0.98247 0.71814 0.43998 0.0
C561 C 0.98731 0.69181 0.47061 0.0
C562 C 1.00407 0.75106 0.43907 0.0
C563 C 0.02715 0.76026 0.47169 0.0
C564 C 0.03443 0.73286 0.50169 0.0
C565 C 1.01551 0.6982 0.5 0.0
C566 C 0.99894 0.77767 0.40464 0.0
C567 C 0.05928 0.74135 0.53685 0.0
C568 C 0.07751 0.85471 0.47731 0.0
C569 C 0.0446 0.87941 0.48555 0.0
C570 C 0.07265 0.81587 0.47201 0.0
C571 C 0.0346 0.80075 0.47777 0.0
C572 C 1.00174 0.82507 0.48755 0.0
C573 C 1.00663 0.86401 0.48924 0.0
C574 C 0.10861 0.7917 0.46046 0.0
C575 C 0.96095 0.8102 0.49621 0.0
H576 H 0.95983 0.71481 0.41786 0.0
H577 H 0.02035 0.67727 0.52305 0.0
H578 H 0.97405 0.799 0.40891 0.0
H579 H 0.02687 0.79296 0.39997 0.0
H580 H 0.99126 0.76205 0.37859 0.0
H581 H 0.0613 0.71723 0.55796 0.0
H582 H 0.09021 0.74793 0.52886 0.0
H583 H 0.04587 0.76667 0.55056 0.0
H584 H 0.10737 0.86529 0.47501 0.0
H585 H 0.98014 0.88208 0.4936 0.0
H586 H 0.10029 0.76422 0.44875 0.0
H587 H 0.12934 0.78606 0.48565 0.0
H588 H 0.12561 0.80722 0.4388 0.0
H589 H 0.9445 0.80406 0.4693 0.0
H590 H 0.94205 0.83106 0.51163 0.0
H591 H 0.96429 0.78351 0.51378 0.0
C592 C 0.47387 0.84491 0.67715 0.0
C593 C 0.43419 0.84856 0.68947 0.0
C594 C 0.48744 0.81307 0.65676 0.0
C595 C 0.46071 0.784 0.64819 0.0
C596 C 0.42076 0.78741 0.66115 0.0
C597 C 0.40816 0.81937 0.68168 0.0
C598 C 0.53033 0.81072 0.64402 0.0
C599 C 0.39108 0.7574 0.65303 0.0
C600 C 0.48277 0.7165 0.56645 0.0
C601 C 0.49864 0.68356 0.58609 0.0
C602 C 0.47062 0.74935 0.58612 0.0
C603 C 0.4746 0.74967 0.62651 0.0
C604 C 0.49105 0.71663 0.64635 0.0
C605 C 0.50265 0.68423 0.62608 0.0
C606 C 0.45308 0.78367 0.56365 0.0
C607 C 0.49622 0.71535 0.68922 0.0
H608 H 0.49401 0.86747 0.68275 0.0
H609 H 0.3776 0.82184 0.6914 0.0
H610 H 0.54602 0.78417 0.65558 0.0
H611 H 0.53057 0.80976 0.61251 0.0
H612 H 0.54757 0.83518 0.65335 0.0
H613 H 0.36102 0.76436 0.66459 0.0
H614 H 0.38738 0.75401 0.62184 0.0
H615 H 0.40272 0.72966 0.66563 0.0
H616 H 0.47944 0.71653 0.53567 0.0
H617 H 0.51499 0.65922 0.64183 0.0
H618 H 0.47095 0.80866 0.56978 0.0
H619 H 0.42186 0.79044 0.57243 0.0
H620 H 0.45245 0.77933 0.53247 0.0
H621 H 0.51501 0.73871 0.69859 0.0
H622 H 0.51054 0.688 0.70043 0.0
H623 H 0.46643 0.7196 0.70216 0.0
C624 C 0.97039 0.95681 0.81036 0.0
C625 C 0.93017 0.94632 0.80822 0.0
C626 C 0.98916 0.97252 0.77819 0.0
C627 C 0.96711 0.97874 0.74289 0.0
C628 C 0.92705 0.96648 0.74033 0.0
C629 C 0.90943 0.95028 0.77265 0.0
C630 C 0.03213 0.98406 0.78249 0.0
C631 C 0.90181 0.97242 0.70391 0.0
C632 C 0.99728 0.05686 0.67103 0.0
C633 C 0.01586 0.0358 0.64258 0.0
C634 C 0.98165 0.03885 0.70369 0.0
C635 C 0.98522 0.99865 0.70891 0.0
C636 C 1.0047 0.97743 0.68063 0.0
C637 C 0.01925 0.99602 0.64801 0.0
C638 C 0.96063 0.06289 0.73243 0.0
C639 C 1.01013 0.93481 0.68473 0.0
H640 H 0.98642 0.95477 0.83778 0.0
H641 H 0.87816 0.94287 0.77085 0.0
H642 H 0.0502 0.97278 0.75903 0.0
H643 H 0.03284 0.01543 0.78067 0.0
H644 H 0.0466 0.97384 0.81013 0.0
H645 H 0.87179 0.96012 0.70593 0.0
H646 H 0.89731 1.00325 0.69704 0.0
H647 H 0.9176 0.95947 0.67988 0.0
H648 H 0.9943 0.08746 0.66748 0.0
H649 H 0.03376 0.97912 0.6267 0.0
H650 H 0.97587 0.05823 0.76088 0.0
H651 H 0.9291 0.05436 0.73497 0.0
H652 H 0.96019 0.09362 0.7246 0.0
H653 H 0.02576 0.92667 0.7124 0.0
H654 H 0.02776 0.92243 0.66147 0.0
H655 H 0.98026 0.92208 0.68465 0.0
C656 C 0.6586 0.17467 0.32907 0.0
C657 C 0.69618 0.1913 0.32991 0.0
C658 C 0.64386 0.1564 0.29664 0.0
C659 C 0.66765 0.15341 0.26404 0.0
C660 C 0.70715 0.16737 0.26593 0.0
C661 C 0.72072 0.18652 0.29857 0.0
C662 C 0.60144 0.1429 0.29633 0.0
C663 C 0.73432 0.16395 0.23264 0.0
C664 C 0.62989 0.08606 0.18749 0.0
C665 C 0.60986 0.11126 0.16056 0.0
C666 C 0.65016 0.0993 0.22032 0.0
C667 C 0.64965 0.13874 0.22734 0.0
C668 C 0.62957 0.16424 0.20011 0.0
C669 C 0.61055 0.15034 0.1671 0.0
C670 C 0.672 0.07097 0.24767 0.0
C671 C 0.62719 0.20639 0.20632 0.0
H672 H 0.63938 0.17854 0.35306 0.0
H673 H 0.74948 0.19973 0.29863 0.0
H674 H 0.58232 0.16022 0.27519 0.0
H675 H 0.60106 0.11302 0.28758 0.0
H676 H 0.58772 0.14506 0.3246 0.0
H677 H 0.76592 0.17016 0.24059 0.0
H678 H 0.73388 0.13503 0.22118 0.0
H679 H 0.72328 0.18424 0.20947 0.0
H680 H 0.63001 0.05587 0.18278 0.0
H681 H 0.59521 0.17023 0.14673 0.0
H682 H 0.65702 0.07079 0.27536 0.0
H683 H 0.70343 0.07923 0.25316 0.0
H684 H 0.6727 0.04176 0.23675 0.0
H685 H 0.61167 0.21224 0.23312 0.0
H686 H 0.61072 0.22258 0.18252 0.0
H687 H 0.65794 0.21705 0.20943 0.0
C688 C 0.48512 0.61597 0.15694 0.0
C689 C 0.46342 0.64449 0.13558 0.0
C690 C 0.49314 0.61985 0.19595 0.0
C691 C 0.47903 0.65319 0.21375 0.0
C692 C 0.45845 0.68282 0.19176 0.0
C693 C 0.45071 0.67801 0.15275 0.0
C694 C 0.51486 0.58746 0.21844 0.0
C695 C 0.44333 0.71883 0.2097 0.0
C696 C 0.45727 0.636 0.31736 0.0
C697 C 0.49341 0.64578 0.3355 0.0
C698 C 0.45145 0.64004 0.27781 0.0
C699 C 0.48224 0.65492 0.25586 0.0
C700 C 0.5175 0.66761 0.27418 0.0
C701 C 0.52282 0.66267 0.31388 0.0
C702 C 0.41334 0.6262 0.25935 0.0
C703 C 0.55057 0.68434 0.25167 0.0
H704 H 0.49461 0.59017 0.14315 0.0
H705 H 0.43376 0.69984 0.13578 0.0
H706 H 0.54085 0.59786 0.23508 0.0
H707 H 0.49416 0.57515 0.23904 0.0
H708 H 0.52601 0.56461 0.19988 0.0
H709 H 0.42843 0.73933 0.18847 0.0
H710 H 0.42144 0.7122 0.23175 0.0
H711 H 0.46878 0.73251 0.22415 0.0
H712 H 0.43398 0.62388 0.33404 0.0
H713 H 0.55085 0.67029 0.32767 0.0
H714 H 0.42088 0.60119 0.24212 0.0
H715 H 0.39893 0.64845 0.23975 0.0
H716 H 0.39114 0.61798 0.28062 0.0
H717 H 0.56645 0.66161 0.23604 0.0
H718 H 0.57302 0.69794 0.27028 0.0
H719 H 0.53778 0.70568 0.23018 0.0
C720 C 0.04471 0.58097 0.61883 0.0
C721 C 0.08669 0.5765 0.61679 0.0
C722 C 0.02659 0.584 0.65423 0.0
C723 C 0.05135 0.58319 0.68791 0.0
C724 C 0.09378 0.58264 0.68544 0.0
C725 C 0.11085 0.57877 0.65 0.0
C726 C 0.98126 0.58475 0.65557 0.0
C727 C 0.12145 0.58263 0.72052 0.0
C728 C 0.02411 0.6053 0.78787 0.0
C729 C 0.02833 0.56896 0.80532 0.0
C730 C 0.02711 0.61042 0.74844 0.0
C731 C 0.03428 0.5784 0.72608 0.0
C732 C 0.03376 0.54146 0.74298 0.0
C733 C 0.03093 0.53716 0.78259 0.0
C734 C 0.02682 0.6502 0.73147 0.0
C735 C 0.04037 0.50655 0.71982 0.0
H736 H 0.02611 0.57919 0.59306 0.0
H737 H 0.14322 0.57423 0.64871 0.0
H738 H 0.97168 0.55549 0.66109 0.0
H739 H 0.97012 0.60257 0.6788 0.0
H740 H 0.96675 0.59547 0.62811 0.0
H741 H 0.15334 0.58632 0.71331 0.0
H742 H 0.11191 0.60568 0.73948 0.0
H743 H 0.11989 0.55532 0.73674 0.0
H744 H 0.0208 0.62996 0.80535 0.0
H745 H 0.03376 0.50903 0.79593 0.0
H746 H 1.01056 0.65213 0.70332 0.0
H747 H 0.05832 0.658 0.72708 0.0
H748 H 1.01263 0.67118 0.75044 0.0
H749 H 0.02213 0.50913 0.69273 0.0
H750 H 0.03251 0.48038 0.73562 0.0
H751 H 0.07257 0.50353 0.71251 0.0
C752 C 0.83117 0.98561 0.9417 0.0
C753 C 0.82675 0.97127 0.90512 0.0
C754 C 0.79758 1.00008 0.96113 0.0
C755 C 0.75841 1.00026 0.94361 0.0
C756 C 0.75402 0.98635 0.90628 0.0
C757 C 0.78821 0.9722 0.8875 0.0
C758 C 0.80399 1.01476 1.00063 0.0
C759 C 0.71307 0.98581 0.8864 0.0
C760 C 0.6671 1.00209 1.00744 0.0
C761 C 0.65284 0.04022 1.00415 0.0
C762 C 0.70118 0.98881 0.98798 0.0
C763 C 0.72203 1.01418 0.96462 0.0
C764 C 0.70799 0.05277 0.9614 0.0
C765 C 0.67367 0.06525 0.98102 0.0
C766 C 0.71473 0.94745 0.99225 0.0
C767 C 0.72922 0.08094 0.93709 0.0
H768 H 0.86104 0.98512 0.95517 0.0
H769 H 0.78483 0.96108 0.85923 0.0
H770 H 0.7917 0.04447 1.00168 0.0
H771 H 0.78741 0.99765 1.02131 0.0
H772 H 0.83636 1.01375 1.00985 0.0
H773 H 0.71476 0.97494 0.85714 0.0
H774 H 0.69328 0.96765 0.90304 0.0
H775 H 0.69858 1.0148 0.8847 0.0
H776 H 0.65136 0.98235 0.02505 0.0
H777 H 0.66311 0.09475 0.97816 0.0
H778 H 0.74628 0.94464 1.00379 0.0
H779 H 0.7142 0.93432 0.96397 0.0
H780 H 0.6954 0.93131 1.01142 0.0
H781 H 0.76124 0.08183 0.94695 0.0
H782 H 0.71497 0.11001 0.93783 0.0
H783 H 0.72899 0.07192 0.90713 0.0
C784 C 0.76725 0.16612 0.42046 0.0
C785 C 0.76833 0.19324 0.39055 0.0
C786 C 0.80298 0.148 0.4368 0.0
C787 C 0.84116 0.15692 0.42289 0.0
C788 C 0.84206 0.18245 0.39092 0.0
C789 C 0.80585 0.20049 0.37552 0.0
C790 C 0.79997 0.12145 0.47087 0.0
C791 C 0.88154 0.19267 0.37445 0.0
C792 C 0.93394 0.15077 0.49209 0.0
C793 C 0.95365 0.11611 0.48338 0.0
C794 C 0.89748 0.16396 0.47301 0.0
C795 C 0.87994 0.14246 0.4438 0.0
C796 C 0.8997 0.10746 0.43479 0.0
C797 C 0.93592 0.09466 0.45472 0.0
C798 C 0.87767 0.20115 0.4842 0.0
C799 C 0.88276 0.08366 0.40371 0.0
H800 H 0.73855 0.16135 0.43303 0.0
H801 H 0.80704 0.22222 0.35322 0.0
H802 H 0.81844 0.09488 0.46728 0.0
H803 H 0.812 0.13501 0.49668 0.0
H804 H 0.76836 0.11416 0.47571 0.0
H805 H 0.8771 0.20875 0.34685 0.0
H806 H 0.89807 0.21035 0.39471 0.0
H807 H 0.90082 0.16673 0.37012 0.0
H808 H 0.94698 0.16774 0.51409 0.0
H809 H 0.95069 0.06798 0.4474 0.0
H810 H 0.84638 0.19677 0.49283 0.0
H811 H 0.87576 0.22146 0.45944 0.0
H812 H 0.89434 0.21413 0.50804 0.0
H813 H 0.85172 0.076 0.41029 0.0
H814 H 0.90146 0.0572 0.39995 0.0
H815 H 0.88077 0.10025 0.37634 0.0
C816 C 0.34916 0.65375 1.02148 0.0
C817 C 0.37292 0.6205 0.02992 0.0
C818 C 0.30782 0.65245 1.01297 0.0
C819 C 0.28969 0.61706 1.01401 0.0
C820 C 0.31394 0.58317 1.02029 0.0
C821 C 0.3555 0.58534 0.0279 0.0
C822 C 0.28317 0.68918 1.0058 0.0
C823 C 0.29561 0.54491 1.02193 0.0
C824 C 0.18203 0.61767 0.04621 0.0
C825 C 0.1606 0.61245 1.01192 0.0
C826 C 0.22414 0.61909 0.0472 0.0
C827 C 0.24511 0.61593 1.01295 0.0
C828 C 0.22351 0.6119 0.97806 0.0
C829 C 0.18147 0.60987 0.978 0.0
C830 C 0.24627 0.62315 0.08504 0.0
C831 C 0.24483 0.60934 0.94094 0.0
H832 H 0.3624 0.68101 0.02417 0.0
H833 H 0.37405 0.55978 0.03465 0.0
H834 H 0.26165 0.68686 0.98122 0.0
H835 H 0.26526 0.69545 0.03109 0.0
H836 H 0.30245 0.71342 1.00017 0.0
H837 H 0.31892 0.52123 0.02299 0.0
H838 H 0.27746 0.54261 0.04772 0.0
H839 H 0.27498 0.54166 0.99688 0.0
H840 H 0.16604 0.61934 0.0725 0.0
H841 H 0.16493 0.606 0.95138 0.0
H842 H 0.26368 0.64917 0.08439 0.0
H843 H 0.26817 0.59871 0.09055 0.0
H844 H 0.22551 0.6247 0.10909 0.0
H845 H 0.26322 0.63441 0.93668 0.0
H846 H 0.22344 0.60769 0.9161 0.0
H847 H 0.26578 0.58388 0.94177 0.0
C848 C 0.22034 0.51833 0.52093 0.0
C849 C 0.2039 0.53413 0.5533 0.0
C850 C 0.26239 0.51573 0.51683 0.0
C851 C 0.28815 0.53018 0.54538 0.0
C852 C 0.27153 0.54453 0.57885 0.0
C853 C 0.22975 0.54539 0.58273 0.0
C854 C 0.27911 0.49869 0.4815 0.0
C855 C 0.2976 0.5608 0.6098 0.0
C856 C 0.40215 0.51395 0.55426 0.0
C857 C 0.41488 0.54704 0.53636 0.0
C858 C 0.36092 0.50665 0.55515 0.0
C859 C 0.3319 0.53388 0.53917 0.0
C860 C 0.34481 0.56705 0.52059 0.0
C861 C 0.38613 0.57286 0.51886 0.0
C862 C 0.3484 0.47031 0.57394 0.0
C863 C 0.31497 0.59741 0.50427 0.0
H864 H 0.20027 0.50885 0.49858 0.0
H865 H 0.21707 0.55571 0.60863 0.0
H866 H 0.29014 0.52145 0.46273 0.0
H867 H 0.30515 0.4787 0.4891 0.0
H868 H 0.25603 0.48342 0.46521 0.0
H869 H 0.27984 0.57052 0.63419 0.0
H870 H 0.32102 0.53935 0.62059 0.0
H871 H 0.31339 0.58528 0.59802 0.0
H872 H 0.42441 0.49373 0.56741 0.0
H873 H 0.39591 0.59857 0.50513 0.0
H874 H 0.32506 0.45713 0.55604 0.0
H875 H 0.335 0.47647 0.60165 0.0
H876 H 0.37434 0.44953 0.57915 0.0
H877 H 0.29378 0.58514 0.4835 0.0
H878 H 0.32997 0.62102 0.48983 0.0
H879 H 0.2968 0.60923 0.52743 0.0
C880 C 0.91496 0.84505 0.86406 0.0
C881 C 0.93494 0.87854 0.87064 0.0
C882 C 0.92967 0.80956 0.87991 0.0
C883 C 0.96604 0.80686 0.90249 0.0
C884 C 0.98821 0.84007 0.90637 0.0
C885 C 0.97217 0.8754 0.89091 0.0
C886 C 0.90435 0.77557 0.87512 0.0
C887 C 0.02765 0.83885 0.92902 0.0
C888 C 0.97904 0.72779 0.98094 0.0
C889 C 1.00159 0.69918 0.96307 0.0
C890 C 0.9674 0.76271 0.96169 0.0
C891 C 0.97933 0.77003 0.92378 0.0
C892 C 1.00295 0.74157 0.90602 0.0
C893 C 1.01327 0.70664 0.92553 0.0
C894 C 0.94156 0.7916 0.98173 0.0
C895 C 0.01737 0.74797 0.86622 0.0
H896 H 0.88553 0.84739 0.84964 0.0
H897 H 0.98721 0.90115 0.89724 0.0
H898 H 0.92296 0.75099 0.86557 0.0
H899 H 0.89215 0.76731 0.90299 0.0
H900 H 0.87871 0.78139 0.8543 0.0
H901 H 0.04405 0.86523 0.92471 0.0
H902 H 0.02186 0.83527 0.95977 0.0
H903 H 0.04729 0.81428 0.92101 0.0
H904 H 0.96963 0.72254 1.00975 0.0
H905 H 0.03096 0.68509 0.9113 0.0
H906 H 0.913 0.79804 0.96495 0.0
H907 H 0.95729 0.81849 0.98385 0.0
H908 H 0.93421 0.78167 1.01083 0.0
H909 H 0.99117 0.75195 0.84582 0.0
H910 H 0.03707 0.72392 0.85694 0.0
H911 H 0.03432 0.77425 0.86472 0.0
C912 C 0.46779 0.72593 0.05472 0.0
C913 C 0.48584 0.69151 0.0689 0.0
C914 C 0.48487 0.76036 0.06234 0.0
C915 C 0.51994 0.76059 0.08634 0.0
C916 C 0.5391 0.7259 0.1 0.0
C917 C 0.52209 0.69161 0.09051 0.0
C918 C 0.46383 0.79666 0.04647 0.0
C919 C 0.57571 0.72491 0.12669 0.0
C920 C 0.56527 0.85628 0.08224 0.0
C921 C 0.54273 0.87527 0.10938 0.0
C922 C 0.56093 0.81758 0.07647 0.0
C923 C 0.53397 0.79759 0.0989 0.0
C924 C 0.51434 0.81591 0.12893 0.0
C925 C 0.51836 0.85487 0.13338 0.0
C926 C 0.58212 0.79914 0.04404 0.0
C927 C 0.48661 0.79505 0.15437 0.0
H928 H 0.43893 0.7262 0.03946 0.0
H929 H 0.53579 0.66494 0.10174 0.0
H930 H 0.44999 0.81246 0.06989 0.0
H931 H 0.4858 0.81516 0.03313 0.0
H932 H 0.43973 0.79125 0.02488 0.0
H933 H 0.59189 0.6966 0.12785 0.0
H934 H 0.59696 0.74666 0.11823 0.0
H935 H 0.56599 0.73124 0.1558 0.0
H936 H 0.58402 0.8723 0.06364 0.0
H937 H 0.50129 0.8697 0.15456 0.0
H938 H 0.55995 0.79543 1.02024 0.0
H939 H 0.59511 0.77059 0.05295 0.0
H940 H 0.60657 0.8165 0.0333 0.0
H941 H 0.45811 0.79003 0.13832 0.0
H942 H 0.47915 0.81128 0.17999 0.0
H943 H 0.5006 0.76697 0.16364 0.0
C944 C 0.16723 0.45048 0.57974 0.0
C945 C 0.14497 0.472 0.55159 0.0
C946 C 0.16575 0.41083 0.58143 0.0
C947 C 0.14081 0.3928 0.5547 0.0
C948 C 0.12117 0.41437 0.52425 0.0
C949 C 0.12385 0.45384 0.52293 0.0
C950 C 0.18808 0.38871 0.61366 0.0
C951 C 0.0941 0.39638 0.49529 0.0
C952 C 0.143 0.28585 0.54744 0.0
C953 C 0.11075 0.27611 0.57012 0.0
C954 C 0.15396 0.32351 0.54309 0.0
C955 C 0.13147 0.35243 0.56092 0.0
C956 C 0.0988 0.34302 0.5837 0.0
C957 C 0.08903 0.30495 0.58826 0.0
C958 C 0.18924 0.3324 0.51897 0.0
C959 C 0.07374 0.37327 0.60279 0.0
H960 H 0.18309 0.46492 0.60207 0.0
H961 H 0.10632 0.47098 0.50162 0.0
H962 H 0.16635 0.38006 0.63514 0.0
H963 H 0.2031 0.36249 0.60318 0.0
H964 H 0.21112 0.40574 0.62792 0.0
H965 H 0.08502 0.41622 0.47104 0.0
H966 H 0.10924 0.37062 0.48403 0.0
H967 H 0.06644 0.38749 0.50918 0.0
H968 H 0.15941 0.26408 0.53237 0.0
H969 H 0.0644 0.2978 0.6061 0.0
H970 H 0.21082 0.34936 0.53519 0.0
H971 H 0.17854 0.34974 0.49345 0.0
H972 H 0.20551 0.30636 0.50942 0.0
H973 H 0.09324 0.38967 0.62179 0.0
H974 H 0.04962 0.36124 0.61985 0.0
H975 H 0.05953 0.3935 0.58095 0.0
C976 C 0.63375 0.30661 0.41799 0.0
C977 C 0.67444 0.30558 0.40833 0.0
C978 C 0.61489 0.3393 0.43307 0.0
C979 C 0.63719 0.37201 0.43914 0.0
C980 C 0.67838 0.37105 0.42947 0.0
C981 C 0.69636 0.33805 0.4141 0.0
C982 C 0.57101 0.33874 0.44265 0.0
C983 C 0.70357 0.40493 0.43548 0.0
C984 C 0.58088 0.46889 0.44856 0.0
C985 C 0.58116 0.47314 0.48822 0.0
C986 C 0.59865 0.43625 0.43229 0.0
C987 C 0.61762 0.4069 0.45604 0.0
C988 C 0.61785 0.41098 0.49608 0.0
C989 C 0.59962 0.44375 0.51159 0.0
C990 C 0.59725 0.43326 0.38955 0.0
C991 C 0.63777 0.38077 0.52267 0.0
H992 H 0.61673 0.28155 0.41401 0.0
H993 H 0.72762 0.33767 0.40631 0.0
H994 H 0.56774 0.3432 0.47351 0.0
H995 H 0.55361 0.36229 0.42706 0.0
H996 H 0.55754 0.31158 0.4354 0.0
H997 H 0.73512 0.39975 0.42675 0.0
H998 H 0.69001 0.42989 0.41894 0.0
H999 H 0.70404 0.41227 0.46595 0.0
H1000 H 0.56685 0.49122 0.43007 0.0
H1001 H 0.60035 0.44654 0.54221 0.0
H1002 H 0.58228 0.40713 0.38141 0.0
H1003 H 0.62835 0.43102 0.37906 0.0
H1004 H 0.58086 0.45805 0.37496 0.0
H1005 H 0.6237 0.35331 0.51831 0.0
H1006 H 0.63547 0.38803 0.55307 0.0
H1007 H 0.67012 0.37667 0.51625 0.0
loop_
_geom_bond_atom_site_label_1
_geom_bond_atom_site_label_2
_geom_bond_distance
_geom_bond_site_symmetry_2
_ccdc_geom_bond_type
C0 N1 1.317 . S
C0 N2 1.348 . S
C0 C3 1.485 . S
N1 C0 1.317 . S
N1 N5 1.370 . S
N2 C0 1.348 . S
N2 C4 1.346 . S
C3 C0 1.485 . S
C3 H7 0.960 . S
C3 H8 0.961 . S
C3 H9 0.960 . S
C4 N2 1.346 . S
C4 N5 1.307 . S
C4 C6 1.486 . S
N5 N1 1.370 . S
N5 C4 1.307 . S
C6 C4 1.486 . S
C6 H10 0.960 . S
C6 H11 0.960 . S
C6 H12 0.959 . S
H7 C3 0.960 . S
H8 C3 0.961 . S
H9 C3 0.960 . S
H10 C6 0.960 . S
H11 C6 0.960 . S
H12 C6 0.959 . S
C13 N14 1.317 . S
C13 N15 1.348 . S
C13 C16 1.485 . S
N14 C13 1.317 . S
N14 N18 1.370 . S
N15 C13 1.348 . S
N15 C17 1.346 . S
C16 C13 1.485 . S
C16 H20 0.960 . S
C16 H21 0.961 . S
C16 H22 0.960 . S
C17 N15 1.346 . S
C17 N18 1.307 . S
C17 C19 1.486 . S
N18 N14 1.370 . S
N18 C17 1.307 . S
C19 C17 1.486 . S
C19 H23 0.960 . S
C19 H24 0.960 . S
C19 H25 0.959 . S
H20 C16 0.960 . S
H21 C16 0.961 . S
H22 C16 0.960 . S
H23 C19 0.960 . S
H24 C19 0.960 . S
H25 C19 0.959 . S
C26 N27 1.317 . S
C26 N28 1.348 . S
C26 C29 1.485 . S
N27 C26 1.317 . S
N27 N31 1.370 . S
N28 C26 1.348 . S
N28 C30 1.346 . S
C29 C26 1.485 . S
C29 H33 0.960 . S
C29 H34 0.961 . S
C29 H35 0.960 . S
C30 N28 1.346 . S
C30 N31 1.307 . S
C30 C32 1.486 . S
N31 N27 1.370 . S
N31 C30 1.307 . S
C32 C30 1.486 . S
C32 H36 0.960 . S
C32 H37 0.960 . S
C32 H38 0.959 . S
H33 C29 0.960 . S
H34 C29 0.961 . S
H35 C29 0.960 . S
H36 C32 0.960 . S
H37 C32 0.960 . S
H38 C32 0.959 . S
C39 N40 1.317 . S
C39 N41 1.348 . S
C39 C42 1.485 . S
N40 C39 1.317 . S
N40 N44 1.370 . S
N41 C39 1.348 . S
N41 C43 1.346 . S
C42 C39 1.485 . S
C42 H46 0.960 . S
C42 H47 0.961 . S
C42 H48 0.960 . S
C43 N41 1.346 . S
C43 N44 1.307 . S
C43 C45 1.486 . S
N44 N40 1.370 . S
N44 C43 1.307 . S
C45 C43 1.486 . S
C45 H49 0.960 . S
C45 H50 0.960 . S
C45 H51 0.959 . S
H46 C42 0.960 . S
H47 C42 0.961 . S
H48 C42 0.960 . S
H49 C45 0.960 . S
H50 C45 0.960 . S
H51 C45 0.959 . S
C52 N53 1.317 . S
C52 N54 1.348 . S
C52 C55 1.485 . S
N53 C52 1.317 . S
N53 N57 1.370 . S
N54 C52 1.348 . S
N54 C56 1.346 . S
C55 C52 1.485 . S
C55 H59 0.960 . S
C55 H60 0.961 . S
C55 H61 0.960 . S
C56 N54 1.346 . S
C56 N57 1.307 . S
C56 C58 1.486 1_565 S
N57 N53 1.370 . S
N57 C56 1.307 . S
C58 C56 1.486 1_545 S
C58 H62 0.960 . S
C58 H63 0.960 . S
C58 H64 0.959 . S
H59 C55 0.960 . S
H60 C55 0.961 . S
H61 C55 0.960 . S
H62 C58 0.960 . S
H63 C58 0.960 . S
H64 C58 0.959 . S
C65 N66 1.317 . S
C65 N67 1.348 . S
C65 C68 1.485 . S
N66 C65 1.317 . S
N66 N70 1.370 . S
N67 C65 1.348 . S
N67 C69 1.346 . S
C68 C65 1.485 . S
C68 H72 0.960 . S
C68 H73 0.961 . S
C68 H74 0.960 . S
C69 N67 1.346 . S
C69 N70 1.307 . S
C69 C71 1.486 . S
N70 N66 1.370 . S
N70 C69 1.307 . S
C71 C69 1.486 . S
C71 H75 0.960 . S
C71 H76 0.960 . S
C71 H77 0.959 . S
H72 C68 0.960 . S
H73 C68 0.961 . S
H74 C68 0.960 . S
H75 C71 0.960 . S
H76 C71 0.960 . S
H77 C71 0.959 . S
C78 N79 1.317 . S
C78 N80 1.348 . S
C78 C81 1.485 . S
N79 C78 1.317 . S
N79 N83 1.370 . S
N80 C78 1.348 . S
N80 C82 1.346 . S
C81 C78 1.485 . S
C81 H85 0.960 . S
C81 H86 0.961 . S
C81 H87 0.960 . S
C82 N80 1.346 . S
C82 N83 1.307 . S
C82 C84 1.486 . S
N83 N79 1.370 . S
N83 C82 1.307 . S
C84 C82 1.486 . S
C84 H88 0.960 . S
C84 H89 0.960 . S
C84 H90 0.959 . S
H85 C81 0.960 . S
H86 C81 0.961 . S
H87 C81 0.960 . S
H88 C84 0.960 . S
H89 C84 0.960 . S
H90 C84 0.959 . S
C91 N92 1.317 . S
C91 N93 1.348 . S
C91 C94 1.485 . S
N92 C91 1.317 . S
N92 N96 1.370 . S
N93 C91 1.348 . S
N93 C95 1.346 . S
C94 C91 1.485 . S
C94 H98 0.960 . S
C94 H99 0.961 . S
C94 H100 0.960 . S
C95 N93 1.346 . S
C95 N96 1.307 . S
C95 C97 1.486 . S
N96 N92 1.370 . S
N96 C95 1.307 . S
C97 C95 1.486 . S
C97 H101 0.960 . S
C97 H102 0.960 . S
C97 H103 0.959 . S
H98 C94 0.960 . S
H99 C94 0.961 . S
H100 C94 0.960 . S
H101 C97 0.960 . S
H102 C97 0.960 . S
H103 C97 0.959 . S
C104 O120 1.251 . S
C104 O122 1.254 . S
N105 C106 1.333 . S
N105 C110 1.307 . S
N105 Zn111 2.020 . S
C106 N105 1.333 . S
C106 C107 1.379 . S
C106 H124 0.952 . S
C107 C106 1.379 . S
C107 C108 1.390 . S
C107 H134 0.949 . S
C108 C107 1.390 . S
C108 C109 1.357 . S
C109 C108 1.357 . S
C109 C110 1.370 . S
C109 H135 0.950 . S
C110 N105 1.307 . S
C110 C109 1.370 . S
C110 H128 0.948 . S
Zn111 N105 2.020 . S
Zn111 O120 2.039 . S
Zn111 O126 2.034 . S
Zn111 O130 2.025 . S
Zn111 O132 2.024 . S
C112 O131 1.246 1_655 S
C112 O132 1.249 1_655 S
N113 C114 1.307 . S
N113 C115 1.333 . S
N113 Zn119 2.020 1_565 S
C114 N113 1.307 . S
C114 C118 1.370 . S
C114 H125 0.948 . S
C115 N113 1.333 . S
C115 C116 1.379 1_455 S
C115 H123 0.963 . S
C116 C115 1.379 1_655 S
C116 C117 1.390 1_655 S
C116 H136 0.949 . S
C117 C116 1.390 1_455 S
C117 C118 1.357 . S
C118 C114 1.370 . S
C118 C117 1.357 . S
C118 H137 0.950 . S
Zn119 N113 2.020 1_545 S
Zn119 O122 2.025 . S
Zn119 O127 2.024 . S
Zn119 O129 2.039 . S
Zn119 O131 2.034 . S
O120 C104 1.251 . S
O120 Zn111 2.039 . S
C121 O126 1.246 . S
C121 O127 1.249 . S
O122 C104 1.254 . S
O122 Zn119 2.025 . S
H123 C115 0.963 . S
H124 C106 0.952 . S
H125 C114 0.948 . S
O126 Zn111 2.034 . S
O126 C121 1.246 . S
O127 Zn119 2.024 . S
O127 C121 1.249 . S
H128 C110 0.948 . S
O129 Zn119 2.039 . S
O129 C133 1.251 . S
O130 Zn111 2.025 . S
O130 C133 1.254 . S
O131 C112 1.246 1_455 S
O131 Zn119 2.034 . S
O132 Zn111 2.024 . S
O132 C112 1.249 1_455 S
C133 O129 1.251 . S
C133 O130 1.254 . S
H134 C107 0.949 . S
H135 C109 0.950 . S
H136 C116 0.949 . S
H137 C118 0.950 . S
C138 O154 1.251 . S
C138 O156 1.254 . S
N139 C140 1.333 . S
N139 C144 1.307 1_554 S
N139 Zn145 2.020 . S
C140 N139 1.333 . S
C140 C141 1.379 . S
C140 H158 0.952 . S
C141 C140 1.379 . S
C141 C142 1.390 1_554 S
C141 H168 0.949 . S
C142 C141 1.390 1_556 S
C142 C143 1.357 . S
C143 C142 1.357 . S
C143 C144 1.370 . S
C143 H169 0.950 . S
C144 N139 1.307 1_556 S
C144 C143 1.370 . S
C144 H162 0.948 . S
Zn145 N139 2.020 . S
Zn145 O154 2.039 . S
Zn145 O160 2.034 . S
Zn145 O164 2.025 . S
Zn145 O166 2.024 1_554 S
C146 O165 1.245 1_556 S
C146 O166 1.249 . S
N147 C148 1.307 . S
N147 C149 1.333 . S
N147 Zn153 2.020 1_565 S
C148 N147 1.307 . S
C148 C152 1.370 . S
C148 H159 0.948 . S
C149 N147 1.333 . S
C149 C150 1.379 . S
C149 H157 0.952 . S
C150 C149 1.379 . S
C150 C151 1.390 . S
C150 H170 0.949 . S
C151 C150 1.390 . S
C151 C152 1.357 . S
C152 C148 1.370 . S
C152 C151 1.357 . S
C152 H171 0.950 . S
Zn153 N147 2.020 1_545 S
Zn153 O156 2.025 . S
Zn153 O161 2.024 . S
Zn153 O163 2.039 . S
Zn153 O165 2.034 . S
O154 C138 1.251 . S
O154 Zn145 2.039 . S
C155 O160 1.246 . S
C155 O161 1.249 . S
O156 C138 1.254 . S
O156 Zn153 2.025 . S
H157 C149 0.952 . S
H158 C140 0.952 . S
H159 C148 0.948 . S
O160 Zn145 2.034 . S
O160 C155 1.246 . S
O161 Zn153 2.024 . S
O161 C155 1.249 . S
H162 C144 0.948 . S
O163 Zn153 2.039 . S
O163 C167 1.251 . S
O164 Zn145 2.025 . S
O164 C167 1.254 . S
O165 C146 1.245 1_554 S
O165 Zn153 2.034 . S
O166 Zn145 2.024 1_556 S
O166 C146 1.249 . S
C167 O163 1.251 . S
C167 O164 1.254 . S
H168 C141 0.949 . S
H169 C143 0.950 . S
H170 C150 0.949 . S
H171 C152 0.950 . S
C172 O188 1.251 . S
C172 O190 1.254 . S
N173 C174 1.333 . S
N173 C178 1.307 . S
N173 Zn179 2.020 . S
C174 N173 1.333 . S
C174 C175 1.379 . S
C174 H192 0.952 . S
C175 C174 1.379 . S
C175 C176 1.390 . S
C175 H202 0.949 . S
C176 C175 1.390 . S
C176 C177 1.357 . S
C177 C176 1.357 . S
C177 C178 1.370 . S
C177 H203 0.950 . S
C178 N173 1.307 . S
C178 C177 1.370 . S
C178 H196 0.948 . S
Zn179 N173 2.020 . S
Zn179 O188 2.039 . S
Zn179 O194 2.034 . S
Zn179 O198 2.025 . S
Zn179 O200 2.024 . S
C180 O199 1.246 . S
C180 O200 1.249 . S
N181 C182 1.307 . S
N181 C183 1.333 . S
N181 Zn187 2.020 . S
C182 N181 1.307 . S
C182 C186 1.370 . S
C182 H193 0.948 . S
C183 N181 1.333 . S
C183 C184 1.379 . S
C183 H191 0.952 . S
C184 C183 1.379 . S
C184 C185 1.390 . S
C184 H204 0.949 . S
C185 C184 1.390 . S
C185 C186 1.357 . S
C186 C182 1.370 . S
C186 C185 1.357 . S
C186 H205 0.950 . S
Zn187 N181 2.020 . S
Zn187 O190 2.025 . S
Zn187 O195 2.024 . S
Zn187 O197 2.039 . S
Zn187 O199 2.034 . S
O188 C172 1.251 . S
O188 Zn179 2.039 . S
C189 O194 1.246 . S
C189 O195 1.249 . S
O190 C172 1.254 . S
O190 Zn187 2.025 . S
H191 C183 0.952 . S
H192 C174 0.952 . S
H193 C182 0.948 . S
O194 Zn179 2.034 . S
O194 C189 1.246 . S
O195 Zn187 2.024 . S
O195 C189 1.249 . S
H196 C178 0.948 . S
O197 Zn187 2.039 . S
O197 C201 1.251 . S
O198 Zn179 2.025 . S
O198 C201 1.254 . S
O199 C180 1.246 . S
O199 Zn187 2.034 . S
O200 Zn179 2.024 . S
O200 C180 1.249 . S
C201 O197 1.251 . S
C201 O198 1.254 . S
H202 C175 0.949 . S
H203 C177 0.950 . S
H204 C184 0.949 . S
H205 C186 0.950 . S
C206 O222 1.251 1_556 S
C206 O224 1.254 1_655 S
N207 C208 1.333 . S
N207 C212 1.307 . S
N207 Zn213 2.020 1_655 S
C208 N207 1.333 . S
C208 C209 1.379 . S
C208 H226 0.952 . S
C209 C208 1.379 . S
C209 C210 1.390 . S
C209 H236 0.949 . S
C210 C209 1.390 . S
C210 C211 1.357 . S
C211 C210 1.357 . S
C211 C212 1.370 . S
C211 H237 0.950 . S
C212 N207 1.307 . S
C212 C211 1.370 . S
C212 H230 0.948 . S
Zn213 N207 2.020 1_455 S
Zn213 O222 2.039 1_455 S
Zn213 O228 2.034 . S
Zn213 O232 2.025 . S
Zn213 O234 2.024 1_455 S
C214 O233 1.246 . S
C214 O234 1.249 1_556 S
N215 C216 1.307 . S
N215 C217 1.333 . S
N215 Zn221 2.020 . S
C216 N215 1.307 . S
C216 C220 1.370 . S
C216 H227 0.948 . S
C217 N215 1.333 . S
C217 C218 1.379 . S
C217 H225 0.952 . S
C218 C217 1.379 . S
C218 C219 1.390 . S
C218 H238 0.949 . S
C219 C218 1.390 . S
C219 C220 1.357 . S
C220 C216 1.370 . S
C220 C219 1.357 . S
C220 H239 0.950 . S
Zn221 N215 2.020 . S
Zn221 O224 2.025 . S
Zn221 O229 2.024 . S
Zn221 O231 2.041 1_556 S
Zn221 O233 2.034 1_455 S
O222 C206 1.251 1_554 S
O222 Zn213 2.039 1_655 S
C223 O228 1.246 . S
C223 O229 1.249 1_554 S
O224 C206 1.254 1_455 S
O224 Zn221 2.025 . S
H225 C217 0.952 . S
H226 C208 0.952 . S
H227 C216 0.948 . S
O228 Zn213 2.034 . S
O228 C223 1.246 . S
O229 Zn221 2.024 . S
O229 C223 1.249 1_556 S
H230 C212 0.948 . S
O231 Zn221 2.041 1_554 S
O231 C235 1.247 . S
O232 Zn213 2.025 . S
O232 C235 1.254 . S
O233 C214 1.246 . S
O233 Zn221 2.034 1_655 S
O234 Zn213 2.024 1_655 S
O234 C214 1.249 1_554 S
C235 O231 1.247 . S
C235 O232 1.254 . S
H236 C209 0.949 . S
H237 C211 0.950 . S
H238 C218 0.949 . S
H239 C220 0.950 . S
C240 C241 1.391 . S
C240 C242 1.394 . S
C240 H256 0.931 . S
C241 C240 1.391 . S
C241 C245 1.376 . S
C242 C240 1.394 . S
C242 C243 1.369 . S
C242 C246 1.531 . S
C243 C242 1.369 . S
C243 C244 1.410 . S
C243 C251 1.503 . S
C244 C243 1.410 . S
C244 C245 1.392 . S
C244 C247 1.511 . S
C245 C241 1.376 . S
C245 C244 1.392 . S
C245 H257 0.929 . S
C246 C242 1.531 . S
C246 H258 0.960 . S
C246 H259 0.962 . S
C246 H260 0.960 . S
C247 C244 1.511 . S
C247 H261 0.961 . S
C247 H262 0.961 . S
C247 H263 0.961 . S
C248 C249 1.370 . S
C248 C250 1.363 . S
C248 H264 0.931 . S
C249 C248 1.370 . S
C249 C253 1.408 . S
C250 C248 1.363 . S
C250 C251 1.370 . S
C250 C254 1.524 . S
C251 C243 1.503 . S
C251 C250 1.370 . S
C251 C252 1.403 . S
C252 C251 1.403 . S
C252 C253 1.404 . S
C252 C255 1.539 . S
C253 C249 1.408 . S
C253 C252 1.404 . S
C253 H265 0.930 . S
C254 C250 1.524 . S
C254 H266 0.956 . S
C254 H267 0.961 . S
C254 H268 0.961 . S
C255 C252 1.539 . S
C255 H269 0.958 . S
C255 H270 0.961 . S
C255 H271 0.960 . S
H256 C240 0.931 . S
H257 C245 0.929 . S
H258 C246 0.960 . S
H259 C246 0.962 . S
H260 C246 0.960 . S
H261 C247 0.961 . S
H262 C247 0.961 . S
H263 C247 0.961 . S
H264 C248 0.931 . S
H265 C253 0.930 . S
H266 C254 0.956 . S
H267 C254 0.961 . S
H268 C254 0.961 . S
H269 C255 0.958 . S
H270 C255 0.961 . S
H271 C255 0.960 . S
C272 C273 1.391 1_545 S
C272 C274 1.394 . S
C272 H288 0.931 . S
C273 C272 1.391 1_565 S
C273 C277 1.376 . S
C274 C272 1.394 . S
C274 C275 1.369 1_545 S
C274 C278 1.531 . S
C275 C274 1.369 1_565 S
C275 C276 1.410 . S
C275 C283 1.503 1_565 S
C276 C275 1.410 . S
C276 C277 1.392 . S
C276 C279 1.511 . S
C277 C273 1.376 . S
C277 C276 1.392 . S
C277 H289 0.929 . S
C278 C274 1.531 . S
C278 H290 0.960 . S
C278 H291 0.962 . S
C278 H292 0.960 . S
C279 C276 1.511 . S
C279 H293 0.961 . S
C279 H294 0.961 . S
C279 H295 0.961 . S
C280 C281 1.370 . S
C280 C282 1.363 . S
C280 H296 0.931 . S
C281 C280 1.370 . S
C281 C285 1.408 . S
C282 C280 1.363 . S
C282 C283 1.370 . S
C282 C286 1.524 . S
C283 C275 1.503 1_545 S
C283 C282 1.370 . S
C283 C284 1.403 . S
C284 C283 1.403 . S
C284 C285 1.404 . S
C284 C287 1.539 . S
C285 C281 1.408 . S
C285 C284 1.404 . S
C285 H297 0.930 . S
C286 C282 1.524 . S
C286 H298 0.956 . S
C286 H299 0.961 1_545 S
C286 H300 0.961 . S
C287 C284 1.539 . S
C287 H301 0.958 . S
C287 H302 0.961 1_545 S
C287 H303 0.960 1_545 S
H288 C272 0.931 . S
H289 C277 0.929 . S
H290 C278 0.960 . S
H291 C278 0.962 . S
H292 C278 0.960 . S
H293 C279 0.961 . S
H294 C279 0.961 . S
H295 C279 0.961 . S
H296 C280 0.931 . S
H297 C285 0.930 . S
H298 C286 0.956 . S
H299 C286 0.961 1_565 S
H300 C286 0.961 . S
H301 C287 0.958 . S
H302 C287 0.961 1_565 S
H303 C287 0.960 1_565 S
C304 C305 1.391 . S
C304 C306 1.394 . S
C304 H320 0.931 . S
C305 C304 1.391 . S
C305 C309 1.376 . S
C306 C304 1.394 . S
C306 C307 1.369 . S
C306 C310 1.531 . S
C307 C306 1.369 . S
C307 C308 1.410 . S
C307 C315 1.503 . S
C308 C307 1.410 . S
C308 C309 1.392 . S
C308 C311 1.511 . S
C309 C305 1.376 . S
C309 C308 1.392 . S
C309 H321 0.929 . S
C310 C306 1.531 . S
C310 H322 0.960 . S
C310 H323 0.962 . S
C310 H324 0.960 . S
C311 C308 1.511 . S
C311 H325 0.961 . S
C311 H326 0.961 . S
C311 H327 0.961 . S
C312 C313 1.370 . S
C312 C314 1.363 . S
C312 H328 0.931 . S
C313 C312 1.370 . S
C313 C317 1.408 . S
C314 C312 1.363 . S
C314 C315 1.370 . S
C314 C318 1.524 . S
C315 C307 1.503 . S
C315 C314 1.370 . S
C315 C316 1.403 . S
C316 C315 1.403 . S
C316 C317 1.404 . S
C316 C319 1.539 . S
C317 C313 1.408 . S
C317 C316 1.404 . S
C317 H329 0.930 . S
C318 C314 1.524 . S
C318 H330 0.956 . S
C318 H331 0.961 . S
C318 H332 0.961 . S
C319 C316 1.539 . S
C319 H333 0.958 . S
C319 H334 0.961 . S
C319 H335 0.960 . S
H320 C304 0.931 . S
H321 C309 0.929 . S
H322 C310 0.960 . S
H323 C310 0.962 . S
H324 C310 0.960 . S
H325 C311 0.961 . S
H326 C311 0.961 . S
H327 C311 0.961 . S
H328 C312 0.931 . S
H329 C317 0.930 . S
H330 C318 0.956 . S
H331 C318 0.961 . S
H332 C318 0.961 . S
H333 C319 0.958 . S
H334 C319 0.961 . S
H335 C319 0.960 . S
C336 C337 1.391 . S
C336 C338 1.394 . S
C336 H352 0.931 . S
C337 C336 1.391 . S
C337 C341 1.376 . S
C338 C336 1.394 . S
C338 C339 1.369 . S
C338 C342 1.531 . S
C339 C338 1.369 . S
C339 C340 1.410 . S
C339 C347 1.503 . S
C340 C339 1.410 . S
C340 C341 1.392 . S
C340 C343 1.511 . S
C341 C337 1.376 . S
C341 C340 1.392 . S
C341 H353 0.929 . S
C342 C338 1.531 . S
C342 H354 0.960 . S
C342 H355 0.962 . S
C342 H356 0.960 . S
C343 C340 1.511 . S
C343 H357 0.961 . S
C343 H358 0.961 . S
C343 H359 0.961 . S
C344 C345 1.370 . S
C344 C346 1.363 . S
C344 H360 0.931 . S
C345 C344 1.370 . S
C345 C349 1.408 . S
C346 C344 1.363 . S
C346 C347 1.370 . S
C346 C350 1.524 . S
C347 C339 1.503 . S
C347 C346 1.370 . S
C347 C348 1.403 . S
C348 C347 1.403 . S
C348 C349 1.404 . S
C348 C351 1.539 . S
C349 C345 1.408 . S
C349 C348 1.404 . S
C349 H361 0.930 . S
C350 C346 1.524 . S
C350 H362 0.956 . S
C350 H363 0.961 . S
C350 H364 0.961 . S
C351 C348 1.539 . S
C351 H365 0.958 . S
C351 H366 0.961 . S
C351 H367 0.960 . S
H352 C336 0.931 . S
H353 C341 0.929 . S
H354 C342 0.960 . S
H355 C342 0.962 . S
H356 C342 0.960 . S
H357 C343 0.961 . S
H358 C343 0.961 . S
H359 C343 0.961 . S
H360 C344 0.931 . S
H361 C349 0.930 . S
H362 C350 0.956 . S
H363 C350 0.961 . S
H364 C350 0.961 . S
H365 C351 0.958 . S
H366 C351 0.961 . S
H367 C351 0.960 . S
C368 C369 1.391 . S
C368 C370 1.394 . S
C368 H384 0.931 . S
C369 C368 1.391 . S
C369 C373 1.376 . S
C370 C368 1.394 . S
C370 C371 1.369 . S
C370 C374 1.531 . S
C371 C370 1.369 . S
C371 C372 1.410 . S
C371 C379 1.503 . S
C372 C371 1.410 . S
C372 C373 1.392 . S
C372 C375 1.511 . S
C373 C369 1.376 . S
C373 C372 1.392 . S
C373 H385 0.929 . S
C374 C370 1.531 . S
C374 H386 0.960 . S
C374 H387 0.962 . S
C374 H388 0.960 . S
C375 C372 1.511 . S
C375 H389 0.961 . S
C375 H390 0.961 . S
C375 H391 0.961 . S
C376 C377 1.370 . S
C376 C378 1.363 . S
C376 H392 0.931 . S
C377 C376 1.370 . S
C377 C381 1.408 . S
C378 C376 1.363 . S
C378 C379 1.370 . S
C378 C382 1.524 . S
C379 C371 1.503 . S
C379 C378 1.370 . S
C379 C380 1.403 . S
C380 C379 1.403 . S
C380 C381 1.404 . S
C380 C383 1.539 . S
C381 C377 1.408 . S
C381 C380 1.404 . S
C381 H393 0.930 . S
C382 C378 1.524 . S
C382 H394 0.956 . S
C382 H395 0.961 . S
C382 H396 0.961 . S
C383 C380 1.539 . S
C383 H397 0.958 . S
C383 H398 0.961 1_554 S
C383 H399 0.960 . S
H384 C368 0.931 . S
H385 C373 0.929 . S
H386 C374 0.960 . S
H387 C374 0.962 . S
H388 C374 0.960 . S
H389 C375 0.961 . S
H390 C375 0.961 . S
H391 C375 0.961 . S
H392 C376 0.931 . S
H393 C381 0.930 . S
H394 C382 0.956 . S
H395 C382 0.961 . S
H396 C382 0.961 . S
H397 C383 0.958 . S
H398 C383 0.961 1_556 S
H399 C383 0.960 . S
C400 C401 1.391 1_545 S
C400 C402 1.394 . S
C400 H416 0.931 . S
C401 C400 1.391 1_565 S
C401 C405 1.376 . S
C402 C400 1.394 . S
C402 C403 1.369 1_545 S
C402 C406 1.531 . S
C403 C402 1.369 1_565 S
C403 C404 1.410 . S
C403 C411 1.503 1_565 S
C404 C403 1.410 . S
C404 C405 1.392 . S
C404 C407 1.511 . S
C405 C401 1.376 . S
C405 C404 1.392 . S
C405 H417 0.929 . S
C406 C402 1.531 . S
C406 H418 0.960 . S
C406 H419 0.962 . S
C406 H420 0.960 . S
C407 C404 1.511 . S
C407 H421 0.961 . S
C407 H422 0.961 . S
C407 H423 0.961 . S
C408 C409 1.370 1_565 S
C408 C410 1.363 . S
C408 H424 0.931 . S
C409 C408 1.370 1_545 S
C409 C413 1.408 . S
C410 C408 1.363 . S
C410 C411 1.370 1_565 S
C410 C414 1.524 . S
C411 C403 1.503 1_545 S
C411 C410 1.370 1_545 S
C411 C412 1.403 . S
C412 C411 1.403 . S
C412 C413 1.404 . S
C412 C415 1.539 . S
C413 C409 1.408 . S
C413 C412 1.404 . S
C413 H425 0.930 . S
C414 C410 1.524 . S
C414 H426 0.956 . S
C414 H427 0.961 . S
C414 H428 0.961 . S
C415 C412 1.539 . S
C415 H429 0.958 . S
C415 H430 0.961 . S
C415 H431 0.960 . S
H416 C400 0.931 . S
H417 C405 0.929 . S
H418 C406 0.960 . S
H419 C406 0.962 . S
H420 C406 0.960 . S
H421 C407 0.961 . S
H422 C407 0.961 . S
H423 C407 0.961 . S
H424 C408 0.931 . S
H425 C413 0.930 . S
H426 C414 0.956 . S
H427 C414 0.961 . S
H428 C414 0.961 . S
H429 C415 0.958 . S
H430 C415 0.961 . S
H431 C415 0.960 . S
C432 C433 1.391 . S
C432 C434 1.394 . S
C432 H448 0.931 . S
C433 C432 1.391 . S
C433 C437 1.376 . S
C434 C432 1.394 . S
C434 C435 1.369 . S
C434 C438 1.531 . S
C435 C434 1.369 . S
C435 C436 1.410 . S
C435 C443 1.503 . S
C436 C435 1.410 . S
C436 C437 1.392 . S
C436 C439 1.511 . S
C437 C433 1.376 . S
C437 C436 1.392 . S
C437 H449 0.929 . S
C438 C434 1.531 . S
C438 H450 0.960 . S
C438 H451 0.962 . S
C438 H452 0.960 . S
C439 C436 1.511 . S
C439 H453 0.961 . S
C439 H454 0.961 . S
C439 H455 0.961 . S
C440 C441 1.370 1_554 S
C440 C442 1.363 1_554 S
C440 H456 0.931 . S
C441 C440 1.370 1_556 S
C441 C445 1.408 . S
C442 C440 1.363 1_556 S
C442 C443 1.370 . S
C442 C446 1.524 1_556 S
C443 C435 1.503 . S
C443 C442 1.370 . S
C443 C444 1.403 . S
C444 C443 1.403 . S
C444 C445 1.404 . S
C444 C447 1.539 . S
C445 C441 1.408 . S
C445 C444 1.404 . S
C445 H457 0.930 . S
C446 C442 1.524 1_554 S
C446 H458 0.956 . S
C446 H459 0.961 . S
C446 H460 0.961 . S
C447 C444 1.539 . S
C447 H461 0.958 . S
C447 H462 0.961 . S
C447 H463 0.960 . S
H448 C432 0.931 . S
H449 C437 0.929 . S
H450 C438 0.960 . S
H451 C438 0.962 . S
H452 C438 0.960 . S
H453 C439 0.961 . S
H454 C439 0.961 . S
H455 C439 0.961 . S
H456 C440 0.931 . S
H457 C445 0.930 . S
H458 C446 0.956 . S
H459 C446 0.961 . S
H460 C446 0.961 . S
H461 C447 0.958 . S
H462 C447 0.961 . S
H463 C447 0.960 . S
C464 C465 1.391 . S
C464 C466 1.394 . S
C464 H480 0.931 . S
C465 C464 1.391 . S
C465 C469 1.376 . S
C466 C464 1.394 . S
C466 C467 1.369 . S
C466 C470 1.531 . S
C467 C466 1.369 . S
C467 C468 1.410 . S
C467 C475 1.503 . S
C468 C467 1.410 . S
C468 C469 1.392 . S
C468 C471 1.511 . S
C469 C465 1.376 . S
C469 C468 1.392 . S
C469 H481 0.929 . S
C470 C466 1.531 . S
C470 H482 0.960 . S
C470 H483 0.962 . S
C470 H484 0.960 . S
C471 C468 1.511 . S
C471 H485 0.961 . S
C471 H486 0.961 . S
C471 H487 0.961 . S
C472 C473 1.370 . S
C472 C474 1.363 . S
C472 H488 0.931 . S
C473 C472 1.370 . S
C473 C477 1.408 . S
C474 C472 1.363 . S
C474 C475 1.370 . S
C474 C478 1.524 . S
C475 C467 1.503 . S
C475 C474 1.370 . S
C475 C476 1.403 . S
C476 C475 1.403 . S
C476 C477 1.404 . S
C476 C479 1.539 . S
C477 C473 1.408 . S
C477 C476 1.404 . S
C477 H489 0.930 . S
C478 C474 1.524 . S
C478 H490 0.956 . S
C478 H491 0.961 . S
C478 H492 0.961 . S
C479 C476 1.539 . S
C479 H493 0.958 . S
C479 H494 0.961 . S
C479 H495 0.960 . S
H480 C464 0.931 . S
H481 C469 0.929 . S
H482 C470 0.960 . S
H483 C470 0.962 . S
H484 C470 0.960 . S
H485 C471 0.961 . S
H486 C471 0.961 . S
H487 C471 0.961 . S
H488 C472 0.931 . S
H489 C477 0.930 . S
H490 C478 0.956 . S
H491 C478 0.961 . S
H492 C478 0.961 . S
H493 C479 0.958 . S
H494 C479 0.961 . S
H495 C479 0.960 . S
C496 C497 1.391 . S
C496 C498 1.394 . S
C496 H512 0.931 . S
C497 C496 1.391 . S
C497 C501 1.376 . S
C498 C496 1.394 . S
C498 C499 1.369 . S
C498 C502 1.531 . S
C499 C498 1.369 . S
C499 C500 1.410 . S
C499 C507 1.503 . S
C500 C499 1.410 . S
C500 C501 1.392 . S
C500 C503 1.511 . S
C501 C497 1.376 . S
C501 C500 1.392 . S
C501 H513 0.929 . S
C502 C498 1.531 . S
C502 H514 0.960 . S
C502 H515 0.962 . S
C502 H516 0.960 . S
C503 C500 1.511 . S
C503 H517 0.961 . S
C503 H518 0.961 . S
C503 H519 0.961 . S
C504 C505 1.370 . S
C504 C506 1.363 . S
C504 H520 0.931 . S
C505 C504 1.370 . S
C505 C509 1.408 . S
C506 C504 1.363 . S
C506 C507 1.370 . S
C506 C510 1.524 . S
C507 C499 1.503 . S
C507 C506 1.370 . S
C507 C508 1.403 . S
C508 C507 1.403 . S
C508 C509 1.404 . S
C508 C511 1.539 . S
C509 C505 1.408 . S
C509 C508 1.404 . S
C509 H521 0.933 . S
C510 C506 1.524 . S
C510 H522 0.956 . S
C510 H523 0.961 . S
C510 H524 0.961 . S
C511 C508 1.539 . S
C511 H525 0.958 1_455 S
C511 H526 0.961 1_455 S
C511 H527 0.960 . S
H512 C496 0.931 . S
H513 C501 0.929 . S
H514 C502 0.960 . S
H515 C502 0.962 . S
H516 C502 0.960 . S
H517 C503 0.961 . S
H518 C503 0.961 . S
H519 C503 0.961 . S
H520 C504 0.931 . S
H521 C509 0.933 . S
H522 C510 0.956 . S
H523 C510 0.961 . S
H524 C510 0.961 . S
H525 C511 0.958 1_655 S
H526 C511 0.961 1_655 S
H527 C511 0.960 . S
C528 C529 1.391 . S
C528 C530 1.394 . S
C528 H544 0.931 . S
C529 C528 1.391 . S
C529 C533 1.376 . S
C530 C528 1.394 . S
C530 C531 1.369 . S
C530 C534 1.531 1_556 S
C531 C530 1.369 . S
C531 C532 1.410 . S
C531 C539 1.503 . S
C532 C531 1.410 . S
C532 C533 1.392 . S
C532 C535 1.511 . S
C533 C529 1.376 . S
C533 C532 1.392 . S
C533 H545 0.929 . S
C534 C530 1.531 1_554 S
C534 H546 0.960 . S
C534 H547 0.962 1_554 S
C534 H548 0.960 . S
C535 C532 1.511 . S
C535 H549 0.961 . S
C535 H550 0.961 . S
C535 H551 0.961 . S
C536 C537 1.370 . S
C536 C538 1.363 . S
C536 H552 0.931 . S
C537 C536 1.370 . S
C537 C541 1.408 1_556 S
C538 C536 1.363 . S
C538 C539 1.370 . S
C538 C542 1.524 . S
C539 C531 1.503 . S
C539 C538 1.370 . S
C539 C540 1.387 1_556 S
C540 C539 1.387 1_554 S
C540 C541 1.407 . S
C540 C543 1.552 . S
C541 C537 1.408 1_554 S
C541 C540 1.407 . S
C541 H553 0.930 . S
C542 C538 1.524 . S
C542 H554 0.956 . S
C542 H555 0.961 . S
C542 H556 0.961 . S
C543 C540 1.552 . S
C543 H557 0.958 . S
C543 H558 0.961 . S
C543 H559 0.960 . S
H544 C528 0.931 . S
H545 C533 0.929 . S
H546 C534 0.960 . S
H547 C534 0.962 1_556 S
H548 C534 0.960 . S
H549 C535 0.961 . S
H550 C535 0.961 . S
H551 C535 0.961 . S
H552 C536 0.931 . S
H553 C541 0.930 . S
H554 C542 0.956 . S
H555 C542 0.961 . S
H556 C542 0.961 . S
H557 C543 0.958 . S
H558 C543 0.961 . S
H559 C543 0.960 . S
C560 C561 1.391 . S
C560 C562 1.394 . S
C560 H576 0.931 . S
C561 C560 1.391 . S
C561 C565 1.376 . S
C562 C560 1.394 . S
C562 C563 1.369 . S
C562 C566 1.531 . S
C563 C562 1.369 . S
C563 C564 1.410 . S
C563 C571 1.503 . S
C564 C563 1.410 . S
C564 C565 1.392 . S
C564 C567 1.511 . S
C565 C561 1.376 . S
C565 C564 1.392 . S
C565 H577 0.929 . S
C566 C562 1.531 . S
C566 H578 0.960 . S
C566 H579 0.962 . S
C566 H580 0.960 . S
C567 C564 1.511 . S
C567 H581 0.961 . S
C567 H582 0.961 . S
C567 H583 0.961 . S
C568 C569 1.370 1_455 S
C568 C570 1.363 1_455 S
C568 H584 0.931 . S
C569 C568 1.370 1_655 S
C569 C573 1.408 . S
C570 C568 1.363 1_655 S
C570 C571 1.370 . S
C570 C574 1.524 1_655 S
C571 C563 1.503 . S
C571 C570 1.370 . S
C571 C572 1.403 . S
C572 C571 1.403 . S
C572 C573 1.404 . S
C572 C575 1.539 . S
C573 C569 1.408 . S
C573 C572 1.404 . S
C573 H585 0.930 . S
C574 C570 1.524 1_455 S
C574 H586 0.956 . S
C574 H587 0.961 . S
C574 H588 0.961 . S
C575 C572 1.539 . S
C575 H589 0.958 . S
C575 H590 0.961 . S
C575 H591 0.960 . S
H576 C560 0.931 . S
H577 C565 0.929 . S
H578 C566 0.960 . S
H579 C566 0.962 . S
H580 C566 0.960 . S
H581 C567 0.961 . S
H582 C567 0.961 . S
H583 C567 0.961 . S
H584 C568 0.931 . S
H585 C573 0.930 . S
H586 C574 0.956 . S
H587 C574 0.961 . S
H588 C574 0.961 . S
H589 C575 0.958 . S
H590 C575 0.961 . S
H591 C575 0.960 . S
C592 C593 1.391 . S
C592 C594 1.394 . S
C592 H608 0.931 . S
C593 C592 1.391 . S
C593 C597 1.376 . S
C594 C592 1.394 . S
C594 C595 1.369 . S
C594 C598 1.531 . S
C595 C594 1.369 . S
C595 C596 1.410 . S
C595 C603 1.503 . S
C596 C595 1.410 . S
C596 C597 1.392 . S
C596 C599 1.511 . S
C597 C593 1.376 . S
C597 C596 1.392 . S
C597 H609 0.929 . S
C598 C594 1.531 . S
C598 H610 0.960 . S
C598 H611 0.962 . S
C598 H612 0.960 . S
C599 C596 1.511 . S
C599 H613 0.961 . S
C599 H614 0.961 . S
C599 H615 0.961 . S
C600 C601 1.370 . S
C600 C602 1.363 . S
C600 H616 0.931 . S
C601 C600 1.370 . S
C601 C605 1.408 . S
C602 C600 1.363 . S
C602 C603 1.370 . S
C602 C606 1.524 . S
C603 C595 1.503 . S
C603 C602 1.370 . S
C603 C604 1.403 . S
C604 C603 1.403 . S
C604 C605 1.404 . S
C604 C607 1.539 . S
C605 C601 1.408 . S
C605 C604 1.404 . S
C605 H617 0.930 . S
C606 C602 1.524 . S
C606 H618 0.956 . S
C606 H619 0.961 . S
C606 H620 0.961 . S
C607 C604 1.539 . S
C607 H621 0.958 . S
C607 H622 0.961 . S
C607 H623 0.960 . S
H608 C592 0.931 . S
H609 C597 0.929 . S
H610 C598 0.960 . S
H611 C598 0.962 . S
H612 C598 0.960 . S
H613 C599 0.961 . S
H614 C599 0.961 . S
H615 C599 0.961 . S
H616 C600 0.931 . S
H617 C605 0.930 . S
H618 C606 0.956 . S
H619 C606 0.961 . S
H620 C606 0.961 . S
H621 C607 0.958 . S
H622 C607 0.961 . S
H623 C607 0.960 . S
C624 C625 1.391 . S
C624 C626 1.394 1_655 S
C624 H640 0.931 1_655 S
C625 C624 1.391 . S
C625 C629 1.376 . S
C626 C624 1.394 1_455 S
C626 C627 1.369 1_455 S
C626 C630 1.531 . S
C627 C626 1.369 1_655 S
C627 C628 1.410 . S
C627 C635 1.503 . S
C628 C627 1.410 . S
C628 C629 1.392 . S
C628 C631 1.511 . S
C629 C625 1.376 . S
C629 C628 1.392 . S
C629 H641 0.929 . S
C630 C626 1.531 . S
C630 H642 0.960 . S
C630 H643 0.961 1_565 S
C630 H644 0.960 . S
C631 C628 1.511 . S
C631 H645 0.961 . S
C631 H646 0.961 1_565 S
C631 H647 0.961 . S
C632 C633 1.370 . S
C632 C634 1.363 . S
C632 H648 0.931 . S
C633 C632 1.370 . S
C633 C637 1.408 1_545 S
C634 C632 1.363 . S
C634 C635 1.370 1_445 S
C634 C638 1.524 1_455 S
C635 C627 1.503 . S
C635 C634 1.370 1_665 S
C635 C636 1.403 1_655 S
C636 C635 1.403 1_455 S
C636 C637 1.404 . S
C636 C639 1.539 1_455 S
C637 C633 1.408 1_565 S
C637 C636 1.404 . S
C637 H649 0.930 . S
C638 C634 1.524 1_655 S
C638 H650 0.956 1_655 S
C638 H651 0.961 . S
C638 H652 0.961 . S
C639 C636 1.539 1_655 S
C639 H653 0.958 1_655 S
C639 H654 0.961 . S
C639 H655 0.960 . S
H640 C624 0.931 1_455 S
H641 C629 0.929 . S
H642 C630 0.960 . S
H643 C630 0.961 1_545 S
H644 C630 0.960 . S
H645 C631 0.961 . S
H646 C631 0.961 1_545 S
H647 C631 0.961 . S
H648 C632 0.931 . S
H649 C637 0.930 . S
H650 C638 0.956 1_455 S
H651 C638 0.961 . S
H652 C638 0.961 . S
H653 C639 0.958 1_455 S
H654 C639 0.961 . S
H655 C639 0.960 . S
C656 C657 1.391 . S
C656 C658 1.394 . S
C656 H672 0.931 . S
C657 C656 1.391 . S
C657 C661 1.376 . S
C658 C656 1.394 . S
C658 C659 1.369 . S
C658 C662 1.531 . S
C659 C658 1.369 . S
C659 C660 1.410 . S
C659 C667 1.503 . S
C660 C659 1.410 . S
C660 C661 1.392 . S
C660 C663 1.511 . S
C661 C657 1.376 . S
C661 C660 1.392 . S
C661 H673 0.929 . S
C662 C658 1.531 . S
C662 H674 0.960 . S
C662 H675 0.962 . S
C662 H676 0.960 . S
C663 C660 1.511 . S
C663 H677 0.961 . S
C663 H678 0.961 . S
C663 H679 0.961 . S
C664 C665 1.370 . S
C664 C666 1.363 . S
C664 H680 0.931 . S
C665 C664 1.370 . S
C665 C669 1.408 . S
C666 C664 1.363 . S
C666 C667 1.370 . S
C666 C670 1.524 . S
C667 C659 1.503 . S
C667 C666 1.370 . S
C667 C668 1.403 . S
C668 C667 1.403 . S
C668 C669 1.404 . S
C668 C671 1.539 . S
C669 C665 1.408 . S
C669 C668 1.404 . S
C669 H681 0.930 . S
C670 C666 1.524 . S
C670 H682 0.956 . S
C670 H683 0.961 . S
C670 H684 0.961 . S
C671 C668 1.539 . S
C671 H685 0.958 . S
C671 H686 0.961 . S
C671 H687 0.960 . S
H672 C656 0.931 . S
H673 C661 0.929 . S
H674 C662 0.960 . S
H675 C662 0.962 . S
H676 C662 0.960 . S
H677 C663 0.961 . S
H678 C663 0.961 . S
H679 C663 0.961 . S
H680 C664 0.931 . S
H681 C669 0.930 . S
H682 C670 0.956 . S
H683 C670 0.961 . S
H684 C670 0.961 . S
H685 C671 0.958 . S
H686 C671 0.961 . S
H687 C671 0.960 . S
C688 C689 1.391 . S
C688 C690 1.394 . S
C688 H704 0.931 . S
C689 C688 1.391 . S
C689 C693 1.376 . S
C690 C688 1.394 . S
C690 C691 1.369 . S
C690 C694 1.531 . S
C691 C690 1.369 . S
C691 C692 1.410 . S
C691 C699 1.503 . S
C692 C691 1.410 . S
C692 C693 1.392 . S
C692 C695 1.511 . S
C693 C689 1.376 . S
C693 C692 1.392 . S
C693 H705 0.929 . S
C694 C690 1.531 . S
C694 H706 0.960 . S
C694 H707 0.962 . S
C694 H708 0.960 . S
C695 C692 1.511 . S
C695 H709 0.961 . S
C695 H710 0.961 . S
C695 H711 0.961 . S
C696 C697 1.370 . S
C696 C698 1.363 . S
C696 H712 0.931 . S
C697 C696 1.370 . S
C697 C701 1.408 . S
C698 C696 1.363 . S
C698 C699 1.370 . S
C698 C702 1.524 . S
C699 C691 1.503 . S
C699 C698 1.370 . S
C699 C700 1.403 . S
C700 C699 1.403 . S
C700 C701 1.404 . S
C700 C703 1.539 . S
C701 C697 1.408 . S
C701 C700 1.404 . S
C701 H713 0.930 . S
C702 C698 1.524 . S
C702 H714 0.956 . S
C702 H715 0.961 . S
C702 H716 0.961 . S
C703 C700 1.539 . S
C703 H717 0.958 . S
C703 H718 0.961 . S
C703 H719 0.960 . S
H704 C688 0.931 . S
H705 C693 0.929 . S
H706 C694 0.960 . S
H707 C694 0.962 . S
H708 C694 0.960 . S
H709 C695 0.961 . S
H710 C695 0.961 . S
H711 C695 0.961 . S
H712 C696 0.931 . S
H713 C701 0.930 . S
H714 C702 0.956 . S
H715 C702 0.961 . S
H716 C702 0.961 . S
H717 C703 0.958 . S
H718 C703 0.961 . S
H719 C703 0.960 . S
C720 C721 1.391 . S
C720 C722 1.394 . S
C720 H736 0.931 . S
C721 C720 1.391 . S
C721 C725 1.376 . S
C722 C720 1.394 . S
C722 C723 1.369 . S
C722 C726 1.531 . S
C723 C722 1.369 . S
C723 C724 1.410 . S
C723 C731 1.503 . S
C724 C723 1.410 . S
C724 C725 1.392 . S
C724 C727 1.511 . S
C725 C721 1.376 . S
C725 C724 1.392 . S
C725 H737 0.929 . S
C726 C722 1.531 . S
C726 H738 0.960 . S
C726 H739 0.962 . S
C726 H740 0.960 . S
C727 C724 1.511 . S
C727 H741 0.961 . S
C727 H742 0.961 . S
C727 H743 0.961 . S
C728 C729 1.370 . S
C728 C730 1.363 . S
C728 H744 0.931 . S
C729 C728 1.370 . S
C729 C733 1.408 . S
C730 C728 1.363 . S
C730 C731 1.370 . S
C730 C734 1.524 . S
C731 C723 1.503 . S
C731 C730 1.370 . S
C731 C732 1.403 . S
C732 C731 1.403 . S
C732 C733 1.404 . S
C732 C735 1.539 . S
C733 C729 1.408 . S
C733 C732 1.404 . S
C733 H745 0.930 . S
C734 C730 1.524 . S
C734 H746 0.956 . S
C734 H747 0.961 . S
C734 H748 0.961 . S
C735 C732 1.539 . S
C735 H749 0.958 . S
C735 H750 0.961 . S
C735 H751 0.960 . S
H736 C720 0.931 . S
H737 C725 0.929 . S
H738 C726 0.960 . S
H739 C726 0.962 . S
H740 C726 0.960 . S
H741 C727 0.961 . S
H742 C727 0.961 . S
H743 C727 0.961 . S
H744 C728 0.931 . S
H745 C733 0.930 . S
H746 C734 0.956 . S
H747 C734 0.961 . S
H748 C734 0.961 . S
H749 C735 0.958 . S
H750 C735 0.961 . S
H751 C735 0.960 . S
C752 C753 1.391 . S
C752 C754 1.394 1_565 S
C752 H768 0.931 . S
C753 C752 1.391 . S
C753 C757 1.376 . S
C754 C752 1.394 1_545 S
C754 C755 1.369 . S
C754 C758 1.531 1_556 S
C755 C754 1.369 . S
C755 C756 1.410 . S
C755 C763 1.503 . S
C756 C755 1.410 . S
C756 C757 1.392 1_545 S
C756 C759 1.511 . S
C757 C753 1.376 . S
C757 C756 1.392 1_565 S
C757 H769 0.929 . S
C758 C754 1.531 1_554 S
C758 H770 0.960 . S
C758 H771 0.962 1_545 S
C758 H772 0.960 . S
C759 C756 1.511 . S
C759 H773 0.961 1_545 S
C759 H774 0.961 . S
C759 H775 0.961 . S
C760 C761 1.370 1_565 S
C760 C762 1.363 1_554 S
C760 H776 0.931 . S
C761 C760 1.370 1_545 S
C761 C765 1.408 1_554 S
C762 C760 1.363 1_556 S
C762 C763 1.370 1_565 S
C762 C766 1.524 . S
C763 C755 1.503 . S
C763 C762 1.370 1_545 S
C763 C764 1.403 . S
C764 C763 1.403 . S
C764 C765 1.404 . S
C764 C767 1.539 . S
C765 C761 1.408 1_556 S
C765 C764 1.404 . S
C765 H777 0.930 . S
C766 C762 1.524 . S
C766 H778 0.956 . S
C766 H779 0.961 . S
C766 H780 0.961 . S
C767 C764 1.539 . S
C767 H781 0.958 . S
C767 H782 0.961 . S
C767 H783 0.960 . S
H768 C752 0.931 . S
H769 C757 0.929 . S
H770 C758 0.960 . S
H771 C758 0.962 1_565 S
H772 C758 0.960 . S
H773 C759 0.961 1_565 S
H774 C759 0.961 . S
H775 C759 0.961 . S
H776 C760 0.931 . S
H777 C765 0.930 . S
H778 C766 0.956 . S
H779 C766 0.961 . S
H780 C766 0.961 . S
H781 C767 0.958 . S
H782 C767 0.961 . S
H783 C767 0.960 . S
C784 C785 1.391 . S
C784 C786 1.394 . S
C784 H800 0.931 . S
C785 C784 1.391 . S
C785 C789 1.376 . S
C786 C784 1.394 . S
C786 C787 1.369 . S
C786 C790 1.531 . S
C787 C786 1.369 . S
C787 C788 1.410 . S
C787 C795 1.503 . S
C788 C787 1.410 . S
C788 C789 1.392 . S
C788 C791 1.511 . S
C789 C785 1.376 . S
C789 C788 1.392 . S
C789 H801 0.929 . S
C790 C786 1.531 . S
C790 H802 0.960 . S
C790 H803 0.962 . S
C790 H804 0.960 . S
C791 C788 1.511 . S
C791 H805 0.961 . S
C791 H806 0.961 . S
C791 H807 0.961 . S
C792 C793 1.370 . S
C792 C794 1.363 . S
C792 H808 0.931 . S
C793 C792 1.370 . S
C793 C797 1.408 . S
C794 C792 1.363 . S
C794 C795 1.370 . S
C794 C798 1.524 . S
C795 C787 1.503 . S
C795 C794 1.370 . S
C795 C796 1.403 . S
C796 C795 1.403 . S
C796 C797 1.404 . S
C796 C799 1.539 . S
C797 C793 1.408 . S
C797 C796 1.404 . S
C797 H809 0.930 . S
C798 C794 1.524 . S
C798 H810 0.956 . S
C798 H811 0.961 . S
C798 H812 0.961 . S
C799 C796 1.539 . S
C799 H813 0.958 . S
C799 H814 0.961 . S
C799 H815 0.960 . S
H800 C784 0.931 . S
H801 C789 0.929 . S
H802 C790 0.960 . S
H803 C790 0.962 . S
H804 C790 0.960 . S
H805 C791 0.961 . S
H806 C791 0.961 . S
H807 C791 0.961 . S
H808 C792 0.931 . S
H809 C797 0.930 . S
H810 C798 0.956 . S
H811 C798 0.961 . S
H812 C798 0.961 . S
H813 C799 0.958 . S
H814 C799 0.961 . S
H815 C799 0.960 . S
C816 C817 1.391 . S
C816 C818 1.394 . S
C816 H832 0.931 . S
C817 C816 1.391 . S
C817 C821 1.376 . S
C818 C816 1.394 . S
C818 C819 1.369 . S
C818 C822 1.531 . S
C819 C818 1.369 . S
C819 C820 1.410 . S
C819 C827 1.503 . S
C820 C819 1.410 . S
C820 C821 1.392 . S
C820 C823 1.511 . S
C821 C817 1.376 . S
C821 C820 1.392 . S
C821 H833 0.929 . S
C822 C818 1.531 . S
C822 H834 0.960 . S
C822 H835 0.962 . S
C822 H836 0.960 . S
C823 C820 1.511 . S
C823 H837 0.961 . S
C823 H838 0.961 . S
C823 H839 0.961 1_554 S
C824 C825 1.370 . S
C824 C826 1.363 . S
C824 H840 0.931 . S
C825 C824 1.370 . S
C825 C829 1.408 . S
C826 C824 1.363 . S
C826 C827 1.370 . S
C826 C830 1.524 . S
C827 C819 1.503 . S
C827 C826 1.370 . S
C827 C828 1.403 . S
C828 C827 1.403 . S
C828 C829 1.404 . S
C828 C831 1.539 1_554 S
C829 C825 1.408 . S
C829 C828 1.404 . S
C829 H841 0.930 1_554 S
C830 C826 1.524 . S
C830 H842 0.956 . S
C830 H843 0.961 . S
C830 H844 0.961 . S
C831 C828 1.539 1_556 S
C831 H845 0.950 1_556 S
C831 H846 0.961 . S
C831 H847 0.960 . S
H832 C816 0.931 . S
H833 C821 0.929 . S
H834 C822 0.960 . S
H835 C822 0.962 . S
H836 C822 0.960 . S
H837 C823 0.961 . S
H838 C823 0.961 . S
H839 C823 0.961 1_556 S
H840 C824 0.931 . S
H841 C829 0.930 1_556 S
H842 C830 0.956 . S
H843 C830 0.961 . S
H844 C830 0.961 . S
H845 C831 0.950 1_554 S
H846 C831 0.961 . S
H847 C831 0.960 . S
C848 C849 1.391 . S
C848 C850 1.394 . S
C848 H864 0.931 . S
C849 C848 1.391 . S
C849 C853 1.376 . S
C850 C848 1.394 . S
C850 C851 1.369 . S
C850 C854 1.531 . S
C851 C850 1.369 . S
C851 C852 1.410 . S
C851 C859 1.503 . S
C852 C851 1.410 . S
C852 C853 1.392 . S
C852 C855 1.511 . S
C853 C849 1.376 . S
C853 C852 1.392 . S
C853 H865 0.929 . S
C854 C850 1.531 . S
C854 H866 0.960 . S
C854 H867 0.962 . S
C854 H868 0.960 . S
C855 C852 1.511 . S
C855 H869 0.961 . S
C855 H870 0.961 . S
C855 H871 0.961 . S
C856 C857 1.370 . S
C856 C858 1.363 . S
C856 H872 0.931 . S
C857 C856 1.370 . S
C857 C861 1.408 . S
C858 C856 1.363 . S
C858 C859 1.370 . S
C858 C862 1.524 . S
C859 C851 1.503 . S
C859 C858 1.370 . S
C859 C860 1.403 . S
C860 C859 1.403 . S
C860 C861 1.404 . S
C860 C863 1.539 . S
C861 C857 1.408 . S
C861 C860 1.404 . S
C861 H873 0.930 . S
C862 C858 1.524 . S
C862 H874 0.956 . S
C862 H875 0.961 . S
C862 H876 0.961 . S
C863 C860 1.539 . S
C863 H877 0.958 . S
C863 H878 0.961 . S
C863 H879 0.960 . S
H864 C848 0.931 . S
H865 C853 0.929 . S
H866 C854 0.960 . S
H867 C854 0.962 . S
H868 C854 0.960 . S
H869 C855 0.961 . S
H870 C855 0.961 . S
H871 C855 0.961 . S
H872 C856 0.931 . S
H873 C861 0.930 . S
H874 C862 0.956 . S
H875 C862 0.961 . S
H876 C862 0.961 . S
H877 C863 0.958 . S
H878 C863 0.961 . S
H879 C863 0.960 . S
C880 C881 1.391 . S
C880 C882 1.394 . S
C880 H896 0.931 . S
C881 C880 1.391 . S
C881 C885 1.376 . S
C882 C880 1.394 . S
C882 C883 1.369 . S
C882 C886 1.531 . S
C883 C882 1.369 . S
C883 C884 1.410 . S
C883 C891 1.503 . S
C884 C883 1.410 . S
C884 C885 1.392 . S
C884 C887 1.511 1_655 S
C885 C881 1.376 . S
C885 C884 1.392 . S
C885 H897 0.929 . S
C886 C882 1.531 . S
C886 H898 0.960 . S
C886 H899 0.962 . S
C886 H900 0.960 . S
C887 C884 1.511 1_455 S
C887 H901 0.961 . S
C887 H902 0.961 . S
C887 H903 0.961 . S
C888 C889 1.370 . S
C888 C890 1.363 . S
C888 H904 0.931 1_556 S
C889 C888 1.370 . S
C889 C893 1.408 1_655 S
C890 C888 1.363 . S
C890 C891 1.370 . S
C890 C894 1.524 . S
C891 C883 1.503 . S
C891 C890 1.370 . S
C891 C892 1.403 . S
C892 C891 1.403 . S
C892 C893 1.404 1_655 S
C892 C895 1.539 1_655 S
C893 C889 1.408 1_455 S
C893 C892 1.404 1_455 S
C893 H905 0.930 . S
C894 C890 1.524 . S
C894 H906 0.956 . S
C894 H907 0.961 . S
C894 H908 0.961 1_556 S
C895 C892 1.539 1_455 S
C895 H909 0.958 . S
C895 H910 0.961 . S
C895 H911 0.960 . S
H896 C880 0.931 . S
H897 C885 0.929 . S
H898 C886 0.960 . S
H899 C886 0.962 . S
H900 C886 0.960 . S
H901 C887 0.961 . S
H902 C887 0.961 . S
H903 C887 0.961 . S
H904 C888 0.931 1_554 S
H905 C893 0.930 . S
H906 C894 0.956 . S
H907 C894 0.961 . S
H908 C894 0.961 1_554 S
H909 C895 0.958 . S
H910 C895 0.961 . S
H911 C895 0.960 . S
C912 C913 1.391 . S
C912 C914 1.394 . S
C912 H928 0.931 . S
C913 C912 1.391 . S
C913 C917 1.376 . S
C914 C912 1.394 . S
C914 C915 1.369 . S
C914 C918 1.531 . S
C915 C914 1.369 . S
C915 C916 1.410 . S
C915 C923 1.503 . S
C916 C915 1.410 . S
C916 C917 1.392 . S
C916 C919 1.511 . S
C917 C913 1.376 . S
C917 C916 1.392 . S
C917 H929 0.929 . S
C918 C914 1.531 . S
C918 H930 0.960 . S
C918 H931 0.962 . S
C918 H932 0.960 . S
C919 C916 1.511 . S
C919 H933 0.961 . S
C919 H934 0.961 . S
C919 H935 0.961 . S
C920 C921 1.370 . S
C920 C922 1.363 . S
C920 H936 0.931 . S
C921 C920 1.370 . S
C921 C925 1.408 . S
C922 C920 1.363 . S
C922 C923 1.370 . S
C922 C926 1.524 . S
C923 C915 1.503 . S
C923 C922 1.370 . S
C923 C924 1.403 . S
C924 C923 1.403 . S
C924 C925 1.404 . S
C924 C927 1.539 . S
C925 C921 1.408 . S
C925 C924 1.404 . S
C925 H937 0.930 . S
C926 C922 1.524 . S
C926 H938 0.956 . S
C926 H939 0.961 . S
C926 H940 0.961 . S
C927 C924 1.539 . S
C927 H941 0.958 . S
C927 H942 0.961 . S
C927 H943 0.960 . S
H928 C912 0.931 . S
H929 C917 0.929 . S
H930 C918 0.960 . S
H931 C918 0.962 . S
H932 C918 0.960 . S
H933 C919 0.961 . S
H934 C919 0.961 . S
H935 C919 0.961 . S
H936 C920 0.931 . S
H937 C925 0.930 . S
H938 C926 0.956 . S
H939 C926 0.961 . S
H940 C926 0.961 . S
H941 C927 0.958 . S
H942 C927 0.961 . S
H943 C927 0.960 . S
C944 C945 1.391 . S
C944 C946 1.394 . S
C944 H960 0.931 . S
C945 C944 1.391 . S
C945 C949 1.376 . S
C946 C944 1.394 . S
C946 C947 1.369 . S
C946 C950 1.531 . S
C947 C946 1.369 . S
C947 C948 1.410 . S
C947 C955 1.503 . S
C948 C947 1.410 . S
C948 C949 1.392 . S
C948 C951 1.511 . S
C949 C945 1.376 . S
C949 C948 1.392 . S
C949 H961 0.929 . S
C950 C946 1.531 . S
C950 H962 0.960 . S
C950 H963 0.962 . S
C950 H964 0.960 . S
C951 C948 1.511 . S
C951 H965 0.961 . S
C951 H966 0.961 . S
C951 H967 0.961 . S
C952 C953 1.370 . S
C952 C954 1.363 . S
C952 H968 0.931 . S
C953 C952 1.370 . S
C953 C957 1.408 . S
C954 C952 1.363 . S
C954 C955 1.370 . S
C954 C958 1.524 . S
C955 C947 1.503 . S
C955 C954 1.370 . S
C955 C956 1.403 . S
C956 C955 1.403 . S
C956 C957 1.404 . S
C956 C959 1.539 . S
C957 C953 1.408 . S
C957 C956 1.404 . S
C957 H969 0.930 . S
C958 C954 1.524 . S
C958 H970 0.956 . S
C958 H971 0.961 . S
C958 H972 0.961 . S
C959 C956 1.539 . S
C959 H973 0.958 . S
C959 H974 0.961 . S
C959 H975 0.960 . S
H960 C944 0.931 . S
H961 C949 0.929 . S
H962 C950 0.960 . S
H963 C950 0.962 . S
H964 C950 0.960 . S
H965 C951 0.961 . S
H966 C951 0.961 . S
H967 C951 0.961 . S
H968 C952 0.931 . S
H969 C957 0.930 . S
H970 C958 0.956 . S
H971 C958 0.961 . S
H972 C958 0.961 . S
H973 C959 0.958 . S
H974 C959 0.961 . S
H975 C959 0.960 . S
C976 C977 1.391 . S
C976 C978 1.394 . S
C976 H992 0.931 . S
C977 C976 1.391 . S
C977 C981 1.376 . S
C978 C976 1.394 . S
C978 C979 1.369 . S
C978 C982 1.531 . S
C979 C978 1.369 . S
C979 C980 1.410 . S
C979 C987 1.503 . S
C980 C979 1.410 . S
C980 C981 1.392 . S
C980 C983 1.511 . S
C981 C977 1.376 . S
C981 C980 1.392 . S
C981 H993 0.929 . S
C982 C978 1.531 . S
C982 H994 0.960 . S
C982 H995 0.962 . S
C982 H996 0.960 . S
C983 C980 1.511 . S
C983 H997 0.961 . S
C983 H998 0.961 . S
C983 H999 0.961 . S
C984 C985 1.370 . S
C984 C986 1.363 . S
C984 H1000 0.931 . S
C985 C984 1.370 . S
C985 C989 1.408 . S
C986 C984 1.363 . S
C986 C987 1.370 . S
C986 C990 1.524 . S
C987 C979 1.503 . S
C987 C986 1.370 . S
C987 C988 1.403 . S
C988 C987 1.403 . S
C988 C989 1.404 . S
C988 C991 1.539 . S
C989 C985 1.408 . S
C989 C988 1.404 . S
C989 H1001 0.930 . S
C990 C986 1.524 . S
C990 H1002 0.956 . S
C990 H1003 0.961 . S
C990 H1004 0.961 . S
C991 C988 1.539 . S
C991 H1005 0.958 . S
C991 H1006 0.961 . S
C991 H1007 0.960 . S
H992 C976 0.931 . S
H993 C981 0.929 . S
H994 C982 0.960 . S
H995 C982 0.962 . S
H996 C982 0.960 . S
H997 C983 0.961 . S
H998 C983 0.961 . S
H999 C983 0.961 . S
H1000 C984 0.931 . S
H1001 C989 0.930 . S
H1002 C990 0.956 . S
H1003 C990 0.961 . S
H1004 C990 0.961 . S
H1005 C991 0.958 . S
H1006 C991 0.961 . S
H1007 C991 0.960 . S
C241 N1 2.142 . S
C249 C104 2.205 . S
C273 N18 2.589 . S
C281 C146 2.634 . S
C313 C176 0.610 . S
C305 N28 0.634 . S
C337 N40 1.136 . S
C345 C210 1.158 . S
C377 C167 2.205 . S
C369 N5 2.153 . S
C409 C121 1.896 . S
C401 N14 1.826 . S
C441 C214 1.285 . S
C433 N31 1.205 . S
C473 C180 0.871 . S
C465 N41 0.845 . S
C497 N2 2.070 . S
C505 C235 2.087 . S
C537 C142 1.159 . S
C529 N27 1.155 . S
C561 N44 1.233 . S
C569 C117 1.256 1_655 S
C593 N15 1.965 . S
C601 C201 1.963 . S
C633 C133 2.616 . S
C625 N57 2.578 . S
C657 N70 2.003 . S
C665 C155 2.055 . S
C689 N79 0.966 . S
C697 C185 0.938 . S
C721 N93 0.787 . S
C729 C219 0.830 . S
C753 N54 1.756 . S
C761 C138 1.754 . S
C793 C112 2.270 . S
C785 N66 2.229 . S
C825 C223 0.636 . S
C817 N80 0.672 . S
C857 C189 1.387 . S
C849 N96 1.360 . S
C881 N53 2.099 . S
C889 C206 2.136 . S
C921 C151 1.177 . S
C913 N83 1.163 . S
C953 C108 1.234 . S
C945 N92 1.144 . S
C977 N67 2.048 . S
C985 C172 2.063 . S
