# Generated by pormake.
# Topology zzz, (3,6)-cn, num edge types: 1
# Building blocks:
#     Node 0, Type 0, BuildingBlock: PAMTOO_clean_linker_0, # of connection points: 3
#     Node 1, Type 0, BuildingBlock: PAMTOO_clean_linker_0, # of connection points: 3
#     Node 2, Type 0, BuildingBlock: PAMTOO_clean_linker_0, # of connection points: 3
#     Node 3, Type 0, BuildingBlock: PAMTOO_clean_linker_0, # of connection points: 3
#     Node 4, Type 0, BuildingBlock: PAMTOO_clean_linker_0, # of connection points: 3
#     Node 5, Type 0, BuildingBlock: PAMTOO_clean_linker_0, # of connection points: 3
#     Node 6, Type 0, BuildingBlock: PAMTOO_clean_linker_0, # of connection points: 3
#     Node 7, Type 0, BuildingBlock: PAMTOO_clean_linker_0, # of connection points: 3
#     Node 8, Type 1, BuildingBlock: VOLQOD_clean_sbu_1, # of connection points: 6
#     Node 9, Type 1, BuildingBlock: VOLQOD_clean_sbu_1, # of connection points: 6
#     Node 10, Type 1, BuildingBlock: VOLQOD_clean_sbu_1, # of connection points: 6
#     Node 11, Type 1, BuildingBlock: VOLQOD_clean_sbu_1, # of connection points: 6
#     Edge 12, Type (0, 1), BuildingBlock: XUDNAN_clean_linker_2, # of connection points: 2
#     Edge 13, Type (0, 1), BuildingBlock: XUDNAN_clean_linker_2, # of connection points: 2
#     Edge 14, Type (0, 1), BuildingBlock: XUDNAN_clean_linker_2, # of connection points: 2
#     Edge 15, Type (0, 1), BuildingBlock: XUDNAN_clean_linker_2, # of connection points: 2
#     Edge 16, Type (0, 1), BuildingBlock: XUDNAN_clean_linker_2, # of connection points: 2
#     Edge 17, Type (0, 1), BuildingBlock: XUDNAN_clean_linker_2, # of connection points: 2
#     Edge 18, Type (0, 1), BuildingBlock: XUDNAN_clean_linker_2, # of connection points: 2
#     Edge 19, Type (0, 1), BuildingBlock: XUDNAN_clean_linker_2, # of connection points: 2
#     Edge 20, Type (0, 1), BuildingBlock: XUDNAN_clean_linker_2, # of connection points: 2
#     Edge 21, Type (0, 1), BuildingBlock: XUDNAN_clean_linker_2, # of connection points: 2
#     Edge 22, Type (0, 1), BuildingBlock: XUDNAN_clean_linker_2, # of connection points: 2
#     Edge 23, Type (0, 1), BuildingBlock: XUDNAN_clean_linker_2, # of connection points: 2
#     Edge 24, Type (0, 1), BuildingBlock: XUDNAN_clean_linker_2, # of connection points: 2
#     Edge 25, Type (0, 1), BuildingBlock: XUDNAN_clean_linker_2, # of connection points: 2
#     Edge 26, Type (0, 1), BuildingBlock: XUDNAN_clean_linker_2, # of connection points: 2
#     Edge 27, Type (0, 1), BuildingBlock: XUDNAN_clean_linker_2, # of connection points: 2
#     Edge 28, Type (0, 1), BuildingBlock: XUDNAN_clean_linker_2, # of connection points: 2
#     Edge 29, Type (0, 1), BuildingBlock: XUDNAN_clean_linker_2, # of connection points: 2
#     Edge 30, Type (0, 1), BuildingBlock: XUDNAN_clean_linker_2, # of connection points: 2
#     Edge 31, Type (0, 1), BuildingBlock: XUDNAN_clean_linker_2, # of connection points: 2
#     Edge 32, Type (0, 1), BuildingBlock: XUDNAN_clean_linker_2, # of connection points: 2
#     Edge 33, Type (0, 1), BuildingBlock: XUDNAN_clean_linker_2, # of connection points: 2
#     Edge 34, Type (0, 1), BuildingBlock: XUDNAN_clean_linker_2, # of connection points: 2
#     Edge 35, Type (0, 1), BuildingBlock: XUDNAN_clean_linker_2, # of connection points: 2
# Relax obj value: 0.194
# Max RMSD: 0.236
# Mean RMSD: 0.108
data_MOF--net-zzz--node1-VOLQOD_clean_sbu_1--node2-PAMTOO_clean_linker_0--edge1-XUDNAN_clean_linker_2
_symmetry_space_group_name_H-M    P1
_symmetry_Int_Tables_number       1
_symmetry_cell_setting            triclinic
loop_
_symmetry_equiv_pos_as_xyz
'x, y, z'
_cell_length_a     51.023606
_cell_length_b     50.901221
_cell_length_c     17.36132
_cell_angle_alpha  90.194291
_cell_angle_beta   89.942797
_cell_angle_gamma 90.87895
loop_
_atom_site_label
_atom_site_type_symbol
_atom_site_fract_x
_atom_site_fract_y
_atom_site_fract_z
_atom_type_partial_charge
H0 H 0.83647 0.50114 0.21747 0.0
H1 H 0.77652 0.51056 0.04717 0.0
H2 H 0.75743 0.51652 0.28826 0.0
H3 H 0.70894 0.49373 0.18881 0.0
C4 C 0.71966 0.49746 0.13413 0.0
O5 O 0.73847 0.51687 0.14656 0.0
H6 H 0.72906 0.47884 0.11567 0.0
C7 C 0.81586 0.50319 0.20331 0.0
C8 C 0.79788 0.50788 0.26226 0.0
C9 C 0.80859 0.50489 0.12605 0.0
C10 C 0.78228 0.50864 0.10692 0.0
C11 C 0.76356 0.51174 0.16561 0.0
C12 C 0.77149 0.51213 0.24343 0.0
H13 H 0.04883 0.83141 0.24998 0.0
H14 H 0.0519 0.78096 0.05104 0.0
H15 H 0.00609 0.75813 0.24833 0.0
H16 H 0.03719 0.71155 0.17346 0.0
C17 C 0.03995 0.72114 0.11648 0.0
O18 O 0.02418 0.74292 0.11318 0.0
H19 H 0.06094 0.72703 0.1103 0.0
C20 C 0.04387 0.81298 0.22142 0.0
C21 C 0.026 0.79582 0.25687 0.0
C22 C 0.05201 0.80887 0.14544 0.0
C23 C 0.04599 0.78467 0.10998 0.0
C24 C 0.03062 0.76575 0.14893 0.0
C25 C 0.01994 0.77164 0.22167 0.0
H26 H 0.66992 0.02888 0.15211 0.0
H27 H 0.73653 0.03963 0.0027 0.0
H28 H 0.74007 0.98536 0.19166 0.0
H29 H 0.79165 0.01593 0.16206 0.0
C30 C 0.78842 0.01985 0.09985 0.0
O31 O 0.76625 0.00636 0.07524 0.0
H32 H 0.78569 0.04136 0.09254 0.0
C33 C 0.69033 0.0253 0.13846 0.0
C34 C 0.7038 0.00646 0.18075 0.0
C35 C 0.70173 0.03723 0.07371 0.0
C36 C 0.72763 0.03109 0.05368 0.0
C37 C 0.74178 0.01303 0.09754 0.0
C38 C 0.72968 1.00037 0.1605 0.0
H39 H 0.50737 0.68094 0.26383 0.0
H40 H 0.51802 0.73206 0.06951 0.0
H41 H 0.50596 0.76447 0.29682 0.0
H42 H 0.4805 0.79605 0.16413 0.0
C43 C 0.49314 0.78832 0.11728 0.0
O44 O 0.51417 0.77567 0.14989 0.0
H45 H 0.48134 0.77431 0.08159 0.0
C46 C 0.50935 0.70059 0.24006 0.0
C47 C 0.50684 0.72209 0.28931 0.0
C48 C 0.51355 0.70373 0.16124 0.0
C49 C 0.51486 0.72921 0.13065 0.0
C50 C 0.51216 0.75117 0.17952 0.0
C51 C 0.50806 0.74761 0.2592 0.0
H52 H 0.18105 0.53933 0.14906 0.0
H53 H 0.24403 0.54703 0.31214 0.0
H54 H 0.25149 0.49536 0.11707 0.0
H55 H 0.28395 0.47551 0.24844 0.0
C56 C 0.27808 0.49213 0.28607 0.0
O57 O 0.27486 0.51422 0.24115 0.0
H58 H 0.25931 0.48612 0.31442 0.0
C59 C 0.20091 0.53492 0.16653 0.0
C60 C 0.21489 0.51606 0.12504 0.0
C61 C 0.21094 0.54607 0.23434 0.0
C62 C 0.23623 0.53932 0.25847 0.0
C63 C 0.25107 0.52153 0.21523 0.0
C64 C 0.24045 0.51001 0.14815 0.0
H65 H 0.01129 0.17112 0.13135 0.0
H66 H 0.99992 0.2283 0.31108 0.0
H67 H 0.03816 0.25068 0.09956 0.0
H68 H 0.05727 0.28307 0.24079 0.0
C69 C 0.04093 0.27647 0.27883 0.0
O70 O 0.02043 0.26749 0.23345 0.0
H71 H 0.04825 0.26053 0.31656 0.0
C72 C 0.01345 0.19101 0.15345 0.0
C73 C 0.02575 0.21001 0.10742 0.0
C74 C 0.0046 0.19699 0.2277 0.0
C75 C 0.00671 0.22308 0.254 0.0
C76 C 0.01865 0.24245 0.20766 0.0
C77 C 0.02857 0.23583 0.13468 0.0
H78 H 0.33872 0.99119 0.15139 0.0
H79 H 0.26767 0.97958 0.28042 0.0
H80 H 0.26859 0.03105 0.08403 0.0
H81 H 0.22 0.04452 0.18974 0.0
C82 C 0.2293 0.03119 0.23191 0.0
O83 O 0.23914 0.00981 0.19267 0.0
H84 H 0.24526 0.04281 0.26047 0.0
C85 C 0.31819 0.99552 0.16027 0.0
C86 C 0.30575 0.01326 0.11129 0.0
C87 C 0.30476 0.98324 0.22093 0.0
C88 C 0.27824 0.98877 0.23326 0.0
C89 C 0.26512 0.00572 0.18315 0.0
C90 C 0.27883 0.01785 0.12199 0.0
H91 H 0.50248 0.33477 0.1349 0.0
H92 H 0.51039 0.27493 0.30733 0.0
H93 H 0.47999 0.25506 0.0826 0.0
H94 H 0.53171 0.22776 0.24217 0.0
C95 C 0.51423 0.21949 0.21175 0.0
O96 O 0.4935 0.23645 0.21867 0.0
H97 H 0.51951 0.2172 0.14989 0.0
C98 C 0.50043 0.31442 0.15279 0.0
C99 C 0.49043 0.29595 0.1005 0.0
C100 C 0.50726 0.30735 0.22776 0.0
C101 C 0.50512 0.28086 0.24957 0.0
C102 C 0.4956 0.26191 0.19697 0.0
C103 C 0.48784 0.26954 0.12257 0.0
O104 O 0.07759 0.00786 0.64613 0.0
Zn105 Zn 0.05048 0.00931 0.72977 0.0
O106 O 0.01526 1.00088 0.68899 0.0
Zn107 Zn 0.99128 0.02947 0.71088 0.0
Zn108 Zn 0.01788 0.99449 0.57704 0.0
Zn109 Zn 1.0007 0.97022 0.74093 0.0
O110 O 0.95959 0.019 0.77537 0.0
O111 O 0.96614 0.97666 0.79457 0.0
O112 O 0.05187 0.04607 0.77596 0.0
O113 O 0.01061 0.05876 0.76411 0.0
O114 O 0.97876 0.04521 0.61301 0.0
O115 O 0.99806 0.02261 0.51957 0.0
O116 O 0.00452 0.95743 0.55074 0.0
O117 O 0.06189 0.98244 0.80812 0.0
O118 O 0.99571 0.94064 0.66622 0.0
O119 O 0.02595 0.9574 0.81887 0.0
C120 C 0.07731 0.0028 0.57431 0.0
C121 C 0.95233 0.99705 0.8039 0.0
C122 C 0.98344 0.04128 0.54199 0.0
C123 C 0.03418 0.06327 0.78483 0.0
C124 C 0.99743 0.93818 0.59347 0.0
C125 C 0.04937 0.96322 0.83801 0.0
O126 O 0.05591 0.99732 0.53941 0.0
O127 O 0.49881 0.0604 0.58284 0.0
Zn128 Zn 0.50039 0.03653 0.67653 0.0
O129 O 0.503 0.99935 0.64228 0.0
Zn130 Zn 0.47449 0.97867 0.68793 0.0
Zn131 Zn 0.50147 0.99636 0.52944 0.0
Zn132 Zn 0.53594 0.98453 0.67584 0.0
O133 O 0.48749 0.94915 0.75504 0.0
O134 O 0.5307 0.95208 0.74176 0.0
O135 O 0.46676 0.04225 0.73901 0.0
O136 O 0.45071 1.0015 0.74905 0.0
O137 O 0.45096 0.9637 0.60613 0.0
O138 O 0.47029 0.9742 0.49534 0.0
O139 O 0.53511 0.98201 0.48347 0.0
O140 O 0.53256 0.04779 0.73988 0.0
O141 O 0.5598 0.97648 0.5872 0.0
O142 O 0.55588 0.01126 0.73564 0.0
C143 C 0.49704 0.0559 0.51064 0.0
C144 C 0.51036 0.94077 0.76966 0.0
C145 C 0.45171 0.9632 0.53296 0.0
C146 C 0.44937 0.02595 0.76309 0.0
C147 C 0.55681 0.97599 0.51456 0.0
C148 C 0.55319 0.03507 0.75609 0.0
O149 O 0.49718 0.03253 0.48392 0.0
O150 O 0.43975 0.50633 0.6815 0.0
Zn151 Zn 0.47241 0.5029 0.74806 0.0
O152 O 0.50457 0.50836 0.6863 0.0
Zn153 Zn 0.52873 0.4799 0.70427 0.0
Zn154 Zn 0.49505 0.51094 0.57809 0.0
Zn155 Zn 0.52349 0.54023 0.71472 0.0
O156 O 0.56169 0.49112 0.76152 0.0
O157 O 0.56042 0.53443 0.75143 0.0
O158 O 0.47122 0.46568 0.7911 0.0
O159 O 0.51086 0.45099 0.76302 0.0
O160 O 0.53842 0.46348 0.60414 0.0
O161 O 0.51421 0.48335 0.51575 0.0
O162 O 0.49987 0.54855 0.54036 0.0
O163 O 0.47135 0.52957 0.83604 0.0
O164 O 0.5221 0.5683 0.63461 0.0
O165 O 0.50549 0.55519 0.80435 0.0
C166 C 0.43678 0.5048 0.60863 0.0
C167 C 0.57209 0.51373 0.77256 0.0
C168 C 0.53069 0.46588 0.5349 0.0
C169 C 0.48819 0.44752 0.79219 0.0
C170 C 0.51084 0.56896 0.56947 0.0
C171 C 0.48599 0.54976 0.8471 0.0
O172 O 0.45647 0.50426 0.5636 0.0
O173 O 0.96976 0.53634 0.57116 0.0
Zn174 Zn 0.0063 0.53757 0.62091 0.0
O175 O 0.01349 0.50404 0.67397 0.0
Zn176 Zn 0.02165 0.51097 0.78136 0.0
Zn177 Zn 0.98342 0.4801 0.66742 0.0
Zn178 Zn 0.04306 0.48637 0.62881 0.0
O179 O 0.0555 0.49477 0.81579 0.0
O180 O 0.07136 0.47914 0.70618 0.0
O181 O 0.00772 0.56807 0.69705 0.0
O182 O 0.0243 0.54973 0.80168 0.0
O183 O 0.99161 0.49958 0.84677 0.0
O184 O 0.96483 0.47707 0.76954 0.0
O185 O 0.99261 0.44468 0.62227 0.0
O186 O 0.03559 0.54601 0.54353 0.0
O187 O 0.03282 0.45213 0.57756 0.0
O188 O 0.06022 0.51055 0.55529 0.0
C189 C 0.95258 0.51781 0.56753 0.0
C190 C 0.07358 0.48348 0.77806 0.0
C191 C 0.97022 0.48705 0.83507 0.0
C192 C 0.01669 0.56992 0.76544 0.0
C193 C 0.01258 0.43732 0.58412 0.0
C194 C 0.05622 0.5332 0.52742 0.0
O195 O 0.95639 0.49568 0.59913 0.0
H196 H 0.17526 0.02855 0.21995 0.0
H197 H 0.23908 0.01397 0.37789 0.0
H198 H 0.20704 0.00267 0.48028 0.0
H199 H 0.13316 0.05899 0.35342 0.0
H200 H 0.10328 0.04462 0.31589 0.0
H201 H 0.13106 0.0496 0.25337 0.0
H202 H 0.13 1.00022 0.21674 0.0
H203 H 0.1021 0.9951 0.27896 0.0
H204 H 0.13111 0.97584 0.29169 0.0
H205 H 0.16847 0.99712 0.56795 0.0
H206 H 0.1258 0.99498 0.63443 0.0
H207 H 0.08624 0.01165 0.41923 0.0
C208 C 0.18239 0.02266 0.27592 0.0
C209 C 0.20959 0.02237 0.29169 0.0
C210 C 0.21831 0.01447 0.36523 0.0
C211 C 0.20027 0.00802 0.4235 0.0
C212 C 0.17357 0.0092 0.40688 0.0
C213 C 0.1646 0.01603 0.33469 0.0
C214 C 0.13483 0.0165 0.33288 0.0
C215 C 0.12502 0.04407 0.31271 0.0
C216 C 0.12387 0.99567 0.27674 0.0
C217 C 0.1285 0.00944 0.41577 0.0
C218 C 0.15117 0.0053 0.45726 0.0
C219 C 0.15057 0.99997 0.53584 0.0
C220 C 0.12621 0.99893 0.57316 0.0
C221 C 0.10263 0.003 0.53204 0.0
C222 C 0.10386 0.00806 0.452 0.0
H223 H 0.519 0.20342 0.36233 0.0
H224 H 0.49307 0.17653 0.13753 0.0
H225 H 0.48368 0.13232 0.19106 0.0
H226 H 0.55153 0.14544 0.41608 0.0
H227 H 0.54195 0.14669 0.51596 0.0
H228 H 0.5449 0.17658 0.46131 0.0
H229 H 0.49705 0.1882 0.496 0.0
H230 H 0.49397 0.15835 0.55102 0.0
H231 H 0.47098 0.16496 0.47501 0.0
H232 H 0.48044 0.09041 0.26661 0.0
H233 H 0.48169 0.05398 0.35975 0.0
H234 H 0.50887 0.1082 0.53713 0.0
C235 C 0.51112 0.18822 0.32479 0.0
C236 C 0.50703 0.19313 0.24568 0.0
C237 C 0.49653 0.17296 0.19811 0.0
C238 C 0.49113 0.14787 0.22805 0.0
C239 C 0.49601 0.14342 0.30591 0.0
C240 C 0.50555 0.16308 0.35386 0.0
C241 C 0.50977 0.1529 0.43486 0.0
C242 C 0.53876 0.15556 0.4584 0.0
C243 C 0.49187 0.16694 0.49263 0.0
C244 C 0.50159 0.12434 0.42465 0.0
C245 C 0.49367 0.11932 0.34986 0.0
C246 C 0.48634 0.09417 0.32553 0.0
C247 C 0.48721 0.07357 0.37889 0.0
C248 C 0.49526 0.07818 0.45597 0.0
C249 C 0.50232 0.10404 0.47899 0.0
H250 H 0.33151 0.48909 0.27014 0.0
H251 H 0.27108 0.50675 0.4371 0.0
H252 H 0.30494 0.51234 0.53843 0.0
H253 H 0.37191 0.45182 0.39399 0.0
H254 H 0.4024 0.4642 0.35488 0.0
H255 H 0.37355 0.46267 0.29533 0.0
H256 H 0.37844 0.51242 0.2662 0.0
H257 H 0.40743 0.51405 0.32526 0.0
H258 H 0.38047 0.53554 0.34494 0.0
H259 H 0.34553 0.51356 0.62283 0.0
H260 H 0.38968 0.51316 0.68162 0.0
H261 H 0.42338 0.49542 0.45797 0.0
C262 C 0.32552 0.49429 0.32801 0.0
C263 C 0.29877 0.49714 0.34645 0.0
C264 C 0.29152 0.50421 0.42237 0.0
C265 C 0.31059 0.50741 0.48011 0.0
C266 C 0.33681 0.50378 0.4606 0.0
C267 C 0.3443 0.49764 0.38616 0.0
C268 C 0.37372 0.49465 0.38025 0.0
C269 C 0.3808 0.46667 0.35461 0.0
C270 C 0.38572 0.51541 0.32596 0.0
C271 C 0.3816 0.49974 0.4631 0.0
C272 C 0.36008 0.50494 0.50867 0.0
C273 C 0.36255 0.50968 0.58754 0.0
C274 C 0.3877 0.50932 0.6205 0.0
C275 C 0.41007 0.50434 0.57457 0.0
C276 C 0.40677 0.49944 0.49484 0.0
H277 H 0.0642 0.32514 0.30127 0.0
H278 H 0.99779 0.27702 0.37295 0.0
H279 H 0.98302 0.31287 0.45875 0.0
H280 H 0.07719 0.354 0.48682 0.0
H281 H 0.08636 0.38571 0.44851 0.0
H282 H 0.09128 0.3565 0.3918 0.0
H283 H 0.06391 0.3762 0.28098 0.0
H284 H 0.05895 0.40548 0.33732 0.0
H285 H 0.03113 0.38722 0.30029 0.0
H286 H 0.97537 0.35427 0.5354 0.0
H287 H 0.97602 0.39755 0.60023 0.0
H288 H 0.04823 0.41805 0.48048 0.0
C289 C 0.04646 0.32227 0.33469 0.0
C290 C 0.0318 0.29858 0.32963 0.0
C291 C 0.00898 0.29526 0.37528 0.0
C292 C 1.00052 0.31544 0.42416 0.0
C293 C 0.01528 0.3387 0.4273 0.0
C294 C 0.03783 0.34216 0.38403 0.0
C295 C 0.05038 0.36885 0.39892 0.0
C296 C 0.07793 0.36609 0.43359 0.0
C297 C 0.05112 0.38541 0.32498 0.0
C298 C 0.03136 0.37988 0.4572 0.0
C299 C 0.0112 0.36225 0.47263 0.0
C300 C 0.99111 0.36821 0.52393 0.0
C301 C 0.99164 0.39287 0.56043 0.0
C302 C 0.01221 0.41122 0.54578 0.0
C303 C 0.0323 0.40447 0.49345 0.0
H304 H 0.82238 0.04961 0.01 0.0
H305 H 0.8081 0.97019 0.0907 0.0
H306 H 0.84791 0.95544 0.02202 0.0
H307 H 0.84713 0.03226 0.82055 0.0
H308 H 0.87147 0.05829 0.8196 0.0
H309 H 0.8415 0.06228 0.873 0.0
H310 H 0.8683 0.07227 0.99664 0.0
H311 H 0.89834 0.06824 0.94367 0.0
H312 H 0.89218 0.04901 0.02894 0.0
H313 H 0.88982 0.94972 0.94698 0.0
H314 H 0.9306 0.95312 0.87107 0.0
H315 H 0.9178 0.03657 0.83957 0.0
C316 C 0.82756 0.02908 0.01261 0.0
C317 C 0.81211 0.01091 0.05506 0.0
C318 C 0.81962 0.98429 0.05792 0.0
C319 C 0.84217 0.97579 0.01923 0.0
C320 C 0.85705 0.99421 0.97808 0.0
C321 C 0.85004 0.0203 0.97445 0.0
C322 C 0.8697 0.0362 0.92753 0.0
C323 C 0.85667 0.04794 0.85592 0.0
C324 C 0.88291 0.05769 0.97717 0.0
C325 C 0.88893 0.01501 0.90556 0.0
C326 C 0.88124 0.99093 0.9352 0.0
C327 C 0.89598 0.96846 0.92332 0.0
C328 C 0.91917 0.97062 0.88006 0.0
C329 C 0.92753 0.99511 0.84902 0.0
C330 C 0.91204 0.01754 0.86215 0.0
H331 H 0.46351 0.8283 0.06261 0.0
H332 H 0.54243 0.79793 0.05212 0.0
H333 H 0.55542 0.83399 0.96473 0.0
H334 H 0.46004 0.84653 0.86387 0.0
H335 H 0.4413 0.87567 0.88152 0.0
H336 H 0.43851 0.84816 0.94609 0.0
H337 H 0.45101 0.87839 0.06115 0.0
H338 H 0.45378 0.90602 -0.00307 0.0
H339 H 0.48102 0.8975 0.05746 0.0
H340 H 0.55984 0.87361 0.87825 0.0
H341 H 0.5549 0.91254 0.79537 0.0
H342 H 0.47263 0.91617 0.85838 0.0
C343 C 0.4836 0.82948 0.04256 0.0
C344 C 0.50208 0.81072 0.06599 0.0
C345 C 0.52803 0.8124 0.03675 0.0
C346 C 0.53559 0.83279 0.98677 0.0
C347 C 0.51692 0.85111 0.96553 0.0
C348 C 0.49142 0.84956 0.99216 0.0
C349 C 0.47491 0.8712 0.95852 0.0
C350 C 0.45236 0.85969 0.90959 0.0
C351 C 0.46458 0.88935 0.02233 0.0
C352 C 0.49512 0.88521 0.90881 0.0
C353 C 0.51926 0.87341 0.91397 0.0
C354 C 0.54101 0.88297 0.87367 0.0
C355 C 0.538 0.90514 0.82677 0.0
C356 C 0.51336 0.91745 0.81999 0.0
C357 C 0.49171 0.90721 0.86182 0.0
H358 H 0.68629 0.46563 0.05166 0.0
H359 H 0.70794 0.54775 0.0827 0.0
H360 H 0.6748 0.56018 0.98672 0.0
H361 H 0.67251 0.46844 0.84512 0.0
H362 H 0.64478 0.44619 0.8514 0.0
H363 H 0.67149 0.4435 0.91859 0.0
H364 H 0.63901 0.44791 0.03257 0.0
H365 H 0.61223 0.45055 0.96578 0.0
H366 H 0.6178 0.47588 0.03697 0.0
H367 H 0.63831 0.56392 0.89063 0.0
H368 H 0.59955 0.55896 0.80695 0.0
H369 H 0.60074 0.47442 0.83978 0.0
C370 C 0.6843 0.48618 0.0372 0.0
C371 C 0.70025 0.50559 0.07308 0.0
C372 C 0.6965 0.5324 0.05468 0.0
C373 C 0.67766 0.53969 0.00021 0.0
C374 C 0.6625 0.52001 0.96527 0.0
C375 C 0.66548 0.49381 0.98328 0.0
C376 C 0.64567 0.47668 0.94064 0.0
C377 C 0.65944 0.45757 0.88567 0.0
C378 C 0.62761 0.46189 -0.00262 0.0
C379 C 0.63087 0.49738 0.89648 0.0
C380 C 0.64106 0.52221 0.91101 0.0
C381 C 0.63025 0.54455 0.87852 0.0
C382 C 0.60821 0.54151 0.83091 0.0
C383 C 0.59703 0.51629 0.81636 0.0
C384 C 0.60886 0.49395 0.84903 0.0
H385 H 0.04041 0.66732 0.12091 0.0
H386 H 0.02649 0.73226 0.96613 0.0
H387 H 0.01794 0.70081 0.85963 0.0
H388 H 0.07462 0.62786 0.98515 0.0
H389 H 0.06121 0.59717 0.02009 0.0
H390 H 0.06484 0.62476 0.08457 0.0
H391 H 0.01542 0.62156 0.11866 0.0
H392 H 0.01166 0.59389 0.05444 0.0
H393 H 0.99144 0.62231 0.04254 0.0
H394 H 0.01121 0.66181 0.7697 0.0
H395 H 0.00839 0.61879 0.70317 0.0
H396 H 0.02811 0.57982 0.9171 0.0
C397 C 0.03516 0.67486 0.06484 0.0
C398 C 0.03327 0.70215 0.05223 0.0
C399 C 0.02728 0.71138 0.97746 0.0
C400 C 0.0225 0.69368 0.91664 0.0
C401 C 0.02421 0.66684 0.93128 0.0
C402 C 0.03051 0.65749 0.00353 0.0
C403 C 0.03207 0.62782 0.00366 0.0
C404 C 0.05984 0.61889 0.02459 0.0
C405 C 0.01141 0.61569 0.05804 0.0
C406 C 0.02571 0.62189 0.92021 0.0
C407 C 0.0211 0.64459 0.87935 0.0
C408 C 0.0148 0.64391 0.80118 0.0
C409 C 0.01323 0.61938 0.76388 0.0
C410 C 0.01811 0.59587 0.80466 0.0
C411 C 0.02438 0.59735 0.88393 0.0
H412 H 0.02436 0.14772 0.23956 0.0
H413 H 0.96286 0.19722 0.3295 0.0
H414 H 0.94655 0.16 0.40894 0.0
H415 H 0.98486 0.08717 0.22767 0.0
H416 H 0.01209 0.06702 0.25468 0.0
H417 H 0.01783 0.09717 0.20277 0.0
H418 H 0.04952 0.11359 0.31 0.0
H419 H 0.04416 0.0834 0.36139 0.0
H420 H 0.03825 0.11438 0.40843 0.0
H421 H 0.93937 0.11803 0.48493 0.0
H422 H 0.94375 0.07654 0.55688 0.0
H423 H 0.00811 0.05432 0.40813 0.0
C424 C 0.00706 0.1507 0.27449 0.0
C425 C 0.99465 0.17532 0.27743 0.0
C426 C 0.97272 0.17856 0.32643 0.0
C427 C 0.96315 0.15746 0.37097 0.0
C428 C 0.97561 0.13329 0.36509 0.0
C429 C 0.99711 0.12991 0.318 0.0
C430 C 0.00804 0.10259 0.32462 0.0
C431 C 0.00555 0.0876 0.24786 0.0
C432 C 0.03667 0.10357 0.35283 0.0
C433 C 0.98981 0.09117 0.38479 0.0
C434 C 0.97105 0.10904 0.40699 0.0
C435 C 0.95365 0.10374 0.46703 0.0
C436 C 0.95623 0.08008 0.50738 0.0
C437 C 0.97605 0.06206 0.48739 0.0
C438 C 0.99229 0.06731 0.42335 0.0
H439 H 0.31213 0.98854 0.37554 0.0
H440 H 0.33305 0.9408 0.17884 0.0
H441 H 0.36989 0.92245 0.2516 0.0
H442 H 0.37075 0.00876 0.42063 0.0
H443 H 0.3686 0.00784 0.52424 0.0
H444 H 0.33938 0.01103 0.46802 0.0
H445 H 0.31904 0.96964 0.53208 0.0
H446 H 0.34812 0.96657 0.59015 0.0
H447 H 0.33686 0.93933 0.53172 0.0
H448 H 0.41101 0.92103 0.32576 0.0
H449 H 0.44993 0.93101 0.4065 0.0
H450 H 0.40166 0.97619 0.56171 0.0
C451 C 0.3235 0.97298 0.34994 0.0
C452 C 0.31978 0.96588 0.27213 0.0
C453 C 0.33556 0.94624 0.2388 0.0
C454 C 0.35654 0.93574 0.2797 0.0
C455 C 0.36108 0.94464 0.35451 0.0
C456 C 0.34449 0.96217 0.3905 0.0
C457 C 0.35575 0.97133 0.46692 0.0
C458 C 0.35881 1.00151 0.47001 0.0
C459 C 0.33894 0.96109 0.53421 0.0
C460 C 0.38212 0.95806 0.46492 0.0
C461 C 0.38473 0.94248 0.40004 0.0
C462 C 0.40888 0.93211 0.37865 0.0
C463 C 0.4309 0.93796 0.42433 0.0
C464 C 0.42843 0.95363 0.49109 0.0
C465 C 0.40367 0.96319 0.51256 0.0
H466 H 0.4844 0.35467 0.24902 0.0
H467 H 0.54934 0.30772 0.32738 0.0
H468 H 0.56567 0.34556 0.40531 0.0
H469 H 0.52076 0.41529 0.22855 0.0
H470 H 0.49395 0.43523 0.26064 0.0
H471 H 0.48742 0.4044 0.21254 0.0
H472 H 0.45927 0.3884 0.3283 0.0
H473 H 0.4652 0.41939 0.3757 0.0
H474 H 0.47317 0.38921 0.42373 0.0
H475 H 0.57411 0.3888 0.47546 0.0
H476 H 0.57141 0.43155 0.54252 0.0
H477 H 0.50216 0.45017 0.40984 0.0
C478 C 0.50215 0.35232 0.28232 0.0
C479 C 0.51578 0.32838 0.28178 0.0
C480 C 0.53856 0.32589 0.32743 0.0
C481 C 0.54811 0.34735 0.37095 0.0
C482 C 0.53466 0.37102 0.36759 0.0
C483 C 0.51203 0.37346 0.32489 0.0
C484 C 0.50068 0.4006 0.33197 0.0
C485 C 0.50072 0.41471 0.25377 0.0
C486 C 0.47295 0.39931 0.36705 0.0
C487 C 0.5202 0.41312 0.38669 0.0
C488 C 0.5398 0.39587 0.40617 0.0
C489 C 0.55901 0.40253 0.46001 0.0
C490 C 0.5574 0.42692 0.49746 0.0
C491 C 0.53671 0.44431 0.48086 0.0
C492 C 0.51856 0.43765 0.4225 0.0
H493 H 0.20111 0.53467 0.38333 0.0
H494 H 0.17716 0.58567 0.1982 0.0
H495 H 0.13582 0.59459 0.26693 0.0
H496 H 0.14622 0.50297 0.39997 0.0
H497 H 0.14529 0.4989 0.50305 0.0
H498 H 0.17615 0.50345 0.45523 0.0
H499 H 0.18727 0.54391 0.5406 0.0
H500 H 0.15669 0.53901 0.59106 0.0
H501 H 0.16431 0.57037 0.54792 0.0
H502 H 0.09296 0.58881 0.3394 0.0
H503 H 0.0548 0.57124 0.41337 0.0
H504 H 0.10742 0.52325 0.54687 0.0
C505 C 0.18797 0.5491 0.35982 0.0
C506 C 0.19237 0.55965 0.28603 0.0
C507 C 0.17419 0.57759 0.25525 0.0
C508 C 0.15062 0.58271 0.29383 0.0
C509 C 0.14578 0.57009 0.36365 0.0
C510 C 0.16433 0.55415 0.39732 0.0
C511 C 0.15307 0.53945 0.46547 0.0
C512 C 0.15531 0.50945 0.45519 0.0
C513 C 0.16611 0.54876 0.54073 0.0
C514 C 0.12493 0.54805 0.46142 0.0
C515 C 0.12104 0.56624 0.40394 0.0
C516 C 0.09593 0.57505 0.38582 0.0
C517 C 0.07436 0.56488 0.42755 0.0
C518 C 0.07816 0.54567 0.48493 0.0
C519 C 0.10383 0.53772 0.50266 0.0
H520 H 0.03315 0.85817 0.15297 0.0
H521 H 0.09087 0.81154 0.03302 0.0
H522 H 0.10311 0.85061 0.95446 0.0
H523 H 0.00975 0.88986 0.00025 0.0
H524 H 1.00443 0.92067 0.04892 0.0
H525 H 1.00413 0.89069 0.10277 0.0
H526 H 0.04074 0.90957 0.19262 0.0
H527 H 0.04072 0.93974 0.13861 0.0
H528 H 0.07076 0.92208 0.15115 0.0
H529 H 0.10492 0.89389 0.88005 0.0
H530 H 0.09248 0.93398 0.80882 0.0
H531 H 0.03354 0.95045 0.98072 0.0
C532 C 0.04921 0.85625 0.11265 0.0
C533 C 0.06158 0.83193 0.10069 0.0
C534 C 0.08136 0.83007 0.04379 0.0
C535 C 0.08859 0.85221 -0.00038 0.0
C536 C 0.07594 0.87595 0.01367 0.0
C537 C 0.05664 0.87792 0.0691 0.0
C538 C 0.04347 0.90425 0.0677 0.0
C539 C 0.01371 0.90116 0.05403 0.0
C540 C 0.04928 0.91983 0.14192 0.0
C541 C 0.05725 0.91649 -0.00034 0.0
C542 C 0.07655 0.90037 0.97051 0.0
C543 C 0.09028 0.90685 0.90346 0.0
C544 C 0.08326 0.9297 0.86371 0.0
C545 C 0.06244 0.94528 0.89067 0.0
C546 C 0.04998 0.93908 0.96053 0.0
H547 H 0.69428 0.02724 0.9223 0.0
H548 H 0.66841 0.07733 0.10839 0.0
H549 H 0.63004 0.09019 0.0312 0.0
H550 H 0.6651 0.06725 0.7543 0.0
H551 H 0.65635 0.03707 0.70546 0.0
H552 H 0.68559 0.0389 0.76361 0.0
H553 H 0.66897 0.99862 0.84137 0.0
H554 H 0.63958 0.99699 0.78508 0.0
H555 H 0.63747 0.99989 0.88841 0.0
H556 H 0.58964 0.08893 0.94819 0.0
H557 H 0.55217 0.07402 0.86714 0.0
H558 H 0.60431 0.02385 0.73811 0.0
C559 C 0.68142 0.04219 0.94467 0.0
C560 C 0.68446 0.05165 0.02052 0.0
C561 C 0.66655 0.07019 0.04976 0.0
C562 C 0.64472 0.07759 0.00627 0.0
C563 C 0.6412 0.06643 0.93345 0.0
C564 C 0.6594 0.04944 0.9023 0.0
C565 C 0.6491 0.03644 0.82971 0.0
C566 C 0.66498 0.04547 0.75908 0.0
C567 C 0.64875 0.00622 0.83668 0.0
C568 C 0.62168 0.04725 0.82797 0.0
C569 C 0.61761 0.06513 0.88666 0.0
C570 C 0.59282 0.07548 0.9008 0.0
C571 C 0.57163 0.0669 0.85476 0.0
C572 C 0.57542 0.04775 0.79686 0.0
C573 C 0.60089 0.03855 0.78212 0.0
H574 H 0.48686 0.69173 0.02733 0.0
H575 H 0.54292 0.66086 0.19033 0.0
H576 H 0.53554 0.61633 0.13839 0.0
H577 H 0.44191 0.63872 0.02628 0.0
H578 H 0.4359 0.63855 0.92399 0.0
H579 H 0.44549 0.66866 0.97183 0.0
H580 H 0.48524 0.67461 0.87996 0.0
H581 H 0.47499 0.64522 0.82974 0.0
H582 H 0.50779 0.64798 0.86775 0.0
H583 H 0.51915 0.57498 0.07945 0.0
H584 H 0.50584 0.54035 0.98695 0.0
H585 H 0.46358 0.59764 0.85379 0.0
C586 C 0.49816 0.67572 0.05028 0.0
C587 C 0.51503 0.67959 0.11385 0.0
C588 C 0.52954 0.65816 0.1424 0.0
C589 C 0.52529 0.63278 0.11395 0.0
C590 C 0.50705 0.62926 0.05534 0.0
C591 C 0.49463 0.65017 0.02119 0.0
C592 C 0.47741 0.64089 0.95513 0.0
C593 C 0.44846 0.64708 0.97026 0.0
C594 C 0.48694 0.65287 0.87861 0.0
C595 C 0.48206 0.61155 0.95814 0.0
C596 C 0.49861 0.60527 0.018 0.0
C597 C 0.50619 0.57957 0.03221 0.0
C598 C 0.49816 0.55995 0.98039 0.0
C599 C 0.48316 0.56636 0.91502 0.0
C600 C 0.47423 0.59223 0.90514 0.0
H601 H 0.82593 0.47052 0.01403 0.0
H602 H 0.84022 0.54699 0.11795 0.0
H603 H 0.88401 0.54901 0.05868 0.0
H604 H 0.88781 0.44534 0.03371 0.0
H605 H 0.89025 0.42957 0.94091 0.0
H606 H 0.85857 0.43446 0.98399 0.0
H607 H 0.84302 0.45989 0.86384 0.0
H608 H 0.87434 0.45424 0.81913 0.0
H609 H 0.86241 0.48724 0.82879 0.0
H610 H 0.92793 0.53931 0.01222 0.0
H611 H 0.96713 0.52558 0.94244 0.0
H612 H 0.92439 0.45764 0.85201 0.0
C613 C 0.83793 0.48809 0.02112 0.0
C614 C 0.82993 0.50867 0.0701 0.0
C615 C 0.84614 0.53122 0.0799 0.0
C616 C 0.87108 0.5324 0.0473 0.0
C617 C 0.87915 0.51118 0.00329 0.0
C618 C 0.86282 0.48998 0.98683 0.0
C619 C 0.87677 0.47016 0.93632 0.0
C620 C 0.87844 0.4433 0.97616 0.0
C621 C 0.86334 0.46775 0.85732 0.0
C622 C 0.90363 0.48323 0.9297 0.0
C623 C 0.90452 0.50655 0.97047 0.0
C624 C 0.92739 0.52146 0.97817 0.0
C625 C 0.9497 0.51322 0.93908 0.0
C626 C 0.94881 0.49061 0.89114 0.0
C627 C 0.92561 0.47505 0.88796 0.0
H628 H 0.99782 0.19661 0.98205 0.0
H629 H 0.07647 0.19962 0.07364 0.0
H630 H 0.09002 0.16592 0.9795 0.0
H631 H 0.9922 0.1337 0.97942 0.0
H632 H 0.97342 0.12904 0.8924 0.0
H633 H 0.97183 0.1596 0.94363 0.0
H634 H 0.98646 0.18551 0.82262 0.0
H635 H 0.98713 0.15507 0.76926 0.0
H636 H 0.01578 0.17622 0.77198 0.0
H637 H 0.0914 0.12394 0.90346 0.0
H638 H 0.08174 0.0809 0.84233 0.0
H639 H 1.00151 0.10472 0.80382 0.0
C640 C 0.01831 0.19154 0.97791 0.0
C641 C 0.03632 0.20107 0.03308 0.0
C642 C 0.0627 0.1931 0.02984 0.0
C643 C 0.07044 0.17374 0.97706 0.0
C644 C 0.05156 0.16288 0.92772 0.0
C645 C 0.02613 0.17204 0.92629 0.0
C646 C 0.0084 0.1543 0.87862 0.0
C647 C 0.98513 0.14353 0.92641 0.0
C648 C 0.99889 0.16863 0.8063 0.0
C649 C 0.02728 0.13282 0.85794 0.0
C650 C 0.05222 0.13828 0.88517 0.0
C651 C 0.07214 0.11984 0.8799 0.0
C652 C 0.06641 0.09534 0.8457 0.0
C653 C 0.04087 0.08938 0.8182 0.0
C654 C 0.02131 0.10864 0.82366 0.0
H655 H 0.35578 0.03316 0.12007 0.0
H656 H 0.29175 0.02021 0.95969 0.0
H657 H 0.32137 0.03162 0.85164 0.0
H658 H 0.3929 0.08532 0.00775 0.0
H659 H 0.42386 0.07144 0.03461 0.0
H660 H 0.39633 0.06936 0.09966 0.0
H661 H 0.40107 0.01881 0.10517 0.0
H662 H 0.4284 0.02068 0.04011 0.0
H663 H 0.40043 1.00009 0.01681 0.0
H664 H 0.3594 0.03521 0.76094 0.0
H665 H 0.40218 0.03046 0.69575 0.0
H666 H 0.44208 0.03898 0.91438 0.0
C667 C 0.34777 0.03342 0.06234 0.0
C668 C 0.3214 0.02574 0.04834 0.0
C669 C 0.31171 0.02637 0.97204 0.0
C670 C 0.32847 0.03276 0.91028 0.0
C671 C 0.35478 0.03868 0.92588 0.0
C672 C 0.36431 0.03929 0.00032 0.0
C673 C 0.39393 0.0423 0.00157 0.0
C674 C 0.40224 0.06868 0.03805 0.0
C675 C 0.40668 0.01909 0.04333 0.0
C676 C 0.39983 0.04192 0.9161 0.0
C677 C 0.37692 0.04049 0.87335 0.0
C678 C 0.37738 0.03712 0.79365 0.0
C679 C 0.40173 0.0345 0.75707 0.0
C680 C 0.42526 0.03521 0.80005 0.0
C681 C 0.42434 0.03947 0.88021 0.0
H682 H 0.52171 0.31215 0.98475 0.0
H683 H 0.44073 0.30637 0.05631 0.0
H684 H 0.42945 0.34205 0.96661 0.0
H685 H 0.5264 0.37559 0.99401 0.0
H686 H 0.54743 0.38185 0.91242 0.0
H687 H 0.54812 0.35054 0.95937 0.0
H688 H 0.53734 0.32635 0.83171 0.0
H689 H 0.53768 0.35756 0.78287 0.0
H690 H 0.50938 0.33606 0.77576 0.0
H691 H 0.42962 0.38553 0.89814 0.0
H692 H 0.44 0.42914 0.84237 0.0
H693 H 0.52135 0.40681 0.81786 0.0
C694 C 0.50132 0.3171 0.97683 0.0
C695 C 0.48192 0.30611 0.02534 0.0
C696 C 0.45562 0.31397 0.01745 0.0
C697 C 0.44916 0.33449 0.96734 0.0
C698 C 0.46922 0.34662 0.92512 0.0
C699 C 0.49471 0.33768 0.92767 0.0
C700 C 0.51341 0.35638 0.88686 0.0
C701 C 0.53508 0.36669 0.94146 0.0
C702 C 0.52514 0.34331 0.81501 0.0
C703 C 0.49482 0.37795 0.865 0.0
C704 C 0.46936 0.3719 0.88644 0.0
C705 C 0.44935 0.39013 0.87907 0.0
C706 C 0.45549 0.41497 0.84809 0.0
C707 C 0.48147 0.42143 0.82535 0.0
C708 C 0.50121 0.40246 0.83365 0.0
H709 H 0.16695 0.49305 0.1354 0.0
H710 H 0.23075 0.50717 0.97537 0.0
H711 H 0.2025 0.49118 0.86811 0.0
H712 H 0.13403 0.43606 0.0316 0.0
H713 H 0.10213 0.44838 0.05589 0.0
H714 H 0.12931 0.45363 0.12076 0.0
H715 H 0.12114 0.50375 0.1181 0.0
H716 H 0.09423 0.49876 0.05297 0.0
H717 H 0.12092 0.5206 0.02692 0.0
H718 H 0.16485 0.48127 0.777 0.0
H719 H 0.12201 0.48064 0.7109 0.0
H720 H 0.08244 0.47669 0.9318 0.0
C721 C 0.17524 0.49199 0.07801 0.0
C722 C 0.20095 0.50133 0.06328 0.0
C723 C 0.21117 0.4998 0.98774 0.0
C724 C 0.19523 0.49078 0.92667 0.0
C725 C 0.16932 0.4832 0.94268 0.0
C726 C 0.15952 0.48357 0.01692 0.0
C727 C 0.13021 0.47868 0.01853 0.0
C728 C 0.12353 0.45263 0.05909 0.0
C729 C 0.1158 0.50183 0.05629 0.0
C730 C 0.12464 0.47689 0.93327 0.0
C731 C 0.14749 0.47866 0.89037 0.0
C732 C 0.14694 0.47937 0.81012 0.0
C733 C 0.12248 0.47897 0.77307 0.0
C734 C 0.0989 0.47853 0.81637 0.0
C735 C 0.10014 0.4768 0.89729 0.0
H736 H 0.99487 0.83742 0.24936 0.0
H737 H 0.02551 0.78057 0.40896 0.0
H738 H 0.01209 0.80889 0.51831 0.0
H739 H 0.02379 0.88788 0.33194 0.0
H740 H 0.99906 0.91215 0.31545 0.0
H741 H 1.00123 0.88425 0.2526 0.0
H742 H 0.95296 0.87132 0.27949 0.0
H743 H 0.95009 0.8997 0.3412 0.0
H744 H 0.94182 0.86748 0.37744 0.0
H745 H 1.00376 0.84709 0.60669 0.0
H746 H 1.00357 0.89119 0.66566 0.0
H747 H 0.98404 0.9252 0.4447 0.0
C748 C 0.99735 0.83033 0.30766 0.0
C749 C 0.01064 0.80668 0.32138 0.0
C750 C 0.01469 0.79829 0.39776 0.0
C751 C 0.00725 0.81438 0.45992 0.0
C752 C 0.99599 0.83869 0.44412 0.0
C753 C 0.99094 0.84653 0.3695 0.0
C754 C 0.98402 0.87535 0.36575 0.0
C755 C 1.00318 0.89079 0.31343 0.0
C756 C 0.95552 0.87865 0.33944 0.0
C757 C 0.98733 0.88301 0.44933 0.0
C758 C 0.99324 0.86143 0.4941 0.0
C759 C 0.99871 0.86397 0.57234 0.0
C760 C 0.99859 0.88916 0.60528 0.0
C761 C 0.99378 0.91164 0.55963 0.0
C762 C 0.98766 0.90837 0.48097 0.0
H763 H 0.69173 0.01992 0.32863 0.0
H764 H 0.67892 0.96016 0.15444 0.0
H765 H 0.6418 0.94185 0.2298 0.0
H766 H 0.67106 0.97703 0.5006 0.0
H767 H 0.65618 0.00478 0.54723 0.0
H768 H 0.68474 0.00957 0.48737 0.0
H769 H 0.65941 0.04354 0.4068 0.0
H770 H 0.63065 0.03843 0.46494 0.0
H771 H 0.62885 0.03388 0.36206 0.0
H772 H 0.60027 0.9373 0.30694 0.0
H773 H 0.56166 0.94198 0.39283 0.0
H774 H 0.60344 1.00179 0.52385 0.0
C775 C 0.68201 0.00207 0.30896 0.0
C776 C 0.68851 0.9909 0.23712 0.0
C777 C 0.67465 0.96837 0.21065 0.0
C778 C 0.65342 0.95802 0.25276 0.0
C779 C 0.64665 0.97018 0.32191 0.0
C780 C 0.66106 0.99121 0.35118 0.0
C781 C 0.64843 0.00206 0.42343 0.0
C782 C 0.66616 0.99811 0.49383 0.0
C783 C 0.64142 0.03119 0.41364 0.0
C784 C 0.62405 0.98476 0.42793 0.0
C785 C 0.62329 0.96653 0.36876 0.0
C786 C 0.60106 0.9508 0.35519 0.0
C787 C 0.5792 0.95366 0.40373 0.0
C788 C 0.57999 0.97172 0.46567 0.0
C789 C 0.60279 0.9872 0.47827 0.0
H790 H 0.54296 0.70883 0.39464 0.0
H791 H 0.45971 0.71651 0.35838 0.0
H792 H 0.45124 0.67877 0.44351 0.0
H793 H 0.54577 0.64736 0.36991 0.0
H794 H 0.56923 0.63792 0.44189 0.0
H795 H 0.56963 0.67089 0.40564 0.0
H796 H 0.56404 0.69041 0.5421 0.0
H797 H 0.56533 0.65757 0.58047 0.0
H798 H 0.53806 0.6783 0.60349 0.0
H799 H 0.45295 0.63258 0.48772 0.0
H800 H 0.46368 0.58728 0.52601 0.0
H801 H 0.54587 0.60934 0.54128 0.0
C802 C 0.52293 0.70403 0.41064 0.0
C803 C 0.50196 0.71563 0.37075 0.0
C804 C 0.47595 0.70823 0.38977 0.0
C805 C 0.47102 0.6864 0.43692 0.0
C806 C 0.49235 0.67296 0.46672 0.0
C807 C 0.51782 0.6822 0.45763 0.0
C808 C 0.53738 0.66223 0.48612 0.0
C809 C 0.55661 0.65414 0.42205 0.0
C810 C 0.55206 0.67275 0.55731 0.0
C811 C 0.51908 0.63967 0.50712 0.0
C812 C 0.4932 0.64626 0.49537 0.0
C813 C 0.47303 0.62754 0.50014 0.0
C814 C 0.47935 0.60176 0.52039 0.0
C815 C 0.50556 0.59497 0.53639 0.0
C816 C 0.52565 0.61419 0.5299 0.0
H817 H 0.82186 0.47316 0.35551 0.0
H818 H 0.8027 0.5552 0.33297 0.0
H819 H 0.83897 0.56723 0.42112 0.0
H820 H 0.84799 0.47714 0.56422 0.0
H821 H 0.87289 0.4537 0.54059 0.0
H822 H 0.84125 0.45154 0.49467 0.0
H823 H 0.86438 0.45281 0.36196 0.0
H824 H 0.89596 0.4562 0.4067 0.0
H825 H 0.88544 0.48039 0.33821 0.0
H826 H 0.88382 0.57072 0.48338 0.0
H827 H 0.92854 0.56473 0.53562 0.0
H828 H 0.91793 0.48021 0.51721 0.0
C829 C 0.82417 0.49343 0.37382 0.0
C830 C 0.80915 0.51321 0.3392 0.0
C831 C 0.81346 0.53973 0.36096 0.0
C832 C 0.83432 0.54675 0.41007 0.0
C833 C 0.85031 0.52691 0.4379 0.0
C834 C 0.84488 0.50066 0.42268 0.0
C835 C 0.8666 0.48333 0.45163 0.0
C836 C 0.85659 0.46537 0.51666 0.0
C837 C 0.8788 0.46726 0.38568 0.0
C838 C 0.88568 0.50392 0.48185 0.0
C839 C 0.87599 0.52895 0.47395 0.0
C840 C 0.89128 0.55115 0.49179 0.0
C841 C 0.91678 0.5476 0.52045 0.0
C842 C 0.92671 0.52202 0.53095 0.0
C843 C 0.91084 0.50004 0.51092 0.0
loop_
_geom_bond_atom_site_label_1
_geom_bond_atom_site_label_2
_geom_bond_distance
_geom_bond_site_symmetry_2
_ccdc_geom_bond_type
H0 C7 0.929 . S
H1 C10 0.930 . S
H2 C12 0.929 . S
H3 C4 0.969 . S
C4 H3 0.969 . S
C4 O5 1.550 1_556 S
C4 H6 0.973 . S
O5 C4 1.550 1_554 S
O5 C11 1.412 . S
H6 C4 0.973 . S
C7 H0 0.929 . S
C7 C8 1.400 . S
C7 C9 1.364 1_554 S
C8 C7 1.400 . S
C8 C12 1.377 . S
C9 C7 1.364 1_556 S
C9 C10 1.374 . S
C10 H1 0.930 . S
C10 C9 1.374 . S
C10 C11 1.383 1_556 S
C11 O5 1.412 . S
C11 C10 1.383 1_554 S
C11 C12 1.394 . S
C12 H2 0.929 . S
C12 C8 1.377 . S
C12 C11 1.394 . S
H13 C20 0.929 . S
H14 C23 0.931 . S
H15 C25 0.928 . S
H16 C17 0.969 . S
C17 H16 0.969 . S
C17 O18 1.550 1_455 S
C17 H19 0.973 1_454 S
O18 C17 1.550 1_655 S
O18 C24 1.410 1_655 S
H19 C17 0.973 1_656 S
C20 H13 0.929 . S
C20 C21 1.400 . S
C20 C22 1.365 . S
C21 C20 1.400 . S
C21 C25 1.377 1_455 S
C22 C20 1.365 . S
C22 C23 1.374 1_455 S
C23 H14 0.931 . S
C23 C22 1.374 1_655 S
C23 C24 1.383 1_655 S
C24 O18 1.410 1_455 S
C24 C23 1.383 1_455 S
C24 C25 1.394 1_455 S
C25 H15 0.928 . S
C25 C21 1.377 1_655 S
C25 C24 1.394 1_655 S
H26 C33 0.929 . S
H27 C36 0.931 1_556 S
H28 C38 0.928 1_565 S
H29 C30 0.969 1_556 S
C30 H29 0.969 1_554 S
C30 O31 1.550 1_545 S
C30 H32 0.973 1_544 S
O31 C30 1.550 1_565 S
O31 C37 1.406 1_565 S
H32 C30 0.973 1_566 S
C33 H26 0.929 . S
C33 C34 1.400 . S
C33 C35 1.364 . S
C34 C33 1.400 . S
C34 C38 1.376 . S
C35 C33 1.364 . S
C35 C36 1.374 1_545 S
C36 H27 0.931 1_554 S
C36 C35 1.374 1_565 S
C36 C37 1.383 1_565 S
C37 O31 1.406 1_545 S
C37 C36 1.383 1_545 S
C37 C38 1.394 . S
C38 H28 0.928 1_545 S
C38 C34 1.376 . S
C38 C37 1.394 . S
H39 C46 0.929 . S
H40 C49 0.930 . S
H41 C51 0.929 . S
H42 C43 0.969 . S
C43 H42 0.969 . S
C43 O44 1.550 1_556 S
C43 H45 0.973 . S
O44 C43 1.550 1_554 S
O44 C50 1.412 . S
H45 C43 0.973 . S
C46 H39 0.929 . S
C46 C47 1.400 . S
C46 C48 1.364 1_554 S
C47 C46 1.400 . S
C47 C51 1.377 . S
C48 C46 1.364 1_556 S
C48 C49 1.374 . S
C49 H40 0.930 . S
C49 C48 1.374 . S
C49 C50 1.383 1_556 S
C50 O44 1.412 . S
C50 C49 1.383 1_554 S
C50 C51 1.394 . S
C51 H41 0.929 . S
C51 C47 1.377 . S
C51 C50 1.394 . S
H52 C59 0.929 . S
H53 C62 0.930 . S
H54 C64 0.929 . S
H55 C56 0.969 . S
C56 H55 0.969 . S
C56 O57 1.550 . S
C56 H58 0.973 . S
O57 C56 1.550 . S
O57 C63 1.412 . S
H58 C56 0.973 . S
C59 H52 0.929 . S
C59 C60 1.400 . S
C59 C61 1.364 . S
C60 C59 1.400 . S
C60 C64 1.377 . S
C61 C59 1.364 . S
C61 C62 1.374 . S
C62 H53 0.930 . S
C62 C61 1.374 . S
C62 C63 1.383 . S
C63 O57 1.412 . S
C63 C62 1.383 . S
C63 C64 1.394 . S
C64 H54 0.929 . S
C64 C60 1.377 . S
C64 C63 1.394 . S
H65 C72 0.929 . S
H66 C75 0.930 . S
H67 C77 0.929 . S
H68 C69 0.969 . S
C69 H68 0.969 . S
C69 O70 1.550 . S
C69 H71 0.973 . S
O70 C69 1.550 . S
O70 C76 1.412 . S
H71 C69 0.973 . S
C72 H65 0.929 . S
C72 C73 1.400 . S
C72 C74 1.364 . S
C73 C72 1.400 . S
C73 C77 1.377 . S
C74 C72 1.364 . S
C74 C75 1.374 . S
C75 H66 0.930 . S
C75 C74 1.374 . S
C75 C76 1.383 . S
C76 O70 1.412 . S
C76 C75 1.383 . S
C76 C77 1.394 . S
C77 H67 0.929 . S
C77 C73 1.377 . S
C77 C76 1.394 . S
H78 C85 0.929 . S
H79 C88 0.930 . S
H80 C90 0.929 . S
H81 C82 0.969 . S
C82 H81 0.969 . S
C82 O83 1.550 . S
C82 H84 0.973 . S
O83 C82 1.550 . S
O83 C89 1.412 . S
H84 C82 0.973 . S
C85 H78 0.929 . S
C85 C86 1.400 . S
C85 C87 1.364 . S
C86 C85 1.400 . S
C86 C90 1.377 . S
C87 C85 1.364 . S
C87 C88 1.374 . S
C88 H79 0.930 . S
C88 C87 1.374 . S
C88 C89 1.383 . S
C89 O83 1.412 . S
C89 C88 1.383 . S
C89 C90 1.394 . S
C90 H80 0.929 . S
C90 C86 1.377 . S
C90 C89 1.394 . S
H91 C98 0.929 . S
H92 C101 0.930 . S
H93 C103 0.929 . S
H94 C95 0.969 . S
C95 H94 0.969 . S
C95 O96 1.550 . S
C95 H97 0.973 . S
O96 C95 1.550 . S
O96 C102 1.412 . S
H97 C95 0.973 . S
C98 H91 0.929 . S
C98 C99 1.400 . S
C98 C100 1.364 . S
C99 C98 1.400 . S
C99 C103 1.377 . S
C100 C98 1.364 . S
C100 C101 1.374 . S
C101 H92 0.930 . S
C101 C100 1.374 . S
C101 C102 1.383 . S
C102 O96 1.412 . S
C102 C101 1.383 . S
C102 C103 1.394 . S
C103 H93 0.929 . S
C103 C99 1.377 . S
C103 C102 1.394 . S
O104 Zn105 1.955 . S
O104 C120 1.225 1_545 S
Zn105 O104 1.955 . S
Zn105 O106 1.948 1_545 S
Zn105 O112 1.946 . S
Zn105 O117 1.891 1_545 S
O106 Zn105 1.948 1_565 S
O106 Zn107 1.901 1_465 S
O106 Zn108 1.952 . S
O106 Zn109 1.965 1_455 S
Zn107 O106 1.901 1_645 S
Zn107 O110 1.933 . S
Zn107 O113 1.941 1_655 S
Zn107 O114 1.965 . S
Zn108 O106 1.952 . S
Zn108 O115 1.938 1_565 S
Zn108 O116 1.906 . S
Zn108 O126 1.953 . S
Zn109 O106 1.965 1_655 S
Zn109 O111 1.932 . S
Zn109 O118 1.977 . S
Zn109 O119 1.910 1_655 S
O110 Zn107 1.933 . S
O110 C121 1.226 . S
O111 Zn109 1.932 . S
O111 C121 1.307 1_565 S
O112 Zn105 1.946 . S
O112 C123 1.253 . S
O113 Zn107 1.941 1_455 S
O113 C123 1.283 . S
O114 Zn107 1.965 . S
O114 C122 1.303 1_655 S
O115 Zn108 1.938 1_545 S
O115 C122 1.247 . S
O116 Zn108 1.906 . S
O116 C124 1.304 1_455 S
O117 Zn105 1.891 1_565 S
O117 C125 1.311 . S
O118 Zn109 1.977 . S
O118 C124 1.272 . S
O119 Zn109 1.910 1_455 S
O119 C125 1.231 . S
C120 O104 1.225 1_565 S
C120 O126 1.298 . S
C121 O110 1.226 . S
C121 O111 1.307 1_545 S
C122 O114 1.303 1_455 S
C122 O115 1.247 . S
C123 O112 1.253 . S
C123 O113 1.283 . S
C124 O116 1.304 1_655 S
C124 O118 1.272 . S
C125 O117 1.311 . S
C125 O119 1.231 . S
O126 Zn108 1.953 . S
O126 C120 1.298 . S
O127 Zn128 1.953 . S
O127 C143 1.225 . S
Zn128 O127 1.953 . S
Zn128 O129 1.949 . S
Zn128 O135 1.919 . S
Zn128 O140 1.924 . S
O129 Zn128 1.949 . S
O129 Zn130 1.923 1_545 S
O129 Zn131 1.950 . S
O129 Zn132 1.945 1_545 S
Zn130 O129 1.923 1_565 S
Zn130 O133 1.933 . S
Zn130 O136 1.941 . S
Zn130 O137 1.965 . S
Zn131 O129 1.950 . S
Zn131 O138 1.938 . S
Zn131 O139 1.906 . S
Zn131 O149 1.953 . S
Zn132 O129 1.945 1_565 S
Zn132 O134 1.932 . S
Zn132 O141 1.977 . S
Zn132 O142 1.910 1_565 S
O133 Zn130 1.933 . S
O133 C144 1.226 . S
O134 Zn132 1.932 . S
O134 C144 1.307 . S
O135 Zn128 1.919 . S
O135 C146 1.253 . S
O136 Zn130 1.941 . S
O136 C146 1.283 1_565 S
O137 Zn130 1.965 . S
O137 C145 1.303 1_565 S
O138 Zn131 1.938 . S
O138 C145 1.247 . S
O139 Zn131 1.906 . S
O139 C147 1.304 1_545 S
O140 Zn128 1.924 . S
O140 C148 1.311 . S
O141 Zn132 1.977 . S
O141 C147 1.272 . S
O142 Zn132 1.910 1_545 S
O142 C148 1.231 . S
C143 O127 1.225 . S
C143 O149 1.298 . S
C144 O133 1.226 . S
C144 O134 1.307 . S
C145 O137 1.303 1_545 S
C145 O138 1.247 . S
C146 O135 1.253 . S
C146 O136 1.283 1_545 S
C147 O139 1.304 1_565 S
C147 O141 1.272 . S
C148 O140 1.311 . S
C148 O142 1.231 . S
O149 Zn131 1.953 . S
O149 C143 1.298 . S
O150 Zn151 1.953 . S
O150 C166 1.225 . S
Zn151 O150 1.953 . S
Zn151 O152 1.949 . S
Zn151 O158 1.919 . S
Zn151 O163 1.924 . S
O152 Zn151 1.949 . S
O152 Zn153 1.923 . S
O152 Zn154 1.950 . S
O152 Zn155 1.945 . S
Zn153 O152 1.923 . S
Zn153 O156 1.933 . S
Zn153 O159 1.941 . S
Zn153 O160 1.965 . S
Zn154 O152 1.950 . S
Zn154 O161 1.938 . S
Zn154 O162 1.906 . S
Zn154 O172 1.953 . S
Zn155 O152 1.945 . S
Zn155 O157 1.932 . S
Zn155 O164 1.977 . S
Zn155 O165 1.910 . S
O156 Zn153 1.933 . S
O156 C167 1.226 . S
O157 Zn155 1.932 . S
O157 C167 1.307 . S
O158 Zn151 1.919 . S
O158 C169 1.253 . S
O159 Zn153 1.941 . S
O159 C169 1.283 . S
O160 Zn153 1.965 . S
O160 C168 1.303 . S
O161 Zn154 1.938 . S
O161 C168 1.247 . S
O162 Zn154 1.906 . S
O162 C170 1.304 . S
O163 Zn151 1.924 . S
O163 C171 1.311 . S
O164 Zn155 1.977 . S
O164 C170 1.272 . S
O165 Zn155 1.910 . S
O165 C171 1.231 . S
C166 O150 1.225 . S
C166 O172 1.298 . S
C167 O156 1.226 . S
C167 O157 1.307 . S
C168 O160 1.303 . S
C168 O161 1.247 . S
C169 O158 1.253 . S
C169 O159 1.283 . S
C170 O162 1.304 . S
C170 O164 1.272 . S
C171 O163 1.311 . S
C171 O165 1.231 . S
O172 Zn154 1.953 . S
O172 C166 1.298 . S
O173 Zn174 1.920 1_655 S
O173 C189 1.225 . S
Zn174 O173 1.920 1_455 S
Zn174 O175 1.949 . S
Zn174 O181 1.919 . S
Zn174 O186 1.959 . S
O175 Zn174 1.949 . S
O175 Zn176 1.918 1_455 S
O175 Zn177 1.929 1_455 S
O175 Zn178 1.973 . S
Zn176 O175 1.918 1_655 S
Zn176 O179 1.933 1_655 S
Zn176 O182 1.941 . S
Zn176 O183 1.965 . S
Zn177 O175 1.929 1_655 S
Zn177 O184 1.938 . S
Zn177 O185 1.906 . S
Zn177 O195 1.953 . S
Zn178 O175 1.973 . S
Zn178 O180 1.932 . S
Zn178 O187 1.977 . S
Zn178 O188 1.910 . S
O179 Zn176 1.933 1_455 S
O179 C190 1.226 . S
O180 Zn178 1.932 . S
O180 C190 1.307 . S
O181 Zn174 1.919 . S
O181 C192 1.253 . S
O182 Zn176 1.941 . S
O182 C192 1.284 1_655 S
O183 Zn176 1.965 . S
O183 C191 1.303 . S
O184 Zn177 1.938 . S
O184 C191 1.247 . S
O185 Zn177 1.906 . S
O185 C193 1.304 1_655 S
O186 Zn174 1.959 . S
O186 C194 1.311 . S
O187 Zn178 1.977 . S
O187 C193 1.272 . S
O188 Zn178 1.910 . S
O188 C194 1.231 . S
C189 O173 1.225 . S
C189 O195 1.298 . S
C190 O179 1.226 . S
C190 O180 1.307 . S
C191 O183 1.303 . S
C191 O184 1.247 . S
C192 O181 1.253 . S
C192 O182 1.284 1_455 S
C193 O185 1.304 1_455 S
C193 O187 1.272 . S
C194 O186 1.311 . S
C194 O188 1.231 . S
O195 Zn177 1.953 . S
O195 C189 1.298 . S
H196 C208 0.930 . S
H197 C210 0.930 . S
H198 C211 0.930 . S
H199 C215 0.959 . S
H200 C215 0.959 . S
H201 C215 0.961 . S
H202 C216 0.960 . S
H203 C216 0.961 . S
H204 C216 0.959 . S
H205 C219 0.929 . S
H206 C220 0.931 . S
H207 C222 0.930 . S
C208 H196 0.930 . S
C208 C209 1.399 1_565 S
C208 C213 1.399 . S
C209 C208 1.399 1_545 S
C209 C210 1.376 . S
C210 H197 0.930 . S
C210 C209 1.376 . S
C210 C211 1.388 . S
C211 H198 0.930 . S
C211 C210 1.388 . S
C211 C212 1.390 . S
C212 C211 1.390 . S
C212 C213 1.394 1_545 S
C212 C218 1.465 . S
C213 C208 1.399 . S
C213 C212 1.394 1_565 S
C213 C214 1.516 . S
C214 C213 1.516 . S
C214 C215 1.502 . S
C214 C216 1.561 . S
C214 C217 1.526 . S
C215 H199 0.959 . S
C215 H200 0.959 . S
C215 H201 0.961 . S
C215 C214 1.502 . S
C216 H202 0.960 . S
C216 H203 0.961 . S
C216 H204 0.959 . S
C216 C214 1.561 . S
C217 C214 1.526 . S
C217 C218 1.396 1_565 S
C217 C222 1.390 . S
C218 C212 1.465 . S
C218 C217 1.396 1_545 S
C218 C219 1.399 . S
C219 H205 0.929 . S
C219 C218 1.399 . S
C219 C220 1.385 . S
C220 H206 0.931 . S
C220 C219 1.385 . S
C220 C221 1.413 . S
C221 C220 1.413 . S
C221 C222 1.369 1_545 S
C222 H207 0.930 . S
C222 C217 1.390 . S
C222 C221 1.369 1_565 S
H223 C235 0.930 . S
H224 C237 0.930 . S
H225 C238 0.930 . S
H226 C242 0.959 . S
H227 C242 0.959 . S
H228 C242 0.961 . S
H229 C243 0.960 . S
H230 C243 0.961 . S
H231 C243 0.959 . S
H232 C246 0.929 . S
H233 C247 0.931 . S
H234 C249 0.930 . S
C235 H223 0.930 . S
C235 C236 1.399 . S
C235 C240 1.399 . S
C236 C235 1.399 . S
C236 C237 1.376 . S
C237 H224 0.930 . S
C237 C236 1.376 . S
C237 C238 1.388 . S
C238 H225 0.930 . S
C238 C237 1.388 . S
C238 C239 1.390 . S
C239 C238 1.390 . S
C239 C240 1.394 . S
C239 C245 1.465 . S
C240 C235 1.399 . S
C240 C239 1.394 . S
C240 C241 1.516 . S
C241 C240 1.516 . S
C241 C242 1.502 . S
C241 C243 1.561 . S
C241 C244 1.526 . S
C242 H226 0.959 . S
C242 H227 0.959 . S
C242 H228 0.961 . S
C242 C241 1.502 . S
C243 H229 0.960 . S
C243 H230 0.961 . S
C243 H231 0.959 . S
C243 C241 1.561 . S
C244 C241 1.526 . S
C244 C245 1.396 . S
C244 C249 1.390 . S
C245 C239 1.465 . S
C245 C244 1.396 . S
C245 C246 1.399 . S
C246 H232 0.929 . S
C246 C245 1.399 . S
C246 C247 1.385 . S
C247 H233 0.931 . S
C247 C246 1.385 . S
C247 C248 1.389 . S
C248 C247 1.389 . S
C248 C249 1.387 . S
C249 H234 0.930 . S
C249 C244 1.390 . S
C249 C248 1.387 . S
H250 C262 0.930 . S
H251 C264 0.930 . S
H252 C265 0.930 . S
H253 C269 0.959 . S
H254 C269 0.959 . S
H255 C269 0.961 . S
H256 C270 0.960 . S
H257 C270 0.961 . S
H258 C270 0.959 . S
H259 C273 0.929 . S
H260 C274 0.931 . S
H261 C276 0.930 . S
C262 H250 0.930 . S
C262 C263 1.399 . S
C262 C267 1.399 . S
C263 C262 1.399 . S
C263 C264 1.376 . S
C264 H251 0.930 . S
C264 C263 1.376 . S
C264 C265 1.388 . S
C265 H252 0.930 . S
C265 C264 1.388 . S
C265 C266 1.390 . S
C266 C265 1.390 . S
C266 C267 1.394 . S
C266 C272 1.465 . S
C267 C262 1.399 . S
C267 C266 1.394 . S
C267 C268 1.516 . S
C268 C267 1.516 . S
C268 C269 1.502 . S
C268 C270 1.561 . S
C268 C271 1.526 . S
C269 H253 0.959 . S
C269 H254 0.959 . S
C269 H255 0.961 . S
C269 C268 1.502 . S
C270 H256 0.960 . S
C270 H257 0.961 . S
C270 H258 0.959 . S
C270 C268 1.561 . S
C271 C268 1.526 . S
C271 C272 1.396 . S
C271 C276 1.390 . S
C272 C266 1.465 . S
C272 C271 1.396 . S
C272 C273 1.399 . S
C273 H259 0.929 . S
C273 C272 1.399 . S
C273 C274 1.385 . S
C274 H260 0.931 . S
C274 C273 1.385 . S
C274 C275 1.389 . S
C275 C274 1.389 . S
C275 C276 1.387 . S
C276 H261 0.930 . S
C276 C271 1.390 . S
C276 C275 1.387 . S
H277 C289 0.930 . S
H278 C291 0.928 1_655 S
H279 C292 0.940 . S
H280 C296 0.959 . S
H281 C296 0.959 . S
H282 C296 0.961 . S
H283 C297 0.960 . S
H284 C297 0.961 . S
H285 C297 0.959 . S
H286 C300 0.929 . S
H287 C301 0.931 . S
H288 C303 0.930 . S
C289 H277 0.930 . S
C289 C290 1.399 . S
C289 C294 1.399 . S
C290 C289 1.399 . S
C290 C291 1.376 . S
C291 H278 0.928 1_455 S
C291 C290 1.376 . S
C291 C292 1.384 1_455 S
C292 H279 0.940 . S
C292 C291 1.384 1_655 S
C292 C293 1.384 1_655 S
C293 C292 1.384 1_455 S
C293 C294 1.394 . S
C293 C299 1.465 . S
C294 C289 1.399 . S
C294 C293 1.394 . S
C294 C295 1.516 . S
C295 C294 1.516 . S
C295 C296 1.502 . S
C295 C297 1.561 . S
C295 C298 1.526 . S
C296 H280 0.959 . S
C296 H281 0.959 . S
C296 H282 0.961 . S
C296 C295 1.502 . S
C297 H283 0.960 . S
C297 H284 0.961 . S
C297 H285 0.959 . S
C297 C295 1.561 . S
C298 C295 1.526 . S
C298 C299 1.396 . S
C298 C303 1.390 . S
C299 C293 1.465 . S
C299 C298 1.396 . S
C299 C300 1.399 1_455 S
C300 H286 0.929 . S
C300 C299 1.399 1_655 S
C300 C301 1.385 . S
C301 H287 0.931 . S
C301 C300 1.385 . S
C301 C302 1.389 1_655 S
C302 C301 1.389 1_455 S
C302 C303 1.387 . S
C303 H288 0.930 . S
C303 C298 1.390 . S
C303 C302 1.387 . S
H304 C316 0.930 . S
H305 C318 0.930 . S
H306 C319 0.930 . S
H307 C323 0.959 . S
H308 C323 0.959 . S
H309 C323 0.961 . S
H310 C324 0.960 . S
H311 C324 0.961 . S
H312 C324 0.959 . S
H313 C327 0.929 . S
H314 C328 0.931 . S
H315 C330 0.930 . S
C316 H304 0.930 . S
C316 C317 1.399 1_545 S
C316 C321 1.399 . S
C317 C316 1.399 1_565 S
C317 C318 1.376 1_556 S
C318 H305 0.930 . S
C318 C317 1.376 1_554 S
C318 C319 1.388 1_554 S
C319 H306 0.930 . S
C319 C318 1.388 1_556 S
C319 C320 1.390 . S
C320 C319 1.390 . S
C320 C321 1.394 1_565 S
C320 C326 1.465 . S
C321 C316 1.399 . S
C321 C320 1.394 1_545 S
C321 C322 1.516 . S
C322 C321 1.516 . S
C322 C323 1.502 . S
C322 C324 1.561 . S
C322 C325 1.526 . S
C323 H307 0.959 . S
C323 H308 0.959 . S
C323 H309 0.961 . S
C323 C322 1.502 . S
C324 H310 0.960 . S
C324 H311 0.961 . S
C324 H312 0.959 . S
C324 C322 1.561 . S
C325 C322 1.526 . S
C325 C326 1.396 1_545 S
C325 C330 1.390 . S
C326 C320 1.465 . S
C326 C325 1.396 1_565 S
C326 C327 1.399 . S
C327 H313 0.929 . S
C327 C326 1.399 . S
C327 C328 1.385 . S
C328 H314 0.931 . S
C328 C327 1.385 . S
C328 C329 1.404 . S
C329 C328 1.404 . S
C329 C330 1.375 1_565 S
C330 H315 0.930 . S
C330 C325 1.390 . S
C330 C329 1.375 1_545 S
H331 C343 0.930 1_554 S
H332 C345 0.930 . S
H333 C346 0.930 . S
H334 C350 0.959 . S
H335 C350 0.959 . S
H336 C350 0.961 . S
H337 C351 0.960 . S
H338 C351 0.961 . S
H339 C351 0.959 1_556 S
H340 C354 0.929 . S
H341 C355 0.931 . S
H342 C357 0.930 . S
C343 H331 0.930 1_556 S
C343 C344 1.399 . S
C343 C348 1.399 . S
C344 C343 1.399 . S
C344 C345 1.376 . S
C345 H332 0.930 . S
C345 C344 1.376 . S
C345 C346 1.388 . S
C346 H333 0.930 . S
C346 C345 1.388 . S
C346 C347 1.390 . S
C347 C346 1.390 . S
C347 C348 1.394 . S
C347 C353 1.465 . S
C348 C343 1.399 . S
C348 C347 1.394 . S
C348 C349 1.516 . S
C349 C348 1.516 . S
C349 C350 1.502 . S
C349 C351 1.561 1_556 S
C349 C352 1.526 . S
C350 H334 0.959 . S
C350 H335 0.959 . S
C350 H336 0.961 . S
C350 C349 1.502 . S
C351 H337 0.960 . S
C351 H338 0.961 . S
C351 H339 0.959 1_554 S
C351 C349 1.561 1_554 S
C352 C349 1.526 . S
C352 C353 1.396 . S
C352 C357 1.390 . S
C353 C347 1.465 . S
C353 C352 1.396 . S
C353 C354 1.399 . S
C354 H340 0.929 . S
C354 C353 1.399 . S
C354 C355 1.385 . S
C355 H341 0.931 . S
C355 C354 1.385 . S
C355 C356 1.389 . S
C356 C355 1.389 . S
C356 C357 1.387 . S
C357 H342 0.930 . S
C357 C352 1.390 . S
C357 C356 1.387 . S
H358 C370 0.930 . S
H359 C372 0.930 1_554 S
H360 C373 0.930 1_554 S
H361 C377 0.959 . S
H362 C377 0.959 . S
H363 C377 0.961 . S
H364 C378 0.960 . S
H365 C378 0.961 . S
H366 C378 0.959 . S
H367 C381 0.929 . S
H368 C382 0.931 . S
H369 C384 0.930 . S
C370 H358 0.930 . S
C370 C371 1.399 . S
C370 C375 1.399 . S
C371 C370 1.399 . S
C371 C372 1.376 . S
C372 H359 0.930 1_556 S
C372 C371 1.376 . S
C372 C373 1.388 . S
C373 H360 0.930 1_556 S
C373 C372 1.388 . S
C373 C374 1.390 . S
C374 C373 1.390 . S
C374 C375 1.394 . S
C374 C380 1.465 . S
C375 C370 1.399 . S
C375 C374 1.394 . S
C375 C376 1.516 . S
C376 C375 1.516 . S
C376 C377 1.502 . S
C376 C378 1.561 . S
C376 C379 1.526 . S
C377 H361 0.959 . S
C377 H362 0.959 . S
C377 H363 0.961 . S
C377 C376 1.502 . S
C378 H364 0.960 . S
C378 H365 0.961 . S
C378 H366 0.959 . S
C378 C376 1.561 . S
C379 C376 1.526 . S
C379 C380 1.396 . S
C379 C384 1.390 . S
C380 C374 1.465 . S
C380 C379 1.396 . S
C380 C381 1.399 . S
C381 H367 0.929 . S
C381 C380 1.399 . S
C381 C382 1.385 . S
C382 H368 0.931 . S
C382 C381 1.385 . S
C382 C383 1.389 . S
C383 C382 1.389 . S
C383 C384 1.387 . S
C384 H369 0.930 . S
C384 C379 1.390 . S
C384 C383 1.387 . S
H385 C397 0.930 . S
H386 C399 0.930 . S
H387 C400 0.930 . S
H388 C404 0.959 . S
H389 C404 0.959 . S
H390 C404 0.961 . S
H391 C405 0.960 . S
H392 C405 0.961 . S
H393 C405 0.959 . S
H394 C408 0.929 . S
H395 C409 0.931 . S
H396 C411 0.926 1_655 S
C397 H385 0.930 . S
C397 C398 1.396 1_656 S
C397 C402 1.401 . S
C398 C397 1.396 1_454 S
C398 C399 1.382 . S
C399 H386 0.930 . S
C399 C398 1.382 . S
C399 C400 1.388 . S
C400 H387 0.930 . S
C400 C399 1.388 . S
C400 C401 1.390 1_554 S
C401 C400 1.390 1_556 S
C401 C402 1.389 1_455 S
C401 C407 1.465 . S
C402 C397 1.401 . S
C402 C401 1.389 1_655 S
C402 C403 1.518 . S
C403 C402 1.518 . S
C403 C404 1.502 . S
C403 C405 1.561 1_655 S
C403 C406 1.526 1_655 S
C404 H388 0.959 . S
C404 H389 0.959 . S
C404 H390 0.961 . S
C404 C403 1.502 . S
C405 H391 0.960 . S
C405 H392 0.961 . S
C405 H393 0.959 . S
C405 C403 1.561 1_455 S
C406 C403 1.526 1_455 S
C406 C407 1.396 . S
C406 C411 1.390 . S
C407 C401 1.465 . S
C407 C406 1.396 . S
C407 C408 1.399 . S
C408 H394 0.929 . S
C408 C407 1.399 . S
C408 C409 1.385 . S
C409 H395 0.931 . S
C409 C408 1.385 . S
C409 C410 1.389 . S
C410 C409 1.389 . S
C410 C411 1.390 . S
C411 H396 0.926 1_455 S
C411 C406 1.390 . S
C411 C410 1.390 . S
H412 C424 0.930 . S
H413 C426 0.930 . S
H414 C427 0.930 . S
H415 C431 0.959 . S
H416 C431 0.959 . S
H417 C431 0.961 . S
H418 C432 0.960 . S
H419 C432 0.961 . S
H420 C432 0.959 . S
H421 C435 0.929 1_655 S
H422 C436 0.931 1_655 S
H423 C438 0.930 . S
C424 H412 0.930 . S
C424 C425 1.399 . S
C424 C429 1.399 . S
C425 C424 1.399 . S
C425 C426 1.376 . S
C426 H413 0.930 . S
C426 C425 1.376 . S
C426 C427 1.388 . S
C427 H414 0.930 . S
C427 C426 1.388 . S
C427 C428 1.390 . S
C428 C427 1.390 . S
C428 C429 1.394 . S
C428 C434 1.465 . S
C429 C424 1.399 . S
C429 C428 1.394 . S
C429 C430 1.516 . S
C430 C429 1.516 . S
C430 C431 1.502 . S
C430 C432 1.561 . S
C430 C433 1.526 . S
C431 H415 0.959 . S
C431 H416 0.959 . S
C431 H417 0.961 . S
C431 C430 1.502 . S
C432 H418 0.960 . S
C432 H419 0.961 . S
C432 H420 0.959 . S
C432 C430 1.561 . S
C433 C430 1.526 . S
C433 C434 1.396 . S
C433 C438 1.390 . S
C434 C428 1.465 . S
C434 C433 1.396 . S
C434 C435 1.399 . S
C435 H421 0.929 1_455 S
C435 C434 1.399 . S
C435 C436 1.385 . S
C436 H422 0.931 1_455 S
C436 C435 1.385 . S
C436 C437 1.389 . S
C437 C436 1.389 . S
C437 C438 1.387 . S
C438 H423 0.930 . S
C438 C433 1.390 . S
C438 C437 1.387 . S
H439 C451 0.930 . S
H440 C453 0.930 . S
H441 C454 0.930 . S
H442 C458 0.959 . S
H443 C458 0.959 . S
H444 C458 0.961 . S
H445 C459 0.960 . S
H446 C459 0.961 . S
H447 C459 0.959 1_565 S
H448 C462 0.929 . S
H449 C463 0.931 . S
H450 C465 0.930 . S
C451 H439 0.930 . S
C451 C452 1.399 . S
C451 C456 1.399 . S
C452 C451 1.399 . S
C452 C453 1.376 1_545 S
C453 H440 0.930 . S
C453 C452 1.376 1_565 S
C453 C454 1.388 . S
C454 H441 0.930 . S
C454 C453 1.388 . S
C454 C455 1.391 1_565 S
C455 C454 1.391 1_545 S
C455 C456 1.392 . S
C455 C461 1.465 . S
C456 C451 1.399 . S
C456 C455 1.392 . S
C456 C457 1.516 . S
C457 C456 1.516 . S
C457 C458 1.502 . S
C457 C459 1.561 . S
C457 C460 1.526 . S
C458 H442 0.959 . S
C458 H443 0.959 . S
C458 H444 0.961 . S
C458 C457 1.502 . S
C459 H445 0.960 . S
C459 H446 0.961 . S
C459 H447 0.959 1_545 S
C459 C457 1.561 . S
C460 C457 1.526 . S
C460 C461 1.394 . S
C460 C465 1.390 . S
C461 C455 1.465 . S
C461 C460 1.394 . S
C461 C462 1.400 1_545 S
C462 H448 0.929 . S
C462 C461 1.400 1_565 S
C462 C463 1.385 . S
C463 H449 0.931 . S
C463 C462 1.385 . S
C463 C464 1.389 1_565 S
C464 C463 1.389 1_545 S
C464 C465 1.387 . S
C465 H450 0.930 . S
C465 C460 1.390 . S
C465 C464 1.387 . S
H466 C478 0.930 . S
H467 C480 0.930 . S
H468 C481 0.930 . S
H469 C485 0.959 . S
H470 C485 0.959 . S
H471 C485 0.961 . S
H472 C486 0.960 . S
H473 C486 0.961 . S
H474 C486 0.959 . S
H475 C489 0.929 . S
H476 C490 0.931 . S
H477 C492 0.930 . S
C478 H466 0.930 . S
C478 C479 1.399 . S
C478 C483 1.399 . S
C479 C478 1.399 . S
C479 C480 1.376 . S
C480 H467 0.930 . S
C480 C479 1.376 . S
C480 C481 1.388 . S
C481 H468 0.930 . S
C481 C480 1.388 . S
C481 C482 1.390 . S
C482 C481 1.390 . S
C482 C483 1.394 . S
C482 C488 1.465 . S
C483 C478 1.399 . S
C483 C482 1.394 . S
C483 C484 1.516 . S
C484 C483 1.516 . S
C484 C485 1.502 . S
C484 C486 1.561 . S
C484 C487 1.526 . S
C485 H469 0.959 . S
C485 H470 0.959 . S
C485 H471 0.961 . S
C485 C484 1.502 . S
C486 H472 0.960 . S
C486 H473 0.961 . S
C486 H474 0.959 . S
C486 C484 1.561 . S
C487 C484 1.526 . S
C487 C488 1.396 . S
C487 C492 1.390 . S
C488 C482 1.465 . S
C488 C487 1.396 . S
C488 C489 1.399 . S
C489 H475 0.929 . S
C489 C488 1.399 . S
C489 C490 1.385 . S
C490 H476 0.931 . S
C490 C489 1.385 . S
C490 C491 1.389 . S
C491 C490 1.389 . S
C491 C492 1.387 . S
C492 H477 0.930 . S
C492 C487 1.390 . S
C492 C491 1.387 . S
H493 C505 0.930 . S
H494 C507 0.930 . S
H495 C508 0.930 . S
H496 C512 0.959 . S
H497 C512 0.959 . S
H498 C512 0.961 . S
H499 C513 0.960 . S
H500 C513 0.961 . S
H501 C513 0.959 . S
H502 C516 0.929 . S
H503 C517 0.931 . S
H504 C519 0.930 . S
C505 H493 0.930 . S
C505 C506 1.399 . S
C505 C510 1.399 . S
C506 C505 1.399 . S
C506 C507 1.376 . S
C507 H494 0.930 . S
C507 C506 1.376 . S
C507 C508 1.388 . S
C508 H495 0.930 . S
C508 C507 1.388 . S
C508 C509 1.390 . S
C509 C508 1.390 . S
C509 C510 1.394 . S
C509 C515 1.465 . S
C510 C505 1.399 . S
C510 C509 1.394 . S
C510 C511 1.516 . S
C511 C510 1.516 . S
C511 C512 1.502 . S
C511 C513 1.561 . S
C511 C514 1.526 . S
C512 H496 0.959 . S
C512 H497 0.959 . S
C512 H498 0.961 . S
C512 C511 1.502 . S
C513 H499 0.960 . S
C513 H500 0.961 . S
C513 H501 0.959 . S
C513 C511 1.561 . S
C514 C511 1.526 . S
C514 C515 1.396 . S
C514 C519 1.390 . S
C515 C509 1.465 . S
C515 C514 1.396 . S
C515 C516 1.399 . S
C516 H502 0.929 . S
C516 C515 1.399 . S
C516 C517 1.385 . S
C517 H503 0.931 . S
C517 C516 1.385 . S
C517 C518 1.389 . S
C518 C517 1.389 . S
C518 C519 1.387 . S
C519 H504 0.930 . S
C519 C514 1.390 . S
C519 C518 1.387 . S
H520 C532 0.930 1_655 S
H521 C534 0.930 . S
H522 C535 0.930 . S
H523 C539 0.959 . S
H524 C539 0.959 . S
H525 C539 0.961 . S
H526 C540 0.960 . S
H527 C540 0.961 . S
H528 C540 0.959 . S
H529 C543 0.929 . S
H530 C544 0.931 . S
H531 C546 0.930 . S
C532 H520 0.930 1_455 S
C532 C533 1.399 . S
C532 C537 1.399 . S
C533 C532 1.399 . S
C533 C534 1.376 1_554 S
C534 H521 0.930 . S
C534 C533 1.376 1_556 S
C534 C535 1.388 . S
C535 H522 0.930 . S
C535 C534 1.388 . S
C535 C536 1.390 . S
C536 C535 1.390 . S
C536 C537 1.394 1_556 S
C536 C542 1.465 . S
C537 C532 1.399 . S
C537 C536 1.394 1_554 S
C537 C538 1.516 . S
C538 C537 1.516 . S
C538 C539 1.502 1_455 S
C538 C540 1.561 . S
C538 C541 1.526 1_554 S
C539 H523 0.959 . S
C539 H524 0.959 . S
C539 H525 0.961 . S
C539 C538 1.502 1_655 S
C540 H526 0.960 . S
C540 H527 0.961 . S
C540 H528 0.959 . S
C540 C538 1.561 . S
C541 C538 1.526 1_556 S
C541 C542 1.396 . S
C541 C546 1.390 . S
C542 C536 1.465 . S
C542 C541 1.396 . S
C542 C543 1.399 . S
C543 H529 0.929 . S
C543 C542 1.399 . S
C543 C544 1.385 . S
C544 H530 0.931 . S
C544 C543 1.385 . S
C544 C545 1.389 . S
C545 C544 1.389 . S
C545 C546 1.387 . S
C546 H531 0.930 . S
C546 C541 1.390 . S
C546 C545 1.387 . S
H547 C559 0.930 . S
H548 C561 0.930 . S
H549 C562 0.930 . S
H550 C566 0.959 1_545 S
H551 C566 0.959 . S
H552 C566 0.961 . S
H553 C567 0.960 . S
H554 C567 0.961 . S
H555 C567 0.959 . S
H556 C570 0.929 . S
H557 C571 0.931 . S
H558 C573 0.930 . S
C559 H547 0.930 . S
C559 C560 1.399 1_565 S
C559 C564 1.398 1_565 S
C560 C559 1.399 1_545 S
C560 C561 1.376 1_556 S
C561 H548 0.930 . S
C561 C560 1.376 1_554 S
C561 C562 1.388 . S
C562 H549 0.930 . S
C562 C561 1.388 . S
C562 C563 1.390 1_554 S
C563 C562 1.390 1_556 S
C563 C564 1.395 . S
C563 C569 1.465 . S
C564 C559 1.398 1_545 S
C564 C563 1.395 . S
C564 C565 1.516 1_545 S
C565 C564 1.516 1_565 S
C565 C566 1.502 . S
C565 C567 1.561 . S
C565 C568 1.526 1_565 S
C566 H550 0.959 1_565 S
C566 H551 0.959 . S
C566 H552 0.961 . S
C566 C565 1.502 . S
C567 H553 0.960 . S
C567 H554 0.961 . S
C567 H555 0.959 . S
C567 C565 1.561 . S
C568 C565 1.526 1_545 S
C568 C569 1.396 . S
C568 C573 1.390 . S
C569 C563 1.465 . S
C569 C568 1.396 . S
C569 C570 1.399 . S
C570 H556 0.929 . S
C570 C569 1.399 . S
C570 C571 1.385 . S
C571 H557 0.931 . S
C571 C570 1.385 . S
C571 C572 1.389 . S
C572 C571 1.389 . S
C572 C573 1.387 . S
C573 H558 0.930 . S
C573 C568 1.390 . S
C573 C572 1.387 . S
H574 C586 0.930 . S
H575 C588 0.930 . S
H576 C589 0.930 1_554 S
H577 C593 0.959 . S
H578 C593 0.959 . S
H579 C593 0.961 . S
H580 C594 0.960 . S
H581 C594 0.961 . S
H582 C594 0.959 . S
H583 C597 0.929 . S
H584 C598 0.931 . S
H585 C600 0.930 . S
C586 H574 0.930 . S
C586 C587 1.399 . S
C586 C591 1.399 . S
C587 C586 1.399 . S
C587 C588 1.376 1_556 S
C588 H575 0.930 . S
C588 C587 1.376 1_554 S
C588 C589 1.388 1_554 S
C589 H576 0.930 1_556 S
C589 C588 1.388 1_556 S
C589 C590 1.390 . S
C590 C589 1.390 . S
C590 C591 1.394 . S
C590 C596 1.465 . S
C591 C586 1.399 . S
C591 C590 1.394 . S
C591 C592 1.516 . S
C592 C591 1.516 . S
C592 C593 1.502 . S
C592 C594 1.561 . S
C592 C595 1.526 . S
C593 H577 0.959 . S
C593 H578 0.959 . S
C593 H579 0.961 . S
C593 C592 1.502 . S
C594 H580 0.960 . S
C594 H581 0.961 . S
C594 H582 0.959 . S
C594 C592 1.561 . S
C595 C592 1.526 . S
C595 C596 1.396 . S
C595 C600 1.390 . S
C596 C590 1.465 . S
C596 C595 1.396 . S
C596 C597 1.399 . S
C597 H583 0.929 . S
C597 C596 1.399 . S
C597 C598 1.385 . S
C598 H584 0.931 . S
C598 C597 1.385 . S
C598 C599 1.389 . S
C599 C598 1.389 . S
C599 C600 1.387 . S
C600 H585 0.930 . S
C600 C595 1.390 . S
C600 C599 1.387 . S
H601 C613 0.930 . S
H602 C615 0.930 1_554 S
H603 C616 0.930 . S
H604 C620 0.959 . S
H605 C620 0.959 . S
H606 C620 0.961 . S
H607 C621 0.960 . S
H608 C621 0.961 . S
H609 C621 0.959 . S
H610 C624 0.929 . S
H611 C625 0.931 . S
H612 C627 0.930 . S
C613 H601 0.930 . S
C613 C614 1.399 . S
C613 C618 1.399 . S
C614 C613 1.399 . S
C614 C615 1.376 . S
C615 H602 0.930 1_556 S
C615 C614 1.376 . S
C615 C616 1.388 . S
C616 H603 0.930 . S
C616 C615 1.388 . S
C616 C617 1.390 . S
C617 C616 1.390 . S
C617 C618 1.394 . S
C617 C623 1.465 . S
C618 C613 1.399 . S
C618 C617 1.394 . S
C618 C619 1.516 . S
C619 C618 1.516 . S
C619 C620 1.502 . S
C619 C621 1.561 . S
C619 C622 1.526 . S
C620 H604 0.959 . S
C620 H605 0.959 . S
C620 H606 0.961 . S
C620 C619 1.502 . S
C621 H607 0.960 . S
C621 H608 0.961 . S
C621 H609 0.959 . S
C621 C619 1.561 . S
C622 C619 1.526 . S
C622 C623 1.396 . S
C622 C627 1.390 . S
C623 C617 1.465 . S
C623 C622 1.396 . S
C623 C624 1.399 . S
C624 H610 0.929 . S
C624 C623 1.399 . S
C624 C625 1.385 . S
C625 H611 0.931 . S
C625 C624 1.385 . S
C625 C626 1.389 . S
C626 C625 1.389 . S
C626 C627 1.387 . S
C627 H612 0.930 . S
C627 C622 1.390 . S
C627 C626 1.387 . S
H628 C640 0.930 . S
H629 C642 0.930 . S
H630 C643 0.930 . S
H631 C647 0.959 . S
H632 C647 0.959 1_556 S
H633 C647 0.961 . S
H634 C648 0.960 . S
H635 C648 0.961 . S
H636 C648 0.959 . S
H637 C651 0.929 . S
H638 C652 0.931 . S
H639 C654 0.934 . S
C640 H628 0.930 . S
C640 C641 1.399 . S
C640 C645 1.399 . S
C641 C640 1.399 . S
C641 C642 1.376 . S
C642 H629 0.930 . S
C642 C641 1.376 . S
C642 C643 1.388 . S
C643 H630 0.930 . S
C643 C642 1.388 . S
C643 C644 1.390 . S
C644 C643 1.390 . S
C644 C645 1.394 . S
C644 C650 1.465 . S
C645 C640 1.399 . S
C645 C644 1.394 . S
C645 C646 1.516 . S
C646 C645 1.516 . S
C646 C647 1.502 1_455 S
C646 C648 1.561 1_554 S
C646 C649 1.526 . S
C647 H631 0.959 . S
C647 H632 0.959 1_554 S
C647 H633 0.961 . S
C647 C646 1.502 1_655 S
C648 H634 0.960 . S
C648 H635 0.961 . S
C648 H636 0.959 . S
C648 C646 1.561 1_556 S
C649 C646 1.526 . S
C649 C650 1.395 . S
C649 C654 1.391 1_554 S
C650 C644 1.465 . S
C650 C649 1.395 . S
C650 C651 1.399 . S
C651 H637 0.929 . S
C651 C650 1.399 . S
C651 C652 1.385 1_554 S
C652 H638 0.931 . S
C652 C651 1.385 1_556 S
C652 C653 1.389 . S
C653 C652 1.389 . S
C653 C654 1.387 . S
C654 H639 0.934 . S
C654 C649 1.391 1_556 S
C654 C653 1.387 . S
H655 C667 0.930 . S
H656 C669 0.930 . S
H657 C670 0.930 1_556 S
H658 C674 0.959 . S
H659 C674 0.959 . S
H660 C674 0.961 . S
H661 C675 0.960 . S
H662 C675 0.961 . S
H663 C675 0.959 . S
H664 C678 0.929 . S
H665 C679 0.931 . S
H666 C681 0.930 . S
C667 H655 0.930 . S
C667 C668 1.399 . S
C667 C672 1.399 . S
C668 C667 1.399 . S
C668 C669 1.376 1_545 S
C669 H656 0.930 . S
C669 C668 1.376 1_565 S
C669 C670 1.388 . S
C670 H657 0.930 1_554 S
C670 C669 1.388 . S
C670 C671 1.387 1_565 S
C671 C670 1.387 1_545 S
C671 C672 1.398 . S
C671 C677 1.465 1_554 S
C672 C667 1.399 . S
C672 C671 1.398 . S
C672 C673 1.516 . S
C673 C672 1.516 . S
C673 C674 1.502 . S
C673 C675 1.561 1_545 S
C673 C676 1.526 . S
C674 H658 0.959 . S
C674 H659 0.959 . S
C674 H660 0.961 . S
C674 C673 1.502 . S
C675 H661 0.960 . S
C675 H662 0.961 . S
C675 H663 0.959 . S
C675 C673 1.561 1_565 S
C676 C673 1.526 . S
C676 C677 1.395 1_554 S
C676 C681 1.390 1_554 S
C677 C671 1.465 1_556 S
C677 C676 1.395 1_556 S
C677 C678 1.400 1_545 S
C678 H664 0.929 . S
C678 C677 1.400 1_565 S
C678 C679 1.385 . S
C679 H665 0.931 . S
C679 C678 1.385 . S
C679 C680 1.389 1_565 S
C680 C679 1.389 1_545 S
C680 C681 1.387 . S
C681 H666 0.930 . S
C681 C676 1.390 1_556 S
C681 C680 1.387 . S
H682 C694 0.930 . S
H683 C696 0.930 . S
H684 C697 0.930 . S
H685 C701 0.959 . S
H686 C701 0.959 . S
H687 C701 0.961 . S
H688 C702 0.960 . S
H689 C702 0.961 . S
H690 C702 0.959 . S
H691 C705 0.929 . S
H692 C706 0.931 . S
H693 C708 0.930 . S
C694 H682 0.930 . S
C694 C695 1.399 . S
C694 C699 1.399 . S
C695 C694 1.399 . S
C695 C696 1.376 . S
C696 H683 0.930 . S
C696 C695 1.376 . S
C696 C697 1.388 . S
C697 H684 0.930 . S
C697 C696 1.388 . S
C697 C698 1.390 . S
C698 C697 1.390 . S
C698 C699 1.394 . S
C698 C704 1.465 1_554 S
C699 C694 1.399 . S
C699 C698 1.394 . S
C699 C700 1.516 1_554 S
C700 C699 1.516 1_556 S
C700 C701 1.502 . S
C700 C702 1.561 . S
C700 C703 1.526 . S
C701 H685 0.959 . S
C701 H686 0.959 . S
C701 H687 0.961 . S
C701 C700 1.502 . S
C702 H688 0.960 . S
C702 H689 0.961 . S
C702 H690 0.959 . S
C702 C700 1.561 . S
C703 C700 1.526 . S
C703 C704 1.396 . S
C703 C708 1.390 . S
C704 C698 1.465 1_556 S
C704 C703 1.396 . S
C704 C705 1.399 1_556 S
C705 H691 0.929 . S
C705 C704 1.399 1_554 S
C705 C706 1.385 1_554 S
C706 H692 0.931 . S
C706 C705 1.385 1_556 S
C706 C707 1.389 . S
C707 C706 1.389 . S
C707 C708 1.387 . S
C708 H693 0.930 . S
C708 C703 1.390 . S
C708 C707 1.387 . S
H709 C721 0.930 . S
H710 C723 0.930 . S
H711 C724 0.930 . S
H712 C728 0.959 . S
H713 C728 0.959 . S
H714 C728 0.961 . S
H715 C729 0.960 . S
H716 C729 0.961 . S
H717 C729 0.959 1_554 S
H718 C732 0.929 1_554 S
H719 C733 0.931 . S
H720 C735 0.930 . S
C721 H709 0.930 . S
C721 C722 1.399 . S
C721 C726 1.399 . S
C722 C721 1.399 . S
C722 C723 1.376 . S
C723 H710 0.930 . S
C723 C722 1.376 . S
C723 C724 1.388 . S
C724 H711 0.930 . S
C724 C723 1.388 . S
C724 C725 1.390 . S
C725 C724 1.390 . S
C725 C726 1.394 . S
C725 C731 1.465 1_554 S
C726 C721 1.399 . S
C726 C725 1.394 . S
C726 C727 1.516 1_554 S
C727 C726 1.516 1_556 S
C727 C728 1.502 . S
C727 C729 1.561 . S
C727 C730 1.526 . S
C728 H712 0.959 . S
C728 H713 0.959 . S
C728 H714 0.961 . S
C728 C727 1.502 . S
C729 H715 0.960 . S
C729 H716 0.961 . S
C729 H717 0.959 1_556 S
C729 C727 1.561 . S
C730 C727 1.526 . S
C730 C731 1.396 . S
C730 C735 1.390 . S
C731 C725 1.465 1_556 S
C731 C730 1.396 . S
C731 C732 1.399 . S
C732 H718 0.929 1_556 S
C732 C731 1.399 . S
C732 C733 1.385 . S
C733 H719 0.931 . S
C733 C732 1.385 . S
C733 C734 1.389 . S
C734 C733 1.389 . S
C734 C735 1.387 . S
C735 H720 0.930 . S
C735 C730 1.390 . S
C735 C734 1.387 . S
H736 C748 0.930 . S
H737 C750 0.930 . S
H738 C751 0.929 1_455 S
H739 C755 0.959 1_455 S
H740 C755 0.959 . S
H741 C755 0.961 . S
H742 C756 0.960 . S
H743 C756 0.961 . S
H744 C756 0.959 . S
H745 C759 0.929 . S
H746 C760 0.931 . S
H747 C762 0.930 . S
C748 H736 0.930 . S
C748 C749 1.399 . S
C748 C753 1.399 . S
C749 C748 1.399 . S
C749 C750 1.376 1_655 S
C750 H737 0.930 . S
C750 C749 1.376 1_455 S
C750 C751 1.388 1_455 S
C751 H738 0.929 1_655 S
C751 C750 1.388 1_655 S
C751 C752 1.392 . S
C752 C751 1.392 . S
C752 C753 1.394 . S
C752 C758 1.465 . S
C753 C748 1.399 . S
C753 C752 1.394 . S
C753 C754 1.516 . S
C754 C753 1.516 . S
C754 C755 1.502 . S
C754 C756 1.561 . S
C754 C757 1.526 . S
C755 H739 0.959 1_655 S
C755 H740 0.959 . S
C755 H741 0.961 . S
C755 C754 1.502 . S
C756 H742 0.960 . S
C756 H743 0.961 . S
C756 H744 0.959 . S
C756 C754 1.561 . S
C757 C754 1.526 . S
C757 C758 1.396 . S
C757 C762 1.390 . S
C758 C752 1.465 . S
C758 C757 1.396 . S
C758 C759 1.399 . S
C759 H745 0.929 . S
C759 C758 1.399 . S
C759 C760 1.385 . S
C760 H746 0.931 . S
C760 C759 1.385 . S
C760 C761 1.389 . S
C761 C760 1.389 . S
C761 C762 1.387 . S
C762 H747 0.930 . S
C762 C757 1.390 . S
C762 C761 1.387 . S
H763 C775 0.930 . S
H764 C777 0.930 . S
H765 C778 0.930 . S
H766 C782 0.961 1_565 S
H767 C782 0.959 . S
H768 C782 0.961 . S
H769 C783 0.960 . S
H770 C783 0.961 . S
H771 C783 0.959 . S
H772 C786 0.929 . S
H773 C787 0.931 . S
H774 C789 0.930 1_545 S
C775 H763 0.930 . S
C775 C776 1.399 1_545 S
C775 C780 1.399 . S
C776 C775 1.399 1_565 S
C776 C777 1.376 . S
C777 H764 0.930 . S
C777 C776 1.376 . S
C777 C778 1.388 . S
C778 H765 0.930 . S
C778 C777 1.388 . S
C778 C779 1.390 . S
C779 C778 1.390 . S
C779 C780 1.394 1_565 S
C779 C785 1.465 . S
C780 C775 1.399 . S
C780 C779 1.394 1_545 S
C780 C781 1.516 . S
C781 C780 1.516 . S
C781 C782 1.502 . S
C781 C783 1.561 . S
C781 C784 1.526 1_545 S
C782 H766 0.961 1_545 S
C782 H767 0.959 . S
C782 H768 0.961 . S
C782 C781 1.502 . S
C783 H769 0.960 . S
C783 H770 0.961 . S
C783 H771 0.959 . S
C783 C781 1.561 . S
C784 C781 1.526 1_565 S
C784 C785 1.396 . S
C784 C789 1.390 . S
C785 C779 1.465 . S
C785 C784 1.396 . S
C785 C786 1.399 . S
C786 H772 0.929 . S
C786 C785 1.399 . S
C786 C787 1.385 . S
C787 H773 0.931 . S
C787 C786 1.385 . S
C787 C788 1.389 . S
C788 C787 1.389 . S
C788 C789 1.387 . S
C789 H774 0.930 1_565 S
C789 C784 1.390 . S
C789 C788 1.387 . S
H790 C802 0.930 . S
H791 C804 0.930 . S
H792 C805 0.930 . S
H793 C809 0.959 . S
H794 C809 0.959 . S
H795 C809 0.961 . S
H796 C810 0.960 . S
H797 C810 0.961 . S
H798 C810 0.959 . S
H799 C813 0.929 . S
H800 C814 0.931 . S
H801 C816 0.930 . S
C802 H790 0.930 . S
C802 C803 1.399 . S
C802 C807 1.399 . S
C803 C802 1.399 . S
C803 C804 1.376 . S
C804 H791 0.930 . S
C804 C803 1.376 . S
C804 C805 1.388 . S
C805 H792 0.930 . S
C805 C804 1.388 . S
C805 C806 1.390 . S
C806 C805 1.390 . S
C806 C807 1.394 . S
C806 C812 1.465 . S
C807 C802 1.399 . S
C807 C806 1.394 . S
C807 C808 1.516 . S
C808 C807 1.516 . S
C808 C809 1.502 . S
C808 C810 1.561 . S
C808 C811 1.526 . S
C809 H793 0.959 . S
C809 H794 0.959 . S
C809 H795 0.961 . S
C809 C808 1.502 . S
C810 H796 0.960 . S
C810 H797 0.961 . S
C810 H798 0.959 . S
C810 C808 1.561 . S
C811 C808 1.526 . S
C811 C812 1.396 . S
C811 C816 1.390 . S
C812 C806 1.465 . S
C812 C811 1.396 . S
C812 C813 1.399 . S
C813 H799 0.929 . S
C813 C812 1.399 . S
C813 C814 1.385 . S
C814 H800 0.931 . S
C814 C813 1.385 . S
C814 C815 1.389 . S
C815 C814 1.389 . S
C815 C816 1.387 . S
C816 H801 0.930 . S
C816 C811 1.390 . S
C816 C815 1.387 . S
H817 C829 0.930 . S
H818 C831 0.930 . S
H819 C832 0.930 . S
H820 C836 0.959 . S
H821 C836 0.959 . S
H822 C836 0.961 . S
H823 C837 0.960 . S
H824 C837 0.961 . S
H825 C837 0.959 . S
H826 C840 0.929 . S
H827 C841 0.931 . S
H828 C843 0.930 . S
C829 H817 0.930 . S
C829 C830 1.399 . S
C829 C834 1.399 . S
C830 C829 1.399 . S
C830 C831 1.376 . S
C831 H818 0.930 . S
C831 C830 1.376 . S
C831 C832 1.388 . S
C832 H819 0.930 . S
C832 C831 1.388 . S
C832 C833 1.390 . S
C833 C832 1.390 . S
C833 C834 1.394 . S
C833 C839 1.465 . S
C834 C829 1.399 . S
C834 C833 1.394 . S
C834 C835 1.516 . S
C835 C834 1.516 . S
C835 C836 1.502 . S
C835 C837 1.561 . S
C835 C838 1.526 . S
C836 H820 0.959 . S
C836 H821 0.959 . S
C836 H822 0.961 . S
C836 C835 1.502 . S
C837 H823 0.960 . S
C837 H824 0.961 . S
C837 H825 0.959 . S
C837 C835 1.561 . S
C838 C835 1.526 . S
C838 C839 1.396 . S
C838 C843 1.390 . S
C839 C833 1.465 . S
C839 C838 1.396 . S
C839 C840 1.399 . S
C840 H826 0.929 . S
C840 C839 1.399 . S
C840 C841 1.385 . S
C841 H827 0.931 . S
C841 C840 1.385 . S
C841 C842 1.389 . S
C842 C841 1.389 . S
C842 C843 1.387 . S
C843 H828 0.930 . S
C843 C838 1.390 . S
C843 C842 1.387 . S
C209 C82 1.410 . S
C221 C120 1.587 1_545 S
C248 C143 1.589 . S
C236 C95 1.549 . S
C275 C166 1.626 . S
C263 C56 1.473 . S
C302 C193 1.521 . S
C290 C69 1.501 . S
C329 C121 1.546 1_565 S
C317 C30 1.494 1_566 S
C344 C43 1.384 . S
C356 C144 1.506 . S
C371 C4 1.411 . S
C383 C167 1.467 . S
C398 C17 1.487 . S
C410 C192 1.578 . S
C437 C122 0.393 . S
C425 C74 0.421 . S
C464 C145 0.382 . S
C452 C87 0.407 . S
C491 C168 0.403 . S
C479 C100 0.551 . S
C506 C61 0.601 . S
C518 C194 0.583 . S
C533 C22 0.733 . S
C545 C125 0.759 . S
C572 C148 0.770 . S
C560 C35 0.602 1_556 S
C599 C171 0.593 . S
C587 C48 0.646 . S
C614 C9 0.462 . S
C626 C191 0.410 . S
C641 C73 1.561 . S
C653 C123 1.546 . S
C668 C86 1.546 . S
C680 C146 1.504 . S
C707 C169 1.549 . S
C695 C99 1.514 . S
C734 C190 1.385 . S
C722 C60 1.303 . S
C749 C21 1.630 1_655 S
C761 C124 1.507 . S
C788 C147 1.534 . S
C776 C34 1.516 1_565 S
C815 C170 1.431 . S
C803 C47 1.546 . S
C830 C8 1.647 . S
C842 C189 1.734 . S
