# Generated by pormake.
# Topology pyr, (3,6)-cn, num edge types: 1
# Building blocks:
#     Node 0, Type 0, BuildingBlock: VETTIZ_charged_linker_0, # of connection points: 3
#     Node 1, Type 0, BuildingBlock: VETTIZ_charged_linker_0, # of connection points: 3
#     Node 2, Type 0, BuildingBlock: VETTIZ_charged_linker_0, # of connection points: 3
#     Node 3, Type 0, BuildingBlock: VETTIZ_charged_linker_0, # of connection points: 3
#     Node 4, Type 0, BuildingBlock: VETTIZ_charged_linker_0, # of connection points: 3
#     Node 5, Type 0, BuildingBlock: VETTIZ_charged_linker_0, # of connection points: 3
#     Node 6, Type 0, BuildingBlock: VETTIZ_charged_linker_0, # of connection points: 3
#     Node 7, Type 0, BuildingBlock: VETTIZ_charged_linker_0, # of connection points: 3
#     Node 8, Type 1, BuildingBlock: MIFKUJ_clean_sbu_0, # of connection points: 6
#     Node 9, Type 1, BuildingBlock: MIFKUJ_clean_sbu_0, # of connection points: 6
#     Node 10, Type 1, BuildingBlock: MIFKUJ_clean_sbu_0, # of connection points: 6
#     Node 11, Type 1, BuildingBlock: MIFKUJ_clean_sbu_0, # of connection points: 6
#     Edge 12, Type (0, 1), BuildingBlock: XUDNAN_clean_linker_2, # of connection points: 2
#     Edge 13, Type (0, 1), BuildingBlock: XUDNAN_clean_linker_2, # of connection points: 2
#     Edge 14, Type (0, 1), BuildingBlock: XUDNAN_clean_linker_2, # of connection points: 2
#     Edge 15, Type (0, 1), BuildingBlock: XUDNAN_clean_linker_2, # of connection points: 2
#     Edge 16, Type (0, 1), BuildingBlock: XUDNAN_clean_linker_2, # of connection points: 2
#     Edge 17, Type (0, 1), BuildingBlock: XUDNAN_clean_linker_2, # of connection points: 2
#     Edge 18, Type (0, 1), BuildingBlock: XUDNAN_clean_linker_2, # of connection points: 2
#     Edge 19, Type (0, 1), BuildingBlock: XUDNAN_clean_linker_2, # of connection points: 2
#     Edge 20, Type (0, 1), BuildingBlock: XUDNAN_clean_linker_2, # of connection points: 2
#     Edge 21, Type (0, 1), BuildingBlock: XUDNAN_clean_linker_2, # of connection points: 2
#     Edge 22, Type (0, 1), BuildingBlock: XUDNAN_clean_linker_2, # of connection points: 2
#     Edge 23, Type (0, 1), BuildingBlock: XUDNAN_clean_linker_2, # of connection points: 2
#     Edge 24, Type (0, 1), BuildingBlock: XUDNAN_clean_linker_2, # of connection points: 2
#     Edge 25, Type (0, 1), BuildingBlock: XUDNAN_clean_linker_2, # of connection points: 2
#     Edge 26, Type (0, 1), BuildingBlock: XUDNAN_clean_linker_2, # of connection points: 2
#     Edge 27, Type (0, 1), BuildingBlock: XUDNAN_clean_linker_2, # of connection points: 2
#     Edge 28, Type (0, 1), BuildingBlock: XUDNAN_clean_linker_2, # of connection points: 2
#     Edge 29, Type (0, 1), BuildingBlock: XUDNAN_clean_linker_2, # of connection points: 2
#     Edge 30, Type (0, 1), BuildingBlock: XUDNAN_clean_linker_2, # of connection points: 2
#     Edge 31, Type (0, 1), BuildingBlock: XUDNAN_clean_linker_2, # of connection points: 2
#     Edge 32, Type (0, 1), BuildingBlock: XUDNAN_clean_linker_2, # of connection points: 2
#     Edge 33, Type (0, 1), BuildingBlock: XUDNAN_clean_linker_2, # of connection points: 2
#     Edge 34, Type (0, 1), BuildingBlock: XUDNAN_clean_linker_2, # of connection points: 2
#     Edge 35, Type (0, 1), BuildingBlock: XUDNAN_clean_linker_2, # of connection points: 2
# Relax obj value: 0.027
# Max RMSD: 0.079
# Mean RMSD: 0.047
data_MOF--net-pyr--node1-MIFKUJ_clean_sbu_0--node2-VETTIZ_charged_linker_0--edge1-XUDNAN_clean_linker_2
_symmetry_space_group_name_H-M    P1
_symmetry_Int_Tables_number       1
_symmetry_cell_setting            triclinic
loop_
_symmetry_equiv_pos_as_xyz
'x, y, z'
_cell_length_a     47.896764
_cell_length_b     43.05941
_cell_length_c     46.466747
_cell_angle_alpha  86.285148
_cell_angle_beta   88.413752
_cell_angle_gamma 95.668427
loop_
_atom_site_label
_atom_site_type_symbol
_atom_site_fract_x
_atom_site_fract_y
_atom_site_fract_z
_atom_type_partial_charge
C0 C 0.14939 0.13199 0.29164 0.0
C1 C 0.12605 0.14665 0.30107 0.0
C2 C 0.12037 0.17507 0.28665 0.0
C3 C 0.15708 0.17053 0.251 0.0
C4 C 0.16476 0.14454 0.26666 0.0
C5 C 0.18986 0.13203 0.25289 0.0
H6 H 0.27493 0.12925 0.13463 0.0
C7 C 0.17463 0.17546 0.22429 0.0
C8 C 0.1944 0.15349 0.22543 0.0
H9 H 0.27971 0.07818 0.21749 0.0
H10 H 0.24148 0.10416 0.2363 0.0
H11 H 0.2706 0.19458 0.16078 0.0
H12 H 0.20727 0.12593 0.13307 0.0
H13 H 0.19954 0.16301 0.11935 0.0
H14 H 0.2321 0.14885 0.10865 0.0
H15 H 0.26404 0.19057 0.12331 0.0
H16 H 0.2447 0.21534 0.14469 0.0
C17 C 0.21483 0.13636 0.27328 0.0
C18 C 0.18155 0.09765 0.24628 0.0
C19 C 0.14504 0.24809 0.14293 0.0
C20 C 0.15531 0.25585 0.11446 0.0
C21 C 0.17966 0.24302 0.1049 0.0
C22 C 0.19306 0.22234 0.12312 0.0
C23 C 0.18208 0.21434 0.15128 0.0
C24 C 0.15877 0.22763 0.16088 0.0
C25 C 0.15033 0.21713 0.19161 0.0
C26 C 0.17218 0.19478 0.19875 0.0
C27 C 0.19048 0.19298 0.17496 0.0
C28 C 0.15322 0.24608 0.20998 0.0
C29 C 0.12025 0.20012 0.19178 0.0
C30 C 0.26815 0.12383 0.15696 0.0
C31 C 0.28039 0.10122 0.17437 0.0
C32 C 0.27037 0.09486 0.20325 0.0
C33 C 0.24831 0.11018 0.2143 0.0
C34 C 0.23612 0.13227 0.19642 0.0
C35 C 0.24646 0.13921 0.16846 0.0
C36 C 0.23186 0.16438 0.15297 0.0
C37 C 0.21111 0.17149 0.17631 0.0
C38 C 0.21332 0.15217 0.20154 0.0
C39 C 0.2538 0.19272 0.14473 0.0
C40 C 0.21697 0.1501 0.12699 0.0
H41 H 0.12972 0.20812 0.25127 0.0
H42 H 0.15475 0.11052 0.30257 0.0
H43 H 0.16112 0.09549 0.23538 0.0
H44 H 0.19681 0.08843 0.23172 0.0
H45 H 0.1793 0.08218 0.26646 0.0
H46 H 0.21227 0.15534 0.288 0.0
H47 H 0.21687 0.11462 0.28695 0.0
H48 H 0.23498 0.14365 0.26133 0.0
H49 H 0.12632 0.25723 0.15106 0.0
H50 H 0.18852 0.24909 0.08334 0.0
H51 H 0.21135 0.21324 0.1145 0.0
H52 H 0.1675 0.26565 0.19927 0.0
H53 H 0.13258 0.25507 0.21383 0.0
H54 H 0.16276 0.24096 0.23101 0.0
H55 H 0.11853 0.18329 0.17457 0.0
H56 H 0.11402 0.18625 0.21207 0.0
H57 H 0.10455 0.2171 0.18778 0.0
H58 H 0.10336 0.18764 0.29415 0.0
C59 C 0.13571 0.18702 0.26174 0.0
C60 C 0.26066 0.87371 0.62228 0.0
C61 C 0.24407 0.89638 0.63202 0.0
C62 C 0.25104 0.91043 0.65783 0.0
C63 C 0.28972 0.87848 0.6641 0.0
C64 C 0.28318 0.86514 0.63855 0.0
C65 C 0.30225 0.84078 0.63148 0.0
H66 H 0.41168 0.75981 0.66716 0.0
C67 C 0.31389 0.86371 0.67611 0.0
C68 C 0.32135 0.84167 0.65696 0.0
H69 H 0.35811 0.74898 0.59419 0.0
H70 H 0.33242 0.79089 0.60896 0.0
H71 H 0.41654 0.83632 0.6663 0.0
H72 H 0.3638 0.76102 0.71088 0.0
H73 H 0.36659 0.79073 0.73496 0.0
H74 H 0.39775 0.7738 0.72352 0.0
H75 H 0.42843 0.81001 0.69383 0.0
H76 H 0.41338 0.84509 0.70266 0.0
C77 C 0.31844 0.8518 0.60274 0.0
C78 C 0.28418 0.80888 0.63094 0.0
C79 C 0.3512 0.89173 0.77393 0.0
C80 C 0.37203 0.87972 0.79087 0.0
C81 C 0.38829 0.85746 0.77985 0.0
C82 C 0.38367 0.84678 0.75245 0.0
C83 C 0.36226 0.85815 0.73597 0.0
C84 C 0.34651 0.88039 0.74661 0.0
C85 C 0.32408 0.88882 0.7262 0.0
C86 C 0.32884 0.8677 0.70187 0.0
C87 C 0.35131 0.84994 0.70778 0.0
C88 C 0.33021 0.92386 0.71612 0.0
C89 C 0.29513 0.88014 0.74187 0.0
C90 C 0.39434 0.7662 0.65434 0.0
C91 C 0.38712 0.75081 0.62936 0.0
C92 C 0.36459 0.76058 0.61324 0.0
C93 C 0.34943 0.78479 0.62203 0.0
C94 C 0.35656 0.79931 0.64743 0.0
C95 C 0.37868 0.78989 0.66309 0.0
C96 C 0.38239 0.80662 0.69033 0.0
C97 C 0.35905 0.82797 0.68828 0.0
C98 C 0.3441 0.82377 0.66306 0.0
C99 C 0.41176 0.82542 0.68849 0.0
C100 C 0.37762 0.78197 0.71638 0.0
H101 H 0.2778 0.913 0.69342 0.0
H102 H 0.25624 0.86275 0.60235 0.0
H103 H 0.26599 0.80733 0.64658 0.0
H104 H 0.29575 0.78881 0.63762 0.0
H105 H 0.27575 0.80548 0.60922 0.0
H106 H 0.32471 0.87744 0.60178 0.0
H107 H 0.30523 0.84693 0.58396 0.0
H108 H 0.33824 0.84104 0.60009 0.0
H109 H 0.33835 0.90875 0.78214 0.0
H110 H 0.4045 0.84813 0.79265 0.0
H111 H 0.39672 0.82972 0.74539 0.0
H112 H 0.3532 0.93054 0.71314 0.0
H113 H 0.32203 0.93895 0.73224 0.0
H114 H 0.32147 0.92968 0.69493 0.0
H115 H 0.29503 0.85792 0.75553 0.0
H116 H 0.27788 0.87584 0.72694 0.0
H117 H 0.28998 0.89865 0.75615 0.0
H118 H 0.23851 0.92773 0.66604 0.0
C119 C 0.27377 0.90167 0.67385 0.0
C120 C 0.60626 0.2612 0.87115 0.0
C121 C 0.58044 0.25005 0.86 0.0
C122 C 0.57137 0.26509 0.83457 0.0
C123 C 0.61353 0.30154 0.83189 0.0
C124 C 0.62232 0.28686 0.85686 0.0
C125 C 0.64997 0.30187 0.86621 0.0
H126 H 0.75628 0.41776 0.84849 0.0
C127 C 0.63513 0.3275 0.82253 0.0
C128 C 0.6565 0.32783 0.84257 0.0
H129 H 0.74346 0.34225 0.91518 0.0
H130 H 0.70206 0.32137 0.89259 0.0
H131 H 0.6902 0.43123 0.84192 0.0
H132 H 0.74172 0.37233 0.79641 0.0
H133 H 0.71964 0.38893 0.77146 0.0
H134 H 0.74519 0.41402 0.7893 0.0
H135 H 0.72035 0.44631 0.81957 0.0
H136 H 0.68662 0.43766 0.80433 0.0
C137 C 0.64503 0.31489 0.89608 0.0
C138 C 0.67152 0.27727 0.86578 0.0
C139 C 0.6223 0.39404 0.73058 0.0
C140 C 0.63932 0.41823 0.71506 0.0
C141 C 0.6652 0.42922 0.72637 0.0
C142 C 0.67396 0.4163 0.75279 0.0
C143 C 0.65683 0.39179 0.76789 0.0
C144 C 0.63154 0.38102 0.75658 0.0
C145 C 0.61668 0.35378 0.77457 0.0
C146 C 0.63714 0.34989 0.79855 0.0
C147 C 0.66055 0.37241 0.79482 0.0
C148 C 0.58837 0.36366 0.78596 0.0
C149 C 0.61389 0.32511 0.75592 0.0
C150 C 0.74462 0.39664 0.85812 0.0
C151 C 0.75296 0.3822 0.88422 0.0
C152 C 0.73718 0.35456 0.89573 0.0
C153 C 0.71312 0.34225 0.88243 0.0
C154 C 0.70451 0.35746 0.85707 0.0
C155 C 0.72039 0.38383 0.84493 0.0
C156 C 0.70831 0.39586 0.81714 0.0
C157 C 0.68204 0.37309 0.81545 0.0
C158 C 0.68002 0.35075 0.83902 0.0
C159 C 0.70105 0.42964 0.82067 0.0
C160 C 0.72976 0.39294 0.79215 0.0
H161 H 0.57969 0.30102 0.80119 0.0
H162 H 0.61368 0.25052 0.89087 0.0
H163 H 0.66704 0.26094 0.84849 0.0
H164 H 0.69323 0.28783 0.86076 0.0
H165 H 0.67095 0.26301 0.88662 0.0
H166 H 0.62413 0.32401 0.89757 0.0
H167 H 0.6457 0.29639 0.91378 0.0
H168 H 0.66016 0.33499 0.90027 0.0
H169 H 0.60257 0.38469 0.72215 0.0
H170 H 0.67865 0.44787 0.71475 0.0
H171 H 0.69381 0.42569 0.76033 0.0
H172 H 0.59062 0.38864 0.79113 0.0
H173 H 0.57198 0.36085 0.76962 0.0
H174 H 0.58065 0.35061 0.80633 0.0
H175 H 0.63239 0.32541 0.74084 0.0
H176 H 0.61336 0.30259 0.76881 0.0
H177 H 0.59488 0.32496 0.74275 0.0
H178 H 0.55171 0.2568 0.82536 0.0
C179 C 0.58775 0.2907 0.82047 0.0
C180 C 0.90859 0.73533 0.34907 0.0
C181 C 0.89684 0.74744 0.37368 0.0
C182 C 0.87069 0.73329 0.38511 0.0
C183 C 0.86743 0.6978 0.34676 0.0
C184 C 0.89361 0.71042 0.33614 0.0
C185 C 0.90306 0.69398 0.3104 0.0
H186 H 0.87674 0.58105 0.21618 0.0
C187 C 0.8569 0.67309 0.32802 0.0
C188 C 0.87771 0.67037 0.30681 0.0
H189 H 0.9532 0.64154 0.22469 0.0
H190 H 0.93126 0.66725 0.26259 0.0
H191 H 0.86326 0.56666 0.28416 0.0
H192 H 0.83347 0.63651 0.22484 0.0
H193 H 0.80521 0.61965 0.24748 0.0
H194 H 0.82234 0.59558 0.22352 0.0
H195 H 0.84013 0.55661 0.25567 0.0
H196 H 0.82679 0.56715 0.2899 0.0
C197 C 0.92956 0.67782 0.31858 0.0
C198 C 0.90764 0.71828 0.28426 0.0
C199 C 0.75794 0.62122 0.34641 0.0
C200 C 0.74079 0.59898 0.33235 0.0
C201 C 0.7521 0.5858 0.3081 0.0
C202 C 0.77984 0.59508 0.29788 0.0
C203 C 0.79653 0.61774 0.31209 0.0
C204 C 0.78533 0.63031 0.33592 0.0
C205 C 0.80551 0.65434 0.34833 0.0
C206 C 0.83076 0.65446 0.32795 0.0
C207 C 0.82562 0.6329 0.30678 0.0
C208 C 0.81174 0.64234 0.3795 0.0
C209 C 0.7925 0.68597 0.34609 0.0
C210 C 0.88855 0.6001 0.22602 0.0
C211 C 0.9168 0.60915 0.21757 0.0
C212 C 0.93155 0.63388 0.23107 0.0
C213 C 0.91879 0.64877 0.25311 0.0
C214 C 0.89094 0.63879 0.26207 0.0
C215 C 0.87614 0.61503 0.24845 0.0
C216 C 0.8469 0.60718 0.2615 0.0
C217 C 0.84698 0.62947 0.28562 0.0
C218 C 0.87284 0.64811 0.28567 0.0
C219 C 0.84383 0.57254 0.27335 0.0
C220 C 0.82568 0.61485 0.23821 0.0
H221 H 0.83609 0.69957 0.38153 0.0
H222 H 0.92871 0.74527 0.33973 0.0
H223 H 0.89028 0.73364 0.28339 0.0
H224 H 0.90775 0.70747 0.26336 0.0
H225 H 0.92763 0.73344 0.28579 0.0
H226 H 0.92984 0.67181 0.34222 0.0
H227 H 0.94907 0.69322 0.31241 0.0
H228 H 0.9304 0.6552 0.30877 0.0
H229 H 0.75032 0.63135 0.36549 0.0
H230 H 0.73938 0.56868 0.29675 0.0
H231 H 0.78721 0.58436 0.27928 0.0
H232 H 0.80928 0.61633 0.38209 0.0
H233 H 0.79728 0.65093 0.39559 0.0
H234 H 0.83369 0.64897 0.38527 0.0
H235 H 0.78144 0.68889 0.32548 0.0
H236 H 0.80823 0.70651 0.34581 0.0
H237 H 0.77695 0.68729 0.36404 0.0
H238 H 0.86146 0.74103 0.4046 0.0
C239 C 0.85597 0.70883 0.37178 0.0
C240 C 0.83541 0.74949 0.88754 0.0
C241 C 0.85715 0.73179 0.87938 0.0
C242 C 0.87136 0.73962 0.85246 0.0
C243 C 0.8416 0.78112 0.84227 0.0
C244 C 0.82778 0.77354 0.86862 0.0
C245 C 0.80359 0.7926 0.87316 0.0
H246 H 0.72172 0.90179 0.8226 0.0
C247 C 0.82772 0.80647 0.82737 0.0
C248 C 0.80531 0.8131 0.84522 0.0
H249 H 0.71223 0.84402 0.90251 0.0
H250 H 0.75455 0.82087 0.89114 0.0
H251 H 0.73742 0.84785 0.78383 0.0
H252 H 0.79157 0.91711 0.8242 0.0
H253 H 0.80438 0.91444 0.78868 0.0
H254 H 0.76998 0.9269 0.79464 0.0
H255 H 0.74148 0.88823 0.77071 0.0
H256 H 0.76528 0.8611 0.75933 0.0
C257 C 0.77615 0.76999 0.87616 0.0
C258 C 0.80966 0.81206 0.89959 0.0
C259 C 0.86555 0.85263 0.72932 0.0
C260 C 0.85698 0.87563 0.70953 0.0
C261 C 0.83312 0.89075 0.71667 0.0
C262 C 0.81817 0.88307 0.743 0.0
C263 C 0.82702 0.8599 0.7624 0.0
C264 C 0.8503 0.84505 0.75529 0.0
C265 C 0.85638 0.82046 0.77801 0.0
C266 C 0.83321 0.82332 0.80024 0.0
C267 C 0.81606 0.84648 0.79109 0.0
C268 C 0.85331 0.78824 0.76462 0.0
C269 C 0.8858 0.82982 0.78966 0.0
C270 C 0.72909 0.88438 0.83765 0.0
C271 C 0.71378 0.87452 0.86342 0.0
C272 C 0.72368 0.85166 0.88245 0.0
C273 C 0.74824 0.83825 0.87578 0.0
C274 C 0.76295 0.8475 0.8496 0.0
C275 C 0.7535 0.87032 0.83105 0.0
C276 C 0.77158 0.87623 0.80379 0.0
C277 C 0.79316 0.85302 0.80906 0.0
C278 C 0.78796 0.83642 0.83599 0.0
C279 C 0.75313 0.86821 0.77789 0.0
C280 C 0.78506 0.91049 0.80244 0.0
H281 H 0.87532 0.76886 0.81379 0.0
H282 H 0.82419 0.74461 0.90814 0.0
H283 H 0.83225 0.82106 0.89965 0.0
H284 H 0.79818 0.83307 0.8996 0.0
H285 H 0.80455 0.79762 0.92009 0.0
H286 H 0.77825 0.74835 0.86475 0.0
H287 H 0.77059 0.76273 0.89914 0.0
H288 H 0.75813 0.78009 0.8661 0.0
H289 H 0.88401 0.84085 0.72492 0.0
H290 H 0.82577 0.90829 0.70176 0.0
H291 H 0.8002 0.89535 0.74715 0.0
H292 H 0.83818 0.78791 0.74686 0.0
H293 H 0.87371 0.78251 0.75549 0.0
H294 H 0.84463 0.76899 0.78022 0.0
H295 H 0.88884 0.85541 0.79237 0.0
H296 H 0.88898 0.81856 0.81117 0.0
H297 H 0.90264 0.82415 0.77453 0.0
H298 H 0.88785 0.72621 0.84521 0.0
C299 C 0.86382 0.76425 0.834 0.0
C300 C 0.74084 0.10719 0.36896 0.0
C301 C 0.75443 0.08308 0.35747 0.0
C302 C 0.74596 0.07207 0.33082 0.0
C303 C 0.71121 0.10939 0.32741 0.0
C304 C 0.71929 0.11979 0.35376 0.0
C305 C 0.70211 0.14475 0.36357 0.0
H306 H 0.59831 0.23773 0.3387 0.0
C307 C 0.6883 0.12757 0.31723 0.0
C308 C 0.68282 0.14819 0.33848 0.0
H309 H 0.64815 0.23017 0.41457 0.0
H310 H 0.67391 0.19176 0.39289 0.0
H311 H 0.58891 0.16302 0.33027 0.0
H312 H 0.64712 0.2385 0.29388 0.0
H313 H 0.642 0.21266 0.26641 0.0
H314 H 0.61261 0.23112 0.28027 0.0
H315 H 0.57931 0.19396 0.3059 0.0
H316 H 0.5917 0.15913 0.29288 0.0
C317 C 0.68576 0.13204 0.39187 0.0
C318 C 0.7221 0.17485 0.36642 0.0
C319 C 0.64635 0.11128 0.21885 0.0
C320 C 0.62664 0.12703 0.20326 0.0
C321 C 0.61393 0.15124 0.21573 0.0
C322 C 0.62065 0.1598 0.24339 0.0
C323 C 0.64053 0.14418 0.25876 0.0
C324 C 0.65325 0.12055 0.24645 0.0
C325 C 0.67498 0.1079 0.26563 0.0
C326 C 0.67294 0.12771 0.29144 0.0
C327 C 0.65249 0.14863 0.2873 0.0
C328 C 0.6658 0.07288 0.27377 0.0
C329 C 0.70392 0.11431 0.24952 0.0
C330 C 0.61454 0.22754 0.35082 0.0
C331 C 0.62106 0.23691 0.37848 0.0
C332 C 0.64283 0.22356 0.39315 0.0
C333 C 0.65766 0.20109 0.38059 0.0
C334 C 0.6507 0.19179 0.35301 0.0
C335 C 0.6295 0.20506 0.33861 0.0
C336 C 0.62502 0.19256 0.30946 0.0
C337 C 0.64664 0.16907 0.30897 0.0
C338 C 0.66167 0.16879 0.33445 0.0
C339 C 0.59463 0.17644 0.30931 0.0
C340 C 0.6318 0.21999 0.28617 0.0
H341 H 0.71907 0.07585 0.29549 0.0
H342 H 0.74649 0.11571 0.38967 0.0
H343 H 0.73815 0.17815 0.34842 0.0
H344 H 0.71125 0.19632 0.36512 0.0
H345 H 0.73338 0.17362 0.38698 0.0
H346 H 0.68072 0.10622 0.39238 0.0
H347 H 0.69821 0.13729 0.41109 0.0
H348 H 0.66514 0.14126 0.39417 0.0
H349 H 0.6566 0.09279 0.2095 0.0
H350 H 0.59863 0.16352 0.204 0.0
H351 H 0.61015 0.17838 0.25164 0.0
H352 H 0.64261 0.06875 0.27722 0.0
H353 H 0.67188 0.0581 0.25638 0.0
H354 H 0.67445 0.0644 0.29426 0.0
H355 H 0.70587 0.13754 0.23726 0.0
H356 H 0.72167 0.11536 0.26416 0.0
H357 H 0.7068 0.09635 0.23388 0.0
H358 H 0.7562 0.05354 0.32152 0.0
C359 C 0.7245 0.08514 0.3157 0.0
C360 C 0.41211 0.62479 0.27556 0.0
C361 C 0.40497 0.59437 0.28817 0.0
C362 C 0.38143 0.57643 0.27795 0.0
C363 C 0.37393 0.61862 0.24238 0.0
C364 C 0.39675 0.63614 0.25275 0.0
C365 C 0.40354 0.66703 0.23599 0.0
H366 H 0.38276 0.76434 0.12085 0.0
C367 C 0.36329 0.63733 0.21777 0.0
C368 C 0.3808 0.66559 0.21398 0.0
H369 H 0.44746 0.77359 0.18371 0.0
H370 H 0.4264 0.72734 0.21078 0.0
H371 H 0.33227 0.74677 0.16681 0.0
H372 H 0.381 0.68961 0.11689 0.0
H373 H 0.34514 0.67643 0.11453 0.0
H374 H 0.35744 0.71582 0.10185 0.0
H375 H 0.32363 0.7388 0.13055 0.0
H376 H 0.3097 0.71323 0.16107 0.0
C377 C 0.4002 0.6933 0.25673 0.0
C378 C 0.43337 0.66751 0.2218 0.0
C379 C 0.27842 0.59523 0.16257 0.0
C380 C 0.26378 0.60834 0.13963 0.0
C381 C 0.27269 0.63897 0.12829 0.0
C382 C 0.29601 0.65606 0.13911 0.0
C383 C 0.31072 0.64254 0.16162 0.0
C384 C 0.30159 0.61286 0.17343 0.0
C385 C 0.31926 0.60306 0.19819 0.0
C386 C 0.34051 0.63166 0.19908 0.0
C387 C 0.33558 0.65446 0.17721 0.0
C388 C 0.30025 0.59786 0.22587 0.0
C389 C 0.33332 0.57382 0.19015 0.0
C390 C 0.39215 0.75653 0.14063 0.0
C391 C 0.41713 0.77232 0.14985 0.0
C392 C 0.42863 0.76145 0.17576 0.0
C393 C 0.41631 0.73456 0.19151 0.0
C394 C 0.39224 0.71808 0.18127 0.0
C395 C 0.38014 0.72946 0.15662 0.0
C396 C 0.35439 0.70884 0.14931 0.0
C397 C 0.35386 0.68258 0.17297 0.0
C398 C 0.37614 0.68816 0.19147 0.0
C399 C 0.32859 0.72775 0.15182 0.0
C400 C 0.35948 0.69705 0.119 0.0
H401 H 0.34842 0.57352 0.24817 0.0
H402 H 0.42961 0.63966 0.28306 0.0
H403 H 0.43863 0.64348 0.21795 0.0
H404 H 0.43541 0.67998 0.20019 0.0
H405 H 0.4497 0.67808 0.23573 0.0
H406 H 0.38205 0.68677 0.27215 0.0
H407 H 0.41923 0.69768 0.26958 0.0
H408 H 0.39564 0.71552 0.24544 0.0
H409 H 0.27184 0.57189 0.17197 0.0
H410 H 0.26193 0.64949 0.11052 0.0
H411 H 0.30189 0.67907 0.12927 0.0
H412 H 0.28562 0.61634 0.22671 0.0
H413 H 0.2874 0.57487 0.22657 0.0
H414 H 0.31216 0.59928 0.2458 0.0
H415 H 0.34029 0.57596 0.167 0.0
H416 H 0.35246 0.5706 0.2022 0.0
H417 H 0.31846 0.55232 0.19375 0.0
H418 H 0.37543 0.55286 0.28706 0.0
C419 C 0.36587 0.5884 0.2552 0.0
C420 C 0.09807 0.25408 0.67353 0.0
C421 C 0.10745 0.23778 0.65031 0.0
C422 C 0.13384 0.24784 0.63689 0.0
C423 C 0.14025 0.29065 0.66811 0.0
C424 C 0.11479 0.28048 0.682 0.0
C425 C 0.10815 0.30112 0.70585 0.0
H426 H 0.14052 0.43513 0.77311 0.0
C427 C 0.15208 0.31928 0.68108 0.0
C428 C 0.13348 0.32567 0.7033 0.0
H429 H 0.0713 0.36432 0.7934 0.0
H430 H 0.08794 0.33298 0.75622 0.0
H431 H 0.14115 0.43282 0.70281 0.0
H432 H 0.18622 0.38598 0.76894 0.0
H433 H 0.20956 0.39565 0.73919 0.0
H434 H 0.19515 0.42645 0.75757 0.0
H435 H 0.16697 0.45301 0.72406 0.0
H436 H 0.17684 0.43511 0.69185 0.0
C437 C 0.08057 0.31545 0.69879 0.0
C438 C 0.10696 0.28126 0.73494 0.0
C439 C 0.24327 0.37604 0.63863 0.0
C440 C 0.25936 0.4038 0.64462 0.0
C441 C 0.25028 0.42102 0.66734 0.0
C442 C 0.22537 0.41095 0.68344 0.0
C443 C 0.20934 0.38329 0.67686 0.0
C444 C 0.21856 0.36632 0.65487 0.0
C445 C 0.19913 0.33753 0.65075 0.0
C446 C 0.17671 0.33979 0.67401 0.0
C447 C 0.18262 0.36667 0.68918 0.0
C448 C 0.18747 0.34085 0.61999 0.0
C449 C 0.21553 0.30857 0.6567 0.0
C450 C 0.12894 0.41294 0.76934 0.0
C451 C 0.10443 0.40225 0.78581 0.0
C452 C 0.0902 0.37296 0.78085 0.0
C453 C 0.09985 0.3549 0.75923 0.0
C454 C 0.12419 0.36607 0.74259 0.0
C455 C 0.13862 0.39436 0.74821 0.0
C456 C 0.16505 0.40159 0.72971 0.0
C457 C 0.16375 0.37343 0.71156 0.0
C458 C 0.13954 0.35284 0.7189 0.0
C459 C 0.16267 0.43233 0.71116 0.0
C460 C 0.19045 0.40275 0.7497 0.0
H461 H 0.16991 0.28038 0.63426 0.0
H462 H 0.07798 0.24688 0.68443 0.0
H463 H 0.12167 0.26283 0.73445 0.0
H464 H 0.11369 0.29518 0.75314 0.0
H465 H 0.08555 0.2694 0.73992 0.0
H466 H 0.08077 0.32396 0.67566 0.0
H467 H 0.06214 0.29779 0.70296 0.0
H468 H 0.07732 0.33591 0.7111 0.0
H469 H 0.24982 0.36193 0.62168 0.0
H470 H 0.26218 0.44261 0.67232 0.0
H471 H 0.21944 0.42522 0.70024 0.0
H472 H 0.18483 0.36571 0.61354 0.0
H473 H 0.20191 0.33249 0.60373 0.0
H474 H 0.16634 0.32845 0.61831 0.0
H475 H 0.23144 0.31291 0.67337 0.0
H476 H 0.20196 0.28771 0.66561 0.0
H477 H 0.22679 0.30269 0.63687 0.0
H478 H 0.14203 0.23531 0.61956 0.0
C479 C 0.15018 0.27402 0.64561 0.0
Zn480 Zn 0.02854 0.99728 0.52208 0.0
Zn481 Zn 0.9645 0.99786 0.49021 0.0
C482 C 0.0383 0.06069 0.54116 0.0
O483 O 0.04819 0.06688 0.51455 0.0
C484 C 0.94847 0.93502 0.47843 0.0
O485 O 0.92561 0.94239 0.49152 0.0
O486 O 0.06289 0.9751 0.53145 0.0
O487 O 0.99583 0.96481 0.53405 0.0
O488 O 0.96299 0.9969 0.53331 0.0
C489 C 0.08511 0.98824 0.5416 0.0
O490 O 0.08696 0.01835 0.54523 0.0
O491 O 0.02817 0.03288 0.54904 0.0
C492 C 0.91912 0.03236 0.46623 0.0
O493 O 0.93675 0.05761 0.46732 0.0
O494 O 0.92638 0.00607 0.47564 0.0
O495 O 0.99184 0.02956 0.46929 0.0
O496 O 0.03381 0.01573 0.48052 0.0
O497 O 0.97005 0.95491 0.47646 0.0
C498 C 0.97313 0.97307 0.54451 0.0
C499 C 0.01814 0.03097 0.46436 0.0
Zn500 Zn 0.51178 0.99216 0.97816 0.0
Zn501 Zn 0.47295 0.0239 0.01942 0.0
C502 C 0.46817 0.95044 0.95749 0.0
O503 O 0.48209 0.93033 0.97221 0.0
C504 C 0.51668 0.06436 0.04158 0.0
O505 O 0.50356 0.08494 0.0265 0.0
O506 O 0.54111 0.97147 0.95695 0.0
O507 O 0.52052 0.03874 0.97255 0.0
O508 O 0.47679 0.04868 0.98053 0.0
C509 C 0.56314 0.9838 0.94317 0.0
O510 O 0.56952 0.01424 0.94229 0.0
O511 O 0.47632 0.97947 0.95732 0.0
C512 C 0.43519 0.02198 0.0668 0.0
O513 O 0.4502 0.999 0.07422 0.0
O514 O 0.44104 0.03788 0.04296 0.0
O515 O 0.46491 0.97692 0.02109 0.0
O516 O 0.50978 0.9716 0.01851 0.0
O517 O 0.50768 0.03555 0.04186 0.0
C518 C 0.50099 0.05637 0.96863 0.0
C519 C 0.4853 0.96176 0.02828 0.0
Zn520 Zn 0.52893 0.474 0.47641 0.0
Zn521 Zn 0.49019 0.51989 0.52784 0.0
C522 C 0.5675 0.49628 0.42744 0.0
O523 O 0.56068 0.46841 0.41832 0.0
C524 C 0.44512 0.48649 0.56122 0.0
O525 O 0.46019 0.49855 0.58173 0.0
O526 O 0.53083 0.4305 0.4633 0.0
O527 O 0.54411 0.47343 0.5166 0.0
O528 O 0.52231 0.50102 0.54742 0.0
C529 C 0.5536 0.41797 0.4666 0.0
O530 O 0.57453 0.43352 0.47886 0.0
O531 O 0.55617 0.50385 0.45077 0.0
C532 C 0.46974 0.57948 0.53867 0.0
O533 O 0.4611 0.57832 0.51214 0.0
O534 O 0.48333 0.55779 0.54924 0.0
O535 O 0.49463 0.53383 0.48528 0.0
O536 O 0.48945 0.486 0.47099 0.0
O537 O 0.45442 0.49108 0.5352 0.0
C538 C 0.54133 0.4836 0.54151 0.0
C539 C 0.48773 0.51505 0.46613 0.0
Zn540 Zn 0.97366 0.51123 0.98596 0.0
Zn541 Zn 0.04769 0.4851 0.02197 0.0
C542 C 0.93161 0.47674 0.95569 0.0
O543 O 0.94538 0.49341 0.93418 0.0
C544 C 0.09169 0.5282 0.04614 0.0
O545 O 0.07122 0.54501 0.05253 0.0
O546 O 0.95878 0.55111 0.97137 0.0
O547 O 0.97981 0.51674 0.02854 0.0
O548 O 0.01935 0.5031 0.04727 0.0
C549 C 0.93527 0.55561 0.98292 0.0
O550 O 0.92407 0.53546 0.00349 0.0
O551 O 0.94075 0.47873 0.98107 0.0
C552 C 0.06432 0.42494 0.01756 0.0
O553 O 0.07564 0.43935 0.99366 0.0
O554 O 0.0494 0.43966 0.03399 0.0
O555 O 0.04384 0.48804 0.9787 0.0
O556 O 0.00522 0.50267 0.9584 0.0
O557 O 0.08641 0.5039 0.03224 0.0
C558 C 0.99576 0.51405 0.04982 0.0
C559 C 0.02981 0.49405 0.95654 0.0
H560 H 0.13747 0.11373 0.35208 0.0
H561 H 0.06906 0.14408 0.30124 0.0
H562 H 0.035 0.11937 0.33822 0.0
H563 H 0.10213 0.03822 0.37579 0.0
H564 H 0.11611 0.03784 0.41142 0.0
H565 H 0.13578 0.05915 0.38158 0.0
H566 H 0.13803 0.10959 0.40931 0.0
H567 H 0.11832 0.08842 0.43922 0.0
H568 H 0.10593 0.12317 0.42244 0.0
H569 H 0.00818 0.0917 0.3794 0.0
H570 H 0.98931 0.06038 0.42281 0.0
H571 H 0.07412 0.04536 0.44751 0.0
C572 C 0.11533 0.11514 0.34876 0.0
C573 C 0.10604 0.13145 0.32395 0.0
C574 C 0.07684 0.13262 0.3204 0.0
C575 C 0.05724 0.11842 0.34119 0.0
C576 C 0.06705 0.10284 0.36538 0.0
C577 C 0.09531 0.10088 0.36934 0.0
C578 C 0.09985 0.08187 0.3972 0.0
C579 C 0.11432 0.05253 0.39112 0.0
C580 C 0.11652 0.10197 0.41829 0.0
C581 C 0.06969 0.0734 0.40801 0.0
C582 C 0.05125 0.08599 0.38929 0.0
C583 C 0.02235 0.08166 0.39429 0.0
C584 C 0.01186 0.06381 0.4191 0.0
C585 C 0.0302 0.0503 0.43865 0.0
C586 C 0.05955 0.05528 0.43299 0.0
H587 H 0.39476 0.93614 0.80772 0.0
H588 H 0.36134 0.84294 0.84006 0.0
H589 H 0.37613 0.85451 0.8891 0.0
H590 H 0.45513 0.93802 0.84521 0.0
H591 H 0.45735 0.97868 0.85286 0.0
H592 H 0.43914 0.96574 0.82182 0.0
H593 H 0.39432 0.98872 0.83977 0.0
H594 H 0.41249 0.00195 0.87089 0.0
H595 H 0.37988 0.97714 0.87554 0.0
H596 H 0.40116 0.87241 0.9318 0.0
H597 H 0.43443 0.89582 0.96587 0.0
H598 H 0.45176 0.97808 0.90677 0.0
C599 C 0.38964 0.91876 0.82547 0.0
C600 C 0.3765 0.8889 0.82053 0.0
C601 C 0.37102 0.86609 0.84377 0.0
C602 C 0.3793 0.87249 0.87162 0.0
C603 C 0.393 0.90185 0.87579 0.0
C604 C 0.39798 0.92476 0.85345 0.0
C605 C 0.41606 0.95292 0.86302 0.0
C606 C 0.44354 0.95918 0.84464 0.0
C607 C 0.3997 0.9819 0.86227 0.0
C608 C 0.42147 0.94167 0.89377 0.0
C609 C 0.40761 0.91233 0.9008 0.0
C610 C 0.41159 0.89568 0.92684 0.0
C611 C 0.4306 0.90909 0.946 0.0
C612 C 0.44535 0.93886 0.93906 0.0
C613 C 0.44018 0.95564 0.91292 0.0
H614 H 0.58847 0.43853 0.70141 0.0
H615 H 0.67017 0.4253 0.66434 0.0
H616 H 0.65439 0.44176 0.61592 0.0
H617 H 0.54761 0.41048 0.64436 0.0
H618 H 0.52257 0.43897 0.64623 0.0
H619 H 0.54059 0.42728 0.67804 0.0
H620 H 0.55851 0.48513 0.68433 0.0
H621 H 0.54041 0.49702 0.65261 0.0
H622 H 0.57756 0.50797 0.65489 0.0
H623 H 0.62828 0.45517 0.57113 0.0
H624 H 0.59534 0.4697 0.5337 0.0
H625 H 0.53152 0.47751 0.60023 0.0
C626 C 0.60307 0.43938 0.68309 0.0
C627 C 0.63055 0.43068 0.68653 0.0
C628 C 0.64914 0.43217 0.66215 0.0
C629 C 0.64031 0.44132 0.63459 0.0
C630 C 0.61295 0.44935 0.63186 0.0
C631 C 0.59474 0.44895 0.65551 0.0
C632 C 0.56648 0.45876 0.6467 0.0
C633 C 0.54293 0.43229 0.65428 0.0
C634 C 0.56039 0.48903 0.66045 0.0
C635 C 0.57146 0.46423 0.61434 0.0
C636 C 0.59834 0.45843 0.6062 0.0
C637 C 0.60733 0.46022 0.5773 0.0
C638 C 0.58844 0.46836 0.55619 0.0
C639 C 0.56099 0.47504 0.56408 0.0
C640 C 0.55253 0.47305 0.59359 0.0
H641 H 0.89993 0.59343 0.16347 0.0
H642 H 0.96744 0.58632 0.22315 0.0
H643 H 0.9938 0.5596 0.18748 0.0
H644 H 0.90487 0.51819 0.13216 0.0
H645 H 0.89795 0.53297 0.09615 0.0
H646 H 0.8835 0.55016 0.12688 0.0
H647 H 0.90678 0.60468 0.10764 0.0
H648 H 0.92131 0.58764 0.07691 0.0
H649 H 0.9441 0.61003 0.09988 0.0
H650 H 0.0135 0.53501 0.14543 0.0
H651 H 0.02605 0.51499 0.0989 0.0
H652 H 0.94648 0.5385 0.06517 0.0
C653 C 0.92012 0.58588 0.16906 0.0
C654 C 0.93169 0.59198 0.19608 0.0
C655 C 0.95831 0.58214 0.20251 0.0
C656 C 0.97338 0.56681 0.18245 0.0
C657 C 0.96163 0.56151 0.15591 0.0
C658 C 0.93565 0.57075 0.14907 0.0
C659 C 0.92849 0.5632 0.11847 0.0
C660 C 0.90214 0.53973 0.11843 0.0
C661 C 0.92497 0.59317 0.09962 0.0
C662 C 0.95458 0.5485 0.10923 0.0
C663 C 0.97328 0.54759 0.13129 0.0
C664 C 0.99899 0.53549 0.128 0.0
C665 C 0.00593 0.52414 0.1014 0.0
C666 C 0.98731 0.52506 0.07821 0.0
C667 C 0.9612 0.53733 0.08238 0.0
H668 H 0.32221 0.12344 0.13396 0.0
H669 H 0.29004 0.03989 0.18683 0.0
H670 H 0.32701 0.01135 0.16613 0.0
H671 H 0.33597 0.08326 0.0707 0.0
H672 H 0.36712 0.10873 0.05975 0.0
H673 H 0.33935 0.12336 0.08022 0.0
H674 H 0.37467 0.14054 0.11881 0.0
H675 H 0.40256 0.12596 0.09846 0.0
H676 H 0.39544 0.1122 0.13566 0.0
H677 H 0.36729 0.99173 0.13964 0.0
H678 H 0.40687 0.98171 0.10757 0.0
H679 H 0.41027 0.07663 0.06903 0.0
C680 C 0.32266 0.09908 0.14112 0.0
C681 C 0.30313 0.08411 0.16229 0.0
C682 C 0.30502 0.05226 0.1712 0.0
C683 C 0.32584 0.0357 0.15938 0.0
C684 C 0.34447 0.05116 0.13842 0.0
C685 C 0.34297 0.08206 0.12921 0.0
C686 C 0.36488 0.09286 0.10559 0.0
C687 C 0.35099 0.10262 0.0774 0.0
C688 C 0.38562 0.11946 0.11522 0.0
C689 C 0.37889 0.06313 0.10289 0.0
C690 C 0.36698 0.03947 0.12226 0.0
C691 C 0.37672 0.01002 0.12431 0.0
C692 C 0.39923 0.00459 0.10605 0.0
C693 C 0.4115 0.02836 0.08576 0.0
C694 C 0.4011 0.05796 0.08415 0.0
H695 H 0.22556 0.95459 0.62175 0.0
H696 H 0.20599 0.85672 0.60574 0.0
H697 H 0.16463 0.86999 0.57887 0.0
H698 H 0.15452 0.97086 0.634 0.0
H699 H 0.15978 0.00978 0.61671 0.0
H700 H 0.18863 0.99278 0.63354 0.0
H701 H 0.2179 0.00243 0.58548 0.0
H702 H 0.18909 0.01936 0.56847 0.0
H703 H 0.20388 0.98699 0.55313 0.0
H704 H 0.12455 0.8935 0.55503 0.0
H705 H 0.08813 0.92558 0.53658 0.0
H706 H 0.1333 0.00804 0.56871 0.0
C707 C 0.21254 0.93591 0.6127 0.0
C708 C 0.21921 0.90461 0.61573 0.0
C709 C 0.20168 0.88095 0.60328 0.0
C710 C 0.17803 0.88822 0.5881 0.0
C711 C 0.1721 0.91927 0.58552 0.0
C712 C 0.18881 0.94274 0.59749 0.0
C713 C 0.17738 0.97411 0.59216 0.0
C714 C 0.16961 0.98767 0.62081 0.0
C715 C 0.19831 0.99707 0.57371 0.0
C716 C 0.15148 0.96453 0.57557 0.0
C717 C 0.14891 0.93282 0.57186 0.0
C718 C 0.12639 0.9184 0.5577 0.0
C719 C 0.1058 0.93683 0.54729 0.0
C720 C 0.10783 0.96935 0.55113 0.0
C721 C 0.13117 0.9833 0.56527 0.0
H722 H 0.80403 0.41082 0.86175 0.0
H723 H 0.75753 0.38462 0.9427 0.0
H724 H 0.79868 0.40357 0.96949 0.0
H725 H 0.87112 0.39094 0.88483 0.0
H726 H 0.89073 0.42406 0.86544 0.0
H727 H 0.85773 0.40804 0.85222 0.0
H728 H 0.83884 0.46237 0.85263 0.0
H729 H 0.87189 0.47862 0.86557 0.0
H730 H 0.83972 0.48263 0.88541 0.0
H731 H 0.8451 0.42434 0.98786 0.0
H732 H 0.89247 0.4496 0.99628 0.0
H733 H 0.90839 0.46451 0.90372 0.0
C734 C 0.80237 0.40933 0.88509 0.0
C735 C 0.77754 0.39567 0.90001 0.0
C736 C 0.77646 0.39416 0.93065 0.0
C737 C 0.7997 0.40504 0.94614 0.0
C738 C 0.82395 0.41776 0.9308 0.0
C739 C 0.82538 0.42034 0.90097 0.0
C740 C 0.85385 0.43567 0.88985 0.0
C741 C 0.86926 0.41334 0.87203 0.0
C742 C 0.85089 0.46666 0.87234 0.0
C743 C 0.86811 0.44122 0.91808 0.0
C744 C 0.85055 0.4305 0.94143 0.0
C745 C 0.85904 0.43292 0.96973 0.0
C746 C 0.88605 0.44717 0.97431 0.0
C747 C 0.9042 0.45904 0.95071 0.0
C748 C 0.89506 0.45568 0.92225 0.0
H749 H 0.71154 0.54014 0.33712 0.0
H750 H 0.70346 0.6372 0.35291 0.0
H751 H 0.65714 0.62183 0.37671 0.0
H752 H 0.63622 0.5198 0.32272 0.0
H753 H 0.63591 0.48109 0.34006 0.0
H754 H 0.66766 0.49999 0.3224 0.0
H755 H 0.69417 0.49202 0.36975 0.0
H756 H 0.6625 0.47334 0.38759 0.0
H757 H 0.68105 0.50681 0.40238 0.0
H758 H 0.6143 0.59546 0.40366 0.0
H759 H 0.57592 0.56005 0.42827 0.0
H760 H 0.60984 0.48068 0.39215 0.0
C761 C 0.69976 0.55826 0.34494 0.0
C762 C 0.7114 0.58985 0.3434 0.0
C763 C 0.69534 0.61275 0.35433 0.0
C764 C 0.66887 0.6043 0.36772 0.0
C765 C 0.6584 0.5729 0.36966 0.0
C766 C 0.67309 0.55027 0.35816 0.0
C767 C 0.65738 0.51804 0.36397 0.0
C768 C 0.64878 0.5039 0.33559 0.0
C769 C 0.67482 0.49629 0.382 0.0
C770 C 0.63198 0.52605 0.38114 0.0
C771 C 0.633 0.55783 0.38419 0.0
C772 C 0.61296 0.57059 0.40094 0.0
C773 C 0.5913 0.55032 0.41491 0.0
C774 C 0.58968 0.51772 0.41178 0.0
C775 C 0.6102 0.50558 0.39444 0.0
H776 H 0.12912 0.30719 0.12839 0.0
H777 H 0.1478 0.25247 0.0562 0.0
H778 H 0.12334 0.28778 0.02394 0.0
H779 H 0.05869 0.32191 0.10648 0.0
H780 H 0.06183 0.36082 0.11899 0.0
H781 H 0.08044 0.3309 0.13649 0.0
H782 H 0.1274 0.36608 0.12742 0.0
H783 H 0.10894 0.39613 0.11007 0.0
H784 H 0.13764 0.38127 0.09119 0.0
H785 H 0.09974 0.33118 0.99905 0.0
H786 H 0.07839 0.37931 0.98362 0.0
H787 H 0.07158 0.40255 0.07279 0.0
C788 C 0.12769 0.30216 0.10593 0.0
C789 C 0.14051 0.27698 0.09491 0.0
C790 C 0.13863 0.27188 0.06515 0.0
C791 C 0.12449 0.2916 0.04668 0.0
C792 C 0.11199 0.31603 0.05837 0.0
C793 C 0.11332 0.32125 0.08733 0.0
C794 C 0.09872 0.34955 0.0944 0.0
C795 C 0.07342 0.34022 0.11533 0.0
C796 C 0.11941 0.37474 0.10647 0.0
C797 C 0.08943 0.35984 0.06475 0.0
C798 C 0.09728 0.3402 0.04424 0.0
C799 C 0.09301 0.3464 0.01497 0.0
C800 C 0.08089 0.37371 0.00641 0.0
C801 C 0.07293 0.39418 0.0271 0.0
C802 C 0.07673 0.38678 0.05665 0.0
H803 H 0.59817 0.19565 0.88369 0.0
H804 H 0.5234 0.24327 0.87019 0.0
H805 H 0.4946 0.19853 0.89574 0.0
H806 H 0.56637 0.11782 0.87422 0.0
H807 H 0.58628 0.09975 0.90186 0.0
H808 H 0.60084 0.13531 0.88212 0.0
H809 H 0.60823 0.16198 0.93016 0.0
H810 H 0.59373 0.12649 0.95003 0.0
H811 H 0.57882 0.16265 0.95511 0.0
H812 H 0.47419 0.14901 0.92415 0.0
H813 H 0.4637 0.09817 0.95213 0.0
H814 H 0.552 0.08328 0.94662 0.0
C815 C 0.57575 0.19675 0.88622 0.0
C816 C 0.56303 0.22297 0.87493 0.0
C817 C 0.53356 0.22328 0.87836 0.0
C818 C 0.51705 0.19806 0.89297 0.0
C819 C 0.53031 0.17266 0.90392 0.0
C820 C 0.55899 0.17179 0.90063 0.0
C821 C 0.56813 0.14181 0.91447 0.0
C822 C 0.58117 0.12254 0.89181 0.0
C823 C 0.58842 0.14865 0.93889 0.0
C824 C 0.54014 0.12599 0.92619 0.0
C825 C 0.51857 0.14413 0.91996 0.0
C826 C 0.4909 0.13454 0.92905 0.0
C827 C 0.48515 0.10564 0.94495 0.0
C828 C 0.50697 0.08664 0.95149 0.0
C829 C 0.53478 0.09709 0.94185 0.0
H830 H 0.87228 0.79439 0.39885 0.0
H831 H 0.95382 0.763 0.37991 0.0
H832 H 0.97655 0.80779 0.4043 0.0
H833 H 0.89231 0.87655 0.39078 0.0
H834 H 0.86982 0.885 0.42041 0.0
H835 H 0.86052 0.85148 0.40014 0.0
H836 H 0.85762 0.81556 0.44735 0.0
H837 H 0.86698 0.84896 0.46776 0.0
H838 H 0.88745 0.816 0.47018 0.0
H839 H 0.99013 0.85718 0.4313 0.0
H840 H 0.99279 0.9049 0.45878 0.0
H841 H 0.90185 0.89973 0.46264 0.0
C842 C 0.89491 0.79649 0.40002 0.0
C843 C 0.91115 0.77484 0.38747 0.0
C844 C 0.94081 0.77935 0.38898 0.0
C845 C 0.95393 0.80463 0.403 0.0
C846 C 0.93712 0.82511 0.41558 0.0
C847 C 0.90822 0.82113 0.41424 0.0
C848 C 0.89461 0.84568 0.42994 0.0
C849 C 0.87837 0.86587 0.40907 0.0
C850 C 0.87555 0.83065 0.45531 0.0
C851 C 0.92033 0.86423 0.44044 0.0
C852 C 0.94474 0.85232 0.43179 0.0
C853 C 0.9711 0.8665 0.43832 0.0
C854 C 0.97243 0.89356 0.45393 0.0
C855 C 0.94755 0.90582 0.46313 0.0
C856 C 0.92127 0.8907 0.45636 0.0
H857 H 0.39957 0.73377 0.57441 0.0
H858 H 0.40853 0.70623 0.66511 0.0
H859 H 0.43355 0.66196 0.65146 0.0
H860 H 0.38416 0.65584 0.55304 0.0
H861 H 0.40252 0.66335 0.51853 0.0
H862 H 0.38736 0.69458 0.5353 0.0
H863 H 0.43583 0.72744 0.53202 0.0
H864 H 0.45118 0.69622 0.51535 0.0
H865 H 0.4657 0.71124 0.54764 0.0
H866 H 0.45675 0.61995 0.62831 0.0
H867 H 0.47364 0.58097 0.59717 0.0
H868 H 0.44684 0.63349 0.52168 0.0
C869 C 0.40664 0.71844 0.59149 0.0
C870 C 0.40232 0.72401 0.6209 0.0
C871 C 0.4122 0.70325 0.64241 0.0
C872 C 0.42631 0.6778 0.6349 0.0
C873 C 0.43018 0.67309 0.60578 0.0
C874 C 0.42043 0.69263 0.5844 0.0
C875 C 0.42601 0.68131 0.55477 0.0
C876 C 0.39837 0.67329 0.53952 0.0
C877 C 0.44586 0.7055 0.53636 0.0
C878 C 0.44018 0.65221 0.5629 0.0
C879 C 0.44269 0.64814 0.59242 0.0
C880 C 0.45493 0.62287 0.60515 0.0
C881 C 0.46453 0.6009 0.58726 0.0
C882 C 0.46155 0.60416 0.55699 0.0
C883 C 0.4494 0.63034 0.54473 0.0
H884 H 0.8686 0.93387 0.68109 0.0
H885 H 0.88231 0.83618 0.67522 0.0
H886 H 0.91296 0.85045 0.63202 0.0
H887 H 0.86608 0.95175 0.60276 0.0
H888 H 0.88335 0.99066 0.60468 0.0
H889 H 0.86178 0.97257 0.63476 0.0
H890 H 0.90365 0.98172 0.66841 0.0
H891 H 0.92541 0.99954 0.63842 0.0
H892 H 0.93643 0.96668 0.65965 0.0
H893 H 0.94512 0.87571 0.59194 0.0
H894 H 0.97327 0.90994 0.55483 0.0
H895 H 0.93579 0.9904 0.58444 0.0
C896 C 0.87751 0.91533 0.67044 0.0
C897 C 0.87325 0.88392 0.6819 0.0
C898 C 0.88574 0.86053 0.66737 0.0
C899 C 0.90303 0.86834 0.64264 0.0
C900 C 0.90727 0.89956 0.63236 0.0
C901 C 0.89452 0.92263 0.64548 0.0
C902 C 0.90271 0.95446 0.63013 0.0
C903 C 0.87694 0.96816 0.61732 0.0
C904 C 0.91796 0.97691 0.65036 0.0
C905 C 0.92246 0.94572 0.60667 0.0
C906 C 0.92491 0.91396 0.60843 0.0
C907 C 0.94311 0.90056 0.59007 0.0
C908 C 0.95911 0.92017 0.56921 0.0
C909 C 0.95652 0.95269 0.56675 0.0
C910 C 0.93786 0.96552 0.58565 0.0
H911 H 0.60046 0.07207 0.1865 0.0
H912 H 0.63446 0.16523 0.15449 0.0
H913 H 0.61525 0.15593 0.10664 0.0
H914 H 0.60836 0.03295 0.11652 0.0
H915 H 0.57541 0.00912 0.12307 0.0
H916 H 0.59632 0.0207 0.15298 0.0
H917 H 0.55385 0.04464 0.17529 0.0
H918 H 0.53293 0.03338 0.14544 0.0
H919 H 0.53712 0.07371 0.1542 0.0
H920 H 0.58666 0.14017 0.0655 0.0
H921 H 0.55088 0.11862 0.03304 0.0
H922 H 0.53485 0.03519 0.09094 0.0
C923 C 0.60469 0.08993 0.16899 0.0
C924 C 0.61926 0.11915 0.17379 0.0
C925 C 0.62361 0.14258 0.15092 0.0
C926 C 0.61284 0.13747 0.12373 0.0
C927 C 0.59776 0.10877 0.11982 0.0
C928 C 0.59382 0.08525 0.14171 0.0
C929 C 0.57413 0.05802 0.13276 0.0
C930 C 0.58948 0.02844 0.13124 0.0
C931 C 0.54797 0.05212 0.15313 0.0
C932 C 0.56678 0.07048 0.10293 0.0
C933 C 0.58098 0.09961 0.09578 0.0
C934 C 0.57585 0.11711 0.07056 0.0
C935 C 0.55539 0.10476 0.05233 0.0
C936 C 0.54031 0.07518 0.05939 0.0
C937 C 0.54653 0.05757 0.08472 0.0
H938 H 0.38812 0.5556 0.33689 0.0
H939 H 0.46218 0.60413 0.29187 0.0
H940 H 0.49121 0.58825 0.33195 0.0
H941 H 0.40594 0.57324 0.4074 0.0
H942 H 0.39317 0.53545 0.42429 0.0
H943 H 0.3779 0.54968 0.39164 0.0
H944 H 0.38884 0.49984 0.3669 0.0
H945 H 0.40396 0.48533 0.39957 0.0
H946 H 0.42426 0.48907 0.36606 0.0
H947 H 0.51169 0.5717 0.37873 0.0
H948 H 0.52286 0.55036 0.4274 0.0
H949 H 0.43721 0.50806 0.4404 0.0
C950 C 0.4105 0.56242 0.33516 0.0
C951 C 0.42263 0.58175 0.31132 0.0
C952 C 0.45208 0.5902 0.31019 0.0
C953 C 0.46889 0.58105 0.33278 0.0
C954 C 0.45617 0.56282 0.35623 0.0
C955 C 0.42777 0.55306 0.3574 0.0
C956 C 0.41949 0.53353 0.38526 0.0
C957 C 0.39785 0.54891 0.4032 0.0
C958 C 0.40849 0.49995 0.37907 0.0
C959 C 0.44756 0.53444 0.3997 0.0
C960 C 0.4684 0.55167 0.38262 0.0
C961 C 0.49569 0.55765 0.39207 0.0
C962 C 0.50187 0.54555 0.41967 0.0
C963 C 0.48101 0.52729 0.43715 0.0
C964 C 0.45359 0.52152 0.42704 0.0
H965 H 0.09503 0.38685 0.84362 0.0
H966 H 0.08945 0.46154 0.77756 0.0
H967 H 0.06997 0.49388 0.81398 0.0
H968 H 0.0323 0.39664 0.88428 0.0
H969 H 0.04724 0.38882 0.91888 0.0
H970 H 0.0603 0.37168 0.8875 0.0
H971 H 0.11063 0.39602 0.8969 0.0
H972 H 0.09762 0.41328 0.92826 0.0
H973 H 0.11705 0.43762 0.9 0.0
H974 H 0.04813 0.51659 0.85751 0.0
H975 H 0.03007 0.52964 0.90541 0.0
H976 H 0.05348 0.44172 0.9432 0.0
C977 C 0.08966 0.41003 0.83692 0.0
C978 C 0.09349 0.42175 0.80785 0.0
C979 C 0.08663 0.45227 0.7998 0.0
C980 C 0.07551 0.47071 0.82029 0.0
C981 C 0.07189 0.45847 0.84884 0.0
C982 C 0.07913 0.42898 0.85722 0.0
C983 C 0.07389 0.42161 0.88936 0.0
C984 C 0.05213 0.393 0.89534 0.0
C985 C 0.10144 0.41686 0.90452 0.0
C986 C 0.06226 0.45137 0.89769 0.0
C987 C 0.06096 0.47225 0.87401 0.0
C988 C 0.04949 0.50062 0.87627 0.0
C989 C 0.03926 0.50785 0.90346 0.0
C990 C 0.04113 0.48708 0.92803 0.0
C991 C 0.05275 0.45853 0.92497 0.0
H992 H 0.70392 0.93552 0.86927 0.0
H993 H 0.66355 0.84059 0.87439 0.0
H994 H 0.61934 0.85933 0.89154 0.0
H995 H 0.67361 0.95697 0.93325 0.0
H996 H 0.66921 0.99662 0.92069 0.0
H997 H 0.69664 0.97675 0.90503 0.0
H998 H 0.67742 0.98726 0.85413 0.0
H999 H 0.65 0.00743 0.86962 0.0
H1000 H 0.64116 0.97513 0.84763 0.0
H1001 H 0.5815 0.88685 0.91224 0.0
H1002 H 0.55133 0.92181 0.93517 0.0
H1003 H 0.6158 0.99961 0.91768 0.0
C1004 C 0.68549 0.91895 0.87331 0.0
C1005 C 0.68686 0.8867 0.87038 0.0
C1006 C 0.6627 0.86539 0.8765 0.0
C1007 C 0.63756 0.87582 0.88614 0.0
C1008 C 0.63698 0.90764 0.88955 0.0
C1009 C 0.6602 0.92898 0.88325 0.0
C1010 C 0.65443 0.96147 0.89104 0.0
C1011 C 0.67467 0.97365 0.91386 0.0
C1012 C 0.65583 0.98416 0.86399 0.0
C1013 C 0.62463 0.95482 0.90337 0.0
C1014 C 0.61497 0.92366 0.90197 0.0
C1015 C 0.58866 0.91139 0.91318 0.0
C1016 C 0.57173 0.93146 0.9263 0.0
C1017 C 0.58117 0.96349 0.92822 0.0
C1018 C 0.60791 0.97532 0.91633 0.0
H1019 H 0.79923 0.11402 0.38254 0.0
H1020 H 0.76067 0.02102 0.36851 0.0
H1021 H 0.79784 0.99793 0.39616 0.0
H1022 H 0.87062 0.09606 0.37497 0.0
H1023 H 0.88326 0.12118 0.40237 0.0
H1024 H 0.85328 0.13023 0.38205 0.0
H1025 H 0.82392 0.13093 0.42965 0.0
H1026 H 0.85378 0.12176 0.45012 0.0
H1027 H 0.82105 0.0972 0.45504 0.0
H1028 H 0.83873 0.9851 0.42591 0.0
H1029 H 0.88224 0.98316 0.45282 0.0
H1030 H 0.89491 0.08469 0.44647 0.0
C1031 C 0.79855 0.0888 0.38545 0.0
C1032 C 0.77706 0.06925 0.37349 0.0
C1033 C 0.77708 0.03636 0.37734 0.0
C1034 C 0.79798 0.02307 0.39314 0.0
C1035 C 0.8188 0.04301 0.40477 0.0
C1036 C 0.81939 0.07516 0.40091 0.0
C1037 C 0.84456 0.09133 0.41489 0.0
C1038 C 0.86408 0.11085 0.39221 0.0
C1039 C 0.83526 0.11149 0.43885 0.0
C1040 C 0.85803 0.06325 0.42727 0.0
C1041 C 0.84271 0.03561 0.42137 0.0
C1042 C 0.85093 0.00659 0.43061 0.0
C1043 C 0.87566 0.00576 0.44597 0.0
C1044 C 0.89204 0.03378 0.45177 0.0
C1045 C 0.88289 0.06287 0.4424 0.0
H1046 H 0.21244 0.62765 0.12638 0.0
H1047 H 0.26125 0.54821 0.12337 0.0
H1048 H 0.22286 0.51933 0.0984 0.0
H1049 H 0.14466 0.58225 0.13959 0.0
H1050 H 0.12625 0.60919 0.1178 0.0
H1051 H 0.15741 0.62317 0.13577 0.0
H1052 H 0.17973 0.64692 0.0868 0.0
H1053 H 0.14874 0.63277 0.06864 0.0
H1054 H 0.1826 0.62215 0.05726 0.0
H1055 H 0.18015 0.50033 0.07139 0.0
H1056 H 0.13446 0.49044 0.04863 0.0
H1057 H 0.11276 0.58172 0.0707 0.0
C1058 C 0.21499 0.60413 0.12053 0.0
C1059 C 0.23984 0.59015 0.12674 0.0
C1060 C 0.24229 0.55923 0.11904 0.0
C1061 C 0.22069 0.54275 0.10468 0.0
C1062 C 0.19666 0.55742 0.09847 0.0
C1063 C 0.19352 0.58725 0.10651 0.0
C1064 C 0.16542 0.59752 0.09767 0.0
C1065 C 0.14737 0.60337 0.12429 0.0
C1066 C 0.16938 0.62656 0.07632 0.0
C1067 C 0.15333 0.56893 0.08313 0.0
C1068 C 0.17177 0.54616 0.08363 0.0
C1069 C 0.16549 0.51792 0.07104 0.0
C1070 C 0.13951 0.51259 0.05802 0.0
C1071 C 0.11996 0.53527 0.05787 0.0
C1072 C 0.12717 0.56387 0.07049 0.0
H1073 H 0.31046 0.42869 0.66313 0.0
H1074 H 0.26685 0.40363 0.586 0.0
H1075 H 0.31005 0.42001 0.5565 0.0
H1076 H 0.35107 0.4976 0.63088 0.0
H1077 H 0.38186 0.49134 0.65106 0.0
H1078 H 0.34758 0.47713 0.66609 0.0
H1079 H 0.3632 0.42125 0.67284 0.0
H1080 H 0.39748 0.43526 0.65762 0.0
H1081 H 0.3771 0.40341 0.6422 0.0
H1082 H 0.35797 0.43956 0.53522 0.0
H1083 H 0.40666 0.46248 0.52367 0.0
H1084 H 0.41887 0.4751 0.61459 0.0
C1085 C 0.30993 0.42688 0.64001 0.0
C1086 C 0.28527 0.41471 0.62692 0.0
C1087 C 0.28558 0.41242 0.5966 0.0
C1088 C 0.31 0.42177 0.57963 0.0
C1089 C 0.334 0.43337 0.59324 0.0
C1090 C 0.33415 0.43605 0.62273 0.0
C1091 C 0.36268 0.44953 0.63195 0.0
C1092 C 0.36067 0.48076 0.6458 0.0
C1093 C 0.37589 0.42595 0.65236 0.0
C1094 C 0.37843 0.45428 0.60301 0.0
C1095 C 0.36157 0.44467 0.58097 0.0
C1096 C 0.37141 0.44711 0.55231 0.0
C1097 C 0.39912 0.4601 0.54597 0.0
C1098 C 0.41665 0.47055 0.56819 0.0
C1099 C 0.4061 0.46725 0.59708 0.0
H1100 H 0.90907 0.71018 0.88734 0.0
H1101 H 0.82094 0.69092 0.91389 0.0
H1102 H 0.83221 0.64616 0.9454 0.0
H1103 H 0.92061 0.62968 0.88246 0.0
H1104 H 0.95593 0.63461 0.89504 0.0
H1105 H 0.94143 0.66686 0.87622 0.0
H1106 H 0.95229 0.70096 0.91928 0.0
H1107 H 0.96672 0.66875 0.93831 0.0
H1108 H 0.93877 0.68718 0.95492 0.0
H1109 H 0.85252 0.60327 0.97363 0.0
H1110 H 0.88016 0.56241 0.99412 0.0
H1111 H 0.95446 0.60667 0.94652 0.0
C1112 C 0.89204 0.69654 0.89961 0.0
C1113 C 0.86413 0.70462 0.89834 0.0
C1114 C 0.84263 0.68603 0.91503 0.0
C1115 C 0.84876 0.66032 0.93288 0.0
C1116 C 0.87642 0.65314 0.9336 0.0
C1117 C 0.89768 0.67045 0.91721 0.0
C1118 C 0.92538 0.65664 0.92081 0.0
C1119 C 0.93648 0.64633 0.89192 0.0
C1120 C 0.94707 0.67977 0.93413 0.0
C1121 C 0.91626 0.62878 0.94169 0.0
C1122 C 0.888 0.62748 0.94904 0.0
C1123 C 0.87467 0.60398 0.96803 0.0
C1124 C 0.89058 0.58093 0.9796 0.0
C1125 C 0.91944 0.58133 0.97186 0.0
C1126 C 0.93243 0.60572 0.95278 0.0
H1127 H 0.39501 0.82232 0.12177 0.0
H1128 H 0.47337 0.78224 0.13725 0.0
H1129 H 0.49914 0.82634 0.10813 0.0
H1130 H 0.41199 0.85094 0.04787 0.0
H1131 H 0.39507 0.88625 0.05066 0.0
H1132 H 0.38259 0.85153 0.07284 0.0
H1133 H 0.38888 0.88245 0.11868 0.0
H1134 H 0.40142 0.91723 0.0966 0.0
H1135 H 0.4226 0.90291 0.12504 0.0
H1136 H 0.51656 0.87436 0.07745 0.0
H1137 H 0.52454 0.92372 0.047 0.0
H1138 H 0.43503 0.93292 0.05107 0.0
C1139 C 0.41757 0.82278 0.11888 0.0
C1140 C 0.43221 0.79895 0.13198 0.0
C1141 C 0.46176 0.80049 0.12785 0.0
C1142 C 0.47659 0.82534 0.11121 0.0
C1143 C 0.46159 0.84853 0.09879 0.0
C1144 C 0.43276 0.84755 0.10238 0.0
C1145 C 0.42186 0.87566 0.08672 0.0
C1146 C 0.40169 0.86547 0.06312 0.0
C1147 C 0.40786 0.89574 0.10804 0.0
C1148 C 0.44906 0.89247 0.07378 0.0
C1149 C 0.4717 0.87638 0.08101 0.0
C1150 C 0.49901 0.88721 0.07162 0.0
C1151 C 0.50332 0.91528 0.05434 0.0
C1152 C 0.48044 0.93222 0.04664 0.0
C1153 C 0.45297 0.92055 0.05657 0.0
H1154 H 0.09956 0.22458 0.59416 0.0
H1155 H 0.07694 0.18887 0.68201 0.0
H1156 H 0.05272 0.14101 0.66351 0.0
H1157 H 0.03592 0.19176 0.56029 0.0
H1158 H 0.05523 0.18317 0.52841 0.0
H1159 H 0.06768 0.2158 0.54861 0.0
H1160 H 0.11569 0.19334 0.5538 0.0
H1161 H 0.10339 0.16066 0.53372 0.0
H1162 H 0.11673 0.15398 0.56924 0.0
H1163 H 0.03486 0.09466 0.63495 0.0
H1164 H 0.02488 0.0549 0.59944 0.0
H1165 H 0.06039 0.12156 0.53086 0.0
C1166 C 0.08933 0.20683 0.60957 0.0
C1167 C 0.09025 0.21045 0.63957 0.0
C1168 C 0.07628 0.18679 0.65893 0.0
C1169 C 0.06258 0.15947 0.6486 0.0
C1170 C 0.06283 0.15633 0.61887 0.0
C1171 C 0.07572 0.17956 0.59968 0.0
C1172 C 0.07463 0.17 0.56893 0.0
C1173 C 0.05733 0.19146 0.55048 0.0
C1174 C 0.10437 0.16945 0.55566 0.0
C1175 C 0.05969 0.13738 0.57376 0.0
C1176 C 0.05276 0.12993 0.60263 0.0
C1177 C 0.03993 0.10044 0.61227 0.0
C1178 C 0.03435 0.07799 0.59193 0.0
C1179 C 0.04177 0.08508 0.56231 0.0
C1180 C 0.05426 0.11537 0.55327 0.0
H1181 H 0.64197 0.28591 0.40919 0.0
H1182 H 0.5644 0.24153 0.3778 0.0
H1183 H 0.5383 0.28202 0.39839 0.0
H1184 H 0.61225 0.30841 0.47682 0.0
H1185 H 0.63417 0.34502 0.47573 0.0
H1186 H 0.64656 0.31198 0.45924 0.0
H1187 H 0.65526 0.34521 0.41069 0.0
H1188 H 0.64287 0.3783 0.42701 0.0
H1189 H 0.62684 0.36426 0.39505 0.0
H1190 H 0.52095 0.32853 0.4208 0.0
H1191 H 0.5137 0.37755 0.44358 0.0
H1192 H 0.60247 0.39051 0.46131 0.0
C1193 C 0.61943 0.2844 0.40703 0.0
C1194 C 0.60524 0.26056 0.39185 0.0
C1195 C 0.57578 0.2598 0.38903 0.0
C1196 C 0.56074 0.28256 0.40081 0.0
C1197 C 0.57543 0.30586 0.41546 0.0
C1198 C 0.6041 0.30689 0.41867 0.0
C1199 C 0.615 0.33486 0.4347 0.0
C1200 C 0.62774 0.32443 0.46333 0.0
C1201 C 0.63624 0.35696 0.41573 0.0
C1202 C 0.588 0.34952 0.43982 0.0
C1203 C 0.5654 0.33243 0.4286 0.0
C1204 C 0.53845 0.34198 0.42987 0.0
C1205 C 0.53455 0.36986 0.44282 0.0
C1206 C 0.55747 0.38777 0.45436 0.0
C1207 C 0.58445 0.37721 0.45297 0.0
loop_
_geom_bond_atom_site_label_1
_geom_bond_atom_site_label_2
_geom_bond_distance
_geom_bond_site_symmetry_2
_ccdc_geom_bond_type
C0 C1 1.391 . S
C0 C4 1.391 . S
C0 H42 0.948 . S
C1 C0 1.391 . S
C1 C2 1.391 . S
C2 C1 1.391 . S
C2 H58 0.947 . S
C2 C59 1.392 . S
C3 C4 1.391 . S
C3 C7 1.397 . S
C3 C59 1.419 . S
C4 C0 1.391 . S
C4 C3 1.391 . S
C4 C5 1.399 . S
C5 C4 1.399 . S
C5 C8 1.396 . S
C5 C17 1.453 . S
C5 C18 1.684 . S
H6 C30 0.948 . S
C7 C3 1.397 . S
C7 C8 1.394 . S
C7 C26 1.723 . S
C8 C5 1.396 . S
C8 C7 1.394 . S
C8 C38 1.723 . S
H9 C32 0.947 . S
H10 C33 0.948 . S
H11 C39 0.982 . S
H12 C40 0.979 . S
H13 C40 0.980 . S
H14 C40 0.983 . S
H15 C39 0.979 . S
H16 C39 0.977 . S
C17 C5 1.453 . S
C17 H46 0.982 . S
C17 H47 0.979 . S
C17 H48 0.977 . S
C18 C5 1.684 . S
C18 H43 0.979 . S
C18 H44 0.980 . S
C18 H45 0.983 . S
C19 C20 1.391 . S
C19 C24 1.391 . S
C19 H49 0.948 . S
C20 C19 1.391 . S
C20 C21 1.391 . S
C21 C20 1.391 . S
C21 C22 1.392 . S
C21 H50 0.947 . S
C22 C21 1.392 . S
C22 C23 1.419 . S
C22 H51 0.948 . S
C23 C22 1.419 . S
C23 C24 1.391 . S
C23 C27 1.397 . S
C24 C19 1.391 . S
C24 C23 1.391 . S
C24 C25 1.399 . S
C25 C24 1.399 . S
C25 C26 1.396 . S
C25 C28 1.453 . S
C25 C29 1.684 . S
C26 C7 1.723 . S
C26 C25 1.396 . S
C26 C27 1.394 . S
C27 C23 1.397 . S
C27 C26 1.394 . S
C27 C37 1.723 . S
C28 C25 1.453 . S
C28 H52 0.982 . S
C28 H53 0.979 . S
C28 H54 0.977 . S
C29 C25 1.684 . S
C29 H55 0.979 . S
C29 H56 0.980 . S
C29 H57 0.983 . S
C30 H6 0.948 . S
C30 C31 1.391 . S
C30 C35 1.391 . S
C31 C30 1.391 . S
C31 C32 1.391 . S
C32 H9 0.947 . S
C32 C31 1.391 . S
C32 C33 1.392 . S
C33 H10 0.948 . S
C33 C32 1.392 . S
C33 C34 1.419 . S
C34 C33 1.419 . S
C34 C35 1.391 . S
C34 C38 1.397 . S
C35 C30 1.391 . S
C35 C34 1.391 . S
C35 C36 1.399 . S
C36 C35 1.399 . S
C36 C37 1.396 . S
C36 C39 1.453 . S
C36 C40 1.684 . S
C37 C27 1.723 . S
C37 C36 1.396 . S
C37 C38 1.394 . S
C38 C8 1.723 . S
C38 C34 1.397 . S
C38 C37 1.394 . S
C39 H11 0.982 . S
C39 H15 0.979 . S
C39 H16 0.977 . S
C39 C36 1.453 . S
C40 H12 0.979 . S
C40 H13 0.980 . S
C40 H14 0.983 . S
C40 C36 1.684 . S
H41 C59 0.948 . S
H42 C0 0.948 . S
H43 C18 0.979 . S
H44 C18 0.980 . S
H45 C18 0.983 . S
H46 C17 0.982 . S
H47 C17 0.979 . S
H48 C17 0.977 . S
H49 C19 0.948 . S
H50 C21 0.947 . S
H51 C22 0.948 . S
H52 C28 0.982 . S
H53 C28 0.979 . S
H54 C28 0.977 . S
H55 C29 0.979 . S
H56 C29 0.980 . S
H57 C29 0.983 . S
H58 C2 0.947 . S
C59 C2 1.392 . S
C59 C3 1.419 . S
C59 H41 0.948 . S
C60 C61 1.391 . S
C60 C64 1.391 . S
C60 H102 0.948 . S
C61 C60 1.391 . S
C61 C62 1.391 . S
C62 C61 1.391 . S
C62 H118 0.947 . S
C62 C119 1.392 . S
C63 C64 1.391 . S
C63 C67 1.397 . S
C63 C119 1.419 . S
C64 C60 1.391 . S
C64 C63 1.391 . S
C64 C65 1.399 . S
C65 C64 1.399 . S
C65 C68 1.396 . S
C65 C77 1.453 . S
C65 C78 1.684 . S
H66 C90 0.948 . S
C67 C63 1.397 . S
C67 C68 1.394 . S
C67 C86 1.723 . S
C68 C65 1.396 . S
C68 C67 1.394 . S
C68 C98 1.723 . S
H69 C92 0.947 . S
H70 C93 0.948 . S
H71 C99 0.982 . S
H72 C100 0.979 . S
H73 C100 0.980 . S
H74 C100 0.983 . S
H75 C99 0.979 . S
H76 C99 0.977 . S
C77 C65 1.453 . S
C77 H106 0.982 . S
C77 H107 0.979 . S
C77 H108 0.977 . S
C78 C65 1.684 . S
C78 H103 0.979 . S
C78 H104 0.980 . S
C78 H105 0.983 . S
C79 C80 1.391 . S
C79 C84 1.391 . S
C79 H109 0.948 . S
C80 C79 1.391 . S
C80 C81 1.391 . S
C81 C80 1.391 . S
C81 C82 1.392 . S
C81 H110 0.947 . S
C82 C81 1.392 . S
C82 C83 1.419 . S
C82 H111 0.948 . S
C83 C82 1.419 . S
C83 C84 1.391 . S
C83 C87 1.397 . S
C84 C79 1.391 . S
C84 C83 1.391 . S
C84 C85 1.399 . S
C85 C84 1.399 . S
C85 C86 1.396 . S
C85 C88 1.453 . S
C85 C89 1.684 . S
C86 C67 1.723 . S
C86 C85 1.396 . S
C86 C87 1.394 . S
C87 C83 1.397 . S
C87 C86 1.394 . S
C87 C97 1.723 . S
C88 C85 1.453 . S
C88 H112 0.982 . S
C88 H113 0.979 . S
C88 H114 0.977 . S
C89 C85 1.684 . S
C89 H115 0.979 . S
C89 H116 0.980 . S
C89 H117 0.983 . S
C90 H66 0.948 . S
C90 C91 1.391 . S
C90 C95 1.391 . S
C91 C90 1.391 . S
C91 C92 1.391 . S
C92 H69 0.947 . S
C92 C91 1.391 . S
C92 C93 1.392 . S
C93 H70 0.948 . S
C93 C92 1.392 . S
C93 C94 1.419 . S
C94 C93 1.419 . S
C94 C95 1.391 . S
C94 C98 1.397 . S
C95 C90 1.391 . S
C95 C94 1.391 . S
C95 C96 1.399 . S
C96 C95 1.399 . S
C96 C97 1.396 . S
C96 C99 1.453 . S
C96 C100 1.684 . S
C97 C87 1.723 . S
C97 C96 1.396 . S
C97 C98 1.394 . S
C98 C68 1.723 . S
C98 C94 1.397 . S
C98 C97 1.394 . S
C99 H71 0.982 . S
C99 H75 0.979 . S
C99 H76 0.977 . S
C99 C96 1.453 . S
C100 H72 0.979 . S
C100 H73 0.980 . S
C100 H74 0.983 . S
C100 C96 1.684 . S
H101 C119 0.948 . S
H102 C60 0.948 . S
H103 C78 0.979 . S
H104 C78 0.980 . S
H105 C78 0.983 . S
H106 C77 0.982 . S
H107 C77 0.979 . S
H108 C77 0.977 . S
H109 C79 0.948 . S
H110 C81 0.947 . S
H111 C82 0.948 . S
H112 C88 0.982 . S
H113 C88 0.979 . S
H114 C88 0.977 . S
H115 C89 0.979 . S
H116 C89 0.980 . S
H117 C89 0.983 . S
H118 C62 0.947 . S
C119 C62 1.392 . S
C119 C63 1.419 . S
C119 H101 0.948 . S
C120 C121 1.391 . S
C120 C124 1.391 . S
C120 H162 0.948 . S
C121 C120 1.391 . S
C121 C122 1.391 . S
C122 C121 1.391 . S
C122 H178 0.947 . S
C122 C179 1.392 . S
C123 C124 1.391 . S
C123 C127 1.397 . S
C123 C179 1.419 . S
C124 C120 1.391 . S
C124 C123 1.391 . S
C124 C125 1.399 . S
C125 C124 1.399 . S
C125 C128 1.396 . S
C125 C137 1.453 . S
C125 C138 1.684 . S
H126 C150 0.948 . S
C127 C123 1.397 . S
C127 C128 1.394 . S
C127 C146 1.723 . S
C128 C125 1.396 . S
C128 C127 1.394 . S
C128 C158 1.723 . S
H129 C152 0.947 . S
H130 C153 0.948 . S
H131 C159 0.982 . S
H132 C160 0.979 . S
H133 C160 0.980 . S
H134 C160 0.983 . S
H135 C159 0.979 . S
H136 C159 0.977 . S
C137 C125 1.453 . S
C137 H166 0.982 . S
C137 H167 0.979 . S
C137 H168 0.977 . S
C138 C125 1.684 . S
C138 H163 0.979 . S
C138 H164 0.980 . S
C138 H165 0.983 . S
C139 C140 1.391 . S
C139 C144 1.391 . S
C139 H169 0.948 . S
C140 C139 1.391 . S
C140 C141 1.391 . S
C141 C140 1.391 . S
C141 C142 1.392 . S
C141 H170 0.947 . S
C142 C141 1.392 . S
C142 C143 1.419 . S
C142 H171 0.948 . S
C143 C142 1.419 . S
C143 C144 1.391 . S
C143 C147 1.397 . S
C144 C139 1.391 . S
C144 C143 1.391 . S
C144 C145 1.399 . S
C145 C144 1.399 . S
C145 C146 1.396 . S
C145 C148 1.453 . S
C145 C149 1.684 . S
C146 C127 1.723 . S
C146 C145 1.396 . S
C146 C147 1.394 . S
C147 C143 1.397 . S
C147 C146 1.394 . S
C147 C157 1.723 . S
C148 C145 1.453 . S
C148 H172 0.982 . S
C148 H173 0.979 . S
C148 H174 0.977 . S
C149 C145 1.684 . S
C149 H175 0.979 . S
C149 H176 0.980 . S
C149 H177 0.983 . S
C150 H126 0.948 . S
C150 C151 1.391 . S
C150 C155 1.391 . S
C151 C150 1.391 . S
C151 C152 1.391 . S
C152 H129 0.947 . S
C152 C151 1.391 . S
C152 C153 1.392 . S
C153 H130 0.948 . S
C153 C152 1.392 . S
C153 C154 1.419 . S
C154 C153 1.419 . S
C154 C155 1.391 . S
C154 C158 1.397 . S
C155 C150 1.391 . S
C155 C154 1.391 . S
C155 C156 1.399 . S
C156 C155 1.399 . S
C156 C157 1.396 . S
C156 C159 1.453 . S
C156 C160 1.684 . S
C157 C147 1.723 . S
C157 C156 1.396 . S
C157 C158 1.394 . S
C158 C128 1.723 . S
C158 C154 1.397 . S
C158 C157 1.394 . S
C159 H131 0.982 . S
C159 H135 0.979 . S
C159 H136 0.977 . S
C159 C156 1.453 . S
C160 H132 0.979 . S
C160 H133 0.980 . S
C160 H134 0.983 . S
C160 C156 1.684 . S
H161 C179 0.948 . S
H162 C120 0.948 . S
H163 C138 0.979 . S
H164 C138 0.980 . S
H165 C138 0.983 . S
H166 C137 0.982 . S
H167 C137 0.979 . S
H168 C137 0.977 . S
H169 C139 0.948 . S
H170 C141 0.947 . S
H171 C142 0.948 . S
H172 C148 0.982 . S
H173 C148 0.979 . S
H174 C148 0.977 . S
H175 C149 0.979 . S
H176 C149 0.980 . S
H177 C149 0.983 . S
H178 C122 0.947 . S
C179 C122 1.392 . S
C179 C123 1.419 . S
C179 H161 0.948 . S
C180 C181 1.391 . S
C180 C184 1.391 . S
C180 H222 0.948 . S
C181 C180 1.391 . S
C181 C182 1.391 . S
C182 C181 1.391 . S
C182 H238 0.947 . S
C182 C239 1.392 . S
C183 C184 1.391 . S
C183 C187 1.397 . S
C183 C239 1.419 . S
C184 C180 1.391 . S
C184 C183 1.391 . S
C184 C185 1.399 . S
C185 C184 1.399 . S
C185 C188 1.396 . S
C185 C197 1.453 . S
C185 C198 1.684 . S
H186 C210 0.948 . S
C187 C183 1.397 . S
C187 C188 1.394 . S
C187 C206 1.723 . S
C188 C185 1.396 . S
C188 C187 1.394 . S
C188 C218 1.723 . S
H189 C212 0.947 . S
H190 C213 0.948 . S
H191 C219 0.982 . S
H192 C220 0.979 . S
H193 C220 0.980 . S
H194 C220 0.983 . S
H195 C219 0.979 . S
H196 C219 0.977 . S
C197 C185 1.453 . S
C197 H226 0.982 . S
C197 H227 0.979 . S
C197 H228 0.977 . S
C198 C185 1.684 . S
C198 H223 0.979 . S
C198 H224 0.980 . S
C198 H225 0.983 . S
C199 C200 1.391 . S
C199 C204 1.391 . S
C199 H229 0.948 . S
C200 C199 1.391 . S
C200 C201 1.391 . S
C201 C200 1.391 . S
C201 C202 1.392 . S
C201 H230 0.947 . S
C202 C201 1.392 . S
C202 C203 1.419 . S
C202 H231 0.948 . S
C203 C202 1.419 . S
C203 C204 1.391 . S
C203 C207 1.397 . S
C204 C199 1.391 . S
C204 C203 1.391 . S
C204 C205 1.399 . S
C205 C204 1.399 . S
C205 C206 1.396 . S
C205 C208 1.453 . S
C205 C209 1.684 . S
C206 C187 1.723 . S
C206 C205 1.396 . S
C206 C207 1.394 . S
C207 C203 1.397 . S
C207 C206 1.394 . S
C207 C217 1.723 . S
C208 C205 1.453 . S
C208 H232 0.982 . S
C208 H233 0.979 . S
C208 H234 0.977 . S
C209 C205 1.684 . S
C209 H235 0.979 . S
C209 H236 0.980 . S
C209 H237 0.983 . S
C210 H186 0.948 . S
C210 C211 1.391 . S
C210 C215 1.391 . S
C211 C210 1.391 . S
C211 C212 1.391 . S
C212 H189 0.947 . S
C212 C211 1.391 . S
C212 C213 1.392 . S
C213 H190 0.948 . S
C213 C212 1.392 . S
C213 C214 1.419 . S
C214 C213 1.419 . S
C214 C215 1.391 . S
C214 C218 1.397 . S
C215 C210 1.391 . S
C215 C214 1.391 . S
C215 C216 1.399 . S
C216 C215 1.399 . S
C216 C217 1.396 . S
C216 C219 1.453 . S
C216 C220 1.684 . S
C217 C207 1.723 . S
C217 C216 1.396 . S
C217 C218 1.394 . S
C218 C188 1.723 . S
C218 C214 1.397 . S
C218 C217 1.394 . S
C219 H191 0.982 . S
C219 H195 0.979 . S
C219 H196 0.977 . S
C219 C216 1.453 . S
C220 H192 0.979 . S
C220 H193 0.980 . S
C220 H194 0.983 . S
C220 C216 1.684 . S
H221 C239 0.948 . S
H222 C180 0.948 . S
H223 C198 0.979 . S
H224 C198 0.980 . S
H225 C198 0.983 . S
H226 C197 0.982 . S
H227 C197 0.979 . S
H228 C197 0.977 . S
H229 C199 0.948 . S
H230 C201 0.947 . S
H231 C202 0.948 . S
H232 C208 0.982 . S
H233 C208 0.979 . S
H234 C208 0.977 . S
H235 C209 0.979 . S
H236 C209 0.980 . S
H237 C209 0.983 . S
H238 C182 0.947 . S
C239 C182 1.392 . S
C239 C183 1.419 . S
C239 H221 0.948 . S
C240 C241 1.391 . S
C240 C244 1.391 . S
C240 H282 0.948 . S
C241 C240 1.391 . S
C241 C242 1.391 . S
C242 C241 1.391 . S
C242 H298 0.947 . S
C242 C299 1.392 . S
C243 C244 1.391 . S
C243 C247 1.397 . S
C243 C299 1.419 . S
C244 C240 1.391 . S
C244 C243 1.391 . S
C244 C245 1.399 . S
C245 C244 1.399 . S
C245 C248 1.396 . S
C245 C257 1.453 . S
C245 C258 1.684 . S
H246 C270 0.948 . S
C247 C243 1.397 . S
C247 C248 1.394 . S
C247 C266 1.723 . S
C248 C245 1.396 . S
C248 C247 1.394 . S
C248 C278 1.723 . S
H249 C272 0.947 . S
H250 C273 0.948 . S
H251 C279 0.982 . S
H252 C280 0.979 . S
H253 C280 0.980 . S
H254 C280 0.983 . S
H255 C279 0.979 . S
H256 C279 0.977 . S
C257 C245 1.453 . S
C257 H286 0.982 . S
C257 H287 0.979 . S
C257 H288 0.977 . S
C258 C245 1.684 . S
C258 H283 0.979 . S
C258 H284 0.980 . S
C258 H285 0.983 . S
C259 C260 1.391 . S
C259 C264 1.391 . S
C259 H289 0.948 . S
C260 C259 1.391 . S
C260 C261 1.391 . S
C261 C260 1.391 . S
C261 C262 1.392 . S
C261 H290 0.947 . S
C262 C261 1.392 . S
C262 C263 1.419 . S
C262 H291 0.948 . S
C263 C262 1.419 . S
C263 C264 1.391 . S
C263 C267 1.397 . S
C264 C259 1.391 . S
C264 C263 1.391 . S
C264 C265 1.399 . S
C265 C264 1.399 . S
C265 C266 1.396 . S
C265 C268 1.453 . S
C265 C269 1.684 . S
C266 C247 1.723 . S
C266 C265 1.396 . S
C266 C267 1.394 . S
C267 C263 1.397 . S
C267 C266 1.394 . S
C267 C277 1.723 . S
C268 C265 1.453 . S
C268 H292 0.982 . S
C268 H293 0.979 . S
C268 H294 0.977 . S
C269 C265 1.684 . S
C269 H295 0.979 . S
C269 H296 0.980 . S
C269 H297 0.983 . S
C270 H246 0.948 . S
C270 C271 1.391 . S
C270 C275 1.391 . S
C271 C270 1.391 . S
C271 C272 1.391 . S
C272 H249 0.947 . S
C272 C271 1.391 . S
C272 C273 1.392 . S
C273 H250 0.948 . S
C273 C272 1.392 . S
C273 C274 1.419 . S
C274 C273 1.419 . S
C274 C275 1.391 . S
C274 C278 1.397 . S
C275 C270 1.391 . S
C275 C274 1.391 . S
C275 C276 1.399 . S
C276 C275 1.399 . S
C276 C277 1.396 . S
C276 C279 1.453 . S
C276 C280 1.684 . S
C277 C267 1.723 . S
C277 C276 1.396 . S
C277 C278 1.394 . S
C278 C248 1.723 . S
C278 C274 1.397 . S
C278 C277 1.394 . S
C279 H251 0.982 . S
C279 H255 0.979 . S
C279 H256 0.977 . S
C279 C276 1.453 . S
C280 H252 0.979 . S
C280 H253 0.980 . S
C280 H254 0.983 . S
C280 C276 1.684 . S
H281 C299 0.948 . S
H282 C240 0.948 . S
H283 C258 0.979 . S
H284 C258 0.980 . S
H285 C258 0.983 . S
H286 C257 0.982 . S
H287 C257 0.979 . S
H288 C257 0.977 . S
H289 C259 0.948 . S
H290 C261 0.947 . S
H291 C262 0.948 . S
H292 C268 0.982 . S
H293 C268 0.979 . S
H294 C268 0.977 . S
H295 C269 0.979 . S
H296 C269 0.980 . S
H297 C269 0.983 . S
H298 C242 0.947 . S
C299 C242 1.392 . S
C299 C243 1.419 . S
C299 H281 0.948 . S
C300 C301 1.391 . S
C300 C304 1.391 . S
C300 H342 0.948 . S
C301 C300 1.391 . S
C301 C302 1.391 . S
C302 C301 1.391 . S
C302 H358 0.947 . S
C302 C359 1.392 . S
C303 C304 1.391 . S
C303 C307 1.397 . S
C303 C359 1.419 . S
C304 C300 1.391 . S
C304 C303 1.391 . S
C304 C305 1.399 . S
C305 C304 1.399 . S
C305 C308 1.396 . S
C305 C317 1.453 . S
C305 C318 1.684 . S
H306 C330 0.948 . S
C307 C303 1.397 . S
C307 C308 1.394 . S
C307 C326 1.723 . S
C308 C305 1.396 . S
C308 C307 1.394 . S
C308 C338 1.723 . S
H309 C332 0.947 . S
H310 C333 0.948 . S
H311 C339 0.982 . S
H312 C340 0.979 . S
H313 C340 0.980 . S
H314 C340 0.983 . S
H315 C339 0.979 . S
H316 C339 0.977 . S
C317 C305 1.453 . S
C317 H346 0.982 . S
C317 H347 0.979 . S
C317 H348 0.977 . S
C318 C305 1.684 . S
C318 H343 0.979 . S
C318 H344 0.980 . S
C318 H345 0.983 . S
C319 C320 1.391 . S
C319 C324 1.391 . S
C319 H349 0.948 . S
C320 C319 1.391 . S
C320 C321 1.391 . S
C321 C320 1.391 . S
C321 C322 1.392 . S
C321 H350 0.947 . S
C322 C321 1.392 . S
C322 C323 1.419 . S
C322 H351 0.948 . S
C323 C322 1.419 . S
C323 C324 1.391 . S
C323 C327 1.397 . S
C324 C319 1.391 . S
C324 C323 1.391 . S
C324 C325 1.399 . S
C325 C324 1.399 . S
C325 C326 1.396 . S
C325 C328 1.453 . S
C325 C329 1.684 . S
C326 C307 1.723 . S
C326 C325 1.396 . S
C326 C327 1.394 . S
C327 C323 1.397 . S
C327 C326 1.394 . S
C327 C337 1.723 . S
C328 C325 1.453 . S
C328 H352 0.982 . S
C328 H353 0.979 . S
C328 H354 0.977 . S
C329 C325 1.684 . S
C329 H355 0.979 . S
C329 H356 0.980 . S
C329 H357 0.983 . S
C330 H306 0.948 . S
C330 C331 1.391 . S
C330 C335 1.391 . S
C331 C330 1.391 . S
C331 C332 1.391 . S
C332 H309 0.947 . S
C332 C331 1.391 . S
C332 C333 1.392 . S
C333 H310 0.948 . S
C333 C332 1.392 . S
C333 C334 1.419 . S
C334 C333 1.419 . S
C334 C335 1.391 . S
C334 C338 1.397 . S
C335 C330 1.391 . S
C335 C334 1.391 . S
C335 C336 1.399 . S
C336 C335 1.399 . S
C336 C337 1.396 . S
C336 C339 1.453 . S
C336 C340 1.684 . S
C337 C327 1.723 . S
C337 C336 1.396 . S
C337 C338 1.394 . S
C338 C308 1.723 . S
C338 C334 1.397 . S
C338 C337 1.394 . S
C339 H311 0.982 . S
C339 H315 0.979 . S
C339 H316 0.977 . S
C339 C336 1.453 . S
C340 H312 0.979 . S
C340 H313 0.980 . S
C340 H314 0.983 . S
C340 C336 1.684 . S
H341 C359 0.948 . S
H342 C300 0.948 . S
H343 C318 0.979 . S
H344 C318 0.980 . S
H345 C318 0.983 . S
H346 C317 0.982 . S
H347 C317 0.979 . S
H348 C317 0.977 . S
H349 C319 0.948 . S
H350 C321 0.947 . S
H351 C322 0.948 . S
H352 C328 0.982 . S
H353 C328 0.979 . S
H354 C328 0.977 . S
H355 C329 0.979 . S
H356 C329 0.980 . S
H357 C329 0.983 . S
H358 C302 0.947 . S
C359 C302 1.392 . S
C359 C303 1.419 . S
C359 H341 0.948 . S
C360 C361 1.391 . S
C360 C364 1.391 . S
C360 H402 0.948 . S
C361 C360 1.391 . S
C361 C362 1.391 . S
C362 C361 1.391 . S
C362 H418 0.947 . S
C362 C419 1.392 . S
C363 C364 1.391 . S
C363 C367 1.397 . S
C363 C419 1.419 . S
C364 C360 1.391 . S
C364 C363 1.391 . S
C364 C365 1.399 . S
C365 C364 1.399 . S
C365 C368 1.396 . S
C365 C377 1.453 . S
C365 C378 1.684 . S
H366 C390 0.948 . S
C367 C363 1.397 . S
C367 C368 1.394 . S
C367 C386 1.723 . S
C368 C365 1.396 . S
C368 C367 1.394 . S
C368 C398 1.723 . S
H369 C392 0.947 . S
H370 C393 0.948 . S
H371 C399 0.982 . S
H372 C400 0.979 . S
H373 C400 0.980 . S
H374 C400 0.983 . S
H375 C399 0.979 . S
H376 C399 0.977 . S
C377 C365 1.453 . S
C377 H406 0.982 . S
C377 H407 0.979 . S
C377 H408 0.977 . S
C378 C365 1.684 . S
C378 H403 0.979 . S
C378 H404 0.980 . S
C378 H405 0.983 . S
C379 C380 1.391 . S
C379 C384 1.391 . S
C379 H409 0.948 . S
C380 C379 1.391 . S
C380 C381 1.391 . S
C381 C380 1.391 . S
C381 C382 1.392 . S
C381 H410 0.947 . S
C382 C381 1.392 . S
C382 C383 1.419 . S
C382 H411 0.948 . S
C383 C382 1.419 . S
C383 C384 1.391 . S
C383 C387 1.397 . S
C384 C379 1.391 . S
C384 C383 1.391 . S
C384 C385 1.399 . S
C385 C384 1.399 . S
C385 C386 1.396 . S
C385 C388 1.453 . S
C385 C389 1.684 . S
C386 C367 1.723 . S
C386 C385 1.396 . S
C386 C387 1.394 . S
C387 C383 1.397 . S
C387 C386 1.394 . S
C387 C397 1.723 . S
C388 C385 1.453 . S
C388 H412 0.982 . S
C388 H413 0.979 . S
C388 H414 0.977 . S
C389 C385 1.684 . S
C389 H415 0.979 . S
C389 H416 0.980 . S
C389 H417 0.983 . S
C390 H366 0.948 . S
C390 C391 1.391 . S
C390 C395 1.391 . S
C391 C390 1.391 . S
C391 C392 1.391 . S
C392 H369 0.947 . S
C392 C391 1.391 . S
C392 C393 1.392 . S
C393 H370 0.948 . S
C393 C392 1.392 . S
C393 C394 1.419 . S
C394 C393 1.419 . S
C394 C395 1.391 . S
C394 C398 1.397 . S
C395 C390 1.391 . S
C395 C394 1.391 . S
C395 C396 1.399 . S
C396 C395 1.399 . S
C396 C397 1.396 . S
C396 C399 1.453 . S
C396 C400 1.684 . S
C397 C387 1.723 . S
C397 C396 1.396 . S
C397 C398 1.394 . S
C398 C368 1.723 . S
C398 C394 1.397 . S
C398 C397 1.394 . S
C399 H371 0.982 . S
C399 H375 0.979 . S
C399 H376 0.977 . S
C399 C396 1.453 . S
C400 H372 0.979 . S
C400 H373 0.980 . S
C400 H374 0.983 . S
C400 C396 1.684 . S
H401 C419 0.948 . S
H402 C360 0.948 . S
H403 C378 0.979 . S
H404 C378 0.980 . S
H405 C378 0.983 . S
H406 C377 0.982 . S
H407 C377 0.979 . S
H408 C377 0.977 . S
H409 C379 0.948 . S
H410 C381 0.947 . S
H411 C382 0.948 . S
H412 C388 0.982 . S
H413 C388 0.979 . S
H414 C388 0.977 . S
H415 C389 0.979 . S
H416 C389 0.980 . S
H417 C389 0.983 . S
H418 C362 0.947 . S
C419 C362 1.392 . S
C419 C363 1.419 . S
C419 H401 0.948 . S
C420 C421 1.391 . S
C420 C424 1.391 . S
C420 H462 0.948 . S
C421 C420 1.391 . S
C421 C422 1.391 . S
C422 C421 1.391 . S
C422 H478 0.947 . S
C422 C479 1.392 . S
C423 C424 1.391 . S
C423 C427 1.397 . S
C423 C479 1.419 . S
C424 C420 1.391 . S
C424 C423 1.391 . S
C424 C425 1.399 . S
C425 C424 1.399 . S
C425 C428 1.396 . S
C425 C437 1.453 . S
C425 C438 1.684 . S
H426 C450 0.948 . S
C427 C423 1.397 . S
C427 C428 1.394 . S
C427 C446 1.723 . S
C428 C425 1.396 . S
C428 C427 1.394 . S
C428 C458 1.723 . S
H429 C452 0.947 . S
H430 C453 0.948 . S
H431 C459 0.982 . S
H432 C460 0.979 . S
H433 C460 0.980 . S
H434 C460 0.983 . S
H435 C459 0.979 . S
H436 C459 0.977 . S
C437 C425 1.453 . S
C437 H466 0.982 . S
C437 H467 0.979 . S
C437 H468 0.977 . S
C438 C425 1.684 . S
C438 H463 0.979 . S
C438 H464 0.980 . S
C438 H465 0.983 . S
C439 C440 1.391 . S
C439 C444 1.391 . S
C439 H469 0.948 . S
C440 C439 1.391 . S
C440 C441 1.391 . S
C441 C440 1.391 . S
C441 C442 1.392 . S
C441 H470 0.947 . S
C442 C441 1.392 . S
C442 C443 1.419 . S
C442 H471 0.948 . S
C443 C442 1.419 . S
C443 C444 1.391 . S
C443 C447 1.397 . S
C444 C439 1.391 . S
C444 C443 1.391 . S
C444 C445 1.399 . S
C445 C444 1.399 . S
C445 C446 1.396 . S
C445 C448 1.453 . S
C445 C449 1.684 . S
C446 C427 1.723 . S
C446 C445 1.396 . S
C446 C447 1.394 . S
C447 C443 1.397 . S
C447 C446 1.394 . S
C447 C457 1.723 . S
C448 C445 1.453 . S
C448 H472 0.982 . S
C448 H473 0.979 . S
C448 H474 0.977 . S
C449 C445 1.684 . S
C449 H475 0.979 . S
C449 H476 0.980 . S
C449 H477 0.983 . S
C450 H426 0.948 . S
C450 C451 1.391 . S
C450 C455 1.391 . S
C451 C450 1.391 . S
C451 C452 1.391 . S
C452 H429 0.947 . S
C452 C451 1.391 . S
C452 C453 1.392 . S
C453 H430 0.948 . S
C453 C452 1.392 . S
C453 C454 1.419 . S
C454 C453 1.419 . S
C454 C455 1.391 . S
C454 C458 1.397 . S
C455 C450 1.391 . S
C455 C454 1.391 . S
C455 C456 1.399 . S
C456 C455 1.399 . S
C456 C457 1.396 . S
C456 C459 1.453 . S
C456 C460 1.684 . S
C457 C447 1.723 . S
C457 C456 1.396 . S
C457 C458 1.394 . S
C458 C428 1.723 . S
C458 C454 1.397 . S
C458 C457 1.394 . S
C459 H431 0.982 . S
C459 H435 0.979 . S
C459 H436 0.977 . S
C459 C456 1.453 . S
C460 H432 0.979 . S
C460 H433 0.980 . S
C460 H434 0.983 . S
C460 C456 1.684 . S
H461 C479 0.948 . S
H462 C420 0.948 . S
H463 C438 0.979 . S
H464 C438 0.980 . S
H465 C438 0.983 . S
H466 C437 0.982 . S
H467 C437 0.979 . S
H468 C437 0.977 . S
H469 C439 0.948 . S
H470 C441 0.947 . S
H471 C442 0.948 . S
H472 C448 0.982 . S
H473 C448 0.979 . S
H474 C448 0.977 . S
H475 C449 0.979 . S
H476 C449 0.980 . S
H477 C449 0.983 . S
H478 C422 0.947 . S
C479 C422 1.392 . S
C479 C423 1.419 . S
C479 H461 0.948 . S
Zn480 O486 1.969 1_545 S
Zn480 O487 1.965 1_545 S
Zn480 O491 2.024 . S
Zn480 O496 1.969 . S
Zn481 O488 1.969 . S
Zn481 O494 1.969 1_565 S
Zn481 O495 1.965 1_565 S
Zn481 O497 2.024 . S
C482 O483 1.229 . S
C482 O491 1.058 . S
O483 C482 1.229 . S
C484 O485 1.229 . S
C484 O497 1.058 . S
O485 C484 1.229 . S
O486 Zn480 1.969 1_565 S
O486 C489 1.267 . S
O487 Zn480 1.965 1_565 S
O487 C498 1.260 1_455 S
O488 Zn481 1.969 . S
O488 C498 1.258 . S
C489 O486 1.267 . S
C489 O490 1.228 . S
O490 C489 1.228 . S
O491 Zn480 2.024 . S
O491 C482 1.058 . S
C492 O493 1.228 . S
C492 O494 1.267 . S
O493 C492 1.228 . S
O494 Zn481 1.969 1_545 S
O494 C492 1.267 . S
O495 Zn481 1.965 1_545 S
O495 C499 1.260 1_655 S
O496 Zn480 1.969 . S
O496 C499 1.258 . S
O497 Zn481 2.024 . S
O497 C484 1.058 . S
C498 O487 1.260 1_655 S
C498 O488 1.258 . S
C499 O495 1.260 1_455 S
C499 O496 1.258 . S
Zn500 O506 1.969 . S
Zn500 O507 1.965 1_565 S
Zn500 O511 2.024 . S
Zn500 O516 1.969 . S
Zn501 O508 1.969 . S
Zn501 O514 1.969 . S
Zn501 O515 1.965 1_545 S
Zn501 O517 2.024 . S
C502 O503 1.229 . S
C502 O511 1.058 . S
O503 C502 1.229 . S
C504 O505 1.229 . S
C504 O517 1.058 . S
O505 C504 1.229 . S
O506 Zn500 1.969 . S
O506 C509 1.267 . S
O507 Zn500 1.965 1_545 S
O507 C518 1.260 . S
O508 Zn501 1.969 . S
O508 C518 1.258 1_554 S
C509 O506 1.267 . S
C509 O510 1.228 . S
O510 C509 1.228 . S
O511 Zn500 2.024 . S
O511 C502 1.058 . S
C512 O513 1.228 . S
C512 O514 1.267 . S
O513 C512 1.228 . S
O514 Zn501 1.969 . S
O514 C512 1.267 . S
O515 Zn501 1.965 1_565 S
O515 C519 1.260 . S
O516 Zn500 1.969 . S
O516 C519 1.258 1_556 S
O517 Zn501 2.024 . S
O517 C504 1.058 . S
C518 O507 1.260 . S
C518 O508 1.258 1_556 S
C519 O515 1.260 . S
C519 O516 1.258 1_554 S
Zn520 O526 1.969 . S
Zn520 O527 1.965 . S
Zn520 O531 2.024 . S
Zn520 O536 1.969 . S
Zn521 O528 1.969 . S
Zn521 O534 1.969 . S
Zn521 O535 1.965 . S
Zn521 O537 2.024 . S
C522 O523 1.229 . S
C522 O531 1.058 . S
O523 C522 1.229 . S
C524 O525 1.229 . S
C524 O537 1.058 . S
O525 C524 1.229 . S
O526 Zn520 1.969 . S
O526 C529 1.267 . S
O527 Zn520 1.965 . S
O527 C538 1.260 . S
O528 Zn521 1.969 . S
O528 C538 1.258 . S
C529 O526 1.267 . S
C529 O530 1.228 . S
O530 C529 1.228 . S
O531 Zn520 2.024 . S
O531 C522 1.058 . S
C532 O533 1.228 . S
C532 O534 1.267 . S
O533 C532 1.228 . S
O534 Zn521 1.969 . S
O534 C532 1.267 . S
O535 Zn521 1.965 . S
O535 C539 1.260 . S
O536 Zn520 1.969 . S
O536 C539 1.258 . S
O537 Zn521 2.024 . S
O537 C524 1.058 . S
C538 O527 1.260 . S
C538 O528 1.258 . S
C539 O535 1.260 . S
C539 O536 1.258 . S
Zn540 O546 1.969 . S
Zn540 O547 1.965 1_556 S
Zn540 O551 2.024 . S
Zn540 O556 1.984 . S
Zn541 O548 1.999 . S
Zn541 O554 1.969 . S
Zn541 O555 1.965 1_554 S
Zn541 O557 2.024 . S
C542 O543 1.229 . S
C542 O551 1.058 . S
O543 C542 1.229 . S
C544 O545 1.229 . S
C544 O557 1.058 . S
O545 C544 1.229 . S
O546 Zn540 1.969 . S
O546 C549 1.267 . S
O547 Zn540 1.965 1_554 S
O547 C558 1.260 . S
O548 Zn541 1.999 . S
O548 C558 1.228 1_455 S
C549 O546 1.267 . S
C549 O550 1.228 . S
O550 C549 1.228 . S
O551 Zn540 2.024 . S
O551 C542 1.058 . S
C552 O553 1.228 . S
C552 O554 1.267 . S
O553 C552 1.228 . S
O554 Zn541 1.969 . S
O554 C552 1.267 . S
O555 Zn541 1.965 1_556 S
O555 C559 1.260 . S
O556 Zn540 1.984 . S
O556 C559 1.243 1_655 S
O557 Zn541 2.024 . S
O557 C544 1.058 . S
C558 O547 1.260 . S
C558 O548 1.228 1_655 S
C559 O555 1.260 . S
C559 O556 1.243 1_455 S
H560 C572 0.930 . S
H561 C574 0.930 . S
H562 C575 0.930 . S
H563 C579 0.959 . S
H564 C579 0.959 . S
H565 C579 0.961 . S
H566 C580 0.960 . S
H567 C580 0.961 . S
H568 C580 0.959 . S
H569 C583 0.929 . S
H570 C584 0.962 . S
H571 C586 0.930 . S
C572 H560 0.930 . S
C572 C573 1.399 . S
C572 C577 1.399 . S
C573 C572 1.399 . S
C573 C574 1.376 . S
C574 H561 0.930 . S
C574 C573 1.376 . S
C574 C575 1.388 . S
C575 H562 0.930 . S
C575 C574 1.388 . S
C575 C576 1.390 . S
C576 C575 1.390 . S
C576 C577 1.394 . S
C576 C582 1.465 . S
C577 C572 1.399 . S
C577 C576 1.394 . S
C577 C578 1.516 . S
C578 C577 1.516 . S
C578 C579 1.502 . S
C578 C580 1.561 . S
C578 C581 1.526 . S
C579 H563 0.959 . S
C579 H564 0.959 . S
C579 H565 0.961 . S
C579 C578 1.502 . S
C580 H566 0.960 . S
C580 H567 0.961 . S
C580 H568 0.959 . S
C580 C578 1.561 . S
C581 C578 1.526 . S
C581 C582 1.396 . S
C581 C586 1.390 . S
C582 C576 1.465 . S
C582 C581 1.396 . S
C582 C583 1.399 . S
C583 H569 0.929 . S
C583 C582 1.399 . S
C583 C584 1.385 . S
C584 H570 0.962 . S
C584 C583 1.385 . S
C584 C585 1.389 . S
C585 C584 1.389 . S
C585 C586 1.387 . S
C586 H571 0.930 . S
C586 C581 1.390 . S
C586 C585 1.387 . S
H587 C599 0.930 . S
H588 C601 0.930 . S
H589 C602 0.930 . S
H590 C606 0.959 . S
H591 C606 0.959 . S
H592 C606 0.961 . S
H593 C607 0.960 . S
H594 C607 0.961 . S
H595 C607 0.959 . S
H596 C610 0.929 . S
H597 C611 0.931 . S
H598 C613 0.930 . S
C599 H587 0.930 . S
C599 C600 1.399 . S
C599 C604 1.399 . S
C600 C599 1.399 . S
C600 C601 1.376 . S
C601 H588 0.930 . S
C601 C600 1.376 . S
C601 C602 1.388 . S
C602 H589 0.930 . S
C602 C601 1.388 . S
C602 C603 1.390 . S
C603 C602 1.390 . S
C603 C604 1.394 . S
C603 C609 1.465 . S
C604 C599 1.399 . S
C604 C603 1.394 . S
C604 C605 1.516 . S
C605 C604 1.516 . S
C605 C606 1.502 . S
C605 C607 1.561 . S
C605 C608 1.526 . S
C606 H590 0.959 . S
C606 H591 0.959 . S
C606 H592 0.961 . S
C606 C605 1.502 . S
C607 H593 0.960 . S
C607 H594 0.961 . S
C607 H595 0.959 . S
C607 C605 1.561 . S
C608 C605 1.526 . S
C608 C609 1.396 . S
C608 C613 1.390 . S
C609 C603 1.465 . S
C609 C608 1.396 . S
C609 C610 1.399 . S
C610 H596 0.929 . S
C610 C609 1.399 . S
C610 C611 1.385 . S
C611 H597 0.931 . S
C611 C610 1.385 . S
C611 C612 1.389 . S
C612 C611 1.389 . S
C612 C613 1.387 . S
C613 H598 0.930 . S
C613 C608 1.390 . S
C613 C612 1.387 . S
H614 C626 0.930 . S
H615 C628 0.930 . S
H616 C629 0.930 . S
H617 C633 0.959 . S
H618 C633 0.959 . S
H619 C633 0.961 . S
H620 C634 0.960 . S
H621 C634 0.961 . S
H622 C634 0.959 . S
H623 C637 0.929 . S
H624 C638 0.931 . S
H625 C640 0.930 . S
C626 H614 0.930 . S
C626 C627 1.399 . S
C626 C631 1.399 . S
C627 C626 1.399 . S
C627 C628 1.376 . S
C628 H615 0.930 . S
C628 C627 1.376 . S
C628 C629 1.388 . S
C629 H616 0.930 . S
C629 C628 1.388 . S
C629 C630 1.390 . S
C630 C629 1.390 . S
C630 C631 1.394 . S
C630 C636 1.465 . S
C631 C626 1.399 . S
C631 C630 1.394 . S
C631 C632 1.516 . S
C632 C631 1.516 . S
C632 C633 1.502 . S
C632 C634 1.561 . S
C632 C635 1.526 . S
C633 H617 0.959 . S
C633 H618 0.959 . S
C633 H619 0.961 . S
C633 C632 1.502 . S
C634 H620 0.960 . S
C634 H621 0.961 . S
C634 H622 0.959 . S
C634 C632 1.561 . S
C635 C632 1.526 . S
C635 C636 1.396 . S
C635 C640 1.390 . S
C636 C630 1.465 . S
C636 C635 1.396 . S
C636 C637 1.399 . S
C637 H623 0.929 . S
C637 C636 1.399 . S
C637 C638 1.385 . S
C638 H624 0.931 . S
C638 C637 1.385 . S
C638 C639 1.389 . S
C639 C638 1.389 . S
C639 C640 1.387 . S
C640 H625 0.930 . S
C640 C635 1.390 . S
C640 C639 1.387 . S
H641 C653 0.930 . S
H642 C655 0.930 . S
H643 C656 0.930 . S
H644 C660 0.959 . S
H645 C660 0.959 . S
H646 C660 0.961 . S
H647 C661 0.960 . S
H648 C661 0.961 . S
H649 C661 0.959 . S
H650 C664 0.929 . S
H651 C665 0.904 1_455 S
H652 C667 0.930 . S
C653 H641 0.930 . S
C653 C654 1.399 . S
C653 C658 1.399 . S
C654 C653 1.399 . S
C654 C655 1.376 . S
C655 H642 0.930 . S
C655 C654 1.376 . S
C655 C656 1.388 . S
C656 H643 0.930 . S
C656 C655 1.388 . S
C656 C657 1.390 . S
C657 C656 1.390 . S
C657 C658 1.394 . S
C657 C663 1.465 . S
C658 C653 1.399 . S
C658 C657 1.394 . S
C658 C659 1.516 . S
C659 C658 1.516 . S
C659 C660 1.502 . S
C659 C661 1.561 . S
C659 C662 1.526 . S
C660 H644 0.959 . S
C660 H645 0.959 . S
C660 H646 0.961 . S
C660 C659 1.502 . S
C661 H647 0.960 . S
C661 H648 0.961 . S
C661 H649 0.959 . S
C661 C659 1.561 . S
C662 C659 1.526 . S
C662 C663 1.396 . S
C662 C667 1.390 . S
C663 C657 1.465 . S
C663 C662 1.396 . S
C663 C664 1.399 . S
C664 H650 0.929 . S
C664 C663 1.399 . S
C664 C665 1.385 . S
C665 H651 0.904 1_655 S
C665 C664 1.385 . S
C665 C666 1.389 . S
C666 C665 1.389 . S
C666 C667 1.387 . S
C667 H652 0.930 . S
C667 C662 1.390 . S
C667 C666 1.387 . S
H668 C680 0.930 . S
H669 C682 0.930 . S
H670 C683 0.930 . S
H671 C687 0.959 . S
H672 C687 0.959 . S
H673 C687 0.961 . S
H674 C688 0.960 . S
H675 C688 0.961 . S
H676 C688 0.959 . S
H677 C691 0.929 . S
H678 C692 0.931 . S
H679 C694 0.930 . S
C680 H668 0.930 . S
C680 C681 1.399 . S
C680 C685 1.399 . S
C681 C680 1.399 . S
C681 C682 1.376 . S
C682 H669 0.930 . S
C682 C681 1.376 . S
C682 C683 1.388 . S
C683 H670 0.930 . S
C683 C682 1.388 . S
C683 C684 1.390 . S
C684 C683 1.390 . S
C684 C685 1.394 . S
C684 C690 1.465 . S
C685 C680 1.399 . S
C685 C684 1.394 . S
C685 C686 1.516 . S
C686 C685 1.516 . S
C686 C687 1.502 . S
C686 C688 1.561 . S
C686 C689 1.526 . S
C687 H671 0.959 . S
C687 H672 0.959 . S
C687 H673 0.961 . S
C687 C686 1.502 . S
C688 H674 0.960 . S
C688 H675 0.961 . S
C688 H676 0.959 . S
C688 C686 1.561 . S
C689 C686 1.526 . S
C689 C690 1.396 . S
C689 C694 1.390 . S
C690 C684 1.465 . S
C690 C689 1.396 . S
C690 C691 1.399 . S
C691 H677 0.929 . S
C691 C690 1.399 . S
C691 C692 1.385 . S
C692 H678 0.931 . S
C692 C691 1.385 . S
C692 C693 1.389 . S
C693 C692 1.389 . S
C693 C694 1.387 . S
C694 H679 0.930 . S
C694 C689 1.390 . S
C694 C693 1.387 . S
H695 C707 0.930 . S
H696 C709 0.930 . S
H697 C710 0.930 . S
H698 C714 0.959 . S
H699 C714 0.959 . S
H700 C714 0.961 . S
H701 C715 0.960 . S
H702 C715 0.961 1_545 S
H703 C715 0.959 . S
H704 C718 0.929 . S
H705 C719 0.931 . S
H706 C721 0.930 . S
C707 H695 0.930 . S
C707 C708 1.399 . S
C707 C712 1.399 . S
C708 C707 1.399 . S
C708 C709 1.376 . S
C709 H696 0.930 . S
C709 C708 1.376 . S
C709 C710 1.388 . S
C710 H697 0.930 . S
C710 C709 1.388 . S
C710 C711 1.390 . S
C711 C710 1.390 . S
C711 C712 1.394 . S
C711 C717 1.465 . S
C712 C707 1.399 . S
C712 C711 1.394 . S
C712 C713 1.516 . S
C713 C712 1.516 . S
C713 C714 1.502 . S
C713 C715 1.561 . S
C713 C716 1.526 . S
C714 H698 0.959 . S
C714 H699 0.959 . S
C714 H700 0.961 . S
C714 C713 1.502 . S
C715 H701 0.960 . S
C715 H702 0.961 1_565 S
C715 H703 0.959 . S
C715 C713 1.561 . S
C716 C713 1.526 . S
C716 C717 1.396 . S
C716 C721 1.390 . S
C717 C711 1.465 . S
C717 C716 1.396 . S
C717 C718 1.399 . S
C718 H704 0.929 . S
C718 C717 1.399 . S
C718 C719 1.385 . S
C719 H705 0.931 . S
C719 C718 1.385 . S
C719 C720 1.389 . S
C720 C719 1.389 . S
C720 C721 1.387 . S
C721 H706 0.930 . S
C721 C716 1.390 . S
C721 C720 1.387 . S
H722 C734 0.930 . S
H723 C736 0.930 . S
H724 C737 0.930 . S
H725 C741 0.959 . S
H726 C741 0.959 . S
H727 C741 0.961 . S
H728 C742 0.960 . S
H729 C742 0.961 . S
H730 C742 0.959 . S
H731 C745 0.929 . S
H732 C746 0.931 . S
H733 C748 0.930 . S
C734 H722 0.930 . S
C734 C735 1.399 . S
C734 C739 1.399 . S
C735 C734 1.399 . S
C735 C736 1.376 . S
C736 H723 0.930 . S
C736 C735 1.376 . S
C736 C737 1.388 . S
C737 H724 0.930 . S
C737 C736 1.388 . S
C737 C738 1.390 . S
C738 C737 1.390 . S
C738 C739 1.394 . S
C738 C744 1.465 . S
C739 C734 1.399 . S
C739 C738 1.394 . S
C739 C740 1.516 . S
C740 C739 1.516 . S
C740 C741 1.502 . S
C740 C742 1.561 . S
C740 C743 1.526 . S
C741 H725 0.959 . S
C741 H726 0.959 . S
C741 H727 0.961 . S
C741 C740 1.502 . S
C742 H728 0.960 . S
C742 H729 0.961 . S
C742 H730 0.959 . S
C742 C740 1.561 . S
C743 C740 1.526 . S
C743 C744 1.396 . S
C743 C748 1.390 . S
C744 C738 1.465 . S
C744 C743 1.396 . S
C744 C745 1.399 . S
C745 H731 0.929 . S
C745 C744 1.399 . S
C745 C746 1.385 . S
C746 H732 0.931 . S
C746 C745 1.385 . S
C746 C747 1.389 . S
C747 C746 1.389 . S
C747 C748 1.387 . S
C748 H733 0.930 . S
C748 C743 1.390 . S
C748 C747 1.387 . S
H749 C761 0.930 . S
H750 C763 0.930 . S
H751 C764 0.930 . S
H752 C768 0.959 . S
H753 C768 0.959 . S
H754 C768 0.961 . S
H755 C769 0.960 . S
H756 C769 0.961 . S
H757 C769 0.959 . S
H758 C772 0.929 . S
H759 C773 0.931 . S
H760 C775 0.930 . S
C761 H749 0.930 . S
C761 C762 1.399 . S
C761 C766 1.399 . S
C762 C761 1.399 . S
C762 C763 1.376 . S
C763 H750 0.930 . S
C763 C762 1.376 . S
C763 C764 1.388 . S
C764 H751 0.930 . S
C764 C763 1.388 . S
C764 C765 1.390 . S
C765 C764 1.390 . S
C765 C766 1.394 . S
C765 C771 1.465 . S
C766 C761 1.399 . S
C766 C765 1.394 . S
C766 C767 1.516 . S
C767 C766 1.516 . S
C767 C768 1.502 . S
C767 C769 1.561 . S
C767 C770 1.526 . S
C768 H752 0.959 . S
C768 H753 0.959 . S
C768 H754 0.961 . S
C768 C767 1.502 . S
C769 H755 0.960 . S
C769 H756 0.961 . S
C769 H757 0.959 . S
C769 C767 1.561 . S
C770 C767 1.526 . S
C770 C771 1.396 . S
C770 C775 1.390 . S
C771 C765 1.465 . S
C771 C770 1.396 . S
C771 C772 1.399 . S
C772 H758 0.929 . S
C772 C771 1.399 . S
C772 C773 1.385 . S
C773 H759 0.931 . S
C773 C772 1.385 . S
C773 C774 1.389 . S
C774 C773 1.389 . S
C774 C775 1.387 . S
C775 H760 0.930 . S
C775 C770 1.390 . S
C775 C774 1.387 . S
H776 C788 0.930 . S
H777 C790 0.930 . S
H778 C791 0.930 . S
H779 C795 0.959 . S
H780 C795 0.959 . S
H781 C795 0.961 . S
H782 C796 0.960 . S
H783 C796 0.961 . S
H784 C796 0.959 . S
H785 C799 0.929 . S
H786 C800 0.931 . S
H787 C802 0.930 . S
C788 H776 0.930 . S
C788 C789 1.399 . S
C788 C793 1.399 . S
C789 C788 1.399 . S
C789 C790 1.376 . S
C790 H777 0.930 . S
C790 C789 1.376 . S
C790 C791 1.388 . S
C791 H778 0.930 . S
C791 C790 1.388 . S
C791 C792 1.390 . S
C792 C791 1.390 . S
C792 C793 1.394 . S
C792 C798 1.465 . S
C793 C788 1.399 . S
C793 C792 1.394 . S
C793 C794 1.516 . S
C794 C793 1.516 . S
C794 C795 1.502 . S
C794 C796 1.561 . S
C794 C797 1.526 . S
C795 H779 0.959 . S
C795 H780 0.959 . S
C795 H781 0.961 . S
C795 C794 1.502 . S
C796 H782 0.960 . S
C796 H783 0.961 . S
C796 H784 0.959 . S
C796 C794 1.561 . S
C797 C794 1.526 . S
C797 C798 1.396 . S
C797 C802 1.390 . S
C798 C792 1.465 . S
C798 C797 1.396 . S
C798 C799 1.399 . S
C799 H785 0.929 . S
C799 C798 1.399 . S
C799 C800 1.385 . S
C800 H786 0.931 . S
C800 C799 1.385 . S
C800 C801 1.389 . S
C801 C800 1.389 . S
C801 C802 1.387 . S
C802 H787 0.930 . S
C802 C797 1.390 . S
C802 C801 1.387 . S
H803 C815 0.930 . S
H804 C817 0.930 . S
H805 C818 0.930 . S
H806 C822 0.959 . S
H807 C822 0.959 . S
H808 C822 0.961 . S
H809 C823 0.960 . S
H810 C823 0.961 . S
H811 C823 0.959 . S
H812 C826 0.929 . S
H813 C827 0.931 . S
H814 C829 0.930 . S
C815 H803 0.930 . S
C815 C816 1.399 . S
C815 C820 1.399 . S
C816 C815 1.399 . S
C816 C817 1.376 . S
C817 H804 0.930 . S
C817 C816 1.376 . S
C817 C818 1.388 . S
C818 H805 0.930 . S
C818 C817 1.388 . S
C818 C819 1.390 . S
C819 C818 1.390 . S
C819 C820 1.394 . S
C819 C825 1.465 . S
C820 C815 1.399 . S
C820 C819 1.394 . S
C820 C821 1.516 . S
C821 C820 1.516 . S
C821 C822 1.502 . S
C821 C823 1.561 . S
C821 C824 1.526 . S
C822 H806 0.959 . S
C822 H807 0.959 . S
C822 H808 0.961 . S
C822 C821 1.502 . S
C823 H809 0.960 . S
C823 H810 0.961 . S
C823 H811 0.959 . S
C823 C821 1.561 . S
C824 C821 1.526 . S
C824 C825 1.396 . S
C824 C829 1.390 . S
C825 C819 1.465 . S
C825 C824 1.396 . S
C825 C826 1.399 . S
C826 H812 0.929 . S
C826 C825 1.399 . S
C826 C827 1.385 . S
C827 H813 0.931 . S
C827 C826 1.385 . S
C827 C828 1.389 . S
C828 C827 1.389 . S
C828 C829 1.387 . S
C829 H814 0.930 . S
C829 C824 1.390 . S
C829 C828 1.387 . S
H830 C842 0.930 . S
H831 C844 0.930 . S
H832 C845 0.930 . S
H833 C849 0.959 . S
H834 C849 0.959 . S
H835 C849 0.961 . S
H836 C850 0.960 . S
H837 C850 0.961 . S
H838 C850 0.959 . S
H839 C853 0.929 . S
H840 C854 0.931 . S
H841 C856 0.930 . S
C842 H830 0.930 . S
C842 C843 1.399 . S
C842 C847 1.399 . S
C843 C842 1.399 . S
C843 C844 1.376 . S
C844 H831 0.930 . S
C844 C843 1.376 . S
C844 C845 1.388 . S
C845 H832 0.930 . S
C845 C844 1.388 . S
C845 C846 1.390 . S
C846 C845 1.390 . S
C846 C847 1.394 . S
C846 C852 1.465 . S
C847 C842 1.399 . S
C847 C846 1.394 . S
C847 C848 1.516 . S
C848 C847 1.516 . S
C848 C849 1.502 . S
C848 C850 1.561 . S
C848 C851 1.526 . S
C849 H833 0.959 . S
C849 H834 0.959 . S
C849 H835 0.961 . S
C849 C848 1.502 . S
C850 H836 0.960 . S
C850 H837 0.961 . S
C850 H838 0.959 . S
C850 C848 1.561 . S
C851 C848 1.526 . S
C851 C852 1.396 . S
C851 C856 1.390 . S
C852 C846 1.465 . S
C852 C851 1.396 . S
C852 C853 1.399 . S
C853 H839 0.929 . S
C853 C852 1.399 . S
C853 C854 1.385 . S
C854 H840 0.931 . S
C854 C853 1.385 . S
C854 C855 1.389 . S
C855 C854 1.389 . S
C855 C856 1.387 . S
C856 H841 0.930 . S
C856 C851 1.390 . S
C856 C855 1.387 . S
H857 C869 0.930 . S
H858 C871 0.930 . S
H859 C872 0.930 . S
H860 C876 0.959 . S
H861 C876 0.959 . S
H862 C876 0.961 . S
H863 C877 0.960 . S
H864 C877 0.961 . S
H865 C877 0.959 . S
H866 C880 0.929 . S
H867 C881 0.931 . S
H868 C883 0.930 . S
C869 H857 0.930 . S
C869 C870 1.399 . S
C869 C874 1.399 . S
C870 C869 1.399 . S
C870 C871 1.376 . S
C871 H858 0.930 . S
C871 C870 1.376 . S
C871 C872 1.388 . S
C872 H859 0.930 . S
C872 C871 1.388 . S
C872 C873 1.390 . S
C873 C872 1.390 . S
C873 C874 1.394 . S
C873 C879 1.465 . S
C874 C869 1.399 . S
C874 C873 1.394 . S
C874 C875 1.516 . S
C875 C874 1.516 . S
C875 C876 1.502 . S
C875 C877 1.561 . S
C875 C878 1.526 . S
C876 H860 0.959 . S
C876 H861 0.959 . S
C876 H862 0.961 . S
C876 C875 1.502 . S
C877 H863 0.960 . S
C877 H864 0.961 . S
C877 H865 0.959 . S
C877 C875 1.561 . S
C878 C875 1.526 . S
C878 C879 1.396 . S
C878 C883 1.390 . S
C879 C873 1.465 . S
C879 C878 1.396 . S
C879 C880 1.399 . S
C880 H866 0.929 . S
C880 C879 1.399 . S
C880 C881 1.385 . S
C881 H867 0.931 . S
C881 C880 1.385 . S
C881 C882 1.389 . S
C882 C881 1.389 . S
C882 C883 1.387 . S
C883 H868 0.930 . S
C883 C878 1.390 . S
C883 C882 1.387 . S
H884 C896 0.930 . S
H885 C898 0.930 . S
H886 C899 0.930 . S
H887 C903 0.959 . S
H888 C903 0.959 . S
H889 C903 0.961 . S
H890 C904 0.960 . S
H891 C904 0.961 . S
H892 C904 0.959 . S
H893 C907 0.929 . S
H894 C908 0.931 . S
H895 C910 0.930 . S
C896 H884 0.930 . S
C896 C897 1.399 . S
C896 C901 1.399 . S
C897 C896 1.399 . S
C897 C898 1.376 . S
C898 H885 0.930 . S
C898 C897 1.376 . S
C898 C899 1.388 . S
C899 H886 0.930 . S
C899 C898 1.388 . S
C899 C900 1.390 . S
C900 C899 1.390 . S
C900 C901 1.394 . S
C900 C906 1.465 . S
C901 C896 1.399 . S
C901 C900 1.394 . S
C901 C902 1.516 . S
C902 C901 1.516 . S
C902 C903 1.502 . S
C902 C904 1.561 . S
C902 C905 1.526 . S
C903 H887 0.959 . S
C903 H888 0.959 . S
C903 H889 0.961 . S
C903 C902 1.502 . S
C904 H890 0.960 . S
C904 H891 0.961 . S
C904 H892 0.959 . S
C904 C902 1.561 . S
C905 C902 1.526 . S
C905 C906 1.396 . S
C905 C910 1.390 . S
C906 C900 1.465 . S
C906 C905 1.396 . S
C906 C907 1.399 . S
C907 H893 0.929 . S
C907 C906 1.399 . S
C907 C908 1.385 . S
C908 H894 0.931 . S
C908 C907 1.385 . S
C908 C909 1.389 . S
C909 C908 1.389 . S
C909 C910 1.387 . S
C910 H895 0.930 . S
C910 C905 1.390 . S
C910 C909 1.387 . S
H911 C923 0.930 . S
H912 C925 0.930 . S
H913 C926 0.930 . S
H914 C930 0.959 . S
H915 C930 0.978 . S
H916 C930 0.961 . S
H917 C931 0.960 . S
H918 C931 0.961 . S
H919 C931 0.959 . S
H920 C934 0.929 . S
H921 C935 0.931 . S
H922 C937 0.930 . S
C923 H911 0.930 . S
C923 C924 1.399 . S
C923 C928 1.399 . S
C924 C923 1.399 . S
C924 C925 1.376 . S
C925 H912 0.930 . S
C925 C924 1.376 . S
C925 C926 1.388 . S
C926 H913 0.930 . S
C926 C925 1.388 . S
C926 C927 1.390 . S
C927 C926 1.390 . S
C927 C928 1.394 . S
C927 C933 1.465 . S
C928 C923 1.399 . S
C928 C927 1.394 . S
C928 C929 1.516 . S
C929 C928 1.516 . S
C929 C930 1.502 . S
C929 C931 1.561 . S
C929 C932 1.526 . S
C930 H914 0.959 . S
C930 H915 0.978 . S
C930 H916 0.961 . S
C930 C929 1.502 . S
C931 H917 0.960 . S
C931 H918 0.961 . S
C931 H919 0.959 . S
C931 C929 1.561 . S
C932 C929 1.526 . S
C932 C933 1.396 . S
C932 C937 1.390 . S
C933 C927 1.465 . S
C933 C932 1.396 . S
C933 C934 1.399 . S
C934 H920 0.929 . S
C934 C933 1.399 . S
C934 C935 1.385 . S
C935 H921 0.931 . S
C935 C934 1.385 . S
C935 C936 1.389 . S
C936 C935 1.389 . S
C936 C937 1.387 . S
C937 H922 0.930 . S
C937 C932 1.390 . S
C937 C936 1.387 . S
H938 C950 0.930 . S
H939 C952 0.930 . S
H940 C953 0.930 . S
H941 C957 0.959 . S
H942 C957 0.959 . S
H943 C957 0.961 . S
H944 C958 0.960 . S
H945 C958 0.961 . S
H946 C958 0.959 . S
H947 C961 0.929 . S
H948 C962 0.931 . S
H949 C964 0.930 . S
C950 H938 0.930 . S
C950 C951 1.399 . S
C950 C955 1.399 . S
C951 C950 1.399 . S
C951 C952 1.376 . S
C952 H939 0.930 . S
C952 C951 1.376 . S
C952 C953 1.388 . S
C953 H940 0.930 . S
C953 C952 1.388 . S
C953 C954 1.390 . S
C954 C953 1.390 . S
C954 C955 1.394 . S
C954 C960 1.465 . S
C955 C950 1.399 . S
C955 C954 1.394 . S
C955 C956 1.516 . S
C956 C955 1.516 . S
C956 C957 1.502 . S
C956 C958 1.561 . S
C956 C959 1.526 . S
C957 H941 0.959 . S
C957 H942 0.959 . S
C957 H943 0.961 . S
C957 C956 1.502 . S
C958 H944 0.960 . S
C958 H945 0.961 . S
C958 H946 0.959 . S
C958 C956 1.561 . S
C959 C956 1.526 . S
C959 C960 1.396 . S
C959 C964 1.390 . S
C960 C954 1.465 . S
C960 C959 1.396 . S
C960 C961 1.399 . S
C961 H947 0.929 . S
C961 C960 1.399 . S
C961 C962 1.385 . S
C962 H948 0.931 . S
C962 C961 1.385 . S
C962 C963 1.389 . S
C963 C962 1.389 . S
C963 C964 1.387 . S
C964 H949 0.930 . S
C964 C959 1.390 . S
C964 C963 1.387 . S
H965 C977 0.930 . S
H966 C979 0.930 . S
H967 C980 0.930 . S
H968 C984 0.959 . S
H969 C984 0.959 . S
H970 C984 0.961 . S
H971 C985 0.960 . S
H972 C985 0.961 . S
H973 C985 0.959 . S
H974 C988 0.929 . S
H975 C989 0.931 . S
H976 C991 0.930 . S
C977 H965 0.930 . S
C977 C978 1.399 . S
C977 C982 1.399 . S
C978 C977 1.399 . S
C978 C979 1.376 . S
C979 H966 0.930 . S
C979 C978 1.376 . S
C979 C980 1.388 . S
C980 H967 0.930 . S
C980 C979 1.388 . S
C980 C981 1.390 . S
C981 C980 1.390 . S
C981 C982 1.394 . S
C981 C987 1.465 . S
C982 C977 1.399 . S
C982 C981 1.394 . S
C982 C983 1.516 . S
C983 C982 1.516 . S
C983 C984 1.502 . S
C983 C985 1.561 . S
C983 C986 1.526 . S
C984 H968 0.959 . S
C984 H969 0.959 . S
C984 H970 0.961 . S
C984 C983 1.502 . S
C985 H971 0.960 . S
C985 H972 0.961 . S
C985 H973 0.959 . S
C985 C983 1.561 . S
C986 C983 1.526 . S
C986 C987 1.396 . S
C986 C991 1.390 . S
C987 C981 1.465 . S
C987 C986 1.396 . S
C987 C988 1.399 . S
C988 H974 0.929 . S
C988 C987 1.399 . S
C988 C989 1.385 . S
C989 H975 0.931 . S
C989 C988 1.385 . S
C989 C990 1.389 . S
C990 C989 1.389 . S
C990 C991 1.387 . S
C991 H976 0.930 . S
C991 C986 1.390 . S
C991 C990 1.387 . S
H992 C1004 0.930 . S
H993 C1006 0.930 . S
H994 C1007 0.930 . S
H995 C1011 0.959 . S
H996 C1011 0.959 . S
H997 C1011 0.961 . S
H998 C1012 0.960 . S
H999 C1012 0.961 . S
H1000 C1012 0.959 . S
H1001 C1015 0.929 . S
H1002 C1016 0.931 . S
H1003 C1018 0.930 . S
C1004 H992 0.930 . S
C1004 C1005 1.399 . S
C1004 C1009 1.399 . S
C1005 C1004 1.399 . S
C1005 C1006 1.376 . S
C1006 H993 0.930 . S
C1006 C1005 1.376 . S
C1006 C1007 1.388 . S
C1007 H994 0.930 . S
C1007 C1006 1.388 . S
C1007 C1008 1.390 . S
C1008 C1007 1.390 . S
C1008 C1009 1.394 . S
C1008 C1014 1.465 . S
C1009 C1004 1.399 . S
C1009 C1008 1.394 . S
C1009 C1010 1.516 . S
C1010 C1009 1.516 . S
C1010 C1011 1.502 . S
C1010 C1012 1.561 . S
C1010 C1013 1.526 . S
C1011 H995 0.959 . S
C1011 H996 0.959 . S
C1011 H997 0.961 . S
C1011 C1010 1.502 . S
C1012 H998 0.960 . S
C1012 H999 0.961 . S
C1012 H1000 0.959 . S
C1012 C1010 1.561 . S
C1013 C1010 1.526 . S
C1013 C1014 1.396 . S
C1013 C1018 1.390 . S
C1014 C1008 1.465 . S
C1014 C1013 1.396 . S
C1014 C1015 1.399 . S
C1015 H1001 0.929 . S
C1015 C1014 1.399 . S
C1015 C1016 1.385 . S
C1016 H1002 0.931 . S
C1016 C1015 1.385 . S
C1016 C1017 1.389 . S
C1017 C1016 1.389 . S
C1017 C1018 1.387 . S
C1018 H1003 0.930 . S
C1018 C1013 1.390 . S
C1018 C1017 1.387 . S
H1019 C1031 0.930 . S
H1020 C1033 0.930 . S
H1021 C1034 0.930 . S
H1022 C1038 0.959 . S
H1023 C1038 0.959 . S
H1024 C1038 0.961 . S
H1025 C1039 0.960 . S
H1026 C1039 0.961 . S
H1027 C1039 0.959 . S
H1028 C1042 0.929 . S
H1029 C1043 0.931 . S
H1030 C1045 0.930 . S
C1031 H1019 0.930 . S
C1031 C1032 1.399 . S
C1031 C1036 1.399 . S
C1032 C1031 1.399 . S
C1032 C1033 1.376 . S
C1033 H1020 0.930 . S
C1033 C1032 1.376 . S
C1033 C1034 1.388 . S
C1034 H1021 0.930 . S
C1034 C1033 1.388 . S
C1034 C1035 1.390 . S
C1035 C1034 1.390 . S
C1035 C1036 1.394 . S
C1035 C1041 1.465 . S
C1036 C1031 1.399 . S
C1036 C1035 1.394 . S
C1036 C1037 1.516 . S
C1037 C1036 1.516 . S
C1037 C1038 1.502 . S
C1037 C1039 1.561 . S
C1037 C1040 1.526 . S
C1038 H1022 0.959 . S
C1038 H1023 0.959 . S
C1038 H1024 0.961 . S
C1038 C1037 1.502 . S
C1039 H1025 0.960 . S
C1039 H1026 0.961 . S
C1039 H1027 0.959 . S
C1039 C1037 1.561 . S
C1040 C1037 1.526 . S
C1040 C1041 1.396 . S
C1040 C1045 1.390 . S
C1041 C1035 1.465 . S
C1041 C1040 1.396 . S
C1041 C1042 1.399 . S
C1042 H1028 0.929 . S
C1042 C1041 1.399 . S
C1042 C1043 1.385 . S
C1043 H1029 0.931 . S
C1043 C1042 1.385 . S
C1043 C1044 1.389 . S
C1044 C1043 1.389 . S
C1044 C1045 1.387 . S
C1045 H1030 0.930 . S
C1045 C1040 1.390 . S
C1045 C1044 1.387 . S
H1046 C1058 0.930 . S
H1047 C1060 0.930 . S
H1048 C1061 0.930 . S
H1049 C1065 0.959 . S
H1050 C1065 0.959 . S
H1051 C1065 0.961 . S
H1052 C1066 0.960 . S
H1053 C1066 0.961 . S
H1054 C1066 0.959 . S
H1055 C1069 0.929 . S
H1056 C1070 0.931 . S
H1057 C1072 0.930 . S
C1058 H1046 0.930 . S
C1058 C1059 1.399 . S
C1058 C1063 1.399 . S
C1059 C1058 1.399 . S
C1059 C1060 1.376 . S
C1060 H1047 0.930 . S
C1060 C1059 1.376 . S
C1060 C1061 1.388 . S
C1061 H1048 0.930 . S
C1061 C1060 1.388 . S
C1061 C1062 1.390 . S
C1062 C1061 1.390 . S
C1062 C1063 1.394 . S
C1062 C1068 1.465 . S
C1063 C1058 1.399 . S
C1063 C1062 1.394 . S
C1063 C1064 1.516 . S
C1064 C1063 1.516 . S
C1064 C1065 1.502 . S
C1064 C1066 1.561 . S
C1064 C1067 1.526 . S
C1065 H1049 0.959 . S
C1065 H1050 0.959 . S
C1065 H1051 0.961 . S
C1065 C1064 1.502 . S
C1066 H1052 0.960 . S
C1066 H1053 0.961 . S
C1066 H1054 0.959 . S
C1066 C1064 1.561 . S
C1067 C1064 1.526 . S
C1067 C1068 1.396 . S
C1067 C1072 1.390 . S
C1068 C1062 1.465 . S
C1068 C1067 1.396 . S
C1068 C1069 1.399 . S
C1069 H1055 0.929 . S
C1069 C1068 1.399 . S
C1069 C1070 1.385 . S
C1070 H1056 0.931 . S
C1070 C1069 1.385 . S
C1070 C1071 1.389 . S
C1071 C1070 1.389 . S
C1071 C1072 1.387 . S
C1072 H1057 0.930 . S
C1072 C1067 1.390 . S
C1072 C1071 1.387 . S
H1073 C1085 0.930 . S
H1074 C1087 0.930 . S
H1075 C1088 0.930 . S
H1076 C1092 0.959 . S
H1077 C1092 0.959 . S
H1078 C1092 0.961 . S
H1079 C1093 0.960 . S
H1080 C1093 0.961 . S
H1081 C1093 0.959 . S
H1082 C1096 0.929 . S
H1083 C1097 0.931 . S
H1084 C1099 0.930 . S
C1085 H1073 0.930 . S
C1085 C1086 1.399 . S
C1085 C1090 1.399 . S
C1086 C1085 1.399 . S
C1086 C1087 1.376 . S
C1087 H1074 0.930 . S
C1087 C1086 1.376 . S
C1087 C1088 1.388 . S
C1088 H1075 0.930 . S
C1088 C1087 1.388 . S
C1088 C1089 1.390 . S
C1089 C1088 1.390 . S
C1089 C1090 1.394 . S
C1089 C1095 1.465 . S
C1090 C1085 1.399 . S
C1090 C1089 1.394 . S
C1090 C1091 1.516 . S
C1091 C1090 1.516 . S
C1091 C1092 1.502 . S
C1091 C1093 1.561 . S
C1091 C1094 1.526 . S
C1092 H1076 0.959 . S
C1092 H1077 0.959 . S
C1092 H1078 0.961 . S
C1092 C1091 1.502 . S
C1093 H1079 0.960 . S
C1093 H1080 0.961 . S
C1093 H1081 0.959 . S
C1093 C1091 1.561 . S
C1094 C1091 1.526 . S
C1094 C1095 1.396 . S
C1094 C1099 1.390 . S
C1095 C1089 1.465 . S
C1095 C1094 1.396 . S
C1095 C1096 1.399 . S
C1096 H1082 0.929 . S
C1096 C1095 1.399 . S
C1096 C1097 1.385 . S
C1097 H1083 0.931 . S
C1097 C1096 1.385 . S
C1097 C1098 1.389 . S
C1098 C1097 1.389 . S
C1098 C1099 1.387 . S
C1099 H1084 0.930 . S
C1099 C1094 1.390 . S
C1099 C1098 1.387 . S
H1100 C1112 0.930 . S
H1101 C1114 0.930 . S
H1102 C1115 0.930 . S
H1103 C1119 0.959 . S
H1104 C1119 0.959 . S
H1105 C1119 0.961 . S
H1106 C1120 0.960 . S
H1107 C1120 0.961 . S
H1108 C1120 0.959 . S
H1109 C1123 0.929 . S
H1110 C1124 0.931 . S
H1111 C1126 0.930 . S
C1112 H1100 0.930 . S
C1112 C1113 1.399 . S
C1112 C1117 1.399 . S
C1113 C1112 1.399 . S
C1113 C1114 1.376 . S
C1114 H1101 0.930 . S
C1114 C1113 1.376 . S
C1114 C1115 1.388 . S
C1115 H1102 0.930 . S
C1115 C1114 1.388 . S
C1115 C1116 1.390 . S
C1116 C1115 1.390 . S
C1116 C1117 1.394 . S
C1116 C1122 1.465 . S
C1117 C1112 1.399 . S
C1117 C1116 1.394 . S
C1117 C1118 1.516 . S
C1118 C1117 1.516 . S
C1118 C1119 1.502 . S
C1118 C1120 1.561 . S
C1118 C1121 1.526 . S
C1119 H1103 0.959 . S
C1119 H1104 0.959 . S
C1119 H1105 0.961 . S
C1119 C1118 1.502 . S
C1120 H1106 0.960 . S
C1120 H1107 0.961 . S
C1120 H1108 0.959 . S
C1120 C1118 1.561 . S
C1121 C1118 1.526 . S
C1121 C1122 1.396 . S
C1121 C1126 1.390 . S
C1122 C1116 1.465 . S
C1122 C1121 1.396 . S
C1122 C1123 1.399 . S
C1123 H1109 0.929 . S
C1123 C1122 1.399 . S
C1123 C1124 1.385 . S
C1124 H1110 0.931 . S
C1124 C1123 1.385 . S
C1124 C1125 1.389 . S
C1125 C1124 1.389 . S
C1125 C1126 1.387 . S
C1126 H1111 0.930 . S
C1126 C1121 1.390 . S
C1126 C1125 1.387 . S
H1127 C1139 0.930 . S
H1128 C1141 0.930 . S
H1129 C1142 0.930 . S
H1130 C1146 0.959 . S
H1131 C1146 0.959 . S
H1132 C1146 0.961 . S
H1133 C1147 0.960 . S
H1134 C1147 0.961 . S
H1135 C1147 0.959 . S
H1136 C1150 0.929 . S
H1137 C1151 0.931 . S
H1138 C1153 0.930 . S
C1139 H1127 0.930 . S
C1139 C1140 1.399 . S
C1139 C1144 1.399 . S
C1140 C1139 1.399 . S
C1140 C1141 1.376 . S
C1141 H1128 0.930 . S
C1141 C1140 1.376 . S
C1141 C1142 1.388 . S
C1142 H1129 0.930 . S
C1142 C1141 1.388 . S
C1142 C1143 1.390 . S
C1143 C1142 1.390 . S
C1143 C1144 1.394 . S
C1143 C1149 1.465 . S
C1144 C1139 1.399 . S
C1144 C1143 1.394 . S
C1144 C1145 1.516 . S
C1145 C1144 1.516 . S
C1145 C1146 1.502 . S
C1145 C1147 1.561 . S
C1145 C1148 1.526 . S
C1146 H1130 0.959 . S
C1146 H1131 0.959 . S
C1146 H1132 0.961 . S
C1146 C1145 1.502 . S
C1147 H1133 0.960 . S
C1147 H1134 0.961 . S
C1147 H1135 0.959 . S
C1147 C1145 1.561 . S
C1148 C1145 1.526 . S
C1148 C1149 1.396 . S
C1148 C1153 1.390 . S
C1149 C1143 1.465 . S
C1149 C1148 1.396 . S
C1149 C1150 1.399 . S
C1150 H1136 0.929 . S
C1150 C1149 1.399 . S
C1150 C1151 1.385 . S
C1151 H1137 0.931 . S
C1151 C1150 1.385 . S
C1151 C1152 1.389 . S
C1152 C1151 1.389 . S
C1152 C1153 1.387 . S
C1153 H1138 0.930 . S
C1153 C1148 1.390 . S
C1153 C1152 1.387 . S
H1154 C1166 0.930 . S
H1155 C1168 0.930 . S
H1156 C1169 0.930 . S
H1157 C1173 0.959 . S
H1158 C1173 0.959 . S
H1159 C1173 0.961 . S
H1160 C1174 0.960 . S
H1161 C1174 0.961 . S
H1162 C1174 0.959 . S
H1163 C1177 0.929 . S
H1164 C1178 0.931 . S
H1165 C1180 0.930 . S
C1166 H1154 0.930 . S
C1166 C1167 1.399 . S
C1166 C1171 1.399 . S
C1167 C1166 1.399 . S
C1167 C1168 1.376 . S
C1168 H1155 0.930 . S
C1168 C1167 1.376 . S
C1168 C1169 1.388 . S
C1169 H1156 0.930 . S
C1169 C1168 1.388 . S
C1169 C1170 1.390 . S
C1170 C1169 1.390 . S
C1170 C1171 1.394 . S
C1170 C1176 1.465 . S
C1171 C1166 1.399 . S
C1171 C1170 1.394 . S
C1171 C1172 1.516 . S
C1172 C1171 1.516 . S
C1172 C1173 1.502 . S
C1172 C1174 1.561 . S
C1172 C1175 1.526 . S
C1173 H1157 0.959 . S
C1173 H1158 0.959 . S
C1173 H1159 0.961 . S
C1173 C1172 1.502 . S
C1174 H1160 0.960 . S
C1174 H1161 0.961 . S
C1174 H1162 0.959 . S
C1174 C1172 1.561 . S
C1175 C1172 1.526 . S
C1175 C1176 1.396 . S
C1175 C1180 1.390 . S
C1176 C1170 1.465 . S
C1176 C1175 1.396 . S
C1176 C1177 1.399 . S
C1177 H1163 0.929 . S
C1177 C1176 1.399 . S
C1177 C1178 1.385 . S
C1178 H1164 0.931 . S
C1178 C1177 1.385 . S
C1178 C1179 1.389 . S
C1179 C1178 1.389 . S
C1179 C1180 1.387 . S
C1180 H1165 0.930 . S
C1180 C1175 1.390 . S
C1180 C1179 1.387 . S
H1181 C1193 0.930 . S
H1182 C1195 0.930 . S
H1183 C1196 0.930 . S
H1184 C1200 0.959 . S
H1185 C1200 0.959 . S
H1186 C1200 0.961 . S
H1187 C1201 0.960 . S
H1188 C1201 0.961 . S
H1189 C1201 0.959 . S
H1190 C1204 0.929 . S
H1191 C1205 0.931 . S
H1192 C1207 0.930 . S
C1193 H1181 0.930 . S
C1193 C1194 1.399 . S
C1193 C1198 1.399 . S
C1194 C1193 1.399 . S
C1194 C1195 1.376 . S
C1195 H1182 0.930 . S
C1195 C1194 1.376 . S
C1195 C1196 1.388 . S
C1196 H1183 0.930 . S
C1196 C1195 1.388 . S
C1196 C1197 1.390 . S
C1197 C1196 1.390 . S
C1197 C1198 1.394 . S
C1197 C1203 1.465 . S
C1198 C1193 1.399 . S
C1198 C1197 1.394 . S
C1198 C1199 1.516 . S
C1199 C1198 1.516 . S
C1199 C1200 1.502 . S
C1199 C1201 1.561 . S
C1199 C1202 1.526 . S
C1200 H1184 0.959 . S
C1200 H1185 0.959 . S
C1200 H1186 0.961 . S
C1200 C1199 1.502 . S
C1201 H1187 0.960 . S
C1201 H1188 0.961 . S
C1201 H1189 0.959 . S
C1201 C1199 1.561 . S
C1202 C1199 1.526 . S
C1202 C1203 1.396 . S
C1202 C1207 1.390 . S
C1203 C1197 1.465 . S
C1203 C1202 1.396 . S
C1203 C1204 1.399 . S
C1204 H1190 0.929 . S
C1204 C1203 1.399 . S
C1204 C1205 1.385 . S
C1205 H1191 0.931 . S
C1205 C1204 1.385 . S
C1205 C1206 1.389 . S
C1206 C1205 1.389 . S
C1206 C1207 1.387 . S
C1207 H1192 0.930 . S
C1207 C1202 1.390 . S
C1207 C1206 1.387 . S
C573 C1 1.412 . S
C585 C499 1.508 . S
C600 C80 1.250 . S
C612 C502 1.219 . S
C639 C538 1.759 . S
C627 C140 1.751 . S
C654 C211 1.632 . S
C666 C558 1.622 . S
C693 C512 1.656 . S
C681 C31 1.667 . S
C720 C489 1.526 . S
C708 C61 1.526 . S
C747 C542 1.506 . S
C735 C151 1.658 . S
C774 C522 1.437 . S
C762 C200 1.496 . S
C789 C20 1.291 . S
C801 C552 1.329 . S
C828 C518 1.627 . S
C816 C121 1.606 . S
C843 C181 1.625 . S
C855 C484 1.624 . S
C870 C91 1.334 . S
C882 C532 1.307 . S
C909 C498 1.465 . S
C897 C260 1.491 . S
C924 C320 1.241 . S
C936 C504 1.229 . S
C951 C361 1.757 . S
C963 C539 1.726 . S
C978 C451 1.671 . S
C990 C559 1.657 . S
C1005 C271 1.683 . S
C1017 C509 1.671 . S
C1044 C492 1.494 . S
C1032 C301 1.516 . S
C1071 C544 1.509 . S
C1059 C380 1.610 . S
C1098 C524 1.344 . S
C1086 C440 1.483 . S
C1113 C241 1.328 . S
C1125 C549 1.284 . S
C1152 C519 1.591 . S
C1140 C391 1.592 . S
C1179 C482 1.595 . S
C1167 C421 1.631 . S
C1194 C331 1.335 . S
C1206 C529 1.328 . S
