# Generated by pormake.
# Topology wbl, (4,4)-cn, num edge types: 1
# Building blocks:
#     Node 0, Type 0, BuildingBlock: NAWXER_clean_linker_0, # of connection points: 4
#     Node 1, Type 0, BuildingBlock: NAWXER_clean_linker_0, # of connection points: 4
#     Node 2, Type 0, BuildingBlock: NAWXER_clean_linker_0, # of connection points: 4
#     Node 3, Type 0, BuildingBlock: NAWXER_clean_linker_0, # of connection points: 4
#     Node 4, Type 0, BuildingBlock: NAWXER_clean_linker_0, # of connection points: 4
#     Node 5, Type 0, BuildingBlock: NAWXER_clean_linker_0, # of connection points: 4
#     Node 6, Type 0, BuildingBlock: NAWXER_clean_linker_0, # of connection points: 4
#     Node 7, Type 0, BuildingBlock: NAWXER_clean_linker_0, # of connection points: 4
#     Node 8, Type 1, BuildingBlock: GALJAG_clean_sbu_0, # of connection points: 4
#     Node 9, Type 1, BuildingBlock: GALJAG_clean_sbu_0, # of connection points: 4
#     Node 10, Type 1, BuildingBlock: GALJAG_clean_sbu_0, # of connection points: 4
#     Node 11, Type 1, BuildingBlock: GALJAG_clean_sbu_0, # of connection points: 4
#     Node 12, Type 1, BuildingBlock: GALJAG_clean_sbu_0, # of connection points: 4
#     Node 13, Type 1, BuildingBlock: GALJAG_clean_sbu_0, # of connection points: 4
#     Node 14, Type 1, BuildingBlock: GALJAG_clean_sbu_0, # of connection points: 4
#     Node 15, Type 1, BuildingBlock: GALJAG_clean_sbu_0, # of connection points: 4
#     Edge 16, Type (0, 1), BuildingBlock: EZIPEK_clean_linker_0, # of connection points: 2
#     Edge 17, Type (0, 1), BuildingBlock: EZIPEK_clean_linker_0, # of connection points: 2
#     Edge 18, Type (0, 1), BuildingBlock: EZIPEK_clean_linker_0, # of connection points: 2
#     Edge 19, Type (0, 1), BuildingBlock: EZIPEK_clean_linker_0, # of connection points: 2
#     Edge 20, Type (0, 1), BuildingBlock: EZIPEK_clean_linker_0, # of connection points: 2
#     Edge 21, Type (0, 1), BuildingBlock: EZIPEK_clean_linker_0, # of connection points: 2
#     Edge 22, Type (0, 1), BuildingBlock: EZIPEK_clean_linker_0, # of connection points: 2
#     Edge 23, Type (0, 1), BuildingBlock: EZIPEK_clean_linker_0, # of connection points: 2
#     Edge 24, Type (0, 1), BuildingBlock: EZIPEK_clean_linker_0, # of connection points: 2
#     Edge 25, Type (0, 1), BuildingBlock: EZIPEK_clean_linker_0, # of connection points: 2
#     Edge 26, Type (0, 1), BuildingBlock: EZIPEK_clean_linker_0, # of connection points: 2
#     Edge 27, Type (0, 1), BuildingBlock: EZIPEK_clean_linker_0, # of connection points: 2
#     Edge 28, Type (0, 1), BuildingBlock: EZIPEK_clean_linker_0, # of connection points: 2
#     Edge 29, Type (0, 1), BuildingBlock: EZIPEK_clean_linker_0, # of connection points: 2
#     Edge 30, Type (0, 1), BuildingBlock: EZIPEK_clean_linker_0, # of connection points: 2
#     Edge 31, Type (0, 1), BuildingBlock: EZIPEK_clean_linker_0, # of connection points: 2
#     Edge 32, Type (0, 1), BuildingBlock: EZIPEK_clean_linker_0, # of connection points: 2
#     Edge 33, Type (0, 1), BuildingBlock: EZIPEK_clean_linker_0, # of connection points: 2
#     Edge 34, Type (0, 1), BuildingBlock: EZIPEK_clean_linker_0, # of connection points: 2
#     Edge 35, Type (0, 1), BuildingBlock: EZIPEK_clean_linker_0, # of connection points: 2
#     Edge 36, Type (0, 1), BuildingBlock: EZIPEK_clean_linker_0, # of connection points: 2
#     Edge 37, Type (0, 1), BuildingBlock: EZIPEK_clean_linker_0, # of connection points: 2
#     Edge 38, Type (0, 1), BuildingBlock: EZIPEK_clean_linker_0, # of connection points: 2
#     Edge 39, Type (0, 1), BuildingBlock: EZIPEK_clean_linker_0, # of connection points: 2
#     Edge 40, Type (0, 1), BuildingBlock: EZIPEK_clean_linker_0, # of connection points: 2
#     Edge 41, Type (0, 1), BuildingBlock: EZIPEK_clean_linker_0, # of connection points: 2
#     Edge 42, Type (0, 1), BuildingBlock: EZIPEK_clean_linker_0, # of connection points: 2
#     Edge 43, Type (0, 1), BuildingBlock: EZIPEK_clean_linker_0, # of connection points: 2
#     Edge 44, Type (0, 1), BuildingBlock: EZIPEK_clean_linker_0, # of connection points: 2
#     Edge 45, Type (0, 1), BuildingBlock: EZIPEK_clean_linker_0, # of connection points: 2
#     Edge 46, Type (0, 1), BuildingBlock: EZIPEK_clean_linker_0, # of connection points: 2
#     Edge 47, Type (0, 1), BuildingBlock: EZIPEK_clean_linker_0, # of connection points: 2
# Relax obj value: 0.140
# Max RMSD: 0.149
# Mean RMSD: 0.132
data_MOF--net-wbl--node1-GALJAG_clean_sbu_0--node2-NAWXER_clean_linker_0--edge1-EZIPEK_clean_linker_0
_symmetry_space_group_name_H-M    P1
_symmetry_Int_Tables_number       1
_symmetry_cell_setting            triclinic
loop_
_symmetry_equiv_pos_as_xyz
'x, y, z'
_cell_length_a     33.954369
_cell_length_b     34.062573
_cell_length_c     66.098451
_cell_angle_alpha  90.014539
_cell_angle_beta   90.08695
_cell_angle_gamma 90.047691
loop_
_atom_site_label
_atom_site_type_symbol
_atom_site_fract_x
_atom_site_fract_y
_atom_site_fract_z
_atom_type_partial_charge
C0 C 0.07433 0.89328 0.38263 0.0
C1 C 0.09655 0.90986 0.39837 0.0
C2 C 0.05568 0.91751 0.36847 0.0
C3 C 0.05933 0.95858 0.36982 0.0
C4 C 0.10125 0.95069 0.39937 0.0
C5 C 0.08263 0.97487 0.38526 0.0
C6 C 0.03519 0.98482 0.35696 0.0
C7 C 0.11986 0.92784 0.31512 0.0
C8 C 0.10283 0.90206 0.30108 0.0
C9 C 0.09628 0.95314 0.32638 0.0
C10 C 0.05518 0.95278 0.32395 0.0
C11 C 0.06183 0.90183 0.29839 0.0
C12 C 0.03813 0.92735 0.30966 0.0
C13 C 0.03037 0.97986 0.33588 0.0
C14 C 0.92903 0.11856 0.31325 0.0
C15 C 0.89858 0.09986 0.30258 0.0
C16 C 0.95682 0.09628 0.32383 0.0
C17 C 0.95466 0.05508 0.32367 0.0
C18 C 0.89708 0.05873 0.30195 0.0
C19 C 0.92519 0.03647 0.31227 0.0
C20 C 0.98261 0.03122 0.33558 0.0
C21 C 0.90391 0.08408 0.38441 0.0
C22 C 0.92435 0.10784 0.39824 0.0
C23 C 0.92453 0.06281 0.36975 0.0
C24 C 0.96581 0.06508 0.36883 0.0
C25 C 0.96533 0.1118 0.39658 0.0
C26 C 0.98594 0.09027 0.3821 0.0
C27 C 0.98854 0.03701 0.35649 0.0
H28 H 0.07025 0.86178 0.38178 0.0
H29 H 0.03702 0.9042 0.35708 0.0
H30 H 0.11822 0.96387 0.41149 0.0
H31 H 0.08558 0.00642 0.38672 0.0
H32 H 0.1515 0.92846 0.31728 0.0
H33 H 0.11023 0.97323 0.33689 0.0
H34 H 0.04833 0.88205 0.28758 0.0
H35 H 0.00652 0.92689 0.30743 0.0
H36 H 0.9306 0.15031 0.31381 0.0
H37 H 0.97977 0.11119 0.33226 0.0
H38 H 0.87377 0.04393 0.29373 0.0
H39 H 0.92321 0.00473 0.31188 0.0
H40 H 0.87228 0.08058 0.38558 0.0
H41 H 0.90848 0.04292 0.35996 0.0
H42 H 0.98151 0.12996 0.40719 0.0
H43 H 0.01779 0.09212 0.38175 0.0
N44 N 0.01442 0.01349 0.36634 0.0
N45 N 0.00385 0.00291 0.32599 0.0
C46 C 0.89302 0.42637 0.63263 0.0
C47 C 0.90996 0.40684 0.64917 0.0
C48 C 0.91701 0.4455 0.61853 0.0
C49 C 0.95828 0.44453 0.62057 0.0
C50 C 0.95105 0.4053 0.65104 0.0
C51 C 0.97498 0.42403 0.63689 0.0
C52 C 0.9842 0.46824 0.60731 0.0
C53 C 0.92686 0.38084 0.5665 0.0
C54 C 0.89998 0.39751 0.55287 0.0
C55 C 0.95298 0.40462 0.57726 0.0
C56 C 0.9525 0.44552 0.57461 0.0
C57 C 0.89947 0.43836 0.55011 0.0
C58 C 0.92593 0.4622 0.56077 0.0
C59 C 0.98004 0.47069 0.58611 0.0
C60 C 0.11759 0.57771 0.56428 0.0
C61 C 0.09822 0.60135 0.55003 0.0
C62 C 0.09667 0.54909 0.57497 0.0
C63 C 0.05581 0.54484 0.57211 0.0
C64 C 0.0582 0.5949 0.54593 0.0
C65 C 0.03713 0.56693 0.55693 0.0
C66 C 0.0319 0.5182 0.58491 0.0
C67 C 0.08674 0.60277 0.63068 0.0
C68 C 0.10631 0.58433 0.64683 0.0
C69 C 0.06503 0.58045 0.61679 0.0
C70 C 0.06369 0.5393 0.61852 0.0
C71 C 0.106 0.54327 0.64817 0.0
C72 C 0.08492 0.52099 0.63414 0.0
C73 C 0.03631 0.51529 0.60617 0.0
H74 H 0.86131 0.4279 0.63104 0.0
H75 H 0.90321 0.46217 0.60652 0.0
H76 H 0.96455 0.39031 0.66373 0.0
H77 H 0.00665 0.42316 0.63891 0.0
H78 H 0.92769 0.34934 0.56875 0.0
H79 H 0.9737 0.39106 0.58759 0.0
H80 H 0.87885 0.45164 0.53964 0.0
H81 H 0.92526 0.49368 0.55846 0.0
H82 H 0.14856 0.5822 0.5675 0.0
H83 H 0.11223 0.53121 0.5859 0.0
H84 H 0.04288 0.61293 0.53496 0.0
H85 H 0.00583 0.56376 0.55415 0.0
H86 H 0.08651 0.63449 0.6295 0.0
H87 H 0.048 0.59547 0.6053 0.0
H88 H 0.12082 0.52856 0.66055 0.0
H89 H 0.08405 0.48937 0.63591 0.0
N90 N 0.01232 0.49038 0.61638 0.0
N91 N 0.00377 0.49581 0.57575 0.0
C92 C 0.57277 0.38788 0.88219 0.0
C93 C 0.59238 0.40458 0.89879 0.0
C94 C 0.55365 0.41194 0.86812 0.0
C95 C 0.55435 0.45304 0.87036 0.0
C96 C 0.59402 0.44551 0.90075 0.0
C97 C 0.57503 0.46954 0.8867 0.0
C98 C 0.52983 0.47873 0.85736 0.0
C99 C 0.62054 0.43006 0.81601 0.0
C100 C 0.60604 0.40308 0.80181 0.0
C101 C 0.59467 0.45319 0.82717 0.0
C102 C 0.55383 0.44961 0.82437 0.0
C103 C 0.56525 0.39962 0.7988 0.0
C104 C 0.53927 0.42313 0.80988 0.0
C105 C 0.52667 0.47453 0.83614 0.0
C106 C 0.42398 0.61082 0.81265 0.0
C107 C 0.3935 0.59213 0.80199 0.0
C108 C 0.45149 0.58862 0.82341 0.0
C109 C 0.44914 0.54745 0.82342 0.0
C110 C 0.3918 0.55096 0.80155 0.0
C111 C 0.41971 0.52874 0.81205 0.0
C112 C 0.47696 0.52388 0.8355 0.0
C113 C 0.39519 0.57136 0.88498 0.0
C114 C 0.41421 0.59913 0.8973 0.0
C115 C 0.41657 0.55032 0.87052 0.0
C116 C 0.45724 0.55653 0.86846 0.0
C117 C 0.45433 0.6071 0.89426 0.0
C118 C 0.47582 0.58552 0.88013 0.0
C119 C 0.4814 0.5292 0.8565 0.0
H120 H 0.57112 0.35628 0.88055 0.0
H121 H 0.53697 0.39832 0.85604 0.0
H122 H 0.60903 0.4588 0.91351 0.0
H123 H 0.57572 0.50106 0.88886 0.0
H124 H 0.65195 0.4331 0.81846 0.0
H125 H 0.60659 0.47409 0.83792 0.0
H126 H 0.55367 0.37882 0.78791 0.0
H127 H 0.50786 0.42023 0.8074 0.0
H128 H 0.42578 0.64257 0.81305 0.0
H129 H 0.47442 0.60354 0.83185 0.0
H130 H 0.36848 0.5361 0.79336 0.0
H131 H 0.41762 0.49701 0.81181 0.0
H132 H 0.36428 0.56476 0.88718 0.0
H133 H 0.40189 0.52767 0.86181 0.0
H134 H 0.46944 0.62842 0.90364 0.0
H135 H 0.50724 0.59045 0.87881 0.0
N136 N 0.50739 0.50628 0.86664 0.0
N137 N 0.49991 0.49686 0.826 0.0
C138 C 0.4273 0.87651 0.06948 0.0
C139 C 0.40784 0.88986 0.05207 0.0
C140 C 0.45055 0.90205 0.08085 0.0
C141 C 0.45394 0.94177 0.07535 0.0
C142 C 0.41156 0.92932 0.04629 0.0
C143 C 0.43445 0.95512 0.05787 0.0
C144 C 0.47985 0.96866 0.08695 0.0
C145 C 0.3868 0.93194 0.13224 0.0
C146 C 0.40167 0.9132 0.14953 0.0
C147 C 0.4126 0.94945 0.11842 0.0
C148 C 0.45356 0.94786 0.12161 0.0
C149 C 0.44243 0.9113 0.15264 0.0
C150 C 0.46816 0.92856 0.13883 0.0
C151 C 0.4814 0.96918 0.10832 0.0
C152 C 0.5897 0.10179 0.12949 0.0
C153 C 0.60688 0.08437 0.14663 0.0
C154 C 0.5671 0.07916 0.11613 0.0
C155 C 0.56265 0.03855 0.11933 0.0
C156 C 0.60322 0.04379 0.14955 0.0
C157 C 0.5814 0.02111 0.13601 0.0
C158 C 0.53498 0.01455 0.10714 0.0
C159 C 0.62273 0.06753 0.0653 0.0
C160 C 0.60511 0.09396 0.05177 0.0
C161 C 0.59955 0.04035 0.07576 0.0
C162 C 0.55846 0.03982 0.07303 0.0
C163 C 0.56453 0.09165 0.04802 0.0
C164 C 0.54137 0.06462 0.05852 0.0
C165 C 0.53271 0.01506 0.08578 0.0
H166 H 0.4253 0.84596 0.07395 0.0
H167 H 0.46654 0.89045 0.09371 0.0
H168 H 0.39719 0.93993 0.03271 0.0
H169 H 0.43712 0.98544 0.05313 0.0
H170 H 0.35532 0.93383 0.12975 0.0
H171 H 0.40051 0.96513 0.10558 0.0
H172 H 0.45428 0.89698 0.16596 0.0
H173 H 0.49955 0.92723 0.14172 0.0
H174 H 0.5921 0.13315 0.12707 0.0
H175 H 0.55192 0.09371 0.10383 0.0
H176 H 0.61621 0.02987 0.1627 0.0
H177 H 0.57816 0.98996 0.13893 0.0
H178 H 0.65406 0.06898 0.06829 0.0
H179 H 0.61349 0.02075 0.08649 0.0
H180 H 0.55058 0.11192 0.03762 0.0
H181 H 0.50983 0.06441 0.05603 0.0
N182 N 0.50522 0.9921 0.07653 0.0
N183 N 0.50916 0.9917 0.11745 0.0
C184 C 0.06049 0.61469 0.87293 0.0
C185 C 0.08188 0.5996 0.85654 0.0
C186 C 0.0422 0.58914 0.88658 0.0
C187 C 0.0456 0.54823 0.88414 0.0
C188 C 0.08587 0.55889 0.8543 0.0
C189 C 0.06775 0.53343 0.86793 0.0
C190 C 0.02325 0.52055 0.89703 0.0
C191 C 0.11067 0.57695 0.93806 0.0
C192 C 0.09394 0.60277 0.95215 0.0
C193 C 0.08694 0.55117 0.9271 0.0
C194 C 0.04599 0.55086 0.92999 0.0
C195 C 0.05301 0.60251 0.95516 0.0
C196 C 0.0292 0.57632 0.9443 0.0
C197 C 0.02111 0.5234 0.9183 0.0
C198 C 0.93214 0.3759 0.94045 0.0
C199 C 0.90201 0.39158 0.95251 0.0
C200 C 0.95752 0.40093 0.92993 0.0
C201 C 0.95307 0.44186 0.93142 0.0
C202 C 0.89887 0.4324 0.95478 0.0
C203 C 0.92444 0.45738 0.94442 0.0
C204 C 0.97706 0.46874 0.91899 0.0
C205 C 0.89649 0.40588 0.8744 0.0
C206 C 0.91546 0.39019 0.85735 0.0
C207 C 0.91737 0.42943 0.88807 0.0
C208 C 0.95789 0.43637 0.8853 0.0
C209 C 0.95602 0.39614 0.85489 0.0
C210 C 0.97702 0.41888 0.86875 0.0
C211 C 0.97979 0.46546 0.89771 0.0
H212 H 0.05707 0.6461 0.87478 0.0
H213 H 0.02437 0.60136 0.8986 0.0
H214 H 0.10231 0.54685 0.84171 0.0
H215 H 0.07057 0.50205 0.86564 0.0
H216 H 0.14221 0.57674 0.93558 0.0
H217 H 0.10061 0.53127 0.91643 0.0
H218 H 0.03967 0.62235 0.96597 0.0
H219 H 0.99768 0.57632 0.94681 0.0
H220 H 0.93508 0.34443 0.93868 0.0
H221 H 0.97998 0.38841 0.92026 0.0
H222 H 0.87589 0.4449 0.96413 0.0
H223 H 0.9208 0.48885 0.9459 0.0
H224 H 0.86512 0.40173 0.87647 0.0
H225 H 0.90135 0.44359 0.90018 0.0
H226 H 0.97114 0.38431 0.84182 0.0
H227 H 0.00812 0.42394 0.86615 0.0
N228 N 0.00278 0.49156 0.88767 0.0
N229 N 0.99775 0.49766 0.92849 0.0
C230 C 0.39527 0.5741 0.11814 0.0
C231 C 0.41133 0.5963 0.1023 0.0
C232 C 0.42002 0.5568 0.13253 0.0
C233 C 0.4611 0.56164 0.13126 0.0
C234 C 0.45213 0.6022 0.10136 0.0
C235 C 0.47685 0.5848 0.11566 0.0
C236 C 0.48797 0.53863 0.1443 0.0
C237 C 0.43005 0.62379 0.18576 0.0
C238 C 0.40574 0.60699 0.20054 0.0
C239 C 0.4551 0.60027 0.1743 0.0
C240 C 0.45596 0.55943 0.17726 0.0
C241 C 0.40657 0.56626 0.20367 0.0
C242 C 0.43182 0.54264 0.19219 0.0
C243 C 0.48335 0.53469 0.16544 0.0
C244 C 0.62223 0.43111 0.18739 0.0
C245 C 0.60305 0.40372 0.19978 0.0
C246 C 0.60039 0.45909 0.17674 0.0
C247 C 0.55908 0.45975 0.17823 0.0
C248 C 0.56203 0.40544 0.20199 0.0
C249 C 0.54021 0.43342 0.19136 0.0
C250 C 0.53523 0.48738 0.16606 0.0
C251 C 0.58732 0.40717 0.11755 0.0
C252 C 0.6115 0.42709 0.10372 0.0
C253 C 0.56594 0.42817 0.13202 0.0
C254 C 0.5685 0.46932 0.13277 0.0
C255 C 0.61571 0.46796 0.10522 0.0
C256 C 0.59405 0.48894 0.11951 0.0
C257 C 0.54061 0.49242 0.14505 0.0
H258 H 0.36381 0.5691 0.11894 0.0
H259 H 0.40719 0.53822 0.14407 0.0
H260 H 0.4649 0.61915 0.08915 0.0
H261 H 0.50841 0.58859 0.11425 0.0
H262 H 0.42985 0.65523 0.18325 0.0
H263 H 0.47423 0.61411 0.16331 0.0
H264 H 0.38793 0.55292 0.21504 0.0
H265 H 0.43229 0.51126 0.19485 0.0
H266 H 0.65393 0.4302 0.18562 0.0
H267 H 0.61573 0.47985 0.16716 0.0
H268 H 0.54686 0.38446 0.21152 0.0
H269 H 0.50844 0.43366 0.19289 0.0
H270 H 0.58361 0.37564 0.1165 0.0
H271 H 0.54583 0.41252 0.14185 0.0
H272 H 0.63416 0.48375 0.09462 0.0
H273 H 0.59613 0.52069 0.11974 0.0
N274 N 0.5167 0.51769 0.13503 0.0
N275 N 0.50683 0.50882 0.17549 0.0
C276 C 0.42874 0.89204 0.37195 0.0
C277 C 0.40871 0.90668 0.35498 0.0
C278 C 0.44653 0.91792 0.38565 0.0
C279 C 0.44388 0.95878 0.38272 0.0
C280 C 0.40541 0.94732 0.35223 0.0
C281 C 0.42289 0.97314 0.36596 0.0
C282 C 0.46648 0.98666 0.39548 0.0
C283 C 0.37958 0.93138 0.43711 0.0
C284 C 0.39637 0.90721 0.45195 0.0
C285 C 0.40321 0.95644 0.42569 0.0
C286 C 0.44412 0.95749 0.42882 0.0
C287 C 0.4372 0.9083 0.45525 0.0
C288 C 0.46091 0.93363 0.44386 0.0
C289 C 0.46904 0.98428 0.41677 0.0
C290 C 0.56672 0.128 0.43719 0.0
C291 C 0.59599 0.11077 0.44926 0.0
C292 C 0.53926 0.10435 0.42713 0.0
C293 C 0.54089 0.06326 0.42903 0.0
C294 C 0.59639 0.06995 0.45196 0.0
C295 C 0.56882 0.04637 0.44204 0.0
C296 C 0.51493 0.03748 0.41693 0.0
C297 C 0.59717 0.09386 0.37105 0.0
C298 C 0.57821 0.11097 0.35434 0.0
C299 C 0.57555 0.07203 0.38511 0.0
C300 C 0.53449 0.06811 0.38299 0.0
C301 C 0.53718 0.1081 0.35256 0.0
C302 C 0.51553 0.08692 0.36677 0.0
C303 C 0.51161 0.04043 0.39567 0.0
H304 H 0.43176 0.86067 0.37416 0.0
H305 H 0.46359 0.90593 0.39804 0.0
H306 H 0.39009 0.95901 0.33917 0.0
H307 H 0.42072 0.00443 0.36324 0.0
H308 H 0.34808 0.93095 0.43444 0.0
H309 H 0.38948 0.97522 0.4145 0.0
H310 H 0.45055 0.88977 0.46667 0.0
H311 H 0.49237 0.93425 0.4466 0.0
H312 H 0.56607 0.15951 0.435 0.0
H313 H 0.51745 0.11801 0.41746 0.0
H314 H 0.61883 0.05629 0.46126 0.0
H315 H 0.57039 0.01479 0.44382 0.0
H316 H 0.62889 0.09561 0.37256 0.0
H317 H 0.59125 0.05676 0.39699 0.0
H318 H 0.52209 0.12103 0.33973 0.0
H319 H 0.48399 0.08406 0.36469 0.0
N320 N 0.48756 0.01487 0.38588 0.0
N321 N 0.49354 0.00946 0.42668 0.0
C322 C 0.11339 0.93457 0.62247 0.0
C323 C 0.10017 0.91171 0.60617 0.0
C324 C 0.08626 0.95098 0.63593 0.0
C325 C 0.04563 0.94482 0.63317 0.0
C326 C 0.05977 0.90455 0.60376 0.0
C327 C 0.03267 0.92122 0.61708 0.0
C328 C 0.0165 0.96663 0.64539 0.0
C329 C 0.06824 0.87931 0.68761 0.0
C330 C 0.0914 0.8952 0.70315 0.0
C331 C 0.04474 0.9036 0.67571 0.0
C332 C 0.04424 0.94432 0.67905 0.0
C333 C 0.09089 0.93584 0.70667 0.0
C334 C 0.06709 0.96024 0.69478 0.0
C335 C 0.01846 0.96972 0.66667 0.0
C336 C 0.87607 0.06895 0.68627 0.0
C337 C 0.89369 0.09722 0.69881 0.0
C338 C 0.89945 0.04217 0.6757 0.0
C339 C 0.94067 0.04331 0.67761 0.0
C340 C 0.93473 0.09755 0.70122 0.0
C341 C 0.95804 0.07059 0.6908 0.0
C342 C 0.966 0.0162 0.66606 0.0
C343 C 0.91884 0.09565 0.6155 0.0
C344 C 0.89277 0.07558 0.60261 0.0
C345 C 0.93995 0.0752 0.6303 0.0
C346 C 0.93554 0.03439 0.63219 0.0
C347 C 0.88668 0.03516 0.60536 0.0
C348 C 0.90839 0.01461 0.61984 0.0
C349 C 0.96286 0.01158 0.64491 0.0
H350 H 0.14449 0.94067 0.62436 0.0
H351 H 0.09693 0.9699 0.64792 0.0
H352 H 0.04918 0.8872 0.59113 0.0
H353 H 0.0015 0.91643 0.61455 0.0
H354 H 0.06825 0.84797 0.68476 0.0
H355 H 0.02657 0.89047 0.66404 0.0
H356 H 0.10872 0.94849 0.71861 0.0
H357 H 0.0668 0.99153 0.69772 0.0
H358 H 0.84439 0.06821 0.68438 0.0
H359 H 0.88538 0.02069 0.666 0.0
H360 H 0.94871 0.11915 0.7109 0.0
H361 H 0.98974 0.07171 0.69261 0.0
H362 H 0.92396 0.12682 0.61356 0.0
H363 H 0.96119 0.09083 0.63953 0.0
H364 H 0.86665 0.01923 0.59556 0.0
H365 H 0.90488 0.98308 0.62102 0.0
N366 N 0.9884 0.98725 0.63538 0.0
N367 N 0.99355 0.99488 0.67621 0.0
In368 In 0.29916 0.69354 1.00008 0.0
O369 O 0.2978 0.74786 0.02029 0.0
O370 O 0.33656 0.7481 0.99506 0.0
C371 C 0.22349 0.68005 0.9895 0.0
C372 C 0.32784 0.65859 0.0335 0.0
C373 C 0.33434 0.66579 0.96661 0.0
O374 O 0.23823 0.71404 0.98897 0.0
O375 O 0.24598 0.65399 0.99642 0.0
O376 O 0.32672 0.64451 0.98174 0.0
O377 O 0.32426 0.70135 0.9683 0.0
C378 C 0.32491 0.7653 0.01085 0.0
O379 O 0.3469 0.66047 0.01718 0.0
O380 O 0.29372 0.6732 0.03293 0.0
In381 In 0.30514 0.80558 0.25206 0.0
O382 O 0.29056 0.7431 0.24159 0.0
O383 O 0.35073 0.75861 0.24569 0.0
C384 C 0.23132 0.82383 0.26342 0.0
C385 C 0.32486 0.84205 0.21734 0.0
C386 C 0.34058 0.82713 0.2869 0.0
O387 O 0.24313 0.78874 0.26259 0.0
O388 O 0.25598 0.84911 0.25764 0.0
O389 O 0.33693 0.84975 0.27196 0.0
O390 O 0.32722 0.79291 0.2843 0.0
C391 C 0.3262 0.73296 0.24016 0.0
O392 O 0.34797 0.83905 0.23217 0.0
O393 O 0.2911 0.82743 0.22 0.0
In394 In 0.19612 0.80969 0.50286 0.0
O395 O 0.15641 0.84615 0.52299 0.0
O396 O 0.21186 0.82916 0.53513 0.0
C397 C 0.16211 0.83264 0.4681 0.0
C398 C 0.16962 0.73796 0.51341 0.0
C399 C 0.26955 0.82842 0.4912 0.0
O400 O 0.15815 0.85125 0.48447 0.0
O401 O 0.18233 0.80162 0.46923 0.0
O402 O 0.25826 0.79313 0.4924 0.0
O403 O 0.24465 0.85356 0.49683 0.0
C404 C 0.17942 0.84632 0.53796 0.0
O405 O 0.20514 0.74788 0.51575 0.0
O406 O 0.14811 0.76334 0.50507 0.0
In407 In 0.18913 0.69368 0.75342 0.0
O408 O 0.14625 0.65727 0.77188 0.0
O409 O 0.1758 0.70408 0.78696 0.0
C410 C 0.17052 0.65922 0.71793 0.0
C411 C 0.26136 0.66958 0.76469 0.0
C412 C 0.16736 0.76685 0.74296 0.0
O413 O 0.15144 0.65363 0.73401 0.0
O414 O 0.20014 0.68135 0.71973 0.0
O415 O 0.20305 0.75673 0.74393 0.0
O416 O 0.14308 0.74094 0.74837 0.0
C417 C 0.15211 0.67561 0.78816 0.0
O418 O 0.25261 0.70546 0.76332 0.0
O419 O 0.23458 0.64611 0.75938 0.0
In420 In 0.80411 0.19811 0.5005 0.0
O421 O 0.78523 0.25768 0.51385 0.0
O422 O 0.84547 0.24878 0.5066 0.0
C423 C 0.73137 0.18337 0.48613 0.0
C424 C 0.82785 0.15812 0.53357 0.0
C425 C 0.84295 0.17265 0.46748 0.0
O426 O 0.75206 0.21147 0.47962 0.0
O427 O 0.74639 0.16417 0.50049 0.0
O428 O 0.82813 0.14968 0.48036 0.0
O429 O 0.83854 0.20868 0.47128 0.0
C430 C 0.81987 0.27122 0.51399 0.0
O431 O 0.85043 0.16623 0.51904 0.0
O432 O 0.79282 0.16982 0.53143 0.0
In433 In 0.80753 0.30203 0.75164 0.0
O434 O 0.85425 0.33292 0.733 0.0
O435 O 0.79756 0.32539 0.71959 0.0
C436 C 0.8422 0.32189 0.78688 0.0
C437 C 0.82261 0.22889 0.73854 0.0
C438 C 0.73529 0.32515 0.76296 0.0
O439 O 0.84282 0.34345 0.7714 0.0
O440 O 0.82504 0.2893 0.78456 0.0
O441 O 0.7462 0.28981 0.7642 0.0
O442 O 0.75985 0.34817 0.75497 0.0
C443 C 0.83239 0.33785 0.71779 0.0
O444 O 0.78841 0.2433 0.7381 0.0
O445 O 0.84844 0.25025 0.74672 0.0
In446 In 0.69574 0.30194 0.00181 0.0
O447 O 0.70889 0.24665 0.0202 0.0
O448 O 0.65631 0.24787 0.00265 0.0
C449 C 0.7695 0.31717 0.98945 0.0
C450 C 0.67402 0.34248 0.03501 0.0
C451 C 0.65971 0.32563 0.96758 0.0
O452 O 0.75632 0.28253 0.99039 0.0
O453 O 0.74633 0.3435 0.99556 0.0
O454 O 0.65607 0.34348 0.98415 0.0
O455 O 0.68059 0.29504 0.9682 0.0
C456 C 0.67742 0.2295 0.01515 0.0
O457 O 0.64967 0.32774 0.02275 0.0
O458 O 0.70974 0.33714 0.03053 0.0
In459 In 0.6952 0.19764 0.25064 0.0
O460 O 0.65658 0.15563 0.26833 0.0
O461 O 0.67588 0.20749 0.28337 0.0
C462 C 0.67453 0.16211 0.2159 0.0
C463 C 0.76711 0.17584 0.26365 0.0
C464 C 0.67521 0.27027 0.23837 0.0
O465 O 0.65374 0.16078 0.23169 0.0
O466 O 0.70667 0.1805 0.21768 0.0
O467 O 0.71005 0.25764 0.23704 0.0
O468 O 0.65124 0.24733 0.24681 0.0
C469 C 0.65704 0.17558 0.28441 0.0
O470 O 0.7535 0.20973 0.26685 0.0
O471 O 0.74555 0.15379 0.25306 0.0
C472 C 0.13999 0.88513 0.26943 0.0
C473 C 0.12878 0.87538 0.28945 0.0
C474 C 0.18033 0.82529 0.29116 0.0
C475 C 0.19219 0.83564 0.27123 0.0
N476 N 0.17617 0.86603 0.23939 0.0
N477 N 0.13001 0.82955 0.31712 0.0
C478 C 0.16956 0.86254 0.2597 0.0
C479 C 0.14617 0.84305 0.29951 0.0
N480 N 0.12393 0.91717 0.2601 0.0
N481 N 0.20299 0.80079 0.30269 0.0
H482 H 0.10506 0.84222 0.32361 0.0
H483 H 0.13892 0.80373 0.32421 0.0
H484 H 0.22787 0.78642 0.2973 0.0
H485 H 0.19863 0.7966 0.31813 0.0
H486 H 0.13438 0.92854 0.24651 0.0
H487 H 0.10164 0.93401 0.26659 0.0
H488 H 0.1584 0.88255 0.22977 0.0
H489 H 0.19707 0.84905 0.23181 0.0
C490 C 0.1443 0.63101 0.52441 0.0
C491 C 0.11842 0.63585 0.54108 0.0
C492 C 0.12895 0.70709 0.54047 0.0
C493 C 0.15275 0.70253 0.52297 0.0
N494 N 0.18119 0.66175 0.49712 0.0
N495 N 0.08458 0.67763 0.56487 0.0
C496 C 0.16022 0.66485 0.5147 0.0
C497 C 0.1104 0.67369 0.5491 0.0
N498 N 0.15373 0.59401 0.518 0.0
N499 N 0.12523 0.74332 0.54923 0.0
H500 H 0.07291 0.65383 0.57278 0.0
H501 H 0.07312 0.70434 0.5697 0.0
H502 H 0.13731 0.76877 0.54309 0.0
H503 H 0.11238 0.74824 0.56328 0.0
H504 H 0.1754 0.58795 0.50735 0.0
H505 H 0.14128 0.56875 0.52421 0.0
H506 H 0.18454 0.63579 0.48902 0.0
H507 H 0.19353 0.68597 0.48982 0.0
C508 C 0.35863 0.61547 0.77064 0.0
C509 C 0.36213 0.6156 0.79204 0.0
C510 C 0.30592 0.66036 0.79449 0.0
C511 C 0.29883 0.65539 0.77347 0.0
N512 N 0.31708 0.62724 0.74137 0.0
N513 N 0.3355 0.63314 0.82469 0.0
C514 C 0.32487 0.63267 0.76147 0.0
C515 C 0.33505 0.63701 0.80408 0.0
N516 N 0.38813 0.59988 0.75911 0.0
N517 N 0.28472 0.6871 0.80539 0.0
H518 H 0.35568 0.6156 0.83241 0.0
H519 H 0.31357 0.64435 0.83405 0.0
H520 H 0.26222 0.70407 0.79923 0.0
H521 H 0.29168 0.69487 0.82021 0.0
H522 H 0.3892 0.60224 0.74342 0.0
H523 H 0.41347 0.5875 0.76536 0.0
H524 H 0.33206 0.60712 0.73236 0.0
H525 H 0.29419 0.64159 0.73385 0.0
C526 C 0.40773 0.83126 0.02944 0.0
C527 C 0.38617 0.86127 0.03924 0.0
C528 C 0.32461 0.83259 0.02657 0.0
C529 C 0.34597 0.79951 0.01953 0.0
N530 N 0.40763 0.76363 0.01882 0.0
N531 N 0.3236 0.88858 0.04924 0.0
C532 C 0.38754 0.79787 0.02201 0.0
C533 C 0.3444 0.86163 0.03829 0.0
N534 N 0.44759 0.83471 0.02714 0.0
N535 N 0.28574 0.83673 0.02166 0.0
H536 H 0.33705 0.9103 0.05797 0.0
H537 H 0.29312 0.88751 0.0509 0.0
H538 H 0.2706 0.81638 0.01276 0.0
H539 H 0.26961 0.86203 0.02473 0.0
H540 H 0.46415 0.8154 0.01837 0.0
H541 H 0.46339 0.85911 0.03221 0.0
H542 H 0.4373 0.76019 0.02248 0.0
H543 H 0.39412 0.73728 0.01482 0.0
C544 C 0.12976 0.62252 0.98397 0.0
C545 C 0.1201 0.63002 0.96345 0.0
C546 C 0.1739 0.6777 0.96101 0.0
C547 C 0.18397 0.66979 0.9815 0.0
N548 N 0.16439 0.64468 0.014 0.0
N549 N 0.12463 0.6726 0.9345 0.0
C550 C 0.15937 0.64552 0.99349 0.0
C551 C 0.13934 0.66046 0.95271 0.0
N552 N 0.11245 0.59198 0.99401 0.0
N553 N 0.19864 0.69901 0.94895 0.0
H554 H 0.0993 0.66038 0.9281 0.0
H555 H 0.13511 0.69715 0.92681 0.0
H556 H 0.22424 0.71246 0.95414 0.0
H557 H 0.19522 0.70112 0.93332 0.0
H558 H 0.12177 0.58225 0.00816 0.0
H559 H 0.0905 0.57449 0.98763 0.0
H560 H 0.14524 0.63023 0.02379 0.0
H561 H 0.18543 0.66194 0.02135 0.0
C562 C 0.34597 0.64933 0.20323 0.0
C563 C 0.37963 0.63283 0.2126 0.0
C564 C 0.36798 0.67303 0.24269 0.0
C565 C 0.33928 0.69472 0.23182 0.0
N566 N 0.30184 0.7048 0.20103 0.0
N567 N 0.42425 0.62949 0.24098 0.0
C568 C 0.32785 0.68281 0.21203 0.0
C569 C 0.39079 0.64438 0.2324 0.0
N570 N 0.33145 0.63292 0.18587 0.0
N571 N 0.37293 0.67955 0.26294 0.0
H572 H 0.44141 0.60796 0.23406 0.0
H573 H 0.43645 0.64029 0.25433 0.0
H574 H 0.35586 0.69971 0.27096 0.0
H575 H 0.39085 0.66229 0.27213 0.0
H576 H 0.30473 0.64109 0.17936 0.0
H577 H 0.3443 0.60845 0.17905 0.0
H578 H 0.29668 0.70045 0.18566 0.0
H579 H 0.28724 0.72923 0.20674 0.0
C580 C 0.35308 0.84806 0.45418 0.0
C581 C 0.37044 0.8809 0.46387 0.0
C582 C 0.3308 0.86823 0.49405 0.0
C583 C 0.30819 0.84065 0.48293 0.0
N584 N 0.29633 0.80544 0.45166 0.0
N585 N 0.37509 0.92392 0.49279 0.0
C586 C 0.31934 0.83016 0.46291 0.0
C587 C 0.35958 0.89113 0.48389 0.0
N588 N 0.36889 0.83416 0.43657 0.0
N589 N 0.32488 0.87215 0.5144 0.0
H590 H 0.39655 0.9413 0.48593 0.0
H591 H 0.36477 0.93545 0.50637 0.0
H592 H 0.30452 0.85505 0.52229 0.0
H593 H 0.34278 0.88921 0.52373 0.0
H594 H 0.35999 0.80802 0.42977 0.0
H595 H 0.39359 0.84683 0.42981 0.0
H596 H 0.3003 0.80099 0.43621 0.0
H597 H 0.27136 0.79145 0.45725 0.0
C598 C 0.10447 0.85696 0.73503 0.0
C599 C 0.1164 0.86852 0.71535 0.0
C600 C 0.16546 0.81603 0.71456 0.0
C601 C 0.1541 0.8048 0.73444 0.0
N602 N 0.12068 0.82073 0.7655 0.0
N603 N 0.16497 0.86682 0.68888 0.0
C604 C 0.12612 0.82735 0.7453 0.0
C605 C 0.14934 0.85069 0.70602 0.0
N606 N 0.07135 0.87276 0.74346 0.0
N607 N 0.18905 0.79222 0.70316 0.0
H608 H 0.15363 0.89224 0.68226 0.0
H609 H 0.1913 0.85734 0.68246 0.0
H610 H 0.20067 0.76579 0.70832 0.0
H611 H 0.19427 0.79689 0.68782 0.0
H612 H 0.05859 0.8621 0.75669 0.0
H613 H 0.05496 0.89487 0.73653 0.0
H614 H 0.10332 0.83855 0.77467 0.0
H615 H 0.13672 0.79972 0.77352 0.0
C616 C 0.64293 0.38574 0.77002 0.0
C617 C 0.63427 0.378 0.79063 0.0
C618 C 0.69051 0.33344 0.79287 0.0
C619 C 0.69828 0.33977 0.772 0.0
N620 N 0.67654 0.3642 0.73964 0.0
N621 N 0.64278 0.33699 0.81999 0.0
C622 C 0.67272 0.36349 0.76021 0.0
C623 C 0.65571 0.3492 0.80146 0.0
N624 N 0.62416 0.41556 0.7601 0.0
N625 N 0.71761 0.31508 0.80492 0.0
H626 H 0.61723 0.34796 0.82669 0.0
H627 H 0.6551 0.31334 0.82773 0.0
H628 H 0.74442 0.30439 0.79965 0.0
H629 H 0.71524 0.31384 0.82062 0.0
H630 H 0.63252 0.42549 0.74583 0.0
H631 H 0.60202 0.43241 0.7667 0.0
H632 H 0.65648 0.37803 0.73008 0.0
H633 H 0.69765 0.34764 0.73198 0.0
C634 C 0.64334 0.12407 0.02323 0.0
C635 C 0.62806 0.12696 0.04312 0.0
C636 C 0.65144 0.19493 0.04573 0.0
C637 C 0.66339 0.19324 0.02514 0.0
N638 N 0.6697 0.15774 0.99379 0.0
N639 N 0.61475 0.1649 0.07315 0.0
C640 C 0.65917 0.15815 0.01375 0.0
C641 C 0.63179 0.16219 0.05444 0.0
N642 N 0.64321 0.08852 0.01362 0.0
N643 N 0.65836 0.22808 0.05688 0.0
H644 H 0.60111 0.14129 0.08035 0.0
H645 H 0.61188 0.19097 0.08121 0.0
H646 H 0.6694 0.25398 0.05074 0.0
H647 H 0.65518 0.22957 0.07252 0.0
H648 H 0.65712 0.08321 0.99988 0.0
H649 H 0.63146 0.06321 0.02015 0.0
H650 H 0.66333 0.13479 0.98393 0.0
H651 H 0.68346 0.18144 0.98671 0.0
C652 C 0.83496 0.13669 0.30474 0.0
C653 C 0.86692 0.12315 0.29282 0.0
C654 C 0.83639 0.15089 0.26231 0.0
C655 C 0.80277 0.16083 0.2739 0.0
N656 N 0.76758 0.15988 0.30563 0.0
N657 N 0.89827 0.11532 0.26039 0.0
C658 C 0.80154 0.1533 0.29504 0.0
C659 C 0.86778 0.12984 0.27162 0.0
N660 N 0.83656 0.1336 0.32537 0.0
N661 N 0.83855 0.1625 0.24254 0.0
H662 H 0.92267 0.10153 0.26685 0.0
H663 H 0.89868 0.11505 0.24466 0.0
H664 H 0.81598 0.17796 0.23537 0.0
H665 H 0.86363 0.15962 0.23364 0.0
H666 H 0.81662 0.1472 0.33505 0.0
H667 H 0.85946 0.11968 0.33306 0.0
H668 H 0.76294 0.15018 0.32037 0.0
H669 H 0.74259 0.17264 0.29929 0.0
C670 C 0.84229 0.3518 0.55225 0.0
C671 C 0.87262 0.37146 0.54156 0.0
C672 C 0.85561 0.33465 0.51098 0.0
C673 C 0.83116 0.30974 0.52268 0.0
N674 N 0.80213 0.29337 0.55502 0.0
N675 N 0.91003 0.38058 0.51088 0.0
C676 C 0.824 0.31838 0.54339 0.0
C677 C 0.87942 0.36311 0.52084 0.0
N678 N 0.83109 0.36515 0.57087 0.0
N679 N 0.85578 0.33109 0.49038 0.0
H680 H 0.92821 0.40164 0.51752 0.0
H681 H 0.91922 0.37213 0.4965 0.0
H682 H 0.8379 0.31094 0.48277 0.0
H683 H 0.87029 0.35062 0.48083 0.0
H684 H 0.80665 0.35444 0.57862 0.0
H685 H 0.84403 0.38961 0.57771 0.0
H686 H 0.80043 0.29545 0.57071 0.0
H687 H 0.78761 0.26888 0.54926 0.0
C688 C 0.66323 0.13987 0.44629 0.0
C689 C 0.62846 0.13473 0.45783 0.0
C690 C 0.6589 0.16925 0.48645 0.0
C691 C 0.69512 0.16985 0.4758 0.0
N692 N 0.73362 0.15061 0.44672 0.0
N693 N 0.59277 0.14241 0.48903 0.0
C694 C 0.69773 0.15427 0.4559 0.0
C695 C 0.62605 0.14908 0.47794 0.0
N696 N 0.66331 0.13077 0.42613 0.0
N697 N 0.65582 0.18866 0.50448 0.0
H698 H 0.56767 0.12915 0.48296 0.0
H699 H 0.59064 0.14799 0.50447 0.0
H700 H 0.67939 0.20377 0.511 0.0
H701 H 0.62939 0.19259 0.51216 0.0
H702 H 0.68633 0.138 0.41642 0.0
H703 H 0.63897 0.11894 0.41864 0.0
H704 H 0.73798 0.13534 0.43326 0.0
H705 H 0.75989 0.1597 0.45338 0.0
C706 C 0.86483 0.12696 0.73015 0.0
C707 C 0.86959 0.12782 0.70884 0.0
C708 C 0.83232 0.18927 0.70707 0.0
C709 C 0.83314 0.19153 0.72853 0.0
N710 N 0.85007 0.16329 0.7608 0.0
N711 N 0.86182 0.16157 0.67696 0.0
C712 C 0.8492 0.16044 0.74017 0.0
C713 C 0.85391 0.15916 0.69722 0.0
N714 N 0.87464 0.09383 0.74068 0.0
N715 N 0.81146 0.2161 0.69603 0.0
H716 H 0.87768 0.14031 0.66908 0.0
H717 H 0.85553 0.18621 0.66822 0.0
H718 H 0.7966 0.23975 0.70241 0.0
H719 H 0.80623 0.2132 0.68057 0.0
H720 H 0.86856 0.08982 0.75597 0.0
H721 H 0.88593 0.06878 0.73369 0.0
H722 H 0.86568 0.14412 0.77008 0.0
H723 H 0.83642 0.18608 0.76867 0.0
C724 C 0.8423 0.34836 0.94973 0.0
C725 C 0.87204 0.36571 0.96194 0.0
C726 C 0.83755 0.3447 0.99263 0.0
C727 C 0.80793 0.32738 0.98039 0.0
N728 N 0.78715 0.3034 0.94771 0.0
N729 N 0.9033 0.37264 0.99447 0.0
C730 C 0.81218 0.32586 0.95907 0.0
C731 C 0.87136 0.36132 0.98327 0.0
N732 N 0.84126 0.35556 0.92937 0.0
N733 N 0.8328 0.34601 0.01315 0.0
H734 H 0.92854 0.38467 0.98795 0.0
H735 H 0.90626 0.36708 0.00988 0.0
H736 H 0.8096 0.33191 0.02053 0.0
H737 H 0.85076 0.36234 0.02277 0.0
H738 H 0.81761 0.34785 0.92013 0.0
H739 H 0.8625 0.37213 0.92184 0.0
H740 H 0.7913 0.29803 0.93235 0.0
H741 H 0.76406 0.28727 0.95391 0.0
C742 C 0.63621 0.33821 0.19769 0.0
C743 C 0.62545 0.37138 0.20943 0.0
C744 C 0.6498 0.33923 0.2402 0.0
C745 C 0.66177 0.30665 0.22835 0.0
N746 N 0.67231 0.27702 0.19559 0.0
N747 N 0.6277 0.40704 0.24087 0.0
C748 C 0.65709 0.3069 0.20699 0.0
C749 C 0.634 0.37297 0.23043 0.0
N750 N 0.62462 0.33575 0.17788 0.0
N751 N 0.65286 0.33751 0.26081 0.0
H752 H 0.61598 0.43215 0.23413 0.0
H753 H 0.63681 0.41156 0.25573 0.0
H754 H 0.6662 0.31412 0.26836 0.0
H755 H 0.64046 0.35814 0.27051 0.0
H756 H 0.62716 0.31042 0.16917 0.0
H757 H 0.60963 0.35818 0.1704 0.0
H758 H 0.67392 0.27771 0.17987 0.0
H759 H 0.68606 0.2525 0.2018 0.0
C760 C 0.15323 0.87576 0.41515 0.0
C761 C 0.11255 0.88503 0.41487 0.0
C762 C 0.10366 0.85165 0.44739 0.0
C763 C 0.14504 0.84726 0.44895 0.0
N764 N 0.21012 0.85877 0.43551 0.0
N765 N 0.0491 0.88521 0.4313 0.0
C766 C 0.17014 0.85983 0.43304 0.0
C767 C 0.08766 0.87362 0.43107 0.0
N768 N 0.17553 0.88205 0.39826 0.0
N769 N 0.07966 0.83402 0.46128 0.0
H770 H 0.03599 0.90072 0.41947 0.0
H771 H 0.03077 0.88191 0.4438 0.0
H772 H 0.09049 0.81737 0.47332 0.0
H773 H 0.04914 0.83275 0.45987 0.0
H774 H 0.20445 0.87231 0.39677 0.0
H775 H 0.16398 0.89404 0.38499 0.0
H776 H 0.22987 0.87151 0.42541 0.0
H777 H 0.22368 0.84791 0.4485 0.0
C778 C 0.09929 0.62908 0.67684 0.0
C779 C 0.12405 0.60766 0.66354 0.0
C780 C 0.18076 0.621 0.68559 0.0
C781 C 0.15622 0.64414 0.69821 0.0
N782 N 0.09542 0.67999 0.70222 0.0
N783 N 0.18956 0.59056 0.6527 0.0
C784 C 0.11648 0.65122 0.6927 0.0
C785 C 0.16527 0.606 0.6671 0.0
N786 N 0.05923 0.6267 0.67509 0.0
N787 N 0.21805 0.61159 0.69169 0.0
H788 H 0.17907 0.57965 0.63895 0.0
H789 H 0.22016 0.59192 0.65355 0.0
H790 H 0.23032 0.62158 0.70521 0.0
H791 H 0.23568 0.59132 0.68416 0.0
H792 H 0.04003 0.63832 0.68581 0.0
H793 H 0.04503 0.61 0.66405 0.0
H794 H 0.06755 0.68886 0.69745 0.0
H795 H 0.10749 0.69803 0.71339 0.0
C796 C 0.36161 0.64311 0.91183 0.0
C797 C 0.39339 0.61673 0.91485 0.0
C798 C 0.38981 0.6277 0.95138 0.0
C799 C 0.35509 0.65021 0.94861 0.0
N800 N 0.30352 0.67314 0.92632 0.0
N801 N 0.43154 0.57673 0.93786 0.0
C802 C 0.33976 0.6564 0.92885 0.0
C803 C 0.40572 0.60692 0.93474 0.0
N804 N 0.35289 0.65618 0.8928 0.0
N805 N 0.40871 0.62747 0.96966 0.0
H806 H 0.44303 0.55974 0.92614 0.0
H807 H 0.43829 0.56593 0.9522 0.0
H808 H 0.39925 0.64391 0.98204 0.0
H809 H 0.4362 0.61455 0.97184 0.0
H810 H 0.33265 0.67848 0.88995 0.0
H811 H 0.36839 0.6472 0.87999 0.0
H812 H 0.28924 0.67463 0.91238 0.0
H813 H 0.28594 0.68208 0.93837 0.0
C814 C 0.364 0.92037 0.18179 0.0
C815 C 0.37494 0.89668 0.16508 0.0
C816 C 0.34318 0.83945 0.18061 0.0
C817 C 0.33702 0.8619 0.19843 0.0
N818 N 0.33998 0.92345 0.21634 0.0
N819 N 0.37558 0.83434 0.14793 0.0
C820 C 0.34666 0.90244 0.19904 0.0
C821 C 0.36415 0.85649 0.16416 0.0
N822 N 0.37007 0.96006 0.18101 0.0
N823 N 0.32947 0.80175 0.17955 0.0
H824 H 0.38953 0.84631 0.1353 0.0
H825 H 0.37299 0.80395 0.14721 0.0
H826 H 0.31551 0.78783 0.19159 0.0
H827 H 0.32945 0.78493 0.16642 0.0
H828 H 0.35962 0.97974 0.19177 0.0
H829 H 0.38326 0.97397 0.1687 0.0
H830 H 0.3507 0.95164 0.21889 0.0
H831 H 0.32462 0.91206 0.22868 0.0
C832 C 0.14048 0.6314 0.84063 0.0
C833 C 0.09914 0.62587 0.84103 0.0
C834 C 0.0927 0.66263 0.80933 0.0
C835 C 0.13425 0.66256 0.80738 0.0
N836 N 0.19808 0.64293 0.81995 0.0
N837 N 0.03543 0.63366 0.82528 0.0
C838 C 0.15838 0.64642 0.82284 0.0
C839 C 0.07499 0.64121 0.82536 0.0
N840 N 0.16252 0.62218 0.85728 0.0
N841 N 0.07031 0.68364 0.79597 0.0
H842 H 0.02121 0.61862 0.83691 0.0
H843 H 0.01709 0.63997 0.81308 0.0
H844 H 0.08257 0.69982 0.78413 0.0
H845 H 0.04016 0.68803 0.79768 0.0
H846 H 0.1923 0.62903 0.85866 0.0
H847 H 0.15011 0.61097 0.87052 0.0
H848 H 0.21659 0.62759 0.82972 0.0
H849 H 0.21216 0.65242 0.80685 0.0
C850 C 0.3724 0.65043 0.0862 0.0
C851 C 0.38596 0.61112 0.08571 0.0
C852 C 0.35468 0.60132 0.05263 0.0
C853 C 0.34521 0.64181 0.05208 0.0
N854 N 0.34875 0.70637 0.06707 0.0
N855 N 0.39334 0.54953 0.06807 0.0
C856 C 0.35467 0.66677 0.06861 0.0
C857 C 0.37782 0.58655 0.06886 0.0
N858 N 0.37622 0.67197 0.10355 0.0
N859 N 0.34064 0.57686 0.03786 0.0
H860 H 0.40944 0.53719 0.07992 0.0
H861 H 0.39254 0.53192 0.05521 0.0
H862 H 0.32347 0.58676 0.02579 0.0
H863 H 0.34301 0.54642 0.03844 0.0
H864 H 0.3633 0.69938 0.10562 0.0
H865 H 0.38966 0.66101 0.11658 0.0
H866 H 0.35924 0.7266 0.07758 0.0
H867 H 0.33593 0.71955 0.05445 0.0
C868 C 0.41727 0.86953 0.32264 0.0
C869 C 0.39296 0.87984 0.33924 0.0
C870 C 0.33677 0.8462 0.32353 0.0
C871 C 0.35977 0.84035 0.30585 0.0
N872 N 0.42162 0.84508 0.28819 0.0
N873 N 0.33022 0.87868 0.35613 0.0
C874 C 0.40009 0.85132 0.30538 0.0
C875 C 0.35297 0.86786 0.34 0.0
N876 N 0.45684 0.877 0.32351 0.0
N877 N 0.29934 0.83147 0.32442 0.0
H878 H 0.34164 0.89311 0.36877 0.0
H879 H 0.29983 0.87509 0.35676 0.0
H880 H 0.28602 0.81693 0.31235 0.0
H881 H 0.28217 0.83126 0.33743 0.0
H882 H 0.47706 0.867 0.31289 0.0
H883 H 0.47023 0.89104 0.33575 0.0
H884 H 0.44953 0.8567 0.28571 0.0
H885 H 0.4109 0.82914 0.27587 0.0
C886 C 0.14674 0.8611 0.59254 0.0
C887 C 0.12794 0.898 0.5904 0.0
C888 C 0.15563 0.90527 0.55643 0.0
C889 C 0.16836 0.86571 0.55719 0.0
N890 N 0.1775 0.80552 0.57598 0.0
N891 N 0.11433 0.95611 0.57078 0.0
C892 C 0.16514 0.84369 0.5754 0.0
C893 C 0.13276 0.92059 0.57255 0.0
N894 N 0.14677 0.84279 0.61095 0.0
N895 N 0.16632 0.92833 0.54041 0.0
H896 H 0.09896 0.96923 0.58264 0.0
H897 H 0.11247 0.97173 0.55728 0.0
H898 H 0.18402 0.91804 0.52865 0.0
H899 H 0.16113 0.95841 0.5397 0.0
H900 H 0.16321 0.81779 0.61417 0.0
H901 H 0.13268 0.85445 0.62362 0.0
H902 H 0.17128 0.78634 0.5878 0.0
H903 H 0.19242 0.79203 0.56413 0.0
C904 C 0.58443 0.36335 0.93001 0.0
C905 C 0.6094 0.37954 0.91494 0.0
C906 C 0.66767 0.35858 0.93396 0.0
C907 C 0.64268 0.34118 0.94864 0.0
N908 N 0.57815 0.3197 0.95885 0.0
N909 N 0.6739 0.38573 0.90017 0.0
C910 C 0.60127 0.34128 0.94609 0.0
C911 C 0.65081 0.37486 0.91614 0.0
N912 N 0.54482 0.37056 0.92946 0.0
N913 N 0.70723 0.36152 0.93756 0.0
H914 H 0.66237 0.39794 0.88695 0.0
H915 H 0.70387 0.37955 0.89926 0.0
H916 H 0.72058 0.35047 0.95057 0.0
H917 H 0.72642 0.37763 0.9285 0.0
H918 H 0.52575 0.36353 0.94124 0.0
H919 H 0.53121 0.38615 0.91782 0.0
H920 H 0.54813 0.31523 0.95658 0.0
H921 H 0.58967 0.30328 0.9708 0.0
C922 C 0.66669 0.10329 0.16688 0.0
C923 C 0.62607 0.10859 0.16255 0.0
C924 C 0.62169 0.15686 0.18985 0.0
C925 C 0.65999 0.14624 0.19641 0.0
N926 N 0.7182 0.10636 0.19224 0.0
N927 N 0.56309 0.13609 0.17213 0.0
C928 C 0.6826 0.11897 0.1851 0.0
C929 C 0.60306 0.13444 0.17453 0.0
N930 N 0.69005 0.08365 0.15345 0.0
N931 N 0.60345 0.18905 0.19788 0.0
H932 H 0.54776 0.11936 0.16152 0.0
H933 H 0.54472 0.1513 0.18202 0.0
H934 H 0.61681 0.2072 0.20861 0.0
H935 H 0.57706 0.20022 0.19224 0.0
H936 H 0.72057 0.08205 0.15483 0.0
H937 H 0.67927 0.07221 0.13988 0.0
H938 H 0.73388 0.08333 0.18573 0.0
H939 H 0.73068 0.11663 0.20565 0.0
C940 C 0.87756 0.15736 0.41308 0.0
C941 C 0.90356 0.12526 0.41582 0.0
C942 C 0.89443 0.1291 0.45248 0.0
C943 C 0.86487 0.15799 0.44964 0.0
N944 N 0.82372 0.19548 0.42682 0.0
N945 N 0.93069 0.07528 0.43769 0.0
C946 C 0.85525 0.17122 0.42983 0.0
C947 C 0.91027 0.10959 0.4354 0.0
N948 N 0.87486 0.17518 0.3946 0.0
N949 N 0.90873 0.12146 0.47143 0.0
H950 H 0.94233 0.05957 0.42554 0.0
H951 H 0.93276 0.06042 0.45143 0.0
H952 H 0.89929 0.13639 0.48432 0.0
H953 H 0.93301 0.10349 0.47409 0.0
H954 H 0.85968 0.20133 0.39221 0.0
H955 H 0.89058 0.16562 0.38198 0.0
H956 H 0.8127 0.20231 0.41254 0.0
H957 H 0.80628 0.20616 0.43854 0.0
C958 C 0.8839 0.34759 0.6671 0.0
C959 C 0.88508 0.38902 0.66517 0.0
C960 C 0.84394 0.3958 0.69545 0.0
C961 C 0.8476 0.35494 0.69886 0.0
N962 N 0.87387 0.29185 0.68929 0.0
N963 N 0.86995 0.45329 0.67851 0.0
C964 C 0.86818 0.33071 0.685 0.0
C965 C 0.86572 0.41341 0.67949 0.0
N966 N 0.89727 0.32448 0.65166 0.0
N967 N 0.81974 0.41771 0.70749 0.0
H968 H 0.88576 0.46743 0.66713 0.0
H969 H 0.86037 0.47231 0.68981 0.0
H970 H 0.80408 0.40576 0.71959 0.0
H971 H 0.81264 0.44687 0.70451 0.0
H972 H 0.89374 0.29412 0.65129 0.0
H973 H 0.90872 0.33605 0.63828 0.0
H974 H 0.89223 0.27359 0.68091 0.0
H975 H 0.86244 0.2784 0.70218 0.0
C976 C 0.59757 0.16936 0.33329 0.0
C977 C 0.60131 0.12874 0.33761 0.0
C978 C 0.64797 0.12182 0.30968 0.0
C979 C 0.63942 0.16074 0.30342 0.0
N980 N 0.60167 0.22025 0.3078 0.0
N981 N 0.62453 0.06456 0.32749 0.0
C982 C 0.61326 0.18439 0.31491 0.0
C983 C 0.62511 0.10445 0.3252 0.0
N984 N 0.57954 0.19362 0.34688 0.0
N985 N 0.67883 0.1018 0.30134 0.0
H986 H 0.60742 0.05023 0.3383 0.0
H987 H 0.63808 0.04544 0.31735 0.0
H988 H 0.69745 0.11393 0.29048 0.0
H989 H 0.68862 0.07484 0.30685 0.0
H990 H 0.57935 0.22408 0.34549 0.0
H991 H 0.56802 0.18353 0.36056 0.0
H992 H 0.57948 0.23683 0.31451 0.0
H993 H 0.61152 0.23195 0.29414 0.0
C994 C 0.84706 0.12679 0.58822 0.0
C995 C 0.87458 0.0961 0.58508 0.0
C996 C 0.86494 0.10165 0.54849 0.0
C997 C 0.84178 0.13581 0.55148 0.0
N998 N 0.81686 0.18525 0.57441 0.0
N999 N 0.91632 0.06021 0.56195 0.0
C1000 C 0.83422 0.14954 0.57142 0.0
C1001 C 0.88539 0.08513 0.56513 0.0
N1002 N 0.83256 0.13373 0.60717 0.0
N1003 N 0.86631 0.08402 0.52991 0.0
H1004 H 0.93316 0.0484 0.57366 0.0
H1005 H 0.92782 0.05455 0.54763 0.0
H1006 H 0.85018 0.094 0.5175 0.0
H1007 H 0.87984 0.05699 0.52745 0.0
H1008 H 0.80949 0.15312 0.60998 0.0
H1009 H 0.84106 0.11743 0.6198 0.0
H1010 H 0.81451 0.19837 0.58859 0.0
H1011 H 0.80833 0.20363 0.56261 0.0
C1012 C 0.86575 0.39256 0.82912 0.0
C1013 C 0.89269 0.3705 0.84099 0.0
C1014 C 0.88534 0.31458 0.81785 0.0
C1015 C 0.85699 0.33616 0.80666 0.0
N1016 N 0.81119 0.39028 0.80563 0.0
N1017 N 0.92092 0.30775 0.84953 0.0
C1018 C 0.84434 0.37347 0.81357 0.0
C1019 C 0.90014 0.33052 0.83628 0.0
N1020 N 0.86212 0.43219 0.83184 0.0
N1021 N 0.89972 0.28 0.81044 0.0
H1022 H 0.93175 0.31852 0.86324 0.0
H1023 H 0.92414 0.27751 0.84786 0.0
H1024 H 0.88998 0.26753 0.79692 0.0
H1025 H 0.92353 0.26527 0.81685 0.0
H1026 H 0.84602 0.45005 0.82207 0.0
H1027 H 0.87814 0.44794 0.84258 0.0
H1028 H 0.79864 0.41576 0.81148 0.0
H1029 H 0.79372 0.37641 0.79476 0.0
C1030 C 0.6134 0.41248 0.06661 0.0
C1031 C 0.62891 0.40591 0.08626 0.0
C1032 C 0.67438 0.35678 0.07254 0.0
C1033 C 0.66099 0.36587 0.05269 0.0
N1034 N 0.62539 0.40985 0.03062 0.0
N1035 N 0.67863 0.37717 0.10767 0.0
C1036 C 0.63271 0.39592 0.04966 0.0
C1037 C 0.6608 0.37964 0.08916 0.0
N1038 N 0.57933 0.43334 0.06415 0.0
N1039 N 0.69851 0.32526 0.0757 0.0
H1040 H 0.66926 0.39332 0.12018 0.0
H1041 H 0.70463 0.36171 0.11019 0.0
H1042 H 0.70923 0.3077 0.06405 0.0
H1043 H 0.70538 0.31455 0.09003 0.0
H1044 H 0.56454 0.43534 0.05036 0.0
H1045 H 0.56367 0.44544 0.07619 0.0
H1046 H 0.6079 0.43437 0.0278 0.0
H1047 H 0.64027 0.3998 0.01784 0.0
loop_
_geom_bond_atom_site_label_1
_geom_bond_atom_site_label_2
_geom_bond_distance
_geom_bond_site_symmetry_2
_ccdc_geom_bond_type
C0 C1 1.384 . S
C0 C2 1.384 . S
C0 H28 0.931 . S
C1 C0 1.384 . S
C1 C4 1.382 . S
C2 C0 1.384 . S
C2 C3 1.381 . S
C2 H29 0.930 . S
C3 C2 1.381 . S
C3 C5 1.381 . S
C3 C6 1.487 . S
C4 C1 1.382 . S
C4 C5 1.387 . S
C4 H30 0.930 . S
C5 C3 1.381 . S
C5 C4 1.387 . S
C5 H31 0.931 1_565 S
C6 C3 1.487 . S
C6 C13 1.399 . S
C6 N44 1.343 1_565 S
C7 C8 1.384 . S
C7 C9 1.384 . S
C7 H32 0.931 . S
C8 C7 1.384 . S
C8 C11 1.382 . S
C9 C7 1.384 . S
C9 C10 1.381 . S
C9 H33 0.930 . S
C10 C9 1.381 . S
C10 C12 1.381 . S
C10 C13 1.487 . S
C11 C8 1.382 . S
C11 C12 1.387 . S
C11 H34 0.930 . S
C12 C10 1.381 . S
C12 C11 1.387 . S
C12 H35 0.931 . S
C13 C6 1.399 . S
C13 C10 1.487 . S
C13 N45 1.343 1_455 S
C14 C15 1.384 . S
C14 C16 1.384 . S
C14 H36 0.931 . S
C15 C14 1.384 . S
C15 C18 1.382 . S
C16 C14 1.384 . S
C16 C17 1.381 . S
C16 H37 0.930 . S
C17 C16 1.381 . S
C17 C19 1.381 . S
C17 C20 1.487 . S
C18 C15 1.382 . S
C18 C19 1.387 . S
C18 H38 0.930 . S
C19 C17 1.381 . S
C19 C18 1.387 . S
C19 H39 0.931 1_545 S
C20 C17 1.487 . S
C20 C27 1.399 . S
C20 N45 1.343 1_545 S
C21 C22 1.384 . S
C21 C23 1.384 . S
C21 H40 0.931 . S
C22 C21 1.384 . S
C22 C25 1.382 . S
C23 C21 1.384 . S
C23 C24 1.381 . S
C23 H41 0.930 . S
C24 C23 1.381 . S
C24 C26 1.381 . S
C24 C27 1.487 . S
C25 C22 1.382 . S
C25 C26 1.387 . S
C25 H42 0.930 . S
C26 C24 1.381 . S
C26 C25 1.387 . S
C26 H43 0.931 . S
C27 C20 1.399 . S
C27 C24 1.487 . S
C27 N44 1.343 1_655 S
H28 C0 0.931 . S
H29 C2 0.930 . S
H30 C4 0.930 . S
H31 C5 0.931 1_545 S
H32 C7 0.931 . S
H33 C9 0.930 . S
H34 C11 0.930 . S
H35 C12 0.931 . S
H36 C14 0.931 . S
H37 C16 0.930 . S
H38 C18 0.930 . S
H39 C19 0.931 1_565 S
H40 C21 0.931 . S
H41 C23 0.930 . S
H42 C25 0.930 . S
H43 C26 0.931 . S
N44 C6 1.343 1_545 S
N44 C27 1.343 1_455 S
N45 C13 1.343 1_655 S
N45 C20 1.343 1_565 S
C46 C47 1.384 . S
C46 C48 1.384 . S
C46 H74 0.931 . S
C47 C46 1.384 . S
C47 C50 1.382 . S
C48 C46 1.384 . S
C48 C49 1.381 . S
C48 H75 0.930 . S
C49 C48 1.381 . S
C49 C51 1.381 . S
C49 C52 1.487 . S
C50 C47 1.382 . S
C50 C51 1.387 . S
C50 H76 0.930 . S
C51 C49 1.381 . S
C51 C50 1.387 . S
C51 H77 0.931 1_655 S
C52 C49 1.487 . S
C52 C59 1.399 . S
C52 N90 1.343 1_655 S
C53 C54 1.384 . S
C53 C55 1.384 . S
C53 H78 0.931 . S
C54 C53 1.384 . S
C54 C57 1.382 . S
C55 C53 1.384 . S
C55 C56 1.381 . S
C55 H79 0.930 . S
C56 C55 1.381 . S
C56 C58 1.381 . S
C56 C59 1.487 . S
C57 C54 1.382 . S
C57 C58 1.387 . S
C57 H80 0.930 . S
C58 C56 1.381 . S
C58 C57 1.387 . S
C58 H81 0.931 . S
C59 C52 1.399 . S
C59 C56 1.487 . S
C59 N91 1.343 . S
C60 C61 1.384 . S
C60 C62 1.384 . S
C60 H82 0.931 . S
C61 C60 1.384 . S
C61 C64 1.382 . S
C62 C60 1.384 . S
C62 C63 1.381 . S
C62 H83 0.930 . S
C63 C62 1.381 . S
C63 C65 1.381 . S
C63 C66 1.487 . S
C64 C61 1.382 . S
C64 C65 1.387 . S
C64 H84 0.930 . S
C65 C63 1.381 . S
C65 C64 1.387 . S
C65 H85 0.931 1_455 S
C66 C63 1.487 . S
C66 C73 1.399 . S
C66 N91 1.343 1_455 S
C67 C68 1.384 . S
C67 C69 1.384 . S
C67 H86 0.931 . S
C68 C67 1.384 . S
C68 C71 1.382 . S
C69 C67 1.384 . S
C69 C70 1.381 . S
C69 H87 0.930 . S
C70 C69 1.381 . S
C70 C72 1.381 . S
C70 C73 1.487 . S
C71 C68 1.382 . S
C71 C72 1.387 . S
C71 H88 0.930 . S
C72 C70 1.381 . S
C72 C71 1.387 . S
C72 H89 0.931 . S
C73 C66 1.399 . S
C73 C70 1.487 . S
C73 N90 1.343 . S
H74 C46 0.931 . S
H75 C48 0.930 . S
H76 C50 0.930 . S
H77 C51 0.931 1_455 S
H78 C53 0.931 . S
H79 C55 0.930 . S
H80 C57 0.930 . S
H81 C58 0.931 . S
H82 C60 0.931 . S
H83 C62 0.930 . S
H84 C64 0.930 . S
H85 C65 0.931 1_655 S
H86 C67 0.931 . S
H87 C69 0.930 . S
H88 C71 0.930 . S
H89 C72 0.931 . S
N90 C52 1.343 1_455 S
N90 C73 1.343 . S
N91 C59 1.343 . S
N91 C66 1.343 1_655 S
C92 C93 1.384 . S
C92 C94 1.384 . S
C92 H120 0.931 . S
C93 C92 1.384 . S
C93 C96 1.382 . S
C94 C92 1.384 . S
C94 C95 1.381 . S
C94 H121 0.930 . S
C95 C94 1.381 . S
C95 C97 1.381 . S
C95 C98 1.487 . S
C96 C93 1.382 . S
C96 C97 1.387 . S
C96 H122 0.930 . S
C97 C95 1.381 . S
C97 C96 1.387 . S
C97 H123 0.931 . S
C98 C95 1.487 . S
C98 C105 1.399 . S
C98 N136 1.343 . S
C99 C100 1.384 . S
C99 C101 1.384 . S
C99 H124 0.931 . S
C100 C99 1.384 . S
C100 C103 1.382 . S
C101 C99 1.384 . S
C101 C102 1.381 . S
C101 H125 0.930 . S
C102 C101 1.381 . S
C102 C104 1.381 . S
C102 C105 1.487 . S
C103 C100 1.382 . S
C103 C104 1.387 . S
C103 H126 0.930 . S
C104 C102 1.381 . S
C104 C103 1.387 . S
C104 H127 0.931 . S
C105 C98 1.399 . S
C105 C102 1.487 . S
C105 N137 1.343 . S
C106 C107 1.384 . S
C106 C108 1.384 . S
C106 H128 0.931 . S
C107 C106 1.384 . S
C107 C110 1.382 . S
C108 C106 1.384 . S
C108 C109 1.381 . S
C108 H129 0.930 . S
C109 C108 1.381 . S
C109 C111 1.381 . S
C109 C112 1.487 . S
C110 C107 1.382 . S
C110 C111 1.387 . S
C110 H130 0.930 . S
C111 C109 1.381 . S
C111 C110 1.387 . S
C111 H131 0.931 . S
C112 C109 1.487 . S
C112 C119 1.399 . S
C112 N137 1.343 . S
C113 C114 1.384 . S
C113 C115 1.384 . S
C113 H132 0.931 . S
C114 C113 1.384 . S
C114 C117 1.382 . S
C115 C113 1.384 . S
C115 C116 1.381 . S
C115 H133 0.930 . S
C116 C115 1.381 . S
C116 C118 1.381 . S
C116 C119 1.487 . S
C117 C114 1.382 . S
C117 C118 1.387 . S
C117 H134 0.930 . S
C118 C116 1.381 . S
C118 C117 1.387 . S
C118 H135 0.931 . S
C119 C112 1.399 . S
C119 C116 1.487 . S
C119 N136 1.343 . S
H120 C92 0.931 . S
H121 C94 0.930 . S
H122 C96 0.930 . S
H123 C97 0.931 . S
H124 C99 0.931 . S
H125 C101 0.930 . S
H126 C103 0.930 . S
H127 C104 0.931 . S
H128 C106 0.931 . S
H129 C108 0.930 . S
H130 C110 0.930 . S
H131 C111 0.931 . S
H132 C113 0.931 . S
H133 C115 0.930 . S
H134 C117 0.930 . S
H135 C118 0.931 . S
N136 C98 1.343 . S
N136 C119 1.343 . S
N137 C105 1.343 . S
N137 C112 1.343 . S
C138 C139 1.384 . S
C138 C140 1.384 . S
C138 H166 0.931 . S
C139 C138 1.384 . S
C139 C142 1.382 . S
C140 C138 1.384 . S
C140 C141 1.381 . S
C140 H167 0.930 . S
C141 C140 1.381 . S
C141 C143 1.381 . S
C141 C144 1.487 . S
C142 C139 1.382 . S
C142 C143 1.387 . S
C142 H168 0.930 . S
C143 C141 1.381 . S
C143 C142 1.387 . S
C143 H169 0.931 . S
C144 C141 1.487 . S
C144 C151 1.399 . S
C144 N182 1.343 1_565 S
C145 C146 1.384 . S
C145 C147 1.384 . S
C145 H170 0.931 . S
C146 C145 1.384 . S
C146 C149 1.382 . S
C147 C145 1.384 . S
C147 C148 1.381 . S
C147 H171 0.930 . S
C148 C147 1.381 . S
C148 C150 1.381 . S
C148 C151 1.487 . S
C149 C146 1.382 . S
C149 C150 1.387 . S
C149 H172 0.930 . S
C150 C148 1.381 . S
C150 C149 1.387 . S
C150 H173 0.931 . S
C151 C144 1.399 . S
C151 C148 1.487 . S
C151 N183 1.356 . S
C152 C153 1.384 . S
C152 C154 1.384 . S
C152 H174 0.931 . S
C153 C152 1.384 . S
C153 C156 1.382 . S
C154 C152 1.384 . S
C154 C155 1.381 . S
C154 H175 0.930 . S
C155 C154 1.381 . S
C155 C157 1.381 . S
C155 C158 1.487 . S
C156 C153 1.382 . S
C156 C157 1.387 . S
C156 H176 0.930 . S
C157 C155 1.381 . S
C157 C156 1.387 . S
C157 H177 0.931 . S
C158 C155 1.487 . S
C158 C165 1.399 . S
C158 N183 1.329 1_545 S
C159 C160 1.384 . S
C159 C161 1.384 . S
C159 H178 0.931 . S
C160 C159 1.384 . S
C160 C163 1.382 . S
C161 C159 1.384 . S
C161 C162 1.381 . S
C161 H179 0.930 . S
C162 C161 1.381 . S
C162 C164 1.381 . S
C162 C165 1.487 . S
C163 C160 1.382 . S
C163 C164 1.387 . S
C163 H180 0.930 . S
C164 C162 1.381 . S
C164 C163 1.387 . S
C164 H181 0.931 . S
C165 C158 1.399 . S
C165 C162 1.487 . S
C165 N182 1.343 . S
H166 C138 0.931 . S
H167 C140 0.930 . S
H168 C142 0.930 . S
H169 C143 0.931 . S
H170 C145 0.931 . S
H171 C147 0.930 . S
H172 C149 0.930 . S
H173 C150 0.931 . S
H174 C152 0.931 . S
H175 C154 0.930 . S
H176 C156 0.930 . S
H177 C157 0.931 . S
H178 C159 0.931 . S
H179 C161 0.930 . S
H180 C163 0.930 . S
H181 C164 0.931 . S
N182 C144 1.343 1_545 S
N182 C165 1.343 . S
N183 C151 1.356 . S
N183 C158 1.329 1_565 S
C184 C185 1.384 . S
C184 C186 1.384 . S
C184 H212 0.931 . S
C185 C184 1.384 . S
C185 C188 1.382 . S
C186 C184 1.384 . S
C186 C187 1.381 . S
C186 H213 0.930 . S
C187 C186 1.381 . S
C187 C189 1.381 . S
C187 C190 1.487 . S
C188 C185 1.382 . S
C188 C189 1.387 . S
C188 H214 0.930 . S
C189 C187 1.381 . S
C189 C188 1.387 . S
C189 H215 0.931 . S
C190 C187 1.487 . S
C190 C197 1.399 . S
C190 N228 1.343 . S
C191 C192 1.384 . S
C191 C193 1.384 . S
C191 H216 0.931 . S
C192 C191 1.384 . S
C192 C195 1.382 . S
C193 C191 1.384 . S
C193 C194 1.381 . S
C193 H217 0.930 . S
C194 C193 1.381 . S
C194 C196 1.381 . S
C194 C197 1.487 . S
C195 C192 1.382 . S
C195 C196 1.387 . S
C195 H218 0.930 . S
C196 C194 1.381 . S
C196 C195 1.387 . S
C196 H219 0.931 . S
C197 C190 1.399 . S
C197 C194 1.487 . S
C197 N229 1.343 1_455 S
C198 C199 1.384 . S
C198 C200 1.384 . S
C198 H220 0.931 . S
C199 C198 1.384 . S
C199 C202 1.382 . S
C200 C198 1.384 . S
C200 C201 1.381 . S
C200 H221 0.930 . S
C201 C200 1.381 . S
C201 C203 1.381 . S
C201 C204 1.487 . S
C202 C199 1.382 . S
C202 C203 1.387 . S
C202 H222 0.930 . S
C203 C201 1.381 . S
C203 C202 1.387 . S
C203 H223 0.931 . S
C204 C201 1.487 . S
C204 C211 1.399 . S
C204 N229 1.343 . S
C205 C206 1.384 . S
C205 C207 1.384 . S
C205 H224 0.931 . S
C206 C205 1.384 . S
C206 C209 1.382 . S
C207 C205 1.384 . S
C207 C208 1.381 . S
C207 H225 0.930 . S
C208 C207 1.381 . S
C208 C210 1.381 . S
C208 C211 1.487 . S
C209 C206 1.382 . S
C209 C210 1.387 . S
C209 H226 0.930 . S
C210 C208 1.381 . S
C210 C209 1.387 . S
C210 H227 0.931 . S
C211 C204 1.399 . S
C211 C208 1.487 . S
C211 N228 1.343 1_655 S
H212 C184 0.931 . S
H213 C186 0.930 . S
H214 C188 0.930 . S
H215 C189 0.931 . S
H216 C191 0.931 . S
H217 C193 0.930 . S
H218 C195 0.930 . S
H219 C196 0.931 . S
H220 C198 0.931 . S
H221 C200 0.930 . S
H222 C202 0.930 . S
H223 C203 0.931 . S
H224 C205 0.931 . S
H225 C207 0.930 . S
H226 C209 0.930 . S
H227 C210 0.931 . S
N228 C190 1.343 . S
N228 C211 1.343 1_455 S
N229 C197 1.343 1_655 S
N229 C204 1.343 . S
C230 C231 1.384 . S
C230 C232 1.384 . S
C230 H258 0.931 . S
C231 C230 1.384 . S
C231 C234 1.382 . S
C232 C230 1.384 . S
C232 C233 1.381 . S
C232 H259 0.930 . S
C233 C232 1.381 . S
C233 C235 1.381 . S
C233 C236 1.487 . S
C234 C231 1.382 . S
C234 C235 1.387 . S
C234 H260 0.930 . S
C235 C233 1.381 . S
C235 C234 1.387 . S
C235 H261 0.931 . S
C236 C233 1.487 . S
C236 C243 1.399 . S
C236 N274 1.343 . S
C237 C238 1.384 . S
C237 C239 1.384 . S
C237 H262 0.931 . S
C238 C237 1.384 . S
C238 C241 1.382 . S
C239 C237 1.384 . S
C239 C240 1.381 . S
C239 H263 0.930 . S
C240 C239 1.381 . S
C240 C242 1.381 . S
C240 C243 1.487 . S
C241 C238 1.382 . S
C241 C242 1.387 . S
C241 H264 0.930 . S
C242 C240 1.381 . S
C242 C241 1.387 . S
C242 H265 0.931 . S
C243 C236 1.399 . S
C243 C240 1.487 . S
C243 N275 1.343 . S
C244 C245 1.384 . S
C244 C246 1.384 . S
C244 H266 0.931 . S
C245 C244 1.384 . S
C245 C248 1.382 . S
C246 C244 1.384 . S
C246 C247 1.381 . S
C246 H267 0.930 . S
C247 C246 1.381 . S
C247 C249 1.381 . S
C247 C250 1.487 . S
C248 C245 1.382 . S
C248 C249 1.387 . S
C248 H268 0.930 . S
C249 C247 1.381 . S
C249 C248 1.387 . S
C249 H269 0.931 . S
C250 C247 1.487 . S
C250 C257 1.399 . S
C250 N275 1.343 . S
C251 C252 1.384 . S
C251 C253 1.384 . S
C251 H270 0.931 . S
C252 C251 1.384 . S
C252 C255 1.382 . S
C253 C251 1.384 . S
C253 C254 1.381 . S
C253 H271 0.930 . S
C254 C253 1.381 . S
C254 C256 1.381 . S
C254 C257 1.487 . S
C255 C252 1.382 . S
C255 C256 1.387 . S
C255 H272 0.930 . S
C256 C254 1.381 . S
C256 C255 1.387 . S
C256 H273 0.931 . S
C257 C250 1.399 . S
C257 C254 1.487 . S
C257 N274 1.343 . S
H258 C230 0.931 . S
H259 C232 0.930 . S
H260 C234 0.930 . S
H261 C235 0.931 . S
H262 C237 0.931 . S
H263 C239 0.930 . S
H264 C241 0.930 . S
H265 C242 0.931 . S
H266 C244 0.931 . S
H267 C246 0.930 . S
H268 C248 0.930 . S
H269 C249 0.931 . S
H270 C251 0.931 . S
H271 C253 0.930 . S
H272 C255 0.930 . S
H273 C256 0.931 . S
N274 C236 1.343 . S
N274 C257 1.343 . S
N275 C243 1.343 . S
N275 C250 1.343 . S
C276 C277 1.384 . S
C276 C278 1.384 . S
C276 H304 0.931 . S
C277 C276 1.384 . S
C277 C280 1.382 . S
C278 C276 1.384 . S
C278 C279 1.381 . S
C278 H305 0.930 . S
C279 C278 1.381 . S
C279 C281 1.381 . S
C279 C282 1.487 . S
C280 C277 1.382 . S
C280 C281 1.387 . S
C280 H306 0.930 . S
C281 C279 1.381 . S
C281 C280 1.387 . S
C281 H307 0.931 1_565 S
C282 C279 1.487 . S
C282 C289 1.399 . S
C282 N320 1.343 1_565 S
C283 C284 1.384 . S
C283 C285 1.384 . S
C283 H308 0.931 . S
C284 C283 1.384 . S
C284 C287 1.382 . S
C285 C283 1.384 . S
C285 C286 1.381 . S
C285 H309 0.930 . S
C286 C285 1.381 . S
C286 C288 1.381 . S
C286 C289 1.487 . S
C287 C284 1.382 . S
C287 C288 1.387 . S
C287 H310 0.930 . S
C288 C286 1.381 . S
C288 C287 1.387 . S
C288 H311 0.931 . S
C289 C282 1.399 . S
C289 C286 1.487 . S
C289 N321 1.343 . S
C290 C291 1.384 . S
C290 C292 1.384 . S
C290 H312 0.931 . S
C291 C290 1.384 . S
C291 C294 1.382 . S
C292 C290 1.384 . S
C292 C293 1.381 . S
C292 H313 0.930 . S
C293 C292 1.381 . S
C293 C295 1.381 . S
C293 C296 1.487 . S
C294 C291 1.382 . S
C294 C295 1.387 . S
C294 H314 0.930 . S
C295 C293 1.381 . S
C295 C294 1.387 . S
C295 H315 0.931 1_545 S
C296 C293 1.487 . S
C296 C303 1.399 . S
C296 N321 1.343 1_545 S
C297 C298 1.384 . S
C297 C299 1.384 . S
C297 H316 0.931 . S
C298 C297 1.384 . S
C298 C301 1.382 . S
C299 C297 1.384 . S
C299 C300 1.381 . S
C299 H317 0.930 . S
C300 C299 1.381 . S
C300 C302 1.381 . S
C300 C303 1.487 . S
C301 C298 1.382 . S
C301 C302 1.387 . S
C301 H318 0.930 . S
C302 C300 1.381 . S
C302 C301 1.387 . S
C302 H319 0.931 . S
C303 C296 1.399 . S
C303 C300 1.487 . S
C303 N320 1.343 . S
H304 C276 0.931 . S
H305 C278 0.930 . S
H306 C280 0.930 . S
H307 C281 0.931 1_545 S
H308 C283 0.931 . S
H309 C285 0.930 . S
H310 C287 0.930 . S
H311 C288 0.931 . S
H312 C290 0.931 . S
H313 C292 0.930 . S
H314 C294 0.930 . S
H315 C295 0.931 1_565 S
H316 C297 0.931 . S
H317 C299 0.930 . S
H318 C301 0.930 . S
H319 C302 0.931 . S
N320 C282 1.343 1_545 S
N320 C303 1.343 . S
N321 C289 1.343 . S
N321 C296 1.343 1_565 S
C322 C323 1.384 . S
C322 C324 1.384 . S
C322 H350 0.931 . S
C323 C322 1.384 . S
C323 C326 1.382 . S
C324 C322 1.384 . S
C324 C325 1.381 . S
C324 H351 0.930 . S
C325 C324 1.381 . S
C325 C327 1.381 . S
C325 C328 1.487 . S
C326 C323 1.382 . S
C326 C327 1.387 . S
C326 H352 0.930 . S
C327 C325 1.381 . S
C327 C326 1.387 . S
C327 H353 0.931 1_455 S
C328 C325 1.487 . S
C328 C335 1.399 . S
C328 N366 1.343 1_455 S
C329 C330 1.384 . S
C329 C331 1.384 . S
C329 H354 0.931 . S
C330 C329 1.384 . S
C330 C333 1.382 . S
C331 C329 1.384 . S
C331 C332 1.381 . S
C331 H355 0.930 . S
C332 C331 1.381 . S
C332 C334 1.381 . S
C332 C335 1.487 . S
C333 C330 1.382 . S
C333 C334 1.387 . S
C333 H356 0.930 . S
C334 C332 1.381 . S
C334 C333 1.387 . S
C334 H357 0.931 . S
C335 C328 1.399 . S
C335 C332 1.487 . S
C335 N367 1.343 1_565 S
C336 C337 1.384 . S
C336 C338 1.384 . S
C336 H358 0.931 . S
C337 C336 1.384 . S
C337 C340 1.382 . S
C338 C336 1.384 . S
C338 C339 1.381 . S
C338 H359 0.930 . S
C339 C338 1.381 . S
C339 C341 1.381 . S
C339 C342 1.487 . S
C340 C337 1.382 . S
C340 C341 1.387 . S
C340 H360 0.930 . S
C341 C339 1.381 . S
C341 C340 1.387 . S
C341 H361 0.931 1_655 S
C342 C339 1.487 . S
C342 C349 1.399 . S
C342 N367 1.343 1_655 S
C343 C344 1.384 . S
C343 C345 1.384 . S
C343 H362 0.931 . S
C344 C343 1.384 . S
C344 C347 1.382 . S
C345 C343 1.384 . S
C345 C346 1.381 . S
C345 H363 0.930 . S
C346 C345 1.381 . S
C346 C348 1.381 . S
C346 C349 1.487 . S
C347 C344 1.382 . S
C347 C348 1.387 . S
C347 H364 0.930 . S
C348 C346 1.381 . S
C348 C347 1.387 . S
C348 H365 0.931 . S
C349 C342 1.399 . S
C349 C346 1.487 . S
C349 N366 1.343 1_545 S
H350 C322 0.931 . S
H351 C324 0.930 . S
H352 C326 0.930 . S
H353 C327 0.931 1_655 S
H354 C329 0.931 . S
H355 C331 0.930 . S
H356 C333 0.930 . S
H357 C334 0.931 . S
H358 C336 0.931 . S
H359 C338 0.930 . S
H360 C340 0.930 . S
H361 C341 0.931 1_455 S
H362 C343 0.931 . S
H363 C345 0.930 . S
H364 C347 0.930 . S
H365 C348 0.931 . S
N366 C328 1.343 1_655 S
N366 C349 1.343 1_565 S
N367 C335 1.343 1_545 S
N367 C342 1.343 1_455 S
In368 O369 2.294 . S
In368 O370 2.326 . S
In368 O374 2.266 1_554 S
In368 O375 2.326 1_554 S
In368 O376 2.266 1_554 S
In368 O377 2.326 1_554 S
In368 O379 2.294 . S
In368 O380 2.326 . S
O369 In368 2.294 . S
O369 C378 1.240 . S
O370 In368 2.326 . S
O370 C378 1.252 . S
C371 O374 1.252 . S
C371 O375 1.260 . S
C372 O379 1.240 . S
C372 O380 1.252 . S
C373 O376 1.252 . S
C373 O377 1.260 . S
O374 In368 2.266 1_556 S
O374 C371 1.252 . S
O375 In368 2.326 1_556 S
O375 C371 1.260 . S
O376 In368 2.266 1_556 S
O376 C373 1.252 . S
O377 In368 2.326 1_556 S
O377 C373 1.260 . S
C378 O369 1.240 . S
C378 O370 1.252 . S
O379 In368 2.294 . S
O379 C372 1.240 . S
O380 In368 2.326 . S
O380 C372 1.252 . S
In381 O382 2.294 . S
In381 O383 2.326 . S
In381 O387 2.266 . S
In381 O388 2.326 . S
In381 O389 2.266 . S
In381 O390 2.326 . S
In381 O392 2.294 . S
In381 O393 2.326 . S
O382 In381 2.294 . S
O382 C391 1.240 . S
O383 In381 2.326 . S
O383 C391 1.252 . S
C384 O387 1.252 . S
C384 O388 1.260 . S
C385 O392 1.240 . S
C385 O393 1.252 . S
C386 O389 1.252 . S
C386 O390 1.260 . S
O387 In381 2.266 . S
O387 C384 1.252 . S
O388 In381 2.326 . S
O388 C384 1.260 . S
O389 In381 2.266 . S
O389 C386 1.252 . S
O390 In381 2.326 . S
O390 C386 1.260 . S
C391 O382 1.240 . S
C391 O383 1.252 . S
O392 In381 2.294 . S
O392 C385 1.240 . S
O393 In381 2.326 . S
O393 C385 1.252 . S
In394 O395 2.294 . S
In394 O396 2.326 . S
In394 O400 2.266 . S
In394 O401 2.326 . S
In394 O402 2.266 . S
In394 O403 2.326 . S
In394 O405 2.294 . S
In394 O406 2.326 . S
O395 In394 2.294 . S
O395 C404 1.240 . S
O396 In394 2.326 . S
O396 C404 1.252 . S
C397 O400 1.252 . S
C397 O401 1.260 . S
C398 O405 1.240 . S
C398 O406 1.252 . S
C399 O402 1.252 . S
C399 O403 1.260 . S
O400 In394 2.266 . S
O400 C397 1.252 . S
O401 In394 2.326 . S
O401 C397 1.260 . S
O402 In394 2.266 . S
O402 C399 1.252 . S
O403 In394 2.326 . S
O403 C399 1.260 . S
C404 O395 1.240 . S
C404 O396 1.252 . S
O405 In394 2.294 . S
O405 C398 1.240 . S
O406 In394 2.326 . S
O406 C398 1.252 . S
In407 O408 2.294 . S
In407 O409 2.326 . S
In407 O413 2.266 . S
In407 O414 2.326 . S
In407 O415 2.266 . S
In407 O416 2.326 . S
In407 O418 2.294 . S
In407 O419 2.326 . S
O408 In407 2.294 . S
O408 C417 1.240 . S
O409 In407 2.326 . S
O409 C417 1.252 . S
C410 O413 1.252 . S
C410 O414 1.260 . S
C411 O418 1.240 . S
C411 O419 1.252 . S
C412 O415 1.252 . S
C412 O416 1.260 . S
O413 In407 2.266 . S
O413 C410 1.252 . S
O414 In407 2.326 . S
O414 C410 1.260 . S
O415 In407 2.266 . S
O415 C412 1.252 . S
O416 In407 2.326 . S
O416 C412 1.260 . S
C417 O408 1.240 . S
C417 O409 1.252 . S
O418 In407 2.294 . S
O418 C411 1.240 . S
O419 In407 2.326 . S
O419 C411 1.252 . S
In420 O421 2.294 . S
In420 O422 2.326 . S
In420 O426 2.266 . S
In420 O427 2.326 . S
In420 O428 2.266 . S
In420 O429 2.326 . S
In420 O431 2.294 . S
In420 O432 2.326 . S
O421 In420 2.294 . S
O421 C430 1.240 . S
O422 In420 2.326 . S
O422 C430 1.252 . S
C423 O426 1.252 . S
C423 O427 1.260 . S
C424 O431 1.240 . S
C424 O432 1.252 . S
C425 O428 1.252 . S
C425 O429 1.260 . S
O426 In420 2.266 . S
O426 C423 1.252 . S
O427 In420 2.326 . S
O427 C423 1.260 . S
O428 In420 2.266 . S
O428 C425 1.252 . S
O429 In420 2.326 . S
O429 C425 1.260 . S
C430 O421 1.240 . S
C430 O422 1.252 . S
O431 In420 2.294 . S
O431 C424 1.240 . S
O432 In420 2.326 . S
O432 C424 1.252 . S
In433 O434 2.294 . S
In433 O435 2.326 . S
In433 O439 2.266 . S
In433 O440 2.326 . S
In433 O441 2.266 . S
In433 O442 2.326 . S
In433 O444 2.294 . S
In433 O445 2.326 . S
O434 In433 2.294 . S
O434 C443 1.240 . S
O435 In433 2.326 . S
O435 C443 1.252 . S
C436 O439 1.252 . S
C436 O440 1.260 . S
C437 O444 1.240 . S
C437 O445 1.252 . S
C438 O441 1.252 . S
C438 O442 1.260 . S
O439 In433 2.266 . S
O439 C436 1.252 . S
O440 In433 2.326 . S
O440 C436 1.260 . S
O441 In433 2.266 . S
O441 C438 1.252 . S
O442 In433 2.326 . S
O442 C438 1.260 . S
C443 O434 1.240 . S
C443 O435 1.252 . S
O444 In433 2.294 . S
O444 C437 1.240 . S
O445 In433 2.326 . S
O445 C437 1.252 . S
In446 O447 2.294 . S
In446 O448 2.326 . S
In446 O452 2.266 1_554 S
In446 O453 2.326 1_554 S
In446 O454 2.266 1_554 S
In446 O455 2.326 1_554 S
In446 O457 2.294 . S
In446 O458 2.326 . S
O447 In446 2.294 . S
O447 C456 1.240 . S
O448 In446 2.326 . S
O448 C456 1.252 . S
C449 O452 1.252 . S
C449 O453 1.260 . S
C450 O457 1.240 . S
C450 O458 1.252 . S
C451 O454 1.252 . S
C451 O455 1.260 . S
O452 In446 2.266 1_556 S
O452 C449 1.252 . S
O453 In446 2.326 1_556 S
O453 C449 1.260 . S
O454 In446 2.266 1_556 S
O454 C451 1.252 . S
O455 In446 2.326 1_556 S
O455 C451 1.260 . S
C456 O447 1.240 . S
C456 O448 1.252 . S
O457 In446 2.294 . S
O457 C450 1.240 . S
O458 In446 2.326 . S
O458 C450 1.252 . S
In459 O460 2.294 . S
In459 O461 2.326 . S
In459 O465 2.266 . S
In459 O466 2.326 . S
In459 O467 2.266 . S
In459 O468 2.326 . S
In459 O470 2.294 . S
In459 O471 2.326 . S
O460 In459 2.294 . S
O460 C469 1.240 . S
O461 In459 2.326 . S
O461 C469 1.252 . S
C462 O465 1.252 . S
C462 O466 1.260 . S
C463 O470 1.240 . S
C463 O471 1.252 . S
C464 O467 1.252 . S
C464 O468 1.260 . S
O465 In459 2.266 . S
O465 C462 1.252 . S
O466 In459 2.326 . S
O466 C462 1.260 . S
O467 In459 2.266 . S
O467 C464 1.252 . S
O468 In459 2.326 . S
O468 C464 1.260 . S
C469 O460 1.240 . S
C469 O461 1.252 . S
O470 In459 2.294 . S
O470 C463 1.240 . S
O471 In459 2.326 . S
O471 C463 1.252 . S
C472 C473 1.363 . S
C472 C478 1.379 . S
C472 N480 1.356 . S
C473 C472 1.363 . S
C473 C479 1.363 . S
C474 C475 1.363 . S
C474 C479 1.379 . S
C474 N481 1.356 . S
C475 C474 1.363 . S
C475 C478 1.363 . S
N476 C478 1.356 . S
N476 H488 0.984 . S
N476 H489 0.985 . S
N477 C479 1.356 . S
N477 H482 0.984 . S
N477 H483 0.985 . S
C478 C472 1.379 . S
C478 C475 1.363 . S
C478 N476 1.356 . S
C479 C473 1.363 . S
C479 C474 1.379 . S
C479 N477 1.356 . S
N480 C472 1.356 . S
N480 H486 0.984 . S
N480 H487 0.984 . S
N481 C474 1.356 . S
N481 H484 0.984 . S
N481 H485 0.985 . S
H482 N477 0.984 . S
H483 N477 0.985 . S
H484 N481 0.984 . S
H485 N481 0.985 . S
H486 N480 0.984 . S
H487 N480 0.984 . S
H488 N476 0.984 . S
H489 N476 0.985 . S
C490 C491 1.363 . S
C490 C496 1.379 . S
C490 N498 1.356 . S
C491 C490 1.363 . S
C491 C497 1.363 . S
C492 C493 1.363 . S
C492 C497 1.379 . S
C492 N499 1.356 . S
C493 C492 1.363 . S
C493 C496 1.363 . S
N494 C496 1.356 . S
N494 H506 0.984 . S
N494 H507 0.985 . S
N495 C497 1.356 . S
N495 H500 0.984 . S
N495 H501 0.985 . S
C496 C490 1.379 . S
C496 C493 1.363 . S
C496 N494 1.356 . S
C497 C491 1.363 . S
C497 C492 1.379 . S
C497 N495 1.356 . S
N498 C490 1.356 . S
N498 H504 0.984 . S
N498 H505 0.984 . S
N499 C492 1.356 . S
N499 H502 0.984 . S
N499 H503 0.985 . S
H500 N495 0.984 . S
H501 N495 0.985 . S
H502 N499 0.984 . S
H503 N499 0.985 . S
H504 N498 0.984 . S
H505 N498 0.984 . S
H506 N494 0.984 . S
H507 N494 0.985 . S
C508 C509 1.363 . S
C508 C514 1.379 . S
C508 N516 1.356 . S
C509 C508 1.363 . S
C509 C515 1.363 . S
C510 C511 1.363 . S
C510 C515 1.379 . S
C510 N517 1.356 . S
C511 C510 1.363 . S
C511 C514 1.363 . S
N512 C514 1.356 . S
N512 H524 0.984 . S
N512 H525 0.985 . S
N513 C515 1.356 . S
N513 H518 0.984 . S
N513 H519 0.985 . S
C514 C508 1.379 . S
C514 C511 1.363 . S
C514 N512 1.356 . S
C515 C509 1.363 . S
C515 C510 1.379 . S
C515 N513 1.356 . S
N516 C508 1.356 . S
N516 H522 0.984 . S
N516 H523 0.984 . S
N517 C510 1.356 . S
N517 H520 0.984 . S
N517 H521 0.985 . S
H518 N513 0.984 . S
H519 N513 0.985 . S
H520 N517 0.984 . S
H521 N517 0.985 . S
H522 N516 0.984 . S
H523 N516 0.984 . S
H524 N512 0.984 . S
H525 N512 0.985 . S
C526 C527 1.363 . S
C526 C532 1.379 . S
C526 N534 1.356 . S
C527 C526 1.363 . S
C527 C533 1.363 . S
C528 C529 1.363 . S
C528 C533 1.379 . S
C528 N535 1.356 . S
C529 C528 1.363 . S
C529 C532 1.363 . S
N530 C532 1.356 . S
N530 H542 0.984 . S
N530 H543 0.985 . S
N531 C533 1.356 . S
N531 H536 0.984 . S
N531 H537 0.985 . S
C532 C526 1.379 . S
C532 C529 1.363 . S
C532 N530 1.356 . S
C533 C527 1.363 . S
C533 C528 1.379 . S
C533 N531 1.356 . S
N534 C526 1.356 . S
N534 H540 0.984 . S
N534 H541 0.984 . S
N535 C528 1.356 . S
N535 H538 0.984 . S
N535 H539 0.985 1_554 S
H536 N531 0.984 . S
H537 N531 0.985 . S
H538 N535 0.984 . S
H539 N535 0.985 1_556 S
H540 N534 0.984 . S
H541 N534 0.984 . S
H542 N530 0.984 . S
H543 N530 0.985 . S
C544 C545 1.363 . S
C544 C550 1.379 . S
C544 N552 1.356 . S
C545 C544 1.363 . S
C545 C551 1.363 . S
C546 C547 1.363 . S
C546 C551 1.379 . S
C546 N553 1.356 . S
C547 C546 1.363 . S
C547 C550 1.363 . S
N548 C550 1.356 1_554 S
N548 H560 0.984 . S
N548 H561 0.985 . S
N549 C551 1.356 . S
N549 H554 0.984 . S
N549 H555 0.985 . S
C550 C544 1.379 . S
C550 C547 1.363 . S
C550 N548 1.356 1_556 S
C551 C545 1.363 . S
C551 C546 1.379 . S
C551 N549 1.356 . S
N552 C544 1.356 . S
N552 H558 1.007 . S
N552 H559 0.984 . S
N553 C546 1.356 . S
N553 H556 0.984 . S
N553 H557 0.985 . S
H554 N549 0.984 . S
H555 N549 0.985 . S
H556 N553 0.984 . S
H557 N553 0.985 . S
H558 N552 1.007 . S
H559 N552 0.984 . S
H560 N548 0.984 . S
H561 N548 0.985 . S
C562 C563 1.363 . S
C562 C568 1.379 . S
C562 N570 1.356 . S
C563 C562 1.363 . S
C563 C569 1.363 . S
C564 C565 1.363 . S
C564 C569 1.379 . S
C564 N571 1.356 . S
C565 C564 1.363 . S
C565 C568 1.363 . S
N566 C568 1.356 . S
N566 H578 0.984 . S
N566 H579 0.985 . S
N567 C569 1.356 . S
N567 H572 0.984 . S
N567 H573 0.985 . S
C568 C562 1.379 . S
C568 C565 1.363 . S
C568 N566 1.356 . S
C569 C563 1.363 . S
C569 C564 1.379 . S
C569 N567 1.356 . S
N570 C562 1.356 . S
N570 H576 0.984 . S
N570 H577 0.984 . S
N571 C564 1.356 . S
N571 H574 0.984 . S
N571 H575 0.985 . S
H572 N567 0.984 . S
H573 N567 0.985 . S
H574 N571 0.984 . S
H575 N571 0.985 . S
H576 N570 0.984 . S
H577 N570 0.984 . S
H578 N566 0.984 . S
H579 N566 0.985 . S
C580 C581 1.363 . S
C580 C586 1.379 . S
C580 N588 1.356 . S
C581 C580 1.363 . S
C581 C587 1.363 . S
C582 C583 1.363 . S
C582 C587 1.379 . S
C582 N589 1.356 . S
C583 C582 1.363 . S
C583 C586 1.363 . S
N584 C586 1.356 . S
N584 H596 0.984 . S
N584 H597 0.985 . S
N585 C587 1.356 . S
N585 H590 0.984 . S
N585 H591 0.985 . S
C586 C580 1.379 . S
C586 C583 1.363 . S
C586 N584 1.356 . S
C587 C581 1.363 . S
C587 C582 1.379 . S
C587 N585 1.356 . S
N588 C580 1.356 . S
N588 H594 0.984 . S
N588 H595 0.984 . S
N589 C582 1.356 . S
N589 H592 0.984 . S
N589 H593 0.985 . S
H590 N585 0.984 . S
H591 N585 0.985 . S
H592 N589 0.984 . S
H593 N589 0.985 . S
H594 N588 0.984 . S
H595 N588 0.984 . S
H596 N584 0.984 . S
H597 N584 0.985 . S
C598 C599 1.363 . S
C598 C604 1.379 . S
C598 N606 1.356 . S
C599 C598 1.363 . S
C599 C605 1.363 . S
C600 C601 1.363 . S
C600 C605 1.379 . S
C600 N607 1.356 . S
C601 C600 1.363 . S
C601 C604 1.363 . S
N602 C604 1.356 . S
N602 H614 0.984 . S
N602 H615 0.985 . S
N603 C605 1.356 . S
N603 H608 0.984 . S
N603 H609 0.985 . S
C604 C598 1.379 . S
C604 C601 1.363 . S
C604 N602 1.356 . S
C605 C599 1.363 . S
C605 C600 1.379 . S
C605 N603 1.356 . S
N606 C598 1.356 . S
N606 H612 0.984 . S
N606 H613 0.984 . S
N607 C600 1.356 . S
N607 H610 0.984 . S
N607 H611 0.985 . S
H608 N603 0.984 . S
H609 N603 0.985 . S
H610 N607 0.984 . S
H611 N607 0.985 . S
H612 N606 0.984 . S
H613 N606 0.984 . S
H614 N602 0.984 . S
H615 N602 0.985 . S
C616 C617 1.363 . S
C616 C622 1.379 . S
C616 N624 1.356 . S
C617 C616 1.363 . S
C617 C623 1.363 . S
C618 C619 1.363 . S
C618 C623 1.379 . S
C618 N625 1.356 . S
C619 C618 1.363 . S
C619 C622 1.363 . S
N620 C622 1.356 . S
N620 H632 0.984 . S
N620 H633 0.985 . S
N621 C623 1.356 . S
N621 H626 0.984 . S
N621 H627 0.985 . S
C622 C616 1.379 . S
C622 C619 1.363 . S
C622 N620 1.356 . S
C623 C617 1.363 . S
C623 C618 1.379 . S
C623 N621 1.356 . S
N624 C616 1.356 . S
N624 H630 0.984 . S
N624 H631 0.984 . S
N625 C618 1.356 . S
N625 H628 0.984 . S
N625 H629 0.985 . S
H626 N621 0.984 . S
H627 N621 0.985 . S
H628 N625 0.984 . S
H629 N625 0.985 . S
H630 N624 0.984 . S
H631 N624 0.984 . S
H632 N620 0.984 . S
H633 N620 0.985 . S
C634 C635 1.363 . S
C634 C640 1.379 . S
C634 N642 1.356 . S
C635 C634 1.363 . S
C635 C641 1.363 . S
C636 C637 1.363 . S
C636 C641 1.379 . S
C636 N643 1.356 . S
C637 C636 1.363 . S
C637 C640 1.363 . S
N638 C640 1.356 1_556 S
N638 H650 0.984 . S
N638 H651 0.985 . S
N639 C641 1.356 . S
N639 H644 0.984 . S
N639 H645 0.985 . S
C640 C634 1.379 . S
C640 C637 1.363 . S
C640 N638 1.356 1_554 S
C641 C635 1.363 . S
C641 C636 1.379 . S
C641 N639 1.356 . S
N642 C634 1.356 . S
N642 H648 0.984 . S
N642 H649 0.984 . S
N643 C636 1.356 . S
N643 H646 0.984 . S
N643 H647 0.985 . S
H644 N639 0.984 . S
H645 N639 0.985 . S
H646 N643 0.984 . S
H647 N643 0.985 . S
H648 N642 0.984 . S
H649 N642 0.984 . S
H650 N638 0.984 . S
H651 N638 0.985 . S
C652 C653 1.363 . S
C652 C658 1.379 . S
C652 N660 1.356 . S
C653 C652 1.363 . S
C653 C659 1.363 . S
C654 C655 1.363 . S
C654 C659 1.379 . S
C654 N661 1.356 . S
C655 C654 1.363 . S
C655 C658 1.363 . S
N656 C658 1.356 . S
N656 H668 0.984 . S
N656 H669 0.985 . S
N657 C659 1.356 . S
N657 H662 0.984 . S
N657 H663 0.985 . S
C658 C652 1.379 . S
C658 C655 1.363 . S
C658 N656 1.356 . S
C659 C653 1.363 . S
C659 C654 1.379 . S
C659 N657 1.356 . S
N660 C652 1.356 . S
N660 H666 0.984 . S
N660 H667 0.984 . S
N661 C654 1.356 . S
N661 H664 0.984 . S
N661 H665 0.985 . S
H662 N657 0.984 . S
H663 N657 0.985 . S
H664 N661 0.984 . S
H665 N661 0.985 . S
H666 N660 0.984 . S
H667 N660 0.984 . S
H668 N656 0.984 . S
H669 N656 0.985 . S
C670 C671 1.363 . S
C670 C676 1.379 . S
C670 N678 1.356 . S
C671 C670 1.363 . S
C671 C677 1.363 . S
C672 C673 1.363 . S
C672 C677 1.379 . S
C672 N679 1.356 . S
C673 C672 1.363 . S
C673 C676 1.363 . S
N674 C676 1.356 . S
N674 H686 0.984 . S
N674 H687 0.985 . S
N675 C677 1.356 . S
N675 H680 0.984 . S
N675 H681 0.985 . S
C676 C670 1.379 . S
C676 C673 1.363 . S
C676 N674 1.356 . S
C677 C671 1.363 . S
C677 C672 1.379 . S
C677 N675 1.356 . S
N678 C670 1.356 . S
N678 H684 0.984 . S
N678 H685 0.984 . S
N679 C672 1.356 . S
N679 H682 0.984 . S
N679 H683 0.985 . S
H680 N675 0.984 . S
H681 N675 0.985 . S
H682 N679 0.984 . S
H683 N679 0.985 . S
H684 N678 0.984 . S
H685 N678 0.984 . S
H686 N674 0.984 . S
H687 N674 0.985 . S
C688 C689 1.363 . S
C688 C694 1.379 . S
C688 N696 1.356 . S
C689 C688 1.363 . S
C689 C695 1.363 . S
C690 C691 1.363 . S
C690 C695 1.379 . S
C690 N697 1.356 . S
C691 C690 1.363 . S
C691 C694 1.363 . S
N692 C694 1.356 . S
N692 H704 0.984 . S
N692 H705 0.985 . S
N693 C695 1.356 . S
N693 H698 0.984 . S
N693 H699 0.985 . S
C694 C688 1.379 . S
C694 C691 1.363 . S
C694 N692 1.356 . S
C695 C689 1.363 . S
C695 C690 1.379 . S
C695 N693 1.356 . S
N696 C688 1.356 . S
N696 H702 0.984 . S
N696 H703 0.984 . S
N697 C690 1.356 . S
N697 H700 0.984 . S
N697 H701 0.985 . S
H698 N693 0.984 . S
H699 N693 0.985 . S
H700 N697 0.984 . S
H701 N697 0.985 . S
H702 N696 0.984 . S
H703 N696 0.984 . S
H704 N692 0.984 . S
H705 N692 0.985 . S
C706 C707 1.363 . S
C706 C712 1.379 . S
C706 N714 1.356 . S
C707 C706 1.363 . S
C707 C713 1.363 . S
C708 C709 1.363 . S
C708 C713 1.379 . S
C708 N715 1.356 . S
C709 C708 1.363 . S
C709 C712 1.363 . S
N710 C712 1.356 . S
N710 H722 0.984 . S
N710 H723 0.985 . S
N711 C713 1.356 . S
N711 H716 0.984 . S
N711 H717 0.985 . S
C712 C706 1.379 . S
C712 C709 1.363 . S
C712 N710 1.356 . S
C713 C707 1.363 . S
C713 C708 1.379 . S
C713 N711 1.356 . S
N714 C706 1.356 . S
N714 H720 0.984 . S
N714 H721 0.984 . S
N715 C708 1.356 . S
N715 H718 0.984 . S
N715 H719 0.985 . S
H716 N711 0.984 . S
H717 N711 0.985 . S
H718 N715 0.984 . S
H719 N715 0.985 . S
H720 N714 0.984 . S
H721 N714 0.984 . S
H722 N710 0.984 . S
H723 N710 0.985 . S
C724 C725 1.363 . S
C724 C730 1.379 . S
C724 N732 1.356 . S
C725 C724 1.363 . S
C725 C731 1.363 . S
C726 C727 1.363 . S
C726 C731 1.379 . S
C726 N733 1.356 . S
C727 C726 1.363 . S
C727 C730 1.363 . S
N728 C730 1.356 . S
N728 H740 0.984 . S
N728 H741 0.985 . S
N729 C731 1.356 . S
N729 H734 0.984 . S
N729 H735 0.985 . S
C730 C724 1.379 . S
C730 C727 1.363 . S
C730 N728 1.356 . S
C731 C725 1.363 . S
C731 C726 1.379 . S
C731 N729 1.356 . S
N732 C724 1.356 . S
N732 H738 0.984 . S
N732 H739 0.984 . S
N733 C726 1.356 . S
N733 H736 0.984 . S
N733 H737 0.985 . S
H734 N729 0.984 . S
H735 N729 0.985 . S
H736 N733 0.984 . S
H737 N733 0.985 . S
H738 N732 0.984 . S
H739 N732 0.984 . S
H740 N728 0.984 . S
H741 N728 0.985 . S
C742 C743 1.363 . S
C742 C748 1.379 . S
C742 N750 1.356 . S
C743 C742 1.363 . S
C743 C749 1.363 . S
C744 C745 1.363 . S
C744 C749 1.379 . S
C744 N751 1.356 . S
C745 C744 1.363 . S
C745 C748 1.363 . S
N746 C748 1.356 . S
N746 H758 0.984 . S
N746 H759 0.985 . S
N747 C749 1.356 . S
N747 H752 0.984 . S
N747 H753 0.985 . S
C748 C742 1.379 . S
C748 C745 1.363 . S
C748 N746 1.356 . S
C749 C743 1.363 . S
C749 C744 1.379 . S
C749 N747 1.356 . S
N750 C742 1.356 . S
N750 H756 0.984 . S
N750 H757 0.984 . S
N751 C744 1.356 . S
N751 H754 0.984 . S
N751 H755 0.985 . S
H752 N747 0.984 . S
H753 N747 0.985 . S
H754 N751 0.984 . S
H755 N751 0.985 . S
H756 N750 0.984 . S
H757 N750 0.984 . S
H758 N746 0.984 . S
H759 N746 0.985 . S
C760 C761 1.363 . S
C760 C766 1.379 . S
C760 N768 1.356 . S
C761 C760 1.363 . S
C761 C767 1.363 . S
C762 C763 1.363 . S
C762 C767 1.379 . S
C762 N769 1.356 . S
C763 C762 1.363 . S
C763 C766 1.363 . S
N764 C766 1.356 . S
N764 H776 0.984 . S
N764 H777 0.985 . S
N765 C767 1.356 . S
N765 H770 0.984 . S
N765 H771 0.985 . S
C766 C760 1.379 . S
C766 C763 1.363 . S
C766 N764 1.356 . S
C767 C761 1.363 . S
C767 C762 1.379 . S
C767 N765 1.356 . S
N768 C760 1.356 . S
N768 H774 0.984 . S
N768 H775 0.984 . S
N769 C762 1.356 . S
N769 H772 0.984 . S
N769 H773 0.985 . S
H770 N765 0.984 . S
H771 N765 0.985 . S
H772 N769 0.984 . S
H773 N769 0.985 . S
H774 N768 0.984 . S
H775 N768 0.984 . S
H776 N764 0.984 . S
H777 N764 0.985 . S
C778 C779 1.363 . S
C778 C784 1.379 . S
C778 N786 1.356 . S
C779 C778 1.363 . S
C779 C785 1.363 . S
C780 C781 1.363 . S
C780 C785 1.379 . S
C780 N787 1.356 . S
C781 C780 1.363 . S
C781 C784 1.363 . S
N782 C784 1.356 . S
N782 H794 0.984 . S
N782 H795 0.985 . S
N783 C785 1.356 . S
N783 H788 0.984 . S
N783 H789 0.985 . S
C784 C778 1.379 . S
C784 C781 1.363 . S
C784 N782 1.356 . S
C785 C779 1.363 . S
C785 C780 1.379 . S
C785 N783 1.356 . S
N786 C778 1.356 . S
N786 H792 0.984 . S
N786 H793 0.984 . S
N787 C780 1.356 . S
N787 H790 0.984 . S
N787 H791 0.985 . S
H788 N783 0.984 . S
H789 N783 0.985 . S
H790 N787 0.984 . S
H791 N787 0.985 . S
H792 N786 0.984 . S
H793 N786 0.984 . S
H794 N782 0.984 . S
H795 N782 0.985 . S
C796 C797 1.363 . S
C796 C802 1.379 . S
C796 N804 1.356 . S
C797 C796 1.363 . S
C797 C803 1.363 . S
C798 C799 1.363 . S
C798 C803 1.379 . S
C798 N805 1.356 . S
C799 C798 1.363 . S
C799 C802 1.363 . S
N800 C802 1.356 . S
N800 H812 0.984 . S
N800 H813 0.985 . S
N801 C803 1.356 . S
N801 H806 0.984 . S
N801 H807 0.985 . S
C802 C796 1.379 . S
C802 C799 1.363 . S
C802 N800 1.356 . S
C803 C797 1.363 . S
C803 C798 1.379 . S
C803 N801 1.356 . S
N804 C796 1.356 . S
N804 H810 0.984 . S
N804 H811 0.984 . S
N805 C798 1.356 . S
N805 H808 0.984 . S
N805 H809 0.985 . S
H806 N801 0.984 . S
H807 N801 0.985 . S
H808 N805 0.984 . S
H809 N805 0.985 . S
H810 N804 0.984 . S
H811 N804 0.984 . S
H812 N800 0.984 . S
H813 N800 0.985 . S
C814 C815 1.363 . S
C814 C820 1.379 . S
C814 N822 1.356 . S
C815 C814 1.363 . S
C815 C821 1.363 . S
C816 C817 1.363 . S
C816 C821 1.379 . S
C816 N823 1.356 . S
C817 C816 1.363 . S
C817 C820 1.363 . S
N818 C820 1.356 . S
N818 H830 0.984 . S
N818 H831 0.985 . S
N819 C821 1.356 . S
N819 H824 0.984 . S
N819 H825 0.985 . S
C820 C814 1.379 . S
C820 C817 1.363 . S
C820 N818 1.356 . S
C821 C815 1.363 . S
C821 C816 1.379 . S
C821 N819 1.356 . S
N822 C814 1.356 . S
N822 H828 0.984 . S
N822 H829 0.984 . S
N823 C816 1.356 . S
N823 H826 0.984 . S
N823 H827 0.985 . S
H824 N819 0.984 . S
H825 N819 0.985 . S
H826 N823 0.984 . S
H827 N823 0.985 . S
H828 N822 0.984 . S
H829 N822 0.984 . S
H830 N818 0.984 . S
H831 N818 0.985 . S
C832 C833 1.363 . S
C832 C838 1.379 . S
C832 N840 1.356 . S
C833 C832 1.363 . S
C833 C839 1.363 . S
C834 C835 1.363 . S
C834 C839 1.379 . S
C834 N841 1.356 . S
C835 C834 1.363 . S
C835 C838 1.363 . S
N836 C838 1.356 . S
N836 H848 0.984 . S
N836 H849 0.985 . S
N837 C839 1.356 . S
N837 H842 0.984 . S
N837 H843 0.985 . S
C838 C832 1.379 . S
C838 C835 1.363 . S
C838 N836 1.356 . S
C839 C833 1.363 . S
C839 C834 1.379 . S
C839 N837 1.356 . S
N840 C832 1.356 . S
N840 H846 0.984 . S
N840 H847 0.984 . S
N841 C834 1.356 . S
N841 H844 0.984 . S
N841 H845 0.985 . S
H842 N837 0.984 . S
H843 N837 0.985 . S
H844 N841 0.984 . S
H845 N841 0.985 . S
H846 N840 0.984 . S
H847 N840 0.984 . S
H848 N836 0.984 . S
H849 N836 0.985 . S
C850 C851 1.363 . S
C850 C856 1.379 . S
C850 N858 1.356 . S
C851 C850 1.363 . S
C851 C857 1.363 . S
C852 C853 1.363 . S
C852 C857 1.379 . S
C852 N859 1.356 . S
C853 C852 1.363 . S
C853 C856 1.363 . S
N854 C856 1.356 . S
N854 H866 0.984 . S
N854 H867 0.985 . S
N855 C857 1.356 . S
N855 H860 0.984 . S
N855 H861 0.985 . S
C856 C850 1.379 . S
C856 C853 1.363 . S
C856 N854 1.356 . S
C857 C851 1.363 . S
C857 C852 1.379 . S
C857 N855 1.356 . S
N858 C850 1.356 . S
N858 H864 0.984 . S
N858 H865 0.984 . S
N859 C852 1.356 . S
N859 H862 0.984 . S
N859 H863 0.985 . S
H860 N855 0.984 . S
H861 N855 0.985 . S
H862 N859 0.984 . S
H863 N859 0.985 . S
H864 N858 0.984 . S
H865 N858 0.984 . S
H866 N854 0.984 . S
H867 N854 0.985 . S
C868 C869 1.363 . S
C868 C874 1.379 . S
C868 N876 1.356 . S
C869 C868 1.363 . S
C869 C875 1.363 . S
C870 C871 1.363 . S
C870 C875 1.379 . S
C870 N877 1.356 . S
C871 C870 1.363 . S
C871 C874 1.363 . S
N872 C874 1.356 . S
N872 H884 0.984 . S
N872 H885 0.985 . S
N873 C875 1.356 . S
N873 H878 0.984 . S
N873 H879 0.985 . S
C874 C868 1.379 . S
C874 C871 1.363 . S
C874 N872 1.356 . S
C875 C869 1.363 . S
C875 C870 1.379 . S
C875 N873 1.356 . S
N876 C868 1.356 . S
N876 H882 0.984 . S
N876 H883 0.984 . S
N877 C870 1.356 . S
N877 H880 0.984 . S
N877 H881 0.985 . S
H878 N873 0.984 . S
H879 N873 0.985 . S
H880 N877 0.984 . S
H881 N877 0.985 . S
H882 N876 0.984 . S
H883 N876 0.984 . S
H884 N872 0.984 . S
H885 N872 0.985 . S
C886 C887 1.363 . S
C886 C892 1.379 . S
C886 N894 1.356 . S
C887 C886 1.363 . S
C887 C893 1.363 . S
C888 C889 1.363 . S
C888 C893 1.379 . S
C888 N895 1.356 . S
C889 C888 1.363 . S
C889 C892 1.363 . S
N890 C892 1.356 . S
N890 H902 0.984 . S
N890 H903 0.985 . S
N891 C893 1.356 . S
N891 H896 0.984 . S
N891 H897 0.985 . S
C892 C886 1.379 . S
C892 C889 1.363 . S
C892 N890 1.356 . S
C893 C887 1.363 . S
C893 C888 1.379 . S
C893 N891 1.356 . S
N894 C886 1.356 . S
N894 H900 0.984 . S
N894 H901 0.984 . S
N895 C888 1.356 . S
N895 H898 0.984 . S
N895 H899 0.985 . S
H896 N891 0.984 . S
H897 N891 0.985 . S
H898 N895 0.984 . S
H899 N895 0.985 . S
H900 N894 0.984 . S
H901 N894 0.984 . S
H902 N890 0.984 . S
H903 N890 0.985 . S
C904 C905 1.363 . S
C904 C910 1.379 . S
C904 N912 1.356 . S
C905 C904 1.363 . S
C905 C911 1.363 . S
C906 C907 1.363 . S
C906 C911 1.379 . S
C906 N913 1.356 . S
C907 C906 1.363 . S
C907 C910 1.363 . S
N908 C910 1.356 . S
N908 H920 0.984 . S
N908 H921 0.985 . S
N909 C911 1.356 . S
N909 H914 0.984 . S
N909 H915 0.985 . S
C910 C904 1.379 . S
C910 C907 1.363 . S
C910 N908 1.356 . S
C911 C905 1.363 . S
C911 C906 1.379 . S
C911 N909 1.356 . S
N912 C904 1.356 . S
N912 H918 0.984 . S
N912 H919 0.984 . S
N913 C906 1.356 . S
N913 H916 0.984 . S
N913 H917 0.985 . S
H914 N909 0.984 . S
H915 N909 0.985 . S
H916 N913 0.984 . S
H917 N913 0.985 . S
H918 N912 0.984 . S
H919 N912 0.984 . S
H920 N908 0.984 . S
H921 N908 0.985 . S
C922 C923 1.363 . S
C922 C928 1.379 . S
C922 N930 1.356 . S
C923 C922 1.363 . S
C923 C929 1.363 . S
C924 C925 1.363 . S
C924 C929 1.379 . S
C924 N931 1.356 . S
C925 C924 1.363 . S
C925 C928 1.363 . S
N926 C928 1.356 . S
N926 H938 0.984 . S
N926 H939 0.985 . S
N927 C929 1.356 . S
N927 H932 0.984 . S
N927 H933 0.985 . S
C928 C922 1.379 . S
C928 C925 1.363 . S
C928 N926 1.356 . S
C929 C923 1.363 . S
C929 C924 1.379 . S
C929 N927 1.356 . S
N930 C922 1.356 . S
N930 H936 0.984 . S
N930 H937 0.984 . S
N931 C924 1.356 . S
N931 H934 0.984 . S
N931 H935 0.985 . S
H932 N927 0.984 . S
H933 N927 0.985 . S
H934 N931 0.984 . S
H935 N931 0.985 . S
H936 N930 0.984 . S
H937 N930 0.984 . S
H938 N926 0.984 . S
H939 N926 0.985 . S
C940 C941 1.363 . S
C940 C946 1.379 . S
C940 N948 1.356 . S
C941 C940 1.363 . S
C941 C947 1.363 . S
C942 C943 1.363 . S
C942 C947 1.379 . S
C942 N949 1.356 . S
C943 C942 1.363 . S
C943 C946 1.363 . S
N944 C946 1.356 . S
N944 H956 0.984 . S
N944 H957 0.985 . S
N945 C947 1.356 . S
N945 H950 0.984 . S
N945 H951 0.985 . S
C946 C940 1.379 . S
C946 C943 1.363 . S
C946 N944 1.356 . S
C947 C941 1.363 . S
C947 C942 1.379 . S
C947 N945 1.356 . S
N948 C940 1.356 . S
N948 H954 0.984 . S
N948 H955 0.984 . S
N949 C942 1.356 . S
N949 H952 0.984 . S
N949 H953 0.985 . S
H950 N945 0.984 . S
H951 N945 0.985 . S
H952 N949 0.984 . S
H953 N949 0.985 . S
H954 N948 0.984 . S
H955 N948 0.984 . S
H956 N944 0.984 . S
H957 N944 0.985 . S
C958 C959 1.363 . S
C958 C964 1.379 . S
C958 N966 1.356 . S
C959 C958 1.363 . S
C959 C965 1.363 . S
C960 C961 1.363 . S
C960 C965 1.379 . S
C960 N967 1.356 . S
C961 C960 1.363 . S
C961 C964 1.363 . S
N962 C964 1.356 . S
N962 H974 0.984 . S
N962 H975 0.985 . S
N963 C965 1.356 . S
N963 H968 0.984 . S
N963 H969 0.985 . S
C964 C958 1.379 . S
C964 C961 1.363 . S
C964 N962 1.356 . S
C965 C959 1.363 . S
C965 C960 1.379 . S
C965 N963 1.356 . S
N966 C958 1.356 . S
N966 H972 0.984 . S
N966 H973 0.984 . S
N967 C960 1.356 . S
N967 H970 0.984 . S
N967 H971 0.985 . S
H968 N963 0.984 . S
H969 N963 0.985 . S
H970 N967 0.984 . S
H971 N967 0.985 . S
H972 N966 0.984 . S
H973 N966 0.984 . S
H974 N962 0.984 . S
H975 N962 0.985 . S
C976 C977 1.363 . S
C976 C982 1.379 . S
C976 N984 1.356 . S
C977 C976 1.363 . S
C977 C983 1.363 . S
C978 C979 1.363 . S
C978 C983 1.379 . S
C978 N985 1.356 . S
C979 C978 1.363 . S
C979 C982 1.363 . S
N980 C982 1.356 . S
N980 H992 0.984 . S
N980 H993 0.985 . S
N981 C983 1.356 . S
N981 H986 0.984 . S
N981 H987 0.985 . S
C982 C976 1.379 . S
C982 C979 1.363 . S
C982 N980 1.356 . S
C983 C977 1.363 . S
C983 C978 1.379 . S
C983 N981 1.356 . S
N984 C976 1.356 . S
N984 H990 0.984 . S
N984 H991 0.984 . S
N985 C978 1.356 . S
N985 H988 0.984 . S
N985 H989 0.985 . S
H986 N981 0.984 . S
H987 N981 0.985 . S
H988 N985 0.984 . S
H989 N985 0.985 . S
H990 N984 0.984 . S
H991 N984 0.984 . S
H992 N980 0.984 . S
H993 N980 0.985 . S
C994 C995 1.363 . S
C994 C1000 1.379 . S
C994 N1002 1.356 . S
C995 C994 1.363 . S
C995 C1001 1.363 . S
C996 C997 1.363 . S
C996 C1001 1.379 . S
C996 N1003 1.356 . S
C997 C996 1.363 . S
C997 C1000 1.363 . S
N998 C1000 1.356 . S
N998 H1010 0.984 . S
N998 H1011 0.985 . S
N999 C1001 1.356 . S
N999 H1004 0.984 . S
N999 H1005 0.985 . S
C1000 C994 1.379 . S
C1000 C997 1.363 . S
C1000 N998 1.356 . S
C1001 C995 1.363 . S
C1001 C996 1.379 . S
C1001 N999 1.356 . S
N1002 C994 1.356 . S
N1002 H1008 0.984 . S
N1002 H1009 0.984 . S
N1003 C996 1.356 . S
N1003 H1006 0.984 . S
N1003 H1007 0.985 . S
H1004 N999 0.984 . S
H1005 N999 0.985 . S
H1006 N1003 0.984 . S
H1007 N1003 0.985 . S
H1008 N1002 0.984 . S
H1009 N1002 0.984 . S
H1010 N998 0.984 . S
H1011 N998 0.985 . S
C1012 C1013 1.363 . S
C1012 C1018 1.379 . S
C1012 N1020 1.356 . S
C1013 C1012 1.363 . S
C1013 C1019 1.363 . S
C1014 C1015 1.363 . S
C1014 C1019 1.379 . S
C1014 N1021 1.356 . S
C1015 C1014 1.363 . S
C1015 C1018 1.363 . S
N1016 C1018 1.356 . S
N1016 H1028 0.984 . S
N1016 H1029 0.985 . S
N1017 C1019 1.356 . S
N1017 H1022 0.984 . S
N1017 H1023 0.985 . S
C1018 C1012 1.379 . S
C1018 C1015 1.363 . S
C1018 N1016 1.356 . S
C1019 C1013 1.363 . S
C1019 C1014 1.379 . S
C1019 N1017 1.356 . S
N1020 C1012 1.356 . S
N1020 H1026 0.984 . S
N1020 H1027 0.984 . S
N1021 C1014 1.356 . S
N1021 H1024 0.984 . S
N1021 H1025 0.985 . S
H1022 N1017 0.984 . S
H1023 N1017 0.985 . S
H1024 N1021 0.984 . S
H1025 N1021 0.985 . S
H1026 N1020 0.984 . S
H1027 N1020 0.984 . S
H1028 N1016 0.984 . S
H1029 N1016 0.985 . S
C1030 C1031 1.363 . S
C1030 C1036 1.379 . S
C1030 N1038 1.356 . S
C1031 C1030 1.363 . S
C1031 C1037 1.363 . S
C1032 C1033 1.363 . S
C1032 C1037 1.379 . S
C1032 N1039 1.356 . S
C1033 C1032 1.363 . S
C1033 C1036 1.363 . S
N1034 C1036 1.356 . S
N1034 H1046 0.984 . S
N1034 H1047 0.985 . S
N1035 C1037 1.356 . S
N1035 H1040 0.984 . S
N1035 H1041 0.985 . S
C1036 C1030 1.379 . S
C1036 C1033 1.363 . S
C1036 N1034 1.356 . S
C1037 C1031 1.363 . S
C1037 C1032 1.379 . S
C1037 N1035 1.356 . S
N1038 C1030 1.356 . S
N1038 H1044 0.984 . S
N1038 H1045 0.984 . S
N1039 C1032 1.356 . S
N1039 H1042 0.984 . S
N1039 H1043 0.985 . S
H1040 N1035 0.984 . S
H1041 N1035 0.985 . S
H1042 N1039 0.984 . S
H1043 N1039 0.985 . S
H1044 N1038 0.984 . S
H1045 N1038 0.984 . S
H1046 N1034 0.984 . S
H1047 N1034 0.985 . S
C475 C384 1.407 . S
C473 C8 1.384 . S
C493 C398 1.405 . S
C491 C61 1.378 . S
C511 C411 1.409 . S
C509 C107 1.382 . S
C527 C139 1.387 . S
C529 C378 1.413 . S
C545 C192 1.392 . S
C547 C371 1.416 . S
C563 C238 1.389 . S
C565 C391 1.414 . S
C583 C399 1.408 . S
C581 C284 1.386 . S
C601 C412 1.412 . S
C599 C330 1.388 . S
C617 C100 1.384 . S
C619 C438 1.407 . S
C637 C456 1.405 . S
C635 C160 1.378 . S
C653 C15 1.382 . S
C655 C463 1.410 . S
C673 C430 1.413 . S
C671 C54 1.387 . S
C689 C291 1.388 . S
C691 C423 1.416 . S
C707 C337 1.385 . S
C709 C437 1.414 . S
C727 C449 1.408 . S
C725 C199 1.382 . S
C743 C245 1.385 . S
C745 C464 1.412 . S
C763 C397 1.743 . S
C761 C1 1.757 . S
C781 C410 1.745 . S
C779 C68 1.747 . S
C797 C114 1.741 . S
C799 C373 1.739 . S
C815 C146 1.750 . S
C817 C385 1.728 . S
C833 C185 1.746 . S
C835 C417 1.724 . S
C853 C372 1.726 . S
C851 C231 1.748 . S
C871 C386 1.741 . S
C869 C277 1.755 . S
C889 C404 1.730 . S
C887 C323 1.752 . S
C907 C451 1.743 . S
C905 C93 1.757 . S
C925 C462 1.745 . S
C923 C153 1.747 . S
C941 C22 1.742 . S
C943 C425 1.739 . S
C961 C443 1.728 . S
C959 C47 1.751 . S
C979 C469 1.723 . S
C977 C298 1.735 . S
C995 C344 1.736 . S
C997 C424 1.725 . S
C1015 C436 1.740 . S
C1013 C206 1.742 . S
C1033 C450 1.729 . S
C1031 C252 1.740 . S
