# Generated by pormake.
# Topology wbl, (4,4)-cn, num edge types: 1
# Building blocks:
#     Node 0, Type 0, BuildingBlock: MUDLON_clean_linker_0, # of connection points: 4
#     Node 1, Type 0, BuildingBlock: MUDLON_clean_linker_0, # of connection points: 4
#     Node 2, Type 0, BuildingBlock: MUDLON_clean_linker_0, # of connection points: 4
#     Node 3, Type 0, BuildingBlock: MUDLON_clean_linker_0, # of connection points: 4
#     Node 4, Type 0, BuildingBlock: MUDLON_clean_linker_0, # of connection points: 4
#     Node 5, Type 0, BuildingBlock: MUDLON_clean_linker_0, # of connection points: 4
#     Node 6, Type 0, BuildingBlock: MUDLON_clean_linker_0, # of connection points: 4
#     Node 7, Type 0, BuildingBlock: MUDLON_clean_linker_0, # of connection points: 4
#     Node 8, Type 1, BuildingBlock: KUFVIS_clean_sbu_0, # of connection points: 4
#     Node 9, Type 1, BuildingBlock: KUFVIS_clean_sbu_0, # of connection points: 4
#     Node 10, Type 1, BuildingBlock: KUFVIS_clean_sbu_0, # of connection points: 4
#     Node 11, Type 1, BuildingBlock: KUFVIS_clean_sbu_0, # of connection points: 4
#     Node 12, Type 1, BuildingBlock: KUFVIS_clean_sbu_0, # of connection points: 4
#     Node 13, Type 1, BuildingBlock: KUFVIS_clean_sbu_0, # of connection points: 4
#     Node 14, Type 1, BuildingBlock: KUFVIS_clean_sbu_0, # of connection points: 4
#     Node 15, Type 1, BuildingBlock: KUFVIS_clean_sbu_0, # of connection points: 4
#     Edge 16, Type (0, 1), None
#     Edge 17, Type (0, 1), None
#     Edge 18, Type (0, 1), None
#     Edge 19, Type (0, 1), None
#     Edge 20, Type (0, 1), None
#     Edge 21, Type (0, 1), None
#     Edge 22, Type (0, 1), None
#     Edge 23, Type (0, 1), None
#     Edge 24, Type (0, 1), None
#     Edge 25, Type (0, 1), None
#     Edge 26, Type (0, 1), None
#     Edge 27, Type (0, 1), None
#     Edge 28, Type (0, 1), None
#     Edge 29, Type (0, 1), None
#     Edge 30, Type (0, 1), None
#     Edge 31, Type (0, 1), None
#     Edge 32, Type (0, 1), None
#     Edge 33, Type (0, 1), None
#     Edge 34, Type (0, 1), None
#     Edge 35, Type (0, 1), None
#     Edge 36, Type (0, 1), None
#     Edge 37, Type (0, 1), None
#     Edge 38, Type (0, 1), None
#     Edge 39, Type (0, 1), None
#     Edge 40, Type (0, 1), None
#     Edge 41, Type (0, 1), None
#     Edge 42, Type (0, 1), None
#     Edge 43, Type (0, 1), None
#     Edge 44, Type (0, 1), None
#     Edge 45, Type (0, 1), None
#     Edge 46, Type (0, 1), None
#     Edge 47, Type (0, 1), None
# Relax obj value: 0.106
# Max RMSD: 0.140
# Mean RMSD: 0.136
data_MOF--net-wbl--node1-KUFVIS_clean_sbu_0--node2-MUDLON_clean_linker_0--edge1-none
_symmetry_space_group_name_H-M    P1
_symmetry_Int_Tables_number       1
_symmetry_cell_setting            triclinic
loop_
_symmetry_equiv_pos_as_xyz
'x, y, z'
_cell_length_a     32.220324
_cell_length_b     32.206145
_cell_length_c     43.869121
_cell_angle_alpha  89.997064
_cell_angle_beta   90.963801
_cell_angle_gamma 90.000049
loop_
_atom_site_label
_atom_site_type_symbol
_atom_site_fract_x
_atom_site_fract_y
_atom_site_fract_z
_atom_type_partial_charge
H0 H 0.11741 0.80363 0.34949 0.0
N1 N 0.11066 0.88189 0.33039 0.0
H2 H 0.13501 0.779 0.40126 0.0
H3 H 0.11909 0.92995 0.38266 0.0
H4 H 0.13514 0.90537 0.43349 0.0
H5 H 0.12487 0.83669 0.28096 0.0
H6 H 0.1918 0.82552 0.25631 0.0
H7 H 0.18242 0.92489 0.34226 0.0
H8 H 0.24837 0.91553 0.31708 0.0
H9 H 0.12545 0.96575 0.33722 0.0
H10 H 0.03297 0.87604 0.30991 0.0
H11 H 0.07455 0.02028 0.33494 0.0
H12 H 0.98232 0.93144 0.30334 0.0
H13 H 0.89801 0.18163 0.36831 0.0
H14 H 0.88537 0.19308 0.42289 0.0
H15 H 0.87965 0.06014 0.436 0.0
H16 H 0.8904 0.04932 0.38287 0.0
H17 H 0.83043 0.0629 0.34506 0.0
H18 H 0.76781 0.06665 0.31328 0.0
H19 H 0.82229 0.16538 0.26078 0.0
H20 H 0.88643 0.15973 0.29172 0.0
H21 H 0.98061 0.11984 0.3239 0.0
H22 H 0.0324 0.06665 0.31386 0.0
H23 H 0.93893 0.97193 0.3275 0.0
N24 N 0.90147 0.10916 0.33857 0.0
H25 H 0.88755 0.02481 0.33329 0.0
C26 C 0.11616 0.86857 0.36175 0.0
C27 C 0.12047 0.82593 0.36786 0.0
C28 C 0.13049 0.8119 0.39729 0.0
C29 C 0.13505 0.8403 0.42132 0.0
C30 C 0.13035 0.88281 0.41544 0.0
C31 C 0.12119 0.8969 0.38603 0.0
C32 C 0.14841 0.88182 0.3132 0.0
C33 C 0.15158 0.8547 0.28836 0.0
C34 C 0.18975 0.84842 0.27431 0.0
C35 C 0.22532 0.86973 0.28468 0.0
C36 C 0.22146 0.89901 0.30825 0.0
C37 C 0.18354 0.90461 0.32265 0.0
C38 C 0.08272 0.91623 0.3248 0.0
C39 C 0.09424 0.95774 0.33013 0.0
C40 C 0.06476 0.98945 0.32825 0.0
C41 C 0.02335 0.98095 0.31943 0.0
C42 C 0.01305 0.93965 0.31156 0.0
C43 C 0.04219 0.90772 0.31479 0.0
C44 C 0.89577 0.11472 0.37105 0.0
C45 C 0.89427 0.1551 0.38318 0.0
C46 C 0.88718 0.1616 0.41435 0.0
C47 C 0.88189 0.12762 0.43406 0.0
C48 C 0.88407 0.08728 0.42183 0.0
C49 C 0.89037 0.08092 0.39089 0.0
C50 C 0.86365 0.11066 0.32044 0.0
C51 C 0.82965 0.08453 0.32622 0.0
C52 C 0.79375 0.08666 0.30798 0.0
C53 C 0.79049 0.11586 0.28427 0.0
C54 C 0.82421 0.14228 0.2787 0.0
C55 C 0.86065 0.13925 0.2964 0.0
C56 C 0.93029 0.07679 0.33013 0.0
C57 C 0.97141 0.0875 0.32404 0.0
C58 C 0.00116 0.05674 0.31877 0.0
C59 C 0.99074 0.01421 0.32053 0.0
C60 C 0.94889 0.00383 0.32539 0.0
C61 C 0.91901 0.03459 0.32932 0.0
H62 H 0.93806 0.33461 0.62349 0.0
N63 N 0.89952 0.39593 0.58978 0.0
H64 H 0.93042 0.3215 0.67751 0.0
H65 H 0.84599 0.43168 0.62762 0.0
H66 H 0.83671 0.41682 0.68232 0.0
H67 H 0.83015 0.37872 0.55885 0.0
H68 H 0.81501 0.31683 0.52823 0.0
H69 H 0.95655 0.33758 0.57166 0.0
H70 H 0.94135 0.27516 0.54208 0.0
H71 H 0.98131 0.38779 0.60882 0.0
H72 H 0.89618 0.46642 0.5585 0.0
H73 H 0.03585 0.43867 0.6032 0.0
H74 H 0.95179 0.51715 0.55136 0.0
H75 H 0.2046 0.61438 0.60253 0.0
H76 H 0.22924 0.63177 0.65442 0.0
H77 H 0.10282 0.63259 0.685 0.0
H78 H 0.07823 0.61663 0.63368 0.0
H79 H 0.08025 0.67653 0.59324 0.0
H80 H 0.079 0.73962 0.56245 0.0
H81 H 0.16906 0.68617 0.50228 0.0
H82 H 0.16801 0.62144 0.5321 0.0
H83 H 0.13621 0.52573 0.57275 0.0
H84 H 0.08238 0.47212 0.56957 0.0
H85 H 0.98848 0.56619 0.58194 0.0
N86 N 0.1264 0.60643 0.58279 0.0
H87 H 0.04159 0.61899 0.58385 0.0
C88 C 0.8931 0.38489 0.62134 0.0
C89 C 0.91608 0.35317 0.63582 0.0
C90 C 0.9117 0.34561 0.66688 0.0
C91 C 0.8834 0.36857 0.68407 0.0
C92 C 0.85889 0.39889 0.66951 0.0
C93 C 0.86415 0.40732 0.63841 0.0
C94 C 0.89402 0.36247 0.56818 0.0
C95 C 0.8548 0.35672 0.55456 0.0
C96 C 0.84634 0.32148 0.5369 0.0
C97 C 0.87693 0.29093 0.53293 0.0
C98 C 0.9171 0.29809 0.5448 0.0
C99 C 0.92571 0.33371 0.56203 0.0
C100 C 0.934 0.42352 0.58448 0.0
C101 C 0.97421 0.41573 0.59623 0.0
C102 C 0.00584 0.44486 0.59267 0.0
C103 C 0.99829 0.48221 0.57694 0.0
C104 C 0.95855 0.48909 0.5641 0.0
C105 C 0.92679 0.46007 0.56795 0.0
C106 C 0.13971 0.61354 0.614 0.0
C107 C 0.1823 0.61774 0.62056 0.0
C108 C 0.19632 0.62752 0.65007 0.0
C109 C 0.16793 0.63206 0.6737 0.0
C110 C 0.12536 0.62774 0.6673 0.0
C111 C 0.11129 0.61874 0.63777 0.0
C112 C 0.12349 0.64362 0.56448 0.0
C113 C 0.09846 0.67749 0.57278 0.0
C114 C 0.09783 0.71367 0.5552 0.0
C115 C 0.1234 0.71735 0.52974 0.0
C116 C 0.14864 0.68376 0.52156 0.0
C117 C 0.14816 0.64699 0.53857 0.0
C118 C 0.09341 0.57647 0.57851 0.0
C119 C 0.10391 0.53471 0.5742 0.0
C120 C 0.07311 0.50413 0.57266 0.0
C121 C 0.031 0.51477 0.57561 0.0
C122 C 0.02045 0.55683 0.57907 0.0
C123 C 0.05118 0.58732 0.58034 0.0
H124 H 0.61896 0.30538 0.85018 0.0
N125 N 0.6127 0.38378 0.83137 0.0
H126 H 0.63725 0.28029 0.90172 0.0
H127 H 0.6233 0.43153 0.88356 0.0
H128 H 0.64 0.40653 0.93419 0.0
H129 H 0.62597 0.33847 0.78189 0.0
H130 H 0.69241 0.32728 0.75661 0.0
H131 H 0.68437 0.42741 0.84216 0.0
H132 H 0.7499 0.4179 0.81641 0.0
H133 H 0.62665 0.46772 0.8386 0.0
H134 H 0.53498 0.37728 0.81114 0.0
H135 H 0.57508 0.5217 0.83691 0.0
H136 H 0.4837 0.43216 0.80504 0.0
H137 H 0.39886 0.6809 0.8702 0.0
H138 H 0.38527 0.69217 0.92465 0.0
H139 H 0.37395 0.55941 0.93669 0.0
H140 H 0.3859 0.54882 0.88363 0.0
H141 H 0.32995 0.56141 0.84466 0.0
H142 H 0.26826 0.56531 0.81209 0.0
H143 H 0.32285 0.66624 0.76194 0.0
H144 H 0.3863 0.66042 0.7937 0.0
H145 H 0.47982 0.62034 0.82597 0.0
H146 H 0.53234 0.56779 0.81615 0.0
H147 H 0.43992 0.47194 0.82939 0.0
N148 N 0.40062 0.60873 0.84003 0.0
H149 H 0.38785 0.52414 0.83483 0.0
C150 C 0.61889 0.37027 0.86261 0.0
C151 C 0.62278 0.32756 0.86856 0.0
C152 C 0.63321 0.31327 0.89786 0.0
C153 C 0.63863 0.34151 0.92189 0.0
C154 C 0.63454 0.38412 0.91613 0.0
C155 C 0.62497 0.39844 0.88686 0.0
C156 C 0.64999 0.38391 0.81369 0.0
C157 C 0.65275 0.35663 0.78892 0.0
C158 C 0.69065 0.35034 0.77451 0.0
C159 C 0.72637 0.37174 0.78448 0.0
C160 C 0.72287 0.40127 0.80792 0.0
C161 C 0.68519 0.40694 0.82266 0.0
C162 C 0.58434 0.41786 0.82615 0.0
C163 C 0.59545 0.45943 0.83168 0.0
C164 C 0.5656 0.49083 0.83009 0.0
C165 C 0.52423 0.48195 0.82134 0.0
C166 C 0.51436 0.44062 0.81325 0.0
C167 C 0.54387 0.40901 0.81621 0.0
C168 C 0.39399 0.61411 0.87241 0.0
C169 C 0.39364 0.65436 0.8848 0.0
C170 C 0.38597 0.66074 0.9159 0.0
C171 C 0.37883 0.62676 0.93527 0.0
C172 C 0.37972 0.58652 0.92277 0.0
C173 C 0.38673 0.58029 0.89189 0.0
C174 C 0.36335 0.61021 0.82128 0.0
C175 C 0.32951 0.58352 0.82615 0.0
C176 C 0.29411 0.58574 0.80742 0.0
C177 C 0.2911 0.61559 0.78414 0.0
C178 C 0.32463 0.64259 0.77947 0.0
C179 C 0.36065 0.63947 0.79764 0.0
C180 C 0.42997 0.57667 0.83197 0.0
C181 C 0.47103 0.58788 0.8261 0.0
C182 C 0.5012 0.55749 0.82095 0.0
C183 C 0.49127 0.51484 0.8226 0.0
C184 C 0.44952 0.50395 0.82736 0.0
C185 C 0.41923 0.53434 0.83116 0.0
H186 H 0.4402 0.83528 0.12531 0.0
N187 N 0.40053 0.89548 0.0912 0.0
H188 H 0.43213 0.82204 0.17928 0.0
H189 H 0.34593 0.93025 0.12867 0.0
H190 H 0.33618 0.91519 0.1833 0.0
H191 H 0.33126 0.87871 0.06004 0.0
H192 H 0.31582 0.81682 0.02952 0.0
H193 H 0.45722 0.83658 0.07346 0.0
H194 H 0.44169 0.77408 0.04402 0.0
H195 H 0.48269 0.88776 0.10943 0.0
H196 H 0.3962 0.96608 0.06013 0.0
H197 H 0.53687 0.93889 0.10323 0.0
H198 H 0.45139 0.0171 0.05243 0.0
H199 H 0.7046 0.11499 0.102 0.0
H200 H 0.72929 0.13297 0.1538 0.0
H201 H 0.60285 0.13457 0.18431 0.0
H202 H 0.57824 0.11806 0.13313 0.0
H203 H 0.57985 0.17702 0.09219 0.0
H204 H 0.57956 0.24022 0.06158 0.0
H205 H 0.67063 0.18659 1.00231 0.0
H206 H 0.66863 0.12175 0.03194 0.0
H207 H 0.63621 0.02642 0.07179 0.0
H208 H 0.58254 0.9726 0.06911 0.0
H209 H 0.48855 0.06631 0.08249 0.0
N210 N 0.62634 0.10699 0.08231 0.0
H211 H 0.5415 0.11931 0.08391 0.0
C212 C 0.39423 0.88459 0.1228 0.0
C213 C 0.41772 0.85343 0.13748 0.0
C214 C 0.41305 0.84576 0.1685 0.0
C215 C 0.38394 0.86802 0.18545 0.0
C216 C 0.35898 0.89781 0.17068 0.0
C217 C 0.36453 0.90636 0.13963 0.0
C218 C 0.39492 0.86195 0.06967 0.0
C219 C 0.35575 0.85647 0.05592 0.0
C220 C 0.34712 0.82122 0.03832 0.0
C221 C 0.37748 0.79038 0.03456 0.0
C222 C 0.41761 0.79724 0.04659 0.0
C223 C 0.42641 0.83289 0.06375 0.0
C224 C 0.43474 0.9233 0.08565 0.0
C225 C 0.4752 0.91568 0.09695 0.0
C226 C 0.50662 0.94498 0.09306 0.0
C227 C 0.49859 0.98233 0.07744 0.0
C228 C 0.45855 0.98905 0.06507 0.0
C229 C 0.42702 0.95987 0.06925 0.0
C230 C 0.63969 0.11444 0.11348 0.0
C231 C 0.68231 0.11868 0.12 0.0
C232 C 0.69636 0.12885 0.14944 0.0
C233 C 0.66796 0.13376 0.17302 0.0
C234 C 0.62538 0.12953 0.16662 0.0
C235 C 0.61129 0.12014 0.13718 0.0
C236 C 0.62351 0.144 0.06384 0.0
C237 C 0.59841 0.17792 0.0719 0.0
C238 C 0.59836 0.21419 0.05444 0.0
C239 C 0.62458 0.2179 0.02935 0.0
C240 C 0.64974 0.18418 0.02132 0.0
C241 C 0.6487 0.14733 0.0382 0.0
C242 C 0.59336 0.07696 0.07816 0.0
C243 C 0.60391 0.03527 0.0736 0.0
C244 C 0.57321 0.00458 0.07233 0.0
C245 C 0.53112 0.01504 0.07575 0.0
C246 C 0.5205 0.05706 0.07931 0.0
C247 C 0.55114 0.08767 0.08031 0.0
H248 H 0.17987 0.57472 0.89616 0.0
N249 N 0.11814 0.60982 0.9299 0.0
H250 H 0.19242 0.58587 0.84231 0.0
H251 H 0.08088 0.66491 0.89285 0.0
H252 H 0.0948 0.67748 0.8384 0.0
H253 H 0.14705 0.67699 0.95822 0.0
H254 H 0.20953 0.68314 0.99032 0.0
H255 H 0.16853 0.5454 0.94945 0.0
H256 H 0.23039 0.55108 0.98151 0.0
H257 H 0.12158 0.53128 0.90469 0.0
H258 H 0.05076 0.60986 0.96415 0.0
H259 H 0.07193 0.47582 0.91096 0.0
H260 H 0.00105 0.55319 0.97147 0.0
H261 H 0.90444 0.29996 0.91763 0.0
H262 H 0.88581 0.27815 0.86539 0.0
H263 H 0.88849 0.40591 0.83624 0.0
H264 H 0.90553 0.42779 0.88797 0.0
H265 H 0.84208 0.42072 0.9265 0.0
H266 H 0.77619 0.41247 0.95192 0.0
H267 H 0.83208 0.3229 0.01335 0.0
H268 H 0.89905 0.33294 0.98844 0.0
H269 H 0.99522 0.37028 0.94514 0.0
H270 H 0.0467 0.42613 0.94684 0.0
H271 H 0.94789 0.51677 0.94276 0.0
N272 N 0.91359 0.37718 0.93849 0.0
H273 H 0.89711 0.46139 0.94206 0.0
C274 C 0.12885 0.61858 0.89864 0.0
C275 C 0.16097 0.59721 0.88402 0.0
C276 C 0.16814 0.60357 0.85314 0.0
C277 C 0.14425 0.63221 0.83628 0.0
C278 C 0.11352 0.65519 0.851 0.0
C279 C 0.1056 0.64801 0.88194 0.0
C280 C 0.15287 0.61101 0.95125 0.0
C281 C 0.16484 0.64935 0.96363 0.0
C282 C 0.20056 0.65272 0.98202 0.0
C283 C 0.22521 0.6176 0.9885 0.0
C284 C 0.21216 0.57878 0.97718 0.0
C285 C 0.17657 0.57551 0.95864 0.0
C286 C 0.08975 0.57544 0.93369 0.0
C287 C 0.09544 0.53686 0.91918 0.0
C288 C 0.0671 0.50463 0.92312 0.0
C289 C 0.0325 0.5099 0.94181 0.0
C290 C 0.02713 0.54822 0.95665 0.0
C291 C 0.05551 0.58057 0.9526 0.0
C292 C 0.90705 0.36535 0.90694 0.0
C293 C 0.90172 0.32315 0.89983 0.0
C294 C 0.89118 0.31074 0.87013 0.0
C295 C 0.88711 0.34032 0.84683 0.0
C296 C 0.89291 0.38245 0.85371 0.0
C297 C 0.90257 0.39496 0.88345 0.0
C298 C 0.87588 0.37778 0.95585 0.0
C299 C 0.84083 0.40067 0.94624 0.0
C300 C 0.80295 0.39579 0.96082 0.0
C301 C 0.7989 0.36702 0.9847 0.0
C302 C 0.8343 0.34546 0.99514 0.0
C303 C 0.8725 0.3511 0.98094 0.0
C304 C 0.94225 0.41116 0.94349 0.0
C305 C 0.98476 0.40224 0.94531 0.0
C306 C 0.01408 0.43421 0.94595 0.0
C307 C 0.00144 0.47599 0.94463 0.0
C308 C 0.95876 0.485 0.94413 0.0
C309 C 0.92947 0.45301 0.94364 0.0
H310 H 0.58348 0.33583 0.14448 0.0
N311 N 0.62244 0.39675 0.17832 0.0
H312 H 0.5922 0.32181 0.09068 0.0
H313 H 0.67723 0.4313 0.14084 0.0
H314 H 0.68757 0.41553 0.08639 0.0
H315 H 0.69146 0.37923 0.20962 0.0
H316 H 0.70599 0.31733 0.24039 0.0
H317 H 0.56492 0.33881 0.19631 0.0
H318 H 0.57949 0.27641 0.22606 0.0
H319 H 0.54067 0.38912 0.15905 0.0
H320 H 0.62606 0.46735 0.20946 0.0
H321 H 0.48612 0.43992 0.16512 0.0
H322 H 0.57052 0.51807 0.21691 0.0
H323 H 0.3164 0.61657 0.16895 0.0
H324 H 0.29079 0.63443 0.11736 0.0
H325 H 0.41636 0.6324 0.08503 0.0
H326 H 0.44193 0.61614 0.13601 0.0
H327 H 0.44062 0.67717 0.17682 0.0
H328 H 0.44161 0.74045 0.20739 0.0
H329 H 0.35263 0.68658 0.26823 0.0
H330 H 0.35402 0.62165 0.23864 0.0
H331 H 0.38584 0.52609 0.19758 0.0
H332 H 0.43999 0.4727 0.19971 0.0
H333 H 0.5331 0.56737 0.18673 0.0
N334 N 0.39494 0.60691 0.18762 0.0
H335 H 0.47969 0.61992 0.18568 0.0
C336 C 0.62914 0.38544 0.14684 0.0
C337 C 0.60602 0.35389 0.13229 0.0
C338 C 0.61108 0.34576 0.10138 0.0
C339 C 0.64021 0.36796 0.0844 0.0
C340 C 0.66482 0.39813 0.09904 0.0
C341 C 0.6589 0.40712 0.12999 0.0
C342 C 0.62756 0.36336 0.20004 0.0
C343 C 0.66664 0.35741 0.21383 0.0
C344 C 0.67476 0.32216 0.23158 0.0
C345 C 0.64394 0.2918 0.23546 0.0
C346 C 0.60391 0.29918 0.22341 0.0
C347 C 0.59565 0.3348 0.20608 0.0
C348 C 0.58811 0.42461 0.18343 0.0
C349 C 0.54785 0.41697 0.1717 0.0
C350 C 0.51622 0.44607 0.17552 0.0
C351 C 0.52383 0.48327 0.19142 0.0
C352 C 0.56369 0.49011 0.20407 0.0
C353 C 0.59542 0.4611 0.20002 0.0
C354 C 0.38096 0.61427 0.15657 0.0
C355 C 0.3383 0.61947 0.15061 0.0
C356 C 0.32372 0.62958 0.12128 0.0
C357 C 0.35158 0.63342 0.09726 0.0
C358 C 0.39419 0.62821 0.10309 0.0
C359 C 0.40884 0.61896 0.13242 0.0
C360 C 0.39805 0.64403 0.20597 0.0
C361 C 0.42269 0.67806 0.19742 0.0
C362 C 0.42313 0.71436 0.21486 0.0
C363 C 0.39773 0.71799 0.2404 0.0
C364 C 0.37293 0.68421 0.24887 0.0
C365 C 0.37362 0.64731 0.23201 0.0
C366 C 0.42821 0.57709 0.19144 0.0
C367 C 0.41805 0.53524 0.19573 0.0
C368 C 0.44902 0.5048 0.19668 0.0
C369 C 0.491 0.51567 0.19325 0.0
C370 C 0.50125 0.55782 0.18992 0.0
C371 C 0.47034 0.58817 0.18917 0.0
H372 H 0.40265 0.80488 0.41984 0.0
N373 N 0.409 0.88315 0.43892 0.0
H374 H 0.38512 0.78015 0.36809 0.0
H375 H 0.40024 0.93119 0.38666 0.0
H376 H 0.38428 0.90652 0.33584 0.0
H377 H 0.39506 0.83782 0.48831 0.0
H378 H 0.32817 0.82612 0.51287 0.0
H379 H 0.33705 0.92586 0.42711 0.0
H380 H 0.27109 0.91592 0.45219 0.0
H381 H 0.39395 0.96696 0.43205 0.0
H382 H 0.48663 0.87753 0.45951 0.0
H383 H 0.44475 0.02161 0.43424 0.0
H384 H 0.53715 0.93306 0.46601 0.0
H385 H 0.62236 0.18299 0.40047 0.0
H386 H 0.63507 0.1943 0.34589 0.0
H387 H 0.63853 0.0613 0.33267 0.0
H388 H 0.62774 0.05058 0.38578 0.0
H389 H 0.68879 0.06427 0.42328 0.0
H390 H 0.75142 0.06737 0.45511 0.0
H391 H 0.69729 0.16559 0.5083 0.0
H392 H 0.63312 0.16057 0.47731 0.0
H393 H 0.53872 0.1213 0.4449 0.0
H394 H 0.48695 0.06814 0.45514 0.0
H395 H 0.58039 0.97338 0.44155 0.0
N396 N 0.61786 0.11054 0.43019 0.0
H397 H 0.63172 0.02621 0.43553 0.0
C398 C 0.40354 0.86982 0.40757 0.0
C399 C 0.39944 0.82716 0.40147 0.0
C400 C 0.38946 0.81308 0.37205 0.0
C401 C 0.38475 0.84146 0.34802 0.0
C402 C 0.3892 0.88399 0.35389 0.0
C403 C 0.39831 0.89813 0.38329 0.0
C404 C 0.37127 0.88289 0.45613 0.0
C405 C 0.36824 0.85568 0.48092 0.0
C406 C 0.33009 0.84909 0.49492 0.0
C407 C 0.29439 0.87015 0.48452 0.0
C408 C 0.2981 0.89957 0.46101 0.0
C409 C 0.33602 0.9055 0.44668 0.0
C410 C 0.43682 0.91757 0.44452 0.0
C411 C 0.42518 0.95904 0.43915 0.0
C412 C 0.45459 0.99082 0.44098 0.0
C413 C 0.49603 0.98242 0.44979 0.0
C414 C 0.5064 0.94117 0.45777 0.0
C415 C 0.47734 0.90918 0.45458 0.0
C416 C 0.62349 0.11605 0.39769 0.0
C417 C 0.62562 0.15642 0.38558 0.0
C418 C 0.63275 0.16284 0.3544 0.0
C419 C 0.63745 0.1288 0.33466 0.0
C420 C 0.63461 0.08849 0.34686 0.0
C421 C 0.62828 0.08219 0.3778 0.0
C422 C 0.65575 0.11182 0.44824 0.0
C423 C 0.68967 0.08567 0.44226 0.0
C424 C 0.72555 0.0874 0.46054 0.0
C425 C 0.72889 0.11625 0.48447 0.0
C426 C 0.69528 0.14274 0.49021 0.0
C427 C 0.65884 0.14008 0.47248 0.0
C428 C 0.58901 0.07822 0.43868 0.0
C429 C 0.54791 0.08896 0.44481 0.0
C430 C 0.51818 0.05822 0.45021 0.0
C431 C 0.5286 0.01568 0.44854 0.0
C432 C 0.57043 0.00528 0.44362 0.0
C433 C 0.60029 0.03601 0.43957 0.0
H434 H 0.0811 0.83576 0.6444 0.0
N435 N 0.12052 0.89681 0.67782 0.0
H436 H 0.08871 0.82187 0.59047 0.0
H437 H 0.17423 0.93174 0.63973 0.0
H438 H 0.18354 0.91602 0.58517 0.0
H439 H 0.19051 0.87952 0.70798 0.0
H440 H 0.20622 0.81755 0.73841 0.0
H441 H 0.06384 0.83854 0.69657 0.0
H442 H 0.07956 0.77613 0.726 0.0
H443 H 0.03839 0.88861 0.65953 0.0
H444 H 0.12432 0.96736 0.70901 0.0
H445 H 0.98391 0.9394 0.6657 0.0
H446 H 0.0688 0.01801 0.71668 0.0
H447 H 0.81529 0.11554 0.66691 0.0
H448 H 0.7905 0.13327 0.61509 0.0
H449 H 0.9168 0.13354 0.58424 0.0
H450 H 0.94152 0.11723 0.63542 0.0
H451 H 0.93984 0.17709 0.67564 0.0
H452 H 0.94116 0.24045 0.70605 0.0
H453 H 0.85108 0.18775 0.76656 0.0
H454 H 0.85211 0.12266 0.73713 0.0
H455 H 0.88401 0.02654 0.69694 0.0
H456 H 0.93789 0.97292 0.69969 0.0
H457 H 0.03155 0.06701 0.68649 0.0
N458 N 0.89359 0.10718 0.68646 0.0
H459 H 0.97844 0.11976 0.68492 0.0
C460 C 0.12653 0.88562 0.64625 0.0
C461 C 0.10323 0.85399 0.63195 0.0
C462 C 0.10763 0.84595 0.60096 0.0
C463 C 0.1363 0.86829 0.58368 0.0
C464 C 0.16107 0.89857 0.59805 0.0
C465 C 0.15577 0.9075 0.62907 0.0
C466 C 0.12642 0.86339 0.69941 0.0
C467 C 0.16593 0.85756 0.71255 0.0
C468 C 0.17474 0.82227 0.73009 0.0
C469 C 0.14417 0.79179 0.7344 0.0
C470 C 0.10379 0.79901 0.72298 0.0
C471 C 0.09486 0.83465 0.70587 0.0
C472 C 0.08611 0.9244 0.68338 0.0
C473 C 0.04571 0.91656 0.67203 0.0
C474 C 0.01409 0.94565 0.67592 0.0
C475 C 0.02187 0.98302 0.69156 0.0
C476 C 0.06184 0.98995 0.704 0.0
C477 C 0.09356 0.96097 0.69984 0.0
C478 C 0.88014 0.11433 0.65527 0.0
C479 C 0.83752 0.11886 0.64884 0.0
C480 C 0.82342 0.1289 0.61938 0.0
C481 C 0.85175 0.13338 0.59571 0.0
C482 C 0.89431 0.12882 0.60201 0.0
C483 C 0.90846 0.11955 0.63146 0.0
C484 C 0.89667 0.14446 0.70464 0.0
C485 C 0.92168 0.17824 0.69612 0.0
C486 C 0.92232 0.21459 0.71347 0.0
C487 C 0.89674 0.21858 0.73888 0.0
C488 C 0.8715 0.1851 0.74729 0.0
C489 C 0.87199 0.14812 0.73053 0.0
C490 C 0.92668 0.07726 0.69065 0.0
C491 C 0.91628 0.03551 0.69517 0.0
C492 C 0.94711 0.00494 0.69649 0.0
C493 C 0.98917 0.01557 0.69318 0.0
C494 C 0.99963 0.05763 0.68962 0.0
C495 C 0.96888 0.08811 0.68854 0.0
Mn496 Mn 0.33723 0.68208 0.02057 0.0
Mn497 Mn 0.34532 0.57791 0.02361 0.0
C498 C 0.33759 0.64766 0.06694 0.0
C499 C 0.36522 0.74863 0.02356 0.0
C500 C 0.26648 0.62223 1.00378 0.0
O501 O 0.35947 0.66828 0.97823 0.0
O502 O 0.36432 0.59864 0.98358 0.0
C503 C 0.43694 0.57116 0.02275 0.0
N504 N 0.40036 0.5637 0.03686 0.0
C505 C 0.43554 0.52969 0.07878 0.0
C506 C 0.47358 0.53688 0.06463 0.0
C507 C 0.47426 0.5577 0.0365 0.0
C508 C 0.39934 0.54359 0.06389 0.0
H509 H 0.43761 0.58731 1.00118 0.0
C510 C 0.36778 0.63205 0.96785 0.0
O511 O 0.32902 0.74201 0.01102 0.0
O512 O 0.38664 0.71623 0.03161 0.0
N513 N 0.32798 0.55459 0.06145 0.0
C514 C 0.2889 0.55164 0.07262 0.0
C515 C 0.28287 0.53226 0.10088 0.0
C516 C 0.31701 0.51598 0.11726 0.0
C517 C 0.3569 0.51916 0.10518 0.0
C518 C 0.36098 0.53858 0.07684 0.0
H519 H 0.26261 0.56423 0.06014 0.0
O520 O 0.32043 0.68389 0.06433 0.0
O521 O 0.35293 0.63239 0.04219 0.0
O522 O 0.28075 0.65884 0.00738 0.0
O523 O 0.28752 0.58954 0.00998 0.0
C524 C 0.39282 0.50424 0.1203 0.0
C525 C 0.43214 0.5097 0.10721 0.0
H526 H 0.50244 0.52673 0.07523 0.0
H527 H 0.50351 0.56342 0.02546 0.0
H528 H 0.25199 0.53 0.11008 0.0
H529 H 0.31227 0.50134 0.13915 0.0
H530 H 0.39054 0.48871 0.14209 0.0
H531 H 0.45958 0.49858 0.11928 0.0
Mn532 Mn 0.33348 0.82877 0.27194 0.0
Mn533 Mn 0.43771 0.83765 0.27366 0.0
C534 C 0.36966 0.82806 0.31779 0.0
C535 C 0.26711 0.85687 0.2749 0.0
C536 C 0.39344 0.75863 0.25539 0.0
O537 O 0.34528 0.852 0.2296 0.0
O538 O 0.41535 0.85565 0.23322 0.0
C539 C 0.44262 0.92936 0.2712 0.0
N540 N 0.45123 0.89307 0.28593 0.0
C541 C 0.48394 0.92945 0.32783 0.0
C542 C 0.47561 0.9672 0.31302 0.0
C543 C 0.45493 0.96714 0.28456 0.0
C544 C 0.47143 0.89276 0.3132 0.0
H545 H 0.42636 0.92945 0.24948 0.0
C546 C 0.38091 0.85946 0.21836 0.0
O547 O 0.27329 0.82087 0.26241 0.0
O548 O 0.29974 0.8778 0.28327 0.0
N549 N 0.46267 0.82108 0.31165 0.0
C550 C 0.46691 0.78212 0.3234 0.0
C551 C 0.48642 0.77678 0.352 0.0
C552 C 0.5013 0.8115 0.36821 0.0
C553 C 0.49684 0.85126 0.35555 0.0
C554 C 0.47767 0.85461 0.32676 0.0
H555 H 0.45511 0.75542 0.31114 0.0
O556 O 0.33335 0.8109 0.31556 0.0
O557 O 0.38389 0.84423 0.29292 0.0
O558 O 0.35677 0.77257 0.25881 0.0
O559 O 0.42632 0.77971 0.261 0.0
C560 C 0.50991 0.88776 0.37061 0.0
C561 C 0.50344 0.92683 0.35678 0.0
H562 H 0.4847 0.99643 0.32338 0.0
H563 H 0.44829 0.99616 0.27303 0.0
H564 H 0.48966 0.746 0.36166 0.0
H565 H 0.51582 0.8073 0.39045 0.0
H566 H 0.52457 0.88617 0.39299 0.0
H567 H 0.51321 0.95468 0.36875 0.0
Mn568 Mn 0.18658 0.82829 0.49734 0.0
Mn569 Mn 0.08231 0.83637 0.49583 0.0
C570 C 0.15024 0.827 0.45156 0.0
C571 C 0.2527 0.85692 0.49421 0.0
C572 C 0.12729 0.75789 0.51449 0.0
O573 O 0.17476 0.8518 0.53957 0.0
O574 O 0.10466 0.85508 0.5361 0.0
C575 C 0.07657 0.92806 0.49768 0.0
N576 N 0.06825 0.89152 0.4832 0.0
C577 C 0.03514 0.92711 0.4411 0.0
C578 C 0.04316 0.96511 0.45565 0.0
C579 C 0.0639 0.96557 0.48409 0.0
C580 C 0.04799 0.8907 0.45597 0.0
H581 H 0.09287 0.92856 0.51939 0.0
C582 C 0.13916 0.85926 0.55083 0.0
O583 O 0.24684 0.82094 0.50683 0.0
O584 O 0.21989 0.8775 0.48574 0.0
N585 N 0.05739 0.81912 0.45798 0.0
C586 C 0.05354 0.78 0.44649 0.0
C587 C 0.03405 0.77414 0.41793 0.0
C588 C 0.01881 0.80854 0.40151 0.0
C589 C 0.02291 0.84848 0.41391 0.0
C590 C 0.04207 0.85234 0.44267 0.0
H591 H 0.06562 0.75356 0.4589 0.0
O592 O 0.18667 0.8101 0.45378 0.0
O593 O 0.13599 0.8432 0.47641 0.0
O594 O 0.16382 0.77202 0.51079 0.0
O595 O 0.09422 0.77868 0.50888 0.0
C596 C 0.0095 0.88468 0.39861 0.0
C597 C 0.01563 0.92397 0.41218 0.0
H598 H 0.03381 0.99413 0.4451 0.0
H599 H 0.07031 0.99479 0.49541 0.0
H600 H 0.03111 0.74323 0.40846 0.0
H601 H 0.00432 0.80394 0.3793 0.0
H602 H 0.99485 0.8827 0.37625 0.0
H603 H 0.00561 0.9516 0.40003 0.0
Mn604 Mn 0.18265 0.68293 0.74951 0.0
Mn605 Mn 0.17114 0.57893 0.74864 0.0
C606 C 0.18152 0.647 0.70392 0.0
C607 C 0.15615 0.75002 0.74549 0.0
C608 C 0.2512 0.62128 0.76762 0.0
O609 O 0.16009 0.67137 0.79201 0.0
O610 O 0.15365 0.60147 0.78859 0.0
C611 C 0.0794 0.57531 0.7501 0.0
N612 N 0.11553 0.56628 0.73587 0.0
C613 C 0.07877 0.53259 0.69454 0.0
C614 C 0.04116 0.54138 0.70882 0.0
C615 C 0.0415 0.56281 0.73673 0.0
C616 C 0.11558 0.54548 0.7091 0.0
H617 H 0.07955 0.59196 0.77147 0.0
C618 C 0.15143 0.63581 0.80331 0.0
O619 O 0.19233 0.743 0.75797 0.0
O620 O 0.13409 0.71786 0.7379 0.0
N621 N 0.1873 0.55379 0.71114 0.0
C622 C 0.22615 0.54911 0.69987 0.0
C623 C 0.23124 0.52893 0.67179 0.0
C624 C 0.19638 0.51367 0.6557 0.0
C625 C 0.15673 0.5186 0.6679 0.0
C626 C 0.15361 0.53871 0.69606 0.0
H627 H 0.25297 0.561 0.71211 0.0
O628 O 0.19963 0.68283 0.70591 0.0
O629 O 0.16548 0.63299 0.72888 0.0
O630 O 0.23852 0.65834 0.76319 0.0
O631 O 0.22917 0.58908 0.762 0.0
C632 C 0.12014 0.50485 0.65304 0.0
C633 C 0.08117 0.51196 0.66627 0.0
H634 H 0.01186 0.532 0.6985 0.0
H635 H 0.01259 0.56975 0.74787 0.0
H636 H 0.26193 0.52532 0.6625 0.0
H637 H 0.20038 0.49845 0.63393 0.0
H638 H 0.12163 0.48894 0.63135 0.0
H639 H 0.05325 0.50164 0.65443 0.0
Mn640 Mn 0.83759 0.18231 0.51903 0.0
Mn641 Mn 0.84809 0.07835 0.52182 0.0
C642 C 0.83819 0.14785 0.56536 0.0
C643 C 0.86498 0.24911 0.52193 0.0
C644 C 0.76896 0.12151 0.50081 0.0
O645 O 0.8599 0.16858 0.47661 0.0
O646 O 0.86933 0.09945 0.4826 0.0
C647 C 0.93976 0.0726 0.52422 0.0
N648 N 0.90236 0.06467 0.53698 0.0
C649 C 0.93509 0.03067 0.57993 0.0
C650 C 0.97397 0.03833 0.56719 0.0
C651 C 0.9763 0.05939 0.53921 0.0
C652 C 0.89975 0.04429 0.56383 0.0
H653 H 0.94165 0.08894 0.50278 0.0
C654 C 0.87079 0.13282 0.46664 0.0
O655 O 0.82878 0.24217 0.50946 0.0
O656 O 0.88672 0.2169 0.52994 0.0
N657 N 0.8285 0.0548 0.55895 0.0
C658 C 0.78876 0.05173 0.56882 0.0
C659 C 0.78107 0.03226 0.59682 0.0
C660 C 0.81426 0.01606 0.61427 0.0
C661 C 0.85487 0.01945 0.60355 0.0
C662 C 0.86061 0.03893 0.57541 0.0
H663 H 0.76321 0.06427 0.55551 0.0
O664 O 0.82083 0.18399 0.5628 0.0
O665 O 0.85385 0.13288 0.54063 0.0
O666 O 0.78131 0.15843 0.50608 0.0
O667 O 0.79118 0.0893 0.50596 0.0
C668 C 0.88993 0.00478 0.61988 0.0
C669 C 0.93004 0.01054 0.60816 0.0
H670 H 0.00223 0.02841 0.57876 0.0
H671 H 0.0062 0.06549 0.52926 0.0
H672 H 0.74965 0.02987 0.60498 0.0
H673 H 0.80824 0.00137 0.63596 0.0
H674 H 0.88639 0.98927 0.64157 0.0
H675 H 0.95678 0.99964 0.62115 0.0
Mn676 Mn 0.83403 0.33002 0.77098 0.0
Mn677 Mn 0.93834 0.33775 0.77179 0.0
C678 C 0.87089 0.32853 0.81653 0.0
C679 C 0.76796 0.35864 0.77447 0.0
C680 C 0.893 0.25926 0.75389 0.0
O681 O 0.84531 0.35333 0.72861 0.0
O682 O 0.91544 0.35586 0.73155 0.0
C683 C 0.94436 0.42939 0.76906 0.0
N684 N 0.95275 0.39305 0.78379 0.0
C685 C 0.98801 0.42905 0.82475 0.0
C686 C 0.9799 0.46686 0.80995 0.0
C687 C 0.95801 0.46701 0.78197 0.0
C688 C 0.97398 0.39254 0.81064 0.0
H689 H 0.92734 0.42964 0.74764 0.0
C690 C 0.88082 0.36021 0.71702 0.0
O691 O 0.77371 0.32265 0.76185 0.0
O692 O 0.80084 0.37926 0.78272 0.0
N693 N 0.96398 0.321 0.80949 0.0
C694 C 0.96816 0.28203 0.82121 0.0
C695 C 0.98884 0.27649 0.84936 0.0
C696 C 0.0051 0.31102 0.86507 0.0
C697 C 0.00073 0.35079 0.8524 0.0
C698 C 0.98011 0.35436 0.82417 0.0
H699 H 0.95549 0.25546 0.80926 0.0
O700 O 0.83435 0.31184 0.81448 0.0
O701 O 0.88496 0.34491 0.79166 0.0
O702 O 0.85654 0.27365 0.75749 0.0
O703 O 0.92616 0.27993 0.75937 0.0
C704 C 0.01557 0.38707 0.86684 0.0
C705 C 0.00908 0.42619 0.8531 0.0
H706 H 0.99017 0.49595 0.81991 0.0
H707 H 0.95159 0.49607 0.77043 0.0
H708 H 0.99203 0.24571 0.85901 0.0
H709 H 0.02068 0.30667 0.88691 0.0
H710 H 0.03185 0.38523 0.88859 0.0
H711 H 0.02025 0.4539 0.86459 0.0
Mn712 Mn 0.69014 0.32792 0.99786 0.0
Mn713 Mn 0.58599 0.33815 0.99629 0.0
C714 C 0.65377 0.32785 0.95205 0.0
C715 C 0.75698 0.35495 0.99473 0.0
C716 C 0.62931 0.25857 0.01445 0.0
O717 O 0.67873 0.35126 0.04026 0.0
O718 O 0.60871 0.35592 0.03666 0.0
C719 C 0.58214 0.42992 0.99871 0.0
N720 N 0.57304 0.39372 0.98403 0.0
C721 C 0.5403 0.43042 0.94229 0.0
C722 C 0.54913 0.46809 0.95706 0.0
C723 C 0.57008 0.46782 0.98541 0.0
C724 C 0.5526 0.39361 0.95685 0.0
H725 H 0.59859 0.42985 0.02037 0.0
C726 C 0.64321 0.35927 0.0515 0.0
O727 O 0.75027 0.31907 0.00725 0.0
O728 O 0.72464 0.37642 0.9865 0.0
N729 N 0.56068 0.32184 0.95836 0.0
C730 C 0.55593 0.28293 0.94664 0.0
C731 C 0.53608 0.27777 0.91814 0.0
C732 C 0.52137 0.31264 0.90201 0.0
C733 C 0.52635 0.35236 0.91465 0.0
C734 C 0.54586 0.35552 0.94333 0.0
H735 H 0.56756 0.25611 0.95885 0.0
O736 O 0.68984 0.31018 0.95418 0.0
O737 O 0.63986 0.34412 0.97698 0.0
O738 O 0.66614 0.27203 0.01095 0.0
O739 O 0.5967 0.28009 0.00894 0.0
C740 C 0.51345 0.38898 0.89966 0.0
C741 C 0.52045 0.42798 0.91345 0.0
H742 H 0.54023 0.4974 0.94675 0.0
H743 H 0.57711 0.49677 0.99691 0.0
H744 H 0.53244 0.24703 0.9085 0.0
H745 H 0.50658 0.30858 0.87985 0.0
H746 H 0.4985 0.38752 0.87739 0.0
H747 H 0.51081 0.45593 0.90154 0.0
Mn748 Mn 0.68234 0.18288 0.24963 0.0
Mn749 Mn 0.67091 0.079 0.247 0.0
C750 C 0.68151 0.14826 0.20336 0.0
C751 C 0.65554 0.24992 0.24657 0.0
C752 C 0.75042 0.12149 0.26797 0.0
O753 O 0.65985 0.1695 0.29206 0.0
O754 O 0.64986 0.10043 0.28617 0.0
C755 C 0.57919 0.0741 0.2446 0.0
N756 N 0.61653 0.06577 0.23186 0.0
C757 C 0.5835 0.03177 0.18902 0.0
C758 C 0.54469 0.03986 0.20174 0.0
C759 C 0.54254 0.06111 0.22965 0.0
C760 C 0.61896 0.04522 0.20508 0.0
H761 H 0.57744 0.09057 0.26598 0.0
C762 C 0.64865 0.13385 0.30209 0.0
O763 O 0.69165 0.24271 0.25908 0.0
O764 O 0.63354 0.21786 0.23862 0.0
N765 N 0.6903 0.05511 0.20993 0.0
C766 C 0.73001 0.0516 0.20008 0.0
C767 C 0.73754 0.03187 0.17216 0.0
C768 C 0.70421 0.01585 0.15476 0.0
C769 C 0.66362 0.01968 0.16546 0.0
C770 C 0.65805 0.03943 0.19352 0.0
H771 H 0.75568 0.06399 0.21335 0.0
O772 O 0.69918 0.18426 0.20587 0.0
O773 O 0.66567 0.13352 0.2281 0.0
O774 O 0.73841 0.15851 0.26267 0.0
O775 O 0.72792 0.08947 0.26284 0.0
C776 C 0.62844 0.00517 0.1492 0.0
C777 C 0.58839 0.01139 0.16088 0.0
H778 H 0.51634 0.03009 0.19021 0.0
H779 H 0.51269 0.06753 0.23958 0.0
H780 H 0.76894 0.02914 0.16401 0.0
H781 H 0.71011 0.00094 0.13313 0.0
H782 H 0.63186 0.98942 0.12759 0.0
H783 H 0.56155 1.00059 0.14794 0.0
loop_
_geom_bond_atom_site_label_1
_geom_bond_atom_site_label_2
_geom_bond_distance
_geom_bond_site_symmetry_2
_ccdc_geom_bond_type
H0 C27 0.929 . S
N1 C26 1.433 . S
N1 C32 1.435 . S
N1 C38 1.423 . S
H2 C28 0.930 . S
H3 C31 0.931 . S
H4 C30 0.929 . S
H5 C33 0.930 . S
H6 C34 0.932 . S
H7 C37 0.929 . S
H8 C36 0.931 . S
H9 C39 0.929 . S
H10 C43 0.932 . S
H11 C40 0.931 . S
H12 C42 0.929 . S
H13 C45 0.929 . S
H14 C46 0.930 . S
H15 C48 0.929 . S
H16 C49 0.931 . S
H17 C51 0.930 . S
H18 C52 0.932 . S
H19 C54 0.931 . S
H20 C55 0.929 . S
H21 C57 0.929 . S
H22 C58 0.931 . S
H23 C60 0.929 . S
N24 C44 1.433 . S
N24 C50 1.435 . S
N24 C56 1.423 . S
H25 C61 0.932 . S
C26 N1 1.433 . S
C26 C27 1.363 . S
C26 C31 1.370 . S
C27 H0 0.929 . S
C27 C26 1.363 . S
C27 C28 1.385 . S
C28 H2 0.930 . S
C28 C27 1.385 . S
C28 C29 1.357 . S
C29 C28 1.357 . S
C29 C30 1.406 . S
C30 H4 0.929 . S
C30 C29 1.406 . S
C30 C31 1.391 . S
C31 H3 0.931 . S
C31 C26 1.370 . S
C31 C30 1.391 . S
C32 N1 1.435 . S
C32 C33 1.358 . S
C32 C37 1.371 . S
C33 H5 0.930 . S
C33 C32 1.358 . S
C33 C34 1.405 . S
C34 H6 0.932 . S
C34 C33 1.405 . S
C34 C35 1.383 . S
C35 C34 1.383 . S
C35 C36 1.393 . S
C36 H8 0.931 . S
C36 C35 1.393 . S
C36 C37 1.382 . S
C37 H7 0.929 . S
C37 C32 1.371 . S
C37 C36 1.382 . S
C38 N1 1.423 . S
C38 C39 1.362 . S
C38 C43 1.388 . S
C39 H9 0.929 . S
C39 C38 1.362 . S
C39 C40 1.376 1_565 S
C40 H11 0.931 . S
C40 C39 1.376 1_545 S
C40 C41 1.396 . S
C41 C40 1.396 . S
C41 C42 1.348 1_545 S
C41 C59 1.472 . S
C42 H12 0.929 . S
C42 C41 1.348 1_565 S
C42 C43 1.443 . S
C43 H10 0.932 . S
C43 C38 1.388 . S
C43 C42 1.443 . S
C44 N24 1.433 . S
C44 C45 1.363 . S
C44 C49 1.370 . S
C45 H13 0.929 . S
C45 C44 1.363 . S
C45 C46 1.385 . S
C46 H14 0.930 . S
C46 C45 1.385 . S
C46 C47 1.357 . S
C47 C46 1.357 . S
C47 C48 1.406 . S
C48 H15 0.929 . S
C48 C47 1.406 . S
C48 C49 1.391 . S
C49 H16 0.931 . S
C49 C44 1.370 . S
C49 C48 1.391 . S
C50 N24 1.435 . S
C50 C51 1.358 . S
C50 C55 1.371 . S
C51 H17 0.930 . S
C51 C50 1.358 . S
C51 C52 1.405 . S
C52 H18 0.932 . S
C52 C51 1.405 . S
C52 C53 1.383 . S
C53 C52 1.383 . S
C53 C54 1.393 . S
C54 H19 0.931 . S
C54 C53 1.393 . S
C54 C55 1.382 . S
C55 H20 0.929 . S
C55 C50 1.371 . S
C55 C54 1.382 . S
C56 N24 1.423 . S
C56 C57 1.362 . S
C56 C61 1.388 . S
C57 H21 0.929 . S
C57 C56 1.362 . S
C57 C58 1.376 1_655 S
C58 H22 0.931 . S
C58 C57 1.376 1_455 S
C58 C59 1.396 . S
C59 C41 1.472 . S
C59 C58 1.396 . S
C59 C60 1.348 1_455 S
C60 H23 0.929 . S
C60 C59 1.348 1_655 S
C60 C61 1.443 . S
C61 H25 0.932 . S
C61 C56 1.388 . S
C61 C60 1.443 . S
H62 C89 0.929 . S
N63 C88 1.433 . S
N63 C94 1.435 . S
N63 C100 1.423 . S
H64 C90 0.930 . S
H65 C93 0.931 . S
H66 C92 0.929 . S
H67 C95 0.930 . S
H68 C96 0.932 . S
H69 C99 0.929 . S
H70 C98 0.931 . S
H71 C101 0.931 . S
H72 C105 0.932 . S
H73 C102 0.931 . S
H74 C104 0.929 . S
H75 C107 0.929 . S
H76 C108 0.930 . S
H77 C110 0.929 . S
H78 C111 0.931 . S
H79 C113 0.930 . S
H80 C114 0.932 . S
H81 C116 0.931 . S
H82 C117 0.929 . S
H83 C119 0.929 . S
H84 C120 0.931 . S
H85 C122 0.929 . S
N86 C106 1.433 . S
N86 C112 1.435 . S
N86 C118 1.423 . S
H87 C123 0.932 . S
C88 N63 1.433 . S
C88 C89 1.363 . S
C88 C93 1.370 . S
C89 H62 0.929 . S
C89 C88 1.363 . S
C89 C90 1.385 . S
C90 H64 0.930 . S
C90 C89 1.385 . S
C90 C91 1.357 . S
C91 C90 1.357 . S
C91 C92 1.406 . S
C92 H66 0.929 . S
C92 C91 1.406 . S
C92 C93 1.391 . S
C93 H65 0.931 . S
C93 C88 1.370 . S
C93 C92 1.391 . S
C94 N63 1.435 . S
C94 C95 1.358 . S
C94 C99 1.371 . S
C95 H67 0.930 . S
C95 C94 1.358 . S
C95 C96 1.405 . S
C96 H68 0.932 . S
C96 C95 1.405 . S
C96 C97 1.383 . S
C97 C96 1.383 . S
C97 C98 1.393 . S
C98 H70 0.931 . S
C98 C97 1.393 . S
C98 C99 1.382 . S
C99 H69 0.929 . S
C99 C94 1.371 . S
C99 C98 1.382 . S
C100 N63 1.423 . S
C100 C101 1.362 . S
C100 C105 1.388 . S
C101 H71 0.931 . S
C101 C100 1.362 . S
C101 C102 1.376 1_655 S
C102 H73 0.931 . S
C102 C101 1.376 1_455 S
C102 C103 1.396 . S
C103 C102 1.396 . S
C103 C104 1.348 1_455 S
C103 C121 1.472 . S
C104 H74 0.929 . S
C104 C103 1.348 1_655 S
C104 C105 1.443 . S
C105 H72 0.932 . S
C105 C100 1.388 . S
C105 C104 1.443 . S
C106 N86 1.433 . S
C106 C107 1.363 . S
C106 C111 1.370 . S
C107 H75 0.929 . S
C107 C106 1.363 . S
C107 C108 1.385 . S
C108 H76 0.930 . S
C108 C107 1.385 . S
C108 C109 1.357 . S
C109 C108 1.357 . S
C109 C110 1.406 . S
C110 H77 0.929 . S
C110 C109 1.406 . S
C110 C111 1.391 . S
C111 H78 0.931 . S
C111 C106 1.370 . S
C111 C110 1.391 . S
C112 N86 1.435 . S
C112 C113 1.358 . S
C112 C117 1.371 . S
C113 H79 0.930 . S
C113 C112 1.358 . S
C113 C114 1.405 . S
C114 H80 0.932 . S
C114 C113 1.405 . S
C114 C115 1.383 . S
C115 C114 1.383 . S
C115 C116 1.393 . S
C116 H81 0.931 . S
C116 C115 1.393 . S
C116 C117 1.382 . S
C117 H82 0.929 . S
C117 C112 1.371 . S
C117 C116 1.382 . S
C118 N86 1.423 . S
C118 C119 1.362 . S
C118 C123 1.388 . S
C119 H83 0.929 . S
C119 C118 1.362 . S
C119 C120 1.376 . S
C120 H84 0.931 . S
C120 C119 1.376 . S
C120 C121 1.396 . S
C121 C103 1.472 . S
C121 C120 1.396 . S
C121 C122 1.348 . S
C122 H85 0.929 . S
C122 C121 1.348 . S
C122 C123 1.443 . S
C123 H87 0.932 . S
C123 C118 1.388 . S
C123 C122 1.443 . S
H124 C151 0.929 . S
N125 C150 1.433 . S
N125 C156 1.435 . S
N125 C162 1.423 . S
H126 C152 0.930 . S
H127 C155 0.931 . S
H128 C154 0.929 . S
H129 C157 0.930 . S
H130 C158 0.932 . S
H131 C161 0.929 . S
H132 C160 0.931 . S
H133 C163 0.929 . S
H134 C167 0.932 . S
H135 C164 0.931 . S
H136 C166 0.929 . S
H137 C169 0.929 . S
H138 C170 0.930 . S
H139 C172 0.929 . S
H140 C173 0.931 . S
H141 C175 0.930 . S
H142 C176 0.932 . S
H143 C178 0.931 . S
H144 C179 0.929 . S
H145 C181 0.929 . S
H146 C182 0.931 . S
H147 C184 0.929 . S
N148 C168 1.433 . S
N148 C174 1.435 . S
N148 C180 1.423 . S
H149 C185 0.932 . S
C150 N125 1.433 . S
C150 C151 1.363 . S
C150 C155 1.370 . S
C151 H124 0.929 . S
C151 C150 1.363 . S
C151 C152 1.385 . S
C152 H126 0.930 . S
C152 C151 1.385 . S
C152 C153 1.357 . S
C153 C152 1.357 . S
C153 C154 1.406 . S
C154 H128 0.929 . S
C154 C153 1.406 . S
C154 C155 1.391 . S
C155 H127 0.931 . S
C155 C150 1.370 . S
C155 C154 1.391 . S
C156 N125 1.435 . S
C156 C157 1.358 . S
C156 C161 1.371 . S
C157 H129 0.930 . S
C157 C156 1.358 . S
C157 C158 1.405 . S
C158 H130 0.932 . S
C158 C157 1.405 . S
C158 C159 1.383 . S
C159 C158 1.383 . S
C159 C160 1.393 . S
C160 H132 0.931 . S
C160 C159 1.393 . S
C160 C161 1.382 . S
C161 H131 0.929 . S
C161 C156 1.371 . S
C161 C160 1.382 . S
C162 N125 1.423 . S
C162 C163 1.362 . S
C162 C167 1.388 . S
C163 H133 0.929 . S
C163 C162 1.362 . S
C163 C164 1.376 . S
C164 H135 0.931 . S
C164 C163 1.376 . S
C164 C165 1.396 . S
C165 C164 1.396 . S
C165 C166 1.348 . S
C165 C183 1.472 . S
C166 H136 0.929 . S
C166 C165 1.348 . S
C166 C167 1.443 . S
C167 H134 0.932 . S
C167 C162 1.388 . S
C167 C166 1.443 . S
C168 N148 1.433 . S
C168 C169 1.363 . S
C168 C173 1.370 . S
C169 H137 0.929 . S
C169 C168 1.363 . S
C169 C170 1.385 . S
C170 H138 0.930 . S
C170 C169 1.385 . S
C170 C171 1.357 . S
C171 C170 1.357 . S
C171 C172 1.406 . S
C172 H139 0.929 . S
C172 C171 1.406 . S
C172 C173 1.391 . S
C173 H140 0.931 . S
C173 C168 1.370 . S
C173 C172 1.391 . S
C174 N148 1.435 . S
C174 C175 1.358 . S
C174 C179 1.371 . S
C175 H141 0.930 . S
C175 C174 1.358 . S
C175 C176 1.405 . S
C176 H142 0.932 . S
C176 C175 1.405 . S
C176 C177 1.383 . S
C177 C176 1.383 . S
C177 C178 1.393 . S
C178 H143 0.931 . S
C178 C177 1.393 . S
C178 C179 1.382 . S
C179 H144 0.929 . S
C179 C174 1.371 . S
C179 C178 1.382 . S
C180 N148 1.423 . S
C180 C181 1.362 . S
C180 C185 1.388 . S
C181 H145 0.929 . S
C181 C180 1.362 . S
C181 C182 1.376 . S
C182 H146 0.931 . S
C182 C181 1.376 . S
C182 C183 1.396 . S
C183 C165 1.472 . S
C183 C182 1.396 . S
C183 C184 1.348 . S
C184 H147 0.929 . S
C184 C183 1.348 . S
C184 C185 1.443 . S
C185 H149 0.932 . S
C185 C180 1.388 . S
C185 C184 1.443 . S
H186 C213 0.929 . S
N187 C212 1.433 . S
N187 C218 1.435 . S
N187 C224 1.423 . S
H188 C214 0.930 . S
H189 C217 0.931 . S
H190 C216 0.929 . S
H191 C219 0.930 . S
H192 C220 0.932 . S
H193 C223 0.929 . S
H194 C222 0.931 . S
H195 C225 0.929 . S
H196 C229 0.932 . S
H197 C226 0.931 . S
H198 C228 0.929 . S
H199 C231 0.929 . S
H200 C232 0.930 . S
H201 C234 0.929 . S
H202 C235 0.931 . S
H203 C237 0.930 . S
H204 C238 0.932 . S
H205 C240 0.931 . S
H206 C241 0.929 . S
H207 C243 0.929 . S
H208 C244 0.931 1_565 S
H209 C246 0.929 . S
N210 C230 1.433 . S
N210 C236 1.435 . S
N210 C242 1.423 . S
H211 C247 0.932 . S
C212 N187 1.433 . S
C212 C213 1.363 . S
C212 C217 1.370 . S
C213 H186 0.929 . S
C213 C212 1.363 . S
C213 C214 1.385 . S
C214 H188 0.930 . S
C214 C213 1.385 . S
C214 C215 1.357 . S
C215 C214 1.357 . S
C215 C216 1.406 . S
C216 H190 0.929 . S
C216 C215 1.406 . S
C216 C217 1.391 . S
C217 H189 0.931 . S
C217 C212 1.370 . S
C217 C216 1.391 . S
C218 N187 1.435 . S
C218 C219 1.358 . S
C218 C223 1.371 . S
C219 H191 0.930 . S
C219 C218 1.358 . S
C219 C220 1.405 . S
C220 H192 0.932 . S
C220 C219 1.405 . S
C220 C221 1.383 1_554 S
C221 C220 1.383 1_556 S
C221 C222 1.393 . S
C222 H194 0.931 . S
C222 C221 1.393 . S
C222 C223 1.382 1_556 S
C223 H193 0.929 . S
C223 C218 1.371 . S
C223 C222 1.382 1_554 S
C224 N187 1.423 . S
C224 C225 1.362 . S
C224 C229 1.388 . S
C225 H195 0.929 . S
C225 C224 1.362 . S
C225 C226 1.376 . S
C226 H197 0.931 . S
C226 C225 1.376 . S
C226 C227 1.396 . S
C227 C226 1.396 . S
C227 C228 1.348 . S
C227 C245 1.472 1_565 S
C228 H198 0.929 . S
C228 C227 1.348 . S
C228 C229 1.443 . S
C229 H196 0.932 . S
C229 C224 1.388 . S
C229 C228 1.443 . S
C230 N210 1.433 . S
C230 C231 1.363 . S
C230 C235 1.370 . S
C231 H199 0.929 . S
C231 C230 1.363 . S
C231 C232 1.385 . S
C232 H200 0.930 . S
C232 C231 1.385 . S
C232 C233 1.357 . S
C233 C232 1.357 . S
C233 C234 1.406 . S
C234 H201 0.929 . S
C234 C233 1.406 . S
C234 C235 1.391 . S
C235 H202 0.931 . S
C235 C230 1.370 . S
C235 C234 1.391 . S
C236 N210 1.435 . S
C236 C237 1.358 . S
C236 C241 1.371 . S
C237 H203 0.930 . S
C237 C236 1.358 . S
C237 C238 1.405 . S
C238 H204 0.932 . S
C238 C237 1.405 . S
C238 C239 1.383 1_554 S
C239 C238 1.383 1_556 S
C239 C240 1.393 . S
C240 H205 0.931 . S
C240 C239 1.393 . S
C240 C241 1.382 1_556 S
C241 H206 0.929 . S
C241 C236 1.371 . S
C241 C240 1.382 1_554 S
C242 N210 1.423 . S
C242 C243 1.362 . S
C242 C247 1.388 . S
C243 H207 0.929 . S
C243 C242 1.362 . S
C243 C244 1.376 . S
C244 H208 0.931 1_545 S
C244 C243 1.376 . S
C244 C245 1.396 . S
C245 C227 1.472 1_545 S
C245 C244 1.396 . S
C245 C246 1.348 . S
C246 H209 0.929 . S
C246 C245 1.348 . S
C246 C247 1.443 . S
C247 H211 0.932 . S
C247 C242 1.388 . S
C247 C246 1.443 . S
H248 C275 0.929 . S
N249 C274 1.433 . S
N249 C280 1.435 . S
N249 C286 1.423 . S
H250 C276 0.930 . S
H251 C279 0.931 . S
H252 C278 0.929 . S
H253 C281 0.930 . S
H254 C282 0.932 . S
H255 C285 0.929 . S
H256 C284 0.931 . S
H257 C287 0.929 . S
H258 C291 0.932 . S
H259 C288 0.931 . S
H260 C290 0.929 . S
H261 C293 0.929 . S
H262 C294 0.930 . S
H263 C296 0.929 . S
H264 C297 0.931 . S
H265 C299 0.930 . S
H266 C300 0.932 . S
H267 C302 0.931 . S
H268 C303 0.929 . S
H269 C305 0.929 . S
H270 C306 0.931 . S
H271 C308 0.929 . S
N272 C292 1.433 . S
N272 C298 1.435 . S
N272 C304 1.423 . S
H273 C309 0.932 . S
C274 N249 1.433 . S
C274 C275 1.363 . S
C274 C279 1.370 . S
C275 H248 0.929 . S
C275 C274 1.363 . S
C275 C276 1.385 . S
C276 H250 0.930 . S
C276 C275 1.385 . S
C276 C277 1.357 . S
C277 C276 1.357 . S
C277 C278 1.406 . S
C278 H252 0.929 . S
C278 C277 1.406 . S
C278 C279 1.391 . S
C279 H251 0.931 . S
C279 C274 1.370 . S
C279 C278 1.391 . S
C280 N249 1.435 . S
C280 C281 1.358 . S
C280 C285 1.371 . S
C281 H253 0.930 . S
C281 C280 1.358 . S
C281 C282 1.405 . S
C282 H254 0.932 . S
C282 C281 1.405 . S
C282 C283 1.383 1_556 S
C283 C282 1.383 1_554 S
C283 C284 1.393 . S
C284 H256 0.931 . S
C284 C283 1.393 . S
C284 C285 1.382 1_554 S
C285 H255 0.929 . S
C285 C280 1.371 . S
C285 C284 1.382 1_556 S
C286 N249 1.423 . S
C286 C287 1.362 . S
C286 C291 1.388 . S
C287 H257 0.929 . S
C287 C286 1.362 . S
C287 C288 1.376 . S
C288 H259 0.931 . S
C288 C287 1.376 . S
C288 C289 1.396 . S
C289 C288 1.396 . S
C289 C290 1.348 . S
C289 C307 1.472 . S
C290 H260 0.929 . S
C290 C289 1.348 . S
C290 C291 1.443 . S
C291 H258 0.932 . S
C291 C286 1.388 . S
C291 C290 1.443 . S
C292 N272 1.433 . S
C292 C293 1.363 . S
C292 C297 1.370 . S
C293 H261 0.929 . S
C293 C292 1.363 . S
C293 C294 1.385 . S
C294 H262 0.930 . S
C294 C293 1.385 . S
C294 C295 1.357 . S
C295 C294 1.357 . S
C295 C296 1.406 . S
C296 H263 0.929 . S
C296 C295 1.406 . S
C296 C297 1.391 . S
C297 H264 0.931 . S
C297 C292 1.370 . S
C297 C296 1.391 . S
C298 N272 1.435 . S
C298 C299 1.358 . S
C298 C303 1.371 . S
C299 H265 0.930 . S
C299 C298 1.358 . S
C299 C300 1.405 . S
C300 H266 0.932 . S
C300 C299 1.405 . S
C300 C301 1.383 1_556 S
C301 C300 1.383 1_554 S
C301 C302 1.393 . S
C302 H267 0.931 . S
C302 C301 1.393 . S
C302 C303 1.382 1_554 S
C303 H268 0.929 . S
C303 C298 1.371 . S
C303 C302 1.382 1_556 S
C304 N272 1.423 . S
C304 C305 1.362 . S
C304 C309 1.388 . S
C305 H269 0.929 . S
C305 C304 1.362 . S
C305 C306 1.376 1_655 S
C306 H270 0.931 . S
C306 C305 1.376 1_455 S
C306 C307 1.396 . S
C307 C289 1.472 . S
C307 C306 1.396 . S
C307 C308 1.348 1_455 S
C308 H271 0.929 . S
C308 C307 1.348 1_655 S
C308 C309 1.443 . S
C309 H273 0.932 . S
C309 C304 1.388 . S
C309 C308 1.443 . S
H310 C337 0.929 . S
N311 C336 1.433 . S
N311 C342 1.435 . S
N311 C348 1.423 . S
H312 C338 0.930 . S
H313 C341 0.931 . S
H314 C340 0.929 . S
H315 C343 0.930 . S
H316 C344 0.932 . S
H317 C347 0.929 . S
H318 C346 0.931 . S
H319 C349 0.929 . S
H320 C353 0.932 . S
H321 C350 0.931 . S
H322 C352 0.929 . S
H323 C355 0.929 . S
H324 C356 0.930 . S
H325 C358 0.929 . S
H326 C359 0.931 . S
H327 C361 0.930 . S
H328 C362 0.932 . S
H329 C364 0.931 . S
H330 C365 0.929 . S
H331 C367 0.929 . S
H332 C368 0.931 . S
H333 C370 0.929 . S
N334 C354 1.433 . S
N334 C360 1.435 . S
N334 C366 1.423 . S
H335 C371 0.932 . S
C336 N311 1.433 . S
C336 C337 1.363 . S
C336 C341 1.370 . S
C337 H310 0.929 . S
C337 C336 1.363 . S
C337 C338 1.385 . S
C338 H312 0.930 . S
C338 C337 1.385 . S
C338 C339 1.357 . S
C339 C338 1.357 . S
C339 C340 1.406 . S
C340 H314 0.929 . S
C340 C339 1.406 . S
C340 C341 1.391 . S
C341 H313 0.931 . S
C341 C336 1.370 . S
C341 C340 1.391 . S
C342 N311 1.435 . S
C342 C343 1.358 . S
C342 C347 1.371 . S
C343 H315 0.930 . S
C343 C342 1.358 . S
C343 C344 1.405 . S
C344 H316 0.932 . S
C344 C343 1.405 . S
C344 C345 1.383 . S
C345 C344 1.383 . S
C345 C346 1.393 . S
C346 H318 0.931 . S
C346 C345 1.393 . S
C346 C347 1.382 . S
C347 H317 0.929 . S
C347 C342 1.371 . S
C347 C346 1.382 . S
C348 N311 1.423 . S
C348 C349 1.362 . S
C348 C353 1.388 . S
C349 H319 0.929 . S
C349 C348 1.362 . S
C349 C350 1.376 . S
C350 H321 0.931 . S
C350 C349 1.376 . S
C350 C351 1.396 . S
C351 C350 1.396 . S
C351 C352 1.348 . S
C351 C369 1.472 . S
C352 H322 0.929 . S
C352 C351 1.348 . S
C352 C353 1.443 . S
C353 H320 0.932 . S
C353 C348 1.388 . S
C353 C352 1.443 . S
C354 N334 1.433 . S
C354 C355 1.363 . S
C354 C359 1.370 . S
C355 H323 0.929 . S
C355 C354 1.363 . S
C355 C356 1.385 . S
C356 H324 0.930 . S
C356 C355 1.385 . S
C356 C357 1.357 . S
C357 C356 1.357 . S
C357 C358 1.406 . S
C358 H325 0.929 . S
C358 C357 1.406 . S
C358 C359 1.391 . S
C359 H326 0.931 . S
C359 C354 1.370 . S
C359 C358 1.391 . S
C360 N334 1.435 . S
C360 C361 1.358 . S
C360 C365 1.371 . S
C361 H327 0.930 . S
C361 C360 1.358 . S
C361 C362 1.405 . S
C362 H328 0.932 . S
C362 C361 1.405 . S
C362 C363 1.383 . S
C363 C362 1.383 . S
C363 C364 1.393 . S
C364 H329 0.931 . S
C364 C363 1.393 . S
C364 C365 1.382 . S
C365 H330 0.929 . S
C365 C360 1.371 . S
C365 C364 1.382 . S
C366 N334 1.423 . S
C366 C367 1.362 . S
C366 C371 1.388 . S
C367 H331 0.929 . S
C367 C366 1.362 . S
C367 C368 1.376 . S
C368 H332 0.931 . S
C368 C367 1.376 . S
C368 C369 1.396 . S
C369 C351 1.472 . S
C369 C368 1.396 . S
C369 C370 1.348 . S
C370 H333 0.929 . S
C370 C369 1.348 . S
C370 C371 1.443 . S
C371 H335 0.932 . S
C371 C366 1.388 . S
C371 C370 1.443 . S
H372 C399 0.929 . S
N373 C398 1.433 . S
N373 C404 1.435 . S
N373 C410 1.423 . S
H374 C400 0.930 . S
H375 C403 0.931 . S
H376 C402 0.929 . S
H377 C405 0.930 . S
H378 C406 0.932 . S
H379 C409 0.929 . S
H380 C408 0.931 . S
H381 C411 0.929 . S
H382 C415 0.932 . S
H383 C412 0.931 . S
H384 C414 0.929 . S
H385 C417 0.929 . S
H386 C418 0.930 . S
H387 C420 0.929 . S
H388 C421 0.931 . S
H389 C423 0.930 . S
H390 C424 0.932 . S
H391 C426 0.931 . S
H392 C427 0.929 . S
H393 C429 0.929 . S
H394 C430 0.931 . S
H395 C432 0.929 . S
N396 C416 1.433 . S
N396 C422 1.435 . S
N396 C428 1.423 . S
H397 C433 0.932 . S
C398 N373 1.433 . S
C398 C399 1.363 . S
C398 C403 1.370 . S
C399 H372 0.929 . S
C399 C398 1.363 . S
C399 C400 1.385 . S
C400 H374 0.930 . S
C400 C399 1.385 . S
C400 C401 1.357 . S
C401 C400 1.357 . S
C401 C402 1.406 . S
C402 H376 0.929 . S
C402 C401 1.406 . S
C402 C403 1.391 . S
C403 H375 0.931 . S
C403 C398 1.370 . S
C403 C402 1.391 . S
C404 N373 1.435 . S
C404 C405 1.358 . S
C404 C409 1.371 . S
C405 H377 0.930 . S
C405 C404 1.358 . S
C405 C406 1.405 . S
C406 H378 0.932 . S
C406 C405 1.405 . S
C406 C407 1.383 . S
C407 C406 1.383 . S
C407 C408 1.393 . S
C408 H380 0.931 . S
C408 C407 1.393 . S
C408 C409 1.382 . S
C409 H379 0.929 . S
C409 C404 1.371 . S
C409 C408 1.382 . S
C410 N373 1.423 . S
C410 C411 1.362 . S
C410 C415 1.388 . S
C411 H381 0.929 . S
C411 C410 1.362 . S
C411 C412 1.376 1_565 S
C412 H383 0.931 . S
C412 C411 1.376 1_545 S
C412 C413 1.396 . S
C413 C412 1.396 . S
C413 C414 1.348 1_545 S
C413 C431 1.472 . S
C414 H384 0.929 . S
C414 C413 1.348 1_565 S
C414 C415 1.443 . S
C415 H382 0.932 . S
C415 C410 1.388 . S
C415 C414 1.443 . S
C416 N396 1.433 . S
C416 C417 1.363 . S
C416 C421 1.370 . S
C417 H385 0.929 . S
C417 C416 1.363 . S
C417 C418 1.385 . S
C418 H386 0.930 . S
C418 C417 1.385 . S
C418 C419 1.357 . S
C419 C418 1.357 . S
C419 C420 1.406 . S
C420 H387 0.929 . S
C420 C419 1.406 . S
C420 C421 1.391 . S
C421 H388 0.931 . S
C421 C416 1.370 . S
C421 C420 1.391 . S
C422 N396 1.435 . S
C422 C423 1.358 . S
C422 C427 1.371 . S
C423 H389 0.930 . S
C423 C422 1.358 . S
C423 C424 1.405 . S
C424 H390 0.932 . S
C424 C423 1.405 . S
C424 C425 1.383 . S
C425 C424 1.383 . S
C425 C426 1.393 . S
C426 H391 0.931 . S
C426 C425 1.393 . S
C426 C427 1.382 . S
C427 H392 0.929 . S
C427 C422 1.371 . S
C427 C426 1.382 . S
C428 N396 1.423 . S
C428 C429 1.362 . S
C428 C433 1.388 . S
C429 H393 0.929 . S
C429 C428 1.362 . S
C429 C430 1.376 . S
C430 H394 0.931 . S
C430 C429 1.376 . S
C430 C431 1.396 . S
C431 C413 1.472 . S
C431 C430 1.396 . S
C431 C432 1.348 . S
C432 H395 0.929 . S
C432 C431 1.348 . S
C432 C433 1.443 . S
C433 H397 0.932 . S
C433 C428 1.388 . S
C433 C432 1.443 . S
H434 C461 0.929 . S
N435 C460 1.433 . S
N435 C466 1.435 . S
N435 C472 1.423 . S
H436 C462 0.930 . S
H437 C465 0.931 . S
H438 C464 0.929 . S
H439 C467 0.930 . S
H440 C468 0.932 . S
H441 C471 0.929 . S
H442 C470 0.931 . S
H443 C473 0.929 . S
H444 C477 0.932 . S
H445 C474 0.931 . S
H446 C476 0.929 . S
H447 C479 0.929 . S
H448 C480 0.930 . S
H449 C482 0.929 . S
H450 C483 0.931 . S
H451 C485 0.930 . S
H452 C486 0.932 . S
H453 C488 0.931 . S
H454 C489 0.929 . S
H455 C491 0.929 . S
H456 C492 0.931 1_565 S
H457 C494 0.929 . S
N458 C478 1.433 . S
N458 C484 1.435 . S
N458 C490 1.423 . S
H459 C495 0.932 . S
C460 N435 1.433 . S
C460 C461 1.363 . S
C460 C465 1.370 . S
C461 H434 0.929 . S
C461 C460 1.363 . S
C461 C462 1.385 . S
C462 H436 0.930 . S
C462 C461 1.385 . S
C462 C463 1.357 . S
C463 C462 1.357 . S
C463 C464 1.406 . S
C464 H438 0.929 . S
C464 C463 1.406 . S
C464 C465 1.391 . S
C465 H437 0.931 . S
C465 C460 1.370 . S
C465 C464 1.391 . S
C466 N435 1.435 . S
C466 C467 1.358 . S
C466 C471 1.371 . S
C467 H439 0.930 . S
C467 C466 1.358 . S
C467 C468 1.405 . S
C468 H440 0.932 . S
C468 C467 1.405 . S
C468 C469 1.383 . S
C469 C468 1.383 . S
C469 C470 1.393 . S
C470 H442 0.931 . S
C470 C469 1.393 . S
C470 C471 1.382 . S
C471 H441 0.929 . S
C471 C466 1.371 . S
C471 C470 1.382 . S
C472 N435 1.423 . S
C472 C473 1.362 . S
C472 C477 1.388 . S
C473 H443 0.929 . S
C473 C472 1.362 . S
C473 C474 1.376 1_455 S
C474 H445 0.931 . S
C474 C473 1.376 1_655 S
C474 C475 1.396 . S
C475 C474 1.396 . S
C475 C476 1.348 1_655 S
C475 C493 1.472 1_565 S
C476 H446 0.929 . S
C476 C475 1.348 1_455 S
C476 C477 1.443 . S
C477 H444 0.932 . S
C477 C472 1.388 . S
C477 C476 1.443 . S
C478 N458 1.433 . S
C478 C479 1.363 . S
C478 C483 1.370 . S
C479 H447 0.929 . S
C479 C478 1.363 . S
C479 C480 1.385 . S
C480 H448 0.930 . S
C480 C479 1.385 . S
C480 C481 1.357 . S
C481 C480 1.357 . S
C481 C482 1.406 . S
C482 H449 0.929 . S
C482 C481 1.406 . S
C482 C483 1.391 . S
C483 H450 0.931 . S
C483 C478 1.370 . S
C483 C482 1.391 . S
C484 N458 1.435 . S
C484 C485 1.358 . S
C484 C489 1.371 . S
C485 H451 0.930 . S
C485 C484 1.358 . S
C485 C486 1.405 . S
C486 H452 0.932 . S
C486 C485 1.405 . S
C486 C487 1.383 . S
C487 C486 1.383 . S
C487 C488 1.393 . S
C488 H453 0.931 . S
C488 C487 1.393 . S
C488 C489 1.382 . S
C489 H454 0.929 . S
C489 C484 1.371 . S
C489 C488 1.382 . S
C490 N458 1.423 . S
C490 C491 1.362 . S
C490 C495 1.388 . S
C491 H455 0.929 . S
C491 C490 1.362 . S
C491 C492 1.376 . S
C492 H456 0.931 1_545 S
C492 C491 1.376 . S
C492 C493 1.396 . S
C493 C475 1.472 1_545 S
C493 C492 1.396 . S
C493 C494 1.348 . S
C494 H457 0.929 . S
C494 C493 1.348 . S
C494 C495 1.443 . S
C495 H459 0.932 . S
C495 C490 1.388 . S
C495 C494 1.443 . S
Mn496 O501 2.095 1_554 S
Mn496 O511 2.162 . S
Mn496 O512 2.297 . S
Mn496 O520 2.385 . S
Mn496 O521 2.209 . S
Mn496 O522 2.093 . S
Mn497 O502 2.112 1_554 S
Mn497 N504 2.260 . S
Mn497 N513 2.292 . S
Mn497 O521 2.221 . S
Mn497 O523 2.117 1_554 S
C498 O520 1.234 . S
C498 O521 1.283 . S
C499 O511 1.281 . S
C499 O512 1.236 . S
C500 O522 1.241 1_556 S
C500 O523 1.264 . S
O501 Mn496 2.095 1_556 S
O501 C510 1.250 . S
O502 Mn497 2.112 1_556 S
O502 C510 1.258 . S
C503 N504 1.326 1_556 S
C503 C507 1.460 1_556 S
C503 H509 0.929 . S
N504 Mn497 2.260 . S
N504 C503 1.326 1_554 S
N504 C508 1.362 . S
C505 C506 1.258 . S
C505 C508 1.431 . S
C505 C525 1.449 . S
C506 C505 1.258 . S
C506 C507 1.477 . S
C506 H526 0.931 . S
C507 C503 1.460 1_554 S
C507 C506 1.477 . S
C507 H527 0.930 1_554 S
C508 N504 1.362 . S
C508 C505 1.431 . S
C508 C518 1.476 . S
H509 C503 0.929 . S
C510 O501 1.250 . S
C510 O502 1.258 . S
O511 Mn496 2.162 . S
O511 C499 1.281 . S
O512 Mn496 2.297 . S
O512 C499 1.236 . S
N513 Mn497 2.292 . S
N513 C514 1.328 . S
N513 C518 1.318 . S
C514 N513 1.328 . S
C514 C515 1.457 . S
C514 H519 0.929 . S
C515 C514 1.457 . S
C515 C516 1.291 . S
C515 H528 0.931 . S
C516 C515 1.291 . S
C516 C517 1.373 . S
C516 H529 0.929 . S
C517 C516 1.373 . S
C517 C518 1.396 . S
C517 C524 1.403 . S
C518 C508 1.476 . S
C518 N513 1.318 . S
C518 C517 1.396 . S
H519 C514 0.929 . S
O520 Mn496 2.385 . S
O520 C498 1.234 . S
O521 Mn496 2.209 . S
O521 Mn497 2.221 . S
O521 C498 1.283 . S
O522 Mn496 2.093 . S
O522 C500 1.241 1_554 S
O523 Mn497 2.117 1_556 S
O523 C500 1.264 . S
C524 C517 1.403 . S
C524 C525 1.399 . S
C524 H530 0.929 . S
C525 C505 1.449 . S
C525 C524 1.399 . S
C525 H531 0.930 . S
H526 C506 0.931 . S
H527 C507 0.930 1_556 S
H528 C515 0.931 . S
H529 C516 0.929 . S
H530 C524 0.929 . S
H531 C525 0.930 . S
Mn532 O537 2.095 . S
Mn532 O547 2.162 . S
Mn532 O548 2.297 . S
Mn532 O556 2.385 . S
Mn532 O557 2.209 . S
Mn532 O558 2.094 . S
Mn533 O538 2.121 . S
Mn533 N540 2.257 . S
Mn533 N549 2.282 . S
Mn533 O557 2.215 . S
Mn533 O559 2.117 . S
C534 O556 1.234 . S
C534 O557 1.283 . S
C535 O547 1.281 . S
C535 O548 1.236 . S
C536 O558 1.240 . S
C536 O559 1.264 . S
O537 Mn532 2.095 . S
O537 C546 1.250 . S
O538 Mn533 2.121 . S
O538 C546 1.258 . S
C539 N540 1.326 . S
C539 C543 1.460 . S
C539 H545 0.929 . S
N540 Mn533 2.257 . S
N540 C539 1.326 . S
N540 C544 1.362 . S
C541 C542 1.258 . S
C541 C544 1.431 . S
C541 C561 1.449 . S
C542 C541 1.258 . S
C542 C543 1.477 . S
C542 H562 0.931 . S
C543 C539 1.460 . S
C543 C542 1.477 . S
C543 H563 0.930 . S
C544 N540 1.362 . S
C544 C541 1.431 . S
C544 C554 1.476 . S
H545 C539 0.929 . S
C546 O537 1.250 . S
C546 O538 1.258 . S
O547 Mn532 2.162 . S
O547 C535 1.281 . S
O548 Mn532 2.297 . S
O548 C535 1.236 . S
N549 Mn533 2.282 . S
N549 C550 1.328 . S
N549 C554 1.318 . S
C550 N549 1.328 . S
C550 C551 1.457 . S
C550 H555 0.929 . S
C551 C550 1.457 . S
C551 C552 1.291 . S
C551 H564 0.931 . S
C552 C551 1.291 . S
C552 C553 1.373 . S
C552 H565 0.929 . S
C553 C552 1.373 . S
C553 C554 1.396 . S
C553 C560 1.403 . S
C554 C544 1.476 . S
C554 N549 1.318 . S
C554 C553 1.396 . S
H555 C550 0.929 . S
O556 Mn532 2.385 . S
O556 C534 1.234 . S
O557 Mn532 2.209 . S
O557 Mn533 2.215 . S
O557 C534 1.283 . S
O558 Mn532 2.094 . S
O558 C536 1.240 . S
O559 Mn533 2.117 . S
O559 C536 1.264 . S
C560 C553 1.403 . S
C560 C561 1.399 . S
C560 H566 0.929 . S
C561 C541 1.449 . S
C561 C560 1.399 . S
C561 H567 0.930 . S
H562 C542 0.931 . S
H563 C543 0.930 . S
H564 C551 0.931 . S
H565 C552 0.929 . S
H566 C560 0.929 . S
H567 C561 0.930 . S
Mn568 O573 2.095 . S
Mn568 O583 2.162 . S
Mn568 O584 2.297 . S
Mn568 O592 2.385 . S
Mn568 O593 2.209 . S
Mn568 O594 2.094 . S
Mn569 O574 2.121 . S
Mn569 N576 2.257 . S
Mn569 N585 2.282 . S
Mn569 O593 2.215 . S
Mn569 O595 2.117 . S
C570 O592 1.234 . S
C570 O593 1.283 . S
C571 O583 1.281 . S
C571 O584 1.236 . S
C572 O594 1.240 . S
C572 O595 1.264 . S
O573 Mn568 2.095 . S
O573 C582 1.250 . S
O574 Mn569 2.121 . S
O574 C582 1.258 . S
C575 N576 1.326 . S
C575 C579 1.460 . S
C575 H581 0.929 . S
N576 Mn569 2.257 . S
N576 C575 1.326 . S
N576 C580 1.362 . S
C577 C578 1.258 . S
C577 C580 1.431 1_655 S
C577 C597 1.449 . S
C578 C577 1.258 . S
C578 C579 1.477 1_655 S
C578 H598 0.931 . S
C579 C575 1.460 . S
C579 C578 1.477 1_455 S
C579 H599 0.930 . S
C580 N576 1.362 . S
C580 C577 1.431 1_455 S
C580 C590 1.476 . S
H581 C575 0.929 . S
C582 O573 1.250 . S
C582 O574 1.258 . S
O583 Mn568 2.162 . S
O583 C571 1.281 . S
O584 Mn568 2.297 . S
O584 C571 1.236 . S
N585 Mn569 2.282 . S
N585 C586 1.328 . S
N585 C590 1.318 . S
C586 N585 1.328 . S
C586 C587 1.457 . S
C586 H591 0.929 . S
C587 C586 1.457 . S
C587 C588 1.291 . S
C587 H600 0.931 . S
C588 C587 1.291 . S
C588 C589 1.373 . S
C588 H601 0.929 . S
C589 C588 1.373 . S
C589 C590 1.396 . S
C589 C596 1.403 1_455 S
C590 C580 1.476 . S
C590 N585 1.318 . S
C590 C589 1.396 . S
H591 C586 0.929 . S
O592 Mn568 2.385 . S
O592 C570 1.234 . S
O593 Mn568 2.209 . S
O593 Mn569 2.215 . S
O593 C570 1.283 . S
O594 Mn568 2.094 . S
O594 C572 1.240 . S
O595 Mn569 2.117 . S
O595 C572 1.264 . S
C596 C589 1.403 1_655 S
C596 C597 1.399 . S
C596 H602 0.929 . S
C597 C577 1.449 . S
C597 C596 1.399 . S
C597 H603 0.930 . S
H598 C578 0.931 . S
H599 C579 0.930 . S
H600 C587 0.931 . S
H601 C588 0.929 . S
H602 C596 0.929 . S
H603 C597 0.930 . S
Mn604 O609 2.095 . S
Mn604 O619 2.162 . S
Mn604 O620 2.297 . S
Mn604 O628 2.385 . S
Mn604 O629 2.209 . S
Mn604 O630 2.094 . S
Mn605 O610 2.121 . S
Mn605 N612 2.257 . S
Mn605 N621 2.282 . S
Mn605 O629 2.215 . S
Mn605 O631 2.117 . S
C606 O628 1.234 . S
C606 O629 1.283 . S
C607 O619 1.281 . S
C607 O620 1.236 . S
C608 O630 1.240 . S
C608 O631 1.264 . S
O609 Mn604 2.095 . S
O609 C618 1.250 . S
O610 Mn605 2.121 . S
O610 C618 1.258 . S
C611 N612 1.326 . S
C611 C615 1.460 . S
C611 H617 0.929 . S
N612 Mn605 2.257 . S
N612 C611 1.326 . S
N612 C616 1.362 . S
C613 C614 1.258 . S
C613 C616 1.431 . S
C613 C633 1.449 . S
C614 C613 1.258 . S
C614 C615 1.477 . S
C614 H634 0.931 . S
C615 C611 1.460 . S
C615 C614 1.477 . S
C615 H635 0.930 . S
C616 N612 1.362 . S
C616 C613 1.431 . S
C616 C626 1.476 . S
H617 C611 0.929 . S
C618 O609 1.250 . S
C618 O610 1.258 . S
O619 Mn604 2.162 . S
O619 C607 1.281 . S
O620 Mn604 2.297 . S
O620 C607 1.236 . S
N621 Mn605 2.282 . S
N621 C622 1.328 . S
N621 C626 1.318 . S
C622 N621 1.328 . S
C622 C623 1.457 . S
C622 H627 0.929 . S
C623 C622 1.457 . S
C623 C624 1.291 . S
C623 H636 0.931 . S
C624 C623 1.291 . S
C624 C625 1.373 . S
C624 H637 0.929 . S
C625 C624 1.373 . S
C625 C626 1.396 . S
C625 C632 1.403 . S
C626 C616 1.476 . S
C626 N621 1.318 . S
C626 C625 1.396 . S
H627 C622 0.929 . S
O628 Mn604 2.385 . S
O628 C606 1.234 . S
O629 Mn604 2.209 . S
O629 Mn605 2.215 . S
O629 C606 1.283 . S
O630 Mn604 2.094 . S
O630 C608 1.240 . S
O631 Mn605 2.117 . S
O631 C608 1.264 . S
C632 C625 1.403 . S
C632 C633 1.399 . S
C632 H638 0.929 . S
C633 C613 1.449 . S
C633 C632 1.399 . S
C633 H639 0.930 . S
H634 C614 0.931 . S
H635 C615 0.930 . S
H636 C623 0.931 . S
H637 C624 0.929 . S
H638 C632 0.929 . S
H639 C633 0.930 . S
Mn640 O645 2.095 . S
Mn640 O655 2.162 . S
Mn640 O656 2.297 . S
Mn640 O664 2.385 . S
Mn640 O665 2.209 . S
Mn640 O666 2.094 . S
Mn641 O646 2.121 . S
Mn641 N648 2.257 . S
Mn641 N657 2.282 . S
Mn641 O665 2.215 . S
Mn641 O667 2.117 . S
C642 O664 1.234 . S
C642 O665 1.283 . S
C643 O655 1.281 . S
C643 O656 1.236 . S
C644 O666 1.240 . S
C644 O667 1.264 . S
O645 Mn640 2.095 . S
O645 C654 1.250 . S
O646 Mn641 2.121 . S
O646 C654 1.258 . S
C647 N648 1.326 . S
C647 C651 1.460 . S
C647 H653 0.929 . S
N648 Mn641 2.257 . S
N648 C647 1.326 . S
N648 C652 1.362 . S
C649 C650 1.258 . S
C649 C652 1.431 1_565 S
C649 C669 1.449 . S
C650 C649 1.258 . S
C650 C651 1.477 1_565 S
C650 H670 0.931 . S
C651 C647 1.460 . S
C651 C650 1.477 1_545 S
C651 H671 0.930 . S
C652 N648 1.362 . S
C652 C649 1.431 1_545 S
C652 C662 1.476 . S
H653 C647 0.929 . S
C654 O645 1.250 . S
C654 O646 1.258 . S
O655 Mn640 2.162 . S
O655 C643 1.281 . S
O656 Mn640 2.297 . S
O656 C643 1.236 . S
N657 Mn641 2.282 . S
N657 C658 1.328 . S
N657 C662 1.318 . S
C658 N657 1.328 . S
C658 C659 1.457 . S
C658 H663 0.929 . S
C659 C658 1.457 . S
C659 C660 1.291 . S
C659 H672 0.931 . S
C660 C659 1.291 . S
C660 C661 1.373 . S
C660 H673 0.924 1_545 S
C661 C660 1.373 . S
C661 C662 1.396 . S
C661 C668 1.403 1_545 S
C662 C652 1.476 . S
C662 N657 1.318 . S
C662 C661 1.396 . S
H663 C658 0.929 . S
O664 Mn640 2.385 . S
O664 C642 1.234 . S
O665 Mn640 2.209 . S
O665 Mn641 2.215 . S
O665 C642 1.283 . S
O666 Mn640 2.094 . S
O666 C644 1.240 . S
O667 Mn641 2.117 . S
O667 C644 1.264 . S
C668 C661 1.403 1_565 S
C668 C669 1.399 . S
C668 H674 0.929 . S
C669 C649 1.449 . S
C669 C668 1.399 . S
C669 H675 0.930 . S
H670 C650 0.931 . S
H671 C651 0.930 . S
H672 C659 0.931 . S
H673 C660 0.924 1_565 S
H674 C668 0.929 . S
H675 C669 0.930 . S
Mn676 O681 2.095 . S
Mn676 O691 2.162 . S
Mn676 O692 2.297 . S
Mn676 O700 2.385 . S
Mn676 O701 2.209 . S
Mn676 O702 2.094 . S
Mn677 O682 2.121 . S
Mn677 N684 2.257 . S
Mn677 N693 2.282 . S
Mn677 O701 2.215 . S
Mn677 O703 2.117 . S
C678 O700 1.234 . S
C678 O701 1.283 . S
C679 O691 1.281 . S
C679 O692 1.236 . S
C680 O702 1.240 . S
C680 O703 1.264 . S
O681 Mn676 2.095 . S
O681 C690 1.250 . S
O682 Mn677 2.121 . S
O682 C690 1.258 . S
C683 N684 1.326 . S
C683 C687 1.441 1_655 S
C683 H689 0.929 . S
N684 Mn677 2.257 . S
N684 C683 1.326 . S
N684 C688 1.362 . S
C685 C686 1.258 . S
C685 C688 1.431 1_455 S
C685 C705 1.449 . S
C686 C685 1.258 . S
C686 C687 1.492 . S
C686 H706 0.931 . S
C687 C683 1.441 1_455 S
C687 C686 1.492 . S
C687 H707 0.934 . S
C688 N684 1.362 . S
C688 C685 1.431 1_655 S
C688 C698 1.476 . S
H689 C683 0.929 . S
C690 O681 1.250 . S
C690 O682 1.258 . S
O691 Mn676 2.162 . S
O691 C679 1.281 . S
O692 Mn676 2.297 . S
O692 C679 1.236 . S
N693 Mn677 2.282 . S
N693 C694 1.328 . S
N693 C698 1.318 . S
C694 N693 1.328 . S
C694 C695 1.457 . S
C694 H699 0.929 . S
C695 C694 1.457 . S
C695 C696 1.293 1_655 S
C695 H708 0.931 . S
C696 C695 1.293 1_455 S
C696 C697 1.372 . S
C696 H709 0.928 . S
C697 C696 1.372 . S
C697 C698 1.396 1_455 S
C697 C704 1.403 . S
C698 C688 1.476 . S
C698 N693 1.318 . S
C698 C697 1.396 1_655 S
H699 C694 0.929 . S
O700 Mn676 2.385 . S
O700 C678 1.234 . S
O701 Mn676 2.209 . S
O701 Mn677 2.215 . S
O701 C678 1.283 . S
O702 Mn676 2.094 . S
O702 C680 1.240 . S
O703 Mn677 2.117 . S
O703 C680 1.264 . S
C704 C697 1.403 . S
C704 C705 1.399 . S
C704 H710 0.929 . S
C705 C685 1.449 . S
C705 C704 1.399 . S
C705 H711 0.930 . S
H706 C686 0.931 . S
H707 C687 0.934 . S
H708 C695 0.931 . S
H709 C696 0.928 . S
H710 C704 0.929 . S
H711 C705 0.930 . S
Mn712 O717 2.095 . S
Mn712 O727 2.162 . S
Mn712 O728 2.297 1_554 S
Mn712 O736 2.385 1_554 S
Mn712 O737 2.209 1_554 S
Mn712 O738 2.094 . S
Mn713 O718 2.121 . S
Mn713 N720 2.257 1_554 S
Mn713 N729 2.282 1_554 S
Mn713 O737 2.215 1_554 S
Mn713 O739 2.117 . S
C714 O736 1.234 . S
C714 O737 1.283 . S
C715 O727 1.281 1_556 S
C715 O728 1.236 . S
C716 O738 1.240 . S
C716 O739 1.264 . S
O717 Mn712 2.095 . S
O717 C726 1.250 . S
O718 Mn713 2.121 . S
O718 C726 1.258 . S
C719 N720 1.326 1_554 S
C719 C723 1.460 . S
C719 H725 0.929 . S
N720 Mn713 2.257 1_556 S
N720 C719 1.326 1_556 S
N720 C724 1.362 . S
C721 C722 1.258 . S
C721 C724 1.431 . S
C721 C741 1.449 . S
C722 C721 1.258 . S
C722 C723 1.477 1_556 S
C722 H742 0.931 . S
C723 C719 1.460 . S
C723 C722 1.477 1_554 S
C723 H743 0.930 . S
C724 N720 1.362 . S
C724 C721 1.431 . S
C724 C734 1.476 . S
H725 C719 0.929 . S
C726 O717 1.250 . S
C726 O718 1.258 . S
O727 Mn712 2.162 . S
O727 C715 1.281 1_554 S
O728 Mn712 2.297 1_556 S
O728 C715 1.236 . S
N729 Mn713 2.282 1_556 S
N729 C730 1.328 . S
N729 C734 1.318 . S
C730 N729 1.328 . S
C730 C731 1.457 . S
C730 H735 0.929 . S
C731 C730 1.457 . S
C731 C732 1.291 . S
C731 H744 0.931 . S
C732 C731 1.291 . S
C732 C733 1.373 . S
C732 H745 0.929 . S
C733 C732 1.373 . S
C733 C734 1.396 . S
C733 C740 1.403 . S
C734 C724 1.476 . S
C734 N729 1.318 . S
C734 C733 1.396 . S
H735 C730 0.929 . S
O736 Mn712 2.385 1_556 S
O736 C714 1.234 . S
O737 Mn712 2.209 1_556 S
O737 Mn713 2.215 1_556 S
O737 C714 1.283 . S
O738 Mn712 2.094 . S
O738 C716 1.240 . S
O739 Mn713 2.117 . S
O739 C716 1.264 . S
C740 C733 1.403 . S
C740 C741 1.399 . S
C740 H746 0.929 . S
C741 C721 1.449 . S
C741 C740 1.399 . S
C741 H747 0.930 . S
H742 C722 0.931 . S
H743 C723 0.930 . S
H744 C731 0.931 . S
H745 C732 0.929 . S
H746 C740 0.929 . S
H747 C741 0.930 . S
Mn748 O753 2.095 . S
Mn748 O763 2.162 . S
Mn748 O764 2.297 . S
Mn748 O772 2.385 . S
Mn748 O773 2.209 . S
Mn748 O774 2.094 . S
Mn749 O754 2.121 . S
Mn749 N756 2.257 . S
Mn749 N765 2.282 . S
Mn749 O773 2.215 . S
Mn749 O775 2.117 . S
C750 O772 1.234 . S
C750 O773 1.283 . S
C751 O763 1.281 . S
C751 O764 1.236 . S
C752 O774 1.240 . S
C752 O775 1.264 . S
O753 Mn748 2.095 . S
O753 C762 1.250 . S
O754 Mn749 2.121 . S
O754 C762 1.258 . S
C755 N756 1.326 . S
C755 C759 1.460 . S
C755 H761 0.929 . S
N756 Mn749 2.257 . S
N756 C755 1.326 . S
N756 C760 1.362 . S
C757 C758 1.258 . S
C757 C760 1.431 1_565 S
C757 C777 1.449 . S
C758 C757 1.258 . S
C758 C759 1.477 1_565 S
C758 H778 0.931 . S
C759 C755 1.460 . S
C759 C758 1.477 1_545 S
C759 H779 0.930 . S
C760 N756 1.362 . S
C760 C757 1.431 1_545 S
C760 C770 1.476 . S
H761 C755 0.929 . S
C762 O753 1.250 . S
C762 O754 1.258 . S
O763 Mn748 2.162 . S
O763 C751 1.281 . S
O764 Mn748 2.297 . S
O764 C751 1.236 . S
N765 Mn749 2.282 . S
N765 C766 1.328 . S
N765 C770 1.318 . S
C766 N765 1.328 . S
C766 C767 1.457 . S
C766 H771 0.929 . S
C767 C766 1.457 . S
C767 C768 1.291 . S
C767 H780 0.931 . S
C768 C767 1.291 . S
C768 C769 1.373 . S
C768 H781 0.926 1_545 S
C769 C768 1.373 . S
C769 C770 1.396 . S
C769 C776 1.403 1_545 S
C770 C760 1.476 . S
C770 N765 1.318 . S
C770 C769 1.396 . S
H771 C766 0.929 . S
O772 Mn748 2.385 . S
O772 C750 1.234 . S
O773 Mn748 2.209 . S
O773 Mn749 2.215 . S
O773 C750 1.283 . S
O774 Mn748 2.094 . S
O774 C752 1.240 . S
O775 Mn749 2.117 . S
O775 C752 1.264 . S
C776 C769 1.403 1_565 S
C776 C777 1.399 . S
C776 H782 0.929 . S
C777 C757 1.449 . S
C777 C776 1.399 . S
C777 H783 0.930 . S
H778 C758 0.931 . S
H779 C759 0.930 . S
H780 C767 0.931 . S
H781 C768 0.926 1_565 S
H782 C776 0.929 . S
H783 C777 0.930 . S
C535 C35 1.819 . S
C572 C115 1.875 . S
C608 C177 1.975 . S
C221 C499 1.917 1_556 S
C283 C500 1.913 1_554 S
C363 C536 1.874 . S
C571 C407 1.818 . S
C607 C469 1.917 . S
C159 C679 1.819 . S
C716 C239 1.874 1_554 S
C53 C752 1.974 . S
C643 C97 1.916 . S
C425 C644 1.975 . S
C487 C680 1.875 . S
C715 C301 1.874 1_556 S
C345 C751 1.918 . S
C570 C29 2.672 . S
C606 C109 2.520 . S
C171 C510 2.238 . S
C215 C546 2.366 . S
C277 C618 2.351 . S
C498 C357 2.522 . S
C534 C401 2.674 . S
C582 C463 2.367 . S
C714 C153 2.674 . S
C750 C233 2.522 . S
C47 C654 2.239 . S
C690 C91 2.367 . S
C762 C419 2.237 . S
C481 C642 2.521 . S
C678 C295 2.537 . S
C726 C339 2.365 . S
