# Generated by pormake.
# Topology tsx, (6,3)-cn, num edge types: 1
# Building blocks:
#     Node 0, Type 0, BuildingBlock: MIDCAF_clean_sbu_0, # of connection points: 6
#     Node 1, Type 0, BuildingBlock: MIDCAF_clean_sbu_0, # of connection points: 6
#     Node 2, Type 1, BuildingBlock: VETTIZ_charged_linker_0, # of connection points: 3
#     Node 3, Type 1, BuildingBlock: VETTIZ_charged_linker_0, # of connection points: 3
#     Node 4, Type 1, BuildingBlock: VETTIZ_charged_linker_0, # of connection points: 3
#     Node 5, Type 1, BuildingBlock: VETTIZ_charged_linker_0, # of connection points: 3
#     Edge 6, Type (0, 1), BuildingBlock: FUNLAD_clean_linker_0, # of connection points: 2
#     Edge 7, Type (0, 1), BuildingBlock: FUNLAD_clean_linker_0, # of connection points: 2
#     Edge 8, Type (0, 1), BuildingBlock: FUNLAD_clean_linker_0, # of connection points: 2
#     Edge 9, Type (0, 1), BuildingBlock: FUNLAD_clean_linker_0, # of connection points: 2
#     Edge 10, Type (0, 1), BuildingBlock: FUNLAD_clean_linker_0, # of connection points: 2
#     Edge 11, Type (0, 1), BuildingBlock: FUNLAD_clean_linker_0, # of connection points: 2
#     Edge 12, Type (0, 1), BuildingBlock: FUNLAD_clean_linker_0, # of connection points: 2
#     Edge 13, Type (0, 1), BuildingBlock: FUNLAD_clean_linker_0, # of connection points: 2
#     Edge 14, Type (0, 1), BuildingBlock: FUNLAD_clean_linker_0, # of connection points: 2
#     Edge 15, Type (0, 1), BuildingBlock: FUNLAD_clean_linker_0, # of connection points: 2
#     Edge 16, Type (0, 1), BuildingBlock: FUNLAD_clean_linker_0, # of connection points: 2
#     Edge 17, Type (0, 1), BuildingBlock: FUNLAD_clean_linker_0, # of connection points: 2
# Relax obj value: 0.121
# Max RMSD: 0.183
# Mean RMSD: 0.115
data_MOF--net-tsx--node1-MIDCAF_clean_sbu_0--node2-VETTIZ_charged_linker_0--edge1-FUNLAD_clean_linker_0
_symmetry_space_group_name_H-M    P1
_symmetry_Int_Tables_number       1
_symmetry_cell_setting            triclinic
loop_
_symmetry_equiv_pos_as_xyz
'x, y, z'
_cell_length_a     26.9015
_cell_length_b     27.74815
_cell_length_c     52.950323
_cell_angle_alpha  90.565103
_cell_angle_beta   94.490713
_cell_angle_gamma 90.068745
loop_
_atom_site_label
_atom_site_type_symbol
_atom_site_fract_x
_atom_site_fract_y
_atom_site_fract_z
_atom_type_partial_charge
Zn0 Zn 0.95748 0.03141 0.97029 0.0
Zn1 Zn 0.11505 0.02871 0.03578 0.0
Zn2 Zn 0.03713 0.02887 0.00289 0.0
C3 C 0.0933 0.1246 0.02698 0.0
C4 C 0.14331 0.97849 0.99383 0.0
O5 O 0.97524 0.9899 0.01907 0.0
O6 O 0.90992 0.00014 0.99157 0.0
C7 C 0.98501 0.12641 0.97933 0.0
O8 O 0.06044 0.10482 0.01111 0.0
O9 O 0.12164 0.09889 0.04135 0.0
O10 O 0.16197 0.99578 0.01459 0.0
O11 O 0.09728 0.98676 0.98648 0.0
O12 O 0.95434 0.10197 0.9652 0.0
O13 O 0.01752 0.10523 0.99459 0.0
O14 O 0.05669 0.99067 0.96803 0.0
O15 O 0.98543 0.99069 0.94409 0.0
C16 C 0.03068 0.9787 0.94743 0.0
O17 O 0.01526 0.99445 0.03809 0.0
O18 O 0.08596 0.99075 0.06233 0.0
C19 C 0.92884 0.98255 0.012 0.0
C20 C 0.03984 0.98221 0.05893 0.0
Zn21 Zn 0.66423 0.50787 0.5469 0.0
Zn22 Zn 0.53934 0.45472 0.49032 0.0
Zn23 Zn 0.58808 0.49337 0.51995 0.0
C24 C 0.60129 0.50831 0.46455 0.0
C25 C 0.50337 0.54947 0.49295 0.0
O26 O 0.55703 0.49217 0.55624 0.0
O27 O 0.62916 0.49862 0.57886 0.0
C28 C 0.67953 0.42553 0.5167 0.0
O29 O 0.59388 0.53336 0.48454 0.0
O30 O 0.59024 0.46382 0.46429 0.0
O31 O 0.48499 0.50744 0.49068 0.0
O32 O 0.55069 0.55345 0.49899 0.0
O33 O 0.7027 0.45245 0.53309 0.0
O34 O 0.63453 0.43532 0.50921 0.0
O35 O 0.60288 0.56812 0.50906 0.0
O36 O 0.67257 0.57543 0.53404 0.0
C37 C 0.6404 0.59348 0.51817 0.0
O38 O 0.52448 0.45982 0.53672 0.0
O39 O 0.52857 0.39678 0.51153 0.0
C40 C 0.5822 0.49393 0.57779 0.0
C41 C 0.51151 0.41624 0.5308 0.0
C42 C 0.15785 0.87935 0.42976 0.0
C43 C 0.18801 0.84842 0.4163 0.0
C44 C 0.17914 0.84482 0.38974 0.0
C45 C 0.11041 0.90108 0.39059 0.0
C46 C 0.1195 0.90524 0.41658 0.0
C47 C 0.08378 0.93937 0.428 0.0
H48 H 0.88929 0.09362 0.41105 0.0
C49 C 0.06718 0.93184 0.38277 0.0
C50 C 0.05143 0.95445 0.40462 0.0
H51 H 0.97277 0.05752 0.48145 0.0
H52 H 0.02368 0.00242 0.45903 0.0
H53 H 0.98139 0.10083 0.37804 0.0
H54 H 0.87924 0.98552 0.38993 0.0
H55 H 0.89111 0.98259 0.35784 0.0
H56 H 0.86226 0.03578 0.37004 0.0
H57 H 0.91798 0.10058 0.36469 0.0
H58 H 0.96721 0.07286 0.34847 0.0
C59 C 0.11421 0.98218 0.44021 0.0
C60 C 0.05373 0.91082 0.44669 0.0
C61 C 0.00278 0.93961 0.28983 0.0
C62 C 0.96377 0.96554 0.27695 0.0
C63 C 0.93346 0.99528 0.29104 0.0
C64 C 0.94215 0.99966 0.31739 0.0
C65 C 0.9817 0.97414 0.32993 0.0
C66 C 0.01108 0.94452 0.31621 0.0
C67 C 0.05157 0.92045 0.33281 0.0
C68 C 0.04157 0.94055 0.35873 0.0
C69 C 1.00066 0.97197 0.35686 0.0
C70 C 0.10265 0.93733 0.32443 0.0
C71 C 0.04294 0.86527 0.33098 0.0
C72 C 0.91799 0.07335 0.42177 0.0
C73 C 0.92686 0.07998 0.44809 0.0
C74 C 0.96543 0.05351 0.46113 0.0
C75 C 0.99486 0.02141 0.44808 0.0
C76 C 0.98576 0.01569 0.42169 0.0
C77 C 0.94758 0.04126 0.40907 0.0
C78 C 0.94304 0.03097 0.38109 0.0
C79 C 0.98504 0.99522 0.37887 0.0
C80 C 0.0101 0.98641 0.40265 0.0
C81 C 0.95249 0.07862 0.36715 0.0
C82 C 0.89121 0.00781 0.37412 0.0
H83 H 0.13561 0.86619 0.35669 0.0
H84 H 0.16394 0.88338 0.45014 0.0
H85 H 0.04534 0.87374 0.43936 0.0
H86 H 0.01698 0.9269 0.44938 0.0
H87 H 0.07501 0.90754 0.46544 0.0
H88 H 0.1454 0.99195 0.42861 0.0
H89 H 0.13061 0.97298 0.45947 0.0
H90 H 0.09207 0.01546 0.44139 0.0
H91 H 0.02715 0.9169 0.27956 0.0
H92 H 0.90283 0.01519 0.28166 0.0
H93 H 0.91786 0.02307 0.32692 0.0
H94 H 0.10086 0.97551 0.31818 0.0
H95 H 0.1142 0.91513 0.30833 0.0
H96 H 0.13255 0.93677 0.33994 0.0
H97 H 0.0024 0.85667 0.32973 0.0
H98 H 0.05873 0.84592 0.34786 0.0
H99 H 0.0586 0.84983 0.31388 0.0
H100 H 0.20126 0.82082 0.37891 0.0
C101 C 0.14063 0.87091 0.37685 0.0
C102 C 0.12156 0.14791 0.57851 0.0
C103 C 0.15802 0.17546 0.59281 0.0
C104 C 0.16418 0.16936 0.61923 0.0
C105 C 0.1003 0.1078 0.61678 0.0
C106 C 0.09278 0.11461 0.59096 0.0
C107 C 0.05199 0.08226 0.57911 0.0
H108 H 0.88299 0.90427 0.59402 0.0
C109 C 0.06654 0.06923 0.6239 0.0
C110 C 0.03754 0.05426 0.60206 0.0
H111 H 0.91024 0.9788 0.52511 0.0
H112 H 0.97383 0.02741 0.54804 0.0
H113 H 0.99694 0.89182 0.61296 0.0
H114 H 0.88968 0.99941 0.63149 0.0
H115 H 0.92297 0.98104 0.6597 0.0
H116 H 0.88566 0.9377 0.64106 0.0
H117 H 0.94753 0.87883 0.63278 0.0
H118 H 0.00615 0.90396 0.6456 0.0
C119 C 0.07474 0.04912 0.55937 0.0
C120 C 0.00891 0.11452 0.56799 0.0
C121 C 0.08038 0.01194 0.71466 0.0
C122 C 0.0554 0.97672 0.72775 0.0
C123 C 0.01819 0.94862 0.71429 0.0
C124 C 0.00568 0.95616 0.68834 0.0
C125 C 0.03071 0.99211 0.67565 0.0
C126 C 0.06741 0.01909 0.68892 0.0
C127 C 0.09023 0.05579 0.67273 0.0
C128 C 0.06148 0.04639 0.6474 0.0
C129 C 0.02664 0.00916 0.6491 0.0
C130 C 0.1464 0.04357 0.67209 0.0
C131 C 0.07928 0.10664 0.6835 0.0
C132 C 0.90202 0.93163 0.58393 0.0
C133 C 0.89119 0.93798 0.55775 0.0
C134 C 0.91792 0.97311 0.54525 0.0
C135 C 0.95474 0.00138 0.55862 0.0
C136 C 0.96531 0.99428 0.58476 0.0
C137 C 0.93904 0.95983 0.59695 0.0
C138 C 0.95599 0.95617 0.62462 0.0
C139 C 0.9962 0.99462 0.62719 0.0
C140 C 1.00162 0.01694 0.60378 0.0
C141 C 0.97754 0.90504 0.62949 0.0
C142 C 0.91139 0.96889 0.64022 0.0
H143 H 0.14299 0.13261 0.65132 0.0
H144 H 0.11572 0.15212 0.55818 0.0
H145 H 0.00442 0.14677 0.58025 0.0
H146 H 0.97234 0.09624 0.56696 0.0
H147 H 0.01619 0.12743 0.54882 0.0
H148 H 0.11243 0.03658 0.56659 0.0
H149 H 0.0787 0.06852 0.54138 0.0
H150 H 0.05284 0.01597 0.55518 0.0
H151 H 0.10967 0.03371 0.72424 0.0
H152 H 0.998 0.92151 0.72395 0.0
H153 H 0.97676 0.93398 0.6792 0.0
H154 H 0.1522 0.00387 0.67166 0.0
H155 H 0.16832 0.05816 0.68911 0.0
H156 H 0.16282 0.05674 0.65498 0.0
H157 H 0.04456 0.10676 0.69364 0.0
H158 H 0.07239 0.13384 0.66849 0.0
H159 H 0.11014 0.11927 0.69713 0.0
H160 H 0.19238 0.18955 0.63063 0.0
C161 C 0.13565 0.13585 0.63123 0.0
C162 C 0.69509 0.48047 0.95835 0.0
C163 C 0.73199 0.45328 0.94727 0.0
C164 C 0.72585 0.44193 0.92124 0.0
C165 C 0.64654 0.48317 0.91767 0.0
C166 C 0.65296 0.49557 0.94309 0.0
C167 C 0.61091 0.52674 0.9511 0.0
H168 H 0.39449 0.6435 0.91726 0.0
C169 C 0.59864 0.50318 0.90716 0.0
C170 C 0.57753 0.52912 0.92656 0.0
H171 H 0.47978 0.64927 0.98992 0.0
H172 H 0.53854 0.59152 0.97485 0.0
H173 H 0.48362 0.6498 0.88459 0.0
H174 H 0.40243 0.52798 0.90951 0.0
H175 H 0.41667 0.51431 0.87846 0.0
H176 H 0.3781 0.5659 0.88424 0.0
H177 H 0.42188 0.63467 0.87163 0.0
H178 H 0.47639 0.60963 0.85878 0.0
C179 C 0.63275 0.5767 0.95923 0.0
C180 C 0.5851 0.50043 0.97213 0.0
C181 C 0.54031 0.47105 0.81485 0.0
C182 C 0.49788 0.48547 0.79956 0.0
C183 C 0.46053 0.51211 0.81064 0.0
C184 C 0.46587 0.52517 0.83632 0.0
C185 C 0.50919 0.51175 0.85116 0.0
C186 C 0.54516 0.48455 0.84046 0.0
C187 C 0.58878 0.47379 0.85908 0.0
C188 C 0.57315 0.49933 0.8827 0.0
C189 C 0.52672 0.52159 0.87786 0.0
C190 C 0.63618 0.49671 0.84925 0.0
C191 C 0.59142 0.41843 0.86246 0.0
C192 C 0.42516 0.6317 0.9302 0.0
C193 C 0.43238 0.651 0.95481 0.0
C194 C 0.47364 0.63534 0.97074 0.0
C195 C 0.50772 0.60188 0.96196 0.0
C196 C 0.50071 0.58427 0.93692 0.0
C197 C 0.45949 0.59884 0.92169 0.0
C198 C 0.45808 0.57776 0.89548 0.0
C199 C 0.50583 0.54883 0.89716 0.0
C200 C 0.53083 0.55253 0.92144 0.0
C201 C 0.45972 0.61984 0.87645 0.0
C202 C 0.41133 0.54498 0.89145 0.0
H203 H 0.68087 0.44618 0.88683 0.0
H204 H 0.69918 0.48999 0.97829 0.0
H205 H 0.58013 0.46152 0.9673 0.0
H206 H 0.54736 0.5143 0.97463 0.0
H207 H 0.60777 0.50315 0.99055 0.0
H208 H 0.66385 0.5867 0.94762 0.0
H209 H 0.64763 0.57678 0.9794 0.0
H210 H 0.60546 0.60616 0.95628 0.0
H211 H 0.57007 0.45115 0.80687 0.0
H212 H 0.42726 0.52319 0.79934 0.0
H213 H 0.43638 0.54594 0.8435 0.0
H214 H 0.62679 0.52922 0.83771 0.0
H215 H 0.65546 0.47094 0.83716 0.0
H216 H 0.66286 0.50994 0.86472 0.0
H217 H 0.55336 0.40278 0.86275 0.0
H218 H 0.6111 0.40759 0.88058 0.0
H219 H 0.60961 0.40094 0.84664 0.0
H220 H 0.75358 0.42061 0.91242 0.0
C221 C 0.68338 0.4565 0.90645 0.0
C222 C 0.59178 0.6692 0.07963 0.0
C223 C 0.63115 0.69747 0.09092 0.0
C224 C 0.63737 0.70171 0.11747 0.0
C225 C 0.56684 0.6492 0.12137 0.0
C226 C 0.56031 0.64496 0.09528 0.0
C227 C 0.51766 0.61156 0.08698 0.0
H228 H 0.34323 0.45243 0.12095 0.0
C229 C 0.52923 0.61905 0.13237 0.0
C230 C 0.50018 0.59655 0.11244 0.0
H231 H 0.37474 0.49129 0.04504 0.0
H232 H 0.43593 0.54999 0.06205 0.0
H233 H 0.45297 0.44778 0.1437 0.0
H234 H 0.34547 0.56258 0.14347 0.0
H235 H 0.37667 0.56113 0.17388 0.0
H236 H 0.34098 0.50939 0.16218 0.0
H237 H 0.40202 0.4472 0.16363 0.0
H238 H 0.46061 0.47589 0.17358 0.0
C239 C 0.53886 0.56856 0.07244 0.0
C240 C 0.47748 0.64081 0.07126 0.0
C241 C 0.52921 0.6106 0.228 0.0
C242 C 0.50251 0.58258 0.24433 0.0
C243 C 0.46511 0.55102 0.23365 0.0
C244 C 0.45494 0.54723 0.20732 0.0
C245 C 0.48276 0.5748 0.19133 0.0
C246 C 0.51916 0.60573 0.20179 0.0
C247 C 0.54678 0.63045 0.18202 0.0
C248 C 0.52036 0.60985 0.15792 0.0
C249 C 0.48285 0.57749 0.16344 0.0
C250 C 0.60232 0.6147 0.18549 0.0
C251 C 0.53806 0.68544 0.18458 0.0
C252 C 0.3633 0.47363 0.10797 0.0
C253 C 0.35479 0.46694 0.08168 0.0
C254 C 0.38084 0.49587 0.06539 0.0
C255 C 0.41652 0.52957 0.07531 0.0
C256 C 0.42597 0.53438 0.10177 0.0
C257 C 0.39869 0.50725 0.11754 0.0
C258 C 0.4128 0.51707 0.1451 0.0
C259 C 0.45362 0.5542 0.14343 0.0
C260 C 0.46165 0.56407 0.11803 0.0
C261 C 0.43288 0.46967 0.15737 0.0
C262 C 0.36673 0.53837 0.15701 0.0
H263 H 0.61225 0.68299 0.15275 0.0
H264 H 0.58625 0.66543 0.05923 0.0
H265 H 0.4745 0.67792 0.07915 0.0
H266 H 0.43977 0.62523 0.07163 0.0
H267 H 0.48678 0.64399 0.05126 0.0
H268 H 0.57472 0.55619 0.08212 0.0
H269 H 0.54611 0.57893 0.05284 0.0
H270 H 0.51426 0.5367 0.0715 0.0
H271 H 0.55786 0.63556 0.23536 0.0
H272 H 0.44449 0.52814 0.24558 0.0
H273 H 0.4264 0.52226 0.20046 0.0
H274 H 0.60657 0.57912 0.19492 0.0
H275 H 0.62511 0.64113 0.19728 0.0
H276 H 0.6191 0.60936 0.16725 0.0
H277 H 0.4991 0.693 0.1891 0.0
H278 H 0.54261 0.70513 0.16688 0.0
H279 H 0.56342 0.70138 0.20001 0.0
H280 H 0.66687 0.724 0.12651 0.0
C281 C 0.60542 0.67798 0.1327 0.0
C282 C 0.10984 0.19933 0.05195 0.0
C283 C 0.10083 0.1771 0.02816 0.0
C284 C 0.13035 0.24542 0.05401 0.0
C285 C 0.14357 0.26967 0.03231 0.0
C286 C 0.12958 0.24962 0.00832 0.0
C287 C 0.10829 0.2034 0.00623 0.0
C288 C 0.17663 0.31275 0.0348 0.0
C289 C 0.21471 0.31424 0.05297 0.0
C290 C 0.25171 0.35383 0.05764 0.0
C291 C 0.29192 0.34552 0.0756 0.0
C292 C 0.32598 0.3819 0.08261 0.0
C293 C 0.32089 0.42778 0.07186 0.0
H294 H 0.21682 0.40741 0.0323 0.0
C295 C 0.28197 0.43602 0.05311 0.0
C296 C 0.24736 0.39937 0.04611 0.0
H297 H 0.27724 0.47122 0.0446 0.0
H298 H 0.10369 0.17991 0.06909 0.0
H299 H 0.13867 0.26083 0.07274 0.0
H300 H 0.13859 0.26801 0.99131 0.0
H301 H 0.10152 0.18682 0.98767 0.0
H302 H 0.17205 0.34069 0.02064 0.0
H303 H 0.22014 0.28324 0.06528 0.0
H304 H 0.29657 0.31084 0.08471 0.0
H305 H 0.35606 0.37432 0.09684 0.0
C306 C 0.22593 0.94759 0.98333 0.0
C307 C 0.17371 0.9442 0.98019 0.0
C308 C 0.25566 0.90972 0.97586 0.0
C309 C 0.23372 0.86734 0.96533 0.0
C310 C 0.1817 0.86563 0.96017 0.0
C311 C 0.15183 0.90365 0.9677 0.0
C312 C 0.26397 0.82391 0.96053 0.0
C313 C 0.30599 0.81307 0.97498 0.0
C314 C 0.33667 0.76951 0.97116 0.0
C315 C 0.38741 0.77038 0.97978 0.0
C316 C 0.41819 0.73105 0.97551 0.0
C317 C 0.39868 0.68976 0.96273 0.0
H318 H 0.27729 0.72427 0.95366 0.0
C319 C 0.34729 0.68784 0.95542 0.0
C320 C 0.31659 0.72724 0.95956 0.0
H321 H 0.33087 0.65606 0.94608 0.0
H322 H 0.24381 0.97873 0.99262 0.0
H323 H 0.29574 0.91332 0.97901 0.0
H324 H 0.16394 0.83368 0.95168 0.0
H325 H 0.11168 0.89976 0.96533 0.0
H326 H 0.24991 0.79954 0.94547 0.0
H327 H 0.31935 0.83749 0.99018 0.0
H328 H 0.40369 0.80223 0.98912 0.0
H329 H 0.45763 0.73386 0.98125 0.0
C330 C 0.84585 0.95318 0.02311 0.0
C331 C 0.89808 0.94969 0.02604 0.0
C332 C 0.81603 0.91804 0.03304 0.0
C333 C 0.83791 0.87855 0.04606 0.0
C334 C 0.89004 0.87628 0.05008 0.0
C335 C 0.91991 0.91115 0.03983 0.0
C336 C 0.80725 0.83945 0.05571 0.0
C337 C 0.76375 0.82483 0.0436 0.0
C338 C 0.7313 0.78727 0.05355 0.0
C339 C 0.68011 0.78718 0.04577 0.0
C340 C 0.64749 0.75575 0.05676 0.0
C341 C 0.66571 0.72387 0.07566 0.0
H342 H 0.78922 0.74968 0.07665 0.0
C343 C 0.71727 0.72146 0.08208 0.0
C344 C 0.74983 0.75258 0.07105 0.0
H345 H 0.73224 0.69639 0.09627 0.0
H346 H 0.82797 0.98258 0.01261 0.0
H347 H 0.77592 0.92182 0.03041 0.0
H348 H 0.90772 0.8464 0.06026 0.0
H349 H 0.95998 0.90668 0.04174 0.0
H350 H 0.82173 0.82212 0.07301 0.0
H351 H 0.75014 0.84244 0.02618 0.0
H352 H 0.66497 0.81295 0.032 0.0
H353 H 0.60785 0.75822 0.0515 0.0
C354 C 0.97876 0.20613 0.00133 0.0
C355 C 0.98082 0.17927 0.97882 0.0
C356 C 0.96368 0.25449 0.00044 0.0
C357 C 0.95111 0.27654 0.97696 0.0
C358 C 0.95751 0.25058 0.95457 0.0
C359 C 0.97148 0.20224 0.95548 0.0
C360 C 0.92694 0.32454 0.97465 0.0
C361 C 0.8938 0.34037 0.9907 0.0
C362 C 0.85616 0.37818 0.98343 0.0
C363 C 0.80927 0.3759 0.99339 0.0
C364 C 0.76938 0.40356 0.98301 0.0
C365 C 0.77584 0.43393 0.96249 0.0
H366 H 0.89978 0.41727 0.95738 0.0
C367 C 0.82377 0.4398 0.9542 0.0
C368 C 0.86372 0.41263 0.96474 0.0
H369 H 0.82979 0.46374 0.93868 0.0
H370 H 0.9857 0.18899 0.01955 0.0
H371 H 0.9603 0.27394 0.01804 0.0
H372 H 0.94852 0.26678 0.93624 0.0
H373 H 0.973 0.18221 0.93788 0.0
H374 H 0.92961 0.34266 0.95673 0.0
H375 H 0.88823 0.31964 0.00755 0.0
H376 H 0.80247 0.35021 0.00801 0.0
H377 H 0.73275 0.39847 0.98974 0.0
C378 C 0.6891 0.65311 0.496 0.0
C379 C 0.6484 0.64311 0.51007 0.0
C380 C 0.70757 0.70009 0.49487 0.0
C381 C 0.68631 0.73781 0.50846 0.0
C382 C 0.64255 0.72817 0.52049 0.0
C383 C 0.62381 0.68116 0.52135 0.0
C384 C 0.71119 0.78566 0.51313 0.0
C385 C 0.75928 0.79457 0.509 0.0
C386 C 0.78811 0.837 0.51964 0.0
C387 C 0.8322 0.85007 0.50883 0.0
C388 C 0.86453 0.88457 0.52053 0.0
C389 C 0.85382 0.90633 0.54355 0.0
H390 H 0.74344 0.85073 0.55147 0.0
C391 C 0.80879 0.89467 0.55389 0.0
C392 C 0.77629 0.86043 0.54211 0.0
H393 H 0.79932 0.91111 0.57152 0.0
H394 H 0.70857 0.62404 0.48718 0.0
H395 H 0.73989 0.70568 0.48438 0.0
H396 H 0.62484 0.7564 0.53083 0.0
H397 H 0.59263 0.67401 0.53255 0.0
H398 H 0.69045 0.81296 0.52269 0.0
H399 H 0.78029 0.7685 0.49886 0.0
H400 H 0.84255 0.83232 0.4917 0.0
H401 H 0.89911 0.8924 0.51219 0.0
C402 C 0.75425 0.37227 0.51556 0.0
C403 C 0.70454 0.38233 0.50707 0.0
C404 C 0.77788 0.33092 0.50729 0.0
C405 C 0.75221 0.29829 0.49043 0.0
C406 C 0.70286 0.30884 0.48153 0.0
C407 C 0.67915 0.35031 0.48983 0.0
C408 C 0.77636 0.2542 0.4809 0.0
C409 C 0.81589 0.23256 0.49331 0.0
C410 C 0.84234 0.19075 0.48285 0.0
C411 C 0.89289 0.18371 0.49067 0.0
C412 C 0.92006 0.14682 0.48002 0.0
C413 C 0.89705 0.11584 0.46146 0.0
H414 H 0.77932 0.16109 0.45949 0.0
C415 C 0.84578 0.12129 0.45464 0.0
C416 C 0.81868 0.15825 0.46521 0.0
H417 H 0.8266 0.09716 0.44092 0.0
H418 H 0.77514 0.39641 0.52864 0.0
H419 H 0.8165 0.32539 0.51386 0.0
H420 H 0.68241 0.28469 0.46827 0.0
H421 H 0.64089 0.35709 0.48285 0.0
H422 H 0.76098 0.23961 0.46286 0.0
H423 H 0.83122 0.24704 0.51137 0.0
H424 H 0.9119 0.20785 0.50446 0.0
H425 H 0.9595 0.14379 0.48565 0.0
C426 C 0.46196 0.34212 0.53781 0.0
C427 C 0.47224 0.39086 0.54359 0.0
C428 C 0.42018 0.31961 0.54644 0.0
C429 C 0.38762 0.34536 0.56108 0.0
C430 C 0.39943 0.39319 0.56814 0.0
C431 C 0.4411 0.41591 0.55928 0.0
C432 C 0.3415 0.32297 0.56934 0.0
C433 C 0.31497 0.28982 0.5551 0.0
C434 C 0.27039 0.26422 0.5633 0.0
C435 C 0.2558 0.22059 0.55115 0.0
C436 C 0.21716 0.1929 0.55975 0.0
C437 C 0.19222 0.20844 0.58065 0.0
H438 H 0.2513 0.31562 0.59233 0.0
C439 C 0.20448 0.25359 0.59172 0.0
C440 C 0.24299 0.2813 0.58312 0.0
H441 H 0.18509 0.26692 0.60755 0.0
H442 H 0.48547 0.32158 0.52597 0.0
H443 H 0.4134 0.28209 0.5415 0.0
H444 H 0.3753 0.4136 0.57971 0.0
H445 H 0.44751 0.4536 0.56374 0.0
H446 H 0.32932 0.33483 0.58742 0.0
H447 H 0.32758 0.27932 0.53684 0.0
H448 H 0.27571 0.20683 0.5356 0.0
H449 H 0.20866 0.15819 0.55089 0.0
C450 C 0.42026 0.58657 0.48148 0.0
C451 C 0.47218 0.59186 0.48581 0.0
C452 C 0.39035 0.6257 0.47391 0.0
C453 C 0.41161 0.67133 0.47058 0.0
C454 C 0.46357 0.67666 0.47484 0.0
C455 C 0.49358 0.63741 0.48258 0.0
C456 C 0.38074 0.71286 0.46111 0.0
C457 C 0.33202 0.71722 0.46511 0.0
C458 C 0.29836 0.75496 0.45359 0.0
C459 C 0.25262 0.76334 0.46395 0.0
C460 C 0.21753 0.79479 0.45232 0.0
C461 C 0.22716 0.81839 0.42985 0.0
H462 H 0.34283 0.77347 0.42246 0.0
C463 C 0.27341 0.81095 0.41976 0.0
C464 C 0.30861 0.77955 0.43144 0.0
H465 H 0.28216 0.82889 0.40258 0.0
H466 H 0.40258 0.55192 0.48367 0.0
H467 H 0.35076 0.61955 0.47 0.0
H468 H 0.48102 0.71124 0.47211 0.0
H469 H 0.53352 0.64258 0.48559 0.0
H470 H 0.399 0.74056 0.45083 0.0
H471 H 0.31552 0.69176 0.4775 0.0
H472 H 0.24347 0.74464 0.48086 0.0
H473 H 0.18207 0.79919 0.46044 0.0
C474 C 0.96911 0.97914 0.08692 0.0
C475 C 0.01494 0.96112 0.08005 0.0
C476 C 0.95123 0.96629 0.11009 0.0
C477 C 0.97908 0.93522 0.12665 0.0
C478 C 0.02259 0.91416 0.11862 0.0
C479 C 0.04066 0.92739 0.09571 0.0
C480 C 0.96696 0.92709 0.15318 0.0
C481 C 0.94611 0.96138 0.16713 0.0
C482 C 0.94634 0.96 0.19528 0.0
C483 C 0.9414 0.0037 0.20845 0.0
C484 C 0.94617 0.00531 0.23489 0.0
C485 C 0.9558 0.96312 0.24888 0.0
H486 H 0.95621 0.88263 0.20005 0.0
C487 C 0.95888 0.91903 0.23581 0.0
C488 C 0.95388 0.91736 0.20931 0.0
H489 H 0.96518 0.88575 0.2461 0.0
H490 H 0.94861 0.00519 0.07511 0.0
H491 H 0.91664 0.98198 0.11533 0.0
H492 H 0.04446 0.8897 0.13083 0.0
H493 H 0.07596 0.91278 0.09072 0.0
H494 H 0.98282 0.89522 0.16234 0.0
H495 H 0.93402 0.99479 0.15808 0.0
H496 H 0.93541 0.03711 0.19824 0.0
H497 H 0.9439 0.03993 0.24436 0.0
C498 C 0.0981 0.97075 0.91779 0.0
C499 C 0.05306 0.95426 0.92629 0.0
C500 C 0.11147 0.95749 0.89363 0.0
C501 C 0.08002 0.92731 0.87787 0.0
C502 C 0.0382 0.90659 0.88772 0.0
C503 C 0.02448 0.92041 0.91158 0.0
C504 C 0.08549 0.92166 0.85029 0.0
C505 C 0.09959 0.95884 0.8363 0.0
C506 C 0.09059 0.96112 0.80823 0.0
C507 C 0.08801 0.00678 0.79706 0.0
C508 C 0.07632 0.01162 0.77109 0.0
C509 C 0.06743 0.97081 0.75545 0.0
H510 H 0.08524 0.8841 0.80029 0.0
C511 C 0.0708 0.9249 0.76646 0.0
C512 C 0.08244 0.92002 0.79259 0.0
H513 H 0.06504 0.89273 0.75485 0.0
H514 H 0.12078 0.9968 0.92887 0.0
H515 H 0.14488 0.97287 0.88684 0.0
H516 H 0.01371 0.8828 0.87612 0.0
H517 H 0.98973 0.90696 0.91788 0.0
H518 H 0.06896 0.88982 0.84098 0.0
H519 H 0.11208 0.99195 0.84596 0.0
H520 H 0.09389 0.0391 0.80857 0.0
H521 H 0.07339 0.04758 0.76335 0.0
C522 C 0.58519 0.46997 0.62295 0.0
C523 C 0.55778 0.48849 0.60159 0.0
C524 C 0.564 0.46668 0.64602 0.0
C525 C 0.51463 0.48176 0.64833 0.0
C526 C 0.48707 0.50018 0.62693 0.0
C527 C 0.50837 0.50328 0.60368 0.0
C528 C 0.49336 0.48311 0.67339 0.0
C529 C 0.50908 0.45339 0.69235 0.0
C530 C 0.49829 0.46029 0.71926 0.0
C531 C 0.51129 0.4233 0.73645 0.0
C532 C 0.5093 0.43071 0.76248 0.0
C533 C 0.49427 0.4754 0.77192 0.0
H534 H 0.472 0.53442 0.71633 0.0
C535 C 0.47915 0.51177 0.75471 0.0
C536 C 0.48128 0.50444 0.72868 0.0
H537 H 0.46807 0.54686 0.76142 0.0
H538 H 0.62349 0.45851 0.62194 0.0
H539 H 0.58725 0.45401 0.6622 0.0
H540 H 0.4493 0.51288 0.6283 0.0
H541 H 0.48686 0.51873 0.58762 0.0
H542 H 0.46542 0.51033 0.67631 0.0
H543 H 0.53329 0.42345 0.68828 0.0
H544 H 0.52468 0.38899 0.72979 0.0
H545 H 0.52061 0.4018 0.77526 0.0
C546 C 0.61786 0.50227 0.41914 0.0
C547 C 0.61098 0.53146 0.44042 0.0
C548 C 0.61471 0.52189 0.395 0.0
C549 C 0.60535 0.57116 0.39167 0.0
C550 C 0.60329 0.60138 0.41296 0.0
C551 C 0.60587 0.58158 0.43729 0.0
C552 C 0.59243 0.58925 0.36589 0.0
C553 C 0.55301 0.57018 0.35207 0.0
C554 C 0.54028 0.5803 0.32497 0.0
C555 C 0.49053 0.57551 0.31519 0.0
C556 C 0.47796 0.57816 0.28916 0.0
C557 C 0.51514 0.58447 0.27222 0.0
H558 H 0.61624 0.59119 0.31517 0.0
C559 C 0.56494 0.59041 0.28217 0.0
C560 C 0.57735 0.58864 0.30827 0.0
H561 H 0.59482 0.59436 0.26979 0.0
H562 H 0.62259 0.46365 0.42093 0.0
H563 H 0.61715 0.49815 0.37877 0.0
H564 H 0.59632 0.63959 0.41067 0.0
H565 H 0.60064 0.60499 0.45336 0.0
H566 H 0.61481 0.61763 0.35847 0.0
H567 H 0.52915 0.5448 0.36101 0.0
H568 H 0.46135 0.56883 0.32773 0.0
H569 H 0.43914 0.57448 0.28232 0.0
loop_
_geom_bond_atom_site_label_1
_geom_bond_atom_site_label_2
_geom_bond_distance
_geom_bond_site_symmetry_2
_ccdc_geom_bond_type
Zn0 O6 1.920 1_545 S
Zn0 O12 1.898 . S
Zn0 O15 1.905 1_545 S
Zn1 O9 1.905 . S
Zn1 O10 1.898 1_545 S
Zn1 O18 1.920 1_545 S
Zn2 O5 2.080 1_445 S
Zn2 O8 2.114 . S
Zn2 O11 2.120 1_545 S
Zn2 O13 2.120 1_455 S
Zn2 O14 2.114 1_554 S
Zn2 O17 2.080 . S
C3 O8 1.166 . S
C3 O9 1.182 . S
C4 O10 1.167 . S
C4 O11 1.299 . S
O5 Zn2 2.080 1_665 S
O5 C19 1.305 . S
O6 Zn0 1.920 1_565 S
O6 C19 1.234 1_556 S
C7 O12 1.167 . S
C7 O13 1.299 1_556 S
O8 Zn2 2.114 . S
O8 C3 1.166 . S
O9 Zn1 1.905 . S
O9 C3 1.182 . S
O10 Zn1 1.898 1_565 S
O10 C4 1.167 . S
O11 Zn2 2.120 1_565 S
O11 C4 1.299 . S
O12 Zn0 1.898 . S
O12 C7 1.167 . S
O13 Zn2 2.120 1_655 S
O13 C7 1.299 1_554 S
O14 Zn2 2.114 1_556 S
O14 C16 1.166 1_545 S
O15 Zn0 1.905 1_565 S
O15 C16 1.182 1_655 S
C16 O14 1.166 1_565 S
C16 O15 1.182 1_455 S
O17 Zn2 2.080 . S
O17 C20 1.305 1_545 S
O18 Zn1 1.920 1_565 S
O18 C20 1.234 . S
C19 O5 1.305 . S
C19 O6 1.234 1_554 S
C20 O17 1.305 1_565 S
C20 O18 1.234 . S
Zn21 O27 1.920 . S
Zn21 O33 1.898 . S
Zn21 O36 1.905 . S
Zn22 O30 1.905 . S
Zn22 O31 1.898 . S
Zn22 O39 1.920 . S
Zn23 O26 2.080 . S
Zn23 O29 2.114 . S
Zn23 O32 2.120 . S
Zn23 O34 2.120 . S
Zn23 O35 2.114 . S
Zn23 O38 2.080 . S
C24 O29 1.166 . S
C24 O30 1.182 . S
C25 O31 1.167 . S
C25 O32 1.299 . S
O26 Zn23 2.080 . S
O26 C40 1.305 . S
O27 Zn21 1.920 . S
O27 C40 1.234 . S
C28 O33 1.167 . S
C28 O34 1.299 . S
O29 Zn23 2.114 . S
O29 C24 1.166 . S
O30 Zn22 1.905 . S
O30 C24 1.182 . S
O31 Zn22 1.898 . S
O31 C25 1.167 . S
O32 Zn23 2.120 . S
O32 C25 1.299 . S
O33 Zn21 1.898 . S
O33 C28 1.167 . S
O34 Zn23 2.120 . S
O34 C28 1.299 . S
O35 Zn23 2.114 . S
O35 C37 1.166 . S
O36 Zn21 1.905 . S
O36 C37 1.182 . S
C37 O35 1.166 . S
C37 O36 1.182 . S
O38 Zn23 2.080 . S
O38 C41 1.305 . S
O39 Zn22 1.920 . S
O39 C41 1.234 . S
C40 O26 1.305 . S
C40 O27 1.234 . S
C41 O38 1.305 . S
C41 O39 1.234 . S
C42 C43 1.391 . S
C42 C46 1.391 . S
C42 H84 0.948 . S
C43 C42 1.391 . S
C43 C44 1.391 . S
C44 C43 1.391 . S
C44 H100 0.947 . S
C44 C101 1.392 . S
C45 C46 1.391 . S
C45 C49 1.397 . S
C45 C101 1.419 . S
C46 C42 1.391 . S
C46 C45 1.391 . S
C46 C47 1.399 . S
C47 C46 1.399 . S
C47 C50 1.396 1_565 S
C47 C59 1.453 1_565 S
C47 C60 1.684 . S
H48 C72 0.948 . S
C49 C45 1.397 . S
C49 C50 1.394 1_565 S
C49 C68 1.723 1_565 S
C50 C47 1.396 1_545 S
C50 C49 1.394 1_545 S
C50 C80 1.723 . S
H51 C74 0.947 . S
H52 C75 0.948 . S
H53 C81 0.982 . S
H54 C82 0.979 . S
H55 C82 0.980 . S
H56 C82 0.983 . S
H57 C81 0.979 1_655 S
H58 C81 0.977 . S
C59 C47 1.453 1_545 S
C59 H88 0.982 . S
C59 H89 0.979 . S
C59 H90 0.977 . S
C60 C47 1.684 . S
C60 H85 0.979 . S
C60 H86 0.980 1_565 S
C60 H87 0.983 . S
C61 C62 1.391 . S
C61 C66 1.391 . S
C61 H91 0.948 1_545 S
C62 C61 1.391 . S
C62 C63 1.391 . S
C63 C62 1.391 . S
C63 C64 1.392 . S
C63 H92 0.947 . S
C64 C63 1.392 . S
C64 C65 1.419 . S
C64 H93 0.932 1_455 S
C65 C64 1.419 . S
C65 C66 1.391 . S
C65 C69 1.397 . S
C66 C61 1.391 . S
C66 C65 1.391 . S
C66 C67 1.399 1_545 S
C67 C66 1.399 1_565 S
C67 C68 1.396 1_565 S
C67 C70 1.453 . S
C67 C71 1.684 . S
C68 C49 1.723 1_545 S
C68 C67 1.396 1_545 S
C68 C69 1.394 . S
C69 C65 1.397 . S
C69 C68 1.394 . S
C69 C79 1.723 . S
C70 C67 1.453 . S
C70 H94 0.982 1_565 S
C70 H95 0.979 . S
C70 H96 0.977 . S
C71 C67 1.684 . S
C71 H97 0.979 . S
C71 H98 0.980 . S
C71 H99 0.983 . S
C72 H48 0.948 . S
C72 C73 1.391 . S
C72 C77 1.391 . S
C73 C72 1.391 . S
C73 C74 1.391 . S
C74 H51 0.947 . S
C74 C73 1.391 . S
C74 C75 1.392 1_655 S
C75 H52 0.948 . S
C75 C74 1.392 1_455 S
C75 C76 1.419 . S
C76 C75 1.419 . S
C76 C77 1.391 1_455 S
C76 C80 1.397 . S
C77 C72 1.391 . S
C77 C76 1.391 1_655 S
C77 C78 1.399 . S
C78 C77 1.399 . S
C78 C79 1.396 1_655 S
C78 C81 1.453 1_655 S
C78 C82 1.684 . S
C79 C69 1.723 . S
C79 C78 1.396 1_455 S
C79 C80 1.394 . S
C80 C50 1.723 . S
C80 C76 1.397 . S
C80 C79 1.394 . S
C81 H53 0.982 . S
C81 H57 0.979 1_455 S
C81 H58 0.977 . S
C81 C78 1.453 1_455 S
C82 H54 0.979 . S
C82 H55 0.980 . S
C82 H56 0.983 . S
C82 C78 1.684 . S
H83 C101 0.948 . S
H84 C42 0.948 . S
H85 C60 0.979 . S
H86 C60 0.980 1_545 S
H87 C60 0.983 . S
H88 C59 0.982 . S
H89 C59 0.979 . S
H90 C59 0.977 . S
H91 C61 0.948 1_565 S
H92 C63 0.947 . S
H93 C64 0.932 1_655 S
H94 C70 0.982 1_545 S
H95 C70 0.979 . S
H96 C70 0.977 . S
H97 C71 0.979 . S
H98 C71 0.980 . S
H99 C71 0.983 . S
H100 C44 0.947 . S
C101 C44 1.392 . S
C101 C45 1.419 . S
C101 H83 0.948 . S
C102 C103 1.391 . S
C102 C106 1.391 . S
C102 H144 0.948 . S
C103 C102 1.391 . S
C103 C104 1.391 . S
C104 C103 1.391 . S
C104 H160 0.947 . S
C104 C161 1.392 . S
C105 C106 1.391 . S
C105 C109 1.397 . S
C105 C161 1.419 . S
C106 C102 1.391 . S
C106 C105 1.391 . S
C106 C107 1.399 . S
C107 C106 1.399 . S
C107 C110 1.396 . S
C107 C119 1.453 . S
C107 C120 1.684 1_455 S
H108 C132 0.948 . S
C109 C105 1.397 . S
C109 C110 1.394 . S
C109 C128 1.723 . S
C110 C107 1.396 . S
C110 C109 1.394 . S
C110 C140 1.723 1_445 S
H111 C134 0.947 . S
H112 C135 0.948 . S
H113 C141 0.982 . S
H114 C142 0.979 . S
H115 C142 0.980 . S
H116 C142 0.983 . S
H117 C141 0.979 . S
H118 C141 0.977 . S
C119 C107 1.453 . S
C119 H148 0.982 . S
C119 H149 0.979 . S
C119 H150 0.977 1_545 S
C120 C107 1.684 1_655 S
C120 H145 0.979 . S
C120 H146 0.980 . S
C120 H147 0.983 1_655 S
C121 C122 1.391 1_455 S
C121 C126 1.391 . S
C121 H151 0.948 . S
C122 C121 1.391 1_655 S
C122 C123 1.391 1_545 S
C123 C122 1.391 1_565 S
C123 C124 1.392 . S
C123 H152 0.947 . S
C124 C123 1.392 . S
C124 C125 1.419 1_565 S
C124 H153 0.948 . S
C125 C124 1.419 1_545 S
C125 C126 1.391 1_655 S
C125 C129 1.397 . S
C126 C121 1.391 . S
C126 C125 1.391 1_455 S
C126 C127 1.399 . S
C127 C126 1.399 . S
C127 C128 1.396 . S
C127 C130 1.453 . S
C127 C131 1.684 . S
C128 C109 1.723 . S
C128 C127 1.396 . S
C128 C129 1.394 1_455 S
C129 C125 1.397 . S
C129 C128 1.394 1_655 S
C129 C139 1.723 1_545 S
C130 C127 1.453 . S
C130 H154 0.982 . S
C130 H155 0.979 . S
C130 H156 0.977 . S
C131 C127 1.684 . S
C131 H157 0.979 . S
C131 H158 0.980 . S
C131 H159 0.983 . S
C132 H108 0.948 . S
C132 C133 1.391 . S
C132 C137 1.391 . S
C133 C132 1.391 . S
C133 C134 1.391 . S
C134 H111 0.947 . S
C134 C133 1.391 . S
C134 C135 1.392 . S
C135 H112 0.948 . S
C135 C134 1.392 . S
C135 C136 1.419 . S
C136 C135 1.419 . S
C136 C137 1.391 . S
C136 C140 1.397 . S
C137 C132 1.391 . S
C137 C136 1.391 . S
C137 C138 1.399 . S
C138 C137 1.399 . S
C138 C139 1.396 . S
C138 C141 1.453 . S
C138 C142 1.684 . S
C139 C129 1.723 1_565 S
C139 C138 1.396 . S
C139 C140 1.394 . S
C140 C110 1.723 1_665 S
C140 C136 1.397 . S
C140 C139 1.394 . S
C141 H113 0.982 . S
C141 H117 0.979 . S
C141 H118 0.977 . S
C141 C138 1.453 . S
C142 H114 0.979 . S
C142 H115 0.980 . S
C142 H116 0.983 . S
C142 C138 1.684 . S
H143 C161 0.948 . S
H144 C102 0.948 . S
H145 C120 0.979 . S
H146 C120 0.980 . S
H147 C120 0.983 1_455 S
H148 C119 0.982 . S
H149 C119 0.979 . S
H150 C119 0.977 1_565 S
H151 C121 0.948 . S
H152 C123 0.947 . S
H153 C124 0.948 . S
H154 C130 0.982 . S
H155 C130 0.979 . S
H156 C130 0.977 . S
H157 C131 0.979 . S
H158 C131 0.980 . S
H159 C131 0.983 . S
H160 C104 0.947 . S
C161 C104 1.392 . S
C161 C105 1.419 . S
C161 H143 0.948 . S
C162 C163 1.391 . S
C162 C166 1.391 . S
C162 H204 0.948 . S
C163 C162 1.391 . S
C163 C164 1.391 . S
C164 C163 1.391 . S
C164 H220 0.947 . S
C164 C221 1.392 . S
C165 C166 1.391 . S
C165 C169 1.397 . S
C165 C221 1.419 . S
C166 C162 1.391 . S
C166 C165 1.391 . S
C166 C167 1.399 . S
C167 C166 1.399 . S
C167 C170 1.396 . S
C167 C179 1.453 . S
C167 C180 1.684 . S
H168 C192 0.948 . S
C169 C165 1.397 . S
C169 C170 1.394 . S
C169 C188 1.723 . S
C170 C167 1.396 . S
C170 C169 1.394 . S
C170 C200 1.723 . S
H171 C194 0.947 . S
H172 C195 0.948 . S
H173 C201 0.982 . S
H174 C202 0.979 . S
H175 C202 0.980 . S
H176 C202 0.983 . S
H177 C201 0.979 . S
H178 C201 0.977 . S
C179 C167 1.453 . S
C179 H208 0.982 . S
C179 H209 0.979 . S
C179 H210 0.977 . S
C180 C167 1.684 . S
C180 H205 0.979 . S
C180 H206 0.980 . S
C180 H207 0.983 . S
C181 C182 1.391 . S
C181 C186 1.391 . S
C181 H211 0.948 . S
C182 C181 1.391 . S
C182 C183 1.391 . S
C183 C182 1.391 . S
C183 C184 1.392 . S
C183 H212 0.947 . S
C184 C183 1.392 . S
C184 C185 1.419 . S
C184 H213 0.948 . S
C185 C184 1.419 . S
C185 C186 1.391 . S
C185 C189 1.397 . S
C186 C181 1.391 . S
C186 C185 1.391 . S
C186 C187 1.399 . S
C187 C186 1.399 . S
C187 C188 1.396 . S
C187 C190 1.453 . S
C187 C191 1.684 . S
C188 C169 1.723 . S
C188 C187 1.396 . S
C188 C189 1.394 . S
C189 C185 1.397 . S
C189 C188 1.394 . S
C189 C199 1.723 . S
C190 C187 1.453 . S
C190 H214 0.982 . S
C190 H215 0.979 . S
C190 H216 0.977 . S
C191 C187 1.684 . S
C191 H217 0.979 . S
C191 H218 0.980 . S
C191 H219 0.983 . S
C192 H168 0.948 . S
C192 C193 1.391 . S
C192 C197 1.391 . S
C193 C192 1.391 . S
C193 C194 1.391 . S
C194 H171 0.947 . S
C194 C193 1.391 . S
C194 C195 1.392 . S
C195 H172 0.948 . S
C195 C194 1.392 . S
C195 C196 1.419 . S
C196 C195 1.419 . S
C196 C197 1.391 . S
C196 C200 1.397 . S
C197 C192 1.391 . S
C197 C196 1.391 . S
C197 C198 1.399 . S
C198 C197 1.399 . S
C198 C199 1.396 . S
C198 C201 1.453 . S
C198 C202 1.684 . S
C199 C189 1.723 . S
C199 C198 1.396 . S
C199 C200 1.394 . S
C200 C170 1.723 . S
C200 C196 1.397 . S
C200 C199 1.394 . S
C201 H173 0.982 . S
C201 H177 0.979 . S
C201 H178 0.977 . S
C201 C198 1.453 . S
C202 H174 0.979 . S
C202 H175 0.980 . S
C202 H176 0.983 . S
C202 C198 1.684 . S
H203 C221 0.948 . S
H204 C162 0.948 . S
H205 C180 0.979 . S
H206 C180 0.980 . S
H207 C180 0.983 . S
H208 C179 0.982 . S
H209 C179 0.979 . S
H210 C179 0.977 . S
H211 C181 0.948 . S
H212 C183 0.947 . S
H213 C184 0.948 . S
H214 C190 0.982 . S
H215 C190 0.979 . S
H216 C190 0.977 . S
H217 C191 0.979 . S
H218 C191 0.980 . S
H219 C191 0.983 . S
H220 C164 0.947 . S
C221 C164 1.392 . S
C221 C165 1.419 . S
C221 H203 0.948 . S
C222 C223 1.391 . S
C222 C226 1.391 . S
C222 H264 0.948 . S
C223 C222 1.391 . S
C223 C224 1.391 . S
C224 C223 1.391 . S
C224 H280 0.947 . S
C224 C281 1.392 . S
C225 C226 1.391 . S
C225 C229 1.397 . S
C225 C281 1.419 . S
C226 C222 1.391 . S
C226 C225 1.391 . S
C226 C227 1.399 . S
C227 C226 1.399 . S
C227 C230 1.396 . S
C227 C239 1.453 . S
C227 C240 1.684 . S
H228 C252 0.948 . S
C229 C225 1.397 . S
C229 C230 1.394 . S
C229 C248 1.723 . S
C230 C227 1.396 . S
C230 C229 1.394 . S
C230 C260 1.723 . S
H231 C254 0.947 . S
H232 C255 0.948 . S
H233 C261 0.982 . S
H234 C262 0.979 . S
H235 C262 0.980 . S
H236 C262 0.983 . S
H237 C261 0.979 . S
H238 C261 0.977 . S
C239 C227 1.453 . S
C239 H268 0.982 . S
C239 H269 0.979 . S
C239 H270 0.977 . S
C240 C227 1.684 . S
C240 H265 0.979 . S
C240 H266 0.980 . S
C240 H267 0.983 . S
C241 C242 1.391 . S
C241 C246 1.391 . S
C241 H271 0.948 . S
C242 C241 1.391 . S
C242 C243 1.391 . S
C243 C242 1.391 . S
C243 C244 1.392 . S
C243 H272 0.947 . S
C244 C243 1.392 . S
C244 C245 1.419 . S
C244 H273 0.948 . S
C245 C244 1.419 . S
C245 C246 1.391 . S
C245 C249 1.397 . S
C246 C241 1.391 . S
C246 C245 1.391 . S
C246 C247 1.399 . S
C247 C246 1.399 . S
C247 C248 1.396 . S
C247 C250 1.453 . S
C247 C251 1.684 . S
C248 C229 1.723 . S
C248 C247 1.396 . S
C248 C249 1.394 . S
C249 C245 1.397 . S
C249 C248 1.394 . S
C249 C259 1.723 . S
C250 C247 1.453 . S
C250 H274 0.982 . S
C250 H275 0.979 . S
C250 H276 0.977 . S
C251 C247 1.684 . S
C251 H277 0.979 . S
C251 H278 0.980 . S
C251 H279 0.983 . S
C252 H228 0.948 . S
C252 C253 1.391 . S
C252 C257 1.391 . S
C253 C252 1.391 . S
C253 C254 1.391 . S
C254 H231 0.947 . S
C254 C253 1.391 . S
C254 C255 1.392 . S
C255 H232 0.948 . S
C255 C254 1.392 . S
C255 C256 1.419 . S
C256 C255 1.419 . S
C256 C257 1.391 . S
C256 C260 1.397 . S
C257 C252 1.391 . S
C257 C256 1.391 . S
C257 C258 1.399 . S
C258 C257 1.399 . S
C258 C259 1.396 . S
C258 C261 1.453 . S
C258 C262 1.684 . S
C259 C249 1.723 . S
C259 C258 1.396 . S
C259 C260 1.394 . S
C260 C230 1.723 . S
C260 C256 1.397 . S
C260 C259 1.394 . S
C261 H233 0.982 . S
C261 H237 0.979 . S
C261 H238 0.977 . S
C261 C258 1.453 . S
C262 H234 0.979 . S
C262 H235 0.980 . S
C262 H236 0.983 . S
C262 C258 1.684 . S
H263 C281 0.948 . S
H264 C222 0.948 . S
H265 C240 0.979 . S
H266 C240 0.980 . S
H267 C240 0.983 . S
H268 C239 0.982 . S
H269 C239 0.979 . S
H270 C239 0.977 . S
H271 C241 0.948 . S
H272 C243 0.947 . S
H273 C244 0.948 . S
H274 C250 0.982 . S
H275 C250 0.979 . S
H276 C250 0.977 . S
H277 C251 0.979 . S
H278 C251 0.980 . S
H279 C251 0.983 . S
H280 C224 0.947 . S
C281 C224 1.392 . S
C281 C225 1.419 . S
C281 H263 0.948 . S
C282 C283 1.386 . S
C282 C284 1.383 . S
C282 H298 0.951 . S
C283 C282 1.386 . S
C283 C287 1.383 1_554 S
C284 C282 1.383 . S
C284 C285 1.402 . S
C284 H299 0.951 . S
C285 C284 1.402 . S
C285 C286 1.375 . S
C285 C288 1.481 . S
C286 C285 1.375 . S
C286 C287 1.367 1_554 S
C286 H300 0.951 1_554 S
C287 C283 1.383 1_556 S
C287 C286 1.367 1_556 S
C287 H301 0.950 . S
C288 C285 1.481 . S
C288 C289 1.297 . S
C288 H302 0.950 . S
C289 C288 1.297 . S
C289 C290 1.479 . S
C289 H303 0.950 . S
C290 C289 1.479 . S
C290 C291 1.375 . S
C290 C296 1.404 . S
C291 C290 1.375 . S
C291 C292 1.369 . S
C291 H304 0.950 . S
C292 C291 1.369 . S
C292 C293 1.392 . S
C292 H305 0.951 . S
C293 C292 1.392 . S
C293 C295 1.384 . S
H294 C296 0.949 . S
C295 C293 1.384 . S
C295 C296 1.385 . S
C295 H297 0.950 . S
C296 C290 1.404 . S
C296 H294 0.949 . S
C296 C295 1.385 . S
H297 C295 0.950 . S
H298 C282 0.951 . S
H299 C284 0.951 . S
H300 C286 0.951 1_556 S
H301 C287 0.950 . S
H302 C288 0.950 . S
H303 C289 0.950 . S
H304 C291 0.950 . S
H305 C292 0.951 . S
C306 C307 1.386 1_554 S
C306 C308 1.383 . S
C306 H322 0.951 . S
C307 C306 1.386 1_556 S
C307 C311 1.383 . S
C308 C306 1.383 . S
C308 C309 1.402 1_554 S
C308 H323 0.951 . S
C309 C308 1.402 1_556 S
C309 C310 1.375 . S
C309 C312 1.481 . S
C310 C309 1.375 . S
C310 C311 1.367 . S
C310 H324 0.951 . S
C311 C307 1.383 . S
C311 C310 1.367 . S
C311 H325 0.950 . S
C312 C309 1.481 . S
C312 C313 1.297 . S
C312 H326 0.950 . S
C313 C312 1.297 . S
C313 C314 1.479 . S
C313 H327 0.950 1_556 S
C314 C313 1.479 . S
C314 C315 1.375 . S
C314 C320 1.404 . S
C315 C314 1.375 . S
C315 C316 1.369 . S
C315 H328 0.950 1_556 S
C316 C315 1.369 . S
C316 C317 1.392 . S
C316 H329 0.951 . S
C317 C316 1.392 . S
C317 C319 1.384 . S
H318 C320 0.949 . S
C319 C317 1.384 . S
C319 C320 1.385 . S
C319 H321 0.950 . S
C320 C314 1.404 . S
C320 H318 0.949 . S
C320 C319 1.385 . S
H321 C319 0.950 . S
H322 C306 0.951 . S
H323 C308 0.951 . S
H324 C310 0.951 . S
H325 C311 0.950 . S
H326 C312 0.950 . S
H327 C313 0.950 1_554 S
H328 C315 0.950 1_554 S
H329 C316 0.951 . S
C330 C331 1.386 . S
C330 C332 1.383 . S
C330 H346 0.951 . S
C331 C330 1.386 . S
C331 C335 1.383 . S
C332 C330 1.383 . S
C332 C333 1.402 . S
C332 H347 0.951 . S
C333 C332 1.402 . S
C333 C334 1.375 . S
C333 C336 1.481 . S
C334 C333 1.375 . S
C334 C335 1.367 . S
C334 H348 0.951 . S
C335 C331 1.383 . S
C335 C334 1.367 . S
C335 H349 0.950 . S
C336 C333 1.481 . S
C336 C337 1.297 . S
C336 H350 0.950 . S
C337 C336 1.297 . S
C337 C338 1.479 . S
C337 H351 0.950 . S
C338 C337 1.479 . S
C338 C339 1.375 . S
C338 C344 1.404 . S
C339 C338 1.375 . S
C339 C340 1.369 . S
C339 H352 0.950 . S
C340 C339 1.369 . S
C340 C341 1.392 . S
C340 H353 0.951 . S
C341 C340 1.392 . S
C341 C343 1.384 . S
H342 C344 0.949 . S
C343 C341 1.384 . S
C343 C344 1.385 . S
C343 H345 0.950 . S
C344 C338 1.404 . S
C344 H342 0.949 . S
C344 C343 1.385 . S
H345 C343 0.950 . S
H346 C330 0.951 . S
H347 C332 0.951 . S
H348 C334 0.951 . S
H349 C335 0.950 . S
H350 C336 0.950 . S
H351 C337 0.950 . S
H352 C339 0.950 . S
H353 C340 0.951 . S
C354 C355 1.396 . S
C354 C356 1.383 . S
C354 H370 0.951 . S
C355 C354 1.396 . S
C355 C359 1.369 1_554 S
C356 C354 1.383 . S
C356 C357 1.402 1_554 S
C356 H371 0.951 . S
C357 C356 1.402 1_556 S
C357 C358 1.375 . S
C357 C360 1.481 . S
C358 C357 1.375 . S
C358 C359 1.367 . S
C358 H372 0.951 . S
C359 C355 1.369 1_556 S
C359 C358 1.367 . S
C359 H373 0.950 . S
C360 C357 1.481 . S
C360 C361 1.297 . S
C360 H374 0.950 . S
C361 C360 1.297 . S
C361 C362 1.479 . S
C361 H375 0.950 1_556 S
C362 C361 1.479 . S
C362 C363 1.375 . S
C362 C368 1.404 . S
C363 C362 1.375 . S
C363 C364 1.369 . S
C363 H376 0.950 1_556 S
C364 C363 1.369 . S
C364 C365 1.392 . S
C364 H377 0.951 . S
C365 C364 1.392 . S
C365 C367 1.384 . S
H366 C368 0.949 . S
C367 C365 1.384 . S
C367 C368 1.385 . S
C367 H369 0.950 . S
C368 C362 1.404 . S
C368 H366 0.949 . S
C368 C367 1.385 . S
H369 C367 0.950 . S
H370 C354 0.951 . S
H371 C356 0.951 . S
H372 C358 0.951 . S
H373 C359 0.950 . S
H374 C360 0.950 . S
H375 C361 0.950 1_554 S
H376 C363 0.950 1_554 S
H377 C364 0.951 . S
C378 C379 1.386 . S
C378 C380 1.383 . S
C378 H394 0.951 . S
C379 C378 1.386 . S
C379 C383 1.383 . S
C380 C378 1.383 . S
C380 C381 1.402 . S
C380 H395 0.951 . S
C381 C380 1.402 . S
C381 C382 1.375 . S
C381 C384 1.481 . S
C382 C381 1.375 . S
C382 C383 1.367 . S
C382 H396 0.951 . S
C383 C379 1.383 . S
C383 C382 1.367 . S
C383 H397 0.950 . S
C384 C381 1.481 . S
C384 C385 1.297 . S
C384 H398 0.950 . S
C385 C384 1.297 . S
C385 C386 1.479 . S
C385 H399 0.950 . S
C386 C385 1.479 . S
C386 C387 1.375 . S
C386 C392 1.404 . S
C387 C386 1.375 . S
C387 C388 1.369 . S
C387 H400 0.950 . S
C388 C387 1.369 . S
C388 C389 1.392 . S
C388 H401 0.951 . S
C389 C388 1.392 . S
C389 C391 1.384 . S
H390 C392 0.949 . S
C391 C389 1.384 . S
C391 C392 1.385 . S
C391 H393 0.950 . S
C392 C386 1.404 . S
C392 H390 0.949 . S
C392 C391 1.385 . S
H393 C391 0.950 . S
H394 C378 0.951 . S
H395 C380 0.951 . S
H396 C382 0.951 . S
H397 C383 0.950 . S
H398 C384 0.950 . S
H399 C385 0.950 . S
H400 C387 0.950 . S
H401 C388 0.951 . S
C402 C403 1.386 . S
C402 C404 1.383 . S
C402 H418 0.951 . S
C403 C402 1.386 . S
C403 C407 1.383 . S
C404 C402 1.383 . S
C404 C405 1.402 . S
C404 H419 0.951 . S
C405 C404 1.402 . S
C405 C406 1.375 . S
C405 C408 1.481 . S
C406 C405 1.375 . S
C406 C407 1.367 . S
C406 H420 0.951 . S
C407 C403 1.383 . S
C407 C406 1.367 . S
C407 H421 0.950 . S
C408 C405 1.481 . S
C408 C409 1.297 . S
C408 H422 0.950 . S
C409 C408 1.297 . S
C409 C410 1.479 . S
C409 H423 0.950 . S
C410 C409 1.479 . S
C410 C411 1.375 . S
C410 C416 1.404 . S
C411 C410 1.375 . S
C411 C412 1.369 . S
C411 H424 0.950 . S
C412 C411 1.369 . S
C412 C413 1.392 . S
C412 H425 0.951 . S
C413 C412 1.392 . S
C413 C415 1.384 . S
H414 C416 0.949 . S
C415 C413 1.384 . S
C415 C416 1.385 . S
C415 H417 0.950 . S
C416 C410 1.404 . S
C416 H414 0.949 . S
C416 C415 1.385 . S
H417 C415 0.950 . S
H418 C402 0.951 . S
H419 C404 0.951 . S
H420 C406 0.951 . S
H421 C407 0.950 . S
H422 C408 0.950 . S
H423 C409 0.950 . S
H424 C411 0.950 . S
H425 C412 0.951 . S
C426 C427 1.386 . S
C426 C428 1.383 . S
C426 H442 0.951 . S
C427 C426 1.386 . S
C427 C431 1.383 . S
C428 C426 1.383 . S
C428 C429 1.402 . S
C428 H443 0.951 . S
C429 C428 1.402 . S
C429 C430 1.375 . S
C429 C432 1.481 . S
C430 C429 1.375 . S
C430 C431 1.367 . S
C430 H444 0.951 . S
C431 C427 1.383 . S
C431 C430 1.367 . S
C431 H445 0.950 . S
C432 C429 1.481 . S
C432 C433 1.297 . S
C432 H446 0.950 . S
C433 C432 1.297 . S
C433 C434 1.479 . S
C433 H447 0.950 . S
C434 C433 1.479 . S
C434 C435 1.375 . S
C434 C440 1.404 . S
C435 C434 1.375 . S
C435 C436 1.369 . S
C435 H448 0.950 . S
C436 C435 1.369 . S
C436 C437 1.392 . S
C436 H449 0.951 . S
C437 C436 1.392 . S
C437 C439 1.384 . S
H438 C440 0.949 . S
C439 C437 1.384 . S
C439 C440 1.385 . S
C439 H441 0.950 . S
C440 C434 1.404 . S
C440 H438 0.949 . S
C440 C439 1.385 . S
H441 C439 0.950 . S
H442 C426 0.951 . S
H443 C428 0.951 . S
H444 C430 0.951 . S
H445 C431 0.950 . S
H446 C432 0.950 . S
H447 C433 0.950 . S
H448 C435 0.950 . S
H449 C436 0.951 . S
C450 C451 1.386 . S
C450 C452 1.383 . S
C450 H466 0.951 . S
C451 C450 1.386 . S
C451 C455 1.383 . S
C452 C450 1.383 . S
C452 C453 1.402 . S
C452 H467 0.951 . S
C453 C452 1.402 . S
C453 C454 1.375 . S
C453 C456 1.481 . S
C454 C453 1.375 . S
C454 C455 1.367 . S
C454 H468 0.951 . S
C455 C451 1.383 . S
C455 C454 1.367 . S
C455 H469 0.950 . S
C456 C453 1.481 . S
C456 C457 1.297 . S
C456 H470 0.950 . S
C457 C456 1.297 . S
C457 C458 1.479 . S
C457 H471 0.950 . S
C458 C457 1.479 . S
C458 C459 1.375 . S
C458 C464 1.404 . S
C459 C458 1.375 . S
C459 C460 1.369 . S
C459 H472 0.950 . S
C460 C459 1.369 . S
C460 C461 1.392 . S
C460 H473 0.951 . S
C461 C460 1.392 . S
C461 C463 1.384 . S
H462 C464 0.949 . S
C463 C461 1.384 . S
C463 C464 1.385 . S
C463 H465 0.950 . S
C464 C458 1.404 . S
C464 H462 0.949 . S
C464 C463 1.385 . S
H465 C463 0.950 . S
H466 C450 0.951 . S
H467 C452 0.951 . S
H468 C454 0.951 . S
H469 C455 0.950 . S
H470 C456 0.950 . S
H471 C457 0.950 . S
H472 C459 0.950 . S
H473 C460 0.951 . S
C474 C475 1.386 1_545 S
C474 C476 1.383 . S
C474 H490 0.951 . S
C475 C474 1.386 1_565 S
C475 C479 1.383 . S
C476 C474 1.383 . S
C476 C477 1.402 1_545 S
C476 H491 0.951 . S
C477 C476 1.402 1_565 S
C477 C478 1.375 . S
C477 C480 1.481 . S
C478 C477 1.375 . S
C478 C479 1.367 . S
C478 H492 0.951 . S
C479 C475 1.383 . S
C479 C478 1.367 . S
C479 H493 0.950 . S
C480 C477 1.481 . S
C480 C481 1.297 1_565 S
C480 H494 0.950 . S
C481 C480 1.297 1_545 S
C481 C482 1.479 . S
C481 H495 0.950 . S
C482 C481 1.479 . S
C482 C483 1.375 . S
C482 C488 1.404 1_545 S
C483 C482 1.375 . S
C483 C484 1.369 . S
C483 H496 0.950 . S
C484 C483 1.369 . S
C484 C485 1.392 . S
C484 H497 0.951 . S
C485 C484 1.392 . S
C485 C487 1.384 1_545 S
H486 C488 0.949 . S
C487 C485 1.384 1_565 S
C487 C488 1.385 . S
C487 H489 0.950 . S
C488 C482 1.404 1_565 S
C488 H486 0.949 . S
C488 C487 1.385 . S
H489 C487 0.950 . S
H490 C474 0.951 . S
H491 C476 0.951 . S
H492 C478 0.951 . S
H493 C479 0.950 . S
H494 C480 0.950 . S
H495 C481 0.950 . S
H496 C483 0.950 . S
H497 C484 0.951 . S
C498 C499 1.386 1_545 S
C498 C500 1.383 . S
C498 H514 0.951 . S
C499 C498 1.386 1_565 S
C499 C503 1.383 . S
C500 C498 1.383 . S
C500 C501 1.402 1_545 S
C500 H515 0.951 . S
C501 C500 1.402 1_565 S
C501 C502 1.375 . S
C501 C504 1.481 . S
C502 C501 1.375 . S
C502 C503 1.367 . S
C502 H516 0.951 1_455 S
C503 C499 1.383 . S
C503 C502 1.367 . S
C503 H517 0.950 1_455 S
C504 C501 1.481 . S
C504 C505 1.297 1_565 S
C504 H518 0.950 . S
C505 C504 1.297 1_545 S
C505 C506 1.479 . S
C505 H519 0.950 . S
C506 C505 1.479 . S
C506 C507 1.375 . S
C506 C512 1.404 1_545 S
C507 C506 1.375 . S
C507 C508 1.369 . S
C507 H520 0.950 . S
C508 C507 1.369 . S
C508 C509 1.392 . S
C508 H521 0.951 . S
C509 C508 1.392 . S
C509 C511 1.384 1_545 S
H510 C512 0.949 . S
C511 C509 1.384 1_565 S
C511 C512 1.385 . S
C511 H513 0.950 1_455 S
C512 C506 1.404 1_565 S
C512 H510 0.949 . S
C512 C511 1.385 . S
H513 C511 0.950 1_655 S
H514 C498 0.951 . S
H515 C500 0.951 . S
H516 C502 0.951 1_655 S
H517 C503 0.950 1_655 S
H518 C504 0.950 . S
H519 C505 0.950 . S
H520 C507 0.950 . S
H521 C508 0.951 . S
C522 C523 1.386 . S
C522 C524 1.383 . S
C522 H538 0.951 . S
C523 C522 1.386 . S
C523 C527 1.383 . S
C524 C522 1.383 . S
C524 C525 1.402 . S
C524 H539 0.951 . S
C525 C524 1.402 . S
C525 C526 1.375 . S
C525 C528 1.481 . S
C526 C525 1.375 . S
C526 C527 1.367 . S
C526 H540 0.951 . S
C527 C523 1.383 . S
C527 C526 1.367 . S
C527 H541 0.950 . S
C528 C525 1.481 . S
C528 C529 1.297 . S
C528 H542 0.950 . S
C529 C528 1.297 . S
C529 C530 1.479 . S
C529 H543 0.950 . S
C530 C529 1.479 . S
C530 C531 1.375 . S
C530 C536 1.404 . S
C531 C530 1.375 . S
C531 C532 1.369 . S
C531 H544 0.950 . S
C532 C531 1.369 . S
C532 C533 1.392 . S
C532 H545 0.951 . S
C533 C532 1.392 . S
C533 C535 1.384 . S
H534 C536 0.949 . S
C535 C533 1.384 . S
C535 C536 1.385 . S
C535 H537 0.950 . S
C536 C530 1.404 . S
C536 H534 0.949 . S
C536 C535 1.385 . S
H537 C535 0.950 . S
H538 C522 0.951 . S
H539 C524 0.951 . S
H540 C526 0.951 . S
H541 C527 0.950 . S
H542 C528 0.950 . S
H543 C529 0.950 . S
H544 C531 0.950 . S
H545 C532 0.951 . S
C546 C547 1.386 . S
C546 C548 1.383 . S
C546 H562 0.951 . S
C547 C546 1.386 . S
C547 C551 1.383 . S
C548 C546 1.383 . S
C548 C549 1.402 . S
C548 H563 0.951 . S
C549 C548 1.402 . S
C549 C550 1.375 . S
C549 C552 1.481 . S
C550 C549 1.375 . S
C550 C551 1.367 . S
C550 H564 0.951 . S
C551 C547 1.383 . S
C551 C550 1.367 . S
C551 H565 0.950 . S
C552 C549 1.481 . S
C552 C553 1.297 . S
C552 H566 0.950 . S
C553 C552 1.297 . S
C553 C554 1.479 . S
C553 H567 0.950 . S
C554 C553 1.479 . S
C554 C555 1.375 . S
C554 C560 1.404 . S
C555 C554 1.375 . S
C555 C556 1.369 . S
C555 H568 0.950 . S
C556 C555 1.369 . S
C556 C557 1.392 . S
C556 H569 0.951 . S
C557 C556 1.392 . S
C557 C559 1.384 . S
H558 C560 0.949 . S
C559 C557 1.384 . S
C559 C560 1.385 . S
C559 H561 0.950 . S
C560 C554 1.404 . S
C560 H558 0.949 . S
C560 C559 1.385 . S
H561 C559 0.950 . S
H562 C546 0.951 . S
H563 C548 0.951 . S
H564 C550 0.951 . S
H565 C551 0.950 . S
H566 C552 0.950 . S
H567 C553 0.950 . S
H568 C555 0.950 . S
H569 C556 0.951 . S
C293 C253 1.197 . S
C283 C3 1.086 . S
C307 C4 1.533 1_556 S
C317 C193 1.582 . S
C331 C19 1.545 . S
C341 C223 1.609 . S
C355 C7 1.121 1_554 S
C365 C163 1.202 . S
C379 C37 1.120 . S
C389 C133 1.174 . S
C403 C28 1.464 . S
C413 C73 1.619 . S
C437 C103 1.509 . S
C427 C41 1.530 . S
C461 C43 1.200 . S
C451 C25 1.120 . S
C475 C20 1.308 . S
C485 C62 1.363 . S
C499 C16 1.363 . S
C509 C122 1.475 1_455 S
C533 C182 1.439 . S
C523 C40 1.229 . S
C547 C24 1.335 . S
C557 C242 1.462 . S
