# Generated by pormake.
# Topology pth, (4,4)-cn, num edge types: 1
# Building blocks:
#     Node 0, Type 0, BuildingBlock: TATPOV_clean_sbu_0, # of connection points: 4
#     Node 1, Type 0, BuildingBlock: TATPOV_clean_sbu_0, # of connection points: 4
#     Node 2, Type 0, BuildingBlock: TATPOV_clean_sbu_0, # of connection points: 4
#     Node 3, Type 1, BuildingBlock: AZAVOO_clean_linker_0, # of connection points: 4
#     Node 4, Type 1, BuildingBlock: AZAVOO_clean_linker_0, # of connection points: 4
#     Node 5, Type 1, BuildingBlock: AZAVOO_clean_linker_0, # of connection points: 4
#     Edge 6, Type (0, 1), BuildingBlock: AJUNOK_clean_linker_0, # of connection points: 2
#     Edge 7, Type (0, 1), BuildingBlock: AJUNOK_clean_linker_0, # of connection points: 2
#     Edge 8, Type (0, 1), BuildingBlock: AJUNOK_clean_linker_0, # of connection points: 2
#     Edge 9, Type (0, 1), BuildingBlock: AJUNOK_clean_linker_0, # of connection points: 2
#     Edge 10, Type (0, 1), BuildingBlock: AJUNOK_clean_linker_0, # of connection points: 2
#     Edge 11, Type (0, 1), BuildingBlock: AJUNOK_clean_linker_0, # of connection points: 2
#     Edge 12, Type (0, 1), BuildingBlock: AJUNOK_clean_linker_0, # of connection points: 2
#     Edge 13, Type (0, 1), BuildingBlock: AJUNOK_clean_linker_0, # of connection points: 2
#     Edge 14, Type (0, 1), BuildingBlock: AJUNOK_clean_linker_0, # of connection points: 2
#     Edge 15, Type (0, 1), BuildingBlock: AJUNOK_clean_linker_0, # of connection points: 2
#     Edge 16, Type (0, 1), BuildingBlock: AJUNOK_clean_linker_0, # of connection points: 2
#     Edge 17, Type (0, 1), BuildingBlock: AJUNOK_clean_linker_0, # of connection points: 2
# Relax obj value: 0.165
# Max RMSD: 0.229
# Mean RMSD: 0.205
data_MOF--net-pth--node1-TATPOV_clean_sbu_0--node2-AZAVOO_clean_linker_0--edge1-AJUNOK_clean_linker_0
_symmetry_space_group_name_H-M    P1
_symmetry_Int_Tables_number       1
_symmetry_cell_setting            triclinic
loop_
_symmetry_equiv_pos_as_xyz
'x, y, z'
_cell_length_a     20.682924
_cell_length_b     20.575098
_cell_length_c     54.041082
_cell_angle_alpha  94.165502
_cell_angle_beta   91.391571
_cell_angle_gamma 121.27902
loop_
_atom_site_label
_atom_site_type_symbol
_atom_site_fract_x
_atom_site_fract_y
_atom_site_fract_z
_atom_type_partial_charge
Zn0 Zn 0.24564 0.98645 0.0413 0.0
Zn1 Zn 0.18797 0.0657 0.06348 0.0
O2 O 0.1806 0.9895 0.08725 0.0
O3 O 0.22841 0.92469 0.07044 0.0
O4 O 0.15037 0.12299 0.08413 0.0
O5 O 0.34283 0.08657 0.03785 0.0
O6 O 0.29197 0.14892 0.05436 0.0
C7 C 0.19689 0.93803 0.08821 0.0
C8 C 0.11344 0.97208 0.01445 0.0
O9 O 0.1157 0.01722 0.03233 0.0
O10 O 0.16032 0.94989 0.01454 0.0
C11 C 0.09554 0.08725 0.09772 0.0
O12 O 0.06018 0.01236 0.09633 0.0
C13 C 0.34669 0.14916 0.04398 0.0
Zn14 Zn 0.17326 0.02758 0.35689 0.0
Zn15 Zn 0.07085 0.01603 0.38936 0.0
O16 O 0.17381 0.06751 0.40926 0.0
O17 O 0.25997 0.08448 0.38327 0.0
O18 O 0.00227 0.01434 0.41543 0.0
O19 O 0.14023 0.08356 0.33557 0.0
O20 O 0.0596 0.07644 0.36263 0.0
C21 C 0.24267 0.09156 0.40518 0.0
C22 C 0.05546 0.87182 0.36426 0.0
O23 O 0.02821 0.90297 0.37815 0.0
O24 O 0.11575 0.9119 0.35359 0.0
C25 C 0.01137 0.00113 0.43748 0.0
O26 O 0.06385 0.98544 0.4427 0.0
C27 C 0.09018 0.09779 0.34222 0.0
Zn28 Zn 0.18625 0.97572 0.76233 0.0
Zn29 Zn 0.10857 -0.00178 0.72716 0.0
O30 O 0.18188 0.97682 0.70795 0.0
O31 O 0.24249 0.95317 0.73657 0.0
O32 O 0.03716 -0.00192 0.70106 0.0
O33 O 0.09247 0.89293 0.77586 0.0
O34 O 0.03057 0.91839 0.74854 0.0
C35 C 0.23147 0.9605 0.71407 0.0
C36 C 0.21107 0.1299 0.76472 0.0
O37 O 0.16623 0.106 0.7452 0.0
O38 O 0.22658 0.08601 0.7752 0.0
C39 C 0.04973 0.05285 0.68852 0.0
O40 O 0.11672 0.11616 0.69135 0.0
C41 C 0.0304 0.88189 0.7666 0.0
H42 H 0.03139 0.42114 0.06178 0.0
H43 H 0.02481 0.90495 0.29941 0.0
H44 H 0.89758 0.28237 0.19763 0.0
H45 H 0.91659 0.19332 0.17066 0.0
H46 H 0.15841 0.35466 0.17788 0.0
H47 H 0.13871 0.44376 0.20433 0.0
H48 H 0.91393 0.38959 0.1604 0.0
H49 H 0.94187 0.3849 0.11678 0.0
H50 H 0.17234 0.57155 0.13583 0.0
H51 H 0.14386 0.57482 0.17943 0.0
H52 H 0.925 0.54843 0.16918 0.0
H53 H 0.97106 0.64949 0.1409 0.0
H54 H 0.17097 0.7913 0.19055 0.0
H55 H 0.12685 0.68921 0.21815 0.0
H56 H 0.86957 0.57061 0.22941 0.0
H57 H 0.86055 0.67833 0.24728 0.0
H58 H 0.08457 0.77931 0.28411 0.0
H59 H 0.09319 0.67207 0.26586 0.0
H60 H 0.85083 0.45563 0.27189 0.0
H61 H 0.8459 0.5199 0.31103 0.0
H62 H 0.08717 0.61849 0.32578 0.0
H63 H 0.08992 0.55035 0.28782 0.0
H64 H 0.88285 0.31142 0.26188 0.0
H65 H 0.90103 0.22552 0.28676 0.0
H66 H 0.1421 0.3601 0.27893 0.0
H67 H 0.12371 0.44504 0.25428 0.0
O68 O 0.02166 0.42374 0.07914 0.0
O69 O 0.1393 0.5202 0.08988 0.0
O70 O 0.91003 0.80544 0.27391 0.0
O71 O 0.02669 0.86166 0.29209 0.0
C72 C 0.00435 0.42909 0.21428 0.0
C73 C 0.00953 0.48517 0.19947 0.0
C74 C 0.00334 0.54611 0.21022 0.0
C75 C 0.98738 0.54834 0.23536 0.0
C76 C 0.98101 0.49133 0.25013 0.0
C77 C 0.99237 0.43336 0.2398 0.0
C78 C 0.01681 0.36913 0.20294 0.0
C79 C 0.95472 0.2973 0.19396 0.0
C80 C 0.96569 0.24669 0.17858 0.0
C81 C 0.03899 0.26735 0.17216 0.0
C82 C 0.10132 0.33767 0.18239 0.0
C83 C 0.0903 0.38818 0.19766 0.0
C84 C 0.02677 0.4827 0.173 0.0
C85 C 0.97043 0.42923 0.15509 0.0
C86 C 0.98654 0.42679 0.1302 0.0
C87 C 0.05932 0.47796 0.1228 0.0
C88 C 0.1157 0.5314 0.14088 0.0
C89 C 0.09957 0.53353 0.16578 0.0
C90 C 0.02238 0.61168 0.19578 0.0
C91 C 0.97791 0.6019 0.1742 0.0
C92 C 0.00416 0.65928 0.15812 0.0
C93 C 0.07418 0.72762 0.16378 0.0
C94 C 0.11641 0.7392 0.18608 0.0
C95 C 0.09099 0.68127 0.20187 0.0
C96 C 0.98165 0.61322 0.24654 0.0
C97 C 0.91651 0.61606 0.24136 0.0
C98 C 0.91156 0.67761 0.2516 0.0
C99 C 0.97197 0.73756 0.26709 0.0
C100 C 0.03713 0.7343 0.27223 0.0
C101 C 0.042 0.67284 0.26195 0.0
C102 C 0.97096 0.4993 0.27696 0.0
C103 C 0.9014 0.48706 0.28447 0.0
C104 C 0.89894 0.52457 0.30672 0.0
C105 C 0.96633 0.57589 0.32137 0.0
C106 C 0.03371 0.57885 0.31538 0.0
C107 C 0.03567 0.53994 0.29346 0.0
C108 C 0.0019 0.38363 0.25606 0.0
C109 C 0.93946 0.3223 0.2657 0.0
C110 C 0.94989 0.27359 0.27985 0.0
C111 C 0.02277 0.28564 0.2843 0.0
C112 C 0.0852 0.34865 0.27527 0.0
C113 C 0.07483 0.39721 0.2613 0.0
C114 C 0.07614 0.47548 0.09633 0.0
C115 C 0.96741 0.80344 0.27784 0.0
H116 H 0.64641 0.04545 0.39529 0.0
H117 H 0.26486 0.17495 0.61254 0.0
H118 H 0.63458 0.9282 0.52291 0.0
H119 H 0.72203 0.91015 0.49784 0.0
H120 H 0.90816 0.12882 0.52999 0.0
H121 H 0.81992 0.14693 0.55501 0.0
H122 H 0.53564 0.9754 0.49423 0.0
H123 H 0.56234 0.98494 0.45035 0.0
H124 H 0.77699 0.19447 0.47071 0.0
H125 H 0.74894 0.1849 0.5145 0.0
H126 H 0.41833 0.98915 0.52577 0.0
H127 H 0.34603 0.01079 0.49444 0.0
H128 H 0.54096 0.23478 0.48773 0.0
H129 H 0.61297 0.21342 0.51964 0.0
H130 H 0.40762 0.95952 0.57777 0.0
H131 H 0.30247 0.96978 0.59293 0.0
H132 H 0.43694 0.21492 0.59107 0.0
H133 H 0.54204 0.20385 0.57618 0.0
H134 H 0.51507 0.9218 0.60313 0.0
H135 H 0.43094 0.89114 0.63722 0.0
H136 H 0.51956 0.13157 0.65602 0.0
H137 H 0.60381 0.16189 0.62203 0.0
H138 H 0.66947 0.93067 0.58009 0.0
H139 H 0.76481 0.92745 0.60705 0.0
H140 H 0.84078 0.15572 0.63979 0.0
H141 H 0.74675 0.15924 0.61241 0.0
O142 O 0.63701 0.04281 0.41275 0.0
O143 O 0.74772 0.1491 0.42425 0.0
O144 O 0.23908 0.0431 0.6073 0.0
O145 O 0.30534 0.16924 0.60635 0.0
C146 C 0.66522 0.05633 0.5508 0.0
C147 C 0.62369 0.07365 0.53416 0.0
C148 C 0.56545 0.08391 0.54269 0.0
C149 C 0.54716 0.07473 0.56763 0.0
C150 C 0.58976 0.05902 0.58447 0.0
C151 C 0.65024 0.05178 0.57622 0.0
C152 C 0.72106 0.03888 0.5407 0.0
C153 C 0.69458 0.97118 0.52509 0.0
C154 C 0.74431 0.96115 0.51072 0.0
C155 C 0.82144 0.01829 0.51196 0.0
C156 C 0.84893 0.08373 0.52892 0.0
C157 C 0.79885 0.09406 0.54322 0.0
C158 C 0.6403 0.07951 0.50751 0.0
C159 C 0.58822 0.02349 0.48915 0.0
C160 C 0.60372 0.02899 0.46411 0.0
C161 C 0.67182 0.09048 0.45702 0.0
C162 C 0.72402 0.14638 0.47553 0.0
C163 C 0.70825 0.14099 0.50055 0.0
C164 C 0.52064 0.09985 0.52503 0.0
C165 C 0.44494 0.04352 0.51795 0.0
C166 C 0.40386 0.05592 0.5001 0.0
C167 C 0.4382 0.12441 0.48879 0.0
C168 C 0.51359 0.18148 0.49619 0.0
C169 C 0.55451 0.16937 0.51432 0.0
C170 C 0.48254 0.081 0.57608 0.0
C171 C 0.41428 0.01538 0.58072 0.0
C172 C 0.35426 0.02139 0.5893 0.0
C173 C 0.36134 0.09324 0.59325 0.0
C174 C 0.42962 0.15877 0.58826 0.0
C175 C 0.48968 0.15266 0.57972 0.0
C176 C 0.56515 0.04402 0.61004 0.0
C177 C 0.51927 0.96802 0.61544 0.0
C178 C 0.47078 0.95054 0.63476 0.0
C179 C 0.46806 0.00903 0.64887 0.0
C180 C 0.52019 0.08553 0.64518 0.0
C181 C 0.56897 0.10296 0.62602 0.0
C182 C 0.70121 0.0452 0.5943 0.0
C183 C 0.70624 0.97962 0.59326 0.0
C184 C 0.76041 0.97776 0.60872 0.0
C185 C 0.81009 0.04135 0.62554 0.0
C186 C 0.80358 0.10615 0.62689 0.0
C187 C 0.74952 0.10796 0.61146 0.0
C188 C 0.68809 0.09615 0.4304 0.0
C189 C 0.29807 0.10002 0.60269 0.0
H190 H 0.82181 0.8313 0.0554 0.0
H191 H 0.22792 0.09699 0.89494 0.0
H192 H 0.69452 0.79385 0.93027 0.0
H193 H 0.81523 0.89032 0.95156 0.0
H194 H 0.9265 0.79305 0.91012 0.0
H195 H 0.80388 0.69096 0.89133 0.0
H196 H 0.60276 0.68178 0.96883 0.0
H197 H 0.67809 0.7475 0.00813 0.0
H198 H 0.8526 0.70644 0.98387 0.0
H199 H 0.77703 0.64135 0.94467 0.0
H200 H 0.4482 0.4966 0.95375 0.0
H201 H 0.41027 0.41074 0.98671 0.0
H202 H 0.62337 0.4192 0.98528 0.0
H203 H 0.65772 0.49922 0.95093 0.0
H204 H 0.386 0.47507 0.89858 0.0
H205 H 0.27226 0.3467 0.89466 0.0
H206 H 0.41309 0.25014 0.90296 0.0
H207 H 0.52627 0.37875 0.90662 0.0
H208 H 0.45594 0.56955 0.85822 0.0
H209 H 0.36533 0.48343 0.82349 0.0
H210 H 0.47764 0.35576 0.81987 0.0
H211 H 0.56522 0.43913 0.85501 0.0
H212 H 0.66483 0.75284 0.86302 0.0
H213 H 0.7519 0.80838 0.83004 0.0
H214 H 0.76972 0.60808 0.82126 0.0
H215 H 0.68665 0.55522 0.85482 0.0
O216 O 0.79217 0.80368 0.03999 0.0
O217 O 0.88139 0.78369 0.02613 0.0
O218 O 0.20175 0.20116 0.89429 0.0
O219 O 0.2719 0.14836 0.8964 0.0
C220 C 0.66748 0.65918 0.90754 0.0
C221 C 0.64091 0.62171 0.92939 0.0
C222 C 0.57524 0.54815 0.92787 0.0
C223 C 0.53313 0.51388 0.9048 0.0
C224 C 0.56015 0.55069 0.88298 0.0
C225 C 0.6293 0.62157 0.88412 0.0
C226 C 0.73997 0.73415 0.90978 0.0
C227 C 0.74544 0.79537 0.92495 0.0
C228 C 0.81505 0.85114 0.93704 0.0
C229 C 0.88052 0.8483 0.93304 0.0
C230 C 0.87661 0.79531 0.91414 0.0
C231 C 0.80652 0.73752 0.90296 0.0
C232 C 0.6848 0.65759 0.95382 0.0
C233 C 0.65713 0.68681 0.97211 0.0
C234 C 0.70037 0.72446 0.9945 0.0
C235 C 0.77179 0.73298 -0.00098 0.0
C236 C 0.7983 0.70169 0.98087 0.0
C237 C 0.75521 0.6644 0.95848 0.0
C238 C 0.55544 0.50376 0.94984 0.0
C239 C 0.4866 0.47993 0.96061 0.0
C240 C 0.4655 0.43164 0.9796 0.0
C241 C 0.51347 0.40738 0.98835 0.0
C242 C 0.58439 0.43527 0.97852 0.0
C243 C 0.60454 0.48188 0.95914 0.0
C244 C 0.46416 0.43606 0.90298 0.0
C245 C 0.39204 0.42606 0.89956 0.0
C246 C 0.32725 0.35274 0.89735 0.0
C247 C 0.33359 0.28813 0.89854 0.0
C248 C 0.40615 0.29858 0.90196 0.0
C249 C 0.47086 0.37193 0.90415 0.0
C250 C 0.51775 0.51115 0.8588 0.0
C251 C 0.46234 0.52449 0.84933 0.0
C252 C 0.41079 0.47551 0.82965 0.0
C253 C 0.41553 0.41396 0.81902 0.0
C254 C 0.47405 0.40386 0.82752 0.0
C255 C 0.5242 0.45152 0.84748 0.0
C256 C 0.66831 0.64936 0.86108 0.0
C257 C 0.68593 0.7202 0.85347 0.0
C258 C 0.73525 0.75157 0.83457 0.0
C259 C 0.76718 0.71221 0.82304 0.0
C260 C 0.74582 0.63949 0.82979 0.0
C261 C 0.69741 0.60871 0.84873 0.0
C262 C 0.81857 0.7748 0.0225 0.0
C263 C 0.26497 0.21011 0.89626 0.0
C264 C 0.10715 0.20902 0.1151 0.0
C265 C 0.07648 0.1303 0.11629 0.0
C266 C 0.09427 0.25246 0.13319 0.0
C267 C 0.05046 0.21907 0.15325 0.0
H268 H 0.14179 0.23766 0.10014 0.0
H269 H 0.11868 0.3128 0.13139 0.0
S270 S 0.95843 0.01584 0.16544 0.0
N271 N 0.00017 0.02073 0.13939 0.0
N272 N 0.97702 0.10314 0.17353 0.0
C273 C 0.01884 0.14045 0.15464 0.0
C274 C 0.03165 0.09592 0.13614 0.0
C275 C 0.8952 -0.0007 0.45015 0.0
C276 C 0.96389 0.00447 0.45702 0.0
C277 C 0.84933 0.003 0.46812 0.0
C278 C 0.87079 0.01291 0.49364 0.0
H279 H 0.87637 0.992 0.43071 0.0
H280 H 0.79706 -0.00082 0.46199 0.0
S281 S 0.04512 0.03058 0.52163 0.0
N282 N 0.05118 0.02036 0.49133 0.0
N283 N 0.96469 0.02797 0.52505 0.0
C284 C 0.93927 0.01861 0.50087 0.0
C285 C 0.98579 0.01401 0.48257 0.0
C286 C 0.96099 0.79198 0.79823 0.0
C287 C 0.95922 0.83232 0.77853 0.0
C288 C 0.89792 0.75197 0.81197 0.0
C289 C 0.83025 0.75044 0.80664 0.0
H290 H 0.01223 0.79282 0.80361 0.0
H291 H 0.90316 0.72404 0.82747 0.0
S292 S 0.79283 0.84063 0.75575 0.0
N293 N 0.88176 0.86415 0.75344 0.0
N294 N 0.76296 0.78825 0.77943 0.0
C295 C 0.82636 0.7881 0.78653 0.0
C296 C 0.89074 0.82889 0.77238 0.0
C297 C 0.15856 0.81393 0.10479 0.0
C298 C 0.17103 0.88812 0.10868 0.0
C299 C 0.1265 0.76226 0.12271 0.0
C300 C 0.10691 0.78331 0.14528 0.0
H301 H 0.17158 0.7947 0.08748 0.0
H302 H 0.11703 0.70537 0.11893 0.0
S303 S 0.13084 0.97093 0.16531 0.0
N304 N 0.16281 0.98036 0.13727 0.0
N305 N 0.10389 0.88297 0.17115 0.0
C306 C 0.1207 0.85753 0.1498 0.0
C307 C 0.15237 0.91002 0.13143 0.0
C308 C 0.27604 0.11244 0.45095 0.0
C309 C 0.29962 0.1169 0.42655 0.0
C310 C 0.32314 0.11958 0.4713 0.0
C311 C 0.39595 0.13265 0.46808 0.0
H312 H 0.21922 0.0991 0.45433 0.0
H313 H 0.30126 0.11157 0.48957 0.0
S314 S 0.48919 0.15896 0.40885 0.0
N315 N 0.40426 0.14313 0.40084 0.0
N316 N 0.49249 0.15648 0.43929 0.0
C317 C 0.42268 0.14315 0.4442 0.0
C318 C 0.37461 0.13541 0.42338 0.0
C319 C 0.31898 0.26251 0.76501 0.0
C320 C 0.25058 0.21026 0.77472 0.0
C321 C 0.37026 0.33272 0.77854 0.0
C322 C 0.35389 0.35272 0.80196 0.0
H323 H 0.33561 0.24645 0.74787 0.0
H324 H 0.42508 0.36924 0.77147 0.0
S325 S 0.1793 0.23783 0.83428 0.0
N326 N 0.16677 0.18452 0.80812 0.0
N327 N 0.26241 0.31736 0.8334 0.0
C328 C 0.28309 0.30332 0.8109 0.0
C329 C 0.23152 0.23156 0.7973 0.0
C330 C 0.00326 0.1059 0.65703 0.0
C331 C 0.98793 0.04677 0.67193 0.0
C332 C 0.94557 0.10335 0.64201 0.0
C333 C 0.87021 0.04149 0.64121 0.0
H334 H 0.06025 0.15498 0.65703 0.0
H335 H 0.96016 0.15016 0.63086 0.0
S336 S 0.79882 0.8728 0.67694 0.0
N337 N 0.8907 0.92443 0.68499 0.0
N338 N 0.78274 0.92041 0.65685 0.0
C339 C 0.85391 0.98176 0.65583 0.0
C340 C 0.91257 0.98423 0.67116 0.0
C341 C 0.02986 0.87201 0.98079 0.0
C342 C 0.05609 0.94438 0.99332 0.0
C343 C 0.97559 0.84333 0.96072 0.0
C344 C 0.94587 0.88622 0.95203 0.0
H345 H 0.04996 0.83615 0.98693 0.0
H346 H 0.95476 0.78558 0.95262 0.0
S347 S 0.00242 0.08293 0.9769 0.0
N348 N 0.05229 0.06074 0.99495 0.0
N349 N 0.95147 0.00763 0.95648 0.0
C350 C 0.97367 0.96002 0.96389 0.0
C351 C 0.02839 0.98887 0.9847 0.0
C352 C 0.95871 0.75162 0.34009 0.0
C353 C 0.01622 0.78858 0.35932 0.0
C354 C 0.93654 0.67819 0.32958 0.0
C355 C 0.97106 0.63925 0.33809 0.0
H356 H 0.9353 0.78203 0.33176 0.0
H357 H 0.89732 0.65528 0.31319 0.0
S358 S 0.11196 0.70626 0.39217 0.0
N359 N 0.09914 0.77822 0.38912 0.0
N360 N 0.05495 0.63823 0.37025 0.0
C361 C 0.02217 0.67262 0.35936 0.0
C362 C 0.04562 0.74799 0.36972 0.0
C363 C 0.29933 0.00649 0.67566 0.0
C364 C 0.28474 0.96242 0.69586 0.0
C365 C 0.35863 0.02084 0.66063 0.0
C366 C 0.40484 0.99068 0.6649 0.0
H367 H 0.267 0.0331 0.67207 0.0
H368 H 0.369 0.05665 0.64568 0.0
S369 S 0.38664 0.86634 0.71385 0.0
N370 N 0.31896 0.88502 0.71841 0.0
N371 N 0.42968 0.91121 0.68968 0.0
C372 C 0.38888 0.94364 0.68421 0.0
C373 C 0.32906 0.92976 0.69981 0.0
C374 C 0.40766 0.28909 0.04029 0.0
C375 C 0.40601 0.22042 0.0343 0.0
C376 C 0.44682 0.35146 0.02634 0.0
C377 C 0.48588 0.34762 0.0059 0.0
H378 H 0.3746 0.29324 0.05488 0.0
H379 H 0.44347 0.40175 0.03086 0.0
S380 S 0.50777 0.18493 0.98443 0.0
N381 N 0.45493 0.15603 0.00832 0.0
N382 N 0.52623 0.27219 0.98169 0.0
C383 C 0.48991 0.28175 0.00096 0.0
C384 C 0.4507 0.21849 0.01531 0.0
C385 C 0.02628 0.17169 0.336 0.0
C386 C 0.06878 0.14097 0.32648 0.0
C387 C 0.00943 0.2166 0.32199 0.0
C388 C 0.0346 0.23247 0.29802 0.0
H389 H 0.00736 0.1626 0.35463 0.0
H390 H 0.97854 0.24098 0.33026 0.0
S391 S 0.13919 0.15847 0.26319 0.0
N392 N 0.12977 0.12466 0.29052 0.0
N393 N 0.09785 0.20885 0.26442 0.0
C394 C 0.07426 0.1997 0.28787 0.0
C395 C 0.09141 0.15402 0.30203 0.0
loop_
_geom_bond_atom_site_label_1
_geom_bond_atom_site_label_2
_geom_bond_distance
_geom_bond_site_symmetry_2
_ccdc_geom_bond_type
Zn0 O3 2.031 . S
Zn0 O5 2.049 1_565 S
Zn0 O10 2.067 . S
Zn1 O2 1.962 . S
Zn1 O4 1.986 . S
Zn1 O6 1.996 . S
Zn1 O9 1.943 . S
O2 Zn1 1.962 . S
O2 C7 1.254 1_545 S
O3 Zn0 2.031 . S
O3 C7 1.269 . S
O4 Zn1 1.986 . S
O4 C11 1.262 . S
O5 Zn0 2.049 1_545 S
O5 C13 1.260 . S
O6 Zn1 1.996 . S
O6 C13 1.257 . S
C7 O2 1.254 1_565 S
C7 O3 1.269 . S
C8 O9 1.249 1_565 S
C8 O10 1.270 . S
O9 Zn1 1.943 . S
O9 C8 1.249 1_545 S
O10 Zn0 2.067 . S
O10 C8 1.270 . S
C11 O4 1.262 . S
C11 O12 1.232 . S
O12 C11 1.232 . S
C13 O5 1.260 . S
C13 O6 1.257 . S
Zn14 O17 2.031 . S
Zn14 O19 2.049 . S
Zn14 O24 2.067 1_545 S
Zn15 O16 1.962 . S
Zn15 O18 1.986 1_455 S
Zn15 O20 1.996 . S
Zn15 O23 1.941 1_545 S
O16 Zn15 1.962 . S
O16 C21 1.254 . S
O17 Zn14 2.031 . S
O17 C21 1.269 . S
O18 Zn15 1.986 1_655 S
O18 C25 1.262 1_545 S
O19 Zn14 2.049 . S
O19 C27 1.260 . S
O20 Zn15 1.996 . S
O20 C27 1.257 . S
C21 O16 1.254 . S
C21 O17 1.269 . S
C22 O23 1.256 . S
C22 O24 1.270 . S
O23 Zn15 1.941 1_565 S
O23 C22 1.256 . S
O24 Zn14 2.067 1_565 S
O24 C22 1.270 . S
C25 O18 1.262 1_565 S
C25 O26 1.232 . S
O26 C25 1.232 . S
C27 O19 1.260 . S
C27 O20 1.257 . S
Zn28 O31 2.031 1_565 S
Zn28 O33 2.049 . S
Zn28 O38 2.067 1_565 S
Zn29 O30 1.962 . S
Zn29 O32 1.986 . S
Zn29 O34 1.996 1_545 S
Zn29 O37 1.943 . S
O30 Zn29 1.962 . S
O30 C35 1.254 . S
O31 Zn28 2.031 1_545 S
O31 C35 1.269 . S
O32 Zn29 1.986 . S
O32 C39 1.262 . S
O33 Zn28 2.049 . S
O33 C41 1.260 . S
O34 Zn29 1.996 1_565 S
O34 C41 1.257 . S
C35 O30 1.254 . S
C35 O31 1.269 . S
C36 O37 1.249 . S
C36 O38 1.270 . S
O37 Zn29 1.943 . S
O37 C36 1.249 . S
O38 Zn28 2.067 1_545 S
O38 C36 1.270 . S
C39 O32 1.262 . S
C39 O40 1.232 . S
O40 C39 1.232 . S
C41 O33 1.260 . S
C41 O34 1.257 . S
H42 O68 0.856 . S
H43 O71 0.854 1_545 S
H44 C79 0.930 1_655 S
H45 C80 0.930 1_655 S
H46 C82 0.930 . S
H47 C83 0.930 . S
H48 C85 0.931 . S
H49 C86 0.930 . S
H50 C88 0.930 . S
H51 C89 0.929 . S
H52 C91 0.930 . S
H53 C92 0.931 . S
H54 C94 0.930 . S
H55 C95 0.929 . S
H56 C97 0.931 1_655 S
H57 C98 0.930 1_655 S
H58 C100 0.930 . S
H59 C101 0.932 . S
H60 C103 0.930 . S
H61 C104 0.929 . S
H62 C106 0.931 . S
H63 C107 0.930 . S
H64 C109 0.929 1_655 S
H65 C110 0.931 1_655 S
H66 C112 0.930 . S
H67 C113 0.929 . S
O68 H42 0.856 . S
O68 C114 1.300 . S
O69 C114 1.209 . S
O70 C115 1.199 . S
O71 H43 0.854 1_565 S
O71 C115 1.297 . S
C72 C73 1.404 . S
C72 C77 1.397 . S
C72 C78 1.492 . S
C73 C72 1.404 . S
C73 C74 1.396 . S
C73 C84 1.492 . S
C74 C73 1.396 . S
C74 C75 1.397 . S
C74 C90 1.509 . S
C75 C74 1.397 . S
C75 C76 1.412 . S
C75 C96 1.485 . S
C76 C75 1.412 . S
C76 C77 1.388 . S
C76 C102 1.490 . S
C77 C72 1.397 . S
C77 C76 1.388 . S
C77 C108 1.519 . S
C78 C72 1.492 . S
C78 C79 1.363 . S
C78 C83 1.390 . S
C79 H44 0.930 1_455 S
C79 C78 1.363 . S
C79 C80 1.372 . S
C80 H45 0.930 1_455 S
C80 C79 1.372 . S
C80 C81 1.383 . S
C81 C80 1.383 . S
C81 C82 1.395 . S
C82 H46 0.930 . S
C82 C81 1.395 . S
C82 C83 1.362 . S
C83 H47 0.930 . S
C83 C78 1.390 . S
C83 C82 1.362 . S
C84 C73 1.492 . S
C84 C85 1.377 . S
C84 C89 1.397 . S
C85 H48 0.931 . S
C85 C84 1.377 . S
C85 C86 1.376 . S
C86 H49 0.930 . S
C86 C85 1.376 . S
C86 C87 1.376 . S
C87 C86 1.376 . S
C87 C88 1.378 . S
C87 C114 1.486 . S
C88 H50 0.930 . S
C88 C87 1.378 . S
C88 C89 1.376 . S
C89 H51 0.929 . S
C89 C84 1.397 . S
C89 C88 1.376 . S
C90 C74 1.509 . S
C90 C91 1.391 . S
C90 C95 1.386 . S
C91 H52 0.930 . S
C91 C90 1.391 . S
C91 C92 1.375 . S
C92 H53 0.931 . S
C92 C91 1.375 . S
C92 C93 1.375 . S
C93 C92 1.375 . S
C93 C94 1.361 . S
C94 H54 0.930 . S
C94 C93 1.361 . S
C94 C95 1.399 . S
C95 H55 0.929 . S
C95 C90 1.386 . S
C95 C94 1.399 . S
C96 C75 1.485 . S
C96 C97 1.394 . S
C96 C101 1.360 . S
C97 H56 0.931 1_455 S
C97 C96 1.394 . S
C97 C98 1.372 . S
C98 H57 0.930 1_455 S
C98 C97 1.372 . S
C98 C99 1.397 . S
C99 C98 1.397 . S
C99 C100 1.390 . S
C99 C115 1.476 . S
C100 H58 0.930 . S
C100 C99 1.390 . S
C100 C101 1.366 . S
C101 H59 0.932 . S
C101 C96 1.360 . S
C101 C100 1.366 . S
C102 C76 1.490 . S
C102 C103 1.380 1_455 S
C102 C107 1.386 . S
C103 H60 0.930 . S
C103 C102 1.380 1_655 S
C103 C104 1.381 . S
C104 H61 0.929 . S
C104 C103 1.381 . S
C104 C105 1.371 1_655 S
C105 C104 1.371 1_455 S
C105 C106 1.380 . S
C106 H62 0.931 . S
C106 C105 1.380 . S
C106 C107 1.387 . S
C107 H63 0.930 . S
C107 C102 1.386 . S
C107 C106 1.387 . S
C108 C77 1.519 . S
C108 C109 1.377 . S
C108 C113 1.361 . S
C109 H64 0.929 1_455 S
C109 C108 1.377 . S
C109 C110 1.386 . S
C110 H65 0.931 1_455 S
C110 C109 1.386 . S
C110 C111 1.363 . S
C111 C110 1.363 . S
C111 C112 1.385 . S
C112 H66 0.930 . S
C112 C111 1.385 . S
C112 C113 1.396 . S
C113 H67 0.929 . S
C113 C108 1.361 . S
C113 C112 1.396 . S
C114 O68 1.300 . S
C114 O69 1.209 . S
C114 C87 1.486 . S
C115 O70 1.199 . S
C115 O71 1.297 . S
C115 C99 1.476 . S
H116 O142 0.856 . S
H117 O145 0.854 . S
H118 C153 0.930 . S
H119 C154 0.930 . S
H120 C156 0.930 . S
H121 C157 0.930 . S
H122 C159 0.931 . S
H123 C160 0.931 . S
H124 C162 0.930 . S
H125 C163 0.929 . S
H126 C165 0.930 1_565 S
H127 C166 0.931 1_565 S
H128 C168 0.930 . S
H129 C169 0.929 . S
H130 C171 0.924 1_565 S
H131 C172 0.930 1_565 S
H132 C174 0.930 . S
H133 C175 0.932 . S
H134 C177 0.930 . S
H135 C178 0.929 . S
H136 C180 0.931 . S
H137 C181 0.930 . S
H138 C183 0.929 . S
H139 C184 0.931 1_565 S
H140 C186 0.930 . S
H141 C187 0.929 . S
O142 H116 0.856 . S
O142 C188 1.300 . S
O143 C188 1.209 . S
O144 C189 1.199 . S
O145 H117 0.854 . S
O145 C189 1.297 . S
C146 C147 1.404 . S
C146 C151 1.397 . S
C146 C152 1.492 . S
C147 C146 1.404 . S
C147 C148 1.396 . S
C147 C158 1.492 . S
C148 C147 1.396 . S
C148 C149 1.397 . S
C148 C164 1.509 . S
C149 C148 1.397 . S
C149 C150 1.412 . S
C149 C170 1.485 . S
C150 C149 1.412 . S
C150 C151 1.388 . S
C150 C176 1.490 . S
C151 C146 1.397 . S
C151 C150 1.388 . S
C151 C182 1.519 . S
C152 C146 1.492 . S
C152 C153 1.363 1_545 S
C152 C157 1.390 . S
C153 H118 0.930 . S
C153 C152 1.363 1_565 S
C153 C154 1.372 . S
C154 H119 0.930 . S
C154 C153 1.372 . S
C154 C155 1.383 1_565 S
C155 C154 1.383 1_545 S
C155 C156 1.395 . S
C156 H120 0.930 . S
C156 C155 1.395 . S
C156 C157 1.362 . S
C157 H121 0.930 . S
C157 C152 1.390 . S
C157 C156 1.362 . S
C158 C147 1.492 . S
C158 C159 1.377 1_545 S
C158 C163 1.397 . S
C159 H122 0.931 . S
C159 C158 1.377 1_565 S
C159 C160 1.375 . S
C160 H123 0.931 . S
C160 C159 1.375 . S
C160 C161 1.375 1_565 S
C161 C160 1.375 1_545 S
C161 C162 1.378 . S
C161 C188 1.486 . S
C162 H124 0.930 . S
C162 C161 1.378 . S
C162 C163 1.376 . S
C163 H125 0.929 . S
C163 C158 1.397 . S
C163 C162 1.376 . S
C164 C148 1.509 . S
C164 C165 1.391 . S
C164 C169 1.386 . S
C165 H126 0.930 1_545 S
C165 C164 1.391 . S
C165 C166 1.375 . S
C166 H127 0.931 1_545 S
C166 C165 1.375 . S
C166 C167 1.375 . S
C167 C166 1.375 . S
C167 C168 1.361 . S
C168 H128 0.930 . S
C168 C167 1.361 . S
C168 C169 1.399 . S
C169 H129 0.929 . S
C169 C164 1.386 . S
C169 C168 1.399 . S
C170 C149 1.485 . S
C170 C171 1.398 . S
C170 C175 1.360 . S
C171 H130 0.924 1_545 S
C171 C170 1.398 . S
C171 C172 1.376 . S
C172 H131 0.930 1_545 S
C172 C171 1.376 . S
C172 C173 1.397 . S
C173 C172 1.397 . S
C173 C174 1.390 . S
C173 C189 1.476 . S
C174 H132 0.930 . S
C174 C173 1.390 . S
C174 C175 1.366 . S
C175 H133 0.932 . S
C175 C170 1.360 . S
C175 C174 1.366 . S
C176 C150 1.490 . S
C176 C177 1.380 1_545 S
C176 C181 1.386 . S
C177 H134 0.930 . S
C177 C176 1.380 1_565 S
C177 C178 1.381 . S
C178 H135 0.929 . S
C178 C177 1.381 . S
C178 C179 1.371 1_565 S
C179 C178 1.371 1_545 S
C179 C180 1.380 . S
C180 H136 0.931 . S
C180 C179 1.380 . S
C180 C181 1.387 . S
C181 H137 0.930 . S
C181 C176 1.386 . S
C181 C180 1.387 . S
C182 C151 1.519 . S
C182 C183 1.377 1_545 S
C182 C187 1.361 . S
C183 H138 0.929 . S
C183 C182 1.377 1_565 S
C183 C184 1.386 1_565 S
C184 H139 0.931 1_545 S
C184 C183 1.386 1_545 S
C184 C185 1.363 . S
C185 C184 1.363 . S
C185 C186 1.385 . S
C186 H140 0.930 . S
C186 C185 1.385 . S
C186 C187 1.396 . S
C187 H141 0.929 . S
C187 C182 1.361 . S
C187 C186 1.396 . S
C188 O142 1.300 . S
C188 O143 1.209 . S
C188 C161 1.486 . S
C189 O144 1.199 . S
C189 O145 1.297 . S
C189 C173 1.476 . S
H190 O216 0.856 . S
H191 O219 0.854 . S
H192 C227 0.930 . S
H193 C228 0.930 . S
H194 C230 0.930 . S
H195 C231 0.930 . S
H196 C233 0.931 . S
H197 C234 0.930 . S
H198 C236 0.930 . S
H199 C237 0.929 . S
H200 C239 0.930 . S
H201 C240 0.931 . S
H202 C242 0.930 . S
H203 C243 0.929 . S
H204 C245 0.931 . S
H205 C246 0.930 . S
H206 C248 0.930 . S
H207 C249 0.932 . S
H208 C251 0.930 . S
H209 C252 0.929 . S
H210 C254 0.931 . S
H211 C255 0.930 . S
H212 C257 0.929 . S
H213 C258 0.931 . S
H214 C260 0.930 . S
H215 C261 0.929 . S
O216 H190 0.856 . S
O216 C262 1.300 . S
O217 C262 1.209 . S
O218 C263 1.199 . S
O219 H191 0.854 . S
O219 C263 1.297 . S
C220 C221 1.404 . S
C220 C225 1.397 . S
C220 C226 1.492 . S
C221 C220 1.404 . S
C221 C222 1.396 . S
C221 C232 1.492 . S
C222 C221 1.396 . S
C222 C223 1.397 . S
C222 C238 1.509 . S
C223 C222 1.397 . S
C223 C224 1.412 . S
C223 C244 1.485 . S
C224 C223 1.412 . S
C224 C225 1.388 . S
C224 C250 1.490 . S
C225 C220 1.397 . S
C225 C224 1.388 . S
C225 C256 1.519 . S
C226 C220 1.492 . S
C226 C227 1.363 . S
C226 C231 1.390 . S
C227 H192 0.930 . S
C227 C226 1.363 . S
C227 C228 1.372 . S
C228 H193 0.930 . S
C228 C227 1.372 . S
C228 C229 1.383 . S
C229 C228 1.383 . S
C229 C230 1.395 . S
C230 H194 0.930 . S
C230 C229 1.395 . S
C230 C231 1.362 . S
C231 H195 0.930 . S
C231 C226 1.390 . S
C231 C230 1.362 . S
C232 C221 1.492 . S
C232 C233 1.377 . S
C232 C237 1.397 . S
C233 H196 0.931 . S
C233 C232 1.377 . S
C233 C234 1.376 1_556 S
C234 H197 0.930 . S
C234 C233 1.376 1_554 S
C234 C235 1.376 . S
C235 C234 1.376 . S
C235 C236 1.378 . S
C235 C262 1.486 . S
C236 H198 0.930 . S
C236 C235 1.378 . S
C236 C237 1.376 1_554 S
C237 H199 0.929 . S
C237 C232 1.397 . S
C237 C236 1.376 1_556 S
C238 C222 1.509 . S
C238 C239 1.391 . S
C238 C243 1.386 . S
C239 H200 0.930 . S
C239 C238 1.391 . S
C239 C240 1.375 . S
C240 H201 0.931 . S
C240 C239 1.375 . S
C240 C241 1.375 . S
C241 C240 1.375 . S
C241 C242 1.361 . S
C242 H202 0.930 . S
C242 C241 1.361 . S
C242 C243 1.399 . S
C243 H203 0.929 . S
C243 C238 1.386 . S
C243 C242 1.399 . S
C244 C223 1.485 . S
C244 C245 1.394 . S
C244 C249 1.360 . S
C245 H204 0.931 . S
C245 C244 1.394 . S
C245 C246 1.372 . S
C246 H205 0.930 . S
C246 C245 1.372 . S
C246 C247 1.397 . S
C247 C246 1.397 . S
C247 C248 1.390 . S
C247 C263 1.476 . S
C248 H206 0.930 . S
C248 C247 1.390 . S
C248 C249 1.366 . S
C249 H207 0.932 . S
C249 C244 1.360 . S
C249 C248 1.366 . S
C250 C224 1.490 . S
C250 C251 1.380 . S
C250 C255 1.386 . S
C251 H208 0.930 . S
C251 C250 1.380 . S
C251 C252 1.381 . S
C252 H209 0.929 . S
C252 C251 1.381 . S
C252 C253 1.371 . S
C253 C252 1.371 . S
C253 C254 1.380 . S
C254 H210 0.931 . S
C254 C253 1.380 . S
C254 C255 1.387 . S
C255 H211 0.930 . S
C255 C250 1.386 . S
C255 C254 1.387 . S
C256 C225 1.519 . S
C256 C257 1.377 . S
C256 C261 1.361 . S
C257 H212 0.929 . S
C257 C256 1.377 . S
C257 C258 1.386 . S
C258 H213 0.931 . S
C258 C257 1.386 . S
C258 C259 1.363 . S
C259 C258 1.363 . S
C259 C260 1.385 . S
C260 H214 0.930 . S
C260 C259 1.385 . S
C260 C261 1.396 . S
C261 H215 0.929 . S
C261 C256 1.361 . S
C261 C260 1.396 . S
C262 O216 1.300 . S
C262 O217 1.209 . S
C262 C235 1.486 . S
C263 O218 1.199 . S
C263 O219 1.297 . S
C263 C247 1.476 . S
C264 C265 1.369 . S
C264 C266 1.419 . S
C264 H268 0.930 . S
C265 C264 1.369 . S
C265 C274 1.429 . S
C266 C264 1.419 . S
C266 C267 1.363 . S
C266 H269 0.929 . S
C267 C266 1.363 . S
C267 C273 1.428 . S
H268 C264 0.930 . S
H269 C266 0.929 . S
S270 N271 1.613 . S
S270 N272 1.610 . S
N271 S270 1.613 . S
N271 C274 1.350 . S
N272 S270 1.610 . S
N272 C273 1.351 . S
C273 C267 1.428 . S
C273 N272 1.351 . S
C273 C274 1.434 . S
C274 C265 1.429 . S
C274 N271 1.350 . S
C274 C273 1.434 . S
C275 C276 1.369 1_545 S
C275 C277 1.419 . S
C275 H279 0.930 . S
C276 C275 1.369 1_565 S
C276 C285 1.429 . S
C277 C275 1.419 . S
C277 C278 1.363 . S
C277 H280 0.929 . S
C278 C277 1.363 . S
C278 C284 1.428 1_545 S
H279 C275 0.930 . S
H280 C277 0.929 . S
S281 N282 1.613 . S
S281 N283 1.610 . S
N282 S281 1.613 . S
N282 C285 1.350 . S
N283 S281 1.610 . S
N283 C284 1.351 . S
C284 C278 1.428 1_565 S
C284 N283 1.351 . S
C284 C285 1.434 . S
C285 C276 1.429 . S
C285 N282 1.350 . S
C285 C284 1.434 . S
C286 C287 1.369 1_455 S
C286 C288 1.419 1_455 S
C286 H290 0.930 . S
C287 C286 1.369 1_655 S
C287 C296 1.429 . S
C288 C286 1.419 1_655 S
C288 C289 1.363 . S
C288 H291 0.929 . S
C289 C288 1.363 . S
C289 C295 1.428 . S
H290 C286 0.930 . S
H291 C288 0.929 . S
S292 N293 1.613 . S
S292 N294 1.610 . S
N293 S292 1.613 . S
N293 C296 1.350 . S
N294 S292 1.610 . S
N294 C295 1.351 . S
C295 C289 1.428 . S
C295 N294 1.351 . S
C295 C296 1.434 . S
C296 C287 1.429 . S
C296 N293 1.350 . S
C296 C295 1.434 . S
C297 C298 1.369 . S
C297 C299 1.419 . S
C297 H301 0.930 . S
C298 C297 1.369 . S
C298 C307 1.429 . S
C299 C297 1.419 . S
C299 C300 1.363 . S
C299 H302 0.929 . S
C300 C299 1.363 . S
C300 C306 1.428 . S
H301 C297 0.930 . S
H302 C299 0.929 . S
S303 N304 1.613 . S
S303 N305 1.610 1_545 S
N304 S303 1.613 . S
N304 C307 1.350 1_545 S
N305 S303 1.610 1_565 S
N305 C306 1.351 . S
C306 C300 1.428 . S
C306 N305 1.351 . S
C306 C307 1.434 . S
C307 C298 1.429 . S
C307 N304 1.350 1_565 S
C307 C306 1.434 . S
C308 C309 1.369 . S
C308 C310 1.419 . S
C308 H312 0.930 . S
C309 C308 1.369 . S
C309 C318 1.429 . S
C310 C308 1.419 . S
C310 C311 1.363 . S
C310 H313 0.929 . S
C311 C310 1.363 . S
C311 C317 1.428 . S
H312 C308 0.930 . S
H313 C310 0.929 . S
S314 N315 1.613 . S
S314 N316 1.610 1_565 S
N315 S314 1.613 . S
N315 C318 1.350 1_565 S
N316 S314 1.610 1_545 S
N316 C317 1.351 . S
C317 C311 1.428 . S
C317 N316 1.351 . S
C317 C318 1.434 . S
C318 C309 1.429 . S
C318 N315 1.350 1_545 S
C318 C317 1.434 . S
C319 C320 1.369 . S
C319 C321 1.419 . S
C319 H323 0.930 . S
C320 C319 1.369 . S
C320 C329 1.429 . S
C321 C319 1.419 . S
C321 C322 1.363 . S
C321 H324 0.929 . S
C322 C321 1.363 . S
C322 C328 1.428 . S
H323 C319 0.930 . S
H324 C321 0.929 . S
S325 N326 1.613 . S
S325 N327 1.610 . S
N326 S325 1.613 . S
N326 C329 1.350 . S
N327 S325 1.610 . S
N327 C328 1.351 . S
C328 C322 1.428 . S
C328 N327 1.351 . S
C328 C329 1.434 . S
C329 C320 1.429 . S
C329 N326 1.350 . S
C329 C328 1.434 . S
C330 C331 1.369 . S
C330 C332 1.419 . S
C330 H334 0.930 1_655 S
C331 C330 1.369 . S
C331 C340 1.429 . S
C332 C330 1.419 . S
C332 C333 1.363 . S
C332 H335 0.929 . S
C333 C332 1.363 . S
C333 C339 1.428 . S
H334 C330 0.930 1_455 S
H335 C332 0.929 . S
S336 N337 1.613 . S
S336 N338 1.610 . S
N337 S336 1.613 . S
N337 C340 1.350 1_565 S
N338 S336 1.610 . S
N338 C339 1.351 1_565 S
C339 C333 1.428 . S
C339 N338 1.351 1_545 S
C339 C340 1.434 . S
C340 C331 1.429 . S
C340 N337 1.350 1_545 S
C340 C339 1.434 . S
C341 C342 1.369 1_455 S
C341 C343 1.419 1_454 S
C341 H345 0.930 . S
C342 C341 1.369 1_655 S
C342 C351 1.429 . S
C343 C341 1.419 1_656 S
C343 C344 1.363 . S
C343 H346 0.929 1_655 S
C344 C343 1.363 . S
C344 C350 1.428 . S
H345 C341 0.930 . S
H346 C343 0.929 1_455 S
S347 N348 1.613 1_556 S
S347 N349 1.610 . S
N348 S347 1.613 1_554 S
N348 C351 1.350 . S
N349 S347 1.610 . S
N349 C350 1.351 . S
C350 C344 1.428 . S
C350 N349 1.351 . S
C350 C351 1.434 1_556 S
C351 C342 1.429 . S
C351 N348 1.350 . S
C351 C350 1.434 1_554 S
C352 C353 1.369 1_655 S
C352 C354 1.419 . S
C352 H356 0.930 . S
C353 C352 1.369 1_455 S
C353 C362 1.429 . S
C354 C352 1.419 . S
C354 C355 1.363 1_655 S
C354 H357 0.929 . S
C355 C354 1.363 1_455 S
C355 C361 1.428 . S
H356 C352 0.930 . S
H357 C354 0.929 . S
S358 N359 1.613 . S
S358 N360 1.610 . S
N359 S358 1.613 . S
N359 C362 1.350 . S
N360 S358 1.610 . S
N360 C361 1.351 . S
C361 C355 1.428 . S
C361 N360 1.351 . S
C361 C362 1.434 . S
C362 C353 1.429 . S
C362 N359 1.350 . S
C362 C361 1.434 . S
C363 C364 1.369 . S
C363 C365 1.419 . S
C363 H367 0.930 . S
C364 C363 1.369 . S
C364 C373 1.429 1_545 S
C365 C363 1.419 . S
C365 C366 1.363 . S
C365 H368 0.929 . S
C366 C365 1.363 . S
C366 C372 1.428 1_545 S
H367 C363 0.930 . S
H368 C365 0.929 . S
S369 N370 1.613 . S
S369 N371 1.610 . S
N370 S369 1.613 . S
N370 C373 1.350 . S
N371 S369 1.610 . S
N371 C372 1.351 . S
C372 C366 1.428 1_565 S
C372 N371 1.351 . S
C372 C373 1.434 . S
C373 C364 1.429 1_565 S
C373 N370 1.350 . S
C373 C372 1.434 . S
C374 C375 1.369 . S
C374 C376 1.419 . S
C374 H378 0.930 . S
C375 C374 1.369 . S
C375 C384 1.429 . S
C376 C374 1.419 . S
C376 C377 1.358 1_554 S
C376 H379 0.929 . S
C377 C376 1.358 1_556 S
C377 C383 1.430 . S
H378 C374 0.930 . S
H379 C376 0.929 . S
S380 N381 1.613 . S
S380 N382 1.610 . S
N381 S380 1.613 . S
N381 C384 1.350 1_556 S
N382 S380 1.610 . S
N382 C383 1.351 . S
C383 C377 1.430 . S
C383 N382 1.351 . S
C383 C384 1.434 1_556 S
C384 C375 1.429 . S
C384 N381 1.350 1_554 S
C384 C383 1.434 1_554 S
C385 C386 1.369 . S
C385 C387 1.419 . S
C385 H389 0.930 1_455 S
C386 C385 1.369 . S
C386 C395 1.429 . S
C387 C385 1.419 . S
C387 C388 1.363 . S
C387 H390 0.929 1_455 S
C388 C387 1.363 . S
C388 C394 1.428 . S
H389 C385 0.930 1_655 S
H390 C387 0.929 1_655 S
S391 N392 1.613 . S
S391 N393 1.610 . S
N392 S391 1.613 . S
N392 C395 1.350 . S
N393 S391 1.610 . S
N393 C394 1.351 . S
C394 C388 1.428 . S
C394 N393 1.351 . S
C394 C395 1.434 . S
C395 C386 1.429 . S
C395 N392 1.350 . S
C395 C394 1.434 . S
C267 C81 1.357 . S
C265 C11 1.401 . S
C276 C25 1.431 . S
C278 C155 1.404 . S
C287 C41 1.933 1_655 S
C289 C259 2.013 . S
C298 C7 0.860 . S
C300 C93 0.861 . S
C311 C167 0.904 . S
C309 C21 0.910 . S
C320 C36 1.687 . S
C322 C253 1.520 . S
C333 C185 1.988 . S
C331 C39 1.971 1_655 S
C342 C8 1.415 1_655 S
C344 C229 1.433 . S
C355 C105 1.590 . S
C353 C22 1.760 . S
C366 C179 1.502 . S
C364 C35 1.638 . S
C377 C241 0.955 . S
C375 C13 0.898 . S
C386 C27 1.974 . S
C388 C111 2.061 . S
