# Generated by pormake.
# Topology ftw, (4,12)-cn, num edge types: 1
# Building blocks:
#     Node 0, Type 0, BuildingBlock: AZAVOO_clean_linker_0, # of connection points: 4
#     Node 1, Type 0, BuildingBlock: AZAVOO_clean_linker_0, # of connection points: 4
#     Node 2, Type 0, BuildingBlock: AZAVOO_clean_linker_0, # of connection points: 4
#     Node 3, Type 1, BuildingBlock: EZIPEK_clean_sbu_0, # of connection points: 12
#     Edge 4, Type (0, 1), BuildingBlock: ZUJKAS_clean_linker_0, # of connection points: 2
#     Edge 5, Type (0, 1), BuildingBlock: ZUJKAS_clean_linker_0, # of connection points: 2
#     Edge 6, Type (0, 1), BuildingBlock: ZUJKAS_clean_linker_0, # of connection points: 2
#     Edge 7, Type (0, 1), BuildingBlock: ZUJKAS_clean_linker_0, # of connection points: 2
#     Edge 8, Type (0, 1), BuildingBlock: ZUJKAS_clean_linker_0, # of connection points: 2
#     Edge 9, Type (0, 1), BuildingBlock: ZUJKAS_clean_linker_0, # of connection points: 2
#     Edge 10, Type (0, 1), BuildingBlock: ZUJKAS_clean_linker_0, # of connection points: 2
#     Edge 11, Type (0, 1), BuildingBlock: ZUJKAS_clean_linker_0, # of connection points: 2
#     Edge 12, Type (0, 1), BuildingBlock: ZUJKAS_clean_linker_0, # of connection points: 2
#     Edge 13, Type (0, 1), BuildingBlock: ZUJKAS_clean_linker_0, # of connection points: 2
#     Edge 14, Type (0, 1), BuildingBlock: ZUJKAS_clean_linker_0, # of connection points: 2
#     Edge 15, Type (0, 1), BuildingBlock: ZUJKAS_clean_linker_0, # of connection points: 2
# Relax obj value: 0.048
# Max RMSD: 0.221
# Mean RMSD: 0.169
data_MOF--net-ftw--node1-EZIPEK_clean_sbu_0--node2-AZAVOO_clean_linker_0--edge1-ZUJKAS_clean_linker_0
_symmetry_space_group_name_H-M    P1
_symmetry_Int_Tables_number       1
_symmetry_cell_setting            triclinic
loop_
_symmetry_equiv_pos_as_xyz
'x, y, z'
_cell_length_a     34.513934
_cell_length_b     34.47063
_cell_length_c     34.50502
_cell_angle_alpha  91.410973
_cell_angle_beta   88.668896
_cell_angle_gamma 91.35417
loop_
_atom_site_label
_atom_site_type_symbol
_atom_site_fract_x
_atom_site_fract_y
_atom_site_fract_z
_atom_type_partial_charge
H0 H 0.04177 0.24731 0.43914 0.0
H1 H 0.9402 0.57239 0.74477 0.0
H2 H 0.06051 0.45618 0.42344 0.0
H3 H 0.05994 0.41457 0.36522 0.0
H4 H 0.93845 0.43736 0.35158 0.0
H5 H 0.93924 0.47849 0.4105 0.0
H6 H 0.0576 0.40726 0.49848 0.0
H7 H 0.06192 0.33904 0.4777 0.0
H8 H 0.9441 0.34115 0.43786 0.0
H9 H 0.93998 0.4091 0.45943 0.0
H10 H 0.05229 0.45155 0.57958 0.0
H11 H 0.05301 0.40183 0.62903 0.0
H12 H 0.93695 0.36471 0.5983 0.0
H13 H 0.93623 0.41517 0.54957 0.0
H14 H 0.04876 0.53859 0.58546 0.0
H15 H 0.04287 0.5643 0.65203 0.0
H16 H 0.92258 0.52623 0.65648 0.0
H17 H 0.92882 0.50103 0.58969 0.0
H18 H 0.04958 0.58833 0.51848 0.0
H19 H 0.04811 0.64588 0.56143 0.0
H20 H 0.92458 0.62867 0.57884 0.0
H21 H 0.92649 0.57095 0.53633 0.0
H22 H 0.05298 0.54086 0.42146 0.0
H23 H 0.05353 0.5892 0.37089 0.0
H24 H 0.93764 0.62197 0.40678 0.0
H25 H 0.93658 0.5718 0.45553 0.0
O26 O 0.03926 0.27413 0.44766 0.0
O27 O 0.97887 0.27701 0.42695 0.0
O28 O 0.00559 0.58051 0.715 0.0
O29 O 0.9436 0.56156 0.7188 0.0
C30 C 0.99727 0.48328 0.4623 0.0
C31 C 0.99662 0.45496 0.49136 0.0
C32 C 0.99423 0.46641 0.53078 0.0
C33 C 0.99188 0.50598 0.54124 0.0
C34 C 0.99143 0.53426 0.51221 0.0
C35 C 0.99442 0.52306 0.47262 0.0
C36 C -0.00013 0.47005 0.42121 0.0
C37 C 0.03421 0.45345 0.40695 0.0
C38 C 0.03377 0.42961 0.37371 0.0
C39 C 0.99895 0.42215 0.35424 0.0
C40 C 0.96552 0.44208 0.36643 0.0
C41 C 0.96602 0.46598 0.39972 0.0
C42 C 0.99853 0.41307 0.48035 0.0
C43 C 0.03267 0.39279 0.48558 0.0
C44 C 0.03509 0.3539 0.47354 0.0
C45 C 0.00339 0.33467 0.45599 0.0
C46 C 0.96907 0.35508 0.45121 0.0
C47 C 0.96663 0.39388 0.46346 0.0
C48 C 0.99422 0.43684 0.56115 0.0
C49 C 0.02698 0.43279 0.58379 0.0
C50 C 0.02743 0.40424 0.61173 0.0
C51 C 0.99507 0.3793 0.61744 0.0
C52 C 0.96214 0.38375 0.59485 0.0
C53 C 0.96174 0.41232 0.56691 0.0
C54 C 0.98919 0.51809 0.58283 0.0
C55 C 0.02126 0.53561 0.601 0.0
C56 C 0.01779 0.55031 0.63898 0.0
C57 C 0.98218 0.54747 0.65953 0.0
C58 C 0.95037 0.52897 0.64147 0.0
C59 C 0.95388 0.51438 0.60343 0.0
C60 C 0.9882 0.57547 0.5246 0.0
C61 C 0.02196 0.59813 0.53009 0.0
C62 C 0.02107 0.63084 0.55481 0.0
C63 C 0.98635 0.64114 0.57415 0.0
C64 C 0.95185 0.62089 0.56491 0.0
C65 C 0.95277 0.58828 0.54024 0.0
C66 C 0.99476 0.55279 0.44221 0.0
C67 C 0.0276 0.55827 0.4181 0.0
C68 C 0.02799 0.58626 0.38949 0.0
C69 C 0.99568 0.60974 0.38473 0.0
C70 C 0.96284 0.60414 0.40912 0.0
C71 C 0.96232 0.57577 0.43736 0.0
C72 C 0.00627 0.29355 0.44263 0.0
C73 C 0.97801 0.56414 0.69945 0.0
H74 H 0.59038 0.96019 0.2596 0.0
H75 H 0.26364 0.07076 0.57838 0.0
H76 H 0.57528 0.938 0.46882 0.0
H77 H 0.63152 0.93041 0.42514 0.0
H78 H 0.65445 0.0541 0.43292 0.0
H79 H 0.59842 0.06124 0.47705 0.0
H80 H 0.51229 0.94569 0.41111 0.0
H81 H 0.53996 0.9407 0.34519 0.0
H82 H 0.5709 0.06299 0.35062 0.0
H83 H 0.54311 0.06749 0.41643 0.0
H84 H 0.42194 0.95531 0.45301 0.0
H85 H 0.37146 0.95617 0.40438 0.0
H86 H 0.40942 0.0718 0.37292 0.0
H87 H 0.45983 0.07065 0.4218 0.0
H88 H 0.41414 0.9577 0.53702 0.0
H89 H 0.34784 0.96508 0.56232 0.0
H90 H 0.35406 0.08698 0.53542 0.0
H91 H 0.42056 0.07922 0.5106 0.0
H92 H 0.47907 0.95236 0.58709 0.0
H93 H 0.43507 0.95293 0.64356 0.0
H94 H 0.43061 0.07798 0.63918 0.0
H95 H 0.47377 0.07684 0.58203 0.0
H96 H 0.57001 0.94494 0.5504 0.0
H97 H 0.62002 0.94205 0.59946 0.0
H98 H 0.609 0.06508 0.6231 0.0
H99 H 0.55947 0.0677 0.57352 0.0
O100 O 0.57792 0.96315 0.28491 0.0
O101 O 0.59144 0.02651 0.28841 0.0
O102 O 0.28796 0.00408 0.58124 0.0
O103 O 0.28948 0.06683 0.56767 0.0
C104 C 0.54215 0.00608 0.48872 0.0
C105 C 0.51376 0.00876 0.45999 0.0
C106 C 0.47443 0.01234 0.47086 0.0
C107 C 0.46354 0.01416 0.51044 0.0
C108 C 0.49207 0.01266 0.5392 0.0
C109 C 0.53143 0.00834 0.5284 0.0
C110 C 0.58284 0.00016 0.47595 0.0
C111 C 0.59361 0.96314 0.46259 0.0
C112 C 0.62534 0.95897 0.43719 0.0
C113 C 0.64678 0.99178 0.42493 0.0
C114 C 0.63851 0.02828 0.44188 0.0
C115 C 0.60668 0.03242 0.46731 0.0
C116 C 0.52567 0.00694 0.41838 0.0
C117 C 0.52445 0.97146 0.39769 0.0
C118 C 0.54051 0.96867 0.36017 0.0
C119 C 0.55788 0.0014 0.34272 0.0
C120 C 0.55785 0.03721 0.36321 0.0
C121 C 0.54183 0.03992 0.4007 0.0
C122 C 0.44443 0.01292 0.44087 0.0
C123 C 0.41924 0.98083 0.43565 0.0
C124 C 0.39038 0.98145 0.40802 0.0
C125 C 0.38643 0.01412 0.38494 0.0
C126 C 0.41201 0.04611 0.39004 0.0
C127 C 0.44072 0.04555 0.41791 0.0
C128 C 0.42209 0.01796 0.52215 0.0
C129 C 0.401 0.9859 0.5364 0.0
C130 C 0.36318 0.99022 0.55088 0.0
C131 C 0.34571 0.02669 0.55108 0.0
C132 C 0.36667 0.05854 0.5358 0.0
C133 C 0.40456 0.05417 0.52142 0.0
C134 C 0.47933 0.01452 0.58044 0.0
C135 C 0.47 0.97997 0.59946 0.0
C136 C 0.44463 0.98039 0.63162 0.0
C137 C 0.42855 0.01545 0.64523 0.0
C138 C 0.44172 0.05042 0.62875 0.0
C139 C 0.4669 0.04994 0.59653 0.0
C140 C 0.56127 0.00653 0.55842 0.0
C141 C 0.57851 0.97122 0.56617 0.0
C142 C 0.60685 0.96961 0.59435 0.0
C143 C 0.61851 0.00335 0.61517 0.0
C144 C 0.60102 0.03868 0.60726 0.0
C145 C 0.57259 0.04021 0.57917 0.0
C146 C 0.57667 0.99796 0.30368 0.0
C147 C 0.30597 0.03168 0.56754 0.0
H148 H 0.44411 0.24392 0.96629 0.0
H149 H 0.74199 0.58281 0.05688 0.0
H150 H 0.43024 0.45213 0.938 0.0
H151 H 0.37211 0.41053 0.93764 0.0
H152 H 0.34938 0.44134 0.05811 0.0
H153 H 0.40842 0.48223 0.05833 0.0
H154 H 0.50324 0.40253 0.94414 0.0
H155 H 0.48298 0.33396 0.94249 0.0
H156 H 0.43829 0.34594 0.06022 0.0
H157 H 0.4593 0.41425 0.06166 0.0
H158 H 0.58091 0.44428 0.94679 0.0
H159 H 0.63004 0.39413 0.94761 0.0
H160 H 0.60109 0.37356 0.06803 0.0
H161 H 0.55219 0.42401 0.06693 0.0
H162 H 0.59034 0.532 0.94869 0.0
H163 H 0.65629 0.55912 0.95358 0.0
H164 H 0.65356 0.53704 0.07647 0.0
H165 H 0.58751 0.51018 0.07113 0.0
H166 H 0.52558 0.58453 0.94776 0.0
H167 H 0.56864 0.64194 0.94963 0.0
H168 H 0.57443 0.634 0.07412 0.0
H169 H 0.53176 0.5764 0.07184 0.0
H170 H 0.43079 0.54233 0.9429 0.0
H171 H 0.38075 0.59154 0.94158 0.0
H172 H 0.40065 0.62013 0.06229 0.0
H173 H 0.45001 0.57034 0.06345 0.0
O174 O 0.45237 0.27095 0.96773 0.0
O175 O 0.42926 0.27886 0.02804 0.0
O176 O 0.71671 0.58091 0.99044 0.0
O177 O 0.71644 0.57103 0.05389 0.0
C178 C 0.46439 0.4834 0.00167 0.0
C179 C 0.4935 0.45526 0.00337 0.0
C180 C 0.53273 0.46701 0.00576 0.0
C181 C 0.54292 0.50672 0.0072 0.0
C182 C 0.51377 0.53489 0.00694 0.0
C183 C 0.47444 0.52333 0.00393 0.0
C184 C 0.42356 0.46992 0.99823 0.0
C185 C 0.41184 0.45108 0.96385 0.0
C186 C 0.37862 0.42725 0.96376 0.0
C187 C 0.35652 0.42209 0.99808 0.0
C188 C 0.36628 0.44418 0.03145 0.0
C189 C 0.39961 0.46798 0.03151 0.0
C190 C 0.4827 0.41326 0.00299 0.0
C191 C 0.4894 0.39015 0.96963 0.0
C192 C 0.47765 0.35106 0.96874 0.0
C193 C 0.45891 0.33449 0.0012 0.0
C194 C 0.4526 0.35777 0.03472 0.0
C195 C 0.46455 0.39678 0.03562 0.0
C196 C 0.56317 0.4376 0.00679 0.0
C197 C 0.5854 0.42902 0.97333 0.0
C198 C 0.61318 0.40028 0.97381 0.0
C199 C 0.61926 0.3799 0.00786 0.0
C200 C 0.59723 0.38904 0.0415 0.0
C201 C 0.56927 0.41763 0.04091 0.0
C202 C 0.58429 0.5192 0.00956 0.0
C203 C 0.60425 0.53268 0.97653 0.0
C204 C 0.64183 0.54825 0.97945 0.0
C205 C 0.66014 0.55042 0.01548 0.0
C206 C 0.6403 0.53588 0.04832 0.0
C207 C 0.60269 0.52034 0.04535 0.0
C208 C 0.52577 0.57634 0.00963 0.0
C209 C 0.53461 0.59637 0.97558 0.0
C210 C 0.55942 0.629 0.97671 0.0
C211 C 0.57555 0.64184 0.01196 0.0
C212 C 0.56299 0.62424 0.04649 0.0
C213 C 0.53819 0.59173 0.04533 0.0
C214 C 0.44401 0.55288 0.00324 0.0
C215 C 0.42418 0.55918 0.96904 0.0
C216 C 0.39583 0.58744 0.9683 0.0
C217 C 0.38677 0.60979 0.00183 0.0
C218 C 0.40662 0.60313 0.03611 0.0
C219 C 0.43501 0.57493 0.03677 0.0
C220 C 0.44592 0.29313 -4e-05 0.0
C221 C 0.69949 0.5683 0.019 0.0
C222 C 0.00297 0.08661 0.90607 0.0
C223 C 0.00168 0.09171 0.09317 0.0
C224 C 0.00651 0.89929 0.90547 0.0
C225 C 0.00037 0.90307 0.09388 0.0
C226 C 0.09653 0.9032 -7e-05 0.0
C227 C 0.09527 0.09183 0.99823 0.0
C228 C 0.90823 0.8989 0.99778 0.0
C229 C 0.90816 0.08632 0.00179 0.0
C230 C 0.90703 0.99537 0.09459 0.0
C231 C 0.09446 -7e-05 0.09422 0.0
C232 C 0.91074 0.99124 0.90607 0.0
C233 C 0.09935 0.99571 0.9068 0.0
Eu234 Eu 0.00193 0.06771 -0.00026 0.0
O235 O 0.03602 0.03122 0.03462 0.0
O236 O 0.96849 0.02739 0.96528 0.0
Eu237 Eu 0.07577 0.99697 0.00037 0.0
Eu238 Eu 0.92918 0.99301 0.00026 0.0
O239 O 0.03785 0.02945 0.96549 0.0
O240 O 0.96714 0.02914 0.03472 0.0
Eu241 Eu 0.00448 0.99334 0.92658 0.0
Eu242 Eu 0.00105 0.99676 0.07355 0.0
O243 O 0.03768 0.96061 0.96583 0.0
O244 O 0.03604 0.962 0.03442 0.0
O245 O 0.9674 0.96022 0.03466 0.0
O246 O 0.96903 0.95887 0.9655 0.0
Eu247 Eu 0.00239 0.92121 -0.00019 0.0
O248 O 0.00153 0.09907 0.94297 0.0
O249 O 0.00203 0.1018 0.05613 0.0
O250 O 0.004 0.8876 0.94213 0.0
O251 O 0.00224 0.89035 0.05703 0.0
O252 O 0.10824 0.94044 0.00039 0.0
O253 O 0.10789 0.0555 -0.00044 0.0
O254 O 0.89693 0.93558 0.99753 0.0
O255 O 0.89641 0.04916 0.00152 0.0
O256 O 0.94368 0.99792 0.1059 0.0
O257 O 0.05738 0.99828 0.1061 0.0
O258 O 0.94789 0.99089 0.8942 0.0
O259 O 0.06289 0.99492 0.8944 0.0
O260 O 0.94485 0.88735 -0.00041 0.0
O261 O 0.05968 0.89044 -0.00045 0.0
O262 O 0.94501 0.09894 0.00121 0.0
O263 O 0.05824 0.10186 0.99796 0.0
O264 O 0.00115 0.05529 0.10575 0.0
O265 O 0.99896 0.94018 0.10586 0.0
O266 O 0.00461 0.04956 0.89411 0.0
O267 O 0.00721 0.936 0.8942 0.0
O268 O 0.10964 0.99623 0.94381 0.0
O269 O 0.10698 6e-05 0.05734 0.0
O270 O 0.89822 0.99229 0.94301 0.0
O271 O 0.89549 0.99222 0.05788 0.0
H272 H 0.05081 0.40474 0.2953 0.0
H273 H 0.0497 0.34732 0.25193 0.0
H274 H 0.94145 0.30904 0.30478 0.0
H275 H 0.94249 0.36593 0.34837 0.0
H276 H 0.0473 0.26828 0.27565 0.0
H277 H 0.9209 0.30387 0.18721 0.0
H278 H 0.94655 0.33988 0.21632 0.0
H279 H 0.91261 0.30663 0.23881 0.0
C280 C 0.02662 0.38425 0.29739 0.0
C281 C 0.99652 0.39009 0.32492 0.0
C282 C 0.02604 0.35151 0.27268 0.0
C283 C 0.99532 0.32422 0.275 0.0
C284 C 0.96503 0.33017 0.30209 0.0
H285 H 0.99326 0.08835 0.17271 0.0
H286 H 0.99161 0.14326 0.21933 0.0
C287 C 0.96557 0.36283 0.32679 0.0
C288 C 0.99558 0.28881 0.24997 0.0
H289 H 0.94674 0.24134 0.17752 0.0
C290 C 0.02535 0.26229 0.25418 0.0
C291 C 0.9669 0.2813 0.22203 0.0
C292 C 0.93506 0.30951 0.21545 0.0
C293 C 0.02727 0.22834 0.23096 0.0
C294 C 0.99842 0.22071 0.20322 0.0
C295 C 0.96858 0.24718 0.19916 0.0
C296 C 0.00024 0.18707 0.1759 0.0
C297 C 0.06065 0.20146 0.23547 0.0
C298 C 0.00531 0.19366 0.13623 0.0
C299 C 0.00614 0.16263 0.10968 0.0
C300 C 0.00175 0.12415 0.12217 0.0
C301 C 0.99689 0.11754 0.1621 0.0
C302 C 0.99605 0.14884 0.18877 0.0
H303 H 0.08402 0.21498 0.25323 0.0
H304 H 0.05001 0.17473 0.24995 0.0
H305 H 0.07311 0.19279 0.20667 0.0
H306 H 0.00863 0.22297 0.12577 0.0
H307 H 0.01015 0.16905 0.07926 0.0
H308 H 0.71884 0.02605 0.41568 0.0
H309 H 0.76064 0.02474 0.35714 0.0
H310 H 0.67711 0.9501 0.29917 0.0
H311 H 0.63509 0.95166 0.35711 0.0
H312 H 0.79141 0.95688 0.31595 0.0
H313 H 0.69504 0.04291 0.22562 0.0
H314 H 0.69042 0.04237 0.27786 0.0
H315 H 0.67289 0.00178 0.24922 0.0
C316 C 0.70951 0.00931 0.39047 0.0
C317 C 0.67385 0.98877 0.39106 0.0
C318 C 0.73335 0.00855 0.35714 0.0
C319 C 0.72166 0.9877 0.3238 0.0
C320 C 0.6864 0.96671 0.32449 0.0
H321 H 0.83251 0.96536 0.09328 0.0
H322 H 0.78594 0.96184 0.14813 0.0
C323 C 0.66269 0.96725 0.35779 0.0
C324 C 0.74655 0.98768 0.28835 0.0
H325 H 0.7517 0.0185 0.19502 0.0
C326 C 0.78279 0.97033 0.28949 0.0
C327 C 0.73486 0.00483 0.25381 0.0
C328 C 0.69631 0.02431 0.25138 0.0
C329 C 0.80787 0.96975 0.25694 0.0
C330 C 0.79679 0.98801 0.22272 0.0
C331 C 0.76014 0.00465 0.22132 0.0
C332 C 0.82372 0.99169 0.18888 0.0
C333 C 0.84585 0.9492 0.25945 0.0
C334 C 0.85972 0.01073 0.19335 0.0
C335 C 0.88628 0.0125 0.1624 0.0
C336 C 0.87719 0.99581 0.12603 0.0
C337 C 0.84035 0.97839 0.12097 0.0
C338 C 0.8138 0.97629 0.15225 0.0
H339 H 0.8445 0.92686 0.28215 0.0
H340 H 0.85406 0.93498 0.23132 0.0
H341 H 0.86902 0.97065 0.26727 0.0
H342 H 0.86749 0.0239 0.22101 0.0
H343 H 0.91411 0.02684 0.1671 0.0
H344 H 0.93572 0.63187 0.33975 0.0
H345 H 0.9366 0.68226 0.29136 0.0
H346 H 0.05806 0.70509 0.31103 0.0
H347 H 0.05685 0.65663 0.36142 0.0
H348 H 0.02123 0.77077 0.30618 0.0
H349 H 0.97892 0.6746 0.18272 0.0
H350 H 0.94382 0.67319 0.22182 0.0
H351 H 0.99196 0.65596 0.22889 0.0
C352 C 0.96257 0.64786 0.3342 0.0
C353 C 0.99627 0.63995 0.35453 0.0
C354 C 0.96315 0.67629 0.30598 0.0
C355 C 0.99761 0.69688 0.29687 0.0
C356 C 0.0312 0.68932 0.31729 0.0
H357 H 0.03271 0.83168 0.08918 0.0
H358 H 0.03316 0.78281 0.13928 0.0
C359 C 0.03054 0.66126 0.34586 0.0
C360 C 0.99849 0.72696 0.26675 0.0
H361 H 0.97752 0.74263 0.17231 0.0
C362 C 0.01189 0.76457 0.27683 0.0
C363 C 0.9869 0.71873 0.22827 0.0
C364 C 0.97499 0.67834 0.21464 0.0
C365 C 0.01363 0.79426 0.24967 0.0
C366 C 0.00031 0.78649 0.21168 0.0
C367 C 0.98731 0.74876 0.20152 0.0
C368 C 0.00037 0.81672 0.1817 0.0
C369 C 0.03071 0.83329 0.26182 0.0
C370 C 0.98151 0.85199 0.18865 0.0
C371 C 0.98187 0.88029 0.16029 0.0
C372 C 0.00016 0.87339 0.12405 0.0
C373 C 0.01824 0.83776 0.11679 0.0
C374 C 0.01852 0.80981 0.14541 0.0
H375 H 0.05032 0.83082 0.28669 0.0
H376 H 0.04726 0.84694 0.23757 0.0
H377 H 0.00695 0.85278 0.27116 0.0
H378 H 0.9662 0.85755 0.21589 0.0
H379 H 0.9672 0.90726 0.16648 0.0
H380 H 0.39299 0.03864 0.31028 0.0
H381 H 0.34245 0.03809 0.26152 0.0
H382 H 0.26049 0.98951 0.34425 0.0
H383 H 0.31063 0.99052 0.39334 0.0
H384 H 0.29854 0.96969 0.23536 0.0
H385 H 0.20521 0.08469 0.30018 0.0
H386 H 0.25528 0.07972 0.31299 0.0
H387 H 0.21867 0.0473 0.33237 0.0
C388 C 0.36407 0.02832 0.31821 0.0
C389 C 0.35573 0.01466 0.35562 0.0
C390 C 0.33534 0.02784 0.29031 0.0
C391 C 0.29774 0.01413 0.29949 0.0
C392 C 0.28924 0.00066 0.33682 0.0
H393 H 0.08509 0.98555 0.17172 0.0
H394 H 0.13478 0.98826 0.22112 0.0
C395 C 0.31798 0.00093 0.36466 0.0
C396 C 0.26776 0.01251 0.26957 0.0
H397 H 0.18074 0.04939 0.24599 0.0
C398 C 0.27284 0.9872 0.23751 0.0
C399 C 0.23423 0.03522 0.27277 0.0
C400 C 0.22796 0.06353 0.30625 0.0
C401 C 0.24488 0.98353 0.2087 0.0
C402 C 0.21145 0.00653 0.21165 0.0
C403 C 0.20639 0.03182 0.2438 0.0
C404 C 0.18148 0.00493 0.18158 0.0
C405 C 0.25097 0.95435 0.17591 0.0
C406 C 0.19118 0.01394 0.14309 0.0
C407 C 0.16296 0.01216 0.11472 0.0
C408 C 0.1243 0.00186 0.12441 0.0
C409 C 0.11454 0.99358 0.1632 0.0
C410 C 0.14289 0.99511 0.1915 0.0
H411 H 0.27162 0.93171 0.18371 0.0
H412 H 0.22319 0.9399 0.16761 0.0
H413 H 0.26327 0.96948 0.15025 0.0
H414 H 0.22057 0.02259 0.135 0.0
H415 H 0.17145 0.01925 0.08527 0.0
H416 H 0.95164 0.63179 0.64489 0.0
H417 H 0.95591 0.67484 0.70199 0.0
H418 H 0.02856 0.75487 0.63727 0.0
H419 H 0.02401 0.71201 0.57959 0.0
H420 H 0.02621 0.70058 0.73935 0.0
H421 H 0.94048 0.82216 0.686 0.0
H422 H 0.93823 0.77398 0.66428 0.0
H423 H 0.97896 0.80577 0.65409 0.0
C424 C 0.96789 0.65894 0.64254 0.0
C425 C 0.98703 0.66888 0.6076 0.0
C426 C 0.97059 0.68327 0.67529 0.0
C427 C 0.9922 0.71811 0.67365 0.0
C428 C 0.01131 0.72827 0.63886 0.0
H429 H 0.03833 0.90763 0.83339 0.0
H430 H 0.03668 0.86127 0.77904 0.0
C431 C 0.00881 0.70378 0.60606 0.0
C432 C 0.99534 0.74338 0.70868 0.0
H433 H 0.97147 0.83238 0.74583 0.0
C434 C 0.01421 0.72939 0.74094 0.0
C435 C 0.97952 0.78079 0.71047 0.0
C436 C 0.95786 0.7966 0.67704 0.0
C437 C 0.01853 0.75235 0.77481 0.0
C438 C 0.00277 0.78987 0.77657 0.0
C439 C 0.98358 0.80362 0.74436 0.0
C440 C 0.00658 0.81604 0.811 0.0
C441 C 0.04079 0.73668 0.8079 0.0
C442 C 0.99069 0.80577 0.8473 0.0
C443 C 0.99187 0.83223 0.87873 0.0
C444 C 0.00835 0.86953 0.87401 0.0
C445 C 0.025 0.87927 0.83786 0.0
C446 C 0.02416 0.8528 0.80674 0.0
H447 H 0.05936 0.71222 0.79824 0.0
H448 H 0.05938 0.75972 0.82146 0.0
H449 H 0.02001 0.72578 0.83034 0.0
H450 H 0.97631 0.7778 0.85101 0.0
H451 H 0.97858 0.82405 0.90617 0.0
H452 H 0.4169 0.97111 0.7098 0.0
H453 H 0.35848 0.96735 0.75154 0.0
H454 H 0.3055 0.05464 0.6843 0.0
H455 H 0.36306 0.05795 0.64194 0.0
H456 H 0.30291 0.06519 0.77047 0.0
H457 H 0.24919 0.92108 0.71553 0.0
H458 H 0.29953 0.92479 0.72802 0.0
H459 H 0.2826 0.95139 0.68796 0.0
C460 C 0.3928 0.98946 0.7039 0.0
C461 C 0.39482 0.01507 0.67276 0.0
C462 C 0.3595 0.98724 0.72769 0.0
C463 C 0.32773 0.01053 0.7207 0.0
C464 C 0.32982 0.03651 0.69012 0.0
H465 H 0.09496 0.99708 0.82714 0.0
H466 H 0.14914 0.0012 0.77996 0.0
C467 C 0.36293 0.03862 0.66623 0.0
C468 C 0.29238 0.00818 0.74557 0.0
H469 H 0.21555 0.94869 0.76977 0.0
C470 C 0.2837 0.03983 0.77027 0.0
C471 C 0.26722 0.97523 0.74468 0.0
C472 C 0.27474 0.94119 0.71747 0.0
C473 C 0.25093 0.03894 0.79506 0.0
C474 C 0.22646 0.00545 0.79517 0.0
C475 C 0.23451 0.97423 0.76964 0.0
C476 C 0.19359 0.00168 0.82314 0.0
C477 C 0.24277 0.07377 0.82107 0.0
C478 C 0.20085 -0.00018 0.86277 0.0
C479 C 0.17023 0.99742 0.88968 0.0
C480 C 0.13152 0.99674 0.87753 0.0
C481 C 0.12433 0.99772 0.83757 0.0
C482 C 0.1552 4e-05 0.81057 0.0
H483 H 0.25854 0.10024 0.81093 0.0
H484 H 0.21124 0.07955 0.82262 0.0
H485 H 0.25232 0.06794 0.85082 0.0
H486 H 0.23034 0.00041 0.87294 0.0
H487 H 0.17712 0.9964 0.92009 0.0
H488 H 0.05438 0.3309 0.63162 0.0
H489 H 0.05569 0.28011 0.67982 0.0
H490 H 0.93909 0.3072 0.71714 0.0
H491 H 0.93759 0.3582 0.66913 0.0
H492 H 0.04604 0.28764 0.76014 0.0
H493 H 0.93345 0.1894 0.69628 0.0
H494 H 0.95645 0.2285 0.66975 0.0
H495 H 0.91831 0.23846 0.70469 0.0
C496 C 0.02909 0.32617 0.65023 0.0
C497 C 0.99584 0.34847 0.64656 0.0
C498 C 0.02983 0.29706 0.67758 0.0
C499 C 0.9973 0.28961 0.70159 0.0
C500 C 0.96417 0.31198 0.69826 0.0
H501 H 0.99017 0.16437 0.91601 0.0
H502 H 0.98939 0.2133 0.86618 0.0
C503 C 0.96338 0.34108 0.67087 0.0
C504 C 0.99849 0.25908 0.73083 0.0
H505 H 0.95483 0.1742 0.75898 0.0
C506 C 0.02621 0.26275 0.75986 0.0
C507 C 0.97287 0.22647 0.72999 0.0
C508 C 0.9438 0.22014 0.69832 0.0
C509 C 0.02861 0.23489 0.78858 0.0
C510 C 0.00213 0.20296 0.78852 0.0
C511 C 0.97484 0.19894 0.75909 0.0
C512 C 0.0024 0.17324 0.81865 0.0
C513 C 0.05981 0.23961 0.81838 0.0
C514 C 0.00896 0.13433 0.80826 0.0
C515 C 0.00914 0.10614 0.83661 0.0
C516 C 0.00265 0.1164 0.87592 0.0
C517 C 0.99569 0.15544 0.88612 0.0
C518 C 0.99537 0.18354 0.8577 0.0
H519 H 0.0837 0.2594 0.80843 0.0
H520 H 0.04709 0.25225 0.84555 0.0
H521 H 0.07219 0.21117 0.82511 0.0
H522 H 0.01425 0.12584 0.77819 0.0
H523 H 0.01459 0.0764 0.82766 0.0
H524 H 0.62662 0.94829 0.67009 0.0
H525 H 0.67631 0.94592 0.7194 0.0
H526 H 0.72863 0.05196 0.67695 0.0
H527 H 0.67905 0.05456 0.62758 0.0
H528 H 0.75612 0.94241 0.71084 0.0
H529 H 0.71416 0.07615 0.79265 0.0
H530 H 0.68341 0.05284 0.75699 0.0
H531 H 0.72374 0.08328 0.74193 0.0
C532 C 0.64882 0.97101 0.67113 0.0
C533 C 0.64877 0.00173 0.64503 0.0
C534 C 0.6771 0.96969 0.69941 0.0
C535 C 0.70581 -0.00093 0.70223 0.0
C536 C 0.70621 0.02947 0.67588 0.0
H537 H 0.92169 0.99045 0.8269 0.0
H538 H 0.87221 0.99141 0.77747 0.0
C539 C 0.67786 0.0309 0.64768 0.0
C540 C 0.73564 0.99756 0.73241 0.0
H541 H 0.77294 0.04752 0.81026 0.0
C542 C 0.75977 0.96533 0.73265 0.0
C543 C 0.74003 0.02729 0.7611 0.0
C544 C 0.71375 0.06169 0.76352 0.0
C545 C 0.78852 0.96228 0.76049 0.0
C546 C 0.79363 0.99255 0.78846 0.0
C547 C 0.76918 0.02452 0.78855 0.0
C548 C 0.82374 0.99136 0.81836 0.0
C549 C 0.81273 0.92639 0.76016 0.0
C550 C 0.81295 0.99172 0.8578 0.0
C551 C 0.84113 0.99135 0.88622 0.0
C552 C 0.88081 0.99087 0.87578 0.0
C553 C 0.89149 0.99061 0.83613 0.0
C554 C 0.86322 0.99097 0.80774 0.0
H555 H 0.79896 0.90203 0.7434 0.0
H556 H 0.84143 0.93302 0.74641 0.0
H557 H 0.81753 0.91679 0.79012 0.0
H558 H 0.78262 0.99218 0.86662 0.0
H559 H 0.83167 0.99162 0.91637 0.0
H560 H 0.30242 0.40066 0.94404 0.0
H561 H 0.25873 0.34357 0.94493 0.0
H562 H 0.30057 0.31415 0.057 0.0
H563 H 0.34473 0.37054 0.05611 0.0
H564 H 0.28269 0.2638 0.95274 0.0
H565 H 0.18019 0.3123 0.06988 0.0
H566 H 0.21168 0.34568 0.04379 0.0
H567 H 0.23078 0.31657 0.081 0.0
C568 C 0.30211 0.38217 0.96898 0.0
C569 C 0.32678 0.39036 0.00016 0.0
C570 C 0.27719 0.34963 0.96943 0.0
C571 C 0.27632 0.32492 0.00115 0.0
C572 C 0.30041 0.33327 0.03255 0.0
H573 H 0.17386 0.08987 0.01042 0.0
H574 H 0.22009 0.14508 0.0109 0.0
C575 C 0.32541 0.36569 0.03209 0.0
C576 C 0.25111 0.28967 0.00091 0.0
H577 H 0.17291 0.24749 0.04674 0.0
C578 C 0.25866 0.26012 0.97324 0.0
C579 C 0.21983 0.28521 0.02768 0.0
C580 C 0.20978 0.31668 0.05713 0.0
C581 C 0.23558 0.22605 0.97162 0.0
C582 C 0.2045 0.22145 0.99863 0.0
C583 C 0.19704 0.25102 0.02632 0.0
C584 C 0.17755 0.18748 0.99711 0.0
C585 C 0.24395 0.19571 0.94048 0.0
C586 C 0.13847 0.19317 0.98947 0.0
C587 C 0.11212 0.16197 0.98935 0.0
C588 C 0.12421 0.12425 0.99703 0.0
C589 C 0.1636 0.11847 0.00424 0.0
C590 C 0.19006 0.14993 0.00441 0.0
H591 H 0.26406 0.20693 0.91755 0.0
H592 H 0.25751 0.1705 0.9537 0.0
H593 H 0.21671 0.18524 0.92679 0.0
H594 H 0.12829 0.22192 0.98369 0.0
H595 H 0.08215 0.16766 0.98335 0.0
H596 H 0.3757 0.6624 0.94519 0.0
H597 H 0.32721 0.71305 0.94446 0.0
H598 H 0.28199 0.67651 0.0556 0.0
H599 H 0.33031 0.62577 0.05654 0.0
H600 H 0.24701 0.7066 0.94747 0.0
H601 H 0.30161 0.79289 0.0735 0.0
H602 H 0.32958 0.75546 0.04935 0.0
H603 H 0.29162 0.74275 0.08362 0.0
C604 C 0.35528 0.665 0.96938 0.0
C605 C 0.35699 0.64019 0.00103 0.0
C606 C 0.32772 0.69405 0.96899 0.0
C607 C 0.30144 0.69895 0.00027 0.0
C608 C 0.30261 0.67384 0.0316 0.0
H609 H 0.08663 0.82419 0.00405 0.0
H610 H 0.13661 0.77532 0.00329 0.0
C611 C 0.33022 0.64485 0.03207 0.0
C612 C 0.27236 0.7299 -0.00022 0.0
H613 H 0.24053 0.81035 0.04952 0.0
C614 C 0.24566 0.72938 0.96969 0.0
C615 C 0.27101 0.75989 0.0285 0.0
C616 C 0.3002 0.76314 0.06038 0.0
C617 C 0.21713 0.75761 0.96797 0.0
C618 C 0.2149 0.78675 0.99749 0.0
C619 C 0.24208 0.78774 0.02714 0.0
C620 C 0.18458 0.81654 0.9981 0.0
C621 C 0.18996 0.75629 0.93429 0.0
C622 C 0.195 0.85606 0.99648 0.0
C623 C 0.16649 0.88423 0.99715 0.0
C624 C 0.12693 0.87341 -0.00036 0.0
C625 C 0.1167 0.83371 0.00176 0.0
C626 C 0.14525 0.80562 0.00114 0.0
H627 H 0.20186 0.73903 0.90932 0.0
H628 H 0.162 0.74247 0.94352 0.0
H629 H 0.18407 0.78598 0.92447 0.0
H630 H 0.22524 0.8651 0.99436 0.0
H631 H 0.17555 0.91446 0.99552 0.0
H632 H 0.6304 0.32218 0.95355 0.0
H633 H 0.67835 0.27103 0.95366 0.0
H634 H 0.72151 0.31663 0.06234 0.0
H635 H 0.67337 0.3677 0.06256 0.0
H636 H 0.75736 0.27835 0.95338 0.0
H637 H 0.70402 0.20215 0.08471 0.0
H638 H 0.67574 0.2376 0.06099 0.0
H639 H 0.71392 0.25302 0.09287 0.0
C640 C 0.65017 0.32132 0.97743 0.0
C641 C 0.64815 0.34884 0.00809 0.0
C642 C 0.6774 0.29203 0.97753 0.0
C643 C 0.70306 0.28972 0.00828 0.0
C644 C 0.70134 0.31734 0.0388 0.0
H645 H 0.91825 0.16545 0.00474 0.0
H646 H 0.86828 0.21434 0.00619 0.0
C647 C 0.67393 0.34652 0.03885 0.0
C648 C 0.73247 0.25915 0.00763 0.0
H649 H 0.76512 0.18305 0.0582 0.0
C650 C 0.75899 0.25742 0.97622 0.0
C651 C 0.73419 0.23163 0.03725 0.0
C652 C 0.70523 0.23084 0.07069 0.0
C653 C 0.7876 0.22921 0.97388 0.0
C654 C 0.79013 0.20253 0.00414 0.0
C655 C 0.76326 0.20384 0.03526 0.0
C656 C 0.82034 0.17283 0.00385 0.0
C657 C 0.81449 0.22783 0.93877 0.0
C658 C 0.80984 0.13329 0.00303 0.0
C659 C 0.83831 0.10514 0.0024 0.0
C660 C 0.87786 0.11609 0.00278 0.0
C661 C 0.88816 0.15586 0.00413 0.0
C662 C 0.85965 0.18392 0.0048 0.0
H663 H 0.80255 0.24338 0.91404 0.0
H664 H 0.84264 0.24199 0.94621 0.0
H665 H 0.82004 0.19738 0.92935 0.0
H666 H 0.77958 0.12421 0.00248 0.0
H667 H 0.82923 0.07486 0.00148 0.0
H668 H 0.64298 0.63506 0.05012 0.0
H669 H 0.70047 0.67772 0.04726 0.0
H670 H 0.64262 0.75237 0.96971 0.0
H671 H 0.58458 0.70987 0.97273 0.0
H672 H 0.74402 0.69863 0.97755 0.0
H673 H 0.68355 0.82578 0.05852 0.0
H674 H 0.66184 0.77769 0.06114 0.0
H675 H 0.65489 0.80652 0.01934 0.0
C676 C 0.64218 0.66097 0.03305 0.0
C677 C 0.60907 0.66949 0.01208 0.0
C678 C 0.67517 0.68507 0.03118 0.0
C679 C 0.67557 0.7183 0.0086 0.0
C680 C 0.6426 0.72705 0.98769 0.0
H681 H 0.83809 0.90547 0.96501 0.0
H682 H 0.78372 0.85916 0.96613 0.0
C683 C 0.6096 0.70276 0.98933 0.0
C684 C 0.71084 0.74336 0.00639 0.0
H685 H 0.74588 0.83398 0.0298 0.0
C686 C 0.7446 0.72822 0.98902 0.0
C687 C 0.7113 0.7818 0.02148 0.0
C688 C 0.67611 0.79898 0.04147 0.0
C689 C 0.77872 0.75098 0.98542 0.0
C690 C 0.77919 0.78954 0.00046 0.0
C691 C 0.74545 0.80443 0.01822 0.0
C692 C 0.8138 0.81564 0.9972 0.0
C693 C 0.8135 0.73392 0.96457 0.0
C694 C 0.84911 0.80633 0.01383 0.0
C695 C 0.88059 0.83273 0.01287 0.0
C696 C 0.87688 0.86907 0.99593 0.0
C697 C 0.84174 0.87787 0.97869 0.0
C698 C 0.81062 0.85142 0.97924 0.0
H699 H 0.80527 0.7084 0.94598 0.0
H700 H 0.82864 0.7558 0.94621 0.0
H701 H 0.83417 0.72414 0.98626 0.0
H702 H 0.85197 0.7792 0.02856 0.0
H703 H 0.90723 0.82533 0.02663 0.0
loop_
_geom_bond_atom_site_label_1
_geom_bond_atom_site_label_2
_geom_bond_distance
_geom_bond_site_symmetry_2
_ccdc_geom_bond_type
H0 O26 0.856 . S
H1 O29 0.854 . S
H2 C37 0.930 . S
H3 C38 0.930 . S
H4 C40 0.930 . S
H5 C41 0.930 . S
H6 C43 0.931 . S
H7 C44 0.930 . S
H8 C46 0.930 . S
H9 C47 0.929 . S
H10 C49 0.930 . S
H11 C50 0.931 . S
H12 C52 0.930 . S
H13 C53 0.929 . S
H14 C55 0.931 . S
H15 C56 0.930 . S
H16 C58 0.930 . S
H17 C59 0.932 . S
H18 C61 0.930 . S
H19 C62 0.929 . S
H20 C64 0.931 . S
H21 C65 0.930 . S
H22 C67 0.929 . S
H23 C68 0.931 . S
H24 C70 0.930 . S
H25 C71 0.929 . S
O26 H0 0.856 . S
O26 C72 1.300 1_455 S
O27 C72 1.209 . S
O28 C73 1.199 1_455 S
O29 H1 0.854 . S
O29 C73 1.297 . S
C30 C31 1.405 . S
C30 C35 1.397 1_655 S
C30 C36 1.490 1_655 S
C31 C30 1.405 . S
C31 C32 1.396 . S
C31 C42 1.492 . S
C32 C31 1.396 . S
C32 C33 1.397 . S
C32 C48 1.509 . S
C33 C32 1.397 . S
C33 C34 1.413 . S
C33 C54 1.485 . S
C34 C33 1.413 . S
C34 C35 1.389 1_655 S
C34 C60 1.490 1_655 S
C35 C30 1.397 1_455 S
C35 C34 1.389 1_455 S
C35 C66 1.519 1_455 S
C36 C30 1.490 1_455 S
C36 C37 1.363 . S
C36 C41 1.390 1_455 S
C37 H2 0.930 . S
C37 C36 1.363 . S
C37 C38 1.372 . S
C38 H3 0.930 . S
C38 C37 1.372 . S
C38 C39 1.383 . S
C39 C38 1.383 . S
C39 C40 1.395 1_455 S
C40 H4 0.930 . S
C40 C39 1.395 1_655 S
C40 C41 1.362 . S
C41 H5 0.930 . S
C41 C36 1.390 1_655 S
C41 C40 1.362 . S
C42 C31 1.492 . S
C42 C43 1.377 1_655 S
C42 C47 1.397 . S
C43 H6 0.931 . S
C43 C42 1.377 1_455 S
C43 C44 1.376 . S
C44 H7 0.930 . S
C44 C43 1.376 . S
C44 C45 1.376 1_455 S
C45 C44 1.376 1_655 S
C45 C46 1.378 . S
C45 C72 1.486 . S
C46 H8 0.930 . S
C46 C45 1.378 . S
C46 C47 1.376 . S
C47 H9 0.929 . S
C47 C42 1.397 . S
C47 C46 1.376 . S
C48 C32 1.509 . S
C48 C49 1.391 1_655 S
C48 C53 1.386 . S
C49 H10 0.930 . S
C49 C48 1.391 1_455 S
C49 C50 1.375 . S
C50 H11 0.931 . S
C50 C49 1.375 . S
C50 C51 1.375 1_455 S
C51 C50 1.375 1_655 S
C51 C52 1.361 . S
C52 H12 0.930 . S
C52 C51 1.361 . S
C52 C53 1.399 . S
C53 H13 0.929 . S
C53 C48 1.386 . S
C53 C52 1.399 . S
C54 C33 1.485 . S
C54 C55 1.394 1_655 S
C54 C59 1.360 . S
C55 H14 0.931 . S
C55 C54 1.394 1_455 S
C55 C56 1.372 . S
C56 H15 0.930 . S
C56 C55 1.372 . S
C56 C57 1.397 1_455 S
C57 C56 1.397 1_655 S
C57 C58 1.390 . S
C57 C73 1.476 . S
C58 H16 0.930 . S
C58 C57 1.390 . S
C58 C59 1.366 . S
C59 H17 0.932 . S
C59 C54 1.360 . S
C59 C58 1.366 . S
C60 C34 1.490 1_455 S
C60 C61 1.380 . S
C60 C65 1.386 1_455 S
C61 H18 0.930 . S
C61 C60 1.380 . S
C61 C62 1.381 . S
C62 H19 0.929 . S
C62 C61 1.381 . S
C62 C63 1.371 . S
C63 C62 1.371 . S
C63 C64 1.380 1_455 S
C64 H20 0.931 . S
C64 C63 1.380 1_655 S
C64 C65 1.387 . S
C65 H21 0.930 . S
C65 C60 1.386 1_655 S
C65 C64 1.387 . S
C66 C35 1.519 1_655 S
C66 C67 1.377 1_655 S
C66 C71 1.361 . S
C67 H22 0.929 . S
C67 C66 1.377 1_455 S
C67 C68 1.386 . S
C68 H23 0.931 . S
C68 C67 1.386 . S
C68 C69 1.363 1_455 S
C69 C68 1.363 1_655 S
C69 C70 1.385 . S
C70 H24 0.930 . S
C70 C69 1.385 . S
C70 C71 1.396 . S
C71 H25 0.929 . S
C71 C66 1.361 . S
C71 C70 1.396 . S
C72 O26 1.300 1_655 S
C72 O27 1.209 . S
C72 C45 1.486 . S
C73 O28 1.199 1_655 S
C73 O29 1.297 . S
C73 C57 1.476 . S
H74 O100 0.852 1_545 S
H75 O103 0.854 . S
H76 C111 0.930 . S
H77 C112 0.930 . S
H78 C114 0.930 . S
H79 C115 0.930 . S
H80 C117 0.931 . S
H81 C118 0.930 . S
H82 C120 0.930 . S
H83 C121 0.929 . S
H84 C123 0.930 . S
H85 C124 0.931 . S
H86 C126 0.930 . S
H87 C127 0.929 . S
H88 C129 0.931 . S
H89 C130 0.930 . S
H90 C132 0.930 . S
H91 C133 0.932 . S
H92 C135 0.930 . S
H93 C136 0.929 . S
H94 C138 0.931 . S
H95 C139 0.930 . S
H96 C141 0.929 . S
H97 C142 0.931 . S
H98 C144 0.930 . S
H99 C145 0.929 . S
O100 H74 0.852 1_565 S
O100 C146 1.300 1_565 S
O101 C146 1.209 . S
O102 C147 1.199 1_565 S
O103 H75 0.854 . S
O103 C147 1.297 . S
C104 C105 1.404 . S
C104 C109 1.397 . S
C104 C110 1.492 . S
C105 C104 1.404 . S
C105 C106 1.396 . S
C105 C116 1.492 . S
C106 C105 1.396 . S
C106 C107 1.397 . S
C106 C122 1.509 . S
C107 C106 1.397 . S
C107 C108 1.412 . S
C107 C128 1.485 . S
C108 C107 1.412 . S
C108 C109 1.388 . S
C108 C134 1.490 . S
C109 C104 1.397 . S
C109 C108 1.388 . S
C109 C140 1.519 . S
C110 C104 1.492 . S
C110 C111 1.363 1_545 S
C110 C115 1.390 . S
C111 H76 0.930 . S
C111 C110 1.363 1_565 S
C111 C112 1.372 . S
C112 H77 0.930 . S
C112 C111 1.372 . S
C112 C113 1.383 . S
C113 C112 1.383 . S
C113 C114 1.395 1_565 S
C114 H78 0.930 . S
C114 C113 1.395 1_545 S
C114 C115 1.362 . S
C115 H79 0.930 . S
C115 C110 1.390 . S
C115 C114 1.362 . S
C116 C105 1.492 . S
C116 C117 1.377 1_545 S
C116 C121 1.397 . S
C117 H80 0.931 . S
C117 C116 1.377 1_565 S
C117 C118 1.376 . S
C118 H81 0.930 . S
C118 C117 1.376 . S
C118 C119 1.376 1_565 S
C119 C118 1.376 1_545 S
C119 C120 1.378 . S
C119 C146 1.486 . S
C120 H82 0.930 . S
C120 C119 1.378 . S
C120 C121 1.376 . S
C121 H83 0.929 . S
C121 C116 1.397 . S
C121 C120 1.376 . S
C122 C106 1.509 . S
C122 C123 1.391 1_545 S
C122 C127 1.386 . S
C123 H84 0.930 . S
C123 C122 1.391 1_565 S
C123 C124 1.375 . S
C124 H85 0.931 . S
C124 C123 1.375 . S
C124 C125 1.375 1_565 S
C125 C124 1.375 1_545 S
C125 C126 1.361 . S
C126 H86 0.930 . S
C126 C125 1.361 . S
C126 C127 1.399 . S
C127 H87 0.929 . S
C127 C122 1.386 . S
C127 C126 1.399 . S
C128 C107 1.485 . S
C128 C129 1.394 1_545 S
C128 C133 1.360 . S
C129 H88 0.931 . S
C129 C128 1.394 1_565 S
C129 C130 1.372 . S
C130 H89 0.930 . S
C130 C129 1.372 . S
C130 C131 1.397 1_565 S
C131 C130 1.397 1_545 S
C131 C132 1.390 . S
C131 C147 1.476 . S
C132 H90 0.930 . S
C132 C131 1.390 . S
C132 C133 1.366 . S
C133 H91 0.932 . S
C133 C128 1.360 . S
C133 C132 1.366 . S
C134 C108 1.490 . S
C134 C135 1.380 1_545 S
C134 C139 1.386 . S
C135 H92 0.930 . S
C135 C134 1.380 1_565 S
C135 C136 1.381 . S
C136 H93 0.929 . S
C136 C135 1.381 . S
C136 C137 1.371 . S
C137 C136 1.371 . S
C137 C138 1.380 1_565 S
C138 H94 0.931 . S
C138 C137 1.380 1_545 S
C138 C139 1.387 . S
C139 H95 0.930 . S
C139 C134 1.386 . S
C139 C138 1.387 . S
C140 C109 1.519 . S
C140 C141 1.377 1_545 S
C140 C145 1.361 . S
C141 H96 0.929 . S
C141 C140 1.377 1_565 S
C141 C142 1.386 . S
C142 H97 0.931 . S
C142 C141 1.386 . S
C142 C143 1.363 1_565 S
C143 C142 1.363 1_545 S
C143 C144 1.385 . S
C144 H98 0.930 . S
C144 C143 1.385 . S
C144 C145 1.396 . S
C145 H99 0.929 . S
C145 C140 1.361 . S
C145 C144 1.396 . S
C146 O100 1.300 1_545 S
C146 O101 1.209 . S
C146 C119 1.486 . S
C147 O102 1.199 1_545 S
C147 O103 1.297 . S
C147 C131 1.476 . S
H148 O174 0.856 . S
H149 O177 0.854 . S
H150 C185 0.930 . S
H151 C186 0.930 . S
H152 C188 0.930 . S
H153 C189 0.930 . S
H154 C191 0.931 . S
H155 C192 0.930 . S
H156 C194 0.930 . S
H157 C195 0.929 . S
H158 C197 0.930 . S
H159 C198 0.931 . S
H160 C200 0.930 . S
H161 C201 0.929 . S
H162 C203 0.931 . S
H163 C204 0.930 . S
H164 C206 0.930 . S
H165 C207 0.932 . S
H166 C209 0.930 . S
H167 C210 0.929 . S
H168 C212 0.931 . S
H169 C213 0.930 . S
H170 C215 0.929 . S
H171 C216 0.931 . S
H172 C218 0.930 . S
H173 C219 0.929 . S
O174 H148 0.856 . S
O174 C220 1.300 1_556 S
O175 C220 1.209 . S
O176 C221 1.199 1_556 S
O177 H149 0.854 . S
O177 C221 1.297 . S
C178 C179 1.404 . S
C178 C183 1.397 . S
C178 C184 1.489 1_554 S
C179 C178 1.404 . S
C179 C180 1.396 . S
C179 C190 1.492 . S
C180 C179 1.396 . S
C180 C181 1.397 . S
C180 C196 1.509 . S
C181 C180 1.397 . S
C181 C182 1.412 . S
C181 C202 1.485 . S
C182 C181 1.412 . S
C182 C183 1.388 . S
C182 C208 1.490 1_554 S
C183 C178 1.397 . S
C183 C182 1.388 . S
C183 C214 1.519 . S
C184 C178 1.489 1_556 S
C184 C185 1.387 . S
C184 C189 1.370 1_556 S
C185 H150 0.930 . S
C185 C184 1.387 . S
C185 C186 1.372 . S
C186 H151 0.930 . S
C186 C185 1.372 . S
C186 C187 1.383 . S
C187 C186 1.383 . S
C187 C188 1.395 1_556 S
C188 H152 0.930 . S
C188 C187 1.395 1_554 S
C188 C189 1.362 . S
C189 H153 0.930 . S
C189 C184 1.370 1_554 S
C189 C188 1.362 . S
C190 C179 1.492 . S
C190 C191 1.377 1_554 S
C190 C195 1.397 . S
C191 H154 0.931 . S
C191 C190 1.377 1_556 S
C191 C192 1.376 . S
C192 H155 0.930 . S
C192 C191 1.376 . S
C192 C193 1.376 1_556 S
C193 C192 1.376 1_554 S
C193 C194 1.378 . S
C193 C220 1.486 . S
C194 H156 0.930 . S
C194 C193 1.378 . S
C194 C195 1.376 . S
C195 H157 0.929 . S
C195 C190 1.397 . S
C195 C194 1.376 . S
C196 C180 1.509 . S
C196 C197 1.391 1_554 S
C196 C201 1.386 . S
C197 H158 0.930 . S
C197 C196 1.391 1_556 S
C197 C198 1.375 . S
C198 H159 0.931 . S
C198 C197 1.375 . S
C198 C199 1.375 1_556 S
C199 C198 1.375 1_554 S
C199 C200 1.361 . S
C200 H160 0.930 . S
C200 C199 1.361 . S
C200 C201 1.399 . S
C201 H161 0.929 . S
C201 C196 1.386 . S
C201 C200 1.399 . S
C202 C181 1.485 . S
C202 C203 1.394 1_554 S
C202 C207 1.360 . S
C203 H162 0.931 . S
C203 C202 1.394 1_556 S
C203 C204 1.372 . S
C204 H163 0.930 . S
C204 C203 1.372 . S
C204 C205 1.397 1_556 S
C205 C204 1.397 1_554 S
C205 C206 1.390 . S
C205 C221 1.476 . S
C206 H164 0.930 . S
C206 C205 1.390 . S
C206 C207 1.366 . S
C207 H165 0.932 . S
C207 C202 1.360 . S
C207 C206 1.366 . S
C208 C182 1.490 1_556 S
C208 C209 1.380 . S
C208 C213 1.386 1_556 S
C209 H166 0.930 . S
C209 C208 1.380 . S
C209 C210 1.381 . S
C210 H167 0.929 . S
C210 C209 1.381 . S
C210 C211 1.371 . S
C211 C210 1.371 . S
C211 C212 1.380 1_556 S
C212 H168 0.931 . S
C212 C211 1.380 1_554 S
C212 C213 1.387 . S
C213 H169 0.930 . S
C213 C208 1.386 1_554 S
C213 C212 1.387 . S
C214 C183 1.519 . S
C214 C215 1.377 1_554 S
C214 C219 1.361 . S
C215 H170 0.929 . S
C215 C214 1.377 1_556 S
C215 C216 1.386 . S
C216 H171 0.931 . S
C216 C215 1.386 . S
C216 C217 1.363 1_556 S
C217 C216 1.363 1_554 S
C217 C218 1.385 . S
C218 H172 0.930 . S
C218 C217 1.385 . S
C218 C219 1.396 . S
C219 H173 0.929 . S
C219 C214 1.361 . S
C219 C218 1.396 . S
C220 O174 1.300 1_554 S
C220 O175 1.209 . S
C220 C193 1.486 . S
C221 O176 1.199 1_554 S
C221 O177 1.297 . S
C221 C205 1.476 . S
C222 O248 1.283 . S
C222 O266 1.283 . S
C223 O249 1.283 . S
C223 O264 1.283 . S
C224 O250 1.283 . S
C224 O267 1.283 . S
C225 O251 1.283 . S
C225 O265 1.283 . S
C226 O252 1.283 . S
C226 O261 1.283 . S
C227 O253 1.283 . S
C227 O263 1.283 . S
C228 O254 1.283 . S
C228 O260 1.283 . S
C229 O255 1.283 . S
C229 O262 1.283 . S
C230 O256 1.283 . S
C230 O271 1.283 . S
C231 O257 1.283 . S
C231 O269 1.283 . S
C232 O258 1.283 . S
C232 O270 1.283 . S
C233 O259 1.283 . S
C233 O268 1.283 . S
Eu234 O235 2.370 . S
Eu234 O236 2.370 1_454 S
Eu234 O239 2.370 1_554 S
Eu234 O240 2.370 1_455 S
Eu234 O248 2.363 1_554 S
Eu234 O249 2.363 . S
Eu234 O262 2.363 1_455 S
Eu234 O263 2.363 . S
O235 Eu234 2.370 . S
O235 Eu237 2.376 . S
O235 Eu242 2.370 . S
O236 Eu234 2.370 1_656 S
O236 Eu238 2.370 1_556 S
O236 Eu241 2.370 1_655 S
Eu237 O235 2.376 . S
Eu237 O239 2.364 1_554 S
Eu237 O243 2.364 1_544 S
Eu237 O244 2.376 1_545 S
Eu237 O252 2.364 1_544 S
Eu237 O253 2.363 . S
Eu237 O268 2.353 1_554 S
Eu237 O269 2.373 . S
Eu238 O236 2.370 1_554 S
Eu238 O240 2.370 . S
Eu238 O245 2.370 1_545 S
Eu238 O246 2.370 1_544 S
Eu238 O254 2.363 1_545 S
Eu238 O255 2.363 . S
Eu238 O270 2.363 1_554 S
Eu238 O271 2.363 . S
O239 Eu234 2.370 1_556 S
O239 Eu237 2.364 1_556 S
O239 Eu241 2.370 . S
O240 Eu234 2.370 1_655 S
O240 Eu238 2.370 . S
O240 Eu242 2.370 1_655 S
Eu241 O236 2.370 1_455 S
Eu241 O239 2.370 . S
Eu241 O243 2.370 1_545 S
Eu241 O246 2.370 1_445 S
Eu241 O258 2.363 1_455 S
Eu241 O259 2.363 . S
Eu241 O266 2.363 . S
Eu241 O267 2.363 1_545 S
Eu242 O235 2.370 . S
Eu242 O240 2.370 1_455 S
Eu242 O244 2.370 1_545 S
Eu242 O245 2.370 1_445 S
Eu242 O256 2.364 1_455 S
Eu242 O257 2.362 . S
Eu242 O264 2.363 . S
Eu242 O265 2.363 1_445 S
O243 Eu237 2.364 1_566 S
O243 Eu241 2.370 1_565 S
O243 Eu247 2.364 1_556 S
O244 Eu237 2.376 1_565 S
O244 Eu242 2.370 1_565 S
O244 Eu247 2.376 . S
O245 Eu238 2.370 1_565 S
O245 Eu242 2.370 1_665 S
O245 Eu247 2.376 1_655 S
O246 Eu238 2.370 1_566 S
O246 Eu241 2.370 1_665 S
O246 Eu247 2.364 1_656 S
Eu247 O243 2.364 1_554 S
Eu247 O244 2.376 . S
Eu247 O245 2.376 1_455 S
Eu247 O246 2.364 1_454 S
Eu247 O250 2.353 1_554 S
Eu247 O251 2.373 1_455 S
Eu247 O260 2.364 1_455 S
Eu247 O261 2.363 1_554 S
O248 C222 1.283 . S
O248 Eu234 2.363 1_556 S
O249 C223 1.283 . S
O249 Eu234 2.363 . S
O250 C224 1.283 . S
O250 Eu247 2.353 1_556 S
O251 C225 1.283 . S
O251 Eu247 2.373 1_655 S
O252 C226 1.283 . S
O252 Eu237 2.364 1_566 S
O253 C227 1.283 . S
O253 Eu237 2.363 . S
O254 C228 1.283 . S
O254 Eu238 2.363 1_565 S
O255 C229 1.283 . S
O255 Eu238 2.363 . S
O256 C230 1.283 . S
O256 Eu242 2.364 1_655 S
O257 C231 1.283 . S
O257 Eu242 2.362 . S
O258 C232 1.283 . S
O258 Eu241 2.363 1_655 S
O259 C233 1.283 . S
O259 Eu241 2.363 . S
O260 C228 1.283 . S
O260 Eu247 2.364 1_655 S
O261 C226 1.283 . S
O261 Eu247 2.363 1_556 S
O262 C229 1.283 . S
O262 Eu234 2.363 1_655 S
O263 C227 1.283 . S
O263 Eu234 2.363 . S
O264 C223 1.283 . S
O264 Eu242 2.363 . S
O265 C225 1.283 . S
O265 Eu242 2.363 1_665 S
O266 C222 1.283 . S
O266 Eu241 2.363 . S
O267 C224 1.283 . S
O267 Eu241 2.363 1_565 S
O268 C233 1.283 . S
O268 Eu237 2.353 1_556 S
O269 C231 1.283 . S
O269 Eu237 2.373 . S
O270 C232 1.283 . S
O270 Eu238 2.363 1_556 S
O271 C230 1.283 . S
O271 Eu238 2.363 . S
H272 C280 0.929 . S
H273 C282 0.930 . S
H274 C284 0.930 . S
H275 C287 0.929 . S
H276 C290 0.930 . S
H277 C292 0.960 . S
H278 C292 0.960 . S
H279 C292 0.960 . S
C280 H272 0.929 . S
C280 C281 1.377 . S
C280 C282 1.384 . S
C281 C280 1.377 . S
C281 C287 1.390 1_455 S
C282 H273 0.930 . S
C282 C280 1.384 . S
C282 C283 1.372 . S
C283 C282 1.372 . S
C283 C284 1.400 1_455 S
C283 C288 1.490 . S
C284 H274 0.930 . S
C284 C283 1.400 1_655 S
C284 C287 1.386 . S
H285 C301 0.930 . S
H286 C302 0.931 . S
C287 H275 0.929 . S
C287 C281 1.390 1_655 S
C287 C284 1.386 . S
C288 C283 1.490 . S
C288 C290 1.395 . S
C288 C291 1.403 1_455 S
H289 C295 0.930 . S
C290 H276 0.930 . S
C290 C288 1.395 . S
C290 C293 1.403 . S
C291 C288 1.403 1_655 S
C291 C292 1.524 . S
C291 C295 1.400 . S
C292 H277 0.960 . S
C292 H278 0.960 . S
C292 H279 0.960 . S
C292 C291 1.524 . S
C293 C290 1.403 . S
C293 C294 1.392 . S
C293 C297 1.495 . S
C294 C293 1.392 . S
C294 C295 1.385 1_455 S
C294 C296 1.478 . S
C295 H289 0.930 . S
C295 C291 1.400 . S
C295 C294 1.385 1_655 S
C296 C294 1.478 . S
C296 C298 1.381 . S
C296 C302 1.383 1_455 S
C297 C293 1.495 . S
C297 H303 0.959 . S
C297 H304 0.961 . S
C297 H305 0.960 . S
C298 C296 1.381 . S
C298 C299 1.394 . S
C298 H306 0.930 . S
C299 C298 1.394 . S
C299 C300 1.383 . S
C299 H307 0.929 . S
C300 C299 1.383 . S
C300 C301 1.377 1_455 S
C301 H285 0.930 . S
C301 C300 1.377 1_655 S
C301 C302 1.379 . S
C302 H286 0.931 . S
C302 C296 1.383 1_655 S
C302 C301 1.379 . S
H303 C297 0.959 . S
H304 C297 0.961 . S
H305 C297 0.960 . S
H306 C298 0.930 . S
H307 C299 0.929 . S
H308 C316 0.929 . S
H309 C318 0.930 . S
H310 C320 0.930 . S
H311 C323 0.929 . S
H312 C326 0.930 . S
H313 C328 0.960 . S
H314 C328 0.960 1_545 S
H315 C328 0.960 . S
C316 H308 0.929 . S
C316 C317 1.377 1_545 S
C316 C318 1.384 . S
C317 C316 1.377 1_565 S
C317 C323 1.390 . S
C318 H309 0.930 . S
C318 C316 1.384 . S
C318 C319 1.372 1_545 S
C319 C318 1.372 1_565 S
C319 C320 1.400 . S
C319 C324 1.490 . S
C320 H310 0.930 . S
C320 C319 1.400 . S
C320 C323 1.386 . S
H321 C337 0.930 . S
H322 C338 0.931 . S
C323 H311 0.929 . S
C323 C317 1.390 . S
C323 C320 1.386 . S
C324 C319 1.490 . S
C324 C326 1.395 1_565 S
C324 C327 1.403 . S
H325 C331 0.930 . S
C326 H312 0.930 . S
C326 C324 1.395 1_545 S
C326 C329 1.403 . S
C327 C324 1.403 . S
C327 C328 1.524 . S
C327 C331 1.400 . S
C328 H313 0.960 . S
C328 H314 0.960 1_565 S
C328 H315 0.960 . S
C328 C327 1.524 . S
C329 C326 1.403 . S
C329 C330 1.392 . S
C329 C333 1.495 . S
C330 C329 1.392 . S
C330 C331 1.385 1_545 S
C330 C332 1.478 . S
C331 H325 0.930 . S
C331 C327 1.400 . S
C331 C330 1.385 1_565 S
C332 C330 1.478 . S
C332 C334 1.381 . S
C332 C338 1.383 1_545 S
C333 C329 1.495 . S
C333 H339 0.959 . S
C333 H340 0.961 1_545 S
C333 H341 0.960 . S
C334 C332 1.381 . S
C334 C335 1.394 . S
C334 H342 0.930 . S
C335 C334 1.394 . S
C335 C336 1.383 . S
C335 H343 0.929 . S
C336 C335 1.383 . S
C336 C337 1.377 1_545 S
C337 H321 0.930 . S
C337 C336 1.377 1_565 S
C337 C338 1.379 . S
C338 H322 0.931 . S
C338 C332 1.383 1_565 S
C338 C337 1.379 . S
H339 C333 0.959 . S
H340 C333 0.961 1_565 S
H341 C333 0.960 . S
H342 C334 0.930 . S
H343 C335 0.929 . S
H344 C352 0.929 . S
H345 C354 0.930 . S
H346 C356 0.930 . S
H347 C359 0.929 . S
H348 C362 0.930 . S
H349 C364 0.960 . S
H350 C364 0.960 1_655 S
H351 C364 0.960 . S
C352 H344 0.929 . S
C352 C353 1.377 . S
C352 C354 1.384 . S
C353 C352 1.377 . S
C353 C359 1.390 1_655 S
C354 H345 0.930 . S
C354 C352 1.384 . S
C354 C355 1.372 . S
C355 C354 1.372 . S
C355 C356 1.400 1_655 S
C355 C360 1.490 . S
C356 H346 0.930 . S
C356 C355 1.400 1_455 S
C356 C359 1.386 . S
H357 C373 0.930 . S
H358 C374 0.931 . S
C359 H347 0.929 . S
C359 C353 1.390 1_455 S
C359 C356 1.386 . S
C360 C355 1.490 . S
C360 C362 1.395 . S
C360 C363 1.403 . S
H361 C367 0.934 . S
C362 H348 0.930 . S
C362 C360 1.395 . S
C362 C365 1.403 . S
C363 C360 1.403 . S
C363 C364 1.523 1_655 S
C363 C367 1.400 1_655 S
C364 H349 0.960 . S
C364 H350 0.960 1_455 S
C364 H351 0.960 . S
C364 C363 1.523 1_455 S
C365 C362 1.403 . S
C365 C366 1.392 . S
C365 C369 1.495 . S
C366 C365 1.392 . S
C366 C367 1.382 1_655 S
C366 C368 1.478 . S
C367 H361 0.934 . S
C367 C363 1.400 1_455 S
C367 C366 1.382 1_455 S
C368 C366 1.478 . S
C368 C370 1.381 . S
C368 C374 1.383 1_655 S
C369 C365 1.495 . S
C369 H375 0.959 . S
C369 H376 0.961 . S
C369 H377 0.960 . S
C370 C368 1.381 . S
C370 C371 1.394 . S
C370 H378 0.930 . S
C371 C370 1.394 . S
C371 C372 1.383 . S
C371 H379 0.929 . S
C372 C371 1.383 . S
C372 C373 1.377 1_655 S
C373 H357 0.930 . S
C373 C372 1.377 1_455 S
C373 C374 1.379 . S
C374 H358 0.931 . S
C374 C368 1.383 1_455 S
C374 C373 1.379 . S
H375 C369 0.959 . S
H376 C369 0.961 . S
H377 C369 0.960 . S
H378 C370 0.930 . S
H379 C371 0.929 . S
H380 C388 0.929 . S
H381 C390 0.930 . S
H382 C392 0.930 1_565 S
H383 C395 0.927 1_565 S
H384 C398 0.930 1_565 S
H385 C400 0.960 . S
H386 C400 0.960 . S
H387 C400 0.960 . S
C388 H380 0.929 . S
C388 C389 1.377 . S
C388 C390 1.384 . S
C389 C388 1.377 . S
C389 C395 1.390 . S
C390 H381 0.930 . S
C390 C388 1.384 . S
C390 C391 1.372 . S
C391 C390 1.372 . S
C391 C392 1.400 . S
C391 C396 1.490 . S
C392 H382 0.930 1_545 S
C392 C391 1.400 . S
C392 C395 1.386 . S
H393 C409 0.930 . S
H394 C410 0.931 . S
C395 H383 0.927 1_545 S
C395 C389 1.390 . S
C395 C392 1.386 . S
C396 C391 1.490 . S
C396 C398 1.395 . S
C396 C399 1.403 . S
H397 C403 0.930 . S
C398 H384 0.930 1_545 S
C398 C396 1.395 . S
C398 C401 1.403 1_545 S
C399 C396 1.403 . S
C399 C400 1.524 . S
C399 C403 1.400 . S
C400 H385 0.960 . S
C400 H386 0.960 . S
C400 H387 0.960 . S
C400 C399 1.524 . S
C401 C398 1.403 1_565 S
C401 C402 1.392 1_565 S
C401 C405 1.495 . S
C402 C401 1.392 1_545 S
C402 C403 1.385 . S
C402 C404 1.478 . S
C403 H397 0.930 . S
C403 C399 1.400 . S
C403 C402 1.385 . S
C404 C402 1.478 . S
C404 C406 1.381 . S
C404 C410 1.383 1_545 S
C405 C401 1.495 . S
C405 H411 0.959 . S
C405 H412 0.961 . S
C405 H413 0.960 . S
C406 C404 1.381 . S
C406 C407 1.394 . S
C406 H414 0.930 . S
C407 C406 1.394 . S
C407 C408 1.383 . S
C407 H415 0.929 . S
C408 C407 1.383 . S
C408 C409 1.377 1_545 S
C409 H393 0.930 . S
C409 C408 1.377 1_565 S
C409 C410 1.379 . S
C410 H394 0.931 . S
C410 C404 1.383 1_565 S
C410 C409 1.379 . S
H411 C405 0.959 . S
H412 C405 0.961 . S
H413 C405 0.960 . S
H414 C406 0.930 . S
H415 C407 0.929 . S
H416 C424 0.929 . S
H417 C426 0.930 . S
H418 C428 0.930 . S
H419 C431 0.929 . S
H420 C434 0.930 . S
H421 C436 0.960 . S
H422 C436 0.960 . S
H423 C436 0.960 1_455 S
C424 H416 0.929 . S
C424 C425 1.377 1_655 S
C424 C426 1.384 . S
C425 C424 1.377 1_455 S
C425 C431 1.390 . S
C426 H417 0.930 . S
C426 C424 1.384 . S
C426 C427 1.372 1_655 S
C427 C426 1.372 1_455 S
C427 C428 1.400 . S
C427 C432 1.490 . S
C428 H418 0.930 . S
C428 C427 1.400 . S
C428 C431 1.386 . S
H429 C445 0.930 . S
H430 C446 0.931 . S
C431 H419 0.929 . S
C431 C425 1.390 . S
C431 C428 1.386 . S
C432 C427 1.490 . S
C432 C434 1.395 . S
C432 C435 1.403 . S
H433 C439 0.926 1_655 S
C434 H420 0.930 . S
C434 C432 1.395 . S
C434 C437 1.403 . S
C435 C432 1.403 . S
C435 C436 1.524 1_455 S
C435 C439 1.400 . S
C436 H421 0.960 . S
C436 H422 0.960 . S
C436 H423 0.960 1_655 S
C436 C435 1.524 1_655 S
C437 C434 1.403 . S
C437 C438 1.392 . S
C437 C441 1.495 . S
C438 C437 1.392 . S
C438 C439 1.385 . S
C438 C440 1.478 . S
C439 H433 0.926 1_455 S
C439 C435 1.400 . S
C439 C438 1.385 . S
C440 C438 1.478 . S
C440 C442 1.381 1_455 S
C440 C446 1.383 . S
C441 C437 1.495 . S
C441 H447 0.959 . S
C441 H448 0.961 . S
C441 H449 0.960 1_455 S
C442 C440 1.381 1_655 S
C442 C443 1.394 . S
C442 H450 0.930 . S
C443 C442 1.394 . S
C443 C444 1.383 1_655 S
C443 H451 0.929 . S
C444 C443 1.383 1_455 S
C444 C445 1.377 . S
C445 H429 0.930 . S
C445 C444 1.377 . S
C445 C446 1.379 . S
C446 H430 0.931 . S
C446 C440 1.383 . S
C446 C445 1.379 . S
H447 C441 0.959 . S
H448 C441 0.961 . S
H449 C441 0.960 1_655 S
H450 C442 0.930 . S
H451 C443 0.929 . S
H452 C460 0.929 . S
H453 C462 0.930 . S
H454 C464 0.930 . S
H455 C467 0.929 . S
H456 C470 0.930 . S
H457 C472 0.960 . S
H458 C472 0.960 . S
H459 C472 0.960 . S
C460 H452 0.929 . S
C460 C461 1.377 . S
C460 C462 1.384 . S
C461 C460 1.377 . S
C461 C467 1.390 . S
C462 H453 0.930 . S
C462 C460 1.384 . S
C462 C463 1.372 . S
C463 C462 1.372 . S
C463 C464 1.400 . S
C463 C468 1.490 . S
C464 H454 0.930 . S
C464 C463 1.400 . S
C464 C467 1.386 . S
H465 C481 0.930 . S
H466 C482 0.931 . S
C467 H455 0.929 . S
C467 C461 1.390 . S
C467 C464 1.386 . S
C468 C463 1.490 . S
C468 C470 1.395 1_565 S
C468 C471 1.403 . S
H469 C475 0.930 . S
C470 H456 0.930 . S
C470 C468 1.395 1_545 S
C470 C473 1.403 . S
C471 C468 1.403 . S
C471 C472 1.524 . S
C471 C475 1.400 . S
C472 H457 0.960 . S
C472 H458 0.960 . S
C472 H459 0.960 . S
C472 C471 1.524 . S
C473 C470 1.403 . S
C473 C474 1.392 . S
C473 C477 1.495 . S
C474 C473 1.392 . S
C474 C475 1.385 1_545 S
C474 C476 1.478 . S
C475 H469 0.930 . S
C475 C471 1.400 . S
C475 C474 1.385 1_565 S
C476 C474 1.478 . S
C476 C478 1.381 . S
C476 C482 1.383 . S
C477 C473 1.495 . S
C477 H483 0.959 . S
C477 H484 0.961 . S
C477 H485 0.960 . S
C478 C476 1.381 . S
C478 C479 1.394 . S
C478 H486 0.930 . S
C479 C478 1.394 . S
C479 C480 1.383 . S
C479 H487 0.929 . S
C480 C479 1.383 . S
C480 C481 1.377 . S
C481 H465 0.930 . S
C481 C480 1.377 . S
C481 C482 1.379 . S
C482 H466 0.931 . S
C482 C476 1.383 . S
C482 C481 1.379 . S
H483 C477 0.959 . S
H484 C477 0.961 . S
H485 C477 0.960 . S
H486 C478 0.930 . S
H487 C479 0.929 . S
H488 C496 0.929 . S
H489 C498 0.930 . S
H490 C500 0.930 . S
H491 C503 0.929 . S
H492 C506 0.930 . S
H493 C508 0.960 . S
H494 C508 0.960 . S
H495 C508 0.960 . S
C496 H488 0.929 . S
C496 C497 1.377 1_455 S
C496 C498 1.384 . S
C497 C496 1.377 1_655 S
C497 C503 1.390 . S
C498 H489 0.930 . S
C498 C496 1.384 . S
C498 C499 1.372 1_455 S
C499 C498 1.372 1_655 S
C499 C500 1.400 . S
C499 C504 1.490 . S
C500 H490 0.930 . S
C500 C499 1.400 . S
C500 C503 1.386 . S
H501 C517 0.930 . S
H502 C518 0.931 . S
C503 H491 0.929 . S
C503 C497 1.390 . S
C503 C500 1.386 . S
C504 C499 1.490 . S
C504 C506 1.395 1_655 S
C504 C507 1.403 . S
H505 C511 0.930 . S
C506 H492 0.930 . S
C506 C504 1.395 1_455 S
C506 C509 1.403 . S
C507 C504 1.403 . S
C507 C508 1.524 . S
C507 C511 1.400 . S
C508 H493 0.960 . S
C508 H494 0.960 . S
C508 H495 0.960 . S
C508 C507 1.524 . S
C509 C506 1.403 . S
C509 C510 1.391 . S
C509 C513 1.495 . S
C510 C509 1.391 . S
C510 C511 1.387 1_455 S
C510 C512 1.477 . S
C511 H505 0.930 . S
C511 C507 1.400 . S
C511 C510 1.387 1_655 S
C512 C510 1.477 . S
C512 C514 1.381 . S
C512 C518 1.383 1_455 S
C513 C509 1.495 . S
C513 H519 0.959 . S
C513 H520 0.961 . S
C513 H521 0.960 . S
C514 C512 1.381 . S
C514 C515 1.394 . S
C514 H522 0.930 . S
C515 C514 1.394 . S
C515 C516 1.383 . S
C515 H523 0.929 . S
C516 C515 1.383 . S
C516 C517 1.377 1_455 S
C517 H501 0.930 . S
C517 C516 1.377 1_655 S
C517 C518 1.379 . S
C518 H502 0.931 . S
C518 C512 1.383 1_655 S
C518 C517 1.379 . S
H519 C513 0.959 . S
H520 C513 0.961 . S
H521 C513 0.960 . S
H522 C514 0.930 . S
H523 C515 0.929 . S
H524 C532 0.929 . S
H525 C534 0.930 . S
H526 C536 0.930 . S
H527 C539 0.929 . S
H528 C542 0.930 . S
H529 C544 0.960 . S
H530 C544 0.960 . S
H531 C544 0.960 . S
C532 H524 0.929 . S
C532 C533 1.377 1_565 S
C532 C534 1.384 . S
C533 C532 1.377 1_545 S
C533 C539 1.390 . S
C534 H525 0.930 . S
C534 C532 1.384 . S
C534 C535 1.372 1_565 S
C535 C534 1.372 1_545 S
C535 C536 1.400 . S
C535 C540 1.490 . S
C536 H526 0.930 . S
C536 C535 1.400 . S
C536 C539 1.386 . S
H537 C553 0.930 . S
H538 C554 0.931 . S
C539 H527 0.929 . S
C539 C533 1.390 . S
C539 C536 1.386 . S
C540 C535 1.490 . S
C540 C542 1.395 1_545 S
C540 C543 1.403 . S
H541 C547 0.930 . S
C542 H528 0.930 . S
C542 C540 1.395 1_565 S
C542 C545 1.403 . S
C543 C540 1.403 . S
C543 C544 1.524 . S
C543 C547 1.400 . S
C544 H529 0.960 . S
C544 H530 0.960 . S
C544 H531 0.960 . S
C544 C543 1.524 . S
C545 C542 1.403 . S
C545 C546 1.392 1_565 S
C545 C549 1.495 . S
C546 C545 1.392 1_545 S
C546 C547 1.385 . S
C546 C548 1.479 . S
C547 H541 0.930 . S
C547 C543 1.400 . S
C547 C546 1.385 . S
C548 C546 1.479 . S
C548 C550 1.369 1_545 S
C548 C554 1.394 . S
C549 C545 1.495 . S
C549 H555 0.959 . S
C549 H556 0.961 . S
C549 H557 0.960 . S
C550 C548 1.369 1_565 S
C550 C551 1.394 . S
C550 H558 0.930 . S
C551 C550 1.394 . S
C551 C552 1.383 1_565 S
C551 H559 0.929 . S
C552 C551 1.383 1_545 S
C552 C553 1.377 . S
C553 H537 0.930 . S
C553 C552 1.377 . S
C553 C554 1.379 . S
C554 H538 0.931 . S
C554 C548 1.394 . S
C554 C553 1.379 . S
H555 C549 0.959 . S
H556 C549 0.961 . S
H557 C549 0.960 . S
H558 C550 0.930 . S
H559 C551 0.929 . S
H560 C568 0.929 . S
H561 C570 0.930 . S
H562 C572 0.930 . S
H563 C575 0.929 . S
H564 C578 0.930 . S
H565 C580 0.960 . S
H566 C580 0.960 . S
H567 C580 0.960 . S
C568 H560 0.929 . S
C568 C569 1.377 . S
C568 C570 1.384 . S
C569 C568 1.377 . S
C569 C575 1.390 1_556 S
C570 H561 0.930 . S
C570 C568 1.384 . S
C570 C571 1.372 . S
C571 C570 1.372 . S
C571 C572 1.400 1_556 S
C571 C576 1.490 . S
C572 H562 0.930 . S
C572 C571 1.400 1_554 S
C572 C575 1.386 . S
H573 C589 0.930 . S
H574 C590 0.931 . S
C575 H563 0.929 . S
C575 C569 1.390 1_554 S
C575 C572 1.386 . S
C576 C571 1.490 . S
C576 C578 1.395 . S
C576 C579 1.403 1_556 S
H577 C583 0.930 . S
C578 H564 0.930 . S
C578 C576 1.395 . S
C578 C581 1.403 . S
C579 C576 1.403 1_554 S
C579 C580 1.524 . S
C579 C583 1.400 . S
C580 H565 0.960 . S
C580 H566 0.960 . S
C580 H567 0.960 . S
C580 C579 1.524 . S
C581 C578 1.403 . S
C581 C582 1.392 . S
C581 C585 1.495 . S
C582 C581 1.392 . S
C582 C583 1.385 1_556 S
C582 C584 1.478 . S
C583 H577 0.930 . S
C583 C579 1.400 . S
C583 C582 1.385 1_554 S
C584 C582 1.478 . S
C584 C586 1.381 . S
C584 C590 1.383 1_556 S
C585 C581 1.495 . S
C585 H591 0.959 . S
C585 H592 0.961 . S
C585 H593 0.960 . S
C586 C584 1.381 . S
C586 C587 1.394 . S
C586 H594 0.930 . S
C587 C586 1.394 . S
C587 C588 1.383 . S
C587 H595 0.929 . S
C588 C587 1.383 . S
C588 C589 1.377 1_556 S
C589 H573 0.930 . S
C589 C588 1.377 1_554 S
C589 C590 1.379 . S
C590 H574 0.931 . S
C590 C584 1.383 1_554 S
C590 C589 1.379 . S
H591 C585 0.959 . S
H592 C585 0.961 . S
H593 C585 0.960 . S
H594 C586 0.930 . S
H595 C587 0.929 . S
H596 C604 0.929 . S
H597 C606 0.930 . S
H598 C608 0.930 . S
H599 C611 0.929 . S
H600 C614 0.930 . S
H601 C616 0.960 . S
H602 C616 0.960 . S
H603 C616 0.960 . S
C604 H596 0.929 . S
C604 C605 1.377 1_556 S
C604 C606 1.384 . S
C605 C604 1.377 1_554 S
C605 C611 1.390 . S
C606 H597 0.930 . S
C606 C604 1.384 . S
C606 C607 1.372 1_556 S
C607 C606 1.372 1_554 S
C607 C608 1.400 . S
C607 C612 1.490 . S
C608 H598 0.930 . S
C608 C607 1.400 . S
C608 C611 1.386 . S
H609 C625 0.930 . S
H610 C626 0.931 . S
C611 H599 0.929 . S
C611 C605 1.390 . S
C611 C608 1.386 . S
C612 C607 1.490 . S
C612 C614 1.395 1_554 S
C612 C615 1.403 . S
H613 C619 0.930 . S
C614 H600 0.930 . S
C614 C612 1.395 1_556 S
C614 C617 1.403 . S
C615 C612 1.403 . S
C615 C616 1.524 . S
C615 C619 1.400 . S
C616 H601 0.960 . S
C616 H602 0.960 . S
C616 H603 0.960 . S
C616 C615 1.524 . S
C617 C614 1.403 . S
C617 C618 1.392 . S
C617 C621 1.495 . S
C618 C617 1.392 . S
C618 C619 1.385 1_556 S
C618 C620 1.478 . S
C619 H613 0.930 . S
C619 C615 1.400 . S
C619 C618 1.385 1_554 S
C620 C618 1.478 . S
C620 C622 1.381 . S
C620 C626 1.383 1_556 S
C621 C617 1.495 . S
C621 H627 0.959 . S
C621 H628 0.961 . S
C621 H629 0.960 . S
C622 C620 1.381 . S
C622 C623 1.394 . S
C622 H630 0.930 . S
C623 C622 1.394 . S
C623 C624 1.383 . S
C623 H631 0.929 . S
C624 C623 1.383 . S
C624 C625 1.377 1_556 S
C625 H609 0.930 . S
C625 C624 1.377 1_554 S
C625 C626 1.379 . S
C626 H610 0.931 . S
C626 C620 1.383 1_554 S
C626 C625 1.379 . S
H627 C621 0.959 . S
H628 C621 0.961 . S
H629 C621 0.960 . S
H630 C622 0.930 . S
H631 C623 0.929 . S
H632 C640 0.929 . S
H633 C642 0.930 . S
H634 C644 0.930 . S
H635 C647 0.929 . S
H636 C650 0.930 . S
H637 C652 0.960 . S
H638 C652 0.960 . S
H639 C652 0.960 . S
C640 H632 0.929 . S
C640 C641 1.377 1_556 S
C640 C642 1.384 . S
C641 C640 1.377 1_554 S
C641 C647 1.390 . S
C642 H633 0.930 . S
C642 C640 1.384 . S
C642 C643 1.372 1_556 S
C643 C642 1.372 1_554 S
C643 C644 1.400 . S
C643 C648 1.490 . S
C644 H634 0.930 . S
C644 C643 1.400 . S
C644 C647 1.386 . S
H645 C661 0.930 . S
H646 C662 0.931 . S
C647 H635 0.929 . S
C647 C641 1.390 . S
C647 C644 1.386 . S
C648 C643 1.490 . S
C648 C650 1.395 1_554 S
C648 C651 1.403 . S
H649 C655 0.930 . S
C650 H636 0.930 . S
C650 C648 1.395 1_556 S
C650 C653 1.403 . S
C651 C648 1.403 . S
C651 C652 1.524 . S
C651 C655 1.400 . S
C652 H637 0.960 . S
C652 H638 0.960 . S
C652 H639 0.960 . S
C652 C651 1.524 . S
C653 C650 1.403 . S
C653 C654 1.392 1_556 S
C653 C657 1.495 . S
C654 C653 1.392 1_554 S
C654 C655 1.385 . S
C654 C656 1.478 . S
C655 H649 0.930 . S
C655 C651 1.400 . S
C655 C654 1.385 . S
C656 C654 1.478 . S
C656 C658 1.370 1_554 S
C656 C662 1.394 . S
C657 C653 1.495 . S
C657 H663 0.959 . S
C657 H664 0.961 . S
C657 H665 0.960 . S
C658 C656 1.370 1_556 S
C658 C659 1.394 . S
C658 H666 0.930 . S
C659 C658 1.394 . S
C659 C660 1.383 1_556 S
C659 H667 0.929 . S
C660 C659 1.383 1_554 S
C660 C661 1.377 . S
C661 H645 0.930 . S
C661 C660 1.377 . S
C661 C662 1.379 . S
C662 H646 0.931 . S
C662 C656 1.394 . S
C662 C661 1.379 . S
H663 C657 0.959 . S
H664 C657 0.961 . S
H665 C657 0.960 . S
H666 C658 0.930 . S
H667 C659 0.929 . S
H668 C676 0.929 . S
H669 C678 0.930 . S
H670 C680 0.930 . S
H671 C683 0.929 . S
H672 C686 0.930 . S
H673 C688 0.960 . S
H674 C688 0.960 1_554 S
H675 C688 0.960 . S
C676 H668 0.929 . S
C676 C677 1.377 1_554 S
C676 C678 1.384 . S
C677 C676 1.377 1_556 S
C677 C683 1.390 . S
C678 H669 0.930 . S
C678 C676 1.384 . S
C678 C679 1.372 1_554 S
C679 C678 1.372 1_556 S
C679 C680 1.400 . S
C679 C684 1.490 . S
C680 H670 0.930 . S
C680 C679 1.400 . S
C680 C683 1.386 . S
H681 C697 0.930 . S
H682 C698 0.931 . S
C683 H671 0.929 . S
C683 C677 1.390 . S
C683 C680 1.386 . S
C684 C679 1.490 . S
C684 C686 1.395 . S
C684 C687 1.403 . S
H685 C691 0.930 . S
C686 H672 0.930 . S
C686 C684 1.395 . S
C686 C689 1.403 . S
C687 C684 1.403 . S
C687 C688 1.524 . S
C687 C691 1.400 . S
C688 H673 0.960 . S
C688 H674 0.960 1_556 S
C688 H675 0.960 . S
C688 C687 1.524 . S
C689 C686 1.403 . S
C689 C690 1.392 . S
C689 C693 1.495 . S
C690 C689 1.392 . S
C690 C691 1.385 . S
C690 C692 1.478 . S
C691 H685 0.930 . S
C691 C687 1.400 . S
C691 C690 1.385 . S
C692 C690 1.478 . S
C692 C694 1.381 1_556 S
C692 C698 1.383 . S
C693 C689 1.495 . S
C693 H699 0.959 . S
C693 H700 0.961 . S
C693 H701 0.960 1_556 S
C694 C692 1.381 1_554 S
C694 C695 1.394 . S
C694 H702 0.930 . S
C695 C694 1.394 . S
C695 C696 1.384 . S
C695 H703 0.929 . S
C696 C695 1.384 . S
C696 C697 1.376 1_554 S
C697 H681 0.930 . S
C697 C696 1.376 1_556 S
C697 C698 1.379 . S
C698 H682 0.931 . S
C698 C692 1.383 . S
C698 C697 1.379 . S
H699 C693 0.959 . S
H700 C693 0.961 . S
H701 C693 0.960 1_554 S
H702 C694 0.930 . S
H703 C695 0.929 . S
C300 C223 1.650 . S
C281 C39 1.567 . S
C336 C230 1.660 . S
C317 C113 1.573 . S
C372 C225 2.144 . S
C353 C69 2.143 . S
C408 C231 0.733 . S
C389 C125 0.735 . S
C425 C63 1.522 . S
C444 C224 1.604 . S
C480 C233 1.615 . S
C461 C137 1.544 . S
C497 C51 0.719 . S
C516 C222 0.726 . S
C533 C143 2.160 . S
C552 C232 2.165 . S
C569 C187 1.575 . S
C588 C227 1.661 1_556 S
C605 C217 2.152 . S
C624 C226 2.156 . S
C660 C229 0.727 . S
C641 C199 0.724 . S
C696 C228 1.614 . S
C677 C211 1.532 . S
