# Generated by pormake.
# Topology apo, (3,6)-cn, num edge types: 1
# Building blocks:
#     Node 0, Type 0, BuildingBlock: CUQRIR_clean_linker_1, # of connection points: 3
#     Node 1, Type 0, BuildingBlock: CUQRIR_clean_linker_1, # of connection points: 3
#     Node 2, Type 0, BuildingBlock: CUQRIR_clean_linker_1, # of connection points: 3
#     Node 3, Type 0, BuildingBlock: CUQRIR_clean_linker_1, # of connection points: 3
#     Node 4, Type 0, BuildingBlock: CUQRIR_clean_linker_1, # of connection points: 3
#     Node 5, Type 0, BuildingBlock: CUQRIR_clean_linker_1, # of connection points: 3
#     Node 6, Type 0, BuildingBlock: CUQRIR_clean_linker_1, # of connection points: 3
#     Node 7, Type 0, BuildingBlock: CUQRIR_clean_linker_1, # of connection points: 3
#     Node 8, Type 1, BuildingBlock: KUMBUR_clean_sbu_1, # of connection points: 6
#     Node 9, Type 1, BuildingBlock: KUMBUR_clean_sbu_1, # of connection points: 6
#     Node 10, Type 1, BuildingBlock: KUMBUR_clean_sbu_1, # of connection points: 6
#     Node 11, Type 1, BuildingBlock: KUMBUR_clean_sbu_1, # of connection points: 6
#     Edge 12, Type (0, 1), BuildingBlock: XUDNAN_clean_linker_2, # of connection points: 2
#     Edge 13, Type (0, 1), BuildingBlock: XUDNAN_clean_linker_2, # of connection points: 2
#     Edge 14, Type (0, 1), BuildingBlock: XUDNAN_clean_linker_2, # of connection points: 2
#     Edge 15, Type (0, 1), BuildingBlock: XUDNAN_clean_linker_2, # of connection points: 2
#     Edge 16, Type (0, 1), BuildingBlock: XUDNAN_clean_linker_2, # of connection points: 2
#     Edge 17, Type (0, 1), BuildingBlock: XUDNAN_clean_linker_2, # of connection points: 2
#     Edge 18, Type (0, 1), BuildingBlock: XUDNAN_clean_linker_2, # of connection points: 2
#     Edge 19, Type (0, 1), BuildingBlock: XUDNAN_clean_linker_2, # of connection points: 2
#     Edge 20, Type (0, 1), BuildingBlock: XUDNAN_clean_linker_2, # of connection points: 2
#     Edge 21, Type (0, 1), BuildingBlock: XUDNAN_clean_linker_2, # of connection points: 2
#     Edge 22, Type (0, 1), BuildingBlock: XUDNAN_clean_linker_2, # of connection points: 2
#     Edge 23, Type (0, 1), BuildingBlock: XUDNAN_clean_linker_2, # of connection points: 2
#     Edge 24, Type (0, 1), BuildingBlock: XUDNAN_clean_linker_2, # of connection points: 2
#     Edge 25, Type (0, 1), BuildingBlock: XUDNAN_clean_linker_2, # of connection points: 2
#     Edge 26, Type (0, 1), BuildingBlock: XUDNAN_clean_linker_2, # of connection points: 2
#     Edge 27, Type (0, 1), BuildingBlock: XUDNAN_clean_linker_2, # of connection points: 2
#     Edge 28, Type (0, 1), BuildingBlock: XUDNAN_clean_linker_2, # of connection points: 2
#     Edge 29, Type (0, 1), BuildingBlock: XUDNAN_clean_linker_2, # of connection points: 2
#     Edge 30, Type (0, 1), BuildingBlock: XUDNAN_clean_linker_2, # of connection points: 2
#     Edge 31, Type (0, 1), BuildingBlock: XUDNAN_clean_linker_2, # of connection points: 2
#     Edge 32, Type (0, 1), BuildingBlock: XUDNAN_clean_linker_2, # of connection points: 2
#     Edge 33, Type (0, 1), BuildingBlock: XUDNAN_clean_linker_2, # of connection points: 2
#     Edge 34, Type (0, 1), BuildingBlock: XUDNAN_clean_linker_2, # of connection points: 2
#     Edge 35, Type (0, 1), BuildingBlock: XUDNAN_clean_linker_2, # of connection points: 2
# Relax obj value: 0.045
# Max RMSD: 0.227
# Mean RMSD: 0.177
data_MOF--net-apo--node1-KUMBUR_clean_sbu_1--node2-CUQRIR_clean_linker_1--edge1-XUDNAN_clean_linker_2
_symmetry_space_group_name_H-M    P1
_symmetry_Int_Tables_number       1
_symmetry_cell_setting            triclinic
loop_
_symmetry_equiv_pos_as_xyz
'x, y, z'
_cell_length_a     25.887231
_cell_length_b     39.176981
_cell_length_c     46.884589
_cell_angle_alpha  90.153157
_cell_angle_beta   90.05466
_cell_angle_gamma 90.367949
loop_
_atom_site_label
_atom_site_type_symbol
_atom_site_fract_x
_atom_site_fract_y
_atom_site_fract_z
_atom_type_partial_charge
C0 C 0.28309 0.34531 0.42377 0.0
N1 N 0.31261 0.37361 0.42848 0.0
N2 N 0.25883 0.34716 0.39817 0.0
C3 C 0.2746 0.3172 0.44507 0.0
C4 C 0.27454 0.3776 0.38752 0.0
N5 N 0.30684 0.39371 0.4059 0.0
C6 C 0.25895 0.39147 0.35889 0.0
H7 H 0.30496 0.29765 0.44215 0.0
H8 H 0.23638 0.30476 0.44194 0.0
H9 H 0.27724 0.32716 0.46721 0.0
H10 H 0.22592 0.40905 0.36182 0.0
H11 H 0.24709 0.37063 0.34417 0.0
H12 H 0.29113 0.40618 0.34914 0.0
C13 C 0.26981 0.15892 0.92494 0.0
N14 N 0.24108 0.13013 0.92855 0.0
N15 N 0.28767 0.16094 0.89789 0.0
C16 C 0.28315 0.18406 0.94816 0.0
C17 C 0.26933 0.13235 0.88514 0.0
N18 N 0.24107 0.1136 0.90369 0.0
C19 C 0.27845 0.1227 0.85449 0.0
H20 H 0.25192 0.20323 0.94972 0.0
H21 H 0.31983 0.1977 0.94341 0.0
H22 H 0.28656 0.17103 0.96906 0.0
H23 H 0.29208 0.09593 0.85327 0.0
H24 H 0.3069 0.13982 0.84402 0.0
H25 H 0.24138 0.12401 0.84265 0.0
C26 C 0.73365 0.16497 0.62932 0.0
N27 N 0.77318 0.14248 0.6284 0.0
N28 N 0.70685 0.1617 0.65391 0.0
C29 C 0.72146 0.19056 0.6065 0.0
C30 C 0.73156 0.13657 0.66799 0.0
N31 N 0.77178 0.12468 0.65248 0.0
C32 C 0.7198 0.12632 0.69821 0.0
H33 H 0.74661 0.21334 0.60945 0.0
H34 H 0.68056 0.19873 0.60785 0.0
H35 H 0.72911 0.1797 0.58504 0.0
H36 H 0.67762 0.12701 0.70225 0.0
H37 H 0.73875 0.14473 0.71297 0.0
H38 H 0.73442 0.10034 0.70282 0.0
C39 C 0.75594 0.34973 0.12072 0.0
N40 N 0.7233 0.3766 0.11991 0.0
N41 N 0.76648 0.34081 0.14802 0.0
C42 C 0.77666 0.33181 0.09477 0.0
C43 C 0.73896 0.36325 0.1638 0.0
N44 N 0.71225 0.3848 0.14673 0.0
C45 C 0.73792 0.36349 0.19601 0.0
H46 H 0.74638 0.31441 0.08622 0.0
H47 H 0.81155 0.31676 0.09999 0.0
H48 H 0.78633 0.35052 0.07785 0.0
H49 H 0.77642 0.3713 0.20416 0.0
H50 H 0.72961 0.3374 0.20404 0.0
H51 H 0.70971 0.38155 0.2051 0.0
C52 C 0.72892 0.67682 0.62998 0.0
N53 N 0.69764 0.64936 0.62579 0.0
N54 N 0.75471 0.67407 0.65506 0.0
C55 C 0.73747 0.70487 0.60863 0.0
C56 C 0.73786 0.644 0.66594 0.0
N57 N 0.70351 0.62898 0.64812 0.0
C58 C 0.75416 0.62952 0.69421 0.0
H59 H 0.77668 0.71616 0.61086 0.0
H60 H 0.70868 0.72523 0.61242 0.0
H61 H 0.73234 0.69521 0.58654 0.0
H62 H 0.76643 0.65009 0.70911 0.0
H63 H 0.78716 0.61206 0.69076 0.0
H64 H 0.72225 0.61459 0.70401 0.0
C65 C 0.77088 0.84895 0.11803 0.0
N66 N 0.79538 0.87965 0.11662 0.0
N67 N 0.75618 0.84191 0.14519 0.0
C68 C 0.75876 0.82676 0.09256 0.0
C69 C 0.77285 0.86943 0.16027 0.0
N70 N 0.79644 0.89235 0.14296 0.0
C71 C 0.76288 0.87485 0.19161 0.0
H72 H 0.72952 0.83962 0.07908 0.0
H73 H 0.74418 0.80124 0.0989 0.0
H74 H 0.79381 0.82303 0.07943 0.0
H75 H 0.79033 0.85915 0.20404 0.0
H76 H 0.72312 0.86644 0.19714 0.0
H77 H 0.76817 0.90187 0.19809 0.0
C78 C 0.24369 0.84147 0.41633 0.0
N79 N 0.21138 0.86779 0.42197 0.0
N80 N 0.26746 0.84592 0.39082 0.0
C81 C 0.24727 0.80954 0.43397 0.0
C82 C 0.24912 0.87634 0.3817 0.0
N83 N 0.21432 0.88936 0.40019 0.0
C84 C 0.26313 0.89294 0.3538 0.0
H85 H 0.28384 0.81027 0.44632 0.0
H86 H 0.24803 0.78662 0.42003 0.0
H87 H 0.21448 0.80719 0.44907 0.0
H88 H 0.23267 0.88734 0.33776 0.0
H89 H 0.30076 0.8835 0.34577 0.0
H90 H 0.26514 0.92107 0.35652 0.0
C91 C 0.26763 0.67484 0.9172 0.0
N92 N 0.28841 0.64533 0.92673 0.0
N93 N 0.24866 0.67084 0.89048 0.0
C94 C 0.26658 0.70787 0.93378 0.0
C95 C 0.25824 0.63757 0.88419 0.0
N96 N 0.28294 0.62189 0.90624 0.0
C97 C 0.24204 0.62024 0.85672 0.0
H98 H 0.27197 0.72999 0.91934 0.0
H99 H 0.29656 0.709 0.95059 0.0
H100 H 0.22843 0.71027 0.94432 0.0
H101 H 0.27529 0.60677 0.84703 0.0
H102 H 0.22529 0.63769 0.84084 0.0
H103 H 0.21095 0.60151 0.8613 0.0
Tb104 Tb 0.06062 0.12265 0.2498 0.0
C105 C 0.82948 0.11211 0.29293 0.0
N106 N 0.86272 0.13864 0.29709 0.0
C107 C 0.7955 0.17821 0.28558 0.0
C108 C 0.77792 0.11753 0.28459 0.0
C109 C 0.84626 0.17151 0.29406 0.0
C110 C 0.76123 0.15111 0.28068 0.0
C111 C 0.81419 0.051 0.29414 0.0
C112 C 0.84729 0.07936 0.29743 0.0
C113 C 0.76289 0.05612 0.28541 0.0
C114 C 0.74481 0.08932 0.2806 0.0
Tb115 Tb 0.94571 0.12434 0.30857 0.0
N116 N 0.89759 0.07548 0.30512 0.0
C117 C 0.83364 0.0185 0.30004 0.0
C118 C 0.91572 0.04425 0.31274 0.0
C119 C 0.88443 0.01519 0.30981 0.0
H120 H 0.87222 0.19266 0.29824 0.0
H121 H 0.89932 0.99032 0.31535 0.0
H122 H 0.14328 0.06168 0.26796 0.0
H123 H 0.07908 0.25982 0.24173 0.0
H124 H 0.95389 0.04189 0.32142 0.0
H125 H 0.80947 0.99597 0.2978 0.0
H126 H 0.03277 0.20492 0.23928 0.0
H127 H 0.78281 0.20428 0.28292 0.0
H128 H 0.7368 0.03464 0.28255 0.0
H129 H 0.70506 0.09292 0.27407 0.0
H130 H 0.23527 0.05847 0.2815 0.0
H131 H 0.72191 0.15639 0.27419 0.0
H132 H 0.17195 0.26135 0.25422 0.0
N133 N 0.14425 0.11573 0.26326 0.0
C134 C 0.17289 0.14493 0.2643 0.0
C135 C 0.21815 0.08293 0.27674 0.0
C136 C 0.22582 0.14415 0.27123 0.0
C137 C 0.16588 0.0849 0.26936 0.0
C138 C 0.2483 0.11265 0.27757 0.0
N139 N 0.09724 0.17564 0.25265 0.0
C140 C 0.07252 0.20518 0.24583 0.0
C141 C 0.1772 0.20659 0.25947 0.0
C142 C 0.14875 0.17584 0.25874 0.0
C143 C 0.1515 0.23714 0.25373 0.0
C144 C 0.09901 0.2364 0.24678 0.0
H145 H 0.28886 0.11098 0.28309 0.0
H146 H 0.29532 0.17462 0.27666 0.0
H147 H 0.25295 0.22915 0.26596 0.0
O148 O 0.04728 0.13377 0.20668 0.0
O149 O 0.07458 0.147 0.29223 0.0
O150 O 0.99601 0.16881 0.3056 0.0
O151 O 0.10995 0.10122 0.21857 0.0
O152 O 0.98737 0.1469 0.23859 0.0
O153 O 0.95428 0.16853 0.2805 0.0
O154 O 0.96146 0.11002 0.35107 0.0
O155 O 0.93113 0.09684 0.2682 0.0
O156 O 0.00817 0.07841 0.24827 0.0
O157 O 0.90584 0.14881 0.34187 0.0
O158 O 0.01877 0.09722 0.31712 0.0
O159 O 0.0514 0.07596 0.27464 0.0
C160 C 0.04664 0.16912 0.30671 0.0
C161 C 0.11915 0.13381 0.17598 0.0
C162 C 0.14844 0.13886 0.12653 0.0
C163 C 0.17243 0.17008 0.13345 0.0
C164 C 0.14338 0.16508 0.18219 0.0
C165 C 0.17012 0.18293 0.16114 0.0
C166 C 0.12227 0.12052 0.14805 0.0
C167 C 0.95447 0.16602 0.25255 0.0
C168 C 0.08678 0.11649 0.19759 0.0
C169 C 0.25448 0.17471 0.2716 0.0
C170 C 0.2303 0.20581 0.26559 0.0
C171 C 0.95732 0.07833 0.24976 0.0
C172 C 0.89111 0.11549 0.38305 0.0
C173 C 0.8649 0.10778 0.43299 0.0
C174 C 0.82092 0.08975 0.42334 0.0
C175 C 0.84701 0.09738 0.3743 0.0
C176 C 0.90017 0.12045 0.41244 0.0
C177 C 0.81239 0.08445 0.39431 0.0
C178 C 0.04244 0.07346 0.30222 0.0
C179 C 0.92672 0.13031 0.3617 0.0
H180 H 0.19328 0.18447 0.11741 0.0
H181 H 0.14088 0.1762 0.20305 0.0
H182 H 0.18856 0.20706 0.16625 0.0
H183 H 0.10305 0.09663 0.14285 0.0
H184 H 0.79199 0.08049 0.43812 0.0
H185 H 0.8387 0.0937 0.35203 0.0
H186 H 0.93443 0.13432 0.41917 0.0
H187 H 0.7782 0.07079 0.38724 0.0
Tb188 Tb 0.43419 0.40245 0.75261 0.0
C189 C 0.66215 0.43974 0.77183 0.0
N190 N 0.6444 0.40764 0.77686 0.0
C191 C 0.71926 0.3841 0.75418 0.0
C192 C 0.709 0.44526 0.75715 0.0
C193 C 0.67255 0.37989 0.76872 0.0
C194 C 0.73748 0.41693 0.74824 0.0
C195 C 0.64933 0.50084 0.77521 0.0
C196 C 0.63242 0.46714 0.78067 0.0
C197 C 0.69596 0.50646 0.76062 0.0
C198 C 0.72567 0.47875 0.75157 0.0
Tb199 Tb 0.56703 0.40375 0.79977 0.0
N200 N 0.58631 0.46079 0.79374 0.0
C201 C 0.61869 0.52795 0.78435 0.0
C202 C 0.55655 0.48739 0.8026 0.0
C203 C 0.57208 0.52117 0.79805 0.0
H204 H 0.65941 0.3544 0.77374 0.0
H205 H 0.54798 0.54199 0.80517 0.0
H206 H 0.403 0.48332 0.74584 0.0
H207 H 0.3152 0.28905 0.75951 0.0
H208 H 0.52093 0.48327 0.81317 0.0
H209 H 0.63068 0.55416 0.78098 0.0
H210 H 0.3955 0.32176 0.75011 0.0
H211 H 0.74126 0.36203 0.74764 0.0
H212 H 0.70922 0.53217 0.75607 0.0
H213 H 0.76141 0.48348 0.7402 0.0
H214 H 0.32463 0.5187 0.75092 0.0
H215 H 0.77361 0.42011 0.73687 0.0
H216 H 0.23535 0.31947 0.77309 0.0
N217 N 0.36477 0.4373 0.75757 0.0
C218 C 0.31949 0.42202 0.76468 0.0
C219 C 0.32271 0.49153 0.75496 0.0
C220 C 0.27384 0.44103 0.76775 0.0
C221 C 0.36697 0.4715 0.75216 0.0
C222 C 0.27594 0.47624 0.76285 0.0
N223 N 0.36223 0.36969 0.7604 0.0
C224 C 0.36099 0.33508 0.75652 0.0
C225 C 0.27125 0.3695 0.77119 0.0
C226 C 0.31823 0.38687 0.76631 0.0
C227 C 0.27064 0.33382 0.76946 0.0
C228 C 0.3156 0.31656 0.76171 0.0
H229 H 0.24161 0.49176 0.76476 0.0
H230 H 0.19195 0.43827 0.7772 0.0
H231 H 0.1897 0.3755 0.78028 0.0
O232 O 0.471 0.39713 0.7126 0.0
O233 O 0.43305 0.36604 0.78819 0.0
O234 O 0.51355 0.36264 0.81154 0.0
O235 O 0.3891 0.40477 0.71531 0.0
O236 O 0.48392 0.35743 0.74755 0.0
O237 O 0.56323 0.3584 0.77273 0.0
O238 O 0.59114 0.42064 0.8406 0.0
O239 O 0.56167 0.41566 0.7543 0.0
O240 O 0.48746 0.44568 0.75215 0.0
O241 O 0.62211 0.3751 0.82208 0.0
O242 O 0.4954 0.4194 0.82047 0.0
O243 O 0.44403 0.44213 0.78536 0.0
C244 C 0.46523 0.35278 0.807 0.0
C245 C 0.43027 0.42513 0.67383 0.0
C246 C 0.42235 0.43473 0.62226 0.0
C247 C 0.42802 0.46999 0.62721 0.0
C248 C 0.43601 0.46035 0.67811 0.0
C249 C 0.43483 0.48259 0.6549 0.0
C250 C 0.42372 0.41239 0.64588 0.0
C251 C 0.53005 0.3452 0.75414 0.0
C252 C 0.4284 0.40155 0.69831 0.0
C253 C 0.22738 0.42409 0.77438 0.0
C254 C 0.22611 0.38834 0.77616 0.0
C255 C 0.53501 0.44093 0.74381 0.0
C256 C 0.60867 0.37471 0.87204 0.0
C257 C 0.61371 0.3705 0.92441 0.0
C258 C 0.59271 0.33725 0.92232 0.0
C259 C 0.58686 0.34182 0.87107 0.0
C260 C 0.6215 0.38914 0.89882 0.0
C261 C 0.57895 0.32335 0.89599 0.0
C262 C 0.4546 0.4367 0.81247 0.0
C263 C 0.61872 0.39351 0.8451 0.0
H264 H 0.42771 0.48787 0.60964 0.0
H265 H 0.4408 0.47064 0.69938 0.0
H266 H 0.4388 0.50977 0.65839 0.0
H267 H 0.41851 0.38518 0.64266 0.0
H268 H 0.58781 0.32134 0.94095 0.0
H269 H 0.57657 0.33006 0.85095 0.0
H270 H 0.6374 0.41475 0.89956 0.0
H271 H 0.56277 0.29783 0.89486 0.0
Tb272 Tb 0.05413 0.9081 0.73974 0.0
C273 C 0.8487 0.85163 0.78994 0.0
N274 N 0.86938 0.88342 0.78713 0.0
C275 C 0.78933 0.90359 0.76773 0.0
C276 C 0.79761 0.84446 0.78132 0.0
C277 C 0.84001 0.90958 0.77689 0.0
C278 C 0.76805 0.87088 0.76987 0.0
C279 C 0.85922 0.79291 0.80479 0.0
C280 C 0.87909 0.8263 0.80161 0.0
C281 C 0.8085 0.7855 0.79598 0.0
C282 C 0.77758 0.81132 0.78459 0.0
Tb283 Tb 0.95131 0.89068 0.80454 0.0
N284 N 0.92744 0.83467 0.81067 0.0
C285 C 0.89037 0.7682 0.81749 0.0
C286 C 0.95641 0.81112 0.82485 0.0
C287 C 0.93899 0.77747 0.82786 0.0
H288 H 0.85461 0.93535 0.77657 0.0
H289 H 0.96258 0.75894 0.83884 0.0
H290 H 0.15585 0.85729 0.75176 0.0
H291 H 0.05028 0.04392 0.72248 0.0
H292 H 0.99196 0.8183 0.83497 0.0
H293 H 0.8766 0.74224 0.82026 0.0
H294 H 0.01931 0.98426 0.71769 0.0
H295 H 0.76639 0.92436 0.7595 0.0
H296 H 0.79253 0.76003 0.79831 0.0
H297 H 0.73828 0.80536 0.77825 0.0
H298 H 0.24182 0.8626 0.7738 0.0
H299 H 0.72863 0.86638 0.76296 0.0
H300 H 0.13374 0.05602 0.74653 0.0
N301 N 0.13813 0.90989 0.7558 0.0
C302 C 0.15837 0.94156 0.76029 0.0
C303 C 0.21831 0.88504 0.77071 0.0
C304 C 0.20826 0.94622 0.77176 0.0
C305 C 0.16876 0.88192 0.759 0.0
C306 C 0.23774 0.91732 0.77775 0.0
N307 N 0.08214 0.96351 0.74077 0.0
C308 C 0.0548 0.98953 0.72896 0.0
C309 C 0.14957 1.00275 0.75489 0.0
C310 C 0.12979 0.96939 0.75192 0.0
C311 C 0.11995 0.02993 0.74473 0.0
C312 C 0.07272 0.02322 0.73125 0.0
H313 H 0.27629 0.91972 0.78659 0.0
H314 H 0.26561 0.98361 0.78508 0.0
H315 H 0.21417 0.03318 0.77019 0.0
O316 O 0.03072 0.91702 0.69741 0.0
O317 O 0.04543 0.94294 0.77621 0.0
O318 O 0.02965 0.90823 0.81435 0.0
O319 O 0.10529 0.89638 0.70617 0.0
O320 O 0.97419 0.92558 0.73599 0.0
O321 O 0.94815 0.93985 0.78182 0.0
O322 O 0.93148 0.87955 0.8471 0.0
O323 O 0.93426 0.87404 0.7607 0.0
O324 O 0.01236 0.85927 0.74103 0.0
O325 O 0.92197 0.93004 0.83058 0.0
O326 O 0.02677 0.86453 0.80828 0.0
O327 O 0.06522 0.85982 0.76309 0.0
C328 C 0.05336 0.93438 0.80281 0.0
C329 C 0.06406 0.87837 0.66376 0.0
C330 C 0.06545 0.86203 0.61342 0.0
C331 C 0.04258 0.83059 0.62055 0.0
C332 C 0.04215 0.84651 0.67041 0.0
C333 C 0.03138 0.82284 0.64891 0.0
C334 C 0.0764 0.88591 0.63518 0.0
C335 C 0.9494 0.94543 0.75399 0.0
C336 C 0.07231 0.90412 0.68638 0.0
C337 C 0.22758 0.97948 0.77598 0.0
C338 C 0.19833 1.00771 0.76747 0.0
C339 C 0.96291 0.85339 0.74549 0.0
C340 C 0.86721 0.91312 0.86881 0.0
C341 C 0.82287 0.92075 0.91451 0.0
C342 C 0.77528 0.91935 0.90002 0.0
C343 C 0.81922 0.91161 0.85499 0.0
C344 C 0.86888 0.91733 0.89869 0.0
C345 C 0.77359 0.91469 0.87052 0.0
C346 C 0.05973 0.85039 0.79011 0.0
C347 C 0.91584 0.91024 0.8526 0.0
H348 H 0.03387 0.81188 0.60415 0.0
H349 H 0.0331 0.83992 0.69215 0.0
H350 H 0.01412 0.79843 0.65426 0.0
H351 H 0.0934 0.91042 0.62982 0.0
H352 H 0.73923 0.92144 0.91159 0.0
H353 H 0.81684 0.90809 0.83225 0.0
H354 H 0.90588 0.91848 0.90952 0.0
H355 H 0.73672 0.91346 0.85965 0.0
Tb356 Tb 0.46982 0.61382 0.24181 0.0
C357 C 0.68699 0.64233 0.29547 0.0
N358 N 0.65569 0.61429 0.29572 0.0
C359 C 0.72859 0.57888 0.28466 0.0
C360 C 0.73999 0.63984 0.28886 0.0
C361 C 0.67663 0.58254 0.29215 0.0
C362 C 0.76025 0.6077 0.28255 0.0
C363 C 0.69831 0.70259 0.30614 0.0
C364 C 0.66656 0.67336 0.3038 0.0
C365 C 0.75073 0.70045 0.29871 0.0
C366 C 0.77144 0.66919 0.2899 0.0
Tb367 Tb 0.57119 0.62456 0.30791 0.0
N368 N 0.61553 0.67473 0.31017 0.0
C369 C 0.67641 0.73299 0.31605 0.0
C370 C 0.5944 0.70385 0.32106 0.0
C371 C 0.62428 0.73355 0.32371 0.0
H372 H 0.65416 0.55966 0.29568 0.0
H373 H 0.60722 0.75675 0.33188 0.0
H374 H 0.36242 0.6433 0.27042 0.0
H375 H 0.5028 0.4945 0.18654 0.0
H376 H 0.55445 0.70413 0.32754 0.0
H377 H 0.69953 0.75601 0.3182 0.0
H378 H 0.51855 0.55516 0.19808 0.0
H379 H 0.74448 0.55372 0.28121 0.0
H380 H 0.77568 0.72271 0.3 0.0
H381 H 0.81215 0.66779 0.28469 0.0
H382 H 0.27987 0.61991 0.28885 0.0
H383 H 0.80072 0.6047 0.27728 0.0
H384 H 0.4312 0.46314 0.20986 0.0
N385 N 0.39139 0.59489 0.2581 0.0
C386 C 0.38098 0.56116 0.25469 0.0
C387 C 0.30816 0.60305 0.27948 0.0
C388 C 0.33468 0.54659 0.26482 0.0
C389 C 0.35478 0.61626 0.26903 0.0
C390 C 0.29844 0.56795 0.27784 0.0
N391 N 0.45843 0.55771 0.22898 0.0
C392 C 0.4879 0.54158 0.20893 0.0
C393 C 0.40539 0.50718 0.2338 0.0
C394 C 0.41612 0.54178 0.2398 0.0
C395 C 0.43822 0.48968 0.21522 0.0
C396 C 0.47868 0.5073 0.20203 0.0
H397 H 0.26233 0.55777 0.28593 0.0
H398 H 0.29045 0.49966 0.26875 0.0
H399 H 0.35225 0.46513 0.24126 0.0
O400 O 0.45319 0.60922 0.19806 0.0
O401 O 0.44968 0.6002 0.28632 0.0
O402 O 0.5238 0.57834 0.30522 0.0
O403 O 0.4318 0.65426 0.2209 0.0
O404 O 0.54831 0.59304 0.23769 0.0
O405 O 0.57085 0.57646 0.28314 0.0
O406 O 0.53973 0.63001 0.34917 0.0
O407 O 0.57239 0.66389 0.27413 0.0
O408 O 0.54773 0.6337 0.23426 0.0
O409 O 0.61785 0.61354 0.34331 0.0
O410 O 0.49801 0.65295 0.31117 0.0
O411 O 0.46656 0.66219 0.26509 0.0
C412 C 0.47334 0.57857 0.30317 0.0
C413 C 0.38214 0.63895 0.17974 0.0
C414 C 0.34116 0.63846 0.13255 0.0
C415 C 0.29263 0.64078 0.14593 0.0
C416 C 0.33342 0.64133 0.19258 0.0
C417 C 0.28894 0.64207 0.17569 0.0
C418 C 0.38569 0.63721 0.14986 0.0
C419 C 0.57167 0.57207 0.25526 0.0
C420 C 0.43027 0.63836 0.19654 0.0
C421 C 0.3255 0.51152 0.26081 0.0
C422 C 0.36078 0.49183 0.24524 0.0
C423 C 0.56851 0.6608 0.24625 0.0
C424 C 0.57585 0.595 0.38494 0.0
C425 C 0.57772 0.58351 0.43617 0.0
C426 C 0.5738 0.54839 0.43022 0.0
C427 C 0.57154 0.55992 0.37942 0.0
C428 C 0.57852 0.60668 0.41325 0.0
C429 C 0.57077 0.53677 0.40203 0.0
C430 C 0.46862 0.66932 0.29261 0.0
C431 C 0.58166 0.61976 0.36168 0.0
H432 H 0.25752 0.64238 0.13347 0.0
H433 H 0.3297 0.64281 0.21551 0.0
H434 H 0.25141 0.64407 0.1857 0.0
H435 H 0.42348 0.63479 0.14015 0.0
H436 H 0.57312 0.5299 0.44735 0.0
H437 H 0.56996 0.55046 0.35769 0.0
H438 H 0.58309 0.63378 0.41735 0.0
H439 H 0.56879 0.50969 0.39773 0.0
H440 H 0.20685 0.95791 0.40882 0.0
H441 H 0.13387 0.87073 0.36847 0.0
H442 H 0.07712 0.909 0.34099 0.0
H443 H 0.08493 0.0121 0.41164 0.0
H444 H 0.12091 0.05072 0.40463 0.0
H445 H 0.15056 0.01637 0.4241 0.0
H446 H 0.22564 0.01586 0.38762 0.0
H447 H 0.19575 0.04961 0.36769 0.0
H448 H 0.21143 0.00995 0.35026 0.0
H449 H 0.04348 0.95547 0.31088 0.0
H450 H 0.01918 0.00888 0.28651 0.0
H451 H 0.10458 0.06762 0.34947 0.0
C452 C 0.17713 0.94715 0.39519 0.0
C453 C 0.17357 0.91153 0.391 0.0
C454 C 0.13585 0.898 0.37224 0.0
C455 C 0.10394 0.91951 0.35645 0.0
C456 C 0.10963 0.95459 0.36007 0.0
C457 C 0.14401 0.96846 0.3796 0.0
C458 C 0.14357 1.00721 0.37818 0.0
C459 C 0.1238 0.0225 0.40631 0.0
C460 C 0.19729 0.02147 0.37048 0.0
C461 C 0.10526 0.01269 0.35411 0.0
C462 C 0.08677 0.98187 0.34378 0.0
C463 C 0.05608 0.97985 0.31939 0.0
C464 C 0.0429 0.01018 0.30555 0.0
C465 C 0.05892 0.04209 0.31668 0.0
C466 C 0.09053 0.04343 0.34122 0.0
H467 H 0.24746 0.56059 0.88468 0.0
H468 H 0.38197 0.60948 0.92232 0.0
H469 H 0.43318 0.55881 0.91178 0.0
H470 H 0.28255 0.46843 0.88855 0.0
H471 H 0.26387 0.46093 0.852 0.0
H472 H 0.23116 0.49293 0.87286 0.0
H473 H 0.25291 0.53856 0.8346 0.0
H474 H 0.28485 0.50639 0.81405 0.0
H475 H 0.31929 0.54471 0.82392 0.0
H476 H 0.47202 0.50495 0.89336 0.0
H477 H 0.50322 0.46202 0.85963 0.0
H478 H 0.35364 0.46035 0.81755 0.0
C479 C 0.28761 0.56095 0.89071 0.0
C480 C 0.30993 0.58949 0.90481 0.0
C481 C 0.36254 0.58772 0.91302 0.0
C482 C 0.39241 0.55898 0.90667 0.0
C483 C 0.37005 0.5327 0.89073 0.0
C484 C 0.31921 0.53395 0.88204 0.0
C485 C 0.30855 0.50788 0.85864 0.0
C486 C 0.26919 0.48094 0.86862 0.0
C487 C 0.29038 0.52551 0.83118 0.0
C488 C 0.36178 0.49242 0.85503 0.0
C489 C 0.39554 0.50577 0.87508 0.0
C490 C 0.44624 0.49478 0.87722 0.0
C491 C 0.46358 0.47038 0.85774 0.0
C492 C 0.43162 0.45885 0.83495 0.0
C493 C 0.3795 0.46948 0.83405 0.0
H494 H 0.61077 0.61889 0.67268 0.0
H495 H 0.74241 0.56732 0.6365 0.0
H496 H 0.70687 0.51159 0.65231 0.0
H497 H 0.60733 0.57296 0.73363 0.0
H498 H 0.53833 0.56944 0.73837 0.0
H499 H 0.56539 0.605 0.71915 0.0
H500 H 0.51143 0.59185 0.67481 0.0
H501 H 0.48091 0.55655 0.69293 0.0
H502 H 0.51267 0.54986 0.65914 0.0
H503 H 0.66374 0.46347 0.67726 0.0
H504 H 0.61555 0.42515 0.7093 0.0
H505 H 0.51153 0.50765 0.73093 0.0
C506 C 0.63061 0.59555 0.66716 0.0
C507 C 0.67823 0.59677 0.65266 0.0
C508 C 0.70509 0.56631 0.64687 0.0
C509 C 0.68524 0.53476 0.65584 0.0
C510 C 0.63862 0.53432 0.67072 0.0
C511 C 0.61138 0.56387 0.67622 0.0
C512 C 0.56531 0.55675 0.69532 0.0
C513 C 0.5693 0.57723 0.7233 0.0
C514 C 0.51453 0.56418 0.67962 0.0
C515 C 0.57179 0.5188 0.70042 0.0
C516 C 0.614 0.50639 0.68571 0.0
C517 C 0.63005 0.47273 0.68844 0.0
C518 C 0.60251 0.45119 0.70679 0.0
C519 C 0.55956 0.46338 0.72239 0.0
C520 C 0.54357 0.49751 0.71881 0.0
H521 H 0.89371 0.90961 0.1585 0.0
H522 H 0.73864 0.94834 0.14948 0.0
H523 H 0.7651 1.00236 0.17302 0.0
H524 H 0.91466 0.94117 0.22712 0.0
H525 H 0.98186 0.95213 0.22251 0.0
H526 H 0.95326 0.91857 0.20134 0.0
H527 H 0.98152 0.94929 0.15498 0.0
H528 H 0.0109 0.98276 0.17603 0.0
H529 H 0.96333 0.99311 0.14937 0.0
H530 H 0.80506 0.04848 0.20247 0.0
H531 H 0.85744 0.08627 0.2331 0.0
H532 H 0.98832 0.01845 0.22364 0.0
C533 C 0.86621 0.93016 0.16056 0.0
C534 C 0.81466 0.92565 0.15138 0.0
C535 C 0.77866 0.95214 0.15549 0.0
C536 C 0.7933 0.98264 0.16905 0.0
C537 C 0.84416 0.98614 0.17848 0.0
C538 C 0.88034 0.96083 0.17417 0.0
C539 C 0.93143 0.97021 0.18823 0.0
C540 C 0.94614 0.94396 0.21115 0.0
C541 C 0.97434 0.97408 0.16581 0.0
C542 C 0.91799 1.00438 0.20154 0.0
C543 C 0.86741 0.01299 0.19561 0.0
C544 C 0.84495 0.04227 0.20687 0.0
C545 C 0.87499 0.06346 0.22446 0.0
C546 C 0.92709 0.05543 0.23072 0.0
C547 C 0.94887 0.02553 0.21891 0.0
H548 H 0.79112 0.05784 0.64286 0.0
H549 H 0.8415 0.14667 0.6904 0.0
H550 H 0.89466 0.11014 0.72169 0.0
H551 H 0.77695 1.00304 0.69874 0.0
H552 H 0.8023 0.96529 0.68189 0.0
H553 H 0.77399 0.99835 0.66049 0.0
H554 H 0.85799 1.00406 0.63082 0.0
H555 H 0.88603 0.97014 0.6515 0.0
H556 H 0.91875 0.01076 0.64887 0.0
H557 H 0.928 0.06326 0.7529 0.0
H558 H 0.95644 0.00969 0.7759 0.0
H559 H 0.8915 0.95132 0.70571 0.0
C560 C 0.81548 0.06953 0.65896 0.0
C561 C 0.81324 0.10493 0.66415 0.0
C562 C 0.84392 0.11958 0.686 0.0
C563 C 0.87364 0.09902 0.70396 0.0
C564 C 0.87308 0.06391 0.69931 0.0
C565 C 0.84633 0.04932 0.67673 0.0
C566 C 0.85115 0.01078 0.67705 0.0
C567 C 0.79792 0.99336 0.6797 0.0
C568 C 0.88022 0.99819 0.65048 0.0
C569 C 0.88299 1.006 0.70387 0.0
C570 C 0.89473 0.03695 0.71658 0.0
C571 C 0.92011 0.0389 0.74282 0.0
C572 C 0.93542 1.00843 0.75593 0.0
C573 C 0.92621 0.97667 0.74244 0.0
C574 C 0.89937 0.97545 0.71623 0.0
H575 H 0.72049 0.45369 0.14396 0.0
H576 H 0.62274 0.37091 0.17291 0.0
H577 H 0.57789 0.41023 0.20586 0.0
H578 H 0.7386 0.49578 0.20645 0.0
H579 H 0.73192 0.53893 0.1938 0.0
H580 H 0.75282 0.50589 0.16977 0.0
H581 H 0.67758 0.51885 0.135 0.0
H582 H 0.65788 0.55306 0.15827 0.0
H583 H 0.61234 0.52009 0.1484 0.0
H584 H 0.56049 0.45476 0.24352 0.0
H585 H 0.54379 0.50789 0.27069 0.0
H586 H 0.64187 0.56434 0.21242 0.0
C587 C 0.68789 0.44445 0.15621 0.0
C588 C 0.67517 0.4094 0.15639 0.0
C589 C 0.6326 0.39781 0.17268 0.0
C590 C 0.60761 0.4198 0.19171 0.0
C591 C 0.62411 0.45365 0.19302 0.0
C592 C 0.66099 0.46649 0.17452 0.0
C593 C 0.67013 0.50426 0.17986 0.0
C594 C 0.72674 0.51162 0.18794 0.0
C595 C 0.65347 0.52531 0.15384 0.0
C596 C 0.63448 0.51011 0.20501 0.0
C597 C 0.60951 0.48031 0.21281 0.0
C598 C 0.57854 0.47852 0.23711 0.0
C599 C 0.56993 0.50859 0.25267 0.0
C600 C 0.59116 0.53994 0.24331 0.0
C601 C 0.62478 0.54059 0.21965 0.0
H602 H 0.40087 0.40508 0.38327 0.0
H603 H 0.2632 0.45484 0.41388 0.0
H604 H 0.29309 0.50958 0.39288 0.0
H605 H 0.48996 0.47812 0.39251 0.0
H606 H 0.52509 0.46985 0.35997 0.0
H607 H 0.49646 0.43505 0.37961 0.0
H608 H 0.44473 0.41536 0.3356 0.0
H609 H 0.47348 0.44915 0.31494 0.0
H610 H 0.40418 0.44536 0.31715 0.0
H611 H 0.33178 0.55609 0.36215 0.0
H612 H 0.38195 0.59317 0.3295 0.0
H613 H 0.49638 0.5137 0.32002 0.0
C614 C 0.37852 0.428 0.38661 0.0
C615 C 0.33072 0.42638 0.40094 0.0
C616 C 0.30074 0.4562 0.40376 0.0
C617 C 0.31717 0.48715 0.39162 0.0
C618 C 0.36372 0.48772 0.37665 0.0
C619 C 0.39439 0.45904 0.37448 0.0
C620 C 0.44106 0.46587 0.35578 0.0
C621 C 0.49118 0.46202 0.37298 0.0
C622 C 0.44081 0.44254 0.32931 0.0
C623 C 0.43174 0.50273 0.3476 0.0
C624 C 0.38657 0.51476 0.35956 0.0
C625 C 0.36773 0.54715 0.35315 0.0
C626 C 0.39615 0.56791 0.33438 0.0
C627 C 0.44305 0.55632 0.32243 0.0
C628 C 0.46104 0.52337 0.32926 0.0
H629 H 0.15394 0.1085 0.87282 0.0
H630 H 0.27244 0.04947 0.91433 0.0
H631 H 0.23356 0.99617 0.89544 0.0
H632 H 0.04625 0.04607 0.87678 0.0
H633 H 0.02419 0.05574 0.84125 0.0
H634 H 0.05577 0.08825 0.86235 0.0
H635 H 0.12208 0.09746 0.82181 0.0
H636 H 0.09162 0.06448 0.80079 0.0
H637 H 0.15948 0.06189 0.80918 0.0
H638 H 0.18313 0.94961 0.8705 0.0
H639 H 0.12859 0.91352 0.8389 0.0
H640 H 0.05094 1.00377 0.80786 0.0
C641 C 0.17011 0.08411 0.87876 0.0
C642 C 0.21384 0.08262 0.89666 0.0
C643 C 0.23663 0.05072 0.90251 0.0
C644 C 0.21535 0.02047 0.89138 0.0
C645 C 0.17232 0.02277 0.8736 0.0
C646 C 0.15024 0.05383 0.86706 0.0
C647 C 0.10797 0.04971 0.84489 0.0
C648 C 0.05543 0.06058 0.85705 0.0
C649 C 0.1211 0.06955 0.81754 0.0
C650 C 0.10983 0.01153 0.83992 0.0
C651 C 0.14661 0.99638 0.85705 0.0
C652 C 0.15435 0.96119 0.85693 0.0
C653 C 0.12331 0.94093 0.83902 0.0
C654 C 0.08609 0.95607 0.82106 0.0
C655 C 0.07961 0.99178 0.8213 0.0
H656 H 0.17334 0.16614 0.95992 0.0
H657 H 0.25949 0.07211 0.95809 0.0
H658 H 0.23005 0.05864 1.00677 0.0
H659 H 0.21498 0.18828 0.02647 0.0
H660 H 0.1566 0.20905 0.03793 0.0
H661 H 0.17192 0.20675 1.00061 0.0
H662 H 0.08386 0.17736 0.99036 0.0
H663 H 0.06796 0.17978 0.02775 0.0
H664 H 0.06623 0.1392 1.00954 0.0
H665 H 0.20158 0.05952 0.05825 0.0
H666 H 0.18278 0.07665 0.1081 0.0
H667 H 0.12317 0.17311 0.07792 0.0
C668 C 0.18418 0.14211 0.96949 0.0
C669 C 0.21669 0.11934 0.95472 0.0
C670 C 0.23209 0.08882 0.96822 0.0
C671 C 0.21607 0.08126 0.99613 0.0
C672 C 0.18528 0.1048 1.01049 0.0
C673 C 0.16969 0.13475 0.9976 0.0
C674 C 0.1442 0.15844 1.01887 0.0
C675 C 0.1737 0.19262 1.0211 0.0
C676 C 0.08717 0.16401 1.01117 0.0
C677 C 0.14941 0.13769 0.04592 0.0
C678 C 0.17193 0.10643 0.04057 0.0
C679 C 0.18325 0.08372 0.0626 0.0
C680 C 0.17236 0.09357 0.09082 0.0
C681 C 0.15144 0.12609 0.09675 0.0
C682 C 0.1389 0.148 0.07391 0.0
H683 H 0.29964 0.42701 0.46478 0.0
H684 H 0.38963 0.33599 0.45027 0.0
H685 H 0.43075 0.34294 0.49771 0.0
H686 H 0.40068 0.47493 0.5055 0.0
H687 H 0.35396 0.49351 0.52933 0.0
H688 H 0.33598 0.48313 0.49316 0.0
H689 H 0.26012 0.44619 0.51204 0.0
H690 H 0.27824 0.45604 0.54822 0.0
H691 H 0.27311 0.41218 0.53681 0.0
H692 H 0.45565 0.35678 0.54849 0.0
H693 H 0.46705 0.37851 0.59765 0.0
H694 H 0.36096 0.46098 0.57947 0.0
C695 C 0.32925 0.4093 0.47134 0.0
C696 C 0.34212 0.38116 0.45389 0.0
C697 C 0.37977 0.35778 0.46339 0.0
C698 C 0.40314 0.36153 0.49027 0.0
C699 C 0.38858 0.38897 0.50741 0.0
C700 C 0.35297 0.41273 0.49821 0.0
C701 C 0.34232 0.4389 0.52138 0.0
C702 C 0.35925 0.47475 0.51177 0.0
C703 C 0.28505 0.43827 0.53012 0.0
C704 C 0.37664 0.42576 0.5452 0.0
C705 C 0.40308 0.39699 0.53666 0.0
C706 C 0.43551 0.3795 0.5553 0.0
C707 C 0.44141 0.39187 0.5833 0.0
C708 C 0.41509 0.42152 0.59254 0.0
C709 C 0.38231 0.43858 0.57304 0.0
H710 H 0.63494 0.35913 0.09313 0.0
H711 H 0.76934 0.42455 0.08797 0.0
H712 H 0.74902 0.43729 0.03742 0.0
H713 H 0.64818 0.32088 0.02944 0.0
H714 H 0.58091 0.31834 1.01965 0.0
H715 H 0.59896 0.3203 0.05663 0.0
H716 H 0.54201 0.37366 0.06408 0.0
H717 H 0.52269 0.3715 0.02715 0.0
H718 H 0.5507 0.41024 0.0413 0.0
H719 H 0.72448 0.43248 0.98538 0.0
H720 H 0.69383 0.41513 0.93773 0.0
H721 H 0.56985 0.35673 0.97717 0.0
C722 C 0.65815 0.37761 0.08165 0.0
C723 C 0.70281 0.39172 0.09438 0.0
C724 C 0.73416 0.41446 0.0786 0.0
C725 C 0.72304 0.42156 0.04988 0.0
C726 C 0.67989 0.40603 0.0374 0.0
C727 C 0.64713 0.38519 0.05302 0.0
C728 C 0.60623 0.3691 0.034 0.0
C729 C 0.60877 0.32984 0.03499 0.0
C730 C 0.5522 0.3819 0.04211 0.0
C731 C 0.6227 0.38264 1.0051 0.0
C732 C 0.66502 0.40407 1.00747 0.0
C733 C 0.69034 0.41657 0.98335 0.0
C734 C 0.67234 0.40664 0.9562 0.0
C735 C 0.62913 0.38442 0.95316 0.0
C736 C 0.60338 0.37329 0.97824 0.0
H737 H 0.78176 0.08735 0.59448 0.0
H738 H 0.84079 0.18933 0.60873 0.0
H739 H 0.88424 0.18803 0.56169 0.0
H740 H 0.89689 0.0552 0.55053 0.0
H741 H 0.8543 0.03069 0.52782 0.0
H742 H 0.8384 0.03696 0.56491 0.0
H743 H 0.74985 0.0616 0.54997 0.0
H744 H 0.76572 0.05613 0.51296 0.0
H745 H 0.74785 0.09766 0.52616 0.0
H746 H 0.90493 0.18015 0.50985 0.0
H747 H 0.90531 0.16552 0.45874 0.0
H748 H 0.83742 0.06669 0.47847 0.0
C749 C 0.80623 0.10852 0.5882 0.0
C750 C 0.80895 0.1382 0.60519 0.0
C751 C 0.83915 0.16626 0.59599 0.0
C752 C 0.86381 0.16569 0.56935 0.0
C753 C 0.85838 0.13662 0.55233 0.0
C754 C 0.83116 0.10822 0.56163 0.0
C755 C 0.82613 0.08182 0.53806 0.0
C756 C 0.85571 0.04923 0.54579 0.0
C757 C 0.76901 0.07387 0.53141 0.0
C758 C 0.852 0.10059 0.51364 0.0
C759 C 0.87105 0.13193 0.52237 0.0
C760 C 0.89155 0.15525 0.50293 0.0
C761 C 0.8918 0.1466 0.47381 0.0
C762 C 0.87154 0.11484 0.46423 0.0
C763 C 0.85291 0.09129 0.48477 0.0
H764 H 0.86389 0.86211 0.07554 0.0
H765 H 0.74842 0.93661 0.09822 0.0
H766 H 0.75378 0.96139 0.04993 0.0
H767 H 0.93861 0.91563 1.02262 0.0
H768 H 0.94724 0.87973 0.99901 0.0
H769 H 0.94345 0.87314 0.037 0.0
H770 H 0.86836 0.8301 0.02933 0.0
H771 H 0.87147 0.83673 0.99144 0.0
H772 H 0.81157 0.84339 1.01017 0.0
H773 H 0.76077 0.97186 0.99765 0.0
H774 H 0.76895 0.96772 0.94532 0.0
H775 H 0.87657 0.88415 0.95488 0.0
C776 C 0.84113 0.88436 0.07044 0.0
C777 C 0.80662 0.89807 0.09073 0.0
C778 C 0.77643 0.92664 0.08334 0.0
C779 C 0.77892 0.94061 0.05584 0.0
C780 C 0.81171 0.92559 0.03589 0.0
C781 C 0.84257 0.89817 0.04287 0.0
C782 C 0.86928 0.88397 1.0166 0.0
C783 C 0.92815 0.88839 1.01895 0.0
C784 C 0.85425 0.84633 1.01159 0.0
C785 C 0.84717 0.90685 0.99362 0.0
C786 C 0.81472 0.93104 1.00532 0.0
C787 C 0.78672 0.95341 0.9883 0.0
C788 C 0.79138 0.95073 0.95859 0.0
C789 C 0.82352 0.92572 0.94602 0.0
C790 C 0.85254 0.90397 0.96388 0.0
H791 H 0.70877 0.59572 0.59006 0.0
H792 H 0.62037 0.6874 0.60456 0.0
H793 H 0.57426 0.67822 0.5587 0.0
H794 H 0.72798 0.60717 0.5173 0.0
H795 H 0.72219 0.56274 0.50763 0.0
H796 H 0.74369 0.5745 0.54283 0.0
H797 H 0.67009 0.53829 0.56516 0.0
H798 H 0.64856 0.52614 0.52997 0.0
H799 H 0.60419 0.54578 0.55456 0.0
H800 H 0.54387 0.66155 0.50951 0.0
H801 H 0.5302 0.63847 0.46094 0.0
H802 H 0.63871 0.55727 0.4787 0.0
C803 C 0.67848 0.61312 0.58391 0.0
C804 C 0.66721 0.64194 0.60081 0.0
C805 C 0.6289 0.66507 0.59179 0.0
C806 C 0.60263 0.65999 0.5659 0.0
C807 C 0.61515 0.63153 0.54941 0.0
C808 C 0.65196 0.60835 0.55815 0.0
C809 C 0.6606 0.5811 0.5357 0.0
C810 C 0.71695 0.58142 0.52525 0.0
C811 C 0.64491 0.54573 0.54702 0.0
C812 C 0.62389 0.59302 0.51265 0.0
C813 C 0.59775 0.62199 0.52106 0.0
C814 C 0.56372 0.63867 0.50281 0.0
C815 C 0.55647 0.62551 0.47521 0.0
C816 C 0.58321 0.596 0.46603 0.0
C817 C 0.61693 0.57946 0.48523 0.0
H818 H 0.24562 0.61152 0.97111 0.0
H819 H 0.37933 0.67034 0.94523 0.0
H820 H 0.41147 0.67075 0.99501 0.0
H821 H 0.22361 0.6552 0.03438 0.0
H822 H 0.20375 0.61882 0.05523 0.0
H823 H 0.19503 0.61846 1.01715 0.0
H824 H 0.24753 0.5626 1.01322 0.0
H825 H 0.25586 0.56249 0.0514 0.0
H826 H 0.3115 0.56082 0.02836 0.0
H827 H 0.4231 0.67106 0.04775 0.0
H828 H 0.41622 0.66931 0.10002 0.0
H829 H 0.27545 0.60888 0.09264 0.0
C830 C 0.28248 0.62338 0.976 0.0
C831 C 0.31076 0.64038 0.95455 0.0
C832 C 0.35795 0.65676 0.96153 0.0
C833 C 0.37625 0.65716 0.98966 0.0
C834 C 0.34681 0.64102 1.01058 0.0
C835 C 0.30117 0.62411 1.00412 0.0
C836 C 0.27512 0.61112 0.03102 0.0
C837 C 0.2212 0.62685 0.03465 0.0
C838 C 0.27236 0.57192 0.031 0.0
C839 C 0.31242 0.62426 0.05357 0.0
C840 C 0.35367 0.64117 0.04125 0.0
C841 C 0.39159 0.65722 0.05765 0.0
C842 C 0.38743 0.65591 0.08744 0.0
C843 C 0.34566 0.63857 0.10075 0.0
C844 C 0.30786 0.62242 0.08335 0.0
H845 H 0.24575 0.87433 0.47591 0.0
H846 H 0.1067 0.86896 0.42481 0.0
H847 H 0.0535 0.8726 0.46857 0.0
H848 H 0.20086 0.82144 0.53137 0.0
H849 H 0.23266 0.84472 0.55965 0.0
H850 H 0.25926 0.84521 0.5242 0.0
H851 H 0.25668 0.91132 0.52411 0.0
H852 H 0.23 0.91104 0.5596 0.0
H853 H 0.19663 0.93275 0.53125 0.0
H854 H 0.01603 0.8712 0.51812 0.0
H855 H 0.99686 0.86564 0.56963 0.0
H856 H 0.16022 0.87287 0.58895 0.0
C857 C 0.20405 0.87457 0.4741 0.0
C858 C 0.18009 0.87213 0.44711 0.0
C859 C 0.1256 0.8718 0.44526 0.0
C860 C 0.0952 0.87363 0.47002 0.0
C861 C 0.12002 0.87582 0.49641 0.0
C862 C 0.17326 0.87643 0.49861 0.0
C863 C 0.19041 0.87693 0.52955 0.0
C864 C 0.22269 0.84519 0.5366 0.0
C865 C 0.22019 0.90999 0.53653 0.0
C866 C 0.13853 0.87597 0.5445 0.0
C867 C 0.09841 0.87541 0.52497 0.0
C868 C 0.04707 0.8722 0.53358 0.0
C869 C 0.03652 0.86906 0.56281 0.0
C870 C 0.07701 0.86942 0.58311 0.0
C871 C 0.12857 0.8734 0.57384 0.0
H872 H 0.2688 0.27955 0.38572 0.0
H873 H 0.16173 0.36395 0.384 0.0
H874 H 0.0962 0.32712 0.36063 0.0
H875 H 0.23643 0.24451 0.31835 0.0
H876 H 0.24096 0.20032 0.32903 0.0
H877 H 0.27871 0.23248 0.34711 0.0
H878 H 0.23953 0.21405 0.39536 0.0
H879 H 0.20202 0.18155 0.37741 0.0
H880 H 0.17033 0.21273 0.39954 0.0
H881 H 0.04357 0.28241 0.33683 0.0
H882 H 0.00486 0.23183 0.31408 0.0
H883 H 0.14556 0.17492 0.3295 0.0
C884 C 0.23124 0.28992 0.38066 0.0
C885 C 0.22007 0.32456 0.38641 0.0
C886 C 0.17085 0.33756 0.37945 0.0
C887 C 0.13351 0.31682 0.36628 0.0
C888 C 0.14589 0.28298 0.36036 0.0
C889 C 0.19331 0.26941 0.36748 0.0
C890 C 0.19654 0.23227 0.35819 0.0
C891 C 0.24079 0.22709 0.33686 0.0
C892 C 0.20245 0.20876 0.38418 0.0
C893 C 0.14404 0.2274 0.3441 0.0
C894 C 0.11542 0.25699 0.34603 0.0
C895 C 0.06548 0.25905 0.33526 0.0
C896 C 0.04378 0.23005 0.32244 0.0
C897 C 0.07199 0.19927 0.32012 0.0
C898 C 0.1231 0.19809 0.33089 0.0
H899 H 0.26429 0.22547 0.88257 0.0
H900 H 0.38826 0.15221 0.88676 0.0
H901 H 0.44854 0.19456 0.86545 0.0
H902 H 0.29886 0.26164 0.81467 0.0
H903 H 0.2806 0.3043 0.82495 0.0
H904 H 0.24946 0.26812 0.84122 0.0
H905 H 0.27551 0.29279 0.89083 0.0
H906 H 0.30803 0.32815 0.87392 0.0
H907 H 0.3427 0.30125 0.89838 0.0
H908 H 0.49416 0.24407 0.84318 0.0
H909 H 0.52245 0.29698 0.81928 0.0
H910 H 0.36813 0.33829 0.82779 0.0
C911 C 0.30429 0.21873 0.87907 0.0
C912 C 0.3223 0.18595 0.88618 0.0
C913 C 0.37445 0.1774 0.88134 0.0
C914 C 0.40866 0.20123 0.86935 0.0
C915 C 0.3898 0.23338 0.8623 0.0
C916 C 0.33882 0.24219 0.86686 0.0
C917 C 0.3282 0.2781 0.85645 0.0
C918 C 0.28685 0.27798 0.8329 0.0
C919 C 0.3127 0.30145 0.88139 0.0
C920 C 0.38089 0.28784 0.84482 0.0
C921 C 0.41597 0.26182 0.84885 0.0
C922 C 0.46717 0.26471 0.84008 0.0
C923 C 0.48298 0.29496 0.82676 0.0
C924 C 0.44772 0.32187 0.82218 0.0
C925 C 0.39591 0.31814 0.83119 0.0
H926 H 0.72726 0.22583 0.67099 0.0
H927 H 0.60612 0.14976 0.66468 0.0
H928 H 0.54534 0.18898 0.68927 0.0
H929 H 0.69603 0.25444 0.74055 0.0
H930 H 0.71123 0.29866 0.73391 0.0
H931 H 0.74363 0.26572 0.7141 0.0
H932 H 0.71404 0.29286 0.66649 0.0
H933 H 0.6823 0.32623 0.68618 0.0
H934 H 0.64636 0.30097 0.66071 0.0
H935 H 0.4992 0.23658 0.71587 0.0
H936 H 0.47166 0.28822 0.74236 0.0
H937 H 0.62418 0.33225 0.73126 0.0
C938 C 0.6876 0.21792 0.67443 0.0
C939 C 0.6706 0.18527 0.66587 0.0
C940 C 0.61908 0.17499 0.67103 0.0
C941 C 0.58463 0.19701 0.68495 0.0
C942 C 0.60273 0.22905 0.69358 0.0
C943 C 0.65304 0.23948 0.68843 0.0
C944 C 0.66362 0.27454 0.70077 0.0
C945 C 0.70614 0.27324 0.72369 0.0
C946 C 0.67737 0.30016 0.67712 0.0
C947 C 0.61156 0.2822 0.7138 0.0
C948 C 0.57679 0.25581 0.70936 0.0
C949 C 0.52615 0.25738 0.71945 0.0
C950 C 0.51079 0.28676 0.73439 0.0
C951 C 0.54614 0.31385 0.73926 0.0
C952 C 0.59694 0.31146 0.7287 0.0
H953 H 0.84273 0.33818 0.18779 0.0
H954 H 0.74776 0.27567 0.13203 0.0
H955 H 0.78599 0.22356 0.15281 0.0
H956 H 0.95548 0.28469 0.19047 0.0
H957 H 0.96697 0.29212 0.2279 0.0
H958 H 0.93576 0.32428 0.20671 0.0
H959 H 0.85831 0.32436 0.24177 0.0
H960 H 0.88922 0.29207 0.26297 0.0
H961 H 0.82496 0.28486 0.24929 0.0
H962 H 0.83483 0.17864 0.17965 0.0
H963 H 0.88923 0.14373 0.2116 0.0
H964 H 0.9434 0.23536 0.25436 0.0
C965 C 0.82986 0.31352 0.18011 0.0
C966 C 0.79247 0.31082 0.15826 0.0
C967 C 0.77717 0.27815 0.14834 0.0
C968 C 0.79827 0.24852 0.16021 0.0
C969 C 0.83394 0.25207 0.18233 0.0
C970 C 0.84942 0.28374 0.19231 0.0
C971 C 0.88631 0.28051 0.21727 0.0
C972 C 0.93927 0.29634 0.21015 0.0
C973 C 0.86331 0.29639 0.24443 0.0
C974 C 0.88946 0.24206 0.21965 0.0
C975 C 0.85936 0.22615 0.19908 0.0
C976 C 0.85805 0.19078 0.19603 0.0
C977 C 0.88887 0.17121 0.21422 0.0
C978 C 0.9195 0.18703 0.2355 0.0
C979 C 0.9193 0.22281 0.23855 0.0
H980 H 0.74559 0.74163 0.66624 0.0
H981 H 0.85157 0.65679 0.67004 0.0
H982 H 0.91733 0.69402 0.69296 0.0
H983 H 0.84584 0.80803 0.65203 0.0
H984 H 0.81279 0.83949 0.67326 0.0
H985 H 0.77643 0.80669 0.65498 0.0
H986 H 0.73439 0.78963 0.70259 0.0
H987 H 0.77162 0.82125 0.72156 0.0
H988 H 0.7745 0.77687 0.73201 0.0
H989 H 0.97058 0.74004 0.71594 0.0
H990 H 0.00771 0.79158 0.73875 0.0
H991 H 0.86579 0.8464 0.72224 0.0
C992 C 0.78302 0.73124 0.67155 0.0
C993 C 0.79379 0.69646 0.66662 0.0
C994 C 0.84277 0.68335 0.67401 0.0
C995 C 0.88027 0.70432 0.68684 0.0
C996 C 0.8682 0.73841 0.69193 0.0
C997 C 0.82096 0.75191 0.68432 0.0
C998 C 0.81721 0.78907 0.69311 0.0
C999 C 0.81282 0.81218 0.66677 0.0
C1000 C 0.77176 0.79455 0.71359 0.0
C1001 C 0.86892 0.794 0.70789 0.0
C1002 C 0.89816 0.76464 0.70631 0.0
C1003 C 0.94805 0.76315 0.71738 0.0
C1004 C 0.9688 0.7925 0.73025 0.0
C1005 C 0.93944 0.82273 0.73238 0.0
C1006 C 0.88872 0.8234 0.72122 0.0
H1007 H 0.77231 0.79967 0.19004 0.0
H1008 H 0.66271 0.82443 0.12357 0.0
H1009 H 0.60329 0.7795 0.14133 0.0
H1010 H 0.74935 0.70875 0.19352 0.0
H1011 H 0.75359 0.70705 0.23185 0.0
H1012 H 0.78898 0.73924 0.21253 0.0
H1013 H 0.74523 0.78682 0.24234 0.0
H1014 H 0.71051 0.7547 0.2619 0.0
H1015 H 0.67569 0.7882 0.2443 0.0
H1016 H 0.55664 0.73093 0.16621 0.0
H1017 H 0.52348 0.68576 0.19829 0.0
H1018 H 0.66021 0.69636 0.25082 0.0
C1019 C 0.73587 0.79546 0.17923 0.0
C1020 C 0.72245 0.81494 0.15508 0.0
C1021 C 0.67422 0.80905 0.1416 0.0
C1022 C 0.64018 0.78378 0.15166 0.0
C1023 C 0.65453 0.76503 0.17559 0.0
C1024 C 0.70104 0.77079 0.18935 0.0
C1025 C 0.70584 0.74869 0.21566 0.0
C1026 C 0.75219 0.7245 0.21323 0.0
C1027 C 0.7095 0.77095 0.24264 0.0
C1028 C 0.65506 0.72924 0.21439 0.0
C1029 C 0.62621 0.73881 0.19097 0.0
C1030 C 0.57871 0.7235 0.18477 0.0
C1031 C 0.56023 0.69784 0.20306 0.0
C1032 C 0.58871 0.68812 0.22748 0.0
C1033 C 0.63674 0.70405 0.23305 0.0
H1034 H 0.35058 0.80577 0.40341 0.0
H1035 H 0.2348 0.82588 0.33888 0.0
H1036 H 0.27605 0.78465 0.3066 0.0
H1037 H 0.45893 0.79193 0.35709 0.0
H1038 H 0.4846 0.75639 0.37676 0.0
H1039 H 0.44771 0.78865 0.39493 0.0
H1040 H 0.38476 0.74236 0.41394 0.0
H1041 H 0.42179 0.70993 0.39605 0.0
H1042 H 0.35356 0.71366 0.38912 0.0
H1043 H 0.33215 0.74501 0.28017 0.0
H1044 H 0.3926 0.70177 0.26288 0.0
H1045 H 0.46671 0.69987 0.34616 0.0
C1046 C 0.33411 0.8013 0.3825 0.0
C1047 C 0.29074 0.82001 0.37313 0.0
C1048 C 0.26938 0.81301 0.3459 0.0
C1049 C 0.29224 0.78941 0.32753 0.0
C1050 C 0.33567 0.77209 0.33699 0.0
C1051 C 0.35583 0.77697 0.36402 0.0
C1052 C 0.40126 0.75332 0.36906 0.0
C1053 C 0.45107 0.77381 0.3748 0.0
C1054 C 0.38964 0.72833 0.3935 0.0
C1055 C 0.40367 0.73493 0.34051 0.0
C1056 C 0.36583 0.74666 0.32231 0.0
C1057 C 0.36144 0.73511 0.29434 0.0
C1058 C 0.39618 0.71046 0.28473 0.0
C1059 C 0.43426 0.69684 0.30318 0.0
C1060 C 0.43796 0.70945 0.3315 0.0
H1061 H 0.17431 0.71772 0.90282 0.0
H1062 H 0.28027 0.6851 0.8368 0.0
H1063 H 0.24032 0.72555 0.80307 0.0
H1064 H 0.06454 0.73813 0.86214 0.0
H1065 H 0.05031 0.77752 0.88033 0.0
H1066 H 0.08347 0.74392 0.89887 0.0
H1067 H 0.15893 0.7853 0.91111 0.0
H1068 H 0.12547 0.81919 0.89308 0.0
H1069 H 0.1905 0.8085 0.88284 0.0
H1070 H 0.1776 0.76215 0.77527 0.0
H1071 H 0.11742 0.80589 0.75812 0.0
H1072 H 0.07526 0.82916 0.84571 0.0
C1073 C 0.18955 0.7194 0.8814 0.0
C1074 C 0.22851 0.69695 0.87189 0.0
C1075 C 0.24836 0.70067 0.84392 0.0
C1076 C 0.22625 0.72371 0.82474 0.0
C1077 C 0.18665 0.74455 0.83449 0.0
C1078 C 0.17036 0.74393 0.86253 0.0
C1079 C 0.13155 0.77194 0.86828 0.0
C1080 C 0.07939 0.75697 0.87798 0.0
C1081 C 0.1529 0.79777 0.89012 0.0
C1082 C 0.12744 0.78756 0.83883 0.0
C1083 C 0.15812 0.77051 0.81949 0.0
C1084 C 0.15539 0.77695 0.79037 0.0
C1085 C 0.12141 0.80218 0.78088 0.0
C1086 C 0.09289 0.82219 0.80052 0.0
C1087 C 0.09635 0.81463 0.82996 0.0
loop_
_geom_bond_atom_site_label_1
_geom_bond_atom_site_label_2
_geom_bond_distance
_geom_bond_site_symmetry_2
_ccdc_geom_bond_type
C0 N1 1.317 . S
C0 N2 1.348 . S
C0 C3 1.485 . S
N1 C0 1.317 . S
N1 N5 1.370 . S
N2 C0 1.348 . S
N2 C4 1.346 . S
C3 C0 1.485 . S
C3 H7 0.960 . S
C3 H8 0.961 . S
C3 H9 0.960 . S
C4 N2 1.346 . S
C4 N5 1.307 . S
C4 C6 1.486 . S
N5 N1 1.370 . S
N5 C4 1.307 . S
C6 C4 1.486 . S
C6 H10 0.960 . S
C6 H11 0.960 . S
C6 H12 0.959 . S
H7 C3 0.960 . S
H8 C3 0.961 . S
H9 C3 0.960 . S
H10 C6 0.960 . S
H11 C6 0.960 . S
H12 C6 0.959 . S
C13 N14 1.317 . S
C13 N15 1.348 . S
C13 C16 1.485 . S
N14 C13 1.317 . S
N14 N18 1.370 . S
N15 C13 1.348 . S
N15 C17 1.346 . S
C16 C13 1.485 . S
C16 H20 0.960 . S
C16 H21 0.961 . S
C16 H22 0.960 . S
C17 N15 1.346 . S
C17 N18 1.307 . S
C17 C19 1.486 . S
N18 N14 1.370 . S
N18 C17 1.307 . S
C19 C17 1.486 . S
C19 H23 0.960 . S
C19 H24 0.960 . S
C19 H25 0.959 . S
H20 C16 0.960 . S
H21 C16 0.961 . S
H22 C16 0.960 . S
H23 C19 0.960 . S
H24 C19 0.960 . S
H25 C19 0.959 . S
C26 N27 1.317 . S
C26 N28 1.348 . S
C26 C29 1.485 . S
N27 C26 1.317 . S
N27 N31 1.370 . S
N28 C26 1.348 . S
N28 C30 1.346 . S
C29 C26 1.485 . S
C29 H33 0.960 . S
C29 H34 0.961 . S
C29 H35 0.960 . S
C30 N28 1.346 . S
C30 N31 1.307 . S
C30 C32 1.486 . S
N31 N27 1.370 . S
N31 C30 1.307 . S
C32 C30 1.486 . S
C32 H36 0.960 . S
C32 H37 0.960 . S
C32 H38 0.959 . S
H33 C29 0.960 . S
H34 C29 0.961 . S
H35 C29 0.960 . S
H36 C32 0.960 . S
H37 C32 0.960 . S
H38 C32 0.959 . S
C39 N40 1.317 . S
C39 N41 1.348 . S
C39 C42 1.485 . S
N40 C39 1.317 . S
N40 N44 1.370 . S
N41 C39 1.348 . S
N41 C43 1.346 . S
C42 C39 1.485 . S
C42 H46 0.960 . S
C42 H47 0.961 . S
C42 H48 0.960 . S
C43 N41 1.346 . S
C43 N44 1.307 . S
C43 C45 1.486 . S
N44 N40 1.370 . S
N44 C43 1.307 . S
C45 C43 1.486 . S
C45 H49 0.960 . S
C45 H50 0.960 . S
C45 H51 0.959 . S
H46 C42 0.960 . S
H47 C42 0.961 . S
H48 C42 0.960 . S
H49 C45 0.960 . S
H50 C45 0.960 . S
H51 C45 0.959 . S
C52 N53 1.317 . S
C52 N54 1.348 . S
C52 C55 1.485 . S
N53 C52 1.317 . S
N53 N57 1.370 . S
N54 C52 1.348 . S
N54 C56 1.346 . S
C55 C52 1.485 . S
C55 H59 0.960 . S
C55 H60 0.961 . S
C55 H61 0.960 . S
C56 N54 1.346 . S
C56 N57 1.307 . S
C56 C58 1.486 . S
N57 N53 1.370 . S
N57 C56 1.307 . S
C58 C56 1.486 . S
C58 H62 0.960 . S
C58 H63 0.960 . S
C58 H64 0.959 . S
H59 C55 0.960 . S
H60 C55 0.961 . S
H61 C55 0.960 . S
H62 C58 0.960 . S
H63 C58 0.960 . S
H64 C58 0.959 . S
C65 N66 1.317 . S
C65 N67 1.348 . S
C65 C68 1.485 . S
N66 C65 1.317 . S
N66 N70 1.370 . S
N67 C65 1.348 . S
N67 C69 1.346 . S
C68 C65 1.485 . S
C68 H72 0.960 . S
C68 H73 0.961 . S
C68 H74 0.960 . S
C69 N67 1.346 . S
C69 N70 1.307 . S
C69 C71 1.486 . S
N70 N66 1.370 . S
N70 C69 1.307 . S
C71 C69 1.486 . S
C71 H75 0.960 . S
C71 H76 0.960 . S
C71 H77 0.959 . S
H72 C68 0.960 . S
H73 C68 0.961 . S
H74 C68 0.960 . S
H75 C71 0.960 . S
H76 C71 0.960 . S
H77 C71 0.959 . S
C78 N79 1.317 . S
C78 N80 1.348 . S
C78 C81 1.485 . S
N79 C78 1.317 . S
N79 N83 1.370 . S
N80 C78 1.348 . S
N80 C82 1.346 . S
C81 C78 1.485 . S
C81 H85 0.960 . S
C81 H86 0.961 . S
C81 H87 0.960 . S
C82 N80 1.346 . S
C82 N83 1.307 . S
C82 C84 1.486 . S
N83 N79 1.370 . S
N83 C82 1.307 . S
C84 C82 1.486 . S
C84 H88 0.960 . S
C84 H89 0.960 . S
C84 H90 0.959 . S
H85 C81 0.960 . S
H86 C81 0.961 . S
H87 C81 0.960 . S
H88 C84 0.960 . S
H89 C84 0.960 . S
H90 C84 0.959 . S
C91 N92 1.317 . S
C91 N93 1.348 . S
C91 C94 1.485 . S
N92 C91 1.317 . S
N92 N96 1.370 . S
N93 C91 1.348 . S
N93 C95 1.346 . S
C94 C91 1.485 . S
C94 H98 0.960 . S
C94 H99 0.961 . S
C94 H100 0.960 . S
C95 N93 1.346 . S
C95 N96 1.307 . S
C95 C97 1.486 . S
N96 N92 1.370 . S
N96 C95 1.307 . S
C97 C95 1.486 . S
C97 H101 0.960 . S
C97 H102 0.960 . S
C97 H103 0.959 . S
H98 C94 0.960 . S
H99 C94 0.961 . S
H100 C94 0.960 . S
H101 C97 0.960 . S
H102 C97 0.960 . S
H103 C97 0.959 . S
Tb104 N133 2.617 . S
Tb104 N139 2.572 . S
Tb104 O148 2.465 . S
Tb104 O149 2.387 . S
Tb104 O151 2.428 . S
Tb104 O152 2.308 1_455 S
Tb104 O156 2.349 1_455 S
Tb104 O159 2.393 . S
Tb104 C168 2.802 . S
C105 N106 1.379 . S
C105 C108 1.416 . S
C105 C112 1.424 . S
N106 C105 1.379 . S
N106 C109 1.334 . S
N106 Tb115 2.617 . S
C107 C109 1.390 . S
C107 C110 1.339 . S
C107 H127 0.930 . S
C108 C105 1.416 . S
C108 C110 1.416 . S
C108 C114 1.448 . S
C109 N106 1.334 . S
C109 C107 1.390 . S
C109 H120 0.930 . S
C110 C107 1.339 . S
C110 C108 1.416 . S
C110 H131 0.930 . S
C111 C112 1.413 . S
C111 C113 1.427 . S
C111 C117 1.416 1_545 S
C112 C105 1.424 . S
C112 C111 1.413 . S
C112 N116 1.361 . S
C113 C111 1.427 . S
C113 C114 1.328 . S
C113 H128 0.929 1_545 S
C114 C108 1.448 . S
C114 C113 1.328 . S
C114 H129 0.930 . S
Tb115 N106 2.617 . S
Tb115 N116 2.572 . S
Tb115 O150 2.349 1_655 S
Tb115 O153 2.393 . S
Tb115 O154 2.465 . S
Tb115 O155 2.387 . S
Tb115 O157 2.428 . S
Tb115 O158 2.308 1_655 S
Tb115 C179 2.802 . S
N116 C112 1.361 . S
N116 Tb115 2.572 . S
N116 C118 1.340 . S
C117 C111 1.416 1_565 S
C117 C119 1.332 . S
C117 H125 0.931 . S
C118 N116 1.340 . S
C118 C119 1.407 1_545 S
C118 H124 0.930 . S
C119 C117 1.332 . S
C119 C118 1.407 1_565 S
C119 H121 0.929 . S
H120 C109 0.930 . S
H121 C119 0.929 . S
H122 C137 0.930 . S
H123 C144 0.929 . S
H124 C118 0.930 . S
H125 C117 0.931 . S
H126 C140 0.930 . S
H127 C107 0.930 . S
H128 C113 0.929 1_565 S
H129 C114 0.930 . S
H130 C135 0.930 . S
H131 C110 0.930 . S
H132 C143 0.931 . S
N133 Tb104 2.617 . S
N133 C134 1.379 . S
N133 C137 1.334 . S
C134 N133 1.379 . S
C134 C136 1.416 . S
C134 C142 1.424 . S
C135 H130 0.930 . S
C135 C137 1.390 . S
C135 C138 1.339 . S
C136 C134 1.416 . S
C136 C138 1.416 . S
C136 C169 1.448 . S
C137 H122 0.930 . S
C137 N133 1.334 . S
C137 C135 1.390 . S
C138 C135 1.339 . S
C138 C136 1.416 . S
C138 H145 0.930 . S
N139 Tb104 2.572 . S
N139 C140 1.340 . S
N139 C142 1.361 . S
C140 H126 0.930 . S
C140 N139 1.340 . S
C140 C144 1.407 . S
C141 C142 1.413 . S
C141 C143 1.416 . S
C141 C170 1.427 . S
C142 C134 1.424 . S
C142 N139 1.361 . S
C142 C141 1.413 . S
C143 H132 0.931 . S
C143 C141 1.416 . S
C143 C144 1.332 . S
C144 H123 0.929 . S
C144 C140 1.407 . S
C144 C143 1.332 . S
H145 C138 0.930 . S
H146 C169 0.930 . S
H147 C170 0.929 . S
O148 Tb104 2.465 . S
O148 C168 1.264 . S
O149 Tb104 2.387 . S
O149 C160 1.264 . S
O150 Tb115 2.349 1_455 S
O150 C160 1.243 . S
O151 Tb104 2.428 . S
O151 C168 1.256 . S
O152 Tb104 2.308 1_655 S
O152 C167 1.266 . S
O153 Tb115 2.393 . S
O153 C167 1.248 . S
O154 Tb115 2.465 . S
O154 C179 1.264 . S
O155 Tb115 2.387 . S
O155 C171 1.264 . S
O156 Tb104 2.349 1_655 S
O156 C171 1.243 . S
O157 Tb115 2.428 . S
O157 C179 1.256 . S
O158 Tb115 2.308 1_455 S
O158 C178 1.266 . S
O159 Tb104 2.393 . S
O159 C178 1.248 . S
C160 O149 1.264 . S
C160 O150 1.243 . S
C161 C164 1.399 . S
C161 C166 1.383 . S
C161 C168 1.496 . S
C162 C163 1.399 . S
C162 C166 1.389 . S
C163 C162 1.399 . S
C163 C165 1.380 . S
C163 H180 0.929 . S
C164 C161 1.399 . S
C164 C165 1.392 . S
C164 H181 0.929 . S
C165 C163 1.380 . S
C165 C164 1.392 . S
C165 H182 0.929 . S
C166 C161 1.383 . S
C166 C162 1.389 . S
C166 H183 0.931 . S
C167 O152 1.266 . S
C167 O153 1.248 . S
C168 Tb104 2.802 . S
C168 O148 1.264 . S
C168 O151 1.256 . S
C168 C161 1.496 . S
C169 C136 1.448 . S
C169 H146 0.930 . S
C169 C170 1.328 . S
C170 C141 1.427 . S
C170 H147 0.929 . S
C170 C169 1.328 . S
C171 O155 1.264 . S
C171 O156 1.243 . S
C172 C175 1.399 . S
C172 C176 1.383 . S
C172 C179 1.496 . S
C173 C174 1.399 . S
C173 C176 1.389 . S
C174 C173 1.399 . S
C174 C177 1.380 . S
C174 H184 0.929 . S
C175 C172 1.399 . S
C175 C177 1.392 . S
C175 H185 0.929 . S
C176 C172 1.383 . S
C176 C173 1.389 . S
C176 H186 0.931 . S
C177 C174 1.380 . S
C177 C175 1.392 . S
C177 H187 0.929 . S
C178 O158 1.266 . S
C178 O159 1.248 . S
C179 Tb115 2.802 . S
C179 O154 1.264 . S
C179 O157 1.256 . S
C179 C172 1.496 . S
H180 C163 0.929 . S
H181 C164 0.929 . S
H182 C165 0.929 . S
H183 C166 0.931 . S
H184 C174 0.929 . S
H185 C175 0.929 . S
H186 C176 0.931 . S
H187 C177 0.929 . S
Tb188 N217 2.617 . S
Tb188 N223 2.572 . S
Tb188 O232 2.465 . S
Tb188 O233 2.387 . S
Tb188 O235 2.428 . S
Tb188 O236 2.308 . S
Tb188 O240 2.349 . S
Tb188 O243 2.393 . S
Tb188 C252 2.802 . S
C189 N190 1.379 . S
C189 C192 1.416 . S
C189 C196 1.424 . S
N190 C189 1.379 . S
N190 C193 1.334 . S
N190 Tb199 2.617 . S
C191 C193 1.390 . S
C191 C194 1.339 . S
C191 H211 0.930 . S
C192 C189 1.416 . S
C192 C194 1.416 . S
C192 C198 1.448 . S
C193 N190 1.334 . S
C193 C191 1.390 . S
C193 H204 0.930 . S
C194 C191 1.339 . S
C194 C192 1.416 . S
C194 H215 0.930 . S
C195 C196 1.413 . S
C195 C197 1.427 . S
C195 C201 1.416 . S
C196 C189 1.424 . S
C196 C195 1.413 . S
C196 N200 1.361 . S
C197 C195 1.427 . S
C197 C198 1.328 . S
C197 H212 0.929 . S
C198 C192 1.448 . S
C198 C197 1.328 . S
C198 H213 0.930 . S
Tb199 N190 2.617 . S
Tb199 N200 2.572 . S
Tb199 O234 2.349 . S
Tb199 O237 2.393 . S
Tb199 O238 2.465 . S
Tb199 O239 2.387 . S
Tb199 O241 2.428 . S
Tb199 O242 2.308 . S
Tb199 C263 2.802 . S
N200 C196 1.361 . S
N200 Tb199 2.572 . S
N200 C202 1.340 . S
C201 C195 1.416 . S
C201 C203 1.332 . S
C201 H209 0.931 . S
C202 N200 1.340 . S
C202 C203 1.407 . S
C202 H208 0.930 . S
C203 C201 1.332 . S
C203 C202 1.407 . S
C203 H205 0.929 . S
H204 C193 0.930 . S
H205 C203 0.929 . S
H206 C221 0.930 . S
H207 C228 0.929 . S
H208 C202 0.930 . S
H209 C201 0.931 . S
H210 C224 0.930 . S
H211 C191 0.930 . S
H212 C197 0.929 . S
H213 C198 0.930 . S
H214 C219 0.930 . S
H215 C194 0.930 . S
H216 C227 0.931 . S
N217 Tb188 2.617 . S
N217 C218 1.379 . S
N217 C221 1.334 . S
C218 N217 1.379 . S
C218 C220 1.416 . S
C218 C226 1.424 . S
C219 H214 0.930 . S
C219 C221 1.390 . S
C219 C222 1.339 . S
C220 C218 1.416 . S
C220 C222 1.416 . S
C220 C253 1.448 . S
C221 H206 0.930 . S
C221 N217 1.334 . S
C221 C219 1.390 . S
C222 C219 1.339 . S
C222 C220 1.416 . S
C222 H229 0.930 . S
N223 Tb188 2.572 . S
N223 C224 1.340 . S
N223 C226 1.361 . S
C224 H210 0.930 . S
C224 N223 1.340 . S
C224 C228 1.407 . S
C225 C226 1.413 . S
C225 C227 1.416 . S
C225 C254 1.427 . S
C226 C218 1.424 . S
C226 N223 1.361 . S
C226 C225 1.413 . S
C227 H216 0.931 . S
C227 C225 1.416 . S
C227 C228 1.332 . S
C228 H207 0.929 . S
C228 C224 1.407 . S
C228 C227 1.332 . S
H229 C222 0.930 . S
H230 C253 0.930 . S
H231 C254 0.929 . S
O232 Tb188 2.465 . S
O232 C252 1.264 . S
O233 Tb188 2.387 . S
O233 C244 1.264 . S
O234 Tb199 2.349 . S
O234 C244 1.243 . S
O235 Tb188 2.428 . S
O235 C252 1.256 . S
O236 Tb188 2.308 . S
O236 C251 1.266 . S
O237 Tb199 2.393 . S
O237 C251 1.248 . S
O238 Tb199 2.465 . S
O238 C263 1.264 . S
O239 Tb199 2.387 . S
O239 C255 1.264 . S
O240 Tb188 2.349 . S
O240 C255 1.243 . S
O241 Tb199 2.428 . S
O241 C263 1.256 . S
O242 Tb199 2.308 . S
O242 C262 1.266 . S
O243 Tb188 2.393 . S
O243 C262 1.248 . S
C244 O233 1.264 . S
C244 O234 1.243 . S
C245 C248 1.399 . S
C245 C250 1.383 . S
C245 C252 1.496 . S
C246 C247 1.399 . S
C246 C250 1.389 . S
C247 C246 1.399 . S
C247 C249 1.380 . S
C247 H264 0.929 . S
C248 C245 1.399 . S
C248 C249 1.392 . S
C248 H265 0.929 . S
C249 C247 1.380 . S
C249 C248 1.392 . S
C249 H266 0.929 . S
C250 C245 1.383 . S
C250 C246 1.389 . S
C250 H267 0.931 . S
C251 O236 1.266 . S
C251 O237 1.248 . S
C252 Tb188 2.802 . S
C252 O232 1.264 . S
C252 O235 1.256 . S
C252 C245 1.496 . S
C253 C220 1.448 . S
C253 H230 0.930 . S
C253 C254 1.328 . S
C254 C225 1.427 . S
C254 H231 0.929 . S
C254 C253 1.328 . S
C255 O239 1.264 . S
C255 O240 1.243 . S
C256 C259 1.399 . S
C256 C260 1.383 . S
C256 C263 1.496 . S
C257 C258 1.399 . S
C257 C260 1.389 . S
C258 C257 1.399 . S
C258 C261 1.380 . S
C258 H268 0.929 . S
C259 C256 1.399 . S
C259 C261 1.392 . S
C259 H269 0.929 . S
C260 C256 1.383 . S
C260 C257 1.389 . S
C260 H270 0.931 . S
C261 C258 1.380 . S
C261 C259 1.392 . S
C261 H271 0.929 . S
C262 O242 1.266 . S
C262 O243 1.248 . S
C263 Tb199 2.802 . S
C263 O238 1.264 . S
C263 O241 1.256 . S
C263 C256 1.496 . S
H264 C247 0.929 . S
H265 C248 0.929 . S
H266 C249 0.929 . S
H267 C250 0.931 . S
H268 C258 0.929 . S
H269 C259 0.929 . S
H270 C260 0.931 . S
H271 C261 0.929 . S
Tb272 N301 2.617 . S
Tb272 N307 2.572 . S
Tb272 O316 2.465 . S
Tb272 O317 2.387 . S
Tb272 O319 2.428 . S
Tb272 O320 2.313 . S
Tb272 O324 2.349 . S
Tb272 O327 2.393 . S
Tb272 C336 2.802 . S
C273 N274 1.379 . S
C273 C276 1.416 . S
C273 C280 1.424 . S
N274 C273 1.379 . S
N274 C277 1.334 . S
N274 Tb283 2.617 . S
C275 C277 1.390 . S
C275 C278 1.339 . S
C275 H295 0.930 . S
C276 C273 1.416 . S
C276 C278 1.416 . S
C276 C282 1.448 . S
C277 N274 1.334 . S
C277 C275 1.390 . S
C277 H288 0.930 . S
C278 C275 1.339 . S
C278 C276 1.416 . S
C278 H299 0.930 . S
C279 C280 1.413 . S
C279 C281 1.427 . S
C279 C285 1.416 . S
C280 C273 1.424 . S
C280 C279 1.413 . S
C280 N284 1.361 . S
C281 C279 1.427 . S
C281 C282 1.328 . S
C281 H296 0.929 . S
C282 C276 1.448 . S
C282 C281 1.328 . S
C282 H297 0.930 . S
Tb283 N274 2.617 . S
Tb283 N284 2.572 . S
Tb283 O318 2.349 1_655 S
Tb283 O321 2.393 . S
Tb283 O322 2.465 . S
Tb283 O323 2.387 . S
Tb283 O325 2.428 . S
Tb283 O326 2.308 1_655 S
Tb283 C347 2.802 . S
N284 C280 1.361 . S
N284 Tb283 2.572 . S
N284 C286 1.340 . S
C285 C279 1.416 . S
C285 C287 1.332 . S
C285 H293 0.931 . S
C286 N284 1.340 . S
C286 C287 1.407 . S
C286 H292 0.930 . S
C287 C285 1.332 . S
C287 C286 1.407 . S
C287 H289 0.929 . S
H288 C277 0.930 . S
H289 C287 0.929 . S
H290 C305 0.930 . S
H291 C312 0.929 . S
H292 C286 0.930 . S
H293 C285 0.931 . S
H294 C308 0.930 . S
H295 C275 0.930 . S
H296 C281 0.929 . S
H297 C282 0.930 . S
H298 C303 0.930 . S
H299 C278 0.930 . S
H300 C311 0.931 . S
N301 Tb272 2.617 . S
N301 C302 1.379 . S
N301 C305 1.334 . S
C302 N301 1.379 . S
C302 C304 1.416 . S
C302 C310 1.424 . S
C303 H298 0.930 . S
C303 C305 1.390 . S
C303 C306 1.339 . S
C304 C302 1.416 . S
C304 C306 1.416 . S
C304 C337 1.448 . S
C305 H290 0.930 . S
C305 N301 1.334 . S
C305 C303 1.390 . S
C306 C303 1.339 . S
C306 C304 1.416 . S
C306 H313 0.930 . S
N307 Tb272 2.572 . S
N307 C308 1.340 . S
N307 C310 1.361 . S
C308 H294 0.930 . S
C308 N307 1.340 . S
C308 C312 1.407 1_565 S
C309 C310 1.413 . S
C309 C311 1.416 1_565 S
C309 C338 1.427 . S
C310 C302 1.424 . S
C310 N307 1.361 . S
C310 C309 1.413 . S
C311 H300 0.931 . S
C311 C309 1.416 1_545 S
C311 C312 1.332 . S
C312 H291 0.929 . S
C312 C308 1.407 1_545 S
C312 C311 1.332 . S
H313 C306 0.930 . S
H314 C337 0.930 . S
H315 C338 0.929 1_545 S
O316 Tb272 2.465 . S
O316 C336 1.264 . S
O317 Tb272 2.387 . S
O317 C328 1.264 . S
O318 Tb283 2.349 1_455 S
O318 C328 1.243 . S
O319 Tb272 2.428 . S
O319 C336 1.256 . S
O320 Tb272 2.313 . S
O320 C335 1.261 1_455 S
O321 Tb283 2.393 . S
O321 C335 1.248 . S
O322 Tb283 2.465 . S
O322 C347 1.264 . S
O323 Tb283 2.387 . S
O323 C339 1.264 . S
O324 Tb272 2.349 . S
O324 C339 1.243 1_455 S
O325 Tb283 2.428 . S
O325 C347 1.256 . S
O326 Tb283 2.308 1_455 S
O326 C346 1.266 . S
O327 Tb272 2.393 . S
O327 C346 1.248 . S
C328 O317 1.264 . S
C328 O318 1.243 . S
C329 C332 1.399 . S
C329 C334 1.383 . S
C329 C336 1.496 . S
C330 C331 1.399 . S
C330 C334 1.389 . S
C331 C330 1.399 . S
C331 C333 1.380 . S
C331 H348 0.929 . S
C332 C329 1.399 . S
C332 C333 1.392 . S
C332 H349 0.929 . S
C333 C331 1.380 . S
C333 C332 1.392 . S
C333 H350 0.929 . S
C334 C329 1.383 . S
C334 C330 1.389 . S
C334 H351 0.931 . S
C335 O320 1.261 1_655 S
C335 O321 1.248 . S
C336 Tb272 2.802 . S
C336 O316 1.264 . S
C336 O319 1.256 . S
C336 C329 1.496 . S
C337 C304 1.448 . S
C337 H314 0.930 . S
C337 C338 1.328 . S
C338 C309 1.427 . S
C338 H315 0.929 1_565 S
C338 C337 1.328 . S
C339 O323 1.264 . S
C339 O324 1.243 1_655 S
C340 C343 1.399 . S
C340 C344 1.383 . S
C340 C347 1.496 . S
C341 C342 1.399 . S
C341 C344 1.389 . S
C342 C341 1.399 . S
C342 C345 1.380 . S
C342 H352 0.929 . S
C343 C340 1.399 . S
C343 C345 1.392 . S
C343 H353 0.929 . S
C344 C340 1.383 . S
C344 C341 1.389 . S
C344 H354 0.931 . S
C345 C342 1.380 . S
C345 C343 1.392 . S
C345 H355 0.929 . S
C346 O326 1.266 . S
C346 O327 1.248 . S
C347 Tb283 2.802 . S
C347 O322 1.264 . S
C347 O325 1.256 . S
C347 C340 1.496 . S
H348 C331 0.929 . S
H349 C332 0.929 . S
H350 C333 0.929 . S
H351 C334 0.931 . S
H352 C342 0.929 . S
H353 C343 0.929 . S
H354 C344 0.931 . S
H355 C345 0.929 . S
Tb356 N385 2.617 . S
Tb356 N391 2.572 . S
Tb356 O400 2.465 . S
Tb356 O401 2.387 . S
Tb356 O403 2.428 . S
Tb356 O404 2.308 . S
Tb356 O408 2.349 . S
Tb356 O411 2.393 . S
Tb356 C420 2.802 . S
C357 N358 1.379 . S
C357 C360 1.416 . S
C357 C364 1.424 . S
N358 C357 1.379 . S
N358 C361 1.334 . S
N358 Tb367 2.617 . S
C359 C361 1.390 . S
C359 C362 1.339 . S
C359 H379 0.930 . S
C360 C357 1.416 . S
C360 C362 1.416 . S
C360 C366 1.448 . S
C361 N358 1.334 . S
C361 C359 1.390 . S
C361 H372 0.930 . S
C362 C359 1.339 . S
C362 C360 1.416 . S
C362 H383 0.930 . S
C363 C364 1.413 . S
C363 C365 1.427 . S
C363 C369 1.416 . S
C364 C357 1.424 . S
C364 C363 1.413 . S
C364 N368 1.361 . S
C365 C363 1.427 . S
C365 C366 1.328 . S
C365 H380 0.929 . S
C366 C360 1.448 . S
C366 C365 1.328 . S
C366 H381 0.930 . S
Tb367 N358 2.617 . S
Tb367 N368 2.572 . S
Tb367 O402 2.349 . S
Tb367 O405 2.393 . S
Tb367 O406 2.465 . S
Tb367 O407 2.387 . S
Tb367 O409 2.428 . S
Tb367 O410 2.308 . S
Tb367 C431 2.802 . S
N368 C364 1.361 . S
N368 Tb367 2.572 . S
N368 C370 1.340 . S
C369 C363 1.416 . S
C369 C371 1.332 . S
C369 H377 0.931 . S
C370 N368 1.340 . S
C370 C371 1.407 . S
C370 H376 0.930 . S
C371 C369 1.332 . S
C371 C370 1.407 . S
C371 H373 0.929 . S
H372 C361 0.930 . S
H373 C371 0.929 . S
H374 C389 0.930 . S
H375 C396 0.929 . S
H376 C370 0.930 . S
H377 C369 0.931 . S
H378 C392 0.930 . S
H379 C359 0.930 . S
H380 C365 0.929 . S
H381 C366 0.930 . S
H382 C387 0.930 . S
H383 C362 0.930 . S
H384 C395 0.931 . S
N385 Tb356 2.617 . S
N385 C386 1.379 . S
N385 C389 1.334 . S
C386 N385 1.379 . S
C386 C388 1.416 . S
C386 C394 1.424 . S
C387 H382 0.930 . S
C387 C389 1.390 . S
C387 C390 1.339 . S
C388 C386 1.416 . S
C388 C390 1.416 . S
C388 C421 1.448 . S
C389 H374 0.930 . S
C389 N385 1.334 . S
C389 C387 1.390 . S
C390 C387 1.339 . S
C390 C388 1.416 . S
C390 H397 0.930 . S
N391 Tb356 2.572 . S
N391 C392 1.340 . S
N391 C394 1.361 . S
C392 H378 0.930 . S
C392 N391 1.340 . S
C392 C396 1.407 . S
C393 C394 1.413 . S
C393 C395 1.416 . S
C393 C422 1.427 . S
C394 C386 1.424 . S
C394 N391 1.361 . S
C394 C393 1.413 . S
C395 H384 0.931 . S
C395 C393 1.416 . S
C395 C396 1.332 . S
C396 H375 0.929 . S
C396 C392 1.407 . S
C396 C395 1.332 . S
H397 C390 0.930 . S
H398 C421 0.930 . S
H399 C422 0.929 . S
O400 Tb356 2.465 . S
O400 C420 1.264 . S
O401 Tb356 2.387 . S
O401 C412 1.264 . S
O402 Tb367 2.349 . S
O402 C412 1.243 . S
O403 Tb356 2.428 . S
O403 C420 1.256 . S
O404 Tb356 2.308 . S
O404 C419 1.266 . S
O405 Tb367 2.393 . S
O405 C419 1.248 . S
O406 Tb367 2.465 . S
O406 C431 1.264 . S
O407 Tb367 2.387 . S
O407 C423 1.264 . S
O408 Tb356 2.349 . S
O408 C423 1.243 . S
O409 Tb367 2.428 . S
O409 C431 1.256 . S
O410 Tb367 2.308 . S
O410 C430 1.266 . S
O411 Tb356 2.393 . S
O411 C430 1.248 . S
C412 O401 1.264 . S
C412 O402 1.243 . S
C413 C416 1.399 . S
C413 C418 1.383 . S
C413 C420 1.496 . S
C414 C415 1.399 . S
C414 C418 1.389 . S
C415 C414 1.399 . S
C415 C417 1.380 . S
C415 H432 0.929 . S
C416 C413 1.399 . S
C416 C417 1.392 . S
C416 H433 0.929 . S
C417 C415 1.380 . S
C417 C416 1.392 . S
C417 H434 0.929 . S
C418 C413 1.383 . S
C418 C414 1.389 . S
C418 H435 0.931 . S
C419 O404 1.266 . S
C419 O405 1.248 . S
C420 Tb356 2.802 . S
C420 O400 1.264 . S
C420 O403 1.256 . S
C420 C413 1.496 . S
C421 C388 1.448 . S
C421 H398 0.930 . S
C421 C422 1.328 . S
C422 C393 1.427 . S
C422 H399 0.929 . S
C422 C421 1.328 . S
C423 O407 1.264 . S
C423 O408 1.243 . S
C424 C427 1.399 . S
C424 C428 1.383 . S
C424 C431 1.496 . S
C425 C426 1.399 . S
C425 C428 1.389 . S
C426 C425 1.399 . S
C426 C429 1.380 . S
C426 H436 0.929 . S
C427 C424 1.399 . S
C427 C429 1.392 . S
C427 H437 0.929 . S
C428 C424 1.383 . S
C428 C425 1.389 . S
C428 H438 0.931 . S
C429 C426 1.380 . S
C429 C427 1.392 . S
C429 H439 0.929 . S
C430 O410 1.266 . S
C430 O411 1.248 . S
C431 Tb367 2.802 . S
C431 O406 1.264 . S
C431 O409 1.256 . S
C431 C424 1.496 . S
H432 C415 0.929 . S
H433 C416 0.929 . S
H434 C417 0.929 . S
H435 C418 0.931 . S
H436 C426 0.929 . S
H437 C427 0.929 . S
H438 C428 0.931 . S
H439 C429 0.929 . S
H440 C452 0.930 . S
H441 C454 0.930 . S
H442 C455 0.930 . S
H443 C459 0.959 . S
H444 C459 0.959 . S
H445 C459 0.961 . S
H446 C460 0.960 . S
H447 C460 0.961 . S
H448 C460 0.959 . S
H449 C463 0.929 . S
H450 C464 0.931 . S
H451 C466 0.930 . S
C452 H440 0.930 . S
C452 C453 1.399 . S
C452 C457 1.399 . S
C453 C452 1.399 . S
C453 C454 1.376 . S
C454 H441 0.930 . S
C454 C453 1.376 . S
C454 C455 1.388 . S
C455 H442 0.930 . S
C455 C454 1.388 . S
C455 C456 1.390 . S
C456 C455 1.390 . S
C456 C457 1.394 . S
C456 C462 1.465 . S
C457 C452 1.399 . S
C457 C456 1.394 . S
C457 C458 1.516 . S
C458 C457 1.516 . S
C458 C459 1.502 . S
C458 C460 1.561 1_565 S
C458 C461 1.526 . S
C459 H443 0.959 . S
C459 H444 0.959 . S
C459 H445 0.961 . S
C459 C458 1.502 . S
C460 H446 0.960 . S
C460 H447 0.961 . S
C460 H448 0.959 . S
C460 C458 1.561 1_545 S
C461 C458 1.526 . S
C461 C462 1.396 . S
C461 C466 1.390 1_565 S
C462 C456 1.465 . S
C462 C461 1.396 . S
C462 C463 1.399 . S
C463 H449 0.929 . S
C463 C462 1.399 . S
C463 C464 1.385 1_565 S
C464 H450 0.931 . S
C464 C463 1.385 1_545 S
C464 C465 1.389 . S
C465 C464 1.389 . S
C465 C466 1.387 . S
C466 H451 0.930 . S
C466 C461 1.390 1_545 S
C466 C465 1.387 . S
H467 C479 0.930 . S
H468 C481 0.930 . S
H469 C482 0.930 . S
H470 C486 0.959 . S
H471 C486 0.959 . S
H472 C486 0.961 . S
H473 C487 0.960 . S
H474 C487 0.961 . S
H475 C487 0.959 . S
H476 C490 0.929 . S
H477 C491 0.931 . S
H478 C493 0.930 . S
C479 H467 0.930 . S
C479 C480 1.399 . S
C479 C484 1.399 . S
C480 C479 1.399 . S
C480 C481 1.376 . S
C481 H468 0.930 . S
C481 C480 1.376 . S
C481 C482 1.388 . S
C482 H469 0.930 . S
C482 C481 1.388 . S
C482 C483 1.390 . S
C483 C482 1.390 . S
C483 C484 1.394 . S
C483 C489 1.465 . S
C484 C479 1.399 . S
C484 C483 1.394 . S
C484 C485 1.516 . S
C485 C484 1.516 . S
C485 C486 1.502 . S
C485 C487 1.561 . S
C485 C488 1.526 . S
C486 H470 0.959 . S
C486 H471 0.959 . S
C486 H472 0.961 . S
C486 C485 1.502 . S
C487 H473 0.960 . S
C487 H474 0.961 . S
C487 H475 0.959 . S
C487 C485 1.561 . S
C488 C485 1.526 . S
C488 C489 1.396 . S
C488 C493 1.390 . S
C489 C483 1.465 . S
C489 C488 1.396 . S
C489 C490 1.399 . S
C490 H476 0.929 . S
C490 C489 1.399 . S
C490 C491 1.385 . S
C491 H477 0.931 . S
C491 C490 1.385 . S
C491 C492 1.389 . S
C492 C491 1.389 . S
C492 C493 1.387 . S
C493 H478 0.930 . S
C493 C488 1.390 . S
C493 C492 1.387 . S
H494 C506 0.930 . S
H495 C508 0.930 . S
H496 C509 0.930 . S
H497 C513 0.959 . S
H498 C513 0.959 . S
H499 C513 0.961 . S
H500 C514 0.960 . S
H501 C514 0.961 . S
H502 C514 0.959 . S
H503 C517 0.929 . S
H504 C518 0.931 . S
H505 C520 0.930 . S
C506 H494 0.930 . S
C506 C507 1.399 . S
C506 C511 1.399 . S
C507 C506 1.399 . S
C507 C508 1.376 . S
C508 H495 0.930 . S
C508 C507 1.376 . S
C508 C509 1.388 . S
C509 H496 0.930 . S
C509 C508 1.388 . S
C509 C510 1.390 . S
C510 C509 1.390 . S
C510 C511 1.394 . S
C510 C516 1.465 . S
C511 C506 1.399 . S
C511 C510 1.394 . S
C511 C512 1.516 . S
C512 C511 1.516 . S
C512 C513 1.502 . S
C512 C514 1.561 . S
C512 C515 1.526 . S
C513 H497 0.959 . S
C513 H498 0.959 . S
C513 H499 0.961 . S
C513 C512 1.502 . S
C514 H500 0.960 . S
C514 H501 0.961 . S
C514 H502 0.959 . S
C514 C512 1.561 . S
C515 C512 1.526 . S
C515 C516 1.396 . S
C515 C520 1.390 . S
C516 C510 1.465 . S
C516 C515 1.396 . S
C516 C517 1.399 . S
C517 H503 0.929 . S
C517 C516 1.399 . S
C517 C518 1.385 . S
C518 H504 0.931 . S
C518 C517 1.385 . S
C518 C519 1.389 . S
C519 C518 1.389 . S
C519 C520 1.387 . S
C520 H505 0.930 . S
C520 C515 1.390 . S
C520 C519 1.387 . S
H521 C533 0.930 . S
H522 C535 0.930 . S
H523 C536 0.930 . S
H524 C540 0.959 . S
H525 C540 0.959 . S
H526 C540 0.961 . S
H527 C541 0.960 . S
H528 C541 0.961 . S
H529 C541 0.959 . S
H530 C544 0.929 . S
H531 C545 0.931 . S
H532 C547 0.931 . S
C533 H521 0.930 . S
C533 C534 1.399 . S
C533 C538 1.399 . S
C534 C533 1.399 . S
C534 C535 1.376 . S
C535 H522 0.930 . S
C535 C534 1.376 . S
C535 C536 1.388 . S
C536 H523 0.930 . S
C536 C535 1.388 . S
C536 C537 1.390 . S
C537 C536 1.390 . S
C537 C538 1.394 . S
C537 C543 1.465 . S
C538 C533 1.399 . S
C538 C537 1.394 . S
C538 C539 1.516 . S
C539 C538 1.516 . S
C539 C540 1.502 . S
C539 C541 1.561 . S
C539 C542 1.526 . S
C540 H524 0.959 . S
C540 H525 0.959 . S
C540 H526 0.961 . S
C540 C539 1.502 . S
C541 H527 0.960 . S
C541 H528 0.961 . S
C541 H529 0.959 . S
C541 C539 1.561 . S
C542 C539 1.526 . S
C542 C543 1.396 . S
C542 C547 1.396 . S
C543 C537 1.465 . S
C543 C542 1.396 . S
C543 C544 1.399 1_565 S
C544 H530 0.929 . S
C544 C543 1.399 1_545 S
C544 C545 1.385 . S
C545 H531 0.931 . S
C545 C544 1.385 . S
C545 C546 1.389 . S
C546 C545 1.389 . S
C546 C547 1.379 1_545 S
C547 H532 0.931 . S
C547 C542 1.396 . S
C547 C546 1.379 1_565 S
H548 C560 0.930 . S
H549 C562 0.930 . S
H550 C563 0.930 . S
H551 C567 0.959 . S
H552 C567 0.959 . S
H553 C567 0.961 . S
H554 C568 0.960 1_545 S
H555 C568 0.961 . S
H556 C568 0.959 1_545 S
H557 C571 0.929 . S
H558 C572 0.931 . S
H559 C574 0.930 . S
C560 H548 0.930 . S
C560 C561 1.399 . S
C560 C565 1.399 . S
C561 C560 1.399 . S
C561 C562 1.376 . S
C562 H549 0.930 . S
C562 C561 1.376 . S
C562 C563 1.388 . S
C563 H550 0.930 . S
C563 C562 1.388 . S
C563 C564 1.390 . S
C564 C563 1.390 . S
C564 C565 1.394 . S
C564 C570 1.465 . S
C565 C560 1.399 . S
C565 C564 1.394 . S
C565 C566 1.516 . S
C566 C565 1.516 . S
C566 C567 1.502 1_545 S
C566 C568 1.561 1_545 S
C566 C569 1.526 . S
C567 H551 0.959 . S
C567 H552 0.959 . S
C567 H553 0.961 . S
C567 C566 1.502 1_565 S
C568 H554 0.960 1_565 S
C568 H555 0.961 . S
C568 H556 0.959 1_565 S
C568 C566 1.561 1_565 S
C569 C566 1.526 . S
C569 C570 1.396 . S
C569 C574 1.390 1_545 S
C570 C564 1.465 . S
C570 C569 1.396 . S
C570 C571 1.399 . S
C571 H557 0.929 . S
C571 C570 1.399 . S
C571 C572 1.385 . S
C572 H558 0.931 . S
C572 C571 1.385 . S
C572 C573 1.389 1_545 S
C573 C572 1.389 1_565 S
C573 C574 1.387 . S
C574 H559 0.930 . S
C574 C569 1.390 1_565 S
C574 C573 1.387 . S
H575 C587 0.930 . S
H576 C589 0.930 . S
H577 C590 0.930 . S
H578 C594 0.959 . S
H579 C594 0.959 . S
H580 C594 0.961 . S
H581 C595 0.960 . S
H582 C595 0.961 . S
H583 C595 0.959 . S
H584 C598 0.929 . S
H585 C599 0.931 . S
H586 C601 0.930 . S
C587 H575 0.930 . S
C587 C588 1.399 . S
C587 C592 1.399 . S
C588 C587 1.399 . S
C588 C589 1.376 . S
C589 H576 0.930 . S
C589 C588 1.376 . S
C589 C590 1.388 . S
C590 H577 0.930 . S
C590 C589 1.388 . S
C590 C591 1.390 . S
C591 C590 1.390 . S
C591 C592 1.394 . S
C591 C597 1.465 . S
C592 C587 1.399 . S
C592 C591 1.394 . S
C592 C593 1.516 . S
C593 C592 1.516 . S
C593 C594 1.502 . S
C593 C595 1.561 . S
C593 C596 1.526 . S
C594 H578 0.959 . S
C594 H579 0.959 . S
C594 H580 0.961 . S
C594 C593 1.502 . S
C595 H581 0.960 . S
C595 H582 0.961 . S
C595 H583 0.959 . S
C595 C593 1.561 . S
C596 C593 1.526 . S
C596 C597 1.396 . S
C596 C601 1.390 . S
C597 C591 1.465 . S
C597 C596 1.396 . S
C597 C598 1.399 . S
C598 H584 0.929 . S
C598 C597 1.399 . S
C598 C599 1.385 . S
C599 H585 0.931 . S
C599 C598 1.385 . S
C599 C600 1.389 . S
C600 C599 1.389 . S
C600 C601 1.387 . S
C601 H586 0.930 . S
C601 C596 1.390 . S
C601 C600 1.387 . S
H602 C614 0.930 . S
H603 C616 0.930 . S
H604 C617 0.930 . S
H605 C621 0.959 . S
H606 C621 0.959 . S
H607 C621 0.961 . S
H608 C622 0.960 . S
H609 C622 0.961 . S
H610 C622 0.959 . S
H611 C625 0.929 . S
H612 C626 0.931 . S
H613 C628 0.930 . S
C614 H602 0.930 . S
C614 C615 1.399 . S
C614 C619 1.399 . S
C615 C614 1.399 . S
C615 C616 1.376 . S
C616 H603 0.930 . S
C616 C615 1.376 . S
C616 C617 1.388 . S
C617 H604 0.930 . S
C617 C616 1.388 . S
C617 C618 1.390 . S
C618 C617 1.390 . S
C618 C619 1.394 . S
C618 C624 1.465 . S
C619 C614 1.399 . S
C619 C618 1.394 . S
C619 C620 1.516 . S
C620 C619 1.516 . S
C620 C621 1.502 . S
C620 C622 1.561 . S
C620 C623 1.526 . S
C621 H605 0.959 . S
C621 H606 0.959 . S
C621 H607 0.961 . S
C621 C620 1.502 . S
C622 H608 0.960 . S
C622 H609 0.961 . S
C622 H610 0.959 . S
C622 C620 1.561 . S
C623 C620 1.526 . S
C623 C624 1.396 . S
C623 C628 1.390 . S
C624 C618 1.465 . S
C624 C623 1.396 . S
C624 C625 1.399 . S
C625 H611 0.929 . S
C625 C624 1.399 . S
C625 C626 1.385 . S
C626 H612 0.931 . S
C626 C625 1.385 . S
C626 C627 1.389 . S
C627 C626 1.389 . S
C627 C628 1.387 . S
C628 H613 0.930 . S
C628 C623 1.390 . S
C628 C627 1.387 . S
H629 C641 0.930 . S
H630 C643 0.930 . S
H631 C644 0.930 . S
H632 C648 0.959 . S
H633 C648 0.959 . S
H634 C648 0.961 . S
H635 C649 0.960 . S
H636 C649 0.961 . S
H637 C649 0.959 . S
H638 C652 0.929 . S
H639 C653 0.931 . S
H640 C655 0.930 . S
C641 H629 0.930 . S
C641 C642 1.399 . S
C641 C646 1.399 . S
C642 C641 1.399 . S
C642 C643 1.376 . S
C643 H630 0.930 . S
C643 C642 1.376 . S
C643 C644 1.388 . S
C644 H631 0.930 . S
C644 C643 1.388 . S
C644 C645 1.390 . S
C645 C644 1.390 . S
C645 C646 1.394 . S
C645 C651 1.465 . S
C646 C641 1.399 . S
C646 C645 1.394 . S
C646 C647 1.516 . S
C647 C646 1.516 . S
C647 C648 1.502 . S
C647 C649 1.561 . S
C647 C650 1.526 . S
C648 H632 0.959 . S
C648 H633 0.959 . S
C648 H634 0.961 . S
C648 C647 1.502 . S
C649 H635 0.960 . S
C649 H636 0.961 . S
C649 H637 0.959 . S
C649 C647 1.561 . S
C650 C647 1.526 . S
C650 C651 1.396 . S
C650 C655 1.390 . S
C651 C645 1.465 . S
C651 C650 1.396 . S
C651 C652 1.399 1_545 S
C652 H638 0.929 . S
C652 C651 1.399 1_565 S
C652 C653 1.385 . S
C653 H639 0.931 . S
C653 C652 1.385 . S
C653 C654 1.389 . S
C654 C653 1.389 . S
C654 C655 1.387 1_565 S
C655 H640 0.930 . S
C655 C650 1.390 . S
C655 C654 1.387 1_545 S
H656 C668 0.930 . S
H657 C670 0.930 . S
H658 C671 0.930 . S
H659 C675 0.959 . S
H660 C675 0.959 . S
H661 C675 0.961 . S
H662 C676 0.960 . S
H663 C676 0.961 1_554 S
H664 C676 0.959 . S
H665 C679 0.929 . S
H666 C680 0.931 . S
H667 C682 0.930 . S
C668 H656 0.930 . S
C668 C669 1.399 . S
C668 C673 1.399 . S
C669 C668 1.399 . S
C669 C670 1.376 . S
C670 H657 0.930 . S
C670 C669 1.376 . S
C670 C671 1.388 . S
C671 H658 0.930 . S
C671 C670 1.388 . S
C671 C672 1.390 . S
C672 C671 1.390 . S
C672 C673 1.394 . S
C672 C678 1.465 1_556 S
C673 C668 1.399 . S
C673 C672 1.394 . S
C673 C674 1.516 1_556 S
C674 C673 1.516 1_554 S
C674 C675 1.502 . S
C674 C676 1.561 1_554 S
C674 C677 1.526 . S
C675 H659 0.959 . S
C675 H660 0.959 . S
C675 H661 0.961 . S
C675 C674 1.502 . S
C676 H662 0.960 . S
C676 H663 0.961 1_556 S
C676 H664 0.959 . S
C676 C674 1.561 1_556 S
C677 C674 1.526 . S
C677 C678 1.396 . S
C677 C682 1.390 . S
C678 C672 1.465 1_554 S
C678 C677 1.396 . S
C678 C679 1.399 . S
C679 H665 0.929 . S
C679 C678 1.399 . S
C679 C680 1.385 . S
C680 H666 0.931 . S
C680 C679 1.385 . S
C680 C681 1.389 . S
C681 C680 1.389 . S
C681 C682 1.387 . S
C682 H667 0.930 . S
C682 C677 1.390 . S
C682 C681 1.387 . S
H683 C695 0.930 . S
H684 C697 0.930 . S
H685 C698 0.930 . S
H686 C702 0.959 . S
H687 C702 0.959 . S
H688 C702 0.961 . S
H689 C703 0.960 . S
H690 C703 0.961 . S
H691 C703 0.959 . S
H692 C706 0.929 . S
H693 C707 0.931 . S
H694 C709 0.930 . S
C695 H683 0.930 . S
C695 C696 1.399 . S
C695 C700 1.399 . S
C696 C695 1.399 . S
C696 C697 1.376 . S
C697 H684 0.930 . S
C697 C696 1.376 . S
C697 C698 1.388 . S
C698 H685 0.930 . S
C698 C697 1.388 . S
C698 C699 1.390 . S
C699 C698 1.390 . S
C699 C700 1.394 . S
C699 C705 1.465 . S
C700 C695 1.399 . S
C700 C699 1.394 . S
C700 C701 1.516 . S
C701 C700 1.516 . S
C701 C702 1.502 . S
C701 C703 1.561 . S
C701 C704 1.526 . S
C702 H686 0.959 . S
C702 H687 0.959 . S
C702 H688 0.961 . S
C702 C701 1.502 . S
C703 H689 0.960 . S
C703 H690 0.961 . S
C703 H691 0.959 . S
C703 C701 1.561 . S
C704 C701 1.526 . S
C704 C705 1.396 . S
C704 C709 1.390 . S
C705 C699 1.465 . S
C705 C704 1.396 . S
C705 C706 1.399 . S
C706 H692 0.929 . S
C706 C705 1.399 . S
C706 C707 1.385 . S
C707 H693 0.931 . S
C707 C706 1.385 . S
C707 C708 1.389 . S
C708 C707 1.389 . S
C708 C709 1.387 . S
C709 H694 0.930 . S
C709 C704 1.390 . S
C709 C708 1.387 . S
H710 C722 0.930 . S
H711 C724 0.930 . S
H712 C725 0.930 . S
H713 C729 0.959 . S
H714 C729 0.959 . S
H715 C729 0.961 1_554 S
H716 C730 0.960 . S
H717 C730 0.961 . S
H718 C730 0.959 . S
H719 C733 0.929 . S
H720 C734 0.931 . S
H721 C736 0.930 . S
C722 H710 0.930 . S
C722 C723 1.399 . S
C722 C727 1.399 . S
C723 C722 1.399 . S
C723 C724 1.376 . S
C724 H711 0.930 . S
C724 C723 1.376 . S
C724 C725 1.388 . S
C725 H712 0.930 . S
C725 C724 1.388 . S
C725 C726 1.390 . S
C726 C725 1.390 . S
C726 C727 1.394 . S
C726 C732 1.465 1_554 S
C727 C722 1.399 . S
C727 C726 1.394 . S
C727 C728 1.516 . S
C728 C727 1.516 . S
C728 C729 1.502 1_554 S
C728 C730 1.561 . S
C728 C731 1.526 1_554 S
C729 H713 0.959 . S
C729 H714 0.959 . S
C729 H715 0.961 1_556 S
C729 C728 1.502 1_556 S
C730 H716 0.960 . S
C730 H717 0.961 . S
C730 H718 0.959 . S
C730 C728 1.561 . S
C731 C728 1.526 1_556 S
C731 C732 1.396 . S
C731 C736 1.390 . S
C732 C726 1.465 1_556 S
C732 C731 1.396 . S
C732 C733 1.399 . S
C733 H719 0.929 . S
C733 C732 1.399 . S
C733 C734 1.385 . S
C734 H720 0.931 . S
C734 C733 1.385 . S
C734 C735 1.389 . S
C735 C734 1.389 . S
C735 C736 1.387 . S
C736 H721 0.930 . S
C736 C731 1.390 . S
C736 C735 1.387 . S
H737 C749 0.930 . S
H738 C751 0.930 . S
H739 C752 0.930 . S
H740 C756 0.959 . S
H741 C756 0.959 . S
H742 C756 0.961 . S
H743 C757 0.960 . S
H744 C757 0.961 . S
H745 C757 0.959 . S
H746 C760 0.929 . S
H747 C761 0.931 . S
H748 C763 0.930 . S
C749 H737 0.930 . S
C749 C750 1.399 . S
C749 C754 1.399 . S
C750 C749 1.399 . S
C750 C751 1.376 . S
C751 H738 0.930 . S
C751 C750 1.376 . S
C751 C752 1.388 . S
C752 H739 0.930 . S
C752 C751 1.388 . S
C752 C753 1.390 . S
C753 C752 1.390 . S
C753 C754 1.394 . S
C753 C759 1.465 . S
C754 C749 1.399 . S
C754 C753 1.394 . S
C754 C755 1.516 . S
C755 C754 1.516 . S
C755 C756 1.502 . S
C755 C757 1.561 . S
C755 C758 1.526 . S
C756 H740 0.959 . S
C756 H741 0.959 . S
C756 H742 0.961 . S
C756 C755 1.502 . S
C757 H743 0.960 . S
C757 H744 0.961 . S
C757 H745 0.959 . S
C757 C755 1.561 . S
C758 C755 1.526 . S
C758 C759 1.396 . S
C758 C763 1.390 . S
C759 C753 1.465 . S
C759 C758 1.396 . S
C759 C760 1.399 . S
C760 H746 0.929 . S
C760 C759 1.399 . S
C760 C761 1.385 . S
C761 H747 0.931 . S
C761 C760 1.385 . S
C761 C762 1.389 . S
C762 C761 1.389 . S
C762 C763 1.387 . S
C763 H748 0.930 . S
C763 C758 1.390 . S
C763 C762 1.387 . S
H764 C776 0.930 . S
H765 C778 0.930 . S
H766 C779 0.930 . S
H767 C783 0.959 . S
H768 C783 0.959 1_556 S
H769 C783 0.961 . S
H770 C784 0.961 1_554 S
H771 C784 0.961 . S
H772 C784 0.959 . S
H773 C787 0.929 . S
H774 C788 0.931 . S
H775 C790 0.930 . S
C776 H764 0.930 . S
C776 C777 1.399 . S
C776 C781 1.399 . S
C777 C776 1.399 . S
C777 C778 1.376 . S
C778 H765 0.930 . S
C778 C777 1.376 . S
C778 C779 1.388 . S
C779 H766 0.930 . S
C779 C778 1.388 . S
C779 C780 1.390 . S
C780 C779 1.390 . S
C780 C781 1.394 . S
C780 C786 1.465 1_554 S
C781 C776 1.399 . S
C781 C780 1.394 . S
C781 C782 1.516 1_554 S
C782 C781 1.516 1_556 S
C782 C783 1.502 1_556 S
C782 C784 1.561 . S
C782 C785 1.526 . S
C783 H767 0.959 . S
C783 H768 0.959 1_554 S
C783 H769 0.961 . S
C783 C782 1.502 1_554 S
C784 H770 0.961 1_556 S
C784 H771 0.961 . S
C784 H772 0.959 . S
C784 C782 1.561 . S
C785 C782 1.526 . S
C785 C786 1.396 . S
C785 C790 1.390 . S
C786 C780 1.465 1_556 S
C786 C785 1.396 . S
C786 C787 1.399 . S
C787 H773 0.929 . S
C787 C786 1.399 . S
C787 C788 1.385 . S
C788 H774 0.931 . S
C788 C787 1.385 . S
C788 C789 1.389 . S
C789 C788 1.389 . S
C789 C790 1.387 . S
C790 H775 0.930 . S
C790 C785 1.390 . S
C790 C789 1.387 . S
H791 C803 0.930 . S
H792 C805 0.930 . S
H793 C806 0.930 . S
H794 C810 0.959 . S
H795 C810 0.959 . S
H796 C810 0.961 . S
H797 C811 0.960 . S
H798 C811 0.961 . S
H799 C811 0.959 . S
H800 C814 0.929 . S
H801 C815 0.931 . S
H802 C817 0.930 . S
C803 H791 0.930 . S
C803 C804 1.399 . S
C803 C808 1.399 . S
C804 C803 1.399 . S
C804 C805 1.376 . S
C805 H792 0.930 . S
C805 C804 1.376 . S
C805 C806 1.388 . S
C806 H793 0.930 . S
C806 C805 1.388 . S
C806 C807 1.390 . S
C807 C806 1.390 . S
C807 C808 1.394 . S
C807 C813 1.465 . S
C808 C803 1.399 . S
C808 C807 1.394 . S
C808 C809 1.516 . S
C809 C808 1.516 . S
C809 C810 1.502 . S
C809 C811 1.561 . S
C809 C812 1.526 . S
C810 H794 0.959 . S
C810 H795 0.959 . S
C810 H796 0.961 . S
C810 C809 1.502 . S
C811 H797 0.960 . S
C811 H798 0.961 . S
C811 H799 0.959 . S
C811 C809 1.561 . S
C812 C809 1.526 . S
C812 C813 1.396 . S
C812 C817 1.390 . S
C813 C807 1.465 . S
C813 C812 1.396 . S
C813 C814 1.399 . S
C814 H800 0.929 . S
C814 C813 1.399 . S
C814 C815 1.385 . S
C815 H801 0.931 . S
C815 C814 1.385 . S
C815 C816 1.389 . S
C816 C815 1.389 . S
C816 C817 1.387 . S
C817 H802 0.930 . S
C817 C812 1.390 . S
C817 C816 1.387 . S
H818 C830 0.930 . S
H819 C832 0.930 . S
H820 C833 0.930 . S
H821 C837 0.959 . S
H822 C837 0.959 . S
H823 C837 0.961 1_556 S
H824 C838 0.960 . S
H825 C838 0.961 . S
H826 C838 0.959 . S
H827 C841 0.929 . S
H828 C842 0.931 . S
H829 C844 0.930 . S
C830 H818 0.930 . S
C830 C831 1.399 . S
C830 C835 1.399 . S
C831 C830 1.399 . S
C831 C832 1.376 . S
C832 H819 0.930 . S
C832 C831 1.376 . S
C832 C833 1.388 . S
C833 H820 0.930 . S
C833 C832 1.388 . S
C833 C834 1.390 . S
C834 C833 1.390 . S
C834 C835 1.394 . S
C834 C840 1.465 1_556 S
C835 C830 1.399 . S
C835 C834 1.394 . S
C835 C836 1.516 . S
C836 C835 1.516 . S
C836 C837 1.502 1_556 S
C836 C838 1.561 . S
C836 C839 1.526 1_556 S
C837 H821 0.959 . S
C837 H822 0.959 . S
C837 H823 0.961 1_554 S
C837 C836 1.502 1_554 S
C838 H824 0.960 . S
C838 H825 0.961 . S
C838 H826 0.959 . S
C838 C836 1.561 . S
C839 C836 1.526 1_554 S
C839 C840 1.396 . S
C839 C844 1.390 . S
C840 C834 1.465 1_554 S
C840 C839 1.396 . S
C840 C841 1.399 . S
C841 H827 0.929 . S
C841 C840 1.399 . S
C841 C842 1.385 . S
C842 H828 0.931 . S
C842 C841 1.385 . S
C842 C843 1.389 . S
C843 C842 1.389 . S
C843 C844 1.387 . S
C844 H829 0.930 . S
C844 C839 1.390 . S
C844 C843 1.387 . S
H845 C857 0.930 . S
H846 C859 0.930 . S
H847 C860 0.930 . S
H848 C864 0.959 . S
H849 C864 0.959 . S
H850 C864 0.961 . S
H851 C865 0.960 . S
H852 C865 0.961 . S
H853 C865 0.959 . S
H854 C868 0.929 . S
H855 C869 0.931 . S
H856 C871 0.930 . S
C857 H845 0.930 . S
C857 C858 1.399 . S
C857 C862 1.399 . S
C858 C857 1.399 . S
C858 C859 1.376 . S
C859 H846 0.930 . S
C859 C858 1.376 . S
C859 C860 1.388 . S
C860 H847 0.930 . S
C860 C859 1.388 . S
C860 C861 1.390 . S
C861 C860 1.390 . S
C861 C862 1.394 . S
C861 C867 1.465 . S
C862 C857 1.399 . S
C862 C861 1.394 . S
C862 C863 1.516 . S
C863 C862 1.516 . S
C863 C864 1.502 . S
C863 C865 1.561 . S
C863 C866 1.526 . S
C864 H848 0.959 . S
C864 H849 0.959 . S
C864 H850 0.961 . S
C864 C863 1.502 . S
C865 H851 0.960 . S
C865 H852 0.961 . S
C865 H853 0.959 . S
C865 C863 1.561 . S
C866 C863 1.526 . S
C866 C867 1.396 . S
C866 C871 1.390 . S
C867 C861 1.465 . S
C867 C866 1.396 . S
C867 C868 1.399 . S
C868 H854 0.929 . S
C868 C867 1.399 . S
C868 C869 1.385 . S
C869 H855 0.931 . S
C869 C868 1.385 . S
C869 C870 1.389 . S
C870 C869 1.389 . S
C870 C871 1.387 . S
C871 H856 0.930 . S
C871 C866 1.390 . S
C871 C870 1.387 . S
H872 C884 0.930 . S
H873 C886 0.930 . S
H874 C887 0.930 . S
H875 C891 0.959 . S
H876 C891 0.959 . S
H877 C891 0.961 . S
H878 C892 0.960 . S
H879 C892 0.961 . S
H880 C892 0.959 . S
H881 C895 0.929 . S
H882 C896 0.931 . S
H883 C898 0.930 . S
C884 H872 0.930 . S
C884 C885 1.399 . S
C884 C889 1.399 . S
C885 C884 1.399 . S
C885 C886 1.376 . S
C886 H873 0.930 . S
C886 C885 1.376 . S
C886 C887 1.388 . S
C887 H874 0.930 . S
C887 C886 1.388 . S
C887 C888 1.390 . S
C888 C887 1.390 . S
C888 C889 1.394 . S
C888 C894 1.465 . S
C889 C884 1.399 . S
C889 C888 1.394 . S
C889 C890 1.516 . S
C890 C889 1.516 . S
C890 C891 1.502 . S
C890 C892 1.561 . S
C890 C893 1.526 . S
C891 H875 0.959 . S
C891 H876 0.959 . S
C891 H877 0.961 . S
C891 C890 1.502 . S
C892 H878 0.960 . S
C892 H879 0.961 . S
C892 H880 0.959 . S
C892 C890 1.561 . S
C893 C890 1.526 . S
C893 C894 1.396 . S
C893 C898 1.390 . S
C894 C888 1.465 . S
C894 C893 1.396 . S
C894 C895 1.399 . S
C895 H881 0.929 . S
C895 C894 1.399 . S
C895 C896 1.385 . S
C896 H882 0.931 . S
C896 C895 1.385 . S
C896 C897 1.389 . S
C897 C896 1.389 . S
C897 C898 1.387 . S
C898 H883 0.930 . S
C898 C893 1.390 . S
C898 C897 1.387 . S
H899 C911 0.930 . S
H900 C913 0.930 . S
H901 C914 0.930 . S
H902 C918 0.959 . S
H903 C918 0.959 . S
H904 C918 0.961 . S
H905 C919 0.960 . S
H906 C919 0.961 . S
H907 C919 0.959 . S
H908 C922 0.929 . S
H909 C923 0.931 . S
H910 C925 0.930 . S
C911 H899 0.930 . S
C911 C912 1.399 . S
C911 C916 1.399 . S
C912 C911 1.399 . S
C912 C913 1.376 . S
C913 H900 0.930 . S
C913 C912 1.376 . S
C913 C914 1.388 . S
C914 H901 0.930 . S
C914 C913 1.388 . S
C914 C915 1.390 . S
C915 C914 1.390 . S
C915 C916 1.394 . S
C915 C921 1.465 . S
C916 C911 1.399 . S
C916 C915 1.394 . S
C916 C917 1.516 . S
C917 C916 1.516 . S
C917 C918 1.502 . S
C917 C919 1.561 . S
C917 C920 1.526 . S
C918 H902 0.959 . S
C918 H903 0.959 . S
C918 H904 0.961 . S
C918 C917 1.502 . S
C919 H905 0.960 . S
C919 H906 0.961 . S
C919 H907 0.959 . S
C919 C917 1.561 . S
C920 C917 1.526 . S
C920 C921 1.396 . S
C920 C925 1.390 . S
C921 C915 1.465 . S
C921 C920 1.396 . S
C921 C922 1.399 . S
C922 H908 0.929 . S
C922 C921 1.399 . S
C922 C923 1.385 . S
C923 H909 0.931 . S
C923 C922 1.385 . S
C923 C924 1.389 . S
C924 C923 1.389 . S
C924 C925 1.387 . S
C925 H910 0.930 . S
C925 C920 1.390 . S
C925 C924 1.387 . S
H926 C938 0.930 . S
H927 C940 0.930 . S
H928 C941 0.930 . S
H929 C945 0.959 . S
H930 C945 0.959 . S
H931 C945 0.961 . S
H932 C946 0.960 . S
H933 C946 0.961 . S
H934 C946 0.959 . S
H935 C949 0.929 . S
H936 C950 0.931 . S
H937 C952 0.930 . S
C938 H926 0.930 . S
C938 C939 1.399 . S
C938 C943 1.399 . S
C939 C938 1.399 . S
C939 C940 1.376 . S
C940 H927 0.930 . S
C940 C939 1.376 . S
C940 C941 1.388 . S
C941 H928 0.930 . S
C941 C940 1.388 . S
C941 C942 1.390 . S
C942 C941 1.390 . S
C942 C943 1.394 . S
C942 C948 1.465 . S
C943 C938 1.399 . S
C943 C942 1.394 . S
C943 C944 1.516 . S
C944 C943 1.516 . S
C944 C945 1.502 . S
C944 C946 1.561 . S
C944 C947 1.526 . S
C945 H929 0.959 . S
C945 H930 0.959 . S
C945 H931 0.961 . S
C945 C944 1.502 . S
C946 H932 0.960 . S
C946 H933 0.961 . S
C946 H934 0.959 . S
C946 C944 1.561 . S
C947 C944 1.526 . S
C947 C948 1.396 . S
C947 C952 1.390 . S
C948 C942 1.465 . S
C948 C947 1.396 . S
C948 C949 1.399 . S
C949 H935 0.929 . S
C949 C948 1.399 . S
C949 C950 1.385 . S
C950 H936 0.931 . S
C950 C949 1.385 . S
C950 C951 1.389 . S
C951 C950 1.389 . S
C951 C952 1.387 . S
C952 H937 0.930 . S
C952 C947 1.390 . S
C952 C951 1.387 . S
H953 C965 0.930 . S
H954 C967 0.930 . S
H955 C968 0.930 . S
H956 C972 0.959 . S
H957 C972 0.959 . S
H958 C972 0.961 . S
H959 C973 0.960 . S
H960 C973 0.961 . S
H961 C973 0.959 . S
H962 C976 0.929 . S
H963 C977 0.931 . S
H964 C979 0.930 . S
C965 H953 0.930 . S
C965 C966 1.399 . S
C965 C970 1.399 . S
C966 C965 1.399 . S
C966 C967 1.376 . S
C967 H954 0.930 . S
C967 C966 1.376 . S
C967 C968 1.388 . S
C968 H955 0.930 . S
C968 C967 1.388 . S
C968 C969 1.390 . S
C969 C968 1.390 . S
C969 C970 1.394 . S
C969 C975 1.465 . S
C970 C965 1.399 . S
C970 C969 1.394 . S
C970 C971 1.516 . S
C971 C970 1.516 . S
C971 C972 1.502 . S
C971 C973 1.561 . S
C971 C974 1.526 . S
C972 H956 0.959 . S
C972 H957 0.959 . S
C972 H958 0.961 . S
C972 C971 1.502 . S
C973 H959 0.960 . S
C973 H960 0.961 . S
C973 H961 0.959 . S
C973 C971 1.561 . S
C974 C971 1.526 . S
C974 C975 1.396 . S
C974 C979 1.390 . S
C975 C969 1.465 . S
C975 C974 1.396 . S
C975 C976 1.399 . S
C976 H962 0.929 . S
C976 C975 1.399 . S
C976 C977 1.385 . S
C977 H963 0.931 . S
C977 C976 1.385 . S
C977 C978 1.389 . S
C978 C977 1.389 . S
C978 C979 1.387 . S
C979 H964 0.930 . S
C979 C974 1.390 . S
C979 C978 1.387 . S
H980 C992 0.930 . S
H981 C994 0.930 . S
H982 C995 0.930 . S
H983 C999 0.959 . S
H984 C999 0.959 . S
H985 C999 0.961 . S
H986 C1000 0.960 . S
H987 C1000 0.961 . S
H988 C1000 0.959 . S
H989 C1003 0.929 . S
H990 C1004 0.931 . S
H991 C1006 0.930 . S
C992 H980 0.930 . S
C992 C993 1.399 . S
C992 C997 1.399 . S
C993 C992 1.399 . S
C993 C994 1.376 . S
C994 H981 0.930 . S
C994 C993 1.376 . S
C994 C995 1.388 . S
C995 H982 0.930 . S
C995 C994 1.388 . S
C995 C996 1.390 . S
C996 C995 1.390 . S
C996 C997 1.394 . S
C996 C1002 1.465 . S
C997 C992 1.399 . S
C997 C996 1.394 . S
C997 C998 1.516 . S
C998 C997 1.516 . S
C998 C999 1.502 . S
C998 C1000 1.561 . S
C998 C1001 1.526 . S
C999 H983 0.959 . S
C999 H984 0.959 . S
C999 H985 0.961 . S
C999 C998 1.502 . S
C1000 H986 0.960 . S
C1000 H987 0.961 . S
C1000 H988 0.959 . S
C1000 C998 1.561 . S
C1001 C998 1.526 . S
C1001 C1002 1.396 . S
C1001 C1006 1.390 . S
C1002 C996 1.465 . S
C1002 C1001 1.396 . S
C1002 C1003 1.399 . S
C1003 H989 0.929 . S
C1003 C1002 1.399 . S
C1003 C1004 1.385 . S
C1004 H990 0.931 . S
C1004 C1003 1.385 . S
C1004 C1005 1.389 . S
C1005 C1004 1.389 . S
C1005 C1006 1.387 . S
C1006 H991 0.930 . S
C1006 C1001 1.390 . S
C1006 C1005 1.387 . S
H1007 C1019 0.930 . S
H1008 C1021 0.930 . S
H1009 C1022 0.930 . S
H1010 C1026 0.959 . S
H1011 C1026 0.959 . S
H1012 C1026 0.961 . S
H1013 C1027 0.960 . S
H1014 C1027 0.961 . S
H1015 C1027 0.959 . S
H1016 C1030 0.929 . S
H1017 C1031 0.931 . S
H1018 C1033 0.930 . S
C1019 H1007 0.930 . S
C1019 C1020 1.399 . S
C1019 C1024 1.399 . S
C1020 C1019 1.399 . S
C1020 C1021 1.376 . S
C1021 H1008 0.930 . S
C1021 C1020 1.376 . S
C1021 C1022 1.388 . S
C1022 H1009 0.930 . S
C1022 C1021 1.388 . S
C1022 C1023 1.390 . S
C1023 C1022 1.390 . S
C1023 C1024 1.394 . S
C1023 C1029 1.465 . S
C1024 C1019 1.399 . S
C1024 C1023 1.394 . S
C1024 C1025 1.516 . S
C1025 C1024 1.516 . S
C1025 C1026 1.502 . S
C1025 C1027 1.561 . S
C1025 C1028 1.526 . S
C1026 H1010 0.959 . S
C1026 H1011 0.959 . S
C1026 H1012 0.961 . S
C1026 C1025 1.502 . S
C1027 H1013 0.960 . S
C1027 H1014 0.961 . S
C1027 H1015 0.959 . S
C1027 C1025 1.561 . S
C1028 C1025 1.526 . S
C1028 C1029 1.396 . S
C1028 C1033 1.390 . S
C1029 C1023 1.465 . S
C1029 C1028 1.396 . S
C1029 C1030 1.399 . S
C1030 H1016 0.929 . S
C1030 C1029 1.399 . S
C1030 C1031 1.385 . S
C1031 H1017 0.931 . S
C1031 C1030 1.385 . S
C1031 C1032 1.389 . S
C1032 C1031 1.389 . S
C1032 C1033 1.387 . S
C1033 H1018 0.930 . S
C1033 C1028 1.390 . S
C1033 C1032 1.387 . S
H1034 C1046 0.930 . S
H1035 C1048 0.930 . S
H1036 C1049 0.930 . S
H1037 C1053 0.959 . S
H1038 C1053 0.959 . S
H1039 C1053 0.961 . S
H1040 C1054 0.960 . S
H1041 C1054 0.961 . S
H1042 C1054 0.959 . S
H1043 C1057 0.929 . S
H1044 C1058 0.931 . S
H1045 C1060 0.930 . S
C1046 H1034 0.930 . S
C1046 C1047 1.399 . S
C1046 C1051 1.399 . S
C1047 C1046 1.399 . S
C1047 C1048 1.376 . S
C1048 H1035 0.930 . S
C1048 C1047 1.376 . S
C1048 C1049 1.388 . S
C1049 H1036 0.930 . S
C1049 C1048 1.388 . S
C1049 C1050 1.390 . S
C1050 C1049 1.390 . S
C1050 C1051 1.394 . S
C1050 C1056 1.465 . S
C1051 C1046 1.399 . S
C1051 C1050 1.394 . S
C1051 C1052 1.516 . S
C1052 C1051 1.516 . S
C1052 C1053 1.502 . S
C1052 C1054 1.561 . S
C1052 C1055 1.526 . S
C1053 H1037 0.959 . S
C1053 H1038 0.959 . S
C1053 H1039 0.961 . S
C1053 C1052 1.502 . S
C1054 H1040 0.960 . S
C1054 H1041 0.961 . S
C1054 H1042 0.959 . S
C1054 C1052 1.561 . S
C1055 C1052 1.526 . S
C1055 C1056 1.396 . S
C1055 C1060 1.390 . S
C1056 C1050 1.465 . S
C1056 C1055 1.396 . S
C1056 C1057 1.399 . S
C1057 H1043 0.929 . S
C1057 C1056 1.399 . S
C1057 C1058 1.385 . S
C1058 H1044 0.931 . S
C1058 C1057 1.385 . S
C1058 C1059 1.389 . S
C1059 C1058 1.389 . S
C1059 C1060 1.387 . S
C1060 H1045 0.930 . S
C1060 C1055 1.390 . S
C1060 C1059 1.387 . S
H1061 C1073 0.930 . S
H1062 C1075 0.930 . S
H1063 C1076 0.930 . S
H1064 C1080 0.959 . S
H1065 C1080 0.959 . S
H1066 C1080 0.961 . S
H1067 C1081 0.960 . S
H1068 C1081 0.961 . S
H1069 C1081 0.959 . S
H1070 C1084 0.929 . S
H1071 C1085 0.931 . S
H1072 C1087 0.930 . S
C1073 H1061 0.930 . S
C1073 C1074 1.399 . S
C1073 C1078 1.399 . S
C1074 C1073 1.399 . S
C1074 C1075 1.376 . S
C1075 H1062 0.930 . S
C1075 C1074 1.376 . S
C1075 C1076 1.388 . S
C1076 H1063 0.930 . S
C1076 C1075 1.388 . S
C1076 C1077 1.390 . S
C1077 C1076 1.390 . S
C1077 C1078 1.394 . S
C1077 C1083 1.465 . S
C1078 C1073 1.399 . S
C1078 C1077 1.394 . S
C1078 C1079 1.516 . S
C1079 C1078 1.516 . S
C1079 C1080 1.502 . S
C1079 C1081 1.561 . S
C1079 C1082 1.526 . S
C1080 H1064 0.959 . S
C1080 H1065 0.959 . S
C1080 H1066 0.961 . S
C1080 C1079 1.502 . S
C1081 H1067 0.960 . S
C1081 H1068 0.961 . S
C1081 H1069 0.959 . S
C1081 C1079 1.561 . S
C1082 C1079 1.526 . S
C1082 C1083 1.396 . S
C1082 C1087 1.390 . S
C1083 C1077 1.465 . S
C1083 C1082 1.396 . S
C1083 C1084 1.399 . S
C1084 H1070 0.929 . S
C1084 C1083 1.399 . S
C1084 C1085 1.385 . S
C1085 H1071 0.931 . S
C1085 C1084 1.385 . S
C1085 C1086 1.389 . S
C1086 C1085 1.389 . S
C1086 C1087 1.387 . S
C1087 H1072 0.930 . S
C1087 C1082 1.390 . S
C1087 C1086 1.387 . S
C453 N83 1.616 . S
C465 C178 1.606 . S
C492 C262 1.645 . S
C480 N96 1.634 . S
C519 C255 1.646 . S
C507 N57 1.609 . S
C534 N70 1.642 . S
C546 C171 1.645 . S
C573 C335 1.617 . S
C561 N31 1.624 . S
C600 C419 1.625 . S
C588 N44 1.632 . S
C615 N5 1.609 . S
C627 C412 1.640 . S
C642 N18 1.642 . S
C654 C328 1.635 . S
C681 C162 1.418 . S
C669 N14 1.617 . S
C708 C246 1.444 . S
C696 N1 1.599 . S
C735 C257 1.397 . S
C723 N40 1.616 . S
C762 C173 1.327 . S
C750 N27 1.599 . S
C789 C341 1.391 . S
C777 N66 1.614 . S
C804 N53 1.583 . S
C816 C425 1.490 . S
C843 C414 1.347 . S
C831 N92 1.584 . S
C858 N79 1.587 . S
C870 C330 1.373 . S
C897 C160 1.544 . S
C885 N2 1.535 . S
C924 C244 1.544 . S
C912 N15 1.537 . S
C939 N28 1.538 . S
C951 C251 1.507 . S
C978 C167 1.533 . S
C966 N41 1.539 . S
C1005 C339 1.544 . S
C993 N54 1.528 . S
C1020 N67 1.545 . S
C1032 C423 1.537 . S
C1047 N80 1.518 . S
C1059 C430 1.481 . S
C1074 N93 1.517 . S
C1086 C346 1.489 . S
