# Generated by pormake.
# Topology pyr, (3,6)-cn, num edge types: 1
# Building blocks:
#     Node 0, Type 0, BuildingBlock: MIDCAF_clean_linker_0, # of connection points: 3
#     Node 1, Type 0, BuildingBlock: MIDCAF_clean_linker_0, # of connection points: 3
#     Node 2, Type 0, BuildingBlock: MIDCAF_clean_linker_0, # of connection points: 3
#     Node 3, Type 0, BuildingBlock: MIDCAF_clean_linker_0, # of connection points: 3
#     Node 4, Type 0, BuildingBlock: MIDCAF_clean_linker_0, # of connection points: 3
#     Node 5, Type 0, BuildingBlock: MIDCAF_clean_linker_0, # of connection points: 3
#     Node 6, Type 0, BuildingBlock: MIDCAF_clean_linker_0, # of connection points: 3
#     Node 7, Type 0, BuildingBlock: MIDCAF_clean_linker_0, # of connection points: 3
#     Node 8, Type 1, BuildingBlock: BETDEL_clean_sbu_0, # of connection points: 6
#     Node 9, Type 1, BuildingBlock: BETDEL_clean_sbu_0, # of connection points: 6
#     Node 10, Type 1, BuildingBlock: BETDEL_clean_sbu_0, # of connection points: 6
#     Node 11, Type 1, BuildingBlock: BETDEL_clean_sbu_0, # of connection points: 6
#     Edge 12, Type (0, 1), BuildingBlock: XUDNAN_clean_linker_2, # of connection points: 2
#     Edge 13, Type (0, 1), BuildingBlock: XUDNAN_clean_linker_2, # of connection points: 2
#     Edge 14, Type (0, 1), BuildingBlock: XUDNAN_clean_linker_2, # of connection points: 2
#     Edge 15, Type (0, 1), BuildingBlock: XUDNAN_clean_linker_2, # of connection points: 2
#     Edge 16, Type (0, 1), BuildingBlock: XUDNAN_clean_linker_2, # of connection points: 2
#     Edge 17, Type (0, 1), BuildingBlock: XUDNAN_clean_linker_2, # of connection points: 2
#     Edge 18, Type (0, 1), BuildingBlock: XUDNAN_clean_linker_2, # of connection points: 2
#     Edge 19, Type (0, 1), BuildingBlock: XUDNAN_clean_linker_2, # of connection points: 2
#     Edge 20, Type (0, 1), BuildingBlock: XUDNAN_clean_linker_2, # of connection points: 2
#     Edge 21, Type (0, 1), BuildingBlock: XUDNAN_clean_linker_2, # of connection points: 2
#     Edge 22, Type (0, 1), BuildingBlock: XUDNAN_clean_linker_2, # of connection points: 2
#     Edge 23, Type (0, 1), BuildingBlock: XUDNAN_clean_linker_2, # of connection points: 2
#     Edge 24, Type (0, 1), BuildingBlock: XUDNAN_clean_linker_2, # of connection points: 2
#     Edge 25, Type (0, 1), BuildingBlock: XUDNAN_clean_linker_2, # of connection points: 2
#     Edge 26, Type (0, 1), BuildingBlock: XUDNAN_clean_linker_2, # of connection points: 2
#     Edge 27, Type (0, 1), BuildingBlock: XUDNAN_clean_linker_2, # of connection points: 2
#     Edge 28, Type (0, 1), BuildingBlock: XUDNAN_clean_linker_2, # of connection points: 2
#     Edge 29, Type (0, 1), BuildingBlock: XUDNAN_clean_linker_2, # of connection points: 2
#     Edge 30, Type (0, 1), BuildingBlock: XUDNAN_clean_linker_2, # of connection points: 2
#     Edge 31, Type (0, 1), BuildingBlock: XUDNAN_clean_linker_2, # of connection points: 2
#     Edge 32, Type (0, 1), BuildingBlock: XUDNAN_clean_linker_2, # of connection points: 2
#     Edge 33, Type (0, 1), BuildingBlock: XUDNAN_clean_linker_2, # of connection points: 2
#     Edge 34, Type (0, 1), BuildingBlock: XUDNAN_clean_linker_2, # of connection points: 2
#     Edge 35, Type (0, 1), BuildingBlock: XUDNAN_clean_linker_2, # of connection points: 2
# Relax obj value: 0.028
# Max RMSD: 0.091
# Mean RMSD: 0.039
data_MOF--net-pyr--node1-BETDEL_clean_sbu_0--node2-MIDCAF_clean_linker_0--edge1-XUDNAN_clean_linker_2
_symmetry_space_group_name_H-M    P1
_symmetry_Int_Tables_number       1
_symmetry_cell_setting            triclinic
loop_
_symmetry_equiv_pos_as_xyz
'x, y, z'
_cell_length_a     44.880864
_cell_length_b     46.387868
_cell_length_c     42.733171
_cell_angle_alpha  90.98549
_cell_angle_beta   88.701742
_cell_angle_gamma 94.557187
loop_
_atom_site_label
_atom_site_type_symbol
_atom_site_fract_x
_atom_site_fract_y
_atom_site_fract_z
_atom_type_partial_charge
C0 C 0.08748 0.10951 0.19974 0.0
C1 C 0.09996 0.08602 0.2133 0.0
C2 C 0.1295 0.08044 0.2051 0.0
C3 C 0.14685 0.09914 0.18543 0.0
H4 H 0.22686 0.11215 0.1356 0.0
H5 H 0.2778 0.10305 0.12082 0.0
H6 H 0.29797 0.19368 0.10181 0.0
H7 H 0.24662 0.20313 0.11682 0.0
H8 H 0.18676 0.24124 0.1066 0.0
H9 H 0.16485 0.28732 0.0991 0.0
H10 H 0.0864 0.2559 0.15246 0.0
H11 H 0.10798 0.2106 0.16031 0.0
H12 H 0.09469 0.14673 0.17119 0.0
H13 H 0.06489 0.11459 0.20577 0.0
H14 H 0.13957 0.06224 0.21488 0.0
H15 H 0.16993 0.09495 0.18067 0.0
N16 N 0.18304 0.14201 0.14913 0.0
N17 N 0.19028 0.18952 0.13054 0.0
N18 N 0.14383 0.17221 0.15177 0.0
C19 C 0.20117 0.16348 0.13574 0.0
C20 C 0.16149 0.19395 0.13858 0.0
C21 C 0.15427 0.14622 0.1571 0.0
C22 C 0.2325 0.15837 0.12721 0.0
C23 C 0.24202 0.13028 0.12839 0.0
C24 C 0.27121 0.12498 0.1198 0.0
C25 C 0.29169 0.14763 0.10996 0.0
C26 C 0.28258 0.17588 0.10942 0.0
C27 C 0.25315 0.18119 0.11781 0.0
C28 C 0.14915 0.22217 0.13399 0.0
C29 C 0.16492 0.24429 0.11684 0.0
C30 C 0.15237 0.27059 0.11245 0.0
C31 C 0.12404 0.27522 0.12542 0.0
C32 C 0.1085 0.25318 0.14267 0.0
C33 C 0.12085 0.22703 0.1469 0.0
C34 C 0.13495 0.1238 0.17367 0.0
C35 C 0.10476 0.12816 0.18013 0.0
C36 C 0.17452 0.85472 0.66257 0.0
C37 C 0.16819 0.8464 0.63146 0.0
C38 C 0.18565 0.82611 0.61653 0.0
C39 C 0.20901 0.81474 0.63206 0.0
H40 H 0.25799 0.7381 0.64298 0.0
H41 H 0.28347 0.69981 0.61707 0.0
H42 H 0.36771 0.73634 0.65323 0.0
H43 H 0.34167 0.77388 0.68065 0.0
H44 H 0.33568 0.82177 0.73937 0.0
H45 H 0.35635 0.85192 0.78214 0.0
H46 H 0.26909 0.88209 0.80191 0.0
H47 H 0.24875 0.85286 0.75852 0.0
H48 H 0.2026 0.85073 0.70184 0.0
H49 H 0.1613 0.86995 0.67499 0.0
H50 H 0.18194 0.81957 0.5924 0.0
H51 H 0.22227 0.79962 0.6195 0.0
N52 N 0.25677 0.79123 0.66548 0.0
N53 N 0.29313 0.79723 0.70419 0.0
N54 N 0.25317 0.82697 0.70443 0.0
C55 C 0.28213 0.78299 0.67833 0.0
C56 C 0.27854 0.81909 0.71754 0.0
C57 C 0.24221 0.8133 0.67831 0.0
C58 C 0.29784 0.75915 0.66366 0.0
C59 C 0.28194 0.7379 0.64551 0.0
C60 C 0.29667 0.71602 0.63043 0.0
C61 C 0.32785 0.71511 0.63249 0.0
C62 C 0.34368 0.73609 0.65126 0.0
C63 C 0.32879 0.75773 0.66688 0.0
C64 C 0.29065 0.83517 0.74528 0.0
C65 C 0.32087 0.83466 0.75303 0.0
C66 C 0.33269 0.85186 0.77769 0.0
C67 C 0.31446 0.8697 0.79534 0.0
C68 C 0.28396 0.86918 0.78836 0.0
C69 C 0.27225 0.85229 0.76354 0.0
C70 C 0.21584 0.82361 0.66285 0.0
C71 C 0.19812 0.84354 0.67804 0.0
C72 C 0.64865 0.25591 0.90678 0.0
C73 C 0.62026 0.24251 0.89991 0.0
C74 C 0.60218 0.25633 0.8793 0.0
C75 C 0.61209 0.28292 0.86618 0.0
H76 H 0.59213 0.33889 0.79855 0.0
H77 H 0.56631 0.35602 0.75394 0.0
H78 H 0.62861 0.43173 0.74969 0.0
H79 H 0.65458 0.41478 0.7947 0.0
H80 H 0.7027 0.42351 0.85284 0.0
H81 H 0.74926 0.44912 0.86896 0.0
H82 H 0.7805 0.36879 0.90003 0.0
H83 H 0.73313 0.34343 0.88527 0.0
H84 H 0.68049 0.29217 0.89971 0.0
H85 H 0.66343 0.24572 0.92211 0.0
H86 H 0.58003 0.24691 0.87378 0.0
H87 H 0.59736 0.29297 0.85067 0.0
N88 N 0.63418 0.33706 0.83791 0.0
N89 N 0.66899 0.37746 0.83541 0.0
N90 N 0.67649 0.33955 0.86936 0.0
C91 C 0.64319 0.36319 0.82546 0.0
C92 C 0.68577 0.3658 0.85734 0.0
C93 C 0.65059 0.32508 0.85991 0.0
C94 C 0.62579 0.37519 0.80012 0.0
C95 C 0.60029 0.35934 0.78844 0.0
C96 C 0.58545 0.36913 0.76276 0.0
C97 C 0.5956 0.39508 0.74806 0.0
C98 C 0.62017 0.41172 0.76059 0.0
C99 C 0.63516 0.40185 0.78628 0.0
C100 C 0.71416 0.38138 0.86763 0.0
C101 C 0.71947 0.41129 0.86316 0.0
C102 C 0.74638 0.42598 0.87226 0.0
C103 C 0.76904 0.4111 0.88556 0.0
C104 C 0.76357 0.38115 0.89028 0.0
C105 C 0.7364 0.36653 0.88163 0.0
C106 C 0.64033 0.29651 0.87338 0.0
C107 C 0.65852 0.28256 0.89376 0.0
C108 C 0.75505 0.62803 0.41976 0.0
C109 C 0.73928 0.60519 0.40364 0.0
C110 C 0.74899 0.59811 0.37309 0.0
C111 C 0.7738 0.61343 0.35909 0.0
H112 H 0.85256 0.60468 0.29648 0.0
H113 H 0.87653 0.58819 0.24849 0.0
H114 H 0.90154 0.67714 0.22413 0.0
H115 H 0.87939 0.69322 0.27316 0.0
H116 H 0.89732 0.73254 0.34194 0.0
H117 H 0.91987 0.77425 0.37117 0.0
H118 H 0.85692 0.75612 0.44752 0.0
H119 H 0.83464 0.7146 0.41884 0.0
H120 H 0.79126 0.66085 0.419 0.0
H121 H 0.7486 0.63384 0.44347 0.0
H122 H 0.73715 0.58096 0.35972 0.0
H123 H 0.78047 0.60745 0.33549 0.0
N124 N 0.8275 0.64443 0.33253 0.0
N125 N 0.86263 0.68486 0.33331 0.0
N126 N 0.82751 0.67769 0.37442 0.0
C127 C 0.85103 0.66018 0.31886 0.0
C128 C 0.85103 0.69369 0.36126 0.0
C129 C 0.81548 0.65317 0.36029 0.0
C130 C 0.86429 0.65025 0.28878 0.0
C131 C 0.86321 0.62067 0.2808 0.0
C132 C 0.87683 0.61123 0.25303 0.0
C133 C 0.89134 0.63118 0.23209 0.0
C134 C 0.89149 0.66089 0.23981 0.0
C135 C 0.87853 0.67024 0.26793 0.0
C136 C 0.86423 0.71995 0.37801 0.0
C137 C 0.88822 0.73749 0.36492 0.0
C138 C 0.90108 0.7615 0.3816 0.0
C139 C 0.89037 0.76837 0.4118 0.0
C140 C 0.86607 0.75117 0.42456 0.0
C141 C 0.85317 0.72736 0.40792 0.0
C142 C 0.78945 0.63637 0.37519 0.0
C143 C 0.77973 0.64344 0.40572 0.0
C144 C 0.7365 0.89393 0.8929 0.0
C145 C 0.71417 0.87371 0.90444 0.0
C146 C 0.71944 0.84426 0.90414 0.0
C147 C 0.74645 0.83519 0.89218 0.0
H148 H 0.8229 0.77811 0.90694 0.0
H149 H 0.85227 0.73823 0.92002 0.0
H150 H 0.88601 0.7351 0.82449 0.0
H151 H 0.85775 0.77596 0.81203 0.0
H152 H 0.87086 0.84701 0.78107 0.0
H153 H 0.90734 0.88007 0.7547 0.0
H154 H 0.89597 0.94425 0.82793 0.0
H155 H 0.85758 0.91156 0.85283 0.0
H156 H 0.77989 0.90109 0.87176 0.0
H157 H 0.73292 0.91674 0.89247 0.0
H158 H 0.70267 0.82825 0.91314 0.0
H159 H 0.7497 0.8123 0.89196 0.0
N160 N 0.80342 0.81796 0.86794 0.0
N161 N 0.84653 0.8283 0.83685 0.0
N162 N 0.81529 0.86501 0.84953 0.0
C163 C 0.82841 0.80912 0.8534 0.0
C164 C 0.84024 0.85624 0.83502 0.0
C165 C 0.79647 0.84586 0.86561 0.0
C166 C 0.83851 0.78028 0.85866 0.0
C167 C 0.83589 0.76826 0.88857 0.0
C168 C 0.85276 0.74539 0.89602 0.0
C169 C 0.87212 0.73395 0.87347 0.0
C170 C 0.8721 0.74405 0.84265 0.0
C171 C 0.8557 0.76722 0.83541 0.0
C172 C 0.86139 0.87691 0.81874 0.0
C173 C 0.87609 0.86829 0.79131 0.0
C174 C 0.89738 0.88718 0.77651 0.0
C175 C 0.90518 0.91484 0.78938 0.0
C176 C 0.89039 0.92333 0.81705 0.0
C177 C 0.86841 0.90466 0.83137 0.0
C178 C 0.76858 0.8554 0.88006 0.0
C179 C 0.76337 0.88489 0.88082 0.0
C180 C 0.73151 0.1444 0.23766 0.0
C181 C 0.70531 0.15372 0.22513 0.0
C182 C 0.69177 0.1768 0.23974 0.0
C183 C 0.70355 0.18969 0.26697 0.0
H184 H 0.70083 0.26194 0.32585 0.0
H185 H 0.66881 0.29616 0.35046 0.0
H186 H 0.69491 0.26996 0.44167 0.0
H187 H 0.727 0.2355 0.41713 0.0
H188 H 0.7717 0.18503 0.42082 0.0
H189 H 0.80179 0.15424 0.45085 0.0
H190 H 0.83789 0.1194 0.36506 0.0
H191 H 0.80765 0.14998 0.33481 0.0
H192 H 0.76288 0.14887 0.27476 0.0
H193 H 0.74233 0.12657 0.22686 0.0
H194 H 0.67177 0.18465 0.2303 0.0
H195 H 0.69204 0.207 0.27794 0.0
N196 N 0.72599 0.21354 0.32497 0.0
N197 N 0.75284 0.20857 0.3707 0.0
N198 N 0.75954 0.17756 0.32753 0.0
C199 C 0.73275 0.22256 0.35451 0.0
C200 C 0.76659 0.18623 0.35719 0.0
C201 C 0.73919 0.19108 0.31129 0.0
C202 C 0.71628 0.24574 0.36953 0.0
C203 C 0.70006 0.26365 0.35117 0.0
C204 C 0.68185 0.28344 0.36523 0.0
C205 C 0.67922 0.28558 0.39796 0.0
C206 C 0.6963 0.26852 0.41636 0.0
C207 C 0.7148 0.24892 0.40229 0.0
C208 C 0.78709 0.16982 0.3754 0.0
C209 C 0.7863 0.1711 0.4083 0.0
C210 C 0.80339 0.15337 0.42552 0.0
C211 C 0.82197 0.13435 0.41023 0.0
C212 C 0.82382 0.13396 0.37739 0.0
C213 C 0.80637 0.15136 0.36013 0.0
C214 C 0.72901 0.17959 0.28042 0.0
C215 C 0.74318 0.15712 0.26514 0.0
C216 C 0.26003 0.62048 0.15974 0.0
C217 C 0.24716 0.62807 0.13164 0.0
C218 C 0.2596 0.65266 0.11583 0.0
C219 C 0.28485 0.66875 0.12738 0.0
H220 H 0.34737 0.73559 0.10584 0.0
H221 H 0.36571 0.78015 0.08048 0.0
H222 H 0.42515 0.80071 0.15726 0.0
H223 H 0.4075 0.75543 0.18218 0.0
H224 H 0.42666 0.68703 0.21381 0.0
H225 H 0.45339 0.66211 0.25328 0.0
H226 H 0.37016 0.61825 0.28531 0.0
H227 H 0.34347 0.64281 0.24586 0.0
H228 H 0.29466 0.62965 0.19275 0.0
H229 H 0.25068 0.60202 0.17287 0.0
H230 H 0.25038 0.659 0.09402 0.0
H231 H 0.2942 0.6872 0.11423 0.0
N232 N 0.33783 0.70082 0.15211 0.0
N233 N 0.37833 0.70406 0.18626 0.0
N234 N 0.34079 0.66605 0.19075 0.0
C235 C 0.36379 0.7149 0.16194 0.0
C236 C 0.36686 0.67959 0.2008 0.0
C237 C 0.32613 0.67641 0.16641 0.0
C238 C 0.37583 0.74186 0.14619 0.0
C239 C 0.36441 0.74952 0.11736 0.0
C240 C 0.37484 0.77528 0.10284 0.0
C241 C 0.39678 0.79433 0.11685 0.0
C242 C 0.40851 0.78649 0.14551 0.0
C243 C 0.39826 0.76053 0.15993 0.0
C244 C 0.38295 0.6668 0.22652 0.0
C245 C 0.41402 0.67234 0.22951 0.0
C246 C 0.42935 0.65796 0.25198 0.0
C247 C 0.41386 0.63817 0.27231 0.0
C248 C 0.38268 0.63351 0.27012 0.0
C249 C 0.36744 0.64747 0.24736 0.0
C250 C 0.29826 0.66058 0.155 0.0
C251 C 0.28524 0.63647 0.17123 0.0
C252 C 0.14085 0.26783 0.59965 0.0
C253 C 0.11764 0.24983 0.61328 0.0
C254 C 0.10736 0.25674 0.64368 0.0
C255 C 0.1199 0.28127 0.65984 0.0
H256 H 0.1065 0.36323 0.72843 0.0
H257 H 0.09162 0.38595 0.77779 0.0
H258 H 0.18339 0.38962 0.8076 0.0
H259 H 0.19817 0.36928 0.75735 0.0
H260 H 0.25227 0.37972 0.68146 0.0
H261 H 0.29318 0.40214 0.64892 0.0
H262 H 0.23109 0.41067 0.57424 0.0
H263 H 0.19136 0.38644 0.60589 0.0
H264 H 0.17117 0.30525 0.60408 0.0
H265 H 0.14983 0.26293 0.5766 0.0
H266 H 0.0894 0.24341 0.65482 0.0
H267 H 0.1115 0.286 0.68317 0.0
N268 N 0.14865 0.33276 0.69225 0.0
N269 N 0.18681 0.3708 0.69286 0.0
N270 N 0.18027 0.34104 0.64834 0.0
C271 C 0.16337 0.3556 0.70741 0.0
C272 C 0.19505 0.36375 0.66312 0.0
C273 C 0.15742 0.32507 0.66271 0.0
C274 C 0.15352 0.36489 0.73901 0.0
C275 C 0.12331 0.36873 0.7458 0.0
C276 C 0.11481 0.38165 0.77424 0.0
C277 C 0.1363 0.39039 0.7968 0.0
C278 C 0.16622 0.38441 0.79058 0.0
C279 C 0.17478 0.37239 0.76186 0.0
C280 C 0.21889 0.38107 0.64592 0.0
C281 C 0.24757 0.38669 0.65814 0.0
C282 C 0.27093 0.39966 0.63948 0.0
C283 C 0.26579 0.40775 0.6085 0.0
C284 C 0.23639 0.40381 0.59741 0.0
C285 C 0.21344 0.39019 0.61565 0.0
C286 C 0.14305 0.29933 0.64597 0.0
C287 C 0.15327 0.29217 0.61565 0.0
Dy288 Dy 0.01894 0.00824 0.47989 0.0
C289 C 0.00542 0.99706 0.613 0.0
C290 C 0.026 0.02294 0.41887 0.0
Dy291 Dy 0.0057 1.00058 0.54961 0.0
O292 O 0.04754 0.02225 0.43858 0.0
O293 O 1.00033 0.01593 0.43257 0.0
O294 O 0.0451 0.96907 0.47939 0.0
O295 O 0.04459 0.99536 0.51966 0.0
C296 C 0.05315 0.97212 0.50824 0.0
C297 C 0.95966 0.01669 0.51688 0.0
O298 O 0.03376 0.04271 0.55117 0.0
O299 O 0.03655 0.05191 0.49788 0.0
O300 O 0.99562 0.01796 0.5974 0.0
O301 O 0.01529 0.97766 0.59389 0.0
O302 O 0.95656 1.00042 0.54131 0.0
O303 O 0.98678 0.02528 0.51275 0.0
O304 O 0.9847 0.97033 0.47979 0.0
O305 O 0.99267 0.95609 0.53046 0.0
C306 C 0.04139 0.05993 0.52741 0.0
C307 C 0.98198 0.95065 0.50205 0.0
Dy308 Dy 0.53148 0.02726 0.03392 0.0
C309 C 0.43786 0.98289 0.94688 0.0
C310 C 0.57522 0.05431 0.06928 0.0
Dy311 Dy 0.48364 0.0089 0.98028 0.0
O312 O 0.5482 0.04674 0.07946 0.0
O313 O 0.57821 0.04713 0.03994 0.0
O314 O 0.52358 0.9832 0.05514 0.0
O315 O 0.48961 1.00007 0.02987 0.0
C316 C 0.49743 0.97773 0.04284 0.0
C317 C 0.52224 0.05457 0.96403 0.0
O318 O 0.45774 0.03456 0.01427 0.0
O319 O 0.49703 0.05963 0.0408 0.0
O320 O 0.44133 0.01035 0.9537 0.0
O321 O 0.45943 0.9695 0.95843 0.0
O322 O 0.50139 0.04381 0.94557 0.0
O323 O 0.52087 0.03926 0.98783 0.0
O324 O 0.55766 1.00124 1.00025 0.0
O325 O 0.51848 0.97766 0.97222 0.0
C326 C 0.46841 0.05585 0.03308 0.0
C327 C 0.54689 0.98082 0.98046 0.0
Dy328 Dy 0.51216 0.47652 0.48413 0.0
C329 C 0.45161 0.5666 0.54298 0.0
C330 C 0.53995 0.42924 0.46348 0.0
Dy331 Dy 0.4911 0.52864 0.52147 0.0
O332 O 0.51842 0.4291 0.48418 0.0
O333 O 0.54606 0.45533 0.45324 0.0
O334 O 0.46464 0.46321 0.4731 0.0
O335 O 0.47454 0.48332 0.51648 0.0
C336 C 0.45368 0.47346 0.499 0.0
C337 C 0.54924 0.53412 0.5048 0.0
O338 O 0.50075 0.49947 0.56086 0.0
O339 O 0.53348 0.47392 0.53071 0.0
O340 O 0.47836 0.56516 0.55376 0.0
O341 O 0.44667 0.5473 0.52104 0.0
O342 O 0.53824 0.54885 0.52794 0.0
O343 O 0.52815 0.52156 0.48968 0.0
O344 O 0.50367 0.50362 0.44313 0.0
O345 O 0.47886 0.53806 0.47163 0.0
C346 C 0.52164 0.48082 0.5582 0.0
C347 C 0.48763 0.52647 0.44457 0.0
Dy348 Dy 0.00967 0.48886 0.02213 0.0
C349 C 0.99505 0.59589 0.96905 0.0
C350 C 0.02336 0.43871 0.04867 0.0
Dy351 Dy 0.01199 0.54498 0.99042 0.0
O352 O 0.00755 0.45783 0.06192 0.0
O353 O 0.03117 0.44658 0.02049 0.0
O354 O 0.96968 0.50165 0.05059 0.0
O355 O 0.00395 0.53294 0.03867 0.0
C356 C 0.97874 0.52893 0.05208 0.0
C357 C 0.04636 0.50791 0.96178 0.0
O358 O 0.04833 0.55675 0.0243 0.0
O359 O 0.05544 0.50905 0.03411 0.0
O360 O 0.01925 0.58419 0.96018 0.0
O361 O 0.98057 0.58012 0.99002 0.0
O362 O 0.05269 0.5357 0.96298 0.0
O363 O 0.02057 0.5012 0.97355 0.0
O364 O 0.97164 0.47623 0.99081 0.0
O365 O 0.96923 0.52255 0.9722 0.0
C366 C 0.06453 0.53692 0.03577 0.0
C367 C 0.95847 0.49517 0.9742 0.0
H368 H 0.12237 0.07051 0.26864 0.0
H369 H 0.04025 0.06703 0.21656 0.0
H370 H 0.01202 0.04801 0.2632 0.0
H371 H 0.10325 1.00473 0.31528 0.0
H372 H 0.12131 0.02085 0.34931 0.0
H373 H 0.13499 0.03079 0.3107 0.0
H374 H 0.12935 0.08469 0.32479 0.0
H375 H 0.11515 0.07494 0.36317 0.0
H376 H 0.09347 0.09563 0.33808 0.0
H377 H 0.99237 0.03412 0.31744 0.0
H378 H 0.98355 0.02388 0.37383 0.0
H379 H 0.07897 0.03645 0.38894 0.0
C380 C 0.09862 0.06477 0.26659 0.0
C381 C 0.08353 0.07004 0.23891 0.0
C382 C 0.05223 0.06319 0.23761 0.0
C383 C 0.03605 0.05233 0.26392 0.0
C384 C 0.05156 0.0483 0.29118 0.0
C385 C 0.08222 0.05398 0.29251 0.0
C386 C 0.09349 0.04965 0.325 0.0
C387 C 0.11449 0.02503 0.32507 0.0
C388 C 0.10875 0.07791 0.33854 0.0
C389 C 0.06432 0.04126 0.34197 0.0
C390 C 0.04034 0.04041 0.32215 0.0
C391 C 0.01102 0.03433 0.33308 0.0
C392 C 0.0062 0.02869 0.36506 0.0
C393 C 0.03061 0.02933 0.3855 0.0
C394 C 0.05992 0.03569 0.37374 0.0
H395 H 0.35849 0.86043 0.83733 0.0
H396 H 0.30047 0.92516 0.80808 0.0
H397 H 0.32302 0.95957 0.8469 0.0
H398 H 0.36004 0.88074 0.92046 0.0
H399 H 0.39899 0.87467 0.92392 0.0
H400 H 0.37639 0.85398 0.89586 0.0
H401 H 0.4138 0.87052 0.8514 0.0
H402 H 0.4365 0.8912 0.8793 0.0
H403 H 0.423 0.90863 0.84562 0.0
H404 H 0.35378 0.98809 0.8861 0.0
H405 H 0.3917 0.00915 0.92268 0.0
H406 H 0.43082 0.92669 0.92578 0.0
C407 C 0.35042 0.88179 0.83913 0.0
C408 C 0.32741 0.88989 0.81979 0.0
C409 C 0.31752 0.9181 0.82307 0.0
C410 C 0.33031 0.93791 0.84496 0.0
C411 C 0.35303 0.92928 0.86344 0.0
C412 C 0.36305 0.90193 0.86079 0.0
C413 C 0.38892 0.89871 0.88232 0.0
C414 C 0.38057 0.87566 0.90711 0.0
C415 C 0.41723 0.89187 0.86353 0.0
C416 C 0.39225 0.92874 0.89695 0.0
C417 C 0.37111 0.94592 0.88594 0.0
C418 C 0.3703 0.97481 0.8951 0.0
C419 C 0.39192 0.98657 0.91584 0.0
C420 C 0.41404 0.96949 0.92702 0.0
C421 C 0.41397 0.94013 0.91774 0.0
H422 H 0.57936 0.44882 0.73015 0.0
H423 H 0.58217 0.3597 0.69819 0.0
H424 H 0.56143 0.37211 0.64782 0.0
H425 H 0.50935 0.46174 0.69194 0.0
H426 H 0.52147 0.49842 0.68174 0.0
H427 H 0.53575 0.4827 0.71608 0.0
H428 H 0.58991 0.49453 0.6953 0.0
H429 H 0.57581 0.51029 0.66093 0.0
H430 H 0.60057 0.48164 0.65693 0.0
H431 H 0.54397 0.39387 0.60022 0.0
H432 H 0.5282 0.4238 0.5576 0.0
H433 H 0.53373 0.49927 0.61927 0.0
C434 C 0.57546 0.43196 0.71254 0.0
C435 C 0.58216 0.40318 0.71824 0.0
C436 C 0.57675 0.38173 0.69462 0.0
C437 C 0.56509 0.38859 0.66585 0.0
C438 C 0.55871 0.41702 0.66098 0.0
C439 C 0.56344 0.4384 0.6836 0.0
C440 C 0.55477 0.4673 0.6718 0.0
C441 C 0.52879 0.47817 0.69157 0.0
C442 C 0.58189 0.48976 0.67121 0.0
C443 C 0.54495 0.45879 0.63887 0.0
C444 C 0.54757 0.42963 0.63331 0.0
C445 C 0.54148 0.41664 0.60435 0.0
C446 C 0.53265 0.43386 0.58027 0.0
C447 C 0.5296 0.46376 0.58523 0.0
C448 C 0.53546 0.47637 0.61506 0.0
H449 H 0.87727 0.58214 0.19504 0.0
H450 H 0.94191 0.65677 0.20291 0.0
H451 H 0.96788 0.64071 0.15539 0.0
H452 H 0.93136 0.53261 0.17287 0.0
H453 H 0.90701 0.51168 0.14657 0.0
H454 H 0.89144 0.53043 0.17956 0.0
H455 H 0.85833 0.55684 0.14228 0.0
H456 H 0.87395 0.53828 0.10913 0.0
H457 H 0.8756 0.57724 0.11024 0.0
H458 H 0.98802 0.61631 0.10776 0.0
H459 H 0.00334 0.58298 0.06591 0.0
H460 H 0.92855 0.52196 0.09068 0.0
C461 C 0.89692 0.59518 0.18701 0.0
C462 C 0.90698 0.62117 0.20289 0.0
C463 C 0.93285 0.63737 0.191 0.0
C464 C 0.94804 0.62829 0.16399 0.0
C465 C 0.93748 0.60271 0.14908 0.0
C466 C 0.91272 0.58618 0.1603 0.0
C467 C 0.90726 0.55856 0.14094 0.0
C468 C 0.90941 0.53174 0.16119 0.0
C469 C 0.87698 0.55769 0.12469 0.0
C470 C 0.93305 0.56203 0.11734 0.0
C471 C 0.9499 0.5879 0.12224 0.0
C472 C 0.97502 0.59598 0.10371 0.0
C473 C 0.98352 0.5769 0.07996 0.0
C474 C 0.96723 0.54982 0.0751 0.0
C475 C 0.9414 0.54252 0.09381 0.0
H476 H 0.30607 0.10515 0.06931 0.0
H477 H 0.34555 0.17533 0.12683 0.0
H478 H 0.39619 0.16116 0.11179 0.0
H479 H 0.35548 0.05369 0.08819 0.0
H480 H 0.3564 0.03755 0.04954 0.0
H481 H 0.3239 0.05484 0.06303 0.0
H482 H 0.32817 0.08819 0.01475 0.0
H483 H 0.36063 0.07086 1.001 0.0
H484 H 0.36274 0.10955 1.00673 0.0
H485 H 0.44248 0.13617 0.09302 0.0
H486 H 0.47969 0.10441 0.07064 0.0
H487 H 0.40809 0.05155 0.02585 0.0
C488 C 0.32538 0.11765 0.0786 0.0
C489 C 0.32206 0.14118 0.09933 0.0
C490 C 0.34778 0.15729 0.11075 0.0
C491 C 0.37653 0.14934 0.10243 0.0
C492 C 0.37897 0.1255 0.08242 0.0
C493 C 0.354 0.11014 0.07045 0.0
C494 C 0.36224 0.08493 0.05017 0.0
C495 C 0.34871 0.05606 0.06355 0.0
C496 C 0.35289 0.08862 0.01615 0.0
C497 C 0.39577 0.08804 0.05302 0.0
C498 C 0.40519 0.11154 0.07156 0.0
C499 C 0.43533 0.11787 0.07822 0.0
C500 C 0.45628 0.09967 0.06549 0.0
C501 C 0.44687 0.07549 0.04643 0.0
C502 C 0.4162 0.06988 0.04015 0.0
H503 H 0.15248 0.90278 0.63457 0.0
H504 H 0.12999 0.81991 0.58854 0.0
H505 H 0.09524 0.8428 0.55482 0.0
H506 H 0.07478 0.92784 0.63134 0.0
H507 H 0.08893 0.96478 0.62511 0.0
H508 H 0.10979 0.94139 0.64801 0.0
H509 H 0.15616 0.95236 0.61163 0.0
H510 H 0.13543 0.9755 0.58846 0.0
H511 H 0.15297 0.94574 0.57009 0.0
H512 H 0.06844 0.87525 0.5217 0.0
H513 H 0.04797 0.91498 0.49358 0.0
H514 H 0.08435 0.97659 0.56298 0.0
C515 C 0.13961 0.88921 0.61809 0.0
C516 C 0.14434 0.85952 0.61406 0.0
C517 C 0.12736 0.84278 0.5917 0.0
C518 C 0.1073 0.85553 0.57261 0.0
C519 C 0.10389 0.88494 0.57656 0.0
C520 C 0.11908 0.90151 0.59913 0.0
C521 C 0.11225 0.93298 0.59747 0.0
C522 C 0.09544 0.94229 0.62725 0.0
C523 C 0.14091 0.9528 0.59155 0.0
C524 C 0.0921 0.93169 0.56941 0.0
C525 C 0.08739 0.90368 0.55794 0.0
C526 C 0.07148 0.89718 0.53079 0.0
C527 C 0.06016 0.9199 0.51486 0.0
C528 C 0.06462 0.94872 0.52621 0.0
C529 C 0.08039 0.95464 0.55409 0.0
H530 H 0.80584 0.40123 0.93502 0.0
H531 H 0.79931 0.45632 0.85458 0.0
H532 H 0.84652 0.48337 0.86876 0.0
H533 H 0.83768 0.45504 0.98755 0.0
H534 H 0.86271 0.4317 1.00501 0.0
H535 H 0.82801 0.4166 0.98897 0.0
H536 H 0.85689 0.38217 0.95329 0.0
H537 H 0.89169 0.3971 0.9693 0.0
H538 H 0.88641 0.39703 0.92761 0.0
H539 H 0.89328 0.50583 0.89246 0.0
H540 H 0.93838 0.52044 0.9225 0.0
H541 H 0.91729 0.44885 0.98543 0.0
C542 C 0.81442 0.41873 0.92009 0.0
C543 C 0.79833 0.42675 0.89383 0.0
C544 C 0.81051 0.45009 0.87528 0.0
C545 C 0.83756 0.4655 0.88297 0.0
C546 C 0.85258 0.45716 0.90905 0.0
C547 C 0.84167 0.43415 0.92717 0.0
C548 C 0.86257 0.42952 0.95377 0.0
C549 C 0.84679 0.43345 0.98571 0.0
C550 C 0.87513 0.39968 0.9508 0.0
C551 C 0.88676 0.45368 0.94787 0.0
C552 C 0.88038 0.46945 0.92205 0.0
C553 C 0.89867 0.4935 0.91255 0.0
C554 C 0.9242 0.50168 0.92986 0.0
C555 C 0.93148 0.4857 0.95621 0.0
C556 C 0.91252 0.46127 0.96517 0.0
H557 H 0.69538 0.62633 0.44198 0.0
H558 H 0.72322 0.54685 0.39938 0.0
H559 H 0.67899 0.51989 0.42297 0.0
H560 H 0.66724 0.59409 0.51545 0.0
H561 H 0.63649 0.61677 0.51886 0.0
H562 H 0.67076 0.62985 0.49923 0.0
H563 H 0.64124 0.64018 0.44977 0.0
H564 H 0.60691 0.62719 0.46925 0.0
H565 H 0.61751 0.61145 0.43219 0.0
H566 H 0.63065 0.50183 0.44906 0.0
H567 H 0.5815 0.49412 0.47616 0.0
H568 H 0.58582 0.58454 0.50378 0.0
C569 C 0.6925 0.60318 0.43797 0.0
C570 C 0.71289 0.58881 0.41863 0.0
C571 C 0.70779 0.55853 0.41361 0.0
C572 C 0.68284 0.54294 0.42716 0.0
C573 C 0.66322 0.55782 0.44594 0.0
C574 C 0.6678 0.58724 0.45149 0.0
C575 C 0.64289 0.59811 0.47202 0.0
C576 C 0.65508 0.61043 0.50324 0.0
C577 C 0.62615 0.62055 0.45477 0.0
C578 C 0.62337 0.57026 0.47681 0.0
C579 C 0.63558 0.54729 0.46156 0.0
C580 C 0.62101 0.51962 0.46124 0.0
C581 C 0.59305 0.51544 0.47648 0.0
C582 C 0.58 0.53865 0.49192 0.0
C583 C 0.59559 0.56631 0.49256 0.0
H584 H 0.12119 0.30474 0.07063 0.0
H585 H 0.09438 0.30667 0.16885 0.0
H586 H 0.06507 0.34833 0.15943 0.0
H587 H 0.12797 0.38367 0.06076 0.0
H588 H 0.11381 0.38106 0.0216 0.0
H589 H 0.13396 0.35236 0.03654 0.0
H590 H 0.0891 0.31565 0.02387 0.0
H591 H 0.06862 0.34431 0.00941 0.0
H592 H 0.05261 0.32146 0.04015 0.0
H593 H 0.03623 0.38726 0.13904 0.0
H594 H 0.01325 0.42479 0.10964 0.0
H595 H 0.05957 0.39856 0.02485 0.0
C596 C 0.10969 0.31436 0.09026 0.0
C597 C 0.10987 0.30243 0.12043 0.0
C598 C 0.09419 0.3153 0.14547 0.0
C599 C 0.07755 0.33896 0.14038 0.0
C600 C 0.07704 0.3496 0.11018 0.0
C601 C 0.09301 0.33807 0.08561 0.0
C602 C 0.08823 0.35341 0.05535 0.0
C603 C 0.11775 0.36853 0.04284 0.0
C604 C 0.07377 0.33245 0.03075 0.0
C605 C 0.06681 0.37511 0.06674 0.0
C606 C 0.0606 0.37244 0.09843 0.0
C607 C 0.04106 0.38975 0.11426 0.0
C608 C 0.02801 0.41085 0.09736 0.0
C609 C 0.03468 0.41443 0.06508 0.0
C610 C 0.05406 0.39615 0.04953 0.0
H611 H 0.58686 0.19613 0.87338 0.0
H612 H 0.62838 0.22571 0.96023 0.0
H613 H 0.6098 0.18003 0.98517 0.0
H614 H 0.52029 0.16234 0.90879 0.0
H615 H 0.51713 0.13266 0.88097 0.0
H616 H 0.53497 0.1671 0.86943 0.0
H617 H 0.58249 0.14224 0.85215 0.0
H618 H 0.56481 0.10772 0.86372 0.0
H619 H 0.60035 0.12056 0.87969 0.0
H620 H 0.58497 0.13196 1.00149 0.0
H621 H 0.55539 0.08513 0.00781 0.0
H622 H 0.52974 0.08663 0.91076 0.0
C623 C 0.592 0.19311 0.89767 0.0
C624 C 0.60932 0.21461 0.91472 0.0
C625 C 0.61569 0.20948 0.94642 0.0
C626 C 0.60507 0.18362 0.96089 0.0
C627 C 0.58804 0.163 0.94343 0.0
C628 C 0.58152 0.16743 0.91252 0.0
C629 C 0.56214 0.14205 0.89924 0.0
C630 C 0.53183 0.15162 0.88901 0.0
C631 C 0.57843 0.12727 0.87209 0.0
C632 C 0.55856 0.12278 0.92759 0.0
C633 C 0.57381 0.13523 0.9528 0.0
C634 C 0.57326 0.12186 0.98179 0.0
C635 C 0.55663 0.09513 0.98513 0.0
C636 C 0.54088 0.08199 0.95965 0.0
C637 C 0.54188 0.09606 0.93054 0.0
H638 H 0.90917 0.82339 0.39216 0.0
H639 H 0.90415 0.76873 0.47382 0.0
H640 H 0.92643 0.80936 0.50572 0.0
H641 H 0.98017 0.86239 0.41009 0.0
H642 H 0.96944 0.89635 0.3959 0.0
H643 H 0.95335 0.86284 0.37935 0.0
H644 H 0.90026 0.87846 0.39242 0.0
H645 H 0.9162 0.91195 0.40915 0.0
H646 H 0.89071 0.88846 0.43213 0.0
H647 H 0.94926 0.85584 0.52891 0.0
H648 H 0.97117 0.90498 0.54171 0.0
H649 H 0.96123 0.92979 0.44516 0.0
C650 C 0.91302 0.81991 0.41668 0.0
C651 C 0.90475 0.79286 0.4305 0.0
C652 C 0.90988 0.78933 0.46278 0.0
C653 C 0.92267 0.81225 0.48108 0.0
C654 C 0.93025 0.83867 0.46684 0.0
C655 C 0.92567 0.84265 0.43538 0.0
C656 C 0.9356 0.87338 0.42599 0.0
C657 C 0.96116 0.87375 0.40138 0.0
C658 C 0.90911 0.88898 0.41423 0.0
C659 C 0.94644 0.88599 0.45707 0.0
C660 C 0.94321 0.86558 0.4803 0.0
C661 C 0.95185 0.87204 0.51092 0.0
C662 C 0.96425 0.90006 0.51797 0.0
C663 C 0.96784 0.9214 0.49454 0.0
C664 C 0.95867 0.91412 0.46371 0.0
H665 H 0.37757 0.68719 0.64898 0.0
H666 H 0.31447 0.69306 0.57406 0.0
H667 H 0.33881 0.65539 0.54435 0.0
H668 H 0.44178 0.67836 0.59725 0.0
H669 H 0.45819 0.6537 0.62273 0.0
H670 H 0.43529 0.68068 0.63897 0.0
H671 H 0.40128 0.6406 0.66647 0.0
H672 H 0.42399 0.61348 0.65021 0.0
H673 H 0.38435 0.61096 0.64352 0.0
H674 H 0.36828 0.61622 0.52331 0.0
H675 H 0.40403 0.58001 0.51013 0.0
H676 H 0.45119 0.60152 0.59602 0.0
C677 C 0.369 0.68082 0.62621 0.0
C678 C 0.34361 0.69291 0.61428 0.0
C679 C 0.33319 0.68366 0.58435 0.0
C680 C 0.34706 0.66239 0.56707 0.0
C681 C 0.37168 0.65078 0.57967 0.0
C682 C 0.38287 0.65983 0.60834 0.0
C683 C 0.41017 0.64413 0.61599 0.0
C684 C 0.43801 0.6655 0.6189 0.0
C685 C 0.4046 0.62623 0.64582 0.0
C686 C 0.41239 0.62476 0.58718 0.0
C687 C 0.38973 0.62886 0.56673 0.0
C688 C 0.38628 0.61296 0.53898 0.0
C689 C 0.40664 0.59239 0.53176 0.0
C690 C 0.43039 0.58813 0.55199 0.0
C691 C 0.43335 0.60456 0.58005 0.0
H692 H 0.95476 0.90132 0.7547 0.0
H693 H 0.9057 0.97406 0.78564 0.0
H694 H 0.93784 1.0061 0.7519 0.0
H695 H 0.02964 0.94305 0.73605 0.0
H696 H 0.03457 0.92119 0.70132 0.0
H697 H 0.01523 0.90565 0.73525 0.0
H698 H 0.96948 0.88976 0.70132 0.0
H699 H 0.98862 0.9051 0.66751 0.0
H700 H 0.95244 0.91649 0.67905 0.0
H701 H 0.96612 0.02792 0.70751 0.0
H702 H 0.98538 0.03682 0.65388 0.0
H703 H 0.01355 0.94963 0.64777 0.0
C704 C 0.95107 0.92409 0.75491 0.0
C705 C 0.92757 0.93501 0.77301 0.0
C706 C 0.92386 0.96506 0.77268 0.0
C707 C 0.94208 0.98354 0.75348 0.0
C708 C 0.96392 0.97173 0.73467 0.0
C709 C 0.96853 0.94265 0.73524 0.0
C710 C 0.98912 0.93424 0.7086 0.0
C711 C 0.01891 0.92552 0.72106 0.0
C712 C 0.97399 0.91 0.68791 0.0
C713 C 0.99341 0.96262 0.69154 0.0
C714 C 0.97972 0.98425 0.70772 0.0
C715 C 0.97753 0.01141 0.69499 0.0
C716 C 0.98842 0.01623 0.66446 0.0
C717 C 1.00086 0.99384 0.64691 0.0
C718 C 0.00456 0.96718 0.66103 0.0
H719 H 0.64661 0.13473 0.21916 0.0
H720 H 0.7323 0.13838 0.16979 0.0
H721 H 0.70826 0.11325 0.12418 0.0
H722 H 0.62032 0.0639 0.1915 0.0
H723 H 0.58207 0.07267 0.18868 0.0
H724 H 0.60606 0.09117 0.21706 0.0
H725 H 0.59493 0.14051 0.19425 0.0
H726 H 0.5709 0.12217 0.1658 0.0
H727 H 0.60157 0.14697 0.1531 0.0
H728 H 0.67441 0.08889 0.08367 0.0
H729 H 0.63378 0.06499 0.05206 0.0
H730 H 0.57066 0.07622 0.12884 0.0
C731 C 0.66026 0.13043 0.19863 0.0
C732 C 0.69124 0.13864 0.19778 0.0
C733 C 0.70853 0.13216 0.17083 0.0
C734 C 0.69506 0.11803 0.14485 0.0
C735 C 0.66439 0.11034 0.14643 0.0
C736 C 0.64726 0.11615 0.17272 0.0
C737 C 0.61488 0.10516 0.16877 0.0
C738 C 0.60528 0.08184 0.19293 0.0
C739 C 0.59437 0.1302 0.17058 0.0
C740 C 0.61637 0.0924 0.13603 0.0
C741 C 0.64509 0.09571 0.12348 0.0
C742 C 0.65188 0.08605 0.09331 0.0
C743 C 0.62869 0.07256 0.07555 0.0
C744 C 0.59923 0.06873 0.08815 0.0
C745 C 0.59305 0.07877 0.11875 0.0
H746 H 0.4009 0.62863 0.33473 0.0
H747 H 0.46339 0.60894 0.25995 0.0
H748 H 0.48891 0.57807 0.29572 0.0
H749 H 0.45502 0.63222 0.39709 0.0
H750 H 0.42877 0.61617 0.42557 0.0
H751 H 0.41569 0.63691 0.39413 0.0
H752 H 0.37942 0.59327 0.37782 0.0
H753 H 0.39253 0.57236 0.4091 0.0
H754 H 0.39399 0.5588 0.36936 0.0
H755 H 0.50586 0.5472 0.33883 0.0
H756 H 0.51592 0.52198 0.38746 0.0
H757 H 0.44378 0.56336 0.43499 0.0
C758 C 0.42002 0.61787 0.32596 0.0
C759 C 0.43021 0.62118 0.29455 0.0
C760 C 0.45543 0.60694 0.28399 0.0
C761 C 0.46994 0.58923 0.30407 0.0
C762 C 0.45916 0.5862 0.33479 0.0
C763 C 0.43502 0.60041 0.34583 0.0
C764 C 0.4282 0.5938 0.38001 0.0
C765 C 0.43217 0.62142 0.4004 0.0
C766 C 0.39666 0.57865 0.38431 0.0
C767 C 0.45209 0.57343 0.38637 0.0
C768 C 0.46955 0.56915 0.3599 0.0
C769 C 0.49248 0.55057 0.35976 0.0
C770 C 0.49793 0.53622 0.38748 0.0
C771 C 0.48074 0.54075 0.41509 0.0
C772 C 0.4575 0.55961 0.41436 0.0
H773 H 0.08255 0.38832 0.83159 0.0
H774 H 0.17138 0.4332 0.82642 0.0
H775 H 0.15904 0.46286 0.87194 0.0
H776 H 0.04517 0.45143 0.84841 0.0
H777 H 0.01746 0.4343 0.87469 0.0
H778 H 0.03408 0.41339 0.84404 0.0
H779 H 0.05037 0.37773 0.88516 0.0
H780 H 0.03387 0.39866 0.91598 0.0
H781 H 0.07265 0.39135 0.91758 0.0
H782 H 0.13717 0.49046 0.91479 0.0
H783 H 0.10545 0.51671 0.95125 0.0
H784 H 0.02923 0.45694 0.92916 0.0
C785 C 0.09954 0.40422 0.84007 0.0
C786 C 0.12835 0.40761 0.82543 0.0
C787 C 0.14961 0.42902 0.83753 0.0
C788 C 0.14274 0.4463 0.86342 0.0
C789 C 0.11435 0.44239 0.8771 0.0
C790 C 0.09292 0.42208 0.86586 0.0
C791 C 0.06334 0.4242 0.88363 0.0
C792 C 0.03855 0.43126 0.86136 0.0
C793 C 0.05454 0.39632 0.90166 0.0
C794 C 0.07144 0.44938 0.90595 0.0
C795 C 0.10118 0.45911 0.90192 0.0
C796 C 0.11392 0.48292 0.91839 0.0
C797 C 0.0957 0.49771 0.93902 0.0
C798 C 0.06499 0.48879 0.9431 0.0
C799 C 0.05278 0.46389 0.92686 0.0
H800 H 0.70495 0.9204 0.94231 0.0
H801 H 0.6581 0.8494 0.89156 0.0
H802 H 0.60977 0.86814 0.90705 0.0
H803 H 0.6506 0.92435 1.00673 0.0
H804 H 0.65544 0.96326 0.0093 0.0
H805 H 0.68604 0.94298 0.99598 0.0
H806 H 0.69067 0.97278 0.94506 0.0
H807 H 0.65999 0.993 0.95812 0.0
H808 H 0.65847 0.97422 0.92084 0.0
H809 H 0.56695 0.89661 0.92499 0.0
H810 H 0.53251 0.9313 0.94626 0.0
H811 H 0.60786 0.98362 0.98502 0.0
C812 C 0.68451 0.9087 0.93461 0.0
C813 C 0.68519 0.88347 0.91577 0.0
C814 C 0.658 0.8686 0.90634 0.0
C815 C 0.6305 0.87915 0.91487 0.0
C816 C 0.63067 0.90444 0.93295 0.0
C817 C 0.65695 0.91888 0.94294 0.0
C818 C 0.65112 0.946 0.96145 0.0
C819 C 0.66141 0.94401 0.99537 0.0
C820 C 0.66594 0.97309 0.9454 0.0
C821 C 0.61744 0.94484 0.95989 0.0
C822 C 0.60605 0.92071 0.94342 0.0
C823 C 0.57558 0.91547 0.93814 0.0
C824 C 0.55623 0.93539 0.95021 0.0
C825 C 0.56747 0.96019 0.96735 0.0
C826 C 0.5985 0.96483 0.9722 0.0
H827 H 0.88132 0.12361 0.40561 0.0
H828 H 0.79848 0.09874 0.45592 0.0
H829 H 0.82435 0.06391 0.48643 0.0
H830 H 0.91031 0.05232 0.40225 0.0
H831 H 0.94841 0.0661 0.40862 0.0
H832 H 0.9232 0.08806 0.38937 0.0
H833 H 0.93398 0.12904 0.43053 0.0
H834 H 0.9593 0.10725 0.44977 0.0
H835 H 0.9286 0.12125 0.47155 0.0
H836 H 0.85877 0.03219 0.51154 0.0
H837 H 0.90074 0.008 0.53287 0.0
H838 H 0.96207 0.05452 0.46798 0.0
C839 C 0.86867 0.11062 0.4229 0.0
C840 C 0.83793 0.11377 0.42847 0.0
C841 C 0.8221 0.09676 0.45153 0.0
C842 C 0.83654 0.07681 0.46878 0.0
C843 C 0.86685 0.07424 0.4628 0.0
C844 C 0.88285 0.0908 0.44063 0.0
C845 C 0.9156 0.08479 0.44006 0.0
C846 C 0.92492 0.07206 0.40818 0.0
C847 C 0.93554 0.11221 0.44849 0.0
C848 C 0.91547 0.06247 0.46555 0.0
C849 C 0.88701 0.05644 0.47802 0.0
C850 C 0.88116 0.03671 0.502 0.0
C851 C 0.90512 0.02308 0.51393 0.0
C852 C 0.93457 0.02951 0.50213 0.0
C853 C 0.93973 0.04921 0.47739 0.0
H854 H 0.19691 0.64526 0.10311 0.0
H855 H 0.2399 0.569 0.12982 0.0
H856 H 0.19784 0.53792 0.10862 0.0
H857 H 0.1214 0.61748 0.12076 0.0
H858 H 0.10564 0.63399 0.08772 0.0
H859 H 0.13909 0.65057 0.10511 0.0
H860 H 0.1667 0.64943 0.05125 0.0
H861 H 0.13332 0.6329 0.03369 0.0
H862 H 0.16781 0.61558 0.03004 0.0
H863 H 0.15159 0.51497 0.08482 0.0
H864 H 0.1038 0.50131 0.05939 0.0
H865 H 0.09041 0.59214 0.04693 0.0
C866 C 0.19757 0.62202 0.10431 0.0
C867 C 0.22167 0.60961 0.11842 0.0
C868 C 0.22149 0.57908 0.11972 0.0
C869 C 0.19777 0.5612 0.10754 0.0
C870 C 0.17436 0.57411 0.094 0.0
C871 C 0.17401 0.60378 0.09223 0.0
C872 C 0.146 0.61197 0.07641 0.0
C873 C 0.12691 0.62954 0.09885 0.0
C874 C 0.15394 0.62844 0.04604 0.0
C875 C 0.13073 0.58223 0.0696 0.0
C876 C 0.14754 0.56076 0.07999 0.0
C877 C 0.13821 0.53157 0.07655 0.0
C878 C 0.11095 0.52406 0.06206 0.0
C879 C 0.09323 0.54562 0.05112 0.0
C880 C 0.10338 0.57512 0.05499 0.0
H881 H 0.31837 0.44137 0.62236 0.0
H882 H 0.27122 0.39691 0.54545 0.0
H883 H 0.31181 0.4134 0.50926 0.0
H884 H 0.35252 0.50271 0.57782 0.0
H885 H 0.38766 0.50345 0.59754 0.0
H886 H 0.3535 0.49083 0.61771 0.0
H887 H 0.37591 0.44249 0.62948 0.0
H888 H 0.41015 0.45504 0.60953 0.0
H889 H 0.39043 0.42141 0.59761 0.0
H890 H 0.35768 0.43228 0.48126 0.0
H891 H 0.40846 0.44978 0.46373 0.0
H892 H 0.42854 0.48015 0.55815 0.0
C893 C 0.31647 0.43513 0.59792 0.0
C894 C 0.29091 0.41832 0.5869 0.0
C895 C 0.28974 0.41063 0.55461 0.0
C896 C 0.3129 0.41972 0.53373 0.0
C897 C 0.33749 0.43629 0.5453 0.0
C898 C 0.33969 0.44378 0.57663 0.0
C899 C 0.36972 0.46014 0.58302 0.0
C900 C 0.36559 0.49112 0.59472 0.0
C901 C 0.38761 0.44378 0.60628 0.0
C902 C 0.3841 0.46011 0.55048 0.0
C903 C 0.36481 0.44657 0.5291 0.0
C904 C 0.37299 0.44302 0.49774 0.0
C905 C 0.40189 0.45304 0.488 0.0
C906 C 0.42242 0.46625 0.50956 0.0
C907 C 0.41322 0.47028 0.54113 0.0
H908 H 0.86546 0.68985 0.91609 0.0
H909 H 0.9304 0.73429 0.85303 0.0
H910 H 0.96921 0.70444 0.87134 0.0
H911 H 0.91513 0.6864 0.97989 0.0
H912 H 0.89994 0.65116 0.99218 0.0
H913 H 0.87653 0.67481 0.97285 0.0
H914 H 0.86372 0.63514 0.9307 0.0
H915 H 0.8868 0.61126 0.95013 0.0
H916 H 0.89359 0.61927 0.90935 0.0
H917 H 1.00126 0.67026 0.89684 0.0
H918 H 0.02372 0.63269 0.92702 0.0
H919 H 0.93878 0.61307 0.97557 0.0
C920 C 0.88781 0.69332 0.90608 0.0
C921 C 0.8947 0.71425 0.88286 0.0
C922 C 0.92427 0.71791 0.87026 0.0
C923 C 0.94663 0.7013 0.88076 0.0
C924 C 0.93916 0.68128 0.90405 0.0
C925 C 0.91049 0.67715 0.91651 0.0
C926 C 0.90848 0.65451 0.94167 0.0
C927 C 0.89949 0.66751 0.97353 0.0
C928 C 0.88688 0.62851 0.93239 0.0
C929 C 0.94053 0.64659 0.94136 0.0
C930 C 0.95787 0.66222 0.91945 0.0
C931 C 0.98799 0.65798 0.91421 0.0
C932 C 1.00056 0.63674 0.93146 0.0
C933 C 0.983 0.62035 0.9537 0.0
C934 C 0.95279 0.62566 0.959 0.0
H935 H 0.45354 0.82231 0.11505 0.0
H936 H 0.36283 0.8305 0.08497 0.0
H937 H 0.37925 0.87678 0.06011 0.0
H938 H 0.46924 0.89698 0.13526 0.0
H939 H 0.50777 0.89816 0.12212 0.0
H940 H 0.48922 0.86478 0.13588 0.0
H941 H 0.50269 0.83942 0.08351 0.0
H942 H 0.52117 0.87279 0.06954 0.0
H943 H 0.49179 0.85418 0.04712 0.0
H944 H 0.40538 0.92311 0.03935 0.0
H945 H 0.43886 0.96658 0.0267 0.0
H946 H 0.51177 0.92897 0.07201 0.0
C947 C 0.43702 0.83382 0.10339 0.0
C948 C 0.40687 0.82241 0.10184 0.0
C949 C 0.38618 0.83828 0.086 0.0
C950 C 0.39525 0.86475 0.0719 0.0
C951 C 0.42509 0.87528 0.07388 0.0
C952 C 0.44564 0.86037 0.08936 0.0
C953 C 0.47615 0.8769 0.08907 0.0
C954 C 0.48617 0.88467 0.12257 0.0
C955 C 0.49931 0.8598 0.07124 0.0
C956 C 0.46947 0.90358 0.07136 0.0
C957 C 0.43996 0.90214 0.06252 0.0
C958 C 0.42853 0.92444 0.04615 0.0
C959 C 0.44769 0.94902 0.03902 0.0
C960 C 0.47782 0.95111 0.04845 0.0
C961 C 0.48882 0.92794 0.06453 0.0
H962 H 0.10069 0.19493 0.63504 0.0
H963 H 0.10491 0.24641 0.55091 0.0
H964 H 0.08726 0.20338 0.51998 0.0
H965 H 0.12526 0.13039 0.59993 0.0
H966 H 0.10012 0.10617 0.62246 0.0
H967 H 0.11273 0.14108 0.63848 0.0
H968 H 0.05782 0.15337 0.64728 0.0
H969 H 0.04506 0.11838 0.63157 0.0
H970 H 0.0327 0.15067 0.61485 0.0
H971 H 0.07081 0.15466 0.49762 0.0
H972 H 0.05312 0.10403 0.48594 0.0
H973 H 0.05788 0.084 0.58457 0.0
C974 C 0.09751 0.19725 0.6102 0.0
C975 C 0.10456 0.2241 0.59542 0.0
C976 C 0.10029 0.22604 0.56275 0.0
C977 C 0.09012 0.20172 0.54494 0.0
C978 C 0.08403 0.17553 0.56009 0.0
C979 C 0.08722 0.17314 0.59201 0.0
C980 C 0.07895 0.14236 0.60239 0.0
C981 C 0.10587 0.12923 0.61665 0.0
C982 C 0.05203 0.14113 0.62538 0.0
C983 C 0.07075 0.12788 0.5713 0.0
C984 C 0.07398 0.14741 0.54721 0.0
C985 C 0.06806 0.13917 0.51632 0.0
C986 C 0.05812 0.11028 0.5099 0.0
C987 C 0.05405 0.08989 0.53427 0.0
C988 C 0.06071 0.09895 0.56535 0.0
H989 H 0.66898 0.34159 0.3839 0.0
H990 H 0.63897 0.27066 0.44476 0.0
H991 H 0.59963 0.29957 0.46718 0.0
H992 H 0.65671 0.3991 0.44032 0.0
H993 H 0.64431 0.4231 0.41144 0.0
H994 H 0.67041 0.39696 0.40043 0.0
H995 H 0.63466 0.3765 0.35722 0.0
H996 H 0.60835 0.40244 0.36826 0.0
H997 H 0.59663 0.36436 0.36763 0.0
H998 H 0.56253 0.33496 0.48144 0.0
H999 H 0.53213 0.37648 0.49002 0.0
H1000 H 0.58651 0.42536 0.42093 0.0
C1001 C 0.65415 0.33223 0.40201 0.0
C1002 C 0.65705 0.30392 0.4127 0.0
C1003 C 0.63739 0.29243 0.43656 0.0
C1004 C 0.61485 0.30859 0.44925 0.0
C1005 C 0.61238 0.33627 0.43796 0.0
C1006 C 0.63166 0.34818 0.41515 0.0
C1007 C 0.62429 0.37859 0.40753 0.0
C1008 C 0.65049 0.40074 0.41541 0.0
C1009 C 0.61545 0.38057 0.37311 0.0
C1010 C 0.59774 0.38181 0.42949 0.0
C1011 C 0.59118 0.35702 0.44664 0.0
C1012 C 0.5675 0.35453 0.46826 0.0
C1013 C 0.55031 0.37819 0.47287 0.0
C1014 C 0.55699 0.40404 0.4561 0.0
C1015 C 0.5809 0.40579 0.43398 0.0
loop_
_geom_bond_atom_site_label_1
_geom_bond_atom_site_label_2
_geom_bond_distance
_geom_bond_site_symmetry_2
_ccdc_geom_bond_type
C0 C1 1.384 . S
C0 H13 0.947 . S
C0 C35 1.382 . S
C1 C0 1.384 . S
C1 C2 1.378 . S
C2 C1 1.378 . S
C2 C3 1.378 . S
C2 H14 0.952 . S
C3 C2 1.378 . S
C3 H15 0.950 . S
C3 C34 1.383 . S
H4 C23 0.947 . S
H5 C24 0.946 . S
H6 C26 0.953 . S
H7 C27 0.945 . S
H8 C29 0.952 . S
H9 C30 0.949 . S
H10 C32 0.950 . S
H11 C33 0.948 . S
H12 C35 0.951 . S
H13 C0 0.947 . S
H14 C2 0.952 . S
H15 C3 0.950 . S
N16 C19 1.382 . S
N16 C21 1.363 . S
N17 C19 1.371 . S
N17 C20 1.372 . S
N18 C20 1.361 . S
N18 C21 1.377 . S
C19 N16 1.382 . S
C19 N17 1.371 . S
C19 C22 1.480 . S
C20 N17 1.372 . S
C20 N18 1.361 . S
C20 C28 1.457 . S
C21 N16 1.363 . S
C21 N18 1.377 . S
C21 C34 1.479 . S
C22 C19 1.480 . S
C22 C23 1.383 . S
C22 C27 1.385 . S
C23 H4 0.947 . S
C23 C22 1.383 . S
C23 C24 1.388 . S
C24 H5 0.946 . S
C24 C23 1.388 . S
C24 C25 1.384 . S
C25 C24 1.384 . S
C25 C26 1.377 . S
C26 H6 0.953 . S
C26 C25 1.377 . S
C26 C27 1.369 . S
C27 H7 0.945 . S
C27 C22 1.385 . S
C27 C26 1.369 . S
C28 C20 1.457 . S
C28 C29 1.372 . S
C28 C33 1.364 . S
C29 H8 0.952 . S
C29 C28 1.372 . S
C29 C30 1.389 . S
C30 H9 0.949 . S
C30 C29 1.389 . S
C30 C31 1.387 . S
C31 C30 1.387 . S
C31 C32 1.372 . S
C32 H10 0.950 . S
C32 C31 1.372 . S
C32 C33 1.379 . S
C33 H11 0.948 . S
C33 C28 1.364 . S
C33 C32 1.379 . S
C34 C3 1.383 . S
C34 C21 1.479 . S
C34 C35 1.398 . S
C35 C0 1.382 . S
C35 H12 0.951 . S
C35 C34 1.398 . S
C36 C37 1.384 . S
C36 H49 0.947 . S
C36 C71 1.382 . S
C37 C36 1.384 . S
C37 C38 1.378 . S
C38 C37 1.378 . S
C38 C39 1.378 . S
C38 H50 0.952 . S
C39 C38 1.378 . S
C39 H51 0.950 . S
C39 C70 1.383 . S
H40 C59 0.947 . S
H41 C60 0.946 . S
H42 C62 0.953 . S
H43 C63 0.945 . S
H44 C65 0.952 . S
H45 C66 0.949 . S
H46 C68 0.950 . S
H47 C69 0.948 . S
H48 C71 0.951 . S
H49 C36 0.947 . S
H50 C38 0.952 . S
H51 C39 0.950 . S
N52 C55 1.382 . S
N52 C57 1.363 . S
N53 C55 1.371 . S
N53 C56 1.372 . S
N54 C56 1.361 . S
N54 C57 1.377 . S
C55 N52 1.382 . S
C55 N53 1.371 . S
C55 C58 1.480 . S
C56 N53 1.372 . S
C56 N54 1.361 . S
C56 C64 1.457 . S
C57 N52 1.363 . S
C57 N54 1.377 . S
C57 C70 1.479 . S
C58 C55 1.480 . S
C58 C59 1.383 . S
C58 C63 1.385 . S
C59 H40 0.947 . S
C59 C58 1.383 . S
C59 C60 1.388 . S
C60 H41 0.946 . S
C60 C59 1.388 . S
C60 C61 1.384 . S
C61 C60 1.384 . S
C61 C62 1.377 . S
C62 H42 0.953 . S
C62 C61 1.377 . S
C62 C63 1.369 . S
C63 H43 0.945 . S
C63 C58 1.385 . S
C63 C62 1.369 . S
C64 C56 1.457 . S
C64 C65 1.372 . S
C64 C69 1.364 . S
C65 H44 0.952 . S
C65 C64 1.372 . S
C65 C66 1.389 . S
C66 H45 0.949 . S
C66 C65 1.389 . S
C66 C67 1.387 . S
C67 C66 1.387 . S
C67 C68 1.372 . S
C68 H46 0.950 . S
C68 C67 1.372 . S
C68 C69 1.379 . S
C69 H47 0.948 . S
C69 C64 1.364 . S
C69 C68 1.379 . S
C70 C39 1.383 . S
C70 C57 1.479 . S
C70 C71 1.398 . S
C71 C36 1.382 . S
C71 H48 0.951 . S
C71 C70 1.398 . S
C72 C73 1.384 . S
C72 H85 0.947 . S
C72 C107 1.382 . S
C73 C72 1.384 . S
C73 C74 1.378 . S
C74 C73 1.378 . S
C74 C75 1.378 . S
C74 H86 0.952 . S
C75 C74 1.378 . S
C75 H87 0.950 . S
C75 C106 1.383 . S
H76 C95 0.947 . S
H77 C96 0.946 . S
H78 C98 0.953 . S
H79 C99 0.945 . S
H80 C101 0.952 . S
H81 C102 0.949 . S
H82 C104 0.950 . S
H83 C105 0.948 . S
H84 C107 0.951 . S
H85 C72 0.947 . S
H86 C74 0.952 . S
H87 C75 0.950 . S
N88 C91 1.382 . S
N88 C93 1.363 . S
N89 C91 1.371 . S
N89 C92 1.372 . S
N90 C92 1.361 . S
N90 C93 1.377 . S
C91 N88 1.382 . S
C91 N89 1.371 . S
C91 C94 1.480 . S
C92 N89 1.372 . S
C92 N90 1.361 . S
C92 C100 1.457 . S
C93 N88 1.363 . S
C93 N90 1.377 . S
C93 C106 1.479 . S
C94 C91 1.480 . S
C94 C95 1.383 . S
C94 C99 1.385 . S
C95 H76 0.947 . S
C95 C94 1.383 . S
C95 C96 1.388 . S
C96 H77 0.946 . S
C96 C95 1.388 . S
C96 C97 1.384 . S
C97 C96 1.384 . S
C97 C98 1.377 . S
C98 H78 0.953 . S
C98 C97 1.377 . S
C98 C99 1.369 . S
C99 H79 0.945 . S
C99 C94 1.385 . S
C99 C98 1.369 . S
C100 C92 1.457 . S
C100 C101 1.372 . S
C100 C105 1.364 . S
C101 H80 0.952 . S
C101 C100 1.372 . S
C101 C102 1.389 . S
C102 H81 0.949 . S
C102 C101 1.389 . S
C102 C103 1.387 . S
C103 C102 1.387 . S
C103 C104 1.372 . S
C104 H82 0.950 . S
C104 C103 1.372 . S
C104 C105 1.379 . S
C105 H83 0.948 . S
C105 C100 1.364 . S
C105 C104 1.379 . S
C106 C75 1.383 . S
C106 C93 1.479 . S
C106 C107 1.398 . S
C107 C72 1.382 . S
C107 H84 0.951 . S
C107 C106 1.398 . S
C108 C109 1.384 . S
C108 H121 0.947 . S
C108 C143 1.382 . S
C109 C108 1.384 . S
C109 C110 1.378 . S
C110 C109 1.378 . S
C110 C111 1.378 . S
C110 H122 0.952 . S
C111 C110 1.378 . S
C111 H123 0.950 . S
C111 C142 1.383 . S
H112 C131 0.947 . S
H113 C132 0.946 . S
H114 C134 0.953 . S
H115 C135 0.945 . S
H116 C137 0.952 . S
H117 C138 0.949 . S
H118 C140 0.950 . S
H119 C141 0.948 . S
H120 C143 0.951 . S
H121 C108 0.947 . S
H122 C110 0.952 . S
H123 C111 0.950 . S
N124 C127 1.382 . S
N124 C129 1.363 . S
N125 C127 1.371 . S
N125 C128 1.372 . S
N126 C128 1.361 . S
N126 C129 1.377 . S
C127 N124 1.382 . S
C127 N125 1.371 . S
C127 C130 1.480 . S
C128 N125 1.372 . S
C128 N126 1.361 . S
C128 C136 1.457 . S
C129 N124 1.363 . S
C129 N126 1.377 . S
C129 C142 1.479 . S
C130 C127 1.480 . S
C130 C131 1.383 . S
C130 C135 1.385 . S
C131 H112 0.947 . S
C131 C130 1.383 . S
C131 C132 1.388 . S
C132 H113 0.946 . S
C132 C131 1.388 . S
C132 C133 1.384 . S
C133 C132 1.384 . S
C133 C134 1.377 . S
C134 H114 0.953 . S
C134 C133 1.377 . S
C134 C135 1.369 . S
C135 H115 0.945 . S
C135 C130 1.385 . S
C135 C134 1.369 . S
C136 C128 1.457 . S
C136 C137 1.372 . S
C136 C141 1.364 . S
C137 H116 0.952 . S
C137 C136 1.372 . S
C137 C138 1.389 . S
C138 H117 0.949 . S
C138 C137 1.389 . S
C138 C139 1.387 . S
C139 C138 1.387 . S
C139 C140 1.372 . S
C140 H118 0.950 . S
C140 C139 1.372 . S
C140 C141 1.379 . S
C141 H119 0.948 . S
C141 C136 1.364 . S
C141 C140 1.379 . S
C142 C111 1.383 . S
C142 C129 1.479 . S
C142 C143 1.398 . S
C143 C108 1.382 . S
C143 H120 0.951 . S
C143 C142 1.398 . S
C144 C145 1.384 . S
C144 H157 0.947 . S
C144 C179 1.382 . S
C145 C144 1.384 . S
C145 C146 1.378 . S
C146 C145 1.378 . S
C146 C147 1.378 . S
C146 H158 0.952 . S
C147 C146 1.378 . S
C147 H159 0.950 . S
C147 C178 1.383 . S
H148 C167 0.947 . S
H149 C168 0.946 . S
H150 C170 0.953 . S
H151 C171 0.945 . S
H152 C173 0.952 . S
H153 C174 0.949 . S
H154 C176 0.950 . S
H155 C177 0.948 . S
H156 C179 0.951 . S
H157 C144 0.947 . S
H158 C146 0.952 . S
H159 C147 0.950 . S
N160 C163 1.382 . S
N160 C165 1.363 . S
N161 C163 1.371 . S
N161 C164 1.372 . S
N162 C164 1.361 . S
N162 C165 1.377 . S
C163 N160 1.382 . S
C163 N161 1.371 . S
C163 C166 1.480 . S
C164 N161 1.372 . S
C164 N162 1.361 . S
C164 C172 1.457 . S
C165 N160 1.363 . S
C165 N162 1.377 . S
C165 C178 1.479 . S
C166 C163 1.480 . S
C166 C167 1.383 . S
C166 C171 1.385 . S
C167 H148 0.947 . S
C167 C166 1.383 . S
C167 C168 1.388 . S
C168 H149 0.946 . S
C168 C167 1.388 . S
C168 C169 1.384 . S
C169 C168 1.384 . S
C169 C170 1.377 . S
C170 H150 0.953 . S
C170 C169 1.377 . S
C170 C171 1.369 . S
C171 H151 0.945 . S
C171 C166 1.385 . S
C171 C170 1.369 . S
C172 C164 1.457 . S
C172 C173 1.372 . S
C172 C177 1.364 . S
C173 H152 0.952 . S
C173 C172 1.372 . S
C173 C174 1.389 . S
C174 H153 0.949 . S
C174 C173 1.389 . S
C174 C175 1.387 . S
C175 C174 1.387 . S
C175 C176 1.372 . S
C176 H154 0.950 . S
C176 C175 1.372 . S
C176 C177 1.379 . S
C177 H155 0.948 . S
C177 C172 1.364 . S
C177 C176 1.379 . S
C178 C147 1.383 . S
C178 C165 1.479 . S
C178 C179 1.398 . S
C179 C144 1.382 . S
C179 H156 0.951 . S
C179 C178 1.398 . S
C180 C181 1.384 . S
C180 H193 0.947 . S
C180 C215 1.382 . S
C181 C180 1.384 . S
C181 C182 1.378 . S
C182 C181 1.378 . S
C182 C183 1.378 . S
C182 H194 0.952 . S
C183 C182 1.378 . S
C183 H195 0.950 . S
C183 C214 1.383 . S
H184 C203 0.947 . S
H185 C204 0.946 . S
H186 C206 0.953 . S
H187 C207 0.945 . S
H188 C209 0.952 . S
H189 C210 0.949 . S
H190 C212 0.950 . S
H191 C213 0.948 . S
H192 C215 0.951 . S
H193 C180 0.947 . S
H194 C182 0.952 . S
H195 C183 0.950 . S
N196 C199 1.382 . S
N196 C201 1.363 . S
N197 C199 1.371 . S
N197 C200 1.372 . S
N198 C200 1.361 . S
N198 C201 1.377 . S
C199 N196 1.382 . S
C199 N197 1.371 . S
C199 C202 1.480 . S
C200 N197 1.372 . S
C200 N198 1.361 . S
C200 C208 1.457 . S
C201 N196 1.363 . S
C201 N198 1.377 . S
C201 C214 1.479 . S
C202 C199 1.480 . S
C202 C203 1.383 . S
C202 C207 1.385 . S
C203 H184 0.947 . S
C203 C202 1.383 . S
C203 C204 1.388 . S
C204 H185 0.946 . S
C204 C203 1.388 . S
C204 C205 1.384 . S
C205 C204 1.384 . S
C205 C206 1.377 . S
C206 H186 0.953 . S
C206 C205 1.377 . S
C206 C207 1.369 . S
C207 H187 0.945 . S
C207 C202 1.385 . S
C207 C206 1.369 . S
C208 C200 1.457 . S
C208 C209 1.372 . S
C208 C213 1.364 . S
C209 H188 0.952 . S
C209 C208 1.372 . S
C209 C210 1.389 . S
C210 H189 0.949 . S
C210 C209 1.389 . S
C210 C211 1.387 . S
C211 C210 1.387 . S
C211 C212 1.372 . S
C212 H190 0.950 . S
C212 C211 1.372 . S
C212 C213 1.379 . S
C213 H191 0.948 . S
C213 C208 1.364 . S
C213 C212 1.379 . S
C214 C183 1.383 . S
C214 C201 1.479 . S
C214 C215 1.398 . S
C215 C180 1.382 . S
C215 H192 0.951 . S
C215 C214 1.398 . S
C216 C217 1.384 . S
C216 H229 0.947 . S
C216 C251 1.382 . S
C217 C216 1.384 . S
C217 C218 1.378 . S
C218 C217 1.378 . S
C218 C219 1.378 . S
C218 H230 0.952 . S
C219 C218 1.378 . S
C219 H231 0.950 . S
C219 C250 1.383 . S
H220 C239 0.947 . S
H221 C240 0.946 . S
H222 C242 0.953 . S
H223 C243 0.945 . S
H224 C245 0.952 . S
H225 C246 0.949 . S
H226 C248 0.950 . S
H227 C249 0.948 . S
H228 C251 0.951 . S
H229 C216 0.947 . S
H230 C218 0.952 . S
H231 C219 0.950 . S
N232 C235 1.382 . S
N232 C237 1.363 . S
N233 C235 1.371 . S
N233 C236 1.372 . S
N234 C236 1.361 . S
N234 C237 1.377 . S
C235 N232 1.382 . S
C235 N233 1.371 . S
C235 C238 1.480 . S
C236 N233 1.372 . S
C236 N234 1.361 . S
C236 C244 1.457 . S
C237 N232 1.363 . S
C237 N234 1.377 . S
C237 C250 1.479 . S
C238 C235 1.480 . S
C238 C239 1.383 . S
C238 C243 1.385 . S
C239 H220 0.947 . S
C239 C238 1.383 . S
C239 C240 1.388 . S
C240 H221 0.946 . S
C240 C239 1.388 . S
C240 C241 1.384 . S
C241 C240 1.384 . S
C241 C242 1.377 . S
C242 H222 0.953 . S
C242 C241 1.377 . S
C242 C243 1.369 . S
C243 H223 0.945 . S
C243 C238 1.385 . S
C243 C242 1.369 . S
C244 C236 1.457 . S
C244 C245 1.372 . S
C244 C249 1.364 . S
C245 H224 0.952 . S
C245 C244 1.372 . S
C245 C246 1.389 . S
C246 H225 0.949 . S
C246 C245 1.389 . S
C246 C247 1.387 . S
C247 C246 1.387 . S
C247 C248 1.372 . S
C248 H226 0.950 . S
C248 C247 1.372 . S
C248 C249 1.379 . S
C249 H227 0.948 . S
C249 C244 1.364 . S
C249 C248 1.379 . S
C250 C219 1.383 . S
C250 C237 1.479 . S
C250 C251 1.398 . S
C251 C216 1.382 . S
C251 H228 0.951 . S
C251 C250 1.398 . S
C252 C253 1.384 . S
C252 H265 0.947 . S
C252 C287 1.382 . S
C253 C252 1.384 . S
C253 C254 1.378 . S
C254 C253 1.378 . S
C254 C255 1.378 . S
C254 H266 0.952 . S
C255 C254 1.378 . S
C255 H267 0.950 . S
C255 C286 1.383 . S
H256 C275 0.947 . S
H257 C276 0.946 . S
H258 C278 0.953 . S
H259 C279 0.945 . S
H260 C281 0.952 . S
H261 C282 0.949 . S
H262 C284 0.950 . S
H263 C285 0.948 . S
H264 C287 0.951 . S
H265 C252 0.947 . S
H266 C254 0.952 . S
H267 C255 0.950 . S
N268 C271 1.382 . S
N268 C273 1.363 . S
N269 C271 1.371 . S
N269 C272 1.372 . S
N270 C272 1.361 . S
N270 C273 1.377 . S
C271 N268 1.382 . S
C271 N269 1.371 . S
C271 C274 1.480 . S
C272 N269 1.372 . S
C272 N270 1.361 . S
C272 C280 1.457 . S
C273 N268 1.363 . S
C273 N270 1.377 . S
C273 C286 1.479 . S
C274 C271 1.480 . S
C274 C275 1.383 . S
C274 C279 1.385 . S
C275 H256 0.947 . S
C275 C274 1.383 . S
C275 C276 1.388 . S
C276 H257 0.946 . S
C276 C275 1.388 . S
C276 C277 1.384 . S
C277 C276 1.384 . S
C277 C278 1.377 . S
C278 H258 0.953 . S
C278 C277 1.377 . S
C278 C279 1.369 . S
C279 H259 0.945 . S
C279 C274 1.385 . S
C279 C278 1.369 . S
C280 C272 1.457 . S
C280 C281 1.372 . S
C280 C285 1.364 . S
C281 H260 0.952 . S
C281 C280 1.372 . S
C281 C282 1.389 . S
C282 H261 0.949 . S
C282 C281 1.389 . S
C282 C283 1.387 . S
C283 C282 1.387 . S
C283 C284 1.372 . S
C284 H262 0.950 . S
C284 C283 1.372 . S
C284 C285 1.379 . S
C285 H263 0.948 . S
C285 C280 1.364 . S
C285 C284 1.379 . S
C286 C255 1.383 . S
C286 C273 1.479 . S
C286 C287 1.398 . S
C287 C252 1.382 . S
C287 H264 0.951 . S
C287 C286 1.398 . S
Dy288 O292 2.398 . S
Dy288 O293 2.491 . S
Dy288 O294 2.403 1_545 S
Dy288 O295 2.664 1_545 S
Dy288 O299 2.326 . S
Dy288 O303 2.310 1_455 S
Dy288 O304 2.351 1_445 S
C289 O300 1.185 . S
C289 O301 1.355 . S
C290 O292 1.185 . S
C290 O293 1.355 . S
Dy291 O295 2.310 1_655 S
Dy291 O298 2.351 1_665 S
Dy291 O300 2.398 . S
Dy291 O301 2.491 . S
Dy291 O302 2.403 1_565 S
Dy291 O303 2.664 1_565 S
Dy291 O305 2.326 . S
O292 Dy288 2.398 . S
O292 C290 1.185 . S
O293 Dy288 2.491 . S
O293 C290 1.355 . S
O294 Dy288 2.403 1_565 S
O294 C296 1.254 . S
O295 Dy288 2.664 1_565 S
O295 Dy291 2.310 1_455 S
O295 C296 1.268 . S
C296 O294 1.254 . S
C296 O295 1.268 . S
C297 O302 1.254 . S
C297 O303 1.268 . S
O298 Dy291 2.351 1_445 S
O298 C306 1.249 . S
O299 Dy288 2.326 . S
O299 C306 1.267 . S
O300 C289 1.185 . S
O300 Dy291 2.398 . S
O301 C289 1.355 . S
O301 Dy291 2.491 . S
O302 Dy291 2.403 1_545 S
O302 C297 1.254 . S
O303 Dy288 2.310 1_655 S
O303 Dy291 2.664 1_545 S
O303 C297 1.268 . S
O304 Dy288 2.351 1_665 S
O304 C307 1.249 . S
O305 Dy291 2.326 . S
O305 C307 1.267 . S
C306 O298 1.249 . S
C306 O299 1.267 . S
C307 O304 1.249 . S
C307 O305 1.267 . S
Dy308 O312 2.398 . S
Dy308 O313 2.491 . S
Dy308 O314 2.403 1_545 S
Dy308 O315 2.664 1_545 S
Dy308 O319 2.326 . S
Dy308 O323 2.310 1_554 S
Dy308 O324 2.351 1_544 S
C309 O320 1.185 . S
C309 O321 1.355 . S
C310 O312 1.185 . S
C310 O313 1.355 . S
Dy311 O315 2.303 1_546 S
Dy311 O318 2.357 1_556 S
Dy311 O320 2.397 1_545 S
Dy311 O321 2.482 1_545 S
Dy311 O322 2.411 . S
Dy311 O323 2.669 . S
Dy311 O325 2.322 1_545 S
O312 Dy308 2.398 . S
O312 C310 1.185 . S
O313 Dy308 2.491 . S
O313 C310 1.355 . S
O314 Dy308 2.403 1_565 S
O314 C316 1.254 . S
O315 Dy308 2.664 1_565 S
O315 Dy311 2.303 1_564 S
O315 C316 1.268 . S
C316 O314 1.254 . S
C316 O315 1.268 . S
C317 O322 1.254 . S
C317 O323 1.268 . S
O318 Dy311 2.357 1_554 S
O318 C326 1.249 . S
O319 Dy308 2.326 . S
O319 C326 1.267 . S
O320 C309 1.185 . S
O320 Dy311 2.397 1_565 S
O321 C309 1.355 . S
O321 Dy311 2.482 1_565 S
O322 Dy311 2.411 . S
O322 C317 1.254 . S
O323 Dy308 2.310 1_556 S
O323 Dy311 2.669 . S
O323 C317 1.268 . S
O324 Dy308 2.351 1_566 S
O324 C327 1.249 . S
O325 Dy311 2.322 1_565 S
O325 C327 1.267 . S
C326 O318 1.249 . S
C326 O319 1.267 . S
C327 O324 1.249 . S
C327 O325 1.267 . S
Dy328 O332 2.398 . S
Dy328 O333 2.491 . S
Dy328 O334 2.403 . S
Dy328 O335 2.664 . S
Dy328 O339 2.326 . S
Dy328 O343 2.310 . S
Dy328 O344 2.351 . S
C329 O340 1.185 . S
C329 O341 1.355 . S
C330 O332 1.185 . S
C330 O333 1.355 . S
Dy331 O335 2.310 . S
Dy331 O338 2.351 . S
Dy331 O340 2.398 . S
Dy331 O341 2.491 . S
Dy331 O342 2.403 . S
Dy331 O343 2.664 . S
Dy331 O345 2.326 . S
O332 Dy328 2.398 . S
O332 C330 1.185 . S
O333 Dy328 2.491 . S
O333 C330 1.355 . S
O334 Dy328 2.403 . S
O334 C336 1.254 . S
O335 Dy328 2.664 . S
O335 Dy331 2.310 . S
O335 C336 1.268 . S
C336 O334 1.254 . S
C336 O335 1.268 . S
C337 O342 1.254 . S
C337 O343 1.268 . S
O338 Dy331 2.351 . S
O338 C346 1.249 . S
O339 Dy328 2.326 . S
O339 C346 1.267 . S
O340 C329 1.185 . S
O340 Dy331 2.398 . S
O341 C329 1.355 . S
O341 Dy331 2.491 . S
O342 Dy331 2.403 . S
O342 C337 1.254 . S
O343 Dy328 2.310 . S
O343 Dy331 2.664 . S
O343 C337 1.268 . S
O344 Dy328 2.351 . S
O344 C347 1.249 . S
O345 Dy331 2.326 . S
O345 C347 1.267 . S
C346 O338 1.249 . S
C346 O339 1.267 . S
C347 O344 1.249 . S
C347 O345 1.267 . S
Dy348 O352 2.398 . S
Dy348 O353 2.491 . S
Dy348 O354 2.403 1_455 S
Dy348 O355 2.664 1_455 S
Dy348 O359 2.326 . S
Dy348 O363 2.310 1_554 S
Dy348 O364 2.351 1_454 S
C349 O360 1.185 . S
C349 O361 1.355 . S
C350 O352 1.185 . S
C350 O353 1.355 . S
Dy351 O355 2.310 1_556 S
Dy351 O358 2.351 1_656 S
Dy351 O360 2.398 . S
Dy351 O361 2.491 . S
Dy351 O362 2.403 1_655 S
Dy351 O363 2.664 1_655 S
Dy351 O365 2.326 . S
O352 Dy348 2.398 . S
O352 C350 1.185 . S
O353 Dy348 2.491 . S
O353 C350 1.355 . S
O354 Dy348 2.403 1_655 S
O354 C356 1.254 . S
O355 Dy348 2.664 1_655 S
O355 Dy351 2.310 1_554 S
O355 C356 1.268 . S
C356 O354 1.254 . S
C356 O355 1.268 . S
C357 O362 1.254 . S
C357 O363 1.268 . S
O358 Dy351 2.351 1_454 S
O358 C366 1.249 . S
O359 Dy348 2.326 . S
O359 C366 1.267 . S
O360 C349 1.185 . S
O360 Dy351 2.398 . S
O361 C349 1.355 . S
O361 Dy351 2.491 . S
O362 Dy351 2.403 1_455 S
O362 C357 1.254 . S
O363 Dy348 2.310 1_556 S
O363 Dy351 2.664 1_455 S
O363 C357 1.268 . S
O364 Dy348 2.351 1_656 S
O364 C367 1.249 . S
O365 Dy351 2.326 . S
O365 C367 1.267 . S
C366 O358 1.249 . S
C366 O359 1.267 . S
C367 O364 1.249 . S
C367 O365 1.267 . S
H368 C380 0.930 . S
H369 C382 0.930 . S
H370 C383 0.930 . S
H371 C387 0.959 . S
H372 C387 0.959 . S
H373 C387 0.961 . S
H374 C388 0.960 . S
H375 C388 0.961 . S
H376 C388 0.959 . S
H377 C391 0.929 . S
H378 C392 0.931 . S
H379 C394 0.930 . S
C380 H368 0.930 . S
C380 C381 1.399 . S
C380 C385 1.399 . S
C381 C380 1.399 . S
C381 C382 1.376 . S
C382 H369 0.930 . S
C382 C381 1.376 . S
C382 C383 1.388 . S
C383 H370 0.930 . S
C383 C382 1.388 . S
C383 C384 1.390 . S
C384 C383 1.390 . S
C384 C385 1.394 . S
C384 C390 1.465 . S
C385 C380 1.399 . S
C385 C384 1.394 . S
C385 C386 1.516 . S
C386 C385 1.516 . S
C386 C387 1.502 . S
C386 C388 1.561 . S
C386 C389 1.526 . S
C387 H371 0.959 . S
C387 H372 0.959 . S
C387 H373 0.961 . S
C387 C386 1.502 . S
C388 H374 0.960 . S
C388 H375 0.961 . S
C388 H376 0.959 . S
C388 C386 1.561 . S
C389 C386 1.526 . S
C389 C390 1.396 . S
C389 C394 1.390 . S
C390 C384 1.465 . S
C390 C389 1.396 . S
C390 C391 1.399 . S
C391 H377 0.929 . S
C391 C390 1.399 . S
C391 C392 1.385 . S
C392 H378 0.931 . S
C392 C391 1.385 . S
C392 C393 1.389 . S
C393 C392 1.389 . S
C393 C394 1.387 . S
C394 H379 0.930 . S
C394 C389 1.390 . S
C394 C393 1.387 . S
H395 C407 0.930 . S
H396 C409 0.930 . S
H397 C410 0.930 . S
H398 C414 0.959 . S
H399 C414 0.959 . S
H400 C414 0.961 . S
H401 C415 0.960 . S
H402 C415 0.961 . S
H403 C415 0.959 . S
H404 C418 0.929 . S
H405 C419 0.931 . S
H406 C421 0.930 . S
C407 H395 0.930 . S
C407 C408 1.399 . S
C407 C412 1.399 . S
C408 C407 1.399 . S
C408 C409 1.376 . S
C409 H396 0.930 . S
C409 C408 1.376 . S
C409 C410 1.388 . S
C410 H397 0.930 . S
C410 C409 1.388 . S
C410 C411 1.390 . S
C411 C410 1.390 . S
C411 C412 1.394 . S
C411 C417 1.465 . S
C412 C407 1.399 . S
C412 C411 1.394 . S
C412 C413 1.516 . S
C413 C412 1.516 . S
C413 C414 1.502 . S
C413 C415 1.561 . S
C413 C416 1.526 . S
C414 H398 0.959 . S
C414 H399 0.959 . S
C414 H400 0.961 . S
C414 C413 1.502 . S
C415 H401 0.960 . S
C415 H402 0.961 . S
C415 H403 0.959 . S
C415 C413 1.561 . S
C416 C413 1.526 . S
C416 C417 1.396 . S
C416 C421 1.390 . S
C417 C411 1.465 . S
C417 C416 1.396 . S
C417 C418 1.399 . S
C418 H404 0.929 . S
C418 C417 1.399 . S
C418 C419 1.385 . S
C419 H405 0.931 . S
C419 C418 1.385 . S
C419 C420 1.389 . S
C420 C419 1.389 . S
C420 C421 1.387 . S
C421 H406 0.930 . S
C421 C416 1.390 . S
C421 C420 1.387 . S
H422 C434 0.930 . S
H423 C436 0.930 . S
H424 C437 0.930 . S
H425 C441 0.959 . S
H426 C441 0.959 . S
H427 C441 0.961 . S
H428 C442 0.960 . S
H429 C442 0.961 . S
H430 C442 0.959 . S
H431 C445 0.929 . S
H432 C446 0.931 . S
H433 C448 0.930 . S
C434 H422 0.930 . S
C434 C435 1.399 . S
C434 C439 1.399 . S
C435 C434 1.399 . S
C435 C436 1.376 . S
C436 H423 0.930 . S
C436 C435 1.376 . S
C436 C437 1.388 . S
C437 H424 0.930 . S
C437 C436 1.388 . S
C437 C438 1.390 . S
C438 C437 1.390 . S
C438 C439 1.394 . S
C438 C444 1.465 . S
C439 C434 1.399 . S
C439 C438 1.394 . S
C439 C440 1.516 . S
C440 C439 1.516 . S
C440 C441 1.502 . S
C440 C442 1.561 . S
C440 C443 1.526 . S
C441 H425 0.959 . S
C441 H426 0.959 . S
C441 H427 0.961 . S
C441 C440 1.502 . S
C442 H428 0.960 . S
C442 H429 0.961 . S
C442 H430 0.959 . S
C442 C440 1.561 . S
C443 C440 1.526 . S
C443 C444 1.396 . S
C443 C448 1.390 . S
C444 C438 1.465 . S
C444 C443 1.396 . S
C444 C445 1.399 . S
C445 H431 0.929 . S
C445 C444 1.399 . S
C445 C446 1.385 . S
C446 H432 0.931 . S
C446 C445 1.385 . S
C446 C447 1.389 . S
C447 C446 1.389 . S
C447 C448 1.387 . S
C448 H433 0.930 . S
C448 C443 1.390 . S
C448 C447 1.387 . S
H449 C461 0.930 . S
H450 C463 0.930 . S
H451 C464 0.930 . S
H452 C468 0.959 . S
H453 C468 0.959 . S
H454 C468 0.961 . S
H455 C469 0.960 . S
H456 C469 0.961 . S
H457 C469 0.959 . S
H458 C472 0.929 . S
H459 C473 0.931 1_455 S
H460 C475 0.930 . S
C461 H449 0.930 . S
C461 C462 1.399 . S
C461 C466 1.399 . S
C462 C461 1.399 . S
C462 C463 1.376 . S
C463 H450 0.930 . S
C463 C462 1.376 . S
C463 C464 1.388 . S
C464 H451 0.930 . S
C464 C463 1.388 . S
C464 C465 1.390 . S
C465 C464 1.390 . S
C465 C466 1.394 . S
C465 C471 1.465 . S
C466 C461 1.399 . S
C466 C465 1.394 . S
C466 C467 1.516 . S
C467 C466 1.516 . S
C467 C468 1.502 . S
C467 C469 1.561 . S
C467 C470 1.526 . S
C468 H452 0.959 . S
C468 H453 0.959 . S
C468 H454 0.961 . S
C468 C467 1.502 . S
C469 H455 0.960 . S
C469 H456 0.961 . S
C469 H457 0.959 . S
C469 C467 1.561 . S
C470 C467 1.526 . S
C470 C471 1.396 . S
C470 C475 1.390 . S
C471 C465 1.465 . S
C471 C470 1.396 . S
C471 C472 1.399 . S
C472 H458 0.929 . S
C472 C471 1.399 . S
C472 C473 1.385 . S
C473 H459 0.931 1_655 S
C473 C472 1.385 . S
C473 C474 1.389 . S
C474 C473 1.389 . S
C474 C475 1.387 . S
C475 H460 0.930 . S
C475 C470 1.390 . S
C475 C474 1.387 . S
H476 C488 0.930 . S
H477 C490 0.930 . S
H478 C491 0.930 . S
H479 C495 0.959 . S
H480 C495 0.959 . S
H481 C495 0.961 . S
H482 C496 0.960 . S
H483 C496 0.961 . S
H484 C496 0.959 . S
H485 C499 0.929 . S
H486 C500 0.931 . S
H487 C502 0.930 . S
C488 H476 0.930 . S
C488 C489 1.399 . S
C488 C493 1.399 . S
C489 C488 1.399 . S
C489 C490 1.376 . S
C490 H477 0.930 . S
C490 C489 1.376 . S
C490 C491 1.388 . S
C491 H478 0.930 . S
C491 C490 1.388 . S
C491 C492 1.390 . S
C492 C491 1.390 . S
C492 C493 1.394 . S
C492 C498 1.465 . S
C493 C488 1.399 . S
C493 C492 1.394 . S
C493 C494 1.516 . S
C494 C493 1.516 . S
C494 C495 1.502 . S
C494 C496 1.561 . S
C494 C497 1.526 . S
C495 H479 0.959 . S
C495 H480 0.959 . S
C495 H481 0.961 . S
C495 C494 1.502 . S
C496 H482 0.960 . S
C496 H483 0.961 . S
C496 H484 0.959 . S
C496 C494 1.561 . S
C497 C494 1.526 . S
C497 C498 1.396 . S
C497 C502 1.390 . S
C498 C492 1.465 . S
C498 C497 1.396 . S
C498 C499 1.399 . S
C499 H485 0.929 . S
C499 C498 1.399 . S
C499 C500 1.385 . S
C500 H486 0.931 . S
C500 C499 1.385 . S
C500 C501 1.389 . S
C501 C500 1.389 . S
C501 C502 1.387 . S
C502 H487 0.930 . S
C502 C497 1.390 . S
C502 C501 1.387 . S
H503 C515 0.930 . S
H504 C517 0.930 . S
H505 C518 0.930 . S
H506 C522 0.959 . S
H507 C522 0.959 1_545 S
H508 C522 0.961 . S
H509 C523 0.960 . S
H510 C523 0.961 1_545 S
H511 C523 0.959 . S
H512 C526 0.929 . S
H513 C527 0.931 . S
H514 C529 0.930 . S
C515 H503 0.930 . S
C515 C516 1.399 . S
C515 C520 1.399 . S
C516 C515 1.399 . S
C516 C517 1.376 . S
C517 H504 0.930 . S
C517 C516 1.376 . S
C517 C518 1.388 . S
C518 H505 0.930 . S
C518 C517 1.388 . S
C518 C519 1.390 . S
C519 C518 1.390 . S
C519 C520 1.394 . S
C519 C525 1.465 . S
C520 C515 1.399 . S
C520 C519 1.394 . S
C520 C521 1.516 . S
C521 C520 1.516 . S
C521 C522 1.502 . S
C521 C523 1.561 . S
C521 C524 1.526 . S
C522 H506 0.959 . S
C522 H507 0.959 1_565 S
C522 H508 0.961 . S
C522 C521 1.502 . S
C523 H509 0.960 . S
C523 H510 0.961 1_565 S
C523 H511 0.959 . S
C523 C521 1.561 . S
C524 C521 1.526 . S
C524 C525 1.396 . S
C524 C529 1.390 . S
C525 C519 1.465 . S
C525 C524 1.396 . S
C525 C526 1.399 . S
C526 H512 0.929 . S
C526 C525 1.399 . S
C526 C527 1.385 . S
C527 H513 0.931 . S
C527 C526 1.385 . S
C527 C528 1.389 . S
C528 C527 1.389 . S
C528 C529 1.387 . S
C529 H514 0.930 . S
C529 C524 1.390 . S
C529 C528 1.387 . S
H530 C542 0.930 . S
H531 C544 0.930 . S
H532 C545 0.930 . S
H533 C549 0.959 . S
H534 C549 0.959 1_554 S
H535 C549 0.961 . S
H536 C550 0.960 . S
H537 C550 0.961 . S
H538 C550 0.959 . S
H539 C553 0.929 . S
H540 C554 0.931 . S
H541 C556 0.930 . S
C542 H530 0.930 . S
C542 C543 1.399 . S
C542 C547 1.399 . S
C543 C542 1.399 . S
C543 C544 1.376 . S
C544 H531 0.930 . S
C544 C543 1.376 . S
C544 C545 1.388 . S
C545 H532 0.930 . S
C545 C544 1.388 . S
C545 C546 1.390 . S
C546 C545 1.390 . S
C546 C547 1.394 . S
C546 C552 1.465 . S
C547 C542 1.399 . S
C547 C546 1.394 . S
C547 C548 1.516 . S
C548 C547 1.516 . S
C548 C549 1.502 . S
C548 C550 1.561 . S
C548 C551 1.526 . S
C549 H533 0.959 . S
C549 H534 0.959 1_556 S
C549 H535 0.961 . S
C549 C548 1.502 . S
C550 H536 0.960 . S
C550 H537 0.961 . S
C550 H538 0.959 . S
C550 C548 1.561 . S
C551 C548 1.526 . S
C551 C552 1.396 . S
C551 C556 1.390 . S
C552 C546 1.465 . S
C552 C551 1.396 . S
C552 C553 1.399 . S
C553 H539 0.929 . S
C553 C552 1.399 . S
C553 C554 1.385 . S
C554 H540 0.931 . S
C554 C553 1.385 . S
C554 C555 1.389 . S
C555 C554 1.389 . S
C555 C556 1.387 . S
C556 H541 0.930 . S
C556 C551 1.390 . S
C556 C555 1.387 . S
H557 C569 0.930 . S
H558 C571 0.930 . S
H559 C572 0.930 . S
H560 C576 0.959 . S
H561 C576 0.959 . S
H562 C576 0.961 . S
H563 C577 0.960 . S
H564 C577 0.961 . S
H565 C577 0.959 . S
H566 C580 0.929 . S
H567 C581 0.931 . S
H568 C583 0.930 . S
C569 H557 0.930 . S
C569 C570 1.399 . S
C569 C574 1.399 . S
C570 C569 1.399 . S
C570 C571 1.376 . S
C571 H558 0.930 . S
C571 C570 1.376 . S
C571 C572 1.388 . S
C572 H559 0.930 . S
C572 C571 1.388 . S
C572 C573 1.390 . S
C573 C572 1.390 . S
C573 C574 1.394 . S
C573 C579 1.465 . S
C574 C569 1.399 . S
C574 C573 1.394 . S
C574 C575 1.516 . S
C575 C574 1.516 . S
C575 C576 1.502 . S
C575 C577 1.561 . S
C575 C578 1.526 . S
C576 H560 0.959 . S
C576 H561 0.959 . S
C576 H562 0.961 . S
C576 C575 1.502 . S
C577 H563 0.960 . S
C577 H564 0.961 . S
C577 H565 0.959 . S
C577 C575 1.561 . S
C578 C575 1.526 . S
C578 C579 1.396 . S
C578 C583 1.390 . S
C579 C573 1.465 . S
C579 C578 1.396 . S
C579 C580 1.399 . S
C580 H566 0.929 . S
C580 C579 1.399 . S
C580 C581 1.385 . S
C581 H567 0.931 . S
C581 C580 1.385 . S
C581 C582 1.389 . S
C582 C581 1.389 . S
C582 C583 1.387 . S
C583 H568 0.930 . S
C583 C578 1.390 . S
C583 C582 1.387 . S
H584 C596 0.930 . S
H585 C598 0.930 . S
H586 C599 0.930 . S
H587 C603 0.959 . S
H588 C603 0.959 . S
H589 C603 0.961 . S
H590 C604 0.960 . S
H591 C604 0.961 . S
H592 C604 0.959 . S
H593 C607 0.929 . S
H594 C608 0.931 . S
H595 C610 0.930 . S
C596 H584 0.930 . S
C596 C597 1.399 . S
C596 C601 1.399 . S
C597 C596 1.399 . S
C597 C598 1.376 . S
C598 H585 0.930 . S
C598 C597 1.376 . S
C598 C599 1.388 . S
C599 H586 0.930 . S
C599 C598 1.388 . S
C599 C600 1.390 . S
C600 C599 1.390 . S
C600 C601 1.394 . S
C600 C606 1.465 . S
C601 C596 1.399 . S
C601 C600 1.394 . S
C601 C602 1.516 . S
C602 C601 1.516 . S
C602 C603 1.502 . S
C602 C604 1.561 . S
C602 C605 1.526 . S
C603 H587 0.959 . S
C603 H588 0.959 . S
C603 H589 0.961 . S
C603 C602 1.502 . S
C604 H590 0.960 . S
C604 H591 0.961 . S
C604 H592 0.959 . S
C604 C602 1.561 . S
C605 C602 1.526 . S
C605 C606 1.396 . S
C605 C610 1.390 . S
C606 C600 1.465 . S
C606 C605 1.396 . S
C606 C607 1.399 . S
C607 H593 0.929 . S
C607 C606 1.399 . S
C607 C608 1.385 . S
C608 H594 0.931 . S
C608 C607 1.385 . S
C608 C609 1.389 . S
C609 C608 1.389 . S
C609 C610 1.387 . S
C610 H595 0.930 . S
C610 C605 1.390 . S
C610 C609 1.387 . S
H611 C623 0.930 . S
H612 C625 0.930 . S
H613 C626 0.930 . S
H614 C630 0.959 . S
H615 C630 0.959 . S
H616 C630 0.961 . S
H617 C631 0.960 . S
H618 C631 0.961 . S
H619 C631 0.959 . S
H620 C634 0.913 1_554 S
H621 C635 0.931 1_554 S
H622 C637 0.930 . S
C623 H611 0.930 . S
C623 C624 1.399 . S
C623 C628 1.399 . S
C624 C623 1.399 . S
C624 C625 1.376 . S
C625 H612 0.930 . S
C625 C624 1.376 . S
C625 C626 1.388 . S
C626 H613 0.930 . S
C626 C625 1.388 . S
C626 C627 1.390 . S
C627 C626 1.390 . S
C627 C628 1.394 . S
C627 C633 1.465 . S
C628 C623 1.399 . S
C628 C627 1.394 . S
C628 C629 1.516 . S
C629 C628 1.516 . S
C629 C630 1.502 . S
C629 C631 1.561 . S
C629 C632 1.526 . S
C630 H614 0.959 . S
C630 H615 0.959 . S
C630 H616 0.961 . S
C630 C629 1.502 . S
C631 H617 0.960 . S
C631 H618 0.961 . S
C631 H619 0.959 . S
C631 C629 1.561 . S
C632 C629 1.526 . S
C632 C633 1.396 . S
C632 C637 1.390 . S
C633 C627 1.465 . S
C633 C632 1.396 . S
C633 C634 1.399 . S
C634 H620 0.913 1_556 S
C634 C633 1.399 . S
C634 C635 1.385 . S
C635 H621 0.931 1_556 S
C635 C634 1.385 . S
C635 C636 1.389 . S
C636 C635 1.389 . S
C636 C637 1.387 . S
C637 H622 0.930 . S
C637 C632 1.390 . S
C637 C636 1.387 . S
H638 C650 0.930 . S
H639 C652 0.930 . S
H640 C653 0.930 . S
H641 C657 0.959 . S
H642 C657 0.959 . S
H643 C657 0.961 . S
H644 C658 0.960 . S
H645 C658 0.961 . S
H646 C658 0.959 . S
H647 C661 0.929 . S
H648 C662 0.931 . S
H649 C664 0.930 . S
C650 H638 0.930 . S
C650 C651 1.399 . S
C650 C655 1.399 . S
C651 C650 1.399 . S
C651 C652 1.376 . S
C652 H639 0.930 . S
C652 C651 1.376 . S
C652 C653 1.388 . S
C653 H640 0.930 . S
C653 C652 1.388 . S
C653 C654 1.390 . S
C654 C653 1.390 . S
C654 C655 1.394 . S
C654 C660 1.465 . S
C655 C650 1.399 . S
C655 C654 1.394 . S
C655 C656 1.516 . S
C656 C655 1.516 . S
C656 C657 1.502 . S
C656 C658 1.561 . S
C656 C659 1.526 . S
C657 H641 0.959 . S
C657 H642 0.959 . S
C657 H643 0.961 . S
C657 C656 1.502 . S
C658 H644 0.960 . S
C658 H645 0.961 . S
C658 H646 0.959 . S
C658 C656 1.561 . S
C659 C656 1.526 . S
C659 C660 1.396 . S
C659 C664 1.390 . S
C660 C654 1.465 . S
C660 C659 1.396 . S
C660 C661 1.399 . S
C661 H647 0.929 . S
C661 C660 1.399 . S
C661 C662 1.385 . S
C662 H648 0.931 . S
C662 C661 1.385 . S
C662 C663 1.389 . S
C663 C662 1.389 . S
C663 C664 1.387 . S
C664 H649 0.930 . S
C664 C659 1.390 . S
C664 C663 1.387 . S
H665 C677 0.930 . S
H666 C679 0.930 . S
H667 C680 0.930 . S
H668 C684 0.959 . S
H669 C684 0.959 . S
H670 C684 0.961 . S
H671 C685 0.960 . S
H672 C685 0.961 . S
H673 C685 0.959 . S
H674 C688 0.929 . S
H675 C689 0.931 . S
H676 C691 0.930 . S
C677 H665 0.930 . S
C677 C678 1.399 . S
C677 C682 1.399 . S
C678 C677 1.399 . S
C678 C679 1.376 . S
C679 H666 0.930 . S
C679 C678 1.376 . S
C679 C680 1.388 . S
C680 H667 0.930 . S
C680 C679 1.388 . S
C680 C681 1.390 . S
C681 C680 1.390 . S
C681 C682 1.394 . S
C681 C687 1.465 . S
C682 C677 1.399 . S
C682 C681 1.394 . S
C682 C683 1.516 . S
C683 C682 1.516 . S
C683 C684 1.502 . S
C683 C685 1.561 . S
C683 C686 1.526 . S
C684 H668 0.959 . S
C684 H669 0.959 . S
C684 H670 0.961 . S
C684 C683 1.502 . S
C685 H671 0.960 . S
C685 H672 0.961 . S
C685 H673 0.959 . S
C685 C683 1.561 . S
C686 C683 1.526 . S
C686 C687 1.396 . S
C686 C691 1.390 . S
C687 C681 1.465 . S
C687 C686 1.396 . S
C687 C688 1.399 . S
C688 H674 0.929 . S
C688 C687 1.399 . S
C688 C689 1.385 . S
C689 H675 0.931 . S
C689 C688 1.385 . S
C689 C690 1.389 . S
C690 C689 1.389 . S
C690 C691 1.387 . S
C691 H676 0.930 . S
C691 C686 1.390 . S
C691 C690 1.387 . S
H692 C704 0.930 . S
H693 C706 0.930 . S
H694 C707 0.930 . S
H695 C711 0.959 . S
H696 C711 0.959 . S
H697 C711 0.961 . S
H698 C712 0.960 . S
H699 C712 0.961 . S
H700 C712 0.959 . S
H701 C715 0.929 . S
H702 C716 0.931 . S
H703 C718 0.930 . S
C704 H692 0.930 . S
C704 C705 1.399 . S
C704 C709 1.399 . S
C705 C704 1.399 . S
C705 C706 1.376 . S
C706 H693 0.930 . S
C706 C705 1.376 . S
C706 C707 1.388 . S
C707 H694 0.930 . S
C707 C706 1.388 . S
C707 C708 1.390 . S
C708 C707 1.390 . S
C708 C709 1.394 . S
C708 C714 1.465 . S
C709 C704 1.399 . S
C709 C708 1.394 . S
C709 C710 1.516 . S
C710 C709 1.516 . S
C710 C711 1.502 . S
C710 C712 1.561 . S
C710 C713 1.526 . S
C711 H695 0.959 . S
C711 H696 0.959 . S
C711 H697 0.961 . S
C711 C710 1.502 . S
C712 H698 0.960 . S
C712 H699 0.961 . S
C712 H700 0.959 . S
C712 C710 1.561 . S
C713 C710 1.526 . S
C713 C714 1.396 . S
C713 C718 1.390 . S
C714 C708 1.465 . S
C714 C713 1.396 . S
C714 C715 1.399 . S
C715 H701 0.929 . S
C715 C714 1.399 . S
C715 C716 1.385 . S
C716 H702 0.931 . S
C716 C715 1.385 . S
C716 C717 1.389 . S
C717 C716 1.389 . S
C717 C718 1.387 . S
C718 H703 0.930 . S
C718 C713 1.390 . S
C718 C717 1.387 . S
H719 C731 0.930 . S
H720 C733 0.930 . S
H721 C734 0.930 . S
H722 C738 0.959 . S
H723 C738 0.959 . S
H724 C738 0.961 . S
H725 C739 0.960 . S
H726 C739 0.961 . S
H727 C739 0.959 . S
H728 C742 0.929 . S
H729 C743 0.931 . S
H730 C745 0.930 . S
C731 H719 0.930 . S
C731 C732 1.399 . S
C731 C736 1.399 . S
C732 C731 1.399 . S
C732 C733 1.376 . S
C733 H720 0.930 . S
C733 C732 1.376 . S
C733 C734 1.388 . S
C734 H721 0.930 . S
C734 C733 1.388 . S
C734 C735 1.390 . S
C735 C734 1.390 . S
C735 C736 1.394 . S
C735 C741 1.465 . S
C736 C731 1.399 . S
C736 C735 1.394 . S
C736 C737 1.516 . S
C737 C736 1.516 . S
C737 C738 1.502 . S
C737 C739 1.561 . S
C737 C740 1.526 . S
C738 H722 0.959 . S
C738 H723 0.959 . S
C738 H724 0.961 . S
C738 C737 1.502 . S
C739 H725 0.960 . S
C739 H726 0.961 . S
C739 H727 0.959 . S
C739 C737 1.561 . S
C740 C737 1.526 . S
C740 C741 1.396 . S
C740 C745 1.390 . S
C741 C735 1.465 . S
C741 C740 1.396 . S
C741 C742 1.399 . S
C742 H728 0.929 . S
C742 C741 1.399 . S
C742 C743 1.385 . S
C743 H729 0.931 . S
C743 C742 1.385 . S
C743 C744 1.389 . S
C744 C743 1.389 . S
C744 C745 1.387 . S
C745 H730 0.930 . S
C745 C740 1.390 . S
C745 C744 1.387 . S
H746 C758 0.930 . S
H747 C760 0.930 . S
H748 C761 0.930 . S
H749 C765 0.959 . S
H750 C765 0.959 . S
H751 C765 0.961 . S
H752 C766 0.960 . S
H753 C766 0.961 . S
H754 C766 0.959 . S
H755 C769 0.929 . S
H756 C770 0.931 . S
H757 C772 0.930 . S
C758 H746 0.930 . S
C758 C759 1.399 . S
C758 C763 1.399 . S
C759 C758 1.399 . S
C759 C760 1.376 . S
C760 H747 0.930 . S
C760 C759 1.376 . S
C760 C761 1.388 . S
C761 H748 0.930 . S
C761 C760 1.388 . S
C761 C762 1.390 . S
C762 C761 1.390 . S
C762 C763 1.394 . S
C762 C768 1.465 . S
C763 C758 1.399 . S
C763 C762 1.394 . S
C763 C764 1.516 . S
C764 C763 1.516 . S
C764 C765 1.502 . S
C764 C766 1.561 . S
C764 C767 1.526 . S
C765 H749 0.959 . S
C765 H750 0.959 . S
C765 H751 0.961 . S
C765 C764 1.502 . S
C766 H752 0.960 . S
C766 H753 0.961 . S
C766 H754 0.959 . S
C766 C764 1.561 . S
C767 C764 1.526 . S
C767 C768 1.396 . S
C767 C772 1.390 . S
C768 C762 1.465 . S
C768 C767 1.396 . S
C768 C769 1.399 . S
C769 H755 0.929 . S
C769 C768 1.399 . S
C769 C770 1.385 . S
C770 H756 0.931 . S
C770 C769 1.385 . S
C770 C771 1.389 . S
C771 C770 1.389 . S
C771 C772 1.387 . S
C772 H757 0.930 . S
C772 C767 1.390 . S
C772 C771 1.387 . S
H773 C785 0.930 . S
H774 C787 0.930 . S
H775 C788 0.930 . S
H776 C792 0.959 . S
H777 C792 0.959 . S
H778 C792 0.961 . S
H779 C793 0.960 . S
H780 C793 0.961 . S
H781 C793 0.959 . S
H782 C796 0.929 . S
H783 C797 0.931 . S
H784 C799 0.930 . S
C785 H773 0.930 . S
C785 C786 1.399 . S
C785 C790 1.399 . S
C786 C785 1.399 . S
C786 C787 1.376 . S
C787 H774 0.930 . S
C787 C786 1.376 . S
C787 C788 1.388 . S
C788 H775 0.930 . S
C788 C787 1.388 . S
C788 C789 1.390 . S
C789 C788 1.390 . S
C789 C790 1.394 . S
C789 C795 1.465 . S
C790 C785 1.399 . S
C790 C789 1.394 . S
C790 C791 1.516 . S
C791 C790 1.516 . S
C791 C792 1.502 . S
C791 C793 1.561 . S
C791 C794 1.526 . S
C792 H776 0.959 . S
C792 H777 0.959 . S
C792 H778 0.961 . S
C792 C791 1.502 . S
C793 H779 0.960 . S
C793 H780 0.961 . S
C793 H781 0.959 . S
C793 C791 1.561 . S
C794 C791 1.526 . S
C794 C795 1.396 . S
C794 C799 1.390 . S
C795 C789 1.465 . S
C795 C794 1.396 . S
C795 C796 1.399 . S
C796 H782 0.929 . S
C796 C795 1.399 . S
C796 C797 1.385 . S
C797 H783 0.931 . S
C797 C796 1.385 . S
C797 C798 1.389 . S
C798 C797 1.389 . S
C798 C799 1.387 . S
C799 H784 0.930 . S
C799 C794 1.390 . S
C799 C798 1.387 . S
H800 C812 0.930 . S
H801 C814 0.930 . S
H802 C815 0.930 . S
H803 C819 0.959 . S
H804 C819 0.959 . S
H805 C819 0.961 . S
H806 C820 0.960 . S
H807 C820 0.961 . S
H808 C820 0.959 . S
H809 C823 0.929 . S
H810 C824 0.931 . S
H811 C826 0.930 . S
C812 H800 0.930 . S
C812 C813 1.399 . S
C812 C817 1.399 . S
C813 C812 1.399 . S
C813 C814 1.376 . S
C814 H801 0.930 . S
C814 C813 1.376 . S
C814 C815 1.388 . S
C815 H802 0.930 . S
C815 C814 1.388 . S
C815 C816 1.390 . S
C816 C815 1.390 . S
C816 C817 1.394 . S
C816 C822 1.465 . S
C817 C812 1.399 . S
C817 C816 1.394 . S
C817 C818 1.516 . S
C818 C817 1.516 . S
C818 C819 1.502 . S
C818 C820 1.561 . S
C818 C821 1.526 . S
C819 H803 0.959 . S
C819 H804 0.959 . S
C819 H805 0.961 . S
C819 C818 1.502 . S
C820 H806 0.960 . S
C820 H807 0.961 . S
C820 H808 0.959 . S
C820 C818 1.561 . S
C821 C818 1.526 . S
C821 C822 1.396 . S
C821 C826 1.390 . S
C822 C816 1.465 . S
C822 C821 1.396 . S
C822 C823 1.399 . S
C823 H809 0.929 . S
C823 C822 1.399 . S
C823 C824 1.385 . S
C824 H810 0.931 . S
C824 C823 1.385 . S
C824 C825 1.389 . S
C825 C824 1.389 . S
C825 C826 1.387 . S
C826 H811 0.930 . S
C826 C821 1.390 . S
C826 C825 1.387 . S
H827 C839 0.930 . S
H828 C841 0.930 . S
H829 C842 0.930 . S
H830 C846 0.959 . S
H831 C846 0.959 . S
H832 C846 0.961 . S
H833 C847 0.960 . S
H834 C847 0.961 . S
H835 C847 0.959 . S
H836 C850 0.929 . S
H837 C851 0.931 . S
H838 C853 0.930 . S
C839 H827 0.930 . S
C839 C840 1.399 . S
C839 C844 1.399 . S
C840 C839 1.399 . S
C840 C841 1.376 . S
C841 H828 0.930 . S
C841 C840 1.376 . S
C841 C842 1.388 . S
C842 H829 0.930 . S
C842 C841 1.388 . S
C842 C843 1.390 . S
C843 C842 1.390 . S
C843 C844 1.394 . S
C843 C849 1.465 . S
C844 C839 1.399 . S
C844 C843 1.394 . S
C844 C845 1.516 . S
C845 C844 1.516 . S
C845 C846 1.502 . S
C845 C847 1.561 . S
C845 C848 1.526 . S
C846 H830 0.959 . S
C846 H831 0.959 . S
C846 H832 0.961 . S
C846 C845 1.502 . S
C847 H833 0.960 . S
C847 H834 0.961 . S
C847 H835 0.959 . S
C847 C845 1.561 . S
C848 C845 1.526 . S
C848 C849 1.396 . S
C848 C853 1.390 . S
C849 C843 1.465 . S
C849 C848 1.396 . S
C849 C850 1.399 . S
C850 H836 0.929 . S
C850 C849 1.399 . S
C850 C851 1.385 . S
C851 H837 0.931 . S
C851 C850 1.385 . S
C851 C852 1.389 . S
C852 C851 1.389 . S
C852 C853 1.387 . S
C853 H838 0.930 . S
C853 C848 1.390 . S
C853 C852 1.387 . S
H854 C866 0.930 . S
H855 C868 0.930 . S
H856 C869 0.930 . S
H857 C873 0.959 . S
H858 C873 0.959 . S
H859 C873 0.961 . S
H860 C874 0.960 . S
H861 C874 0.961 . S
H862 C874 0.959 . S
H863 C877 0.929 . S
H864 C878 0.931 . S
H865 C880 0.930 . S
C866 H854 0.930 . S
C866 C867 1.399 . S
C866 C871 1.399 . S
C867 C866 1.399 . S
C867 C868 1.376 . S
C868 H855 0.930 . S
C868 C867 1.376 . S
C868 C869 1.388 . S
C869 H856 0.930 . S
C869 C868 1.388 . S
C869 C870 1.390 . S
C870 C869 1.390 . S
C870 C871 1.394 . S
C870 C876 1.465 . S
C871 C866 1.399 . S
C871 C870 1.394 . S
C871 C872 1.516 . S
C872 C871 1.516 . S
C872 C873 1.502 . S
C872 C874 1.561 . S
C872 C875 1.526 . S
C873 H857 0.959 . S
C873 H858 0.959 . S
C873 H859 0.961 . S
C873 C872 1.502 . S
C874 H860 0.960 . S
C874 H861 0.961 . S
C874 H862 0.959 . S
C874 C872 1.561 . S
C875 C872 1.526 . S
C875 C876 1.396 . S
C875 C880 1.390 . S
C876 C870 1.465 . S
C876 C875 1.396 . S
C876 C877 1.399 . S
C877 H863 0.929 . S
C877 C876 1.399 . S
C877 C878 1.385 . S
C878 H864 0.931 . S
C878 C877 1.385 . S
C878 C879 1.389 . S
C879 C878 1.389 . S
C879 C880 1.387 . S
C880 H865 0.930 . S
C880 C875 1.390 . S
C880 C879 1.387 . S
H881 C893 0.930 . S
H882 C895 0.930 . S
H883 C896 0.930 . S
H884 C900 0.959 . S
H885 C900 0.959 . S
H886 C900 0.961 . S
H887 C901 0.960 . S
H888 C901 0.961 . S
H889 C901 0.959 . S
H890 C904 0.929 . S
H891 C905 0.931 . S
H892 C907 0.930 . S
C893 H881 0.930 . S
C893 C894 1.399 . S
C893 C898 1.399 . S
C894 C893 1.399 . S
C894 C895 1.376 . S
C895 H882 0.930 . S
C895 C894 1.376 . S
C895 C896 1.388 . S
C896 H883 0.930 . S
C896 C895 1.388 . S
C896 C897 1.390 . S
C897 C896 1.390 . S
C897 C898 1.394 . S
C897 C903 1.465 . S
C898 C893 1.399 . S
C898 C897 1.394 . S
C898 C899 1.516 . S
C899 C898 1.516 . S
C899 C900 1.502 . S
C899 C901 1.561 . S
C899 C902 1.526 . S
C900 H884 0.959 . S
C900 H885 0.959 . S
C900 H886 0.961 . S
C900 C899 1.502 . S
C901 H887 0.960 . S
C901 H888 0.961 . S
C901 H889 0.959 . S
C901 C899 1.561 . S
C902 C899 1.526 . S
C902 C903 1.396 . S
C902 C907 1.390 . S
C903 C897 1.465 . S
C903 C902 1.396 . S
C903 C904 1.399 . S
C904 H890 0.929 . S
C904 C903 1.399 . S
C904 C905 1.385 . S
C905 H891 0.931 . S
C905 C904 1.385 . S
C905 C906 1.389 . S
C906 C905 1.389 . S
C906 C907 1.387 . S
C907 H892 0.930 . S
C907 C902 1.390 . S
C907 C906 1.387 . S
H908 C920 0.930 . S
H909 C922 0.930 . S
H910 C923 0.930 . S
H911 C927 0.959 . S
H912 C927 0.959 . S
H913 C927 0.961 . S
H914 C928 0.960 . S
H915 C928 0.961 . S
H916 C928 0.959 . S
H917 C931 0.929 . S
H918 C932 0.931 . S
H919 C934 0.930 . S
C920 H908 0.930 . S
C920 C921 1.399 . S
C920 C925 1.399 . S
C921 C920 1.399 . S
C921 C922 1.376 . S
C922 H909 0.930 . S
C922 C921 1.376 . S
C922 C923 1.388 . S
C923 H910 0.930 . S
C923 C922 1.388 . S
C923 C924 1.390 . S
C924 C923 1.390 . S
C924 C925 1.394 . S
C924 C930 1.465 . S
C925 C920 1.399 . S
C925 C924 1.394 . S
C925 C926 1.516 . S
C926 C925 1.516 . S
C926 C927 1.502 . S
C926 C928 1.561 . S
C926 C929 1.526 . S
C927 H911 0.959 . S
C927 H912 0.959 . S
C927 H913 0.961 . S
C927 C926 1.502 . S
C928 H914 0.960 . S
C928 H915 0.961 . S
C928 H916 0.959 . S
C928 C926 1.561 . S
C929 C926 1.526 . S
C929 C930 1.396 . S
C929 C934 1.390 . S
C930 C924 1.465 . S
C930 C929 1.396 . S
C930 C931 1.399 . S
C931 H917 0.929 . S
C931 C930 1.399 . S
C931 C932 1.385 . S
C932 H918 0.931 . S
C932 C931 1.385 . S
C932 C933 1.389 . S
C933 C932 1.389 . S
C933 C934 1.387 . S
C934 H919 0.930 . S
C934 C929 1.390 . S
C934 C933 1.387 . S
H935 C947 0.930 . S
H936 C949 0.930 . S
H937 C950 0.930 . S
H938 C954 0.959 . S
H939 C954 0.959 1_556 S
H940 C954 0.961 . S
H941 C955 0.960 . S
H942 C955 0.961 . S
H943 C955 0.959 . S
H944 C958 0.929 . S
H945 C959 0.931 . S
H946 C961 0.930 . S
C947 H935 0.930 . S
C947 C948 1.399 . S
C947 C952 1.399 . S
C948 C947 1.399 . S
C948 C949 1.376 . S
C949 H936 0.930 . S
C949 C948 1.376 . S
C949 C950 1.388 . S
C950 H937 0.930 . S
C950 C949 1.388 . S
C950 C951 1.390 . S
C951 C950 1.390 . S
C951 C952 1.394 . S
C951 C957 1.465 . S
C952 C947 1.399 . S
C952 C951 1.394 . S
C952 C953 1.516 . S
C953 C952 1.516 . S
C953 C954 1.502 . S
C953 C955 1.561 . S
C953 C956 1.526 . S
C954 H938 0.959 . S
C954 H939 0.959 1_554 S
C954 H940 0.961 . S
C954 C953 1.502 . S
C955 H941 0.960 . S
C955 H942 0.961 . S
C955 H943 0.959 . S
C955 C953 1.561 . S
C956 C953 1.526 . S
C956 C957 1.396 . S
C956 C961 1.390 . S
C957 C951 1.465 . S
C957 C956 1.396 . S
C957 C958 1.399 . S
C958 H944 0.929 . S
C958 C957 1.399 . S
C958 C959 1.385 . S
C959 H945 0.931 . S
C959 C958 1.385 . S
C959 C960 1.389 . S
C960 C959 1.389 . S
C960 C961 1.387 . S
C961 H946 0.930 . S
C961 C956 1.390 . S
C961 C960 1.387 . S
H962 C974 0.930 . S
H963 C976 0.930 . S
H964 C977 0.930 . S
H965 C981 0.959 . S
H966 C981 0.959 . S
H967 C981 0.961 . S
H968 C982 0.960 . S
H969 C982 0.961 . S
H970 C982 0.959 . S
H971 C985 0.929 . S
H972 C986 0.931 . S
H973 C988 0.930 . S
C974 H962 0.930 . S
C974 C975 1.399 . S
C974 C979 1.399 . S
C975 C974 1.399 . S
C975 C976 1.376 . S
C976 H963 0.930 . S
C976 C975 1.376 . S
C976 C977 1.388 . S
C977 H964 0.930 . S
C977 C976 1.388 . S
C977 C978 1.390 . S
C978 C977 1.390 . S
C978 C979 1.394 . S
C978 C984 1.465 . S
C979 C974 1.399 . S
C979 C978 1.394 . S
C979 C980 1.516 . S
C980 C979 1.516 . S
C980 C981 1.502 . S
C980 C982 1.561 . S
C980 C983 1.526 . S
C981 H965 0.959 . S
C981 H966 0.959 . S
C981 H967 0.961 . S
C981 C980 1.502 . S
C982 H968 0.960 . S
C982 H969 0.961 . S
C982 H970 0.959 . S
C982 C980 1.561 . S
C983 C980 1.526 . S
C983 C984 1.396 . S
C983 C988 1.390 . S
C984 C978 1.465 . S
C984 C983 1.396 . S
C984 C985 1.399 . S
C985 H971 0.929 . S
C985 C984 1.399 . S
C985 C986 1.385 . S
C986 H972 0.931 . S
C986 C985 1.385 . S
C986 C987 1.389 . S
C987 C986 1.389 . S
C987 C988 1.387 . S
C988 H973 0.930 . S
C988 C983 1.390 . S
C988 C987 1.387 . S
H989 C1001 0.930 . S
H990 C1003 0.930 . S
H991 C1004 0.930 . S
H992 C1008 0.959 . S
H993 C1008 0.959 . S
H994 C1008 0.961 . S
H995 C1009 0.960 . S
H996 C1009 0.961 . S
H997 C1009 0.959 . S
H998 C1012 0.929 . S
H999 C1013 0.931 . S
H1000 C1015 0.930 . S
C1001 H989 0.930 . S
C1001 C1002 1.399 . S
C1001 C1006 1.399 . S
C1002 C1001 1.399 . S
C1002 C1003 1.376 . S
C1003 H990 0.930 . S
C1003 C1002 1.376 . S
C1003 C1004 1.388 . S
C1004 H991 0.930 . S
C1004 C1003 1.388 . S
C1004 C1005 1.390 . S
C1005 C1004 1.390 . S
C1005 C1006 1.394 . S
C1005 C1011 1.465 . S
C1006 C1001 1.399 . S
C1006 C1005 1.394 . S
C1006 C1007 1.516 . S
C1007 C1006 1.516 . S
C1007 C1008 1.502 . S
C1007 C1009 1.561 . S
C1007 C1010 1.526 . S
C1008 H992 0.959 . S
C1008 H993 0.959 . S
C1008 H994 0.961 . S
C1008 C1007 1.502 . S
C1009 H995 0.960 . S
C1009 H996 0.961 . S
C1009 H997 0.959 . S
C1009 C1007 1.561 . S
C1010 C1007 1.526 . S
C1010 C1011 1.396 . S
C1010 C1015 1.390 . S
C1011 C1005 1.465 . S
C1011 C1010 1.396 . S
C1011 C1012 1.399 . S
C1012 H998 0.929 . S
C1012 C1011 1.399 . S
C1012 C1013 1.385 . S
C1013 H999 0.931 . S
C1013 C1012 1.385 . S
C1013 C1014 1.389 . S
C1014 C1013 1.389 . S
C1014 C1015 1.387 . S
C1015 H1000 0.930 . S
C1015 C1010 1.390 . S
C1015 C1014 1.387 . S
C381 C1 1.527 . S
C393 C290 1.556 . S
C408 C67 1.378 . S
C420 C309 1.329 . S
C447 C346 1.734 . S
C435 C97 1.727 . S
C462 C133 1.717 . S
C474 C356 1.634 . S
C501 C326 2.006 . S
C489 C25 1.991 . S
C528 C296 1.404 . S
C516 C37 1.474 . S
C555 C367 1.491 . S
C543 C103 1.519 . S
C582 C337 1.427 . S
C570 C109 1.419 . S
C597 C31 1.765 . S
C609 C350 1.774 . S
C636 C317 1.708 . S
C624 C73 1.736 . S
C651 C139 1.750 . S
C663 C307 1.749 . S
C678 C61 1.232 . S
C690 C329 1.250 . S
C717 C289 1.545 . S
C705 C175 1.538 . S
C732 C181 1.342 . S
C744 C310 1.287 . S
C759 C247 1.761 . S
C771 C347 1.724 . S
C786 C277 1.704 . S
C798 C357 1.624 . S
C813 C145 1.947 . S
C825 C327 1.997 . S
C852 C297 1.391 . S
C840 C211 1.473 . S
C879 C366 1.509 . S
C867 C217 1.501 . S
C906 C336 1.385 . S
C894 C283 1.437 . S
C921 C169 1.666 . S
C933 C349 1.752 . S
C960 C316 1.669 . S
C948 C241 1.747 . S
C987 C306 1.744 . S
C975 C253 1.741 . S
C1002 C205 1.262 . S
C1014 C330 1.258 . S
