# Generated by pormake.
# Topology ptr, (4,4)-cn, num edge types: 1
# Building blocks:
#     Node 0, Type 0, BuildingBlock: CEKHIL_clean_sbu_0, # of connection points: 4
#     Node 1, Type 0, BuildingBlock: CEKHIL_clean_sbu_0, # of connection points: 4
#     Node 2, Type 0, BuildingBlock: CEKHIL_clean_sbu_0, # of connection points: 4
#     Node 3, Type 0, BuildingBlock: CEKHIL_clean_sbu_0, # of connection points: 4
#     Node 4, Type 0, BuildingBlock: CEKHIL_clean_sbu_0, # of connection points: 4
#     Node 5, Type 0, BuildingBlock: CEKHIL_clean_sbu_0, # of connection points: 4
#     Node 6, Type 0, BuildingBlock: CEKHIL_clean_sbu_0, # of connection points: 4
#     Node 7, Type 0, BuildingBlock: CEKHIL_clean_sbu_0, # of connection points: 4
#     Node 8, Type 0, BuildingBlock: CEKHIL_clean_sbu_0, # of connection points: 4
#     Node 9, Type 0, BuildingBlock: CEKHIL_clean_sbu_0, # of connection points: 4
#     Node 10, Type 0, BuildingBlock: CEKHIL_clean_sbu_0, # of connection points: 4
#     Node 11, Type 0, BuildingBlock: CEKHIL_clean_sbu_0, # of connection points: 4
#     Node 12, Type 0, BuildingBlock: CEKHIL_clean_sbu_0, # of connection points: 4
#     Node 13, Type 0, BuildingBlock: CEKHIL_clean_sbu_0, # of connection points: 4
#     Node 14, Type 0, BuildingBlock: CEKHIL_clean_sbu_0, # of connection points: 4
#     Node 15, Type 0, BuildingBlock: CEKHIL_clean_sbu_0, # of connection points: 4
#     Node 16, Type 0, BuildingBlock: CEKHIL_clean_sbu_0, # of connection points: 4
#     Node 17, Type 0, BuildingBlock: CEKHIL_clean_sbu_0, # of connection points: 4
#     Node 18, Type 1, BuildingBlock: MIFKUJ_clean_linker_1, # of connection points: 4
#     Node 19, Type 1, BuildingBlock: MIFKUJ_clean_linker_1, # of connection points: 4
#     Node 20, Type 1, BuildingBlock: MIFKUJ_clean_linker_1, # of connection points: 4
#     Node 21, Type 1, BuildingBlock: MIFKUJ_clean_linker_1, # of connection points: 4
#     Node 22, Type 1, BuildingBlock: MIFKUJ_clean_linker_1, # of connection points: 4
#     Node 23, Type 1, BuildingBlock: MIFKUJ_clean_linker_1, # of connection points: 4
#     Node 24, Type 1, BuildingBlock: MIFKUJ_clean_linker_1, # of connection points: 4
#     Node 25, Type 1, BuildingBlock: MIFKUJ_clean_linker_1, # of connection points: 4
#     Node 26, Type 1, BuildingBlock: MIFKUJ_clean_linker_1, # of connection points: 4
#     Node 27, Type 1, BuildingBlock: MIFKUJ_clean_linker_1, # of connection points: 4
#     Node 28, Type 1, BuildingBlock: MIFKUJ_clean_linker_1, # of connection points: 4
#     Node 29, Type 1, BuildingBlock: MIFKUJ_clean_linker_1, # of connection points: 4
#     Node 30, Type 1, BuildingBlock: MIFKUJ_clean_linker_1, # of connection points: 4
#     Node 31, Type 1, BuildingBlock: MIFKUJ_clean_linker_1, # of connection points: 4
#     Node 32, Type 1, BuildingBlock: MIFKUJ_clean_linker_1, # of connection points: 4
#     Node 33, Type 1, BuildingBlock: MIFKUJ_clean_linker_1, # of connection points: 4
#     Node 34, Type 1, BuildingBlock: MIFKUJ_clean_linker_1, # of connection points: 4
#     Node 35, Type 1, BuildingBlock: MIFKUJ_clean_linker_1, # of connection points: 4
#     Edge 36, Type (0, 1), BuildingBlock: OJICUG_clean_linker_0, # of connection points: 2
#     Edge 37, Type (0, 1), BuildingBlock: OJICUG_clean_linker_0, # of connection points: 2
#     Edge 38, Type (0, 1), BuildingBlock: OJICUG_clean_linker_0, # of connection points: 2
#     Edge 39, Type (0, 1), BuildingBlock: OJICUG_clean_linker_0, # of connection points: 2
#     Edge 40, Type (0, 1), BuildingBlock: OJICUG_clean_linker_0, # of connection points: 2
#     Edge 41, Type (0, 1), BuildingBlock: OJICUG_clean_linker_0, # of connection points: 2
#     Edge 42, Type (0, 1), BuildingBlock: OJICUG_clean_linker_0, # of connection points: 2
#     Edge 43, Type (0, 1), BuildingBlock: OJICUG_clean_linker_0, # of connection points: 2
#     Edge 44, Type (0, 1), BuildingBlock: OJICUG_clean_linker_0, # of connection points: 2
#     Edge 45, Type (0, 1), BuildingBlock: OJICUG_clean_linker_0, # of connection points: 2
#     Edge 46, Type (0, 1), BuildingBlock: OJICUG_clean_linker_0, # of connection points: 2
#     Edge 47, Type (0, 1), BuildingBlock: OJICUG_clean_linker_0, # of connection points: 2
#     Edge 48, Type (0, 1), BuildingBlock: OJICUG_clean_linker_0, # of connection points: 2
#     Edge 49, Type (0, 1), BuildingBlock: OJICUG_clean_linker_0, # of connection points: 2
#     Edge 50, Type (0, 1), BuildingBlock: OJICUG_clean_linker_0, # of connection points: 2
#     Edge 51, Type (0, 1), BuildingBlock: OJICUG_clean_linker_0, # of connection points: 2
#     Edge 52, Type (0, 1), BuildingBlock: OJICUG_clean_linker_0, # of connection points: 2
#     Edge 53, Type (0, 1), BuildingBlock: OJICUG_clean_linker_0, # of connection points: 2
#     Edge 54, Type (0, 1), BuildingBlock: OJICUG_clean_linker_0, # of connection points: 2
#     Edge 55, Type (0, 1), BuildingBlock: OJICUG_clean_linker_0, # of connection points: 2
#     Edge 56, Type (0, 1), BuildingBlock: OJICUG_clean_linker_0, # of connection points: 2
#     Edge 57, Type (0, 1), BuildingBlock: OJICUG_clean_linker_0, # of connection points: 2
#     Edge 58, Type (0, 1), BuildingBlock: OJICUG_clean_linker_0, # of connection points: 2
#     Edge 59, Type (0, 1), BuildingBlock: OJICUG_clean_linker_0, # of connection points: 2
#     Edge 60, Type (0, 1), BuildingBlock: OJICUG_clean_linker_0, # of connection points: 2
#     Edge 61, Type (0, 1), BuildingBlock: OJICUG_clean_linker_0, # of connection points: 2
#     Edge 62, Type (0, 1), BuildingBlock: OJICUG_clean_linker_0, # of connection points: 2
#     Edge 63, Type (0, 1), BuildingBlock: OJICUG_clean_linker_0, # of connection points: 2
#     Edge 64, Type (0, 1), BuildingBlock: OJICUG_clean_linker_0, # of connection points: 2
#     Edge 65, Type (0, 1), BuildingBlock: OJICUG_clean_linker_0, # of connection points: 2
#     Edge 66, Type (0, 1), BuildingBlock: OJICUG_clean_linker_0, # of connection points: 2
#     Edge 67, Type (0, 1), BuildingBlock: OJICUG_clean_linker_0, # of connection points: 2
#     Edge 68, Type (0, 1), BuildingBlock: OJICUG_clean_linker_0, # of connection points: 2
#     Edge 69, Type (0, 1), BuildingBlock: OJICUG_clean_linker_0, # of connection points: 2
#     Edge 70, Type (0, 1), BuildingBlock: OJICUG_clean_linker_0, # of connection points: 2
#     Edge 71, Type (0, 1), BuildingBlock: OJICUG_clean_linker_0, # of connection points: 2
#     Edge 72, Type (0, 1), BuildingBlock: OJICUG_clean_linker_0, # of connection points: 2
#     Edge 73, Type (0, 1), BuildingBlock: OJICUG_clean_linker_0, # of connection points: 2
#     Edge 74, Type (0, 1), BuildingBlock: OJICUG_clean_linker_0, # of connection points: 2
#     Edge 75, Type (0, 1), BuildingBlock: OJICUG_clean_linker_0, # of connection points: 2
#     Edge 76, Type (0, 1), BuildingBlock: OJICUG_clean_linker_0, # of connection points: 2
#     Edge 77, Type (0, 1), BuildingBlock: OJICUG_clean_linker_0, # of connection points: 2
#     Edge 78, Type (0, 1), BuildingBlock: OJICUG_clean_linker_0, # of connection points: 2
#     Edge 79, Type (0, 1), BuildingBlock: OJICUG_clean_linker_0, # of connection points: 2
#     Edge 80, Type (0, 1), BuildingBlock: OJICUG_clean_linker_0, # of connection points: 2
#     Edge 81, Type (0, 1), BuildingBlock: OJICUG_clean_linker_0, # of connection points: 2
#     Edge 82, Type (0, 1), BuildingBlock: OJICUG_clean_linker_0, # of connection points: 2
#     Edge 83, Type (0, 1), BuildingBlock: OJICUG_clean_linker_0, # of connection points: 2
#     Edge 84, Type (0, 1), BuildingBlock: OJICUG_clean_linker_0, # of connection points: 2
#     Edge 85, Type (0, 1), BuildingBlock: OJICUG_clean_linker_0, # of connection points: 2
#     Edge 86, Type (0, 1), BuildingBlock: OJICUG_clean_linker_0, # of connection points: 2
#     Edge 87, Type (0, 1), BuildingBlock: OJICUG_clean_linker_0, # of connection points: 2
#     Edge 88, Type (0, 1), BuildingBlock: OJICUG_clean_linker_0, # of connection points: 2
#     Edge 89, Type (0, 1), BuildingBlock: OJICUG_clean_linker_0, # of connection points: 2
#     Edge 90, Type (0, 1), BuildingBlock: OJICUG_clean_linker_0, # of connection points: 2
#     Edge 91, Type (0, 1), BuildingBlock: OJICUG_clean_linker_0, # of connection points: 2
#     Edge 92, Type (0, 1), BuildingBlock: OJICUG_clean_linker_0, # of connection points: 2
#     Edge 93, Type (0, 1), BuildingBlock: OJICUG_clean_linker_0, # of connection points: 2
#     Edge 94, Type (0, 1), BuildingBlock: OJICUG_clean_linker_0, # of connection points: 2
#     Edge 95, Type (0, 1), BuildingBlock: OJICUG_clean_linker_0, # of connection points: 2
#     Edge 96, Type (0, 1), BuildingBlock: OJICUG_clean_linker_0, # of connection points: 2
#     Edge 97, Type (0, 1), BuildingBlock: OJICUG_clean_linker_0, # of connection points: 2
#     Edge 98, Type (0, 1), BuildingBlock: OJICUG_clean_linker_0, # of connection points: 2
#     Edge 99, Type (0, 1), BuildingBlock: OJICUG_clean_linker_0, # of connection points: 2
#     Edge 100, Type (0, 1), BuildingBlock: OJICUG_clean_linker_0, # of connection points: 2
#     Edge 101, Type (0, 1), BuildingBlock: OJICUG_clean_linker_0, # of connection points: 2
#     Edge 102, Type (0, 1), BuildingBlock: OJICUG_clean_linker_0, # of connection points: 2
#     Edge 103, Type (0, 1), BuildingBlock: OJICUG_clean_linker_0, # of connection points: 2
#     Edge 104, Type (0, 1), BuildingBlock: OJICUG_clean_linker_0, # of connection points: 2
#     Edge 105, Type (0, 1), BuildingBlock: OJICUG_clean_linker_0, # of connection points: 2
#     Edge 106, Type (0, 1), BuildingBlock: OJICUG_clean_linker_0, # of connection points: 2
#     Edge 107, Type (0, 1), BuildingBlock: OJICUG_clean_linker_0, # of connection points: 2
# Relax obj value: 0.037
# Max RMSD: 0.120
# Mean RMSD: 0.059
data_MOF--net-ptr--node1-CEKHIL_clean_sbu_0--node2-MIFKUJ_clean_linker_1--edge1-OJICUG_clean_linker_0
_symmetry_space_group_name_H-M    P1
_symmetry_Int_Tables_number       1
_symmetry_cell_setting            triclinic
loop_
_symmetry_equiv_pos_as_xyz
'x, y, z'
_cell_length_a     69.662971
_cell_length_b     68.908129
_cell_length_c     48.224432
_cell_angle_alpha  90.754613
_cell_angle_beta   89.559331
_cell_angle_gamma 120.93547
loop_
_atom_site_label
_atom_site_type_symbol
_atom_site_fract_x
_atom_site_fract_y
_atom_site_fract_z
_atom_type_partial_charge
Co0 Co 0.00911 0.349 0.01191 0.0
O1 O 0.01831 0.33437 0.03775 0.0
O2 O 0.0414 0.36659 0.01685 0.0
C3 C 0.98592 0.3176 0.98735 0.0
O4 O 0.00522 0.36841 0.98313 0.0
Co5 Co 0.95876 0.33501 0.01064 0.0
O6 O 0.96827 0.3542 0.97719 0.0
C7 C 0.9876 0.36347 0.05635 0.0
C8 C 0.03865 0.35086 0.03394 0.0
C9 C 0.98863 0.36795 0.97065 0.0
O10 O 0.00498 0.3662 0.04325 0.0
O11 O 0.96755 0.34989 0.04811 0.0
O12 O 0.00729 0.32829 0.98233 0.0
O13 O 0.97985 0.32486 0.0084 0.0
Co14 Co 0.65886 0.65933 0.00626 0.0
O15 O 0.682 0.67395 0.97884 0.0
O16 O 0.67362 0.64231 1.00032 0.0
C17 C 0.66766 0.69115 0.03004 0.0
O18 O 0.63684 0.63969 0.03624 0.0
Co19 Co 0.62146 0.67095 0.01392 0.0
O20 O 0.61545 0.654 0.04909 0.0
C21 C 0.62028 0.64298 0.96609 0.0
C22 C 0.68603 0.65774 0.98239 0.0
C23 C 0.62235 0.64028 0.05241 0.0
O24 O 0.63636 0.64135 0.97647 0.0
O25 O 0.61339 0.65549 0.97664 0.0
O26 O 0.67854 0.68083 0.03477 0.0
O27 O 0.6532 0.6828 0.01031 0.0
Co28 Co 0.34266 0.99736 0.0075 0.0
O29 O 0.3285 0.00728 0.98195 0.0
O30 O 0.35926 0.03025 0.00549 0.0
C31 C 0.31097 0.97215 0.02967 0.0
O32 O 0.36131 0.99276 0.03653 0.0
Co33 Co 0.33067 0.94723 0.00464 0.0
O34 O 0.34748 0.9553 0.03999 0.0
C35 C 0.36196 0.97951 0.96359 0.0
C36 C 0.3441 0.02783 0.98783 0.0
C37 C 0.36064 0.97562 0.04815 0.0
O38 O 0.36155 0.99572 0.97661 0.0
O39 O 0.34955 0.9587 0.97028 0.0
O40 O 0.32107 0.9935 0.03626 0.0
O41 O 0.31899 0.9672 0.00831 0.0
Co42 Co 0.99751 0.65642 0.01133 0.0
O43 O 0.98842 0.67131 0.98574 0.0
O44 O 0.96524 0.63901 0.00645 0.0
C45 C 0.02088 0.68757 0.03625 0.0
O46 O 1.00117 0.6367 0.03984 0.0
Co47 Co 0.04774 0.66999 0.01253 0.0
O48 O 0.03805 0.65059 0.04576 0.0
C49 C 0.01871 0.64124 0.96707 0.0
C50 C 0.96806 0.65484 0.98952 0.0
C51 C 0.01766 0.63691 0.0522 0.0
O52 O 1.00145 0.63923 0.97974 0.0
O53 O 0.03878 0.6544 0.97553 0.0
O54 O 0.9995 0.67701 0.04121 0.0
O55 O 0.02685 0.6804 0.015 0.0
Co56 Co 0.34668 0.34547 0.01643 0.0
O57 O 0.3234 0.33063 0.04364 0.0
O58 O 0.33198 0.36249 0.02254 0.0
C59 C 0.33842 0.31436 0.99148 0.0
O60 O 0.36889 0.36519 0.9866 0.0
Co61 Co 0.38424 0.33373 0.01122 0.0
O62 O 0.39322 0.35351 0.9783 0.0
C63 C 0.38413 0.36096 0.05853 0.0
C64 C 0.31948 0.34694 0.0403 0.0
C65 C 0.38531 0.36612 0.97293 0.0
O66 O 0.36896 0.3633 0.04665 0.0
O67 O 0.39072 0.3479 0.04911 0.0
O68 O 0.32704 0.32426 0.98766 0.0
O69 O 0.35243 0.32209 0.01176 0.0
Co70 Co 0.66191 0.00335 0.01371 0.0
O71 O 0.67548 0.99392 0.04062 0.0
O72 O 0.64529 0.97047 0.01642 0.0
C73 C 0.69406 0.02814 0.99209 0.0
O74 O 0.64378 0.00766 0.98365 0.0
Co75 Co 0.67428 0.05358 0.01489 0.0
O76 O 0.65829 0.04514 0.97886 0.0
C77 C 0.64292 0.02213 0.05653 0.0
C78 C 0.65991 0.97329 0.03517 0.0
C79 C 0.64501 0.02472 0.97111 0.0
O80 O 0.64269 0.00555 0.04362 0.0
O81 O 0.65583 0.04284 0.0497 0.0
O82 O 0.68385 0.00674 0.98571 0.0
O83 O 0.68575 0.03337 0.01288 0.0
Co84 Co 0.67415 0.68126 0.34738 0.0
O85 O 0.68318 0.66634 0.373 0.0
O86 O 0.70642 0.69844 0.35191 0.0
C87 C 0.65043 0.65013 0.32279 0.0
O88 O 0.67066 0.70099 0.31878 0.0
Co89 Co 0.62409 0.66833 0.34635 0.0
O90 O 0.63387 0.68769 0.31308 0.0
C91 C 0.65349 0.697 0.39161 0.0
C92 C 0.70358 0.68267 0.36896 0.0
C93 C 0.65428 0.70105 0.30648 0.0
O94 O 0.67061 0.69876 0.37884 0.0
O95 O 0.63335 0.684 0.38329 0.0
O96 O 0.67178 0.66042 0.31767 0.0
O97 O 0.64465 0.65751 0.344 0.0
Co98 Co 0.32706 0.99401 0.34094 0.0
O99 O 0.35104 0.00795 0.31458 0.0
O100 O 0.34119 0.97621 0.33694 0.0
C101 C 0.33593 0.02616 0.36391 0.0
O102 O 0.30405 0.97525 0.37049 0.0
Co103 Co 0.29049 0.00711 0.3443 0.0
O104 O 0.28142 0.98898 0.37868 0.0
C105 C 0.28919 0.97711 0.29909 0.0
C106 C 0.35444 0.99146 0.3193 0.0
C107 C 0.28832 0.97556 0.3843 0.0
O108 O 0.30521 0.97591 0.31047 0.0
O109 O 0.28234 0.99005 0.30817 0.0
O110 O 0.34621 0.01544 0.36977 0.0
O111 O 0.32218 0.01812 0.34338 0.0
Co112 Co 0.01121 0.33364 0.34367 0.0
O113 O 0.99763 0.34251 0.31598 0.0
O114 O 0.02721 0.36647 0.34079 0.0
C115 C 0.97905 0.30833 0.36483 0.0
O116 O 0.02929 0.33012 0.37457 0.0
Co117 Co 1.0003 0.28381 0.34361 0.0
O118 O 0.01535 0.29282 0.38019 0.0
C119 C 0.03182 0.31552 0.30224 0.0
C120 C 0.01277 0.3633 0.32162 0.0
C121 C 0.02819 0.31337 0.38773 0.0
O122 O 0.0312 0.33189 0.3145 0.0
O123 O 0.01945 0.29482 0.30939 0.0
O124 O 0.9885 0.32976 0.37078 0.0
O125 O 0.98803 0.30333 0.34458 0.0
Co126 Co 0.6651 0.98962 0.34344 0.0
O127 O 0.65497 0.004 0.31857 0.0
O128 O 0.63269 0.97163 0.33971 0.0
C129 C 0.68864 0.02149 0.36714 0.0
O130 O 0.66994 0.97047 0.37157 0.0
Co131 Co 0.71546 0.00415 0.3434 0.0
O132 O 0.707 0.98552 0.37733 0.0
C133 C 0.68601 0.97515 0.29823 0.0
C134 C 0.63484 0.98733 0.32298 0.0
C135 C 0.68677 0.97139 0.38398 0.0
O136 O 0.66875 0.97256 0.31151 0.0
O137 O 0.70613 0.9887 0.30626 0.0
O138 O 0.6675 0.0102 0.37354 0.0
O139 O 0.69425 0.01417 0.34571 0.0
Co140 Co 0.01393 0.67716 0.35169 0.0
O141 O 0.99027 0.66303 0.37849 0.0
O142 O 0.99927 0.69447 0.35612 0.0
C143 C 0.00544 0.6452 0.32854 0.0
O144 O 0.03667 0.69608 0.32186 0.0
Co145 Co 0.05096 0.66465 0.34829 0.0
O146 O 0.05969 0.68275 0.31386 0.0
C147 C 0.05129 0.69366 0.394 0.0
C148 C 0.98645 0.67928 0.37409 0.0
C149 C 0.05252 0.69593 0.30807 0.0
O150 O 0.03586 0.69546 0.38194 0.0
O151 O 0.05799 0.68051 0.38523 0.0
O152 O 0.99474 0.65555 0.32303 0.0
O153 O 0.01923 0.65337 0.34901 0.0
Co154 Co 0.32849 0.33844 0.34948 0.0
O155 O 0.34251 0.32839 0.37503 0.0
O156 O 0.31157 0.30556 0.35171 0.0
C157 C 0.36029 0.36335 0.32722 0.0
O158 O 0.30991 0.34311 0.32043 0.0
Co159 Co 0.34084 0.38858 0.35156 0.0
O160 O 0.32496 0.38062 0.31549 0.0
C161 C 0.30952 0.35685 0.39308 0.0
C162 C 0.32669 0.30789 0.36938 0.0
C163 C 0.31136 0.36026 0.30787 0.0
O164 O 0.30986 0.34046 0.38043 0.0
O165 O 0.3219 0.37756 0.38596 0.0
O166 O 0.34984 0.34201 0.32053 0.0
O167 O 0.35244 0.36848 0.34861 0.0
Co168 Co 0.34177 0.01562 0.68022 0.0
O169 O 0.35172 0.00129 0.70541 0.0
O170 O 0.3742 0.0333 0.68373 0.0
C171 C 0.31793 0.98372 0.65688 0.0
O172 O 0.33708 0.03469 0.65181 0.0
Co173 Co 0.29144 0.00145 0.68022 0.0
O174 O 0.30002 0.01954 0.64587 0.0
C175 C 0.32128 0.03112 0.7248 0.0
C176 C 0.37193 0.01774 0.7008 0.0
C177 C 0.32026 0.03363 0.63921 0.0
O178 O 0.33843 0.03306 0.71189 0.0
O179 O 0.30112 0.01783 0.71671 0.0
O180 O 0.33907 0.9947 0.65041 0.0
O181 O 0.31252 0.99129 0.67823 0.0
Co182 Co 0.9919 0.32587 0.67518 0.0
O183 O 0.01499 0.34058 0.64768 0.0
O184 O 0.00665 0.30889 0.66904 0.0
C185 C 1.00033 0.35716 0.6999 0.0
O186 O 0.96996 0.3063 0.70535 0.0
Co187 Co 0.95428 0.33745 0.68106 0.0
O188 O 0.94598 0.31828 0.71445 0.0
C189 C 0.95334 0.30912 0.63427 0.0
C190 C 0.01904 0.32436 0.65114 0.0
C191 C 0.95384 0.30559 0.71952 0.0
O192 O 0.96938 0.30776 0.64528 0.0
O193 O 0.9464 0.3218 0.64405 0.0
O194 O 0.01175 0.34728 0.70363 0.0
O195 O 0.98612 0.34926 0.67983 0.0
Co196 Co 0.67726 0.66684 0.67537 0.0
O197 O 0.66307 0.67661 0.6497 0.0
O198 O 0.69397 0.69973 0.67292 0.0
C199 C 0.6455 0.64194 0.69767 0.0
O200 O 0.69596 0.66244 0.7045 0.0
Co201 Co 0.66502 0.6167 0.67383 0.0
O202 O 0.68104 0.62497 0.70981 0.0
C203 C 0.69629 0.64829 0.63211 0.0
C204 C 0.67873 0.69719 0.65529 0.0
C205 C 0.69463 0.6454 0.71721 0.0
O206 O 0.69592 0.66476 0.6445 0.0
O207 O 0.68395 0.62764 0.63945 0.0
O208 O 0.65588 0.6633 0.70427 0.0
O209 O 0.65342 0.63678 0.6764 0.0
Co210 Co 0.3305 0.3218 0.67934 0.0
O211 O 0.32084 0.33608 0.65368 0.0
O212 O 0.29805 0.30435 0.67567 0.0
C213 C 0.35444 0.35387 0.7023 0.0
O214 O 0.33493 0.30282 0.70823 0.0
Co215 Co 0.38067 0.33548 0.67974 0.0
O216 O 0.37193 0.31772 0.71436 0.0
C217 C 0.35081 0.30569 0.63527 0.0
C218 C 0.30055 0.31981 0.65829 0.0
C219 C 0.35165 0.30382 0.72103 0.0
O220 O 0.33373 0.30399 0.64807 0.0
O221 O 0.37099 0.31887 0.64335 0.0
O222 O 0.3333 0.34304 0.70872 0.0
O223 O 0.35984 0.346 0.68124 0.0
Co224 Co 0.6811 0.01244 0.68372 0.0
O225 O 0.65777 0.99762 0.71087 0.0
O226 O 0.66654 0.02959 0.68991 0.0
C227 C 0.67275 0.98139 0.65854 0.0
O228 O 0.70337 0.03213 0.6539 0.0
Co229 Co 0.71848 1.00044 0.67847 0.0
O230 O 0.7274 0.02009 0.64543 0.0
C231 C 0.71849 0.02763 0.72589 0.0
C232 C 0.65394 0.014 0.70758 0.0
C233 C 0.71962 0.03281 0.64007 0.0
O234 O 0.70342 0.03013 0.71402 0.0
O235 O 0.72496 0.01449 0.71641 0.0
O236 O 0.66144 0.99139 0.65484 0.0
O237 O 0.6867 0.98896 0.67889 0.0
Co238 Co 0.99584 0.67212 0.68097 0.0
O239 O 0.01022 0.66267 0.70675 0.0
O240 O 0.9795 0.63924 0.68344 0.0
C241 C 0.02752 0.69733 0.65881 0.0
O242 O 0.97703 0.67623 0.65171 0.0
Co243 Co 0.00745 0.72209 0.6825 0.0
O244 O 0.99168 0.71365 0.64635 0.0
C245 C 0.97644 0.69026 0.72423 0.0
C246 C 0.99476 0.64202 0.70116 0.0
C247 C 0.97828 0.69319 0.63891 0.0
O248 O 0.97696 0.67391 0.71174 0.0
O249 O 0.98863 0.71096 0.71695 0.0
O250 O 0.01743 0.67598 0.65218 0.0
O251 O 0.01938 0.70229 0.68002 0.0
H252 H 0.15793 0.37389 0.21606 0.0
H253 H 0.12587 0.36684 0.24457 0.0
H254 H 0.08269 0.30862 0.19338 0.0
H255 H 0.11494 0.31517 0.16576 0.0
H256 H 0.17528 0.34834 0.21132 0.0
H257 H 0.14799 0.38011 0.14576 0.0
H258 H 0.11966 0.3817 0.1176 0.0
H259 H 0.10557 0.32019 0.07514 0.0
H260 H 0.13388 0.31868 0.10329 0.0
H261 H 0.19234 0.31562 0.11155 0.0
H262 H 0.22286 0.31573 0.08588 0.0
H263 H 0.26978 0.3811 0.12145 0.0
H264 H 0.23911 0.3809 0.14709 0.0
H265 H 0.17856 0.34771 0.10856 0.0
H266 H 0.20838 0.31811 0.17746 0.0
H267 H 0.23765 0.31963 0.20713 0.0
H268 H 0.24876 0.38213 0.24377 0.0
H269 H 0.21989 0.38068 0.21397 0.0
C270 C 0.13887 0.34516 0.18866 0.0
C271 C 0.14152 0.35973 0.21084 0.0
C272 C 0.12312 0.35578 0.22698 0.0
C273 C 0.1017 0.33712 0.22131 0.0
C274 C 0.09899 0.32298 0.19851 0.0
C275 C 0.1174 0.32689 0.18246 0.0
C276 C 0.15872 0.34785 0.17348 0.0
C277 C 0.17616 0.3486 0.18885 0.0
C278 C 0.1598 0.34797 0.14416 0.0
C279 C 0.14291 0.34916 0.12679 0.0
C280 C 0.1388 0.36698 0.13037 0.0
C281 C 0.12276 0.36798 0.11413 0.0
C282 C 0.1104 0.35106 0.0942 0.0
C283 C 0.11473 0.33338 0.09047 0.0
C284 C 0.13095 0.33254 0.10646 0.0
C285 C 0.21353 0.34817 0.13131 0.0
C286 C 0.20921 0.32995 0.11381 0.0
C287 C 0.22664 0.32999 0.0993 0.0
C288 C 0.24866 0.34841 0.10174 0.0
C289 C 0.25293 0.36676 0.11907 0.0
C290 C 0.2355 0.3666 0.13384 0.0
C291 C 0.1949 0.348 0.14646 0.0
C292 C 0.17769 0.34764 0.13104 0.0
C293 C 0.19428 0.34872 0.17575 0.0
C294 C 0.21211 0.34943 0.19329 0.0
C295 C 0.21729 0.33223 0.19173 0.0
C296 C 0.23387 0.33301 0.20884 0.0
C297 C 0.24565 0.35108 0.22766 0.0
C298 C 0.24028 0.36816 0.22919 0.0
C299 C 0.22367 0.3673 0.21229 0.0
H300 H 0.70791 0.88567 0.20018 0.0
H301 H 0.71009 0.91663 0.22779 0.0
H302 H 0.64481 0.89971 0.19808 0.0
H303 H 0.64245 0.86816 0.17111 0.0
H304 H 0.67741 0.84079 0.20558 0.0
H305 H 0.70176 0.89642 0.13113 0.0
H306 H 0.69858 0.92464 0.10487 0.0
H307 H 0.63025 0.87441 0.08383 0.0
H308 H 0.63401 0.84602 0.10934 0.0
H309 H 0.63871 0.7864 0.10726 0.0
H310 H 0.6386 0.75558 0.08173 0.0
H311 H 0.70437 0.77667 0.11389 0.0
H312 H 0.70397 0.80713 0.14015 0.0
H313 H 0.66659 0.83176 0.10364 0.0
H314 H 0.64292 0.77477 0.16909 0.0
H315 H 0.64052 0.74547 0.19888 0.0
H316 H 0.69994 0.79538 0.24245 0.0
H317 H 0.70316 0.82455 0.21105 0.0
C318 C 0.67509 0.87472 0.18351 0.0
C319 C 0.69411 0.8887 0.19951 0.0
C320 C 0.69542 0.90653 0.21505 0.0
C321 C 0.67768 0.91074 0.21497 0.0
C322 C 0.6587 0.89684 0.19866 0.0
C323 C 0.65741 0.87894 0.18308 0.0
C324 C 0.67356 0.85521 0.1682 0.0
C325 C 0.67549 0.83897 0.18322 0.0
C326 C 0.66987 0.85236 0.13926 0.0
C327 C 0.66807 0.86921 0.12238 0.0
C328 C 0.68614 0.8915 0.12075 0.0
C329 C 0.68419 0.90765 0.10586 0.0
C330 C 0.66401 0.90196 0.09247 0.0
C331 C 0.64608 0.87941 0.09363 0.0
C332 C 0.64816 0.86317 0.10832 0.0
C333 C 0.67134 0.79903 0.1255 0.0
C334 C 0.6531 0.78439 0.10876 0.0
C335 C 0.65313 0.76683 0.09413 0.0
C336 C 0.67159 0.76379 0.09555 0.0
C337 C 0.6898 0.7784 0.11256 0.0
C338 C 0.68966 0.79587 0.12743 0.0
C339 C 0.67118 0.81763 0.14093 0.0
C340 C 0.66875 0.8336 0.12597 0.0
C341 C 0.67396 0.81994 0.17007 0.0
C342 C 0.6734 0.80193 0.18746 0.0
C343 C 0.65585 0.77939 0.18447 0.0
C344 C 0.65429 0.76264 0.2019 0.0
C345 C 0.66989 0.76804 0.22337 0.0
C346 C 0.68775 0.79053 0.22602 0.0
C347 C 0.68948 0.80729 0.20824 0.0
H348 H 0.12275 0.82098 0.21668 0.0
H349 H 0.0984 0.79016 0.24768 0.0
H350 H 0.10795 0.74366 0.19678 0.0
H351 H 0.13313 0.77479 0.16668 0.0
H352 H 0.16568 0.83788 0.20739 0.0
H353 H 0.09891 0.7997 0.15274 0.0
H354 H 0.06835 0.76684 0.12936 0.0
H355 H 0.11588 0.76608 0.07168 0.0
H356 H 0.1463 0.79706 0.09694 0.0
H357 H 0.22196 0.86134 0.1368 0.0
H358 H 0.2536 0.88959 0.10932 0.0
H359 H 0.2124 0.91463 0.07855 0.0
H360 H 0.18062 0.886 0.10571 0.0
H361 H 0.16018 0.8373 0.10488 0.0
H362 H 0.20814 0.85311 0.20919 0.0
H363 H 0.23693 0.88416 0.23706 0.0
H364 H 0.22665 0.93163 0.19131 0.0
H365 H 0.19696 0.9004 0.16482 0.0
C366 C 0.1297 0.80022 0.18924 0.0
C367 C 0.11952 0.80412 0.21216 0.0
C368 C 0.10541 0.7864 0.22973 0.0
C369 C 0.10117 0.76437 0.22479 0.0
C370 C 0.11103 0.76044 0.20145 0.0
C371 C 0.12527 0.7782 0.184 0.0
C372 C 0.14591 0.81941 0.1718 0.0
C373 C 0.16441 0.83765 0.18497 0.0
C374 C 0.14408 0.8194 0.14251 0.0
C375 C 0.12505 0.80061 0.1271 0.0
C376 C 0.10276 0.79214 0.13539 0.0
C377 C 0.08521 0.77351 0.12166 0.0
C378 C 0.08953 0.76341 0.09878 0.0
C379 C 0.11181 0.77274 0.08975 0.0
C380 C 0.12932 0.79086 0.10393 0.0
C381 C 0.19902 0.87166 0.1233 0.0
C382 C 0.21973 0.87285 0.12402 0.0
C383 C 0.23773 0.8889 0.1083 0.0
C384 C 0.23539 0.90426 0.09191 0.0
C385 C 0.21463 0.90304 0.09117 0.0
C386 C 0.19649 0.88667 0.10651 0.0
C387 C 0.18018 0.85488 0.14049 0.0
C388 C 0.16124 0.8373 0.12731 0.0
C389 C 0.18156 0.85535 0.16971 0.0
C390 C 0.20041 0.8744 0.18486 0.0
C391 C 0.21215 0.87023 0.20513 0.0
C392 C 0.22882 0.88805 0.22081 0.0
C393 C 0.23409 0.91041 0.21646 0.0
C394 C 0.22282 0.91459 0.19545 0.0
C395 C 0.20601 0.89676 0.18002 0.0
H396 H 0.30749 0.1798 0.81225 0.0
H397 H 0.3104 0.20916 0.78159 0.0
H398 H 0.36576 0.25988 0.83039 0.0
H399 H 0.36357 0.23034 0.85986 0.0
H400 H 0.33599 0.1665 0.82037 0.0
H401 H 0.30449 0.20079 0.87745 0.0
H402 H 0.30546 0.233 0.90063 0.0
H403 H 0.35837 0.24004 0.95404 0.0
H404 H 0.35889 0.20965 0.92901 0.0
H405 H 0.37079 0.14309 0.88716 0.0
H406 H 0.37371 0.11448 0.91346 0.0
H407 H 0.3102 0.09396 0.95257 0.0
H408 H 0.30735 0.12254 0.92624 0.0
H409 H 0.33351 0.1685 0.92309 0.0
H410 H 0.36493 0.15365 0.81681 0.0
H411 H 0.36269 0.12308 0.78817 0.0
H412 H 0.30648 0.07428 0.83694 0.0
H413 H 0.30793 0.10499 0.86429 0.0
C414 C 0.33522 0.20279 0.83853 0.0
C415 C 0.32025 0.19726 0.81634 0.0
C416 C 0.32177 0.21414 0.79897 0.0
C417 C 0.33833 0.23698 0.80339 0.0
C418 C 0.353 0.24248 0.82602 0.0
C419 C 0.35161 0.22559 0.84316 0.0
C420 C 0.33429 0.18465 0.85605 0.0
C421 C 0.33555 0.16707 0.84284 0.0
C422 C 0.3332 0.185 0.88544 0.0
C423 C 0.33201 0.2031 0.90097 0.0
C424 C 0.31655 0.20956 0.89386 0.0
C425 C 0.31691 0.22781 0.90743 0.0
C426 C 0.3323 0.23952 0.92892 0.0
C427 C 0.34683 0.23208 0.93695 0.0
C428 C 0.34688 0.21433 0.92293 0.0
C429 C 0.33874 0.1348 0.90454 0.0
C430 C 0.35756 0.13251 0.90153 0.0
C431 C 0.3593 0.11628 0.91669 0.0
C432 C 0.34214 0.10192 0.93498 0.0
C433 C 0.32358 0.10465 0.93845 0.0
C434 C 0.32198 0.12103 0.92353 0.0
C435 C 0.33626 0.15116 0.88737 0.0
C436 C 0.33411 0.16817 0.90062 0.0
C437 C 0.3365 0.15033 0.85807 0.0
C438 C 0.33663 0.13163 0.84272 0.0
C439 C 0.3522 0.13634 0.8214 0.0
C440 C 0.35107 0.11881 0.80526 0.0
C441 C 0.33436 0.09622 0.81021 0.0
C442 C 0.31937 0.09151 0.83233 0.0
C443 C 0.32035 0.10905 0.84823 0.0
H444 H 0.83226 0.11501 0.82218 0.0
H445 H 0.80275 0.08483 0.79418 0.0
H446 H 0.75477 0.10037 0.82904 0.0
H447 H 0.78467 0.1311 0.85651 0.0
H448 H 0.84587 0.16085 0.8195 0.0
H449 H 0.81464 0.10069 0.89099 0.0
H450 H 0.78237 0.07218 0.91715 0.0
H451 H 0.76797 0.12356 0.94397 0.0
H452 H 0.80075 0.15195 0.91875 0.0
H453 H 0.86118 0.20509 0.9286 0.0
H454 H 0.89107 0.23708 0.95333 0.0
H455 H 0.93972 0.23499 0.89893 0.0
H456 H 0.90978 0.20126 0.87639 0.0
H457 H 0.84706 0.16475 0.92228 0.0
H458 H 0.87441 0.22461 0.85947 0.0
H459 H 0.89899 0.25603 0.82959 0.0
H460 H 0.91232 0.21134 0.78035 0.0
H461 H 0.88871 0.18023 0.81146 0.0
C462 C 0.81059 0.12512 0.84152 0.0
C463 C 0.81535 0.11181 0.82391 0.0
C464 C 0.79842 0.09444 0.80813 0.0
C465 C 0.77638 0.0901 0.80958 0.0
C466 C 0.7716 0.10337 0.82744 0.0
C467 C 0.7886 0.12078 0.84327 0.0
C468 C 0.82897 0.14416 0.85706 0.0
C469 C 0.84648 0.16161 0.84199 0.0
C470 C 0.82894 0.1456 0.88627 0.0
C471 C 0.81006 0.12839 0.90301 0.0
C472 C 0.80458 0.10575 0.90273 0.0
C473 C 0.78599 0.08946 0.9175 0.0
C474 C 0.77242 0.09548 0.93268 0.0
C475 C 0.77818 0.11829 0.933 0.0
C476 C 0.79689 0.13457 0.9185 0.0
C477 C 0.88308 0.20088 0.90024 0.0
C478 C 0.8783 0.21121 0.92229 0.0
C479 C 0.89551 0.2299 0.93613 0.0
C480 C 0.91796 0.23915 0.92782 0.0
C481 C 0.92275 0.22841 0.90613 0.0
C482 C 0.90554 0.20926 0.89284 0.0
C483 C 0.86452 0.18165 0.88476 0.0
C484 C 0.84687 0.1641 0.89979 0.0
C485 C 0.86392 0.18069 0.85535 0.0
C486 C 0.87986 0.20006 0.83794 0.0
C487 C 0.88302 0.22167 0.84265 0.0
C488 C 0.89689 0.23959 0.82528 0.0
C489 C 0.90755 0.23623 0.80238 0.0
C490 C 0.90464 0.21465 0.79796 0.0
C491 C 0.89094 0.19676 0.81557 0.0
H492 H 0.78716 0.62569 0.80959 0.0
H493 H 0.7581 0.62419 0.78007 0.0
H494 H 0.76907 0.68649 0.81716 0.0
H495 H 0.79849 0.68805 0.84658 0.0
H496 H 0.83189 0.65821 0.81259 0.0
H497 H 0.76763 0.62475 0.87633 0.0
H498 H 0.73668 0.62417 0.90174 0.0
H499 H 0.78303 0.68949 0.93786 0.0
H500 H 0.81384 0.68997 0.91246 0.0
H501 H 0.87268 0.68716 0.92091 0.0
H502 H 0.90104 0.68562 0.94897 0.0
H503 H 0.88699 0.62423 0.90621 0.0
H504 H 0.85864 0.62586 0.87815 0.0
H505 H 0.82788 0.65792 0.91534 0.0
H506 H 0.89203 0.69083 0.85903 0.0
H507 H 0.92458 0.69711 0.83236 0.0
H508 H 0.88172 0.63963 0.77994 0.0
H509 H 0.84933 0.63279 0.8076 0.0
C510 C 0.79486 0.65684 0.83049 0.0
C511 C 0.78332 0.63904 0.81141 0.0
C512 C 0.76661 0.63814 0.79467 0.0
C513 C 0.76114 0.65513 0.79644 0.0
C514 C 0.77293 0.67318 0.81528 0.0
C515 C 0.78961 0.67399 0.83224 0.0
C516 C 0.81262 0.65748 0.84808 0.0
C517 C 0.83087 0.65777 0.83506 0.0
C518 C 0.81177 0.65791 0.87737 0.0
C519 C 0.79296 0.65748 0.89241 0.0
C520 C 0.77106 0.63895 0.88967 0.0
C521 C 0.75346 0.63857 0.9043 0.0
C522 C 0.75748 0.6568 0.92171 0.0
C523 C 0.77943 0.67531 0.92439 0.0
C524 C 0.79704 0.67556 0.91002 0.0
C525 C 0.86369 0.65674 0.89728 0.0
C526 C 0.87563 0.67331 0.91768 0.0
C527 C 0.89187 0.67246 0.9336 0.0
C528 C 0.89623 0.65481 0.92974 0.0
C529 C 0.88386 0.63792 0.90978 0.0
C530 C 0.86781 0.63894 0.89361 0.0
C531 C 0.84691 0.65805 0.87984 0.0
C532 C 0.8289 0.6582 0.89287 0.0
C533 C 0.84823 0.65844 0.85053 0.0
C534 C 0.8682 0.66119 0.83553 0.0
C535 C 0.88968 0.67922 0.84225 0.0
C536 C 0.90828 0.68297 0.82673 0.0
C537 C 0.90579 0.66895 0.80389 0.0
C538 C 0.88432 0.65059 0.7976 0.0
C539 C 0.86573 0.64677 0.81324 0.0
H540 H 0.82358 0.70494 0.54898 0.0
H541 H 0.79126 0.69823 0.57672 0.0
H542 H 0.74823 0.64063 0.52458 0.0
H543 H 0.7807 0.64676 0.49784 0.0
H544 H 0.8412 0.67967 0.5436 0.0
H545 H 0.81397 0.71189 0.47854 0.0
H546 H 0.78531 0.71339 0.45102 0.0
H547 H 0.77072 0.65175 0.40846 0.0
H548 H 0.79941 0.65036 0.43597 0.0
H549 H 0.85856 0.64818 0.44294 0.0
H550 H 0.88917 0.64861 0.41711 0.0
H551 H 0.93592 0.71371 0.45343 0.0
H552 H 0.90515 0.71319 0.47927 0.0
H553 H 0.84445 0.67993 0.44081 0.0
H554 H 0.87458 0.65009 0.50913 0.0
H555 H 0.9041 0.65174 0.53848 0.0
H556 H 0.91512 0.71412 0.57538 0.0
H557 H 0.88596 0.7125 0.54598 0.0
C558 C 0.80462 0.67647 0.52118 0.0
C559 C 0.80716 0.69094 0.54344 0.0
C560 C 0.78861 0.68721 0.55913 0.0
C561 C 0.7671 0.66887 0.55291 0.0
C562 C 0.76455 0.65475 0.53015 0.0
C563 C 0.78311 0.65842 0.51459 0.0
C564 C 0.82452 0.67929 0.50593 0.0
C565 C 0.84206 0.6801 0.52113 0.0
C566 C 0.82564 0.67969 0.4766 0.0
C567 C 0.80869 0.68091 0.45945 0.0
C568 C 0.80462 0.69873 0.46324 0.0
C569 C 0.78838 0.69967 0.44738 0.0
C570 C 0.77578 0.68267 0.42764 0.0
C571 C 0.78008 0.66499 0.42367 0.0
C572 C 0.79651 0.66422 0.43927 0.0
C573 C 0.87964 0.68055 0.46316 0.0
C574 C 0.87541 0.66254 0.44532 0.0
C575 C 0.89289 0.66277 0.43069 0.0
C576 C 0.91491 0.68118 0.43333 0.0
C577 C 0.91908 0.69939 0.45089 0.0
C578 C 0.90159 0.69903 0.46579 0.0
C579 C 0.86093 0.68009 0.47852 0.0
C580 C 0.84361 0.67967 0.46329 0.0
C581 C 0.86029 0.68053 0.50783 0.0
C582 C 0.87823 0.68131 0.52517 0.0
C583 C 0.88351 0.66419 0.52341 0.0
C584 C 0.90023 0.66505 0.54032 0.0
C585 C 0.91206 0.68314 0.5591 0.0
C586 C 0.90659 0.70014 0.56083 0.0
C587 C 0.88982 0.69918 0.54416 0.0
H588 H 0.36205 0.23095 0.49493 0.0
H589 H 0.3644 0.26197 0.52265 0.0
H590 H 0.30831 0.21379 0.57208 0.0
H591 H 0.30534 0.18295 0.54333 0.0
H592 H 0.3349 0.17027 0.53939 0.0
H593 H 0.36093 0.21181 0.43258 0.0
H594 H 0.35855 0.24046 0.4058 0.0
H595 H 0.29627 0.22252 0.44661 0.0
H596 H 0.29873 0.19383 0.47341 0.0
H597 H 0.30458 0.12004 0.43854 0.0
H598 H 0.30591 0.09011 0.41281 0.0
H599 H 0.37019 0.11072 0.44946 0.0
H600 H 0.36833 0.14035 0.47592 0.0
H601 H 0.33327 0.16579 0.43662 0.0
H602 H 0.30655 0.10568 0.50069 0.0
H603 H 0.30516 0.07665 0.53026 0.0
H604 H 0.36118 0.12812 0.57748 0.0
H605 H 0.36338 0.15705 0.54654 0.0
C606 C 0.33343 0.20464 0.51697 0.0
C607 C 0.34989 0.22711 0.51126 0.0
C608 C 0.35136 0.24482 0.52732 0.0
C609 C 0.33663 0.24035 0.54968 0.0
C610 C 0.31973 0.21787 0.5548 0.0
C611 C 0.31816 0.20019 0.53858 0.0
C612 C 0.33311 0.18571 0.50165 0.0
C613 C 0.33455 0.16925 0.51691 0.0
C614 C 0.33234 0.18432 0.47235 0.0
C615 C 0.33012 0.20082 0.45517 0.0
C616 C 0.34666 0.2139 0.43559 0.0
C617 C 0.34534 0.23032 0.42041 0.0
C618 C 0.32725 0.23377 0.42419 0.0
C619 C 0.31031 0.22014 0.44314 0.0
C620 C 0.31179 0.20387 0.45858 0.0
C621 C 0.33637 0.13239 0.459 0.0
C622 C 0.31897 0.11812 0.44098 0.0
C623 C 0.31982 0.10109 0.42622 0.0
C624 C 0.3383 0.09819 0.42883 0.0
C625 C 0.35566 0.1124 0.44715 0.0
C626 C 0.35469 0.12938 0.46215 0.0
C627 C 0.3352 0.15043 0.47437 0.0
C628 C 0.33363 0.1668 0.4591 0.0
C629 C 0.33539 0.15144 0.5037 0.0
C630 C 0.33525 0.13362 0.52107 0.0
C631 C 0.31894 0.11073 0.51692 0.0
C632 C 0.31795 0.09412 0.53419 0.0
C633 C 0.33293 0.09998 0.55651 0.0
C634 C 0.34953 0.12289 0.56036 0.0
C635 C 0.35066 0.13951 0.54283 0.0
H636 H 0.78628 0.15682 0.54558 0.0
H637 H 0.762 0.12631 0.57707 0.0
H638 H 0.77291 0.07971 0.52833 0.0
H639 H 0.79815 0.11049 0.4981 0.0
H640 H 0.82944 0.17377 0.53845 0.0
H641 H 0.76566 0.1401 0.47469 0.0
H642 H 0.73538 0.10813 0.44921 0.0
H643 H 0.78365 0.09388 0.41216 0.0
H644 H 0.81367 0.12626 0.43672 0.0
H645 H 0.88832 0.19667 0.46998 0.0
H646 H 0.92056 0.22535 0.44369 0.0
H647 H 0.87975 0.25008 0.41068 0.0
H648 H 0.84741 0.22107 0.43669 0.0
H649 H 0.82772 0.17151 0.43558 0.0
H650 H 0.87213 0.18738 0.54113 0.0
H651 H 0.90079 0.21777 0.56985 0.0
H652 H 0.89251 0.26661 0.52427 0.0
H653 H 0.86304 0.23599 0.49665 0.0
C654 C 0.79393 0.13597 0.5193 0.0
C655 C 0.78327 0.13998 0.54158 0.0
C656 C 0.76922 0.12245 0.55943 0.0
C657 C 0.76556 0.10054 0.55535 0.0
C658 C 0.7756 0.09643 0.53237 0.0
C659 C 0.7898 0.11398 0.51475 0.0
C660 C 0.81083 0.15505 0.50231 0.0
C661 C 0.82893 0.17332 0.51596 0.0
C662 C 0.81026 0.15457 0.47298 0.0
C663 C 0.79186 0.13557 0.4574 0.0
C664 C 0.76962 0.1301 0.46092 0.0
C665 C 0.75234 0.11172 0.44652 0.0
C666 C 0.75705 0.09845 0.4285 0.0
C667 C 0.77941 0.10399 0.42532 0.0
C668 C 0.79663 0.12247 0.43941 0.0
C669 C 0.86555 0.20683 0.45524 0.0
C670 C 0.88632 0.2082 0.45695 0.0
C671 C 0.90466 0.22451 0.44192 0.0
C672 C 0.9026 0.23991 0.42526 0.0
C673 C 0.88177 0.23849 0.42354 0.0
C674 C 0.86331 0.22189 0.4382 0.0
C675 C 0.84635 0.18994 0.47181 0.0
C676 C 0.82798 0.17208 0.45807 0.0
C677 C 0.84674 0.19069 0.50109 0.0
C678 C 0.86546 0.20941 0.51674 0.0
C679 C 0.87658 0.20466 0.53727 0.0
C680 C 0.89316 0.22209 0.55344 0.0
C681 C 0.89894 0.24463 0.54936 0.0
C682 C 0.88827 0.2494 0.52814 0.0
C683 C 0.87158 0.23194 0.51213 0.0
H684 H 0.9704 0.51303 0.14642 0.0
H685 H 0.97316 0.54223 0.11547 0.0
H686 H 0.03256 0.5923 0.15895 0.0
H687 H 0.03064 0.56297 0.18824 0.0
H688 H 0.99621 0.49699 0.15127 0.0
H689 H 0.96994 0.53008 0.21786 0.0
H690 H 0.96959 0.56031 0.24465 0.0
H691 H 0.03569 0.58159 0.27578 0.0
H692 H 0.03553 0.55094 0.24971 0.0
H693 H 0.03949 0.49066 0.24719 0.0
H694 H 0.04283 0.46198 0.27255 0.0
H695 H 0.97442 0.41229 0.25107 0.0
H696 H 0.97167 0.44082 0.22493 0.0
H697 H 0.00742 0.50537 0.25317 0.0
H698 H 0.03092 0.46899 0.18517 0.0
H699 H 0.02839 0.43762 0.15767 0.0
H700 H 0.96339 0.42155 0.12786 0.0
H701 H 0.96571 0.45229 0.15605 0.0
C702 C 1.0002 0.53571 0.16992 0.0
C703 C 0.98399 0.53033 0.1493 0.0
C704 C 0.98545 0.54711 0.13178 0.0
C705 C 0.00316 0.56967 0.13452 0.0
C706 C 0.01889 0.57508 0.15583 0.0
C707 C 0.01761 0.5583 0.17301 0.0
C708 C 0.99988 0.51766 0.18704 0.0
C709 C 0.99822 0.49868 0.17362 0.0
C710 C 1.00283 0.51981 0.21616 0.0
C711 C 1.00274 0.5383 0.23192 0.0
C712 C 0.98433 0.54133 0.23046 0.0
C713 C 0.98422 0.55868 0.24564 0.0
C714 C 1.00256 0.5733 0.26248 0.0
C715 C 0.02109 0.57034 0.2635 0.0
C716 C 0.02109 0.55289 0.24855 0.0
C717 C 0.00543 0.46779 0.23394 0.0
C718 C 0.02524 0.47356 0.24806 0.0
C719 C 0.02706 0.45714 0.26267 0.0
C720 C 0.00898 0.43466 0.26374 0.0
C721 C 0.98892 0.42921 0.25019 0.0
C722 C 0.98722 0.44555 0.23536 0.0
C723 C 0.00384 0.48489 0.21731 0.0
C724 C 0.00519 0.50367 0.23085 0.0
C725 C 1.00008 0.48227 0.18837 0.0
C726 C 0.99841 0.46283 0.17278 0.0
C727 C 0.01597 0.45842 0.17308 0.0
C728 C 0.01459 0.44062 0.1572 0.0
C729 C 0.99566 0.42704 0.14068 0.0
C730 C 0.97802 0.4314 0.14074 0.0
C731 C 0.97941 0.44912 0.15662 0.0
H732 H 0.49731 0.44981 0.1551 0.0
H733 H 0.46815 0.41911 0.12732 0.0
H734 H 0.41934 0.43387 0.16124 0.0
H735 H 0.44889 0.46516 0.18837 0.0
H736 H 0.51071 0.495 0.15131 0.0
H737 H 0.47945 0.43654 0.22381 0.0
H738 H 0.44768 0.40802 0.2506 0.0
H739 H 0.43236 0.45884 0.27685 0.0
H740 H 0.46459 0.48729 0.25084 0.0
H741 H 0.52463 0.54239 0.25817 0.0
H742 H 0.5545 0.57383 0.28371 0.0
H743 H 0.60341 0.56997 0.23168 0.0
H744 H 0.57346 0.53669 0.20876 0.0
H745 H 0.5106 0.50161 0.25387 0.0
H746 H 0.53042 0.55592 0.18002 0.0
H747 H 0.55468 0.58636 0.1488 0.0
H748 H 0.58667 0.54907 0.12395 0.0
H749 H 0.56088 0.51795 0.15367 0.0
C750 C 0.47522 0.45961 0.17389 0.0
C751 C 0.4803 0.44632 0.15668 0.0
C752 C 0.46356 0.42865 0.14103 0.0
C753 C 0.44139 0.42396 0.14224 0.0
C754 C 0.43627 0.43714 0.15979 0.0
C755 C 0.45308 0.45487 0.17545 0.0
C756 C 0.49337 0.47908 0.18913 0.0
C757 C 0.51092 0.49629 0.17378 0.0
C758 C 0.49302 0.48124 0.21827 0.0
C759 C 0.47435 0.46401 0.23534 0.0
C760 C 0.46927 0.4415 0.23549 0.0
C761 C 0.45098 0.42518 0.25066 0.0
C762 C 0.4373 0.43103 0.26589 0.0
C763 C 0.44265 0.45372 0.26582 0.0
C764 C 0.46106 0.47003 0.25086 0.0
C765 C 0.54665 0.53735 0.23105 0.0
C766 C 0.5418 0.54813 0.25247 0.0
C767 C 0.55902 0.56648 0.2668 0.0
C768 C 0.58159 0.57494 0.25958 0.0
C769 C 0.58637 0.56399 0.23815 0.0
C770 C 0.56914 0.54517 0.22446 0.0
C771 C 0.52823 0.51764 0.21607 0.0
C772 C 0.5106 0.50034 0.23142 0.0
C773 C 0.52798 0.51578 0.1868 0.0
C774 C 0.54391 0.53477 0.16912 0.0
C775 C 0.54272 0.55441 0.1678 0.0
C776 C 0.55685 0.57194 0.15007 0.0
C777 C 0.57291 0.57046 0.13364 0.0
C778 C 0.57431 0.55081 0.13564 0.0
C779 C 0.55971 0.53301 0.15283 0.0
H780 H 0.54153 0.02824 0.15003 0.0
H781 H 0.57369 0.03487 0.12238 0.0
H782 H 0.5659 0.97209 0.15136 0.0
H783 H 0.53299 0.96513 0.17833 0.0
H784 H 0.49899 0.99465 0.14559 0.0
H785 H 0.55827 0.01996 0.21286 0.0
H786 H 0.58679 0.01829 0.23952 0.0
H787 H 0.53566 0.95653 0.27779 0.0
H788 H 0.50745 0.95725 0.24894 0.0
H789 H 0.45161 0.95885 0.25162 0.0
H790 H 0.42268 0.95967 0.27949 0.0
H791 H 0.43246 0.01756 0.23339 0.0
H792 H 0.46269 0.01792 0.20768 0.0
H793 H 0.49328 0.98542 0.24761 0.0
H794 H 0.43395 0.95922 0.18304 0.0
H795 H 0.40446 0.95761 0.15454 0.0
H796 H 0.45357 0.01766 0.11152 0.0
H797 H 0.48282 0.02005 0.14149 0.0
C798 C 0.5349 0.99625 0.16634 0.0
C799 C 0.54671 0.01587 0.15042 0.0
C800 C 0.56529 0.01976 0.13486 0.0
C801 C 0.57255 0.00412 0.13485 0.0
C802 C 0.56069 0.98442 0.15082 0.0
C803 C 0.54198 0.98049 0.16638 0.0
C804 C 0.51503 0.99247 0.1824 0.0
C805 C 0.49778 0.99284 0.16796 0.0
C806 C 0.51312 0.98907 0.21145 0.0
C807 C 0.53067 0.98846 0.22828 0.0
C808 C 0.55321 0.00575 0.22648 0.0
C809 C 0.56954 0.00498 0.24229 0.0
C810 C 0.5637 0.9873 0.26113 0.0
C811 C 0.54101 0.97021 0.26325 0.0
C812 C 0.52474 0.97074 0.24694 0.0
C813 C 0.4592 0.98813 0.22722 0.0
C814 C 0.44765 0.97186 0.24773 0.0
C815 C 0.43086 0.97218 0.26345 0.0
C816 C 0.42505 0.98865 0.25878 0.0
C817 C 0.43663 0.00484 0.23808 0.0
C818 C 0.45373 0.00482 0.22288 0.0
C819 C 0.47738 0.98811 0.21088 0.0
C820 C 0.49429 0.98698 0.22522 0.0
C821 C 0.47885 0.99049 0.18164 0.0
C822 C 0.4607 0.98984 0.16464 0.0
C823 C 0.43836 0.97234 0.16788 0.0
C824 C 0.42149 0.97128 0.15125 0.0
C825 C 0.42656 0.9874 0.13044 0.0
C826 C 0.44891 0.0051 0.12749 0.0
C827 C 0.46575 0.00632 0.14441 0.0
H828 H 0.49001 0.0383 0.88237 0.0
H829 H 0.45728 0.03094 0.90966 0.0
H830 H 0.41509 0.9744 0.85563 0.0
H831 H 0.44797 0.9812 0.82929 0.0
H832 H 0.50757 0.013 0.8768 0.0
H833 H 0.48122 0.04634 0.81194 0.0
H834 H 0.45312 0.04827 0.78367 0.0
H835 H 0.44025 0.98795 0.73918 0.0
H836 H 0.4683 0.98608 0.76744 0.0
H837 H 0.5261 0.98241 0.77657 0.0
H838 H 0.55692 0.98278 0.75135 0.0
H839 H 0.60349 0.04753 0.78861 0.0
H840 H 0.57252 0.04706 0.81385 0.0
H841 H 0.51266 0.01499 0.77412 0.0
H842 H 0.54075 0.9832 0.8424 0.0
H843 H 0.57012 0.98426 0.87143 0.0
H844 H 0.58175 0.04651 0.90945 0.0
H845 H 0.5527 0.04547 0.88034 0.0
C846 C 0.4715 0.01043 0.85364 0.0
C847 C 0.47368 0.02442 0.8763 0.0
C848 C 0.4549 0.0203 0.89173 0.0
C849 C 0.43351 0.00205 0.88487 0.0
C850 C 0.43131 0.98845 0.86169 0.0
C851 C 0.4501 0.9925 0.84637 0.0
C852 C 0.49165 0.01348 0.83881 0.0
C853 C 0.50883 0.01382 0.85436 0.0
C854 C 0.49329 0.01438 0.80951 0.0
C855 C 0.4767 0.01593 0.79198 0.0
C856 C 0.47236 0.03356 0.79606 0.0
C857 C 0.45647 0.03477 0.77976 0.0
C858 C 0.44449 0.01825 0.75926 0.0
C859 C 0.44912 0.00083 0.75496 0.0
C860 C 0.46518 0.99978 0.77101 0.0
C861 C 0.54709 0.01462 0.79717 0.0
C862 C 0.54295 0.99667 0.7793 0.0
C863 C 0.56056 0.99685 0.76503 0.0
C864 C 0.58258 0.01517 0.76809 0.0
C865 C 0.58666 0.03328 0.78577 0.0
C866 C 0.56904 0.03296 0.8003 0.0
C867 C 0.52828 0.01424 0.81213 0.0
C868 C 0.51139 0.01436 0.79657 0.0
C869 C 0.52714 0.01419 0.84142 0.0
C870 C 0.54468 0.0144 0.85901 0.0
C871 C 0.54974 0.99712 0.85691 0.0
C872 C 0.5664 0.99765 0.87362 0.0
C873 C 0.57839 0.01556 0.89256 0.0
C874 C 0.57308 0.03266 0.89475 0.0
C875 C 0.55637 0.03203 0.87826 0.0
H876 H 0.03291 0.56755 0.8277 0.0
H877 H 0.03421 0.59824 0.85498 0.0
H878 H 0.9783 0.54934 0.90404 0.0
H879 H 0.97627 0.51879 0.87559 0.0
H880 H 0.00538 0.50616 0.8719 0.0
H881 H 0.03311 0.54936 0.76543 0.0
H882 H 0.0297 0.57725 0.73831 0.0
H883 H 0.96657 0.55713 0.77826 0.0
H884 H 0.97004 0.52918 0.80534 0.0
H885 H 0.98124 0.4626 0.76359 0.0
H886 H 0.98123 0.43205 0.7383 0.0
H887 H 0.03423 0.43842 0.79101 0.0
H888 H 0.03576 0.47083 0.81439 0.0
H889 H 0.00697 0.50358 0.76916 0.0
H890 H 0.97703 0.44218 0.83281 0.0
H891 H 0.97476 0.41261 0.86225 0.0
H892 H 0.03078 0.46312 0.91037 0.0
H893 H 0.03378 0.49252 0.87968 0.0
C894 C 0.00441 0.54085 0.84948 0.0
C895 C 0.02055 0.56346 0.84384 0.0
C896 C 0.02143 0.58099 0.85968 0.0
C897 C 0.00645 0.57626 0.88183 0.0
C898 C 0.9899 0.55363 0.88692 0.0
C899 C 0.98889 0.53611 0.87089 0.0
C900 C 0.00459 0.52215 0.83417 0.0
C901 C 0.00564 0.50548 0.84942 0.0
C902 C 0.00461 0.52116 0.80487 0.0
C903 C 1.00196 0.53736 0.78762 0.0
C904 C 0.01846 0.55083 0.7682 0.0
C905 C 0.01653 0.56681 0.75281 0.0
C906 C 0.9979 0.56942 0.75624 0.0
C907 C 0.98103 0.5554 0.77504 0.0
C908 C 0.98309 0.53957 0.79067 0.0
C909 C 0.00825 0.46888 0.79126 0.0
C910 C 0.99316 0.45773 0.76946 0.0
C911 C 0.9929 0.43988 0.75529 0.0
C912 C 0.00731 0.43222 0.76302 0.0
C913 C 0.02287 0.44378 0.78441 0.0
C914 C 0.02355 0.46215 0.79811 0.0
C915 C 0.00749 0.48722 0.80682 0.0
C916 C 0.00658 0.50404 0.79164 0.0
C917 C 0.0067 0.48777 0.83622 0.0
C918 C 0.00572 0.46962 0.85377 0.0
C919 C 0.98912 0.44688 0.84934 0.0
C920 C 0.98769 0.42997 0.86647 0.0
C921 C 1.0025 0.43541 0.88892 0.0
C922 C 0.01928 0.4582 0.89313 0.0
C923 C 0.02085 0.47509 0.87576 0.0
H924 H 0.45014 0.49043 0.87798 0.0
H925 H 0.42624 0.45981 0.90963 0.0
H926 H 0.4405 0.41454 0.86322 0.0
H927 H 0.46541 0.44542 0.83307 0.0
H928 H 0.49306 0.50993 0.87146 0.0
H929 H 0.43205 0.47381 0.80679 0.0
H930 H 0.40186 0.44156 0.78174 0.0
H931 H 0.44991 0.42574 0.74762 0.0
H932 H 0.47995 0.45847 0.77179 0.0
H933 H 0.54069 0.5179 0.77313 0.0
H934 H 0.57325 0.54643 0.74766 0.0
H935 H 0.55764 0.59719 0.77326 0.0
H936 H 0.52554 0.56858 0.79952 0.0
H937 H 0.49481 0.5035 0.769 0.0
H938 H 0.55551 0.53993 0.83525 0.0
H939 H 0.58479 0.57093 0.8629 0.0
H940 H 0.53557 0.58496 0.89717 0.0
H941 H 0.50671 0.55469 0.86865 0.0
C942 C 0.45945 0.47026 0.85291 0.0
C943 C 0.44799 0.47385 0.87456 0.0
C944 C 0.43415 0.45626 0.8925 0.0
C945 C 0.43152 0.43469 0.88911 0.0
C946 C 0.44239 0.43099 0.86677 0.0
C947 C 0.4564 0.4486 0.84914 0.0
C948 C 0.47602 0.4894 0.83563 0.0
C949 C 0.49308 0.50874 0.849 0.0
C950 C 0.47642 0.4878 0.80638 0.0
C951 C 0.45818 0.46851 0.79101 0.0
C952 C 0.436 0.46338 0.79379 0.0
C953 C 0.41876 0.44485 0.77963 0.0
C954 C 0.42343 0.43105 0.76259 0.0
C955 C 0.44573 0.43625 0.76007 0.0
C956 C 0.46295 0.45491 0.77393 0.0
C957 C 0.53077 0.54114 0.78826 0.0
C958 C 0.54424 0.53516 0.77309 0.0
C959 C 0.56283 0.55152 0.75845 0.0
C960 C 0.56817 0.5742 0.75835 0.0
C961 C 0.55434 0.58002 0.77325 0.0
C962 C 0.53586 0.56366 0.78811 0.0
C963 C 0.51184 0.52387 0.80493 0.0
C964 C 0.49444 0.50488 0.79141 0.0
C965 C 0.51099 0.52592 0.83404 0.0
C966 C 0.52901 0.54522 0.8497 0.0
C967 C 0.55117 0.55002 0.84831 0.0
C968 C 0.56783 0.56758 0.86431 0.0
C969 C 0.56253 0.58046 0.88215 0.0
C970 C 0.54032 0.57567 0.88325 0.0
C971 C 0.52375 0.55823 0.86719 0.0
H972 H 0.64171 0.84765 0.47676 0.0
H973 H 0.64494 0.8768 0.44545 0.0
H974 H 0.70141 0.92753 0.49276 0.0
H975 H 0.69879 0.89817 0.52301 0.0
H976 H 0.66983 0.83377 0.48487 0.0
H977 H 0.63987 0.86982 0.54142 0.0
H978 H 0.6409 0.90191 0.56505 0.0
H979 H 0.6935 0.9082 0.61847 0.0
H980 H 0.69403 0.87804 0.59297 0.0
H981 H 0.70478 0.81077 0.55183 0.0
H982 H 0.70783 0.78255 0.57884 0.0
H983 H 0.64489 0.76315 0.61884 0.0
H984 H 0.64191 0.79134 0.59179 0.0
H985 H 0.66835 0.83716 0.58757 0.0
H986 H 0.69842 0.82034 0.48157 0.0
H987 H 0.69565 0.78921 0.45364 0.0
H988 H 0.63937 0.74153 0.50322 0.0
H989 H 0.64142 0.77281 0.52995 0.0
C990 C 0.66992 0.87066 0.5024 0.0
C991 C 0.65477 0.86507 0.4804 0.0
C992 C 0.6565 0.88183 0.46266 0.0
C993 C 0.67347 0.9046 0.46646 0.0
C994 C 0.68833 0.91017 0.48888 0.0
C995 C 0.6867 0.89339 0.50646 0.0
C996 C 0.6688 0.85259 0.52025 0.0
C997 C 0.66962 0.83465 0.50734 0.0
C998 C 0.66801 0.85336 0.54964 0.0
C999 C 0.66723 0.87179 0.56493 0.0
C1000 C 0.65193 0.87846 0.55786 0.0
C1001 C 0.6523 0.89662 0.57171 0.0
C1002 C 0.66756 0.90803 0.59344 0.0
C1003 C 0.68206 0.90049 0.60124 0.0
C1004 C 0.68211 0.88286 0.58694 0.0
C1005 C 0.673 0.803 0.56959 0.0
C1006 C 0.6917 0.8005 0.56652 0.0
C1007 C 0.69352 0.78451 0.5821 0.0
C1008 C 0.67657 0.7706 0.60088 0.0
C1009 C 0.65812 0.77351 0.60436 0.0
C1010 C 0.65644 0.78966 0.58902 0.0
C1011 C 0.67051 0.81921 0.55213 0.0
C1012 C 0.66876 0.83655 0.5651 0.0
C1013 C 0.67043 0.81797 0.52286 0.0
C1014 C 0.67016 0.79893 0.50787 0.0
C1015 C 0.68557 0.80316 0.48649 0.0
C1016 C 0.68413 0.78531 0.47077 0.0
C1017 C 0.66726 0.76286 0.47617 0.0
C1018 C 0.65239 0.75863 0.4983 0.0
C1019 C 0.6537 0.7765 0.51382 0.0
H1020 H 0.1647 0.78654 0.48796 0.0
H1021 H 0.13585 0.75519 0.46061 0.0
H1022 H 0.08611 0.76875 0.49412 0.0
H1023 H 0.11532 0.80069 0.52079 0.0
H1024 H 0.17751 0.83152 0.48439 0.0
H1025 H 0.14685 0.77291 0.55648 0.0
H1026 H 0.11523 0.7438 0.58289 0.0
H1027 H 0.098 0.79332 0.60877 0.0
H1028 H 0.1301 0.82237 0.58314 0.0
H1029 H 0.19185 0.8828 0.58497 0.0
H1030 H 0.22229 0.91473 0.6098 0.0
H1031 H 0.26941 0.89839 0.57377 0.0
H1032 H 0.23883 0.86696 0.54814 0.0
H1033 H 0.17661 0.83758 0.58698 0.0
H1034 H 0.20561 0.89609 0.52313 0.0
H1035 H 0.23091 0.92714 0.49333 0.0
H1036 H 0.2447 0.88173 0.44645 0.0
H1037 H 0.22038 0.85096 0.47761 0.0
C1038 C 0.1421 0.79579 0.50651 0.0
C1039 C 0.14756 0.78269 0.48948 0.0
C1040 C 0.13101 0.76464 0.4741 0.0
C1041 C 0.10865 0.75937 0.4754 0.0
C1042 C 0.10319 0.77245 0.49263 0.0
C1043 C 0.11981 0.79057 0.50802 0.0
C1044 C 0.15999 0.81535 0.52194 0.0
C1045 C 0.17764 0.83269 0.50686 0.0
C1046 C 0.15938 0.8173 0.55109 0.0
C1047 C 0.14077 0.79976 0.56787 0.0
C1048 C 0.13628 0.77745 0.568 0.0
C1049 C 0.11808 0.7608 0.58294 0.0
C1050 C 0.10393 0.76613 0.59795 0.0
C1051 C 0.10868 0.78861 0.59789 0.0
C1052 C 0.127 0.80527 0.58316 0.0
C1053 C 0.21312 0.87258 0.56479 0.0
C1054 C 0.20874 0.88611 0.5825 0.0
C1055 C 0.22618 0.9043 0.59674 0.0
C1056 C 0.24833 0.90907 0.59395 0.0
C1057 C 0.25264 0.89541 0.57613 0.0
C1058 C 0.23518 0.87736 0.56162 0.0
C1059 C 0.19462 0.8535 0.54946 0.0
C1060 C 0.17678 0.83632 0.56453 0.0
C1061 C 0.19475 0.85203 0.52018 0.0
C1062 C 0.21128 0.87119 0.50293 0.0
C1063 C 0.21455 0.89291 0.50695 0.0
C1064 C 0.22879 0.91062 0.48956 0.0
C1065 C 0.23975 0.90695 0.46729 0.0
C1066 C 0.23677 0.88527 0.46357 0.0
C1067 C 0.22268 0.86758 0.48122 0.0
H1068 H 0.11982 0.29297 0.47915 0.0
H1069 H 0.09063 0.29201 0.45037 0.0
H1070 H 0.10354 0.35502 0.48735 0.0
H1071 H 0.13298 0.35596 0.51618 0.0
H1072 H 0.16531 0.32544 0.48187 0.0
H1073 H 0.10084 0.29163 0.54517 0.0
H1074 H 0.06983 0.29108 0.57039 0.0
H1075 H 0.11625 0.35597 0.60745 0.0
H1076 H 0.14713 0.35641 0.58224 0.0
H1077 H 0.20572 0.35292 0.59032 0.0
H1078 H 0.23369 0.35082 0.61849 0.0
H1079 H 0.21909 0.28939 0.57542 0.0
H1080 H 0.19114 0.29162 0.54714 0.0
H1081 H 0.1608 0.32385 0.5846 0.0
H1082 H 0.22526 0.35696 0.52862 0.0
H1083 H 0.25777 0.36332 0.50174 0.0
H1084 H 0.2147 0.30651 0.44855 0.0
H1085 H 0.18235 0.29962 0.47634 0.0
C1086 C 0.12846 0.32441 0.49997 0.0
C1087 C 0.1164 0.3066 0.48108 0.0
C1088 C 0.09962 0.30601 0.46478 0.0
C1089 C 0.09464 0.32335 0.46678 0.0
C1090 C 0.10701 0.34145 0.48535 0.0
C1091 C 0.12372 0.34192 0.50191 0.0
C1092 C 0.14603 0.32455 0.51741 0.0
C1093 C 0.1642 0.32472 0.50432 0.0
C1094 C 0.14502 0.32456 0.5467 0.0
C1095 C 0.12621 0.32414 0.56175 0.0
C1096 C 0.10428 0.30574 0.55869 0.0
C1097 C 0.08664 0.30538 0.5732 0.0
C1098 C 0.09066 0.32351 0.59081 0.0
C1099 C 0.11266 0.34188 0.59382 0.0
C1100 C 0.1303 0.34211 0.57956 0.0
C1101 C 0.19651 0.32256 0.56646 0.0
C1102 C 0.20846 0.33895 0.58703 0.0
C1103 C 0.22446 0.33776 0.60304 0.0
C1104 C 0.22856 0.31994 0.59912 0.0
C1105 C 0.21615 0.3032 0.57902 0.0
C1106 C 0.20035 0.30457 0.56272 0.0
C1107 C 0.17991 0.3242 0.54905 0.0
C1108 C 0.16194 0.32441 0.56214 0.0
C1109 C 0.18138 0.32495 0.51974 0.0
C1110 C 0.20132 0.32766 0.50471 0.0
C1111 C 0.22286 0.3455 0.51162 0.0
C1112 C 0.24143 0.3493 0.49598 0.0
C1113 C 0.23888 0.3355 0.47287 0.0
C1114 C 0.21735 0.3173 0.46641 0.0
C1115 C 0.19879 0.31345 0.48214 0.0
C1116 C 0.01143 0.39785 0.08579 0.0
C1117 C 0.99072 0.37804 0.08075 0.0
H1118 H 0.02919 0.42904 0.10854 0.0
C1119 C 0.97239 0.37331 0.0978 0.0
H1120 H 0.0259 0.40198 0.07306 0.0
C1121 C 0.97434 0.38869 0.11829 0.0
C1122 C 0.99463 0.40921 0.12208 0.0
H1123 H 0.95627 0.35803 0.09477 0.0
H1124 H 0.95976 0.3848 0.13063 0.0
C1125 C 0.01335 0.41333 0.10622 0.0
C1126 C 0.60514 0.62829 0.09945 0.0
C1127 C 0.61176 0.62308 0.07426 0.0
H1128 H 0.58896 0.61631 0.13852 0.0
C1129 C 0.6068 0.60086 0.06932 0.0
H1130 H 0.60897 0.64538 0.10387 0.0
C1131 C 0.5945 0.5839 0.08865 0.0
C1132 C 0.58738 0.58887 0.1138 0.0
H1133 H 0.61152 0.59635 0.04991 0.0
H1134 H 0.58996 0.56677 0.08327 0.0
C1135 C 0.59342 0.61149 0.11917 0.0
C1136 C 0.39285 0.0009 0.08019 0.0
C1137 C 0.37662 0.97915 0.07076 0.0
H1138 H 0.42109 0.02065 0.10678 0.0
C1139 C 0.37644 0.96034 0.08211 0.0
H1140 H 0.39349 0.01577 0.07198 0.0
C1141 C 0.39234 0.96312 0.10163 0.0
C1142 C 0.40888 0.9848 0.11076 0.0
H1143 H 0.3643 0.94327 0.07544 0.0
H1144 H 0.39203 0.94815 0.10887 0.0
C1145 C 0.40879 0.00369 0.1 0.0
C1146 C 0.39377 0.00791 0.93405 0.0
C1147 C 0.37876 0.98525 0.94121 0.0
H1148 H 0.42257 0.031 0.91036 0.0
C1149 C 0.38104 0.96816 0.92815 0.0
H1150 H 0.39248 0.02153 0.94355 0.0
C1151 C 0.39838 0.97362 0.90932 0.0
C1152 C 0.41389 0.99631 0.90293 0.0
H1153 H 0.36985 0.95052 0.9331 0.0
H1154 H 0.40012 0.96003 0.90061 0.0
C1155 C 0.41113 0.01337 0.91514 0.0
C1156 C 0.97451 0.38418 0.93566 0.0
C1157 C 0.99279 0.38462 0.94858 0.0
H1158 H 0.96318 0.3998 0.90761 0.0
C1159 C 0.01455 0.40156 0.94095 0.0
H1160 H 0.95746 0.37149 0.94091 0.0
C1161 C 0.01785 0.41787 0.92127 0.0
C1162 C 0.99946 0.41758 0.90881 0.0
H1163 H 0.02903 0.40243 0.95041 0.0
H1164 H 0.0348 0.43069 0.91586 0.0
C1165 C 0.97779 0.40041 0.91623 0.0
C1166 C 0.60894 0.60922 0.9353 0.0
C1167 C 0.60796 0.62861 0.94197 0.0
H1168 H 0.59507 0.57858 0.91141 0.0
C1169 C 0.59365 0.6332 0.92672 0.0
H1170 H 0.61979 0.60522 0.94667 0.0
C1171 C 0.57973 0.61811 0.9063 0.0
C1172 C 0.57964 0.59799 0.90083 0.0
H1173 H 0.59277 0.64819 0.93104 0.0
H1174 H 0.5686 0.62194 0.89528 0.0
C1175 C 0.59483 0.594 0.91499 0.0
C1176 C 0.99375 0.61015 0.9337 0.0
C1177 C 0.01536 0.62639 0.94283 0.0
H1178 H 0.97393 0.58181 0.90681 0.0
C1179 C 0.03392 0.6272 0.92989 0.0
H1180 H 0.97908 0.60914 0.94305 0.0
C1181 C 0.03095 0.61145 0.9094 0.0
C1182 C 0.00936 0.59456 0.90113 0.0
H1183 H 0.05084 0.63948 0.93627 0.0
H1184 H 0.04565 0.61194 0.90098 0.0
C1185 C 0.99078 0.5944 0.91304 0.0
C1186 C 0.38798 0.39694 0.9425 0.0
C1187 C 0.39629 0.38311 0.95069 0.0
H1188 H 0.39228 0.4238 0.91628 0.0
C1189 C 0.41584 0.38608 0.93795 0.0
H1190 H 0.37294 0.39508 0.95181 0.0
C1191 C 0.427 0.40261 0.91793 0.0
C1192 C 0.41886 0.41658 0.9098 0.0
H1193 H 0.42288 0.37589 0.94378 0.0
H1194 H 0.44238 0.40478 0.90933 0.0
C1195 C 0.39914 0.41348 0.92224 0.0
C1196 C 0.63273 0.03961 0.93233 0.0
C1197 C 0.62926 0.02106 0.9482 0.0
H1198 H 0.61964 0.05228 0.90226 0.0
C1199 C 0.60971 0.99994 0.94357 0.0
H1200 H 0.6477 0.05608 0.93495 0.0
C1201 C 0.59347 0.99781 0.92465 0.0
C1202 C 0.59648 0.01677 0.91011 0.0
H1203 H 0.60649 0.98531 0.95541 0.0
H1204 H 0.57814 0.98159 0.92236 0.0
C1205 C 0.61658 0.03749 0.91361 0.0
C1206 C 0.60838 0.9948 0.08292 0.0
C1207 C 0.62637 0.01701 0.079 0.0
H1208 H 0.57717 0.97333 0.10333 0.0
C1209 C 0.62747 0.03454 0.09547 0.0
H1210 H 0.60698 0.98086 0.07062 0.0
C1211 C 0.6105 0.03016 0.11444 0.0
C1212 C 0.5919 0.00817 0.11728 0.0
H1213 H 0.64121 0.05181 0.09329 0.0
H1214 H 0.61175 0.04413 0.12651 0.0
C1215 C 0.59131 0.99044 0.1018 0.0
C1216 C 0.03148 0.61939 0.08564 0.0
C1217 C 0.01334 0.62007 0.07407 0.0
H1218 H 0.04249 0.60295 0.11276 0.0
C1219 C 0.99157 0.60417 0.08299 0.0
H1220 H 0.04852 0.63117 0.07928 0.0
C1221 C 0.98811 0.58792 0.10284 0.0
C1222 C 0.00635 0.58722 0.11413 0.0
H1223 H 0.97721 0.60418 0.07456 0.0
H1224 H 0.97117 0.57597 0.1094 0.0
C1225 C 0.02803 0.6032 0.10518 0.0
C1226 C 0.40991 0.37064 0.09885 0.0
C1227 C 0.39602 0.37535 0.08285 0.0
H1228 H 0.43468 0.38204 0.13068 0.0
C1229 C 0.39525 0.39496 0.08885 0.0
H1230 H 0.41062 0.3555 0.09508 0.0
C1231 C 0.40926 0.41031 0.10913 0.0
C1232 C 0.42415 0.40624 0.12389 0.0
H1233 H 0.38471 0.39905 0.07693 0.0
H1234 H 0.40924 0.4259 0.11218 0.0
C1235 C 0.42376 0.38589 0.11919 0.0
C1236 C 0.63882 0.71172 0.42861 0.0
C1237 C 0.65715 0.712 0.41576 0.0
H1238 H 0.62766 0.72765 0.45728 0.0
C1239 C 0.67889 0.72788 0.42488 0.0
H1240 H 0.62182 0.69972 0.42223 0.0
C1241 C 0.68222 0.74385 0.44539 0.0
C1242 C 0.6639 0.74426 0.45716 0.0
H1243 H 0.69338 0.72846 0.4156 0.0
H1244 H 0.69917 0.75618 0.4516 0.0
C1245 C 0.64216 0.72769 0.44896 0.0
C1246 C 0.28447 0.9445 0.41508 0.0
C1247 C 0.27683 0.95885 0.40668 0.0
H1248 H 0.2791 0.9172 0.44115 0.0
C1249 C 0.25743 0.95648 0.41914 0.0
H1250 H 0.29941 0.94592 0.40603 0.0
C1251 C 0.24567 0.93989 0.43896 0.0
C1252 C 0.25307 0.92529 0.44711 0.0
H1253 H 0.25093 0.96711 0.41314 0.0
H1254 H 0.23039 0.93812 0.44731 0.0
C1255 C 0.27275 0.92794 0.43511 0.0
C1256 C 0.03997 0.29934 0.4279 0.0
C1257 C 0.04375 0.31752 0.41106 0.0
H1258 H 0.05288 0.28707 0.45874 0.0
C1259 C 0.06355 0.33857 0.41496 0.0
H1260 H 0.02479 0.28296 0.42585 0.0
C1261 C 0.07978 0.34088 0.43402 0.0
C1262 C 0.0765 0.32219 0.4494 0.0
H1263 H 0.06701 0.35291 0.40236 0.0
H1264 H 0.09534 0.35696 0.43569 0.0
C1265 C 0.05612 0.30164 0.44673 0.0
C1266 C 0.05093 0.30376 0.26737 0.0
C1267 C 0.04848 0.32095 0.27979 0.0
H1268 H 0.06968 0.29539 0.23959 0.0
C1269 C 0.06289 0.34345 0.27152 0.0
H1270 H 0.04019 0.28624 0.2732 0.0
C1271 C 0.07977 0.34868 0.25198 0.0
C1272 C 0.08263 0.33154 0.24024 0.0
H1273 H 0.06142 0.35713 0.28049 0.0
H1274 H 0.09072 0.36618 0.24624 0.0
C1275 C 0.06779 0.30899 0.2479 0.0
C1276 C 0.6409 0.71878 0.27278 0.0
C1277 C 0.65884 0.71783 0.28446 0.0
H1278 H 0.63032 0.73541 0.24531 0.0
C1279 C 0.68071 0.73339 0.27547 0.0
H1280 H 0.62381 0.70726 0.27919 0.0
C1281 C 0.68444 0.7496 0.25543 0.0
C1282 C 0.6664 0.75056 0.24401 0.0
H1283 H 0.69492 0.73316 0.28399 0.0
H1284 H 0.70144 0.76129 0.24882 0.0
C1285 C 0.64462 0.73492 0.25303 0.0
C1286 C 0.28245 0.94596 0.26554 0.0
C1287 C 0.27683 0.96165 0.27564 0.0
H1288 H 0.27363 0.91771 0.23844 0.0
C1289 C 0.25811 0.96139 0.26446 0.0
H1290 H 0.29683 0.94577 0.27355 0.0
C1291 C 0.24475 0.94522 0.24466 0.0
C1292 C 0.24981 0.92896 0.23531 0.0
H1293 H 0.25323 0.97319 0.27167 0.0
H1294 H 0.22988 0.94492 0.23759 0.0
C1295 C 0.26908 0.92979 0.24554 0.0
C1296 C 0.66201 0.94045 0.2693 0.0
C1297 C 0.6827 0.9604 0.27395 0.0
H1298 H 0.64424 0.90894 0.24717 0.0
C1299 C 0.70092 0.96503 0.25671 0.0
H1300 H 0.64764 0.93638 0.28219 0.0
C1301 C 0.6989 0.94942 0.23652 0.0
C1302 C 0.67868 0.92876 0.23318 0.0
H1303 H 0.71701 0.9804 0.25942 0.0
H1304 H 0.71342 0.95324 0.22407 0.0
C1305 C 0.66004 0.92475 0.24915 0.0
C1306 C 0.05697 0.72767 0.27806 0.0
C1307 C 0.06385 0.71249 0.28544 0.0
H1308 H 0.063 0.75563 0.25281 0.0
C1309 C 0.08242 0.71389 0.27171 0.0
H1310 H 0.04269 0.72704 0.28806 0.0
C1311 C 0.09416 0.73038 0.25174 0.0
C1312 C 0.08762 0.7459 0.24477 0.0
H1313 H 0.08829 0.70255 0.27681 0.0
H1314 H 0.10882 0.73138 0.2424 0.0
C1315 C 0.0687 0.74417 0.25794 0.0
C1316 C 0.27629 0.33558 0.27989 0.0
C1317 C 0.29569 0.35674 0.28492 0.0
H1318 H 0.24512 0.31716 0.25789 0.0
C1319 C 0.29926 0.37534 0.2691 0.0
H1320 H 0.273 0.3209 0.29167 0.0
C1321 C 0.28339 0.37319 0.24989 0.0
C1322 C 0.26346 0.35239 0.24587 0.0
H1323 H 0.31413 0.39185 0.27201 0.0
H1324 H 0.28657 0.38801 0.2385 0.0
C1325 C 0.26033 0.33343 0.26052 0.0
C1326 C 0.29089 0.36872 0.42859 0.0
C1327 C 0.29291 0.35143 0.41565 0.0
H1328 H 0.27225 0.37727 0.45634 0.0
C1329 C 0.27787 0.32887 0.42317 0.0
H1330 H 0.30212 0.38629 0.42336 0.0
C1331 C 0.26074 0.3237 0.44234 0.0
C1332 C 0.25825 0.34095 0.45447 0.0
H1333 H 0.27895 0.3151 0.41378 0.0
H1334 H 0.24927 0.30614 0.44741 0.0
C1335 C 0.27379 0.36355 0.4477 0.0
C1336 C 0.70128 0.95526 0.41868 0.0
C1337 C 0.6829 0.95484 0.40608 0.0
H1338 H 0.71277 0.93978 0.44682 0.0
C1339 C 0.6612 0.93809 0.4142 0.0
H1340 H 0.71828 0.9678 0.41302 0.0
C1341 C 0.65804 0.92198 0.43408 0.0
C1342 C 0.67649 0.92224 0.44629 0.0
H1343 H 0.64665 0.93725 0.40503 0.0
H1344 H 0.64112 0.90933 0.43989 0.0
C1345 C 0.69813 0.9392 0.43837 0.0
C1346 C 0.06205 0.7282 0.42305 0.0
C1347 C 0.06331 0.70878 0.41776 0.0
H1348 H 0.07564 0.75963 0.44527 0.0
C1349 C 0.07778 0.70497 0.43385 0.0
H1350 H 0.05105 0.73162 0.41105 0.0
C1351 C 0.09167 0.72089 0.45359 0.0
C1352 C 0.09152 0.74103 0.45759 0.0
H1353 H 0.0789 0.69 0.43061 0.0
H1354 H 0.10302 0.71771 0.46519 0.0
C1355 C 0.07608 0.74422 0.44275 0.0
C1356 C 0.34654 0.06215 0.75803 0.0
C1357 C 0.32485 0.04608 0.74896 0.0
H1358 H 0.36661 0.09036 0.78499 0.0
C1359 C 0.30642 0.04549 0.76195 0.0
H1360 H 0.36111 0.06298 0.74863 0.0
C1361 C 0.30958 0.06126 0.78248 0.0
C1362 C 0.33125 0.07795 0.79076 0.0
H1363 H 0.28945 0.03336 0.75559 0.0
H1364 H 0.29498 0.06094 0.79094 0.0
C1365 C 0.3497 0.07792 0.77876 0.0
C1366 C 0.95106 0.27441 0.74927 0.0
C1367 C 0.94302 0.28863 0.74181 0.0
H1368 H 0.94649 0.24702 0.77462 0.0
C1369 C 0.92381 0.28596 0.7552 0.0
H1370 H 0.96586 0.27605 0.73948 0.0
C1371 C 0.91261 0.26923 0.775 0.0
C1372 C 0.92038 0.25476 0.78224 0.0
H1373 H 0.91701 0.29648 0.74998 0.0
H1374 H 0.89745 0.26725 0.78406 0.0
C1375 C 0.93987 0.25768 0.76931 0.0
C1376 C 0.70709 0.6306 0.7559 0.0
C1377 C 0.71048 0.6491 0.74001 0.0
H1378 H 0.72016 0.61813 0.78627 0.0
C1379 C 0.7299 0.67031 0.74474 0.0
H1380 H 0.69221 0.61407 0.75322 0.0
C1381 C 0.74607 0.67259 0.76386 0.0
C1382 C 0.74313 0.65371 0.77853 0.0
H1383 H 0.73305 0.68491 0.7329 0.0
H1384 H 0.7613 0.68889 0.76627 0.0
C1385 C 0.72318 0.63288 0.77484 0.0
C1386 C 0.715 0.63612 0.59715 0.0
C1387 C 0.71295 0.65353 0.60966 0.0
H1388 H 0.73372 0.62729 0.56994 0.0
C1389 C 0.72801 0.67602 0.60188 0.0
H1390 H 0.70376 0.6186 0.60258 0.0
C1391 C 0.7452 0.681 0.58287 0.0
C1392 C 0.74772 0.66362 0.57118 0.0
H1393 H 0.7269 0.68987 0.61096 0.0
H1394 H 0.75668 0.69851 0.57758 0.0
C1395 C 0.73216 0.64111 0.57822 0.0
C1396 C 0.30561 0.0493 0.60416 0.0
C1397 C 0.32407 0.05003 0.61696 0.0
H1398 H 0.29388 0.06445 0.57594 0.0
C1399 C 0.34572 0.06702 0.609 0.0
H1400 H 0.28863 0.03658 0.60969 0.0
C1401 C 0.34874 0.08306 0.58909 0.0
C1402 C 0.33018 0.08246 0.57671 0.0
H1403 H 0.36033 0.06811 0.61836 0.0
H1404 H 0.36561 0.09592 0.58341 0.0
C1405 C 0.30861 0.06527 0.58449 0.0
C1406 C 0.92276 0.29455 0.599 0.0
C1407 C 0.94114 0.29425 0.61033 0.0
H1408 H 0.89498 0.27905 0.5713 0.0
C1409 C 0.94669 0.27864 0.59973 0.0
H1410 H 0.91798 0.30635 0.60655 0.0
C1411 C 0.93352 0.26304 0.57913 0.0
C1412 C 0.91455 0.26274 0.56874 0.0
H1413 H 0.96083 0.27804 0.60782 0.0
H1414 H 0.93796 0.25095 0.57169 0.0
C1415 C 0.90961 0.27897 0.57854 0.0
C1416 C 0.3253 0.27493 0.60196 0.0
C1417 C 0.34707 0.29064 0.61115 0.0
H1418 H 0.3049 0.24696 0.57486 0.0
C1419 C 0.36533 0.29085 0.5982 0.0
H1420 H 0.31085 0.2744 0.61131 0.0
C1421 C 0.3619 0.27506 0.57755 0.0
C1422 C 0.34012 0.25873 0.56918 0.0
H1423 H 0.38235 0.30272 0.60465 0.0
H1424 H 0.37633 0.27507 0.56906 0.0
C1425 C 0.32187 0.25913 0.58117 0.0
C1426 C 0.72264 0.06389 0.60988 0.0
C1427 C 0.73047 0.04953 0.61755 0.0
H1428 H 0.72728 0.09099 0.58388 0.0
C1429 C 0.74936 0.05166 0.6039 0.0
H1430 H 0.70809 0.06267 0.61987 0.0
C1431 C 0.76041 0.06794 0.58357 0.0
C1432 C 0.75283 0.0825 0.57607 0.0
H1433 H 0.75599 0.041 0.60924 0.0
H1434 H 0.77533 0.06948 0.57427 0.0
C1435 C 0.7337 0.08019 0.58934 0.0
C1436 C 0.96603 0.70776 0.59975 0.0
C1437 C 0.96255 0.68935 0.61591 0.0
H1438 H 0.95309 0.7201 0.56905 0.0
C1439 C 0.94313 0.66813 0.61124 0.0
H1440 H 0.98092 0.7243 0.60238 0.0
C1441 C 0.92703 0.66577 0.59195 0.0
C1442 C 0.93005 0.68458 0.57705 0.0
H1443 H 0.93991 0.6536 0.62328 0.0
H1444 H 0.91178 0.64948 0.58962 0.0
C1445 C 0.95002 0.70541 0.58065 0.0
C1446 C 0.94495 0.6623 0.75452 0.0
C1447 C 0.95984 0.68484 0.74678 0.0
H1448 H 0.91645 0.6396 0.77892 0.0
C1449 C 0.95767 0.70212 0.75947 0.0
H1450 H 0.94615 0.64855 0.74531 0.0
C1451 C 0.94056 0.69696 0.77853 0.0
C1452 C 0.92517 0.67439 0.78554 0.0
H1453 H 0.96878 0.71968 0.75407 0.0
H1454 H 0.93889 0.71067 0.78695 0.0
C1455 C 0.92781 0.65714 0.77367 0.0
C1456 C 0.32597 0.27032 0.75096 0.0
C1457 C 0.34767 0.28747 0.74344 0.0
H1458 H 0.30589 0.24116 0.77606 0.0
C1459 C 0.36603 0.28832 0.75672 0.0
H1460 H 0.31143 0.26914 0.74126 0.0
C1461 C 0.36289 0.27223 0.77632 0.0
C1462 C 0.34127 0.25479 0.78353 0.0
H1463 H 0.38304 0.3012 0.75158 0.0
H1464 H 0.37756 0.27313 0.78519 0.0
C1465 C 0.32281 0.25417 0.77079 0.0
C1466 C 0.73006 0.06171 0.75628 0.0
C1467 C 0.73045 0.0419 0.75027 0.0
H1468 H 0.74452 0.09269 0.77966 0.0
C1469 C 0.7441 0.03688 0.76627 0.0
H1470 H 0.71971 0.06605 0.74435 0.0
C1471 C 0.75812 0.052 0.78659 0.0
C1472 C 0.75892 0.07255 0.79129 0.0
H1473 H 0.74453 0.02157 0.7625 0.0
H1474 H 0.76887 0.0479 0.79806 0.0
C1475 C 0.74423 0.07694 0.77657 0.0
C1476 C 0.07865 0.37102 0.05044 0.0
C1477 C 0.05745 0.35124 0.04858 0.0
H1478 H 0.11208 0.38654 0.0666 0.0
C1479 C 0.054 0.33151 0.06147 0.0
H1480 H 0.08178 0.38648 0.04078 0.0
C1481 C 0.07127 0.33148 0.0759 0.0
C1482 C 0.09238 0.35126 0.07813 0.0
H1483 H 0.03788 0.31597 0.06041 0.0
H1484 H 0.06797 0.31603 0.08579 0.0
C1485 C 0.09592 0.37107 0.06531 0.0
C1486 C 0.66212 0.72367 0.03599 0.0
C1487 C 0.67029 0.71044 0.04666 0.0
H1488 H 0.6568 0.75118 0.0426 0.0
C1489 C 0.67992 0.7154 0.07318 0.0
H1490 H 0.65488 0.72043 0.01543 0.0
C1491 C 0.68064 0.73292 0.08913 0.0
C1492 C 0.67192 0.7458 0.07863 0.0
H1493 H 0.68628 0.70538 0.08186 0.0
H1494 H 0.68748 0.73597 0.1099 0.0
C1495 C 0.66307 0.74121 0.05167 0.0
C1496 C 0.28501 0.93181 0.04297 0.0
C1497 C 0.29171 0.95477 0.04562 0.0
H1498 H 0.26201 0.89783 0.05585 0.0
C1499 C 0.27971 0.961 0.06352 0.0
H1500 H 0.29396 0.92653 0.02936 0.0
C1501 C 0.26122 0.94455 0.07827 0.0
C1502 C 0.25467 0.92163 0.07581 0.0
H1503 H 0.28446 0.97857 0.0659 0.0
H1504 H 0.25223 0.94976 0.09192 0.0
C1505 C 0.2668 0.91541 0.05815 0.0
C1506 C 0.36286 0.06918 0.97573 0.0
C1507 C 0.34398 0.04721 0.97501 0.0
H1508 H 0.37719 0.10382 0.96341 0.0
C1509 C 0.32459 0.04356 0.96141 0.0
H1510 H 0.37805 0.0725 0.986 0.0
C1511 C 0.32402 0.06139 0.94884 0.0
C1512 C 0.34291 0.08331 0.94923 0.0
H1513 H 0.30972 0.02685 0.96049 0.0
H1514 H 0.30887 0.0579 0.93833 0.0
C1515 C 0.3624 0.08705 0.96273 0.0
C1516 C 0.94801 0.29526 0.96675 0.0
C1517 C 0.96943 0.29856 0.97024 0.0
H1518 H 0.91552 0.27486 0.94941 0.0
C1519 C 0.9744 0.28288 0.95867 0.0
H1520 H 0.94384 0.30726 0.97522 0.0
C1521 C 0.95779 0.26359 0.94481 0.0
C1522 C 0.93609 0.26 0.94164 0.0
H1523 H 0.99082 0.28504 0.96134 0.0
H1524 H 0.96187 0.25127 0.93733 0.0
C1525 C 0.93166 0.27645 0.95221 0.0
C1526 C 0.71951 0.6761 0.95143 0.0
C1527 C 0.70407 0.65717 0.96674 0.0
H1528 H 0.74845 0.69077 0.92522 0.0
C1529 C 0.7061 0.63791 0.96688 0.0
H1530 H 0.71839 0.6912 0.95089 0.0
C1531 C 0.72327 0.63763 0.95195 0.0
C1532 C 0.73887 0.65671 0.93694 0.0
H1533 H 0.69441 0.62306 0.97844 0.0
H1534 H 0.72459 0.62265 0.95252 0.0
C1535 C 0.73679 0.67592 0.93682 0.0
C1536 C 0.92805 0.63479 0.97316 0.0
C1537 C 0.94926 0.65455 0.97499 0.0
H1538 H 0.89459 0.6193 0.95715 0.0
C1539 C 0.9527 0.67431 0.9622 0.0
H1540 H 0.92493 0.6193 0.98274 0.0
C1541 C 0.93539 0.67438 0.94789 0.0
C1542 C 0.91427 0.6546 0.9457 0.0
H1543 H 0.96883 0.68984 0.96324 0.0
H1544 H 0.93868 0.68984 0.93806 0.0
C1545 C 0.91076 0.63477 0.95842 0.0
C1546 C 0.35591 0.29525 0.96769 0.0
C1547 C 0.33673 0.29636 0.97313 0.0
H1548 H 0.36981 0.27738 0.94819 0.0
C1549 C 0.31607 0.27952 0.96236 0.0
H1550 H 0.37211 0.30818 0.97539 0.0
C1551 C 0.3145 0.26111 0.94758 0.0
C1552 C 0.3337 0.25961 0.94284 0.0
H1553 H 0.30103 0.28005 0.96643 0.0
H1554 H 0.29816 0.24775 0.94074 0.0
C1555 C 0.3545 0.27736 0.95232 0.0
C1556 C 0.72003 0.03981 0.95138 0.0
C1557 C 0.71388 0.04531 0.97675 0.0
H1558 H 0.74288 0.05137 0.91722 0.0
C1559 C 0.72703 0.06731 0.98759 0.0
H1560 H 0.71012 0.02299 0.94245 0.0
C1561 C 0.74608 0.08347 0.97346 0.0
C1562 C 0.75228 0.0781 0.94794 0.0
H1563 H 0.72278 0.07199 0.00722 0.0
H1564 H 0.75611 0.1001 0.9828 0.0
C1565 C 0.73893 0.05605 0.93704 0.0
C1566 C 0.64802 0.93214 0.03958 0.0
C1567 C 0.65935 0.95438 0.05013 0.0
H1568 H 0.64102 0.89817 0.04419 0.0
C1569 C 0.67126 0.95894 0.07509 0.0
H1570 H 0.63876 0.92816 0.02034 0.0
C1571 C 0.67227 0.94186 0.08895 0.0
C1572 C 0.66171 0.91972 0.07804 0.0
H1573 H 0.67992 0.97584 0.08402 0.0
H1574 H 0.68139 0.9461 0.10831 0.0
C1575 C 0.64929 0.91498 0.05332 0.0
C1576 C 0.05882 0.70883 0.05697 0.0
C1577 C 0.03752 0.70595 0.05406 0.0
H1578 H 0.09133 0.72818 0.07456 0.0
C1579 C 0.03278 0.72132 0.06714 0.0
H1580 H 0.06284 0.69706 0.04741 0.0
C1581 C 0.04953 0.73993 0.08189 0.0
C1582 C 0.07113 0.74314 0.08437 0.0
H1583 H 0.01644 0.71945 0.06503 0.0
H1584 H 0.04567 0.75209 0.09059 0.0
C1585 C 0.07528 0.72692 0.07233 0.0
C1586 C 0.29968 0.36693 0.05607 0.0
C1587 C 0.30156 0.34759 0.05608 0.0
H1588 H 0.28146 0.3824 0.07071 0.0
C1589 C 0.28612 0.32869 0.07144 0.0
H1590 H 0.31137 0.38177 0.04447 0.0
C1591 C 0.26899 0.32901 0.08626 0.0
C1592 C 0.26708 0.34833 0.08628 0.0
H1593 H 0.28714 0.31353 0.07189 0.0
H1594 H 0.25734 0.3142 0.09792 0.0
C1595 C 0.28266 0.36735 0.07119 0.0
C1596 C 0.71899 0.66321 0.3962 0.0
C1597 C 0.72243 0.68292 0.38327 0.0
H1598 H 0.73316 0.64772 0.42017 0.0
C1599 C 0.74371 0.70261 0.38468 0.0
H1600 H 0.7028 0.64774 0.39547 0.0
C1601 C 0.7611 0.70263 0.39913 0.0
C1602 C 0.75761 0.68285 0.41199 0.0
H1603 H 0.74682 0.71806 0.37497 0.0
H1604 H 0.77734 0.71804 0.40008 0.0
C1605 C 0.73641 0.66314 0.41023 0.0
C1606 C 0.34695 0.0499 0.40736 0.0
C1607 C 0.33838 0.04547 0.38028 0.0
H1608 H 0.35328 0.06991 0.44436 0.0
C1609 C 0.33108 0.05919 0.36888 0.0
H1610 H 0.35265 0.0395 0.4166 0.0
C1611 C 0.33174 0.07666 0.38442 0.0
C1612 C 0.33939 0.08063 0.41195 0.0
H1613 H 0.32468 0.05635 0.34788 0.0
H1614 H 0.32608 0.08697 0.37486 0.0
C1615 C 0.34737 0.06732 0.42316 0.0
C1616 C 0.94698 0.29688 0.39746 0.0
C1617 C 0.95961 0.29087 0.38043 0.0
H1618 H 0.91879 0.28532 0.42477 0.0
C1619 C 0.95338 0.26802 0.37826 0.0
H1620 H 0.95137 0.31436 0.39947 0.0
C1621 C 0.93496 0.25149 0.393 0.0
C1622 C 0.92218 0.25746 0.40977 0.0
H1623 H 0.96282 0.2629 0.36532 0.0
H1624 H 0.93051 0.23398 0.39101 0.0
C1625 C 0.9283 0.28028 0.4118 0.0
C1626 C 1.00105 0.37743 0.28172 0.0
C1627 C 0.01311 0.38208 0.30657 0.0
H1628 H 0.99095 0.39024 0.24841 0.0
C1629 C 0.02459 0.40438 0.31693 0.0
H1630 H 0.99225 0.36048 0.27296 0.0
C1631 C 0.02343 0.42154 0.30305 0.0
C1632 C 0.01098 0.41678 0.27837 0.0
H1633 H 0.03396 0.40844 0.33609 0.0
H1634 H 0.03186 0.4384 0.31205 0.0
C1635 C 1.00015 0.39453 0.26772 0.0
C1636 C 0.61274 0.62967 0.30122 0.0
C1637 C 0.63365 0.63179 0.30512 0.0
H1638 H 0.58057 0.61111 0.28254 0.0
C1639 C 0.6379 0.61575 0.29311 0.0
H1640 H 0.60912 0.64195 0.31006 0.0
C1641 C 0.62108 0.59728 0.27832 0.0
C1642 C 0.59991 0.59492 0.27454 0.0
H1643 H 0.6539 0.617 0.29609 0.0
H1644 H 0.62459 0.58462 0.27056 0.0
C1645 C 0.59624 0.61173 0.28568 0.0
C1646 C 0.37136 0.96973 0.29982 0.0
C1647 C 0.37272 0.99046 0.30514 0.0
H1648 H 0.3863 0.95271 0.2801 0.0
C1649 C 0.39157 0.01052 0.2961 0.0
H1650 H 0.35689 0.95401 0.30647 0.0
C1651 C 0.40872 0.00992 0.28178 0.0
C1652 C 0.40718 0.98917 0.27545 0.0
H1653 H 0.39316 0.02677 0.30028 0.0
H1654 H 0.42321 0.02583 0.27577 0.0
C1655 C 0.38831 0.96905 0.28484 0.0
C1656 C 0.59643 0.96632 0.3017 0.0
C1657 C 0.61567 0.98678 0.30925 0.0
H1658 H 0.56533 0.95029 0.27971 0.0
C1659 C 0.61726 0.00723 0.30209 0.0
H1660 H 0.5949 0.95031 0.3068 0.0
C1661 C 0.60017 0.00732 0.28731 0.0
C1662 C 0.58121 0.98693 0.27855 0.0
H1663 H 0.63181 0.02328 0.30795 0.0
H1664 H 0.60194 0.0235 0.28275 0.0
C1665 C 0.57947 0.96638 0.28625 0.0
C1666 C 0.99372 0.62121 0.28531 0.0
C1667 C 0.00344 0.62624 0.31179 0.0
H1668 H 0.98625 0.60077 0.24854 0.0
C1669 C 0.01209 0.61336 0.32221 0.0
H1670 H 0.98701 0.63097 0.27679 0.0
C1671 C 0.01138 0.59599 0.30636 0.0
C1672 C 1.00229 0.59125 0.27952 0.0
H1673 H 0.01946 0.6167 0.3427 0.0
H1674 H 0.01797 0.58624 0.31524 0.0
C1675 C 0.99324 0.60389 0.26923 0.0
C1676 C 0.39279 0.40278 0.32186 0.0
C1677 C 0.37978 0.38062 0.31141 0.0
H1678 H 0.42141 0.4358 0.31628 0.0
C1679 C 0.38572 0.37508 0.28591 0.0
H1680 H 0.3887 0.40753 0.34156 0.0
C1681 C 0.40429 0.39139 0.27112 0.0
C1682 C 0.41749 0.41359 0.28163 0.0
H1683 H 0.37593 0.35815 0.27726 0.0
H1684 H 0.4081 0.38664 0.25126 0.0
C1685 C 0.41149 0.41903 0.30725 0.0
C1686 C 0.34584 0.29188 0.39599 0.0
C1687 C 0.32646 0.28847 0.3826 0.0
H1688 H 0.36122 0.27736 0.41941 0.0
C1689 C 0.30722 0.26673 0.38264 0.0
H1690 H 0.36097 0.3084 0.39634 0.0
C1691 C 0.30733 0.24887 0.3962 0.0
C1692 C 0.32681 0.25238 0.40949 0.0
H1693 H 0.29203 0.26361 0.37257 0.0
H1694 H 0.29228 0.2323 0.3961 0.0
C1695 C 0.34605 0.27405 0.4091 0.0
C1696 C 0.70112 0.04617 0.40983 0.0
C1697 C 0.7055 0.04137 0.38295 0.0
H1698 H 0.71417 0.06772 0.4457 0.0
C1699 C 0.72649 0.05574 0.37093 0.0
H1700 H 0.68505 0.03531 0.41956 0.0
C1701 C 0.74292 0.07444 0.38552 0.0
C1702 C 0.73893 0.07906 0.41274 0.0
H1703 H 0.73025 0.05263 0.35008 0.0
H1704 H 0.75876 0.08534 0.37533 0.0
C1705 C 0.71775 0.0648 0.42469 0.0
C1706 C 0.95249 0.66124 0.40418 0.0
C1707 C 0.96827 0.6801 0.38903 0.0
H1708 H 0.92336 0.64686 0.43 0.0
C1709 C 0.9665 0.69952 0.38863 0.0
H1710 H 0.95339 0.64602 0.40491 0.0
C1711 C 0.94931 0.70003 0.40327 0.0
C1712 C 0.93344 0.68104 0.41818 0.0
H1713 H 0.97846 0.71432 0.3772 0.0
H1714 H 0.94823 0.71515 0.4026 0.0
C1715 C 0.93522 0.66166 0.41846 0.0
C1716 C 0.41212 0.03817 0.71667 0.0
C1717 C 0.39107 0.01823 0.71466 0.0
H1718 H 0.44562 0.0539 0.73269 0.0
C1719 C 0.38797 0.99841 0.72689 0.0
H1720 H 0.41495 0.0537 0.70752 0.0
C1721 C 0.40543 0.99846 0.74093 0.0
C1722 C 0.42638 0.0184 0.74341 0.0
H1723 H 0.37197 0.98275 0.72569 0.0
H1724 H 0.40238 0.98295 0.75038 0.0
C1725 C 0.42959 0.0383 0.73117 0.0
C1726 C 0.98319 0.37664 0.72367 0.0
C1727 C 1.00223 0.37528 0.71819 0.0
H1728 H 0.96958 0.39469 0.74341 0.0
C1729 C 0.02295 0.39193 0.72904 0.0
H1730 H 0.96694 0.36387 0.71592 0.0
C1731 C 0.02473 0.41037 0.74398 0.0
C1732 C 0.00568 0.41209 0.74883 0.0
H1733 H 0.03789 0.39121 0.72495 0.0
H1734 H 0.04112 0.42356 0.75088 0.0
C1735 C 0.9848 0.39456 0.73922 0.0
C1736 C 0.61987 0.63019 0.73878 0.0
C1737 C 0.62597 0.62467 0.71338 0.0
H1738 H 0.59727 0.61856 0.77322 0.0
C1739 C 0.61304 0.60252 0.70286 0.0
H1740 H 0.6296 0.64711 0.74747 0.0
C1741 C 0.59426 0.58625 0.71732 0.0
C1742 C 0.5881 0.59166 0.74284 0.0
H1743 H 0.61724 0.5978 0.68323 0.0
H1744 H 0.5844 0.5695 0.70823 0.0
C1745 C 0.60122 0.61384 0.75342 0.0
C1746 C 0.65905 0.71268 0.62882 0.0
C1747 C 0.67857 0.71644 0.64218 0.0
H1748 H 0.64317 0.72675 0.60553 0.0
C1749 C 0.69753 0.73837 0.6423 0.0
H1750 H 0.64412 0.69601 0.62837 0.0
C1751 C 0.697 0.75607 0.6289 0.0
C1752 C 0.67739 0.7522 0.6156 0.0
H1753 H 0.71281 0.74177 0.65237 0.0
H1754 H 0.71186 0.7728 0.62909 0.0
C1755 C 0.65843 0.73034 0.61586 0.0
C1756 C 0.30506 0.95962 0.61376 0.0
C1757 C 0.30077 0.96434 0.64072 0.0
H1758 H 0.29166 0.93875 0.57743 0.0
C1759 C 0.27949 0.95053 0.65236 0.0
H1760 H 0.32133 0.9701 0.6043 0.0
C1761 C 0.26271 0.93245 0.63732 0.0
C1762 C 0.26667 0.92793 0.61006 0.0
H1763 H 0.27578 0.95361 0.67325 0.0
H1764 H 0.24663 0.92195 0.6472 0.0
C1765 C 0.2881 0.94163 0.59847 0.0
C1766 C 0.03903 0.30451 0.63548 0.0
C1767 C 0.0371 0.32383 0.6355 0.0
H1768 H 0.05748 0.28921 0.6211 0.0
C1769 C 0.05269 0.34285 0.62045 0.0
H1770 H 0.02721 0.28958 0.64684 0.0
C1771 C 0.07004 0.34269 0.60595 0.0
C1772 C 0.07201 0.32341 0.60592 0.0
H1773 H 0.05165 0.358 0.62005 0.0
H1774 H 0.08183 0.35762 0.59456 0.0
C1775 C 0.05625 0.30425 0.62065 0.0
C1776 C 0.26027 0.2998 0.64271 0.0
C1777 C 0.28159 0.31945 0.6441 0.0
H1778 H 0.22668 0.28444 0.62705 0.0
C1779 C 0.28511 0.33913 0.63097 0.0
H1780 H 0.2571 0.28438 0.65254 0.0
C1781 C 0.2678 0.33923 0.61675 0.0
C1782 C 0.24657 0.31958 0.61498 0.0
H1783 H 0.30132 0.35457 0.63164 0.0
H1784 H 0.27117 0.35463 0.60666 0.0
C1785 C 0.24294 0.29981 0.62803 0.0
C1786 C 0.69054 0.96276 0.63429 0.0
C1787 C 0.67128 0.96373 0.63972 0.0
H1788 H 0.70477 0.94548 0.6141 0.0
C1789 C 0.65079 0.94717 0.62824 0.0
H1790 H 0.70662 0.97545 0.64253 0.0
C1791 C 0.64946 0.92916 0.61276 0.0
C1792 C 0.66873 0.92781 0.60799 0.0
H1793 H 0.6357 0.94761 0.63226 0.0
H1794 H 0.63323 0.91597 0.6054 0.0
C1795 C 0.68938 0.94531 0.61819 0.0
C1796 C 0.05946 0.73699 0.65365 0.0
C1797 C 0.04688 0.71482 0.6431 0.0
H1798 H 0.08762 0.77031 0.64824 0.0
C1799 C 0.05311 0.70953 0.61764 0.0
H1800 H 0.05515 0.74153 0.67333 0.0
C1801 C 0.07154 0.72614 0.60295 0.0
C1802 C 0.08429 0.74837 0.61355 0.0
H1803 H 0.04364 0.69259 0.60894 0.0
H1804 H 0.07559 0.72161 0.5831 0.0
C1805 C 0.07802 0.75353 0.63914 0.0
C1806 C 0.01475 0.62703 0.72791 0.0
C1807 C 0.99516 0.62295 0.71443 0.0
H1808 H 0.03089 0.6134 0.75148 0.0
C1809 C 0.97637 0.60092 0.71439 0.0
H1810 H 0.02955 0.64379 0.72832 0.0
C1811 C 0.97712 0.58342 0.72799 0.0
C1812 C 0.9968 0.5876 0.7414 0.0
H1813 H 0.96104 0.59729 0.70424 0.0
H1814 H 0.9624 0.5666 0.72785 0.0
C1815 C 0.01559 0.60957 0.74107 0.0
C1816 C 0.39272 0.38749 0.70593 0.0
C1817 C 0.37153 0.37375 0.71784 0.0
H1818 H 0.42531 0.41666 0.71019 0.0
C1819 C 0.36716 0.37915 0.74439 0.0
H1820 H 0.39647 0.38388 0.68533 0.0
C1821 C 0.38395 0.3978 0.75901 0.0
C1822 C 0.40528 0.41148 0.74714 0.0
H1823 H 0.35096 0.36876 0.75403 0.0
H1824 H 0.38034 0.40122 0.77977 0.0
C1825 C 0.40932 0.40622 0.72029 0.0
C1826 C 0.63415 0.03402 0.72336 0.0
C1827 C 0.63593 0.01461 0.72322 0.0
H1828 H 0.61586 0.04945 0.7379 0.0
C1829 C 0.62028 0.99559 0.73823 0.0
H1830 H 0.64601 0.04894 0.71204 0.0
C1831 C 0.60301 0.99584 0.7528 0.0
C1832 C 0.60118 0.0152 0.75295 0.0
H1833 H 0.62121 0.98038 0.73854 0.0
H1834 H 0.59117 0.98091 0.76416 0.0
C1835 C 0.617 0.03436 0.73826 0.0
loop_
_geom_bond_atom_site_label_1
_geom_bond_atom_site_label_2
_geom_bond_distance
_geom_bond_site_symmetry_2
_ccdc_geom_bond_type
Co0 O1 2.216 . S
Co0 O2 2.091 . S
Co0 O4 2.004 1_554 S
Co0 O10 2.021 . S
Co0 O12 2.137 1_454 S
Co0 O13 2.244 1_455 S
O1 Co0 2.216 . S
O1 C8 1.247 . S
O2 Co0 2.091 . S
O2 C8 1.261 . S
C3 O12 1.247 . S
C3 O13 1.272 1_556 S
O4 Co0 2.004 1_556 S
O4 C9 1.309 . S
Co5 O6 2.061 1_554 S
Co5 O11 2.052 . S
Co5 O13 2.135 . S
O6 Co5 2.061 1_556 S
O6 C9 1.186 1_655 S
C7 O10 1.238 1_655 S
C7 O11 1.241 . S
C8 O1 1.247 . S
C8 O2 1.261 . S
C9 O4 1.309 . S
C9 O6 1.186 1_455 S
O10 Co0 2.021 . S
O10 C7 1.238 1_455 S
O11 Co5 2.052 . S
O11 C7 1.241 . S
O12 Co0 2.137 1_656 S
O12 C3 1.247 . S
O13 Co0 2.244 1_655 S
O13 C3 1.272 1_554 S
O13 Co5 2.135 . S
Co14 O15 2.216 1_554 S
Co14 O16 2.091 . S
Co14 O18 2.004 . S
Co14 O24 2.021 1_554 S
Co14 O26 2.137 . S
Co14 O27 2.244 . S
O15 Co14 2.216 1_556 S
O15 C22 1.247 . S
O16 Co14 2.091 . S
O16 C22 1.261 1_554 S
C17 O26 1.247 . S
C17 O27 1.272 . S
O18 Co14 2.004 . S
O18 C23 1.259 . S
Co19 O20 2.061 . S
Co19 O25 2.052 1_554 S
Co19 O27 2.135 . S
O20 Co19 2.061 . S
O20 C23 1.235 . S
C21 O24 1.238 . S
C21 O25 1.241 . S
C22 O15 1.247 . S
C22 O16 1.261 1_556 S
C23 O18 1.259 . S
C23 O20 1.235 . S
O24 Co14 2.021 1_556 S
O24 C21 1.238 . S
O25 Co19 2.052 1_556 S
O25 C21 1.241 . S
O26 Co14 2.137 . S
O26 C17 1.247 . S
O27 Co14 2.244 . S
O27 C17 1.272 . S
O27 Co19 2.135 . S
Co28 O29 2.216 1_554 S
Co28 O30 2.091 . S
Co28 O32 2.004 . S
Co28 O38 2.021 1_554 S
Co28 O40 2.137 1_545 S
Co28 O41 2.244 1_545 S
O29 Co28 2.216 1_556 S
O29 C36 1.247 . S
O30 Co28 2.091 . S
O30 C36 1.261 1_554 S
C31 O40 1.247 . S
C31 O41 1.272 . S
O32 Co28 2.004 . S
O32 C37 1.259 . S
Co33 O34 2.061 . S
Co33 O39 2.052 1_554 S
Co33 O41 2.135 . S
O34 Co33 2.061 . S
O34 C37 1.235 1_565 S
C35 O38 1.238 1_565 S
C35 O39 1.241 . S
C36 O29 1.247 . S
C36 O30 1.261 1_556 S
C37 O32 1.259 . S
C37 O34 1.235 1_545 S
O38 Co28 2.021 1_556 S
O38 C35 1.238 1_545 S
O39 Co33 2.052 1_556 S
O39 C35 1.241 . S
O40 Co28 2.137 1_565 S
O40 C31 1.247 . S
O41 Co28 2.244 1_565 S
O41 C31 1.272 . S
O41 Co33 2.135 . S
Co42 O43 2.216 1_554 S
Co42 O44 2.091 . S
Co42 O46 2.004 . S
Co42 O52 2.021 1_554 S
Co42 O54 2.137 1_655 S
Co42 O55 2.244 1_655 S
O43 Co42 2.216 1_556 S
O43 C50 1.247 . S
O44 Co42 2.091 . S
O44 C50 1.261 1_554 S
C45 O54 1.247 . S
C45 O55 1.272 . S
O46 Co42 2.004 . S
O46 C51 1.256 1_655 S
Co47 O48 2.061 . S
Co47 O53 2.052 1_554 S
Co47 O55 2.135 . S
O48 Co47 2.061 . S
O48 C51 1.238 . S
C49 O52 1.238 1_455 S
C49 O53 1.241 . S
C50 O43 1.247 . S
C50 O44 1.261 1_556 S
C51 O46 1.256 1_455 S
C51 O48 1.238 . S
O52 Co42 2.021 1_556 S
O52 C49 1.238 1_655 S
O53 Co47 2.052 1_556 S
O53 C49 1.241 . S
O54 Co42 2.137 1_455 S
O54 C45 1.247 . S
O55 Co42 2.244 1_455 S
O55 C45 1.272 . S
O55 Co47 2.135 . S
Co56 O57 2.216 . S
Co56 O58 2.091 . S
Co56 O60 2.004 1_554 S
Co56 O66 2.021 . S
Co56 O68 2.137 1_554 S
Co56 O69 2.244 1_554 S
O57 Co56 2.216 . S
O57 C64 1.247 . S
O58 Co56 2.091 . S
O58 C64 1.261 . S
C59 O68 1.247 . S
C59 O69 1.272 . S
O60 Co56 2.004 1_556 S
O60 C65 1.259 . S
Co61 O62 2.061 . S
Co61 O67 2.052 1_556 S
Co61 O69 2.135 . S
O62 Co61 2.061 . S
O62 C65 1.235 . S
C63 O66 1.238 . S
C63 O67 1.241 . S
C64 O57 1.247 . S
C64 O58 1.261 . S
C65 O60 1.259 . S
C65 O62 1.235 . S
O66 Co56 2.021 . S
O66 C63 1.238 . S
O67 Co61 2.052 1_554 S
O67 C63 1.241 . S
O68 Co56 2.137 1_556 S
O68 C59 1.247 . S
O69 Co56 2.244 1_556 S
O69 C59 1.272 . S
O69 Co61 2.135 . S
Co70 O71 2.216 . S
Co70 O72 2.091 . S
Co70 O74 2.004 1_554 S
Co70 O80 2.021 . S
Co70 O82 2.137 1_564 S
Co70 O83 2.244 1_565 S
O71 Co70 2.216 . S
O71 C78 1.247 . S
O72 Co70 2.091 . S
O72 C78 1.261 . S
C73 O82 1.247 . S
C73 O83 1.272 1_556 S
O74 Co70 2.004 1_556 S
O74 C79 1.257 1_565 S
Co75 O76 2.061 1_554 S
Co75 O81 2.052 . S
Co75 O83 2.135 . S
O76 Co75 2.061 1_556 S
O76 C79 1.237 . S
C77 O80 1.238 1_545 S
C77 O81 1.241 . S
C78 O71 1.247 . S
C78 O72 1.261 . S
C79 O74 1.257 1_545 S
C79 O76 1.237 . S
O80 Co70 2.021 . S
O80 C77 1.238 1_565 S
O81 Co75 2.052 . S
O81 C77 1.241 . S
O82 Co70 2.137 1_546 S
O82 C73 1.247 . S
O83 Co70 2.244 1_545 S
O83 C73 1.272 1_554 S
O83 Co75 2.135 . S
Co84 O85 2.216 . S
Co84 O86 2.091 . S
Co84 O88 2.004 . S
Co84 O94 2.021 . S
Co84 O96 2.137 . S
Co84 O97 2.244 . S
O85 Co84 2.216 . S
O85 C92 1.247 . S
O86 Co84 2.091 . S
O86 C92 1.261 . S
C87 O96 1.247 . S
C87 O97 1.272 . S
O88 Co84 2.004 . S
O88 C93 1.259 . S
Co89 O90 2.061 . S
Co89 O95 2.052 . S
Co89 O97 2.135 . S
O90 Co89 2.061 . S
O90 C93 1.235 . S
C91 O94 1.238 . S
C91 O95 1.241 . S
C92 O85 1.247 . S
C92 O86 1.261 . S
C93 O88 1.259 . S
C93 O90 1.235 . S
O94 Co84 2.021 . S
O94 C91 1.238 . S
O95 Co89 2.052 . S
O95 C91 1.241 . S
O96 Co84 2.137 . S
O96 C87 1.247 . S
O97 Co84 2.244 . S
O97 C87 1.272 . S
O97 Co89 2.135 . S
Co98 O99 2.216 1_565 S
Co98 O100 2.091 . S
Co98 O102 2.004 . S
Co98 O108 2.021 . S
Co98 O110 2.137 1_565 S
Co98 O111 2.244 1_565 S
O99 Co98 2.216 1_545 S
O99 C106 1.247 1_545 S
O100 Co98 2.091 . S
O100 C106 1.261 . S
C101 O110 1.247 . S
C101 O111 1.272 . S
O102 Co98 2.004 . S
O102 C107 1.259 . S
Co103 O104 2.061 . S
Co103 O109 2.052 . S
Co103 O111 2.135 1_565 S
O104 Co103 2.061 . S
O104 C107 1.235 . S
C105 O108 1.238 . S
C105 O109 1.241 . S
C106 O99 1.247 1_565 S
C106 O100 1.261 . S
C107 O102 1.259 . S
C107 O104 1.235 . S
O108 Co98 2.021 . S
O108 C105 1.238 . S
O109 Co103 2.052 . S
O109 C105 1.241 . S
O110 Co98 2.137 1_545 S
O110 C101 1.247 . S
O111 Co98 2.244 1_545 S
O111 C101 1.272 . S
O111 Co103 2.135 1_545 S
Co112 O113 2.231 . S
Co112 O114 2.091 . S
Co112 O116 2.004 . S
Co112 O122 2.021 . S
Co112 O124 2.137 1_455 S
Co112 O125 2.244 1_455 S
O113 Co112 2.231 . S
O113 C120 1.247 . S
O114 Co112 2.091 . S
O114 C120 1.261 . S
C115 O124 1.247 . S
C115 O125 1.272 . S
O116 Co112 2.004 . S
O116 C121 1.259 . S
Co117 O118 2.061 . S
Co117 O123 2.052 . S
Co117 O125 2.135 1_455 S
O118 Co117 2.061 . S
O118 C121 1.235 . S
C119 O122 1.238 . S
C119 O123 1.241 . S
C120 O113 1.247 . S
C120 O114 1.261 . S
C121 O116 1.259 . S
C121 O118 1.235 . S
O122 Co112 2.021 . S
O122 C119 1.238 . S
O123 Co117 2.052 . S
O123 C119 1.241 . S
O124 Co112 2.137 1_655 S
O124 C115 1.247 . S
O125 Co112 2.244 1_655 S
O125 C115 1.272 . S
O125 Co117 2.135 1_655 S
Co126 O127 2.216 1_565 S
Co126 O128 2.091 . S
Co126 O130 2.004 . S
Co126 O136 2.021 . S
Co126 O138 2.137 1_565 S
Co126 O139 2.244 1_565 S
O127 Co126 2.216 1_545 S
O127 C134 1.247 1_545 S
O128 Co126 2.091 . S
O128 C134 1.261 . S
C129 O138 1.247 . S
C129 O139 1.272 . S
O130 Co126 2.004 . S
O130 C135 1.259 . S
Co131 O132 2.061 . S
Co131 O137 2.052 . S
Co131 O139 2.135 1_565 S
O132 Co131 2.061 . S
O132 C135 1.235 . S
C133 O136 1.238 . S
C133 O137 1.241 . S
C134 O127 1.247 1_565 S
C134 O128 1.261 . S
C135 O130 1.259 . S
C135 O132 1.235 . S
O136 Co126 2.021 . S
O136 C133 1.238 . S
O137 Co131 2.052 . S
O137 C133 1.241 . S
O138 Co126 2.137 1_545 S
O138 C129 1.247 . S
O139 Co126 2.244 1_545 S
O139 C129 1.272 . S
O139 Co131 2.135 1_545 S
Co140 O141 2.216 1_455 S
Co140 O142 2.091 1_455 S
Co140 O144 2.004 . S
Co140 O150 2.021 . S
Co140 O152 2.137 1_455 S
Co140 O153 2.244 . S
O141 Co140 2.216 1_655 S
O141 C148 1.247 . S
O142 Co140 2.091 1_655 S
O142 C148 1.261 . S
C143 O152 1.247 1_455 S
C143 O153 1.272 . S
O144 Co140 2.004 . S
O144 C149 1.259 . S
Co145 O146 2.061 . S
Co145 O151 2.052 . S
Co145 O153 2.135 . S
O146 Co145 2.061 . S
O146 C149 1.235 . S
C147 O150 1.238 . S
C147 O151 1.241 . S
C148 O141 1.247 . S
C148 O142 1.261 . S
C149 O144 1.259 . S
C149 O146 1.235 . S
O150 Co140 2.021 . S
O150 C147 1.238 . S
O151 Co145 2.052 . S
O151 C147 1.241 . S
O152 Co140 2.137 1_655 S
O152 C143 1.247 1_655 S
O153 Co140 2.244 . S
O153 C143 1.272 . S
O153 Co145 2.135 . S
Co154 O155 2.216 . S
Co154 O156 2.091 . S
Co154 O158 2.004 . S
Co154 O164 2.021 . S
Co154 O166 2.137 . S
Co154 O167 2.244 . S
O155 Co154 2.216 . S
O155 C162 1.247 . S
O156 Co154 2.091 . S
O156 C162 1.261 . S
C157 O166 1.247 . S
C157 O167 1.272 . S
O158 Co154 2.004 . S
O158 C163 1.259 . S
Co159 O160 2.061 . S
Co159 O165 2.052 . S
Co159 O167 2.135 . S
O160 Co159 2.061 . S
O160 C163 1.235 . S
C161 O164 1.238 . S
C161 O165 1.241 . S
C162 O155 1.247 . S
C162 O156 1.261 . S
C163 O158 1.259 . S
C163 O160 1.235 . S
O164 Co154 2.021 . S
O164 C161 1.238 . S
O165 Co159 2.052 . S
O165 C161 1.241 . S
O166 Co154 2.137 . S
O166 C157 1.247 . S
O167 Co154 2.244 . S
O167 C157 1.272 . S
O167 Co159 2.135 . S
Co168 O169 2.189 1_545 S
Co168 O170 2.091 . S
Co168 O172 2.004 . S
Co168 O178 2.021 . S
Co168 O180 2.137 1_545 S
Co168 O181 2.244 1_545 S
O169 Co168 2.189 1_565 S
O169 C176 1.247 1_565 S
O170 Co168 2.091 . S
O170 C176 1.261 . S
C171 O180 1.247 . S
C171 O181 1.272 . S
O172 Co168 2.004 . S
O172 C177 1.259 . S
Co173 O174 2.061 . S
Co173 O179 2.052 . S
Co173 O181 2.135 1_545 S
O174 Co173 2.061 . S
O174 C177 1.235 . S
C175 O178 1.238 . S
C175 O179 1.241 . S
C176 O169 1.247 1_545 S
C176 O170 1.261 . S
C177 O172 1.259 . S
C177 O174 1.235 . S
O178 Co168 2.021 . S
O178 C175 1.238 . S
O179 Co173 2.052 . S
O179 C175 1.241 . S
O180 Co168 2.137 1_565 S
O180 C171 1.247 . S
O181 Co168 2.244 1_565 S
O181 C171 1.272 . S
O181 Co173 2.135 1_565 S
Co182 O183 2.216 1_655 S
Co182 O184 2.091 1_655 S
Co182 O186 2.004 . S
Co182 O192 2.021 . S
Co182 O194 2.137 1_655 S
Co182 O195 2.244 . S
O183 Co182 2.216 1_455 S
O183 C190 1.247 . S
O184 Co182 2.091 1_455 S
O184 C190 1.261 . S
C185 O194 1.247 1_655 S
C185 O195 1.272 . S
O186 Co182 2.004 . S
O186 C191 1.259 . S
Co187 O188 2.061 . S
Co187 O193 2.052 . S
Co187 O195 2.135 . S
O188 Co187 2.061 . S
O188 C191 1.235 . S
C189 O192 1.238 . S
C189 O193 1.241 . S
C190 O183 1.247 . S
C190 O184 1.261 . S
C191 O186 1.259 . S
C191 O188 1.235 . S
O192 Co182 2.021 . S
O192 C189 1.238 . S
O193 Co187 2.052 . S
O193 C189 1.241 . S
O194 Co182 2.137 1_455 S
O194 C185 1.247 1_455 S
O195 Co182 2.244 . S
O195 C185 1.272 . S
O195 Co187 2.135 . S
Co196 O197 2.216 . S
Co196 O198 2.091 . S
Co196 O200 2.004 . S
Co196 O206 2.021 . S
Co196 O208 2.137 . S
Co196 O209 2.244 . S
O197 Co196 2.216 . S
O197 C204 1.247 . S
O198 Co196 2.091 . S
O198 C204 1.261 . S
C199 O208 1.247 . S
C199 O209 1.272 . S
O200 Co196 2.004 . S
O200 C205 1.259 . S
Co201 O202 2.061 . S
Co201 O207 2.052 . S
Co201 O209 2.135 . S
O202 Co201 2.061 . S
O202 C205 1.235 . S
C203 O206 1.238 . S
C203 O207 1.241 . S
C204 O197 1.247 . S
C204 O198 1.261 . S
C205 O200 1.259 . S
C205 O202 1.235 . S
O206 Co196 2.021 . S
O206 C203 1.238 . S
O207 Co201 2.052 . S
O207 C203 1.241 . S
O208 Co196 2.137 . S
O208 C199 1.247 . S
O209 Co196 2.244 . S
O209 C199 1.272 . S
O209 Co201 2.135 . S
Co210 O211 2.216 . S
Co210 O212 2.091 . S
Co210 O214 2.004 . S
Co210 O220 2.021 . S
Co210 O222 2.137 . S
Co210 O223 2.244 . S
O211 Co210 2.216 . S
O211 C218 1.247 . S
O212 Co210 2.091 . S
O212 C218 1.261 . S
C213 O222 1.247 . S
C213 O223 1.272 . S
O214 Co210 2.004 . S
O214 C219 1.259 . S
Co215 O216 2.061 . S
Co215 O221 2.052 . S
Co215 O223 2.135 . S
O216 Co215 2.061 . S
O216 C219 1.235 . S
C217 O220 1.238 . S
C217 O221 1.241 . S
C218 O211 1.247 . S
C218 O212 1.261 . S
C219 O214 1.259 . S
C219 O216 1.235 . S
O220 Co210 2.021 . S
O220 C217 1.238 . S
O221 Co215 2.052 . S
O221 C217 1.241 . S
O222 Co210 2.137 . S
O222 C213 1.247 . S
O223 Co210 2.244 . S
O223 C213 1.272 . S
O223 Co215 2.135 . S
Co224 O225 2.205 1_545 S
Co224 O226 2.091 . S
Co224 O228 2.004 . S
Co224 O234 2.021 . S
Co224 O236 2.137 1_545 S
Co224 O237 2.244 1_545 S
O225 Co224 2.205 1_565 S
O225 C232 1.204 1_565 S
O226 Co224 2.091 . S
O226 C232 1.261 . S
C227 O236 1.247 . S
C227 O237 1.272 . S
O228 Co224 2.004 . S
O228 C233 1.259 . S
Co229 O230 2.061 . S
Co229 O235 2.052 . S
Co229 O237 2.135 1_545 S
O230 Co229 2.061 . S
O230 C233 1.235 . S
C231 O234 1.238 . S
C231 O235 1.241 . S
C232 O225 1.204 1_545 S
C232 O226 1.261 . S
C233 O228 1.259 . S
C233 O230 1.235 . S
O234 Co224 2.021 . S
O234 C231 1.238 . S
O235 Co229 2.052 . S
O235 C231 1.241 . S
O236 Co224 2.137 1_565 S
O236 C227 1.247 . S
O237 Co224 2.244 1_565 S
O237 C227 1.272 . S
O237 Co229 2.135 1_565 S
Co238 O239 2.215 . S
Co238 O240 2.091 . S
Co238 O242 2.004 . S
Co238 O248 2.021 . S
Co238 O250 2.137 1_655 S
Co238 O251 2.244 1_655 S
O239 Co238 2.215 . S
O239 C246 1.247 . S
O240 Co238 2.091 . S
O240 C246 1.261 . S
C241 O250 1.247 . S
C241 O251 1.272 . S
O242 Co238 2.004 . S
O242 C247 1.259 . S
Co243 O244 2.061 . S
Co243 O249 2.052 . S
Co243 O251 2.135 1_655 S
O244 Co243 2.061 . S
O244 C247 1.235 . S
C245 O248 1.238 . S
C245 O249 1.241 . S
C246 O239 1.247 . S
C246 O240 1.261 . S
C247 O242 1.259 . S
C247 O244 1.235 . S
O248 Co238 2.021 . S
O248 C245 1.238 . S
O249 Co243 2.052 . S
O249 C245 1.241 . S
O250 Co238 2.137 1_455 S
O250 C241 1.247 . S
O251 Co238 2.244 1_455 S
O251 C241 1.272 . S
O251 Co243 2.135 1_455 S
H252 C271 0.949 . S
H253 C272 0.950 . S
H254 C274 0.950 . S
H255 C275 0.950 . S
H256 C277 0.950 . S
H257 C280 0.950 . S
H258 C281 0.950 . S
H259 C283 0.951 . S
H260 C284 0.949 . S
H261 C286 0.949 . S
H262 C287 0.950 . S
H263 C289 0.950 . S
H264 C290 0.950 . S
H265 C292 0.950 . S
H266 C295 0.950 . S
H267 C296 0.950 . S
H268 C298 0.951 . S
H269 C299 0.949 . S
C270 C271 1.376 . S
C270 C275 1.386 . S
C270 C276 1.483 . S
C271 H252 0.949 . S
C271 C270 1.376 . S
C271 C272 1.397 . S
C272 H253 0.950 . S
C272 C271 1.397 . S
C272 C273 1.391 . S
C273 C272 1.391 . S
C273 C274 1.405 . S
C274 H254 0.950 . S
C274 C273 1.405 . S
C274 C275 1.367 . S
C275 H255 0.950 . S
C275 C270 1.386 . S
C275 C274 1.367 . S
C276 C270 1.483 . S
C276 C277 1.382 . S
C276 C278 1.403 . S
C277 H256 0.950 . S
C277 C276 1.382 . S
C277 C293 1.411 . S
C278 C276 1.403 . S
C278 C279 1.489 . S
C278 C292 1.411 . S
C279 C278 1.489 . S
C279 C280 1.383 . S
C279 C284 1.382 . S
C280 H257 0.950 . S
C280 C279 1.383 . S
C280 C281 1.395 . S
C281 H258 0.950 . S
C281 C280 1.395 . S
C281 C282 1.288 . S
C282 C281 1.288 . S
C282 C283 1.392 . S
C283 H259 0.951 . S
C283 C282 1.392 . S
C283 C284 1.392 . S
C284 H260 0.949 . S
C284 C279 1.382 . S
C284 C283 1.392 . S
C285 C286 1.376 . S
C285 C290 1.386 . S
C285 C291 1.483 . S
C286 H261 0.949 . S
C286 C285 1.376 . S
C286 C287 1.397 . S
C287 H262 0.950 . S
C287 C286 1.397 . S
C287 C288 1.391 . S
C288 C287 1.391 . S
C288 C289 1.405 . S
C289 H263 0.950 . S
C289 C288 1.405 . S
C289 C290 1.367 . S
C290 H264 0.950 . S
C290 C285 1.386 . S
C290 C289 1.367 . S
C291 C285 1.483 . S
C291 C292 1.382 . S
C291 C293 1.403 . S
C292 H265 0.950 . S
C292 C278 1.411 . S
C292 C291 1.382 . S
C293 C277 1.411 . S
C293 C291 1.403 . S
C293 C294 1.489 . S
C294 C293 1.489 . S
C294 C295 1.383 . S
C294 C299 1.382 . S
C295 H266 0.950 . S
C295 C294 1.383 . S
C295 C296 1.395 . S
C296 H267 0.950 . S
C296 C295 1.395 . S
C296 C297 1.288 . S
C297 C296 1.288 . S
C297 C298 1.392 . S
C298 H268 0.951 . S
C298 C297 1.392 . S
C298 C299 1.392 . S
C299 H269 0.949 . S
C299 C294 1.382 . S
C299 C298 1.392 . S
H300 C319 0.949 . S
H301 C320 0.950 . S
H302 C322 0.950 . S
H303 C323 0.950 . S
H304 C325 0.950 . S
H305 C328 0.950 . S
H306 C329 0.950 . S
H307 C331 0.951 . S
H308 C332 0.949 . S
H309 C334 0.949 . S
H310 C335 0.950 . S
H311 C337 0.950 . S
H312 C338 0.950 . S
H313 C340 0.950 . S
H314 C343 0.950 . S
H315 C344 0.950 . S
H316 C346 0.951 . S
H317 C347 0.949 . S
C318 C319 1.376 . S
C318 C323 1.386 . S
C318 C324 1.483 . S
C319 H300 0.949 . S
C319 C318 1.376 . S
C319 C320 1.397 . S
C320 H301 0.950 . S
C320 C319 1.397 . S
C320 C321 1.391 . S
C321 C320 1.391 . S
C321 C322 1.405 . S
C322 H302 0.950 . S
C322 C321 1.405 . S
C322 C323 1.367 . S
C323 H303 0.950 . S
C323 C318 1.386 . S
C323 C322 1.367 . S
C324 C318 1.483 . S
C324 C325 1.382 . S
C324 C326 1.403 . S
C325 H304 0.950 . S
C325 C324 1.382 . S
C325 C341 1.411 . S
C326 C324 1.403 . S
C326 C327 1.489 . S
C326 C340 1.411 . S
C327 C326 1.489 . S
C327 C328 1.383 . S
C327 C332 1.382 . S
C328 H305 0.950 . S
C328 C327 1.383 . S
C328 C329 1.395 . S
C329 H306 0.950 . S
C329 C328 1.395 . S
C329 C330 1.288 . S
C330 C329 1.288 . S
C330 C331 1.392 . S
C331 H307 0.951 . S
C331 C330 1.392 . S
C331 C332 1.392 . S
C332 H308 0.949 . S
C332 C327 1.382 . S
C332 C331 1.392 . S
C333 C334 1.376 . S
C333 C338 1.386 . S
C333 C339 1.483 . S
C334 H309 0.949 . S
C334 C333 1.376 . S
C334 C335 1.397 . S
C335 H310 0.950 . S
C335 C334 1.397 . S
C335 C336 1.391 . S
C336 C335 1.391 . S
C336 C337 1.405 . S
C337 H311 0.950 . S
C337 C336 1.405 . S
C337 C338 1.367 . S
C338 H312 0.950 . S
C338 C333 1.386 . S
C338 C337 1.367 . S
C339 C333 1.483 . S
C339 C340 1.382 . S
C339 C341 1.403 . S
C340 H313 0.950 . S
C340 C326 1.411 . S
C340 C339 1.382 . S
C341 C325 1.411 . S
C341 C339 1.403 . S
C341 C342 1.489 . S
C342 C341 1.489 . S
C342 C343 1.383 . S
C342 C347 1.382 . S
C343 H314 0.950 . S
C343 C342 1.383 . S
C343 C344 1.395 . S
C344 H315 0.950 . S
C344 C343 1.395 . S
C344 C345 1.288 . S
C345 C344 1.288 . S
C345 C346 1.392 . S
C346 H316 0.951 . S
C346 C345 1.392 . S
C346 C347 1.392 . S
C347 H317 0.949 . S
C347 C342 1.382 . S
C347 C346 1.392 . S
H348 C367 0.949 . S
H349 C368 0.950 . S
H350 C370 0.950 . S
H351 C371 0.950 . S
H352 C373 0.950 . S
H353 C376 0.950 . S
H354 C377 0.950 . S
H355 C379 0.951 . S
H356 C380 0.949 . S
H357 C382 0.949 . S
H358 C383 0.950 . S
H359 C385 0.950 . S
H360 C386 0.950 . S
H361 C388 0.950 . S
H362 C391 0.950 . S
H363 C392 0.950 . S
H364 C394 0.951 . S
H365 C395 0.949 . S
C366 C367 1.376 . S
C366 C371 1.386 . S
C366 C372 1.483 . S
C367 H348 0.949 . S
C367 C366 1.376 . S
C367 C368 1.397 . S
C368 H349 0.950 . S
C368 C367 1.397 . S
C368 C369 1.391 . S
C369 C368 1.391 . S
C369 C370 1.405 . S
C370 H350 0.950 . S
C370 C369 1.405 . S
C370 C371 1.367 . S
C371 H351 0.950 . S
C371 C366 1.386 . S
C371 C370 1.367 . S
C372 C366 1.483 . S
C372 C373 1.382 . S
C372 C374 1.403 . S
C373 H352 0.950 . S
C373 C372 1.382 . S
C373 C389 1.411 . S
C374 C372 1.403 . S
C374 C375 1.489 . S
C374 C388 1.411 . S
C375 C374 1.489 . S
C375 C376 1.383 . S
C375 C380 1.382 . S
C376 H353 0.950 . S
C376 C375 1.383 . S
C376 C377 1.395 . S
C377 H354 0.950 . S
C377 C376 1.395 . S
C377 C378 1.288 . S
C378 C377 1.288 . S
C378 C379 1.392 . S
C379 H355 0.951 . S
C379 C378 1.392 . S
C379 C380 1.392 . S
C380 H356 0.949 . S
C380 C375 1.382 . S
C380 C379 1.392 . S
C381 C382 1.376 . S
C381 C386 1.386 . S
C381 C387 1.483 . S
C382 H357 0.949 . S
C382 C381 1.376 . S
C382 C383 1.397 . S
C383 H358 0.950 . S
C383 C382 1.397 . S
C383 C384 1.391 . S
C384 C383 1.391 . S
C384 C385 1.405 . S
C385 H359 0.950 . S
C385 C384 1.405 . S
C385 C386 1.367 . S
C386 H360 0.950 . S
C386 C381 1.386 . S
C386 C385 1.367 . S
C387 C381 1.483 . S
C387 C388 1.382 . S
C387 C389 1.403 . S
C388 H361 0.950 . S
C388 C374 1.411 . S
C388 C387 1.382 . S
C389 C373 1.411 . S
C389 C387 1.403 . S
C389 C390 1.489 . S
C390 C389 1.489 . S
C390 C391 1.383 . S
C390 C395 1.382 . S
C391 H362 0.950 . S
C391 C390 1.383 . S
C391 C392 1.395 . S
C392 H363 0.950 . S
C392 C391 1.395 . S
C392 C393 1.288 . S
C393 C392 1.288 . S
C393 C394 1.392 . S
C394 H364 0.951 . S
C394 C393 1.392 . S
C394 C395 1.392 . S
C395 H365 0.949 . S
C395 C390 1.382 . S
C395 C394 1.392 . S
H396 C415 0.949 . S
H397 C416 0.950 . S
H398 C418 0.950 . S
H399 C419 0.950 . S
H400 C421 0.950 . S
H401 C424 0.950 . S
H402 C425 0.950 . S
H403 C427 0.951 . S
H404 C428 0.949 . S
H405 C430 0.949 . S
H406 C431 0.950 . S
H407 C433 0.950 . S
H408 C434 0.950 . S
H409 C436 0.950 . S
H410 C439 0.950 . S
H411 C440 0.950 . S
H412 C442 0.951 . S
H413 C443 0.949 . S
C414 C415 1.376 . S
C414 C419 1.386 . S
C414 C420 1.483 . S
C415 H396 0.949 . S
C415 C414 1.376 . S
C415 C416 1.397 . S
C416 H397 0.950 . S
C416 C415 1.397 . S
C416 C417 1.391 . S
C417 C416 1.391 . S
C417 C418 1.405 . S
C418 H398 0.950 . S
C418 C417 1.405 . S
C418 C419 1.367 . S
C419 H399 0.950 . S
C419 C414 1.386 . S
C419 C418 1.367 . S
C420 C414 1.483 . S
C420 C421 1.382 . S
C420 C422 1.403 . S
C421 H400 0.950 . S
C421 C420 1.382 . S
C421 C437 1.411 . S
C422 C420 1.403 . S
C422 C423 1.489 . S
C422 C436 1.411 . S
C423 C422 1.489 . S
C423 C424 1.383 . S
C423 C428 1.382 . S
C424 H401 0.950 . S
C424 C423 1.383 . S
C424 C425 1.395 . S
C425 H402 0.950 . S
C425 C424 1.395 . S
C425 C426 1.288 . S
C426 C425 1.288 . S
C426 C427 1.392 . S
C427 H403 0.951 . S
C427 C426 1.392 . S
C427 C428 1.392 . S
C428 H404 0.949 . S
C428 C423 1.382 . S
C428 C427 1.392 . S
C429 C430 1.376 . S
C429 C434 1.386 . S
C429 C435 1.483 . S
C430 H405 0.949 . S
C430 C429 1.376 . S
C430 C431 1.397 . S
C431 H406 0.950 . S
C431 C430 1.397 . S
C431 C432 1.391 . S
C432 C431 1.391 . S
C432 C433 1.405 . S
C433 H407 0.950 . S
C433 C432 1.405 . S
C433 C434 1.367 . S
C434 H408 0.950 . S
C434 C429 1.386 . S
C434 C433 1.367 . S
C435 C429 1.483 . S
C435 C436 1.382 . S
C435 C437 1.403 . S
C436 H409 0.950 . S
C436 C422 1.411 . S
C436 C435 1.382 . S
C437 C421 1.411 . S
C437 C435 1.403 . S
C437 C438 1.489 . S
C438 C437 1.489 . S
C438 C439 1.383 . S
C438 C443 1.382 . S
C439 H410 0.950 . S
C439 C438 1.383 . S
C439 C440 1.395 . S
C440 H411 0.950 . S
C440 C439 1.395 . S
C440 C441 1.288 . S
C441 C440 1.288 . S
C441 C442 1.392 . S
C442 H412 0.951 . S
C442 C441 1.392 . S
C442 C443 1.392 . S
C443 H413 0.949 . S
C443 C438 1.382 . S
C443 C442 1.392 . S
H444 C463 0.949 . S
H445 C464 0.950 . S
H446 C466 0.950 . S
H447 C467 0.950 . S
H448 C469 0.950 . S
H449 C472 0.950 . S
H450 C473 0.950 . S
H451 C475 0.951 . S
H452 C476 0.949 . S
H453 C478 0.949 . S
H454 C479 0.950 . S
H455 C481 0.950 . S
H456 C482 0.950 . S
H457 C484 0.950 . S
H458 C487 0.950 . S
H459 C488 0.950 . S
H460 C490 0.951 . S
H461 C491 0.949 . S
C462 C463 1.376 . S
C462 C467 1.386 . S
C462 C468 1.483 . S
C463 H444 0.949 . S
C463 C462 1.376 . S
C463 C464 1.397 . S
C464 H445 0.950 . S
C464 C463 1.397 . S
C464 C465 1.391 . S
C465 C464 1.391 . S
C465 C466 1.405 . S
C466 H446 0.950 . S
C466 C465 1.405 . S
C466 C467 1.367 . S
C467 H447 0.950 . S
C467 C462 1.386 . S
C467 C466 1.367 . S
C468 C462 1.483 . S
C468 C469 1.382 . S
C468 C470 1.403 . S
C469 H448 0.950 . S
C469 C468 1.382 . S
C469 C485 1.411 . S
C470 C468 1.403 . S
C470 C471 1.489 . S
C470 C484 1.411 . S
C471 C470 1.489 . S
C471 C472 1.383 . S
C471 C476 1.382 . S
C472 H449 0.950 . S
C472 C471 1.383 . S
C472 C473 1.395 . S
C473 H450 0.950 . S
C473 C472 1.395 . S
C473 C474 1.288 . S
C474 C473 1.288 . S
C474 C475 1.392 . S
C475 H451 0.951 . S
C475 C474 1.392 . S
C475 C476 1.392 . S
C476 H452 0.949 . S
C476 C471 1.382 . S
C476 C475 1.392 . S
C477 C478 1.376 . S
C477 C482 1.386 . S
C477 C483 1.483 . S
C478 H453 0.949 . S
C478 C477 1.376 . S
C478 C479 1.397 . S
C479 H454 0.950 . S
C479 C478 1.397 . S
C479 C480 1.391 . S
C480 C479 1.391 . S
C480 C481 1.405 . S
C481 H455 0.950 . S
C481 C480 1.405 . S
C481 C482 1.367 . S
C482 H456 0.950 . S
C482 C477 1.386 . S
C482 C481 1.367 . S
C483 C477 1.483 . S
C483 C484 1.382 . S
C483 C485 1.403 . S
C484 H457 0.950 . S
C484 C470 1.411 . S
C484 C483 1.382 . S
C485 C469 1.411 . S
C485 C483 1.403 . S
C485 C486 1.489 . S
C486 C485 1.489 . S
C486 C487 1.383 . S
C486 C491 1.382 . S
C487 H458 0.950 . S
C487 C486 1.383 . S
C487 C488 1.395 . S
C488 H459 0.950 . S
C488 C487 1.395 . S
C488 C489 1.288 . S
C489 C488 1.288 . S
C489 C490 1.392 . S
C490 H460 0.951 . S
C490 C489 1.392 . S
C490 C491 1.392 . S
C491 H461 0.949 . S
C491 C486 1.382 . S
C491 C490 1.392 . S
H492 C511 0.949 . S
H493 C512 0.950 . S
H494 C514 0.950 . S
H495 C515 0.950 . S
H496 C517 0.950 . S
H497 C520 0.950 . S
H498 C521 0.950 . S
H499 C523 0.951 . S
H500 C524 0.949 . S
H501 C526 0.949 . S
H502 C527 0.950 . S
H503 C529 0.950 . S
H504 C530 0.950 . S
H505 C532 0.950 . S
H506 C535 0.950 . S
H507 C536 0.950 . S
H508 C538 0.951 . S
H509 C539 0.949 . S
C510 C511 1.376 . S
C510 C515 1.386 . S
C510 C516 1.483 . S
C511 H492 0.949 . S
C511 C510 1.376 . S
C511 C512 1.397 . S
C512 H493 0.950 . S
C512 C511 1.397 . S
C512 C513 1.391 . S
C513 C512 1.391 . S
C513 C514 1.405 . S
C514 H494 0.950 . S
C514 C513 1.405 . S
C514 C515 1.367 . S
C515 H495 0.950 . S
C515 C510 1.386 . S
C515 C514 1.367 . S
C516 C510 1.483 . S
C516 C517 1.382 . S
C516 C518 1.403 . S
C517 H496 0.950 . S
C517 C516 1.382 . S
C517 C533 1.411 . S
C518 C516 1.403 . S
C518 C519 1.489 . S
C518 C532 1.411 . S
C519 C518 1.489 . S
C519 C520 1.383 . S
C519 C524 1.382 . S
C520 H497 0.950 . S
C520 C519 1.383 . S
C520 C521 1.395 . S
C521 H498 0.950 . S
C521 C520 1.395 . S
C521 C522 1.288 . S
C522 C521 1.288 . S
C522 C523 1.392 . S
C523 H499 0.951 . S
C523 C522 1.392 . S
C523 C524 1.392 . S
C524 H500 0.949 . S
C524 C519 1.382 . S
C524 C523 1.392 . S
C525 C526 1.376 . S
C525 C530 1.386 . S
C525 C531 1.483 . S
C526 H501 0.949 . S
C526 C525 1.376 . S
C526 C527 1.397 . S
C527 H502 0.950 . S
C527 C526 1.397 . S
C527 C528 1.391 . S
C528 C527 1.391 . S
C528 C529 1.405 . S
C529 H503 0.950 . S
C529 C528 1.405 . S
C529 C530 1.367 . S
C530 H504 0.950 . S
C530 C525 1.386 . S
C530 C529 1.367 . S
C531 C525 1.483 . S
C531 C532 1.382 . S
C531 C533 1.403 . S
C532 H505 0.950 . S
C532 C518 1.411 . S
C532 C531 1.382 . S
C533 C517 1.411 . S
C533 C531 1.403 . S
C533 C534 1.489 . S
C534 C533 1.489 . S
C534 C535 1.383 . S
C534 C539 1.382 . S
C535 H506 0.950 . S
C535 C534 1.383 . S
C535 C536 1.395 . S
C536 H507 0.950 . S
C536 C535 1.395 . S
C536 C537 1.288 . S
C537 C536 1.288 . S
C537 C538 1.392 . S
C538 H508 0.951 . S
C538 C537 1.392 . S
C538 C539 1.392 . S
C539 H509 0.949 . S
C539 C534 1.382 . S
C539 C538 1.392 . S
H540 C559 0.949 . S
H541 C560 0.950 . S
H542 C562 0.950 . S
H543 C563 0.950 . S
H544 C565 0.950 . S
H545 C568 0.950 . S
H546 C569 0.950 . S
H547 C571 0.951 . S
H548 C572 0.949 . S
H549 C574 0.949 . S
H550 C575 0.950 . S
H551 C577 0.950 . S
H552 C578 0.950 . S
H553 C580 0.950 . S
H554 C583 0.950 . S
H555 C584 0.950 . S
H556 C586 0.951 . S
H557 C587 0.949 . S
C558 C559 1.376 . S
C558 C563 1.386 . S
C558 C564 1.483 . S
C559 H540 0.949 . S
C559 C558 1.376 . S
C559 C560 1.397 . S
C560 H541 0.950 . S
C560 C559 1.397 . S
C560 C561 1.391 . S
C561 C560 1.391 . S
C561 C562 1.405 . S
C562 H542 0.950 . S
C562 C561 1.405 . S
C562 C563 1.367 . S
C563 H543 0.950 . S
C563 C558 1.386 . S
C563 C562 1.367 . S
C564 C558 1.483 . S
C564 C565 1.382 . S
C564 C566 1.403 . S
C565 H544 0.950 . S
C565 C564 1.382 . S
C565 C581 1.411 . S
C566 C564 1.403 . S
C566 C567 1.489 . S
C566 C580 1.411 . S
C567 C566 1.489 . S
C567 C568 1.383 . S
C567 C572 1.382 . S
C568 H545 0.950 . S
C568 C567 1.383 . S
C568 C569 1.395 . S
C569 H546 0.950 . S
C569 C568 1.395 . S
C569 C570 1.288 . S
C570 C569 1.288 . S
C570 C571 1.392 . S
C571 H547 0.951 . S
C571 C570 1.392 . S
C571 C572 1.392 . S
C572 H548 0.949 . S
C572 C567 1.382 . S
C572 C571 1.392 . S
C573 C574 1.376 . S
C573 C578 1.386 . S
C573 C579 1.483 . S
C574 H549 0.949 . S
C574 C573 1.376 . S
C574 C575 1.397 . S
C575 H550 0.950 . S
C575 C574 1.397 . S
C575 C576 1.391 . S
C576 C575 1.391 . S
C576 C577 1.405 . S
C577 H551 0.950 . S
C577 C576 1.405 . S
C577 C578 1.367 . S
C578 H552 0.950 . S
C578 C573 1.386 . S
C578 C577 1.367 . S
C579 C573 1.483 . S
C579 C580 1.382 . S
C579 C581 1.403 . S
C580 H553 0.950 . S
C580 C566 1.411 . S
C580 C579 1.382 . S
C581 C565 1.411 . S
C581 C579 1.403 . S
C581 C582 1.489 . S
C582 C581 1.489 . S
C582 C583 1.383 . S
C582 C587 1.382 . S
C583 H554 0.950 . S
C583 C582 1.383 . S
C583 C584 1.395 . S
C584 H555 0.950 . S
C584 C583 1.395 . S
C584 C585 1.288 . S
C585 C584 1.288 . S
C585 C586 1.392 . S
C586 H556 0.951 . S
C586 C585 1.392 . S
C586 C587 1.392 . S
C587 H557 0.949 . S
C587 C582 1.382 . S
C587 C586 1.392 . S
H588 C607 0.949 . S
H589 C608 0.950 . S
H590 C610 0.950 . S
H591 C611 0.950 . S
H592 C613 0.950 . S
H593 C616 0.950 . S
H594 C617 0.950 . S
H595 C619 0.951 . S
H596 C620 0.949 . S
H597 C622 0.949 . S
H598 C623 0.950 . S
H599 C625 0.950 . S
H600 C626 0.950 . S
H601 C628 0.950 . S
H602 C631 0.950 . S
H603 C632 0.950 . S
H604 C634 0.951 . S
H605 C635 0.949 . S
C606 C607 1.376 . S
C606 C611 1.386 . S
C606 C612 1.483 . S
C607 H588 0.949 . S
C607 C606 1.376 . S
C607 C608 1.397 . S
C608 H589 0.950 . S
C608 C607 1.397 . S
C608 C609 1.391 . S
C609 C608 1.391 . S
C609 C610 1.405 . S
C610 H590 0.950 . S
C610 C609 1.405 . S
C610 C611 1.367 . S
C611 H591 0.950 . S
C611 C606 1.386 . S
C611 C610 1.367 . S
C612 C606 1.483 . S
C612 C613 1.382 . S
C612 C614 1.403 . S
C613 H592 0.950 . S
C613 C612 1.382 . S
C613 C629 1.411 . S
C614 C612 1.403 . S
C614 C615 1.489 . S
C614 C628 1.411 . S
C615 C614 1.489 . S
C615 C616 1.383 . S
C615 C620 1.382 . S
C616 H593 0.950 . S
C616 C615 1.383 . S
C616 C617 1.395 . S
C617 H594 0.950 . S
C617 C616 1.395 . S
C617 C618 1.288 . S
C618 C617 1.288 . S
C618 C619 1.392 . S
C619 H595 0.951 . S
C619 C618 1.392 . S
C619 C620 1.392 . S
C620 H596 0.949 . S
C620 C615 1.382 . S
C620 C619 1.392 . S
C621 C622 1.376 . S
C621 C626 1.386 . S
C621 C627 1.483 . S
C622 H597 0.949 . S
C622 C621 1.376 . S
C622 C623 1.397 . S
C623 H598 0.950 . S
C623 C622 1.397 . S
C623 C624 1.391 . S
C624 C623 1.391 . S
C624 C625 1.405 . S
C625 H599 0.950 . S
C625 C624 1.405 . S
C625 C626 1.367 . S
C626 H600 0.950 . S
C626 C621 1.386 . S
C626 C625 1.367 . S
C627 C621 1.483 . S
C627 C628 1.382 . S
C627 C629 1.403 . S
C628 H601 0.950 . S
C628 C614 1.411 . S
C628 C627 1.382 . S
C629 C613 1.411 . S
C629 C627 1.403 . S
C629 C630 1.489 . S
C630 C629 1.489 . S
C630 C631 1.383 . S
C630 C635 1.382 . S
C631 H602 0.950 . S
C631 C630 1.383 . S
C631 C632 1.395 . S
C632 H603 0.950 . S
C632 C631 1.395 . S
C632 C633 1.288 . S
C633 C632 1.288 . S
C633 C634 1.392 . S
C634 H604 0.951 . S
C634 C633 1.392 . S
C634 C635 1.392 . S
C635 H605 0.949 . S
C635 C630 1.382 . S
C635 C634 1.392 . S
H636 C655 0.949 . S
H637 C656 0.950 . S
H638 C658 0.950 . S
H639 C659 0.950 . S
H640 C661 0.950 . S
H641 C664 0.950 . S
H642 C665 0.950 . S
H643 C667 0.951 . S
H644 C668 0.949 . S
H645 C670 0.949 . S
H646 C671 0.950 . S
H647 C673 0.950 . S
H648 C674 0.950 . S
H649 C676 0.950 . S
H650 C679 0.950 . S
H651 C680 0.950 . S
H652 C682 0.951 . S
H653 C683 0.949 . S
C654 C655 1.376 . S
C654 C659 1.386 . S
C654 C660 1.483 . S
C655 H636 0.949 . S
C655 C654 1.376 . S
C655 C656 1.397 . S
C656 H637 0.950 . S
C656 C655 1.397 . S
C656 C657 1.391 . S
C657 C656 1.391 . S
C657 C658 1.405 . S
C658 H638 0.950 . S
C658 C657 1.405 . S
C658 C659 1.367 . S
C659 H639 0.950 . S
C659 C654 1.386 . S
C659 C658 1.367 . S
C660 C654 1.483 . S
C660 C661 1.382 . S
C660 C662 1.403 . S
C661 H640 0.950 . S
C661 C660 1.382 . S
C661 C677 1.411 . S
C662 C660 1.403 . S
C662 C663 1.489 . S
C662 C676 1.411 . S
C663 C662 1.489 . S
C663 C664 1.383 . S
C663 C668 1.382 . S
C664 H641 0.950 . S
C664 C663 1.383 . S
C664 C665 1.395 . S
C665 H642 0.950 . S
C665 C664 1.395 . S
C665 C666 1.288 . S
C666 C665 1.288 . S
C666 C667 1.392 . S
C667 H643 0.951 . S
C667 C666 1.392 . S
C667 C668 1.392 . S
C668 H644 0.949 . S
C668 C663 1.382 . S
C668 C667 1.392 . S
C669 C670 1.376 . S
C669 C674 1.386 . S
C669 C675 1.483 . S
C670 H645 0.949 . S
C670 C669 1.376 . S
C670 C671 1.397 . S
C671 H646 0.950 . S
C671 C670 1.397 . S
C671 C672 1.391 . S
C672 C671 1.391 . S
C672 C673 1.405 . S
C673 H647 0.950 . S
C673 C672 1.405 . S
C673 C674 1.367 . S
C674 H648 0.950 . S
C674 C669 1.386 . S
C674 C673 1.367 . S
C675 C669 1.483 . S
C675 C676 1.382 . S
C675 C677 1.403 . S
C676 H649 0.950 . S
C676 C662 1.411 . S
C676 C675 1.382 . S
C677 C661 1.411 . S
C677 C675 1.403 . S
C677 C678 1.489 . S
C678 C677 1.489 . S
C678 C679 1.383 . S
C678 C683 1.382 . S
C679 H650 0.950 . S
C679 C678 1.383 . S
C679 C680 1.395 . S
C680 H651 0.950 . S
C680 C679 1.395 . S
C680 C681 1.288 . S
C681 C680 1.288 . S
C681 C682 1.392 . S
C682 H652 0.951 . S
C682 C681 1.392 . S
C682 C683 1.392 . S
C683 H653 0.949 . S
C683 C678 1.382 . S
C683 C682 1.392 . S
H684 C703 0.949 . S
H685 C704 0.950 . S
H686 C706 0.950 . S
H687 C707 0.950 . S
H688 C709 0.950 . S
H689 C712 0.950 . S
H690 C713 0.950 . S
H691 C715 0.951 . S
H692 C716 0.949 . S
H693 C718 0.949 . S
H694 C719 0.950 . S
H695 C721 0.950 . S
H696 C722 0.950 . S
H697 C724 0.950 . S
H698 C727 0.950 . S
H699 C728 0.950 . S
H700 C730 0.951 . S
H701 C731 0.949 . S
C702 C703 1.376 . S
C702 C707 1.386 1_655 S
C702 C708 1.483 . S
C703 H684 0.949 . S
C703 C702 1.376 . S
C703 C704 1.397 . S
C704 H685 0.950 . S
C704 C703 1.397 . S
C704 C705 1.391 . S
C705 C704 1.391 . S
C705 C706 1.405 1_655 S
C706 H686 0.950 . S
C706 C705 1.405 1_455 S
C706 C707 1.367 . S
C707 H687 0.950 . S
C707 C702 1.386 1_455 S
C707 C706 1.367 . S
C708 C702 1.483 . S
C708 C709 1.382 . S
C708 C710 1.403 1_655 S
C709 H688 0.950 . S
C709 C708 1.382 . S
C709 C725 1.411 . S
C710 C708 1.403 1_455 S
C710 C711 1.489 . S
C710 C724 1.411 . S
C711 C710 1.489 . S
C711 C712 1.383 1_455 S
C711 C716 1.382 . S
C712 H689 0.950 . S
C712 C711 1.383 1_655 S
C712 C713 1.395 . S
C713 H690 0.950 . S
C713 C712 1.395 . S
C713 C714 1.288 1_655 S
C714 C713 1.288 1_455 S
C714 C715 1.392 . S
C715 H691 0.951 . S
C715 C714 1.392 . S
C715 C716 1.392 . S
C716 H692 0.949 . S
C716 C711 1.382 . S
C716 C715 1.392 . S
C717 C718 1.376 . S
C717 C722 1.386 1_455 S
C717 C723 1.483 . S
C718 H693 0.949 . S
C718 C717 1.376 . S
C718 C719 1.397 . S
C719 H694 0.950 . S
C719 C718 1.397 . S
C719 C720 1.391 . S
C720 C719 1.391 . S
C720 C721 1.405 1_455 S
C721 H695 0.950 . S
C721 C720 1.405 1_655 S
C721 C722 1.367 . S
C722 H696 0.950 . S
C722 C717 1.386 1_655 S
C722 C721 1.367 . S
C723 C717 1.483 . S
C723 C724 1.382 . S
C723 C725 1.403 1_455 S
C724 H697 0.950 . S
C724 C710 1.411 . S
C724 C723 1.382 . S
C725 C709 1.411 . S
C725 C723 1.403 1_655 S
C725 C726 1.489 . S
C726 C725 1.489 . S
C726 C727 1.383 1_655 S
C726 C731 1.382 . S
C727 H698 0.950 . S
C727 C726 1.383 1_455 S
C727 C728 1.395 . S
C728 H699 0.950 . S
C728 C727 1.395 . S
C728 C729 1.288 1_455 S
C729 C728 1.288 1_655 S
C729 C730 1.392 . S
C730 H700 0.951 . S
C730 C729 1.392 . S
C730 C731 1.392 . S
C731 H701 0.949 . S
C731 C726 1.382 . S
C731 C730 1.392 . S
H732 C751 0.949 . S
H733 C752 0.950 . S
H734 C754 0.950 . S
H735 C755 0.950 . S
H736 C757 0.950 . S
H737 C760 0.950 . S
H738 C761 0.950 . S
H739 C763 0.951 . S
H740 C764 0.949 . S
H741 C766 0.949 . S
H742 C767 0.950 . S
H743 C769 0.950 . S
H744 C770 0.950 . S
H745 C772 0.950 . S
H746 C775 0.950 . S
H747 C776 0.950 . S
H748 C778 0.951 . S
H749 C779 0.949 . S
C750 C751 1.376 . S
C750 C755 1.386 . S
C750 C756 1.483 . S
C751 H732 0.949 . S
C751 C750 1.376 . S
C751 C752 1.397 . S
C752 H733 0.950 . S
C752 C751 1.397 . S
C752 C753 1.391 . S
C753 C752 1.391 . S
C753 C754 1.405 . S
C754 H734 0.950 . S
C754 C753 1.405 . S
C754 C755 1.367 . S
C755 H735 0.950 . S
C755 C750 1.386 . S
C755 C754 1.367 . S
C756 C750 1.483 . S
C756 C757 1.382 . S
C756 C758 1.403 . S
C757 H736 0.950 . S
C757 C756 1.382 . S
C757 C773 1.411 . S
C758 C756 1.403 . S
C758 C759 1.489 . S
C758 C772 1.411 . S
C759 C758 1.489 . S
C759 C760 1.383 . S
C759 C764 1.382 . S
C760 H737 0.950 . S
C760 C759 1.383 . S
C760 C761 1.395 . S
C761 H738 0.950 . S
C761 C760 1.395 . S
C761 C762 1.288 . S
C762 C761 1.288 . S
C762 C763 1.392 . S
C763 H739 0.951 . S
C763 C762 1.392 . S
C763 C764 1.392 . S
C764 H740 0.949 . S
C764 C759 1.382 . S
C764 C763 1.392 . S
C765 C766 1.376 . S
C765 C770 1.386 . S
C765 C771 1.483 . S
C766 H741 0.949 . S
C766 C765 1.376 . S
C766 C767 1.397 . S
C767 H742 0.950 . S
C767 C766 1.397 . S
C767 C768 1.391 . S
C768 C767 1.391 . S
C768 C769 1.405 . S
C769 H743 0.950 . S
C769 C768 1.405 . S
C769 C770 1.367 . S
C770 H744 0.950 . S
C770 C765 1.386 . S
C770 C769 1.367 . S
C771 C765 1.483 . S
C771 C772 1.382 . S
C771 C773 1.403 . S
C772 H745 0.950 . S
C772 C758 1.411 . S
C772 C771 1.382 . S
C773 C757 1.411 . S
C773 C771 1.403 . S
C773 C774 1.489 . S
C774 C773 1.489 . S
C774 C775 1.383 . S
C774 C779 1.382 . S
C775 H746 0.950 . S
C775 C774 1.383 . S
C775 C776 1.395 . S
C776 H747 0.950 . S
C776 C775 1.395 . S
C776 C777 1.288 . S
C777 C776 1.288 . S
C777 C778 1.392 . S
C778 H748 0.951 . S
C778 C777 1.392 . S
C778 C779 1.392 . S
C779 H749 0.949 . S
C779 C774 1.382 . S
C779 C778 1.392 . S
H780 C799 0.949 . S
H781 C800 0.950 . S
H782 C802 0.950 . S
H783 C803 0.950 . S
H784 C805 0.950 . S
H785 C808 0.950 . S
H786 C809 0.950 . S
H787 C811 0.951 . S
H788 C812 0.949 . S
H789 C814 0.949 . S
H790 C815 0.950 . S
H791 C817 0.950 . S
H792 C818 0.950 . S
H793 C820 0.950 . S
H794 C823 0.950 . S
H795 C824 0.950 . S
H796 C826 0.951 . S
H797 C827 0.949 . S
C798 C799 1.376 . S
C798 C803 1.386 1_545 S
C798 C804 1.483 . S
C799 H780 0.949 . S
C799 C798 1.376 . S
C799 C800 1.397 . S
C800 H781 0.950 . S
C800 C799 1.397 . S
C800 C801 1.391 . S
C801 C800 1.391 . S
C801 C802 1.405 1_545 S
C802 H782 0.950 . S
C802 C801 1.405 1_565 S
C802 C803 1.367 . S
C803 H783 0.950 . S
C803 C798 1.386 1_565 S
C803 C802 1.367 . S
C804 C798 1.483 . S
C804 C805 1.382 . S
C804 C806 1.403 1_545 S
C805 H784 0.950 . S
C805 C804 1.382 . S
C805 C821 1.411 . S
C806 C804 1.403 1_565 S
C806 C807 1.489 . S
C806 C820 1.411 . S
C807 C806 1.489 . S
C807 C808 1.383 1_565 S
C807 C812 1.382 . S
C808 H785 0.950 . S
C808 C807 1.383 1_545 S
C808 C809 1.395 . S
C809 H786 0.950 . S
C809 C808 1.395 . S
C809 C810 1.288 1_545 S
C810 C809 1.288 1_565 S
C810 C811 1.392 . S
C811 H787 0.951 . S
C811 C810 1.392 . S
C811 C812 1.392 . S
C812 H788 0.949 . S
C812 C807 1.382 . S
C812 C811 1.392 . S
C813 C814 1.376 . S
C813 C818 1.386 1_565 S
C813 C819 1.483 . S
C814 H789 0.949 . S
C814 C813 1.376 . S
C814 C815 1.397 . S
C815 H790 0.950 . S
C815 C814 1.397 . S
C815 C816 1.391 . S
C816 C815 1.391 . S
C816 C817 1.405 1_565 S
C817 H791 0.950 . S
C817 C816 1.405 1_545 S
C817 C818 1.367 . S
C818 H792 0.950 . S
C818 C813 1.386 1_545 S
C818 C817 1.367 . S
C819 C813 1.483 . S
C819 C820 1.382 . S
C819 C821 1.403 1_565 S
C820 H793 0.950 . S
C820 C806 1.411 . S
C820 C819 1.382 . S
C821 C805 1.411 . S
C821 C819 1.403 1_545 S
C821 C822 1.489 . S
C822 C821 1.489 . S
C822 C823 1.383 1_545 S
C822 C827 1.382 . S
C823 H794 0.950 . S
C823 C822 1.383 1_565 S
C823 C824 1.395 . S
C824 H795 0.950 . S
C824 C823 1.395 . S
C824 C825 1.288 1_565 S
C825 C824 1.288 1_545 S
C825 C826 1.392 . S
C826 H796 0.951 . S
C826 C825 1.392 . S
C826 C827 1.392 . S
C827 H797 0.949 . S
C827 C822 1.382 . S
C827 C826 1.392 . S
H828 C847 0.949 . S
H829 C848 0.950 . S
H830 C850 0.950 . S
H831 C851 0.950 . S
H832 C853 0.950 . S
H833 C856 0.950 . S
H834 C857 0.950 . S
H835 C859 0.951 . S
H836 C860 0.949 . S
H837 C862 0.949 . S
H838 C863 0.950 . S
H839 C865 0.950 . S
H840 C866 0.950 . S
H841 C868 0.950 . S
H842 C871 0.950 . S
H843 C872 0.950 . S
H844 C874 0.951 . S
H845 C875 0.949 . S
C846 C847 1.396 . S
C846 C851 1.377 1_545 S
C846 C852 1.472 . S
C847 H828 0.949 . S
C847 C846 1.396 . S
C847 C848 1.397 . S
C848 H829 0.950 . S
C848 C847 1.397 . S
C848 C849 1.391 1_545 S
C849 C848 1.391 1_565 S
C849 C850 1.405 . S
C850 H830 0.950 . S
C850 C849 1.405 . S
C850 C851 1.367 . S
C851 H831 0.950 . S
C851 C846 1.377 1_565 S
C851 C850 1.367 . S
C852 C846 1.472 . S
C852 C853 1.382 . S
C852 C854 1.401 1_545 S
C853 H832 0.950 . S
C853 C852 1.382 . S
C853 C869 1.411 . S
C854 C852 1.401 1_565 S
C854 C855 1.482 . S
C854 C868 1.436 . S
C855 C854 1.482 . S
C855 C856 1.352 1_565 S
C855 C860 1.398 . S
C856 H833 0.950 . S
C856 C855 1.352 1_545 S
C856 C857 1.395 . S
C857 H834 0.950 . S
C857 C856 1.395 . S
C857 C858 1.288 . S
C858 C857 1.288 . S
C858 C859 1.392 1_545 S
C859 H835 0.951 . S
C859 C858 1.392 1_565 S
C859 C860 1.392 . S
C860 H836 0.949 . S
C860 C855 1.398 . S
C860 C859 1.392 . S
C861 C862 1.386 . S
C861 C866 1.381 1_565 S
C861 C867 1.501 . S
C862 H837 0.949 . S
C862 C861 1.386 . S
C862 C863 1.397 . S
C863 H838 0.950 . S
C863 C862 1.397 . S
C863 C864 1.391 1_565 S
C864 C863 1.391 1_545 S
C864 C865 1.405 . S
C865 H839 0.950 . S
C865 C864 1.405 . S
C865 C866 1.367 . S
C866 H840 0.950 . S
C866 C861 1.381 1_545 S
C866 C865 1.367 . S
C867 C861 1.501 . S
C867 C868 1.358 . S
C867 C869 1.401 1_565 S
C868 H841 0.950 . S
C868 C854 1.436 . S
C868 C867 1.358 . S
C869 C853 1.411 . S
C869 C867 1.401 1_545 S
C869 C870 1.510 . S
C870 C869 1.510 . S
C870 C871 1.339 1_545 S
C870 C875 1.405 . S
C871 H842 0.950 . S
C871 C870 1.339 1_565 S
C871 C872 1.395 . S
C872 H843 0.950 . S
C872 C871 1.395 . S
C872 C873 1.288 . S
C873 C872 1.288 . S
C873 C874 1.392 1_565 S
C874 H844 0.951 . S
C874 C873 1.392 1_545 S
C874 C875 1.392 . S
C875 H845 0.949 . S
C875 C870 1.405 . S
C875 C874 1.392 . S
H876 C895 0.949 . S
H877 C896 0.950 . S
H878 C898 0.950 . S
H879 C899 0.950 . S
H880 C901 0.950 . S
H881 C904 0.950 . S
H882 C905 0.950 . S
H883 C907 0.951 . S
H884 C908 0.949 . S
H885 C910 0.949 . S
H886 C911 0.950 . S
H887 C913 0.950 . S
H888 C914 0.950 . S
H889 C916 0.950 . S
H890 C919 0.950 . S
H891 C920 0.950 . S
H892 C922 0.951 . S
H893 C923 0.949 . S
C894 C895 1.376 . S
C894 C899 1.386 1_455 S
C894 C900 1.483 . S
C895 H876 0.949 . S
C895 C894 1.376 . S
C895 C896 1.397 . S
C896 H877 0.950 . S
C896 C895 1.397 . S
C896 C897 1.391 . S
C897 C896 1.391 . S
C897 C898 1.405 1_455 S
C898 H878 0.950 . S
C898 C897 1.405 1_655 S
C898 C899 1.367 . S
C899 H879 0.950 . S
C899 C894 1.386 1_655 S
C899 C898 1.367 . S
C900 C894 1.483 . S
C900 C901 1.382 . S
C900 C902 1.403 1_455 S
C901 H880 0.950 . S
C901 C900 1.382 . S
C901 C917 1.411 . S
C902 C900 1.403 1_655 S
C902 C903 1.489 . S
C902 C916 1.411 . S
C903 C902 1.489 . S
C903 C904 1.383 1_655 S
C903 C908 1.382 . S
C904 H881 0.950 . S
C904 C903 1.383 1_455 S
C904 C905 1.395 . S
C905 H882 0.950 . S
C905 C904 1.395 . S
C905 C906 1.288 1_455 S
C906 C905 1.288 1_655 S
C906 C907 1.392 . S
C907 H883 0.951 . S
C907 C906 1.392 . S
C907 C908 1.392 . S
C908 H884 0.949 . S
C908 C903 1.382 . S
C908 C907 1.392 . S
C909 C910 1.376 . S
C909 C914 1.386 1_655 S
C909 C915 1.483 . S
C910 H885 0.949 . S
C910 C909 1.376 . S
C910 C911 1.397 . S
C911 H886 0.950 . S
C911 C910 1.397 . S
C911 C912 1.391 . S
C912 C911 1.391 . S
C912 C913 1.405 1_655 S
C913 H887 0.950 . S
C913 C912 1.405 1_455 S
C913 C914 1.367 . S
C914 H888 0.950 . S
C914 C909 1.386 1_455 S
C914 C913 1.367 . S
C915 C909 1.483 . S
C915 C916 1.382 . S
C915 C917 1.403 1_655 S
C916 H889 0.950 . S
C916 C902 1.411 . S
C916 C915 1.382 . S
C917 C901 1.411 . S
C917 C915 1.403 1_455 S
C917 C918 1.489 . S
C918 C917 1.489 . S
C918 C919 1.383 1_455 S
C918 C923 1.382 . S
C919 H890 0.950 . S
C919 C918 1.383 1_655 S
C919 C920 1.395 . S
C920 H891 0.950 . S
C920 C919 1.395 . S
C920 C921 1.288 1_655 S
C921 C920 1.288 1_455 S
C921 C922 1.392 . S
C922 H892 0.951 . S
C922 C921 1.392 . S
C922 C923 1.392 . S
C923 H893 0.949 . S
C923 C918 1.382 . S
C923 C922 1.392 . S
H924 C943 0.949 . S
H925 C944 0.950 . S
H926 C946 0.950 . S
H927 C947 0.950 . S
H928 C949 0.950 . S
H929 C952 0.950 . S
H930 C953 0.950 . S
H931 C955 0.951 . S
H932 C956 0.949 . S
H933 C958 0.949 . S
H934 C959 0.950 . S
H935 C961 0.950 . S
H936 C962 0.950 . S
H937 C964 0.950 . S
H938 C967 0.950 . S
H939 C968 0.950 . S
H940 C970 0.951 . S
H941 C971 0.949 . S
C942 C943 1.376 . S
C942 C947 1.386 . S
C942 C948 1.483 . S
C943 H924 0.949 . S
C943 C942 1.376 . S
C943 C944 1.397 . S
C944 H925 0.950 . S
C944 C943 1.397 . S
C944 C945 1.391 . S
C945 C944 1.391 . S
C945 C946 1.405 . S
C946 H926 0.950 . S
C946 C945 1.405 . S
C946 C947 1.367 . S
C947 H927 0.950 . S
C947 C942 1.386 . S
C947 C946 1.367 . S
C948 C942 1.483 . S
C948 C949 1.382 . S
C948 C950 1.403 . S
C949 H928 0.950 . S
C949 C948 1.382 . S
C949 C965 1.411 . S
C950 C948 1.403 . S
C950 C951 1.489 . S
C950 C964 1.411 . S
C951 C950 1.489 . S
C951 C952 1.383 . S
C951 C956 1.382 . S
C952 H929 0.950 . S
C952 C951 1.383 . S
C952 C953 1.395 . S
C953 H930 0.950 . S
C953 C952 1.395 . S
C953 C954 1.288 . S
C954 C953 1.288 . S
C954 C955 1.392 . S
C955 H931 0.951 . S
C955 C954 1.392 . S
C955 C956 1.392 . S
C956 H932 0.949 . S
C956 C951 1.382 . S
C956 C955 1.392 . S
C957 C958 1.376 . S
C957 C962 1.386 . S
C957 C963 1.483 . S
C958 H933 0.949 . S
C958 C957 1.376 . S
C958 C959 1.397 . S
C959 H934 0.950 . S
C959 C958 1.397 . S
C959 C960 1.391 . S
C960 C959 1.391 . S
C960 C961 1.405 . S
C961 H935 0.950 . S
C961 C960 1.405 . S
C961 C962 1.367 . S
C962 H936 0.950 . S
C962 C957 1.386 . S
C962 C961 1.367 . S
C963 C957 1.483 . S
C963 C964 1.382 . S
C963 C965 1.403 . S
C964 H937 0.950 . S
C964 C950 1.411 . S
C964 C963 1.382 . S
C965 C949 1.411 . S
C965 C963 1.403 . S
C965 C966 1.489 . S
C966 C965 1.489 . S
C966 C967 1.383 . S
C966 C971 1.382 . S
C967 H938 0.950 . S
C967 C966 1.383 . S
C967 C968 1.395 . S
C968 H939 0.950 . S
C968 C967 1.395 . S
C968 C969 1.288 . S
C969 C968 1.288 . S
C969 C970 1.392 . S
C970 H940 0.951 . S
C970 C969 1.392 . S
C970 C971 1.392 . S
C971 H941 0.949 . S
C971 C966 1.382 . S
C971 C970 1.392 . S
H972 C991 0.949 . S
H973 C992 0.950 . S
H974 C994 0.950 . S
H975 C995 0.950 . S
H976 C997 0.950 . S
H977 C1000 0.950 . S
H978 C1001 0.950 . S
H979 C1003 0.951 . S
H980 C1004 0.949 . S
H981 C1006 0.949 . S
H982 C1007 0.950 . S
H983 C1009 0.950 . S
H984 C1010 0.950 . S
H985 C1012 0.950 . S
H986 C1015 0.950 . S
H987 C1016 0.950 . S
H988 C1018 0.951 . S
H989 C1019 0.949 . S
C990 C991 1.376 . S
C990 C995 1.386 . S
C990 C996 1.483 . S
C991 H972 0.949 . S
C991 C990 1.376 . S
C991 C992 1.397 . S
C992 H973 0.950 . S
C992 C991 1.397 . S
C992 C993 1.391 . S
C993 C992 1.391 . S
C993 C994 1.405 . S
C994 H974 0.950 . S
C994 C993 1.405 . S
C994 C995 1.367 . S
C995 H975 0.950 . S
C995 C990 1.386 . S
C995 C994 1.367 . S
C996 C990 1.483 . S
C996 C997 1.382 . S
C996 C998 1.403 . S
C997 H976 0.950 . S
C997 C996 1.382 . S
C997 C1013 1.411 . S
C998 C996 1.403 . S
C998 C999 1.489 . S
C998 C1012 1.411 . S
C999 C998 1.489 . S
C999 C1000 1.383 . S
C999 C1004 1.382 . S
C1000 H977 0.950 . S
C1000 C999 1.383 . S
C1000 C1001 1.395 . S
C1001 H978 0.950 . S
C1001 C1000 1.395 . S
C1001 C1002 1.288 . S
C1002 C1001 1.288 . S
C1002 C1003 1.392 . S
C1003 H979 0.951 . S
C1003 C1002 1.392 . S
C1003 C1004 1.392 . S
C1004 H980 0.949 . S
C1004 C999 1.382 . S
C1004 C1003 1.392 . S
C1005 C1006 1.376 . S
C1005 C1010 1.386 . S
C1005 C1011 1.483 . S
C1006 H981 0.949 . S
C1006 C1005 1.376 . S
C1006 C1007 1.397 . S
C1007 H982 0.950 . S
C1007 C1006 1.397 . S
C1007 C1008 1.391 . S
C1008 C1007 1.391 . S
C1008 C1009 1.405 . S
C1009 H983 0.950 . S
C1009 C1008 1.405 . S
C1009 C1010 1.367 . S
C1010 H984 0.950 . S
C1010 C1005 1.386 . S
C1010 C1009 1.367 . S
C1011 C1005 1.483 . S
C1011 C1012 1.382 . S
C1011 C1013 1.403 . S
C1012 H985 0.950 . S
C1012 C998 1.411 . S
C1012 C1011 1.382 . S
C1013 C997 1.411 . S
C1013 C1011 1.403 . S
C1013 C1014 1.489 . S
C1014 C1013 1.489 . S
C1014 C1015 1.383 . S
C1014 C1019 1.382 . S
C1015 H986 0.950 . S
C1015 C1014 1.383 . S
C1015 C1016 1.395 . S
C1016 H987 0.950 . S
C1016 C1015 1.395 . S
C1016 C1017 1.288 . S
C1017 C1016 1.288 . S
C1017 C1018 1.392 . S
C1018 H988 0.951 . S
C1018 C1017 1.392 . S
C1018 C1019 1.392 . S
C1019 H989 0.949 . S
C1019 C1014 1.382 . S
C1019 C1018 1.392 . S
H1020 C1039 0.949 . S
H1021 C1040 0.950 . S
H1022 C1042 0.950 . S
H1023 C1043 0.950 . S
H1024 C1045 0.950 . S
H1025 C1048 0.950 . S
H1026 C1049 0.950 . S
H1027 C1051 0.951 . S
H1028 C1052 0.949 . S
H1029 C1054 0.949 . S
H1030 C1055 0.950 . S
H1031 C1057 0.950 . S
H1032 C1058 0.950 . S
H1033 C1060 0.950 . S
H1034 C1063 0.950 . S
H1035 C1064 0.950 . S
H1036 C1066 0.951 . S
H1037 C1067 0.949 . S
C1038 C1039 1.376 . S
C1038 C1043 1.386 . S
C1038 C1044 1.483 . S
C1039 H1020 0.949 . S
C1039 C1038 1.376 . S
C1039 C1040 1.397 . S
C1040 H1021 0.950 . S
C1040 C1039 1.397 . S
C1040 C1041 1.391 . S
C1041 C1040 1.391 . S
C1041 C1042 1.405 . S
C1042 H1022 0.950 . S
C1042 C1041 1.405 . S
C1042 C1043 1.367 . S
C1043 H1023 0.950 . S
C1043 C1038 1.386 . S
C1043 C1042 1.367 . S
C1044 C1038 1.483 . S
C1044 C1045 1.382 . S
C1044 C1046 1.403 . S
C1045 H1024 0.950 . S
C1045 C1044 1.382 . S
C1045 C1061 1.411 . S
C1046 C1044 1.403 . S
C1046 C1047 1.489 . S
C1046 C1060 1.411 . S
C1047 C1046 1.489 . S
C1047 C1048 1.383 . S
C1047 C1052 1.382 . S
C1048 H1025 0.950 . S
C1048 C1047 1.383 . S
C1048 C1049 1.395 . S
C1049 H1026 0.950 . S
C1049 C1048 1.395 . S
C1049 C1050 1.288 . S
C1050 C1049 1.288 . S
C1050 C1051 1.392 . S
C1051 H1027 0.951 . S
C1051 C1050 1.392 . S
C1051 C1052 1.392 . S
C1052 H1028 0.949 . S
C1052 C1047 1.382 . S
C1052 C1051 1.392 . S
C1053 C1054 1.376 . S
C1053 C1058 1.386 . S
C1053 C1059 1.483 . S
C1054 H1029 0.949 . S
C1054 C1053 1.376 . S
C1054 C1055 1.397 . S
C1055 H1030 0.950 . S
C1055 C1054 1.397 . S
C1055 C1056 1.391 . S
C1056 C1055 1.391 . S
C1056 C1057 1.405 . S
C1057 H1031 0.950 . S
C1057 C1056 1.405 . S
C1057 C1058 1.367 . S
C1058 H1032 0.950 . S
C1058 C1053 1.386 . S
C1058 C1057 1.367 . S
C1059 C1053 1.483 . S
C1059 C1060 1.382 . S
C1059 C1061 1.403 . S
C1060 H1033 0.950 . S
C1060 C1046 1.411 . S
C1060 C1059 1.382 . S
C1061 C1045 1.411 . S
C1061 C1059 1.403 . S
C1061 C1062 1.489 . S
C1062 C1061 1.489 . S
C1062 C1063 1.383 . S
C1062 C1067 1.382 . S
C1063 H1034 0.950 . S
C1063 C1062 1.383 . S
C1063 C1064 1.395 . S
C1064 H1035 0.950 . S
C1064 C1063 1.395 . S
C1064 C1065 1.288 . S
C1065 C1064 1.288 . S
C1065 C1066 1.392 . S
C1066 H1036 0.951 . S
C1066 C1065 1.392 . S
C1066 C1067 1.392 . S
C1067 H1037 0.949 . S
C1067 C1062 1.382 . S
C1067 C1066 1.392 . S
H1068 C1087 0.949 . S
H1069 C1088 0.950 . S
H1070 C1090 0.950 . S
H1071 C1091 0.950 . S
H1072 C1093 0.950 . S
H1073 C1096 0.950 . S
H1074 C1097 0.950 . S
H1075 C1099 0.951 . S
H1076 C1100 0.949 . S
H1077 C1102 0.949 . S
H1078 C1103 0.950 . S
H1079 C1105 0.950 . S
H1080 C1106 0.950 . S
H1081 C1108 0.950 . S
H1082 C1111 0.950 . S
H1083 C1112 0.950 . S
H1084 C1114 0.951 . S
H1085 C1115 0.949 . S
C1086 C1087 1.376 . S
C1086 C1091 1.386 . S
C1086 C1092 1.483 . S
C1087 H1068 0.949 . S
C1087 C1086 1.376 . S
C1087 C1088 1.397 . S
C1088 H1069 0.950 . S
C1088 C1087 1.397 . S
C1088 C1089 1.391 . S
C1089 C1088 1.391 . S
C1089 C1090 1.405 . S
C1090 H1070 0.950 . S
C1090 C1089 1.405 . S
C1090 C1091 1.367 . S
C1091 H1071 0.950 . S
C1091 C1086 1.386 . S
C1091 C1090 1.367 . S
C1092 C1086 1.483 . S
C1092 C1093 1.382 . S
C1092 C1094 1.403 . S
C1093 H1072 0.950 . S
C1093 C1092 1.382 . S
C1093 C1109 1.411 . S
C1094 C1092 1.403 . S
C1094 C1095 1.489 . S
C1094 C1108 1.411 . S
C1095 C1094 1.489 . S
C1095 C1096 1.383 . S
C1095 C1100 1.382 . S
C1096 H1073 0.950 . S
C1096 C1095 1.383 . S
C1096 C1097 1.395 . S
C1097 H1074 0.950 . S
C1097 C1096 1.395 . S
C1097 C1098 1.288 . S
C1098 C1097 1.288 . S
C1098 C1099 1.392 . S
C1099 H1075 0.951 . S
C1099 C1098 1.392 . S
C1099 C1100 1.392 . S
C1100 H1076 0.949 . S
C1100 C1095 1.382 . S
C1100 C1099 1.392 . S
C1101 C1102 1.376 . S
C1101 C1106 1.386 . S
C1101 C1107 1.483 . S
C1102 H1077 0.949 . S
C1102 C1101 1.376 . S
C1102 C1103 1.397 . S
C1103 H1078 0.950 . S
C1103 C1102 1.397 . S
C1103 C1104 1.391 . S
C1104 C1103 1.391 . S
C1104 C1105 1.405 . S
C1105 H1079 0.950 . S
C1105 C1104 1.405 . S
C1105 C1106 1.367 . S
C1106 H1080 0.950 . S
C1106 C1101 1.386 . S
C1106 C1105 1.367 . S
C1107 C1101 1.483 . S
C1107 C1108 1.382 . S
C1107 C1109 1.403 . S
C1108 H1081 0.950 . S
C1108 C1094 1.411 . S
C1108 C1107 1.382 . S
C1109 C1093 1.411 . S
C1109 C1107 1.403 . S
C1109 C1110 1.489 . S
C1110 C1109 1.489 . S
C1110 C1111 1.383 . S
C1110 C1115 1.382 . S
C1111 H1082 0.950 . S
C1111 C1110 1.383 . S
C1111 C1112 1.395 . S
C1112 H1083 0.950 . S
C1112 C1111 1.395 . S
C1112 C1113 1.288 . S
C1113 C1112 1.288 . S
C1113 C1114 1.392 . S
C1114 H1084 0.951 . S
C1114 C1113 1.392 . S
C1114 C1115 1.392 . S
C1115 H1085 0.949 . S
C1115 C1110 1.382 . S
C1115 C1114 1.392 . S
C1116 C1117 1.387 1_455 S
C1116 H1120 0.950 . S
C1116 C1125 1.390 . S
C1117 C1116 1.387 1_655 S
C1117 C1119 1.387 . S
H1118 C1125 0.950 . S
C1119 C1117 1.387 . S
C1119 C1121 1.390 . S
C1119 H1123 0.950 . S
H1120 C1116 0.950 . S
C1121 C1119 1.390 . S
C1121 C1122 1.387 . S
C1121 H1124 0.950 . S
C1122 C1121 1.387 . S
C1122 C1125 1.387 1_655 S
H1123 C1119 0.950 . S
H1124 C1121 0.950 . S
C1125 C1116 1.390 . S
C1125 H1118 0.950 . S
C1125 C1122 1.387 1_455 S
C1126 C1127 1.387 . S
C1126 H1130 0.950 . S
C1126 C1135 1.390 . S
C1127 C1126 1.387 . S
C1127 C1129 1.387 . S
H1128 C1135 0.950 . S
C1129 C1127 1.387 . S
C1129 C1131 1.390 . S
C1129 H1133 0.950 . S
H1130 C1126 0.950 . S
C1131 C1129 1.390 . S
C1131 C1132 1.387 . S
C1131 H1134 0.950 . S
C1132 C1131 1.387 . S
C1132 C1135 1.387 . S
H1133 C1129 0.950 . S
H1134 C1131 0.950 . S
C1135 C1126 1.390 . S
C1135 H1128 0.950 . S
C1135 C1132 1.387 . S
C1136 C1137 1.387 . S
C1136 H1140 0.950 . S
C1136 C1145 1.390 . S
C1137 C1136 1.387 . S
C1137 C1139 1.387 1_545 S
H1138 C1145 0.950 . S
C1139 C1137 1.387 1_565 S
C1139 C1141 1.390 . S
C1139 H1143 0.950 . S
H1140 C1136 0.950 . S
C1141 C1139 1.390 . S
C1141 C1142 1.387 1_565 S
C1141 H1144 0.950 . S
C1142 C1141 1.387 1_545 S
C1142 C1145 1.387 . S
H1143 C1139 0.950 . S
H1144 C1141 0.950 . S
C1145 C1136 1.390 . S
C1145 H1138 0.950 . S
C1145 C1142 1.387 . S
C1146 C1147 1.387 1_545 S
C1146 H1150 0.950 . S
C1146 C1155 1.390 . S
C1147 C1146 1.387 1_565 S
C1147 C1149 1.387 . S
H1148 C1155 0.950 . S
C1149 C1147 1.387 . S
C1149 C1151 1.390 . S
C1149 H1153 0.950 . S
H1150 C1146 0.950 . S
C1151 C1149 1.390 . S
C1151 C1152 1.387 . S
C1151 H1154 0.950 . S
C1152 C1151 1.387 . S
C1152 C1155 1.387 1_565 S
H1153 C1149 0.950 . S
H1154 C1151 0.950 . S
C1155 C1146 1.390 . S
C1155 H1148 0.950 . S
C1155 C1152 1.387 1_545 S
C1156 C1157 1.387 1_655 S
C1156 H1160 0.950 . S
C1156 C1165 1.390 . S
C1157 C1156 1.387 1_455 S
C1157 C1159 1.387 . S
H1158 C1165 0.950 . S
C1159 C1157 1.387 . S
C1159 C1161 1.390 . S
C1159 H1163 0.950 . S
H1160 C1156 0.950 . S
C1161 C1159 1.390 . S
C1161 C1162 1.387 . S
C1161 H1164 0.950 . S
C1162 C1161 1.387 . S
C1162 C1165 1.387 1_455 S
H1163 C1159 0.950 . S
H1164 C1161 0.950 . S
C1165 C1156 1.390 . S
C1165 H1158 0.950 . S
C1165 C1162 1.387 1_655 S
C1166 C1167 1.387 . S
C1166 H1170 0.950 . S
C1166 C1175 1.390 . S
C1167 C1166 1.387 . S
C1167 C1169 1.387 . S
H1168 C1175 0.950 . S
C1169 C1167 1.387 . S
C1169 C1171 1.390 . S
C1169 H1173 0.950 . S
H1170 C1166 0.950 . S
C1171 C1169 1.390 . S
C1171 C1172 1.387 . S
C1171 H1174 0.950 . S
C1172 C1171 1.387 . S
C1172 C1175 1.387 . S
H1173 C1169 0.950 . S
H1174 C1171 0.950 . S
C1175 C1166 1.390 . S
C1175 H1168 0.950 . S
C1175 C1172 1.387 . S
C1176 C1177 1.387 1_655 S
C1176 H1180 0.950 . S
C1176 C1185 1.390 . S
C1177 C1176 1.387 1_455 S
C1177 C1179 1.387 . S
H1178 C1185 0.950 . S
C1179 C1177 1.387 . S
C1179 C1181 1.390 . S
C1179 H1183 0.950 . S
H1180 C1176 0.950 . S
C1181 C1179 1.390 . S
C1181 C1182 1.387 . S
C1181 H1184 0.950 . S
C1182 C1181 1.387 . S
C1182 C1185 1.387 1_455 S
H1183 C1179 0.950 . S
H1184 C1181 0.950 . S
C1185 C1176 1.390 . S
C1185 H1178 0.950 . S
C1185 C1182 1.387 1_655 S
C1186 C1187 1.387 . S
C1186 H1190 0.950 . S
C1186 C1195 1.390 . S
C1187 C1186 1.387 . S
C1187 C1189 1.387 . S
H1188 C1195 0.950 . S
C1189 C1187 1.387 . S
C1189 C1191 1.390 . S
C1189 H1193 0.950 . S
H1190 C1186 0.950 . S
C1191 C1189 1.390 . S
C1191 C1192 1.387 . S
C1191 H1194 0.950 . S
C1192 C1191 1.387 . S
C1192 C1195 1.387 . S
H1193 C1189 0.950 . S
H1194 C1191 0.950 . S
C1195 C1186 1.390 . S
C1195 H1188 0.950 . S
C1195 C1192 1.387 . S
C1196 C1197 1.387 1_545 S
C1196 H1200 0.950 . S
C1196 C1205 1.390 . S
C1197 C1196 1.387 1_565 S
C1197 C1199 1.387 . S
H1198 C1205 0.950 . S
C1199 C1197 1.387 . S
C1199 C1201 1.390 . S
C1199 H1203 0.950 . S
H1200 C1196 0.950 . S
C1201 C1199 1.390 . S
C1201 C1202 1.387 . S
C1201 H1204 0.950 . S
C1202 C1201 1.387 . S
C1202 C1205 1.387 1_565 S
H1203 C1199 0.950 . S
H1204 C1201 0.950 . S
C1205 C1196 1.390 . S
C1205 H1198 0.950 . S
C1205 C1202 1.387 1_545 S
C1206 C1207 1.387 1_565 S
C1206 H1210 0.950 . S
C1206 C1215 1.390 . S
C1207 C1206 1.387 1_545 S
C1207 C1209 1.387 . S
H1208 C1215 0.950 . S
C1209 C1207 1.387 . S
C1209 C1211 1.390 . S
C1209 H1213 0.950 . S
H1210 C1206 0.950 . S
C1211 C1209 1.390 . S
C1211 C1212 1.387 . S
C1211 H1214 0.950 . S
C1212 C1211 1.387 . S
C1212 C1215 1.387 1_545 S
H1213 C1209 0.950 . S
H1214 C1211 0.950 . S
C1215 C1206 1.390 . S
C1215 H1208 0.950 . S
C1215 C1212 1.387 1_565 S
C1216 C1217 1.387 1_455 S
C1216 H1220 0.950 . S
C1216 C1225 1.390 . S
C1217 C1216 1.387 1_655 S
C1217 C1219 1.387 . S
H1218 C1225 0.950 . S
C1219 C1217 1.387 . S
C1219 C1221 1.390 . S
C1219 H1223 0.950 . S
H1220 C1216 0.950 . S
C1221 C1219 1.390 . S
C1221 C1222 1.387 . S
C1221 H1224 0.950 . S
C1222 C1221 1.387 . S
C1222 C1225 1.387 1_655 S
H1223 C1219 0.950 . S
H1224 C1221 0.950 . S
C1225 C1216 1.390 . S
C1225 H1218 0.950 . S
C1225 C1222 1.387 1_455 S
C1226 C1227 1.387 . S
C1226 H1230 0.950 . S
C1226 C1235 1.390 . S
C1227 C1226 1.387 . S
C1227 C1229 1.387 . S
H1228 C1235 0.950 . S
C1229 C1227 1.387 . S
C1229 C1231 1.390 . S
C1229 H1233 0.950 . S
H1230 C1226 0.950 . S
C1231 C1229 1.390 . S
C1231 C1232 1.387 . S
C1231 H1234 0.950 . S
C1232 C1231 1.387 . S
C1232 C1235 1.387 . S
H1233 C1229 0.950 . S
H1234 C1231 0.950 . S
C1235 C1226 1.390 . S
C1235 H1228 0.950 . S
C1235 C1232 1.387 . S
C1236 C1237 1.387 . S
C1236 H1240 0.950 . S
C1236 C1245 1.390 . S
C1237 C1236 1.387 . S
C1237 C1239 1.387 . S
H1238 C1245 0.950 . S
C1239 C1237 1.387 . S
C1239 C1241 1.390 . S
C1239 H1243 0.950 . S
H1240 C1236 0.950 . S
C1241 C1239 1.390 . S
C1241 C1242 1.387 . S
C1241 H1244 0.950 . S
C1242 C1241 1.387 . S
C1242 C1245 1.387 . S
H1243 C1239 0.950 . S
H1244 C1241 0.950 . S
C1245 C1236 1.390 . S
C1245 H1238 0.950 . S
C1245 C1242 1.387 . S
C1246 C1247 1.387 . S
C1246 H1250 0.950 . S
C1246 C1255 1.390 . S
C1247 C1246 1.387 . S
C1247 C1249 1.387 . S
H1248 C1255 0.950 . S
C1249 C1247 1.387 . S
C1249 C1251 1.390 . S
C1249 H1253 0.950 . S
H1250 C1246 0.950 . S
C1251 C1249 1.390 . S
C1251 C1252 1.387 . S
C1251 H1254 0.950 . S
C1252 C1251 1.387 . S
C1252 C1255 1.387 . S
H1253 C1249 0.950 . S
H1254 C1251 0.950 . S
C1255 C1246 1.390 . S
C1255 H1248 0.950 . S
C1255 C1252 1.387 . S
C1256 C1257 1.387 . S
C1256 H1260 0.950 . S
C1256 C1265 1.390 . S
C1257 C1256 1.387 . S
C1257 C1259 1.387 . S
H1258 C1265 0.950 . S
C1259 C1257 1.387 . S
C1259 C1261 1.390 . S
C1259 H1263 0.950 . S
H1260 C1256 0.950 . S
C1261 C1259 1.390 . S
C1261 C1262 1.387 . S
C1261 H1264 0.950 . S
C1262 C1261 1.387 . S
C1262 C1265 1.387 . S
H1263 C1259 0.950 . S
H1264 C1261 0.950 . S
C1265 C1256 1.390 . S
C1265 H1258 0.950 . S
C1265 C1262 1.387 . S
C1266 C1267 1.387 . S
C1266 H1270 0.950 . S
C1266 C1275 1.390 . S
C1267 C1266 1.387 . S
C1267 C1269 1.387 . S
H1268 C1275 0.950 . S
C1269 C1267 1.387 . S
C1269 C1271 1.390 . S
C1269 H1273 0.950 . S
H1270 C1266 0.950 . S
C1271 C1269 1.390 . S
C1271 C1272 1.387 . S
C1271 H1274 0.950 . S
C1272 C1271 1.387 . S
C1272 C1275 1.387 . S
H1273 C1269 0.950 . S
H1274 C1271 0.950 . S
C1275 C1266 1.390 . S
C1275 H1268 0.950 . S
C1275 C1272 1.387 . S
C1276 C1277 1.387 . S
C1276 H1280 0.950 . S
C1276 C1285 1.390 . S
C1277 C1276 1.387 . S
C1277 C1279 1.387 . S
H1278 C1285 0.950 . S
C1279 C1277 1.387 . S
C1279 C1281 1.390 . S
C1279 H1283 0.950 . S
H1280 C1276 0.950 . S
C1281 C1279 1.390 . S
C1281 C1282 1.387 . S
C1281 H1284 0.950 . S
C1282 C1281 1.387 . S
C1282 C1285 1.387 . S
H1283 C1279 0.950 . S
H1284 C1281 0.950 . S
C1285 C1276 1.390 . S
C1285 H1278 0.950 . S
C1285 C1282 1.387 . S
C1286 C1287 1.387 . S
C1286 H1290 0.950 . S
C1286 C1295 1.390 . S
C1287 C1286 1.387 . S
C1287 C1289 1.387 . S
H1288 C1295 0.950 . S
C1289 C1287 1.387 . S
C1289 C1291 1.390 . S
C1289 H1293 0.950 . S
H1290 C1286 0.950 . S
C1291 C1289 1.390 . S
C1291 C1292 1.387 . S
C1291 H1294 0.950 . S
C1292 C1291 1.387 . S
C1292 C1295 1.387 . S
H1293 C1289 0.950 . S
H1294 C1291 0.950 . S
C1295 C1286 1.390 . S
C1295 H1288 0.950 . S
C1295 C1292 1.387 . S
C1296 C1297 1.387 . S
C1296 H1300 0.950 . S
C1296 C1305 1.390 . S
C1297 C1296 1.387 . S
C1297 C1299 1.387 . S
H1298 C1305 0.950 . S
C1299 C1297 1.387 . S
C1299 C1301 1.390 . S
C1299 H1303 0.950 . S
H1300 C1296 0.950 . S
C1301 C1299 1.390 . S
C1301 C1302 1.387 . S
C1301 H1304 0.950 . S
C1302 C1301 1.387 . S
C1302 C1305 1.387 . S
H1303 C1299 0.950 . S
H1304 C1301 0.950 . S
C1305 C1296 1.390 . S
C1305 H1298 0.950 . S
C1305 C1302 1.387 . S
C1306 C1307 1.387 . S
C1306 H1310 0.950 . S
C1306 C1315 1.390 . S
C1307 C1306 1.387 . S
C1307 C1309 1.387 . S
H1308 C1315 0.950 . S
C1309 C1307 1.387 . S
C1309 C1311 1.390 . S
C1309 H1313 0.950 . S
H1310 C1306 0.950 . S
C1311 C1309 1.390 . S
C1311 C1312 1.387 . S
C1311 H1314 0.950 . S
C1312 C1311 1.387 . S
C1312 C1315 1.387 . S
H1313 C1309 0.950 . S
H1314 C1311 0.950 . S
C1315 C1306 1.390 . S
C1315 H1308 0.950 . S
C1315 C1312 1.387 . S
C1316 C1317 1.387 . S
C1316 H1320 0.950 . S
C1316 C1325 1.390 . S
C1317 C1316 1.387 . S
C1317 C1319 1.387 . S
H1318 C1325 0.950 . S
C1319 C1317 1.387 . S
C1319 C1321 1.390 . S
C1319 H1323 0.950 . S
H1320 C1316 0.950 . S
C1321 C1319 1.390 . S
C1321 C1322 1.387 . S
C1321 H1324 0.950 . S
C1322 C1321 1.387 . S
C1322 C1325 1.387 . S
H1323 C1319 0.950 . S
H1324 C1321 0.950 . S
C1325 C1316 1.390 . S
C1325 H1318 0.950 . S
C1325 C1322 1.387 . S
C1326 C1327 1.387 . S
C1326 H1330 0.950 . S
C1326 C1335 1.390 . S
C1327 C1326 1.387 . S
C1327 C1329 1.387 . S
H1328 C1335 0.950 . S
C1329 C1327 1.387 . S
C1329 C1331 1.390 . S
C1329 H1333 0.950 . S
H1330 C1326 0.950 . S
C1331 C1329 1.390 . S
C1331 C1332 1.387 . S
C1331 H1334 0.950 . S
C1332 C1331 1.387 . S
C1332 C1335 1.387 . S
H1333 C1329 0.950 . S
H1334 C1331 0.950 . S
C1335 C1326 1.390 . S
C1335 H1328 0.950 . S
C1335 C1332 1.387 . S
C1336 C1337 1.387 . S
C1336 H1340 0.950 . S
C1336 C1345 1.390 . S
C1337 C1336 1.387 . S
C1337 C1339 1.387 . S
H1338 C1345 0.950 . S
C1339 C1337 1.387 . S
C1339 C1341 1.390 . S
C1339 H1343 0.950 . S
H1340 C1336 0.950 . S
C1341 C1339 1.390 . S
C1341 C1342 1.387 . S
C1341 H1344 0.950 . S
C1342 C1341 1.387 . S
C1342 C1345 1.387 . S
H1343 C1339 0.950 . S
H1344 C1341 0.950 . S
C1345 C1336 1.390 . S
C1345 H1338 0.950 . S
C1345 C1342 1.387 . S
C1346 C1347 1.387 . S
C1346 H1350 0.950 . S
C1346 C1355 1.390 . S
C1347 C1346 1.387 . S
C1347 C1349 1.387 . S
H1348 C1355 0.950 . S
C1349 C1347 1.387 . S
C1349 C1351 1.390 . S
C1349 H1353 0.950 . S
H1350 C1346 0.950 . S
C1351 C1349 1.390 . S
C1351 C1352 1.387 . S
C1351 H1354 0.950 . S
C1352 C1351 1.387 . S
C1352 C1355 1.387 . S
H1353 C1349 0.950 . S
H1354 C1351 0.950 . S
C1355 C1346 1.390 . S
C1355 H1348 0.950 . S
C1355 C1352 1.387 . S
C1356 C1357 1.387 . S
C1356 H1360 0.950 . S
C1356 C1365 1.390 . S
C1357 C1356 1.387 . S
C1357 C1359 1.387 . S
H1358 C1365 0.950 . S
C1359 C1357 1.387 . S
C1359 C1361 1.390 . S
C1359 H1363 0.950 . S
H1360 C1356 0.950 . S
C1361 C1359 1.390 . S
C1361 C1362 1.387 . S
C1361 H1364 0.950 . S
C1362 C1361 1.387 . S
C1362 C1365 1.387 . S
H1363 C1359 0.950 . S
H1364 C1361 0.950 . S
C1365 C1356 1.390 . S
C1365 H1358 0.950 . S
C1365 C1362 1.387 . S
C1366 C1367 1.387 . S
C1366 H1370 0.950 . S
C1366 C1375 1.390 . S
C1367 C1366 1.387 . S
C1367 C1369 1.387 . S
H1368 C1375 0.950 . S
C1369 C1367 1.387 . S
C1369 C1371 1.390 . S
C1369 H1373 0.950 . S
H1370 C1366 0.950 . S
C1371 C1369 1.390 . S
C1371 C1372 1.387 . S
C1371 H1374 0.950 . S
C1372 C1371 1.387 . S
C1372 C1375 1.387 . S
H1373 C1369 0.950 . S
H1374 C1371 0.950 . S
C1375 C1366 1.390 . S
C1375 H1368 0.950 . S
C1375 C1372 1.387 . S
C1376 C1377 1.387 . S
C1376 H1380 0.950 . S
C1376 C1385 1.390 . S
C1377 C1376 1.387 . S
C1377 C1379 1.387 . S
H1378 C1385 0.950 . S
C1379 C1377 1.387 . S
C1379 C1381 1.390 . S
C1379 H1383 0.950 . S
H1380 C1376 0.950 . S
C1381 C1379 1.390 . S
C1381 C1382 1.387 . S
C1381 H1384 0.950 . S
C1382 C1381 1.387 . S
C1382 C1385 1.387 . S
H1383 C1379 0.950 . S
H1384 C1381 0.950 . S
C1385 C1376 1.390 . S
C1385 H1378 0.950 . S
C1385 C1382 1.387 . S
C1386 C1387 1.387 . S
C1386 H1390 0.950 . S
C1386 C1395 1.390 . S
C1387 C1386 1.387 . S
C1387 C1389 1.387 . S
H1388 C1395 0.950 . S
C1389 C1387 1.387 . S
C1389 C1391 1.390 . S
C1389 H1393 0.950 . S
H1390 C1386 0.950 . S
C1391 C1389 1.390 . S
C1391 C1392 1.387 . S
C1391 H1394 0.950 . S
C1392 C1391 1.387 . S
C1392 C1395 1.387 . S
H1393 C1389 0.950 . S
H1394 C1391 0.950 . S
C1395 C1386 1.390 . S
C1395 H1388 0.950 . S
C1395 C1392 1.387 . S
C1396 C1397 1.387 . S
C1396 H1400 0.950 . S
C1396 C1405 1.390 . S
C1397 C1396 1.387 . S
C1397 C1399 1.387 . S
H1398 C1405 0.950 . S
C1399 C1397 1.387 . S
C1399 C1401 1.390 . S
C1399 H1403 0.950 . S
H1400 C1396 0.950 . S
C1401 C1399 1.390 . S
C1401 C1402 1.387 . S
C1401 H1404 0.950 . S
C1402 C1401 1.387 . S
C1402 C1405 1.387 . S
H1403 C1399 0.950 . S
H1404 C1401 0.950 . S
C1405 C1396 1.390 . S
C1405 H1398 0.950 . S
C1405 C1402 1.387 . S
C1406 C1407 1.387 . S
C1406 H1410 0.950 . S
C1406 C1415 1.390 . S
C1407 C1406 1.387 . S
C1407 C1409 1.387 . S
H1408 C1415 0.950 . S
C1409 C1407 1.387 . S
C1409 C1411 1.390 . S
C1409 H1413 0.950 . S
H1410 C1406 0.950 . S
C1411 C1409 1.390 . S
C1411 C1412 1.387 . S
C1411 H1414 0.950 . S
C1412 C1411 1.387 . S
C1412 C1415 1.387 . S
H1413 C1409 0.950 . S
H1414 C1411 0.950 . S
C1415 C1406 1.390 . S
C1415 H1408 0.950 . S
C1415 C1412 1.387 . S
C1416 C1417 1.387 . S
C1416 H1420 0.950 . S
C1416 C1425 1.390 . S
C1417 C1416 1.387 . S
C1417 C1419 1.387 . S
H1418 C1425 0.950 . S
C1419 C1417 1.387 . S
C1419 C1421 1.390 . S
C1419 H1423 0.950 . S
H1420 C1416 0.950 . S
C1421 C1419 1.390 . S
C1421 C1422 1.387 . S
C1421 H1424 0.950 . S
C1422 C1421 1.387 . S
C1422 C1425 1.387 . S
H1423 C1419 0.950 . S
H1424 C1421 0.950 . S
C1425 C1416 1.390 . S
C1425 H1418 0.950 . S
C1425 C1422 1.387 . S
C1426 C1427 1.387 . S
C1426 H1430 0.950 . S
C1426 C1435 1.390 . S
C1427 C1426 1.387 . S
C1427 C1429 1.387 . S
H1428 C1435 0.950 . S
C1429 C1427 1.387 . S
C1429 C1431 1.390 . S
C1429 H1433 0.950 . S
H1430 C1426 0.950 . S
C1431 C1429 1.390 . S
C1431 C1432 1.387 . S
C1431 H1434 0.950 . S
C1432 C1431 1.387 . S
C1432 C1435 1.387 . S
H1433 C1429 0.950 . S
H1434 C1431 0.950 . S
C1435 C1426 1.390 . S
C1435 H1428 0.950 . S
C1435 C1432 1.387 . S
C1436 C1437 1.387 . S
C1436 H1440 0.950 . S
C1436 C1445 1.390 . S
C1437 C1436 1.387 . S
C1437 C1439 1.387 . S
H1438 C1445 0.950 . S
C1439 C1437 1.387 . S
C1439 C1441 1.390 . S
C1439 H1443 0.950 . S
H1440 C1436 0.950 . S
C1441 C1439 1.390 . S
C1441 C1442 1.387 . S
C1441 H1444 0.950 . S
C1442 C1441 1.387 . S
C1442 C1445 1.387 . S
H1443 C1439 0.950 . S
H1444 C1441 0.950 . S
C1445 C1436 1.390 . S
C1445 H1438 0.950 . S
C1445 C1442 1.387 . S
C1446 C1447 1.387 . S
C1446 H1450 0.950 . S
C1446 C1455 1.390 . S
C1447 C1446 1.387 . S
C1447 C1449 1.387 . S
H1448 C1455 0.950 . S
C1449 C1447 1.387 . S
C1449 C1451 1.390 . S
C1449 H1453 0.950 . S
H1450 C1446 0.950 . S
C1451 C1449 1.390 . S
C1451 C1452 1.387 . S
C1451 H1454 0.950 . S
C1452 C1451 1.387 . S
C1452 C1455 1.387 . S
H1453 C1449 0.950 . S
H1454 C1451 0.950 . S
C1455 C1446 1.390 . S
C1455 H1448 0.950 . S
C1455 C1452 1.387 . S
C1456 C1457 1.387 . S
C1456 H1460 0.950 . S
C1456 C1465 1.390 . S
C1457 C1456 1.387 . S
C1457 C1459 1.387 . S
H1458 C1465 0.950 . S
C1459 C1457 1.387 . S
C1459 C1461 1.390 . S
C1459 H1463 0.950 . S
H1460 C1456 0.950 . S
C1461 C1459 1.390 . S
C1461 C1462 1.387 . S
C1461 H1464 0.950 . S
C1462 C1461 1.387 . S
C1462 C1465 1.387 . S
H1463 C1459 0.950 . S
H1464 C1461 0.950 . S
C1465 C1456 1.390 . S
C1465 H1458 0.950 . S
C1465 C1462 1.387 . S
C1466 C1467 1.387 . S
C1466 H1470 0.950 . S
C1466 C1475 1.390 . S
C1467 C1466 1.387 . S
C1467 C1469 1.387 . S
H1468 C1475 0.950 . S
C1469 C1467 1.387 . S
C1469 C1471 1.390 . S
C1469 H1473 0.950 . S
H1470 C1466 0.950 . S
C1471 C1469 1.390 . S
C1471 C1472 1.387 . S
C1471 H1474 0.950 . S
C1472 C1471 1.387 . S
C1472 C1475 1.387 . S
H1473 C1469 0.950 . S
H1474 C1471 0.950 . S
C1475 C1466 1.390 . S
C1475 H1468 0.950 . S
C1475 C1472 1.387 . S
C1476 C1477 1.387 . S
C1476 H1480 0.950 . S
C1476 C1485 1.390 . S
C1477 C1476 1.387 . S
C1477 C1479 1.387 . S
H1478 C1485 0.950 . S
C1479 C1477 1.387 . S
C1479 C1481 1.390 . S
C1479 H1483 0.950 . S
H1480 C1476 0.950 . S
C1481 C1479 1.390 . S
C1481 C1482 1.387 . S
C1481 H1484 0.950 . S
C1482 C1481 1.387 . S
C1482 C1485 1.387 . S
H1483 C1479 0.950 . S
H1484 C1481 0.950 . S
C1485 C1476 1.390 . S
C1485 H1478 0.950 . S
C1485 C1482 1.387 . S
C1486 C1487 1.387 . S
C1486 H1490 0.950 . S
C1486 C1495 1.390 . S
C1487 C1486 1.387 . S
C1487 C1489 1.387 . S
H1488 C1495 0.950 . S
C1489 C1487 1.387 . S
C1489 C1491 1.390 . S
C1489 H1493 0.950 . S
H1490 C1486 0.950 . S
C1491 C1489 1.390 . S
C1491 C1492 1.387 . S
C1491 H1494 0.950 . S
C1492 C1491 1.387 . S
C1492 C1495 1.387 . S
H1493 C1489 0.950 . S
H1494 C1491 0.950 . S
C1495 C1486 1.390 . S
C1495 H1488 0.950 . S
C1495 C1492 1.387 . S
C1496 C1497 1.387 . S
C1496 H1500 0.950 . S
C1496 C1505 1.390 . S
C1497 C1496 1.387 . S
C1497 C1499 1.387 . S
H1498 C1505 0.950 . S
C1499 C1497 1.387 . S
C1499 C1501 1.390 . S
C1499 H1503 0.950 . S
H1500 C1496 0.950 . S
C1501 C1499 1.390 . S
C1501 C1502 1.387 . S
C1501 H1504 0.950 . S
C1502 C1501 1.387 . S
C1502 C1505 1.387 . S
H1503 C1499 0.950 . S
H1504 C1501 0.950 . S
C1505 C1496 1.390 . S
C1505 H1498 0.950 . S
C1505 C1502 1.387 . S
C1506 C1507 1.387 . S
C1506 H1510 0.950 1_556 S
C1506 C1515 1.390 . S
C1507 C1506 1.387 . S
C1507 C1509 1.387 . S
H1508 C1515 0.950 . S
C1509 C1507 1.387 . S
C1509 C1511 1.390 . S
C1509 H1513 0.950 . S
H1510 C1506 0.950 1_554 S
C1511 C1509 1.390 . S
C1511 C1512 1.387 . S
C1511 H1514 0.950 . S
C1512 C1511 1.387 . S
C1512 C1515 1.387 . S
H1513 C1509 0.950 . S
H1514 C1511 0.950 . S
C1515 C1506 1.390 . S
C1515 H1508 0.950 . S
C1515 C1512 1.387 . S
C1516 C1517 1.387 . S
C1516 H1520 0.950 . S
C1516 C1525 1.390 . S
C1517 C1516 1.387 . S
C1517 C1519 1.387 . S
H1518 C1525 0.950 . S
C1519 C1517 1.387 . S
C1519 C1521 1.390 . S
C1519 H1523 0.950 1_556 S
H1520 C1516 0.950 . S
C1521 C1519 1.390 . S
C1521 C1522 1.387 . S
C1521 H1524 0.950 . S
C1522 C1521 1.387 . S
C1522 C1525 1.387 . S
H1523 C1519 0.950 1_554 S
H1524 C1521 0.950 . S
C1525 C1516 1.390 . S
C1525 H1518 0.950 . S
C1525 C1522 1.387 . S
C1526 C1527 1.387 . S
C1526 H1530 0.972 . S
C1526 C1535 1.390 . S
C1527 C1526 1.387 . S
C1527 C1529 1.387 . S
H1528 C1535 0.950 . S
C1529 C1527 1.387 . S
C1529 C1531 1.390 . S
C1529 H1533 0.950 . S
H1530 C1526 0.972 . S
C1531 C1529 1.390 . S
C1531 C1532 1.387 . S
C1531 H1534 0.950 . S
C1532 C1531 1.387 . S
C1532 C1535 1.387 . S
H1533 C1529 0.950 . S
H1534 C1531 0.950 . S
C1535 C1526 1.390 . S
C1535 H1528 0.950 . S
C1535 C1532 1.387 . S
C1536 C1537 1.387 . S
C1536 H1540 0.950 . S
C1536 C1545 1.390 . S
C1537 C1536 1.387 . S
C1537 C1539 1.387 . S
H1538 C1545 0.950 . S
C1539 C1537 1.387 . S
C1539 C1541 1.390 . S
C1539 H1543 0.950 . S
H1540 C1536 0.950 . S
C1541 C1539 1.390 . S
C1541 C1542 1.387 . S
C1541 H1544 0.950 . S
C1542 C1541 1.387 . S
C1542 C1545 1.387 . S
H1543 C1539 0.950 . S
H1544 C1541 0.950 . S
C1545 C1536 1.390 . S
C1545 H1538 0.950 . S
C1545 C1542 1.387 . S
C1546 C1547 1.387 . S
C1546 H1550 0.950 . S
C1546 C1555 1.390 . S
C1547 C1546 1.387 . S
C1547 C1549 1.387 . S
H1548 C1555 0.950 . S
C1549 C1547 1.387 . S
C1549 C1551 1.390 . S
C1549 H1553 0.950 . S
H1550 C1546 0.950 . S
C1551 C1549 1.390 . S
C1551 C1552 1.387 . S
C1551 H1554 0.950 . S
C1552 C1551 1.387 . S
C1552 C1555 1.387 . S
H1553 C1549 0.950 . S
H1554 C1551 0.950 . S
C1555 C1546 1.390 . S
C1555 H1548 0.950 . S
C1555 C1552 1.387 . S
C1556 C1557 1.387 . S
C1556 H1560 0.950 . S
C1556 C1565 1.390 . S
C1557 C1556 1.387 . S
C1557 C1559 1.387 . S
H1558 C1565 0.950 . S
C1559 C1557 1.387 . S
C1559 C1561 1.390 . S
C1559 H1563 0.950 1_556 S
H1560 C1556 0.950 . S
C1561 C1559 1.390 . S
C1561 C1562 1.387 . S
C1561 H1564 0.950 . S
C1562 C1561 1.387 . S
C1562 C1565 1.387 . S
H1563 C1559 0.950 1_554 S
H1564 C1561 0.950 . S
C1565 C1556 1.390 . S
C1565 H1558 0.950 . S
C1565 C1562 1.387 . S
C1566 C1567 1.387 . S
C1566 H1570 0.950 . S
C1566 C1575 1.390 . S
C1567 C1566 1.387 . S
C1567 C1569 1.387 . S
H1568 C1575 0.950 . S
C1569 C1567 1.387 . S
C1569 C1571 1.390 . S
C1569 H1573 0.950 . S
H1570 C1566 0.950 . S
C1571 C1569 1.390 . S
C1571 C1572 1.387 . S
C1571 H1574 0.950 . S
C1572 C1571 1.387 . S
C1572 C1575 1.387 . S
H1573 C1569 0.950 . S
H1574 C1571 0.950 . S
C1575 C1566 1.390 . S
C1575 H1568 0.950 . S
C1575 C1572 1.387 . S
C1576 C1577 1.387 . S
C1576 H1580 0.950 . S
C1576 C1585 1.390 . S
C1577 C1576 1.387 . S
C1577 C1579 1.387 . S
H1578 C1585 0.950 . S
C1579 C1577 1.387 . S
C1579 C1581 1.390 . S
C1579 H1583 0.950 . S
H1580 C1576 0.950 . S
C1581 C1579 1.390 . S
C1581 C1582 1.387 . S
C1581 H1584 0.950 . S
C1582 C1581 1.387 . S
C1582 C1585 1.387 . S
H1583 C1579 0.950 . S
H1584 C1581 0.950 . S
C1585 C1576 1.390 . S
C1585 H1578 0.950 . S
C1585 C1582 1.387 . S
C1586 C1587 1.387 . S
C1586 H1590 0.950 . S
C1586 C1595 1.390 . S
C1587 C1586 1.387 . S
C1587 C1589 1.387 . S
H1588 C1595 0.950 . S
C1589 C1587 1.387 . S
C1589 C1591 1.390 . S
C1589 H1593 0.950 . S
H1590 C1586 0.950 . S
C1591 C1589 1.390 . S
C1591 C1592 1.387 . S
C1591 H1594 0.950 . S
C1592 C1591 1.387 . S
C1592 C1595 1.387 . S
H1593 C1589 0.950 . S
H1594 C1591 0.950 . S
C1595 C1586 1.390 . S
C1595 H1588 0.950 . S
C1595 C1592 1.387 . S
C1596 C1597 1.387 . S
C1596 H1600 0.950 . S
C1596 C1605 1.390 . S
C1597 C1596 1.387 . S
C1597 C1599 1.387 . S
H1598 C1605 0.950 . S
C1599 C1597 1.387 . S
C1599 C1601 1.390 . S
C1599 H1603 0.950 . S
H1600 C1596 0.950 . S
C1601 C1599 1.390 . S
C1601 C1602 1.387 . S
C1601 H1604 0.950 . S
C1602 C1601 1.387 . S
C1602 C1605 1.387 . S
H1603 C1599 0.950 . S
H1604 C1601 0.950 . S
C1605 C1596 1.390 . S
C1605 H1598 0.950 . S
C1605 C1602 1.387 . S
C1606 C1607 1.387 . S
C1606 H1610 0.950 . S
C1606 C1615 1.390 . S
C1607 C1606 1.387 . S
C1607 C1609 1.387 . S
H1608 C1615 0.950 . S
C1609 C1607 1.387 . S
C1609 C1611 1.390 . S
C1609 H1613 0.950 . S
H1610 C1606 0.950 . S
C1611 C1609 1.390 . S
C1611 C1612 1.387 . S
C1611 H1614 0.950 . S
C1612 C1611 1.387 . S
C1612 C1615 1.387 . S
H1613 C1609 0.950 . S
H1614 C1611 0.950 . S
C1615 C1606 1.390 . S
C1615 H1608 0.950 . S
C1615 C1612 1.387 . S
C1616 C1617 1.387 . S
C1616 H1620 0.950 . S
C1616 C1625 1.390 . S
C1617 C1616 1.387 . S
C1617 C1619 1.387 . S
H1618 C1625 0.950 . S
C1619 C1617 1.387 . S
C1619 C1621 1.390 . S
C1619 H1623 0.950 . S
H1620 C1616 0.950 . S
C1621 C1619 1.390 . S
C1621 C1622 1.387 . S
C1621 H1624 0.950 . S
C1622 C1621 1.387 . S
C1622 C1625 1.387 . S
H1623 C1619 0.950 . S
H1624 C1621 0.950 . S
C1625 C1616 1.390 . S
C1625 H1618 0.950 . S
C1625 C1622 1.387 . S
C1626 C1627 1.387 . S
C1626 H1630 0.950 1_455 S
C1626 C1635 1.376 1_455 S
C1627 C1626 1.387 . S
C1627 C1629 1.387 . S
H1628 C1635 0.959 . S
C1629 C1627 1.387 . S
C1629 C1631 1.390 . S
C1629 H1633 0.950 . S
H1630 C1626 0.950 1_655 S
C1631 C1629 1.390 . S
C1631 C1632 1.387 . S
C1631 H1634 0.950 . S
C1632 C1631 1.387 . S
C1632 C1635 1.393 1_455 S
H1633 C1629 0.950 . S
H1634 C1631 0.950 . S
C1635 C1626 1.376 1_655 S
C1635 H1628 0.959 . S
C1635 C1632 1.393 1_655 S
C1636 C1637 1.387 . S
C1636 H1640 0.950 . S
C1636 C1645 1.390 . S
C1637 C1636 1.387 . S
C1637 C1639 1.387 . S
H1638 C1645 0.950 . S
C1639 C1637 1.387 . S
C1639 C1641 1.390 . S
C1639 H1643 0.950 . S
H1640 C1636 0.950 . S
C1641 C1639 1.390 . S
C1641 C1642 1.387 . S
C1641 H1644 0.950 . S
C1642 C1641 1.387 . S
C1642 C1645 1.387 . S
H1643 C1639 0.950 . S
H1644 C1641 0.950 . S
C1645 C1636 1.390 . S
C1645 H1638 0.950 . S
C1645 C1642 1.387 . S
C1646 C1647 1.387 . S
C1646 H1650 0.950 . S
C1646 C1655 1.390 . S
C1647 C1646 1.387 . S
C1647 C1649 1.387 1_565 S
H1648 C1655 0.950 . S
C1649 C1647 1.387 1_545 S
C1649 C1651 1.390 . S
C1649 H1653 0.950 . S
H1650 C1646 0.950 . S
C1651 C1649 1.390 . S
C1651 C1652 1.387 1_545 S
C1651 H1654 0.950 . S
C1652 C1651 1.387 1_565 S
C1652 C1655 1.387 . S
H1653 C1649 0.950 . S
H1654 C1651 0.950 . S
C1655 C1646 1.390 . S
C1655 H1648 0.950 . S
C1655 C1652 1.387 . S
C1656 C1657 1.387 . S
C1656 H1660 0.950 . S
C1656 C1665 1.390 . S
C1657 C1656 1.387 . S
C1657 C1659 1.387 1_565 S
H1658 C1665 0.950 . S
C1659 C1657 1.387 1_545 S
C1659 C1661 1.390 . S
C1659 H1663 0.950 . S
H1660 C1656 0.950 . S
C1661 C1659 1.390 . S
C1661 C1662 1.387 1_545 S
C1661 H1664 0.950 . S
C1662 C1661 1.387 1_565 S
C1662 C1665 1.387 . S
H1663 C1659 0.950 . S
H1664 C1661 0.950 . S
C1665 C1656 1.390 . S
C1665 H1658 0.950 . S
C1665 C1662 1.387 . S
C1666 C1667 1.387 . S
C1666 H1670 0.950 . S
C1666 C1675 1.390 . S
C1667 C1666 1.387 . S
C1667 C1669 1.394 1_455 S
H1668 C1675 0.950 . S
C1669 C1667 1.394 1_655 S
C1669 C1671 1.377 . S
C1669 H1673 0.958 . S
H1670 C1666 0.950 . S
C1671 C1669 1.377 . S
C1671 C1672 1.387 1_655 S
C1671 H1674 0.950 . S
C1672 C1671 1.387 1_455 S
C1672 C1675 1.387 . S
H1673 C1669 0.958 . S
H1674 C1671 0.950 . S
C1675 C1666 1.390 . S
C1675 H1668 0.950 . S
C1675 C1672 1.387 . S
C1676 C1677 1.387 . S
C1676 H1680 0.950 . S
C1676 C1685 1.390 . S
C1677 C1676 1.387 . S
C1677 C1679 1.387 . S
H1678 C1685 0.950 . S
C1679 C1677 1.387 . S
C1679 C1681 1.390 . S
C1679 H1683 0.950 . S
H1680 C1676 0.950 . S
C1681 C1679 1.390 . S
C1681 C1682 1.387 . S
C1681 H1684 0.950 . S
C1682 C1681 1.387 . S
C1682 C1685 1.387 . S
H1683 C1679 0.950 . S
H1684 C1681 0.950 . S
C1685 C1676 1.390 . S
C1685 H1678 0.950 . S
C1685 C1682 1.387 . S
C1686 C1687 1.387 . S
C1686 H1690 0.950 . S
C1686 C1695 1.390 . S
C1687 C1686 1.387 . S
C1687 C1689 1.387 . S
H1688 C1695 0.950 . S
C1689 C1687 1.387 . S
C1689 C1691 1.390 . S
C1689 H1693 0.950 . S
H1690 C1686 0.950 . S
C1691 C1689 1.390 . S
C1691 C1692 1.387 . S
C1691 H1694 0.950 . S
C1692 C1691 1.387 . S
C1692 C1695 1.387 . S
H1693 C1689 0.950 . S
H1694 C1691 0.950 . S
C1695 C1686 1.390 . S
C1695 H1688 0.950 . S
C1695 C1692 1.387 . S
C1696 C1697 1.387 . S
C1696 H1700 0.950 . S
C1696 C1705 1.390 . S
C1697 C1696 1.387 . S
C1697 C1699 1.387 . S
H1698 C1705 0.950 . S
C1699 C1697 1.387 . S
C1699 C1701 1.390 . S
C1699 H1703 0.950 . S
H1700 C1696 0.950 . S
C1701 C1699 1.390 . S
C1701 C1702 1.387 . S
C1701 H1704 0.950 . S
C1702 C1701 1.387 . S
C1702 C1705 1.387 . S
H1703 C1699 0.950 . S
H1704 C1701 0.950 . S
C1705 C1696 1.390 . S
C1705 H1698 0.950 . S
C1705 C1702 1.387 . S
C1706 C1707 1.387 . S
C1706 H1710 0.950 . S
C1706 C1715 1.390 . S
C1707 C1706 1.387 . S
C1707 C1709 1.387 . S
H1708 C1715 0.950 . S
C1709 C1707 1.387 . S
C1709 C1711 1.390 . S
C1709 H1713 0.950 . S
H1710 C1706 0.950 . S
C1711 C1709 1.390 . S
C1711 C1712 1.387 . S
C1711 H1714 0.950 . S
C1712 C1711 1.387 . S
C1712 C1715 1.387 . S
H1713 C1709 0.950 . S
H1714 C1711 0.950 . S
C1715 C1706 1.390 . S
C1715 H1708 0.950 . S
C1715 C1712 1.387 . S
C1716 C1717 1.387 . S
C1716 H1720 0.950 . S
C1716 C1725 1.390 . S
C1717 C1716 1.387 . S
C1717 C1719 1.387 1_545 S
H1718 C1725 0.950 . S
C1719 C1717 1.387 1_565 S
C1719 C1721 1.390 . S
C1719 H1723 0.950 . S
H1720 C1716 0.950 . S
C1721 C1719 1.390 . S
C1721 C1722 1.387 1_565 S
C1721 H1724 0.950 . S
C1722 C1721 1.387 1_545 S
C1722 C1725 1.387 . S
H1723 C1719 0.950 . S
H1724 C1721 0.950 . S
C1725 C1716 1.390 . S
C1725 H1718 0.950 . S
C1725 C1722 1.387 . S
C1726 C1727 1.387 . S
C1726 H1730 0.950 . S
C1726 C1735 1.390 . S
C1727 C1726 1.387 . S
C1727 C1729 1.387 1_655 S
H1728 C1735 0.950 . S
C1729 C1727 1.387 1_455 S
C1729 C1731 1.390 . S
C1729 H1733 0.950 . S
H1730 C1726 0.950 . S
C1731 C1729 1.390 . S
C1731 C1732 1.387 1_455 S
C1731 H1734 0.950 . S
C1732 C1731 1.387 1_655 S
C1732 C1735 1.387 . S
H1733 C1729 0.950 . S
H1734 C1731 0.950 . S
C1735 C1726 1.390 . S
C1735 H1728 0.950 . S
C1735 C1732 1.387 . S
C1736 C1737 1.387 . S
C1736 H1740 0.950 . S
C1736 C1745 1.390 . S
C1737 C1736 1.387 . S
C1737 C1739 1.387 . S
H1738 C1745 0.950 . S
C1739 C1737 1.387 . S
C1739 C1741 1.390 . S
C1739 H1743 0.950 . S
H1740 C1736 0.950 . S
C1741 C1739 1.390 . S
C1741 C1742 1.387 . S
C1741 H1744 0.950 . S
C1742 C1741 1.387 . S
C1742 C1745 1.387 . S
H1743 C1739 0.950 . S
H1744 C1741 0.950 . S
C1745 C1736 1.390 . S
C1745 H1738 0.950 . S
C1745 C1742 1.387 . S
C1746 C1747 1.387 . S
C1746 H1750 0.950 . S
C1746 C1755 1.390 . S
C1747 C1746 1.387 . S
C1747 C1749 1.387 . S
H1748 C1755 0.950 . S
C1749 C1747 1.387 . S
C1749 C1751 1.390 . S
C1749 H1753 0.950 . S
H1750 C1746 0.950 . S
C1751 C1749 1.390 . S
C1751 C1752 1.387 . S
C1751 H1754 0.950 . S
C1752 C1751 1.387 . S
C1752 C1755 1.387 . S
H1753 C1749 0.950 . S
H1754 C1751 0.950 . S
C1755 C1746 1.390 . S
C1755 H1748 0.950 . S
C1755 C1752 1.387 . S
C1756 C1757 1.387 . S
C1756 H1760 0.950 . S
C1756 C1765 1.390 . S
C1757 C1756 1.387 . S
C1757 C1759 1.387 . S
H1758 C1765 0.950 . S
C1759 C1757 1.387 . S
C1759 C1761 1.390 . S
C1759 H1763 0.950 . S
H1760 C1756 0.950 . S
C1761 C1759 1.390 . S
C1761 C1762 1.387 . S
C1761 H1764 0.950 . S
C1762 C1761 1.387 . S
C1762 C1765 1.387 . S
H1763 C1759 0.950 . S
H1764 C1761 0.950 . S
C1765 C1756 1.390 . S
C1765 H1758 0.950 . S
C1765 C1762 1.387 . S
C1766 C1767 1.387 . S
C1766 H1770 0.950 . S
C1766 C1775 1.390 . S
C1767 C1766 1.387 . S
C1767 C1769 1.387 . S
H1768 C1775 0.950 . S
C1769 C1767 1.387 . S
C1769 C1771 1.390 . S
C1769 H1773 0.950 . S
H1770 C1766 0.950 . S
C1771 C1769 1.390 . S
C1771 C1772 1.387 . S
C1771 H1774 0.950 . S
C1772 C1771 1.387 . S
C1772 C1775 1.387 . S
H1773 C1769 0.950 . S
H1774 C1771 0.950 . S
C1775 C1766 1.390 . S
C1775 H1768 0.950 . S
C1775 C1772 1.387 . S
C1776 C1777 1.387 . S
C1776 H1780 0.950 . S
C1776 C1785 1.390 . S
C1777 C1776 1.387 . S
C1777 C1779 1.387 . S
H1778 C1785 0.950 . S
C1779 C1777 1.387 . S
C1779 C1781 1.390 . S
C1779 H1783 0.950 . S
H1780 C1776 0.950 . S
C1781 C1779 1.390 . S
C1781 C1782 1.387 . S
C1781 H1784 0.950 . S
C1782 C1781 1.387 . S
C1782 C1785 1.387 . S
H1783 C1779 0.950 . S
H1784 C1781 0.950 . S
C1785 C1776 1.390 . S
C1785 H1778 0.950 . S
C1785 C1782 1.387 . S
C1786 C1787 1.387 . S
C1786 H1790 0.950 . S
C1786 C1795 1.390 . S
C1787 C1786 1.387 . S
C1787 C1789 1.387 . S
H1788 C1795 0.950 . S
C1789 C1787 1.387 . S
C1789 C1791 1.390 . S
C1789 H1793 0.950 . S
H1790 C1786 0.950 . S
C1791 C1789 1.390 . S
C1791 C1792 1.387 . S
C1791 H1794 0.950 . S
C1792 C1791 1.387 . S
C1792 C1795 1.387 . S
H1793 C1789 0.950 . S
H1794 C1791 0.950 . S
C1795 C1786 1.390 . S
C1795 H1788 0.950 . S
C1795 C1792 1.387 . S
C1796 C1797 1.387 . S
C1796 H1800 0.950 . S
C1796 C1805 1.390 . S
C1797 C1796 1.387 . S
C1797 C1799 1.387 . S
H1798 C1805 0.950 . S
C1799 C1797 1.387 . S
C1799 C1801 1.390 . S
C1799 H1803 0.950 . S
H1800 C1796 0.950 . S
C1801 C1799 1.390 . S
C1801 C1802 1.387 . S
C1801 H1804 0.950 . S
C1802 C1801 1.387 . S
C1802 C1805 1.387 . S
H1803 C1799 0.950 . S
H1804 C1801 0.950 . S
C1805 C1796 1.390 . S
C1805 H1798 0.950 . S
C1805 C1802 1.387 . S
C1806 C1807 1.387 . S
C1806 H1810 0.956 1_655 S
C1806 C1815 1.390 . S
C1807 C1806 1.387 . S
C1807 C1809 1.387 . S
H1808 C1815 0.950 1_455 S
C1809 C1807 1.387 . S
C1809 C1811 1.390 . S
C1809 H1813 0.950 . S
H1810 C1806 0.956 1_455 S
C1811 C1809 1.390 . S
C1811 C1812 1.387 . S
C1811 H1814 0.950 . S
C1812 C1811 1.387 . S
C1812 C1815 1.387 . S
H1813 C1809 0.950 . S
H1814 C1811 0.950 . S
C1815 C1806 1.390 . S
C1815 H1808 0.950 1_655 S
C1815 C1812 1.387 . S
C1816 C1817 1.387 . S
C1816 H1820 0.950 . S
C1816 C1825 1.390 . S
C1817 C1816 1.387 . S
C1817 C1819 1.387 . S
H1818 C1825 0.950 . S
C1819 C1817 1.387 . S
C1819 C1821 1.390 . S
C1819 H1823 0.950 . S
H1820 C1816 0.950 . S
C1821 C1819 1.390 . S
C1821 C1822 1.387 . S
C1821 H1824 0.950 . S
C1822 C1821 1.387 . S
C1822 C1825 1.387 . S
H1823 C1819 0.950 . S
H1824 C1821 0.950 . S
C1825 C1816 1.390 . S
C1825 H1818 0.950 . S
C1825 C1822 1.387 . S
C1826 C1827 1.387 . S
C1826 H1830 0.950 . S
C1826 C1835 1.390 . S
C1827 C1826 1.387 . S
C1827 C1829 1.387 1_545 S
H1828 C1835 0.950 . S
C1829 C1827 1.387 1_565 S
C1829 C1831 1.390 . S
C1829 H1833 0.950 . S
H1830 C1826 0.950 . S
C1831 C1829 1.390 . S
C1831 C1832 1.387 1_565 S
C1831 H1834 0.950 . S
C1832 C1831 1.387 1_545 S
C1832 C1835 1.387 . S
H1833 C1829 0.950 . S
H1834 C1831 0.950 . S
C1835 C1826 1.390 . S
C1835 H1828 0.950 . S
C1835 C1832 1.387 . S
C1117 C7 1.486 . S
C1122 C729 1.497 . S
C1127 C23 1.625 . S
C1132 C777 1.612 . S
C1142 C825 1.510 . S
C1137 C37 1.485 . S
C1147 C35 1.489 . S
C1152 C849 1.510 . S
C1157 C9 1.485 . S
C1162 C921 1.515 . S
C1167 C21 1.591 . S
C1172 C969 1.625 . S
C1177 C49 1.485 . S
C1182 C897 1.504 . S
C1192 C945 1.613 . S
C1187 C65 1.627 . S
C1202 C873 1.515 . S
C1197 C79 1.499 1_565 S
C1207 C77 1.477 . S
C1212 C801 1.497 . S
C1222 C705 1.531 . S
C1217 C51 1.506 1_655 S
C1227 C63 1.592 . S
C1232 C753 1.624 . S
C1237 C91 1.645 . S
C1242 C1017 1.683 . S
C1247 C107 1.693 . S
C1252 C1065 1.669 . S
C1262 C1089 1.651 . S
C1257 C121 1.701 . S
C1267 C119 1.625 . S
C1272 C273 1.637 . S
C1277 C93 1.693 . S
C1282 C345 1.672 . S
C1287 C105 1.638 . S
C1292 C393 1.663 . S
C1297 C133 1.582 . S
C1302 C321 1.614 . S
C1307 C149 1.674 . S
C1312 C369 1.650 . S
C1322 C297 1.615 . S
C1317 C163 1.688 . S
C1332 C1113 1.660 . S
C1327 C161 1.679 . S
C1342 C993 1.666 . S
C1337 C135 1.696 . S
C1352 C1041 1.690 . S
C1347 C147 1.655 . S
C1357 C175 1.581 . S
C1362 C441 1.616 . S
C1367 C191 1.666 . S
C1372 C489 1.645 . S
C1377 C205 1.690 . S
C1382 C513 1.646 . S
C1387 C203 1.684 . S
C1392 C561 1.698 . S
C1402 C633 1.676 . S
C1397 C177 1.700 . S
C1412 C681 1.695 . S
C1407 C189 1.659 . S
C1422 C609 1.688 . S
C1417 C217 1.652 . S
C1432 C657 1.674 . S
C1427 C233 1.701 . S
C1437 C247 1.695 . S
C1442 C585 1.617 . S
C1452 C537 1.598 . S
C1447 C245 1.618 . S
C1457 C219 1.691 . S
C1462 C417 1.667 . S
C1472 C465 1.664 . S
C1467 C231 1.640 . S
C1482 C282 1.621 . S
C1477 C8 1.622 . S
C1487 C17 1.556 . S
C1492 C336 1.520 . S
C1502 C384 1.596 . S
C1497 C31 1.621 . S
C1512 C432 1.599 . S
C1507 C36 1.636 . S
C1522 C480 1.577 . S
C1517 C3 1.607 . S
C1532 C522 1.567 . S
C1527 C22 1.570 . S
C1537 C50 1.628 . S
C1542 C528 1.616 . S
C1547 C59 1.552 . S
C1552 C426 1.505 . S
C1557 C73 1.604 . S
C1562 C474 1.561 . S
C1567 C78 1.647 . S
C1572 C330 1.600 . S
C1582 C378 1.563 . S
C1577 C45 1.608 . S
C1587 C64 1.575 . S
C1592 C288 1.552 . S
C1602 C570 1.599 . S
C1597 C92 1.601 . S
C1607 C101 1.651 . S
C1612 C624 1.613 . S
C1617 C115 1.663 . S
C1622 C672 1.628 . S
C1632 C720 1.467 . S
C1627 C120 1.467 . S
C1637 C87 1.590 . S
C1642 C768 1.558 . S
C1647 C106 1.432 . S
C1652 C816 1.434 . S
C1657 C134 1.451 . S
C1662 C810 1.452 . S
C1667 C143 1.456 . S
C1672 C714 1.451 . S
C1682 C762 1.557 . S
C1677 C157 1.596 . S
C1687 C162 1.611 . S
C1692 C618 1.559 . S
C1697 C129 1.658 . S
C1702 C666 1.606 . S
C1712 C576 1.631 . S
C1707 C148 1.656 . S
C1722 C858 1.454 . S
C1717 C176 1.449 . S
C1727 C185 1.453 . S
C1732 C912 1.447 . S
C1737 C199 1.599 . S
C1742 C960 1.571 . S
C1752 C1008 1.570 . S
C1747 C204 1.606 . S
C1762 C1056 1.617 . S
C1757 C171 1.657 . S
C1767 C190 1.653 . S
C1772 C1098 1.648 . S
C1777 C218 1.607 . S
C1782 C1104 1.588 . S
C1787 C227 1.647 . S
C1792 C1002 1.597 . S
C1802 C1050 1.605 . S
C1797 C241 1.649 . S
C1812 C906 1.457 . S
C1807 C246 1.456 . S
C1822 C954 1.551 . S
C1817 C213 1.595 . S
C1827 C232 1.440 . S
C1832 C864 1.441 . S
