# Generated by pormake.
# Topology eea, (3,6)-cn, num edge types: 1
# Building blocks:
#     Node 0, Type 0, BuildingBlock: VETTIZ_charged_linker_0, # of connection points: 3
#     Node 1, Type 0, BuildingBlock: VETTIZ_charged_linker_0, # of connection points: 3
#     Node 2, Type 0, BuildingBlock: VETTIZ_charged_linker_0, # of connection points: 3
#     Node 3, Type 0, BuildingBlock: VETTIZ_charged_linker_0, # of connection points: 3
#     Node 4, Type 0, BuildingBlock: VETTIZ_charged_linker_0, # of connection points: 3
#     Node 5, Type 0, BuildingBlock: VETTIZ_charged_linker_0, # of connection points: 3
#     Node 6, Type 0, BuildingBlock: VETTIZ_charged_linker_0, # of connection points: 3
#     Node 7, Type 0, BuildingBlock: VETTIZ_charged_linker_0, # of connection points: 3
#     Node 8, Type 0, BuildingBlock: VETTIZ_charged_linker_0, # of connection points: 3
#     Node 9, Type 0, BuildingBlock: VETTIZ_charged_linker_0, # of connection points: 3
#     Node 10, Type 0, BuildingBlock: VETTIZ_charged_linker_0, # of connection points: 3
#     Node 11, Type 0, BuildingBlock: VETTIZ_charged_linker_0, # of connection points: 3
#     Node 12, Type 0, BuildingBlock: VETTIZ_charged_linker_0, # of connection points: 3
#     Node 13, Type 0, BuildingBlock: VETTIZ_charged_linker_0, # of connection points: 3
#     Node 14, Type 0, BuildingBlock: VETTIZ_charged_linker_0, # of connection points: 3
#     Node 15, Type 0, BuildingBlock: VETTIZ_charged_linker_0, # of connection points: 3
#     Node 16, Type 0, BuildingBlock: VETTIZ_charged_linker_0, # of connection points: 3
#     Node 17, Type 0, BuildingBlock: VETTIZ_charged_linker_0, # of connection points: 3
#     Node 18, Type 1, BuildingBlock: KUMBUR_clean_sbu_0, # of connection points: 6
#     Node 19, Type 1, BuildingBlock: KUMBUR_clean_sbu_0, # of connection points: 6
#     Node 20, Type 1, BuildingBlock: KUMBUR_clean_sbu_0, # of connection points: 6
#     Node 21, Type 1, BuildingBlock: KUMBUR_clean_sbu_0, # of connection points: 6
#     Node 22, Type 1, BuildingBlock: KUMBUR_clean_sbu_0, # of connection points: 6
#     Node 23, Type 1, BuildingBlock: KUMBUR_clean_sbu_0, # of connection points: 6
#     Node 24, Type 1, BuildingBlock: KUMBUR_clean_sbu_0, # of connection points: 6
#     Node 25, Type 1, BuildingBlock: KUMBUR_clean_sbu_0, # of connection points: 6
#     Node 26, Type 1, BuildingBlock: KUMBUR_clean_sbu_0, # of connection points: 6
#     Edge 27, Type (0, 1), BuildingBlock: EZIPEK_clean_linker_0, # of connection points: 2
#     Edge 28, Type (0, 1), BuildingBlock: EZIPEK_clean_linker_0, # of connection points: 2
#     Edge 29, Type (0, 1), BuildingBlock: EZIPEK_clean_linker_0, # of connection points: 2
#     Edge 30, Type (0, 1), BuildingBlock: EZIPEK_clean_linker_0, # of connection points: 2
#     Edge 31, Type (0, 1), BuildingBlock: EZIPEK_clean_linker_0, # of connection points: 2
#     Edge 32, Type (0, 1), BuildingBlock: EZIPEK_clean_linker_0, # of connection points: 2
#     Edge 33, Type (0, 1), BuildingBlock: EZIPEK_clean_linker_0, # of connection points: 2
#     Edge 34, Type (0, 1), BuildingBlock: EZIPEK_clean_linker_0, # of connection points: 2
#     Edge 35, Type (0, 1), BuildingBlock: EZIPEK_clean_linker_0, # of connection points: 2
#     Edge 36, Type (0, 1), BuildingBlock: EZIPEK_clean_linker_0, # of connection points: 2
#     Edge 37, Type (0, 1), BuildingBlock: EZIPEK_clean_linker_0, # of connection points: 2
#     Edge 38, Type (0, 1), BuildingBlock: EZIPEK_clean_linker_0, # of connection points: 2
#     Edge 39, Type (0, 1), BuildingBlock: EZIPEK_clean_linker_0, # of connection points: 2
#     Edge 40, Type (0, 1), BuildingBlock: EZIPEK_clean_linker_0, # of connection points: 2
#     Edge 41, Type (0, 1), BuildingBlock: EZIPEK_clean_linker_0, # of connection points: 2
#     Edge 42, Type (0, 1), BuildingBlock: EZIPEK_clean_linker_0, # of connection points: 2
#     Edge 43, Type (0, 1), BuildingBlock: EZIPEK_clean_linker_0, # of connection points: 2
#     Edge 44, Type (0, 1), BuildingBlock: EZIPEK_clean_linker_0, # of connection points: 2
#     Edge 45, Type (0, 1), BuildingBlock: EZIPEK_clean_linker_0, # of connection points: 2
#     Edge 46, Type (0, 1), BuildingBlock: EZIPEK_clean_linker_0, # of connection points: 2
#     Edge 47, Type (0, 1), BuildingBlock: EZIPEK_clean_linker_0, # of connection points: 2
#     Edge 48, Type (0, 1), BuildingBlock: EZIPEK_clean_linker_0, # of connection points: 2
#     Edge 49, Type (0, 1), BuildingBlock: EZIPEK_clean_linker_0, # of connection points: 2
#     Edge 50, Type (0, 1), BuildingBlock: EZIPEK_clean_linker_0, # of connection points: 2
#     Edge 51, Type (0, 1), BuildingBlock: EZIPEK_clean_linker_0, # of connection points: 2
#     Edge 52, Type (0, 1), BuildingBlock: EZIPEK_clean_linker_0, # of connection points: 2
#     Edge 53, Type (0, 1), BuildingBlock: EZIPEK_clean_linker_0, # of connection points: 2
#     Edge 54, Type (0, 1), BuildingBlock: EZIPEK_clean_linker_0, # of connection points: 2
#     Edge 55, Type (0, 1), BuildingBlock: EZIPEK_clean_linker_0, # of connection points: 2
#     Edge 56, Type (0, 1), BuildingBlock: EZIPEK_clean_linker_0, # of connection points: 2
#     Edge 57, Type (0, 1), BuildingBlock: EZIPEK_clean_linker_0, # of connection points: 2
#     Edge 58, Type (0, 1), BuildingBlock: EZIPEK_clean_linker_0, # of connection points: 2
#     Edge 59, Type (0, 1), BuildingBlock: EZIPEK_clean_linker_0, # of connection points: 2
#     Edge 60, Type (0, 1), BuildingBlock: EZIPEK_clean_linker_0, # of connection points: 2
#     Edge 61, Type (0, 1), BuildingBlock: EZIPEK_clean_linker_0, # of connection points: 2
#     Edge 62, Type (0, 1), BuildingBlock: EZIPEK_clean_linker_0, # of connection points: 2
#     Edge 63, Type (0, 1), BuildingBlock: EZIPEK_clean_linker_0, # of connection points: 2
#     Edge 64, Type (0, 1), BuildingBlock: EZIPEK_clean_linker_0, # of connection points: 2
#     Edge 65, Type (0, 1), BuildingBlock: EZIPEK_clean_linker_0, # of connection points: 2
#     Edge 66, Type (0, 1), BuildingBlock: EZIPEK_clean_linker_0, # of connection points: 2
#     Edge 67, Type (0, 1), BuildingBlock: EZIPEK_clean_linker_0, # of connection points: 2
#     Edge 68, Type (0, 1), BuildingBlock: EZIPEK_clean_linker_0, # of connection points: 2
#     Edge 69, Type (0, 1), BuildingBlock: EZIPEK_clean_linker_0, # of connection points: 2
#     Edge 70, Type (0, 1), BuildingBlock: EZIPEK_clean_linker_0, # of connection points: 2
#     Edge 71, Type (0, 1), BuildingBlock: EZIPEK_clean_linker_0, # of connection points: 2
#     Edge 72, Type (0, 1), BuildingBlock: EZIPEK_clean_linker_0, # of connection points: 2
#     Edge 73, Type (0, 1), BuildingBlock: EZIPEK_clean_linker_0, # of connection points: 2
#     Edge 74, Type (0, 1), BuildingBlock: EZIPEK_clean_linker_0, # of connection points: 2
#     Edge 75, Type (0, 1), BuildingBlock: EZIPEK_clean_linker_0, # of connection points: 2
#     Edge 76, Type (0, 1), BuildingBlock: EZIPEK_clean_linker_0, # of connection points: 2
#     Edge 77, Type (0, 1), BuildingBlock: EZIPEK_clean_linker_0, # of connection points: 2
#     Edge 78, Type (0, 1), BuildingBlock: EZIPEK_clean_linker_0, # of connection points: 2
#     Edge 79, Type (0, 1), BuildingBlock: EZIPEK_clean_linker_0, # of connection points: 2
#     Edge 80, Type (0, 1), BuildingBlock: EZIPEK_clean_linker_0, # of connection points: 2
# Relax obj value: 0.008
# Max RMSD: 0.091
# Mean RMSD: 0.072
data_MOF--net-eea--node1-KUMBUR_clean_sbu_0--node2-VETTIZ_charged_linker_0--edge1-EZIPEK_clean_linker_0
_symmetry_space_group_name_H-M    P1
_symmetry_Int_Tables_number       1
_symmetry_cell_setting            triclinic
loop_
_symmetry_equiv_pos_as_xyz
'x, y, z'
_cell_length_a     47.963713
_cell_length_b     49.204275
_cell_length_c     72.048167
_cell_angle_alpha  90.213301
_cell_angle_beta   90.251499
_cell_angle_gamma 120.01766
loop_
_atom_site_label
_atom_site_type_symbol
_atom_site_fract_x
_atom_site_fract_y
_atom_site_fract_z
_atom_type_partial_charge
C0 C 0.22121 0.18586 0.3825 0.0
C1 C 0.22333 0.21278 0.39044 0.0
C2 C 0.23481 0.22135 0.40877 0.0
C3 C 0.24057 0.17514 0.41121 0.0
C4 C 0.22998 0.16757 0.39304 0.0
C5 C 0.22834 0.13789 0.38657 0.0
H6 H 0.24121 0.01081 0.4032 0.0
C7 C 0.24623 0.15004 0.41832 0.0
C8 C 0.23911 0.12832 0.40389 0.0
H9 H 0.21163 0.03863 0.35302 0.0
H10 H 0.21994 0.08417 0.36758 0.0
H11 H 0.30156 0.0817 0.41404 0.0
H12 H 0.20178 0.03218 0.43092 0.0
H13 H 0.22707 0.04902 0.45045 0.0
H14 H 0.22938 0.01907 0.43727 0.0
H15 H 0.28558 0.04743 0.42839 0.0
H16 H 0.29915 0.08584 0.43817 0.0
C17 C 0.25281 0.14636 0.37054 0.0
C18 C 0.19274 0.11407 0.38136 0.0
C19 C 0.28264 0.15396 0.48496 0.0
C20 C 0.2895 0.13417 0.49557 0.0
C21 C 0.28587 0.10645 0.48751 0.0
C22 C 0.27555 0.09859 0.46896 0.0
C23 C 0.26907 0.11883 0.45838 0.0
C24 C 0.27259 0.14595 0.46648 0.0
C25 C 0.26468 0.16477 0.45332 0.0
C26 C 0.25601 0.1447 0.43591 0.0
C27 C 0.25859 0.11771 0.43885 0.0
C28 C 0.29534 0.19717 0.45067 0.0
C29 C 0.23549 0.16637 0.46113 0.0
C30 C 0.23806 0.02722 0.39479 0.0
C31 C 0.22917 0.02113 0.37564 0.0
C32 C 0.22167 0.04232 0.36671 0.0
C33 C 0.22574 0.06933 0.37556 0.0
C34 C 0.23625 0.07551 0.39402 0.0
C35 C 0.24199 0.05459 0.4035 0.0
C36 C 0.25204 0.065 0.42342 0.0
C37 C 0.25153 0.09579 0.42404 0.0
C38 C 0.242 0.10138 0.40671 0.0
C39 C 0.28631 0.07015 0.42635 0.0
C40 C 0.22644 0.04003 0.43632 0.0
H41 H 0.25178 0.21005 0.43321 0.0
H42 H 0.2125 0.179 0.36839 0.0
H43 H 0.17569 0.11871 0.38931 0.0
H44 H 0.18566 0.0896 0.38488 0.0
H45 H 0.18801 0.11531 0.36637 0.0
H46 H 0.27432 0.17 0.37275 0.0
H47 H 0.24188 0.14669 0.35698 0.0
H48 H 0.26268 0.13036 0.36955 0.0
H49 H 0.28539 0.17543 0.49091 0.0
H50 H 0.29113 0.09101 0.49559 0.0
H51 H 0.27312 0.07717 0.46356 0.0
H52 H 0.31721 0.19479 0.45029 0.0
H53 H 0.29843 0.21344 0.46225 0.0
H54 H 0.2954 0.20832 0.43739 0.0
H55 H 0.21812 0.14383 0.4678 0.0
H56 H 0.22138 0.16999 0.45029 0.0
H57 H 0.24329 0.18526 0.47175 0.0
H58 H 0.2366 0.24225 0.415 0.0
C59 C 0.24346 0.20261 0.41925 0.0
C60 C 0.9772 0.19346 0.38234 0.0
C61 C 1.00006 0.22292 0.38959 0.0
C62 C 0.99381 0.23295 0.40663 0.0
C63 C 0.94437 0.18288 0.40984 0.0
C64 C 0.94945 0.17415 0.39249 0.0
C65 C 0.92264 0.14233 0.38657 0.0
H66 H 0.78646 0.00726 0.40781 0.0
C67 C 0.91497 0.1559 0.41753 0.0
C68 C 0.90207 0.13218 0.40386 0.0
H69 H 0.83492 0.03404 0.35507 0.0
H70 H 0.87479 0.08427 0.36798 0.0
H71 H 0.8463 0.02887 0.43125 0.0
H72 H 0.79534 0.07807 0.41936 0.0
H73 H 0.80184 0.07791 0.44356 0.0
H74 H 0.77903 0.04136 0.4314 0.0
H75 H 0.8137 0.02409 0.44554 0.0
H76 H 0.85471 0.05476 0.45003 0.0
C77 C 0.93709 0.12099 0.38248 0.0
C78 C 0.9048 0.14675 0.36987 0.0
C79 C 0.88098 0.15855 0.48416 0.0
C80 C 0.85835 0.13502 0.49583 0.0
C81 C 0.84095 0.10388 0.48915 0.0
C82 C 0.84417 0.09665 0.47077 0.0
C83 C 0.86582 0.12057 0.45905 0.0
C84 C 0.88488 0.15061 0.46601 0.0
C85 C 0.90964 0.17181 0.45217 0.0
C86 C 0.90085 0.14998 0.43544 0.0
C87 C 0.87463 0.12022 0.43949 0.0
C88 C 0.94331 0.18114 0.46018 0.0
C89 C 0.90454 0.19992 0.44825 0.0
C90 C 0.80561 0.02414 0.39909 0.0
C91 C 0.80764 0.01694 0.38042 0.0
C92 C 0.83298 0.03925 0.36947 0.0
C93 C 0.85602 0.06832 0.37701 0.0
C94 C 0.85396 0.0751 0.39577 0.0
C95 C 0.82899 0.05321 0.40646 0.0
C96 C 0.83112 0.06415 0.42623 0.0
C97 C 0.86069 0.09678 0.42542 0.0
C98 C 0.87411 0.10291 0.40761 0.0
C99 C 0.83654 0.04185 0.43902 0.0
C100 C 0.80021 0.0654 0.43052 0.0
H101 H 0.96302 0.22161 0.42993 0.0
H102 H 0.98121 0.18538 0.36914 0.0
H103 H 0.90685 0.17031 0.37019 0.0
H104 H 0.87857 0.13002 0.37002 0.0
H105 H 0.91485 0.14453 0.35647 0.0
H106 H 0.95537 0.12446 0.3932 0.0
H107 H 0.94908 0.12645 0.36875 0.0
H108 H 0.91906 0.09575 0.38281 0.0
H109 H 0.89526 0.18253 0.48908 0.0
H110 H 0.82385 0.08534 0.49803 0.0
H111 H 0.82948 0.07274 0.46636 0.0
H112 H 0.9428 0.16098 0.46745 0.0
H113 H 0.95141 0.2007 0.47036 0.0
H114 H 0.96187 0.18781 0.44944 0.0
H115 H 0.87842 0.19203 0.44735 0.0
H116 H 0.91467 0.21125 0.43483 0.0
H117 H 0.91521 0.21782 0.45949 0.0
H118 H 0.01098 0.25575 0.41231 0.0
C119 C 0.96616 0.213 0.41685 0.0
C120 C 0.97778 0.79578 0.38386 0.0
C121 C 1.00024 0.78748 0.39043 0.0
C122 C 0.99261 0.76875 0.40647 0.0
C123 C 0.94306 0.77022 0.41016 0.0
C124 C 0.94894 0.78586 0.39349 0.0
C125 C 0.92059 0.78878 0.3871 0.0
H126 H 0.77906 0.78166 0.40674 0.0
C127 C 0.91214 0.76562 0.41741 0.0
C128 C 0.89849 0.77579 0.40376 0.0
H129 H 0.8262 0.7987 0.35367 0.0
H130 H 0.86813 0.79123 0.36733 0.0
H131 H 0.78835 0.72123 0.41706 0.0
H132 H 0.84343 0.81938 0.43197 0.0
H133 H 0.84126 0.79736 0.45159 0.0
H134 H 0.80475 0.79372 0.4419 0.0
H135 H 0.77284 0.73999 0.43184 0.0
H136 H 0.79706 0.72458 0.441 0.0
C137 C 0.90583 0.76783 0.36957 0.0
C138 C 0.93186 0.82384 0.38398 0.0
C139 C 0.88066 0.73037 0.48416 0.0
C140 C 0.85561 0.72759 0.4955 0.0
C141 C 0.83408 0.7367 0.48846 0.0
C142 C 0.83655 0.7471 0.4701 0.0
C143 C 0.86111 0.74884 0.45869 0.0
C144 C 0.88316 0.74133 0.46594 0.0
C145 C 0.90846 0.74583 0.45206 0.0
C146 C 0.89757 0.7566 0.43516 0.0
C147 C 0.86958 0.75801 0.43904 0.0
C148 C 0.90659 0.71384 0.44864 0.0
C149 C 0.94138 0.77178 0.45967 0.0
C150 C 0.79844 0.78365 0.39813 0.0
C151 C 0.79981 0.79136 0.3792 0.0
C152 C 0.82497 0.79315 0.36829 0.0
C153 C 0.84918 0.78872 0.37623 0.0
C154 C 0.84796 0.78173 0.39522 0.0
C155 C 0.82251 0.77858 0.40577 0.0
C156 C 0.82444 0.76929 0.42548 0.0
C157 C 0.85485 0.76682 0.42486 0.0
C158 C 0.86889 0.77494 0.4072 0.0
C159 C 0.79407 0.73718 0.42923 0.0
C160 C 0.82845 0.79609 0.43856 0.0
H161 H 0.96057 0.74717 0.42893 0.0
H162 H 0.98242 0.8094 0.37131 0.0
H163 H 0.94579 0.8381 0.39622 0.0
H164 H 0.91162 0.82822 0.38199 0.0
H165 H 0.94759 0.83284 0.37161 0.0
H166 H 0.91417 0.75054 0.36784 0.0
H167 H 0.9124 0.78212 0.35674 0.0
H168 H 0.87923 0.75332 0.37034 0.0
H169 H 0.89761 0.72365 0.48929 0.0
H170 H 0.81474 0.73486 0.49706 0.0
H171 H 0.81902 0.75305 0.46544 0.0
H172 H 0.88183 0.69391 0.45096 0.0
H173 H 0.92312 0.71073 0.45811 0.0
H174 H 0.91202 0.71088 0.43411 0.0
H175 H 0.93976 0.79257 0.46426 0.0
H176 H 0.96073 0.78048 0.44933 0.0
H177 H 0.94904 0.76319 0.47182 0.0
H178 H 0.00908 0.76141 0.41157 0.0
C179 C 0.96451 0.76061 0.41654 0.0
C180 C 0.17985 0.20364 0.63451 0.0
C181 C 0.20859 0.20713 0.62723 0.0
C182 C 0.21769 0.21873 0.6091 0.0
C183 C 0.16876 0.22131 0.60531 0.0
C184 C 0.16027 0.21067 0.62329 0.0
C185 C 0.12792 0.20639 0.62842 0.0
H186 H 0.99904 0.22198 0.60621 0.0
C187 C 0.1423 0.22471 0.59704 0.0
C188 C 0.11826 0.21591 0.61053 0.0
H189 H 0.01406 0.18118 0.65555 0.0
H190 H 0.0652 0.19072 0.64397 0.0
H191 H 0.07621 0.27801 0.59659 0.0
H192 H 0.01281 0.18156 0.5815 0.0
H193 H 0.04107 0.19674 0.56355 0.0
H194 H 0.01487 0.21269 0.56771 0.0
H195 H 0.03884 0.26299 0.58402 0.0
H196 H 0.07554 0.27307 0.57218 0.0
C197 C 0.13308 0.22935 0.64453 0.0
C198 C 0.10499 0.1713 0.63303 0.0
C199 C 0.15028 0.264 0.53072 0.0
C200 C 0.12815 0.26696 0.51919 0.0
C201 C 0.09702 0.25727 0.52587 0.0
C202 C 0.08867 0.24678 0.5441 0.0
C203 C 0.11125 0.2449 0.55567 0.0
C204 C 0.14104 0.25226 0.54876 0.0
C205 C 0.1605 0.24564 0.56262 0.0
C206 C 0.13791 0.23429 0.57916 0.0
C207 C 0.10942 0.23462 0.57504 0.0
C208 C 0.1919 0.27674 0.56695 0.0
C209 C 0.16584 0.21939 0.55451 0.0
C210 C 0.01367 0.21559 0.61459 0.0
C211 C 0.00286 0.2016 0.63205 0.0
C212 C 0.0221 0.19258 0.64225 0.0
C213 C 0.0517 0.1979 0.63543 0.0
C214 C 0.06186 0.21129 0.61784 0.0
C215 C 0.04259 0.21919 0.60754 0.0
C216 C 0.05485 0.22858 0.58808 0.0
C217 C 0.08572 0.22697 0.58889 0.0
C218 C 0.08993 0.21728 0.60645 0.0
C219 C 0.06168 0.26243 0.5849 0.0
C220 C 0.02968 0.20386 0.57442 0.0
H221 H 0.20617 0.2344 0.58438 0.0
H222 H 0.17235 0.19471 0.64841 0.0
H223 H 0.11241 0.15586 0.62588 0.0
H224 H 0.08006 0.16274 0.62811 0.0
H225 H 0.10475 0.16703 0.64817 0.0
H226 H 0.15386 0.25305 0.64159 0.0
H227 H 0.13825 0.22108 0.65773 0.0
H228 H 0.11232 0.23282 0.64667 0.0
H229 H 0.17418 0.27077 0.5258 0.0
H230 H 0.07955 0.25901 0.51712 0.0
H231 H 0.06504 0.2409 0.54851 0.0
H232 H 0.18691 0.29644 0.56832 0.0
H233 H 0.20972 0.28271 0.55567 0.0
H234 H 0.20315 0.27626 0.58024 0.0
H235 H 0.1448 0.20257 0.54595 0.0
H236 H 0.16814 0.20477 0.56532 0.0
H237 H 0.18742 0.22931 0.5455 0.0
H238 H 0.23986 0.2217 0.60332 0.0
C239 C 0.19802 0.22591 0.59812 0.0
C240 C 0.77649 0.81392 0.63937 0.0
C241 C 0.77992 0.78969 0.6316 0.0
C242 C 0.77456 0.78323 0.61242 0.0
C243 C 0.76344 0.82569 0.60887 0.0
C244 C 0.76893 0.83198 0.62769 0.0
C245 C 0.76854 0.86113 0.63325 0.0
H246 H 0.76452 0.99091 0.60857 0.0
C247 C 0.75699 0.84943 0.60068 0.0
C248 C 0.76037 0.87044 0.61486 0.0
H249 H 0.79006 0.96809 0.66143 0.0
H250 H 0.77545 0.91653 0.65013 0.0
H251 H 0.7967 0.95887 0.58084 0.0
H252 H 0.70171 0.92541 0.60281 0.0
H253 H 0.69664 0.90374 0.58237 0.0
H254 H 0.7135 0.94579 0.58117 0.0
H255 H 0.7721 0.97641 0.57689 0.0
H256 H 0.76674 0.94389 0.56309 0.0
C257 C 0.8028 0.88551 0.64046 0.0
C258 C 0.74127 0.85203 0.64753 0.0
C259 C 0.72744 0.8436 0.53239 0.0
C260 C 0.71391 0.85847 0.52215 0.0
C261 C 0.71008 0.88221 0.53072 0.0
C262 C 0.71986 0.89127 0.54912 0.0
C263 C 0.73293 0.87596 0.55923 0.0
C264 C 0.73552 0.85184 0.55108 0.0
C265 C 0.74512 0.83506 0.56486 0.0
C266 C 0.74844 0.85356 0.58246 0.0
C267 C 0.74245 0.87823 0.57887 0.0
C268 C 0.77777 0.8388 0.55877 0.0
C269 C 0.71733 0.80056 0.56607 0.0
C270 C 0.76746 0.97476 0.61742 0.0
C271 C 0.77923 0.98339 0.63566 0.0
C272 C 0.78183 0.96185 0.64719 0.0
C273 C 0.77349 0.93208 0.64057 0.0
C274 C 0.76331 0.9241 0.62207 0.0
C275 C 0.75981 0.94493 0.61085 0.0
C276 C 0.7476 0.93146 0.59173 0.0
C277 C 0.74744 0.90047 0.59299 0.0
C278 C 0.7563 0.89638 0.61087 0.0
C279 C 0.77195 0.95377 0.57727 0.0
C280 C 0.71318 0.92645 0.58924 0.0
H281 H 0.7627 0.79515 0.58651 0.0
H282 H 0.7808 0.81938 0.65405 0.0
H283 H 0.71921 0.83003 0.64317 0.0
H284 H 0.73382 0.86988 0.64883 0.0
H285 H 0.7486 0.84802 0.66143 0.0
H286 H 0.82122 0.87907 0.63667 0.0
H287 H 0.80335 0.88774 0.65582 0.0
H288 H 0.8118 0.90899 0.63424 0.0
H289 H 0.73023 0.82499 0.52622 0.0
H290 H 0.69945 0.89377 0.52311 0.0
H291 H 0.71651 0.90953 0.55488 0.0
H292 H 0.79376 0.8627 0.55315 0.0
H293 H 0.77431 0.82154 0.54774 0.0
H294 H 0.79149 0.83644 0.57037 0.0
H295 H 0.69352 0.79912 0.56462 0.0
H296 H 0.71631 0.78965 0.57959 0.0
H297 H 0.71909 0.78595 0.55485 0.0
H298 H 0.77706 0.76442 0.60628 0.0
C299 C 0.7662 0.80101 0.60102 0.0
C300 C 0.025 0.81161 0.63653 0.0
C301 C 0.9994 0.78355 0.62949 0.0
C302 C 0.99974 0.77524 0.61081 0.0
C303 C 0.0514 0.82235 0.60649 0.0
C304 C 0.05073 0.83053 0.62482 0.0
C305 C 0.08015 0.86093 0.63014 0.0
H306 H 0.22472 0.98243 0.60732 0.0
C307 C 0.08195 0.8468 0.59828 0.0
C308 C 0.09889 0.86938 0.61215 0.0
H309 H 0.1722 0.96639 0.65874 0.0
H310 H 0.12972 0.91937 0.64644 0.0
H311 H 0.21128 0.91448 0.60054 0.0
H312 H 0.16225 0.96239 0.58169 0.0
H313 H 0.16642 0.94215 0.56265 0.0
H314 H 0.20188 0.97213 0.5743 0.0
H315 H 0.22549 0.94051 0.58111 0.0
H316 H 0.1963 0.8993 0.57836 0.0
C317 C 0.09787 0.8541 0.64587 0.0
C318 C 0.06944 0.88496 0.63535 0.0
C319 C 0.10992 0.83711 0.53127 0.0
C320 C 0.13832 0.85423 0.52095 0.0
C321 C 0.16439 0.88121 0.52895 0.0
C322 C 0.1625 0.89087 0.54695 0.0
C323 C 0.1345 0.87301 0.55735 0.0
C324 C 0.10883 0.84651 0.54956 0.0
C325 C 0.08205 0.82925 0.56326 0.0
C326 C 0.09567 0.85014 0.58037 0.0
C327 C 0.12632 0.87586 0.57673 0.0
C328 C 0.07801 0.7963 0.56629 0.0
C329 C 0.05154 0.82876 0.55574 0.0
C330 C 0.20569 0.96834 0.61679 0.0
C331 C 0.20567 0.97728 0.63557 0.0
C332 C 0.17639 0.95924 0.64538 0.0
C333 C 0.15057 0.93186 0.63791 0.0
C334 C 0.15263 0.92235 0.61991 0.0
C335 C 0.17952 0.94084 0.6095 0.0
C336 C 0.1765 0.92805 0.59009 0.0
C337 C 0.14348 0.89862 0.59079 0.0
C338 C 0.12968 0.89549 0.60832 0.0
C339 C 0.20382 0.92031 0.58719 0.0
C340 C 0.17697 0.95238 0.57633 0.0
H341 H 0.02446 0.78689 0.58515 0.0
H342 H 0.02505 0.81845 0.65084 0.0
H343 H 0.04645 0.87935 0.62832 0.0
H344 H 0.08679 0.90904 0.63075 0.0
H345 H 0.0657 0.88523 0.65054 0.0
H346 H 0.09809 0.83198 0.64295 0.0
H347 H 0.08575 0.85135 0.65939 0.0
H348 H 0.12341 0.87235 0.64736 0.0
H349 H 0.08958 0.81622 0.52546 0.0
H350 H 0.18643 0.89475 0.52122 0.0
H351 H 0.18318 0.91164 0.55218 0.0
H352 H 0.10165 0.79724 0.56558 0.0
H353 H 0.06206 0.77941 0.55549 0.0
H354 H 0.06859 0.78665 0.58014 0.0
H355 H 0.05782 0.85187 0.54965 0.0
H356 H 0.0338 0.82462 0.56665 0.0
H357 H 0.0397 0.81064 0.5447 0.0
H358 H 0.97998 0.75367 0.60521 0.0
C359 C 0.02556 0.7945 0.59925 0.0
C360 C 0.88647 0.51448 0.7141 0.0
C361 C 0.88568 0.54003 0.7221 0.0
C362 C 0.8948 0.54819 0.74075 0.0
C363 C 0.90386 0.50418 0.74353 0.0
C364 C 0.89559 0.49688 0.72505 0.0
C365 C 0.89624 0.468 0.71895 0.0
H366 H 0.91716 0.34675 0.74073 0.0
C367 C 0.91057 0.48025 0.75113 0.0
C368 C 0.90633 0.45911 0.73682 0.0
H369 H 0.88561 0.36655 0.68849 0.0
H370 H 0.891 0.41291 0.70129 0.0
H371 H 0.97322 0.41487 0.74951 0.0
H372 H 0.87365 0.36547 0.76575 0.0
H373 H 0.89796 0.38368 0.78548 0.0
H374 H 0.90259 0.35455 0.77296 0.0
H375 H 0.95948 0.38743 0.76827 0.0
H376 H 0.97183 0.42832 0.77187 0.0
C377 C 0.92218 0.47766 0.70375 0.0
C378 C 0.8617 0.44289 0.71274 0.0
C379 C 0.94058 0.48537 0.81889 0.0
C380 C 0.95234 0.4692 0.8293 0.0
C381 C 0.95351 0.44367 0.82123 0.0
C382 C 0.94361 0.43473 0.80283 0.0
C383 C 0.93335 0.45209 0.7923 0.0
C384 C 0.93231 0.47714 0.80031 0.0
C385 C 0.92398 0.49487 0.78661 0.0
C386 C 0.91922 0.47574 0.76916 0.0
C387 C 0.92444 0.45055 0.77259 0.0
C388 C 0.95329 0.5286 0.78505 0.0
C389 C 0.89241 0.49334 0.79299 0.0
C390 C 0.91338 0.36145 0.73127 0.0
C391 C 0.90526 0.35353 0.71225 0.0
C392 C 0.89601 0.37264 0.70221 0.0
C393 C 0.89805 0.39967 0.70994 0.0
C394 C 0.90804 0.40771 0.72837 0.0
C395 C 0.91508 0.38854 0.73883 0.0
C396 C 0.92362 0.40003 0.7586 0.0
C397 C 0.92044 0.42924 0.7581 0.0
C398 C 0.91126 0.43349 0.74034 0.0
C399 C 0.95874 0.40794 0.76245 0.0
C400 C 0.89834 0.37466 0.77151 0.0
H401 H 0.91036 0.53742 0.76576 0.0
H402 H 0.8794 0.50796 0.69973 0.0
H403 H 0.8431 0.44669 0.71951 0.0
H404 H 0.85543 0.41885 0.71685 0.0
H405 H 0.85851 0.44344 0.6975 0.0
H406 H 0.94401 0.50036 0.70742 0.0
H407 H 0.91305 0.48068 0.69017 0.0
H408 H 0.93076 0.46077 0.70203 0.0
H409 H 0.93979 0.50527 0.82479 0.0
H410 H 0.9626 0.431 0.82912 0.0
H411 H 0.94503 0.41513 0.79741 0.0
H412 H 0.97635 0.52869 0.78709 0.0
H413 H 0.95231 0.54448 0.79571 0.0
H414 H 0.95544 0.53894 0.77118 0.0
H415 H 0.87569 0.47008 0.79914 0.0
H416 H 0.87865 0.49586 0.78147 0.0
H417 H 0.89736 0.51156 0.80369 0.0
H418 H 0.89433 0.56805 0.74695 0.0
C419 C 0.90399 0.53037 0.75155 0.0
C420 C 0.6445 0.51926 0.7169 0.0
C421 C 0.66525 0.5506 0.72227 0.0
C422 C 0.65606 0.5633 0.73705 0.0
C423 C 0.60867 0.51244 0.74234 0.0
C424 C 0.61594 0.50117 0.72661 0.0
C425 C 0.58965 0.46879 0.72133 0.0
H426 H 0.44779 0.33922 0.74131 0.0
C427 C 0.5788 0.4864 0.75023 0.0
C428 C 0.56718 0.46108 0.73766 0.0
H429 H 0.50364 0.35958 0.69122 0.0
H430 H 0.54383 0.40959 0.70397 0.0
H431 H 0.50385 0.35813 0.76695 0.0
H432 H 0.46012 0.41223 0.75104 0.0
H433 H 0.4643 0.41192 0.77555 0.0
H434 H 0.44111 0.37554 0.76327 0.0
H435 H 0.47363 0.35884 0.78105 0.0
H436 H 0.51586 0.38718 0.78429 0.0
C437 C 0.60408 0.44684 0.72032 0.0
C438 C 0.574 0.4712 0.70295 0.0
C439 C 0.54571 0.49326 0.81651 0.0
C440 C 0.52329 0.47035 0.82856 0.0
C441 C 0.50449 0.43921 0.8221 0.0
C442 C 0.50661 0.4313 0.80369 0.0
C443 C 0.5286 0.45446 0.79172 0.0
C444 C 0.54855 0.4846 0.79832 0.0
C445 C 0.57273 0.50513 0.78402 0.0
C446 C 0.56379 0.48224 0.76779 0.0
C447 C 0.53723 0.4529 0.77229 0.0
C448 C 0.60675 0.5157 0.79184 0.0
C449 C 0.5669 0.53259 0.77944 0.0
C450 C 0.46852 0.35483 0.73309 0.0
C451 C 0.47258 0.34587 0.71518 0.0
C452 C 0.5001 0.36626 0.70497 0.0
C453 C 0.52327 0.39527 0.71238 0.0
C454 C 0.51909 0.40398 0.7303 0.0
C455 C 0.49226 0.38381 0.74045 0.0
C456 C 0.49339 0.39616 0.7598 0.0
C457 C 0.52384 0.42823 0.7589 0.0
C458 C 0.53877 0.43244 0.74165 0.0
C459 C 0.49669 0.374 0.77381 0.0
C460 C 0.46308 0.39909 0.7627 0.0
H461 H 0.62282 0.55486 0.75877 0.0
H462 H 0.65038 0.50905 0.70528 0.0
H463 H 0.57755 0.49515 0.70096 0.0
H464 H 0.54754 0.45563 0.70273 0.0
H465 H 0.5845 0.46584 0.69073 0.0
H466 H 0.62109 0.45169 0.73208 0.0
H467 H 0.61753 0.45035 0.70721 0.0
H468 H 0.58573 0.42176 0.72144 0.0
H469 H 0.56074 0.51728 0.8212 0.0
H470 H 0.48734 0.42118 0.83122 0.0
H471 H 0.49091 0.40749 0.79945 0.0
H472 H 0.60816 0.49511 0.79697 0.0
H473 H 0.61254 0.5323 0.80365 0.0
H474 H 0.62593 0.52717 0.7815 0.0
H475 H 0.54079 0.52484 0.77991 0.0
H476 H 0.57445 0.54158 0.76524 0.0
H477 H 0.57953 0.55219 0.78956 0.0
H478 H 0.67128 0.58764 0.74112 0.0
C479 C 0.62813 0.54424 0.74732 0.0
C480 C 0.64211 0.13043 0.71501 0.0
C481 C 0.66774 0.12736 0.72192 0.0
C482 C 0.66605 0.11607 0.74007 0.0
C483 C 0.61413 0.11231 0.74442 0.0
C484 C 0.61587 0.12322 0.72654 0.0
C485 C 0.588 0.12779 0.72183 0.0
H486 H 0.43887 0.10032 0.74114 0.0
C487 C 0.58389 0.10764 0.7528 0.0
C488 C 0.56855 0.11669 0.73956 0.0
H489 H 0.50189 0.15689 0.69708 0.0
H490 H 0.54348 0.14761 0.70844 0.0
H491 H 0.46425 0.04769 0.74968 0.0
H492 H 0.49066 0.14045 0.76877 0.0
H493 H 0.50299 0.12431 0.78644 0.0
H494 H 0.46071 0.10638 0.78054 0.0
H495 H 0.43847 0.05827 0.76198 0.0
H496 H 0.46583 0.04981 0.77429 0.0
C497 C 0.56981 0.10629 0.70508 0.0
C498 C 0.6011 0.16329 0.71832 0.0
C499 C 0.55136 0.06333 0.81819 0.0
C500 C 0.52471 0.05706 0.82931 0.0
C501 C 0.50137 0.0638 0.82229 0.0
C502 C 0.50357 0.07512 0.80424 0.0
C503 C 0.52987 0.08068 0.79315 0.0
C504 C 0.55368 0.07559 0.80029 0.0
C505 C 0.58077 0.08471 0.78671 0.0
C506 C 0.56908 0.09583 0.77029 0.0
C507 C 0.53894 0.09284 0.77409 0.0
C508 C 0.58272 0.05503 0.78191 0.0
C509 C 0.61193 0.11175 0.79546 0.0
C510 C 0.46144 0.11007 0.73374 0.0
C511 C 0.46636 0.12803 0.71758 0.0
C512 C 0.49681 0.14186 0.70903 0.0
C513 C 0.52122 0.13687 0.71582 0.0
C514 C 0.51609 0.11935 0.73203 0.0
C515 C 0.48712 0.10746 0.74119 0.0
C516 C 0.48895 0.0961 0.76035 0.0
C517 C 0.52281 0.10065 0.76033 0.0
C518 C 0.53806 0.11343 0.74344 0.0
C519 C 0.46294 0.06109 0.76179 0.0
C520 C 0.48547 0.11765 0.77484 0.0
H521 H 0.63955 0.10008 0.76505 0.0
H522 H 0.64301 0.13921 0.70113 0.0
H523 H 0.62604 0.17819 0.72376 0.0
H524 H 0.58679 0.17205 0.7256 0.0
H525 H 0.60161 0.16824 0.70325 0.0
H526 H 0.56453 0.0819 0.70769 0.0
H527 H 0.58451 0.11475 0.6923 0.0
H528 H 0.54647 0.10476 0.70224 0.0
H529 H 0.56975 0.05856 0.82328 0.0
H530 H 0.48077 0.05924 0.83065 0.0
H531 H 0.48447 0.07875 0.79954 0.0
H532 H 0.55818 0.03425 0.78032 0.0
H533 H 0.59537 0.04979 0.79307 0.0
H534 H 0.59477 0.05684 0.7686 0.0
H535 H 0.60664 0.12805 0.80342 0.0
H536 H 0.6298 0.12661 0.78502 0.0
H537 H 0.62324 0.10255 0.80517 0.0
H538 H 0.68563 0.11343 0.74557 0.0
C539 C 0.63935 0.10842 0.75134 0.0
C540 C 0.84811 0.53476 0.96434 0.0
C541 C 0.87929 0.54358 0.95792 0.0
C542 C 0.8904 0.56208 0.94179 0.0
C543 C 0.83882 0.55971 0.9378 0.0
C544 C 0.82883 0.54391 0.95444 0.0
C545 C 0.79674 0.53969 0.96037 0.0
H546 H 0.66626 0.5552 0.94104 0.0
C547 C 0.81229 0.56389 0.93035 0.0
C548 C 0.78778 0.55276 0.94371 0.0
H549 H 0.68947 0.52651 0.9926 0.0
H550 H 0.73812 0.53159 0.97907 0.0
H551 H 0.73961 0.61193 0.93106 0.0
H552 H 0.68499 0.51424 0.91545 0.0
H553 H 0.70959 0.53408 0.89653 0.0
H554 H 0.67925 0.5433 0.90389 0.0
H555 H 0.70313 0.59511 0.9175 0.0
H556 H 0.7414 0.60812 0.90678 0.0
C557 C 0.80222 0.55978 0.97811 0.0
C558 C 0.77283 0.50429 0.96292 0.0
C559 C 0.8188 0.605 0.86465 0.0
C560 C 0.79647 0.6078 0.85323 0.0
C561 C 0.7651 0.59708 0.85992 0.0
C562 C 0.75663 0.5854 0.878 0.0
C563 C 0.77953 0.5838 0.8895 0.0
C564 C 0.80965 0.59245 0.88254 0.0
C565 C 0.83 0.58689 0.89631 0.0
C566 C 0.80745 0.57423 0.91281 0.0
C567 C 0.77814 0.57309 0.90885 0.0
C568 C 0.86052 0.61872 0.90083 0.0
C569 C 0.83701 0.56196 0.8879 0.0
C570 C 0.68213 0.55042 0.9494 0.0
C571 C 0.67451 0.54093 0.96794 0.0
C572 C 0.69524 0.53423 0.97836 0.0
C573 C 0.72342 0.53725 0.97049 0.0
C574 C 0.73105 0.54715 0.95198 0.0
C575 C 0.71045 0.55342 0.94173 0.0
C576 C 0.72219 0.56319 0.92221 0.0
C577 C 0.75415 0.56365 0.92278 0.0
C578 C 0.75903 0.55376 0.94017 0.0
C579 C 0.72676 0.59627 0.91905 0.0
C580 C 0.69779 0.53764 0.9087 0.0
H581 H 0.87989 0.58313 0.91917 0.0
H582 H 0.83907 0.52126 0.97694 0.0
H583 H 0.77406 0.49065 0.95092 0.0
H584 H 0.74756 0.49881 0.96368 0.0
H585 H 0.77858 0.49544 0.9757 0.0
H586 H 0.82737 0.57978 0.979 0.0
H587 H 0.79767 0.5456 0.99086 0.0
H588 H 0.78714 0.57096 0.97829 0.0
H589 H 0.84292 0.61263 0.85977 0.0
H590 H 0.74743 0.59862 0.85125 0.0
H591 H 0.73265 0.57839 0.8824 0.0
H592 H 0.85558 0.63847 0.89967 0.0
H593 H 0.88039 0.62345 0.89116 0.0
H594 H 0.86899 0.62007 0.91528 0.0
H595 H 0.81454 0.54185 0.88214 0.0
H596 H 0.84626 0.55178 0.89813 0.0
H597 H 0.85464 0.57207 0.87643 0.0
H598 H 0.91447 0.5698 0.93677 0.0
C599 C 0.87023 0.56971 0.93156 0.0
C600 C 0.44562 0.14644 0.96922 0.0
C601 C 0.44339 0.11908 0.96188 0.0
C602 C 0.43092 0.10904 0.94384 0.0
C603 C 0.42507 0.15493 0.94026 0.0
C604 C 0.43626 0.16387 0.95825 0.0
C605 C 0.43807 0.19406 0.96387 0.0
H606 H 0.43471 0.32472 0.94036 0.0
C607 C 0.42035 0.17992 0.93217 0.0
C608 C 0.4282 0.20294 0.94593 0.0
H609 H 0.45409 0.29879 0.99405 0.0
H610 H 0.44281 0.24856 0.98184 0.0
H611 H 0.47357 0.30475 0.91829 0.0
H612 H 0.37165 0.25134 0.92841 0.0
H613 H 0.37944 0.25197 0.90438 0.0
H614 H 0.39181 0.2882 0.91645 0.0
H615 H 0.44546 0.30857 0.90363 0.0
H616 H 0.45684 0.27923 0.89922 0.0
C617 C 0.47345 0.21778 0.96935 0.0
C618 C 0.41314 0.18688 0.97946 0.0
C619 C 0.38248 0.17307 0.86527 0.0
C620 C 0.38193 0.19551 0.85343 0.0
C621 C 0.39466 0.22662 0.85982 0.0
C622 C 0.40521 0.23471 0.87817 0.0
C623 C 0.40413 0.21177 0.89011 0.0
C624 C 0.39454 0.18199 0.88339 0.0
C625 C 0.40007 0.16245 0.89741 0.0
C626 C 0.41203 0.18469 0.91401 0.0
C627 C 0.41344 0.21317 0.90971 0.0
C628 C 0.42624 0.15572 0.88978 0.0
C629 C 0.3676 0.13258 0.90148 0.0
C630 C 0.43616 0.30792 0.94941 0.0
C631 C 0.4454 0.31544 0.96809 0.0
C632 C 0.44716 0.29331 0.97958 0.0
C633 C 0.44072 0.26429 0.97244 0.0
C634 C 0.43309 0.2576 0.95351 0.0
C635 C 0.43032 0.27895 0.94238 0.0
C636 C 0.4226 0.26791 0.92253 0.0
C637 C 0.42076 0.23618 0.92373 0.0
C638 C 0.42732 0.23062 0.94183 0.0
C639 C 0.45084 0.29128 0.91017 0.0
C640 C 0.38969 0.26472 0.91751 0.0
H641 H 0.41242 0.11831 0.91927 0.0
H642 H 0.45466 0.15415 0.98319 0.0
H643 H 0.39266 0.16235 0.97846 0.0
H644 H 0.40174 0.20162 0.97854 0.0
H645 H 0.42425 0.18987 0.99342 0.0
H646 H 0.49049 0.21517 0.96008 0.0
H647 H 0.47869 0.21394 0.98382 0.0
H648 H 0.47977 0.24251 0.96789 0.0
H649 H 0.37372 0.14923 0.8605 0.0
H650 H 0.39509 0.24436 0.85077 0.0
H651 H 0.41358 0.25848 0.88239 0.0
H652 H 0.4419 0.17362 0.87948 0.0
H653 H 0.41526 0.13244 0.88277 0.0
H654 H 0.44306 0.15687 0.90071 0.0
H655 H 0.34856 0.13871 0.90409 0.0
H656 H 0.36866 0.12015 0.91396 0.0
H657 H 0.35972 0.116 0.88952 0.0
H658 H 0.42861 0.08756 0.9382 0.0
C659 C 0.42168 0.12688 0.93295 0.0
C660 C 0.69047 0.14069 0.96708 0.0
C661 C 0.66712 0.11126 0.96001 0.0
C662 C 0.6734 0.10035 0.9433 0.0
C663 C 0.72379 0.14948 0.94001 0.0
C664 C 0.71883 0.1589 0.95717 0.0
C665 C 0.7468 0.18982 0.96335 0.0
H666 H 0.87897 0.3261 0.94085 0.0
C667 C 0.75404 0.17554 0.93247 0.0
C668 C 0.76772 0.19909 0.94619 0.0
H669 H 0.83828 0.29557 0.99532 0.0
H670 H 0.799 0.24477 0.98264 0.0
H671 H 0.87817 0.26101 0.93163 0.0
H672 H 0.81321 0.29421 0.91693 0.0
H673 H 0.81806 0.27586 0.89723 0.0
H674 H 0.85249 0.31017 0.90692 0.0
H675 H 0.88854 0.29175 0.91508 0.0
H676 H 0.86694 0.25095 0.90828 0.0
C677 C 0.76336 0.18387 0.98017 0.0
C678 C 0.73439 0.21281 0.96747 0.0
C679 C 0.78554 0.17172 0.86556 0.0
C680 C 0.80996 0.19393 0.85416 0.0
C681 C 0.8302 0.22455 0.86101 0.0
C682 C 0.82722 0.23251 0.87931 0.0
C683 C 0.80342 0.20975 0.8908 0.0
C684 C 0.7825 0.1802 0.88371 0.0
C685 C 0.75751 0.15964 0.8976 0.0
C686 C 0.76793 0.18116 0.9145 0.0
C687 C 0.79492 0.21046 0.91044 0.0
C688 C 0.76045 0.1301 0.90093 0.0
C689 C 0.72428 0.15255 0.89 0.0
C690 C 0.86141 0.30845 0.94999 0.0
C691 C 0.86101 0.31495 0.969 0.0
C692 C 0.83851 0.29118 0.9806 0.0
C693 C 0.81588 0.26178 0.97321 0.0
C694 C 0.81598 0.25595 0.95408 0.0
C695 C 0.83914 0.27873 0.94292 0.0
C696 C 0.83744 0.26728 0.9233 0.0
C697 C 0.80912 0.23398 0.92449 0.0
C698 C 0.79615 0.22788 0.94242 0.0
C699 C 0.86942 0.26788 0.91916 0.0
C700 C 0.83015 0.28795 0.91027 0.0
H701 H 0.70449 0.11024 0.92028 0.0
H702 H 0.68657 0.14942 0.98006 0.0
H703 H 0.71883 0.21251 0.95588 0.0
H704 H 0.75389 0.23736 0.96903 0.0
H705 H 0.71996 0.20617 0.98038 0.0
H706 H 0.75689 0.15882 0.98111 0.0
H707 H 0.75633 0.19017 0.99347 0.0
H708 H 0.78997 0.19701 0.97906 0.0
H709 H 0.76942 0.14815 0.86048 0.0
H710 H 0.84888 0.24202 0.8523 0.0
H711 H 0.84374 0.25602 0.88385 0.0
H712 H 0.786 0.13588 0.90013 0.0
H713 H 0.74652 0.11164 0.89037 0.0
H714 H 0.75253 0.12019 0.91493 0.0
H715 H 0.72564 0.17425 0.88443 0.0
H716 H 0.7054 0.14399 0.90064 0.0
H717 H 0.71611 0.13501 0.87854 0.0
H718 H 0.65595 0.07752 0.93777 0.0
C719 C 0.70144 0.11944 0.93315 0.0
C720 C 0.57012 0.85849 0.04404 0.0
C721 C 0.57058 0.88463 0.05208 0.0
C722 C 0.58038 0.89258 0.07071 0.0
C723 C 0.586 0.84648 0.07358 0.0
C724 C 0.57763 0.83964 0.05504 0.0
C725 C 0.57491 0.80912 0.04914 0.0
H726 H 0.55566 0.66905 0.07295 0.0
C727 C 0.5883 0.82005 0.0816 0.0
C728 C 0.58161 0.79805 0.06735 0.0
H729 H 0.558 0.70407 0.01778 0.0
H730 H 0.57273 0.75521 0.03057 0.0
H731 H 0.62329 0.73198 0.08427 0.0
H732 H 0.52417 0.70334 0.09561 0.0
H733 H 0.54678 0.71815 0.11625 0.0
H734 H 0.5441 0.68394 0.10533 0.0
H735 H 0.60032 0.70244 0.10108 0.0
H736 H 0.62164 0.74366 0.10707 0.0
C737 C 0.60135 0.81609 0.03456 0.0
C738 C 0.54002 0.78716 0.04211 0.0
C739 C 0.6171 0.82145 0.14968 0.0
C740 C 0.61908 0.79934 0.16105 0.0
C741 C 0.60907 0.76909 0.15398 0.0
C742 C 0.59888 0.76147 0.13547 0.0
C743 C 0.59828 0.78422 0.124 0.0
C744 C 0.60646 0.81335 0.13128 0.0
C745 C 0.60267 0.83393 0.11728 0.0
C746 C 0.59354 0.81333 0.10002 0.0
C747 C 0.59077 0.78416 0.10407 0.0
C748 C 0.63545 0.86448 0.11511 0.0
C749 C 0.57491 0.83918 0.12378 0.0
C750 C 0.55897 0.68775 0.06371 0.0
C751 C 0.55427 0.68242 0.04444 0.0
C752 C 0.56044 0.70755 0.03268 0.0
C753 C 0.56903 0.73709 0.04014 0.0
C754 C 0.57193 0.7416 0.0595 0.0
C755 C 0.56836 0.7176 0.07088 0.0
C756 C 0.57644 0.728 0.09084 0.0
C757 C 0.58327 0.76162 0.08969 0.0
C758 C 0.57985 0.76907 0.07135 0.0
C759 C 0.60684 0.72632 0.09629 0.0
C760 C 0.5465 0.70727 0.10278 0.0
H761 H 0.59494 0.8805 0.09572 0.0
H762 H 0.56225 0.85192 0.02978 0.0
H763 H 0.52238 0.78795 0.05175 0.0
H764 H 0.53341 0.76231 0.04125 0.0
H765 H 0.53626 0.79442 0.02818 0.0
H766 H 0.62146 0.84081 0.03548 0.0
H767 H 0.59148 0.81217 0.02021 0.0
H768 H 0.61295 0.80171 0.03675 0.0
H769 H 0.62422 0.8447 0.15494 0.0
H770 H 0.61015 0.75171 0.16268 0.0
H771 H 0.59213 0.73826 0.13078 0.0
H772 H 0.6554 0.85914 0.11456 0.0
H773 H 0.64023 0.8807 0.12701 0.0
H774 H 0.63713 0.87704 0.10213 0.0
H775 H 0.55689 0.81899 0.13205 0.0
H776 H 0.56087 0.84088 0.1121 0.0
H777 H 0.58413 0.86054 0.13263 0.0
H778 H 0.58058 0.91266 0.07707 0.0
C779 C 0.58829 0.8737 0.0815 0.0
C780 C 0.30366 0.85378 0.04482 0.0
C781 C 0.33059 0.88043 0.05217 0.0
C782 C 0.33024 0.88909 0.0708 0.0
C783 C 0.27723 0.84364 0.07481 0.0
C784 C 0.27757 0.83553 0.05643 0.0
C785 C 0.24837 0.80492 0.05125 0.0
H786 H 0.11033 0.67549 0.0762 0.0
C787 C 0.24698 0.819 0.08317 0.0
C788 C 0.2301 0.79624 0.0694 0.0
H789 H 0.15944 0.69545 0.02368 0.0
H790 H 0.19937 0.74689 0.03478 0.0
H791 H 0.17539 0.70516 0.10231 0.0
H792 H 0.11727 0.7429 0.08187 0.0
H793 H 0.13238 0.76065 0.10357 0.0
H794 H 0.10595 0.71861 0.10209 0.0
H795 H 0.13405 0.69041 0.10852 0.0
H796 H 0.16608 0.72285 0.12079 0.0
C797 C 0.25958 0.78135 0.04572 0.0
C798 C 0.22985 0.81135 0.03584 0.0
C799 C 0.22306 0.82467 0.15151 0.0
C800 C 0.19768 0.80425 0.16341 0.0
C801 C 0.16974 0.77989 0.15454 0.0
C802 C 0.1694 0.77272 0.13568 0.0
C803 C 0.19669 0.79084 0.12492 0.0
C804 C 0.22242 0.81711 0.13264 0.0
C805 C 0.24825 0.83536 0.11857 0.0
C806 C 0.23393 0.81509 0.1013 0.0
C807 C 0.2038 0.78883 0.10521 0.0
C808 C 0.27955 0.83631 0.12508 0.0
C809 C 0.25137 0.86806 0.1164 0.0
C810 C 0.12975 0.69119 0.0672 0.0
C811 C 0.13223 0.6817 0.04917 0.0
C812 C 0.15746 0.70248 0.03766 0.0
C813 C 0.18059 0.73221 0.04417 0.0
C814 C 0.17862 0.74115 0.06245 0.0
C815 C 0.15334 0.72094 0.0736 0.0
C816 C 0.15555 0.73447 0.0927 0.0
C817 C 0.18696 0.76556 0.09134 0.0
C818 C 0.20012 0.76933 0.07356 0.0
C819 C 0.15775 0.71214 0.10696 0.0
C820 C 0.12625 0.73928 0.09538 0.0
H821 H 0.30491 0.87862 0.09623 0.0
H822 H 0.30348 0.84667 0.03054 0.0
H823 H 0.22962 0.83346 0.03878 0.0
H824 H 0.20425 0.79294 0.03481 0.0
H825 H 0.24134 0.81388 0.02211 0.0
H826 H 0.28319 0.78767 0.05219 0.0
H827 H 0.26233 0.78074 0.03045 0.0
H828 H 0.24309 0.75728 0.05066 0.0
H829 H 0.24304 0.84661 0.15625 0.0
H830 H 0.14743 0.76627 0.16187 0.0
H831 H 0.14774 0.75329 0.13019 0.0
H832 H 0.27403 0.8136 0.13145 0.0
H833 H 0.29253 0.85507 0.13564 0.0
H834 H 0.29609 0.83966 0.1136 0.0
H835 H 0.22729 0.8662 0.11691 0.0
H836 H 0.26152 0.87902 0.10291 0.0
H837 H 0.26637 0.88424 0.12772 0.0
H838 H 0.35085 0.90973 0.07664 0.0
C839 C 0.30364 0.87096 0.08213 0.0
C840 C 0.31062 0.4621 0.04683 0.0
C841 C 0.335 0.45646 0.05322 0.0
C842 C 0.33304 0.44488 0.0713 0.0
C843 C 0.28289 0.44457 0.07643 0.0
C844 C 0.28483 0.45595 0.05864 0.0
C845 C 0.25704 0.46104 0.05425 0.0
H846 H 0.11032 0.43936 0.07701 0.0
C847 C 0.25323 0.44089 0.08517 0.0
C848 C 0.23798 0.45051 0.07219 0.0
H849 H 0.16898 0.48922 0.02994 0.0
H850 H 0.21109 0.47994 0.04075 0.0
H851 H 0.1328 0.38502 0.08448 0.0
H852 H 0.16511 0.47926 0.10314 0.0
H853 H 0.17756 0.46264 0.12049 0.0
H854 H 0.13508 0.44625 0.11564 0.0
H855 H 0.10956 0.39745 0.09786 0.0
H856 H 0.13675 0.38748 0.10898 0.0
C857 C 0.23802 0.43938 0.03774 0.0
C858 C 0.27047 0.49648 0.05057 0.0
C859 C 0.2218 0.39671 0.15064 0.0
C860 C 0.19602 0.39155 0.16221 0.0
C861 C 0.17366 0.40011 0.15589 0.0
C862 C 0.17583 0.412 0.138 0.0
C863 C 0.2011 0.41619 0.12638 0.0
C864 C 0.22415 0.40953 0.13292 0.0
C865 C 0.25045 0.41761 0.11894 0.0
C866 C 0.239 0.42963 0.10286 0.0
C867 C 0.20974 0.42814 0.10724 0.0
C868 C 0.25064 0.38712 0.11382 0.0
C869 C 0.28248 0.44378 0.12742 0.0
C870 C 0.13206 0.44783 0.06892 0.0
C871 C 0.13568 0.46401 0.05221 0.0
C872 C 0.16503 0.47584 0.04254 0.0
C873 C 0.18966 0.47073 0.04892 0.0
C874 C 0.18579 0.45482 0.06567 0.0
C875 C 0.15783 0.44467 0.07572 0.0
C876 C 0.1605 0.4336 0.09475 0.0
C877 C 0.19364 0.43658 0.09384 0.0
C878 C 0.20802 0.44837 0.07659 0.0
C879 C 0.13344 0.39906 0.09678 0.0
C880 C 0.15933 0.45635 0.10934 0.0
H881 H 0.3072 0.43016 0.09653 0.0
H882 H 0.31177 0.47122 0.03303 0.0
H883 H 0.29455 0.51121 0.05714 0.0
H884 H 0.25524 0.50517 0.05673 0.0
H885 H 0.27308 0.50157 0.03547 0.0
H886 H 0.23308 0.41506 0.04024 0.0
H887 H 0.25197 0.4478 0.02469 0.0
H888 H 0.21439 0.43755 0.0355 0.0
H889 H 0.23954 0.39068 0.15526 0.0
H890 H 0.15384 0.39657 0.16466 0.0
H891 H 0.15746 0.41706 0.13383 0.0
H892 H 0.22563 0.3669 0.11282 0.0
H893 H 0.26367 0.38143 0.1245 0.0
H894 H 0.26133 0.38819 0.10013 0.0
H895 H 0.27842 0.46068 0.13563 0.0
H896 H 0.30026 0.45821 0.11682 0.0
H897 H 0.29339 0.4338 0.13685 0.0
H898 H 0.35169 0.4405 0.07644 0.0
C899 C 0.30721 0.43892 0.08292 0.0
C900 C 0.51718 0.87806 0.30408 0.0
C901 C 0.54213 0.87509 0.29591 0.0
C902 C 0.54685 0.87933 0.2766 0.0
C903 C 0.50157 0.88823 0.27379 0.0
C904 C 0.49683 0.8839 0.29273 0.0
C905 C 0.46726 0.8847 0.29883 0.0
H906 H 0.32937 0.88317 0.27598 0.0
C907 C 0.47578 0.89317 0.26594 0.0
C908 C 0.45528 0.89059 0.28054 0.0
H909 H 0.36345 0.87791 0.33065 0.0
H910 H 0.41359 0.88618 0.31768 0.0
H911 H 0.39315 0.94291 0.26594 0.0
H912 H 0.35933 0.84686 0.25077 0.0
H913 H 0.37311 0.87139 0.23097 0.0
H914 H 0.3407 0.86942 0.24436 0.0
H915 H 0.37059 0.92648 0.245 0.0
H916 H 0.41396 0.94465 0.24558 0.0
C917 C 0.47779 0.91247 0.31259 0.0
C918 C 0.44338 0.85212 0.30695 0.0
C919 C 0.47897 0.92337 0.19802 0.0
C920 C 0.46071 0.93338 0.18775 0.0
C921 C 0.43283 0.93097 0.19583 0.0
C922 C 0.42383 0.91979 0.21396 0.0
C923 C 0.44323 0.9115 0.2244 0.0
C924 C 0.47026 0.91328 0.21641 0.0
C925 C 0.48901 0.90531 0.23003 0.0
C926 C 0.46952 0.89975 0.24764 0.0
C927 C 0.44232 0.90275 0.24414 0.0
C928 C 0.52331 0.93411 0.23193 0.0
C929 C 0.4881 0.87499 0.22318 0.0
C930 C 0.3477 0.8837 0.28506 0.0
C931 C 0.34224 0.87889 0.30427 0.0
C932 C 0.36705 0.88102 0.3158 0.0
C933 C 0.39598 0.88562 0.30822 0.0
C934 C 0.40055 0.88885 0.28891 0.0
C935 C 0.3772 0.88919 0.27774 0.0
C936 C 0.38814 0.89698 0.25789 0.0
C937 C 0.42062 0.89846 0.25875 0.0
C938 C 0.42748 0.89315 0.27692 0.0
C939 C 0.39152 0.92928 0.25322 0.0
C940 C 0.36405 0.86984 0.24521 0.0
H941 H 0.53168 0.88879 0.25093 0.0
H942 H 0.51301 0.87487 0.31888 0.0
H943 H 0.4429 0.83306 0.29833 0.0
H944 H 0.41827 0.84708 0.30712 0.0
H945 H 0.45053 0.84977 0.32127 0.0
H946 H 0.50205 0.93228 0.30905 0.0
H947 H 0.47896 0.9053 0.32704 0.0
H948 H 0.46183 0.92266 0.31208 0.0
H949 H 0.50045 0.92488 0.19214 0.0
H950 H 0.41829 0.93832 0.18815 0.0
H951 H 0.40237 0.91849 0.21928 0.0
H952 H 0.52225 0.95616 0.23275 0.0
H953 H 0.53829 0.9359 0.21977 0.0
H954 H 0.53599 0.93383 0.24465 0.0
H955 H 0.46512 0.85926 0.21575 0.0
H956 H 0.48894 0.86064 0.2347 0.0
H957 H 0.50812 0.88048 0.21346 0.0
H958 H 0.56604 0.8773 0.27007 0.0
C959 C 0.52684 0.88594 0.26553 0.0
C960 C 0.10099 0.47467 0.30547 0.0
C961 C 0.09164 0.44407 0.29956 0.0
C962 C 0.06963 0.43099 0.28455 0.0
C963 C 0.07356 0.48131 0.27899 0.0
C964 C 0.09069 0.49231 0.29541 0.0
C965 C 0.09691 0.52448 0.3004 0.0
H966 H 0.09918 0.65756 0.27585 0.0
C967 C 0.07177 0.50758 0.27027 0.0
C968 C 0.08465 0.53258 0.28308 0.0
H969 H 0.11972 0.63268 0.32953 0.0
H970 H 0.10759 0.58196 0.31761 0.0
H971 H 0.13664 0.63473 0.25405 0.0
H972 H 0.03487 0.58678 0.26409 0.0
H973 H 0.04266 0.58612 0.2401 0.0
H974 H 0.05738 0.62309 0.25178 0.0
H975 H 0.10965 0.63816 0.23827 0.0
H976 H 0.11944 0.6073 0.23585 0.0
C977 C 0.13362 0.54647 0.3032 0.0
C978 C 0.07627 0.5215 0.31766 0.0
C979 C 0.04196 0.5032 0.2018 0.0
C980 C 0.04505 0.52655 0.18937 0.0
C981 C 0.05866 0.55776 0.19571 0.0
C982 C 0.06707 0.56531 0.21441 0.0
C983 C 0.06287 0.54163 0.2268 0.0
C984 C 0.05177 0.51142 0.22034 0.0
C985 C 0.05208 0.49018 0.23529 0.0
C986 C 0.06446 0.51257 0.25186 0.0
C987 C 0.06991 0.54243 0.24679 0.0
C988 C 0.0758 0.47919 0.22933 0.0
C989 C 0.01727 0.46302 0.2382 0.0
C990 C 0.10035 0.64075 0.28502 0.0
C991 C 0.10986 0.64858 0.30367 0.0
C992 C 0.112 0.62673 0.31521 0.0
C993 C 0.1049 0.59736 0.30825 0.0
C994 C 0.09584 0.5899 0.28953 0.0
C995 C 0.09357 0.61133 0.27823 0.0
C996 C 0.08499 0.59965 0.2585 0.0
C997 C 0.08026 0.56678 0.26026 0.0
C998 C 0.08716 0.5616 0.27836 0.0
C999 C 0.11396 0.62102 0.24593 0.0
C1000 C 0.05334 0.5989 0.25319 0.0
H1001 H 0.046 0.4392 0.26201 0.0
H1002 H 0.1172 0.48525 0.31716 0.0
H1003 H 0.05632 0.497 0.31972 0.0
H1004 H 0.06405 0.53547 0.31626 0.0
H1005 H 0.09106 0.52874 0.33057 0.0
H1006 H 0.14724 0.54242 0.29211 0.0
H1007 H 0.14171 0.5422 0.31679 0.0
H1008 H 0.14105 0.57159 0.30244 0.0
H1009 H 0.03209 0.47913 0.19716 0.0
H1010 H 0.06167 0.5761 0.18626 0.0
H1011 H 0.07628 0.58926 0.21851 0.0
H1012 H 0.09949 0.49969 0.22562 0.0
H1013 H 0.06642 0.46348 0.21698 0.0
H1014 H 0.08058 0.4665 0.24027 0.0
H1015 H 0.99967 0.4713 0.23647 0.0
H1016 H 0.01332 0.4534 0.25238 0.0
H1017 H 0.01094 0.44376 0.228 0.0
H1018 H 0.06138 0.40711 0.28003 0.0
C1019 C 0.06114 0.44971 0.27395 0.0
C1020 C 0.36018 0.47571 0.30062 0.0
C1021 C 0.33827 0.44546 0.29387 0.0
C1022 C 0.34553 0.43467 0.27747 0.0
C1023 C 0.39356 0.48533 0.27358 0.0
C1024 C 0.38814 0.49476 0.29059 0.0
C1025 C 0.41536 0.52648 0.29641 0.0
H1026 H 0.55846 0.65363 0.2761 0.0
C1027 C 0.42342 0.51145 0.26603 0.0
C1028 C 0.43702 0.53524 0.27957 0.0
H1029 H 0.50376 0.63396 0.32683 0.0
H1030 H 0.46292 0.58626 0.31383 0.0
H1031 H 0.54859 0.58616 0.26847 0.0
H1032 H 0.4951 0.63017 0.24997 0.0
H1033 H 0.50116 0.61137 0.23086 0.0
H1034 H 0.53546 0.6428 0.24256 0.0
H1035 H 0.56375 0.61588 0.25092 0.0
H1036 H 0.53745 0.57497 0.24524 0.0
C1037 C 0.43147 0.52197 0.31391 0.0
C1038 C 0.40185 0.54893 0.29918 0.0
C1039 C 0.45061 0.50757 0.19858 0.0
C1040 C 0.47813 0.5264 0.18804 0.0
C1041 C 0.50324 0.55423 0.19593 0.0
C1042 C 0.50125 0.56287 0.21421 0.0
C1043 C 0.47425 0.54303 0.2249 0.0
C1044 C 0.44966 0.51574 0.21708 0.0
C1045 C 0.42477 0.49561 0.23104 0.0
C1046 C 0.43747 0.51629 0.24825 0.0
C1047 C 0.46631 0.54414 0.24456 0.0
C1048 C 0.42544 0.46451 0.23318 0.0
C1049 C 0.39185 0.49096 0.22459 0.0
C1050 C 0.53948 0.6385 0.28534 0.0
C1051 C 0.53854 0.64651 0.30423 0.0
C1052 C 0.50896 0.62741 0.31356 0.0
C1053 C 0.48416 0.5996 0.30569 0.0
C1054 C 0.48759 0.59077 0.28774 0.0
C1055 C 0.51447 0.61056 0.27766 0.0
C1056 C 0.51292 0.59848 0.25819 0.0
C1057 C 0.4814 0.56743 0.25866 0.0
C1058 C 0.46658 0.56315 0.276 0.0
C1059 C 0.54223 0.59376 0.25536 0.0
C1060 C 0.51127 0.62187 0.24455 0.0
H1061 H 0.37613 0.44568 0.25428 0.0
H1062 H 0.35547 0.48447 0.31335 0.0
H1063 H 0.38321 0.54449 0.28848 0.0
H1064 H 0.42034 0.57389 0.29759 0.0
H1065 H 0.39052 0.54563 0.31302 0.0
H1066 H 0.43106 0.49916 0.31332 0.0
H1067 H 0.41871 0.52209 0.32671 0.0
H1068 H 0.45721 0.53979 0.31527 0.0
H1069 H 0.43119 0.48588 0.19287 0.0
H1070 H 0.52467 0.56904 0.18799 0.0
H1071 H 0.52118 0.58423 0.21946 0.0
H1072 H 0.44778 0.46625 0.22745 0.0
H1073 H 0.40478 0.44476 0.22584 0.0
H1074 H 0.42538 0.45818 0.24794 0.0
H1075 H 0.39383 0.51398 0.22146 0.0
H1076 H 0.37292 0.47967 0.23514 0.0
H1077 H 0.38338 0.47627 0.2118 0.0
H1078 H 0.32912 0.41131 0.27219 0.0
C1079 C 0.37272 0.45468 0.26709 0.0
Tb1080 Tb 0.491 0.98205 0.98665 0.0
C1081 C 0.5617 0.08014 0.0513 0.0
C1082 C 0.61113 0.07901 0.05624 0.0
C1083 C 0.6062 0.12223 0.06867 0.0
C1084 C 0.57933 0.06507 0.04911 0.0
C1085 C 0.57535 0.1093 0.06077 0.0
C1086 C 0.62399 0.10704 0.0665 0.0
C1087 C 0.52729 0.11132 0.05393 0.0
N1088 N 0.53206 0.06719 0.04324 0.0
C1089 C 0.51435 0.08209 0.04517 0.0
C1090 C 0.55787 0.12495 0.06184 0.0
Tb1091 Tb 0.51181 0.01607 0.03281 0.0
N1092 N 0.56699 0.03918 0.03796 0.0
C1093 C 0.58678 0.02791 0.03239 0.0
C1094 C 0.62998 0.06565 0.05179 0.0
C1095 C 0.61797 0.04044 0.03948 0.0
H1096 H 0.48934 0.07102 0.04103 0.0
H1097 H 0.63296 0.03092 0.03513 0.0
H1098 H 0.64822 0.11787 0.07213 0.0
H1099 H 0.51308 0.12274 0.05522 0.0
H1100 H 0.57948 0.00958 0.02217 0.0
H1101 H 0.36469 0.94726 0.98666 0.0
H1102 H 0.65446 0.07572 0.05693 0.0
H1103 H 0.52772 0.94373 0.9721 0.0
H1104 H 0.42255 0.98407 0.98817 0.0
H1105 H 0.51272 0.88935 0.96346 0.0
H1106 H 0.61683 0.14439 0.07613 0.0
H1107 H 0.34461 0.89086 0.98088 0.0
H1108 H 0.35708 0.84806 0.9738 0.0
H1109 H 0.56762 0.14739 0.0689 0.0
H1110 H 0.3974 0.83222 0.96759 0.0
N1111 N 0.43622 0.94942 0.98469 0.0
C1112 C 0.41463 0.95977 0.98615 0.0
C1113 C 0.37029 0.90707 0.98177 0.0
C1114 C 0.39242 0.89681 0.97913 0.0
C1115 C 0.38151 0.93882 0.98505 0.0
C1116 C 0.42562 0.91889 0.98058 0.0
H1117 H 0.4555 0.84745 0.96369 0.0
N1118 N 0.4798 0.93214 0.97873 0.0
C1119 C 0.49435 0.89472 0.96763 0.0
C1120 C 0.4482 0.90995 0.9774 0.0
C1121 C 0.5028 0.92539 0.97268 0.0
C1122 C 0.46203 0.87115 0.96773 0.0
C1123 C 0.4384 0.87874 0.97227 0.0
O1124 O 0.51887 0.99372 0.96248 0.0
O1125 O 0.52476 0.02277 1.00347 0.0
O1126 O 0.49221 0.04172 0.01723 0.0
O1127 O 0.47793 0.01883 0.98763 0.0
O1128 O 0.54349 0.00488 0.98548 0.0
O1129 O 0.47216 0.98921 0.96155 0.0
O1130 O 0.48257 0.01748 0.05409 0.0
O1131 O 0.47284 0.98454 0.0137 0.0
O1132 O 0.50244 0.9517 1.00371 0.0
O1133 O 0.52698 0.98129 0.03051 0.0
O1134 O 0.47272 0.96999 0.03986 0.0
O1135 O 0.51551 0.00026 0.05933 0.0
C1136 C 0.55131 0.02848 0.99637 0.0
C1137 C 0.49371 0.98232 0.9331 0.0
C1138 C 0.50215 0.99164 0.89967 0.0
C1139 C 0.50099 0.00238 0.91769 0.0
C1140 C 0.49612 0.96078 0.89735 0.0
C1141 C 0.48632 0.95124 0.93021 0.0
C1142 C 0.48784 0.94066 0.91248 0.0
C1143 C 0.4802 0.03942 1.00026 0.0
C1144 C 0.49757 0.99522 0.95206 0.0
C1145 C 0.40541 0.85638 0.97134 0.0
C1146 C 0.38245 0.8654 0.97483 0.0
C1147 C 0.45732 0.96155 0.02459 0.0
C1148 C 0.49706 0.01567 0.08583 0.0
C1149 C 0.49212 0.99415 0.10014 0.0
C1150 C 0.49194 0.00243 0.11891 0.0
C1151 C 0.49787 0.03278 0.12314 0.0
C1152 C 0.50296 0.04576 0.09054 0.0
C1153 C 0.50362 0.0543 0.10907 0.0
C1154 C 0.51897 0.95711 0.01939 0.0
C1155 C 0.49332 0.00521 0.06625 0.0
H1156 H 0.5062 0.02632 0.91973 0.0
H1157 H 0.49702 0.952 0.88368 0.0
H1158 H 0.47983 0.93521 0.94162 0.0
H1159 H 0.48263 0.91675 0.91045 0.0
H1160 H 0.4875 0.97078 0.09669 0.0
H1161 H 0.49798 0.0398 0.13743 0.0
H1162 H 0.50643 0.06255 0.07999 0.0
H1163 H 0.5081 0.07758 0.11253 0.0
Tb1164 Tb 0.01993 0.50866 0.98629 0.0
C1165 C 0.91495 0.46689 0.04714 0.0
C1166 C 0.91281 0.51402 0.05428 0.0
C1167 C 0.869 0.46323 0.06363 0.0
C1168 C 0.929 0.49924 0.04666 0.0
C1169 C 0.88458 0.44851 0.05547 0.0
C1170 C 0.88315 0.49591 0.06312 0.0
C1171 C 0.88781 0.40234 0.04803 0.0
N1172 N 0.93074 0.45343 0.03912 0.0
C1173 C 0.9183 0.42155 0.04052 0.0
C1174 C 0.87082 0.41588 0.0555 0.0
Tb1175 Tb 0.98285 0.48821 0.03047 0.0
N1176 N 0.95665 0.51573 0.0369 0.0
C1177 C 0.96836 0.54706 0.03363 0.0
C1178 C 0.92586 0.54628 0.05178 0.0
C1179 C 0.95341 0.56272 0.04111 0.0
H1180 H 0.93218 0.41087 0.03611 0.0
H1181 H 0.96306 0.58747 0.03847 0.0
H1182 H 0.87047 0.50688 0.06908 0.0
H1183 H 0.87794 0.3772 0.04863 0.0
H1184 H 0.98889 0.5605 0.02502 0.0
H1185 H 0.03568 0.40631 0.98241 0.0
H1186 H 0.91406 0.55842 0.05732 0.0
H1187 H 0.07354 0.585 0.97936 0.0
H1188 H 0.01189 0.43604 0.99478 0.0
H1189 H 0.1282 0.61612 0.96695 0.0
H1190 H 0.84581 0.4495 0.07022 0.0
H1191 H 0.08405 0.43213 0.96278 0.0
H1192 H 0.12914 0.48203 0.95021 0.0
H1193 H 0.84748 0.401 0.06167 0.0
H1194 H 0.15615 0.53949 0.94794 0.0
N1195 N 0.04454 0.47906 0.98114 0.0
C1196 C 0.03237 0.44813 0.98582 0.0
C1197 C 0.07319 0.44546 0.9678 0.0
C1198 C 0.08738 0.4776 0.96445 0.0
C1199 C 0.04603 0.43087 0.97895 0.0
C1200 C 0.0722 0.49389 0.97126 0.0
H1201 H 0.15692 0.58967 0.95519 0.0
N1202 N 0.07259 0.54111 0.97739 0.0
C1203 C 0.11728 0.59089 0.96802 0.0
C1204 C 0.08745 0.5262 0.97005 0.0
C1205 C 0.08648 0.5731 0.97547 0.0
C1206 C 0.1333 0.57587 0.96127 0.0
C1207 C 0.11821 0.54313 0.96191 0.0
O1208 O 0.01914 0.53571 0.96384 0.0
O1209 O 0.97629 0.4979 1.00173 0.0
O1210 O 0.95198 0.44886 0.0115 0.0
O1211 O 0.98218 0.45901 0.9848 0.0
O1212 O 0.9957 0.53648 0.98608 0.0
O1213 O 0.00459 0.48683 0.96019 0.0
O1214 O 0.98598 0.46271 0.05296 0.0
O1215 O 0.02649 0.49969 0.01516 0.0
O1216 O 0.05079 0.54834 1.00434 0.0
O1217 O 0.02038 0.53863 0.03114 0.0
O1218 O 0.00803 0.4613 0.03123 0.0
O1219 O 0.99554 0.51031 0.05682 0.0
C1220 C 0.97038 0.51874 0.99558 0.0
C1221 C 0.02318 0.51857 0.9335 0.0
C1222 C 0.01565 0.50949 0.90018 0.0
C1223 C 0.00269 0.50633 0.91802 0.0
C1224 C 0.04921 0.5245 0.89802 0.0
C1225 C 0.05649 0.53588 0.93075 0.0
C1226 C 0.0695 0.53817 0.91322 0.0
C1227 C 0.95701 0.44018 0.99494 0.0
C1228 C 0.00902 0.51237 0.95215 0.0
C1229 C 0.13275 0.52691 0.95444 0.0
C1230 C 0.11725 0.49418 0.95559 0.0
C1231 C 0.033 0.47946 0.02159 0.0
C1232 C 0.97931 0.47731 0.08353 0.0
C1233 C 0.99881 0.49323 0.09901 0.0
C1234 C 0.98691 0.48403 0.11708 0.0
C1235 C 0.95524 0.45951 0.11959 0.0
C1236 C 0.94799 0.45237 0.08643 0.0
C1237 C 0.9359 0.44383 0.10431 0.0
C1238 C 0.04452 0.55752 0.02021 0.0
C1239 C 0.99321 0.48546 0.06478 0.0
H1240 H 0.9768 0.49444 0.9198 0.0
H1241 H 0.05966 0.52688 0.8844 0.0
H1242 H 0.07257 0.54815 0.94188 0.0
H1243 H 0.09535 0.55103 0.91139 0.0
H1244 H 0.02328 0.51222 0.09705 0.0
H1245 H 0.94564 0.45234 0.13342 0.0
H1246 H 0.93301 0.43894 0.07502 0.0
H1247 H 0.91162 0.42463 0.10633 0.0
Tb1248 Tb 0.51373 0.48844 0.03149 0.0
C1249 C 0.44766 0.53611 0.98014 0.0
C1250 C 0.39235 0.4939 0.97943 0.0
C1251 C 0.40438 0.54778 0.97611 0.0
C1252 C 0.42556 0.50464 0.98151 0.0
C1253 C 0.43746 0.55801 0.97678 0.0
C1254 C 0.38182 0.51572 0.97744 0.0
C1255 C 0.49323 0.59767 0.97274 0.0
N1256 N 0.47933 0.54493 0.9806 0.0
C1257 C 0.50211 0.57498 0.97594 0.0
C1258 C 0.46079 0.58927 0.97347 0.0
Tb1259 Tb 0.49164 0.50643 0.98714 0.0
N1260 N 0.43682 0.48436 0.98291 0.0
C1261 C 0.41612 0.45292 0.98011 0.0
C1262 C 0.37094 0.46162 0.97823 0.0
C1263 C 0.38302 0.44112 0.97799 0.0
H1264 H 0.52726 0.58163 0.97549 0.0
H1265 H 0.36686 0.41615 0.97622 0.0
H1266 H 0.3564 0.50794 0.97608 0.0
H1267 H 0.51139 0.62161 0.96971 0.0
H1268 H 0.42448 0.43635 0.97943 0.0
H1269 H 0.64009 0.57848 0.03386 0.0
H1270 H 0.34529 0.4524 0.97655 0.0
H1271 H 0.47953 0.41648 0.04837 0.0
H1272 H 0.58241 0.55845 0.03181 0.0
H1273 H 0.49491 0.37679 0.05588 0.0
H1274 H 0.39602 0.56428 0.97381 0.0
H1275 H 0.66094 0.54182 0.03689 0.0
H1276 H 0.64923 0.48652 0.04146 0.0
H1277 H 0.45395 0.60683 0.97087 0.0
H1278 H 0.60944 0.4311 0.04732 0.0
N1279 N 0.56899 0.5101 0.03361 0.0
C1280 C 0.59033 0.54176 0.03352 0.0
C1281 C 0.6352 0.53272 0.03614 0.0
C1282 C 0.61342 0.50058 0.03752 0.0
C1283 C 0.62353 0.55345 0.03454 0.0
C1284 C 0.58014 0.49 0.03641 0.0
H1285 H 0.55172 0.38995 0.05301 0.0
N1286 N 0.5265 0.45081 0.03971 0.0
C1287 C 0.51289 0.39973 0.05104 0.0
C1288 C 0.55799 0.45907 0.0395 0.0
C1289 C 0.50422 0.4222 0.04665 0.0
C1290 C 0.54494 0.40722 0.04937 0.0
C1291 C 0.56814 0.43752 0.04406 0.0
O1292 O 0.48617 0.47208 0.05601 0.0
O1293 O 0.47785 0.49301 0.0156 0.0
O1294 O 0.49767 0.54387 1.00613 0.0
O1295 O 0.52746 0.53869 0.02979 0.0
O1296 O 0.4618 0.45687 0.0337 0.0
O1297 O 0.52976 0.5163 0.05537 0.0
O1298 O 0.5207 0.52537 0.96362 0.0
O1299 O 0.52755 0.50103 1.00274 0.0
O1300 O 0.49938 0.44639 0.01488 0.0
O1301 O 0.47723 0.45638 0.9885 0.0
O1302 O 0.54329 0.53902 0.98593 0.0
O1303 O 0.47802 0.4801 0.96215 0.0
C1304 C 0.4522 0.47024 0.02207 0.0
C1305 C 0.51489 0.49108 0.08407 0.0
C1306 C 0.51101 0.49465 0.11753 0.0
C1307 C 0.50047 0.49617 0.09957 0.0
C1308 C 0.53509 0.48657 0.11981 0.0
C1309 C 0.53879 0.48293 0.08654 0.0
C1310 C 0.54861 0.48041 0.10438 0.0
C1311 C 0.51559 0.55467 0.02134 0.0
C1312 C 0.50618 0.49656 0.06557 0.0
C1313 C 0.60115 0.44737 0.04407 0.0
C1314 C 0.62379 0.47891 0.04077 0.0
C1315 C 0.55304 0.52438 0.99649 0.0
C1316 C 0.49588 0.50954 0.93438 0.0
C1317 C 0.5042 0.49833 0.91856 0.0
C1318 C 0.50072 0.50795 0.90073 0.0
C1319 C 0.48898 0.52886 0.89895 0.0
C1320 C 0.48346 0.5298 0.93223 0.0
C1321 C 0.48024 0.53954 0.9146 0.0
C1322 C 0.48362 0.43798 0.9989 0.0
C1323 C 0.50229 0.50165 0.95299 0.0
H1324 H 0.4819 0.50238 0.09767 0.0
H1325 H 0.54345 0.4851 0.13356 0.0
H1326 H 0.55025 0.4791 0.07473 0.0
H1327 H 0.56712 0.4742 0.10626 0.0
H1328 H 0.51345 0.48234 0.92007 0.0
H1329 H 0.48604 0.53647 0.88535 0.0
H1330 H 0.47654 0.53837 0.94412 0.0
H1331 H 0.4709 0.55539 0.91307 0.0
Tb1332 Tb 0.16011 0.3136 0.31764 0.0
C1333 C 0.22021 0.41666 0.37932 0.0
C1334 C 0.27324 0.4235 0.38483 0.0
C1335 C 0.26122 0.4633 0.39549 0.0
C1336 C 0.24165 0.40587 0.37749 0.0
C1337 C 0.2295 0.4451 0.38886 0.0
C1338 C 0.28299 0.45242 0.39358 0.0
C1339 C 0.17396 0.43219 0.38823 0.0
N1340 N 0.18927 0.39741 0.37389 0.0
C1341 C 0.16586 0.40393 0.3792 0.0
C1342 C 0.20605 0.4532 0.39272 0.0
Tb1343 Tb 0.17672 0.34906 0.36258 0.0
N1344 N 0.23149 0.37804 0.36862 0.0
C1345 C 0.25253 0.36694 0.36657 0.0
C1346 C 0.29425 0.41176 0.38297 0.0
C1347 C 0.28385 0.38343 0.37369 0.0
H1348 H 0.14085 0.38745 0.3761 0.0
H1349 H 0.30004 0.37429 0.37188 0.0
H1350 H 0.3072 0.46636 0.39911 0.0
H1351 H 0.15539 0.43759 0.39185 0.0
H1352 H 0.24613 0.34565 0.35923 0.0
H1353 H 0.04041 0.29605 0.30461 0.0
H1354 H 0.31864 0.42457 0.38837 0.0
H1355 H 0.19071 0.26621 0.3117 0.0
H1356 H 0.09273 0.32127 0.31983 0.0
H1357 H 0.1725 0.21364 0.2983 0.0
H1358 H 0.2688 0.48525 0.40277 0.0
H1359 H 0.02173 0.24699 0.28674 0.0
H1360 H 0.03095 0.20341 0.27677 0.0
H1361 H 0.21221 0.47481 0.40001 0.0
H1362 H 0.0655 0.17972 0.27653 0.0
N1363 N 0.10636 0.28838 0.30978 0.0
C1364 C 0.08628 0.30062 0.31162 0.0
C1365 C 0.04549 0.25841 0.29305 0.0
C1366 C 0.06518 0.24502 0.29198 0.0
C1367 C 0.05593 0.28608 0.30314 0.0
C1368 C 0.09597 0.26083 0.30045 0.0
H1369 H 0.11761 0.18276 0.2851 0.0
N1370 N 0.14504 0.26332 0.3085 0.0
C1371 C 0.15605 0.22263 0.29905 0.0
C1372 C 0.11541 0.24736 0.30042 0.0
C1373 C 0.16608 0.25215 0.30689 0.0
C1374 C 0.12511 0.20535 0.29153 0.0
C1375 C 0.10463 0.21793 0.29177 0.0
O1376 O 0.19178 0.32003 0.29572 0.0
O1377 O 0.19331 0.355 0.33406 0.0
O1378 O 0.1678 0.38112 0.34474 0.0
O1379 O 0.14728 0.35086 0.31788 0.0
O1380 O 0.21275 0.33512 0.31845 0.0
O1381 O 0.14924 0.32363 0.29109 0.0
O1382 O 0.14975 0.34109 0.38724 0.0
O1383 O 0.14285 0.30861 0.34605 0.0
O1384 O 0.16192 0.27977 0.33629 0.0
O1385 O 0.19228 0.31371 0.36002 0.0
O1386 O 0.12419 0.3285 0.36231 0.0
O1387 O 0.18851 0.33117 0.38601 0.0
C1388 C 0.22041 0.35965 0.32849 0.0
C1389 C 0.17233 0.31357 0.26452 0.0
C1390 C 0.17728 0.32406 0.23118 0.0
C1391 C 0.17627 0.33352 0.24953 0.0
C1392 C 0.17352 0.29423 0.22798 0.0
C1393 C 0.16861 0.28393 0.26093 0.0
C1394 C 0.16899 0.27426 0.24276 0.0
C1395 C 0.15391 0.37605 0.32792 0.0
C1396 C 0.17475 0.32535 0.28364 0.0
C1397 C 0.07412 0.20229 0.28326 0.0
C1398 C 0.05453 0.21587 0.28329 0.0
C1399 C 0.11598 0.30436 0.35181 0.0
C1400 C 0.17604 0.34268 0.41591 0.0
C1401 C 0.16074 0.32183 0.43072 0.0
C1402 C 0.17093 0.33158 0.44919 0.0
C1403 C 0.19596 0.36229 0.4527 0.0
C1404 C 0.20103 0.3731 0.41996 0.0
C1405 C 0.21075 0.38294 0.43815 0.0
C1406 C 0.18159 0.28712 0.35062 0.0
C1407 C 0.16679 0.33178 0.39648 0.0
H1408 H 0.17917 0.35652 0.25212 0.0
H1409 H 0.17401 0.28639 0.21398 0.0
H1410 H 0.166 0.26841 0.27206 0.0
H1411 H 0.16614 0.25133 0.24015 0.0
H1412 H 0.14133 0.29816 0.42797 0.0
H1413 H 0.20393 0.37031 0.46679 0.0
H1414 H 0.21354 0.3893 0.40924 0.0
H1415 H 0.23005 0.40662 0.44095 0.0
Tb1416 Tb 0.68779 0.83961 0.31817 0.0
C1417 C 0.57784 0.80017 0.37257 0.0
C1418 C 0.56387 0.84063 0.36782 0.0
C1419 C 0.52358 0.78943 0.37909 0.0
C1420 C 0.58653 0.83034 0.36734 0.0
C1421 C 0.54674 0.77992 0.37944 0.0
C1422 C 0.53209 0.81968 0.37315 0.0
C1423 C 0.5654 0.74483 0.38938 0.0
N1424 N 0.60093 0.79193 0.37288 0.0
C1425 C 0.59575 0.76551 0.3821 0.0
C1426 C 0.54052 0.75165 0.38758 0.0
Tb1427 Tb 0.651 0.8293 0.36376 0.0
N1428 N 0.61775 0.85022 0.36303 0.0
C1429 C 0.62817 0.88128 0.35981 0.0
C1430 C 0.57411 0.87197 0.36364 0.0
C1431 C 0.6065 0.89246 0.35984 0.0
H1432 H 0.61494 0.76013 0.38341 0.0
H1433 H 0.61481 0.91686 0.35682 0.0
H1434 H 0.51427 0.82707 0.37348 0.0
H1435 H 0.56113 0.72353 0.39618 0.0
H1436 H 0.6529 0.89761 0.35655 0.0
H1437 H 0.70902 0.74 0.31716 0.0
H1438 H 0.55742 0.88074 0.36375 0.0
H1439 H 0.73763 0.91421 0.30501 0.0
H1440 H 0.67591 0.76369 0.31698 0.0
H1441 H 0.79565 0.94893 0.30056 0.0
H1442 H 0.4994 0.77404 0.38406 0.0
H1443 H 0.76811 0.77251 0.31601 0.0
H1444 H 0.81668 0.82531 0.31308 0.0
H1445 H 0.51702 0.73559 0.39319 0.0
H1446 H 0.84033 0.88205 0.30874 0.0
N1447 N 0.71512 0.81176 0.31682 0.0
C1448 C 0.70137 0.77956 0.31679 0.0
C1449 C 0.75357 0.7837 0.31603 0.0
C1450 C 0.76766 0.81622 0.31481 0.0
C1451 C 0.72028 0.76532 0.31667 0.0
C1452 C 0.74767 0.82979 0.31505 0.0
H1453 H 0.83279 0.92814 0.30396 0.0
N1454 N 0.74153 0.87435 0.31268 0.0
C1455 C 0.78645 0.92466 0.30434 0.0
C1456 C 0.76119 0.86192 0.3129 0.0
C1457 C 0.75354 0.90488 0.30709 0.0
C1458 C 0.80725 0.91282 0.30623 0.0
C1459 C 0.7947 0.881 0.3101 0.0
O1460 O 0.68426 0.86518 0.29592 0.0
O1461 O 0.65502 0.84773 0.33575 0.0
O1462 O 0.62038 0.7847 0.34811 0.0
O1463 O 0.65083 0.79046 0.32166 0.0
O1464 O 0.64022 0.83036 0.30958 0.0
O1465 O 0.68307 0.82092 0.2912 0.0
O1466 O 0.6634 0.81675 0.38899 0.0
O1467 O 0.68722 0.82796 0.34658 0.0
O1468 O 0.71446 0.88438 0.33403 0.0
O1469 O 0.68805 0.87849 0.3622 0.0
O1470 O 0.68234 0.81094 0.37244 0.0
O1471 O 0.65828 0.85778 0.38732 0.0
C1472 C 0.63171 0.83892 0.32421 0.0
C1473 C 0.693 0.85407 0.26489 0.0
C1474 C 0.68309 0.8481 0.23146 0.0
C1475 C 0.67364 0.83698 0.24962 0.0
C1476 C 0.71232 0.876 0.22868 0.0
C1477 C 0.72215 0.88183 0.26176 0.0
C1478 C 0.73178 0.89262 0.24375 0.0
C1479 C 0.62487 0.77407 0.33194 0.0
C1480 C 0.68059 0.84383 0.28376 0.0
C1481 C 0.81457 0.86767 0.31064 0.0
C1482 C 0.80109 0.83537 0.31306 0.0
C1483 C 0.69973 0.81746 0.35793 0.0
C1484 C 0.64893 0.83188 0.41642 0.0
C1485 C 0.66818 0.83562 0.43203 0.0
C1486 C 0.65462 0.82875 0.44983 0.0
C1487 C 0.62128 0.81621 0.45175 0.0
C1488 C 0.61578 0.81989 0.41862 0.0
C1489 C 0.60197 0.8116 0.43618 0.0
C1490 C 0.71144 0.89503 0.35046 0.0
C1491 C 0.66412 0.83991 0.39809 0.0
H1492 H 0.65095 0.81555 0.25184 0.0
H1493 H 0.72004 0.88487 0.21479 0.0
H1494 H 0.7373 0.89559 0.27307 0.0
H1495 H 0.75424 0.91417 0.2415 0.0
H1496 H 0.69384 0.84482 0.43044 0.0
H1497 H 0.61033 0.81053 0.46535 0.0
H1498 H 0.60059 0.81714 0.40689 0.0
H1499 H 0.57632 0.80214 0.43777 0.0
Tb1500 Tb 0.17733 0.82508 0.36368 0.0
C1501 C 0.10689 0.85628 0.29975 0.0
C1502 C 0.05706 0.8072 0.29496 0.0
C1503 C 0.0625 0.85542 0.28266 0.0
C1504 C 0.08899 0.82402 0.3019 0.0
C1505 C 0.0935 0.87235 0.29041 0.0
C1506 C 0.04437 0.8229 0.28487 0.0
C1507 C 0.14241 0.92095 0.2968 0.0
N1508 N 0.13664 0.87207 0.3077 0.0
C1509 C 0.155 0.90403 0.30548 0.0
C1510 C 0.11151 0.90504 0.28922 0.0
Tb1511 Tb 0.15634 0.84073 0.31829 0.0
N1512 N 0.10129 0.80996 0.31282 0.0
C1513 C 0.08139 0.77946 0.31835 0.0
C1514 C 0.03798 0.77553 0.29941 0.0
C1515 C 0.04999 0.76184 0.31149 0.0
H1516 H 0.17996 0.91679 0.30985 0.0
H1517 H 0.03487 0.73774 0.31579 0.0
H1518 H 0.02004 0.81029 0.27935 0.0
H1519 H 0.157 0.94616 0.29542 0.0
H1520 H 0.08882 0.76804 0.32831 0.0
H1521 H 0.30225 0.91791 0.36409 0.0
H1522 H 0.01339 0.76191 0.29441 0.0
H1523 H 0.14455 0.75135 0.37777 0.0
H1524 H 0.24417 0.89619 0.36239 0.0
H1525 H 0.16228 0.71313 0.3848 0.0
H1526 H 0.05204 0.86735 0.27528 0.0
H1527 H 0.32486 0.8828 0.36783 0.0
H1528 H 0.31523 0.82826 0.37252 0.0
H1529 H 0.10198 0.91816 0.28224 0.0
H1530 H 0.27705 0.77223 0.37775 0.0
N1531 N 0.23251 0.84836 0.36511 0.0
C1532 C 0.25297 0.88016 0.3643 0.0
C1533 C 0.29899 0.87294 0.36724 0.0
C1534 C 0.27809 0.84064 0.36891 0.0
C1535 C 0.28633 0.89281 0.3652 0.0
C1536 C 0.24458 0.82898 0.36789 0.0
H1537 H 0.21994 0.72908 0.38253 0.0
N1538 N 0.19128 0.78768 0.37011 0.0
C1539 C 0.17965 0.73668 0.38051 0.0
C1540 C 0.22321 0.79751 0.37042 0.0
C1541 C 0.16968 0.7583 0.37646 0.0
C1542 C 0.2122 0.74576 0.37921 0.0
C1543 C 0.23457 0.77674 0.37459 0.0
O1544 O 0.15079 0.80684 0.38837 0.0
O1545 O 0.14319 0.83289 0.34758 0.0
O1546 O 0.17215 0.88397 0.33543 0.0
O1547 O 0.18859 0.87396 0.36383 0.0
O1548 O 0.12481 0.79687 0.36541 0.0
O1549 O 0.19562 0.85022 0.38852 0.0
O1550 O 0.18706 0.87128 0.29759 0.0
O1551 O 0.19516 0.84651 0.3371 0.0
O1552 O 0.1653 0.78417 0.34604 0.0
O1553 O 0.14129 0.791 0.31945 0.0
O1554 O 0.19741 0.83637 0.31021 0.0
O1555 O 0.15273 0.82211 0.29162 0.0
C1556 C 0.11671 0.81285 0.35482 0.0
C1557 C 0.17952 0.82305 0.41686 0.0
C1558 C 0.17409 0.82453 0.45045 0.0
C1559 C 0.16445 0.82723 0.43242 0.0
C1560 C 0.19802 0.81623 0.45266 0.0
C1561 C 0.20324 0.81467 0.41931 0.0
C1562 C 0.2122 0.81101 0.43718 0.0
C1563 C 0.18386 0.89254 0.35267 0.0
C1564 C 0.17177 0.83008 0.39844 0.0
C1565 C 0.26786 0.78789 0.37481 0.0
C1566 C 0.28959 0.8198 0.37191 0.0
C1567 C 0.2117 0.84069 0.32568 0.0
C1568 C 0.17209 0.85581 0.26559 0.0
C1569 C 0.18018 0.8414 0.25131 0.0
C1570 C 0.17706 0.84748 0.23257 0.0
C1571 C 0.16571 0.86796 0.22815 0.0
C1572 C 0.16091 0.8763 0.26082 0.0
C1573 C 0.15766 0.88225 0.24224 0.0
C1574 C 0.14922 0.77421 0.33017 0.0
C1575 C 0.17562 0.84872 0.28509 0.0
H1576 H 0.14609 0.83372 0.43056 0.0
H1577 H 0.2058 0.81392 0.46641 0.0
H1578 H 0.21519 0.81155 0.40749 0.0
H1579 H 0.23062 0.80467 0.43904 0.0
H1580 H 0.18897 0.82554 0.25474 0.0
H1581 H 0.16322 0.87293 0.2138 0.0
H1582 H 0.15479 0.88784 0.27126 0.0
H1583 H 0.14897 0.89811 0.23877 0.0
Tb1584 Tb 0.82296 0.64287 0.65095 0.0
C1585 C 0.88886 0.75265 0.70258 0.0
C1586 C 0.94376 0.76323 0.7026 0.0
C1587 C 0.93312 0.80629 0.70601 0.0
C1588 C 0.91036 0.74208 0.70084 0.0
C1589 C 0.8999 0.78471 0.706 0.0
C1590 C 0.95507 0.79554 0.70429 0.0
C1591 C 0.8449 0.77101 0.71192 0.0
N1592 N 0.85707 0.73096 0.70285 0.0
C1593 C 0.83522 0.73946 0.70862 0.0
C1594 C 0.87733 0.79384 0.71025 0.0
Tb1595 Tb 0.84334 0.67988 0.69608 0.0
N1596 N 0.89836 0.71065 0.69982 0.0
C1597 C 0.9184 0.69882 0.70303 0.0
C1598 C 0.96454 0.75114 0.70402 0.0
C1599 C 0.95166 0.71877 0.70493 0.0
H1600 H 0.81002 0.72193 0.70973 0.0
H1601 H 0.96732 0.70908 0.70698 0.0
H1602 H 0.98064 0.81218 0.70533 0.0
H1603 H 0.82736 0.77771 0.71574 0.0
H1604 H 0.90927 0.67396 0.70409 0.0
H1605 H 0.69969 0.61972 0.64579 0.0
H1606 H 0.99031 0.76654 0.70551 0.0
H1607 H 0.85325 0.59649 0.64211 0.0
H1608 H 0.75391 0.64537 0.65875 0.0
H1609 H 0.83607 0.54597 0.62635 0.0
H1610 H 0.94208 0.8311 0.70826 0.0
H1611 H 0.6812 0.57403 0.62478 0.0
H1612 H 0.6921 0.53412 0.60995 0.0
H1613 H 0.88482 0.81824 0.71296 0.0
H1614 H 0.72838 0.51276 0.60577 0.0
N1615 N 0.76853 0.61651 0.64421 0.0
C1616 C 0.74732 0.62626 0.64915 0.0
C1617 C 0.70568 0.58575 0.63009 0.0
C1618 C 0.72652 0.57444 0.62605 0.0
C1619 C 0.71599 0.61146 0.64196 0.0
C1620 C 0.75816 0.59057 0.63336 0.0
H1621 H 0.7815 0.51626 0.61253 0.0
N1622 N 0.8078 0.59382 0.63938 0.0
C1623 C 0.81937 0.55456 0.62785 0.0
C1624 C 0.77826 0.57833 0.63127 0.0
C1625 C 0.82883 0.58288 0.63716 0.0
C1626 C 0.78867 0.538 0.61994 0.0
C1627 C 0.76777 0.54997 0.62144 0.0
O1628 O 0.85531 0.65331 0.62898 0.0
O1629 O 0.8582 0.68232 0.66766 0.0
O1630 O 0.83324 0.71014 0.67818 0.0
O1631 O 0.80831 0.67831 0.65258 0.0
O1632 O 0.8746 0.65959 0.65139 0.0
O1633 O 0.81497 0.66058 0.62591 0.0
O1634 O 0.81849 0.67579 0.72101 0.0
O1635 O 0.80868 0.6395 0.67999 0.0
O1636 O 0.82579 0.60881 0.66891 0.0
O1637 O 0.85674 0.64252 0.69309 0.0
O1638 O 0.79094 0.65886 0.69738 0.0
O1639 O 0.85663 0.66494 0.72021 0.0
C1640 C 0.88387 0.68363 0.66208 0.0
C1641 C 0.83702 0.65168 0.59828 0.0
C1642 C 0.84113 0.6638 0.56513 0.0
C1643 C 0.83934 0.67187 0.58375 0.0
C1644 C 0.84005 0.6353 0.56125 0.0
C1645 C 0.83577 0.62327 0.59388 0.0
C1646 C 0.83713 0.61511 0.57553 0.0
C1647 C 0.81696 0.70405 0.66234 0.0
C1648 C 0.83998 0.66213 0.61784 0.0
C1649 C 0.73681 0.53447 0.61347 0.0
C1650 C 0.71623 0.54672 0.61575 0.0
C1651 C 0.7823 0.63469 0.68684 0.0
C1652 C 0.84628 0.68057 0.74932 0.0
C1653 C 0.83148 0.66154 0.7649 0.0
C1654 C 0.84232 0.67315 0.78299 0.0
C1655 C 0.86769 0.70417 0.78524 0.0
C1656 C 0.87145 0.71145 0.75189 0.0
C1657 C 0.88198 0.72318 0.7698 0.0
C1658 C 0.84525 0.61577 0.68343 0.0
C1659 C 0.8358 0.66724 0.73059 0.0
H1660 H 0.84057 0.69401 0.58689 0.0
H1661 H 0.84134 0.62863 0.54707 0.0
H1662 H 0.83476 0.60769 0.60458 0.0
H1663 H 0.8364 0.59323 0.57239 0.0
H1664 H 0.81188 0.63767 0.763 0.0
H1665 H 0.87634 0.7137 0.799 0.0
H1666 H 0.88308 0.72635 0.74009 0.0
H1667 H 0.90145 0.74705 0.77173 0.0
Tb1668 Tb 0.35203 0.17068 0.6509 0.0
C1669 C 0.24292 0.1331 0.7021 0.0
C1670 C 0.2326 0.17602 0.69764 0.0
C1671 C 0.18904 0.12484 0.70672 0.0
C1672 C 0.25381 0.16396 0.69755 0.0
C1673 C 0.21083 0.11369 0.70781 0.0
C1674 C 0.19988 0.15594 0.70149 0.0
C1675 C 0.22583 0.07625 0.7185 0.0
N1676 N 0.26474 0.12328 0.70308 0.0
C1677 C 0.25714 0.09597 0.71211 0.0
C1678 C 0.20228 0.08464 0.71574 0.0
Tb1679 Tb 0.31653 0.15913 0.69542 0.0
N1680 N 0.28575 0.18281 0.6946 0.0
C1681 C 0.29841 0.21457 0.69306 0.0
C1682 C 0.24519 0.20817 0.69483 0.0
C1683 C 0.27836 0.22762 0.69295 0.0
H1684 H 0.27516 0.08913 0.71402 0.0
H1685 H 0.28851 0.25266 0.69126 0.0
H1686 H 0.18313 0.16466 0.7014 0.0
H1687 H 0.21977 0.05436 0.72522 0.0
H1688 H 0.32389 0.23013 0.69152 0.0
H1689 H 0.35848 0.06213 0.65446 0.0
H1690 H 0.22972 0.21835 0.69477 0.0
H1691 H 0.41173 0.24365 0.64081 0.0
H1692 H 0.33989 0.09713 0.66482 0.0
H1693 H 0.46296 0.26736 0.62461 0.0
H1694 H 0.16413 0.11009 0.71071 0.0
H1695 H 0.40304 0.08012 0.63218 0.0
H1696 H 0.44714 0.1245 0.61493 0.0
H1697 H 0.17799 0.06923 0.72054 0.0
H1698 H 0.47685 0.18076 0.60782 0.0
N1699 N 0.37111 0.13555 0.6471 0.0
C1700 C 0.35847 0.1059 0.65447 0.0
C1701 C 0.39433 0.09578 0.63624 0.0
C1702 C 0.40945 0.12676 0.63013 0.0
C1703 C 0.36929 0.0856 0.64885 0.0
C1704 C 0.3972 0.14629 0.63582 0.0
H1705 H 0.48372 0.23418 0.61208 0.0
N1706 N 0.40358 0.19665 0.63932 0.0
C1707 C 0.44972 0.24223 0.62674 0.0
C1708 C 0.41424 0.17806 0.63199 0.0
C1709 C 0.42068 0.22848 0.63637 0.0
C1710 C 0.46116 0.22342 0.61954 0.0
C1711 C 0.44347 0.19097 0.62211 0.0
O1712 O 0.35347 0.2063 0.63407 0.0
O1713 O 0.31902 0.17828 0.66813 0.0
O1714 O 0.28559 0.11505 0.6789 0.0
O1715 O 0.31432 0.12186 0.65158 0.0
O1716 O 0.30309 0.15765 0.64267 0.0
O1717 O 0.34676 0.16235 0.62199 0.0
O1718 O 0.32352 0.1432 0.72103 0.0
O1719 O 0.35909 0.1659 0.68039 0.0
O1720 O 0.38298 0.2142 0.6669 0.0
O1721 O 0.3573 0.20787 0.69532 0.0
O1722 O 0.33873 0.12986 0.69845 0.0
O1723 O 0.32383 0.18681 0.71955 0.0
C1724 C 0.29541 0.1683 0.65676 0.0
C1725 C 0.34734 0.20074 0.60035 0.0
C1726 C 0.33439 0.19123 0.56724 0.0
C1727 C 0.33669 0.18018 0.58488 0.0
C1728 C 0.34328 0.22288 0.56516 0.0
C1729 C 0.35594 0.23227 0.5979 0.0
C1730 C 0.35401 0.24324 0.5804 0.0
C1731 C 0.28938 0.10479 0.66236 0.0
C1732 C 0.34907 0.18957 0.61907 0.0
C1733 C 0.45459 0.17127 0.61552 0.0
C1734 C 0.43759 0.13922 0.6195 0.0
C1735 C 0.36376 0.14542 0.68826 0.0
C1736 C 0.31079 0.16014 0.74859 0.0
C1737 C 0.33036 0.16873 0.76457 0.0
C1738 C 0.31643 0.15926 0.78218 0.0
C1739 C 0.2828 0.14073 0.78361 0.0
C1740 C 0.27724 0.14308 0.75039 0.0
C1741 C 0.26335 0.13301 0.7678 0.0
C1742 C 0.38002 0.22517 0.68319 0.0
C1743 C 0.32622 0.16701 0.73034 0.0
H1744 H 0.32987 0.15574 0.58652 0.0
H1745 H 0.34184 0.23181 0.55168 0.0
H1746 H 0.36423 0.24853 0.60953 0.0
H1747 H 0.36079 0.26761 0.57864 0.0
H1748 H 0.35634 0.18266 0.76334 0.0
H1749 H 0.2716 0.13314 0.79706 0.0
H1750 H 0.26174 0.13741 0.73846 0.0
H1751 H 0.23743 0.11938 0.76906 0.0
Tb1752 Tb 0.8445 0.15859 0.69943 0.0
C1753 C 0.78155 0.2019 0.64478 0.0
C1754 C 0.726 0.16185 0.64942 0.0
C1755 C 0.73869 0.21362 0.63897 0.0
C1756 C 0.75918 0.17184 0.64979 0.0
C1757 C 0.77149 0.22264 0.6383 0.0
C1758 C 0.71597 0.18329 0.64469 0.0
C1759 C 0.82602 0.25722 0.62822 0.0
N1760 N 0.81294 0.20963 0.64437 0.0
C1761 C 0.83498 0.23623 0.63537 0.0
C1762 C 0.79435 0.25087 0.63023 0.0
Tb1763 Tb 0.82459 0.17196 0.65371 0.0
N1764 N 0.76982 0.15164 0.65354 0.0
C1765 C 0.74821 0.12037 0.65543 0.0
C1766 C 0.70392 0.13029 0.65292 0.0
C1767 C 0.7151 0.10931 0.65554 0.0
H1768 H 0.85962 0.24147 0.63404 0.0
H1769 H 0.69827 0.08459 0.65755 0.0
H1770 H 0.69064 0.1762 0.64452 0.0
H1771 H 0.84367 0.27853 0.62148 0.0
H1772 H 0.75622 0.10377 0.65685 0.0
H1773 H 0.9645 0.26413 0.70223 0.0
H1774 H 0.67824 0.12167 0.65285 0.0
H1775 H 0.8272 0.08223 0.70519 0.0
H1776 H 0.91196 0.23152 0.68835 0.0
H1777 H 0.85212 0.05578 0.71992 0.0
H1778 H 0.73052 0.22942 0.63438 0.0
H1779 H 0.98573 0.24242 0.7255 0.0
H1780 H 0.98027 0.19527 0.74157 0.0
H1781 H 0.78753 0.26727 0.62485 0.0
H1782 H 0.95077 0.13803 0.74515 0.0
N1783 N 0.89949 0.19093 0.70523 0.0
C1784 C 0.91911 0.22122 0.6992 0.0
C1785 C 0.96161 0.22786 0.71998 0.0
C1786 C 0.94329 0.19625 0.72469 0.0
C1787 C 0.94977 0.24014 0.70681 0.0
C1788 C 0.91195 0.1782 0.71707 0.0
H1789 H 0.9043 0.08603 0.73611 0.0
N1790 N 0.86704 0.12916 0.70976 0.0
C1791 C 0.86488 0.08118 0.71954 0.0
C1792 C 0.89543 0.14596 0.71903 0.0
C1793 C 0.85135 0.09684 0.71041 0.0
C1794 C 0.89404 0.0983 0.72889 0.0
C1795 C 0.9097 0.13102 0.72874 0.0
O1796 O 0.81319 0.12501 0.71863 0.0
O1797 O 0.80547 0.15307 0.68095 0.0
O1798 O 0.83877 0.21598 0.66962 0.0
O1799 O 0.85937 0.20811 0.69719 0.0
O1800 O 0.80989 0.17308 0.70643 0.0
O1801 O 0.84529 0.173 0.72696 0.0
O1802 O 0.85048 0.18572 0.6287 0.0
O1803 O 0.85802 0.16344 0.67026 0.0
O1804 O 0.82279 0.11342 0.68415 0.0
O1805 O 0.81213 0.12272 0.65396 0.0
O1806 O 0.87723 0.19997 0.65256 0.0
O1807 O 0.80403 0.14436 0.62954 0.0
C1808 C 0.79234 0.16383 0.69186 0.0
C1809 C 0.82529 0.13567 0.75111 0.0
C1810 C 0.82398 0.14348 0.78454 0.0
C1811 C 0.82472 0.15363 0.76624 0.0
C1812 C 0.82507 0.11588 0.78763 0.0
C1813 C 0.82558 0.10776 0.75452 0.0
C1814 C 0.82599 0.09824 0.77269 0.0
C1815 C 0.85287 0.22575 0.68621 0.0
C1816 C 0.82269 0.14543 0.73217 0.0
C1817 C 0.93971 0.14912 0.73746 0.0
C1818 C 0.95643 0.18171 0.73551 0.0
C1819 C 0.8847 0.18366 0.6633 0.0
C1820 C 0.82155 0.17003 0.60046 0.0
C1821 C 0.83271 0.16109 0.58484 0.0
C1822 C 0.82844 0.16974 0.56691 0.0
C1823 C 0.81345 0.18784 0.56483 0.0
C1824 C 0.80529 0.18678 0.59795 0.0
C1825 C 0.80173 0.19606 0.58025 0.0
C1826 C 0.81223 0.10401 0.66699 0.0
C1827 C 0.82823 0.16259 0.61914 0.0
H1828 H 0.82387 0.17495 0.76381 0.0
H1829 H 0.82479 0.10781 0.80163 0.0
H1830 H 0.82473 0.09288 0.74327 0.0
H1831 H 0.82637 0.07675 0.77519 0.0
H1832 H 0.84446 0.1473 0.58659 0.0
H1833 H 0.80994 0.19477 0.55115 0.0
H1834 H 0.79522 0.19263 0.60955 0.0
H1835 H 0.78952 0.20936 0.57847 0.0
C1836 C 0.37991 0.88702 0.03561 0.0
C1837 C 0.35975 0.89923 0.04073 0.0
C1838 C 0.40202 0.95186 0.03257 0.0
C1839 C 0.42179 0.93993 0.026 0.0
N1840 N 0.42741 0.89475 0.01953 0.0
N1841 N 0.34814 0.94138 0.03885 0.0
C1842 C 0.40975 0.90696 0.02671 0.0
C1843 C 0.3696 0.93095 0.03727 0.0
N1844 N 0.37187 0.85717 0.04056 0.0
N1845 N 0.41489 0.98299 0.03634 0.0
H1846 H 0.32402 0.92652 0.04223 0.0
H1847 H 0.35364 0.96391 0.03494 0.0
H1848 H 0.43841 -0.0005 0.03308 0.0
H1849 H 0.40261 0.9921 0.04362 0.0
H1850 H 0.38739 0.84823 0.0393 0.0
H1851 H 0.35064 0.84191 0.04739 0.0
H1852 H 0.41846 0.87083 0.01749 0.0
H1853 H 0.4503 0.9088 0.01422 0.0
C1854 C 0.10158 0.46574 0.02598 0.0
C1855 C 0.10994 0.47031 0.04509 0.0
C1856 C 0.07345 0.49179 0.04845 0.0
C1857 C 0.06562 0.48631 0.02923 0.0
N1858 N 0.10385 0.50353 1.00539 0.0
N1859 N 0.11099 0.49801 0.07321 0.0
C1860 C 0.08692 0.48171 0.01831 0.0
C1861 C 0.09771 0.48612 0.05618 0.0
N1862 N 0.11023 0.44906 0.01465 0.0
N1863 N 0.06038 0.50571 0.05868 0.0
H1864 H 0.1307 0.49706 0.07854 0.0
H1865 H 0.10468 0.51152 0.0814 0.0
H1866 H 0.04996 0.5172 0.05205 0.0
H1867 H 0.06126 0.5071 0.07311 0.0
H1868 H 0.10554 0.4474 1.00041 0.0
H1869 H 0.1197 0.43548 0.01971 0.0
H1870 H 0.12351 0.5043 0.99866 0.0
H1871 H 0.10094 0.52308 1.00405 0.0
C1872 C 0.5131 0.63133 0.02913 0.0
C1873 C 0.54432 0.65065 0.03686 0.0
C1874 C 0.55214 0.60568 0.03907 0.0
C1875 C 0.52306 0.58647 0.02897 0.0
N1876 N 0.47116 0.57918 0.01969 0.0
N1877 N 0.5967 0.65793 0.04403 0.0
C1878 C 0.50232 0.59896 0.02512 0.0
C1879 C 0.56489 0.63838 0.03989 0.0
N1880 N 0.49378 0.64392 0.02582 0.0
N1881 N 0.56527 0.59292 0.05038 0.0
H1882 H 0.60711 0.6823 0.04465 0.0
H1883 H 0.61319 0.65001 0.04481 0.0
H1884 H 0.55191 0.57016 0.05505 0.0
H1885 H 0.58578 0.60628 0.0585 0.0
H1886 H 0.47228 0.63284 0.01837 0.0
H1887 H 0.49976 0.6665 0.02999 0.0
H1888 H 0.45413 0.58588 0.01716 0.0
H1889 H 0.46083 0.55494 0.01926 0.0
C1890 C 0.87464 0.36727 0.98358 0.0
C1891 C 0.88478 0.34655 0.97662 0.0
C1892 C 0.94026 0.3898 0.97631 0.0
C1893 C 0.93159 0.40932 0.98656 0.0
N1894 N 0.88873 0.41722 0.99786 0.0
N1895 N 0.92839 0.33665 0.97085 0.0
C1896 C 0.8982 0.398 0.98983 0.0
C1897 C 0.91796 0.35733 0.97462 0.0
N1898 N 0.84269 0.3584 0.98308 0.0
N1899 N 0.96803 0.40205 0.96637 0.0
H1900 H 0.91276 0.31248 0.96978 0.0
H1901 H 0.95274 0.34332 0.97083 0.0
H1902 H 0.98158 0.42565 0.96315 0.0
H1903 H 0.97408 0.38831 0.95814 0.0
H1904 H 0.83392 0.37342 0.98614 0.0
H1905 H 0.82485 0.33658 0.97817 0.0
H1906 H 0.86603 0.4091 1.00358 0.0
H1907 H 0.90364 0.44147 0.99872 0.0
C1908 C 0.61731 0.50618 0.97801 0.0
C1909 C 0.64414 0.53671 0.97633 0.0
C1910 C 0.61259 0.55867 0.98997 0.0
C1911 C 0.5858 0.52774 0.99255 0.0
N1912 N 0.56828 0.47232 0.99388 0.0
N1913 N 0.66972 0.59177 0.9836 0.0
C1914 C 0.58978 0.50159 0.988 0.0
C1915 C 0.64246 0.5629 0.98316 0.0
N1916 N 0.61764 0.48138 0.96959 0.0
N1917 N 0.60957 0.58424 0.99409 0.0
H1918 H 0.69172 0.59577 0.9784 0.0
H1919 H 0.67129 0.61123 0.99036 0.0
H1920 H 0.58996 0.58275 1.00118 0.0
H1921 H 0.62609 0.60697 0.99 0.0
H1922 H 0.59726 0.45921 0.96829 0.0
H1923 H 0.63745 0.48358 0.96235 0.0
H1924 H 0.57176 0.4531 0.99279 0.0
H1925 H 0.54936 0.46828 1.00221 0.0
C1926 C 0.48589 0.10715 0.97282 0.0
C1927 C 0.45358 0.10068 0.97338 0.0
C1928 C 0.43946 0.05689 0.99435 0.0
C1929 C 0.47181 0.06324 0.99392 0.0
N1930 N 0.5274 0.09983 0.98735 0.0
N1931 N 0.40169 0.07493 0.98812 0.0
C1932 C 0.49557 0.09017 0.9846 0.0
C1933 C 0.43106 0.07737 0.98532 0.0
N1934 N 0.50706 0.12891 0.96069 0.0
N1935 N 0.4164 0.03059 1.00279 0.0
H1936 H 0.39419 0.08877 0.98121 0.0
H1937 H 0.38576 0.06098 0.99837 0.0
H1938 H 0.42211 0.01585 0.00987 0.0
H1939 H 0.39179 0.02231 1.00168 0.0
H1940 H 0.52984 0.13207 0.9581 0.0
H1941 H 0.50102 0.14236 0.95221 0.0
H1942 H 0.54609 0.12072 0.98215 0.0
H1943 H 0.53508 0.0883 0.99635 0.0
C1944 C 0.63489 0.08699 0.98893 0.0
C1945 C 0.63556 0.09303 0.96966 0.0
C1946 C 0.57642 0.06793 0.97015 0.0
C1947 C 0.57671 0.06012 0.98909 0.0
N1948 N 0.60689 0.09324 0.01397 0.0
N1949 N 0.60694 0.09816 0.94337 0.0
C1950 C 0.60602 0.0771 0.99857 0.0
C1951 C 0.6062 0.08612 0.96056 0.0
N1952 N 0.66176 0.09224 0.99844 0.0
N1953 N 0.54772 0.05966 0.96192 0.0
H1954 H 0.62828 0.11333 0.9366 0.0
H1955 H 0.58673 0.09527 0.93626 0.0
H1956 H 0.52685 0.05062 0.96976 0.0
H1957 H 0.5445 0.06182 0.94783 0.0
H1958 H 0.66108 0.08811 0.01268 0.0
H1959 H 0.68343 0.09818 0.99191 0.0
H1960 H 0.62854 0.10944 0.02038 0.0
H1961 H 0.58632 0.09394 0.01783 0.0
C1962 C 0.90538 0.5374 0.98714 0.0
C1963 C 0.89984 0.53274 0.96773 0.0
C1964 C 0.93125 0.50526 0.96793 0.0
C1965 C 0.93837 0.51261 0.98709 0.0
N1966 N 0.90293 0.50478 0.01171 0.0
N1967 N 0.90237 0.50599 0.94011 0.0
C1968 C 0.91858 0.52136 0.99657 0.0
C1969 C 0.91132 0.51476 0.95817 0.0
N1970 N 0.89699 0.55587 0.99699 0.0
N1971 N 0.9401 0.48572 0.95993 0.0
H1972 H 0.88462 0.5087 0.93343 0.0
H1973 H 0.91188 0.49554 0.93164 0.0
H1974 H 0.94901 0.47444 0.96806 0.0
H1975 H 0.93606 0.47831 0.94617 0.0
H1976 H 0.90124 0.55923 0.01128 0.0
H1977 H 0.88861 0.56954 0.99074 0.0
H1978 H 0.88496 0.50744 0.01817 0.0
H1979 H 0.90357 0.48444 0.01478 0.0
C1980 C 0.43674 0.34988 0.99022 0.0
C1981 C 0.45473 0.34696 0.97561 0.0
C1982 C 0.48995 0.404 0.97526 0.0
C1983 C 0.47419 0.40654 0.99127 0.0
N1984 N 0.43682 0.38074 0.0163 0.0
N1985 N 0.50296 0.37047 0.95707 0.0
C1986 C 0.44894 0.37913 0.99951 0.0
C1987 C 0.4826 0.37381 0.96886 0.0
N1988 N 0.40739 0.32505 0.99479 0.0
N1989 N 0.51188 0.43028 0.96606 0.0
H1990 H 0.499 0.34872 0.95242 0.0
H1991 H 0.52542 0.38904 0.95338 0.0
H1992 H 0.51894 0.45301 0.97049 0.0
H1993 H 0.52128 0.42948 0.95319 0.0
H1994 H 0.39176 0.32689 1.00403 0.0
H1995 H 0.39725 0.30341 0.98795 0.0
H1996 H 0.4209 0.36097 0.02381 0.0
H1997 H 0.44468 0.4017 0.02346 0.0
C1998 C 0.08329 0.6452 0.03043 0.0
C1999 C 0.10908 0.64972 0.0422 0.0
C2000 C 0.09462 0.59476 0.03781 0.0
C2001 C 0.06766 0.58965 0.02698 0.0
N2002 N 0.04103 0.61109 0.00884 0.0
N2003 N 0.13752 0.62867 0.05905 0.0
C2004 C 0.06318 0.61518 0.02217 0.0
C2005 C 0.1142 0.62442 0.04647 0.0
N2006 N 0.07751 0.66946 0.02768 0.0
N2007 N 0.10294 0.57198 0.03856 0.0
H2008 H 0.15325 0.65034 0.06513 0.0
H2009 H 0.13986 0.61034 0.0645 0.0
H2010 H 0.09058 0.55111 0.03105 0.0
H2011 H 0.12389 0.57492 0.0448 0.0
H2012 H 0.05728 0.66719 0.02087 0.0
H2013 H 0.09196 0.69178 0.03339 0.0
H2014 H 0.03847 0.62918 1.00324 0.0
H2015 H 0.02682 0.58974 1.00208 0.0
C2016 C 0.36218 0.43838 0.03049 0.0
C2017 C 0.36314 0.46277 0.04144 0.0
C2018 C 0.42165 0.49374 0.03783 0.0
C2019 C 0.42128 0.46973 0.02645 0.0
N2020 N 0.39144 0.41587 0.01594 0.0
N2021 N 0.39188 0.51674 0.05124 0.0
C2022 C 0.39144 0.44125 0.02368 0.0
C2023 C 0.39224 0.49152 0.0435 0.0
N2024 N 0.33305 0.41268 0.0263 0.0
N2025 N 0.44976 0.51624 0.0457 0.0
H2026 H 0.37079 0.51568 0.0559 0.0
H2027 H 0.41186 0.53931 0.05126 0.0
H2028 H 0.47138 0.5166 0.0441 0.0
H2029 H 0.45102 0.5322 0.05568 0.0
H2030 H 0.32997 0.3956 0.01664 0.0
H2031 H 0.31136 0.40982 0.0313 0.0
H2032 H 0.37172 0.3932 0.01595 0.0
H2033 H 0.41187 0.41721 0.01011 0.0
C2034 C 0.52455 0.89356 0.04651 0.0
C2035 C 0.55614 0.90076 0.04194 0.0
C2036 C 0.55913 0.93848 0.01878 0.0
C2037 C 0.52958 0.93479 0.02543 0.0
N2038 N 0.48616 0.91127 0.04757 0.0
N2039 N 0.60474 0.93089 0.02452 0.0
C2040 C 0.51273 0.91285 0.03974 0.0
C2041 C 0.57371 0.92323 0.02813 0.0
N2042 N 0.50555 0.86787 0.05712 0.0
N2043 N 0.57336 0.95671 1.00362 0.0
H2044 H 0.61587 0.9198 0.03095 0.0
H2045 H 0.62019 0.94957 0.01616 0.0
H2046 H 0.56398 0.96909 0.99691 0.0
H2047 H 0.59303 0.95776 0.99688 0.0
H2048 H 0.48107 0.8594 0.05911 0.0
H2049 H 0.51337 0.85314 0.06248 0.0
H2050 H 0.47554 0.89887 0.05964 0.0
H2051 H 0.47607 0.92419 0.0428 0.0
C2052 C 0.03124 0.25008 0.361 0.0
C2053 C 0.0313 0.24188 0.37981 0.0
C2054 C 0.08999 0.26416 0.37777 0.0
C2055 C 0.0891 0.27348 0.35922 0.0
N2056 N 0.05527 0.24171 0.33495 0.0
N2057 N 0.06017 0.23324 0.40457 0.0
C2058 C 0.05894 0.25882 0.35041 0.0
C2059 C 0.06063 0.24659 0.38786 0.0
N2060 N 0.0042 0.24668 0.35257 0.0
N2061 N 0.11868 0.27035 0.38509 0.0
H2062 H 0.03905 0.21906 0.41181 0.0
H2063 H 0.08022 0.23427 0.41086 0.0
H2064 H 0.13901 0.27941 0.37684 0.0
H2065 H 0.12241 0.26619 0.39876 0.0
H2066 H 0.00429 0.25227 0.33857 0.0
H2067 H 0.98307 0.24054 0.3598 0.0
H2068 H 0.0327 0.22715 0.32891 0.0
H2069 H 0.07365 0.23735 0.33121 0.0
C2070 C 0.78373 0.829 0.36575 0.0
C2071 C 0.77512 0.79789 0.37081 0.0
C2072 C 0.71901 0.77936 0.36139 0.0
C2073 C 0.72692 0.81064 0.35722 0.0
N2074 N 0.76672 0.86547 0.35578 0.0
N2075 N 0.73677 0.74256 0.36953 0.0
C2076 C 0.75948 0.83543 0.35915 0.0
C2077 C 0.74337 0.77283 0.36747 0.0
N2078 N 0.81516 0.85245 0.36741 0.0
N2079 N 0.6875 0.75593 0.36036 0.0
H2080 H 0.7539 0.73684 0.37402 0.0
H2081 H 0.71521 0.72301 0.36542 0.0
H2082 H 0.66946 0.75915 0.35445 0.0
H2083 H 0.67885 0.7337 0.36595 0.0
H2084 H 0.82432 0.87472 0.36179 0.0
H2085 H 0.83292 0.84944 0.37385 0.0
H2086 H 0.78866 0.88544 0.35876 0.0
H2087 H 0.74987 0.87032 0.3501 0.0
C2088 C 0.20236 0.97682 0.3512 0.0
C2089 C 0.22436 0.99122 0.36618 0.0
C2090 C 0.21815 0.94011 0.37369 0.0
C2091 C 0.19404 0.92528 0.35962 0.0
N2092 N 0.15397 0.93012 0.342 0.0
N2093 N 0.26617 0.98792 0.38273 0.0
C2094 C 0.18343 0.94376 0.35035 0.0
C2095 C 0.2364 0.97328 0.37465 0.0
N2096 N 0.20414 0.99351 0.3358 0.0
N2097 N 0.22046 0.9233 0.38797 0.0
H2098 H 0.28106 0.01227 0.3822 0.0
H2099 H 0.27709 0.97565 0.3878 0.0
H2100 H 0.20133 0.90137 0.3913 0.0
H2101 H 0.23717 0.93358 0.39875 0.0
H2102 H 0.18937 0.98311 0.32421 0.0
H2103 H 0.22428 0.01549 0.3334 0.0
H2104 H 0.14477 0.94344 0.33617 0.0
H2105 H 0.13768 0.90609 0.34304 0.0
C2106 C 0.59258 0.69867 0.30303 0.0
C2107 C 0.56576 0.67643 0.31327 0.0
C2108 C 0.57607 0.71796 0.33576 0.0
C2109 C 0.60101 0.74112 0.32465 0.0
N2110 N 0.6199 0.7519 0.29282 0.0
N2111 N 0.55168 0.66427 0.34544 0.0
C2112 C 0.60586 0.73109 0.30691 0.0
C2113 C 0.56308 0.68569 0.3315 0.0
N2114 N 0.60856 0.68909 0.29159 0.0
N2115 N 0.56082 0.72607 0.34852 0.0
H2116 H 0.54681 0.64127 0.34336 0.0
H2117 H 0.55145 0.6707 0.35924 0.0
H2118 H 0.56398 0.7485 0.34895 0.0
H2119 H 0.54085 0.70929 0.35579 0.0
H2120 H 0.62982 0.70493 0.28493 0.0
H2121 H 0.60308 0.6657 0.29119 0.0
H2122 H 0.62237 0.74483 0.27954 0.0
H2123 H 0.62346 0.77458 0.29348 0.0
C2124 C 0.28954 0.83915 0.31839 0.0
C2125 C 0.31011 0.8703 0.31227 0.0
C2126 C 0.26867 0.884 0.3204 0.0
C2127 C 0.2471 0.85212 0.32516 0.0
N2128 N 0.23595 0.79863 0.32643 0.0
N2129 N 0.32017 0.92277 0.30731 0.0
C2130 C 0.25746 0.82966 0.32372 0.0
C2131 C 0.29996 0.8929 0.31336 0.0
N2132 N 0.30049 0.81827 0.31895 0.0
N2133 N 0.259 0.90568 0.32253 0.0
H2134 H 0.3438 0.93054 0.30324 0.0
H2135 H 0.31361 0.93981 0.30567 0.0
H2136 H 0.23628 0.89992 0.32735 0.0
H2137 H 0.27382 0.92971 0.32081 0.0
H2138 H 0.28882 0.79709 0.32606 0.0
H2139 H 0.32225 0.82265 0.31323 0.0
H2140 H 0.2401 0.78043 0.3229 0.0
H2141 H 0.21302 0.79085 0.33146 0.0
C2142 C 0.11519 0.4271 0.32591 0.0
C2143 C 0.10902 0.42807 0.30674 0.0
C2144 C 0.13554 0.39778 0.30034 0.0
C2145 C 0.14375 0.3984 0.31965 0.0
N2146 N 0.15819 0.43364 0.34584 0.0
N2147 N 0.12879 0.42742 0.27602 0.0
C2148 C 0.13825 0.41856 0.3313 0.0
C2149 C 0.12353 0.41713 0.29398 0.0
N2150 N 0.09969 0.43451 0.33904 0.0
N2151 N 0.14034 0.38039 0.28747 0.0
H2152 H 0.12415 0.4447 0.27115 0.0
H2153 H 0.14197 0.42207 0.26671 0.0
H2154 H 0.15752 0.37403 0.28895 0.0
H2155 H 0.12892 0.37496 0.27451 0.0
H2156 H 0.10318 0.43274 0.3532 0.0
H2157 H 0.08132 0.4392 0.33572 0.0
H2158 H 0.15584 0.45005 0.3539 0.0
H2159 H 0.1801 0.43419 0.34726 0.0
C2160 C 0.30468 0.42074 0.32229 0.0
C2161 C 0.30649 0.42635 0.30294 0.0
C2162 C 0.24746 0.39816 0.30189 0.0
C2163 C 0.24691 0.39067 0.32089 0.0
N2164 N 0.27354 0.43006 0.34345 0.0
N2165 N 0.27861 0.42852 0.27534 0.0
C2166 C 0.27492 0.41016 0.331 0.0
C2167 C 0.27746 0.41744 0.29288 0.0
N2168 N 0.33128 0.42833 0.33279 0.0
N2169 N 0.21909 0.38956 0.2934 0.0
H2170 H 0.29989 0.44543 0.26922 0.0
H2171 H 0.25855 0.42255 0.26705 0.0
H2172 H 0.19872 0.38019 0.30153 0.0
H2173 H 0.21587 0.39266 0.27945 0.0
H2174 H 0.32971 0.42545 0.34716 0.0
H2175 H 0.35378 0.43535 0.32701 0.0
H2176 H 0.29438 0.44877 0.34925 0.0
H2177 H 0.25211 0.4304 0.34526 0.0
C2178 C 0.5965 0.89052 0.30946 0.0
C2179 C 0.56365 0.86748 0.30716 0.0
C2180 C 0.5744 0.82807 0.32121 0.0
C2181 C 0.60799 0.85039 0.32195 0.0
N2182 N 0.65116 0.90187 0.31411 0.0
N2183 N 0.51973 0.81584 0.31398 0.0
C2184 C 0.61896 0.88151 0.31561 0.0
C2185 C 0.55209 0.83678 0.31416 0.0
N2186 N 0.60609 0.9213 0.30607 0.0
N2187 N 0.56414 0.79775 0.32601 0.0
H2188 H 0.50291 0.82029 0.3076 0.0
H2189 H 0.509 0.79463 0.32103 0.0
H2190 H 0.57967 0.79106 0.33158 0.0
H2191 H 0.54098 0.77901 0.32389 0.0
H2192 H 0.62894 0.93982 0.30933 0.0
H2193 H 0.59016 0.92864 0.30167 0.0
H2194 H 0.66104 0.92334 0.30733 0.0
H2195 H 0.66801 0.89595 0.31851 0.0
C2196 C 0.10142 0.68508 0.32446 0.0
C2197 C 0.11997 0.68052 0.31082 0.0
C2198 C 0.15576 0.7372 0.30872 0.0
C2199 C 0.13938 0.74186 0.32372 0.0
N2200 N 0.09863 0.71974 0.34739 0.0
N2201 N 0.16905 0.70156 0.29323 0.0
C2202 C 0.11293 0.7156 0.33214 0.0
C2203 C 0.14838 0.70638 0.3039 0.0
N2204 N 0.07216 0.66054 0.32946 0.0
N2205 N 0.17778 0.76201 0.29863 0.0
H2206 H 0.16488 0.67928 0.28959 0.0
H2207 H 0.19189 0.71952 0.28958 0.0
H2208 H 0.18421 0.78499 0.30165 0.0
H2209 H 0.18753 0.75954 0.28627 0.0
H2210 H 0.05593 0.66303 0.33783 0.0
H2211 H 0.06282 0.63798 0.32394 0.0
H2212 H 0.08189 0.70129 0.35545 0.0
H2213 H 0.10507 0.74178 0.35277 0.0
C2214 C 0.78176 0.958 0.37917 0.0
C2215 C 0.78358 0.98584 0.37239 0.0
C2216 C 0.74248 0.95474 0.34893 0.0
C2217 C 0.73743 0.92648 0.35729 0.0
N2218 N 0.74915 0.90198 0.38304 0.0
N2219 N 0.76079 0.01003 0.35327 0.0
C2220 C 0.75606 0.92833 0.37324 0.0
C2221 C 0.76257 0.98403 0.35794 0.0
N2222 N 0.8053 0.95979 0.39074 0.0
N2223 N 0.72852 0.95391 0.33229 0.0
H2224 H 0.7746 0.03176 0.35979 0.0
H2225 H 0.74336 0.00928 0.34427 0.0
H2226 H 0.71454 0.9332 0.32509 0.0
H2227 H 0.73378 0.97392 0.32474 0.0
H2228 H 0.80712 0.94027 0.39443 0.0
H2229 H 0.8249 0.98104 0.39511 0.0
H2230 H 0.75952 0.90276 0.39592 0.0
H2231 H 0.73157 0.87942 0.37911 0.0
C2232 C 0.06163 0.81707 0.39107 0.0
C2233 C 0.0321 0.79934 0.38098 0.0
C2234 C 0.06357 0.81231 0.35265 0.0
C2235 C 0.09161 0.81996 0.36265 0.0
N2236 N 0.12031 0.84557 0.39031 0.0
N2237 N 0.00657 0.77816 0.35106 0.0
C2238 C 0.09156 0.82674 0.38181 0.0
C2239 C 0.03351 0.79603 0.36147 0.0
N2240 N 0.06105 0.82548 0.40912 0.0
N2241 N 0.06614 0.82936 0.33746 0.0
H2242 H 0.98398 0.76383 0.35686 0.0
H2243 H 0.0079 0.77586 0.33672 0.0
H2244 H 0.08847 0.84864 0.33425 0.0
H2245 H 0.04601 0.82762 0.33068 0.0
H2246 H 0.08105 0.83609 0.41785 0.0
H2247 H 0.04027 0.82264 0.41545 0.0
H2248 H 0.12349 0.85218 0.40421 0.0
H2249 H 0.14123 0.85675 0.38254 0.0
C2250 C 0.17981 0.22343 0.38028 0.0
C2251 C 0.21251 0.23119 0.37942 0.0
C2252 C 0.22325 0.27151 0.35621 0.0
C2253 C 0.19076 0.26432 0.35757 0.0
N2254 N 0.13608 0.2264 0.36538 0.0
N2255 N 0.26416 0.25816 0.36445 0.0
C2256 C 0.16834 0.23808 0.36791 0.0
C2257 C 0.23392 0.2539 0.36668 0.0
N2258 N 0.15987 0.20255 0.39321 0.0
N2259 N 0.24372 0.29508 0.34475 0.0
H2260 H 0.27311 0.24654 0.37243 0.0
H2261 H 0.27999 0.27192 0.35413 0.0
H2262 H 0.23566 0.30594 0.33553 0.0
H2263 H 0.26853 0.30437 0.34454 0.0
H2264 H 0.13692 0.19881 0.39597 0.0
H2265 H 0.16712 0.19067 0.40222 0.0
H2266 H 0.11846 0.2056 0.37128 0.0
H2267 H 0.12686 0.23584 0.35586 0.0
C2268 C 0.72632 0.58129 0.72346 0.0
C2269 C 0.69712 0.56915 0.71298 0.0
C2270 C 0.72913 0.58317 0.68478 0.0
C2271 C 0.75683 0.60371 0.6948 0.0
N2272 N 0.78447 0.60499 0.7225 0.0
N2273 N 0.67201 0.56087 0.68251 0.0
C2274 C 0.75634 0.59821 0.71407 0.0
C2275 C 0.69886 0.57101 0.69329 0.0
N2276 N 0.72552 0.57635 0.74215 0.0
N2277 N 0.7321 0.56742 0.6702 0.0
H2278 H 0.64926 0.55357 0.688 0.0
H2279 H 0.67343 0.56247 0.66806 0.0
H2280 H 0.75458 0.57012 0.6671 0.0
H2281 H 0.71216 0.54886 0.66364 0.0
H2282 H 0.74546 0.5883 0.75085 0.0
H2283 H 0.70471 0.56048 0.74911 0.0
H2284 H 0.78654 0.59914 0.7361 0.0
H2285 H 0.80528 0.61291 0.71467 0.0
C2286 C 0.42709 0.14799 0.72245 0.0
C2287 C 0.44122 0.13511 0.71047 0.0
C2288 C 0.41821 0.14877 0.68441 0.0
C2289 C 0.39579 0.15062 0.69584 0.0
N2290 N 0.38905 0.16623 0.72613 0.0
N2291 N 0.44613 0.12071 0.67883 0.0
C2292 C 0.40263 0.15361 0.71521 0.0
C2293 C 0.4351 0.13421 0.6911 0.0
N2294 N 0.43917 0.15781 0.73998 0.0
N2295 N 0.43072 0.16903 0.67019 0.0
H2296 H 0.45646 0.10742 0.68302 0.0
H2297 H 0.44217 0.12079 0.66458 0.0
H2298 H 0.42425 0.18617 0.66844 0.0
H2299 H 0.4505 0.17162 0.6627 0.0
H2300 H 0.43107 0.16877 0.74909 0.0
H2301 H 0.45971 0.15805 0.74494 0.0
H2302 H 0.38803 0.16477 0.74055 0.0
H2303 H 0.38115 0.18036 0.72011 0.0
C2304 C 0.90202 0.30005 0.71471 0.0
C2305 C 0.9015 0.32345 0.70367 0.0
C2306 C 0.8669 0.28289 0.6814 0.0
C2307 C 0.86462 0.25892 0.6932 0.0
N2308 N 0.86945 0.24751 0.72544 0.0
N2309 N 0.90257 0.33552 0.67123 0.0
C2310 C 0.87941 0.26818 0.7111 0.0
C2311 C 0.88977 0.31454 0.68533 0.0
N2312 N 0.92678 0.30762 0.72679 0.0
N2313 N 0.84397 0.27662 0.66839 0.0
H2314 H 0.92229 0.35796 0.67344 0.0
H2315 H 0.89582 0.32911 0.6574 0.0
H2316 H 0.82265 0.25521 0.66811 0.0
H2317 H 0.84369 0.29438 0.66064 0.0
H2318 H 0.92924 0.29062 0.73406 0.0
H2319 H 0.9468 0.33023 0.72726 0.0
H2320 H 0.87902 0.25412 0.73881 0.0
H2321 H 0.84813 0.22601 0.72468 0.0
C2322 C 0.25889 0.02992 0.63338 0.0
C2323 C 0.23335 0.0072 0.64416 0.0
C2324 C 0.24258 0.04831 0.6665 0.0
C2325 C 0.26611 0.0719 0.65504 0.0
N2326 N 0.28435 0.08311 0.62303 0.0
N2327 N 0.22131 0.99513 0.67652 0.0
C2328 C 0.27109 0.06222 0.63719 0.0
C2329 C 0.23127 0.01635 0.66248 0.0
N2330 N 0.27498 0.02107 0.62153 0.0
N2331 N 0.22654 0.05549 0.67921 0.0
H2332 H 0.21674 0.97225 0.67431 0.0
H2333 H 0.22144 0.00164 0.69034 0.0
H2334 H 0.22831 0.07739 0.67934 0.0
H2335 H 0.2073 0.03816 0.68671 0.0
H2336 H 0.29557 0.03731 0.61448 0.0
H2337 H 0.27058 0.99802 0.62122 0.0
H2338 H 0.28681 0.0762 0.60971 0.0
H2339 H 0.28736 0.10558 0.62365 0.0
C2340 C 0.94158 0.17491 0.62963 0.0
C2341 C 0.97084 0.19462 0.63952 0.0
C2342 C 0.93885 0.18716 0.66693 0.0
C2343 C 0.91075 0.17715 0.65645 0.0
N2344 N 0.88345 0.15156 0.62826 0.0
N2345 N 0.9954 0.22335 0.66803 0.0
C2346 C 0.91159 0.16839 0.63771 0.0
C2347 C 0.96881 0.20284 0.65811 0.0
N2348 N 0.94212 0.16062 0.61344 0.0
N2349 N 0.93693 0.17153 0.68264 0.0
H2350 H 0.01802 0.23653 0.662 0.0
H2351 H 0.99364 0.22854 0.68191 0.0
H2352 H 0.91531 0.15131 0.6857 0.0
H2353 H 0.95741 0.17517 0.68994 0.0
H2354 H 0.92153 0.14421 0.60636 0.0
H2355 H 0.96312 0.1628 0.60784 0.0
H2356 H 0.88184 0.1477 0.61398 0.0
H2357 H 0.86171 0.14096 0.6353 0.0
C2358 C 0.82084 0.78212 0.64951 0.0
C2359 C 0.78875 0.77034 0.64319 0.0
C2360 C 0.77869 0.71736 0.64535 0.0
C2361 C 0.80885 0.72769 0.65451 0.0
N2362 N 0.85988 0.7721 0.66456 0.0
N2363 N 0.73455 0.72699 0.64129 0.0
C2364 C 0.83009 0.76078 0.65677 0.0
C2365 C 0.76669 0.73805 0.64382 0.0
N2366 N 0.84298 0.81323 0.64742 0.0
N2367 N 0.76371 0.69022 0.6353 0.0
H2368 H 0.72512 0.74195 0.63982 0.0
H2369 H 0.71746 0.70324 0.64263 0.0
H2370 H 0.77597 0.67942 0.63027 0.0
H2371 H 0.742 0.68277 0.62826 0.0
H2372 H 0.8676 0.82267 0.64958 0.0
H2373 H 0.83708 0.82953 0.64233 0.0
H2374 H 0.87409 0.79527 0.669 0.0
H2375 H 0.87061 0.75853 0.66661 0.0
C2376 C 0.97335 0.73859 0.65168 0.0
C2377 C 0.97197 0.76232 0.64144 0.0
C2378 C 0.91405 0.73732 0.64655 0.0
C2379 C 0.91465 0.713 0.65704 0.0
N2380 N 0.94477 0.68819 0.66667 0.0
N2381 N 0.94383 0.78975 0.63391 0.0
C2382 C 0.94448 0.71333 0.659 0.0
C2383 C 0.94328 0.76356 0.64065 0.0
N2384 N 0.00253 0.7407 0.65478 0.0
N2385 N 0.88577 0.73339 0.63965 0.0
H2386 H 0.96483 0.80915 0.6291 0.0
H2387 H 0.9243 0.79344 0.63491 0.0
H2388 H 0.86416 0.71279 0.6411 0.0
H2389 H 0.88428 0.74874 0.63031 0.0
H2390 H 0.00612 0.72649 0.66399 0.0
H2391 H 0.02395 0.75857 0.64928 0.0
H2392 H 0.96407 0.68415 0.66598 0.0
H2393 H 0.92495 0.67066 0.67344 0.0
C2394 C 0.21842 0.16543 0.64086 0.0
C2395 C 0.22888 0.19764 0.6381 0.0
C2396 C 0.28235 0.21173 0.65022 0.0
C2397 C 0.27171 0.17956 0.65387 0.0
N2398 N 0.22741 0.12663 0.65588 0.0
N2399 N 0.26776 0.25163 0.64461 0.0
C2400 C 0.23896 0.15678 0.65027 0.0
C2401 C 0.25989 0.22082 0.64423 0.0
N2402 N 0.18968 0.14294 0.63348 0.0
N2403 N 0.31414 0.23363 0.65173 0.0
H2404 H 0.25177 0.25901 0.64042 0.0
H2405 H 0.28879 0.2693 0.65075 0.0
H2406 H 0.33083 0.22842 0.65731 0.0
H2407 H 0.32399 0.25647 0.64679 0.0
H2408 H 0.18253 0.11918 0.63303 0.0
H2409 H 0.17393 0.14813 0.62641 0.0
H2410 H 0.2031 0.10959 0.65571 0.0
H2411 H 0.24201 0.11968 0.66248 0.0
C2412 C 0.81895 0.04009 0.6416 0.0
C2413 C 0.7873 0.0143 0.64342 0.0
C2414 C 0.77213 0.04621 0.66223 0.0
C2415 C 0.80414 0.07188 0.66102 0.0
N2416 N 0.85976 0.0906 0.65377 0.0
N2417 N 0.73497 0.99065 0.6576 0.0
C2418 C 0.8281 0.06803 0.65191 0.0
C2419 C 0.76426 0.01673 0.65439 0.0
N2420 N 0.84011 0.03799 0.62985 0.0
N2421 N 0.74897 0.05012 0.67052 0.0
H2422 H 0.72743 0.96903 0.65115 0.0
H2423 H 0.7188 0.98977 0.6675 0.0
H2424 H 0.75456 0.07049 0.67754 0.0
H2425 H 0.7244 0.03411 0.66967 0.0
H2426 H 0.86232 0.05709 0.62636 0.0
H2427 H 0.83439 0.0176 0.62241 0.0
H2428 H 0.87873 0.08817 0.64877 0.0
H2429 H 0.86723 0.11059 0.66198 0.0
C2430 C 0.4287 0.31378 0.69197 0.0
C2431 C 0.44868 0.31494 0.70695 0.0
C2432 C 0.42779 0.25833 0.70369 0.0
C2433 C 0.40622 0.25668 0.68964 0.0
N2434 N 0.39341 0.28369 0.6664 0.0
N2435 N 0.46564 0.28819 0.72825 0.0
C2436 C 0.40866 0.28469 0.68263 0.0
C2437 C 0.4477 0.28714 0.71318 0.0
N2438 N 0.42809 0.34036 0.68716 0.0
N2439 N 0.43146 0.23292 0.70659 0.0
H2440 H 0.48226 0.30902 0.73484 0.0
H2441 H 0.46265 0.26825 0.73501 0.0
H2442 H 0.41984 0.21299 0.69822 0.0
H2443 H 0.44859 0.2328 0.71545 0.0
H2444 H 0.41193 0.34077 0.67766 0.0
H2445 H 0.44222 0.36194 0.69379 0.0
H2446 H 0.3957 0.30334 0.65964 0.0
H2447 H 0.38151 0.26335 0.65844 0.0
C2448 C 0.71855 0.16787 0.70602 0.0
C2449 C 0.69665 0.13604 0.71037 0.0
C2450 C 0.73576 0.12141 0.70015 0.0
C2451 C 0.75726 0.15275 0.69449 0.0
N2452 N 0.76666 0.20508 0.68979 0.0
N2453 N 0.68077 0.08161 0.70625 0.0
C2454 C 0.74759 0.17562 0.69652 0.0
C2455 C 0.70403 0.11255 0.70554 0.0
N2456 N 0.71282 0.19098 0.71209 0.0
N2457 N 0.74629 0.10057 0.70207 0.0
H2458 H 0.65707 0.07429 0.71004 0.0
H2459 H 0.68431 0.06367 0.70124 0.0
H2460 H 0.7692 0.10588 0.69824 0.0
H2461 H 0.73297 0.07893 0.70859 0.0
H2462 H 0.72961 0.21481 0.71125 0.0
H2463 H 0.69225 0.18648 0.71939 0.0
H2464 H 0.7595 0.22182 0.68881 0.0
H2465 H 0.78859 0.21167 0.6836 0.0
C2466 C 0.89572 0.58124 0.69892 0.0
C2467 C 0.87412 0.5575 0.71099 0.0
C2468 C 0.83048 0.56669 0.70131 0.0
C2469 C 0.85291 0.59189 0.69025 0.0
N2470 N 0.90116 0.61277 0.67222 0.0
N2471 N 0.82026 0.52379 0.72211 0.0
C2472 C 0.88395 0.59624 0.68722 0.0
C2473 C 0.84113 0.54895 0.71167 0.0
N2474 N 0.92767 0.59009 0.69899 0.0
N2475 N 0.79908 0.55959 0.70153 0.0
H2476 H 0.82749 0.51053 0.7299 0.0
H2477 H 0.79561 0.51514 0.72283 0.0
H2478 H 0.79031 0.57014 0.69256 0.0
H2479 H 0.78153 0.54333 0.71026 0.0
H2480 H 0.94505 0.60976 0.692 0.0
H2481 H 0.93723 0.57925 0.70719 0.0
H2482 H 0.92258 0.61409 0.66807 0.0
H2483 H 0.89202 0.62231 0.66279 0.0
C2484 C 0.50109 0.97588 0.16658 0.0
C2485 C 0.47109 0.94779 0.16893 0.0
C2486 C 0.45549 0.95286 0.1371 0.0
C2487 C 0.48603 0.98025 0.1346 0.0
N2488 N 0.54115 0.01115 0.14483 0.0
N2489 N 0.42417 0.90488 0.15449 0.0
C2490 C 0.50993 0.98939 0.14865 0.0
C2491 C 0.44975 0.93473 0.15351 0.0
N2492 N 0.52023 0.99109 0.18157 0.0
N2493 N 0.4313 0.94504 0.12446 0.0
H2494 H 0.41976 0.89078 0.16614 0.0
H2495 H 0.40946 0.89309 0.14314 0.0
H2496 H 0.43414 0.9578 0.11242 0.0
H2497 H 0.40764 0.92736 0.12669 0.0
H2498 H 0.54065 0.01328 0.18071 0.0
H2499 H 0.51414 0.98328 0.19516 0.0
H2500 H 0.56009 0.01669 0.15405 0.0
H2501 H 0.54842 0.02102 0.1317 0.0
C2502 C 0.04532 0.50421 0.15777 0.0
C2503 C 0.03284 0.51831 0.16992 0.0
C2504 C 0.99866 0.51874 0.14468 0.0
C2505 C 0.00682 0.49982 0.13378 0.0
N2506 N 0.03614 0.4721 0.13029 0.0
N2507 N 0.99297 0.53375 0.17572 0.0
C2508 C 0.02989 0.49205 0.14033 0.0
C2509 C 0.00845 0.52447 0.16355 0.0
N2510 N 0.07233 0.50317 0.16266 0.0
N2511 N 0.9814 0.5311 0.13697 0.0
H2512 H 0.99769 0.53626 0.18994 0.0
H2513 H 0.97299 0.53564 0.17202 0.0
H2514 H 0.97404 0.52736 0.12309 0.0
H2515 H 0.97743 0.54759 0.14377 0.0
H2516 H 0.08416 0.49574 0.15366 0.0
H2517 H 0.08476 0.51261 0.17508 0.0
H2518 H 0.04976 0.46262 0.13541 0.0
H2519 H 0.02591 0.46336 0.11727 0.0
C2520 C 0.48009 0.487 0.16627 0.0
C2521 C 0.48173 0.51638 0.16911 0.0
C2522 C 0.50063 0.5314 0.13727 0.0
C2523 C 0.49711 0.50128 0.13419 0.0
N2524 N 0.47272 0.4473 0.14379 0.0
N2525 N 0.48359 0.56196 0.15543 0.0
C2526 C 0.4831 0.478 0.14804 0.0
C2527 C 0.48869 0.5371 0.15396 0.0
N2528 N 0.47804 0.4686 0.18095 0.0
N2529 N 0.51698 0.55516 0.12495 0.0
H2530 H 0.4739 0.56621 0.16729 0.0
H2531 H 0.48569 0.5762 0.14423 0.0
H2532 H 0.52731 0.55258 0.11287 0.0
H2533 H 0.5229 0.57828 0.12764 0.0
H2534 H 0.47974 0.4484 0.17947 0.0
H2535 H 0.47837 0.47516 0.19475 0.0
H2536 H 0.45981 0.42908 0.15307 0.0
H2537 H 0.47391 0.43987 0.13038 0.0
C2538 C 0.99088 0.51149 0.85107 0.0
C2539 C 0.96548 0.48021 0.84821 0.0
C2540 C 0.97113 0.46755 0.88028 0.0
C2541 C 0.99488 0.49944 0.88337 0.0
N2542 N 0.01809 0.55329 0.87349 0.0
N2543 N 0.92506 0.43149 0.86169 0.0
C2544 C 1.00155 0.52195 0.86935 0.0
C2545 C 0.95346 0.45916 0.86336 0.0
N2546 N 0.00641 0.53064 0.83642 0.0
N2547 N 0.96663 0.445 0.89283 0.0
H2548 H 0.911 0.4251 0.84963 0.0
H2549 H 0.91394 0.41663 0.87287 0.0
H2550 H 0.97992 0.44982 0.90509 0.0
H2551 H 0.95174 0.42109 0.8902 0.0
H2552 H 0.02694 0.55264 0.83807 0.0
H2553 H 1.00129 0.52334 0.82261 0.0
H2554 H 0.02133 0.57044 0.86391 0.0
H2555 H 0.02527 0.56176 0.887 0.0
C2556 C 0.48683 0.47256 0.85276 0.0
C2557 C 0.51806 0.47887 0.84763 0.0
C2558 C 0.53883 0.50373 0.87809 0.0
C2559 C 0.507 0.49494 0.88356 0.0
N2560 N 0.44997 0.46267 0.87798 0.0
N2561 N 0.57234 0.49398 0.85711 0.0
C2562 C 0.48077 0.47656 0.87149 0.0
C2563 C 0.54372 0.49255 0.86081 0.0
N2564 N 0.46331 0.46453 0.83961 0.0
N2565 N 0.56442 0.52363 0.88899 0.0
H2566 H 0.57647 0.48517 0.84489 0.0
H2567 H 0.59079 0.50106 0.86689 0.0
H2568 H 0.56178 0.5321 0.90176 0.0
H2569 H 0.58825 0.53357 0.88471 0.0
H2570 H 0.44109 0.46253 0.84251 0.0
H2571 H 0.46716 0.46341 0.82546 0.0
H2572 H 0.43013 0.44659 0.87017 0.0
H2573 H 0.44469 0.46459 0.8918 0.0
C2574 C 0.49133 0.01198 0.85056 0.0
C2575 C 0.51958 0.04139 0.84775 0.0
C2576 C 0.5374 0.03915 0.87953 0.0
C2577 C 0.50756 0.01124 0.88274 0.0
N2578 N 0.45269 0.97689 0.8728 0.0
N2579 N 0.56648 0.08618 0.86096 0.0
C2580 C 0.48345 -0.00044 0.86871 0.0
C2581 C 0.54179 0.05599 0.86266 0.0
N2582 N 0.47269 0.99501 0.83578 0.0
N2583 N 0.56199 0.04892 0.89213 0.0
H2584 H 0.57011 0.09937 0.84899 0.0
H2585 H 0.58148 0.09905 0.87199 0.0
H2586 H 0.5599 0.03715 0.9045 0.0
H2587 H 0.58525 0.06717 0.88959 0.0
H2588 H 0.45359 0.97209 0.83699 0.0
H2589 H 0.47845 0.00233 0.82206 0.0
H2590 H 0.43357 0.96959 0.86346 0.0
H2591 H 0.44566 0.968 0.88616 0.0
C2592 C 0.14835 0.26893 0.48647 0.0
C2593 C 0.13767 0.28186 0.50055 0.0
C2594 C 0.13961 0.32033 0.47838 0.0
C2595 C 0.15523 0.31091 0.46539 0.0
N2596 N 0.17828 0.27846 0.45789 0.0
N2597 N 0.13052 0.32486 0.51084 0.0
C2598 C 0.16051 0.28565 0.46957 0.0
C2599 C 0.13516 0.30887 0.49675 0.0
N2600 N 0.14607 0.24038 0.48896 0.0
N2601 N 0.12909 0.34036 0.47315 0.0
H2602 H 0.12936 0.31867 0.52475 0.0
H2603 H 0.13155 0.34633 0.50892 0.0
H2604 H 0.13157 0.3488 0.45963 0.0
H2605 H 0.11499 0.34579 0.48165 0.0
H2606 H 0.15075 0.22858 0.47849 0.0
H2607 H 0.13652 0.22707 0.50091 0.0
H2608 H 0.18602 0.26273 0.46131 0.0
H2609 H 0.18734 0.28993 0.44534 0.0
C2610 C 0.6796 0.81806 0.4977 0.0
C2611 C 0.70317 0.84939 0.50254 0.0
C2612 C 0.69756 0.86717 0.4718 0.0
C2613 C 0.67503 0.8357 0.46674 0.0
N2614 N 0.65337 0.78061 0.47266 0.0
N2615 N 0.74209 0.90118 0.49196 0.0
C2616 C 0.66912 0.81092 0.47896 0.0
C2617 C 0.7147 0.87309 0.4888 0.0
N2618 N 0.66533 0.7956 0.51102 0.0
N2619 N 0.70125 0.89161 0.4611 0.0
H2620 H 0.75584 0.90588 0.50406 0.0
H2621 H 0.75295 0.91828 0.48178 0.0
H2622 H 0.68853 0.88868 0.4488 0.0
H2623 H 0.71481 0.91497 0.46535 0.0
H2624 H 0.64598 0.77327 0.50821 0.0
H2625 H 0.67031 0.80003 0.52514 0.0
H2626 H 0.65103 0.76189 0.48057 0.0
H2627 H 0.64582 0.77481 0.45888 0.0
C2628 C 0.15024 0.86572 0.48705 0.0
C2629 C 0.14174 0.8442 0.50191 0.0
C2630 C 0.1446 0.80667 0.48066 0.0
C2631 C 0.15969 0.83058 0.4672 0.0
N2632 N 0.18079 0.885 0.45882 0.0
N2633 N 0.13552 0.79524 0.51335 0.0
C2634 C 0.16327 0.86066 0.47059 0.0
C2635 C 0.13978 0.81473 0.49884 0.0
N2636 N 0.14567 0.89091 0.48863 0.0
N2637 N 0.13468 0.7762 0.47605 0.0
H2638 H 0.1335 0.80066 0.52708 0.0
H2639 H 0.13725 0.77505 0.51195 0.0
H2640 H 0.13713 0.76941 0.46269 0.0
H2641 H 0.12098 0.75748 0.48487 0.0
H2642 H 0.14886 0.90583 0.47761 0.0
H2643 H 0.13537 0.8948 0.50033 0.0
H2644 H 0.18682 0.90806 0.46179 0.0
H2645 H 0.192 0.88291 0.44699 0.0
C2646 C 0.66311 0.81008 0.18402 0.0
C2647 C 0.63329 0.80846 0.18002 0.0
C2648 C 0.63428 0.83069 0.21073 0.0
C2649 C 0.66325 0.83072 0.21499 0.0
N2650 N 0.70007 0.81238 0.20779 0.0
N2651 N 0.58687 0.81041 0.19094 0.0
C2652 C 0.6759 0.81768 0.20229 0.0
C2653 C 0.61769 0.81661 0.19384 0.0
N2654 N 0.68027 0.80627 0.17017 0.0
N2655 N 0.62342 0.84535 0.22235 0.0
H2656 H 0.57395 0.79985 0.1788 0.0
H2657 H 0.57311 0.81301 0.20119 0.0
H2658 H 0.63473 0.85575 0.23489 0.0
H2659 H 0.60457 0.84922 0.21893 0.0
H2660 H 0.7037 0.81058 0.172 0.0
H2661 H 0.67253 0.80186 0.15638 0.0
H2662 H 0.70814 0.80014 0.19969 0.0
H2663 H 0.70969 0.81735 0.22121 0.0
C2664 C 0.22366 0.83685 0.1932 0.0
C2665 C 0.19829 0.81003 0.18431 0.0
C2666 C 0.16425 0.80184 0.21135 0.0
C2667 C 0.18606 0.83292 0.21736 0.0
N2668 N 0.2385 0.87941 0.21508 0.0
N2669 N 0.15898 0.75774 0.19362 0.0
C2670 C 0.21651 0.85021 0.2087 0.0
C2671 C 0.17246 0.7894 0.19587 0.0
N2672 N 0.25482 0.84604 0.18904 0.0
N2673 N 0.13531 0.78451 0.21993 0.0
H2674 H 0.16826 0.74823 0.18415 0.0
H2675 H 0.14193 0.74148 0.20265 0.0
H2676 H 0.12863 0.79253 0.23158 0.0
H2677 H 0.11728 0.76304 0.21468 0.0
H2678 H 0.27445 0.86387 0.19617 0.0
H2679 H 0.26057 0.83243 0.18045 0.0
H2680 H 0.25956 0.89421 0.20794 0.0
H2681 H 0.23483 0.88936 0.22697 0.0
C2682 C 0.1624 0.34669 0.18365 0.0
C2683 C 0.19111 0.37565 0.18053 0.0
C2684 C 0.21102 0.3721 0.21142 0.0
C2685 C 0.18122 0.34438 0.21492 0.0
N2686 N 0.12554 0.31083 0.20639 0.0
N2687 N 0.2396 0.41945 0.19311 0.0
C2688 C 0.15593 0.33354 0.20167 0.0
C2689 C 0.21453 0.38947 0.19494 0.0
N2690 N 0.14207 0.33073 0.16921 0.0
N2691 N 0.23639 0.38116 0.22338 0.0
H2692 H 0.24261 0.43307 0.18142 0.0
H2693 H 0.25562 0.43181 0.20387 0.0
H2694 H 0.23484 0.36919 0.2356 0.0
H2695 H 0.25964 0.3991 0.22048 0.0
H2696 H 0.12249 0.3081 0.17048 0.0
H2697 H 0.14664 0.33853 0.15553 0.0
H2698 H 0.10555 0.30417 0.19783 0.0
H2699 H 0.11981 0.30113 0.21964 0.0
C2700 C 0.81662 0.60984 0.82051 0.0
C2701 C 0.80613 0.62296 0.83458 0.0
C2702 C 0.81165 0.66353 0.81273 0.0
C2703 C 0.82705 0.6536 0.79983 0.0
N2704 N 0.84782 0.61915 0.79247 0.0
N2705 N 0.79954 0.66619 0.84497 0.0
C2706 C 0.83036 0.62709 0.80393 0.0
C2707 C 0.80506 0.65079 0.83091 0.0
N2708 N 0.81268 0.58056 0.82275 0.0
N2709 N 0.80279 0.68483 0.80751 0.0
H2710 H 0.79617 0.65869 0.85871 0.0
H2711 H 0.80171 0.6882 0.84337 0.0
H2712 H 0.80659 0.69413 0.79416 0.0
H2713 H 0.7887 0.69061 0.81576 0.0
H2714 H 0.81696 0.56854 0.81223 0.0
H2715 H 0.80211 0.56698 0.83449 0.0
H2716 H 0.85402 0.60226 0.79584 0.0
H2717 H 0.85848 0.63121 0.78031 0.0
C2718 C 0.37672 0.1726 0.82114 0.0
C2719 C 0.36629 0.1865 0.83477 0.0
C2720 C 0.33004 0.18932 0.81194 0.0
C2721 C 0.33622 0.17074 0.79943 0.0
N2722 N 0.36279 0.14101 0.79307 0.0
N2723 N 0.32665 0.20053 0.84411 0.0
C2724 C 0.35895 0.16138 0.80423 0.0
C2725 C 0.34118 0.19281 0.83044 0.0
N2726 N 0.40408 0.17108 0.82402 0.0
N2727 N 0.31394 0.20412 0.80607 0.0
H2728 H 0.33228 0.20109 0.85815 0.0
H2729 H 0.3064 0.20269 0.84169 0.0
H2730 H 0.30631 0.20299 0.79235 0.0
H2731 H 0.31147 0.22024 0.8143 0.0
H2732 H 0.4143 0.16376 0.81384 0.0
H2733 H 0.41837 0.18008 0.8359 0.0
H2734 H 0.37654 0.13091 0.79691 0.0
H2735 H 0.35011 0.13217 0.78065 0.0
C2736 C 0.79074 0.17557 0.82147 0.0
C2737 C 0.81502 0.18469 0.83531 0.0
C2738 C 0.84833 0.17546 0.81333 0.0
C2739 C 0.82198 0.16127 0.80078 0.0
N2740 N 0.76667 0.14532 0.79341 0.0
N2741 N 0.86531 0.18903 0.84529 0.0
C2742 C 0.79283 0.16092 0.80487 0.0
C2743 C 0.84357 0.18379 0.83144 0.0
N2744 N 0.766 0.18142 0.82406 0.0
N2745 N 0.87803 0.18123 0.80785 0.0
H2746 H 0.86237 0.19412 0.85895 0.0
H2747 H 0.88474 0.18536 0.84363 0.0
H2748 H 0.88234 0.17573 0.79456 0.0
H2749 H 0.89884 0.19431 0.81577 0.0
H2750 H 0.7493 0.17812 0.81374 0.0
H2751 H 0.76396 0.19241 0.83597 0.0
H2752 H 0.74379 0.14122 0.79678 0.0
H2753 H 0.76716 0.13437 0.7811 0.0
C2754 C 0.33485 0.16309 0.51838 0.0
C2755 C 0.3014 0.14339 0.51496 0.0
C2756 C 0.28962 0.15025 0.54722 0.0
C2757 C 0.32308 0.17039 0.55053 0.0
N2758 N 0.37781 0.18944 0.54115 0.0
N2759 N 0.24757 0.11248 0.52668 0.0
C2760 C 0.34578 0.1746 0.53667 0.0
C2761 C 0.27899 0.13498 0.52964 0.0
N2762 N 0.35602 0.17188 0.50397 0.0
N2763 N 0.26796 0.14709 0.56051 0.0
H2764 H 0.239 0.10141 0.51385 0.0
H2765 H 0.23058 0.10293 0.5372 0.0
H2766 H 0.27485 0.15726 0.57367 0.0
H2767 H 0.2432 0.13587 0.55824 0.0
H2768 H 0.38013 0.18925 0.50505 0.0
H2769 H 0.34905 0.16306 0.49051 0.0
H2770 H 0.39549 0.19087 0.53222 0.0
H2771 H 0.38638 0.19784 0.5545 0.0
C2772 C 0.87606 0.15771 0.52827 0.0
C2773 C 0.85131 0.14289 0.51463 0.0
C2774 C 0.81172 0.13845 0.53751 0.0
C2775 C 0.83684 0.15797 0.54995 0.0
N2776 N 0.89384 0.18948 0.55632 0.0
N2777 N 0.79639 0.12598 0.50538 0.0
C2778 C 0.86936 0.16845 0.54517 0.0
C2779 C 0.81929 0.13501 0.51901 0.0
N2780 N 0.90558 0.16063 0.52538 0.0
N2781 N 0.78054 0.12285 0.54342 0.0
H2782 H 0.80126 0.12529 0.49135 0.0
H2783 H 0.7735 0.12273 0.50777 0.0
H2784 H 0.77415 0.12413 0.55709 0.0
H2785 H 0.76167 0.10605 0.53531 0.0
H2786 H 0.92351 0.16864 0.53555 0.0
H2787 H 0.91102 0.1521 0.51349 0.0
H2788 H 0.91796 0.20045 0.55248 0.0
H2789 H 0.8899 0.19788 0.56876 0.0
C2790 C 0.8229 0.68395 0.51785 0.0
C2791 C 0.85075 0.71337 0.51433 0.0
C2792 C 0.87182 0.7125 0.54538 0.0
C2793 C 0.84306 0.6839 0.54915 0.0
N2794 N 0.78789 0.6474 0.54099 0.0
N2795 N 0.89835 0.75899 0.52614 0.0
C2796 C 0.81748 0.67138 0.53603 0.0
C2797 C 0.87418 0.72874 0.52857 0.0
N2798 N 0.80255 0.66697 0.50363 0.0
N2799 N 0.89744 0.72336 0.55733 0.0
H2800 H 0.90062 0.77159 0.51408 0.0
H2801 H 0.9143 0.77249 0.53668 0.0
H2802 H 0.89663 0.71231 0.5698 0.0
H2803 H 0.9202 0.74204 0.55428 0.0
H2804 H 0.7839 0.6439 0.50512 0.0
H2805 H 0.80614 0.6746 0.48992 0.0
H2806 H 0.76753 0.63919 0.53254 0.0
H2807 H 0.78301 0.638 0.55434 0.0
loop_
_geom_bond_atom_site_label_1
_geom_bond_atom_site_label_2
_geom_bond_distance
_geom_bond_site_symmetry_2
_ccdc_geom_bond_type
C0 C1 1.391 . S
C0 C4 1.391 . S
C0 H42 0.948 . S
C1 C0 1.391 . S
C1 C2 1.391 . S
C2 C1 1.391 . S
C2 H58 0.947 . S
C2 C59 1.392 . S
C3 C4 1.391 . S
C3 C7 1.397 . S
C3 C59 1.419 . S
C4 C0 1.391 . S
C4 C3 1.391 . S
C4 C5 1.399 . S
C5 C4 1.399 . S
C5 C8 1.396 . S
C5 C17 1.453 . S
C5 C18 1.684 . S
H6 C30 0.948 . S
C7 C3 1.397 . S
C7 C8 1.394 . S
C7 C26 1.723 . S
C8 C5 1.396 . S
C8 C7 1.394 . S
C8 C38 1.723 . S
H9 C32 0.947 . S
H10 C33 0.948 . S
H11 C39 0.982 . S
H12 C40 0.979 . S
H13 C40 0.980 . S
H14 C40 0.983 . S
H15 C39 0.979 . S
H16 C39 0.977 . S
C17 C5 1.453 . S
C17 H46 0.982 . S
C17 H47 0.979 . S
C17 H48 0.977 . S
C18 C5 1.684 . S
C18 H43 0.979 . S
C18 H44 0.980 . S
C18 H45 0.983 . S
C19 C20 1.391 . S
C19 C24 1.391 . S
C19 H49 0.948 . S
C20 C19 1.391 . S
C20 C21 1.391 . S
C21 C20 1.391 . S
C21 C22 1.392 . S
C21 H50 0.947 . S
C22 C21 1.392 . S
C22 C23 1.419 . S
C22 H51 0.948 . S
C23 C22 1.419 . S
C23 C24 1.391 . S
C23 C27 1.397 . S
C24 C19 1.391 . S
C24 C23 1.391 . S
C24 C25 1.399 . S
C25 C24 1.399 . S
C25 C26 1.396 . S
C25 C28 1.453 . S
C25 C29 1.684 . S
C26 C7 1.723 . S
C26 C25 1.396 . S
C26 C27 1.394 . S
C27 C23 1.397 . S
C27 C26 1.394 . S
C27 C37 1.723 . S
C28 C25 1.453 . S
C28 H52 0.982 . S
C28 H53 0.979 . S
C28 H54 0.977 . S
C29 C25 1.684 . S
C29 H55 0.979 . S
C29 H56 0.980 . S
C29 H57 0.983 . S
C30 H6 0.948 . S
C30 C31 1.391 . S
C30 C35 1.391 . S
C31 C30 1.391 . S
C31 C32 1.391 . S
C32 H9 0.947 . S
C32 C31 1.391 . S
C32 C33 1.392 . S
C33 H10 0.948 . S
C33 C32 1.392 . S
C33 C34 1.419 . S
C34 C33 1.419 . S
C34 C35 1.391 . S
C34 C38 1.397 . S
C35 C30 1.391 . S
C35 C34 1.391 . S
C35 C36 1.399 . S
C36 C35 1.399 . S
C36 C37 1.396 . S
C36 C39 1.453 . S
C36 C40 1.684 . S
C37 C27 1.723 . S
C37 C36 1.396 . S
C37 C38 1.394 . S
C38 C8 1.723 . S
C38 C34 1.397 . S
C38 C37 1.394 . S
C39 H11 0.982 . S
C39 H15 0.979 . S
C39 H16 0.977 . S
C39 C36 1.453 . S
C40 H12 0.979 . S
C40 H13 0.980 . S
C40 H14 0.983 . S
C40 C36 1.684 . S
H41 C59 0.948 . S
H42 C0 0.948 . S
H43 C18 0.979 . S
H44 C18 0.980 . S
H45 C18 0.983 . S
H46 C17 0.982 . S
H47 C17 0.979 . S
H48 C17 0.977 . S
H49 C19 0.948 . S
H50 C21 0.947 . S
H51 C22 0.948 . S
H52 C28 0.982 . S
H53 C28 0.979 . S
H54 C28 0.977 . S
H55 C29 0.979 . S
H56 C29 0.980 . S
H57 C29 0.983 . S
H58 C2 0.947 . S
C59 C2 1.392 . S
C59 C3 1.419 . S
C59 H41 0.948 . S
C60 C61 1.391 . S
C60 C64 1.391 . S
C60 H102 0.948 . S
C61 C60 1.391 . S
C61 C62 1.391 . S
C62 C61 1.391 . S
C62 H118 0.947 1_655 S
C62 C119 1.392 . S
C63 C64 1.391 . S
C63 C67 1.397 . S
C63 C119 1.419 . S
C64 C60 1.391 . S
C64 C63 1.391 . S
C64 C65 1.399 . S
C65 C64 1.399 . S
C65 C68 1.396 . S
C65 C77 1.453 . S
C65 C78 1.684 . S
H66 C90 0.948 . S
C67 C63 1.397 . S
C67 C68 1.394 . S
C67 C86 1.723 . S
C68 C65 1.396 . S
C68 C67 1.394 . S
C68 C98 1.723 . S
H69 C92 0.947 . S
H70 C93 0.948 . S
H71 C99 0.982 . S
H72 C100 0.979 . S
H73 C100 0.980 . S
H74 C100 0.983 . S
H75 C99 0.979 . S
H76 C99 0.977 . S
C77 C65 1.453 . S
C77 H106 0.982 . S
C77 H107 0.979 . S
C77 H108 0.977 . S
C78 C65 1.684 . S
C78 H103 0.979 . S
C78 H104 0.980 . S
C78 H105 0.983 . S
C79 C80 1.391 . S
C79 C84 1.391 . S
C79 H109 0.948 . S
C80 C79 1.391 . S
C80 C81 1.391 . S
C81 C80 1.391 . S
C81 C82 1.392 . S
C81 H110 0.947 . S
C82 C81 1.392 . S
C82 C83 1.419 . S
C82 H111 0.948 . S
C83 C82 1.419 . S
C83 C84 1.391 . S
C83 C87 1.397 . S
C84 C79 1.391 . S
C84 C83 1.391 . S
C84 C85 1.399 . S
C85 C84 1.399 . S
C85 C86 1.396 . S
C85 C88 1.453 . S
C85 C89 1.684 . S
C86 C67 1.723 . S
C86 C85 1.396 . S
C86 C87 1.394 . S
C87 C83 1.397 . S
C87 C86 1.394 . S
C87 C97 1.723 . S
C88 C85 1.453 . S
C88 H112 0.982 . S
C88 H113 0.979 . S
C88 H114 0.977 . S
C89 C85 1.684 . S
C89 H115 0.979 . S
C89 H116 0.980 . S
C89 H117 0.983 . S
C90 H66 0.948 . S
C90 C91 1.391 . S
C90 C95 1.391 . S
C91 C90 1.391 . S
C91 C92 1.391 . S
C92 H69 0.947 . S
C92 C91 1.391 . S
C92 C93 1.392 . S
C93 H70 0.948 . S
C93 C92 1.392 . S
C93 C94 1.419 . S
C94 C93 1.419 . S
C94 C95 1.391 . S
C94 C98 1.397 . S
C95 C90 1.391 . S
C95 C94 1.391 . S
C95 C96 1.399 . S
C96 C95 1.399 . S
C96 C97 1.396 . S
C96 C99 1.453 . S
C96 C100 1.684 . S
C97 C87 1.723 . S
C97 C96 1.396 . S
C97 C98 1.394 . S
C98 C68 1.723 . S
C98 C94 1.397 . S
C98 C97 1.394 . S
C99 H71 0.982 . S
C99 H75 0.979 . S
C99 H76 0.977 . S
C99 C96 1.453 . S
C100 H72 0.979 . S
C100 H73 0.980 . S
C100 H74 0.983 . S
C100 C96 1.684 . S
H101 C119 0.948 . S
H102 C60 0.948 . S
H103 C78 0.979 . S
H104 C78 0.980 . S
H105 C78 0.983 . S
H106 C77 0.982 . S
H107 C77 0.979 . S
H108 C77 0.977 . S
H109 C79 0.948 . S
H110 C81 0.947 . S
H111 C82 0.948 . S
H112 C88 0.982 . S
H113 C88 0.979 . S
H114 C88 0.977 . S
H115 C89 0.979 . S
H116 C89 0.980 . S
H117 C89 0.983 . S
H118 C62 0.947 1_455 S
C119 C62 1.392 . S
C119 C63 1.419 . S
C119 H101 0.948 . S
C120 C121 1.417 . S
C120 C124 1.391 . S
C120 H162 0.948 . S
C121 C120 1.417 . S
C121 C122 1.389 . S
C122 C121 1.389 . S
C122 H178 0.947 1_655 S
C122 C179 1.392 . S
C123 C124 1.391 . S
C123 C127 1.397 . S
C123 C179 1.419 . S
C124 C120 1.391 . S
C124 C123 1.391 . S
C124 C125 1.399 . S
C125 C124 1.399 . S
C125 C128 1.396 . S
C125 C137 1.453 . S
C125 C138 1.684 . S
H126 C150 0.948 . S
C127 C123 1.397 . S
C127 C128 1.394 . S
C127 C146 1.723 . S
C128 C125 1.396 . S
C128 C127 1.394 . S
C128 C158 1.723 . S
H129 C152 0.947 . S
H130 C153 0.948 . S
H131 C159 0.982 . S
H132 C160 0.979 . S
H133 C160 0.980 . S
H134 C160 0.983 . S
H135 C159 0.979 . S
H136 C159 0.977 . S
C137 C125 1.453 . S
C137 H166 0.982 . S
C137 H167 0.979 . S
C137 H168 0.977 . S
C138 C125 1.684 . S
C138 H163 0.979 . S
C138 H164 0.980 . S
C138 H165 0.983 . S
C139 C140 1.391 . S
C139 C144 1.391 . S
C139 H169 0.948 . S
C140 C139 1.391 . S
C140 C141 1.391 . S
C141 C140 1.391 . S
C141 C142 1.392 . S
C141 H170 0.947 . S
C142 C141 1.392 . S
C142 C143 1.419 . S
C142 H171 0.948 . S
C143 C142 1.419 . S
C143 C144 1.391 . S
C143 C147 1.397 . S
C144 C139 1.391 . S
C144 C143 1.391 . S
C144 C145 1.399 . S
C145 C144 1.399 . S
C145 C146 1.396 . S
C145 C148 1.453 . S
C145 C149 1.684 . S
C146 C127 1.723 . S
C146 C145 1.396 . S
C146 C147 1.394 . S
C147 C143 1.397 . S
C147 C146 1.394 . S
C147 C157 1.723 . S
C148 C145 1.453 . S
C148 H172 0.982 . S
C148 H173 0.979 . S
C148 H174 0.977 . S
C149 C145 1.684 . S
C149 H175 0.979 . S
C149 H176 0.980 . S
C149 H177 0.983 . S
C150 H126 0.948 . S
C150 C151 1.391 . S
C150 C155 1.391 . S
C151 C150 1.391 . S
C151 C152 1.391 . S
C152 H129 0.947 . S
C152 C151 1.391 . S
C152 C153 1.392 . S
C153 H130 0.948 . S
C153 C152 1.392 . S
C153 C154 1.419 . S
C154 C153 1.419 . S
C154 C155 1.391 . S
C154 C158 1.397 . S
C155 C150 1.391 . S
C155 C154 1.391 . S
C155 C156 1.399 . S
C156 C155 1.399 . S
C156 C157 1.396 . S
C156 C159 1.453 . S
C156 C160 1.684 . S
C157 C147 1.723 . S
C157 C156 1.396 . S
C157 C158 1.394 . S
C158 C128 1.723 . S
C158 C154 1.397 . S
C158 C157 1.394 . S
C159 H131 0.982 . S
C159 H135 0.979 . S
C159 H136 0.977 . S
C159 C156 1.453 . S
C160 H132 0.979 . S
C160 H133 0.980 . S
C160 H134 0.983 . S
C160 C156 1.684 . S
H161 C179 0.948 . S
H162 C120 0.948 . S
H163 C138 0.979 . S
H164 C138 0.980 . S
H165 C138 0.983 . S
H166 C137 0.982 . S
H167 C137 0.979 . S
H168 C137 0.977 . S
H169 C139 0.948 . S
H170 C141 0.947 . S
H171 C142 0.948 . S
H172 C148 0.982 . S
H173 C148 0.979 . S
H174 C148 0.977 . S
H175 C149 0.979 . S
H176 C149 0.980 . S
H177 C149 0.983 . S
H178 C122 0.947 1_455 S
C179 C122 1.392 . S
C179 C123 1.419 . S
C179 H161 0.948 . S
C180 C181 1.391 . S
C180 C184 1.391 . S
C180 H222 0.948 . S
C181 C180 1.391 . S
C181 C182 1.391 . S
C182 C181 1.391 . S
C182 H238 0.947 . S
C182 C239 1.392 . S
C183 C184 1.391 . S
C183 C187 1.397 . S
C183 C239 1.419 . S
C184 C180 1.391 . S
C184 C183 1.391 . S
C184 C185 1.399 . S
C185 C184 1.399 . S
C185 C188 1.396 . S
C185 C197 1.453 . S
C185 C198 1.684 . S
H186 C210 0.948 1_655 S
C187 C183 1.397 . S
C187 C188 1.394 . S
C187 C206 1.723 . S
C188 C185 1.396 . S
C188 C187 1.394 . S
C188 C218 1.723 . S
H189 C212 0.947 . S
H190 C213 0.948 . S
H191 C219 0.982 . S
H192 C220 0.979 . S
H193 C220 0.980 . S
H194 C220 0.983 . S
H195 C219 0.979 . S
H196 C219 0.977 . S
C197 C185 1.453 . S
C197 H226 0.982 . S
C197 H227 0.979 . S
C197 H228 0.977 . S
C198 C185 1.684 . S
C198 H223 0.979 . S
C198 H224 0.980 . S
C198 H225 0.983 . S
C199 C200 1.391 . S
C199 C204 1.391 . S
C199 H229 0.948 . S
C200 C199 1.391 . S
C200 C201 1.391 . S
C201 C200 1.391 . S
C201 C202 1.392 . S
C201 H230 0.947 . S
C202 C201 1.392 . S
C202 C203 1.419 . S
C202 H231 0.948 . S
C203 C202 1.419 . S
C203 C204 1.391 . S
C203 C207 1.397 . S
C204 C199 1.391 . S
C204 C203 1.391 . S
C204 C205 1.399 . S
C205 C204 1.399 . S
C205 C206 1.396 . S
C205 C208 1.453 . S
C205 C209 1.684 . S
C206 C187 1.723 . S
C206 C205 1.396 . S
C206 C207 1.394 . S
C207 C203 1.397 . S
C207 C206 1.394 . S
C207 C217 1.723 . S
C208 C205 1.453 . S
C208 H232 0.982 . S
C208 H233 0.979 . S
C208 H234 0.977 . S
C209 C205 1.684 . S
C209 H235 0.979 . S
C209 H236 0.980 . S
C209 H237 0.983 . S
C210 H186 0.948 1_455 S
C210 C211 1.391 . S
C210 C215 1.391 . S
C211 C210 1.391 . S
C211 C212 1.391 . S
C212 H189 0.947 . S
C212 C211 1.391 . S
C212 C213 1.392 . S
C213 H190 0.948 . S
C213 C212 1.392 . S
C213 C214 1.419 . S
C214 C213 1.419 . S
C214 C215 1.391 . S
C214 C218 1.397 . S
C215 C210 1.391 . S
C215 C214 1.391 . S
C215 C216 1.399 . S
C216 C215 1.399 . S
C216 C217 1.396 . S
C216 C219 1.453 . S
C216 C220 1.684 . S
C217 C207 1.723 . S
C217 C216 1.396 . S
C217 C218 1.394 . S
C218 C188 1.723 . S
C218 C214 1.397 . S
C218 C217 1.394 . S
C219 H191 0.982 . S
C219 H195 0.979 . S
C219 H196 0.977 . S
C219 C216 1.453 . S
C220 H192 0.979 . S
C220 H193 0.980 . S
C220 H194 0.983 . S
C220 C216 1.684 . S
H221 C239 0.948 . S
H222 C180 0.948 . S
H223 C198 0.979 . S
H224 C198 0.980 . S
H225 C198 0.983 . S
H226 C197 0.982 . S
H227 C197 0.979 . S
H228 C197 0.977 . S
H229 C199 0.948 . S
H230 C201 0.947 . S
H231 C202 0.948 . S
H232 C208 0.982 . S
H233 C208 0.979 . S
H234 C208 0.977 . S
H235 C209 0.979 . S
H236 C209 0.980 . S
H237 C209 0.983 . S
H238 C182 0.947 . S
C239 C182 1.392 . S
C239 C183 1.419 . S
C239 H221 0.948 . S
C240 C241 1.391 . S
C240 C244 1.391 . S
C240 H282 0.948 . S
C241 C240 1.391 . S
C241 C242 1.391 . S
C242 C241 1.391 . S
C242 H298 0.947 . S
C242 C299 1.392 . S
C243 C244 1.391 . S
C243 C247 1.397 . S
C243 C299 1.419 . S
C244 C240 1.391 . S
C244 C243 1.391 . S
C244 C245 1.399 . S
C245 C244 1.399 . S
C245 C248 1.396 . S
C245 C257 1.453 . S
C245 C258 1.684 . S
H246 C270 0.948 . S
C247 C243 1.397 . S
C247 C248 1.394 . S
C247 C266 1.723 . S
C248 C245 1.396 . S
C248 C247 1.394 . S
C248 C278 1.723 . S
H249 C272 0.947 . S
H250 C273 0.948 . S
H251 C279 0.982 . S
H252 C280 0.979 . S
H253 C280 0.980 . S
H254 C280 0.983 . S
H255 C279 0.979 . S
H256 C279 0.977 . S
C257 C245 1.453 . S
C257 H286 0.982 . S
C257 H287 0.979 . S
C257 H288 0.977 . S
C258 C245 1.684 . S
C258 H283 0.979 . S
C258 H284 0.980 . S
C258 H285 0.983 . S
C259 C260 1.391 . S
C259 C264 1.391 . S
C259 H289 0.948 . S
C260 C259 1.391 . S
C260 C261 1.391 . S
C261 C260 1.391 . S
C261 C262 1.392 . S
C261 H290 0.947 . S
C262 C261 1.392 . S
C262 C263 1.419 . S
C262 H291 0.948 . S
C263 C262 1.419 . S
C263 C264 1.391 . S
C263 C267 1.397 . S
C264 C259 1.391 . S
C264 C263 1.391 . S
C264 C265 1.399 . S
C265 C264 1.399 . S
C265 C266 1.396 . S
C265 C268 1.453 . S
C265 C269 1.684 . S
C266 C247 1.723 . S
C266 C265 1.396 . S
C266 C267 1.394 . S
C267 C263 1.397 . S
C267 C266 1.394 . S
C267 C277 1.723 . S
C268 C265 1.453 . S
C268 H292 0.982 . S
C268 H293 0.979 . S
C268 H294 0.977 . S
C269 C265 1.684 . S
C269 H295 0.979 . S
C269 H296 0.980 . S
C269 H297 0.983 . S
C270 H246 0.948 . S
C270 C271 1.391 . S
C270 C275 1.391 . S
C271 C270 1.391 . S
C271 C272 1.391 . S
C272 H249 0.947 . S
C272 C271 1.391 . S
C272 C273 1.392 . S
C273 H250 0.948 . S
C273 C272 1.392 . S
C273 C274 1.419 . S
C274 C273 1.419 . S
C274 C275 1.391 . S
C274 C278 1.397 . S
C275 C270 1.391 . S
C275 C274 1.391 . S
C275 C276 1.399 . S
C276 C275 1.399 . S
C276 C277 1.396 . S
C276 C279 1.453 . S
C276 C280 1.684 . S
C277 C267 1.723 . S
C277 C276 1.396 . S
C277 C278 1.394 . S
C278 C248 1.723 . S
C278 C274 1.397 . S
C278 C277 1.394 . S
C279 H251 0.982 . S
C279 H255 0.979 . S
C279 H256 0.977 . S
C279 C276 1.453 . S
C280 H252 0.979 . S
C280 H253 0.980 . S
C280 H254 0.983 . S
C280 C276 1.684 . S
H281 C299 0.948 . S
H282 C240 0.948 . S
H283 C258 0.979 . S
H284 C258 0.980 . S
H285 C258 0.983 . S
H286 C257 0.982 . S
H287 C257 0.979 . S
H288 C257 0.977 . S
H289 C259 0.948 . S
H290 C261 0.947 . S
H291 C262 0.948 . S
H292 C268 0.982 . S
H293 C268 0.979 . S
H294 C268 0.977 . S
H295 C269 0.979 . S
H296 C269 0.980 . S
H297 C269 0.983 . S
H298 C242 0.947 . S
C299 C242 1.392 . S
C299 C243 1.419 . S
C299 H281 0.948 . S
C300 C301 1.391 . S
C300 C304 1.391 . S
C300 H342 0.948 . S
C301 C300 1.391 . S
C301 C302 1.391 . S
C302 C301 1.391 . S
C302 H358 0.947 1_455 S
C302 C359 1.392 . S
C303 C304 1.391 . S
C303 C307 1.397 . S
C303 C359 1.419 . S
C304 C300 1.391 . S
C304 C303 1.391 . S
C304 C305 1.399 . S
C305 C304 1.399 . S
C305 C308 1.396 . S
C305 C317 1.453 . S
C305 C318 1.684 . S
H306 C330 0.948 . S
C307 C303 1.397 . S
C307 C308 1.394 . S
C307 C326 1.723 . S
C308 C305 1.396 . S
C308 C307 1.394 . S
C308 C338 1.723 . S
H309 C332 0.947 . S
H310 C333 0.948 . S
H311 C339 0.982 . S
H312 C340 0.979 . S
H313 C340 0.980 . S
H314 C340 0.983 . S
H315 C339 0.979 . S
H316 C339 0.977 . S
C317 C305 1.453 . S
C317 H346 0.982 . S
C317 H347 0.979 . S
C317 H348 0.977 . S
C318 C305 1.684 . S
C318 H343 0.979 . S
C318 H344 0.980 . S
C318 H345 0.983 . S
C319 C320 1.391 . S
C319 C324 1.391 . S
C319 H349 0.948 . S
C320 C319 1.391 . S
C320 C321 1.391 . S
C321 C320 1.391 . S
C321 C322 1.392 . S
C321 H350 0.947 . S
C322 C321 1.392 . S
C322 C323 1.419 . S
C322 H351 0.948 . S
C323 C322 1.419 . S
C323 C324 1.391 . S
C323 C327 1.397 . S
C324 C319 1.391 . S
C324 C323 1.391 . S
C324 C325 1.399 . S
C325 C324 1.399 . S
C325 C326 1.396 . S
C325 C328 1.453 . S
C325 C329 1.684 . S
C326 C307 1.723 . S
C326 C325 1.396 . S
C326 C327 1.394 . S
C327 C323 1.397 . S
C327 C326 1.394 . S
C327 C337 1.723 . S
C328 C325 1.453 . S
C328 H352 0.982 . S
C328 H353 0.979 . S
C328 H354 0.977 . S
C329 C325 1.684 . S
C329 H355 0.979 . S
C329 H356 0.980 . S
C329 H357 0.983 . S
C330 H306 0.948 . S
C330 C331 1.391 . S
C330 C335 1.391 . S
C331 C330 1.391 . S
C331 C332 1.391 . S
C332 H309 0.947 . S
C332 C331 1.391 . S
C332 C333 1.392 . S
C333 H310 0.948 . S
C333 C332 1.392 . S
C333 C334 1.419 . S
C334 C333 1.419 . S
C334 C335 1.391 . S
C334 C338 1.397 . S
C335 C330 1.391 . S
C335 C334 1.391 . S
C335 C336 1.399 . S
C336 C335 1.399 . S
C336 C337 1.396 . S
C336 C339 1.453 . S
C336 C340 1.684 . S
C337 C327 1.723 . S
C337 C336 1.396 . S
C337 C338 1.394 . S
C338 C308 1.723 . S
C338 C334 1.397 . S
C338 C337 1.394 . S
C339 H311 0.982 . S
C339 H315 0.979 . S
C339 H316 0.977 . S
C339 C336 1.453 . S
C340 H312 0.979 . S
C340 H313 0.980 . S
C340 H314 0.983 . S
C340 C336 1.684 . S
H341 C359 0.948 . S
H342 C300 0.948 . S
H343 C318 0.979 . S
H344 C318 0.980 . S
H345 C318 0.983 . S
H346 C317 0.982 . S
H347 C317 0.979 . S
H348 C317 0.977 . S
H349 C319 0.948 . S
H350 C321 0.947 . S
H351 C322 0.948 . S
H352 C328 0.982 . S
H353 C328 0.979 . S
H354 C328 0.977 . S
H355 C329 0.979 . S
H356 C329 0.980 . S
H357 C329 0.983 . S
H358 C302 0.947 1_655 S
C359 C302 1.392 . S
C359 C303 1.419 . S
C359 H341 0.948 . S
C360 C361 1.391 . S
C360 C364 1.391 . S
C360 H402 0.948 . S
C361 C360 1.391 . S
C361 C362 1.391 . S
C362 C361 1.391 . S
C362 H418 0.947 . S
C362 C419 1.392 . S
C363 C364 1.391 . S
C363 C367 1.397 . S
C363 C419 1.419 . S
C364 C360 1.391 . S
C364 C363 1.391 . S
C364 C365 1.399 . S
C365 C364 1.399 . S
C365 C368 1.396 . S
C365 C377 1.453 . S
C365 C378 1.684 . S
H366 C390 0.948 . S
C367 C363 1.397 . S
C367 C368 1.394 . S
C367 C386 1.723 . S
C368 C365 1.396 . S
C368 C367 1.394 . S
C368 C398 1.723 . S
H369 C392 0.947 . S
H370 C393 0.948 . S
H371 C399 0.982 . S
H372 C400 0.979 . S
H373 C400 0.980 . S
H374 C400 0.983 . S
H375 C399 0.979 . S
H376 C399 0.977 . S
C377 C365 1.453 . S
C377 H406 0.982 . S
C377 H407 0.979 . S
C377 H408 0.977 . S
C378 C365 1.684 . S
C378 H403 0.979 . S
C378 H404 0.980 . S
C378 H405 0.983 . S
C379 C380 1.391 . S
C379 C384 1.391 . S
C379 H409 0.948 . S
C380 C379 1.391 . S
C380 C381 1.391 . S
C381 C380 1.391 . S
C381 C382 1.392 . S
C381 H410 0.947 . S
C382 C381 1.392 . S
C382 C383 1.419 . S
C382 H411 0.948 . S
C383 C382 1.419 . S
C383 C384 1.391 . S
C383 C387 1.397 . S
C384 C379 1.391 . S
C384 C383 1.391 . S
C384 C385 1.399 . S
C385 C384 1.399 . S
C385 C386 1.396 . S
C385 C388 1.453 . S
C385 C389 1.684 . S
C386 C367 1.723 . S
C386 C385 1.396 . S
C386 C387 1.394 . S
C387 C383 1.397 . S
C387 C386 1.394 . S
C387 C397 1.723 . S
C388 C385 1.453 . S
C388 H412 0.982 . S
C388 H413 0.979 . S
C388 H414 0.977 . S
C389 C385 1.684 . S
C389 H415 0.979 . S
C389 H416 0.980 . S
C389 H417 0.983 . S
C390 H366 0.948 . S
C390 C391 1.391 . S
C390 C395 1.391 . S
C391 C390 1.391 . S
C391 C392 1.391 . S
C392 H369 0.947 . S
C392 C391 1.391 . S
C392 C393 1.392 . S
C393 H370 0.948 . S
C393 C392 1.392 . S
C393 C394 1.419 . S
C394 C393 1.419 . S
C394 C395 1.391 . S
C394 C398 1.397 . S
C395 C390 1.391 . S
C395 C394 1.391 . S
C395 C396 1.399 . S
C396 C395 1.399 . S
C396 C397 1.396 . S
C396 C399 1.453 . S
C396 C400 1.684 . S
C397 C387 1.723 . S
C397 C396 1.396 . S
C397 C398 1.394 . S
C398 C368 1.723 . S
C398 C394 1.397 . S
C398 C397 1.394 . S
C399 H371 0.982 . S
C399 H375 0.979 . S
C399 H376 0.977 . S
C399 C396 1.453 . S
C400 H372 0.979 . S
C400 H373 0.980 . S
C400 H374 0.983 . S
C400 C396 1.684 . S
H401 C419 0.948 . S
H402 C360 0.948 . S
H403 C378 0.979 . S
H404 C378 0.980 . S
H405 C378 0.983 . S
H406 C377 0.982 . S
H407 C377 0.979 . S
H408 C377 0.977 . S
H409 C379 0.948 . S
H410 C381 0.947 . S
H411 C382 0.948 . S
H412 C388 0.982 . S
H413 C388 0.979 . S
H414 C388 0.977 . S
H415 C389 0.979 . S
H416 C389 0.980 . S
H417 C389 0.983 . S
H418 C362 0.947 . S
C419 C362 1.392 . S
C419 C363 1.419 . S
C419 H401 0.948 . S
C420 C421 1.391 . S
C420 C424 1.391 . S
C420 H462 0.948 . S
C421 C420 1.391 . S
C421 C422 1.391 . S
C422 C421 1.391 . S
C422 H478 0.947 . S
C422 C479 1.392 . S
C423 C424 1.391 . S
C423 C427 1.397 . S
C423 C479 1.419 . S
C424 C420 1.391 . S
C424 C423 1.391 . S
C424 C425 1.399 . S
C425 C424 1.399 . S
C425 C428 1.396 . S
C425 C437 1.453 . S
C425 C438 1.684 . S
H426 C450 0.948 . S
C427 C423 1.397 . S
C427 C428 1.394 . S
C427 C446 1.723 . S
C428 C425 1.396 . S
C428 C427 1.394 . S
C428 C458 1.723 . S
H429 C452 0.947 . S
H430 C453 0.948 . S
H431 C459 0.982 . S
H432 C460 0.979 . S
H433 C460 0.980 . S
H434 C460 0.983 . S
H435 C459 0.979 . S
H436 C459 0.977 . S
C437 C425 1.453 . S
C437 H466 0.982 . S
C437 H467 0.979 . S
C437 H468 0.977 . S
C438 C425 1.684 . S
C438 H463 0.979 . S
C438 H464 0.980 . S
C438 H465 0.983 . S
C439 C440 1.391 . S
C439 C444 1.391 . S
C439 H469 0.948 . S
C440 C439 1.391 . S
C440 C441 1.391 . S
C441 C440 1.391 . S
C441 C442 1.392 . S
C441 H470 0.947 . S
C442 C441 1.392 . S
C442 C443 1.419 . S
C442 H471 0.948 . S
C443 C442 1.419 . S
C443 C444 1.391 . S
C443 C447 1.397 . S
C444 C439 1.391 . S
C444 C443 1.391 . S
C444 C445 1.399 . S
C445 C444 1.399 . S
C445 C446 1.396 . S
C445 C448 1.453 . S
C445 C449 1.684 . S
C446 C427 1.723 . S
C446 C445 1.396 . S
C446 C447 1.394 . S
C447 C443 1.397 . S
C447 C446 1.394 . S
C447 C457 1.723 . S
C448 C445 1.453 . S
C448 H472 0.982 . S
C448 H473 0.979 . S
C448 H474 0.977 . S
C449 C445 1.684 . S
C449 H475 0.979 . S
C449 H476 0.980 . S
C449 H477 0.983 . S
C450 H426 0.948 . S
C450 C451 1.391 . S
C450 C455 1.391 . S
C451 C450 1.391 . S
C451 C452 1.391 . S
C452 H429 0.947 . S
C452 C451 1.391 . S
C452 C453 1.392 . S
C453 H430 0.948 . S
C453 C452 1.392 . S
C453 C454 1.419 . S
C454 C453 1.419 . S
C454 C455 1.391 . S
C454 C458 1.397 . S
C455 C450 1.391 . S
C455 C454 1.391 . S
C455 C456 1.399 . S
C456 C455 1.399 . S
C456 C457 1.396 . S
C456 C459 1.453 . S
C456 C460 1.684 . S
C457 C447 1.723 . S
C457 C456 1.396 . S
C457 C458 1.394 . S
C458 C428 1.723 . S
C458 C454 1.397 . S
C458 C457 1.394 . S
C459 H431 0.982 . S
C459 H435 0.979 . S
C459 H436 0.977 . S
C459 C456 1.453 . S
C460 H432 0.979 . S
C460 H433 0.980 . S
C460 H434 0.983 . S
C460 C456 1.684 . S
H461 C479 0.948 . S
H462 C420 0.948 . S
H463 C438 0.979 . S
H464 C438 0.980 . S
H465 C438 0.983 . S
H466 C437 0.982 . S
H467 C437 0.979 . S
H468 C437 0.977 . S
H469 C439 0.948 . S
H470 C441 0.947 . S
H471 C442 0.948 . S
H472 C448 0.982 . S
H473 C448 0.979 . S
H474 C448 0.977 . S
H475 C449 0.979 . S
H476 C449 0.980 . S
H477 C449 0.983 . S
H478 C422 0.947 . S
C479 C422 1.392 . S
C479 C423 1.419 . S
C479 H461 0.948 . S
C480 C481 1.391 . S
C480 C484 1.391 . S
C480 H522 0.948 . S
C481 C480 1.391 . S
C481 C482 1.391 . S
C482 C481 1.391 . S
C482 H538 0.947 . S
C482 C539 1.392 . S
C483 C484 1.391 . S
C483 C487 1.397 . S
C483 C539 1.419 . S
C484 C480 1.391 . S
C484 C483 1.391 . S
C484 C485 1.399 . S
C485 C484 1.399 . S
C485 C488 1.396 . S
C485 C497 1.453 . S
C485 C498 1.684 . S
H486 C510 0.948 . S
C487 C483 1.397 . S
C487 C488 1.394 . S
C487 C506 1.723 . S
C488 C485 1.396 . S
C488 C487 1.394 . S
C488 C518 1.723 . S
H489 C512 0.947 . S
H490 C513 0.948 . S
H491 C519 0.982 . S
H492 C520 0.979 . S
H493 C520 0.980 . S
H494 C520 0.983 . S
H495 C519 0.979 . S
H496 C519 0.977 . S
C497 C485 1.453 . S
C497 H526 0.982 . S
C497 H527 0.979 . S
C497 H528 0.977 . S
C498 C485 1.684 . S
C498 H523 0.979 . S
C498 H524 0.980 . S
C498 H525 0.983 . S
C499 C500 1.391 . S
C499 C504 1.391 . S
C499 H529 0.948 . S
C500 C499 1.391 . S
C500 C501 1.391 . S
C501 C500 1.391 . S
C501 C502 1.392 . S
C501 H530 0.947 . S
C502 C501 1.392 . S
C502 C503 1.419 . S
C502 H531 0.948 . S
C503 C502 1.419 . S
C503 C504 1.391 . S
C503 C507 1.397 . S
C504 C499 1.391 . S
C504 C503 1.391 . S
C504 C505 1.399 . S
C505 C504 1.399 . S
C505 C506 1.396 . S
C505 C508 1.453 . S
C505 C509 1.684 . S
C506 C487 1.723 . S
C506 C505 1.396 . S
C506 C507 1.394 . S
C507 C503 1.397 . S
C507 C506 1.394 . S
C507 C517 1.723 . S
C508 C505 1.453 . S
C508 H532 0.982 . S
C508 H533 0.979 . S
C508 H534 0.977 . S
C509 C505 1.684 . S
C509 H535 0.979 . S
C509 H536 0.980 . S
C509 H537 0.983 . S
C510 H486 0.948 . S
C510 C511 1.391 . S
C510 C515 1.391 . S
C511 C510 1.391 . S
C511 C512 1.391 . S
C512 H489 0.947 . S
C512 C511 1.391 . S
C512 C513 1.392 . S
C513 H490 0.948 . S
C513 C512 1.392 . S
C513 C514 1.419 . S
C514 C513 1.419 . S
C514 C515 1.391 . S
C514 C518 1.397 . S
C515 C510 1.391 . S
C515 C514 1.391 . S
C515 C516 1.399 . S
C516 C515 1.399 . S
C516 C517 1.396 . S
C516 C519 1.453 . S
C516 C520 1.684 . S
C517 C507 1.723 . S
C517 C516 1.396 . S
C517 C518 1.394 . S
C518 C488 1.723 . S
C518 C514 1.397 . S
C518 C517 1.394 . S
C519 H491 0.982 . S
C519 H495 0.979 . S
C519 H496 0.977 . S
C519 C516 1.453 . S
C520 H492 0.979 . S
C520 H493 0.980 . S
C520 H494 0.983 . S
C520 C516 1.684 . S
H521 C539 0.948 . S
H522 C480 0.948 . S
H523 C498 0.979 . S
H524 C498 0.980 . S
H525 C498 0.983 . S
H526 C497 0.982 . S
H527 C497 0.979 . S
H528 C497 0.977 . S
H529 C499 0.948 . S
H530 C501 0.947 . S
H531 C502 0.948 . S
H532 C508 0.982 . S
H533 C508 0.979 . S
H534 C508 0.977 . S
H535 C509 0.979 . S
H536 C509 0.980 . S
H537 C509 0.983 . S
H538 C482 0.947 . S
C539 C482 1.392 . S
C539 C483 1.419 . S
C539 H521 0.948 . S
C540 C541 1.391 . S
C540 C544 1.391 . S
C540 H582 0.948 . S
C541 C540 1.391 . S
C541 C542 1.391 . S
C542 C541 1.391 . S
C542 H598 0.947 . S
C542 C599 1.392 . S
C543 C544 1.391 . S
C543 C547 1.397 . S
C543 C599 1.419 . S
C544 C540 1.391 . S
C544 C543 1.391 . S
C544 C545 1.399 . S
C545 C544 1.399 . S
C545 C548 1.396 . S
C545 C557 1.453 . S
C545 C558 1.684 . S
H546 C570 0.948 . S
C547 C543 1.397 . S
C547 C548 1.394 . S
C547 C566 1.723 . S
C548 C545 1.396 . S
C548 C547 1.394 . S
C548 C578 1.723 . S
H549 C572 0.947 . S
H550 C573 0.948 . S
H551 C579 0.982 . S
H552 C580 0.979 . S
H553 C580 0.980 . S
H554 C580 0.983 . S
H555 C579 0.979 . S
H556 C579 0.977 . S
C557 C545 1.453 . S
C557 H586 0.982 . S
C557 H587 0.979 . S
C557 H588 0.977 . S
C558 C545 1.684 . S
C558 H583 0.979 . S
C558 H584 0.980 . S
C558 H585 0.983 . S
C559 C560 1.391 . S
C559 C564 1.391 . S
C559 H589 0.948 . S
C560 C559 1.391 . S
C560 C561 1.391 . S
C561 C560 1.391 . S
C561 C562 1.392 . S
C561 H590 0.947 . S
C562 C561 1.392 . S
C562 C563 1.419 . S
C562 H591 0.948 . S
C563 C562 1.419 . S
C563 C564 1.391 . S
C563 C567 1.397 . S
C564 C559 1.391 . S
C564 C563 1.391 . S
C564 C565 1.399 . S
C565 C564 1.399 . S
C565 C566 1.396 . S
C565 C568 1.453 . S
C565 C569 1.684 . S
C566 C547 1.723 . S
C566 C565 1.396 . S
C566 C567 1.394 . S
C567 C563 1.397 . S
C567 C566 1.394 . S
C567 C577 1.723 . S
C568 C565 1.453 . S
C568 H592 0.982 . S
C568 H593 0.979 . S
C568 H594 0.977 . S
C569 C565 1.684 . S
C569 H595 0.979 . S
C569 H596 0.980 . S
C569 H597 0.983 . S
C570 H546 0.948 . S
C570 C571 1.391 . S
C570 C575 1.391 . S
C571 C570 1.391 . S
C571 C572 1.391 . S
C572 H549 0.947 . S
C572 C571 1.391 . S
C572 C573 1.392 . S
C573 H550 0.948 . S
C573 C572 1.392 . S
C573 C574 1.419 . S
C574 C573 1.419 . S
C574 C575 1.391 . S
C574 C578 1.397 . S
C575 C570 1.391 . S
C575 C574 1.391 . S
C575 C576 1.399 . S
C576 C575 1.399 . S
C576 C577 1.396 . S
C576 C579 1.453 . S
C576 C580 1.684 . S
C577 C567 1.723 . S
C577 C576 1.396 . S
C577 C578 1.394 . S
C578 C548 1.723 . S
C578 C574 1.397 . S
C578 C577 1.394 . S
C579 H551 0.982 . S
C579 H555 0.979 . S
C579 H556 0.977 . S
C579 C576 1.453 . S
C580 H552 0.979 . S
C580 H553 0.980 . S
C580 H554 0.983 . S
C580 C576 1.684 . S
H581 C599 0.948 . S
H582 C540 0.948 . S
H583 C558 0.979 . S
H584 C558 0.980 . S
H585 C558 0.983 . S
H586 C557 0.982 . S
H587 C557 0.979 . S
H588 C557 0.977 . S
H589 C559 0.948 . S
H590 C561 0.947 . S
H591 C562 0.948 . S
H592 C568 0.982 . S
H593 C568 0.979 . S
H594 C568 0.977 . S
H595 C569 0.979 . S
H596 C569 0.980 . S
H597 C569 0.983 . S
H598 C542 0.947 . S
C599 C542 1.392 . S
C599 C543 1.419 . S
C599 H581 0.948 . S
C600 C601 1.391 . S
C600 C604 1.391 . S
C600 H642 0.948 . S
C601 C600 1.391 . S
C601 C602 1.391 . S
C602 C601 1.391 . S
C602 H658 0.947 . S
C602 C659 1.392 . S
C603 C604 1.391 . S
C603 C607 1.397 . S
C603 C659 1.419 . S
C604 C600 1.391 . S
C604 C603 1.391 . S
C604 C605 1.399 . S
C605 C604 1.399 . S
C605 C608 1.396 . S
C605 C617 1.453 . S
C605 C618 1.684 . S
H606 C630 0.948 . S
C607 C603 1.397 . S
C607 C608 1.394 . S
C607 C626 1.723 . S
C608 C605 1.396 . S
C608 C607 1.394 . S
C608 C638 1.723 . S
H609 C632 0.947 . S
H610 C633 0.948 . S
H611 C639 0.982 . S
H612 C640 0.979 . S
H613 C640 0.980 . S
H614 C640 0.983 . S
H615 C639 0.979 . S
H616 C639 0.977 . S
C617 C605 1.453 . S
C617 H646 0.982 . S
C617 H647 0.979 . S
C617 H648 0.977 . S
C618 C605 1.684 . S
C618 H643 0.979 . S
C618 H644 0.980 . S
C618 H645 0.983 . S
C619 C620 1.391 . S
C619 C624 1.391 . S
C619 H649 0.948 . S
C620 C619 1.391 . S
C620 C621 1.391 . S
C621 C620 1.391 . S
C621 C622 1.392 . S
C621 H650 0.947 . S
C622 C621 1.392 . S
C622 C623 1.419 . S
C622 H651 0.948 . S
C623 C622 1.419 . S
C623 C624 1.391 . S
C623 C627 1.397 . S
C624 C619 1.391 . S
C624 C623 1.391 . S
C624 C625 1.399 . S
C625 C624 1.399 . S
C625 C626 1.396 . S
C625 C628 1.453 . S
C625 C629 1.684 . S
C626 C607 1.723 . S
C626 C625 1.396 . S
C626 C627 1.394 . S
C627 C623 1.397 . S
C627 C626 1.394 . S
C627 C637 1.723 . S
C628 C625 1.453 . S
C628 H652 0.982 . S
C628 H653 0.979 . S
C628 H654 0.977 . S
C629 C625 1.684 . S
C629 H655 0.979 . S
C629 H656 0.980 . S
C629 H657 0.983 . S
C630 H606 0.948 . S
C630 C631 1.391 . S
C630 C635 1.391 . S
C631 C630 1.391 . S
C631 C632 1.391 . S
C632 H609 0.947 . S
C632 C631 1.391 . S
C632 C633 1.392 . S
C633 H610 0.948 . S
C633 C632 1.392 . S
C633 C634 1.419 . S
C634 C633 1.419 . S
C634 C635 1.391 . S
C634 C638 1.397 . S
C635 C630 1.391 . S
C635 C634 1.391 . S
C635 C636 1.399 . S
C636 C635 1.399 . S
C636 C637 1.396 . S
C636 C639 1.453 . S
C636 C640 1.684 . S
C637 C627 1.723 . S
C637 C636 1.396 . S
C637 C638 1.394 . S
C638 C608 1.723 . S
C638 C634 1.397 . S
C638 C637 1.394 . S
C639 H611 0.982 . S
C639 H615 0.979 . S
C639 H616 0.977 . S
C639 C636 1.453 . S
C640 H612 0.979 . S
C640 H613 0.980 . S
C640 H614 0.983 . S
C640 C636 1.684 . S
H641 C659 0.948 . S
H642 C600 0.948 . S
H643 C618 0.979 . S
H644 C618 0.980 . S
H645 C618 0.983 . S
H646 C617 0.982 . S
H647 C617 0.979 . S
H648 C617 0.977 . S
H649 C619 0.948 . S
H650 C621 0.947 . S
H651 C622 0.948 . S
H652 C628 0.982 . S
H653 C628 0.979 . S
H654 C628 0.977 . S
H655 C629 0.979 . S
H656 C629 0.980 . S
H657 C629 0.983 . S
H658 C602 0.947 . S
C659 C602 1.392 . S
C659 C603 1.419 . S
C659 H641 0.948 . S
C660 C661 1.391 . S
C660 C664 1.391 . S
C660 H702 0.948 . S
C661 C660 1.391 . S
C661 C662 1.391 . S
C662 C661 1.391 . S
C662 H718 0.947 . S
C662 C719 1.392 . S
C663 C664 1.391 . S
C663 C667 1.397 . S
C663 C719 1.419 . S
C664 C660 1.391 . S
C664 C663 1.391 . S
C664 C665 1.399 . S
C665 C664 1.399 . S
C665 C668 1.396 . S
C665 C677 1.453 . S
C665 C678 1.684 . S
H666 C690 0.948 . S
C667 C663 1.397 . S
C667 C668 1.394 . S
C667 C686 1.723 . S
C668 C665 1.396 . S
C668 C667 1.394 . S
C668 C698 1.723 . S
H669 C692 0.947 . S
H670 C693 0.948 . S
H671 C699 0.982 . S
H672 C700 0.979 . S
H673 C700 0.980 . S
H674 C700 0.983 . S
H675 C699 0.979 . S
H676 C699 0.977 . S
C677 C665 1.453 . S
C677 H706 0.982 . S
C677 H707 0.979 . S
C677 H708 0.977 . S
C678 C665 1.684 . S
C678 H703 0.979 . S
C678 H704 0.980 . S
C678 H705 0.983 . S
C679 C680 1.391 . S
C679 C684 1.391 . S
C679 H709 0.948 . S
C680 C679 1.391 . S
C680 C681 1.391 . S
C681 C680 1.391 . S
C681 C682 1.392 . S
C681 H710 0.947 . S
C682 C681 1.392 . S
C682 C683 1.419 . S
C682 H711 0.948 . S
C683 C682 1.419 . S
C683 C684 1.391 . S
C683 C687 1.397 . S
C684 C679 1.391 . S
C684 C683 1.391 . S
C684 C685 1.399 . S
C685 C684 1.399 . S
C685 C686 1.396 . S
C685 C688 1.453 . S
C685 C689 1.684 . S
C686 C667 1.723 . S
C686 C685 1.396 . S
C686 C687 1.394 . S
C687 C683 1.397 . S
C687 C686 1.394 . S
C687 C697 1.723 . S
C688 C685 1.453 . S
C688 H712 0.982 . S
C688 H713 0.979 . S
C688 H714 0.977 . S
C689 C685 1.684 . S
C689 H715 0.979 . S
C689 H716 0.980 . S
C689 H717 0.983 . S
C690 H666 0.948 . S
C690 C691 1.391 . S
C690 C695 1.391 . S
C691 C690 1.391 . S
C691 C692 1.391 . S
C692 H669 0.947 . S
C692 C691 1.391 . S
C692 C693 1.392 . S
C693 H670 0.948 . S
C693 C692 1.392 . S
C693 C694 1.419 . S
C694 C693 1.419 . S
C694 C695 1.391 . S
C694 C698 1.397 . S
C695 C690 1.391 . S
C695 C694 1.391 . S
C695 C696 1.399 . S
C696 C695 1.399 . S
C696 C697 1.396 . S
C696 C699 1.453 . S
C696 C700 1.684 . S
C697 C687 1.723 . S
C697 C696 1.396 . S
C697 C698 1.394 . S
C698 C668 1.723 . S
C698 C694 1.397 . S
C698 C697 1.394 . S
C699 H671 0.982 . S
C699 H675 0.979 . S
C699 H676 0.977 . S
C699 C696 1.453 . S
C700 H672 0.979 . S
C700 H673 0.980 . S
C700 H674 0.983 . S
C700 C696 1.684 . S
H701 C719 0.948 . S
H702 C660 0.948 . S
H703 C678 0.979 . S
H704 C678 0.980 . S
H705 C678 0.983 . S
H706 C677 0.982 . S
H707 C677 0.979 . S
H708 C677 0.977 . S
H709 C679 0.948 . S
H710 C681 0.947 . S
H711 C682 0.948 . S
H712 C688 0.982 . S
H713 C688 0.979 . S
H714 C688 0.977 . S
H715 C689 0.979 . S
H716 C689 0.980 . S
H717 C689 0.983 . S
H718 C662 0.947 . S
C719 C662 1.392 . S
C719 C663 1.419 . S
C719 H701 0.948 . S
C720 C721 1.391 . S
C720 C724 1.391 . S
C720 H762 0.948 . S
C721 C720 1.391 . S
C721 C722 1.391 . S
C722 C721 1.391 . S
C722 H778 0.947 . S
C722 C779 1.392 . S
C723 C724 1.391 . S
C723 C727 1.397 . S
C723 C779 1.419 . S
C724 C720 1.391 . S
C724 C723 1.391 . S
C724 C725 1.399 . S
C725 C724 1.399 . S
C725 C728 1.396 . S
C725 C737 1.453 . S
C725 C738 1.684 . S
H726 C750 0.948 . S
C727 C723 1.397 . S
C727 C728 1.394 . S
C727 C746 1.723 . S
C728 C725 1.396 . S
C728 C727 1.394 . S
C728 C758 1.723 . S
H729 C752 0.947 . S
H730 C753 0.948 . S
H731 C759 0.982 . S
H732 C760 0.979 . S
H733 C760 0.980 . S
H734 C760 0.983 . S
H735 C759 0.979 . S
H736 C759 0.977 . S
C737 C725 1.453 . S
C737 H766 0.982 . S
C737 H767 0.979 . S
C737 H768 0.977 . S
C738 C725 1.684 . S
C738 H763 0.979 . S
C738 H764 0.980 . S
C738 H765 0.983 . S
C739 C740 1.391 . S
C739 C744 1.391 . S
C739 H769 0.948 . S
C740 C739 1.391 . S
C740 C741 1.391 . S
C741 C740 1.391 . S
C741 C742 1.392 . S
C741 H770 0.947 . S
C742 C741 1.392 . S
C742 C743 1.419 . S
C742 H771 0.948 . S
C743 C742 1.419 . S
C743 C744 1.391 . S
C743 C747 1.397 . S
C744 C739 1.391 . S
C744 C743 1.391 . S
C744 C745 1.399 . S
C745 C744 1.399 . S
C745 C746 1.396 . S
C745 C748 1.453 . S
C745 C749 1.684 . S
C746 C727 1.723 . S
C746 C745 1.396 . S
C746 C747 1.394 . S
C747 C743 1.397 . S
C747 C746 1.394 . S
C747 C757 1.723 . S
C748 C745 1.453 . S
C748 H772 0.982 . S
C748 H773 0.979 . S
C748 H774 0.977 . S
C749 C745 1.684 . S
C749 H775 0.979 . S
C749 H776 0.980 . S
C749 H777 0.983 . S
C750 H726 0.948 . S
C750 C751 1.391 . S
C750 C755 1.391 . S
C751 C750 1.391 . S
C751 C752 1.391 . S
C752 H729 0.947 . S
C752 C751 1.391 . S
C752 C753 1.392 . S
C753 H730 0.948 . S
C753 C752 1.392 . S
C753 C754 1.419 . S
C754 C753 1.419 . S
C754 C755 1.391 . S
C754 C758 1.397 . S
C755 C750 1.391 . S
C755 C754 1.391 . S
C755 C756 1.399 . S
C756 C755 1.399 . S
C756 C757 1.396 . S
C756 C759 1.453 . S
C756 C760 1.684 . S
C757 C747 1.723 . S
C757 C756 1.396 . S
C757 C758 1.394 . S
C758 C728 1.723 . S
C758 C754 1.397 . S
C758 C757 1.394 . S
C759 H731 0.982 . S
C759 H735 0.979 . S
C759 H736 0.977 . S
C759 C756 1.453 . S
C760 H732 0.979 . S
C760 H733 0.980 . S
C760 H734 0.983 . S
C760 C756 1.684 . S
H761 C779 0.948 . S
H762 C720 0.948 . S
H763 C738 0.979 . S
H764 C738 0.980 . S
H765 C738 0.983 . S
H766 C737 0.982 . S
H767 C737 0.979 . S
H768 C737 0.977 . S
H769 C739 0.948 . S
H770 C741 0.947 . S
H771 C742 0.948 . S
H772 C748 0.982 . S
H773 C748 0.979 . S
H774 C748 0.977 . S
H775 C749 0.979 . S
H776 C749 0.980 . S
H777 C749 0.983 . S
H778 C722 0.947 . S
C779 C722 1.392 . S
C779 C723 1.419 . S
C779 H761 0.948 . S
C780 C781 1.391 . S
C780 C784 1.391 . S
C780 H822 0.948 . S
C781 C780 1.391 . S
C781 C782 1.391 . S
C782 C781 1.391 . S
C782 H838 0.947 . S
C782 C839 1.392 . S
C783 C784 1.391 . S
C783 C787 1.397 . S
C783 C839 1.419 . S
C784 C780 1.391 . S
C784 C783 1.391 . S
C784 C785 1.399 . S
C785 C784 1.399 . S
C785 C788 1.396 . S
C785 C797 1.453 . S
C785 C798 1.684 . S
H786 C810 0.948 . S
C787 C783 1.397 . S
C787 C788 1.394 . S
C787 C806 1.723 . S
C788 C785 1.396 . S
C788 C787 1.394 . S
C788 C818 1.723 . S
H789 C812 0.947 . S
H790 C813 0.948 . S
H791 C819 0.982 . S
H792 C820 0.979 . S
H793 C820 0.980 . S
H794 C820 0.983 . S
H795 C819 0.979 . S
H796 C819 0.977 . S
C797 C785 1.453 . S
C797 H826 0.982 . S
C797 H827 0.979 . S
C797 H828 0.977 . S
C798 C785 1.684 . S
C798 H823 0.979 . S
C798 H824 0.980 . S
C798 H825 0.983 . S
C799 C800 1.391 . S
C799 C804 1.391 . S
C799 H829 0.948 . S
C800 C799 1.391 . S
C800 C801 1.391 . S
C801 C800 1.391 . S
C801 C802 1.392 . S
C801 H830 0.947 . S
C802 C801 1.392 . S
C802 C803 1.419 . S
C802 H831 0.948 . S
C803 C802 1.419 . S
C803 C804 1.391 . S
C803 C807 1.397 . S
C804 C799 1.391 . S
C804 C803 1.391 . S
C804 C805 1.399 . S
C805 C804 1.399 . S
C805 C806 1.396 . S
C805 C808 1.453 . S
C805 C809 1.684 . S
C806 C787 1.723 . S
C806 C805 1.396 . S
C806 C807 1.394 . S
C807 C803 1.397 . S
C807 C806 1.394 . S
C807 C817 1.723 . S
C808 C805 1.453 . S
C808 H832 0.982 . S
C808 H833 0.979 . S
C808 H834 0.977 . S
C809 C805 1.684 . S
C809 H835 0.979 . S
C809 H836 0.980 . S
C809 H837 0.983 . S
C810 H786 0.948 . S
C810 C811 1.391 . S
C810 C815 1.391 . S
C811 C810 1.391 . S
C811 C812 1.391 . S
C812 H789 0.947 . S
C812 C811 1.391 . S
C812 C813 1.392 . S
C813 H790 0.948 . S
C813 C812 1.392 . S
C813 C814 1.419 . S
C814 C813 1.419 . S
C814 C815 1.391 . S
C814 C818 1.397 . S
C815 C810 1.391 . S
C815 C814 1.391 . S
C815 C816 1.399 . S
C816 C815 1.399 . S
C816 C817 1.396 . S
C816 C819 1.453 . S
C816 C820 1.684 . S
C817 C807 1.723 . S
C817 C816 1.396 . S
C817 C818 1.394 . S
C818 C788 1.723 . S
C818 C814 1.397 . S
C818 C817 1.394 . S
C819 H791 0.982 . S
C819 H795 0.979 . S
C819 H796 0.977 . S
C819 C816 1.453 . S
C820 H792 0.979 . S
C820 H793 0.980 . S
C820 H794 0.983 . S
C820 C816 1.684 . S
H821 C839 0.948 . S
H822 C780 0.948 . S
H823 C798 0.979 . S
H824 C798 0.980 . S
H825 C798 0.983 . S
H826 C797 0.982 . S
H827 C797 0.979 . S
H828 C797 0.977 . S
H829 C799 0.948 . S
H830 C801 0.947 . S
H831 C802 0.948 . S
H832 C808 0.982 . S
H833 C808 0.979 . S
H834 C808 0.977 . S
H835 C809 0.979 . S
H836 C809 0.980 . S
H837 C809 0.983 . S
H838 C782 0.947 . S
C839 C782 1.392 . S
C839 C783 1.419 . S
C839 H821 0.948 . S
C840 C841 1.391 . S
C840 C844 1.391 . S
C840 H882 0.948 . S
C841 C840 1.391 . S
C841 C842 1.391 . S
C842 C841 1.391 . S
C842 H898 0.947 . S
C842 C899 1.392 . S
C843 C844 1.391 . S
C843 C847 1.397 . S
C843 C899 1.419 . S
C844 C840 1.391 . S
C844 C843 1.391 . S
C844 C845 1.399 . S
C845 C844 1.399 . S
C845 C848 1.396 . S
C845 C857 1.453 . S
C845 C858 1.684 . S
H846 C870 0.948 . S
C847 C843 1.397 . S
C847 C848 1.394 . S
C847 C866 1.723 . S
C848 C845 1.396 . S
C848 C847 1.394 . S
C848 C878 1.723 . S
H849 C872 0.947 . S
H850 C873 0.948 . S
H851 C879 0.982 . S
H852 C880 0.979 . S
H853 C880 0.980 . S
H854 C880 0.983 . S
H855 C879 0.979 . S
H856 C879 0.977 . S
C857 C845 1.453 . S
C857 H886 0.982 . S
C857 H887 0.979 . S
C857 H888 0.977 . S
C858 C845 1.684 . S
C858 H883 0.979 . S
C858 H884 0.980 . S
C858 H885 0.983 . S
C859 C860 1.391 . S
C859 C864 1.391 . S
C859 H889 0.948 . S
C860 C859 1.391 . S
C860 C861 1.391 . S
C861 C860 1.391 . S
C861 C862 1.392 . S
C861 H890 0.947 . S
C862 C861 1.392 . S
C862 C863 1.419 . S
C862 H891 0.948 . S
C863 C862 1.419 . S
C863 C864 1.391 . S
C863 C867 1.397 . S
C864 C859 1.391 . S
C864 C863 1.391 . S
C864 C865 1.399 . S
C865 C864 1.399 . S
C865 C866 1.396 . S
C865 C868 1.453 . S
C865 C869 1.684 . S
C866 C847 1.723 . S
C866 C865 1.396 . S
C866 C867 1.394 . S
C867 C863 1.397 . S
C867 C866 1.394 . S
C867 C877 1.723 . S
C868 C865 1.453 . S
C868 H892 0.982 . S
C868 H893 0.979 . S
C868 H894 0.977 . S
C869 C865 1.684 . S
C869 H895 0.979 . S
C869 H896 0.980 . S
C869 H897 0.983 . S
C870 H846 0.948 . S
C870 C871 1.391 . S
C870 C875 1.391 . S
C871 C870 1.391 . S
C871 C872 1.391 . S
C872 H849 0.947 . S
C872 C871 1.391 . S
C872 C873 1.392 . S
C873 H850 0.948 . S
C873 C872 1.392 . S
C873 C874 1.419 . S
C874 C873 1.419 . S
C874 C875 1.391 . S
C874 C878 1.397 . S
C875 C870 1.391 . S
C875 C874 1.391 . S
C875 C876 1.399 . S
C876 C875 1.399 . S
C876 C877 1.396 . S
C876 C879 1.453 . S
C876 C880 1.684 . S
C877 C867 1.723 . S
C877 C876 1.396 . S
C877 C878 1.394 . S
C878 C848 1.723 . S
C878 C874 1.397 . S
C878 C877 1.394 . S
C879 H851 0.982 . S
C879 H855 0.979 . S
C879 H856 0.977 . S
C879 C876 1.453 . S
C880 H852 0.979 . S
C880 H853 0.980 . S
C880 H854 0.983 . S
C880 C876 1.684 . S
H881 C899 0.948 . S
H882 C840 0.948 . S
H883 C858 0.979 . S
H884 C858 0.980 . S
H885 C858 0.983 . S
H886 C857 0.982 . S
H887 C857 0.979 . S
H888 C857 0.977 . S
H889 C859 0.948 . S
H890 C861 0.947 . S
H891 C862 0.948 . S
H892 C868 0.982 . S
H893 C868 0.979 . S
H894 C868 0.977 . S
H895 C869 0.979 . S
H896 C869 0.980 . S
H897 C869 0.983 . S
H898 C842 0.947 . S
C899 C842 1.392 . S
C899 C843 1.419 . S
C899 H881 0.948 . S
C900 C901 1.391 . S
C900 C904 1.391 . S
C900 H942 0.948 . S
C901 C900 1.391 . S
C901 C902 1.391 . S
C902 C901 1.391 . S
C902 H958 0.947 . S
C902 C959 1.392 . S
C903 C904 1.391 . S
C903 C907 1.397 . S
C903 C959 1.419 . S
C904 C900 1.391 . S
C904 C903 1.391 . S
C904 C905 1.399 . S
C905 C904 1.399 . S
C905 C908 1.396 . S
C905 C917 1.453 . S
C905 C918 1.684 . S
H906 C930 0.948 . S
C907 C903 1.397 . S
C907 C908 1.394 . S
C907 C926 1.723 . S
C908 C905 1.396 . S
C908 C907 1.394 . S
C908 C938 1.723 . S
H909 C932 0.947 . S
H910 C933 0.948 . S
H911 C939 0.982 . S
H912 C940 0.979 . S
H913 C940 0.980 . S
H914 C940 0.983 . S
H915 C939 0.979 . S
H916 C939 0.977 . S
C917 C905 1.453 . S
C917 H946 0.982 . S
C917 H947 0.979 . S
C917 H948 0.977 . S
C918 C905 1.684 . S
C918 H943 0.979 . S
C918 H944 0.980 . S
C918 H945 0.983 . S
C919 C920 1.391 . S
C919 C924 1.391 . S
C919 H949 0.948 . S
C920 C919 1.391 . S
C920 C921 1.391 . S
C921 C920 1.391 . S
C921 C922 1.392 . S
C921 H950 0.947 . S
C922 C921 1.392 . S
C922 C923 1.419 . S
C922 H951 0.948 . S
C923 C922 1.419 . S
C923 C924 1.391 . S
C923 C927 1.397 . S
C924 C919 1.391 . S
C924 C923 1.391 . S
C924 C925 1.399 . S
C925 C924 1.399 . S
C925 C926 1.396 . S
C925 C928 1.453 . S
C925 C929 1.684 . S
C926 C907 1.723 . S
C926 C925 1.396 . S
C926 C927 1.394 . S
C927 C923 1.397 . S
C927 C926 1.394 . S
C927 C937 1.723 . S
C928 C925 1.453 . S
C928 H952 0.982 . S
C928 H953 0.979 . S
C928 H954 0.977 . S
C929 C925 1.684 . S
C929 H955 0.979 . S
C929 H956 0.980 . S
C929 H957 0.983 . S
C930 H906 0.948 . S
C930 C931 1.391 . S
C930 C935 1.391 . S
C931 C930 1.391 . S
C931 C932 1.391 . S
C932 H909 0.947 . S
C932 C931 1.391 . S
C932 C933 1.392 . S
C933 H910 0.948 . S
C933 C932 1.392 . S
C933 C934 1.419 . S
C934 C933 1.419 . S
C934 C935 1.391 . S
C934 C938 1.397 . S
C935 C930 1.391 . S
C935 C934 1.391 . S
C935 C936 1.399 . S
C936 C935 1.399 . S
C936 C937 1.396 . S
C936 C939 1.453 . S
C936 C940 1.684 . S
C937 C927 1.723 . S
C937 C936 1.396 . S
C937 C938 1.394 . S
C938 C908 1.723 . S
C938 C934 1.397 . S
C938 C937 1.394 . S
C939 H911 0.982 . S
C939 H915 0.979 . S
C939 H916 0.977 . S
C939 C936 1.453 . S
C940 H912 0.979 . S
C940 H913 0.980 . S
C940 H914 0.983 . S
C940 C936 1.684 . S
H941 C959 0.948 . S
H942 C900 0.948 . S
H943 C918 0.979 . S
H944 C918 0.980 . S
H945 C918 0.983 . S
H946 C917 0.982 . S
H947 C917 0.979 . S
H948 C917 0.977 . S
H949 C919 0.948 . S
H950 C921 0.947 . S
H951 C922 0.948 . S
H952 C928 0.982 . S
H953 C928 0.979 . S
H954 C928 0.977 . S
H955 C929 0.979 . S
H956 C929 0.980 . S
H957 C929 0.983 . S
H958 C902 0.947 . S
C959 C902 1.392 . S
C959 C903 1.419 . S
C959 H941 0.948 . S
C960 C961 1.391 . S
C960 C964 1.391 . S
C960 H1002 0.948 . S
C961 C960 1.391 . S
C961 C962 1.391 . S
C962 C961 1.391 . S
C962 H1018 0.947 . S
C962 C1019 1.392 . S
C963 C964 1.391 . S
C963 C967 1.397 . S
C963 C1019 1.419 . S
C964 C960 1.391 . S
C964 C963 1.391 . S
C964 C965 1.399 . S
C965 C964 1.399 . S
C965 C968 1.396 . S
C965 C977 1.453 . S
C965 C978 1.684 . S
H966 C990 0.948 . S
C967 C963 1.397 . S
C967 C968 1.394 . S
C967 C986 1.723 . S
C968 C965 1.396 . S
C968 C967 1.394 . S
C968 C998 1.723 . S
H969 C992 0.947 . S
H970 C993 0.948 . S
H971 C999 0.982 . S
H972 C1000 0.979 . S
H973 C1000 0.980 . S
H974 C1000 0.983 . S
H975 C999 0.979 . S
H976 C999 0.977 . S
C977 C965 1.453 . S
C977 H1006 0.982 . S
C977 H1007 0.979 . S
C977 H1008 0.977 . S
C978 C965 1.684 . S
C978 H1003 0.979 . S
C978 H1004 0.980 . S
C978 H1005 0.983 . S
C979 C980 1.391 . S
C979 C984 1.391 . S
C979 H1009 0.948 . S
C980 C979 1.391 . S
C980 C981 1.391 . S
C981 C980 1.391 . S
C981 C982 1.392 . S
C981 H1010 0.947 . S
C982 C981 1.392 . S
C982 C983 1.419 . S
C982 H1011 0.948 . S
C983 C982 1.419 . S
C983 C984 1.391 . S
C983 C987 1.397 . S
C984 C979 1.391 . S
C984 C983 1.391 . S
C984 C985 1.399 . S
C985 C984 1.399 . S
C985 C986 1.396 . S
C985 C988 1.453 . S
C985 C989 1.684 . S
C986 C967 1.723 . S
C986 C985 1.396 . S
C986 C987 1.394 . S
C987 C983 1.397 . S
C987 C986 1.394 . S
C987 C997 1.723 . S
C988 C985 1.453 . S
C988 H1012 0.982 . S
C988 H1013 0.979 . S
C988 H1014 0.977 . S
C989 C985 1.684 . S
C989 H1015 0.979 . S
C989 H1016 0.980 . S
C989 H1017 0.983 . S
C990 H966 0.948 . S
C990 C991 1.391 . S
C990 C995 1.391 . S
C991 C990 1.391 . S
C991 C992 1.391 . S
C992 H969 0.947 . S
C992 C991 1.391 . S
C992 C993 1.392 . S
C993 H970 0.948 . S
C993 C992 1.392 . S
C993 C994 1.419 . S
C994 C993 1.419 . S
C994 C995 1.391 . S
C994 C998 1.397 . S
C995 C990 1.391 . S
C995 C994 1.391 . S
C995 C996 1.399 . S
C996 C995 1.399 . S
C996 C997 1.396 . S
C996 C999 1.453 . S
C996 C1000 1.684 . S
C997 C987 1.723 . S
C997 C996 1.396 . S
C997 C998 1.394 . S
C998 C968 1.723 . S
C998 C994 1.397 . S
C998 C997 1.394 . S
C999 H971 0.982 . S
C999 H975 0.979 . S
C999 H976 0.977 . S
C999 C996 1.453 . S
C1000 H972 0.979 . S
C1000 H973 0.980 . S
C1000 H974 0.983 . S
C1000 C996 1.684 . S
H1001 C1019 0.948 . S
H1002 C960 0.948 . S
H1003 C978 0.979 . S
H1004 C978 0.980 . S
H1005 C978 0.983 . S
H1006 C977 0.982 . S
H1007 C977 0.979 . S
H1008 C977 0.977 . S
H1009 C979 0.948 . S
H1010 C981 0.947 . S
H1011 C982 0.948 . S
H1012 C988 0.982 . S
H1013 C988 0.979 . S
H1014 C988 0.977 . S
H1015 C989 0.979 . S
H1016 C989 0.980 . S
H1017 C989 0.983 . S
H1018 C962 0.947 . S
C1019 C962 1.392 . S
C1019 C963 1.419 . S
C1019 H1001 0.948 . S
C1020 C1021 1.391 . S
C1020 C1024 1.391 . S
C1020 H1062 0.948 . S
C1021 C1020 1.391 . S
C1021 C1022 1.391 . S
C1022 C1021 1.391 . S
C1022 H1078 0.947 . S
C1022 C1079 1.392 . S
C1023 C1024 1.391 . S
C1023 C1027 1.397 . S
C1023 C1079 1.419 . S
C1024 C1020 1.391 . S
C1024 C1023 1.391 . S
C1024 C1025 1.399 . S
C1025 C1024 1.399 . S
C1025 C1028 1.396 . S
C1025 C1037 1.453 . S
C1025 C1038 1.684 . S
H1026 C1050 0.948 . S
C1027 C1023 1.397 . S
C1027 C1028 1.394 . S
C1027 C1046 1.723 . S
C1028 C1025 1.396 . S
C1028 C1027 1.394 . S
C1028 C1058 1.723 . S
H1029 C1052 0.947 . S
H1030 C1053 0.948 . S
H1031 C1059 0.982 . S
H1032 C1060 0.979 . S
H1033 C1060 0.980 . S
H1034 C1060 0.983 . S
H1035 C1059 0.979 . S
H1036 C1059 0.977 . S
C1037 C1025 1.453 . S
C1037 H1066 0.982 . S
C1037 H1067 0.979 . S
C1037 H1068 0.977 . S
C1038 C1025 1.684 . S
C1038 H1063 0.979 . S
C1038 H1064 0.980 . S
C1038 H1065 0.983 . S
C1039 C1040 1.391 . S
C1039 C1044 1.391 . S
C1039 H1069 0.948 . S
C1040 C1039 1.391 . S
C1040 C1041 1.391 . S
C1041 C1040 1.391 . S
C1041 C1042 1.392 . S
C1041 H1070 0.947 . S
C1042 C1041 1.392 . S
C1042 C1043 1.419 . S
C1042 H1071 0.948 . S
C1043 C1042 1.419 . S
C1043 C1044 1.391 . S
C1043 C1047 1.397 . S
C1044 C1039 1.391 . S
C1044 C1043 1.391 . S
C1044 C1045 1.399 . S
C1045 C1044 1.399 . S
C1045 C1046 1.396 . S
C1045 C1048 1.453 . S
C1045 C1049 1.684 . S
C1046 C1027 1.723 . S
C1046 C1045 1.396 . S
C1046 C1047 1.394 . S
C1047 C1043 1.397 . S
C1047 C1046 1.394 . S
C1047 C1057 1.723 . S
C1048 C1045 1.453 . S
C1048 H1072 0.982 . S
C1048 H1073 0.979 . S
C1048 H1074 0.977 . S
C1049 C1045 1.684 . S
C1049 H1075 0.979 . S
C1049 H1076 0.980 . S
C1049 H1077 0.983 . S
C1050 H1026 0.948 . S
C1050 C1051 1.391 . S
C1050 C1055 1.391 . S
C1051 C1050 1.391 . S
C1051 C1052 1.391 . S
C1052 H1029 0.947 . S
C1052 C1051 1.391 . S
C1052 C1053 1.392 . S
C1053 H1030 0.948 . S
C1053 C1052 1.392 . S
C1053 C1054 1.419 . S
C1054 C1053 1.419 . S
C1054 C1055 1.391 . S
C1054 C1058 1.397 . S
C1055 C1050 1.391 . S
C1055 C1054 1.391 . S
C1055 C1056 1.399 . S
C1056 C1055 1.399 . S
C1056 C1057 1.396 . S
C1056 C1059 1.453 . S
C1056 C1060 1.684 . S
C1057 C1047 1.723 . S
C1057 C1056 1.396 . S
C1057 C1058 1.394 . S
C1058 C1028 1.723 . S
C1058 C1054 1.397 . S
C1058 C1057 1.394 . S
C1059 H1031 0.982 . S
C1059 H1035 0.979 . S
C1059 H1036 0.977 . S
C1059 C1056 1.453 . S
C1060 H1032 0.979 . S
C1060 H1033 0.980 . S
C1060 H1034 0.983 . S
C1060 C1056 1.684 . S
H1061 C1079 0.948 . S
H1062 C1020 0.948 . S
H1063 C1038 0.979 . S
H1064 C1038 0.980 . S
H1065 C1038 0.983 . S
H1066 C1037 0.982 . S
H1067 C1037 0.979 . S
H1068 C1037 0.977 . S
H1069 C1039 0.948 . S
H1070 C1041 0.947 . S
H1071 C1042 0.948 . S
H1072 C1048 0.982 . S
H1073 C1048 0.979 . S
H1074 C1048 0.977 . S
H1075 C1049 0.979 . S
H1076 C1049 0.980 . S
H1077 C1049 0.983 . S
H1078 C1022 0.947 . S
C1079 C1022 1.392 . S
C1079 C1023 1.419 . S
C1079 H1061 0.948 . S
Tb1080 N1111 2.660 . S
Tb1080 N1118 2.600 . S
Tb1080 O1124 2.546 . S
Tb1080 O1125 2.610 1_565 S
Tb1080 O1127 2.320 1_565 S
Tb1080 O1128 2.552 1_565 S
Tb1080 O1129 2.413 . S
Tb1080 O1131 2.362 1_556 S
Tb1080 O1132 2.421 . S
Tb1080 C1144 2.833 . S
C1081 C1084 1.432 . S
C1081 C1085 1.414 . S
C1081 N1088 1.359 . S
C1082 C1084 1.417 . S
C1082 C1086 1.432 . S
C1082 C1094 1.410 . S
C1083 C1085 1.444 . S
C1083 C1086 1.317 . S
C1083 H1106 0.929 . S
C1084 C1081 1.432 . S
C1084 C1082 1.417 . S
C1084 N1092 1.360 . S
C1085 C1081 1.414 . S
C1085 C1083 1.444 . S
C1085 C1090 1.385 . S
C1086 C1082 1.432 . S
C1086 C1083 1.317 . S
C1086 H1098 0.930 . S
C1087 C1089 1.392 . S
C1087 C1090 1.370 . S
C1087 H1099 0.931 . S
N1088 C1081 1.359 . S
N1088 C1089 1.327 . S
N1088 Tb1091 2.600 . S
C1089 C1087 1.392 . S
C1089 N1088 1.327 . S
C1089 H1096 0.930 . S
C1090 C1085 1.385 . S
C1090 C1087 1.370 . S
C1090 H1109 0.930 . S
Tb1091 N1088 2.600 . S
Tb1091 N1092 2.660 . S
Tb1091 O1125 2.362 1_554 S
Tb1091 O1126 2.421 . S
Tb1091 O1130 2.546 . S
Tb1091 O1131 2.610 1_545 S
Tb1091 O1133 2.320 1_545 S
Tb1091 O1134 2.552 1_545 S
Tb1091 O1135 2.413 . S
Tb1091 C1155 2.833 . S
N1092 C1084 1.360 . S
N1092 Tb1091 2.660 . S
N1092 C1093 1.305 . S
C1093 N1092 1.305 . S
C1093 C1095 1.407 . S
C1093 H1100 0.930 . S
C1094 C1082 1.410 . S
C1094 C1095 1.345 . S
C1094 H1102 0.930 . S
C1095 C1093 1.407 . S
C1095 C1094 1.345 . S
C1095 H1097 0.930 . S
H1096 C1089 0.930 . S
H1097 C1095 0.930 . S
H1098 C1086 0.930 . S
H1099 C1087 0.931 . S
H1100 C1093 0.930 . S
H1101 C1115 0.930 . S
H1102 C1094 0.930 . S
H1103 C1121 0.930 . S
H1104 C1112 0.930 . S
H1105 C1119 0.931 . S
H1106 C1083 0.929 . S
H1107 C1113 0.930 . S
H1108 C1146 0.930 . S
H1109 C1090 0.930 . S
H1110 C1145 0.929 . S
N1111 Tb1080 2.660 . S
N1111 C1112 1.305 . S
N1111 C1116 1.360 . S
C1112 H1104 0.930 . S
C1112 N1111 1.305 . S
C1112 C1115 1.407 . S
C1113 H1107 0.930 . S
C1113 C1114 1.410 . S
C1113 C1115 1.345 . S
C1114 C1113 1.410 . S
C1114 C1116 1.417 . S
C1114 C1146 1.432 . S
C1115 H1101 0.930 . S
C1115 C1112 1.407 . S
C1115 C1113 1.345 . S
C1116 N1111 1.360 . S
C1116 C1114 1.417 . S
C1116 C1120 1.432 . S
H1117 C1122 0.930 . S
N1118 Tb1080 2.600 . S
N1118 C1120 1.359 . S
N1118 C1121 1.327 . S
C1119 H1105 0.931 . S
C1119 C1121 1.392 . S
C1119 C1122 1.370 . S
C1120 C1116 1.432 . S
C1120 N1118 1.359 . S
C1120 C1123 1.414 . S
C1121 H1103 0.930 . S
C1121 N1118 1.327 . S
C1121 C1119 1.392 . S
C1122 H1117 0.930 . S
C1122 C1119 1.370 . S
C1122 C1123 1.385 . S
C1123 C1120 1.414 . S
C1123 C1122 1.385 . S
C1123 C1145 1.444 . S
O1124 Tb1080 2.546 . S
O1124 C1144 1.251 . S
O1125 Tb1080 2.610 1_545 S
O1125 Tb1091 2.362 1_556 S
O1125 C1136 1.283 . S
O1126 Tb1091 2.421 . S
O1126 C1143 1.262 1_554 S
O1127 Tb1080 2.320 1_545 S
O1127 C1143 1.260 . S
O1128 Tb1080 2.552 1_545 S
O1128 C1136 1.243 . S
O1129 Tb1080 2.413 . S
O1129 C1144 1.256 . S
O1130 Tb1091 2.546 . S
O1130 C1155 1.251 . S
O1131 Tb1080 2.362 1_554 S
O1131 Tb1091 2.610 1_565 S
O1131 C1147 1.283 . S
O1132 Tb1080 2.421 . S
O1132 C1154 1.262 1_556 S
O1133 Tb1091 2.320 1_565 S
O1133 C1154 1.260 . S
O1134 Tb1091 2.552 1_565 S
O1134 C1147 1.243 . S
O1135 Tb1091 2.413 . S
O1135 C1155 1.256 . S
C1136 O1125 1.283 . S
C1136 O1128 1.243 . S
C1137 C1139 1.382 1_565 S
C1137 C1141 1.393 . S
C1137 C1144 1.500 . S
C1138 C1139 1.400 . S
C1138 C1140 1.384 1_545 S
C1139 C1137 1.382 1_545 S
C1139 C1138 1.400 . S
C1139 H1156 0.930 . S
C1140 C1138 1.384 1_565 S
C1140 C1142 1.392 . S
C1140 H1157 0.931 . S
C1141 C1137 1.393 . S
C1141 C1142 1.401 . S
C1141 H1158 0.930 . S
C1142 C1140 1.392 . S
C1142 C1141 1.401 . S
C1142 H1159 0.930 . S
C1143 O1126 1.262 1_556 S
C1143 O1127 1.260 . S
C1144 Tb1080 2.833 . S
C1144 O1124 1.251 . S
C1144 O1129 1.256 . S
C1144 C1137 1.500 . S
C1145 H1110 0.929 . S
C1145 C1123 1.444 . S
C1145 C1146 1.317 . S
C1146 H1108 0.930 . S
C1146 C1114 1.432 . S
C1146 C1145 1.317 . S
C1147 O1131 1.283 . S
C1147 O1134 1.243 . S
C1148 C1149 1.382 1_545 S
C1148 C1152 1.393 . S
C1148 C1155 1.500 . S
C1149 C1148 1.382 1_565 S
C1149 C1150 1.400 . S
C1149 H1160 0.930 . S
C1150 C1149 1.400 . S
C1150 C1151 1.384 1_565 S
C1151 C1150 1.384 1_545 S
C1151 C1153 1.392 . S
C1151 H1161 0.931 . S
C1152 C1148 1.393 . S
C1152 C1153 1.401 . S
C1152 H1162 0.930 . S
C1153 C1151 1.392 . S
C1153 C1152 1.401 . S
C1153 H1163 0.930 . S
C1154 O1132 1.262 1_554 S
C1154 O1133 1.260 . S
C1155 Tb1091 2.833 . S
C1155 O1130 1.251 . S
C1155 O1135 1.256 . S
C1155 C1148 1.500 . S
H1156 C1139 0.930 . S
H1157 C1140 0.931 . S
H1158 C1141 0.930 . S
H1159 C1142 0.930 . S
H1160 C1149 0.930 . S
H1161 C1151 0.931 . S
H1162 C1152 0.930 . S
H1163 C1153 0.930 . S
Tb1164 N1195 2.660 . S
Tb1164 N1202 2.600 . S
Tb1164 O1208 2.546 . S
Tb1164 O1209 2.610 1_455 S
Tb1164 O1211 2.320 1_455 S
Tb1164 O1212 2.552 1_455 S
Tb1164 O1213 2.413 . S
Tb1164 O1215 2.362 1_556 S
Tb1164 O1216 2.421 . S
Tb1164 C1228 2.833 . S
C1165 C1168 1.432 . S
C1165 C1169 1.414 . S
C1165 N1172 1.359 . S
C1166 C1168 1.417 . S
C1166 C1170 1.432 . S
C1166 C1178 1.410 . S
C1167 C1169 1.444 . S
C1167 C1170 1.317 . S
C1167 H1190 0.929 . S
C1168 C1165 1.432 . S
C1168 C1166 1.417 . S
C1168 N1176 1.360 . S
C1169 C1165 1.414 . S
C1169 C1167 1.444 . S
C1169 C1174 1.385 . S
C1170 C1166 1.432 . S
C1170 C1167 1.317 . S
C1170 H1182 0.930 . S
C1171 C1173 1.392 . S
C1171 C1174 1.370 . S
C1171 H1183 0.931 . S
N1172 C1165 1.359 . S
N1172 C1173 1.327 . S
N1172 Tb1175 2.600 . S
C1173 C1171 1.392 . S
C1173 N1172 1.327 . S
C1173 H1180 0.930 . S
C1174 C1169 1.385 . S
C1174 C1171 1.370 . S
C1174 H1193 0.930 . S
Tb1175 N1172 2.600 . S
Tb1175 N1176 2.660 . S
Tb1175 O1209 2.362 1_554 S
Tb1175 O1210 2.421 . S
Tb1175 O1214 2.546 . S
Tb1175 O1215 2.610 1_655 S
Tb1175 O1217 2.320 1_655 S
Tb1175 O1218 2.552 1_655 S
Tb1175 O1219 2.413 . S
Tb1175 C1239 2.833 . S
N1176 C1168 1.360 . S
N1176 Tb1175 2.660 . S
N1176 C1177 1.305 . S
C1177 N1176 1.305 . S
C1177 C1179 1.407 . S
C1177 H1184 0.930 . S
C1178 C1166 1.410 . S
C1178 C1179 1.345 . S
C1178 H1186 0.930 . S
C1179 C1177 1.407 . S
C1179 C1178 1.345 . S
C1179 H1181 0.930 . S
H1180 C1173 0.930 . S
H1181 C1179 0.930 . S
H1182 C1170 0.930 . S
H1183 C1171 0.931 . S
H1184 C1177 0.930 . S
H1185 C1199 0.930 . S
H1186 C1178 0.930 . S
H1187 C1205 0.930 . S
H1188 C1196 0.930 . S
H1189 C1203 0.931 . S
H1190 C1167 0.929 . S
H1191 C1197 0.930 . S
H1192 C1230 0.930 . S
H1193 C1174 0.930 . S
H1194 C1229 0.929 . S
N1195 Tb1164 2.660 . S
N1195 C1196 1.305 . S
N1195 C1200 1.360 . S
C1196 H1188 0.930 . S
C1196 N1195 1.305 . S
C1196 C1199 1.407 . S
C1197 H1191 0.930 . S
C1197 C1198 1.410 . S
C1197 C1199 1.345 . S
C1198 C1197 1.410 . S
C1198 C1200 1.417 . S
C1198 C1230 1.432 . S
C1199 H1185 0.930 . S
C1199 C1196 1.407 . S
C1199 C1197 1.345 . S
C1200 N1195 1.360 . S
C1200 C1198 1.417 . S
C1200 C1204 1.432 . S
H1201 C1206 0.930 . S
N1202 Tb1164 2.600 . S
N1202 C1204 1.359 . S
N1202 C1205 1.327 . S
C1203 H1189 0.931 . S
C1203 C1205 1.392 . S
C1203 C1206 1.370 . S
C1204 C1200 1.432 . S
C1204 N1202 1.359 . S
C1204 C1207 1.414 . S
C1205 H1187 0.930 . S
C1205 N1202 1.327 . S
C1205 C1203 1.392 . S
C1206 H1201 0.930 . S
C1206 C1203 1.370 . S
C1206 C1207 1.385 . S
C1207 C1204 1.414 . S
C1207 C1206 1.385 . S
C1207 C1229 1.444 . S
O1208 Tb1164 2.546 . S
O1208 C1228 1.251 . S
O1209 Tb1164 2.610 1_655 S
O1209 Tb1175 2.362 1_556 S
O1209 C1220 1.283 . S
O1210 Tb1175 2.421 . S
O1210 C1227 1.262 1_554 S
O1211 Tb1164 2.320 1_655 S
O1211 C1227 1.260 . S
O1212 Tb1164 2.552 1_655 S
O1212 C1220 1.243 . S
O1213 Tb1164 2.413 . S
O1213 C1228 1.256 . S
O1214 Tb1175 2.546 . S
O1214 C1239 1.251 . S
O1215 Tb1164 2.362 1_554 S
O1215 Tb1175 2.610 1_455 S
O1215 C1231 1.283 . S
O1216 Tb1164 2.421 . S
O1216 C1238 1.262 1_556 S
O1217 Tb1175 2.320 1_455 S
O1217 C1238 1.260 . S
O1218 Tb1175 2.552 1_455 S
O1218 C1231 1.243 . S
O1219 Tb1175 2.413 . S
O1219 C1239 1.256 . S
C1220 O1209 1.283 . S
C1220 O1212 1.243 . S
C1221 C1223 1.382 1_455 S
C1221 C1225 1.393 . S
C1221 C1228 1.500 . S
C1222 C1223 1.400 . S
C1222 C1224 1.384 1_655 S
C1223 C1221 1.382 1_655 S
C1223 C1222 1.400 . S
C1223 H1240 0.930 . S
C1224 C1222 1.384 1_455 S
C1224 C1226 1.392 . S
C1224 H1241 0.931 . S
C1225 C1221 1.393 . S
C1225 C1226 1.401 . S
C1225 H1242 0.930 . S
C1226 C1224 1.392 . S
C1226 C1225 1.401 . S
C1226 H1243 0.930 . S
C1227 O1210 1.262 1_556 S
C1227 O1211 1.260 . S
C1228 Tb1164 2.833 . S
C1228 O1208 1.251 . S
C1228 O1213 1.256 . S
C1228 C1221 1.500 . S
C1229 H1194 0.929 . S
C1229 C1207 1.444 . S
C1229 C1230 1.317 . S
C1230 H1192 0.930 . S
C1230 C1198 1.432 . S
C1230 C1229 1.317 . S
C1231 O1215 1.283 . S
C1231 O1218 1.243 . S
C1232 C1233 1.382 1_655 S
C1232 C1236 1.393 . S
C1232 C1239 1.500 . S
C1233 C1232 1.382 1_455 S
C1233 C1234 1.400 . S
C1233 H1244 0.930 . S
C1234 C1233 1.400 . S
C1234 C1235 1.384 1_455 S
C1235 C1234 1.384 1_655 S
C1235 C1237 1.392 . S
C1235 H1245 0.931 . S
C1236 C1232 1.393 . S
C1236 C1237 1.401 . S
C1236 H1246 0.930 . S
C1237 C1235 1.392 . S
C1237 C1236 1.401 . S
C1237 H1247 0.930 . S
C1238 O1216 1.262 1_554 S
C1238 O1217 1.260 . S
C1239 Tb1175 2.833 . S
C1239 O1214 1.251 . S
C1239 O1219 1.256 . S
C1239 C1232 1.500 . S
H1240 C1223 0.930 . S
H1241 C1224 0.931 . S
H1242 C1225 0.930 . S
H1243 C1226 0.930 . S
H1244 C1233 0.930 . S
H1245 C1235 0.931 . S
H1246 C1236 0.930 . S
H1247 C1237 0.930 . S
Tb1248 N1279 2.660 . S
Tb1248 N1286 2.600 . S
Tb1248 O1292 2.546 . S
Tb1248 O1293 2.610 . S
Tb1248 O1295 2.320 . S
Tb1248 O1296 2.552 . S
Tb1248 O1297 2.413 . S
Tb1248 O1299 2.362 1_554 S
Tb1248 O1300 2.421 . S
Tb1248 C1312 2.833 . S
C1249 C1252 1.432 . S
C1249 C1253 1.414 . S
C1249 N1256 1.359 . S
C1250 C1252 1.417 . S
C1250 C1254 1.432 . S
C1250 C1262 1.410 . S
C1251 C1253 1.444 . S
C1251 C1254 1.317 . S
C1251 H1274 0.929 . S
C1252 C1249 1.432 . S
C1252 C1250 1.417 . S
C1252 N1260 1.360 . S
C1253 C1249 1.414 . S
C1253 C1251 1.444 . S
C1253 C1258 1.385 . S
C1254 C1250 1.432 . S
C1254 C1251 1.317 . S
C1254 H1266 0.930 . S
C1255 C1257 1.392 . S
C1255 C1258 1.370 . S
C1255 H1267 0.931 . S
N1256 C1249 1.359 . S
N1256 C1257 1.327 . S
N1256 Tb1259 2.600 . S
C1257 C1255 1.392 . S
C1257 N1256 1.327 . S
C1257 H1264 0.930 . S
C1258 C1253 1.385 . S
C1258 C1255 1.370 . S
C1258 H1277 0.930 . S
Tb1259 N1256 2.600 . S
Tb1259 N1260 2.660 . S
Tb1259 O1293 2.362 1_556 S
Tb1259 O1294 2.421 . S
Tb1259 O1298 2.546 . S
Tb1259 O1299 2.610 . S
Tb1259 O1301 2.320 . S
Tb1259 O1302 2.552 . S
Tb1259 O1303 2.413 . S
Tb1259 C1323 2.833 . S
N1260 C1252 1.360 . S
N1260 Tb1259 2.660 . S
N1260 C1261 1.305 . S
C1261 N1260 1.305 . S
C1261 C1263 1.407 . S
C1261 H1268 0.930 . S
C1262 C1250 1.410 . S
C1262 C1263 1.345 . S
C1262 H1270 0.930 . S
C1263 C1261 1.407 . S
C1263 C1262 1.345 . S
C1263 H1265 0.930 . S
H1264 C1257 0.930 . S
H1265 C1263 0.930 . S
H1266 C1254 0.930 . S
H1267 C1255 0.931 . S
H1268 C1261 0.930 . S
H1269 C1283 0.930 . S
H1270 C1262 0.930 . S
H1271 C1289 0.930 . S
H1272 C1280 0.930 . S
H1273 C1287 0.931 . S
H1274 C1251 0.929 . S
H1275 C1281 0.930 . S
H1276 C1314 0.930 . S
H1277 C1258 0.930 . S
H1278 C1313 0.929 . S
N1279 Tb1248 2.660 . S
N1279 C1280 1.305 . S
N1279 C1284 1.360 . S
C1280 H1272 0.930 . S
C1280 N1279 1.305 . S
C1280 C1283 1.407 . S
C1281 H1275 0.930 . S
C1281 C1282 1.410 . S
C1281 C1283 1.345 . S
C1282 C1281 1.410 . S
C1282 C1284 1.417 . S
C1282 C1314 1.432 . S
C1283 H1269 0.930 . S
C1283 C1280 1.407 . S
C1283 C1281 1.345 . S
C1284 N1279 1.360 . S
C1284 C1282 1.417 . S
C1284 C1288 1.432 . S
H1285 C1290 0.930 . S
N1286 Tb1248 2.600 . S
N1286 C1288 1.359 . S
N1286 C1289 1.327 . S
C1287 H1273 0.931 . S
C1287 C1289 1.392 . S
C1287 C1290 1.370 . S
C1288 C1284 1.432 . S
C1288 N1286 1.359 . S
C1288 C1291 1.414 . S
C1289 H1271 0.930 . S
C1289 N1286 1.327 . S
C1289 C1287 1.392 . S
C1290 H1285 0.930 . S
C1290 C1287 1.370 . S
C1290 C1291 1.385 . S
C1291 C1288 1.414 . S
C1291 C1290 1.385 . S
C1291 C1313 1.444 . S
O1292 Tb1248 2.546 . S
O1292 C1312 1.251 . S
O1293 Tb1248 2.610 . S
O1293 Tb1259 2.362 1_554 S
O1293 C1304 1.283 . S
O1294 Tb1259 2.421 . S
O1294 C1311 1.262 1_556 S
O1295 Tb1248 2.320 . S
O1295 C1311 1.260 . S
O1296 Tb1248 2.552 . S
O1296 C1304 1.243 . S
O1297 Tb1248 2.413 . S
O1297 C1312 1.256 . S
O1298 Tb1259 2.546 . S
O1298 C1323 1.251 . S
O1299 Tb1248 2.362 1_556 S
O1299 Tb1259 2.610 . S
O1299 C1315 1.283 . S
O1300 Tb1248 2.421 . S
O1300 C1322 1.262 1_554 S
O1301 Tb1259 2.320 . S
O1301 C1322 1.260 . S
O1302 Tb1259 2.552 . S
O1302 C1315 1.243 . S
O1303 Tb1259 2.413 . S
O1303 C1323 1.256 . S
C1304 O1293 1.283 . S
C1304 O1296 1.243 . S
C1305 C1307 1.382 . S
C1305 C1309 1.393 . S
C1305 C1312 1.500 . S
C1306 C1307 1.400 . S
C1306 C1308 1.384 . S
C1307 C1305 1.382 . S
C1307 C1306 1.400 . S
C1307 H1324 0.930 . S
C1308 C1306 1.384 . S
C1308 C1310 1.392 . S
C1308 H1325 0.931 . S
C1309 C1305 1.393 . S
C1309 C1310 1.401 . S
C1309 H1326 0.930 . S
C1310 C1308 1.392 . S
C1310 C1309 1.401 . S
C1310 H1327 0.930 . S
C1311 O1294 1.262 1_554 S
C1311 O1295 1.260 . S
C1312 Tb1248 2.833 . S
C1312 O1292 1.251 . S
C1312 O1297 1.256 . S
C1312 C1305 1.500 . S
C1313 H1278 0.929 . S
C1313 C1291 1.444 . S
C1313 C1314 1.317 . S
C1314 H1276 0.930 . S
C1314 C1282 1.432 . S
C1314 C1313 1.317 . S
C1315 O1299 1.283 . S
C1315 O1302 1.243 . S
C1316 C1317 1.382 . S
C1316 C1320 1.393 . S
C1316 C1323 1.500 . S
C1317 C1316 1.382 . S
C1317 C1318 1.400 . S
C1317 H1328 0.930 . S
C1318 C1317 1.400 . S
C1318 C1319 1.384 . S
C1319 C1318 1.384 . S
C1319 C1321 1.392 . S
C1319 H1329 0.931 . S
C1320 C1316 1.393 . S
C1320 C1321 1.401 . S
C1320 H1330 0.930 . S
C1321 C1319 1.392 . S
C1321 C1320 1.401 . S
C1321 H1331 0.930 . S
C1322 O1300 1.262 1_556 S
C1322 O1301 1.260 . S
C1323 Tb1259 2.833 . S
C1323 O1298 1.251 . S
C1323 O1303 1.256 . S
C1323 C1316 1.500 . S
H1324 C1307 0.930 . S
H1325 C1308 0.931 . S
H1326 C1309 0.930 . S
H1327 C1310 0.930 . S
H1328 C1317 0.930 . S
H1329 C1319 0.931 . S
H1330 C1320 0.930 . S
H1331 C1321 0.930 . S
Tb1332 N1363 2.660 . S
Tb1332 N1370 2.600 . S
Tb1332 O1376 2.546 . S
Tb1332 O1377 2.610 . S
Tb1332 O1379 2.320 . S
Tb1332 O1380 2.552 . S
Tb1332 O1381 2.413 . S
Tb1332 O1383 2.362 . S
Tb1332 O1384 2.421 . S
Tb1332 C1396 2.833 . S
C1333 C1336 1.432 . S
C1333 C1337 1.414 . S
C1333 N1340 1.359 . S
C1334 C1336 1.417 . S
C1334 C1338 1.432 . S
C1334 C1346 1.410 . S
C1335 C1337 1.444 . S
C1335 C1338 1.317 . S
C1335 H1358 0.929 . S
C1336 C1333 1.432 . S
C1336 C1334 1.417 . S
C1336 N1344 1.360 . S
C1337 C1333 1.414 . S
C1337 C1335 1.444 . S
C1337 C1342 1.385 . S
C1338 C1334 1.432 . S
C1338 C1335 1.317 . S
C1338 H1350 0.930 . S
C1339 C1341 1.392 . S
C1339 C1342 1.370 . S
C1339 H1351 0.931 . S
N1340 C1333 1.359 . S
N1340 C1341 1.327 . S
N1340 Tb1343 2.600 . S
C1341 C1339 1.392 . S
C1341 N1340 1.327 . S
C1341 H1348 0.930 . S
C1342 C1337 1.385 . S
C1342 C1339 1.370 . S
C1342 H1361 0.930 . S
Tb1343 N1340 2.600 . S
Tb1343 N1344 2.660 . S
Tb1343 O1377 2.362 . S
Tb1343 O1378 2.421 . S
Tb1343 O1382 2.546 . S
Tb1343 O1383 2.610 . S
Tb1343 O1385 2.320 . S
Tb1343 O1386 2.552 . S
Tb1343 O1387 2.413 . S
Tb1343 C1407 2.833 . S
N1344 C1336 1.360 . S
N1344 Tb1343 2.660 . S
N1344 C1345 1.305 . S
C1345 N1344 1.305 . S
C1345 C1347 1.407 . S
C1345 H1352 0.930 . S
C1346 C1334 1.410 . S
C1346 C1347 1.345 . S
C1346 H1354 0.930 . S
C1347 C1345 1.407 . S
C1347 C1346 1.345 . S
C1347 H1349 0.930 . S
H1348 C1341 0.930 . S
H1349 C1347 0.930 . S
H1350 C1338 0.930 . S
H1351 C1339 0.931 . S
H1352 C1345 0.930 . S
H1353 C1367 0.930 . S
H1354 C1346 0.930 . S
H1355 C1373 0.930 . S
H1356 C1364 0.930 . S
H1357 C1371 0.931 . S
H1358 C1335 0.929 . S
H1359 C1365 0.930 . S
H1360 C1398 0.930 . S
H1361 C1342 0.930 . S
H1362 C1397 0.929 . S
N1363 Tb1332 2.660 . S
N1363 C1364 1.305 . S
N1363 C1368 1.360 . S
C1364 H1356 0.930 . S
C1364 N1363 1.305 . S
C1364 C1367 1.407 . S
C1365 H1359 0.930 . S
C1365 C1366 1.410 . S
C1365 C1367 1.345 . S
C1366 C1365 1.410 . S
C1366 C1368 1.417 . S
C1366 C1398 1.432 . S
C1367 H1353 0.930 . S
C1367 C1364 1.407 . S
C1367 C1365 1.345 . S
C1368 N1363 1.360 . S
C1368 C1366 1.417 . S
C1368 C1372 1.432 . S
H1369 C1374 0.930 . S
N1370 Tb1332 2.600 . S
N1370 C1372 1.359 . S
N1370 C1373 1.327 . S
C1371 H1357 0.931 . S
C1371 C1373 1.392 . S
C1371 C1374 1.370 . S
C1372 C1368 1.432 . S
C1372 N1370 1.359 . S
C1372 C1375 1.414 . S
C1373 H1355 0.930 . S
C1373 N1370 1.327 . S
C1373 C1371 1.392 . S
C1374 H1369 0.930 . S
C1374 C1371 1.370 . S
C1374 C1375 1.385 . S
C1375 C1372 1.414 . S
C1375 C1374 1.385 . S
C1375 C1397 1.444 . S
O1376 Tb1332 2.546 . S
O1376 C1396 1.251 . S
O1377 Tb1332 2.610 . S
O1377 Tb1343 2.362 . S
O1377 C1388 1.283 . S
O1378 Tb1343 2.421 . S
O1378 C1395 1.262 . S
O1379 Tb1332 2.320 . S
O1379 C1395 1.260 . S
O1380 Tb1332 2.552 . S
O1380 C1388 1.243 . S
O1381 Tb1332 2.413 . S
O1381 C1396 1.256 . S
O1382 Tb1343 2.546 . S
O1382 C1407 1.251 . S
O1383 Tb1332 2.362 . S
O1383 Tb1343 2.610 . S
O1383 C1399 1.283 . S
O1384 Tb1332 2.421 . S
O1384 C1406 1.262 . S
O1385 Tb1343 2.320 . S
O1385 C1406 1.260 . S
O1386 Tb1343 2.552 . S
O1386 C1399 1.243 . S
O1387 Tb1343 2.413 . S
O1387 C1407 1.256 . S
C1388 O1377 1.283 . S
C1388 O1380 1.243 . S
C1389 C1391 1.382 . S
C1389 C1393 1.393 . S
C1389 C1396 1.500 . S
C1390 C1391 1.400 . S
C1390 C1392 1.384 . S
C1391 C1389 1.382 . S
C1391 C1390 1.400 . S
C1391 H1408 0.930 . S
C1392 C1390 1.384 . S
C1392 C1394 1.392 . S
C1392 H1409 0.931 . S
C1393 C1389 1.393 . S
C1393 C1394 1.401 . S
C1393 H1410 0.930 . S
C1394 C1392 1.392 . S
C1394 C1393 1.401 . S
C1394 H1411 0.930 . S
C1395 O1378 1.262 . S
C1395 O1379 1.260 . S
C1396 Tb1332 2.833 . S
C1396 O1376 1.251 . S
C1396 O1381 1.256 . S
C1396 C1389 1.500 . S
C1397 H1362 0.929 . S
C1397 C1375 1.444 . S
C1397 C1398 1.317 . S
C1398 H1360 0.930 . S
C1398 C1366 1.432 . S
C1398 C1397 1.317 . S
C1399 O1383 1.283 . S
C1399 O1386 1.243 . S
C1400 C1401 1.382 . S
C1400 C1404 1.393 . S
C1400 C1407 1.500 . S
C1401 C1400 1.382 . S
C1401 C1402 1.400 . S
C1401 H1412 0.930 . S
C1402 C1401 1.400 . S
C1402 C1403 1.384 . S
C1403 C1402 1.384 . S
C1403 C1405 1.392 . S
C1403 H1413 0.931 . S
C1404 C1400 1.393 . S
C1404 C1405 1.401 . S
C1404 H1414 0.930 . S
C1405 C1403 1.392 . S
C1405 C1404 1.401 . S
C1405 H1415 0.930 . S
C1406 O1384 1.262 . S
C1406 O1385 1.260 . S
C1407 Tb1343 2.833 . S
C1407 O1382 1.251 . S
C1407 O1387 1.256 . S
C1407 C1400 1.500 . S
H1408 C1391 0.930 . S
H1409 C1392 0.931 . S
H1410 C1393 0.930 . S
H1411 C1394 0.930 . S
H1412 C1401 0.930 . S
H1413 C1403 0.931 . S
H1414 C1404 0.930 . S
H1415 C1405 0.930 . S
Tb1416 N1447 2.660 . S
Tb1416 N1454 2.600 . S
Tb1416 O1460 2.546 . S
Tb1416 O1461 2.610 . S
Tb1416 O1463 2.320 . S
Tb1416 O1464 2.552 . S
Tb1416 O1465 2.413 . S
Tb1416 O1467 2.362 . S
Tb1416 O1468 2.421 . S
Tb1416 C1480 2.833 . S
C1417 C1420 1.432 . S
C1417 C1421 1.414 . S
C1417 N1424 1.359 . S
C1418 C1420 1.417 . S
C1418 C1422 1.432 . S
C1418 C1430 1.410 . S
C1419 C1421 1.444 . S
C1419 C1422 1.317 . S
C1419 H1442 0.929 . S
C1420 C1417 1.432 . S
C1420 C1418 1.417 . S
C1420 N1428 1.360 . S
C1421 C1417 1.414 . S
C1421 C1419 1.444 . S
C1421 C1426 1.385 . S
C1422 C1418 1.432 . S
C1422 C1419 1.317 . S
C1422 H1434 0.930 . S
C1423 C1425 1.392 . S
C1423 C1426 1.370 . S
C1423 H1435 0.931 . S
N1424 C1417 1.359 . S
N1424 C1425 1.327 . S
N1424 Tb1427 2.600 . S
C1425 C1423 1.392 . S
C1425 N1424 1.327 . S
C1425 H1432 0.930 . S
C1426 C1421 1.385 . S
C1426 C1423 1.370 . S
C1426 H1445 0.930 . S
Tb1427 N1424 2.600 . S
Tb1427 N1428 2.660 . S
Tb1427 O1461 2.362 . S
Tb1427 O1462 2.421 . S
Tb1427 O1466 2.546 . S
Tb1427 O1467 2.610 . S
Tb1427 O1469 2.320 . S
Tb1427 O1470 2.552 . S
Tb1427 O1471 2.413 . S
Tb1427 C1491 2.833 . S
N1428 C1420 1.360 . S
N1428 Tb1427 2.660 . S
N1428 C1429 1.305 . S
C1429 N1428 1.305 . S
C1429 C1431 1.407 . S
C1429 H1436 0.930 . S
C1430 C1418 1.410 . S
C1430 C1431 1.345 . S
C1430 H1438 0.930 . S
C1431 C1429 1.407 . S
C1431 C1430 1.345 . S
C1431 H1433 0.930 . S
H1432 C1425 0.930 . S
H1433 C1431 0.930 . S
H1434 C1422 0.930 . S
H1435 C1423 0.931 . S
H1436 C1429 0.930 . S
H1437 C1451 0.930 . S
H1438 C1430 0.930 . S
H1439 C1457 0.930 . S
H1440 C1448 0.930 . S
H1441 C1455 0.931 . S
H1442 C1419 0.929 . S
H1443 C1449 0.930 . S
H1444 C1482 0.930 . S
H1445 C1426 0.930 . S
H1446 C1481 0.929 . S
N1447 Tb1416 2.660 . S
N1447 C1448 1.305 . S
N1447 C1452 1.360 . S
C1448 H1440 0.930 . S
C1448 N1447 1.305 . S
C1448 C1451 1.407 . S
C1449 H1443 0.930 . S
C1449 C1450 1.410 . S
C1449 C1451 1.345 . S
C1450 C1449 1.410 . S
C1450 C1452 1.417 . S
C1450 C1482 1.432 . S
C1451 H1437 0.930 . S
C1451 C1448 1.407 . S
C1451 C1449 1.345 . S
C1452 N1447 1.360 . S
C1452 C1450 1.417 . S
C1452 C1456 1.432 . S
H1453 C1458 0.930 . S
N1454 Tb1416 2.600 . S
N1454 C1456 1.359 . S
N1454 C1457 1.327 . S
C1455 H1441 0.931 . S
C1455 C1457 1.392 . S
C1455 C1458 1.370 . S
C1456 C1452 1.432 . S
C1456 N1454 1.359 . S
C1456 C1459 1.414 . S
C1457 H1439 0.930 . S
C1457 N1454 1.327 . S
C1457 C1455 1.392 . S
C1458 H1453 0.930 . S
C1458 C1455 1.370 . S
C1458 C1459 1.385 . S
C1459 C1456 1.414 . S
C1459 C1458 1.385 . S
C1459 C1481 1.444 . S
O1460 Tb1416 2.546 . S
O1460 C1480 1.251 . S
O1461 Tb1416 2.610 . S
O1461 Tb1427 2.362 . S
O1461 C1472 1.283 . S
O1462 Tb1427 2.421 . S
O1462 C1479 1.262 . S
O1463 Tb1416 2.320 . S
O1463 C1479 1.260 . S
O1464 Tb1416 2.552 . S
O1464 C1472 1.243 . S
O1465 Tb1416 2.413 . S
O1465 C1480 1.256 . S
O1466 Tb1427 2.546 . S
O1466 C1491 1.251 . S
O1467 Tb1416 2.362 . S
O1467 Tb1427 2.610 . S
O1467 C1483 1.283 . S
O1468 Tb1416 2.421 . S
O1468 C1490 1.262 . S
O1469 Tb1427 2.320 . S
O1469 C1490 1.260 . S
O1470 Tb1427 2.552 . S
O1470 C1483 1.243 . S
O1471 Tb1427 2.413 . S
O1471 C1491 1.256 . S
C1472 O1461 1.283 . S
C1472 O1464 1.243 . S
C1473 C1475 1.382 . S
C1473 C1477 1.393 . S
C1473 C1480 1.500 . S
C1474 C1475 1.400 . S
C1474 C1476 1.384 . S
C1475 C1473 1.382 . S
C1475 C1474 1.400 . S
C1475 H1492 0.930 . S
C1476 C1474 1.384 . S
C1476 C1478 1.392 . S
C1476 H1493 0.931 . S
C1477 C1473 1.393 . S
C1477 C1478 1.401 . S
C1477 H1494 0.930 . S
C1478 C1476 1.392 . S
C1478 C1477 1.401 . S
C1478 H1495 0.930 . S
C1479 O1462 1.262 . S
C1479 O1463 1.260 . S
C1480 Tb1416 2.833 . S
C1480 O1460 1.251 . S
C1480 O1465 1.256 . S
C1480 C1473 1.500 . S
C1481 H1446 0.929 . S
C1481 C1459 1.444 . S
C1481 C1482 1.317 . S
C1482 H1444 0.930 . S
C1482 C1450 1.432 . S
C1482 C1481 1.317 . S
C1483 O1467 1.283 . S
C1483 O1470 1.243 . S
C1484 C1485 1.382 . S
C1484 C1488 1.393 . S
C1484 C1491 1.500 . S
C1485 C1484 1.382 . S
C1485 C1486 1.400 . S
C1485 H1496 0.930 . S
C1486 C1485 1.400 . S
C1486 C1487 1.384 . S
C1487 C1486 1.384 . S
C1487 C1489 1.392 . S
C1487 H1497 0.931 . S
C1488 C1484 1.393 . S
C1488 C1489 1.401 . S
C1488 H1498 0.930 . S
C1489 C1487 1.392 . S
C1489 C1488 1.401 . S
C1489 H1499 0.930 . S
C1490 O1468 1.262 . S
C1490 O1469 1.260 . S
C1491 Tb1427 2.833 . S
C1491 O1466 1.251 . S
C1491 O1471 1.256 . S
C1491 C1484 1.500 . S
H1492 C1475 0.930 . S
H1493 C1476 0.931 . S
H1494 C1477 0.930 . S
H1495 C1478 0.930 . S
H1496 C1485 0.930 . S
H1497 C1487 0.931 . S
H1498 C1488 0.930 . S
H1499 C1489 0.930 . S
Tb1500 N1531 2.660 . S
Tb1500 N1538 2.600 . S
Tb1500 O1544 2.546 . S
Tb1500 O1545 2.610 . S
Tb1500 O1547 2.320 . S
Tb1500 O1548 2.552 . S
Tb1500 O1549 2.413 . S
Tb1500 O1551 2.362 . S
Tb1500 O1552 2.421 . S
Tb1500 C1564 2.833 . S
C1501 C1504 1.432 . S
C1501 C1505 1.414 . S
C1501 N1508 1.359 . S
C1502 C1504 1.417 . S
C1502 C1506 1.432 . S
C1502 C1514 1.410 . S
C1503 C1505 1.444 . S
C1503 C1506 1.317 . S
C1503 H1526 0.929 . S
C1504 C1501 1.432 . S
C1504 C1502 1.417 . S
C1504 N1512 1.360 . S
C1505 C1501 1.414 . S
C1505 C1503 1.444 . S
C1505 C1510 1.385 . S
C1506 C1502 1.432 . S
C1506 C1503 1.317 . S
C1506 H1518 0.930 . S
C1507 C1509 1.392 . S
C1507 C1510 1.370 . S
C1507 H1519 0.931 . S
N1508 C1501 1.359 . S
N1508 C1509 1.327 . S
N1508 Tb1511 2.600 . S
C1509 C1507 1.392 . S
C1509 N1508 1.327 . S
C1509 H1516 0.930 . S
C1510 C1505 1.385 . S
C1510 C1507 1.370 . S
C1510 H1529 0.930 . S
Tb1511 N1508 2.600 . S
Tb1511 N1512 2.660 . S
Tb1511 O1545 2.362 . S
Tb1511 O1546 2.421 . S
Tb1511 O1550 2.546 . S
Tb1511 O1551 2.610 . S
Tb1511 O1553 2.320 . S
Tb1511 O1554 2.552 . S
Tb1511 O1555 2.413 . S
Tb1511 C1575 2.833 . S
N1512 C1504 1.360 . S
N1512 Tb1511 2.660 . S
N1512 C1513 1.305 . S
C1513 N1512 1.305 . S
C1513 C1515 1.407 . S
C1513 H1520 0.930 . S
C1514 C1502 1.410 . S
C1514 C1515 1.345 . S
C1514 H1522 0.930 . S
C1515 C1513 1.407 . S
C1515 C1514 1.345 . S
C1515 H1517 0.930 . S
H1516 C1509 0.930 . S
H1517 C1515 0.930 . S
H1518 C1506 0.930 . S
H1519 C1507 0.931 . S
H1520 C1513 0.930 . S
H1521 C1535 0.930 . S
H1522 C1514 0.930 . S
H1523 C1541 0.930 . S
H1524 C1532 0.930 . S
H1525 C1539 0.931 . S
H1526 C1503 0.929 . S
H1527 C1533 0.930 . S
H1528 C1566 0.930 . S
H1529 C1510 0.930 . S
H1530 C1565 0.929 . S
N1531 Tb1500 2.660 . S
N1531 C1532 1.305 . S
N1531 C1536 1.360 . S
C1532 H1524 0.930 . S
C1532 N1531 1.305 . S
C1532 C1535 1.407 . S
C1533 H1527 0.930 . S
C1533 C1534 1.410 . S
C1533 C1535 1.345 . S
C1534 C1533 1.410 . S
C1534 C1536 1.417 . S
C1534 C1566 1.432 . S
C1535 H1521 0.930 . S
C1535 C1532 1.407 . S
C1535 C1533 1.345 . S
C1536 N1531 1.360 . S
C1536 C1534 1.417 . S
C1536 C1540 1.432 . S
H1537 C1542 0.930 . S
N1538 Tb1500 2.600 . S
N1538 C1540 1.359 . S
N1538 C1541 1.327 . S
C1539 H1525 0.931 . S
C1539 C1541 1.392 . S
C1539 C1542 1.370 . S
C1540 C1536 1.432 . S
C1540 N1538 1.359 . S
C1540 C1543 1.414 . S
C1541 H1523 0.930 . S
C1541 N1538 1.327 . S
C1541 C1539 1.392 . S
C1542 H1537 0.930 . S
C1542 C1539 1.370 . S
C1542 C1543 1.385 . S
C1543 C1540 1.414 . S
C1543 C1542 1.385 . S
C1543 C1565 1.444 . S
O1544 Tb1500 2.546 . S
O1544 C1564 1.251 . S
O1545 Tb1500 2.610 . S
O1545 Tb1511 2.362 . S
O1545 C1556 1.283 . S
O1546 Tb1511 2.421 . S
O1546 C1563 1.262 . S
O1547 Tb1500 2.320 . S
O1547 C1563 1.260 . S
O1548 Tb1500 2.552 . S
O1548 C1556 1.243 . S
O1549 Tb1500 2.413 . S
O1549 C1564 1.256 . S
O1550 Tb1511 2.546 . S
O1550 C1575 1.251 . S
O1551 Tb1500 2.362 . S
O1551 Tb1511 2.610 . S
O1551 C1567 1.283 . S
O1552 Tb1500 2.421 . S
O1552 C1574 1.262 . S
O1553 Tb1511 2.320 . S
O1553 C1574 1.260 . S
O1554 Tb1511 2.552 . S
O1554 C1567 1.243 . S
O1555 Tb1511 2.413 . S
O1555 C1575 1.256 . S
C1556 O1545 1.283 . S
C1556 O1548 1.243 . S
C1557 C1559 1.382 . S
C1557 C1561 1.393 . S
C1557 C1564 1.500 . S
C1558 C1559 1.400 . S
C1558 C1560 1.384 . S
C1559 C1557 1.382 . S
C1559 C1558 1.400 . S
C1559 H1576 0.930 . S
C1560 C1558 1.384 . S
C1560 C1562 1.392 . S
C1560 H1577 0.931 . S
C1561 C1557 1.393 . S
C1561 C1562 1.401 . S
C1561 H1578 0.930 . S
C1562 C1560 1.392 . S
C1562 C1561 1.401 . S
C1562 H1579 0.930 . S
C1563 O1546 1.262 . S
C1563 O1547 1.260 . S
C1564 Tb1500 2.833 . S
C1564 O1544 1.251 . S
C1564 O1549 1.256 . S
C1564 C1557 1.500 . S
C1565 H1530 0.929 . S
C1565 C1543 1.444 . S
C1565 C1566 1.317 . S
C1566 H1528 0.930 . S
C1566 C1534 1.432 . S
C1566 C1565 1.317 . S
C1567 O1551 1.283 . S
C1567 O1554 1.243 . S
C1568 C1569 1.382 . S
C1568 C1572 1.393 . S
C1568 C1575 1.500 . S
C1569 C1568 1.382 . S
C1569 C1570 1.400 . S
C1569 H1580 0.930 . S
C1570 C1569 1.400 . S
C1570 C1571 1.384 . S
C1571 C1570 1.384 . S
C1571 C1573 1.392 . S
C1571 H1581 0.931 . S
C1572 C1568 1.393 . S
C1572 C1573 1.401 . S
C1572 H1582 0.930 . S
C1573 C1571 1.392 . S
C1573 C1572 1.401 . S
C1573 H1583 0.930 . S
C1574 O1552 1.262 . S
C1574 O1553 1.260 . S
C1575 Tb1511 2.833 . S
C1575 O1550 1.251 . S
C1575 O1555 1.256 . S
C1575 C1568 1.500 . S
H1576 C1559 0.930 . S
H1577 C1560 0.931 . S
H1578 C1561 0.930 . S
H1579 C1562 0.930 . S
H1580 C1569 0.930 . S
H1581 C1571 0.931 . S
H1582 C1572 0.930 . S
H1583 C1573 0.930 . S
Tb1584 N1615 2.660 . S
Tb1584 N1622 2.600 . S
Tb1584 O1628 2.546 . S
Tb1584 O1629 2.610 . S
Tb1584 O1631 2.320 . S
Tb1584 O1632 2.552 . S
Tb1584 O1633 2.413 . S
Tb1584 O1635 2.362 . S
Tb1584 O1636 2.421 . S
Tb1584 C1648 2.833 . S
C1585 C1588 1.432 . S
C1585 C1589 1.414 . S
C1585 N1592 1.359 . S
C1586 C1588 1.417 . S
C1586 C1590 1.432 . S
C1586 C1598 1.410 . S
C1587 C1589 1.444 . S
C1587 C1590 1.317 . S
C1587 H1610 0.929 . S
C1588 C1585 1.432 . S
C1588 C1586 1.417 . S
C1588 N1596 1.360 . S
C1589 C1585 1.414 . S
C1589 C1587 1.444 . S
C1589 C1594 1.385 . S
C1590 C1586 1.432 . S
C1590 C1587 1.317 . S
C1590 H1602 0.930 . S
C1591 C1593 1.392 . S
C1591 C1594 1.370 . S
C1591 H1603 0.931 . S
N1592 C1585 1.359 . S
N1592 C1593 1.327 . S
N1592 Tb1595 2.600 . S
C1593 C1591 1.392 . S
C1593 N1592 1.327 . S
C1593 H1600 0.930 . S
C1594 C1589 1.385 . S
C1594 C1591 1.370 . S
C1594 H1613 0.930 . S
Tb1595 N1592 2.600 . S
Tb1595 N1596 2.660 . S
Tb1595 O1629 2.362 . S
Tb1595 O1630 2.421 . S
Tb1595 O1634 2.546 . S
Tb1595 O1635 2.610 . S
Tb1595 O1637 2.320 . S
Tb1595 O1638 2.552 . S
Tb1595 O1639 2.413 . S
Tb1595 C1659 2.833 . S
N1596 C1588 1.360 . S
N1596 Tb1595 2.660 . S
N1596 C1597 1.305 . S
C1597 N1596 1.305 . S
C1597 C1599 1.407 . S
C1597 H1604 0.930 . S
C1598 C1586 1.410 . S
C1598 C1599 1.345 . S
C1598 H1606 0.930 . S
C1599 C1597 1.407 . S
C1599 C1598 1.345 . S
C1599 H1601 0.930 . S
H1600 C1593 0.930 . S
H1601 C1599 0.930 . S
H1602 C1590 0.930 . S
H1603 C1591 0.931 . S
H1604 C1597 0.930 . S
H1605 C1619 0.930 . S
H1606 C1598 0.930 . S
H1607 C1625 0.930 . S
H1608 C1616 0.930 . S
H1609 C1623 0.931 . S
H1610 C1587 0.929 . S
H1611 C1617 0.930 . S
H1612 C1650 0.930 . S
H1613 C1594 0.930 . S
H1614 C1649 0.929 . S
N1615 Tb1584 2.660 . S
N1615 C1616 1.305 . S
N1615 C1620 1.360 . S
C1616 H1608 0.930 . S
C1616 N1615 1.305 . S
C1616 C1619 1.407 . S
C1617 H1611 0.930 . S
C1617 C1618 1.410 . S
C1617 C1619 1.345 . S
C1618 C1617 1.410 . S
C1618 C1620 1.417 . S
C1618 C1650 1.432 . S
C1619 H1605 0.930 . S
C1619 C1616 1.407 . S
C1619 C1617 1.345 . S
C1620 N1615 1.360 . S
C1620 C1618 1.417 . S
C1620 C1624 1.432 . S
H1621 C1626 0.930 . S
N1622 Tb1584 2.600 . S
N1622 C1624 1.359 . S
N1622 C1625 1.327 . S
C1623 H1609 0.931 . S
C1623 C1625 1.392 . S
C1623 C1626 1.370 . S
C1624 C1620 1.432 . S
C1624 N1622 1.359 . S
C1624 C1627 1.414 . S
C1625 H1607 0.930 . S
C1625 N1622 1.327 . S
C1625 C1623 1.392 . S
C1626 H1621 0.930 . S
C1626 C1623 1.370 . S
C1626 C1627 1.385 . S
C1627 C1624 1.414 . S
C1627 C1626 1.385 . S
C1627 C1649 1.444 . S
O1628 Tb1584 2.546 . S
O1628 C1648 1.251 . S
O1629 Tb1584 2.610 . S
O1629 Tb1595 2.362 . S
O1629 C1640 1.283 . S
O1630 Tb1595 2.421 . S
O1630 C1647 1.262 . S
O1631 Tb1584 2.320 . S
O1631 C1647 1.260 . S
O1632 Tb1584 2.552 . S
O1632 C1640 1.243 . S
O1633 Tb1584 2.413 . S
O1633 C1648 1.256 . S
O1634 Tb1595 2.546 . S
O1634 C1659 1.251 . S
O1635 Tb1584 2.362 . S
O1635 Tb1595 2.610 . S
O1635 C1651 1.283 . S
O1636 Tb1584 2.421 . S
O1636 C1658 1.262 . S
O1637 Tb1595 2.320 . S
O1637 C1658 1.260 . S
O1638 Tb1595 2.552 . S
O1638 C1651 1.243 . S
O1639 Tb1595 2.413 . S
O1639 C1659 1.256 . S
C1640 O1629 1.283 . S
C1640 O1632 1.243 . S
C1641 C1643 1.382 . S
C1641 C1645 1.393 . S
C1641 C1648 1.500 . S
C1642 C1643 1.400 . S
C1642 C1644 1.384 . S
C1643 C1641 1.382 . S
C1643 C1642 1.400 . S
C1643 H1660 0.930 . S
C1644 C1642 1.384 . S
C1644 C1646 1.392 . S
C1644 H1661 0.931 . S
C1645 C1641 1.393 . S
C1645 C1646 1.401 . S
C1645 H1662 0.930 . S
C1646 C1644 1.392 . S
C1646 C1645 1.401 . S
C1646 H1663 0.930 . S
C1647 O1630 1.262 . S
C1647 O1631 1.260 . S
C1648 Tb1584 2.833 . S
C1648 O1628 1.251 . S
C1648 O1633 1.256 . S
C1648 C1641 1.500 . S
C1649 H1614 0.929 . S
C1649 C1627 1.444 . S
C1649 C1650 1.317 . S
C1650 H1612 0.930 . S
C1650 C1618 1.432 . S
C1650 C1649 1.317 . S
C1651 O1635 1.283 . S
C1651 O1638 1.243 . S
C1652 C1653 1.382 . S
C1652 C1656 1.393 . S
C1652 C1659 1.500 . S
C1653 C1652 1.382 . S
C1653 C1654 1.400 . S
C1653 H1664 0.930 . S
C1654 C1653 1.400 . S
C1654 C1655 1.384 . S
C1655 C1654 1.384 . S
C1655 C1657 1.392 . S
C1655 H1665 0.931 . S
C1656 C1652 1.393 . S
C1656 C1657 1.401 . S
C1656 H1666 0.930 . S
C1657 C1655 1.392 . S
C1657 C1656 1.401 . S
C1657 H1667 0.930 . S
C1658 O1636 1.262 . S
C1658 O1637 1.260 . S
C1659 Tb1595 2.833 . S
C1659 O1634 1.251 . S
C1659 O1639 1.256 . S
C1659 C1652 1.500 . S
H1660 C1643 0.930 . S
H1661 C1644 0.931 . S
H1662 C1645 0.930 . S
H1663 C1646 0.930 . S
H1664 C1653 0.930 . S
H1665 C1655 0.931 . S
H1666 C1656 0.930 . S
H1667 C1657 0.930 . S
Tb1668 N1699 2.660 . S
Tb1668 N1706 2.600 . S
Tb1668 O1712 2.546 . S
Tb1668 O1713 2.610 . S
Tb1668 O1715 2.320 . S
Tb1668 O1716 2.552 . S
Tb1668 O1717 2.413 . S
Tb1668 O1719 2.362 . S
Tb1668 O1720 2.421 . S
Tb1668 C1732 2.833 . S
C1669 C1672 1.432 . S
C1669 C1673 1.414 . S
C1669 N1676 1.359 . S
C1670 C1672 1.417 . S
C1670 C1674 1.432 . S
C1670 C1682 1.410 . S
C1671 C1673 1.444 . S
C1671 C1674 1.317 . S
C1671 H1694 0.929 . S
C1672 C1669 1.432 . S
C1672 C1670 1.417 . S
C1672 N1680 1.360 . S
C1673 C1669 1.414 . S
C1673 C1671 1.444 . S
C1673 C1678 1.385 . S
C1674 C1670 1.432 . S
C1674 C1671 1.317 . S
C1674 H1686 0.930 . S
C1675 C1677 1.392 . S
C1675 C1678 1.370 . S
C1675 H1687 0.931 . S
N1676 C1669 1.359 . S
N1676 C1677 1.327 . S
N1676 Tb1679 2.600 . S
C1677 C1675 1.392 . S
C1677 N1676 1.327 . S
C1677 H1684 0.930 . S
C1678 C1673 1.385 . S
C1678 C1675 1.370 . S
C1678 H1697 0.930 . S
Tb1679 N1676 2.600 . S
Tb1679 N1680 2.660 . S
Tb1679 O1713 2.362 . S
Tb1679 O1714 2.421 . S
Tb1679 O1718 2.546 . S
Tb1679 O1719 2.610 . S
Tb1679 O1721 2.320 . S
Tb1679 O1722 2.552 . S
Tb1679 O1723 2.413 . S
Tb1679 C1743 2.833 . S
N1680 C1672 1.360 . S
N1680 Tb1679 2.660 . S
N1680 C1681 1.305 . S
C1681 N1680 1.305 . S
C1681 C1683 1.407 . S
C1681 H1688 0.930 . S
C1682 C1670 1.410 . S
C1682 C1683 1.345 . S
C1682 H1690 0.930 . S
C1683 C1681 1.407 . S
C1683 C1682 1.345 . S
C1683 H1685 0.930 . S
H1684 C1677 0.930 . S
H1685 C1683 0.930 . S
H1686 C1674 0.930 . S
H1687 C1675 0.931 . S
H1688 C1681 0.930 . S
H1689 C1703 0.930 . S
H1690 C1682 0.930 . S
H1691 C1709 0.930 . S
H1692 C1700 0.930 . S
H1693 C1707 0.931 . S
H1694 C1671 0.929 . S
H1695 C1701 0.930 . S
H1696 C1734 0.930 . S
H1697 C1678 0.930 . S
H1698 C1733 0.929 . S
N1699 Tb1668 2.660 . S
N1699 C1700 1.305 . S
N1699 C1704 1.360 . S
C1700 H1692 0.930 . S
C1700 N1699 1.305 . S
C1700 C1703 1.407 . S
C1701 H1695 0.930 . S
C1701 C1702 1.410 . S
C1701 C1703 1.345 . S
C1702 C1701 1.410 . S
C1702 C1704 1.417 . S
C1702 C1734 1.432 . S
C1703 H1689 0.930 . S
C1703 C1700 1.407 . S
C1703 C1701 1.345 . S
C1704 N1699 1.360 . S
C1704 C1702 1.417 . S
C1704 C1708 1.432 . S
H1705 C1710 0.930 . S
N1706 Tb1668 2.600 . S
N1706 C1708 1.359 . S
N1706 C1709 1.327 . S
C1707 H1693 0.931 . S
C1707 C1709 1.392 . S
C1707 C1710 1.370 . S
C1708 C1704 1.432 . S
C1708 N1706 1.359 . S
C1708 C1711 1.414 . S
C1709 H1691 0.930 . S
C1709 N1706 1.327 . S
C1709 C1707 1.392 . S
C1710 H1705 0.930 . S
C1710 C1707 1.370 . S
C1710 C1711 1.385 . S
C1711 C1708 1.414 . S
C1711 C1710 1.385 . S
C1711 C1733 1.444 . S
O1712 Tb1668 2.546 . S
O1712 C1732 1.251 . S
O1713 Tb1668 2.610 . S
O1713 Tb1679 2.362 . S
O1713 C1724 1.283 . S
O1714 Tb1679 2.421 . S
O1714 C1731 1.262 . S
O1715 Tb1668 2.320 . S
O1715 C1731 1.260 . S
O1716 Tb1668 2.552 . S
O1716 C1724 1.243 . S
O1717 Tb1668 2.413 . S
O1717 C1732 1.256 . S
O1718 Tb1679 2.546 . S
O1718 C1743 1.251 . S
O1719 Tb1668 2.362 . S
O1719 Tb1679 2.610 . S
O1719 C1735 1.283 . S
O1720 Tb1668 2.421 . S
O1720 C1742 1.262 . S
O1721 Tb1679 2.320 . S
O1721 C1742 1.260 . S
O1722 Tb1679 2.552 . S
O1722 C1735 1.243 . S
O1723 Tb1679 2.413 . S
O1723 C1743 1.256 . S
C1724 O1713 1.283 . S
C1724 O1716 1.243 . S
C1725 C1727 1.382 . S
C1725 C1729 1.393 . S
C1725 C1732 1.500 . S
C1726 C1727 1.400 . S
C1726 C1728 1.384 . S
C1727 C1725 1.382 . S
C1727 C1726 1.400 . S
C1727 H1744 0.930 . S
C1728 C1726 1.384 . S
C1728 C1730 1.392 . S
C1728 H1745 0.931 . S
C1729 C1725 1.393 . S
C1729 C1730 1.401 . S
C1729 H1746 0.930 . S
C1730 C1728 1.392 . S
C1730 C1729 1.401 . S
C1730 H1747 0.930 . S
C1731 O1714 1.262 . S
C1731 O1715 1.260 . S
C1732 Tb1668 2.833 . S
C1732 O1712 1.251 . S
C1732 O1717 1.256 . S
C1732 C1725 1.500 . S
C1733 H1698 0.929 . S
C1733 C1711 1.444 . S
C1733 C1734 1.317 . S
C1734 H1696 0.930 . S
C1734 C1702 1.432 . S
C1734 C1733 1.317 . S
C1735 O1719 1.283 . S
C1735 O1722 1.243 . S
C1736 C1737 1.382 . S
C1736 C1740 1.393 . S
C1736 C1743 1.500 . S
C1737 C1736 1.382 . S
C1737 C1738 1.400 . S
C1737 H1748 0.930 . S
C1738 C1737 1.400 . S
C1738 C1739 1.384 . S
C1739 C1738 1.384 . S
C1739 C1741 1.392 . S
C1739 H1749 0.931 . S
C1740 C1736 1.393 . S
C1740 C1741 1.401 . S
C1740 H1750 0.930 . S
C1741 C1739 1.392 . S
C1741 C1740 1.401 . S
C1741 H1751 0.930 . S
C1742 O1720 1.262 . S
C1742 O1721 1.260 . S
C1743 Tb1679 2.833 . S
C1743 O1718 1.251 . S
C1743 O1723 1.256 . S
C1743 C1736 1.500 . S
H1744 C1727 0.930 . S
H1745 C1728 0.931 . S
H1746 C1729 0.930 . S
H1747 C1730 0.930 . S
H1748 C1737 0.930 . S
H1749 C1739 0.931 . S
H1750 C1740 0.930 . S
H1751 C1741 0.930 . S
Tb1752 N1783 2.660 . S
Tb1752 N1790 2.600 . S
Tb1752 O1796 2.546 . S
Tb1752 O1797 2.610 . S
Tb1752 O1799 2.320 . S
Tb1752 O1800 2.552 . S
Tb1752 O1801 2.413 . S
Tb1752 O1803 2.362 . S
Tb1752 O1804 2.421 . S
Tb1752 C1816 2.833 . S
C1753 C1756 1.432 . S
C1753 C1757 1.414 . S
C1753 N1760 1.359 . S
C1754 C1756 1.417 . S
C1754 C1758 1.432 . S
C1754 C1766 1.410 . S
C1755 C1757 1.444 . S
C1755 C1758 1.317 . S
C1755 H1778 0.929 . S
C1756 C1753 1.432 . S
C1756 C1754 1.417 . S
C1756 N1764 1.360 . S
C1757 C1753 1.414 . S
C1757 C1755 1.444 . S
C1757 C1762 1.385 . S
C1758 C1754 1.432 . S
C1758 C1755 1.317 . S
C1758 H1770 0.930 . S
C1759 C1761 1.392 . S
C1759 C1762 1.370 . S
C1759 H1771 0.931 . S
N1760 C1753 1.359 . S
N1760 C1761 1.327 . S
N1760 Tb1763 2.600 . S
C1761 C1759 1.392 . S
C1761 N1760 1.327 . S
C1761 H1768 0.930 . S
C1762 C1757 1.385 . S
C1762 C1759 1.370 . S
C1762 H1781 0.930 . S
Tb1763 N1760 2.600 . S
Tb1763 N1764 2.660 . S
Tb1763 O1797 2.362 . S
Tb1763 O1798 2.421 . S
Tb1763 O1802 2.546 . S
Tb1763 O1803 2.610 . S
Tb1763 O1805 2.320 . S
Tb1763 O1806 2.552 . S
Tb1763 O1807 2.413 . S
Tb1763 C1827 2.833 . S
N1764 C1756 1.360 . S
N1764 Tb1763 2.660 . S
N1764 C1765 1.305 . S
C1765 N1764 1.305 . S
C1765 C1767 1.407 . S
C1765 H1772 0.930 . S
C1766 C1754 1.410 . S
C1766 C1767 1.345 . S
C1766 H1774 0.930 . S
C1767 C1765 1.407 . S
C1767 C1766 1.345 . S
C1767 H1769 0.930 . S
H1768 C1761 0.930 . S
H1769 C1767 0.930 . S
H1770 C1758 0.930 . S
H1771 C1759 0.931 . S
H1772 C1765 0.930 . S
H1773 C1787 0.930 . S
H1774 C1766 0.930 . S
H1775 C1793 0.930 . S
H1776 C1784 0.930 . S
H1777 C1791 0.931 . S
H1778 C1755 0.929 . S
H1779 C1785 0.930 . S
H1780 C1818 0.930 . S
H1781 C1762 0.930 . S
H1782 C1817 0.929 . S
N1783 Tb1752 2.660 . S
N1783 C1784 1.305 . S
N1783 C1788 1.360 . S
C1784 H1776 0.930 . S
C1784 N1783 1.305 . S
C1784 C1787 1.407 . S
C1785 H1779 0.930 . S
C1785 C1786 1.410 . S
C1785 C1787 1.345 . S
C1786 C1785 1.410 . S
C1786 C1788 1.417 . S
C1786 C1818 1.432 . S
C1787 H1773 0.930 . S
C1787 C1784 1.407 . S
C1787 C1785 1.345 . S
C1788 N1783 1.360 . S
C1788 C1786 1.417 . S
C1788 C1792 1.432 . S
H1789 C1794 0.930 . S
N1790 Tb1752 2.600 . S
N1790 C1792 1.359 . S
N1790 C1793 1.327 . S
C1791 H1777 0.931 . S
C1791 C1793 1.392 . S
C1791 C1794 1.370 . S
C1792 C1788 1.432 . S
C1792 N1790 1.359 . S
C1792 C1795 1.414 . S
C1793 H1775 0.930 . S
C1793 N1790 1.327 . S
C1793 C1791 1.392 . S
C1794 H1789 0.930 . S
C1794 C1791 1.370 . S
C1794 C1795 1.385 . S
C1795 C1792 1.414 . S
C1795 C1794 1.385 . S
C1795 C1817 1.444 . S
O1796 Tb1752 2.546 . S
O1796 C1816 1.251 . S
O1797 Tb1752 2.610 . S
O1797 Tb1763 2.362 . S
O1797 C1808 1.283 . S
O1798 Tb1763 2.421 . S
O1798 C1815 1.262 . S
O1799 Tb1752 2.320 . S
O1799 C1815 1.260 . S
O1800 Tb1752 2.552 . S
O1800 C1808 1.243 . S
O1801 Tb1752 2.413 . S
O1801 C1816 1.256 . S
O1802 Tb1763 2.546 . S
O1802 C1827 1.251 . S
O1803 Tb1752 2.362 . S
O1803 Tb1763 2.610 . S
O1803 C1819 1.283 . S
O1804 Tb1752 2.421 . S
O1804 C1826 1.262 . S
O1805 Tb1763 2.320 . S
O1805 C1826 1.260 . S
O1806 Tb1763 2.552 . S
O1806 C1819 1.243 . S
O1807 Tb1763 2.413 . S
O1807 C1827 1.256 . S
C1808 O1797 1.283 . S
C1808 O1800 1.243 . S
C1809 C1811 1.382 . S
C1809 C1813 1.393 . S
C1809 C1816 1.500 . S
C1810 C1811 1.400 . S
C1810 C1812 1.384 . S
C1811 C1809 1.382 . S
C1811 C1810 1.400 . S
C1811 H1828 0.930 . S
C1812 C1810 1.384 . S
C1812 C1814 1.392 . S
C1812 H1829 0.931 . S
C1813 C1809 1.393 . S
C1813 C1814 1.401 . S
C1813 H1830 0.930 . S
C1814 C1812 1.392 . S
C1814 C1813 1.401 . S
C1814 H1831 0.930 . S
C1815 O1798 1.262 . S
C1815 O1799 1.260 . S
C1816 Tb1752 2.833 . S
C1816 O1796 1.251 . S
C1816 O1801 1.256 . S
C1816 C1809 1.500 . S
C1817 H1782 0.929 . S
C1817 C1795 1.444 . S
C1817 C1818 1.317 . S
C1818 H1780 0.930 . S
C1818 C1786 1.432 . S
C1818 C1817 1.317 . S
C1819 O1803 1.283 . S
C1819 O1806 1.243 . S
C1820 C1821 1.382 . S
C1820 C1824 1.393 . S
C1820 C1827 1.500 . S
C1821 C1820 1.382 . S
C1821 C1822 1.400 . S
C1821 H1832 0.930 . S
C1822 C1821 1.400 . S
C1822 C1823 1.384 . S
C1823 C1822 1.384 . S
C1823 C1825 1.392 . S
C1823 H1833 0.931 . S
C1824 C1820 1.393 . S
C1824 C1825 1.401 . S
C1824 H1834 0.930 . S
C1825 C1823 1.392 . S
C1825 C1824 1.401 . S
C1825 H1835 0.930 . S
C1826 O1804 1.262 . S
C1826 O1805 1.260 . S
C1827 Tb1763 2.833 . S
C1827 O1802 1.251 . S
C1827 O1807 1.256 . S
C1827 C1820 1.500 . S
H1828 C1811 0.930 . S
H1829 C1812 0.931 . S
H1830 C1813 0.930 . S
H1831 C1814 0.930 . S
H1832 C1821 0.930 . S
H1833 C1823 0.931 . S
H1834 C1824 0.930 . S
H1835 C1825 0.930 . S
C1836 C1837 1.363 . S
C1836 C1842 1.379 . S
C1836 N1844 1.356 . S
C1837 C1836 1.363 . S
C1837 C1843 1.363 . S
C1838 C1839 1.363 . S
C1838 C1843 1.379 . S
C1838 N1845 1.356 . S
C1839 C1838 1.363 . S
C1839 C1842 1.363 . S
N1840 C1842 1.356 . S
N1840 H1852 0.984 . S
N1840 H1853 0.985 . S
N1841 C1843 1.356 . S
N1841 H1846 0.984 . S
N1841 H1847 0.985 . S
C1842 C1836 1.379 . S
C1842 C1839 1.363 . S
C1842 N1840 1.356 . S
C1843 C1837 1.363 . S
C1843 C1838 1.379 . S
C1843 N1841 1.356 . S
N1844 C1836 1.356 . S
N1844 H1850 0.984 . S
N1844 H1851 0.984 . S
N1845 C1838 1.356 . S
N1845 H1848 0.984 . S
N1845 H1849 0.985 . S
H1846 N1841 0.984 . S
H1847 N1841 0.985 . S
H1848 N1845 0.984 . S
H1849 N1845 0.985 . S
H1850 N1844 0.984 . S
H1851 N1844 0.984 . S
H1852 N1840 0.984 . S
H1853 N1840 0.985 . S
C1854 C1855 1.363 . S
C1854 C1860 1.379 . S
C1854 N1862 1.356 . S
C1855 C1854 1.363 . S
C1855 C1861 1.363 . S
C1856 C1857 1.363 . S
C1856 C1861 1.379 . S
C1856 N1863 1.356 . S
C1857 C1856 1.363 . S
C1857 C1860 1.363 . S
N1858 C1860 1.356 1_556 S
N1858 H1870 0.984 . S
N1858 H1871 0.985 . S
N1859 C1861 1.356 . S
N1859 H1864 0.984 . S
N1859 H1865 0.985 . S
C1860 C1854 1.379 . S
C1860 C1857 1.363 . S
C1860 N1858 1.356 1_554 S
C1861 C1855 1.363 . S
C1861 C1856 1.379 . S
C1861 N1859 1.356 . S
N1862 C1854 1.356 . S
N1862 H1868 0.984 1_554 S
N1862 H1869 0.984 . S
N1863 C1856 1.356 . S
N1863 H1866 0.984 . S
N1863 H1867 0.985 . S
H1864 N1859 0.984 . S
H1865 N1859 0.985 . S
H1866 N1863 0.984 . S
H1867 N1863 0.985 . S
H1868 N1862 0.984 1_556 S
H1869 N1862 0.984 . S
H1870 N1858 0.984 . S
H1871 N1858 0.985 . S
C1872 C1873 1.363 . S
C1872 C1878 1.379 . S
C1872 N1880 1.356 . S
C1873 C1872 1.363 . S
C1873 C1879 1.363 . S
C1874 C1875 1.363 . S
C1874 C1879 1.379 . S
C1874 N1881 1.356 . S
C1875 C1874 1.363 . S
C1875 C1878 1.363 . S
N1876 C1878 1.357 1_556 S
N1876 H1888 0.984 . S
N1876 H1889 0.983 . S
N1877 C1879 1.356 . S
N1877 H1882 0.984 . S
N1877 H1883 0.985 . S
C1878 C1872 1.379 . S
C1878 C1875 1.363 . S
C1878 N1876 1.357 1_554 S
C1879 C1873 1.363 . S
C1879 C1874 1.379 . S
C1879 N1877 1.356 . S
N1880 C1872 1.356 . S
N1880 H1886 0.984 . S
N1880 H1887 0.984 . S
N1881 C1874 1.356 . S
N1881 H1884 0.984 . S
N1881 H1885 0.985 . S
H1882 N1877 0.984 . S
H1883 N1877 0.985 . S
H1884 N1881 0.984 . S
H1885 N1881 0.985 . S
H1886 N1880 0.984 . S
H1887 N1880 0.984 . S
H1888 N1876 0.984 . S
H1889 N1876 0.983 . S
C1890 C1891 1.363 . S
C1890 C1896 1.379 . S
C1890 N1898 1.356 . S
C1891 C1890 1.363 . S
C1891 C1897 1.363 . S
C1892 C1893 1.363 . S
C1892 C1897 1.379 . S
C1892 N1899 1.356 . S
C1893 C1892 1.363 . S
C1893 C1896 1.363 . S
N1894 C1896 1.356 1_554 S
N1894 H1906 0.984 . S
N1894 H1907 0.985 . S
N1895 C1897 1.356 . S
N1895 H1900 0.984 . S
N1895 H1901 0.985 . S
C1896 C1890 1.379 . S
C1896 C1893 1.363 . S
C1896 N1894 1.356 1_556 S
C1897 C1891 1.363 . S
C1897 C1892 1.379 . S
C1897 N1895 1.356 . S
N1898 C1890 1.356 . S
N1898 H1904 0.984 . S
N1898 H1905 0.984 . S
N1899 C1892 1.356 . S
N1899 H1902 0.984 . S
N1899 H1903 0.985 . S
H1900 N1895 0.984 . S
H1901 N1895 0.985 . S
H1902 N1899 0.984 . S
H1903 N1899 0.985 . S
H1904 N1898 0.984 . S
H1905 N1898 0.984 . S
H1906 N1894 0.984 . S
H1907 N1894 0.985 . S
C1908 C1909 1.363 . S
C1908 C1914 1.379 . S
C1908 N1916 1.356 . S
C1909 C1908 1.363 . S
C1909 C1915 1.363 . S
C1910 C1911 1.363 . S
C1910 C1915 1.379 . S
C1910 N1917 1.356 . S
C1911 C1910 1.363 . S
C1911 C1914 1.363 . S
N1912 C1914 1.356 . S
N1912 H1924 0.984 . S
N1912 H1925 0.985 . S
N1913 C1915 1.356 . S
N1913 H1918 0.984 . S
N1913 H1919 0.985 . S
C1914 C1908 1.379 . S
C1914 C1911 1.363 . S
C1914 N1912 1.356 . S
C1915 C1909 1.363 . S
C1915 C1910 1.379 . S
C1915 N1913 1.356 . S
N1916 C1908 1.356 . S
N1916 H1922 0.984 . S
N1916 H1923 0.984 . S
N1917 C1910 1.356 . S
N1917 H1920 0.984 . S
N1917 H1921 0.985 . S
H1918 N1913 0.984 . S
H1919 N1913 0.985 . S
H1920 N1917 0.984 . S
H1921 N1917 0.985 . S
H1922 N1916 0.984 . S
H1923 N1916 0.984 . S
H1924 N1912 0.984 . S
H1925 N1912 0.985 . S
C1926 C1927 1.363 . S
C1926 C1932 1.379 . S
C1926 N1934 1.356 . S
C1927 C1926 1.363 . S
C1927 C1933 1.363 . S
C1928 C1929 1.363 . S
C1928 C1933 1.379 . S
C1928 N1935 1.341 1_556 S
C1929 C1928 1.363 . S
C1929 C1932 1.363 . S
N1930 C1932 1.356 . S
N1930 H1942 0.984 . S
N1930 H1943 0.985 . S
N1931 C1933 1.356 . S
N1931 H1936 0.984 . S
N1931 H1937 0.985 . S
C1932 C1926 1.379 . S
C1932 C1929 1.363 . S
C1932 N1930 1.356 . S
C1933 C1927 1.363 . S
C1933 C1928 1.379 . S
C1933 N1931 1.356 . S
N1934 C1926 1.356 . S
N1934 H1940 0.984 . S
N1934 H1941 0.984 . S
N1935 C1928 1.341 1_554 S
N1935 H1938 0.987 . S
N1935 H1939 0.998 . S
H1936 N1931 0.984 . S
H1937 N1931 0.985 . S
H1938 N1935 0.987 . S
H1939 N1935 0.998 . S
H1940 N1934 0.984 . S
H1941 N1934 0.984 . S
H1942 N1930 0.984 . S
H1943 N1930 0.985 . S
C1944 C1945 1.363 . S
C1944 C1950 1.379 . S
C1944 N1952 1.356 . S
C1945 C1944 1.363 . S
C1945 C1951 1.363 . S
C1946 C1947 1.363 . S
C1946 C1951 1.379 . S
C1946 N1953 1.356 . S
C1947 C1946 1.363 . S
C1947 C1950 1.363 . S
N1948 C1950 1.356 1_554 S
N1948 H1960 0.984 . S
N1948 H1961 0.985 . S
N1949 C1951 1.356 . S
N1949 H1954 0.984 . S
N1949 H1955 0.985 . S
C1950 C1944 1.379 . S
C1950 C1947 1.363 . S
C1950 N1948 1.356 1_556 S
C1951 C1945 1.363 . S
C1951 C1946 1.379 . S
C1951 N1949 1.356 . S
N1952 C1944 1.356 . S
N1952 H1958 0.984 1_556 S
N1952 H1959 0.984 . S
N1953 C1946 1.356 . S
N1953 H1956 0.984 . S
N1953 H1957 0.985 . S
H1954 N1949 0.984 . S
H1955 N1949 0.985 . S
H1956 N1953 0.984 . S
H1957 N1953 0.985 . S
H1958 N1952 0.984 1_554 S
H1959 N1952 0.984 . S
H1960 N1948 0.984 . S
H1961 N1948 0.985 . S
C1962 C1963 1.363 . S
C1962 C1968 1.379 . S
C1962 N1970 1.356 . S
C1963 C1962 1.363 . S
C1963 C1969 1.363 . S
C1964 C1965 1.363 . S
C1964 C1969 1.379 . S
C1964 N1971 1.356 . S
C1965 C1964 1.363 . S
C1965 C1968 1.363 . S
N1966 C1968 1.356 1_554 S
N1966 H1978 0.984 . S
N1966 H1979 0.985 . S
N1967 C1969 1.356 . S
N1967 H1972 0.984 . S
N1967 H1973 0.985 . S
C1968 C1962 1.379 . S
C1968 C1965 1.363 . S
C1968 N1966 1.356 1_556 S
C1969 C1963 1.363 . S
C1969 C1964 1.379 . S
C1969 N1967 1.356 . S
N1970 C1962 1.356 . S
N1970 H1976 0.984 1_556 S
N1970 H1977 0.984 . S
N1971 C1964 1.356 . S
N1971 H1974 0.984 . S
N1971 H1975 0.985 . S
H1972 N1967 0.984 . S
H1973 N1967 0.985 . S
H1974 N1971 0.984 . S
H1975 N1971 0.985 . S
H1976 N1970 0.984 1_554 S
H1977 N1970 0.984 . S
H1978 N1966 0.984 . S
H1979 N1966 0.985 . S
C1980 C1981 1.363 . S
C1980 C1986 1.379 . S
C1980 N1988 1.356 . S
C1981 C1980 1.363 . S
C1981 C1987 1.363 . S
C1982 C1983 1.363 . S
C1982 C1987 1.379 . S
C1982 N1989 1.356 . S
C1983 C1982 1.363 . S
C1983 C1986 1.363 . S
N1984 C1986 1.356 . S
N1984 H1996 0.984 . S
N1984 H1997 0.985 . S
N1985 C1987 1.356 . S
N1985 H1990 0.984 . S
N1985 H1991 0.985 . S
C1986 C1980 1.379 . S
C1986 C1983 1.363 . S
C1986 N1984 1.356 . S
C1987 C1981 1.363 . S
C1987 C1982 1.379 . S
C1987 N1985 1.356 . S
N1988 C1980 1.356 . S
N1988 H1994 0.984 . S
N1988 H1995 0.984 . S
N1989 C1982 1.356 . S
N1989 H1992 0.984 . S
N1989 H1993 0.985 . S
H1990 N1985 0.984 . S
H1991 N1985 0.985 . S
H1992 N1989 0.984 . S
H1993 N1989 0.985 . S
H1994 N1988 0.984 . S
H1995 N1988 0.984 . S
H1996 N1984 0.984 . S
H1997 N1984 0.985 . S
C1998 C1999 1.363 . S
C1998 C2004 1.379 . S
C1998 N2006 1.356 . S
C1999 C1998 1.363 . S
C1999 C2005 1.363 . S
C2000 C2001 1.363 . S
C2000 C2005 1.379 . S
C2000 N2007 1.356 . S
C2001 C2000 1.363 . S
C2001 C2004 1.363 . S
N2002 C2004 1.356 1_556 S
N2002 H2014 0.984 . S
N2002 H2015 0.985 . S
N2003 C2005 1.356 . S
N2003 H2008 0.984 . S
N2003 H2009 0.985 . S
C2004 C1998 1.379 . S
C2004 C2001 1.363 . S
C2004 N2002 1.356 1_554 S
C2005 C1999 1.363 . S
C2005 C2000 1.379 . S
C2005 N2003 1.356 . S
N2006 C1998 1.356 . S
N2006 H2012 0.984 . S
N2006 H2013 0.984 . S
N2007 C2000 1.356 . S
N2007 H2010 0.984 . S
N2007 H2011 0.985 . S
H2008 N2003 0.984 . S
H2009 N2003 0.985 . S
H2010 N2007 0.984 . S
H2011 N2007 0.985 . S
H2012 N2006 0.984 . S
H2013 N2006 0.984 . S
H2014 N2002 0.984 . S
H2015 N2002 0.985 . S
C2016 C2017 1.363 . S
C2016 C2022 1.379 . S
C2016 N2024 1.356 . S
C2017 C2016 1.363 . S
C2017 C2023 1.363 . S
C2018 C2019 1.363 . S
C2018 C2023 1.379 . S
C2018 N2025 1.356 . S
C2019 C2018 1.363 . S
C2019 C2022 1.363 . S
N2020 C2022 1.356 . S
N2020 H2032 0.983 . S
N2020 H2033 0.985 . S
N2021 C2023 1.356 . S
N2021 H2026 0.984 . S
N2021 H2027 0.985 . S
C2022 C2016 1.379 . S
C2022 C2019 1.363 . S
C2022 N2020 1.356 . S
C2023 C2017 1.363 . S
C2023 C2018 1.379 . S
C2023 N2021 1.356 . S
N2024 C2016 1.356 . S
N2024 H2030 0.984 . S
N2024 H2031 0.984 . S
N2025 C2018 1.356 . S
N2025 H2028 0.984 . S
N2025 H2029 0.985 . S
H2026 N2021 0.984 . S
H2027 N2021 0.985 . S
H2028 N2025 0.984 . S
H2029 N2025 0.985 . S
H2030 N2024 0.984 . S
H2031 N2024 0.984 . S
H2032 N2020 0.983 . S
H2033 N2020 0.985 . S
C2034 C2035 1.363 . S
C2034 C2040 1.379 . S
C2034 N2042 1.356 . S
C2035 C2034 1.363 . S
C2035 C2041 1.363 . S
C2036 C2037 1.363 . S
C2036 C2041 1.379 . S
C2036 N2043 1.356 . S
C2037 C2036 1.363 . S
C2037 C2040 1.363 . S
N2038 C2040 1.356 . S
N2038 H2050 0.984 . S
N2038 H2051 0.985 . S
N2039 C2041 1.356 . S
N2039 H2044 0.984 . S
N2039 H2045 0.985 . S
C2040 C2034 1.379 . S
C2040 C2037 1.363 . S
C2040 N2038 1.356 . S
C2041 C2035 1.363 . S
C2041 C2036 1.379 . S
C2041 N2039 1.356 . S
N2042 C2034 1.356 . S
N2042 H2048 0.984 . S
N2042 H2049 0.984 . S
N2043 C2036 1.356 . S
N2043 H2046 0.990 . S
N2043 H2047 0.985 1_554 S
H2044 N2039 0.984 . S
H2045 N2039 0.985 . S
H2046 N2043 0.990 . S
H2047 N2043 0.985 1_556 S
H2048 N2042 0.984 . S
H2049 N2042 0.984 . S
H2050 N2038 0.984 . S
H2051 N2038 0.985 . S
C2052 C2053 1.363 . S
C2052 C2058 1.379 . S
C2052 N2060 1.356 1_455 S
C2053 C2052 1.363 . S
C2053 C2059 1.363 . S
C2054 C2055 1.363 . S
C2054 C2059 1.379 . S
C2054 N2061 1.356 . S
C2055 C2054 1.363 . S
C2055 C2058 1.363 . S
N2056 C2058 1.356 . S
N2056 H2068 0.984 . S
N2056 H2069 0.985 . S
N2057 C2059 1.356 . S
N2057 H2062 0.984 . S
N2057 H2063 0.985 . S
C2058 C2052 1.379 . S
C2058 C2055 1.363 . S
C2058 N2056 1.356 . S
C2059 C2053 1.363 . S
C2059 C2054 1.379 . S
C2059 N2057 1.356 . S
N2060 C2052 1.356 1_655 S
N2060 H2066 0.984 . S
N2060 H2067 0.984 . S
N2061 C2054 1.356 . S
N2061 H2064 0.984 . S
N2061 H2065 0.985 . S
H2062 N2057 0.984 . S
H2063 N2057 0.985 . S
H2064 N2061 0.984 . S
H2065 N2061 0.985 . S
H2066 N2060 0.984 . S
H2067 N2060 0.984 . S
H2068 N2056 0.984 . S
H2069 N2056 0.985 . S
C2070 C2071 1.363 . S
C2070 C2076 1.379 . S
C2070 N2078 1.356 . S
C2071 C2070 1.363 . S
C2071 C2077 1.363 . S
C2072 C2073 1.363 . S
C2072 C2077 1.379 . S
C2072 N2079 1.356 . S
C2073 C2072 1.363 . S
C2073 C2076 1.363 . S
N2074 C2076 1.356 . S
N2074 H2086 0.984 . S
N2074 H2087 0.985 . S
N2075 C2077 1.356 . S
N2075 H2080 0.984 . S
N2075 H2081 0.985 . S
C2076 C2070 1.379 . S
C2076 C2073 1.363 . S
C2076 N2074 1.356 . S
C2077 C2071 1.363 . S
C2077 C2072 1.379 . S
C2077 N2075 1.356 . S
N2078 C2070 1.356 . S
N2078 H2084 0.984 . S
N2078 H2085 0.984 . S
N2079 C2072 1.356 . S
N2079 H2082 0.984 . S
N2079 H2083 0.985 . S
H2080 N2075 0.984 . S
H2081 N2075 0.985 . S
H2082 N2079 0.984 . S
H2083 N2079 0.985 . S
H2084 N2078 0.984 . S
H2085 N2078 0.984 . S
H2086 N2074 0.984 . S
H2087 N2074 0.985 . S
C2088 C2089 1.363 . S
C2088 C2094 1.379 . S
C2088 N2096 1.356 1_565 S
C2089 C2088 1.363 . S
C2089 C2095 1.363 . S
C2090 C2091 1.363 . S
C2090 C2095 1.379 . S
C2090 N2097 1.356 . S
C2091 C2090 1.363 . S
C2091 C2094 1.363 . S
N2092 C2094 1.356 . S
N2092 H2104 0.984 . S
N2092 H2105 0.985 . S
N2093 C2095 1.356 . S
N2093 H2098 0.984 1_565 S
N2093 H2099 0.985 . S
C2094 C2088 1.379 . S
C2094 C2091 1.363 . S
C2094 N2092 1.356 . S
C2095 C2089 1.363 . S
C2095 C2090 1.379 . S
C2095 N2093 1.356 . S
N2096 C2088 1.356 1_545 S
N2096 H2102 0.975 . S
N2096 H2103 0.984 . S
N2097 C2090 1.356 . S
N2097 H2100 0.984 . S
N2097 H2101 0.985 . S
H2098 N2093 0.984 1_545 S
H2099 N2093 0.985 . S
H2100 N2097 0.984 . S
H2101 N2097 0.985 . S
H2102 N2096 0.975 . S
H2103 N2096 0.984 . S
H2104 N2092 0.984 . S
H2105 N2092 0.985 . S
C2106 C2107 1.363 . S
C2106 C2112 1.379 . S
C2106 N2114 1.356 . S
C2107 C2106 1.363 . S
C2107 C2113 1.363 . S
C2108 C2109 1.363 . S
C2108 C2113 1.379 . S
C2108 N2115 1.356 . S
C2109 C2108 1.363 . S
C2109 C2112 1.363 . S
N2110 C2112 1.356 . S
N2110 H2122 0.984 . S
N2110 H2123 0.985 . S
N2111 C2113 1.356 . S
N2111 H2116 0.984 . S
N2111 H2117 0.985 . S
C2112 C2106 1.379 . S
C2112 C2109 1.363 . S
C2112 N2110 1.356 . S
C2113 C2107 1.363 . S
C2113 C2108 1.379 . S
C2113 N2111 1.356 . S
N2114 C2106 1.356 . S
N2114 H2120 0.984 . S
N2114 H2121 0.984 . S
N2115 C2108 1.356 . S
N2115 H2118 0.984 . S
N2115 H2119 0.985 . S
H2116 N2111 0.984 . S
H2117 N2111 0.985 . S
H2118 N2115 0.984 . S
H2119 N2115 0.985 . S
H2120 N2114 0.984 . S
H2121 N2114 0.984 . S
H2122 N2110 0.984 . S
H2123 N2110 0.985 . S
C2124 C2125 1.363 . S
C2124 C2130 1.379 . S
C2124 N2132 1.356 . S
C2125 C2124 1.363 . S
C2125 C2131 1.363 . S
C2126 C2127 1.363 . S
C2126 C2131 1.379 . S
C2126 N2133 1.356 . S
C2127 C2126 1.363 . S
C2127 C2130 1.363 . S
N2128 C2130 1.356 . S
N2128 H2140 0.984 . S
N2128 H2141 0.985 . S
N2129 C2131 1.356 . S
N2129 H2134 0.984 . S
N2129 H2135 0.985 . S
C2130 C2124 1.379 . S
C2130 C2127 1.363 . S
C2130 N2128 1.356 . S
C2131 C2125 1.363 . S
C2131 C2126 1.379 . S
C2131 N2129 1.356 . S
N2132 C2124 1.356 . S
N2132 H2138 0.984 . S
N2132 H2139 0.984 . S
N2133 C2126 1.356 . S
N2133 H2136 0.984 . S
N2133 H2137 0.985 . S
H2134 N2129 0.984 . S
H2135 N2129 0.985 . S
H2136 N2133 0.984 . S
H2137 N2133 0.985 . S
H2138 N2132 0.984 . S
H2139 N2132 0.984 . S
H2140 N2128 0.984 . S
H2141 N2128 0.985 . S
C2142 C2143 1.363 . S
C2142 C2148 1.379 . S
C2142 N2150 1.356 . S
C2143 C2142 1.363 . S
C2143 C2149 1.363 . S
C2144 C2145 1.363 . S
C2144 C2149 1.379 . S
C2144 N2151 1.356 . S
C2145 C2144 1.363 . S
C2145 C2148 1.363 . S
N2146 C2148 1.356 . S
N2146 H2158 0.984 . S
N2146 H2159 0.985 . S
N2147 C2149 1.356 . S
N2147 H2152 0.984 . S
N2147 H2153 0.985 . S
C2148 C2142 1.379 . S
C2148 C2145 1.363 . S
C2148 N2146 1.356 . S
C2149 C2143 1.363 . S
C2149 C2144 1.379 . S
C2149 N2147 1.356 . S
N2150 C2142 1.356 . S
N2150 H2156 0.984 . S
N2150 H2157 0.984 . S
N2151 C2144 1.356 . S
N2151 H2154 0.984 . S
N2151 H2155 0.985 . S
H2152 N2147 0.984 . S
H2153 N2147 0.985 . S
H2154 N2151 0.984 . S
H2155 N2151 0.985 . S
H2156 N2150 0.984 . S
H2157 N2150 0.984 . S
H2158 N2146 0.984 . S
H2159 N2146 0.985 . S
C2160 C2161 1.363 . S
C2160 C2166 1.379 . S
C2160 N2168 1.356 . S
C2161 C2160 1.363 . S
C2161 C2167 1.363 . S
C2162 C2163 1.363 . S
C2162 C2167 1.379 . S
C2162 N2169 1.356 . S
C2163 C2162 1.363 . S
C2163 C2166 1.363 . S
N2164 C2166 1.356 . S
N2164 H2176 0.984 . S
N2164 H2177 0.985 . S
N2165 C2167 1.356 . S
N2165 H2170 0.984 . S
N2165 H2171 0.985 . S
C2166 C2160 1.379 . S
C2166 C2163 1.363 . S
C2166 N2164 1.356 . S
C2167 C2161 1.363 . S
C2167 C2162 1.379 . S
C2167 N2165 1.356 . S
N2168 C2160 1.356 . S
N2168 H2174 0.984 . S
N2168 H2175 0.984 . S
N2169 C2162 1.356 . S
N2169 H2172 0.984 . S
N2169 H2173 0.985 . S
H2170 N2165 0.984 . S
H2171 N2165 0.985 . S
H2172 N2169 0.984 . S
H2173 N2169 0.985 . S
H2174 N2168 0.984 . S
H2175 N2168 0.984 . S
H2176 N2164 0.984 . S
H2177 N2164 0.985 . S
C2178 C2179 1.363 . S
C2178 C2184 1.379 . S
C2178 N2186 1.356 . S
C2179 C2178 1.363 . S
C2179 C2185 1.363 . S
C2180 C2181 1.363 . S
C2180 C2185 1.379 . S
C2180 N2187 1.356 . S
C2181 C2180 1.363 . S
C2181 C2184 1.363 . S
N2182 C2184 1.356 . S
N2182 H2194 0.984 . S
N2182 H2195 0.985 . S
N2183 C2185 1.356 . S
N2183 H2188 0.984 . S
N2183 H2189 0.985 . S
C2184 C2178 1.379 . S
C2184 C2181 1.363 . S
C2184 N2182 1.356 . S
C2185 C2179 1.363 . S
C2185 C2180 1.379 . S
C2185 N2183 1.356 . S
N2186 C2178 1.356 . S
N2186 H2192 0.984 . S
N2186 H2193 0.984 . S
N2187 C2180 1.356 . S
N2187 H2190 0.984 . S
N2187 H2191 0.985 . S
H2188 N2183 0.984 . S
H2189 N2183 0.985 . S
H2190 N2187 0.984 . S
H2191 N2187 0.985 . S
H2192 N2186 0.984 . S
H2193 N2186 0.984 . S
H2194 N2182 0.984 . S
H2195 N2182 0.985 . S
C2196 C2197 1.363 . S
C2196 C2202 1.379 . S
C2196 N2204 1.356 . S
C2197 C2196 1.363 . S
C2197 C2203 1.363 . S
C2198 C2199 1.363 . S
C2198 C2203 1.379 . S
C2198 N2205 1.356 . S
C2199 C2198 1.363 . S
C2199 C2202 1.363 . S
N2200 C2202 1.356 . S
N2200 H2212 0.984 . S
N2200 H2213 0.985 . S
N2201 C2203 1.356 . S
N2201 H2206 0.984 . S
N2201 H2207 0.985 . S
C2202 C2196 1.379 . S
C2202 C2199 1.363 . S
C2202 N2200 1.356 . S
C2203 C2197 1.363 . S
C2203 C2198 1.379 . S
C2203 N2201 1.356 . S
N2204 C2196 1.356 . S
N2204 H2210 0.984 . S
N2204 H2211 0.984 . S
N2205 C2198 1.356 . S
N2205 H2208 0.984 . S
N2205 H2209 0.985 . S
H2206 N2201 0.984 . S
H2207 N2201 0.985 . S
H2208 N2205 0.984 . S
H2209 N2205 0.985 . S
H2210 N2204 0.984 . S
H2211 N2204 0.984 . S
H2212 N2200 0.984 . S
H2213 N2200 0.985 . S
C2214 C2215 1.363 . S
C2214 C2220 1.379 . S
C2214 N2222 1.356 . S
C2215 C2214 1.363 . S
C2215 C2221 1.363 . S
C2216 C2217 1.363 . S
C2216 C2221 1.379 . S
C2216 N2223 1.356 . S
C2217 C2216 1.363 . S
C2217 C2220 1.363 . S
N2218 C2220 1.356 . S
N2218 H2230 0.984 . S
N2218 H2231 0.985 . S
N2219 C2221 1.356 1_545 S
N2219 H2224 0.984 . S
N2219 H2225 0.985 . S
C2220 C2214 1.379 . S
C2220 C2217 1.363 . S
C2220 N2218 1.356 . S
C2221 C2215 1.363 . S
C2221 C2216 1.379 . S
C2221 N2219 1.356 1_565 S
N2222 C2214 1.356 . S
N2222 H2228 0.984 . S
N2222 H2229 0.984 . S
N2223 C2216 1.356 . S
N2223 H2226 0.984 . S
N2223 H2227 0.985 . S
H2224 N2219 0.984 . S
H2225 N2219 0.985 . S
H2226 N2223 0.984 . S
H2227 N2223 0.985 . S
H2228 N2222 0.984 . S
H2229 N2222 0.984 . S
H2230 N2218 0.984 . S
H2231 N2218 0.985 . S
C2232 C2233 1.363 . S
C2232 C2238 1.379 . S
C2232 N2240 1.356 . S
C2233 C2232 1.363 . S
C2233 C2239 1.363 . S
C2234 C2235 1.363 . S
C2234 C2239 1.379 . S
C2234 N2241 1.356 . S
C2235 C2234 1.363 . S
C2235 C2238 1.363 . S
N2236 C2238 1.356 . S
N2236 H2248 0.984 . S
N2236 H2249 0.985 . S
N2237 C2239 1.358 1_655 S
N2237 H2242 0.983 . S
N2237 H2243 0.984 . S
C2238 C2232 1.379 . S
C2238 C2235 1.363 . S
C2238 N2236 1.356 . S
C2239 C2233 1.363 . S
C2239 C2234 1.379 . S
C2239 N2237 1.358 1_455 S
N2240 C2232 1.356 . S
N2240 H2246 0.984 . S
N2240 H2247 0.984 . S
N2241 C2234 1.356 . S
N2241 H2244 0.984 . S
N2241 H2245 0.985 . S
H2242 N2237 0.983 . S
H2243 N2237 0.984 . S
H2244 N2241 0.984 . S
H2245 N2241 0.985 . S
H2246 N2240 0.984 . S
H2247 N2240 0.984 . S
H2248 N2236 0.984 . S
H2249 N2236 0.985 . S
C2250 C2251 1.363 . S
C2250 C2256 1.379 . S
C2250 N2258 1.356 . S
C2251 C2250 1.363 . S
C2251 C2257 1.363 . S
C2252 C2253 1.363 . S
C2252 C2257 1.379 . S
C2252 N2259 1.356 . S
C2253 C2252 1.363 . S
C2253 C2256 1.363 . S
N2254 C2256 1.356 . S
N2254 H2266 0.984 . S
N2254 H2267 0.985 . S
N2255 C2257 1.356 . S
N2255 H2260 0.984 . S
N2255 H2261 0.985 . S
C2256 C2250 1.379 . S
C2256 C2253 1.363 . S
C2256 N2254 1.356 . S
C2257 C2251 1.363 . S
C2257 C2252 1.379 . S
C2257 N2255 1.356 . S
N2258 C2250 1.356 . S
N2258 H2264 0.984 . S
N2258 H2265 0.984 . S
N2259 C2252 1.356 . S
N2259 H2262 0.984 . S
N2259 H2263 0.985 . S
H2260 N2255 0.984 . S
H2261 N2255 0.985 . S
H2262 N2259 0.984 . S
H2263 N2259 0.985 . S
H2264 N2258 0.984 . S
H2265 N2258 0.984 . S
H2266 N2254 0.984 . S
H2267 N2254 0.985 . S
C2268 C2269 1.363 . S
C2268 C2274 1.379 . S
C2268 N2276 1.356 . S
C2269 C2268 1.363 . S
C2269 C2275 1.363 . S
C2270 C2271 1.363 . S
C2270 C2275 1.379 . S
C2270 N2277 1.356 . S
C2271 C2270 1.363 . S
C2271 C2274 1.363 . S
N2272 C2274 1.356 . S
N2272 H2284 0.984 . S
N2272 H2285 0.985 . S
N2273 C2275 1.356 . S
N2273 H2278 0.984 . S
N2273 H2279 0.985 . S
C2274 C2268 1.379 . S
C2274 C2271 1.363 . S
C2274 N2272 1.356 . S
C2275 C2269 1.363 . S
C2275 C2270 1.379 . S
C2275 N2273 1.356 . S
N2276 C2268 1.356 . S
N2276 H2282 0.984 . S
N2276 H2283 0.984 . S
N2277 C2270 1.356 . S
N2277 H2280 0.984 . S
N2277 H2281 0.985 . S
H2278 N2273 0.984 . S
H2279 N2273 0.985 . S
H2280 N2277 0.984 . S
H2281 N2277 0.985 . S
H2282 N2276 0.984 . S
H2283 N2276 0.984 . S
H2284 N2272 0.984 . S
H2285 N2272 0.985 . S
C2286 C2287 1.363 . S
C2286 C2292 1.379 . S
C2286 N2294 1.356 . S
C2287 C2286 1.363 . S
C2287 C2293 1.363 . S
C2288 C2289 1.363 . S
C2288 C2293 1.379 . S
C2288 N2295 1.356 . S
C2289 C2288 1.363 . S
C2289 C2292 1.363 . S
N2290 C2292 1.356 . S
N2290 H2302 0.984 . S
N2290 H2303 0.985 . S
N2291 C2293 1.356 . S
N2291 H2296 0.984 . S
N2291 H2297 0.985 . S
C2292 C2286 1.379 . S
C2292 C2289 1.363 . S
C2292 N2290 1.356 . S
C2293 C2287 1.363 . S
C2293 C2288 1.379 . S
C2293 N2291 1.356 . S
N2294 C2286 1.356 . S
N2294 H2300 0.984 . S
N2294 H2301 0.984 . S
N2295 C2288 1.356 . S
N2295 H2298 0.984 . S
N2295 H2299 0.985 . S
H2296 N2291 0.984 . S
H2297 N2291 0.985 . S
H2298 N2295 0.984 . S
H2299 N2295 0.985 . S
H2300 N2294 0.984 . S
H2301 N2294 0.984 . S
H2302 N2290 0.984 . S
H2303 N2290 0.985 . S
C2304 C2305 1.363 . S
C2304 C2310 1.379 . S
C2304 N2312 1.356 . S
C2305 C2304 1.363 . S
C2305 C2311 1.363 . S
C2306 C2307 1.363 . S
C2306 C2311 1.379 . S
C2306 N2313 1.356 . S
C2307 C2306 1.363 . S
C2307 C2310 1.363 . S
N2308 C2310 1.356 . S
N2308 H2320 0.984 . S
N2308 H2321 0.985 . S
N2309 C2311 1.356 . S
N2309 H2314 0.984 . S
N2309 H2315 0.985 . S
C2310 C2304 1.379 . S
C2310 C2307 1.363 . S
C2310 N2308 1.356 . S
C2311 C2305 1.363 . S
C2311 C2306 1.379 . S
C2311 N2309 1.356 . S
N2312 C2304 1.356 . S
N2312 H2318 0.984 . S
N2312 H2319 0.984 . S
N2313 C2306 1.356 . S
N2313 H2316 0.984 . S
N2313 H2317 0.985 . S
H2314 N2309 0.984 . S
H2315 N2309 0.985 . S
H2316 N2313 0.984 . S
H2317 N2313 0.985 . S
H2318 N2312 0.984 . S
H2319 N2312 0.984 . S
H2320 N2308 0.984 . S
H2321 N2308 0.985 . S
C2322 C2323 1.363 . S
C2322 C2328 1.379 . S
C2322 N2330 1.356 . S
C2323 C2322 1.363 . S
C2323 C2329 1.363 . S
C2324 C2325 1.363 . S
C2324 C2329 1.379 . S
C2324 N2331 1.356 . S
C2325 C2324 1.363 . S
C2325 C2328 1.363 . S
N2326 C2328 1.356 . S
N2326 H2338 0.984 . S
N2326 H2339 0.985 . S
N2327 C2329 1.356 1_565 S
N2327 H2332 0.984 . S
N2327 H2333 0.985 . S
C2328 C2322 1.379 . S
C2328 C2325 1.363 . S
C2328 N2326 1.356 . S
C2329 C2323 1.363 . S
C2329 C2324 1.379 . S
C2329 N2327 1.356 1_545 S
N2330 C2322 1.356 . S
N2330 H2336 0.984 . S
N2330 H2337 0.995 . S
N2331 C2324 1.356 . S
N2331 H2334 0.984 . S
N2331 H2335 0.985 . S
H2332 N2327 0.984 . S
H2333 N2327 0.985 . S
H2334 N2331 0.984 . S
H2335 N2331 0.985 . S
H2336 N2330 0.984 . S
H2337 N2330 0.995 . S
H2338 N2326 0.984 . S
H2339 N2326 0.985 . S
C2340 C2341 1.363 . S
C2340 C2346 1.379 . S
C2340 N2348 1.356 . S
C2341 C2340 1.363 . S
C2341 C2347 1.363 . S
C2342 C2343 1.363 . S
C2342 C2347 1.379 . S
C2342 N2349 1.356 . S
C2343 C2342 1.363 . S
C2343 C2346 1.363 . S
N2344 C2346 1.356 . S
N2344 H2356 0.984 . S
N2344 H2357 0.985 . S
N2345 C2347 1.356 1_455 S
N2345 H2350 0.984 . S
N2345 H2351 0.985 . S
C2346 C2340 1.379 . S
C2346 C2343 1.363 . S
C2346 N2344 1.356 . S
C2347 C2341 1.363 . S
C2347 C2342 1.379 . S
C2347 N2345 1.356 1_655 S
N2348 C2340 1.356 . S
N2348 H2354 0.984 . S
N2348 H2355 0.984 . S
N2349 C2342 1.356 . S
N2349 H2352 0.984 . S
N2349 H2353 0.985 . S
H2350 N2345 0.984 . S
H2351 N2345 0.985 . S
H2352 N2349 0.984 . S
H2353 N2349 0.985 . S
H2354 N2348 0.984 . S
H2355 N2348 0.984 . S
H2356 N2344 0.984 . S
H2357 N2344 0.985 . S
C2358 C2359 1.363 . S
C2358 C2364 1.379 . S
C2358 N2366 1.356 . S
C2359 C2358 1.363 . S
C2359 C2365 1.363 . S
C2360 C2361 1.363 . S
C2360 C2365 1.379 . S
C2360 N2367 1.356 . S
C2361 C2360 1.363 . S
C2361 C2364 1.363 . S
N2362 C2364 1.356 . S
N2362 H2374 0.984 . S
N2362 H2375 0.985 . S
N2363 C2365 1.356 . S
N2363 H2368 0.984 . S
N2363 H2369 0.985 . S
C2364 C2358 1.379 . S
C2364 C2361 1.363 . S
C2364 N2362 1.356 . S
C2365 C2359 1.363 . S
C2365 C2360 1.379 . S
C2365 N2363 1.356 . S
N2366 C2358 1.356 . S
N2366 H2372 0.984 . S
N2366 H2373 0.984 . S
N2367 C2360 1.356 . S
N2367 H2370 0.984 . S
N2367 H2371 0.985 . S
H2368 N2363 0.984 . S
H2369 N2363 0.985 . S
H2370 N2367 0.984 . S
H2371 N2367 0.985 . S
H2372 N2366 0.984 . S
H2373 N2366 0.984 . S
H2374 N2362 0.984 . S
H2375 N2362 0.985 . S
C2376 C2377 1.363 . S
C2376 C2382 1.379 . S
C2376 N2384 1.353 . S
C2377 C2376 1.363 . S
C2377 C2383 1.363 . S
C2378 C2379 1.363 . S
C2378 C2383 1.379 . S
C2378 N2385 1.356 . S
C2379 C2378 1.363 . S
C2379 C2382 1.363 . S
N2380 C2382 1.356 . S
N2380 H2392 0.984 . S
N2380 H2393 0.985 . S
N2381 C2383 1.356 . S
N2381 H2386 0.984 . S
N2381 H2387 0.985 . S
C2382 C2376 1.379 . S
C2382 C2379 1.363 . S
C2382 N2380 1.356 . S
C2383 C2377 1.363 . S
C2383 C2378 1.379 . S
C2383 N2381 1.356 . S
N2384 C2376 1.353 . S
N2384 H2390 0.986 1_655 S
N2384 H2391 0.986 1_655 S
N2385 C2378 1.356 . S
N2385 H2388 0.984 . S
N2385 H2389 0.985 . S
H2386 N2381 0.984 . S
H2387 N2381 0.985 . S
H2388 N2385 0.984 . S
H2389 N2385 0.985 . S
H2390 N2384 0.986 1_455 S
H2391 N2384 0.986 1_455 S
H2392 N2380 0.984 . S
H2393 N2380 0.985 . S
C2394 C2395 1.363 . S
C2394 C2400 1.379 . S
C2394 N2402 1.356 . S
C2395 C2394 1.363 . S
C2395 C2401 1.363 . S
C2396 C2397 1.363 . S
C2396 C2401 1.379 . S
C2396 N2403 1.356 . S
C2397 C2396 1.363 . S
C2397 C2400 1.363 . S
N2398 C2400 1.356 . S
N2398 H2410 0.984 . S
N2398 H2411 0.985 . S
N2399 C2401 1.356 . S
N2399 H2404 0.984 . S
N2399 H2405 0.985 . S
C2400 C2394 1.379 . S
C2400 C2397 1.363 . S
C2400 N2398 1.356 . S
C2401 C2395 1.363 . S
C2401 C2396 1.379 . S
C2401 N2399 1.356 . S
N2402 C2394 1.356 . S
N2402 H2408 0.984 . S
N2402 H2409 0.984 . S
N2403 C2396 1.356 . S
N2403 H2406 0.984 . S
N2403 H2407 0.985 . S
H2404 N2399 0.984 . S
H2405 N2399 0.985 . S
H2406 N2403 0.984 . S
H2407 N2403 0.985 . S
H2408 N2402 0.984 . S
H2409 N2402 0.984 . S
H2410 N2398 0.984 . S
H2411 N2398 0.985 . S
C2412 C2413 1.363 . S
C2412 C2418 1.379 . S
C2412 N2420 1.356 . S
C2413 C2412 1.363 . S
C2413 C2419 1.363 . S
C2414 C2415 1.363 . S
C2414 C2419 1.379 . S
C2414 N2421 1.356 . S
C2415 C2414 1.363 . S
C2415 C2418 1.363 . S
N2416 C2418 1.356 . S
N2416 H2428 0.984 . S
N2416 H2429 0.985 . S
N2417 C2419 1.356 1_565 S
N2417 H2422 0.984 . S
N2417 H2423 0.985 . S
C2418 C2412 1.379 . S
C2418 C2415 1.363 . S
C2418 N2416 1.356 . S
C2419 C2413 1.363 . S
C2419 C2414 1.379 . S
C2419 N2417 1.356 1_545 S
N2420 C2412 1.356 . S
N2420 H2426 0.984 . S
N2420 H2427 0.984 1_545 S
N2421 C2414 1.356 . S
N2421 H2424 0.984 . S
N2421 H2425 0.985 . S
H2422 N2417 0.984 . S
H2423 N2417 0.985 . S
H2424 N2421 0.984 . S
H2425 N2421 0.985 . S
H2426 N2420 0.984 . S
H2427 N2420 0.984 1_565 S
H2428 N2416 0.984 . S
H2429 N2416 0.985 . S
C2430 C2431 1.363 . S
C2430 C2436 1.379 . S
C2430 N2438 1.356 . S
C2431 C2430 1.363 . S
C2431 C2437 1.363 . S
C2432 C2433 1.363 . S
C2432 C2437 1.379 . S
C2432 N2439 1.356 . S
C2433 C2432 1.363 . S
C2433 C2436 1.363 . S
N2434 C2436 1.356 . S
N2434 H2446 0.984 . S
N2434 H2447 0.985 . S
N2435 C2437 1.356 . S
N2435 H2440 0.984 . S
N2435 H2441 0.985 . S
C2436 C2430 1.379 . S
C2436 C2433 1.363 . S
C2436 N2434 1.356 . S
C2437 C2431 1.363 . S
C2437 C2432 1.379 . S
C2437 N2435 1.356 . S
N2438 C2430 1.356 . S
N2438 H2444 0.984 . S
N2438 H2445 0.984 . S
N2439 C2432 1.356 . S
N2439 H2442 0.984 . S
N2439 H2443 0.985 . S
H2440 N2435 0.984 . S
H2441 N2435 0.985 . S
H2442 N2439 0.984 . S
H2443 N2439 0.985 . S
H2444 N2438 0.984 . S
H2445 N2438 0.984 . S
H2446 N2434 0.984 . S
H2447 N2434 0.985 . S
C2448 C2449 1.363 . S
C2448 C2454 1.379 . S
C2448 N2456 1.356 . S
C2449 C2448 1.363 . S
C2449 C2455 1.363 . S
C2450 C2451 1.363 . S
C2450 C2455 1.379 . S
C2450 N2457 1.356 . S
C2451 C2450 1.363 . S
C2451 C2454 1.363 . S
N2452 C2454 1.356 . S
N2452 H2464 0.984 . S
N2452 H2465 0.985 . S
N2453 C2455 1.356 . S
N2453 H2458 0.984 . S
N2453 H2459 0.985 . S
C2454 C2448 1.379 . S
C2454 C2451 1.363 . S
C2454 N2452 1.356 . S
C2455 C2449 1.363 . S
C2455 C2450 1.379 . S
C2455 N2453 1.356 . S
N2456 C2448 1.356 . S
N2456 H2462 0.984 . S
N2456 H2463 0.984 . S
N2457 C2450 1.356 . S
N2457 H2460 0.984 . S
N2457 H2461 0.985 . S
H2458 N2453 0.984 . S
H2459 N2453 0.985 . S
H2460 N2457 0.984 . S
H2461 N2457 0.985 . S
H2462 N2456 0.984 . S
H2463 N2456 0.984 . S
H2464 N2452 0.984 . S
H2465 N2452 0.985 . S
C2466 C2467 1.363 . S
C2466 C2472 1.379 . S
C2466 N2474 1.356 . S
C2467 C2466 1.363 . S
C2467 C2473 1.363 . S
C2468 C2469 1.363 . S
C2468 C2473 1.379 . S
C2468 N2475 1.356 . S
C2469 C2468 1.363 . S
C2469 C2472 1.363 . S
N2470 C2472 1.356 . S
N2470 H2482 0.984 . S
N2470 H2483 0.985 . S
N2471 C2473 1.356 . S
N2471 H2476 0.984 . S
N2471 H2477 0.985 . S
C2472 C2466 1.379 . S
C2472 C2469 1.363 . S
C2472 N2470 1.356 . S
C2473 C2467 1.363 . S
C2473 C2468 1.379 . S
C2473 N2471 1.356 . S
N2474 C2466 1.356 . S
N2474 H2480 0.984 . S
N2474 H2481 0.984 . S
N2475 C2468 1.356 . S
N2475 H2478 0.984 . S
N2475 H2479 0.985 . S
H2476 N2471 0.984 . S
H2477 N2471 0.985 . S
H2478 N2475 0.984 . S
H2479 N2475 0.985 . S
H2480 N2474 0.984 . S
H2481 N2474 0.984 . S
H2482 N2470 0.984 . S
H2483 N2470 0.985 . S
C2484 C2485 1.363 . S
C2484 C2490 1.379 . S
C2484 N2492 1.356 . S
C2485 C2484 1.363 . S
C2485 C2491 1.363 . S
C2486 C2487 1.363 . S
C2486 C2491 1.379 . S
C2486 N2493 1.356 . S
C2487 C2486 1.363 . S
C2487 C2490 1.363 . S
N2488 C2490 1.356 1_545 S
N2488 H2500 0.984 . S
N2488 H2501 0.985 . S
N2489 C2491 1.356 . S
N2489 H2494 0.984 . S
N2489 H2495 0.985 . S
C2490 C2484 1.379 . S
C2490 C2487 1.363 . S
C2490 N2488 1.356 1_565 S
C2491 C2485 1.363 . S
C2491 C2486 1.379 . S
C2491 N2489 1.356 . S
N2492 C2484 1.356 . S
N2492 H2498 0.984 . S
N2492 H2499 0.984 . S
N2493 C2486 1.356 . S
N2493 H2496 0.984 . S
N2493 H2497 0.985 . S
H2494 N2489 0.984 . S
H2495 N2489 0.985 . S
H2496 N2493 0.984 . S
H2497 N2493 0.985 . S
H2498 N2492 0.984 . S
H2499 N2492 0.984 . S
H2500 N2488 0.984 . S
H2501 N2488 0.985 . S
C2502 C2503 1.363 . S
C2502 C2508 1.379 . S
C2502 N2510 1.356 . S
C2503 C2502 1.363 . S
C2503 C2509 1.363 . S
C2504 C2505 1.363 . S
C2504 C2509 1.379 . S
C2504 N2511 1.356 . S
C2505 C2504 1.363 . S
C2505 C2508 1.363 . S
N2506 C2508 1.356 . S
N2506 H2518 0.984 . S
N2506 H2519 0.985 . S
N2507 C2509 1.356 . S
N2507 H2512 0.984 . S
N2507 H2513 0.985 . S
C2508 C2502 1.379 . S
C2508 C2505 1.363 . S
C2508 N2506 1.356 . S
C2509 C2503 1.363 . S
C2509 C2504 1.379 . S
C2509 N2507 1.356 . S
N2510 C2502 1.356 . S
N2510 H2516 0.984 . S
N2510 H2517 0.984 . S
N2511 C2504 1.356 . S
N2511 H2514 0.984 . S
N2511 H2515 0.985 . S
H2512 N2507 0.984 . S
H2513 N2507 0.985 . S
H2514 N2511 0.984 . S
H2515 N2511 0.985 . S
H2516 N2510 0.984 . S
H2517 N2510 0.984 . S
H2518 N2506 0.984 . S
H2519 N2506 0.985 . S
C2520 C2521 1.363 . S
C2520 C2526 1.379 . S
C2520 N2528 1.356 . S
C2521 C2520 1.363 . S
C2521 C2527 1.363 . S
C2522 C2523 1.363 . S
C2522 C2527 1.379 . S
C2522 N2529 1.356 . S
C2523 C2522 1.363 . S
C2523 C2526 1.363 . S
N2524 C2526 1.356 . S
N2524 H2536 0.984 . S
N2524 H2537 0.985 . S
N2525 C2527 1.356 . S
N2525 H2530 0.984 . S
N2525 H2531 0.985 . S
C2526 C2520 1.379 . S
C2526 C2523 1.363 . S
C2526 N2524 1.356 . S
C2527 C2521 1.363 . S
C2527 C2522 1.379 . S
C2527 N2525 1.356 . S
N2528 C2520 1.356 . S
N2528 H2534 0.984 . S
N2528 H2535 0.984 . S
N2529 C2522 1.356 . S
N2529 H2532 0.984 . S
N2529 H2533 0.985 . S
H2530 N2525 0.984 . S
H2531 N2525 0.985 . S
H2532 N2529 0.984 . S
H2533 N2529 0.985 . S
H2534 N2528 0.984 . S
H2535 N2528 0.984 . S
H2536 N2524 0.984 . S
H2537 N2524 0.985 . S
C2538 C2539 1.363 . S
C2538 C2544 1.379 . S
C2538 N2546 1.354 1_655 S
C2539 C2538 1.363 . S
C2539 C2545 1.363 . S
C2540 C2541 1.363 . S
C2540 C2545 1.379 . S
C2540 N2547 1.356 . S
C2541 C2540 1.363 . S
C2541 C2544 1.363 . S
N2542 C2544 1.356 1_455 S
N2542 H2554 0.984 . S
N2542 H2555 0.985 . S
N2543 C2545 1.356 . S
N2543 H2548 0.984 . S
N2543 H2549 0.985 . S
C2544 C2538 1.379 . S
C2544 C2541 1.363 . S
C2544 N2542 1.356 1_655 S
C2545 C2539 1.363 . S
C2545 C2540 1.379 . S
C2545 N2543 1.356 . S
N2546 C2538 1.354 1_455 S
N2546 H2552 0.989 . S
N2546 H2553 0.982 1_455 S
N2547 C2540 1.356 . S
N2547 H2550 0.984 . S
N2547 H2551 0.985 . S
H2548 N2543 0.984 . S
H2549 N2543 0.985 . S
H2550 N2547 0.984 . S
H2551 N2547 0.985 . S
H2552 N2546 0.989 . S
H2553 N2546 0.982 1_655 S
H2554 N2542 0.984 . S
H2555 N2542 0.985 . S
C2556 C2557 1.363 . S
C2556 C2562 1.379 . S
C2556 N2564 1.356 . S
C2557 C2556 1.363 . S
C2557 C2563 1.363 . S
C2558 C2559 1.363 . S
C2558 C2563 1.379 . S
C2558 N2565 1.356 . S
C2559 C2558 1.363 . S
C2559 C2562 1.363 . S
N2560 C2562 1.356 . S
N2560 H2572 0.984 . S
N2560 H2573 0.985 . S
N2561 C2563 1.356 . S
N2561 H2566 0.984 . S
N2561 H2567 0.985 . S
C2562 C2556 1.379 . S
C2562 C2559 1.363 . S
C2562 N2560 1.356 . S
C2563 C2557 1.363 . S
C2563 C2558 1.379 . S
C2563 N2561 1.356 . S
N2564 C2556 1.356 . S
N2564 H2570 0.984 . S
N2564 H2571 0.984 . S
N2565 C2558 1.356 . S
N2565 H2568 0.984 . S
N2565 H2569 0.985 . S
H2566 N2561 0.984 . S
H2567 N2561 0.985 . S
H2568 N2565 0.984 . S
H2569 N2565 0.985 . S
H2570 N2564 0.984 . S
H2571 N2564 0.984 . S
H2572 N2560 0.984 . S
H2573 N2560 0.985 . S
C2574 C2575 1.363 . S
C2574 C2580 1.379 . S
C2574 N2582 1.356 . S
C2575 C2574 1.363 . S
C2575 C2581 1.363 . S
C2576 C2577 1.363 . S
C2576 C2581 1.379 . S
C2576 N2583 1.356 . S
C2577 C2576 1.363 . S
C2577 C2580 1.363 . S
N2578 C2580 1.356 1_565 S
N2578 H2590 0.984 . S
N2578 H2591 0.985 . S
N2579 C2581 1.356 . S
N2579 H2584 0.984 . S
N2579 H2585 0.985 . S
C2580 C2574 1.379 . S
C2580 C2577 1.363 . S
C2580 N2578 1.356 1_545 S
C2581 C2575 1.363 . S
C2581 C2576 1.379 . S
C2581 N2579 1.356 . S
N2582 C2574 1.356 . S
N2582 H2588 0.984 . S
N2582 H2589 0.984 . S
N2583 C2576 1.356 . S
N2583 H2586 0.984 . S
N2583 H2587 0.985 . S
H2584 N2579 0.984 . S
H2585 N2579 0.985 . S
H2586 N2583 0.984 . S
H2587 N2583 0.985 . S
H2588 N2582 0.984 . S
H2589 N2582 0.984 . S
H2590 N2578 0.984 . S
H2591 N2578 0.985 . S
C2592 C2593 1.363 . S
C2592 C2598 1.379 . S
C2592 N2600 1.356 . S
C2593 C2592 1.363 . S
C2593 C2599 1.363 . S
C2594 C2595 1.363 . S
C2594 C2599 1.379 . S
C2594 N2601 1.356 . S
C2595 C2594 1.363 . S
C2595 C2598 1.363 . S
N2596 C2598 1.356 . S
N2596 H2608 0.984 . S
N2596 H2609 0.985 . S
N2597 C2599 1.356 . S
N2597 H2602 0.984 . S
N2597 H2603 0.985 . S
C2598 C2592 1.379 . S
C2598 C2595 1.363 . S
C2598 N2596 1.356 . S
C2599 C2593 1.363 . S
C2599 C2594 1.379 . S
C2599 N2597 1.356 . S
N2600 C2592 1.356 . S
N2600 H2606 0.984 . S
N2600 H2607 0.984 . S
N2601 C2594 1.356 . S
N2601 H2604 0.984 . S
N2601 H2605 0.985 . S
H2602 N2597 0.984 . S
H2603 N2597 0.985 . S
H2604 N2601 0.984 . S
H2605 N2601 0.985 . S
H2606 N2600 0.984 . S
H2607 N2600 0.984 . S
H2608 N2596 0.984 . S
H2609 N2596 0.985 . S
C2610 C2611 1.363 . S
C2610 C2616 1.379 . S
C2610 N2618 1.356 . S
C2611 C2610 1.363 . S
C2611 C2617 1.363 . S
C2612 C2613 1.363 . S
C2612 C2617 1.379 . S
C2612 N2619 1.356 . S
C2613 C2612 1.363 . S
C2613 C2616 1.363 . S
N2614 C2616 1.356 . S
N2614 H2626 0.984 . S
N2614 H2627 0.985 . S
N2615 C2617 1.356 . S
N2615 H2620 0.984 . S
N2615 H2621 0.985 . S
C2616 C2610 1.379 . S
C2616 C2613 1.363 . S
C2616 N2614 1.356 . S
C2617 C2611 1.363 . S
C2617 C2612 1.379 . S
C2617 N2615 1.356 . S
N2618 C2610 1.356 . S
N2618 H2624 0.984 . S
N2618 H2625 0.984 . S
N2619 C2612 1.356 . S
N2619 H2622 0.984 . S
N2619 H2623 0.985 . S
H2620 N2615 0.984 . S
H2621 N2615 0.985 . S
H2622 N2619 0.984 . S
H2623 N2619 0.985 . S
H2624 N2618 0.984 . S
H2625 N2618 0.984 . S
H2626 N2614 0.984 . S
H2627 N2614 0.985 . S
C2628 C2629 1.363 . S
C2628 C2634 1.379 . S
C2628 N2636 1.356 . S
C2629 C2628 1.363 . S
C2629 C2635 1.363 . S
C2630 C2631 1.363 . S
C2630 C2635 1.379 . S
C2630 N2637 1.356 . S
C2631 C2630 1.363 . S
C2631 C2634 1.363 . S
N2632 C2634 1.356 . S
N2632 H2644 0.984 . S
N2632 H2645 0.985 . S
N2633 C2635 1.356 . S
N2633 H2638 0.984 . S
N2633 H2639 0.985 . S
C2634 C2628 1.379 . S
C2634 C2631 1.363 . S
C2634 N2632 1.356 . S
C2635 C2629 1.363 . S
C2635 C2630 1.379 . S
C2635 N2633 1.356 . S
N2636 C2628 1.356 . S
N2636 H2642 0.984 . S
N2636 H2643 0.984 . S
N2637 C2630 1.356 . S
N2637 H2640 0.984 . S
N2637 H2641 0.985 . S
H2638 N2633 0.984 . S
H2639 N2633 0.985 . S
H2640 N2637 0.984 . S
H2641 N2637 0.985 . S
H2642 N2636 0.984 . S
H2643 N2636 0.984 . S
H2644 N2632 0.984 . S
H2645 N2632 0.985 . S
C2646 C2647 1.363 . S
C2646 C2652 1.379 . S
C2646 N2654 1.356 . S
C2647 C2646 1.363 . S
C2647 C2653 1.363 . S
C2648 C2649 1.363 . S
C2648 C2653 1.379 . S
C2648 N2655 1.356 . S
C2649 C2648 1.363 . S
C2649 C2652 1.363 . S
N2650 C2652 1.356 . S
N2650 H2662 0.984 . S
N2650 H2663 0.985 . S
N2651 C2653 1.356 . S
N2651 H2656 0.984 . S
N2651 H2657 0.985 . S
C2652 C2646 1.379 . S
C2652 C2649 1.363 . S
C2652 N2650 1.356 . S
C2653 C2647 1.363 . S
C2653 C2648 1.379 . S
C2653 N2651 1.356 . S
N2654 C2646 1.356 . S
N2654 H2660 0.984 . S
N2654 H2661 0.984 . S
N2655 C2648 1.356 . S
N2655 H2658 0.984 . S
N2655 H2659 0.985 . S
H2656 N2651 0.984 . S
H2657 N2651 0.985 . S
H2658 N2655 0.984 . S
H2659 N2655 0.985 . S
H2660 N2654 0.984 . S
H2661 N2654 0.984 . S
H2662 N2650 0.984 . S
H2663 N2650 0.985 . S
C2664 C2665 1.363 . S
C2664 C2670 1.379 . S
C2664 N2672 1.356 . S
C2665 C2664 1.363 . S
C2665 C2671 1.363 . S
C2666 C2667 1.363 . S
C2666 C2671 1.379 . S
C2666 N2673 1.356 . S
C2667 C2666 1.363 . S
C2667 C2670 1.363 . S
N2668 C2670 1.356 . S
N2668 H2680 0.984 . S
N2668 H2681 0.985 . S
N2669 C2671 1.356 . S
N2669 H2674 0.984 . S
N2669 H2675 0.985 . S
C2670 C2664 1.379 . S
C2670 C2667 1.363 . S
C2670 N2668 1.356 . S
C2671 C2665 1.363 . S
C2671 C2666 1.379 . S
C2671 N2669 1.356 . S
N2672 C2664 1.356 . S
N2672 H2678 0.984 . S
N2672 H2679 0.984 . S
N2673 C2666 1.356 . S
N2673 H2676 0.984 . S
N2673 H2677 0.985 . S
H2674 N2669 0.984 . S
H2675 N2669 0.985 . S
H2676 N2673 0.984 . S
H2677 N2673 0.985 . S
H2678 N2672 0.984 . S
H2679 N2672 0.984 . S
H2680 N2668 0.984 . S
H2681 N2668 0.985 . S
C2682 C2683 1.363 . S
C2682 C2688 1.379 . S
C2682 N2690 1.356 . S
C2683 C2682 1.363 . S
C2683 C2689 1.363 . S
C2684 C2685 1.363 . S
C2684 C2689 1.379 . S
C2684 N2691 1.356 . S
C2685 C2684 1.363 . S
C2685 C2688 1.363 . S
N2686 C2688 1.356 . S
N2686 H2698 0.984 . S
N2686 H2699 0.985 . S
N2687 C2689 1.356 . S
N2687 H2692 0.984 . S
N2687 H2693 0.985 . S
C2688 C2682 1.379 . S
C2688 C2685 1.363 . S
C2688 N2686 1.356 . S
C2689 C2683 1.363 . S
C2689 C2684 1.379 . S
C2689 N2687 1.356 . S
N2690 C2682 1.356 . S
N2690 H2696 0.984 . S
N2690 H2697 0.984 . S
N2691 C2684 1.356 . S
N2691 H2694 0.984 . S
N2691 H2695 0.985 . S
H2692 N2687 0.984 . S
H2693 N2687 0.985 . S
H2694 N2691 0.984 . S
H2695 N2691 0.985 . S
H2696 N2690 0.984 . S
H2697 N2690 0.984 . S
H2698 N2686 0.984 . S
H2699 N2686 0.985 . S
C2700 C2701 1.363 . S
C2700 C2706 1.379 . S
C2700 N2708 1.356 . S
C2701 C2700 1.363 . S
C2701 C2707 1.363 . S
C2702 C2703 1.363 . S
C2702 C2707 1.379 . S
C2702 N2709 1.356 . S
C2703 C2702 1.363 . S
C2703 C2706 1.363 . S
N2704 C2706 1.356 . S
N2704 H2716 0.984 . S
N2704 H2717 0.985 . S
N2705 C2707 1.356 . S
N2705 H2710 0.984 . S
N2705 H2711 0.985 . S
C2706 C2700 1.379 . S
C2706 C2703 1.363 . S
C2706 N2704 1.356 . S
C2707 C2701 1.363 . S
C2707 C2702 1.379 . S
C2707 N2705 1.356 . S
N2708 C2700 1.356 . S
N2708 H2714 0.984 . S
N2708 H2715 0.984 . S
N2709 C2702 1.356 . S
N2709 H2712 0.984 . S
N2709 H2713 0.985 . S
H2710 N2705 0.984 . S
H2711 N2705 0.985 . S
H2712 N2709 0.984 . S
H2713 N2709 0.985 . S
H2714 N2708 0.984 . S
H2715 N2708 0.984 . S
H2716 N2704 0.984 . S
H2717 N2704 0.985 . S
C2718 C2719 1.363 . S
C2718 C2724 1.379 . S
C2718 N2726 1.356 . S
C2719 C2718 1.363 . S
C2719 C2725 1.363 . S
C2720 C2721 1.363 . S
C2720 C2725 1.379 . S
C2720 N2727 1.356 . S
C2721 C2720 1.363 . S
C2721 C2724 1.363 . S
N2722 C2724 1.356 . S
N2722 H2734 0.984 . S
N2722 H2735 0.985 . S
N2723 C2725 1.356 . S
N2723 H2728 0.984 . S
N2723 H2729 0.985 . S
C2724 C2718 1.379 . S
C2724 C2721 1.363 . S
C2724 N2722 1.356 . S
C2725 C2719 1.363 . S
C2725 C2720 1.379 . S
C2725 N2723 1.356 . S
N2726 C2718 1.356 . S
N2726 H2732 0.984 . S
N2726 H2733 0.984 . S
N2727 C2720 1.356 . S
N2727 H2730 0.984 . S
N2727 H2731 0.985 . S
H2728 N2723 0.984 . S
H2729 N2723 0.985 . S
H2730 N2727 0.984 . S
H2731 N2727 0.985 . S
H2732 N2726 0.984 . S
H2733 N2726 0.984 . S
H2734 N2722 0.984 . S
H2735 N2722 0.985 . S
C2736 C2737 1.363 . S
C2736 C2742 1.379 . S
C2736 N2744 1.356 . S
C2737 C2736 1.363 . S
C2737 C2743 1.363 . S
C2738 C2739 1.363 . S
C2738 C2743 1.379 . S
C2738 N2745 1.356 . S
C2739 C2738 1.363 . S
C2739 C2742 1.363 . S
N2740 C2742 1.356 . S
N2740 H2752 0.984 . S
N2740 H2753 0.985 . S
N2741 C2743 1.356 . S
N2741 H2746 0.984 . S
N2741 H2747 0.985 . S
C2742 C2736 1.379 . S
C2742 C2739 1.363 . S
C2742 N2740 1.356 . S
C2743 C2737 1.363 . S
C2743 C2738 1.379 . S
C2743 N2741 1.356 . S
N2744 C2736 1.356 . S
N2744 H2750 0.984 . S
N2744 H2751 0.984 . S
N2745 C2738 1.356 . S
N2745 H2748 0.984 . S
N2745 H2749 0.985 . S
H2746 N2741 0.984 . S
H2747 N2741 0.985 . S
H2748 N2745 0.984 . S
H2749 N2745 0.985 . S
H2750 N2744 0.984 . S
H2751 N2744 0.984 . S
H2752 N2740 0.984 . S
H2753 N2740 0.985 . S
C2754 C2755 1.363 . S
C2754 C2760 1.379 . S
C2754 N2762 1.356 . S
C2755 C2754 1.363 . S
C2755 C2761 1.363 . S
C2756 C2757 1.363 . S
C2756 C2761 1.379 . S
C2756 N2763 1.356 . S
C2757 C2756 1.363 . S
C2757 C2760 1.363 . S
N2758 C2760 1.356 . S
N2758 H2770 0.984 . S
N2758 H2771 0.985 . S
N2759 C2761 1.356 . S
N2759 H2764 0.984 . S
N2759 H2765 0.985 . S
C2760 C2754 1.379 . S
C2760 C2757 1.363 . S
C2760 N2758 1.356 . S
C2761 C2755 1.363 . S
C2761 C2756 1.379 . S
C2761 N2759 1.356 . S
N2762 C2754 1.356 . S
N2762 H2768 0.984 . S
N2762 H2769 0.984 . S
N2763 C2756 1.356 . S
N2763 H2766 0.984 . S
N2763 H2767 0.985 . S
H2764 N2759 0.984 . S
H2765 N2759 0.985 . S
H2766 N2763 0.984 . S
H2767 N2763 0.985 . S
H2768 N2762 0.984 . S
H2769 N2762 0.984 . S
H2770 N2758 0.984 . S
H2771 N2758 0.985 . S
C2772 C2773 1.363 . S
C2772 C2778 1.379 . S
C2772 N2780 1.356 . S
C2773 C2772 1.363 . S
C2773 C2779 1.363 . S
C2774 C2775 1.363 . S
C2774 C2779 1.379 . S
C2774 N2781 1.356 . S
C2775 C2774 1.363 . S
C2775 C2778 1.363 . S
N2776 C2778 1.356 . S
N2776 H2788 0.984 . S
N2776 H2789 0.985 . S
N2777 C2779 1.356 . S
N2777 H2782 0.984 . S
N2777 H2783 0.985 . S
C2778 C2772 1.379 . S
C2778 C2775 1.363 . S
C2778 N2776 1.356 . S
C2779 C2773 1.363 . S
C2779 C2774 1.379 . S
C2779 N2777 1.356 . S
N2780 C2772 1.356 . S
N2780 H2786 0.984 . S
N2780 H2787 0.984 . S
N2781 C2774 1.356 . S
N2781 H2784 0.984 . S
N2781 H2785 0.985 . S
H2782 N2777 0.984 . S
H2783 N2777 0.985 . S
H2784 N2781 0.984 . S
H2785 N2781 0.985 . S
H2786 N2780 0.984 . S
H2787 N2780 0.984 . S
H2788 N2776 0.984 . S
H2789 N2776 0.985 . S
C2790 C2791 1.363 . S
C2790 C2796 1.379 . S
C2790 N2798 1.356 . S
C2791 C2790 1.363 . S
C2791 C2797 1.363 . S
C2792 C2793 1.363 . S
C2792 C2797 1.379 . S
C2792 N2799 1.356 . S
C2793 C2792 1.363 . S
C2793 C2796 1.363 . S
N2794 C2796 1.356 . S
N2794 H2806 0.984 . S
N2794 H2807 0.985 . S
N2795 C2797 1.356 . S
N2795 H2800 0.984 . S
N2795 H2801 0.985 . S
C2796 C2790 1.379 . S
C2796 C2793 1.363 . S
C2796 N2794 1.356 . S
C2797 C2791 1.363 . S
C2797 C2792 1.379 . S
C2797 N2795 1.356 . S
N2798 C2790 1.356 . S
N2798 H2804 0.984 . S
N2798 H2805 0.984 . S
N2799 C2792 1.356 . S
N2799 H2802 0.984 . S
N2799 H2803 0.985 . S
H2800 N2795 0.984 . S
H2801 N2795 0.985 . S
H2802 N2799 0.984 . S
H2803 N2799 0.985 . S
H2804 N2798 0.984 . S
H2805 N2798 0.984 . S
H2806 N2794 0.984 . S
H2807 N2794 0.985 . S
C1837 C781 1.470 . S
C1839 C1147 1.404 . S
C1855 C871 1.460 . S
C1857 C1231 1.419 . S
C1873 C751 1.477 . S
C1875 C1311 1.458 . S
C1891 C691 1.436 . S
C1893 C1227 1.419 . S
C1911 C1315 1.360 . S
C1909 C571 1.403 . S
C1927 C601 1.456 . S
C1929 C1143 1.404 . S
C1947 C1136 1.403 . S
C1945 C661 1.429 . S
C1965 C1220 1.421 . S
C1963 C541 1.447 . S
C1981 C631 1.526 . S
C1983 C1322 1.458 . S
C1999 C811 1.474 . S
C2001 C1238 1.417 . S
C2017 C841 1.396 . S
C2019 C1304 1.360 . S
C2037 C1154 1.407 . S
C2035 C721 1.409 . S
C2055 C1399 1.403 . S
C2053 C61 1.470 1_455 S
C2071 C151 1.460 . S
C2073 C1483 1.421 . S
C2089 C31 1.477 1_565 S
C2091 C1563 1.458 . S
C2107 C1051 1.436 . S
C2109 C1479 1.418 . S
C2125 C931 1.403 . S
C2127 C1567 1.361 . S
C2143 C961 1.456 . S
C2145 C1395 1.407 . S
C2161 C1021 1.429 . S
C2163 C1388 1.403 . S
C2179 C901 1.445 . S
C2181 C1472 1.421 . S
C2199 C1574 1.458 . S
C2197 C991 1.526 . S
C2215 C91 1.473 1_565 S
C2217 C1490 1.418 . S
C2235 C1556 1.360 . S
C2233 C121 1.374 1_455 S
C2251 C1 1.407 . S
C2253 C1406 1.407 . S
C2271 C1651 1.403 . S
C2269 C421 1.470 . S
C2287 C511 1.460 . S
C2289 C1735 1.421 . S
C2307 C1815 1.458 . S
C2305 C391 1.477 . S
C2325 C1731 1.418 . S
C2323 C331 1.436 1_545 S
C2343 C1819 1.360 . S
C2341 C211 1.403 1_655 S
C2359 C241 1.456 . S
C2361 C1647 1.407 . S
C2377 C301 1.429 1_655 S
C2379 C1640 1.403 . S
C2395 C181 1.445 . S
C2397 C1724 1.421 . S
C2415 C1826 1.458 . S
C2413 C271 1.526 1_545 S
C2431 C451 1.473 . S
C2433 C1742 1.418 . S
C2449 C481 1.396 . S
C2451 C1808 1.361 . S
C2467 C361 1.407 . S
C2469 C1658 1.407 . S
C2485 C920 1.461 . S
C2487 C1150 1.379 . S
C2505 C1234 1.368 . S
C2503 C980 1.503 . S
C2521 C1040 1.469 . S
C2523 C1306 1.363 . S
C2539 C380 1.491 . S
C2541 C1222 1.368 . S
C2557 C440 1.471 . S
C2559 C1318 1.363 . S
C2577 C1138 1.377 . S
C2575 C500 1.465 . S
C2593 C200 1.461 . S
C2595 C1402 1.377 . S
C2611 C260 1.503 . S
C2613 C1486 1.368 . S
C2629 C320 1.469 . S
C2631 C1558 1.363 . S
C2647 C740 1.490 . S
C2649 C1474 1.368 . S
C2667 C1570 1.363 . S
C2665 C800 1.471 . S
C2683 C860 1.466 . S
C2685 C1390 1.377 . S
C2701 C560 1.461 . S
C2703 C1654 1.377 . S
C2719 C620 1.503 . S
C2721 C1738 1.368 . S
C2739 C1810 1.363 . S
C2737 C680 1.470 . S
C2755 C20 1.491 . S
C2757 C1726 1.368 . S
C2773 C80 1.471 . S
C2775 C1822 1.363 . S
C2791 C140 1.466 . S
C2793 C1642 1.377 . S
