# Generated by pormake.
# Topology nom, (4,4)-cn, num edge types: 1
# Building blocks:
#     Node 0, Type 0, BuildingBlock: MUDLON_clean_linker_0, # of connection points: 4
#     Node 1, Type 0, BuildingBlock: MUDLON_clean_linker_0, # of connection points: 4
#     Node 2, Type 0, BuildingBlock: MUDLON_clean_linker_0, # of connection points: 4
#     Node 3, Type 0, BuildingBlock: MUDLON_clean_linker_0, # of connection points: 4
#     Node 4, Type 0, BuildingBlock: MUDLON_clean_linker_0, # of connection points: 4
#     Node 5, Type 0, BuildingBlock: MUDLON_clean_linker_0, # of connection points: 4
#     Node 6, Type 1, BuildingBlock: TATPOV_clean_sbu_0, # of connection points: 4
#     Node 7, Type 1, BuildingBlock: TATPOV_clean_sbu_0, # of connection points: 4
#     Node 8, Type 1, BuildingBlock: TATPOV_clean_sbu_0, # of connection points: 4
#     Node 9, Type 1, BuildingBlock: TATPOV_clean_sbu_0, # of connection points: 4
#     Node 10, Type 1, BuildingBlock: TATPOV_clean_sbu_0, # of connection points: 4
#     Node 11, Type 1, BuildingBlock: TATPOV_clean_sbu_0, # of connection points: 4
#     Edge 12, Type (0, 1), BuildingBlock: UVAHIK_clean_linker_0, # of connection points: 2
#     Edge 13, Type (0, 1), BuildingBlock: UVAHIK_clean_linker_0, # of connection points: 2
#     Edge 14, Type (0, 1), BuildingBlock: UVAHIK_clean_linker_0, # of connection points: 2
#     Edge 15, Type (0, 1), BuildingBlock: UVAHIK_clean_linker_0, # of connection points: 2
#     Edge 16, Type (0, 1), BuildingBlock: UVAHIK_clean_linker_0, # of connection points: 2
#     Edge 17, Type (0, 1), BuildingBlock: UVAHIK_clean_linker_0, # of connection points: 2
#     Edge 18, Type (0, 1), BuildingBlock: UVAHIK_clean_linker_0, # of connection points: 2
#     Edge 19, Type (0, 1), BuildingBlock: UVAHIK_clean_linker_0, # of connection points: 2
#     Edge 20, Type (0, 1), BuildingBlock: UVAHIK_clean_linker_0, # of connection points: 2
#     Edge 21, Type (0, 1), BuildingBlock: UVAHIK_clean_linker_0, # of connection points: 2
#     Edge 22, Type (0, 1), BuildingBlock: UVAHIK_clean_linker_0, # of connection points: 2
#     Edge 23, Type (0, 1), BuildingBlock: UVAHIK_clean_linker_0, # of connection points: 2
#     Edge 24, Type (0, 1), BuildingBlock: UVAHIK_clean_linker_0, # of connection points: 2
#     Edge 25, Type (0, 1), BuildingBlock: UVAHIK_clean_linker_0, # of connection points: 2
#     Edge 26, Type (0, 1), BuildingBlock: UVAHIK_clean_linker_0, # of connection points: 2
#     Edge 27, Type (0, 1), BuildingBlock: UVAHIK_clean_linker_0, # of connection points: 2
#     Edge 28, Type (0, 1), BuildingBlock: UVAHIK_clean_linker_0, # of connection points: 2
#     Edge 29, Type (0, 1), BuildingBlock: UVAHIK_clean_linker_0, # of connection points: 2
#     Edge 30, Type (0, 1), BuildingBlock: UVAHIK_clean_linker_0, # of connection points: 2
#     Edge 31, Type (0, 1), BuildingBlock: UVAHIK_clean_linker_0, # of connection points: 2
#     Edge 32, Type (0, 1), BuildingBlock: UVAHIK_clean_linker_0, # of connection points: 2
#     Edge 33, Type (0, 1), BuildingBlock: UVAHIK_clean_linker_0, # of connection points: 2
#     Edge 34, Type (0, 1), BuildingBlock: UVAHIK_clean_linker_0, # of connection points: 2
#     Edge 35, Type (0, 1), BuildingBlock: UVAHIK_clean_linker_0, # of connection points: 2
# Relax obj value: 0.022
# Max RMSD: 0.118
# Mean RMSD: 0.104
data_MOF--net-nom--node1-TATPOV_clean_sbu_0--node2-MUDLON_clean_linker_0--edge1-UVAHIK_clean_linker_0
_symmetry_space_group_name_H-M    P1
_symmetry_Int_Tables_number       1
_symmetry_cell_setting            triclinic
loop_
_symmetry_equiv_pos_as_xyz
'x, y, z'
_cell_length_a     72.738569
_cell_length_b     74.402616
_cell_length_c     73.308045
_cell_angle_alpha  90.884345
_cell_angle_beta   90.457794
_cell_angle_gamma 120.36805
loop_
_atom_site_label
_atom_site_type_symbol
_atom_site_fract_x
_atom_site_fract_y
_atom_site_fract_z
_atom_type_partial_charge
H0 H 0.10467 0.53015 0.31679 0.0
N1 N 0.07995 0.54502 0.33045 0.0
H2 H 0.13153 0.54629 0.29334 0.0
H3 H 0.08708 0.57693 0.31011 0.0
H4 H 0.11452 0.59384 0.28726 0.0
H5 H 0.09194 0.57752 0.35268 0.0
H6 H 0.11064 0.58455 0.38211 0.0
H7 H 0.09091 0.5193 0.34739 0.0
H8 H 0.10965 0.5261 0.377 0.0
H9 H 0.0675 0.50644 0.31546 0.0
H10 H 0.04468 0.54395 0.34073 0.0
H11 H 0.03088 0.47794 0.31082 0.0
H12 H 0.00805 0.51519 0.33721 0.0
H13 H 0.89882 0.39302 0.29429 0.0
H14 H 0.88364 0.38604 0.26342 0.0
H15 H 0.9342 0.44651 0.24727 0.0
H16 H 0.94854 0.45385 0.27796 0.0
H17 H 0.91018 0.45077 0.29856 0.0
H18 H 0.88113 0.45121 0.31425 0.0
H19 H 0.8825 0.41061 0.3551 0.0
H20 H 0.91239 0.41088 0.33951 0.0
H21 H 0.96258 0.42438 0.31774 0.0
H22 H 0.99945 0.45172 0.32459 0.0
H23 H 0.9823 0.49849 0.31416 0.0
N24 N 0.92986 0.42907 0.30817 0.0
H25 H 0.94587 0.47144 0.30818 0.0
C26 C 0.09379 0.55233 0.31506 0.0
C27 C 0.10632 0.54368 0.31002 0.0
C28 C 0.12186 0.55309 0.29673 0.0
C29 C 0.12536 0.57149 0.28843 0.0
C30 C 0.11212 0.57953 0.29305 0.0
C31 C 0.09648 0.56998 0.30619 0.0
C32 C 0.09011 0.54799 0.34799 0.0
C33 C 0.09566 0.56621 0.35803 0.0
C34 C 0.10624 0.57011 0.37482 0.0
C35 C 0.11151 0.55581 0.38191 0.0
C36 C 0.10591 0.53745 0.37181 0.0
C37 C 0.09518 0.53352 0.35496 0.0
C38 C 0.05873 0.52751 0.32808 0.0
C39 C 0.05462 0.50853 0.32008 0.0
C40 C 0.03361 0.49211 0.31765 0.0
C41 C 0.01639 0.49427 0.32345 0.0
C42 C 0.02078 0.51308 0.3321 0.0
C43 C 0.04169 0.52952 0.33425 0.0
C44 C 0.92455 0.42407 0.28891 0.0
C45 C 0.90684 0.40462 0.28399 0.0
C46 C 0.89821 0.40063 0.26628 0.0
C47 C 0.9074 0.41592 0.25292 0.0
C48 C 0.92626 0.43465 0.25738 0.0
C49 C 0.93463 0.4388 0.27514 0.0
C50 C 0.91357 0.43078 0.31792 0.0
C51 C 0.90455 0.44223 0.31105 0.0
C52 C 0.8877 0.44226 0.31994 0.0
C53 C 0.87928 0.43071 0.33581 0.0
C54 C 0.8887 0.41976 0.34297 0.0
C55 C 0.9057 0.41983 0.33408 0.0
C56 C 0.95132 0.44566 0.31256 0.0
C57 C 0.96684 0.44056 0.31713 0.0
C58 C 0.98792 0.45622 0.32089 0.0
C59 C 0.99392 0.47738 0.31999 0.0
C60 C 0.97827 0.48243 0.31544 0.0
C61 C 0.95724 0.46683 0.31194 0.0
H62 H 0.49914 0.93688 0.47933 0.0
N63 N 0.48237 0.95373 0.45649 0.0
H64 H 0.47983 0.91095 0.50249 0.0
H65 H 0.44341 0.94138 0.46816 0.0
H66 H 0.42379 0.91525 0.49111 0.0
H67 H 0.45676 0.94348 0.42749 0.0
H68 H 0.45558 0.9229 0.40063 0.0
H69 H 0.51069 0.94102 0.449 0.0
H70 H 0.50919 0.91972 0.4224 0.0
H71 H 0.52048 0.97329 0.47494 0.0
H72 H 0.47706 0.9835 0.44264 0.0
H73 H 0.54405 0.01091 0.47898 0.0
H74 H 0.50102 0.02109 0.44548 0.0
H75 H 0.61484 0.13514 0.49272 0.0
H76 H 0.61959 0.15017 0.5235 0.0
H77 H 0.55318 0.1071 0.53399 0.0
H78 H 0.54836 0.09293 0.50323 0.0
H79 H 0.54886 0.11982 0.47988 0.0
H80 H 0.54916 0.14879 0.46482 0.0
H81 H 0.60442 0.15946 0.43452 0.0
H82 H 0.60323 0.1295 0.44905 0.0
H83 H 0.59074 0.07976 0.47109 0.0
H84 H 0.56831 0.04224 0.46513 0.0
H85 H 0.51238 0.04853 0.46636 0.0
N86 N 0.57847 0.10752 0.47623 0.0
H87 H 0.53477 0.0857 0.47122 0.0
C88 C 0.47263 0.94104 0.47205 0.0
C89 C 0.48287 0.93258 0.48209 0.0
C90 C 0.47174 0.91763 0.49525 0.0
C91 C 0.45022 0.91092 0.49859 0.0
C92 C 0.44041 0.92022 0.48908 0.0
C93 C 0.45154 0.93511 0.47593 0.0
C94 C 0.48359 0.94349 0.4402 0.0
C95 C 0.46847 0.93865 0.42625 0.0
C96 C 0.46788 0.92698 0.41096 0.0
C97 C 0.48228 0.91971 0.40951 0.0
C98 C 0.49785 0.92506 0.42329 0.0
C99 C 0.49868 0.93712 0.43847 0.0
C100 C 0.49684 0.97571 0.45879 0.0
C101 C 0.51608 0.98367 0.46868 0.0
C102 C 0.52967 0.00524 0.47075 0.0
C103 C 0.52445 0.0192 0.46266 0.0
C104 C 0.50539 0.01097 0.45232 0.0
C105 C 0.49172 0.98948 0.45054 0.0
C106 C 0.58135 0.11293 0.49549 0.0
C107 C 0.60145 0.12867 0.50183 0.0
C108 C 0.60413 0.1372 0.51945 0.0
C109 C 0.58668 0.13002 0.53115 0.0
C110 C 0.56685 0.11331 0.52519 0.0
C111 C 0.56413 0.10497 0.50754 0.0
C112 C 0.57595 0.12225 0.46543 0.0
C113 C 0.56055 0.1278 0.4695 0.0
C114 C 0.56098 0.1447 0.46107 0.0
C115 C 0.57702 0.15673 0.44864 0.0
C116 C 0.59171 0.15048 0.44389 0.0
C117 C 0.59111 0.13338 0.45219 0.0
C118 C 0.56464 0.0857 0.47159 0.0
C119 C 0.57364 0.07299 0.4698 0.0
C120 C 0.56075 0.05151 0.4666 0.0
C121 C 0.53843 0.0422 0.46532 0.0
C122 C 0.52948 0.05506 0.4669 0.0
C123 C 0.54239 0.07653 0.46981 0.0
H124 H 0.49125 0.62174 0.63521 0.0
N125 N 0.48844 0.58884 0.6512 0.0
H126 H 0.46437 0.62303 0.61614 0.0
H127 H 0.45273 0.5548 0.63633 0.0
H128 H 0.42599 0.5558 0.61668 0.0
H129 H 0.4496 0.57134 0.66783 0.0
H130 H 0.44267 0.57989 0.69831 0.0
H131 H 0.51684 0.61469 0.67602 0.0
H132 H 0.50991 0.62263 0.70707 0.0
H133 H 0.52221 0.59366 0.63353 0.0
H134 H 0.46969 0.54976 0.66563 0.0
H135 H 0.53706 0.57064 0.63348 0.0
H136 H 0.48487 0.52702 0.66638 0.0
H137 H 0.59356 0.51304 0.64081 0.0
H138 H 0.6027 0.50313 0.61172 0.0
H139 H 0.53573 0.46529 0.59773 0.0
H140 H 0.5268 0.47522 0.62679 0.0
H141 H 0.52381 0.45901 0.65534 0.0
H142 H 0.52473 0.43336 0.6749 0.0
H143 H 0.57955 0.48263 0.70392 0.0
H144 H 0.57909 0.50808 0.68348 0.0
H145 H 0.57251 0.54083 0.6568 0.0
H146 H 0.55481 0.56125 0.65544 0.0
H147 H 0.49383 0.50436 0.6496 0.0
N148 N 0.555 0.50002 0.65372 0.0
H149 H 0.51179 0.48408 0.65177 0.0
C150 C 0.47409 0.58829 0.6372 0.0
C151 C 0.47726 0.60727 0.63082 0.0
C152 C 0.46186 0.60793 0.61985 0.0
C153 C 0.44288 0.58951 0.61491 0.0
C154 C 0.44026 0.57031 0.62045 0.0
C155 C 0.45568 0.56969 0.63154 0.0
C156 C 0.48381 0.59276 0.66946 0.0
C157 C 0.4629 0.58274 0.67611 0.0
C158 C 0.45891 0.58758 0.69355 0.0
C159 C 0.47576 0.60204 0.70484 0.0
C160 C 0.4967 0.6115 0.69851 0.0
C161 C 0.50064 0.607 0.68087 0.0
C162 C 0.49509 0.57362 0.64972 0.0
C163 C 0.51383 0.57896 0.64045 0.0
C164 C 0.52238 0.56587 0.64063 0.0
C165 C 0.51241 0.54716 0.65028 0.0
C166 C 0.49297 0.54128 0.65882 0.0
C167 C 0.48432 0.55435 0.65848 0.0
C168 C 0.55961 0.49495 0.63596 0.0
C169 C 0.58092 0.50278 0.63135 0.0
C170 C 0.58607 0.49713 0.61475 0.0
C171 C 0.56991 0.4834 0.60247 0.0
C172 C 0.5485 0.47571 0.60702 0.0
C173 C 0.54338 0.48148 0.6236 0.0
C174 C 0.55167 0.48546 0.66778 0.0
C175 C 0.53574 0.46437 0.66613 0.0
C176 C 0.53624 0.44967 0.67746 0.0
C177 C 0.55251 0.45583 0.69079 0.0
C178 C 0.56715 0.47724 0.69349 0.0
C179 C 0.56678 0.49185 0.682 0.0
C180 C 0.54354 0.51107 0.65431 0.0
C181 C 0.55531 0.53283 0.65542 0.0
C182 C 0.54515 0.54443 0.6544 0.0
C183 C 0.52289 0.53448 0.65205 0.0
C184 C 0.51098 0.51253 0.65142 0.0
C185 C 0.52123 0.5009 0.65258 0.0
H186 H 0.10343 0.58683 0.82294 0.0
N187 N 0.07287 0.55274 0.80651 0.0
H188 H 0.13228 0.58999 0.84233 0.0
H189 H 0.07487 0.52007 0.82132 0.0
H190 H 0.10284 0.52283 0.84165 0.0
H191 H 0.08418 0.52877 0.7864 0.0
H192 H 0.10268 0.53805 0.75725 0.0
H193 H 0.08133 0.58518 0.78643 0.0
H194 H 0.10031 0.59498 0.75769 0.0
H195 H 0.04601 0.5647 0.81703 0.0
H196 H 0.04868 0.5108 0.79879 0.0
H197 H 0.00733 0.54378 0.81839 0.0
H198 H 0.01004 0.48923 0.80133 0.0
H199 H 0.88631 0.47892 0.82861 0.0
H200 H 0.8684 0.46607 0.85762 0.0
H201 H 0.90066 0.43115 0.86445 0.0
H202 H 0.91891 0.44459 0.83558 0.0
H203 H 0.90282 0.42968 0.80578 0.0
H204 H 0.87344 0.4049 0.78603 0.0
H205 H 0.86633 0.45524 0.7654 0.0
H206 H 0.89493 0.47965 0.78611 0.0
H207 H 0.94098 0.50064 0.83491 0.0
H208 H 0.97957 0.51885 0.8348 0.0
H209 H 0.97718 0.48139 0.78815 0.0
N210 N 0.91349 0.47015 0.81254 0.0
H211 H 0.9385 0.46209 0.78918 0.0
C212 C 0.08698 0.55332 0.82069 0.0
C213 C 0.10303 0.57281 0.82732 0.0
C214 C 0.11948 0.57453 0.83851 0.0
C215 C 0.12011 0.55666 0.84354 0.0
C216 C 0.1032 0.53698 0.83776 0.0
C217 C 0.08694 0.53532 0.82627 0.0
C218 C 0.08131 0.55632 0.78843 0.0
C219 C 0.08721 0.54297 0.77994 0.0
C220 C 0.09799 0.54842 0.7634 0.0
C221 C 0.10305 0.5673 0.75512 0.0
C222 C 0.0964 0.58018 0.76345 0.0
C223 C 0.08561 0.57468 0.77991 0.0
C224 C 0.05024 0.53931 0.8082 0.0
C225 C 0.03819 0.54819 0.81372 0.0
C226 C 0.01606 0.5361 0.8146 0.0
C227 C 0.00539 0.51462 0.81024 0.0
C228 C 0.01759 0.5057 0.80469 0.0
C229 C 0.03979 0.51797 0.8035 0.0
C230 C 0.90387 0.46276 0.83001 0.0
C231 C 0.88953 0.46857 0.83645 0.0
C232 C 0.8792 0.46105 0.85291 0.0
C233 C 0.88297 0.44743 0.86327 0.0
C234 C 0.89752 0.44171 0.85685 0.0
C235 C 0.90788 0.44929 0.84034 0.0
C236 C 0.90072 0.45647 0.79766 0.0
C237 C 0.89518 0.43542 0.79678 0.0
C238 C 0.87842 0.42126 0.78533 0.0
C239 C 0.8671 0.42796 0.7744 0.0
C240 C 0.87423 0.44941 0.77402 0.0
C241 C 0.89077 0.46346 0.78564 0.0
C242 C 0.93649 0.47969 0.81231 0.0
C243 C 0.94872 0.49601 0.82486 0.0
C244 C 0.9709 0.50667 0.8246 0.0
C245 C 0.98168 0.50187 0.81131 0.0
C246 C 0.96952 0.4854 0.79876 0.0
C247 C 0.9472 0.47436 0.79928 0.0
H248 H 0.53696 0.10646 0.00075 0.0
N249 N 0.54707 0.08731 0.9754 0.0
H250 H 0.56149 0.1355 0.02079 0.0
H251 H 0.58905 0.10023 0.98097 0.0
H252 H 0.61407 0.13014 1e-05 0.0
H253 H 0.57745 0.09444 0.95037 0.0
H254 H 0.58164 0.1106 0.92081 0.0
H255 H 0.52126 0.09843 0.95997 0.0
H256 H 0.52549 0.11501 0.93047 0.0
H257 H 0.51019 0.06261 0.99095 0.0
H258 H 0.56303 0.06257 0.96499 0.0
H259 H 0.49172 0.02472 0.99284 0.0
H260 H 0.54421 0.02449 0.9657 0.0
H261 H 0.4276 0.90335 0.99004 0.0
H262 H 0.41633 0.88589 0.01916 0.0
H263 H 0.4802 0.92521 0.04109 0.0
H264 H 0.49149 0.94152 0.01167 0.0
H265 H 0.49392 0.91727 0.98548 0.0
H266 H 0.49269 0.88827 0.96837 0.0
H267 H 0.44669 0.88837 0.9307 0.0
H268 H 0.44738 0.9168 0.94849 0.0
H269 H 0.45263 0.95788 0.97422 0.0
H270 H 0.47332 0.99581 0.97314 0.0
H271 H 0.53106 0.99409 0.98343 0.0
N272 N 0.46658 0.93195 0.98059 0.0
H273 H 0.51014 0.95597 0.98343 0.0
C274 C 0.56126 0.10152 0.98924 0.0
C275 C 0.55372 0.11126 0.00096 0.0
C276 C 0.56782 0.128 0.0122 0.0
C277 C 0.58989 0.13559 0.01169 0.0
C278 C 0.59722 0.12479 0.0008 0.0
C279 C 0.58297 0.10777 0.98975 0.0
C280 C 0.54894 0.09519 0.95732 0.0
C281 C 0.56589 0.09861 0.94605 0.0
C282 C 0.56836 0.10803 0.9292 0.0
C283 C 0.55396 0.11418 0.92331 0.0
C284 C 0.53672 0.11024 0.93448 0.0
C285 C 0.53429 0.10084 0.95133 0.0
C286 C 0.53774 0.06529 0.97764 0.0
C287 C 0.51776 0.05432 0.98566 0.0
C288 C 0.50716 0.03265 0.9865 0.0
C289 C 0.51621 0.02139 0.97903 0.0
C290 C 0.53672 0.03257 0.9716 0.0
C291 C 0.54747 0.05437 0.97103 0.0
C292 C 0.46024 0.92388 -0.00135 0.0
C293 C 0.43905 0.9083 0.00124 0.0
C294 C 0.43265 0.89842 0.01795 0.0
C295 C 0.44733 0.9041 0.03259 0.0
C296 C 0.4685 0.92014 0.03009 0.0
C297 C 0.47496 0.92977 0.01325 0.0
C298 C 0.47044 0.91894 0.96836 0.0
C299 C 0.48399 0.91139 0.97328 0.0
C300 C 0.4833 0.8948 0.96342 0.0
C301 C 0.46923 0.88565 0.94836 0.0
C302 C 0.45728 0.89466 0.94251 0.0
C303 C 0.45782 0.91106 0.95249 0.0
C304 C 0.47976 0.95418 0.97905 0.0
C305 C 0.46977 0.96575 0.97607 0.0
C306 C 0.48165 0.98745 0.97569 0.0
C307 C 0.50389 0.99815 0.97857 0.0
C308 C 0.514 0.98643 0.9811 0.0
C309 C 0.50205 0.96461 0.98122 0.0
H310 H 0.50851 0.40621 0.15074 0.0
N311 N 0.50887 0.4407 0.1609 0.0
H312 H 0.534 0.40325 0.13143 0.0
H313 H 0.53776 0.47139 0.1383 0.0
H314 H 0.5624 0.46833 0.11829 0.0
H315 H 0.55026 0.46284 0.17345 0.0
H316 H 0.56353 0.45944 0.20324 0.0
H317 H 0.48594 0.41891 0.18903 0.0
H318 H 0.49922 0.4162 0.21925 0.0
H319 H 0.4697 0.43065 0.15098 0.0
H320 H 0.53065 0.48301 0.16711 0.0
H321 H 0.45466 0.45337 0.14946 0.0
H322 H 0.51629 0.50627 0.16442 0.0
H323 H 0.41229 0.52834 0.1336 0.0
H324 H 0.41369 0.54737 0.10629 0.0
H325 H 0.48253 0.579 0.10838 0.0
H326 H 0.48083 0.55931 0.1355 0.0
H327 H 0.47624 0.5705 0.16585 0.0
H328 H 0.47063 0.59395 0.1855 0.0
H329 H 0.40692 0.54385 0.19637 0.0
H330 H 0.41242 0.52081 0.17587 0.0
H331 H 0.43642 0.49961 0.1324 0.0
H332 H 0.45344 0.4787 0.13283 0.0
H333 H 0.4941 0.51671 0.17782 0.0
N334 N 0.44473 0.53219 0.15342 0.0
H335 H 0.47804 0.53849 0.17636 0.0
C336 C 0.52113 0.43894 0.14625 0.0
C337 C 0.51995 0.41971 0.14336 0.0
C338 C 0.53454 0.41806 0.13222 0.0
C339 C 0.55056 0.43564 0.12345 0.0
C340 C 0.55067 0.45457 0.1252 0.0
C341 C 0.5363 0.45629 0.1366 0.0
C342 C 0.51705 0.44077 0.17891 0.0
C343 C 0.53897 0.45262 0.1833 0.0
C344 C 0.54655 0.4507 0.20029 0.0
C345 C 0.53234 0.43746 0.21331 0.0
C346 C 0.5104 0.42646 0.20932 0.0
C347 C 0.50285 0.428 0.19217 0.0
C348 C 0.50126 0.4551 0.15884 0.0
C349 C 0.47992 0.44718 0.15379 0.0
C350 C 0.47144 0.46029 0.15283 0.0
C351 C 0.48427 0.48183 0.15663 0.0
C352 C 0.50581 0.48979 0.1616 0.0
C353 C 0.51416 0.47653 0.16291 0.0
C354 C 0.44636 0.54242 0.13649 0.0
C355 C 0.42763 0.53922 0.128 0.0
C356 C 0.42851 0.55031 0.11257 0.0
C357 C 0.44825 0.56497 0.10534 0.0
C358 C 0.46709 0.56781 0.11361 0.0
C359 C 0.46616 0.55663 0.1291 0.0
C360 C 0.44454 0.54396 0.16915 0.0
C361 C 0.46129 0.56441 0.17285 0.0
C362 C 0.45806 0.5778 0.18421 0.0
C363 C 0.43811 0.57094 0.19217 0.0
C364 C 0.42228 0.54981 0.19006 0.0
C365 C 0.42546 0.53651 0.17856 0.0
C366 C 0.45576 0.52061 0.15429 0.0
C367 C 0.44917 0.50355 0.14224 0.0
C368 C 0.4588 0.49145 0.14266 0.0
C369 C 0.47502 0.49573 0.15554 0.0
C370 C 0.48185 0.51302 0.16755 0.0
C371 C 0.47246 0.52546 0.16684 0.0
Zn372 Zn 0.66751 0.44922 0.40524 0.0
Zn373 Zn 0.64625 0.40758 0.40813 0.0
O374 O 0.67744 0.41533 0.40448 0.0
O375 O 0.69493 0.44929 0.4011 0.0
O376 O 0.63158 0.37651 0.41139 0.0
O377 O 0.65905 0.45228 0.43055 0.0
O378 O 0.63965 0.41814 0.43207 0.0
C379 C 0.6948 0.43223 0.40168 0.0
C380 C 0.63405 0.42763 0.37797 0.0
O381 O 0.63191 0.41128 0.38531 0.0
O382 O 0.64771 0.44553 0.3842 0.0
C383 C 0.6329 0.36462 0.39948 0.0
O384 O 0.64336 0.37273 0.38445 0.0
C385 C 0.64615 0.4362 0.43909 0.0
Zn386 Zn 0.24424 0.68829 0.56932 0.0
Zn387 Zn 0.26794 0.67016 0.5721 0.0
O388 O 0.29004 0.70145 0.56899 0.0
O389 O 0.27066 0.71651 0.56792 0.0
O390 O 0.2865 0.65736 0.57537 0.0
O391 O 0.23116 0.67704 0.59351 0.0
O392 O 0.25051 0.66206 0.59584 0.0
C393 C 0.28871 0.71784 0.56777 0.0
C394 C 0.23506 0.65743 0.54094 0.0
O395 O 0.24938 0.65545 0.54923 0.0
O396 O 0.23024 0.67065 0.54665 0.0
C397 C 0.29103 0.64842 0.56272 0.0
O398 O 0.28334 0.64709 0.54617 0.0
C399 C 0.2365 0.6658 0.60225 0.0
Zn400 Zn 0.56254 0.23813 0.72724 0.0
Zn401 Zn 0.60534 0.26165 0.7318 0.0
O402 O 0.5949 0.28276 0.73133 0.0
O403 O 0.55998 0.26391 0.72845 0.0
O404 O 0.63714 0.28047 0.73488 0.0
O405 O 0.56175 0.22332 0.75037 0.0
O406 O 0.59653 0.24292 0.7542 0.0
C407 C 0.5768 0.28155 0.7301 0.0
C408 C 0.58591 0.23341 0.69775 0.0
O409 O 0.60203 0.24608 0.7075 0.0
O410 O 0.56726 0.22787 0.70299 0.0
C411 C 0.65057 0.2747 0.73171 0.0
O412 O 0.64368 0.25532 0.72648 0.0
C413 C 0.57857 0.22834 0.75954 0.0
Zn414 Zn 0.36072 0.58794 0.9046 0.0
Zn415 Zn 0.37487 0.62884 0.90692 0.0
O416 O 0.34227 0.61583 0.9041 0.0
O417 O 0.33084 0.58237 0.90039 0.0
O418 O 0.38582 0.65971 0.90882 0.0
O419 O 0.37189 0.5889 0.92988 0.0
O420 O 0.38569 0.62292 0.93098 0.0
C421 C 0.32705 0.59721 0.90121 0.0
C422 C 0.39047 0.61092 0.87681 0.0
O423 O 0.38939 0.6261 0.88389 0.0
O424 O 0.38018 0.59295 0.88349 0.0
C425 C 0.40575 0.67257 0.90994 0.0
O426 O 0.41898 0.66542 0.90989 0.0
C427 C 0.38291 0.60625 0.93819 0.0
Zn428 Zn 0.77559 0.43221 0.06933 0.0
Zn429 Zn 0.75123 0.39042 0.06632 0.0
O430 O 0.72967 0.40044 0.06985 0.0
O431 O 0.74937 0.43458 0.07242 0.0
O432 O 0.73211 0.35928 0.06377 0.0
O433 O 0.78697 0.43248 0.04424 0.0
O434 O 0.76737 0.39828 0.04217 0.0
C435 C 0.73121 0.41819 0.07209 0.0
C436 C 0.78517 0.41063 0.09682 0.0
O437 O 0.77042 0.39444 0.08862 0.0
O438 O 0.7902 0.42859 0.09134 0.0
C439 C 0.73887 0.34659 0.06526 0.0
O440 O 0.75921 0.35386 0.0687 0.0
C441 C 0.78101 0.4156 0.03541 0.0
Zn442 Zn 0.35203 0.7789 0.23271 0.0
Zn443 Zn 0.37164 0.75716 0.2265 0.0
O444 O 0.33992 0.7348 0.22856 0.0
O445 O 0.3233 0.7526 0.23023 0.0
O446 O 0.3853 0.73971 0.22241 0.0
O447 O 0.36627 0.79576 0.21048 0.0
O448 O 0.37929 0.77543 0.20379 0.0
C449 C 0.32269 0.7353 0.22931 0.0
C450 C 0.38202 0.78455 0.26108 0.0
O451 O 0.38616 0.77361 0.25018 0.0
O452 O 0.36716 0.78812 0.25728 0.0
C453 C 0.38431 0.72764 0.23495 0.0
O454 O 0.37481 0.7273 0.25022 0.0
C455 C 0.37661 0.7906 0.19991 0.0
C456 C 0.16368 0.58509 0.28054 0.0
C457 C 0.14393 0.58342 0.27641 0.0
C458 C 0.18192 0.59872 0.27101 0.0
C459 C 0.20415 0.64841 0.24937 0.0
H460 H 0.24856 0.63782 0.2334 0.0
C461 C 0.28325 0.7155 0.2243 0.0
C462 C 0.3019 0.71577 0.22985 0.0
C463 C 0.26334 0.69761 0.22623 0.0
C464 C 0.23641 0.6411 0.23794 0.0
H465 H 0.12768 0.59364 0.25799 0.0
H466 H 0.15971 0.61791 0.24177 0.0
H467 H 0.21459 0.60894 0.24346 0.0
H468 H 0.31447 0.69739 0.24126 0.0
H469 H 0.2797 0.66645 0.24548 0.0
H470 H 0.22604 0.68055 0.24504 0.0
C471 C 0.16098 0.60869 0.25246 0.0
C472 C 0.21692 0.62452 0.24357 0.0
C473 C 0.14269 0.59487 0.26183 0.0
C474 C 0.30033 0.69758 0.23682 0.0
C475 C 0.28036 0.67979 0.23912 0.0
C476 C 0.22368 0.66499 0.24404 0.0
C477 C 0.18085 0.61112 0.25728 0.0
C478 C 0.20069 0.62807 0.2495 0.0
C479 C 0.26155 0.6797 0.23417 0.0
C480 C 0.2402 0.66164 0.23843 0.0
H481 H 0.16539 0.57678 0.29181 0.0
H482 H 0.19708 0.60045 0.27512 0.0
H483 H 0.19206 0.65165 0.25419 0.0
H484 H 0.28401 0.72921 0.21862 0.0
H485 H 0.24933 0.698 0.22176 0.0
C486 C 0.57636 0.18979 0.45401 0.0
C487 C 0.5796 0.17671 0.44205 0.0
C488 C 0.58027 0.20926 0.4485 0.0
C489 C 0.58856 0.24178 0.4081 0.0
H490 H 0.61725 0.2871 0.44364 0.0
C491 C 0.62634 0.32916 0.39035 0.0
C492 C 0.62413 0.34222 0.40312 0.0
C493 C 0.61937 0.30837 0.39435 0.0
C494 C 0.60899 0.27459 0.43362 0.0
H495 H 0.5889 0.17377 0.41463 0.0
H496 H 0.59626 0.20808 0.40514 0.0
H497 H 0.60805 0.25203 0.45184 0.0
H498 H 0.6122 0.34344 0.42987 0.0
H499 H 0.59999 0.30723 0.43678 0.0
H500 H 0.58986 0.2646 0.3898 0.0
C501 C 0.59044 0.20309 0.41875 0.0
C502 C 0.60369 0.25444 0.43833 0.0
C503 C 0.58643 0.1835 0.42426 0.0
C504 C 0.61428 0.33387 0.41976 0.0
C505 C 0.60737 0.31313 0.42377 0.0
C506 C 0.59395 0.26201 0.40336 0.0
C507 C 0.5877 0.21633 0.43092 0.0
C508 C 0.59332 0.23775 0.42567 0.0
C509 C 0.61012 0.30022 0.41123 0.0
C510 C 0.60415 0.27863 0.41611 0.0
H511 H 0.57143 0.1853 0.4679 0.0
H512 H 0.57765 0.21889 0.45814 0.0
H513 H 0.58041 0.22926 0.39808 0.0
H514 H 0.63384 0.33508 0.37739 0.0
H515 H 0.62186 0.29888 0.38445 0.0
C516 C 0.42958 0.60594 0.59258 0.0
C517 C 0.42523 0.59066 0.60561 0.0
C518 C 0.41339 0.60911 0.58595 0.0
C519 C 0.36122 0.60122 0.59988 0.0
H520 H 0.36091 0.62162 0.55161 0.0
C521 C 0.31504 0.64312 0.58384 0.0
C522 C 0.30501 0.63976 0.56664 0.0
C523 C 0.32839 0.63516 0.58756 0.0
C524 C 0.36057 0.6157 0.56508 0.0
H525 H 0.40005 0.56598 0.62109 0.0
H526 H 0.37176 0.57093 0.60898 0.0
H527 H 0.38582 0.60984 0.5589 0.0
H528 H 0.30102 0.62521 0.53991 0.0
H529 H 0.32405 0.61099 0.54651 0.0
H530 H 0.3358 0.60675 0.60601 0.0
C531 C 0.38782 0.58086 0.60425 0.0
C532 C 0.37504 0.60916 0.56933 0.0
C533 C 0.40403 0.5778 0.61099 0.0
C534 C 0.30857 0.62815 0.55327 0.0
C535 C 0.32186 0.62009 0.55703 0.0
C536 C 0.3467 0.60763 0.59561 0.0
C537 C 0.39239 0.59697 0.59207 0.0
C538 C 0.37577 0.60213 0.58688 0.0
C539 C 0.33196 0.62351 0.57423 0.0
C540 C 0.34642 0.61529 0.57826 0.0
H541 H 0.44565 0.6159 0.58788 0.0
H542 H 0.41759 0.62173 0.57666 0.0
H543 H 0.36145 0.59617 0.61361 0.0
H544 H 0.31275 0.65209 0.59442 0.0
H545 H 0.3362 0.63846 0.60083 0.0
C546 C 0.84347 0.39367 0.7577 0.0
C547 C 0.84657 0.41253 0.76527 0.0
C548 C 0.82337 0.37839 0.75098 0.0
C549 C 0.7706 0.37004 0.73628 0.0
H550 H 0.74893 0.3137 0.75283 0.0
C551 C 0.68097 0.31073 0.73851 0.0
C552 C 0.67372 0.28985 0.73356 0.0
C553 C 0.70275 0.32515 0.74012 0.0
C554 C 0.75482 0.32927 0.74783 0.0
H555 H 0.83074 0.42997 0.77156 0.0
H556 H 0.79612 0.40368 0.75964 0.0
H557 H 0.78615 0.34008 0.75887 0.0
H558 H 0.68378 0.26776 0.72639 0.0
H559 H 0.72191 0.29302 0.72918 0.0
H560 H 0.73921 0.3594 0.72559 0.0
C561 C 0.80925 0.40077 0.75864 0.0
C562 C 0.77617 0.34438 0.75127 0.0
C563 C 0.82921 0.41593 0.76544 0.0
C564 C 0.68882 0.28372 0.73027 0.0
C565 C 0.71066 0.29817 0.73193 0.0
C566 C 0.7493 0.35496 0.73284 0.0
C567 C 0.80598 0.3817 0.75158 0.0
C568 C 0.78417 0.36506 0.7459 0.0
C569 C 0.71787 0.31907 0.73684 0.0
C570 C 0.74102 0.33451 0.73894 0.0
H571 H 0.85651 0.39059 0.75717 0.0
H572 H 0.82139 0.36392 0.74545 0.0
H573 H 0.77637 0.38574 0.73167 0.0
H574 H 0.6698 0.316 0.74119 0.0
H575 H 0.70773 0.34103 0.74424 0.0
C576 C 0.44415 0.84978 0.93572 0.0
C577 C 0.46514 0.86546 0.94021 0.0
C578 C 0.43969 0.83004 0.92982 0.0
C579 C 0.46037 0.79434 0.93324 0.0
H580 H 0.41636 0.76216 0.89678 0.0
C581 C 0.43596 0.70948 0.91313 0.0
C582 C 0.41395 0.69528 0.91143 0.0
C583 C 0.44368 0.73089 0.91482 0.0
C584 C 0.4286 0.7709 0.90707 0.0
H585 H 0.49802 0.87275 0.94136 0.0
H586 H 0.49017 0.8381 0.9311 0.0
H587 H 0.42767 0.79874 0.90233 0.0
H588 H 0.3828 0.69249 0.91004 0.0
H589 H 0.39624 0.72976 0.91316 0.0
H590 H 0.461 0.76638 0.93824 0.0
C591 C 0.47715 0.84115 0.93234 0.0
C592 C 0.43511 0.79187 0.91022 0.0
C593 C 0.48165 0.86099 0.93821 0.0
C594 C 0.39985 0.70299 0.9113 0.0
C595 C 0.40757 0.72438 0.91295 0.0
C596 C 0.45386 0.77335 0.93008 0.0
C597 C 0.45607 0.82537 0.92831 0.0
C598 C 0.45081 0.80375 0.92357 0.0
C599 C 0.42957 0.73859 0.9148 0.0
C600 C 0.43763 0.76129 0.91718 0.0
H601 H 0.43093 0.85243 0.93749 0.0
H602 H 0.42323 0.81818 0.92716 0.0
H603 H 0.4723 0.80295 0.94379 0.0
H604 H 0.44727 0.70408 0.91322 0.0
H605 H 0.46073 0.74143 0.91603 0.0
C606 C 0.56476 0.41649 0.10496 0.0
C607 C 0.56827 0.43472 0.1142 0.0
C608 C 0.58191 0.41484 0.09846 0.0
C609 C 0.63982 0.43791 0.10702 0.0
H610 H 0.63754 0.40726 0.06297 0.0
C611 C 0.71403 0.43917 0.0796 0.0
C612 C 0.71193 0.41982 0.07485 0.0
C613 C 0.69609 0.44078 0.08306 0.0
C614 C 0.6383 0.41574 0.07537 0.0
H615 H 0.59276 0.46583 0.12312 0.0
H616 H 0.62227 0.46332 0.11102 0.0
H617 H 0.60702 0.41107 0.07084 0.0
H618 H 0.6892 0.38709 0.06949 0.0
H619 H 0.65772 0.39 0.07548 0.0
H620 H 0.67112 0.44278 0.11146 0.0
C621 C 0.60633 0.45003 0.10926 0.0
C622 C 0.62084 0.41791 0.0799 0.0
C623 C 0.58927 0.4516 0.11592 0.0
C624 C 0.69138 0.4022 0.07318 0.0
C625 C 0.67335 0.40387 0.07651 0.0
C626 C 0.65727 0.43591 0.10241 0.0
C627 C 0.60295 0.43143 0.10091 0.0
C628 C 0.62143 0.42911 0.09577 0.0
C629 C 0.67558 0.42314 0.08174 0.0
C630 C 0.65675 0.42488 0.08652 0.0
H631 H 0.5488 0.40329 0.10309 0.0
H632 H 0.57868 0.40026 0.09213 0.0
H633 H 0.64068 0.44614 0.1196 0.0
H634 H 0.72959 0.45309 0.08094 0.0
H635 H 0.69827 0.45588 0.08683 0.0
C636 C 0.42191 0.89309 0.52203 0.0
C637 C 0.43744 0.89313 0.51072 0.0
C638 C 0.40797 0.87527 0.53154 0.0
C639 C 0.39789 0.82365 0.54647 0.0
H640 H 0.33867 0.8083 0.54064 0.0
C641 C 0.32694 0.74033 0.55882 0.0
C642 C 0.30799 0.73849 0.56541 0.0
C643 C 0.34425 0.75992 0.55473 0.0
C644 C 0.35512 0.81246 0.54275 0.0
H645 H 0.45103 0.87467 0.50116 0.0
H646 H 0.42676 0.84363 0.5178 0.0
H647 H 0.3664 0.84146 0.52948 0.0
H648 H 0.29285 0.75583 0.57409 0.0
H649 H 0.32308 0.78985 0.56753 0.0
H650 H 0.38647 0.79442 0.5596 0.0
C651 C 0.42548 0.85745 0.51944 0.0
C652 C 0.37105 0.83153 0.53631 0.0
C653 C 0.43942 0.87528 0.5099 0.0
C654 C 0.30711 0.75668 0.56874 0.0
C655 C 0.32442 0.77621 0.56488 0.0
C656 C 0.3819 0.80455 0.55303 0.0
C657 C 0.40923 0.85707 0.52996 0.0
C658 C 0.39261 0.83732 0.53799 0.0
C659 C 0.343 0.77806 0.55733 0.0
C660 C 0.36029 0.79868 0.55116 0.0
H661 H 0.42022 0.90671 0.52323 0.0
H662 H 0.39586 0.87558 0.53982 0.0
H663 H 0.41439 0.82775 0.54806 0.0
H664 H 0.3281 0.72658 0.5561 0.0
H665 H 0.35824 0.76074 0.54882 0.0
C666 C 0.57641 0.44335 0.70282 0.0
C667 C 0.5557 0.43997 0.70018 0.0
C668 C 0.57959 0.42759 0.70935 0.0
C669 C 0.55284 0.37571 0.73097 0.0
H670 H 0.59518 0.36897 0.70479 0.0
C671 C 0.55534 0.29934 0.72961 0.0
C672 C 0.57535 0.30072 0.73004 0.0
C673 C 0.55383 0.31728 0.72854 0.0
C674 C 0.58355 0.37081 0.71246 0.0
H675 H 0.52211 0.41758 0.70341 0.0
H676 H 0.52764 0.38983 0.71429 0.0
H677 H 0.5908 0.39859 0.69858 0.0
H678 H 0.6095 0.32215 0.73019 0.0
H679 H 0.60684 0.35349 0.72831 0.0
H680 H 0.54524 0.34749 0.74447 0.0
C681 C 0.54145 0.40481 0.71147 0.0
C682 C 0.58103 0.38783 0.70892 0.0
C683 C 0.53827 0.42066 0.70503 0.0
C684 C 0.59384 0.32051 0.72981 0.0
C685 C 0.59232 0.33847 0.72866 0.0
C686 C 0.55532 0.35861 0.73447 0.0
C687 C 0.56215 0.40794 0.71328 0.0
C688 C 0.56554 0.39042 0.71801 0.0
C689 C 0.57229 0.33702 0.7278 0.0
C690 C 0.57057 0.35588 0.72513 0.0
H691 H 0.59026 0.45788 0.69905 0.0
H692 H 0.59576 0.43068 0.7109 0.0
H693 H 0.54096 0.37739 0.73839 0.0
H694 H 0.54076 0.28435 0.72981 0.0
H695 H 0.53817 0.31561 0.7277 0.0
C696 C 0.15119 0.57532 0.86573 0.0
C697 C 0.13928 0.55879 0.8532 0.0
C698 C 0.17072 0.57892 0.87279 0.0
C699 C 0.21323 0.56708 0.86165 0.0
H700 H 0.23532 0.59069 0.9099 0.0
C701 C 0.28931 0.57302 0.89123 0.0
C702 C 0.30498 0.59275 0.89802 0.0
C703 C 0.26876 0.5689 0.88715 0.0
C704 C 0.22934 0.58421 0.89636 0.0
H705 H 0.13838 0.53246 0.83905 0.0
H706 H 0.17148 0.53791 0.85217 0.0
H707 H 0.19936 0.58237 0.90077 0.0
H708 H 0.31108 0.6234 0.90644 0.0
H709 H 0.27482 0.61598 0.89949 0.0
H710 H 0.243 0.5685 0.85742 0.0
C711 C 0.16617 0.54863 0.85604 0.0
C712 C 0.20879 0.57948 0.89109 0.0
C713 C 0.14686 0.54525 0.84877 0.0
C714 C 0.2994 0.60808 0.90116 0.0
C715 C 0.27866 0.60382 0.89728 0.0
C716 C 0.23356 0.57152 0.86701 0.0
C717 C 0.17871 0.56588 0.8677 0.0
C718 C 0.20043 0.57077 0.87366 0.0
C719 C 0.26328 0.58429 0.88995 0.0
C720 C 0.2418 0.58006 0.88441 0.0
H721 H 0.1457 0.58585 0.8698 0.0
H722 H 0.17989 0.59238 0.8817 0.0
H723 H 0.2077 0.56099 0.84794 0.0
H724 H 0.293 0.56082 0.88868 0.0
H725 H 0.25713 0.55364 0.88168 0.0
C726 C 0.60099 0.17221 0.02142 0.0
C727 C 0.60517 0.15569 0.02109 0.0
C728 C 0.6157 0.19156 0.02913 0.0
C729 C 0.6726 0.2253 0.03864 0.0
H730 H 0.65386 0.25724 0.06716 0.0
C731 C 0.73111 0.30963 0.06463 0.0
C732 C 0.72397 0.3239 0.06277 0.0
C733 C 0.71705 0.28825 0.06185 0.0
C734 C 0.65935 0.24858 0.05912 0.0
H735 H 0.62813 0.14665 0.02901 0.0
H736 H 0.65408 0.18075 0.04222 0.0
H737 H 0.62842 0.22116 0.05847 0.0
H738 H 0.69639 0.32685 0.05663 0.0
H739 H 0.67205 0.28977 0.05154 0.0
H740 H 0.70339 0.25291 0.0388 0.0
C741 C 0.6393 0.17856 0.03645 0.0
C742 C 0.64478 0.22789 0.0542 0.0
C743 C 0.62446 0.15905 0.02885 0.0
C744 C 0.70243 0.31631 0.05824 0.0
C745 C 0.68841 0.29498 0.05545 0.0
C746 C 0.68719 0.24605 0.04351 0.0
C747 C 0.6351 0.19504 0.03657 0.0
C748 C 0.65114 0.21615 0.04359 0.0
C749 C 0.69554 0.28068 0.05716 0.0
C750 C 0.68062 0.25807 0.05349 0.0
H751 H 0.58663 0.17048 0.01517 0.0
H752 H 0.61216 0.20405 0.02868 0.0
H753 H 0.67793 0.21671 0.03032 0.0
H754 H 0.74759 0.31495 0.06817 0.0
H755 H 0.72301 0.27764 0.06346 0.0
C756 C 0.44802 0.6038 0.21041 0.0
C757 C 0.43285 0.58626 0.20021 0.0
C758 C 0.44378 0.61951 0.21569 0.0
C759 C 0.41077 0.64148 0.20126 0.0
H760 H 0.42603 0.66994 0.24847 0.0
C761 C 0.40212 0.71306 0.21549 0.0
C762 C 0.39267 0.71335 0.23205 0.0
C763 C 0.40882 0.69869 0.21238 0.0
C764 C 0.42163 0.66209 0.23524 0.0
H765 H 0.40107 0.57138 0.18798 0.0
H766 H 0.39355 0.5983 0.19759 0.0
H767 H 0.43335 0.64175 0.24227 0.0
H768 H 0.38344 0.69915 0.25856 0.0
H769 H 0.39491 0.67395 0.25304 0.0
H770 H 0.39865 0.66138 0.19428 0.0
C771 C 0.40884 0.60009 0.20131 0.0
C772 C 0.42598 0.64607 0.23165 0.0
C773 C 0.41305 0.58446 0.19605 0.0
C774 C 0.39062 0.69933 0.24563 0.0
C775 C 0.39733 0.68496 0.24252 0.0
C776 C 0.40649 0.65748 0.20482 0.0
C777 C 0.42432 0.61803 0.21079 0.0
C778 C 0.42038 0.63545 0.21467 0.0
C779 C 0.40622 0.68427 0.22575 0.0
C780 C 0.41174 0.6679 0.22187 0.0
H781 H 0.46336 0.60561 0.21396 0.0
H782 H 0.45604 0.63316 0.22298 0.0
H783 H 0.40656 0.63385 0.18794 0.0
H784 H 0.40407 0.72374 0.20479 0.0
H785 H 0.41591 0.69878 0.19942 0.0
C786 C 0.85871 0.43048 0.36342 0.0
C787 C 0.8603 0.42965 0.34434 0.0
C788 C 0.84107 0.43025 0.37121 0.0
C789 C 0.79976 0.44304 0.36026 0.0
H790 H 0.76981 0.40904 0.40148 0.0
C791 C 0.71471 0.41306 0.39724 0.0
C792 C 0.7147 0.43195 0.39825 0.0
C793 C 0.73323 0.41287 0.39258 0.0
C794 C 0.77802 0.41858 0.38995 0.0
H795 H 0.84404 0.4268 0.31857 0.0
H796 H 0.81358 0.42668 0.33211 0.0
H797 H 0.80056 0.40803 0.38926 0.0
H798 H 0.73441 0.46551 0.39598 0.0
H799 H 0.76658 0.46512 0.38795 0.0
H800 H 0.7772 0.45337 0.36065 0.0
C801 C 0.82612 0.4279 0.34104 0.0
C802 C 0.79569 0.41814 0.38306 0.0
C803 C 0.84362 0.42803 0.33329 0.0
C804 C 0.73377 0.45066 0.39515 0.0
C805 C 0.75222 0.45045 0.39048 0.0
C806 C 0.78226 0.4436 0.36719 0.0
C807 C 0.82476 0.42926 0.36005 0.0
C808 C 0.80659 0.43021 0.36802 0.0
C809 C 0.75206 0.43154 0.3888 0.0
C810 C 0.77111 0.4313 0.38204 0.0
H811 H 0.87134 0.43185 0.37231 0.0
H812 H 0.84048 0.43142 0.38591 0.0
H813 H 0.80798 0.4527 0.34879 0.0
H814 H 0.70029 0.39838 0.39957 0.0
H815 H 0.73259 0.39804 0.39127 0.0
C816 C 0.11726 0.56883 0.41429 0.0
C817 C 0.12308 0.56041 0.39969 0.0
C818 C 0.12921 0.57506 0.4305 0.0
C819 C 0.18327 0.59312 0.44808 0.0
H820 H 0.15654 0.58937 0.49453 0.0
C821 C 0.23009 0.63134 0.51626 0.0
C822 C 0.22315 0.6437 0.52512 0.0
C823 C 0.21829 0.61814 0.50154 0.0
C824 C 0.16422 0.59045 0.48166 0.0
H825 H 0.14561 0.55127 0.39085 0.0
H826 H 0.16645 0.56194 0.41942 0.0
H827 H 0.13451 0.57051 0.46788 0.0
H828 H 0.19836 0.65182 0.52553 0.0
H829 H 0.17786 0.62877 0.50015 0.0
H830 H 0.21299 0.61343 0.46195 0.0
C831 C 0.15273 0.56392 0.41819 0.0
C832 C 0.15162 0.57971 0.46639 0.0
C833 C 0.14069 0.55763 0.40191 0.0
C834 C 0.20422 0.64256 0.51901 0.0
C835 C 0.19235 0.62923 0.50456 0.0
C836 C 0.19591 0.60375 0.46343 0.0
C837 C 0.14727 0.57298 0.43257 0.0
C838 C 0.16092 0.58149 0.44929 0.0
C839 C 0.1992 0.61684 0.49571 0.0
C840 C 0.18641 0.60305 0.4802 0.0
H841 H 0.10362 0.57094 0.41307 0.0
H842 H 0.12469 0.58222 0.44118 0.0
H843 H 0.19094 0.59494 0.43509 0.0
H844 H 0.24463 0.63189 0.52064 0.0
H845 H 0.22391 0.60875 0.49489 0.0
C846 C 0.57219 0.14462 0.55417 0.0
C847 C 0.58862 0.14109 0.54877 0.0
C848 C 0.5742 0.15594 0.57012 0.0
C849 C 0.60369 0.17436 0.61403 0.0
H850 H 0.58083 0.2115 0.61324 0.0
C851 C 0.60835 0.22654 0.67604 0.0
C852 C 0.58874 0.22491 0.68031 0.0
C853 C 0.61057 0.21783 0.65973 0.0
C854 C 0.58726 0.20118 0.61366 0.0
H855 H 0.61999 0.14649 0.55616 0.0
H856 H 0.6237 0.16675 0.58395 0.0
H857 H 0.58074 0.19336 0.58528 0.0
H858 H 0.55625 0.21316 0.6707 0.0
H859 H 0.56024 0.19826 0.64229 0.0
H860 H 0.61013 0.18229 0.64254 0.0
C861 C 0.60914 0.1605 0.57586 0.0
C862 C 0.58714 0.19071 0.59768 0.0
C863 C 0.60709 0.14905 0.55986 0.0
C864 C 0.57156 0.21468 0.66785 0.0
C865 C 0.57386 0.20624 0.65151 0.0
C866 C 0.60395 0.185 0.63004 0.0
C867 C 0.59278 0.16425 0.58106 0.0
C868 C 0.59486 0.17678 0.59775 0.0
C869 C 0.59334 0.20765 0.6473 0.0
C870 C 0.59529 0.19813 0.63007 0.0
H871 H 0.55789 0.13905 0.54584 0.0
H872 H 0.56112 0.15818 0.57387 0.0
H873 H 0.60965 0.16367 0.61457 0.0
H874 H 0.62187 0.23428 0.68539 0.0
H875 H 0.62578 0.21918 0.65676 0.0
C876 C 0.45716 0.61449 0.7254 0.0
C877 C 0.47132 0.60704 0.72323 0.0
C878 C 0.45183 0.61797 0.74284 0.0
C879 C 0.44293 0.59722 0.78738 0.0
H880 H 0.44747 0.64886 0.80469 0.0
C881 C 0.41357 0.60215 0.85845 0.0
C882 C 0.40358 0.61394 0.86067 0.0
C883 C 0.42475 0.60367 0.84264 0.0
C884 C 0.4458 0.63423 0.80001 0.0
H885 H 0.49125 0.5976 0.73729 0.0
H886 H 0.48128 0.60299 0.76796 0.0
H887 H 0.46153 0.64735 0.77488 0.0
H888 H 0.39774 0.63691 0.84842 0.0
H889 H 0.41621 0.63876 0.82025 0.0
H890 H 0.42608 0.58352 0.81164 0.0
C891 C 0.47466 0.60647 0.75615 0.0
C892 C 0.45403 0.63347 0.78301 0.0
C893 C 0.48036 0.60344 0.73871 0.0
C894 C 0.4054 0.62771 0.84701 0.0
C895 C 0.41612 0.62883 0.83092 0.0
C896 C 0.43429 0.59782 0.80413 0.0
C897 C 0.46023 0.6136 0.75832 0.0
C898 C 0.45264 0.61495 0.77661 0.0
C899 C 0.42567 0.61656 0.8284 0.0
C900 C 0.43559 0.61633 0.81073 0.0
H901 H 0.45006 0.6174 0.71359 0.0
H902 H 0.44053 0.62331 0.74423 0.0
H903 H 0.44139 0.58268 0.78255 0.0
H904 H 0.41267 0.59165 0.86895 0.0
H905 H 0.43246 0.5945 0.84156 0.0
C906 C 0.88293 0.43858 0.89621 0.0
C907 C 0.87188 0.43954 0.88079 0.0
C908 C 0.87286 0.43269 0.91302 0.0
C909 C 0.81989 0.40831 0.935 0.0
H910 H 0.8525 0.44345 0.97637 0.0
C911 C 0.78576 0.39768 0.008 0.0
C912 C 0.7906 0.41616 0.01753 0.0
C913 C 0.79565 0.39847 0.99149 0.0
C914 C 0.84316 0.43352 0.96494 0.0
H915 H 0.84127 0.43395 0.8707 0.0
H916 H 0.82392 0.42424 0.90007 0.0
H917 H 0.86962 0.44789 0.9471 0.0
H918 H 0.80931 0.44994 0.01696 0.0
H919 H 0.82621 0.45126 0.9882 0.0
H920 H 0.79318 0.39456 0.95276 0.0
C921 C 0.84029 0.42786 0.89919 0.0
C922 C 0.85305 0.43587 0.94821 0.0
C923 C 0.85033 0.43371 0.8824 0.0
C924 C 0.80528 0.43539 0.01006 0.0
C925 C 0.81512 0.43616 0.99362 0.0
C926 C 0.80997 0.40597 0.95177 0.0
C927 C 0.85154 0.42763 0.91478 0.0
C928 C 0.84146 0.42355 0.93295 0.0
C929 C 0.81058 0.41773 0.98421 0.0
C930 C 0.82141 0.41884 0.96682 0.0
H931 H 0.89957 0.44305 0.89545 0.0
H932 H 0.8819 0.43241 0.92472 0.0
H933 H 0.81059 0.39839 0.92356 0.0
H934 H 0.77455 0.38261 0.0134 0.0
H935 H 0.79189 0.384 0.98459 0.0
C936 C 0.45475 0.88895 0.06026 0.0
C937 C 0.44069 0.89291 0.05016 0.0
C938 C 0.44838 0.87808 0.07654 0.0
C939 C 0.40676 0.86104 0.112 0.0
H940 H 0.42779 0.82426 0.12502 0.0
C941 C 0.38921 0.82282 0.18195 0.0
C942 C 0.38546 0.80242 0.18308 0.0
C943 C 0.39682 0.83395 0.16595 0.0
C944 C 0.42154 0.83426 0.12152 0.0
H945 H 0.40887 0.88863 0.04958 0.0
H946 H 0.39742 0.86877 0.07728 0.0
H947 H 0.43852 0.84281 0.09652 0.0
H948 H 0.38688 0.77768 0.16839 0.0
H949 H 0.39934 0.79676 0.14008 0.0
H950 H 0.38889 0.8517 0.13644 0.0
C951 C 0.4136 0.87452 0.07291 0.0
C952 C 0.42799 0.8452 0.10527 0.0
C953 C 0.42008 0.88567 0.05679 0.0
C954 C 0.38972 0.79343 0.16792 0.0
C955 C 0.39697 0.80444 0.15173 0.0
C956 C 0.40006 0.84987 0.12807 0.0
C957 C 0.42767 0.8706 0.08305 0.0
C958 C 0.42075 0.85881 0.10031 0.0
C959 C 0.40046 0.82481 0.1505 0.0
C960 C 0.40746 0.83643 0.13315 0.0
H961 H 0.47064 0.89396 0.0555 0.0
H962 H 0.4598 0.87568 0.08407 0.0
H963 H 0.40106 0.87157 0.10885 0.0
H964 H 0.38636 0.83029 0.19351 0.0
H965 H 0.39986 0.84977 0.16577 0.0
C966 C 0.55305 0.42516 0.23104 0.0
C967 C 0.54052 0.43459 0.23079 0.0
C968 C 0.56111 0.42263 0.24755 0.0
C969 C 0.58096 0.44683 0.291 0.0
H970 H 0.56846 0.39302 0.30872 0.0
C971 C 0.61453 0.44111 0.36019 0.0
C972 C 0.62059 0.4261 0.36222 0.0
C973 C 0.60289 0.44072 0.34484 0.0
C974 C 0.57242 0.40821 0.30387 0.0
H975 H 0.52645 0.44873 0.24724 0.0
H976 H 0.54135 0.44506 0.27624 0.0
H977 H 0.55192 0.395 0.28024 0.0
H978 H 0.61906 0.3987 0.35001 0.0
H979 H 0.59974 0.3986 0.32256 0.0
H980 H 0.60233 0.46036 0.31375 0.0
C981 C 0.54457 0.43933 0.26369 0.0
C982 C 0.56279 0.40927 0.28764 0.0
C983 C 0.53609 0.44142 0.24722 0.0
C984 C 0.61447 0.4104 0.34876 0.0
C985 C 0.60328 0.41032 0.33309 0.0
C986 C 0.59097 0.44585 0.30695 0.0
C987 C 0.55713 0.42992 0.26395 0.0
C988 C 0.56692 0.42858 0.28119 0.0
C989 C 0.59756 0.42566 0.33082 0.0
C990 C 0.58676 0.42651 0.31372 0.0
H991 H 0.55656 0.41975 0.21846 0.0
H992 H 0.5709 0.41547 0.24747 0.0
H993 H 0.58458 0.46191 0.28608 0.0
H994 H 0.61878 0.45321 0.37054 0.0
H995 H 0.59821 0.45238 0.34399 0.0
C996 C 0.47723 0.91011 0.37627 0.0
C997 C 0.4798 0.90538 0.39424 0.0
C998 C 0.47151 0.89525 0.36223 0.0
C999 C 0.46561 0.86227 0.33373 0.0
H1000 H 0.41364 0.81105 0.34483 0.0
C1001 C 0.4162 0.79818 0.27898 0.0
C1002 C 0.39509 0.79402 0.2778 0.0
C1003 C 0.42919 0.80923 0.29406 0.0
C1004 C 0.4283 0.82515 0.34161 0.0
H1005 H 0.47935 0.88183 0.41155 0.0
H1006 H 0.46902 0.85564 0.38694 0.0
H1007 H 0.43363 0.83639 0.3693 0.0
H1008 H 0.37069 0.79715 0.29183 0.0
H1009 H 0.39318 0.81599 0.31825 0.0
H1010 H 0.45974 0.85133 0.30588 0.0
C1011 C 0.47157 0.87089 0.38375 0.0
C1012 C 0.43982 0.83958 0.3556 0.0
C1013 C 0.4776 0.88589 0.39777 0.0
C1014 C 0.38692 0.80022 0.29233 0.0
C1015 C 0.39974 0.81087 0.3075 0.0
C1016 C 0.45423 0.84769 0.31976 0.0
C1017 C 0.46797 0.87528 0.36594 0.0
C1018 C 0.4582 0.85857 0.3517 0.0
C1019 C 0.42111 0.81585 0.30835 0.0
C1020 C 0.43511 0.82932 0.3235 0.0
H1021 H 0.47891 0.92507 0.37322 0.0
H1022 H 0.46865 0.899 0.34866 0.0
H1023 H 0.47979 0.87676 0.33039 0.0
H1024 H 0.42292 0.79362 0.26795 0.0
H1025 H 0.44562 0.81288 0.29444 0.0
C1026 C 0.56454 0.45601 0.57914 0.0
C1027 C 0.57546 0.47699 0.58509 0.0
C1028 C 0.57036 0.44995 0.56306 0.0
C1029 C 0.59866 0.47082 0.5201 0.0
H1030 H 0.60625 0.42281 0.51983 0.0
C1031 C 0.6461 0.45882 0.46455 0.0
C1032 C 0.6378 0.43879 0.45669 0.0
C1033 C 0.6372 0.4619 0.48018 0.0
C1034 C 0.60392 0.43608 0.51963 0.0
H1035 H 0.60068 0.50811 0.57869 0.0
H1036 H 0.61095 0.49754 0.55077 0.0
H1037 H 0.59242 0.43118 0.54699 0.0
H1038 H 0.61403 0.40614 0.4595 0.0
H1039 H 0.59836 0.4116 0.48698 0.0
H1040 H 0.61034 0.47593 0.49291 0.0
C1041 C 0.59783 0.48578 0.55845 0.0
C1042 C 0.596 0.44087 0.53516 0.0
C1043 C 0.5921 0.49181 0.57453 0.0
C1044 C 0.62079 0.42176 0.46523 0.0
C1045 C 0.61184 0.42487 0.48096 0.0
C1046 C 0.60654 0.46605 0.50464 0.0
C1047 C 0.58709 0.46478 0.55256 0.0
C1048 C 0.59369 0.45853 0.53566 0.0
C1049 C 0.61972 0.44506 0.48837 0.0
C1050 C 0.60968 0.44889 0.50435 0.0
H1051 H 0.55176 0.44422 0.58709 0.0
H1052 H 0.56172 0.43368 0.55881 0.0
H1053 H 0.59662 0.48426 0.51993 0.0
H1054 H 0.65933 0.47227 0.45847 0.0
H1055 H 0.64396 0.47757 0.48582 0.0
C1056 C 0.13403 0.57162 0.73667 0.0
C1057 C 0.11634 0.57436 0.73854 0.0
C1058 C 0.14797 0.58048 0.72215 0.0
C1059 C 0.16747 0.62483 0.69231 0.0
H1060 H 0.1872 0.5958 0.66097 0.0
C1061 C 0.20891 0.65939 0.62532 0.0
C1062 C 0.22536 0.65618 0.61934 0.0
C1063 C 0.19726 0.64947 0.64067 0.0
C1064 C 0.18215 0.60423 0.66981 0.0
H1065 H 0.09869 0.58736 0.72588 0.0
H1066 H 0.12324 0.60314 0.70084 0.0
H1067 H 0.16294 0.57729 0.68582 0.0
H1068 H 0.2427 0.64021 0.6251 0.0
H1069 H 0.2225 0.62309 0.65233 0.0
H1070 H 0.18669 0.6518 0.67667 0.0
C1071 C 0.12644 0.59436 0.71075 0.0
C1072 C 0.16819 0.59359 0.68395 0.0
C1073 C 0.11241 0.58536 0.72511 0.0
C1074 C 0.23013 0.64302 0.62935 0.0
C1075 C 0.21846 0.6331 0.64486 0.0
C1076 C 0.18156 0.6355 0.67838 0.0
C1077 C 0.14458 0.5924 0.70934 0.0
C1078 C 0.16038 0.6037 0.69506 0.0
C1079 C 0.20181 0.63615 0.65064 0.0
C1080 C 0.1887 0.62524 0.66667 0.0
H1081 H 0.13767 0.56343 0.74685 0.0
H1082 H 0.16189 0.57879 0.72138 0.0
H1083 H 0.16206 0.63312 0.70095 0.0
H1084 H 0.20466 0.6693 0.61792 0.0
H1085 H 0.18429 0.65187 0.64445 0.0
C1086 C 0.5778 0.14105 0.90106 0.0
C1087 C 0.55728 0.12535 0.90594 0.0
C1088 C 0.58081 0.15227 0.88515 0.0
C1089 C 0.55189 0.16712 0.85297 0.0
H1090 H 0.59945 0.18096 0.82123 0.0
C1091 C 0.55716 0.20088 0.78206 0.0
C1092 C 0.57708 0.21704 0.77644 0.0
C1093 C 0.55547 0.19012 0.79795 0.0
C1094 C 0.58625 0.17744 0.83008 0.0
H1095 H 0.52394 0.10869 0.89762 0.0
H1096 H 0.5292 0.12826 0.86987 0.0
H1097 H 0.59503 0.16094 0.84861 0.0
H1098 H 0.6109 0.23446 0.78312 0.0
H1099 H 0.60787 0.21567 0.81106 0.0
H1100 H 0.54307 0.18356 0.83452 0.0
C1101 C 0.54291 0.13213 0.87851 0.0
C1102 C 0.5837 0.16595 0.84574 0.0
C1103 C 0.5399 0.12091 0.8944 0.0
C1104 C 0.59531 0.22209 0.78707 0.0
C1105 C 0.59361 0.21127 0.80301 0.0
C1106 C 0.55445 0.17859 0.83735 0.0
C1107 C 0.56337 0.14807 0.8738 0.0
C1108 C 0.56639 0.16053 0.85728 0.0
C1109 C 0.57363 0.19522 0.80866 0.0
C1110 C 0.57154 0.18375 0.82564 0.0
H1111 H 0.59148 0.14507 0.90979 0.0
H1112 H 0.59673 0.16461 0.88202 0.0
H1113 H 0.53865 0.16358 0.86178 0.0
H1114 H 0.54279 0.19647 0.77418 0.0
H1115 H 0.53989 0.1776 0.80173 0.0
C1116 C 0.46277 0.58009 0.07476 0.0
C1117 C 0.44887 0.57698 0.08913 0.0
C1118 C 0.46144 0.5892 0.05863 0.0
C1119 C 0.43559 0.61636 0.037 0.0
H1120 H 0.43345 0.58397 0.99428 0.0
C1121 C 0.40769 0.62592 0.9647 0.0
C1122 C 0.39334 0.60692 0.95582 0.0
C1123 C 0.41841 0.62614 0.98076 0.0
C1124 C 0.43406 0.59323 0.00607 0.0
H1125 H 0.42395 0.5826 0.09847 0.0
H1126 H 0.42107 0.5977 0.07023 0.0
H1127 H 0.4462 0.57856 0.02319 0.0
H1128 H 0.37857 0.57328 0.95717 0.0
H1129 H 0.39693 0.57371 0.98501 0.0
H1130 H 0.42213 0.63006 0.01989 0.0
C1131 C 0.43315 0.59334 0.07136 0.0
C1132 C 0.44166 0.59034 0.02262 0.0
C1133 C 0.43456 0.58435 0.08747 0.0
C1134 C 0.38963 0.58822 0.96352 0.0
C1135 C 0.40031 0.58845 0.97943 0.0
C1136 C 0.4279 0.61921 0.02038 0.0
C1137 C 0.44614 0.59533 0.05653 0.0
C1138 C 0.44187 0.60136 0.03844 0.0
C1139 C 0.41502 0.60738 0.98811 0.0
C1140 C 0.42635 0.6071 0.00492 0.0
H1141 H 0.47401 0.57463 0.07562 0.0
H1142 H 0.47191 0.59081 0.04757 0.0
H1143 H 0.43588 0.62536 0.04886 0.0
H1144 H 0.41091 0.6406 0.95909 0.0
H1145 H 0.42964 0.64096 0.9872 0.0
C1146 C 0.88498 0.39364 0.22608 0.0
C1147 C 0.8964 0.41325 0.235 0.0
C1148 C 0.87355 0.3912 0.20986 0.0
C1149 C 0.86985 0.42083 0.17165 0.0
H1150 H 0.81026 0.37768 0.16821 0.0
C1151 C 0.81244 0.42672 0.12196 0.0
C1152 C 0.79716 0.40874 0.11238 0.0
C1153 C 0.82468 0.42538 0.136 0.0
C1154 C 0.82697 0.38959 0.16881 0.0
H1155 H 0.90435 0.44556 0.23386 0.0
H1156 H 0.88504 0.44139 0.20555 0.0
H1157 H 0.83219 0.37856 0.19409 0.0
H1158 H 0.78252 0.37511 0.11028 0.0
H1159 H 0.80413 0.37278 0.13488 0.0
H1160 H 0.86473 0.43209 0.1466 0.0
C1161 C 0.88512 0.42795 0.21095 0.0
C1162 C 0.83951 0.39009 0.18362 0.0
C1163 C 0.8963 0.43035 0.22718 0.0
C1164 C 0.79414 0.38926 0.11742 0.0
C1165 C 0.80647 0.38792 0.13152 0.0
C1166 C 0.8574 0.42029 0.15686 0.0
C1167 C 0.87352 0.40836 0.20217 0.0
C1168 C 0.86093 0.40604 0.1854 0.0
C1169 C 0.82206 0.40602 0.14081 0.0
C1170 C 0.83567 0.40502 0.15552 0.0
H1171 H 0.88484 0.38016 0.23161 0.0
H1172 H 0.86481 0.37594 0.2033 0.0
H1173 H 0.88642 0.43309 0.17251 0.0
H1174 H 0.81508 0.44196 0.11857 0.0
H1175 H 0.83618 0.43957 0.14317 0.0
loop_
_geom_bond_atom_site_label_1
_geom_bond_atom_site_label_2
_geom_bond_distance
_geom_bond_site_symmetry_2
_ccdc_geom_bond_type
H0 C27 0.929 . S
N1 C26 1.433 . S
N1 C32 1.435 . S
N1 C38 1.423 . S
H2 C28 0.930 . S
H3 C31 0.931 . S
H4 C30 0.929 . S
H5 C33 0.930 . S
H6 C34 0.932 . S
H7 C37 0.929 . S
H8 C36 0.931 . S
H9 C39 0.929 . S
H10 C43 0.932 . S
H11 C40 0.931 . S
H12 C42 0.929 . S
H13 C45 0.929 . S
H14 C46 0.930 . S
H15 C48 0.929 . S
H16 C49 0.931 . S
H17 C51 0.930 . S
H18 C52 0.932 . S
H19 C54 0.931 . S
H20 C55 0.929 . S
H21 C57 0.929 . S
H22 C58 0.931 . S
H23 C60 0.929 . S
N24 C44 1.433 . S
N24 C50 1.435 . S
N24 C56 1.423 . S
H25 C61 0.932 . S
C26 N1 1.433 . S
C26 C27 1.363 . S
C26 C31 1.370 . S
C27 H0 0.929 . S
C27 C26 1.363 . S
C27 C28 1.385 . S
C28 H2 0.930 . S
C28 C27 1.385 . S
C28 C29 1.357 . S
C29 C28 1.357 . S
C29 C30 1.406 . S
C30 H4 0.929 . S
C30 C29 1.406 . S
C30 C31 1.391 . S
C31 H3 0.931 . S
C31 C26 1.370 . S
C31 C30 1.391 . S
C32 N1 1.435 . S
C32 C33 1.358 . S
C32 C37 1.371 . S
C33 H5 0.930 . S
C33 C32 1.358 . S
C33 C34 1.405 . S
C34 H6 0.932 . S
C34 C33 1.405 . S
C34 C35 1.383 . S
C35 C34 1.383 . S
C35 C36 1.393 . S
C36 H8 0.931 . S
C36 C35 1.393 . S
C36 C37 1.382 . S
C37 H7 0.929 . S
C37 C32 1.371 . S
C37 C36 1.382 . S
C38 N1 1.423 . S
C38 C39 1.362 . S
C38 C43 1.388 . S
C39 H9 0.929 . S
C39 C38 1.362 . S
C39 C40 1.376 . S
C40 H11 0.931 . S
C40 C39 1.376 . S
C40 C41 1.396 . S
C41 C40 1.396 . S
C41 C42 1.348 . S
C41 C59 1.472 1_455 S
C42 H12 0.929 . S
C42 C41 1.348 . S
C42 C43 1.443 . S
C43 H10 0.932 . S
C43 C38 1.388 . S
C43 C42 1.443 . S
C44 N24 1.433 . S
C44 C45 1.363 . S
C44 C49 1.370 . S
C45 H13 0.929 . S
C45 C44 1.363 . S
C45 C46 1.385 . S
C46 H14 0.930 . S
C46 C45 1.385 . S
C46 C47 1.357 . S
C47 C46 1.357 . S
C47 C48 1.406 . S
C48 H15 0.929 . S
C48 C47 1.406 . S
C48 C49 1.391 . S
C49 H16 0.931 . S
C49 C44 1.370 . S
C49 C48 1.391 . S
C50 N24 1.435 . S
C50 C51 1.358 . S
C50 C55 1.371 . S
C51 H17 0.930 . S
C51 C50 1.358 . S
C51 C52 1.405 . S
C52 H18 0.932 . S
C52 C51 1.405 . S
C52 C53 1.383 . S
C53 C52 1.383 . S
C53 C54 1.393 . S
C54 H19 0.931 . S
C54 C53 1.393 . S
C54 C55 1.382 . S
C55 H20 0.929 . S
C55 C50 1.371 . S
C55 C54 1.382 . S
C56 N24 1.423 . S
C56 C57 1.362 . S
C56 C61 1.388 . S
C57 H21 0.929 . S
C57 C56 1.362 . S
C57 C58 1.376 . S
C58 H22 0.931 . S
C58 C57 1.376 . S
C58 C59 1.396 . S
C59 C41 1.472 1_655 S
C59 C58 1.396 . S
C59 C60 1.348 . S
C60 H23 0.929 . S
C60 C59 1.348 . S
C60 C61 1.443 . S
C61 H25 0.932 . S
C61 C56 1.388 . S
C61 C60 1.443 . S
H62 C89 0.929 . S
N63 C88 1.433 . S
N63 C94 1.435 . S
N63 C100 1.423 . S
H64 C90 0.930 . S
H65 C93 0.931 . S
H66 C92 0.929 . S
H67 C95 0.930 . S
H68 C96 0.932 . S
H69 C99 0.929 . S
H70 C98 0.931 . S
H71 C101 0.929 . S
H72 C105 0.932 . S
H73 C102 0.931 . S
H74 C104 0.929 1_545 S
H75 C107 0.929 . S
H76 C108 0.930 . S
H77 C110 0.929 . S
H78 C111 0.931 . S
H79 C113 0.930 . S
H80 C114 0.932 . S
H81 C116 0.931 . S
H82 C117 0.929 . S
H83 C119 0.929 . S
H84 C120 0.931 . S
H85 C122 0.929 . S
N86 C106 1.433 . S
N86 C112 1.435 . S
N86 C118 1.423 . S
H87 C123 0.932 . S
C88 N63 1.433 . S
C88 C89 1.363 . S
C88 C93 1.370 . S
C89 H62 0.929 . S
C89 C88 1.363 . S
C89 C90 1.385 . S
C90 H64 0.930 . S
C90 C89 1.385 . S
C90 C91 1.357 . S
C91 C90 1.357 . S
C91 C92 1.406 . S
C92 H66 0.929 . S
C92 C91 1.406 . S
C92 C93 1.391 . S
C93 H65 0.931 . S
C93 C88 1.370 . S
C93 C92 1.391 . S
C94 N63 1.435 . S
C94 C95 1.358 . S
C94 C99 1.371 . S
C95 H67 0.930 . S
C95 C94 1.358 . S
C95 C96 1.405 . S
C96 H68 0.932 . S
C96 C95 1.405 . S
C96 C97 1.383 . S
C97 C96 1.383 . S
C97 C98 1.393 . S
C98 H70 0.931 . S
C98 C97 1.393 . S
C98 C99 1.382 . S
C99 H69 0.929 . S
C99 C94 1.371 . S
C99 C98 1.382 . S
C100 N63 1.423 . S
C100 C101 1.362 . S
C100 C105 1.388 . S
C101 H71 0.929 . S
C101 C100 1.362 . S
C101 C102 1.376 . S
C102 H73 0.931 . S
C102 C101 1.376 . S
C102 C103 1.396 1_565 S
C103 C102 1.396 1_545 S
C103 C104 1.348 1_545 S
C103 C121 1.472 . S
C104 H74 0.929 1_565 S
C104 C103 1.348 1_565 S
C104 C105 1.443 . S
C105 H72 0.932 . S
C105 C100 1.388 . S
C105 C104 1.443 . S
C106 N86 1.433 . S
C106 C107 1.363 . S
C106 C111 1.370 . S
C107 H75 0.929 . S
C107 C106 1.363 . S
C107 C108 1.385 . S
C108 H76 0.930 . S
C108 C107 1.385 . S
C108 C109 1.357 . S
C109 C108 1.357 . S
C109 C110 1.406 . S
C110 H77 0.929 . S
C110 C109 1.406 . S
C110 C111 1.391 . S
C111 H78 0.931 . S
C111 C106 1.370 . S
C111 C110 1.391 . S
C112 N86 1.435 . S
C112 C113 1.358 . S
C112 C117 1.371 . S
C113 H79 0.930 . S
C113 C112 1.358 . S
C113 C114 1.405 . S
C114 H80 0.932 . S
C114 C113 1.405 . S
C114 C115 1.383 . S
C115 C114 1.383 . S
C115 C116 1.393 . S
C116 H81 0.931 . S
C116 C115 1.393 . S
C116 C117 1.382 . S
C117 H82 0.929 . S
C117 C112 1.371 . S
C117 C116 1.382 . S
C118 N86 1.423 . S
C118 C119 1.362 . S
C118 C123 1.388 . S
C119 H83 0.929 . S
C119 C118 1.362 . S
C119 C120 1.376 . S
C120 H84 0.931 . S
C120 C119 1.376 . S
C120 C121 1.396 . S
C121 C103 1.472 . S
C121 C120 1.396 . S
C121 C122 1.348 . S
C122 H85 0.929 . S
C122 C121 1.348 . S
C122 C123 1.443 . S
C123 H87 0.932 . S
C123 C118 1.388 . S
C123 C122 1.443 . S
H124 C151 0.929 . S
N125 C150 1.433 . S
N125 C156 1.435 . S
N125 C162 1.423 . S
H126 C152 0.930 . S
H127 C155 0.931 . S
H128 C154 0.929 . S
H129 C157 0.930 . S
H130 C158 0.932 . S
H131 C161 0.929 . S
H132 C160 0.931 . S
H133 C163 0.929 . S
H134 C167 0.932 . S
H135 C164 0.931 . S
H136 C166 0.929 . S
H137 C169 0.929 . S
H138 C170 0.930 . S
H139 C172 0.929 . S
H140 C173 0.931 . S
H141 C175 0.930 . S
H142 C176 0.932 . S
H143 C178 0.931 . S
H144 C179 0.929 . S
H145 C181 0.929 . S
H146 C182 0.931 . S
H147 C184 0.929 . S
N148 C168 1.433 . S
N148 C174 1.435 . S
N148 C180 1.423 . S
H149 C185 0.932 . S
C150 N125 1.433 . S
C150 C151 1.363 . S
C150 C155 1.370 . S
C151 H124 0.929 . S
C151 C150 1.363 . S
C151 C152 1.385 . S
C152 H126 0.930 . S
C152 C151 1.385 . S
C152 C153 1.357 . S
C153 C152 1.357 . S
C153 C154 1.406 . S
C154 H128 0.929 . S
C154 C153 1.406 . S
C154 C155 1.391 . S
C155 H127 0.931 . S
C155 C150 1.370 . S
C155 C154 1.391 . S
C156 N125 1.435 . S
C156 C157 1.358 . S
C156 C161 1.371 . S
C157 H129 0.930 . S
C157 C156 1.358 . S
C157 C158 1.405 . S
C158 H130 0.932 . S
C158 C157 1.405 . S
C158 C159 1.383 . S
C159 C158 1.383 . S
C159 C160 1.393 . S
C160 H132 0.931 . S
C160 C159 1.393 . S
C160 C161 1.382 . S
C161 H131 0.929 . S
C161 C156 1.371 . S
C161 C160 1.382 . S
C162 N125 1.423 . S
C162 C163 1.362 . S
C162 C167 1.388 . S
C163 H133 0.929 . S
C163 C162 1.362 . S
C163 C164 1.376 . S
C164 H135 0.931 . S
C164 C163 1.376 . S
C164 C165 1.396 . S
C165 C164 1.396 . S
C165 C166 1.348 . S
C165 C183 1.472 . S
C166 H136 0.929 . S
C166 C165 1.348 . S
C166 C167 1.443 . S
C167 H134 0.932 . S
C167 C162 1.388 . S
C167 C166 1.443 . S
C168 N148 1.433 . S
C168 C169 1.363 . S
C168 C173 1.370 . S
C169 H137 0.929 . S
C169 C168 1.363 . S
C169 C170 1.385 . S
C170 H138 0.930 . S
C170 C169 1.385 . S
C170 C171 1.357 . S
C171 C170 1.357 . S
C171 C172 1.406 . S
C172 H139 0.929 . S
C172 C171 1.406 . S
C172 C173 1.391 . S
C173 H140 0.931 . S
C173 C168 1.370 . S
C173 C172 1.391 . S
C174 N148 1.435 . S
C174 C175 1.358 . S
C174 C179 1.371 . S
C175 H141 0.930 . S
C175 C174 1.358 . S
C175 C176 1.405 . S
C176 H142 0.932 . S
C176 C175 1.405 . S
C176 C177 1.383 . S
C177 C176 1.383 . S
C177 C178 1.393 . S
C178 H143 0.931 . S
C178 C177 1.393 . S
C178 C179 1.382 . S
C179 H144 0.929 . S
C179 C174 1.371 . S
C179 C178 1.382 . S
C180 N148 1.423 . S
C180 C181 1.362 . S
C180 C185 1.388 . S
C181 H145 0.929 . S
C181 C180 1.362 . S
C181 C182 1.376 . S
C182 H146 0.931 . S
C182 C181 1.376 . S
C182 C183 1.396 . S
C183 C165 1.472 . S
C183 C182 1.396 . S
C183 C184 1.348 . S
C184 H147 0.929 . S
C184 C183 1.348 . S
C184 C185 1.443 . S
C185 H149 0.932 . S
C185 C180 1.388 . S
C185 C184 1.443 . S
H186 C213 0.929 . S
N187 C212 1.433 . S
N187 C218 1.435 . S
N187 C224 1.423 . S
H188 C214 0.930 . S
H189 C217 0.931 . S
H190 C216 0.929 . S
H191 C219 0.930 . S
H192 C220 0.932 . S
H193 C223 0.929 . S
H194 C222 0.931 . S
H195 C225 0.929 . S
H196 C229 0.932 . S
H197 C226 0.931 . S
H198 C228 0.929 . S
H199 C231 0.929 . S
H200 C232 0.930 . S
H201 C234 0.929 . S
H202 C235 0.931 . S
H203 C237 0.930 . S
H204 C238 0.932 . S
H205 C240 0.931 . S
H206 C241 0.929 . S
H207 C243 0.929 . S
H208 C244 0.931 . S
H209 C246 0.929 . S
N210 C230 1.433 . S
N210 C236 1.435 . S
N210 C242 1.423 . S
H211 C247 0.932 . S
C212 N187 1.433 . S
C212 C213 1.363 . S
C212 C217 1.370 . S
C213 H186 0.929 . S
C213 C212 1.363 . S
C213 C214 1.385 . S
C214 H188 0.930 . S
C214 C213 1.385 . S
C214 C215 1.357 . S
C215 C214 1.357 . S
C215 C216 1.406 . S
C216 H190 0.929 . S
C216 C215 1.406 . S
C216 C217 1.391 . S
C217 H189 0.931 . S
C217 C212 1.370 . S
C217 C216 1.391 . S
C218 N187 1.435 . S
C218 C219 1.358 . S
C218 C223 1.371 . S
C219 H191 0.930 . S
C219 C218 1.358 . S
C219 C220 1.405 . S
C220 H192 0.932 . S
C220 C219 1.405 . S
C220 C221 1.383 . S
C221 C220 1.383 . S
C221 C222 1.393 . S
C222 H194 0.931 . S
C222 C221 1.393 . S
C222 C223 1.382 . S
C223 H193 0.929 . S
C223 C218 1.371 . S
C223 C222 1.382 . S
C224 N187 1.423 . S
C224 C225 1.362 . S
C224 C229 1.388 . S
C225 H195 0.929 . S
C225 C224 1.362 . S
C225 C226 1.376 . S
C226 H197 0.931 . S
C226 C225 1.376 . S
C226 C227 1.396 . S
C227 C226 1.396 . S
C227 C228 1.348 . S
C227 C245 1.472 1_455 S
C228 H198 0.929 . S
C228 C227 1.348 . S
C228 C229 1.443 . S
C229 H196 0.932 . S
C229 C224 1.388 . S
C229 C228 1.443 . S
C230 N210 1.433 . S
C230 C231 1.363 . S
C230 C235 1.370 . S
C231 H199 0.929 . S
C231 C230 1.363 . S
C231 C232 1.385 . S
C232 H200 0.930 . S
C232 C231 1.385 . S
C232 C233 1.357 . S
C233 C232 1.357 . S
C233 C234 1.406 . S
C234 H201 0.929 . S
C234 C233 1.406 . S
C234 C235 1.391 . S
C235 H202 0.931 . S
C235 C230 1.370 . S
C235 C234 1.391 . S
C236 N210 1.435 . S
C236 C237 1.358 . S
C236 C241 1.371 . S
C237 H203 0.930 . S
C237 C236 1.358 . S
C237 C238 1.405 . S
C238 H204 0.932 . S
C238 C237 1.405 . S
C238 C239 1.383 . S
C239 C238 1.383 . S
C239 C240 1.393 . S
C240 H205 0.931 . S
C240 C239 1.393 . S
C240 C241 1.382 . S
C241 H206 0.929 . S
C241 C236 1.371 . S
C241 C240 1.382 . S
C242 N210 1.423 . S
C242 C243 1.362 . S
C242 C247 1.388 . S
C243 H207 0.929 . S
C243 C242 1.362 . S
C243 C244 1.376 . S
C244 H208 0.931 . S
C244 C243 1.376 . S
C244 C245 1.396 . S
C245 C227 1.472 1_655 S
C245 C244 1.396 . S
C245 C246 1.348 . S
C246 H209 0.929 . S
C246 C245 1.348 . S
C246 C247 1.443 . S
C247 H211 0.932 . S
C247 C242 1.388 . S
C247 C246 1.443 . S
H248 C275 0.929 . S
N249 C274 1.433 . S
N249 C280 1.435 . S
N249 C286 1.423 . S
H250 C276 0.930 . S
H251 C279 0.931 . S
H252 C278 0.929 . S
H253 C281 0.930 . S
H254 C282 0.932 . S
H255 C285 0.929 . S
H256 C284 0.931 . S
H257 C287 0.929 . S
H258 C291 0.932 . S
H259 C288 0.931 . S
H260 C290 0.929 . S
H261 C293 0.929 . S
H262 C294 0.930 . S
H263 C296 0.929 . S
H264 C297 0.931 . S
H265 C299 0.930 1_554 S
H266 C300 0.932 . S
H267 C302 0.931 . S
H268 C303 0.929 . S
H269 C305 0.929 . S
H270 C306 0.952 1_554 S
H271 C308 0.929 . S
N272 C292 1.433 . S
N272 C298 1.435 1_554 S
N272 C304 1.423 1_554 S
H273 C309 0.932 . S
C274 N249 1.433 . S
C274 C275 1.363 . S
C274 C279 1.370 . S
C275 H248 0.929 . S
C275 C274 1.363 . S
C275 C276 1.385 . S
C276 H250 0.930 . S
C276 C275 1.385 . S
C276 C277 1.357 1_556 S
C277 C276 1.357 1_554 S
C277 C278 1.406 . S
C278 H252 0.929 . S
C278 C277 1.406 . S
C278 C279 1.391 1_554 S
C279 H251 0.931 . S
C279 C274 1.370 . S
C279 C278 1.391 1_556 S
C280 N249 1.435 . S
C280 C281 1.358 . S
C280 C285 1.371 . S
C281 H253 0.930 . S
C281 C280 1.358 . S
C281 C282 1.405 . S
C282 H254 0.932 . S
C282 C281 1.405 . S
C282 C283 1.383 . S
C283 C282 1.383 . S
C283 C284 1.393 . S
C284 H256 0.931 . S
C284 C283 1.393 . S
C284 C285 1.382 . S
C285 H255 0.929 . S
C285 C280 1.371 . S
C285 C284 1.382 . S
C286 N249 1.423 . S
C286 C287 1.362 . S
C286 C291 1.388 . S
C287 H257 0.929 . S
C287 C286 1.362 . S
C287 C288 1.376 . S
C288 H259 0.931 . S
C288 C287 1.376 . S
C288 C289 1.396 . S
C289 C288 1.396 . S
C289 C290 1.348 . S
C289 C307 1.472 1_545 S
C290 H260 0.929 . S
C290 C289 1.348 . S
C290 C291 1.443 . S
C291 H258 0.932 . S
C291 C286 1.388 . S
C291 C290 1.443 . S
C292 N272 1.433 . S
C292 C293 1.363 . S
C292 C297 1.370 . S
C293 H261 0.929 . S
C293 C292 1.363 . S
C293 C294 1.385 . S
C294 H262 0.930 . S
C294 C293 1.385 . S
C294 C295 1.357 . S
C295 C294 1.357 . S
C295 C296 1.406 . S
C296 H263 0.929 . S
C296 C295 1.406 . S
C296 C297 1.391 . S
C297 H264 0.931 . S
C297 C292 1.370 . S
C297 C296 1.391 . S
C298 N272 1.435 1_556 S
C298 C299 1.358 . S
C298 C303 1.371 . S
C299 H265 0.930 1_556 S
C299 C298 1.358 . S
C299 C300 1.405 . S
C300 H266 0.932 . S
C300 C299 1.405 . S
C300 C301 1.383 . S
C301 C300 1.383 . S
C301 C302 1.393 . S
C302 H267 0.931 . S
C302 C301 1.393 . S
C302 C303 1.382 . S
C303 H268 0.929 . S
C303 C298 1.371 . S
C303 C302 1.382 . S
C304 N272 1.423 1_556 S
C304 C305 1.362 1_556 S
C304 C309 1.388 . S
C305 H269 0.929 . S
C305 C304 1.362 1_554 S
C305 C306 1.376 1_554 S
C306 H270 0.952 1_556 S
C306 C305 1.376 1_556 S
C306 C307 1.396 . S
C307 C289 1.472 1_565 S
C307 C306 1.396 . S
C307 C308 1.348 . S
C308 H271 0.929 . S
C308 C307 1.348 . S
C308 C309 1.443 . S
C309 H273 0.932 . S
C309 C304 1.388 . S
C309 C308 1.443 . S
H310 C337 0.929 . S
N311 C336 1.433 . S
N311 C342 1.435 . S
N311 C348 1.423 . S
H312 C338 0.930 . S
H313 C341 0.931 . S
H314 C340 0.929 . S
H315 C343 0.930 . S
H316 C344 0.932 . S
H317 C347 0.929 . S
H318 C346 0.931 . S
H319 C349 0.929 . S
H320 C353 0.932 . S
H321 C350 0.931 . S
H322 C352 0.929 . S
H323 C355 0.929 . S
H324 C356 0.930 . S
H325 C358 0.929 . S
H326 C359 0.931 . S
H327 C361 0.930 . S
H328 C362 0.932 . S
H329 C364 0.931 . S
H330 C365 0.929 . S
H331 C367 0.929 . S
H332 C368 0.931 . S
H333 C370 0.929 . S
N334 C354 1.433 . S
N334 C360 1.435 . S
N334 C366 1.423 . S
H335 C371 0.932 . S
C336 N311 1.433 . S
C336 C337 1.363 . S
C336 C341 1.370 . S
C337 H310 0.929 . S
C337 C336 1.363 . S
C337 C338 1.385 . S
C338 H312 0.930 . S
C338 C337 1.385 . S
C338 C339 1.357 . S
C339 C338 1.357 . S
C339 C340 1.406 . S
C340 H314 0.929 . S
C340 C339 1.406 . S
C340 C341 1.391 . S
C341 H313 0.931 . S
C341 C336 1.370 . S
C341 C340 1.391 . S
C342 N311 1.435 . S
C342 C343 1.358 . S
C342 C347 1.371 . S
C343 H315 0.930 . S
C343 C342 1.358 . S
C343 C344 1.405 . S
C344 H316 0.932 . S
C344 C343 1.405 . S
C344 C345 1.383 . S
C345 C344 1.383 . S
C345 C346 1.393 . S
C346 H318 0.931 . S
C346 C345 1.393 . S
C346 C347 1.382 . S
C347 H317 0.929 . S
C347 C342 1.371 . S
C347 C346 1.382 . S
C348 N311 1.423 . S
C348 C349 1.362 . S
C348 C353 1.388 . S
C349 H319 0.929 . S
C349 C348 1.362 . S
C349 C350 1.376 . S
C350 H321 0.931 . S
C350 C349 1.376 . S
C350 C351 1.396 . S
C351 C350 1.396 . S
C351 C352 1.348 . S
C351 C369 1.472 . S
C352 H322 0.929 . S
C352 C351 1.348 . S
C352 C353 1.443 . S
C353 H320 0.932 . S
C353 C348 1.388 . S
C353 C352 1.443 . S
C354 N334 1.433 . S
C354 C355 1.363 . S
C354 C359 1.370 . S
C355 H323 0.929 . S
C355 C354 1.363 . S
C355 C356 1.385 . S
C356 H324 0.930 . S
C356 C355 1.385 . S
C356 C357 1.357 . S
C357 C356 1.357 . S
C357 C358 1.406 . S
C358 H325 0.929 . S
C358 C357 1.406 . S
C358 C359 1.391 . S
C359 H326 0.931 . S
C359 C354 1.370 . S
C359 C358 1.391 . S
C360 N334 1.435 . S
C360 C361 1.358 . S
C360 C365 1.371 . S
C361 H327 0.930 . S
C361 C360 1.358 . S
C361 C362 1.405 . S
C362 H328 0.932 . S
C362 C361 1.405 . S
C362 C363 1.383 . S
C363 C362 1.383 . S
C363 C364 1.393 . S
C364 H329 0.931 . S
C364 C363 1.393 . S
C364 C365 1.382 . S
C365 H330 0.929 . S
C365 C360 1.371 . S
C365 C364 1.382 . S
C366 N334 1.423 . S
C366 C367 1.362 . S
C366 C371 1.388 . S
C367 H331 0.929 . S
C367 C366 1.362 . S
C367 C368 1.376 . S
C368 H332 0.931 . S
C368 C367 1.376 . S
C368 C369 1.396 . S
C369 C351 1.472 . S
C369 C368 1.396 . S
C369 C370 1.348 . S
C370 H333 0.929 . S
C370 C369 1.348 . S
C370 C371 1.443 . S
C371 H335 0.932 . S
C371 C366 1.388 . S
C371 C370 1.443 . S
Zn372 O375 2.031 . S
Zn372 O377 2.049 . S
Zn372 O382 2.067 . S
Zn373 O374 1.962 . S
Zn373 O376 1.986 . S
Zn373 O378 1.996 . S
Zn373 O381 1.943 . S
O374 Zn373 1.962 . S
O374 C379 1.254 . S
O375 Zn372 2.031 . S
O375 C379 1.269 . S
O376 Zn373 1.986 . S
O376 C383 1.262 . S
O377 Zn372 2.049 . S
O377 C385 1.260 . S
O378 Zn373 1.996 . S
O378 C385 1.257 . S
C379 O374 1.254 . S
C379 O375 1.269 . S
C380 O381 1.249 . S
C380 O382 1.270 . S
O381 Zn373 1.943 . S
O381 C380 1.249 . S
O382 Zn372 2.067 . S
O382 C380 1.270 . S
C383 O376 1.262 . S
C383 O384 1.232 . S
O384 C383 1.232 . S
C385 O377 1.260 . S
C385 O378 1.257 . S
Zn386 O389 2.031 . S
Zn386 O391 2.049 . S
Zn386 O396 2.067 . S
Zn387 O388 1.962 . S
Zn387 O390 1.986 . S
Zn387 O392 1.996 . S
Zn387 O395 1.943 . S
O388 Zn387 1.962 . S
O388 C393 1.254 . S
O389 Zn386 2.031 . S
O389 C393 1.269 . S
O390 Zn387 1.986 . S
O390 C397 1.262 . S
O391 Zn386 2.049 . S
O391 C399 1.260 . S
O392 Zn387 1.996 . S
O392 C399 1.257 . S
C393 O388 1.254 . S
C393 O389 1.269 . S
C394 O395 1.249 . S
C394 O396 1.270 . S
O395 Zn387 1.943 . S
O395 C394 1.249 . S
O396 Zn386 2.067 . S
O396 C394 1.270 . S
C397 O390 1.262 . S
C397 O398 1.232 . S
O398 C397 1.232 . S
C399 O391 1.260 . S
C399 O392 1.257 . S
Zn400 O403 2.031 . S
Zn400 O405 2.049 . S
Zn400 O410 2.067 . S
Zn401 O402 1.962 . S
Zn401 O404 1.986 . S
Zn401 O406 1.996 . S
Zn401 O409 1.943 . S
O402 Zn401 1.962 . S
O402 C407 1.254 . S
O403 Zn400 2.031 . S
O403 C407 1.269 . S
O404 Zn401 1.986 . S
O404 C411 1.262 . S
O405 Zn400 2.049 . S
O405 C413 1.260 . S
O406 Zn401 1.996 . S
O406 C413 1.257 . S
C407 O402 1.254 . S
C407 O403 1.269 . S
C408 O409 1.249 . S
C408 O410 1.270 . S
O409 Zn401 1.943 . S
O409 C408 1.249 . S
O410 Zn400 2.067 . S
O410 C408 1.270 . S
C411 O404 1.262 . S
C411 O412 1.232 . S
O412 C411 1.232 . S
C413 O405 1.260 . S
C413 O406 1.257 . S
Zn414 O417 2.031 . S
Zn414 O419 2.049 . S
Zn414 O424 2.067 . S
Zn415 O416 1.962 . S
Zn415 O418 1.986 . S
Zn415 O420 1.996 . S
Zn415 O423 1.943 . S
O416 Zn415 1.962 . S
O416 C421 1.254 . S
O417 Zn414 2.031 . S
O417 C421 1.269 . S
O418 Zn415 1.986 . S
O418 C425 1.262 . S
O419 Zn414 2.049 . S
O419 C427 1.260 . S
O420 Zn415 1.996 . S
O420 C427 1.257 . S
C421 O416 1.254 . S
C421 O417 1.269 . S
C422 O423 1.249 . S
C422 O424 1.270 . S
O423 Zn415 1.943 . S
O423 C422 1.249 . S
O424 Zn414 2.067 . S
O424 C422 1.270 . S
C425 O418 1.262 . S
C425 O426 1.232 . S
O426 C425 1.232 . S
C427 O419 1.260 . S
C427 O420 1.257 . S
Zn428 O431 2.031 . S
Zn428 O433 2.049 . S
Zn428 O438 2.067 . S
Zn429 O430 1.962 . S
Zn429 O432 1.986 . S
Zn429 O434 1.996 . S
Zn429 O437 1.943 . S
O430 Zn429 1.962 . S
O430 C435 1.254 . S
O431 Zn428 2.031 . S
O431 C435 1.269 . S
O432 Zn429 1.986 . S
O432 C439 1.262 . S
O433 Zn428 2.049 . S
O433 C441 1.260 . S
O434 Zn429 1.996 . S
O434 C441 1.257 . S
C435 O430 1.254 . S
C435 O431 1.269 . S
C436 O437 1.249 . S
C436 O438 1.270 . S
O437 Zn429 1.943 . S
O437 C436 1.249 . S
O438 Zn428 2.067 . S
O438 C436 1.270 . S
C439 O432 1.262 . S
C439 O440 1.232 . S
O440 C439 1.232 . S
C441 O433 1.260 . S
C441 O434 1.257 . S
Zn442 O445 2.031 . S
Zn442 O447 2.049 . S
Zn442 O452 2.067 . S
Zn443 O444 1.962 . S
Zn443 O446 1.986 . S
Zn443 O448 1.996 . S
Zn443 O451 1.943 . S
O444 Zn443 1.962 . S
O444 C449 1.254 . S
O445 Zn442 2.031 . S
O445 C449 1.269 . S
O446 Zn443 1.986 . S
O446 C453 1.262 . S
O447 Zn442 2.049 . S
O447 C455 1.260 . S
O448 Zn443 1.996 . S
O448 C455 1.257 . S
C449 O444 1.254 . S
C449 O445 1.269 . S
C450 O451 1.249 . S
C450 O452 1.270 . S
O451 Zn443 1.943 . S
O451 C450 1.249 . S
O452 Zn442 2.067 . S
O452 C450 1.270 . S
C453 O446 1.262 . S
C453 O454 1.232 . S
O454 C453 1.232 . S
C455 O447 1.260 . S
C455 O448 1.257 . S
C456 C457 1.349 . S
C456 C458 1.327 . S
C456 H481 0.950 . S
C457 C456 1.349 . S
C457 C473 1.349 . S
C458 C456 1.327 . S
C458 C477 1.429 . S
C458 H482 0.950 . S
C459 C476 1.574 . S
C459 C478 1.368 . S
C459 H483 0.949 . S
H460 C464 0.949 . S
C461 C462 1.349 . S
C461 C463 1.327 . S
C461 H484 0.950 . S
C462 C461 1.349 . S
C462 C474 1.349 . S
C463 C461 1.327 . S
C463 C479 1.429 . S
C463 H485 0.950 . S
C464 H460 0.949 . S
C464 C472 1.574 . S
C464 C480 1.368 . S
H465 C473 0.950 . S
H466 C471 0.950 . S
H467 C472 0.949 . S
H468 C474 0.950 . S
H469 C475 0.950 . S
H470 C476 0.949 . S
C471 H466 0.950 . S
C471 C473 1.327 . S
C471 C477 1.429 . S
C472 C464 1.574 . S
C472 H467 0.949 . S
C472 C478 1.368 . S
C473 C457 1.349 . S
C473 H465 0.950 . S
C473 C471 1.327 . S
C474 C462 1.349 . S
C474 H468 0.950 . S
C474 C475 1.327 . S
C475 H469 0.950 . S
C475 C474 1.327 . S
C475 C479 1.429 . S
C476 C459 1.574 . S
C476 H470 0.949 . S
C476 C480 1.368 . S
C477 C458 1.429 . S
C477 C471 1.429 . S
C477 C478 1.523 . S
C478 C459 1.368 . S
C478 C472 1.368 . S
C478 C477 1.523 . S
C479 C463 1.429 . S
C479 C475 1.429 . S
C479 C480 1.523 . S
C480 C464 1.368 . S
C480 C476 1.368 . S
C480 C479 1.523 . S
H481 C456 0.950 . S
H482 C458 0.950 . S
H483 C459 0.949 . S
H484 C461 0.950 . S
H485 C463 0.950 . S
C486 C487 1.349 . S
C486 C488 1.327 . S
C486 H511 0.950 . S
C487 C486 1.349 . S
C487 C503 1.349 . S
C488 C486 1.327 . S
C488 C507 1.429 . S
C488 H512 0.950 . S
C489 C506 1.574 . S
C489 C508 1.368 . S
C489 H513 0.949 . S
H490 C494 0.949 . S
C491 C492 1.349 . S
C491 C493 1.327 . S
C491 H514 0.950 . S
C492 C491 1.349 . S
C492 C504 1.349 . S
C493 C491 1.327 . S
C493 C509 1.429 . S
C493 H515 0.950 . S
C494 H490 0.949 . S
C494 C502 1.574 . S
C494 C510 1.368 . S
H495 C503 0.950 . S
H496 C501 0.950 . S
H497 C502 0.949 . S
H498 C504 0.950 . S
H499 C505 0.950 . S
H500 C506 0.949 . S
C501 H496 0.950 . S
C501 C503 1.327 . S
C501 C507 1.429 . S
C502 C494 1.574 . S
C502 H497 0.949 . S
C502 C508 1.368 . S
C503 C487 1.349 . S
C503 H495 0.950 . S
C503 C501 1.327 . S
C504 C492 1.349 . S
C504 H498 0.950 . S
C504 C505 1.327 . S
C505 H499 0.950 . S
C505 C504 1.327 . S
C505 C509 1.429 . S
C506 C489 1.574 . S
C506 H500 0.949 . S
C506 C510 1.368 . S
C507 C488 1.429 . S
C507 C501 1.429 . S
C507 C508 1.523 . S
C508 C489 1.368 . S
C508 C502 1.368 . S
C508 C507 1.523 . S
C509 C493 1.429 . S
C509 C505 1.429 . S
C509 C510 1.523 . S
C510 C494 1.368 . S
C510 C506 1.368 . S
C510 C509 1.523 . S
H511 C486 0.950 . S
H512 C488 0.950 . S
H513 C489 0.949 . S
H514 C491 0.950 . S
H515 C493 0.950 . S
C516 C517 1.349 . S
C516 C518 1.327 . S
C516 H541 0.950 . S
C517 C516 1.349 . S
C517 C533 1.349 . S
C518 C516 1.327 . S
C518 C537 1.429 . S
C518 H542 0.950 . S
C519 C536 1.574 . S
C519 C538 1.368 . S
C519 H543 0.949 . S
H520 C524 0.949 . S
C521 C522 1.349 . S
C521 C523 1.327 . S
C521 H544 0.950 . S
C522 C521 1.349 . S
C522 C534 1.349 . S
C523 C521 1.327 . S
C523 C539 1.429 . S
C523 H545 0.950 . S
C524 H520 0.949 . S
C524 C532 1.574 . S
C524 C540 1.368 . S
H525 C533 0.950 . S
H526 C531 0.950 . S
H527 C532 0.949 . S
H528 C534 0.950 . S
H529 C535 0.950 . S
H530 C536 0.949 . S
C531 H526 0.950 . S
C531 C533 1.327 . S
C531 C537 1.429 . S
C532 C524 1.574 . S
C532 H527 0.949 . S
C532 C538 1.368 . S
C533 C517 1.349 . S
C533 H525 0.950 . S
C533 C531 1.327 . S
C534 C522 1.349 . S
C534 H528 0.950 . S
C534 C535 1.327 . S
C535 H529 0.950 . S
C535 C534 1.327 . S
C535 C539 1.429 . S
C536 C519 1.574 . S
C536 H530 0.949 . S
C536 C540 1.368 . S
C537 C518 1.429 . S
C537 C531 1.429 . S
C537 C538 1.523 . S
C538 C519 1.368 . S
C538 C532 1.368 . S
C538 C537 1.523 . S
C539 C523 1.429 . S
C539 C535 1.429 . S
C539 C540 1.523 . S
C540 C524 1.368 . S
C540 C536 1.368 . S
C540 C539 1.523 . S
H541 C516 0.950 . S
H542 C518 0.950 . S
H543 C519 0.949 . S
H544 C521 0.950 . S
H545 C523 0.950 . S
C546 C547 1.349 . S
C546 C548 1.327 . S
C546 H571 0.950 . S
C547 C546 1.349 . S
C547 C563 1.349 . S
C548 C546 1.327 . S
C548 C567 1.429 . S
C548 H572 0.950 . S
C549 C566 1.574 . S
C549 C568 1.368 . S
C549 H573 0.949 . S
H550 C554 0.949 . S
C551 C552 1.349 . S
C551 C553 1.327 . S
C551 H574 0.950 . S
C552 C551 1.349 . S
C552 C564 1.349 . S
C553 C551 1.327 . S
C553 C569 1.429 . S
C553 H575 0.950 . S
C554 H550 0.949 . S
C554 C562 1.574 . S
C554 C570 1.368 . S
H555 C563 0.950 . S
H556 C561 0.950 . S
H557 C562 0.949 . S
H558 C564 0.950 . S
H559 C565 0.950 . S
H560 C566 0.949 . S
C561 H556 0.950 . S
C561 C563 1.327 . S
C561 C567 1.429 . S
C562 C554 1.574 . S
C562 H557 0.949 . S
C562 C568 1.368 . S
C563 C547 1.349 . S
C563 H555 0.950 . S
C563 C561 1.327 . S
C564 C552 1.349 . S
C564 H558 0.950 . S
C564 C565 1.327 . S
C565 H559 0.950 . S
C565 C564 1.327 . S
C565 C569 1.429 . S
C566 C549 1.574 . S
C566 H560 0.949 . S
C566 C570 1.368 . S
C567 C548 1.429 . S
C567 C561 1.429 . S
C567 C568 1.523 . S
C568 C549 1.368 . S
C568 C562 1.368 . S
C568 C567 1.523 . S
C569 C553 1.429 . S
C569 C565 1.429 . S
C569 C570 1.523 . S
C570 C554 1.368 . S
C570 C566 1.368 . S
C570 C569 1.523 . S
H571 C546 0.950 . S
H572 C548 0.950 . S
H573 C549 0.949 . S
H574 C551 0.950 . S
H575 C553 0.950 . S
C576 C577 1.349 . S
C576 C578 1.327 . S
C576 H601 0.950 . S
C577 C576 1.349 . S
C577 C593 1.349 . S
C578 C576 1.327 . S
C578 C597 1.429 . S
C578 H602 0.950 . S
C579 C596 1.574 . S
C579 C598 1.368 . S
C579 H603 0.949 . S
H580 C584 0.949 . S
C581 C582 1.349 . S
C581 C583 1.327 . S
C581 H604 0.950 . S
C582 C581 1.349 . S
C582 C594 1.349 . S
C583 C581 1.327 . S
C583 C599 1.429 . S
C583 H605 0.950 . S
C584 H580 0.949 . S
C584 C592 1.574 . S
C584 C600 1.368 . S
H585 C593 0.950 . S
H586 C591 0.950 . S
H587 C592 0.949 . S
H588 C594 0.950 . S
H589 C595 0.950 . S
H590 C596 0.949 . S
C591 H586 0.950 . S
C591 C593 1.327 . S
C591 C597 1.429 . S
C592 C584 1.574 . S
C592 H587 0.949 . S
C592 C598 1.368 . S
C593 C577 1.349 . S
C593 H585 0.950 . S
C593 C591 1.327 . S
C594 C582 1.349 . S
C594 H588 0.950 . S
C594 C595 1.327 . S
C595 H589 0.950 . S
C595 C594 1.327 . S
C595 C599 1.429 . S
C596 C579 1.574 . S
C596 H590 0.949 . S
C596 C600 1.368 . S
C597 C578 1.429 . S
C597 C591 1.429 . S
C597 C598 1.523 . S
C598 C579 1.368 . S
C598 C592 1.368 . S
C598 C597 1.523 . S
C599 C583 1.429 . S
C599 C595 1.429 . S
C599 C600 1.523 . S
C600 C584 1.368 . S
C600 C596 1.368 . S
C600 C599 1.523 . S
H601 C576 0.950 . S
H602 C578 0.950 . S
H603 C579 0.949 . S
H604 C581 0.950 . S
H605 C583 0.950 . S
C606 C607 1.349 . S
C606 C608 1.327 . S
C606 H631 0.950 . S
C607 C606 1.349 . S
C607 C623 1.349 . S
C608 C606 1.327 . S
C608 C627 1.429 . S
C608 H632 0.950 . S
C609 C626 1.574 . S
C609 C628 1.368 . S
C609 H633 0.949 . S
H610 C614 0.949 . S
C611 C612 1.349 . S
C611 C613 1.327 . S
C611 H634 0.950 . S
C612 C611 1.349 . S
C612 C624 1.349 . S
C613 C611 1.327 . S
C613 C629 1.429 . S
C613 H635 0.950 . S
C614 H610 0.949 . S
C614 C622 1.574 . S
C614 C630 1.368 . S
H615 C623 0.950 . S
H616 C621 0.950 . S
H617 C622 0.949 . S
H618 C624 0.950 . S
H619 C625 0.950 . S
H620 C626 0.949 . S
C621 H616 0.950 . S
C621 C623 1.327 . S
C621 C627 1.429 . S
C622 C614 1.574 . S
C622 H617 0.949 . S
C622 C628 1.368 . S
C623 C607 1.349 . S
C623 H615 0.950 . S
C623 C621 1.327 . S
C624 C612 1.349 . S
C624 H618 0.950 . S
C624 C625 1.327 . S
C625 H619 0.950 . S
C625 C624 1.327 . S
C625 C629 1.429 . S
C626 C609 1.574 . S
C626 H620 0.949 . S
C626 C630 1.368 . S
C627 C608 1.429 . S
C627 C621 1.429 . S
C627 C628 1.523 . S
C628 C609 1.368 . S
C628 C622 1.368 . S
C628 C627 1.523 . S
C629 C613 1.429 . S
C629 C625 1.429 . S
C629 C630 1.523 . S
C630 C614 1.368 . S
C630 C626 1.368 . S
C630 C629 1.523 . S
H631 C606 0.950 . S
H632 C608 0.950 . S
H633 C609 0.949 . S
H634 C611 0.950 . S
H635 C613 0.950 . S
C636 C637 1.349 . S
C636 C638 1.327 . S
C636 H661 0.950 . S
C637 C636 1.349 . S
C637 C653 1.349 . S
C638 C636 1.327 . S
C638 C657 1.429 . S
C638 H662 0.950 . S
C639 C656 1.574 . S
C639 C658 1.368 . S
C639 H663 0.949 . S
H640 C644 0.949 . S
C641 C642 1.349 . S
C641 C643 1.327 . S
C641 H664 0.950 . S
C642 C641 1.349 . S
C642 C654 1.349 . S
C643 C641 1.327 . S
C643 C659 1.429 . S
C643 H665 0.950 . S
C644 H640 0.949 . S
C644 C652 1.574 . S
C644 C660 1.368 . S
H645 C653 0.950 . S
H646 C651 0.950 . S
H647 C652 0.949 . S
H648 C654 0.950 . S
H649 C655 0.950 . S
H650 C656 0.949 . S
C651 H646 0.950 . S
C651 C653 1.327 . S
C651 C657 1.429 . S
C652 C644 1.574 . S
C652 H647 0.949 . S
C652 C658 1.368 . S
C653 C637 1.349 . S
C653 H645 0.950 . S
C653 C651 1.327 . S
C654 C642 1.349 . S
C654 H648 0.950 . S
C654 C655 1.327 . S
C655 H649 0.950 . S
C655 C654 1.327 . S
C655 C659 1.429 . S
C656 C639 1.574 . S
C656 H650 0.949 . S
C656 C660 1.368 . S
C657 C638 1.429 . S
C657 C651 1.429 . S
C657 C658 1.523 . S
C658 C639 1.368 . S
C658 C652 1.368 . S
C658 C657 1.523 . S
C659 C643 1.429 . S
C659 C655 1.429 . S
C659 C660 1.523 . S
C660 C644 1.368 . S
C660 C656 1.368 . S
C660 C659 1.523 . S
H661 C636 0.950 . S
H662 C638 0.950 . S
H663 C639 0.949 . S
H664 C641 0.950 . S
H665 C643 0.950 . S
C666 C667 1.349 . S
C666 C668 1.327 . S
C666 H691 0.950 . S
C667 C666 1.349 . S
C667 C683 1.349 . S
C668 C666 1.327 . S
C668 C687 1.429 . S
C668 H692 0.950 . S
C669 C686 1.574 . S
C669 C688 1.368 . S
C669 H693 0.949 . S
H670 C674 0.949 . S
C671 C672 1.349 . S
C671 C673 1.327 . S
C671 H694 0.950 . S
C672 C671 1.349 . S
C672 C684 1.349 . S
C673 C671 1.327 . S
C673 C689 1.429 . S
C673 H695 0.950 . S
C674 H670 0.949 . S
C674 C682 1.574 . S
C674 C690 1.368 . S
H675 C683 0.950 . S
H676 C681 0.950 . S
H677 C682 0.949 . S
H678 C684 0.950 . S
H679 C685 0.950 . S
H680 C686 0.949 . S
C681 H676 0.950 . S
C681 C683 1.327 . S
C681 C687 1.429 . S
C682 C674 1.574 . S
C682 H677 0.949 . S
C682 C688 1.368 . S
C683 C667 1.349 . S
C683 H675 0.950 . S
C683 C681 1.327 . S
C684 C672 1.349 . S
C684 H678 0.950 . S
C684 C685 1.327 . S
C685 H679 0.950 . S
C685 C684 1.327 . S
C685 C689 1.429 . S
C686 C669 1.574 . S
C686 H680 0.949 . S
C686 C690 1.368 . S
C687 C668 1.429 . S
C687 C681 1.429 . S
C687 C688 1.523 . S
C688 C669 1.368 . S
C688 C682 1.368 . S
C688 C687 1.523 . S
C689 C673 1.429 . S
C689 C685 1.429 . S
C689 C690 1.523 . S
C690 C674 1.368 . S
C690 C686 1.368 . S
C690 C689 1.523 . S
H691 C666 0.950 . S
H692 C668 0.950 . S
H693 C669 0.949 . S
H694 C671 0.950 . S
H695 C673 0.950 . S
C696 C697 1.349 . S
C696 C698 1.327 . S
C696 H721 0.950 . S
C697 C696 1.349 . S
C697 C713 1.349 . S
C698 C696 1.327 . S
C698 C717 1.429 . S
C698 H722 0.950 . S
C699 C716 1.574 . S
C699 C718 1.368 . S
C699 H723 0.949 . S
H700 C704 0.949 . S
C701 C702 1.349 . S
C701 C703 1.327 . S
C701 H724 0.950 . S
C702 C701 1.349 . S
C702 C714 1.349 . S
C703 C701 1.327 . S
C703 C719 1.429 . S
C703 H725 0.950 . S
C704 H700 0.949 . S
C704 C712 1.574 . S
C704 C720 1.368 . S
H705 C713 0.950 . S
H706 C711 0.950 . S
H707 C712 0.949 . S
H708 C714 0.950 . S
H709 C715 0.950 . S
H710 C716 0.949 . S
C711 H706 0.950 . S
C711 C713 1.327 . S
C711 C717 1.429 . S
C712 C704 1.574 . S
C712 H707 0.949 . S
C712 C718 1.368 . S
C713 C697 1.349 . S
C713 H705 0.950 . S
C713 C711 1.327 . S
C714 C702 1.349 . S
C714 H708 0.950 . S
C714 C715 1.327 . S
C715 H709 0.950 . S
C715 C714 1.327 . S
C715 C719 1.429 . S
C716 C699 1.574 . S
C716 H710 0.949 . S
C716 C720 1.368 . S
C717 C698 1.429 . S
C717 C711 1.429 . S
C717 C718 1.523 . S
C718 C699 1.368 . S
C718 C712 1.368 . S
C718 C717 1.523 . S
C719 C703 1.429 . S
C719 C715 1.429 . S
C719 C720 1.523 . S
C720 C704 1.368 . S
C720 C716 1.368 . S
C720 C719 1.523 . S
H721 C696 0.950 . S
H722 C698 0.950 . S
H723 C699 0.949 . S
H724 C701 0.950 . S
H725 C703 0.950 . S
C726 C727 1.349 . S
C726 C728 1.327 . S
C726 H751 0.954 1_554 S
C727 C726 1.349 . S
C727 C743 1.349 . S
C728 C726 1.327 . S
C728 C747 1.429 . S
C728 H752 0.950 . S
C729 C746 1.574 . S
C729 C748 1.368 . S
C729 H753 0.949 . S
H730 C734 0.949 . S
C731 C732 1.349 . S
C731 C733 1.327 . S
C731 H754 0.950 . S
C732 C731 1.349 . S
C732 C744 1.349 . S
C733 C731 1.327 . S
C733 C749 1.429 . S
C733 H755 0.950 . S
C734 H730 0.949 . S
C734 C742 1.574 . S
C734 C750 1.368 . S
H735 C743 0.950 . S
H736 C741 0.950 . S
H737 C742 0.949 . S
H738 C744 0.950 . S
H739 C745 0.950 . S
H740 C746 0.949 . S
C741 H736 0.950 . S
C741 C743 1.327 . S
C741 C747 1.429 . S
C742 C734 1.574 . S
C742 H737 0.949 . S
C742 C748 1.368 . S
C743 C727 1.349 . S
C743 H735 0.950 . S
C743 C741 1.327 . S
C744 C732 1.349 . S
C744 H738 0.950 . S
C744 C745 1.327 . S
C745 H739 0.950 . S
C745 C744 1.327 . S
C745 C749 1.429 . S
C746 C729 1.574 . S
C746 H740 0.949 . S
C746 C750 1.368 . S
C747 C728 1.429 . S
C747 C741 1.429 . S
C747 C748 1.523 . S
C748 C729 1.368 . S
C748 C742 1.368 . S
C748 C747 1.523 . S
C749 C733 1.429 . S
C749 C745 1.429 . S
C749 C750 1.523 . S
C750 C734 1.368 . S
C750 C746 1.368 . S
C750 C749 1.523 . S
H751 C726 0.954 1_556 S
H752 C728 0.950 . S
H753 C729 0.949 . S
H754 C731 0.950 . S
H755 C733 0.950 . S
C756 C757 1.349 . S
C756 C758 1.327 . S
C756 H781 0.950 . S
C757 C756 1.349 . S
C757 C773 1.349 . S
C758 C756 1.327 . S
C758 C777 1.429 . S
C758 H782 0.950 . S
C759 C776 1.574 . S
C759 C778 1.368 . S
C759 H783 0.949 . S
H760 C764 0.949 . S
C761 C762 1.349 . S
C761 C763 1.327 . S
C761 H784 0.950 . S
C762 C761 1.349 . S
C762 C774 1.349 . S
C763 C761 1.327 . S
C763 C779 1.429 . S
C763 H785 0.950 . S
C764 H760 0.949 . S
C764 C772 1.574 . S
C764 C780 1.368 . S
H765 C773 0.950 . S
H766 C771 0.950 . S
H767 C772 0.949 . S
H768 C774 0.950 . S
H769 C775 0.950 . S
H770 C776 0.949 . S
C771 H766 0.950 . S
C771 C773 1.327 . S
C771 C777 1.429 . S
C772 C764 1.574 . S
C772 H767 0.949 . S
C772 C778 1.368 . S
C773 C757 1.349 . S
C773 H765 0.950 . S
C773 C771 1.327 . S
C774 C762 1.349 . S
C774 H768 0.950 . S
C774 C775 1.327 . S
C775 H769 0.950 . S
C775 C774 1.327 . S
C775 C779 1.429 . S
C776 C759 1.574 . S
C776 H770 0.949 . S
C776 C780 1.368 . S
C777 C758 1.429 . S
C777 C771 1.429 . S
C777 C778 1.523 . S
C778 C759 1.368 . S
C778 C772 1.368 . S
C778 C777 1.523 . S
C779 C763 1.429 . S
C779 C775 1.429 . S
C779 C780 1.523 . S
C780 C764 1.368 . S
C780 C776 1.368 . S
C780 C779 1.523 . S
H781 C756 0.950 . S
H782 C758 0.950 . S
H783 C759 0.949 . S
H784 C761 0.950 . S
H785 C763 0.950 . S
C786 C787 1.349 . S
C786 C788 1.327 . S
C786 H811 0.950 . S
C787 C786 1.349 . S
C787 C803 1.349 . S
C788 C786 1.327 . S
C788 C807 1.429 . S
C788 H812 0.950 . S
C789 C806 1.574 . S
C789 C808 1.368 . S
C789 H813 0.949 . S
H790 C794 0.949 . S
C791 C792 1.349 . S
C791 C793 1.327 . S
C791 H814 0.950 . S
C792 C791 1.349 . S
C792 C804 1.349 . S
C793 C791 1.327 . S
C793 C809 1.429 . S
C793 H815 0.950 . S
C794 H790 0.949 . S
C794 C802 1.574 . S
C794 C810 1.368 . S
H795 C803 0.950 . S
H796 C801 0.950 . S
H797 C802 0.949 . S
H798 C804 0.950 . S
H799 C805 0.950 . S
H800 C806 0.949 . S
C801 H796 0.950 . S
C801 C803 1.327 . S
C801 C807 1.429 . S
C802 C794 1.574 . S
C802 H797 0.949 . S
C802 C808 1.368 . S
C803 C787 1.349 . S
C803 H795 0.950 . S
C803 C801 1.327 . S
C804 C792 1.349 . S
C804 H798 0.950 . S
C804 C805 1.327 . S
C805 H799 0.950 . S
C805 C804 1.327 . S
C805 C809 1.429 . S
C806 C789 1.574 . S
C806 H800 0.949 . S
C806 C810 1.368 . S
C807 C788 1.429 . S
C807 C801 1.429 . S
C807 C808 1.523 . S
C808 C789 1.368 . S
C808 C802 1.368 . S
C808 C807 1.523 . S
C809 C793 1.429 . S
C809 C805 1.429 . S
C809 C810 1.523 . S
C810 C794 1.368 . S
C810 C806 1.368 . S
C810 C809 1.523 . S
H811 C786 0.950 . S
H812 C788 0.950 . S
H813 C789 0.949 . S
H814 C791 0.950 . S
H815 C793 0.950 . S
C816 C817 1.349 . S
C816 C818 1.327 . S
C816 H841 0.950 . S
C817 C816 1.349 . S
C817 C833 1.349 . S
C818 C816 1.327 . S
C818 C837 1.429 . S
C818 H842 0.950 . S
C819 C836 1.574 . S
C819 C838 1.368 . S
C819 H843 0.949 . S
H820 C824 0.949 . S
C821 C822 1.349 . S
C821 C823 1.327 . S
C821 H844 0.950 . S
C822 C821 1.349 . S
C822 C834 1.349 . S
C823 C821 1.327 . S
C823 C839 1.429 . S
C823 H845 0.950 . S
C824 H820 0.949 . S
C824 C832 1.574 . S
C824 C840 1.368 . S
H825 C833 0.950 . S
H826 C831 0.950 . S
H827 C832 0.949 . S
H828 C834 0.950 . S
H829 C835 0.950 . S
H830 C836 0.949 . S
C831 H826 0.950 . S
C831 C833 1.327 . S
C831 C837 1.429 . S
C832 C824 1.574 . S
C832 H827 0.949 . S
C832 C838 1.368 . S
C833 C817 1.349 . S
C833 H825 0.950 . S
C833 C831 1.327 . S
C834 C822 1.349 . S
C834 H828 0.950 . S
C834 C835 1.327 . S
C835 H829 0.950 . S
C835 C834 1.327 . S
C835 C839 1.429 . S
C836 C819 1.574 . S
C836 H830 0.949 . S
C836 C840 1.368 . S
C837 C818 1.429 . S
C837 C831 1.429 . S
C837 C838 1.523 . S
C838 C819 1.368 . S
C838 C832 1.368 . S
C838 C837 1.523 . S
C839 C823 1.429 . S
C839 C835 1.429 . S
C839 C840 1.523 . S
C840 C824 1.368 . S
C840 C836 1.368 . S
C840 C839 1.523 . S
H841 C816 0.950 . S
H842 C818 0.950 . S
H843 C819 0.949 . S
H844 C821 0.950 . S
H845 C823 0.950 . S
C846 C847 1.349 . S
C846 C848 1.327 . S
C846 H871 0.950 . S
C847 C846 1.349 . S
C847 C863 1.349 . S
C848 C846 1.327 . S
C848 C867 1.429 . S
C848 H872 0.950 . S
C849 C866 1.574 . S
C849 C868 1.368 . S
C849 H873 0.949 . S
H850 C854 0.949 . S
C851 C852 1.349 . S
C851 C853 1.327 . S
C851 H874 0.950 . S
C852 C851 1.349 . S
C852 C864 1.349 . S
C853 C851 1.327 . S
C853 C869 1.429 . S
C853 H875 0.950 . S
C854 H850 0.949 . S
C854 C862 1.574 . S
C854 C870 1.368 . S
H855 C863 0.950 . S
H856 C861 0.950 . S
H857 C862 0.949 . S
H858 C864 0.950 . S
H859 C865 0.950 . S
H860 C866 0.949 . S
C861 H856 0.950 . S
C861 C863 1.327 . S
C861 C867 1.429 . S
C862 C854 1.574 . S
C862 H857 0.949 . S
C862 C868 1.368 . S
C863 C847 1.349 . S
C863 H855 0.950 . S
C863 C861 1.327 . S
C864 C852 1.349 . S
C864 H858 0.950 . S
C864 C865 1.327 . S
C865 H859 0.950 . S
C865 C864 1.327 . S
C865 C869 1.429 . S
C866 C849 1.574 . S
C866 H860 0.949 . S
C866 C870 1.368 . S
C867 C848 1.429 . S
C867 C861 1.429 . S
C867 C868 1.523 . S
C868 C849 1.368 . S
C868 C862 1.368 . S
C868 C867 1.523 . S
C869 C853 1.429 . S
C869 C865 1.429 . S
C869 C870 1.523 . S
C870 C854 1.368 . S
C870 C866 1.368 . S
C870 C869 1.523 . S
H871 C846 0.950 . S
H872 C848 0.950 . S
H873 C849 0.949 . S
H874 C851 0.950 . S
H875 C853 0.950 . S
C876 C877 1.349 . S
C876 C878 1.327 . S
C876 H901 0.950 . S
C877 C876 1.349 . S
C877 C893 1.349 . S
C878 C876 1.327 . S
C878 C897 1.429 . S
C878 H902 0.950 . S
C879 C896 1.574 . S
C879 C898 1.368 . S
C879 H903 0.949 . S
H880 C884 0.949 . S
C881 C882 1.349 . S
C881 C883 1.327 . S
C881 H904 0.950 . S
C882 C881 1.349 . S
C882 C894 1.349 . S
C883 C881 1.327 . S
C883 C899 1.429 . S
C883 H905 0.950 . S
C884 H880 0.949 . S
C884 C892 1.574 . S
C884 C900 1.368 . S
H885 C893 0.950 . S
H886 C891 0.950 . S
H887 C892 0.949 . S
H888 C894 0.950 . S
H889 C895 0.950 . S
H890 C896 0.949 . S
C891 H886 0.950 . S
C891 C893 1.327 . S
C891 C897 1.429 . S
C892 C884 1.574 . S
C892 H887 0.949 . S
C892 C898 1.368 . S
C893 C877 1.349 . S
C893 H885 0.950 . S
C893 C891 1.327 . S
C894 C882 1.349 . S
C894 H888 0.950 . S
C894 C895 1.327 . S
C895 H889 0.950 . S
C895 C894 1.327 . S
C895 C899 1.429 . S
C896 C879 1.574 . S
C896 H890 0.949 . S
C896 C900 1.368 . S
C897 C878 1.429 . S
C897 C891 1.429 . S
C897 C898 1.523 . S
C898 C879 1.368 . S
C898 C892 1.368 . S
C898 C897 1.523 . S
C899 C883 1.429 . S
C899 C895 1.429 . S
C899 C900 1.523 . S
C900 C884 1.368 . S
C900 C896 1.368 . S
C900 C899 1.523 . S
H901 C876 0.950 . S
H902 C878 0.950 . S
H903 C879 0.949 . S
H904 C881 0.950 . S
H905 C883 0.950 . S
C906 C907 1.349 . S
C906 C908 1.327 . S
C906 H931 0.950 . S
C907 C906 1.349 . S
C907 C923 1.349 . S
C908 C906 1.327 . S
C908 C927 1.429 . S
C908 H932 0.950 . S
C909 C926 1.574 . S
C909 C928 1.368 . S
C909 H933 0.949 . S
H910 C914 0.949 . S
C911 C912 1.349 . S
C911 C913 1.327 1_554 S
C911 H934 0.950 . S
C912 C911 1.349 . S
C912 C924 1.349 . S
C913 C911 1.327 1_556 S
C913 C929 1.429 . S
C913 H935 0.950 . S
C914 H910 0.949 . S
C914 C922 1.574 . S
C914 C930 1.368 . S
H915 C923 0.950 . S
H916 C921 0.950 . S
H917 C922 0.949 . S
H918 C924 0.950 . S
H919 C925 0.950 . S
H920 C926 0.949 . S
C921 H916 0.950 . S
C921 C923 1.327 . S
C921 C927 1.429 . S
C922 C914 1.574 . S
C922 H917 0.949 . S
C922 C928 1.368 . S
C923 C907 1.349 . S
C923 H915 0.950 . S
C923 C921 1.327 . S
C924 C912 1.349 . S
C924 H918 0.950 . S
C924 C925 1.327 . S
C925 H919 0.950 . S
C925 C924 1.327 . S
C925 C929 1.429 1_554 S
C926 C909 1.574 . S
C926 H920 0.949 . S
C926 C930 1.368 . S
C927 C908 1.429 . S
C927 C921 1.429 . S
C927 C928 1.523 . S
C928 C909 1.368 . S
C928 C922 1.368 . S
C928 C927 1.523 . S
C929 C913 1.429 . S
C929 C925 1.429 1_556 S
C929 C930 1.523 . S
C930 C914 1.368 . S
C930 C926 1.368 . S
C930 C929 1.523 . S
H931 C906 0.950 . S
H932 C908 0.950 . S
H933 C909 0.949 . S
H934 C911 0.950 . S
H935 C913 0.950 . S
C936 C937 1.349 . S
C936 C938 1.327 . S
C936 H961 0.950 . S
C937 C936 1.349 . S
C937 C953 1.349 . S
C938 C936 1.327 . S
C938 C957 1.429 . S
C938 H962 0.950 . S
C939 C956 1.574 . S
C939 C958 1.368 . S
C939 H963 0.949 . S
H940 C944 0.949 . S
C941 C942 1.349 . S
C941 C943 1.327 . S
C941 H964 0.950 . S
C942 C941 1.349 . S
C942 C954 1.349 . S
C943 C941 1.327 . S
C943 C959 1.429 . S
C943 H965 0.950 . S
C944 H940 0.949 . S
C944 C952 1.574 . S
C944 C960 1.368 . S
H945 C953 0.950 . S
H946 C951 0.950 . S
H947 C952 0.949 . S
H948 C954 0.950 . S
H949 C955 0.950 . S
H950 C956 0.949 . S
C951 H946 0.950 . S
C951 C953 1.327 . S
C951 C957 1.429 . S
C952 C944 1.574 . S
C952 H947 0.949 . S
C952 C958 1.368 . S
C953 C937 1.349 . S
C953 H945 0.950 . S
C953 C951 1.327 . S
C954 C942 1.349 . S
C954 H948 0.950 . S
C954 C955 1.327 . S
C955 H949 0.950 . S
C955 C954 1.327 . S
C955 C959 1.429 . S
C956 C939 1.574 . S
C956 H950 0.949 . S
C956 C960 1.368 . S
C957 C938 1.429 . S
C957 C951 1.429 . S
C957 C958 1.523 . S
C958 C939 1.368 . S
C958 C952 1.368 . S
C958 C957 1.523 . S
C959 C943 1.429 . S
C959 C955 1.429 . S
C959 C960 1.523 . S
C960 C944 1.368 . S
C960 C956 1.368 . S
C960 C959 1.523 . S
H961 C936 0.950 . S
H962 C938 0.950 . S
H963 C939 0.949 . S
H964 C941 0.950 . S
H965 C943 0.950 . S
C966 C967 1.349 . S
C966 C968 1.327 . S
C966 H991 0.950 . S
C967 C966 1.349 . S
C967 C983 1.349 . S
C968 C966 1.327 . S
C968 C987 1.429 . S
C968 H992 0.950 . S
C969 C986 1.574 . S
C969 C988 1.368 . S
C969 H993 0.949 . S
H970 C974 0.949 . S
C971 C972 1.349 . S
C971 C973 1.327 . S
C971 H994 0.950 . S
C972 C971 1.349 . S
C972 C984 1.349 . S
C973 C971 1.327 . S
C973 C989 1.429 . S
C973 H995 0.950 . S
C974 H970 0.949 . S
C974 C982 1.574 . S
C974 C990 1.368 . S
H975 C983 0.950 . S
H976 C981 0.950 . S
H977 C982 0.949 . S
H978 C984 0.950 . S
H979 C985 0.950 . S
H980 C986 0.949 . S
C981 H976 0.950 . S
C981 C983 1.327 . S
C981 C987 1.429 . S
C982 C974 1.574 . S
C982 H977 0.949 . S
C982 C988 1.368 . S
C983 C967 1.349 . S
C983 H975 0.950 . S
C983 C981 1.327 . S
C984 C972 1.349 . S
C984 H978 0.950 . S
C984 C985 1.327 . S
C985 H979 0.950 . S
C985 C984 1.327 . S
C985 C989 1.429 . S
C986 C969 1.574 . S
C986 H980 0.949 . S
C986 C990 1.368 . S
C987 C968 1.429 . S
C987 C981 1.429 . S
C987 C988 1.523 . S
C988 C969 1.368 . S
C988 C982 1.368 . S
C988 C987 1.523 . S
C989 C973 1.429 . S
C989 C985 1.429 . S
C989 C990 1.523 . S
C990 C974 1.368 . S
C990 C986 1.368 . S
C990 C989 1.523 . S
H991 C966 0.950 . S
H992 C968 0.950 . S
H993 C969 0.949 . S
H994 C971 0.950 . S
H995 C973 0.950 . S
C996 C997 1.349 . S
C996 C998 1.327 . S
C996 H1021 0.950 . S
C997 C996 1.349 . S
C997 C1013 1.349 . S
C998 C996 1.327 . S
C998 C1017 1.429 . S
C998 H1022 0.950 . S
C999 C1016 1.574 . S
C999 C1018 1.368 . S
C999 H1023 0.949 . S
H1000 C1004 0.949 . S
C1001 C1002 1.349 . S
C1001 C1003 1.327 . S
C1001 H1024 0.950 . S
C1002 C1001 1.349 . S
C1002 C1014 1.349 . S
C1003 C1001 1.327 . S
C1003 C1019 1.429 . S
C1003 H1025 0.950 . S
C1004 H1000 0.949 . S
C1004 C1012 1.574 . S
C1004 C1020 1.368 . S
H1005 C1013 0.950 . S
H1006 C1011 0.950 . S
H1007 C1012 0.949 . S
H1008 C1014 0.950 . S
H1009 C1015 0.950 . S
H1010 C1016 0.949 . S
C1011 H1006 0.950 . S
C1011 C1013 1.327 . S
C1011 C1017 1.429 . S
C1012 C1004 1.574 . S
C1012 H1007 0.949 . S
C1012 C1018 1.368 . S
C1013 C997 1.349 . S
C1013 H1005 0.950 . S
C1013 C1011 1.327 . S
C1014 C1002 1.349 . S
C1014 H1008 0.950 . S
C1014 C1015 1.327 . S
C1015 H1009 0.950 . S
C1015 C1014 1.327 . S
C1015 C1019 1.429 . S
C1016 C999 1.574 . S
C1016 H1010 0.949 . S
C1016 C1020 1.368 . S
C1017 C998 1.429 . S
C1017 C1011 1.429 . S
C1017 C1018 1.523 . S
C1018 C999 1.368 . S
C1018 C1012 1.368 . S
C1018 C1017 1.523 . S
C1019 C1003 1.429 . S
C1019 C1015 1.429 . S
C1019 C1020 1.523 . S
C1020 C1004 1.368 . S
C1020 C1016 1.368 . S
C1020 C1019 1.523 . S
H1021 C996 0.950 . S
H1022 C998 0.950 . S
H1023 C999 0.949 . S
H1024 C1001 0.950 . S
H1025 C1003 0.950 . S
C1026 C1027 1.349 . S
C1026 C1028 1.327 . S
C1026 H1051 0.950 . S
C1027 C1026 1.349 . S
C1027 C1043 1.349 . S
C1028 C1026 1.327 . S
C1028 C1047 1.429 . S
C1028 H1052 0.950 . S
C1029 C1046 1.574 . S
C1029 C1048 1.368 . S
C1029 H1053 0.949 . S
H1030 C1034 0.949 . S
C1031 C1032 1.349 . S
C1031 C1033 1.327 . S
C1031 H1054 0.950 . S
C1032 C1031 1.349 . S
C1032 C1044 1.349 . S
C1033 C1031 1.327 . S
C1033 C1049 1.429 . S
C1033 H1055 0.950 . S
C1034 H1030 0.949 . S
C1034 C1042 1.574 . S
C1034 C1050 1.368 . S
H1035 C1043 0.950 . S
H1036 C1041 0.950 . S
H1037 C1042 0.949 . S
H1038 C1044 0.950 . S
H1039 C1045 0.950 . S
H1040 C1046 0.949 . S
C1041 H1036 0.950 . S
C1041 C1043 1.327 . S
C1041 C1047 1.429 . S
C1042 C1034 1.574 . S
C1042 H1037 0.949 . S
C1042 C1048 1.368 . S
C1043 C1027 1.349 . S
C1043 H1035 0.950 . S
C1043 C1041 1.327 . S
C1044 C1032 1.349 . S
C1044 H1038 0.950 . S
C1044 C1045 1.327 . S
C1045 H1039 0.950 . S
C1045 C1044 1.327 . S
C1045 C1049 1.429 . S
C1046 C1029 1.574 . S
C1046 H1040 0.949 . S
C1046 C1050 1.368 . S
C1047 C1028 1.429 . S
C1047 C1041 1.429 . S
C1047 C1048 1.523 . S
C1048 C1029 1.368 . S
C1048 C1042 1.368 . S
C1048 C1047 1.523 . S
C1049 C1033 1.429 . S
C1049 C1045 1.429 . S
C1049 C1050 1.523 . S
C1050 C1034 1.368 . S
C1050 C1046 1.368 . S
C1050 C1049 1.523 . S
H1051 C1026 0.950 . S
H1052 C1028 0.950 . S
H1053 C1029 0.949 . S
H1054 C1031 0.950 . S
H1055 C1033 0.950 . S
C1056 C1057 1.349 . S
C1056 C1058 1.327 . S
C1056 H1081 0.950 . S
C1057 C1056 1.349 . S
C1057 C1073 1.349 . S
C1058 C1056 1.327 . S
C1058 C1077 1.429 . S
C1058 H1082 0.950 . S
C1059 C1076 1.574 . S
C1059 C1078 1.368 . S
C1059 H1083 0.949 . S
H1060 C1064 0.949 . S
C1061 C1062 1.349 . S
C1061 C1063 1.327 . S
C1061 H1084 0.950 . S
C1062 C1061 1.349 . S
C1062 C1074 1.349 . S
C1063 C1061 1.327 . S
C1063 C1079 1.429 . S
C1063 H1085 0.950 . S
C1064 H1060 0.949 . S
C1064 C1072 1.574 . S
C1064 C1080 1.368 . S
H1065 C1073 0.950 . S
H1066 C1071 0.950 . S
H1067 C1072 0.949 . S
H1068 C1074 0.950 . S
H1069 C1075 0.950 . S
H1070 C1076 0.949 . S
C1071 H1066 0.950 . S
C1071 C1073 1.327 . S
C1071 C1077 1.429 . S
C1072 C1064 1.574 . S
C1072 H1067 0.949 . S
C1072 C1078 1.368 . S
C1073 C1057 1.349 . S
C1073 H1065 0.950 . S
C1073 C1071 1.327 . S
C1074 C1062 1.349 . S
C1074 H1068 0.950 . S
C1074 C1075 1.327 . S
C1075 H1069 0.950 . S
C1075 C1074 1.327 . S
C1075 C1079 1.429 . S
C1076 C1059 1.574 . S
C1076 H1070 0.949 . S
C1076 C1080 1.368 . S
C1077 C1058 1.429 . S
C1077 C1071 1.429 . S
C1077 C1078 1.523 . S
C1078 C1059 1.368 . S
C1078 C1072 1.368 . S
C1078 C1077 1.523 . S
C1079 C1063 1.429 . S
C1079 C1075 1.429 . S
C1079 C1080 1.523 . S
C1080 C1064 1.368 . S
C1080 C1076 1.368 . S
C1080 C1079 1.523 . S
H1081 C1056 0.950 . S
H1082 C1058 0.950 . S
H1083 C1059 0.949 . S
H1084 C1061 0.950 . S
H1085 C1063 0.950 . S
C1086 C1087 1.349 . S
C1086 C1088 1.327 . S
C1086 H1111 0.950 . S
C1087 C1086 1.349 . S
C1087 C1103 1.349 . S
C1088 C1086 1.327 . S
C1088 C1107 1.429 . S
C1088 H1112 0.950 . S
C1089 C1106 1.574 . S
C1089 C1108 1.368 . S
C1089 H1113 0.949 . S
H1090 C1094 0.949 . S
C1091 C1092 1.349 . S
C1091 C1093 1.327 . S
C1091 H1114 0.950 . S
C1092 C1091 1.349 . S
C1092 C1104 1.349 . S
C1093 C1091 1.327 . S
C1093 C1109 1.429 . S
C1093 H1115 0.950 . S
C1094 H1090 0.949 . S
C1094 C1102 1.574 . S
C1094 C1110 1.368 . S
H1095 C1103 0.950 . S
H1096 C1101 0.950 . S
H1097 C1102 0.949 . S
H1098 C1104 0.950 . S
H1099 C1105 0.950 . S
H1100 C1106 0.949 . S
C1101 H1096 0.950 . S
C1101 C1103 1.327 . S
C1101 C1107 1.429 . S
C1102 C1094 1.574 . S
C1102 H1097 0.949 . S
C1102 C1108 1.368 . S
C1103 C1087 1.349 . S
C1103 H1095 0.950 . S
C1103 C1101 1.327 . S
C1104 C1092 1.349 . S
C1104 H1098 0.950 . S
C1104 C1105 1.327 . S
C1105 H1099 0.950 . S
C1105 C1104 1.327 . S
C1105 C1109 1.429 . S
C1106 C1089 1.574 . S
C1106 H1100 0.949 . S
C1106 C1110 1.368 . S
C1107 C1088 1.429 . S
C1107 C1101 1.429 . S
C1107 C1108 1.523 . S
C1108 C1089 1.368 . S
C1108 C1102 1.368 . S
C1108 C1107 1.523 . S
C1109 C1093 1.429 . S
C1109 C1105 1.429 . S
C1109 C1110 1.523 . S
C1110 C1094 1.368 . S
C1110 C1106 1.368 . S
C1110 C1109 1.523 . S
H1111 C1086 0.950 . S
H1112 C1088 0.950 . S
H1113 C1089 0.949 . S
H1114 C1091 0.950 . S
H1115 C1093 0.950 . S
C1116 C1117 1.349 . S
C1116 C1118 1.327 . S
C1116 H1141 0.950 . S
C1117 C1116 1.349 . S
C1117 C1133 1.349 . S
C1118 C1116 1.327 . S
C1118 C1137 1.429 . S
C1118 H1142 0.950 . S
C1119 C1136 1.574 . S
C1119 C1138 1.368 . S
C1119 H1143 0.949 . S
H1120 C1124 0.928 1_556 S
C1121 C1122 1.349 . S
C1121 C1123 1.327 . S
C1121 H1144 0.950 . S
C1122 C1121 1.349 . S
C1122 C1134 1.349 . S
C1123 C1121 1.327 . S
C1123 C1139 1.429 . S
C1123 H1145 0.950 . S
C1124 H1120 0.928 1_554 S
C1124 C1132 1.611 . S
C1124 C1140 1.357 1_554 S
H1125 C1133 0.950 . S
H1126 C1131 0.950 . S
H1127 C1132 0.949 . S
H1128 C1134 0.950 . S
H1129 C1135 0.950 . S
H1130 C1136 0.949 1_556 S
C1131 H1126 0.950 . S
C1131 C1133 1.327 . S
C1131 C1137 1.429 . S
C1132 C1124 1.611 . S
C1132 H1127 0.949 . S
C1132 C1138 1.368 . S
C1133 C1117 1.349 . S
C1133 H1125 0.950 . S
C1133 C1131 1.327 . S
C1134 C1122 1.349 . S
C1134 H1128 0.950 . S
C1134 C1135 1.327 . S
C1135 H1129 0.950 . S
C1135 C1134 1.327 . S
C1135 C1139 1.429 . S
C1136 C1119 1.574 . S
C1136 H1130 0.949 1_554 S
C1136 C1140 1.368 1_554 S
C1137 C1118 1.429 . S
C1137 C1131 1.429 . S
C1137 C1138 1.523 . S
C1138 C1119 1.368 . S
C1138 C1132 1.368 . S
C1138 C1137 1.523 . S
C1139 C1123 1.429 . S
C1139 C1135 1.429 . S
C1139 C1140 1.523 . S
C1140 C1124 1.357 1_556 S
C1140 C1136 1.368 1_556 S
C1140 C1139 1.523 . S
H1141 C1116 0.950 . S
H1142 C1118 0.950 . S
H1143 C1119 0.949 . S
H1144 C1121 0.950 . S
H1145 C1123 0.950 . S
C1146 C1147 1.349 . S
C1146 C1148 1.327 . S
C1146 H1171 0.950 . S
C1147 C1146 1.349 . S
C1147 C1163 1.349 . S
C1148 C1146 1.327 . S
C1148 C1167 1.429 . S
C1148 H1172 0.950 . S
C1149 C1166 1.574 . S
C1149 C1168 1.368 . S
C1149 H1173 0.949 . S
H1150 C1154 0.949 . S
C1151 C1152 1.349 . S
C1151 C1153 1.327 . S
C1151 H1174 0.950 . S
C1152 C1151 1.349 . S
C1152 C1164 1.349 . S
C1153 C1151 1.327 . S
C1153 C1169 1.429 . S
C1153 H1175 0.950 . S
C1154 H1150 0.949 . S
C1154 C1162 1.574 . S
C1154 C1170 1.368 . S
H1155 C1163 0.950 . S
H1156 C1161 0.950 . S
H1157 C1162 0.949 . S
H1158 C1164 0.950 . S
H1159 C1165 0.950 . S
H1160 C1166 0.949 . S
C1161 H1156 0.950 . S
C1161 C1163 1.327 . S
C1161 C1167 1.429 . S
C1162 C1154 1.574 . S
C1162 H1157 0.949 . S
C1162 C1168 1.368 . S
C1163 C1147 1.349 . S
C1163 H1155 0.950 . S
C1163 C1161 1.327 . S
C1164 C1152 1.349 . S
C1164 H1158 0.950 . S
C1164 C1165 1.327 . S
C1165 H1159 0.950 . S
C1165 C1164 1.327 . S
C1165 C1169 1.429 . S
C1166 C1149 1.574 . S
C1166 H1160 0.949 . S
C1166 C1170 1.368 . S
C1167 C1148 1.429 . S
C1167 C1161 1.429 . S
C1167 C1168 1.523 . S
C1168 C1149 1.368 . S
C1168 C1162 1.368 . S
C1168 C1167 1.523 . S
C1169 C1153 1.429 . S
C1169 C1165 1.429 . S
C1169 C1170 1.523 . S
C1170 C1154 1.368 . S
C1170 C1166 1.368 . S
C1170 C1169 1.523 . S
H1171 C1146 0.950 . S
H1172 C1148 0.950 . S
H1173 C1149 0.949 . S
H1174 C1151 0.950 . S
H1175 C1153 0.950 . S
C462 C449 1.623 . S
C457 C29 1.533 . S
C487 C115 1.362 . S
C492 C383 1.366 . S
C517 C153 1.341 . S
C522 C397 1.410 . S
C547 C239 1.365 . S
C552 C411 1.367 . S
C582 C425 1.479 . S
C577 C301 1.473 . S
C607 C339 1.741 . S
C612 C435 1.842 . S
C637 C91 1.543 . S
C642 C393 1.630 . S
C667 C177 1.580 . S
C672 C407 1.607 . S
C697 C215 1.532 . S
C702 C421 1.624 . S
C732 C439 1.795 . S
C727 C277 1.713 . S
C762 C453 1.480 . S
C757 C363 1.467 . S
C792 C379 1.493 . S
C787 C53 1.474 . S
C817 C35 1.566 . S
C822 C394 1.533 . S
C847 C109 1.491 . S
C852 C408 1.544 . S
C882 C422 1.503 . S
C877 C159 1.529 . S
C907 C233 1.595 . S
C912 C441 1.637 . S
C942 C455 1.407 . S
C937 C295 1.362 . S
C972 C380 1.315 . S
C967 C345 1.340 . S
C1002 C450 1.370 . S
C997 C97 1.393 . S
C1027 C171 1.244 . S
C1032 C385 1.281 . S
C1062 C399 1.375 . S
C1057 C221 1.404 . S
C1087 C283 1.296 . S
C1092 C413 1.261 . S
C1117 C357 1.385 . S
C1122 C427 1.442 . S
C1147 C47 1.631 . S
C1152 C436 1.680 . S
