# Generated by pormake.
# Topology zzz, (3,6)-cn, num edge types: 1
# Building blocks:
#     Node 0, Type 0, BuildingBlock: KAKCAD_clean_linker_0, # of connection points: 3
#     Node 1, Type 0, BuildingBlock: KAKCAD_clean_linker_0, # of connection points: 3
#     Node 2, Type 0, BuildingBlock: KAKCAD_clean_linker_0, # of connection points: 3
#     Node 3, Type 0, BuildingBlock: KAKCAD_clean_linker_0, # of connection points: 3
#     Node 4, Type 0, BuildingBlock: KAKCAD_clean_linker_0, # of connection points: 3
#     Node 5, Type 0, BuildingBlock: KAKCAD_clean_linker_0, # of connection points: 3
#     Node 6, Type 0, BuildingBlock: KAKCAD_clean_linker_0, # of connection points: 3
#     Node 7, Type 0, BuildingBlock: KAKCAD_clean_linker_0, # of connection points: 3
#     Node 8, Type 1, BuildingBlock: BETFEN_clean_sbu_0, # of connection points: 6
#     Node 9, Type 1, BuildingBlock: BETFEN_clean_sbu_0, # of connection points: 6
#     Node 10, Type 1, BuildingBlock: BETFEN_clean_sbu_0, # of connection points: 6
#     Node 11, Type 1, BuildingBlock: BETFEN_clean_sbu_0, # of connection points: 6
#     Edge 12, Type (0, 1), BuildingBlock: XIVTED_clean_linker_0, # of connection points: 2
#     Edge 13, Type (0, 1), BuildingBlock: XIVTED_clean_linker_0, # of connection points: 2
#     Edge 14, Type (0, 1), BuildingBlock: XIVTED_clean_linker_0, # of connection points: 2
#     Edge 15, Type (0, 1), BuildingBlock: XIVTED_clean_linker_0, # of connection points: 2
#     Edge 16, Type (0, 1), BuildingBlock: XIVTED_clean_linker_0, # of connection points: 2
#     Edge 17, Type (0, 1), BuildingBlock: XIVTED_clean_linker_0, # of connection points: 2
#     Edge 18, Type (0, 1), BuildingBlock: XIVTED_clean_linker_0, # of connection points: 2
#     Edge 19, Type (0, 1), BuildingBlock: XIVTED_clean_linker_0, # of connection points: 2
#     Edge 20, Type (0, 1), BuildingBlock: XIVTED_clean_linker_0, # of connection points: 2
#     Edge 21, Type (0, 1), BuildingBlock: XIVTED_clean_linker_0, # of connection points: 2
#     Edge 22, Type (0, 1), BuildingBlock: XIVTED_clean_linker_0, # of connection points: 2
#     Edge 23, Type (0, 1), BuildingBlock: XIVTED_clean_linker_0, # of connection points: 2
#     Edge 24, Type (0, 1), BuildingBlock: XIVTED_clean_linker_0, # of connection points: 2
#     Edge 25, Type (0, 1), BuildingBlock: XIVTED_clean_linker_0, # of connection points: 2
#     Edge 26, Type (0, 1), BuildingBlock: XIVTED_clean_linker_0, # of connection points: 2
#     Edge 27, Type (0, 1), BuildingBlock: XIVTED_clean_linker_0, # of connection points: 2
#     Edge 28, Type (0, 1), BuildingBlock: XIVTED_clean_linker_0, # of connection points: 2
#     Edge 29, Type (0, 1), BuildingBlock: XIVTED_clean_linker_0, # of connection points: 2
#     Edge 30, Type (0, 1), BuildingBlock: XIVTED_clean_linker_0, # of connection points: 2
#     Edge 31, Type (0, 1), BuildingBlock: XIVTED_clean_linker_0, # of connection points: 2
#     Edge 32, Type (0, 1), BuildingBlock: XIVTED_clean_linker_0, # of connection points: 2
#     Edge 33, Type (0, 1), BuildingBlock: XIVTED_clean_linker_0, # of connection points: 2
#     Edge 34, Type (0, 1), BuildingBlock: XIVTED_clean_linker_0, # of connection points: 2
#     Edge 35, Type (0, 1), BuildingBlock: XIVTED_clean_linker_0, # of connection points: 2
# Relax obj value: 0.448
# Max RMSD: 0.270
# Mean RMSD: 0.253
data_MOF--net-zzz--node1-BETFEN_clean_sbu_0--node2-KAKCAD_clean_linker_0--edge1-XIVTED_clean_linker_0
_symmetry_space_group_name_H-M    P1
_symmetry_Int_Tables_number       1
_symmetry_cell_setting            triclinic
loop_
_symmetry_equiv_pos_as_xyz
'x, y, z'
_cell_length_a     60.3171
_cell_length_b     60.334472
_cell_length_c     18.477482
_cell_angle_alpha  89.685207
_cell_angle_beta   90.02713
_cell_angle_gamma 89.972725
loop_
_atom_site_label
_atom_site_type_symbol
_atom_site_fract_x
_atom_site_fract_y
_atom_site_fract_z
_atom_type_partial_charge
C0 C 0.75706 0.42749 0.08997 0.0
C1 C 0.77552 0.41532 0.11469 0.0
C2 C 0.74456 0.44022 0.13791 0.0
C3 C 0.7496 0.44034 0.21231 0.0
C4 C 0.76558 0.42525 0.23814 0.0
C5 C 0.77864 0.4132 0.18998 0.0
C6 C 0.74101 0.45835 0.25993 0.0
C7 C 0.72048 0.46849 0.24634 0.0
C8 C 0.71452 0.48826 0.28099 0.0
C9 C 0.72886 0.49762 0.3328 0.0
C10 C 0.74888 0.48683 0.35056 0.0
C11 C 0.75482 0.46752 0.3132 0.0
C12 C 0.76498 0.49572 0.40403 0.0
C13 C 0.77478 0.51662 0.39404 0.0
C14 C 0.77361 0.48149 0.45753 0.0
C15 C 0.79253 0.48731 0.49672 0.0
C16 C 0.80341 0.50755 0.48342 0.0
C17 C 0.69419 0.49959 0.25565 0.0
C18 C 0.69564 0.51484 0.19834 0.0
C19 C 0.6733 0.49148 0.276 0.0
C20 C 0.65428 0.49769 0.2373 0.0
C21 C 0.65582 0.51176 0.17631 0.0
C22 C 0.67671 0.52085 0.15902 0.0
C23 C 0.79384 0.52247 0.43328 0.0
H24 H 0.75325 0.42867 0.03284 0.0
H25 H 0.73221 0.45126 0.11523 0.0
H26 H 0.76922 0.42395 0.29539 0.0
H27 H 0.79234 0.40382 0.21225 0.0
H28 H 0.70937 0.46162 0.20619 0.0
H29 H 0.77107 0.46048 0.32309 0.0
H30 H 0.72448 0.51306 0.35887 0.0
H31 H 0.7686 0.52782 0.35268 0.0
H32 H 0.76643 0.46523 0.46605 0.0
H33 H 0.79939 0.47525 0.53413 0.0
H34 H 0.71168 0.52085 0.18059 0.0
H35 H 0.67187 0.47939 0.31933 0.0
H36 H 0.80154 0.53835 0.42241 0.0
H37 H 0.67879 0.53146 0.1121 0.0
H38 H 0.6385 0.4907 0.25348 0.0
C39 C 0.89658 0.79731 0.22827 0.0
C40 C 0.90166 0.80495 0.15813 0.0
C41 C 0.90792 0.77919 0.25774 0.0
C42 C 0.92424 0.76824 0.21711 0.0
C43 C 0.92671 0.77364 0.14364 0.0
C44 C 0.91557 0.7919 0.11438 0.0
C45 C 0.94235 0.75617 0.25431 0.0
C46 C 0.95061 0.73611 0.22782 0.0
C47 C 0.97075 0.72727 0.25398 0.0
C48 C 0.98301 0.73937 0.30586 0.0
C49 C 0.97445 0.75934 0.33379 0.0
C50 C 0.95402 0.76722 0.30864 0.0
C51 C 0.98703 0.77409 0.38292 0.0
C52 C 0.97734 0.78048 0.44873 0.0
C53 C 1.0049 0.78647 0.35571 0.0
C54 C 0.01164 0.80599 0.39036 0.0
C55 C 1.00066 0.81346 0.45299 0.0
C56 C 0.97905 0.7061 0.22268 0.0
C57 C 0.96436 0.68831 0.21209 0.0
C58 C 1.00084 0.70421 0.19652 0.0
C59 C 1.00735 0.68549 0.15707 0.0
C60 C 0.99227 0.66816 0.14338 0.0
C61 C 0.97087 0.6696 0.1731 0.0
C62 C 0.98413 0.79987 0.48354 0.0
H63 H 0.88544 0.80656 0.26272 0.0
H64 H 0.90554 0.77511 0.31439 0.0
H65 H 0.93921 0.7655 0.11113 0.0
H66 H 0.91994 0.79714 0.0601 0.0
H67 H 0.94178 0.72786 0.18452 0.0
H68 H 0.9481 0.7832 0.32725 0.0
H69 H 0.99895 0.73333 0.32448 0.0
H70 H 0.96324 0.77145 0.47005 0.0
H71 H 0.01237 0.78214 0.30438 0.0
H72 H 0.02469 0.81582 0.36596 0.0
H73 H 0.9475 0.68916 0.23211 0.0
H74 H 0.01253 0.71766 0.2035 0.0
H75 H 0.97515 0.80507 0.53127 0.0
H76 H 0.95872 0.65675 0.16337 0.0
H77 H 0.02408 0.68481 0.13589 0.0
C78 C 0.74523 0.1039 0.07271 0.0
C79 C 0.7267 0.11392 0.10545 0.0
C80 C 0.75851 0.08907 0.11165 0.0
C81 C 0.75414 0.08462 0.18512 0.0
C82 C 0.73811 0.09758 0.22043 0.0
C83 C 0.72431 0.11175 0.181 0.0
C84 C 0.76354 0.06449 0.22113 0.0
C85 C 0.78444 0.05615 0.20213 0.0
C86 C 0.79157 0.03518 0.22645 0.0
C87 C 0.77776 0.02258 0.27265 0.0
C88 C 0.75728 0.03139 0.29547 0.0
C89 C 0.75032 0.05202 0.26872 0.0
C90 C 0.74194 0.01962 0.3452 0.0
C91 C 0.72879 1.00211 0.31989 0.0
C92 C 0.73639 0.02964 0.41118 0.0
C93 C 0.71721 0.02341 0.44859 0.0
C94 C 0.70299 1.00705 0.42076 0.0
C95 C 0.81302 0.02674 0.19841 0.0
C96 C 0.81363 0.00834 0.15212 0.0
C97 C 0.83211 0.03986 0.20548 0.0
C98 C 0.85076 0.03587 0.16268 0.0
C99 C 0.85073 0.01874 0.11138 0.0
C100 C 0.83237 1.00435 0.10894 0.0
C101 C 0.70951 0.99585 0.35738 0.0
H102 H 0.7485 0.10604 0.01552 0.0
H103 H 0.77092 0.07982 0.08223 0.0
H104 H 0.73499 0.09551 0.27778 0.0
H105 H 0.71061 0.1193 0.20945 0.0
H106 H 0.79499 0.06563 0.166 0.0
H107 H 0.73387 0.05777 0.28287 0.0
H108 H 0.783 1.00635 0.29134 0.0
H109 H 0.7325 0.99442 0.26847 0.0
H110 H 0.74603 0.04348 0.43102 0.0
H111 H 0.71277 0.03263 0.49655 0.0
H112 H 0.79902 0.99814 0.14507 0.0
H113 H 0.83206 0.05413 0.24082 0.0
H114 H 0.69921 0.98291 0.3349 0.0
H115 H 0.8318 0.99104 0.06991 0.0
H116 H 0.86479 0.04699 0.16697 0.0
C117 C 0.48812 0.72649 0.48077 0.0
C118 C 0.50831 0.71569 0.4663 0.0
C119 C 0.48199 0.74549 0.44199 0.0
C120 C 0.49586 0.75426 0.3879 0.0
C121 C 0.51681 0.74467 0.37736 0.0
C122 C 0.52298 0.72555 0.41615 0.0
C123 C 0.48629 0.76941 0.33249 0.0
C124 C 0.49561 0.79019 0.3145 0.0
C125 C 0.48595 0.80323 0.25911 0.0
C126 C 0.46781 0.79492 0.21999 0.0
C127 C 0.45884 0.77416 0.23662 0.0
C128 C 0.46784 0.76178 0.29364 0.0
C129 C 0.44191 0.76391 0.1897 0.0
C130 C 0.42313 0.75381 0.22011 0.0
C131 C 0.44637 0.76101 0.1159 0.0
C132 C 0.43365 0.74636 0.075 0.0
C133 C 0.41606 0.73451 0.10707 0.0
C134 C 0.49418 0.82553 0.23907 0.0
C135 C 0.48043 0.84392 0.25095 0.0
C136 C 0.51261 0.82787 0.19325 0.0
C137 C 0.51616 0.8478 0.15537 0.0
C138 C 0.50119 0.86558 0.1624 0.0
C139 C 0.48394 0.86376 0.21328 0.0
C140 C 0.41015 0.73944 0.17891 0.0
H141 H 0.47627 0.71942 0.51832 0.0
H142 H 0.46564 0.75244 0.45063 0.0
H143 H 0.52771 0.75092 0.33537 0.0
H144 H 0.53883 0.71793 0.40446 0.0
H145 H 0.50994 0.79625 0.34374 0.0
H146 H 0.46124 0.7454 0.30519 0.0
H147 H 0.46086 0.80453 0.17567 0.0
H148 H 0.41925 0.75604 0.27686 0.0
H149 H 0.46086 0.76855 0.09138 0.0
H150 H 0.4389 0.74296 0.02017 0.0
H151 H 0.46597 0.8424 0.28541 0.0
H152 H 0.52317 0.81376 0.18223 0.0
H153 H 0.39634 0.73112 0.20482 0.0
H154 H 0.47229 0.87723 0.22061 0.0
H155 H 0.52951 0.84862 0.11627 0.0
C156 C 0.26663 0.50483 0.41486 0.0
C157 C 0.24716 0.49293 0.43011 0.0
C158 C 0.27653 0.50335 0.34675 0.0
C159 C 0.26709 0.48998 0.29278 0.0
C160 C 0.24875 0.47671 0.30998 0.0
C161 C 0.2389 0.47812 0.378 0.0
C162 C 0.27501 0.49157 0.2172 0.0
C163 C 0.29766 0.49187 0.2023 0.0
C164 C 0.30547 0.49573 0.13196 0.0
C165 C 0.29024 0.49906 0.07477 0.0
C166 C 0.26723 0.49858 0.08935 0.0
C167 C 0.25991 0.49471 0.16046 0.0
C168 C 0.25001 0.50328 0.03383 0.0
C169 C 0.23637 0.52194 0.0425 0.0
C170 C 0.2438 0.48705 0.98351 0.0
C171 C 0.22353 0.4888 0.94615 0.0
C172 C 0.20908 0.5067 0.95913 0.0
C173 C 0.32979 0.49753 0.12418 0.0
C174 C 0.33991 0.51754 0.14415 0.0
C175 C 0.34242 0.47799 0.12588 0.0
C176 C 0.36382 0.47803 0.15527 0.0
C177 C 0.37289 0.49758 0.18427 0.0
C178 C 0.36127 0.51759 0.17393 0.0
C179 C 0.2162 0.52366 0.00558 0.0
H180 H 0.27343 0.51625 0.45405 0.0
H181 H 0.2907 0.51378 0.3349 0.0
H182 H 0.24137 0.46603 0.26965 0.0
H183 H 0.22379 0.46888 0.38746 0.0
H184 H 0.30941 0.48957 0.24623 0.0
H185 H 0.24228 0.49496 0.172 0.0
H186 H 0.29616 0.50251 0.02053 0.0
H187 H 0.24068 0.53457 0.08157 0.0
H188 H 0.25381 0.47228 0.97697 0.0
H189 H 0.21853 0.47541 0.91092 0.0
H190 H 0.33032 0.53274 0.14499 0.0
H191 H 0.33485 0.46229 0.11208 0.0
H192 H 0.2057 0.53786 0.01591 0.0
H193 H 0.36762 0.53297 0.19561 0.0
H194 H 0.3725 0.46239 0.16073 0.0
C195 C 0.10199 0.233 0.26608 0.0
C196 C 0.11393 0.21858 0.2208 0.0
C197 C 0.09158 0.25175 0.23746 0.0
C198 C 0.09286 0.25637 0.16309 0.0
C199 C 0.10742 0.24388 0.12013 0.0
C200 C 0.11795 0.22516 0.14885 0.0
C201 C 0.07517 0.26989 0.12888 0.0
C202 C 0.06815 0.28993 0.15909 0.0
C203 C 0.04826 0.30015 0.13651 0.0
C204 C 0.03501 0.28953 0.0837 0.0
C205 C 0.04239 0.26968 0.05154 0.0
C206 C 0.06254 0.26036 0.07379 0.0
C207 C 0.02887 0.25635 1.00073 0.0
C208 C 0.01079 0.24414 0.02728 0.0
C209 C 0.03805 0.25047 0.93362 0.0
C210 C 0.03079 0.23151 0.8973 0.0
C211 C 0.01419 0.21791 0.92739 0.0
C212 C 0.04138 0.3211 0.17276 0.0
C213 C 0.02002 0.32366 0.20216 0.0
C214 C 0.05727 0.33765 0.18603 0.0
C215 C 0.05253 0.3554 0.23169 0.0
C216 C 0.0317 0.35723 0.26512 0.0
C217 C 0.01521 0.3416 0.24786 0.0
C218 C 1.0035 0.22512 0.99094 0.0
H219 H 0.09847 0.22859 0.32177 0.0
H220 H 0.08047 0.26104 0.27197 0.0
H221 H 0.109 0.24737 0.06278 0.0
H222 H 0.12758 0.21477 0.11303 0.0
H223 H 0.07775 0.29706 0.20279 0.0
H224 H 0.06743 0.2444 0.05214 0.0
H225 H 0.01925 0.29664 0.06763 0.0
H226 H 1.00367 0.24808 0.07947 0.0
H227 H 0.05229 0.25937 0.91267 0.0
H228 H 0.03955 0.22657 0.84888 0.0
H229 H 1.00745 0.31115 0.19332 0.0
H230 H 0.07376 0.33639 0.16319 0.0
H231 H 0.99034 0.21535 0.01496 0.0
H232 H 0.999 0.34254 0.2728 0.0
H233 H 0.06545 0.36741 0.24253 0.0
C234 C 0.27815 0.91046 0.20714 0.0
C235 C 0.28553 0.91181 0.27929 0.0
C236 C 0.26386 0.92656 0.1788 0.0
C237 C 0.25635 0.94399 0.22251 0.0
C238 C 0.26119 0.94354 0.29675 0.0
C239 C 0.27569 0.92767 0.32487 0.0
C240 C 0.24771 0.96468 0.18952 0.0
C241 C 0.22991 0.97605 0.22056 0.0
C242 C 0.22462 0.9977 0.19832 0.0
C243 C 0.23757 0.00823 0.14455 0.0
C244 C 0.25509 0.99658 0.11119 0.0
C245 C 0.25978 0.97484 0.13381 0.0
C246 C 0.27024 1.00683 0.05704 0.0
C247 C 0.27517 0.99531 0.99311 0.0
C248 C 0.2832 0.02532 0.07521 0.0
C249 C 0.30178 0.03103 0.0333 0.0
C250 C 0.30774 0.01839 0.97228 0.0
C251 C 0.20591 0.00884 0.23499 0.0
C252 C 0.18428 1.00105 0.22367 0.0
C253 C 0.20988 0.02368 0.29176 0.0
C254 C 0.19267 0.02971 0.33883 0.0
C255 C 0.17116 0.02104 0.32976 0.0
C256 C 0.16708 1.00719 0.27015 0.0
C257 C 0.29363 1.00101 0.95125 0.0
H258 H 0.28482 0.89807 0.17099 0.0
H259 H 0.26002 0.92634 0.12152 0.0
H260 H 0.25567 0.9568 0.33173 0.0
H261 H 0.28088 0.92944 0.38061 0.0
H262 H 0.22057 0.96829 0.264 0.0
H263 H 0.27406 0.96635 0.1114 0.0
H264 H 0.23397 0.02516 0.12856 0.0
H265 H 0.26553 0.9809 0.97807 0.0
H266 H 0.27992 0.03436 0.12456 0.0
H267 H 0.312 0.04478 0.05046 0.0
H268 H 0.18096 0.98922 0.18113 0.0
H269 H 0.22654 0.02954 0.30231 0.0
H270 H 0.29764 0.99075 0.90517 0.0
H271 H 0.15086 0.99994 0.26186 0.0
H272 H 0.19636 0.04058 0.38369 0.0
C273 C 0.49442 0.29603 0.95999 0.0
C274 C 0.50954 0.30574 0.91098 0.0
C275 C 0.49975 0.27633 0.997 0.0
C276 C 0.52031 0.266 0.98577 0.0
C277 C 0.53467 0.27476 0.93308 0.0
C278 C 0.52936 0.29433 0.89604 0.0
C279 C 0.52913 0.2498 0.03931 0.0
C280 C 0.51932 0.22894 0.05265 0.0
C281 C 0.52864 0.21454 0.105 0.0
C282 C 0.54717 0.22152 0.14507 0.0
C283 C 0.55603 0.24282 0.13594 0.0
C284 C 0.54722 0.25652 0.08153 0.0
C285 C 0.57192 0.25217 0.18956 0.0
C286 C 0.56957 0.24721 0.26368 0.0
C287 C 0.58711 0.26873 0.16897 0.0
C288 C 0.5972 0.28203 0.22109 0.0
C289 C 0.59275 0.27871 0.29513 0.0
C290 C 0.51827 0.19313 0.1259 0.0
C291 C 0.49711 0.19288 0.15743 0.0
C292 C 0.53141 0.17391 0.13019 0.0
C293 C 0.52441 0.15556 0.17072 0.0
C294 C 0.50417 0.15609 0.20843 0.0
C295 C 0.49014 0.17455 0.19849 0.0
C296 C 0.58011 0.26014 0.31577 0.0
H297 H 0.47884 0.30413 0.97205 0.0
H298 H 0.48853 0.27009 0.03807 0.0
H299 H 0.55076 0.26726 0.92414 0.0
H300 H 0.54156 0.30126 0.85941 0.0
H301 H 0.50475 0.22396 0.02256 0.0
H302 H 0.55343 0.27326 0.07467 0.0
H303 H 0.5539 0.21068 0.18656 0.0
H304 H 0.55817 0.23455 0.28221 0.0
H305 H 0.58999 0.2725 0.11239 0.0
H306 H 0.60695 0.296 0.2026 0.0
H307 H 0.48675 0.20754 0.15555 0.0
H308 H 0.54787 0.17375 0.10671 0.0
H309 H 0.57698 0.25654 0.37231 0.0
H310 H 0.47429 0.17536 0.2259 0.0
H311 H 0.53571 0.14174 0.17728 0.0
Pr312 Pr 0.01101 1.00608 0.77944 0.0
Pr313 Pr 0.99896 0.02467 0.61585 0.0
C314 C 1.00352 0.99137 0.91396 0.0
C315 C 0.98751 0.9751 0.94234 0.0
C316 C 0.98321 0.95551 0.90417 0.0
C317 C 0.96677 0.94094 0.92772 0.0
C318 C 0.95412 0.94568 0.98966 0.0
C319 C 0.95842 0.96536 0.02774 0.0
C320 C 0.97497 0.97996 1.00412 0.0
C321 C 0.04931 0.01767 0.69987 0.0
C322 C 1.00468 0.96968 0.6446 0.0
C323 C 1.00236 0.03885 0.47857 0.0
C324 C 0.01973 0.05327 0.44882 0.0
C325 C 0.02034 0.05905 0.3754 0.0
C326 C 0.03709 0.07309 0.34935 0.0
C327 C 0.05361 0.08126 0.39632 0.0
C328 C 0.05311 0.07475 0.46947 0.0
C329 C 0.03613 0.0613 0.49553 0.0
C330 C 0.96332 0.01772 0.70966 0.0
C331 C 0.0082 0.06038 0.74732 0.0
O332 O 0.99473 0.00975 0.8888 0.0
O333 O 0.01959 0.98357 0.87335 0.0
O334 O 0.02927 0.01987 0.68413 0.0
O335 O 0.05061 0.00954 0.76532 0.0
O336 O 1.00278 0.98619 0.59711 0.0
O337 O 1.00614 0.97293 0.71541 0.0
O338 O 0.00918 0.01924 0.49944 0.0
O339 O 0.98924 0.04829 0.52574 0.0
O340 O 0.98047 1.00591 0.70523 0.0
O341 O 0.96293 0.03253 0.65815 0.0
O342 O 1.00475 0.04421 0.79476 0.0
O343 O 0.01104 0.05644 0.67747 0.0
H344 H 0.99236 0.95154 0.85552 0.0
H345 H 0.96423 0.92576 0.89782 0.0
H346 H 0.94884 0.96961 0.07521 0.0
H347 H 0.97775 0.99521 0.03346 0.0
H348 H 0.00774 0.05303 0.33865 0.0
H349 H 0.03667 0.078 0.29294 0.0
H350 H 0.06571 0.0802 0.50713 0.0
H351 H 0.0358 0.05716 0.5526 0.0
Pr352 Pr 0.51444 0.02787 0.76102 0.0
Pr353 Pr 0.49475 0.99873 0.62082 0.0
C354 C 0.53192 0.04259 0.88517 0.0
C355 C 0.54785 0.06025 0.90091 0.0
C356 C 0.55491 0.07451 0.84529 0.0
C357 C 0.57159 0.09002 0.858 0.0
C358 C 0.58161 0.09146 0.92652 0.0
C359 C 0.57379 0.07773 0.98293 0.0
C360 C 0.55704 0.06222 0.97011 0.0
C361 C 0.50677 0.0547 0.63763 0.0
C362 C 0.54939 0.00891 0.63556 0.0
C363 C 0.47826 0.98467 0.49439 0.0
C364 C 0.46286 0.96705 0.47345 0.0
C365 C 0.45597 0.95117 0.52443 0.0
C366 C 0.44034 0.93512 0.50558 0.0
C367 C 0.43126 0.93477 0.43548 0.0
C368 C 0.43874 0.95041 0.38409 0.0
C369 C 0.45442 0.96641 0.403 0.0
C370 C 0.50081 0.97196 0.74494 0.0
C371 C 0.46009 0.01722 0.74802 0.0
O372 O 0.54002 0.02556 0.85005 0.0
O373 O 0.51259 0.04922 0.86072 0.0
O374 O 0.50406 0.03421 0.64468 0.0
O375 O 0.51385 0.06255 0.69871 0.0
O376 O 0.53241 1.00418 0.59259 0.0
O377 O 0.54685 0.01569 0.70322 0.0
O378 O 0.46953 1.00117 0.53065 0.0
O379 O 0.4974 0.97797 0.52016 0.0
O380 O 0.50512 0.99219 0.73728 0.0
O381 O 0.49289 0.96448 0.68441 0.0
O382 O 0.47722 0.0213 0.79099 0.0
O383 O 0.46239 0.01124 0.67931 0.0
H384 H 0.54796 0.07318 0.79143 0.0
H385 H 0.57709 0.10046 0.81365 0.0
H386 H 0.58138 0.07816 0.03603 0.0
H387 H 0.5518 0.05128 0.01353 0.0
H388 H 0.46238 0.95144 0.57918 0.0
H389 H 0.4351 0.92324 0.54622 0.0
H390 H 0.43181 0.95091 0.33003 0.0
H391 H 0.45955 0.9786 0.36312 0.0
Pr392 Pr 0.49299 0.5158 0.74307 0.0
Pr393 Pr 0.52753 0.5064 0.63969 0.0
C394 C 0.46532 0.53147 0.84538 0.0
C395 C 0.452 0.55146 0.8582 0.0
C396 C 0.432 0.5498 0.89639 0.0
C397 C 0.41973 0.56884 0.91217 0.0
C398 C 0.42734 0.58988 0.89019 0.0
C399 C 0.44704 0.5913 0.84961 0.0
C400 C 0.4592 0.57226 0.83359 0.0
C401 C 0.4761 0.50353 0.60791 0.0
C402 C 0.51328 0.55774 0.64445 0.0
C403 C 0.55459 0.48927 0.53838 0.0
C404 C 0.56607 0.468 0.53097 0.0
C405 C 0.57433 0.46155 0.46357 0.0
C406 C 0.58321 0.44034 0.45458 0.0
C407 C 0.58388 0.42525 0.51297 0.0
C408 C 0.57626 0.43216 0.58117 0.0
C409 C 0.56738 0.45335 0.59003 0.0
C410 C 0.54452 0.51829 0.77502 0.0
C411 C 0.50742 0.46453 0.73849 0.0
O412 O 0.48686 0.53381 0.84798 0.0
O413 O 0.45876 0.51868 0.79286 0.0
O414 O 0.49164 0.51722 0.61731 0.0
O415 O 0.46922 0.49534 0.66889 0.0
O416 O 0.52123 0.54254 0.60078 0.0
O417 O 0.50409 0.55189 0.70662 0.0
O418 O 0.53299 0.48829 0.53435 0.0
O419 O 0.56157 0.5021 0.59031 0.0
O420 O 0.52884 0.50476 0.76519 0.0
O421 O 0.55147 0.52657 0.7142 0.0
O422 O 0.49983 0.47977 0.78263 0.0
O423 O 0.51619 0.47038 0.67578 0.0
H424 H 0.42608 0.53382 0.91511 0.0
H425 H 0.40449 0.5671 0.94263 0.0
H426 H 0.45362 0.6072 0.8327 0.0
H427 H 0.47452 0.57386 0.80355 0.0
H428 H 0.57328 0.47264 0.41738 0.0
H429 H 0.58859 0.43545 0.40108 0.0
H430 H 0.57672 0.42104 0.62736 0.0
H431 H 0.561 0.45809 0.64253 0.0
Pr432 Pr 0.99921 0.49203 0.78956 0.0
Pr433 Pr 0.013 0.51884 0.65502 0.0
C434 C 0.98022 0.47288 0.90582 0.0
C435 C 0.96125 0.45793 0.91398 0.0
C436 C 0.95029 0.44996 0.85243 0.0
C437 C 0.93124 0.43702 0.85974 0.0
C438 C 0.92281 0.4319 0.92877 0.0
C439 C 0.93437 0.4393 0.99032 0.0
C440 C 0.95346 0.45225 0.9829 0.0
C441 C 0.01075 0.46664 0.66943 0.0
C442 C 0.9596 0.5112 0.6749 0.0
C443 C 0.03377 0.52748 0.5308 0.0
C444 C 0.05733 0.53314 0.52392 0.0
C445 C 0.06751 0.54622 0.57738 0.0
C446 C 0.09041 0.54519 0.588 0.0
C447 C 0.10327 0.53084 0.54606 0.0
C448 C 0.09338 0.51925 0.48877 0.0
C449 C 0.07056 0.5205 0.47747 0.0
C450 C 0.01125 0.54897 0.77016 0.0
C451 C 0.05107 0.50501 0.7772 0.0
O452 O 0.97543 0.49299 0.8841 0.0
O453 O 0.99744 0.46453 0.87287 0.0
O454 O 0.99871 0.48374 0.66806 0.0
O455 O 0.01742 0.46218 0.73461 0.0
O456 O 0.97509 0.51937 0.63194 0.0
O457 O 0.96453 0.50081 0.7363 0.0
O458 O 0.03056 0.50726 0.55464 0.0
O459 O 0.02088 0.54215 0.56179 0.0
O460 O 1.00707 0.52851 0.77485 0.0
O461 O 0.01588 0.55452 0.704 0.0
O462 O 0.03484 0.50284 0.82458 0.0
O463 O 0.04671 0.50709 0.70748 0.0
H464 H 0.9562 0.45419 0.79871 0.0
H465 H 0.92283 0.43143 0.81136 0.0
H466 H 0.92813 0.43596 0.04423 0.0
H467 H 0.96176 0.45832 0.03088 0.0
H468 H 0.05765 0.55577 0.61499 0.0
H469 H 0.09778 0.55424 0.63243 0.0
H470 H 0.10317 0.50828 0.45526 0.0
H471 H 0.06303 0.51004 0.43681 0.0
H472 H 0.12669 0.02869 0.30785 0.0
H473 H 0.0938 0.02263 0.72891 0.0
H474 H 0.17517 0.02131 0.47814 0.0
H475 H 0.04726 0.01739 0.55346 0.0
H476 H 0.12402 0.02643 0.64 0.0
H477 H 0.09743 0.02986 0.39912 0.0
C478 C 0.13122 0.0274 0.36445 0.0
C479 C 0.15348 0.02468 0.38506 0.0
C480 C 0.10713 0.02468 0.621 0.0
C481 C 0.11991 0.02593 0.49035 0.0
C482 C 0.08993 0.02248 0.67167 0.0
C483 C 0.06793 0.02022 0.64823 0.0
C484 C 0.10222 0.02452 0.5465 0.0
C485 C 0.06384 0.01985 0.57364 0.0
C486 C 0.11448 0.02808 0.41664 0.0
C487 C 0.1583 0.02356 0.45954 0.0
N488 N 0.08073 0.02203 0.52553 0.0
N489 N 0.14167 0.02401 0.50938 0.0
H490 H 0.5107 0.11069 0.20481 0.0
H491 H 0.50158 0.09914 0.63179 0.0
H492 H 0.48772 0.16305 0.34417 0.0
H493 H 0.50262 0.04142 0.49535 0.0
H494 H 0.49713 0.12255 0.52493 0.0
H495 H 0.50819 0.08466 0.30729 0.0
C496 C 0.50485 0.11666 0.25655 0.0
C497 C 0.49945 0.13917 0.26569 0.0
C498 C 0.49812 0.10477 0.51802 0.0
C499 C 0.4968 0.10952 0.38321 0.0
C500 C 0.50073 0.09138 0.57911 0.0
C501 C 0.50249 0.06833 0.57233 0.0
C502 C 0.49769 0.09515 0.44899 0.0
C503 C 0.50125 0.05916 0.50276 0.0
C504 C 0.50337 0.10178 0.31492 0.0
C505 C 0.49183 0.14588 0.33398 0.0
N506 N 0.4992 0.07263 0.44349 0.0
N507 N 0.49102 0.13124 0.39004 0.0
H508 H 0.40736 0.52744 0.20224 0.0
H509 H 0.44469 0.47267 0.57761 0.0
H510 H 0.38161 0.46573 0.28633 0.0
H511 H 0.47947 0.52796 0.48203 0.0
H512 H 0.42237 0.46951 0.46801 0.0
H513 H 0.43488 0.52764 0.30019 0.0
C514 C 0.40763 0.5138 0.24056 0.0
C515 C 0.39205 0.49654 0.23561 0.0
C516 C 0.43498 0.48226 0.47049 0.0
C517 C 0.42342 0.49677 0.34827 0.0
C518 C 0.44771 0.48408 0.53323 0.0
C519 C 0.46386 0.50067 0.53908 0.0
C520 C 0.43816 0.49731 0.41307 0.0
C521 C 0.46714 0.51495 0.47971 0.0
C522 C 0.42339 0.51391 0.29641 0.0
C523 C 0.39339 0.47925 0.28679 0.0
N524 N 0.45424 0.51309 0.4194 0.0
N525 N 0.40857 0.47994 0.34107 0.0
H526 H 0.99567 0.38491 0.2848 0.0
H527 H 0.04048 0.43291 0.65987 0.0
H528 H 0.05941 0.36824 0.37596 0.0
H529 H 0.98912 0.46602 0.5381 0.0
H530 H 0.04548 0.40697 0.56009 0.0
H531 H 0.9906 0.41257 0.38098 0.0
C532 C 0.00857 0.38706 0.32495 0.0
C533 C 0.02806 0.37433 0.32197 0.0
C534 C 0.03316 0.41995 0.55488 0.0
C535 C 0.02231 0.40573 0.43222 0.0
C536 C 0.03028 0.43474 0.61194 0.0
C537 C 0.01437 0.45163 0.60728 0.0
C538 C 0.01981 0.42176 0.49277 0.0
C539 C 1.00163 0.45325 0.54376 0.0
C540 C 1.00572 0.40291 0.37951 0.0
C541 C 0.04426 0.37786 0.37537 0.0
N542 N 1.00449 0.43839 0.48914 0.0
N543 N 0.04096 0.39307 0.42827 0.0
H544 H 0.86819 0.05336 0.03559 0.0
H545 H 0.95623 0.98376 0.80668 0.0
H546 H 0.87314 0.98229 0.05712 0.0
H547 H 0.93321 0.04906 0.74785 0.0
H548 H 0.92918 0.98303 0.90663 0.0
H549 H 0.89582 0.05243 0.93981 0.0
C550 C 0.87531 0.03753 0.0208 0.0
C551 C 0.86841 0.01788 0.05505 0.0
C552 C 0.93011 0.99748 0.8718 0.0
C553 C 0.90007 0.01668 0.94383 0.0
C554 C 0.94553 0.99793 0.815 0.0
C555 C 0.94695 0.01652 0.76916 0.0
C556 C 0.91635 0.01594 0.88335 0.0
C557 C 0.93263 0.03438 0.78175 0.0
C558 C 0.89097 0.037 0.96546 0.0
C559 C 0.87793 0.99782 0.03211 0.0
N560 N 0.91808 0.0337 0.83781 0.0
N561 N 0.89337 0.99773 0.97807 0.0
H562 H 0.466 0.88245 0.08852 0.0
H563 H 0.5275 0.97738 0.86554 0.0
H564 H 0.5366 0.8909 0.1138 0.0
H565 H 0.47541 0.93662 0.77784 0.0
H566 H 0.52834 0.95318 0.97429 0.0
H567 H 0.46615 0.91054 0.99319 0.0
C568 C 0.4815 0.89052 0.07502 0.0
C569 C 0.50132 0.88432 0.10949 0.0
C570 C 0.51673 0.94971 0.93108 0.0
C571 C 0.50156 0.91653 0.99958 0.0
C572 C 0.51617 0.96351 0.86951 0.0
C573 C 0.5014 0.95888 0.81278 0.0
C574 C 0.50197 0.93174 0.93624 0.0
C575 C 0.48712 0.94069 0.82016 0.0
C576 C 0.48158 0.90643 0.02014 0.0
C577 C 0.52098 0.89513 0.0884 0.0
N578 N 0.48764 0.92793 0.8808 0.0
N579 N 0.52063 0.91077 0.0347 0.0
H580 H 0.64465 0.54897 0.09597 0.0
H581 H 0.54173 0.49169 0.89563 0.0
H582 H 0.62259 0.48225 0.14201 0.0
H583 H 0.57746 0.54756 0.80767 0.0
H584 H 0.56654 0.4918 1.00099 0.0
H585 H 0.61554 0.55225 1.00443 0.0
C586 C 0.6337 0.53502 0.08734 0.0
C587 C 0.63641 0.5152 0.12687 0.0
C588 C 0.56882 0.50414 0.95888 0.0
C589 C 0.60265 0.51909 0.02248 0.0
C590 C 0.55462 0.50415 0.89893 0.0
C591 C 0.55768 0.51954 0.84258 0.0
C592 C 0.58603 0.5198 0.9629 0.0
C593 C 0.57464 0.5353 0.84966 0.0
C594 C 0.617 0.53698 0.03514 0.0
C595 C 0.62118 0.49798 0.11398 0.0
N596 N 0.58821 0.535 0.90852 0.0
N597 N 0.60509 0.50029 0.06283 0.0
H598 H 0.01612 0.67 0.01709 0.0
H599 H 0.99673 0.54254 0.91039 0.0
H600 H 0.98132 0.62381 0.1553 0.0
H601 H 0.02342 0.59226 0.76637 0.0
H602 H 0.99407 0.5707 0.006 0.0
H603 H 0.0226 0.64027 0.93081 0.0
C604 C 0.01011 0.65354 0.02998 0.0
C605 C 0.99809 0.64953 0.0938 0.0
C606 C 1.00058 0.57539 0.9535 0.0
C607 C 1.00513 0.61525 0.99384 0.0
C608 C 1.00211 0.55932 0.89905 0.0
C609 C 0.01018 0.56511 0.83026 0.0
C610 C 1.00731 0.59731 0.93904 0.0
C611 C 0.01697 0.58708 0.81845 0.0
C612 C 0.01364 0.63656 0.98017 0.0
C613 C 0.9904 0.62781 0.10646 0.0
N614 N 0.01536 0.60232 0.87207 0.0
N615 N 0.99398 0.61154 0.05691 0.0
H616 H 0.12589 0.20231 0.3552 0.0
H617 H 0.07419 0.0842 0.26297 0.0
H618 H 0.10866 0.18112 0.13947 0.0
H619 H 0.07125 0.11619 0.4715 0.0
H620 H 0.09801 0.11429 0.21928 0.0
H621 H 0.11841 0.16479 0.39942 0.0
C622 C 0.12111 0.18969 0.31678 0.0
C623 C 0.11726 0.19515 0.24386 0.0
C624 C 0.09243 0.11439 0.27498 0.0
C625 C 0.10873 0.15224 0.29408 0.0
C626 C 0.07865 0.09736 0.29981 0.0
C627 C 0.07032 0.09772 0.37084 0.0
C628 C 0.09806 0.13181 0.32161 0.0
C629 C 0.07728 0.11494 0.41656 0.0
C630 C 0.11682 0.16829 0.34209 0.0
C631 C 0.1117 0.17789 0.19626 0.0
N632 N 0.09053 0.13135 0.39095 0.0
N633 N 0.10713 0.15733 0.22247 0.0
H634 H 0.29725 0.8959 0.41485 0.0
H635 H 0.42349 0.91236 0.30877 0.0
H636 H 0.32228 0.903 0.19689 0.0
H637 H 0.3961 0.92312 0.52156 0.0
H638 H 0.38871 0.89479 0.27262 0.0
H639 H 0.33531 0.89113 0.45782 0.0
C640 C 0.31061 0.8959 0.37571 0.0
C641 C 0.30649 0.90077 0.30242 0.0
C642 C 0.39053 0.90056 0.32771 0.0
C643 C 0.34999 0.89508 0.35124 0.0
C644 C 0.41031 0.91072 0.34824 0.0
C645 C 0.41251 0.9198 0.41768 0.0
C646 C 0.37279 0.89956 0.37685 0.0
C647 C 0.39515 0.91654 0.46728 0.0
C648 C 0.33233 0.89312 0.40034 0.0
C649 C 0.32445 0.89964 0.25401 0.0
N650 N 0.37586 0.90708 0.44546 0.0
N651 N 0.34543 0.89745 0.27951 0.0
H652 H 0.6287 0.30727 0.29989 0.0
H653 H 0.56462 0.38783 0.56861 0.0
H654 H 0.56759 0.29157 0.41099 0.0
H655 H 0.61794 0.40925 0.42897 0.0
H656 H 0.57208 0.34961 0.53499 0.0
H657 H 0.63107 0.34159 0.36944 0.0
C658 C 0.61598 0.31076 0.33954 0.0
C659 C 0.59769 0.29655 0.34821 0.0
C660 C 0.58237 0.36263 0.51241 0.0
C661 C 0.60049 0.33567 0.42848 0.0
C662 C 0.57823 0.3845 0.53202 0.0
C663 C 0.5905 0.40185 0.50086 0.0
C664 C 0.5988 0.35801 0.46083 0.0
C665 C 0.60775 0.39642 0.45306 0.0
C666 C 0.61741 0.33034 0.37938 0.0
C667 C 0.58209 0.30176 0.40208 0.0
N668 N 0.61122 0.37499 0.43376 0.0
N669 N 0.58371 0.32099 0.43928 0.0
H670 H 0.23844 0.5344 0.4817 0.0
H671 H 0.12117 0.49093 0.57922 0.0
H672 H 0.2229 0.46547 0.51913 0.0
H673 H 0.13763 0.56017 0.55924 0.0
H674 H 0.16041 0.48219 0.59415 0.0
H675 H 0.20558 0.54484 0.54935 0.0
C676 C 0.22861 0.52141 0.5065 0.0
C677 C 0.23295 0.49897 0.49237 0.0
C678 C 0.15553 0.49936 0.58769 0.0
C679 C 0.19482 0.51088 0.56762 0.0
C680 C 0.13317 0.50429 0.57855 0.0
C681 C 0.12646 0.52617 0.56561 0.0
C682 C 0.1713 0.51639 0.58168 0.0
C683 C 0.14236 0.54303 0.5676 0.0
C684 C 0.20964 0.52742 0.54469 0.0
C685 C 0.21965 0.48297 0.52639 0.0
N686 N 0.16419 0.53773 0.57357 0.0
N687 N 0.20079 0.48922 0.56067 0.0
H688 H 0.90226 0.84152 0.24515 0.0
H689 H 0.92503 0.92064 0.90978 0.0
H690 H 0.89184 0.82228 0.02286 0.0
H691 H 0.94514 0.93352 0.12983 0.0
H692 H 0.90291 0.88929 0.95292 0.0
H693 H 0.90645 0.8797 0.20609 0.0
C694 C 0.90008 0.84531 0.18826 0.0
C695 C 0.89719 0.82839 0.13704 0.0
C696 C 0.91186 0.89923 0.99183 0.0
C697 C 0.90286 0.87232 0.09178 0.0
C698 C 0.92462 0.91704 0.96726 0.0
C699 C 0.93745 0.9294 0.01605 0.0
C700 C 0.9119 0.89376 0.06573 0.0
C701 C 0.93566 0.92444 0.0901 0.0
C702 C 0.90279 0.86722 0.16591 0.0
C703 C 0.89472 0.83463 0.06408 0.0
N704 N 0.92343 0.9068 0.1125 0.0
N705 N 0.89812 0.85602 0.04339 0.0
H706 H 0.6946 0.14542 0.13957 0.0
H707 H 0.61646 0.0965 0.83354 0.0
H708 H 0.71484 0.10148 0.96739 0.0
H709 H 0.59314 0.11709 0.04357 0.0
H710 H 0.65259 0.11242 0.86071 0.0
H711 H 0.65815 0.1485 0.08251 0.0
C712 C 0.69171 0.13672 0.08939 0.0
C713 C 0.70781 0.12233 0.06054 0.0
C714 C 0.63941 0.1139 0.90021 0.0
C715 C 0.66634 0.1266 0.99379 0.0
C716 C 0.6187 0.10491 0.88464 0.0
C717 C 0.60184 0.10506 0.93699 0.0
C718 C 0.64337 0.123 0.96869 0.0
C719 C 0.60586 0.1161 1.00243 0.0
C720 C 0.6709 0.13868 0.05666 0.0
C721 C 0.70323 0.11258 0.99309 0.0
N722 N 0.62637 0.12432 0.01699 0.0
N723 N 0.68285 0.11458 0.9629 0.0
H724 H 0.40783 0.72799 0.96134 0.0
H725 H 0.40842 0.59766 0.0224 0.0
H726 H 0.40399 0.69497 0.16907 0.0
H727 H 0.42091 0.62909 0.81587 0.0
H728 H 0.39619 0.63309 0.07007 0.0
H729 H 0.40249 0.6922 0.90225 0.0
C730 C 0.40546 0.71336 0.99464 0.0
C731 C 0.40692 0.71456 0.07047 0.0
C732 C 0.40128 0.63221 0.01396 0.0
C733 C 0.40063 0.67361 1.0031 0.0
C734 C 0.40813 0.61188 0.98641 0.0
C735 C 0.41615 0.61041 0.91527 0.0
C736 C 0.40266 0.65132 0.97047 0.0
C737 C 0.41549 0.62956 0.87167 0.0
C738 C 0.40234 0.69294 0.96079 0.0
C739 C 0.40305 0.69508 0.11061 0.0
N740 N 0.40925 0.64931 0.90031 0.0
N741 N 0.40047 0.67542 0.07644 0.0
H742 H 0.78675 0.43492 0.98471 0.0
H743 H 0.91002 0.4 0.02729 0.0
H744 H 0.8064 0.38117 0.12691 0.0
H745 H 0.88538 0.43951 0.84916 0.0
H746 H 0.87204 0.38815 0.05344 0.0
H747 H 0.82121 0.43121 0.92054 0.0
C748 C 0.79787 0.42184 1.00176 0.0
C749 C 0.79359 0.40881 0.06362 0.0
C750 C 0.87502 0.39899 0.00757 0.0
C751 C 0.83415 0.4053 0.991 0.0
C752 C 0.89668 0.40589 0.99297 0.0
C753 C 0.90084 0.4211 0.93682 0.0
C754 C 0.85742 0.40763 0.96635 0.0
C755 C 0.883 0.42781 0.8931 0.0
C756 C 0.81789 0.41991 0.96499 0.0
C757 C 0.80922 0.39236 0.08194 0.0
N758 N 0.86206 0.42137 0.90964 0.0
N759 N 0.82908 0.3915 0.04717 0.0
H760 H 0.01361 0.2043 0.78456 0.0
H761 H 1.00288 0.07523 0.88635 0.0
H762 H 1.00638 0.1793 1.00263 0.0
H763 H 0.0137 0.09893 0.66832 0.0
H764 H 1.00239 0.11346 0.92843 0.0
H765 H 0.01159 0.16623 0.73968 0.0
C766 C 0.01145 0.19088 0.82308 0.0
C767 C 0.01018 0.1952 0.89773 0.0
C768 C 1.00488 0.11035 0.87135 0.0
C769 C 0.00786 0.15139 0.84639 0.0
C770 C 1.00521 0.08844 0.84717 0.0
C771 C 0.00841 0.0837 0.77353 0.0
C772 C 0.00774 0.12785 0.82175 0.0
C773 C 0.01125 0.10168 0.7256 0.0
C774 C 0.01028 0.16911 0.79731 0.0
C775 C 1.00711 0.17701 0.94465 0.0
N776 N 0.01085 0.12291 0.75051 0.0
N777 N 1.00618 0.15601 0.91829 0.0
H778 H 0.31761 0.01491 0.82664 0.0
H779 H 0.44858 0.02877 0.88638 0.0
H780 H 0.34801 0.02875 0.03303 0.0
H781 H 0.41963 0.01027 0.68164 0.0
H782 H 0.41155 0.03136 0.93815 0.0
H783 H 0.35431 0.01586 0.77019 0.0
C784 C 0.33193 0.01827 0.86016 0.0
C785 C 0.32955 0.02166 0.93506 0.0
C786 C 0.41324 0.02678 0.88184 0.0
C787 C 0.37179 0.02284 0.87031 0.0
C788 C 0.43447 0.02527 0.85204 0.0
C789 C 0.43739 0.0192 0.77931 0.0
C790 C 0.39459 0.02221 0.83892 0.0
C791 C 0.41829 0.01496 0.73793 0.0
C792 C 0.35291 0.01885 0.82773 0.0
C793 C 0.34882 0.0263 0.97513 0.0
N794 N 0.39775 0.01649 0.76832 0.0
N795 N 0.36903 0.02662 0.94242 0.0
H796 H 0.4914 0.34183 0.97927 0.0
H797 H 0.52235 0.42815 0.66346 0.0
H798 H 0.52006 0.32222 0.77539 0.0
H799 H 0.49026 0.44655 0.86309 0.0
H800 H 0.52088 0.38924 0.70162 0.0
H801 H 0.48937 0.37994 0.93501 0.0
C802 C 0.49693 0.3454 0.9247 0.0
C803 C 0.50596 0.3286 0.88122 0.0
C804 C 0.51408 0.40178 0.73694 0.0
C805 C 0.50416 0.37265 0.83055 0.0
C806 C 0.51493 0.42405 0.7152 0.0
C807 C 0.50643 0.44075 0.76009 0.0
C808 C 0.5047 0.39609 0.8042 0.0
C809 C 0.49706 0.43433 0.82661 0.0
C810 C 0.49597 0.3673 0.89967 0.0
C811 C 0.51327 0.33456 0.81143 0.0
N812 N 0.4965 0.41259 0.84661 0.0
N813 N 0.51233 0.35604 0.78852 0.0
H814 H 0.17106 0.51663 0.03243 0.0
H815 H 0.08902 0.50375 0.69456 0.0
H816 H 0.19399 0.4966 0.82158 0.0
H817 H 0.06692 0.5066 0.91649 0.0
H818 H 0.12754 0.5042 0.73702 0.0
H819 H 0.13302 0.51632 0.98762 0.0
C820 C 0.16813 0.51236 0.97637 0.0
C821 C 0.18587 0.5068 0.93061 0.0
C822 C 0.11424 0.50465 0.77629 0.0
C823 C 0.142 0.50623 0.87884 0.0
C824 C 0.09221 0.50446 0.7522 0.0
C825 C 0.07458 0.50509 0.80204 0.0
C826 C 0.11878 0.50571 0.85076 0.0
C827 C 0.07987 0.506 0.876 0.0
C828 C 0.14633 0.51202 0.95096 0.0
C829 C 0.18087 0.50095 0.85885 0.0
N830 N 0.10142 0.50637 0.89798 0.0
N831 N 0.15944 0.50093 0.83507 0.0
H832 H 1.00732 0.85194 0.37599 0.0
H833 H 1.00489 0.93093 0.72377 0.0
H834 H 1.00192 0.82741 0.59511 0.0
H835 H 1.00556 0.95522 0.50354 0.0
H836 H 1.0059 0.89299 0.67826 0.0
H837 H 0.00954 0.88967 0.4224 0.0
C838 C 1.00698 0.85439 0.43399 0.0
C839 C 1.00445 0.8363 0.48159 0.0
C840 C 1.00585 0.90661 0.63987 0.0
C841 C 1.00652 0.87982 0.53525 0.0
C842 C 1.00526 0.92835 0.66582 0.0
C843 C 1.00508 0.94645 0.61752 0.0
C844 C 1.00634 0.90279 0.56494 0.0
C845 C 1.00558 0.9419 0.54299 0.0
C846 C 0.00801 0.87605 0.46044 0.0
C847 C 1.00363 0.84076 0.55619 0.0
N848 N 1.00619 0.92058 0.51911 0.0
N849 N 1.00459 0.86201 0.58061 0.0
H850 H 0.66342 0.99908 0.35135 0.0
H851 H 0.58911 0.01449 0.70667 0.0
H852 H 0.69095 0.00762 0.5651 0.0
H853 H 0.56213 0.99848 0.49688 0.0
H854 H 0.62646 0.01159 0.65632 0.0
H855 H 0.6264 0.99761 0.40427 0.0
C856 C 0.6618 1.00026 0.40955 0.0
C857 C 0.68054 1.00354 0.45357 0.0
C858 C 0.61238 0.00862 0.62135 0.0
C859 C 0.6378 1.00243 0.51464 0.0
C860 C 0.59097 0.01033 0.65006 0.0
C861 C 0.57229 1.00679 0.60607 0.0
C862 C 0.61526 1.00345 0.54787 0.0
C863 C 0.57593 1.00138 0.53308 0.0
C864 C 0.64054 0.99964 0.43973 0.0
C865 C 0.67709 1.00543 0.52863 0.0
N866 N 0.59691 0.99998 0.50633 0.0
N867 N 0.65621 1.005 0.5566 0.0
H868 H 0.52747 0.67983 0.39981 0.0
H869 H 0.49935 0.59433 0.72056 0.0
H870 H 0.49862 0.69969 0.60317 0.0
H871 H 0.52963 0.57551 0.51842 0.0
H872 H 0.50041 0.63315 0.6814 0.0
H873 H 0.53056 0.64202 0.44596 0.0
C874 C 0.52213 0.6764 0.45467 0.0
C875 C 0.51271 0.69315 0.49742 0.0
C876 C 0.50689 0.62053 0.64573 0.0
C877 C 0.51573 0.64942 0.55026 0.0
C878 C 0.50624 0.59831 0.66802 0.0
C879 C 0.51429 0.58151 0.62266 0.0
C880 C 0.51564 0.62607 0.57746 0.0
C881 C 0.52316 0.58781 0.55528 0.0
C882 C 0.5237 0.65466 0.48078 0.0
C883 C 0.50569 0.68736 0.56767 0.0
N884 N 0.52352 0.6095 0.53474 0.0
N885 N 0.50722 0.66601 0.59164 0.0
H886 H 0.83982 0.52737 0.4211 0.0
H887 H 0.92242 0.4957 0.74536 0.0
H888 H 0.81811 0.49714 0.62114 0.0
H889 H 0.94274 0.53041 0.55149 0.0
H890 H 0.88397 0.49729 0.70327 0.0
H891 H 0.87714 0.53043 0.47099 0.0
C892 C 0.84273 0.5217 0.47599 0.0
C893 C 0.82562 0.51188 0.51665 0.0
C894 C 0.89683 0.50467 0.67014 0.0
C895 C 0.86877 0.51488 0.57379 0.0
C896 C 0.91884 0.50377 0.69415 0.0
C897 C 0.93598 0.51288 0.65191 0.0
C898 C 0.89183 0.51469 0.60319 0.0
C899 C 0.93019 0.5231 0.58597 0.0
C900 C 0.86419 0.52327 0.50426 0.0
C901 C 0.83075 0.50449 0.58711 0.0
N902 N 0.90869 0.52363 0.56362 0.0
N903 N 0.85182 0.50599 0.61313 0.0
loop_
_geom_bond_atom_site_label_1
_geom_bond_atom_site_label_2
_geom_bond_distance
_geom_bond_site_symmetry_2
_ccdc_geom_bond_type
C0 C1 1.386 . S
C0 C2 1.397 . S
C0 H24 0.931 . S
C1 C0 1.386 . S
C1 C5 1.397 . S
C2 C0 1.397 . S
C2 C3 1.384 . S
C2 H25 0.930 . S
C3 C2 1.384 . S
C3 C4 1.377 . S
C3 C6 1.481 . S
C4 C3 1.377 . S
C4 C5 1.389 . S
C4 H26 0.929 . S
C5 C1 1.397 . S
C5 C4 1.389 . S
C5 H27 0.931 . S
C6 C3 1.481 . S
C6 C7 1.387 . S
C6 C11 1.390 . S
C7 C6 1.387 . S
C7 C8 1.401 . S
C7 H28 0.930 . S
C8 C7 1.401 . S
C8 C9 1.376 . S
C8 C17 1.511 . S
C9 C8 1.376 . S
C9 C10 1.392 . S
C9 H30 0.931 . S
C10 C9 1.392 . S
C10 C11 1.361 . S
C10 C12 1.500 . S
C11 C6 1.390 . S
C11 C10 1.361 . S
C11 H29 0.931 . S
C12 C10 1.500 . S
C12 C13 1.371 . S
C12 C14 1.365 . S
C13 C12 1.371 . S
C13 C23 1.386 . S
C13 H31 0.931 . S
C14 C12 1.365 . S
C14 C15 1.409 . S
C14 H32 0.929 . S
C15 C14 1.409 . S
C15 C16 1.380 . S
C15 H33 0.930 . S
C16 C15 1.380 . S
C16 C23 1.357 . S
C17 C8 1.511 . S
C17 C18 1.341 . S
C17 C19 1.371 . S
C18 C17 1.341 . S
C18 C22 1.394 . S
C18 H34 0.930 . S
C19 C17 1.371 . S
C19 C20 1.392 . S
C19 H35 0.931 . S
C20 C19 1.392 . S
C20 C21 1.331 . S
C20 H38 0.932 . S
C21 C20 1.331 . S
C21 C22 1.336 . S
C22 C18 1.394 . S
C22 C21 1.336 . S
C22 H37 0.929 . S
C23 C13 1.386 . S
C23 C16 1.357 . S
C23 H36 0.928 . S
H24 C0 0.931 . S
H25 C2 0.930 . S
H26 C4 0.929 . S
H27 C5 0.931 . S
H28 C7 0.930 . S
H29 C11 0.931 . S
H30 C9 0.931 . S
H31 C13 0.931 . S
H32 C14 0.929 . S
H33 C15 0.930 . S
H34 C18 0.930 . S
H35 C19 0.931 . S
H36 C23 0.928 . S
H37 C22 0.929 . S
H38 C20 0.932 . S
C39 C40 1.394 . S
C39 C41 1.397 . S
C39 H63 0.931 . S
C40 C39 1.394 . S
C40 C44 1.389 1_655 S
C41 C39 1.397 . S
C41 C42 1.389 . S
C41 H64 0.930 . S
C42 C41 1.389 . S
C42 C43 1.373 1_655 S
C42 C45 1.480 . S
C43 C42 1.373 1_455 S
C43 C44 1.389 . S
C43 H65 0.929 . S
C44 C40 1.389 1_455 S
C44 C43 1.389 . S
C44 H66 0.931 . S
C45 C42 1.480 . S
C45 C46 1.388 . S
C45 C50 1.390 . S
C46 C45 1.388 . S
C46 C47 1.402 . S
C46 H67 0.930 . S
C47 C46 1.402 . S
C47 C48 1.376 . S
C47 C56 1.513 . S
C48 C47 1.376 . S
C48 C49 1.392 . S
C48 H69 0.934 . S
C49 C48 1.392 . S
C49 C50 1.361 . S
C49 C51 1.499 1_655 S
C50 C45 1.390 . S
C50 C49 1.361 . S
C50 H68 0.931 . S
C51 C49 1.499 1_455 S
C51 C52 1.362 1_455 S
C51 C53 1.374 . S
C52 C51 1.362 1_655 S
C52 C62 1.386 . S
C52 H70 0.931 . S
C53 C51 1.374 . S
C53 C54 1.409 . S
C53 H71 0.929 . S
C54 C53 1.409 . S
C54 C55 1.379 . S
C54 H72 0.930 . S
C55 C54 1.379 . S
C55 C62 1.359 1_455 S
C56 C47 1.513 . S
C56 C57 1.341 . S
C56 C58 1.371 1_655 S
C57 C56 1.341 . S
C57 C61 1.394 . S
C57 H73 0.930 . S
C58 C56 1.371 1_455 S
C58 C59 1.392 . S
C58 H74 0.931 . S
C59 C58 1.392 . S
C59 C60 1.322 1_455 S
C59 H77 0.932 . S
C60 C59 1.322 1_655 S
C60 C61 1.345 . S
C61 C57 1.394 . S
C61 C60 1.345 . S
C61 H76 0.929 . S
C62 C52 1.386 . S
C62 C55 1.359 1_655 S
C62 H75 0.928 . S
H63 C39 0.931 . S
H64 C41 0.930 . S
H65 C43 0.929 . S
H66 C44 0.931 . S
H67 C46 0.930 . S
H68 C50 0.931 . S
H69 C48 0.934 . S
H70 C52 0.931 . S
H71 C53 0.929 . S
H72 C54 0.930 . S
H73 C57 0.930 . S
H74 C58 0.931 . S
H75 C62 0.928 . S
H76 C61 0.929 . S
H77 C59 0.932 . S
C78 C79 1.394 . S
C78 C80 1.397 . S
C78 H102 0.931 . S
C79 C78 1.394 . S
C79 C83 1.389 1_565 S
C80 C78 1.397 . S
C80 C81 1.389 . S
C80 H103 0.930 . S
C81 C80 1.389 . S
C81 C82 1.373 1_565 S
C81 C84 1.480 . S
C82 C81 1.373 1_545 S
C82 C83 1.389 . S
C82 H104 0.929 . S
C83 C79 1.389 1_545 S
C83 C82 1.389 . S
C83 H105 0.931 . S
C84 C81 1.480 . S
C84 C85 1.388 . S
C84 C89 1.390 . S
C85 C84 1.388 . S
C85 C86 1.402 . S
C85 H106 0.930 . S
C86 C85 1.402 . S
C86 C87 1.376 . S
C86 C95 1.513 . S
C87 C86 1.376 . S
C87 C88 1.392 . S
C87 H108 0.934 . S
C88 C87 1.392 . S
C88 C89 1.361 . S
C88 C90 1.499 1_565 S
C89 C84 1.390 . S
C89 C88 1.361 . S
C89 H107 0.931 . S
C90 C88 1.499 1_545 S
C90 C91 1.362 1_545 S
C90 C92 1.374 . S
C91 C90 1.362 1_565 S
C91 C101 1.386 . S
C91 H109 0.931 . S
C92 C90 1.374 . S
C92 C93 1.409 . S
C92 H110 0.929 . S
C93 C92 1.409 . S
C93 C94 1.379 . S
C93 H111 0.930 . S
C94 C93 1.379 . S
C94 C101 1.359 1_545 S
C95 C86 1.513 . S
C95 C96 1.341 . S
C95 C97 1.371 1_565 S
C96 C95 1.341 . S
C96 C100 1.394 . S
C96 H112 0.930 . S
C97 C95 1.371 1_545 S
C97 C98 1.392 . S
C97 H113 0.931 . S
C98 C97 1.392 . S
C98 C99 1.322 1_545 S
C98 H116 0.932 . S
C99 C98 1.322 1_565 S
C99 C100 1.345 . S
C100 C96 1.394 . S
C100 C99 1.345 . S
C100 H115 0.929 . S
C101 C91 1.386 . S
C101 C94 1.359 1_565 S
C101 H114 0.928 . S
H102 C78 0.931 . S
H103 C80 0.930 . S
H104 C82 0.929 . S
H105 C83 0.931 . S
H106 C85 0.930 . S
H107 C89 0.931 . S
H108 C87 0.934 . S
H109 C91 0.931 . S
H110 C92 0.929 . S
H111 C93 0.930 . S
H112 C96 0.930 . S
H113 C97 0.931 . S
H114 C101 0.928 . S
H115 C100 0.929 . S
H116 C98 0.932 . S
C117 C118 1.386 . S
C117 C119 1.397 . S
C117 H141 0.931 . S
C118 C117 1.386 . S
C118 C122 1.397 . S
C119 C117 1.397 . S
C119 C120 1.384 . S
C119 H142 0.930 . S
C120 C119 1.384 . S
C120 C121 1.377 . S
C120 C123 1.481 . S
C121 C120 1.377 . S
C121 C122 1.389 . S
C121 H143 0.929 . S
C122 C118 1.397 . S
C122 C121 1.389 . S
C122 H144 0.931 . S
C123 C120 1.481 . S
C123 C124 1.387 . S
C123 C128 1.390 . S
C124 C123 1.387 . S
C124 C125 1.401 . S
C124 H145 0.930 . S
C125 C124 1.401 . S
C125 C126 1.376 . S
C125 C134 1.511 . S
C126 C125 1.376 . S
C126 C127 1.392 . S
C126 H147 0.931 . S
C127 C126 1.392 . S
C127 C128 1.361 . S
C127 C129 1.500 . S
C128 C123 1.390 . S
C128 C127 1.361 . S
C128 H146 0.931 . S
C129 C127 1.500 . S
C129 C130 1.371 . S
C129 C131 1.365 . S
C130 C129 1.371 . S
C130 C140 1.386 . S
C130 H148 0.931 . S
C131 C129 1.365 . S
C131 C132 1.409 . S
C131 H149 0.929 . S
C132 C131 1.409 . S
C132 C133 1.380 . S
C132 H150 0.930 . S
C133 C132 1.380 . S
C133 C140 1.357 . S
C134 C125 1.511 . S
C134 C135 1.341 . S
C134 C136 1.371 . S
C135 C134 1.341 . S
C135 C139 1.394 . S
C135 H151 0.930 . S
C136 C134 1.371 . S
C136 C137 1.392 . S
C136 H152 0.931 . S
C137 C136 1.392 . S
C137 C138 1.331 . S
C137 H155 0.932 . S
C138 C137 1.331 . S
C138 C139 1.336 . S
C139 C135 1.394 . S
C139 C138 1.336 . S
C139 H154 0.929 . S
C140 C130 1.386 . S
C140 C133 1.357 . S
C140 H153 0.928 . S
H141 C117 0.931 . S
H142 C119 0.930 . S
H143 C121 0.929 . S
H144 C122 0.931 . S
H145 C124 0.930 . S
H146 C128 0.931 . S
H147 C126 0.931 . S
H148 C130 0.931 . S
H149 C131 0.929 . S
H150 C132 0.930 . S
H151 C135 0.930 . S
H152 C136 0.931 . S
H153 C140 0.928 . S
H154 C139 0.929 . S
H155 C137 0.932 . S
C156 C157 1.386 . S
C156 C158 1.397 . S
C156 H180 0.931 . S
C157 C156 1.386 . S
C157 C161 1.397 . S
C158 C156 1.397 . S
C158 C159 1.384 . S
C158 H181 0.930 . S
C159 C158 1.384 . S
C159 C160 1.377 . S
C159 C162 1.481 . S
C160 C159 1.377 . S
C160 C161 1.389 . S
C160 H182 0.929 . S
C161 C157 1.397 . S
C161 C160 1.389 . S
C161 H183 0.931 . S
C162 C159 1.481 . S
C162 C163 1.387 . S
C162 C167 1.390 . S
C163 C162 1.387 . S
C163 C164 1.401 . S
C163 H184 0.930 . S
C164 C163 1.401 . S
C164 C165 1.376 1_554 S
C164 C173 1.511 . S
C165 C164 1.376 1_556 S
C165 C166 1.392 . S
C165 H186 0.931 . S
C166 C165 1.392 . S
C166 C167 1.361 1_556 S
C166 C168 1.500 . S
C167 C162 1.390 . S
C167 C166 1.361 1_554 S
C167 H185 0.931 . S
C168 C166 1.500 . S
C168 C169 1.371 . S
C168 C170 1.365 . S
C169 C168 1.371 . S
C169 C179 1.386 . S
C169 H187 0.931 . S
C170 C168 1.365 . S
C170 C171 1.409 . S
C170 H188 0.929 . S
C171 C170 1.409 . S
C171 C172 1.380 . S
C171 H189 0.930 . S
C172 C171 1.380 . S
C172 C179 1.357 . S
C173 C164 1.511 . S
C173 C174 1.341 . S
C173 C175 1.371 . S
C174 C173 1.341 . S
C174 C178 1.394 . S
C174 H190 0.930 . S
C175 C173 1.371 . S
C175 C176 1.392 . S
C175 H191 0.931 1_554 S
C176 C175 1.392 . S
C176 C177 1.331 . S
C176 H194 0.932 . S
C177 C176 1.331 . S
C177 C178 1.336 . S
C178 C174 1.394 . S
C178 C177 1.336 . S
C178 H193 0.929 . S
C179 C169 1.386 . S
C179 C172 1.357 . S
C179 H192 0.928 . S
H180 C156 0.931 . S
H181 C158 0.930 . S
H182 C160 0.929 . S
H183 C161 0.931 . S
H184 C163 0.930 . S
H185 C167 0.931 . S
H186 C165 0.931 . S
H187 C169 0.931 . S
H188 C170 0.929 . S
H189 C171 0.930 . S
H190 C174 0.930 . S
H191 C175 0.931 1_556 S
H192 C179 0.928 . S
H193 C178 0.929 . S
H194 C176 0.932 . S
C195 C196 1.387 . S
C195 C197 1.397 . S
C195 H219 0.931 . S
C196 C195 1.387 . S
C196 C200 1.396 1_655 S
C197 C195 1.397 . S
C197 C198 1.381 . S
C197 H220 0.930 . S
C198 C197 1.381 . S
C198 C199 1.380 1_655 S
C198 C201 1.480 . S
C199 C198 1.380 1_455 S
C199 C200 1.389 . S
C199 H221 0.929 . S
C200 C196 1.396 1_455 S
C200 C199 1.389 . S
C200 H222 0.931 . S
C201 C198 1.480 . S
C201 C202 1.388 . S
C201 C206 1.390 . S
C202 C201 1.388 . S
C202 C203 1.402 . S
C202 H223 0.930 . S
C203 C202 1.402 . S
C203 C204 1.376 1_554 S
C203 C212 1.512 . S
C204 C203 1.376 1_556 S
C204 C205 1.392 1_655 S
C204 H225 0.933 . S
C205 C204 1.392 1_455 S
C205 C206 1.361 1_456 S
C205 C207 1.499 . S
C206 C201 1.390 . S
C206 C205 1.361 1_654 S
C206 H224 0.931 . S
C207 C205 1.499 . S
C207 C208 1.357 1_455 S
C207 C209 1.380 . S
C208 C207 1.357 1_655 S
C208 C218 1.386 . S
C208 H226 0.931 . S
C209 C207 1.380 . S
C209 C210 1.409 . S
C209 H227 0.929 . S
C210 C209 1.409 . S
C210 C211 1.384 . S
C210 H228 0.930 . S
C211 C210 1.384 . S
C211 C218 1.353 1_455 S
C212 C203 1.512 . S
C212 C213 1.341 . S
C212 C214 1.371 1_655 S
C213 C212 1.341 . S
C213 C217 1.394 . S
C213 H229 0.930 . S
C214 C212 1.371 1_455 S
C214 C215 1.392 . S
C214 H230 0.931 1_554 S
C215 C214 1.392 . S
C215 C216 1.326 1_455 S
C215 H233 0.932 . S
C216 C215 1.326 1_655 S
C216 C217 1.341 . S
C217 C213 1.394 . S
C217 C216 1.341 . S
C217 H232 0.929 . S
C218 C208 1.386 . S
C218 C211 1.353 1_655 S
C218 H231 0.928 . S
H219 C195 0.931 . S
H220 C197 0.930 . S
H221 C199 0.929 . S
H222 C200 0.931 . S
H223 C202 0.930 . S
H224 C206 0.931 . S
H225 C204 0.933 . S
H226 C208 0.931 . S
H227 C209 0.929 . S
H228 C210 0.930 . S
H229 C213 0.930 . S
H230 C214 0.931 1_556 S
H231 C218 0.928 . S
H232 C217 0.929 . S
H233 C215 0.932 . S
C234 C235 1.387 . S
C234 C236 1.397 . S
C234 H258 0.931 . S
C235 C234 1.387 . S
C235 C239 1.396 1_565 S
C236 C234 1.397 . S
C236 C237 1.381 . S
C236 H259 0.930 . S
C237 C236 1.381 . S
C237 C238 1.380 1_565 S
C237 C240 1.480 . S
C238 C237 1.380 1_545 S
C238 C239 1.389 . S
C238 H260 0.929 . S
C239 C235 1.396 1_545 S
C239 C238 1.389 . S
C239 H261 0.931 . S
C240 C237 1.480 . S
C240 C241 1.388 . S
C240 C245 1.390 . S
C241 C240 1.388 . S
C241 C242 1.402 . S
C241 H262 0.930 . S
C242 C241 1.402 . S
C242 C243 1.376 1_554 S
C242 C251 1.512 . S
C243 C242 1.376 1_556 S
C243 C244 1.392 1_565 S
C243 H264 0.933 . S
C244 C243 1.392 1_545 S
C244 C245 1.361 1_546 S
C244 C246 1.499 . S
C245 C240 1.390 . S
C245 C244 1.361 1_564 S
C245 H263 0.931 . S
C246 C244 1.499 . S
C246 C247 1.357 1_545 S
C246 C248 1.380 . S
C247 C246 1.357 1_565 S
C247 C257 1.386 . S
C247 H265 0.931 . S
C248 C246 1.380 . S
C248 C249 1.409 . S
C248 H266 0.929 . S
C249 C248 1.409 . S
C249 C250 1.384 . S
C249 H267 0.930 . S
C250 C249 1.384 . S
C250 C257 1.353 1_545 S
C251 C242 1.512 . S
C251 C252 1.341 . S
C251 C253 1.371 1_565 S
C252 C251 1.341 . S
C252 C256 1.394 . S
C252 H268 0.930 . S
C253 C251 1.371 1_545 S
C253 C254 1.392 . S
C253 H269 0.931 1_554 S
C254 C253 1.392 . S
C254 C255 1.326 1_545 S
C254 H272 0.932 . S
C255 C254 1.326 1_565 S
C255 C256 1.341 . S
C256 C252 1.394 . S
C256 C255 1.341 . S
C256 H271 0.929 . S
C257 C247 1.386 . S
C257 C250 1.353 1_565 S
C257 H270 0.928 . S
H258 C234 0.931 . S
H259 C236 0.930 . S
H260 C238 0.929 . S
H261 C239 0.931 . S
H262 C241 0.930 . S
H263 C245 0.931 . S
H264 C243 0.933 . S
H265 C247 0.931 . S
H266 C248 0.929 . S
H267 C249 0.930 . S
H268 C252 0.930 . S
H269 C253 0.931 1_556 S
H270 C257 0.928 . S
H271 C256 0.929 . S
H272 C254 0.932 . S
C273 C274 1.386 . S
C273 C275 1.397 . S
C273 H297 0.931 . S
C274 C273 1.386 . S
C274 C278 1.397 . S
C275 C273 1.397 . S
C275 C276 1.384 . S
C275 H298 0.930 . S
C276 C275 1.384 . S
C276 C277 1.377 . S
C276 C279 1.481 . S
C277 C276 1.377 . S
C277 C278 1.389 . S
C277 H299 0.929 . S
C278 C274 1.397 . S
C278 C277 1.389 . S
C278 H300 0.931 . S
C279 C276 1.481 . S
C279 C280 1.387 . S
C279 C284 1.390 1_556 S
C280 C279 1.387 . S
C280 C281 1.401 1_556 S
C280 H301 0.930 . S
C281 C280 1.401 1_554 S
C281 C282 1.376 . S
C281 C290 1.511 . S
C282 C281 1.376 . S
C282 C283 1.392 . S
C282 H303 0.931 . S
C283 C282 1.392 . S
C283 C284 1.361 . S
C283 C285 1.500 . S
C284 C279 1.390 1_554 S
C284 C283 1.361 . S
C284 H302 0.931 . S
C285 C283 1.500 . S
C285 C286 1.371 . S
C285 C287 1.365 . S
C286 C285 1.371 . S
C286 C296 1.386 . S
C286 H304 0.931 . S
C287 C285 1.365 . S
C287 C288 1.409 . S
C287 H305 0.929 . S
C288 C287 1.409 . S
C288 C289 1.380 . S
C288 H306 0.930 . S
C289 C288 1.380 . S
C289 C296 1.357 . S
C290 C281 1.511 . S
C290 C291 1.341 . S
C290 C292 1.371 . S
C291 C290 1.341 . S
C291 C295 1.394 . S
C291 H307 0.930 1_554 S
C292 C290 1.371 . S
C292 C293 1.392 . S
C292 H308 0.931 . S
C293 C292 1.392 . S
C293 C294 1.331 . S
C293 H311 0.932 . S
C294 C293 1.331 . S
C294 C295 1.336 . S
C295 C291 1.394 . S
C295 C294 1.336 . S
C295 H310 0.929 . S
C296 C286 1.386 . S
C296 C289 1.357 . S
C296 H309 0.928 . S
H297 C273 0.931 . S
H298 C275 0.930 . S
H299 C277 0.929 . S
H300 C278 0.931 . S
H301 C280 0.930 . S
H302 C284 0.931 . S
H303 C282 0.931 . S
H304 C286 0.931 . S
H305 C287 0.929 . S
H306 C288 0.930 . S
H307 C291 0.930 1_556 S
H308 C292 0.931 . S
H309 C296 0.928 . S
H310 C295 0.929 . S
H311 C293 0.932 . S
Pr312 C314 2.880 . S
Pr312 O332 2.562 . S
Pr312 O333 2.490 . S
Pr312 O334 2.695 1_565 S
Pr312 O335 2.512 . S
Pr312 O337 2.437 . S
Pr312 O340 2.436 1_455 S
Pr312 O342 2.438 1_565 S
Pr313 C323 2.880 . S
Pr313 O334 2.436 1_655 S
Pr313 O336 2.438 1_545 S
Pr313 O338 2.562 . S
Pr313 O339 2.490 . S
Pr313 O340 2.695 1_545 S
Pr313 O341 2.512 . S
Pr313 O343 2.437 . S
C314 Pr312 2.880 . S
C314 C315 1.491 . S
C314 O332 1.254 . S
C314 O333 1.225 . S
C315 C314 1.491 . S
C315 C316 1.392 . S
C315 C320 1.356 . S
C316 C315 1.392 . S
C316 C317 1.368 . S
C316 H344 0.929 . S
C317 C316 1.368 . S
C317 C318 1.386 . S
C317 H345 0.929 . S
C318 C317 1.386 . S
C318 C319 1.373 . S
C319 C318 1.373 . S
C319 C320 1.409 . S
C319 H346 0.910 1_455 S
C320 C315 1.356 . S
C320 C319 1.409 . S
C320 H347 0.930 1_455 S
C321 O334 1.270 1_565 S
C321 O335 1.248 . S
C322 O336 1.267 . S
C322 O337 1.278 1_655 S
C323 Pr313 2.880 . S
C323 C324 1.491 . S
C323 O338 1.254 . S
C323 O339 1.225 . S
C324 C323 1.491 . S
C324 C325 1.392 . S
C324 C329 1.356 . S
C325 C324 1.392 . S
C325 C326 1.368 . S
C325 H348 0.929 . S
C326 C325 1.368 . S
C326 C327 1.386 . S
C326 H349 0.929 . S
C327 C326 1.386 . S
C327 C328 1.373 . S
C328 C327 1.373 . S
C328 C329 1.409 . S
C328 H350 0.901 1_655 S
C329 C324 1.356 . S
C329 C328 1.409 . S
C329 H351 0.930 1_655 S
C330 O340 1.270 1_545 S
C330 O341 1.248 . S
C331 O342 1.267 . S
C331 O343 1.278 1_455 S
O332 Pr312 2.562 . S
O332 C314 1.254 . S
O333 Pr312 2.490 . S
O333 C314 1.225 . S
O334 Pr312 2.695 1_545 S
O334 Pr313 2.436 1_455 S
O334 C321 1.270 1_545 S
O335 Pr312 2.512 . S
O335 C321 1.248 . S
O336 Pr313 2.438 1_565 S
O336 C322 1.267 . S
O337 Pr312 2.437 . S
O337 C322 1.278 1_455 S
O338 Pr313 2.562 . S
O338 C323 1.254 . S
O339 Pr313 2.490 . S
O339 C323 1.225 . S
O340 Pr312 2.436 1_655 S
O340 Pr313 2.695 1_565 S
O340 C330 1.270 1_565 S
O341 Pr313 2.512 . S
O341 C330 1.248 . S
O342 Pr312 2.438 1_545 S
O342 C331 1.267 . S
O343 Pr313 2.437 . S
O343 C331 1.278 1_655 S
H344 C316 0.929 . S
H345 C317 0.929 . S
H346 C319 0.910 1_655 S
H347 C320 0.930 1_655 S
H348 C325 0.929 . S
H349 C326 0.929 . S
H350 C328 0.901 1_455 S
H351 C329 0.930 1_455 S
Pr352 C354 2.880 . S
Pr352 O372 2.562 . S
Pr352 O373 2.490 . S
Pr352 O374 2.695 . S
Pr352 O375 2.512 . S
Pr352 O377 2.437 . S
Pr352 O380 2.436 1_545 S
Pr352 O382 2.438 . S
Pr353 C363 2.880 . S
Pr353 O374 2.436 1_565 S
Pr353 O376 2.438 . S
Pr353 O378 2.562 . S
Pr353 O379 2.490 . S
Pr353 O380 2.695 . S
Pr353 O381 2.512 . S
Pr353 O383 2.437 . S
C354 Pr352 2.880 . S
C354 C355 1.491 . S
C354 O372 1.254 . S
C354 O373 1.225 . S
C355 C354 1.491 . S
C355 C356 1.392 . S
C355 C360 1.356 . S
C356 C355 1.392 . S
C356 C357 1.368 . S
C356 H384 0.929 . S
C357 C356 1.368 . S
C357 C358 1.386 . S
C357 H385 0.929 . S
C358 C357 1.386 . S
C358 C359 1.373 . S
C359 C358 1.373 . S
C359 C360 1.409 . S
C359 H386 0.931 1_545 S
C360 C355 1.356 . S
C360 C359 1.409 . S
C360 H387 0.930 1_545 S
C361 O374 1.270 . S
C361 O375 1.248 . S
C362 O376 1.267 . S
C362 O377 1.278 1_565 S
C363 Pr353 2.880 . S
C363 C364 1.491 . S
C363 O378 1.254 . S
C363 O379 1.225 . S
C364 C363 1.491 . S
C364 C365 1.392 . S
C364 C369 1.356 . S
C365 C364 1.392 . S
C365 C366 1.368 . S
C365 H388 0.929 . S
C366 C365 1.368 . S
C366 C367 1.386 . S
C366 H389 0.929 . S
C367 C366 1.386 . S
C367 C368 1.373 . S
C368 C367 1.373 . S
C368 C369 1.409 . S
C368 H390 0.931 1_565 S
C369 C364 1.356 . S
C369 C368 1.409 . S
C369 H391 0.930 1_565 S
C370 O380 1.270 . S
C370 O381 1.248 . S
C371 O382 1.267 . S
C371 O383 1.278 1_545 S
O372 Pr352 2.562 . S
O372 C354 1.254 . S
O373 Pr352 2.490 . S
O373 C354 1.225 . S
O374 Pr352 2.695 . S
O374 Pr353 2.436 1_545 S
O374 C361 1.270 . S
O375 Pr352 2.512 . S
O375 C361 1.248 . S
O376 Pr353 2.438 . S
O376 C362 1.267 . S
O377 Pr352 2.437 . S
O377 C362 1.278 1_545 S
O378 Pr353 2.562 . S
O378 C363 1.254 . S
O379 Pr353 2.490 . S
O379 C363 1.225 . S
O380 Pr352 2.436 1_565 S
O380 Pr353 2.695 . S
O380 C370 1.270 . S
O381 Pr353 2.512 . S
O381 C370 1.248 . S
O382 Pr352 2.438 . S
O382 C371 1.267 . S
O383 Pr353 2.437 . S
O383 C371 1.278 1_565 S
H384 C356 0.929 . S
H385 C357 0.929 . S
H386 C359 0.931 1_565 S
H387 C360 0.930 1_565 S
H388 C365 0.929 . S
H389 C366 0.929 . S
H390 C368 0.931 1_545 S
H391 C369 0.930 1_545 S
Pr392 C394 2.880 . S
Pr392 O412 2.562 . S
Pr392 O413 2.490 . S
Pr392 O414 2.695 . S
Pr392 O415 2.512 . S
Pr392 O417 2.437 . S
Pr392 O420 2.436 . S
Pr392 O422 2.438 . S
Pr393 C403 2.880 . S
Pr393 O414 2.436 . S
Pr393 O416 2.438 . S
Pr393 O418 2.562 . S
Pr393 O419 2.490 . S
Pr393 O420 2.695 . S
Pr393 O421 2.512 . S
Pr393 O423 2.437 . S
C394 Pr392 2.880 . S
C394 C395 1.491 . S
C394 O412 1.254 . S
C394 O413 1.225 . S
C395 C394 1.491 . S
C395 C396 1.392 . S
C395 C400 1.356 . S
C396 C395 1.392 . S
C396 C397 1.368 . S
C396 H424 0.929 . S
C397 C396 1.368 . S
C397 C398 1.386 . S
C397 H425 0.929 . S
C398 C397 1.386 . S
C398 C399 1.373 . S
C399 C398 1.373 . S
C399 C400 1.409 . S
C399 H426 0.931 . S
C400 C395 1.356 . S
C400 C399 1.409 . S
C400 H427 0.930 . S
C401 O414 1.270 . S
C401 O415 1.248 . S
C402 O416 1.267 . S
C402 O417 1.278 . S
C403 Pr393 2.880 . S
C403 C404 1.491 . S
C403 O418 1.254 . S
C403 O419 1.225 . S
C404 C403 1.491 . S
C404 C405 1.392 . S
C404 C409 1.356 . S
C405 C404 1.392 . S
C405 C406 1.368 . S
C405 H428 0.929 . S
C406 C405 1.368 . S
C406 C407 1.386 . S
C406 H429 0.929 . S
C407 C406 1.386 . S
C407 C408 1.373 . S
C408 C407 1.373 . S
C408 C409 1.409 . S
C408 H430 0.931 . S
C409 C404 1.356 . S
C409 C408 1.409 . S
C409 H431 0.930 . S
C410 O420 1.270 . S
C410 O421 1.248 . S
C411 O422 1.267 . S
C411 O423 1.278 . S
O412 Pr392 2.562 . S
O412 C394 1.254 . S
O413 Pr392 2.490 . S
O413 C394 1.225 . S
O414 Pr392 2.695 . S
O414 Pr393 2.436 . S
O414 C401 1.270 . S
O415 Pr392 2.512 . S
O415 C401 1.248 . S
O416 Pr393 2.438 . S
O416 C402 1.267 . S
O417 Pr392 2.437 . S
O417 C402 1.278 . S
O418 Pr393 2.562 . S
O418 C403 1.254 . S
O419 Pr393 2.490 . S
O419 C403 1.225 . S
O420 Pr392 2.436 . S
O420 Pr393 2.695 . S
O420 C410 1.270 . S
O421 Pr393 2.512 . S
O421 C410 1.248 . S
O422 Pr392 2.438 . S
O422 C411 1.267 . S
O423 Pr393 2.437 . S
O423 C411 1.278 . S
H424 C396 0.929 . S
H425 C397 0.929 . S
H426 C399 0.931 . S
H427 C400 0.930 . S
H428 C405 0.929 . S
H429 C406 0.929 . S
H430 C408 0.931 . S
H431 C409 0.930 . S
Pr432 C434 2.880 . S
Pr432 O452 2.562 . S
Pr432 O453 2.490 . S
Pr432 O454 2.695 1_655 S
Pr432 O455 2.512 . S
Pr432 O457 2.437 . S
Pr432 O460 2.436 . S
Pr432 O462 2.438 1_655 S
Pr433 C443 2.880 . S
Pr433 O454 2.436 . S
Pr433 O456 2.438 1_455 S
Pr433 O458 2.562 . S
Pr433 O459 2.490 . S
Pr433 O460 2.695 1_455 S
Pr433 O461 2.512 . S
Pr433 O463 2.437 . S
C434 Pr432 2.880 . S
C434 C435 1.491 . S
C434 O452 1.254 . S
C434 O453 1.225 . S
C435 C434 1.491 . S
C435 C436 1.392 . S
C435 C440 1.356 . S
C436 C435 1.392 . S
C436 C437 1.368 . S
C436 H464 0.929 . S
C437 C436 1.368 . S
C437 C438 1.386 . S
C437 H465 0.929 . S
C438 C437 1.386 . S
C438 C439 1.373 . S
C439 C438 1.373 . S
C439 C440 1.409 . S
C439 H466 0.931 . S
C440 C435 1.356 . S
C440 C439 1.409 . S
C440 H467 0.930 . S
C441 O454 1.259 1_655 S
C441 O455 1.267 . S
C442 O456 1.267 . S
C442 O457 1.278 . S
C443 Pr433 2.880 . S
C443 C444 1.491 . S
C443 O458 1.254 . S
C443 O459 1.225 . S
C444 C443 1.491 . S
C444 C445 1.392 . S
C444 C449 1.356 . S
C445 C444 1.392 . S
C445 C446 1.368 . S
C445 H468 0.929 . S
C446 C445 1.368 . S
C446 C447 1.386 . S
C446 H469 0.929 . S
C447 C446 1.386 . S
C447 C448 1.373 . S
C448 C447 1.373 . S
C448 C449 1.409 . S
C448 H470 0.931 . S
C449 C444 1.356 . S
C449 C448 1.409 . S
C449 H471 0.930 . S
C450 O460 1.256 1_455 S
C450 O461 1.273 . S
C451 O462 1.267 . S
C451 O463 1.278 . S
O452 Pr432 2.562 . S
O452 C434 1.254 . S
O453 Pr432 2.490 . S
O453 C434 1.225 . S
O454 Pr432 2.695 1_455 S
O454 Pr433 2.436 . S
O454 C441 1.259 1_455 S
O455 Pr432 2.512 . S
O455 C441 1.267 . S
O456 Pr433 2.438 1_655 S
O456 C442 1.267 . S
O457 Pr432 2.437 . S
O457 C442 1.278 . S
O458 Pr433 2.562 . S
O458 C443 1.254 . S
O459 Pr433 2.490 . S
O459 C443 1.225 . S
O460 Pr432 2.436 . S
O460 Pr433 2.695 1_655 S
O460 C450 1.256 1_655 S
O461 Pr433 2.512 . S
O461 C450 1.273 . S
O462 Pr432 2.438 1_455 S
O462 C451 1.267 . S
O463 Pr433 2.437 . S
O463 C451 1.278 . S
H464 C436 0.929 . S
H465 C437 0.929 . S
H466 C439 0.931 . S
H467 C440 0.930 . S
H468 C445 0.929 . S
H469 C446 0.929 . S
H470 C448 0.931 . S
H471 C449 0.930 . S
H472 C478 0.930 . S
H473 C482 0.930 . S
H474 C487 0.929 . S
H475 C485 0.929 . S
H476 C480 0.929 . S
H477 C486 0.929 . S
C478 H472 0.930 . S
C478 C479 1.368 . S
C478 C486 1.378 . S
C479 C478 1.368 . S
C479 C487 1.432 1_565 S
C480 H476 0.929 . S
C480 C482 1.378 . S
C480 C484 1.350 . S
C481 C484 1.462 . S
C481 C486 1.354 1_545 S
C481 N489 1.423 . S
C482 H473 0.930 . S
C482 C480 1.378 . S
C482 C483 1.367 . S
C483 C482 1.367 . S
C483 C485 1.433 1_545 S
C484 C480 1.350 . S
C484 C481 1.462 . S
C484 N488 1.427 1_545 S
C485 H475 0.929 . S
C485 C483 1.433 1_565 S
C485 N488 1.384 . S
C486 H477 0.929 . S
C486 C478 1.378 . S
C486 C481 1.354 1_565 S
C487 H474 0.929 . S
C487 C479 1.432 1_545 S
C487 N489 1.384 . S
N488 C484 1.427 1_565 S
N488 C485 1.384 . S
N489 C481 1.423 . S
N489 C487 1.384 . S
H490 C496 0.930 . S
H491 C500 0.930 . S
H492 C505 0.929 . S
H493 C503 0.929 . S
H494 C498 0.929 . S
H495 C504 0.929 . S
C496 H490 0.930 . S
C496 C497 1.367 . S
C496 C504 1.378 . S
C497 C496 1.367 . S
C497 C505 1.433 . S
C498 H494 0.929 . S
C498 C500 1.378 . S
C498 C502 1.350 . S
C499 C502 1.463 . S
C499 C504 1.350 . S
C499 N507 1.427 . S
C500 H491 0.930 . S
C500 C498 1.378 . S
C500 C501 1.367 . S
C501 C500 1.367 . S
C501 C503 1.433 . S
C502 C498 1.350 . S
C502 C499 1.463 . S
C502 N506 1.427 . S
C503 H493 0.929 . S
C503 C501 1.433 . S
C503 N506 1.384 . S
C504 H495 0.929 . S
C504 C496 1.378 . S
C504 C499 1.350 . S
C505 H492 0.929 . S
C505 C497 1.433 . S
C505 N507 1.384 . S
N506 C502 1.427 . S
N506 C503 1.384 . S
N507 C499 1.427 . S
N507 C505 1.384 . S
H508 C514 0.930 . S
H509 C518 0.930 . S
H510 C523 0.929 . S
H511 C521 0.929 . S
H512 C516 0.929 . S
H513 C522 0.929 . S
C514 H508 0.930 . S
C514 C515 1.367 . S
C514 C522 1.378 . S
C515 C514 1.367 . S
C515 C523 1.433 . S
C516 H512 0.929 . S
C516 C518 1.378 . S
C516 C520 1.350 . S
C517 C520 1.463 . S
C517 C522 1.350 . S
C517 N525 1.427 . S
C518 H509 0.930 . S
C518 C516 1.378 . S
C518 C519 1.367 . S
C519 C518 1.367 . S
C519 C521 1.433 . S
C520 C516 1.350 . S
C520 C517 1.463 . S
C520 N524 1.427 . S
C521 H511 0.929 . S
C521 C519 1.433 . S
C521 N524 1.384 . S
C522 H513 0.929 . S
C522 C514 1.378 . S
C522 C517 1.350 . S
C523 H510 0.929 . S
C523 C515 1.433 . S
C523 N525 1.384 . S
N524 C520 1.427 . S
N524 C521 1.384 . S
N525 C517 1.427 . S
N525 C523 1.384 . S
H526 C532 0.930 . S
H527 C536 0.930 . S
H528 C541 0.929 . S
H529 C539 0.929 . S
H530 C534 0.929 . S
H531 C540 0.929 . S
C532 H526 0.930 . S
C532 C533 1.367 . S
C532 C540 1.378 . S
C533 C532 1.367 . S
C533 C541 1.433 1_655 S
C534 H530 0.929 . S
C534 C536 1.378 . S
C534 C538 1.350 . S
C535 C538 1.463 . S
C535 C540 1.349 1_455 S
C535 N543 1.429 . S
C536 H527 0.930 . S
C536 C534 1.378 . S
C536 C537 1.367 . S
C537 C536 1.367 . S
C537 C539 1.433 1_455 S
C538 C534 1.350 . S
C538 C535 1.463 . S
C538 N542 1.427 1_455 S
C539 H529 0.929 . S
C539 C537 1.433 1_655 S
C539 N542 1.384 . S
C540 H531 0.929 . S
C540 C532 1.378 . S
C540 C535 1.349 1_655 S
C541 H528 0.929 . S
C541 C533 1.433 1_455 S
C541 N543 1.384 . S
N542 C538 1.427 1_655 S
N542 C539 1.384 . S
N543 C535 1.429 . S
N543 C541 1.384 . S
H544 C550 0.930 . S
H545 C554 0.930 . S
H546 C559 0.929 . S
H547 C557 0.929 . S
H548 C552 0.929 . S
H549 C558 0.929 . S
C550 H544 0.930 . S
C550 C551 1.380 . S
C550 C558 1.378 . S
C551 C550 1.380 . S
C551 C559 1.420 1_545 S
C552 H548 0.929 . S
C552 C554 1.378 . S
C552 C556 1.350 . S
C553 C556 1.462 1_544 S
C553 C558 1.357 . S
C553 N561 1.420 1_545 S
C554 H545 0.930 . S
C554 C552 1.378 . S
C554 C555 1.367 . S
C555 C554 1.367 . S
C555 C557 1.433 1_565 S
C556 C552 1.350 . S
C556 C553 1.462 1_566 S
C556 N560 1.427 1_565 S
C557 H547 0.929 . S
C557 C555 1.433 1_545 S
C557 N560 1.384 . S
C558 H549 0.929 . S
C558 C550 1.378 . S
C558 C553 1.357 . S
C559 H546 0.929 . S
C559 C551 1.420 1_565 S
C559 N561 1.384 . S
N560 C556 1.427 1_545 S
N560 C557 1.384 . S
N561 C553 1.420 1_565 S
N561 C559 1.384 . S
H562 C568 0.930 . S
H563 C572 0.930 . S
H564 C577 0.929 . S
H565 C575 0.929 . S
H566 C570 0.929 1_554 S
H567 C576 0.929 . S
C568 H562 0.930 . S
C568 C569 1.367 . S
C568 C576 1.378 . S
C569 C568 1.367 . S
C569 C577 1.433 . S
C570 H566 0.929 1_556 S
C570 C572 1.378 . S
C570 C574 1.350 1_556 S
C571 C574 1.463 . S
C571 C576 1.350 . S
C571 N579 1.427 . S
C572 H563 0.930 . S
C572 C570 1.378 . S
C572 C573 1.367 . S
C573 C572 1.367 . S
C573 C575 1.433 . S
C574 C570 1.350 1_554 S
C574 C571 1.463 . S
C574 N578 1.427 1_554 S
C575 H565 0.929 . S
C575 C573 1.433 . S
C575 N578 1.384 . S
C576 H567 0.929 . S
C576 C568 1.378 . S
C576 C571 1.350 . S
C577 H564 0.929 . S
C577 C569 1.433 . S
C577 N579 1.384 . S
N578 C574 1.427 1_556 S
N578 C575 1.384 . S
N579 C571 1.427 . S
N579 C577 1.384 . S
H580 C586 0.930 . S
H581 C590 0.930 . S
H582 C595 0.929 . S
H583 C593 0.929 . S
H584 C588 0.929 1_554 S
H585 C594 0.929 . S
C586 H580 0.930 . S
C586 C587 1.367 . S
C586 C594 1.378 . S
C587 C586 1.367 . S
C587 C595 1.433 . S
C588 H584 0.929 1_556 S
C588 C590 1.378 . S
C588 C592 1.351 . S
C589 C592 1.460 1_554 S
C589 C594 1.350 . S
C589 N597 1.427 . S
C590 H581 0.930 . S
C590 C588 1.378 . S
C590 C591 1.367 . S
C591 C590 1.367 . S
C591 C593 1.433 . S
C592 C588 1.351 . S
C592 C589 1.460 1_556 S
C592 N596 1.429 . S
C593 H583 0.929 . S
C593 C591 1.433 . S
C593 N596 1.384 . S
C594 H585 0.929 . S
C594 C586 1.378 . S
C594 C589 1.350 . S
C595 H582 0.929 . S
C595 C587 1.433 . S
C595 N597 1.384 . S
N596 C592 1.429 . S
N596 C593 1.384 . S
N597 C589 1.427 . S
N597 C595 1.384 . S
H598 C604 0.930 . S
H599 C608 0.930 . S
H600 C613 0.929 . S
H601 C611 0.929 . S
H602 C606 0.929 1_554 S
H603 C612 0.929 . S
C604 H598 0.930 . S
C604 C605 1.365 1_455 S
C604 C612 1.378 . S
C605 C604 1.365 1_655 S
C605 C613 1.435 . S
C606 H602 0.929 1_556 S
C606 C608 1.378 . S
C606 C610 1.351 . S
C607 C610 1.455 1_554 S
C607 C612 1.342 1_655 S
C607 N615 1.436 . S
C608 H599 0.930 . S
C608 C606 1.378 . S
C608 C609 1.367 . S
C609 C608 1.367 . S
C609 C611 1.433 1_655 S
C610 C606 1.351 . S
C610 C607 1.455 1_556 S
C610 N614 1.435 1_655 S
C611 H601 0.929 . S
C611 C609 1.433 1_455 S
C611 N614 1.384 . S
C612 H603 0.929 . S
C612 C604 1.378 . S
C612 C607 1.342 1_455 S
C613 H600 0.929 . S
C613 C605 1.435 . S
C613 N615 1.384 . S
N614 C610 1.435 1_455 S
N614 C611 1.384 . S
N615 C607 1.436 . S
N615 C613 1.384 . S
H616 C622 0.930 . S
H617 C626 0.930 . S
H618 C631 0.929 . S
H619 C629 0.929 . S
H620 C624 0.929 . S
H621 C630 0.929 . S
C622 H616 0.930 . S
C622 C623 1.367 1_655 S
C622 C630 1.378 . S
C623 C622 1.367 1_455 S
C623 C631 1.433 . S
C624 H620 0.929 . S
C624 C626 1.378 . S
C624 C628 1.350 . S
C625 C628 1.463 . S
C625 C630 1.350 . S
C625 N633 1.410 1_655 S
C626 H617 0.930 . S
C626 C624 1.378 . S
C626 C627 1.367 . S
C627 C626 1.367 . S
C627 C629 1.433 . S
C628 C624 1.350 . S
C628 C625 1.463 . S
C628 N632 1.427 . S
C629 H619 0.929 . S
C629 C627 1.433 . S
C629 N632 1.384 . S
C630 H621 0.929 . S
C630 C622 1.378 . S
C630 C625 1.350 . S
C631 H618 0.929 . S
C631 C623 1.433 . S
C631 N633 1.394 . S
N632 C628 1.427 . S
N632 C629 1.384 . S
N633 C625 1.410 1_455 S
N633 C631 1.394 . S
H634 C640 0.930 . S
H635 C644 0.930 . S
H636 C649 0.929 . S
H637 C647 0.929 . S
H638 C642 0.929 . S
H639 C648 0.929 . S
C640 H634 0.930 . S
C640 C641 1.367 . S
C640 C648 1.378 . S
C641 C640 1.367 . S
C641 C649 1.433 1_545 S
C642 H638 0.929 . S
C642 C644 1.378 . S
C642 C646 1.350 . S
C643 C646 1.463 . S
C643 C648 1.350 1_565 S
C643 N651 1.427 . S
C644 H635 0.930 . S
C644 C642 1.378 . S
C644 C645 1.367 . S
C645 C644 1.367 . S
C645 C647 1.433 . S
C646 C642 1.350 . S
C646 C643 1.463 . S
C646 N650 1.427 . S
C647 H637 0.929 . S
C647 C645 1.433 . S
C647 N650 1.384 . S
C648 H639 0.929 . S
C648 C640 1.378 . S
C648 C643 1.350 1_545 S
C649 H636 0.929 . S
C649 C641 1.433 1_565 S
C649 N651 1.384 . S
N650 C646 1.427 . S
N650 C647 1.384 . S
N651 C643 1.427 . S
N651 C649 1.384 . S
H652 C658 0.930 . S
H653 C662 0.930 . S
H654 C667 0.929 . S
H655 C665 0.929 . S
H656 C660 0.929 . S
H657 C666 0.929 . S
C658 H652 0.930 . S
C658 C659 1.367 . S
C658 C666 1.378 . S
C659 C658 1.367 . S
C659 C667 1.433 . S
C660 H656 0.929 . S
C660 C662 1.378 . S
C660 C664 1.350 . S
C661 C664 1.463 . S
C661 C666 1.350 . S
C661 N669 1.427 . S
C662 H653 0.930 . S
C662 C660 1.378 . S
C662 C663 1.367 . S
C663 C662 1.367 . S
C663 C665 1.433 . S
C664 C660 1.350 . S
C664 C661 1.463 . S
C664 N668 1.427 . S
C665 H655 0.929 . S
C665 C663 1.433 . S
C665 N668 1.384 . S
C666 H657 0.929 . S
C666 C658 1.378 . S
C666 C661 1.350 . S
C667 H654 0.929 . S
C667 C659 1.433 . S
C667 N669 1.384 . S
N668 C664 1.427 . S
N668 C665 1.384 . S
N669 C661 1.427 . S
N669 C667 1.384 . S
H670 C676 0.930 . S
H671 C680 0.930 . S
H672 C685 0.929 . S
H673 C683 0.929 . S
H674 C678 0.929 . S
H675 C684 0.929 . S
C676 H670 0.930 . S
C676 C677 1.367 . S
C676 C684 1.378 . S
C677 C676 1.367 . S
C677 C685 1.433 . S
C678 H674 0.929 . S
C678 C680 1.378 . S
C678 C682 1.350 . S
C679 C682 1.463 . S
C679 C684 1.350 . S
C679 N687 1.427 . S
C680 H671 0.930 . S
C680 C678 1.378 . S
C680 C681 1.367 . S
C681 C680 1.367 . S
C681 C683 1.433 . S
C682 C678 1.350 . S
C682 C679 1.463 . S
C682 N686 1.427 . S
C683 H673 0.929 . S
C683 C681 1.433 . S
C683 N686 1.384 . S
C684 H675 0.929 . S
C684 C676 1.378 . S
C684 C679 1.350 . S
C685 H672 0.929 . S
C685 C677 1.433 . S
C685 N687 1.384 . S
N686 C682 1.427 . S
N686 C683 1.384 . S
N687 C679 1.427 . S
N687 C685 1.384 . S
H688 C694 0.939 . S
H689 C698 0.930 . S
H690 C703 0.929 . S
H691 C701 0.929 . S
H692 C696 0.929 . S
H693 C702 0.929 . S
C694 H688 0.939 . S
C694 C695 1.370 . S
C694 C702 1.367 1_655 S
C695 C694 1.370 . S
C695 C703 1.433 1_655 S
C696 H692 0.929 . S
C696 C698 1.378 . S
C696 C700 1.350 1_556 S
C697 C700 1.463 . S
C697 C702 1.350 . S
C697 N705 1.427 . S
C698 H689 0.930 . S
C698 C696 1.378 . S
C698 C699 1.367 . S
C699 C698 1.367 . S
C699 C701 1.433 1_556 S
C700 C696 1.350 1_554 S
C700 C697 1.463 . S
C700 N704 1.427 . S
C701 H691 0.929 . S
C701 C699 1.433 1_554 S
C701 N704 1.384 . S
C702 H693 0.929 . S
C702 C694 1.367 1_455 S
C702 C697 1.350 . S
C703 H690 0.929 . S
C703 C695 1.433 1_455 S
C703 N705 1.384 . S
N704 C700 1.427 . S
N704 C701 1.384 . S
N705 C697 1.427 . S
N705 C703 1.384 . S
H706 C712 0.930 . S
H707 C716 0.930 . S
H708 C721 0.929 . S
H709 C719 0.929 . S
H710 C714 0.929 1_565 S
H711 C720 0.929 . S
C712 H706 0.930 . S
C712 C713 1.367 1_545 S
C712 C720 1.378 . S
C713 C712 1.367 1_565 S
C713 C721 1.433 . S
C714 H710 0.929 1_545 S
C714 C716 1.378 . S
C714 C718 1.350 1_556 S
C715 C718 1.463 . S
C715 C720 1.350 . S
C715 N723 1.427 1_545 S
C716 H707 0.930 . S
C716 C714 1.378 . S
C716 C717 1.367 . S
C717 C716 1.367 . S
C717 C719 1.433 1_556 S
C718 C714 1.350 1_554 S
C718 C715 1.463 . S
C718 N722 1.427 . S
C719 H709 0.929 . S
C719 C717 1.433 1_554 S
C719 N722 1.384 . S
C720 H711 0.929 . S
C720 C712 1.378 . S
C720 C715 1.350 . S
C721 H708 0.929 . S
C721 C713 1.433 . S
C721 N723 1.384 . S
N722 C718 1.427 . S
N722 C719 1.384 . S
N723 C715 1.427 1_565 S
N723 C721 1.384 . S
H724 C730 0.930 . S
H725 C734 0.930 . S
H726 C739 0.929 . S
H727 C737 0.929 . S
H728 C732 0.929 . S
H729 C738 0.929 1_556 S
C730 H724 0.930 . S
C730 C731 1.367 . S
C730 C738 1.378 . S
C731 C730 1.367 . S
C731 C739 1.433 . S
C732 H728 0.929 . S
C732 C734 1.378 . S
C732 C736 1.350 . S
C733 C736 1.463 . S
C733 C738 1.350 . S
C733 N741 1.427 . S
C734 H725 0.930 . S
C734 C732 1.378 . S
C734 C735 1.367 1_554 S
C735 C734 1.367 1_556 S
C735 C737 1.433 . S
C736 C732 1.350 . S
C736 C733 1.463 . S
C736 N740 1.427 1_554 S
C737 H727 0.929 . S
C737 C735 1.433 . S
C737 N740 1.384 . S
C738 H729 0.929 1_554 S
C738 C730 1.378 . S
C738 C733 1.350 . S
C739 H726 0.929 . S
C739 C731 1.433 . S
C739 N741 1.384 . S
N740 C736 1.427 1_556 S
N740 C737 1.384 . S
N741 C733 1.427 . S
N741 C739 1.384 . S
H742 C748 0.930 . S
H743 C752 0.930 . S
H744 C757 0.929 . S
H745 C755 0.929 . S
H746 C750 0.929 . S
H747 C756 0.929 1_556 S
C748 H742 0.930 . S
C748 C749 1.367 . S
C748 C756 1.378 . S
C749 C748 1.367 . S
C749 C757 1.433 . S
C750 H746 0.929 . S
C750 C752 1.378 . S
C750 C754 1.350 . S
C751 C754 1.463 . S
C751 C756 1.350 . S
C751 N759 1.427 . S
C752 H743 0.930 . S
C752 C750 1.378 . S
C752 C753 1.367 1_554 S
C753 C752 1.367 1_556 S
C753 C755 1.433 . S
C754 C750 1.350 . S
C754 C751 1.463 . S
C754 N758 1.427 1_554 S
C755 H745 0.929 . S
C755 C753 1.433 . S
C755 N758 1.384 . S
C756 H747 0.929 1_554 S
C756 C748 1.378 . S
C756 C751 1.350 . S
C757 H744 0.929 . S
C757 C749 1.433 . S
C757 N759 1.384 . S
N758 C754 1.427 1_556 S
N758 C755 1.384 . S
N759 C751 1.427 . S
N759 C757 1.384 . S
H760 C766 0.930 . S
H761 C770 0.937 . S
H762 C775 0.929 . S
H763 C773 0.929 . S
H764 C768 0.929 1_655 S
H765 C774 0.929 . S
C766 H760 0.930 . S
C766 C767 1.367 . S
C766 C774 1.378 . S
C767 C766 1.367 . S
C767 C775 1.433 1_455 S
C768 H764 0.929 1_455 S
C768 C770 1.378 . S
C768 C772 1.350 . S
C769 C772 1.463 . S
C769 C774 1.350 . S
C769 N777 1.419 1_455 S
C770 H761 0.937 . S
C770 C768 1.378 . S
C770 C771 1.367 . S
C771 C770 1.367 . S
C771 C773 1.433 . S
C772 C768 1.350 . S
C772 C769 1.463 . S
C772 N776 1.427 . S
C773 H763 0.929 . S
C773 C771 1.433 . S
C773 N776 1.384 . S
C774 H765 0.929 . S
C774 C766 1.378 . S
C774 C769 1.350 . S
C775 H762 0.929 . S
C775 C767 1.433 1_655 S
C775 N777 1.386 . S
N776 C772 1.427 . S
N776 C773 1.384 . S
N777 C769 1.419 1_655 S
N777 C775 1.386 . S
H778 C784 0.930 . S
H779 C788 0.930 . S
H780 C793 0.929 . S
H781 C791 0.929 . S
H782 C786 0.929 . S
H783 C792 0.929 . S
C784 H778 0.930 . S
C784 C785 1.367 1_565 S
C784 C792 1.378 . S
C785 C784 1.367 1_545 S
C785 C793 1.433 . S
C786 H782 0.929 . S
C786 C788 1.378 . S
C786 C790 1.350 . S
C787 C790 1.463 . S
C787 C792 1.350 1_545 S
C787 N795 1.427 . S
C788 H779 0.930 . S
C788 C786 1.378 . S
C788 C789 1.367 . S
C789 C788 1.367 . S
C789 C791 1.433 1_545 S
C790 C786 1.350 . S
C790 C787 1.463 . S
C790 N794 1.427 1_545 S
C791 H781 0.929 . S
C791 C789 1.433 1_565 S
C791 N794 1.384 . S
C792 H783 0.929 . S
C792 C784 1.378 . S
C792 C787 1.350 1_565 S
C793 H780 0.929 . S
C793 C785 1.433 . S
C793 N795 1.384 . S
N794 C790 1.427 1_565 S
N794 C791 1.384 . S
N795 C787 1.427 . S
N795 C793 1.384 . S
H796 C802 0.930 . S
H797 C806 0.930 . S
H798 C811 0.929 . S
H799 C809 0.929 . S
H800 C804 0.929 . S
H801 C810 0.929 . S
C802 H796 0.930 . S
C802 C803 1.367 . S
C802 C810 1.378 . S
C803 C802 1.367 . S
C803 C811 1.433 . S
C804 H800 0.929 . S
C804 C806 1.378 . S
C804 C808 1.350 . S
C805 C808 1.463 . S
C805 C810 1.350 . S
C805 N813 1.427 . S
C806 H797 0.930 . S
C806 C804 1.378 . S
C806 C807 1.367 . S
C807 C806 1.367 . S
C807 C809 1.433 . S
C808 C804 1.350 . S
C808 C805 1.463 . S
C808 N812 1.427 . S
C809 H799 0.929 . S
C809 C807 1.433 . S
C809 N812 1.384 . S
C810 H801 0.929 . S
C810 C802 1.378 . S
C810 C805 1.350 . S
C811 H798 0.929 . S
C811 C803 1.433 . S
C811 N813 1.384 . S
N812 C808 1.427 . S
N812 C809 1.384 . S
N813 C805 1.427 . S
N813 C811 1.384 . S
H814 C820 0.930 . S
H815 C824 0.930 . S
H816 C829 0.929 . S
H817 C827 0.929 . S
H818 C822 0.929 . S
H819 C828 0.929 . S
C820 H814 0.930 . S
C820 C821 1.367 . S
C820 C828 1.378 . S
C821 C820 1.367 . S
C821 C829 1.433 . S
C822 H818 0.929 . S
C822 C824 1.378 . S
C822 C826 1.350 . S
C823 C826 1.463 . S
C823 C828 1.350 . S
C823 N831 1.427 . S
C824 H815 0.930 . S
C824 C822 1.378 . S
C824 C825 1.367 . S
C825 C824 1.367 . S
C825 C827 1.433 . S
C826 C822 1.350 . S
C826 C823 1.463 . S
C826 N830 1.427 . S
C827 H817 0.929 . S
C827 C825 1.433 . S
C827 N830 1.384 . S
C828 H819 0.929 . S
C828 C820 1.378 . S
C828 C823 1.350 . S
C829 H816 0.929 . S
C829 C821 1.433 . S
C829 N831 1.384 . S
N830 C826 1.427 . S
N830 C827 1.384 . S
N831 C823 1.427 . S
N831 C829 1.384 . S
H832 C838 0.930 . S
H833 C842 0.930 . S
H834 C847 0.929 . S
H835 C845 0.949 . S
H836 C840 0.929 . S
H837 C846 0.929 . S
C838 H832 0.930 . S
C838 C839 1.367 1_455 S
C838 C846 1.378 . S
C839 C838 1.367 1_655 S
C839 C847 1.433 . S
C840 H836 0.929 . S
C840 C842 1.378 . S
C840 C844 1.350 . S
C841 C844 1.463 . S
C841 C846 1.350 1_655 S
C841 N849 1.427 . S
C842 H833 0.930 . S
C842 C840 1.378 . S
C842 C843 1.367 . S
C843 C842 1.367 . S
C843 C845 1.412 1_655 S
C844 C840 1.350 . S
C844 C841 1.463 . S
C844 N848 1.427 1_655 S
C845 H835 0.949 . S
C845 C843 1.412 1_455 S
C845 N848 1.387 . S
C846 H837 0.929 . S
C846 C838 1.378 . S
C846 C841 1.350 1_455 S
C847 H834 0.929 . S
C847 C839 1.433 . S
C847 N849 1.384 . S
N848 C844 1.427 1_455 S
N848 C845 1.387 . S
N849 C841 1.427 . S
N849 C847 1.384 . S
H850 C856 0.927 1_545 S
H851 C860 0.930 . S
H852 C865 0.929 . S
H853 C863 0.929 . S
H854 C858 0.929 . S
H855 C864 0.932 . S
C856 H850 0.927 1_565 S
C856 C857 1.369 . S
C856 C864 1.380 . S
C857 C856 1.369 . S
C857 C865 1.433 . S
C858 H854 0.929 . S
C858 C860 1.378 . S
C858 C862 1.350 . S
C859 C862 1.463 . S
C859 C864 1.350 . S
C859 N867 1.427 . S
C860 H851 0.930 . S
C860 C858 1.378 . S
C860 C861 1.367 . S
C861 C860 1.367 . S
C861 C863 1.433 . S
C862 C858 1.350 . S
C862 C859 1.463 . S
C862 N866 1.427 . S
C863 H853 0.929 . S
C863 C861 1.433 . S
C863 N866 1.384 . S
C864 H855 0.932 . S
C864 C856 1.380 . S
C864 C859 1.350 . S
C865 H852 0.929 . S
C865 C857 1.433 . S
C865 N867 1.384 . S
N866 C862 1.427 . S
N866 C863 1.384 . S
N867 C859 1.427 . S
N867 C865 1.384 . S
H868 C874 0.930 . S
H869 C878 0.930 . S
H870 C883 0.929 . S
H871 C881 0.929 . S
H872 C876 0.929 . S
H873 C882 0.929 . S
C874 H868 0.930 . S
C874 C875 1.367 . S
C874 C882 1.378 . S
C875 C874 1.367 . S
C875 C883 1.433 . S
C876 H872 0.929 . S
C876 C878 1.378 . S
C876 C880 1.350 . S
C877 C880 1.463 . S
C877 C882 1.350 . S
C877 N885 1.427 . S
C878 H869 0.930 . S
C878 C876 1.378 . S
C878 C879 1.367 . S
C879 C878 1.367 . S
C879 C881 1.433 . S
C880 C876 1.350 . S
C880 C877 1.463 . S
C880 N884 1.427 . S
C881 H871 0.929 . S
C881 C879 1.433 . S
C881 N884 1.384 . S
C882 H873 0.929 . S
C882 C874 1.378 . S
C882 C877 1.350 . S
C883 H870 0.929 . S
C883 C875 1.433 . S
C883 N885 1.384 . S
N884 C880 1.427 . S
N884 C881 1.384 . S
N885 C877 1.427 . S
N885 C883 1.384 . S
H886 C892 0.930 . S
H887 C896 0.930 . S
H888 C901 0.929 . S
H889 C899 0.929 . S
H890 C894 0.929 . S
H891 C900 0.929 . S
C892 H886 0.930 . S
C892 C893 1.367 . S
C892 C900 1.378 . S
C893 C892 1.367 . S
C893 C901 1.433 . S
C894 H890 0.929 . S
C894 C896 1.378 . S
C894 C898 1.350 . S
C895 C898 1.463 . S
C895 C900 1.350 . S
C895 N903 1.427 . S
C896 H887 0.930 . S
C896 C894 1.378 . S
C896 C897 1.367 . S
C897 C896 1.367 . S
C897 C899 1.433 . S
C898 C894 1.350 . S
C898 C895 1.463 . S
C898 N902 1.427 . S
C899 H889 0.929 . S
C899 C897 1.433 . S
C899 N902 1.384 . S
C900 H891 0.929 . S
C900 C892 1.378 . S
C900 C895 1.350 . S
C901 H888 0.929 . S
C901 C893 1.433 . S
C901 N903 1.384 . S
N902 C898 1.427 . S
N902 C899 1.384 . S
N903 C895 1.427 . S
N903 C901 1.384 . S
C479 C255 2.162 . S
C483 C321 2.351 1_545 S
C501 C361 2.374 . S
C497 C294 2.160 . S
C519 C401 2.365 . S
C515 C177 2.174 . S
C537 C441 2.361 1_455 S
C533 C216 2.176 . S
C555 C330 2.355 1_565 S
C551 C99 2.173 1_545 S
C569 C138 2.151 . S
C573 C370 2.375 . S
C587 C21 2.174 . S
C591 C410 2.362 . S
C605 C60 2.168 . S
C609 C450 2.359 1_655 S
C627 C327 0.436 . S
C623 C196 0.436 1_455 S
C645 C367 0.468 . S
C641 C235 0.459 1_545 S
C663 C407 0.424 . S
C659 C289 0.428 . S
C677 C157 0.404 . S
C681 C447 0.415 . S
C695 C40 0.414 . S
C699 C318 0.444 . S
C717 C358 0.427 . S
C713 C79 0.407 . S
C735 C398 0.456 . S
C731 C133 0.440 . S
C749 C1 0.437 . S
C753 C438 0.465 . S
C767 C211 2.844 . S
C771 C331 3.230 . S
C785 C250 2.818 . S
C789 C371 3.215 . S
C807 C411 3.212 . S
C803 C274 2.811 . S
C825 C451 3.224 . S
C821 C172 2.811 . S
C839 C55 2.831 1_655 S
C843 C322 3.243 . S
C861 C362 3.213 . S
C857 C94 2.806 1_565 S
C879 C402 3.210 . S
C875 C118 2.814 . S
C893 C16 2.818 . S
C897 C442 3.227 . S
