# Generated by pormake.
# Topology nom, (4,4)-cn, num edge types: 1
# Building blocks:
#     Node 0, Type 0, BuildingBlock: NAHDIM_clean_linker_0, # of connection points: 4
#     Node 1, Type 0, BuildingBlock: NAHDIM_clean_linker_0, # of connection points: 4
#     Node 2, Type 0, BuildingBlock: NAHDIM_clean_linker_0, # of connection points: 4
#     Node 3, Type 0, BuildingBlock: NAHDIM_clean_linker_0, # of connection points: 4
#     Node 4, Type 0, BuildingBlock: NAHDIM_clean_linker_0, # of connection points: 4
#     Node 5, Type 0, BuildingBlock: NAHDIM_clean_linker_0, # of connection points: 4
#     Node 6, Type 1, BuildingBlock: AZAVOO_clean_sbu_0, # of connection points: 4
#     Node 7, Type 1, BuildingBlock: AZAVOO_clean_sbu_0, # of connection points: 4
#     Node 8, Type 1, BuildingBlock: AZAVOO_clean_sbu_0, # of connection points: 4
#     Node 9, Type 1, BuildingBlock: AZAVOO_clean_sbu_0, # of connection points: 4
#     Node 10, Type 1, BuildingBlock: AZAVOO_clean_sbu_0, # of connection points: 4
#     Node 11, Type 1, BuildingBlock: AZAVOO_clean_sbu_0, # of connection points: 4
#     Edge 12, Type (0, 1), BuildingBlock: TEMPAE_clean_linker_10, # of connection points: 2
#     Edge 13, Type (0, 1), BuildingBlock: TEMPAE_clean_linker_10, # of connection points: 2
#     Edge 14, Type (0, 1), BuildingBlock: TEMPAE_clean_linker_10, # of connection points: 2
#     Edge 15, Type (0, 1), BuildingBlock: TEMPAE_clean_linker_10, # of connection points: 2
#     Edge 16, Type (0, 1), BuildingBlock: TEMPAE_clean_linker_10, # of connection points: 2
#     Edge 17, Type (0, 1), BuildingBlock: TEMPAE_clean_linker_10, # of connection points: 2
#     Edge 18, Type (0, 1), BuildingBlock: TEMPAE_clean_linker_10, # of connection points: 2
#     Edge 19, Type (0, 1), BuildingBlock: TEMPAE_clean_linker_10, # of connection points: 2
#     Edge 20, Type (0, 1), BuildingBlock: TEMPAE_clean_linker_10, # of connection points: 2
#     Edge 21, Type (0, 1), BuildingBlock: TEMPAE_clean_linker_10, # of connection points: 2
#     Edge 22, Type (0, 1), BuildingBlock: TEMPAE_clean_linker_10, # of connection points: 2
#     Edge 23, Type (0, 1), BuildingBlock: TEMPAE_clean_linker_10, # of connection points: 2
#     Edge 24, Type (0, 1), BuildingBlock: TEMPAE_clean_linker_10, # of connection points: 2
#     Edge 25, Type (0, 1), BuildingBlock: TEMPAE_clean_linker_10, # of connection points: 2
#     Edge 26, Type (0, 1), BuildingBlock: TEMPAE_clean_linker_10, # of connection points: 2
#     Edge 27, Type (0, 1), BuildingBlock: TEMPAE_clean_linker_10, # of connection points: 2
#     Edge 28, Type (0, 1), BuildingBlock: TEMPAE_clean_linker_10, # of connection points: 2
#     Edge 29, Type (0, 1), BuildingBlock: TEMPAE_clean_linker_10, # of connection points: 2
#     Edge 30, Type (0, 1), BuildingBlock: TEMPAE_clean_linker_10, # of connection points: 2
#     Edge 31, Type (0, 1), BuildingBlock: TEMPAE_clean_linker_10, # of connection points: 2
#     Edge 32, Type (0, 1), BuildingBlock: TEMPAE_clean_linker_10, # of connection points: 2
#     Edge 33, Type (0, 1), BuildingBlock: TEMPAE_clean_linker_10, # of connection points: 2
#     Edge 34, Type (0, 1), BuildingBlock: TEMPAE_clean_linker_10, # of connection points: 2
#     Edge 35, Type (0, 1), BuildingBlock: TEMPAE_clean_linker_10, # of connection points: 2
# Relax obj value: 0.096
# Max RMSD: 0.170
# Mean RMSD: 0.147
data_MOF--net-nom--node1-AZAVOO_clean_sbu_0--node2-NAHDIM_clean_linker_0--edge1-TEMPAE_clean_linker_10
_symmetry_space_group_name_H-M    P1
_symmetry_Int_Tables_number       1
_symmetry_cell_setting            triclinic
loop_
_symmetry_equiv_pos_as_xyz
'x, y, z'
_cell_length_a     58.051171
_cell_length_b     58.644612
_cell_length_c     68.684205
_cell_angle_alpha  90.888357
_cell_angle_beta   90.885642
_cell_angle_gamma 120.01434
loop_
_atom_site_label
_atom_site_type_symbol
_atom_site_fract_x
_atom_site_fract_y
_atom_site_fract_z
_atom_type_partial_charge
C0 C 0.14762 0.59066 0.24111 0.0
C1 C 0.15684 0.60593 0.26069 0.0
C2 C 0.11342 0.59347 0.27471 0.0
C3 C 0.10633 0.5674 0.279 0.0
C4 C 0.0808 0.54958 0.28545 0.0
C5 C 0.06199 0.55796 0.28777 0.0
C6 C 0.0692 0.5843 0.28392 0.0
C7 C 0.09489 0.60174 0.27752 0.0
C8 C 0.07379 0.52166 0.2896 0.0
C9 C 0.04965 0.5939 0.28638 0.0
C10 C 0.89597 0.46183 0.18829 0.0
C11 C 0.91122 0.47626 0.20631 0.0
C12 C 0.93589 0.4727 0.23399 0.0
C13 C 0.93874 0.49508 0.24406 0.0
C14 C 0.95548 0.50545 0.26066 0.0
C15 C 0.96975 0.49327 0.26738 0.0
C16 C 0.96636 0.47029 0.25767 0.0
C17 C 0.94929 0.46019 0.24115 0.0
C18 C 0.9584 0.52983 0.27079 0.0
C19 C 0.98119 0.45678 0.26454 0.0
C20 C 0.8842 0.42623 0.3804 0.0
C21 C 0.88703 0.44922 0.37224 0.0
C22 C 0.91218 0.46962 0.36701 0.0
C23 C 0.93467 0.46633 0.36921 0.0
C24 C 0.93173 0.44311 0.37758 0.0
C25 C 0.90656 0.42361 0.38347 0.0
C26 C 0.91458 0.49461 0.35918 0.0
C27 C 0.95508 0.43871 0.38019 0.0
C28 C 0.12191 0.6245 0.42612 0.0
C29 C 0.10854 0.59521 0.4306 0.0
C30 C 0.06286 0.56916 0.41815 0.0
C31 C 0.04309 0.57472 0.41231 0.0
C32 C 0.02422 0.55942 0.39767 0.0
C33 C 0.0248 0.53759 0.38913 0.0
C34 C 0.04394 0.53105 0.39578 0.0
C35 C 0.06292 0.54704 0.41016 0.0
C36 C 0.00399 0.56686 0.39108 0.0
C37 C 0.04448 0.50731 0.38756 0.0
C38 C 0.0346 0.53892 0.2938 0.0
C39 C 0.01547 0.52456 0.2792 0.0
C40 C 0.98946 0.50573 0.28377 0.0
C41 C 0.98241 0.50048 0.30349 0.0
C42 C 0.95686 0.48078 0.30864 0.0
C43 C 0.95007 0.47597 0.32811 0.0
C44 C 0.9683 0.49123 0.34318 0.0
C45 C 0.96133 0.48716 0.36302 0.0
C46 C 0.9801 0.50269 0.37755 0.0
C47 C 0.00584 0.52205 0.37292 0.0
C48 C 0.01318 0.5264 0.3532 0.0
C49 C 0.0389 0.54579 0.34801 0.0
C50 C 0.04604 0.54976 0.32859 0.0
C51 C 0.0276 0.53484 0.31358 0.0
C52 C 0.00146 0.5154 0.31844 0.0
C53 C 0.9943 0.51101 0.33829 0.0
C54 C 0.82326 0.3654 0.37503 0.0
C55 C 0.8375 0.39536 0.37355 0.0
O56 O 0.13757 0.61113 0.26766 0.0
O57 O 0.08132 0.58519 0.43176 0.0
O58 O 0.86012 0.40633 0.38552 0.0
O59 O 0.92084 0.46299 0.21727 0.0
H60 H 0.16067 0.59413 0.27144 0.0
H61 H 0.12935 0.5713 0.24278 0.0
H62 H 0.14325 0.60198 0.23028 0.0
H63 H 0.16328 0.58695 0.23538 0.0
H64 H 0.12043 0.56065 0.27723 0.0
H65 H 0.10052 0.62188 0.27432 0.0
H66 H 0.05684 0.50774 0.27995 0.0
H67 H 0.09075 0.51826 0.28735 0.0
H68 H 0.06735 0.51709 0.30488 0.0
H69 H 0.05853 0.61515 0.28326 0.0
H70 H 0.03214 0.58241 0.27643 0.0
H71 H 0.04237 0.59062 0.3015 0.0
H72 H 0.92658 0.49729 0.20416 0.0
H73 H 0.90822 0.47409 0.17595 0.0
H74 H 0.90046 0.44546 0.18559 0.0
H75 H 0.85757 0.45493 0.19336 0.0
H76 H 0.92811 0.50472 0.23897 0.0
H77 H 0.94686 0.44283 0.23343 0.0
H78 H 0.95361 0.52593 0.2864 0.0
H79 H 0.97935 0.54608 0.27011 0.0
H80 H 0.94525 0.53648 0.26416 0.0
H81 H 0.97544 0.43837 0.256 0.0
H82 H 0.00292 0.47032 0.26327 0.0
H83 H 0.97729 0.45198 0.28015 0.0
H84 H 0.84327 0.39995 0.35807 0.0
H85 H 0.86967 0.45137 0.37028 0.0
H86 H 0.90406 0.40581 0.38996 0.0
H87 H 0.91665 0.49469 0.34314 0.0
H88 H 0.89679 0.49633 0.36233 0.0
H89 H 0.93251 0.51219 0.3655 0.0
H90 H 0.94874 0.4181 0.38405 0.0
H91 H 0.96664 0.4434 0.36665 0.0
H92 H 0.96854 0.45204 0.39202 0.0
H93 H 0.11308 0.58537 0.41846 0.0
H94 H 0.14374 0.63297 0.42487 0.0
H95 H 0.11386 0.62709 0.41207 0.0
H96 H 0.1181 0.63548 0.43777 0.0
H97 H 0.043 0.59161 0.41885 0.0
H98 H 0.07763 0.54216 0.41528 0.0
H99 H 0.00502 0.56964 0.37509 0.0
H100 H 0.98367 0.55064 0.39416 0.0
H101 H 0.00707 0.5852 0.39847 0.0
H102 H 0.05856 0.50319 0.3958 0.0
H103 H 0.02428 0.48965 0.38779 0.0
H104 H 0.05055 0.51068 0.37216 0.0
H105 H 0.02082 0.52829 0.26404 0.0
H106 H 0.9419 0.46871 0.29766 0.0
H107 H 0.93022 0.46029 0.33119 0.0
H108 H 0.97464 0.49953 0.39272 0.0
H109 H 0.05387 0.55808 0.35891 0.0
H110 H 0.06615 0.56486 0.32549 0.0
H111 H 0.81712 0.35945 0.39022 0.0
H112 H 0.80534 0.35601 0.3652 0.0
H113 H 0.8368 0.35808 0.37063 0.0
C114 C 0.44256 0.86945 0.57214 0.0
C115 C 0.42523 0.86144 0.55339 0.0
C116 C 0.43578 0.90519 0.54201 0.0
C117 C 0.46188 0.9133 0.53627 0.0
C118 C 0.47888 0.93923 0.53054 0.0
C119 C 0.46953 0.95733 0.53029 0.0
C120 C 0.44305 0.94905 0.53546 0.0
C121 C 0.42652 0.92305 0.54124 0.0
C122 C 0.50696 0.94741 0.52493 0.0
C123 C 0.43235 0.96778 0.5351 0.0
C124 C 0.57189 0.06479 0.62811 0.0
C125 C 0.56398 0.08488 0.62167 0.0
C126 C 0.56063 0.07931 0.58664 0.0
C127 C 0.5345 0.07301 0.58197 0.0
C128 C 0.52112 0.05746 0.56534 0.0
C129 C 0.53411 0.04779 0.55331 0.0
C130 C 0.56072 0.05458 0.55786 0.0
C131 C 0.57382 0.0707 0.57433 0.0
C132 C 0.49298 0.05109 0.56077 0.0
C133 C 0.57512 0.04435 0.54558 0.0
C134 C 0.58448 0.1465 0.44973 0.0
C135 C 0.55754 0.13682 0.45364 0.0
C136 C 0.54013 0.10974 0.45566 0.0
C137 C 0.54994 0.09207 0.45381 0.0
C138 C 0.57674 0.10165 0.44883 0.0
C139 C 0.59362 0.12882 0.44663 0.0
C140 C 0.51142 0.10008 0.46029 0.0
C141 C 0.58773 0.0833 0.44652 0.0
C142 C 0.40757 0.90397 0.39446 0.0
C143 C 0.43637 0.9177 0.3878 0.0
C144 C 0.45997 0.96287 0.4004 0.0
C145 C 0.45161 0.98036 0.40643 0.0
C146 C 0.46523 0.99899 0.42154 0.0
C147 C 0.4882 0.00056 0.43037 0.0
C148 C 0.49756 0.98382 0.42352 0.0
C149 C 0.48319 0.96498 0.40869 0.0
C150 C 0.45476 0.01661 0.42833 0.0
C151 C 0.52259 0.98565 0.432 0.0
C152 C 0.48766 0.98512 0.5251 0.0
C153 C 0.50207 0.00327 0.54018 0.0
C154 C 0.51952 0.02978 0.53644 0.0
C155 C 0.52278 0.03855 0.51708 0.0
C156 C 0.53986 0.06511 0.51278 0.0
C157 C 0.54322 0.07346 0.49367 0.0
C158 C 0.52947 0.05561 0.47808 0.0
C159 C 0.5327 0.06397 0.4586 0.0
C160 C 0.51914 0.04565 0.44341 0.0
C161 C 0.50191 0.01907 0.44716 0.0
C162 C 0.49792 0.01047 0.46661 0.0
C163 C 0.48013 0.98405 0.47098 0.0
C164 C 0.47666 0.97571 0.49012 0.0
C165 C 0.49081 0.99346 0.50563 0.0
C166 C 0.50853 0.02025 0.50161 0.0
C167 C 0.51199 0.02878 0.48208 0.0
C168 C 0.62673 0.1992 0.47612 0.0
C169 C 0.60365 0.19198 0.46156 0.0
O170 O 0.41901 0.88066 0.5486 0.0
O171 O 0.44557 0.94445 0.38633 0.0
O172 O 0.60205 0.1727 0.44873 0.0
O173 O 0.57326 0.09328 0.60316 0.0
H174 H 0.43611 0.85862 0.54125 0.0
H175 H 0.46183 0.88774 0.57015 0.0
H176 H 0.43225 0.87295 0.58434 0.0
H177 H 0.44692 0.85369 0.57618 0.0
H178 H 0.46931 0.89967 0.53639 0.0
H179 H 0.40632 0.91662 0.5455 0.0
H180 H 0.52132 0.96404 0.53457 0.0
H181 H 0.51131 0.93104 0.52597 0.0
H182 H 0.51024 0.95445 0.50977 0.0
H183 H 0.41095 0.95798 0.5387 0.0
H184 H 0.44383 0.98427 0.54575 0.0
H185 H 0.43492 0.97638 0.52046 0.0
H186 H 0.54185 0.07506 0.6215 0.0
H187 H 0.56461 0.05789 0.64294 0.0
H188 H 0.56288 0.0474 0.61795 0.0
H189 H 0.59387 0.07364 0.6282 0.0
H190 H 0.52462 0.08028 0.59135 0.0
H191 H 0.59409 0.07585 0.57808 0.0
H192 H 0.49088 0.05496 0.54525 0.0
H193 H 0.47915 0.02984 0.56309 0.0
H194 H 0.48691 0.06272 0.5701 0.0
H195 H 0.59486 0.04955 0.55203 0.0
H196 H 0.56295 0.02259 0.54379 0.0
H197 H 0.57809 0.05273 0.53084 0.0
H198 H 0.58547 0.1845 0.47037 0.0
H199 H 0.55005 0.15033 0.45513 0.0
H200 H 0.61434 0.13648 0.44321 0.0
H201 H 0.50767 0.09284 0.47539 0.0
H202 H 0.50617 0.11581 0.45902 0.0
H203 H 0.49807 0.08331 0.45035 0.0
H204 H 0.60899 0.09384 0.4425 0.0
H205 H 0.58579 0.07302 0.46035 0.0
H206 H 0.57602 0.06803 0.43509 0.0
H207 H 0.44835 0.91418 0.39891 0.0
H208 H 0.39985 0.88252 0.39595 0.0
H209 H 0.40658 0.91228 0.40885 0.0
H210 H 0.39467 0.90686 0.38383 0.0
H211 H 0.43388 0.9788 0.39964 0.0
H212 H 0.49017 0.95204 0.40345 0.0
H213 H 0.45182 0.01502 0.44429 0.0
H214 H 0.46957 0.03743 0.42542 0.0
H215 H 0.43561 0.01164 0.4209 0.0
H216 H 0.52919 0.97393 0.4233 0.0
H217 H 0.53892 0.00651 0.43282 0.0
H218 H 0.51895 0.97823 0.44705 0.0
H219 H 0.49966 0.99664 0.55506 0.0
H220 H 0.5509 0.07975 0.52417 0.0
H221 H 0.55682 0.09413 0.49128 0.0
H222 H 0.52193 0.0522 0.4285 0.0
H223 H 0.46867 0.96949 0.45966 0.0
H224 H 0.46278 0.95513 0.49259 0.0
H225 H 0.64595 0.20766 0.46853 0.0
H226 H 0.62768 0.21337 0.48747 0.0
H227 H 0.62356 0.18122 0.48359 0.0
C228 C 0.60203 0.44537 0.69802 0.0
C229 C 0.5836 0.42581 0.68204 0.0
C230 C 0.55143 0.44121 0.67753 0.0
C231 C 0.56887 0.46496 0.66858 0.0
C232 C 0.56109 0.48355 0.66456 0.0
C233 C 0.53513 0.47801 0.66911 0.0
C234 C 0.51728 0.45383 0.67761 0.0
C235 C 0.52573 0.43577 0.68174 0.0
C236 C 0.58069 0.50925 0.65558 0.0
C237 C 0.48938 0.4472 0.68244 0.0
C238 C 0.57708 0.6045 0.77456 0.0
C239 C 0.54987 0.58937 0.76414 0.0
C240 C 0.54321 0.58455 0.72886 0.0
C241 C 0.51925 0.56045 0.7277 0.0
C242 C 0.51157 0.54484 0.71052 0.0
C243 C 0.52849 0.55334 0.69435 0.0
C244 C 0.55223 0.57815 0.69533 0.0
C245 C 0.55891 0.59371 0.71248 0.0
C246 C 0.48584 0.51883 0.70992 0.0
C247 C 0.57124 0.58775 0.67868 0.0
C248 C 0.47253 0.60894 0.58992 0.0
C249 C 0.45385 0.58627 0.59933 0.0
C250 C 0.459 0.56573 0.60303 0.0
C251 C 0.48377 0.56842 0.59784 0.0
C252 C 0.50253 0.59127 0.58821 0.0
C253 C 0.49636 0.61097 0.58401 0.0
C254 C 0.43795 0.54119 0.61247 0.0
C255 C 0.52922 0.59508 0.58252 0.0
C256 C 0.50617 0.40898 0.53918 0.0
C257 C 0.52315 0.43829 0.53502 0.0
C258 C 0.5042 0.46542 0.54425 0.0
C259 C 0.47889 0.45964 0.54995 0.0
C260 C 0.47578 0.47518 0.56429 0.0
C261 C 0.4986 0.49736 0.57261 0.0
C262 C 0.52414 0.50438 0.56572 0.0
C263 C 0.52667 0.48816 0.55171 0.0
C264 C 0.44829 0.46725 0.57117 0.0
C265 C 0.54888 0.52848 0.57366 0.0
C266 C 0.52683 0.4977 0.6652 0.0
C267 C 0.5294 0.51495 0.68039 0.0
C268 C 0.52326 0.5349 0.67759 0.0
C269 C 0.51407 0.53768 0.65904 0.0
C270 C 0.50753 0.55737 0.65562 0.0
C271 C 0.49965 0.56061 0.63708 0.0
C272 C 0.4976 0.54401 0.6213 0.0
C273 C 0.49007 0.54735 0.60229 0.0
C274 C 0.48964 0.53129 0.58681 0.0
C275 C 0.49624 0.51171 0.5898 0.0
C276 C 0.50244 0.50721 0.60882 0.0
C277 C 0.50783 0.48676 0.61244 0.0
C278 C 0.51529 0.48328 0.63096 0.0
C279 C 0.51789 0.50025 0.64657 0.0
C280 C 0.51169 0.52045 0.64343 0.0
C281 C 0.50367 0.52375 0.62454 0.0
C282 C 0.47253 0.66903 0.59882 0.0
C283 C 0.45685 0.63894 0.59913 0.0
O284 O 0.55851 0.42317 0.6826 0.0
O285 O 0.50653 0.44859 0.53175 0.0
O286 O 0.46808 0.62909 0.58626 0.0
O287 O 0.55193 0.59924 0.74563 0.0
H288 H 0.59221 0.43286 0.66751 0.0
H289 H 0.60507 0.46535 0.69574 0.0
H290 H 0.59341 0.43891 0.71261 0.0
H291 H 0.62187 0.44682 0.69786 0.0
H292 H 0.58867 0.46933 0.66485 0.0
H293 H 0.51234 0.41734 0.68851 0.0
H294 H 0.58264 0.52607 0.66456 0.0
H295 H 0.60071 0.51136 0.65419 0.0
H296 H 0.57325 0.51047 0.64088 0.0
H297 H 0.47735 0.42685 0.68778 0.0
H298 H 0.4902 0.46124 0.69383 0.0
H299 H 0.4792 0.44932 0.66935 0.0
H300 H 0.54457 0.56829 0.76321 0.0
H301 H 0.5763 0.59661 0.78929 0.0
H302 H 0.59207 0.60236 0.76609 0.0
H303 H 0.58356 0.62579 0.77601 0.0
H304 H 0.50667 0.55375 0.74026 0.0
H305 H 0.57721 0.61254 0.71353 0.0
H306 H 0.47512 0.51577 0.69573 0.0
H307 H 0.49031 0.50262 0.7115 0.0
H308 H 0.47257 0.51756 0.72185 0.0
H309 H 0.59017 0.60603 0.68264 0.0
H310 H 0.57591 0.57235 0.67394 0.0
H311 H 0.56185 0.59187 0.66606 0.0
H312 H 0.45875 0.63335 0.61427 0.0
H313 H 0.4351 0.58447 0.60349 0.0
H314 H 0.51051 0.6285 0.57661 0.0
H315 H 0.44403 0.54098 0.62783 0.0
H316 H 0.41832 0.5402 0.61237 0.0
H317 H 0.43569 0.52329 0.60489 0.0
H318 H 0.54301 0.61552 0.57799 0.0
H319 H 0.53866 0.59042 0.59485 0.0
H320 H 0.5264 0.58142 0.57017 0.0
H321 H 0.53627 0.44788 0.54814 0.0
H322 H 0.51906 0.40032 0.54204 0.0
H323 H 0.49416 0.40637 0.55227 0.0
H324 H 0.49242 0.39818 0.52665 0.0
H325 H 0.46165 0.44221 0.54381 0.0
H326 H 0.54619 0.49303 0.54672 0.0
H327 H 0.44716 0.46331 0.587 0.0
H328 H 0.44424 0.48367 0.56909 0.0
H329 H 0.43257 0.44941 0.56327 0.0
H330 H 0.56635 0.53378 0.56447 0.0
H331 H 0.5456 0.54557 0.5747 0.0
H332 H 0.55358 0.52464 0.58855 0.0
H333 H 0.53687 0.51317 0.69454 0.0
H334 H 0.50874 0.57067 0.66722 0.0
H335 H 0.49538 0.57643 0.63525 0.0
H336 H 0.48473 0.53448 0.57218 0.0
H337 H 0.50645 0.47324 0.60096 0.0
H338 H 0.51934 0.46731 0.63284 0.0
H339 H 0.47175 0.67603 0.58401 0.0
H340 H 0.46429 0.6775 0.60934 0.0
H341 H 0.49368 0.67629 0.60304 0.0
C342 C 0.14675 0.51515 0.92203 0.0
C343 C 0.15134 0.53212 0.90416 0.0
C344 C 0.114 0.51734 0.8809 0.0
C345 C 0.1161 0.54154 0.8764 0.0
C346 C 0.09423 0.54249 0.86832 0.0
C347 C 0.06984 0.51877 0.86486 0.0
C348 C 0.06804 0.49432 0.86884 0.0
C349 C 0.09039 0.49396 0.87646 0.0
C350 C 0.09702 0.56885 0.86384 0.0
C351 C 0.04228 0.46861 0.8657 0.0
C352 C 0.99666 0.57548 0.96752 0.0
C353 C 0.98318 0.54926 0.95605 0.0
C354 C 0.98073 0.54489 0.92073 0.0
C355 C 0.97726 0.51957 0.91847 0.0
C356 C 0.9844 0.51188 0.90119 0.0
C357 C 0.99586 0.53018 0.88611 0.0
C358 C 0.99846 0.55545 0.88815 0.0
C359 C 0.99022 0.56222 0.90532 0.0
C360 C 0.98057 0.48451 0.89938 0.0
C361 C 0.01113 0.57577 0.87266 0.0
C362 C 0.88344 0.48146 0.77924 0.0
C363 C 0.88662 0.46329 0.79033 0.0
C364 C 0.91208 0.46728 0.79477 0.0
C365 C 0.93482 0.49048 0.78863 0.0
C366 C 0.93158 0.50877 0.77738 0.0
C367 C 0.90586 0.5037 0.77251 0.0
C368 C 0.91455 0.44655 0.80586 0.0
C369 C 0.95525 0.53374 0.77058 0.0
C370 C 0.08655 0.46225 0.71829 0.0
C371 C 0.08039 0.4846 0.72061 0.0
C372 C 0.04028 0.4792 0.73526 0.0
C373 C 0.01813 0.45829 0.74352 0.0
C374 C 0.00522 0.46265 0.75902 0.0
C375 C 0.01415 0.48875 0.76583 0.0
C376 C 0.03578 0.51013 0.75676 0.0
C377 C 0.04892 0.50507 0.74176 0.0
C378 C 0.98228 0.4393 0.76825 0.0
C379 C 0.04508 0.53831 0.76289 0.0
C380 C 0.04558 0.51955 0.85887 0.0
C381 C 0.03245 0.52516 0.87338 0.0
C382 C 0.00824 0.5241 0.86953 0.0
C383 C 0.9966 0.51718 0.85056 0.0
C384 C 0.97185 0.51507 0.84624 0.0
C385 C 0.96061 0.50823 0.82751 0.0
C386 C 0.97351 0.50288 0.81243 0.0
C387 C 0.96192 0.49519 0.79347 0.0
C388 C 0.97579 0.49103 0.77868 0.0
C389 C 0.00075 0.49363 0.78233 0.0
C390 C 0.0122 0.50025 0.80138 0.0
C391 C 0.03671 0.50185 0.80582 0.0
C392 C 0.04782 0.50841 0.82459 0.0
C393 C 0.03474 0.51341 0.83968 0.0
C394 C 0.01005 0.51204 0.83554 0.0
C395 C 0.99862 0.50515 0.81642 0.0
C396 C 0.82155 0.48137 0.78322 0.0
C397 C 0.83737 0.4673 0.7866 0.0
O398 O 0.13444 0.51578 0.88927 0.0
O399 O 0.05305 0.47391 0.72108 0.0
O400 O 0.85907 0.47796 0.77459 0.0
O401 O 0.97561 0.55329 0.93775 0.0
H402 H 0.14657 0.54769 0.9083 0.0
H403 H 0.12526 0.50453 0.92542 0.0
H404 H 0.15304 0.50037 0.91918 0.0
H405 H 0.15784 0.52742 0.93506 0.0
H406 H 0.13478 0.55963 0.87914 0.0
H407 H 0.08923 0.47539 0.87974 0.0
H408 H 0.08557 0.57343 0.87446 0.0
H409 H 0.1181 0.585 0.86467 0.0
H410 H 0.08863 0.56821 0.84907 0.0
H411 H 0.04369 0.45152 0.87098 0.0
H412 H 0.02596 0.46937 0.87336 0.0
H413 H 0.03682 0.46533 0.84994 0.0
H414 H 0.9982 0.54279 0.95473 0.0
H415 H 0.00364 0.5731 0.9821 0.0
H416 H 0.01419 0.59027 0.95957 0.0
H417 H 0.98265 0.58302 0.9694 0.0
H418 H 0.9692 0.50593 0.93029 0.0
H419 H 0.99251 0.58163 0.90723 0.0
H420 H 0.97295 0.47594 0.88455 0.0
H421 H 3e-05 0.48554 0.90176 0.0
H422 H 0.96656 0.47114 0.91027 0.0
H423 H 0.01379 0.5952 0.87728 0.0
H424 H 0.03087 0.57835 0.86906 0.0
H425 H 0.9985 0.56896 0.85917 0.0
H426 H 0.84444 0.47118 0.80214 0.0
H427 H 0.86924 0.44572 0.7952 0.0
H428 H 0.90311 0.51746 0.7638 0.0
H429 H 0.92137 0.45374 0.82105 0.0
H430 H 0.89529 0.42777 0.80633 0.0
H431 H 0.92951 0.44253 0.79916 0.0
H432 H 0.94941 0.54765 0.76455 0.0
H433 H 0.96986 0.54378 0.78279 0.0
H434 H 0.96532 0.52877 0.75904 0.0
H435 H 0.08984 0.495 0.73475 0.0
H436 H 0.10841 0.47025 0.71819 0.0
H437 H 0.07838 0.44873 0.73068 0.0
H438 H 0.07746 0.45079 0.70451 0.0
H439 H 0.01154 0.43841 0.7382 0.0
H440 H 0.06574 0.52126 0.73496 0.0
H441 H 0.98496 0.44082 0.78436 0.0
H442 H 0.96349 0.43914 0.76466 0.0
H443 H 0.98019 0.4203 0.76306 0.0
H444 H 0.05886 0.5525 0.75228 0.0
H445 H 0.02782 0.54141 0.76449 0.0
H446 H 0.05566 0.54272 0.77725 0.0
H447 H 0.04103 0.53 0.88806 0.0
H448 H 0.9609 0.51865 0.85733 0.0
H449 H 0.9416 0.50709 0.825 0.0
H450 H 0.96688 0.48539 0.76414 0.0
H451 H 0.04758 0.49795 0.79484 0.0
H452 H 0.06678 0.50946 0.82716 0.0
H453 H 0.80442 0.47384 0.7931 0.0
H454 H 0.83451 0.50284 0.78624 0.0
H455 H 0.814 0.47835 0.76788 0.0
C456 C 0.46379 0.88839 0.90955 0.0
C457 C 0.45551 0.87359 0.92873 0.0
C458 C 0.48067 0.91135 0.95065 0.0
C459 C 0.46068 0.9167 0.95626 0.0
C460 C 0.46702 0.94219 0.96229 0.0
C461 C 0.49388 0.96275 0.96254 0.0
C462 C 0.51417 0.95717 0.95761 0.0
C463 C 0.50728 0.93134 0.95202 0.0
C464 C 0.44494 0.9473 0.9679 0.0
C465 C 0.54297 0.97866 0.95753 0.0
C466 C 0.45414 0.04369 0.85415 0.0
C467 C 0.48044 0.05615 0.86584 0.0
C468 C 0.48389 0.05755 0.90127 0.0
C469 C 0.50832 0.05838 0.90361 0.0
C470 C 0.51496 0.05065 0.92108 0.0
C471 C 0.49653 0.04147 0.93633 0.0
C472 C 0.47219 0.04142 0.93416 0.0
C473 C 0.46649 0.05007 0.91676 0.0
C474 C 0.54133 0.05156 0.92302 0.0
C475 C 0.45172 0.03121 0.94984 0.0
C476 C 0.5485 0.15826 0.03937 0.0
C477 C 0.56735 0.15459 0.02938 0.0
C478 C 0.56336 0.12919 0.02593 0.0
C479 C 0.53955 0.10703 0.03197 0.0
C480 C 0.52065 0.11079 0.04219 0.0
C481 C 0.52568 0.13645 0.04608 0.0
C482 C 0.58463 0.1261 0.0159 0.0
C483 C 0.49504 0.08773 0.04888 0.0
C484 C 0.56211 0.95435 0.10262 0.0
C485 C 0.53948 0.96052 0.10127 0.0
C486 C 0.54582 0.00128 0.08842 0.0
C487 C 0.56759 0.02196 0.07964 0.0
C488 C 0.56394 0.03519 0.0641 0.0
C489 C 0.53779 0.02806 0.05778 0.0
C490 C 0.51567 0.00816 0.06753 0.0
C491 C 0.51995 0.99463 0.08254 0.0
C492 C 0.58803 0.05632 0.05417 0.0
C493 C 0.48753 0.00092 0.06194 0.0
C494 C 0.50035 0.99032 0.96643 0.0
C495 C 0.4968 0.00363 0.95104 0.0
C496 C 0.50144 0.02928 0.95354 0.0
C497 C 0.50989 0.04221 0.972 0.0
C498 C 0.5146 0.06794 0.97513 0.0
C499 C 0.52233 0.08023 0.99347 0.0
C500 C 0.52634 0.06751 0.00928 0.0
C501 C 0.53456 0.07994 0.02793 0.0
C502 C 0.538 0.06654 0.04335 0.0
C503 C 0.53363 0.04099 0.04072 0.0
C504 C 0.52567 0.02832 0.02214 0.0
C505 C 0.52144 0.00274 0.01888 0.0
C506 C 0.51294 0.99017 0.00071 0.0
C507 C 0.50897 0.00292 0.98495 0.0
C508 C 0.51365 0.02893 0.98776 0.0
C509 C 0.52192 0.04161 0.0064 0.0
C510 C 0.54855 0.2189 0.03184 0.0
C511 C 0.5633 0.20346 0.03042 0.0
O512 O 0.47478 0.88741 0.94319 0.0
O513 O 0.55015 0.98758 0.10228 0.0
O514 O 0.55183 0.18256 0.04293 0.0
O515 O 0.47639 0.06352 0.88418 0.0
H516 H 0.43621 0.87157 0.93305 0.0
H517 H 0.46547 0.90803 0.91132 0.0
H518 H 0.48333 0.8912 0.90505 0.0
H519 H 0.44868 0.8773 0.89781 0.0
H520 H 0.44011 0.90106 0.95587 0.0
H521 H 0.52255 0.9269 0.9478 0.0
H522 H 0.4425 0.95936 0.95664 0.0
H523 H 0.42562 0.92877 0.96928 0.0
H524 H 0.45007 0.95864 0.98194 0.0
H525 H 0.55629 0.97119 0.95287 0.0
H526 H 0.54531 0.99436 0.94756 0.0
H527 H 0.54943 0.98777 0.97234 0.0
H528 H 0.48632 0.04078 0.86701 0.0
H529 H 0.45654 0.03695 0.8395 0.0
H530 H 0.43875 0.02635 0.86184 0.0
H531 H 0.44712 0.05806 0.85241 0.0
H532 H 0.52212 0.06493 0.89176 0.0
H533 H 0.4478 0.04981 0.9148 0.0
H534 H 0.55094 0.0602 0.93744 0.0
H535 H 0.53798 0.03121 0.92203 0.0
H536 H 0.55514 0.06323 0.9114 0.0
H537 H 0.43289 0.03036 0.94516 0.0
H538 H 0.44717 0.01117 0.95397 0.0
H539 H 0.45975 0.0442 0.96304 0.0
H540 H 0.56063 0.19581 0.01509 0.0
H541 H 0.58538 0.17153 0.02458 0.0
H542 H 0.51141 0.13958 0.05395 0.0
H543 H 0.57778 0.11835 0.00081 0.0
H544 H 0.60361 0.14511 0.01517 0.0
H545 H 0.58847 0.11178 0.02361 0.0
H546 H 0.48097 0.09387 0.05429 0.0
H547 H 0.48515 0.07303 0.03676 0.0
H548 H 0.4995 0.07789 0.06083 0.0
H549 H 0.52914 0.95243 0.08687 0.0
H550 H 0.55406 0.93272 0.10162 0.0
H551 H 0.57583 0.96355 0.09041 0.0
H552 H 0.5736 0.96219 0.11658 0.0
H553 H 0.58748 0.027 0.08449 0.0
H554 H 0.50319 0.97887 0.08973 0.0
H555 H 0.58599 0.0525 0.03817 0.0
H556 H 0.5895 0.07572 0.05691 0.0
H557 H 0.60679 0.05753 0.05948 0.0
H558 H 0.4732 0.98896 0.07321 0.0
H559 H 0.48613 0.0189 0.05967 0.0
H560 H 0.48151 0.98924 0.04806 0.0
H561 H 0.49002 0.99371 0.93689 0.0
H562 H 0.51212 0.07879 0.96345 0.0
H563 H 0.52522 0.09989 0.99508 0.0
H564 H 0.54419 0.07616 0.05762 0.0
H565 H 0.52446 0.99203 0.03039 0.0
H566 H 0.50964 0.97035 0.99913 0.0
H567 H 0.5568 0.23541 0.02154 0.0
H568 H 0.52713 0.20572 0.02803 0.0
H569 H 0.5503 0.22698 0.04689 0.0
C570 C 0.57425 0.45848 0.07573 0.0
C571 C 0.58888 0.46485 0.09562 0.0
C572 C 0.57892 0.49858 0.10782 0.0
C573 C 0.55226 0.48117 0.11236 0.0
C574 C 0.53522 0.49066 0.11746 0.0
C575 C 0.54496 0.51812 0.11806 0.0
C576 C 0.5719 0.53575 0.11396 0.0
C577 C 0.58859 0.52571 0.10902 0.0
C578 C 0.50666 0.47128 0.12202 0.0
C579 C 0.58292 0.56513 0.11464 0.0
C580 C 0.39293 0.51098 0.03742 0.0
C581 C 0.4216 0.52744 0.03043 0.0
C582 C 0.45015 0.54289 0.06014 0.0
C583 C 0.46843 0.56531 0.0709 0.0
C584 C 0.48237 0.56349 0.08713 0.0
C585 C 0.47719 0.5384 0.09314 0.0
C586 C 0.45851 0.51554 0.08244 0.0
C587 C 0.44547 0.51804 0.06592 0.0
C588 C 0.50275 0.58843 0.09773 0.0
C589 C 0.4523 0.48841 0.08838 0.0
C590 C 0.40121 0.55933 0.20215 0.0
C591 C 0.42412 0.58021 0.19433 0.0
C592 C 0.44618 0.57742 0.19005 0.0
C593 C 0.44481 0.5529 0.19294 0.0
C594 C 0.42172 0.5319 0.20093 0.0
C595 C 0.40044 0.53563 0.2058 0.0
C596 C 0.47093 0.60073 0.18252 0.0
C597 C 0.41938 0.50543 0.20421 0.0
C598 C 0.61535 0.55589 0.25781 0.0
C599 C 0.5864 0.53375 0.25885 0.0
C600 C 0.55338 0.5443 0.24755 0.0
C601 C 0.55635 0.5681 0.24125 0.0
C602 C 0.54054 0.56859 0.22578 0.0
C603 C 0.52078 0.54455 0.21694 0.0
C604 C 0.51672 0.52031 0.22411 0.0
C605 C 0.53338 0.52049 0.23921 0.0
C606 C 0.54536 0.59477 0.2186 0.0
C607 C 0.49511 0.49428 0.21564 0.0
C608 C 0.52655 0.52806 0.12253 0.0
C609 C 0.51208 0.5305 0.10705 0.0
C610 C 0.49168 0.5361 0.11036 0.0
C611 C 0.4852 0.53894 0.12969 0.0
C612 C 0.46342 0.54238 0.13368 0.0
C613 C 0.45736 0.54536 0.15275 0.0
C614 C 0.47315 0.54553 0.16856 0.0
C615 C 0.46761 0.54923 0.18799 0.0
C616 C 0.48358 0.54897 0.20333 0.0
C617 C 0.50487 0.54481 0.1999 0.0
C618 C 0.5107 0.54101 0.18061 0.0
C619 C 0.53191 0.53664 0.17663 0.0
C620 C 0.53702 0.53219 0.15764 0.0
C621 C 0.52165 0.53276 0.14185 0.0
C622 C 0.50067 0.5379 0.14546 0.0
C623 C 0.49488 0.54156 0.16489 0.0
C624 C 0.33972 0.55989 0.19609 0.0
C625 C 0.3701 0.57487 0.19566 0.0
O626 O 0.59579 0.49012 0.102 0.0
O627 O 0.5703 0.54468 0.2615 0.0
O628 O 0.37965 0.56148 0.20649 0.0
O629 O 0.43751 0.54622 0.04449 0.0
H630 H 0.57584 0.45037 0.10641 0.0
H631 H 0.55548 0.45903 0.07676 0.0
H632 H 0.58694 0.47299 0.06485 0.0
H633 H 0.56904 0.4384 0.07048 0.0
H634 H 0.54443 0.46013 0.11184 0.0
H635 H 0.6092 0.53904 0.10565 0.0
H636 H 0.49312 0.47346 0.11161 0.0
H637 H 0.50224 0.45053 0.12122 0.0
H638 H 0.50223 0.47553 0.13687 0.0
H639 H 0.60445 0.57627 0.11142 0.0
H640 H 0.5719 0.57031 0.1039 0.0
H641 H 0.57998 0.57141 0.12928 0.0
H642 H 0.42937 0.51383 0.02751 0.0
H643 H 0.37985 0.49733 0.02555 0.0
H644 H 0.39212 0.49894 0.04996 0.0
H645 H 0.38492 0.52376 0.04219 0.0
H646 H 0.47203 0.58441 0.06635 0.0
H647 H 0.43157 0.50039 0.05778 0.0
H648 H 0.49513 0.58987 0.11214 0.0
H649 H 0.52151 0.58809 0.10031 0.0
H650 H 0.50729 0.60633 0.08954 0.0
H651 H 0.43411 0.4726 0.08079 0.0
H652 H 0.46925 0.48554 0.08471 0.0
H653 H 0.44958 0.48626 0.10435 0.0
H654 H 0.37554 0.57507 0.18013 0.0
H655 H 0.42501 0.59882 0.19189 0.0
H656 H 0.38271 0.51975 0.21201 0.0
H657 H 0.47255 0.59758 0.16675 0.0
H658 H 0.47058 0.6194 0.18449 0.0
H659 H 0.48898 0.60287 0.19009 0.0
H660 H 0.39881 0.49018 0.20782 0.0
H661 H 0.42542 0.49869 0.19105 0.0
H662 H 0.43296 0.50724 0.21645 0.0
H663 H 0.58124 0.52236 0.24474 0.0
H664 H 0.62864 0.5476 0.25546 0.0
H665 H 0.61748 0.56874 0.24545 0.0
H666 H 0.62171 0.56812 0.27148 0.0
H667 H 0.57178 0.58634 0.248 0.0
H668 H 0.53091 0.50211 0.24452 0.0
H669 H 0.54871 0.59593 0.20268 0.0
H670 H 0.5275 0.5966 0.22108 0.0
H671 H 0.56278 0.61166 0.22609 0.0
H672 H 0.49193 0.47749 0.22473 0.0
H673 H 0.47607 0.49435 0.21417 0.0
H674 H 0.50064 0.49111 0.20087 0.0
H675 H 0.51633 0.52736 0.09224 0.0
H676 H 0.45069 0.54262 0.1221 0.0
H677 H 0.44023 0.54771 0.15492 0.0
H678 H 0.47925 0.55184 0.21819 0.0
H679 H 0.54466 0.53633 0.18816 0.0
H680 H 0.55337 0.52859 0.15547 0.0
H681 H 0.33149 0.56991 0.18713 0.0
H682 H 0.33182 0.53959 0.19002 0.0
H683 H 0.33288 0.55861 0.21127 0.0
Mg684 Mg 0.62445 0.39995 0.38057 0.0
O685 O 0.61707 0.41651 0.40865 0.0
O686 O 0.64186 0.46036 0.40853 0.0
Mg687 Mg 0.66463 0.47164 0.37995 0.0
C688 C 0.625 0.43914 0.41659 0.0
C689 C 0.61691 0.34572 0.38717 0.0
O690 O 0.63348 0.35483 0.37272 0.0
O691 O 0.66529 0.40962 0.3915 0.0
O692 O 0.69034 0.45315 0.38878 0.0
O693 O 0.59135 0.4023 0.36537 0.0
O694 O 0.63339 0.43413 0.36631 0.0
C695 C 0.6878 0.43075 0.39267 0.0
C696 C 0.60913 0.42602 0.3609 0.0
O697 O 0.60738 0.35955 0.3938 0.0
Mg698 Mg 0.23416 0.62794 0.59588 0.0
O699 O 0.21076 0.61322 0.56692 0.0
O700 O 0.19342 0.56961 0.56477 0.0
Mg701 Mg 0.20495 0.55649 0.59285 0.0
C702 C 0.19705 0.59118 0.55776 0.0
C703 C 0.27763 0.68506 0.59467 0.0
O704 O 0.28386 0.67573 0.60989 0.0
O705 O 0.26688 0.6214 0.58456 0.0
O706 O 0.24957 0.57781 0.58518 0.0
O707 O 0.19786 0.6222 0.61119 0.0
O708 O 0.20971 0.59198 0.60834 0.0
C709 C 0.26908 0.60094 0.58243 0.0
C710 C 0.19295 0.59851 0.61454 0.0
O711 O 0.2562 0.66996 0.58513 0.0
Mg712 Mg 0.62057 0.25257 0.76487 0.0
O713 O 0.62266 0.22853 0.73894 0.0
O714 O 0.64353 0.20773 0.74978 0.0
Mg715 Mg 0.65467 0.21868 0.78213 0.0
C716 C 0.63172 0.2129 0.73617 0.0
C717 C 0.59642 0.27163 0.72999 0.0
O718 O 0.58281 0.24692 0.72389 0.0
O719 O 0.66408 0.28212 0.76314 0.0
O720 O 0.68521 0.26234 0.77528 0.0
O721 O 0.58186 0.21869 0.77258 0.0
O722 O 0.62072 0.22584 0.78433 0.0
C723 C 0.68545 0.28254 0.76826 0.0
C724 C 0.59518 0.21091 0.78316 0.0
O725 O 0.61162 0.27783 0.745 0.0
Mg726 Mg 0.40655 0.64103 0.87066 0.0
O727 O 0.41048 0.61868 0.89671 0.0
O728 O 0.39364 0.57671 0.88656 0.0
Mg729 Mg 0.3805 0.57254 0.8546 0.0
C730 C 0.40422 0.59483 0.89978 0.0
C731 C 0.42793 0.69807 0.88131 0.0
O732 O 0.4349 0.69748 0.86328 0.0
O733 O 0.36197 0.62181 0.87516 0.0
O734 O 0.34733 0.58031 0.86475 0.0
O735 O 0.44632 0.65007 0.86061 0.0
O736 O 0.40861 0.61472 0.85114 0.0
C737 C 0.34319 0.59822 0.87178 0.0
C738 C 0.43421 0.628 0.85074 0.0
O739 O 0.41509 0.67641 0.89001 0.0
Mg740 Mg 0.78062 0.41904 0.05363 0.0
O741 O 0.79949 0.41736 0.0827 0.0
O742 O 0.82178 0.39596 0.07763 0.0
Mg743 Mg 0.81539 0.3827 0.04538 0.0
C744 C 0.81419 0.40837 0.08884 0.0
C745 C 0.73656 0.43144 0.05761 0.0
O746 O 0.73577 0.42442 0.03923 0.0
O747 O 0.74907 0.37653 0.0558 0.0
O748 O 0.76999 0.35417 0.04941 0.0
O749 O 0.81708 0.45596 0.04675 0.0
O750 O 0.8097 0.41628 0.03807 0.0
C751 C 0.74883 0.35485 0.05327 0.0
C752 C 0.82541 0.44149 0.0385 0.0
O753 O 0.75424 0.43172 0.06891 0.0
Mg754 Mg 0.39104 0.7973 0.21942 0.0
O755 O 0.4075 0.81805 0.24907 0.0
O756 O 0.45137 0.83367 0.24996 0.0
Mg757 Mg 0.46289 0.82345 0.22061 0.0
C758 C 0.43018 0.83038 0.25786 0.0
C759 C 0.33247 0.75654 0.22007 0.0
O760 O 0.34064 0.75212 0.20343 0.0
O761 O 0.39625 0.76305 0.22808 0.0
O762 O 0.43997 0.77869 0.22632 0.0
O763 O 0.39802 0.835 0.20638 0.0
O764 O 0.42725 0.82141 0.20681 0.0
C765 C 0.41635 0.75976 0.22894 0.0
C766 C 0.4215 0.83919 0.20218 0.0
O767 O 0.34893 0.7759 0.23083 0.0
C768 C 0.18266 0.65364 0.25052 0.0
C769 C 0.18267 0.63146 0.25794 0.0
C770 C 0.20653 0.67619 0.24569 0.0
C771 C 0.2309 0.67635 0.24796 0.0
C772 C 0.23108 0.65428 0.25587 0.0
C773 C 0.20697 0.63211 0.2607 0.0
C774 C 0.20555 0.69937 0.23737 0.0
C775 C 0.25661 0.65357 0.25837 0.0
C776 C 0.28771 0.71671 0.21446 0.0
C777 C 0.3055 0.73766 0.22681 0.0
C778 C 0.26303 0.69711 0.22102 0.0
C779 C 0.2559 0.69844 0.24044 0.0
C780 C 0.27333 0.72001 0.25281 0.0
C781 C 0.29795 0.73941 0.24585 0.0
C782 C 0.24499 0.67447 0.20733 0.0
C783 C 0.26635 0.72213 0.27359 0.0
H784 H 0.1639 0.65306 0.24798 0.0
H785 H 0.207 0.61485 0.26609 0.0
H786 H 0.22037 0.71793 0.24499 0.0
H787 H 0.21075 0.70116 0.22178 0.0
H788 H 0.18553 0.69733 0.23852 0.0
H789 H 0.2536 0.63578 0.26603 0.0
H790 H 0.26488 0.65376 0.24387 0.0
H791 H 0.27169 0.67131 0.26669 0.0
H792 H 0.29328 0.71525 0.1997 0.0
H793 H 0.31158 0.75553 0.25549 0.0
H794 H 0.22493 0.67239 0.20647 0.0
H795 H 0.24259 0.6558 0.21298 0.0
H796 H 0.25285 0.67707 0.19239 0.0
H797 H 0.24635 0.72021 0.27406 0.0
H798 H 0.28105 0.74111 0.28084 0.0
H799 H 0.26553 0.70579 0.28204 0.0
C800 C 0.62598 0.24118 0.45336 0.0
C801 C 0.60565 0.21487 0.45003 0.0
C802 C 0.62654 0.26174 0.4428 0.0
C803 C 0.60638 0.25603 0.42856 0.0
C804 C 0.58583 0.22971 0.42513 0.0
C805 C 0.58567 0.20954 0.43596 0.0
C806 C 0.64876 0.28964 0.44691 0.0
C807 C 0.56405 0.22284 0.40999 0.0
C808 C 0.59708 0.31314 0.41377 0.0
C809 C 0.61202 0.32135 0.39684 0.0
C810 C 0.5945 0.29146 0.424 0.0
C811 C 0.60711 0.27768 0.4171 0.0
C812 C 0.6215 0.28536 0.39969 0.0
C813 C 0.62379 0.3071 0.38978 0.0
C814 C 0.57899 0.28384 0.44253 0.0
C815 C 0.63517 0.27111 0.39184 0.0
H816 H 0.64157 0.24605 0.46419 0.0
H817 H 0.56978 0.1894 0.43341 0.0
H818 H 0.66011 0.29798 0.43351 0.0
H819 H 0.64035 0.30222 0.45132 0.0
H820 H 0.66279 0.29086 0.4586 0.0
H821 H 0.54948 0.20138 0.4091 0.0
H822 H 0.55326 0.23351 0.4134 0.0
H823 H 0.57282 0.22922 0.39546 0.0
H824 H 0.58793 0.32405 0.41933 0.0
H825 H 0.63534 0.31325 0.37669 0.0
H826 H 0.59256 0.28676 0.45508 0.0
H827 H 0.56358 0.26266 0.44181 0.0
H828 H 0.56915 0.29561 0.44535 0.0
H829 H 0.65105 0.27353 0.40229 0.0
H830 H 0.64426 0.27857 0.37753 0.0
H831 H 0.62078 0.2497 0.39019 0.0
C832 C 0.41007 0.62489 0.60877 0.0
C833 C 0.42785 0.62898 0.59389 0.0
C834 C 0.38382 0.6186 0.60452 0.0
C835 C 0.37509 0.61637 0.58485 0.0
C836 C 0.39273 0.6198 0.5697 0.0
C837 C 0.41902 0.62633 0.5744 0.0
C838 C 0.36572 0.61529 0.62113 0.0
C839 C 0.3841 0.61742 0.54857 0.0
C840 C 0.29995 0.58282 0.57882 0.0
C841 C 0.29595 0.60454 0.57922 0.0
C842 C 0.32574 0.58633 0.57935 0.0
C843 C 0.34802 0.61214 0.58042 0.0
C844 C 0.34414 0.63408 0.57945 0.0
C845 C 0.31819 0.63002 0.57878 0.0
C846 C 0.32909 0.56243 0.58002 0.0
C847 C 0.36734 0.66195 0.58051 0.0
H848 H 0.41697 0.62734 0.62383 0.0
H849 H 0.43286 0.62994 0.56285 0.0
H850 H 0.36008 0.63078 0.62065 0.0
H851 H 0.3471 0.59596 0.61967 0.0
H852 H 0.37523 0.61658 0.63557 0.0
H853 H 0.39923 0.61791 0.53861 0.0
H854 H 0.36504 0.59881 0.54578 0.0
H855 H 0.38065 0.63388 0.54503 0.0
H856 H 0.28297 0.56304 0.57898 0.0
H857 H 0.31542 0.64698 0.57892 0.0
H858 H 0.33575 0.56078 0.59489 0.0
H859 H 0.3446 0.56438 0.56984 0.0
H860 H 0.31025 0.54395 0.57626 0.0
H861 H 0.3769 0.66619 0.59525 0.0
H862 H 0.36114 0.67671 0.57757 0.0
H863 H 0.38259 0.66443 0.5699 0.0
C864 C 0.8038 0.42234 0.79787 0.0
C865 C 0.81957 0.43792 0.78283 0.0
C866 C 0.78446 0.39586 0.79444 0.0
C867 C 0.78086 0.38458 0.77547 0.0
C868 C 0.7976 0.39983 0.7604 0.0
C869 C 0.81651 0.42647 0.76418 0.0
C870 C 0.7668 0.38045 0.81087 0.0
C871 C 0.79466 0.38841 0.74006 0.0
C872 C 0.73534 0.31015 0.77256 0.0
C873 C 0.71078 0.30811 0.76769 0.0
C874 C 0.75876 0.33489 0.77411 0.0
C875 C 0.75746 0.35806 0.77105 0.0
C876 C 0.73296 0.35601 0.76534 0.0
C877 C 0.71006 0.33114 0.76356 0.0
C878 C 0.78468 0.3363 0.77973 0.0
C879 C 0.73058 0.3802 0.76211 0.0
H880 H 0.80593 0.43125 0.81222 0.0
H881 H 0.82841 0.43849 0.75242 0.0
H882 H 0.74611 0.37588 0.80761 0.0
H883 H 0.76636 0.36143 0.8123 0.0
H884 H 0.77347 0.39145 0.82505 0.0
H885 H 0.81176 0.40132 0.73092 0.0
H886 H 0.79287 0.36868 0.74053 0.0
H887 H 0.77621 0.38588 0.73295 0.0
H888 H 0.73618 0.2925 0.77561 0.0
H889 H 0.69129 0.32991 0.7597 0.0
H890 H 0.79072 0.3445 0.7948 0.0
H891 H 0.80071 0.34969 0.77002 0.0
H892 H 0.78311 0.31663 0.77904 0.0
H893 H 0.73512 0.39182 0.77596 0.0
H894 H 0.71036 0.37518 0.75681 0.0
H895 H 0.74521 0.39303 0.75136 0.0
C896 C 0.42723 0.82637 0.91736 0.0
C897 C 0.45143 0.84616 0.92561 0.0
C898 C 0.42366 0.80164 0.91194 0.0
C899 C 0.44475 0.79645 0.915 0.0
C900 C 0.46894 0.81599 0.92396 0.0
C901 C 0.47217 0.84079 0.92888 0.0
C902 C 0.39775 0.78155 0.90207 0.0
C903 C 0.49177 0.81107 0.92766 0.0
C904 C 0.42664 0.72464 0.9099 0.0
C905 C 0.43371 0.72341 0.89063 0.0
C906 C 0.4309 0.7485 0.91832 0.0
C907 C 0.44225 0.77152 0.90712 0.0
C908 C 0.44996 0.77048 0.88784 0.0
C909 C 0.44571 0.7465 0.87988 0.0
C910 C 0.42274 0.74898 0.93901 0.0
C911 C 0.46199 0.79455 0.87536 0.0
H912 H 0.41137 0.83064 0.9145 0.0
H913 H 0.49112 0.85611 0.9349 0.0
H914 H 0.40143 0.7779 0.88683 0.0
H915 H 0.38924 0.76252 0.90958 0.0
H916 H 0.38279 0.78808 0.90181 0.0
H917 H 0.50792 0.827 0.93682 0.0
H918 H 0.48468 0.79204 0.93497 0.0
H919 H 0.50019 0.80971 0.91359 0.0
H920 H 0.41749 0.70692 0.91835 0.0
H921 H 0.45132 0.74579 0.865 0.0
H922 H 0.40631 0.75347 0.93916 0.0
H923 H 0.43963 0.76481 0.94768 0.0
H924 H 0.416 0.72991 0.94622 0.0
H925 H 0.44753 0.80148 0.87318 0.0
H926 H 0.46766 0.7906 0.86085 0.0
H927 H 0.47994 0.81082 0.88277 0.0
C928 C 0.63771 0.48346 0.08794 0.0
C929 C 0.61346 0.46227 0.0938 0.0
C930 C 0.65946 0.48005 0.08393 0.0
C931 C 0.65666 0.45472 0.0853 0.0
C932 C 0.63246 0.43341 0.09162 0.0
C933 C 0.61119 0.43746 0.0958 0.0
C934 C 0.68503 0.50329 0.07738 0.0
C935 C 0.62854 0.40602 0.09299 0.0
C936 C 0.6972 0.43713 0.05199 0.0
C937 C 0.71679 0.43826 0.06483 0.0
C938 C 0.6778 0.44279 0.05846 0.0
C939 C 0.67797 0.44985 0.07828 0.0
C940 C 0.69789 0.45142 0.0913 0.0
C941 C 0.71708 0.44555 0.08443 0.0
C942 C 0.65683 0.4408 0.04411 0.0
C943 C 0.69873 0.459 0.11251 0.0
H944 H 0.63946 0.50256 0.08598 0.0
H945 H 0.59233 0.42095 0.09996 0.0
H946 H 0.70229 0.50478 0.08569 0.0
H947 H 0.68789 0.50049 0.06177 0.0
H948 H 0.68505 0.52215 0.07922 0.0
H949 H 0.6093 0.39207 0.09958 0.0
H950 H 0.62903 0.39838 0.07821 0.0
H951 H 0.64494 0.40645 0.1018 0.0
H952 H 0.69683 0.43156 0.03681 0.0
H953 H 0.73218 0.44652 0.09443 0.0
H954 H 0.65712 0.45984 0.04369 0.0
H955 H 0.6368 0.42571 0.04881 0.0
H956 H 0.65977 0.43547 0.02912 0.0
H957 H 0.69956 0.47827 0.11386 0.0
H958 H 0.71612 0.46033 0.12058 0.0
H959 H 0.68029 0.44425 0.11956 0.0
C960 C 0.37875 0.83484 0.56658 0.0
C961 C 0.39992 0.83554 0.55646 0.0
C962 C 0.35669 0.81078 0.57162 0.0
C963 C 0.35599 0.78691 0.56672 0.0
C964 C 0.37693 0.78747 0.55604 0.0
C965 C 0.39868 0.81178 0.55111 0.0
C966 C 0.33474 0.811 0.58298 0.0
C967 C 0.377 0.76244 0.55062 0.0
C968 C 0.31954 0.7283 0.59919 0.0
C969 C 0.29645 0.71189 0.58801 0.0
C970 C 0.33871 0.75299 0.59259 0.0
C971 C 0.33477 0.76154 0.57433 0.0
C972 C 0.31119 0.74542 0.56317 0.0
C973 C 0.29226 0.72075 0.57016 0.0
C974 C 0.36355 0.76964 0.60498 0.0
C975 C 0.3063 0.75392 0.54364 0.0
H976 H 0.37984 0.85316 0.57106 0.0
H977 H 0.41519 0.81226 0.54359 0.0
H978 H 0.31503 0.79699 0.57624 0.0
H979 H 0.33503 0.80448 0.59802 0.0
H980 H 0.33685 0.83089 0.58383 0.0
H981 H 0.39361 0.7661 0.54094 0.0
H982 H 0.37891 0.75311 0.56401 0.0
H983 H 0.35793 0.74815 0.54317 0.0
H984 H 0.32291 0.72169 0.61304 0.0
H985 H 0.27448 0.70819 0.56142 0.0
H986 H 0.36606 0.78944 0.60783 0.0
H987 H 0.38128 0.77246 0.59708 0.0
H988 H 0.36309 0.76059 0.61916 0.0
H989 H 0.30818 0.77366 0.54507 0.0
H990 H 0.2863 0.73984 0.53729 0.0
H991 H 0.32157 0.7556 0.53333 0.0
C992 C 0.59843 0.39263 0.67567 0.0
C993 C 0.58139 0.39931 0.68525 0.0
C994 C 0.59936 0.36992 0.68047 0.0
C995 C 0.58304 0.3537 0.69534 0.0
C996 C 0.56499 0.35975 0.70448 0.0
C997 C 0.56451 0.38258 0.69943 0.0
C998 C 0.61894 0.36419 0.67044 0.0
C999 C 0.54733 0.34301 0.72046 0.0
C1000 C 0.57555 0.28648 0.7045 0.0
C1001 C 0.59367 0.29248 0.72014 0.0
C1002 C 0.5722 0.30629 0.6959 0.0
C1003 C 0.5873 0.33258 0.70317 0.0
C1004 C 0.60604 0.33879 0.71864 0.0
C1005 C 0.609 0.31872 0.72689 0.0
C1006 C 0.55217 0.29904 0.67933 0.0
C1007 C 0.6226 0.36661 0.72682 0.0
H1008 H 0.61176 0.40572 0.66491 0.0
H1009 H 0.55163 0.3879 0.70711 0.0
H1010 H 0.63542 0.36803 0.68081 0.0
H1011 H 0.60923 0.34315 0.66573 0.0
H1012 H 0.62758 0.37658 0.65754 0.0
H1013 H 0.53235 0.34864 0.72451 0.0
H1014 H 0.53679 0.32189 0.71591 0.0
H1015 H 0.55973 0.34524 0.7336 0.0
H1016 H 0.56371 0.26628 0.69915 0.0
H1017 H 0.6232 0.32365 0.73889 0.0
H1018 H 0.56174 0.31158 0.66668 0.0
H1019 H 0.53604 0.30274 0.68388 0.0
H1020 H 0.54315 0.27804 0.67461 0.0
H1021 H 0.63391 0.38019 0.71507 0.0
H1022 H 0.63691 0.36826 0.73845 0.0
H1023 H 0.6094 0.37337 0.73296 0.0
C1024 C 0.20043 0.5622 0.91165 0.0
C1025 C 0.18029 0.54541 0.89824 0.0
C1026 C 0.22741 0.57284 0.90743 0.0
C1027 C 0.23448 0.56749 0.88901 0.0
C1028 C 0.21437 0.55219 0.87486 0.0
C1029 C 0.18753 0.5411 0.87969 0.0
C1030 C 0.24826 0.58872 0.92302 0.0
C1031 C 0.22116 0.5468 0.85481 0.0
C1032 C 0.30635 0.60853 0.87364 0.0
C1033 C 0.31573 0.59096 0.87659 0.0
C1034 C 0.27984 0.60117 0.87748 0.0
C1035 C 0.26273 0.57601 0.88505 0.0
C1036 C 0.27243 0.55855 0.88858 0.0
C1037 C 0.29868 0.56608 0.884 0.0
C1038 C 0.26997 0.61999 0.87301 0.0
C1039 C 0.25506 0.53186 0.89717 0.0
H1040 H 0.19507 0.56635 0.92577 0.0
H1041 H 0.17234 0.52876 0.86893 0.0
H1042 H 0.25874 0.57804 0.92737 0.0
H1043 H 0.26341 0.60796 0.91737 0.0
H1044 H 0.23955 0.59234 0.93619 0.0
H1045 H 0.20346 0.53728 0.84478 0.0
H1046 H 0.23642 0.5654 0.84835 0.0
H1047 H 0.22971 0.53365 0.85588 0.0
H1048 H 0.31953 0.62772 0.86779 0.0
H1049 H 0.30605 0.55261 0.88649 0.0
H1050 H 0.26198 0.62424 0.88628 0.0
H1051 H 0.2534 0.6108 0.86202 0.0
H1052 H 0.28587 0.6389 0.86734 0.0
H1053 H 0.24672 0.53409 0.91104 0.0
H1054 H 0.26611 0.52129 0.90007 0.0
H1055 H 0.23803 0.51951 0.88707 0.0
C1056 C 0.60259 0.2259 0.05452 0.0
C1057 C 0.59262 0.22154 0.03525 0.0
C1058 C 0.62913 0.24503 0.05908 0.0
C1059 C 0.6458 0.2606 0.04409 0.0
C1060 C 0.63603 0.25571 0.02456 0.0
C1061 C 0.6096 0.23623 0.0204 0.0
C1062 C 0.63892 0.24941 0.08003 0.0
C1063 C 0.653 0.27208 0.00817 0.0
C1064 C 0.69926 0.33124 0.05502 0.0
C1065 C 0.72271 0.33005 0.05326 0.0
C1066 C 0.67416 0.3086 0.05278 0.0
C1067 C 0.6723 0.28396 0.04891 0.0
C1068 C 0.69578 0.28229 0.04814 0.0
C1069 C 0.72076 0.3054 0.05021 0.0
C1070 C 0.64963 0.31132 0.05361 0.0
C1071 C 0.69452 0.25626 0.04442 0.0
H1072 H 0.58946 0.21486 0.0661 0.0
H1073 H 0.60181 0.2331 0.00554 0.0
H1074 H 0.65874 0.25095 0.08117 0.0
H1075 H 0.6412 0.26825 0.08574 0.0
H1076 H 0.62495 0.23331 0.08943 0.0
H1077 H 0.6431 0.2645 0.99366 0.0
H1078 H 0.65739 0.2927 0.01017 0.0
H1079 H 0.67231 0.27249 0.00835 0.0
H1080 H 0.70041 0.35009 0.05748 0.0
H1081 H 0.73871 0.3042 0.04896 0.0
H1082 H 0.63559 0.29761 0.06428 0.0
H1083 H 0.63918 0.30597 0.03917 0.0
H1084 H 0.65445 0.33166 0.05771 0.0
H1085 H 0.6802 0.24115 0.05426 0.0
H1086 H 0.71426 0.25776 0.04652 0.0
H1087 H 0.6873 0.24924 0.02926 0.0
C1088 C 0.38406 0.60863 0.22355 0.0
C1089 C 0.38094 0.60279 0.20346 0.0
C1090 C 0.39181 0.63413 0.2307 0.0
C1091 C 0.39599 0.65401 0.21744 0.0
C1092 C 0.39326 0.64827 0.19715 0.0
C1093 C 0.38574 0.62274 0.19044 0.0
C1094 C 0.39473 0.63957 0.25241 0.0
C1095 C 0.39739 0.66885 0.1825 0.0
C1096 C 0.38543 0.71108 0.2301 0.0
C1097 C 0.41158 0.73247 0.23019 0.0
C1098 C 0.38015 0.68517 0.2272 0.0
C1099 C 0.40155 0.68044 0.22453 0.0
C1100 C 0.42806 0.70164 0.22626 0.0
C1101 C 0.43278 0.72744 0.22902 0.0
C1102 C 0.35157 0.66311 0.22551 0.0
C1103 C 0.45141 0.69732 0.22387 0.0
H1104 H 0.37995 0.59313 0.23368 0.0
H1105 H 0.38298 0.61815 0.17493 0.0
H1106 H 0.414 0.65757 0.25609 0.0
H1107 H 0.37872 0.64319 0.25737 0.0
H1108 H 0.3936 0.62288 0.26063 0.0
H1109 H 0.39547 0.66145 0.16724 0.0
H1110 H 0.38253 0.67525 0.18461 0.0
H1111 H 0.4174 0.68648 0.18474 0.0
H1112 H 0.36886 0.71462 0.23118 0.0
H1113 H 0.45308 0.74374 0.22928 0.0
H1114 H 0.34853 0.64632 0.23449 0.0
H1115 H 0.34671 0.65581 0.21015 0.0
H1116 H 0.3374 0.66956 0.2301 0.0
H1117 H 0.44866 0.68019 0.2323 0.0
H1118 H 0.4705 0.71492 0.22864 0.0
H1119 H 0.45283 0.69291 0.20831 0.0
C1120 C 0.80286 0.40739 0.36455 0.0
C1121 C 0.8189 0.40537 0.37908 0.0
C1122 C 0.78325 0.41367 0.36924 0.0
C1123 C 0.77954 0.41806 0.38899 0.0
C1124 C 0.79615 0.41678 0.40373 0.0
C1125 C 0.81547 0.41013 0.39862 0.0
C1126 C 0.7658 0.4146 0.35308 0.0
C1127 C 0.79294 0.42154 0.42491 0.0
C1128 C 0.73748 0.45053 0.39449 0.0
C1129 C 0.71193 0.42847 0.39588 0.0
C1130 C 0.76009 0.44768 0.39363 0.0
C1131 C 0.75702 0.42217 0.39405 0.0
C1132 C 0.73156 0.40008 0.39693 0.0
C1133 C 0.70938 0.40351 0.39792 0.0
C1134 C 0.78699 0.47176 0.39095 0.0
C1135 C 0.72737 0.37252 0.39748 0.0
H1136 H 0.8052 0.40329 0.34949 0.0
H1137 H 0.82751 0.40814 0.40993 0.0
H1138 H 0.74484 0.39899 0.35508 0.0
H1139 H 0.76639 0.43379 0.35359 0.0
H1140 H 0.77197 0.41173 0.33844 0.0
H1141 H 0.8093 0.42276 0.4343 0.0
H1142 H 0.79236 0.44007 0.42682 0.0
H1143 H 0.77378 0.40528 0.43 0.0
H1144 H 0.73976 0.46994 0.39309 0.0
H1145 H 0.68981 0.38631 0.39922 0.0
H1146 H 0.79319 0.47195 0.37573 0.0
H1147 H 0.80223 0.47135 0.40065 0.0
H1148 H 0.78671 0.49029 0.39395 0.0
H1149 H 0.73069 0.36664 0.38281 0.0
H1150 H 0.70695 0.35786 0.40187 0.0
H1151 H 0.7419 0.37176 0.40774 0.0
C1152 C 0.14225 0.58828 0.44923 0.0
C1153 C 0.11991 0.59153 0.44953 0.0
C1154 C 0.15474 0.58721 0.46657 0.0
C1155 C 0.14466 0.58947 0.48469 0.0
C1156 C 0.12191 0.59245 0.48512 0.0
C1157 C 0.10999 0.59374 0.46754 0.0
C1158 C 0.17913 0.58434 0.4655 0.0
C1159 C 0.1105 0.59482 0.50415 0.0
C1160 C 0.16453 0.56661 0.53021 0.0
C1161 C 0.18425 0.59058 0.53872 0.0
C1162 C 0.15149 0.56593 0.51262 0.0
C1163 C 0.15851 0.58975 0.5032 0.0
C1164 C 0.17868 0.61396 0.51152 0.0
C1165 C 0.1912 0.6141 0.52921 0.0
C1166 C 0.12994 0.53976 0.50426 0.0
C1167 C 0.18693 0.63977 0.50181 0.0
H1168 H 0.15028 0.58712 0.43534 0.0
H1169 H 0.0931 0.59685 0.46788 0.0
H1170 H 0.19651 0.60199 0.47226 0.0
H1171 H 0.17618 0.56706 0.47382 0.0
H1172 H 0.1839 0.58193 0.45027 0.0
H1173 H 0.09189 0.59556 0.50198 0.0
H1174 H 0.10625 0.57789 0.51342 0.0
H1175 H 0.12526 0.61297 0.51224 0.0
H1176 H 0.1589 0.54834 0.53747 0.0
H1177 H 0.20649 0.63271 0.53558 0.0
H1178 H 0.13497 0.53659 0.48932 0.0
H1179 H 0.11085 0.53976 0.50313 0.0
H1180 H 0.12698 0.52299 0.51328 0.0
H1181 H 0.1934 0.63915 0.48678 0.0
H1182 H 0.20342 0.65682 0.50991 0.0
H1183 H 0.16973 0.64304 0.50063 0.0
C1184 C 0.60123 0.1291 0.63497 0.0
C1185 C 0.57512 0.1079 0.63619 0.0
C1186 C 0.61232 0.14895 0.64963 0.0
C1187 C 0.59719 0.1472 0.6661 0.0
C1188 C 0.57074 0.12602 0.66726 0.0
C1189 C 0.56007 0.10668 0.65231 0.0
C1190 C 0.6405 0.17134 0.64779 0.0
C1191 C 0.55401 0.1232 0.68467 0.0
C1192 C 0.63056 0.17702 0.71516 0.0
C1193 C 0.62615 0.19839 0.71716 0.0
C1194 C 0.6222 0.16085 0.69827 0.0
C1195 C 0.60937 0.16631 0.68284 0.0
C1196 C 0.60619 0.18869 0.68428 0.0
C1197 C 0.61448 0.20438 0.70146 0.0
C1198 C 0.62585 0.1371 0.69738 0.0
C1199 C 0.59301 0.19541 0.66801 0.0
H1200 H 0.61316 0.12987 0.62275 0.0
H1201 H 0.54009 0.09007 0.65348 0.0
H1202 H 0.64145 0.19052 0.65037 0.0
H1203 H 0.65352 0.16974 0.65902 0.0
H1204 H 0.64857 0.17135 0.63323 0.0
H1205 H 0.53344 0.10621 0.68294 0.0
H1206 H 0.56339 0.12046 0.69796 0.0
H1207 H 0.55291 0.14138 0.68706 0.0
H1208 H 0.63958 0.17218 0.72714 0.0
H1209 H 0.61117 0.22096 0.70276 0.0
H1210 H 0.63574 0.13686 0.68375 0.0
H1211 H 0.6061 0.11885 0.69723 0.0
H1212 H 0.63784 0.13663 0.70996 0.0
H1213 H 0.60199 0.19534 0.65388 0.0
H1214 H 0.59471 0.21498 0.67045 0.0
H1215 H 0.5716 0.18027 0.66682 0.0
C1216 C 0.52426 0.61266 0.77273 0.0
C1217 C 0.52931 0.59194 0.77579 0.0
C1218 C 0.50711 0.61646 0.78478 0.0
C1219 C 0.49531 0.5996 0.8006 0.0
C1220 C 0.50015 0.57854 0.80368 0.0
C1221 C 0.51705 0.57494 0.7912 0.0
C1222 C 0.50222 0.63899 0.78091 0.0
C1223 C 0.48827 0.56042 0.82057 0.0
C1224 C 0.47676 0.62981 0.84239 0.0
C1225 C 0.44929 0.61875 0.83912 0.0
C1226 C 0.49179 0.62295 0.83038 0.0
C1227 C 0.47911 0.605 0.81449 0.0
C1228 C 0.45126 0.59325 0.81141 0.0
C1229 C 0.43662 0.6001 0.82389 0.0
C1230 C 0.52137 0.63548 0.83439 0.0
C1231 C 0.43711 0.57426 0.7945 0.0
H1232 H 0.53408 0.62621 0.7611 0.0
H1233 H 0.52133 0.55923 0.7938 0.0
H1234 H 0.48052 0.63173 0.78001 0.0
H1235 H 0.51069 0.65369 0.79313 0.0
H1236 H 0.51127 0.64903 0.76719 0.0
H1237 H 0.49283 0.54414 0.82032 0.0
H1238 H 0.49616 0.57183 0.83449 0.0
H1239 H 0.46636 0.5518 0.82039 0.0
H1240 H 0.4866 0.64408 0.85424 0.0
H1241 H 0.4154 0.5916 0.82126 0.0
H1242 H 0.5324 0.64833 0.82221 0.0
H1243 H 0.5271 0.62008 0.83532 0.0
H1244 H 0.52782 0.64752 0.84813 0.0
H1245 H 0.44447 0.58458 0.7806 0.0
H1246 H 0.41519 0.56582 0.79472 0.0
H1247 H 0.44149 0.5579 0.79466 0.0
C1248 C 0.93416 0.52592 0.96415 0.0
C1249 C 0.95951 0.52893 0.96701 0.0
C1250 C 0.91293 0.50916 0.9758 0.0
C1251 C 0.91732 0.49562 0.99102 0.0
C1252 C 0.94274 0.49823 0.99377 0.0
C1253 C 0.96352 0.51483 0.98171 0.0
C1254 C 0.88602 0.5067 0.97227 0.0
C1255 C 0.94831 0.48442 0.00999 0.0
C1256 C 0.86996 0.48026 0.03254 0.0
C1257 C 0.851 0.45384 0.02842 0.0
C1258 C 0.89244 0.49367 0.02108 0.0
C1259 C 0.89578 0.48045 0.00489 0.0
C1260 C 0.87739 0.45339 0.00123 0.0
C1261 C 0.85528 0.44032 0.01317 0.0
C1262 C 0.91193 0.52236 0.02574 0.0
C1263 C 0.88018 0.43868 0.98404 0.0
H1264 H 0.93103 0.53712 0.95306 0.0
H1265 H 0.98322 0.51749 0.98415 0.0
H1266 H 0.87035 0.48563 0.97101 0.0
H1267 H 0.88118 0.51553 0.98483 0.0
H1268 H 0.88531 0.51668 0.95885 0.0
H1269 H 0.96845 0.48671 0.00915 0.0
H1270 H 0.94677 0.49264 0.02426 0.0
H1271 H 0.93331 0.46312 0.00959 0.0
H1272 H 0.86684 0.49072 0.04442 0.0
H1273 H 0.8406 0.4199 0.00988 0.0
H1274 H 0.91071 0.53468 0.01413 0.0
H1275 H 0.93259 0.52594 0.02621 0.0
H1276 H 0.90794 0.52897 0.0399 0.0
H1277 H 0.87663 0.44639 0.97035 0.0
H1278 H 0.86585 0.41718 0.98436 0.0
H1279 H 0.90066 0.44183 0.98365 0.0
C1280 C 0.52626 0.95769 0.1366 0.0
C1281 C 0.52015 0.94731 0.11746 0.0
C1282 C 0.51008 0.94359 0.15206 0.0
C1283 C 0.48756 0.9184 0.14829 0.0
C1284 C 0.48077 0.90833 0.12889 0.0
C1285 C 0.49719 0.92288 0.11374 0.0
C1286 C 0.51787 0.95505 0.17252 0.0
C1287 C 0.45697 0.88151 0.12423 0.0
C1288 C 0.46442 0.86458 0.1852 0.0
C1289 C 0.44032 0.8623 0.19102 0.0
C1290 C 0.48067 0.88373 0.17208 0.0
C1291 C 0.47272 0.90116 0.1646 0.0
C1292 C 0.44927 0.90009 0.17134 0.0
C1293 C 0.43326 0.88058 0.18445 0.0
C1294 C 0.50554 0.88419 0.1653 0.0
C1295 C 0.44035 0.91858 0.1639 0.0
H1296 H 0.54419 0.97644 0.13955 0.0
H1297 H 0.49258 0.91469 0.099 0.0
H1298 H 0.50031 0.95306 0.18022 0.0
H1299 H 0.52551 0.94402 0.18082 0.0
H1300 H 0.53355 0.97617 0.17271 0.0
H1301 H 0.45321 0.87748 0.10829 0.0
H1302 H 0.46029 0.86606 0.13058 0.0
H1303 H 0.43887 0.8798 0.13082 0.0
H1304 H 0.47009 0.8506 0.19018 0.0
H1305 H 0.41472 0.87902 0.18894 0.0
H1306 H 0.52288 0.90445 0.16661 0.0
H1307 H 0.503 0.87802 0.14969 0.0
H1308 H 0.51011 0.87085 0.17372 0.0
H1309 H 0.45721 0.93915 0.16423 0.0
H1310 H 0.42394 0.91776 0.17254 0.0
H1311 H 0.43326 0.91322 0.14852 0.0
C1312 C 0.58591 0.49347 0.27147 0.0
C1313 C 0.58348 0.51569 0.2753 0.0
C1314 C 0.58691 0.47826 0.28664 0.0
C1315 C 0.58552 0.48551 0.30617 0.0
C1316 C 0.58196 0.50729 0.31012 0.0
C1317 C 0.58127 0.52233 0.29464 0.0
C1318 C 0.59093 0.45529 0.28181 0.0
C1319 C 0.58018 0.51548 0.33073 0.0
C1320 C 0.57592 0.43425 0.34326 0.0
C1321 C 0.60234 0.44281 0.34905 0.0
C1322 C 0.56987 0.44868 0.33003 0.0
C1323 C 0.59078 0.47199 0.32232 0.0
C1324 C 0.61733 0.48131 0.32882 0.0
C1325 C 0.62276 0.46667 0.34215 0.0
C1326 C 0.54128 0.43838 0.32365 0.0
C1327 C 0.64024 0.50603 0.32091 0.0
H1328 H 0.588 0.48852 0.25657 0.0
H1329 H 0.5798 0.53974 0.29769 0.0
H1330 H 0.61081 0.45963 0.28736 0.0
H1331 H 0.57586 0.43732 0.28905 0.0
H1332 H 0.58959 0.45105 0.26588 0.0
H1333 H 0.57382 0.53047 0.3312 0.0
H1334 H 0.56596 0.49816 0.33902 0.0
H1335 H 0.59992 0.5239 0.33823 0.0
H1336 H 0.56002 0.41588 0.34861 0.0
H1337 H 0.64324 0.47345 0.34652 0.0
H1338 H 0.53829 0.43108 0.3083 0.0
H1339 H 0.53638 0.4544 0.32429 0.0
H1340 H 0.52717 0.42201 0.33279 0.0
H1341 H 0.6421 0.50305 0.30514 0.0
H1342 H 0.65948 0.51154 0.32843 0.0
H1343 H 0.63652 0.52276 0.32244 0.0
C1344 C 0.43359 0.91518 0.35078 0.0
C1345 C 0.43791 0.90592 0.3684 0.0
C1346 C 0.43329 0.9031 0.33289 0.0
C1347 C 0.43676 0.88084 0.33263 0.0
C1348 C 0.44094 0.8713 0.35037 0.0
C1349 C 0.44147 0.88395 0.36802 0.0
C1350 C 0.42891 0.91394 0.31428 0.0
C1351 C 0.44433 0.8474 0.35072 0.0
C1352 C 0.40907 0.83489 0.28814 0.0
C1353 C 0.43208 0.8423 0.27747 0.0
C1354 C 0.41039 0.84693 0.30627 0.0
C1355 C 0.43527 0.86713 0.31383 0.0
C1356 C 0.45861 0.87452 0.30326 0.0
C1357 C 0.45677 0.8619 0.28527 0.0
C1358 C 0.38509 0.83824 0.31724 0.0
C1359 C 0.48546 0.89614 0.31076 0.0
H1360 H 0.43018 0.93174 0.35099 0.0
H1361 H 0.44423 0.87641 0.38164 0.0
H1362 H 0.44531 0.91851 0.30418 0.0
H1363 H 0.41015 0.89894 0.30686 0.0
H1364 H 0.42776 0.93208 0.31692 0.0
H1365 H 0.44795 0.84281 0.3657 0.0
H1366 H 0.42622 0.83003 0.34442 0.0
H1367 H 0.46124 0.85057 0.34161 0.0
H1368 H 0.38993 0.81967 0.28231 0.0
H1369 H 0.47464 0.86788 0.2771 0.0
H1370 H 0.3813 0.85491 0.31893 0.0
H1371 H 0.38719 0.8322 0.33209 0.0
H1372 H 0.36751 0.82153 0.30975 0.0
H1373 H 0.48525 0.91489 0.31228 0.0
H1374 H 0.50178 0.89922 0.30096 0.0
H1375 H 0.48988 0.89138 0.32542 0.0
C1376 C 0.52955 0.43832 0.49855 0.0
C1377 C 0.54024 0.44207 0.51756 0.0
C1378 C 0.54456 0.43936 0.48241 0.0
C1379 C 0.57073 0.44386 0.48535 0.0
C1380 C 0.58172 0.44793 0.50449 0.0
C1381 C 0.56631 0.44691 0.52035 0.0
C1382 C 0.53214 0.43496 0.46222 0.0
C1383 C 0.60946 0.45259 0.50824 0.0
C1384 C 0.59677 0.41793 0.44539 0.0
C1385 C 0.61288 0.4408 0.43506 0.0
C1386 C 0.58345 0.41879 0.46202 0.0
C1387 C 0.5861 0.44306 0.46845 0.0
C1388 C 0.60278 0.46632 0.45839 0.0
C1389 C 0.61606 0.46494 0.44188 0.0
C1390 C 0.56608 0.39358 0.47248 0.0
C1391 C 0.60604 0.49255 0.46479 0.0
H1392 H 0.50923 0.43406 0.49635 0.0
H1393 H 0.57445 0.44935 0.53505 0.0
H1394 H 0.54517 0.45148 0.45279 0.0
H1395 H 0.53011 0.41669 0.45553 0.0
H1396 H 0.51218 0.43319 0.46235 0.0
H1397 H 0.61557 0.45675 0.52389 0.0
H1398 H 0.61047 0.43498 0.50341 0.0
H1399 H 0.62402 0.46939 0.49968 0.0
H1400 H 0.59428 0.3992 0.44034 0.0
H1401 H 0.62837 0.48271 0.434 0.0
H1402 H 0.54508 0.38902 0.47175 0.0
H1403 H 0.57217 0.39595 0.4881 0.0
H1404 H 0.56705 0.37655 0.46614 0.0
H1405 H 0.58656 0.49175 0.46365 0.0
H1406 H 0.62053 0.50897 0.45587 0.0
H1407 H 0.61281 0.49693 0.48028 0.0
C1408 C 0.11768 0.52553 0.70648 0.0
C1409 C 0.09215 0.50352 0.70407 0.0
C1410 C 0.13087 0.54137 0.69073 0.0
C1411 C 0.11825 0.53501 0.67205 0.0
C1412 C 0.09198 0.51349 0.66966 0.0
C1413 C 0.07932 0.49781 0.68568 0.0
C1414 C 0.15893 0.56405 0.69391 0.0
C1415 C 0.07778 0.50623 0.65002 0.0
C1416 C 0.15378 0.58841 0.63513 0.0
C1417 C 0.17046 0.58036 0.62662 0.0
C1418 C 0.13537 0.57304 0.64915 0.0
C1419 C 0.1338 0.54921 0.65485 0.0
C1420 C 0.14942 0.54024 0.64542 0.0
C1421 C 0.16749 0.55588 0.63141 0.0
C1422 C 0.11873 0.58304 0.65866 0.0
C1423 C 0.14836 0.51492 0.65101 0.0
H1424 H 0.12777 0.52978 0.72061 0.0
H1425 H 0.05972 0.48058 0.68369 0.0
H1426 H 0.17295 0.55987 0.68593 0.0
H1427 H 0.16075 0.58238 0.68805 0.0
H1428 H 0.16513 0.56757 0.70956 0.0
H1429 H 0.05629 0.49151 0.65114 0.0
H1430 H 0.07978 0.52397 0.64292 0.0
H1431 H 0.08698 0.4978 0.64041 0.0
H1432 H 0.15585 0.60725 0.63145 0.0
H1433 H 0.18022 0.54943 0.62491 0.0
H1434 H 0.12626 0.58991 0.6738 0.0
H1435 H 0.09772 0.567 0.65949 0.0
H1436 H 0.11933 0.59967 0.6507 0.0
H1437 H 0.15646 0.51703 0.66609 0.0
H1438 H 0.16003 0.5096 0.64115 0.0
H1439 H 0.12749 0.49845 0.65078 0.0
C1440 C 0.50502 0.10481 0.85814 0.0
C1441 C 0.50158 0.07955 0.85521 0.0
C1442 C 0.52252 0.12586 0.84674 0.0
C1443 C 0.53639 0.12141 0.83173 0.0
C1444 C 0.53333 0.09608 0.82891 0.0
C1445 C 0.51598 0.07547 0.84071 0.0
C1446 C 0.52542 0.15266 0.8503 0.0
C1447 C 0.54747 0.09046 0.81289 0.0
C1448 C 0.55439 0.1683 0.7899 0.0
C1449 C 0.58125 0.18638 0.79419 0.0
C1450 C 0.53988 0.14647 0.80157 0.0
C1451 C 0.55245 0.14282 0.8181 0.0
C1452 C 0.57983 0.16046 0.8221 0.0
C1453 C 0.59398 0.18198 0.81 0.0
C1454 C 0.51083 0.12782 0.79659 0.0
C1455 C 0.59386 0.15729 0.83965 0.0
H1456 H 0.49358 0.108 0.86906 0.0
H1457 H 0.51297 0.05585 0.8382 0.0
H1458 H 0.54676 0.16791 0.85186 0.0
H1459 H 0.51702 0.15783 0.83762 0.0
H1460 H 0.51507 0.15339 0.86356 0.0
H1461 H 0.54461 0.07029 0.8136 0.0
H1462 H 0.53981 0.09253 0.79852 0.0
H1463 H 0.5691 0.10492 0.8137 0.0
H1464 H 0.5445 0.17149 0.77761 0.0
H1465 H 0.61473 0.19595 0.8134 0.0
H1466 H 0.49837 0.12916 0.80814 0.0
H1467 H 0.5067 0.10719 0.79596 0.0
H1468 H 0.50462 0.13225 0.78243 0.0
H1469 H 0.58542 0.16044 0.85314 0.0
H1470 H 0.61561 0.17145 0.8399 0.0
H1471 H 0.59062 0.13699 0.83992 0.0
C1472 C 0.41134 0.55771 0.01062 0.0
C1473 C 0.42226 0.54112 0.01168 0.0
C1474 C 0.40978 0.56854 0.9929 0.0
C1475 C 0.42026 0.56345 0.97597 0.0
C1476 C 0.43291 0.54819 0.97723 0.0
C1477 C 0.43355 0.53702 0.99502 0.0
C1478 C 0.39578 0.58437 0.99211 0.0
C1479 C 0.445 0.54292 0.95963 0.0
C1480 C 0.39021 0.56253 0.92634 0.0
C1481 C 0.40833 0.58745 0.91946 0.0
C1482 C 0.39358 0.55482 0.94489 0.0
C1483 C 0.41606 0.57216 0.95665 0.0
C1484 C 0.43452 0.59736 0.94977 0.0
C1485 C 0.4302 0.60488 0.93133 0.0
C1486 C 0.37305 0.52807 0.95187 0.0
C1487 C 0.45908 0.61608 0.96168 0.0
H1488 H 0.40328 0.56159 0.02355 0.0
H1489 H 0.44252 0.52469 0.99581 0.0
H1490 H 0.40867 0.60369 0.98548 0.0
H1491 H 0.3775 0.57377 0.98275 0.0
H1492 H 0.39008 0.58782 0.00676 0.0
H1493 H 0.45662 0.53321 0.9635 0.0
H1494 H 0.429 0.52998 0.94898 0.0
H1495 H 0.45824 0.5616 0.9523 0.0
H1496 H 0.37311 0.54914 0.91728 0.0
H1497 H 0.4443 0.62411 0.92597 0.0
H1498 H 0.36537 0.53017 0.96609 0.0
H1499 H 0.38231 0.51571 0.95416 0.0
H1500 H 0.35598 0.51755 0.94138 0.0
H1501 H 0.45343 0.6202 0.9761 0.0
H1502 H 0.47132 0.63506 0.95435 0.0
H1503 H 0.47148 0.60687 0.96434 0.0
C1504 C 0.86629 0.43485 0.2111 0.0
C1505 C 0.88622 0.47156 0.21218 0.0
C1506 C 0.85376 0.42069 0.18706 0.0
C1507 C 0.85629 0.44146 0.16704 0.0
C1508 C 0.86952 0.47651 0.17037 0.0
C1509 C 0.88247 0.49246 0.19378 0.0
C1510 C 0.84073 0.39163 0.18382 0.0
C1511 C 0.87016 0.49253 0.15353 0.0
C1512 C 0.84874 0.41711 0.11469 0.0
C1513 C 0.82377 0.41378 0.10941 0.0
C1514 C 0.8593 0.4252 0.13373 0.0
C1515 C 0.84425 0.42941 0.14784 0.0
C1516 C 0.81841 0.42451 0.1429 0.0
C1517 C 0.80861 0.41713 0.12366 0.0
C1518 C 0.88702 0.43048 0.13849 0.0
C1519 C 0.80131 0.42761 0.15785 0.0
H1520 H 0.86663 0.42303 0.22292 0.0
H1521 H 0.89256 0.51369 0.19551 0.0
H1522 H 0.82106 0.38426 0.17642 0.0
H1523 H 0.85308 0.38716 0.17406 0.0
H1524 H 0.83839 0.38167 0.19785 0.0
H1525 H 0.88215 0.51386 0.15732 0.0
H1526 H 0.87858 0.48762 0.1408 0.0
H1527 H 0.84957 0.48748 0.14945 0.0
H1528 H 0.86058 0.41461 0.10371 0.0
H1529 H 0.78912 0.41419 0.11973 0.0
H1530 H 0.88697 0.41995 0.15178 0.0
H1531 H 0.90031 0.45188 0.14156 0.0
H1532 H 0.89535 0.42432 0.12638 0.0
H1533 H 0.80087 0.41708 0.17126 0.0
H1534 H 0.78056 0.41995 0.15233 0.0
H1535 H 0.80994 0.44875 0.16195 0.0
loop_
_geom_bond_atom_site_label_1
_geom_bond_atom_site_label_2
_geom_bond_distance
_geom_bond_site_symmetry_2
_ccdc_geom_bond_type
C0 C1 1.560 . S
C0 H61 0.959 . S
C0 H62 0.959 . S
C0 H63 0.960 . S
C1 C0 1.560 . S
C1 O56 1.426 . S
C1 H60 0.980 . S
C2 C3 1.407 . S
C2 C7 1.418 . S
C2 O56 1.334 . S
C3 C2 1.407 . S
C3 C4 1.360 . S
C3 H64 0.929 . S
C4 C3 1.360 . S
C4 C5 1.401 . S
C4 C8 1.527 . S
C5 C4 1.401 . S
C5 C6 1.405 . S
C5 C38 1.587 . S
C6 C5 1.405 . S
C6 C7 1.332 . S
C6 C9 1.496 . S
C7 C2 1.418 . S
C7 C6 1.332 . S
C7 H65 0.929 . S
C8 C4 1.527 . S
C8 H66 0.959 . S
C8 H67 0.961 . S
C8 H68 0.961 . S
C9 C6 1.496 . S
C9 H69 0.960 . S
C9 H70 0.960 . S
C9 H71 0.961 . S
C10 C11 1.517 . S
C10 H73 0.961 . S
C10 H74 0.960 . S
C10 H75 0.959 . S
C11 C10 1.517 . S
C11 O59 1.468 . S
C11 H72 0.980 . S
C12 C13 1.349 . S
C12 C17 1.367 . S
C12 O59 1.408 . S
C13 C12 1.349 . S
C13 C14 1.407 . S
C13 H76 0.930 . S
C14 C13 1.407 . S
C14 C15 1.449 . S
C14 C18 1.535 . S
C15 C14 1.449 . S
C15 C16 1.384 . S
C15 C40 1.553 1_655 S
C16 C15 1.384 . S
C16 C17 1.364 . S
C16 C19 1.450 . S
C17 C12 1.367 . S
C17 C16 1.364 . S
C17 H77 0.931 . S
C18 C14 1.535 . S
C18 H78 0.959 1_655 S
C18 H79 0.961 . S
C18 H80 0.959 . S
C19 C16 1.450 . S
C19 H81 0.960 . S
C19 H82 0.960 1_655 S
C19 H83 0.960 . S
C20 C21 1.309 . S
C20 C25 1.304 . S
C20 O58 1.435 . S
C21 C20 1.309 . S
C21 C22 1.476 . S
C21 H85 0.930 . S
C22 C21 1.476 . S
C22 C23 1.400 . S
C22 C26 1.567 . S
C23 C22 1.400 . S
C23 C24 1.373 . S
C23 C45 1.432 . S
C24 C23 1.373 . S
C24 C25 1.339 . S
C24 C27 1.530 . S
C25 C20 1.304 . S
C25 C24 1.339 . S
C25 H86 0.930 . S
C26 C22 1.567 . S
C26 H87 0.961 . S
C26 H88 0.960 . S
C26 H89 0.958 . S
C27 C24 1.530 . S
C27 H90 0.961 . S
C27 H91 0.960 . S
C27 H92 0.960 . S
C28 C29 1.530 . S
C28 H94 0.961 . S
C28 H95 0.961 . S
C28 H96 0.959 . S
C29 C28 1.530 . S
C29 O57 1.412 . S
C29 H93 0.980 . S
C30 C31 1.288 . S
C30 C35 1.377 . S
C30 O57 1.393 . S
C31 C30 1.288 . S
C31 C32 1.369 . S
C31 H97 0.932 . S
C32 C31 1.369 . S
C32 C33 1.398 . S
C32 C36 1.527 . S
C33 C32 1.398 . S
C33 C34 1.380 . S
C33 C47 1.497 . S
C34 C33 1.380 . S
C34 C35 1.383 . S
C34 C37 1.603 . S
C35 C30 1.377 . S
C35 C34 1.383 . S
C35 H98 0.929 . S
C36 C32 1.527 . S
C36 H99 0.961 . S
C36 H100 0.959 1_455 S
C36 H101 0.959 . S
C37 C34 1.603 . S
C37 H102 0.960 . S
C37 H103 0.962 . S
C37 H104 0.961 . S
C38 C5 1.587 . S
C38 C39 1.360 . S
C38 C51 1.412 . S
C39 C38 1.360 . S
C39 C40 1.365 . S
C39 H105 0.929 . S
C40 C15 1.553 1_455 S
C40 C39 1.365 . S
C40 C41 1.404 1_455 S
C41 C40 1.404 1_655 S
C41 C42 1.395 . S
C41 C52 1.451 1_655 S
C42 C41 1.395 . S
C42 C43 1.322 . S
C42 H106 0.930 . S
C43 C42 1.322 . S
C43 C44 1.459 . S
C43 H107 0.929 . S
C44 C43 1.459 . S
C44 C45 1.445 . S
C44 C53 1.395 1_655 S
C45 C23 1.432 . S
C45 C44 1.445 . S
C45 C46 1.370 . S
C46 C45 1.370 . S
C46 C47 1.438 1_655 S
C46 H108 0.930 . S
C47 C33 1.497 . S
C47 C46 1.438 1_455 S
C47 C48 1.360 . S
C48 C47 1.360 . S
C48 C49 1.401 . S
C48 C53 1.446 . S
C49 C48 1.401 . S
C49 C50 1.347 . S
C49 H109 0.929 . S
C50 C49 1.347 . S
C50 C51 1.455 . S
C50 H110 0.930 . S
C51 C38 1.412 . S
C51 C50 1.455 . S
C51 C52 1.331 . S
C52 C41 1.451 1_455 S
C52 C51 1.331 . S
C52 C53 1.497 . S
C53 C44 1.395 1_455 S
C53 C48 1.446 . S
C53 C52 1.497 . S
C54 C55 1.582 . S
C54 H111 0.962 . S
C54 H112 0.959 . S
C54 H113 0.958 . S
C55 C54 1.582 . S
C55 O58 1.458 . S
C55 H84 0.980 . S
O56 C1 1.426 . S
O56 C2 1.334 . S
O57 C29 1.412 . S
O57 C30 1.393 . S
O58 C20 1.435 . S
O58 C55 1.458 . S
O59 C11 1.468 . S
O59 C12 1.408 . S
H60 C1 0.980 . S
H61 C0 0.959 . S
H62 C0 0.959 . S
H63 C0 0.960 . S
H64 C3 0.929 . S
H65 C7 0.929 . S
H66 C8 0.959 . S
H67 C8 0.961 . S
H68 C8 0.961 . S
H69 C9 0.960 . S
H70 C9 0.960 . S
H71 C9 0.961 . S
H72 C11 0.980 . S
H73 C10 0.961 . S
H74 C10 0.960 . S
H75 C10 0.959 . S
H76 C13 0.930 . S
H77 C17 0.931 . S
H78 C18 0.959 1_455 S
H79 C18 0.961 . S
H80 C18 0.959 . S
H81 C19 0.960 . S
H82 C19 0.960 1_455 S
H83 C19 0.960 . S
H84 C55 0.980 . S
H85 C21 0.930 . S
H86 C25 0.930 . S
H87 C26 0.961 . S
H88 C26 0.960 . S
H89 C26 0.958 . S
H90 C27 0.961 . S
H91 C27 0.960 . S
H92 C27 0.960 . S
H93 C29 0.980 . S
H94 C28 0.961 . S
H95 C28 0.961 . S
H96 C28 0.959 . S
H97 C31 0.932 . S
H98 C35 0.929 . S
H99 C36 0.961 . S
H100 C36 0.959 1_655 S
H101 C36 0.959 . S
H102 C37 0.960 . S
H103 C37 0.962 . S
H104 C37 0.961 . S
H105 C39 0.929 . S
H106 C42 0.930 . S
H107 C43 0.929 . S
H108 C46 0.930 . S
H109 C49 0.929 . S
H110 C50 0.930 . S
H111 C54 0.962 . S
H112 C54 0.959 . S
H113 C54 0.958 . S
C114 C115 1.560 . S
C114 H175 0.959 . S
C114 H176 0.959 . S
C114 H177 0.960 . S
C115 C114 1.560 . S
C115 O170 1.426 . S
C115 H174 0.980 . S
C116 C117 1.407 . S
C116 C121 1.418 . S
C116 O170 1.334 . S
C117 C116 1.407 . S
C117 C118 1.360 . S
C117 H178 0.929 . S
C118 C117 1.360 . S
C118 C119 1.401 . S
C118 C122 1.527 . S
C119 C118 1.401 . S
C119 C120 1.405 . S
C119 C152 1.587 . S
C120 C119 1.405 . S
C120 C121 1.332 . S
C120 C123 1.496 . S
C121 C116 1.418 . S
C121 C120 1.332 . S
C121 H179 0.929 . S
C122 C118 1.527 . S
C122 H180 0.959 . S
C122 H181 0.961 . S
C122 H182 0.961 . S
C123 C120 1.496 . S
C123 H183 0.960 . S
C123 H184 0.960 . S
C123 H185 0.961 . S
C124 C125 1.517 . S
C124 H187 0.961 . S
C124 H188 0.960 . S
C124 H189 0.959 . S
C125 C124 1.517 . S
C125 O173 1.468 . S
C125 H186 0.980 . S
C126 C127 1.349 . S
C126 C131 1.367 . S
C126 O173 1.408 . S
C127 C126 1.349 . S
C127 C128 1.407 . S
C127 H190 0.930 . S
C128 C127 1.407 . S
C128 C129 1.449 . S
C128 C132 1.535 . S
C129 C128 1.449 . S
C129 C130 1.384 . S
C129 C154 1.553 . S
C130 C129 1.384 . S
C130 C131 1.364 . S
C130 C133 1.450 . S
C131 C126 1.367 . S
C131 C130 1.364 . S
C131 H191 0.931 . S
C132 C128 1.535 . S
C132 H192 0.959 . S
C132 H193 0.961 . S
C132 H194 0.959 . S
C133 C130 1.450 . S
C133 H195 0.960 . S
C133 H196 0.960 . S
C133 H197 0.960 . S
C134 C135 1.309 . S
C134 C139 1.304 . S
C134 O172 1.435 . S
C135 C134 1.309 . S
C135 C136 1.476 . S
C135 H199 0.930 . S
C136 C135 1.476 . S
C136 C137 1.400 . S
C136 C140 1.567 . S
C137 C136 1.400 . S
C137 C138 1.373 . S
C137 C159 1.432 . S
C138 C137 1.373 . S
C138 C139 1.339 . S
C138 C141 1.530 . S
C139 C134 1.304 . S
C139 C138 1.339 . S
C139 H200 0.930 . S
C140 C136 1.567 . S
C140 H201 0.961 . S
C140 H202 0.960 . S
C140 H203 0.958 . S
C141 C138 1.530 . S
C141 H204 0.961 . S
C141 H205 0.960 . S
C141 H206 0.960 . S
C142 C143 1.530 . S
C142 H208 0.961 . S
C142 H209 0.961 . S
C142 H210 0.959 . S
C143 C142 1.530 . S
C143 O171 1.412 . S
C143 H207 0.980 . S
C144 C145 1.288 . S
C144 C149 1.377 . S
C144 O171 1.393 . S
C145 C144 1.288 . S
C145 C146 1.369 . S
C145 H211 0.932 . S
C146 C145 1.369 . S
C146 C147 1.398 . S
C146 C150 1.527 1_565 S
C147 C146 1.398 . S
C147 C148 1.380 . S
C147 C161 1.497 1_565 S
C148 C147 1.380 . S
C148 C149 1.383 . S
C148 C151 1.603 . S
C149 C144 1.377 . S
C149 C148 1.383 . S
C149 H212 0.929 . S
C150 C146 1.527 1_545 S
C150 H213 0.961 . S
C150 H214 0.959 . S
C150 H215 0.959 . S
C151 C148 1.603 . S
C151 H216 0.960 . S
C151 H217 0.962 1_565 S
C151 H218 0.961 . S
C152 C119 1.587 . S
C152 C153 1.360 . S
C152 C165 1.412 . S
C153 C152 1.360 . S
C153 C154 1.365 1_565 S
C153 H219 0.929 . S
C154 C129 1.553 . S
C154 C153 1.365 1_545 S
C154 C155 1.404 . S
C155 C154 1.404 . S
C155 C156 1.395 . S
C155 C166 1.451 . S
C156 C155 1.395 . S
C156 C157 1.322 . S
C156 H220 0.930 . S
C157 C156 1.322 . S
C157 C158 1.459 . S
C157 H221 0.929 . S
C158 C157 1.459 . S
C158 C159 1.445 . S
C158 C167 1.395 . S
C159 C137 1.432 . S
C159 C158 1.445 . S
C159 C160 1.370 . S
C160 C159 1.370 . S
C160 C161 1.438 . S
C160 H222 0.930 . S
C161 C147 1.497 1_545 S
C161 C160 1.438 . S
C161 C162 1.360 . S
C162 C161 1.360 . S
C162 C163 1.401 1_545 S
C162 C167 1.446 . S
C163 C162 1.401 1_565 S
C163 C164 1.347 . S
C163 H223 0.929 . S
C164 C163 1.347 . S
C164 C165 1.455 . S
C164 H224 0.930 . S
C165 C152 1.412 . S
C165 C164 1.455 . S
C165 C166 1.331 1_565 S
C166 C155 1.451 . S
C166 C165 1.331 1_545 S
C166 C167 1.497 . S
C167 C158 1.395 . S
C167 C162 1.446 . S
C167 C166 1.497 . S
C168 C169 1.582 . S
C168 H225 0.962 . S
C168 H226 0.959 . S
C168 H227 0.958 . S
C169 C168 1.582 . S
C169 O172 1.458 . S
C169 H198 0.980 . S
O170 C115 1.426 . S
O170 C116 1.334 . S
O171 C143 1.412 . S
O171 C144 1.393 . S
O172 C134 1.435 . S
O172 C169 1.458 . S
O173 C125 1.468 . S
O173 C126 1.408 . S
H174 C115 0.980 . S
H175 C114 0.959 . S
H176 C114 0.959 . S
H177 C114 0.960 . S
H178 C117 0.929 . S
H179 C121 0.929 . S
H180 C122 0.959 . S
H181 C122 0.961 . S
H182 C122 0.961 . S
H183 C123 0.960 . S
H184 C123 0.960 . S
H185 C123 0.961 . S
H186 C125 0.980 . S
H187 C124 0.961 . S
H188 C124 0.960 . S
H189 C124 0.959 . S
H190 C127 0.930 . S
H191 C131 0.931 . S
H192 C132 0.959 . S
H193 C132 0.961 . S
H194 C132 0.959 . S
H195 C133 0.960 . S
H196 C133 0.960 . S
H197 C133 0.960 . S
H198 C169 0.980 . S
H199 C135 0.930 . S
H200 C139 0.930 . S
H201 C140 0.961 . S
H202 C140 0.960 . S
H203 C140 0.958 . S
H204 C141 0.961 . S
H205 C141 0.960 . S
H206 C141 0.960 . S
H207 C143 0.980 . S
H208 C142 0.961 . S
H209 C142 0.961 . S
H210 C142 0.959 . S
H211 C145 0.932 . S
H212 C149 0.929 . S
H213 C150 0.961 . S
H214 C150 0.959 . S
H215 C150 0.959 . S
H216 C151 0.960 . S
H217 C151 0.962 1_545 S
H218 C151 0.961 . S
H219 C153 0.929 . S
H220 C156 0.930 . S
H221 C157 0.929 . S
H222 C160 0.930 . S
H223 C163 0.929 . S
H224 C164 0.930 . S
H225 C168 0.962 . S
H226 C168 0.959 . S
H227 C168 0.958 . S
C228 C229 1.560 . S
C228 H289 0.959 . S
C228 H290 0.959 . S
C228 H291 0.960 . S
C229 C228 1.560 . S
C229 O284 1.426 . S
C229 H288 0.980 . S
C230 C231 1.407 . S
C230 C235 1.418 . S
C230 O284 1.334 . S
C231 C230 1.407 . S
C231 C232 1.360 . S
C231 H292 0.929 . S
C232 C231 1.360 . S
C232 C233 1.401 . S
C232 C236 1.527 . S
C233 C232 1.401 . S
C233 C234 1.405 . S
C233 C266 1.587 . S
C234 C233 1.405 . S
C234 C235 1.332 . S
C234 C237 1.496 . S
C235 C230 1.418 . S
C235 C234 1.332 . S
C235 H293 0.929 . S
C236 C232 1.527 . S
C236 H294 0.959 . S
C236 H295 0.961 . S
C236 H296 0.961 . S
C237 C234 1.496 . S
C237 H297 0.960 . S
C237 H298 0.960 . S
C237 H299 0.961 . S
C238 C239 1.517 . S
C238 H301 0.961 . S
C238 H302 0.960 . S
C238 H303 0.959 . S
C239 C238 1.517 . S
C239 O287 1.468 . S
C239 H300 0.980 . S
C240 C241 1.349 . S
C240 C245 1.367 . S
C240 O287 1.408 . S
C241 C240 1.349 . S
C241 C242 1.407 . S
C241 H304 0.930 . S
C242 C241 1.407 . S
C242 C243 1.449 . S
C242 C246 1.535 . S
C243 C242 1.449 . S
C243 C244 1.384 . S
C243 C268 1.553 . S
C244 C243 1.384 . S
C244 C245 1.364 . S
C244 C247 1.450 . S
C245 C240 1.367 . S
C245 C244 1.364 . S
C245 H305 0.931 . S
C246 C242 1.535 . S
C246 H306 0.959 . S
C246 H307 0.961 . S
C246 H308 0.959 . S
C247 C244 1.450 . S
C247 H309 0.960 . S
C247 H310 0.960 . S
C247 H311 0.960 . S
C248 C249 1.309 . S
C248 C253 1.304 . S
C248 O286 1.435 . S
C249 C248 1.309 . S
C249 C250 1.476 . S
C249 H313 0.930 . S
C250 C249 1.476 . S
C250 C251 1.400 . S
C250 C254 1.567 . S
C251 C250 1.400 . S
C251 C252 1.373 . S
C251 C273 1.432 . S
C252 C251 1.373 . S
C252 C253 1.339 . S
C252 C255 1.530 . S
C253 C248 1.304 . S
C253 C252 1.339 . S
C253 H314 0.930 . S
C254 C250 1.567 . S
C254 H315 0.961 . S
C254 H316 0.960 . S
C254 H317 0.958 . S
C255 C252 1.530 . S
C255 H318 0.961 . S
C255 H319 0.960 . S
C255 H320 0.960 . S
C256 C257 1.530 . S
C256 H322 0.961 . S
C256 H323 0.961 . S
C256 H324 0.959 . S
C257 C256 1.530 . S
C257 O285 1.412 . S
C257 H321 0.980 . S
C258 C259 1.288 . S
C258 C263 1.377 . S
C258 O285 1.393 . S
C259 C258 1.288 . S
C259 C260 1.369 . S
C259 H325 0.932 . S
C260 C259 1.369 . S
C260 C261 1.398 . S
C260 C264 1.527 . S
C261 C260 1.398 . S
C261 C262 1.380 . S
C261 C275 1.497 . S
C262 C261 1.380 . S
C262 C263 1.383 . S
C262 C265 1.603 . S
C263 C258 1.377 . S
C263 C262 1.383 . S
C263 H326 0.929 . S
C264 C260 1.527 . S
C264 H327 0.961 . S
C264 H328 0.959 . S
C264 H329 0.959 . S
C265 C262 1.603 . S
C265 H330 0.960 . S
C265 H331 0.962 . S
C265 H332 0.961 . S
C266 C233 1.587 . S
C266 C267 1.360 . S
C266 C279 1.412 . S
C267 C266 1.360 . S
C267 C268 1.365 . S
C267 H333 0.929 . S
C268 C243 1.553 . S
C268 C267 1.365 . S
C268 C269 1.404 . S
C269 C268 1.404 . S
C269 C270 1.395 . S
C269 C280 1.451 . S
C270 C269 1.395 . S
C270 C271 1.322 . S
C270 H334 0.930 . S
C271 C270 1.322 . S
C271 C272 1.459 . S
C271 H335 0.929 . S
C272 C271 1.459 . S
C272 C273 1.445 . S
C272 C281 1.395 . S
C273 C251 1.432 . S
C273 C272 1.445 . S
C273 C274 1.370 . S
C274 C273 1.370 . S
C274 C275 1.438 . S
C274 H336 0.930 . S
C275 C261 1.497 . S
C275 C274 1.438 . S
C275 C276 1.360 . S
C276 C275 1.360 . S
C276 C277 1.401 . S
C276 C281 1.446 . S
C277 C276 1.401 . S
C277 C278 1.347 . S
C277 H337 0.929 . S
C278 C277 1.347 . S
C278 C279 1.455 . S
C278 H338 0.930 . S
C279 C266 1.412 . S
C279 C278 1.455 . S
C279 C280 1.331 . S
C280 C269 1.451 . S
C280 C279 1.331 . S
C280 C281 1.497 . S
C281 C272 1.395 . S
C281 C276 1.446 . S
C281 C280 1.497 . S
C282 C283 1.582 . S
C282 H339 0.962 . S
C282 H340 0.959 . S
C282 H341 0.958 . S
C283 C282 1.582 . S
C283 O286 1.458 . S
C283 H312 0.980 . S
O284 C229 1.426 . S
O284 C230 1.334 . S
O285 C257 1.412 . S
O285 C258 1.393 . S
O286 C248 1.435 . S
O286 C283 1.458 . S
O287 C239 1.468 . S
O287 C240 1.408 . S
H288 C229 0.980 . S
H289 C228 0.959 . S
H290 C228 0.959 . S
H291 C228 0.960 . S
H292 C231 0.929 . S
H293 C235 0.929 . S
H294 C236 0.959 . S
H295 C236 0.961 . S
H296 C236 0.961 . S
H297 C237 0.960 . S
H298 C237 0.960 . S
H299 C237 0.961 . S
H300 C239 0.980 . S
H301 C238 0.961 . S
H302 C238 0.960 . S
H303 C238 0.959 . S
H304 C241 0.930 . S
H305 C245 0.931 . S
H306 C246 0.959 . S
H307 C246 0.961 . S
H308 C246 0.959 . S
H309 C247 0.960 . S
H310 C247 0.960 . S
H311 C247 0.960 . S
H312 C283 0.980 . S
H313 C249 0.930 . S
H314 C253 0.930 . S
H315 C254 0.961 . S
H316 C254 0.960 . S
H317 C254 0.958 . S
H318 C255 0.961 . S
H319 C255 0.960 . S
H320 C255 0.960 . S
H321 C257 0.980 . S
H322 C256 0.961 . S
H323 C256 0.961 . S
H324 C256 0.959 . S
H325 C259 0.932 . S
H326 C263 0.929 . S
H327 C264 0.961 . S
H328 C264 0.959 . S
H329 C264 0.959 . S
H330 C265 0.960 . S
H331 C265 0.962 . S
H332 C265 0.961 . S
H333 C267 0.929 . S
H334 C270 0.930 . S
H335 C271 0.929 . S
H336 C274 0.930 . S
H337 C277 0.929 . S
H338 C278 0.930 . S
H339 C282 0.962 . S
H340 C282 0.959 . S
H341 C282 0.958 . S
C342 C343 1.560 . S
C342 H403 0.959 . S
C342 H404 0.959 . S
C342 H405 0.960 . S
C343 C342 1.560 . S
C343 O398 1.426 . S
C343 H402 0.980 . S
C344 C345 1.407 . S
C344 C349 1.418 . S
C344 O398 1.334 . S
C345 C344 1.407 . S
C345 C346 1.360 . S
C345 H406 0.929 . S
C346 C345 1.360 . S
C346 C347 1.401 . S
C346 C350 1.527 . S
C347 C346 1.401 . S
C347 C348 1.405 . S
C347 C380 1.587 . S
C348 C347 1.405 . S
C348 C349 1.332 . S
C348 C351 1.496 . S
C349 C344 1.418 . S
C349 C348 1.332 . S
C349 H407 0.929 . S
C350 C346 1.527 . S
C350 H408 0.959 . S
C350 H409 0.961 . S
C350 H410 0.961 . S
C351 C348 1.496 . S
C351 H411 0.960 . S
C351 H412 0.960 . S
C351 H413 0.961 . S
C352 C353 1.517 . S
C352 H415 0.961 . S
C352 H416 0.960 . S
C352 H417 0.959 . S
C353 C352 1.517 . S
C353 O401 1.468 . S
C353 H414 0.980 . S
C354 C355 1.349 . S
C354 C359 1.367 . S
C354 O401 1.408 . S
C355 C354 1.349 . S
C355 C356 1.407 . S
C355 H418 0.930 . S
C356 C355 1.407 . S
C356 C357 1.449 . S
C356 C360 1.535 . S
C357 C356 1.449 . S
C357 C358 1.384 . S
C357 C382 1.553 1_655 S
C358 C357 1.384 . S
C358 C359 1.364 . S
C358 C361 1.450 . S
C359 C354 1.367 . S
C359 C358 1.364 . S
C359 H419 0.931 . S
C360 C356 1.535 . S
C360 H420 0.959 1_655 S
C360 H421 0.961 1_655 S
C360 H422 0.959 . S
C361 C358 1.450 . S
C361 H423 0.960 . S
C361 H424 0.960 1_655 S
C361 H425 0.960 . S
C362 C363 1.309 . S
C362 C367 1.304 . S
C362 O400 1.435 . S
C363 C362 1.309 . S
C363 C364 1.476 . S
C363 H427 0.930 . S
C364 C363 1.476 . S
C364 C365 1.400 . S
C364 C368 1.567 . S
C365 C364 1.400 . S
C365 C366 1.373 . S
C365 C387 1.432 . S
C366 C365 1.373 . S
C366 C367 1.339 . S
C366 C369 1.530 . S
C367 C362 1.304 . S
C367 C366 1.339 . S
C367 H428 0.930 . S
C368 C364 1.567 . S
C368 H429 0.961 . S
C368 H430 0.960 . S
C368 H431 0.958 . S
C369 C366 1.530 . S
C369 H432 0.961 . S
C369 H433 0.960 . S
C369 H434 0.960 . S
C370 C371 1.530 . S
C370 H436 0.961 . S
C370 H437 0.961 . S
C370 H438 0.959 . S
C371 C370 1.530 . S
C371 O399 1.412 . S
C371 H435 0.980 . S
C372 C373 1.288 . S
C372 C377 1.377 . S
C372 O399 1.393 . S
C373 C372 1.288 . S
C373 C374 1.369 . S
C373 H439 0.932 . S
C374 C373 1.369 . S
C374 C375 1.398 . S
C374 C378 1.527 . S
C375 C374 1.398 . S
C375 C376 1.380 . S
C375 C389 1.497 . S
C376 C375 1.380 . S
C376 C377 1.383 . S
C376 C379 1.603 . S
C377 C372 1.377 . S
C377 C376 1.383 . S
C377 H440 0.929 . S
C378 C374 1.527 . S
C378 H441 0.961 . S
C378 H442 0.959 1_455 S
C378 H443 0.959 . S
C379 C376 1.603 . S
C379 H444 0.960 . S
C379 H445 0.962 . S
C379 H446 0.961 . S
C380 C347 1.587 . S
C380 C381 1.360 . S
C380 C393 1.412 . S
C381 C380 1.360 . S
C381 C382 1.365 . S
C381 H447 0.929 . S
C382 C357 1.553 1_455 S
C382 C381 1.365 . S
C382 C383 1.411 . S
C383 C382 1.411 . S
C383 C384 1.379 1_455 S
C383 C394 1.463 . S
C384 C383 1.379 1_655 S
C384 C385 1.322 . S
C384 H448 0.930 . S
C385 C384 1.322 . S
C385 C386 1.459 . S
C385 H449 0.929 . S
C386 C385 1.459 . S
C386 C387 1.445 . S
C386 C395 1.395 1_655 S
C387 C365 1.432 . S
C387 C386 1.445 . S
C387 C388 1.370 . S
C388 C387 1.370 . S
C388 C389 1.438 1_655 S
C388 H450 0.930 . S
C389 C375 1.497 . S
C389 C388 1.438 1_455 S
C389 C390 1.360 . S
C390 C389 1.360 . S
C390 C391 1.401 . S
C390 C395 1.446 . S
C391 C390 1.401 . S
C391 C392 1.347 . S
C391 H451 0.929 . S
C392 C391 1.347 . S
C392 C393 1.455 . S
C392 H452 0.930 . S
C393 C380 1.412 . S
C393 C392 1.455 . S
C393 C394 1.331 . S
C394 C383 1.463 . S
C394 C393 1.331 . S
C394 C395 1.497 . S
C395 C386 1.395 1_455 S
C395 C390 1.446 . S
C395 C394 1.497 . S
C396 C397 1.582 . S
C396 H453 0.962 . S
C396 H454 0.959 . S
C396 H455 0.958 . S
C397 C396 1.582 . S
C397 O400 1.458 . S
C397 H426 0.980 . S
O398 C343 1.426 . S
O398 C344 1.334 . S
O399 C371 1.412 . S
O399 C372 1.393 . S
O400 C362 1.435 . S
O400 C397 1.458 . S
O401 C353 1.468 . S
O401 C354 1.408 . S
H402 C343 0.980 . S
H403 C342 0.959 . S
H404 C342 0.959 . S
H405 C342 0.960 . S
H406 C345 0.929 . S
H407 C349 0.929 . S
H408 C350 0.959 . S
H409 C350 0.961 . S
H410 C350 0.961 . S
H411 C351 0.960 . S
H412 C351 0.960 . S
H413 C351 0.961 . S
H414 C353 0.980 . S
H415 C352 0.961 . S
H416 C352 0.960 . S
H417 C352 0.959 . S
H418 C355 0.930 . S
H419 C359 0.931 . S
H420 C360 0.959 1_455 S
H421 C360 0.961 1_455 S
H422 C360 0.959 . S
H423 C361 0.960 . S
H424 C361 0.960 1_455 S
H425 C361 0.960 . S
H426 C397 0.980 . S
H427 C363 0.930 . S
H428 C367 0.930 . S
H429 C368 0.961 . S
H430 C368 0.960 . S
H431 C368 0.958 . S
H432 C369 0.961 . S
H433 C369 0.960 . S
H434 C369 0.960 . S
H435 C371 0.980 . S
H436 C370 0.961 . S
H437 C370 0.961 . S
H438 C370 0.959 . S
H439 C373 0.932 . S
H440 C377 0.929 . S
H441 C378 0.961 . S
H442 C378 0.959 1_655 S
H443 C378 0.959 . S
H444 C379 0.960 . S
H445 C379 0.962 . S
H446 C379 0.961 . S
H447 C381 0.929 . S
H448 C384 0.930 . S
H449 C385 0.929 . S
H450 C388 0.930 . S
H451 C391 0.929 . S
H452 C392 0.930 . S
H453 C396 0.962 . S
H454 C396 0.959 . S
H455 C396 0.958 . S
C456 C457 1.560 . S
C456 H517 0.959 . S
C456 H518 0.959 . S
C456 H519 0.960 . S
C457 C456 1.560 . S
C457 O512 1.426 . S
C457 H516 0.980 . S
C458 C459 1.407 . S
C458 C463 1.418 . S
C458 O512 1.334 . S
C459 C458 1.407 . S
C459 C460 1.360 . S
C459 H520 0.929 . S
C460 C459 1.360 . S
C460 C461 1.401 . S
C460 C464 1.527 . S
C461 C460 1.401 . S
C461 C462 1.405 . S
C461 C494 1.587 . S
C462 C461 1.405 . S
C462 C463 1.332 . S
C462 C465 1.496 . S
C463 C458 1.418 . S
C463 C462 1.332 . S
C463 H521 0.929 . S
C464 C460 1.527 . S
C464 H522 0.959 . S
C464 H523 0.961 . S
C464 H524 0.961 . S
C465 C462 1.496 . S
C465 H525 0.960 . S
C465 H526 0.960 . S
C465 H527 0.961 . S
C466 C467 1.517 . S
C466 H529 0.961 . S
C466 H530 0.960 . S
C466 H531 0.959 . S
C467 C466 1.517 . S
C467 O515 1.468 . S
C467 H528 0.980 . S
C468 C469 1.349 . S
C468 C473 1.367 . S
C468 O515 1.408 . S
C469 C468 1.349 . S
C469 C470 1.407 . S
C469 H532 0.930 . S
C470 C469 1.407 . S
C470 C471 1.449 . S
C470 C474 1.535 . S
C471 C470 1.449 . S
C471 C472 1.384 . S
C471 C496 1.553 . S
C472 C471 1.384 . S
C472 C473 1.364 . S
C472 C475 1.450 . S
C473 C468 1.367 . S
C473 C472 1.364 . S
C473 H533 0.931 . S
C474 C470 1.535 . S
C474 H534 0.959 . S
C474 H535 0.961 . S
C474 H536 0.959 . S
C475 C472 1.450 . S
C475 H537 0.960 . S
C475 H538 0.960 . S
C475 H539 0.960 . S
C476 C477 1.309 . S
C476 C481 1.304 . S
C476 O514 1.435 . S
C477 C476 1.309 . S
C477 C478 1.476 . S
C477 H541 0.930 . S
C478 C477 1.476 . S
C478 C479 1.400 . S
C478 C482 1.567 . S
C479 C478 1.400 . S
C479 C480 1.373 . S
C479 C501 1.432 . S
C480 C479 1.373 . S
C480 C481 1.339 . S
C480 C483 1.530 . S
C481 C476 1.304 . S
C481 C480 1.339 . S
C481 H542 0.930 . S
C482 C478 1.567 . S
C482 H543 0.961 . S
C482 H544 0.960 . S
C482 H545 0.958 . S
C483 C480 1.530 . S
C483 H546 0.961 . S
C483 H547 0.960 . S
C483 H548 0.960 . S
C484 C485 1.530 . S
C484 H550 0.961 . S
C484 H551 0.961 . S
C484 H552 0.959 . S
C485 C484 1.530 . S
C485 O513 1.412 . S
C485 H549 0.980 . S
C486 C487 1.288 . S
C486 C491 1.377 . S
C486 O513 1.393 . S
C487 C486 1.288 . S
C487 C488 1.369 1_565 S
C487 H553 0.932 . S
C488 C487 1.369 1_545 S
C488 C489 1.398 . S
C488 C492 1.527 . S
C489 C488 1.398 . S
C489 C490 1.380 1_545 S
C489 C503 1.497 . S
C490 C489 1.380 1_565 S
C490 C491 1.383 . S
C490 C493 1.603 . S
C491 C486 1.377 . S
C491 C490 1.383 . S
C491 H554 0.929 . S
C492 C488 1.527 . S
C492 H555 0.961 . S
C492 H556 0.959 . S
C492 H557 0.959 . S
C493 C490 1.603 . S
C493 H558 0.960 . S
C493 H559 0.962 1_565 S
C493 H560 0.961 . S
C494 C461 1.587 . S
C494 C495 1.360 . S
C494 C507 1.412 . S
C495 C494 1.360 . S
C495 C496 1.365 1_565 S
C495 H561 0.929 . S
C496 C471 1.553 . S
C496 C495 1.365 1_545 S
C496 C497 1.404 . S
C497 C496 1.404 . S
C497 C498 1.395 . S
C497 C508 1.451 . S
C498 C497 1.395 . S
C498 C499 1.322 . S
C498 H562 0.930 . S
C499 C498 1.322 . S
C499 C500 1.459 . S
C499 H563 0.929 . S
C500 C499 1.459 . S
C500 C501 1.445 1_556 S
C500 C509 1.395 . S
C501 C479 1.432 . S
C501 C500 1.445 1_554 S
C501 C502 1.370 . S
C502 C501 1.370 . S
C502 C503 1.438 . S
C502 H564 0.930 . S
C503 C489 1.497 . S
C503 C502 1.438 . S
C503 C504 1.360 . S
C504 C503 1.360 . S
C504 C505 1.401 1_545 S
C504 C509 1.446 1_554 S
C505 C504 1.401 1_565 S
C505 C506 1.347 1_554 S
C505 H565 0.929 . S
C506 C505 1.347 1_556 S
C506 C507 1.455 . S
C506 H566 0.930 . S
C507 C494 1.412 . S
C507 C506 1.455 . S
C507 C508 1.331 1_565 S
C508 C497 1.451 . S
C508 C507 1.331 1_545 S
C508 C509 1.497 . S
C509 C500 1.395 . S
C509 C504 1.446 1_556 S
C509 C508 1.497 . S
C510 C511 1.582 . S
C510 H567 0.962 . S
C510 H568 0.959 . S
C510 H569 0.958 . S
C511 C510 1.582 . S
C511 O514 1.458 . S
C511 H540 0.980 . S
O512 C457 1.426 . S
O512 C458 1.334 . S
O513 C485 1.412 . S
O513 C486 1.393 . S
O514 C476 1.435 . S
O514 C511 1.458 . S
O515 C467 1.468 . S
O515 C468 1.408 . S
H516 C457 0.980 . S
H517 C456 0.959 . S
H518 C456 0.959 . S
H519 C456 0.960 . S
H520 C459 0.929 . S
H521 C463 0.929 . S
H522 C464 0.959 . S
H523 C464 0.961 . S
H524 C464 0.961 . S
H525 C465 0.960 . S
H526 C465 0.960 . S
H527 C465 0.961 . S
H528 C467 0.980 . S
H529 C466 0.961 . S
H530 C466 0.960 . S
H531 C466 0.959 . S
H532 C469 0.930 . S
H533 C473 0.931 . S
H534 C474 0.959 . S
H535 C474 0.961 . S
H536 C474 0.959 . S
H537 C475 0.960 . S
H538 C475 0.960 . S
H539 C475 0.960 . S
H540 C511 0.980 . S
H541 C477 0.930 . S
H542 C481 0.930 . S
H543 C482 0.961 . S
H544 C482 0.960 . S
H545 C482 0.958 . S
H546 C483 0.961 . S
H547 C483 0.960 . S
H548 C483 0.960 . S
H549 C485 0.980 . S
H550 C484 0.961 . S
H551 C484 0.961 . S
H552 C484 0.959 . S
H553 C487 0.932 . S
H554 C491 0.929 . S
H555 C492 0.961 . S
H556 C492 0.959 . S
H557 C492 0.959 . S
H558 C493 0.960 . S
H559 C493 0.962 1_545 S
H560 C493 0.961 . S
H561 C495 0.929 . S
H562 C498 0.930 . S
H563 C499 0.929 . S
H564 C502 0.930 . S
H565 C505 0.929 . S
H566 C506 0.930 . S
H567 C510 0.962 . S
H568 C510 0.959 . S
H569 C510 0.958 . S
C570 C571 1.560 . S
C570 H631 0.959 . S
C570 H632 0.959 . S
C570 H633 0.960 . S
C571 C570 1.560 . S
C571 O626 1.426 . S
C571 H630 0.980 . S
C572 C573 1.407 . S
C572 C577 1.418 . S
C572 O626 1.334 . S
C573 C572 1.407 . S
C573 C574 1.360 . S
C573 H634 0.929 . S
C574 C573 1.360 . S
C574 C575 1.401 . S
C574 C578 1.527 . S
C575 C574 1.401 . S
C575 C576 1.405 . S
C575 C608 1.587 . S
C576 C575 1.405 . S
C576 C577 1.332 . S
C576 C579 1.496 . S
C577 C572 1.418 . S
C577 C576 1.332 . S
C577 H635 0.929 . S
C578 C574 1.527 . S
C578 H636 0.959 . S
C578 H637 0.961 . S
C578 H638 0.961 . S
C579 C576 1.496 . S
C579 H639 0.960 . S
C579 H640 0.960 . S
C579 H641 0.961 . S
C580 C581 1.517 . S
C580 H643 0.961 . S
C580 H644 0.960 . S
C580 H645 0.959 . S
C581 C580 1.517 . S
C581 O629 1.468 . S
C581 H642 0.980 . S
C582 C583 1.349 . S
C582 C587 1.367 . S
C582 O629 1.408 . S
C583 C582 1.349 . S
C583 C584 1.407 . S
C583 H646 0.930 . S
C584 C583 1.407 . S
C584 C585 1.449 . S
C584 C588 1.535 . S
C585 C584 1.449 . S
C585 C586 1.384 . S
C585 C610 1.553 . S
C586 C585 1.384 . S
C586 C587 1.364 . S
C586 C589 1.450 . S
C587 C582 1.367 . S
C587 C586 1.364 . S
C587 H647 0.931 . S
C588 C584 1.535 . S
C588 H648 0.959 . S
C588 H649 0.961 . S
C588 H650 0.959 . S
C589 C586 1.450 . S
C589 H651 0.960 . S
C589 H652 0.960 . S
C589 H653 0.960 . S
C590 C591 1.309 . S
C590 C595 1.304 . S
C590 O628 1.435 . S
C591 C590 1.309 . S
C591 C592 1.476 . S
C591 H655 0.930 . S
C592 C591 1.476 . S
C592 C593 1.400 . S
C592 C596 1.567 . S
C593 C592 1.400 . S
C593 C594 1.373 . S
C593 C615 1.432 . S
C594 C593 1.373 . S
C594 C595 1.339 . S
C594 C597 1.530 . S
C595 C590 1.304 . S
C595 C594 1.339 . S
C595 H656 0.930 . S
C596 C592 1.567 . S
C596 H657 0.961 . S
C596 H658 0.960 . S
C596 H659 0.958 . S
C597 C594 1.530 . S
C597 H660 0.961 . S
C597 H661 0.960 . S
C597 H662 0.960 . S
C598 C599 1.530 . S
C598 H664 0.961 . S
C598 H665 0.961 . S
C598 H666 0.959 . S
C599 C598 1.530 . S
C599 O627 1.412 . S
C599 H663 0.980 . S
C600 C601 1.288 . S
C600 C605 1.377 . S
C600 O627 1.393 . S
C601 C600 1.288 . S
C601 C602 1.369 . S
C601 H667 0.932 . S
C602 C601 1.369 . S
C602 C603 1.398 . S
C602 C606 1.527 . S
C603 C602 1.398 . S
C603 C604 1.380 . S
C603 C617 1.497 . S
C604 C603 1.380 . S
C604 C605 1.383 . S
C604 C607 1.603 . S
C605 C600 1.377 . S
C605 C604 1.383 . S
C605 H668 0.929 . S
C606 C602 1.527 . S
C606 H669 0.961 . S
C606 H670 0.959 . S
C606 H671 0.959 . S
C607 C604 1.603 . S
C607 H672 0.960 . S
C607 H673 0.962 . S
C607 H674 0.961 . S
C608 C575 1.587 . S
C608 C609 1.360 . S
C608 C621 1.412 . S
C609 C608 1.360 . S
C609 C610 1.365 . S
C609 H675 0.929 . S
C610 C585 1.553 . S
C610 C609 1.365 . S
C610 C611 1.404 . S
C611 C610 1.404 . S
C611 C612 1.395 . S
C611 C622 1.451 . S
C612 C611 1.395 . S
C612 C613 1.322 . S
C612 H676 0.930 . S
C613 C612 1.322 . S
C613 C614 1.459 . S
C613 H677 0.929 . S
C614 C613 1.459 . S
C614 C615 1.445 . S
C614 C623 1.395 . S
C615 C593 1.432 . S
C615 C614 1.445 . S
C615 C616 1.370 . S
C616 C615 1.370 . S
C616 C617 1.438 . S
C616 H678 0.930 . S
C617 C603 1.497 . S
C617 C616 1.438 . S
C617 C618 1.360 . S
C618 C617 1.360 . S
C618 C619 1.401 . S
C618 C623 1.446 . S
C619 C618 1.401 . S
C619 C620 1.347 . S
C619 H679 0.929 . S
C620 C619 1.347 . S
C620 C621 1.455 . S
C620 H680 0.930 . S
C621 C608 1.412 . S
C621 C620 1.455 . S
C621 C622 1.331 . S
C622 C611 1.451 . S
C622 C621 1.331 . S
C622 C623 1.497 . S
C623 C614 1.395 . S
C623 C618 1.446 . S
C623 C622 1.497 . S
C624 C625 1.582 . S
C624 H681 0.962 . S
C624 H682 0.959 . S
C624 H683 0.958 . S
C625 C624 1.582 . S
C625 O628 1.458 . S
C625 H654 0.980 . S
O626 C571 1.426 . S
O626 C572 1.334 . S
O627 C599 1.412 . S
O627 C600 1.393 . S
O628 C590 1.435 . S
O628 C625 1.458 . S
O629 C581 1.468 . S
O629 C582 1.408 . S
H630 C571 0.980 . S
H631 C570 0.959 . S
H632 C570 0.959 . S
H633 C570 0.960 . S
H634 C573 0.929 . S
H635 C577 0.929 . S
H636 C578 0.959 . S
H637 C578 0.961 . S
H638 C578 0.961 . S
H639 C579 0.960 . S
H640 C579 0.960 . S
H641 C579 0.961 . S
H642 C581 0.980 . S
H643 C580 0.961 . S
H644 C580 0.960 . S
H645 C580 0.959 . S
H646 C583 0.930 . S
H647 C587 0.931 . S
H648 C588 0.959 . S
H649 C588 0.961 . S
H650 C588 0.959 . S
H651 C589 0.960 . S
H652 C589 0.960 . S
H653 C589 0.960 . S
H654 C625 0.980 . S
H655 C591 0.930 . S
H656 C595 0.930 . S
H657 C596 0.961 . S
H658 C596 0.960 . S
H659 C596 0.958 . S
H660 C597 0.961 . S
H661 C597 0.960 . S
H662 C597 0.960 . S
H663 C599 0.980 . S
H664 C598 0.961 . S
H665 C598 0.961 . S
H666 C598 0.959 . S
H667 C601 0.932 . S
H668 C605 0.929 . S
H669 C606 0.961 . S
H670 C606 0.959 . S
H671 C606 0.959 . S
H672 C607 0.960 . S
H673 C607 0.962 . S
H674 C607 0.961 . S
H675 C609 0.929 . S
H676 C612 0.930 . S
H677 C613 0.929 . S
H678 C616 0.930 . S
H679 C619 0.929 . S
H680 C620 0.930 . S
H681 C624 0.962 . S
H682 C624 0.959 . S
H683 C624 0.958 . S
Mg684 O685 2.028 . S
Mg684 O691 1.986 . S
Mg684 O693 2.114 . S
Mg684 O694 2.251 . S
Mg684 O697 2.010 . S
O685 Mg684 2.028 . S
O685 C688 1.250 . S
O686 Mg687 2.028 . S
O686 C688 1.248 . S
Mg687 O686 2.028 . S
Mg687 O692 2.032 . S
Mg687 O694 2.079 . S
C688 O685 1.250 . S
C688 O686 1.248 . S
C689 O690 1.264 . S
C689 O697 1.249 . S
O690 C689 1.264 . S
O691 Mg684 1.986 . S
O691 C695 1.246 . S
O692 Mg687 2.032 . S
O692 C695 1.259 . S
O693 Mg684 2.114 . S
O693 C696 1.252 . S
O694 Mg684 2.251 . S
O694 Mg687 2.079 . S
O694 C696 1.273 . S
C695 O691 1.246 . S
C695 O692 1.259 . S
C696 O693 1.252 . S
C696 O694 1.273 . S
O697 Mg684 2.010 . S
O697 C689 1.249 . S
Mg698 O699 2.028 . S
Mg698 O705 1.986 . S
Mg698 O707 2.114 . S
Mg698 O708 2.251 . S
Mg698 O711 2.010 . S
O699 Mg698 2.028 . S
O699 C702 1.250 . S
O700 Mg701 2.028 . S
O700 C702 1.248 . S
Mg701 O700 2.028 . S
Mg701 O706 2.032 . S
Mg701 O708 2.079 . S
C702 O699 1.250 . S
C702 O700 1.248 . S
C703 O704 1.264 . S
C703 O711 1.249 . S
O704 C703 1.264 . S
O705 Mg698 1.986 . S
O705 C709 1.246 . S
O706 Mg701 2.032 . S
O706 C709 1.259 . S
O707 Mg698 2.114 . S
O707 C710 1.252 . S
O708 Mg698 2.251 . S
O708 Mg701 2.079 . S
O708 C710 1.273 . S
C709 O705 1.246 . S
C709 O706 1.259 . S
C710 O707 1.252 . S
C710 O708 1.273 . S
O711 Mg698 2.010 . S
O711 C703 1.249 . S
Mg712 O713 2.028 . S
Mg712 O719 1.986 . S
Mg712 O721 2.114 . S
Mg712 O722 2.251 . S
Mg712 O725 2.010 . S
O713 Mg712 2.028 . S
O713 C716 1.250 . S
O714 Mg715 2.028 . S
O714 C716 1.248 . S
Mg715 O714 2.028 . S
Mg715 O720 2.032 . S
Mg715 O722 2.079 . S
C716 O713 1.250 . S
C716 O714 1.248 . S
C717 O718 1.264 . S
C717 O725 1.249 . S
O718 C717 1.264 . S
O719 Mg712 1.986 . S
O719 C723 1.246 . S
O720 Mg715 2.032 . S
O720 C723 1.259 . S
O721 Mg712 2.114 . S
O721 C724 1.252 . S
O722 Mg712 2.251 . S
O722 Mg715 2.079 . S
O722 C724 1.273 . S
C723 O719 1.246 . S
C723 O720 1.259 . S
C724 O721 1.252 . S
C724 O722 1.273 . S
O725 Mg712 2.010 . S
O725 C717 1.249 . S
Mg726 O727 2.028 . S
Mg726 O733 1.986 . S
Mg726 O735 2.114 . S
Mg726 O736 2.251 . S
Mg726 O739 2.010 . S
O727 Mg726 2.028 . S
O727 C730 1.250 . S
O728 Mg729 2.028 . S
O728 C730 1.248 . S
Mg729 O728 2.028 . S
Mg729 O734 2.032 . S
Mg729 O736 2.079 . S
C730 O727 1.250 . S
C730 O728 1.248 . S
C731 O732 1.264 . S
C731 O739 1.249 . S
O732 C731 1.264 . S
O733 Mg726 1.986 . S
O733 C737 1.246 . S
O734 Mg729 2.032 . S
O734 C737 1.259 . S
O735 Mg726 2.114 . S
O735 C738 1.252 . S
O736 Mg726 2.251 . S
O736 Mg729 2.079 . S
O736 C738 1.273 . S
C737 O733 1.246 . S
C737 O734 1.259 . S
C738 O735 1.252 . S
C738 O736 1.273 . S
O739 Mg726 2.010 . S
O739 C731 1.249 . S
Mg740 O741 2.028 . S
Mg740 O747 1.986 . S
Mg740 O749 2.114 . S
Mg740 O750 2.251 . S
Mg740 O753 2.010 . S
O741 Mg740 2.028 . S
O741 C744 1.250 . S
O742 Mg743 2.028 . S
O742 C744 1.248 . S
Mg743 O742 2.028 . S
Mg743 O748 2.032 . S
Mg743 O750 2.079 . S
C744 O741 1.250 . S
C744 O742 1.248 . S
C745 O746 1.264 . S
C745 O753 1.249 . S
O746 C745 1.264 . S
O747 Mg740 1.986 . S
O747 C751 1.246 . S
O748 Mg743 2.032 . S
O748 C751 1.259 . S
O749 Mg740 2.114 . S
O749 C752 1.252 . S
O750 Mg740 2.251 . S
O750 Mg743 2.079 . S
O750 C752 1.273 . S
C751 O747 1.246 . S
C751 O748 1.259 . S
C752 O749 1.252 . S
C752 O750 1.273 . S
O753 Mg740 2.010 . S
O753 C745 1.249 . S
Mg754 O755 2.028 . S
Mg754 O761 1.986 . S
Mg754 O763 2.114 . S
Mg754 O764 2.251 . S
Mg754 O767 2.010 . S
O755 Mg754 2.028 . S
O755 C758 1.250 . S
O756 Mg757 2.028 . S
O756 C758 1.248 . S
Mg757 O756 2.028 . S
Mg757 O762 2.032 . S
Mg757 O764 2.079 . S
C758 O755 1.250 . S
C758 O756 1.248 . S
C759 O760 1.264 . S
C759 O767 1.249 . S
O760 C759 1.264 . S
O761 Mg754 1.986 . S
O761 C765 1.246 . S
O762 Mg757 2.032 . S
O762 C765 1.259 . S
O763 Mg754 2.114 . S
O763 C766 1.252 . S
O764 Mg754 2.251 . S
O764 Mg757 2.079 . S
O764 C766 1.273 . S
C765 O761 1.246 . S
C765 O762 1.259 . S
C766 O763 1.252 . S
C766 O764 1.273 . S
O767 Mg754 2.010 . S
O767 C759 1.249 . S
C768 C769 1.391 . S
C768 C770 1.394 . S
C768 H784 0.931 . S
C769 C768 1.391 . S
C769 C773 1.376 . S
C770 C768 1.394 . S
C770 C771 1.369 . S
C770 C774 1.531 . S
C771 C770 1.369 . S
C771 C772 1.410 . S
C771 C779 1.503 . S
C772 C771 1.410 . S
C772 C773 1.392 . S
C772 C775 1.511 . S
C773 C769 1.376 . S
C773 C772 1.392 . S
C773 H785 0.929 . S
C774 C770 1.531 . S
C774 H786 0.960 . S
C774 H787 0.962 . S
C774 H788 0.960 . S
C775 C772 1.511 . S
C775 H789 0.961 . S
C775 H790 0.961 . S
C775 H791 0.961 . S
C776 C777 1.370 . S
C776 C778 1.363 . S
C776 H792 0.931 . S
C777 C776 1.370 . S
C777 C781 1.408 . S
C778 C776 1.363 . S
C778 C779 1.370 . S
C778 C782 1.524 . S
C779 C771 1.503 . S
C779 C778 1.370 . S
C779 C780 1.403 . S
C780 C779 1.403 . S
C780 C781 1.404 . S
C780 C783 1.539 . S
C781 C777 1.408 . S
C781 C780 1.404 . S
C781 H793 0.930 . S
C782 C778 1.524 . S
C782 H794 0.956 . S
C782 H795 0.961 . S
C782 H796 0.961 . S
C783 C780 1.539 . S
C783 H797 0.958 . S
C783 H798 0.961 . S
C783 H799 0.960 . S
H784 C768 0.931 . S
H785 C773 0.929 . S
H786 C774 0.960 . S
H787 C774 0.962 . S
H788 C774 0.960 . S
H789 C775 0.961 . S
H790 C775 0.961 . S
H791 C775 0.961 . S
H792 C776 0.931 . S
H793 C781 0.930 . S
H794 C782 0.956 . S
H795 C782 0.961 . S
H796 C782 0.961 . S
H797 C783 0.958 . S
H798 C783 0.961 . S
H799 C783 0.960 . S
C800 C801 1.391 . S
C800 C802 1.394 . S
C800 H816 0.931 . S
C801 C800 1.391 . S
C801 C805 1.376 . S
C802 C800 1.394 . S
C802 C803 1.369 . S
C802 C806 1.531 . S
C803 C802 1.369 . S
C803 C804 1.410 . S
C803 C811 1.503 . S
C804 C803 1.410 . S
C804 C805 1.392 . S
C804 C807 1.511 . S
C805 C801 1.376 . S
C805 C804 1.392 . S
C805 H817 0.929 . S
C806 C802 1.531 . S
C806 H818 0.960 . S
C806 H819 0.962 . S
C806 H820 0.960 . S
C807 C804 1.511 . S
C807 H821 0.961 . S
C807 H822 0.961 . S
C807 H823 0.961 . S
C808 C809 1.370 . S
C808 C810 1.363 . S
C808 H824 0.931 . S
C809 C808 1.370 . S
C809 C813 1.408 . S
C810 C808 1.363 . S
C810 C811 1.370 . S
C810 C814 1.524 . S
C811 C803 1.503 . S
C811 C810 1.370 . S
C811 C812 1.403 . S
C812 C811 1.403 . S
C812 C813 1.404 . S
C812 C815 1.539 . S
C813 C809 1.408 . S
C813 C812 1.404 . S
C813 H825 0.930 . S
C814 C810 1.524 . S
C814 H826 0.956 . S
C814 H827 0.961 . S
C814 H828 0.961 . S
C815 C812 1.539 . S
C815 H829 0.958 . S
C815 H830 0.961 . S
C815 H831 0.960 . S
H816 C800 0.931 . S
H817 C805 0.929 . S
H818 C806 0.960 . S
H819 C806 0.962 . S
H820 C806 0.960 . S
H821 C807 0.961 . S
H822 C807 0.961 . S
H823 C807 0.961 . S
H824 C808 0.931 . S
H825 C813 0.930 . S
H826 C814 0.956 . S
H827 C814 0.961 . S
H828 C814 0.961 . S
H829 C815 0.958 . S
H830 C815 0.961 . S
H831 C815 0.960 . S
C832 C833 1.391 . S
C832 C834 1.394 . S
C832 H848 0.931 . S
C833 C832 1.391 . S
C833 C837 1.376 . S
C834 C832 1.394 . S
C834 C835 1.369 . S
C834 C838 1.531 . S
C835 C834 1.369 . S
C835 C836 1.410 . S
C835 C843 1.503 . S
C836 C835 1.410 . S
C836 C837 1.392 . S
C836 C839 1.511 . S
C837 C833 1.376 . S
C837 C836 1.392 . S
C837 H849 0.929 . S
C838 C834 1.531 . S
C838 H850 0.960 . S
C838 H851 0.962 . S
C838 H852 0.960 . S
C839 C836 1.511 . S
C839 H853 0.961 . S
C839 H854 0.961 . S
C839 H855 0.961 . S
C840 C841 1.370 . S
C840 C842 1.363 . S
C840 H856 0.931 . S
C841 C840 1.370 . S
C841 C845 1.408 . S
C842 C840 1.363 . S
C842 C843 1.370 . S
C842 C846 1.524 . S
C843 C835 1.503 . S
C843 C842 1.370 . S
C843 C844 1.403 . S
C844 C843 1.403 . S
C844 C845 1.404 . S
C844 C847 1.539 . S
C845 C841 1.408 . S
C845 C844 1.404 . S
C845 H857 0.930 . S
C846 C842 1.524 . S
C846 H858 0.956 . S
C846 H859 0.961 . S
C846 H860 0.961 . S
C847 C844 1.539 . S
C847 H861 0.958 . S
C847 H862 0.961 . S
C847 H863 0.960 . S
H848 C832 0.931 . S
H849 C837 0.929 . S
H850 C838 0.960 . S
H851 C838 0.962 . S
H852 C838 0.960 . S
H853 C839 0.961 . S
H854 C839 0.961 . S
H855 C839 0.961 . S
H856 C840 0.931 . S
H857 C845 0.930 . S
H858 C846 0.956 . S
H859 C846 0.961 . S
H860 C846 0.961 . S
H861 C847 0.958 . S
H862 C847 0.961 . S
H863 C847 0.960 . S
C864 C865 1.391 . S
C864 C866 1.394 . S
C864 H880 0.931 . S
C865 C864 1.391 . S
C865 C869 1.376 . S
C866 C864 1.394 . S
C866 C867 1.369 . S
C866 C870 1.531 . S
C867 C866 1.369 . S
C867 C868 1.410 . S
C867 C875 1.503 . S
C868 C867 1.410 . S
C868 C869 1.392 . S
C868 C871 1.511 . S
C869 C865 1.376 . S
C869 C868 1.392 . S
C869 H881 0.929 . S
C870 C866 1.531 . S
C870 H882 0.960 . S
C870 H883 0.962 . S
C870 H884 0.960 . S
C871 C868 1.511 . S
C871 H885 0.961 . S
C871 H886 0.961 . S
C871 H887 0.961 . S
C872 C873 1.370 . S
C872 C874 1.363 . S
C872 H888 0.931 . S
C873 C872 1.370 . S
C873 C877 1.408 . S
C874 C872 1.363 . S
C874 C875 1.370 . S
C874 C878 1.524 . S
C875 C867 1.503 . S
C875 C874 1.370 . S
C875 C876 1.403 . S
C876 C875 1.403 . S
C876 C877 1.404 . S
C876 C879 1.539 . S
C877 C873 1.408 . S
C877 C876 1.404 . S
C877 H889 0.930 . S
C878 C874 1.524 . S
C878 H890 0.956 . S
C878 H891 0.961 . S
C878 H892 0.961 . S
C879 C876 1.539 . S
C879 H893 0.958 . S
C879 H894 0.961 . S
C879 H895 0.960 . S
H880 C864 0.931 . S
H881 C869 0.929 . S
H882 C870 0.960 . S
H883 C870 0.962 . S
H884 C870 0.960 . S
H885 C871 0.961 . S
H886 C871 0.961 . S
H887 C871 0.961 . S
H888 C872 0.931 . S
H889 C877 0.930 . S
H890 C878 0.956 . S
H891 C878 0.961 . S
H892 C878 0.961 . S
H893 C879 0.958 . S
H894 C879 0.961 . S
H895 C879 0.960 . S
C896 C897 1.391 . S
C896 C898 1.394 . S
C896 H912 0.931 . S
C897 C896 1.391 . S
C897 C901 1.376 . S
C898 C896 1.394 . S
C898 C899 1.369 . S
C898 C902 1.531 . S
C899 C898 1.369 . S
C899 C900 1.410 . S
C899 C907 1.503 . S
C900 C899 1.410 . S
C900 C901 1.392 . S
C900 C903 1.511 . S
C901 C897 1.376 . S
C901 C900 1.392 . S
C901 H913 0.929 . S
C902 C898 1.531 . S
C902 H914 0.960 . S
C902 H915 0.962 . S
C902 H916 0.960 . S
C903 C900 1.511 . S
C903 H917 0.961 . S
C903 H918 0.961 . S
C903 H919 0.961 . S
C904 C905 1.370 . S
C904 C906 1.363 . S
C904 H920 0.931 . S
C905 C904 1.370 . S
C905 C909 1.408 . S
C906 C904 1.363 . S
C906 C907 1.370 . S
C906 C910 1.524 . S
C907 C899 1.503 . S
C907 C906 1.370 . S
C907 C908 1.403 . S
C908 C907 1.403 . S
C908 C909 1.404 . S
C908 C911 1.539 . S
C909 C905 1.408 . S
C909 C908 1.404 . S
C909 H921 0.930 . S
C910 C906 1.524 . S
C910 H922 0.956 . S
C910 H923 0.961 . S
C910 H924 0.961 . S
C911 C908 1.539 . S
C911 H925 0.958 . S
C911 H926 0.961 . S
C911 H927 0.960 . S
H912 C896 0.931 . S
H913 C901 0.929 . S
H914 C902 0.960 . S
H915 C902 0.962 . S
H916 C902 0.960 . S
H917 C903 0.961 . S
H918 C903 0.961 . S
H919 C903 0.961 . S
H920 C904 0.931 . S
H921 C909 0.930 . S
H922 C910 0.956 . S
H923 C910 0.961 . S
H924 C910 0.961 . S
H925 C911 0.958 . S
H926 C911 0.961 . S
H927 C911 0.960 . S
C928 C929 1.391 . S
C928 C930 1.394 . S
C928 H944 0.931 . S
C929 C928 1.391 . S
C929 C933 1.376 . S
C930 C928 1.394 . S
C930 C931 1.369 . S
C930 C934 1.531 . S
C931 C930 1.369 . S
C931 C932 1.410 . S
C931 C939 1.503 . S
C932 C931 1.410 . S
C932 C933 1.392 . S
C932 C935 1.511 . S
C933 C929 1.376 . S
C933 C932 1.392 . S
C933 H945 0.929 . S
C934 C930 1.531 . S
C934 H946 0.960 . S
C934 H947 0.962 . S
C934 H948 0.960 . S
C935 C932 1.511 . S
C935 H949 0.961 . S
C935 H950 0.961 . S
C935 H951 0.961 . S
C936 C937 1.370 . S
C936 C938 1.363 . S
C936 H952 0.931 . S
C937 C936 1.370 . S
C937 C941 1.408 . S
C938 C936 1.363 . S
C938 C939 1.370 . S
C938 C942 1.524 . S
C939 C931 1.503 . S
C939 C938 1.370 . S
C939 C940 1.403 . S
C940 C939 1.403 . S
C940 C941 1.404 . S
C940 C943 1.539 . S
C941 C937 1.408 . S
C941 C940 1.404 . S
C941 H953 0.930 . S
C942 C938 1.524 . S
C942 H954 0.956 . S
C942 H955 0.961 . S
C942 H956 0.961 . S
C943 C940 1.539 . S
C943 H957 0.958 . S
C943 H958 0.961 . S
C943 H959 0.960 . S
H944 C928 0.931 . S
H945 C933 0.929 . S
H946 C934 0.960 . S
H947 C934 0.962 . S
H948 C934 0.960 . S
H949 C935 0.961 . S
H950 C935 0.961 . S
H951 C935 0.961 . S
H952 C936 0.931 . S
H953 C941 0.930 . S
H954 C942 0.956 . S
H955 C942 0.961 . S
H956 C942 0.961 . S
H957 C943 0.958 . S
H958 C943 0.961 . S
H959 C943 0.960 . S
C960 C961 1.391 . S
C960 C962 1.394 . S
C960 H976 0.931 . S
C961 C960 1.391 . S
C961 C965 1.376 . S
C962 C960 1.394 . S
C962 C963 1.369 . S
C962 C966 1.531 . S
C963 C962 1.369 . S
C963 C964 1.410 . S
C963 C971 1.503 . S
C964 C963 1.410 . S
C964 C965 1.392 . S
C964 C967 1.511 . S
C965 C961 1.376 . S
C965 C964 1.392 . S
C965 H977 0.929 . S
C966 C962 1.531 . S
C966 H978 0.960 . S
C966 H979 0.962 . S
C966 H980 0.960 . S
C967 C964 1.511 . S
C967 H981 0.961 . S
C967 H982 0.961 . S
C967 H983 0.961 . S
C968 C969 1.370 . S
C968 C970 1.363 . S
C968 H984 0.931 . S
C969 C968 1.370 . S
C969 C973 1.408 . S
C970 C968 1.363 . S
C970 C971 1.370 . S
C970 C974 1.524 . S
C971 C963 1.503 . S
C971 C970 1.370 . S
C971 C972 1.403 . S
C972 C971 1.403 . S
C972 C973 1.404 . S
C972 C975 1.539 . S
C973 C969 1.408 . S
C973 C972 1.404 . S
C973 H985 0.930 . S
C974 C970 1.524 . S
C974 H986 0.956 . S
C974 H987 0.961 . S
C974 H988 0.961 . S
C975 C972 1.539 . S
C975 H989 0.958 . S
C975 H990 0.961 . S
C975 H991 0.960 . S
H976 C960 0.931 . S
H977 C965 0.929 . S
H978 C966 0.960 . S
H979 C966 0.962 . S
H980 C966 0.960 . S
H981 C967 0.961 . S
H982 C967 0.961 . S
H983 C967 0.961 . S
H984 C968 0.931 . S
H985 C973 0.930 . S
H986 C974 0.956 . S
H987 C974 0.961 . S
H988 C974 0.961 . S
H989 C975 0.958 . S
H990 C975 0.961 . S
H991 C975 0.960 . S
C992 C993 1.391 . S
C992 C994 1.394 . S
C992 H1008 0.931 . S
C993 C992 1.391 . S
C993 C997 1.376 . S
C994 C992 1.394 . S
C994 C995 1.369 . S
C994 C998 1.531 . S
C995 C994 1.369 . S
C995 C996 1.410 . S
C995 C1003 1.503 . S
C996 C995 1.410 . S
C996 C997 1.392 . S
C996 C999 1.511 . S
C997 C993 1.376 . S
C997 C996 1.392 . S
C997 H1009 0.929 . S
C998 C994 1.531 . S
C998 H1010 0.960 . S
C998 H1011 0.962 . S
C998 H1012 0.960 . S
C999 C996 1.511 . S
C999 H1013 0.961 . S
C999 H1014 0.961 . S
C999 H1015 0.961 . S
C1000 C1001 1.370 . S
C1000 C1002 1.363 . S
C1000 H1016 0.931 . S
C1001 C1000 1.370 . S
C1001 C1005 1.408 . S
C1002 C1000 1.363 . S
C1002 C1003 1.370 . S
C1002 C1006 1.524 . S
C1003 C995 1.503 . S
C1003 C1002 1.370 . S
C1003 C1004 1.403 . S
C1004 C1003 1.403 . S
C1004 C1005 1.404 . S
C1004 C1007 1.539 . S
C1005 C1001 1.408 . S
C1005 C1004 1.404 . S
C1005 H1017 0.930 . S
C1006 C1002 1.524 . S
C1006 H1018 0.956 . S
C1006 H1019 0.961 . S
C1006 H1020 0.961 . S
C1007 C1004 1.539 . S
C1007 H1021 0.958 . S
C1007 H1022 0.961 . S
C1007 H1023 0.960 . S
H1008 C992 0.931 . S
H1009 C997 0.929 . S
H1010 C998 0.960 . S
H1011 C998 0.962 . S
H1012 C998 0.960 . S
H1013 C999 0.961 . S
H1014 C999 0.961 . S
H1015 C999 0.961 . S
H1016 C1000 0.931 . S
H1017 C1005 0.930 . S
H1018 C1006 0.956 . S
H1019 C1006 0.961 . S
H1020 C1006 0.961 . S
H1021 C1007 0.958 . S
H1022 C1007 0.961 . S
H1023 C1007 0.960 . S
C1024 C1025 1.391 . S
C1024 C1026 1.394 . S
C1024 H1040 0.931 . S
C1025 C1024 1.391 . S
C1025 C1029 1.376 . S
C1026 C1024 1.394 . S
C1026 C1027 1.369 . S
C1026 C1030 1.531 . S
C1027 C1026 1.369 . S
C1027 C1028 1.410 . S
C1027 C1035 1.503 . S
C1028 C1027 1.410 . S
C1028 C1029 1.392 . S
C1028 C1031 1.511 . S
C1029 C1025 1.376 . S
C1029 C1028 1.392 . S
C1029 H1041 0.929 . S
C1030 C1026 1.531 . S
C1030 H1042 0.960 . S
C1030 H1043 0.962 . S
C1030 H1044 0.960 . S
C1031 C1028 1.511 . S
C1031 H1045 0.961 . S
C1031 H1046 0.961 . S
C1031 H1047 0.961 . S
C1032 C1033 1.370 . S
C1032 C1034 1.363 . S
C1032 H1048 0.931 . S
C1033 C1032 1.370 . S
C1033 C1037 1.408 . S
C1034 C1032 1.363 . S
C1034 C1035 1.370 . S
C1034 C1038 1.524 . S
C1035 C1027 1.503 . S
C1035 C1034 1.370 . S
C1035 C1036 1.403 . S
C1036 C1035 1.403 . S
C1036 C1037 1.404 . S
C1036 C1039 1.539 . S
C1037 C1033 1.408 . S
C1037 C1036 1.404 . S
C1037 H1049 0.930 . S
C1038 C1034 1.524 . S
C1038 H1050 0.956 . S
C1038 H1051 0.961 . S
C1038 H1052 0.961 . S
C1039 C1036 1.539 . S
C1039 H1053 0.958 . S
C1039 H1054 0.961 . S
C1039 H1055 0.960 . S
H1040 C1024 0.931 . S
H1041 C1029 0.929 . S
H1042 C1030 0.960 . S
H1043 C1030 0.962 . S
H1044 C1030 0.960 . S
H1045 C1031 0.961 . S
H1046 C1031 0.961 . S
H1047 C1031 0.961 . S
H1048 C1032 0.931 . S
H1049 C1037 0.930 . S
H1050 C1038 0.956 . S
H1051 C1038 0.961 . S
H1052 C1038 0.961 . S
H1053 C1039 0.958 . S
H1054 C1039 0.961 . S
H1055 C1039 0.960 . S
C1056 C1057 1.391 . S
C1056 C1058 1.394 . S
C1056 H1072 0.931 . S
C1057 C1056 1.391 . S
C1057 C1061 1.376 . S
C1058 C1056 1.394 . S
C1058 C1059 1.369 . S
C1058 C1062 1.531 . S
C1059 C1058 1.369 . S
C1059 C1060 1.410 . S
C1059 C1067 1.503 . S
C1060 C1059 1.410 . S
C1060 C1061 1.392 . S
C1060 C1063 1.511 . S
C1061 C1057 1.376 . S
C1061 C1060 1.392 . S
C1061 H1073 0.929 . S
C1062 C1058 1.531 . S
C1062 H1074 0.960 . S
C1062 H1075 0.962 . S
C1062 H1076 0.960 . S
C1063 C1060 1.511 . S
C1063 H1077 0.961 . S
C1063 H1078 0.961 . S
C1063 H1079 0.961 . S
C1064 C1065 1.370 . S
C1064 C1066 1.363 . S
C1064 H1080 0.931 . S
C1065 C1064 1.370 . S
C1065 C1069 1.408 . S
C1066 C1064 1.363 . S
C1066 C1067 1.370 . S
C1066 C1070 1.524 . S
C1067 C1059 1.503 . S
C1067 C1066 1.370 . S
C1067 C1068 1.403 . S
C1068 C1067 1.403 . S
C1068 C1069 1.404 . S
C1068 C1071 1.539 . S
C1069 C1065 1.408 . S
C1069 C1068 1.404 . S
C1069 H1081 0.930 . S
C1070 C1066 1.524 . S
C1070 H1082 0.956 . S
C1070 H1083 0.961 . S
C1070 H1084 0.961 . S
C1071 C1068 1.539 . S
C1071 H1085 0.958 . S
C1071 H1086 0.961 . S
C1071 H1087 0.960 . S
H1072 C1056 0.931 . S
H1073 C1061 0.929 . S
H1074 C1062 0.960 . S
H1075 C1062 0.962 . S
H1076 C1062 0.960 . S
H1077 C1063 0.961 . S
H1078 C1063 0.961 . S
H1079 C1063 0.961 . S
H1080 C1064 0.931 . S
H1081 C1069 0.930 . S
H1082 C1070 0.956 . S
H1083 C1070 0.961 . S
H1084 C1070 0.961 . S
H1085 C1071 0.958 . S
H1086 C1071 0.961 . S
H1087 C1071 0.960 . S
C1088 C1089 1.391 . S
C1088 C1090 1.394 . S
C1088 H1104 0.931 . S
C1089 C1088 1.391 . S
C1089 C1093 1.376 . S
C1090 C1088 1.394 . S
C1090 C1091 1.369 . S
C1090 C1094 1.531 . S
C1091 C1090 1.369 . S
C1091 C1092 1.410 . S
C1091 C1099 1.503 . S
C1092 C1091 1.410 . S
C1092 C1093 1.392 . S
C1092 C1095 1.511 . S
C1093 C1089 1.376 . S
C1093 C1092 1.392 . S
C1093 H1105 0.929 . S
C1094 C1090 1.531 . S
C1094 H1106 0.960 . S
C1094 H1107 0.962 . S
C1094 H1108 0.960 . S
C1095 C1092 1.511 . S
C1095 H1109 0.961 . S
C1095 H1110 0.961 . S
C1095 H1111 0.961 . S
C1096 C1097 1.370 . S
C1096 C1098 1.363 . S
C1096 H1112 0.931 . S
C1097 C1096 1.370 . S
C1097 C1101 1.408 . S
C1098 C1096 1.363 . S
C1098 C1099 1.370 . S
C1098 C1102 1.524 . S
C1099 C1091 1.503 . S
C1099 C1098 1.370 . S
C1099 C1100 1.403 . S
C1100 C1099 1.403 . S
C1100 C1101 1.404 . S
C1100 C1103 1.539 . S
C1101 C1097 1.408 . S
C1101 C1100 1.404 . S
C1101 H1113 0.930 . S
C1102 C1098 1.524 . S
C1102 H1114 0.956 . S
C1102 H1115 0.961 . S
C1102 H1116 0.961 . S
C1103 C1100 1.539 . S
C1103 H1117 0.958 . S
C1103 H1118 0.961 . S
C1103 H1119 0.960 . S
H1104 C1088 0.931 . S
H1105 C1093 0.929 . S
H1106 C1094 0.960 . S
H1107 C1094 0.962 . S
H1108 C1094 0.960 . S
H1109 C1095 0.961 . S
H1110 C1095 0.961 . S
H1111 C1095 0.961 . S
H1112 C1096 0.931 . S
H1113 C1101 0.930 . S
H1114 C1102 0.956 . S
H1115 C1102 0.961 . S
H1116 C1102 0.961 . S
H1117 C1103 0.958 . S
H1118 C1103 0.961 . S
H1119 C1103 0.960 . S
C1120 C1121 1.391 . S
C1120 C1122 1.394 . S
C1120 H1136 0.931 . S
C1121 C1120 1.391 . S
C1121 C1125 1.376 . S
C1122 C1120 1.394 . S
C1122 C1123 1.369 . S
C1122 C1126 1.531 . S
C1123 C1122 1.369 . S
C1123 C1124 1.410 . S
C1123 C1131 1.503 . S
C1124 C1123 1.410 . S
C1124 C1125 1.392 . S
C1124 C1127 1.511 . S
C1125 C1121 1.376 . S
C1125 C1124 1.392 . S
C1125 H1137 0.929 . S
C1126 C1122 1.531 . S
C1126 H1138 0.960 . S
C1126 H1139 0.962 . S
C1126 H1140 0.960 . S
C1127 C1124 1.511 . S
C1127 H1141 0.961 . S
C1127 H1142 0.961 . S
C1127 H1143 0.961 . S
C1128 C1129 1.370 . S
C1128 C1130 1.363 . S
C1128 H1144 0.931 . S
C1129 C1128 1.370 . S
C1129 C1133 1.408 . S
C1130 C1128 1.363 . S
C1130 C1131 1.370 . S
C1130 C1134 1.524 . S
C1131 C1123 1.503 . S
C1131 C1130 1.370 . S
C1131 C1132 1.403 . S
C1132 C1131 1.403 . S
C1132 C1133 1.404 . S
C1132 C1135 1.539 . S
C1133 C1129 1.408 . S
C1133 C1132 1.404 . S
C1133 H1145 0.930 . S
C1134 C1130 1.524 . S
C1134 H1146 0.956 . S
C1134 H1147 0.961 . S
C1134 H1148 0.961 . S
C1135 C1132 1.539 . S
C1135 H1149 0.958 . S
C1135 H1150 0.961 . S
C1135 H1151 0.960 . S
H1136 C1120 0.931 . S
H1137 C1125 0.929 . S
H1138 C1126 0.960 . S
H1139 C1126 0.962 . S
H1140 C1126 0.960 . S
H1141 C1127 0.961 . S
H1142 C1127 0.961 . S
H1143 C1127 0.961 . S
H1144 C1128 0.931 . S
H1145 C1133 0.930 . S
H1146 C1134 0.956 . S
H1147 C1134 0.961 . S
H1148 C1134 0.961 . S
H1149 C1135 0.958 . S
H1150 C1135 0.961 . S
H1151 C1135 0.960 . S
C1152 C1153 1.391 . S
C1152 C1154 1.394 . S
C1152 H1168 0.931 . S
C1153 C1152 1.391 . S
C1153 C1157 1.376 . S
C1154 C1152 1.394 . S
C1154 C1155 1.369 . S
C1154 C1158 1.531 . S
C1155 C1154 1.369 . S
C1155 C1156 1.410 . S
C1155 C1163 1.503 . S
C1156 C1155 1.410 . S
C1156 C1157 1.392 . S
C1156 C1159 1.511 . S
C1157 C1153 1.376 . S
C1157 C1156 1.392 . S
C1157 H1169 0.929 . S
C1158 C1154 1.531 . S
C1158 H1170 0.960 . S
C1158 H1171 0.962 . S
C1158 H1172 0.960 . S
C1159 C1156 1.511 . S
C1159 H1173 0.961 . S
C1159 H1174 0.961 . S
C1159 H1175 0.961 . S
C1160 C1161 1.370 . S
C1160 C1162 1.363 . S
C1160 H1176 0.931 . S
C1161 C1160 1.370 . S
C1161 C1165 1.408 . S
C1162 C1160 1.363 . S
C1162 C1163 1.370 . S
C1162 C1166 1.524 . S
C1163 C1155 1.503 . S
C1163 C1162 1.370 . S
C1163 C1164 1.403 . S
C1164 C1163 1.403 . S
C1164 C1165 1.404 . S
C1164 C1167 1.539 . S
C1165 C1161 1.408 . S
C1165 C1164 1.404 . S
C1165 H1177 0.930 . S
C1166 C1162 1.524 . S
C1166 H1178 0.956 . S
C1166 H1179 0.961 . S
C1166 H1180 0.961 . S
C1167 C1164 1.539 . S
C1167 H1181 0.958 . S
C1167 H1182 0.961 . S
C1167 H1183 0.960 . S
H1168 C1152 0.931 . S
H1169 C1157 0.929 . S
H1170 C1158 0.960 . S
H1171 C1158 0.962 . S
H1172 C1158 0.960 . S
H1173 C1159 0.961 . S
H1174 C1159 0.961 . S
H1175 C1159 0.961 . S
H1176 C1160 0.931 . S
H1177 C1165 0.930 . S
H1178 C1166 0.956 . S
H1179 C1166 0.961 . S
H1180 C1166 0.961 . S
H1181 C1167 0.958 . S
H1182 C1167 0.961 . S
H1183 C1167 0.960 . S
C1184 C1185 1.391 . S
C1184 C1186 1.394 . S
C1184 H1200 0.931 . S
C1185 C1184 1.391 . S
C1185 C1189 1.376 . S
C1186 C1184 1.394 . S
C1186 C1187 1.369 . S
C1186 C1190 1.531 . S
C1187 C1186 1.369 . S
C1187 C1188 1.410 . S
C1187 C1195 1.503 . S
C1188 C1187 1.410 . S
C1188 C1189 1.392 . S
C1188 C1191 1.511 . S
C1189 C1185 1.376 . S
C1189 C1188 1.392 . S
C1189 H1201 0.929 . S
C1190 C1186 1.531 . S
C1190 H1202 0.960 . S
C1190 H1203 0.962 . S
C1190 H1204 0.960 . S
C1191 C1188 1.511 . S
C1191 H1205 0.961 . S
C1191 H1206 0.961 . S
C1191 H1207 0.961 . S
C1192 C1193 1.370 . S
C1192 C1194 1.363 . S
C1192 H1208 0.931 . S
C1193 C1192 1.370 . S
C1193 C1197 1.408 . S
C1194 C1192 1.363 . S
C1194 C1195 1.370 . S
C1194 C1198 1.524 . S
C1195 C1187 1.503 . S
C1195 C1194 1.370 . S
C1195 C1196 1.403 . S
C1196 C1195 1.403 . S
C1196 C1197 1.404 . S
C1196 C1199 1.539 . S
C1197 C1193 1.408 . S
C1197 C1196 1.404 . S
C1197 H1209 0.930 . S
C1198 C1194 1.524 . S
C1198 H1210 0.956 . S
C1198 H1211 0.961 . S
C1198 H1212 0.961 . S
C1199 C1196 1.539 . S
C1199 H1213 0.958 . S
C1199 H1214 0.961 . S
C1199 H1215 0.960 . S
H1200 C1184 0.931 . S
H1201 C1189 0.929 . S
H1202 C1190 0.960 . S
H1203 C1190 0.962 . S
H1204 C1190 0.960 . S
H1205 C1191 0.961 . S
H1206 C1191 0.961 . S
H1207 C1191 0.961 . S
H1208 C1192 0.931 . S
H1209 C1197 0.930 . S
H1210 C1198 0.956 . S
H1211 C1198 0.961 . S
H1212 C1198 0.961 . S
H1213 C1199 0.958 . S
H1214 C1199 0.961 . S
H1215 C1199 0.960 . S
C1216 C1217 1.391 . S
C1216 C1218 1.394 . S
C1216 H1232 0.931 . S
C1217 C1216 1.391 . S
C1217 C1221 1.376 . S
C1218 C1216 1.394 . S
C1218 C1219 1.369 . S
C1218 C1222 1.531 . S
C1219 C1218 1.369 . S
C1219 C1220 1.410 . S
C1219 C1227 1.503 . S
C1220 C1219 1.410 . S
C1220 C1221 1.392 . S
C1220 C1223 1.511 . S
C1221 C1217 1.376 . S
C1221 C1220 1.392 . S
C1221 H1233 0.929 . S
C1222 C1218 1.531 . S
C1222 H1234 0.960 . S
C1222 H1235 0.962 . S
C1222 H1236 0.960 . S
C1223 C1220 1.511 . S
C1223 H1237 0.961 . S
C1223 H1238 0.961 . S
C1223 H1239 0.961 . S
C1224 C1225 1.370 . S
C1224 C1226 1.363 . S
C1224 H1240 0.931 . S
C1225 C1224 1.370 . S
C1225 C1229 1.408 . S
C1226 C1224 1.363 . S
C1226 C1227 1.370 . S
C1226 C1230 1.524 . S
C1227 C1219 1.503 . S
C1227 C1226 1.370 . S
C1227 C1228 1.403 . S
C1228 C1227 1.403 . S
C1228 C1229 1.404 . S
C1228 C1231 1.539 . S
C1229 C1225 1.408 . S
C1229 C1228 1.404 . S
C1229 H1241 0.930 . S
C1230 C1226 1.524 . S
C1230 H1242 0.956 . S
C1230 H1243 0.961 . S
C1230 H1244 0.961 . S
C1231 C1228 1.539 . S
C1231 H1245 0.958 . S
C1231 H1246 0.961 . S
C1231 H1247 0.960 . S
H1232 C1216 0.931 . S
H1233 C1221 0.929 . S
H1234 C1222 0.960 . S
H1235 C1222 0.962 . S
H1236 C1222 0.960 . S
H1237 C1223 0.961 . S
H1238 C1223 0.961 . S
H1239 C1223 0.961 . S
H1240 C1224 0.931 . S
H1241 C1229 0.930 . S
H1242 C1230 0.956 . S
H1243 C1230 0.961 . S
H1244 C1230 0.961 . S
H1245 C1231 0.958 . S
H1246 C1231 0.961 . S
H1247 C1231 0.960 . S
C1248 C1249 1.391 . S
C1248 C1250 1.394 . S
C1248 H1264 0.931 . S
C1249 C1248 1.391 . S
C1249 C1253 1.376 . S
C1250 C1248 1.394 . S
C1250 C1251 1.369 . S
C1250 C1254 1.531 . S
C1251 C1250 1.369 . S
C1251 C1252 1.410 . S
C1251 C1259 1.503 . S
C1252 C1251 1.410 . S
C1252 C1253 1.392 . S
C1252 C1255 1.511 . S
C1253 C1249 1.376 . S
C1253 C1252 1.392 . S
C1253 H1265 0.929 . S
C1254 C1250 1.531 . S
C1254 H1266 0.960 . S
C1254 H1267 0.962 . S
C1254 H1268 0.960 . S
C1255 C1252 1.511 . S
C1255 H1269 0.961 . S
C1255 H1270 0.961 1_556 S
C1255 H1271 0.961 1_556 S
C1256 C1257 1.370 . S
C1256 C1258 1.363 1_554 S
C1256 H1272 0.931 . S
C1257 C1256 1.370 . S
C1257 C1261 1.408 . S
C1258 C1256 1.363 1_556 S
C1258 C1259 1.370 . S
C1258 C1262 1.524 . S
C1259 C1251 1.503 . S
C1259 C1258 1.370 . S
C1259 C1260 1.403 1_556 S
C1260 C1259 1.403 1_554 S
C1260 C1261 1.404 . S
C1260 C1263 1.539 1_554 S
C1261 C1257 1.408 . S
C1261 C1260 1.404 . S
C1261 H1273 0.930 . S
C1262 C1258 1.524 . S
C1262 H1274 0.956 . S
C1262 H1275 0.961 . S
C1262 H1276 0.961 . S
C1263 C1260 1.539 1_556 S
C1263 H1277 0.958 . S
C1263 H1278 0.961 1_556 S
C1263 H1279 0.960 . S
H1264 C1248 0.931 . S
H1265 C1253 0.929 . S
H1266 C1254 0.960 . S
H1267 C1254 0.962 . S
H1268 C1254 0.960 . S
H1269 C1255 0.961 . S
H1270 C1255 0.961 1_554 S
H1271 C1255 0.961 1_554 S
H1272 C1256 0.931 . S
H1273 C1261 0.930 . S
H1274 C1262 0.956 . S
H1275 C1262 0.961 . S
H1276 C1262 0.961 . S
H1277 C1263 0.958 . S
H1278 C1263 0.961 1_554 S
H1279 C1263 0.960 . S
C1280 C1281 1.391 . S
C1280 C1282 1.394 . S
C1280 H1296 0.931 . S
C1281 C1280 1.391 . S
C1281 C1285 1.376 . S
C1282 C1280 1.394 . S
C1282 C1283 1.369 . S
C1282 C1286 1.531 . S
C1283 C1282 1.369 . S
C1283 C1284 1.410 . S
C1283 C1291 1.503 . S
C1284 C1283 1.410 . S
C1284 C1285 1.392 . S
C1284 C1287 1.511 . S
C1285 C1281 1.376 . S
C1285 C1284 1.392 . S
C1285 H1297 0.929 . S
C1286 C1282 1.531 . S
C1286 H1298 0.960 . S
C1286 H1299 0.962 . S
C1286 H1300 0.960 . S
C1287 C1284 1.511 . S
C1287 H1301 0.961 . S
C1287 H1302 0.961 . S
C1287 H1303 0.961 . S
C1288 C1289 1.370 . S
C1288 C1290 1.363 . S
C1288 H1304 0.931 . S
C1289 C1288 1.370 . S
C1289 C1293 1.408 . S
C1290 C1288 1.363 . S
C1290 C1291 1.370 . S
C1290 C1294 1.524 . S
C1291 C1283 1.503 . S
C1291 C1290 1.370 . S
C1291 C1292 1.403 . S
C1292 C1291 1.403 . S
C1292 C1293 1.404 . S
C1292 C1295 1.539 . S
C1293 C1289 1.408 . S
C1293 C1292 1.404 . S
C1293 H1305 0.930 . S
C1294 C1290 1.524 . S
C1294 H1306 0.956 . S
C1294 H1307 0.961 . S
C1294 H1308 0.961 . S
C1295 C1292 1.539 . S
C1295 H1309 0.958 . S
C1295 H1310 0.961 . S
C1295 H1311 0.960 . S
H1296 C1280 0.931 . S
H1297 C1285 0.929 . S
H1298 C1286 0.960 . S
H1299 C1286 0.962 . S
H1300 C1286 0.960 . S
H1301 C1287 0.961 . S
H1302 C1287 0.961 . S
H1303 C1287 0.961 . S
H1304 C1288 0.931 . S
H1305 C1293 0.930 . S
H1306 C1294 0.956 . S
H1307 C1294 0.961 . S
H1308 C1294 0.961 . S
H1309 C1295 0.958 . S
H1310 C1295 0.961 . S
H1311 C1295 0.960 . S
C1312 C1313 1.391 . S
C1312 C1314 1.394 . S
C1312 H1328 0.931 . S
C1313 C1312 1.391 . S
C1313 C1317 1.376 . S
C1314 C1312 1.394 . S
C1314 C1315 1.369 . S
C1314 C1318 1.531 . S
C1315 C1314 1.369 . S
C1315 C1316 1.410 . S
C1315 C1323 1.503 . S
C1316 C1315 1.410 . S
C1316 C1317 1.392 . S
C1316 C1319 1.511 . S
C1317 C1313 1.376 . S
C1317 C1316 1.392 . S
C1317 H1329 0.929 . S
C1318 C1314 1.531 . S
C1318 H1330 0.960 . S
C1318 H1331 0.962 . S
C1318 H1332 0.960 . S
C1319 C1316 1.511 . S
C1319 H1333 0.961 . S
C1319 H1334 0.961 . S
C1319 H1335 0.961 . S
C1320 C1321 1.370 . S
C1320 C1322 1.363 . S
C1320 H1336 0.931 . S
C1321 C1320 1.370 . S
C1321 C1325 1.408 . S
C1322 C1320 1.363 . S
C1322 C1323 1.370 . S
C1322 C1326 1.524 . S
C1323 C1315 1.503 . S
C1323 C1322 1.370 . S
C1323 C1324 1.403 . S
C1324 C1323 1.403 . S
C1324 C1325 1.404 . S
C1324 C1327 1.539 . S
C1325 C1321 1.408 . S
C1325 C1324 1.404 . S
C1325 H1337 0.930 . S
C1326 C1322 1.524 . S
C1326 H1338 0.956 . S
C1326 H1339 0.961 . S
C1326 H1340 0.961 . S
C1327 C1324 1.539 . S
C1327 H1341 0.958 . S
C1327 H1342 0.961 . S
C1327 H1343 0.960 . S
H1328 C1312 0.931 . S
H1329 C1317 0.929 . S
H1330 C1318 0.960 . S
H1331 C1318 0.962 . S
H1332 C1318 0.960 . S
H1333 C1319 0.961 . S
H1334 C1319 0.961 . S
H1335 C1319 0.961 . S
H1336 C1320 0.931 . S
H1337 C1325 0.930 . S
H1338 C1326 0.956 . S
H1339 C1326 0.961 . S
H1340 C1326 0.961 . S
H1341 C1327 0.958 . S
H1342 C1327 0.961 . S
H1343 C1327 0.960 . S
C1344 C1345 1.391 . S
C1344 C1346 1.394 . S
C1344 H1360 0.931 . S
C1345 C1344 1.391 . S
C1345 C1349 1.376 . S
C1346 C1344 1.394 . S
C1346 C1347 1.369 . S
C1346 C1350 1.531 . S
C1347 C1346 1.369 . S
C1347 C1348 1.410 . S
C1347 C1355 1.503 . S
C1348 C1347 1.410 . S
C1348 C1349 1.392 . S
C1348 C1351 1.511 . S
C1349 C1345 1.376 . S
C1349 C1348 1.392 . S
C1349 H1361 0.929 . S
C1350 C1346 1.531 . S
C1350 H1362 0.960 . S
C1350 H1363 0.962 . S
C1350 H1364 0.960 . S
C1351 C1348 1.511 . S
C1351 H1365 0.961 . S
C1351 H1366 0.961 . S
C1351 H1367 0.961 . S
C1352 C1353 1.370 . S
C1352 C1354 1.363 . S
C1352 H1368 0.931 . S
C1353 C1352 1.370 . S
C1353 C1357 1.408 . S
C1354 C1352 1.363 . S
C1354 C1355 1.370 . S
C1354 C1358 1.524 . S
C1355 C1347 1.503 . S
C1355 C1354 1.370 . S
C1355 C1356 1.403 . S
C1356 C1355 1.403 . S
C1356 C1357 1.404 . S
C1356 C1359 1.539 . S
C1357 C1353 1.408 . S
C1357 C1356 1.404 . S
C1357 H1369 0.930 . S
C1358 C1354 1.524 . S
C1358 H1370 0.956 . S
C1358 H1371 0.961 . S
C1358 H1372 0.961 . S
C1359 C1356 1.539 . S
C1359 H1373 0.958 . S
C1359 H1374 0.961 . S
C1359 H1375 0.960 . S
H1360 C1344 0.931 . S
H1361 C1349 0.929 . S
H1362 C1350 0.960 . S
H1363 C1350 0.962 . S
H1364 C1350 0.960 . S
H1365 C1351 0.961 . S
H1366 C1351 0.961 . S
H1367 C1351 0.961 . S
H1368 C1352 0.931 . S
H1369 C1357 0.930 . S
H1370 C1358 0.956 . S
H1371 C1358 0.961 . S
H1372 C1358 0.961 . S
H1373 C1359 0.958 . S
H1374 C1359 0.961 . S
H1375 C1359 0.960 . S
C1376 C1377 1.391 . S
C1376 C1378 1.394 . S
C1376 H1392 0.931 . S
C1377 C1376 1.391 . S
C1377 C1381 1.376 . S
C1378 C1376 1.394 . S
C1378 C1379 1.369 . S
C1378 C1382 1.531 . S
C1379 C1378 1.369 . S
C1379 C1380 1.410 . S
C1379 C1387 1.503 . S
C1380 C1379 1.410 . S
C1380 C1381 1.392 . S
C1380 C1383 1.511 . S
C1381 C1377 1.376 . S
C1381 C1380 1.392 . S
C1381 H1393 0.929 . S
C1382 C1378 1.531 . S
C1382 H1394 0.960 . S
C1382 H1395 0.962 . S
C1382 H1396 0.960 . S
C1383 C1380 1.511 . S
C1383 H1397 0.961 . S
C1383 H1398 0.961 . S
C1383 H1399 0.961 . S
C1384 C1385 1.370 . S
C1384 C1386 1.363 . S
C1384 H1400 0.931 . S
C1385 C1384 1.370 . S
C1385 C1389 1.408 . S
C1386 C1384 1.363 . S
C1386 C1387 1.370 . S
C1386 C1390 1.524 . S
C1387 C1379 1.503 . S
C1387 C1386 1.370 . S
C1387 C1388 1.403 . S
C1388 C1387 1.403 . S
C1388 C1389 1.404 . S
C1388 C1391 1.539 . S
C1389 C1385 1.408 . S
C1389 C1388 1.404 . S
C1389 H1401 0.930 . S
C1390 C1386 1.524 . S
C1390 H1402 0.956 . S
C1390 H1403 0.961 . S
C1390 H1404 0.961 . S
C1391 C1388 1.539 . S
C1391 H1405 0.958 . S
C1391 H1406 0.961 . S
C1391 H1407 0.960 . S
H1392 C1376 0.931 . S
H1393 C1381 0.929 . S
H1394 C1382 0.960 . S
H1395 C1382 0.962 . S
H1396 C1382 0.960 . S
H1397 C1383 0.961 . S
H1398 C1383 0.961 . S
H1399 C1383 0.961 . S
H1400 C1384 0.931 . S
H1401 C1389 0.930 . S
H1402 C1390 0.956 . S
H1403 C1390 0.961 . S
H1404 C1390 0.961 . S
H1405 C1391 0.958 . S
H1406 C1391 0.961 . S
H1407 C1391 0.960 . S
C1408 C1409 1.391 . S
C1408 C1410 1.394 . S
C1408 H1424 0.931 . S
C1409 C1408 1.391 . S
C1409 C1413 1.376 . S
C1410 C1408 1.394 . S
C1410 C1411 1.369 . S
C1410 C1414 1.531 . S
C1411 C1410 1.369 . S
C1411 C1412 1.410 . S
C1411 C1419 1.503 . S
C1412 C1411 1.410 . S
C1412 C1413 1.392 . S
C1412 C1415 1.511 . S
C1413 C1409 1.376 . S
C1413 C1412 1.392 . S
C1413 H1425 0.929 . S
C1414 C1410 1.531 . S
C1414 H1426 0.960 . S
C1414 H1427 0.962 . S
C1414 H1428 0.960 . S
C1415 C1412 1.511 . S
C1415 H1429 0.961 . S
C1415 H1430 0.961 . S
C1415 H1431 0.961 . S
C1416 C1417 1.370 . S
C1416 C1418 1.363 . S
C1416 H1432 0.931 . S
C1417 C1416 1.370 . S
C1417 C1421 1.408 . S
C1418 C1416 1.363 . S
C1418 C1419 1.370 . S
C1418 C1422 1.524 . S
C1419 C1411 1.503 . S
C1419 C1418 1.370 . S
C1419 C1420 1.403 . S
C1420 C1419 1.403 . S
C1420 C1421 1.404 . S
C1420 C1423 1.539 . S
C1421 C1417 1.408 . S
C1421 C1420 1.404 . S
C1421 H1433 0.930 . S
C1422 C1418 1.524 . S
C1422 H1434 0.956 . S
C1422 H1435 0.961 . S
C1422 H1436 0.961 . S
C1423 C1420 1.539 . S
C1423 H1437 0.958 . S
C1423 H1438 0.961 . S
C1423 H1439 0.960 . S
H1424 C1408 0.931 . S
H1425 C1413 0.929 . S
H1426 C1414 0.960 . S
H1427 C1414 0.962 . S
H1428 C1414 0.960 . S
H1429 C1415 0.961 . S
H1430 C1415 0.961 . S
H1431 C1415 0.961 . S
H1432 C1416 0.931 . S
H1433 C1421 0.930 . S
H1434 C1422 0.956 . S
H1435 C1422 0.961 . S
H1436 C1422 0.961 . S
H1437 C1423 0.958 . S
H1438 C1423 0.961 . S
H1439 C1423 0.960 . S
C1440 C1441 1.391 . S
C1440 C1442 1.394 . S
C1440 H1456 0.931 . S
C1441 C1440 1.391 . S
C1441 C1445 1.376 . S
C1442 C1440 1.394 . S
C1442 C1443 1.369 . S
C1442 C1446 1.531 . S
C1443 C1442 1.369 . S
C1443 C1444 1.410 . S
C1443 C1451 1.503 . S
C1444 C1443 1.410 . S
C1444 C1445 1.392 . S
C1444 C1447 1.511 . S
C1445 C1441 1.376 . S
C1445 C1444 1.392 . S
C1445 H1457 0.929 . S
C1446 C1442 1.531 . S
C1446 H1458 0.960 . S
C1446 H1459 0.962 . S
C1446 H1460 0.960 . S
C1447 C1444 1.511 . S
C1447 H1461 0.961 . S
C1447 H1462 0.961 . S
C1447 H1463 0.961 . S
C1448 C1449 1.370 . S
C1448 C1450 1.363 . S
C1448 H1464 0.931 . S
C1449 C1448 1.370 . S
C1449 C1453 1.408 . S
C1450 C1448 1.363 . S
C1450 C1451 1.370 . S
C1450 C1454 1.524 . S
C1451 C1443 1.503 . S
C1451 C1450 1.370 . S
C1451 C1452 1.403 . S
C1452 C1451 1.403 . S
C1452 C1453 1.404 . S
C1452 C1455 1.539 . S
C1453 C1449 1.408 . S
C1453 C1452 1.404 . S
C1453 H1465 0.930 . S
C1454 C1450 1.524 . S
C1454 H1466 0.956 . S
C1454 H1467 0.961 . S
C1454 H1468 0.961 . S
C1455 C1452 1.539 . S
C1455 H1469 0.958 . S
C1455 H1470 0.961 . S
C1455 H1471 0.960 . S
H1456 C1440 0.931 . S
H1457 C1445 0.929 . S
H1458 C1446 0.960 . S
H1459 C1446 0.962 . S
H1460 C1446 0.960 . S
H1461 C1447 0.961 . S
H1462 C1447 0.961 . S
H1463 C1447 0.961 . S
H1464 C1448 0.931 . S
H1465 C1453 0.930 . S
H1466 C1454 0.956 . S
H1467 C1454 0.961 . S
H1468 C1454 0.961 . S
H1469 C1455 0.958 . S
H1470 C1455 0.961 . S
H1471 C1455 0.960 . S
C1472 C1473 1.391 . S
C1472 C1474 1.394 . S
C1472 H1488 0.931 . S
C1473 C1472 1.391 . S
C1473 C1477 1.376 . S
C1474 C1472 1.394 . S
C1474 C1475 1.369 1_554 S
C1474 C1478 1.531 . S
C1475 C1474 1.369 1_556 S
C1475 C1476 1.410 . S
C1475 C1483 1.503 . S
C1476 C1475 1.410 . S
C1476 C1477 1.392 1_556 S
C1476 C1479 1.511 . S
C1477 C1473 1.376 . S
C1477 C1476 1.392 1_554 S
C1477 H1489 0.929 . S
C1478 C1474 1.531 . S
C1478 H1490 0.960 . S
C1478 H1491 0.962 . S
C1478 H1492 0.960 . S
C1479 C1476 1.511 . S
C1479 H1493 0.961 . S
C1479 H1494 0.961 . S
C1479 H1495 0.961 . S
C1480 C1481 1.370 . S
C1480 C1482 1.363 . S
C1480 H1496 0.931 . S
C1481 C1480 1.370 . S
C1481 C1485 1.408 . S
C1482 C1480 1.363 . S
C1482 C1483 1.370 . S
C1482 C1486 1.524 . S
C1483 C1475 1.503 . S
C1483 C1482 1.370 . S
C1483 C1484 1.403 . S
C1484 C1483 1.403 . S
C1484 C1485 1.404 . S
C1484 C1487 1.539 . S
C1485 C1481 1.408 . S
C1485 C1484 1.404 . S
C1485 H1497 0.930 . S
C1486 C1482 1.524 . S
C1486 H1498 0.956 . S
C1486 H1499 0.961 . S
C1486 H1500 0.961 . S
C1487 C1484 1.539 . S
C1487 H1501 0.958 . S
C1487 H1502 0.961 . S
C1487 H1503 0.960 . S
H1488 C1472 0.931 . S
H1489 C1477 0.929 . S
H1490 C1478 0.960 . S
H1491 C1478 0.962 . S
H1492 C1478 0.960 . S
H1493 C1479 0.961 . S
H1494 C1479 0.961 . S
H1495 C1479 0.961 . S
H1496 C1480 0.931 . S
H1497 C1485 0.930 . S
H1498 C1486 0.956 . S
H1499 C1486 0.961 . S
H1500 C1486 0.961 . S
H1501 C1487 0.958 . S
H1502 C1487 0.961 . S
H1503 C1487 0.960 . S
C1504 C1505 1.391 . S
C1504 C1506 1.394 . S
C1504 H1520 0.931 . S
C1505 C1504 1.391 . S
C1505 C1509 1.376 . S
C1506 C1504 1.394 . S
C1506 C1507 1.369 . S
C1506 C1510 1.531 . S
C1507 C1506 1.369 . S
C1507 C1508 1.410 . S
C1507 C1515 1.503 . S
C1508 C1507 1.410 . S
C1508 C1509 1.392 . S
C1508 C1511 1.511 . S
C1509 C1505 1.376 . S
C1509 C1508 1.392 . S
C1509 H1521 0.929 . S
C1510 C1506 1.531 . S
C1510 H1522 0.960 . S
C1510 H1523 0.962 . S
C1510 H1524 0.960 . S
C1511 C1508 1.511 . S
C1511 H1525 0.961 . S
C1511 H1526 0.961 . S
C1511 H1527 0.961 . S
C1512 C1513 1.370 . S
C1512 C1514 1.363 . S
C1512 H1528 0.931 . S
C1513 C1512 1.370 . S
C1513 C1517 1.408 . S
C1514 C1512 1.363 . S
C1514 C1515 1.370 . S
C1514 C1518 1.524 . S
C1515 C1507 1.503 . S
C1515 C1514 1.370 . S
C1515 C1516 1.403 . S
C1516 C1515 1.403 . S
C1516 C1517 1.404 . S
C1516 C1519 1.539 . S
C1517 C1513 1.408 . S
C1517 C1516 1.404 . S
C1517 H1529 0.930 . S
C1518 C1514 1.524 . S
C1518 H1530 0.956 . S
C1518 H1531 0.961 . S
C1518 H1532 0.961 . S
C1519 C1516 1.539 . S
C1519 H1533 0.958 . S
C1519 H1534 0.961 . S
C1519 H1535 0.960 . S
H1520 C1504 0.931 . S
H1521 C1509 0.929 . S
H1522 C1510 0.960 . S
H1523 C1510 0.962 . S
H1524 C1510 0.960 . S
H1525 C1511 0.961 . S
H1526 C1511 0.961 . S
H1527 C1511 0.961 . S
H1528 C1512 0.931 . S
H1529 C1517 0.930 . S
H1530 C1518 0.956 . S
H1531 C1518 0.961 . S
H1532 C1518 0.961 . S
H1533 C1519 0.958 . S
H1534 C1519 0.961 . S
H1535 C1519 0.960 . S
C777 C759 1.321 . S
C769 C1 1.237 . S
C801 C169 1.530 . S
C809 C689 1.438 . S
C833 C283 1.440 . S
C841 C709 1.762 . S
C865 C397 1.198 . S
C873 C723 1.518 . S
C905 C731 1.141 . S
C897 C457 0.974 . S
C929 C571 1.156 . S
C937 C745 1.187 . S
C961 C115 1.254 . S
C969 C703 1.341 . S
C993 C229 1.047 . S
C1001 C717 1.157 . S
C1025 C343 0.953 . S
C1033 C737 1.406 . S
C1065 C751 1.607 . S
C1057 C511 1.389 . S
C1097 C765 1.723 . S
C1089 C625 1.491 . S
C1129 C695 1.795 . S
C1121 C55 1.528 . S
C1153 C29 1.056 . S
C1161 C702 1.373 . S
C1185 C125 1.016 . S
C1193 C716 1.476 . S
C1225 C738 1.409 . S
C1217 C239 0.981 . S
C1249 C353 0.942 . S
C1257 C752 1.400 . S
C1289 C766 1.323 . S
C1281 C485 1.110 . S
C1321 C696 1.369 . S
C1313 C599 1.002 . S
C1353 C758 1.366 . S
C1345 C143 1.152 . S
C1377 C257 1.161 . S
C1385 C688 1.352 . S
C1417 C710 1.323 . S
C1409 C371 1.076 . S
C1441 C467 0.927 . S
C1449 C724 1.402 . S
C1473 C581 0.934 . S
C1481 C730 1.438 . S
C1505 C11 0.961 . S
C1513 C744 1.477 . S
