# Generated by pormake.
# Topology pto, (3,4)-cn, num edge types: 1
# Building blocks:
#     Node 0, Type 0, BuildingBlock: OLANEW_clean_sbu_2, # of connection points: 3
#     Node 1, Type 0, BuildingBlock: OLANEW_clean_sbu_2, # of connection points: 3
#     Node 2, Type 0, BuildingBlock: OLANEW_clean_sbu_2, # of connection points: 3
#     Node 3, Type 0, BuildingBlock: OLANEW_clean_sbu_2, # of connection points: 3
#     Node 4, Type 0, BuildingBlock: OLANEW_clean_sbu_2, # of connection points: 3
#     Node 5, Type 0, BuildingBlock: OLANEW_clean_sbu_2, # of connection points: 3
#     Node 6, Type 0, BuildingBlock: OLANEW_clean_sbu_2, # of connection points: 3
#     Node 7, Type 0, BuildingBlock: OLANEW_clean_sbu_2, # of connection points: 3
#     Node 8, Type 1, BuildingBlock: MUDLON_clean_linker_0, # of connection points: 4
#     Node 9, Type 1, BuildingBlock: MUDLON_clean_linker_0, # of connection points: 4
#     Node 10, Type 1, BuildingBlock: MUDLON_clean_linker_0, # of connection points: 4
#     Node 11, Type 1, BuildingBlock: MUDLON_clean_linker_0, # of connection points: 4
#     Node 12, Type 1, BuildingBlock: MUDLON_clean_linker_0, # of connection points: 4
#     Node 13, Type 1, BuildingBlock: MUDLON_clean_linker_0, # of connection points: 4
#     Edge 14, Type (0, 1), BuildingBlock: XIVTED_clean_linker_0, # of connection points: 2
#     Edge 15, Type (0, 1), BuildingBlock: XIVTED_clean_linker_0, # of connection points: 2
#     Edge 16, Type (0, 1), BuildingBlock: XIVTED_clean_linker_0, # of connection points: 2
#     Edge 17, Type (0, 1), BuildingBlock: XIVTED_clean_linker_0, # of connection points: 2
#     Edge 18, Type (0, 1), BuildingBlock: XIVTED_clean_linker_0, # of connection points: 2
#     Edge 19, Type (0, 1), BuildingBlock: XIVTED_clean_linker_0, # of connection points: 2
#     Edge 20, Type (0, 1), BuildingBlock: XIVTED_clean_linker_0, # of connection points: 2
#     Edge 21, Type (0, 1), BuildingBlock: XIVTED_clean_linker_0, # of connection points: 2
#     Edge 22, Type (0, 1), BuildingBlock: XIVTED_clean_linker_0, # of connection points: 2
#     Edge 23, Type (0, 1), BuildingBlock: XIVTED_clean_linker_0, # of connection points: 2
#     Edge 24, Type (0, 1), BuildingBlock: XIVTED_clean_linker_0, # of connection points: 2
#     Edge 25, Type (0, 1), BuildingBlock: XIVTED_clean_linker_0, # of connection points: 2
#     Edge 26, Type (0, 1), BuildingBlock: XIVTED_clean_linker_0, # of connection points: 2
#     Edge 27, Type (0, 1), BuildingBlock: XIVTED_clean_linker_0, # of connection points: 2
#     Edge 28, Type (0, 1), BuildingBlock: XIVTED_clean_linker_0, # of connection points: 2
#     Edge 29, Type (0, 1), BuildingBlock: XIVTED_clean_linker_0, # of connection points: 2
#     Edge 30, Type (0, 1), BuildingBlock: XIVTED_clean_linker_0, # of connection points: 2
#     Edge 31, Type (0, 1), BuildingBlock: XIVTED_clean_linker_0, # of connection points: 2
#     Edge 32, Type (0, 1), BuildingBlock: XIVTED_clean_linker_0, # of connection points: 2
#     Edge 33, Type (0, 1), BuildingBlock: XIVTED_clean_linker_0, # of connection points: 2
#     Edge 34, Type (0, 1), BuildingBlock: XIVTED_clean_linker_0, # of connection points: 2
#     Edge 35, Type (0, 1), BuildingBlock: XIVTED_clean_linker_0, # of connection points: 2
#     Edge 36, Type (0, 1), BuildingBlock: XIVTED_clean_linker_0, # of connection points: 2
#     Edge 37, Type (0, 1), BuildingBlock: XIVTED_clean_linker_0, # of connection points: 2
# Relax obj value: 0.010
# Max RMSD: 0.127
# Mean RMSD: 0.066
data_MOF--net-pto--node1-OLANEW_clean_sbu_2--node2-MUDLON_clean_linker_0--edge1-XIVTED_clean_linker_0
_symmetry_space_group_name_H-M    P1
_symmetry_Int_Tables_number       1
_symmetry_cell_setting            triclinic
loop_
_symmetry_equiv_pos_as_xyz
'x, y, z'
_cell_length_a     39.912156
_cell_length_b     71.303918
_cell_length_c     55.932653
_cell_angle_alpha  92.732546
_cell_angle_beta   88.851567
_cell_angle_gamma 106.51256
loop_
_atom_site_label
_atom_site_type_symbol
_atom_site_fract_x
_atom_site_fract_y
_atom_site_fract_z
_atom_type_partial_charge
O0 O 0.36011 0.3656 0.31374 0.0
Cd1 Cd 0.33668 0.36876 0.35379 0.0
O2 O 0.41517 0.37613 0.32475 0.0
Cd3 Cd 0.39965 0.3878 0.35866 0.0
O4 O 0.37025 0.40465 0.37928 0.0
C5 C 0.37701 0.42275 0.3753 0.0
O6 O 0.40285 0.43052 0.36065 0.0
C7 C 0.39241 0.3686 0.30879 0.0
C8 C 0.33366 0.33442 0.3767 0.0
O9 O 0.30778 0.33596 0.36453 0.0
O10 O 0.36063 0.34932 0.37859 0.0
O11 O 0.28482 0.861 0.74459 0.0
Cd12 Cd 0.24762 0.86161 0.71072 0.0
O13 O 0.29372 0.83331 0.73102 0.0
Cd14 Cd 0.25716 0.82701 0.70127 0.0
O15 O 0.22082 0.80426 0.67947 0.0
C16 C 0.2017 0.79021 0.69106 0.0
O17 O 0.20405 0.79103 0.71452 0.0
C18 C 0.29961 0.84754 0.74643 0.0
C19 C 0.27125 0.89717 0.68839 0.0
O20 O 0.24703 0.89456 0.70434 0.0
O21 O 0.28402 0.88293 0.68291 0.0
O22 O 0.795 0.77959 0.35679 0.0
Cd23 Cd 0.76876 0.74838 0.33514 0.0
O24 O 0.80498 0.79656 0.32425 0.0
Cd25 Cd 0.78074 0.77229 0.29928 0.0
O26 O 0.75164 0.76472 0.26595 0.0
C27 C 0.75871 0.77849 0.2514 0.0
O28 O 0.78317 0.79469 0.25716 0.0
C29 C 0.80684 0.79584 0.34682 0.0
C30 C 0.8015 0.72033 0.34681 0.0
O31 O 0.81176 0.73109 0.32886 0.0
O32 O 0.77551 0.72273 0.35917 0.0
O33 O 0.77079 0.29003 0.6573 0.0
Cd34 Cd 0.73611 0.25894 0.67309 0.0
O35 O 0.77127 0.30538 0.69241 0.0
Cd36 Cd 0.73758 0.28082 0.71112 0.0
O37 O 0.69594 0.272 0.7376 0.0
C38 C 0.67468 0.28232 0.73801 0.0
O39 O 0.67882 0.29594 0.72229 0.0
C40 C 0.78027 0.30563 0.67048 0.0
C41 C 0.75335 0.22683 0.65142 0.0
O42 O 0.72908 0.23308 0.64298 0.0
O43 O 0.76945 0.23577 0.67011 0.0
O44 O 0.7541 0.79022 0.66144 0.0
Cd45 Cd 0.72747 0.75985 0.68204 0.0
O46 O 0.80713 0.79602 0.67588 0.0
Cd47 Cd 0.78774 0.77551 0.70396 0.0
O48 O 0.76316 0.77453 0.73918 0.0
C49 C 0.77318 0.79057 0.75145 0.0
O50 O 0.79782 0.80503 0.74261 0.0
C51 C 0.786 0.80032 0.66187 0.0
C52 C 0.75277 0.7289 0.66506 0.0
O53 O 0.72929 0.73377 0.65359 0.0
O54 O 0.76421 0.73857 0.68454 0.0
O55 O 0.87238 0.28748 0.3167 0.0
Cd56 Cd 0.84523 0.25575 0.29636 0.0
O57 O 0.83074 0.2997 0.30543 0.0
Cd58 Cd 0.80273 0.27451 0.28296 0.0
O59 O 0.77012 0.2639 0.25156 0.0
C60 C 0.77633 0.27538 0.23429 0.0
O61 O 0.80227 0.29155 0.23626 0.0
C62 C 0.85886 0.30163 0.31679 0.0
C63 C 0.84657 0.22454 0.32424 0.0
O64 O 0.87145 0.23169 0.30952 0.0
O65 O 0.82106 0.23214 0.32572 0.0
O66 O 0.28055 0.36846 0.75169 0.0
Cd67 Cd 0.26262 0.36274 0.70973 0.0
O68 O 0.33636 0.38118 0.74374 0.0
Cd69 Cd 0.32802 0.37305 0.70585 0.0
O70 O 0.32231 0.34976 0.67817 0.0
C71 C 0.3095 0.33243 0.68511 0.0
O72 O 0.2996 0.32995 0.70756 0.0
C73 C 0.31162 0.37631 0.75893 0.0
C74 C 0.23067 0.38984 0.69372 0.0
O75 O 0.21331 0.3749 0.70503 0.0
O76 O 0.26339 0.39213 0.69013 0.0
O77 O 0.3732 0.85134 0.31885 0.0
Cd78 Cd 0.34995 0.84972 0.35965 0.0
O79 O 0.32122 0.84571 0.30282 0.0
Cd80 Cd 0.29439 0.83751 0.33672 0.0
O81 O 0.26835 0.81309 0.35879 0.0
C82 C 0.27623 0.79734 0.35334 0.0
O83 O 0.29951 0.79753 0.33633 0.0
C84 C 0.35422 0.84969 0.30043 0.0
C85 C 0.36256 0.88689 0.38181 0.0
O86 O 0.38386 0.87662 0.38411 0.0
O87 O 0.33527 0.87958 0.36902 0.0
H88 H 0.05669 0.46412 0.41192 0.0
N89 N 0.08173 0.48952 0.37628 0.0
H90 H 0.01268 0.43232 0.40754 0.0
H91 H 0.04224 0.47522 0.33834 0.0
H92 H 0.99786 0.44351 0.33382 0.0
H93 H 0.12865 0.48467 0.34431 0.0
H94 H 0.18474 0.47854 0.35179 0.0
H95 H 0.11006 0.48908 0.42019 0.0
H96 H 0.16605 0.48248 0.42797 0.0
H97 H 0.03781 0.49636 0.41204 0.0
H98 H 0.11217 0.52396 0.3584 0.0
H99 H 0.02547 0.52745 0.42195 0.0
H100 H 0.10225 0.55538 0.36937 0.0
H101 H 7e-05 0.6375 0.44404 0.0
H102 H 0.95154 0.64947 0.4321 0.0
H103 H 0.94865 0.61865 0.36344 0.0
H104 H 0.99714 0.60714 0.37516 0.0
H105 H 0.05431 0.63595 0.37368 0.0
H106 H 0.10246 0.66488 0.36641 0.0
H107 H 0.13122 0.66891 0.44087 0.0
H108 H 0.08311 0.63927 0.44801 0.0
H109 H 0.03218 0.59068 0.44723 0.0
H110 H 0.04429 0.55914 0.4394 0.0
H111 H 0.06188 0.57221 0.36466 0.0
N112 N 0.03597 0.61864 0.41664 0.0
H113 H 0.05259 0.60381 0.37298 0.0
C114 C 0.05293 0.47194 0.37529 0.0
C115 C 0.04382 0.45981 0.39489 0.0
C116 C 0.0187 0.44162 0.39236 0.0
C117 C 0.00198 0.43538 0.3703 0.0
C118 C 0.01005 0.44797 0.3511 0.0
C119 C 0.03539 0.46604 0.3536 0.0
C120 C 0.11529 0.48711 0.38162 0.0
C121 C 0.13693 0.48442 0.36258 0.0
C122 C 0.16893 0.48103 0.36692 0.0
C123 C 0.17973 0.48006 0.39047 0.0
C124 C 0.15821 0.48304 0.40965 0.0
C125 C 0.1263 0.48675 0.40526 0.0
C126 C 0.07549 0.50778 0.38407 0.0
C127 C 0.05175 0.50914 0.40253 0.0
C128 C 0.04498 0.52706 0.40836 0.0
C129 C 0.06239 0.54402 0.39622 0.0
C130 C 0.08734 0.54263 0.37858 0.0
C131 C 0.09344 0.52471 0.37244 0.0
C132 C 0.00273 0.62151 0.41067 0.0
C133 C 0.98831 0.6329 0.42666 0.0
C134 C 0.96054 0.63972 0.41979 0.0
C135 C 0.94654 0.63524 0.39666 0.0
C136 C 0.95933 0.62269 0.38122 0.0
C137 C 0.98714 0.61593 0.38808 0.0
C138 C 0.06543 0.63514 0.41142 0.0
C139 C 0.07137 0.64261 0.38838 0.0
C140 C 0.09889 0.65926 0.38423 0.0
C141 C 0.12065 0.66904 0.40305 0.0
C142 C 0.11478 0.66162 0.42606 0.0
C143 C 0.08752 0.64472 0.43013 0.0
C144 C 0.04103 0.59966 0.41082 0.0
C145 C 0.03862 0.58663 0.42918 0.0
C146 C 0.04537 0.56855 0.42461 0.0
C147 C 0.05433 0.56303 0.40138 0.0
C148 C 0.05598 0.57601 0.38292 0.0
C149 C 0.05002 0.59418 0.38762 0.0
H150 H 0.9859 0.47371 0.63711 0.0
N151 N 0.00828 0.48388 0.59157 0.0
H152 H 0.94104 0.44456 0.64814 0.0
H153 H 0.96464 0.45818 0.56237 0.0
H154 H 0.91866 0.42883 0.57335 0.0
H155 H 0.04866 0.46471 0.56932 0.0
H156 H 0.09682 0.45502 0.58655 0.0
H157 H 0.04193 0.49909 0.63384 0.0
H158 H 0.08964 0.48945 0.65105 0.0
H159 H 0.98973 0.5057 0.62888 0.0
H160 H 0.01352 0.50515 0.55341 0.0
H161 H 0.9819 0.53805 0.62695 0.0
H162 H 0.00299 0.53708 0.55077 0.0
H163 H 0.95269 0.62338 0.62997 0.0
H164 H 0.90484 0.63617 0.64264 0.0
H165 H 0.86944 0.63137 0.56938 0.0
H166 H 0.91937 0.61972 0.55666 0.0
H167 H 0.99866 0.65158 0.56342 0.0
H168 H 0.04217 0.68044 0.58019 0.0
H169 H 0.05715 0.6469 0.63939 0.0
H170 H 0.01288 0.6184 0.62292 0.0
H171 H 0.93735 0.58781 0.6134 0.0
H172 H 0.94531 0.55553 0.61465 0.0
H173 H 0.02496 0.57026 0.55959 0.0
N174 N 0.9723 0.61742 0.58363 0.0
H175 H 0.01505 0.6023 0.55726 0.0
C176 C 0.97865 0.46823 0.59878 0.0
C177 C 0.97101 0.46432 0.623 0.0
C178 C 0.94514 0.44754 0.62933 0.0
C179 C 0.92625 0.43427 0.61164 0.0
C180 C 0.93304 0.43859 0.58743 0.0
C181 C 0.95901 0.45542 0.58111 0.0
C182 C 0.04132 0.48248 0.60017 0.0
C183 C 0.05827 0.47066 0.58686 0.0
C184 C 0.08576 0.46515 0.59674 0.0
C185 C 0.09666 0.47129 0.62028 0.0
C186 C 0.08141 0.48428 0.63299 0.0
C187 C 0.05409 0.48989 0.62303 0.0
C188 C 0.00303 0.50307 0.59128 0.0
C189 C 0.9934 0.5125 0.61183 0.0
C190 C 0.98829 0.53104 0.6106 0.0
C191 C 0.99176 0.54039 0.58868 0.0
C192 C 0.00082 0.53069 0.5681 0.0
C193 C 0.00662 0.51233 0.56949 0.0
C194 C 0.94002 0.62087 0.59219 0.0
C195 C 0.93451 0.62488 0.61661 0.0
C196 C 0.90668 0.63203 0.6239 0.0
C197 C 0.88325 0.63511 0.60704 0.0
C198 C 0.88737 0.62969 0.58284 0.0
C199 C 0.91561 0.62277 0.57552 0.0
C200 C 0.00248 0.63286 0.5918 0.0
C201 C 0.01195 0.6504 0.57974 0.0
C202 C 0.03686 0.66685 0.58935 0.0
C203 C 0.05291 0.66606 0.61129 0.0
C204 C 0.04481 0.64813 0.6227 0.0
C205 C 0.01976 0.63172 0.61314 0.0
C206 C 0.97559 0.59776 0.58501 0.0
C207 C 0.95636 0.58425 0.60136 0.0
C208 C 0.96124 0.56564 0.60228 0.0
C209 C 0.98595 0.56012 0.58731 0.0
C210 C 0.0052 0.57369 0.5711 0.0
C211 C -0.00021 0.59213 0.56985 0.0
H212 H 0.25428 0.17475 0.55231 0.0
N213 N 0.30207 0.17384 0.51881 0.0
H214 H 0.25695 0.20062 0.5833 0.0
H215 H 0.36052 0.20342 0.53169 0.0
H216 H 0.36367 0.22886 0.56273 0.0
H217 H 0.36172 0.18713 0.49206 0.0
H218 H 0.36966 0.21035 0.46015 0.0
H219 H 0.25227 0.18368 0.49634 0.0
H220 H 0.25986 0.20699 0.46474 0.0
H221 H 0.26872 0.13774 0.50369 0.0
H222 H 0.36601 0.17204 0.53497 0.0
H223 H 0.28822 0.10829 0.50506 0.0
H224 H 0.38486 0.14272 0.53767 0.0
H225 H 0.31852 0.02595 0.53881 0.0
H226 H 0.30163 0.00397 0.57148 0.0
H227 H 0.4003 0.03145 0.606 0.0
H228 H 0.41704 0.05402 0.5731 0.0
H229 H 0.43772 0.04296 0.51852 0.0
H230 H 0.44075 0.01871 0.48678 0.0
H231 H 0.33316 0.01265 0.46883 0.0
H232 H 0.33125 0.03768 0.4996 0.0
H233 H 0.31463 0.05699 0.53679 0.0
H234 H 0.29705 0.08643 0.53262 0.0
H235 H 0.40387 0.11827 0.51636 0.0
N236 N 0.38187 0.05356 0.53306 0.0
H237 H 0.42168 0.08866 0.52191 0.0
C238 C 0.30703 0.18701 0.5397 0.0
C239 C 0.27847 0.18628 0.55495 0.0
C240 C 0.28007 0.20107 0.57261 0.0
C241 C 0.3104 0.21693 0.57526 0.0
C242 C 0.33971 0.21704 0.56086 0.0
C243 C 0.33805 0.2023 0.54323 0.0
C244 C 0.3063 0.18376 0.49664 0.0
C245 C 0.33922 0.19098 0.48571 0.0
C246 C 0.34376 0.20439 0.46761 0.0
C247 C 0.31549 0.21072 0.46009 0.0
C248 C 0.28216 0.20232 0.46988 0.0
C249 C 0.27771 0.189 0.48796 0.0
C250 C 0.31543 0.15707 0.5195 0.0
C251 C 0.2942 0.13888 0.51099 0.0
C252 C 0.30532 0.12205 0.51198 0.0
C253 C 0.338 0.123 0.52178 0.0
C254 C 0.35967 0.14138 0.52981 0.0
C255 C 0.34867 0.15826 0.52851 0.0
C256 C 0.36905 0.04202 0.55361 0.0
C257 C 0.33624 0.02784 0.55364 0.0
C258 C 0.32653 0.01515 0.5724 0.0
C259 C 0.3496 0.01603 0.59132 0.0
C260 C 0.38203 0.03045 0.59161 0.0
C261 C 0.39152 0.04339 0.57296 0.0
C262 C 0.38429 0.04196 0.51162 0.0
C263 C 0.41517 0.03673 0.50725 0.0
C264 C 0.41664 0.02268 0.4893 0.0
C265 C 0.38695 0.01334 0.47553 0.0
C266 C 0.35661 0.01953 0.47896 0.0
C267 C 0.35536 0.0338 0.49673 0.0
C268 C 0.36985 0.07059 0.53006 0.0
C269 C 0.33451 0.0702 0.53254 0.0
C270 C 0.3243 0.08716 0.52983 0.0
C271 C 0.34898 0.10485 0.52416 0.0
C272 C 0.38418 0.10506 0.52118 0.0
C273 C 0.39441 0.08813 0.52418 0.0
H274 H 0.50082 0.7619 0.11649 0.0
N275 N 0.50049 0.79157 0.08947 0.0
H276 H 0.54967 0.75758 0.13903 0.0
H277 H 0.56893 0.81371 0.08632 0.0
H278 H 0.61827 0.80886 0.10742 0.0
H279 H 0.52801 0.82882 0.10846 0.0
H280 H 0.50299 0.84472 0.14098 0.0
H281 H 0.43792 0.77827 0.10982 0.0
H282 H 0.41269 0.79401 0.14255 0.0
H283 H 0.5293 0.7765 0.05221 0.0
H284 H 0.47991 0.82207 0.07055 0.0
H285 H 0.54066 0.78851 0.01202 0.0
H286 H 0.49016 0.83343 0.03044 0.0
H287 H 0.53505 0.81049 0.89228 0.0
H288 H 0.57843 0.80056 0.86775 0.0
H289 H 0.66008 0.84737 0.90109 0.0
H290 H 0.61592 0.8578 0.92493 0.0
H291 H 0.54498 0.87276 0.89913 0.0
H292 H 0.49926 0.8749 0.87165 0.0
H293 H 0.4371 0.81737 0.89086 0.0
H294 H 0.48274 0.81514 0.91761 0.0
H295 H 0.52759 0.80365 0.93563 0.0
H296 H 0.51405 0.79114 0.97544 0.0
H297 H 0.53668 0.85045 0.00528 0.0
N298 N 0.54702 0.8423 0.92403 0.0
H299 H 0.54875 0.86281 0.96502 0.0
C300 C 0.53105 0.788 0.09968 0.0
C301 C 0.52655 0.77201 0.11425 0.0
C302 C 0.55462 0.76953 0.127 0.0
C303 C 0.58804 0.78295 0.12524 0.0
C304 C 0.59283 0.79847 0.1097 0.0
C305 C 0.56463 0.80115 0.09733 0.0
C306 C 0.48477 0.80224 0.10681 0.0
C307 C 0.50274 0.82119 0.1157 0.0
C308 C 0.48842 0.83025 0.13431 0.0
C309 C 0.45595 0.82059 0.14444 0.0
C310 C 0.43755 0.80195 0.13495 0.0
C311 C 0.45191 0.79289 0.11634 0.0
C312 C 0.5056 0.79886 0.06536 0.0
C313 C 0.52113 0.78915 0.0478 0.0
C314 C 0.52725 0.7959 0.02464 0.0
C315 C 0.51691 0.8122 0.01808 0.0
C316 C 0.49959 0.82127 0.03511 0.0
C317 C 0.49377 0.81467 0.05835 0.0
C318 C 0.57222 0.8352 0.91023 0.0
C319 C 0.5622 0.81869 0.89435 0.0
C320 C 0.58722 0.81285 0.88046 0.0
C321 C 0.62285 0.8232 0.88232 0.0
C322 C 0.63285 0.83927 0.89885 0.0
C323 C 0.60774 0.84521 0.91258 0.0
C324 C 0.51758 0.84389 0.91048 0.0
C325 C 0.5212 0.86077 0.89765 0.0
C326 C 0.49503 0.86199 0.88205 0.0
C327 C 0.4647 0.84622 0.87895 0.0
C328 C 0.46041 0.82964 0.89258 0.0
C329 C 0.48655 0.82843 0.90813 0.0
C330 C 0.5391 0.83428 0.94734 0.0
C331 C 0.52952 0.81399 0.95066 0.0
C332 C 0.522 0.80683 0.97355 0.0
C333 C 0.52429 0.81977 0.99364 0.0
C334 C 0.53405 0.84004 0.99021 0.0
C335 C 0.54122 0.84716 0.96728 0.0
H336 H 0.81086 0.08378 0.52029 0.0
N337 N 0.87724 0.09594 0.50198 0.0
H338 H 0.78561 0.10151 0.55097 0.0
H339 H 0.91083 0.12683 0.52888 0.0
H340 H 0.88601 0.14466 0.55951 0.0
H341 H 0.92671 0.11777 0.4746 0.0
H342 H 0.91878 0.13555 0.43982 0.0
H343 H 0.81544 0.09142 0.47875 0.0
H344 H 0.80728 0.10848 0.44362 0.0
H345 H 0.82711 0.0624 0.48718 0.0
H346 H 0.92881 0.08433 0.51926 0.0
H347 H 0.8314 0.02899 0.48823 0.0
H348 H 0.93284 0.05091 0.5214 0.0
H349 H 0.83158 0.93608 0.51499 0.0
H350 H 0.81141 0.9121 0.54528 0.0
H351 H 0.91085 0.93371 0.58116 0.0
H352 H 0.93137 0.95732 0.54991 0.0
H353 H 0.94321 0.94005 0.49573 0.0
H354 H 0.93477 0.91432 0.464 0.0
H355 H 0.83921 0.92615 0.44358 0.0
H356 H 0.84796 0.9519 0.47522 0.0
H357 H 0.83746 0.97029 0.51586 0.0
H358 H 0.83137 0.00325 0.51411 0.0
H359 H 0.9411 0.02497 0.49623 0.0
N360 N 0.8985 0.95968 0.50977 0.0
H361 H 0.94719 0.99203 0.4991 0.0
C362 C 0.86275 0.10412 0.52229 0.0
C363 C 0.82748 0.09689 0.52903 0.0
C364 C 0.81307 0.10708 0.54649 0.0
C365 C 0.83376 0.12455 0.5576 0.0
C366 C 0.86943 0.13115 0.55156 0.0
C367 C 0.88367 0.12104 0.53404 0.0
C368 C 0.87188 0.10323 0.47923 0.0
C369 C 0.90069 0.11538 0.46753 0.0
C370 C 0.89605 0.12548 0.44763 0.0
C371 C 0.86231 0.12358 0.43899 0.0
C372 C 0.83356 0.11055 0.45001 0.0
C373 C 0.83825 0.10054 0.47 0.0
C374 C 0.87801 0.07592 0.50286 0.0
C375 C 0.85035 0.06006 0.49452 0.0
C376 C 0.85273 0.04088 0.49533 0.0
C377 C 0.88262 0.03719 0.50471 0.0
C378 C 0.90979 0.05315 0.51352 0.0
C379 C 0.90748 0.07226 0.51251 0.0
C380 C 0.88324 0.94849 0.5301 0.0
C381 C 0.84885 0.93603 0.52962 0.0
C382 C 0.83725 0.92227 0.5471 0.0
C383 C 0.85964 0.92074 0.56556 0.0
C384 C 0.89316 0.93418 0.56692 0.0
C385 C 0.90481 0.94785 0.54929 0.0
C386 C 0.89636 0.94788 0.48788 0.0
C387 C 0.92101 0.93745 0.48393 0.0
C388 C 0.91596 0.92265 0.466 0.0
C389 C 0.88609 0.91806 0.45154 0.0
C390 C 0.86256 0.92943 0.45438 0.0
C391 C 0.86756 0.94419 0.47246 0.0
C392 C 0.89311 0.97873 0.508 0.0
C393 C 0.86028 0.9821 0.51172 0.0
C394 C 0.85674 1.00102 0.51048 0.0
C395 C 0.88581 0.01688 0.50526 0.0
C396 C 0.9183 0.01325 0.50088 0.0
C397 C 0.92184 0.99442 0.50232 0.0
H398 H 0.49399 0.24844 0.12934 0.0
N399 N 0.48703 0.27487 0.09963 0.0
H400 H 0.54809 0.24429 0.14458 0.0
H401 H 0.55305 0.29234 0.08245 0.0
H402 H 0.60728 0.28762 0.09659 0.0
H403 H 0.52631 0.31116 0.11604 0.0
H404 H 0.51059 0.33129 0.14837 0.0
H405 H 0.42655 0.26795 0.12307 0.0
H406 H 0.41082 0.28781 0.15595 0.0
H407 H 0.45668 0.24712 0.06742 0.0
H408 H 0.50422 0.30938 0.076 0.0
H409 H 0.44432 0.25085 0.02555 0.0
H410 H 0.49064 0.31339 0.0347 0.0
H411 H 0.43973 0.25601 0.90565 0.0
H412 H 0.48103 0.253 0.87354 0.0
H413 H 0.53027 0.31531 0.88044 0.0
H414 H 0.48923 0.31822 0.91208 0.0
H415 H 0.44927 0.32809 0.93995 0.0
H416 H 0.42212 0.35094 0.92243 0.0
H417 H 0.34922 0.30243 0.88488 0.0
H418 H 0.37663 0.27978 0.90236 0.0
H419 H 0.39434 0.26592 0.9599 0.0
H420 H 0.40696 0.26313 0.00196 0.0
H421 H 0.50595 0.3073 0.99434 0.0
N422 N 0.4342 0.28871 0.92823 0.0
H423 H 0.49238 0.31056 0.95281 0.0
C424 C 0.5193 0.27061 0.10481 0.0
C425 C 0.51868 0.25673 0.12181 0.0
C426 C 0.54972 0.25433 0.13039 0.0
C427 C 0.58225 0.26571 0.12195 0.0
C428 C 0.58278 0.27886 0.10385 0.0
C429 C 0.55165 0.28143 0.0955 0.0
C430 C 0.47745 0.28797 0.11716 0.0
C431 C 0.50085 0.30607 0.12438 0.0
C432 C 0.49193 0.31752 0.14303 0.0
C433 C 0.45955 0.31111 0.15486 0.0
C434 C 0.43581 0.29331 0.14705 0.0
C435 C 0.44474 0.28189 0.12836 0.0
C436 C 0.48097 0.27787 0.07496 0.0
C437 C 0.46424 0.26159 0.06028 0.0
C438 C 0.45696 0.26381 0.03644 0.0
C439 C 0.46615 0.28247 0.02678 0.0
C440 C 0.48342 0.29879 0.04146 0.0
C441 C 0.49094 0.29652 0.06526 0.0
C442 C 0.46106 0.28726 0.91118 0.0
C443 C 0.45976 0.26893 0.90037 0.0
C444 C 0.48337 0.26724 0.88213 0.0
C445 C 0.5086 0.28396 0.87432 0.0
C446 C 0.5107 0.30222 0.8858 0.0
C447 C 0.48726 0.30387 0.90404 0.0
C448 C 0.41507 0.30218 0.92221 0.0
C449 C 0.42699 0.32234 0.92836 0.0
C450 C 0.41151 0.33541 0.91829 0.0
C451 C 0.38364 0.32852 0.90217 0.0
C452 C 0.37033 0.30823 0.89745 0.0
C453 C 0.386 0.29525 0.90733 0.0
C454 C 0.44238 0.28822 0.95312 0.0
C455 C 0.41862 0.27506 0.96744 0.0
C456 C 0.42606 0.27338 0.99139 0.0
C457 C 0.45769 0.28483 0.00151 0.0
C458 C 0.48123 0.29836 0.98722 0.0
C459 C 0.4736 0.30013 0.9633 0.0
H460 H 0.38054 0.46064 0.36638 0.0
H461 H 0.18997 0.45265 0.41994 0.0
H462 H 0.31841 0.41065 0.40353 0.0
H463 H 0.24379 0.49554 0.37003 0.0
H464 H 0.24206 0.44104 0.42175 0.0
H465 H 0.336 0.47739 0.37538 0.0
C466 C 0.35777 0.45327 0.37672 0.0
C467 C 0.35296 0.43407 0.38388 0.0
C468 C 0.24261 0.45316 0.41065 0.0
C469 C 0.30175 0.45318 0.39414 0.0
C470 C 0.21301 0.45987 0.40974 0.0
C471 C 0.21253 0.47492 0.39461 0.0
C472 C 0.27192 0.46167 0.39643 0.0
C473 C 0.24295 0.48369 0.38164 0.0
C474 C 0.33229 0.46284 0.3818 0.0
C475 C 0.32303 0.42536 0.39742 0.0
N476 N 0.27131 0.47684 0.38271 0.0
N477 N 0.29836 0.43489 0.40189 0.0
H478 H 0.19572 0.7814 0.64265 0.0
H479 H 0.05551 0.67724 0.65886 0.0
H480 H 0.15608 0.75867 0.71101 0.0
H481 H 0.10208 0.69642 0.59066 0.0
H482 H 0.0913 0.70749 0.67793 0.0
H483 H 0.15994 0.75115 0.62286 0.0
C484 C 0.17938 0.77011 0.65349 0.0
C485 C 0.17895 0.77256 0.67854 0.0
C486 C 0.09384 0.70509 0.6588 0.0
C487 C 0.13812 0.73793 0.65603 0.0
C488 C 0.0736 0.68769 0.6479 0.0
C489 C 0.0759 0.68415 0.62309 0.0
C490 C 0.11656 0.7192 0.64486 0.0
C491 C 0.09919 0.69856 0.60979 0.0
C492 C 0.15907 0.75282 0.64219 0.0
C493 C 0.15734 0.75742 0.69167 0.0
N494 N 0.1186 0.71546 0.62084 0.0
N495 N 0.13786 0.74078 0.68027 0.0
H496 H 0.79001 0.69759 0.38603 0.0
H497 H 0.94583 0.65068 0.35293 0.0
H498 H 0.85442 0.71018 0.32258 0.0
H499 H 0.89051 0.64298 0.4205 0.0
H500 H 0.90786 0.66947 0.33976 0.0
H501 H 0.8223 0.67491 0.39731 0.0
C502 C 0.81081 0.69552 0.3744 0.0
C503 C 0.81965 0.70589 0.35338 0.0
C504 C 0.90382 0.66358 0.35741 0.0
C505 C 0.85664 0.67994 0.36617 0.0
C506 C 0.92531 0.65266 0.36489 0.0
C507 C 0.92137 0.64519 0.38788 0.0
C508 C 0.87811 0.66715 0.37302 0.0
C509 C 0.89474 0.64863 0.40273 0.0
C510 C 0.82925 0.68258 0.38087 0.0
C511 C 0.8468 0.70259 0.339 0.0
N512 N 0.87419 0.65942 0.39507 0.0
N513 N 0.86436 0.68995 0.34569 0.0
H514 H 0.81081 0.31183 0.62585 0.0
H515 H 0.87988 0.42808 0.64932 0.0
H516 H 0.79618 0.34214 0.6922 0.0
H517 H 0.91552 0.39765 0.58992 0.0
H518 H 0.84317 0.39677 0.66271 0.0
H519 H 0.84402 0.34326 0.61001 0.0
C520 C 0.81456 0.32505 0.63708 0.0
C521 C 0.8008 0.32431 0.66043 0.0
C522 C 0.85892 0.39694 0.64669 0.0
C523 C 0.83839 0.36026 0.64236 0.0
C524 C 0.87997 0.41482 0.63905 0.0
C525 C 0.90112 0.41553 0.61857 0.0
C526 C 0.85882 0.37956 0.63374 0.0
C527 C 0.89947 0.39786 0.6057 0.0
C528 C 0.8335 0.34297 0.62802 0.0
C529 C 0.80642 0.34194 0.67415 0.0
N530 N 0.87883 0.38059 0.61357 0.0
N531 N 0.82469 0.35914 0.6649 0.0
H532 H 0.38339 0.32678 0.40468 0.0
H533 H 0.27361 0.21547 0.42374 0.0
H534 H 0.28196 0.29965 0.37373 0.0
H535 H 0.36963 0.24448 0.46066 0.0
H536 H 0.27927 0.24515 0.40198 0.0
H537 H 0.38142 0.29584 0.42249 0.0
C538 C 0.36069 0.31432 0.40164 0.0
C539 C 0.3327 0.31585 0.3878 0.0
C540 C 0.29925 0.24496 0.4147 0.0
C541 C 0.33038 0.28033 0.40802 0.0
C542 C 0.29603 0.22802 0.42713 0.0
C543 C 0.32106 0.22748 0.44418 0.0
C544 C 0.32769 0.26154 0.41934 0.0
C545 C 0.34986 0.2441 0.44755 0.0
C546 C 0.35961 0.29664 0.41178 0.0
C547 C 0.30404 0.29919 0.38438 0.0
N548 N 0.35223 0.26049 0.43539 0.0
N549 N 0.3036 0.28214 0.39444 0.0
H550 H 0.32301 0.87665 0.78141 0.0
H551 H 0.43257 0.81641 0.84754 0.0
H552 H 0.33035 0.81946 0.75743 0.0
H553 H 0.43843 0.87646 0.86762 0.0
H554 H 0.39157 0.81686 0.81614 0.0
H555 H 0.36236 0.87659 0.81452 0.0
C556 C 0.33285 0.8641 0.78308 0.0
C557 C 0.32339 0.84805 0.76657 0.0
C558 C 0.4017 0.82996 0.82741 0.0
C559 C 0.36818 0.84787 0.80438 0.0
C560 C 0.42491 0.82966 0.84551 0.0
C561 C 0.43882 0.8464 0.86034 0.0
C562 C 0.39216 0.84713 0.82399 0.0
C563 C 0.42851 0.86327 0.85648 0.0
C564 C 0.35531 0.86409 0.80196 0.0
C565 C 0.33694 0.83219 0.76964 0.0
N566 N 0.40574 0.86322 0.83867 0.0
N567 N 0.35855 0.83251 0.78815 0.0
H568 H 0.82311 0.83356 0.33248 0.0
H569 H 0.89062 0.88168 0.46096 0.0
H570 H 0.8238 0.79981 0.39446 0.0
H571 H 0.86214 0.91402 0.4053 0.0
H572 H 0.87395 0.85206 0.43497 0.0
H573 H 0.84482 0.86362 0.35722 0.0
C574 C 0.82802 0.83245 0.35126 0.0
C575 C 0.82151 0.81411 0.36143 0.0
C576 C 0.87148 0.86565 0.42839 0.0
C577 C 0.84645 0.84851 0.38979 0.0
C578 C 0.88128 0.8826 0.44313 0.0
C579 C 0.87789 0.90036 0.43522 0.0
C580 C 0.85839 0.86644 0.40549 0.0
C581 C 0.86498 0.9006 0.41212 0.0
C582 C 0.84029 0.84963 0.36537 0.0
C583 C 0.8283 0.81361 0.38588 0.0
N584 N 0.85574 0.88389 0.39803 0.0
N585 N 0.84043 0.83056 0.39922 0.0
H586 H 0.66032 0.25704 0.77499 0.0
H587 H 0.52434 0.30806 0.83683 0.0
H588 H 0.62774 0.30343 0.74436 0.0
H589 H 0.54465 0.25684 0.86428 0.0
H590 H 0.56276 0.30639 0.80292 0.0
H591 H 0.61819 0.25621 0.80771 0.0
C592 C 0.64416 0.26694 0.77504 0.0
C593 C 0.6477 0.2804 0.75697 0.0
C594 C 0.55883 0.29546 0.81629 0.0
C595 C 0.59974 0.27962 0.79435 0.0
C596 C 0.53708 0.2965 0.83577 0.0
C597 C 0.53156 0.28267 0.85351 0.0
C598 C 0.57545 0.28053 0.81451 0.0
C599 C 0.54816 0.26776 0.85094 0.0
C600 C 0.62016 0.26647 0.79372 0.0
C601 C 0.62607 0.29287 0.75793 0.0
N602 N 0.56957 0.26714 0.83185 0.0
N603 N 0.60322 0.29224 0.77635 0.0
H604 H 0.24173 0.92751 0.68916 0.0
H605 H 0.39076 0.99455 0.60727 0.0
H606 H 0.32994 0.90977 0.66075 0.0
H607 H 0.28802 0.00259 0.61596 0.0
H608 H 0.37333 0.96674 0.63334 0.0
H609 H 0.26263 0.95817 0.66832 0.0
C610 C 0.26557 0.9301 0.67864 0.0
C611 C 0.284 0.91601 0.67654 0.0
C612 C 0.35471 0.9747 0.6297 0.0
C613 C 0.30815 0.95108 0.6529 0.0
C614 C 0.36473 0.99067 0.61502 0.0
C615 C 0.34073 1.00082 0.60941 0.0
C616 C 0.32054 0.96895 0.639 0.0
C617 C 0.30719 0.99501 0.61968 0.0
C618 C 0.27742 0.94758 0.66674 0.0
C619 C 0.31476 0.92015 0.66271 0.0
N620 N 0.29803 0.97942 0.63394 0.0
N621 N 0.32588 0.93732 0.65143 0.0
H622 H 0.70605 0.74736 0.23345 0.0
H623 H 0.6392 0.8131 0.14622 0.0
H624 H 0.76249 0.8073 0.22026 0.0
H625 H 0.60289 0.74989 0.14054 0.0
H626 H 0.68403 0.81098 0.17377 0.0
H627 H 0.66733 0.74752 0.20001 0.0
C628 C 0.71053 0.76047 0.2234 0.0
C629 C 0.73735 0.77741 0.22981 0.0
C630 C 0.66649 0.79755 0.16633 0.0
C631 C 0.69307 0.77772 0.1918 0.0
C632 C 0.64091 0.79873 0.15037 0.0
C633 C 0.61703 0.78164 0.14086 0.0
C634 C 0.66805 0.77917 0.17326 0.0
C635 C 0.62025 0.76349 0.14767 0.0
C636 C 0.68847 0.76053 0.20431 0.0
C637 C 0.74204 0.79395 0.21609 0.0
N638 N 0.64506 0.76273 0.16363 0.0
N639 N 0.71989 0.79375 0.19794 0.0
H640 H 0.80562 0.21121 0.66361 0.0
H641 H 0.77164 0.13312 0.55264 0.0
H642 H 0.72281 0.20404 0.6125 0.0
H643 H 0.86026 0.14415 0.59961 0.0
H644 H 0.74937 0.15623 0.57726 0.0
H645 H 0.82241 0.18424 0.64295 0.0
C646 C 0.79086 0.20392 0.6481 0.0
C647 C 0.7629 0.21 0.63968 0.0
C648 C 0.77356 0.15349 0.5823 0.0
C649 C 0.78198 0.17907 0.61595 0.0
C650 C 0.78614 0.14015 0.56836 0.0
C651 C 0.81799 0.13676 0.57399 0.0
C652 C 0.79292 0.16352 0.60204 0.0
C653 C 0.83586 0.14653 0.59441 0.0
C654 C 0.80047 0.18851 0.63631 0.0
C655 C 0.74466 0.19994 0.61955 0.0
N656 N 0.82319 0.15954 0.6076 0.0
N657 N 0.7546 0.18503 0.60833 0.0
H658 H 0.3508 0.35433 0.27 0.0
H659 H 0.50325 0.32968 0.19126 0.0
H660 H 0.45821 0.36916 0.29288 0.0
H661 H 0.39693 0.31795 0.16709 0.0
H662 H 0.48819 0.34605 0.22748 0.0
H663 H 0.368 0.34262 0.23134 0.0
C664 C 0.37806 0.35522 0.26687 0.0
C665 C 0.40307 0.36262 0.2848 0.0
C666 C 0.4682 0.34002 0.21418 0.0
C667 C 0.42294 0.34914 0.24049 0.0
C668 C 0.47684 0.33077 0.1934 0.0
C669 C 0.45128 0.32234 0.17611 0.0
C670 C 0.43371 0.3408 0.21781 0.0
C671 C 0.41735 0.32395 0.18009 0.0
C672 C 0.38787 0.34853 0.24474 0.0
C673 C 0.43803 0.36351 0.27962 0.0
N674 N 0.40952 0.3329 0.20056 0.0
N675 N 0.44689 0.35671 0.25799 0.0
H676 H 0.75159 0.71372 0.61911 0.0
H677 H 0.84655 0.6334 0.64968 0.0
H678 H 0.78593 0.7076 0.69023 0.0
H679 H 0.85992 0.66106 0.58166 0.0
H680 H 0.81092 0.65456 0.66359 0.0
H681 H 0.77826 0.68835 0.60406 0.0
C682 C 0.76443 0.7069 0.63158 0.0
C683 C 0.76683 0.71285 0.65592 0.0
C684 C 0.82145 0.65579 0.64554 0.0
C685 C 0.79674 0.68374 0.63891 0.0
C686 C 0.84195 0.64379 0.63757 0.0
C687 C 0.85696 0.64557 0.61451 0.0
C688 C 0.81526 0.66945 0.63025 0.0
C689 C 0.84887 0.65894 0.59948 0.0
C690 C 0.77967 0.69251 0.62297 0.0
C691 C 0.78379 0.70357 0.6713 0.0
N692 N 0.82873 0.67041 0.60765 0.0
N693 N 0.79805 0.68943 0.66255 0.0
H694 H 0.83828 0.33511 0.31836 0.0
H695 H 0.01055 0.40085 0.38459 0.0
H696 H 0.92006 0.31192 0.34237 0.0
H697 H 0.93873 0.42439 0.34761 0.0
H698 H 0.97312 0.36774 0.37513 0.0
H699 H 0.87029 0.36734 0.33483 0.0
C700 C 0.86285 0.33673 0.32726 0.0
C701 C 0.87665 0.32077 0.32875 0.0
C702 C 0.96543 0.38015 0.36925 0.0
C703 C 0.91353 0.35778 0.34764 0.0
C704 C 0.98663 0.39905 0.37479 0.0
C705 C 0.97781 0.41539 0.36675 0.0
C706 C 0.93509 0.37757 0.3557 0.0
C707 C 0.94673 0.4122 0.35388 0.0
C708 C 0.88116 0.35519 0.33663 0.0
C709 C 0.90853 0.32381 0.34065 0.0
N710 N 0.92657 0.39367 0.34869 0.0
N711 N 0.92601 0.34199 0.34952 0.0
H712 H 0.16663 0.39381 0.70657 0.0
H713 H 0.15789 0.46496 0.60321 0.0
H714 H 0.25461 0.41735 0.66003 0.0
H715 H 0.08917 0.45655 0.66476 0.0
H716 H 0.19301 0.44674 0.62237 0.0
H717 H 0.13668 0.41572 0.69008 0.0
C718 C 0.1797 0.40365 0.69293 0.0
C719 C 0.21312 0.40373 0.68462 0.0
C720 C 0.17049 0.44912 0.63177 0.0
C721 C 0.17885 0.42875 0.6655 0.0
C722 C 0.15042 0.45945 0.62083 0.0
C723 C 0.12063 0.46231 0.63244 0.0
C724 C 0.16028 0.44131 0.65425 0.0
C725 C 0.11216 0.45491 0.65529 0.0
C726 C 0.16265 0.4162 0.68358 0.0
C727 C 0.22887 0.41685 0.66697 0.0
N728 N 0.13164 0.44459 0.66531 0.0
N729 N 0.21145 0.42871 0.65781 0.0
H730 H 0.22789 0.79135 0.38999 0.0
H731 H 0.16949 0.67568 0.36725 0.0
H732 H 0.28144 0.76076 0.34114 0.0
H733 H 0.13419 0.70412 0.42849 0.0
H734 H 0.21105 0.70689 0.35766 0.0
H735 H 0.19359 0.75981 0.40484 0.0
C736 C 0.23264 0.77804 0.38252 0.0
C737 C 0.25737 0.77869 0.36414 0.0
C738 C 0.1945 0.70631 0.37335 0.0
C739 C 0.2181 0.74262 0.3809 0.0
C740 C 0.17073 0.68851 0.37877 0.0
C741 C 0.14834 0.68739 0.39861 0.0
C742 C 0.19554 0.7232 0.38766 0.0
C743 C 0.15116 0.70439 0.41308 0.0
C744 C 0.21311 0.76005 0.39104 0.0
C745 C 0.26254 0.76098 0.35522 0.0
N746 N 0.17405 0.72167 0.40716 0.0
N747 N 0.24284 0.74369 0.36351 0.0
H748 H 0.85316 0.82274 0.65373 0.0
H749 H 0.79468 0.90395 0.58506 0.0
H750 H 0.74579 0.81807 0.63723 0.0
H751 H 0.90031 0.89933 0.58308 0.0
H752 H 0.77698 0.87459 0.60838 0.0
H753 H 0.8716 0.85278 0.63154 0.0
C754 C 0.83348 0.82797 0.64536 0.0
C755 C 0.79787 0.81783 0.6473 0.0
C756 C 0.80406 0.88007 0.60289 0.0
C757 C 0.81878 0.85233 0.6222 0.0
C758 C 0.81421 0.89683 0.58954 0.0
C759 C 0.84906 0.90416 0.58192 0.0
C760 C 0.82894 0.87059 0.60887 0.0
C761 C 0.87327 0.89446 0.58877 0.0
C762 C 0.84403 0.84512 0.63273 0.0
C763 C 0.77353 0.82533 0.63611 0.0
N764 N 0.86274 0.87817 0.60179 0.0
N765 N 0.78442 0.84217 0.62416 0.0
H766 H 0.7779 0.29957 0.19762 0.0
H767 H 0.59881 0.23403 0.13977 0.0
H768 H 0.72011 0.24353 0.22396 0.0
H769 H 0.64078 0.29629 0.1314 0.0
H770 H 0.64951 0.23473 0.16404 0.0
H771 H 0.73441 0.29567 0.16635 0.0
C772 C 0.75628 0.28633 0.19668 0.0
C773 C 0.7524 0.27196 0.21365 0.0
C774 C 0.64769 0.24816 0.15662 0.0
C775 C 0.7025 0.26744 0.17784 0.0
C776 C 0.6187 0.24782 0.14284 0.0
C777 C 0.61513 0.26517 0.13368 0.0
C778 C 0.6735 0.26594 0.16109 0.0
C779 C 0.64233 0.28248 0.1378 0.0
C780 C 0.73142 0.28415 0.17885 0.0
C781 C 0.72394 0.25506 0.2114 0.0
N782 N 0.67018 0.28243 0.15131 0.0
N783 N 0.6999 0.25332 0.19392 0.0
H784 H 0.28275 0.29368 0.6944 0.0
H785 H 0.33764 0.25577 0.56669 0.0
H786 H 0.33254 0.33201 0.63859 0.0
H787 H 0.28319 0.21709 0.62085 0.0
H788 H 0.33675 0.28381 0.59312 0.0
H789 H 0.28263 0.26546 0.66786 0.0
C790 C 0.29354 0.29618 0.67653 0.0
C791 C 0.30775 0.31526 0.66873 0.0
C792 C 0.32503 0.2692 0.59927 0.0
C793 C 0.30784 0.28297 0.63828 0.0
C794 C 0.3258 0.25316 0.58426 0.0
C795 C 0.31069 0.23401 0.59162 0.0
C796 C 0.30904 0.26617 0.62189 0.0
C797 C 0.29497 0.23158 0.61438 0.0
C798 C 0.29349 0.28004 0.66139 0.0
C799 C 0.32133 0.31757 0.64537 0.0
N800 N 0.29462 0.24747 0.62873 0.0
N801 N 0.32114 0.30162 0.63101 0.0
H802 H 0.32093 0.84398 0.25718 0.0
H803 H 0.49245 0.83967 0.18361 0.0
H804 H 0.42351 0.85677 0.28838 0.0
H805 H 0.38845 0.82105 0.15419 0.0
H806 H 0.46892 0.85105 0.22033 0.0
H807 H 0.34658 0.84066 0.21778 0.0
C808 C 0.34892 0.84635 0.25574 0.0
C809 C 0.37003 0.85043 0.2762 0.0
C810 C 0.45127 0.84464 0.20577 0.0
C811 C 0.39951 0.84649 0.2311 0.0
C812 C 0.46472 0.83825 0.18471 0.0
C813 C 0.44234 0.82926 0.16583 0.0
C814 C 0.41514 0.84201 0.20803 0.0
C815 C 0.40657 0.8276 0.16844 0.0
C816 C 0.36352 0.84439 0.23322 0.0
C817 C 0.40616 0.85344 0.27316 0.0
N818 N 0.39405 0.83379 0.18921 0.0
N819 N 0.41969 0.85123 0.25107 0.0
H820 H 0.89592 0.20453 0.32439 0.0
H821 H 0.81045 0.14163 0.4361 0.0
H822 H 0.79939 0.20733 0.35853 0.0
H823 H 0.90243 0.13505 0.39872 0.0
H824 H 0.80466 0.1646 0.40668 0.0
H825 H 0.89789 0.17834 0.35053 0.0
C826 C 0.87507 0.1996 0.33733 0.0
C827 C 0.84753 0.20821 0.33935 0.0
C828 C 0.82599 0.15804 0.40478 0.0
C829 C 0.84966 0.17825 0.36935 0.0
C830 C 0.82917 0.14475 0.4215 0.0
C831 C 0.85702 0.13634 0.41996 0.0
C832 C 0.85094 0.16312 0.38639 0.0
C833 C 0.88083 0.14136 0.40086 0.0
C834 C 0.8762 0.18462 0.35223 0.0
C835 C 0.82119 0.20118 0.35638 0.0
N836 N 0.87735 0.15449 0.38491 0.0
N837 N 0.823 0.18668 0.37079 0.0
H838 H 0.26643 0.36289 0.79597 0.0
H839 H 0.42305 0.36131 0.88071 0.0
H840 H 0.37529 0.39066 0.78077 0.0
H841 H 0.31623 0.32671 0.8905 0.0
H842 H 0.40375 0.37941 0.8504 0.0
H843 H 0.28224 0.35704 0.83631 0.0
C844 C 0.29358 0.36814 0.80125 0.0
C845 C 0.31967 0.37689 0.78474 0.0
C846 C 0.38442 0.36811 0.85949 0.0
C847 C 0.33793 0.37004 0.83086 0.0
C848 C 0.39539 0.35786 0.87697 0.0
C849 C 0.37126 0.34225 0.88789 0.0
C850 C 0.34911 0.36267 0.85282 0.0
C851 C 0.3358 0.33836 0.88214 0.0
C852 C 0.30259 0.36473 0.82429 0.0
C853 C 0.35435 0.38356 0.79273 0.0
N854 N 0.32585 0.34829 0.86475 0.0
N855 N 0.36254 0.37971 0.81509 0.0
H856 H 0.41301 0.90437 0.41465 0.0
H857 H 0.35396 0.00248 0.43201 0.0
H858 H 0.32684 0.91406 0.37653 0.0
H859 H 0.41876 0.98457 0.48206 0.0
H860 H 0.34987 0.97247 0.40771 0.0
H861 H 0.42179 0.93623 0.43562 0.0
C862 C 0.39603 0.91323 0.4106 0.0
C863 C 0.36899 0.90648 0.39392 0.0
C864 C 0.36515 0.97523 0.42394 0.0
C865 C 0.37901 0.94301 0.41782 0.0
C866 C 0.36742 0.99233 0.43789 0.0
C867 C 0.38667 0.99614 0.45923 0.0
C868 C 0.38242 0.96187 0.43128 0.0
C869 C 0.40408 0.98253 0.46562 0.0
C870 C 0.40102 0.93141 0.42262 0.0
C871 C 0.34785 0.91863 0.38937 0.0
N872 N 0.40145 0.96603 0.45176 0.0
N873 N 0.35328 0.93631 0.40127 0.0
H874 H 0.71925 0.76457 0.77435 0.0
H875 H 0.67995 0.84779 0.8609 0.0
H876 H 0.78527 0.82419 0.77945 0.0
H877 H 0.62549 0.78643 0.86652 0.0
H878 H 0.72006 0.83902 0.8321 0.0
H879 H 0.68569 0.77175 0.80897 0.0
C880 C 0.72692 0.7791 0.78288 0.0
C881 C 0.75491 0.79385 0.77384 0.0
C882 C 0.69953 0.82744 0.83978 0.0
C883 C 0.71651 0.80219 0.81327 0.0
C884 C 0.67668 0.83244 0.8564 0.0
C885 C 0.64908 0.81785 0.86616 0.0
C886 C 0.69467 0.80772 0.83259 0.0
C887 C 0.64592 0.79822 0.85915 0.0
C888 C 0.70776 0.78319 0.80264 0.0
C889 C 0.76375 0.81239 0.78566 0.0
N890 N 0.66824 0.79374 0.84265 0.0
N891 N 0.74442 0.81607 0.8046 0.0
loop_
_geom_bond_atom_site_label_1
_geom_bond_atom_site_label_2
_geom_bond_distance
_geom_bond_site_symmetry_2
_ccdc_geom_bond_type
O0 Cd1 2.300 . S
O0 C7 1.275 . S
Cd1 O0 2.300 . S
Cd1 O9 2.381 . S
Cd1 O10 2.378 . S
O2 Cd3 2.385 . S
O2 C7 1.255 . S
Cd3 O2 2.385 . S
Cd3 O4 2.317 . S
O4 Cd3 2.317 . S
O4 C5 1.232 . S
C5 O4 1.232 . S
C5 O6 1.218 . S
O6 C5 1.218 . S
C7 O0 1.275 . S
C7 O2 1.255 . S
C8 O9 1.258 . S
C8 O10 1.256 . S
O9 Cd1 2.381 . S
O9 C8 1.258 . S
O10 Cd1 2.378 . S
O10 C8 1.256 . S
O11 Cd12 2.300 . S
O11 C18 1.275 . S
Cd12 O11 2.300 . S
Cd12 O20 2.381 . S
Cd12 O21 2.378 . S
O13 Cd14 2.385 . S
O13 C18 1.255 . S
Cd14 O13 2.385 . S
Cd14 O15 2.317 . S
O15 Cd14 2.317 . S
O15 C16 1.232 . S
C16 O15 1.232 . S
C16 O17 1.218 . S
O17 C16 1.218 . S
C18 O11 1.275 . S
C18 O13 1.255 . S
C19 O20 1.258 . S
C19 O21 1.256 . S
O20 Cd12 2.381 . S
O20 C19 1.258 . S
O21 Cd12 2.378 . S
O21 C19 1.256 . S
O22 Cd23 2.300 . S
O22 C29 1.275 . S
Cd23 O22 2.300 . S
Cd23 O31 2.381 . S
Cd23 O32 2.378 . S
O24 Cd25 2.385 . S
O24 C29 1.255 . S
Cd25 O24 2.385 . S
Cd25 O26 2.317 . S
O26 Cd25 2.317 . S
O26 C27 1.232 . S
C27 O26 1.232 . S
C27 O28 1.218 . S
O28 C27 1.218 . S
C29 O22 1.275 . S
C29 O24 1.255 . S
C30 O31 1.258 . S
C30 O32 1.256 . S
O31 Cd23 2.381 . S
O31 C30 1.258 . S
O32 Cd23 2.378 . S
O32 C30 1.256 . S
O33 Cd34 2.300 . S
O33 C40 1.275 . S
Cd34 O33 2.300 . S
Cd34 O42 2.381 . S
Cd34 O43 2.378 . S
O35 Cd36 2.385 . S
O35 C40 1.255 . S
Cd36 O35 2.385 . S
Cd36 O37 2.317 . S
O37 Cd36 2.317 . S
O37 C38 1.232 . S
C38 O37 1.232 . S
C38 O39 1.218 . S
O39 C38 1.218 . S
C40 O33 1.275 . S
C40 O35 1.255 . S
C41 O42 1.258 . S
C41 O43 1.256 . S
O42 Cd34 2.381 . S
O42 C41 1.258 . S
O43 Cd34 2.378 . S
O43 C41 1.256 . S
O44 Cd45 2.300 . S
O44 C51 1.275 . S
Cd45 O44 2.300 . S
Cd45 O53 2.381 . S
Cd45 O54 2.378 . S
O46 Cd47 2.385 . S
O46 C51 1.255 . S
Cd47 O46 2.385 . S
Cd47 O48 2.317 . S
O48 Cd47 2.317 . S
O48 C49 1.232 . S
C49 O48 1.232 . S
C49 O50 1.218 . S
O50 C49 1.218 . S
C51 O44 1.275 . S
C51 O46 1.255 . S
C52 O53 1.258 . S
C52 O54 1.256 . S
O53 Cd45 2.381 . S
O53 C52 1.258 . S
O54 Cd45 2.378 . S
O54 C52 1.256 . S
O55 Cd56 2.300 . S
O55 C62 1.275 . S
Cd56 O55 2.300 . S
Cd56 O64 2.381 . S
Cd56 O65 2.378 . S
O57 Cd58 2.385 . S
O57 C62 1.255 . S
Cd58 O57 2.385 . S
Cd58 O59 2.317 . S
O59 Cd58 2.317 . S
O59 C60 1.232 . S
C60 O59 1.232 . S
C60 O61 1.218 . S
O61 C60 1.218 . S
C62 O55 1.275 . S
C62 O57 1.255 . S
C63 O64 1.258 . S
C63 O65 1.256 . S
O64 Cd56 2.381 . S
O64 C63 1.258 . S
O65 Cd56 2.378 . S
O65 C63 1.256 . S
O66 Cd67 2.300 . S
O66 C73 1.275 . S
Cd67 O66 2.300 . S
Cd67 O75 2.381 . S
Cd67 O76 2.378 . S
O68 Cd69 2.385 . S
O68 C73 1.255 . S
Cd69 O68 2.385 . S
Cd69 O70 2.317 . S
O70 Cd69 2.317 . S
O70 C71 1.232 . S
C71 O70 1.232 . S
C71 O72 1.218 . S
O72 C71 1.218 . S
C73 O66 1.275 . S
C73 O68 1.255 . S
C74 O75 1.258 . S
C74 O76 1.256 . S
O75 Cd67 2.381 . S
O75 C74 1.258 . S
O76 Cd67 2.378 . S
O76 C74 1.256 . S
O77 Cd78 2.300 . S
O77 C84 1.275 . S
Cd78 O77 2.300 . S
Cd78 O86 2.381 . S
Cd78 O87 2.378 . S
O79 Cd80 2.385 . S
O79 C84 1.255 . S
Cd80 O79 2.385 . S
Cd80 O81 2.317 . S
O81 Cd80 2.317 . S
O81 C82 1.232 . S
C82 O81 1.232 . S
C82 O83 1.218 . S
O83 C82 1.218 . S
C84 O77 1.275 . S
C84 O79 1.255 . S
C85 O86 1.258 . S
C85 O87 1.256 . S
O86 Cd78 2.381 . S
O86 C85 1.258 . S
O87 Cd78 2.378 . S
O87 C85 1.256 . S
H88 C115 0.929 . S
N89 C114 1.433 . S
N89 C120 1.435 . S
N89 C126 1.423 . S
H90 C116 0.930 . S
H91 C119 0.931 1_455 S
H92 C118 0.929 . S
H93 C121 0.930 . S
H94 C122 0.932 . S
H95 C125 0.929 . S
H96 C124 0.931 . S
H97 C127 0.929 . S
H98 C131 0.932 . S
H99 C128 0.931 . S
H100 C130 0.929 . S
H101 C133 0.929 . S
H102 C134 0.930 . S
H103 C136 0.929 . S
H104 C137 0.931 . S
H105 C139 0.930 . S
H106 C140 0.932 . S
H107 C142 0.931 . S
H108 C143 0.929 . S
H109 C145 0.929 . S
H110 C146 0.931 . S
H111 C148 0.929 . S
N112 C132 1.433 . S
N112 C138 1.435 . S
N112 C144 1.423 . S
H113 C149 0.932 . S
C114 N89 1.433 . S
C114 C115 1.363 . S
C114 C119 1.370 1_455 S
C115 H88 0.929 . S
C115 C114 1.363 . S
C115 C116 1.385 1_455 S
C116 H90 0.930 . S
C116 C115 1.385 1_655 S
C116 C117 1.357 . S
C117 C116 1.357 . S
C117 C118 1.406 . S
C118 H92 0.929 . S
C118 C117 1.406 . S
C118 C119 1.391 . S
C119 H91 0.931 1_655 S
C119 C114 1.370 1_655 S
C119 C118 1.391 . S
C120 N89 1.435 . S
C120 C121 1.358 . S
C120 C125 1.371 . S
C121 H93 0.930 . S
C121 C120 1.358 . S
C121 C122 1.405 . S
C122 H94 0.932 . S
C122 C121 1.405 . S
C122 C123 1.383 . S
C123 C122 1.383 . S
C123 C124 1.393 . S
C124 H96 0.931 . S
C124 C123 1.393 . S
C124 C125 1.382 . S
C125 H95 0.929 . S
C125 C120 1.371 . S
C125 C124 1.382 . S
C126 N89 1.423 . S
C126 C127 1.362 . S
C126 C131 1.388 . S
C127 H97 0.929 . S
C127 C126 1.362 . S
C127 C128 1.376 . S
C128 H99 0.931 . S
C128 C127 1.376 . S
C128 C129 1.396 . S
C129 C128 1.396 . S
C129 C130 1.348 . S
C129 C147 1.472 . S
C130 H100 0.929 . S
C130 C129 1.348 . S
C130 C131 1.443 . S
C131 H98 0.932 . S
C131 C126 1.388 . S
C131 C130 1.443 . S
C132 N112 1.433 . S
C132 C133 1.363 . S
C132 C137 1.370 . S
C133 H101 0.929 . S
C133 C132 1.363 . S
C133 C134 1.385 1_455 S
C134 H102 0.930 . S
C134 C133 1.385 1_655 S
C134 C135 1.357 . S
C135 C134 1.357 . S
C135 C136 1.406 . S
C136 H103 0.929 . S
C136 C135 1.406 . S
C136 C137 1.391 1_655 S
C137 H104 0.931 . S
C137 C132 1.370 . S
C137 C136 1.391 1_455 S
C138 N112 1.435 . S
C138 C139 1.358 . S
C138 C143 1.371 . S
C139 H105 0.930 . S
C139 C138 1.358 . S
C139 C140 1.405 . S
C140 H106 0.932 . S
C140 C139 1.405 . S
C140 C141 1.383 . S
C141 C140 1.383 . S
C141 C142 1.393 . S
C142 H107 0.931 . S
C142 C141 1.393 . S
C142 C143 1.382 . S
C143 H108 0.929 . S
C143 C138 1.371 . S
C143 C142 1.382 . S
C144 N112 1.423 . S
C144 C145 1.362 . S
C144 C149 1.388 . S
C145 H109 0.929 . S
C145 C144 1.362 . S
C145 C146 1.376 . S
C146 H110 0.931 . S
C146 C145 1.376 . S
C146 C147 1.396 . S
C147 C129 1.472 . S
C147 C146 1.396 . S
C147 C148 1.348 . S
C148 H111 0.929 . S
C148 C147 1.348 . S
C148 C149 1.443 . S
C149 H113 0.932 . S
C149 C144 1.388 . S
C149 C148 1.443 . S
H150 C177 0.929 . S
N151 C176 1.433 1_455 S
N151 C182 1.435 . S
N151 C188 1.423 . S
H152 C178 0.930 . S
H153 C181 0.931 . S
H154 C180 0.929 . S
H155 C183 0.930 . S
H156 C184 0.932 . S
H157 C187 0.929 . S
H158 C186 0.931 . S
H159 C189 0.929 . S
H160 C193 0.932 . S
H161 C190 0.931 . S
H162 C192 0.929 . S
H163 C195 0.929 . S
H164 C196 0.930 . S
H165 C198 0.929 . S
H166 C199 0.931 . S
H167 C201 0.930 . S
H168 C202 0.932 . S
H169 C204 0.931 . S
H170 C205 0.929 . S
H171 C207 0.929 . S
H172 C208 0.931 . S
H173 C210 0.929 . S
N174 C194 1.433 1_455 S
N174 C200 1.435 . S
N174 C206 1.423 . S
H175 C211 0.932 . S
C176 N151 1.433 1_655 S
C176 C177 1.363 . S
C176 C181 1.370 . S
C177 H150 0.929 . S
C177 C176 1.363 . S
C177 C178 1.385 . S
C178 H152 0.930 . S
C178 C177 1.385 . S
C178 C179 1.357 . S
C179 C178 1.357 . S
C179 C180 1.406 . S
C180 H154 0.929 . S
C180 C179 1.406 . S
C180 C181 1.391 . S
C181 H153 0.931 . S
C181 C176 1.370 . S
C181 C180 1.391 . S
C182 N151 1.435 . S
C182 C183 1.358 . S
C182 C187 1.371 . S
C183 H155 0.930 . S
C183 C182 1.358 . S
C183 C184 1.405 . S
C184 H156 0.932 . S
C184 C183 1.405 . S
C184 C185 1.383 . S
C185 C184 1.383 . S
C185 C186 1.393 . S
C186 H158 0.931 . S
C186 C185 1.393 . S
C186 C187 1.382 . S
C187 H157 0.929 . S
C187 C182 1.371 . S
C187 C186 1.382 . S
C188 N151 1.423 . S
C188 C189 1.362 1_455 S
C188 C193 1.388 . S
C189 H159 0.929 . S
C189 C188 1.362 1_655 S
C189 C190 1.376 . S
C190 H161 0.931 . S
C190 C189 1.376 . S
C190 C191 1.396 1_655 S
C191 C190 1.396 1_455 S
C191 C192 1.348 . S
C191 C209 1.472 . S
C192 H162 0.929 . S
C192 C191 1.348 . S
C192 C193 1.443 . S
C193 H160 0.932 . S
C193 C188 1.388 . S
C193 C192 1.443 . S
C194 N174 1.433 1_655 S
C194 C195 1.363 . S
C194 C199 1.370 . S
C195 H163 0.929 . S
C195 C194 1.363 . S
C195 C196 1.385 . S
C196 H164 0.930 . S
C196 C195 1.385 . S
C196 C197 1.357 . S
C197 C196 1.357 . S
C197 C198 1.406 . S
C198 H165 0.929 . S
C198 C197 1.406 . S
C198 C199 1.391 . S
C199 H166 0.931 . S
C199 C194 1.370 . S
C199 C198 1.391 . S
C200 N174 1.435 . S
C200 C201 1.358 . S
C200 C205 1.371 . S
C201 H167 0.930 . S
C201 C200 1.358 . S
C201 C202 1.405 . S
C202 H168 0.932 . S
C202 C201 1.405 . S
C202 C203 1.383 . S
C203 C202 1.383 . S
C203 C204 1.393 . S
C204 H169 0.931 . S
C204 C203 1.393 . S
C204 C205 1.382 . S
C205 H170 0.929 . S
C205 C200 1.371 . S
C205 C204 1.382 . S
C206 N174 1.423 . S
C206 C207 1.362 1_455 S
C206 C211 1.388 . S
C207 H171 0.929 . S
C207 C206 1.362 1_655 S
C207 C208 1.376 . S
C208 H172 0.931 . S
C208 C207 1.376 . S
C208 C209 1.396 1_655 S
C209 C191 1.472 . S
C209 C208 1.396 1_455 S
C209 C210 1.348 . S
C210 H173 0.929 . S
C210 C209 1.348 . S
C210 C211 1.443 . S
C211 H175 0.932 . S
C211 C206 1.388 . S
C211 C210 1.443 . S
H212 C239 0.929 . S
N213 C238 1.433 . S
N213 C244 1.435 . S
N213 C250 1.423 . S
H214 C240 0.930 . S
H215 C243 0.931 . S
H216 C242 0.929 . S
H217 C245 0.930 . S
H218 C246 0.932 . S
H219 C249 0.929 . S
H220 C248 0.931 . S
H221 C251 0.929 . S
H222 C255 0.932 . S
H223 C252 0.931 . S
H224 C254 0.929 . S
H225 C257 0.929 . S
H226 C258 0.930 1_565 S
H227 C260 0.929 . S
H228 C261 0.931 . S
H229 C263 0.930 . S
H230 C264 0.932 1_565 S
H231 C266 0.931 . S
H232 C267 0.929 . S
H233 C269 0.929 . S
H234 C270 0.931 . S
H235 C272 0.929 . S
N236 C256 1.433 . S
N236 C262 1.435 . S
N236 C268 1.423 . S
H237 C273 0.932 . S
C238 N213 1.433 . S
C238 C239 1.363 . S
C238 C243 1.370 . S
C239 H212 0.929 . S
C239 C238 1.363 . S
C239 C240 1.385 . S
C240 H214 0.930 . S
C240 C239 1.385 . S
C240 C241 1.357 . S
C241 C240 1.357 . S
C241 C242 1.406 . S
C242 H216 0.929 . S
C242 C241 1.406 . S
C242 C243 1.391 . S
C243 H215 0.931 . S
C243 C238 1.370 . S
C243 C242 1.391 . S
C244 N213 1.435 . S
C244 C245 1.358 . S
C244 C249 1.371 . S
C245 H217 0.930 . S
C245 C244 1.358 . S
C245 C246 1.405 . S
C246 H218 0.932 . S
C246 C245 1.405 . S
C246 C247 1.383 . S
C247 C246 1.383 . S
C247 C248 1.393 . S
C248 H220 0.931 . S
C248 C247 1.393 . S
C248 C249 1.382 . S
C249 H219 0.929 . S
C249 C244 1.371 . S
C249 C248 1.382 . S
C250 N213 1.423 . S
C250 C251 1.362 . S
C250 C255 1.388 . S
C251 H221 0.929 . S
C251 C250 1.362 . S
C251 C252 1.376 . S
C252 H223 0.931 . S
C252 C251 1.376 . S
C252 C253 1.396 . S
C253 C252 1.396 . S
C253 C254 1.348 . S
C253 C271 1.472 . S
C254 H224 0.929 . S
C254 C253 1.348 . S
C254 C255 1.443 . S
C255 H222 0.932 . S
C255 C250 1.388 . S
C255 C254 1.443 . S
C256 N236 1.433 . S
C256 C257 1.363 . S
C256 C261 1.370 . S
C257 H225 0.929 . S
C257 C256 1.363 . S
C257 C258 1.385 . S
C258 H226 0.930 1_545 S
C258 C257 1.385 . S
C258 C259 1.357 . S
C259 C258 1.357 . S
C259 C260 1.406 . S
C260 H227 0.929 . S
C260 C259 1.406 . S
C260 C261 1.391 . S
C261 H228 0.931 . S
C261 C256 1.370 . S
C261 C260 1.391 . S
C262 N236 1.435 . S
C262 C263 1.358 . S
C262 C267 1.371 . S
C263 H229 0.930 . S
C263 C262 1.358 . S
C263 C264 1.405 . S
C264 H230 0.932 1_545 S
C264 C263 1.405 . S
C264 C265 1.383 . S
C265 C264 1.383 . S
C265 C266 1.393 . S
C266 H231 0.931 . S
C266 C265 1.393 . S
C266 C267 1.382 . S
C267 H232 0.929 . S
C267 C262 1.371 . S
C267 C266 1.382 . S
C268 N236 1.423 . S
C268 C269 1.362 . S
C268 C273 1.388 . S
C269 H233 0.929 . S
C269 C268 1.362 . S
C269 C270 1.376 . S
C270 H234 0.931 . S
C270 C269 1.376 . S
C270 C271 1.396 . S
C271 C253 1.472 . S
C271 C270 1.396 . S
C271 C272 1.348 . S
C272 H235 0.929 . S
C272 C271 1.348 . S
C272 C273 1.443 . S
C273 H237 0.932 . S
C273 C268 1.388 . S
C273 C272 1.443 . S
H274 C301 0.929 . S
N275 C300 1.433 . S
N275 C306 1.435 . S
N275 C312 1.423 . S
H276 C302 0.930 . S
H277 C305 0.931 . S
H278 C304 0.929 . S
H279 C307 0.930 . S
H280 C308 0.932 . S
H281 C311 0.929 . S
H282 C310 0.931 . S
H283 C313 0.929 . S
H284 C317 0.932 . S
H285 C314 0.931 . S
H286 C316 0.929 . S
H287 C319 0.929 . S
H288 C320 0.930 . S
H289 C322 0.929 . S
H290 C323 0.931 . S
H291 C325 0.930 . S
H292 C326 0.932 . S
H293 C328 0.931 . S
H294 C329 0.929 . S
H295 C331 0.929 . S
H296 C332 0.931 . S
H297 C334 0.950 . S
N298 C318 1.433 . S
N298 C324 1.435 . S
N298 C330 1.423 . S
H299 C335 0.932 . S
C300 N275 1.433 . S
C300 C301 1.363 . S
C300 C305 1.370 . S
C301 H274 0.929 . S
C301 C300 1.363 . S
C301 C302 1.385 . S
C302 H276 0.930 . S
C302 C301 1.385 . S
C302 C303 1.357 . S
C303 C302 1.357 . S
C303 C304 1.406 . S
C304 H278 0.929 . S
C304 C303 1.406 . S
C304 C305 1.391 . S
C305 H277 0.931 . S
C305 C300 1.370 . S
C305 C304 1.391 . S
C306 N275 1.435 . S
C306 C307 1.358 . S
C306 C311 1.371 . S
C307 H279 0.930 . S
C307 C306 1.358 . S
C307 C308 1.405 . S
C308 H280 0.932 . S
C308 C307 1.405 . S
C308 C309 1.383 . S
C309 C308 1.383 . S
C309 C310 1.393 . S
C310 H282 0.931 . S
C310 C309 1.393 . S
C310 C311 1.382 . S
C311 H281 0.929 . S
C311 C306 1.371 . S
C311 C310 1.382 . S
C312 N275 1.423 . S
C312 C313 1.362 . S
C312 C317 1.388 . S
C313 H283 0.929 . S
C313 C312 1.362 . S
C313 C314 1.376 . S
C314 H285 0.931 . S
C314 C313 1.376 . S
C314 C315 1.396 . S
C315 C314 1.396 . S
C315 C316 1.348 . S
C315 C333 1.474 . S
C316 H286 0.929 . S
C316 C315 1.348 . S
C316 C317 1.443 . S
C317 H284 0.932 . S
C317 C312 1.388 . S
C317 C316 1.443 . S
C318 N298 1.433 . S
C318 C319 1.363 . S
C318 C323 1.370 . S
C319 H287 0.929 . S
C319 C318 1.363 . S
C319 C320 1.385 . S
C320 H288 0.930 . S
C320 C319 1.385 . S
C320 C321 1.357 . S
C321 C320 1.357 . S
C321 C322 1.406 . S
C322 H289 0.929 . S
C322 C321 1.406 . S
C322 C323 1.391 . S
C323 H290 0.931 . S
C323 C318 1.370 . S
C323 C322 1.391 . S
C324 N298 1.435 . S
C324 C325 1.358 . S
C324 C329 1.371 . S
C325 H291 0.930 . S
C325 C324 1.358 . S
C325 C326 1.405 . S
C326 H292 0.932 . S
C326 C325 1.405 . S
C326 C327 1.383 . S
C327 C326 1.383 . S
C327 C328 1.393 . S
C328 H293 0.931 . S
C328 C327 1.393 . S
C328 C329 1.382 . S
C329 H294 0.929 . S
C329 C324 1.371 . S
C329 C328 1.382 . S
C330 N298 1.423 . S
C330 C331 1.362 . S
C330 C335 1.388 . S
C331 H295 0.929 . S
C331 C330 1.362 . S
C331 C332 1.376 . S
C332 H296 0.931 . S
C332 C331 1.376 . S
C332 C333 1.395 1_556 S
C333 C315 1.474 . S
C333 C332 1.395 1_554 S
C333 C334 1.347 1_554 S
C334 H297 0.950 . S
C334 C333 1.347 1_556 S
C334 C335 1.443 . S
C335 H299 0.932 . S
C335 C330 1.388 . S
C335 C334 1.443 . S
H336 C363 0.929 . S
N337 C362 1.433 . S
N337 C368 1.435 . S
N337 C374 1.423 . S
H338 C364 0.930 . S
H339 C367 0.931 . S
H340 C366 0.929 . S
H341 C369 0.930 . S
H342 C370 0.932 . S
H343 C373 0.929 . S
H344 C372 0.931 . S
H345 C375 0.929 . S
H346 C379 0.932 . S
H347 C376 0.931 . S
H348 C378 0.929 . S
H349 C381 0.929 . S
H350 C382 0.930 . S
H351 C384 0.929 . S
H352 C385 0.931 . S
H353 C387 0.930 . S
H354 C388 0.932 . S
H355 C390 0.931 . S
H356 C391 0.929 . S
H357 C393 0.929 . S
H358 C394 0.931 . S
H359 C396 0.929 1_545 S
N360 C380 1.433 . S
N360 C386 1.435 . S
N360 C392 1.423 . S
H361 C397 0.932 . S
C362 N337 1.433 . S
C362 C363 1.363 . S
C362 C367 1.370 . S
C363 H336 0.929 . S
C363 C362 1.363 . S
C363 C364 1.385 . S
C364 H338 0.930 . S
C364 C363 1.385 . S
C364 C365 1.357 . S
C365 C364 1.357 . S
C365 C366 1.406 . S
C366 H340 0.929 . S
C366 C365 1.406 . S
C366 C367 1.391 . S
C367 H339 0.931 . S
C367 C362 1.370 . S
C367 C366 1.391 . S
C368 N337 1.435 . S
C368 C369 1.358 . S
C368 C373 1.371 . S
C369 H341 0.930 . S
C369 C368 1.358 . S
C369 C370 1.405 . S
C370 H342 0.932 . S
C370 C369 1.405 . S
C370 C371 1.383 . S
C371 C370 1.383 . S
C371 C372 1.393 . S
C372 H344 0.931 . S
C372 C371 1.393 . S
C372 C373 1.382 . S
C373 H343 0.929 . S
C373 C368 1.371 . S
C373 C372 1.382 . S
C374 N337 1.423 . S
C374 C375 1.362 . S
C374 C379 1.388 . S
C375 H345 0.929 . S
C375 C374 1.362 . S
C375 C376 1.376 . S
C376 H347 0.931 . S
C376 C375 1.376 . S
C376 C377 1.396 . S
C377 C376 1.396 . S
C377 C378 1.348 . S
C377 C395 1.472 . S
C378 H348 0.929 . S
C378 C377 1.348 . S
C378 C379 1.443 . S
C379 H346 0.932 . S
C379 C374 1.388 . S
C379 C378 1.443 . S
C380 N360 1.433 . S
C380 C381 1.363 . S
C380 C385 1.370 . S
C381 H349 0.929 . S
C381 C380 1.363 . S
C381 C382 1.385 . S
C382 H350 0.930 . S
C382 C381 1.385 . S
C382 C383 1.357 . S
C383 C382 1.357 . S
C383 C384 1.406 . S
C384 H351 0.929 . S
C384 C383 1.406 . S
C384 C385 1.391 . S
C385 H352 0.931 . S
C385 C380 1.370 . S
C385 C384 1.391 . S
C386 N360 1.435 . S
C386 C387 1.358 . S
C386 C391 1.371 . S
C387 H353 0.930 . S
C387 C386 1.358 . S
C387 C388 1.405 . S
C388 H354 0.932 . S
C388 C387 1.405 . S
C388 C389 1.383 . S
C389 C388 1.383 . S
C389 C390 1.393 . S
C390 H355 0.931 . S
C390 C389 1.393 . S
C390 C391 1.382 . S
C391 H356 0.929 . S
C391 C386 1.371 . S
C391 C390 1.382 . S
C392 N360 1.423 . S
C392 C393 1.362 . S
C392 C397 1.388 . S
C393 H357 0.929 . S
C393 C392 1.362 . S
C393 C394 1.376 . S
C394 H358 0.931 . S
C394 C393 1.376 . S
C394 C395 1.396 1_565 S
C395 C377 1.472 . S
C395 C394 1.396 1_545 S
C395 C396 1.348 1_545 S
C396 H359 0.929 1_565 S
C396 C395 1.348 1_565 S
C396 C397 1.443 . S
C397 H361 0.932 . S
C397 C392 1.388 . S
C397 C396 1.443 . S
H398 C425 0.929 . S
N399 C424 1.433 . S
N399 C430 1.435 . S
N399 C436 1.423 . S
H400 C426 0.930 . S
H401 C429 0.931 . S
H402 C428 0.929 . S
H403 C431 0.930 . S
H404 C432 0.932 . S
H405 C435 0.929 . S
H406 C434 0.931 . S
H407 C437 0.929 . S
H408 C441 0.932 . S
H409 C438 0.931 . S
H410 C440 0.929 . S
H411 C443 0.929 . S
H412 C444 0.930 . S
H413 C446 0.929 . S
H414 C447 0.931 . S
H415 C449 0.930 . S
H416 C450 0.932 . S
H417 C452 0.931 . S
H418 C453 0.929 . S
H419 C455 0.929 . S
H420 C456 0.931 . S
H421 C458 0.929 . S
N422 C442 1.433 . S
N422 C448 1.435 . S
N422 C454 1.423 . S
H423 C459 0.932 . S
C424 N399 1.433 . S
C424 C425 1.363 . S
C424 C429 1.370 . S
C425 H398 0.929 . S
C425 C424 1.363 . S
C425 C426 1.385 . S
C426 H400 0.930 . S
C426 C425 1.385 . S
C426 C427 1.357 . S
C427 C426 1.357 . S
C427 C428 1.406 . S
C428 H402 0.929 . S
C428 C427 1.406 . S
C428 C429 1.391 . S
C429 H401 0.931 . S
C429 C424 1.370 . S
C429 C428 1.391 . S
C430 N399 1.435 . S
C430 C431 1.358 . S
C430 C435 1.371 . S
C431 H403 0.930 . S
C431 C430 1.358 . S
C431 C432 1.405 . S
C432 H404 0.932 . S
C432 C431 1.405 . S
C432 C433 1.383 . S
C433 C432 1.383 . S
C433 C434 1.393 . S
C434 H406 0.931 . S
C434 C433 1.393 . S
C434 C435 1.382 . S
C435 H405 0.929 . S
C435 C430 1.371 . S
C435 C434 1.382 . S
C436 N399 1.423 . S
C436 C437 1.362 . S
C436 C441 1.388 . S
C437 H407 0.929 . S
C437 C436 1.362 . S
C437 C438 1.376 . S
C438 H409 0.931 . S
C438 C437 1.376 . S
C438 C439 1.396 . S
C439 C438 1.396 . S
C439 C440 1.348 . S
C439 C457 1.477 . S
C440 H410 0.929 . S
C440 C439 1.348 . S
C440 C441 1.443 . S
C441 H408 0.932 . S
C441 C436 1.388 . S
C441 C440 1.443 . S
C442 N422 1.433 . S
C442 C443 1.363 . S
C442 C447 1.370 . S
C443 H411 0.929 . S
C443 C442 1.363 . S
C443 C444 1.385 . S
C444 H412 0.930 . S
C444 C443 1.385 . S
C444 C445 1.357 . S
C445 C444 1.357 . S
C445 C446 1.406 . S
C446 H413 0.929 . S
C446 C445 1.406 . S
C446 C447 1.391 . S
C447 H414 0.931 . S
C447 C442 1.370 . S
C447 C446 1.391 . S
C448 N422 1.435 . S
C448 C449 1.358 . S
C448 C453 1.371 . S
C449 H415 0.930 . S
C449 C448 1.358 . S
C449 C450 1.405 . S
C450 H416 0.932 . S
C450 C449 1.405 . S
C450 C451 1.383 . S
C451 C450 1.383 . S
C451 C452 1.393 . S
C452 H417 0.931 . S
C452 C451 1.393 . S
C452 C453 1.382 . S
C453 H418 0.929 . S
C453 C448 1.371 . S
C453 C452 1.382 . S
C454 N422 1.423 . S
C454 C455 1.362 . S
C454 C459 1.388 . S
C455 H419 0.929 . S
C455 C454 1.362 . S
C455 C456 1.376 . S
C456 H420 0.931 . S
C456 C455 1.376 . S
C456 C457 1.393 1_556 S
C457 C439 1.477 . S
C457 C456 1.393 1_554 S
C457 C458 1.345 1_554 S
C458 H421 0.929 . S
C458 C457 1.345 1_556 S
C458 C459 1.443 . S
C459 H423 0.932 . S
C459 C454 1.388 . S
C459 C458 1.443 . S
H460 C466 0.930 . S
H461 C470 0.930 . S
H462 C475 0.929 . S
H463 C473 0.929 . S
H464 C468 0.929 . S
H465 C474 0.929 . S
C466 H460 0.930 . S
C466 C467 1.367 . S
C466 C474 1.378 . S
C467 C466 1.367 . S
C467 C475 1.433 . S
C468 H464 0.929 . S
C468 C470 1.378 . S
C468 C472 1.350 . S
C469 C472 1.463 . S
C469 C474 1.350 . S
C469 N477 1.427 . S
C470 H461 0.930 . S
C470 C468 1.378 . S
C470 C471 1.367 . S
C471 C470 1.367 . S
C471 C473 1.433 . S
C472 C468 1.350 . S
C472 C469 1.463 . S
C472 N476 1.427 . S
C473 H463 0.929 . S
C473 C471 1.433 . S
C473 N476 1.384 . S
C474 H465 0.929 . S
C474 C466 1.378 . S
C474 C469 1.350 . S
C475 H462 0.929 . S
C475 C467 1.433 . S
C475 N477 1.384 . S
N476 C472 1.427 . S
N476 C473 1.384 . S
N477 C469 1.427 . S
N477 C475 1.384 . S
H478 C484 0.930 . S
H479 C488 0.930 . S
H480 C493 0.929 . S
H481 C491 0.929 . S
H482 C486 0.929 . S
H483 C492 0.929 . S
C484 H478 0.930 . S
C484 C485 1.367 . S
C484 C492 1.378 . S
C485 C484 1.367 . S
C485 C493 1.433 . S
C486 H482 0.929 . S
C486 C488 1.378 . S
C486 C490 1.350 . S
C487 C490 1.463 . S
C487 C492 1.350 . S
C487 N495 1.427 . S
C488 H479 0.930 . S
C488 C486 1.378 . S
C488 C489 1.367 . S
C489 C488 1.367 . S
C489 C491 1.433 . S
C490 C486 1.350 . S
C490 C487 1.463 . S
C490 N494 1.427 . S
C491 H481 0.929 . S
C491 C489 1.433 . S
C491 N494 1.384 . S
C492 H483 0.929 . S
C492 C484 1.378 . S
C492 C487 1.350 . S
C493 H480 0.929 . S
C493 C485 1.433 . S
C493 N495 1.384 . S
N494 C490 1.427 . S
N494 C491 1.384 . S
N495 C487 1.427 . S
N495 C493 1.384 . S
H496 C502 0.930 . S
H497 C506 0.930 . S
H498 C511 0.929 . S
H499 C509 0.929 . S
H500 C504 0.929 . S
H501 C510 0.929 . S
C502 H496 0.930 . S
C502 C503 1.367 . S
C502 C510 1.378 . S
C503 C502 1.367 . S
C503 C511 1.433 . S
C504 H500 0.929 . S
C504 C506 1.378 . S
C504 C508 1.350 . S
C505 C508 1.463 . S
C505 C510 1.350 . S
C505 N513 1.427 . S
C506 H497 0.930 . S
C506 C504 1.378 . S
C506 C507 1.367 . S
C507 C506 1.367 . S
C507 C509 1.433 . S
C508 C504 1.350 . S
C508 C505 1.463 . S
C508 N512 1.427 . S
C509 H499 0.929 . S
C509 C507 1.433 . S
C509 N512 1.384 . S
C510 H501 0.929 . S
C510 C502 1.378 . S
C510 C505 1.350 . S
C511 H498 0.929 . S
C511 C503 1.433 . S
C511 N513 1.384 . S
N512 C508 1.427 . S
N512 C509 1.384 . S
N513 C505 1.427 . S
N513 C511 1.384 . S
H514 C520 0.930 . S
H515 C524 0.930 . S
H516 C529 0.929 . S
H517 C527 0.929 . S
H518 C522 0.929 . S
H519 C528 0.929 . S
C520 H514 0.930 . S
C520 C521 1.367 . S
C520 C528 1.378 . S
C521 C520 1.367 . S
C521 C529 1.433 . S
C522 H518 0.929 . S
C522 C524 1.378 . S
C522 C526 1.350 . S
C523 C526 1.463 . S
C523 C528 1.350 . S
C523 N531 1.427 . S
C524 H515 0.930 . S
C524 C522 1.378 . S
C524 C525 1.367 . S
C525 C524 1.367 . S
C525 C527 1.433 . S
C526 C522 1.350 . S
C526 C523 1.463 . S
C526 N530 1.427 . S
C527 H517 0.929 . S
C527 C525 1.433 . S
C527 N530 1.384 . S
C528 H519 0.929 . S
C528 C520 1.378 . S
C528 C523 1.350 . S
C529 H516 0.929 . S
C529 C521 1.433 . S
C529 N531 1.384 . S
N530 C526 1.427 . S
N530 C527 1.384 . S
N531 C523 1.427 . S
N531 C529 1.384 . S
H532 C538 0.930 . S
H533 C542 0.930 . S
H534 C547 0.929 . S
H535 C545 0.929 . S
H536 C540 0.929 . S
H537 C546 0.929 . S
C538 H532 0.930 . S
C538 C539 1.367 . S
C538 C546 1.378 . S
C539 C538 1.367 . S
C539 C547 1.433 . S
C540 H536 0.929 . S
C540 C542 1.378 . S
C540 C544 1.350 . S
C541 C544 1.463 . S
C541 C546 1.350 . S
C541 N549 1.427 . S
C542 H533 0.930 . S
C542 C540 1.378 . S
C542 C543 1.367 . S
C543 C542 1.367 . S
C543 C545 1.433 . S
C544 C540 1.350 . S
C544 C541 1.463 . S
C544 N548 1.427 . S
C545 H535 0.929 . S
C545 C543 1.433 . S
C545 N548 1.384 . S
C546 H537 0.929 . S
C546 C538 1.378 . S
C546 C541 1.350 . S
C547 H534 0.929 . S
C547 C539 1.433 . S
C547 N549 1.384 . S
N548 C544 1.427 . S
N548 C545 1.384 . S
N549 C541 1.427 . S
N549 C547 1.384 . S
H550 C556 0.930 . S
H551 C560 0.930 . S
H552 C565 0.929 . S
H553 C563 0.929 . S
H554 C558 0.929 . S
H555 C564 0.929 . S
C556 H550 0.930 . S
C556 C557 1.367 . S
C556 C564 1.378 . S
C557 C556 1.367 . S
C557 C565 1.433 . S
C558 H554 0.929 . S
C558 C560 1.378 . S
C558 C562 1.350 . S
C559 C562 1.463 . S
C559 C564 1.350 . S
C559 N567 1.427 . S
C560 H551 0.930 . S
C560 C558 1.378 . S
C560 C561 1.367 . S
C561 C560 1.367 . S
C561 C563 1.433 . S
C562 C558 1.350 . S
C562 C559 1.463 . S
C562 N566 1.427 . S
C563 H553 0.929 . S
C563 C561 1.433 . S
C563 N566 1.384 . S
C564 H555 0.929 . S
C564 C556 1.378 . S
C564 C559 1.350 . S
C565 H552 0.929 . S
C565 C557 1.433 . S
C565 N567 1.384 . S
N566 C562 1.427 . S
N566 C563 1.384 . S
N567 C559 1.427 . S
N567 C565 1.384 . S
H568 C574 0.930 . S
H569 C578 0.930 . S
H570 C583 0.929 . S
H571 C581 0.929 . S
H572 C576 0.929 . S
H573 C582 0.929 . S
C574 H568 0.930 . S
C574 C575 1.367 . S
C574 C582 1.378 . S
C575 C574 1.367 . S
C575 C583 1.433 . S
C576 H572 0.929 . S
C576 C578 1.378 . S
C576 C580 1.350 . S
C577 C580 1.463 . S
C577 C582 1.350 . S
C577 N585 1.427 . S
C578 H569 0.930 . S
C578 C576 1.378 . S
C578 C579 1.367 . S
C579 C578 1.367 . S
C579 C581 1.433 . S
C580 C576 1.350 . S
C580 C577 1.463 . S
C580 N584 1.427 . S
C581 H571 0.929 . S
C581 C579 1.433 . S
C581 N584 1.384 . S
C582 H573 0.929 . S
C582 C574 1.378 . S
C582 C577 1.350 . S
C583 H570 0.929 . S
C583 C575 1.433 . S
C583 N585 1.384 . S
N584 C580 1.427 . S
N584 C581 1.384 . S
N585 C577 1.427 . S
N585 C583 1.384 . S
H586 C592 0.930 . S
H587 C596 0.930 . S
H588 C601 0.929 . S
H589 C599 0.929 . S
H590 C594 0.929 . S
H591 C600 0.929 . S
C592 H586 0.930 . S
C592 C593 1.367 . S
C592 C600 1.378 . S
C593 C592 1.367 . S
C593 C601 1.433 . S
C594 H590 0.929 . S
C594 C596 1.378 . S
C594 C598 1.350 . S
C595 C598 1.463 . S
C595 C600 1.350 . S
C595 N603 1.427 . S
C596 H587 0.930 . S
C596 C594 1.378 . S
C596 C597 1.367 . S
C597 C596 1.367 . S
C597 C599 1.433 . S
C598 C594 1.350 . S
C598 C595 1.463 . S
C598 N602 1.427 . S
C599 H589 0.929 . S
C599 C597 1.433 . S
C599 N602 1.384 . S
C600 H591 0.929 . S
C600 C592 1.378 . S
C600 C595 1.350 . S
C601 H588 0.929 . S
C601 C593 1.433 . S
C601 N603 1.384 . S
N602 C598 1.427 . S
N602 C599 1.384 . S
N603 C595 1.427 . S
N603 C601 1.384 . S
H604 C610 0.930 . S
H605 C614 0.930 1_545 S
H606 C619 0.929 . S
H607 C617 0.903 1_545 S
H608 C612 0.929 . S
H609 C618 0.929 . S
C610 H604 0.930 . S
C610 C611 1.367 . S
C610 C618 1.378 . S
C611 C610 1.367 . S
C611 C619 1.433 . S
C612 H608 0.929 . S
C612 C614 1.378 . S
C612 C616 1.350 . S
C613 C616 1.463 . S
C613 C618 1.350 . S
C613 N621 1.427 . S
C614 H605 0.930 1_565 S
C614 C612 1.378 . S
C614 C615 1.367 1_565 S
C615 C614 1.367 1_545 S
C615 C617 1.433 1_545 S
C616 C612 1.350 . S
C616 C613 1.463 . S
C616 N620 1.427 . S
C617 H607 0.903 1_565 S
C617 C615 1.433 1_565 S
C617 N620 1.384 . S
C618 H609 0.929 . S
C618 C610 1.378 . S
C618 C613 1.350 . S
C619 H606 0.929 . S
C619 C611 1.433 . S
C619 N621 1.384 . S
N620 C616 1.427 . S
N620 C617 1.384 . S
N621 C613 1.427 . S
N621 C619 1.384 . S
H622 C628 0.930 . S
H623 C632 0.930 . S
H624 C637 0.929 . S
H625 C635 0.929 . S
H626 C630 0.929 . S
H627 C636 0.929 . S
C628 H622 0.930 . S
C628 C629 1.367 . S
C628 C636 1.378 . S
C629 C628 1.367 . S
C629 C637 1.433 . S
C630 H626 0.929 . S
C630 C632 1.378 . S
C630 C634 1.350 . S
C631 C634 1.463 . S
C631 C636 1.350 . S
C631 N639 1.427 . S
C632 H623 0.930 . S
C632 C630 1.378 . S
C632 C633 1.367 . S
C633 C632 1.367 . S
C633 C635 1.433 . S
C634 C630 1.350 . S
C634 C631 1.463 . S
C634 N638 1.427 . S
C635 H625 0.929 . S
C635 C633 1.433 . S
C635 N638 1.384 . S
C636 H627 0.929 . S
C636 C628 1.378 . S
C636 C631 1.350 . S
C637 H624 0.929 . S
C637 C629 1.433 . S
C637 N639 1.384 . S
N638 C634 1.427 . S
N638 C635 1.384 . S
N639 C631 1.427 . S
N639 C637 1.384 . S
H640 C646 0.930 . S
H641 C650 0.930 . S
H642 C655 0.929 . S
H643 C653 0.929 . S
H644 C648 0.929 . S
H645 C654 0.929 . S
C646 H640 0.930 . S
C646 C647 1.367 . S
C646 C654 1.378 . S
C647 C646 1.367 . S
C647 C655 1.433 . S
C648 H644 0.929 . S
C648 C650 1.378 . S
C648 C652 1.350 . S
C649 C652 1.463 . S
C649 C654 1.350 . S
C649 N657 1.427 . S
C650 H641 0.930 . S
C650 C648 1.378 . S
C650 C651 1.367 . S
C651 C650 1.367 . S
C651 C653 1.433 . S
C652 C648 1.350 . S
C652 C649 1.463 . S
C652 N656 1.427 . S
C653 H643 0.929 . S
C653 C651 1.433 . S
C653 N656 1.384 . S
C654 H645 0.929 . S
C654 C646 1.378 . S
C654 C649 1.350 . S
C655 H642 0.929 . S
C655 C647 1.433 . S
C655 N657 1.384 . S
N656 C652 1.427 . S
N656 C653 1.384 . S
N657 C649 1.427 . S
N657 C655 1.384 . S
H658 C664 0.930 . S
H659 C668 0.930 . S
H660 C673 0.929 . S
H661 C671 0.929 . S
H662 C666 0.929 . S
H663 C672 0.929 . S
C664 H658 0.930 . S
C664 C665 1.367 . S
C664 C672 1.378 . S
C665 C664 1.367 . S
C665 C673 1.433 . S
C666 H662 0.929 . S
C666 C668 1.378 . S
C666 C670 1.350 . S
C667 C670 1.463 . S
C667 C672 1.350 . S
C667 N675 1.427 . S
C668 H659 0.930 . S
C668 C666 1.378 . S
C668 C669 1.367 . S
C669 C668 1.367 . S
C669 C671 1.433 . S
C670 C666 1.350 . S
C670 C667 1.463 . S
C670 N674 1.427 . S
C671 H661 0.929 . S
C671 C669 1.433 . S
C671 N674 1.384 . S
C672 H663 0.929 . S
C672 C664 1.378 . S
C672 C667 1.350 . S
C673 H660 0.929 . S
C673 C665 1.433 . S
C673 N675 1.384 . S
N674 C670 1.427 . S
N674 C671 1.384 . S
N675 C667 1.427 . S
N675 C673 1.384 . S
H676 C682 0.930 . S
H677 C686 0.930 . S
H678 C691 0.929 . S
H679 C689 0.929 . S
H680 C684 0.929 . S
H681 C690 0.929 . S
C682 H676 0.930 . S
C682 C683 1.367 . S
C682 C690 1.378 . S
C683 C682 1.367 . S
C683 C691 1.433 . S
C684 H680 0.929 . S
C684 C686 1.378 . S
C684 C688 1.350 . S
C685 C688 1.463 . S
C685 C690 1.350 . S
C685 N693 1.427 . S
C686 H677 0.930 . S
C686 C684 1.378 . S
C686 C687 1.367 . S
C687 C686 1.367 . S
C687 C689 1.433 . S
C688 C684 1.350 . S
C688 C685 1.463 . S
C688 N692 1.427 . S
C689 H679 0.929 . S
C689 C687 1.433 . S
C689 N692 1.384 . S
C690 H681 0.929 . S
C690 C682 1.378 . S
C690 C685 1.350 . S
C691 H678 0.929 . S
C691 C683 1.433 . S
C691 N693 1.384 . S
N692 C688 1.427 . S
N692 C689 1.384 . S
N693 C685 1.427 . S
N693 C691 1.384 . S
H694 C700 0.930 . S
H695 C704 0.930 . S
H696 C709 0.929 . S
H697 C707 0.929 . S
H698 C702 0.929 . S
H699 C708 0.929 . S
C700 H694 0.930 . S
C700 C701 1.367 . S
C700 C708 1.378 . S
C701 C700 1.367 . S
C701 C709 1.433 . S
C702 H698 0.929 . S
C702 C704 1.378 . S
C702 C706 1.350 . S
C703 C706 1.463 . S
C703 C708 1.350 . S
C703 N711 1.427 . S
C704 H695 0.930 . S
C704 C702 1.378 . S
C704 C705 1.367 . S
C705 C704 1.367 . S
C705 C707 1.433 . S
C706 C702 1.350 . S
C706 C703 1.463 . S
C706 N710 1.427 . S
C707 H697 0.929 . S
C707 C705 1.433 . S
C707 N710 1.384 . S
C708 H699 0.929 . S
C708 C700 1.378 . S
C708 C703 1.350 . S
C709 H696 0.929 . S
C709 C701 1.433 . S
C709 N711 1.384 . S
N710 C706 1.427 . S
N710 C707 1.384 . S
N711 C703 1.427 . S
N711 C709 1.384 . S
H712 C718 0.930 . S
H713 C722 0.930 . S
H714 C727 0.929 . S
H715 C725 0.929 . S
H716 C720 0.929 . S
H717 C726 0.929 . S
C718 H712 0.930 . S
C718 C719 1.367 . S
C718 C726 1.378 . S
C719 C718 1.367 . S
C719 C727 1.433 . S
C720 H716 0.929 . S
C720 C722 1.378 . S
C720 C724 1.350 . S
C721 C724 1.463 . S
C721 C726 1.350 . S
C721 N729 1.427 . S
C722 H713 0.930 . S
C722 C720 1.378 . S
C722 C723 1.367 . S
C723 C722 1.367 . S
C723 C725 1.433 . S
C724 C720 1.350 . S
C724 C721 1.463 . S
C724 N728 1.427 . S
C725 H715 0.929 . S
C725 C723 1.433 . S
C725 N728 1.384 . S
C726 H717 0.929 . S
C726 C718 1.378 . S
C726 C721 1.350 . S
C727 H714 0.929 . S
C727 C719 1.433 . S
C727 N729 1.384 . S
N728 C724 1.427 . S
N728 C725 1.384 . S
N729 C721 1.427 . S
N729 C727 1.384 . S
H730 C736 0.930 . S
H731 C740 0.930 . S
H732 C745 0.929 . S
H733 C743 0.929 . S
H734 C738 0.929 . S
H735 C744 0.929 . S
C736 H730 0.930 . S
C736 C737 1.367 . S
C736 C744 1.378 . S
C737 C736 1.367 . S
C737 C745 1.433 . S
C738 H734 0.929 . S
C738 C740 1.378 . S
C738 C742 1.350 . S
C739 C742 1.463 . S
C739 C744 1.350 . S
C739 N747 1.427 . S
C740 H731 0.930 . S
C740 C738 1.378 . S
C740 C741 1.367 . S
C741 C740 1.367 . S
C741 C743 1.433 . S
C742 C738 1.350 . S
C742 C739 1.463 . S
C742 N746 1.427 . S
C743 H733 0.929 . S
C743 C741 1.433 . S
C743 N746 1.384 . S
C744 H735 0.929 . S
C744 C736 1.378 . S
C744 C739 1.350 . S
C745 H732 0.929 . S
C745 C737 1.433 . S
C745 N747 1.384 . S
N746 C742 1.427 . S
N746 C743 1.384 . S
N747 C739 1.427 . S
N747 C745 1.384 . S
H748 C754 0.930 . S
H749 C758 0.930 . S
H750 C763 0.929 . S
H751 C761 0.929 . S
H752 C756 0.929 . S
H753 C762 0.929 . S
C754 H748 0.930 . S
C754 C755 1.367 . S
C754 C762 1.378 . S
C755 C754 1.367 . S
C755 C763 1.433 . S
C756 H752 0.929 . S
C756 C758 1.378 . S
C756 C760 1.350 . S
C757 C760 1.463 . S
C757 C762 1.350 . S
C757 N765 1.427 . S
C758 H749 0.930 . S
C758 C756 1.378 . S
C758 C759 1.367 . S
C759 C758 1.367 . S
C759 C761 1.433 . S
C760 C756 1.350 . S
C760 C757 1.463 . S
C760 N764 1.427 . S
C761 H751 0.929 . S
C761 C759 1.433 . S
C761 N764 1.384 . S
C762 H753 0.929 . S
C762 C754 1.378 . S
C762 C757 1.350 . S
C763 H750 0.929 . S
C763 C755 1.433 . S
C763 N765 1.384 . S
N764 C760 1.427 . S
N764 C761 1.384 . S
N765 C757 1.427 . S
N765 C763 1.384 . S
H766 C772 0.930 . S
H767 C776 0.930 . S
H768 C781 0.929 . S
H769 C779 0.929 . S
H770 C774 0.929 . S
H771 C780 0.929 . S
C772 H766 0.930 . S
C772 C773 1.367 . S
C772 C780 1.378 . S
C773 C772 1.367 . S
C773 C781 1.433 . S
C774 H770 0.929 . S
C774 C776 1.378 . S
C774 C778 1.350 . S
C775 C778 1.463 . S
C775 C780 1.350 . S
C775 N783 1.427 . S
C776 H767 0.930 . S
C776 C774 1.378 . S
C776 C777 1.367 . S
C777 C776 1.367 . S
C777 C779 1.433 . S
C778 C774 1.350 . S
C778 C775 1.463 . S
C778 N782 1.427 . S
C779 H769 0.929 . S
C779 C777 1.433 . S
C779 N782 1.384 . S
C780 H771 0.929 . S
C780 C772 1.378 . S
C780 C775 1.350 . S
C781 H768 0.929 . S
C781 C773 1.433 . S
C781 N783 1.384 . S
N782 C778 1.427 . S
N782 C779 1.384 . S
N783 C775 1.427 . S
N783 C781 1.384 . S
H784 C790 0.930 . S
H785 C794 0.930 . S
H786 C799 0.929 . S
H787 C797 0.929 . S
H788 C792 0.929 . S
H789 C798 0.929 . S
C790 H784 0.930 . S
C790 C791 1.367 . S
C790 C798 1.378 . S
C791 C790 1.367 . S
C791 C799 1.433 . S
C792 H788 0.929 . S
C792 C794 1.378 . S
C792 C796 1.350 . S
C793 C796 1.463 . S
C793 C798 1.350 . S
C793 N801 1.427 . S
C794 H785 0.930 . S
C794 C792 1.378 . S
C794 C795 1.367 . S
C795 C794 1.367 . S
C795 C797 1.433 . S
C796 C792 1.350 . S
C796 C793 1.463 . S
C796 N800 1.427 . S
C797 H787 0.929 . S
C797 C795 1.433 . S
C797 N800 1.384 . S
C798 H789 0.929 . S
C798 C790 1.378 . S
C798 C793 1.350 . S
C799 H786 0.929 . S
C799 C791 1.433 . S
C799 N801 1.384 . S
N800 C796 1.427 . S
N800 C797 1.384 . S
N801 C793 1.427 . S
N801 C799 1.384 . S
H802 C808 0.930 . S
H803 C812 0.930 . S
H804 C817 0.929 . S
H805 C815 0.929 . S
H806 C810 0.929 . S
H807 C816 0.929 . S
C808 H802 0.930 . S
C808 C809 1.367 . S
C808 C816 1.378 . S
C809 C808 1.367 . S
C809 C817 1.433 . S
C810 H806 0.929 . S
C810 C812 1.378 . S
C810 C814 1.350 . S
C811 C814 1.463 . S
C811 C816 1.350 . S
C811 N819 1.427 . S
C812 H803 0.930 . S
C812 C810 1.378 . S
C812 C813 1.367 . S
C813 C812 1.367 . S
C813 C815 1.433 . S
C814 C810 1.350 . S
C814 C811 1.463 . S
C814 N818 1.427 . S
C815 H805 0.929 . S
C815 C813 1.433 . S
C815 N818 1.384 . S
C816 H807 0.929 . S
C816 C808 1.378 . S
C816 C811 1.350 . S
C817 H804 0.929 . S
C817 C809 1.433 . S
C817 N819 1.384 . S
N818 C814 1.427 . S
N818 C815 1.384 . S
N819 C811 1.427 . S
N819 C817 1.384 . S
H820 C826 0.930 . S
H821 C830 0.930 . S
H822 C835 0.929 . S
H823 C833 0.929 . S
H824 C828 0.929 . S
H825 C834 0.929 . S
C826 H820 0.930 . S
C826 C827 1.367 . S
C826 C834 1.378 . S
C827 C826 1.367 . S
C827 C835 1.433 . S
C828 H824 0.929 . S
C828 C830 1.378 . S
C828 C832 1.350 . S
C829 C832 1.463 . S
C829 C834 1.350 . S
C829 N837 1.427 . S
C830 H821 0.930 . S
C830 C828 1.378 . S
C830 C831 1.367 . S
C831 C830 1.367 . S
C831 C833 1.433 . S
C832 C828 1.350 . S
C832 C829 1.463 . S
C832 N836 1.427 . S
C833 H823 0.929 . S
C833 C831 1.433 . S
C833 N836 1.384 . S
C834 H825 0.929 . S
C834 C826 1.378 . S
C834 C829 1.350 . S
C835 H822 0.929 . S
C835 C827 1.433 . S
C835 N837 1.384 . S
N836 C832 1.427 . S
N836 C833 1.384 . S
N837 C829 1.427 . S
N837 C835 1.384 . S
H838 C844 0.930 . S
H839 C848 0.930 . S
H840 C853 0.929 . S
H841 C851 0.929 . S
H842 C846 0.929 . S
H843 C852 0.929 . S
C844 H838 0.930 . S
C844 C845 1.367 . S
C844 C852 1.378 . S
C845 C844 1.367 . S
C845 C853 1.433 . S
C846 H842 0.929 . S
C846 C848 1.378 . S
C846 C850 1.350 . S
C847 C850 1.463 . S
C847 C852 1.350 . S
C847 N855 1.427 . S
C848 H839 0.930 . S
C848 C846 1.378 . S
C848 C849 1.367 . S
C849 C848 1.367 . S
C849 C851 1.433 . S
C850 C846 1.350 . S
C850 C847 1.463 . S
C850 N854 1.427 . S
C851 H841 0.929 . S
C851 C849 1.433 . S
C851 N854 1.384 . S
C852 H843 0.929 . S
C852 C844 1.378 . S
C852 C847 1.350 . S
C853 H840 0.929 . S
C853 C845 1.433 . S
C853 N855 1.384 . S
N854 C850 1.427 . S
N854 C851 1.384 . S
N855 C847 1.427 . S
N855 C853 1.384 . S
H856 C862 0.930 . S
H857 C866 0.930 . S
H858 C871 0.929 . S
H859 C869 0.929 . S
H860 C864 0.929 . S
H861 C870 0.929 . S
C862 H856 0.930 . S
C862 C863 1.367 . S
C862 C870 1.378 . S
C863 C862 1.367 . S
C863 C871 1.433 . S
C864 H860 0.929 . S
C864 C866 1.378 . S
C864 C868 1.350 . S
C865 C868 1.463 . S
C865 C870 1.350 . S
C865 N873 1.427 . S
C866 H857 0.930 . S
C866 C864 1.378 . S
C866 C867 1.367 . S
C867 C866 1.367 . S
C867 C869 1.433 . S
C868 C864 1.350 . S
C868 C865 1.463 . S
C868 N872 1.427 . S
C869 H859 0.929 . S
C869 C867 1.433 . S
C869 N872 1.384 . S
C870 H861 0.929 . S
C870 C862 1.378 . S
C870 C865 1.350 . S
C871 H858 0.929 . S
C871 C863 1.433 . S
C871 N873 1.384 . S
N872 C868 1.427 . S
N872 C869 1.384 . S
N873 C865 1.427 . S
N873 C871 1.384 . S
H874 C880 0.930 . S
H875 C884 0.930 . S
H876 C889 0.929 . S
H877 C887 0.929 . S
H878 C882 0.929 . S
H879 C888 0.929 . S
C880 H874 0.930 . S
C880 C881 1.367 . S
C880 C888 1.378 . S
C881 C880 1.367 . S
C881 C889 1.433 . S
C882 H878 0.929 . S
C882 C884 1.378 . S
C882 C886 1.350 . S
C883 C886 1.463 . S
C883 C888 1.350 . S
C883 N891 1.427 . S
C884 H875 0.930 . S
C884 C882 1.378 . S
C884 C885 1.367 . S
C885 C884 1.367 . S
C885 C887 1.433 . S
C886 C882 1.350 . S
C886 C883 1.463 . S
C886 N890 1.427 . S
C887 H877 0.929 . S
C887 C885 1.433 . S
C887 N890 1.384 . S
C888 H879 0.929 . S
C888 C880 1.378 . S
C888 C883 1.350 . S
C889 H876 0.929 . S
C889 C881 1.433 . S
C889 N891 1.384 . S
N890 C886 1.427 . S
N890 C887 1.384 . S
N891 C883 1.427 . S
N891 C889 1.384 . S
C471 C123 1.410 . S
C467 C5 1.291 . S
C489 C203 1.620 . S
C485 C16 1.423 . S
C507 C135 1.650 . S
C503 C30 1.762 . S
C525 C179 1.838 . S
C521 C40 1.978 . S
C543 C247 1.256 . S
C539 C8 1.284 . S
C561 C327 1.422 . S
C557 C18 1.391 . S
C575 C29 1.853 . S
C579 C389 1.841 . S
C597 C445 1.569 . S
C593 C38 1.397 . S
C615 C259 1.317 . S
C611 C19 1.438 . S
C629 C27 1.530 . S
C633 C303 1.559 . S
C651 C365 1.756 . S
C647 C41 1.918 . S
C669 C433 1.421 . S
C665 C7 1.456 . S
C683 C52 1.911 . S
C687 C197 1.753 . S
C705 C117 1.532 . S
C701 C62 1.598 . S
C719 C74 1.532 . S
C723 C185 1.478 . S
C737 C82 1.105 . S
C741 C141 1.281 . S
C759 C383 1.983 . S
C755 C51 2.046 . S
C777 C427 1.565 . S
C773 C60 1.455 . S
C795 C241 1.364 . S
C791 C71 1.233 . S
C809 C84 1.371 . S
C813 C309 1.376 . S
C831 C371 1.758 . S
C827 C63 1.809 . S
C849 C451 1.441 . S
C845 C73 1.427 . S
C867 C265 1.331 1_565 S
C863 C85 1.390 . S
C881 C49 1.426 . S
C885 C321 1.598 . S
