# Generated by pormake.
# Topology pth, (4,4)-cn, num edge types: 1
# Building blocks:
#     Node 0, Type 0, BuildingBlock: KUFVIS_clean_sbu_0, # of connection points: 4
#     Node 1, Type 0, BuildingBlock: KUFVIS_clean_sbu_0, # of connection points: 4
#     Node 2, Type 0, BuildingBlock: KUFVIS_clean_sbu_0, # of connection points: 4
#     Node 3, Type 1, BuildingBlock: MIFKUJ_clean_linker_1, # of connection points: 4
#     Node 4, Type 1, BuildingBlock: MIFKUJ_clean_linker_1, # of connection points: 4
#     Node 5, Type 1, BuildingBlock: MIFKUJ_clean_linker_1, # of connection points: 4
#     Edge 6, Type (0, 1), BuildingBlock: FUNLAD_clean_linker_0, # of connection points: 2
#     Edge 7, Type (0, 1), BuildingBlock: FUNLAD_clean_linker_0, # of connection points: 2
#     Edge 8, Type (0, 1), BuildingBlock: FUNLAD_clean_linker_0, # of connection points: 2
#     Edge 9, Type (0, 1), BuildingBlock: FUNLAD_clean_linker_0, # of connection points: 2
#     Edge 10, Type (0, 1), BuildingBlock: FUNLAD_clean_linker_0, # of connection points: 2
#     Edge 11, Type (0, 1), BuildingBlock: FUNLAD_clean_linker_0, # of connection points: 2
#     Edge 12, Type (0, 1), BuildingBlock: FUNLAD_clean_linker_0, # of connection points: 2
#     Edge 13, Type (0, 1), BuildingBlock: FUNLAD_clean_linker_0, # of connection points: 2
#     Edge 14, Type (0, 1), BuildingBlock: FUNLAD_clean_linker_0, # of connection points: 2
#     Edge 15, Type (0, 1), BuildingBlock: FUNLAD_clean_linker_0, # of connection points: 2
#     Edge 16, Type (0, 1), BuildingBlock: FUNLAD_clean_linker_0, # of connection points: 2
#     Edge 17, Type (0, 1), BuildingBlock: FUNLAD_clean_linker_0, # of connection points: 2
# Relax obj value: 0.017
# Max RMSD: 0.085
# Mean RMSD: 0.064
data_MOF--net-pth--node1-KUFVIS_clean_sbu_0--node2-MIFKUJ_clean_linker_1--edge1-FUNLAD_clean_linker_0
_symmetry_space_group_name_H-M    P1
_symmetry_Int_Tables_number       1
_symmetry_cell_setting            triclinic
loop_
_symmetry_equiv_pos_as_xyz
'x, y, z'
_cell_length_a     33.120249
_cell_length_b     33.188461
_cell_length_c     73.043903
_cell_angle_alpha  90.392483
_cell_angle_beta   91.741372
_cell_angle_gamma 120.12901
loop_
_atom_site_label
_atom_site_type_symbol
_atom_site_fract_x
_atom_site_fract_y
_atom_site_fract_z
_atom_type_partial_charge
Mn0 Mn 0.02996 0.05352 0.0441 0.0
Mn1 Mn 0.96279 0.08268 0.0181 0.0
C2 C 0.98347 0.00467 0.02022 0.0
C3 C 0.03899 0.01774 0.07009 0.0
C4 C 0.06684 0.12419 0.01328 0.0
O5 O 0.03046 0.10534 0.05937 0.0
O6 O 0.98283 0.1197 0.0415 0.0
C7 C 0.88199 0.04497 0.04213 0.0
N8 N 0.89971 0.04638 0.02541 0.0
C9 C 0.82384 0.99011 0.01267 0.0
C10 C 0.80472 0.98829 0.02972 0.0
C11 C 0.83396 0.01575 0.04452 0.0
C12 C 0.87196 0.01981 0.01112 0.0
H13 H 0.90438 0.06592 0.05355 0.0
C14 C 0.0086 0.12716 0.05601 0.0
O15 O 0.07504 0.04944 0.06181 0.0
O16 O 0.9982 0.00806 0.06357 0.0
N17 N 0.94029 0.05011 0.99498 0.0
C18 C 0.9642 0.056 0.97943 0.0
C19 C 0.94001 0.03121 0.96331 0.0
C20 C 0.89144 1.00105 0.96329 0.0
C21 C 0.86743 0.99636 0.97933 0.0
C22 C 0.89335 0.02233 0.99493 0.0
H23 H 1.0015 0.07918 0.97935 0.0
O24 O 0.0184 0.00147 0.02692 0.0
O25 O 0.97591 0.03555 0.02799 0.0
O26 O 0.07388 0.10167 0.02594 0.0
O27 O 0.02694 0.12004 0.00949 0.0
C28 C 0.81886 0.9666 0.98052 0.0
C29 C 0.79711 0.96332 0.99719 0.0
H30 H 0.7677 0.96577 0.03163 0.0
H31 H 0.8195 0.01438 0.05774 0.0
H32 H 0.95878 0.03518 0.95096 0.0
H33 H 0.87297 0.98161 0.95088 0.0
H34 H 0.79797 0.94579 0.96872 0.0
H35 H 0.75982 0.94002 0.99798 0.0
Mn36 Mn 0.0177 0.05141 0.37202 0.0
Mn37 Mn 0.0827 0.14633 0.39938 0.0
C38 C 0.06472 0.04904 0.39553 0.0
C39 C 0.00997 0.00808 0.34549 0.0
C40 C 0.97834 0.08251 0.40306 0.0
O41 O 0.01712 0.10341 0.35757 0.0
O42 O 0.06397 0.16489 0.37619 0.0
C43 C 0.16542 0.19296 0.37646 0.0
N44 N 0.14644 0.17446 0.39274 0.0
C45 C 0.22137 0.19242 0.40584 0.0
C46 C 0.24178 0.21195 0.38925 0.0
C47 C 0.21366 0.21214 0.37449 0.0
C48 C 0.17314 0.17392 0.407 0.0
H49 H 0.14389 0.19296 0.36506 0.0
C50 C 0.03875 0.14703 0.36146 0.0
O51 O 0.9735 0.00275 0.35379 0.0
O52 O 0.05046 0.03944 0.35227 0.0
N53 N 0.10358 0.13379 0.42223 0.0
C54 C 0.07832 0.11279 0.43717 0.0
C55 C 0.10121 0.10945 0.4531 0.0
C56 C 0.14982 0.128 0.45354 0.0
C57 C 0.17515 0.15008 0.4381 0.0
C58 C 0.15051 0.15282 0.42269 0.0
H59 H 0.04096 0.09843 0.43692 0.0
O60 O 0.03001 0.01076 0.38861 0.0
O61 O 0.07111 0.08743 0.38835 0.0
O62 O 0.97261 0.05358 0.3902 0.0
O63 O 0.01781 0.11846 0.40739 0.0
C64 C 0.22381 0.16895 0.43731 0.0
C65 C 0.24688 0.18999 0.42117 0.0
H66 H 0.27894 0.22663 0.38765 0.0
H67 H 0.22912 0.22695 0.36161 0.0
H68 H 0.08141 0.09242 0.46497 0.0
H69 H 0.16728 0.12492 0.46578 0.0
H70 H 0.24373 0.16703 0.44896 0.0
H71 H 0.28421 0.20394 0.42066 0.0
Mn72 Mn 0.03364 0.04302 0.70863 0.0
Mn73 Mn 0.99631 0.10392 0.73312 0.0
C74 C 0.07755 0.08764 0.73381 0.0
C75 C 0.07458 0.03867 0.68394 0.0
C76 C 0.95654 0.99961 0.73643 0.0
O77 O 0.98365 0.04276 0.69169 0.0
O78 O 0.96463 0.08772 0.70834 0.0
C79 C 0.03692 0.18929 0.71122 0.0
N80 N 0.03262 0.16847 0.72761 0.0
C81 C 0.08424 0.24219 0.74283 0.0
C82 C 0.08898 0.26446 0.72613 0.0
C83 C 0.06528 0.23787 0.71025 0.0
C84 C 0.05536 0.19369 0.74296 0.0
H85 H 0.01891 0.16895 0.69898 0.0
C86 C 0.96076 0.06385 0.69384 0.0
O87 O 0.0422 1.00122 0.6913 0.0
O88 O 0.08223 0.07822 0.69068 0.0
N89 N 0.02398 0.12238 0.75733 0.0
C90 C 0.01707 0.09538 0.7722 0.0
C91 C 0.03904 0.11656 0.78913 0.0
C92 C 0.06749 0.16523 0.79064 0.0
C93 C 0.07348 0.19234 0.77522 0.0
C94 C 0.05041 0.16932 0.75874 0.0
H95 H 0.99524 0.05796 0.77114 0.0
O96 O 0.0833 0.05432 0.72749 0.0
O97 O 0.0469 0.09451 0.72497 0.0
O98 O 0.98308 0.99568 0.72509 0.0
O99 O 0.95811 0.03816 0.74001 0.0
C100 C 0.10213 0.24122 0.77547 0.0
C101 C 0.10762 0.26611 0.75928 0.0
H102 H 0.11098 0.3019 0.72531 0.0
H103 H 0.06895 0.25479 0.6973 0.0
H104 H 0.03419 0.09539 0.80097 0.0
H105 H 0.08476 0.1814 0.80367 0.0
H106 H 0.12063 0.25994 0.78799 0.0
H107 H 0.13022 0.30361 0.75959 0.0
H108 H 0.10476 0.54154 0.17834 0.0
H109 H 0.10915 0.48097 0.16069 0.0
H110 H 0.97226 0.37882 0.1782 0.0
H111 H 0.96793 0.43943 0.19568 0.0
H112 H 0.04846 0.57567 0.17569 0.0
H113 H 0.08748 0.50003 0.22169 0.0
H114 H 0.08295 0.43604 0.23955 0.0
H115 H 0.94601 0.40228 0.25673 0.0
H116 H 0.9506 0.46628 0.23872 0.0
H117 H 0.94365 0.58501 0.23501 0.0
H118 H 0.93135 0.64162 0.25184 0.0
H119 H 0.07118 0.74998 0.24012 0.0
H120 H 0.08315 0.69316 0.22324 0.0
H121 H 0.00683 0.55685 0.24098 0.0
H122 H 0.97139 0.63589 0.19283 0.0
H123 H 0.98275 0.70353 0.17562 0.0
H124 H 0.12271 0.73538 0.16387 0.0
H125 H 0.11104 0.66763 0.18107 0.0
C126 C 0.03624 0.49504 0.1885 0.0
C127 C 0.07567 0.50611 0.17835 0.0
C128 C 0.07812 0.47147 0.16826 0.0
C129 C 0.04114 0.42503 0.16811 0.0
C130 C 1.00169 0.41406 0.17828 0.0
C131 C 0.99915 0.44873 0.18827 0.0
C132 C 0.0334 0.53189 0.19911 0.0
C133 C 0.04001 0.57185 0.19004 0.0
C134 C 0.02206 0.5268 0.21782 0.0
C135 C 0.01917 0.48774 0.22869 0.0
C136 C 0.05622 0.47854 0.22912 0.0
C137 C 0.05357 0.44188 0.23933 0.0
C138 C 0.01404 0.41394 0.24951 0.0
C139 C 0.97711 0.42341 0.24917 0.0
C140 C 0.97967 0.45996 0.23887 0.0
C141 C 0.01415 0.63487 0.22772 0.0
C142 C 0.97169 0.62095 0.23611 0.0
C143 C 0.96475 0.65335 0.24576 0.0
C144 C 1.00025 0.7004 0.24731 0.0
C145 C 0.04285 0.71421 0.23895 0.0
C146 C 0.0498 0.68174 0.22933 0.0
C147 C 0.02104 0.60011 0.21746 0.0
C148 C 0.0153 0.5606 0.22663 0.0
C149 C 0.03404 0.60606 0.19894 0.0
C150 C 0.04053 0.64691 0.1884 0.0
C151 C 0.00465 0.65766 0.18667 0.0
C152 C 0.01125 0.69643 0.17686 0.0
C153 C 0.05372 0.72501 0.16841 0.0
C154 C 0.08941 0.71386 0.17003 0.0
C155 C 0.08283 0.67519 0.17989 0.0
H156 H 0.60105 0.11723 0.50612 0.0
H157 H 0.66427 0.12423 0.48758 0.0
H158 H 0.65098 0.99951 0.51146 0.0
H159 H 0.58637 0.9916 0.52936 0.0
H160 H 0.51288 0.05461 0.50641 0.0
H161 H 0.63978 0.11418 0.55022 0.0
H162 H 0.70541 0.12093 0.5689 0.0
H163 H 0.61355 0.98817 0.59279 0.0
H164 H 0.54849 0.98078 0.57351 0.0
H165 H 0.41758 0.96579 0.57207 0.0
H166 H 0.35355 0.95776 0.59045 0.0
H167 H 0.37235 0.08735 0.56948 0.0
H168 H 0.43762 0.09618 0.55188 0.0
H169 H 0.50882 0.03223 0.57354 0.0
H170 H 0.38544 0.97033 0.5244 0.0
H171 H 0.32044 0.96964 0.50698 0.0
H172 H 0.40853 0.1157 0.49614 0.0
H173 H 0.47374 0.11597 0.51319 0.0
C174 C 0.58919 0.05417 0.5193 0.0
C175 C 0.61161 0.09127 0.50731 0.0
C176 C 0.64807 0.09544 0.49682 0.0
C177 C 0.66294 0.06255 0.49807 0.0
C178 C 0.64019 0.02522 0.51001 0.0
C179 C 0.60358 0.02097 0.52044 0.0
C180 C 0.55006 0.04965 0.53026 0.0
C181 C 0.51241 0.05023 0.52112 0.0
C182 C 0.54891 0.04338 0.54946 0.0
C183 C 0.58923 0.04673 0.56031 0.0
C184 C 0.63393 0.08613 0.55924 0.0
C185 C 0.67135 0.09019 0.57009 0.0
C186 C 0.6648 0.05513 0.58239 0.0
C187 C 0.62005 0.01552 0.5833 0.0
C188 C 0.58268 0.01143 0.5724 0.0
C189 C 0.43208 0.03127 0.5604 0.0
C190 C 0.4079 0.99248 0.57146 0.0
C191 C 0.37099 0.98773 0.58184 0.0
C192 C 0.35758 0.02181 0.58141 0.0
C193 C 0.38194 0.06064 0.5703 0.0
C194 C 0.41895 0.06545 0.56001 0.0
C195 C 0.47176 0.03659 0.54963 0.0
C196 C 0.50946 0.0363 0.55881 0.0
C197 C 0.47341 0.04374 0.53055 0.0
C198 C 0.43424 0.0432 0.52003 0.0
C199 C 0.3907 0.00211 0.51821 0.0
C200 C 0.35375 0.00173 0.50828 0.0
C201 C 0.35963 0.04266 0.50032 0.0
C202 C 0.40315 0.08383 0.50228 0.0
C203 C 0.44036 0.08395 0.51189 0.0
H204 H 0.49614 0.44689 0.84308 0.0
H205 H 0.43044 0.38589 0.82488 0.0
H206 H 0.33587 0.41688 0.85299 0.0
H207 H 0.40202 0.47892 0.87075 0.0
H208 H 0.52845 0.53799 0.84372 0.0
H209 H 0.46539 0.41645 0.88744 0.0
H210 H 0.40903 0.35755 0.90748 0.0
H211 H 0.39312 0.46369 0.93532 0.0
H212 H 0.44883 0.52229 0.91511 0.0
H213 H 0.56948 0.6543 0.9057 0.0
H214 H 0.63364 0.71583 0.92466 0.0
H215 H 0.72281 0.66143 0.91011 0.0
H216 H 0.65891 0.60073 0.89069 0.0
H217 H 0.5367 0.55255 0.91153 0.0
H218 H 0.59241 0.67145 0.867 0.0
H219 H 0.64771 0.73215 0.84741 0.0
H220 H 0.67627 0.63217 0.82146 0.0
H221 H 0.62177 0.57174 0.84157 0.0
C222 C 0.454 0.46725 0.85837 0.0
C223 C 0.46123 0.44044 0.84536 0.0
C224 C 0.42357 0.40532 0.83507 0.0
C225 C 0.37787 0.3964 0.83752 0.0
C226 C 0.37067 0.42311 0.85067 0.0
C227 C 0.40839 0.45827 0.86096 0.0
C228 C 0.49443 0.50596 0.86861 0.0
C229 C 0.53056 0.54068 0.85857 0.0
C230 C 0.49658 0.51018 0.88798 0.0
C231 C 0.46106 0.47382 0.89961 0.0
C232 C 0.44923 0.42695 0.89766 0.0
C233 C 0.41714 0.39333 0.90916 0.0
C234 C 0.3968 0.40605 0.92302 0.0
C235 C 0.40868 0.45294 0.92494 0.0
C236 C 0.4404 0.48642 0.91335 0.0
C237 C 0.60972 0.6233 0.89679 0.0
C238 C 0.60309 0.65614 0.90639 0.0
C239 C 0.63964 0.6912 0.91713 0.0
C240 C 0.68292 0.69311 0.91878 0.0
C241 C 0.68965 0.66048 0.90902 0.0
C242 C 0.65338 0.62605 0.89793 0.0
C243 C 0.57003 0.58418 0.88661 0.0
C244 C 0.53436 0.54945 0.89668 0.0
C245 C 0.5682 0.57995 0.86732 0.0
C246 C 0.6034 0.61717 0.85594 0.0
C247 C 0.61119 0.66275 0.85734 0.0
C248 C 0.64238 0.6973 0.84595 0.0
C249 C 0.66626 0.68696 0.8328 0.0
C250 C 0.65879 0.64138 0.83155 0.0
C251 C 0.62747 0.60676 0.84296 0.0
C252 C 0.03856 0.1722 0.08607 0.0
C253 C 0.01371 0.16391 0.06918 0.0
C254 C 0.04406 0.20788 0.09809 0.0
C255 C 0.02482 0.23605 0.09343 0.0
C256 C 1.00017 0.22774 0.07658 0.0
C257 C 0.9944 0.19204 0.06467 0.0
C258 C 0.03093 0.27549 0.10529 0.0
C259 C 0.03875 0.27835 0.12359 0.0
C260 C 0.04175 0.3171 0.13505 0.0
C261 C 0.02714 0.30862 0.15316 0.0
C262 C 0.0274 0.34372 0.16397 0.0
C263 C 0.04295 0.38832 0.15698 0.0
H264 H 0.07165 0.37047 0.11455 0.0
C265 C 0.05919 0.39728 0.13908 0.0
C266 C 0.05868 0.36214 0.12824 0.0
H267 H 0.07135 0.43123 0.13327 0.0
H268 H 0.0541 0.15139 0.08996 0.0
H269 H 0.06424 0.21388 0.11077 0.0
H270 H 0.98519 0.24899 0.07258 0.0
H271 H 0.97517 0.18697 0.05179 0.0
H272 H 0.02576 0.30188 0.09869 0.0
H273 H 0.03946 0.24995 0.1306 0.0
H274 H 0.01452 0.27444 0.15883 0.0
H275 H 0.0154 0.33593 0.17783 0.0
C276 C 0.94378 0.10141 0.42957 0.0
C277 C 0.93744 0.07433 0.41369 0.0
C278 C 0.90562 0.09439 0.4396 0.0
C279 C 0.85986 0.06044 0.43387 0.0
C280 C 0.85357 0.0328 0.41819 0.0
C281 C 0.89185 0.03965 0.40819 0.0
C282 C 0.81817 0.05208 0.44413 0.0
C283 C 0.81792 0.08424 0.45549 0.0
C284 C 0.77698 0.07701 0.46601 0.0
C285 C 0.77827 0.11616 0.47413 0.0
C286 C 0.74141 0.11147 0.48447 0.0
C287 C 0.70215 0.06737 0.48701 0.0
H288 H 0.73557 1.00137 0.4631 0.0
C289 C 0.70084 0.02805 0.47899 0.0
C290 C 0.73783 0.03271 0.46867 0.0
H291 H 0.67101 0.99356 0.48057 0.0
H292 H 0.97839 0.12798 0.43442 0.0
H293 H 0.91252 0.11527 0.45197 0.0
H294 H 0.81883 0.00601 0.41355 0.0
H295 H 0.8856 0.01799 0.39608 0.0
H296 H 0.78636 0.01899 0.44153 0.0
H297 H 0.84882 0.11858 0.45679 0.0
H298 H 0.80806 0.15068 0.47253 0.0
H299 H 0.74406 0.14245 0.49071 0.0
C300 C 0.89606 0.9623 0.76009 0.0
C301 C 0.92287 0.95795 0.74647 0.0
C302 C 0.86518 0.92381 0.77 0.0
C303 C 0.85977 0.87961 0.76643 0.0
C304 C 0.8868 0.87523 0.75294 0.0
C305 C 0.91789 0.91388 0.74302 0.0
C306 C 0.82783 0.8381 0.77706 0.0
C307 C 0.79025 0.83425 0.78536 0.0
C308 C 0.75865 0.79449 0.79683 0.0
C309 C 0.7152 0.78935 0.80095 0.0
C310 C 0.68518 0.75427 0.81243 0.0
C311 C 0.69795 0.72345 0.8202 0.0
H312 H 0.80502 0.76677 0.80213 0.0
C313 C 0.74125 0.72819 0.81599 0.0
C314 C 0.77142 0.76343 0.8045 0.0
H315 H 0.75237 0.70538 0.82196 0.0
H316 H 0.89931 0.99571 0.76336 0.0
H317 H 0.84652 0.92931 0.78072 0.0
H318 H 0.88379 0.84174 0.75004 0.0
H319 H 0.93813 0.90921 0.73272 0.0
H320 H 0.83496 0.80958 0.7775 0.0
H321 H 0.78113 0.86115 0.78339 0.0
H322 H 0.7044 0.81274 0.79532 0.0
H323 H 0.6518 0.75119 0.81517 0.0
C324 C 0.08563 0.99238 0.08965 0.0
C325 C 0.04332 0.99117 0.08548 0.0
C326 C 0.08777 0.96307 0.10291 0.0
C327 C 0.04758 0.93212 0.11227 0.0
C328 C 0.00605 0.93276 0.10868 0.0
C329 C 0.00381 0.96163 0.09536 0.0
C330 C 0.04701 0.89818 0.12563 0.0
C331 C 0.07558 0.88025 0.12494 0.0
C332 C 0.07091 0.84184 0.13679 0.0
C333 C 0.08833 0.81347 0.13069 0.0
C334 C 0.08306 0.77586 0.14098 0.0
C335 C 0.06048 0.76585 0.15772 0.0
H336 H 0.03697 0.85452 0.15936 0.0
C337 C 0.04411 0.79494 0.16408 0.0
C338 C 0.04941 0.83262 0.1538 0.0
H339 H 0.02753 0.78886 0.17713 0.0
H340 H 0.11673 0.01497 0.08233 0.0
H341 H 0.12082 0.96468 0.1057 0.0
H342 H 0.9747 0.90974 0.1158 0.0
H343 H 0.97074 0.9601 0.09258 0.0
H344 H 0.01898 0.88432 0.13521 0.0
H345 H 0.10083 0.89115 0.11426 0.0
H346 H 0.10526 0.81982 0.11771 0.0
H347 H 0.09581 0.754 0.13559 0.0
C348 C 0.08858 0.02332 0.42379 0.0
C349 C 0.1004 0.04707 0.40726 0.0
C350 C 0.12278 0.02093 0.43468 0.0
C351 C 0.16883 0.04084 0.42879 0.0
C352 C 0.17988 0.06253 0.41181 0.0
C353 C 0.14601 0.06594 0.40118 0.0
C354 C 0.20556 0.03812 0.43982 0.0
C355 C 0.20988 0.04406 0.45815 0.0
C356 C 0.24786 0.04294 0.46897 0.0
C357 C 0.26974 0.07428 0.48385 0.0
C358 C 0.30632 0.07443 0.494 0.0
C359 C 0.32067 0.0423 0.48973 0.0
H360 H 0.24514 0.98539 0.45359 0.0
C361 C 0.29793 0.01009 0.47516 0.0
C362 C 0.26207 0.01061 0.46477 0.0
H363 H 0.30843 0.98499 0.47164 0.0
H364 H 0.05317 0.00745 0.42843 0.0
H365 H 0.11307 0.00295 0.44752 0.0
H366 H 0.21498 0.07757 0.4069 0.0
H367 H 0.15537 0.08315 0.38816 0.0
H368 H 0.23162 0.0343 0.43253 0.0
H369 H 0.18695 0.05301 0.46525 0.0
H370 H 0.2591 0.09925 0.4874 0.0
H371 H 0.32316 0.09935 0.50528 0.0
C372 C 0.13741 0.16797 0.744 0.0
C373 C 0.11088 0.12047 0.74776 0.0
C374 C 0.17067 0.19918 0.75689 0.0
C375 C 0.17816 0.18321 0.77377 0.0
C376 C 0.15282 0.13526 0.77712 0.0
C377 C 0.11967 0.10408 0.76417 0.0
C378 C 0.21364 0.21516 0.78774 0.0
C379 C 0.22805 0.26097 0.78916 0.0
C380 C 0.26521 0.2937 0.80249 0.0
C381 C 0.26782 0.33621 0.80689 0.0
C382 C 0.30374 0.3691 0.81855 0.0
C383 C 0.33818 0.36036 0.82597 0.0
H384 H 0.29965 0.25308 0.80667 0.0
C385 C 0.33541 0.31766 0.8217 0.0
C386 C 0.29948 0.28476 0.81005 0.0
H387 H 0.36124 0.30974 0.82728 0.0
H388 H 0.1326 0.1809 0.73101 0.0
H389 H 0.19085 0.2355 0.75341 0.0
H390 H 0.15852 0.12189 0.78983 0.0
H391 H 0.10045 0.06726 0.76705 0.0
H392 H 0.22698 0.19979 0.79753 0.0
H393 H 0.21129 0.27524 0.7805 0.0
H394 H 0.24222 0.34426 0.80113 0.0
H395 H 0.30523 0.40193 0.82133 0.0
C396 C 0.90115 0.08258 0.68092 0.0
C397 C 0.92764 0.06051 0.67891 0.0
C398 C 0.86924 0.07884 0.66711 0.0
C399 C 0.86327 0.05326 0.6508 0.0
C400 C 0.88956 0.03105 0.64882 0.0
C401 C 0.9215 0.03474 0.66265 0.0
C402 C 0.82848 0.04719 0.63603 0.0
C403 C 0.81241 0.07704 0.63365 0.0
C404 C 0.77594 0.07054 0.61958 0.0
C405 C 0.77043 0.10883 0.61547 0.0
C406 C 0.73502 0.10402 0.60318 0.0
C407 C 0.70396 0.06062 0.59473 0.0
H408 H 0.74711 0.99633 0.61405 0.0
C409 C 0.70964 0.0223 0.59869 0.0
C410 C 0.74506 0.02709 0.61101 0.0
H411 H 0.68651 0.98843 0.59233 0.0
H412 H 0.90457 0.10242 0.69328 0.0
H413 H 0.84863 0.09519 0.66955 0.0
H414 H 0.88539 0.01073 0.6365 0.0
H415 H 0.94115 0.01714 0.66061 0.0
H416 H 0.81699 0.01778 0.62657 0.0
H417 H 0.82726 0.10859 0.64213 0.0
H418 H 0.79331 0.14261 0.62196 0.0
H419 H 0.73125 0.13412 0.60071 0.0
C420 C 0.90405 0.94024 0.01101 0.0
C421 C 0.95082 0.9696 0.00674 0.0
C422 C 0.87303 0.90618 0.99834 0.0
C423 C 0.88847 0.90115 0.98119 0.0
C424 C 0.9356 0.92986 0.97717 0.0
C425 C 0.96683 0.96315 0.99004 0.0
C426 C 0.85554 0.86791 0.967 0.0
C427 C 0.82057 0.82544 0.97109 0.0
C428 C 0.78714 0.79235 0.95697 0.0
C429 C 0.77076 0.74456 0.95861 0.0
C430 C 0.73794 0.71245 0.94582 0.0
C431 C 0.71999 0.72754 0.93148 0.0
H432 H 0.78099 0.84416 0.94107 0.0
C433 C 0.73603 0.77531 0.92988 0.0
C434 C 0.76968 0.80755 0.94244 0.0
H435 H 0.72239 0.7876 0.91897 0.0
H436 H 0.89145 0.94399 0.02406 0.0
H437 H 0.83674 0.88494 0.00172 0.0
H438 H 0.94822 0.92655 0.96406 0.0
H439 H 0.00313 0.98491 0.98673 0.0
H440 H 0.8615 0.87792 0.95276 0.0
H441 H 0.81761 0.81364 0.9851 0.0
H442 H 0.78345 0.73207 0.96979 0.0
H443 H 0.72561 0.67568 0.94741 0.0
C444 C 0.9643 0.93639 0.32536 0.0
C445 C 0.00637 0.97763 0.32987 0.0
C446 C 0.96282 0.9051 0.31201 0.0
C447 C 0.00346 0.91462 0.30289 0.0
C448 C 0.04475 0.95701 0.30676 0.0
C449 C 0.04633 0.98798 0.32018 0.0
C450 C 0.00473 0.88118 0.28955 0.0
C451 C 0.97654 0.8346 0.29025 0.0
C452 C 0.98182 0.80069 0.27854 0.0
C453 C 0.96458 0.75515 0.2847 0.0
C454 C 0.97029 0.72261 0.27455 0.0
C455 C 0.99314 0.73474 0.25787 0.0
H456 H 0.01604 0.84669 0.25601 0.0
C457 C 0.00941 0.77998 0.25144 0.0
C458 C 0.00368 0.81255 0.2616 0.0
H459 H 0.02621 0.79011 0.23844 0.0
H460 H 0.93286 0.92759 0.33253 0.0
H461 H 0.92994 0.87349 0.30898 0.0
H462 H 0.07643 0.96554 0.29981 0.0
H463 H 0.07923 0.01964 0.32323 0.0
H464 H 0.03296 0.89539 0.28007 0.0
H465 H 0.95112 0.82034 0.30087 0.0
H466 H 0.9474 0.74489 0.29763 0.0
H467 H 0.95765 0.68822 0.27999 0.0
C468 C 0.09958 0.99473 0.66338 0.0
C469 C 0.10345 0.03702 0.66919 0.0
C470 C 0.12964 0.99418 0.6504 0.0
C471 C 0.16428 0.03609 0.64299 0.0
C472 C 0.16682 0.07801 0.6484 0.0
C473 C 0.13698 0.07854 0.66136 0.0
C474 C 0.19904 0.03849 0.62988 0.0
C475 C 0.20841 0.00398 0.62668 0.0
C476 C 0.24641 0.00956 0.61471 0.0
C477 C 0.24296 0.97005 0.60599 0.0
C478 C 0.2787 0.97395 0.59507 0.0
C479 C 0.31907 0.01748 0.59279 0.0
H480 H 0.29194 0.08409 0.61961 0.0
C481 C 0.32273 0.05693 0.60171 0.0
C482 C 0.28697 0.05306 0.61255 0.0
H483 H 0.3538 0.0908 0.60067 0.0
H484 H 0.07386 0.96211 0.66908 0.0
H485 H 0.1254 0.96087 0.64633 0.0
H486 H 0.19278 0.11081 0.64287 0.0
H487 H 0.14077 0.11174 0.66545 0.0
H488 H 0.21905 0.07126 0.62299 0.0
H489 H 0.18813 0.97047 0.63297 0.0
H490 H 0.21235 0.93605 0.60755 0.0
H491 H 0.27449 0.94287 0.58829 0.0
C492 C 0.15239 0.16675 0.00621 0.0
C493 C 0.10625 0.15576 0.00183 0.0
C494 C 0.18892 0.19581 0.99499 0.0
C495 C 0.17989 0.21422 0.97909 0.0
C496 C 0.13384 0.20291 0.97467 0.0
C497 C 0.09758 0.17444 0.98594 0.0
C498 C 0.21697 0.24424 0.96644 0.0
C499 C 0.26204 0.27239 0.97178 0.0
C500 C 0.29738 0.30514 0.95911 0.0
C501 C 0.33417 0.34774 0.96611 0.0
C502 C 0.3666 0.38034 0.95443 0.0
C503 C 0.36334 0.37069 0.93549 0.0
H504 H 0.26774 0.26184 0.93441 0.0
C505 C 0.32751 0.32735 0.92855 0.0
C506 C 0.29483 0.2949 0.94022 0.0
H507 H 0.32414 0.31889 0.91403 0.0
H508 H 0.16032 0.15281 0.01828 0.0
H509 H 0.22386 0.20293 0.99859 0.0
H510 H 0.12584 0.21639 0.96247 0.0
H511 H 0.06258 0.16672 0.98201 0.0
H512 H 0.2058 0.24576 0.95244 0.0
H513 H 0.27263 0.27456 0.98614 0.0
H514 H 0.33726 0.35628 0.98062 0.0
H515 H 0.39432 0.41314 0.96022 0.0
C516 C 0.01058 0.16307 0.33139 0.0
C517 C 0.03429 0.17912 0.34855 0.0
C518 C 0.00606 0.19367 0.3195 0.0
C519 C 0.02517 0.24101 0.32454 0.0
C520 C 0.04853 0.25682 0.34168 0.0
C521 C 0.05332 0.22646 0.35348 0.0
C522 C 0.02032 0.2748 0.31272 0.0
C523 C 0.01394 0.27019 0.29435 0.0
C524 C 0.01196 0.30612 0.28288 0.0
C525 C 0.0271 0.31172 0.26485 0.0
C526 C 0.02742 0.34638 0.25396 0.0
C527 C 0.01196 0.37584 0.26079 0.0
H528 H 0.9819 0.33055 0.30317 0.0
C529 C 0.99535 0.36922 0.27863 0.0
C530 C 0.99526 0.33474 0.28955 0.0
H531 H 0.98324 0.39133 0.28432 0.0
H532 H 0.99528 0.12682 0.32717 0.0
H533 H 0.98678 0.17984 0.30659 0.0
H534 H 0.06335 0.29299 0.34599 0.0
H535 H 0.07166 0.24021 0.36658 0.0
H536 H 0.02519 0.30632 0.31945 0.0
H537 H 0.01355 0.24107 0.28731 0.0
H538 H 0.03957 0.28978 0.25928 0.0
H539 H 0.0397 0.35007 0.24015 0.0
loop_
_geom_bond_atom_site_label_1
_geom_bond_atom_site_label_2
_geom_bond_distance
_geom_bond_site_symmetry_2
_ccdc_geom_bond_type
Mn0 O5 2.095 . S
Mn0 O15 2.162 . S
Mn0 O16 2.297 1_545 S
Mn0 O24 2.385 1_545 S
Mn0 O25 2.209 1_455 S
Mn0 O26 2.094 . S
Mn1 O6 2.123 1_655 S
Mn1 N8 2.257 . S
Mn1 N17 2.282 1_554 S
Mn1 O25 2.215 . S
Mn1 O27 2.117 1_655 S
C2 O24 1.234 1_655 S
C2 O25 1.283 1_565 S
C3 O15 1.281 1_565 S
C3 O16 1.236 . S
C4 O26 1.240 . S
C4 O27 1.264 . S
O5 Mn0 2.095 . S
O5 C14 1.250 . S
O6 Mn1 2.123 1_455 S
O6 C14 1.267 . S
C7 N8 1.326 . S
C7 C11 1.460 . S
C7 H13 0.929 . S
N8 Mn1 2.257 . S
N8 C7 1.326 . S
N8 C12 1.333 1_554 S
C9 C10 1.258 1_556 S
C9 C12 1.437 . S
C9 C29 1.449 . S
C10 C9 1.258 1_554 S
C10 C11 1.477 . S
C10 H30 0.931 . S
C11 C7 1.460 . S
C11 C10 1.477 . S
C11 H31 0.930 . S
C12 N8 1.333 1_556 S
C12 C9 1.437 . S
C12 C22 1.499 . S
H13 C7 0.929 . S
C14 O5 1.250 . S
C14 O6 1.267 . S
O15 Mn0 2.162 . S
O15 C3 1.281 1_545 S
O16 Mn0 2.297 1_565 S
O16 C3 1.236 . S
N17 Mn1 2.282 1_556 S
N17 C18 1.348 . S
N17 C22 1.318 . S
C18 N17 1.348 . S
C18 C19 1.463 . S
C18 H23 0.904 1_655 S
C19 C18 1.463 . S
C19 C20 1.291 . S
C19 H32 0.931 . S
C20 C19 1.291 . S
C20 C21 1.373 . S
C20 H33 0.929 . S
C21 C20 1.373 . S
C21 C22 1.396 . S
C21 C28 1.403 . S
C22 C12 1.499 . S
C22 N17 1.318 . S
C22 C21 1.396 . S
H23 C18 0.904 1_455 S
O24 Mn0 2.385 1_565 S
O24 C2 1.234 1_455 S
O25 Mn0 2.209 1_655 S
O25 Mn1 2.215 . S
O25 C2 1.283 1_545 S
O26 Mn0 2.094 . S
O26 C4 1.240 . S
O27 Mn1 2.117 1_455 S
O27 C4 1.264 . S
C28 C21 1.403 . S
C28 C29 1.399 . S
C28 H34 0.929 . S
C29 C9 1.449 . S
C29 C28 1.399 . S
C29 H35 0.930 . S
H30 C10 0.931 . S
H31 C11 0.930 . S
H32 C19 0.931 . S
H33 C20 0.929 . S
H34 C28 0.929 . S
H35 C29 0.930 . S
Mn36 O41 2.095 . S
Mn36 O51 2.162 1_545 S
Mn36 O52 2.297 1_655 S
Mn36 O60 2.385 1_655 S
Mn36 O61 2.209 1_655 S
Mn36 O62 2.094 . S
Mn37 O42 2.121 . S
Mn37 N44 2.257 . S
Mn37 N53 2.282 . S
Mn37 O61 2.215 . S
Mn37 O63 2.117 1_455 S
C38 O60 1.234 . S
C38 O61 1.283 . S
C39 O51 1.281 1_455 S
C39 O52 1.236 1_565 S
C40 O62 1.240 . S
C40 O63 1.264 . S
O41 Mn36 2.095 . S
O41 C50 1.250 1_655 S
O42 Mn37 2.121 . S
O42 C50 1.258 . S
C43 N44 1.326 . S
C43 C47 1.460 . S
C43 H49 0.929 . S
N44 Mn37 2.257 . S
N44 C43 1.326 . S
N44 C48 1.362 . S
C45 C46 1.258 . S
C45 C48 1.431 . S
C45 C65 1.449 . S
C46 C45 1.258 . S
C46 C47 1.477 . S
C46 H66 0.931 . S
C47 C43 1.460 . S
C47 C46 1.477 . S
C47 H67 0.930 . S
C48 N44 1.362 . S
C48 C45 1.431 . S
C48 C58 1.476 . S
H49 C43 0.929 . S
C50 O41 1.250 1_455 S
C50 O42 1.258 . S
O51 Mn36 2.162 1_565 S
O51 C39 1.281 1_655 S
O52 Mn36 2.297 1_455 S
O52 C39 1.236 1_545 S
N53 Mn37 2.282 . S
N53 C54 1.328 . S
N53 C58 1.318 . S
C54 N53 1.328 . S
C54 C55 1.457 . S
C54 H59 0.929 . S
C55 C54 1.457 . S
C55 C56 1.291 . S
C55 H68 0.931 . S
C56 C55 1.291 . S
C56 C57 1.373 . S
C56 H69 0.929 . S
C57 C56 1.373 . S
C57 C58 1.396 . S
C57 C64 1.403 . S
C58 C48 1.476 . S
C58 N53 1.318 . S
C58 C57 1.396 . S
H59 C54 0.929 . S
O60 Mn36 2.385 1_455 S
O60 C38 1.234 . S
O61 Mn36 2.209 1_455 S
O61 Mn37 2.215 . S
O61 C38 1.283 . S
O62 Mn36 2.094 . S
O62 C40 1.240 . S
O63 Mn37 2.117 1_655 S
O63 C40 1.264 . S
C64 C57 1.403 . S
C64 C65 1.399 . S
C64 H70 0.929 . S
C65 C45 1.449 . S
C65 C64 1.399 . S
C65 H71 0.930 . S
H66 C46 0.931 . S
H67 C47 0.930 . S
H68 C55 0.931 . S
H69 C56 0.929 . S
H70 C64 0.929 . S
H71 C65 0.930 . S
Mn72 O77 2.095 1_455 S
Mn72 O87 2.162 . S
Mn72 O88 2.297 . S
Mn72 O96 2.385 . S
Mn72 O97 2.209 . S
Mn72 O98 2.094 1_445 S
Mn73 O78 2.121 . S
Mn73 N80 2.257 . S
Mn73 N89 2.282 1_655 S
Mn73 O97 2.215 1_655 S
Mn73 O99 2.117 . S
C74 O96 1.234 . S
C74 O97 1.283 . S
C75 O87 1.281 . S
C75 O88 1.236 . S
C76 O98 1.240 . S
C76 O99 1.264 1_565 S
O77 Mn72 2.095 1_655 S
O77 C86 1.250 . S
O78 Mn73 2.121 . S
O78 C86 1.258 . S
C79 N80 1.326 . S
C79 C83 1.460 1_655 S
C79 H85 0.929 . S
N80 Mn73 2.257 . S
N80 C79 1.326 . S
N80 C84 1.362 1_655 S
C81 C82 1.258 . S
C81 C84 1.431 . S
C81 C101 1.449 . S
C82 C81 1.258 . S
C82 C83 1.477 . S
C82 H102 0.931 . S
C83 C79 1.460 1_455 S
C83 C82 1.477 . S
C83 H103 0.930 1_455 S
C84 N80 1.362 1_455 S
C84 C81 1.431 . S
C84 C94 1.476 . S
H85 C79 0.929 . S
C86 O77 1.250 . S
C86 O78 1.258 . S
O87 Mn72 2.162 . S
O87 C75 1.281 . S
O88 Mn72 2.297 . S
O88 C75 1.236 . S
N89 Mn73 2.282 1_455 S
N89 C90 1.328 . S
N89 C94 1.318 . S
C90 N89 1.328 . S
C90 C91 1.457 . S
C90 H95 0.929 1_455 S
C91 C90 1.457 . S
C91 C92 1.291 . S
C91 H104 0.931 . S
C92 C91 1.291 . S
C92 C93 1.373 . S
C92 H105 0.929 . S
C93 C92 1.373 . S
C93 C94 1.396 . S
C93 C100 1.403 . S
C94 C84 1.476 . S
C94 N89 1.318 . S
C94 C93 1.396 . S
H95 C90 0.929 1_655 S
O96 Mn72 2.385 . S
O96 C74 1.234 . S
O97 Mn72 2.209 . S
O97 Mn73 2.215 1_455 S
O97 C74 1.283 . S
O98 Mn72 2.094 1_665 S
O98 C76 1.240 . S
O99 Mn73 2.117 . S
O99 C76 1.264 1_545 S
C100 C93 1.403 . S
C100 C101 1.399 . S
C100 H106 0.929 . S
C101 C81 1.449 . S
C101 C100 1.399 . S
C101 H107 0.930 . S
H102 C82 0.931 . S
H103 C83 0.930 1_655 S
H104 C91 0.931 . S
H105 C92 0.929 . S
H106 C100 0.929 . S
H107 C101 0.930 . S
H108 C127 0.949 . S
H109 C128 0.950 . S
H110 C130 0.950 . S
H111 C131 0.950 . S
H112 C133 0.950 . S
H113 C136 0.950 . S
H114 C137 0.950 . S
H115 C139 0.951 . S
H116 C140 0.949 . S
H117 C142 0.949 . S
H118 C143 0.950 . S
H119 C145 0.950 . S
H120 C146 0.950 . S
H121 C148 0.950 . S
H122 C151 0.950 . S
H123 C152 0.977 . S
H124 C154 0.951 . S
H125 C155 0.949 . S
C126 C127 1.376 . S
C126 C131 1.386 1_455 S
C126 C132 1.483 . S
C127 H108 0.949 . S
C127 C126 1.376 . S
C127 C128 1.397 . S
C128 H109 0.950 . S
C128 C127 1.397 . S
C128 C129 1.391 . S
C129 C128 1.391 . S
C129 C130 1.405 1_455 S
C130 H110 0.950 . S
C130 C129 1.405 1_655 S
C130 C131 1.367 . S
C131 H111 0.950 . S
C131 C126 1.386 1_655 S
C131 C130 1.367 . S
C132 C126 1.483 . S
C132 C133 1.382 . S
C132 C134 1.403 . S
C133 H112 0.950 . S
C133 C132 1.382 . S
C133 C149 1.411 . S
C134 C132 1.403 . S
C134 C135 1.489 . S
C134 C148 1.411 . S
C135 C134 1.489 . S
C135 C136 1.383 . S
C135 C140 1.382 1_455 S
C136 H113 0.950 . S
C136 C135 1.383 . S
C136 C137 1.395 . S
C137 H114 0.950 . S
C137 C136 1.395 . S
C137 C138 1.288 . S
C138 C137 1.288 . S
C138 C139 1.392 1_455 S
C139 H115 0.951 . S
C139 C138 1.392 1_655 S
C139 C140 1.392 . S
C140 H116 0.949 . S
C140 C135 1.382 1_655 S
C140 C139 1.392 . S
C141 C142 1.376 1_455 S
C141 C146 1.386 . S
C141 C147 1.483 . S
C142 H117 0.949 . S
C142 C141 1.376 1_655 S
C142 C143 1.397 . S
C143 H118 0.950 . S
C143 C142 1.397 . S
C143 C144 1.391 1_655 S
C144 C143 1.391 1_455 S
C144 C145 1.405 . S
C145 H119 0.950 . S
C145 C144 1.405 . S
C145 C146 1.367 . S
C146 H120 0.950 . S
C146 C141 1.386 . S
C146 C145 1.367 . S
C147 C141 1.483 . S
C147 C148 1.382 . S
C147 C149 1.403 . S
C148 H121 0.950 . S
C148 C134 1.411 . S
C148 C147 1.382 . S
C149 C133 1.411 . S
C149 C147 1.403 . S
C149 C150 1.489 . S
C150 C149 1.489 . S
C150 C151 1.383 1_455 S
C150 C155 1.382 . S
C151 H122 0.950 . S
C151 C150 1.383 1_655 S
C151 C152 1.386 . S
C152 H123 0.977 . S
C152 C151 1.386 . S
C152 C153 1.272 1_655 S
C153 C152 1.272 1_455 S
C153 C154 1.392 . S
C154 H124 0.951 . S
C154 C153 1.392 . S
C154 C155 1.392 . S
C155 H125 0.949 . S
C155 C150 1.382 . S
C155 C154 1.392 . S
H156 C175 0.949 . S
H157 C176 0.950 . S
H158 C178 0.950 . S
H159 C179 0.950 . S
H160 C181 0.950 . S
H161 C184 0.950 . S
H162 C185 0.950 . S
H163 C187 0.951 . S
H164 C188 0.949 . S
H165 C190 0.949 . S
H166 C191 0.950 . S
H167 C193 0.950 . S
H168 C194 0.950 . S
H169 C196 0.950 . S
H170 C199 0.950 . S
H171 C200 0.950 . S
H172 C202 0.951 . S
H173 C203 0.949 . S
C174 C175 1.376 . S
C174 C179 1.386 . S
C174 C180 1.483 . S
C175 H156 0.949 . S
C175 C174 1.376 . S
C175 C176 1.397 . S
C176 H157 0.950 . S
C176 C175 1.397 . S
C176 C177 1.391 . S
C177 C176 1.391 . S
C177 C178 1.405 . S
C178 H158 0.950 . S
C178 C177 1.405 . S
C178 C179 1.367 . S
C179 H159 0.950 . S
C179 C174 1.386 . S
C179 C178 1.367 . S
C180 C174 1.483 . S
C180 C181 1.382 . S
C180 C182 1.403 . S
C181 H160 0.950 . S
C181 C180 1.382 . S
C181 C197 1.411 . S
C182 C180 1.403 . S
C182 C183 1.489 . S
C182 C196 1.411 . S
C183 C182 1.489 . S
C183 C184 1.383 . S
C183 C188 1.382 . S
C184 H161 0.950 . S
C184 C183 1.383 . S
C184 C185 1.395 . S
C185 H162 0.950 . S
C185 C184 1.395 . S
C185 C186 1.288 . S
C186 C185 1.288 . S
C186 C187 1.392 . S
C187 H163 0.951 . S
C187 C186 1.392 . S
C187 C188 1.392 . S
C188 H164 0.949 . S
C188 C183 1.382 . S
C188 C187 1.392 . S
C189 C190 1.376 . S
C189 C194 1.386 . S
C189 C195 1.483 . S
C190 H165 0.949 . S
C190 C189 1.376 . S
C190 C191 1.397 . S
C191 H166 0.950 . S
C191 C190 1.397 . S
C191 C192 1.391 . S
C192 C191 1.391 . S
C192 C193 1.405 . S
C193 H167 0.950 . S
C193 C192 1.405 . S
C193 C194 1.367 . S
C194 H168 0.950 . S
C194 C189 1.386 . S
C194 C193 1.367 . S
C195 C189 1.483 . S
C195 C196 1.382 . S
C195 C197 1.403 . S
C196 H169 0.950 . S
C196 C182 1.411 . S
C196 C195 1.382 . S
C197 C181 1.411 . S
C197 C195 1.403 . S
C197 C198 1.489 . S
C198 C197 1.489 . S
C198 C199 1.383 . S
C198 C203 1.382 . S
C199 H170 0.950 . S
C199 C198 1.383 . S
C199 C200 1.395 . S
C200 H171 0.950 . S
C200 C199 1.395 . S
C200 C201 1.288 . S
C201 C200 1.288 . S
C201 C202 1.392 . S
C202 H172 0.951 . S
C202 C201 1.392 . S
C202 C203 1.392 . S
C203 H173 0.949 . S
C203 C198 1.382 . S
C203 C202 1.392 . S
H204 C223 0.949 . S
H205 C224 0.950 . S
H206 C226 0.950 . S
H207 C227 0.950 . S
H208 C229 0.950 . S
H209 C232 0.950 . S
H210 C233 0.950 . S
H211 C235 0.951 . S
H212 C236 0.949 . S
H213 C238 0.949 . S
H214 C239 0.950 . S
H215 C241 0.950 . S
H216 C242 0.950 . S
H217 C244 0.950 . S
H218 C247 0.950 . S
H219 C248 0.950 . S
H220 C250 0.951 . S
H221 C251 0.949 . S
C222 C223 1.376 . S
C222 C227 1.386 . S
C222 C228 1.483 . S
C223 H204 0.949 . S
C223 C222 1.376 . S
C223 C224 1.397 . S
C224 H205 0.950 . S
C224 C223 1.397 . S
C224 C225 1.391 . S
C225 C224 1.391 . S
C225 C226 1.405 . S
C226 H206 0.950 . S
C226 C225 1.405 . S
C226 C227 1.367 . S
C227 H207 0.950 . S
C227 C222 1.386 . S
C227 C226 1.367 . S
C228 C222 1.483 . S
C228 C229 1.382 . S
C228 C230 1.403 . S
C229 H208 0.950 . S
C229 C228 1.382 . S
C229 C245 1.411 . S
C230 C228 1.403 . S
C230 C231 1.489 . S
C230 C244 1.411 . S
C231 C230 1.489 . S
C231 C232 1.383 . S
C231 C236 1.382 . S
C232 H209 0.950 . S
C232 C231 1.383 . S
C232 C233 1.395 . S
C233 H210 0.950 . S
C233 C232 1.395 . S
C233 C234 1.288 . S
C234 C233 1.288 . S
C234 C235 1.392 . S
C235 H211 0.951 . S
C235 C234 1.392 . S
C235 C236 1.392 . S
C236 H212 0.949 . S
C236 C231 1.382 . S
C236 C235 1.392 . S
C237 C238 1.376 . S
C237 C242 1.386 . S
C237 C243 1.483 . S
C238 H213 0.949 . S
C238 C237 1.376 . S
C238 C239 1.397 . S
C239 H214 0.950 . S
C239 C238 1.397 . S
C239 C240 1.391 . S
C240 C239 1.391 . S
C240 C241 1.405 . S
C241 H215 0.950 . S
C241 C240 1.405 . S
C241 C242 1.367 . S
C242 H216 0.950 . S
C242 C237 1.386 . S
C242 C241 1.367 . S
C243 C237 1.483 . S
C243 C244 1.382 . S
C243 C245 1.403 . S
C244 H217 0.950 . S
C244 C230 1.411 . S
C244 C243 1.382 . S
C245 C229 1.411 . S
C245 C243 1.403 . S
C245 C246 1.489 . S
C246 C245 1.489 . S
C246 C247 1.383 . S
C246 C251 1.382 . S
C247 H218 0.950 . S
C247 C246 1.383 . S
C247 C248 1.395 . S
C248 H219 0.950 . S
C248 C247 1.395 . S
C248 C249 1.288 . S
C249 C248 1.288 . S
C249 C250 1.392 . S
C250 H220 0.951 . S
C250 C249 1.392 . S
C250 C251 1.392 . S
C251 H221 0.949 . S
C251 C246 1.382 . S
C251 C250 1.392 . S
C252 C253 1.386 . S
C252 C254 1.383 . S
C252 H268 0.951 . S
C253 C252 1.386 . S
C253 C257 1.383 . S
C254 C252 1.383 . S
C254 C255 1.402 . S
C254 H269 0.951 . S
C255 C254 1.402 . S
C255 C256 1.375 . S
C255 C258 1.481 . S
C256 C255 1.375 . S
C256 C257 1.367 . S
C256 H270 0.951 . S
C257 C253 1.383 . S
C257 C256 1.367 . S
C257 H271 0.950 . S
C258 C255 1.481 . S
C258 C259 1.297 . S
C258 H272 0.950 . S
C259 C258 1.297 . S
C259 C260 1.479 . S
C259 H273 0.950 . S
C260 C259 1.479 . S
C260 C261 1.375 . S
C260 C266 1.404 . S
C261 C260 1.375 . S
C261 C262 1.369 . S
C261 H274 0.950 . S
C262 C261 1.369 . S
C262 C263 1.392 . S
C262 H275 0.951 . S
C263 C262 1.392 . S
C263 C265 1.384 . S
H264 C266 0.949 . S
C265 C263 1.384 . S
C265 C266 1.385 . S
C265 H267 0.950 . S
C266 C260 1.404 . S
C266 H264 0.949 . S
C266 C265 1.385 . S
H267 C265 0.950 . S
H268 C252 0.951 . S
H269 C254 0.951 . S
H270 C256 0.951 . S
H271 C257 0.950 . S
H272 C258 0.950 . S
H273 C259 0.950 . S
H274 C261 0.950 . S
H275 C262 0.951 . S
C276 C277 1.386 . S
C276 C278 1.383 . S
C276 H292 0.951 . S
C277 C276 1.386 . S
C277 C281 1.383 . S
C278 C276 1.383 . S
C278 C279 1.402 . S
C278 H293 0.951 . S
C279 C278 1.402 . S
C279 C280 1.375 . S
C279 C282 1.481 . S
C280 C279 1.375 . S
C280 C281 1.367 . S
C280 H294 0.951 . S
C281 C277 1.383 . S
C281 C280 1.367 . S
C281 H295 0.956 . S
C282 C279 1.481 . S
C282 C283 1.297 . S
C282 H296 0.950 . S
C283 C282 1.297 . S
C283 C284 1.479 . S
C283 H297 0.950 . S
C284 C283 1.479 . S
C284 C285 1.375 . S
C284 C290 1.404 . S
C285 C284 1.375 . S
C285 C286 1.369 . S
C285 H298 0.950 . S
C286 C285 1.369 . S
C286 C287 1.392 . S
C286 H299 0.951 . S
C287 C286 1.392 . S
C287 C289 1.384 . S
H288 C290 0.949 . S
C289 C287 1.384 . S
C289 C290 1.385 . S
C289 H291 0.950 . S
C290 C284 1.404 . S
C290 H288 0.949 . S
C290 C289 1.385 . S
H291 C289 0.950 . S
H292 C276 0.951 . S
H293 C278 0.951 . S
H294 C280 0.951 . S
H295 C281 0.956 . S
H296 C282 0.950 . S
H297 C283 0.950 . S
H298 C285 0.950 . S
H299 C286 0.951 . S
C300 C301 1.386 . S
C300 C302 1.383 . S
C300 H316 0.951 . S
C301 C300 1.386 . S
C301 C305 1.383 . S
C302 C300 1.383 . S
C302 C303 1.402 . S
C302 H317 0.951 . S
C303 C302 1.402 . S
C303 C304 1.375 . S
C303 C306 1.481 . S
C304 C303 1.375 . S
C304 C305 1.367 . S
C304 H318 0.951 . S
C305 C301 1.383 . S
C305 C304 1.367 . S
C305 H319 0.950 . S
C306 C303 1.481 . S
C306 C307 1.297 . S
C306 H320 0.950 . S
C307 C306 1.297 . S
C307 C308 1.479 . S
C307 H321 0.950 . S
C308 C307 1.479 . S
C308 C309 1.375 . S
C308 C314 1.404 . S
C309 C308 1.375 . S
C309 C310 1.369 . S
C309 H322 0.950 . S
C310 C309 1.369 . S
C310 C311 1.392 . S
C310 H323 0.951 . S
C311 C310 1.392 . S
C311 C313 1.384 . S
H312 C314 0.949 . S
C313 C311 1.384 . S
C313 C314 1.385 . S
C313 H315 0.950 . S
C314 C308 1.404 . S
C314 H312 0.949 . S
C314 C313 1.385 . S
H315 C313 0.950 . S
H316 C300 0.951 . S
H317 C302 0.951 . S
H318 C304 0.951 . S
H319 C305 0.950 . S
H320 C306 0.950 . S
H321 C307 0.950 . S
H322 C309 0.950 . S
H323 C310 0.951 . S
C324 C325 1.386 . S
C324 C326 1.383 . S
C324 H340 0.951 . S
C325 C324 1.386 . S
C325 C329 1.383 . S
C326 C324 1.383 . S
C326 C327 1.402 . S
C326 H341 0.951 . S
C327 C326 1.402 . S
C327 C328 1.375 . S
C327 C330 1.481 . S
C328 C327 1.375 . S
C328 C329 1.367 . S
C328 H342 0.951 . S
C329 C325 1.383 . S
C329 C328 1.367 . S
C329 H343 0.950 . S
C330 C327 1.481 . S
C330 C331 1.297 . S
C330 H344 0.950 . S
C331 C330 1.297 . S
C331 C332 1.479 . S
C331 H345 0.950 . S
C332 C331 1.479 . S
C332 C333 1.375 . S
C332 C338 1.404 . S
C333 C332 1.375 . S
C333 C334 1.369 . S
C333 H346 0.950 . S
C334 C333 1.369 . S
C334 C335 1.392 . S
C334 H347 0.951 . S
C335 C334 1.392 . S
C335 C337 1.384 . S
H336 C338 0.949 . S
C337 C335 1.384 . S
C337 C338 1.385 . S
C337 H339 0.950 . S
C338 C332 1.404 . S
C338 H336 0.949 . S
C338 C337 1.385 . S
H339 C337 0.950 . S
H340 C324 0.951 . S
H341 C326 0.951 . S
H342 C328 0.951 . S
H343 C329 0.950 . S
H344 C330 0.950 . S
H345 C331 0.950 . S
H346 C333 0.950 . S
H347 C334 0.951 . S
C348 C349 1.386 . S
C348 C350 1.383 . S
C348 H364 0.951 . S
C349 C348 1.386 . S
C349 C353 1.383 . S
C350 C348 1.383 . S
C350 C351 1.402 . S
C350 H365 0.951 . S
C351 C350 1.402 . S
C351 C352 1.375 . S
C351 C354 1.481 . S
C352 C351 1.375 . S
C352 C353 1.367 . S
C352 H366 0.951 1_545 S
C353 C349 1.383 . S
C353 C352 1.367 . S
C353 H367 0.950 . S
C354 C351 1.481 . S
C354 C355 1.297 . S
C354 H368 0.950 . S
C355 C354 1.297 . S
C355 C356 1.479 . S
C355 H369 0.950 . S
C356 C355 1.479 . S
C356 C357 1.375 . S
C356 C362 1.404 . S
C357 C356 1.375 . S
C357 C358 1.369 . S
C357 H370 0.950 . S
C358 C357 1.369 . S
C358 C359 1.392 . S
C358 H371 0.951 . S
C359 C358 1.392 . S
C359 C361 1.384 . S
H360 C362 0.949 . S
C361 C359 1.384 . S
C361 C362 1.385 . S
C361 H363 0.950 . S
C362 C356 1.404 . S
C362 H360 0.949 . S
C362 C361 1.385 . S
H363 C361 0.950 . S
H364 C348 0.951 . S
H365 C350 0.951 . S
H366 C352 0.951 1_565 S
H367 C353 0.950 . S
H368 C354 0.950 . S
H369 C355 0.950 . S
H370 C357 0.950 . S
H371 C358 0.951 . S
C372 C373 1.386 . S
C372 C374 1.383 . S
C372 H388 0.951 . S
C373 C372 1.386 . S
C373 C377 1.383 . S
C374 C372 1.383 . S
C374 C375 1.402 . S
C374 H389 0.951 . S
C375 C374 1.402 . S
C375 C376 1.375 . S
C375 C378 1.481 . S
C376 C375 1.375 . S
C376 C377 1.367 . S
C376 H390 0.951 . S
C377 C373 1.383 . S
C377 C376 1.367 . S
C377 H391 0.950 . S
C378 C375 1.481 . S
C378 C379 1.297 . S
C378 H392 0.950 . S
C379 C378 1.297 . S
C379 C380 1.479 . S
C379 H393 0.950 . S
C380 C379 1.479 . S
C380 C381 1.375 . S
C380 C386 1.404 . S
C381 C380 1.375 . S
C381 C382 1.369 . S
C381 H394 0.950 . S
C382 C381 1.369 . S
C382 C383 1.392 . S
C382 H395 0.951 . S
C383 C382 1.392 . S
C383 C385 1.384 . S
H384 C386 0.949 . S
C385 C383 1.384 . S
C385 C386 1.385 . S
C385 H387 0.950 . S
C386 C380 1.404 . S
C386 H384 0.949 . S
C386 C385 1.385 . S
H387 C385 0.950 . S
H388 C372 0.951 . S
H389 C374 0.951 . S
H390 C376 0.951 . S
H391 C377 0.950 . S
H392 C378 0.950 . S
H393 C379 0.950 . S
H394 C381 0.950 . S
H395 C382 0.951 . S
C396 C397 1.386 . S
C396 C398 1.383 . S
C396 H412 0.951 . S
C397 C396 1.386 . S
C397 C401 1.383 . S
C398 C396 1.383 . S
C398 C399 1.402 . S
C398 H413 0.951 . S
C399 C398 1.402 . S
C399 C400 1.375 . S
C399 C402 1.481 . S
C400 C399 1.375 . S
C400 C401 1.367 . S
C400 H414 0.951 1_545 S
C401 C397 1.383 . S
C401 C400 1.367 . S
C401 H415 0.950 1_545 S
C402 C399 1.481 . S
C402 C403 1.297 . S
C402 H416 0.950 . S
C403 C402 1.297 . S
C403 C404 1.479 . S
C403 H417 0.950 . S
C404 C403 1.479 . S
C404 C405 1.375 . S
C404 C410 1.404 . S
C405 C404 1.375 . S
C405 C406 1.369 . S
C405 H418 0.950 . S
C406 C405 1.369 . S
C406 C407 1.392 . S
C406 H419 0.951 . S
C407 C406 1.392 . S
C407 C409 1.384 . S
H408 C410 0.949 1_565 S
C409 C407 1.384 . S
C409 C410 1.385 . S
C409 H411 0.950 . S
C410 C404 1.404 . S
C410 H408 0.949 1_545 S
C410 C409 1.385 . S
H411 C409 0.950 . S
H412 C396 0.951 . S
H413 C398 0.951 . S
H414 C400 0.951 1_565 S
H415 C401 0.950 1_565 S
H416 C402 0.950 . S
H417 C403 0.950 . S
H418 C405 0.950 . S
H419 C406 0.951 . S
C420 C421 1.386 . S
C420 C422 1.383 1_554 S
C420 H436 0.951 . S
C421 C420 1.386 . S
C421 C425 1.383 1_554 S
C422 C420 1.383 1_556 S
C422 C423 1.402 . S
C422 H437 0.951 1_556 S
C423 C422 1.402 . S
C423 C424 1.375 . S
C423 C426 1.481 . S
C424 C423 1.375 . S
C424 C425 1.367 . S
C424 H438 0.951 . S
C425 C421 1.383 1_556 S
C425 C424 1.367 . S
C425 H439 0.950 1_565 S
C426 C423 1.481 . S
C426 C427 1.297 . S
C426 H440 0.950 . S
C427 C426 1.297 . S
C427 C428 1.479 . S
C427 H441 0.950 . S
C428 C427 1.479 . S
C428 C429 1.375 . S
C428 C434 1.404 . S
C429 C428 1.375 . S
C429 C430 1.369 . S
C429 H442 0.950 . S
C430 C429 1.369 . S
C430 C431 1.392 . S
C430 H443 0.951 . S
C431 C430 1.392 . S
C431 C433 1.384 . S
H432 C434 0.949 . S
C433 C431 1.384 . S
C433 C434 1.385 . S
C433 H435 0.950 . S
C434 C428 1.404 . S
C434 H432 0.949 . S
C434 C433 1.385 . S
H435 C433 0.950 . S
H436 C420 0.951 . S
H437 C422 0.951 1_554 S
H438 C424 0.951 . S
H439 C425 0.950 1_545 S
H440 C426 0.950 . S
H441 C427 0.950 . S
H442 C429 0.950 . S
H443 C430 0.951 . S
C444 C445 1.396 1_655 S
C444 C446 1.383 . S
C444 H460 0.951 . S
C445 C444 1.396 1_455 S
C445 C449 1.381 . S
C446 C444 1.383 . S
C446 C447 1.402 . S
C446 H461 0.951 . S
C447 C446 1.402 . S
C447 C448 1.375 1_655 S
C447 C450 1.481 . S
C448 C447 1.375 1_455 S
C448 C449 1.367 . S
C448 H462 0.951 . S
C449 C445 1.381 . S
C449 C448 1.367 . S
C449 H463 0.950 . S
C450 C447 1.481 . S
C450 C451 1.297 . S
C450 H464 0.950 1_655 S
C451 C450 1.297 . S
C451 C452 1.479 . S
C451 H465 0.950 . S
C452 C451 1.479 . S
C452 C453 1.375 . S
C452 C458 1.404 . S
C453 C452 1.375 . S
C453 C454 1.369 1_655 S
C453 H466 0.950 . S
C454 C453 1.369 1_455 S
C454 C455 1.392 . S
C454 H467 0.951 . S
C455 C454 1.392 . S
C455 C457 1.384 . S
H456 C458 0.949 . S
C457 C455 1.384 . S
C457 C458 1.385 1_455 S
C457 H459 0.950 . S
C458 C452 1.404 . S
C458 H456 0.949 . S
C458 C457 1.385 1_655 S
H459 C457 0.950 . S
H460 C444 0.951 . S
H461 C446 0.951 . S
H462 C448 0.951 . S
H463 C449 0.950 . S
H464 C450 0.950 1_455 S
H465 C451 0.950 . S
H466 C453 0.950 . S
H467 C454 0.951 . S
C468 C469 1.386 . S
C468 C470 1.383 . S
C468 H484 0.951 1_545 S
C469 C468 1.386 . S
C469 C473 1.383 . S
C470 C468 1.383 . S
C470 C471 1.402 . S
C470 H485 0.951 1_545 S
C471 C470 1.402 . S
C471 C472 1.375 . S
C471 C474 1.481 . S
C472 C471 1.375 . S
C472 C473 1.367 . S
C472 H486 0.951 . S
C473 C469 1.383 . S
C473 C472 1.367 . S
C473 H487 0.950 . S
C474 C471 1.481 . S
C474 C475 1.297 . S
C474 H488 0.950 . S
C475 C474 1.297 . S
C475 C476 1.479 . S
C475 H489 0.950 . S
C476 C475 1.479 . S
C476 C477 1.375 . S
C476 C482 1.404 . S
C477 C476 1.375 . S
C477 C478 1.369 . S
C477 H490 0.950 1_545 S
C478 C477 1.369 . S
C478 C479 1.392 . S
C478 H491 0.951 1_545 S
C479 C478 1.392 . S
C479 C481 1.384 . S
H480 C482 0.949 . S
C481 C479 1.384 . S
C481 C482 1.385 . S
C481 H483 0.950 . S
C482 C476 1.404 . S
C482 H480 0.949 . S
C482 C481 1.385 . S
H483 C481 0.950 . S
H484 C468 0.951 1_565 S
H485 C470 0.951 1_565 S
H486 C472 0.951 . S
H487 C473 0.950 . S
H488 C474 0.950 . S
H489 C475 0.950 . S
H490 C477 0.950 1_565 S
H491 C478 0.951 1_565 S
C492 C493 1.386 . S
C492 C494 1.383 1_554 S
C492 H508 0.951 . S
C493 C492 1.386 . S
C493 C497 1.383 1_554 S
C494 C492 1.383 1_556 S
C494 C495 1.402 . S
C494 H509 0.951 . S
C495 C494 1.402 . S
C495 C496 1.375 . S
C495 C498 1.481 . S
C496 C495 1.375 . S
C496 C497 1.367 . S
C496 H510 0.951 . S
C497 C493 1.383 1_556 S
C497 C496 1.367 . S
C497 H511 0.950 . S
C498 C495 1.481 . S
C498 C499 1.297 . S
C498 H512 0.950 . S
C499 C498 1.297 . S
C499 C500 1.479 . S
C499 H513 0.950 . S
C500 C499 1.479 . S
C500 C501 1.375 . S
C500 C506 1.404 . S
C501 C500 1.375 . S
C501 C502 1.369 . S
C501 H514 0.950 . S
C502 C501 1.369 . S
C502 C503 1.392 . S
C502 H515 0.951 . S
C503 C502 1.392 . S
C503 C505 1.384 . S
H504 C506 0.949 . S
C505 C503 1.384 . S
C505 C506 1.385 . S
C505 H507 0.950 . S
C506 C500 1.404 . S
C506 H504 0.949 . S
C506 C505 1.385 . S
H507 C505 0.950 . S
H508 C492 0.951 . S
H509 C494 0.951 . S
H510 C496 0.951 . S
H511 C497 0.950 . S
H512 C498 0.950 . S
H513 C499 0.950 . S
H514 C501 0.950 . S
H515 C502 0.951 . S
C516 C517 1.386 1_655 S
C516 C518 1.383 . S
C516 H532 0.951 . S
C517 C516 1.386 1_455 S
C517 C521 1.383 . S
C518 C516 1.383 . S
C518 C519 1.402 1_655 S
C518 H533 0.951 . S
C519 C518 1.402 1_455 S
C519 C520 1.375 . S
C519 C522 1.481 . S
C520 C519 1.375 . S
C520 C521 1.367 . S
C520 H534 0.951 . S
C521 C517 1.383 . S
C521 C520 1.367 . S
C521 H535 0.950 . S
C522 C519 1.481 . S
C522 C523 1.297 1_455 S
C522 H536 0.950 . S
C523 C522 1.297 1_655 S
C523 C524 1.479 . S
C523 H537 0.950 . S
C524 C523 1.479 . S
C524 C525 1.375 . S
C524 C530 1.404 1_655 S
C525 C524 1.375 . S
C525 C526 1.369 . S
C525 H538 0.950 . S
C526 C525 1.369 . S
C526 C527 1.392 1_655 S
C526 H539 0.951 . S
C527 C526 1.392 1_455 S
C527 C529 1.384 . S
H528 C530 0.949 . S
C529 C527 1.384 . S
C529 C530 1.385 . S
C529 H531 0.950 . S
C530 C524 1.404 1_455 S
C530 H528 0.949 . S
C530 C529 1.385 . S
H531 C529 0.950 . S
H532 C516 0.951 . S
H533 C518 0.951 . S
H534 C520 0.951 . S
H535 C521 0.950 . S
H536 C522 0.950 . S
H537 C523 0.950 . S
H538 C525 0.950 . S
H539 C526 0.951 . S
C263 C129 1.475 . S
C253 C14 1.411 . S
C277 C40 1.506 . S
C287 C177 1.513 . S
C301 C76 1.498 . S
C311 C249 1.463 . S
C325 C3 1.478 . S
C335 C153 1.444 . S
C359 C201 1.514 . S
C349 C38 1.484 . S
C373 C74 1.466 . S
C383 C225 1.482 . S
C407 C186 1.450 . S
C397 C86 1.421 . S
C421 C2 1.486 . S
C431 C240 1.478 . S
C455 C144 1.462 . S
C445 C39 1.469 . S
C479 C192 1.461 . S
C469 C75 1.473 . S
C503 C234 1.499 . S
C493 C4 1.481 . S
C517 C50 1.406 . S
C527 C138 1.458 . S
