# Generated by pormake.
# Topology anh, (6,3)-cn, num edge types: 1
# Building blocks:
#     Node 0, Type 0, BuildingBlock: MIFKUJ_clean_sbu_0, # of connection points: 6
#     Node 1, Type 0, BuildingBlock: MIFKUJ_clean_sbu_0, # of connection points: 6
#     Node 2, Type 0, BuildingBlock: MIFKUJ_clean_sbu_0, # of connection points: 6
#     Node 3, Type 1, BuildingBlock: MIDCAF_clean_linker_0, # of connection points: 3
#     Node 4, Type 1, BuildingBlock: MIDCAF_clean_linker_0, # of connection points: 3
#     Node 5, Type 1, BuildingBlock: MIDCAF_clean_linker_0, # of connection points: 3
#     Node 6, Type 1, BuildingBlock: MIDCAF_clean_linker_0, # of connection points: 3
#     Node 7, Type 1, BuildingBlock: MIDCAF_clean_linker_0, # of connection points: 3
#     Node 8, Type 1, BuildingBlock: MIDCAF_clean_linker_0, # of connection points: 3
#     Edge 9, Type (0, 1), BuildingBlock: AJUNOK_clean_linker_0, # of connection points: 2
#     Edge 10, Type (0, 1), BuildingBlock: AJUNOK_clean_linker_0, # of connection points: 2
#     Edge 11, Type (0, 1), BuildingBlock: AJUNOK_clean_linker_0, # of connection points: 2
#     Edge 12, Type (0, 1), BuildingBlock: AJUNOK_clean_linker_0, # of connection points: 2
#     Edge 13, Type (0, 1), BuildingBlock: AJUNOK_clean_linker_0, # of connection points: 2
#     Edge 14, Type (0, 1), BuildingBlock: AJUNOK_clean_linker_0, # of connection points: 2
#     Edge 15, Type (0, 1), BuildingBlock: AJUNOK_clean_linker_0, # of connection points: 2
#     Edge 16, Type (0, 1), BuildingBlock: AJUNOK_clean_linker_0, # of connection points: 2
#     Edge 17, Type (0, 1), BuildingBlock: AJUNOK_clean_linker_0, # of connection points: 2
#     Edge 18, Type (0, 1), BuildingBlock: AJUNOK_clean_linker_0, # of connection points: 2
#     Edge 19, Type (0, 1), BuildingBlock: AJUNOK_clean_linker_0, # of connection points: 2
#     Edge 20, Type (0, 1), BuildingBlock: AJUNOK_clean_linker_0, # of connection points: 2
#     Edge 21, Type (0, 1), BuildingBlock: AJUNOK_clean_linker_0, # of connection points: 2
#     Edge 22, Type (0, 1), BuildingBlock: AJUNOK_clean_linker_0, # of connection points: 2
#     Edge 23, Type (0, 1), BuildingBlock: AJUNOK_clean_linker_0, # of connection points: 2
#     Edge 24, Type (0, 1), BuildingBlock: AJUNOK_clean_linker_0, # of connection points: 2
#     Edge 25, Type (0, 1), BuildingBlock: AJUNOK_clean_linker_0, # of connection points: 2
#     Edge 26, Type (0, 1), BuildingBlock: AJUNOK_clean_linker_0, # of connection points: 2
# Relax obj value: 0.135
# Max RMSD: 0.186
# Mean RMSD: 0.150
data_MOF--net-anh--node1-MIFKUJ_clean_sbu_0--node2-MIDCAF_clean_linker_0--edge1-AJUNOK_clean_linker_0
_symmetry_space_group_name_H-M    P1
_symmetry_Int_Tables_number       1
_symmetry_cell_setting            triclinic
loop_
_symmetry_equiv_pos_as_xyz
'x, y, z'
_cell_length_a     29.53536
_cell_length_b     29.523409
_cell_length_c     49.96628
_cell_angle_alpha  93.932607
_cell_angle_beta   90.6598
_cell_angle_gamma 120.0775
loop_
_atom_site_label
_atom_site_type_symbol
_atom_site_fract_x
_atom_site_fract_y
_atom_site_fract_z
_atom_type_partial_charge
Zn0 Zn 0.05661 0.58826 0.16413 0.0
Zn1 Zn 0.90905 0.47765 0.15745 0.0
C2 C 0.1232 0.54595 0.1684 0.0
O3 O 0.12373 0.56281 0.19349 0.0
C4 C 0.81416 0.47518 0.14365 0.0
O5 O 0.80826 0.4345 0.12828 0.0
O6 O 0.11109 0.66434 0.16864 0.0
O7 O 0.99884 0.57817 0.13911 0.0
O8 O 0.95053 0.49574 0.12438 0.0
C9 C 0.14473 0.68446 0.15104 0.0
O10 O 0.14107 0.65544 0.12908 0.0
O11 O 0.09447 0.55052 0.15084 0.0
C12 C 0.88119 0.3665 0.15531 0.0
O13 O 0.93158 0.38338 0.15823 0.0
O14 O 0.86545 0.39935 0.15512 0.0
O15 O 0.94819 0.50083 0.19378 0.0
O16 O 0.03092 0.56548 0.20025 0.0
O17 O 0.85716 0.50355 0.15733 0.0
C18 C 0.98545 0.54209 0.1204 0.0
C19 C 0.98858 0.53033 0.20917 0.0
Zn20 Zn 0.5294 0.06601 0.48978 0.0
Zn21 Zn 0.50404 0.92351 0.49184 0.0
C22 C 0.63474 0.1434 0.49793 0.0
O23 O 0.61185 0.15641 0.5169 0.0
C24 C 0.41824 0.81465 0.48351 0.0
O25 O 0.45635 0.80597 0.47702 0.0
O26 O 0.50848 0.12034 0.48729 0.0
O27 O 0.48271 0.00376 0.46463 0.0
O28 O 0.52059 0.95727 0.45677 0.0
C29 C 0.5243 0.15218 0.4691 0.0
O30 O 0.55219 0.1469 0.45015 0.0
O31 O 0.60669 0.10197 0.4824 0.0
C32 C 0.55456 0.87654 0.51789 0.0
O33 O 0.5272 0.87954 0.53778 0.0
O34 O 0.55198 0.89454 0.49596 0.0
O35 O 0.51166 0.96813 0.52625 0.0
O36 O 0.52179 0.04819 0.52755 0.0
O37 O 0.42909 0.86175 0.48965 0.0
C38 C 0.50536 0.98746 0.44869 0.0
C39 C 0.5167 0.00919 0.53922 0.0
Zn40 Zn 0.59065 0.52288 0.82662 0.0
Zn41 Zn 0.48148 0.55199 0.81663 0.0
C42 C 0.56945 0.42052 0.83535 0.0
O43 O 0.59283 0.44642 0.85846 0.0
C44 C 0.50222 0.65486 0.83035 0.0
O45 O 0.46433 0.62739 0.84609 0.0
O46 O 0.668 0.55201 0.83157 0.0
O47 O 0.58097 0.55757 0.79568 0.0
O48 O 0.49677 0.51585 0.7855 0.0
C49 C 0.68885 0.53657 0.81376 0.0
O50 O 0.65972 0.50531 0.79294 0.0
O51 O 0.56112 0.44484 0.81758 0.0
C52 C 0.36901 0.48768 0.82004 0.0
O53 O 0.38051 0.45417 0.82969 0.0
O54 O 0.40571 0.5302 0.81235 0.0
O55 O 0.49274 0.53849 0.85415 0.0
O56 O 0.56293 0.53129 0.86192 0.0
O57 O 0.51925 0.63099 0.81505 0.0
C58 C 0.54289 0.52951 0.77888 0.0
C59 C 0.52356 0.53374 0.87012 0.0
C60 C 0.34296 0.92577 0.19024 0.0
C61 C 0.33772 0.88408 0.17261 0.0
C62 C 0.38309 0.88574 0.16304 0.0
C63 C 0.43273 0.92579 0.17294 0.0
H64 H 0.5966 0.0582 0.15733 0.0
H65 H 0.67557 0.12319 0.13721 0.0
H66 H 0.7532 0.18167 0.21603 0.0
H67 H 0.67574 0.11614 0.23608 0.0
H68 H 0.61535 0.07161 0.28761 0.0
H69 H 0.61242 0.06948 0.33639 0.0
H70 H 0.44368 0.99275 0.32962 0.0
H71 H 0.44614 0.9952 0.2811 0.0
H72 H 0.39518 0.99462 0.21563 0.0
H73 H 0.3087 0.92644 0.19724 0.0
H74 H 0.3802 0.85419 0.14935 0.0
H75 H 0.46705 0.92438 0.1667 0.0
N76 N 0.53344 0.02188 0.19618 0.0
N77 N 0.57794 0.0552 0.23849 0.0
N78 N 0.48676 0.00235 0.23548 0.0
C79 C 0.57912 0.0513 0.21126 0.0
C80 C 0.53196 0.0307 0.25074 0.0
C81 C 0.48718 0.99764 0.20832 0.0
C82 C 0.62923 0.08289 0.1984 0.0
C83 C 0.63089 0.0841 0.17033 0.0
C84 C 0.67603 0.12138 0.15878 0.0
C85 C 0.71997 0.15831 0.17513 0.0
C86 C 0.71992 0.1538 0.2029 0.0
C87 C 0.67513 0.11642 0.21441 0.0
C88 C 0.53096 0.03333 0.28039 0.0
C89 C 0.57764 0.05492 0.29652 0.0
C90 C 0.57606 0.05366 0.32441 0.0
C91 C 0.52789 0.03134 0.33667 0.0
C92 C 0.48139 0.01106 0.32068 0.0
C93 C 0.48288 0.01207 0.29284 0.0
C94 C 0.43737 0.96406 0.19278 0.0
C95 C 0.39233 0.96493 0.20059 0.0
C96 C 0.5005 0.35858 0.50895 0.0
C97 C 0.53455 0.3521 0.49175 0.0
C98 C 0.5822 0.39665 0.48639 0.0
C99 C 0.59696 0.44589 0.49945 0.0
H100 H 0.58754 0.6085 0.49806 0.0
H101 H 0.58686 0.68827 0.48924 0.0
H102 H 0.68119 0.76685 0.56243 0.0
H103 H 0.68098 0.68676 0.57165 0.0
H104 H 0.64093 0.61615 0.62193 0.0
H105 H 0.6282 0.60796 0.66974 0.0
H106 H 0.54614 0.43899 0.65541 0.0
H107 H 0.558 0.4467 0.60732 0.0
H108 H 0.49053 0.41062 0.53705 0.0
H109 H 0.46328 0.32519 0.51321 0.0
H110 H 0.60986 0.39295 0.47373 0.0
H111 H 0.63515 0.47906 0.4963 0.0
N112 N 0.60321 0.5464 0.52747 0.0
N113 N 0.62127 0.58483 0.57185 0.0
N114 N 0.58466 0.49403 0.56373 0.0
C115 C 0.62134 0.58989 0.54505 0.0
C116 C 0.6032 0.53718 0.58138 0.0
C117 C 0.58511 0.49848 0.53687 0.0
C118 C 0.63344 0.64106 0.53581 0.0
C119 C 0.60971 0.64329 0.51179 0.0
C120 C 0.6095 0.68913 0.50667 0.0
C121 C 0.63363 0.73359 0.5253 0.0
C122 C 0.66181 0.7329 0.54792 0.0
C123 C 0.66167 0.68705 0.55315 0.0
C124 C 0.59995 0.53208 0.61067 0.0
C125 C 0.62045 0.57715 0.62886 0.0
C126 C 0.61343 0.57256 0.6563 0.0
C127 C 0.58567 0.52287 0.66614 0.0
C128 C 0.56692 0.47775 0.64821 0.0
C129 C 0.57402 0.48228 0.62071 0.0
C130 C 0.56488 0.45085 0.51847 0.0
C131 C 0.51591 0.40735 0.52251 0.0
C132 C 0.90598 0.58836 0.87287 0.0
C133 C 0.89465 0.57433 0.84519 0.0
C134 C 0.92841 0.56321 0.83013 0.0
C135 C 0.97089 0.56317 0.84286 0.0
H136 H 0.0992 0.53557 0.83219 0.0
H137 H 0.15754 0.50934 0.81057 0.0
H138 H 0.19755 0.47671 0.88747 0.0
H139 H 0.13935 0.50182 0.90897 0.0
H140 H 0.10642 0.53468 0.96194 0.0
H141 H 0.10057 0.5359 0.01071 0.0
H142 H 0.01491 0.61856 0.00711 0.0
H143 H 0.02098 0.61804 0.95863 0.0
H144 H 0.95468 0.59836 0.90703 0.0
H145 H 0.88062 0.59683 0.88509 0.0
H146 H 0.92135 0.55349 0.80863 0.0
H147 H 0.99519 0.55275 0.8309 0.0
N148 N 0.04972 0.55058 0.87217 0.0
N149 N 0.08878 0.5506 0.91341 0.0
N150 N 0.0272 0.57807 0.91243 0.0
C151 C 0.08374 0.54145 0.88621 0.0
C152 C 0.06087 0.56919 0.92664 0.0
C153 C 0.02122 0.56892 0.88528 0.0
C154 C 0.11498 0.52134 0.87236 0.0
C155 C 0.11974 0.5219 0.84439 0.0
C156 C 0.15301 0.50687 0.83199 0.0
C157 C 0.1815 0.49041 0.8473 0.0
C158 C 0.17515 0.488 0.87505 0.0
C159 C 0.14227 0.50318 0.88742 0.0
C160 C 0.06369 0.5758 0.95633 0.0
C161 C 0.08727 0.55408 0.97158 0.0
C162 C 0.08392 0.55466 -0.00053 0.0
C163 C 0.05757 0.57755 0.01259 0.0
C164 C 0.03626 0.60148 -0.00247 0.0
C165 C 0.03931 0.60065 0.96971 0.0
C166 C 0.98058 0.57476 0.87083 0.0
C167 C 0.94845 0.58882 0.88549 0.0
C168 C 0.16565 0.65565 0.46606 0.0
C169 C 0.20024 0.64508 0.48013 0.0
C170 C 0.18152 0.59399 0.48804 0.0
C171 C 0.13054 0.55341 0.48004 0.0
H172 H 0.95387 0.41466 0.49708 0.0
H173 H 0.87772 0.33786 0.51316 0.0
H174 H 0.8287 0.27038 0.4313 0.0
H175 H 0.90472 0.34474 0.41551 0.0
H176 H 0.94058 0.41134 0.36771 0.0
H177 H 0.93448 0.42142 0.32002 0.0
H178 H 0.04306 0.58803 0.33443 0.0
H179 H 0.05051 0.57802 0.38198 0.0
H180 H 0.09066 0.62428 0.44572 0.0
H181 H 0.17871 0.69447 0.45968 0.0
H182 H 0.20702 0.58494 0.49939 0.0
H183 H 0.11824 0.51374 0.48479 0.0
N184 N 0.01694 0.47465 0.4597 0.0
N185 N 0.96928 0.44238 0.41803 0.0
N186 N 0.04304 0.52613 0.42284 0.0
C187 C 0.97557 0.4355 0.44413 0.0
C188 C 0.00269 0.48742 0.40726 0.0
C189 C 0.05077 0.52031 0.44889 0.0
C190 C 0.93527 0.3863 0.45499 0.0
C191 C 0.92761 0.38268 0.48265 0.0
C192 C 0.88383 0.33883 0.49182 0.0
C193 C 0.84716 0.29773 0.47353 0.0
C194 C 0.85655 0.30042 0.44606 0.0
C195 C 0.90006 0.34377 0.43697 0.0
C196 C 0.99619 0.49385 0.37865 0.0
C197 C 0.9628 0.45023 0.36079 0.0
C198 C 0.959 0.456 0.33349 0.0
C199 C 0.98799 0.50557 0.32361 0.0
C200 C 0.02054 0.54931 0.34153 0.0
C201 C 0.0247 0.54352 0.36875 0.0
C202 C 0.0978 0.56343 0.46394 0.0
C203 C 0.11517 0.61533 0.45801 0.0
C204 C 0.49029 0.16825 0.79911 0.0
C205 C 0.53328 0.20742 0.81516 0.0
C206 C 0.57118 0.19611 0.82492 0.0
C207 C 0.56832 0.1482 0.81686 0.0
H208 H 0.5306 0.96685 0.83353 0.0
H209 H 0.53172 0.89105 0.85024 0.0
H210 H 0.57312 0.85548 0.77217 0.0
H211 H 0.5743 0.9311 0.75603 0.0
H212 H 0.50137 0.9412 0.70653 0.0
H213 H 0.49485 0.93634 0.6576 0.0
H214 H 0.54538 0.10175 0.66137 0.0
H215 H 0.54936 0.10603 0.71026 0.0
H216 H 0.45597 0.0929 0.77699 0.0
H217 H 0.45962 0.17509 0.79199 0.0
H218 H 0.60463 0.2255 0.83746 0.0
H219 H 0.59984 0.14183 0.82303 0.0
N220 N 0.54079 0.03388 0.79642 0.0
N221 N 0.53875 0.99257 0.7541 0.0
N222 N 0.52647 0.06478 0.75678 0.0
C223 C 0.54425 0.99543 0.78128 0.0
C224 C 0.53015 0.02706 0.74174 0.0
C225 C 0.53156 0.06851 0.78397 0.0
C226 C 0.55185 0.95493 0.79338 0.0
C227 C 0.54131 0.9436 0.82023 0.0
C228 C 0.5417 0.90006 0.82974 0.0
C229 C 0.55299 0.8674 0.81262 0.0
C230 C 0.56568 0.88034 0.78619 0.0
C231 C 0.56552 0.92358 0.7768 0.0
C232 C 0.52557 0.02392 0.71218 0.0
C233 C 0.51069 0.97641 0.69689 0.0
C234 C 0.5071 0.97365 0.66889 0.0
C235 C 0.51898 0.01849 0.65565 0.0
C236 C 0.5344 0.06614 0.67099 0.0
C237 C 0.53706 0.06868 0.69898 0.0
C238 C 0.52768 0.11122 0.79886 0.0
C239 C 0.48783 0.12095 0.79083 0.0
C240 C 0.65463 0.56402 0.1291 0.0
C241 C 0.64626 0.52391 0.14535 0.0
C242 C 0.59636 0.49342 0.15539 0.0
C243 C 0.55441 0.49966 0.14714 0.0
H244 H 0.41669 0.54929 0.1586 0.0
H245 H 0.33829 0.54902 0.17397 0.0
H246 H 0.25313 0.45964 0.10025 0.0
H247 H 0.3318 0.46162 0.08453 0.0
H248 H 0.40014 0.48819 0.03125 0.0
H249 H 0.40839 0.48807 0.9827 0.0
H250 H 0.57697 0.57117 -0.00533 0.0
H251 H 0.56896 0.56991 0.04305 0.0
H252 H 0.61966 0.59851 0.10647 0.0
H253 H 0.69262 0.58809 0.12109 0.0
H254 H 0.58915 0.46268 0.16827 0.0
H255 H 0.51551 0.47301 0.15342 0.0
N256 N 0.47129 0.52135 0.1245 0.0
N257 N 0.43398 0.51641 0.08172 0.0
N258 N 0.52052 0.53508 0.08621 0.0
C259 C 0.42967 0.51395 0.10871 0.0
C260 C 0.47933 0.52711 0.07037 0.0
C261 C 0.51697 0.53205 0.11311 0.0
C262 C 0.38053 0.50585 0.12031 0.0
C263 C 0.3809 0.5286 0.14598 0.0
C264 C 0.33586 0.52824 0.1548 0.0
C265 C 0.28938 0.50426 0.1383 0.0
C266 C 0.28843 0.47898 0.11328 0.0
C267 C 0.33348 0.47997 0.10434 0.0
C268 C 0.48388 0.52905 0.04101 0.0
C269 C 0.43896 0.50675 0.02353 0.0
C270 C 0.44366 0.50688 -0.00426 0.0
C271 C 0.49335 0.53001 0.98495 0.0
C272 C 0.53818 0.55271 0.00244 0.0
C273 C 0.53352 0.5521 0.03016 0.0
C274 C 0.5619 0.53614 0.1286 0.0
C275 C 0.61281 0.56988 0.12069 0.0
C276 C 0.17816 0.5338 0.13413 0.0
C277 C 0.16102 0.52902 0.16046 0.0
C278 C 0.21874 0.52444 0.12705 0.0
C279 C 0.24351 0.50948 0.14595 0.0
H280 H 0.16166 0.54697 0.1191 0.0
H281 H 0.23205 0.53084 0.10682 0.0
S282 S 0.20824 0.48449 0.21659 0.0
N283 N 0.16879 0.50393 0.20493 0.0
N284 N 0.24426 0.48528 0.1914 0.0
C285 C 0.22499 0.50208 0.17199 0.0
C286 C 0.18392 0.512 0.17927 0.0
C287 C 0.71536 0.23196 0.50515 0.0
C288 C 0.69084 0.17984 0.4934 0.0
C289 C 0.76678 0.26899 0.49967 0.0
C290 C 0.79616 0.25549 0.48234 0.0
H291 H 0.69409 0.24504 0.51798 0.0
H292 H 0.7827 0.30914 0.50814 0.0
S293 S 0.75299 0.12249 0.44942 0.0
N294 N 0.7016 0.11546 0.4655 0.0
N295 N 0.79883 0.18476 0.45572 0.0
C296 C 0.77318 0.20278 0.47161 0.0
C297 C 0.72047 0.16509 0.47699 0.0
C298 C 0.48725 0.73091 0.83715 0.0
C299 C 0.51982 0.71123 0.82848 0.0
C300 C 0.49978 0.78243 0.8333 0.0
C301 C 0.54569 0.81664 0.82085 0.0
H302 H 0.45049 0.70567 0.84597 0.0
H303 H 0.4719 0.79457 0.83892 0.0
S304 S 0.64853 0.78729 0.79862 0.0
N305 N 0.6027 0.73179 0.80948 0.0
N306 N 0.62711 0.82918 0.80295 0.0
C307 C 0.58032 0.79857 0.8137 0.0
C308 C 0.5672 0.7458 0.81732 0.0
C309 C 0.7801 0.53647 0.15519 0.0
C310 C 0.77045 0.4862 0.14575 0.0
C311 C 0.7394 0.54805 0.1561 0.0
C312 C 0.68746 0.5095 0.14813 0.0
H313 H 0.81957 0.56753 0.16121 0.0
H314 H 0.74875 0.58769 0.16261 0.0
S315 S 0.64083 0.3711 0.12321 0.0
N316 N 0.70445 0.397 0.12933 0.0
N317 N 0.6284 0.41885 0.1311 0.0
C318 C 0.67704 0.45871 0.13951 0.0
C319 C 0.71841 0.44706 0.13828 0.0
C320 C 0.32343 0.7793 0.49295 0.0
C321 C 0.36341 0.77009 0.48401 0.0
C322 C 0.27118 0.73834 0.4928 0.0
C323 C 0.25666 0.68636 0.48379 0.0
H324 H 0.3323 0.81863 0.49983 0.0
H325 H 0.24169 0.7476 0.49936 0.0
S326 S 0.3459 0.64071 0.45843 0.0
N327 N 0.38455 0.70432 0.46629 0.0
N328 N 0.28647 0.62787 0.46569 0.0
C329 C 0.29628 0.67631 0.47534 0.0
C330 C 0.34952 0.71798 0.47548 0.0
C331 C 0.56136 0.33784 0.85079 0.0
C332 C 0.55707 0.36523 0.82975 0.0
C333 C 0.55323 0.28682 0.84602 0.0
C334 C 0.54032 0.26098 0.82004 0.0
H335 H 0.57149 0.35606 0.87118 0.0
H336 H 0.55702 0.26741 0.86282 0.0
S337 S 0.52664 0.31584 0.75771 0.0
N338 N 0.54004 0.36266 0.78176 0.0
N339 N 0.52547 0.26726 0.77278 0.0
C340 C 0.53588 0.2878 0.7988 0.0
C341 C 0.54403 0.33971 0.80365 0.0
C342 C 0.58249 0.82521 0.54423 0.0
C343 C 0.58203 0.84639 0.51993 0.0
C344 C 0.60192 0.79096 0.54603 0.0
C345 C 0.62174 0.77649 0.52363 0.0
H346 H 0.56597 0.83354 0.56184 0.0
H347 H 0.59895 0.77366 0.56484 0.0
S348 S 0.63569 0.82583 0.45625 0.0
N349 N 0.60771 0.85403 0.4735 0.0
N350 N 0.64441 0.78954 0.47714 0.0
C351 C 0.62424 0.79947 0.49961 0.0
C352 C 0.6045 0.83455 0.49772 0.0
C353 C 0.77988 0.59537 0.83312 0.0
C354 C 0.74342 0.54871 0.81812 0.0
C355 C 0.83009 0.60496 0.84024 0.0
C356 C 0.8454 0.56782 0.83302 0.0
H357 H 0.76915 0.62421 0.83992 0.0
H358 H 0.85654 0.64098 0.85232 0.0
S359 S 0.76424 0.43949 0.79338 0.0
N360 N 0.72635 0.46574 0.79537 0.0
N361 N 0.82009 0.48284 0.80958 0.0
C362 C 0.80985 0.52177 0.81717 0.0
C363 C 0.75896 0.5124 0.80956 0.0
C364 C 0.22324 0.76322 0.13559 0.0
C365 C 0.19077 0.73785 0.15651 0.0
C366 C 0.26989 0.81146 0.14071 0.0
C367 C 0.28574 0.83605 0.16693 0.0
H368 H 0.21307 0.74528 0.11515 0.0
H369 H 0.29414 0.82925 0.12411 0.0
S370 S 0.21534 0.78552 0.22886 0.0
N371 N 0.17776 0.74127 0.20447 0.0
N372 N 0.26577 0.831 0.21412 0.0
C373 C 0.25318 0.81152 0.18795 0.0
C374 C 0.20561 0.76269 0.18273 0.0
C375 C 0.50582 0.2132 0.49732 0.0
C376 C 0.51958 0.19983 0.47239 0.0
C377 C 0.50856 0.26152 0.50279 0.0
C378 C 0.52455 0.29843 0.48348 0.0
H379 H 0.49528 0.18733 0.51335 0.0
H380 H 0.50059 0.27094 0.52288 0.0
S381 S 0.5566 0.27923 0.41357 0.0
N382 N 0.54448 0.22504 0.42715 0.0
N383 N 0.54847 0.31586 0.43734 0.0
C384 C 0.5352 0.28432 0.45786 0.0
C385 C 0.53285 0.23501 0.45232 0.0
C386 C 0.30736 0.52155 0.81484 0.0
C387 C 0.31614 0.48132 0.82237 0.0
C388 C 0.26167 0.52209 0.82126 0.0
C389 C 0.22291 0.48239 0.83541 0.0
H390 H 0.33717 0.55454 0.80514 0.0
H391 H 0.25831 0.55564 0.81663 0.0
S392 S 0.2218 0.36318 0.85532 0.0
N393 N 0.27862 0.39696 0.84155 0.0
N394 N 0.19247 0.39807 0.85345 0.0
C395 C 0.229 0.43971 0.84108 0.0
C396 C 0.27562 0.43909 0.83456 0.0
C397 C 0.85431 0.2761 0.16785 0.0
C398 C 0.84199 0.31001 0.15526 0.0
C399 C 0.81504 0.22513 0.1725 0.0
C400 C 0.76231 0.20627 0.16445 0.0
H401 H 0.89389 0.28996 0.17564 0.0
H402 H 0.82557 0.20124 0.18364 0.0
S403 S 0.71106 0.27729 0.12732 0.0
N404 N 0.77451 0.31907 0.13197 0.0
N405 N 0.70076 0.22399 0.14116 0.0
C406 C 0.75027 0.23846 0.15001 0.0
C407 C 0.79012 0.29021 0.14534 0.0
C408 C 0.00389 0.51182 0.07619 0.0
C409 C 0.00971 0.55347 0.09415 0.0
C410 C 0.02214 0.52052 0.05028 0.0
C411 C 0.04665 0.57115 0.04131 0.0
H412 H 0.98394 0.47188 0.08193 0.0
H413 H 0.01487 0.48698 0.03677 0.0
S414 S 0.07578 0.69431 0.08103 0.0
N415 N 0.04466 0.64788 0.10155 0.0
N416 N 0.07954 0.66406 0.05282 0.0
C417 C 0.05488 0.6135 0.05936 0.0
C418 C 0.03636 0.60473 0.0858 0.0
C419 C 0.54414 0.98945 0.4043 0.0
C420 C 0.51325 0.00257 0.42072 0.0
C421 C 0.55024 0.00072 0.37739 0.0
C422 C 0.52556 0.02538 0.36585 0.0
H423 H 0.5632 0.96954 0.41212 0.0
H424 H 0.57304 0.98847 0.36529 0.0
S425 S 0.44393 0.07171 0.40036 0.0
N426 N 0.45971 0.04408 0.42357 0.0
N427 N 0.47208 0.06584 0.37303 0.0
C428 C 0.49606 0.04036 0.38214 0.0
C429 C 0.48974 0.02889 0.40956 0.0
C430 C 0.60464 0.54965 0.74181 0.0
C431 C 0.55302 0.52248 0.75033 0.0
C432 C 0.61506 0.54812 0.71462 0.0
C433 C 0.57439 0.51886 0.69493 0.0
H434 H 0.6373 0.57371 0.75612 0.0
H435 H 0.65519 0.57081 0.70888 0.0
S436 S 0.43294 0.43743 0.70659 0.0
N437 N 0.46107 0.4626 0.73684 0.0
N438 N 0.4809 0.46022 0.68569 0.0
C439 C 0.52291 0.48966 0.70317 0.0
C440 C 0.51217 0.49134 0.73087 0.0
C441 C 0.53776 0.98703 0.58315 0.0
C442 C 0.51588 0.01129 0.56875 0.0
C443 C 0.53847 0.98948 0.61123 0.0
C444 C 0.51676 0.01576 0.62589 0.0
H445 H 0.55555 0.96702 0.5727 0.0
H446 H 0.55697 0.97137 0.62154 0.0
S447 S 0.4504 0.08152 0.59734 0.0
N448 N 0.46988 0.06036 0.57094 0.0
N449 N 0.4696 0.0635 0.62373 0.0
C450 C 0.49365 0.03915 0.61164 0.0
C451 C 0.4936 0.03727 0.58306 0.0
C452 C 0.54068 0.51622 0.91631 0.0
C453 C 0.51389 0.53193 0.89918 0.0
C454 C 0.53326 0.51514 0.94391 0.0
C455 C 0.49892 0.5299 0.95552 0.0
H456 H 0.56761 0.50448 0.9084 0.0
H457 H 0.55453 0.50246 0.95627 0.0
S458 S 0.42023 0.5755 0.91987 0.0
N459 N 0.45157 0.56288 0.89604 0.0
N460 N 0.43866 0.56179 0.94805 0.0
C461 C 0.47171 0.54555 0.93873 0.0
C462 C 0.47897 0.54638 0.91055 0.0
C463 C 0.03381 0.54563 0.25416 0.0
C464 C 0.98673 0.52351 0.23831 0.0
C465 C 0.03368 0.53967 0.28168 0.0
C466 C 0.9865 0.51155 0.29449 0.0
H467 H 0.0713 0.5673 0.24526 0.0
H468 H 0.07096 0.55668 0.29295 0.0
S469 S 0.85234 0.44839 0.26262 0.0
N470 N 0.89136 0.47354 0.23774 0.0
N471 N 0.89137 0.46315 0.28967 0.0
C472 C 0.93907 0.48965 0.27905 0.0
C473 C 0.93912 0.49546 0.25093 0.0
loop_
_geom_bond_atom_site_label_1
_geom_bond_atom_site_label_2
_geom_bond_distance
_geom_bond_site_symmetry_2
_ccdc_geom_bond_type
Zn0 O6 1.969 . S
Zn0 O7 1.965 . S
Zn0 O11 2.024 . S
Zn0 O16 1.969 . S
Zn1 O8 1.969 . S
Zn1 O14 1.969 . S
Zn1 O15 1.965 . S
Zn1 O17 2.024 . S
C2 O3 1.229 . S
C2 O11 1.058 . S
O3 C2 1.229 . S
C4 O5 1.229 . S
C4 O17 1.058 . S
O5 C4 1.229 . S
O6 Zn0 1.969 . S
O6 C9 1.267 . S
O7 Zn0 1.965 . S
O7 C18 1.260 1_455 S
O8 Zn1 1.969 . S
O8 C18 1.258 . S
C9 O6 1.267 . S
C9 O10 1.228 . S
O10 C9 1.228 . S
O11 Zn0 2.024 . S
O11 C2 1.058 . S
C12 O13 1.228 . S
C12 O14 1.267 . S
O13 C12 1.228 . S
O14 Zn1 1.969 . S
O14 C12 1.267 . S
O15 Zn1 1.965 . S
O15 C19 1.260 1_655 S
O16 Zn0 1.969 . S
O16 C19 1.258 . S
O17 Zn1 2.024 . S
O17 C4 1.058 . S
C18 O7 1.260 1_655 S
C18 O8 1.258 . S
C19 O15 1.260 1_455 S
C19 O16 1.258 . S
Zn20 O26 1.969 . S
Zn20 O27 1.965 . S
Zn20 O31 2.024 . S
Zn20 O36 1.969 . S
Zn21 O28 1.969 . S
Zn21 O34 1.969 . S
Zn21 O35 1.965 . S
Zn21 O37 2.024 . S
C22 O23 1.229 . S
C22 O31 1.058 . S
O23 C22 1.229 . S
C24 O25 1.229 . S
C24 O37 1.058 . S
O25 C24 1.229 . S
O26 Zn20 1.969 . S
O26 C29 1.267 . S
O27 Zn20 1.965 . S
O27 C38 1.260 . S
O28 Zn21 1.969 . S
O28 C38 1.258 1_565 S
C29 O26 1.267 . S
C29 O30 1.228 . S
O30 C29 1.228 . S
O31 Zn20 2.024 . S
O31 C22 1.058 . S
C32 O33 1.228 . S
C32 O34 1.267 . S
O33 C32 1.228 . S
O34 Zn21 1.969 . S
O34 C32 1.267 . S
O35 Zn21 1.965 . S
O35 C39 1.260 1_565 S
O36 Zn20 1.969 . S
O36 C39 1.258 . S
O37 Zn21 2.024 . S
O37 C24 1.058 . S
C38 O27 1.260 . S
C38 O28 1.258 1_545 S
C39 O35 1.260 1_545 S
C39 O36 1.258 . S
Zn40 O46 1.969 . S
Zn40 O47 1.965 . S
Zn40 O51 2.024 . S
Zn40 O56 1.969 . S
Zn41 O48 1.969 . S
Zn41 O54 1.969 . S
Zn41 O55 1.965 . S
Zn41 O57 2.024 . S
C42 O43 1.229 . S
C42 O51 1.058 . S
O43 C42 1.229 . S
C44 O45 1.229 . S
C44 O57 1.058 . S
O45 C44 1.229 . S
O46 Zn40 1.969 . S
O46 C49 1.267 . S
O47 Zn40 1.965 . S
O47 C58 1.260 . S
O48 Zn41 1.969 . S
O48 C58 1.258 . S
C49 O46 1.267 . S
C49 O50 1.228 . S
O50 C49 1.228 . S
O51 Zn40 2.024 . S
O51 C42 1.058 . S
C52 O53 1.228 . S
C52 O54 1.267 . S
O53 C52 1.228 . S
O54 Zn41 1.969 . S
O54 C52 1.267 . S
O55 Zn41 1.965 . S
O55 C59 1.260 . S
O56 Zn40 1.969 . S
O56 C59 1.258 . S
O57 Zn41 2.024 . S
O57 C44 1.058 . S
C58 O47 1.260 . S
C58 O48 1.258 . S
C59 O55 1.260 . S
C59 O56 1.258 . S
C60 C61 1.384 . S
C60 H73 0.947 . S
C60 C95 1.382 . S
C61 C60 1.384 . S
C61 C62 1.378 . S
C62 C61 1.378 . S
C62 C63 1.378 . S
C62 H74 0.952 . S
C63 C62 1.378 . S
C63 H75 0.950 . S
C63 C94 1.383 . S
H64 C83 0.947 . S
H65 C84 0.946 . S
H66 C86 0.953 . S
H67 C87 0.945 . S
H68 C89 0.952 . S
H69 C90 0.949 . S
H70 C92 0.950 . S
H71 C93 0.948 . S
H72 C95 0.951 . S
H73 C60 0.947 . S
H74 C62 0.952 . S
H75 C63 0.950 . S
N76 C79 1.382 . S
N76 C81 1.363 1_545 S
N77 C79 1.371 . S
N77 C80 1.372 . S
N78 C80 1.361 1_565 S
N78 C81 1.377 . S
C79 N76 1.382 . S
C79 N77 1.371 . S
C79 C82 1.480 . S
C80 N77 1.372 . S
C80 N78 1.361 1_545 S
C80 C88 1.457 . S
C81 N76 1.363 1_565 S
C81 N78 1.377 . S
C81 C94 1.479 . S
C82 C79 1.480 . S
C82 C83 1.383 . S
C82 C87 1.385 . S
C83 H64 0.947 . S
C83 C82 1.383 . S
C83 C84 1.388 . S
C84 H65 0.946 . S
C84 C83 1.388 . S
C84 C85 1.384 . S
C85 C84 1.384 . S
C85 C86 1.377 . S
C86 H66 0.953 . S
C86 C85 1.377 . S
C86 C87 1.369 . S
C87 H67 0.945 . S
C87 C82 1.385 . S
C87 C86 1.369 . S
C88 C80 1.457 . S
C88 C89 1.372 . S
C88 C93 1.364 1_545 S
C89 H68 0.952 . S
C89 C88 1.372 . S
C89 C90 1.389 . S
C90 H69 0.949 . S
C90 C89 1.389 . S
C90 C91 1.387 . S
C91 C90 1.387 . S
C91 C92 1.372 1_545 S
C92 H70 0.950 . S
C92 C91 1.372 1_565 S
C92 C93 1.379 . S
C93 H71 0.948 . S
C93 C88 1.364 1_565 S
C93 C92 1.379 . S
C94 C63 1.383 . S
C94 C81 1.479 . S
C94 C95 1.398 . S
C95 C60 1.382 . S
C95 H72 0.951 . S
C95 C94 1.398 . S
C96 C97 1.384 . S
C96 H109 0.947 . S
C96 C131 1.382 . S
C97 C96 1.384 . S
C97 C98 1.378 . S
C98 C97 1.378 . S
C98 C99 1.378 . S
C98 H110 0.952 . S
C99 C98 1.378 . S
C99 H111 0.950 . S
C99 C130 1.383 . S
H100 C119 0.947 . S
H101 C120 0.946 . S
H102 C122 0.953 . S
H103 C123 0.945 . S
H104 C125 0.952 . S
H105 C126 0.949 . S
H106 C128 0.950 . S
H107 C129 0.948 . S
H108 C131 0.951 . S
H109 C96 0.947 . S
H110 C98 0.952 . S
H111 C99 0.950 . S
N112 C115 1.382 . S
N112 C117 1.363 . S
N113 C115 1.371 . S
N113 C116 1.372 . S
N114 C116 1.361 . S
N114 C117 1.377 . S
C115 N112 1.382 . S
C115 N113 1.371 . S
C115 C118 1.480 . S
C116 N113 1.372 . S
C116 N114 1.361 . S
C116 C124 1.457 . S
C117 N112 1.363 . S
C117 N114 1.377 . S
C117 C130 1.479 . S
C118 C115 1.480 . S
C118 C119 1.383 . S
C118 C123 1.385 . S
C119 H100 0.947 . S
C119 C118 1.383 . S
C119 C120 1.388 . S
C120 H101 0.946 . S
C120 C119 1.388 . S
C120 C121 1.384 . S
C121 C120 1.384 . S
C121 C122 1.377 . S
C122 H102 0.953 . S
C122 C121 1.377 . S
C122 C123 1.369 . S
C123 H103 0.945 . S
C123 C118 1.385 . S
C123 C122 1.369 . S
C124 C116 1.457 . S
C124 C125 1.372 . S
C124 C129 1.364 . S
C125 H104 0.952 . S
C125 C124 1.372 . S
C125 C126 1.389 . S
C126 H105 0.949 . S
C126 C125 1.389 . S
C126 C127 1.387 . S
C127 C126 1.387 . S
C127 C128 1.372 . S
C128 H106 0.950 . S
C128 C127 1.372 . S
C128 C129 1.379 . S
C129 H107 0.948 . S
C129 C124 1.364 . S
C129 C128 1.379 . S
C130 C99 1.383 . S
C130 C117 1.479 . S
C130 C131 1.398 . S
C131 C96 1.382 . S
C131 H108 0.951 . S
C131 C130 1.398 . S
C132 C133 1.384 . S
C132 H145 0.947 . S
C132 C167 1.382 . S
C133 C132 1.384 . S
C133 C134 1.378 . S
C134 C133 1.378 . S
C134 C135 1.378 . S
C134 H146 0.952 . S
C135 C134 1.378 . S
C135 H147 0.950 . S
C135 C166 1.383 . S
H136 C155 0.947 . S
H137 C156 0.946 . S
H138 C158 0.953 . S
H139 C159 0.945 . S
H140 C161 0.952 . S
H141 C162 0.949 1_554 S
H142 C164 0.950 1_554 S
H143 C165 0.948 . S
H144 C167 0.951 . S
H145 C132 0.947 . S
H146 C134 0.952 . S
H147 C135 0.950 . S
N148 C151 1.382 . S
N148 C153 1.363 1_455 S
N149 C151 1.371 . S
N149 C152 1.372 . S
N150 C152 1.361 1_655 S
N150 C153 1.377 . S
C151 N148 1.382 . S
C151 N149 1.371 . S
C151 C154 1.480 . S
C152 N149 1.372 . S
C152 N150 1.361 1_455 S
C152 C160 1.457 . S
C153 N148 1.363 1_655 S
C153 N150 1.377 . S
C153 C166 1.479 . S
C154 C151 1.480 . S
C154 C155 1.383 . S
C154 C159 1.385 . S
C155 H136 0.947 . S
C155 C154 1.383 . S
C155 C156 1.388 . S
C156 H137 0.946 . S
C156 C155 1.388 . S
C156 C157 1.384 . S
C157 C156 1.384 . S
C157 C158 1.377 . S
C158 H138 0.953 . S
C158 C157 1.377 . S
C158 C159 1.369 . S
C159 H139 0.945 . S
C159 C154 1.385 . S
C159 C158 1.369 . S
C160 C152 1.457 . S
C160 C161 1.372 . S
C160 C165 1.364 1_455 S
C161 H140 0.952 . S
C161 C160 1.372 . S
C161 C162 1.389 . S
C162 H141 0.949 1_556 S
C162 C161 1.389 . S
C162 C163 1.387 1_556 S
C163 C162 1.387 1_554 S
C163 C164 1.372 1_454 S
C164 H142 0.950 1_556 S
C164 C163 1.372 1_656 S
C164 C165 1.379 . S
C165 H143 0.948 . S
C165 C160 1.364 1_655 S
C165 C164 1.379 . S
C166 C135 1.383 . S
C166 C153 1.479 . S
C166 C167 1.398 . S
C167 C132 1.382 . S
C167 H144 0.951 . S
C167 C166 1.398 . S
C168 C169 1.384 . S
C168 H181 0.947 . S
C168 C203 1.382 . S
C169 C168 1.384 . S
C169 C170 1.378 . S
C170 C169 1.378 . S
C170 C171 1.378 . S
C170 H182 0.952 . S
C171 C170 1.378 . S
C171 H183 0.950 . S
C171 C202 1.383 . S
H172 C191 0.947 . S
H173 C192 0.946 . S
H174 C194 0.953 . S
H175 C195 0.945 . S
H176 C197 0.952 . S
H177 C198 0.949 . S
H178 C200 0.950 . S
H179 C201 0.948 . S
H180 C203 0.951 . S
H181 C168 0.947 . S
H182 C170 0.952 . S
H183 C171 0.950 . S
N184 C187 1.382 1_455 S
N184 C189 1.363 . S
N185 C187 1.371 . S
N185 C188 1.372 1_655 S
N186 C188 1.361 . S
N186 C189 1.377 . S
C187 N184 1.382 1_655 S
C187 N185 1.371 . S
C187 C190 1.480 . S
C188 N185 1.372 1_455 S
C188 N186 1.361 . S
C188 C196 1.457 . S
C189 N184 1.363 . S
C189 N186 1.377 . S
C189 C202 1.479 . S
C190 C187 1.480 . S
C190 C191 1.383 . S
C190 C195 1.385 . S
C191 H172 0.947 . S
C191 C190 1.383 . S
C191 C192 1.388 . S
C192 H173 0.946 . S
C192 C191 1.388 . S
C192 C193 1.384 . S
C193 C192 1.384 . S
C193 C194 1.377 . S
C194 H174 0.953 . S
C194 C193 1.377 . S
C194 C195 1.369 . S
C195 H175 0.945 . S
C195 C190 1.385 . S
C195 C194 1.369 . S
C196 C188 1.457 . S
C196 C197 1.372 1_455 S
C196 C201 1.364 . S
C197 H176 0.952 . S
C197 C196 1.372 1_655 S
C197 C198 1.389 . S
C198 H177 0.949 . S
C198 C197 1.389 . S
C198 C199 1.387 1_655 S
C199 C198 1.387 1_455 S
C199 C200 1.372 . S
C200 H178 0.950 . S
C200 C199 1.372 . S
C200 C201 1.379 . S
C201 H179 0.948 . S
C201 C196 1.364 . S
C201 C200 1.379 . S
C202 C171 1.383 . S
C202 C189 1.479 . S
C202 C203 1.398 . S
C203 C168 1.382 . S
C203 H180 0.951 . S
C203 C202 1.398 . S
C204 C205 1.384 . S
C204 H217 0.947 . S
C204 C239 1.382 . S
C205 C204 1.384 . S
C205 C206 1.378 . S
C206 C205 1.378 . S
C206 C207 1.378 . S
C206 H218 0.952 . S
C207 C206 1.378 . S
C207 H219 0.950 . S
C207 C238 1.383 . S
H208 C227 0.947 . S
H209 C228 0.946 . S
H210 C230 0.953 . S
H211 C231 0.945 . S
H212 C233 0.952 . S
H213 C234 0.949 . S
H214 C236 0.950 . S
H215 C237 0.948 . S
H216 C239 0.951 . S
H217 C204 0.947 . S
H218 C206 0.952 . S
H219 C207 0.950 . S
N220 C223 1.382 1_545 S
N220 C225 1.363 . S
N221 C223 1.371 . S
N221 C224 1.372 1_565 S
N222 C224 1.361 . S
N222 C225 1.377 . S
C223 N220 1.382 1_565 S
C223 N221 1.371 . S
C223 C226 1.480 . S
C224 N221 1.372 1_545 S
C224 N222 1.361 . S
C224 C232 1.457 . S
C225 N220 1.363 . S
C225 N222 1.377 . S
C225 C238 1.479 . S
C226 C223 1.480 . S
C226 C227 1.383 . S
C226 C231 1.385 . S
C227 H208 0.947 . S
C227 C226 1.383 . S
C227 C228 1.388 . S
C228 H209 0.946 . S
C228 C227 1.388 . S
C228 C229 1.384 . S
C229 C228 1.384 . S
C229 C230 1.377 . S
C230 H210 0.953 . S
C230 C229 1.377 . S
C230 C231 1.369 . S
C231 H211 0.945 . S
C231 C226 1.385 . S
C231 C230 1.369 . S
C232 C224 1.457 . S
C232 C233 1.372 1_545 S
C232 C237 1.364 . S
C233 H212 0.952 . S
C233 C232 1.372 1_565 S
C233 C234 1.389 . S
C234 H213 0.949 . S
C234 C233 1.389 . S
C234 C235 1.387 1_565 S
C235 C234 1.387 1_545 S
C235 C236 1.372 . S
C236 H214 0.950 . S
C236 C235 1.372 . S
C236 C237 1.379 . S
C237 H215 0.948 . S
C237 C232 1.364 . S
C237 C236 1.379 . S
C238 C207 1.383 . S
C238 C225 1.479 . S
C238 C239 1.398 . S
C239 C204 1.382 . S
C239 H216 0.951 . S
C239 C238 1.398 . S
C240 C241 1.384 . S
C240 H253 0.947 . S
C240 C275 1.382 . S
C241 C240 1.384 . S
C241 C242 1.378 . S
C242 C241 1.378 . S
C242 C243 1.378 . S
C242 H254 0.952 . S
C243 C242 1.378 . S
C243 H255 0.950 . S
C243 C274 1.383 . S
H244 C263 0.947 . S
H245 C264 0.946 . S
H246 C266 0.953 . S
H247 C267 0.945 . S
H248 C269 0.952 . S
H249 C270 0.949 1_556 S
H250 C272 0.950 1_556 S
H251 C273 0.948 . S
H252 C275 0.951 . S
H253 C240 0.947 . S
H254 C242 0.952 . S
H255 C243 0.950 . S
N256 C259 1.382 . S
N256 C261 1.363 . S
N257 C259 1.371 . S
N257 C260 1.372 . S
N258 C260 1.361 . S
N258 C261 1.377 . S
C259 N256 1.382 . S
C259 N257 1.371 . S
C259 C262 1.480 . S
C260 N257 1.372 . S
C260 N258 1.361 . S
C260 C268 1.457 . S
C261 N256 1.363 . S
C261 N258 1.377 . S
C261 C274 1.479 . S
C262 C259 1.480 . S
C262 C263 1.383 . S
C262 C267 1.385 . S
C263 H244 0.947 . S
C263 C262 1.383 . S
C263 C264 1.388 . S
C264 H245 0.946 . S
C264 C263 1.388 . S
C264 C265 1.384 . S
C265 C264 1.384 . S
C265 C266 1.377 . S
C266 H246 0.953 . S
C266 C265 1.377 . S
C266 C267 1.369 . S
C267 H247 0.945 . S
C267 C262 1.385 . S
C267 C266 1.369 . S
C268 C260 1.457 . S
C268 C269 1.372 . S
C268 C273 1.364 . S
C269 H248 0.952 . S
C269 C268 1.372 . S
C269 C270 1.389 . S
C270 H249 0.949 1_554 S
C270 C269 1.389 . S
C270 C271 1.387 1_554 S
C271 C270 1.387 1_556 S
C271 C272 1.372 1_556 S
C272 H250 0.950 1_554 S
C272 C271 1.372 1_554 S
C272 C273 1.379 . S
C273 H251 0.948 . S
C273 C268 1.364 . S
C273 C272 1.379 . S
C274 C243 1.383 . S
C274 C261 1.479 . S
C274 C275 1.398 . S
C275 C240 1.382 . S
C275 H252 0.951 . S
C275 C274 1.398 . S
C276 C277 1.369 . S
C276 C278 1.419 . S
C276 H280 0.930 . S
C277 C276 1.369 . S
C277 C286 1.429 . S
C278 C276 1.419 . S
C278 C279 1.363 . S
C278 H281 0.929 . S
C279 C278 1.363 . S
C279 C285 1.428 . S
H280 C276 0.930 . S
H281 C278 0.929 . S
S282 N283 1.613 . S
S282 N284 1.610 . S
N283 S282 1.613 . S
N283 C286 1.350 . S
N284 S282 1.610 . S
N284 C285 1.351 . S
C285 C279 1.428 . S
C285 N284 1.351 . S
C285 C286 1.434 . S
C286 C277 1.429 . S
C286 N283 1.350 . S
C286 C285 1.434 . S
C287 C288 1.369 . S
C287 C289 1.419 . S
C287 H291 0.930 . S
C288 C287 1.369 . S
C288 C297 1.429 . S
C289 C287 1.419 . S
C289 C290 1.363 . S
C289 H292 0.929 . S
C290 C289 1.363 . S
C290 C296 1.428 . S
H291 C287 0.930 . S
H292 C289 0.929 . S
S293 N294 1.613 . S
S293 N295 1.610 . S
N294 S293 1.613 . S
N294 C297 1.350 . S
N295 S293 1.610 . S
N295 C296 1.351 . S
C296 C290 1.428 . S
C296 N295 1.351 . S
C296 C297 1.434 . S
C297 C288 1.429 . S
C297 N294 1.350 . S
C297 C296 1.434 . S
C298 C299 1.369 . S
C298 C300 1.419 . S
C298 H302 0.930 . S
C299 C298 1.369 . S
C299 C308 1.429 . S
C300 C298 1.419 . S
C300 C301 1.363 . S
C300 H303 0.929 . S
C301 C300 1.363 . S
C301 C307 1.428 . S
H302 C298 0.930 . S
H303 C300 0.929 . S
S304 N305 1.613 . S
S304 N306 1.610 . S
N305 S304 1.613 . S
N305 C308 1.350 . S
N306 S304 1.610 . S
N306 C307 1.351 . S
C307 C301 1.428 . S
C307 N306 1.351 . S
C307 C308 1.434 . S
C308 C299 1.429 . S
C308 N305 1.350 . S
C308 C307 1.434 . S
C309 C310 1.369 . S
C309 C311 1.419 . S
C309 H313 0.930 . S
C310 C309 1.369 . S
C310 C319 1.429 . S
C311 C309 1.419 . S
C311 C312 1.363 . S
C311 H314 0.929 . S
C312 C311 1.363 . S
C312 C318 1.428 . S
H313 C309 0.930 . S
H314 C311 0.929 . S
S315 N316 1.613 . S
S315 N317 1.610 . S
N316 S315 1.613 . S
N316 C319 1.350 . S
N317 S315 1.610 . S
N317 C318 1.351 . S
C318 C312 1.428 . S
C318 N317 1.351 . S
C318 C319 1.434 . S
C319 C310 1.429 . S
C319 N316 1.350 . S
C319 C318 1.434 . S
C320 C321 1.369 . S
C320 C322 1.419 . S
C320 H324 0.930 . S
C321 C320 1.369 . S
C321 C330 1.429 . S
C322 C320 1.419 . S
C322 C323 1.363 . S
C322 H325 0.929 . S
C323 C322 1.363 . S
C323 C329 1.428 . S
H324 C320 0.930 . S
H325 C322 0.929 . S
S326 N327 1.613 . S
S326 N328 1.610 . S
N327 S326 1.613 . S
N327 C330 1.350 . S
N328 S326 1.610 . S
N328 C329 1.351 . S
C329 C323 1.428 . S
C329 N328 1.351 . S
C329 C330 1.434 . S
C330 C321 1.429 . S
C330 N327 1.350 . S
C330 C329 1.434 . S
C331 C332 1.369 . S
C331 C333 1.419 . S
C331 H335 0.930 . S
C332 C331 1.369 . S
C332 C341 1.429 . S
C333 C331 1.419 . S
C333 C334 1.363 . S
C333 H336 0.929 . S
C334 C333 1.363 . S
C334 C340 1.428 . S
H335 C331 0.930 . S
H336 C333 0.929 . S
S337 N338 1.613 . S
S337 N339 1.610 . S
N338 S337 1.613 . S
N338 C341 1.350 . S
N339 S337 1.610 . S
N339 C340 1.351 . S
C340 C334 1.428 . S
C340 N339 1.351 . S
C340 C341 1.434 . S
C341 C332 1.429 . S
C341 N338 1.350 . S
C341 C340 1.434 . S
C342 C343 1.369 . S
C342 C344 1.419 . S
C342 H346 0.930 . S
C343 C342 1.369 . S
C343 C352 1.429 . S
C344 C342 1.419 . S
C344 C345 1.363 . S
C344 H347 0.929 . S
C345 C344 1.363 . S
C345 C351 1.428 . S
H346 C342 0.930 . S
H347 C344 0.929 . S
S348 N349 1.613 . S
S348 N350 1.610 . S
N349 S348 1.613 . S
N349 C352 1.350 . S
N350 S348 1.610 . S
N350 C351 1.351 . S
C351 C345 1.428 . S
C351 N350 1.351 . S
C351 C352 1.434 . S
C352 C343 1.429 . S
C352 N349 1.350 . S
C352 C351 1.434 . S
C353 C354 1.369 . S
C353 C355 1.419 . S
C353 H357 0.930 . S
C354 C353 1.369 . S
C354 C363 1.429 . S
C355 C353 1.419 . S
C355 C356 1.363 . S
C355 H358 0.929 . S
C356 C355 1.363 . S
C356 C362 1.428 . S
H357 C353 0.930 . S
H358 C355 0.929 . S
S359 N360 1.613 . S
S359 N361 1.610 . S
N360 S359 1.613 . S
N360 C363 1.350 . S
N361 S359 1.610 . S
N361 C362 1.351 . S
C362 C356 1.428 . S
C362 N361 1.351 . S
C362 C363 1.434 . S
C363 C354 1.429 . S
C363 N360 1.350 . S
C363 C362 1.434 . S
C364 C365 1.369 . S
C364 C366 1.419 . S
C364 H368 0.930 . S
C365 C364 1.369 . S
C365 C374 1.429 . S
C366 C364 1.419 . S
C366 C367 1.363 . S
C366 H369 0.929 . S
C367 C366 1.363 . S
C367 C373 1.428 . S
H368 C364 0.930 . S
H369 C366 0.929 . S
S370 N371 1.613 . S
S370 N372 1.610 . S
N371 S370 1.613 . S
N371 C374 1.350 . S
N372 S370 1.610 . S
N372 C373 1.351 . S
C373 C367 1.428 . S
C373 N372 1.351 . S
C373 C374 1.434 . S
C374 C365 1.429 . S
C374 N371 1.350 . S
C374 C373 1.434 . S
C375 C376 1.369 . S
C375 C377 1.419 . S
C375 H379 0.930 . S
C376 C375 1.369 . S
C376 C385 1.429 . S
C377 C375 1.419 . S
C377 C378 1.363 . S
C377 H380 0.929 . S
C378 C377 1.363 . S
C378 C384 1.428 . S
H379 C375 0.930 . S
H380 C377 0.929 . S
S381 N382 1.613 . S
S381 N383 1.610 . S
N382 S381 1.613 . S
N382 C385 1.350 . S
N383 S381 1.610 . S
N383 C384 1.351 . S
C384 C378 1.428 . S
C384 N383 1.351 . S
C384 C385 1.434 . S
C385 C376 1.429 . S
C385 N382 1.350 . S
C385 C384 1.434 . S
C386 C387 1.369 . S
C386 C388 1.419 . S
C386 H390 0.930 . S
C387 C386 1.369 . S
C387 C396 1.429 . S
C388 C386 1.419 . S
C388 C389 1.363 . S
C388 H391 0.929 . S
C389 C388 1.363 . S
C389 C395 1.428 . S
H390 C386 0.930 . S
H391 C388 0.929 . S
S392 N393 1.613 . S
S392 N394 1.610 . S
N393 S392 1.613 . S
N393 C396 1.350 . S
N394 S392 1.610 . S
N394 C395 1.351 . S
C395 C389 1.428 . S
C395 N394 1.351 . S
C395 C396 1.434 . S
C396 C387 1.429 . S
C396 N393 1.350 . S
C396 C395 1.434 . S
C397 C398 1.369 . S
C397 C399 1.419 . S
C397 H401 0.930 . S
C398 C397 1.369 . S
C398 C407 1.429 . S
C399 C397 1.419 . S
C399 C400 1.363 . S
C399 H402 0.929 . S
C400 C399 1.363 . S
C400 C406 1.428 . S
H401 C397 0.930 . S
H402 C399 0.929 . S
S403 N404 1.613 . S
S403 N405 1.610 . S
N404 S403 1.613 . S
N404 C407 1.350 . S
N405 S403 1.610 . S
N405 C406 1.351 . S
C406 C400 1.428 . S
C406 N405 1.351 . S
C406 C407 1.434 . S
C407 C398 1.429 . S
C407 N404 1.350 . S
C407 C406 1.434 . S
C408 C409 1.369 . S
C408 C410 1.419 . S
C408 H412 0.930 1_455 S
C409 C408 1.369 . S
C409 C418 1.429 . S
C410 C408 1.419 . S
C410 C411 1.363 . S
C410 H413 0.929 . S
C411 C410 1.363 . S
C411 C417 1.428 . S
H412 C408 0.930 1_655 S
H413 C410 0.929 . S
S414 N415 1.613 . S
S414 N416 1.610 . S
N415 S414 1.613 . S
N415 C418 1.350 . S
N416 S414 1.610 . S
N416 C417 1.351 . S
C417 C411 1.428 . S
C417 N416 1.351 . S
C417 C418 1.434 . S
C418 C409 1.429 . S
C418 N415 1.350 . S
C418 C417 1.434 . S
C419 C420 1.369 . S
C419 C421 1.419 . S
C419 H423 0.930 . S
C420 C419 1.369 . S
C420 C429 1.429 . S
C421 C419 1.419 . S
C421 C422 1.363 . S
C421 H424 0.929 . S
C422 C421 1.363 . S
C422 C428 1.428 . S
H423 C419 0.930 . S
H424 C421 0.929 . S
S425 N426 1.613 . S
S425 N427 1.610 . S
N426 S425 1.613 . S
N426 C429 1.350 1_565 S
N427 S425 1.610 . S
N427 C428 1.351 1_565 S
C428 C422 1.428 . S
C428 N427 1.351 1_545 S
C428 C429 1.434 . S
C429 C420 1.429 . S
C429 N426 1.350 1_545 S
C429 C428 1.434 . S
C430 C431 1.369 . S
C430 C432 1.419 . S
C430 H434 0.930 . S
C431 C430 1.369 . S
C431 C440 1.429 . S
C432 C430 1.419 . S
C432 C433 1.363 . S
C432 H435 0.929 . S
C433 C432 1.363 . S
C433 C439 1.428 . S
H434 C430 0.930 . S
H435 C432 0.929 . S
S436 N437 1.613 . S
S436 N438 1.610 . S
N437 S436 1.613 . S
N437 C440 1.350 . S
N438 S436 1.610 . S
N438 C439 1.351 . S
C439 C433 1.428 . S
C439 N438 1.351 . S
C439 C440 1.434 . S
C440 C431 1.429 . S
C440 N437 1.350 . S
C440 C439 1.434 . S
C441 C442 1.369 . S
C441 C443 1.419 . S
C441 H445 0.930 . S
C442 C441 1.369 . S
C442 C451 1.429 1_545 S
C443 C441 1.419 . S
C443 C444 1.363 . S
C443 H446 0.929 . S
C444 C443 1.363 . S
C444 C450 1.428 1_545 S
H445 C441 0.930 . S
H446 C443 0.929 . S
S447 N448 1.613 . S
S447 N449 1.610 . S
N448 S447 1.613 . S
N448 C451 1.350 . S
N449 S447 1.610 . S
N449 C450 1.351 . S
C450 C444 1.428 1_565 S
C450 N449 1.351 . S
C450 C451 1.434 . S
C451 C442 1.429 1_565 S
C451 N448 1.350 . S
C451 C450 1.434 . S
C452 C453 1.369 . S
C452 C454 1.419 . S
C452 H456 0.930 . S
C453 C452 1.369 . S
C453 C462 1.429 . S
C454 C452 1.419 . S
C454 C455 1.363 . S
C454 H457 0.929 . S
C455 C454 1.363 . S
C455 C461 1.428 . S
H456 C452 0.930 . S
H457 C454 0.929 . S
S458 N459 1.613 . S
S458 N460 1.610 . S
N459 S458 1.613 . S
N459 C462 1.350 . S
N460 S458 1.610 . S
N460 C461 1.351 . S
C461 C455 1.428 . S
C461 N460 1.351 . S
C461 C462 1.434 . S
C462 C453 1.429 . S
C462 N459 1.350 . S
C462 C461 1.434 . S
C463 C464 1.369 1_455 S
C463 C465 1.419 . S
C463 H467 0.930 . S
C464 C463 1.369 1_655 S
C464 C473 1.429 . S
C465 C463 1.419 . S
C465 C466 1.360 1_455 S
C465 H468 0.929 . S
C466 C465 1.360 1_655 S
C466 C472 1.431 . S
H467 C463 0.930 . S
H468 C465 0.929 . S
S469 N470 1.613 . S
S469 N471 1.610 . S
N470 S469 1.613 . S
N470 C473 1.350 . S
N471 S469 1.610 . S
N471 C472 1.351 . S
C472 C466 1.431 . S
C472 N471 1.351 . S
C472 C473 1.434 . S
C473 C464 1.429 . S
C473 N470 1.350 . S
C473 C472 1.434 . S
C277 C2 1.456 . S
C279 C265 1.498 . S
C288 C22 1.436 . S
C290 C193 1.488 . S
C299 C44 1.494 . S
C301 C229 1.524 . S
C310 C4 1.621 . S
C312 C241 1.694 . S
C323 C169 1.709 . S
C321 C24 1.661 . S
C334 C205 1.655 . S
C332 C42 1.581 . S
C343 C32 1.426 . S
C345 C121 1.385 . S
C354 C49 1.370 . S
C356 C133 1.360 . S
C365 C9 1.358 . S
C367 C61 1.352 . S
C378 C97 1.378 . S
C376 C29 1.319 . S
C389 C157 1.347 . S
C387 C52 1.348 . S
C398 C12 1.335 . S
C400 C85 1.344 . S
C411 C163 1.437 . S
C409 C18 1.439 1_455 S
C420 C38 1.429 . S
C422 C91 1.435 . S
C431 C58 1.426 . S
C433 C127 1.448 . S
C444 C235 1.507 . S
C442 C39 1.496 . S
C455 C271 1.498 . S
C453 C59 1.479 . S
C464 C19 1.481 1_655 S
C466 C199 1.498 1_655 S
