# Generated by pormake.
# Topology pts, (4,4)-cn, num edge types: 1
# Building blocks:
#     Node 0, Type 0, BuildingBlock: AZAVOO_clean_linker_0, # of connection points: 4
#     Node 1, Type 0, BuildingBlock: AZAVOO_clean_linker_0, # of connection points: 4
#     Node 2, Type 1, BuildingBlock: AZAVOO_clean_sbu_0, # of connection points: 4
#     Node 3, Type 1, BuildingBlock: AZAVOO_clean_sbu_0, # of connection points: 4
#     Edge 4, Type (0, 1), BuildingBlock: TEMPAE_clean_linker_10, # of connection points: 2
#     Edge 5, Type (0, 1), BuildingBlock: TEMPAE_clean_linker_10, # of connection points: 2
#     Edge 6, Type (0, 1), BuildingBlock: TEMPAE_clean_linker_10, # of connection points: 2
#     Edge 7, Type (0, 1), BuildingBlock: TEMPAE_clean_linker_10, # of connection points: 2
#     Edge 8, Type (0, 1), BuildingBlock: TEMPAE_clean_linker_10, # of connection points: 2
#     Edge 9, Type (0, 1), BuildingBlock: TEMPAE_clean_linker_10, # of connection points: 2
#     Edge 10, Type (0, 1), BuildingBlock: TEMPAE_clean_linker_10, # of connection points: 2
#     Edge 11, Type (0, 1), BuildingBlock: TEMPAE_clean_linker_10, # of connection points: 2
# Relax obj value: 0.120
# Max RMSD: 0.230
# Mean RMSD: 0.159
data_MOF--net-pts--node1-AZAVOO_clean_sbu_0--node2-AZAVOO_clean_linker_0--edge1-TEMPAE_clean_linker_10
_symmetry_space_group_name_H-M    P1
_symmetry_Int_Tables_number       1
_symmetry_cell_setting            triclinic
loop_
_symmetry_equiv_pos_as_xyz
'x, y, z'
_cell_length_a     26.520234
_cell_length_b     27.267767
_cell_length_c     46.884061
_cell_angle_alpha  92.34087
_cell_angle_beta   98.209992
_cell_angle_gamma 89.554623
loop_
_atom_site_label
_atom_site_type_symbol
_atom_site_fract_x
_atom_site_fract_y
_atom_site_fract_z
_atom_type_partial_charge
H0 H 0.39977 0.04614 0.80747 0.0
H1 H 0.89455 0.95572 0.03243 0.0
H2 H 0.45185 0.09357 0.96487 0.0
H3 H 0.37037 0.09555 0.93324 0.0
H4 H 0.3608 0.93756 0.93526 0.0
H5 H 0.44119 0.93637 0.96789 0.0
H6 H 0.52145 0.08227 0.92052 0.0
H7 H 0.47345 0.08166 0.87185 0.0
H8 H 0.45559 0.92437 0.87389 0.0
H9 H 0.50375 0.92561 0.92255 0.0
H10 H 0.64239 0.07909 0.94486 0.0
H11 H 0.69659 0.07833 0.90687 0.0
H12 H 0.67014 0.92273 0.89114 0.0
H13 H 0.61587 0.92389 0.92963 0.0
H14 H 0.67674 0.08228 0.01316 0.0
H15 H 0.76863 0.07984 0.02916 0.0
H16 H 0.7705 0.92558 0.00387 0.0
H17 H 0.67839 0.92838 0.98842 0.0
H18 H 0.59375 0.09217 0.05089 0.0
H19 H 0.65559 0.10189 0.0948 0.0
H20 H 0.69383 0.9478 0.08764 0.0
H21 H 0.63039 0.93824 0.04485 0.0
H22 H 0.48041 0.09961 0.01952 0.0
H23 H 0.42202 0.11261 0.05512 0.0
H24 H 0.44795 0.96327 0.08133 0.0
H25 H 0.5051 0.9503 0.04498 0.0
O26 O 0.42027 0.0453 0.82626 0.0
O27 O 0.41091 0.96469 0.82875 0.0
O28 O 0.85515 0.0371 0.03878 0.0
O29 O 0.85835 0.95789 0.02583 0.0
C30 C 0.50799 0.01189 0.97755 0.0
C31 C 0.53939 0.00551 0.95568 0.0
C32 C 0.59259 0.00308 0.96297 0.0
C33 C 0.61461 0.00628 0.99217 0.0
C34 C 0.58319 0.01171 0.01419 0.0
C35 C 0.52976 0.01559 0.00684 0.0
C36 C 0.45225 0.01485 0.96871 0.0
C37 C 0.43071 0.05974 0.95978 0.0
C38 C 0.38467 0.06064 0.94123 0.0
C39 C 0.35986 0.01657 0.93108 0.0
C40 C 0.37882 0.97217 0.94266 0.0
C41 C 0.42465 0.97139 0.96148 0.0
C42 C 0.51606 0.00399 0.92492 0.0
C43 C 0.50782 0.04766 0.91019 0.0
C44 C 0.48015 0.04721 0.88248 0.0
C45 C 0.4604 0.003 0.86904 0.0
C46 C 0.47013 0.95907 0.88364 0.0
C47 C 0.49785 0.95959 0.91133 0.0
C48 C 0.62539 0.0016 0.93991 0.0
C49 C 0.64825 0.04489 0.93318 0.0
C50 C 0.67881 0.04439 0.91134 0.0
C51 C 0.68711 0.00052 0.89582 0.0
C52 C 0.66438 0.95699 0.90276 0.0
C53 C 0.63342 0.95761 0.9246 0.0
C54 C 0.67096 0.00546 0.99976 0.0
C55 C 0.69713 0.04804 0.01103 0.0
C56 C 0.74959 0.04654 0.02015 0.0
C57 C 0.7769 0.00244 0.01789 0.0
C58 C 0.75063 0.96009 0.00597 0.0
C59 C 0.69809 0.96162 0.99699 0.0
C60 C 0.60775 0.01454 0.04468 0.0
C61 C 0.61392 0.06018 0.05961 0.0
C62 C 0.64998 0.06579 0.08437 0.0
C63 C 0.6806 0.02588 0.09443 0.0
C64 C 0.6709 0.97933 0.08074 0.0
C65 C 0.63451 0.97369 0.05624 0.0
C66 C 0.4966 0.0239 0.02953 0.0
C67 C 0.47328 0.06969 0.0329 0.0
C68 C 0.44025 0.07715 0.0534 0.0
C69 C 0.43004 0.03891 0.071 0.0
C70 C 0.45427 0.99325 0.06781 0.0
C71 C 0.48725 0.98584 0.04725 0.0
C72 C 0.42912 0.00295 0.84013 0.0
C73 C 0.83246 0.00041 0.02812 0.0
H74 H 0.09212 0.51909 0.32678 0.0
H75 H 0.05709 0.88851 0.58417 0.0
H76 H 0.00921 0.4824 0.46817 0.0
H77 H 0.02293 0.41739 0.43262 0.0
H78 H 0.18103 0.40831 0.46987 0.0
H79 H 0.16725 0.47446 0.5053 0.0
H80 H 0.01774 0.57034 0.43575 0.0
H81 H 0.03419 0.55143 0.38643 0.0
H82 H 0.19478 0.5362 0.41776 0.0
H83 H 0.17777 0.55566 0.46695 0.0
H84 H 0.99665 0.66238 0.46366 0.0
H85 H 0.99854 0.71647 0.42325 0.0
H86 H 0.16274 0.72221 0.44187 0.0
H87 H 0.16049 0.66785 0.48206 0.0
H88 H 0.97567 0.66577 0.53479 0.0
H89 H 0.95768 0.74759 0.55436 0.0
H90 H 0.1156 0.78741 0.55586 0.0
H91 H 0.13317 0.70523 0.53658 0.0
H92 H 0.97995 0.56496 0.56474 0.0
H93 H 0.9543 0.59819 0.60986 0.0
H94 H 0.0999 0.67155 0.63002 0.0
H95 H 0.12568 0.63615 0.58598 0.0
H96 H 0.00475 0.46548 0.52403 0.0
H97 H 0.00398 0.39346 0.55297 0.0
H98 H 0.13326 0.45108 0.6112 0.0
H99 H 0.13612 0.52111 0.58057 0.0
O100 O 0.08665 0.52765 0.34634 0.0
O101 O 0.16876 0.51973 0.36358 0.0
O102 O 0.98139 0.83533 0.57235 0.0
O103 O 0.06307 0.85609 0.57613 0.0
C104 C 0.08264 0.53275 0.50255 0.0
C105 C 0.08601 0.57301 0.48496 0.0
C106 C 0.07784 0.62097 0.49552 0.0
C107 C 0.0669 0.62912 0.52384 0.0
C108 C 0.06537 0.58896 0.54201 0.0
C109 C 0.07293 0.54054 0.53127 0.0
C110 C 0.08717 0.4829 0.48937 0.0
C111 C 0.04629 0.46499 0.46947 0.0
C112 C 0.05435 0.42854 0.44893 0.0
C113 C 0.10323 0.4089 0.44829 0.0
C114 C 0.14311 0.42328 0.46997 0.0
C115 C 0.13515 0.46044 0.49039 0.0
C116 C 0.0966 0.56449 0.45483 0.0
C117 C 0.0565 0.56348 0.43183 0.0
C118 C 0.06599 0.55244 0.40372 0.0
C119 C 0.11579 0.54217 0.39816 0.0
C120 C 0.15598 0.54389 0.42129 0.0
C121 C 0.14643 0.55507 0.44938 0.0
C122 C 0.0784 0.66182 0.47583 0.0
C123 C 0.03284 0.67648 0.45944 0.0
C124 C 0.03404 0.70667 0.43622 0.0
C125 C 0.08082 0.72293 0.42936 0.0
C126 C 0.12622 0.71026 0.44682 0.0
C127 C 0.12501 0.67962 0.46982 0.0
C128 C 0.05568 0.67966 0.53425 0.0
C129 C 0.00626 0.6923 0.53927 0.0
C130 C 0.99611 0.73903 0.55045 0.0
C131 C 0.03524 0.77405 0.55669 0.0
C132 C 0.08462 0.76133 0.55132 0.0
C133 C 0.09472 0.71453 0.54017 0.0
C134 C 0.05447 0.59861 0.57197 0.0
C135 C 0.00689 0.58667 0.57953 0.0
C136 C 0.99213 0.60618 0.60518 0.0
C137 C 0.0246 0.63829 0.62353 0.0
C138 C 0.07389 0.6466 0.61684 0.0
C139 C 0.08873 0.62667 0.59146 0.0
C140 C 0.07089 0.49821 0.54994 0.0
C141 C 0.0333 0.4622 0.54282 0.0
C142 C 0.03248 0.42137 0.55972 0.0
C143 C 0.06855 0.41627 0.58456 0.0
C144 C 0.10547 0.45319 0.59198 0.0
C145 C 0.10685 0.49356 0.57469 0.0
C146 C 0.12555 0.52923 0.36837 0.0
C147 C 0.02474 0.8236 0.56883 0.0
Mg148 Mg 0.12183 0.04652 0.2626 0.0
O149 O 0.0409 0.04945 0.23635 0.0
O150 O 0.98641 0.04266 0.2684 0.0
Mg151 Mg 0.0295 0.03158 0.3132 0.0
C152 C 0.99553 0.04814 0.2427 0.0
C153 C 0.20706 0.05866 0.22825 0.0
O154 O 0.22575 0.03695 0.252 0.0
O155 O 0.11306 0.12491 0.28175 0.0
O156 O 0.05978 0.10915 0.31317 0.0
O157 O 0.12435 0.96415 0.25721 0.0
O158 O 0.09357 0.00472 0.29259 0.0
C159 C 0.08736 0.13874 0.30178 0.0
C160 C 0.10207 0.9634 0.27999 0.0
O161 O 0.16048 0.07168 0.22516 0.0
Mg162 Mg 0.97444 0.04611 0.72952 0.0
O163 O 0.05004 0.03045 0.75678 0.0
O164 O 0.10236 0.99041 0.73066 0.0
Mg165 Mg 0.05766 0.97982 0.68502 0.0
C166 C 0.09276 0.01019 0.75446 0.0
C167 C 0.94402 0.11636 0.78609 0.0
O168 O 0.95129 0.16067 0.79803 0.0
O169 O 0.01174 0.10455 0.70664 0.0
O170 O 0.05875 0.06286 0.67788 0.0
O171 O 0.94525 0.9712 0.7396 0.0
O172 O 0.98427 0.9858 0.70249 0.0
C173 C 0.04134 0.10314 0.68745 0.0
C174 C 0.96417 0.95451 0.71712 0.0
O175 O 0.96247 0.10658 0.76297 0.0
C176 C 0.35943 0.00967 0.09642 0.0
C177 C 0.39422 0.04648 0.09255 0.0
C178 C 0.3268 0.01535 0.11741 0.0
C179 C 0.3288 0.05899 0.13498 0.0
C180 C 0.36272 0.09693 0.13063 0.0
C181 C 0.39508 0.09019 0.10952 0.0
C182 C 0.29116 0.97402 0.12133 0.0
C183 C 0.36598 0.14401 0.14889 0.0
C184 C 0.2188 0.08167 0.17813 0.0
C185 C 0.23889 0.06313 0.20488 0.0
C186 C 0.24806 0.08194 0.15532 0.0
C187 C 0.29839 0.06303 0.15938 0.0
C188 C 0.31925 0.04565 0.18658 0.0
C189 C 0.28937 0.04604 0.20895 0.0
C190 C 0.22469 0.10122 0.12669 0.0
C191 C 0.37273 0.02514 0.19185 0.0
H192 H 0.35778 0.97621 0.08302 0.0
H193 H 0.42209 0.11869 0.10685 0.0
H194 H 0.30173 0.959 0.14302 0.0
H195 H 0.2515 0.98787 0.12009 0.0
H196 H 0.29216 0.94367 0.10488 0.0
H197 H 0.39096 0.17157 0.14114 0.0
H198 H 0.32749 0.16021 0.14896 0.0
H199 H 0.38125 0.13617 0.17153 0.0
H200 H 0.17989 0.09505 0.1748 0.0
H201 H 0.30541 0.03181 0.22955 0.0
H202 H 0.22074 0.07086 0.11004 0.0
H203 H 0.24992 0.12918 0.11961 0.0
H204 H 0.18655 0.11784 0.12761 0.0
H205 H 0.37564 0.99204 0.1776 0.0
H206 H 0.38401 0.01493 0.21457 0.0
H207 H 0.40037 0.0524 0.18646 0.0
C208 C 0.11364 0.35082 0.61494 0.0
C209 C 0.06792 0.37221 0.60227 0.0
C210 C 0.11343 0.30821 0.63074 0.0
C211 C 0.0665 0.28574 0.63332 0.0
C212 C 0.02025 0.30731 0.62089 0.0
C213 C 0.02151 0.35059 0.6059 0.0
C214 C 0.16346 0.28679 0.64424 0.0
C215 C 0.9694 0.28409 0.6229 0.0
C216 C 0.06205 0.14947 0.64586 0.0
C217 C 0.05306 0.14951 0.6746 0.0
C218 C 0.06762 0.19362 0.63232 0.0
C219 C 0.06544 0.23874 0.64815 0.0
C220 C 0.05897 0.23887 0.6776 0.0
C221 C 0.05213 0.19422 0.69039 0.0
C222 C 0.07344 0.19203 0.60071 0.0
C223 C 0.05789 0.2862 0.69538 0.0
H224 H 0.14977 0.3667 0.61202 0.0
H225 H 0.98593 0.36735 0.59687 0.0
H226 H 0.16256 0.28076 0.66743 0.0
H227 H 0.16973 0.25053 0.63371 0.0
H228 H 0.19628 0.31086 0.64227 0.0
H229 H 0.93695 0.30533 0.61184 0.0
H230 H 0.96815 0.24631 0.61307 0.0
H231 H 0.96424 0.28111 0.64582 0.0
H232 H 0.06245 0.11498 0.63354 0.0
H233 H 0.04566 0.1943 0.71271 0.0
H234 H 0.10781 0.21267 0.59733 0.0
H235 H 0.0401 0.21002 0.58827 0.0
H236 H 0.07647 0.15391 0.5918 0.0
H237 H 0.09142 0.30909 0.69316 0.0
H238 H 0.05769 0.27972 0.71861 0.0
H239 H 0.02335 0.30758 0.68741 0.0
C240 C 0.7563 0.07512 0.11747 0.0
C241 C 0.72551 0.03334 0.11716 0.0
C242 C 0.80094 0.08103 0.13735 0.0
C243 C 0.81575 0.04387 0.15706 0.0
C244 C 0.7848 0.00177 0.157 0.0
C245 C 0.73987 -0.00275 0.13726 0.0
C246 C 0.83252 0.1268 0.13705 0.0
C247 C 0.79947 0.96118 0.17758 0.0
C248 C 0.95401 0.03323 0.19164 0.0
C249 C 0.95132 0.05152 0.21975 0.0
C250 C 0.9103 0.03132 0.17075 0.0
C251 C 0.86324 0.0491 0.17807 0.0
C252 C 0.861 0.06977 0.20603 0.0
C253 C 0.90491 0.07024 0.2266 0.0
C254 C 0.914 0.00842 0.14125 0.0
C255 C 0.8119 0.09023 0.21448 0.0
H256 H 0.74628 0.10276 0.10167 0.0
H257 H 0.71611 0.96515 0.13746 0.0
H258 H 0.83814 0.14537 0.15877 0.0
H259 H 0.87078 0.11689 0.13167 0.0
H260 H 0.8146 0.15319 0.12118 0.0
H261 H 0.77193 0.93027 0.17428 0.0
H262 H 0.83779 0.94679 0.17479 0.0
H263 H 0.80166 0.97571 0.20017 0.0
H264 H 0.98975 0.01847 0.18632 0.0
H265 H 0.90279 0.08493 0.24824 0.0
H266 H 0.89886 0.03393 0.12425 0.0
H267 H 0.89033 0.97473 0.1378 0.0
H268 H 0.95378 -0.00149 0.13852 0.0
H269 H 0.7951 0.11715 0.19868 0.0
H270 H 0.8175 0.10849 0.23632 0.0
H271 H 0.78384 0.0602 0.21423 0.0
C272 C 0.95622 0.68951 0.64202 0.0
C273 C 0.00534 0.66904 0.64677 0.0
C274 C 0.94238 0.72897 0.65948 0.0
C275 C 0.9789 0.74923 0.68172 0.0
C276 C 0.02608 0.72488 0.68887 0.0
C277 C 0.0385 0.68469 0.67149 0.0
C278 C 0.89095 0.75273 0.65169 0.0
C279 C 0.06616 0.74492 0.71248 0.0
C280 C 0.98497 0.88766 0.68314 0.0
C281 C 0.96612 0.90152 0.70876 0.0
C282 C 0.9897 0.83841 0.67457 0.0
C283 C 0.97364 0.80141 0.69155 0.0
C284 C 0.95315 0.81481 0.71711 0.0
C285 C 0.94986 0.8649 0.72555 0.0
C286 C 0.01218 0.82615 0.64722 0.0
C287 C 0.93418 0.77641 0.73524 0.0
H288 H 0.92991 0.67788 0.62316 0.0
H289 H 0.07585 0.66798 0.67603 0.0
H290 H 0.87558 0.76677 0.67126 0.0
H291 H 0.89487 0.78434 0.63799 0.0
H292 H 0.86312 0.72665 0.63943 0.0
H293 H 0.09557 0.71691 0.71934 0.0
H294 H 0.0853 0.77653 0.7044 0.0
H295 H 0.0489 0.75831 0.73154 0.0
H296 H 0.99619 0.91544 0.66947 0.0
H297 H 0.9346 0.87533 0.74518 0.0
H298 H 0.98371 0.80639 0.63131 0.0
H299 H 0.04565 0.80159 0.6519 0.0
H300 H 0.02449 0.85934 0.63712 0.0
H301 H 0.9 0.7583 0.72299 0.0
H302 H 0.92392 0.79237 0.75583 0.0
H303 H 0.9634 0.74749 0.74015 0.0
C304 C 0.27688 0.98467 0.90436 0.0
C305 C 0.31875 0.01627 0.90598 0.0
C306 C 0.23992 0.98197 0.87971 0.0
C307 C 0.24481 0.01189 0.85626 0.0
C308 C 0.28678 0.04405 0.85784 0.0
C309 C 0.32339 0.04557 0.88255 0.0
C310 C 0.19581 0.94697 0.87867 0.0
C311 C 0.29319 0.07674 0.83336 0.0
C312 C 0.17457 0.97908 0.78152 0.0
C313 C 0.13196 0.01013 0.78037 0.0
C314 C 0.21128 0.97865 0.80629 0.0
C315 C 0.20549 0.01045 0.83027 0.0
C316 C 0.16272 0.04196 0.82918 0.0
C317 C 0.12638 0.04122 0.80435 0.0
C318 C 0.25624 0.9442 0.80684 0.0
C319 C 0.15566 0.07699 0.85412 0.0
H320 H 0.27303 0.962 0.92238 0.0
H321 H 0.35637 0.06905 0.88322 0.0
H322 H 0.15936 0.96765 0.87614 0.0
H323 H 0.19473 0.92114 0.85969 0.0
H324 H 0.1982 0.92541 0.89842 0.0
H325 H 0.32708 0.10091 0.83844 0.0
H326 H 0.29719 0.05397 0.81366 0.0
H327 H 0.25888 0.10008 0.8283 0.0
H328 H 0.179 0.95476 0.76317 0.0
H329 H 0.09375 0.06556 0.80364 0.0
H330 H 0.25803 0.92023 0.82553 0.0
H331 H 0.29217 0.96553 0.80959 0.0
H332 H 0.25432 0.92067 0.78681 0.0
H333 H 0.1548 0.0564 0.87396 0.0
H334 H 0.11999 0.09879 0.84993 0.0
H335 H 0.18837 0.10267 0.85844 0.0
C336 C 0.0997 0.39178 0.39552 0.0
C337 C 0.11256 0.37613 0.42375 0.0
C338 C 0.10225 0.35946 0.37173 0.0
C339 C 0.1169 0.31012 0.37643 0.0
C340 C 0.13307 0.29511 0.40492 0.0
C341 C 0.13107 0.32855 0.4283 0.0
C342 C 0.08602 0.37731 0.34175 0.0
C343 C 0.14875 0.24275 0.41086 0.0
C344 C 0.05213 0.20784 0.32862 0.0
C345 C 0.09206 0.18906 0.31478 0.0
C346 C 0.05908 0.24901 0.34749 0.0
C347 C 0.10713 0.27242 0.35249 0.0
C348 C 0.14627 0.25642 0.33661 0.0
C349 C 0.1383 0.21463 0.31787 0.0
C350 C 0.01604 0.26504 0.36372 0.0
C351 C 0.19755 0.28128 0.34083 0.0
H352 H 0.08619 0.42902 0.3921 0.0
H353 H 0.14122 0.31673 0.45019 0.0
H354 H 0.11182 0.36288 0.32672 0.0
H355 H 0.04712 0.36371 0.33356 0.0
H356 H 0.08549 0.41803 0.34145 0.0
H357 H 0.16524 0.23828 0.43376 0.0
H358 H 0.115 0.21847 0.40572 0.0
H359 H 0.17713 0.23019 0.39691 0.0
H360 H 0.01605 0.18853 0.32595 0.0
H361 H 0.1693 0.20019 0.30724 0.0
H362 H 0.0086 0.30488 0.36156 0.0
H363 H 0.02687 0.25862 0.38703 0.0
H364 H 0.98014 0.24485 0.35596 0.0
H365 H 0.19319 0.32178 0.34203 0.0
H366 H 0.2199 0.27098 0.32317 0.0
H367 H 0.21958 0.27028 0.36152 0.0
C368 C 0.71626 0.03895 0.85372 0.0
C369 C 0.72067 0.00088 0.87309 0.0
C370 C 0.7533 0.04588 0.83579 0.0
C371 C 0.79571 0.01373 0.83716 0.0
C372 C 0.79765 0.97228 0.85453 0.0
C373 C 0.76009 0.96642 0.87247 0.0
C374 C 0.74931 0.0903 0.81736 0.0
C375 C 0.84144 0.93642 0.85598 0.0
C376 C 0.88295 0.04588 0.78321 0.0
C377 C 0.91427 0.08082 0.79968 0.0
C378 C 0.84662 0.01979 0.79571 0.0
C379 C 0.8416 0.02954 0.82511 0.0
C380 C 0.87643 0.06154 0.84225 0.0
C381 C 0.91228 0.0867 0.82931 0.0
C382 C 0.81124 0.98488 0.7769 0.0
C383 C 0.87301 0.07273 0.87377 0.0
H384 H 0.68503 0.06488 0.85362 0.0
H385 H 0.76347 0.93668 0.88728 0.0
H386 H 0.77885 0.11744 0.82652 0.0
H387 H 0.75625 0.0799 0.79514 0.0
H388 H 0.71141 0.10835 0.81622 0.0
H389 H 0.83149 0.90091 0.86455 0.0
H390 H 0.85321 0.92948 0.83439 0.0
H391 H 0.87465 0.95204 0.87048 0.0
H392 H 0.88435 0.04139 0.76027 0.0
H393 H 0.93713 0.11314 0.84218 0.0
H394 H 0.77521 0.00424 0.76921 0.0
H395 H 0.80167 0.95302 0.78908 0.0
H396 H 0.82822 0.97129 0.75771 0.0
H397 H 0.83754 0.09368 0.87578 0.0
H398 H 0.90589 0.09472 0.8846 0.0
H399 H 0.87131 0.0383 0.88537 0.0
C400 C 0.11107 0.79498 0.40558 0.0
C401 C 0.08244 0.7518 0.40352 0.0
C402 C 0.11212 0.82336 0.38145 0.0
C403 C 0.08426 0.80779 0.35458 0.0
C404 C 0.05655 0.76334 0.35217 0.0
C405 C 0.05566 0.73598 0.37679 0.0
C406 C 0.14184 0.8708 0.38494 0.0
C407 C 0.02716 0.74524 0.32378 0.0
C408 C 0.04874 0.91574 0.30826 0.0
C409 C 0.08997 0.91727 0.29274 0.0
C410 C 0.04407 0.8778 0.3269 0.0
C411 C 0.08146 0.84038 0.32983 0.0
C412 C 0.12015 0.83896 0.31187 0.0
C413 C 0.12396 0.87764 0.29341 0.0
C414 C 0.00179 0.88037 0.34536 0.0
C415 C 0.1601 0.79906 0.31397 0.0
H416 H 0.13166 0.80719 0.42628 0.0
H417 H 0.03421 0.70204 0.37515 0.0
H418 H 0.16959 0.87096 0.36935 0.0
H419 H 0.11549 0.9022 0.38024 0.0
H420 H 0.16286 0.87671 0.40706 0.0
H421 H 0.01211 0.70756 0.32488 0.0
H422 H 0.99463 0.77023 0.31747 0.0
H423 H 0.05172 0.74543 0.30651 0.0
H424 H 0.02136 0.94543 0.30691 0.0
H425 H 0.15575 0.87868 0.28124 0.0
H426 H 0.01804 0.89036 0.36798 0.0
H427 H 0.98306 0.84416 0.34536 0.0
H428 H 0.97241 0.90808 0.33791 0.0
H429 H 0.18792 0.80597 0.33373 0.0
H430 H 0.18111 0.79783 0.29508 0.0
H431 H 0.14267 0.76263 0.31566 0.0
loop_
_geom_bond_atom_site_label_1
_geom_bond_atom_site_label_2
_geom_bond_distance
_geom_bond_site_symmetry_2
_ccdc_geom_bond_type
H0 O26 0.856 . S
H1 O29 0.854 . S
H2 C37 0.930 . S
H3 C38 0.930 . S
H4 C40 0.930 1_565 S
H5 C41 0.930 1_565 S
H6 C43 0.931 . S
H7 C44 0.930 . S
H8 C46 0.930 . S
H9 C47 0.929 . S
H10 C49 0.930 . S
H11 C50 0.931 . S
H12 C52 0.930 . S
H13 C53 0.929 . S
H14 C55 0.931 . S
H15 C56 0.930 . S
H16 C58 0.930 . S
H17 C59 0.931 1_556 S
H18 C61 0.930 . S
H19 C62 0.929 . S
H20 C64 0.931 1_565 S
H21 C65 0.930 1_565 S
H22 C67 0.929 . S
H23 C68 0.931 . S
H24 C70 0.930 . S
H25 C71 0.929 . S
O26 H0 0.856 . S
O26 C72 1.300 . S
O27 C72 1.209 1_565 S
O28 C73 1.199 . S
O29 H1 0.854 . S
O29 C73 1.297 1_565 S
C30 C31 1.404 . S
C30 C35 1.397 1_556 S
C30 C36 1.492 . S
C31 C30 1.404 . S
C31 C32 1.396 . S
C31 C42 1.492 . S
C32 C31 1.396 . S
C32 C33 1.397 . S
C32 C48 1.509 . S
C33 C32 1.397 . S
C33 C34 1.412 1_556 S
C33 C54 1.485 1_556 S
C34 C33 1.412 1_554 S
C34 C35 1.388 . S
C34 C60 1.490 . S
C35 C30 1.397 1_554 S
C35 C34 1.388 . S
C35 C66 1.519 . S
C36 C30 1.492 . S
C36 C37 1.363 . S
C36 C41 1.390 . S
C37 H2 0.930 . S
C37 C36 1.363 . S
C37 C38 1.372 . S
C38 H3 0.930 . S
C38 C37 1.372 . S
C38 C39 1.383 . S
C39 C38 1.383 . S
C39 C40 1.395 . S
C40 H4 0.930 1_545 S
C40 C39 1.395 . S
C40 C41 1.362 . S
C41 H5 0.930 1_545 S
C41 C36 1.390 . S
C41 C40 1.362 . S
C42 C31 1.492 . S
C42 C43 1.377 . S
C42 C47 1.397 1_545 S
C43 H6 0.931 . S
C43 C42 1.377 . S
C43 C44 1.376 . S
C44 H7 0.930 . S
C44 C43 1.376 . S
C44 C45 1.376 . S
C45 C44 1.376 . S
C45 C46 1.378 1_545 S
C45 C72 1.486 . S
C46 H8 0.930 . S
C46 C45 1.378 1_565 S
C46 C47 1.376 . S
C47 H9 0.929 . S
C47 C42 1.397 1_565 S
C47 C46 1.376 . S
C48 C32 1.509 . S
C48 C49 1.391 . S
C48 C53 1.386 1_545 S
C49 H10 0.930 . S
C49 C48 1.391 . S
C49 C50 1.375 . S
C50 H11 0.931 . S
C50 C49 1.375 . S
C50 C51 1.375 . S
C51 C50 1.375 . S
C51 C52 1.361 1_545 S
C52 H12 0.930 . S
C52 C51 1.361 1_565 S
C52 C53 1.399 . S
C53 H13 0.929 . S
C53 C48 1.386 1_565 S
C53 C52 1.399 . S
C54 C33 1.485 1_554 S
C54 C55 1.394 . S
C54 C59 1.360 1_545 S
C55 H14 0.931 . S
C55 C54 1.394 . S
C55 C56 1.372 . S
C56 H15 0.930 . S
C56 C55 1.372 . S
C56 C57 1.397 . S
C57 C56 1.397 . S
C57 C58 1.390 1_545 S
C57 C73 1.476 . S
C58 H16 0.930 . S
C58 C57 1.390 1_565 S
C58 C59 1.366 . S
C59 H17 0.931 1_554 S
C59 C54 1.360 1_565 S
C59 C58 1.366 . S
C60 C34 1.490 . S
C60 C61 1.380 . S
C60 C65 1.386 . S
C61 H18 0.930 . S
C61 C60 1.380 . S
C61 C62 1.381 . S
C62 H19 0.929 . S
C62 C61 1.381 . S
C62 C63 1.371 . S
C63 C62 1.371 . S
C63 C64 1.380 . S
C64 H20 0.931 1_545 S
C64 C63 1.380 . S
C64 C65 1.387 . S
C65 H21 0.930 1_545 S
C65 C60 1.386 . S
C65 C64 1.387 . S
C66 C35 1.519 . S
C66 C67 1.377 . S
C66 C71 1.361 1_545 S
C67 H22 0.929 . S
C67 C66 1.377 . S
C67 C68 1.386 . S
C68 H23 0.931 . S
C68 C67 1.386 . S
C68 C69 1.363 . S
C69 C68 1.363 . S
C69 C70 1.385 1_545 S
C70 H24 0.930 . S
C70 C69 1.385 1_565 S
C70 C71 1.396 . S
C71 H25 0.929 . S
C71 C66 1.361 1_565 S
C71 C70 1.396 . S
C72 O26 1.300 . S
C72 O27 1.209 1_545 S
C72 C45 1.486 . S
C73 O28 1.199 . S
C73 O29 1.297 1_545 S
C73 C57 1.476 . S
H74 O100 0.856 . S
H75 O103 0.854 . S
H76 C111 0.930 1_655 S
H77 C112 0.930 1_655 S
H78 C114 0.930 . S
H79 C115 0.930 . S
H80 C117 0.931 . S
H81 C118 0.930 . S
H82 C120 0.930 . S
H83 C121 0.929 . S
H84 C123 0.930 . S
H85 C124 0.931 . S
H86 C126 0.930 . S
H87 C127 0.929 . S
H88 C129 0.931 1_655 S
H89 C130 0.947 . S
H90 C132 0.930 . S
H91 C133 0.932 . S
H92 C135 0.930 1_655 S
H93 C136 0.929 . S
H94 C138 0.931 . S
H95 C139 0.930 . S
H96 C141 0.929 1_655 S
H97 C142 0.931 1_655 S
H98 C144 0.930 . S
H99 C145 0.929 . S
O100 H74 0.856 . S
O100 C146 1.300 . S
O101 C146 1.209 . S
O102 C147 1.199 . S
O103 H75 0.854 . S
O103 C147 1.297 . S
C104 C105 1.404 . S
C104 C109 1.397 . S
C104 C110 1.492 . S
C105 C104 1.404 . S
C105 C106 1.396 . S
C105 C116 1.492 . S
C106 C105 1.396 . S
C106 C107 1.397 . S
C106 C122 1.509 . S
C107 C106 1.397 . S
C107 C108 1.412 . S
C107 C128 1.485 . S
C108 C107 1.412 . S
C108 C109 1.388 . S
C108 C134 1.490 . S
C109 C104 1.397 . S
C109 C108 1.388 . S
C109 C140 1.519 . S
C110 C104 1.492 . S
C110 C111 1.363 . S
C110 C115 1.390 . S
C111 H76 0.930 1_455 S
C111 C110 1.363 . S
C111 C112 1.372 . S
C112 H77 0.930 1_455 S
C112 C111 1.372 . S
C112 C113 1.383 . S
C113 C112 1.383 . S
C113 C114 1.395 . S
C114 H78 0.930 . S
C114 C113 1.395 . S
C114 C115 1.362 . S
C115 H79 0.930 . S
C115 C110 1.390 . S
C115 C114 1.362 . S
C116 C105 1.492 . S
C116 C117 1.377 . S
C116 C121 1.397 . S
C117 H80 0.931 . S
C117 C116 1.377 . S
C117 C118 1.376 . S
C118 H81 0.930 . S
C118 C117 1.376 . S
C118 C119 1.376 . S
C119 C118 1.376 . S
C119 C120 1.378 . S
C119 C146 1.486 . S
C120 H82 0.930 . S
C120 C119 1.378 . S
C120 C121 1.376 . S
C121 H83 0.929 . S
C121 C116 1.397 . S
C121 C120 1.376 . S
C122 C106 1.509 . S
C122 C123 1.391 . S
C122 C127 1.386 . S
C123 H84 0.930 . S
C123 C122 1.391 . S
C123 C124 1.375 . S
C124 H85 0.931 . S
C124 C123 1.375 . S
C124 C125 1.375 . S
C125 C124 1.375 . S
C125 C126 1.361 . S
C126 H86 0.930 . S
C126 C125 1.361 . S
C126 C127 1.399 . S
C127 H87 0.929 . S
C127 C122 1.386 . S
C127 C126 1.399 . S
C128 C107 1.485 . S
C128 C129 1.394 . S
C128 C133 1.360 . S
C129 H88 0.931 1_455 S
C129 C128 1.394 . S
C129 C130 1.372 . S
C130 H89 0.947 . S
C130 C129 1.372 . S
C130 C131 1.397 . S
C131 C130 1.397 . S
C131 C132 1.390 . S
C131 C147 1.476 . S
C132 H90 0.930 . S
C132 C131 1.390 . S
C132 C133 1.366 . S
C133 H91 0.932 . S
C133 C128 1.360 . S
C133 C132 1.366 . S
C134 C108 1.490 . S
C134 C135 1.380 . S
C134 C139 1.386 . S
C135 H92 0.930 1_455 S
C135 C134 1.380 . S
C135 C136 1.381 1_455 S
C136 H93 0.929 . S
C136 C135 1.381 1_655 S
C136 C137 1.371 1_655 S
C137 C136 1.371 1_455 S
C137 C138 1.380 . S
C138 H94 0.931 . S
C138 C137 1.380 . S
C138 C139 1.387 . S
C139 H95 0.930 . S
C139 C134 1.386 . S
C139 C138 1.387 . S
C140 C109 1.519 . S
C140 C141 1.377 . S
C140 C145 1.361 . S
C141 H96 0.929 1_455 S
C141 C140 1.377 . S
C141 C142 1.386 . S
C142 H97 0.931 1_455 S
C142 C141 1.386 . S
C142 C143 1.363 . S
C143 C142 1.363 . S
C143 C144 1.385 . S
C144 H98 0.930 . S
C144 C143 1.385 . S
C144 C145 1.396 . S
C145 H99 0.929 . S
C145 C140 1.361 . S
C145 C144 1.396 . S
C146 O100 1.300 . S
C146 O101 1.209 . S
C146 C119 1.486 . S
C147 O102 1.199 . S
C147 O103 1.297 . S
C147 C131 1.476 . S
Mg148 O149 2.028 . S
Mg148 O155 1.986 . S
Mg148 O157 2.114 1_545 S
Mg148 O158 2.251 . S
Mg148 O161 2.010 . S
O149 Mg148 2.028 . S
O149 C152 1.250 1_455 S
O150 Mg151 2.028 . S
O150 C152 1.248 . S
Mg151 O150 2.028 . S
Mg151 O156 2.032 1_655 S
Mg151 O158 2.079 1_655 S
C152 O149 1.250 1_655 S
C152 O150 1.248 . S
C153 O154 1.264 . S
C153 O161 1.249 . S
O154 C153 1.264 . S
O155 Mg148 1.986 . S
O155 C159 1.246 . S
O156 Mg151 2.032 1_455 S
O156 C159 1.259 . S
O157 Mg148 2.114 1_565 S
O157 C160 1.252 . S
O158 Mg148 2.251 . S
O158 Mg151 2.079 1_455 S
O158 C160 1.273 1_545 S
C159 O155 1.246 . S
C159 O156 1.259 . S
C160 O157 1.252 . S
C160 O158 1.273 1_565 S
O161 Mg148 2.010 . S
O161 C153 1.249 . S
Mg162 O163 2.041 . S
Mg162 O169 1.989 . S
Mg162 O171 2.114 1_545 S
Mg162 O172 2.265 1_545 S
Mg162 O175 1.994 1_455 S
O163 Mg162 2.041 . S
O163 C166 1.250 . S
O164 Mg165 2.028 . S
O164 C166 1.248 . S
Mg165 O164 2.028 . S
Mg165 O170 2.032 . S
Mg165 O172 2.079 1_545 S
C166 O163 1.250 . S
C166 O164 1.248 . S
C167 O168 1.264 . S
C167 O175 1.249 . S
O168 C167 1.264 . S
O169 Mg162 1.989 . S
O169 C173 1.246 . S
O170 Mg165 2.032 . S
O170 C173 1.259 . S
O171 Mg162 2.114 1_565 S
O171 C174 1.252 . S
O172 Mg162 2.265 1_565 S
O172 Mg165 2.079 1_565 S
O172 C174 1.273 . S
C173 O169 1.246 . S
C173 O170 1.259 . S
C174 O171 1.252 . S
C174 O172 1.273 . S
O175 Mg162 1.994 1_655 S
O175 C167 1.249 . S
C176 C177 1.391 . S
C176 C178 1.394 . S
C176 H192 0.930 . S
C177 C176 1.391 . S
C177 C181 1.376 . S
C178 C176 1.394 . S
C178 C179 1.369 . S
C178 C182 1.531 1_545 S
C179 C178 1.369 . S
C179 C180 1.410 . S
C179 C187 1.503 . S
C180 C179 1.410 . S
C180 C181 1.392 . S
C180 C183 1.511 . S
C181 C177 1.376 . S
C181 C180 1.392 . S
C181 H193 0.929 . S
C182 C178 1.531 1_565 S
C182 H194 0.960 . S
C182 H195 0.962 1_565 S
C182 H196 0.960 . S
C183 C180 1.511 . S
C183 H197 0.961 . S
C183 H198 0.961 . S
C183 H199 0.961 . S
C184 C185 1.370 . S
C184 C186 1.363 . S
C184 H200 0.931 . S
C185 C184 1.370 . S
C185 C189 1.399 1_545 S
C186 C184 1.363 . S
C186 C187 1.370 . S
C186 C190 1.524 . S
C187 C179 1.503 . S
C187 C186 1.370 . S
C187 C188 1.403 1_545 S
C188 C187 1.403 1_565 S
C188 C189 1.405 . S
C188 C191 1.539 . S
C189 C185 1.399 1_565 S
C189 C188 1.405 . S
C189 H201 0.938 . S
C190 C186 1.524 . S
C190 H202 0.956 . S
C190 H203 0.961 . S
C190 H204 0.961 . S
C191 C188 1.539 . S
C191 H205 0.958 . S
C191 H206 0.961 . S
C191 H207 0.960 . S
H192 C176 0.930 . S
H193 C181 0.929 . S
H194 C182 0.960 . S
H195 C182 0.962 1_545 S
H196 C182 0.960 . S
H197 C183 0.961 . S
H198 C183 0.961 . S
H199 C183 0.961 . S
H200 C184 0.931 . S
H201 C189 0.938 . S
H202 C190 0.956 . S
H203 C190 0.961 . S
H204 C190 0.961 . S
H205 C191 0.958 . S
H206 C191 0.961 . S
H207 C191 0.960 . S
C208 C209 1.391 . S
C208 C210 1.394 . S
C208 H224 0.931 . S
C209 C208 1.391 . S
C209 C213 1.376 . S
C210 C208 1.394 . S
C210 C211 1.369 . S
C210 C214 1.531 . S
C211 C210 1.369 . S
C211 C212 1.410 . S
C211 C219 1.503 . S
C212 C211 1.410 . S
C212 C213 1.392 . S
C212 C215 1.511 1_455 S
C213 C209 1.376 . S
C213 C212 1.392 . S
C213 H225 0.929 1_455 S
C214 C210 1.531 . S
C214 H226 0.960 . S
C214 H227 0.962 . S
C214 H228 0.960 . S
C215 C212 1.511 1_655 S
C215 H229 0.961 . S
C215 H230 0.961 . S
C215 H231 0.961 . S
C216 C217 1.370 . S
C216 C218 1.363 . S
C216 H232 0.931 . S
C217 C216 1.370 . S
C217 C221 1.408 . S
C218 C216 1.363 . S
C218 C219 1.370 . S
C218 C222 1.524 . S
C219 C211 1.503 . S
C219 C218 1.370 . S
C219 C220 1.403 . S
C220 C219 1.403 . S
C220 C221 1.404 . S
C220 C223 1.539 . S
C221 C217 1.408 . S
C221 C220 1.404 . S
C221 H233 0.930 . S
C222 C218 1.524 . S
C222 H234 0.956 . S
C222 H235 0.961 1_455 S
C222 H236 0.961 . S
C223 C220 1.539 . S
C223 H237 0.958 . S
C223 H238 0.961 . S
C223 H239 0.960 . S
H224 C208 0.931 . S
H225 C213 0.929 1_655 S
H226 C214 0.960 . S
H227 C214 0.962 . S
H228 C214 0.960 . S
H229 C215 0.961 . S
H230 C215 0.961 . S
H231 C215 0.961 . S
H232 C216 0.931 . S
H233 C221 0.930 . S
H234 C222 0.956 . S
H235 C222 0.961 1_655 S
H236 C222 0.961 . S
H237 C223 0.958 . S
H238 C223 0.961 . S
H239 C223 0.960 . S
C240 C241 1.391 . S
C240 C242 1.394 . S
C240 H256 0.931 . S
C241 C240 1.391 . S
C241 C245 1.376 . S
C242 C240 1.394 . S
C242 C243 1.369 . S
C242 C246 1.531 . S
C243 C242 1.369 . S
C243 C244 1.410 . S
C243 C251 1.503 . S
C244 C243 1.410 . S
C244 C245 1.392 . S
C244 C247 1.511 1_545 S
C245 C241 1.376 . S
C245 C244 1.392 . S
C245 H257 0.929 1_545 S
C246 C242 1.531 . S
C246 H258 0.960 . S
C246 H259 0.962 . S
C246 H260 0.960 . S
C247 C244 1.511 1_565 S
C247 H261 0.961 . S
C247 H262 0.961 . S
C247 H263 0.961 . S
C248 C249 1.370 . S
C248 C250 1.363 . S
C248 H264 0.931 . S
C249 C248 1.370 . S
C249 C253 1.408 . S
C250 C248 1.363 . S
C250 C251 1.370 . S
C250 C254 1.524 . S
C251 C243 1.503 . S
C251 C250 1.370 . S
C251 C252 1.403 . S
C252 C251 1.403 . S
C252 C253 1.404 . S
C252 C255 1.539 . S
C253 C249 1.408 . S
C253 C252 1.404 . S
C253 H265 0.930 . S
C254 C250 1.524 . S
C254 H266 0.956 . S
C254 H267 0.961 . S
C254 H268 0.961 . S
C255 C252 1.539 . S
C255 H269 0.958 . S
C255 H270 0.961 . S
C255 H271 0.960 . S
H256 C240 0.931 . S
H257 C245 0.929 1_565 S
H258 C246 0.960 . S
H259 C246 0.962 . S
H260 C246 0.960 . S
H261 C247 0.961 . S
H262 C247 0.961 . S
H263 C247 0.961 . S
H264 C248 0.931 . S
H265 C253 0.930 . S
H266 C254 0.956 . S
H267 C254 0.961 . S
H268 C254 0.961 . S
H269 C255 0.958 . S
H270 C255 0.961 . S
H271 C255 0.960 . S
C272 C273 1.391 1_655 S
C272 C274 1.394 . S
C272 H288 0.931 . S
C273 C272 1.391 1_455 S
C273 C277 1.376 . S
C274 C272 1.394 . S
C274 C275 1.369 1_655 S
C274 C278 1.531 . S
C275 C274 1.369 1_455 S
C275 C276 1.410 . S
C275 C283 1.503 . S
C276 C275 1.410 . S
C276 C277 1.392 . S
C276 C279 1.511 . S
C277 C273 1.376 . S
C277 C276 1.392 . S
C277 H289 0.929 . S
C278 C274 1.531 . S
C278 H290 0.960 . S
C278 H291 0.962 . S
C278 H292 0.960 . S
C279 C276 1.511 . S
C279 H293 0.961 . S
C279 H294 0.961 . S
C279 H295 0.961 . S
C280 C281 1.370 . S
C280 C282 1.363 . S
C280 H296 0.931 . S
C281 C280 1.370 . S
C281 C285 1.408 1_455 S
C282 C280 1.363 . S
C282 C283 1.370 . S
C282 C286 1.524 . S
C283 C275 1.503 . S
C283 C282 1.370 . S
C283 C284 1.403 1_455 S
C284 C283 1.403 1_655 S
C284 C285 1.404 . S
C284 C287 1.539 . S
C285 C281 1.408 1_655 S
C285 C284 1.404 . S
C285 H297 0.930 . S
C286 C282 1.524 . S
C286 H298 0.956 . S
C286 H299 0.961 . S
C286 H300 0.961 . S
C287 C284 1.539 . S
C287 H301 0.958 . S
C287 H302 0.961 . S
C287 H303 0.960 . S
H288 C272 0.931 . S
H289 C277 0.929 . S
H290 C278 0.960 . S
H291 C278 0.962 . S
H292 C278 0.960 . S
H293 C279 0.961 . S
H294 C279 0.961 . S
H295 C279 0.961 . S
H296 C280 0.931 . S
H297 C285 0.930 . S
H298 C286 0.956 . S
H299 C286 0.961 . S
H300 C286 0.961 . S
H301 C287 0.958 . S
H302 C287 0.961 . S
H303 C287 0.960 . S
C304 C305 1.391 . S
C304 C306 1.394 . S
C304 H320 0.931 . S
C305 C304 1.391 . S
C305 C309 1.376 . S
C306 C304 1.394 . S
C306 C307 1.369 . S
C306 C310 1.531 . S
C307 C306 1.369 . S
C307 C308 1.410 . S
C307 C315 1.503 . S
C308 C307 1.410 . S
C308 C309 1.392 . S
C308 C311 1.511 . S
C309 C305 1.376 . S
C309 C308 1.392 . S
C309 H321 0.929 . S
C310 C306 1.531 . S
C310 H322 0.960 . S
C310 H323 0.962 . S
C310 H324 0.960 . S
C311 C308 1.511 . S
C311 H325 0.961 . S
C311 H326 0.961 . S
C311 H327 0.961 . S
C312 C313 1.370 1_565 S
C312 C314 1.363 1_565 S
C312 H328 0.931 . S
C313 C312 1.370 1_545 S
C313 C317 1.408 . S
C314 C312 1.363 1_545 S
C314 C315 1.370 . S
C314 C318 1.524 1_545 S
C315 C307 1.503 . S
C315 C314 1.370 . S
C315 C316 1.403 . S
C316 C315 1.403 . S
C316 C317 1.404 . S
C316 C319 1.539 . S
C317 C313 1.408 . S
C317 C316 1.404 . S
C317 H329 0.930 . S
C318 C314 1.524 1_565 S
C318 H330 0.956 . S
C318 H331 0.961 . S
C318 H332 0.961 . S
C319 C316 1.539 . S
C319 H333 0.958 . S
C319 H334 0.961 . S
C319 H335 0.960 . S
H320 C304 0.931 . S
H321 C309 0.929 . S
H322 C310 0.960 . S
H323 C310 0.962 . S
H324 C310 0.960 . S
H325 C311 0.961 . S
H326 C311 0.961 . S
H327 C311 0.961 . S
H328 C312 0.931 . S
H329 C317 0.930 . S
H330 C318 0.956 . S
H331 C318 0.961 . S
H332 C318 0.961 . S
H333 C319 0.958 . S
H334 C319 0.961 . S
H335 C319 0.960 . S
C336 C337 1.391 . S
C336 C338 1.394 . S
C336 H352 0.931 . S
C337 C336 1.391 . S
C337 C341 1.376 . S
C338 C336 1.394 . S
C338 C339 1.369 . S
C338 C342 1.531 . S
C339 C338 1.369 . S
C339 C340 1.410 . S
C339 C347 1.503 . S
C340 C339 1.410 . S
C340 C341 1.392 . S
C340 C343 1.511 . S
C341 C337 1.376 . S
C341 C340 1.392 . S
C341 H353 0.929 . S
C342 C338 1.531 . S
C342 H354 0.960 . S
C342 H355 0.962 . S
C342 H356 0.960 . S
C343 C340 1.511 . S
C343 H357 0.961 . S
C343 H358 0.961 . S
C343 H359 0.961 . S
C344 C345 1.370 . S
C344 C346 1.363 . S
C344 H360 0.931 1_455 S
C345 C344 1.370 . S
C345 C349 1.408 . S
C346 C344 1.363 . S
C346 C347 1.370 . S
C346 C350 1.524 1_455 S
C347 C339 1.503 . S
C347 C346 1.370 . S
C347 C348 1.403 . S
C348 C347 1.403 . S
C348 C349 1.404 . S
C348 C351 1.539 . S
C349 C345 1.408 . S
C349 C348 1.404 . S
C349 H361 0.930 . S
C350 C346 1.524 1_655 S
C350 H362 0.956 . S
C350 H363 0.961 . S
C350 H364 0.961 . S
C351 C348 1.539 . S
C351 H365 0.958 . S
C351 H366 0.961 . S
C351 H367 0.960 . S
H352 C336 0.931 . S
H353 C341 0.929 . S
H354 C342 0.960 . S
H355 C342 0.962 . S
H356 C342 0.960 . S
H357 C343 0.961 . S
H358 C343 0.961 . S
H359 C343 0.961 . S
H360 C344 0.931 1_655 S
H361 C349 0.930 . S
H362 C350 0.956 . S
H363 C350 0.961 . S
H364 C350 0.961 . S
H365 C351 0.958 . S
H366 C351 0.961 . S
H367 C351 0.960 . S
C368 C369 1.391 . S
C368 C370 1.394 . S
C368 H384 0.931 . S
C369 C368 1.391 . S
C369 C373 1.376 1_545 S
C370 C368 1.394 . S
C370 C371 1.369 . S
C370 C374 1.531 . S
C371 C370 1.369 . S
C371 C372 1.410 1_545 S
C371 C379 1.503 . S
C372 C371 1.410 1_565 S
C372 C373 1.392 . S
C372 C375 1.511 . S
C373 C369 1.376 1_565 S
C373 C372 1.392 . S
C373 H385 0.929 . S
C374 C370 1.531 . S
C374 H386 0.960 . S
C374 H387 0.962 . S
C374 H388 0.960 . S
C375 C372 1.511 . S
C375 H389 0.961 . S
C375 H390 0.961 . S
C375 H391 0.961 . S
C376 C377 1.357 1_565 S
C376 C378 1.365 . S
C376 H392 0.943 . S
C377 C376 1.357 1_545 S
C377 C381 1.408 . S
C378 C376 1.365 . S
C378 C379 1.370 1_565 S
C378 C382 1.524 . S
C379 C371 1.503 . S
C379 C378 1.370 1_545 S
C379 C380 1.403 . S
C380 C379 1.403 . S
C380 C381 1.404 . S
C380 C383 1.539 . S
C381 C377 1.408 . S
C381 C380 1.404 . S
C381 H393 0.930 . S
C382 C378 1.524 . S
C382 H394 0.956 . S
C382 H395 0.961 . S
C382 H396 0.961 . S
C383 C380 1.539 . S
C383 H397 0.958 . S
C383 H398 0.961 . S
C383 H399 0.960 . S
H384 C368 0.931 . S
H385 C373 0.929 . S
H386 C374 0.960 . S
H387 C374 0.962 . S
H388 C374 0.960 . S
H389 C375 0.961 . S
H390 C375 0.961 . S
H391 C375 0.961 . S
H392 C376 0.943 . S
H393 C381 0.930 . S
H394 C382 0.956 . S
H395 C382 0.961 . S
H396 C382 0.961 . S
H397 C383 0.958 . S
H398 C383 0.961 . S
H399 C383 0.960 . S
C400 C401 1.391 . S
C400 C402 1.394 . S
C400 H416 0.931 . S
C401 C400 1.391 . S
C401 C405 1.376 . S
C402 C400 1.394 . S
C402 C403 1.369 . S
C402 C406 1.531 . S
C403 C402 1.369 . S
C403 C404 1.410 . S
C403 C411 1.503 . S
C404 C403 1.410 . S
C404 C405 1.392 . S
C404 C407 1.511 . S
C405 C401 1.376 . S
C405 C404 1.392 . S
C405 H417 0.929 . S
C406 C402 1.531 . S
C406 H418 0.960 . S
C406 H419 0.962 . S
C406 H420 0.960 . S
C407 C404 1.511 . S
C407 H421 0.961 1_455 S
C407 H422 0.961 . S
C407 H423 0.961 . S
C408 C409 1.370 . S
C408 C410 1.363 . S
C408 H424 0.931 . S
C409 C408 1.370 . S
C409 C413 1.408 . S
C410 C408 1.363 . S
C410 C411 1.370 . S
C410 C414 1.524 . S
C411 C403 1.503 . S
C411 C410 1.370 . S
C411 C412 1.403 . S
C412 C411 1.403 . S
C412 C413 1.404 . S
C412 C415 1.539 . S
C413 C409 1.408 . S
C413 C412 1.404 . S
C413 H425 0.930 . S
C414 C410 1.524 . S
C414 H426 0.956 . S
C414 H427 0.961 . S
C414 H428 0.961 . S
C415 C412 1.539 . S
C415 H429 0.958 . S
C415 H430 0.961 . S
C415 H431 0.960 . S
H416 C400 0.931 . S
H417 C405 0.929 . S
H418 C406 0.960 . S
H419 C406 0.962 . S
H420 C406 0.960 . S
H421 C407 0.961 1_655 S
H422 C407 0.961 . S
H423 C407 0.961 . S
H424 C408 0.931 . S
H425 C413 0.930 . S
H426 C414 0.956 . S
H427 C414 0.961 . S
H428 C414 0.961 . S
H429 C415 0.958 . S
H430 C415 0.961 . S
H431 C415 0.960 . S
C185 C153 1.843 . S
C177 C69 2.120 . S
C217 C173 2.113 . S
C209 C143 2.152 . S
C249 C152 1.520 . S
C241 C63 1.518 . S
C281 C174 1.584 . S
C273 C137 1.505 . S
C313 C166 1.469 . S
C305 C39 1.399 . S
C345 C159 1.370 . S
C337 C113 1.318 . S
C377 C167 0.819 . S
C369 C51 0.788 . S
C401 C125 0.865 . S
C409 C160 0.839 . S
