# Generated by pormake.
# Topology rtl, (3,6)-cn, num edge types: 1
# Building blocks:
#     Node 0, Type 0, BuildingBlock: QEWDON_clean_linker_0, # of connection points: 3
#     Node 1, Type 0, BuildingBlock: QEWDON_clean_linker_0, # of connection points: 3
#     Node 2, Type 0, BuildingBlock: QEWDON_clean_linker_0, # of connection points: 3
#     Node 3, Type 0, BuildingBlock: QEWDON_clean_linker_0, # of connection points: 3
#     Node 4, Type 1, BuildingBlock: KUMBUR_clean_sbu_1, # of connection points: 6
#     Node 5, Type 1, BuildingBlock: KUMBUR_clean_sbu_1, # of connection points: 6
#     Edge 6, Type (0, 1), BuildingBlock: MIFKUJ_clean_linker_0, # of connection points: 2
#     Edge 7, Type (0, 1), BuildingBlock: MIFKUJ_clean_linker_0, # of connection points: 2
#     Edge 8, Type (0, 1), BuildingBlock: MIFKUJ_clean_linker_0, # of connection points: 2
#     Edge 9, Type (0, 1), BuildingBlock: MIFKUJ_clean_linker_0, # of connection points: 2
#     Edge 10, Type (0, 1), BuildingBlock: MIFKUJ_clean_linker_0, # of connection points: 2
#     Edge 11, Type (0, 1), BuildingBlock: MIFKUJ_clean_linker_0, # of connection points: 2
#     Edge 12, Type (0, 1), BuildingBlock: MIFKUJ_clean_linker_0, # of connection points: 2
#     Edge 13, Type (0, 1), BuildingBlock: MIFKUJ_clean_linker_0, # of connection points: 2
#     Edge 14, Type (0, 1), BuildingBlock: MIFKUJ_clean_linker_0, # of connection points: 2
#     Edge 15, Type (0, 1), BuildingBlock: MIFKUJ_clean_linker_0, # of connection points: 2
#     Edge 16, Type (0, 1), BuildingBlock: MIFKUJ_clean_linker_0, # of connection points: 2
#     Edge 17, Type (0, 1), BuildingBlock: MIFKUJ_clean_linker_0, # of connection points: 2
# Relax obj value: 0.084
# Max RMSD: 0.264
# Mean RMSD: 0.205
data_MOF--net-rtl--node1-KUMBUR_clean_sbu_1--node2-QEWDON_clean_linker_0--edge1-MIFKUJ_clean_linker_0
_symmetry_space_group_name_H-M    P1
_symmetry_Int_Tables_number       1
_symmetry_cell_setting            triclinic
loop_
_symmetry_equiv_pos_as_xyz
'x, y, z'
_cell_length_a     47.794648
_cell_length_b     47.698323
_cell_length_c     33.50762
_cell_angle_alpha  81.737556
_cell_angle_beta   100.20073
_cell_angle_gamma 90.96619
loop_
_atom_site_label
_atom_site_type_symbol
_atom_site_fract_x
_atom_site_fract_y
_atom_site_fract_z
_atom_type_partial_charge
H0 H 0.2518 0.8335 0.08694 0.0
C1 C 0.23951 0.83947 0.05654 0.0
C2 C 0.21189 0.85097 0.05161 0.0
C3 C 0.25197 0.83686 0.02222 0.0
H4 H 0.17646 0.86994 0.00729 0.0
C5 C 0.19697 0.85955 0.01161 0.0
C6 C 0.20912 0.85706 0.97702 0.0
C7 C 0.23662 0.84549 0.9827 0.0
C8 C 0.28276 0.83096 0.02712 0.0
H9 H 0.24664 0.8442 0.9564 0.0
C10 C 0.29388 0.80319 0.03186 0.0
C11 C 0.32336 0.79876 0.03361 0.0
C12 C 0.30108 0.85414 0.0245 0.0
H13 H 0.29284 0.87558 0.02061 0.0
C14 C 0.32999 0.84998 0.02599 0.0
H15 H 0.27964 0.78535 0.03406 0.0
C16 C 0.34102 0.82267 0.03012 0.0
H17 H 0.36347 0.82045 0.02977 0.0
H18 H 0.34389 0.86806 0.02335 0.0
H19 H 0.74026 0.71401 0.58182 0.0
C20 C 0.72802 0.70827 0.60604 0.0
C21 C 0.70134 0.69528 0.59731 0.0
C22 C 0.73958 0.71257 0.64635 0.0
H23 H 0.66633 0.67567 0.6233 0.0
C24 C 0.68615 0.68697 0.62938 0.0
C25 C 0.69729 0.691 0.66979 0.0
C26 C 0.72379 0.70422 0.67779 0.0
C27 C 0.76941 0.7225 0.65696 0.0
H28 H 0.73248 0.70745 0.70892 0.0
C29 C 0.7805 0.74567 0.63331 0.0
C30 C 0.80912 0.75391 0.64414 0.0
C31 C 0.78734 0.70786 0.69122 0.0
H32 H 0.77976 0.68968 0.70949 0.0
C33 C 0.81539 0.7161 0.70209 0.0
H34 H 0.76704 0.75711 0.60674 0.0
C35 C 0.82621 0.7389 0.6789 0.0
H36 H 0.84803 0.74499 0.68848 0.0
H37 H 0.82886 0.70468 0.72864 0.0
H38 H 0.80879 0.19076 0.10036 0.0
C39 C 0.81959 0.18802 0.0753 0.0
C40 C 0.84704 0.17597 0.08369 0.0
C41 C 0.80536 0.19497 0.03466 0.0
H42 H 0.88103 0.16119 0.05727 0.0
C43 C 0.86021 0.17122 0.05095 0.0
C44 C 0.84615 0.17762 0.01021 0.0
C45 C 0.81882 0.18985 1.00223 0.0
C46 C 0.77467 0.20214 0.02644 0.0
H47 H 0.80733 0.19382 0.97099 0.0
C48 C 0.76442 0.22864 0.03206 0.0
C49 C 0.73483 0.23444 0.02417 0.0
C50 C 0.75533 0.18146 0.01351 0.0
H51 H 0.76283 0.16095 0.00926 0.0
C52 C 0.72622 0.18675 0.00676 0.0
H53 H 0.77942 0.24472 0.04151 0.0
C54 C 0.71602 0.21286 0.0122 0.0
H55 H 0.69321 0.21602 0.00726 0.0
H56 H 0.71146 0.17048 0.99738 0.0
H57 H 0.34285 0.30252 0.50015 0.0
C58 C 0.3491 0.31454 0.4732 0.0
C59 C 0.36158 0.34134 0.47565 0.0
C60 C 0.34585 0.30268 0.43654 0.0
H61 H 0.38182 0.37602 0.44348 0.0
C62 C 0.37069 0.3562 0.44093 0.0
C63 C 0.36739 0.34501 0.40387 0.0
C64 C 0.35461 0.31834 0.4019 0.0
C65 C 0.33633 0.27281 0.43526 0.0
H66 H 0.35181 0.30948 0.37346 0.0
C67 C 0.31268 0.26179 0.45237 0.0
C68 C 0.30486 0.23311 0.45139 0.0
C69 C 0.35187 0.25479 0.41734 0.0
H70 H 0.37039 0.26238 0.40465 0.0
C71 C 0.34412 0.22663 0.41614 0.0
H72 H 0.30051 0.27537 0.46635 0.0
C73 C 0.32085 0.21585 0.43293 0.0
H74 H 0.31512 0.19396 0.43098 0.0
H75 H 0.35625 0.21305 0.40215 0.0
Tb76 Tb 0.05073 0.99155 0.50506 0.0
C77 C 0.96449 0.08444 0.48856 0.0
N78 N 0.99186 0.08484 0.50803 0.0
C79 C 0.998 0.13074 0.47093 0.0
C80 C 0.95308 0.10661 0.45785 0.0
C81 C 1.00836 0.10808 0.50106 0.0
C82 C 0.97037 0.12982 0.44878 0.0
C83 C 0.91911 0.06083 0.48177 0.0
C84 C 0.94793 0.06183 0.50022 0.0
C85 C 0.90786 0.08209 0.44962 0.0
C86 C 0.92483 0.10499 0.43771 0.0
Tb87 Tb 1.00756 0.04616 0.55466 0.0
N88 N 0.95962 0.04188 0.53157 0.0
C89 C 0.90226 0.03912 0.4973 0.0
C90 C 0.9425 0.02252 0.54947 0.0
C91 C 0.91387 0.02028 0.53192 0.0
H92 H 0.02972 0.10877 0.51808 0.0
H93 H 0.90069 1.00427 0.54547 0.0
H94 H 1.00927 0.93338 0.50624 0.0
H95 H 0.16247 0.9999 0.56391 0.0
H96 H 0.95074 1.00877 0.57747 0.0
H97 H 0.88001 0.03753 0.48401 0.0
H98 H 0.1166 0.01451 0.51913 0.0
H99 H 1.01133 0.14883 0.46471 0.0
H100 H 0.88588 0.08148 0.43462 0.0
H101 H 0.91573 0.12161 0.41358 0.0
H102 H 1.00817 0.88793 0.55103 0.0
H103 H 0.96244 0.1473 0.42532 0.0
H104 H 0.16552 0.95574 0.6135 0.0
N105 N 0.04812 0.94669 0.54012 0.0
C106 C 0.07167 0.93776 0.56801 0.0
C107 C 0.02594 0.90198 0.55661 0.0
C108 C 0.07258 0.91125 0.59305 0.0
C109 C 0.02636 0.92821 0.53194 0.0
C110 C 0.04886 0.89373 0.58796 0.0
N111 N 0.09402 0.9795 0.54418 0.0
C112 C 0.1178 0.99531 0.5408 0.0
C113 C 0.12126 0.94519 0.59548 0.0
C114 C 0.09568 0.95438 0.5693 0.0
C115 C 0.14544 0.96203 0.59385 0.0
C116 C 0.14378 0.98701 0.56596 0.0
H117 H 0.04863 0.87323 0.60664 0.0
H118 H 0.09845 0.88255 0.64099 0.0
H119 H 0.14114 0.91233 0.64311 0.0
O120 O 0.06526 1.00425 0.44932 0.0
O121 O 0.06657 1.00505 0.56503 0.0
O122 O 0.02735 1.00864 0.59424 0.0
O123 O 0.06278 0.96036 0.47294 0.0
O124 O 0.06593 0.03569 0.49853 0.0
O125 O 0.05154 0.05892 0.54897 0.0
O126 O 0.98324 0.06203 0.59343 0.0
O127 O 1.01307 0.05243 0.49037 0.0
O128 O 1.0102 1.00883 0.46957 0.0
O129 O 0.02774 0.07054 0.59877 0.0
O130 O 0.99776 1.00056 0.56509 0.0
O131 O 1.00538 0.98299 0.50695 0.0
C132 C 0.0538 1.00058 0.59686 0.0
C133 C 0.05532 0.97182 0.40159 0.0
C134 C 0.06105 0.95436 0.33809 0.0
C135 C 0.03117 0.95436 0.32679 0.0
C136 C 0.02573 0.97191 0.38933 0.0
C137 C 1.01378 0.96331 0.35204 0.0
C138 C 0.07288 0.96342 0.3758 0.0
C139 C 0.06806 0.05635 0.52163 0.0
C140 C 0.06804 0.9784 0.44244 0.0
C141 C 0.0975 0.90265 0.62103 0.0
C142 C 0.12185 0.91954 0.62213 0.0
C143 C 1.00318 0.03578 0.46344 0.0
C144 C 1.00861 0.06438 0.65985 0.0
C145 C 0.9941 0.06925 0.72512 0.0
C146 C 1.01474 0.04875 0.74494 0.0
C147 C 0.02885 0.04385 0.68045 0.0
C148 C 0.99126 0.07702 0.6823 0.0
C149 C 0.03181 0.03612 0.72269 0.0
C150 C 0.9917 0.98292 0.53789 0.0
C151 C 1.00518 0.07236 0.61499 0.0
H152 H 0.021 0.9469 0.29882 0.0
H153 H 1.01189 0.9781 0.40893 0.0
H154 H 0.9909 0.96313 0.34291 0.0
H155 H 0.09572 0.96384 0.38546 0.0
H156 H 0.01798 0.04262 0.77783 0.0
H157 H 0.04245 0.03383 0.66397 0.0
H158 H 0.97534 0.09253 0.66629 0.0
H159 H 0.04746 0.02029 0.73829 0.0
Tb160 Tb 0.50398 0.50082 0.99301 0.0
C161 C 0.59891 0.58085 0.0342 0.0
N162 N 0.59902 0.55369 0.05285 0.0
C163 C 0.64697 0.5475 0.04335 0.0
C164 C 0.62243 0.59211 0.01744 0.0
C165 C 0.62295 0.53725 0.05916 0.0
C166 C 0.64656 0.57492 0.02182 0.0
C167 C 0.57502 0.62633 0.01629 0.0
C168 C 0.57552 0.59755 0.03356 0.0
C169 C 0.59751 0.63729 0.99699 0.0
C170 C 0.62123 0.62021 0.99764 0.0
Tb171 Tb 0.55884 0.53832 0.07665 0.0
N172 N 0.55455 0.58622 0.05329 0.0
C173 C 0.55276 0.64354 0.02093 0.0
C174 C 0.53487 0.60382 0.06217 0.0
C175 C 0.53305 0.6324 0.04496 0.0
H176 H 0.62326 0.5161 0.07581 0.0
H177 H 0.51678 0.64594 0.05089 0.0
H178 H 0.46038 0.55184 0.93925 0.0
H179 H 0.47627 0.39463 0.05068 0.0
H180 H 0.52056 0.59614 0.0828 0.0
H181 H 0.55156 0.66577 0.00815 0.0
H182 H 0.50691 0.43195 0.02197 0.0
H183 H 0.66571 0.53422 0.04762 0.0
H184 H 0.59729 0.65924 0.98296 0.0
H185 H 0.63885 0.62915 0.98383 0.0
H186 H 0.41081 0.56734 0.93601 0.0
H187 H 0.66511 0.58276 0.0094 0.0
H188 H 0.42829 0.40715 0.0613 0.0
N189 N 0.45766 0.51578 0.9839 0.0
C190 C 0.44008 0.49846 1.0035 0.0
C191 C 0.41885 0.54805 0.95549 0.0
C192 C 0.41134 0.50574 1.00124 0.0
C193 C 0.44696 0.53933 0.95769 0.0
C194 C 0.4011 0.53147 0.97811 0.0
N195 N 0.47702 0.46505 0.01863 0.0
C196 C 0.486 0.43742 0.02671 0.0
C197 C 0.43176 0.45143 0.03699 0.0
C198 C 0.4501 0.47186 0.02127 0.0
C199 C 0.44172 0.42352 0.04905 0.0
C200 C 0.46873 0.41634 0.04291 0.0
H201 H 0.37918 0.53795 0.97574 0.0
H202 H 0.37128 0.49155 0.01846 0.0
H203 H 0.38919 0.44376 0.04968 0.0
O204 O 0.52529 0.48695 0.94942 0.0
O205 O 0.51179 0.48179 0.05812 0.0
O206 O 0.52045 0.51887 0.09566 0.0
O207 O 0.47983 0.48716 0.9405 0.0
O208 O 0.54346 0.47685 0.0188 0.0
O209 O 0.5725 0.49495 0.07354 0.0
O210 O 0.57567 0.56217 0.12355 0.0
O211 O 0.56799 0.53137 0.01639 0.0
O212 O 0.5255 0.53977 0.97341 0.0
O213 O 0.57969 0.51702 0.13323 0.0
O214 O 0.51331 0.54954 0.06633 0.0
O215 O 0.50034 0.54604 0.99814 0.0
C216 C 0.50976 0.49375 0.0905 0.0
C217 C 0.50028 0.49359 0.88111 0.0
C218 C 0.48509 0.48706 0.80943 0.0
C219 C 0.49618 0.51389 0.79748 0.0
C220 C 0.51103 0.52028 0.86854 0.0
C221 C 0.5091 0.53029 0.8269 0.0
C222 C 0.48739 0.47708 0.85156 0.0
C223 C 0.56596 0.47571 0.04854 0.0
C224 C 0.50192 0.48259 0.92478 0.0
C225 C 0.39341 0.4863 0.01971 0.0
C226 C 0.4036 0.4591 0.03748 0.0
C227 C 0.55322 0.54232 0.98084 0.0
C228 C 0.5735 0.53937 0.18985 0.0
C229 C 0.57696 0.5573 0.25545 0.0
C230 C 0.55389 0.54009 0.26385 0.0
C231 C 0.55055 0.52239 0.19905 0.0
C232 C 0.58671 0.55671 0.21822 0.0
C233 C 0.54086 0.52279 0.23584 0.0
C234 C 0.49576 0.55557 0.03123 0.0
C235 C 0.58315 0.53996 0.15026 0.0
H236 H 0.49448 0.52245 0.76541 0.0
H237 H 0.52081 0.53334 0.89087 0.0
H238 H 0.51745 0.55093 0.81737 0.0
H239 H 0.47939 0.45632 0.86153 0.0
H240 H 0.54612 0.53971 0.29239 0.0
H241 H 0.54009 0.50884 0.17782 0.0
H242 H 0.60419 0.5701 0.21093 0.0
H243 H 0.52317 0.5096 0.24269 0.0
H244 H 0.30241 0.18253 0.5002 0.0
H245 H 0.26012 0.15761 0.51709 0.0
H246 H 0.20825 0.23021 0.45842 0.0
H247 H 0.2507 0.25504 0.44033 0.0
H248 H 0.21907 0.16286 0.55854 0.0
H249 H 0.14584 0.20628 0.40717 0.0
H250 H 0.14928 0.22755 0.33657 0.0
H251 H 0.22892 0.18454 0.34617 0.0
H252 H 0.22575 0.16274 0.41657 0.0
H253 H 0.08214 0.10134 0.56418 0.0
H254 H 0.11981 0.13595 0.55628 0.0
H255 H 0.14321 0.09448 0.46063 0.0
H256 H 0.10523 0.06039 0.46742 0.0
H257 H 0.14458 0.14946 0.43951 0.0
H258 H 0.18059 0.08412 0.56021 0.0
H259 H 0.17926 0.05775 0.62877 0.0
H260 H 0.17904 0.13603 0.67798 0.0
H261 H 0.17992 0.1629 0.60952 0.0
C262 C 0.28204 0.19335 0.49127 0.0
C263 C 0.27987 0.22061 0.46834 0.0
C264 C 0.25785 0.17912 0.50121 0.0
C265 C 0.23083 0.19175 0.48846 0.0
C266 C 0.22879 0.2198 0.46806 0.0
C267 C 0.25309 0.23409 0.45803 0.0
C268 C 0.20499 0.17451 0.49358 0.0
C269 C 0.20263 0.1602 0.53257 0.0
C270 C 0.18372 0.17045 0.45969 0.0
C271 C 0.18572 0.18321 0.41727 0.0
C272 C 0.16405 0.20134 0.39414 0.0
C273 C 0.16595 0.21347 0.35418 0.0
C274 C 0.18936 0.20749 0.33696 0.0
C275 C 0.21086 0.18925 0.3596 0.0
C276 C 0.20903 0.17702 0.39953 0.0
C277 C 0.09519 0.09961 0.54132 0.0
C278 C 0.09065 0.07782 0.51666 0.0
C279 C 0.11685 0.11941 0.53695 0.0
C280 C 0.13464 0.11772 0.50815 0.0
C281 C 0.12981 0.09632 0.48306 0.0
C282 C 0.1081 0.07665 0.48721 0.0
C283 C 0.15866 0.13778 0.50442 0.0
C284 C 0.16071 0.15255 0.46565 0.0
C285 C 0.18 0.14164 0.53833 0.0
C286 C 0.18003 0.12553 0.57966 0.0
C287 C 0.1801 0.09572 0.5856 0.0
C288 C 0.17943 0.08067 0.62445 0.0
C289 C 0.17899 0.0952 0.6577 0.0
C290 C 0.17933 0.12481 0.65219 0.0
C291 C 0.17993 0.13995 0.61337 0.0
H292 H 0.17844 0.08352 0.68774 0.0
H293 H 0.1908 0.21693 0.30603 0.0
H294 H 0.37591 0.78007 0.0753 0.0
H295 H 0.4 0.73616 0.0735 0.0
H296 H 0.3236 0.70567 1.00419 0.0
H297 H 0.30008 0.75113 1.00227 0.0
H298 H 0.39844 0.68589 0.09946 0.0
H299 H 0.33864 0.6586 0.94426 0.0
H300 H 0.3124 0.68272 0.87849 0.0
H301 H 0.35924 0.7589 0.89619 0.0
H302 H 0.38596 0.73513 0.96179 0.0
H303 H 0.45749 0.55558 0.08205 0.0
H304 H 0.42195 0.59213 0.08137 0.0
H305 H 0.4486 0.64017 0.97535 0.0
H306 H 0.4827 0.60252 0.9745 0.0
H307 H 0.39592 0.64875 0.96802 0.0
H308 H 0.47323 0.65341 0.07835 0.0
H309 H 0.50745 0.63421 0.13996 0.0
H310 H 0.43881 0.61435 0.20615 0.0
H311 H 0.40418 0.633 0.1446 0.0
C312 C 0.3642 0.76433 0.05897 0.0
C313 C 0.33618 0.76977 0.03783 0.0
C314 C 0.37799 0.73883 0.05854 0.0
C315 C 0.36402 0.71753 0.0379 0.0
C316 C 0.33531 0.72198 0.01929 0.0
C317 C 0.32165 0.74792 0.01879 0.0
C318 C 0.3801 0.69135 0.03516 0.0
C319 C 0.39769 0.6778 0.07064 0.0
C320 C 0.37982 0.68075 0.9976 0.0
C321 C 0.364 0.69519 0.95814 0.0
C322 C 0.34335 0.68048 0.93405 0.0
C323 C 0.3284 0.69409 0.89682 0.0
C324 C 0.33407 0.72236 0.88326 0.0
C325 C 0.35479 0.73704 0.90681 0.0
C326 C 0.36982 0.72352 0.94403 0.0
C327 C 0.4554 0.57383 0.05837 0.0
C328 C 0.47287 0.57649 0.02856 0.0
C329 C 0.43522 0.5948 0.05806 0.0
C330 C 0.433 0.61947 0.02901 0.0
C331 C 0.4498 0.6215 0.9982 0.0
C332 C 0.46936 0.60005 0.99775 0.0
C333 C 0.4145 0.64378 0.03209 0.0
C334 C 0.39642 0.6568 0.99682 0.0
C335 C 0.41543 0.65487 0.06937 0.0
C336 C 0.43614 0.64431 0.10678 0.0
C337 C 0.46547 0.64481 0.10601 0.0
C338 C 0.48493 0.63403 0.14089 0.0
C339 C 0.47531 0.623 0.17693 0.0
C340 C 0.44622 0.62285 0.17818 0.0
C341 C 0.42667 0.63354 0.14331 0.0
H342 H 0.49039 0.61462 0.20391 0.0
H343 H 0.32246 0.73286 0.85445 0.0
H344 H 0.86024 0.75516 0.6188 0.0
H345 H 0.88554 0.79646 0.59218 0.0
H346 H 0.81242 0.84919 0.58858 0.0
H347 H 0.7872 0.80769 0.61673 0.0
H348 H 0.88094 0.83447 0.52753 0.0
H349 H 0.83615 0.91406 0.61405 0.0
H350 H 0.81336 0.9146 0.67456 0.0
H351 H 0.85522 0.83619 0.73097 0.0
H352 H 0.87851 0.8354 0.67106 0.0
H353 H 0.95136 0.9648 0.47901 0.0
H354 H 0.91461 0.9292 0.48844 0.0
H355 H 0.9468 0.91566 0.6186 0.0
H356 H 0.9822 0.95254 0.6093 0.0
H357 H 0.89384 0.91343 0.61037 0.0
H358 H 0.96028 0.86804 0.54482 0.0
H359 H 0.98789 0.86425 0.48997 0.0
H360 H 0.91068 0.8685 0.40148 0.0
H361 H 0.88272 0.87252 0.45573 0.0
C362 C 0.8494 0.7755 0.61197 0.0
C363 C 0.82186 0.77821 0.62048 0.0
C364 C 0.86386 0.79913 0.59648 0.0
C365 C 0.85119 0.82615 0.58899 0.0
C366 C 0.82289 0.82868 0.59477 0.0
C367 C 0.80837 0.80491 0.61047 0.0
C368 C 0.86859 0.8515 0.57804 0.0
C369 C 0.88354 0.85186 0.54544 0.0
C370 C 0.87241 0.87414 0.60156 0.0
C371 C 0.85873 0.87451 0.63787 0.0
C372 C 0.8405 0.89697 0.63942 0.0
C373 C 0.82752 0.89732 0.6736 0.0
C374 C 0.83275 0.87538 0.70651 0.0
C375 C 0.85109 0.85311 0.7054 0.0
C376 C 0.86417 0.85269 0.67133 0.0
C377 C 0.95045 0.95416 0.50958 0.0
C378 C 0.96961 0.96127 0.54343 0.0
C379 C 0.92956 0.93367 0.51499 0.0
C380 C 0.92807 0.91911 0.55421 0.0
C381 C 0.94725 0.92648 0.58801 0.0
C382 C 0.96759 0.9475 0.58272 0.0
C383 C 0.90683 0.89612 0.56042 0.0
C384 C 0.89101 0.89628 0.59202 0.0
C385 C 0.9028 0.87354 0.5367 0.0
C386 C 0.91953 0.87095 0.50417 0.0
C387 C 0.94929 0.86838 0.51358 0.0
C388 C 0.96496 0.86615 0.48265 0.0
C389 C 0.95106 0.86628 0.44227 0.0
C390 C 0.92143 0.86848 0.43275 0.0
C391 C 0.90566 0.87069 0.46357 0.0
H392 H 0.96323 0.86459 0.41837 0.0
H393 H 0.82266 0.87568 0.73293 0.0
H394 H 0.7535 0.27052 0.08107 0.0
H395 H 0.73099 0.31472 0.08898 0.0
H396 H 0.66583 0.30529 0.98487 0.0
H397 H 0.68924 0.2628 0.97497 0.0
H398 H 0.67603 0.35678 0.98089 0.0
H399 H 0.65865 0.28601 0.09174 0.0
H400 H 0.67173 0.25032 0.15305 0.0
H401 H 0.71669 0.31347 0.21803 0.0
H402 H 0.70414 0.34947 0.15688 0.0
H403 H 0.55762 0.42892 0.00937 0.0
H404 H 0.59077 0.39047 0.01152 0.0
H405 H 0.65219 0.42737 0.09905 0.0
H406 H 0.61856 0.4658 0.09828 0.0
H407 H 0.65029 0.36729 0.11512 0.0
H408 H 0.65752 0.43947 0.99915 0.0
H409 H 0.63391 0.47172 0.9387 0.0
H410 H 0.59932 0.40045 0.88214 0.0
H411 H 0.62236 0.36782 0.9424 0.0
C412 C 0.7347 0.27817 0.0594 0.0
C413 C 0.72296 0.26263 0.02784 0.0
C414 C 0.72157 0.30331 0.06429 0.0
C415 C 0.69619 0.3132 0.03815 0.0
C416 C 0.68522 0.29825 1.00573 0.0
C417 C 0.69851 0.27357 1.00043 0.0
C418 C 0.68033 0.33855 0.04448 0.0
C419 C 0.67048 0.35891 0.01034 0.0
C420 C 0.67317 0.3419 0.0829 0.0
C421 C 0.68079 0.32032 0.11961 0.0
C422 C 0.67151 0.29222 0.11901 0.0
C423 C 0.6788 0.27195 0.15373 0.0
C424 C 0.69512 0.2796 0.18936 0.0
C425 C 0.70411 0.30756 0.19037 0.0
C426 C 0.69692 0.32791 0.1557 0.0
C427 C 0.57801 0.42892 0.02951 0.0
C428 C 0.58547 0.45095 0.05312 0.0
C429 C 0.59703 0.40682 0.03059 0.0
C430 C 0.62425 0.40635 0.05469 0.0
C431 C 0.63139 0.42743 0.07992 0.0
C432 C 0.61215 0.44951 0.07923 0.0
C433 C 0.64551 0.38468 0.05138 0.0
C434 C 0.65643 0.36527 0.086 0.0
C435 C 0.65301 0.38167 0.01317 0.0
C436 C 0.64157 0.40121 0.97537 0.0
C437 C 0.64501 0.43069 0.97371 0.0
C438 C 0.63163 0.44903 0.93956 0.0
C439 C 0.61497 0.43811 0.90678 0.0
C440 C 0.61216 0.40885 0.90764 0.0
C441 C 0.62543 0.39042 0.94172 0.0
H442 H 0.60411 0.45227 0.88075 0.0
H443 H 0.70072 0.26388 0.21622 0.0
H444 H 0.15601 0.84674 0.06134 0.0
H445 H 0.13436 0.8634 0.11454 0.0
H446 H 0.21705 0.88389 0.17757 0.0
H447 H 0.23897 0.86882 0.12329 0.0
H448 H 0.16446 0.84957 0.22262 0.0
H449 H 0.19764 0.9362 0.14468 0.0
H450 H 0.20189 0.96516 0.07886 0.0
H451 H 0.11115 0.96504 0.0419 0.0
H452 H 0.10645 0.93566 0.1073 0.0
H453 H 0.11321 0.92685 0.36068 0.0
H454 H 0.14237 0.90956 0.31668 0.0
H455 H 0.07906 0.93858 0.21064 0.0
H456 H 0.05128 0.95867 0.25378 0.0
H457 H 0.12556 0.9476 0.18896 0.0
H458 H 0.08904 0.86499 0.26174 0.0
H459 H 0.07995 0.83253 0.32225 0.0
H460 H 0.16977 0.82047 0.36396 0.0
H461 H 0.17939 0.85315 0.30392 0.0
C462 C 0.16972 0.8548 0.08642 0.0
C463 C 0.1993 0.85675 0.08749 0.0
C464 C 0.15726 0.86408 0.11698 0.0
C465 C 0.1741 0.875 0.14975 0.0
C466 C 0.20372 0.87547 0.15246 0.0
C467 C 0.21622 0.86663 0.12147 0.0
C468 C 0.16036 0.88776 0.17929 0.0
C469 C 0.15636 0.87116 0.21583 0.0
C470 C 0.14894 0.9155 0.16952 0.0
C471 C 0.15173 0.93351 0.1306 0.0
C472 C 0.17863 0.94213 0.12233 0.0
C473 C 0.18112 0.95866 0.08516 0.0
C474 C 0.15681 0.96687 0.05616 0.0
C475 C 0.12996 0.95863 0.06435 0.0
C476 C 0.12738 0.94206 0.10147 0.0
C477 C 0.10565 0.93022 0.32794 0.0
C478 C 0.0795 0.94411 0.31118 0.0
C479 C 0.12222 0.91972 0.30274 0.0
C480 C 0.11272 0.92194 0.2602 0.0
C481 C 0.08695 0.93628 0.24331 0.0
C482 C 0.07075 0.94744 0.26831 0.0
C483 C 0.12944 0.90951 0.23312 0.0
C484 C 0.13387 0.9261 0.19656 0.0
C485 C 0.14066 0.88146 0.24256 0.0
C486 C 0.13493 0.86174 0.27859 0.0
C487 C 0.10684 0.85556 0.28397 0.0
C488 C 0.1016 0.8371 0.31815 0.0
C489 C 0.12427 0.82451 0.34699 0.0
C490 C 0.15223 0.83028 0.34164 0.0
C491 C 0.15759 0.84875 0.30752 0.0
H492 H 0.12016 0.81023 0.37344 0.0
H493 H 0.15877 0.97966 0.02739 0.0
H494 H 0.64033 0.69329 0.67312 0.0
H495 H 0.61586 0.66987 0.72716 0.0
H496 H 0.69617 0.63765 0.79735 0.0
H497 H 0.72068 0.66069 0.74342 0.0
H498 H 0.6555 0.59629 0.78918 0.0
H499 H 0.66254 0.69032 0.82705 0.0
H500 H 0.65554 0.74215 0.81503 0.0
H501 H 0.5652 0.73133 0.78595 0.0
H502 H 0.57169 0.67941 0.79725 0.0
H503 H 0.60791 0.53531 0.97012 0.0
H504 H 0.63268 0.56241 0.91966 0.0
H505 H 0.55524 0.6089 0.8655 0.0
H506 H 0.53129 0.58357 0.91847 0.0
H507 H 0.59455 0.64394 0.86485 0.0
H508 H 0.58538 0.5516 0.82305 0.0
H509 H 0.59051 0.49984 0.82712 0.0
H510 H 0.68128 0.50684 0.85673 0.0
H511 H 0.6767 0.55859 0.85326 0.0
C512 C 0.65278 0.68137 0.70021 0.0
C513 C 0.68248 0.67895 0.70398 0.0
C514 C 0.63879 0.66814 0.73118 0.0
C515 C 0.65419 0.6521 0.76646 0.0
C516 C 0.68385 0.64997 0.7705 0.0
C517 C 0.69786 0.66336 0.73976 0.0
C518 C 0.63936 0.63627 0.79817 0.0
C519 C 0.64246 0.60671 0.80618 0.0
C520 C 0.62154 0.64977 0.81925 0.0
C521 C 0.61763 0.68098 0.81261 0.0
C522 C 0.6412 0.69899 0.81776 0.0
C523 C 0.63732 0.72839 0.81114 0.0
C524 C 0.60995 0.74003 0.79963 0.0
C525 C 0.58639 0.72229 0.79482 0.0
C526 C 0.59016 0.69287 0.80137 0.0
C527 C 0.59633 0.55161 0.94781 0.0
C528 C 0.56779 0.55756 0.94864 0.0
C529 C 0.61037 0.56681 0.91839 0.0
C530 C 0.59583 0.58753 0.88796 0.0
C531 C 0.56711 0.59316 0.88851 0.0
C532 C 0.55331 0.57847 0.91862 0.0
C533 C 0.61056 0.60366 0.85606 0.0
C534 C 0.6075 0.63335 0.84794 0.0
C535 C 0.62803 0.5902 0.83423 0.0
C536 C 0.63068 0.55895 0.83814 0.0
C537 C 0.60641 0.54207 0.83086 0.0
C538 C 0.60923 0.51274 0.83294 0.0
C539 C 0.63622 0.5001 0.84205 0.0
C540 C 0.66041 0.51669 0.84958 0.0
C541 C 0.65772 0.546 0.84753 0.0
H542 H 0.63847 0.47747 0.84307 0.0
H543 H 0.60699 0.76279 0.79452 0.0
H544 H 0.82453 0.14133 0.14187 0.0
H545 H 0.84964 0.11769 0.2078 0.0
H546 H 0.9263 0.16229 0.18718 0.0
H547 H 0.9014 0.18518 0.12058 0.0
H548 H 0.93908 0.11011 0.21101 0.0
H549 H 0.88512 0.17667 0.26068 0.0
H550 H 0.84243 0.20215 0.26862 0.0
H551 H 0.80731 0.12396 0.31773 0.0
H552 H 0.84963 0.09794 0.30954 0.0
H553 H 1.01475 0.08452 0.41739 0.0
H554 H 0.98627 0.10766 0.35338 0.0
H555 H 0.92588 0.03955 0.35698 0.0
H556 H 0.95487 0.01586 0.4208 0.0
H557 H 0.9041 0.10152 0.34306 0.0
H558 H 0.96036 0.03594 0.29206 0.0
H559 H 1.00525 0.01306 0.28711 0.0
H560 H 0.03842 0.09378 0.24404 0.0
H561 H 0.99377 0.11721 0.24904 0.0
C562 C 0.84657 0.14653 0.15188 0.0
C563 C 0.861 0.16518 0.12623 0.0
C564 C 0.86095 0.133 0.1896 0.0
C565 C 0.88992 0.13827 0.20281 0.0
C566 C 0.90403 0.1577 0.17773 0.0
C567 C 0.88977 0.17091 0.13978 0.0
C568 C 0.90595 0.12235 0.24145 0.0
C569 C 0.93148 0.10863 0.23989 0.0
C570 C 0.89595 0.11975 0.27923 0.0
C571 C 0.87041 0.13531 0.28403 0.0
C572 C 0.86818 0.16487 0.27281 0.0
C573 C 0.84407 0.17942 0.27743 0.0
C574 C 0.82213 0.16467 0.29354 0.0
C575 C 0.8243 0.13535 0.30518 0.0
C576 C 0.84835 0.12069 0.30057 0.0
C577 C 0.99555 0.07437 0.40423 0.0
C578 C 0.98698 0.0484 0.4236 0.0
C579 C 0.97932 0.0876 0.36784 0.0
C580 C 0.95404 0.07528 0.3506 0.0
C581 C 0.94536 0.04932 0.36994 0.0
C582 C 0.96198 0.03574 0.40599 0.0
C583 C 0.93693 0.08971 0.31219 0.0
C584 C 0.91139 0.1031 0.31394 0.0
C585 C 0.94708 0.09242 0.27475 0.0
C586 C 0.97382 0.07836 0.27129 0.0
C587 C 0.97731 0.04885 0.28186 0.0
C588 C 1.0027 0.03577 0.279 0.0
C589 C 0.02473 0.05196 0.26547 0.0
C590 C 0.02136 0.08126 0.25458 0.0
C591 C 0.99599 0.09445 0.25733 0.0
H592 H 0.04437 0.04178 0.26332 0.0
H593 H 0.80349 0.17597 0.29711 0.0
H594 H 0.35438 0.39607 0.48742 0.0
H595 H 0.37233 0.41762 0.54863 0.0
H596 H 0.39974 0.33545 0.61452 0.0
H597 H 0.38289 0.31389 0.55264 0.0
H598 H 0.36402 0.41485 0.62406 0.0
H599 H 0.46292 0.34241 0.67766 0.0
H600 H 0.49321 0.31192 0.64903 0.0
H601 H 0.47172 0.36249 0.5309 0.0
H602 H 0.44163 0.39346 0.55896 0.0
H603 H 0.43744 0.45417 0.81132 0.0
H604 H 0.41416 0.4262 0.75946 0.0
H605 H 0.47658 0.45352 0.68388 0.0
H606 H 0.50075 0.48043 0.7364 0.0
H607 H 0.46652 0.39969 0.68171 0.0
H608 H 0.40903 0.48343 0.66551 0.0
H609 H 0.38016 0.51872 0.68757 0.0
H610 H 0.32136 0.45396 0.71994 0.0
H611 H 0.35011 0.41819 0.69856 0.0
C612 C 0.36405 0.38253 0.51503 0.0
C613 C 0.3676 0.35332 0.51494 0.0
C614 C 0.37412 0.39486 0.55014 0.0
C615 C 0.38789 0.37827 0.58603 0.0
C616 C 0.38965 0.34878 0.58696 0.0
C617 C 0.37973 0.33642 0.55168 0.0
C618 C 0.40209 0.39229 0.62111 0.0
C619 C 0.38637 0.41132 0.63692 0.0
C620 C 0.43143 0.38824 0.63738 0.0
C621 C 0.44978 0.37001 0.62032 0.0
C622 C 0.46475 0.34705 0.64561 0.0
C623 C 0.48187 0.32969 0.62949 0.0
C624 C 0.4843 0.3352 0.58814 0.0
C625 C 0.46973 0.35817 0.56288 0.0
C626 C 0.45263 0.37562 0.57887 0.0
C627 C 0.44648 0.45393 0.78394 0.0
C628 C 0.47097 0.4697 0.77805 0.0
C629 C 0.43294 0.43814 0.75408 0.0
C630 C 0.44337 0.438 0.71746 0.0
C631 C 0.46805 0.45332 0.7118 0.0
C632 C 0.4817 0.46898 0.74172 0.0
C633 C 0.42845 0.42226 0.68472 0.0
C634 C 0.44407 0.4029 0.66933 0.0
C635 C 0.39922 0.42664 0.66803 0.0
C636 C 0.38189 0.44809 0.68087 0.0
C637 C 0.39006 0.47668 0.67764 0.0
C638 C 0.3737 0.49677 0.68997 0.0
C639 C 0.34899 0.48857 0.70527 0.0
C640 C 0.34054 0.46027 0.70816 0.0
C641 C 0.35685 0.44008 0.69592 0.0
H642 H 0.33634 0.50416 0.71478 0.0
H643 H 0.49753 0.32172 0.57571 0.0
H644 H 0.64678 0.70053 0.55489 0.0
H645 H 0.62708 0.68118 0.49219 0.0
H646 H 0.71072 0.65302 0.48329 0.0
H647 H 0.73059 0.67218 0.54624 0.0
H648 H 0.67899 0.67336 0.40703 0.0
H649 H 0.66774 0.60748 0.5256 0.0
H650 H 0.65305 0.59262 0.59234 0.0
H651 H 0.56613 0.61285 0.53823 0.0
H652 H 0.58038 0.62829 0.47127 0.0
H653 H 0.63394 0.56596 0.28047 0.0
H654 H 0.6562 0.5935 0.33375 0.0
H655 H 0.57332 0.61742 0.35231 0.0
H656 H 0.55101 0.58994 0.29926 0.0
H657 H 0.60582 0.59957 0.42334 0.0
H658 H 0.61681 0.6648 0.30417 0.0
H659 H 0.63159 0.6801 0.2376 0.0
H660 H 0.71866 0.66113 0.29217 0.0
H661 H 0.70435 0.64533 0.35899 0.0
C662 C 0.66104 0.69047 0.53937 0.0
C663 C 0.69022 0.68765 0.55584 0.0
C664 C 0.64976 0.67945 0.50351 0.0
C665 C 0.66735 0.66521 0.48342 0.0
C666 C 0.69674 0.66387 0.49831 0.0
C667 C 0.70808 0.67494 0.53425 0.0
C668 C 0.65474 0.64997 0.44884 0.0
C669 C 0.66321 0.65701 0.41063 0.0
C670 C 0.63385 0.62891 0.45339 0.0
C671 C 0.62517 0.6193 0.49351 0.0
C672 C 0.64552 0.60896 0.528 0.0
C673 C 0.63727 0.60041 0.56586 0.0
C674 C 0.60869 0.60186 0.56955 0.0
C675 C 0.58828 0.61178 0.53534 0.0
C676 C 0.59642 0.62042 0.49742 0.0
C677 C 0.62047 0.57744 0.29547 0.0
C678 C 0.59069 0.57561 0.28574 0.0
C679 C 0.63323 0.59319 0.32596 0.0
C680 C 0.61646 0.60769 0.34702 0.0
C681 C 0.58673 0.60633 0.33671 0.0
C682 C 0.574 0.59053 0.30642 0.0
C683 C 0.62973 0.62315 0.38113 0.0
C684 C 0.62149 0.61601 0.41949 0.0
C685 C 0.6508 0.64406 0.37661 0.0
C686 C 0.65947 0.65361 0.3365 0.0
C687 C 0.63908 0.66367 0.30191 0.0
C688 C 0.64738 0.67247 0.26414 0.0
C689 C 0.67603 0.67151 0.26063 0.0
C690 C 0.69646 0.66182 0.29492 0.0
C691 C 0.68828 0.65296 0.33276 0.0
H692 H 0.68241 0.67834 0.23137 0.0
H693 H 0.60234 0.59524 0.59889 0.0
H694 H 0.86667 0.12547 0.00691 0.0
H695 H 0.88989 0.11045 0.9542 0.0
H696 H 0.87851 0.19441 0.88537 0.0
H697 H 0.85422 0.20929 0.93791 0.0
H698 H 0.86995 0.15633 0.83443 0.0
H699 H 0.94364 0.17165 0.94466 0.0
H700 H 0.96851 0.1674 0.01634 0.0
H701 H 0.97624 0.07743 0.02048 0.0
H702 H 0.95103 0.08107 0.94899 0.0
H703 H 0.97628 0.12484 0.71631 0.0
H704 H 0.94911 0.14633 0.75989 0.0
H705 H 0.94412 0.06497 0.83317 0.0
H706 H 0.97047 0.04324 0.78941 0.0
H707 H 0.96322 0.10711 0.87961 0.0
H708 H 0.88677 0.09302 0.76875 0.0
H709 H 0.86267 0.09881 0.6966 0.0
H710 H 0.8623 0.18916 0.69294 0.0
H711 H 0.88678 0.18392 0.76495 0.0
C712 C 0.86914 0.14075 0.98055 0.0
C713 C 0.85906 0.16867 0.97679 0.0
C714 C 0.88248 0.13217 0.95045 0.0
C715 C 0.88669 0.15147 0.91623 0.0
C716 C 0.87574 0.17917 0.91162 0.0
C717 C 0.86192 0.18768 0.94161 0.0
C718 C 0.90293 0.14254 0.88597 0.0
C719 C 0.89056 0.14601 0.84424 0.0
C720 C 0.92981 0.12889 0.89862 0.0
C721 C 0.94526 0.12662 0.94153 0.0
C722 C 0.95049 0.15093 0.96093 0.0
C723 C 0.96467 0.14864 1.00152 0.0
C724 C 0.9739 0.12216 0.02297 0.0
C725 C 0.96905 0.09793 1.00383 0.0
C726 C 0.95486 0.1001 0.96325 0.0
C727 C 0.96897 0.11141 0.74125 0.0
C728 C 0.97586 0.08231 0.74951 0.0
C729 C 0.95352 0.12377 0.76622 0.0
C730 C 0.94466 0.10727 0.7999 0.0
C731 C 0.95094 0.07816 0.80759 0.0
C732 C 0.96617 0.0658 0.7826 0.0
C733 C 0.9299 0.12023 0.82837 0.0
C734 C 0.94269 0.11764 0.8698 0.0
C735 C 0.90367 0.13495 0.81531 0.0
C736 C 0.8889 0.13809 0.77208 0.0
C737 C 0.88179 0.11413 0.75245 0.0
C738 C 0.86801 0.11731 0.7116 0.0
C739 C 0.86104 0.14434 0.69015 0.0
C740 C 0.86776 0.16824 0.70956 0.0
C741 C 0.88157 0.16518 0.7504 0.0
H742 H 0.85036 0.14675 0.65854 0.0
H743 H 0.98486 0.12042 0.05441 0.0
H744 H 0.39461 0.32288 0.34937 0.0
H745 H 0.41679 0.34855 0.2949 0.0
H746 H 0.39099 0.42794 0.32531 0.0
H747 H 0.36719 0.40239 0.37807 0.0
H748 H 0.38526 0.43248 0.24725 0.0
H749 H 0.46061 0.40012 0.35665 0.0
H750 H 0.48935 0.36568 0.40927 0.0
H751 H 0.50891 0.32028 0.31577 0.0
H752 H 0.47993 0.35423 0.26258 0.0
H753 H 0.48219 0.51737 0.14249 0.0
H754 H 0.45687 0.49306 0.19455 0.0
H755 H 0.47623 0.41251 0.16101 0.0
H756 H 0.50334 0.43671 0.11101 0.0
H757 H 0.48526 0.40992 0.24143 0.0
H758 H 0.39533 0.43795 0.13733 0.0
H759 H 0.36401 0.47328 0.08943 0.0
H760 H 0.37657 0.53098 0.178 0.0
H761 H 0.40652 0.49533 0.22731 0.0
C762 C 0.39309 0.34577 0.34399 0.0
C763 C 0.37919 0.36049 0.3685 0.0
C764 C 0.40623 0.36049 0.31315 0.0
C765 C 0.40624 0.39028 0.30649 0.0
C766 C 0.39156 0.40499 0.32995 0.0
C767 C 0.37814 0.3903 0.36045 0.0
C768 C 0.42168 0.40614 0.27538 0.0
C769 C 0.40723 0.42765 0.24639 0.0
C770 C 0.45036 0.40001 0.2738 0.0
C771 C 0.46785 0.37955 0.30567 0.0
C772 C 0.47086 0.38266 0.34733 0.0
C773 C 0.48722 0.36325 0.37725 0.0
C774 C 0.50088 0.34076 0.36587 0.0
C775 C 0.49827 0.33768 0.32453 0.0
C776 C 0.4819 0.35701 0.29448 0.0
C777 C 0.48098 0.49447 0.14613 0.0
C778 C 0.49417 0.47897 0.12183 0.0
C779 C 0.46611 0.48059 0.17556 0.0
C780 C 0.46376 0.45092 0.18099 0.0
C781 C 0.47728 0.43542 0.15707 0.0
C782 C 0.49246 0.44929 0.12803 0.0
C783 C 0.44866 0.43585 0.21305 0.0
C784 C 0.46325 0.41457 0.24233 0.0
C785 C 0.42036 0.44256 0.21554 0.0
C786 C 0.40341 0.46427 0.18558 0.0
C787 C 0.39152 0.45826 0.14639 0.0
C788 C 0.37395 0.47825 0.1191 0.0
C789 C 0.36878 0.50454 0.13031 0.0
C790 C 0.38072 0.51069 0.16922 0.0
C791 C 0.39771 0.4905 0.19701 0.0
H792 H 0.35532 0.52002 0.10899 0.0
H793 H 0.51355 0.32576 0.38909 0.0
H794 H 0.15264 0.85269 0.94465 0.0
H795 H 0.12706 0.87618 0.87895 0.0
H796 H 0.2056 0.91207 0.84947 0.0
H797 H 0.23116 0.88936 0.91566 0.0
H798 H 0.1648 0.95158 0.83429 0.0
H799 H 0.17328 0.85789 0.80214 0.0
H800 H 0.16901 0.80587 0.81114 0.0
H801 H 0.07844 0.81348 0.79954 0.0
H802 H 0.0822 0.86557 0.79106 0.0
H803 H 0.11018 1.00471 0.62687 0.0
H804 H 0.13718 0.9789 0.68983 0.0
H805 H 0.05975 0.94074 0.72034 0.0
H806 H 0.0329 0.96558 0.65615 0.0
H807 H 0.10096 0.90201 0.73392 0.0
H808 H 0.09298 0.99564 0.76967 0.0
H809 H 0.09709 0.04773 0.75806 0.0
H810 H 0.18691 0.0399 0.76169 0.0
H811 H 0.18323 0.98777 0.77288 0.0
C812 C 0.16449 0.8655 0.92411 0.0
C813 C 0.19397 0.86907 0.93543 0.0
C814 C 0.14987 0.87876 0.88641 0.0
C815 C 0.16442 0.89575 0.85906 0.0
C816 C 0.19392 0.89902 0.87 0.0
C817 C 0.20856 0.88576 0.9077 0.0
C818 C 0.14871 0.91107 0.81988 0.0
C819 C 0.15115 0.94066 0.81212 0.0
C820 C 0.13039 0.89697 0.79125 0.0
C821 C 0.12806 0.86564 0.79638 0.0
C822 C 0.15247 0.84848 0.80187 0.0
C823 C 0.15014 0.81898 0.8068 0.0
C824 C 0.12348 0.80638 0.80602 0.0
C825 C 0.09908 0.82327 0.8002 0.0
C826 C 0.1013 0.85278 0.79529 0.0
C827 C 0.09899 0.99069 0.64696 0.0
C828 C 0.06959 0.98679 0.63649 0.0
C829 C 0.11437 0.97617 0.68314 0.0
C830 C 0.1005 0.95802 0.71011 0.0
C831 C 0.07095 0.95455 0.7 0.0
C832 C 0.05559 0.96891 0.66356 0.0
C833 C 0.11684 0.94249 0.74864 0.0
C834 C 0.11458 0.91288 0.7562 0.0
C835 C 0.13531 0.95655 0.77712 0.0
C836 C 0.13777 0.98786 0.77177 0.0
C837 C 0.11356 1.00507 0.76782 0.0
C838 C 0.11582 0.03458 0.76134 0.0
C839 C 0.14224 0.04711 0.75903 0.0
C840 C 0.16647 0.03016 0.76346 0.0
C841 C 0.16431 1.00063 0.76996 0.0
H842 H 0.14394 0.06995 0.75388 0.0
H843 H 0.12172 0.78354 0.80984 0.0
loop_
_geom_bond_atom_site_label_1
_geom_bond_atom_site_label_2
_geom_bond_distance
_geom_bond_site_symmetry_2
_ccdc_geom_bond_type
H0 C1 0.949 . S
C1 H0 0.949 . S
C1 C2 1.395 . S
C1 C3 1.391 . S
C2 C1 1.395 . S
C2 C5 1.390 . S
C3 C1 1.391 . S
C3 C7 1.387 1_554 S
C3 C8 1.491 . S
H4 C5 0.950 . S
C5 C2 1.390 . S
C5 H4 0.950 . S
C5 C6 1.378 1_554 S
C6 C5 1.378 1_556 S
C6 C7 1.409 . S
C7 C3 1.387 1_556 S
C7 C6 1.409 . S
C7 H9 0.951 . S
C8 C3 1.491 . S
C8 C10 1.382 . S
C8 C12 1.404 1_554 S
H9 C7 0.951 . S
C10 C8 1.382 . S
C10 C11 1.390 . S
C10 H15 0.949 . S
C11 C10 1.390 . S
C11 C16 1.399 . S
C12 C8 1.404 1_556 S
C12 H13 0.950 . S
C12 C14 1.375 . S
H13 C12 0.950 . S
C14 C12 1.375 . S
C14 C16 1.382 1_556 S
C14 H18 0.950 . S
H15 C10 0.949 . S
C16 C11 1.399 . S
C16 C14 1.382 1_554 S
C16 H17 0.952 . S
H17 C16 0.952 . S
H18 C14 0.950 . S
H19 C20 0.949 . S
C20 H19 0.949 . S
C20 C21 1.395 . S
C20 C22 1.391 . S
C21 C20 1.395 . S
C21 C24 1.390 . S
C22 C20 1.391 . S
C22 C26 1.387 . S
C22 C27 1.491 . S
H23 C24 0.950 . S
C24 C21 1.390 . S
C24 H23 0.950 . S
C24 C25 1.378 . S
C25 C24 1.378 . S
C25 C26 1.409 . S
C26 C22 1.387 . S
C26 C25 1.409 . S
C26 H28 0.951 . S
C27 C22 1.491 . S
C27 C29 1.382 . S
C27 C31 1.404 . S
H28 C26 0.951 . S
C29 C27 1.382 . S
C29 C30 1.390 . S
C29 H34 0.949 . S
C30 C29 1.390 . S
C30 C35 1.399 . S
C31 C27 1.404 . S
C31 H32 0.950 . S
C31 C33 1.375 . S
H32 C31 0.950 . S
C33 C31 1.375 . S
C33 C35 1.382 . S
C33 H37 0.950 . S
H34 C29 0.949 . S
C35 C30 1.399 . S
C35 C33 1.382 . S
C35 H36 0.952 . S
H36 C35 0.952 . S
H37 C33 0.950 . S
H38 C39 0.949 . S
C39 H38 0.949 . S
C39 C40 1.395 . S
C39 C41 1.391 . S
C40 C39 1.395 . S
C40 C43 1.390 . S
C41 C39 1.391 . S
C41 C45 1.387 1_554 S
C41 C46 1.491 1_554 S
H42 C43 0.950 . S
C43 C40 1.390 . S
C43 H42 0.950 . S
C43 C44 1.378 1_554 S
C44 C43 1.378 1_556 S
C44 C45 1.409 . S
C45 C41 1.387 1_556 S
C45 C44 1.409 . S
C45 H47 0.951 . S
C46 C41 1.491 1_556 S
C46 C48 1.382 1_556 S
C46 C50 1.404 . S
H47 C45 0.951 . S
C48 C46 1.382 1_554 S
C48 C49 1.390 . S
C48 H53 0.949 . S
C49 C48 1.390 . S
C49 C54 1.399 1_554 S
C50 C46 1.404 . S
C50 H51 0.950 . S
C50 C52 1.375 . S
H51 C50 0.950 . S
C52 C50 1.375 . S
C52 C54 1.382 . S
C52 H56 0.950 . S
H53 C48 0.949 . S
C54 C49 1.399 1_556 S
C54 C52 1.382 . S
C54 H55 0.952 . S
H55 C54 0.952 . S
H56 C52 0.950 . S
H57 C58 0.949 . S
C58 H57 0.949 . S
C58 C59 1.395 . S
C58 C60 1.391 . S
C59 C58 1.395 . S
C59 C62 1.390 . S
C60 C58 1.391 . S
C60 C64 1.387 . S
C60 C65 1.491 . S
H61 C62 0.950 . S
C62 C59 1.390 . S
C62 H61 0.950 . S
C62 C63 1.378 . S
C63 C62 1.378 . S
C63 C64 1.409 . S
C64 C60 1.387 . S
C64 C63 1.409 . S
C64 H66 0.951 . S
C65 C60 1.491 . S
C65 C67 1.382 . S
C65 C69 1.404 . S
H66 C64 0.951 . S
C67 C65 1.382 . S
C67 C68 1.390 . S
C67 H72 0.949 . S
C68 C67 1.390 . S
C68 C73 1.399 . S
C69 C65 1.404 . S
C69 H70 0.950 . S
C69 C71 1.375 . S
H70 C69 0.950 . S
C71 C69 1.375 . S
C71 C73 1.382 . S
C71 H75 0.950 . S
H72 C67 0.949 . S
C73 C68 1.399 . S
C73 C71 1.382 . S
C73 H74 0.952 . S
H74 C73 0.952 . S
H75 C71 0.950 . S
Tb76 N105 2.617 . S
Tb76 N111 2.572 . S
Tb76 O120 2.465 . S
Tb76 O121 2.387 . S
Tb76 O123 2.428 . S
Tb76 O124 2.308 1_565 S
Tb76 O128 2.349 1_565 S
Tb76 O131 2.393 1_455 S
Tb76 C140 2.802 . S
C77 N78 1.379 . S
C77 C80 1.416 . S
C77 C84 1.424 . S
N78 C77 1.379 . S
N78 C81 1.334 1_655 S
N78 Tb87 2.617 . S
C79 C81 1.390 . S
C79 C82 1.339 1_455 S
C79 H99 0.930 . S
C80 C77 1.416 . S
C80 C82 1.416 . S
C80 C86 1.448 . S
C81 N78 1.334 1_455 S
C81 C79 1.390 . S
C81 H92 0.930 . S
C82 C79 1.339 1_655 S
C82 C80 1.416 . S
C82 H103 0.930 . S
C83 C84 1.413 . S
C83 C85 1.427 . S
C83 C89 1.416 . S
C84 C77 1.424 . S
C84 C83 1.413 . S
C84 N88 1.361 . S
C85 C83 1.427 . S
C85 C86 1.328 . S
C85 H100 0.929 . S
C86 C80 1.448 . S
C86 C85 1.328 . S
C86 H101 0.930 . S
Tb87 N78 2.617 . S
Tb87 N88 2.572 . S
Tb87 O122 2.349 1_655 S
Tb87 O125 2.393 1_655 S
Tb87 O126 2.465 . S
Tb87 O127 2.387 . S
Tb87 O129 2.428 1_655 S
Tb87 O130 2.308 1_545 S
Tb87 C151 2.802 . S
N88 C84 1.361 . S
N88 Tb87 2.572 . S
N88 C90 1.340 . S
C89 C83 1.416 . S
C89 C91 1.332 . S
C89 H97 0.931 . S
C90 N88 1.340 . S
C90 C91 1.407 . S
C90 H96 0.930 . S
C91 C89 1.332 . S
C91 C90 1.407 . S
C91 H93 0.929 . S
H92 C81 0.930 . S
H93 C91 0.929 . S
H94 C109 0.930 1_655 S
H95 C116 0.929 . S
H96 C90 0.930 . S
H97 C89 0.931 . S
H98 C112 0.930 . S
H99 C79 0.930 . S
H100 C85 0.929 . S
H101 C86 0.930 . S
H102 C107 0.930 1_655 S
H103 C82 0.930 . S
H104 C115 0.931 . S
N105 Tb76 2.617 . S
N105 C106 1.379 . S
N105 C109 1.334 . S
C106 N105 1.379 . S
C106 C108 1.416 . S
C106 C114 1.424 . S
C107 H102 0.930 1_455 S
C107 C109 1.390 . S
C107 C110 1.339 . S
C108 C106 1.416 . S
C108 C110 1.416 . S
C108 C141 1.448 . S
C109 H94 0.930 1_455 S
C109 N105 1.334 . S
C109 C107 1.390 . S
C110 C107 1.339 . S
C110 C108 1.416 . S
C110 H117 0.930 . S
N111 Tb76 2.572 . S
N111 C112 1.340 . S
N111 C114 1.361 . S
C112 H98 0.930 . S
C112 N111 1.340 . S
C112 C116 1.407 . S
C113 C114 1.413 . S
C113 C115 1.416 . S
C113 C142 1.427 . S
C114 C106 1.424 . S
C114 N111 1.361 . S
C114 C113 1.413 . S
C115 H104 0.931 . S
C115 C113 1.416 . S
C115 C116 1.332 . S
C116 H95 0.929 . S
C116 C112 1.407 . S
C116 C115 1.332 . S
H117 C110 0.930 . S
H118 C141 0.930 . S
H119 C142 0.929 . S
O120 Tb76 2.465 . S
O120 C140 1.264 . S
O121 Tb76 2.387 . S
O121 C132 1.264 . S
O122 Tb87 2.349 1_455 S
O122 C132 1.243 1_545 S
O123 Tb76 2.428 . S
O123 C140 1.256 . S
O124 Tb76 2.308 1_545 S
O124 C139 1.266 . S
O125 Tb87 2.393 1_455 S
O125 C139 1.248 . S
O126 Tb87 2.465 . S
O126 C151 1.264 . S
O127 Tb87 2.387 . S
O127 C143 1.264 . S
O128 Tb76 2.349 1_545 S
O128 C143 1.243 1_455 S
O129 Tb87 2.428 1_455 S
O129 C151 1.256 1_455 S
O130 Tb87 2.308 1_565 S
O130 C150 1.266 . S
O131 Tb76 2.393 1_655 S
O131 C150 1.248 . S
C132 O121 1.264 . S
C132 O122 1.243 1_565 S
C133 C136 1.399 . S
C133 C138 1.383 . S
C133 C140 1.496 . S
C134 C135 1.399 . S
C134 C138 1.389 . S
C135 C134 1.399 . S
C135 C137 1.380 . S
C135 H152 0.929 . S
C136 C133 1.399 . S
C136 C137 1.392 . S
C136 H153 0.929 . S
C137 C135 1.380 . S
C137 C136 1.392 . S
C137 H154 0.929 . S
C138 C133 1.383 . S
C138 C134 1.389 . S
C138 H155 0.931 . S
C139 O124 1.266 . S
C139 O125 1.248 . S
C140 Tb76 2.802 . S
C140 O120 1.264 . S
C140 O123 1.256 . S
C140 C133 1.496 . S
C141 C108 1.448 . S
C141 H118 0.930 . S
C141 C142 1.328 . S
C142 C113 1.427 . S
C142 H119 0.929 . S
C142 C141 1.328 . S
C143 O127 1.264 . S
C143 O128 1.243 1_655 S
C144 C147 1.399 . S
C144 C148 1.383 . S
C144 C151 1.496 . S
C145 C146 1.399 . S
C145 C148 1.389 . S
C146 C145 1.399 . S
C146 C149 1.380 . S
C146 H156 0.929 . S
C147 C144 1.399 . S
C147 C149 1.392 . S
C147 H157 0.929 1_655 S
C148 C144 1.383 . S
C148 C145 1.389 . S
C148 H158 0.931 . S
C149 C146 1.380 . S
C149 C147 1.392 . S
C149 H159 0.929 . S
C150 O130 1.266 . S
C150 O131 1.248 . S
C151 Tb87 2.802 . S
C151 O126 1.264 . S
C151 O129 1.256 1_655 S
C151 C144 1.496 . S
H152 C135 0.929 . S
H153 C136 0.929 . S
H154 C137 0.929 . S
H155 C138 0.931 . S
H156 C146 0.929 . S
H157 C147 0.929 1_455 S
H158 C148 0.931 . S
H159 C149 0.929 . S
Tb160 N189 2.617 . S
Tb160 N195 2.572 1_556 S
Tb160 O204 2.465 . S
Tb160 O205 2.387 1_556 S
Tb160 O207 2.428 . S
Tb160 O208 2.308 1_556 S
Tb160 O212 2.349 . S
Tb160 O215 2.393 1_556 S
Tb160 C224 2.802 . S
C161 N162 1.379 . S
C161 C164 1.416 . S
C161 C168 1.424 . S
N162 C161 1.379 . S
N162 C165 1.334 . S
N162 Tb171 2.617 . S
C163 C165 1.390 . S
C163 C166 1.339 . S
C163 H183 0.930 . S
C164 C161 1.416 . S
C164 C166 1.416 . S
C164 C170 1.448 . S
C165 N162 1.334 . S
C165 C163 1.390 . S
C165 H176 0.930 . S
C166 C163 1.339 . S
C166 C164 1.416 . S
C166 H187 0.930 . S
C167 C168 1.413 . S
C167 C169 1.427 . S
C167 C173 1.416 . S
C168 C161 1.424 . S
C168 C167 1.413 . S
C168 N172 1.361 . S
C169 C167 1.427 . S
C169 C170 1.328 . S
C169 H184 0.929 . S
C170 C164 1.448 . S
C170 C169 1.328 . S
C170 H185 0.930 . S
Tb171 N162 2.617 . S
Tb171 N172 2.572 . S
Tb171 O206 2.349 . S
Tb171 O209 2.393 . S
Tb171 O210 2.465 . S
Tb171 O211 2.387 . S
Tb171 O213 2.428 . S
Tb171 O214 2.308 . S
Tb171 C235 2.802 . S
N172 C168 1.361 . S
N172 Tb171 2.572 . S
N172 C174 1.340 . S
C173 C167 1.416 . S
C173 C175 1.332 . S
C173 H181 0.931 . S
C174 N172 1.340 . S
C174 C175 1.407 . S
C174 H180 0.930 . S
C175 C173 1.332 . S
C175 C174 1.407 . S
C175 H177 0.929 . S
H176 C165 0.930 . S
H177 C175 0.929 . S
H178 C193 0.930 . S
H179 C200 0.929 . S
H180 C174 0.930 . S
H181 C173 0.931 . S
H182 C196 0.930 . S
H183 C163 0.930 . S
H184 C169 0.929 . S
H185 C170 0.930 . S
H186 C191 0.930 . S
H187 C166 0.930 . S
H188 C199 0.931 . S
N189 Tb160 2.617 . S
N189 C190 1.379 1_556 S
N189 C193 1.334 . S
C190 N189 1.379 1_554 S
C190 C192 1.416 . S
C190 C198 1.424 . S
C191 H186 0.930 . S
C191 C193 1.390 . S
C191 C194 1.339 1_556 S
C192 C190 1.416 . S
C192 C194 1.416 . S
C192 C225 1.448 . S
C193 H178 0.930 . S
C193 N189 1.334 . S
C193 C191 1.390 . S
C194 C191 1.339 1_554 S
C194 C192 1.416 . S
C194 H201 0.930 . S
N195 Tb160 2.572 1_554 S
N195 C196 1.340 . S
N195 C198 1.361 . S
C196 H182 0.930 . S
C196 N195 1.340 . S
C196 C200 1.407 . S
C197 C198 1.413 . S
C197 C199 1.416 . S
C197 C226 1.427 . S
C198 C190 1.424 . S
C198 N195 1.361 . S
C198 C197 1.413 . S
C199 H188 0.931 . S
C199 C197 1.416 . S
C199 C200 1.332 . S
C200 H179 0.929 . S
C200 C196 1.407 . S
C200 C199 1.332 . S
H201 C194 0.930 . S
H202 C225 0.930 . S
H203 C226 0.929 . S
O204 Tb160 2.465 . S
O204 C224 1.264 . S
O205 Tb160 2.387 1_554 S
O205 C216 1.264 . S
O206 Tb171 2.349 . S
O206 C216 1.243 . S
O207 Tb160 2.428 . S
O207 C224 1.256 . S
O208 Tb160 2.308 1_554 S
O208 C223 1.266 . S
O209 Tb171 2.393 . S
O209 C223 1.248 . S
O210 Tb171 2.465 . S
O210 C235 1.264 . S
O211 Tb171 2.387 . S
O211 C227 1.264 1_554 S
O212 Tb160 2.349 . S
O212 C227 1.243 . S
O213 Tb171 2.428 . S
O213 C235 1.256 . S
O214 Tb171 2.308 . S
O214 C234 1.266 . S
O215 Tb160 2.393 1_554 S
O215 C234 1.248 . S
C216 O205 1.264 . S
C216 O206 1.243 . S
C217 C220 1.399 . S
C217 C222 1.383 . S
C217 C224 1.496 . S
C218 C219 1.399 . S
C218 C222 1.389 . S
C219 C218 1.399 . S
C219 C221 1.380 . S
C219 H236 0.929 . S
C220 C217 1.399 . S
C220 C221 1.392 . S
C220 H237 0.929 . S
C221 C219 1.380 . S
C221 C220 1.392 . S
C221 H238 0.929 . S
C222 C217 1.383 . S
C222 C218 1.389 . S
C222 H239 0.931 . S
C223 O208 1.266 . S
C223 O209 1.248 . S
C224 Tb160 2.802 . S
C224 O204 1.264 . S
C224 O207 1.256 . S
C224 C217 1.496 . S
C225 C192 1.448 . S
C225 H202 0.930 . S
C225 C226 1.328 . S
C226 C197 1.427 . S
C226 H203 0.929 . S
C226 C225 1.328 . S
C227 O211 1.264 1_556 S
C227 O212 1.243 . S
C228 C231 1.399 . S
C228 C232 1.383 . S
C228 C235 1.496 . S
C229 C230 1.399 . S
C229 C232 1.389 . S
C230 C229 1.399 . S
C230 C233 1.380 . S
C230 H240 0.929 . S
C231 C228 1.399 . S
C231 C233 1.392 . S
C231 H241 0.929 . S
C232 C228 1.383 . S
C232 C229 1.389 . S
C232 H242 0.931 . S
C233 C230 1.380 . S
C233 C231 1.392 . S
C233 H243 0.929 . S
C234 O214 1.266 . S
C234 O215 1.248 . S
C235 Tb171 2.802 . S
C235 O210 1.264 . S
C235 O213 1.256 . S
C235 C228 1.496 . S
H236 C219 0.929 . S
H237 C220 0.929 . S
H238 C221 0.929 . S
H239 C222 0.931 . S
H240 C230 0.929 . S
H241 C231 0.929 . S
H242 C232 0.931 . S
H243 C233 0.929 . S
H244 C262 0.951 . S
H245 C264 0.951 . S
H246 C266 0.950 . S
H247 C267 0.950 . S
H248 C269 0.950 . S
H249 C272 0.950 . S
H250 C273 0.950 . S
H251 C275 0.950 . S
H252 C276 0.950 . S
H253 C277 0.951 . S
H254 C279 0.951 . S
H255 C281 0.950 . S
H256 C282 0.950 . S
H257 C284 0.950 . S
H258 C287 0.950 . S
H259 C288 0.950 . S
H260 C290 0.950 . S
H261 C291 0.950 . S
C262 H244 0.951 . S
C262 C263 1.366 . S
C262 C264 1.388 . S
C263 C262 1.366 . S
C263 C267 1.385 . S
C264 H245 0.951 . S
C264 C262 1.388 . S
C264 C265 1.366 . S
C265 C264 1.366 . S
C265 C266 1.414 . S
C265 C268 1.499 . S
C266 H246 0.950 . S
C266 C265 1.414 . S
C266 C267 1.374 . S
C267 H247 0.950 . S
C267 C263 1.385 . S
C267 C266 1.374 . S
C268 C265 1.499 . S
C268 C269 1.373 . S
C268 C270 1.389 . S
C269 H248 0.950 . S
C269 C268 1.373 . S
C269 C285 1.377 . S
C270 C268 1.389 . S
C270 C271 1.524 . S
C270 C284 1.377 . S
C271 C270 1.524 . S
C271 C272 1.397 . S
C271 C276 1.363 . S
C272 H249 0.950 . S
C272 C271 1.397 . S
C272 C273 1.334 . S
C273 H250 0.950 . S
C273 C272 1.334 . S
C273 C274 1.287 . S
C274 C273 1.287 . S
C274 C275 1.524 . S
C274 H293 0.913 . S
C275 H251 0.950 . S
C275 C274 1.524 . S
C275 C276 1.415 . S
C276 H252 0.950 . S
C276 C271 1.363 . S
C276 C275 1.415 . S
C277 H253 0.951 . S
C277 C278 1.366 . S
C277 C279 1.388 . S
C278 C277 1.366 . S
C278 C282 1.385 . S
C279 H254 0.951 . S
C279 C277 1.388 . S
C279 C280 1.366 . S
C280 C279 1.366 . S
C280 C281 1.414 . S
C280 C283 1.499 . S
C281 H255 0.950 . S
C281 C280 1.414 . S
C281 C282 1.374 . S
C282 H256 0.950 . S
C282 C278 1.385 . S
C282 C281 1.374 . S
C283 C280 1.499 . S
C283 C284 1.373 . S
C283 C285 1.389 . S
C284 H257 0.950 . S
C284 C270 1.377 . S
C284 C283 1.373 . S
C285 C269 1.377 . S
C285 C283 1.389 . S
C285 C286 1.524 . S
C286 C285 1.524 . S
C286 C287 1.397 . S
C286 C291 1.363 . S
C287 H258 0.950 . S
C287 C286 1.397 . S
C287 C288 1.334 . S
C288 H259 0.950 . S
C288 C287 1.334 . S
C288 C289 1.287 . S
C289 C288 1.287 . S
C289 C290 1.524 . S
C289 H292 0.999 . S
C290 H260 0.950 . S
C290 C289 1.524 . S
C290 C291 1.415 . S
C291 H261 0.950 . S
C291 C286 1.363 . S
C291 C290 1.415 . S
H292 C289 0.999 . S
H293 C274 0.913 . S
H294 C312 0.951 . S
H295 C314 0.951 . S
H296 C316 0.950 . S
H297 C317 0.950 . S
H298 C319 0.950 . S
H299 C322 0.950 . S
H300 C323 0.950 . S
H301 C325 0.950 . S
H302 C326 0.950 . S
H303 C327 0.951 . S
H304 C329 0.951 . S
H305 C331 0.950 . S
H306 C332 0.950 . S
H307 C334 0.950 1_556 S
H308 C337 0.950 . S
H309 C338 0.950 . S
H310 C340 0.950 . S
H311 C341 0.950 . S
C312 H294 0.951 . S
C312 C313 1.366 . S
C312 C314 1.388 . S
C313 C312 1.366 . S
C313 C317 1.385 . S
C314 H295 0.951 . S
C314 C312 1.388 . S
C314 C315 1.366 . S
C315 C314 1.366 . S
C315 C316 1.414 . S
C315 C318 1.499 . S
C316 H296 0.950 . S
C316 C315 1.414 . S
C316 C317 1.374 . S
C317 H297 0.950 . S
C317 C313 1.385 . S
C317 C316 1.374 . S
C318 C315 1.499 . S
C318 C319 1.373 . S
C318 C320 1.389 . S
C319 H298 0.950 . S
C319 C318 1.373 . S
C319 C335 1.377 . S
C320 C318 1.389 . S
C320 C321 1.524 1_554 S
C320 C334 1.377 . S
C321 C320 1.524 1_556 S
C321 C322 1.397 . S
C321 C326 1.363 . S
C322 H299 0.950 . S
C322 C321 1.397 . S
C322 C323 1.334 . S
C323 H300 0.950 . S
C323 C322 1.334 . S
C323 C324 1.287 . S
C324 C323 1.287 . S
C324 C325 1.524 . S
C324 H343 0.913 . S
C325 H301 0.950 . S
C325 C324 1.524 . S
C325 C326 1.415 . S
C326 H302 0.950 . S
C326 C321 1.363 . S
C326 C325 1.415 . S
C327 H303 0.951 . S
C327 C328 1.366 . S
C327 C329 1.388 . S
C328 C327 1.366 . S
C328 C332 1.385 . S
C329 H304 0.951 . S
C329 C327 1.388 . S
C329 C330 1.366 . S
C330 C329 1.366 . S
C330 C331 1.414 . S
C330 C333 1.499 . S
C331 H305 0.950 . S
C331 C330 1.414 . S
C331 C332 1.374 . S
C332 H306 0.950 . S
C332 C328 1.385 . S
C332 C331 1.374 . S
C333 C330 1.499 . S
C333 C334 1.373 . S
C333 C335 1.389 . S
C334 H307 0.950 1_554 S
C334 C320 1.377 . S
C334 C333 1.373 . S
C335 C319 1.377 . S
C335 C333 1.389 . S
C335 C336 1.524 . S
C336 C335 1.524 . S
C336 C337 1.397 . S
C336 C341 1.363 . S
C337 H308 0.950 . S
C337 C336 1.397 . S
C337 C338 1.334 . S
C338 H309 0.950 . S
C338 C337 1.334 . S
C338 C339 1.287 . S
C339 C338 1.287 . S
C339 C340 1.524 . S
C339 H342 0.999 . S
C340 H310 0.950 . S
C340 C339 1.524 . S
C340 C341 1.415 . S
C341 H311 0.950 . S
C341 C336 1.363 . S
C341 C340 1.415 . S
H342 C339 0.999 . S
H343 C324 0.913 . S
H344 C362 0.951 . S
H345 C364 0.951 . S
H346 C366 0.950 . S
H347 C367 0.950 . S
H348 C369 0.950 . S
H349 C372 0.950 . S
H350 C373 0.950 . S
H351 C375 0.950 . S
H352 C376 0.950 . S
H353 C377 0.951 . S
H354 C379 0.951 . S
H355 C381 0.950 . S
H356 C382 0.950 . S
H357 C384 0.950 . S
H358 C387 0.950 . S
H359 C388 0.950 . S
H360 C390 0.950 . S
H361 C391 0.950 . S
C362 H344 0.951 . S
C362 C363 1.366 . S
C362 C364 1.388 . S
C363 C362 1.366 . S
C363 C367 1.385 . S
C364 H345 0.951 . S
C364 C362 1.388 . S
C364 C365 1.366 . S
C365 C364 1.366 . S
C365 C366 1.414 . S
C365 C368 1.499 . S
C366 H346 0.950 . S
C366 C365 1.414 . S
C366 C367 1.374 . S
C367 H347 0.950 . S
C367 C363 1.385 . S
C367 C366 1.374 . S
C368 C365 1.499 . S
C368 C369 1.373 . S
C368 C370 1.389 . S
C369 H348 0.950 . S
C369 C368 1.373 . S
C369 C385 1.377 . S
C370 C368 1.389 . S
C370 C371 1.524 . S
C370 C384 1.377 . S
C371 C370 1.524 . S
C371 C372 1.397 . S
C371 C376 1.363 . S
C372 H349 0.950 . S
C372 C371 1.397 . S
C372 C373 1.334 . S
C373 H350 0.950 . S
C373 C372 1.334 . S
C373 C374 1.287 . S
C374 C373 1.287 . S
C374 C375 1.524 . S
C374 H393 0.913 . S
C375 H351 0.950 . S
C375 C374 1.524 . S
C375 C376 1.415 . S
C376 H352 0.950 . S
C376 C371 1.363 . S
C376 C375 1.415 . S
C377 H353 0.951 . S
C377 C378 1.366 . S
C377 C379 1.388 . S
C378 C377 1.366 . S
C378 C382 1.385 . S
C379 H354 0.951 . S
C379 C377 1.388 . S
C379 C380 1.366 . S
C380 C379 1.366 . S
C380 C381 1.414 . S
C380 C383 1.499 . S
C381 H355 0.950 . S
C381 C380 1.414 . S
C381 C382 1.374 . S
C382 H356 0.950 . S
C382 C378 1.385 . S
C382 C381 1.374 . S
C383 C380 1.499 . S
C383 C384 1.373 . S
C383 C385 1.389 . S
C384 H357 0.950 . S
C384 C370 1.377 . S
C384 C383 1.373 . S
C385 C369 1.377 . S
C385 C383 1.389 . S
C385 C386 1.524 . S
C386 C385 1.524 . S
C386 C387 1.397 . S
C386 C391 1.363 . S
C387 H358 0.950 . S
C387 C386 1.397 . S
C387 C388 1.334 . S
C388 H359 0.950 . S
C388 C387 1.334 . S
C388 C389 1.287 . S
C389 C388 1.287 . S
C389 C390 1.524 . S
C389 H392 0.999 . S
C390 H360 0.950 . S
C390 C389 1.524 . S
C390 C391 1.415 . S
C391 H361 0.950 . S
C391 C386 1.363 . S
C391 C390 1.415 . S
H392 C389 0.999 . S
H393 C374 0.913 . S
H394 C412 0.951 . S
H395 C414 0.951 . S
H396 C416 0.950 . S
H397 C417 0.950 . S
H398 C419 0.950 . S
H399 C422 0.950 . S
H400 C423 0.950 . S
H401 C425 0.950 . S
H402 C426 0.950 . S
H403 C427 0.951 . S
H404 C429 0.951 . S
H405 C431 0.950 . S
H406 C432 0.950 . S
H407 C434 0.950 . S
H408 C437 0.950 . S
H409 C438 0.950 . S
H410 C440 0.950 . S
H411 C441 0.950 . S
C412 H394 0.951 . S
C412 C413 1.366 . S
C412 C414 1.388 . S
C413 C412 1.366 . S
C413 C417 1.385 1_554 S
C414 H395 0.951 . S
C414 C412 1.388 . S
C414 C415 1.366 . S
C415 C414 1.366 . S
C415 C416 1.414 1_554 S
C415 C418 1.499 . S
C416 H396 0.950 . S
C416 C415 1.414 1_556 S
C416 C417 1.374 . S
C417 H397 0.950 . S
C417 C413 1.385 1_556 S
C417 C416 1.374 . S
C418 C415 1.499 . S
C418 C419 1.373 1_554 S
C418 C420 1.389 . S
C419 H398 0.950 . S
C419 C418 1.373 1_556 S
C419 C435 1.377 . S
C420 C418 1.389 . S
C420 C421 1.524 . S
C420 C434 1.377 . S
C421 C420 1.524 . S
C421 C422 1.397 . S
C421 C426 1.363 . S
C422 H399 0.950 . S
C422 C421 1.397 . S
C422 C423 1.334 . S
C423 H400 0.950 . S
C423 C422 1.334 . S
C423 C424 1.287 . S
C424 C423 1.287 . S
C424 C425 1.524 . S
C424 H443 0.913 . S
C425 H401 0.950 . S
C425 C424 1.524 . S
C425 C426 1.415 . S
C426 H402 0.950 . S
C426 C421 1.363 . S
C426 C425 1.415 . S
C427 H403 0.951 . S
C427 C428 1.366 1_556 S
C427 C429 1.388 . S
C428 C427 1.366 1_554 S
C428 C432 1.385 . S
C429 H404 0.951 . S
C429 C427 1.388 . S
C429 C430 1.366 1_556 S
C430 C429 1.366 1_554 S
C430 C431 1.414 . S
C430 C433 1.499 . S
C431 H405 0.950 . S
C431 C430 1.414 . S
C431 C432 1.374 . S
C432 H406 0.950 . S
C432 C428 1.385 . S
C432 C431 1.374 . S
C433 C430 1.499 . S
C433 C434 1.373 . S
C433 C435 1.389 1_554 S
C434 H407 0.950 . S
C434 C420 1.377 . S
C434 C433 1.373 . S
C435 C419 1.377 . S
C435 C433 1.389 1_556 S
C435 C436 1.524 . S
C436 C435 1.524 . S
C436 C437 1.397 . S
C436 C441 1.363 . S
C437 H408 0.950 . S
C437 C436 1.397 . S
C437 C438 1.334 . S
C438 H409 0.950 . S
C438 C437 1.334 . S
C438 C439 1.287 . S
C439 C438 1.287 . S
C439 C440 1.524 . S
C439 H442 0.999 . S
C440 H410 0.950 . S
C440 C439 1.524 . S
C440 C441 1.415 . S
C441 H411 0.950 . S
C441 C436 1.363 . S
C441 C440 1.415 . S
H442 C439 0.999 . S
H443 C424 0.913 . S
H444 C462 0.951 . S
H445 C464 0.951 . S
H446 C466 0.950 . S
H447 C467 0.950 . S
H448 C469 0.950 . S
H449 C472 0.950 . S
H450 C473 0.950 . S
H451 C475 0.950 . S
H452 C476 0.950 . S
H453 C477 0.951 . S
H454 C479 0.951 . S
H455 C481 0.950 . S
H456 C482 0.950 . S
H457 C484 0.950 . S
H458 C487 0.950 . S
H459 C488 0.950 . S
H460 C490 0.950 . S
H461 C491 0.950 . S
C462 H444 0.951 . S
C462 C463 1.366 . S
C462 C464 1.388 . S
C463 C462 1.366 . S
C463 C467 1.385 . S
C464 H445 0.951 . S
C464 C462 1.388 . S
C464 C465 1.366 . S
C465 C464 1.366 . S
C465 C466 1.414 . S
C465 C468 1.499 . S
C466 H446 0.950 . S
C466 C465 1.414 . S
C466 C467 1.374 . S
C467 H447 0.950 . S
C467 C463 1.385 . S
C467 C466 1.374 . S
C468 C465 1.499 . S
C468 C469 1.373 . S
C468 C470 1.389 . S
C469 H448 0.950 . S
C469 C468 1.373 . S
C469 C485 1.377 . S
C470 C468 1.389 . S
C470 C471 1.524 . S
C470 C484 1.377 . S
C471 C470 1.524 . S
C471 C472 1.397 . S
C471 C476 1.363 . S
C472 H449 0.950 . S
C472 C471 1.397 . S
C472 C473 1.334 . S
C473 H450 0.950 . S
C473 C472 1.334 . S
C473 C474 1.287 . S
C474 C473 1.287 . S
C474 C475 1.524 . S
C474 H493 0.913 . S
C475 H451 0.950 . S
C475 C474 1.524 . S
C475 C476 1.415 . S
C476 H452 0.950 . S
C476 C471 1.363 . S
C476 C475 1.415 . S
C477 H453 0.951 . S
C477 C478 1.366 . S
C477 C479 1.388 . S
C478 C477 1.366 . S
C478 C482 1.385 . S
C479 H454 0.951 . S
C479 C477 1.388 . S
C479 C480 1.366 . S
C480 C479 1.366 . S
C480 C481 1.414 . S
C480 C483 1.499 . S
C481 H455 0.950 . S
C481 C480 1.414 . S
C481 C482 1.374 . S
C482 H456 0.950 . S
C482 C478 1.385 . S
C482 C481 1.374 . S
C483 C480 1.499 . S
C483 C484 1.373 . S
C483 C485 1.389 . S
C484 H457 0.950 . S
C484 C470 1.377 . S
C484 C483 1.373 . S
C485 C469 1.377 . S
C485 C483 1.389 . S
C485 C486 1.524 . S
C486 C485 1.524 . S
C486 C487 1.397 . S
C486 C491 1.363 . S
C487 H458 0.950 . S
C487 C486 1.397 . S
C487 C488 1.334 . S
C488 H459 0.950 . S
C488 C487 1.334 . S
C488 C489 1.287 . S
C489 C488 1.287 . S
C489 C490 1.524 . S
C489 H492 0.999 . S
C490 H460 0.950 . S
C490 C489 1.524 . S
C490 C491 1.415 . S
C491 H461 0.950 . S
C491 C486 1.363 . S
C491 C490 1.415 . S
H492 C489 0.999 . S
H493 C474 0.913 . S
H494 C512 0.951 . S
H495 C514 0.951 . S
H496 C516 0.950 . S
H497 C517 0.950 . S
H498 C519 0.950 . S
H499 C522 0.950 . S
H500 C523 0.950 . S
H501 C525 0.950 . S
H502 C526 0.950 . S
H503 C527 0.951 . S
H504 C529 0.951 . S
H505 C531 0.950 . S
H506 C532 0.950 . S
H507 C534 0.950 . S
H508 C537 0.950 . S
H509 C538 0.950 . S
H510 C540 0.950 . S
H511 C541 0.950 . S
C512 H494 0.951 . S
C512 C513 1.366 . S
C512 C514 1.388 . S
C513 C512 1.366 . S
C513 C517 1.385 . S
C514 H495 0.951 . S
C514 C512 1.388 . S
C514 C515 1.366 . S
C515 C514 1.366 . S
C515 C516 1.414 . S
C515 C518 1.499 . S
C516 H496 0.950 . S
C516 C515 1.414 . S
C516 C517 1.374 . S
C517 H497 0.950 . S
C517 C513 1.385 . S
C517 C516 1.374 . S
C518 C515 1.499 . S
C518 C519 1.373 . S
C518 C520 1.389 . S
C519 H498 0.950 . S
C519 C518 1.373 . S
C519 C535 1.377 . S
C520 C518 1.389 . S
C520 C521 1.524 . S
C520 C534 1.377 . S
C521 C520 1.524 . S
C521 C522 1.397 . S
C521 C526 1.363 . S
C522 H499 0.950 . S
C522 C521 1.397 . S
C522 C523 1.334 . S
C523 H500 0.950 . S
C523 C522 1.334 . S
C523 C524 1.287 . S
C524 C523 1.287 . S
C524 C525 1.524 . S
C524 H543 0.913 . S
C525 H501 0.950 . S
C525 C524 1.524 . S
C525 C526 1.415 . S
C526 H502 0.950 . S
C526 C521 1.363 . S
C526 C525 1.415 . S
C527 H503 0.951 . S
C527 C528 1.366 . S
C527 C529 1.388 . S
C528 C527 1.366 . S
C528 C532 1.385 . S
C529 H504 0.951 . S
C529 C527 1.388 . S
C529 C530 1.366 . S
C530 C529 1.366 . S
C530 C531 1.414 . S
C530 C533 1.499 . S
C531 H505 0.950 . S
C531 C530 1.414 . S
C531 C532 1.374 . S
C532 H506 0.950 . S
C532 C528 1.385 . S
C532 C531 1.374 . S
C533 C530 1.499 . S
C533 C534 1.373 . S
C533 C535 1.389 . S
C534 H507 0.950 . S
C534 C520 1.377 . S
C534 C533 1.373 . S
C535 C519 1.377 . S
C535 C533 1.389 . S
C535 C536 1.524 . S
C536 C535 1.524 . S
C536 C537 1.397 . S
C536 C541 1.363 . S
C537 H508 0.950 . S
C537 C536 1.397 . S
C537 C538 1.334 . S
C538 H509 0.950 . S
C538 C537 1.334 . S
C538 C539 1.287 . S
C539 C538 1.287 . S
C539 C540 1.524 . S
C539 H542 0.999 . S
C540 H510 0.950 . S
C540 C539 1.524 . S
C540 C541 1.415 . S
C541 H511 0.950 . S
C541 C536 1.363 . S
C541 C540 1.415 . S
H542 C539 0.999 . S
H543 C524 0.913 . S
H544 C562 0.951 . S
H545 C564 0.951 . S
H546 C566 0.950 . S
H547 C567 0.950 . S
H548 C569 0.950 . S
H549 C572 0.950 . S
H550 C573 0.950 . S
H551 C575 0.950 . S
H552 C576 0.950 . S
H553 C577 0.951 . S
H554 C579 0.951 . S
H555 C581 0.950 . S
H556 C582 0.950 . S
H557 C584 0.950 . S
H558 C587 0.950 . S
H559 C588 0.950 . S
H560 C590 0.950 1_455 S
H561 C591 0.950 . S
C562 H544 0.951 . S
C562 C563 1.366 . S
C562 C564 1.388 . S
C563 C562 1.366 . S
C563 C567 1.385 . S
C564 H545 0.951 . S
C564 C562 1.388 . S
C564 C565 1.366 . S
C565 C564 1.366 . S
C565 C566 1.414 . S
C565 C568 1.499 . S
C566 H546 0.950 . S
C566 C565 1.414 . S
C566 C567 1.374 . S
C567 H547 0.950 . S
C567 C563 1.385 . S
C567 C566 1.374 . S
C568 C565 1.499 . S
C568 C569 1.373 . S
C568 C570 1.389 . S
C569 H548 0.950 . S
C569 C568 1.373 . S
C569 C585 1.377 . S
C570 C568 1.389 . S
C570 C571 1.524 . S
C570 C584 1.377 . S
C571 C570 1.524 . S
C571 C572 1.397 . S
C571 C576 1.363 . S
C572 H549 0.950 . S
C572 C571 1.397 . S
C572 C573 1.334 . S
C573 H550 0.950 . S
C573 C572 1.334 . S
C573 C574 1.287 . S
C574 C573 1.287 . S
C574 C575 1.524 . S
C574 H593 0.913 . S
C575 H551 0.950 . S
C575 C574 1.524 . S
C575 C576 1.415 . S
C576 H552 0.950 . S
C576 C571 1.363 . S
C576 C575 1.415 . S
C577 H553 0.951 . S
C577 C578 1.366 . S
C577 C579 1.388 . S
C578 C577 1.366 . S
C578 C582 1.385 . S
C579 H554 0.951 . S
C579 C577 1.388 . S
C579 C580 1.366 . S
C580 C579 1.366 . S
C580 C581 1.414 . S
C580 C583 1.499 . S
C581 H555 0.950 . S
C581 C580 1.414 . S
C581 C582 1.374 . S
C582 H556 0.950 . S
C582 C578 1.385 . S
C582 C581 1.374 . S
C583 C580 1.499 . S
C583 C584 1.373 . S
C583 C585 1.389 . S
C584 H557 0.950 . S
C584 C570 1.377 . S
C584 C583 1.373 . S
C585 C569 1.377 . S
C585 C583 1.389 . S
C585 C586 1.524 . S
C586 C585 1.524 . S
C586 C587 1.397 . S
C586 C591 1.363 . S
C587 H558 0.950 . S
C587 C586 1.397 . S
C587 C588 1.334 . S
C588 H559 0.950 . S
C588 C587 1.334 . S
C588 C589 1.300 . S
C589 C588 1.300 . S
C589 C590 1.527 . S
C589 H592 0.979 1_655 S
C590 H560 0.950 1_655 S
C590 C589 1.527 . S
C590 C591 1.415 . S
C591 H561 0.950 . S
C591 C586 1.363 . S
C591 C590 1.415 . S
H592 C589 0.979 1_455 S
H593 C574 0.913 . S
H594 C612 0.951 . S
H595 C614 0.951 . S
H596 C616 0.950 . S
H597 C617 0.950 . S
H598 C619 0.950 . S
H599 C622 0.950 . S
H600 C623 0.950 . S
H601 C625 0.950 . S
H602 C626 0.950 . S
H603 C627 0.951 . S
H604 C629 0.951 . S
H605 C631 0.950 . S
H606 C632 0.950 . S
H607 C634 0.950 . S
H608 C637 0.950 . S
H609 C638 0.950 . S
H610 C640 0.950 . S
H611 C641 0.950 . S
C612 H594 0.951 . S
C612 C613 1.366 . S
C612 C614 1.388 . S
C613 C612 1.366 . S
C613 C617 1.385 . S
C614 H595 0.951 . S
C614 C612 1.388 . S
C614 C615 1.366 . S
C615 C614 1.366 . S
C615 C616 1.414 . S
C615 C618 1.499 . S
C616 H596 0.950 . S
C616 C615 1.414 . S
C616 C617 1.374 . S
C617 H597 0.950 . S
C617 C613 1.385 . S
C617 C616 1.374 . S
C618 C615 1.499 . S
C618 C619 1.373 . S
C618 C620 1.389 . S
C619 H598 0.950 . S
C619 C618 1.373 . S
C619 C635 1.377 . S
C620 C618 1.389 . S
C620 C621 1.524 . S
C620 C634 1.377 . S
C621 C620 1.524 . S
C621 C622 1.397 . S
C621 C626 1.363 . S
C622 H599 0.950 . S
C622 C621 1.397 . S
C622 C623 1.334 . S
C623 H600 0.950 . S
C623 C622 1.334 . S
C623 C624 1.287 . S
C624 C623 1.287 . S
C624 C625 1.524 . S
C624 H643 0.913 . S
C625 H601 0.950 . S
C625 C624 1.524 . S
C625 C626 1.415 . S
C626 H602 0.950 . S
C626 C621 1.363 . S
C626 C625 1.415 . S
C627 H603 0.951 . S
C627 C628 1.366 . S
C627 C629 1.388 . S
C628 C627 1.366 . S
C628 C632 1.385 . S
C629 H604 0.951 . S
C629 C627 1.388 . S
C629 C630 1.366 . S
C630 C629 1.366 . S
C630 C631 1.414 . S
C630 C633 1.499 . S
C631 H605 0.950 . S
C631 C630 1.414 . S
C631 C632 1.374 . S
C632 H606 0.950 . S
C632 C628 1.385 . S
C632 C631 1.374 . S
C633 C630 1.499 . S
C633 C634 1.373 . S
C633 C635 1.389 . S
C634 H607 0.950 . S
C634 C620 1.377 . S
C634 C633 1.373 . S
C635 C619 1.377 . S
C635 C633 1.389 . S
C635 C636 1.524 . S
C636 C635 1.524 . S
C636 C637 1.397 . S
C636 C641 1.363 . S
C637 H608 0.950 . S
C637 C636 1.397 . S
C637 C638 1.334 . S
C638 H609 0.950 . S
C638 C637 1.334 . S
C638 C639 1.287 . S
C639 C638 1.287 . S
C639 C640 1.524 . S
C639 H642 0.999 . S
C640 H610 0.950 . S
C640 C639 1.524 . S
C640 C641 1.415 . S
C641 H611 0.950 . S
C641 C636 1.363 . S
C641 C640 1.415 . S
H642 C639 0.999 . S
H643 C624 0.913 . S
H644 C662 0.951 . S
H645 C664 0.951 . S
H646 C666 0.950 . S
H647 C667 0.950 . S
H648 C669 0.950 . S
H649 C672 0.950 . S
H650 C673 0.950 . S
H651 C675 0.950 . S
H652 C676 0.950 . S
H653 C677 0.951 . S
H654 C679 0.951 . S
H655 C681 0.950 . S
H656 C682 0.950 . S
H657 C684 0.950 . S
H658 C687 0.950 . S
H659 C688 0.950 . S
H660 C690 0.950 . S
H661 C691 0.950 . S
C662 H644 0.951 . S
C662 C663 1.366 . S
C662 C664 1.388 . S
C663 C662 1.366 . S
C663 C667 1.385 . S
C664 H645 0.951 . S
C664 C662 1.388 . S
C664 C665 1.366 . S
C665 C664 1.366 . S
C665 C666 1.414 . S
C665 C668 1.499 . S
C666 H646 0.950 . S
C666 C665 1.414 . S
C666 C667 1.374 . S
C667 H647 0.950 . S
C667 C663 1.385 . S
C667 C666 1.374 . S
C668 C665 1.499 . S
C668 C669 1.373 . S
C668 C670 1.389 . S
C669 H648 0.950 . S
C669 C668 1.373 . S
C669 C685 1.377 . S
C670 C668 1.389 . S
C670 C671 1.524 . S
C670 C684 1.377 . S
C671 C670 1.524 . S
C671 C672 1.397 . S
C671 C676 1.363 . S
C672 H649 0.950 . S
C672 C671 1.397 . S
C672 C673 1.334 . S
C673 H650 0.950 . S
C673 C672 1.334 . S
C673 C674 1.287 . S
C674 C673 1.287 . S
C674 C675 1.524 . S
C674 H693 0.913 . S
C675 H651 0.950 . S
C675 C674 1.524 . S
C675 C676 1.415 . S
C676 H652 0.950 . S
C676 C671 1.363 . S
C676 C675 1.415 . S
C677 H653 0.951 . S
C677 C678 1.366 . S
C677 C679 1.388 . S
C678 C677 1.366 . S
C678 C682 1.385 . S
C679 H654 0.951 . S
C679 C677 1.388 . S
C679 C680 1.366 . S
C680 C679 1.366 . S
C680 C681 1.414 . S
C680 C683 1.499 . S
C681 H655 0.950 . S
C681 C680 1.414 . S
C681 C682 1.374 . S
C682 H656 0.950 . S
C682 C678 1.385 . S
C682 C681 1.374 . S
C683 C680 1.499 . S
C683 C684 1.373 . S
C683 C685 1.389 . S
C684 H657 0.950 . S
C684 C670 1.377 . S
C684 C683 1.373 . S
C685 C669 1.377 . S
C685 C683 1.389 . S
C685 C686 1.524 . S
C686 C685 1.524 . S
C686 C687 1.397 . S
C686 C691 1.363 . S
C687 H658 0.950 . S
C687 C686 1.397 . S
C687 C688 1.334 . S
C688 H659 0.950 . S
C688 C687 1.334 . S
C688 C689 1.287 . S
C689 C688 1.287 . S
C689 C690 1.524 . S
C689 H692 0.999 . S
C690 H660 0.950 . S
C690 C689 1.524 . S
C690 C691 1.415 . S
C691 H661 0.950 . S
C691 C686 1.363 . S
C691 C690 1.415 . S
H692 C689 0.999 . S
H693 C674 0.913 . S
H694 C712 0.951 . S
H695 C714 0.951 . S
H696 C716 0.950 . S
H697 C717 0.950 . S
H698 C719 0.950 . S
H699 C722 0.950 . S
H700 C723 0.950 1_554 S
H701 C725 0.950 1_565 S
H702 C726 0.950 . S
H703 C727 0.951 . S
H704 C729 0.951 . S
H705 C731 0.950 . S
H706 C732 0.950 . S
H707 C734 0.950 . S
H708 C737 0.950 . S
H709 C738 0.950 . S
H710 C740 0.950 . S
H711 C741 0.950 . S
C712 H694 0.951 . S
C712 C713 1.366 . S
C712 C714 1.388 . S
C713 C712 1.366 . S
C713 C717 1.385 . S
C714 H695 0.951 . S
C714 C712 1.388 . S
C714 C715 1.366 . S
C715 C714 1.366 . S
C715 C716 1.414 . S
C715 C718 1.499 . S
C716 H696 0.950 . S
C716 C715 1.414 . S
C716 C717 1.374 . S
C717 H697 0.950 . S
C717 C713 1.385 . S
C717 C716 1.374 . S
C718 C715 1.499 . S
C718 C719 1.373 . S
C718 C720 1.389 . S
C719 H698 0.950 . S
C719 C718 1.373 . S
C719 C735 1.377 . S
C720 C718 1.389 . S
C720 C721 1.524 . S
C720 C734 1.377 . S
C721 C720 1.524 . S
C721 C722 1.397 . S
C721 C726 1.363 . S
C722 H699 0.950 . S
C722 C721 1.397 . S
C722 C723 1.334 . S
C723 H700 0.950 1_556 S
C723 C722 1.334 . S
C723 C724 1.287 . S
C724 C723 1.287 . S
C724 C725 1.524 . S
C724 H743 0.913 1_556 S
C725 H701 0.950 1_545 S
C725 C724 1.524 . S
C725 C726 1.415 . S
C726 H702 0.950 . S
C726 C721 1.363 . S
C726 C725 1.415 . S
C727 H703 0.951 . S
C727 C728 1.366 . S
C727 C729 1.388 . S
C728 C727 1.366 . S
C728 C732 1.385 . S
C729 H704 0.951 . S
C729 C727 1.388 . S
C729 C730 1.366 . S
C730 C729 1.366 . S
C730 C731 1.414 . S
C730 C733 1.499 . S
C731 H705 0.950 . S
C731 C730 1.414 . S
C731 C732 1.374 . S
C732 H706 0.950 . S
C732 C728 1.385 . S
C732 C731 1.374 . S
C733 C730 1.499 . S
C733 C734 1.373 . S
C733 C735 1.389 . S
C734 H707 0.950 . S
C734 C720 1.377 . S
C734 C733 1.373 . S
C735 C719 1.377 . S
C735 C733 1.389 . S
C735 C736 1.524 . S
C736 C735 1.524 . S
C736 C737 1.397 . S
C736 C741 1.363 . S
C737 H708 0.950 . S
C737 C736 1.397 . S
C737 C738 1.334 . S
C738 H709 0.950 . S
C738 C737 1.334 . S
C738 C739 1.287 . S
C739 C738 1.287 . S
C739 C740 1.524 . S
C739 H742 0.999 . S
C740 H710 0.950 . S
C740 C739 1.524 . S
C740 C741 1.415 . S
C741 H711 0.950 . S
C741 C736 1.363 . S
C741 C740 1.415 . S
H742 C739 0.999 . S
H743 C724 0.913 1_554 S
H744 C762 0.951 . S
H745 C764 0.951 . S
H746 C766 0.950 . S
H747 C767 0.950 . S
H748 C769 0.950 . S
H749 C772 0.950 . S
H750 C773 0.950 . S
H751 C775 0.950 . S
H752 C776 0.950 . S
H753 C777 0.951 . S
H754 C779 0.951 . S
H755 C781 0.950 . S
H756 C782 0.950 . S
H757 C784 0.950 . S
H758 C787 0.950 . S
H759 C788 0.950 . S
H760 C790 0.950 . S
H761 C791 0.950 . S
C762 H744 0.951 . S
C762 C763 1.366 . S
C762 C764 1.388 . S
C763 C762 1.366 . S
C763 C767 1.385 . S
C764 H745 0.951 . S
C764 C762 1.388 . S
C764 C765 1.366 . S
C765 C764 1.366 . S
C765 C766 1.414 . S
C765 C768 1.499 . S
C766 H746 0.950 . S
C766 C765 1.414 . S
C766 C767 1.374 . S
C767 H747 0.950 . S
C767 C763 1.385 . S
C767 C766 1.374 . S
C768 C765 1.499 . S
C768 C769 1.373 . S
C768 C770 1.389 . S
C769 H748 0.950 . S
C769 C768 1.373 . S
C769 C785 1.377 . S
C770 C768 1.389 . S
C770 C771 1.524 . S
C770 C784 1.377 . S
C771 C770 1.524 . S
C771 C772 1.397 . S
C771 C776 1.363 . S
C772 H749 0.950 . S
C772 C771 1.397 . S
C772 C773 1.334 . S
C773 H750 0.950 . S
C773 C772 1.334 . S
C773 C774 1.287 . S
C774 C773 1.287 . S
C774 C775 1.524 . S
C774 H793 0.913 . S
C775 H751 0.950 . S
C775 C774 1.524 . S
C775 C776 1.415 . S
C776 H752 0.950 . S
C776 C771 1.363 . S
C776 C775 1.415 . S
C777 H753 0.951 . S
C777 C778 1.366 . S
C777 C779 1.388 . S
C778 C777 1.366 . S
C778 C782 1.385 . S
C779 H754 0.951 . S
C779 C777 1.388 . S
C779 C780 1.366 . S
C780 C779 1.366 . S
C780 C781 1.414 . S
C780 C783 1.499 . S
C781 H755 0.950 . S
C781 C780 1.414 . S
C781 C782 1.374 . S
C782 H756 0.950 . S
C782 C778 1.385 . S
C782 C781 1.374 . S
C783 C780 1.499 . S
C783 C784 1.373 . S
C783 C785 1.389 . S
C784 H757 0.950 . S
C784 C770 1.377 . S
C784 C783 1.373 . S
C785 C769 1.377 . S
C785 C783 1.389 . S
C785 C786 1.524 . S
C786 C785 1.524 . S
C786 C787 1.397 . S
C786 C791 1.363 . S
C787 H758 0.950 . S
C787 C786 1.397 . S
C787 C788 1.334 . S
C788 H759 0.950 . S
C788 C787 1.334 . S
C788 C789 1.287 . S
C789 C788 1.287 . S
C789 C790 1.524 . S
C789 H792 0.999 . S
C790 H760 0.950 . S
C790 C789 1.524 . S
C790 C791 1.415 . S
C791 H761 0.950 . S
C791 C786 1.363 . S
C791 C790 1.415 . S
H792 C789 0.999 . S
H793 C774 0.913 . S
H794 C812 0.951 . S
H795 C814 0.951 . S
H796 C816 0.950 . S
H797 C817 0.950 . S
H798 C819 0.950 . S
H799 C822 0.950 . S
H800 C823 0.950 . S
H801 C825 0.950 . S
H802 C826 0.950 . S
H803 C827 0.951 . S
H804 C829 0.951 . S
H805 C831 0.950 . S
H806 C832 0.950 . S
H807 C834 0.950 . S
H808 C837 0.950 . S
H809 C838 0.950 . S
H810 C840 0.950 . S
H811 C841 0.950 . S
C812 H794 0.951 . S
C812 C813 1.366 . S
C812 C814 1.388 . S
C813 C812 1.366 . S
C813 C817 1.385 . S
C814 H795 0.951 . S
C814 C812 1.388 . S
C814 C815 1.366 . S
C815 C814 1.366 . S
C815 C816 1.414 . S
C815 C818 1.499 . S
C816 H796 0.950 . S
C816 C815 1.414 . S
C816 C817 1.374 . S
C817 H797 0.950 . S
C817 C813 1.385 . S
C817 C816 1.374 . S
C818 C815 1.499 . S
C818 C819 1.373 . S
C818 C820 1.389 . S
C819 H798 0.950 . S
C819 C818 1.373 . S
C819 C835 1.377 . S
C820 C818 1.389 . S
C820 C821 1.524 . S
C820 C834 1.377 . S
C821 C820 1.524 . S
C821 C822 1.397 . S
C821 C826 1.363 . S
C822 H799 0.950 . S
C822 C821 1.397 . S
C822 C823 1.334 . S
C823 H800 0.950 . S
C823 C822 1.334 . S
C823 C824 1.287 . S
C824 C823 1.287 . S
C824 C825 1.524 . S
C824 H843 0.913 . S
C825 H801 0.950 . S
C825 C824 1.524 . S
C825 C826 1.415 . S
C826 H802 0.950 . S
C826 C821 1.363 . S
C826 C825 1.415 . S
C827 H803 0.951 . S
C827 C828 1.366 . S
C827 C829 1.388 . S
C828 C827 1.366 . S
C828 C832 1.385 . S
C829 H804 0.951 . S
C829 C827 1.388 . S
C829 C830 1.366 . S
C830 C829 1.366 . S
C830 C831 1.414 . S
C830 C833 1.499 . S
C831 H805 0.950 . S
C831 C830 1.414 . S
C831 C832 1.374 . S
C832 H806 0.950 . S
C832 C828 1.385 . S
C832 C831 1.374 . S
C833 C830 1.499 . S
C833 C834 1.373 . S
C833 C835 1.389 . S
C834 H807 0.950 . S
C834 C820 1.377 . S
C834 C833 1.373 . S
C835 C819 1.377 . S
C835 C833 1.389 . S
C835 C836 1.524 . S
C836 C835 1.524 . S
C836 C837 1.397 1_565 S
C836 C841 1.363 . S
C837 H808 0.950 . S
C837 C836 1.397 1_545 S
C837 C838 1.334 . S
C838 H809 0.950 . S
C838 C837 1.334 . S
C838 C839 1.287 . S
C839 C838 1.287 . S
C839 C840 1.524 . S
C839 H842 0.999 . S
C840 H810 0.950 . S
C840 C839 1.524 . S
C840 C841 1.415 1_545 S
C841 H811 0.950 . S
C841 C836 1.363 . S
C841 C840 1.415 1_565 S
H842 C839 0.999 . S
H843 C824 0.913 . S
C278 C139 1.732 . S
C263 C68 1.689 . S
C313 C11 1.611 . S
C328 C234 1.742 . S
C363 C30 1.660 . S
C378 C150 1.756 . S
C413 C49 1.654 . S
C428 C223 1.711 . S
C478 C134 1.539 . S
C463 C2 1.704 . S
C528 C227 1.823 . S
C513 C25 1.821 . S
C563 C40 1.715 . S
C578 C143 1.732 . S
C613 C59 1.692 . S
C628 C218 1.523 . S
C678 C229 1.451 . S
C663 C21 1.615 . S
C728 C145 1.452 . S
C713 C44 1.639 . S
C778 C216 1.706 . S
C763 C63 1.706 . S
C813 C6 1.645 . S
C828 C132 1.648 . S
