# Generated by pormake.
# Topology dag, (6,3)-cn, num edge types: 1
# Building blocks:
#     Node 0, Type 0, BuildingBlock: MIDCAF_clean_sbu_0, # of connection points: 6
#     Node 1, Type 0, BuildingBlock: MIDCAF_clean_sbu_0, # of connection points: 6
#     Node 2, Type 0, BuildingBlock: MIDCAF_clean_sbu_0, # of connection points: 6
#     Node 3, Type 0, BuildingBlock: MIDCAF_clean_sbu_0, # of connection points: 6
#     Node 4, Type 1, BuildingBlock: BETDIP_clean_linker_0, # of connection points: 3
#     Node 5, Type 1, BuildingBlock: BETDIP_clean_linker_0, # of connection points: 3
#     Node 6, Type 1, BuildingBlock: BETDIP_clean_linker_0, # of connection points: 3
#     Node 7, Type 1, BuildingBlock: BETDIP_clean_linker_0, # of connection points: 3
#     Node 8, Type 1, BuildingBlock: BETDIP_clean_linker_0, # of connection points: 3
#     Node 9, Type 1, BuildingBlock: BETDIP_clean_linker_0, # of connection points: 3
#     Node 10, Type 1, BuildingBlock: BETDIP_clean_linker_0, # of connection points: 3
#     Node 11, Type 1, BuildingBlock: BETDIP_clean_linker_0, # of connection points: 3
#     Edge 12, Type (0, 1), BuildingBlock: KIFKEQ_clean_linker_1, # of connection points: 2
#     Edge 13, Type (0, 1), BuildingBlock: KIFKEQ_clean_linker_1, # of connection points: 2
#     Edge 14, Type (0, 1), BuildingBlock: KIFKEQ_clean_linker_1, # of connection points: 2
#     Edge 15, Type (0, 1), BuildingBlock: KIFKEQ_clean_linker_1, # of connection points: 2
#     Edge 16, Type (0, 1), BuildingBlock: KIFKEQ_clean_linker_1, # of connection points: 2
#     Edge 17, Type (0, 1), BuildingBlock: KIFKEQ_clean_linker_1, # of connection points: 2
#     Edge 18, Type (0, 1), BuildingBlock: KIFKEQ_clean_linker_1, # of connection points: 2
#     Edge 19, Type (0, 1), BuildingBlock: KIFKEQ_clean_linker_1, # of connection points: 2
#     Edge 20, Type (0, 1), BuildingBlock: KIFKEQ_clean_linker_1, # of connection points: 2
#     Edge 21, Type (0, 1), BuildingBlock: KIFKEQ_clean_linker_1, # of connection points: 2
#     Edge 22, Type (0, 1), BuildingBlock: KIFKEQ_clean_linker_1, # of connection points: 2
#     Edge 23, Type (0, 1), BuildingBlock: KIFKEQ_clean_linker_1, # of connection points: 2
#     Edge 24, Type (0, 1), BuildingBlock: KIFKEQ_clean_linker_1, # of connection points: 2
#     Edge 25, Type (0, 1), BuildingBlock: KIFKEQ_clean_linker_1, # of connection points: 2
#     Edge 26, Type (0, 1), BuildingBlock: KIFKEQ_clean_linker_1, # of connection points: 2
#     Edge 27, Type (0, 1), BuildingBlock: KIFKEQ_clean_linker_1, # of connection points: 2
#     Edge 28, Type (0, 1), BuildingBlock: KIFKEQ_clean_linker_1, # of connection points: 2
#     Edge 29, Type (0, 1), BuildingBlock: KIFKEQ_clean_linker_1, # of connection points: 2
#     Edge 30, Type (0, 1), BuildingBlock: KIFKEQ_clean_linker_1, # of connection points: 2
#     Edge 31, Type (0, 1), BuildingBlock: KIFKEQ_clean_linker_1, # of connection points: 2
#     Edge 32, Type (0, 1), BuildingBlock: KIFKEQ_clean_linker_1, # of connection points: 2
#     Edge 33, Type (0, 1), BuildingBlock: KIFKEQ_clean_linker_1, # of connection points: 2
#     Edge 34, Type (0, 1), BuildingBlock: KIFKEQ_clean_linker_1, # of connection points: 2
#     Edge 35, Type (0, 1), BuildingBlock: KIFKEQ_clean_linker_1, # of connection points: 2
# Relax obj value: 0.129
# Max RMSD: 0.135
# Mean RMSD: 0.106
data_MOF--net-dag--node1-MIDCAF_clean_sbu_0--node2-BETDIP_clean_linker_0--edge1-KIFKEQ_clean_linker_1
_symmetry_space_group_name_H-M    P1
_symmetry_Int_Tables_number       1
_symmetry_cell_setting            triclinic
loop_
_symmetry_equiv_pos_as_xyz
'x, y, z'
_cell_length_a     42.080293
_cell_length_b     41.02308
_cell_length_c     32.508082
_cell_angle_alpha  87.869687
_cell_angle_beta   89.597097
_cell_angle_gamma 89.952638
loop_
_atom_site_label
_atom_site_type_symbol
_atom_site_fract_x
_atom_site_fract_y
_atom_site_fract_z
_atom_type_partial_charge
Zn0 Zn 0.17498 0.87531 0.07108 0.0
Zn1 Zn 0.15168 0.86419 0.9164 0.0
Zn2 Zn 0.16006 0.86845 0.99653 0.0
C3 C 0.15263 0.93015 0.93066 0.0
C4 C 0.09789 0.83768 0.95821 0.0
O5 O 0.19948 0.83366 0.01373 0.0
O6 O 0.20283 0.83787 0.08119 0.0
C7 C 0.19088 0.93324 0.0337 0.0
O8 O 0.15915 0.91849 0.96711 0.0
O9 O 0.14808 0.91131 0.90149 0.0
O10 O 0.1115 0.83837 0.92339 0.0
O11 O 0.11172 0.84951 0.98956 0.0
O12 O 0.19712 0.9174 0.06657 0.0
O13 O 0.17453 0.91998 0.00534 0.0
O14 O 0.11719 0.85453 0.03212 0.0
O15 O 0.13074 0.87311 0.09251 0.0
C16 C 0.11022 0.86068 0.06965 0.0
O17 O 0.19579 0.83477 0.97123 0.0
O18 O 0.19147 0.84137 0.90351 0.0
C19 C 0.21158 0.82456 0.0487 0.0
C20 C 0.20539 0.82894 0.93451 0.0
Zn21 Zn 0.67983 0.65771 0.45065 0.0
Zn22 Zn 0.63004 0.64931 0.64952 0.0
Zn23 Zn 0.66014 0.65802 0.52632 0.0
C24 C 0.65572 0.59326 0.5996 0.0
C25 C 0.60221 0.6746 0.56407 0.0
O26 O 0.69997 0.69298 0.52062 0.0
O27 O 0.71084 0.69391 0.45383 0.0
C28 C 0.68736 0.59436 0.49056 0.0
O29 O 0.66047 0.61095 0.56595 0.0
O30 O 0.64409 0.60404 0.63311 0.0
O31 O 0.62259 0.66499 0.59024 0.0
O32 O 0.61181 0.67601 0.52686 0.0
O33 O 0.6947 0.61141 0.45866 0.0
O34 O 0.67259 0.60726 0.52056 0.0
O35 O 0.61903 0.67034 0.4863 0.0
O36 O 0.63802 0.66657 0.42308 0.0
C37 C 0.61486 0.67141 0.44704 0.0
O38 O 0.6896 0.69135 0.56034 0.0
O39 O 0.65618 0.6721 0.60476 0.0
C40 C 0.71582 0.70426 0.48928 0.0
C41 C 0.68071 0.68923 0.59785 0.0
Zn42 Zn 0.85414 0.12317 0.98849 0.0
Zn43 Zn 0.83403 0.14289 0.12652 0.0
Zn44 Zn 0.83645 0.13667 0.05071 0.0
C45 C 0.89856 0.14399 0.09938 0.0
C46 C 0.80472 0.08345 0.11149 0.0
O47 O 0.80752 0.16821 0.0091 0.0
O48 O 0.81019 0.13073 0.96266 0.0
C49 C 0.86822 0.18702 0.99632 0.0
O50 O 0.8853 0.13982 0.06495 0.0
O51 O 0.88179 0.146 0.13167 0.0
O52 O 0.812 0.10075 0.14135 0.0
O53 O 0.81123 0.0934 0.07441 0.0
O54 O 0.88325 0.16163 0.98658 0.0
O55 O 0.84143 0.18395 0.01559 0.0
O56 O 0.82313 0.08683 0.03156 0.0
O57 O 0.86682 0.07682 0.99622 0.0
C58 C 0.84081 0.06685 0.01189 0.0
O59 O 0.80839 0.18157 0.05073 0.0
O60 O 0.80781 0.18327 0.1188 0.0
C61 C 0.79639 0.15549 0.97646 0.0
C62 C 0.79973 0.1952 0.08399 0.0
Zn63 Zn 0.33301 0.34217 0.59297 0.0
Zn64 Zn 0.32906 0.33855 0.43549 0.0
Zn65 Zn 0.3324 0.33877 0.51226 0.0
C66 C 0.39275 0.32945 0.45444 0.0
C67 C 0.30989 0.39869 0.44958 0.0
O68 O 0.29302 0.30715 0.53766 0.0
O69 O 0.29338 0.31808 0.60382 0.0
C70 C 0.39129 0.31679 0.57055 0.0
O71 O 0.38069 0.32505 0.4908 0.0
O72 O 0.37531 0.33886 0.4249 0.0
O73 O 0.30553 0.37916 0.42112 0.0
O74 O 0.32122 0.3881 0.48441 0.0
O75 O 0.37441 0.3201 0.60236 0.0
O76 O 0.38006 0.32397 0.53453 0.0
O77 O 0.3227 0.38954 0.52782 0.0
O78 O 0.32977 0.39035 0.5953 0.0
C79 C 0.32353 0.40502 0.56152 0.0
O80 O 0.29774 0.30034 0.49666 0.0
O81 O 0.30785 0.29661 0.43016 0.0
C82 C 0.28069 0.30424 0.57409 0.0
C83 C 0.29417 0.28592 0.46248 0.0
H84 H 0.13287 0.20999 0.18783 0.0
H85 H 0.21846 0.15539 0.1707 0.0
H86 H 0.14122 0.14538 0.08688 0.0
H87 H 0.20626 0.14697 0.24415 0.0
C88 C 0.20116 0.172 0.25189 0.0
C89 C 0.14645 0.1933 0.16958 0.0
C90 C 0.13292 0.17921 0.13505 0.0
C91 C 0.17652 0.18368 0.18341 0.0
C92 C 0.19499 0.16246 0.1602 0.0
C93 C 0.18281 0.14983 0.12398 0.0
C94 C 0.15166 0.15795 0.11216 0.0
N95 N 0.18631 0.1935 0.22264 0.0
H96 H 0.29119 0.63799 0.67898 0.0
H97 H 0.36785 0.70615 0.68792 0.0
H98 H 0.37027 0.63508 0.5945 0.0
H99 H 0.35904 0.69467 0.75657 0.0
C100 C 0.33324 0.69507 0.75827 0.0
C101 C 0.3135 0.64775 0.66714 0.0
C102 C 0.32822 0.63418 0.63277 0.0
C103 C 0.32837 0.67263 0.68813 0.0
C104 C 0.35702 0.68593 0.67282 0.0
C105 C 0.37218 0.67276 0.63864 0.0
C106 C 0.35758 0.6469 0.61892 0.0
N107 N 0.31489 0.68273 0.72573 0.0
H108 H 0.9159 0.81257 0.26959 0.0
H109 H 0.82921 0.86621 0.28305 0.0
H110 H 0.8802 0.87158 0.16789 0.0
H111 H 0.85418 0.87272 0.34898 0.0
C112 C 0.85875 0.84686 0.35464 0.0
C113 C 0.89787 0.82848 0.25616 0.0
C114 C 0.90096 0.84043 0.21529 0.0
C115 C 0.87281 0.8386 0.28096 0.0
C116 C 0.8491 0.85904 0.26409 0.0
C117 C 0.85111 0.87048 0.22289 0.0
C118 C 0.87717 0.86098 0.1987 0.0
N119 N 0.87222 0.82817 0.32301 0.0
H120 H 0.6236 0.27067 0.69528 0.0
H121 H 0.6941 0.3465 0.69466 0.0
H122 H 0.61309 0.35445 0.61442 0.0
H123 H 0.66788 0.24034 0.71771 0.0
C124 C 0.67659 0.25683 0.74049 0.0
C125 C 0.63307 0.29342 0.68251 0.0
C126 C 0.61627 0.31039 0.65141 0.0
C127 C 0.66132 0.30649 0.69793 0.0
C128 C 0.67239 0.33675 0.68233 0.0
C129 C 0.65557 0.35432 0.65149 0.0
C130 C 0.62755 0.34067 0.63634 0.0
N131 N 0.67797 0.29084 0.73097 0.0
H132 H 0.62673 0.30684 0.3275 0.0
H133 H 0.70361 0.37423 0.34235 0.0
H134 H 0.62719 0.36995 0.43024 0.0
H135 H 0.72762 0.34703 0.29423 0.0
C136 C 0.70965 0.33582 0.27563 0.0
C137 C 0.63823 0.32524 0.34528 0.0
C138 C 0.62371 0.33611 0.38137 0.0
C139 C 0.66708 0.33852 0.33097 0.0
C140 C 0.68185 0.36294 0.35342 0.0
C141 C 0.66784 0.37397 0.38977 0.0
C142 C 0.63899 0.36016 0.40365 0.0
N143 N 0.67918 0.3282 0.29256 0.0
H144 H 0.03723 0.22628 0.77591 0.0
H145 H 0.1062 0.14863 0.78006 0.0
H146 H 0.04284 0.16124 0.88244 0.0
H147 H 0.10548 0.15522 0.71162 0.0
C148 C 0.10306 0.18141 0.70661 0.0
C149 C 0.04822 0.20565 0.79204 0.0
C150 C 0.03757 0.19601 0.83162 0.0
C151 C 0.07282 0.18862 0.77295 0.0
C152 C 0.08699 0.16185 0.79412 0.0
C153 C 0.07617 0.15155 0.8335 0.0
C154 C 0.05152 0.16896 0.85214 0.0
N155 N 0.08345 0.1997 0.73318 0.0
H156 H 0.40542 0.67981 0.26152 0.0
H157 H 0.32261 0.61825 0.27113 0.0
H158 H 0.39091 0.61703 0.36861 0.0
H159 H 0.31518 0.63118 0.20617 0.0
C160 C 0.32829 0.65317 0.19762 0.0
C161 C 0.39121 0.66181 0.27857 0.0
C162 C 0.40099 0.65037 0.31769 0.0
C163 C 0.36313 0.65038 0.26118 0.0
C164 C 0.34462 0.62704 0.28348 0.0
C165 C 0.35441 0.61491 0.32245 0.0
C166 C 0.38248 0.627 0.33932 0.0
N167 N 0.35418 0.6636 0.2218 0.0
H168 H 0.78022 0.82893 0.91276 0.0
H169 H 0.8597 0.76508 0.89269 0.0
H170 H 0.86671 0.84001 0.98035 0.0
H171 H 0.83913 0.76255 0.83013 0.0
C172 C 0.81358 0.76555 0.83272 0.0
C173 C 0.804 0.82079 0.92063 0.0
C174 C 0.82135 0.8369 0.95051 0.0
C175 C 0.81775 0.79538 0.89893 0.0
C176 C 0.84886 0.78499 0.90857 0.0
C177 C 0.86641 0.80066 0.93867 0.0
C178 C 0.85237 0.82638 0.95941 0.0
N179 N 0.80013 0.78207 0.86639 0.0
H180 H 0.15396 0.98454 0.01199 0.0
H181 H 0.24761 0.95915 0.05437 0.0
H182 H 0.16496 0.04193 0.02112 0.0
H183 H 0.25838 0.01672 0.06639 0.0
H184 H 0.2159 0.09783 0.15681 0.0
H185 H 0.22914 0.04813 0.12209 0.0
H186 H 0.19982 0.09278 0.00614 0.0
H187 H 0.18735 0.14314 0.04073 0.0
C188 C 0.17759 0.99155 0.02048 0.0
C189 C 0.20022 0.96773 0.03073 0.0
C190 C 0.18386 0.02437 0.02656 0.0
C191 C 0.21266 0.03379 0.04428 0.0
C192 C 0.23609 0.0101 0.05247 0.0
C193 C 0.22992 0.97728 0.04565 0.0
C194 C 0.21372 0.09771 0.12364 0.0
C195 C 0.19987 0.12414 0.10164 0.0
C196 C 0.22132 0.06915 0.10369 0.0
C197 C 0.21497 0.06652 0.06156 0.0
C198 C 0.20456 0.09415 0.03874 0.0
C199 C 0.19732 0.12284 0.05859 0.0
H200 H 0.55768 0.70919 0.52013 0.0
H201 H 0.57179 0.65364 0.63397 0.0
H202 H 0.50162 0.71644 0.53792 0.0
H203 H 0.51608 0.66014 0.65141 0.0
H204 H 0.42084 0.68917 0.68938 0.0
H205 H 0.47628 0.69726 0.6712 0.0
H206 H 0.45425 0.68425 0.54318 0.0
H207 H 0.39821 0.67867 0.56098 0.0
C208 C 0.54873 0.6985 0.54889 0.0
C209 C 0.5689 0.68059 0.57551 0.0
C210 C 0.51669 0.70265 0.5591 0.0
C211 C 0.50432 0.68895 0.59614 0.0
C212 C 0.52486 0.67166 0.62306 0.0
C213 C 0.55681 0.6677 0.61296 0.0
C214 C 0.4275 0.68917 0.65715 0.0
C215 C 0.405 0.68284 0.62669 0.0
C216 C 0.45949 0.69329 0.64681 0.0
C217 C 0.46986 0.69063 0.60588 0.0
C218 C 0.44713 0.68646 0.57503 0.0
C219 C 0.41502 0.68282 0.58531 0.0
H220 H 0.83965 0.03332 0.0881 0.0
H221 H 0.75805 0.05669 0.1617 0.0
H222 H 0.83537 0.97651 0.10949 0.0
H223 H 0.75559 -0.00058 0.18748 0.0
H224 H 0.82692 0.92273 0.26266 0.0
H225 H 0.80134 0.97056 0.23136 0.0
H226 H 0.79957 0.92414 0.11455 0.0
H227 H 0.82492 0.87572 0.14586 0.0
C228 C 0.81929 0.02575 0.10642 0.0
C229 C 0.79767 0.04883 0.12043 0.0
C230 C 0.81727 0.99326 0.1197 0.0
C231 C 0.79466 0.98337 0.14947 0.0
C232 C 0.77275 0.00636 0.16377 0.0
C233 C 0.77417 0.03896 0.14914 0.0
C234 C 0.8199 0.92201 0.23072 0.0
C235 C 0.82864 0.89567 0.20651 0.0
C236 C 0.80507 0.94945 0.21285 0.0
C237 C 0.7989 0.9511 0.17047 0.0
C238 C 0.80446 0.92346 0.14723 0.0
C239 C 0.81919 0.89594 0.16509 0.0
H240 H 0.41448 0.26807 0.6205 0.0
H241 H 0.44299 0.34572 0.53513 0.0
H242 H 0.47026 0.25706 0.63688 0.0
H243 H 0.49863 0.335 0.55125 0.0
H244 H 0.5974 0.30388 0.57226 0.0
H245 H 0.54301 0.29714 0.54823 0.0
H246 H 0.51034 0.28645 0.67427 0.0
H247 H 0.56482 0.2923 0.69811 0.0
C248 C 0.43282 0.28229 0.60467 0.0
C249 C 0.4247 0.30726 0.57595 0.0
C250 C 0.46466 0.27612 0.61413 0.0
C251 C 0.4889 0.29507 0.59532 0.0
C252 C 0.48063 0.31949 0.56572 0.0
C253 C 0.44881 0.32567 0.5564 0.0
C254 C 0.57862 0.29921 0.59468 0.0
C255 C 0.58513 0.29885 0.637 0.0
C256 C 0.54752 0.29561 0.58096 0.0
C257 C 0.52231 0.29194 0.6093 0.0
C258 C 0.52922 0.28905 0.65159 0.0
C259 C 0.56041 0.29238 0.66531 0.0
H260 H 0.73887 0.56391 0.45937 0.0
H261 H 0.6472 0.54555 0.51549 0.0
H262 H 0.74245 0.50665 0.44125 0.0
H263 H 0.65141 0.488 0.49933 0.0
H264 H 0.69134 0.43042 0.35422 0.0
H265 H 0.70416 0.48064 0.38806 0.0
H266 H 0.68645 0.43316 0.50645 0.0
H267 H 0.67337 0.38252 0.47277 0.0
C268 C 0.72012 0.54729 0.46938 0.0
C269 C 0.69304 0.55893 0.48969 0.0
C270 C 0.72218 0.51462 0.45899 0.0
C271 C 0.69727 0.49297 0.46899 0.0
C272 C 0.67123 0.50406 0.49194 0.0
C273 C 0.66895 0.5369 0.50169 0.0
C274 C 0.69102 0.43029 0.38754 0.0
C275 C 0.68098 0.40254 0.41076 0.0
C276 C 0.69834 0.45911 0.40692 0.0
C277 C 0.6957 0.46083 0.44987 0.0
C278 C 0.68776 0.43259 0.47331 0.0
C279 C 0.68045 0.40368 0.45398 0.0
H280 H 0.91662 0.22114 0.0272 0.0
H281 H 0.8511 0.22038 0.92634 0.0
H282 H 0.95904 0.23769 0.98067 0.0
H283 H 0.89273 0.24022 0.87944 0.0
H284 H 0.97564 0.18855 0.81336 0.0
H285 H 0.93002 0.2063 0.85263 0.0
H286 H 0.99246 0.25938 0.93168 0.0
H287 H 0.03824 0.23933 0.89326 0.0
C288 C 0.91079 0.22692 0.99535 0.0
C289 C 0.88109 0.21809 0.98 0.0
C290 C 0.93532 0.2363 0.96824 0.0
C291 C 0.92998 0.23836 0.92545 0.0
C292 C 0.89826 0.23701 0.91181 0.0
C293 C 0.87399 0.22665 0.93894 0.0
C294 C 0.97938 0.20457 0.83865 0.0
C295 C 0.01021 0.21238 0.85067 0.0
C296 C 0.95316 0.21519 0.86112 0.0
C297 C 0.95716 0.23426 0.896 0.0
C298 C 0.98822 0.24418 0.90578 0.0
C299 C 0.01451 0.23294 0.88368 0.0
H300 H 0.26634 0.42916 0.39959 0.0
H301 H 0.34827 0.44669 0.47424 0.0
H302 H 0.26837 0.4857 0.37261 0.0
H303 H 0.34969 0.50328 0.44903 0.0
H304 H 0.342 0.60699 0.40527 0.0
H305 H 0.32303 0.55765 0.44198 0.0
H306 H 0.30884 0.51199 0.32597 0.0
H307 H 0.32827 0.56085 0.28936 0.0
C308 C 0.28403 0.44548 0.41139 0.0
C309 C 0.30659 0.43394 0.44006 0.0
C310 C 0.28526 0.47774 0.39589 0.0
C311 C 0.30912 0.49897 0.40878 0.0
C312 C 0.33056 0.48781 0.43915 0.0
C313 C 0.32951 0.45552 0.45419 0.0
C314 C 0.33447 0.58654 0.38759 0.0
C315 C 0.33713 0.5877 0.34436 0.0
C316 C 0.32351 0.55837 0.40863 0.0
C317 C 0.31469 0.53088 0.38689 0.0
C318 C 0.31512 0.53289 0.34362 0.0
C319 C 0.32628 0.56097 0.32258 0.0
H320 H 0.04845 0.86206 1.00165 0.0
H321 H 0.07358 0.78578 0.91959 0.0
H322 H 0.99315 0.84407 1.00148 0.0
H323 H 0.01809 0.76802 0.91863 0.0
H324 H 0.91204 0.79137 0.88008 0.0
H325 H 0.96937 0.79356 0.88924 0.0
H326 H 0.95601 0.79847 0.02072 0.0
H327 H 0.89851 0.79587 0.01161 0.0
C328 C 0.04223 0.84083 0.98458 0.0
C329 C 0.06527 0.82483 0.96142 0.0
C330 C 0.01059 0.83057 0.98433 0.0
C331 C 0.00131 0.8045 0.96016 0.0
C332 C 0.02454 0.7882 0.93745 0.0
C333 C 0.05622 0.79831 0.93804 0.0
C334 C 0.92131 0.79169 0.91106 0.0
C335 C 0.90073 0.79385 0.94507 0.0
C336 C 0.95421 0.79307 0.91632 0.0
C337 C 0.96713 0.79671 0.95566 0.0
C338 C 0.94666 0.79628 0.98998 0.0
C339 C 0.9138 0.7947 0.98475 0.0
H340 H 0.78072 0.04165 0.00935 0.0
H341 H 0.87996 0.01475 0.00657 0.0
H342 H 0.76592 0.98415 1.00142 0.0
H343 H 0.86515 0.95767 1.00012 0.0
H344 H 0.82829 0.8572 0.02926 0.0
H345 H 0.82688 0.91372 0.05005 0.0
H346 H 0.78646 0.94328 0.93306 0.0
H347 H 0.78968 0.88718 0.91087 0.0
C348 C 0.79925 0.02343 0.00739 0.0
C349 C 0.83146 0.0325 0.00821 0.0
C350 C 0.79079 0.99073 1.00304 0.0
C351 C 0.81447 0.96678 1.00065 0.0
C352 C 0.84655 0.97582 1.00241 0.0
C353 C 0.85499 0.00841 0.00566 0.0
C354 C 0.81833 0.87557 0.0083 0.0
C355 C 0.80992 0.8678 0.96799 0.0
C356 C 0.81726 0.9078 0.02043 0.0
C357 C 0.80667 0.93257 0.99303 0.0
C358 C 0.79449 0.92438 0.95473 0.0
C359 C 0.79625 0.8922 0.94215 0.0
H360 H 0.43501 0.28478 0.48853 0.0
H361 H 0.42763 0.36581 0.40053 0.0
H362 H 0.4921 0.28011 0.47218 0.0
H363 H 0.48357 0.36062 0.3835 0.0
H364 H 0.57352 0.3269 0.3303 0.0
H365 H 0.51802 0.31921 0.34937 0.0
H366 H 0.54307 0.31638 0.47787 0.0
H367 H 0.5992 0.32277 0.45894 0.0
C368 C 0.44564 0.30168 0.46606 0.0
C369 C 0.42711 0.32596 0.44627 0.0
C370 C 0.47811 0.29886 0.45648 0.0
C371 C 0.49211 0.31975 0.42618 0.0
C372 C 0.47334 0.34378 0.4064 0.0
C373 C 0.44131 0.34684 0.4163 0.0
C374 C 0.56751 0.32352 0.36262 0.0
C375 C 0.59087 0.32574 0.39308 0.0
C376 C 0.53561 0.31945 0.37354 0.0
C377 C 0.52626 0.31759 0.41513 0.0
C378 C 0.54969 0.31756 0.44563 0.0
C379 C 0.58173 0.3216 0.43472 0.0
H380 H 0.10947 0.9669 0.96978 0.0
H381 H 0.17919 0.9708 0.87207 0.0
H382 H 0.09345 0.02288 0.95208 0.0
H383 H 0.16227 0.02626 0.85259 0.0
H384 H 0.13872 0.1337 0.84112 0.0
H385 H 0.15997 0.08233 0.86972 0.0
H386 H 0.06448 0.04981 0.89893 0.0
H387 H 0.04352 0.1013 0.87126 0.0
C388 C 0.12181 0.98015 0.94502 0.0
C389 C 0.14628 0.96515 0.92319 0.0
C390 C 0.11233 0.01201 0.93441 0.0
C391 C 0.12648 0.02922 0.90079 0.0
C392 C 0.15124 0.01412 0.87915 0.0
C393 C 0.1609 0.98233 0.89013 0.0
C394 C 0.12236 0.11559 0.85393 0.0
C395 C 0.08944 0.12153 0.85389 0.0
C396 C 0.1345 0.08611 0.87021 0.0
C397 C 0.114 0.06175 0.88656 0.0
C398 C 0.08111 0.06812 0.88734 0.0
C399 C 0.06902 0.09767 0.87137 0.0
H400 H 0.5987 0.69809 0.37199 0.0
H401 H 0.55863 0.65279 0.48247 0.0
H402 H 0.54617 0.69965 0.34065 0.0
H403 H 0.50637 0.65341 0.45111 0.0
H404 H 0.4113 0.67181 0.39487 0.0
H405 H 0.46222 0.68338 0.4267 0.0
H406 H 0.51036 0.66258 0.31262 0.0
H407 H 0.45931 0.65231 0.2807 0.0
C408 C 0.57855 0.68876 0.38969 0.0
C409 C 0.58267 0.67561 0.42979 0.0
C410 C 0.54847 0.68943 0.37167 0.0
C411 C 0.52191 0.67647 0.39314 0.0
C412 C 0.52603 0.66417 0.43378 0.0
C413 C 0.55605 0.66381 0.45189 0.0
C414 C 0.43282 0.6702 0.37657 0.0
C415 C 0.43144 0.66108 0.3354 0.0
C416 C 0.46202 0.67662 0.39482 0.0
C417 C 0.49057 0.67361 0.37245 0.0
C418 C 0.48895 0.66565 0.33073 0.0
C419 C 0.45969 0.65964 0.31236 0.0
H420 H 0.36602 0.45312 0.54563 0.0
H421 H 0.26837 0.43508 0.58029 0.0
H422 H 0.35809 0.51163 0.55397 0.0
H423 H 0.26062 0.49369 0.59043 0.0
H424 H 0.29977 0.58202 0.6733 0.0
H425 H 0.29089 0.52815 0.647 0.0
H426 H 0.32208 0.56227 0.52629 0.0
H427 H 0.32942 0.61702 0.55182 0.0
C428 C 0.34266 0.46195 0.55399 0.0
C429 C 0.31757 0.44012 0.56143 0.0
C430 C 0.33808 0.49528 0.55869 0.0
C431 C 0.30864 0.50703 0.5724 0.0
C432 C 0.28338 0.48514 0.57938 0.0
C433 C 0.2878 0.45183 0.57367 0.0
C434 C 0.30341 0.57866 0.64074 0.0
C435 C 0.31587 0.60385 0.61487 0.0
C436 C 0.29841 0.54766 0.62574 0.0
C437 C 0.30617 0.54116 0.58482 0.0
C438 C 0.31621 0.56677 0.55808 0.0
C439 C 0.3206 0.59797 0.57285 0.0
H440 H 0.06995 0.80932 0.05699 0.0
H441 H 0.07885 0.8988 0.12175 0.0
H442 H 0.0176 0.79963 0.08974 0.0
H443 H 0.0276 0.88885 0.15485 0.0
H444 H 0.96093 0.84272 0.24556 0.0
H445 H 0.01065 0.84318 0.20745 0.0
H446 H 0.95994 0.83006 0.09434 0.0
H447 H 0.90948 0.8287 0.13289 0.0
C448 C 0.06049 0.82704 0.07771 0.0
C449 C 0.07813 0.85493 0.08664 0.0
C450 C 0.03077 0.82145 0.09648 0.0
C451 C 0.0189 0.84335 0.12507 0.0
C452 C 0.03646 0.87138 0.13334 0.0
C453 C 0.06573 0.87708 0.1144 0.0
C454 C 0.96021 0.83888 0.2128 0.0
C455 C 0.93115 0.83573 0.19228 0.0
C456 C 0.98874 0.83949 0.19093 0.0
C457 C 0.98898 0.83706 0.14801 0.0
C458 C 0.96027 0.83196 0.12749 0.0
C459 C 0.93148 0.83144 0.14948 0.0
H460 H 0.61039 0.5476 0.59837 0.0
H461 H 0.71207 0.56033 0.60162 0.0
H462 H 0.61715 0.4884 0.60497 0.0
H463 H 0.7189 0.50065 0.60979 0.0
H464 H 0.68513 0.40158 0.69596 0.0
H465 H 0.69161 0.45913 0.67636 0.0
H466 H 0.65006 0.44249 0.55833 0.0
H467 H 0.64728 0.38431 0.57509 0.0
C468 C 0.63417 0.53751 0.60003 0.0
C469 C 0.66075 0.55805 0.59904 0.0
C470 C 0.63804 0.50384 0.60374 0.0
C471 C 0.66851 0.49029 0.60778 0.0
C472 C 0.69523 0.51079 0.60657 0.0
C473 C 0.69137 0.54464 0.60181 0.0
C474 C 0.67887 0.40962 0.66499 0.0
C475 C 0.66504 0.38803 0.6375 0.0
C476 C 0.68245 0.4427 0.65395 0.0
C477 C 0.67154 0.45489 0.61576 0.0
C478 C 0.6592 0.43336 0.5876 0.0
C479 C 0.65692 0.40015 0.59779 0.0
H480 H 0.93851 0.16732 0.03875 0.0
H481 H 0.93652 0.13134 0.16514 0.0
H482 H 0.994 0.18256 0.04573 0.0
H483 H 0.99263 0.14308 0.17124 0.0
H484 H 0.08427 0.18789 0.19071 0.0
H485 H 0.02814 0.18349 0.1794 0.0
H486 H 0.04573 0.16743 0.05042 0.0
H487 H 0.10181 0.17672 0.06058 0.0
C488 C 0.95017 0.16225 0.06786 0.0
C489 C 0.93314 0.14882 0.10166 0.0
C490 C 0.98213 0.17071 0.07186 0.0
C491 C -0.00195 0.16474 0.10938 0.0
C492 C 0.98115 0.1495 0.14238 0.0
C493 C 0.949 0.1422 0.13878 0.0
C494 C 0.07639 0.18481 0.1595 0.0
C495 C 0.09814 0.18206 0.12674 0.0
C496 C 0.04389 0.18129 0.15319 0.0
C497 C 0.03214 0.17363 0.11431 0.0
C498 C 0.0536 0.17304 0.08097 0.0
C499 C 0.08608 0.17782 0.08698 0.0
H500 H 0.20954 0.76223 0.02148 0.0
H501 H 0.26712 0.82905 0.08782 0.0
H502 H 0.24353 0.71684 0.04544 0.0
H503 H 0.30013 0.7844 0.11304 0.0
H504 H 0.35921 0.70349 0.15643 0.0
H505 H 0.33689 0.74204 0.10561 0.0
H506 H 0.24785 0.68945 0.11135 0.0
H507 H 0.27088 0.65009 0.1607 0.0
C508 C 0.23024 0.76731 0.03975 0.0
C509 C 0.236 0.799 0.05258 0.0
C510 C 0.24939 0.74133 0.05412 0.0
C511 C 0.27443 0.74678 0.08168 0.0
C512 C 0.28146 0.77906 0.09156 0.0
C513 C 0.26243 0.80478 0.07725 0.0
C514 C 0.33504 0.6999 0.14629 0.0
C515 C 0.31649 0.67422 0.16307 0.0
C516 C 0.3222 0.72202 0.11717 0.0
C517 C 0.29033 0.71931 0.10479 0.0
C518 C 0.27253 0.69228 0.11973 0.0
C519 C 0.28558 0.66985 0.14837 0.0
H520 H 0.66629 0.68735 0.67977 0.0
H521 H 0.73753 0.72157 0.59214 0.0
H522 H 0.69825 0.70661 0.73588 0.0
H523 H 0.76935 0.74165 0.64847 0.0
H524 H 0.83311 0.73653 0.7635 0.0
H525 H 0.8008 0.71967 0.70585 0.0
H526 H 0.71676 0.75604 0.76609 0.0
H527 H 0.74896 0.77217 0.82395 0.0
C528 C 0.6887 0.69918 0.67243 0.0
C529 C 0.69947 0.70271 0.63151 0.0
C530 C 0.70694 0.71046 0.70464 0.0
C531 C 0.7364 0.72563 0.69672 0.0
C532 C 0.74696 0.72966 0.65567 0.0
C533 C 0.72866 0.71836 0.62338 0.0
C534 C 0.80771 0.74084 0.76433 0.0
C535 C 0.79355 0.7555 0.79821 0.0
C536 C 0.78924 0.73145 0.73121 0.0
C537 C 0.75619 0.73654 0.73132 0.0
C538 C 0.74209 0.7514 0.76525 0.0
C539 C 0.76057 0.76076 0.79836 0.0
H540 H 0.81811 0.2584 0.07522 0.0
H541 H 0.73703 0.19634 0.09851 0.0
H542 H 0.79156 0.30249 0.1106 0.0
H543 H 0.71096 0.2392 0.13535 0.0
H544 H 0.67136 0.31342 0.21464 0.0
H545 H 0.68816 0.28911 0.15065 0.0
H546 H 0.78635 0.30618 0.18207 0.0
H547 H 0.76926 0.33177 0.24471 0.0
C548 C 0.79386 0.25488 0.08593 0.0
C549 C 0.77945 0.22419 0.08411 0.0
C550 C 0.77888 0.27982 0.10705 0.0
C551 C 0.74954 0.27413 0.12726 0.0
C552 C 0.73347 0.24475 0.12038 0.0
C553 C 0.74831 0.22007 0.09892 0.0
C554 C 0.6965 0.31235 0.20744 0.0
C555 C 0.71912 0.32389 0.23494 0.0
C556 C 0.70617 0.29841 0.17074 0.0
C557 C 0.73868 0.29526 0.16107 0.0
C558 C 0.7611 0.30852 0.18779 0.0
C559 C 0.75138 0.32286 0.22411 0.0
H560 H 0.23423 0.32277 0.62496 0.0
H561 H 0.25952 0.24647 0.54299 0.0
H562 H 0.18755 0.29265 0.64741 0.0
H563 H 0.21138 0.21623 0.56437 0.0
H564 H 0.15482 0.15661 0.66878 0.0
H565 H 0.19424 0.18628 0.62651 0.0
H566 H 0.13646 0.27329 0.63098 0.0
H567 H 0.09796 0.24392 0.67466 0.0
C568 C 0.22933 0.29972 0.61105 0.0
C569 C 0.25044 0.28695 0.58217 0.0
C570 C 0.20227 0.28255 0.62358 0.0
C571 C 0.19547 0.25201 0.60759 0.0
C572 C 0.21599 0.23966 0.5774 0.0
C573 C 0.2433 0.25708 0.56472 0.0
C574 C 0.15043 0.18196 0.66012 0.0
C575 C 0.12381 0.19819 0.6757 0.0
C576 C 0.17286 0.19892 0.63562 0.0
C577 C 0.16882 0.23235 0.62588 0.0
C578 C 0.14074 0.24777 0.63878 0.0
C579 C 0.11862 0.23096 0.66376 0.0
H580 H 0.77608 0.70059 0.51838 0.0
H581 H 0.70629 0.7669 0.46666 0.0
H582 H 0.81787 0.74117 0.50383 0.0
H583 H 0.74744 0.80722 0.45176 0.0
H584 H 0.82162 0.87336 0.41313 0.0
H585 H 0.79109 0.84386 0.46694 0.0
H586 H 0.83661 0.75397 0.43371 0.0
H587 H 0.86729 0.7834 0.38103 0.0
C588 C 0.76964 0.72441 0.50552 0.0
C589 C 0.73837 0.73092 0.49328 0.0
C590 C 0.79343 0.74753 0.49704 0.0
C591 C 0.78604 0.7772 0.4761 0.0
C592 C 0.754 0.7848 0.46822 0.0
C593 C 0.73039 0.76169 0.47648 0.0
C594 C 0.8257 0.84745 0.41834 0.0
C595 C 0.84604 0.83046 0.39234 0.0
C596 C 0.80829 0.8306 0.44909 0.0
C597 C 0.81107 0.79653 0.45417 0.0
C598 C 0.83399 0.78022 0.43088 0.0
C599 C 0.85131 0.79704 0.4002 0.0
H600 H 0.74835 0.12762 0.93586 0.0
H601 H 0.79126 0.2206 0.95844 0.0
H602 H 0.71458 0.15322 0.88349 0.0
H603 H 0.75938 0.24618 0.90375 0.0
H604 H 0.68861 0.28785 0.81203 0.0
H605 H 0.71196 0.26433 0.87491 0.0
H606 H 0.72114 0.17162 0.81649 0.0
H607 H 0.69597 0.19482 0.75508 0.0
C608 C 0.75024 0.1537 0.92971 0.0
C609 C 0.77234 0.1722 0.95085 0.0
C610 C 0.73125 0.16837 0.8993 0.0
C611 C 0.73475 0.2017 0.88831 0.0
C612 C 0.75574 0.22054 0.91132 0.0
C613 C 0.77411 0.20594 0.94266 0.0
C614 C 0.69552 0.2624 0.81292 0.0
C615 C 0.69069 0.24308 0.77876 0.0
C616 C 0.70904 0.2489 0.8489 0.0
C617 C 0.71849 0.21595 0.85115 0.0
C618 C 0.71349 0.19681 0.81665 0.0
C619 C 0.69939 0.21014 0.78113 0.0
H620 H 0.22976 0.28513 0.4658 0.0
H621 H 0.31203 0.22505 0.44586 0.0
H622 H 0.19764 0.24855 0.42531 0.0
H623 H 0.28068 0.18899 0.40492 0.0
H624 H 0.22534 0.13548 0.31563 0.0
H625 H 0.23882 0.15347 0.38435 0.0
H626 H 0.20342 0.24983 0.35131 0.0
H627 H 0.18944 0.23169 0.28373 0.0
C628 C 0.24047 0.26305 0.45474 0.0
C629 C 0.27324 0.25782 0.45845 0.0
C630 C 0.22227 0.24236 0.43107 0.0
C631 C 0.23686 0.21651 0.41068 0.0
C632 C 0.2686 0.20864 0.41995 0.0
C633 C 0.28666 0.22927 0.44358 0.0
C634 C 0.22006 0.16034 0.32352 0.0
C635 C 0.2069 0.18233 0.29423 0.0
C636 C 0.22763 0.1706 0.36283 0.0
C637 C 0.22221 0.20308 0.37345 0.0
C638 C 0.2074 0.22448 0.34465 0.0
C639 C 0.19982 0.21421 0.30551 0.0
H640 H 0.26325 0.84349 0.903 0.0
H641 H 0.20401 0.76345 0.94598 0.0
H642 H 0.2991 0.80534 0.87018 0.0
H643 H 0.23992 0.72495 0.91336 0.0
H644 H 0.27022 0.69317 0.77991 0.0
H645 H 0.24473 0.72106 0.83616 0.0
H646 H 0.33603 0.75659 0.87463 0.0
H647 H 0.36167 0.72847 0.81806 0.0
C648 C 0.25884 0.81753 0.90697 0.0
C649 C 0.23134 0.80614 0.92728 0.0
C650 C 0.27929 0.79569 0.88825 0.0
C651 C 0.27209 0.76223 0.88895 0.0
C652 C 0.24589 0.75065 0.91225 0.0
C653 C 0.2256 0.77254 0.9313 0.0
C654 C 0.28491 0.70654 0.80068 0.0
C655 C 0.31785 0.70911 0.79442 0.0
C656 C 0.27037 0.72219 0.83321 0.0
C657 C 0.28845 0.74091 0.85982 0.0
C658 C 0.32158 0.74234 0.85452 0.0
C659 C 0.33617 0.72636 0.82221 0.0
loop_
_geom_bond_atom_site_label_1
_geom_bond_atom_site_label_2
_geom_bond_distance
_geom_bond_site_symmetry_2
_ccdc_geom_bond_type
Zn0 O6 1.920 . S
Zn0 O12 1.898 . S
Zn0 O15 1.905 . S
Zn1 O9 1.905 . S
Zn1 O10 1.898 . S
Zn1 O18 1.920 . S
Zn2 O5 2.090 . S
Zn2 O8 2.105 1_554 S
Zn2 O11 2.111 1_554 S
Zn2 O13 2.129 . S
Zn2 O14 2.125 . S
Zn2 O17 2.069 1_554 S
C3 O8 1.166 . S
C3 O9 1.182 . S
C4 O10 1.167 . S
C4 O11 1.299 . S
O5 Zn2 2.090 . S
O5 C19 1.305 . S
O6 Zn0 1.920 . S
O6 C19 1.234 . S
C7 O12 1.167 . S
C7 O13 1.299 . S
O8 Zn2 2.105 1_556 S
O8 C3 1.166 . S
O9 Zn1 1.905 . S
O9 C3 1.182 . S
O10 Zn1 1.898 . S
O10 C4 1.167 . S
O11 Zn2 2.111 1_556 S
O11 C4 1.299 . S
O12 Zn0 1.898 . S
O12 C7 1.167 . S
O13 Zn2 2.129 . S
O13 C7 1.299 . S
O14 Zn2 2.125 . S
O14 C16 1.166 . S
O15 Zn0 1.905 . S
O15 C16 1.182 . S
C16 O14 1.166 . S
C16 O15 1.182 . S
O17 Zn2 2.069 1_556 S
O17 C20 1.305 . S
O18 Zn1 1.920 . S
O18 C20 1.234 . S
C19 O5 1.305 . S
C19 O6 1.234 . S
C20 O17 1.305 . S
C20 O18 1.234 . S
Zn21 O27 1.920 . S
Zn21 O33 1.898 . S
Zn21 O36 1.905 . S
Zn22 O30 1.905 . S
Zn22 O31 1.898 . S
Zn22 O39 1.920 . S
Zn23 O26 2.080 . S
Zn23 O29 2.114 . S
Zn23 O32 2.120 . S
Zn23 O34 2.120 . S
Zn23 O35 2.114 . S
Zn23 O38 2.080 . S
C24 O29 1.166 . S
C24 O30 1.182 . S
C25 O31 1.167 . S
C25 O32 1.299 . S
O26 Zn23 2.080 . S
O26 C40 1.305 . S
O27 Zn21 1.920 . S
O27 C40 1.234 . S
C28 O33 1.167 . S
C28 O34 1.299 . S
O29 Zn23 2.114 . S
O29 C24 1.166 . S
O30 Zn22 1.905 . S
O30 C24 1.182 . S
O31 Zn22 1.898 . S
O31 C25 1.167 . S
O32 Zn23 2.120 . S
O32 C25 1.299 . S
O33 Zn21 1.898 . S
O33 C28 1.167 . S
O34 Zn23 2.120 . S
O34 C28 1.299 . S
O35 Zn23 2.114 . S
O35 C37 1.166 . S
O36 Zn21 1.905 . S
O36 C37 1.182 . S
C37 O35 1.166 . S
C37 O36 1.182 . S
O38 Zn23 2.080 . S
O38 C41 1.305 . S
O39 Zn22 1.920 . S
O39 C41 1.234 . S
C40 O26 1.305 . S
C40 O27 1.234 . S
C41 O38 1.305 . S
C41 O39 1.234 . S
Zn42 O48 1.920 . S
Zn42 O54 1.898 . S
Zn42 O57 1.905 . S
Zn43 O51 1.905 . S
Zn43 O52 1.898 . S
Zn43 O60 1.920 . S
Zn44 O47 2.081 1_554 S
Zn44 O50 2.114 . S
Zn44 O53 2.120 . S
Zn44 O55 2.120 1_554 S
Zn44 O56 2.114 1_554 S
Zn44 O59 2.080 . S
C45 O50 1.166 . S
C45 O51 1.182 . S
C46 O52 1.167 . S
C46 O53 1.299 . S
O47 Zn44 2.081 1_556 S
O47 C61 1.304 . S
O48 Zn42 1.920 . S
O48 C61 1.234 . S
C49 O54 1.167 . S
C49 O55 1.299 . S
O50 Zn44 2.114 . S
O50 C45 1.166 . S
O51 Zn43 1.905 . S
O51 C45 1.182 . S
O52 Zn43 1.898 . S
O52 C46 1.167 . S
O53 Zn44 2.120 . S
O53 C46 1.299 . S
O54 Zn42 1.898 . S
O54 C49 1.167 . S
O55 Zn44 2.120 1_556 S
O55 C49 1.299 . S
O56 Zn44 2.114 1_556 S
O56 C58 1.166 . S
O57 Zn42 1.905 . S
O57 C58 1.182 . S
C58 O56 1.166 . S
C58 O57 1.182 . S
O59 Zn44 2.080 . S
O59 C62 1.305 . S
O60 Zn43 1.920 . S
O60 C62 1.234 . S
C61 O47 1.304 . S
C61 O48 1.234 . S
C62 O59 1.305 . S
C62 O60 1.234 . S
Zn63 O69 1.920 . S
Zn63 O75 1.898 . S
Zn63 O78 1.905 . S
Zn64 O72 1.905 . S
Zn64 O73 1.898 . S
Zn64 O81 1.920 . S
Zn65 O68 2.080 . S
Zn65 O71 2.114 . S
Zn65 O74 2.120 . S
Zn65 O76 2.120 . S
Zn65 O77 2.114 . S
Zn65 O80 2.080 . S
C66 O71 1.166 . S
C66 O72 1.182 . S
C67 O73 1.167 . S
C67 O74 1.299 . S
O68 Zn65 2.080 . S
O68 C82 1.305 . S
O69 Zn63 1.920 . S
O69 C82 1.234 . S
C70 O75 1.167 . S
C70 O76 1.299 . S
O71 Zn65 2.114 . S
O71 C66 1.166 . S
O72 Zn64 1.905 . S
O72 C66 1.182 . S
O73 Zn64 1.898 . S
O73 C67 1.167 . S
O74 Zn65 2.120 . S
O74 C67 1.299 . S
O75 Zn63 1.898 . S
O75 C70 1.167 . S
O76 Zn65 2.120 . S
O76 C70 1.299 . S
O77 Zn65 2.114 . S
O77 C79 1.166 . S
O78 Zn63 1.905 . S
O78 C79 1.182 . S
C79 O77 1.166 . S
C79 O78 1.182 . S
O80 Zn65 2.080 . S
O80 C83 1.305 . S
O81 Zn64 1.920 . S
O81 C83 1.234 . S
C82 O68 1.305 . S
C82 O69 1.234 . S
C83 O80 1.305 . S
C83 O81 1.234 . S
H84 C89 0.930 . S
H85 C92 0.930 . S
H86 C94 0.930 . S
H87 C88 1.016 . S
C88 H87 1.016 . S
C88 N95 1.286 . S
C89 H84 0.930 . S
C89 C90 1.397 . S
C89 C91 1.361 . S
C90 C89 1.397 . S
C90 C94 1.390 . S
C91 C89 1.361 . S
C91 C92 1.393 . S
C91 N95 1.413 . S
C92 H85 0.930 . S
C92 C91 1.393 . S
C92 C93 1.399 . S
C93 C92 1.399 . S
C93 C94 1.381 . S
C94 H86 0.930 . S
C94 C90 1.390 . S
C94 C93 1.381 . S
N95 C88 1.286 . S
N95 C91 1.413 . S
H96 C101 0.930 . S
H97 C104 0.930 . S
H98 C106 0.930 . S
H99 C100 1.016 . S
C100 H99 1.016 . S
C100 N107 1.286 . S
C101 H96 0.930 . S
C101 C102 1.397 . S
C101 C103 1.361 . S
C102 C101 1.397 . S
C102 C106 1.390 . S
C103 C101 1.361 . S
C103 C104 1.393 . S
C103 N107 1.413 . S
C104 H97 0.930 . S
C104 C103 1.393 . S
C104 C105 1.399 . S
C105 C104 1.399 . S
C105 C106 1.381 . S
C106 H98 0.930 . S
C106 C102 1.390 . S
C106 C105 1.381 . S
N107 C100 1.286 . S
N107 C103 1.413 . S
H108 C113 0.930 . S
H109 C116 0.930 . S
H110 C118 0.930 . S
H111 C112 1.016 . S
C112 H111 1.016 . S
C112 N119 1.286 . S
C113 H108 0.930 . S
C113 C114 1.397 . S
C113 C115 1.361 . S
C114 C113 1.397 . S
C114 C118 1.390 . S
C115 C113 1.361 . S
C115 C116 1.393 . S
C115 N119 1.413 . S
C116 H109 0.930 . S
C116 C115 1.393 . S
C116 C117 1.399 . S
C117 C116 1.399 . S
C117 C118 1.381 . S
C118 H110 0.930 . S
C118 C114 1.390 . S
C118 C117 1.381 . S
N119 C112 1.286 . S
N119 C115 1.413 . S
H120 C125 0.930 . S
H121 C128 0.930 . S
H122 C130 0.930 . S
H123 C124 1.016 . S
C124 H123 1.016 . S
C124 N131 1.286 . S
C125 H120 0.930 . S
C125 C126 1.397 . S
C125 C127 1.361 . S
C126 C125 1.397 . S
C126 C130 1.390 . S
C127 C125 1.361 . S
C127 C128 1.393 . S
C127 N131 1.413 . S
C128 H121 0.930 . S
C128 C127 1.393 . S
C128 C129 1.399 . S
C129 C128 1.399 . S
C129 C130 1.381 . S
C130 H122 0.930 . S
C130 C126 1.390 . S
C130 C129 1.381 . S
N131 C124 1.286 . S
N131 C127 1.413 . S
H132 C137 0.930 . S
H133 C140 0.930 . S
H134 C142 0.930 . S
H135 C136 1.016 . S
C136 H135 1.016 . S
C136 N143 1.286 . S
C137 H132 0.930 . S
C137 C138 1.397 . S
C137 C139 1.361 . S
C138 C137 1.397 . S
C138 C142 1.390 . S
C139 C137 1.361 . S
C139 C140 1.393 . S
C139 N143 1.413 . S
C140 H133 0.930 . S
C140 C139 1.393 . S
C140 C141 1.399 . S
C141 C140 1.399 . S
C141 C142 1.381 . S
C142 H134 0.930 . S
C142 C138 1.390 . S
C142 C141 1.381 . S
N143 C136 1.286 . S
N143 C139 1.413 . S
H144 C149 0.930 . S
H145 C152 0.930 . S
H146 C154 0.930 . S
H147 C148 1.016 . S
C148 H147 1.016 . S
C148 N155 1.286 . S
C149 H144 0.930 . S
C149 C150 1.397 . S
C149 C151 1.361 . S
C150 C149 1.397 . S
C150 C154 1.390 . S
C151 C149 1.361 . S
C151 C152 1.393 . S
C151 N155 1.413 . S
C152 H145 0.930 . S
C152 C151 1.393 . S
C152 C153 1.399 . S
C153 C152 1.399 . S
C153 C154 1.381 . S
C154 H146 0.930 . S
C154 C150 1.390 . S
C154 C153 1.381 . S
N155 C148 1.286 . S
N155 C151 1.413 . S
H156 C161 0.930 . S
H157 C164 0.930 . S
H158 C166 0.930 . S
H159 C160 1.016 . S
C160 H159 1.016 . S
C160 N167 1.286 . S
C161 H156 0.930 . S
C161 C162 1.397 . S
C161 C163 1.361 . S
C162 C161 1.397 . S
C162 C166 1.390 . S
C163 C161 1.361 . S
C163 C164 1.393 . S
C163 N167 1.413 . S
C164 H157 0.930 . S
C164 C163 1.393 . S
C164 C165 1.399 . S
C165 C164 1.399 . S
C165 C166 1.381 . S
C166 H158 0.930 . S
C166 C162 1.390 . S
C166 C165 1.381 . S
N167 C160 1.286 . S
N167 C163 1.413 . S
H168 C173 0.930 . S
H169 C176 0.930 . S
H170 C178 0.930 . S
H171 C172 1.016 . S
C172 H171 1.016 . S
C172 N179 1.286 . S
C173 H168 0.930 . S
C173 C174 1.397 . S
C173 C175 1.361 . S
C174 C173 1.397 . S
C174 C178 1.390 . S
C175 C173 1.361 . S
C175 C176 1.393 . S
C175 N179 1.413 . S
C176 H169 0.930 . S
C176 C175 1.393 . S
C176 C177 1.399 . S
C177 C176 1.399 . S
C177 C178 1.381 . S
C178 H170 0.930 . S
C178 C174 1.390 . S
C178 C177 1.381 . S
N179 C172 1.286 . S
N179 C175 1.413 . S
H180 C188 0.950 . S
H181 C193 0.950 . S
H182 C190 0.950 . S
H183 C192 0.950 . S
H184 C194 0.950 . S
H185 C196 0.950 . S
H186 C198 0.950 . S
H187 C199 0.950 . S
C188 H180 0.950 . S
C188 C189 1.386 . S
C188 C190 1.391 1_565 S
C189 C188 1.386 . S
C189 C193 1.393 . S
C190 H182 0.950 . S
C190 C188 1.391 1_545 S
C190 C191 1.400 . S
C191 C190 1.400 . S
C191 C192 1.398 1_545 S
C191 C197 1.491 . S
C192 H183 0.950 . S
C192 C191 1.398 1_565 S
C192 C193 1.391 . S
C193 H181 0.950 . S
C193 C189 1.393 . S
C193 C192 1.391 . S
C194 H184 0.950 . S
C194 C195 1.386 . S
C194 C196 1.391 . S
C195 C194 1.386 . S
C195 C199 1.393 . S
C196 H185 0.950 . S
C196 C194 1.391 . S
C196 C197 1.400 . S
C197 C191 1.491 . S
C197 C196 1.400 . S
C197 C198 1.398 . S
C198 H186 0.950 . S
C198 C197 1.398 . S
C198 C199 1.391 . S
C199 H187 0.950 . S
C199 C195 1.393 . S
C199 C198 1.391 . S
H200 C208 0.950 . S
H201 C213 0.950 . S
H202 C210 0.950 . S
H203 C212 0.950 . S
H204 C214 0.950 . S
H205 C216 0.950 . S
H206 C218 0.950 . S
H207 C219 0.950 . S
C208 H200 0.950 . S
C208 C209 1.386 . S
C208 C210 1.391 . S
C209 C208 1.386 . S
C209 C213 1.393 . S
C210 H202 0.950 . S
C210 C208 1.391 . S
C210 C211 1.400 . S
C211 C210 1.400 . S
C211 C212 1.398 . S
C211 C217 1.491 . S
C212 H203 0.950 . S
C212 C211 1.398 . S
C212 C213 1.391 . S
C213 H201 0.950 . S
C213 C209 1.393 . S
C213 C212 1.391 . S
C214 H204 0.950 . S
C214 C215 1.386 . S
C214 C216 1.391 . S
C215 C214 1.386 . S
C215 C219 1.393 . S
C216 H205 0.950 . S
C216 C214 1.391 . S
C216 C217 1.400 . S
C217 C211 1.491 . S
C217 C216 1.400 . S
C217 C218 1.398 . S
C218 H206 0.950 . S
C218 C217 1.398 . S
C218 C219 1.391 . S
C219 H207 0.950 . S
C219 C215 1.393 . S
C219 C218 1.391 . S
H220 C228 0.950 . S
H221 C233 0.950 . S
H222 C230 0.950 1_565 S
H223 C232 0.950 . S
H224 C234 0.950 . S
H225 C236 0.950 1_545 S
H226 C238 0.950 . S
H227 C239 0.950 . S
C228 H220 0.950 . S
C228 C229 1.386 . S
C228 C230 1.391 . S
C229 C228 1.386 . S
C229 C233 1.393 . S
C230 H222 0.950 1_545 S
C230 C228 1.391 . S
C230 C231 1.400 . S
C231 C230 1.400 . S
C231 C232 1.398 . S
C231 C237 1.491 1_545 S
C232 H223 0.950 . S
C232 C231 1.398 . S
C232 C233 1.391 . S
C233 H221 0.950 . S
C233 C229 1.393 . S
C233 C232 1.391 . S
C234 H224 0.950 . S
C234 C235 1.386 . S
C234 C236 1.391 . S
C235 C234 1.386 . S
C235 C239 1.393 . S
C236 H225 0.950 1_565 S
C236 C234 1.391 . S
C236 C237 1.400 . S
C237 C231 1.491 1_565 S
C237 C236 1.400 . S
C237 C238 1.398 . S
C238 H226 0.950 . S
C238 C237 1.398 . S
C238 C239 1.391 . S
C239 H227 0.950 . S
C239 C235 1.393 . S
C239 C238 1.391 . S
H240 C248 0.950 . S
H241 C253 0.950 . S
H242 C250 0.950 . S
H243 C252 0.950 . S
H244 C254 0.950 . S
H245 C256 0.950 . S
H246 C258 0.950 . S
H247 C259 0.950 . S
C248 H240 0.950 . S
C248 C249 1.386 . S
C248 C250 1.391 . S
C249 C248 1.386 . S
C249 C253 1.393 . S
C250 H242 0.950 . S
C250 C248 1.391 . S
C250 C251 1.400 . S
C251 C250 1.400 . S
C251 C252 1.398 . S
C251 C257 1.491 . S
C252 H243 0.950 . S
C252 C251 1.398 . S
C252 C253 1.391 . S
C253 H241 0.950 . S
C253 C249 1.393 . S
C253 C252 1.391 . S
C254 H244 0.950 . S
C254 C255 1.386 . S
C254 C256 1.391 . S
C255 C254 1.386 . S
C255 C259 1.393 . S
C256 H245 0.950 . S
C256 C254 1.391 . S
C256 C257 1.400 . S
C257 C251 1.491 . S
C257 C256 1.400 . S
C257 C258 1.398 . S
C258 H246 0.950 . S
C258 C257 1.398 . S
C258 C259 1.391 . S
C259 H247 0.950 . S
C259 C255 1.393 . S
C259 C258 1.391 . S
H260 C268 0.950 . S
H261 C273 0.950 . S
H262 C270 0.950 . S
H263 C272 0.950 . S
H264 C274 0.950 . S
H265 C276 0.950 . S
H266 C278 0.950 . S
H267 C279 0.950 . S
C268 H260 0.950 . S
C268 C269 1.386 . S
C268 C270 1.391 . S
C269 C268 1.386 . S
C269 C273 1.393 . S
C270 H262 0.950 . S
C270 C268 1.391 . S
C270 C271 1.400 . S
C271 C270 1.400 . S
C271 C272 1.398 . S
C271 C277 1.491 . S
C272 H263 0.950 . S
C272 C271 1.398 . S
C272 C273 1.391 . S
C273 H261 0.950 . S
C273 C269 1.393 . S
C273 C272 1.391 . S
C274 H264 0.950 . S
C274 C275 1.386 . S
C274 C276 1.391 . S
C275 C274 1.386 . S
C275 C279 1.393 . S
C276 H265 0.950 . S
C276 C274 1.391 . S
C276 C277 1.400 . S
C277 C271 1.491 . S
C277 C276 1.400 . S
C277 C278 1.398 . S
C278 H266 0.950 . S
C278 C277 1.398 . S
C278 C279 1.391 . S
C279 H267 0.950 . S
C279 C275 1.393 . S
C279 C278 1.391 . S
H280 C288 0.950 . S
H281 C293 0.950 . S
H282 C290 0.950 1_455 S
H283 C292 0.950 . S
H284 C294 0.950 . S
H285 C296 0.950 . S
H286 C298 0.950 . S
H287 C299 0.950 . S
C288 H280 0.950 . S
C288 C289 1.386 . S
C288 C290 1.391 . S
C289 C288 1.386 . S
C289 C293 1.393 . S
C290 H282 0.950 1_655 S
C290 C288 1.391 . S
C290 C291 1.400 . S
C291 C290 1.400 . S
C291 C292 1.398 . S
C291 C297 1.491 . S
C292 H283 0.950 . S
C292 C291 1.398 . S
C292 C293 1.391 . S
C293 H281 0.950 . S
C293 C289 1.393 . S
C293 C292 1.391 . S
C294 H284 0.950 . S
C294 C295 1.386 . S
C294 C296 1.391 1_455 S
C295 C294 1.386 . S
C295 C299 1.393 . S
C296 H285 0.950 . S
C296 C294 1.391 1_655 S
C296 C297 1.400 . S
C297 C291 1.491 . S
C297 C296 1.400 . S
C297 C298 1.398 1_655 S
C298 H286 0.950 . S
C298 C297 1.398 1_455 S
C298 C299 1.391 . S
C299 H287 0.950 . S
C299 C295 1.393 . S
C299 C298 1.391 . S
H300 C308 0.950 . S
H301 C313 0.950 . S
H302 C310 0.950 . S
H303 C312 0.950 . S
H304 C314 0.950 . S
H305 C316 0.950 . S
H306 C318 0.950 . S
H307 C319 0.950 . S
C308 H300 0.950 . S
C308 C309 1.386 . S
C308 C310 1.391 . S
C309 C308 1.386 . S
C309 C313 1.393 . S
C310 H302 0.950 . S
C310 C308 1.391 . S
C310 C311 1.400 . S
C311 C310 1.400 . S
C311 C312 1.398 . S
C311 C317 1.491 . S
C312 H303 0.950 . S
C312 C311 1.398 . S
C312 C313 1.391 . S
C313 H301 0.950 . S
C313 C309 1.393 . S
C313 C312 1.391 . S
C314 H304 0.950 . S
C314 C315 1.386 . S
C314 C316 1.391 . S
C315 C314 1.386 . S
C315 C319 1.393 . S
C316 H305 0.950 . S
C316 C314 1.391 . S
C316 C317 1.400 . S
C317 C311 1.491 . S
C317 C316 1.400 . S
C317 C318 1.398 . S
C318 H306 0.950 . S
C318 C317 1.398 . S
C318 C319 1.391 . S
C319 H307 0.950 . S
C319 C315 1.393 . S
C319 C318 1.391 . S
H320 C328 0.950 . S
H321 C333 0.950 . S
H322 C330 0.950 1_655 S
H323 C332 0.950 . S
H324 C334 0.950 . S
H325 C336 0.950 . S
H326 C338 0.950 . S
H327 C339 0.950 . S
C328 H320 0.950 . S
C328 C329 1.386 . S
C328 C330 1.391 . S
C329 C328 1.386 . S
C329 C333 1.393 . S
C330 H322 0.950 1_455 S
C330 C328 1.391 . S
C330 C331 1.400 . S
C331 C330 1.400 . S
C331 C332 1.398 . S
C331 C337 1.491 1_455 S
C332 H323 0.950 . S
C332 C331 1.398 . S
C332 C333 1.391 . S
C333 H321 0.950 . S
C333 C329 1.393 . S
C333 C332 1.391 . S
C334 H324 0.950 . S
C334 C335 1.386 . S
C334 C336 1.391 . S
C335 C334 1.386 . S
C335 C339 1.393 . S
C336 H325 0.950 . S
C336 C334 1.391 . S
C336 C337 1.400 . S
C337 C331 1.491 1_655 S
C337 C336 1.400 . S
C337 C338 1.398 . S
C338 H326 0.950 . S
C338 C337 1.398 . S
C338 C339 1.391 . S
C339 H327 0.950 . S
C339 C335 1.393 . S
C339 C338 1.391 . S
H340 C348 0.950 . S
H341 C353 0.950 . S
H342 C350 0.950 . S
H343 C352 0.950 . S
H344 C354 0.950 . S
H345 C356 0.950 . S
H346 C358 0.950 . S
H347 C359 0.950 . S
C348 H340 0.950 . S
C348 C349 1.386 . S
C348 C350 1.391 1_545 S
C349 C348 1.386 . S
C349 C353 1.393 . S
C350 H342 0.950 . S
C350 C348 1.391 1_565 S
C350 C351 1.400 . S
C351 C350 1.400 . S
C351 C352 1.398 . S
C351 C357 1.491 . S
C352 H343 0.950 . S
C352 C351 1.398 . S
C352 C353 1.391 1_565 S
C353 H341 0.950 . S
C353 C349 1.393 . S
C353 C352 1.391 1_545 S
C354 H344 0.950 . S
C354 C355 1.386 . S
C354 C356 1.391 . S
C355 C354 1.386 . S
C355 C359 1.393 . S
C356 H345 0.950 . S
C356 C354 1.391 . S
C356 C357 1.400 . S
C357 C351 1.491 . S
C357 C356 1.400 . S
C357 C358 1.398 . S
C358 H346 0.950 . S
C358 C357 1.398 . S
C358 C359 1.391 . S
C359 H347 0.950 . S
C359 C355 1.393 . S
C359 C358 1.391 . S
H360 C368 0.950 . S
H361 C373 0.950 . S
H362 C370 0.950 . S
H363 C372 0.950 . S
H364 C374 0.950 . S
H365 C376 0.950 . S
H366 C378 0.950 . S
H367 C379 0.950 . S
C368 H360 0.950 . S
C368 C369 1.386 . S
C368 C370 1.391 . S
C369 C368 1.386 . S
C369 C373 1.393 . S
C370 H362 0.950 . S
C370 C368 1.391 . S
C370 C371 1.400 . S
C371 C370 1.400 . S
C371 C372 1.398 . S
C371 C377 1.491 . S
C372 H363 0.950 . S
C372 C371 1.398 . S
C372 C373 1.391 . S
C373 H361 0.950 . S
C373 C369 1.393 . S
C373 C372 1.391 . S
C374 H364 0.950 . S
C374 C375 1.386 . S
C374 C376 1.391 . S
C375 C374 1.386 . S
C375 C379 1.393 . S
C376 H365 0.950 . S
C376 C374 1.391 . S
C376 C377 1.400 . S
C377 C371 1.491 . S
C377 C376 1.400 . S
C377 C378 1.398 . S
C378 H366 0.950 . S
C378 C377 1.398 . S
C378 C379 1.391 . S
C379 H367 0.950 . S
C379 C375 1.393 . S
C379 C378 1.391 . S
H380 C388 0.950 . S
H381 C393 0.950 . S
H382 C390 0.950 . S
H383 C392 0.950 . S
H384 C394 0.950 . S
H385 C396 0.950 . S
H386 C398 0.950 . S
H387 C399 0.950 . S
C388 H380 0.950 . S
C388 C389 1.386 . S
C388 C390 1.391 1_565 S
C389 C388 1.386 . S
C389 C393 1.393 . S
C390 H382 0.950 . S
C390 C388 1.391 1_545 S
C390 C391 1.400 . S
C391 C390 1.400 . S
C391 C392 1.398 . S
C391 C397 1.491 . S
C392 H383 0.950 . S
C392 C391 1.398 . S
C392 C393 1.391 1_545 S
C393 H381 0.950 . S
C393 C389 1.393 . S
C393 C392 1.391 1_565 S
C394 H384 0.950 . S
C394 C395 1.386 . S
C394 C396 1.391 . S
C395 C394 1.386 . S
C395 C399 1.393 . S
C396 H385 0.950 . S
C396 C394 1.391 . S
C396 C397 1.400 . S
C397 C391 1.491 . S
C397 C396 1.400 . S
C397 C398 1.398 . S
C398 H386 0.950 . S
C398 C397 1.398 . S
C398 C399 1.391 . S
C399 H387 0.950 . S
C399 C395 1.393 . S
C399 C398 1.391 . S
H400 C408 0.950 . S
H401 C413 0.950 . S
H402 C410 0.950 . S
H403 C412 0.950 . S
H404 C414 0.950 . S
H405 C416 0.950 . S
H406 C418 0.950 . S
H407 C419 0.950 . S
C408 H400 0.950 . S
C408 C409 1.386 . S
C408 C410 1.391 . S
C409 C408 1.386 . S
C409 C413 1.393 . S
C410 H402 0.950 . S
C410 C408 1.391 . S
C410 C411 1.400 . S
C411 C410 1.400 . S
C411 C412 1.398 . S
C411 C417 1.491 . S
C412 H403 0.950 . S
C412 C411 1.398 . S
C412 C413 1.391 . S
C413 H401 0.950 . S
C413 C409 1.393 . S
C413 C412 1.391 . S
C414 H404 0.950 . S
C414 C415 1.386 . S
C414 C416 1.391 . S
C415 C414 1.386 . S
C415 C419 1.393 . S
C416 H405 0.950 . S
C416 C414 1.391 . S
C416 C417 1.400 . S
C417 C411 1.491 . S
C417 C416 1.400 . S
C417 C418 1.398 . S
C418 H406 0.950 . S
C418 C417 1.398 . S
C418 C419 1.391 . S
C419 H407 0.950 . S
C419 C415 1.393 . S
C419 C418 1.391 . S
H420 C428 0.950 . S
H421 C433 0.950 . S
H422 C430 0.950 . S
H423 C432 0.950 . S
H424 C434 0.950 . S
H425 C436 0.950 . S
H426 C438 0.950 . S
H427 C439 0.950 . S
C428 H420 0.950 . S
C428 C429 1.386 . S
C428 C430 1.391 . S
C429 C428 1.386 . S
C429 C433 1.393 . S
C430 H422 0.950 . S
C430 C428 1.391 . S
C430 C431 1.400 . S
C431 C430 1.400 . S
C431 C432 1.398 . S
C431 C437 1.491 . S
C432 H423 0.950 . S
C432 C431 1.398 . S
C432 C433 1.391 . S
C433 H421 0.950 . S
C433 C429 1.393 . S
C433 C432 1.391 . S
C434 H424 0.950 . S
C434 C435 1.386 . S
C434 C436 1.391 . S
C435 C434 1.386 . S
C435 C439 1.393 . S
C436 H425 0.950 . S
C436 C434 1.391 . S
C436 C437 1.400 . S
C437 C431 1.491 . S
C437 C436 1.400 . S
C437 C438 1.398 . S
C438 H426 0.950 . S
C438 C437 1.398 . S
C438 C439 1.391 . S
C439 H427 0.950 . S
C439 C435 1.393 . S
C439 C438 1.391 . S
H440 C448 0.950 . S
H441 C453 0.950 . S
H442 C450 0.950 . S
H443 C452 0.950 . S
H444 C454 0.950 . S
H445 C456 0.950 . S
H446 C458 0.950 . S
H447 C459 0.950 . S
C448 H440 0.950 . S
C448 C449 1.386 . S
C448 C450 1.391 1_455 S
C449 C448 1.386 . S
C449 C453 1.393 . S
C450 H442 0.950 . S
C450 C448 1.391 1_655 S
C450 C451 1.400 . S
C451 C450 1.400 . S
C451 C452 1.398 1_655 S
C451 C457 1.491 . S
C452 H443 0.950 . S
C452 C451 1.398 1_455 S
C452 C453 1.391 . S
C453 H441 0.950 . S
C453 C449 1.393 . S
C453 C452 1.391 . S
C454 H444 0.950 . S
C454 C455 1.386 . S
C454 C456 1.391 . S
C455 C454 1.386 . S
C455 C459 1.393 . S
C456 H445 0.950 . S
C456 C454 1.391 . S
C456 C457 1.400 . S
C457 C451 1.491 . S
C457 C456 1.400 . S
C457 C458 1.398 . S
C458 H446 0.950 . S
C458 C457 1.398 . S
C458 C459 1.391 . S
C459 H447 0.950 . S
C459 C455 1.393 . S
C459 C458 1.391 . S
H460 C468 0.950 . S
H461 C473 0.950 . S
H462 C470 0.950 . S
H463 C472 0.950 . S
H464 C474 0.950 . S
H465 C476 0.950 . S
H466 C478 0.950 . S
H467 C479 0.950 . S
C468 H460 0.950 . S
C468 C469 1.386 . S
C468 C470 1.391 . S
C469 C468 1.386 . S
C469 C473 1.393 . S
C470 H462 0.950 . S
C470 C468 1.391 . S
C470 C471 1.400 . S
C471 C470 1.400 . S
C471 C472 1.398 . S
C471 C477 1.491 . S
C472 H463 0.950 . S
C472 C471 1.398 . S
C472 C473 1.391 . S
C473 H461 0.950 . S
C473 C469 1.393 . S
C473 C472 1.391 . S
C474 H464 0.950 . S
C474 C475 1.386 . S
C474 C476 1.391 . S
C475 C474 1.386 . S
C475 C479 1.393 . S
C476 H465 0.950 . S
C476 C474 1.391 . S
C476 C477 1.400 . S
C477 C471 1.491 . S
C477 C476 1.400 . S
C477 C478 1.398 . S
C478 H466 0.950 . S
C478 C477 1.398 . S
C478 C479 1.391 . S
C479 H467 0.950 . S
C479 C475 1.393 . S
C479 C478 1.391 . S
H480 C488 0.950 . S
H481 C493 0.950 . S
H482 C490 0.950 . S
H483 C492 0.950 . S
H484 C494 0.950 . S
H485 C496 0.950 . S
H486 C498 0.950 . S
H487 C499 0.950 . S
C488 H480 0.950 . S
C488 C489 1.386 . S
C488 C490 1.391 1_655 S
C489 C488 1.386 . S
C489 C493 1.393 . S
C490 H482 0.950 . S
C490 C488 1.391 1_455 S
C490 C491 1.400 . S
C491 C490 1.400 . S
C491 C492 1.398 . S
C491 C497 1.491 . S
C492 H483 0.950 . S
C492 C491 1.398 . S
C492 C493 1.391 1_455 S
C493 H481 0.950 . S
C493 C489 1.393 . S
C493 C492 1.391 1_655 S
C494 H484 0.950 . S
C494 C495 1.386 . S
C494 C496 1.391 . S
C495 C494 1.386 . S
C495 C499 1.393 . S
C496 H485 0.950 . S
C496 C494 1.391 . S
C496 C497 1.400 . S
C497 C491 1.491 . S
C497 C496 1.400 . S
C497 C498 1.398 . S
C498 H486 0.950 . S
C498 C497 1.398 . S
C498 C499 1.391 . S
C499 H487 0.950 . S
C499 C495 1.393 . S
C499 C498 1.391 . S
H500 C508 0.950 . S
H501 C513 0.950 . S
H502 C510 0.950 . S
H503 C512 0.950 . S
H504 C514 0.950 . S
H505 C516 0.950 . S
H506 C518 0.950 . S
H507 C519 0.950 . S
C508 H500 0.950 . S
C508 C509 1.386 . S
C508 C510 1.391 . S
C509 C508 1.386 . S
C509 C513 1.393 . S
C510 H502 0.950 . S
C510 C508 1.391 . S
C510 C511 1.400 . S
C511 C510 1.400 . S
C511 C512 1.398 . S
C511 C517 1.491 . S
C512 H503 0.950 . S
C512 C511 1.398 . S
C512 C513 1.391 . S
C513 H501 0.950 . S
C513 C509 1.393 . S
C513 C512 1.391 . S
C514 H504 0.950 . S
C514 C515 1.386 . S
C514 C516 1.391 . S
C515 C514 1.386 . S
C515 C519 1.393 . S
C516 H505 0.950 . S
C516 C514 1.391 . S
C516 C517 1.400 . S
C517 C511 1.491 . S
C517 C516 1.400 . S
C517 C518 1.398 . S
C518 H506 0.950 . S
C518 C517 1.398 . S
C518 C519 1.391 . S
C519 H507 0.950 . S
C519 C515 1.393 . S
C519 C518 1.391 . S
H520 C528 0.950 . S
H521 C533 0.950 . S
H522 C530 0.950 . S
H523 C532 0.950 . S
H524 C534 0.950 . S
H525 C536 0.950 . S
H526 C538 0.950 . S
H527 C539 0.950 . S
C528 H520 0.950 . S
C528 C529 1.386 . S
C528 C530 1.391 . S
C529 C528 1.386 . S
C529 C533 1.393 . S
C530 H522 0.950 . S
C530 C528 1.391 . S
C530 C531 1.400 . S
C531 C530 1.400 . S
C531 C532 1.398 . S
C531 C537 1.491 . S
C532 H523 0.950 . S
C532 C531 1.398 . S
C532 C533 1.391 . S
C533 H521 0.950 . S
C533 C529 1.393 . S
C533 C532 1.391 . S
C534 H524 0.950 . S
C534 C535 1.386 . S
C534 C536 1.391 . S
C535 C534 1.386 . S
C535 C539 1.393 . S
C536 H525 0.950 . S
C536 C534 1.391 . S
C536 C537 1.400 . S
C537 C531 1.491 . S
C537 C536 1.400 . S
C537 C538 1.398 . S
C538 H526 0.950 . S
C538 C537 1.398 . S
C538 C539 1.391 . S
C539 H527 0.950 . S
C539 C535 1.393 . S
C539 C538 1.391 . S
H540 C548 0.950 . S
H541 C553 0.950 . S
H542 C550 0.950 . S
H543 C552 0.950 . S
H544 C554 0.950 . S
H545 C556 0.950 . S
H546 C558 0.950 . S
H547 C559 0.950 . S
C548 H540 0.950 . S
C548 C549 1.386 . S
C548 C550 1.391 . S
C549 C548 1.386 . S
C549 C553 1.393 . S
C550 H542 0.950 . S
C550 C548 1.391 . S
C550 C551 1.400 . S
C551 C550 1.400 . S
C551 C552 1.398 . S
C551 C557 1.491 . S
C552 H543 0.950 . S
C552 C551 1.398 . S
C552 C553 1.391 . S
C553 H541 0.950 . S
C553 C549 1.393 . S
C553 C552 1.391 . S
C554 H544 0.950 . S
C554 C555 1.386 . S
C554 C556 1.391 . S
C555 C554 1.386 . S
C555 C559 1.393 . S
C556 H545 0.950 . S
C556 C554 1.391 . S
C556 C557 1.400 . S
C557 C551 1.491 . S
C557 C556 1.400 . S
C557 C558 1.398 . S
C558 H546 0.950 . S
C558 C557 1.398 . S
C558 C559 1.391 . S
C559 H547 0.950 . S
C559 C555 1.393 . S
C559 C558 1.391 . S
H560 C568 0.950 . S
H561 C573 0.950 . S
H562 C570 0.950 . S
H563 C572 0.950 . S
H564 C574 0.950 . S
H565 C576 0.950 . S
H566 C578 0.950 . S
H567 C579 0.950 . S
C568 H560 0.950 . S
C568 C569 1.386 . S
C568 C570 1.391 . S
C569 C568 1.386 . S
C569 C573 1.393 . S
C570 H562 0.950 . S
C570 C568 1.391 . S
C570 C571 1.400 . S
C571 C570 1.400 . S
C571 C572 1.398 . S
C571 C577 1.491 . S
C572 H563 0.950 . S
C572 C571 1.398 . S
C572 C573 1.391 . S
C573 H561 0.950 . S
C573 C569 1.393 . S
C573 C572 1.391 . S
C574 H564 0.950 . S
C574 C575 1.386 . S
C574 C576 1.391 . S
C575 C574 1.386 . S
C575 C579 1.393 . S
C576 H565 0.950 . S
C576 C574 1.391 . S
C576 C577 1.400 . S
C577 C571 1.491 . S
C577 C576 1.400 . S
C577 C578 1.398 . S
C578 H566 0.950 . S
C578 C577 1.398 . S
C578 C579 1.391 . S
C579 H567 0.950 . S
C579 C575 1.393 . S
C579 C578 1.391 . S
H580 C588 0.950 . S
H581 C593 0.950 . S
H582 C590 0.950 . S
H583 C592 0.950 . S
H584 C594 0.950 . S
H585 C596 0.950 . S
H586 C598 0.950 . S
H587 C599 0.950 . S
C588 H580 0.950 . S
C588 C589 1.386 . S
C588 C590 1.391 . S
C589 C588 1.386 . S
C589 C593 1.393 . S
C590 H582 0.950 . S
C590 C588 1.391 . S
C590 C591 1.400 . S
C591 C590 1.400 . S
C591 C592 1.398 . S
C591 C597 1.491 . S
C592 H583 0.950 . S
C592 C591 1.398 . S
C592 C593 1.391 . S
C593 H581 0.950 . S
C593 C589 1.393 . S
C593 C592 1.391 . S
C594 H584 0.950 . S
C594 C595 1.386 . S
C594 C596 1.391 . S
C595 C594 1.386 . S
C595 C599 1.393 . S
C596 H585 0.950 . S
C596 C594 1.391 . S
C596 C597 1.400 . S
C597 C591 1.491 . S
C597 C596 1.400 . S
C597 C598 1.398 . S
C598 H586 0.950 . S
C598 C597 1.398 . S
C598 C599 1.391 . S
C599 H587 0.950 . S
C599 C595 1.393 . S
C599 C598 1.391 . S
H600 C608 0.950 . S
H601 C613 0.950 . S
H602 C610 0.950 . S
H603 C612 0.950 . S
H604 C614 0.950 . S
H605 C616 0.950 . S
H606 C618 0.950 . S
H607 C619 0.950 . S
C608 H600 0.950 . S
C608 C609 1.386 . S
C608 C610 1.391 . S
C609 C608 1.386 . S
C609 C613 1.393 . S
C610 H602 0.950 . S
C610 C608 1.391 . S
C610 C611 1.400 . S
C611 C610 1.400 . S
C611 C612 1.398 . S
C611 C617 1.491 . S
C612 H603 0.950 . S
C612 C611 1.398 . S
C612 C613 1.391 . S
C613 H601 0.950 . S
C613 C609 1.393 . S
C613 C612 1.391 . S
C614 H604 0.950 . S
C614 C615 1.386 . S
C614 C616 1.391 . S
C615 C614 1.386 . S
C615 C619 1.393 . S
C616 H605 0.950 . S
C616 C614 1.391 . S
C616 C617 1.400 . S
C617 C611 1.491 . S
C617 C616 1.400 . S
C617 C618 1.398 . S
C618 H606 0.950 . S
C618 C617 1.398 . S
C618 C619 1.391 . S
C619 H607 0.950 . S
C619 C615 1.393 . S
C619 C618 1.391 . S
H620 C628 0.950 . S
H621 C633 0.950 . S
H622 C630 0.950 . S
H623 C632 0.950 . S
H624 C634 0.950 . S
H625 C636 0.950 . S
H626 C638 0.950 . S
H627 C639 0.950 . S
C628 H620 0.950 . S
C628 C629 1.386 . S
C628 C630 1.391 . S
C629 C628 1.386 . S
C629 C633 1.393 . S
C630 H622 0.950 . S
C630 C628 1.391 . S
C630 C631 1.400 . S
C631 C630 1.400 . S
C631 C632 1.398 . S
C631 C637 1.491 . S
C632 H623 0.950 . S
C632 C631 1.398 . S
C632 C633 1.391 . S
C633 H621 0.950 . S
C633 C629 1.393 . S
C633 C632 1.391 . S
C634 H624 0.950 . S
C634 C635 1.386 . S
C634 C636 1.391 . S
C635 C634 1.386 . S
C635 C639 1.393 . S
C636 H625 0.950 . S
C636 C634 1.391 . S
C636 C637 1.400 . S
C637 C631 1.491 . S
C637 C636 1.400 . S
C637 C638 1.398 . S
C638 H626 0.950 . S
C638 C637 1.398 . S
C638 C639 1.391 . S
C639 H627 0.950 . S
C639 C635 1.393 . S
C639 C638 1.391 . S
H640 C648 0.950 . S
H641 C653 0.950 . S
H642 C650 0.950 . S
H643 C652 0.950 . S
H644 C654 0.950 . S
H645 C656 0.950 . S
H646 C658 0.950 . S
H647 C659 0.950 . S
C648 H640 0.950 . S
C648 C649 1.386 . S
C648 C650 1.391 . S
C649 C648 1.386 . S
C649 C653 1.393 . S
C650 H642 0.950 . S
C650 C648 1.391 . S
C650 C651 1.400 . S
C651 C650 1.400 . S
C651 C652 1.398 . S
C651 C657 1.491 . S
C652 H643 0.950 . S
C652 C651 1.398 . S
C652 C653 1.391 . S
C653 H641 0.950 . S
C653 C649 1.393 . S
C653 C652 1.391 . S
C654 H644 0.950 . S
C654 C655 1.386 . S
C654 C656 1.391 . S
C655 C654 1.386 . S
C655 C659 1.393 . S
C656 H645 0.950 . S
C656 C654 1.391 . S
C656 C657 1.400 . S
C657 C651 1.491 . S
C657 C656 1.400 . S
C657 C658 1.398 . S
C658 H646 0.950 . S
C658 C657 1.398 . S
C658 C659 1.391 . S
C659 H647 0.950 . S
C659 C655 1.393 . S
C659 C658 1.391 . S
C189 C7 0.781 . S
C195 C93 0.829 . S
C209 C25 0.848 . S
C215 C105 0.881 . S
C229 C46 0.706 . S
C235 C117 0.746 . S
C255 C126 0.803 . S
C249 C70 0.819 . S
C275 C141 0.848 . S
C269 C28 0.839 . S
C289 C49 0.782 . S
C295 C150 0.842 . S
C309 C67 0.769 . S
C315 C165 0.722 . S
C329 C4 0.823 . S
C335 C177 0.870 . S
C349 C58 1.569 . S
C355 C174 1.661 . S
C375 C138 1.677 . S
C369 C66 1.585 . S
C395 C153 1.744 . S
C389 C3 1.670 . S
C409 C37 1.551 . S
C415 C162 1.646 . S
C435 C102 1.653 . S
C429 C79 1.589 . S
C449 C16 1.544 . S
C455 C114 1.635 . S
C475 C129 1.738 . S
C469 C24 1.663 . S
C495 C90 1.680 . S
C489 C45 1.575 . S
C515 C160 1.334 . S
C509 C19 1.215 . S
C535 C172 1.394 . S
C529 C41 1.257 . S
C549 C62 1.274 . S
C555 C136 1.412 . S
C575 C148 1.393 . S
C569 C82 1.295 . S
C595 C112 1.340 . S
C589 C40 1.200 . S
C609 C61 1.301 . S
C615 C124 1.383 . S
C635 C88 1.405 . S
C629 C83 1.231 . S
C655 C100 1.394 . S
C649 C20 1.257 . S
