# Generated by pormake.
# Topology pth, (4,4)-cn, num edge types: 1
# Building blocks:
#     Node 0, Type 0, BuildingBlock: QUQFOY_clean_sbu_3, # of connection points: 4
#     Node 1, Type 0, BuildingBlock: QUQFOY_clean_sbu_3, # of connection points: 4
#     Node 2, Type 0, BuildingBlock: QUQFOY_clean_sbu_3, # of connection points: 4
#     Node 3, Type 1, BuildingBlock: NAWXER_clean_linker_0, # of connection points: 4
#     Node 4, Type 1, BuildingBlock: NAWXER_clean_linker_0, # of connection points: 4
#     Node 5, Type 1, BuildingBlock: NAWXER_clean_linker_0, # of connection points: 4
#     Edge 6, Type (0, 1), BuildingBlock: XIVTED_clean_linker_0, # of connection points: 2
#     Edge 7, Type (0, 1), BuildingBlock: XIVTED_clean_linker_0, # of connection points: 2
#     Edge 8, Type (0, 1), BuildingBlock: XIVTED_clean_linker_0, # of connection points: 2
#     Edge 9, Type (0, 1), BuildingBlock: XIVTED_clean_linker_0, # of connection points: 2
#     Edge 10, Type (0, 1), BuildingBlock: XIVTED_clean_linker_0, # of connection points: 2
#     Edge 11, Type (0, 1), BuildingBlock: XIVTED_clean_linker_0, # of connection points: 2
#     Edge 12, Type (0, 1), BuildingBlock: XIVTED_clean_linker_0, # of connection points: 2
#     Edge 13, Type (0, 1), BuildingBlock: XIVTED_clean_linker_0, # of connection points: 2
#     Edge 14, Type (0, 1), BuildingBlock: XIVTED_clean_linker_0, # of connection points: 2
#     Edge 15, Type (0, 1), BuildingBlock: XIVTED_clean_linker_0, # of connection points: 2
#     Edge 16, Type (0, 1), BuildingBlock: XIVTED_clean_linker_0, # of connection points: 2
#     Edge 17, Type (0, 1), BuildingBlock: XIVTED_clean_linker_0, # of connection points: 2
# Relax obj value: 0.008
# Max RMSD: 0.059
# Mean RMSD: 0.041
data_MOF--net-pth--node1-QUQFOY_clean_sbu_3--node2-NAWXER_clean_linker_0--edge1-XIVTED_clean_linker_0
_symmetry_space_group_name_H-M    P1
_symmetry_Int_Tables_number       1
_symmetry_cell_setting            triclinic
loop_
_symmetry_equiv_pos_as_xyz
'x, y, z'
_cell_length_a     29.711994
_cell_length_b     29.50924
_cell_length_c     68.337243
_cell_angle_alpha  89.909354
_cell_angle_beta   90.860235
_cell_angle_gamma 120.60023
loop_
_atom_site_label
_atom_site_type_symbol
_atom_site_fract_x
_atom_site_fract_y
_atom_site_fract_z
_atom_type_partial_charge
C0 C 0.95912 0.13828 0.06552 0.0
O1 O 0.93228 0.13239 0.05011 0.0
Cd2 Cd 0.9328 0.08284 0.02254 0.0
O3 O -0.01533 0.1145 0.0673 0.0
Cd4 Cd -0.00193 0.04997 0.04868 0.0
C5 C 0.0657 0.1424 0.01513 0.0
O6 O 0.91241 -0.00334 0.03259 0.0
O7 O 0.97628 -0.00915 0.02068 0.0
O8 O 0.97554 -0.00231 0.07808 0.0
C9 C 0.92761 0.974 0.02089 0.0
O10 O 0.0209 0.13405 0.00968 0.0
C11 C 0.01625 -0.00593 0.07902 0.0
O12 O 0.07053 0.1187 0.02991 0.0
O13 O 0.05021 0.01787 0.06591 0.0
C14 C 0.13595 0.10609 0.40478 0.0
O15 O 0.16139 0.13982 0.3917 0.0
Cd16 Cd 0.12051 0.14762 0.36234 0.0
O17 O 0.08617 0.07905 0.40391 0.0
Cd18 Cd 0.01219 0.0716 0.38386 0.0
C19 C 0.04831 0.01541 0.34935 0.0
O20 O 0.05027 0.16053 0.37061 0.0
O21 O 0.97913 0.09989 0.35661 0.0
O22 O 0.9757 0.0868 0.41281 0.0
C23 C 0.01433 0.14812 0.35781 0.0
O24 O 0.08632 0.06196 0.34658 0.0
C25 C 0.93164 0.04454 0.41167 0.0
O26 O 0.01501 0.00603 0.36265 0.0
O27 O 0.92498 0.01314 0.3977 0.0
C28 C 0.9309 0.07147 0.69062 0.0
O29 O 0.93909 0.10372 0.7044 0.0
Cd30 Cd -0.01044 0.11042 0.73321 0.0
O31 O 0.95387 0.04495 0.69066 0.0
Cd32 Cd 0.02121 0.03713 0.70975 0.0
C33 C 0.93304 0.97842 0.74531 0.0
O34 O 0.07296 0.12603 0.72355 0.0
O35 O 0.08617 0.06634 0.73605 0.0
O36 O 0.06874 0.05405 0.67973 0.0
C37 C 0.0984 0.11423 0.73555 0.0
O38 O 0.94103 0.02444 0.74868 0.0
C39 C 0.072 0.01283 0.67994 0.0
O40 O 0.95556 0.96999 0.73121 0.0
O41 O 0.0503 0.98123 0.69406 0.0
C42 C -0.0122 0.39689 0.24693 0.0
C43 C 0.02667 0.41158 0.2616 0.0
C44 C -0.01287 0.4348 0.23483 0.0
C45 C 0.02608 0.4881 0.2368 0.0
C46 C 0.06549 0.46502 0.26352 0.0
C47 C 0.06515 0.50275 0.25127 0.0
C48 C 0.02407 0.52962 0.22526 0.0
C49 C 0.0356 0.42567 0.17905 0.0
C50 C -0.00835 0.40124 0.16638 0.0
C51 C 0.04232 0.46547 0.19198 0.0
C52 C 0.00513 0.48136 0.19251 0.0
C53 C 0.95412 0.41677 0.16729 0.0
C54 C 0.96107 0.4567 0.18008 0.0
C55 C 0.01317 0.52592 0.20492 0.0
C56 C 0.06282 0.74451 0.1849 0.0
C57 C 0.022 0.73327 0.17152 0.0
C58 C 0.06153 0.70449 0.19629 0.0
C59 C 0.01944 0.65251 0.19448 0.0
C60 C 0.98004 0.68118 0.1697 0.0
C61 C 0.97903 0.64112 0.18095 0.0
C62 C 0.01873 0.60946 0.20585 0.0
C63 C -0.00657 0.70649 0.24988 0.0
C64 C 0.03432 0.73237 0.2637 0.0
C65 C -0.0083 0.66802 0.23749 0.0
C66 C 0.03089 0.65482 0.23866 0.0
C67 C 0.07332 0.71884 0.26492 0.0
C68 C 0.07134 0.68007 0.25262 0.0
C69 C 0.02798 0.61243 0.22623 0.0
H70 H 0.95751 0.35611 0.24487 0.0
H71 H 0.95534 0.42243 0.22432 0.0
H72 H 0.09542 0.47812 0.27487 0.0
H73 H 0.09517 0.54369 0.25331 0.0
H74 H 0.06564 0.41526 0.17855 0.0
H75 H 0.07718 0.48474 0.20118 0.0
H76 H 0.91934 0.39821 0.15805 0.0
H77 H 0.93194 0.46843 0.18026 0.0
H78 H 0.09557 0.7843 0.18664 0.0
H79 H 0.09378 0.71402 0.20632 0.0
H80 H 0.9484 0.67123 0.15931 0.0
H81 H 0.94652 0.6012 0.17915 0.0
H82 H 0.96299 0.71628 0.24854 0.0
H83 H 0.9593 0.64807 0.22718 0.0
H84 H 0.10494 0.73768 0.2756 0.0
H85 H 0.10155 0.66993 0.25395 0.0
N86 N 0.03093 0.57277 0.23509 0.0
N87 N 0.01103 0.56604 0.19603 0.0
C88 C 0.65475 0.03383 0.51565 0.0
C89 C 0.64419 -0.0016 0.50008 0.0
C90 C 0.61438 0.02943 0.52723 0.0
C91 C 0.56267 -0.01148 0.52391 0.0
C92 C 0.59212 0.9581 0.49656 0.0
C93 C 0.55184 0.95332 0.50834 0.0
C94 C 0.51925 0.98411 0.53574 0.0
C95 C 0.63197 0.97222 0.57771 0.0
C96 C 0.65107 0.01075 0.59264 0.0
C97 C 0.58901 0.96316 0.56601 0.0
C98 C 0.56504 -0.00681 0.56879 0.0
C99 C 0.62564 0.03925 0.59575 0.0
C100 C 0.5833 0.03063 0.58397 0.0
C101 C 0.52041 0.98612 0.55647 0.0
C102 C 0.30416 0.94324 0.57527 0.0
C103 C 0.31727 0.9807 0.59025 0.0
C104 C 0.34333 0.94368 0.56401 0.0
C105 C 0.39617 0.98128 0.5677 0.0
C106 C 0.37018 0.01792 0.594 0.0
C107 C 0.40926 0.01786 0.58295 0.0
C108 C 0.4382 0.98224 0.55606 0.0
C109 C 0.36325 0.04538 0.5159 0.0
C110 C 0.33624 0.01297 0.49975 0.0
C111 C 0.39519 0.03452 0.52775 0.0
C112 C 0.4007 -0.00907 0.52374 0.0
C113 C 0.34121 0.96893 0.49587 0.0
C114 C 0.37369 0.95834 0.50766 0.0
C115 C 0.438 0.9824 0.53543 0.0
H116 H 0.69429 0.06508 0.51898 0.0
H117 H 0.62365 0.0583 0.5387 0.0
H118 H 0.5822 0.93078 0.48447 0.0
H119 H 0.51209 0.92209 0.50525 0.0
H120 H 0.65055 0.94949 0.57489 0.0
H121 H 0.57476 0.93296 0.55476 0.0
H122 H 0.63811 0.06811 0.60744 0.0
H123 H 0.56508 0.05383 0.58662 0.0
H124 H 0.26365 0.91419 0.57209 0.0
H125 H 0.3324 0.91451 0.55252 0.0
H126 H 0.38134 0.04683 0.60561 0.0
H127 H 0.44978 0.04697 0.58613 0.0
H128 H 0.35998 0.07944 0.51929 0.0
H129 H 0.41669 0.06106 0.53977 0.0
H130 H 0.32126 0.94364 0.48338 0.0
H131 H 0.37801 0.92497 0.50417 0.0
N132 N 0.47805 0.98243 0.52605 0.0
N133 N 0.47963 0.9848 0.56574 0.0
C134 C 0.37938 0.35734 0.84859 0.0
C135 C 0.36022 0.37271 0.83249 0.0
C136 C 0.41851 0.39512 0.8609 0.0
C137 C 0.43856 0.449 0.85757 0.0
C138 C 0.38066 0.42671 0.82918 0.0
C139 C 0.41936 0.46434 0.84156 0.0
C140 C 0.48204 0.49 0.86963 0.0
C141 C 0.34977 0.40415 0.9116 0.0
C142 C 0.36102 0.38308 0.92819 0.0
C143 C 0.38954 0.438 0.8991 0.0
C144 C 0.44133 0.45051 0.90259 0.0
C145 C 0.41298 0.39586 0.93169 0.0
C146 C 0.45267 0.42931 0.91905 0.0
C147 C 0.48452 0.48932 0.89031 0.0
C148 C 0.66485 0.705 0.91039 0.0
C149 C 0.68347 0.69193 0.92718 0.0
C150 C 0.62754 0.66545 0.89812 0.0
C151 C 0.60961 0.61214 0.90204 0.0
C152 C 0.6651 0.63879 0.9313 0.0
C153 C 0.62867 0.59928 0.9188 0.0
C154 C 0.56743 0.56934 0.89003 0.0
C155 C 0.69538 0.66559 0.84692 0.0
C156 C 0.68034 0.69109 0.83316 0.0
C157 C 0.65804 0.62622 0.85888 0.0
C158 C 0.60519 0.61175 0.85716 0.0
C159 C 0.62732 0.67586 0.83132 0.0
C160 C 0.5901 0.6363 0.84309 0.0
C161 C 0.56469 0.57 0.86938 0.0
H162 H 0.36432 0.31611 0.85166 0.0
H163 H 0.43363 0.38217 0.87281 0.0
H164 H 0.36774 0.44012 0.81673 0.0
H165 H 0.43466 0.50566 0.83852 0.0
H166 H 0.31019 0.39481 0.90829 0.0
H167 H 0.37982 0.45521 0.88694 0.0
H168 H 0.42333 0.3812 0.94448 0.0
H169 H 0.49247 0.43912 0.92226 0.0
H170 H 0.67777 0.74575 0.90714 0.0
H171 H 0.61173 0.67671 0.88593 0.0
H172 H 0.67892 0.62785 0.9442 0.0
H173 H 0.61491 0.55853 0.92235 0.0
H174 H 0.73603 0.67667 0.84863 0.0
H175 H 0.67034 0.60704 0.86941 0.0
H176 H 0.61455 0.69431 0.82064 0.0
H177 H 0.54946 0.62532 0.84139 0.0
N178 N 0.5221 0.53048 0.86008 0.0
N179 N 0.52731 0.52881 0.89961 0.0
H180 H 0.00656 0.15585 0.10179 0.0
H181 H 0.95478 0.3887 0.12861 0.0
H182 H 0.91862 0.20334 0.06494 0.0
H183 H 0.01554 0.32282 0.17055 0.0
H184 H 0.94466 0.32294 0.10474 0.0
H185 H 0.01362 0.21856 0.1268 0.0
C186 C -0.01141 0.17929 0.09897 0.0
C187 C 0.96203 0.17434 0.08119 0.0
C188 C 0.96003 0.32266 0.11918 0.0
C189 C 0.97027 0.24634 0.10971 0.0
C190 C 0.96555 0.36009 0.1329 0.0
C191 C -0.01431 0.36119 0.15174 0.0
C192 C 0.9751 0.28608 0.12418 0.0
C193 C 0.00029 0.32385 0.15618 0.0
C194 C -0.00739 0.21503 0.11327 0.0
C195 C 0.93946 0.20572 0.07839 0.0
N196 N -0.00524 0.28784 0.14249 0.0
N197 N 0.94432 0.24048 0.09244 0.0
H198 H 0.83607 0.95406 0.41597 0.0
H199 H 0.73042 0.08988 0.488 0.0
H200 H 0.93126 0.11227 0.43859 0.0
H201 H 0.65602 0.92078 0.48267 0.0
H202 H 0.80069 0.09921 0.4674 0.0
H203 H 0.7658 0.94117 0.43792 0.0
C204 C 0.84228 0.98593 0.4256 0.0
C205 C 0.88957 0.03432 0.42544 0.0
C206 C 0.76907 0.06003 0.4708 0.0
C207 C 0.80942 0.02009 0.4503 0.0
C208 C 0.72895 0.05459 0.48269 0.0
C209 C 0.68713 0.00439 0.4873 0.0
C210 C 0.76735 0.01506 0.46315 0.0
C211 C 0.68699 0.96031 0.47938 0.0
C212 C 0.80225 0.97853 0.43811 0.0
C213 C 0.89553 0.07428 0.43822 0.0
N214 N 0.72639 0.96667 0.46765 0.0
N215 N 0.85584 0.0664 0.45 0.0
H216 H 0.91544 0.87731 0.74721 0.0
H217 H 0.68984 0.78638 0.82609 0.0
H218 H 0.86804 0.98015 0.77265 0.0
H219 H 0.75957 0.69328 0.81218 0.0
H220 H 0.75176 0.85561 0.80468 0.0
H221 H 0.85529 0.80686 0.76903 0.0
C222 C 0.8924 0.88508 0.75732 0.0
C223 C 0.89683 0.93476 0.75808 0.0
C224 C 0.75375 0.82017 0.80632 0.0
C225 C 0.82812 0.85453 0.78297 0.0
C226 C 0.71825 0.78056 0.81848 0.0
C227 C 0.71951 0.73402 0.82083 0.0
C228 C 0.79068 0.81317 0.79626 0.0
C229 C 0.75757 0.72877 0.81083 0.0
C230 C 0.85828 0.84495 0.76981 0.0
C231 C 0.86613 0.94262 0.77153 0.0
N232 N 0.79152 0.76779 0.79885 0.0
N233 N 0.83307 0.90296 0.78336 0.0
H234 H 0.09799 0.97665 0.08517 0.0
H235 H 0.94237 0.75206 0.16418 0.0
H236 H 0.94667 0.9361 0.10721 0.0
H237 H 0.10429 0.81027 0.15107 0.0
H238 H 0.94359 0.81918 0.1429 0.0
H239 H 0.10205 0.91642 0.10897 0.0
C240 C 0.06585 0.95543 0.09509 0.0
C241 C 0.02182 0.96122 0.09414 0.0
C242 C 0.97901 0.81755 0.14473 0.0
C243 C 0.026 0.89212 0.12121 0.0
C244 C 0.9782 0.77902 0.15679 0.0
C245 C 0.0232 0.77545 0.15931 0.0
C246 C 0.02504 0.85258 0.13492 0.0
C247 C 0.06881 0.8119 0.14961 0.0
C248 C 0.06818 0.92108 0.10866 0.0
C249 C 0.98132 0.93278 0.10735 0.0
N250 N 0.06848 0.84874 0.13771 0.0
N251 N -0.01575 0.89928 0.12022 0.0
H252 H 0.23938 0.16607 0.41543 0.0
H253 H 0.23734 0.94775 0.48493 0.0
H254 H 0.0978 0.02152 0.4294 0.0
H255 H 0.36398 0.1092 0.48458 0.0
H256 H 0.18696 0.97172 0.46288 0.0
H257 H 0.28717 0.14417 0.43937 0.0
C258 C 0.21826 0.12989 0.42362 0.0
C259 C 0.1645 0.09556 0.42037 0.0
C260 C 0.22567 0.00191 0.46772 0.0
C261 C 0.21914 0.06993 0.44762 0.0
C262 C 0.2545 -0.01182 0.48018 0.0
C263 C 0.30481 0.02658 0.48659 0.0
C264 C 0.24767 0.05423 0.46142 0.0
C265 C 0.32511 0.0785 0.48014 0.0
C266 C 0.24556 0.11744 0.4373 0.0
C267 C 0.13918 0.04924 0.43145 0.0
N268 N 0.29662 0.09074 0.46782 0.0
N269 N 0.16681 0.03754 0.44445 0.0
H270 H 0.11978 0.21456 0.74298 0.0
H271 H 0.35155 0.2805 0.81946 0.0
H272 H 0.16561 0.10251 0.75979 0.0
H273 H 0.27823 0.37429 0.81398 0.0
H274 H 0.28781 0.21751 0.79597 0.0
H275 H 0.18291 0.27723 0.76689 0.0
C276 C 0.14327 0.20324 0.75164 0.0
C277 C 0.13744 0.15327 0.74942 0.0
C278 C 0.28561 0.25181 0.79996 0.0
C279 C 0.2096 0.22463 0.77675 0.0
C280 C 0.32179 0.28767 0.8135 0.0
C281 C 0.32041 0.33293 0.81877 0.0
C282 C 0.24793 0.26137 0.79147 0.0
C283 C 0.28145 0.34049 0.81017 0.0
C284 C 0.17909 0.23891 0.76534 0.0
C285 C 0.16875 0.14059 0.76106 0.0
N286 N 0.24693 0.30521 0.7969 0.0
N287 N 0.20357 0.17608 0.7742 0.0
H288 H 0.88403 -0.01027 0.66432 0.0
H289 H 0.72935 0.10577 0.60696 0.0
H290 H 0.89217 0.13511 0.68054 0.0
H291 H 0.67782 0.93994 0.60688 0.0
H292 H 0.79997 0.1216 0.6297 0.0
H293 H 0.81898 0.9756 0.63893 0.0
C294 C 0.87244 0.01887 0.66246 0.0
C295 C 0.8934 0.06359 0.67464 0.0
C296 C 0.77324 0.08178 0.62466 0.0
C297 C 0.81942 0.04775 0.64557 0.0
C298 C 0.73269 0.07258 0.61174 0.0
C299 C 0.69685 0.02123 0.60518 0.0
C300 C 0.77865 0.03953 0.63093 0.0
C301 C 0.70449 0.98019 0.61143 0.0
C302 C 0.8352 0.01062 0.64803 0.0
C303 C 0.87682 0.09993 0.67159 0.0
N304 N 0.74448 -0.00979 0.62401 0.0
N305 N 0.84089 0.09126 0.65733 0.0
H306 H 0.82154 0.91157 0.02376 0.0
H307 H 0.77722 0.77907 0.91874 0.0
H308 H 0.9506 0.94214 0.98691 0.0
H309 H 0.67299 0.69943 0.96639 0.0
H310 H 0.83735 0.84842 0.94167 0.0
H311 H 0.76177 0.84216 0.00087 0.0
C312 C 0.83722 0.90377 0.01083 0.0
C313 C 0.89101 0.93244 0.00721 0.0
C314 C 0.80136 0.81565 0.94707 0.0
C315 C 0.82309 0.85396 0.98098 0.0
C316 C 0.76711 0.77636 0.93403 0.0
C317 C 0.72042 0.73362 0.94079 0.0
C318 C 0.78811 0.81261 0.96686 0.0
C319 C 0.70893 0.73164 0.96071 0.0
C320 C 0.80321 0.86411 -0.00214 0.0
C321 C 0.90939 0.92071 0.99027 0.0
N322 N 0.74238 0.77086 0.97306 0.0
N323 N 0.87541 0.88258 0.97768 0.0
H324 H 0.9672 0.91253 0.34665 0.0
H325 H 0.11918 0.82827 0.27297 0.0
H326 H 0.12066 0.01958 0.32418 0.0
H327 H 0.95432 0.7301 0.28406 0.0
H328 H 0.12209 0.89607 0.29428 0.0
H329 H 0.96308 0.84235 0.3261 0.0
C330 C -3e-05 0.92129 0.33743 0.0
C331 C 0.04427 0.97208 0.33712 0.0
C332 C 0.08523 0.85973 0.29206 0.0
C333 C 0.03993 0.89211 0.31374 0.0
C334 C 0.08365 0.8209 0.27999 0.0
C335 C 0.03645 0.77355 0.27674 0.0
C336 C 0.03935 0.85109 0.30108 0.0
C337 C -0.00859 0.76632 0.28603 0.0
C338 C -0.00246 0.88129 0.32569 0.0
C339 C 0.08558 0.98117 0.32488 0.0
N340 N -0.00603 0.80465 0.29783 0.0
N341 N 0.08243 0.94161 0.31375 0.0
H342 H 0.12784 0.07867 0.65039 0.0
H343 H 0.23404 0.8983 0.60841 0.0
H344 H 0.0854 0.92775 0.67529 0.0
H345 H 0.3073 0.06535 0.59856 0.0
H346 H 0.16917 0.90257 0.62903 0.0
H347 H 0.18317 0.06804 0.62715 0.0
C348 C 0.12985 0.04304 0.6509 0.0
C349 C 0.10223 0.00418 0.66492 0.0
C350 C 0.19938 0.93817 0.62228 0.0
C351 C 0.16577 -0.00814 0.63828 0.0
C352 C 0.23613 0.93572 0.61047 0.0
C353 C 0.27616 0.98164 0.60191 0.0
C354 C 0.2024 0.98673 0.62527 0.0
C355 C 0.27741 0.02919 0.60509 0.0
C356 C 0.16163 0.03711 0.63764 0.0
C357 C 0.10627 0.95879 0.66479 0.0
N358 N 0.24107 0.03048 0.61649 0.0
N359 N 0.13765 0.9539 0.65168 0.0
H360 H 0.1632 0.15283 0.01473 0.0
H361 H 0.27834 0.39288 0.93976 0.0
H362 H 0.07354 0.21731 0.98978 0.0
H363 H 0.34793 0.29653 0.94858 0.0
H364 H 0.20856 0.33612 0.96183 0.0
H365 H 0.23737 0.21305 -0.00557 0.0
C366 C 0.15922 0.17983 0.00511 0.0
C367 C 0.11203 0.17987 0.00387 0.0
C368 C 0.2391 0.32738 0.95892 0.0
C369 C 0.19647 0.24873 0.98079 0.0
C370 C 0.27885 0.35958 0.94619 0.0
C371 C 0.31895 0.34926 0.94205 0.0
C372 C 0.23945 0.28465 0.96781 0.0
C373 C 0.31814 0.30635 0.9514 0.0
C374 C 0.20141 0.21394 -0.00652 0.0
C375 C 0.10899 0.21558 -0.00889 0.0
N376 N 0.27898 0.27558 0.96384 0.0
N377 N 0.15059 0.24856 0.98012 0.0
H378 H 0.93541 0.13707 0.33362 0.0
H379 H 0.10998 0.40723 0.27763 0.0
H380 H 0.09579 0.24717 0.35015 0.0
H381 H 0.94109 0.32518 0.27714 0.0
H382 H 0.10717 0.34394 0.30139 0.0
H383 H 0.93843 0.20069 0.30991 0.0
C384 C 0.97125 0.17468 0.33227 0.0
C385 C 0.01541 0.18695 0.34388 0.0
C386 C 0.07079 0.3399 0.29604 0.0
C387 C 0.01925 0.25959 0.31667 0.0
C388 C 0.07229 0.37613 0.28253 0.0
C389 C 0.02568 0.37186 0.27534 0.0
C390 C 0.02237 0.29864 0.30228 0.0
C391 C 0.97806 0.32979 0.28196 0.0
C392 C 0.97289 0.21097 0.31877 0.0
C393 C 0.0608 0.23626 0.34155 0.0
N394 N 0.97765 0.29483 0.29501 0.0
N395 N 0.06166 0.27071 0.32811 0.0
loop_
_geom_bond_atom_site_label_1
_geom_bond_atom_site_label_2
_geom_bond_distance
_geom_bond_site_symmetry_2
_ccdc_geom_bond_type
C0 O1 1.306 1_455 S
C0 O3 1.160 . S
O1 C0 1.306 1_655 S
O1 Cd2 2.228 . S
Cd2 O1 2.228 . S
Cd2 O6 2.273 . S
Cd2 O10 2.277 1_655 S
O3 C0 1.160 . S
O3 Cd4 2.203 . S
Cd4 O3 2.203 . S
Cd4 O6 2.411 1_455 S
Cd4 O7 2.333 1_545 S
Cd4 O8 2.352 1_545 S
Cd4 O12 2.277 . S
Cd4 O13 2.349 1_545 S
C5 O10 1.209 . S
C5 O12 1.226 . S
O6 Cd2 2.273 . S
O6 Cd4 2.411 1_655 S
O6 C9 1.320 1_545 S
O7 Cd4 2.333 1_565 S
O7 C9 1.214 1_455 S
O8 Cd4 2.352 1_565 S
O8 C11 1.258 . S
C9 O6 1.320 1_565 S
C9 O7 1.214 1_655 S
O10 Cd2 2.277 1_455 S
O10 C5 1.209 . S
C11 O8 1.258 . S
C11 O13 1.283 . S
O12 Cd4 2.277 . S
O12 C5 1.226 . S
O13 Cd4 2.349 1_565 S
O13 C11 1.283 . S
C14 O15 1.306 . S
C14 O17 1.160 . S
O15 C14 1.306 . S
O15 Cd16 2.228 . S
Cd16 O15 2.228 . S
Cd16 O20 2.273 . S
Cd16 O24 2.277 . S
O17 C14 1.160 . S
O17 Cd18 2.203 . S
Cd18 O17 2.203 . S
Cd18 O20 2.411 . S
Cd18 O21 2.333 1_455 S
Cd18 O22 2.352 1_455 S
Cd18 O26 2.277 1_445 S
Cd18 O27 2.356 1_455 S
C19 O24 1.209 1_565 S
C19 O26 1.226 1_455 S
O20 Cd16 2.273 . S
O20 Cd18 2.411 . S
O20 C23 1.320 . S
O21 Cd18 2.333 1_655 S
O21 C23 1.214 1_655 S
O22 Cd18 2.352 1_655 S
O22 C25 1.258 . S
C23 O20 1.320 . S
C23 O21 1.214 1_455 S
O24 Cd16 2.277 . S
O24 C19 1.209 1_545 S
C25 O22 1.258 . S
C25 O27 1.282 . S
O26 Cd18 2.277 1_665 S
O26 C19 1.226 1_655 S
O27 Cd18 2.356 1_655 S
O27 C25 1.282 . S
C28 O29 1.306 . S
C28 O31 1.160 . S
O29 C28 1.306 . S
O29 Cd30 2.228 . S
Cd30 O29 2.228 . S
Cd30 O34 2.273 1_655 S
Cd30 O38 2.277 . S
O31 C28 1.160 . S
O31 Cd32 2.203 1_655 S
Cd32 O31 2.203 1_455 S
Cd32 O34 2.411 . S
Cd32 O35 2.333 . S
Cd32 O36 2.352 . S
Cd32 O40 2.277 1_445 S
Cd32 O41 2.356 . S
C33 O38 1.209 1_565 S
C33 O40 1.226 . S
O34 Cd30 2.273 1_455 S
O34 Cd32 2.411 . S
O34 C37 1.320 . S
O35 Cd32 2.333 . S
O35 C37 1.214 . S
O36 Cd32 2.352 . S
O36 C39 1.258 . S
C37 O34 1.320 . S
C37 O35 1.214 . S
O38 Cd30 2.277 . S
O38 C33 1.209 1_545 S
C39 O36 1.258 . S
C39 O41 1.282 . S
O40 Cd32 2.277 1_665 S
O40 C33 1.226 . S
O41 Cd32 2.356 . S
O41 C39 1.282 . S
C42 C43 1.384 . S
C42 C44 1.384 . S
C42 H70 0.931 1_455 S
C43 C42 1.384 . S
C43 C46 1.382 . S
C44 C42 1.384 . S
C44 C45 1.381 . S
C44 H71 0.930 1_455 S
C45 C44 1.381 . S
C45 C47 1.381 . S
C45 C48 1.487 . S
C46 C43 1.382 . S
C46 C47 1.387 . S
C46 H72 0.930 . S
C47 C45 1.381 . S
C47 C46 1.387 . S
C47 H73 0.931 . S
C48 C45 1.487 . S
C48 C55 1.399 . S
C48 N86 1.343 . S
C49 C50 1.384 . S
C49 C51 1.384 . S
C49 H74 0.931 . S
C50 C49 1.384 . S
C50 C53 1.382 . S
C51 C49 1.384 . S
C51 C52 1.381 . S
C51 H75 0.930 . S
C52 C51 1.381 . S
C52 C54 1.381 . S
C52 C55 1.487 . S
C53 C50 1.382 . S
C53 C54 1.387 . S
C53 H76 0.930 1_455 S
C54 C52 1.381 . S
C54 C53 1.387 . S
C54 H77 0.931 1_455 S
C55 C48 1.399 . S
C55 C52 1.487 . S
C55 N87 1.343 . S
C56 C57 1.384 . S
C56 C58 1.384 . S
C56 H78 0.931 . S
C57 C56 1.384 . S
C57 C60 1.382 . S
C58 C56 1.384 . S
C58 C59 1.381 . S
C58 H79 0.930 . S
C59 C58 1.381 . S
C59 C61 1.381 . S
C59 C62 1.487 . S
C60 C57 1.382 . S
C60 C61 1.387 . S
C60 H80 0.930 1_455 S
C61 C59 1.381 . S
C61 C60 1.387 . S
C61 H81 0.931 1_455 S
C62 C59 1.487 . S
C62 C69 1.399 . S
C62 N87 1.343 . S
C63 C64 1.384 . S
C63 C65 1.384 . S
C63 H82 0.931 1_455 S
C64 C63 1.384 . S
C64 C67 1.382 . S
C65 C63 1.384 . S
C65 C66 1.381 . S
C65 H83 0.930 1_455 S
C66 C65 1.381 . S
C66 C68 1.381 . S
C66 C69 1.487 . S
C67 C64 1.382 . S
C67 C68 1.387 . S
C67 H84 0.930 . S
C68 C66 1.381 . S
C68 C67 1.387 . S
C68 H85 0.931 . S
C69 C62 1.399 . S
C69 C66 1.487 . S
C69 N86 1.343 . S
H70 C42 0.931 1_655 S
H71 C44 0.930 1_655 S
H72 C46 0.930 . S
H73 C47 0.931 . S
H74 C49 0.931 . S
H75 C51 0.930 . S
H76 C53 0.930 1_655 S
H77 C54 0.931 1_655 S
H78 C56 0.931 . S
H79 C58 0.930 . S
H80 C60 0.930 1_655 S
H81 C61 0.931 1_655 S
H82 C63 0.931 1_655 S
H83 C65 0.930 1_655 S
H84 C67 0.930 . S
H85 C68 0.931 . S
N86 C48 1.343 . S
N86 C69 1.343 . S
N87 C55 1.343 . S
N87 C62 1.343 . S
C88 C89 1.384 . S
C88 C90 1.384 . S
C88 H116 0.931 . S
C89 C88 1.384 . S
C89 C92 1.382 . S
C90 C88 1.384 . S
C90 C91 1.381 . S
C90 H117 0.930 . S
C91 C90 1.381 . S
C91 C93 1.381 . S
C91 C94 1.487 . S
C92 C89 1.382 . S
C92 C93 1.387 . S
C92 H118 0.930 1_545 S
C93 C91 1.381 . S
C93 C92 1.387 . S
C93 H119 0.931 1_545 S
C94 C91 1.487 . S
C94 C101 1.399 . S
C94 N132 1.343 . S
C95 C96 1.384 . S
C95 C97 1.384 . S
C95 H120 0.931 1_545 S
C96 C95 1.384 . S
C96 C99 1.382 . S
C97 C95 1.384 . S
C97 C98 1.381 . S
C97 H121 0.930 1_545 S
C98 C97 1.381 . S
C98 C100 1.381 . S
C98 C101 1.487 . S
C99 C96 1.382 . S
C99 C100 1.387 . S
C99 H122 0.930 . S
C100 C98 1.381 . S
C100 C99 1.387 . S
C100 H123 0.931 . S
C101 C94 1.399 . S
C101 C98 1.487 . S
C101 N133 1.343 . S
C102 C103 1.384 . S
C102 C104 1.384 . S
C102 H124 0.931 1_545 S
C103 C102 1.384 . S
C103 C106 1.382 . S
C104 C102 1.384 . S
C104 C105 1.381 . S
C104 H125 0.930 1_545 S
C105 C104 1.381 . S
C105 C107 1.381 . S
C105 C108 1.487 . S
C106 C103 1.382 . S
C106 C107 1.387 . S
C106 H126 0.930 . S
C107 C105 1.381 . S
C107 C106 1.387 . S
C107 H127 0.931 . S
C108 C105 1.487 . S
C108 C115 1.399 . S
C108 N133 1.343 . S
C109 C110 1.384 . S
C109 C111 1.384 . S
C109 H128 0.931 . S
C110 C109 1.384 . S
C110 C113 1.382 . S
C111 C109 1.384 . S
C111 C112 1.381 . S
C111 H129 0.930 . S
C112 C111 1.381 . S
C112 C114 1.381 . S
C112 C115 1.487 . S
C113 C110 1.382 . S
C113 C114 1.387 . S
C113 H130 0.930 1_545 S
C114 C112 1.381 . S
C114 C113 1.387 . S
C114 H131 0.931 1_545 S
C115 C108 1.399 . S
C115 C112 1.487 . S
C115 N132 1.343 . S
H116 C88 0.931 . S
H117 C90 0.930 . S
H118 C92 0.930 1_565 S
H119 C93 0.931 1_565 S
H120 C95 0.931 1_565 S
H121 C97 0.930 1_565 S
H122 C99 0.930 . S
H123 C100 0.931 . S
H124 C102 0.931 1_565 S
H125 C104 0.930 1_565 S
H126 C106 0.930 . S
H127 C107 0.931 . S
H128 C109 0.931 . S
H129 C111 0.930 . S
H130 C113 0.930 1_565 S
H131 C114 0.931 1_565 S
N132 C94 1.343 . S
N132 C115 1.343 . S
N133 C101 1.343 . S
N133 C108 1.343 . S
C134 C135 1.384 . S
C134 C136 1.384 . S
C134 H162 0.931 . S
C135 C134 1.384 . S
C135 C138 1.382 . S
C136 C134 1.384 . S
C136 C137 1.381 . S
C136 H163 0.930 . S
C137 C136 1.381 . S
C137 C139 1.381 . S
C137 C140 1.487 . S
C138 C135 1.382 . S
C138 C139 1.387 . S
C138 H164 0.930 . S
C139 C137 1.381 . S
C139 C138 1.387 . S
C139 H165 0.931 . S
C140 C137 1.487 . S
C140 C147 1.399 . S
C140 N178 1.343 . S
C141 C142 1.384 . S
C141 C143 1.384 . S
C141 H166 0.931 . S
C142 C141 1.384 . S
C142 C145 1.382 . S
C143 C141 1.384 . S
C143 C144 1.381 . S
C143 H167 0.930 . S
C144 C143 1.381 . S
C144 C146 1.381 . S
C144 C147 1.487 . S
C145 C142 1.382 . S
C145 C146 1.387 . S
C145 H168 0.930 . S
C146 C144 1.381 . S
C146 C145 1.387 . S
C146 H169 0.931 . S
C147 C140 1.399 . S
C147 C144 1.487 . S
C147 N179 1.343 . S
C148 C149 1.384 . S
C148 C150 1.384 . S
C148 H170 0.931 . S
C149 C148 1.384 . S
C149 C152 1.382 . S
C150 C148 1.384 . S
C150 C151 1.381 . S
C150 H171 0.930 . S
C151 C150 1.381 . S
C151 C153 1.381 . S
C151 C154 1.487 . S
C152 C149 1.382 . S
C152 C153 1.387 . S
C152 H172 0.930 . S
C153 C151 1.381 . S
C153 C152 1.387 . S
C153 H173 0.931 . S
C154 C151 1.487 . S
C154 C161 1.399 . S
C154 N179 1.343 . S
C155 C156 1.384 . S
C155 C157 1.384 . S
C155 H174 0.931 . S
C156 C155 1.384 . S
C156 C159 1.382 . S
C157 C155 1.384 . S
C157 C158 1.381 . S
C157 H175 0.930 . S
C158 C157 1.381 . S
C158 C160 1.381 . S
C158 C161 1.487 . S
C159 C156 1.382 . S
C159 C160 1.387 . S
C159 H176 0.930 . S
C160 C158 1.381 . S
C160 C159 1.387 . S
C160 H177 0.931 . S
C161 C154 1.399 . S
C161 C158 1.487 . S
C161 N178 1.343 . S
H162 C134 0.931 . S
H163 C136 0.930 . S
H164 C138 0.930 . S
H165 C139 0.931 . S
H166 C141 0.931 . S
H167 C143 0.930 . S
H168 C145 0.930 . S
H169 C146 0.931 . S
H170 C148 0.931 . S
H171 C150 0.930 . S
H172 C152 0.930 . S
H173 C153 0.931 . S
H174 C155 0.931 . S
H175 C157 0.930 . S
H176 C159 0.930 . S
H177 C160 0.931 . S
N178 C140 1.343 . S
N178 C161 1.343 . S
N179 C147 1.343 . S
N179 C154 1.343 . S
H180 C186 0.930 . S
H181 C190 0.930 1_655 S
H182 C195 0.929 . S
H183 C193 0.929 . S
H184 C188 0.929 1_655 S
H185 C194 0.929 . S
C186 H180 0.930 . S
C186 C187 1.367 . S
C186 C194 1.378 . S
C187 C186 1.367 . S
C187 C195 1.433 1_455 S
C188 H184 0.929 1_455 S
C188 C190 1.378 . S
C188 C192 1.350 . S
C189 C192 1.463 . S
C189 C194 1.350 . S
C189 N197 1.426 . S
C190 H181 0.930 1_455 S
C190 C188 1.378 . S
C190 C191 1.367 . S
C191 C190 1.367 . S
C191 C193 1.433 . S
C192 C188 1.350 . S
C192 C189 1.463 . S
C192 N196 1.427 . S
C193 H183 0.929 . S
C193 C191 1.433 . S
C193 N196 1.384 . S
C194 H185 0.929 . S
C194 C186 1.378 . S
C194 C189 1.350 . S
C195 H182 0.929 . S
C195 C187 1.433 1_655 S
C195 N197 1.383 1_655 S
N196 C192 1.427 . S
N196 C193 1.384 . S
N197 C189 1.426 . S
N197 C195 1.383 1_455 S
H198 C204 0.930 . S
H199 C208 0.930 . S
H200 C213 0.929 . S
H201 C211 0.929 1_565 S
H202 C206 0.929 . S
H203 C212 0.929 . S
C204 H198 0.930 . S
C204 C205 1.367 1_565 S
C204 C212 1.378 . S
C205 C204 1.367 1_545 S
C205 C213 1.433 . S
C206 H202 0.929 . S
C206 C208 1.378 . S
C206 C210 1.350 . S
C207 C210 1.463 . S
C207 C212 1.350 1_545 S
C207 N215 1.427 . S
C208 H199 0.930 . S
C208 C206 1.378 . S
C208 C209 1.367 . S
C209 C208 1.367 . S
C209 C211 1.433 . S
C210 C206 1.350 . S
C210 C207 1.463 . S
C210 N214 1.427 . S
C211 H201 0.929 1_545 S
C211 C209 1.433 . S
C211 N214 1.384 . S
C212 H203 0.929 . S
C212 C204 1.378 . S
C212 C207 1.350 1_565 S
C213 H200 0.929 . S
C213 C205 1.433 . S
C213 N215 1.384 . S
N214 C210 1.427 . S
N214 C211 1.384 . S
N215 C207 1.427 . S
N215 C213 1.384 . S
H216 C222 0.930 . S
H217 C226 0.930 . S
H218 C231 0.929 . S
H219 C229 0.929 . S
H220 C224 0.929 . S
H221 C230 0.929 . S
C222 H216 0.930 . S
C222 C223 1.367 . S
C222 C230 1.378 . S
C223 C222 1.367 . S
C223 C231 1.433 . S
C224 H220 0.929 . S
C224 C226 1.378 . S
C224 C228 1.350 . S
C225 C228 1.463 . S
C225 C230 1.350 . S
C225 N233 1.427 . S
C226 H217 0.930 . S
C226 C224 1.378 . S
C226 C227 1.367 . S
C227 C226 1.367 . S
C227 C229 1.433 . S
C228 C224 1.350 . S
C228 C225 1.463 . S
C228 N232 1.427 . S
C229 H219 0.929 . S
C229 C227 1.433 . S
C229 N232 1.384 . S
C230 H221 0.929 . S
C230 C222 1.378 . S
C230 C225 1.350 . S
C231 H218 0.929 . S
C231 C223 1.433 . S
C231 N233 1.384 . S
N232 C228 1.427 . S
N232 C229 1.384 . S
N233 C225 1.427 . S
N233 C231 1.384 . S
H234 C240 0.930 . S
H235 C244 0.930 1_655 S
H236 C249 0.929 . S
H237 C247 0.929 . S
H238 C242 0.918 1_655 S
H239 C248 0.929 . S
C240 H234 0.930 . S
C240 C241 1.367 . S
C240 C248 1.378 . S
C241 C240 1.367 . S
C241 C249 1.433 1_455 S
C242 H238 0.918 1_455 S
C242 C244 1.382 . S
C242 C246 1.356 . S
C243 C246 1.463 . S
C243 C248 1.350 . S
C243 N251 1.427 1_455 S
C244 H235 0.930 1_455 S
C244 C242 1.382 . S
C244 C245 1.367 . S
C245 C244 1.367 . S
C245 C247 1.433 . S
C246 C242 1.356 . S
C246 C243 1.463 . S
C246 N250 1.427 . S
C247 H237 0.929 . S
C247 C245 1.433 . S
C247 N250 1.384 . S
C248 H239 0.929 . S
C248 C240 1.378 . S
C248 C243 1.350 . S
C249 H236 0.929 . S
C249 C241 1.433 1_655 S
C249 N251 1.384 . S
N250 C246 1.427 . S
N250 C247 1.384 . S
N251 C243 1.427 1_655 S
N251 C249 1.384 . S
H252 C258 0.930 . S
H253 C262 0.930 1_565 S
H254 C267 0.929 1_565 S
H255 C265 0.929 . S
H256 C260 0.929 1_565 S
H257 C266 0.929 . S
C258 H252 0.930 . S
C258 C259 1.367 . S
C258 C266 1.378 . S
C259 C258 1.367 . S
C259 C267 1.433 . S
C260 H256 0.929 1_545 S
C260 C262 1.378 . S
C260 C264 1.350 . S
C261 C264 1.463 . S
C261 C266 1.350 . S
C261 N269 1.427 . S
C262 H253 0.930 1_545 S
C262 C260 1.378 . S
C262 C263 1.367 . S
C263 C262 1.367 . S
C263 C265 1.433 . S
C264 C260 1.350 . S
C264 C261 1.463 . S
C264 N268 1.427 . S
C265 H255 0.929 . S
C265 C263 1.433 . S
C265 N268 1.384 . S
C266 H257 0.929 . S
C266 C258 1.378 . S
C266 C261 1.350 . S
C267 H254 0.929 1_545 S
C267 C259 1.433 . S
C267 N269 1.384 . S
N268 C264 1.427 . S
N268 C265 1.384 . S
N269 C261 1.427 . S
N269 C267 1.384 . S
H270 C276 0.930 . S
H271 C280 0.930 . S
H272 C285 0.929 . S
H273 C283 0.929 . S
H274 C278 0.929 . S
H275 C284 0.929 . S
C276 H270 0.930 . S
C276 C277 1.367 . S
C276 C284 1.378 . S
C277 C276 1.367 . S
C277 C285 1.433 . S
C278 H274 0.929 . S
C278 C280 1.378 . S
C278 C282 1.350 . S
C279 C282 1.463 . S
C279 C284 1.350 . S
C279 N287 1.427 . S
C280 H271 0.930 . S
C280 C278 1.378 . S
C280 C281 1.367 . S
C281 C280 1.367 . S
C281 C283 1.433 . S
C282 C278 1.350 . S
C282 C279 1.463 . S
C282 N286 1.427 . S
C283 H273 0.929 . S
C283 C281 1.433 . S
C283 N286 1.384 . S
C284 H275 0.929 . S
C284 C276 1.378 . S
C284 C279 1.350 . S
C285 H272 0.929 . S
C285 C277 1.433 . S
C285 N287 1.384 . S
N286 C282 1.427 . S
N286 C283 1.384 . S
N287 C279 1.427 . S
N287 C285 1.384 . S
H288 C294 0.930 1_565 S
H289 C298 0.930 . S
H290 C303 0.929 . S
H291 C301 0.929 1_565 S
H292 C296 0.929 . S
H293 C302 0.929 1_565 S
C294 H288 0.930 1_545 S
C294 C295 1.367 . S
C294 C302 1.378 . S
C295 C294 1.367 . S
C295 C303 1.433 . S
C296 H292 0.929 . S
C296 C298 1.378 . S
C296 C300 1.350 . S
C297 C300 1.463 . S
C297 C302 1.350 . S
C297 N305 1.427 . S
C298 H289 0.930 . S
C298 C296 1.378 . S
C298 C299 1.367 . S
C299 C298 1.367 . S
C299 C301 1.433 . S
C300 C296 1.350 . S
C300 C297 1.463 . S
C300 N304 1.427 . S
C301 H291 0.929 1_545 S
C301 C299 1.433 . S
C301 N304 1.384 . S
C302 H293 0.929 1_545 S
C302 C294 1.378 . S
C302 C297 1.350 . S
C303 H290 0.929 . S
C303 C295 1.433 . S
C303 N305 1.384 . S
N304 C300 1.427 . S
N304 C301 1.384 . S
N305 C297 1.427 . S
N305 C303 1.384 . S
H306 C312 0.930 . S
H307 C316 0.930 . S
H308 C321 0.929 1_545 S
H309 C319 0.929 . S
H310 C314 0.929 . S
H311 C320 0.929 . S
C312 H306 0.930 . S
C312 C313 1.367 . S
C312 C320 1.378 . S
C313 C312 1.367 . S
C313 C321 1.433 1_554 S
C314 H310 0.929 . S
C314 C316 1.378 . S
C314 C318 1.350 . S
C315 C318 1.463 . S
C315 C320 1.350 1_556 S
C315 N323 1.427 . S
C316 H307 0.930 . S
C316 C314 1.378 . S
C316 C317 1.367 . S
C317 C316 1.367 . S
C317 C319 1.433 . S
C318 C314 1.350 . S
C318 C315 1.463 . S
C318 N322 1.427 . S
C319 H309 0.929 . S
C319 C317 1.433 . S
C319 N322 1.384 . S
C320 H311 0.929 . S
C320 C312 1.378 . S
C320 C315 1.350 1_554 S
C321 H308 0.929 1_565 S
C321 C313 1.433 1_556 S
C321 N323 1.384 . S
N322 C318 1.427 . S
N322 C319 1.384 . S
N323 C315 1.427 . S
N323 C321 1.384 . S
H324 C330 0.930 . S
H325 C334 0.930 . S
H326 C339 0.929 . S
H327 C337 0.929 1_655 S
H328 C332 0.929 . S
H329 C338 0.929 . S
C330 H324 0.930 . S
C330 C331 1.367 1_655 S
C330 C338 1.378 . S
C331 C330 1.367 1_455 S
C331 C339 1.433 . S
C332 H328 0.929 . S
C332 C334 1.378 . S
C332 C336 1.350 . S
C333 C336 1.463 . S
C333 C338 1.350 1_455 S
C333 N341 1.427 . S
C334 H325 0.930 . S
C334 C332 1.378 . S
C334 C335 1.367 . S
C335 C334 1.367 . S
C335 C337 1.433 . S
C336 C332 1.350 . S
C336 C333 1.463 . S
C336 N340 1.427 . S
C337 H327 0.929 1_455 S
C337 C335 1.433 . S
C337 N340 1.384 . S
C338 H329 0.929 . S
C338 C330 1.378 . S
C338 C333 1.350 1_655 S
C339 H326 0.929 . S
C339 C331 1.433 . S
C339 N341 1.384 . S
N340 C336 1.427 . S
N340 C337 1.384 . S
N341 C333 1.427 . S
N341 C339 1.384 . S
H342 C348 0.930 . S
H343 C352 0.930 1_565 S
H344 C357 0.921 1_565 S
H345 C355 0.929 . S
H346 C350 0.929 1_565 S
H347 C356 0.929 . S
C348 H342 0.930 . S
C348 C349 1.367 . S
C348 C356 1.378 . S
C349 C348 1.367 . S
C349 C357 1.449 . S
C350 H346 0.929 1_545 S
C350 C352 1.378 . S
C350 C354 1.350 . S
C351 C354 1.463 . S
C351 C356 1.350 . S
C351 N359 1.427 . S
C352 H343 0.930 1_545 S
C352 C350 1.378 . S
C352 C353 1.367 . S
C353 C352 1.367 . S
C353 C355 1.433 . S
C354 C350 1.350 . S
C354 C351 1.463 . S
C354 N358 1.427 . S
C355 H345 0.929 . S
C355 C353 1.433 . S
C355 N358 1.384 . S
C356 H347 0.929 . S
C356 C348 1.378 . S
C356 C351 1.350 . S
C357 H344 0.921 1_545 S
C357 C349 1.449 . S
C357 N359 1.377 . S
N358 C354 1.427 . S
N358 C355 1.384 . S
N359 C351 1.427 . S
N359 C357 1.377 . S
H360 C366 0.930 . S
H361 C370 0.930 . S
H362 C375 0.929 . S
H363 C373 0.929 . S
H364 C368 0.929 . S
H365 C374 0.929 . S
C366 H360 0.930 . S
C366 C367 1.367 . S
C366 C374 1.378 1_554 S
C367 C366 1.367 . S
C367 C375 1.433 . S
C368 H364 0.929 . S
C368 C370 1.378 . S
C368 C372 1.350 . S
C369 C372 1.463 . S
C369 C374 1.350 . S
C369 N377 1.427 . S
C370 H361 0.930 . S
C370 C368 1.378 . S
C370 C371 1.367 . S
C371 C370 1.367 . S
C371 C373 1.433 . S
C372 C368 1.350 . S
C372 C369 1.463 . S
C372 N376 1.427 . S
C373 H363 0.929 . S
C373 C371 1.433 . S
C373 N376 1.384 . S
C374 H365 0.929 . S
C374 C366 1.378 1_556 S
C374 C369 1.350 . S
C375 H362 0.929 . S
C375 C367 1.433 . S
C375 N377 1.384 1_554 S
N376 C372 1.427 . S
N376 C373 1.384 . S
N377 C369 1.427 . S
N377 C375 1.384 1_556 S
H378 C384 0.930 . S
H379 C388 0.930 . S
H380 C393 0.929 . S
H381 C391 0.929 1_655 S
H382 C386 0.929 . S
H383 C392 0.929 . S
C384 H378 0.930 . S
C384 C385 1.367 1_655 S
C384 C392 1.378 . S
C385 C384 1.367 1_455 S
C385 C393 1.433 . S
C386 H382 0.929 . S
C386 C388 1.378 . S
C386 C390 1.350 . S
C387 C390 1.463 . S
C387 C392 1.350 1_455 S
C387 N395 1.427 . S
C388 H379 0.930 . S
C388 C386 1.378 . S
C388 C389 1.367 . S
C389 C388 1.367 . S
C389 C391 1.433 . S
C390 C386 1.350 . S
C390 C387 1.463 . S
C390 N394 1.440 . S
C391 H381 0.929 1_455 S
C391 C389 1.433 . S
C391 N394 1.379 . S
C392 H383 0.929 . S
C392 C384 1.378 . S
C392 C387 1.350 1_655 S
C393 H380 0.929 . S
C393 C385 1.433 . S
C393 N395 1.384 . S
N394 C390 1.440 . S
N394 C391 1.379 . S
N395 C387 1.427 . S
N395 C393 1.384 . S
C191 C50 1.452 . S
C187 C0 1.451 . S
C205 C25 1.490 . S
C209 C89 1.491 . S
C223 C33 1.514 . S
C227 C156 1.516 . S
C241 C11 1.443 . S
C245 C57 1.443 . S
C263 C110 1.486 . S
C259 C14 1.481 . S
C277 C37 1.511 . S
C281 C135 1.515 . S
C299 C96 1.482 . S
C295 C28 1.477 . S
C313 C9 1.507 . S
C317 C149 1.512 . S
C335 C64 1.542 . S
C331 C19 1.540 . S
C353 C103 1.490 . S
C349 C39 1.488 . S
C371 C142 1.513 . S
C367 C5 1.513 . S
C385 C23 1.544 . S
C389 C43 1.555 . S
