# Generated by pormake.
# Topology csq, (4,8)-cn, num edge types: 1
# Building blocks:
#     Node 0, Type 0, BuildingBlock: MIFKUJ_clean_linker_1, # of connection points: 4
#     Node 1, Type 0, BuildingBlock: MIFKUJ_clean_linker_1, # of connection points: 4
#     Node 2, Type 0, BuildingBlock: MIFKUJ_clean_linker_1, # of connection points: 4
#     Node 3, Type 0, BuildingBlock: MIFKUJ_clean_linker_1, # of connection points: 4
#     Node 4, Type 0, BuildingBlock: MIFKUJ_clean_linker_1, # of connection points: 4
#     Node 5, Type 0, BuildingBlock: MIFKUJ_clean_linker_1, # of connection points: 4
#     Node 6, Type 1, BuildingBlock: TAGTUT_clean_sbu_1, # of connection points: 8
#     Node 7, Type 1, BuildingBlock: TAGTUT_clean_sbu_1, # of connection points: 8
#     Node 8, Type 1, BuildingBlock: TAGTUT_clean_sbu_1, # of connection points: 8
#     Edge 9, Type (0, 1), BuildingBlock: ZUJKAS_clean_linker_0, # of connection points: 2
#     Edge 10, Type (0, 1), BuildingBlock: ZUJKAS_clean_linker_0, # of connection points: 2
#     Edge 11, Type (0, 1), BuildingBlock: ZUJKAS_clean_linker_0, # of connection points: 2
#     Edge 12, Type (0, 1), BuildingBlock: ZUJKAS_clean_linker_0, # of connection points: 2
#     Edge 13, Type (0, 1), BuildingBlock: ZUJKAS_clean_linker_0, # of connection points: 2
#     Edge 14, Type (0, 1), BuildingBlock: ZUJKAS_clean_linker_0, # of connection points: 2
#     Edge 15, Type (0, 1), BuildingBlock: ZUJKAS_clean_linker_0, # of connection points: 2
#     Edge 16, Type (0, 1), BuildingBlock: ZUJKAS_clean_linker_0, # of connection points: 2
#     Edge 17, Type (0, 1), BuildingBlock: ZUJKAS_clean_linker_0, # of connection points: 2
#     Edge 18, Type (0, 1), BuildingBlock: ZUJKAS_clean_linker_0, # of connection points: 2
#     Edge 19, Type (0, 1), BuildingBlock: ZUJKAS_clean_linker_0, # of connection points: 2
#     Edge 20, Type (0, 1), BuildingBlock: ZUJKAS_clean_linker_0, # of connection points: 2
#     Edge 21, Type (0, 1), BuildingBlock: ZUJKAS_clean_linker_0, # of connection points: 2
#     Edge 22, Type (0, 1), BuildingBlock: ZUJKAS_clean_linker_0, # of connection points: 2
#     Edge 23, Type (0, 1), BuildingBlock: ZUJKAS_clean_linker_0, # of connection points: 2
#     Edge 24, Type (0, 1), BuildingBlock: ZUJKAS_clean_linker_0, # of connection points: 2
#     Edge 25, Type (0, 1), BuildingBlock: ZUJKAS_clean_linker_0, # of connection points: 2
#     Edge 26, Type (0, 1), BuildingBlock: ZUJKAS_clean_linker_0, # of connection points: 2
#     Edge 27, Type (0, 1), BuildingBlock: ZUJKAS_clean_linker_0, # of connection points: 2
#     Edge 28, Type (0, 1), BuildingBlock: ZUJKAS_clean_linker_0, # of connection points: 2
#     Edge 29, Type (0, 1), BuildingBlock: ZUJKAS_clean_linker_0, # of connection points: 2
#     Edge 30, Type (0, 1), BuildingBlock: ZUJKAS_clean_linker_0, # of connection points: 2
#     Edge 31, Type (0, 1), BuildingBlock: ZUJKAS_clean_linker_0, # of connection points: 2
#     Edge 32, Type (0, 1), BuildingBlock: ZUJKAS_clean_linker_0, # of connection points: 2
# Relax obj value: 0.033
# Max RMSD: 0.129
# Mean RMSD: 0.058
data_MOF--net-csq--node1-TAGTUT_clean_sbu_1--node2-MIFKUJ_clean_linker_1--edge1-ZUJKAS_clean_linker_0
_symmetry_space_group_name_H-M    P1
_symmetry_Int_Tables_number       1
_symmetry_cell_setting            triclinic
loop_
_symmetry_equiv_pos_as_xyz
'x, y, z'
_cell_length_a     76.935489
_cell_length_b     76.070222
_cell_length_c     27.089443
_cell_angle_alpha  92.564104
_cell_angle_beta   91.512285
_cell_angle_gamma 119.77693
loop_
_atom_site_label
_atom_site_type_symbol
_atom_site_fract_x
_atom_site_fract_y
_atom_site_fract_z
_atom_type_partial_charge
H0 H 0.24567 0.44883 0.22742 0.0
H1 H 0.26944 0.44825 0.28797 0.0
H2 H 0.31587 0.50581 0.24171 0.0
H3 H 0.2918 0.50679 0.18317 0.0
H4 H 0.23344 0.47519 0.23185 0.0
H5 H 0.26556 0.45556 0.10403 0.0
H6 H 0.29173 0.45732 0.05116 0.0
H7 H 0.30736 0.51835 0.0186 0.0
H8 H 0.28138 0.51656 0.07156 0.0
H9 H 0.2298 0.51837 0.06687 0.0
H10 H 0.20718 0.51997 0.00454 0.0
H11 H 0.16108 0.4596 0.03512 0.0
H12 H 0.18392 0.45802 0.0973 0.0
H13 H 0.24183 0.49055 0.05548 0.0
H14 H 0.20947 0.5103 0.17384 0.0
H15 H 0.18445 0.51124 0.22557 0.0
H16 H 0.17124 0.45371 0.281 0.0
H17 H 0.19548 0.45233 0.22706 0.0
C18 C 0.26697 0.47778 0.2005 0.0
C19 C 0.26104 0.46122 0.23 0.0
C20 C 0.27466 0.46086 0.26445 0.0
C21 C 0.2945 0.47709 0.27004 0.0
C22 C 0.30059 0.49325 0.23899 0.0
C23 C 0.28693 0.49366 0.20482 0.0
C24 C 0.25179 0.47957 0.16973 0.0
C25 C 0.23498 0.47805 0.19289 0.0
C26 C 0.25444 0.48438 0.11965 0.0
C27 C 0.27155 0.48596 0.09194 0.0
C28 C 0.27485 0.46942 0.08612 0.0
C29 C 0.28968 0.47038 0.05553 0.0
C30 C 0.30159 0.48796 0.03053 0.0
C31 C 0.2986 0.50467 0.03764 0.0
C32 C 0.28369 0.50363 0.06775 0.0
C33 C 0.2085 0.48809 0.08664 0.0
C34 C 0.21468 0.50564 0.06081 0.0
C35 C 0.20174 0.50656 0.02534 0.0
C36 C 0.18244 0.48984 0.01473 0.0
C37 C 0.17596 0.47261 0.04221 0.0
C38 C 0.18889 0.47177 0.07803 0.0
C39 C 0.22336 0.4859 0.11743 0.0
C40 C 0.24013 0.48741 0.09429 0.0
C41 C 0.22075 0.48131 0.16764 0.0
C42 C 0.20427 0.48112 0.19588 0.0
C43 C 0.20083 0.49761 0.19608 0.0
C44 C 0.18671 0.4983 0.22649 0.0
C45 C 0.17587 0.48264 0.25798 0.0
C46 C 0.17909 0.46596 0.25698 0.0
C47 C 0.19309 0.46521 0.2263 0.0
H48 H 0.78272 0.27694 0.01782 0.0
H49 H 0.81016 0.30405 0.97605 0.0
H50 H 0.85243 0.29123 0.05155 0.0
H51 H 0.82501 0.26438 0.09341 0.0
H52 H 0.76782 0.23571 0.02413 0.0
H53 H 0.79471 0.29474 0.13133 0.0
H54 H 0.82271 0.32612 0.1696 0.0
H55 H 0.8431 0.29113 0.24923 0.0
H56 H 0.8153 0.25974 0.2096 0.0
H57 H 0.76261 0.20343 0.21459 0.0
H58 H 0.73899 0.18149 0.27303 0.0
H59 H 0.69206 0.1885 0.20195 0.0
H60 H 0.7158 0.21055 0.14372 0.0
H61 H 0.77381 0.24271 0.20773 0.0
H62 H 0.74661 0.18345 0.07532 0.0
H63 H 0.72079 0.15683 0.01751 0.0
H64 H 0.69801 0.19695 0.98449 0.0
H65 H 0.7239 0.22343 0.04152 0.0
C66 C 0.80188 0.26883 0.05902 0.0
C67 C 0.79787 0.27982 0.02475 0.0
C68 C 0.81357 0.29529 0.00096 0.0
C69 C 0.83351 0.29994 0.01091 0.0
C70 C 0.83731 0.28833 0.04386 0.0
C71 C 0.82165 0.2729 0.06756 0.0
C72 C 0.78572 0.254 0.08848 0.0
C73 C 0.76904 0.23727 0.06428 0.0
C74 C 0.78712 0.25622 0.14069 0.0
C75 C 0.80308 0.27497 0.16737 0.0
C76 C 0.80522 0.29385 0.1571 0.0
C77 C 0.82115 0.31175 0.17915 0.0
C78 C 0.83517 0.31109 0.21213 0.0
C79 C 0.8327 0.29211 0.22331 0.0
C80 C 0.81673 0.27418 0.20122 0.0
C81 C 0.74096 0.20849 0.17439 0.0
C82 C 0.74717 0.20005 0.21119 0.0
C83 C 0.73369 0.18762 0.24479 0.0
C84 C 0.71369 0.18338 0.24236 0.0
C85 C 0.70732 0.19131 0.20448 0.0
C86 C 0.72086 0.20384 0.17095 0.0
C87 C 0.75606 0.22381 0.14348 0.0
C88 C 0.7726 0.24092 0.16761 0.0
C89 C 0.7541 0.22226 0.09117 0.0
C90 C 0.73694 0.20523 0.06281 0.0
C91 C 0.73579 0.18629 0.05623 0.0
C92 C 0.7212 0.17123 0.02302 0.0
C93 C 0.70748 0.1749 0.99657 0.0
C94 C 0.70828 0.19367 0.00473 0.0
C95 C 0.72302 0.20877 0.03723 0.0
H96 H 0.5607 0.76159 0.98036 0.0
H97 H 0.56118 0.73174 0.94389 0.0
H98 H 0.51333 0.6932 0.03473 0.0
H99 H 0.51199 0.7228 0.06907 0.0
H100 H 0.53332 0.77253 0.97857 0.0
H101 H 0.56797 0.75861 0.11142 0.0
H102 H 0.56933 0.73323 0.16149 0.0
H103 H 0.51274 0.71954 0.22111 0.0
H104 H 0.5114 0.74482 0.17072 0.0
H105 H 0.50615 0.79621 0.14949 0.0
H106 H 0.50261 0.82523 0.1777 0.0
H107 H 0.5558 0.86523 0.10329 0.0
H108 H 0.55919 0.83614 0.07518 0.0
H109 H 0.53656 0.7864 0.16053 0.0
H110 H 0.50022 0.79714 0.02853 0.0
H111 H 0.49602 0.82079 0.9781 0.0
H112 H 0.5535 0.83919 0.91723 0.0
H113 H 0.55773 0.81567 0.96852 0.0
C114 C 0.53657 0.74452 0.02816 0.0
C115 C 0.55022 0.74672 0.99224 0.0
C116 C 0.55056 0.72974 0.97163 0.0
C117 C 0.53745 0.71035 0.98714 0.0
C118 C 0.52378 0.70809 0.02292 0.0
C119 C 0.5231 0.725 0.04263 0.0
C120 C 0.53632 0.76262 0.05012 0.0
C121 C 0.53438 0.77569 0.01832 0.0
C122 C 0.53722 0.76661 0.10203 0.0
C123 C 0.5395 0.75344 0.13714 0.0
C124 C 0.55602 0.75033 0.13583 0.0
C125 C 0.55679 0.73588 0.16447 0.0
C126 C 0.54103 0.72429 0.19474 0.0
C127 C 0.52495 0.72807 0.19755 0.0
C128 C 0.52426 0.74263 0.16922 0.0
C129 C 0.53284 0.81404 0.11003 0.0
C130 C 0.51717 0.81127 0.13986 0.0
C131 C 0.51515 0.82786 0.1558 0.0
C132 C 0.52882 0.84749 0.14228 0.0
C133 C 0.54481 0.85025 0.11347 0.0
C134 C 0.54685 0.83368 0.09771 0.0
C135 C 0.53378 0.79626 0.08891 0.0
C136 C 0.53578 0.78329 0.12081 0.0
C137 C 0.53281 0.79226 0.03715 0.0
C138 C 0.52933 0.8048 0.00239 0.0
C139 C 0.51181 0.80614 0.00394 0.0
C140 C 0.50941 0.81959 0.97501 0.0
C141 C 0.5245 0.83193 0.94398 0.0
C142 C 0.54175 0.83006 0.94132 0.0
C143 C 0.5441 0.81651 0.97014 0.0
H144 H 0.76973 0.49765 0.14565 0.0
H145 H 0.79242 0.49453 0.20455 0.0
H146 H 0.84079 0.55259 0.16678 0.0
H147 H 0.81779 0.55587 0.10872 0.0
H148 H 0.76011 0.5263 0.15861 0.0
H149 H 0.78638 0.50358 0.02927 0.0
H150 H 0.80959 0.50107 0.97326 0.0
H151 H 0.82993 0.56233 0.93305 0.0
H152 H 0.80686 0.56486 0.9897 0.0
H153 H 0.75618 0.57043 0.99231 0.0
H154 H 0.73227 0.57275 0.93538 0.0
H155 H 0.6852 0.51508 0.97889 0.0
H156 H 0.70914 0.51265 0.03504 0.0
H157 H 0.76694 0.5429 0.98297 0.0
H158 H 0.73547 0.56198 0.11257 0.0
H159 H 0.71026 0.56047 0.16842 0.0
H160 H 0.69668 0.50039 0.20465 0.0
H161 H 0.72174 0.50194 0.14897 0.0
C162 C 0.79208 0.52699 0.12288 0.0
C163 C 0.78532 0.50955 0.14944 0.0
C164 C 0.79832 0.50774 0.18294 0.0
C165 C 0.81835 0.5234 0.19063 0.0
C166 C 0.82536 0.54042 0.16214 0.0
C167 C 0.81231 0.5422 0.12852 0.0
C168 C 0.77742 0.5304 0.09461 0.0
C169 C 0.76139 0.52964 0.1199 0.0
C170 C 0.77955 0.53532 0.04463 0.0
C171 C 0.79497 0.53448 0.01412 0.0
C172 C 0.79608 0.51661 0.00909 0.0
C173 C 0.80919 0.5151 0.97657 0.0
C174 C 0.82153 0.53146 0.94841 0.0
C175 C 0.82074 0.54951 0.9544 0.0
C176 C 0.80751 0.55095 0.98666 0.0
C177 C 0.73443 0.54145 0.01827 0.0
C178 C 0.74064 0.55843 0.99007 0.0
C179 C 0.72702 0.55971 0.95746 0.0
C180 C 0.70692 0.54407 0.95266 0.0
C181 C 0.70055 0.52748 0.98233 0.0
C182 C 0.71421 0.52612 0.0146 0.0
C183 C 0.74947 0.53871 0.04691 0.0
C184 C 0.76568 0.53969 0.02175 0.0
C185 C 0.74721 0.53349 0.09678 0.0
C186 C 0.73056 0.53208 0.12646 0.0
C187 C 0.72682 0.54835 0.13186 0.0
C188 C 0.71241 0.54748 0.1639 0.0
C189 C 0.70161 0.53039 0.19147 0.0
C190 C 0.705 0.51393 0.18478 0.0
C191 C 0.71928 0.51477 0.15272 0.0
H192 H 0.24337 0.81658 0.99966 0.0
H193 H 0.268 0.83794 0.94266 0.0
H194 H 0.3129 0.82878 0.01766 0.0
H195 H 0.28783 0.8066 0.0733 0.0
H196 H 0.23034 0.77694 0.00632 0.0
H197 H 0.26718 0.83813 0.12341 0.0
H198 H 0.29535 0.86343 0.17796 0.0
H199 H 0.29874 0.81512 0.2478 0.0
H200 H 0.27141 0.79022 0.19216 0.0
H201 H 0.21901 0.74373 0.19845 0.0
H202 H 0.19129 0.71716 0.24055 0.0
H203 H 0.14926 0.72742 0.15522 0.0
H204 H 0.17707 0.75443 0.11472 0.0
H205 H 0.23417 0.78347 0.18983 0.0
H206 H 0.20892 0.72545 0.08245 0.0
H207 H 0.18195 0.69388 0.04233 0.0
H208 H 0.16082 0.72802 0.9615 0.0
H209 H 0.18813 0.75968 0.00155 0.0
C210 C 0.26375 0.81011 0.0411 0.0
C211 C 0.25857 0.81931 0.00412 0.0
C212 C 0.27274 0.83165 0.97169 0.0
C213 C 0.29248 0.83512 0.97545 0.0
C214 C 0.29778 0.82625 0.01328 0.0
C215 C 0.28353 0.81379 0.04564 0.0
C216 C 0.2479 0.79527 0.07143 0.0
C217 C 0.23111 0.7787 0.04642 0.0
C218 C 0.24936 0.7966 0.1239 0.0
C219 C 0.26728 0.81231 0.15355 0.0
C220 C 0.27429 0.83308 0.14987 0.0
C221 C 0.29022 0.84749 0.18146 0.0
C222 C 0.2993 0.84131 0.21734 0.0
C223 C 0.29236 0.82048 0.22019 0.0
C224 C 0.2766 0.80618 0.18861 0.0
C225 C 0.20009 0.75094 0.1532 0.0
C226 C 0.20385 0.74046 0.18943 0.0
C227 C 0.18797 0.72511 0.21299 0.0
C228 C 0.16804 0.72003 0.20086 0.0
C229 C 0.16441 0.73103 0.16567 0.0
C230 C 0.18029 0.74639 0.14225 0.0
C231 C 0.21667 0.76579 0.12459 0.0
C232 C 0.23345 0.78208 0.14969 0.0
C233 C 0.21593 0.76364 0.07245 0.0
C234 C 0.20037 0.74483 0.04517 0.0
C235 C 0.19849 0.72611 0.05597 0.0
C236 C 0.183 0.70809 0.03331 0.0
C237 C 0.16913 0.70844 0.99916 0.0
C238 C 0.17136 0.72728 0.98743 0.0
C239 C 0.18692 0.74536 0.01018 0.0
H240 H 0.48306 0.21556 0.05759 0.0
H241 H 0.48178 0.18466 0.02322 0.0
H242 H 0.43299 0.14888 0.11541 0.0
H243 H 0.43446 0.1799 0.14983 0.0
H244 H 0.45639 0.22916 0.06033 0.0
H245 H 0.49425 0.21417 0.17462 0.0
H246 H 0.4996 0.19072 0.22279 0.0
H247 H 0.44935 0.18018 0.30951 0.0
H248 H 0.44408 0.20375 0.261 0.0
H249 H 0.4395 0.25782 0.24045 0.0
H250 H 0.44088 0.28887 0.27437 0.0
H251 H 0.49254 0.32463 0.19019 0.0
H252 H 0.49141 0.29353 0.15766 0.0
H253 H 0.46797 0.24439 0.24237 0.0
H254 H 0.43299 0.2635 0.1219 0.0
H255 H 0.43336 0.29034 0.07472 0.0
H256 H 0.48386 0.29532 0.99718 0.0
H257 H 0.48386 0.26903 0.04586 0.0
C258 C 0.45896 0.20002 0.10644 0.0
C259 C 0.47195 0.20104 0.06993 0.0
C260 C 0.47119 0.18336 0.05037 0.0
C261 C 0.45734 0.16433 0.06681 0.0
C262 C 0.44404 0.16334 0.10262 0.0
C263 C 0.44479 0.18102 0.1221 0.0
C264 C 0.46087 0.2189 0.12992 0.0
C265 C 0.45902 0.23253 0.10006 0.0
C266 C 0.46443 0.22336 0.1817 0.0
C267 C 0.46861 0.21048 0.21386 0.0
C268 C 0.4844 0.20683 0.20407 0.0
C269 C 0.48739 0.19336 0.23147 0.0
C270 C 0.47477 0.18344 0.26961 0.0
C271 C 0.4594 0.18769 0.28054 0.0
C272 C 0.45636 0.20113 0.25291 0.0
C273 C 0.46524 0.27341 0.19632 0.0
C274 C 0.45125 0.27238 0.22986 0.0
C275 C 0.45193 0.29011 0.24868 0.0
C276 C 0.46667 0.30919 0.23444 0.0
C277 C 0.48105 0.31018 0.20199 0.0
C278 C 0.48037 0.29244 0.18324 0.0
C279 C 0.46328 0.25453 0.17282 0.0
C280 C 0.46514 0.2409 0.20271 0.0
C281 C 0.46019 0.25031 0.1209 0.0
C282 C 0.45858 0.26449 0.08783 0.0
C283 C 0.44406 0.27032 0.09453 0.0
C284 C 0.44422 0.28557 0.06733 0.0
C285 C 0.4588 0.29513 0.0326 0.0
C286 C 0.4727 0.28855 0.02437 0.0
C287 C 0.47257 0.27336 0.0517 0.0
C288 C 0.984 0.45669 0.74364 0.0
C289 C 0.04197 0.49262 0.68202 0.0
C290 C 0.02298 0.55147 0.68126 0.0
Mg291 Mg 0.99885 0.46724 0.63782 0.0
O292 O 0.99398 0.48859 0.65389 0.0
Mg293 Mg 0.00792 0.50605 0.71597 0.0
Mg294 Mg 0.00111 0.51034 0.60722 0.0
O295 O 0.00816 0.53222 0.56098 0.0
Mg296 Mg 0.00262 0.55311 0.57806 0.0
Mg297 Mg 0.99435 0.51487 0.49892 0.0
C298 C 0.9799 0.46941 0.53312 0.0
C299 C 0.03241 0.50926 0.52831 0.0
O300 O 0.9922 0.47581 0.75609 0.0
O301 O 0.98429 0.44993 0.6996 0.0
O302 O 0.0358 0.50273 0.70767 0.0
O303 O 0.03044 0.47854 0.64984 0.0
O304 O 0.98541 0.45992 0.56216 0.0
O305 O 0.98182 0.48679 0.54591 0.0
C306 C 0.97031 0.51241 0.68617 0.0
O307 O 0.97454 0.51306 0.64034 0.0
O308 O 0.98063 0.5097 0.7197 0.0
O309 O 0.00957 0.5453 0.45929 0.0
O310 O 0.01676 0.57074 0.51645 0.0
O311 O 0.96619 0.51735 0.50843 0.0
C312 C 0.01736 0.56433 0.47227 0.0
O313 O 0.9707 0.54104 0.56701 0.0
O314 O 0.01713 0.56088 0.65279 0.0
C315 C 0.95951 0.52685 0.53463 0.0
O316 O 0.02055 0.5339 0.66836 0.0
O317 O 0.02765 0.5076 0.57383 0.0
O318 O 0.02221 0.51221 0.49492 0.0
C319 C 0.47546 0.01972 0.77898 0.0
C320 C 0.44542 0.96802 0.6769 0.0
C321 C 0.51865 0.97928 0.64369 0.0
Mg322 Mg 0.46743 0.01384 0.66479 0.0
O323 O 0.49251 0.01539 0.67008 0.0
Mg324 Mg 0.49495 0.99571 0.71275 0.0
Mg325 Mg 0.50323 0.01015 0.60852 0.0
O326 O 0.51378 0.00483 0.54691 0.0
Mg327 Mg 0.53858 0.00578 0.55124 0.0
Mg328 Mg 0.51129 0.02437 0.50388 0.0
C329 C 0.4874 0.04045 0.57227 0.0
C330 C 0.46652 0.9883 0.52439 0.0
O331 O 0.48523 0.01006 0.77666 0.0
O332 O 0.46784 0.02334 0.74081 0.0
O333 O 0.4618 0.9709 0.69784 0.0
O334 O 0.44437 0.98232 0.65661 0.0
O335 O 0.47351 0.03375 0.60346 0.0
O336 O 0.50124 0.03564 0.57256 0.0
C337 C 0.53974 0.03223 0.69332 0.0
O338 O 0.53453 0.03154 0.64746 0.0
O339 O 0.52739 0.02047 0.72365 0.0
O340 O 0.52038 0.00938 0.43976 0.0
O341 O 0.53743 0.99581 0.47542 0.0
O342 O 0.54461 0.0489 0.51805 0.0
C343 C 0.52974 -0.00071 0.4371 0.0
O344 O 0.56191 0.03714 0.55861 0.0
O345 O 0.53237 0.98568 0.61208 0.0
C346 C 0.56098 0.05155 0.53854 0.0
O347 O 0.50527 0.98472 0.64421 0.0
O348 O 0.47196 0.98869 0.56986 0.0
O349 O 0.47867 6e-05 0.49375 0.0
C350 C 0.53121 0.5642 0.47446 0.0
C351 C 0.55414 0.5252 0.51317 0.0
C352 C 0.47709 0.46901 0.53441 0.0
Mg353 Mg 0.54081 0.55122 0.57417 0.0
O354 O 0.51362 0.53148 0.56281 0.0
Mg355 Mg 0.50583 0.51456 0.4986 0.0
Mg356 Mg 0.5013 0.50947 0.60948 0.0
O357 O 0.48905 0.48747 0.65614 0.0
Mg358 Mg 0.46205 0.46725 0.64491 0.0
Mg359 Mg 0.49668 0.50441 0.72019 0.0
C360 C 0.5257 0.54972 0.68451 0.0
C361 C 0.53721 0.509 0.67408 0.0
O362 O 0.51877 0.54543 0.46135 0.0
O363 O 0.54091 0.56991 0.51676 0.0
O364 O 0.53644 0.51607 0.49254 0.0
O365 O 0.55902 0.53857 0.54899 0.0
O366 O 0.53921 0.55856 0.65306 0.0
O367 O 0.50944 0.53284 0.67361 0.0
C368 C 0.46544 0.51013 0.54524 0.0
O369 O 0.47126 0.50788 0.58814 0.0
O370 O 0.47603 0.51312 0.50754 0.0
O371 O 0.48384 0.47364 0.75801 0.0
O372 O 0.46251 0.44882 0.70224 0.0
O373 O 0.4659 0.50268 0.72532 0.0
C374 C 0.47191 0.45476 0.74489 0.0
O375 O 0.44337 0.47937 0.66996 0.0
O376 O 0.46376 0.45998 0.56616 0.0
C377 C 0.44816 0.49307 0.70494 0.0
O378 O 0.49312 0.48612 0.54519 0.0
O379 O 0.53131 0.51108 0.63108 0.0
O380 O 0.52664 0.50603 0.71181 0.0
H381 H 0.17988 0.51643 0.31 0.0
H382 H 0.15635 0.51868 0.36489 0.0
H383 H 0.1166 0.45407 0.34186 0.0
H384 H 0.13956 0.45182 0.28469 0.0
H385 H 0.09642 0.47341 0.33331 0.0
H386 H 0.14479 0.50412 0.50543 0.0
H387 H 0.1562 0.51973 0.45509 0.0
H388 H 0.1516 0.49405 0.45247 0.0
C389 C 0.16608 0.50268 0.31621 0.0
C390 C 0.16167 0.48393 0.2926 0.0
C391 C 0.15278 0.50394 0.34847 0.0
C392 C 0.13487 0.48648 0.35857 0.0
C393 C 0.13043 0.46774 0.33519 0.0
H394 H 0.05005 0.48899 0.57029 0.0
H395 H 0.07525 0.48218 0.53378 0.0
C396 C 0.14366 0.46646 0.30264 0.0
C397 C 0.12013 0.48803 0.39044 0.0
H398 H 0.11542 0.50792 0.50181 0.0
C399 C 0.10055 0.48071 0.3704 0.0
C400 C 0.1253 0.49721 0.4393 0.0
C401 C 0.14556 0.50402 0.46452 0.0
C402 C 0.08638 0.4832 0.39672 0.0
C403 C 0.09201 0.49373 0.44401 0.0
C404 C 0.11122 0.50013 0.46526 0.0
C405 C 0.07851 0.4994 0.46976 0.0
C406 C 0.06551 0.47475 0.37328 0.0
C407 C 0.0727 0.51202 0.44711 0.0
C408 C 0.05841 0.51586 0.46771 0.0
C409 C 0.04968 0.50734 0.51187 0.0
C410 C 0.05646 0.49576 0.53637 0.0
C411 C 0.07079 0.4918 0.51541 0.0
H412 H 0.06182 0.46215 0.34513 0.0
H413 H 0.05407 0.46911 0.40153 0.0
H414 H 0.06455 0.48692 0.35441 0.0
H415 H 0.07882 0.51847 0.41255 0.0
H416 H 0.05383 0.52514 0.4482 0.0
H417 H 0.72152 0.18652 0.34242 0.0
H418 H 0.6987 0.16674 0.40516 0.0
H419 H 0.65156 0.13389 0.29156 0.0
H420 H 0.67438 0.15335 0.22844 0.0
H421 H 0.66058 0.16286 0.42714 0.0
H422 H 0.65468 0.08923 0.3676 0.0
H423 H 0.6744 0.11323 0.34893 0.0
H424 H 0.64979 0.10164 0.31864 0.0
C425 C 0.70635 0.17492 0.33072 0.0
C426 C 0.6998 0.17137 0.28038 0.0
C427 C 0.69331 0.16376 0.36666 0.0
C428 C 0.67354 0.14873 0.35292 0.0
C429 C 0.66686 0.14527 0.30282 0.0
H430 H 0.56499 0.08535 0.49673 0.0
H431 H 0.59502 0.11163 0.4618 0.0
C432 C 0.67986 0.15649 0.26687 0.0
C433 C 0.6598 0.13667 0.39089 0.0
H434 H 0.63108 0.08814 0.42418 0.0
C435 C 0.65426 0.14655 0.42691 0.0
C436 C 0.65189 0.11547 0.39103 0.0
C437 C 0.6581 0.10424 0.3548 0.0
C438 C 0.64026 0.13559 0.46172 0.0
C439 C 0.63152 0.11423 0.46008 0.0
C440 C 0.63776 0.10452 0.42541 0.0
C441 C 0.61465 0.10132 0.49074 0.0
C442 C 0.63484 0.14693 0.49963 0.0
C443 C 0.61579 0.08711 0.52003 0.0
C444 C 0.59855 0.07193 0.54002 0.0
C445 C 0.57982 0.07054 0.53039 0.0
C446 C 0.57912 0.08586 0.50466 0.0
C447 C 0.59634 0.10103 0.48481 0.0
H448 H 0.64708 0.16293 0.50647 0.0
H449 H 0.62125 0.14712 0.48564 0.0
H450 H 0.63156 0.13952 0.53526 0.0
H451 H 0.62979 0.08708 0.52509 0.0
H452 H 0.5997 0.06047 0.55987 0.0
H453 H 0.57175 0.72545 0.25071 0.0
H454 H 0.57129 0.69771 0.29476 0.0
H455 H 0.5097 0.65808 0.24304 0.0
H456 H 0.51004 0.68565 0.19891 0.0
H457 H 0.53966 0.67375 0.36921 0.0
H458 H 0.54295 0.62797 0.20722 0.0
H459 H 0.5524 0.65497 0.20643 0.0
H460 H 0.52589 0.63766 0.20195 0.0
C461 C 0.55817 0.71078 0.24855 0.0
C462 C 0.5409 0.7077 0.22162 0.0
C463 C 0.55792 0.69502 0.27372 0.0
C464 C 0.54051 0.67589 0.27165 0.0
C465 C 0.52331 0.67272 0.24463 0.0
H466 H 0.50674 0.56073 0.39475 0.0
H467 H 0.50956 0.58796 0.3447 0.0
C468 C 0.52348 0.68851 0.21987 0.0
C469 C 0.54003 0.6594 0.29934 0.0
H470 H 0.53825 0.61373 0.28487 0.0
C471 C 0.53947 0.66066 0.35096 0.0
C472 C 0.53955 0.64233 0.27508 0.0
C473 C 0.54033 0.64055 0.21961 0.0
C474 C 0.53811 0.64505 0.37915 0.0
C475 C 0.53793 0.62804 0.35502 0.0
C476 C 0.53849 0.62681 0.30327 0.0
C477 C 0.537 0.61132 0.38301 0.0
C478 C 0.53629 0.64668 0.43431 0.0
C479 C 0.55182 0.61531 0.42004 0.0
C480 C 0.55016 0.59987 0.44894 0.0
C481 C 0.5338 0.58003 0.44081 0.0
C482 C 0.5195 0.57584 0.402 0.0
C483 C 0.52108 0.59138 0.3734 0.0
H484 H 0.53089 0.65738 0.4446 0.0
H485 H 0.52586 0.63165 0.4481 0.0
H486 H 0.55125 0.65248 0.45342 0.0
H487 H 0.56453 0.63047 0.42711 0.0
H488 H 0.56159 0.60356 0.47805 0.0
H489 H 0.84398 0.554 0.25748 0.0
H490 H 0.86451 0.55221 0.32547 0.0
H491 H 0.84189 0.48887 0.2839 0.0
H492 H 0.82178 0.49066 0.21489 0.0
H493 H 0.85193 0.52622 0.4064 0.0
H494 H 0.90335 0.51445 0.28667 0.0
H495 H 0.88715 0.52345 0.26368 0.0
H496 H 0.87715 0.49697 0.27286 0.0
C497 C 0.84363 0.53978 0.2623 0.0
C498 C 0.83141 0.52251 0.23052 0.0
C499 C 0.85516 0.53873 0.3015 0.0
C500 C 0.85476 0.52045 0.30942 0.0
C501 C 0.84252 0.50317 0.27802 0.0
H502 H 0.92789 0.49154 0.49573 0.0
H503 H 0.89847 0.48799 0.44986 0.0
C504 C 0.83099 0.50419 0.23881 0.0
C505 C 0.86745 0.51957 0.35 0.0
H506 H 0.90697 0.51206 0.37229 0.0
C507 C 0.86396 0.52308 0.39914 0.0
C508 C 0.88312 0.51555 0.34017 0.0
C509 C 0.8881 0.51256 0.28802 0.0
C510 C 0.87568 0.52244 0.43894 0.0
C511 C 0.89136 0.51842 0.42901 0.0
C512 C 0.89475 0.51488 0.37983 0.0
C513 C 0.90533 0.51883 0.46821 0.0
C514 C 0.8711 0.52587 0.4911 0.0
C515 C 0.91827 0.53699 0.49615 0.0
C516 C 0.93501 0.53898 0.52295 0.0
C517 C 0.93917 0.52295 0.5212 0.0
C518 C 0.92512 0.50419 0.49725 0.0
C519 C 0.90832 0.50214 0.47105 0.0
H520 H 0.85546 0.52286 0.49309 0.0
H521 H 0.87338 0.51605 0.51654 0.0
H522 H 0.88137 0.54193 0.50426 0.0
H523 H 0.91642 0.55015 0.49389 0.0
H524 H 0.94565 0.55363 0.54092 0.0
H525 H 0.33298 0.84091 0.25057 0.0
H526 H 0.35868 0.86425 0.31244 0.0
H527 H 0.32897 0.89956 0.32444 0.0
H528 H 0.30253 0.87562 0.26434 0.0
H529 H 0.38433 0.90341 0.30736 0.0
H530 H 0.33814 0.89321 0.46869 0.0
H531 H 0.32883 0.87621 0.41363 0.0
H532 H 0.3293 0.90012 0.41506 0.0
C533 C 0.33169 0.85345 0.2669 0.0
C534 C 0.31558 0.85629 0.25275 0.0
C535 C 0.34646 0.86683 0.30213 0.0
C536 C 0.34552 0.8834 0.32387 0.0
C537 C 0.32971 0.88657 0.30915 0.0
H538 H 0.44597 0.99278 0.44816 0.0
H539 H 0.41496 0.96666 0.40512 0.0
C540 C 0.3148 0.87307 0.2741 0.0
C541 C 0.36182 0.89799 0.35954 0.0
H542 H 0.37166 0.92154 0.47563 0.0
C543 C 0.38153 0.90722 0.34427 0.0
C544 C 0.3582 0.90275 0.408 0.0
C545 C 0.3375 0.8924 0.42757 0.0
C546 C 0.39767 0.92146 0.3755 0.0
C547 C 0.39396 0.92701 0.42291 0.0
C548 C 0.37436 0.91739 0.43899 0.0
C549 C 0.41036 0.94344 0.45484 0.0
C550 C 0.41861 0.9305 0.35737 0.0
C551 C 0.41731 0.93931 0.49888 0.0
C552 C 0.43504 0.95437 0.52405 0.0
C553 C 0.44598 0.97356 0.50499 0.0
C554 C 0.43805 0.97799 0.46311 0.0
C555 C 0.42035 0.96311 0.43848 0.0
H556 H 0.41946 0.92084 0.32658 0.0
H557 H 0.4231 0.94559 0.34345 0.0
H558 H 0.42958 0.93258 0.38775 0.0
H559 H 0.40965 0.92421 0.5122 0.0
H560 H 0.44078 0.95062 0.55645 0.0
H561 H 0.4993 0.34549 0.26733 0.0
H562 H 0.49944 0.37564 0.30361 0.0
H563 H 0.43508 0.34544 0.28108 0.0
H564 H 0.43478 0.31532 0.24422 0.0
H565 H 0.48204 0.40045 0.2663 0.0
H566 H 0.44823 0.3593 0.43399 0.0
H567 H 0.45995 0.35062 0.38987 0.0
H568 H 0.43537 0.34684 0.37559 0.0
C569 C 0.48521 0.34539 0.26934 0.0
C570 C 0.467 0.32794 0.2535 0.0
C571 C 0.48533 0.3626 0.29003 0.0
C572 C 0.46726 0.36262 0.29528 0.0
C573 C 0.44915 0.34558 0.27773 0.0
H574 H 0.44223 0.4402 0.48641 0.0
H575 H 0.43875 0.41647 0.41798 0.0
C576 C 0.449 0.32836 0.25706 0.0
C577 C 0.46721 0.3798 0.32277 0.0
H578 H 0.45419 0.3926 0.43211 0.0
C579 C 0.47587 0.3988 0.30245 0.0
C580 C 0.45916 0.37749 0.36983 0.0
C581 C 0.45027 0.35754 0.39398 0.0
C582 C 0.4766 0.41564 0.32815 0.0
C583 C 0.4688 0.41339 0.37563 0.0
C584 C 0.45997 0.39428 0.39549 0.0
C585 C 0.47058 0.43065 0.40736 0.0
C586 C 0.48553 0.43558 0.30411 0.0
C587 C 0.48956 0.4471 0.42252 0.0
C588 C 0.49156 0.46087 0.46125 0.0
C589 C 0.47464 0.4581 0.48603 0.0
C590 C 0.45554 0.44257 0.46828 0.0
C591 C 0.45353 0.42902 0.42917 0.0
H592 H 0.48458 0.43327 0.26312 0.0
H593 H 0.47789 0.44421 0.31461 0.0
H594 H 0.50163 0.44489 0.31638 0.0
H595 H 0.50297 0.44846 0.407 0.0
H596 H 0.50647 0.47263 0.47432 0.0
H597 H 0.55295 0.87135 0.93353 0.0
H598 H 0.54957 0.89642 0.88691 0.0
H599 H 0.48806 0.85205 0.84475 0.0
H600 H 0.49142 0.82675 0.89061 0.0
H601 H 0.51132 0.8731 0.76562 0.0
H602 H 0.51806 0.92583 0.92297 0.0
H603 H 0.53766 0.9195 0.92283 0.0
H604 H 0.51229 0.90005 0.9308 0.0
C605 C 0.53874 0.86691 0.91412 0.0
C606 C 0.52246 0.84709 0.91561 0.0
C607 C 0.53676 0.88131 0.88806 0.0
C608 C 0.51847 0.87615 0.86312 0.0
C609 C 0.50223 0.85635 0.86423 0.0
H610 H 0.49044 0.95917 0.71133 0.0
H611 H 0.48928 0.93403 0.76665 0.0
C612 C 0.50416 0.84196 0.89049 0.0
C613 C 0.51665 0.89114 0.83378 0.0
H614 H 0.52058 0.93793 0.84212 0.0
C615 C 0.51316 0.88719 0.78235 0.0
C616 C 0.51885 0.90939 0.85588 0.0
C617 C 0.52174 0.91393 0.91121 0.0
C618 C 0.51253 0.90137 0.75215 0.0
C619 C 0.51562 0.92 0.774 0.0
C620 C 0.51838 0.92367 0.82558 0.0
C621 C 0.51688 0.93612 0.74336 0.0
C622 C 0.50874 0.89643 0.69698 0.0
C623 C 0.53303 0.94589 0.71306 0.0
C624 C 0.53382 0.96029 0.68172 0.0
C625 C 0.51844 0.96522 0.68008 0.0
C626 C 0.50256 0.95582 0.71174 0.0
C627 C 0.50184 0.94142 0.74329 0.0
H628 H 0.50219 0.87992 0.68732 0.0
H629 H 0.49846 0.90142 0.68178 0.0
H630 H 0.52316 0.90462 0.67877 0.0
H631 H 0.54491 0.94215 0.71317 0.0
H632 H 0.54635 0.96729 0.65818 0.0
H633 H 0.66837 0.53544 0.96334 0.0
H634 H 0.64422 0.53271 0.89844 0.0
H635 H 0.68951 0.55033 0.79139 0.0
H636 H 0.71376 0.55294 0.85607 0.0
H637 H 0.64875 0.56439 0.82728 0.0
H638 H 0.64005 0.49223 0.74138 0.0
H639 H 0.64953 0.50078 0.80472 0.0
H640 H 0.6649 0.51353 0.75504 0.0
C641 C 0.67319 0.53883 0.92604 0.0
C642 C 0.69288 0.54432 0.91466 0.0
C643 C 0.65946 0.53736 0.88915 0.0
C644 C 0.66514 0.54119 0.84029 0.0
C645 C 0.68491 0.54725 0.82895 0.0
H646 H 0.57198 0.53567 0.63319 0.0
H647 H 0.60607 0.5442 0.66067 0.0
C648 C 0.69872 0.54885 0.86594 0.0
C649 C 0.64991 0.53789 0.80125 0.0
H650 H 0.61748 0.50238 0.71309 0.0
C651 C 0.64216 0.55111 0.80142 0.0
C652 C 0.64145 0.5205 0.76791 0.0
C653 C 0.64927 0.50582 0.76698 0.0
C654 C 0.62539 0.54682 0.77069 0.0
C655 C 0.61629 0.52889 0.73904 0.0
C656 C 0.62468 0.5162 0.73711 0.0
C657 C 0.59629 0.52146 0.71457 0.0
C658 C 0.61668 0.56073 0.77467 0.0
C659 C 0.57967 0.5053 0.73423 0.0
C660 C 0.56031 0.50039 0.71846 0.0
C661 C 0.55728 0.51142 0.68239 0.0
C662 C 0.57391 0.52666 0.66017 0.0
C663 C 0.59336 0.53169 0.67624 0.0
H664 H 0.62453 0.57304 0.80437 0.0
H665 H 0.61787 0.56779 0.73902 0.0
H666 H 0.60052 0.55195 0.78224 0.0
H667 H 0.58168 0.49728 0.76392 0.0
H668 H 0.54772 0.48856 0.73613 0.0
H669 H 0.15514 0.70039 0.90243 0.0
H670 H 0.1281 0.66852 0.86347 0.0
H671 H 0.1191 0.64084 0.003 0.0
H672 H 0.14571 0.67294 0.0428 0.0
H673 H 0.12647 0.63064 0.8588 0.0
H674 H 0.0624 0.62814 0.95577 0.0
H675 H 0.08646 0.65103 0.95556 0.0
H676 H 0.08331 0.63112 0.99386 0.0
C677 C 0.14722 0.68763 0.92502 0.0
C678 C 0.15252 0.68919 0.97569 0.0
C679 C 0.13189 0.6694 0.90265 0.0
C680 C 0.12156 0.65242 0.93049 0.0
C681 C 0.12676 0.65386 0.98106 0.0
H682 H 0.0432 0.5402 0.74616 0.0
H683 H 0.06541 0.56071 0.81747 0.0
C684 C 0.14209 0.67214 0.00356 0.0
C685 C 0.1056 0.6332 0.90568 0.0
H686 H 0.05481 0.60227 0.89408 0.0
C687 C 0.1108 0.6242 0.86689 0.0
C688 C 0.08525 0.62492 0.91667 0.0
C689 C 0.07888 0.6343 0.9575 0.0
C690 C 0.0961 0.60777 0.8368 0.0
C691 C 0.07565 0.59993 0.84655 0.0
C692 C 0.07052 0.60825 0.88707 0.0
C693 C 0.05952 0.58553 0.81049 0.0
C694 C 0.10251 0.59988 0.79286 0.0
C695 C 0.048 0.59219 0.78497 0.0
C696 C 0.03521 0.58049 0.74469 0.0
C697 C 0.03371 0.56189 0.72903 0.0
C698 C 0.04412 0.55452 0.75698 0.0
C699 C 0.05691 0.56626 0.79758 0.0
H700 H 0.11864 0.60978 0.78625 0.0
H701 H 0.10001 0.58452 0.79949 0.0
H702 H 0.09351 0.59863 0.75881 0.0
H703 H 0.04974 0.60698 0.79451 0.0
H704 H 0.02721 0.58651 0.72448 0.0
H705 H 0.46048 0.15426 0.97081 0.0
H706 H 0.46076 0.12404 0.93791 0.0
H707 H 0.45288 0.10154 0.08376 0.0
H708 H 0.45334 0.13223 0.11747 0.0
H709 H 0.48208 0.09794 0.03565 0.0
H710 H 0.41326 0.06707 0.91379 0.0
H711 H 0.4304 0.09301 0.90258 0.0
H712 H 0.41967 0.08682 0.962 0.0
C713 C 0.45889 0.14295 0.99598 0.0
C714 C 0.45684 0.14562 0.04671 0.0
C715 C 0.4588 0.12556 0.97702 0.0
C716 C 0.45644 0.11038 0.00825 0.0
C717 C 0.4545 0.113 0.05899 0.0
H718 H 0.44262 0.00501 0.83308 0.0
H719 H 0.43711 0.02312 0.90266 0.0
C720 C 0.45463 0.13045 0.07807 0.0
C721 C 0.45679 0.09223 0.9876 0.0
H722 H 0.43681 0.05615 0.89186 0.0
C723 C 0.47195 0.0885 0.00482 0.0
C724 C 0.44323 0.07956 0.94838 0.0
C725 C 0.42559 0.08167 0.93101 0.0
C726 C 0.47483 0.07339 0.98129 0.0
C727 C 0.46253 0.06213 0.93879 0.0
C728 C 0.44645 0.06489 0.92404 0.0
C729 C 0.46717 0.04909 0.90572 0.0
C730 C 0.49124 0.06994 0.00177 0.0
C731 C 0.48608 0.05729 0.88549 0.0
C732 C 0.48931 0.04675 0.84663 0.0
C733 C 0.47359 0.02805 0.82695 0.0
C734 C 0.45499 0.01933 0.84844 0.0
C735 C 0.45185 0.0297 0.88791 0.0
H736 H 0.49335 0.07307 0.0426 0.0
H737 H 0.48794 0.05415 0.99287 0.0
H738 H 0.50559 0.08057 0.98575 0.0
H739 H 0.49795 0.07246 0.89728 0.0
H740 H 0.50362 0.05386 0.82964 0.0
H741 H 0.3399 0.51906 0.02154 0.0
H742 H 0.36396 0.52096 0.96152 0.0
H743 H 0.32145 0.46067 0.90083 0.0
H744 H 0.29721 0.4587 0.96046 0.0
H745 H 0.37922 0.49276 0.94718 0.0
H746 H 0.33864 0.49683 0.77904 0.0
H747 H 0.3338 0.50272 0.84074 0.0
H748 H 0.3242 0.47679 0.81865 0.0
C749 C 0.33563 0.50623 0.99529 0.0
C750 C 0.31661 0.48874 0.99572 0.0
C751 C 0.34941 0.50733 0.96111 0.0
C752 C 0.34438 0.49108 0.92627 0.0
C753 C 0.32552 0.4735 0.92694 0.0
H754 H 0.40735 0.4682 0.69282 0.0
H755 H 0.38203 0.46872 0.7447 0.0
C756 C 0.31178 0.47231 0.96139 0.0
C757 C 0.35908 0.49239 0.89007 0.0
H758 H 0.36778 0.49452 0.76676 0.0
C759 C 0.37679 0.49323 0.90775 0.0
C760 C 0.35577 0.49285 0.83864 0.0
C761 C 0.33716 0.4924 0.81789 0.0
C762 C 0.39116 0.4942 0.87535 0.0
C763 C 0.38804 0.49499 0.82385 0.0
C764 C 0.37026 0.49407 0.80617 0.0
C765 C 0.40291 0.49628 0.78796 0.0
C766 C 0.40926 0.49373 0.89661 0.0
C767 C 0.42289 0.51217 0.79312 0.0
C768 C 0.43743 0.51185 0.76377 0.0
C769 C 0.43225 0.49577 0.72804 0.0
C770 C 0.41191 0.48079 0.72005 0.0
C771 C 0.3974 0.48102 0.74984 0.0
H772 H 0.4066 0.48738 0.9336 0.0
H773 H 0.41339 0.48453 0.87176 0.0
H774 H 0.42217 0.50943 0.90106 0.0
H775 H 0.4274 0.52447 0.82117 0.0
H776 H 0.4529 0.52379 0.77052 0.0
H777 H 0.8699 0.32804 0.05494 0.0
H778 H 0.89768 0.35637 0.01735 0.0
H779 H 0.86301 0.33929 0.87823 0.0
H780 H 0.83523 0.31075 0.9153 0.0
H781 H 0.91885 0.35515 0.93468 0.0
H782 H 0.88104 0.4 0.90387 0.0
H783 H 0.87191 0.37956 0.94497 0.0
H784 H 0.8669 0.37409 0.87923 0.0
C785 C 0.86824 0.3302 0.01622 0.0
C786 C 0.85035 0.31714 0.98807 0.0
C787 C 0.88407 0.34646 0.99493 0.0
C788 C 0.88227 0.35005 0.94527 0.0
C789 C 0.86452 0.33699 0.91693 0.0
H790 H 0.96751 0.41546 0.7341 0.0
H791 H 0.94487 0.39068 0.78914 0.0
C792 C 0.84868 0.32071 0.93816 0.0
C793 C 0.8991 0.36719 0.92267 0.0
H794 H 0.9114 0.41012 0.86321 0.0
C795 C 0.91732 0.36728 0.91944 0.0
C796 C 0.89713 0.38316 0.90361 0.0
C797 C 0.87826 0.38438 0.90843 0.0
C798 C 0.93339 0.38253 0.89575 0.0
C799 C 0.93104 0.39789 0.87438 0.0
C800 C 0.91311 0.39824 0.87939 0.0
C801 C 0.94647 0.41306 0.84407 0.0
C802 C 0.95271 0.382 0.8936 0.0
C803 C 0.9549 0.43389 0.85669 0.0
C804 C 0.96785 0.44818 0.82515 0.0
C805 C 0.9724 0.44183 0.78013 0.0
C806 C 0.96436 0.42092 0.76843 0.0
C807 C 0.95149 0.40669 0.80003 0.0
H808 H 0.95422 0.37324 0.9235 0.0
H809 H 0.95283 0.37452 0.8576 0.0
H810 H 0.96591 0.39757 0.89671 0.0
H811 H 0.95109 0.43908 0.89044 0.0
H812 H 0.9737 0.46414 0.83526 0.0
H813 H 0.8606 0.55912 0.93233 0.0
H814 H 0.88263 0.55538 0.87451 0.0
H815 H 0.83455 0.4958 0.82429 0.0
H816 H 0.81255 0.49935 0.88256 0.0
H817 H 0.86766 0.49476 0.84381 0.0
H818 H 0.88659 0.55903 0.72736 0.0
H819 H 0.89201 0.56728 0.79176 0.0
H820 H 0.86647 0.55035 0.76921 0.0
C821 C 0.85464 0.54534 0.90848 0.0
C822 C 0.83483 0.52951 0.91218 0.0
C823 C 0.86722 0.54326 0.87514 0.0
C824 C 0.86018 0.52546 0.84418 0.0
C825 C 0.84033 0.50973 0.84751 0.0
H826 H 0.93872 0.51072 0.63 0.0
H827 H 0.91006 0.51309 0.66123 0.0
C828 C 0.8278 0.51172 0.8811 0.0
C829 C 0.87397 0.52256 0.81149 0.0
H830 H 0.90897 0.54526 0.7256 0.0
C831 C 0.8764 0.50565 0.81738 0.0
C832 C 0.88522 0.53654 0.77624 0.0
C833 C 0.88228 0.55419 0.76535 0.0
C834 C 0.89051 0.50296 0.79124 0.0
C835 C 0.90281 0.51773 0.75892 0.0
C836 C 0.89965 0.53404 0.75074 0.0
C837 C 0.92043 0.51756 0.73827 0.0
C838 C 0.89249 0.48452 0.79948 0.0
C839 C 0.93593 0.5199 0.77096 0.0
C840 C 0.95212 0.51859 0.75346 0.0
C841 C 0.95338 0.515 0.70256 0.0
C842 C 0.9382 0.51345 0.66935 0.0
C843 C 0.92183 0.51476 0.68714 0.0
H844 H 0.87846 0.47196 0.81275 0.0
H845 H 0.89626 0.47901 0.76499 0.0
H846 H 0.9047 0.48859 0.82811 0.0
H847 H 0.93538 0.52249 0.81041 0.0
H848 H 0.96362 0.52023 0.78025 0.0
H849 H 0.29757 0.86975 0.93529 0.0
H850 H 0.32061 0.88891 0.87263 0.0
H851 H 0.34444 0.84819 0.87179 0.0
H852 H 0.32076 0.82832 0.93267 0.0
H853 H 0.36075 0.90919 0.8784 0.0
H854 H 0.33404 0.84931 0.72539 0.0
H855 H 0.31997 0.84667 0.77953 0.0
H856 H 0.34069 0.84197 0.7817 0.0
C857 C 0.30748 0.86464 0.92127 0.0
C858 C 0.30718 0.84738 0.93892 0.0
C859 C 0.32073 0.8757 0.88558 0.0
C860 C 0.33398 0.86976 0.86669 0.0
C861 C 0.334 0.85276 0.88481 0.0
H862 H 0.44168 0.93327 0.71251 0.0
H863 H 0.41243 0.90719 0.75117 0.0
C864 C 0.32067 0.84162 0.92033 0.0
C865 C 0.34847 0.88201 0.83001 0.0
H866 H 0.36533 0.87948 0.71569 0.0
C867 C 0.36158 0.90271 0.84266 0.0
C868 C 0.34956 0.87356 0.78325 0.0
C869 C 0.33518 0.8517 0.76638 0.0
C870 C 0.37602 0.91506 0.81044 0.0
C871 C 0.37735 0.90653 0.76425 0.0
C872 C 0.3642 0.88591 0.75119 0.0
C873 C 0.39303 0.91895 0.73052 0.0
C874 C 0.3901 0.93712 0.82631 0.0
C875 C 0.39139 0.93347 0.7038 0.0
C876 C 0.40805 0.94838 0.68136 0.0
C877 C 0.42667 0.9491 0.68593 0.0
C878 C 0.42763 0.93329 0.70863 0.0
C879 C 0.41094 0.91834 0.73077 0.0
H880 H 0.3884 0.94091 0.86532 0.0
H881 H 0.4059 0.94094 0.82213 0.0
H882 H 0.38708 0.94681 0.80214 0.0
H883 H 0.37762 0.9341 0.70316 0.0
H884 H 0.40672 0.96027 0.6641 0.0
H885 H 0.49246 0.33038 0.01344 0.0
H886 H 0.49454 0.35867 0.96948 0.0
H887 H 0.43006 0.32751 0.94908 0.0
H888 H 0.42782 0.29896 0.9925 0.0
H889 H 0.48013 0.3568 0.87176 0.0
H890 H 0.44485 0.38483 0.00673 0.0
H891 H 0.4542 0.36812 0.02281 0.0
H892 H 0.43045 0.35814 0.98896 0.0
C893 C 0.47871 0.32946 0.99932 0.0
C894 C 0.45997 0.31237 0.00628 0.0
C895 C 0.47993 0.34571 0.97457 0.0
C896 C 0.46246 0.34528 0.95666 0.0
C897 C 0.44371 0.3283 0.96356 0.0
H898 H 0.44927 0.41353 0.72861 0.0
H899 H 0.44716 0.38769 0.78213 0.0
C900 C 0.44246 0.312 0.98829 0.0
C901 C 0.46395 0.36217 0.92858 0.0
H902 H 0.45084 0.39898 0.92812 0.0
C903 C 0.47381 0.36608 0.88417 0.0
C904 C 0.45587 0.37437 0.94523 0.0
C905 C 0.4459 0.37134 0.99376 0.0
C906 C 0.47541 0.3816 0.85529 0.0
C907 C 0.46675 0.39335 0.87107 0.0
C908 C 0.45731 0.3898 0.91606 0.0
C909 C 0.46709 0.40912 0.84055 0.0
C910 C 0.4864 0.38537 0.80814 0.0
C911 C 0.47858 0.42972 0.85645 0.0
C912 C 0.47988 0.44464 0.8259 0.0
C913 C 0.46957 0.43913 0.77908 0.0
C914 C 0.45752 0.41838 0.76422 0.0
C915 C 0.45631 0.40355 0.79468 0.0
H916 H 0.49594 0.37819 0.80693 0.0
H917 H 0.47533 0.37887 0.77603 0.0
H918 H 0.496 0.4019 0.80405 0.0
H919 H 0.48694 0.43426 0.89194 0.0
H920 H 0.48922 0.46044 0.83862 0.0
H921 H 0.1613 0.45969 0.94273 0.0
H922 H 0.14162 0.46044 0.87123 0.0
H923 H 0.15531 0.52089 0.9206 0.0
H924 H 0.17517 0.52031 0.9919 0.0
H925 H 0.10878 0.46441 0.87022 0.0
H926 H 0.16873 0.52793 0.77676 0.0
H927 H 0.174 0.51558 0.82562 0.0
H928 H 0.1675 0.53485 0.84021 0.0
C929 C 0.16001 0.47309 0.93845 0.0
C930 C 0.16974 0.48995 0.97286 0.0
C931 C 0.14893 0.47357 0.89739 0.0
C932 C 0.14741 0.4909 0.88998 0.0
C933 C 0.15683 0.50762 0.92475 0.0
H934 H 0.07164 0.523 0.74229 0.0
H935 H 0.1001 0.52249 0.78245 0.0
C936 C 0.16801 0.50721 0.96565 0.0
C937 C 0.13487 0.49101 0.84778 0.0
H938 H 0.13476 0.51881 0.75227 0.0
C939 C 0.11453 0.47606 0.84381 0.0
C940 C 0.14246 0.5062 0.81329 0.0
C941 C 0.16442 0.52192 0.81381 0.0
C942 C 0.10131 0.47653 0.80804 0.0
C943 C 0.10873 0.49224 0.77498 0.0
C944 C 0.1292 0.50676 0.77763 0.0
C945 C 0.09488 0.49502 0.7418 0.0
C946 C 0.0793 0.46085 0.80764 0.0
C947 C 0.08332 0.4804 0.70355 0.0
C948 C 0.06696 0.48061 0.68045 0.0
C949 C 0.06196 0.4954 0.69563 0.0
C950 C 0.07489 0.5112 0.73031 0.0
C951 C 0.09122 0.511 0.75321 0.0
H952 H 0.07564 0.45156 0.84033 0.0
H953 H 0.07 0.46828 0.80694 0.0
H954 H 0.07507 0.45049 0.77382 0.0
H955 H 0.08615 0.46812 0.69386 0.0
H956 H 0.05744 0.46835 0.65345 0.0
H957 H 0.66748 0.16149 0.98564 0.0
H958 H 0.64362 0.13784 0.92056 0.0
H959 H 0.69087 0.13121 0.8558 0.0
H960 H 0.71471 0.15452 0.92178 0.0
H961 H 0.64372 0.14114 0.82114 0.0
H962 H 0.64815 0.07274 0.86584 0.0
H963 H 0.65874 0.0953 0.90711 0.0
H964 H 0.67149 0.09457 0.85309 0.0
C965 C 0.67271 0.15486 0.95769 0.0
C966 C 0.69286 0.15968 0.95886 0.0
C967 C 0.65912 0.14142 0.92048 0.0
C968 C 0.66543 0.13264 0.88352 0.0
C969 C 0.68558 0.13747 0.88448 0.0
H970 H 0.57102 0.06201 0.64509 0.0
H971 H 0.60462 0.08669 0.68088 0.0
C972 C 0.69916 0.15076 0.92215 0.0
C973 C 0.65068 0.11853 0.84422 0.0
H974 H 0.62564 0.06886 0.80055 0.0
C975 C 0.63988 0.12537 0.81612 0.0
C976 C 0.64585 0.09801 0.83764 0.0
C977 C 0.65652 0.0896 0.8677 0.0
C978 C 0.62355 0.112 0.78389 0.0
C979 C 0.61822 0.09131 0.7788 0.0
C980 C 0.62985 0.08476 0.80445 0.0
C981 C 0.5988 0.07568 0.75441 0.0
C982 C 0.61135 0.11984 0.75823 0.0
C983 C 0.58469 0.06097 0.78333 0.0
C984 C 0.56577 0.0468 0.76297 0.0
C985 C 0.56037 0.04697 0.71304 0.0
C986 C 0.57468 0.06145 0.68359 0.0
C987 C 0.59382 0.07565 0.70409 0.0
H988 H 0.6157 0.13552 0.7722 0.0
H989 H 0.61367 0.11997 0.71796 0.0
H990 H 0.59512 0.10981 0.76331 0.0
H991 H 0.58816 0.06073 0.82224 0.0
H992 H 0.55526 0.03586 0.7869 0.0
H993 H 0.53128 0.69771 0.89009 0.0
H994 H 0.53075 0.66769 0.85199 0.0
H995 H 0.54442 0.65328 0.99514 0.0
H996 H 0.54381 0.68281 0.0336 0.0
H997 H 0.55898 0.65896 0.84544 0.0
H998 H 0.4987 0.59927 0.94836 0.0
H999 H 0.50406 0.62522 0.95223 0.0
H1000 H 0.51945 0.61803 0.98741 0.0
C1001 C 0.53404 0.68802 0.9133 0.0
C1002 C 0.53751 0.69239 0.96458 0.0
C1003 C 0.53375 0.6709 0.89164 0.0
C1004 C 0.53725 0.65801 0.92075 0.0
C1005 C 0.54109 0.66261 0.97208 0.0
H1006 H 0.56027 0.57396 0.74044 0.0
H1007 H 0.56477 0.59823 0.80899 0.0
C1008 C 0.54092 0.67954 0.99394 0.0
C1009 C 0.53747 0.64024 0.89643 0.0
H1010 H 0.51526 0.58856 0.89269 0.0
C1011 C 0.54945 0.64356 0.85587 0.0
C1012 C 0.52498 0.62014 0.91002 0.0
C1013 C 0.51093 0.61538 0.95157 0.0
C1014 C 0.54865 0.62741 0.82704 0.0
C1015 C 0.5363 0.60728 0.84079 0.0
C1016 C 0.52489 0.60398 0.88256 0.0
C1017 C 0.53334 0.58949 0.80897 0.0
C1018 C 0.56013 0.63214 0.78046 0.0
C1019 C 0.51397 0.57514 0.78983 0.0
C1020 C 0.5113 0.56074 0.75214 0.0
C1021 C 0.52801 0.56078 0.73241 0.0
C1022 C 0.5472 0.5739 0.75457 0.0
C1023 C 0.54979 0.58787 0.79334 0.0
H1024 H 0.56448 0.64757 0.76896 0.0
H1025 H 0.5741 0.63155 0.7872 0.0
H1026 H 0.55111 0.62101 0.7493 0.0
H1027 H 0.50101 0.57591 0.80163 0.0
H1028 H 0.49634 0.55075 0.73573 0.0
H1029 H 0.47326 0.1789 0.36935 0.0
H1030 H 0.47735 0.15388 0.41435 0.0
H1031 H 0.4867 0.12932 0.27755 0.0
H1032 H 0.48211 0.15394 0.23207 0.0
H1033 H 0.45954 0.09978 0.33632 0.0
H1034 H 0.5298 0.15364 0.4449 0.0
H1035 H 0.51023 0.15986 0.45024 0.0
H1036 H 0.52076 0.16068 0.39133 0.0
C1037 C 0.47612 0.16813 0.34884 0.0
C1038 C 0.47747 0.16847 0.2972 0.0
C1039 C 0.47867 0.154 0.37465 0.0
C1040 C 0.48268 0.14001 0.34935 0.0
C1041 C 0.48383 0.14014 0.29778 0.0
H1042 H 0.5165 0.06262 0.50862 0.0
H1043 H 0.51596 0.08564 0.44894 0.0
C1044 C 0.48132 0.15429 0.27194 0.0
C1045 C 0.48497 0.12477 0.37661 0.0
H1046 H 0.51206 0.11985 0.47131 0.0
C1047 C 0.47114 0.10413 0.3655 0.0
C1048 C 0.50032 0.13049 0.41404 0.0
C1049 C 0.51626 0.15236 0.42559 0.0
C1050 C 0.47174 0.08908 0.39238 0.0
C1051 C 0.48639 0.09489 0.43171 0.0
C1052 C 0.50075 0.11546 0.44137 0.0
C1053 C 0.48631 0.08001 0.46524 0.0
C1054 C 0.45662 0.0671 0.37865 0.0
C1055 C 0.46986 0.06931 0.49417 0.0
C1056 C 0.47011 0.05621 0.5282 0.0
C1057 C 0.48688 0.05358 0.53417 0.0
C1058 C 0.50329 0.06416 0.5047 0.0
C1059 C 0.50304 0.07736 0.4707 0.0
H1060 H 0.4506 0.06485 0.33974 0.0
H1061 H 0.46332 0.05725 0.38356 0.0
H1062 H 0.44385 0.06213 0.40301 0.0
H1063 H 0.45697 0.07145 0.49124 0.0
H1064 H 0.45722 0.04833 0.55025 0.0
H1065 H 0.3214 0.50973 0.3301 0.0
H1066 H 0.34608 0.51125 0.39112 0.0
H1067 H 0.32338 0.44707 0.36278 0.0
H1068 H 0.29918 0.44556 0.29977 0.0
H1069 H 0.34335 0.49116 0.47756 0.0
H1070 H 0.3823 0.47254 0.33118 0.0
H1071 H 0.36322 0.47897 0.31663 0.0
H1072 H 0.35632 0.45422 0.33646 0.0
C1073 C 0.32175 0.49595 0.33645 0.0
C1074 C 0.3086 0.47761 0.3093 0.0
C1075 C 0.33567 0.4968 0.37187 0.0
C1076 C 0.33668 0.47933 0.38101 0.0
C1077 C 0.32299 0.46078 0.35574 0.0
H1078 H 0.4302 0.48294 0.58366 0.0
H1079 H 0.39637 0.4743 0.55291 0.0
C1080 C 0.30911 0.45993 0.31997 0.0
C1081 C 0.35319 0.48114 0.41399 0.0
H1082 H 0.39706 0.48032 0.41158 0.0
C1083 C 0.35497 0.48851 0.46348 0.0
C1084 C 0.36835 0.47778 0.39522 0.0
C1085 C 0.36764 0.47059 0.34192 0.0
C1086 C 0.37194 0.49328 0.49422 0.0
C1087 C 0.38731 0.49055 0.47477 0.0
C1088 C 0.38512 0.48235 0.42612 0.0
C1089 C 0.40687 0.49809 0.50173 0.0
C1090 C 0.3739 0.50214 0.54631 0.0
C1091 C 0.42376 0.51466 0.48419 0.0
C1092 C 0.44292 0.51953 0.50149 0.0
C1093 C 0.4455 0.50796 0.53682 0.0
C1094 C 0.42857 0.49231 0.55717 0.0
C1095 C 0.40928 0.48731 0.53947 0.0
H1096 H 0.36086 0.50396 0.55537 0.0
H1097 H 0.37523 0.49212 0.57288 0.0
H1098 H 0.38778 0.51718 0.55139 0.0
H1099 H 0.42212 0.5231 0.45498 0.0
H1100 H 0.45575 0.53168 0.48529 0.0
H1101 H 0.87427 0.3205 0.22454 0.0
H1102 H 0.90212 0.35113 0.26659 0.0
H1103 H 0.86278 0.37538 0.29227 0.0
H1104 H 0.83477 0.34472 0.25068 0.0
H1105 H 0.90345 0.40435 0.26069 0.0
H1106 H 0.90232 0.36018 0.42013 0.0
H1107 H 0.90404 0.35007 0.36039 0.0
H1108 H 0.88174 0.35086 0.37425 0.0
C1109 C 0.87155 0.33234 0.2392 0.0
C1110 C 0.85229 0.33011 0.2349 0.0
C1111 C 0.88748 0.34986 0.26282 0.0
C1112 C 0.88439 0.36536 0.28271 0.0
C1113 C 0.86541 0.36356 0.27691 0.0
H1114 H 0.95073 0.47219 0.4803 0.0
H1115 H 0.92939 0.44906 0.41092 0.0
C1116 C 0.84946 0.34605 0.25322 0.0
C1117 C 0.90053 0.38267 0.31303 0.0
H1118 H 0.92753 0.39443 0.42306 0.0
C1119 C 0.90884 0.40227 0.29615 0.0
C1120 C 0.90733 0.37979 0.35926 0.0
C1121 C 0.89833 0.35914 0.37997 0.0
C1122 C 0.92411 0.41915 0.32427 0.0
C1123 C 0.93087 0.41624 0.37059 0.0
C1124 C 0.92248 0.3966 0.38726 0.0
C1125 C 0.94613 0.43317 0.40392 0.0
C1126 C 0.93301 0.43983 0.30398 0.0
C1127 C 0.96286 0.43224 0.42217 0.0
C1128 C 0.97475 0.4451 0.46231 0.0
C1129 C 0.97022 0.45926 0.48458 0.0
C1130 C 0.95457 0.46144 0.4636 0.0
C1131 C 0.94243 0.4483 0.42379 0.0
H1132 H 0.93058 0.43871 0.26308 0.0
H1133 H 0.92566 0.44798 0.32007 0.0
H1134 H 0.94935 0.449 0.31382 0.0
H1135 H 0.96599 0.4207 0.40729 0.0
H1136 H 0.9869 0.44328 0.47747 0.0
H1137 H 0.51941 0.85592 0.23337 0.0
H1138 H 0.51665 0.88534 0.26114 0.0
H1139 H 0.53056 0.90848 0.1163 0.0
H1140 H 0.53329 0.87891 0.08803 0.0
H1141 H 0.553 0.9372 0.18988 0.0
H1142 H 0.47334 0.89975 0.23338 0.0
H1143 H 0.48559 0.8877 0.26202 0.0
H1144 H 0.48345 0.88719 0.19549 0.0
C1145 C 0.52151 0.86706 0.20713 0.0
C1146 C 0.52651 0.86507 0.1585 0.0
C1147 C 0.51986 0.88384 0.22298 0.0
C1148 C 0.52298 0.89887 0.19046 0.0
C1149 C 0.52792 0.89694 0.14181 0.0
H1150 H 0.50584 0.99111 0.35234 0.0
H1151 H 0.50439 0.9707 0.27787 0.0
C1152 C 0.52961 0.88014 0.12589 0.0
C1153 C 0.52262 0.91727 0.2091 0.0
H1154 H 0.49551 0.93175 0.28053 0.0
C1155 C 0.54025 0.93614 0.20862 0.0
C1156 C 0.50583 0.91604 0.23228 0.0
C1157 C 0.48592 0.89659 0.23032 0.0
C1158 C 0.54219 0.95336 0.23503 0.0
C1159 C 0.52622 0.95149 0.26326 0.0
C1160 C 0.5079 0.93314 0.25952 0.0
C1161 C 0.52919 0.9669 0.30298 0.0
C1162 C 0.56163 0.97316 0.23419 0.0
C1163 C 0.54378 0.97176 0.3413 0.0
C1164 C 0.5446 0.98327 0.38364 0.0
C1165 C 0.53074 0.99008 0.38881 0.0
C1166 C 0.51677 0.98614 0.34934 0.0
C1167 C 0.5159 0.97447 0.30684 0.0
H1168 H 0.56851 0.97441 0.19802 0.0
H1169 H 0.55941 0.98639 0.24114 0.0
H1170 H 0.57238 0.97374 0.26325 0.0
H1171 H 0.55387 0.96569 0.33981 0.0
H1172 H 0.55561 0.98611 0.41324 0.0
H1173 H 0.67365 0.54267 0.1818 0.0
H1174 H 0.64991 0.54111 0.24236 0.0
H1175 H 0.6736 0.51551 0.34506 0.0
H1176 H 0.69722 0.51689 0.2847 0.0
H1177 H 0.63313 0.49499 0.33973 0.0
H1178 H 0.6606 0.57746 0.36633 0.0
H1179 H 0.654 0.56803 0.30276 0.0
H1180 H 0.67453 0.56749 0.33469 0.0
C1181 C 0.67394 0.53691 0.21747 0.0
C1182 C 0.68733 0.52988 0.22833 0.0
C1183 C 0.66039 0.53607 0.25215 0.0
C1184 C 0.66013 0.52846 0.29865 0.0
C1185 C 0.67349 0.52145 0.30952 0.0
H1186 H 0.59445 0.54415 0.53997 0.0
H1187 H 0.62083 0.54352 0.49258 0.0
C1188 C 0.68695 0.52218 0.27484 0.0
C1189 C 0.64559 0.52722 0.33547 0.0
H1190 H 0.62915 0.5554 0.39944 0.0
C1191 C 0.63236 0.50824 0.35304 0.0
C1192 C 0.64478 0.54453 0.35364 0.0
C1193 C 0.65937 0.56556 0.33881 0.0
C1194 C 0.61801 0.50599 0.38703 0.0
C1195 C 0.61654 0.52313 0.40326 0.0
C1196 C 0.63015 0.54222 0.38682 0.0
C1197 C 0.60048 0.52156 0.43541 0.0
C1198 C 0.60467 0.48529 0.40549 0.0
C1199 C 0.58022 0.5091 0.41973 0.0
C1200 C 0.56511 0.5093 0.44689 0.0
C1201 C 0.5699 0.5222 0.4901 0.0
C1202 C 0.59017 0.53403 0.50693 0.0
C1203 C 0.6053 0.53376 0.47973 0.0
H1204 H 0.61182 0.4757 0.40295 0.0
H1205 H 0.60102 0.4864 0.44448 0.0
H1206 H 0.59045 0.47749 0.38223 0.0
H1207 H 0.57608 0.49985 0.38523 0.0
H1208 H 0.5497 0.50002 0.43259 0.0
H1209 H 0.16363 0.68305 0.21981 0.0
H1210 H 0.13589 0.65524 0.25881 0.0
H1211 H 0.10625 0.69054 0.27264 0.0
H1212 H 0.13404 0.71856 0.23425 0.0
H1213 H 0.12297 0.65716 0.35367 0.0
H1214 H 0.06194 0.63529 0.20913 0.0
H1215 H 0.08816 0.65052 0.19718 0.0
H1216 H 0.07547 0.66187 0.2284 0.0
C1217 C 0.15126 0.68495 0.23137 0.0
C1218 C 0.15108 0.70305 0.22404 0.0
C1219 C 0.13536 0.66899 0.25327 0.0
C1220 C 0.1189 0.67073 0.26789 0.0
C1221 C 0.11861 0.68872 0.26057 0.0
H1222 H 0.03512 0.60563 0.48556 0.0
H1223 H 0.05863 0.63082 0.43256 0.0
C1224 C 0.13452 0.70473 0.23873 0.0
C1225 C 0.10264 0.65421 0.29353 0.0
H1226 H 0.0522 0.62076 0.28689 0.0
C1227 C 0.10752 0.64912 0.33894 0.0
C1228 C 0.08254 0.64365 0.27393 0.0
C1229 C 0.07666 0.64793 0.22426 0.0
C1230 C 0.09275 0.63408 0.36595 0.0
C1231 C 0.07256 0.62402 0.34724 0.0
C1232 C 0.06769 0.62869 0.30124 0.0
C1233 C 0.05639 0.60881 0.37574 0.0
C1234 C 0.09883 0.62902 0.41436 0.0
C1235 C 0.04678 0.58813 0.36023 0.0
C1236 C 0.03328 0.57359 0.39048 0.0
C1237 C 0.02917 0.57956 0.43665 0.0
C1238 C 0.03802 0.60042 0.45052 0.0
C1239 C 0.05151 0.61488 0.42034 0.0
H1240 H 0.11526 0.63498 0.4184 0.0
H1241 H 0.09459 0.63589 0.44543 0.0
H1242 H 0.09093 0.61234 0.41758 0.0
H1243 H 0.05036 0.58321 0.32574 0.0
H1244 H 0.0267 0.55768 0.37856 0.0
loop_
_geom_bond_atom_site_label_1
_geom_bond_atom_site_label_2
_geom_bond_distance
_geom_bond_site_symmetry_2
_ccdc_geom_bond_type
H0 C19 0.949 . S
H1 C20 0.950 . S
H2 C22 0.950 . S
H3 C23 0.950 . S
H4 C25 0.950 . S
H5 C28 0.950 . S
H6 C29 0.950 . S
H7 C31 0.951 . S
H8 C32 0.949 . S
H9 C34 0.949 . S
H10 C35 0.950 . S
H11 C37 0.950 . S
H12 C38 0.950 . S
H13 C40 0.950 . S
H14 C43 0.950 . S
H15 C44 0.950 . S
H16 C46 0.951 . S
H17 C47 0.949 . S
C18 C19 1.376 . S
C18 C23 1.386 . S
C18 C24 1.483 . S
C19 H0 0.949 . S
C19 C18 1.376 . S
C19 C20 1.397 . S
C20 H1 0.950 . S
C20 C19 1.397 . S
C20 C21 1.391 . S
C21 C20 1.391 . S
C21 C22 1.405 . S
C22 H2 0.950 . S
C22 C21 1.405 . S
C22 C23 1.367 . S
C23 H3 0.950 . S
C23 C18 1.386 . S
C23 C22 1.367 . S
C24 C18 1.483 . S
C24 C25 1.382 . S
C24 C26 1.403 . S
C25 H4 0.950 . S
C25 C24 1.382 . S
C25 C41 1.411 . S
C26 C24 1.403 . S
C26 C27 1.489 . S
C26 C40 1.411 . S
C27 C26 1.489 . S
C27 C28 1.383 . S
C27 C32 1.382 . S
C28 H5 0.950 . S
C28 C27 1.383 . S
C28 C29 1.395 . S
C29 H6 0.950 . S
C29 C28 1.395 . S
C29 C30 1.288 . S
C30 C29 1.288 . S
C30 C31 1.392 . S
C31 H7 0.951 . S
C31 C30 1.392 . S
C31 C32 1.392 . S
C32 H8 0.949 . S
C32 C27 1.382 . S
C32 C31 1.392 . S
C33 C34 1.376 . S
C33 C38 1.386 . S
C33 C39 1.483 . S
C34 H9 0.949 . S
C34 C33 1.376 . S
C34 C35 1.397 . S
C35 H10 0.950 . S
C35 C34 1.397 . S
C35 C36 1.391 . S
C36 C35 1.391 . S
C36 C37 1.405 . S
C37 H11 0.950 . S
C37 C36 1.405 . S
C37 C38 1.367 . S
C38 H12 0.950 . S
C38 C33 1.386 . S
C38 C37 1.367 . S
C39 C33 1.483 . S
C39 C40 1.382 . S
C39 C41 1.403 . S
C40 H13 0.950 . S
C40 C26 1.411 . S
C40 C39 1.382 . S
C41 C25 1.411 . S
C41 C39 1.403 . S
C41 C42 1.489 . S
C42 C41 1.489 . S
C42 C43 1.383 . S
C42 C47 1.382 . S
C43 H14 0.950 . S
C43 C42 1.383 . S
C43 C44 1.395 . S
C44 H15 0.950 . S
C44 C43 1.395 . S
C44 C45 1.288 . S
C45 C44 1.288 . S
C45 C46 1.392 . S
C46 H16 0.951 . S
C46 C45 1.392 . S
C46 C47 1.392 . S
C47 H17 0.949 . S
C47 C42 1.382 . S
C47 C46 1.392 . S
H48 C67 0.949 . S
H49 C68 0.950 1_556 S
H50 C70 0.950 . S
H51 C71 0.950 . S
H52 C73 0.950 . S
H53 C76 0.950 . S
H54 C77 0.950 . S
H55 C79 0.951 . S
H56 C80 0.949 . S
H57 C82 0.949 . S
H58 C83 0.950 . S
H59 C85 0.950 . S
H60 C86 0.950 . S
H61 C88 0.950 . S
H62 C91 0.950 . S
H63 C92 0.950 . S
H64 C94 0.951 1_556 S
H65 C95 0.949 . S
C66 C67 1.376 . S
C66 C71 1.386 . S
C66 C72 1.483 . S
C67 H48 0.949 . S
C67 C66 1.376 . S
C67 C68 1.397 . S
C68 H49 0.950 1_554 S
C68 C67 1.397 . S
C68 C69 1.391 . S
C69 C68 1.391 . S
C69 C70 1.405 . S
C70 H50 0.950 . S
C70 C69 1.405 . S
C70 C71 1.367 . S
C71 H51 0.950 . S
C71 C66 1.386 . S
C71 C70 1.367 . S
C72 C66 1.483 . S
C72 C73 1.382 . S
C72 C74 1.403 . S
C73 H52 0.950 . S
C73 C72 1.382 . S
C73 C89 1.411 . S
C74 C72 1.403 . S
C74 C75 1.489 . S
C74 C88 1.411 . S
C75 C74 1.489 . S
C75 C76 1.383 . S
C75 C80 1.382 . S
C76 H53 0.950 . S
C76 C75 1.383 . S
C76 C77 1.395 . S
C77 H54 0.950 . S
C77 C76 1.395 . S
C77 C78 1.288 . S
C78 C77 1.288 . S
C78 C79 1.392 . S
C79 H55 0.951 . S
C79 C78 1.392 . S
C79 C80 1.392 . S
C80 H56 0.949 . S
C80 C75 1.382 . S
C80 C79 1.392 . S
C81 C82 1.376 . S
C81 C86 1.386 . S
C81 C87 1.483 . S
C82 H57 0.949 . S
C82 C81 1.376 . S
C82 C83 1.397 . S
C83 H58 0.950 . S
C83 C82 1.397 . S
C83 C84 1.391 . S
C84 C83 1.391 . S
C84 C85 1.405 . S
C85 H59 0.950 . S
C85 C84 1.405 . S
C85 C86 1.367 . S
C86 H60 0.950 . S
C86 C81 1.386 . S
C86 C85 1.367 . S
C87 C81 1.483 . S
C87 C88 1.382 . S
C87 C89 1.403 . S
C88 H61 0.950 . S
C88 C74 1.411 . S
C88 C87 1.382 . S
C89 C73 1.411 . S
C89 C87 1.403 . S
C89 C90 1.489 . S
C90 C89 1.489 . S
C90 C91 1.383 . S
C90 C95 1.382 . S
C91 H62 0.950 . S
C91 C90 1.383 . S
C91 C92 1.395 . S
C92 H63 0.950 . S
C92 C91 1.395 . S
C92 C93 1.288 . S
C93 C92 1.288 . S
C93 C94 1.392 . S
C94 H64 0.951 1_554 S
C94 C93 1.392 . S
C94 C95 1.392 . S
C95 H65 0.949 . S
C95 C90 1.382 . S
C95 C94 1.392 . S
H96 C115 0.949 . S
H97 C116 0.950 . S
H98 C118 0.950 . S
H99 C119 0.950 . S
H100 C121 0.950 . S
H101 C124 0.950 . S
H102 C125 0.950 . S
H103 C127 0.951 . S
H104 C128 0.949 . S
H105 C130 0.949 . S
H106 C131 0.950 . S
H107 C133 0.950 . S
H108 C134 0.950 . S
H109 C136 0.950 . S
H110 C139 0.950 . S
H111 C140 0.950 . S
H112 C142 0.951 . S
H113 C143 0.949 . S
C114 C115 1.376 . S
C114 C119 1.386 . S
C114 C120 1.483 . S
C115 H96 0.949 . S
C115 C114 1.376 . S
C115 C116 1.397 . S
C116 H97 0.950 . S
C116 C115 1.397 . S
C116 C117 1.391 . S
C117 C116 1.391 . S
C117 C118 1.405 . S
C118 H98 0.950 . S
C118 C117 1.405 . S
C118 C119 1.367 . S
C119 H99 0.950 . S
C119 C114 1.386 . S
C119 C118 1.367 . S
C120 C114 1.483 . S
C120 C121 1.382 . S
C120 C122 1.403 1_556 S
C121 H100 0.950 . S
C121 C120 1.382 . S
C121 C137 1.411 . S
C122 C120 1.403 1_554 S
C122 C123 1.489 . S
C122 C136 1.411 . S
C123 C122 1.489 . S
C123 C124 1.383 . S
C123 C128 1.382 . S
C124 H101 0.950 . S
C124 C123 1.383 . S
C124 C125 1.395 . S
C125 H102 0.950 . S
C125 C124 1.395 . S
C125 C126 1.288 . S
C126 C125 1.288 . S
C126 C127 1.392 . S
C127 H103 0.951 . S
C127 C126 1.392 . S
C127 C128 1.392 . S
C128 H104 0.949 . S
C128 C123 1.382 . S
C128 C127 1.392 . S
C129 C130 1.376 . S
C129 C134 1.386 . S
C129 C135 1.483 . S
C130 H105 0.949 . S
C130 C129 1.376 . S
C130 C131 1.397 . S
C131 H106 0.950 . S
C131 C130 1.397 . S
C131 C132 1.391 . S
C132 C131 1.391 . S
C132 C133 1.405 . S
C133 H107 0.950 . S
C133 C132 1.405 . S
C133 C134 1.367 . S
C134 H108 0.950 . S
C134 C129 1.386 . S
C134 C133 1.367 . S
C135 C129 1.483 . S
C135 C136 1.382 . S
C135 C137 1.403 1_554 S
C136 H109 0.950 . S
C136 C122 1.411 . S
C136 C135 1.382 . S
C137 C121 1.411 . S
C137 C135 1.403 1_556 S
C137 C138 1.489 . S
C138 C137 1.489 . S
C138 C139 1.383 . S
C138 C143 1.382 . S
C139 H110 0.950 . S
C139 C138 1.383 . S
C139 C140 1.395 . S
C140 H111 0.950 . S
C140 C139 1.395 . S
C140 C141 1.288 . S
C141 C140 1.288 . S
C141 C142 1.392 . S
C142 H112 0.951 . S
C142 C141 1.392 . S
C142 C143 1.392 . S
C143 H113 0.949 . S
C143 C138 1.382 . S
C143 C142 1.392 . S
H144 C163 0.949 . S
H145 C164 0.950 . S
H146 C166 0.950 . S
H147 C167 0.950 . S
H148 C169 0.950 . S
H149 C172 0.950 . S
H150 C173 0.950 . S
H151 C175 0.951 . S
H152 C176 0.949 . S
H153 C178 0.949 . S
H154 C179 0.950 . S
H155 C181 0.950 . S
H156 C182 0.950 . S
H157 C184 0.950 1_556 S
H158 C187 0.950 . S
H159 C188 0.950 . S
H160 C190 0.951 . S
H161 C191 0.949 . S
C162 C163 1.376 . S
C162 C167 1.386 . S
C162 C168 1.483 . S
C163 H144 0.949 . S
C163 C162 1.376 . S
C163 C164 1.397 . S
C164 H145 0.950 . S
C164 C163 1.397 . S
C164 C165 1.391 . S
C165 C164 1.391 . S
C165 C166 1.405 . S
C166 H146 0.950 . S
C166 C165 1.405 . S
C166 C167 1.367 . S
C167 H147 0.950 . S
C167 C162 1.386 . S
C167 C166 1.367 . S
C168 C162 1.483 . S
C168 C169 1.382 . S
C168 C170 1.403 . S
C169 H148 0.950 . S
C169 C168 1.382 . S
C169 C185 1.411 . S
C170 C168 1.403 . S
C170 C171 1.489 . S
C170 C184 1.411 . S
C171 C170 1.489 . S
C171 C172 1.383 . S
C171 C176 1.382 1_554 S
C172 H149 0.950 . S
C172 C171 1.383 . S
C172 C173 1.395 1_554 S
C173 H150 0.950 . S
C173 C172 1.395 1_556 S
C173 C174 1.288 . S
C174 C173 1.288 . S
C174 C175 1.392 . S
C175 H151 0.951 . S
C175 C174 1.392 . S
C175 C176 1.392 . S
C176 H152 0.949 . S
C176 C171 1.382 1_556 S
C176 C175 1.392 . S
C177 C178 1.376 1_554 S
C177 C182 1.386 . S
C177 C183 1.483 . S
C178 H153 0.949 . S
C178 C177 1.376 1_556 S
C178 C179 1.397 . S
C179 H154 0.950 . S
C179 C178 1.397 . S
C179 C180 1.391 . S
C180 C179 1.391 . S
C180 C181 1.405 . S
C181 H155 0.950 . S
C181 C180 1.405 . S
C181 C182 1.367 1_556 S
C182 H156 0.950 . S
C182 C177 1.386 . S
C182 C181 1.367 1_554 S
C183 C177 1.483 . S
C183 C184 1.382 . S
C183 C185 1.403 . S
C184 H157 0.950 1_554 S
C184 C170 1.411 . S
C184 C183 1.382 . S
C185 C169 1.411 . S
C185 C183 1.403 . S
C185 C186 1.489 . S
C186 C185 1.489 . S
C186 C187 1.383 . S
C186 C191 1.382 . S
C187 H158 0.950 . S
C187 C186 1.383 . S
C187 C188 1.395 . S
C188 H159 0.950 . S
C188 C187 1.395 . S
C188 C189 1.288 . S
C189 C188 1.288 . S
C189 C190 1.392 . S
C190 H160 0.951 . S
C190 C189 1.392 . S
C190 C191 1.392 . S
C191 H161 0.949 . S
C191 C186 1.382 . S
C191 C190 1.392 . S
H192 C211 0.949 . S
H193 C212 0.950 . S
H194 C214 0.950 . S
H195 C215 0.950 . S
H196 C217 0.964 . S
H197 C220 0.950 . S
H198 C221 0.950 . S
H199 C223 0.951 . S
H200 C224 0.949 . S
H201 C226 0.949 . S
H202 C227 0.950 . S
H203 C229 0.950 . S
H204 C230 0.950 . S
H205 C232 0.950 . S
H206 C235 0.950 . S
H207 C236 0.951 . S
H208 C238 0.951 . S
H209 C239 0.949 . S
C210 C211 1.376 . S
C210 C215 1.386 . S
C210 C216 1.483 . S
C211 H192 0.949 . S
C211 C210 1.376 . S
C211 C212 1.397 1_554 S
C212 H193 0.950 . S
C212 C211 1.397 1_556 S
C212 C213 1.391 . S
C213 C212 1.391 . S
C213 C214 1.405 1_556 S
C214 H194 0.950 . S
C214 C213 1.405 1_554 S
C214 C215 1.367 . S
C215 H195 0.950 . S
C215 C210 1.386 . S
C215 C214 1.367 . S
C216 C210 1.483 . S
C216 C217 1.382 . S
C216 C218 1.403 . S
C217 H196 0.964 . S
C217 C216 1.382 . S
C217 C233 1.411 . S
C218 C216 1.403 . S
C218 C219 1.489 . S
C218 C232 1.411 . S
C219 C218 1.489 . S
C219 C220 1.383 . S
C219 C224 1.382 . S
C220 H197 0.950 . S
C220 C219 1.383 . S
C220 C221 1.395 . S
C221 H198 0.950 . S
C221 C220 1.395 . S
C221 C222 1.288 . S
C222 C221 1.288 . S
C222 C223 1.392 . S
C223 H199 0.951 . S
C223 C222 1.392 . S
C223 C224 1.392 . S
C224 H200 0.949 . S
C224 C219 1.382 . S
C224 C223 1.392 . S
C225 C226 1.376 . S
C225 C230 1.386 . S
C225 C231 1.483 . S
C226 H201 0.949 . S
C226 C225 1.376 . S
C226 C227 1.397 . S
C227 H202 0.950 . S
C227 C226 1.397 . S
C227 C228 1.391 . S
C228 C227 1.391 . S
C228 C229 1.405 . S
C229 H203 0.950 . S
C229 C228 1.405 . S
C229 C230 1.367 . S
C230 H204 0.950 . S
C230 C225 1.386 . S
C230 C229 1.367 . S
C231 C225 1.483 . S
C231 C232 1.382 . S
C231 C233 1.403 . S
C232 H205 0.950 . S
C232 C218 1.411 . S
C232 C231 1.382 . S
C233 C217 1.411 . S
C233 C231 1.403 . S
C233 C234 1.489 . S
C234 C233 1.489 . S
C234 C235 1.383 . S
C234 C239 1.382 1_554 S
C235 H206 0.950 . S
C235 C234 1.383 . S
C235 C236 1.395 1_554 S
C236 H207 0.951 . S
C236 C235 1.395 1_556 S
C236 C237 1.288 . S
C237 C236 1.288 . S
C237 C238 1.392 . S
C238 H208 0.951 . S
C238 C237 1.392 . S
C238 C239 1.392 . S
C239 H209 0.949 . S
C239 C234 1.382 1_556 S
C239 C238 1.392 . S
H240 C259 0.949 . S
H241 C260 0.950 . S
H242 C262 0.950 . S
H243 C263 0.950 . S
H244 C265 0.950 . S
H245 C268 0.950 . S
H246 C269 0.950 . S
H247 C271 0.951 . S
H248 C272 0.949 . S
H249 C274 0.949 . S
H250 C275 0.950 . S
H251 C277 0.950 . S
H252 C278 0.950 . S
H253 C280 0.950 . S
H254 C283 0.950 . S
H255 C284 0.950 . S
H256 C286 0.951 . S
H257 C287 0.949 . S
C258 C259 1.376 . S
C258 C263 1.386 . S
C258 C264 1.483 . S
C259 H240 0.949 . S
C259 C258 1.376 . S
C259 C260 1.397 . S
C260 H241 0.950 . S
C260 C259 1.397 . S
C260 C261 1.391 . S
C261 C260 1.391 . S
C261 C262 1.405 . S
C262 H242 0.950 . S
C262 C261 1.405 . S
C262 C263 1.367 . S
C263 H243 0.950 . S
C263 C258 1.386 . S
C263 C262 1.367 . S
C264 C258 1.483 . S
C264 C265 1.382 . S
C264 C266 1.403 . S
C265 H244 0.950 . S
C265 C264 1.382 . S
C265 C281 1.411 . S
C266 C264 1.403 . S
C266 C267 1.489 . S
C266 C280 1.411 . S
C267 C266 1.489 . S
C267 C268 1.383 . S
C267 C272 1.382 . S
C268 H245 0.950 . S
C268 C267 1.383 . S
C268 C269 1.395 . S
C269 H246 0.950 . S
C269 C268 1.395 . S
C269 C270 1.288 . S
C270 C269 1.288 . S
C270 C271 1.392 . S
C271 H247 0.951 . S
C271 C270 1.392 . S
C271 C272 1.392 . S
C272 H248 0.949 . S
C272 C267 1.382 . S
C272 C271 1.392 . S
C273 C274 1.376 . S
C273 C278 1.386 . S
C273 C279 1.483 . S
C274 H249 0.949 . S
C274 C273 1.376 . S
C274 C275 1.397 . S
C275 H250 0.950 . S
C275 C274 1.397 . S
C275 C276 1.391 . S
C276 C275 1.391 . S
C276 C277 1.405 . S
C277 H251 0.950 . S
C277 C276 1.405 . S
C277 C278 1.367 . S
C278 H252 0.950 . S
C278 C273 1.386 . S
C278 C277 1.367 . S
C279 C273 1.483 . S
C279 C280 1.382 . S
C279 C281 1.403 . S
C280 H253 0.950 . S
C280 C266 1.411 . S
C280 C279 1.382 . S
C281 C265 1.411 . S
C281 C279 1.403 . S
C281 C282 1.489 . S
C282 C281 1.489 . S
C282 C283 1.383 . S
C282 C287 1.382 . S
C283 H254 0.950 . S
C283 C282 1.383 . S
C283 C284 1.395 . S
C284 H255 0.950 . S
C284 C283 1.395 . S
C284 C285 1.288 . S
C285 C284 1.288 . S
C285 C286 1.392 . S
C286 H256 0.951 . S
C286 C285 1.392 . S
C286 C287 1.392 . S
C287 H257 0.949 . S
C287 C282 1.382 . S
C287 C286 1.392 . S
C288 O300 1.241 . S
C288 O301 1.280 . S
C289 O302 1.277 . S
C289 O303 1.245 . S
C290 O314 1.247 . S
C290 O316 1.289 . S
Mg291 O292 1.926 . S
Mg291 O301 1.984 . S
Mg291 O303 1.988 1_655 S
Mg291 O304 2.061 . S
O292 Mg291 1.926 . S
O292 Mg293 1.988 1_655 S
O292 Mg294 1.919 1_655 S
Mg293 O292 1.988 1_455 S
Mg293 O300 2.032 1_455 S
Mg293 O302 2.075 . S
Mg293 O308 2.005 1_455 S
Mg293 O316 2.246 . S
Mg294 O292 1.919 1_455 S
Mg294 O295 1.915 . S
Mg294 O305 2.101 1_455 S
Mg294 O307 2.058 1_455 S
Mg294 O316 2.112 . S
Mg294 O317 2.099 . S
O295 Mg294 1.915 . S
O295 Mg296 1.926 . S
O295 Mg297 1.986 . S
Mg296 O295 1.926 . S
Mg296 O310 1.984 . S
Mg296 O313 1.988 1_455 S
Mg296 O314 2.061 . S
Mg297 O295 1.986 . S
Mg297 O305 2.236 1_455 S
Mg297 O309 2.044 . S
Mg297 O311 2.034 1_455 S
Mg297 O318 2.045 . S
C298 O304 1.247 . S
C298 O305 1.289 . S
C299 O317 1.245 . S
C299 O318 1.274 . S
O300 C288 1.241 . S
O300 Mg293 2.032 1_655 S
O301 C288 1.280 . S
O301 Mg291 1.984 . S
O302 C289 1.277 . S
O302 Mg293 2.075 . S
O303 C289 1.245 . S
O303 Mg291 1.988 1_455 S
O304 Mg291 2.061 . S
O304 C298 1.247 . S
O305 Mg294 2.101 1_655 S
O305 Mg297 2.236 1_655 S
O305 C298 1.289 . S
C306 O307 1.245 . S
C306 O308 1.274 . S
O307 Mg294 2.058 1_655 S
O307 C306 1.245 . S
O308 Mg293 2.005 1_655 S
O308 C306 1.274 . S
O309 Mg297 2.044 . S
O309 C312 1.241 . S
O310 Mg296 1.984 . S
O310 C312 1.280 . S
O311 Mg297 2.034 1_655 S
O311 C315 1.277 . S
C312 O309 1.241 . S
C312 O310 1.280 . S
O313 Mg296 1.988 1_655 S
O313 C315 1.245 . S
O314 C290 1.247 . S
O314 Mg296 2.061 . S
C315 O311 1.277 . S
C315 O313 1.245 . S
O316 C290 1.289 . S
O316 Mg293 2.246 . S
O316 Mg294 2.112 . S
O317 Mg294 2.099 . S
O317 C299 1.245 . S
O318 Mg297 2.045 . S
O318 C299 1.274 . S
C319 O331 1.241 . S
C319 O332 1.280 . S
C320 O333 1.277 . S
C320 O334 1.245 . S
C321 O345 1.247 . S
C321 O347 1.289 . S
Mg322 O323 1.926 . S
Mg322 O332 1.984 . S
Mg322 O334 1.988 1_545 S
Mg322 O335 2.061 . S
O323 Mg322 1.926 . S
O323 Mg324 1.986 . S
O323 Mg325 1.917 . S
Mg324 O323 1.986 . S
Mg324 O331 2.042 . S
Mg324 O333 2.041 1_545 S
Mg324 O339 2.038 . S
Mg324 O347 2.238 1_545 S
Mg325 O323 1.917 . S
Mg325 O326 1.917 . S
Mg325 O336 2.106 . S
Mg325 O338 2.079 . S
Mg325 O347 2.106 1_545 S
Mg325 O348 2.079 1_545 S
O326 Mg325 1.917 . S
O326 Mg327 1.929 . S
O326 Mg328 1.986 . S
Mg327 O326 1.929 . S
Mg327 O341 1.981 1_545 S
Mg327 O344 1.992 . S
Mg327 O345 2.059 1_545 S
Mg328 O326 1.986 . S
Mg328 O336 2.238 . S
Mg328 O340 2.042 1_545 S
Mg328 O342 2.041 . S
Mg328 O349 2.038 1_545 S
C329 O335 1.247 . S
C329 O336 1.289 . S
C330 O348 1.245 . S
C330 O349 1.274 . S
O331 C319 1.241 . S
O331 Mg324 2.042 . S
O332 C319 1.280 . S
O332 Mg322 1.984 . S
O333 C320 1.277 . S
O333 Mg324 2.041 1_565 S
O334 C320 1.245 . S
O334 Mg322 1.988 1_565 S
O335 Mg322 2.061 . S
O335 C329 1.247 . S
O336 Mg325 2.106 . S
O336 Mg328 2.238 . S
O336 C329 1.289 . S
C337 O338 1.245 . S
C337 O339 1.274 . S
O338 Mg325 2.079 . S
O338 C337 1.245 . S
O339 Mg324 2.038 . S
O339 C337 1.274 . S
O340 Mg328 2.042 1_565 S
O340 C343 1.241 . S
O341 Mg327 1.981 1_565 S
O341 C343 1.280 . S
O342 Mg328 2.041 . S
O342 C346 1.277 . S
C343 O340 1.241 . S
C343 O341 1.280 . S
O344 Mg327 1.992 . S
O344 C346 1.245 . S
O345 C321 1.247 . S
O345 Mg327 2.059 1_565 S
C346 O342 1.277 . S
C346 O344 1.245 . S
O347 C321 1.289 . S
O347 Mg324 2.238 1_565 S
O347 Mg325 2.106 1_565 S
O348 Mg325 2.079 1_565 S
O348 C330 1.245 . S
O349 Mg328 2.038 1_565 S
O349 C330 1.274 . S
C350 O362 1.241 . S
C350 O363 1.280 . S
C351 O364 1.277 . S
C351 O365 1.245 . S
C352 O376 1.247 . S
C352 O378 1.289 . S
Mg353 O354 1.926 . S
Mg353 O363 1.984 . S
Mg353 O365 1.988 . S
Mg353 O366 2.061 . S
O354 Mg353 1.926 . S
O354 Mg355 1.986 . S
O354 Mg356 1.917 . S
Mg355 O354 1.986 . S
Mg355 O362 2.042 . S
Mg355 O364 2.041 . S
Mg355 O370 2.038 . S
Mg355 O378 2.238 . S
Mg356 O354 1.917 . S
Mg356 O357 1.917 . S
Mg356 O367 2.106 . S
Mg356 O369 2.079 . S
Mg356 O378 2.106 . S
Mg356 O379 2.079 . S
O357 Mg356 1.917 . S
O357 Mg358 1.926 . S
O357 Mg359 1.986 . S
Mg358 O357 1.926 . S
Mg358 O372 1.984 . S
Mg358 O375 1.988 . S
Mg358 O376 2.061 . S
Mg359 O357 1.986 . S
Mg359 O367 2.238 . S
Mg359 O371 2.042 . S
Mg359 O373 2.041 . S
Mg359 O380 2.038 . S
C360 O366 1.247 . S
C360 O367 1.289 . S
C361 O379 1.245 . S
C361 O380 1.274 . S
O362 C350 1.241 . S
O362 Mg355 2.042 . S
O363 C350 1.280 . S
O363 Mg353 1.984 . S
O364 C351 1.277 . S
O364 Mg355 2.041 . S
O365 C351 1.245 . S
O365 Mg353 1.988 . S
O366 Mg353 2.061 . S
O366 C360 1.247 . S
O367 Mg356 2.106 . S
O367 Mg359 2.238 . S
O367 C360 1.289 . S
C368 O369 1.245 . S
C368 O370 1.274 . S
O369 Mg356 2.079 . S
O369 C368 1.245 . S
O370 Mg355 2.038 . S
O370 C368 1.274 . S
O371 Mg359 2.042 . S
O371 C374 1.241 . S
O372 Mg358 1.984 . S
O372 C374 1.280 . S
O373 Mg359 2.041 . S
O373 C377 1.277 . S
C374 O371 1.241 . S
C374 O372 1.280 . S
O375 Mg358 1.988 . S
O375 C377 1.245 . S
O376 C352 1.247 . S
O376 Mg358 2.061 . S
C377 O373 1.277 . S
C377 O375 1.245 . S
O378 C352 1.289 . S
O378 Mg355 2.238 . S
O378 Mg356 2.106 . S
O379 Mg356 2.079 . S
O379 C361 1.245 . S
O380 Mg359 2.038 . S
O380 C361 1.274 . S
H381 C389 0.929 . S
H382 C391 0.930 . S
H383 C393 0.930 . S
H384 C396 0.929 . S
H385 C399 0.930 . S
H386 C401 0.960 . S
H387 C401 0.960 . S
H388 C401 0.960 . S
C389 H381 0.929 . S
C389 C390 1.377 . S
C389 C391 1.384 . S
C390 C389 1.377 . S
C390 C396 1.390 . S
C391 H382 0.930 . S
C391 C389 1.384 . S
C391 C392 1.372 . S
C392 C391 1.372 . S
C392 C393 1.400 . S
C392 C397 1.490 . S
C393 H383 0.930 . S
C393 C392 1.400 . S
C393 C396 1.386 . S
H394 C410 0.930 . S
H395 C411 0.931 . S
C396 H384 0.929 . S
C396 C390 1.390 . S
C396 C393 1.386 . S
C397 C392 1.490 . S
C397 C399 1.395 . S
C397 C400 1.403 . S
H398 C404 0.930 . S
C399 H385 0.930 . S
C399 C397 1.395 . S
C399 C402 1.403 . S
C400 C397 1.403 . S
C400 C401 1.524 . S
C400 C404 1.400 . S
C401 H386 0.960 . S
C401 H387 0.960 . S
C401 H388 0.960 . S
C401 C400 1.524 . S
C402 C399 1.403 . S
C402 C403 1.392 . S
C402 C406 1.495 . S
C403 C402 1.392 . S
C403 C404 1.385 . S
C403 C405 1.478 . S
C404 H398 0.930 . S
C404 C400 1.400 . S
C404 C403 1.385 . S
C405 C403 1.478 . S
C405 C407 1.381 . S
C405 C411 1.383 . S
C406 C402 1.495 . S
C406 H412 0.959 . S
C406 H413 0.961 . S
C406 H414 0.960 . S
C407 C405 1.381 . S
C407 C408 1.394 . S
C407 H415 0.930 . S
C408 C407 1.394 . S
C408 C409 1.383 . S
C408 H416 0.929 . S
C409 C408 1.383 . S
C409 C410 1.377 . S
C410 H394 0.930 . S
C410 C409 1.377 . S
C410 C411 1.379 . S
C411 H395 0.931 . S
C411 C405 1.383 . S
C411 C410 1.379 . S
H412 C406 0.959 . S
H413 C406 0.961 . S
H414 C406 0.960 . S
H415 C407 0.930 . S
H416 C408 0.929 . S
H417 C425 0.929 . S
H418 C427 0.930 . S
H419 C429 0.930 . S
H420 C432 0.929 . S
H421 C435 0.930 . S
H422 C437 0.960 . S
H423 C437 0.960 . S
H424 C437 0.960 . S
C425 H417 0.929 . S
C425 C426 1.377 . S
C425 C427 1.384 . S
C426 C425 1.377 . S
C426 C432 1.390 . S
C427 H418 0.930 . S
C427 C425 1.384 . S
C427 C428 1.372 . S
C428 C427 1.372 . S
C428 C429 1.400 . S
C428 C433 1.490 . S
C429 H419 0.930 . S
C429 C428 1.400 . S
C429 C432 1.386 . S
H430 C446 0.930 . S
H431 C447 0.931 . S
C432 H420 0.929 . S
C432 C426 1.390 . S
C432 C429 1.386 . S
C433 C428 1.490 . S
C433 C435 1.395 . S
C433 C436 1.403 . S
H434 C440 0.930 . S
C435 H421 0.930 . S
C435 C433 1.395 . S
C435 C438 1.403 . S
C436 C433 1.403 . S
C436 C437 1.524 . S
C436 C440 1.400 . S
C437 H422 0.960 . S
C437 H423 0.960 . S
C437 H424 0.960 . S
C437 C436 1.524 . S
C438 C435 1.403 . S
C438 C439 1.392 . S
C438 C442 1.495 . S
C439 C438 1.392 . S
C439 C440 1.385 . S
C439 C441 1.478 . S
C440 H434 0.930 . S
C440 C436 1.400 . S
C440 C439 1.385 . S
C441 C439 1.478 . S
C441 C443 1.381 . S
C441 C447 1.383 . S
C442 C438 1.495 . S
C442 H448 0.959 . S
C442 H449 0.961 . S
C442 H450 0.960 . S
C443 C441 1.381 . S
C443 C444 1.394 . S
C443 H451 0.930 . S
C444 C443 1.394 . S
C444 C445 1.383 . S
C444 H452 0.929 . S
C445 C444 1.383 . S
C445 C446 1.377 . S
C446 H430 0.930 . S
C446 C445 1.377 . S
C446 C447 1.379 . S
C447 H431 0.931 . S
C447 C441 1.383 . S
C447 C446 1.379 . S
H448 C442 0.959 . S
H449 C442 0.961 . S
H450 C442 0.960 . S
H451 C443 0.930 . S
H452 C444 0.929 . S
H453 C461 0.929 . S
H454 C463 0.930 . S
H455 C465 0.930 . S
H456 C468 0.929 . S
H457 C471 0.930 . S
H458 C473 0.960 . S
H459 C473 0.960 . S
H460 C473 0.960 . S
C461 H453 0.929 . S
C461 C462 1.377 . S
C461 C463 1.384 . S
C462 C461 1.377 . S
C462 C468 1.390 . S
C463 H454 0.930 . S
C463 C461 1.384 . S
C463 C464 1.372 . S
C464 C463 1.372 . S
C464 C465 1.400 . S
C464 C469 1.490 . S
C465 H455 0.930 . S
C465 C464 1.400 . S
C465 C468 1.386 . S
H466 C482 0.930 . S
H467 C483 0.931 . S
C468 H456 0.929 . S
C468 C462 1.390 . S
C468 C465 1.386 . S
C469 C464 1.490 . S
C469 C471 1.395 . S
C469 C472 1.403 . S
H470 C476 0.930 . S
C471 H457 0.930 . S
C471 C469 1.395 . S
C471 C474 1.403 . S
C472 C469 1.403 . S
C472 C473 1.524 . S
C472 C476 1.400 . S
C473 H458 0.960 . S
C473 H459 0.960 . S
C473 H460 0.960 . S
C473 C472 1.524 . S
C474 C471 1.403 . S
C474 C475 1.392 . S
C474 C478 1.495 . S
C475 C474 1.392 . S
C475 C476 1.385 . S
C475 C477 1.478 . S
C476 H470 0.930 . S
C476 C472 1.400 . S
C476 C475 1.385 . S
C477 C475 1.478 . S
C477 C479 1.381 . S
C477 C483 1.383 . S
C478 C474 1.495 . S
C478 H484 0.959 . S
C478 H485 0.961 . S
C478 H486 0.960 . S
C479 C477 1.381 . S
C479 C480 1.394 . S
C479 H487 0.930 . S
C480 C479 1.394 . S
C480 C481 1.383 . S
C480 H488 0.929 . S
C481 C480 1.383 . S
C481 C482 1.377 . S
C482 H466 0.930 . S
C482 C481 1.377 . S
C482 C483 1.379 . S
C483 H467 0.931 . S
C483 C477 1.383 . S
C483 C482 1.379 . S
H484 C478 0.959 . S
H485 C478 0.961 . S
H486 C478 0.960 . S
H487 C479 0.930 . S
H488 C480 0.929 . S
H489 C497 0.929 . S
H490 C499 0.930 . S
H491 C501 0.930 . S
H492 C504 0.929 . S
H493 C507 0.930 . S
H494 C509 0.960 . S
H495 C509 0.960 . S
H496 C509 0.960 . S
C497 H489 0.929 . S
C497 C498 1.377 . S
C497 C499 1.384 . S
C498 C497 1.377 . S
C498 C504 1.390 . S
C499 H490 0.930 . S
C499 C497 1.384 . S
C499 C500 1.372 . S
C500 C499 1.372 . S
C500 C501 1.400 . S
C500 C505 1.490 . S
C501 H491 0.930 . S
C501 C500 1.400 . S
C501 C504 1.386 . S
H502 C518 0.930 . S
H503 C519 0.931 . S
C504 H492 0.929 . S
C504 C498 1.390 . S
C504 C501 1.386 . S
C505 C500 1.490 . S
C505 C507 1.395 . S
C505 C508 1.403 . S
H506 C512 0.930 . S
C507 H493 0.930 . S
C507 C505 1.395 . S
C507 C510 1.403 . S
C508 C505 1.403 . S
C508 C509 1.524 . S
C508 C512 1.400 . S
C509 H494 0.960 . S
C509 H495 0.960 . S
C509 H496 0.960 . S
C509 C508 1.524 . S
C510 C507 1.403 . S
C510 C511 1.392 . S
C510 C514 1.495 . S
C511 C510 1.392 . S
C511 C512 1.385 . S
C511 C513 1.478 . S
C512 H506 0.930 . S
C512 C508 1.400 . S
C512 C511 1.385 . S
C513 C511 1.478 . S
C513 C515 1.381 . S
C513 C519 1.383 . S
C514 C510 1.495 . S
C514 H520 0.959 . S
C514 H521 0.961 . S
C514 H522 0.960 . S
C515 C513 1.381 . S
C515 C516 1.394 . S
C515 H523 0.930 . S
C516 C515 1.394 . S
C516 C517 1.383 . S
C516 H524 0.929 . S
C517 C516 1.383 . S
C517 C518 1.377 . S
C518 H502 0.930 . S
C518 C517 1.377 . S
C518 C519 1.379 . S
C519 H503 0.931 . S
C519 C513 1.383 . S
C519 C518 1.379 . S
H520 C514 0.959 . S
H521 C514 0.961 . S
H522 C514 0.960 . S
H523 C515 0.930 . S
H524 C516 0.929 . S
H525 C533 0.929 . S
H526 C535 0.930 . S
H527 C537 0.930 . S
H528 C540 0.929 . S
H529 C543 0.930 . S
H530 C545 0.960 . S
H531 C545 0.960 . S
H532 C545 0.960 . S
C533 H525 0.929 . S
C533 C534 1.377 . S
C533 C535 1.384 . S
C534 C533 1.377 . S
C534 C540 1.390 . S
C535 H526 0.930 . S
C535 C533 1.384 . S
C535 C536 1.372 . S
C536 C535 1.372 . S
C536 C537 1.400 . S
C536 C541 1.490 . S
C537 H527 0.930 . S
C537 C536 1.400 . S
C537 C540 1.386 . S
H538 C554 0.930 . S
H539 C555 0.931 . S
C540 H528 0.929 . S
C540 C534 1.390 . S
C540 C537 1.386 . S
C541 C536 1.490 . S
C541 C543 1.395 . S
C541 C544 1.403 . S
H542 C548 0.930 . S
C543 H529 0.930 . S
C543 C541 1.395 . S
C543 C546 1.403 . S
C544 C541 1.403 . S
C544 C545 1.524 . S
C544 C548 1.400 . S
C545 H530 0.960 . S
C545 H531 0.960 . S
C545 H532 0.960 . S
C545 C544 1.524 . S
C546 C543 1.403 . S
C546 C547 1.392 . S
C546 C550 1.495 . S
C547 C546 1.392 . S
C547 C548 1.385 . S
C547 C549 1.478 . S
C548 H542 0.930 . S
C548 C544 1.400 . S
C548 C547 1.385 . S
C549 C547 1.478 . S
C549 C551 1.381 . S
C549 C555 1.383 . S
C550 C546 1.495 . S
C550 H556 0.959 . S
C550 H557 0.961 . S
C550 H558 0.960 . S
C551 C549 1.381 . S
C551 C552 1.394 . S
C551 H559 0.930 . S
C552 C551 1.394 . S
C552 C553 1.383 . S
C552 H560 0.929 . S
C553 C552 1.383 . S
C553 C554 1.377 . S
C554 H538 0.930 . S
C554 C553 1.377 . S
C554 C555 1.379 . S
C555 H539 0.931 . S
C555 C549 1.383 . S
C555 C554 1.379 . S
H556 C550 0.959 . S
H557 C550 0.961 . S
H558 C550 0.960 . S
H559 C551 0.930 . S
H560 C552 0.929 . S
H561 C569 0.929 . S
H562 C571 0.930 . S
H563 C573 0.930 . S
H564 C576 0.929 . S
H565 C579 0.930 . S
H566 C581 0.960 . S
H567 C581 0.960 . S
H568 C581 0.960 . S
C569 H561 0.929 . S
C569 C570 1.377 . S
C569 C571 1.384 . S
C570 C569 1.377 . S
C570 C576 1.390 . S
C571 H562 0.930 . S
C571 C569 1.384 . S
C571 C572 1.372 . S
C572 C571 1.372 . S
C572 C573 1.400 . S
C572 C577 1.490 . S
C573 H563 0.930 . S
C573 C572 1.400 . S
C573 C576 1.386 . S
H574 C590 0.930 . S
H575 C591 0.931 . S
C576 H564 0.929 . S
C576 C570 1.390 . S
C576 C573 1.386 . S
C577 C572 1.490 . S
C577 C579 1.395 . S
C577 C580 1.403 . S
H578 C584 0.930 . S
C579 H565 0.930 . S
C579 C577 1.395 . S
C579 C582 1.403 . S
C580 C577 1.403 . S
C580 C581 1.524 . S
C580 C584 1.400 . S
C581 H566 0.960 . S
C581 H567 0.960 . S
C581 H568 0.960 . S
C581 C580 1.524 . S
C582 C579 1.403 . S
C582 C583 1.392 . S
C582 C586 1.495 . S
C583 C582 1.392 . S
C583 C584 1.385 . S
C583 C585 1.478 . S
C584 H578 0.930 . S
C584 C580 1.400 . S
C584 C583 1.385 . S
C585 C583 1.478 . S
C585 C587 1.381 . S
C585 C591 1.383 . S
C586 C582 1.495 . S
C586 H592 0.959 . S
C586 H593 0.961 . S
C586 H594 0.960 . S
C587 C585 1.381 . S
C587 C588 1.394 . S
C587 H595 0.930 . S
C588 C587 1.394 . S
C588 C589 1.383 . S
C588 H596 0.929 . S
C589 C588 1.383 . S
C589 C590 1.377 . S
C590 H574 0.930 . S
C590 C589 1.377 . S
C590 C591 1.379 . S
C591 H575 0.931 . S
C591 C585 1.383 . S
C591 C590 1.379 . S
H592 C586 0.959 . S
H593 C586 0.961 . S
H594 C586 0.960 . S
H595 C587 0.930 . S
H596 C588 0.929 . S
H597 C605 0.929 . S
H598 C607 0.930 . S
H599 C609 0.930 . S
H600 C612 0.929 . S
H601 C615 0.930 . S
H602 C617 0.960 . S
H603 C617 0.960 . S
H604 C617 0.960 . S
C605 H597 0.929 . S
C605 C606 1.377 . S
C605 C607 1.384 . S
C606 C605 1.377 . S
C606 C612 1.390 . S
C607 H598 0.930 . S
C607 C605 1.384 . S
C607 C608 1.372 . S
C608 C607 1.372 . S
C608 C609 1.400 . S
C608 C613 1.490 . S
C609 H599 0.930 . S
C609 C608 1.400 . S
C609 C612 1.386 . S
H610 C626 0.930 . S
H611 C627 0.931 . S
C612 H600 0.929 . S
C612 C606 1.390 . S
C612 C609 1.386 . S
C613 C608 1.490 . S
C613 C615 1.395 . S
C613 C616 1.403 . S
H614 C620 0.930 . S
C615 H601 0.930 . S
C615 C613 1.395 . S
C615 C618 1.403 . S
C616 C613 1.403 . S
C616 C617 1.524 . S
C616 C620 1.400 . S
C617 H602 0.960 . S
C617 H603 0.960 . S
C617 H604 0.960 . S
C617 C616 1.524 . S
C618 C615 1.403 . S
C618 C619 1.392 . S
C618 C622 1.495 . S
C619 C618 1.392 . S
C619 C620 1.385 . S
C619 C621 1.478 . S
C620 H614 0.930 . S
C620 C616 1.400 . S
C620 C619 1.385 . S
C621 C619 1.478 . S
C621 C623 1.381 . S
C621 C627 1.383 . S
C622 C618 1.495 . S
C622 H628 0.959 . S
C622 H629 0.961 . S
C622 H630 0.960 . S
C623 C621 1.381 . S
C623 C624 1.394 . S
C623 H631 0.930 . S
C624 C623 1.394 . S
C624 C625 1.383 . S
C624 H632 0.929 . S
C625 C624 1.383 . S
C625 C626 1.377 . S
C626 H610 0.930 . S
C626 C625 1.377 . S
C626 C627 1.379 . S
C627 H611 0.931 . S
C627 C621 1.383 . S
C627 C626 1.379 . S
H628 C622 0.959 . S
H629 C622 0.961 . S
H630 C622 0.960 . S
H631 C623 0.930 . S
H632 C624 0.929 . S
H633 C641 0.929 . S
H634 C643 0.930 . S
H635 C645 0.930 . S
H636 C648 0.929 . S
H637 C651 0.930 . S
H638 C653 0.960 . S
H639 C653 0.960 . S
H640 C653 0.960 . S
C641 H633 0.929 . S
C641 C642 1.377 . S
C641 C643 1.384 . S
C642 C641 1.377 . S
C642 C648 1.390 . S
C643 H634 0.930 . S
C643 C641 1.384 . S
C643 C644 1.372 . S
C644 C643 1.372 . S
C644 C645 1.400 . S
C644 C649 1.490 . S
C645 H635 0.930 . S
C645 C644 1.400 . S
C645 C648 1.386 . S
H646 C662 0.930 . S
H647 C663 0.931 . S
C648 H636 0.929 . S
C648 C642 1.390 . S
C648 C645 1.386 . S
C649 C644 1.490 . S
C649 C651 1.395 . S
C649 C652 1.403 . S
H650 C656 0.930 . S
C651 H637 0.930 . S
C651 C649 1.395 . S
C651 C654 1.403 . S
C652 C649 1.403 . S
C652 C653 1.524 . S
C652 C656 1.400 . S
C653 H638 0.960 . S
C653 H639 0.960 . S
C653 H640 0.960 . S
C653 C652 1.524 . S
C654 C651 1.403 . S
C654 C655 1.392 . S
C654 C658 1.495 . S
C655 C654 1.392 . S
C655 C656 1.385 . S
C655 C657 1.478 . S
C656 H650 0.930 . S
C656 C652 1.400 . S
C656 C655 1.385 . S
C657 C655 1.478 . S
C657 C659 1.381 . S
C657 C663 1.383 . S
C658 C654 1.495 . S
C658 H664 0.959 . S
C658 H665 0.961 . S
C658 H666 0.960 . S
C659 C657 1.381 . S
C659 C660 1.394 . S
C659 H667 0.930 . S
C660 C659 1.394 . S
C660 C661 1.383 . S
C660 H668 0.929 . S
C661 C660 1.383 . S
C661 C662 1.377 . S
C662 H646 0.930 . S
C662 C661 1.377 . S
C662 C663 1.379 . S
C663 H647 0.931 . S
C663 C657 1.383 . S
C663 C662 1.379 . S
H664 C658 0.959 . S
H665 C658 0.961 . S
H666 C658 0.960 . S
H667 C659 0.930 . S
H668 C660 0.929 . S
H669 C677 0.929 . S
H670 C679 0.930 . S
H671 C681 0.930 . S
H672 C684 0.929 . S
H673 C687 0.930 . S
H674 C689 0.960 . S
H675 C689 0.960 . S
H676 C689 0.960 . S
C677 H669 0.929 . S
C677 C678 1.377 . S
C677 C679 1.384 . S
C678 C677 1.377 . S
C678 C684 1.390 . S
C679 H670 0.930 . S
C679 C677 1.384 . S
C679 C680 1.372 . S
C680 C679 1.372 . S
C680 C681 1.400 . S
C680 C685 1.490 . S
C681 H671 0.930 . S
C681 C680 1.400 . S
C681 C684 1.386 . S
H682 C698 0.930 . S
H683 C699 0.931 . S
C684 H672 0.929 . S
C684 C678 1.390 . S
C684 C681 1.386 . S
C685 C680 1.490 . S
C685 C687 1.395 . S
C685 C688 1.403 . S
H686 C692 0.930 . S
C687 H673 0.930 . S
C687 C685 1.395 . S
C687 C690 1.403 . S
C688 C685 1.403 . S
C688 C689 1.524 . S
C688 C692 1.400 . S
C689 H674 0.960 . S
C689 H675 0.960 . S
C689 H676 0.960 . S
C689 C688 1.524 . S
C690 C687 1.403 . S
C690 C691 1.392 . S
C690 C694 1.495 . S
C691 C690 1.392 . S
C691 C692 1.385 . S
C691 C693 1.478 . S
C692 H686 0.930 . S
C692 C688 1.400 . S
C692 C691 1.385 . S
C693 C691 1.478 . S
C693 C695 1.381 . S
C693 C699 1.383 . S
C694 C690 1.495 . S
C694 H700 0.959 . S
C694 H701 0.961 . S
C694 H702 0.960 . S
C695 C693 1.381 . S
C695 C696 1.394 . S
C695 H703 0.930 . S
C696 C695 1.394 . S
C696 C697 1.383 . S
C696 H704 0.929 . S
C697 C696 1.383 . S
C697 C698 1.377 . S
C698 H682 0.930 . S
C698 C697 1.377 . S
C698 C699 1.379 . S
C699 H683 0.931 . S
C699 C693 1.383 . S
C699 C698 1.379 . S
H700 C694 0.959 . S
H701 C694 0.961 . S
H702 C694 0.960 . S
H703 C695 0.930 . S
H704 C696 0.929 . S
H705 C713 0.929 . S
H706 C715 0.930 . S
H707 C717 0.930 1_556 S
H708 C720 0.929 . S
H709 C723 0.930 . S
H710 C725 0.960 . S
H711 C725 0.960 . S
H712 C725 0.960 . S
C713 H705 0.929 . S
C713 C714 1.377 . S
C713 C715 1.384 1_554 S
C714 C713 1.377 . S
C714 C720 1.390 . S
C715 H706 0.930 . S
C715 C713 1.384 1_556 S
C715 C716 1.372 . S
C716 C715 1.372 . S
C716 C717 1.400 1_556 S
C716 C721 1.490 . S
C717 H707 0.930 1_554 S
C717 C716 1.400 1_554 S
C717 C720 1.386 . S
H718 C734 0.930 . S
H719 C735 0.931 . S
C720 H708 0.929 . S
C720 C714 1.390 . S
C720 C717 1.386 . S
C721 C716 1.490 . S
C721 C723 1.395 . S
C721 C724 1.403 . S
H722 C728 0.930 . S
C723 H709 0.930 . S
C723 C721 1.395 . S
C723 C726 1.403 . S
C724 C721 1.403 . S
C724 C725 1.524 . S
C724 C728 1.400 . S
C725 H710 0.960 . S
C725 H711 0.960 . S
C725 H712 0.960 . S
C725 C724 1.524 . S
C726 C723 1.403 . S
C726 C727 1.392 . S
C726 C730 1.495 . S
C727 C726 1.392 . S
C727 C728 1.385 . S
C727 C729 1.478 . S
C728 H722 0.930 . S
C728 C724 1.400 . S
C728 C727 1.385 . S
C729 C727 1.478 . S
C729 C731 1.381 . S
C729 C735 1.383 . S
C730 C726 1.495 . S
C730 H736 0.959 . S
C730 H737 0.961 . S
C730 H738 0.960 . S
C731 C729 1.381 . S
C731 C732 1.394 . S
C731 H739 0.930 . S
C732 C731 1.394 . S
C732 C733 1.383 . S
C732 H740 0.929 . S
C733 C732 1.383 . S
C733 C734 1.377 . S
C734 H718 0.930 . S
C734 C733 1.377 . S
C734 C735 1.379 . S
C735 H719 0.931 . S
C735 C729 1.383 . S
C735 C734 1.379 . S
H736 C730 0.959 . S
H737 C730 0.961 . S
H738 C730 0.960 . S
H739 C731 0.930 . S
H740 C732 0.929 . S
H741 C749 0.929 . S
H742 C751 0.930 . S
H743 C753 0.930 . S
H744 C756 0.929 1_554 S
H745 C759 0.930 . S
H746 C761 0.960 . S
H747 C761 0.960 . S
H748 C761 0.960 . S
C749 H741 0.929 . S
C749 C750 1.377 . S
C749 C751 1.384 . S
C750 C749 1.377 . S
C750 C756 1.390 . S
C751 H742 0.930 . S
C751 C749 1.384 . S
C751 C752 1.372 . S
C752 C751 1.372 . S
C752 C753 1.400 . S
C752 C757 1.490 . S
C753 H743 0.930 . S
C753 C752 1.400 . S
C753 C756 1.386 . S
H754 C770 0.930 . S
H755 C771 0.931 . S
C756 H744 0.929 1_556 S
C756 C750 1.390 . S
C756 C753 1.386 . S
C757 C752 1.490 . S
C757 C759 1.395 . S
C757 C760 1.403 . S
H758 C764 0.930 . S
C759 H745 0.930 . S
C759 C757 1.395 . S
C759 C762 1.403 . S
C760 C757 1.403 . S
C760 C761 1.524 . S
C760 C764 1.400 . S
C761 H746 0.960 . S
C761 H747 0.960 . S
C761 H748 0.960 . S
C761 C760 1.524 . S
C762 C759 1.403 . S
C762 C763 1.392 . S
C762 C766 1.495 . S
C763 C762 1.392 . S
C763 C764 1.385 . S
C763 C765 1.478 . S
C764 H758 0.930 . S
C764 C760 1.400 . S
C764 C763 1.385 . S
C765 C763 1.478 . S
C765 C767 1.381 . S
C765 C771 1.383 . S
C766 C762 1.495 . S
C766 H772 0.959 . S
C766 H773 0.961 . S
C766 H774 0.960 . S
C767 C765 1.381 . S
C767 C768 1.394 . S
C767 H775 0.930 . S
C768 C767 1.394 . S
C768 C769 1.383 . S
C768 H776 0.929 . S
C769 C768 1.383 . S
C769 C770 1.377 . S
C770 H754 0.930 . S
C770 C769 1.377 . S
C770 C771 1.379 . S
C771 H755 0.931 . S
C771 C765 1.383 . S
C771 C770 1.379 . S
H772 C766 0.959 . S
H773 C766 0.961 . S
H774 C766 0.960 . S
H775 C767 0.930 . S
H776 C768 0.929 . S
H777 C785 0.929 . S
H778 C787 0.930 . S
H779 C789 0.930 . S
H780 C792 0.929 . S
H781 C795 0.930 . S
H782 C797 0.960 . S
H783 C797 0.960 . S
H784 C797 0.960 . S
C785 H777 0.929 . S
C785 C786 1.377 1_554 S
C785 C787 1.384 1_554 S
C786 C785 1.377 1_556 S
C786 C792 1.390 . S
C787 H778 0.930 . S
C787 C785 1.384 1_556 S
C787 C788 1.372 . S
C788 C787 1.372 . S
C788 C789 1.400 . S
C788 C793 1.490 . S
C789 H779 0.930 . S
C789 C788 1.400 . S
C789 C792 1.386 . S
H790 C806 0.930 . S
H791 C807 0.931 . S
C792 H780 0.929 . S
C792 C786 1.390 . S
C792 C789 1.386 . S
C793 C788 1.490 . S
C793 C795 1.395 . S
C793 C796 1.403 . S
H794 C800 0.930 . S
C795 H781 0.930 . S
C795 C793 1.395 . S
C795 C798 1.403 . S
C796 C793 1.403 . S
C796 C797 1.524 . S
C796 C800 1.400 . S
C797 H782 0.960 . S
C797 H783 0.960 . S
C797 H784 0.960 . S
C797 C796 1.524 . S
C798 C795 1.403 . S
C798 C799 1.392 . S
C798 C802 1.495 . S
C799 C798 1.392 . S
C799 C800 1.385 . S
C799 C801 1.478 . S
C800 H794 0.930 . S
C800 C796 1.400 . S
C800 C799 1.385 . S
C801 C799 1.478 . S
C801 C803 1.381 . S
C801 C807 1.383 . S
C802 C798 1.495 . S
C802 H808 0.959 . S
C802 H809 0.961 . S
C802 H810 0.960 . S
C803 C801 1.381 . S
C803 C804 1.394 . S
C803 H811 0.930 . S
C804 C803 1.394 . S
C804 C805 1.383 . S
C804 H812 0.929 . S
C805 C804 1.383 . S
C805 C806 1.377 . S
C806 H790 0.930 . S
C806 C805 1.377 . S
C806 C807 1.379 . S
C807 H791 0.931 . S
C807 C801 1.383 . S
C807 C806 1.379 . S
H808 C802 0.959 . S
H809 C802 0.961 . S
H810 C802 0.960 . S
H811 C803 0.930 . S
H812 C804 0.929 . S
H813 C821 0.929 . S
H814 C823 0.930 . S
H815 C825 0.930 . S
H816 C828 0.929 . S
H817 C831 0.930 . S
H818 C833 0.960 . S
H819 C833 0.960 . S
H820 C833 0.960 . S
C821 H813 0.929 . S
C821 C822 1.377 . S
C821 C823 1.384 . S
C822 C821 1.377 . S
C822 C828 1.390 . S
C823 H814 0.930 . S
C823 C821 1.384 . S
C823 C824 1.372 . S
C824 C823 1.372 . S
C824 C825 1.400 . S
C824 C829 1.490 . S
C825 H815 0.930 . S
C825 C824 1.400 . S
C825 C828 1.386 . S
H826 C842 0.930 . S
H827 C843 0.931 . S
C828 H816 0.929 . S
C828 C822 1.390 . S
C828 C825 1.386 . S
C829 C824 1.490 . S
C829 C831 1.395 . S
C829 C832 1.403 . S
H830 C836 0.930 . S
C831 H817 0.930 . S
C831 C829 1.395 . S
C831 C834 1.403 . S
C832 C829 1.403 . S
C832 C833 1.524 . S
C832 C836 1.400 . S
C833 H818 0.960 . S
C833 H819 0.960 . S
C833 H820 0.960 . S
C833 C832 1.524 . S
C834 C831 1.403 . S
C834 C835 1.392 . S
C834 C838 1.495 . S
C835 C834 1.392 . S
C835 C836 1.385 . S
C835 C837 1.478 . S
C836 H830 0.930 . S
C836 C832 1.400 . S
C836 C835 1.385 . S
C837 C835 1.478 . S
C837 C839 1.381 . S
C837 C843 1.383 . S
C838 C834 1.495 . S
C838 H844 0.959 . S
C838 H845 0.961 . S
C838 H846 0.960 . S
C839 C837 1.381 . S
C839 C840 1.394 . S
C839 H847 0.930 . S
C840 C839 1.394 . S
C840 C841 1.383 . S
C840 H848 0.929 . S
C841 C840 1.383 . S
C841 C842 1.377 . S
C842 H826 0.930 . S
C842 C841 1.377 . S
C842 C843 1.379 . S
C843 H827 0.931 . S
C843 C837 1.383 . S
C843 C842 1.379 . S
H844 C838 0.959 . S
H845 C838 0.961 . S
H846 C838 0.960 . S
H847 C839 0.930 . S
H848 C840 0.929 . S
H849 C857 0.929 . S
H850 C859 0.930 . S
H851 C861 0.930 . S
H852 C864 0.929 . S
H853 C867 0.930 . S
H854 C869 0.960 . S
H855 C869 0.960 . S
H856 C869 0.960 . S
C857 H849 0.929 . S
C857 C858 1.377 . S
C857 C859 1.384 . S
C858 C857 1.377 . S
C858 C864 1.390 . S
C859 H850 0.930 . S
C859 C857 1.384 . S
C859 C860 1.372 . S
C860 C859 1.372 . S
C860 C861 1.400 . S
C860 C865 1.490 . S
C861 H851 0.930 . S
C861 C860 1.400 . S
C861 C864 1.386 . S
H862 C878 0.930 . S
H863 C879 0.931 . S
C864 H852 0.929 . S
C864 C858 1.390 . S
C864 C861 1.386 . S
C865 C860 1.490 . S
C865 C867 1.395 . S
C865 C868 1.403 . S
H866 C872 0.930 . S
C867 H853 0.930 . S
C867 C865 1.395 . S
C867 C870 1.403 . S
C868 C865 1.403 . S
C868 C869 1.524 . S
C868 C872 1.400 . S
C869 H854 0.960 . S
C869 H855 0.960 . S
C869 H856 0.960 . S
C869 C868 1.524 . S
C870 C867 1.403 . S
C870 C871 1.392 . S
C870 C874 1.495 . S
C871 C870 1.392 . S
C871 C872 1.385 . S
C871 C873 1.478 . S
C872 H866 0.930 . S
C872 C868 1.400 . S
C872 C871 1.385 . S
C873 C871 1.478 . S
C873 C875 1.381 . S
C873 C879 1.383 . S
C874 C870 1.495 . S
C874 H880 0.959 . S
C874 H881 0.961 . S
C874 H882 0.960 . S
C875 C873 1.381 . S
C875 C876 1.394 . S
C875 H883 0.930 . S
C876 C875 1.394 . S
C876 C877 1.383 . S
C876 H884 0.929 . S
C877 C876 1.383 . S
C877 C878 1.377 . S
C878 H862 0.930 . S
C878 C877 1.377 . S
C878 C879 1.379 . S
C879 H863 0.931 . S
C879 C873 1.383 . S
C879 C878 1.379 . S
H880 C874 0.959 . S
H881 C874 0.961 . S
H882 C874 0.960 . S
H883 C875 0.930 . S
H884 C876 0.929 . S
H885 C893 0.929 . S
H886 C895 0.930 . S
H887 C897 0.930 . S
H888 C900 0.929 . S
H889 C903 0.930 . S
H890 C905 0.960 . S
H891 C905 0.960 1_554 S
H892 C905 0.960 . S
C893 H885 0.929 . S
C893 C894 1.377 . S
C893 C895 1.384 . S
C894 C893 1.377 . S
C894 C900 1.390 . S
C895 H886 0.930 . S
C895 C893 1.384 . S
C895 C896 1.372 1_554 S
C896 C895 1.372 1_556 S
C896 C897 1.400 . S
C896 C901 1.490 . S
C897 H887 0.930 . S
C897 C896 1.400 . S
C897 C900 1.386 1_556 S
H898 C914 0.930 . S
H899 C915 0.931 . S
C900 H888 0.929 . S
C900 C894 1.390 . S
C900 C897 1.386 1_554 S
C901 C896 1.490 . S
C901 C903 1.395 . S
C901 C904 1.403 . S
H902 C908 0.930 . S
C903 H889 0.930 . S
C903 C901 1.395 . S
C903 C906 1.403 . S
C904 C901 1.403 . S
C904 C905 1.524 . S
C904 C908 1.400 . S
C905 H890 0.960 . S
C905 H891 0.960 1_556 S
C905 H892 0.960 . S
C905 C904 1.524 . S
C906 C903 1.403 . S
C906 C907 1.392 . S
C906 C910 1.495 . S
C907 C906 1.392 . S
C907 C908 1.385 . S
C907 C909 1.478 . S
C908 H902 0.930 . S
C908 C904 1.400 . S
C908 C907 1.385 . S
C909 C907 1.478 . S
C909 C911 1.381 . S
C909 C915 1.383 . S
C910 C906 1.495 . S
C910 H916 0.959 . S
C910 H917 0.961 . S
C910 H918 0.960 . S
C911 C909 1.381 . S
C911 C912 1.394 . S
C911 H919 0.930 . S
C912 C911 1.394 . S
C912 C913 1.383 . S
C912 H920 0.929 . S
C913 C912 1.383 . S
C913 C914 1.377 . S
C914 H898 0.930 . S
C914 C913 1.377 . S
C914 C915 1.379 . S
C915 H899 0.931 . S
C915 C909 1.383 . S
C915 C914 1.379 . S
H916 C910 0.959 . S
H917 C910 0.961 . S
H918 C910 0.960 . S
H919 C911 0.930 . S
H920 C912 0.929 . S
H921 C929 0.929 . S
H922 C931 0.930 . S
H923 C933 0.930 . S
H924 C936 0.943 . S
H925 C939 0.930 . S
H926 C941 0.960 . S
H927 C941 0.960 . S
H928 C941 0.960 . S
C929 H921 0.929 . S
C929 C930 1.377 . S
C929 C931 1.384 . S
C930 C929 1.377 . S
C930 C936 1.389 1_556 S
C931 H922 0.930 . S
C931 C929 1.384 . S
C931 C932 1.372 . S
C932 C931 1.372 . S
C932 C933 1.400 . S
C932 C937 1.490 . S
C933 H923 0.930 . S
C933 C932 1.400 . S
C933 C936 1.373 1_556 S
H934 C950 0.930 . S
H935 C951 0.931 . S
C936 H924 0.943 . S
C936 C930 1.389 1_554 S
C936 C933 1.373 1_554 S
C937 C932 1.490 . S
C937 C939 1.395 . S
C937 C940 1.403 . S
H938 C944 0.930 . S
C939 H925 0.930 . S
C939 C937 1.395 . S
C939 C942 1.403 . S
C940 C937 1.403 . S
C940 C941 1.524 . S
C940 C944 1.400 . S
C941 H926 0.960 . S
C941 H927 0.960 . S
C941 H928 0.960 . S
C941 C940 1.524 . S
C942 C939 1.403 . S
C942 C943 1.392 . S
C942 C946 1.495 . S
C943 C942 1.392 . S
C943 C944 1.385 . S
C943 C945 1.478 . S
C944 H938 0.930 . S
C944 C940 1.400 . S
C944 C943 1.385 . S
C945 C943 1.478 . S
C945 C947 1.381 . S
C945 C951 1.383 . S
C946 C942 1.495 . S
C946 H952 0.959 . S
C946 H953 0.961 . S
C946 H954 0.960 . S
C947 C945 1.381 . S
C947 C948 1.394 . S
C947 H955 0.930 . S
C948 C947 1.394 . S
C948 C949 1.383 . S
C948 H956 0.929 . S
C949 C948 1.383 . S
C949 C950 1.377 . S
C950 H934 0.930 . S
C950 C949 1.377 . S
C950 C951 1.379 . S
C951 H935 0.931 . S
C951 C945 1.383 . S
C951 C950 1.379 . S
H952 C946 0.959 . S
H953 C946 0.961 . S
H954 C946 0.960 . S
H955 C947 0.930 . S
H956 C948 0.929 . S
H957 C965 0.929 1_554 S
H958 C967 0.930 . S
H959 C969 0.930 . S
H960 C972 0.929 . S
H961 C975 0.930 . S
H962 C977 0.960 . S
H963 C977 0.960 . S
H964 C977 0.960 . S
C965 H957 0.929 1_556 S
C965 C966 1.377 . S
C965 C967 1.384 . S
C966 C965 1.377 . S
C966 C972 1.390 . S
C967 H958 0.930 . S
C967 C965 1.384 . S
C967 C968 1.372 . S
C968 C967 1.372 . S
C968 C969 1.400 . S
C968 C973 1.490 . S
C969 H959 0.930 . S
C969 C968 1.400 . S
C969 C972 1.386 . S
H970 C986 0.930 . S
H971 C987 0.931 . S
C972 H960 0.929 . S
C972 C966 1.390 . S
C972 C969 1.386 . S
C973 C968 1.490 . S
C973 C975 1.395 . S
C973 C976 1.403 . S
H974 C980 0.930 . S
C975 H961 0.930 . S
C975 C973 1.395 . S
C975 C978 1.403 . S
C976 C973 1.403 . S
C976 C977 1.524 . S
C976 C980 1.400 . S
C977 H962 0.960 . S
C977 H963 0.960 . S
C977 H964 0.960 . S
C977 C976 1.524 . S
C978 C975 1.403 . S
C978 C979 1.392 . S
C978 C982 1.495 . S
C979 C978 1.392 . S
C979 C980 1.385 . S
C979 C981 1.478 . S
C980 H974 0.930 . S
C980 C976 1.400 . S
C980 C979 1.385 . S
C981 C979 1.478 . S
C981 C983 1.381 . S
C981 C987 1.383 . S
C982 C978 1.495 . S
C982 H988 0.959 . S
C982 H989 0.961 . S
C982 H990 0.960 . S
C983 C981 1.381 . S
C983 C984 1.394 . S
C983 H991 0.930 . S
C984 C983 1.394 . S
C984 C985 1.383 . S
C984 H992 0.929 . S
C985 C984 1.383 . S
C985 C986 1.377 . S
C986 H970 0.930 . S
C986 C985 1.377 . S
C986 C987 1.379 . S
C987 H971 0.931 . S
C987 C981 1.383 . S
C987 C986 1.379 . S
H988 C982 0.959 . S
H989 C982 0.961 . S
H990 C982 0.960 . S
H991 C983 0.930 . S
H992 C984 0.929 . S
H993 C1001 0.929 . S
H994 C1003 0.930 . S
H995 C1005 0.930 . S
H996 C1008 0.929 . S
H997 C1011 0.930 . S
H998 C1013 0.960 . S
H999 C1013 0.960 . S
H1000 C1013 0.960 . S
C1001 H993 0.929 . S
C1001 C1002 1.377 . S
C1001 C1003 1.384 . S
C1002 C1001 1.377 . S
C1002 C1008 1.390 . S
C1003 H994 0.930 . S
C1003 C1001 1.384 . S
C1003 C1004 1.372 . S
C1004 C1003 1.372 . S
C1004 C1005 1.400 . S
C1004 C1009 1.490 . S
C1005 H995 0.930 . S
C1005 C1004 1.400 . S
C1005 C1008 1.386 . S
H1006 C1022 0.930 . S
H1007 C1023 0.931 . S
C1008 H996 0.929 . S
C1008 C1002 1.390 . S
C1008 C1005 1.386 . S
C1009 C1004 1.490 . S
C1009 C1011 1.395 . S
C1009 C1012 1.403 . S
H1010 C1016 0.930 . S
C1011 H997 0.930 . S
C1011 C1009 1.395 . S
C1011 C1014 1.403 . S
C1012 C1009 1.403 . S
C1012 C1013 1.524 . S
C1012 C1016 1.400 . S
C1013 H998 0.960 . S
C1013 H999 0.960 . S
C1013 H1000 0.960 . S
C1013 C1012 1.524 . S
C1014 C1011 1.403 . S
C1014 C1015 1.392 . S
C1014 C1018 1.495 . S
C1015 C1014 1.392 . S
C1015 C1016 1.385 . S
C1015 C1017 1.478 . S
C1016 H1010 0.930 . S
C1016 C1012 1.400 . S
C1016 C1015 1.385 . S
C1017 C1015 1.478 . S
C1017 C1019 1.381 . S
C1017 C1023 1.383 . S
C1018 C1014 1.495 . S
C1018 H1024 0.959 . S
C1018 H1025 0.961 . S
C1018 H1026 0.960 . S
C1019 C1017 1.381 . S
C1019 C1020 1.394 . S
C1019 H1027 0.930 . S
C1020 C1019 1.394 . S
C1020 C1021 1.383 . S
C1020 H1028 0.929 . S
C1021 C1020 1.383 . S
C1021 C1022 1.377 . S
C1022 H1006 0.930 . S
C1022 C1021 1.377 . S
C1022 C1023 1.379 . S
C1023 H1007 0.931 . S
C1023 C1017 1.383 . S
C1023 C1022 1.379 . S
H1024 C1018 0.959 . S
H1025 C1018 0.961 . S
H1026 C1018 0.960 . S
H1027 C1019 0.930 . S
H1028 C1020 0.929 . S
H1029 C1037 0.929 . S
H1030 C1039 0.930 . S
H1031 C1041 0.930 . S
H1032 C1044 0.929 . S
H1033 C1047 0.930 . S
H1034 C1049 0.960 . S
H1035 C1049 0.960 . S
H1036 C1049 0.960 . S
C1037 H1029 0.929 . S
C1037 C1038 1.377 . S
C1037 C1039 1.384 . S
C1038 C1037 1.377 . S
C1038 C1044 1.390 . S
C1039 H1030 0.930 . S
C1039 C1037 1.384 . S
C1039 C1040 1.372 . S
C1040 C1039 1.372 . S
C1040 C1041 1.400 . S
C1040 C1045 1.490 . S
C1041 H1031 0.930 . S
C1041 C1040 1.400 . S
C1041 C1044 1.386 . S
H1042 C1058 0.930 . S
H1043 C1059 0.931 . S
C1044 H1032 0.929 . S
C1044 C1038 1.390 . S
C1044 C1041 1.386 . S
C1045 C1040 1.490 . S
C1045 C1047 1.395 . S
C1045 C1048 1.403 . S
H1046 C1052 0.930 . S
C1047 H1033 0.930 . S
C1047 C1045 1.395 . S
C1047 C1050 1.403 . S
C1048 C1045 1.403 . S
C1048 C1049 1.524 . S
C1048 C1052 1.400 . S
C1049 H1034 0.960 . S
C1049 H1035 0.960 . S
C1049 H1036 0.960 . S
C1049 C1048 1.524 . S
C1050 C1047 1.403 . S
C1050 C1051 1.392 . S
C1050 C1054 1.495 . S
C1051 C1050 1.392 . S
C1051 C1052 1.385 . S
C1051 C1053 1.478 . S
C1052 H1046 0.930 . S
C1052 C1048 1.400 . S
C1052 C1051 1.385 . S
C1053 C1051 1.478 . S
C1053 C1055 1.381 . S
C1053 C1059 1.383 . S
C1054 C1050 1.495 . S
C1054 H1060 0.959 . S
C1054 H1061 0.961 . S
C1054 H1062 0.960 . S
C1055 C1053 1.381 . S
C1055 C1056 1.394 . S
C1055 H1063 0.930 . S
C1056 C1055 1.394 . S
C1056 C1057 1.383 . S
C1056 H1064 0.929 . S
C1057 C1056 1.383 . S
C1057 C1058 1.377 . S
C1058 H1042 0.930 . S
C1058 C1057 1.377 . S
C1058 C1059 1.379 . S
C1059 H1043 0.931 . S
C1059 C1053 1.383 . S
C1059 C1058 1.379 . S
H1060 C1054 0.959 . S
H1061 C1054 0.961 . S
H1062 C1054 0.960 . S
H1063 C1055 0.930 . S
H1064 C1056 0.929 . S
H1065 C1073 0.929 . S
H1066 C1075 0.930 . S
H1067 C1077 0.930 . S
H1068 C1080 0.929 . S
H1069 C1083 0.930 . S
H1070 C1085 0.960 . S
H1071 C1085 0.960 . S
H1072 C1085 0.960 . S
C1073 H1065 0.929 . S
C1073 C1074 1.377 . S
C1073 C1075 1.384 . S
C1074 C1073 1.377 . S
C1074 C1080 1.390 . S
C1075 H1066 0.930 . S
C1075 C1073 1.384 . S
C1075 C1076 1.372 . S
C1076 C1075 1.372 . S
C1076 C1077 1.400 . S
C1076 C1081 1.490 . S
C1077 H1067 0.930 . S
C1077 C1076 1.400 . S
C1077 C1080 1.386 . S
H1078 C1094 0.930 . S
H1079 C1095 0.931 . S
C1080 H1068 0.929 . S
C1080 C1074 1.390 . S
C1080 C1077 1.386 . S
C1081 C1076 1.490 . S
C1081 C1083 1.395 . S
C1081 C1084 1.403 . S
H1082 C1088 0.930 . S
C1083 H1069 0.930 . S
C1083 C1081 1.395 . S
C1083 C1086 1.403 . S
C1084 C1081 1.403 . S
C1084 C1085 1.524 . S
C1084 C1088 1.400 . S
C1085 H1070 0.960 . S
C1085 H1071 0.960 . S
C1085 H1072 0.960 . S
C1085 C1084 1.524 . S
C1086 C1083 1.403 . S
C1086 C1087 1.392 . S
C1086 C1090 1.495 . S
C1087 C1086 1.392 . S
C1087 C1088 1.385 . S
C1087 C1089 1.478 . S
C1088 H1082 0.930 . S
C1088 C1084 1.400 . S
C1088 C1087 1.385 . S
C1089 C1087 1.478 . S
C1089 C1091 1.381 . S
C1089 C1095 1.383 . S
C1090 C1086 1.495 . S
C1090 H1096 0.959 . S
C1090 H1097 0.961 . S
C1090 H1098 0.960 . S
C1091 C1089 1.381 . S
C1091 C1092 1.394 . S
C1091 H1099 0.930 . S
C1092 C1091 1.394 . S
C1092 C1093 1.383 . S
C1092 H1100 0.929 . S
C1093 C1092 1.383 . S
C1093 C1094 1.377 . S
C1094 H1078 0.930 . S
C1094 C1093 1.377 . S
C1094 C1095 1.379 . S
C1095 H1079 0.931 . S
C1095 C1089 1.383 . S
C1095 C1094 1.379 . S
H1096 C1090 0.959 . S
H1097 C1090 0.961 . S
H1098 C1090 0.960 . S
H1099 C1091 0.930 . S
H1100 C1092 0.929 . S
H1101 C1109 0.929 . S
H1102 C1111 0.930 . S
H1103 C1113 0.930 . S
H1104 C1116 0.929 . S
H1105 C1119 0.930 . S
H1106 C1121 0.960 . S
H1107 C1121 0.960 . S
H1108 C1121 0.960 . S
C1109 H1101 0.929 . S
C1109 C1110 1.377 . S
C1109 C1111 1.384 . S
C1110 C1109 1.377 . S
C1110 C1116 1.390 . S
C1111 H1102 0.930 . S
C1111 C1109 1.384 . S
C1111 C1112 1.372 . S
C1112 C1111 1.372 . S
C1112 C1113 1.400 . S
C1112 C1117 1.490 . S
C1113 H1103 0.930 . S
C1113 C1112 1.400 . S
C1113 C1116 1.386 . S
H1114 C1130 0.930 . S
H1115 C1131 0.931 . S
C1116 H1104 0.929 . S
C1116 C1110 1.390 . S
C1116 C1113 1.386 . S
C1117 C1112 1.490 . S
C1117 C1119 1.395 . S
C1117 C1120 1.403 . S
H1118 C1124 0.930 . S
C1119 H1105 0.930 . S
C1119 C1117 1.395 . S
C1119 C1122 1.403 . S
C1120 C1117 1.403 . S
C1120 C1121 1.524 . S
C1120 C1124 1.400 . S
C1121 H1106 0.960 . S
C1121 H1107 0.960 . S
C1121 H1108 0.960 . S
C1121 C1120 1.524 . S
C1122 C1119 1.403 . S
C1122 C1123 1.392 . S
C1122 C1126 1.495 . S
C1123 C1122 1.392 . S
C1123 C1124 1.385 . S
C1123 C1125 1.478 . S
C1124 H1118 0.930 . S
C1124 C1120 1.400 . S
C1124 C1123 1.385 . S
C1125 C1123 1.478 . S
C1125 C1127 1.381 . S
C1125 C1131 1.383 . S
C1126 C1122 1.495 . S
C1126 H1132 0.959 . S
C1126 H1133 0.961 . S
C1126 H1134 0.960 . S
C1127 C1125 1.381 . S
C1127 C1128 1.394 . S
C1127 H1135 0.930 . S
C1128 C1127 1.394 . S
C1128 C1129 1.383 . S
C1128 H1136 0.929 . S
C1129 C1128 1.383 . S
C1129 C1130 1.377 . S
C1130 H1114 0.930 . S
C1130 C1129 1.377 . S
C1130 C1131 1.379 . S
C1131 H1115 0.931 . S
C1131 C1125 1.383 . S
C1131 C1130 1.379 . S
H1132 C1126 0.959 . S
H1133 C1126 0.961 . S
H1134 C1126 0.960 . S
H1135 C1127 0.930 . S
H1136 C1128 0.929 . S
H1137 C1145 0.929 . S
H1138 C1147 0.930 . S
H1139 C1149 0.930 . S
H1140 C1152 0.929 . S
H1141 C1155 0.930 . S
H1142 C1157 0.960 . S
H1143 C1157 0.960 . S
H1144 C1157 0.960 . S
C1145 H1137 0.929 . S
C1145 C1146 1.377 . S
C1145 C1147 1.384 . S
C1146 C1145 1.377 . S
C1146 C1152 1.390 . S
C1147 H1138 0.930 . S
C1147 C1145 1.384 . S
C1147 C1148 1.372 . S
C1148 C1147 1.372 . S
C1148 C1149 1.400 . S
C1148 C1153 1.490 . S
C1149 H1139 0.930 . S
C1149 C1148 1.400 . S
C1149 C1152 1.386 . S
H1150 C1166 0.930 . S
H1151 C1167 0.931 . S
C1152 H1140 0.929 . S
C1152 C1146 1.390 . S
C1152 C1149 1.386 . S
C1153 C1148 1.490 . S
C1153 C1155 1.395 . S
C1153 C1156 1.403 . S
H1154 C1160 0.930 . S
C1155 H1141 0.930 . S
C1155 C1153 1.395 . S
C1155 C1158 1.403 . S
C1156 C1153 1.403 . S
C1156 C1157 1.524 . S
C1156 C1160 1.400 . S
C1157 H1142 0.960 . S
C1157 H1143 0.960 . S
C1157 H1144 0.960 . S
C1157 C1156 1.524 . S
C1158 C1155 1.403 . S
C1158 C1159 1.392 . S
C1158 C1162 1.495 . S
C1159 C1158 1.392 . S
C1159 C1160 1.385 . S
C1159 C1161 1.478 . S
C1160 H1154 0.930 . S
C1160 C1156 1.400 . S
C1160 C1159 1.385 . S
C1161 C1159 1.478 . S
C1161 C1163 1.381 . S
C1161 C1167 1.383 . S
C1162 C1158 1.495 . S
C1162 H1168 0.959 . S
C1162 H1169 0.961 . S
C1162 H1170 0.960 . S
C1163 C1161 1.381 . S
C1163 C1164 1.394 . S
C1163 H1171 0.930 . S
C1164 C1163 1.394 . S
C1164 C1165 1.383 . S
C1164 H1172 0.929 . S
C1165 C1164 1.383 . S
C1165 C1166 1.377 . S
C1166 H1150 0.930 . S
C1166 C1165 1.377 . S
C1166 C1167 1.379 . S
C1167 H1151 0.931 . S
C1167 C1161 1.383 . S
C1167 C1166 1.379 . S
H1168 C1162 0.959 . S
H1169 C1162 0.961 . S
H1170 C1162 0.960 . S
H1171 C1163 0.930 . S
H1172 C1164 0.929 . S
H1173 C1181 0.929 . S
H1174 C1183 0.930 . S
H1175 C1185 0.930 . S
H1176 C1188 0.929 . S
H1177 C1191 0.930 . S
H1178 C1193 0.960 . S
H1179 C1193 0.960 . S
H1180 C1193 0.960 . S
C1181 H1173 0.929 . S
C1181 C1182 1.377 . S
C1181 C1183 1.384 . S
C1182 C1181 1.377 . S
C1182 C1188 1.390 . S
C1183 H1174 0.930 . S
C1183 C1181 1.384 . S
C1183 C1184 1.372 . S
C1184 C1183 1.372 . S
C1184 C1185 1.400 . S
C1184 C1189 1.490 . S
C1185 H1175 0.930 . S
C1185 C1184 1.400 . S
C1185 C1188 1.386 . S
H1186 C1202 0.930 . S
H1187 C1203 0.931 . S
C1188 H1176 0.929 . S
C1188 C1182 1.390 . S
C1188 C1185 1.386 . S
C1189 C1184 1.490 . S
C1189 C1191 1.395 . S
C1189 C1192 1.403 . S
H1190 C1196 0.930 . S
C1191 H1177 0.930 . S
C1191 C1189 1.395 . S
C1191 C1194 1.403 . S
C1192 C1189 1.403 . S
C1192 C1193 1.524 . S
C1192 C1196 1.400 . S
C1193 H1178 0.960 . S
C1193 H1179 0.960 . S
C1193 H1180 0.960 . S
C1193 C1192 1.524 . S
C1194 C1191 1.403 . S
C1194 C1195 1.392 . S
C1194 C1198 1.495 . S
C1195 C1194 1.392 . S
C1195 C1196 1.385 . S
C1195 C1197 1.478 . S
C1196 H1190 0.930 . S
C1196 C1192 1.400 . S
C1196 C1195 1.385 . S
C1197 C1195 1.478 . S
C1197 C1199 1.381 . S
C1197 C1203 1.383 . S
C1198 C1194 1.495 . S
C1198 H1204 0.959 . S
C1198 H1205 0.961 . S
C1198 H1206 0.960 . S
C1199 C1197 1.381 . S
C1199 C1200 1.394 . S
C1199 H1207 0.930 . S
C1200 C1199 1.394 . S
C1200 C1201 1.383 . S
C1200 H1208 0.929 . S
C1201 C1200 1.383 . S
C1201 C1202 1.377 . S
C1202 H1186 0.930 . S
C1202 C1201 1.377 . S
C1202 C1203 1.379 . S
C1203 H1187 0.931 . S
C1203 C1197 1.383 . S
C1203 C1202 1.379 . S
H1204 C1198 0.959 . S
H1205 C1198 0.961 . S
H1206 C1198 0.960 . S
H1207 C1199 0.930 . S
H1208 C1200 0.929 . S
H1209 C1217 0.929 . S
H1210 C1219 0.930 . S
H1211 C1221 0.930 . S
H1212 C1224 0.929 . S
H1213 C1227 0.930 . S
H1214 C1229 0.960 . S
H1215 C1229 0.960 . S
H1216 C1229 0.960 . S
C1217 H1209 0.929 . S
C1217 C1218 1.377 . S
C1217 C1219 1.384 . S
C1218 C1217 1.377 . S
C1218 C1224 1.390 . S
C1219 H1210 0.930 . S
C1219 C1217 1.384 . S
C1219 C1220 1.372 . S
C1220 C1219 1.372 . S
C1220 C1221 1.400 . S
C1220 C1225 1.490 . S
C1221 H1211 0.930 . S
C1221 C1220 1.400 . S
C1221 C1224 1.386 . S
H1222 C1238 0.930 . S
H1223 C1239 0.931 . S
C1224 H1212 0.929 . S
C1224 C1218 1.390 . S
C1224 C1221 1.386 . S
C1225 C1220 1.490 . S
C1225 C1227 1.395 . S
C1225 C1228 1.403 . S
H1226 C1232 0.930 . S
C1227 H1213 0.930 . S
C1227 C1225 1.395 . S
C1227 C1230 1.403 . S
C1228 C1225 1.403 . S
C1228 C1229 1.524 . S
C1228 C1232 1.400 . S
C1229 H1214 0.960 . S
C1229 H1215 0.960 . S
C1229 H1216 0.960 . S
C1229 C1228 1.524 . S
C1230 C1227 1.403 . S
C1230 C1231 1.392 . S
C1230 C1234 1.495 . S
C1231 C1230 1.392 . S
C1231 C1232 1.385 . S
C1231 C1233 1.478 . S
C1232 H1226 0.930 . S
C1232 C1228 1.400 . S
C1232 C1231 1.385 . S
C1233 C1231 1.478 . S
C1233 C1235 1.381 . S
C1233 C1239 1.383 . S
C1234 C1230 1.495 . S
C1234 H1240 0.959 . S
C1234 H1241 0.961 . S
C1234 H1242 0.960 . S
C1235 C1233 1.381 . S
C1235 C1236 1.394 . S
C1235 H1243 0.930 . S
C1236 C1235 1.394 . S
C1236 C1237 1.383 . S
C1236 H1244 0.929 . S
C1237 C1236 1.383 . S
C1237 C1238 1.377 . S
C1238 H1222 0.930 . S
C1238 C1237 1.377 . S
C1238 C1239 1.379 . S
C1239 H1223 0.931 . S
C1239 C1233 1.383 . S
C1239 C1238 1.379 . S
H1240 C1234 0.959 . S
H1241 C1234 0.961 . S
H1242 C1234 0.960 . S
H1243 C1235 0.930 . S
H1244 C1236 0.929 . S
C390 C45 1.903 . S
C409 C299 1.798 . S
C426 C84 1.724 . S
C445 C346 1.702 . S
C481 C350 1.909 . S
C462 C126 1.963 . S
C517 C315 1.610 . S
C498 C165 1.632 . S
C534 C222 1.773 . S
C553 C330 1.719 . S
C589 C352 0.943 . S
C570 C276 0.937 . S
C625 C321 1.324 . S
C606 C141 1.421 . S
C642 C180 1.412 . S
C661 C361 1.342 . S
C697 C290 1.267 . S
C678 C237 1.308 . S
C714 C261 1.550 . S
C733 C319 1.522 . S
C750 C30 2.041 1_556 S
C769 C377 2.013 . S
C805 C288 1.570 . S
C786 C69 1.629 1_556 S
C841 C306 1.805 . S
C822 C174 1.905 . S
C877 C320 1.666 . S
C858 C213 1.725 . S
C913 C374 1.936 . S
C894 C285 1.961 . S
C949 C289 1.571 . S
C930 C36 1.630 1_556 S
C985 C337 1.748 . S
C966 C93 1.776 1_556 S
C1002 C117 0.936 . S
C1021 C360 0.866 . S
C1057 C329 1.328 . S
C1038 C270 1.423 . S
C1093 C368 1.395 . S
C1074 C21 1.412 . S
C1129 C298 1.267 . S
C1110 C78 1.309 . S
C1165 C343 1.487 . S
C1146 C132 1.549 . S
C1182 C189 2.044 . S
C1201 C351 2.024 . S
C1218 C228 1.629 . S
C1237 C312 1.597 . S
