# Generated by pormake.
# Topology pyr, (3,6)-cn, num edge types: 1
# Building blocks:
#     Node 0, Type 0, BuildingBlock: BELTOD_clean_linker_0, # of connection points: 3
#     Node 1, Type 0, BuildingBlock: BELTOD_clean_linker_0, # of connection points: 3
#     Node 2, Type 0, BuildingBlock: BELTOD_clean_linker_0, # of connection points: 3
#     Node 3, Type 0, BuildingBlock: BELTOD_clean_linker_0, # of connection points: 3
#     Node 4, Type 0, BuildingBlock: BELTOD_clean_linker_0, # of connection points: 3
#     Node 5, Type 0, BuildingBlock: BELTOD_clean_linker_0, # of connection points: 3
#     Node 6, Type 0, BuildingBlock: BELTOD_clean_linker_0, # of connection points: 3
#     Node 7, Type 0, BuildingBlock: BELTOD_clean_linker_0, # of connection points: 3
#     Node 8, Type 1, BuildingBlock: BETFEN_clean_sbu_0, # of connection points: 6
#     Node 9, Type 1, BuildingBlock: BETFEN_clean_sbu_0, # of connection points: 6
#     Node 10, Type 1, BuildingBlock: BETFEN_clean_sbu_0, # of connection points: 6
#     Node 11, Type 1, BuildingBlock: BETFEN_clean_sbu_0, # of connection points: 6
#     Edge 12, Type (0, 1), BuildingBlock: ZUJKAS_clean_linker_0, # of connection points: 2
#     Edge 13, Type (0, 1), BuildingBlock: ZUJKAS_clean_linker_0, # of connection points: 2
#     Edge 14, Type (0, 1), BuildingBlock: ZUJKAS_clean_linker_0, # of connection points: 2
#     Edge 15, Type (0, 1), BuildingBlock: ZUJKAS_clean_linker_0, # of connection points: 2
#     Edge 16, Type (0, 1), BuildingBlock: ZUJKAS_clean_linker_0, # of connection points: 2
#     Edge 17, Type (0, 1), BuildingBlock: ZUJKAS_clean_linker_0, # of connection points: 2
#     Edge 18, Type (0, 1), BuildingBlock: ZUJKAS_clean_linker_0, # of connection points: 2
#     Edge 19, Type (0, 1), BuildingBlock: ZUJKAS_clean_linker_0, # of connection points: 2
#     Edge 20, Type (0, 1), BuildingBlock: ZUJKAS_clean_linker_0, # of connection points: 2
#     Edge 21, Type (0, 1), BuildingBlock: ZUJKAS_clean_linker_0, # of connection points: 2
#     Edge 22, Type (0, 1), BuildingBlock: ZUJKAS_clean_linker_0, # of connection points: 2
#     Edge 23, Type (0, 1), BuildingBlock: ZUJKAS_clean_linker_0, # of connection points: 2
#     Edge 24, Type (0, 1), BuildingBlock: ZUJKAS_clean_linker_0, # of connection points: 2
#     Edge 25, Type (0, 1), BuildingBlock: ZUJKAS_clean_linker_0, # of connection points: 2
#     Edge 26, Type (0, 1), BuildingBlock: ZUJKAS_clean_linker_0, # of connection points: 2
#     Edge 27, Type (0, 1), BuildingBlock: ZUJKAS_clean_linker_0, # of connection points: 2
#     Edge 28, Type (0, 1), BuildingBlock: ZUJKAS_clean_linker_0, # of connection points: 2
#     Edge 29, Type (0, 1), BuildingBlock: ZUJKAS_clean_linker_0, # of connection points: 2
#     Edge 30, Type (0, 1), BuildingBlock: ZUJKAS_clean_linker_0, # of connection points: 2
#     Edge 31, Type (0, 1), BuildingBlock: ZUJKAS_clean_linker_0, # of connection points: 2
#     Edge 32, Type (0, 1), BuildingBlock: ZUJKAS_clean_linker_0, # of connection points: 2
#     Edge 33, Type (0, 1), BuildingBlock: ZUJKAS_clean_linker_0, # of connection points: 2
#     Edge 34, Type (0, 1), BuildingBlock: ZUJKAS_clean_linker_0, # of connection points: 2
#     Edge 35, Type (0, 1), BuildingBlock: ZUJKAS_clean_linker_0, # of connection points: 2
# Relax obj value: 0.116
# Max RMSD: 0.222
# Mean RMSD: 0.107
data_MOF--net-pyr--node1-BETFEN_clean_sbu_0--node2-BELTOD_clean_linker_0--edge1-ZUJKAS_clean_linker_0
_symmetry_space_group_name_H-M    P1
_symmetry_Int_Tables_number       1
_symmetry_cell_setting            triclinic
loop_
_symmetry_equiv_pos_as_xyz
'x, y, z'
_cell_length_a     52.671878
_cell_length_b     57.29952
_cell_length_c     53.883147
_cell_angle_alpha  91.234565
_cell_angle_beta   98.135937
_cell_angle_gamma 105.81691
loop_
_atom_site_label
_atom_site_type_symbol
_atom_site_fract_x
_atom_site_fract_y
_atom_site_fract_z
_atom_type_partial_charge
P0 P 0.37142 0.33876 0.29861 0.0
H1 H 0.42104 0.3418 0.27892 0.0
H2 H 0.43905 0.31092 0.26142 0.0
H3 H 0.37004 0.25485 0.27586 0.0
H4 H 0.35252 0.2855 0.29347 0.0
H5 H 0.35656 0.3839 0.29269 0.0
H6 H 0.33001 0.39825 0.25854 0.0
H7 H 0.32365 0.33365 0.21242 0.0
H8 H 0.34968 0.31925 0.24674 0.0
H9 H 0.37644 0.32911 0.35177 0.0
H10 H 0.31335 0.31748 0.28849 0.0
O11 O 0.39548 0.36121 0.31496 0.0
H12 H 0.34463 0.30599 0.3774 0.0
H13 H 0.28173 0.29399 0.31363 0.0
C14 C 0.38576 0.31594 0.28798 0.0
C15 C 0.41008 0.32281 0.27867 0.0
C16 C 0.42022 0.30518 0.26852 0.0
C17 C 0.40607 0.28041 0.26744 0.0
C18 C 0.38175 0.27369 0.27693 0.0
C19 C 0.37164 0.29129 0.28698 0.0
C20 C 0.35546 0.35075 0.27212 0.0
C21 C 0.34988 0.37309 0.27504 0.0
C22 C 0.33477 0.38128 0.25547 0.0
C23 C 0.32477 0.3671 0.23273 0.0
C24 C 0.33091 0.34491 0.22975 0.0
C25 C 0.34602 0.33676 0.24932 0.0
C26 C 0.34719 0.3254 0.3184 0.0
C27 C 0.35565 0.32199 0.34355 0.0
C28 C 0.33749 0.30858 0.35808 0.0
C29 C 0.31061 0.2981 0.34756 0.0
C30 C 0.30213 0.30215 0.32249 0.0
C31 C 0.32028 0.3156 0.30803 0.0
P32 P 0.30773 0.84559 0.66887 0.0
H33 H 0.36108 0.87191 0.69397 0.0
H34 H 0.37925 0.88519 0.73782 0.0
H35 H 0.30239 0.85072 0.75927 0.0
H36 H 0.28455 0.83703 0.71532 0.0
H37 H 0.30345 0.82001 0.62057 0.0
H38 H 0.31212 0.78184 0.60878 0.0
H39 H 0.32641 0.76767 0.68729 0.0
H40 H 0.31647 0.80514 0.69877 0.0
H41 H 0.28521 0.88241 0.68681 0.0
H42 H 0.25802 0.8183 0.63605 0.0
O43 O 0.3264 0.86487 0.65143 0.0
H44 H 0.24251 0.89121 0.67551 0.0
H45 H 0.21515 0.82726 0.62437 0.0
C46 C 0.32133 0.85406 0.7014 0.0
C47 C 0.34816 0.86721 0.70811 0.0
C48 C 0.35848 0.87485 0.73318 0.0
C49 C 0.34215 0.86932 0.75199 0.0
C50 C 0.31551 0.85523 0.74526 0.0
C51 C 0.30522 0.84758 0.72015 0.0
C52 C 0.30955 0.81556 0.66051 0.0
C53 C 0.30788 0.80839 0.63519 0.0
C54 C 0.31308 0.78665 0.6285 0.0
C55 C 0.32041 0.77181 0.64709 0.0
C56 C 0.32064 0.77848 0.67243 0.0
C57 C 0.31515 0.80012 0.67907 0.0
C58 C 0.27467 0.84943 0.66269 0.0
C59 C 0.26981 0.86988 0.67367 0.0
C60 C 0.24535 0.87489 0.6672 0.0
C61 C 0.22541 0.85982 0.64919 0.0
C62 C 0.23018 0.83918 0.63832 0.0
C63 C 0.25466 0.83401 0.64506 0.0
P64 P 0.66683 0.29755 0.79487 0.0
H65 H 0.71492 0.28994 0.82325 0.0
H66 H 0.75152 0.31611 0.85293 0.0
H67 H 0.71465 0.37478 0.84338 0.0
H68 H 0.6778 0.34826 0.81414 0.0
H69 H 0.62714 0.25054 0.78286 0.0
H70 H 0.60011 0.22227 0.80872 0.0
H71 H 0.62717 0.27566 0.87155 0.0
H72 H 0.65417 0.30372 0.84568 0.0
H73 H 0.68847 0.32455 0.75444 0.0
H74 H 0.61563 0.3104 0.78642 0.0
O75 O 0.67923 0.27901 0.77898 0.0
H76 H 0.67198 0.3503 0.72441 0.0
H77 H 0.59896 0.33648 0.75643 0.0
C78 C 0.69403 0.31734 0.81608 0.0
C79 C 0.71485 0.3085 0.82741 0.0
C80 C 0.73579 0.32351 0.84431 0.0
C81 C 0.73617 0.34764 0.85034 0.0
C82 C 0.71493 0.35628 0.83924 0.0
C83 C 0.69398 0.34121 0.82232 0.0
C84 C 0.64306 0.27902 0.81247 0.0
C85 C 0.6269 0.25628 0.80209 0.0
C86 C 0.61139 0.24017 0.81687 0.0
C87 C 0.61182 0.24658 0.84232 0.0
C88 C 0.62684 0.27 0.85217 0.0
C89 C 0.64221 0.28612 0.83733 0.0
C90 C 0.65314 0.31537 0.77239 0.0
C91 C 0.66882 0.32692 0.75487 0.0
C92 C 0.65946 0.34181 0.73786 0.0
C93 C 0.63419 0.34553 0.73808 0.0
C94 C 0.6184 0.33379 0.75564 0.0
C95 C 0.6279 0.31891 0.7728 0.0
P96 P 0.84099 0.6697 0.30732 0.0
H97 H 0.87483 0.71496 0.29244 0.0
H98 H 0.89917 0.75356 0.31558 0.0
H99 H 0.88036 0.72172 0.38506 0.0
H100 H 0.85709 0.68301 0.36187 0.0
H101 H 0.81935 0.62865 0.27053 0.0
H102 H 0.83941 0.60866 0.24119 0.0
H103 H 0.91783 0.65188 0.27525 0.0
H104 H 0.89754 0.67175 0.30467 0.0
H105 H 0.80164 0.68324 0.33241 0.0
H106 H 0.82885 0.61938 0.32503 0.0
O107 O 0.82259 0.68075 0.28534 0.0
H108 H 0.76889 0.66193 0.35779 0.0
H109 H 0.79532 0.59743 0.34998 0.0
C110 C 0.86381 0.69613 0.3253 0.0
C111 C 0.87644 0.71616 0.31272 0.0
C112 C 0.8901 0.73836 0.32601 0.0
C113 C 0.89134 0.74109 0.35225 0.0
C114 C 0.87997 0.72046 0.36493 0.0
C115 C 0.86646 0.69821 0.35161 0.0
C116 C 0.85686 0.65162 0.28996 0.0
C117 C 0.8409 0.63348 0.27205 0.0
C118 C 0.85242 0.62224 0.25506 0.0
C119 C 0.88028 0.62882 0.25557 0.0
C120 C 0.89634 0.64625 0.27433 0.0
C121 C 0.88473 0.65764 0.29124 0.0
C122 C 0.81756 0.6529 0.32661 0.0
C123 C 0.80043 0.6645 0.33616 0.0
C124 C 0.78151 0.65218 0.35057 0.0
C125 C 0.77905 0.62776 0.35575 0.0
C126 C 0.79665 0.61623 0.34651 0.0
C127 C 0.81577 0.62871 0.33208 0.0
P128 P 0.72104 0.76766 0.81624 0.0
H129 H 0.68799 0.7609 0.8556 0.0
H130 H 0.64529 0.76887 0.85853 0.0
H131 H 0.63653 0.78312 0.77984 0.0
H132 H 0.67913 0.77475 0.77691 0.0
H133 H 0.77116 0.75627 0.82853 0.0
H134 H 0.78333 0.72103 0.84566 0.0
H135 H 0.70011 0.68472 0.84681 0.0
H136 H 0.68792 0.71997 0.82908 0.0
H137 H 0.73321 0.8115 0.78911 0.0
H138 H 0.73098 0.7363 0.77667 0.0
O139 O 0.73942 0.79086 0.836 0.0
H140 H 0.75074 0.8208 0.74977 0.0
H141 H 0.74878 0.74555 0.73728 0.0
C142 C 0.68677 0.76725 0.81611 0.0
C143 C 0.67645 0.7649 0.83877 0.0
C144 C 0.65197 0.76936 0.84038 0.0
C145 C 0.63762 0.77667 0.8194 0.0
C146 C 0.64725 0.77758 0.7963 0.0
C147 C 0.67164 0.77283 0.79465 0.0
C148 C 0.72874 0.74083 0.82782 0.0
C149 C 0.75551 0.74067 0.83231 0.0
C150 C 0.76241 0.7205 0.84197 0.0
C151 C 0.74262 0.70018 0.84751 0.0
C152 C 0.71571 0.70026 0.84283 0.0
C153 C 0.70877 0.72039 0.83276 0.0
C154 C 0.7313 0.77336 0.78599 0.0
C155 C 0.73633 0.79697 0.77779 0.0
C156 C 0.74615 0.80221 0.75522 0.0
C157 C 0.75122 0.7839 0.74052 0.0
C158 C 0.74531 0.76004 0.7484 0.0
C159 C 0.73516 0.75476 0.77089 0.0
P160 P 0.79527 0.25545 0.32895 0.0
H161 H 0.80469 0.3033 0.35455 0.0
H162 H 0.7765 0.32145 0.37658 0.0
H163 H 0.71544 0.25268 0.36771 0.0
H164 H 0.74352 0.2348 0.34545 0.0
H165 H 0.84478 0.24485 0.3221 0.0
H166 H 0.86966 0.21885 0.34327 0.0
H167 H 0.81189 0.20027 0.39433 0.0
H168 H 0.78762 0.22698 0.3735 0.0
H169 H 0.77341 0.26559 0.2788 0.0
H170 H 0.76653 0.20355 0.32394 0.0
O171 O 0.81603 0.27824 0.31683 0.0
H172 H 0.74035 0.24037 0.24534 0.0
H173 H 0.73358 0.17831 0.29065 0.0
C174 C 0.77597 0.26786 0.34791 0.0
C175 C 0.78531 0.2921 0.35751 0.0
C176 C 0.76923 0.30242 0.37022 0.0
C177 C 0.74358 0.28858 0.37361 0.0
C178 C 0.73486 0.26395 0.36494 0.0
C179 C 0.75095 0.25368 0.35227 0.0
C180 C 0.81466 0.2382 0.34652 0.0
C181 C 0.83774 0.23551 0.33814 0.0
C182 C 0.85178 0.2204 0.35009 0.0
C183 C 0.84274 0.20737 0.37047 0.0
C184 C 0.81965 0.2103 0.37895 0.0
C185 C 0.8057 0.22556 0.36703 0.0
C186 C 0.77281 0.23634 0.30362 0.0
C187 C 0.76509 0.24648 0.28135 0.0
C188 C 0.74621 0.23207 0.26228 0.0
C189 C 0.73442 0.20737 0.2654 0.0
C190 C 0.74219 0.19732 0.2878 0.0
C191 C 0.76123 0.21169 0.30674 0.0
P192 P 0.41532 0.68924 0.20152 0.0
H193 H 0.39379 0.67304 0.14916 0.0
H194 H 0.34853 0.65428 0.1274 0.0
H195 H 0.3177 0.65886 0.19703 0.0
H196 H 0.36295 0.67831 0.21841 0.0
H197 H 0.46556 0.7236 0.19435 0.0
H198 H 0.47689 0.76595 0.18379 0.0
H199 H 0.39769 0.76908 0.19319 0.0
H200 H 0.38635 0.72636 0.20322 0.0
H201 H 0.39726 0.64196 0.22081 0.0
H202 H 0.43995 0.71446 0.25134 0.0
O203 O 0.43546 0.67762 0.18693 0.0
H204 H 0.40246 0.62663 0.26241 0.0
H205 H 0.4451 0.69919 0.29352 0.0
C206 C 0.38175 0.6765 0.18549 0.0
C207 C 0.37726 0.67 0.15971 0.0
C208 C 0.35138 0.65916 0.14733 0.0
C209 C 0.32947 0.65472 0.16052 0.0
C210 C 0.33404 0.66206 0.18625 0.0
C211 C 0.35995 0.673 0.19857 0.0
C212 C 0.42495 0.7217 0.19905 0.0
C213 C 0.45074 0.73347 0.19448 0.0
C214 C 0.45724 0.75782 0.18858 0.0
C215 C 0.4381 0.77093 0.1873 0.0
C216 C 0.41275 0.75941 0.19349 0.0
C217 C 0.40627 0.73501 0.19938 0.0
C218 C 0.41778 0.67939 0.23306 0.0
C219 C 0.40737 0.65468 0.23662 0.0
C220 C 0.41027 0.64594 0.26049 0.0
C221 C 0.42394 0.66171 0.2814 0.0
C222 C 0.43448 0.68657 0.27779 0.0
C223 C 0.43142 0.69535 0.25375 0.0
P224 P 0.19346 0.35798 0.73208 0.0
H225 H 0.20647 0.31211 0.72559 0.0
H226 H 0.18362 0.27401 0.70121 0.0
H227 H 0.11766 0.30286 0.67491 0.0
H228 H 0.14085 0.34126 0.69966 0.0
H229 H 0.24046 0.39999 0.74276 0.0
H230 H 0.272 0.42236 0.71653 0.0
H231 H 0.2219 0.38185 0.65051 0.0
H232 H 0.19058 0.3595 0.67682 0.0
H233 H 0.15107 0.33669 0.76097 0.0
H234 H 0.19169 0.40857 0.74213 0.0
O235 O 0.21545 0.35162 0.7545 0.0
H236 H 0.12918 0.35415 0.79068 0.0
H237 H 0.17006 0.42624 0.77204 0.0
C238 C 0.17513 0.3294 0.71493 0.0
C239 C 0.18692 0.31021 0.71491 0.0
C240 C 0.17379 0.28834 0.70092 0.0
C241 C 0.14867 0.28522 0.68623 0.0
C242 C 0.13701 0.30465 0.68597 0.0
C243 C 0.15012 0.32654 0.70025 0.0
C244 C 0.21316 0.37792 0.71189 0.0
C245 C 0.23597 0.39626 0.72258 0.0
C246 C 0.25402 0.40908 0.70751 0.0
C247 C 0.24973 0.40373 0.68137 0.0
C248 C 0.22613 0.38614 0.6706 0.0
C249 C 0.20802 0.37343 0.68569 0.0
C250 C 0.17269 0.37122 0.74887 0.0
C251 C 0.15479 0.35625 0.76274 0.0
C252 C 0.14254 0.3663 0.78003 0.0
C253 C 0.14799 0.39167 0.78403 0.0
C254 C 0.16518 0.40664 0.76937 0.0
C255 C 0.17757 0.39652 0.75214 0.0
Pr256 Pr 0.99433 1.00879 0.52853 0.0
Pr257 Pr 0.03571 0.02436 0.49841 0.0
C258 C 0.94852 0.99155 0.5474 0.0
C259 C 0.93306 0.96957 0.55758 0.0
C260 C 0.91462 0.97167 0.57319 0.0
C261 C 0.8996 0.95111 0.58321 0.0
C262 C 0.90268 0.92801 0.5777 0.0
C263 C 0.92137 0.92601 0.56208 0.0
C264 C 0.93648 0.94667 0.5521 0.0
C265 C 0.03215 0.05189 0.54947 0.0
C266 C 0.04416 0.98779 0.54376 0.0
C267 C 0.08139 0.04116 0.47914 0.0
C268 C 0.098 0.06363 0.47082 0.0
C269 C 0.12006 0.06274 0.4595 0.0
C270 C 0.13644 0.08392 0.45172 0.0
C271 C 0.13106 0.10641 0.45517 0.0
C272 C 0.1087 0.10718 0.46638 0.0
C273 C 0.09229 0.08591 0.47419 0.0
C274 C 0.99821 0.98069 0.47822 0.0
C275 C 0.98637 0.04636 0.48418 0.0
O276 O 0.95001 0.99037 0.52342 0.0
O277 O 0.97098 1.00349 0.56115 0.0
O278 O 0.02239 0.0478 0.52649 0.0
O279 O 0.02278 0.03339 0.56219 0.0
O280 O 0.05616 1.00618 0.53142 0.0
O281 O 0.01809 0.98171 0.54257 0.0
O282 O 0.08048 0.0404 0.50321 0.0
O283 O 0.05826 0.03145 0.46531 0.0
O284 O 1.00822 0.98535 0.50106 0.0
O285 O 1.00715 0.99899 0.4651 0.0
O286 O 0.97412 0.02779 0.49613 0.0
O287 O 1.01242 0.05207 0.48529 0.0
H288 H 0.9119 0.98926 0.57774 0.0
H289 H 0.88584 0.95341 0.59559 0.0
H290 H 0.92412 0.90848 0.55739 0.0
H291 H 0.95077 0.94479 0.54011 0.0
H292 H 0.12463 0.04564 0.45668 0.0
H293 H 0.1532 0.08261 0.44274 0.0
H294 H 0.10414 0.12424 0.46944 0.0
H295 H 0.07526 0.08685 0.48295 0.0
Pr296 Pr 0.48558 0.02619 0.03794 0.0
Pr297 Pr 0.53349 0.01987 1.01859 0.0
C298 C 0.44927 0.03139 0.06655 0.0
C299 C 0.4484 0.05052 0.08461 0.0
C300 C 0.46897 0.07235 0.08828 0.0
C301 C 0.46808 0.09076 0.10523 0.0
C302 C 0.44662 0.08761 0.11884 0.0
C303 C 0.42622 0.06554 0.11531 0.0
C304 C 0.4271 0.04714 0.09826 0.0
C305 C 0.50342 0.05945 1.00267 0.0
C306 C 0.54656 0.05592 0.06761 0.0
C307 C 0.56828 1.01288 0.98928 0.0
C308 C 0.56739 0.99229 0.97182 0.0
C309 C 0.56965 0.97003 0.98094 0.0
C310 C 0.56589 0.9499 0.9644 0.0
C311 C 0.55975 0.95151 0.93836 0.0
C312 C 0.55821 0.97394 0.92917 0.0
C313 C 0.56204 0.99413 0.94574 0.0
C314 C 0.51541 0.98646 0.05366 0.0
C315 C 0.4731 0.99107 0.98791 0.0
O316 O 0.46698 0.01969 0.07342 0.0
O317 O 0.44847 0.03712 0.04316 0.0
O318 O 0.51821 0.0535 0.02043 0.0
O319 O 0.47839 0.04871 1.00303 0.0
O320 O 0.55583 0.0523 0.04688 0.0
O321 O 0.52143 0.04536 0.06995 0.0
O322 O 0.55106 0.02511 0.98248 0.0
O323 O 0.57074 1.00918 1.01328 0.0
O324 O 0.50066 0.99247 0.03588 0.0
O325 O 0.54045 0.99727 0.0534 0.0
O326 O 0.46313 0.9944 1.00834 0.0
O327 O 0.49832 1.00167 0.98632 0.0
H328 H 0.48567 0.07515 0.07795 0.0
H329 H 0.48425 0.10742 0.10779 0.0
H330 H 0.40931 0.06269 0.12535 0.0
H331 H 0.4111 0.03035 0.09562 0.0
H332 H 0.57384 0.96794 1.00091 0.0
H333 H 0.56787 0.93305 0.97205 0.0
H334 H 0.55346 0.97574 0.9092 0.0
H335 H 0.56015 1.01106 0.93818 0.0
Pr336 Pr 0.52596 0.53734 0.53672 0.0
Pr337 Pr 0.5112 0.48787 0.50842 0.0
C338 C 0.527 0.58095 0.55719 0.0
C339 C 0.50803 0.59171 0.56741 0.0
C340 C 0.51754 0.61125 0.58546 0.0
C341 C 0.49979 0.62218 0.59472 0.0
C342 C 0.47218 0.6138 0.58598 0.0
C343 C 0.46271 0.59379 0.56826 0.0
C344 C 0.48047 0.5828 0.55912 0.0
C345 C 0.54831 0.50361 0.56114 0.0
C346 C 0.46811 0.49643 0.54291 0.0
C347 C 0.50978 0.44362 0.48909 0.0
C348 C 0.52841 0.4321 0.47944 0.0
C349 C 0.51937 0.40802 0.46943 0.0
C350 C 0.53723 0.3966 0.46113 0.0
C351 C 0.56447 0.40916 0.46268 0.0
C352 C 0.57332 0.43345 0.47252 0.0
C353 C 0.55546 0.44478 0.4809 0.0
C354 C 0.48863 0.52154 0.48408 0.0
C355 C 0.56853 0.52935 0.50134 0.0
O356 O 0.52216 0.57542 0.53298 0.0
O357 O 0.53465 0.56445 0.57025 0.0
O358 O 0.52461 0.49933 0.55012 0.0
O359 O 0.56146 0.52631 0.56033 0.0
O360 O 0.47649 0.47963 0.53216 0.0
O361 O 0.48163 0.51968 0.54401 0.0
O362 O 0.5149 0.44982 0.51315 0.0
O363 O 0.50266 0.46009 0.47553 0.0
O364 O 0.51239 0.52584 0.49496 0.0
O365 O 0.47562 0.49879 0.48482 0.0
O366 O 0.5602 0.54602 0.51242 0.0
O367 O 0.55525 0.50603 0.50041 0.0
H368 H 0.53874 0.61819 0.59223 0.0
H369 H 0.50773 0.63724 0.60869 0.0
H370 H 0.44164 0.58701 0.56092 0.0
H371 H 0.47272 0.5676 0.54527 0.0
H372 H 0.49855 0.39793 0.46834 0.0
H373 H 0.5298 0.37779 0.45399 0.0
H374 H 0.59405 0.44377 0.47368 0.0
H375 H 0.56279 0.46334 0.48874 0.0
Pr376 Pr 1.01251 0.53022 1.00488 0.0
Pr377 Pr 0.02329 0.49246 0.03903 0.0
C378 C 0.99264 0.56085 0.97605 0.0
C379 C 0.96764 0.56761 0.97062 0.0
C380 C 0.96752 0.5888 0.95827 0.0
C381 C 0.94361 0.59471 0.95137 0.0
C382 C 0.91938 0.57944 0.95665 0.0
C383 C 0.91969 0.55851 0.96972 0.0
C384 C 0.9437 0.55262 0.97665 0.0
C385 C 0.06535 0.54186 0.02895 0.0
C386 C 0.99417 0.52946 0.06169 0.0
C387 C 0.04237 0.46125 0.06771 0.0
C388 C 0.06625 0.45254 0.07301 0.0
C389 C 0.06318 0.42812 0.07797 0.0
C390 C 0.08553 0.41984 0.08529 0.0
C391 C 0.11139 0.4359 0.08791 0.0
C392 C 0.11443 0.46019 0.08189 0.0
C393 C 0.09203 0.46844 0.07445 0.0
C394 C 0.9706 0.48099 1.01427 0.0
C395 C 0.04156 0.49315 0.9821 0.0
O396 O 0.9917 0.53885 0.96823 0.0
O397 O 1.0065 0.56745 0.99841 0.0
O398 O 0.04514 0.53292 0.03926 0.0
O399 O 0.05861 0.54627 1.00583 0.0
O400 O 1.0108 0.51634 0.06808 0.0
O401 O 0.98808 0.53378 0.03788 0.0
O402 O 0.04488 0.48372 0.07523 0.0
O403 O 0.02753 0.45464 0.0458 0.0
O404 O 0.99112 0.48977 1.00442 0.0
O405 O 0.97687 0.47672 0.03754 0.0
O406 O 0.02537 0.5067 0.97583 0.0
O407 O 0.04724 0.48828 1.00581 0.0
H408 H 0.98588 0.60059 0.95361 0.0
H409 H 0.94406 0.61118 0.94175 0.0
H410 H 0.90134 0.54634 0.97391 0.0
H411 H 0.94352 0.53614 0.98623 0.0
H412 H 0.04343 0.41557 0.07677 0.0
H413 H 0.08253 0.40093 0.08934 0.0
H414 H 0.13404 0.47308 0.08391 0.0
H415 H 0.09485 0.48737 0.07053 0.0
H416 H 0.32113 0.26374 0.37871 0.0
H417 H 0.28961 0.23386 0.39919 0.0
H418 H 0.22603 0.26383 0.36851 0.0
H419 H 0.25769 0.29448 0.34861 0.0
H420 H 0.22507 0.25161 0.41936 0.0
H421 H 0.23445 0.17601 0.35844 0.0
H422 H 0.26577 0.19453 0.37489 0.0
H423 H 0.2465 0.20749 0.35171 0.0
C424 C 0.30058 0.26437 0.37672 0.0
C425 C 0.29191 0.28145 0.36189 0.0
C426 C 0.28253 0.24707 0.3882 0.0
C427 C 0.25543 0.24636 0.38493 0.0
C428 C 0.24685 0.26397 0.37106 0.0
H429 H 0.11668 0.14344 0.4307 0.0
H430 H 0.14608 0.17886 0.41464 0.0
C431 C 0.26492 0.28135 0.35959 0.0
C432 C 0.23598 0.22667 0.39527 0.0
H433 H 0.21095 0.16498 0.39281 0.0
C434 C 0.22181 0.23267 0.41349 0.0
C435 C 0.23166 0.20201 0.38737 0.0
C436 C 0.24518 0.19457 0.36686 0.0
C437 C 0.20407 0.2145 0.42467 0.0
C438 C 0.20028 0.18984 0.41717 0.0
C439 C 0.21408 0.18392 0.39863 0.0
C440 C 0.18252 0.1697 0.42858 0.0
C441 C 0.19007 0.22174 0.44487 0.0
C442 C 0.1933 0.15285 0.44165 0.0
C443 C 0.17662 0.13267 0.45082 0.0
C444 C 0.14878 0.12882 0.44692 0.0
C445 C 0.13806 0.14603 0.43426 0.0
C446 C 0.15481 0.16628 0.42509 0.0
H447 H 0.19922 0.24096 0.45206 0.0
H448 H 0.16885 0.21961 0.43704 0.0
H449 H 0.1905 0.20984 0.46083 0.0
H450 H 0.21465 0.15519 0.44452 0.0
H451 H 0.18554 0.11997 0.46084 0.0
H452 H 0.37368 0.91478 0.76814 0.0
H453 H 0.39136 0.93094 0.81129 0.0
H454 H 0.35131 0.86261 0.83872 0.0
H455 H 0.33409 0.84596 0.79539 0.0
H456 H 0.36259 0.93531 0.85084 0.0
H457 H 0.42981 0.87605 0.87276 0.0
H458 H 0.41564 0.87956 0.84102 0.0
H459 H 0.39534 0.86092 0.86119 0.0
C460 C 0.3689 0.90304 0.78331 0.0
C461 C 0.35269 0.879 0.77832 0.0
C462 C 0.37882 0.91239 0.80796 0.0
C463 C 0.37282 0.8979 0.82814 0.0
C464 C 0.35642 0.87397 0.82336 0.0
H465 H 0.41938 0.96762 0.98196 0.0
H466 H 0.3921 0.94231 0.94518 0.0
C467 C 0.34644 0.86457 0.79863 0.0
C468 C 0.38395 0.90814 0.8541 0.0
H469 H 0.42997 0.90503 0.90438 0.0
C470 C 0.37708 0.92855 0.86273 0.0
C471 C 0.40294 0.89928 0.8694 0.0
C472 C 0.41161 0.87786 0.86068 0.0
C473 C 0.38936 0.94087 0.88597 0.0
C474 C 0.40872 0.93229 0.90107 0.0
C475 C 0.41495 0.91141 0.8928 0.0
C476 C 0.42491 0.94629 0.92406 0.0
C477 C 0.38256 0.96368 0.89358 0.0
C478 C 0.45239 0.95635 0.92454 0.0
C479 C 0.46794 0.97066 0.9454 0.0
C480 C 0.45634 0.97518 0.96632 0.0
C481 C 0.42886 0.96461 0.96608 0.0
C482 C 0.41325 0.95023 0.94508 0.0
H483 H 0.37065 0.9701 0.87787 0.0
H484 H 0.37071 0.96001 0.90924 0.0
H485 H 0.40102 0.97849 0.90027 0.0
H486 H 0.46177 0.95349 0.90852 0.0
H487 H 0.48908 0.97833 0.94497 0.0
H488 H 0.58431 0.33812 0.71064 0.0
H489 H 0.56959 0.36423 0.67958 0.0
H490 H 0.64766 0.41569 0.69396 0.0
H491 H 0.6625 0.38976 0.7249 0.0
H492 H 0.56775 0.41191 0.68465 0.0
H493 H 0.63638 0.40351 0.61799 0.0
H494 H 0.63035 0.3837 0.6434 0.0
H495 H 0.65312 0.41368 0.6493 0.0
C496 C 0.59828 0.35508 0.70729 0.0
C497 C 0.62466 0.36174 0.72005 0.0
C498 C 0.58988 0.36991 0.68946 0.0
C499 C 0.6077 0.39164 0.68404 0.0
C500 C 0.63379 0.39867 0.69729 0.0
H501 H 0.59717 0.51074 0.59 0.0
H502 H 0.61133 0.48298 0.61946 0.0
C503 C 0.64222 0.38384 0.71501 0.0
C504 C 0.59895 0.40722 0.66487 0.0
H505 H 0.61331 0.43368 0.61038 0.0
C506 C 0.57757 0.41653 0.66831 0.0
C507 C 0.61182 0.41323 0.64356 0.0
C508 C 0.63402 0.40283 0.63815 0.0
C509 C 0.5691 0.43215 0.65134 0.0
C510 C 0.58215 0.43835 0.63021 0.0
C511 C 0.60343 0.42895 0.62667 0.0
C512 C 0.57398 0.45463 0.61159 0.0
C513 C 0.54666 0.44235 0.65647 0.0
C514 C 0.54856 0.4476 0.59699 0.0
C515 C 0.54047 0.46335 0.58016 0.0
C516 C 0.5577 0.48641 0.5776 0.0
C517 C 0.58345 0.49313 0.59168 0.0
C518 C 0.59155 0.47731 0.60848 0.0
H519 H 0.54292 0.44033 0.6762 0.0
H520 H 0.55112 0.4619 0.65262 0.0
H521 H 0.52806 0.43248 0.64391 0.0
H522 H 0.53488 0.42999 0.59876 0.0
H523 H 0.52056 0.45762 0.56945 0.0
H524 H 0.92559 0.61288 0.2613 0.0
H525 H 0.94503 0.5962 0.22859 0.0
H526 H 0.88165 0.60444 0.17252 0.0
H527 H 0.86223 0.6212 0.20494 0.0
H528 H 0.91834 0.55362 0.1926 0.0
H529 H 0.95239 0.63952 0.14558 0.0
H530 H 0.94518 0.63903 0.17739 0.0
H531 H 0.91838 0.63164 0.1514 0.0
C532 C 0.91586 0.61127 0.24199 0.0
C533 C 0.89226 0.61838 0.23585 0.0
C534 C 0.92694 0.60163 0.22331 0.0
C535 C 0.91497 0.59925 0.198 0.0
C536 C 0.89144 0.6063 0.19183 0.0
H537 H 0.95451 0.55275 0.05594 0.0
H538 H 0.93501 0.56879 0.08888 0.0
C539 C 0.88021 0.61569 0.21048 0.0
C540 C 0.92677 0.58911 0.17806 0.0
H541 H 0.95607 0.60373 0.12557 0.0
C542 C 0.92672 0.56459 0.17801 0.0
C543 C 0.93748 0.60333 0.15886 0.0
C544 C 0.93863 0.6299 0.15826 0.0
C545 C 0.93661 0.55382 0.15909 0.0
C546 C 0.94765 0.56811 0.13998 0.0
C547 C 0.94767 0.59267 0.1401 0.0
C548 C 0.95943 0.55803 0.11984 0.0
C549 C 0.9343 0.52699 0.1594 0.0
C550 C 0.97997 0.54685 0.12603 0.0
C551 C 0.99099 0.53746 0.10721 0.0
C552 C 0.9821 0.53931 0.0816 0.0
C553 C 0.96185 0.55089 0.0754 0.0
C554 C 0.95068 0.56013 0.09428 0.0
H555 H 0.91822 0.5174 0.1699 0.0
H556 H 0.93014 0.51835 0.14006 0.0
H557 H 0.95337 0.52445 0.16893 0.0
H558 H 0.98775 0.54558 0.14551 0.0
H559 H 1.00675 0.52896 0.1128 0.0
H560 H 0.40577 0.23532 0.28332 0.0
H561 H 0.41694 0.20277 0.2609 0.0
H562 H 0.43903 0.25027 0.20181 0.0
H563 H 0.42763 0.28283 0.22393 0.0
H564 H 0.39162 0.18371 0.21228 0.0
H565 H 0.50131 0.21938 0.21595 0.0
H566 H 0.48314 0.23109 0.23691 0.0
H567 H 0.48268 0.2402 0.20518 0.0
C568 C 0.41319 0.23889 0.26564 0.0
C569 C 0.41572 0.26163 0.25535 0.0
C570 C 0.41968 0.22033 0.25294 0.0
C571 C 0.42904 0.22421 0.22985 0.0
C572 C 0.43236 0.24708 0.21987 0.0
H573 H 0.45717 0.13601 0.11095 0.0
H574 H 0.45363 0.16863 0.13913 0.0
C575 C 0.42584 0.26566 0.23254 0.0
C576 C 0.43304 0.20375 0.21516 0.0
H577 H 0.47928 0.18486 0.18787 0.0
C578 C 0.41083 0.18381 0.20714 0.0
C579 C 0.45809 0.20409 0.20839 0.0
C580 C 0.48276 0.22473 0.21721 0.0
C581 C 0.4128 0.16443 0.19191 0.0
C582 C 0.43783 0.16481 0.185 0.0
C583 C 0.46013 0.18464 0.19324 0.0
C584 C 0.44104 0.14509 0.16859 0.0
C585 C 0.38789 0.14415 0.18266 0.0
C586 C 0.43557 0.12113 0.17603 0.0
C587 C 0.43751 0.10244 0.15995 0.0
C588 C 0.44526 0.10747 0.13627 0.0
C589 C 0.45137 0.1316 0.12916 0.0
C590 C 0.4493 0.15024 0.14519 0.0
H591 H 0.36947 0.14956 0.18441 0.0
H592 H 0.38725 0.13842 0.16271 0.0
H593 H 0.3878 0.12824 0.19405 0.0
H594 H 0.42973 0.11687 0.19425 0.0
H595 H 0.43313 0.08409 0.1661 0.0
H596 H 0.19378 0.87561 0.67789 0.0
H597 H 0.15703 0.8929 0.66332 0.0
H598 H 0.16553 0.87848 0.58646 0.0
H599 H 0.20197 0.86091 0.60091 0.0
H600 H 0.16213 0.93266 0.63759 0.0
H601 H 0.08551 0.8568 0.58221 0.0
H602 H 0.11309 0.85212 0.60358 0.0
H603 H 0.1175 0.86118 0.57232 0.0
C604 C 0.18745 0.87574 0.65788 0.0
C605 C 0.20072 0.86692 0.64052 0.0
C606 C 0.16644 0.88557 0.64959 0.0
C607 C 0.15831 0.88676 0.6238 0.0
C608 C 0.17095 0.8772 0.60643 0.0
H609 H 0.09786 0.99396 0.54777 0.0
H610 H 0.12381 0.96901 0.56932 0.0
C611 C 0.19183 0.8672 0.61471 0.0
C612 C 0.13879 0.90036 0.6151 0.0
H613 H 0.08246 0.89717 0.57355 0.0
C614 C 0.14449 0.92477 0.62387 0.0
C615 C 0.11558 0.89002 0.59744 0.0
C616 C 0.1074 0.86351 0.58855 0.0
C617 C 0.12829 0.9394 0.61465 0.0
C618 C 0.10614 0.92951 0.59573 0.0
C619 C 0.09968 0.90481 0.5878 0.0
C620 C 0.09023 0.94479 0.58312 0.0
C621 C 0.13519 0.96537 0.62517 0.0
C622 C 0.0626 0.93912 0.58323 0.0
C623 C 0.0476 0.95327 0.57072 0.0
C624 C 0.06001 0.97326 0.55778 0.0
C625 C 0.08769 0.97883 0.55771 0.0
C626 C 0.10261 0.96466 0.57014 0.0
H627 H 0.14689 0.96775 0.64435 0.0
H628 H 0.14759 0.9774 0.61294 0.0
H629 H 0.11694 0.97134 0.62593 0.0
H630 H 0.05264 0.92376 0.593 0.0
H631 H 0.02629 0.94844 0.57105 0.0
H632 H 0.78943 0.3516 0.85325 0.0
H633 H 0.82625 0.37669 0.8835 0.0
H634 H 0.77091 0.40527 0.91778 0.0
H635 H 0.73378 0.37997 0.8877 0.0
H636 H 0.81812 0.44106 0.9095 0.0
H637 H 0.84082 0.36325 0.95837 0.0
H638 H 0.83973 0.36065 0.92494 0.0
H639 H 0.80989 0.36043 0.93765 0.0
C640 C 0.78502 0.36304 0.86736 0.0
C641 C 0.75862 0.36359 0.86821 0.0
C642 C 0.8061 0.3774 0.88459 0.0
C643 C 0.80122 0.39253 0.90309 0.0
C644 C 0.77504 0.39363 0.90367 0.0
H645 H 0.92518 0.45508 0.03084 0.0
H646 H 0.88166 0.43597 1.00541 0.0
C647 C 0.75389 0.37924 0.88642 0.0
C648 C 0.82358 0.40703 0.92187 0.0
H649 H 0.87345 0.4016 0.96725 0.0
C650 C 0.8301 0.43249 0.92232 0.0
C651 C 0.83885 0.39578 0.93884 0.0
C652 C 0.83187 0.36852 0.94017 0.0
C653 C 0.85225 0.44702 0.93863 0.0
C654 C 0.86838 0.4357 0.95463 0.0
C655 C 0.86118 0.41026 0.95485 0.0
C656 C 0.89356 0.44968 0.97046 0.0
C657 C 0.85817 0.4743 0.93857 0.0
C658 C 0.91457 0.46392 0.95929 0.0
C659 C 0.93938 0.47483 0.97375 0.0
C660 C 0.94368 0.47148 0.9996 0.0
C661 C 0.92242 0.45788 1.01093 0.0
C662 C 0.89758 0.44698 0.99644 0.0
H663 H 0.83997 0.47988 0.93154 0.0
H664 H 0.8665 0.48305 0.95768 0.0
H665 H 0.8731 0.48119 0.92594 0.0
H666 H 0.91211 0.46585 0.93921 0.0
H667 H 0.95542 0.48527 0.96455 0.0
H668 H 0.78235 0.5946 0.39167 0.0
H669 H 0.74797 0.5743 0.41645 0.0
H670 H 0.69413 0.61163 0.37891 0.0
H671 H 0.72778 0.63114 0.35349 0.0
H672 H 0.72356 0.59389 0.44971 0.0
H673 H 0.64717 0.54247 0.37211 0.0
H674 H 0.68125 0.55661 0.36793 0.0
H675 H 0.65772 0.57433 0.36732 0.0
C676 C 0.76304 0.59818 0.38836 0.0
C677 C 0.75798 0.61459 0.37049 0.0
C678 C 0.74343 0.58667 0.4027 0.0
C679 C 0.71823 0.59112 0.39937 0.0
C680 C 0.71315 0.60745 0.38155 0.0
H681 H 0.60174 0.57536 0.50046 0.0
H682 H 0.63895 0.58871 0.47693 0.0
C683 C 0.73265 0.61889 0.36722 0.0
C684 C 0.69753 0.5795 0.41507 0.0
H685 H 0.63221 0.54643 0.41153 0.0
C686 C 0.70366 0.58332 0.44135 0.0
C687 C 0.67161 0.56536 0.40431 0.0
C688 C 0.66409 0.55922 0.37639 0.0
C689 C 0.6844 0.57421 0.457 0.0
C690 C 0.65808 0.56121 0.44613 0.0
C691 C 0.65224 0.55662 0.41993 0.0
C692 C 0.63615 0.55277 0.46148 0.0
C693 C 0.6925 0.5785 0.48508 0.0
C694 C 0.62174 0.5281 0.46045 0.0
C695 C 0.60026 0.52037 0.47387 0.0
C696 C 0.59252 0.53716 0.48848 0.0
C697 C 0.60714 0.56183 0.48959 0.0
C698 C 0.62861 0.56952 0.47621 0.0
H699 H 0.71441 0.58196 0.49056 0.0
H700 H 0.68697 0.59472 0.49152 0.0
H701 H 0.68219 0.56271 0.49498 0.0
H702 H 0.62701 0.51481 0.44911 0.0
H703 H 0.58944 0.50128 0.47236 0.0
H704 H 0.32911 0.41263 0.21589 0.0
H705 H 0.29622 0.42549 0.18661 0.0
H706 H 0.24621 0.35158 0.17589 0.0
H707 H 0.27879 0.33859 0.20516 0.0
H708 H 0.24935 0.37726 0.13079 0.0
H709 H 0.22514 0.42818 0.20913 0.0
H710 H 0.25968 0.43631 0.20505 0.0
H711 H 0.24429 0.40652 0.21444 0.0
C712 C 0.31116 0.39911 0.2072 0.0
C713 C 0.30645 0.37463 0.213 0.0
C714 C 0.29246 0.40647 0.19045 0.0
C715 C 0.26868 0.38951 0.17938 0.0
C716 C 0.26448 0.36492 0.18423 0.0
H717 H 0.11486 0.40691 0.12698 0.0
H718 H 0.15394 0.39544 0.14662 0.0
C719 C 0.28317 0.35753 0.20091 0.0
C720 C 0.24726 0.3975 0.16422 0.0
H721 H 0.2019 0.4294 0.16879 0.0
C722 C 0.23906 0.38882 0.13897 0.0
C723 C 0.23372 0.4123 0.17514 0.0
C724 C 0.24092 0.42125 0.20247 0.0
C725 C 0.21747 0.39445 0.12437 0.0
C726 C 0.204 0.40926 0.13533 0.0
C727 C 0.21242 0.41814 0.16046 0.0
C728 C 0.18008 0.4147 0.12168 0.0
C729 C 0.20863 0.3839 0.09764 0.0
C730 C 0.18182 0.42918 0.10098 0.0
C731 C 0.15937 0.43566 0.08953 0.0
C732 C 0.13488 0.42778 0.09866 0.0
C733 C 0.13324 0.41294 0.11916 0.0
C734 C 0.15561 0.40651 0.13055 0.0
H735 H 0.21795 0.36932 0.09351 0.0
H736 H 0.18658 0.37636 0.09378 0.0
H737 H 0.21441 0.39849 0.08463 0.0
H738 H 0.20065 0.43594 0.09408 0.0
H739 H 0.16124 0.44699 0.07368 0.0
H740 H 0.56187 0.21418 0.83243 0.0
H741 H 0.54084 0.18303 0.85941 0.0
H742 H 0.61063 0.2061 0.91614 0.0
H743 H 0.63153 0.23732 0.88952 0.0
H744 H 0.557 0.14483 0.87725 0.0
H745 H 0.55239 0.20475 0.95746 0.0
H746 H 0.55948 0.2162 0.92751 0.0
H747 H 0.58554 0.21049 0.94993 0.0
C748 C 0.57262 0.2127 0.85073 0.0
C749 C 0.59825 0.2284 0.85894 0.0
C750 C 0.56058 0.19492 0.86614 0.0
C751 C 0.57393 0.19251 0.89003 0.0
C752 C 0.59957 0.20807 0.89815 0.0
H753 H 0.55422 0.08852 1.00421 0.0
H754 H 0.57021 0.1205 0.97602 0.0
C755 C 0.61152 0.22591 0.88287 0.0
C756 C 0.56169 0.17303 0.90602 0.0
H757 H 0.54605 0.16265 0.96501 0.0
C758 C 0.55431 0.14876 0.89633 0.0
C759 C 0.55812 0.17814 0.93094 0.0
C760 C 0.56404 0.20382 0.94199 0.0
C761 C 0.54429 0.12947 0.91113 0.0
C762 C 0.54151 0.1346 0.9362 0.0
C763 C 0.54843 0.15882 0.9458 0.0
C764 C 0.53175 0.11502 0.9529 0.0
C765 C 0.53737 0.10367 0.90016 0.0
C766 C 0.50481 0.10148 0.94924 0.0
C767 C 0.49558 0.08334 0.96541 0.0
C768 C 0.5132 0.07842 0.98543 0.0
C769 C 0.5402 0.09192 0.98894 0.0
C770 C 0.54936 0.11018 0.97289 0.0
H771 H 0.54416 0.10261 0.88167 0.0
H772 H 0.54653 0.09244 0.91321 0.0
H773 H 0.5154 0.09569 0.8976 0.0
H774 H 0.49089 0.1051 0.93401 0.0
H775 H 0.47468 0.07319 0.96226 0.0
H776 H 0.92068 0.75239 0.39981 0.0
H777 H 0.93719 0.79221 0.42287 0.0
H778 H 0.90598 0.82528 0.35881 0.0
H779 H 0.88832 0.78558 0.33614 0.0
H780 H 0.97281 0.83384 0.41392 0.0
H781 H 0.87445 0.85128 0.41338 0.0
H782 H 0.87774 0.82185 0.40443 0.0
H783 H 0.88064 0.84523 0.38234 0.0
C784 C 0.91702 0.76806 0.39069 0.0
C785 C 0.90297 0.76555 0.36605 0.0
C786 C 0.92666 0.7909 0.40388 0.0
C787 C 0.92239 0.81179 0.39283 0.0
C788 C 0.909 0.80944 0.36805 0.0
H789 H 0.97699 0.96709 0.42912 0.0
H790 H 0.95813 0.92572 0.40967 0.0
C791 C 0.89926 0.78665 0.35491 0.0
C792 C 0.93229 0.83607 0.40698 0.0
H793 H 0.91277 0.8853 0.42525 0.0
C794 C 0.95961 0.84496 0.4166 0.0
C795 C 0.9151 0.85065 0.41066 0.0
C796 C 0.88532 0.84168 0.40239 0.0
C797 C 0.97026 0.86819 0.42904 0.0
C798 C 0.95319 0.88296 0.43205 0.0
C799 C 0.92586 0.87401 0.42279 0.0
C800 C 0.96354 0.90798 0.44425 0.0
C801 C 0.99985 0.87714 0.43835 0.0
C802 C 0.97232 0.91177 0.47025 0.0
C803 C 0.98288 0.93541 0.48147 0.0
C804 C 0.98504 0.95571 0.46683 0.0
C805 C 0.97568 0.95184 0.44088 0.0
C806 C 0.9649 0.92822 0.42974 0.0
H807 H 1.01091 0.8649 0.43161 0.0
H808 H 1.00815 0.89566 0.43212 0.0
H809 H 1.0033 0.8783 0.4592 0.0
H810 H 0.97121 0.89641 0.48184 0.0
H811 H 0.98987 0.93777 0.50151 0.0
H812 H 0.31216 0.72739 0.66802 0.0
H813 H 0.33257 0.69493 0.65954 0.0
H814 H 0.37076 0.73605 0.60237 0.0
H815 H 0.35127 0.76875 0.61107 0.0
H816 H 0.34503 0.68319 0.58979 0.0
H817 H 0.4159 0.70579 0.67978 0.0
H818 H 0.38088 0.70107 0.68102 0.0
H819 H 0.39875 0.72694 0.6663 0.0
C820 C 0.32488 0.72953 0.65362 0.0
C821 C 0.33011 0.75078 0.6403 0.0
C822 C 0.33641 0.71092 0.64876 0.0
C823 C 0.35326 0.71324 0.63046 0.0
C824 C 0.3577 0.73392 0.6165 0.0
H825 H 0.4804 0.66273 0.59433 0.0
H826 H 0.44937 0.68383 0.60698 0.0
C827 C 0.34637 0.75255 0.62142 0.0
C828 C 0.3676 0.69492 0.62655 0.0
H829 H 0.42139 0.67621 0.65178 0.0
C830 C 0.36144 0.68129 0.60347 0.0
C831 C 0.38912 0.69277 0.64442 0.0
C832 C 0.3968 0.70745 0.66927 0.0
C833 C 0.37678 0.666 0.59749 0.0
C834 C 0.39874 0.66438 0.61508 0.0
C835 C 0.40442 0.67746 0.63844 0.0
C836 C 0.41756 0.65106 0.60862 0.0
C837 C 0.37024 0.65256 0.57199 0.0
C838 C 0.40999 0.62561 0.60572 0.0
C839 C 0.42782 0.61341 0.59874 0.0
C840 C 0.4535 0.6265 0.59452 0.0
C841 C 0.46101 0.65202 0.59781 0.0
C842 C 0.44325 0.66415 0.6049 0.0
H843 H 0.35444 0.65795 0.55945 0.0
H844 H 0.38839 0.65597 0.56279 0.0
H845 H 0.36322 0.63273 0.57422 0.0
H846 H 0.39031 0.61522 0.60879 0.0
H847 H 0.42153 0.59374 0.59674 0.0
H848 H 0.73876 0.81234 0.70333 0.0
H849 H 0.76448 0.82776 0.66985 0.0
H850 H 0.81906 0.78563 0.69356 0.0
H851 H 0.79357 0.77035 0.72736 0.0
H852 H 0.84311 0.83558 0.69167 0.0
H853 H 0.77538 0.79849 0.60304 0.0
H854 H 0.75987 0.81162 0.62515 0.0
H855 H 0.7708 0.78516 0.63276 0.0
C856 C 0.75598 0.80605 0.70112 0.0
C857 C 0.76423 0.79023 0.71798 0.0
C858 C 0.77049 0.81466 0.68184 0.0
C859 C 0.79347 0.8076 0.67906 0.0
C860 C 0.8012 0.79108 0.69526 0.0
H861 H 0.91915 0.88974 0.59718 0.0
H862 H 0.8937 0.85625 0.61897 0.0
C863 C 0.78658 0.78231 0.71447 0.0
C864 C 0.81114 0.81996 0.66144 0.0
H865 H 0.81142 0.83424 0.60033 0.0
C866 C 0.83649 0.83493 0.6716 0.0
C867 C 0.8023 0.81908 0.63534 0.0
C868 C 0.77569 0.80254 0.62336 0.0
C869 C 0.85261 0.85028 0.6566 0.0
C870 C 0.84332 0.85016 0.63061 0.0
C871 C 0.81849 0.83429 0.62024 0.0
C872 C 0.8578 0.86818 0.61453 0.0
C873 C 0.87864 0.86758 0.66902 0.0
C874 C 0.84559 0.88521 0.60372 0.0
C875 C 0.85988 0.90408 0.59094 0.0
C876 C 0.88674 0.90636 0.58878 0.0
C877 C 0.89851 0.88851 0.5985 0.0
C878 C 0.88409 0.86951 0.61118 0.0
H879 H 0.88015 0.8688 0.68981 0.0
H880 H 0.89549 0.86111 0.66427 0.0
H881 H 0.88094 0.88609 0.66224 0.0
H882 H 0.82524 0.88441 0.60593 0.0
H883 H 0.85002 0.91717 0.58315 0.0
H884 H 0.73571 0.20497 0.21492 0.0
H885 H 0.70191 0.17938 0.18214 0.0
H886 H 0.65319 0.14987 0.23811 0.0
H887 H 0.68679 0.17548 0.271 0.0
H888 H 0.68104 0.12444 0.18342 0.0
H889 H 0.60389 0.17467 0.18063 0.0
H890 H 0.63881 0.18904 0.1919 0.0
H891 H 0.61907 0.16841 0.21093 0.0
C892 C 0.71768 0.1932 0.22019 0.0
C893 C 0.71387 0.19219 0.24549 0.0
C894 C 0.69849 0.17856 0.20151 0.0
C895 C 0.67507 0.16295 0.20778 0.0
C896 C 0.67108 0.16199 0.23295 0.0
H897 H 0.53648 0.06444 0.11502 0.0
H898 H 0.56738 0.08986 0.14976 0.0
C899 C 0.69036 0.17646 0.25168 0.0
C900 C 0.65523 0.14703 0.18804 0.0
H901 H 0.59315 0.13878 0.15439 0.0
C902 C 0.66182 0.12753 0.17702 0.0
C903 C 0.63013 0.15105 0.18007 0.0
C904 C 0.62242 0.17198 0.19132 0.0
C905 C 0.64387 0.11181 0.15812 0.0
C906 C 0.619 0.1162 0.14957 0.0
C907 C 0.61226 0.13552 0.16091 0.0
C908 C 0.60004 0.10128 0.12845 0.0
C909 C 0.65156 0.09044 0.1478 0.0
C910 C 0.60797 0.09974 0.10483 0.0
C911 C 0.5905 0.08514 0.08506 0.0
C912 C 0.56459 0.07202 0.08842 0.0
C913 C 0.55636 0.07419 0.11187 0.0
C914 C 0.57397 0.08872 0.13173 0.0
H915 H 0.66696 0.08545 0.16126 0.0
H916 H 0.63397 0.07429 0.14332 0.0
H917 H 0.66006 0.09531 0.13029 0.0
H918 H 0.62775 0.10981 0.10169 0.0
H919 H 0.59738 0.08413 0.06716 0.0
H920 H 0.38794 0.62749 0.30298 0.0
H921 H 0.39655 0.60676 0.34112 0.0
H922 H 0.47778 0.65222 0.35469 0.0
H923 H 0.46947 0.67286 0.3163 0.0
H924 H 0.43633 0.58142 0.3471 0.0
H925 H 0.45292 0.65209 0.42451 0.0
H926 H 0.4356 0.65418 0.39355 0.0
H927 H 0.47137 0.66112 0.39902 0.0
C928 C 0.40759 0.63325 0.31419 0.0
C929 C 0.42809 0.6517 0.30645 0.0
C930 C 0.41241 0.62147 0.33605 0.0
C931 C 0.43774 0.62804 0.35081 0.0
C932 C 0.45795 0.64715 0.3438 0.0
H933 H 0.51714 0.56644 0.47315 0.0
H934 H 0.50327 0.59256 0.44177 0.0
C935 C 0.45316 0.65894 0.32185 0.0
C936 C 0.44365 0.61323 0.37195 0.0
H937 H 0.4634 0.61544 0.43534 0.0
C938 C 0.44203 0.58878 0.36644 0.0
C939 C 0.45131 0.62298 0.39708 0.0
C940 C 0.45274 0.64898 0.40405 0.0
C941 C 0.44841 0.5739 0.38528 0.0
C942 C 0.45595 0.58355 0.41049 0.0
C943 C 0.45747 0.60802 0.41604 0.0
C944 C 0.46331 0.56871 0.43112 0.0
C945 C 0.44793 0.54821 0.3778 0.0
C946 C 0.44519 0.54697 0.43614 0.0
C947 C 0.45316 0.53189 0.4539 0.0
C948 C 0.47928 0.53845 0.46715 0.0
C949 C 0.49693 0.56083 0.46308 0.0
C950 C 0.48901 0.5758 0.4452 0.0
H951 H 0.44872 0.54579 0.35744 0.0
H952 H 0.46495 0.54306 0.38859 0.0
H953 H 0.42912 0.53551 0.38178 0.0
H954 H 0.42504 0.54143 0.42596 0.0
H955 H 0.43905 0.51488 0.45688 0.0
H956 H 0.12745 0.43115 0.78264 0.0
H957 H 0.11012 0.44871 0.81633 0.0
H958 H 0.12599 0.39398 0.86495 0.0
H959 H 0.14355 0.37651 0.8316 0.0
H960 H 0.06663 0.4245 0.84323 0.0
H961 H 0.16323 0.45934 0.90683 0.0
H962 H 0.16129 0.45155 0.87382 0.0
H963 H 0.15514 0.42804 0.89552 0.0
C964 C 0.12741 0.42293 0.80054 0.0
C965 C 0.13691 0.40234 0.80429 0.0
C966 C 0.11738 0.43294 0.81977 0.0
C967 C 0.117 0.42286 0.84333 0.0
C968 C 0.12636 0.40229 0.84709 0.0
H969 H 0.07008 0.45923 0.98565 0.0
H970 H 0.08775 0.44207 0.95203 0.0
C971 C 0.13616 0.39216 0.82785 0.0
C972 C 0.10644 0.43355 0.86384 0.0
H973 H 0.12439 0.46157 0.92296 0.0
C974 C 0.07928 0.43272 0.86061 0.0
C975 C 0.12285 0.44409 0.88665 0.0
C976 C 0.15231 0.44605 0.89098 0.0
C977 C 0.068 0.44171 0.87966 0.0
C978 C 0.08447 0.45255 0.90243 0.0
C979 C 0.11167 0.45334 0.90562 0.0
C980 C 0.07394 0.46328 0.92305 0.0
C981 C 0.03832 0.43877 0.87542 0.0
C982 C 0.06071 0.48134 0.91831 0.0
C983 C 0.05038 0.49103 0.93745 0.0
C984 C 0.05338 0.48324 0.96204 0.0
C985 C 0.06731 0.46566 0.96698 0.0
C986 C 0.07745 0.45581 0.94772 0.0
H987 H 0.0276 0.42374 0.86116 0.0
H988 H 0.02977 0.43509 0.89309 0.0
H989 H 0.03457 0.45576 0.86835 0.0
H990 H 0.0584 0.48806 0.89974 0.0
H991 H 0.04008 0.50472 0.93292 0.0
H992 H 0.6309 0.81948 0.8034 0.0
H993 H 0.60226 0.84188 0.8184 0.0
H994 H 0.56584 0.78043 0.85865 0.0
H995 H 0.59515 0.75802 0.84415 0.0
H996 H 0.54909 0.83799 0.82011 0.0
H997 H 0.60411 0.83132 0.91479 0.0
H998 H 0.61344 0.82128 0.88639 0.0
H999 H 0.58491 0.80298 0.89853 0.0
C1000 C 0.61619 0.8104 0.81475 0.0
C1001 C 0.6155 0.78714 0.82293 0.0
C1002 C 0.59984 0.82326 0.82336 0.0
C1003 C 0.58244 0.81305 0.84016 0.0
C1004 C 0.57964 0.78884 0.84619 0.0
H1005 H 0.53204 0.90455 0.94404 0.0
H1006 H 0.53 0.86828 0.91818 0.0
C1007 C 0.59629 0.77605 0.83785 0.0
C1008 C 0.57062 0.82904 0.85394 0.0
H1009 H 0.57663 0.85709 0.91184 0.0
C1010 C 0.5547 0.84188 0.84024 0.0
C1011 C 0.5781 0.8342 0.88022 0.0
C1012 C 0.59623 0.82191 0.89589 0.0
C1013 C 0.54692 0.86038 0.85199 0.0
C1014 C 0.55547 0.86621 0.87798 0.0
C1015 C 0.57006 0.85247 0.89189 0.0
C1016 C 0.55235 0.8881 0.89085 0.0
C1017 C 0.53021 0.87393 0.83642 0.0
C1018 C 0.56535 0.91125 0.88386 0.0
C1019 C 0.56685 0.93198 0.89875 0.0
C1020 C 0.55551 0.92988 0.92099 0.0
C1021 C 0.5414 0.90672 0.92727 0.0
C1022 C 0.53997 0.88601 0.91239 0.0
H1023 H 0.51853 0.86277 0.81934 0.0
H1024 H 0.51625 0.87939 0.84746 0.0
H1025 H 0.54354 0.89063 0.83027 0.0
H1026 H 0.57562 0.91322 0.86765 0.0
H1027 H 0.57807 0.94951 0.89353 0.0
H1028 H 0.86488 0.1765 0.34721 0.0
H1029 H 0.8887 0.14889 0.3666 0.0
H1030 H 0.87574 0.17102 0.43968 0.0
H1031 H 0.85286 0.19957 0.42053 0.0
H1032 H 0.92702 0.16947 0.43943 0.0
H1033 H 0.85625 0.08412 0.39429 0.0
H1034 H 0.86847 0.10569 0.3721 0.0
H1035 H 0.84826 0.11281 0.39382 0.0
C1036 C 0.86729 0.17571 0.36744 0.0
C1037 C 0.85695 0.19031 0.38231 0.0
C1038 C 0.8806 0.15963 0.37846 0.0
C1039 C 0.88356 0.15756 0.40453 0.0
C1040 C 0.87346 0.17219 0.41948 0.0
H1041 H 0.9334 0.04288 0.48298 0.0
H1042 H 0.90873 0.07007 0.46389 0.0
C1043 C 0.86023 0.18837 0.40849 0.0
C1044 C 0.89786 0.14062 0.41624 0.0
H1045 H 0.89806 0.08107 0.41537 0.0
C1046 C 0.92063 0.15012 0.43427 0.0
C1047 C 0.88927 0.11533 0.40973 0.0
C1048 C 0.86407 0.10382 0.39162 0.0
C1049 C 0.93534 0.13509 0.44564 0.0
C1050 C 0.92739 0.10996 0.43835 0.0
C1051 C 0.90433 0.10039 0.42068 0.0
C1052 C 0.94239 0.09319 0.44925 0.0
C1053 C 0.95897 0.14621 0.46568 0.0
C1054 C 0.96938 0.09686 0.44689 0.0
C1055 C 0.98361 0.08142 0.4579 0.0
C1056 C 0.971 0.06185 0.47122 0.0
C1057 C 0.94374 0.05779 0.47288 0.0
C1058 C 0.92959 0.07332 0.46199 0.0
H1059 H 0.9579 0.16381 0.47389 0.0
H1060 H 0.96028 0.13379 0.48105 0.0
H1061 H 0.97759 0.14972 0.45725 0.0
H1062 H 0.97948 0.11173 0.4366 0.0
H1063 H 1.00453 0.08495 0.45612 0.0
H1064 H 0.31438 0.61621 0.12552 0.0
H1065 H 0.26953 0.59608 0.10361 0.0
H1066 H 0.23747 0.64364 0.14513 0.0
H1067 H 0.28241 0.66457 0.16639 0.0
H1068 H 0.22403 0.57147 0.12208 0.0
H1069 H 0.20854 0.6516 0.07261 0.0
H1070 H 0.24085 0.65062 0.08822 0.0
H1071 H 0.21687 0.65694 0.1061 0.0
C1072 C 0.29786 0.62264 0.12976 0.0
C1073 C 0.30207 0.64219 0.14755 0.0
C1074 C 0.2722 0.61095 0.11738 0.0
C1075 C 0.25022 0.61858 0.12248 0.0
C1076 C 0.25422 0.63774 0.14057 0.0
H1077 H 0.08212 0.54008 0.07906 0.0
H1078 H 0.12726 0.55747 0.10208 0.0
C1079 C 0.2799 0.64952 0.15291 0.0
C1080 C 0.22316 0.60647 0.10879 0.0
H1081 H 0.17108 0.61698 0.06968 0.0
C1082 C 0.21243 0.58138 0.11058 0.0
C1083 C 0.20825 0.61939 0.09353 0.0
C1084 C 0.21926 0.64607 0.08975 0.0
C1085 C 0.18705 0.56891 0.09772 0.0
C1086 C 0.17185 0.58199 0.08304 0.0
C1087 C 0.1827 0.60702 0.08109 0.0
C1088 C 0.14482 0.57014 0.06913 0.0
C1089 C 0.17699 0.54178 0.09953 0.0
C1090 C 0.13964 0.57169 0.04303 0.0
C1091 C 0.11387 0.56204 0.02992 0.0
C1092 C 0.09278 0.55072 0.0427 0.0
C1093 C 0.09804 0.54872 0.06875 0.0
C1094 C 0.12384 0.55848 0.08189 0.0
H1095 H 0.19357 0.53367 0.10568 0.0
H1096 H 0.16311 0.53799 0.11357 0.0
H1097 H 0.16599 0.53266 0.08123 0.0
H1098 H 0.15553 0.58063 0.03282 0.0
H1099 H 0.11039 0.56374 1.00983 0.0
H1100 H 0.26674 0.38231 0.64333 0.0
H1101 H 0.3023 0.40058 0.61922 0.0
H1102 H 0.31551 0.4697 0.65952 0.0
H1103 H 0.28002 0.45147 0.68391 0.0
H1104 H 0.3089 0.43739 0.58776 0.0
H1105 H 0.39002 0.46176 0.66958 0.0
H1106 H 0.35727 0.44219 0.67171 0.0
H1107 H 0.36296 0.47463 0.6722 0.0
C1108 C 0.27699 0.40147 0.64694 0.0
C1109 C 0.27049 0.41536 0.66569 0.0
C1110 C 0.29746 0.41189 0.63318 0.0
C1111 C 0.31204 0.43645 0.63781 0.0
C1112 C 0.30512 0.45056 0.65602 0.0
H1113 H 0.44769 0.52457 0.57226 0.0
H1114 H 0.40901 0.51127 0.59426 0.0
C1115 C 0.28473 0.44012 0.66992 0.0
C1116 C 0.33438 0.44711 0.62352 0.0
H1117 H 0.40149 0.47516 0.63037 0.0
C1118 C 0.32913 0.44564 0.59712 0.0
C1119 C 0.36088 0.45793 0.63563 0.0
C1120 C 0.36826 0.45906 0.66382 0.0
C1121 C 0.34949 0.45469 0.5826 0.0
C1122 C 0.37597 0.46529 0.59471 0.0
C1123 C 0.38119 0.46713 0.62108 0.0
C1124 C 0.39873 0.47365 0.58039 0.0
C1125 C 0.34245 0.45301 0.55437 0.0
C1126 C 0.40592 0.45695 0.56529 0.0
C1127 C 0.42807 0.46446 0.55277 0.0
C1128 C 0.44361 0.48888 0.55503 0.0
C1129 C 0.43617 0.50565 0.56995 0.0
C1130 C 0.41407 0.49807 0.58262 0.0
H1131 H 0.32076 0.45048 0.54832 0.0
H1132 H 0.35381 0.46958 0.54625 0.0
H1133 H 0.34768 0.43717 0.54653 0.0
H1134 H 0.39471 0.43794 0.5636 0.0
H1135 H 0.43318 0.45098 0.54156 0.0
H1136 H 0.77631 0.67672 0.83157 0.0
H1137 H 0.79474 0.64676 0.85351 0.0
H1138 H 0.74579 0.64718 0.91119 0.0
H1139 H 0.72734 0.67749 0.88927 0.0
H1140 H 0.80032 0.65683 0.92908 0.0
H1141 H 0.76653 0.57444 0.86458 0.0
H1142 H 0.7795 0.60117 0.84849 0.0
H1143 H 0.74995 0.59827 0.86275 0.0
C1144 C 0.76912 0.67007 0.84868 0.0
C1145 C 0.75051 0.67943 0.85881 0.0
C1146 C 0.77944 0.65279 0.86106 0.0
C1147 C 0.77133 0.6445 0.88378 0.0
C1148 C 0.75203 0.65315 0.89352 0.0
H1149 H 0.87707 0.57674 0.98206 0.0
H1150 H 0.83598 0.58807 0.96736 0.0
C1151 C 0.74149 0.67037 0.88098 0.0
C1152 C 0.7858 0.62938 0.8986 0.0
H1153 H 0.80859 0.57962 0.89233 0.0
C1154 C 0.8016 0.63957 0.9215 0.0
C1155 C 0.7873 0.60686 0.88865 0.0
C1156 C 0.76968 0.59443 0.86488 0.0
C1157 C 0.82069 0.62894 0.93353 0.0
C1158 C 0.82364 0.6074 0.92249 0.0
C1159 C 0.80636 0.59622 0.90065 0.0
C1160 C 0.84693 0.59835 0.93108 0.0
C1161 C 0.83897 0.64184 0.95683 0.0
C1162 C 0.86619 0.59973 0.91528 0.0
C1163 C 0.88943 0.59319 0.9235 0.0
C1164 C 0.8939 0.5851 0.94774 0.0
C1165 C 0.87415 0.58292 0.96329 0.0
C1166 C 0.8508 0.58951 0.95501 0.0
H1167 H 0.83619 0.65996 0.96111 0.0
H1168 H 0.83486 0.63068 0.97314 0.0
H1169 H 0.86016 0.64425 0.95465 0.0
H1170 H 0.86352 0.60645 0.89672 0.0
H1171 H 0.904 0.59459 0.91089 0.0
H1172 H 0.48487 0.80788 0.19678 0.0
H1173 H 0.49592 0.8464 0.17661 0.0
H1174 H 0.4158 0.82893 0.13596 0.0
H1175 H 0.40488 0.78997 0.15524 0.0
H1176 H 0.4534 0.84259 0.10534 0.0
H1177 H 0.47692 0.90952 0.18693 0.0
H1178 H 0.49536 0.88737 0.19053 0.0
H1179 H 0.45962 0.87788 0.18875 0.0
C1180 C 0.46952 0.81227 0.18367 0.0
C1181 C 0.44398 0.79573 0.17764 0.0
C1182 C 0.47579 0.83448 0.17237 0.0
C1183 C 0.45659 0.84073 0.15499 0.0
C1184 C 0.43089 0.82457 0.14945 0.0
H1185 H 0.46423 0.95847 0.05314 0.0
H1186 H 0.44891 0.92372 0.07835 0.0
C1187 C 0.42461 0.80236 0.16067 0.0
C1188 C 0.4639 0.8631 0.14105 0.0
H1189 H 0.48996 0.92483 0.14837 0.0
C1190 C 0.46113 0.86059 0.11474 0.0
C1191 C 0.47411 0.88659 0.15333 0.0
C1192 C 0.47646 0.8906 0.18142 0.0
C1193 C 0.46885 0.8808 0.10043 0.0
C1194 C 0.47931 0.90423 0.11272 0.0
C1195 C 0.48193 0.90683 0.139 0.0
C1196 C 0.4882 0.92616 0.09855 0.0
C1197 C 0.46651 0.87681 0.07232 0.0
C1198 C 0.51522 0.93949 0.10208 0.0
C1199 C 0.524 0.95935 0.08775 0.0
C1200 C 0.50588 0.9663 0.06972 0.0
C1201 C 0.47869 0.9534 0.06676 0.0
C1202 C 0.46993 0.93352 0.08107 0.0
H1203 H 0.46381 0.85747 0.06648 0.0
H1204 H 0.44892 0.88218 0.06308 0.0
H1205 H 0.4845 0.88814 0.0654 0.0
H1206 H 0.52962 0.93418 0.11555 0.0
H1207 H 0.54505 0.96904 0.09054 0.0
H1208 H 0.12265 0.27834 0.63749 0.0
H1209 H 0.10209 0.23967 0.61255 0.0
H1210 H 0.12386 0.20058 0.6758 0.0
H1211 H 0.14415 0.23897 0.70084 0.0
H1212 H 0.12831 0.20208 0.60199 0.0
H1213 H 0.04251 0.16809 0.65326 0.0
H1214 H 0.06117 0.19977 0.65494 0.0
H1215 H 0.07453 0.17854 0.67279 0.0
C1216 C 0.12276 0.26149 0.64618 0.0
C1217 C 0.13505 0.26179 0.67121 0.0
C1218 C 0.11117 0.23942 0.63184 0.0
C1219 C 0.11125 0.2172 0.64235 0.0
C1220 C 0.1233 0.21746 0.66735 0.0
H1221 H 0.05329 0.06364 0.59872 0.0
H1222 H 0.0732 0.10413 0.61964 0.0
C1223 C 0.13506 0.23946 0.6816 0.0
C1224 C 0.09927 0.19371 0.62717 0.0
H1225 H 0.05042 0.13998 0.62447 0.0
C1226 C 0.11114 0.18855 0.60673 0.0
C1227 C 0.07694 0.17604 0.63343 0.0
C1228 C 0.06283 0.18086 0.65466 0.0
C1229 C 0.10184 0.16589 0.59292 0.0
C1230 C 0.07961 0.14807 0.59933 0.0
C1231 C 0.06749 0.15349 0.61953 0.0
C1232 C 0.06891 0.12345 0.58592 0.0
C1233 C 0.11657 0.16096 0.57221 0.0
C1234 C 0.05994 0.12062 0.55986 0.0
C1235 C 0.04877 0.09736 0.54778 0.0
C1236 C 0.04595 0.07648 0.56158 0.0
C1237 C 0.05515 0.07935 0.58756 0.0
C1238 C 0.06649 0.10253 0.59956 0.0
H1239 H 0.13712 0.17342 0.57434 0.0
H1240 H 0.11785 0.14194 0.57183 0.0
H1241 H 0.1057 0.16384 0.55386 0.0
H1242 H 0.06096 0.13639 0.54893 0.0
H1243 H 0.04169 0.09577 0.52777 0.0
H1244 H 0.75577 0.32099 0.41469 0.0
H1245 H 0.72588 0.34091 0.43209 0.0
H1246 H 0.6609 0.30243 0.3752 0.0
H1247 H 0.69052 0.28252 0.35776 0.0
H1248 H 0.69796 0.37071 0.4084 0.0
H1249 H 0.62801 0.28941 0.43916 0.0
H1250 H 0.66002 0.28904 0.4311 0.0
H1251 H 0.63201 0.28649 0.40682 0.0
C1252 C 0.73509 0.31674 0.40595 0.0
C1253 C 0.72546 0.30003 0.38497 0.0
C1254 C 0.71804 0.32806 0.41595 0.0
C1255 C 0.69107 0.32281 0.4052 0.0
C1256 C 0.68145 0.30624 0.38421 0.0
H1257 H 0.55683 0.37769 0.42149 0.0
H1258 H 0.58826 0.35711 0.40841 0.0
C1259 C 0.69843 0.29488 0.37426 0.0
C1260 C 0.67321 0.33547 0.41513 0.0
H1261 H 0.61405 0.32573 0.43775 0.0
C1262 C 0.67975 0.36091 0.41507 0.0
C1263 C 0.64945 0.32262 0.42378 0.0
C1264 C 0.64204 0.2954 0.42548 0.0
C1265 C 0.66276 0.37381 0.42274 0.0
C1266 C 0.63879 0.36091 0.43093 0.0
C1267 C 0.6324 0.33551 0.43131 0.0
C1268 C 0.61993 0.37343 0.43899 0.0
C1269 C 0.67017 0.40106 0.42138 0.0
C1270 C 0.62729 0.3892 0.46066 0.0
C1271 C 0.60932 0.40083 0.46832 0.0
C1272 C 0.58362 0.39688 0.45444 0.0
C1273 C 0.57632 0.38094 0.43277 0.0
C1274 C 0.59429 0.36926 0.42519 0.0
H1275 H 0.68626 0.40762 0.4098 0.0
H1276 H 0.65252 0.40705 0.4134 0.0
H1277 H 0.67737 0.4098 0.44061 0.0
H1278 H 0.64684 0.3923 0.47181 0.0
H1279 H 0.61543 0.41261 0.48535 0.0
loop_
_geom_bond_atom_site_label_1
_geom_bond_atom_site_label_2
_geom_bond_distance
_geom_bond_site_symmetry_2
_ccdc_geom_bond_type
P0 O11 1.490 . S
P0 C14 1.812 . S
P0 C20 1.803 . S
P0 C26 1.819 . S
H1 C15 0.941 . S
H2 C16 0.939 . S
H3 C18 0.940 . S
H4 C19 0.940 . S
H5 C21 0.939 . S
H6 C22 0.942 . S
H7 C24 0.940 . S
H8 C25 0.939 . S
H9 C27 0.941 . S
H10 C31 0.939 . S
O11 P0 1.490 . S
H12 C28 0.939 . S
H13 C30 0.940 . S
C14 P0 1.812 . S
C14 C15 1.389 . S
C14 C19 1.391 . S
C15 H1 0.941 . S
C15 C14 1.389 . S
C15 C16 1.397 . S
C16 H2 0.939 . S
C16 C15 1.397 . S
C16 C17 1.378 . S
C17 C16 1.378 . S
C17 C18 1.378 . S
C18 H3 0.940 . S
C18 C17 1.378 . S
C18 C19 1.396 . S
C19 H4 0.940 . S
C19 C14 1.391 . S
C19 C18 1.396 . S
C20 P0 1.803 . S
C20 C21 1.378 . S
C20 C25 1.400 . S
C21 H5 0.939 . S
C21 C20 1.378 . S
C21 C22 1.361 . S
C22 H6 0.942 . S
C22 C21 1.361 . S
C22 C23 1.369 . S
C23 C22 1.369 . S
C23 C24 1.404 . S
C24 H7 0.940 . S
C24 C23 1.404 . S
C24 C25 1.389 . S
C25 H8 0.939 . S
C25 C20 1.400 . S
C25 C24 1.389 . S
C26 P0 1.819 . S
C26 C27 1.391 . S
C26 C31 1.391 . S
C27 H9 0.941 . S
C27 C26 1.391 . S
C27 C28 1.396 . S
C28 H12 0.939 . S
C28 C27 1.396 . S
C28 C29 1.397 . S
C29 C28 1.397 . S
C29 C30 1.385 . S
C30 H13 0.940 . S
C30 C29 1.385 . S
C30 C31 1.388 . S
C31 H10 0.939 . S
C31 C26 1.391 . S
C31 C30 1.388 . S
P32 O43 1.490 . S
P32 C46 1.812 . S
P32 C52 1.803 . S
P32 C58 1.819 . S
H33 C47 0.941 . S
H34 C48 0.939 . S
H35 C50 0.940 . S
H36 C51 0.940 . S
H37 C53 0.939 . S
H38 C54 0.942 . S
H39 C56 0.940 . S
H40 C57 0.939 . S
H41 C59 0.941 . S
H42 C63 0.939 . S
O43 P32 1.490 . S
H44 C60 0.939 . S
H45 C62 0.940 . S
C46 P32 1.812 . S
C46 C47 1.389 . S
C46 C51 1.391 . S
C47 H33 0.941 . S
C47 C46 1.389 . S
C47 C48 1.397 . S
C48 H34 0.939 . S
C48 C47 1.397 . S
C48 C49 1.378 . S
C49 C48 1.378 . S
C49 C50 1.378 . S
C50 H35 0.940 . S
C50 C49 1.378 . S
C50 C51 1.396 . S
C51 H36 0.940 . S
C51 C46 1.391 . S
C51 C50 1.396 . S
C52 P32 1.803 . S
C52 C53 1.378 . S
C52 C57 1.400 . S
C53 H37 0.939 . S
C53 C52 1.378 . S
C53 C54 1.361 . S
C54 H38 0.942 . S
C54 C53 1.361 . S
C54 C55 1.369 . S
C55 C54 1.369 . S
C55 C56 1.404 . S
C56 H39 0.940 . S
C56 C55 1.404 . S
C56 C57 1.389 . S
C57 H40 0.939 . S
C57 C52 1.400 . S
C57 C56 1.389 . S
C58 P32 1.819 . S
C58 C59 1.391 . S
C58 C63 1.391 . S
C59 H41 0.941 . S
C59 C58 1.391 . S
C59 C60 1.396 . S
C60 H44 0.939 . S
C60 C59 1.396 . S
C60 C61 1.397 . S
C61 C60 1.397 . S
C61 C62 1.385 . S
C62 H45 0.940 . S
C62 C61 1.385 . S
C62 C63 1.388 . S
C63 H42 0.939 . S
C63 C58 1.391 . S
C63 C62 1.388 . S
P64 O75 1.490 . S
P64 C78 1.812 . S
P64 C84 1.803 . S
P64 C90 1.819 . S
H65 C79 0.941 . S
H66 C80 0.939 . S
H67 C82 0.940 . S
H68 C83 0.940 . S
H69 C85 0.939 . S
H70 C86 0.942 . S
H71 C88 0.940 . S
H72 C89 0.939 . S
H73 C91 0.941 . S
H74 C95 0.939 . S
O75 P64 1.490 . S
H76 C92 0.939 . S
H77 C94 0.940 . S
C78 P64 1.812 . S
C78 C79 1.389 . S
C78 C83 1.391 . S
C79 H65 0.941 . S
C79 C78 1.389 . S
C79 C80 1.397 . S
C80 H66 0.939 . S
C80 C79 1.397 . S
C80 C81 1.378 . S
C81 C80 1.378 . S
C81 C82 1.378 . S
C82 H67 0.940 . S
C82 C81 1.378 . S
C82 C83 1.396 . S
C83 H68 0.940 . S
C83 C78 1.391 . S
C83 C82 1.396 . S
C84 P64 1.803 . S
C84 C85 1.378 . S
C84 C89 1.400 . S
C85 H69 0.939 . S
C85 C84 1.378 . S
C85 C86 1.361 . S
C86 H70 0.942 . S
C86 C85 1.361 . S
C86 C87 1.369 . S
C87 C86 1.369 . S
C87 C88 1.404 . S
C88 H71 0.940 . S
C88 C87 1.404 . S
C88 C89 1.389 . S
C89 H72 0.939 . S
C89 C84 1.400 . S
C89 C88 1.389 . S
C90 P64 1.819 . S
C90 C91 1.391 . S
C90 C95 1.391 . S
C91 H73 0.941 . S
C91 C90 1.391 . S
C91 C92 1.396 . S
C92 H76 0.939 . S
C92 C91 1.396 . S
C92 C93 1.397 . S
C93 C92 1.397 . S
C93 C94 1.385 . S
C94 H77 0.940 . S
C94 C93 1.385 . S
C94 C95 1.388 . S
C95 H74 0.939 . S
C95 C90 1.391 . S
C95 C94 1.388 . S
P96 O107 1.490 . S
P96 C110 1.812 . S
P96 C116 1.803 . S
P96 C122 1.819 . S
H97 C111 0.941 . S
H98 C112 0.939 . S
H99 C114 0.940 . S
H100 C115 0.940 . S
H101 C117 0.939 . S
H102 C118 0.942 . S
H103 C120 0.940 . S
H104 C121 0.939 . S
H105 C123 0.941 . S
H106 C127 0.939 . S
O107 P96 1.490 . S
H108 C124 0.939 . S
H109 C126 0.940 . S
C110 P96 1.812 . S
C110 C111 1.389 . S
C110 C115 1.391 . S
C111 H97 0.941 . S
C111 C110 1.389 . S
C111 C112 1.397 . S
C112 H98 0.939 . S
C112 C111 1.397 . S
C112 C113 1.378 . S
C113 C112 1.378 . S
C113 C114 1.378 . S
C114 H99 0.940 . S
C114 C113 1.378 . S
C114 C115 1.396 . S
C115 H100 0.940 . S
C115 C110 1.391 . S
C115 C114 1.396 . S
C116 P96 1.803 . S
C116 C117 1.378 . S
C116 C121 1.400 . S
C117 H101 0.939 . S
C117 C116 1.378 . S
C117 C118 1.361 . S
C118 H102 0.942 . S
C118 C117 1.361 . S
C118 C119 1.369 . S
C119 C118 1.369 . S
C119 C120 1.404 . S
C120 H103 0.940 . S
C120 C119 1.404 . S
C120 C121 1.389 . S
C121 H104 0.939 . S
C121 C116 1.400 . S
C121 C120 1.389 . S
C122 P96 1.819 . S
C122 C123 1.391 . S
C122 C127 1.391 . S
C123 H105 0.941 . S
C123 C122 1.391 . S
C123 C124 1.396 . S
C124 H108 0.939 . S
C124 C123 1.396 . S
C124 C125 1.397 . S
C125 C124 1.397 . S
C125 C126 1.385 . S
C126 H109 0.940 . S
C126 C125 1.385 . S
C126 C127 1.388 . S
C127 H106 0.939 . S
C127 C122 1.391 . S
C127 C126 1.388 . S
P128 O139 1.490 . S
P128 C142 1.812 . S
P128 C148 1.803 . S
P128 C154 1.819 . S
H129 C143 0.941 . S
H130 C144 0.939 . S
H131 C146 0.940 . S
H132 C147 0.940 . S
H133 C149 0.939 . S
H134 C150 0.942 . S
H135 C152 0.940 . S
H136 C153 0.939 . S
H137 C155 0.941 . S
H138 C159 0.939 . S
O139 P128 1.490 . S
H140 C156 0.939 . S
H141 C158 0.940 . S
C142 P128 1.812 . S
C142 C143 1.389 . S
C142 C147 1.391 . S
C143 H129 0.941 . S
C143 C142 1.389 . S
C143 C144 1.397 . S
C144 H130 0.939 . S
C144 C143 1.397 . S
C144 C145 1.378 . S
C145 C144 1.378 . S
C145 C146 1.378 . S
C146 H131 0.940 . S
C146 C145 1.378 . S
C146 C147 1.396 . S
C147 H132 0.940 . S
C147 C142 1.391 . S
C147 C146 1.396 . S
C148 P128 1.803 . S
C148 C149 1.378 . S
C148 C153 1.400 . S
C149 H133 0.939 . S
C149 C148 1.378 . S
C149 C150 1.361 . S
C150 H134 0.942 . S
C150 C149 1.361 . S
C150 C151 1.369 . S
C151 C150 1.369 . S
C151 C152 1.404 . S
C152 H135 0.940 . S
C152 C151 1.404 . S
C152 C153 1.389 . S
C153 H136 0.939 . S
C153 C148 1.400 . S
C153 C152 1.389 . S
C154 P128 1.819 . S
C154 C155 1.391 . S
C154 C159 1.391 . S
C155 H137 0.941 . S
C155 C154 1.391 . S
C155 C156 1.396 . S
C156 H140 0.939 . S
C156 C155 1.396 . S
C156 C157 1.397 . S
C157 C156 1.397 . S
C157 C158 1.385 . S
C158 H141 0.940 . S
C158 C157 1.385 . S
C158 C159 1.388 . S
C159 H138 0.939 . S
C159 C154 1.391 . S
C159 C158 1.388 . S
P160 O171 1.490 . S
P160 C174 1.812 . S
P160 C180 1.803 . S
P160 C186 1.819 . S
H161 C175 0.941 . S
H162 C176 0.939 . S
H163 C178 0.940 . S
H164 C179 0.940 . S
H165 C181 0.939 . S
H166 C182 0.942 . S
H167 C184 0.940 . S
H168 C185 0.939 . S
H169 C187 0.941 . S
H170 C191 0.939 . S
O171 P160 1.490 . S
H172 C188 0.939 . S
H173 C190 0.940 . S
C174 P160 1.812 . S
C174 C175 1.389 . S
C174 C179 1.391 . S
C175 H161 0.941 . S
C175 C174 1.389 . S
C175 C176 1.397 . S
C176 H162 0.939 . S
C176 C175 1.397 . S
C176 C177 1.378 . S
C177 C176 1.378 . S
C177 C178 1.378 . S
C178 H163 0.940 . S
C178 C177 1.378 . S
C178 C179 1.396 . S
C179 H164 0.940 . S
C179 C174 1.391 . S
C179 C178 1.396 . S
C180 P160 1.803 . S
C180 C181 1.378 . S
C180 C185 1.400 . S
C181 H165 0.939 . S
C181 C180 1.378 . S
C181 C182 1.361 . S
C182 H166 0.942 . S
C182 C181 1.361 . S
C182 C183 1.369 . S
C183 C182 1.369 . S
C183 C184 1.404 . S
C184 H167 0.940 . S
C184 C183 1.404 . S
C184 C185 1.389 . S
C185 H168 0.939 . S
C185 C180 1.400 . S
C185 C184 1.389 . S
C186 P160 1.819 . S
C186 C187 1.391 . S
C186 C191 1.391 . S
C187 H169 0.941 . S
C187 C186 1.391 . S
C187 C188 1.396 . S
C188 H172 0.939 . S
C188 C187 1.396 . S
C188 C189 1.397 . S
C189 C188 1.397 . S
C189 C190 1.385 . S
C190 H173 0.940 . S
C190 C189 1.385 . S
C190 C191 1.388 . S
C191 H170 0.939 . S
C191 C186 1.391 . S
C191 C190 1.388 . S
P192 O203 1.490 . S
P192 C206 1.812 . S
P192 C212 1.803 . S
P192 C218 1.819 . S
H193 C207 0.941 . S
H194 C208 0.939 . S
H195 C210 0.940 . S
H196 C211 0.940 . S
H197 C213 0.939 . S
H198 C214 0.942 . S
H199 C216 0.940 . S
H200 C217 0.939 . S
H201 C219 0.941 . S
H202 C223 0.939 . S
O203 P192 1.490 . S
H204 C220 0.939 . S
H205 C222 0.940 . S
C206 P192 1.812 . S
C206 C207 1.389 . S
C206 C211 1.391 . S
C207 H193 0.941 . S
C207 C206 1.389 . S
C207 C208 1.397 . S
C208 H194 0.939 . S
C208 C207 1.397 . S
C208 C209 1.378 . S
C209 C208 1.378 . S
C209 C210 1.378 . S
C210 H195 0.940 . S
C210 C209 1.378 . S
C210 C211 1.396 . S
C211 H196 0.940 . S
C211 C206 1.391 . S
C211 C210 1.396 . S
C212 P192 1.803 . S
C212 C213 1.378 . S
C212 C217 1.400 . S
C213 H197 0.939 . S
C213 C212 1.378 . S
C213 C214 1.361 . S
C214 H198 0.942 . S
C214 C213 1.361 . S
C214 C215 1.369 . S
C215 C214 1.369 . S
C215 C216 1.404 . S
C216 H199 0.940 . S
C216 C215 1.404 . S
C216 C217 1.389 . S
C217 H200 0.939 . S
C217 C212 1.400 . S
C217 C216 1.389 . S
C218 P192 1.819 . S
C218 C219 1.391 . S
C218 C223 1.391 . S
C219 H201 0.941 . S
C219 C218 1.391 . S
C219 C220 1.396 . S
C220 H204 0.939 . S
C220 C219 1.396 . S
C220 C221 1.397 . S
C221 C220 1.397 . S
C221 C222 1.385 . S
C222 H205 0.940 . S
C222 C221 1.385 . S
C222 C223 1.388 . S
C223 H202 0.939 . S
C223 C218 1.391 . S
C223 C222 1.388 . S
P224 O235 1.490 . S
P224 C238 1.812 . S
P224 C244 1.803 . S
P224 C250 1.819 . S
H225 C239 0.941 . S
H226 C240 0.939 . S
H227 C242 0.940 . S
H228 C243 0.940 . S
H229 C245 0.939 . S
H230 C246 0.942 . S
H231 C248 0.940 . S
H232 C249 0.939 . S
H233 C251 0.941 . S
H234 C255 0.939 . S
O235 P224 1.490 . S
H236 C252 0.939 . S
H237 C254 0.940 . S
C238 P224 1.812 . S
C238 C239 1.389 . S
C238 C243 1.391 . S
C239 H225 0.941 . S
C239 C238 1.389 . S
C239 C240 1.397 . S
C240 H226 0.939 . S
C240 C239 1.397 . S
C240 C241 1.378 . S
C241 C240 1.378 . S
C241 C242 1.378 . S
C242 H227 0.940 . S
C242 C241 1.378 . S
C242 C243 1.396 . S
C243 H228 0.940 . S
C243 C238 1.391 . S
C243 C242 1.396 . S
C244 P224 1.803 . S
C244 C245 1.378 . S
C244 C249 1.400 . S
C245 H229 0.939 . S
C245 C244 1.378 . S
C245 C246 1.361 . S
C246 H230 0.942 . S
C246 C245 1.361 . S
C246 C247 1.369 . S
C247 C246 1.369 . S
C247 C248 1.404 . S
C248 H231 0.940 . S
C248 C247 1.404 . S
C248 C249 1.389 . S
C249 H232 0.939 . S
C249 C244 1.400 . S
C249 C248 1.389 . S
C250 P224 1.819 . S
C250 C251 1.391 . S
C250 C255 1.391 . S
C251 H233 0.941 . S
C251 C250 1.391 . S
C251 C252 1.396 . S
C252 H236 0.939 . S
C252 C251 1.396 . S
C252 C253 1.397 . S
C253 C252 1.397 . S
C253 C254 1.385 . S
C254 H237 0.940 . S
C254 C253 1.385 . S
C254 C255 1.388 . S
C255 H234 0.939 . S
C255 C250 1.391 . S
C255 C254 1.388 . S
Pr256 C258 2.880 . S
Pr256 O276 2.562 . S
Pr256 O277 2.490 . S
Pr256 O278 2.695 1_665 S
Pr256 O279 2.512 1_665 S
Pr256 O281 2.437 1_655 S
Pr256 O284 2.436 . S
Pr256 O286 2.438 1_565 S
Pr257 C267 2.880 . S
Pr257 O278 2.436 . S
Pr257 O280 2.438 1_545 S
Pr257 O282 2.562 . S
Pr257 O283 2.490 . S
Pr257 O284 2.695 1_445 S
Pr257 O285 2.512 1_545 S
Pr257 O287 2.437 1_455 S
C258 Pr256 2.880 . S
C258 C259 1.491 . S
C258 O276 1.254 . S
C258 O277 1.225 . S
C259 C258 1.491 . S
C259 C260 1.392 . S
C259 C264 1.356 . S
C260 C259 1.392 . S
C260 C261 1.368 . S
C260 H288 0.929 . S
C261 C260 1.368 . S
C261 C262 1.386 . S
C261 H289 0.929 . S
C262 C261 1.386 . S
C262 C263 1.373 . S
C263 C262 1.373 . S
C263 C264 1.409 . S
C263 H290 0.931 . S
C264 C259 1.356 . S
C264 C263 1.409 . S
C264 H291 0.930 . S
C265 O278 1.270 . S
C265 O279 1.248 . S
C266 O280 1.267 . S
C266 O281 1.278 . S
C267 Pr257 2.880 . S
C267 C268 1.491 . S
C267 O282 1.254 . S
C267 O283 1.225 . S
C268 C267 1.491 . S
C268 C269 1.392 . S
C268 C273 1.356 . S
C269 C268 1.392 . S
C269 C270 1.368 . S
C269 H292 0.929 . S
C270 C269 1.368 . S
C270 C271 1.386 . S
C270 H293 0.929 . S
C271 C270 1.386 . S
C271 C272 1.373 . S
C272 C271 1.373 . S
C272 C273 1.409 . S
C272 H294 0.931 . S
C273 C268 1.356 . S
C273 C272 1.409 . S
C273 H295 0.930 . S
C274 O284 1.270 . S
C274 O285 1.248 1_655 S
C275 O286 1.267 . S
C275 O287 1.278 . S
O276 Pr256 2.562 . S
O276 C258 1.254 . S
O277 Pr256 2.490 . S
O277 C258 1.225 . S
O278 Pr256 2.695 1_445 S
O278 Pr257 2.436 . S
O278 C265 1.270 . S
O279 Pr256 2.512 1_445 S
O279 C265 1.248 . S
O280 Pr257 2.438 1_565 S
O280 C266 1.267 . S
O281 Pr256 2.437 1_455 S
O281 C266 1.278 . S
O282 Pr257 2.562 . S
O282 C267 1.254 . S
O283 Pr257 2.490 . S
O283 C267 1.225 . S
O284 Pr256 2.436 . S
O284 Pr257 2.695 1_665 S
O284 C274 1.270 . S
O285 Pr257 2.512 1_565 S
O285 C274 1.248 1_455 S
O286 Pr256 2.438 1_545 S
O286 C275 1.267 . S
O287 Pr257 2.437 1_655 S
O287 C275 1.278 . S
H288 C260 0.929 . S
H289 C261 0.929 . S
H290 C263 0.931 . S
H291 C264 0.930 . S
H292 C269 0.929 . S
H293 C270 0.929 . S
H294 C272 0.931 . S
H295 C273 0.930 . S
Pr296 C298 2.880 . S
Pr296 O316 2.562 . S
Pr296 O317 2.490 . S
Pr296 O318 2.695 1_554 S
Pr296 O319 2.512 1_554 S
Pr296 O321 2.437 . S
Pr296 O324 2.436 1_545 S
Pr296 O326 2.438 1_544 S
Pr297 C307 2.880 1_554 S
Pr297 O318 2.436 1_564 S
Pr297 O320 2.438 1_565 S
Pr297 O322 2.562 1_554 S
Pr297 O323 2.490 1_554 S
Pr297 O324 2.695 . S
Pr297 O325 2.512 . S
Pr297 O327 2.437 1_554 S
C298 Pr296 2.880 . S
C298 C299 1.491 . S
C298 O316 1.254 . S
C298 O317 1.225 . S
C299 C298 1.491 . S
C299 C300 1.392 . S
C299 C304 1.356 . S
C300 C299 1.392 . S
C300 C301 1.368 . S
C300 H328 0.929 . S
C301 C300 1.368 . S
C301 C302 1.386 . S
C301 H329 0.929 . S
C302 C301 1.386 . S
C302 C303 1.373 . S
C303 C302 1.373 . S
C303 C304 1.409 . S
C303 H330 0.931 . S
C304 C299 1.356 . S
C304 C303 1.409 . S
C304 H331 0.930 . S
C305 O318 1.270 . S
C305 O319 1.248 . S
C306 O320 1.267 . S
C306 O321 1.278 . S
C307 Pr297 2.880 1_556 S
C307 C308 1.491 . S
C307 O322 1.254 . S
C307 O323 1.225 . S
C308 C307 1.491 . S
C308 C309 1.392 . S
C308 C313 1.356 . S
C309 C308 1.392 . S
C309 C310 1.368 . S
C309 H332 0.929 . S
C310 C309 1.368 . S
C310 C311 1.386 . S
C310 H333 0.929 . S
C311 C310 1.386 . S
C311 C312 1.373 . S
C312 C311 1.373 . S
C312 C313 1.409 . S
C312 H334 0.931 . S
C313 C308 1.356 . S
C313 C312 1.409 . S
C313 H335 0.930 . S
C314 O324 1.270 . S
C314 O325 1.248 . S
C315 O326 1.267 . S
C315 O327 1.278 . S
O316 Pr296 2.562 . S
O316 C298 1.254 . S
O317 Pr296 2.490 . S
O317 C298 1.225 . S
O318 Pr296 2.695 1_556 S
O318 Pr297 2.436 1_546 S
O318 C305 1.270 . S
O319 Pr296 2.512 1_556 S
O319 C305 1.248 . S
O320 Pr297 2.438 1_545 S
O320 C306 1.267 . S
O321 Pr296 2.437 . S
O321 C306 1.278 . S
O322 Pr297 2.562 1_556 S
O322 C307 1.254 . S
O323 Pr297 2.490 1_556 S
O323 C307 1.225 . S
O324 Pr296 2.436 1_565 S
O324 Pr297 2.695 . S
O324 C314 1.270 . S
O325 Pr297 2.512 . S
O325 C314 1.248 . S
O326 Pr296 2.438 1_566 S
O326 C315 1.267 . S
O327 Pr297 2.437 1_556 S
O327 C315 1.278 . S
H328 C300 0.929 . S
H329 C301 0.929 . S
H330 C303 0.931 . S
H331 C304 0.930 . S
H332 C309 0.929 . S
H333 C310 0.929 . S
H334 C312 0.931 . S
H335 C313 0.930 . S
Pr336 C338 2.880 . S
Pr336 O356 2.562 . S
Pr336 O357 2.490 . S
Pr336 O358 2.695 . S
Pr336 O359 2.512 . S
Pr336 O361 2.437 . S
Pr336 O364 2.436 . S
Pr336 O366 2.438 . S
Pr337 C347 2.880 . S
Pr337 O358 2.436 . S
Pr337 O360 2.438 . S
Pr337 O362 2.562 . S
Pr337 O363 2.490 . S
Pr337 O364 2.695 . S
Pr337 O365 2.512 . S
Pr337 O367 2.437 . S
C338 Pr336 2.880 . S
C338 C339 1.491 . S
C338 O356 1.254 . S
C338 O357 1.225 . S
C339 C338 1.491 . S
C339 C340 1.392 . S
C339 C344 1.356 . S
C340 C339 1.392 . S
C340 C341 1.368 . S
C340 H368 0.929 . S
C341 C340 1.368 . S
C341 C342 1.386 . S
C341 H369 0.929 . S
C342 C341 1.386 . S
C342 C343 1.373 . S
C343 C342 1.373 . S
C343 C344 1.409 . S
C343 H370 0.931 . S
C344 C339 1.356 . S
C344 C343 1.409 . S
C344 H371 0.930 . S
C345 O358 1.270 . S
C345 O359 1.248 . S
C346 O360 1.267 . S
C346 O361 1.278 . S
C347 Pr337 2.880 . S
C347 C348 1.491 . S
C347 O362 1.254 . S
C347 O363 1.225 . S
C348 C347 1.491 . S
C348 C349 1.392 . S
C348 C353 1.356 . S
C349 C348 1.392 . S
C349 C350 1.368 . S
C349 H372 0.929 . S
C350 C349 1.368 . S
C350 C351 1.386 . S
C350 H373 0.929 . S
C351 C350 1.386 . S
C351 C352 1.373 . S
C352 C351 1.373 . S
C352 C353 1.409 . S
C352 H374 0.931 . S
C353 C348 1.356 . S
C353 C352 1.409 . S
C353 H375 0.930 . S
C354 O364 1.270 . S
C354 O365 1.248 . S
C355 O366 1.267 . S
C355 O367 1.278 . S
O356 Pr336 2.562 . S
O356 C338 1.254 . S
O357 Pr336 2.490 . S
O357 C338 1.225 . S
O358 Pr336 2.695 . S
O358 Pr337 2.436 . S
O358 C345 1.270 . S
O359 Pr336 2.512 . S
O359 C345 1.248 . S
O360 Pr337 2.438 . S
O360 C346 1.267 . S
O361 Pr336 2.437 . S
O361 C346 1.278 . S
O362 Pr337 2.562 . S
O362 C347 1.254 . S
O363 Pr337 2.490 . S
O363 C347 1.225 . S
O364 Pr336 2.436 . S
O364 Pr337 2.695 . S
O364 C354 1.270 . S
O365 Pr337 2.512 . S
O365 C354 1.248 . S
O366 Pr336 2.438 . S
O366 C355 1.267 . S
O367 Pr337 2.437 . S
O367 C355 1.278 . S
H368 C340 0.929 . S
H369 C341 0.929 . S
H370 C343 0.931 . S
H371 C344 0.930 . S
H372 C349 0.929 . S
H373 C350 0.929 . S
H374 C352 0.931 . S
H375 C353 0.930 . S
Pr376 C378 2.883 1_455 S
Pr376 O396 2.567 1_455 S
Pr376 O397 2.492 1_455 S
Pr376 O398 2.693 1_556 S
Pr376 O399 2.510 1_556 S
Pr376 O401 2.439 1_456 S
Pr376 O404 2.437 1_455 S
Pr376 O406 2.434 . S
Pr377 C387 2.880 . S
Pr377 O398 2.436 . S
Pr377 O400 2.438 1_455 S
Pr377 O402 2.562 . S
Pr377 O403 2.490 . S
Pr377 O404 2.695 1_454 S
Pr377 O405 2.512 1_454 S
Pr377 O407 2.437 1_554 S
C378 Pr376 2.883 1_655 S
C378 C379 1.491 . S
C378 O396 1.254 . S
C378 O397 1.225 . S
C379 C378 1.491 . S
C379 C380 1.392 . S
C379 C384 1.356 . S
C380 C379 1.392 . S
C380 C381 1.368 . S
C380 H408 0.929 . S
C381 C380 1.368 . S
C381 C382 1.386 . S
C381 H409 0.929 . S
C382 C381 1.386 . S
C382 C383 1.373 . S
C383 C382 1.373 . S
C383 C384 1.409 . S
C383 H410 0.931 . S
C384 C379 1.356 . S
C384 C383 1.409 . S
C384 H411 0.930 . S
C385 O398 1.270 . S
C385 O399 1.248 . S
C386 O400 1.267 . S
C386 O401 1.278 . S
C387 Pr377 2.880 . S
C387 C388 1.491 . S
C387 O402 1.254 . S
C387 O403 1.225 . S
C388 C387 1.491 . S
C388 C389 1.392 . S
C388 C393 1.356 . S
C389 C388 1.392 . S
C389 C390 1.368 . S
C389 H412 0.929 . S
C390 C389 1.368 . S
C390 C391 1.386 . S
C390 H413 0.929 . S
C391 C390 1.386 . S
C391 C392 1.373 . S
C392 C391 1.373 . S
C392 C393 1.409 . S
C392 H414 0.931 . S
C393 C388 1.356 . S
C393 C392 1.409 . S
C393 H415 0.930 . S
C394 O404 1.270 . S
C394 O405 1.248 . S
C395 O406 1.267 . S
C395 O407 1.278 . S
O396 Pr376 2.567 1_655 S
O396 C378 1.254 . S
O397 Pr376 2.492 1_655 S
O397 C378 1.225 . S
O398 Pr376 2.693 1_554 S
O398 Pr377 2.436 . S
O398 C385 1.270 . S
O399 Pr376 2.510 1_554 S
O399 C385 1.248 . S
O400 Pr377 2.438 1_655 S
O400 C386 1.267 . S
O401 Pr376 2.439 1_654 S
O401 C386 1.278 . S
O402 Pr377 2.562 . S
O402 C387 1.254 . S
O403 Pr377 2.490 . S
O403 C387 1.225 . S
O404 Pr376 2.437 1_655 S
O404 Pr377 2.695 1_656 S
O404 C394 1.270 . S
O405 Pr377 2.512 1_656 S
O405 C394 1.248 . S
O406 Pr376 2.434 . S
O406 C395 1.267 . S
O407 Pr377 2.437 1_556 S
O407 C395 1.278 . S
H408 C380 0.929 . S
H409 C381 0.929 . S
H410 C383 0.931 . S
H411 C384 0.930 . S
H412 C389 0.929 . S
H413 C390 0.929 . S
H414 C392 0.931 . S
H415 C393 0.930 . S
H416 C424 0.929 . S
H417 C426 0.930 . S
H418 C428 0.930 . S
H419 C431 0.929 . S
H420 C434 0.930 . S
H421 C436 0.960 . S
H422 C436 0.960 . S
H423 C436 0.960 . S
C424 H416 0.929 . S
C424 C425 1.377 . S
C424 C426 1.384 . S
C425 C424 1.377 . S
C425 C431 1.390 . S
C426 H417 0.930 . S
C426 C424 1.384 . S
C426 C427 1.372 . S
C427 C426 1.372 . S
C427 C428 1.400 . S
C427 C432 1.490 . S
C428 H418 0.930 . S
C428 C427 1.400 . S
C428 C431 1.386 . S
H429 C445 0.930 . S
H430 C446 0.931 . S
C431 H419 0.929 . S
C431 C425 1.390 . S
C431 C428 1.386 . S
C432 C427 1.490 . S
C432 C434 1.395 . S
C432 C435 1.403 . S
H433 C439 0.930 . S
C434 H420 0.930 . S
C434 C432 1.395 . S
C434 C437 1.403 . S
C435 C432 1.403 . S
C435 C436 1.524 . S
C435 C439 1.400 . S
C436 H421 0.960 . S
C436 H422 0.960 . S
C436 H423 0.960 . S
C436 C435 1.524 . S
C437 C434 1.403 . S
C437 C438 1.392 . S
C437 C441 1.495 . S
C438 C437 1.392 . S
C438 C439 1.385 . S
C438 C440 1.478 . S
C439 H433 0.930 . S
C439 C435 1.400 . S
C439 C438 1.385 . S
C440 C438 1.478 . S
C440 C442 1.381 . S
C440 C446 1.383 . S
C441 C437 1.495 . S
C441 H447 0.959 . S
C441 H448 0.961 . S
C441 H449 0.960 . S
C442 C440 1.381 . S
C442 C443 1.394 . S
C442 H450 0.930 . S
C443 C442 1.394 . S
C443 C444 1.383 . S
C443 H451 0.929 . S
C444 C443 1.383 . S
C444 C445 1.377 . S
C445 H429 0.930 . S
C445 C444 1.377 . S
C445 C446 1.379 . S
C446 H430 0.931 . S
C446 C440 1.383 . S
C446 C445 1.379 . S
H447 C441 0.959 . S
H448 C441 0.961 . S
H449 C441 0.960 . S
H450 C442 0.930 . S
H451 C443 0.929 . S
H452 C460 0.929 . S
H453 C462 0.930 . S
H454 C464 0.930 . S
H455 C467 0.929 . S
H456 C470 0.930 . S
H457 C472 0.960 . S
H458 C472 0.960 . S
H459 C472 0.960 . S
C460 H452 0.929 . S
C460 C461 1.377 . S
C460 C462 1.384 . S
C461 C460 1.377 . S
C461 C467 1.390 . S
C462 H453 0.930 . S
C462 C460 1.384 . S
C462 C463 1.372 . S
C463 C462 1.372 . S
C463 C464 1.400 . S
C463 C468 1.490 . S
C464 H454 0.930 . S
C464 C463 1.400 . S
C464 C467 1.386 . S
H465 C481 0.930 . S
H466 C482 0.931 . S
C467 H455 0.929 . S
C467 C461 1.390 . S
C467 C464 1.386 . S
C468 C463 1.490 . S
C468 C470 1.395 . S
C468 C471 1.403 . S
H469 C475 0.930 . S
C470 H456 0.930 . S
C470 C468 1.395 . S
C470 C473 1.403 . S
C471 C468 1.403 . S
C471 C472 1.524 . S
C471 C475 1.400 . S
C472 H457 0.960 . S
C472 H458 0.960 . S
C472 H459 0.960 . S
C472 C471 1.524 . S
C473 C470 1.403 . S
C473 C474 1.392 . S
C473 C477 1.495 . S
C474 C473 1.392 . S
C474 C475 1.385 . S
C474 C476 1.478 . S
C475 H469 0.930 . S
C475 C471 1.400 . S
C475 C474 1.385 . S
C476 C474 1.478 . S
C476 C478 1.381 . S
C476 C482 1.383 . S
C477 C473 1.495 . S
C477 H483 0.959 . S
C477 H484 0.961 . S
C477 H485 0.960 . S
C478 C476 1.381 . S
C478 C479 1.394 . S
C478 H486 0.930 . S
C479 C478 1.394 . S
C479 C480 1.383 . S
C479 H487 0.929 . S
C480 C479 1.383 . S
C480 C481 1.377 . S
C481 H465 0.930 . S
C481 C480 1.377 . S
C481 C482 1.379 . S
C482 H466 0.931 . S
C482 C476 1.383 . S
C482 C481 1.379 . S
H483 C477 0.959 . S
H484 C477 0.961 . S
H485 C477 0.960 . S
H486 C478 0.930 . S
H487 C479 0.929 . S
H488 C496 0.929 . S
H489 C498 0.930 . S
H490 C500 0.930 . S
H491 C503 0.929 . S
H492 C506 0.930 . S
H493 C508 0.960 . S
H494 C508 0.960 . S
H495 C508 0.960 . S
C496 H488 0.929 . S
C496 C497 1.377 . S
C496 C498 1.384 . S
C497 C496 1.377 . S
C497 C503 1.390 . S
C498 H489 0.930 . S
C498 C496 1.384 . S
C498 C499 1.372 . S
C499 C498 1.372 . S
C499 C500 1.400 . S
C499 C504 1.490 . S
C500 H490 0.930 . S
C500 C499 1.400 . S
C500 C503 1.386 . S
H501 C517 0.930 . S
H502 C518 0.931 . S
C503 H491 0.929 . S
C503 C497 1.390 . S
C503 C500 1.386 . S
C504 C499 1.490 . S
C504 C506 1.395 . S
C504 C507 1.403 . S
H505 C511 0.930 . S
C506 H492 0.930 . S
C506 C504 1.395 . S
C506 C509 1.403 . S
C507 C504 1.403 . S
C507 C508 1.524 . S
C507 C511 1.400 . S
C508 H493 0.960 . S
C508 H494 0.960 . S
C508 H495 0.960 . S
C508 C507 1.524 . S
C509 C506 1.403 . S
C509 C510 1.392 . S
C509 C513 1.495 . S
C510 C509 1.392 . S
C510 C511 1.385 . S
C510 C512 1.478 . S
C511 H505 0.930 . S
C511 C507 1.400 . S
C511 C510 1.385 . S
C512 C510 1.478 . S
C512 C514 1.381 . S
C512 C518 1.383 . S
C513 C509 1.495 . S
C513 H519 0.959 . S
C513 H520 0.961 . S
C513 H521 0.960 . S
C514 C512 1.381 . S
C514 C515 1.394 . S
C514 H522 0.930 . S
C515 C514 1.394 . S
C515 C516 1.383 . S
C515 H523 0.929 . S
C516 C515 1.383 . S
C516 C517 1.377 . S
C517 H501 0.930 . S
C517 C516 1.377 . S
C517 C518 1.379 . S
C518 H502 0.931 . S
C518 C512 1.383 . S
C518 C517 1.379 . S
H519 C513 0.959 . S
H520 C513 0.961 . S
H521 C513 0.960 . S
H522 C514 0.930 . S
H523 C515 0.929 . S
H524 C532 0.929 . S
H525 C534 0.930 . S
H526 C536 0.930 . S
H527 C539 0.929 . S
H528 C542 0.930 . S
H529 C544 0.960 . S
H530 C544 0.960 . S
H531 C544 0.960 . S
C532 H524 0.929 . S
C532 C533 1.377 . S
C532 C534 1.384 . S
C533 C532 1.377 . S
C533 C539 1.390 . S
C534 H525 0.930 . S
C534 C532 1.384 . S
C534 C535 1.372 . S
C535 C534 1.372 . S
C535 C536 1.400 . S
C535 C540 1.490 . S
C536 H526 0.930 . S
C536 C535 1.400 . S
C536 C539 1.386 . S
H537 C553 0.930 . S
H538 C554 0.931 . S
C539 H527 0.929 . S
C539 C533 1.390 . S
C539 C536 1.386 . S
C540 C535 1.490 . S
C540 C542 1.395 . S
C540 C543 1.403 . S
H541 C547 0.930 . S
C542 H528 0.930 . S
C542 C540 1.395 . S
C542 C545 1.403 . S
C543 C540 1.403 . S
C543 C544 1.524 . S
C543 C547 1.400 . S
C544 H529 0.960 . S
C544 H530 0.960 . S
C544 H531 0.960 . S
C544 C543 1.524 . S
C545 C542 1.403 . S
C545 C546 1.392 . S
C545 C549 1.495 . S
C546 C545 1.392 . S
C546 C547 1.385 . S
C546 C548 1.478 . S
C547 H541 0.930 . S
C547 C543 1.400 . S
C547 C546 1.385 . S
C548 C546 1.478 . S
C548 C550 1.381 . S
C548 C554 1.383 . S
C549 C545 1.495 . S
C549 H555 0.959 . S
C549 H556 0.961 . S
C549 H557 0.960 . S
C550 C548 1.381 . S
C550 C551 1.394 . S
C550 H558 0.930 . S
C551 C550 1.394 . S
C551 C552 1.383 . S
C551 H559 0.929 . S
C552 C551 1.383 . S
C552 C553 1.377 . S
C553 H537 0.930 . S
C553 C552 1.377 . S
C553 C554 1.379 . S
C554 H538 0.931 . S
C554 C548 1.383 . S
C554 C553 1.379 . S
H555 C549 0.959 . S
H556 C549 0.961 . S
H557 C549 0.960 . S
H558 C550 0.930 . S
H559 C551 0.929 . S
H560 C568 0.929 . S
H561 C570 0.930 . S
H562 C572 0.930 . S
H563 C575 0.929 . S
H564 C578 0.930 . S
H565 C580 0.960 . S
H566 C580 0.960 . S
H567 C580 0.960 . S
C568 H560 0.929 . S
C568 C569 1.377 . S
C568 C570 1.384 . S
C569 C568 1.377 . S
C569 C575 1.390 . S
C570 H561 0.930 . S
C570 C568 1.384 . S
C570 C571 1.372 . S
C571 C570 1.372 . S
C571 C572 1.400 . S
C571 C576 1.490 . S
C572 H562 0.930 . S
C572 C571 1.400 . S
C572 C575 1.386 . S
H573 C589 0.930 . S
H574 C590 0.931 . S
C575 H563 0.929 . S
C575 C569 1.390 . S
C575 C572 1.386 . S
C576 C571 1.490 . S
C576 C578 1.395 . S
C576 C579 1.403 . S
H577 C583 0.930 . S
C578 H564 0.930 . S
C578 C576 1.395 . S
C578 C581 1.403 . S
C579 C576 1.403 . S
C579 C580 1.524 . S
C579 C583 1.400 . S
C580 H565 0.960 . S
C580 H566 0.960 . S
C580 H567 0.960 . S
C580 C579 1.524 . S
C581 C578 1.403 . S
C581 C582 1.392 . S
C581 C585 1.495 . S
C582 C581 1.392 . S
C582 C583 1.385 . S
C582 C584 1.478 . S
C583 H577 0.930 . S
C583 C579 1.400 . S
C583 C582 1.385 . S
C584 C582 1.478 . S
C584 C586 1.381 . S
C584 C590 1.383 . S
C585 C581 1.495 . S
C585 H591 0.959 . S
C585 H592 0.961 . S
C585 H593 0.960 . S
C586 C584 1.381 . S
C586 C587 1.394 . S
C586 H594 0.930 . S
C587 C586 1.394 . S
C587 C588 1.383 . S
C587 H595 0.929 . S
C588 C587 1.383 . S
C588 C589 1.377 . S
C589 H573 0.930 . S
C589 C588 1.377 . S
C589 C590 1.379 . S
C590 H574 0.931 . S
C590 C584 1.383 . S
C590 C589 1.379 . S
H591 C585 0.959 . S
H592 C585 0.961 . S
H593 C585 0.960 . S
H594 C586 0.930 . S
H595 C587 0.929 . S
H596 C604 0.929 . S
H597 C606 0.930 . S
H598 C608 0.930 . S
H599 C611 0.929 . S
H600 C614 0.930 . S
H601 C616 0.960 . S
H602 C616 0.960 . S
H603 C616 0.960 . S
C604 H596 0.929 . S
C604 C605 1.377 . S
C604 C606 1.384 . S
C605 C604 1.377 . S
C605 C611 1.390 . S
C606 H597 0.930 . S
C606 C604 1.384 . S
C606 C607 1.372 . S
C607 C606 1.372 . S
C607 C608 1.400 . S
C607 C612 1.490 . S
C608 H598 0.930 . S
C608 C607 1.400 . S
C608 C611 1.386 . S
H609 C625 0.930 . S
H610 C626 0.931 . S
C611 H599 0.929 . S
C611 C605 1.390 . S
C611 C608 1.386 . S
C612 C607 1.490 . S
C612 C614 1.395 . S
C612 C615 1.403 . S
H613 C619 0.930 . S
C614 H600 0.930 . S
C614 C612 1.395 . S
C614 C617 1.403 . S
C615 C612 1.403 . S
C615 C616 1.524 . S
C615 C619 1.400 . S
C616 H601 0.960 . S
C616 H602 0.960 . S
C616 H603 0.960 . S
C616 C615 1.524 . S
C617 C614 1.403 . S
C617 C618 1.392 . S
C617 C621 1.495 . S
C618 C617 1.392 . S
C618 C619 1.385 . S
C618 C620 1.478 . S
C619 H613 0.930 . S
C619 C615 1.400 . S
C619 C618 1.385 . S
C620 C618 1.478 . S
C620 C622 1.381 . S
C620 C626 1.383 . S
C621 C617 1.495 . S
C621 H627 0.959 . S
C621 H628 0.961 . S
C621 H629 0.960 . S
C622 C620 1.381 . S
C622 C623 1.394 . S
C622 H630 0.930 . S
C623 C622 1.394 . S
C623 C624 1.383 . S
C623 H631 0.929 . S
C624 C623 1.383 . S
C624 C625 1.377 . S
C625 H609 0.930 . S
C625 C624 1.377 . S
C625 C626 1.379 . S
C626 H610 0.931 . S
C626 C620 1.383 . S
C626 C625 1.379 . S
H627 C621 0.959 . S
H628 C621 0.961 . S
H629 C621 0.960 . S
H630 C622 0.930 . S
H631 C623 0.929 . S
H632 C640 0.929 . S
H633 C642 0.930 . S
H634 C644 0.930 . S
H635 C647 0.929 . S
H636 C650 0.930 . S
H637 C652 0.960 . S
H638 C652 0.960 . S
H639 C652 0.960 . S
C640 H632 0.929 . S
C640 C641 1.377 . S
C640 C642 1.384 . S
C641 C640 1.377 . S
C641 C647 1.390 . S
C642 H633 0.930 . S
C642 C640 1.384 . S
C642 C643 1.372 . S
C643 C642 1.372 . S
C643 C644 1.400 . S
C643 C648 1.490 . S
C644 H634 0.930 . S
C644 C643 1.400 . S
C644 C647 1.386 . S
H645 C661 0.930 . S
H646 C662 0.931 . S
C647 H635 0.929 . S
C647 C641 1.390 . S
C647 C644 1.386 . S
C648 C643 1.490 . S
C648 C650 1.395 . S
C648 C651 1.403 . S
H649 C655 0.930 . S
C650 H636 0.930 . S
C650 C648 1.395 . S
C650 C653 1.403 . S
C651 C648 1.403 . S
C651 C652 1.524 . S
C651 C655 1.400 . S
C652 H637 0.960 . S
C652 H638 0.960 . S
C652 H639 0.960 . S
C652 C651 1.524 . S
C653 C650 1.403 . S
C653 C654 1.392 . S
C653 C657 1.495 . S
C654 C653 1.392 . S
C654 C655 1.385 . S
C654 C656 1.478 . S
C655 H649 0.930 . S
C655 C651 1.400 . S
C655 C654 1.385 . S
C656 C654 1.478 . S
C656 C658 1.381 . S
C656 C662 1.383 . S
C657 C653 1.495 . S
C657 H663 0.959 . S
C657 H664 0.961 . S
C657 H665 0.960 . S
C658 C656 1.381 . S
C658 C659 1.394 . S
C658 H666 0.930 . S
C659 C658 1.394 . S
C659 C660 1.383 . S
C659 H667 0.929 . S
C660 C659 1.383 . S
C660 C661 1.377 . S
C661 H645 0.930 . S
C661 C660 1.377 . S
C661 C662 1.379 . S
C662 H646 0.931 . S
C662 C656 1.383 . S
C662 C661 1.379 . S
H663 C657 0.959 . S
H664 C657 0.961 . S
H665 C657 0.960 . S
H666 C658 0.930 . S
H667 C659 0.929 . S
H668 C676 0.929 . S
H669 C678 0.930 . S
H670 C680 0.930 . S
H671 C683 0.929 . S
H672 C686 0.930 . S
H673 C688 0.960 . S
H674 C688 0.960 . S
H675 C688 0.960 . S
C676 H668 0.929 . S
C676 C677 1.377 . S
C676 C678 1.384 . S
C677 C676 1.377 . S
C677 C683 1.390 . S
C678 H669 0.930 . S
C678 C676 1.384 . S
C678 C679 1.372 . S
C679 C678 1.372 . S
C679 C680 1.400 . S
C679 C684 1.490 . S
C680 H670 0.930 . S
C680 C679 1.400 . S
C680 C683 1.386 . S
H681 C697 0.930 . S
H682 C698 0.931 . S
C683 H671 0.929 . S
C683 C677 1.390 . S
C683 C680 1.386 . S
C684 C679 1.490 . S
C684 C686 1.395 . S
C684 C687 1.403 . S
H685 C691 0.930 . S
C686 H672 0.930 . S
C686 C684 1.395 . S
C686 C689 1.403 . S
C687 C684 1.403 . S
C687 C688 1.524 . S
C687 C691 1.400 . S
C688 H673 0.960 . S
C688 H674 0.960 . S
C688 H675 0.960 . S
C688 C687 1.524 . S
C689 C686 1.403 . S
C689 C690 1.392 . S
C689 C693 1.495 . S
C690 C689 1.392 . S
C690 C691 1.385 . S
C690 C692 1.478 . S
C691 H685 0.930 . S
C691 C687 1.400 . S
C691 C690 1.385 . S
C692 C690 1.478 . S
C692 C694 1.381 . S
C692 C698 1.383 . S
C693 C689 1.495 . S
C693 H699 0.959 . S
C693 H700 0.961 . S
C693 H701 0.960 . S
C694 C692 1.381 . S
C694 C695 1.394 . S
C694 H702 0.930 . S
C695 C694 1.394 . S
C695 C696 1.383 . S
C695 H703 0.929 . S
C696 C695 1.383 . S
C696 C697 1.377 . S
C697 H681 0.930 . S
C697 C696 1.377 . S
C697 C698 1.379 . S
C698 H682 0.931 . S
C698 C692 1.383 . S
C698 C697 1.379 . S
H699 C693 0.959 . S
H700 C693 0.961 . S
H701 C693 0.960 . S
H702 C694 0.930 . S
H703 C695 0.929 . S
H704 C712 0.929 . S
H705 C714 0.930 . S
H706 C716 0.930 . S
H707 C719 0.929 . S
H708 C722 0.930 . S
H709 C724 0.960 . S
H710 C724 0.960 . S
H711 C724 0.960 . S
C712 H704 0.929 . S
C712 C713 1.377 . S
C712 C714 1.384 . S
C713 C712 1.377 . S
C713 C719 1.390 . S
C714 H705 0.930 . S
C714 C712 1.384 . S
C714 C715 1.372 . S
C715 C714 1.372 . S
C715 C716 1.400 . S
C715 C720 1.490 . S
C716 H706 0.930 . S
C716 C715 1.400 . S
C716 C719 1.386 . S
H717 C733 0.930 . S
H718 C734 0.931 . S
C719 H707 0.929 . S
C719 C713 1.390 . S
C719 C716 1.386 . S
C720 C715 1.490 . S
C720 C722 1.395 . S
C720 C723 1.403 . S
H721 C727 0.930 . S
C722 H708 0.930 . S
C722 C720 1.395 . S
C722 C725 1.403 . S
C723 C720 1.403 . S
C723 C724 1.524 . S
C723 C727 1.400 . S
C724 H709 0.960 . S
C724 H710 0.960 . S
C724 H711 0.960 . S
C724 C723 1.524 . S
C725 C722 1.403 . S
C725 C726 1.392 . S
C725 C729 1.495 . S
C726 C725 1.392 . S
C726 C727 1.385 . S
C726 C728 1.478 . S
C727 H721 0.930 . S
C727 C723 1.400 . S
C727 C726 1.385 . S
C728 C726 1.478 . S
C728 C730 1.381 . S
C728 C734 1.383 . S
C729 C725 1.495 . S
C729 H735 0.959 . S
C729 H736 0.961 . S
C729 H737 0.960 . S
C730 C728 1.381 . S
C730 C731 1.394 . S
C730 H738 0.930 . S
C731 C730 1.394 . S
C731 C732 1.383 . S
C731 H739 0.929 . S
C732 C731 1.383 . S
C732 C733 1.377 . S
C733 H717 0.930 . S
C733 C732 1.377 . S
C733 C734 1.379 . S
C734 H718 0.931 . S
C734 C728 1.383 . S
C734 C733 1.379 . S
H735 C729 0.959 . S
H736 C729 0.961 . S
H737 C729 0.960 . S
H738 C730 0.930 . S
H739 C731 0.929 . S
H740 C748 0.929 . S
H741 C750 0.930 . S
H742 C752 0.930 . S
H743 C755 0.929 . S
H744 C758 0.930 . S
H745 C760 0.960 . S
H746 C760 0.960 . S
H747 C760 0.960 . S
C748 H740 0.929 . S
C748 C749 1.377 . S
C748 C750 1.384 . S
C749 C748 1.377 . S
C749 C755 1.390 . S
C750 H741 0.930 . S
C750 C748 1.384 . S
C750 C751 1.372 . S
C751 C750 1.372 . S
C751 C752 1.400 . S
C751 C756 1.490 . S
C752 H742 0.930 . S
C752 C751 1.400 . S
C752 C755 1.386 . S
H753 C769 0.930 . S
H754 C770 0.931 . S
C755 H743 0.929 . S
C755 C749 1.390 . S
C755 C752 1.386 . S
C756 C751 1.490 . S
C756 C758 1.395 . S
C756 C759 1.403 . S
H757 C763 0.930 . S
C758 H744 0.930 . S
C758 C756 1.395 . S
C758 C761 1.403 . S
C759 C756 1.403 . S
C759 C760 1.524 . S
C759 C763 1.400 . S
C760 H745 0.960 . S
C760 H746 0.960 . S
C760 H747 0.960 . S
C760 C759 1.524 . S
C761 C758 1.403 . S
C761 C762 1.392 . S
C761 C765 1.495 . S
C762 C761 1.392 . S
C762 C763 1.385 . S
C762 C764 1.478 . S
C763 H757 0.930 . S
C763 C759 1.400 . S
C763 C762 1.385 . S
C764 C762 1.478 . S
C764 C766 1.381 . S
C764 C770 1.383 . S
C765 C761 1.495 . S
C765 H771 0.959 . S
C765 H772 0.961 . S
C765 H773 0.960 . S
C766 C764 1.381 . S
C766 C767 1.394 . S
C766 H774 0.930 . S
C767 C766 1.394 . S
C767 C768 1.383 . S
C767 H775 0.929 . S
C768 C767 1.383 . S
C768 C769 1.377 . S
C769 H753 0.930 . S
C769 C768 1.377 . S
C769 C770 1.379 . S
C770 H754 0.931 . S
C770 C764 1.383 . S
C770 C769 1.379 . S
H771 C765 0.959 . S
H772 C765 0.961 . S
H773 C765 0.960 . S
H774 C766 0.930 . S
H775 C767 0.929 . S
H776 C784 0.929 . S
H777 C786 0.930 . S
H778 C788 0.930 . S
H779 C791 0.929 . S
H780 C794 0.930 . S
H781 C796 0.960 . S
H782 C796 0.960 . S
H783 C796 0.960 . S
C784 H776 0.929 . S
C784 C785 1.377 . S
C784 C786 1.384 . S
C785 C784 1.377 . S
C785 C791 1.390 . S
C786 H777 0.930 . S
C786 C784 1.384 . S
C786 C787 1.372 . S
C787 C786 1.372 . S
C787 C788 1.400 . S
C787 C792 1.490 . S
C788 H778 0.930 . S
C788 C787 1.400 . S
C788 C791 1.386 . S
H789 C805 0.930 . S
H790 C806 0.931 . S
C791 H779 0.929 . S
C791 C785 1.390 . S
C791 C788 1.386 . S
C792 C787 1.490 . S
C792 C794 1.395 . S
C792 C795 1.403 . S
H793 C799 0.930 . S
C794 H780 0.930 . S
C794 C792 1.395 . S
C794 C797 1.403 . S
C795 C792 1.403 . S
C795 C796 1.524 . S
C795 C799 1.400 . S
C796 H781 0.960 . S
C796 H782 0.960 . S
C796 H783 0.960 . S
C796 C795 1.524 . S
C797 C794 1.403 . S
C797 C798 1.392 . S
C797 C801 1.495 . S
C798 C797 1.392 . S
C798 C799 1.385 . S
C798 C800 1.478 . S
C799 H793 0.930 . S
C799 C795 1.400 . S
C799 C798 1.385 . S
C800 C798 1.478 . S
C800 C802 1.381 . S
C800 C806 1.383 . S
C801 C797 1.495 . S
C801 H807 0.959 . S
C801 H808 0.961 . S
C801 H809 0.960 . S
C802 C800 1.381 . S
C802 C803 1.394 . S
C802 H810 0.930 . S
C803 C802 1.394 . S
C803 C804 1.383 . S
C803 H811 0.929 . S
C804 C803 1.383 . S
C804 C805 1.377 . S
C805 H789 0.930 . S
C805 C804 1.377 . S
C805 C806 1.379 . S
C806 H790 0.931 . S
C806 C800 1.383 . S
C806 C805 1.379 . S
H807 C801 0.959 . S
H808 C801 0.961 . S
H809 C801 0.960 . S
H810 C802 0.930 . S
H811 C803 0.929 . S
H812 C820 0.929 . S
H813 C822 0.930 . S
H814 C824 0.930 . S
H815 C827 0.929 . S
H816 C830 0.930 . S
H817 C832 0.960 . S
H818 C832 0.960 . S
H819 C832 0.960 . S
C820 H812 0.929 . S
C820 C821 1.377 . S
C820 C822 1.384 . S
C821 C820 1.377 . S
C821 C827 1.390 . S
C822 H813 0.930 . S
C822 C820 1.384 . S
C822 C823 1.372 . S
C823 C822 1.372 . S
C823 C824 1.400 . S
C823 C828 1.490 . S
C824 H814 0.930 . S
C824 C823 1.400 . S
C824 C827 1.386 . S
H825 C841 0.930 . S
H826 C842 0.931 . S
C827 H815 0.929 . S
C827 C821 1.390 . S
C827 C824 1.386 . S
C828 C823 1.490 . S
C828 C830 1.395 . S
C828 C831 1.403 . S
H829 C835 0.930 . S
C830 H816 0.930 . S
C830 C828 1.395 . S
C830 C833 1.403 . S
C831 C828 1.403 . S
C831 C832 1.524 . S
C831 C835 1.400 . S
C832 H817 0.960 . S
C832 H818 0.960 . S
C832 H819 0.960 . S
C832 C831 1.524 . S
C833 C830 1.403 . S
C833 C834 1.392 . S
C833 C837 1.495 . S
C834 C833 1.392 . S
C834 C835 1.385 . S
C834 C836 1.478 . S
C835 H829 0.930 . S
C835 C831 1.400 . S
C835 C834 1.385 . S
C836 C834 1.478 . S
C836 C838 1.381 . S
C836 C842 1.383 . S
C837 C833 1.495 . S
C837 H843 0.959 . S
C837 H844 0.961 . S
C837 H845 0.960 . S
C838 C836 1.381 . S
C838 C839 1.394 . S
C838 H846 0.930 . S
C839 C838 1.394 . S
C839 C840 1.383 . S
C839 H847 0.929 . S
C840 C839 1.383 . S
C840 C841 1.377 . S
C841 H825 0.930 . S
C841 C840 1.377 . S
C841 C842 1.379 . S
C842 H826 0.931 . S
C842 C836 1.383 . S
C842 C841 1.379 . S
H843 C837 0.959 . S
H844 C837 0.961 . S
H845 C837 0.960 . S
H846 C838 0.930 . S
H847 C839 0.929 . S
H848 C856 0.929 . S
H849 C858 0.930 . S
H850 C860 0.930 . S
H851 C863 0.929 . S
H852 C866 0.930 . S
H853 C868 0.960 . S
H854 C868 0.960 . S
H855 C868 0.960 . S
C856 H848 0.929 . S
C856 C857 1.377 . S
C856 C858 1.384 . S
C857 C856 1.377 . S
C857 C863 1.390 . S
C858 H849 0.930 . S
C858 C856 1.384 . S
C858 C859 1.372 . S
C859 C858 1.372 . S
C859 C860 1.400 . S
C859 C864 1.490 . S
C860 H850 0.930 . S
C860 C859 1.400 . S
C860 C863 1.386 . S
H861 C877 0.930 . S
H862 C878 0.931 . S
C863 H851 0.929 . S
C863 C857 1.390 . S
C863 C860 1.386 . S
C864 C859 1.490 . S
C864 C866 1.395 . S
C864 C867 1.403 . S
H865 C871 0.930 . S
C866 H852 0.930 . S
C866 C864 1.395 . S
C866 C869 1.403 . S
C867 C864 1.403 . S
C867 C868 1.524 . S
C867 C871 1.400 . S
C868 H853 0.960 . S
C868 H854 0.960 . S
C868 H855 0.960 . S
C868 C867 1.524 . S
C869 C866 1.403 . S
C869 C870 1.392 . S
C869 C873 1.495 . S
C870 C869 1.392 . S
C870 C871 1.385 . S
C870 C872 1.478 . S
C871 H865 0.930 . S
C871 C867 1.400 . S
C871 C870 1.385 . S
C872 C870 1.478 . S
C872 C874 1.381 . S
C872 C878 1.383 . S
C873 C869 1.495 . S
C873 H879 0.959 . S
C873 H880 0.961 . S
C873 H881 0.960 . S
C874 C872 1.381 . S
C874 C875 1.394 . S
C874 H882 0.930 . S
C875 C874 1.394 . S
C875 C876 1.383 . S
C875 H883 0.929 . S
C876 C875 1.383 . S
C876 C877 1.377 . S
C877 H861 0.930 . S
C877 C876 1.377 . S
C877 C878 1.379 . S
C878 H862 0.931 . S
C878 C872 1.383 . S
C878 C877 1.379 . S
H879 C873 0.959 . S
H880 C873 0.961 . S
H881 C873 0.960 . S
H882 C874 0.930 . S
H883 C875 0.929 . S
H884 C892 0.929 . S
H885 C894 0.930 . S
H886 C896 0.930 . S
H887 C899 0.929 . S
H888 C902 0.930 . S
H889 C904 0.960 . S
H890 C904 0.960 . S
H891 C904 0.960 . S
C892 H884 0.929 . S
C892 C893 1.377 . S
C892 C894 1.384 . S
C893 C892 1.377 . S
C893 C899 1.390 . S
C894 H885 0.930 . S
C894 C892 1.384 . S
C894 C895 1.372 . S
C895 C894 1.372 . S
C895 C896 1.400 . S
C895 C900 1.490 . S
C896 H886 0.930 . S
C896 C895 1.400 . S
C896 C899 1.386 . S
H897 C913 0.930 . S
H898 C914 0.931 . S
C899 H887 0.929 . S
C899 C893 1.390 . S
C899 C896 1.386 . S
C900 C895 1.490 . S
C900 C902 1.395 . S
C900 C903 1.403 . S
H901 C907 0.930 . S
C902 H888 0.930 . S
C902 C900 1.395 . S
C902 C905 1.403 . S
C903 C900 1.403 . S
C903 C904 1.524 . S
C903 C907 1.400 . S
C904 H889 0.960 . S
C904 H890 0.960 . S
C904 H891 0.960 . S
C904 C903 1.524 . S
C905 C902 1.403 . S
C905 C906 1.392 . S
C905 C909 1.495 . S
C906 C905 1.392 . S
C906 C907 1.385 . S
C906 C908 1.478 . S
C907 H901 0.930 . S
C907 C903 1.400 . S
C907 C906 1.385 . S
C908 C906 1.478 . S
C908 C910 1.381 . S
C908 C914 1.383 . S
C909 C905 1.495 . S
C909 H915 0.959 . S
C909 H916 0.961 . S
C909 H917 0.960 . S
C910 C908 1.381 . S
C910 C911 1.394 . S
C910 H918 0.930 . S
C911 C910 1.394 . S
C911 C912 1.383 . S
C911 H919 0.929 . S
C912 C911 1.383 . S
C912 C913 1.377 . S
C913 H897 0.930 . S
C913 C912 1.377 . S
C913 C914 1.379 . S
C914 H898 0.931 . S
C914 C908 1.383 . S
C914 C913 1.379 . S
H915 C909 0.959 . S
H916 C909 0.961 . S
H917 C909 0.960 . S
H918 C910 0.930 . S
H919 C911 0.929 . S
H920 C928 0.929 . S
H921 C930 0.930 . S
H922 C932 0.930 . S
H923 C935 0.929 . S
H924 C938 0.930 . S
H925 C940 0.960 . S
H926 C940 0.960 . S
H927 C940 0.960 . S
C928 H920 0.929 . S
C928 C929 1.377 . S
C928 C930 1.384 . S
C929 C928 1.377 . S
C929 C935 1.390 . S
C930 H921 0.930 . S
C930 C928 1.384 . S
C930 C931 1.372 . S
C931 C930 1.372 . S
C931 C932 1.400 . S
C931 C936 1.490 . S
C932 H922 0.930 . S
C932 C931 1.400 . S
C932 C935 1.386 . S
H933 C949 0.930 . S
H934 C950 0.931 . S
C935 H923 0.929 . S
C935 C929 1.390 . S
C935 C932 1.386 . S
C936 C931 1.490 . S
C936 C938 1.395 . S
C936 C939 1.403 . S
H937 C943 0.930 . S
C938 H924 0.930 . S
C938 C936 1.395 . S
C938 C941 1.403 . S
C939 C936 1.403 . S
C939 C940 1.524 . S
C939 C943 1.400 . S
C940 H925 0.960 . S
C940 H926 0.960 . S
C940 H927 0.960 . S
C940 C939 1.524 . S
C941 C938 1.403 . S
C941 C942 1.392 . S
C941 C945 1.495 . S
C942 C941 1.392 . S
C942 C943 1.385 . S
C942 C944 1.478 . S
C943 H937 0.930 . S
C943 C939 1.400 . S
C943 C942 1.385 . S
C944 C942 1.478 . S
C944 C946 1.381 . S
C944 C950 1.383 . S
C945 C941 1.495 . S
C945 H951 0.959 . S
C945 H952 0.961 . S
C945 H953 0.960 . S
C946 C944 1.381 . S
C946 C947 1.394 . S
C946 H954 0.930 . S
C947 C946 1.394 . S
C947 C948 1.383 . S
C947 H955 0.929 . S
C948 C947 1.383 . S
C948 C949 1.377 . S
C949 H933 0.930 . S
C949 C948 1.377 . S
C949 C950 1.379 . S
C950 H934 0.931 . S
C950 C944 1.383 . S
C950 C949 1.379 . S
H951 C945 0.959 . S
H952 C945 0.961 . S
H953 C945 0.960 . S
H954 C946 0.930 . S
H955 C947 0.929 . S
H956 C964 0.929 . S
H957 C966 0.930 . S
H958 C968 0.930 . S
H959 C971 0.929 . S
H960 C974 0.930 . S
H961 C976 0.960 . S
H962 C976 0.960 . S
H963 C976 0.960 . S
C964 H956 0.929 . S
C964 C965 1.377 . S
C964 C966 1.384 . S
C965 C964 1.377 . S
C965 C971 1.390 . S
C966 H957 0.930 . S
C966 C964 1.384 . S
C966 C967 1.372 . S
C967 C966 1.372 . S
C967 C968 1.400 . S
C967 C972 1.490 . S
C968 H958 0.930 . S
C968 C967 1.400 . S
C968 C971 1.386 . S
H969 C985 0.930 . S
H970 C986 0.931 . S
C971 H959 0.929 . S
C971 C965 1.390 . S
C971 C968 1.386 . S
C972 C967 1.490 . S
C972 C974 1.395 . S
C972 C975 1.403 . S
H973 C979 0.930 . S
C974 H960 0.930 . S
C974 C972 1.395 . S
C974 C977 1.403 . S
C975 C972 1.403 . S
C975 C976 1.524 . S
C975 C979 1.400 . S
C976 H961 0.960 . S
C976 H962 0.960 . S
C976 H963 0.960 . S
C976 C975 1.524 . S
C977 C974 1.403 . S
C977 C978 1.392 . S
C977 C981 1.495 . S
C978 C977 1.392 . S
C978 C979 1.385 . S
C978 C980 1.478 . S
C979 H973 0.930 . S
C979 C975 1.400 . S
C979 C978 1.385 . S
C980 C978 1.478 . S
C980 C982 1.381 . S
C980 C986 1.383 . S
C981 C977 1.495 . S
C981 H987 0.959 . S
C981 H988 0.961 . S
C981 H989 0.960 . S
C982 C980 1.381 . S
C982 C983 1.394 . S
C982 H990 0.930 . S
C983 C982 1.394 . S
C983 C984 1.383 . S
C983 H991 0.929 . S
C984 C983 1.383 . S
C984 C985 1.377 . S
C985 H969 0.930 . S
C985 C984 1.377 . S
C985 C986 1.379 . S
C986 H970 0.931 . S
C986 C980 1.383 . S
C986 C985 1.379 . S
H987 C981 0.959 . S
H988 C981 0.961 . S
H989 C981 0.960 . S
H990 C982 0.930 . S
H991 C983 0.929 . S
H992 C1000 0.929 . S
H993 C1002 0.930 . S
H994 C1004 0.930 . S
H995 C1007 0.929 . S
H996 C1010 0.930 . S
H997 C1012 0.960 . S
H998 C1012 0.960 . S
H999 C1012 0.960 . S
C1000 H992 0.929 . S
C1000 C1001 1.377 . S
C1000 C1002 1.384 . S
C1001 C1000 1.377 . S
C1001 C1007 1.390 . S
C1002 H993 0.930 . S
C1002 C1000 1.384 . S
C1002 C1003 1.372 . S
C1003 C1002 1.372 . S
C1003 C1004 1.400 . S
C1003 C1008 1.490 . S
C1004 H994 0.930 . S
C1004 C1003 1.400 . S
C1004 C1007 1.386 . S
H1005 C1021 0.930 . S
H1006 C1022 0.931 . S
C1007 H995 0.929 . S
C1007 C1001 1.390 . S
C1007 C1004 1.386 . S
C1008 C1003 1.490 . S
C1008 C1010 1.395 . S
C1008 C1011 1.403 . S
H1009 C1015 0.930 . S
C1010 H996 0.930 . S
C1010 C1008 1.395 . S
C1010 C1013 1.403 . S
C1011 C1008 1.403 . S
C1011 C1012 1.524 . S
C1011 C1015 1.400 . S
C1012 H997 0.960 . S
C1012 H998 0.960 . S
C1012 H999 0.960 . S
C1012 C1011 1.524 . S
C1013 C1010 1.403 . S
C1013 C1014 1.392 . S
C1013 C1017 1.495 . S
C1014 C1013 1.392 . S
C1014 C1015 1.385 . S
C1014 C1016 1.478 . S
C1015 H1009 0.930 . S
C1015 C1011 1.400 . S
C1015 C1014 1.385 . S
C1016 C1014 1.478 . S
C1016 C1018 1.381 . S
C1016 C1022 1.383 . S
C1017 C1013 1.495 . S
C1017 H1023 0.959 . S
C1017 H1024 0.961 . S
C1017 H1025 0.960 . S
C1018 C1016 1.381 . S
C1018 C1019 1.394 . S
C1018 H1026 0.930 . S
C1019 C1018 1.394 . S
C1019 C1020 1.383 . S
C1019 H1027 0.929 . S
C1020 C1019 1.383 . S
C1020 C1021 1.377 . S
C1021 H1005 0.930 . S
C1021 C1020 1.377 . S
C1021 C1022 1.379 . S
C1022 H1006 0.931 . S
C1022 C1016 1.383 . S
C1022 C1021 1.379 . S
H1023 C1017 0.959 . S
H1024 C1017 0.961 . S
H1025 C1017 0.960 . S
H1026 C1018 0.930 . S
H1027 C1019 0.929 . S
H1028 C1036 0.929 . S
H1029 C1038 0.930 . S
H1030 C1040 0.930 . S
H1031 C1043 0.929 . S
H1032 C1046 0.930 . S
H1033 C1048 0.960 . S
H1034 C1048 0.960 . S
H1035 C1048 0.960 . S
C1036 H1028 0.929 . S
C1036 C1037 1.377 . S
C1036 C1038 1.384 . S
C1037 C1036 1.377 . S
C1037 C1043 1.390 . S
C1038 H1029 0.930 . S
C1038 C1036 1.384 . S
C1038 C1039 1.372 . S
C1039 C1038 1.372 . S
C1039 C1040 1.400 . S
C1039 C1044 1.490 . S
C1040 H1030 0.930 . S
C1040 C1039 1.400 . S
C1040 C1043 1.386 . S
H1041 C1057 0.930 . S
H1042 C1058 0.931 . S
C1043 H1031 0.929 . S
C1043 C1037 1.390 . S
C1043 C1040 1.386 . S
C1044 C1039 1.490 . S
C1044 C1046 1.395 . S
C1044 C1047 1.403 . S
H1045 C1051 0.930 . S
C1046 H1032 0.930 . S
C1046 C1044 1.395 . S
C1046 C1049 1.403 . S
C1047 C1044 1.403 . S
C1047 C1048 1.524 . S
C1047 C1051 1.400 . S
C1048 H1033 0.960 . S
C1048 H1034 0.960 . S
C1048 H1035 0.960 . S
C1048 C1047 1.524 . S
C1049 C1046 1.403 . S
C1049 C1050 1.392 . S
C1049 C1053 1.495 . S
C1050 C1049 1.392 . S
C1050 C1051 1.385 . S
C1050 C1052 1.478 . S
C1051 H1045 0.930 . S
C1051 C1047 1.400 . S
C1051 C1050 1.385 . S
C1052 C1050 1.478 . S
C1052 C1054 1.381 . S
C1052 C1058 1.383 . S
C1053 C1049 1.495 . S
C1053 H1059 0.959 . S
C1053 H1060 0.961 . S
C1053 H1061 0.960 . S
C1054 C1052 1.381 . S
C1054 C1055 1.394 . S
C1054 H1062 0.930 . S
C1055 C1054 1.394 . S
C1055 C1056 1.383 . S
C1055 H1063 0.929 . S
C1056 C1055 1.383 . S
C1056 C1057 1.377 . S
C1057 H1041 0.930 . S
C1057 C1056 1.377 . S
C1057 C1058 1.379 . S
C1058 H1042 0.931 . S
C1058 C1052 1.383 . S
C1058 C1057 1.379 . S
H1059 C1053 0.959 . S
H1060 C1053 0.961 . S
H1061 C1053 0.960 . S
H1062 C1054 0.930 . S
H1063 C1055 0.929 . S
H1064 C1072 0.929 . S
H1065 C1074 0.930 . S
H1066 C1076 0.930 . S
H1067 C1079 0.929 . S
H1068 C1082 0.930 . S
H1069 C1084 0.960 . S
H1070 C1084 0.960 . S
H1071 C1084 0.960 . S
C1072 H1064 0.929 . S
C1072 C1073 1.377 . S
C1072 C1074 1.384 . S
C1073 C1072 1.377 . S
C1073 C1079 1.390 . S
C1074 H1065 0.930 . S
C1074 C1072 1.384 . S
C1074 C1075 1.372 . S
C1075 C1074 1.372 . S
C1075 C1076 1.400 . S
C1075 C1080 1.490 . S
C1076 H1066 0.930 . S
C1076 C1075 1.400 . S
C1076 C1079 1.386 . S
H1077 C1093 0.930 . S
H1078 C1094 0.931 . S
C1079 H1067 0.929 . S
C1079 C1073 1.390 . S
C1079 C1076 1.386 . S
C1080 C1075 1.490 . S
C1080 C1082 1.395 . S
C1080 C1083 1.403 . S
H1081 C1087 0.930 . S
C1082 H1068 0.930 . S
C1082 C1080 1.395 . S
C1082 C1085 1.403 . S
C1083 C1080 1.403 . S
C1083 C1084 1.524 . S
C1083 C1087 1.400 . S
C1084 H1069 0.960 . S
C1084 H1070 0.960 . S
C1084 H1071 0.960 . S
C1084 C1083 1.524 . S
C1085 C1082 1.403 . S
C1085 C1086 1.392 . S
C1085 C1089 1.495 . S
C1086 C1085 1.392 . S
C1086 C1087 1.385 . S
C1086 C1088 1.478 . S
C1087 H1081 0.930 . S
C1087 C1083 1.400 . S
C1087 C1086 1.385 . S
C1088 C1086 1.478 . S
C1088 C1090 1.381 . S
C1088 C1094 1.383 . S
C1089 C1085 1.495 . S
C1089 H1095 0.959 . S
C1089 H1096 0.961 . S
C1089 H1097 0.960 . S
C1090 C1088 1.381 . S
C1090 C1091 1.394 . S
C1090 H1098 0.930 . S
C1091 C1090 1.394 . S
C1091 C1092 1.383 . S
C1091 H1099 0.929 . S
C1092 C1091 1.383 . S
C1092 C1093 1.377 . S
C1093 H1077 0.930 . S
C1093 C1092 1.377 . S
C1093 C1094 1.379 . S
C1094 H1078 0.931 . S
C1094 C1088 1.383 . S
C1094 C1093 1.379 . S
H1095 C1089 0.959 . S
H1096 C1089 0.961 . S
H1097 C1089 0.960 . S
H1098 C1090 0.930 . S
H1099 C1091 0.929 . S
H1100 C1108 0.929 . S
H1101 C1110 0.930 . S
H1102 C1112 0.930 . S
H1103 C1115 0.929 . S
H1104 C1118 0.930 . S
H1105 C1120 0.960 . S
H1106 C1120 0.960 . S
H1107 C1120 0.960 . S
C1108 H1100 0.929 . S
C1108 C1109 1.377 . S
C1108 C1110 1.384 . S
C1109 C1108 1.377 . S
C1109 C1115 1.390 . S
C1110 H1101 0.930 . S
C1110 C1108 1.384 . S
C1110 C1111 1.372 . S
C1111 C1110 1.372 . S
C1111 C1112 1.400 . S
C1111 C1116 1.490 . S
C1112 H1102 0.930 . S
C1112 C1111 1.400 . S
C1112 C1115 1.386 . S
H1113 C1129 0.930 . S
H1114 C1130 0.931 . S
C1115 H1103 0.929 . S
C1115 C1109 1.390 . S
C1115 C1112 1.386 . S
C1116 C1111 1.490 . S
C1116 C1118 1.395 . S
C1116 C1119 1.403 . S
H1117 C1123 0.930 . S
C1118 H1104 0.930 . S
C1118 C1116 1.395 . S
C1118 C1121 1.403 . S
C1119 C1116 1.403 . S
C1119 C1120 1.524 . S
C1119 C1123 1.400 . S
C1120 H1105 0.960 . S
C1120 H1106 0.960 . S
C1120 H1107 0.960 . S
C1120 C1119 1.524 . S
C1121 C1118 1.403 . S
C1121 C1122 1.392 . S
C1121 C1125 1.495 . S
C1122 C1121 1.392 . S
C1122 C1123 1.385 . S
C1122 C1124 1.478 . S
C1123 H1117 0.930 . S
C1123 C1119 1.400 . S
C1123 C1122 1.385 . S
C1124 C1122 1.478 . S
C1124 C1126 1.381 . S
C1124 C1130 1.383 . S
C1125 C1121 1.495 . S
C1125 H1131 0.959 . S
C1125 H1132 0.961 . S
C1125 H1133 0.960 . S
C1126 C1124 1.381 . S
C1126 C1127 1.394 . S
C1126 H1134 0.930 . S
C1127 C1126 1.394 . S
C1127 C1128 1.383 . S
C1127 H1135 0.929 . S
C1128 C1127 1.383 . S
C1128 C1129 1.377 . S
C1129 H1113 0.930 . S
C1129 C1128 1.377 . S
C1129 C1130 1.379 . S
C1130 H1114 0.931 . S
C1130 C1124 1.383 . S
C1130 C1129 1.379 . S
H1131 C1125 0.959 . S
H1132 C1125 0.961 . S
H1133 C1125 0.960 . S
H1134 C1126 0.930 . S
H1135 C1127 0.929 . S
H1136 C1144 0.929 . S
H1137 C1146 0.930 . S
H1138 C1148 0.930 . S
H1139 C1151 0.929 . S
H1140 C1154 0.930 . S
H1141 C1156 0.960 . S
H1142 C1156 0.960 . S
H1143 C1156 0.960 . S
C1144 H1136 0.929 . S
C1144 C1145 1.377 . S
C1144 C1146 1.384 . S
C1145 C1144 1.377 . S
C1145 C1151 1.390 . S
C1146 H1137 0.930 . S
C1146 C1144 1.384 . S
C1146 C1147 1.372 . S
C1147 C1146 1.372 . S
C1147 C1148 1.400 . S
C1147 C1152 1.490 . S
C1148 H1138 0.930 . S
C1148 C1147 1.400 . S
C1148 C1151 1.386 . S
H1149 C1165 0.930 . S
H1150 C1166 0.931 . S
C1151 H1139 0.929 . S
C1151 C1145 1.390 . S
C1151 C1148 1.386 . S
C1152 C1147 1.490 . S
C1152 C1154 1.395 . S
C1152 C1155 1.403 . S
H1153 C1159 0.930 . S
C1154 H1140 0.930 . S
C1154 C1152 1.395 . S
C1154 C1157 1.403 . S
C1155 C1152 1.403 . S
C1155 C1156 1.524 . S
C1155 C1159 1.400 . S
C1156 H1141 0.960 . S
C1156 H1142 0.960 . S
C1156 H1143 0.960 . S
C1156 C1155 1.524 . S
C1157 C1154 1.403 . S
C1157 C1158 1.392 . S
C1157 C1161 1.495 . S
C1158 C1157 1.392 . S
C1158 C1159 1.385 . S
C1158 C1160 1.478 . S
C1159 H1153 0.930 . S
C1159 C1155 1.400 . S
C1159 C1158 1.385 . S
C1160 C1158 1.478 . S
C1160 C1162 1.381 . S
C1160 C1166 1.383 . S
C1161 C1157 1.495 . S
C1161 H1167 0.959 . S
C1161 H1168 0.961 . S
C1161 H1169 0.960 . S
C1162 C1160 1.381 . S
C1162 C1163 1.394 . S
C1162 H1170 0.930 . S
C1163 C1162 1.394 . S
C1163 C1164 1.383 . S
C1163 H1171 0.929 . S
C1164 C1163 1.383 . S
C1164 C1165 1.377 . S
C1165 H1149 0.930 . S
C1165 C1164 1.377 . S
C1165 C1166 1.379 . S
C1166 H1150 0.931 . S
C1166 C1160 1.383 . S
C1166 C1165 1.379 . S
H1167 C1161 0.959 . S
H1168 C1161 0.961 . S
H1169 C1161 0.960 . S
H1170 C1162 0.930 . S
H1171 C1163 0.929 . S
H1172 C1180 0.929 . S
H1173 C1182 0.930 . S
H1174 C1184 0.930 . S
H1175 C1187 0.929 . S
H1176 C1190 0.930 . S
H1177 C1192 0.960 . S
H1178 C1192 0.960 . S
H1179 C1192 0.960 . S
C1180 H1172 0.929 . S
C1180 C1181 1.377 . S
C1180 C1182 1.384 . S
C1181 C1180 1.377 . S
C1181 C1187 1.390 . S
C1182 H1173 0.930 . S
C1182 C1180 1.384 . S
C1182 C1183 1.372 . S
C1183 C1182 1.372 . S
C1183 C1184 1.400 . S
C1183 C1188 1.490 . S
C1184 H1174 0.930 . S
C1184 C1183 1.400 . S
C1184 C1187 1.386 . S
H1185 C1201 0.930 . S
H1186 C1202 0.931 . S
C1187 H1175 0.929 . S
C1187 C1181 1.390 . S
C1187 C1184 1.386 . S
C1188 C1183 1.490 . S
C1188 C1190 1.395 . S
C1188 C1191 1.403 . S
H1189 C1195 0.930 . S
C1190 H1176 0.930 . S
C1190 C1188 1.395 . S
C1190 C1193 1.403 . S
C1191 C1188 1.403 . S
C1191 C1192 1.524 . S
C1191 C1195 1.400 . S
C1192 H1177 0.960 . S
C1192 H1178 0.960 . S
C1192 H1179 0.960 . S
C1192 C1191 1.524 . S
C1193 C1190 1.403 . S
C1193 C1194 1.392 . S
C1193 C1197 1.495 . S
C1194 C1193 1.392 . S
C1194 C1195 1.385 . S
C1194 C1196 1.478 . S
C1195 H1189 0.930 . S
C1195 C1191 1.400 . S
C1195 C1194 1.385 . S
C1196 C1194 1.478 . S
C1196 C1198 1.381 . S
C1196 C1202 1.383 . S
C1197 C1193 1.495 . S
C1197 H1203 0.959 . S
C1197 H1204 0.961 . S
C1197 H1205 0.960 . S
C1198 C1196 1.381 . S
C1198 C1199 1.394 . S
C1198 H1206 0.930 . S
C1199 C1198 1.394 . S
C1199 C1200 1.383 . S
C1199 H1207 0.929 . S
C1200 C1199 1.383 . S
C1200 C1201 1.377 . S
C1201 H1185 0.930 . S
C1201 C1200 1.377 . S
C1201 C1202 1.379 . S
C1202 H1186 0.931 . S
C1202 C1196 1.383 . S
C1202 C1201 1.379 . S
H1203 C1197 0.959 . S
H1204 C1197 0.961 . S
H1205 C1197 0.960 . S
H1206 C1198 0.930 . S
H1207 C1199 0.929 . S
H1208 C1216 0.929 . S
H1209 C1218 0.930 . S
H1210 C1220 0.930 . S
H1211 C1223 0.929 . S
H1212 C1226 0.930 . S
H1213 C1228 0.960 . S
H1214 C1228 0.960 . S
H1215 C1228 0.960 . S
C1216 H1208 0.929 . S
C1216 C1217 1.377 . S
C1216 C1218 1.384 . S
C1217 C1216 1.377 . S
C1217 C1223 1.390 . S
C1218 H1209 0.930 . S
C1218 C1216 1.384 . S
C1218 C1219 1.372 . S
C1219 C1218 1.372 . S
C1219 C1220 1.400 . S
C1219 C1224 1.490 . S
C1220 H1210 0.930 . S
C1220 C1219 1.400 . S
C1220 C1223 1.386 . S
H1221 C1237 0.930 . S
H1222 C1238 0.931 . S
C1223 H1211 0.929 . S
C1223 C1217 1.390 . S
C1223 C1220 1.386 . S
C1224 C1219 1.490 . S
C1224 C1226 1.395 . S
C1224 C1227 1.403 . S
H1225 C1231 0.930 . S
C1226 H1212 0.930 . S
C1226 C1224 1.395 . S
C1226 C1229 1.403 . S
C1227 C1224 1.403 . S
C1227 C1228 1.524 . S
C1227 C1231 1.400 . S
C1228 H1213 0.960 . S
C1228 H1214 0.960 . S
C1228 H1215 0.960 . S
C1228 C1227 1.524 . S
C1229 C1226 1.403 . S
C1229 C1230 1.392 . S
C1229 C1233 1.495 . S
C1230 C1229 1.392 . S
C1230 C1231 1.385 . S
C1230 C1232 1.478 . S
C1231 H1225 0.930 . S
C1231 C1227 1.400 . S
C1231 C1230 1.385 . S
C1232 C1230 1.478 . S
C1232 C1234 1.381 . S
C1232 C1238 1.383 . S
C1233 C1229 1.495 . S
C1233 H1239 0.959 . S
C1233 H1240 0.961 . S
C1233 H1241 0.960 . S
C1234 C1232 1.381 . S
C1234 C1235 1.394 . S
C1234 H1242 0.930 . S
C1235 C1234 1.394 . S
C1235 C1236 1.383 . S
C1235 H1243 0.929 . S
C1236 C1235 1.383 . S
C1236 C1237 1.377 . S
C1237 H1221 0.930 . S
C1237 C1236 1.377 . S
C1237 C1238 1.379 . S
C1238 H1222 0.931 . S
C1238 C1232 1.383 . S
C1238 C1237 1.379 . S
H1239 C1233 0.959 . S
H1240 C1233 0.961 . S
H1241 C1233 0.960 . S
H1242 C1234 0.930 . S
H1243 C1235 0.929 . S
H1244 C1252 0.929 . S
H1245 C1254 0.930 . S
H1246 C1256 0.930 . S
H1247 C1259 0.929 . S
H1248 C1262 0.930 . S
H1249 C1264 0.960 . S
H1250 C1264 0.960 . S
H1251 C1264 0.960 . S
C1252 H1244 0.929 . S
C1252 C1253 1.377 . S
C1252 C1254 1.384 . S
C1253 C1252 1.377 . S
C1253 C1259 1.390 . S
C1254 H1245 0.930 . S
C1254 C1252 1.384 . S
C1254 C1255 1.372 . S
C1255 C1254 1.372 . S
C1255 C1256 1.400 . S
C1255 C1260 1.490 . S
C1256 H1246 0.930 . S
C1256 C1255 1.400 . S
C1256 C1259 1.386 . S
H1257 C1273 0.930 . S
H1258 C1274 0.931 . S
C1259 H1247 0.929 . S
C1259 C1253 1.390 . S
C1259 C1256 1.386 . S
C1260 C1255 1.490 . S
C1260 C1262 1.395 . S
C1260 C1263 1.403 . S
H1261 C1267 0.930 . S
C1262 H1248 0.930 . S
C1262 C1260 1.395 . S
C1262 C1265 1.403 . S
C1263 C1260 1.403 . S
C1263 C1264 1.524 . S
C1263 C1267 1.400 . S
C1264 H1249 0.960 . S
C1264 H1250 0.960 . S
C1264 H1251 0.960 . S
C1264 C1263 1.524 . S
C1265 C1262 1.403 . S
C1265 C1266 1.392 . S
C1265 C1269 1.495 . S
C1266 C1265 1.392 . S
C1266 C1267 1.385 . S
C1266 C1268 1.478 . S
C1267 H1261 0.930 . S
C1267 C1263 1.400 . S
C1267 C1266 1.385 . S
C1268 C1266 1.478 . S
C1268 C1270 1.381 . S
C1268 C1274 1.383 . S
C1269 C1265 1.495 . S
C1269 H1275 0.959 . S
C1269 H1276 0.961 . S
C1269 H1277 0.960 . S
C1270 C1268 1.381 . S
C1270 C1271 1.394 . S
C1270 H1278 0.930 . S
C1271 C1270 1.394 . S
C1271 C1272 1.383 . S
C1271 H1279 0.929 . S
C1272 C1271 1.383 . S
C1272 C1273 1.377 . S
C1273 H1257 0.930 . S
C1273 C1272 1.377 . S
C1273 C1274 1.379 . S
C1274 H1258 0.931 . S
C1274 C1268 1.383 . S
C1274 C1273 1.379 . S
H1275 C1269 0.959 . S
H1276 C1269 0.961 . S
H1277 C1269 0.960 . S
H1278 C1270 0.930 . S
H1279 C1271 0.929 . S
C425 C29 0.939 . S
C444 C271 0.912 . S
C461 C49 1.399 . S
C480 C315 1.464 . S
C516 C345 2.044 . S
C497 C93 2.066 . S
C533 C119 2.725 . S
C552 C386 2.707 . S
C588 C302 0.651 . S
C569 C17 0.653 . S
C624 C266 2.591 . S
C605 C61 2.485 . S
C660 C394 1.111 . S
C641 C81 1.092 . S
C696 C355 2.171 . S
C677 C125 2.223 . S
C713 C23 0.648 . S
C732 C391 0.699 . S
C768 C305 1.957 . S
C749 C87 1.982 . S
C785 C113 2.139 . S
C804 C274 2.061 . S
C821 C55 1.776 . S
C840 C342 1.849 . S
C876 C262 0.906 . S
C857 C157 0.882 . S
C893 C189 1.592 . S
C912 C306 1.524 . S
C929 C221 1.968 . S
C948 C354 2.011 . S
C965 C253 2.789 . S
C984 C395 2.757 . S
C1001 C145 0.716 . S
C1020 C311 0.742 . S
C1056 C275 2.533 . S
C1037 C183 2.541 . S
C1092 C385 1.152 . S
C1073 C209 1.096 . S
C1128 C346 2.144 . S
C1109 C247 2.169 . S
C1145 C151 0.679 . S
C1164 C382 0.690 . S
C1200 C314 1.920 . S
C1181 C215 1.913 . S
C1236 C265 2.074 . S
C1217 C241 2.100 . S
C1253 C177 1.896 . S
C1272 C351 1.872 . S
