# Generated by pormake.
# Topology bwt, (3,3)-cn, num edge types: 1
# Building blocks:
#     Node 0, Type 0, BuildingBlock: OLANEW_clean_sbu_2, # of connection points: 3
#     Node 1, Type 0, BuildingBlock: OLANEW_clean_sbu_2, # of connection points: 3
#     Node 2, Type 0, BuildingBlock: OLANEW_clean_sbu_2, # of connection points: 3
#     Node 3, Type 0, BuildingBlock: OLANEW_clean_sbu_2, # of connection points: 3
#     Node 4, Type 0, BuildingBlock: OLANEW_clean_sbu_2, # of connection points: 3
#     Node 5, Type 0, BuildingBlock: OLANEW_clean_sbu_2, # of connection points: 3
#     Node 6, Type 0, BuildingBlock: OLANEW_clean_sbu_2, # of connection points: 3
#     Node 7, Type 0, BuildingBlock: OLANEW_clean_sbu_2, # of connection points: 3
#     Node 8, Type 0, BuildingBlock: OLANEW_clean_sbu_2, # of connection points: 3
#     Node 9, Type 0, BuildingBlock: OLANEW_clean_sbu_2, # of connection points: 3
#     Node 10, Type 0, BuildingBlock: OLANEW_clean_sbu_2, # of connection points: 3
#     Node 11, Type 0, BuildingBlock: OLANEW_clean_sbu_2, # of connection points: 3
#     Node 12, Type 0, BuildingBlock: OLANEW_clean_sbu_2, # of connection points: 3
#     Node 13, Type 0, BuildingBlock: OLANEW_clean_sbu_2, # of connection points: 3
#     Node 14, Type 0, BuildingBlock: OLANEW_clean_sbu_2, # of connection points: 3
#     Node 15, Type 0, BuildingBlock: OLANEW_clean_sbu_2, # of connection points: 3
#     Node 16, Type 0, BuildingBlock: OLANEW_clean_sbu_2, # of connection points: 3
#     Node 17, Type 0, BuildingBlock: OLANEW_clean_sbu_2, # of connection points: 3
#     Node 18, Type 0, BuildingBlock: OLANEW_clean_sbu_2, # of connection points: 3
#     Node 19, Type 0, BuildingBlock: OLANEW_clean_sbu_2, # of connection points: 3
#     Node 20, Type 0, BuildingBlock: OLANEW_clean_sbu_2, # of connection points: 3
#     Node 21, Type 0, BuildingBlock: OLANEW_clean_sbu_2, # of connection points: 3
#     Node 22, Type 0, BuildingBlock: OLANEW_clean_sbu_2, # of connection points: 3
#     Node 23, Type 0, BuildingBlock: OLANEW_clean_sbu_2, # of connection points: 3
#     Node 24, Type 1, BuildingBlock: ESEHIV_clean_linker_0, # of connection points: 3
#     Node 25, Type 1, BuildingBlock: ESEHIV_clean_linker_0, # of connection points: 3
#     Node 26, Type 1, BuildingBlock: ESEHIV_clean_linker_0, # of connection points: 3
#     Node 27, Type 1, BuildingBlock: ESEHIV_clean_linker_0, # of connection points: 3
#     Node 28, Type 1, BuildingBlock: ESEHIV_clean_linker_0, # of connection points: 3
#     Node 29, Type 1, BuildingBlock: ESEHIV_clean_linker_0, # of connection points: 3
#     Node 30, Type 1, BuildingBlock: ESEHIV_clean_linker_0, # of connection points: 3
#     Node 31, Type 1, BuildingBlock: ESEHIV_clean_linker_0, # of connection points: 3
#     Node 32, Type 1, BuildingBlock: ESEHIV_clean_linker_0, # of connection points: 3
#     Node 33, Type 1, BuildingBlock: ESEHIV_clean_linker_0, # of connection points: 3
#     Node 34, Type 1, BuildingBlock: ESEHIV_clean_linker_0, # of connection points: 3
#     Node 35, Type 1, BuildingBlock: ESEHIV_clean_linker_0, # of connection points: 3
#     Node 36, Type 1, BuildingBlock: ESEHIV_clean_linker_0, # of connection points: 3
#     Node 37, Type 1, BuildingBlock: ESEHIV_clean_linker_0, # of connection points: 3
#     Node 38, Type 1, BuildingBlock: ESEHIV_clean_linker_0, # of connection points: 3
#     Node 39, Type 1, BuildingBlock: ESEHIV_clean_linker_0, # of connection points: 3
#     Node 40, Type 1, BuildingBlock: ESEHIV_clean_linker_0, # of connection points: 3
#     Node 41, Type 1, BuildingBlock: ESEHIV_clean_linker_0, # of connection points: 3
#     Node 42, Type 1, BuildingBlock: ESEHIV_clean_linker_0, # of connection points: 3
#     Node 43, Type 1, BuildingBlock: ESEHIV_clean_linker_0, # of connection points: 3
#     Node 44, Type 1, BuildingBlock: ESEHIV_clean_linker_0, # of connection points: 3
#     Node 45, Type 1, BuildingBlock: ESEHIV_clean_linker_0, # of connection points: 3
#     Node 46, Type 1, BuildingBlock: ESEHIV_clean_linker_0, # of connection points: 3
#     Node 47, Type 1, BuildingBlock: ESEHIV_clean_linker_0, # of connection points: 3
#     Edge 48, Type (0, 1), BuildingBlock: ZUJKAS_clean_linker_0, # of connection points: 2
#     Edge 49, Type (0, 1), BuildingBlock: ZUJKAS_clean_linker_0, # of connection points: 2
#     Edge 50, Type (0, 1), BuildingBlock: ZUJKAS_clean_linker_0, # of connection points: 2
#     Edge 51, Type (0, 1), BuildingBlock: ZUJKAS_clean_linker_0, # of connection points: 2
#     Edge 52, Type (0, 1), BuildingBlock: ZUJKAS_clean_linker_0, # of connection points: 2
#     Edge 53, Type (0, 1), BuildingBlock: ZUJKAS_clean_linker_0, # of connection points: 2
#     Edge 54, Type (0, 1), BuildingBlock: ZUJKAS_clean_linker_0, # of connection points: 2
#     Edge 55, Type (0, 1), BuildingBlock: ZUJKAS_clean_linker_0, # of connection points: 2
#     Edge 56, Type (0, 1), BuildingBlock: ZUJKAS_clean_linker_0, # of connection points: 2
#     Edge 57, Type (0, 1), BuildingBlock: ZUJKAS_clean_linker_0, # of connection points: 2
#     Edge 58, Type (0, 1), BuildingBlock: ZUJKAS_clean_linker_0, # of connection points: 2
#     Edge 59, Type (0, 1), BuildingBlock: ZUJKAS_clean_linker_0, # of connection points: 2
#     Edge 60, Type (0, 1), BuildingBlock: ZUJKAS_clean_linker_0, # of connection points: 2
#     Edge 61, Type (0, 1), BuildingBlock: ZUJKAS_clean_linker_0, # of connection points: 2
#     Edge 62, Type (0, 1), BuildingBlock: ZUJKAS_clean_linker_0, # of connection points: 2
#     Edge 63, Type (0, 1), BuildingBlock: ZUJKAS_clean_linker_0, # of connection points: 2
#     Edge 64, Type (0, 1), BuildingBlock: ZUJKAS_clean_linker_0, # of connection points: 2
#     Edge 65, Type (0, 1), BuildingBlock: ZUJKAS_clean_linker_0, # of connection points: 2
#     Edge 66, Type (0, 1), BuildingBlock: ZUJKAS_clean_linker_0, # of connection points: 2
#     Edge 67, Type (0, 1), BuildingBlock: ZUJKAS_clean_linker_0, # of connection points: 2
#     Edge 68, Type (0, 1), BuildingBlock: ZUJKAS_clean_linker_0, # of connection points: 2
#     Edge 69, Type (0, 1), BuildingBlock: ZUJKAS_clean_linker_0, # of connection points: 2
#     Edge 70, Type (0, 1), BuildingBlock: ZUJKAS_clean_linker_0, # of connection points: 2
#     Edge 71, Type (0, 1), BuildingBlock: ZUJKAS_clean_linker_0, # of connection points: 2
#     Edge 72, Type (0, 1), BuildingBlock: ZUJKAS_clean_linker_0, # of connection points: 2
#     Edge 73, Type (0, 1), BuildingBlock: ZUJKAS_clean_linker_0, # of connection points: 2
#     Edge 74, Type (0, 1), BuildingBlock: ZUJKAS_clean_linker_0, # of connection points: 2
#     Edge 75, Type (0, 1), BuildingBlock: ZUJKAS_clean_linker_0, # of connection points: 2
#     Edge 76, Type (0, 1), BuildingBlock: ZUJKAS_clean_linker_0, # of connection points: 2
#     Edge 77, Type (0, 1), BuildingBlock: ZUJKAS_clean_linker_0, # of connection points: 2
#     Edge 78, Type (0, 1), BuildingBlock: ZUJKAS_clean_linker_0, # of connection points: 2
#     Edge 79, Type (0, 1), BuildingBlock: ZUJKAS_clean_linker_0, # of connection points: 2
#     Edge 80, Type (0, 1), BuildingBlock: ZUJKAS_clean_linker_0, # of connection points: 2
#     Edge 81, Type (0, 1), BuildingBlock: ZUJKAS_clean_linker_0, # of connection points: 2
#     Edge 82, Type (0, 1), BuildingBlock: ZUJKAS_clean_linker_0, # of connection points: 2
#     Edge 83, Type (0, 1), BuildingBlock: ZUJKAS_clean_linker_0, # of connection points: 2
#     Edge 84, Type (0, 1), BuildingBlock: ZUJKAS_clean_linker_0, # of connection points: 2
#     Edge 85, Type (0, 1), BuildingBlock: ZUJKAS_clean_linker_0, # of connection points: 2
#     Edge 86, Type (0, 1), BuildingBlock: ZUJKAS_clean_linker_0, # of connection points: 2
#     Edge 87, Type (0, 1), BuildingBlock: ZUJKAS_clean_linker_0, # of connection points: 2
#     Edge 88, Type (0, 1), BuildingBlock: ZUJKAS_clean_linker_0, # of connection points: 2
#     Edge 89, Type (0, 1), BuildingBlock: ZUJKAS_clean_linker_0, # of connection points: 2
#     Edge 90, Type (0, 1), BuildingBlock: ZUJKAS_clean_linker_0, # of connection points: 2
#     Edge 91, Type (0, 1), BuildingBlock: ZUJKAS_clean_linker_0, # of connection points: 2
#     Edge 92, Type (0, 1), BuildingBlock: ZUJKAS_clean_linker_0, # of connection points: 2
#     Edge 93, Type (0, 1), BuildingBlock: ZUJKAS_clean_linker_0, # of connection points: 2
#     Edge 94, Type (0, 1), BuildingBlock: ZUJKAS_clean_linker_0, # of connection points: 2
#     Edge 95, Type (0, 1), BuildingBlock: ZUJKAS_clean_linker_0, # of connection points: 2
#     Edge 96, Type (0, 1), BuildingBlock: ZUJKAS_clean_linker_0, # of connection points: 2
#     Edge 97, Type (0, 1), BuildingBlock: ZUJKAS_clean_linker_0, # of connection points: 2
#     Edge 98, Type (0, 1), BuildingBlock: ZUJKAS_clean_linker_0, # of connection points: 2
#     Edge 99, Type (0, 1), BuildingBlock: ZUJKAS_clean_linker_0, # of connection points: 2
#     Edge 100, Type (0, 1), BuildingBlock: ZUJKAS_clean_linker_0, # of connection points: 2
#     Edge 101, Type (0, 1), BuildingBlock: ZUJKAS_clean_linker_0, # of connection points: 2
#     Edge 102, Type (0, 1), BuildingBlock: ZUJKAS_clean_linker_0, # of connection points: 2
#     Edge 103, Type (0, 1), BuildingBlock: ZUJKAS_clean_linker_0, # of connection points: 2
#     Edge 104, Type (0, 1), BuildingBlock: ZUJKAS_clean_linker_0, # of connection points: 2
#     Edge 105, Type (0, 1), BuildingBlock: ZUJKAS_clean_linker_0, # of connection points: 2
#     Edge 106, Type (0, 1), BuildingBlock: ZUJKAS_clean_linker_0, # of connection points: 2
#     Edge 107, Type (0, 1), BuildingBlock: ZUJKAS_clean_linker_0, # of connection points: 2
#     Edge 108, Type (0, 1), BuildingBlock: ZUJKAS_clean_linker_0, # of connection points: 2
#     Edge 109, Type (0, 1), BuildingBlock: ZUJKAS_clean_linker_0, # of connection points: 2
#     Edge 110, Type (0, 1), BuildingBlock: ZUJKAS_clean_linker_0, # of connection points: 2
#     Edge 111, Type (0, 1), BuildingBlock: ZUJKAS_clean_linker_0, # of connection points: 2
#     Edge 112, Type (0, 1), BuildingBlock: ZUJKAS_clean_linker_0, # of connection points: 2
#     Edge 113, Type (0, 1), BuildingBlock: ZUJKAS_clean_linker_0, # of connection points: 2
#     Edge 114, Type (0, 1), BuildingBlock: ZUJKAS_clean_linker_0, # of connection points: 2
#     Edge 115, Type (0, 1), BuildingBlock: ZUJKAS_clean_linker_0, # of connection points: 2
#     Edge 116, Type (0, 1), BuildingBlock: ZUJKAS_clean_linker_0, # of connection points: 2
#     Edge 117, Type (0, 1), BuildingBlock: ZUJKAS_clean_linker_0, # of connection points: 2
#     Edge 118, Type (0, 1), BuildingBlock: ZUJKAS_clean_linker_0, # of connection points: 2
#     Edge 119, Type (0, 1), BuildingBlock: ZUJKAS_clean_linker_0, # of connection points: 2
# Relax obj value: 0.149
# Max RMSD: 0.145
# Mean RMSD: 0.091
data_MOF--net-bwt--node1-OLANEW_clean_sbu_2--node2-ESEHIV_clean_linker_0--edge1-ZUJKAS_clean_linker_0
_symmetry_space_group_name_H-M    P1
_symmetry_Int_Tables_number       1
_symmetry_cell_setting            triclinic
loop_
_symmetry_equiv_pos_as_xyz
'x, y, z'
_cell_length_a     72.208561
_cell_length_b     72.229306
_cell_length_c     72.221914
_cell_angle_alpha  93.479434
_cell_angle_beta   93.485717
_cell_angle_gamma 93.478438
loop_
_atom_site_label
_atom_site_type_symbol
_atom_site_fract_x
_atom_site_fract_y
_atom_site_fract_z
_atom_type_partial_charge
O0 O 0.26642 0.57105 0.32585 0.0
Cd1 Cd 0.26714 0.57814 0.29319 0.0
O2 O 0.26775 0.60042 0.33607 0.0
Cd3 Cd 0.27739 0.60844 0.3095 0.0
O4 O 0.30315 0.60538 0.29564 0.0
C5 C 0.31771 0.61022 0.30599 0.0
O6 O 0.31581 0.61771 0.32275 0.0
C7 C 0.26578 0.58329 0.33919 0.0
C8 C 0.2307 0.57642 0.27777 0.0
O9 O 0.24045 0.56218 0.27693 0.0
O10 O 0.23835 0.59165 0.28552 0.0
O11 O 0.21323 0.37853 0.71031 0.0
Cd12 Cd 0.21156 0.36193 0.67965 0.0
O13 O 0.21254 0.35242 0.72442 0.0
Cd14 Cd 0.19864 0.33855 0.69928 0.0
O15 O 0.1713 0.3447 0.68762 0.0
C16 C 0.15759 0.33973 0.6968 0.0
O17 O 0.16055 0.32954 0.71103 0.0
C18 C 0.21505 0.37004 0.72518 0.0
C19 C 0.24676 0.36667 0.66629 0.0
O20 O 0.23361 0.37666 0.66095 0.0
O21 O 0.24307 0.35395 0.67737 0.0
O22 O 0.75173 0.98765 0.67763 0.0
Cd23 Cd 0.75964 0.98931 0.71109 0.0
O24 O 0.77051 0.96586 0.6704 0.0
Cd25 Cd 0.78564 0.96887 0.69759 0.0
O26 O 0.81195 0.97994 0.71164 0.0
C27 C 0.81619 0.997 0.70964 0.0
O28 O 0.80407 0.00672 0.70081 0.0
C29 C 0.75783 0.9764 0.66559 0.0
C30 C 0.72869 0.00142 0.72846 0.0
O31 O 0.74173 0.01298 0.72429 0.0
O32 O 0.73059 0.98405 0.72498 0.0
O33 O 0.7664 0.044 0.30345 0.0
Cd34 Cd 0.77986 0.04612 0.33543 0.0
O35 O 0.74088 0.02994 0.3121 0.0
Cd36 Cd 0.71218 0.01808 0.30765 0.0
O37 O 0.68347 0.00661 0.30273 0.0
C38 C 0.67607 0.00446 0.28625 0.0
O39 O 0.68589 0.00926 0.27239 0.0
C40 C 0.75029 0.03627 0.29928 0.0
C41 C 0.81157 0.02601 0.33801 0.0
O42 O 0.79557 0.01849 0.34094 0.0
O43 O 0.81257 0.04309 0.33406 0.0
O44 O 0.32525 0.27573 0.58811 0.0
Cd45 Cd 0.29244 0.27649 0.59461 0.0
O46 O 0.3353 0.28341 0.61705 0.0
Cd47 Cd 0.30842 0.29391 0.62268 0.0
O48 O 0.29774 0.32047 0.616 0.0
C49 C 0.31076 0.33302 0.61535 0.0
O50 O 0.32793 0.32886 0.61947 0.0
C51 C 0.33859 0.27811 0.60053 0.0
C52 C 0.27644 0.24029 0.58988 0.0
O53 O 0.27605 0.25116 0.5765 0.0
O54 O 0.28398 0.24672 0.60568 0.0
O55 O 0.30983 0.76513 0.02691 0.0
Cd56 Cd 0.34269 0.77485 0.02575 0.0
O57 O 0.31601 0.73577 0.02419 0.0
Cd58 Cd 0.30759 0.70624 0.01929 0.0
O59 O 0.29848 0.67746 0.01096 0.0
C60 C 0.28431 0.67393 0.99969 0.0
O61 O 0.27524 0.68778 0.99354 0.0
C62 C 0.30422 0.74806 0.0257 0.0
C63 C 0.34575 0.80802 0.00807 0.0
O64 O 0.3451 0.79228 0.99877 0.0
O65 O 0.34532 0.80805 0.02579 0.0
O66 O 0.71262 0.21952 0.38343 0.0
Cd67 Cd 0.68132 0.21531 0.36811 0.0
O68 O 0.72622 0.2192 0.35703 0.0
Cd69 Cd 0.7012 0.20472 0.34351 0.0
O70 O 0.68988 0.17689 0.34836 0.0
C71 C 0.69939 0.16358 0.343 0.0
O72 O 0.71379 0.16725 0.33324 0.0
C73 C 0.72724 0.22188 0.37464 0.0
C74 C 0.66483 0.24898 0.37305 0.0
O75 O 0.66204 0.23594 0.38402 0.0
O76 O 0.6749 0.24585 0.35933 0.0
O77 O 0.69759 0.7282 0.95148 0.0
Cd78 Cd 0.72982 0.72451 0.94429 0.0
O79 O 0.70207 0.7585 0.95578 0.0
Cd80 Cd 0.69431 0.78629 0.96473 0.0
O81 O 0.68902 0.81421 0.97557 0.0
C82 C 0.67947 0.8164 0.98966 0.0
O83 O 0.67259 0.80164 0.99729 0.0
C84 C 0.69132 0.74387 0.95565 0.0
C85 C 0.74265 0.69435 0.96247 0.0
O86 O 0.74465 0.71086 0.9702 0.0
O87 O 0.73495 0.69217 0.94595 0.0
O88 O 0.59948 0.33967 0.26219 0.0
Cd89 Cd 0.6122 0.30917 0.26376 0.0
O90 O 0.60227 0.34593 0.29244 0.0
Cd91 Cd 0.61051 0.3189 0.30062 0.0
O92 O 0.60615 0.30597 0.32666 0.0
C93 C 0.59584 0.31548 0.33667 0.0
O94 O 0.58935 0.33056 0.33012 0.0
C95 C 0.59789 0.35079 0.27622 0.0
C96 C 0.60367 0.28928 0.22975 0.0
O97 O 0.59327 0.28737 0.24336 0.0
O98 O 0.61836 0.30023 0.23239 0.0
O99 O 0.03387 0.31264 0.76894 0.0
Cd100 Cd 0.03609 0.34494 0.78145 0.0
O101 O 0.02827 0.32049 0.74035 0.0
Cd102 Cd 0.02005 0.31405 0.71091 0.0
O103 O 0.01092 0.30585 0.68206 0.0
C104 C -5e-05 0.29151 0.67825 0.0
O105 O 0.99435 0.28175 0.69187 0.0
C106 C 0.0305 0.30796 0.75177 0.0
C107 C 0.01726 0.34772 0.81399 0.0
O108 O 0.00908 0.3504 0.79821 0.0
O109 O 0.03441 0.34403 0.81439 0.0
O110 O 0.397 0.70946 0.22697 0.0
Cd111 Cd 0.38711 0.67652 0.22118 0.0
O112 O 0.37185 0.71969 0.21347 0.0
Cd113 Cd 0.36462 0.69274 0.19879 0.0
O114 O 0.37062 0.68303 0.17076 0.0
C115 C 0.38712 0.67886 0.16799 0.0
O116 O 0.3991 0.6784 0.18237 0.0
C117 C 0.38719 0.72289 0.22306 0.0
C118 C 0.39437 0.65976 0.25437 0.0
O119 O 0.40643 0.66047 0.24208 0.0
O120 O 0.37859 0.66635 0.25064 0.0
O121 O 0.98977 0.67929 0.74884 0.0
Cd122 Cd 0.99081 0.71274 0.75665 0.0
O123 O 0.97178 0.6717 0.77104 0.0
Cd124 Cd 0.97533 0.69905 0.78585 0.0
O125 O 0.98541 0.71251 0.81276 0.0
C126 C 0.97762 0.70659 0.82677 0.0
O127 O 0.96339 0.6943 0.82394 0.0
C128 C 0.98031 0.66703 0.75677 0.0
C129 C 0.00126 0.73049 0.72533 0.0
O130 O 0.01338 0.72685 0.73809 0.0
O131 O 0.9841 0.72626 0.72767 0.0
O132 O 0.7235 0.36179 0.67297 0.0
Cd133 Cd 0.7363 0.3494 0.7014 0.0
O134 O 0.70061 0.37301 0.68776 0.0
Cd135 Cd 0.67636 0.38943 0.69016 0.0
O136 O 0.6501 0.40243 0.68639 0.0
C137 C 0.63839 0.40172 0.69878 0.0
O138 O 0.64271 0.39381 0.71424 0.0
C139 C 0.70887 0.37072 0.67281 0.0
C140 C 0.77409 0.36015 0.70659 0.0
O141 O 0.76847 0.34476 0.69766 0.0
O142 O 0.76184 0.37028 0.71333 0.0
O143 O 0.75982 0.64018 0.29974 0.0
Cd144 Cd 0.75215 0.65677 0.32855 0.0
O145 O 0.78399 0.62786 0.3129 0.0
Cd146 Cd 0.80847 0.61169 0.31066 0.0
O147 O 0.8325 0.59708 0.30236 0.0
C148 C 0.8396 0.60082 0.28724 0.0
O149 O 0.83221 0.61331 0.2771 0.0
C150 C 0.77322 0.62963 0.29861 0.0
C151 C 0.71431 0.64948 0.33268 0.0
O152 O 0.72014 0.66324 0.32374 0.0
O153 O 0.72643 0.63952 0.34018 0.0
O154 O 0.25984 0.07562 0.2931 0.0
Cd155 Cd 0.26735 0.08067 0.26122 0.0
O156 O 0.23905 0.05329 0.28306 0.0
Cd157 Cd 0.21643 0.03274 0.28728 0.0
O158 O 0.1923 0.01539 0.29406 0.0
C159 C 0.18039 0.02263 0.30403 0.0
O160 O 0.18316 0.04017 0.31005 0.0
C161 C 0.24784 0.06289 0.29652 0.0
C162 C 0.29928 0.06243 0.25394 0.0
O163 O 0.30036 0.07943 0.26035 0.0
O164 O 0.28308 0.05424 0.25056 0.0
O165 O 0.25185 0.98188 0.68871 0.0
Cd166 Cd 0.23715 0.98514 0.6578 0.0
O167 O 0.27609 0.00024 0.68352 0.0
Cd168 Cd 0.30191 0.01684 0.69235 0.0
O169 O 0.32881 0.02964 0.70355 0.0
C170 C 0.34352 0.02224 0.69895 0.0
O171 O 0.34203 0.00729 0.68751 0.0
C172 C 0.26743 0.99004 0.69436 0.0
C173 C 0.2021 0.99887 0.66109 0.0
O174 O 0.20417 0.98135 0.6603 0.0
O175 O 0.21656 0.00987 0.66005 0.0
O176 O 0.68931 0.72795 0.37113 0.0
Cd177 Cd 0.71838 0.73896 0.35873 0.0
O178 O 0.70268 0.70511 0.38415 0.0
Cd179 Cd 0.70295 0.68163 0.40191 0.0
O180 O 0.69772 0.65549 0.41489 0.0
C181 C 0.69586 0.64072 0.40428 0.0
O182 O 0.69745 0.64195 0.38637 0.0
C183 C 0.68823 0.71392 0.38088 0.0
C184 C 0.72301 0.7773 0.36612 0.0
O185 O 0.71474 0.77032 0.35086 0.0
O186 O 0.72949 0.76613 0.37765 0.0
O187 O 0.68925 0.24952 0.96856 0.0
Cd188 Cd 0.65739 0.2359 0.96796 0.0
O189 O 0.68358 0.27066 0.99029 0.0
Cd190 Cd 0.69181 0.29584 0.00806 0.0
O191 O 0.70334 0.32167 0.02284 0.0
C192 C 0.71734 0.33034 0.01678 0.0
O193 O 0.72454 0.32349 0.00176 0.0
C194 C 0.69489 0.26333 0.97963 0.0
C195 C 0.65682 0.20195 0.98445 0.0
O196 O 0.65914 0.20285 0.96706 0.0
O197 O 0.65454 0.21709 0.994 0.0
O198 O 0.30731 0.76733 0.64118 0.0
Cd199 Cd 0.33766 0.76327 0.65685 0.0
O200 O 0.31708 0.79314 0.62928 0.0
Cd201 Cd 0.31208 0.81768 0.61384 0.0
O202 O 0.30296 0.84183 0.59992 0.0
C203 C 0.30188 0.85709 0.6094 0.0
O204 O 0.30653 0.85794 0.62732 0.0
C205 C 0.30422 0.78064 0.63093 0.0
C206 C 0.34507 0.7261 0.65039 0.0
O207 O 0.33716 0.73158 0.66498 0.0
O208 O 0.35008 0.73835 0.63925 0.0
O209 O 0.29789 0.26603 0.07763 0.0
Cd210 Cd 0.26558 0.27223 0.08223 0.0
O211 O 0.28799 0.24299 0.05764 0.0
Cd212 Cd 0.29152 0.22092 0.0363 0.0
O213 O 0.29685 0.19648 0.01865 0.0
C214 C 0.29291 0.18057 0.02449 0.0
O215 O 0.28571 0.17953 0.0407 0.0
C216 C 0.30142 0.25288 0.06615 0.0
C217 C 0.256 0.30179 0.06133 0.0
O218 O 0.26217 0.30456 0.07835 0.0
O219 O 0.254 0.28499 0.05434 0.0
O220 O 0.3748 0.68008 0.73347 0.0
Cd221 Cd 0.3653 0.71011 0.74561 0.0
O222 O 0.38544 0.69306 0.70924 0.0
Cd223 Cd 0.40083 0.69295 0.6841 0.0
O224 O 0.41456 0.68921 0.6582 0.0
C225 C 0.40552 0.68062 0.64431 0.0
O226 O 0.38831 0.67435 0.64607 0.0
C227 C 0.38274 0.67866 0.71826 0.0
C228 C 0.37932 0.71711 0.78235 0.0
O229 O 0.36305 0.70919 0.77851 0.0
O230 O 0.38881 0.72196 0.76881 0.0
O231 O 0.97084 0.68928 0.2517 0.0
Cd232 Cd 0.97512 0.65776 0.23918 0.0
O233 O 0.98981 0.68547 0.27586 0.0
Cd234 Cd 0.007 0.69533 0.30098 0.0
O235 O 0.02067 0.70647 0.32749 0.0
C236 C 0.01449 0.70086 0.34242 0.0
O237 O 0.00025 0.68853 0.34132 0.0
C238 C 0.9793 0.69578 0.26687 0.0
C239 C 0.99168 0.65949 0.20538 0.0
O240 O 0.97395 0.65812 0.20597 0.0
O241 O 0.00156 0.6597 0.22076 0.0
O242 O 0.64675 0.30652 0.76947 0.0
Cd243 Cd 0.66113 0.33745 0.76543 0.0
O244 O 0.63254 0.31723 0.79349 0.0
Cd245 Cd 0.6157 0.31334 0.81725 0.0
O246 O 0.60126 0.30475 0.84125 0.0
C247 C 0.60191 0.28799 0.84557 0.0
O248 O 0.61116 0.27652 0.83539 0.0
C249 C 0.63563 0.30378 0.78214 0.0
C250 C 0.654 0.34563 0.72857 0.0
O251 O 0.669 0.33823 0.73371 0.0
O252 O 0.64268 0.34966 0.74098 0.0
O253 O 0.07076 0.29108 0.26286 0.0
Cd254 Cd 0.07741 0.25944 0.26999 0.0
O255 O 0.05037 0.28027 0.24047 0.0
Cd256 Cd 0.03099 0.28385 0.21671 0.0
O257 O 0.01399 0.29106 0.19254 0.0
C258 C 0.01731 0.30662 0.18568 0.0
O259 O 0.03087 0.31799 0.19342 0.0
C260 C 0.05859 0.29402 0.25011 0.0
C261 C 0.06018 0.25074 0.30213 0.0
O262 O 0.07686 0.25803 0.30299 0.0
O263 O 0.05181 0.2472 0.28602 0.0
H264 H 0.30306 0.56661 0.53618 0.0
H265 H 0.2881 0.50838 0.5244 0.0
H266 H 0.31032 0.52842 0.57906 0.0
C267 C 0.30213 0.55255 0.54067 0.0
C268 C 0.30771 0.54928 0.55909 0.0
C269 C 0.29494 0.53792 0.52808 0.0
C270 C 0.29317 0.51982 0.53416 0.0
C271 C 0.29876 0.51627 0.55251 0.0
C272 C 0.30596 0.53109 0.5649 0.0
H273 H 0.23352 0.43107 0.91789 0.0
H274 H 0.24007 0.48799 0.9038 0.0
H275 H 0.24379 0.4746 0.96114 0.0
C276 C 0.23555 0.44574 0.92215 0.0
C277 C 0.23848 0.45128 0.9411 0.0
C278 C 0.2361 0.45887 0.90859 0.0
C279 C 0.23952 0.4778 0.9142 0.0
C280 C 0.24241 0.48361 0.93315 0.0
C281 C 0.24187 0.47024 0.94649 0.0
H282 H 0.71844 0.95282 0.46661 0.0
H283 H 0.71352 0.01192 0.46772 0.0
H284 H 0.70834 0.97921 0.41559 0.0
C285 C 0.71618 0.96527 0.45936 0.0
C286 C 0.71353 0.96399 0.43991 0.0
C287 C 0.71614 0.98247 0.46954 0.0
C288 C 0.71317 0.99854 0.46001 0.0
C289 C 0.71057 0.99752 0.4405 0.0
C290 C 0.71073 0.98017 0.43059 0.0
H291 H 0.68187 0.04867 0.10398 0.0
H292 H 0.68513 0.9895 0.10483 0.0
H293 H 0.66791 0.01362 0.05415 0.0
C294 C 0.6802 0.03497 0.09687 0.0
C295 C 0.6746 0.03312 0.07782 0.0
C296 C 0.68382 0.0193 0.10681 0.0
C297 C 0.68177 0.00161 0.09744 0.0
C298 C 0.67618 0.99944 0.07843 0.0
C299 C 0.67259 0.01526 0.06874 0.0
H300 H 0.53513 0.30385 0.57481 0.0
H301 H 0.52137 0.28668 0.51741 0.0
H302 H 0.57703 0.30793 0.53524 0.0
C303 C 0.53933 0.30164 0.56073 0.0
C304 C 0.55778 0.30632 0.55679 0.0
C305 C 0.52609 0.29471 0.54659 0.0
C306 C 0.53146 0.29244 0.52827 0.0
C307 C 0.54982 0.29717 0.52398 0.0
C308 C 0.56287 0.30416 0.53836 0.0
H309 H 0.10525 0.69794 0.04979 0.0
H310 H 0.10264 0.714 0.9933 0.0
H311 H 0.05235 0.69991 0.01968 0.0
C312 C 0.09725 0.7006 0.03717 0.0
C313 C 0.07776 0.69841 0.03661 0.0
C314 C 0.10644 0.70637 0.02167 0.0
C315 C 0.09576 0.70959 0.00535 0.0
C316 C 0.07626 0.7071 0.00441 0.0
C317 C 0.06739 0.70167 0.02019 0.0
H318 H 0.92056 0.24044 0.43454 0.0
H319 H 0.90645 0.24733 0.49143 0.0
H320 H 0.96387 0.25015 0.47814 0.0
C321 C 0.92482 0.24274 0.4492 0.0
C322 C 0.9438 0.24522 0.45477 0.0
C323 C 0.91125 0.24341 0.4623 0.0
C324 C 0.91686 0.24661 0.48126 0.0
C325 C 0.93584 0.24905 0.48711 0.0
C326 C 0.94921 0.24823 0.47376 0.0
H327 H 0.49259 0.73809 0.95529 0.0
H328 H 0.49637 0.7278 0.01333 0.0
H329 H 0.44361 0.72003 0.98175 0.0
C330 C 0.48593 0.73445 0.96774 0.0
C331 C 0.46677 0.7296 0.96668 0.0
C332 C 0.49675 0.73356 0.98444 0.0
C333 C 0.48811 0.7281 0.00033 0.0
C334 C 0.46888 0.72328 0.99958 0.0
C335 C 0.45836 0.72401 0.98263 0.0
H336 H 0.55327 0.54034 0.28184 0.0
H337 H 0.49488 0.52419 0.27461 0.0
H338 H 0.5134 0.58039 0.29379 0.0
C339 C 0.5389 0.54389 0.28209 0.0
C340 C 0.53497 0.56193 0.28816 0.0
C341 C 0.52457 0.53015 0.27733 0.0
C342 C 0.50602 0.53477 0.27823 0.0
C343 C 0.5018 0.55291 0.28405 0.0
C344 C 0.51642 0.56637 0.28927 0.0
H345 H 0.04658 0.10883 0.70323 0.0
H346 H 0.98917 0.10815 0.71573 0.0
H347 H 0.01406 0.05679 0.7022 0.0
C348 C 0.03348 0.10114 0.70488 0.0
C349 C 0.03223 0.08165 0.70225 0.0
C350 C 0.01801 0.11079 0.70973 0.0
C351 C 0.00111 0.10074 0.71189 0.0
C352 C 0.99948 0.08126 0.70913 0.0
C353 C 0.01514 0.07181 0.70431 0.0
H354 H 0.43194 0.92191 0.24676 0.0
H355 H 0.48909 0.90812 0.25003 0.0
H356 H 0.47546 0.96537 0.25467 0.0
C357 C 0.44662 0.9262 0.24829 0.0
C358 C 0.45214 0.94522 0.25038 0.0
C359 C 0.45981 0.91269 0.24825 0.0
C360 C 0.47881 0.91844 0.25041 0.0
C361 C 0.48464 0.93744 0.25259 0.0
C362 C 0.47117 0.95072 0.2525 0.0
H363 H 0.94952 0.46827 0.71334 0.0
H364 H 0.00869 0.46844 0.70911 0.0
H365 H 0.97508 0.4169 0.70243 0.0
C366 C 0.96185 0.46082 0.71108 0.0
C367 C 0.96022 0.44141 0.70797 0.0
C368 C 0.97924 0.47073 0.71144 0.0
C369 C 0.99517 0.46096 0.70846 0.0
C370 C 0.99382 0.44148 0.70546 0.0
C371 C 0.97628 0.43186 0.70519 0.0
H372 H 0.65299 0.40798 0.48472 0.0
H373 H 0.66895 0.46556 0.49905 0.0
H374 H 0.65283 0.44686 0.44214 0.0
C375 C 0.65503 0.42213 0.48066 0.0
C376 C 0.65224 0.42579 0.4619 0.0
C377 C 0.66106 0.43635 0.49415 0.0
C378 C 0.66382 0.45463 0.48875 0.0
C379 C 0.66099 0.45863 0.46996 0.0
C380 C 0.65518 0.44405 0.45664 0.0
H381 H 0.77163 0.56848 0.10692 0.0
H382 H 0.77088 0.51167 0.12169 0.0
H383 H 0.76646 0.52418 0.06411 0.0
C384 C 0.77072 0.55374 0.10282 0.0
C385 C 0.7691 0.54789 0.08387 0.0
C386 C 0.77138 0.5408 0.11654 0.0
C387 C 0.77056 0.52173 0.11116 0.0
C388 C 0.76893 0.5156 0.09222 0.0
C389 C 0.76834 0.5288 0.0787 0.0
H390 H 0.24087 0.06503 0.49466 0.0
H391 H 0.24469 0.00577 0.49148 0.0
H392 H 0.25152 0.03686 0.54452 0.0
C393 C 0.24262 0.05222 0.50147 0.0
C394 C 0.2459 0.05289 0.52085 0.0
C395 C 0.2422 0.03532 0.49073 0.0
C396 C 0.24504 0.01889 0.49966 0.0
C397 C 0.24824 0.01927 0.5191 0.0
C398 C 0.24844 0.03633 0.52961 0.0
H399 H 0.32568 0.96413 0.88997 0.0
H400 H 0.31767 0.02274 0.89227 0.0
H401 H 0.3297 0.99567 0.94261 0.0
C402 C 0.32555 0.97735 0.89789 0.0
C403 C 0.32833 0.97803 0.91734 0.0
C404 C 0.32166 0.9934 0.88868 0.0
C405 C 0.32075 0.01031 0.89923 0.0
C406 C 0.32341 0.01124 0.9187 0.0
C407 C 0.32729 0.99503 0.92762 0.0
H408 H 0.50318 0.6582 0.41805 0.0
H409 H 0.51423 0.66647 0.47705 0.0
H410 H 0.45887 0.6494 0.45439 0.0
C411 C 0.49833 0.65748 0.43191 0.0
C412 C 0.47951 0.65267 0.4342 0.0
C413 C 0.51101 0.6621 0.4472 0.0
C414 C 0.50455 0.66278 0.46515 0.0
C415 C 0.4857 0.6583 0.46782 0.0
C416 C 0.47335 0.65298 0.45231 0.0
H417 H 0.89095 0.32885 0.96366 0.0
H418 H 0.88984 0.32449 0.02266 0.0
H419 H 0.94131 0.33933 0.99876 0.0
C420 C 0.89805 0.33021 0.97737 0.0
C421 C 0.91729 0.33495 0.9793 0.0
C422 C 0.88806 0.32629 0.99292 0.0
C423 C 0.89751 0.32721 0.01056 0.0
C424 C 0.91673 0.33178 0.01278 0.0
C425 C 0.92647 0.33581 0.99711 0.0
H426 H 0.11262 0.77201 0.57661 0.0
H427 H 0.12095 0.76637 0.51815 0.0
H428 H 0.066 0.75773 0.53761 0.0
C429 C 0.10704 0.76946 0.56234 0.0
C430 C 0.08795 0.76491 0.55879 0.0
C431 C 0.11905 0.77021 0.5478 0.0
C432 C 0.1117 0.76624 0.52941 0.0
C433 C 0.09256 0.76165 0.52555 0.0
C434 C 0.08075 0.76129 0.54036 0.0
H435 H 0.49842 0.23425 0.06141 0.0
H436 H 0.49268 0.23742 0.00218 0.0
H437 H 0.54714 0.23986 0.03037 0.0
C438 C 0.50471 0.23485 0.04819 0.0
C439 C 0.52416 0.23667 0.04787 0.0
C440 C 0.49324 0.23498 0.03181 0.0
C441 C 0.50145 0.23697 0.01484 0.0
C442 C 0.5209 0.23892 0.01421 0.0
C443 C 0.53214 0.2386 0.03078 0.0
H444 H 0.40611 0.48614 0.66859 0.0
H445 H 0.46521 0.49793 0.67675 0.0
H446 H 0.44261 0.44144 0.66569 0.0
C447 C 0.42006 0.48136 0.66948 0.0
C448 C 0.42255 0.46229 0.66692 0.0
C449 C 0.43532 0.49434 0.67301 0.0
C450 C 0.45337 0.48806 0.67356 0.0
C451 C 0.45614 0.46896 0.67102 0.0
C452 C 0.44063 0.45618 0.66757 0.0
H453 H 0.95775 0.8943 0.31986 0.0
H454 H 0.0169 0.8932 0.316 0.0
H455 H 0.99267 0.94485 0.32903 0.0
C456 C 0.97146 0.90142 0.32106 0.0
C457 C 0.97329 0.92075 0.32518 0.0
C458 C 0.98709 0.89133 0.31765 0.0
C459 C 0.0047 0.90084 0.31833 0.0
C460 C 0.0068 0.92014 0.32232 0.0
C461 C 0.99107 0.92996 0.32592 0.0
H462 H 0.58021 0.10994 0.77449 0.0
H463 H 0.5227 0.12158 0.76694 0.0
H464 H 0.53895 0.06529 0.76005 0.0
C465 C 0.56574 0.10506 0.77195 0.0
C466 C 0.56121 0.08606 0.76761 0.0
C467 C 0.55198 0.11798 0.77192 0.0
C468 C 0.53336 0.11166 0.76735 0.0
C469 C 0.52851 0.09267 0.76284 0.0
C470 C 0.54254 0.07997 0.7632 0.0
H471 H 0.05451 0.49104 0.24261 0.0
H472 H 0.99487 0.48694 0.24239 0.0
H473 H 0.02491 0.54053 0.24977 0.0
C474 C 0.04146 0.49764 0.24331 0.0
C475 C 0.04168 0.51705 0.2461 0.0
C476 C 0.02468 0.48664 0.24195 0.0
C477 C 0.0079 0.49532 0.24344 0.0
C478 C 0.00782 0.51478 0.2461 0.0
C479 C 0.02478 0.52558 0.24718 0.0
H480 H 0.21095 0.54625 0.26025 0.0
H481 H 0.17761 0.5428 0.25194 0.0
H482 H 0.1721 0.59967 0.27156 0.0
H483 H 0.20553 0.60322 0.28014 0.0
H484 H 0.1477 0.57515 0.28654 0.0
H485 H 0.14476 0.56161 0.21023 0.0
H486 H 0.16021 0.54689 0.22184 0.0
H487 H 0.16539 0.57166 0.22342 0.0
C488 C 0.20273 0.55814 0.26253 0.0
C489 C 0.21089 0.575 0.2709 0.0
C490 C 0.18367 0.55618 0.25763 0.0
C491 C 0.17242 0.57106 0.26087 0.0
C492 C 0.18058 0.58807 0.2688 0.0
H493 H 0.05253 0.54884 0.22964 0.0
H494 H 0.08326 0.56584 0.23322 0.0
C495 C 0.19968 0.59006 0.27368 0.0
C496 C 0.15195 0.56812 0.25775 0.0
H497 H 0.11779 0.55045 0.22565 0.0
C498 C 0.1411 0.57012 0.27314 0.0
C499 C 0.14328 0.56183 0.24021 0.0
C500 C 0.154 0.56056 0.22295 0.0
C501 C 0.12205 0.56475 0.27173 0.0
C502 C 0.11373 0.55698 0.25456 0.0
C503 C 0.12426 0.55622 0.23886 0.0
C504 C 0.09479 0.54774 0.25312 0.0
C505 C 0.1111 0.56691 0.28878 0.0
C506 C 0.09121 0.53197 0.26306 0.0
C507 C 0.07384 0.52228 0.26099 0.0
C508 C 0.05971 0.52812 0.24887 0.0
C509 C 0.06317 0.54412 0.23914 0.0
C510 C 0.08068 0.55378 0.24112 0.0
H511 H 0.11762 0.57804 0.2988 0.0
H512 H 0.09656 0.57017 0.28504 0.0
H513 H 0.11073 0.55369 0.29586 0.0
H514 H 0.102 0.52691 0.27215 0.0
H515 H 0.0715 0.51011 0.26881 0.0
H516 H 0.25792 0.38394 0.63593 0.0
H517 H 0.28948 0.39504 0.63013 0.0
H518 H 0.31023 0.37154 0.6802 0.0
H519 H 0.27885 0.35961 0.68554 0.0
H520 H 0.309 0.41938 0.64717 0.0
H521 H 0.35073 0.35843 0.65008 0.0
H522 H 0.32577 0.35607 0.65036 0.0
H523 H 0.34002 0.36112 0.67169 0.0
C524 C 0.26931 0.38067 0.64538 0.0
C525 C 0.26596 0.37088 0.66116 0.0
C526 C 0.28738 0.38697 0.64202 0.0
C527 C 0.30246 0.38383 0.65442 0.0
C528 C 0.2991 0.37358 0.66995 0.0
H529 H 0.39181 0.46161 0.68682 0.0
H530 H 0.36348 0.44137 0.68117 0.0
C531 C 0.28107 0.3669 0.67311 0.0
C532 C 0.32106 0.3934 0.65249 0.0
H533 H 0.36784 0.38867 0.65855 0.0
C534 C 0.32179 0.41243 0.64925 0.0
C535 C 0.33796 0.38452 0.6549 0.0
C536 C 0.33851 0.36386 0.65674 0.0
C537 C 0.33873 0.42296 0.64949 0.0
C538 C 0.35545 0.41445 0.65373 0.0
C539 C 0.35494 0.39524 0.65573 0.0
C540 C 0.37325 0.42569 0.65761 0.0
C541 C 0.33853 0.44325 0.6456 0.0
C542 C 0.38844 0.42304 0.64672 0.0
C543 C 0.40476 0.4346 0.64998 0.0
C544 C 0.40604 0.44893 0.66418 0.0
C545 C 0.39106 0.45096 0.67551 0.0
C546 C 0.37488 0.43942 0.6723 0.0
H547 H 0.32594 0.44602 0.63682 0.0
H548 H 0.33832 0.4517 0.65893 0.0
H549 H 0.35104 0.4479 0.6385 0.0
H550 H 0.38748 0.41239 0.63541 0.0
H551 H 0.41611 0.43273 0.64106 0.0
H552 H 0.69749 0.98056 0.73622 0.0
H553 H 0.66774 0.99189 0.74499 0.0
H554 H 0.69104 0.04837 0.74626 0.0
H555 H 0.72073 0.03725 0.73733 0.0
H556 H 0.6575 0.01546 0.77567 0.0
H557 H 0.64608 0.04637 0.70772 0.0
H558 H 0.66348 0.02993 0.71189 0.0
H559 H 0.66788 0.05391 0.71999 0.0
C560 C 0.69635 0.99539 0.73856 0.0
C561 C 0.71142 0.00802 0.73588 0.0
C562 C 0.67935 0.00182 0.74358 0.0
C563 C 0.67713 0.02096 0.74594 0.0
C564 C 0.6924 0.03355 0.74417 0.0
H565 H 0.59212 0.08471 0.7913 0.0
H566 H 0.61903 0.06643 0.78669 0.0
C567 C 0.70937 0.02716 0.73914 0.0
C568 C 0.65868 0.02786 0.74936 0.0
H569 H 0.62548 0.05426 0.73092 0.0
C570 C 0.6504 0.02385 0.76586 0.0
C571 C 0.6493 0.03846 0.73635 0.0
C572 C 0.65702 0.0423 0.7179 0.0
C573 C 0.63324 0.03077 0.77001 0.0
C574 C 0.62433 0.04216 0.7574 0.0
C575 C 0.63235 0.04561 0.74063 0.0
C576 C 0.60711 0.05138 0.76151 0.0
C577 C 0.62479 0.02576 0.78778 0.0
C578 C 0.59145 0.04903 0.74889 0.0
C579 C 0.57615 0.05968 0.75133 0.0
C580 C 0.57628 0.07297 0.76641 0.0
C581 C 0.59168 0.07472 0.77945 0.0
C582 C 0.60698 0.06411 0.77696 0.0
H583 H 0.63004 0.01269 0.79278 0.0
H584 H 0.62863 0.03703 0.79872 0.0
H585 H 0.60939 0.02412 0.7859 0.0
H586 H 0.59132 0.03937 0.73679 0.0
H587 H 0.56463 0.05814 0.74091 0.0
H588 H 0.81452 0.99057 0.34874 0.0
H589 H 0.84213 0.97251 0.34914 0.0
H590 H 0.87387 0.01864 0.32874 0.0
H591 H 0.84651 0.03692 0.32873 0.0
H592 H 0.862 0.96175 0.32022 0.0
H593 H 0.90771 0.00564 0.37192 0.0
H594 H 0.88308 0.00841 0.36867 0.0
H595 H 0.8989 0.01848 0.35318 0.0
C596 C 0.82743 0.99693 0.34451 0.0
C597 C 0.82835 0.01521 0.33879 0.0
C598 C 0.84318 0.98659 0.34474 0.0
C599 C 0.86014 0.99433 0.33927 0.0
C600 C 0.86107 0.01255 0.33349 0.0
H601 H 0.96584 0.95476 0.31268 0.0
H602 H 0.93823 0.97207 0.31719 0.0
C603 C 0.84537 0.02294 0.33337 0.0
C604 C 0.87662 0.98305 0.3387 0.0
H605 H 0.92245 0.98285 0.35349 0.0
C606 C 0.87516 0.96626 0.32767 0.0
C607 C 0.89377 0.98893 0.34845 0.0
C608 C 0.89595 0.00625 0.36137 0.0
C609 C 0.89054 0.9555 0.32567 0.0
C610 C 0.90777 0.96166 0.33503 0.0
C611 C 0.9092 0.97826 0.34628 0.0
C612 C 0.9246 0.95127 0.33288 0.0
C613 C 0.88846 0.93789 0.31317 0.0
C614 C 0.92611 0.93396 0.34044 0.0
C615 C 0.94197 0.9241 0.33809 0.0
C616 C 0.95659 0.93139 0.3281 0.0
C617 C 0.95501 0.94885 0.32069 0.0
C618 C 0.9392 0.95872 0.32314 0.0
H619 H 0.87505 0.93662 0.30465 0.0
H620 H 0.90003 0.9374 0.30373 0.0
H621 H 0.88908 0.92571 0.32179 0.0
H622 H 0.91504 0.9281 0.34819 0.0
H623 H 0.94285 0.91084 0.34421 0.0
H624 H 0.25891 0.22302 0.55835 0.0
H625 H 0.25049 0.18988 0.55217 0.0
H626 H 0.26983 0.17971 0.60809 0.0
H627 H 0.27845 0.21291 0.61439 0.0
H628 H 0.28518 0.15766 0.58122 0.0
H629 H 0.20867 0.15506 0.56857 0.0
H630 H 0.22033 0.17194 0.55536 0.0
H631 H 0.22186 0.17488 0.58034 0.0
C632 C 0.26109 0.2138 0.56945 0.0
C633 C 0.2694 0.2206 0.58684 0.0
C634 C 0.25614 0.19487 0.56594 0.0
C635 C 0.25931 0.18238 0.57975 0.0
C636 C 0.26714 0.18916 0.59729 0.0
H637 H 0.23016 0.06277 0.55333 0.0
H638 H 0.23319 0.09331 0.57067 0.0
C639 C 0.27205 0.20813 0.60086 0.0
C640 C 0.25626 0.16211 0.57515 0.0
H641 H 0.22402 0.1288 0.55593 0.0
C642 C 0.27173 0.15127 0.57602 0.0
C643 C 0.23868 0.15375 0.56857 0.0
C644 C 0.2214 0.16447 0.56832 0.0
C645 C 0.27031 0.13254 0.56942 0.0
C646 C 0.25303 0.12456 0.5616 0.0
C647 C 0.2373 0.13505 0.56178 0.0
C648 C 0.25143 0.10597 0.55167 0.0
C649 C 0.28743 0.12157 0.57039 0.0
C650 C 0.26057 0.10313 0.53525 0.0
C651 C 0.25881 0.08586 0.52537 0.0
C652 C 0.24784 0.07109 0.53169 0.0
C653 C 0.23877 0.0739 0.54822 0.0
C654 C 0.24043 0.0913 0.55807 0.0
H655 H 0.29799 0.12782 0.58117 0.0
H656 H 0.28386 0.10694 0.57346 0.0
H657 H 0.29377 0.12147 0.55677 0.0
H658 H 0.26893 0.11436 0.52998 0.0
H659 H 0.26612 0.08404 0.51279 0.0
H660 H 0.34905 0.8435 0.02399 0.0
H661 H 0.34766 0.8725 0.00822 0.0
H662 H 0.342 0.84143 0.95509 0.0
H663 H 0.34337 0.81234 0.97067 0.0
H664 H 0.37079 0.88646 0.97896 0.0
H665 H 0.29559 0.87384 0.9572 0.0
H666 H 0.30677 0.86173 0.97551 0.0
H667 H 0.31016 0.85521 0.95163 0.0
C668 C 0.34762 0.84282 0.00894 0.0
C669 C 0.3462 0.82561 0.99858 0.0
C670 C 0.34687 0.8594 -2e-05 0.0
C671 C 0.34453 0.85903 0.98054 0.0
C672 C 0.34361 0.84194 0.97013 0.0
H673 H 0.35162 0.95089 0.9081 0.0
H674 H 0.35624 0.92209 0.9236 0.0
C675 C 0.34445 0.82536 0.97906 0.0
C676 C 0.34252 0.87651 0.9712 0.0
H677 H 0.31119 0.90042 0.94647 0.0
C678 C 0.3578 0.88954 0.97182 0.0
C679 C 0.32547 0.88049 0.96211 0.0
C680 C 0.30847 0.86719 0.96162 0.0
C681 C 0.35651 0.90645 0.96335 0.0
C682 C 0.33953 0.91029 0.95401 0.0
C683 C 0.32421 0.89733 0.95356 0.0
C684 C 0.33721 0.92787 0.94491 0.0
C685 C 0.37316 0.92023 0.96471 0.0
C686 C 0.32481 0.94048 0.95165 0.0
C687 C 0.32211 0.95687 0.94282 0.0
C688 C 0.33164 0.96085 0.92698 0.0
C689 C 0.34403 0.94814 0.92023 0.0
C690 C 0.3468 0.93179 0.92914 0.0
H691 H 0.3839 0.91681 0.97542 0.0
H692 H 0.37952 0.92014 0.9511 0.0
H693 H 0.36894 0.93451 0.96808 0.0
H694 H 0.31719 0.93761 0.96373 0.0
H695 H 0.31228 0.96625 0.94819 0.0
H696 H 0.63931 0.25866 0.3977 0.0
H697 H 0.63192 0.29005 0.40798 0.0
H698 H 0.66824 0.31285 0.36864 0.0
H699 H 0.67533 0.28147 0.35794 0.0
H700 H 0.65756 0.31434 0.4245 0.0
H701 H 0.62449 0.34459 0.36353 0.0
H702 H 0.63088 0.32081 0.36268 0.0
H703 H 0.64784 0.33931 0.35918 0.0
C704 C 0.6454 0.27033 0.39094 0.0
C705 C 0.65802 0.2676 0.37712 0.0
C706 C 0.64116 0.28826 0.39682 0.0
C707 C 0.64948 0.3038 0.38905 0.0
C708 C 0.66139 0.30108 0.37461 0.0
H709 H 0.66921 0.41852 0.42975 0.0
H710 H 0.66626 0.38945 0.41014 0.0
C711 C 0.6655 0.28312 0.36858 0.0
C712 C 0.6476 0.32267 0.39773 0.0
H713 H 0.63586 0.36667 0.38928 0.0
C714 C 0.65262 0.3257 0.41681 0.0
C715 C 0.64145 0.3376 0.38763 0.0
C716 C 0.63572 0.33533 0.36716 0.0
C717 C 0.65176 0.34319 0.42606 0.0
C718 C 0.64541 0.35804 0.41604 0.0
C719 C 0.64053 0.35516 0.39694 0.0
C720 C 0.64446 0.37675 0.42532 0.0
C721 C 0.65799 0.3457 0.44645 0.0
C722 C 0.63257 0.37947 0.43975 0.0
C723 C 0.63428 0.39598 0.45099 0.0
C724 C 0.6478 0.41008 0.44785 0.0
C725 C 0.65863 0.40791 0.43242 0.0
C726 C 0.65698 0.39132 0.42124 0.0
H727 H 0.66629 0.33413 0.45101 0.0
H728 H 0.66647 0.35899 0.44956 0.0
H729 H 0.64559 0.34605 0.45478 0.0
H730 H 0.62263 0.36845 0.44291 0.0
H731 H 0.62559 0.39741 0.46264 0.0
H732 H 0.75873 0.69454 0.99773 0.0
H733 H 0.76554 0.66773 0.01543 0.0
H734 H 0.746 0.63083 0.96816 0.0
H735 H 0.73893 0.6576 0.95037 0.0
H736 H 0.7302 0.62188 0.0005 0.0
H737 H 0.80679 0.63161 0.01231 0.0
H738 H 0.79513 0.65203 0.01884 0.0
H739 H 0.7939 0.64341 0.99487 0.0
C740 C 0.75611 0.68074 0.99099 0.0
C741 C 0.74827 0.6782 0.97264 0.0
C742 C 0.76013 0.66542 0.0011 0.0
C743 C 0.75651 0.6473 0.99302 0.0
C744 C 0.749 0.64472 0.9746 0.0
H745 H 0.78623 0.5489 0.05106 0.0
H746 H 0.78314 0.57178 0.02747 0.0
C747 C 0.74498 0.66003 0.96447 0.0
C748 C 0.7592 0.63111 0.00431 0.0
H749 H 0.79123 0.61087 0.0319 0.0
C750 C 0.74359 0.61933 0.00719 0.0
C751 C 0.77671 0.62768 0.01283 0.0
C752 C 0.79413 0.63924 0.00943 0.0
C753 C 0.74487 0.60468 0.01899 0.0
C754 C 0.76216 0.60192 0.02834 0.0
C755 C 0.77794 0.61317 0.02486 0.0
C756 C 0.76394 0.58796 0.04241 0.0
C757 C 0.72768 0.59236 0.02144 0.0
C758 C 0.75432 0.58964 0.05866 0.0
C759 C 0.75602 0.57664 0.07209 0.0
C760 C 0.76745 0.56172 0.06956 0.0
C761 C 0.77717 0.56013 0.0533 0.0
C762 C 0.7755 0.57321 0.03987 0.0
H763 H 0.71715 0.59291 0.00965 0.0
H764 H 0.73114 0.57769 0.0227 0.0
H765 H 0.72133 0.59715 0.03435 0.0
H766 H 0.74555 0.60109 0.06101 0.0
H767 H 0.74821 0.57815 0.08436 0.0
H768 H 0.61838 0.29623 0.19671 0.0
H769 H 0.60694 0.28354 0.16568 0.0
H770 H 0.56574 0.24835 0.18984 0.0
H771 H 0.5767 0.26142 0.22089 0.0
H772 H 0.60293 0.24889 0.14799 0.0
H773 H 0.53393 0.27741 0.15566 0.0
H774 H 0.5535 0.28358 0.17203 0.0
H775 H 0.54007 0.26192 0.1732 0.0
C776 C 0.60698 0.28568 0.19543 0.0
C777 C 0.59826 0.28001 0.21122 0.0
C778 C 0.60048 0.27843 0.17769 0.0
C779 C 0.58522 0.26532 0.17543 0.0
C780 C 0.57721 0.25883 0.19124 0.0
H781 H 0.51981 0.21602 0.07807 0.0
H782 H 0.53619 0.22113 0.10878 0.0
C783 C 0.58355 0.26624 0.20898 0.0
C784 C 0.57717 0.25916 0.15653 0.0
H785 H 0.5373 0.25834 0.12846 0.0
C786 C 0.58858 0.25093 0.14371 0.0
C787 C 0.55848 0.26202 0.15092 0.0
C788 C 0.54582 0.27188 0.16359 0.0
C789 C 0.58171 0.24532 0.12548 0.0
C790 C 0.56302 0.24804 0.12002 0.0
C791 C 0.5516 0.25613 0.13283 0.0
C792 C 0.55503 0.24326 0.10089 0.0
C793 C 0.59438 0.23644 0.11219 0.0
C794 C 0.5604 0.2539 0.08627 0.0
C795 C 0.55091 0.2512 0.06877 0.0
C796 C 0.53587 0.23783 0.06562 0.0
C797 C 0.53114 0.22663 0.08012 0.0
C798 C 0.54055 0.22942 0.09762 0.0
H799 H 0.6073 0.2322 0.11945 0.0
H800 H 0.58712 0.22406 0.10445 0.0
H801 H 0.59833 0.24653 0.10188 0.0
H802 H 0.57136 0.26486 0.08864 0.0
H803 H 0.55476 0.26023 0.058 0.0
H804 H 0.02938 0.33821 0.8485 0.0
H805 H 0.01194 0.33766 0.87645 0.0
H806 H 0.96491 0.35854 0.84651 0.0
H807 H 0.98209 0.35867 0.81835 0.0
H808 H 0.99658 0.3652 0.89663 0.0
H809 H 0.94153 0.31267 0.86746 0.0
H810 H 0.96264 0.31755 0.85603 0.0
H811 H 0.94388 0.33275 0.85412 0.0
C812 C 0.01533 0.34269 0.84785 0.0
C813 C 0.00706 0.34833 0.83116 0.0
C814 C 0.00538 0.34239 0.86385 0.0
C815 C 0.987 0.34772 0.86347 0.0
C816 C 0.97891 0.35391 0.84699 0.0
H817 H 0.90672 0.35347 0.9487 0.0
H818 H 0.92368 0.35752 0.92072 0.0
C819 C 0.98879 0.35408 0.83093 0.0
C820 C 0.97638 0.3468 0.88037 0.0
H821 H 0.93722 0.3269 0.89721 0.0
C822 C 0.98362 0.35681 0.89676 0.0
C823 C 0.95948 0.33579 0.88052 0.0
C824 C 0.95149 0.32394 0.86366 0.0
C825 C 0.97434 0.35621 0.91327 0.0
C826 C 0.95748 0.34524 0.91338 0.0
C827 C 0.95013 0.33538 0.89699 0.0
C828 C 0.94753 0.34332 0.93053 0.0
C829 C 0.98255 0.36739 0.93046 0.0
C830 C 0.95531 0.33386 0.94519 0.0
C831 C 0.94559 0.33131 0.96107 0.0
C832 C 0.92789 0.33821 0.96262 0.0
C833 C 0.92021 0.34779 0.94789 0.0
C834 C 0.92991 0.35023 0.93195 0.0
H835 H 0.99338 0.37806 0.92715 0.0
H836 H 0.97155 0.37439 0.93778 0.0
H837 H 0.98905 0.35792 0.94012 0.0
H838 H 0.96876 0.32814 0.94418 0.0
H839 H 0.95177 0.32353 0.97194 0.0
H840 H 0.42713 0.64637 0.26682 0.0
H841 H 0.4365 0.63958 0.29861 0.0
H842 H 0.38195 0.6511 0.31573 0.0
H843 H 0.37246 0.65807 0.28393 0.0
H844 H 0.41115 0.67201 0.33597 0.0
H845 H 0.42366 0.59736 0.33161 0.0
H846 H 0.43832 0.61008 0.31695 0.0
H847 H 0.41362 0.60877 0.31219 0.0
C848 C 0.417 0.64716 0.27726 0.0
C849 C 0.39912 0.653 0.2729 0.0
C850 C 0.42235 0.64316 0.29541 0.0
C851 C 0.40991 0.64481 0.30951 0.0
C852 C 0.39176 0.64976 0.30503 0.0
H853 H 0.44251 0.66022 0.42921 0.0
H854 H 0.42254 0.65558 0.40065 0.0
C855 C 0.38637 0.65374 0.28686 0.0
C856 C 0.41655 0.64353 0.32917 0.0
H857 H 0.43778 0.61537 0.35894 0.0
C858 C 0.41674 0.65957 0.34115 0.0
C859 C 0.42412 0.62739 0.33572 0.0
C860 C 0.42478 0.60988 0.32344 0.0
C861 C 0.42525 0.66027 0.3592 0.0
C862 C 0.43288 0.64407 0.36582 0.0
C863 C 0.43188 0.62777 0.35402 0.0
C864 C 0.44367 0.64423 0.38405 0.0
C865 C 0.42705 0.67874 0.37036 0.0
C866 C 0.46166 0.63784 0.38474 0.0
C867 C 0.47277 0.63951 0.40129 0.0
C868 C 0.46644 0.64818 0.4175 0.0
C869 C 0.448 0.65357 0.41707 0.0
C870 C 0.43663 0.65128 0.40058 0.0
H871 H 0.42523 0.69054 0.36138 0.0
H872 H 0.41609 0.67907 0.38047 0.0
H873 H 0.44084 0.68098 0.37811 0.0
H874 H 0.4674 0.63205 0.3723 0.0
H875 H 0.48657 0.63445 0.40117 0.0
H876 H 0.97942 0.73561 0.69395 0.0
H877 H 0.98975 0.74479 0.66393 0.0
H878 H 0.04637 0.7516 0.68713 0.0
H879 H 0.03624 0.7425 0.71715 0.0
H880 H 0.03408 0.78059 0.66263 0.0
H881 H 0.02016 0.70785 0.63241 0.0
H882 H 0.00155 0.71859 0.64355 0.0
H883 H 0.02199 0.71348 0.65718 0.0
C884 C 0.99404 0.73931 0.69274 0.0
C885 C 0.00705 0.73816 0.70788 0.0
C886 C 0.9999 0.7445 0.67558 0.0
C887 C 0.01882 0.74866 0.67332 0.0
C888 C 0.0317 0.74841 0.68863 0.0
H889 H 0.09461 0.746 0.58965 0.0
H890 H 0.07539 0.74326 0.61619 0.0
C891 C 0.02588 0.74316 0.70575 0.0
C892 C 0.02553 0.75199 0.6548 0.0
H893 H 0.0342 0.72936 0.61365 0.0
C894 C 0.03385 0.76952 0.65177 0.0
C895 C 0.02529 0.73741 0.64078 0.0
C896 C 0.01689 0.7182 0.64355 0.0
C897 C 0.0424 0.7727 0.6352 0.0
C898 C 0.04262 0.75797 0.62145 0.0
C899 C 0.03383 0.74062 0.62423 0.0
C900 C 0.05376 0.75966 0.60508 0.0
C901 C 0.05192 0.79149 0.63278 0.0
C902 C 0.04778 0.76965 0.59 0.0
C903 C 0.05874 0.77121 0.57475 0.0
C904 C 0.07587 0.76293 0.57452 0.0
C905 C 0.08162 0.75276 0.58959 0.0
C906 C 0.07064 0.75111 0.60469 0.0
H907 H 0.05133 0.8012 0.64523 0.0
H908 H 0.06671 0.78994 0.62995 0.0
H909 H 0.04519 0.79771 0.62062 0.0
H910 H 0.03471 0.77625 0.59008 0.0
H911 H 0.05402 0.77915 0.56332 0.0
H912 H 0.80336 0.34158 0.69429 0.0
H913 H 0.83616 0.35267 0.69596 0.0
H914 H 0.82271 0.40395 0.72426 0.0
H915 H 0.78999 0.39288 0.72294 0.0
H916 H 0.85098 0.38327 0.68038 0.0
H917 H 0.86685 0.38933 0.75659 0.0
H918 H 0.84631 0.37653 0.74588 0.0
H919 H 0.84688 0.40143 0.74953 0.0
C920 C 0.80741 0.35513 0.70107 0.0
C921 C 0.79407 0.36634 0.70852 0.0
C922 C 0.82616 0.36144 0.702 0.0
C923 C 0.83191 0.37902 0.71046 0.0
C924 C 0.81865 0.39017 0.71805 0.0
H925 H 0.92724 0.4508 0.6916 0.0
H926 H 0.89666 0.43446 0.69217 0.0
C927 C 0.79992 0.38386 0.71717 0.0
C928 C 0.85155 0.38623 0.71027 0.0
H929 H 0.88865 0.40498 0.73822 0.0
C930 C 0.85929 0.38784 0.69303 0.0
C931 C 0.86244 0.39196 0.7268 0.0
C932 C 0.85527 0.38956 0.74576 0.0
C933 C 0.87741 0.39564 0.69184 0.0
C934 C 0.88793 0.40229 0.70832 0.0
C935 C 0.88046 0.40007 0.7256 0.0
C936 C 0.90652 0.41204 0.70788 0.0
C937 C 0.88514 0.39665 0.67295 0.0
C938 C 0.92214 0.40507 0.71691 0.0
C939 C 0.93961 0.4145 0.7168 0.0
C940 C 0.94175 0.43114 0.70777 0.0
C941 C 0.92604 0.4381 0.6988 0.0
C942 C 0.90859 0.42867 0.69893 0.0
H943 H 0.87772 0.38635 0.66261 0.0
H944 H 0.88338 0.41071 0.66795 0.0
H945 H 0.90019 0.39419 0.67359 0.0
H946 H 0.92079 0.39232 0.72403 0.0
H947 H 0.9514 0.40893 0.72405 0.0
H948 H 0.69753 0.62226 0.3518 0.0
H949 H 0.66483 0.61091 0.34876 0.0
H950 H 0.65308 0.65282 0.31039 0.0
H951 H 0.68556 0.66478 0.31399 0.0
H952 H 0.62413 0.64623 0.33274 0.0
H953 H 0.64749 0.58009 0.30154 0.0
H954 H 0.65683 0.58596 0.32489 0.0
H955 H 0.66305 0.60047 0.30655 0.0
C956 C 0.68791 0.62932 0.34303 0.0
C957 C 0.69419 0.64428 0.33296 0.0
C958 C 0.66925 0.62274 0.34121 0.0
C959 C 0.65664 0.63071 0.32896 0.0
C960 C 0.6626 0.64639 0.31983 0.0
H961 H 0.56339 0.57266 0.26756 0.0
H962 H 0.5917 0.59159 0.27816 0.0
C963 C 0.68121 0.65316 0.32186 0.0
C964 C 0.63779 0.62172 0.32422 0.0
H965 H 0.61542 0.58164 0.30472 0.0
C966 C 0.62217 0.63209 0.32666 0.0
C967 C 0.63532 0.60337 0.31601 0.0
C968 C 0.65154 0.59185 0.31191 0.0
C969 C 0.60412 0.6246 0.32101 0.0
C970 C 0.60169 0.60616 0.31302 0.0
C971 C 0.61731 0.59578 0.31084 0.0
C972 C 0.58327 0.59733 0.3061 0.0
C973 C 0.58795 0.63666 0.3231 0.0
C974 C 0.56887 0.59471 0.31811 0.0
C975 C 0.55252 0.58411 0.31193 0.0
C976 C 0.55055 0.57574 0.29379 0.0
C977 C 0.56464 0.57897 0.28162 0.0
C978 C 0.58079 0.58974 0.28768 0.0
H979 H 0.59258 0.65166 0.32477 0.0
H980 H 0.57777 0.63439 0.31089 0.0
H981 H 0.58076 0.63306 0.33566 0.0
H982 H 0.5706 0.60008 0.33248 0.0
H983 H 0.54191 0.58159 0.32161 0.0
H984 H 0.30139 0.02613 0.24167 0.0
H985 H 0.32929 0.00873 0.23992 0.0
H986 H 0.3634 0.05825 0.25841 0.0
H987 H 0.33554 0.07576 0.26044 0.0
H988 H 0.3615 0.01422 0.21999 0.0
H989 H 0.3774 0.02041 0.29653 0.0
H990 H 0.35525 0.02578 0.28595 0.0
H991 H 0.37509 0.04199 0.28574 0.0
C992 C 0.31482 0.03337 0.24526 0.0
C993 C 0.31624 0.0523 0.25135 0.0
C994 C 0.33075 0.02341 0.24422 0.0
C995 C 0.34835 0.03215 0.2493 0.0
C996 C 0.3499 0.05118 0.25474 0.0
H997 H 0.45215 0.97772 0.23269 0.0
H998 H 0.42802 0.0002 0.23226 0.0
C999 C 0.33397 0.06118 0.2558 0.0
C1000 C 0.36496 0.0211 0.24947 0.0
H1001 H 0.39844 0.00477 0.27847 0.0
C1002 C 0.36968 0.01223 0.23274 0.0
C1003 C 0.37543 0.01841 0.26618 0.0
C1004 C 0.37051 0.027 0.28467 0.0
C1005 C 0.38453 0.00057 0.23229 0.0
C1006 C 0.39504 0.99794 0.24899 0.0
C1007 C 0.39043 0.00697 0.26568 0.0
C1008 C 0.41006 0.98489 0.24968 0.0
C1009 C 0.38846 0.99065 0.21409 0.0
C1010 C 0.40816 0.96917 0.26005 0.0
C1011 C 0.42193 0.95644 0.26046 0.0
C1012 C 0.43793 0.95923 0.25055 0.0
C1013 C 0.44001 0.97524 0.24052 0.0
C1014 C 0.42618 0.98798 0.2401 0.0
H1015 H 0.37683 0.99122 0.20338 0.0
H1016 H 0.40115 0.99734 0.20877 0.0
H1017 H 0.39101 0.97587 0.21603 0.0
H1018 H 0.39587 0.96662 0.26765 0.0
H1019 H 0.42007 0.94442 0.26858 0.0
H1020 H 0.19317 0.03514 0.66213 0.0
H1021 H 0.16306 0.04737 0.668 0.0
H1022 H 0.13922 0.99163 0.67172 0.0
H1023 H 0.16931 0.97924 0.66595 0.0
H1024 H 0.12745 0.03926 0.64807 0.0
H1025 H 0.12823 0.01967 0.72143 0.0
H1026 H 0.14885 0.02045 0.70848 0.0
H1027 H 0.13178 0.00128 0.70435 0.0
C1028 C 0.18152 0.02546 0.66413 0.0
C1029 C 0.18367 0.00622 0.66369 0.0
C1030 C 0.16433 0.03248 0.66745 0.0
C1031 C 0.14901 0.02041 0.67051 0.0
C1032 C 0.15096 0.00118 0.66965 0.0
H1033 H 0.03438 0.05293 0.676 0.0
H1034 H 0.06212 0.03703 0.66787 0.0
C1035 C 0.16815 0.99413 0.66628 0.0
C1036 C 0.13111 0.02806 0.6749 0.0
H1037 H 0.10146 0.03333 0.70964 0.0
C1038 C 0.12169 0.0379 0.66149 0.0
C1039 C 0.12378 0.02639 0.69249 0.0
C1040 C 0.1337 0.01651 0.70762 0.0
C1041 C 0.10509 0.04618 0.66522 0.0
C1042 C 0.09771 0.04441 0.68276 0.0
C1043 C 0.10711 0.03452 0.69615 0.0
C1044 C 0.08077 0.05356 0.68786 0.0
C1045 C 0.09586 0.05719 0.65057 0.0
C1046 C 0.08203 0.06779 0.70206 0.0
C1047 C 0.06625 0.0768 0.70678 0.0
C1048 C 0.04886 0.07166 0.69747 0.0
C1049 C 0.04757 0.05714 0.68348 0.0
C1050 C 0.06341 0.04816 0.67871 0.0
H1051 H 0.10516 0.06023 0.63929 0.0
H1052 H 0.08323 0.0491 0.64428 0.0
H1053 H 0.09148 0.07052 0.65683 0.0
H1054 H 0.0953 0.07206 0.70936 0.0
H1055 H 0.06764 0.08774 0.71782 0.0
H1056 H 0.7106 0.80452 0.34465 0.0
H1057 H 0.71053 0.8378 0.35335 0.0
H1058 H 0.73745 0.82912 0.4068 0.0
H1059 H 0.73787 0.79596 0.39814 0.0
H1060 H 0.69283 0.85347 0.38206 0.0
H1061 H 0.76818 0.87364 0.39087 0.0
H1062 H 0.7591 0.85199 0.37894 0.0
H1063 H 0.76176 0.85417 0.40394 0.0
C1064 C 0.71676 0.80974 0.35816 0.0
C1065 C 0.72426 0.7976 0.37071 0.0
C1066 C 0.71669 0.82875 0.3631 0.0
C1067 C 0.7242 0.83596 0.38061 0.0
C1068 C 0.73196 0.82392 0.39305 0.0
H1069 H 0.69742 0.93052 0.4482 0.0
H1070 H 0.69976 0.90019 0.43193 0.0
C1071 C 0.73208 0.80494 0.38811 0.0
C1072 C 0.72268 0.85579 0.3865 0.0
H1073 H 0.74791 0.89473 0.40503 0.0
C1074 C 0.70489 0.86258 0.38685 0.0
C1075 C 0.73844 0.86772 0.3925 0.0
C1076 C 0.75796 0.86158 0.39138 0.0
C1077 C 0.70237 0.88074 0.39382 0.0
C1078 C 0.71804 0.89227 0.40091 0.0
C1079 C 0.73589 0.88578 0.39979 0.0
C1080 C 0.71615 0.91078 0.41031 0.0
C1081 C 0.68294 0.88737 0.3936 0.0
C1082 C 0.7249 0.92675 0.40375 0.0
C1083 C 0.72378 0.9441 0.41316 0.0
C1084 C 0.714 0.94574 0.42938 0.0
C1085 C 0.70518 0.9297 0.43583 0.0
C1086 C 0.70631 0.91239 0.42643 0.0
H1087 H 0.67352 0.87934 0.38286 0.0
H1088 H 0.67724 0.88541 0.40732 0.0
H1089 H 0.68291 0.90235 0.39094 0.0
H1090 H 0.7327 0.92576 0.39141 0.0
H1091 H 0.73094 0.95616 0.40799 0.0
H1092 H 0.64954 0.19506 0.02021 0.0
H1093 H 0.65139 0.1656 0.03512 0.0
H1094 H 0.66683 0.13891 0.98382 0.0
H1095 H 0.66499 0.16826 0.96875 0.0
H1096 H 0.63172 0.12891 0.02263 0.0
H1097 H 0.70894 0.12952 0.02469 0.0
H1098 H 0.69655 0.15027 0.02199 0.0
H1099 H 0.69721 0.13348 0.00273 0.0
C1100 C 0.65328 0.18292 0.01207 0.0
C1101 C 0.65721 0.18402 0.99331 0.0
C1102 C 0.65429 0.16612 0.02061 0.0
C1103 C 0.65942 0.15019 0.01059 0.0
C1104 C 0.66304 0.15113 0.99181 0.0
H1105 H 0.68439 0.04007 0.04272 0.0
H1106 H 0.67935 0.06783 0.02583 0.0
C1107 C 0.66192 0.16789 0.98322 0.0
C1108 C 0.66119 0.13264 0.01987 0.0
H1109 H 0.69303 0.10307 0.03516 0.0
C1110 C 0.6451 0.12322 0.02541 0.0
C1111 C 0.67867 0.12529 0.02335 0.0
C1112 C 0.6964 0.13516 0.01803 0.0
C1113 C 0.646 0.10644 0.03419 0.0
C1114 C 0.66354 0.0992 0.03792 0.0
C1115 C 0.67961 0.10863 0.03228 0.0
C1116 C 0.66562 0.082 0.04787 0.0
C1117 C 0.62814 0.09646 0.03901 0.0
C1118 C 0.65963 0.08076 0.0659 0.0
C1119 C 0.66226 0.0648 0.07551 0.0
C1120 C 0.67118 0.04985 0.06737 0.0
C1121 C 0.6772 0.05117 0.0493 0.0
C1122 C 0.67446 0.06709 0.03967 0.0
H1123 H 0.61601 0.10067 0.03042 0.0
H1124 H 0.62881 0.08115 0.03705 0.0
H1125 H 0.62576 0.10002 0.0538 0.0
H1126 H 0.65315 0.09224 0.07268 0.0
H1127 H 0.6573 0.06419 0.08932 0.0
H1128 H 0.357 0.71006 0.61842 0.0
H1129 H 0.35452 0.67704 0.60836 0.0
H1130 H 0.33455 0.66374 0.66132 0.0
H1131 H 0.33665 0.69683 0.67146 0.0
H1132 H 0.36883 0.64326 0.62518 0.0
H1133 H 0.29171 0.64622 0.6207 0.0
H1134 H 0.30713 0.66695 0.62209 0.0
H1135 H 0.3041 0.65419 0.64236 0.0
C1136 C 0.35238 0.70012 0.62808 0.0
C1137 C 0.34673 0.70609 0.64563 0.0
C1138 C 0.35102 0.68125 0.62231 0.0
C1139 C 0.34414 0.66805 0.63403 0.0
C1140 C 0.3397 0.6738 0.65203 0.0
H1141 H 0.29989 0.55608 0.59542 0.0
H1142 H 0.31089 0.58291 0.61639 0.0
C1143 C 0.34094 0.69269 0.65778 0.0
C1144 C 0.33994 0.64863 0.62663 0.0
H1145 H 0.30374 0.61848 0.61 0.0
C1146 C 0.35462 0.63774 0.62199 0.0
C1147 C 0.32138 0.64146 0.62267 0.0
C1148 C 0.3051 0.65277 0.62708 0.0
C1149 C 0.35119 0.61997 0.61299 0.0
C1150 C 0.33262 0.61314 0.60826 0.0
C1151 C 0.31796 0.62375 0.61363 0.0
C1152 C 0.32792 0.59579 0.59648 0.0
C1153 C 0.36748 0.60875 0.60851 0.0
C1154 C 0.33389 0.5941 0.57836 0.0
C1155 C 0.32769 0.57878 0.56639 0.0
C1156 C 0.31525 0.56491 0.57225 0.0
C1157 C 0.30961 0.56643 0.59055 0.0
C1158 C 0.31584 0.58177 0.60253 0.0
H1159 H 0.37981 0.61291 0.61816 0.0
H1160 H 0.36399 0.59364 0.60925 0.0
H1161 H 0.37136 0.61127 0.5942 0.0
H1162 H 0.34287 0.60495 0.57325 0.0
H1163 H 0.33245 0.57791 0.55244 0.0
H1164 H 0.24644 0.30057 0.02406 0.0
H1165 H 0.24205 0.32685 0.00477 0.0
H1166 H 0.25227 0.36487 0.05317 0.0
H1167 H 0.25673 0.33868 0.07264 0.0
H1168 H 0.21997 0.37138 0.02688 0.0
H1169 H 0.2871 0.36403 0.99402 0.0
H1170 H 0.2721 0.34322 0.99406 0.0
H1171 H 0.2822 0.35403 0.01566 0.0
C1172 C 0.24762 0.3145 0.03065 0.0
C1173 C 0.25204 0.31755 0.04987 0.0
C1174 C 0.24516 0.32948 0.01959 0.0
C1175 C 0.24702 0.34774 0.02756 0.0
C1176 C 0.25083 0.35084 0.0468 0.0
H1177 H 0.26352 0.44927 0.9707 0.0
H1178 H 0.26479 0.42489 0.99281 0.0
C1179 C 0.25341 0.33587 0.05787 0.0
C1180 C 0.24557 0.36362 0.01572 0.0
H1181 H 0.26747 0.38617 0.98221 0.0
C1182 C 0.23033 0.37467 0.01712 0.0
C1183 C 0.25926 0.36793 0.0032 0.0
C1184 C 0.27619 0.35681 0.00165 0.0
C1185 C 0.22826 0.38979 0.006 0.0
C1186 C 0.24174 0.39382 0.99317 0.0
C1187 C 0.25713 0.38296 0.99203 0.0
C1188 C 0.24012 0.40917 0.98064 0.0
C1189 C 0.21179 0.40145 0.00813 0.0
C1190 C 0.22581 0.40835 0.96653 0.0
C1191 C 0.22505 0.42222 0.9539 0.0
C1192 C 0.23861 0.43715 0.95517 0.0
C1193 C 0.25276 0.43806 0.96952 0.0
C1194 C 0.25356 0.42413 0.98208 0.0
H1195 H 0.20502 0.3991 0.02127 0.0
H1196 H 0.21605 0.41646 0.00786 0.0
H1197 H 0.20136 0.39776 0.99636 0.0
H1198 H 0.21546 0.39676 0.96505 0.0
H1199 H 0.21393 0.42122 0.94305 0.0
H1200 H 0.41458 0.73002 0.79457 0.0
H1201 H 0.428 0.73315 0.82663 0.0
H1202 H 0.3754 0.714 0.84618 0.0
H1203 H 0.36181 0.71075 0.81413 0.0
H1204 H 0.39553 0.74766 0.86654 0.0
H1205 H 0.4377 0.68615 0.85744 0.0
H1206 H 0.43931 0.70292 0.84008 0.0
H1207 H 0.41771 0.68977 0.8421 0.0
C1208 C 0.40581 0.72657 0.80568 0.0
C1209 C 0.38715 0.72003 0.8018 0.0
C1210 C 0.41352 0.72833 0.82396 0.0
C1211 C 0.4027 0.72365 0.83867 0.0
C1212 C 0.38395 0.71763 0.83495 0.0
H1213 H 0.44147 0.70262 0.95103 0.0
H1214 H 0.42462 0.70181 0.92049 0.0
C1215 C 0.37624 0.71575 0.81665 0.0
C1216 C 0.41113 0.72456 0.85789 0.0
H1217 H 0.44253 0.70412 0.88597 0.0
C1218 C 0.40578 0.73815 0.87085 0.0
C1219 C 0.42433 0.71197 0.86342 0.0
C1220 C 0.43007 0.69676 0.85012 0.0
C1221 C 0.41362 0.73972 0.88921 0.0
C1222 C 0.42714 0.72739 0.8946 0.0
C1223 C 0.43221 0.71359 0.88172 0.0
C1224 C 0.43632 0.72859 0.91354 0.0
C1225 C 0.4073 0.75439 0.90274 0.0
C1226 C 0.44844 0.74393 0.91969 0.0
C1227 C 0.45809 0.74443 0.9371 0.0
C1228 C 0.45575 0.72959 0.94865 0.0
C1229 C 0.44337 0.71436 0.94254 0.0
C1230 C 0.43382 0.71383 0.92509 0.0
H1231 H 0.39412 0.76007 0.89761 0.0
H1232 H 0.40529 0.74867 0.91646 0.0
H1233 H 0.41814 0.76602 0.90481 0.0
H1234 H 0.45074 0.75534 0.91085 0.0
H1235 H 0.46748 0.75637 0.94149 0.0
H1236 H 0.02872 0.66486 0.19997 0.0
H1237 H 0.04305 0.67007 0.17073 0.0
H1238 H 0.98905 0.66401 0.1413 0.0
H1239 H 0.97456 0.65871 0.17046 0.0
H1240 H 0.01799 0.64458 0.12372 0.0
H1241 H 0.0383 0.71895 0.14354 0.0
H1242 H 0.04564 0.70282 0.16008 0.0
H1243 H 0.02129 0.70566 0.15548 0.0
C1244 C 0.01988 0.66453 0.18728 0.0
C1245 C 0.00048 0.66149 0.18756 0.0
C1246 C 0.0281 0.66758 0.17061 0.0
C1247 C 0.01707 0.66766 0.15395 0.0
C1248 C 0.99777 0.66407 0.15406 0.0
H1249 H 0.04749 0.71339 0.05105 0.0
H1250 H 0.03219 0.705 0.07896 0.0
C1251 C 0.98953 0.66107 0.17073 0.0
C1252 C 0.02562 0.67191 0.13646 0.0
H1253 H 0.04914 0.70641 0.11547 0.0
C1254 C 0.0248 0.65808 0.12187 0.0
C1255 C 0.03427 0.68963 0.13407 0.0
C1256 C 0.03485 0.70521 0.14903 0.0
C1257 C 0.0327 0.66144 0.10499 0.0
C1258 C 0.04174 0.67901 0.10278 0.0
C1259 C 0.04231 0.69291 0.11728 0.0
C1260 C 0.05057 0.6834 0.08547 0.0
C1261 C 0.03108 0.64627 0.08956 0.0
C1262 C 0.066 0.67406 0.07995 0.0
C1263 C 0.07475 0.6788 0.06399 0.0
C1264 C 0.06822 0.69299 0.0533 0.0
C1265 C 0.05269 0.70224 0.05885 0.0
C1266 C 0.044 0.69754 0.07483 0.0
H1267 H 0.02017 0.63528 0.09186 0.0
H1268 H 0.02783 0.65205 0.07592 0.0
H1269 H 0.04455 0.6397 0.08891 0.0
H1270 H 0.07144 0.6633 0.08813 0.0
H1271 H 0.0866 0.67134 0.05999 0.0
H1272 H 0.67585 0.34065 0.69922 0.0
H1273 H 0.6662 0.3403 0.66614 0.0
H1274 H 0.61146 0.355 0.68002 0.0
H1275 H 0.62103 0.35559 0.71294 0.0
H1276 H 0.64094 0.31655 0.64974 0.0
H1277 H 0.61815 0.38635 0.63689 0.0
H1278 H 0.63324 0.38193 0.65677 0.0
H1279 H 0.60838 0.3782 0.65736 0.0
C1280 C 0.66188 0.34422 0.69521 0.0
C1281 C 0.64917 0.34805 0.7087 0.0
C1282 C 0.65641 0.34406 0.67629 0.0
C1283 C 0.63819 0.34791 0.67053 0.0
C1284 C 0.62575 0.35253 0.68403 0.0
H1285 H 0.56224 0.29348 0.5914 0.0
H1286 H 0.58457 0.30502 0.61673 0.0
C1287 C 0.63119 0.35265 0.70291 0.0
C1288 C 0.63119 0.34422 0.65083 0.0
H1289 H 0.60231 0.36066 0.61732 0.0
C1290 C 0.63289 0.32639 0.64247 0.0
C1291 C 0.62103 0.35712 0.64107 0.0
C1292 C 0.62027 0.37703 0.64842 0.0
C1293 C 0.62338 0.32061 0.62543 0.0
C1294 C 0.61147 0.33279 0.61677 0.0
C1295 C 0.61107 0.35116 0.62423 0.0
C1296 C 0.59802 0.32609 0.60114 0.0
C1297 C 0.62575 0.30127 0.61716 0.0
C1298 C 0.59776 0.33451 0.58414 0.0
C1299 C 0.58475 0.32809 0.56965 0.0
C1300 C 0.57171 0.31326 0.57202 0.0
C1301 C 0.57196 0.30502 0.58916 0.0
C1302 C 0.58489 0.31144 0.60358 0.0
H1303 H 0.63961 0.29648 0.62145 0.0
H1304 H 0.61506 0.29148 0.62228 0.0
H1305 H 0.62414 0.30061 0.60174 0.0
H1306 H 0.60764 0.34597 0.58206 0.0
H1307 H 0.58473 0.33491 0.5567 0.0
H1308 H 0.0738 0.25786 0.3382 0.0
H1309 H 0.057 0.25446 0.36634 0.0
H1310 H 0.00796 0.23307 0.33291 0.0
H1311 H 0.02467 0.2362 0.30474 0.0
H1312 H 0.02566 0.27244 0.3746 0.0
H1313 H 0.01128 0.19614 0.37346 0.0
H1314 H 0.02853 0.20684 0.35969 0.0
H1315 H 0.00431 0.2057 0.35194 0.0
C1316 C 0.05952 0.25217 0.33684 0.0
C1317 C 0.05056 0.2473 0.31923 0.0
C1318 C 0.04995 0.25025 0.35294 0.0
C1319 C 0.03132 0.24329 0.35172 0.0
C1320 C 0.02245 0.23808 0.33419 0.0
H1321 H 0.943 0.26258 0.42227 0.0
H1322 H 0.96572 0.26186 0.39855 0.0
C1323 C 0.032 0.24 0.31809 0.0
C1324 C 0.02066 0.24291 0.3686 0.0
H1325 H 0.99308 0.21467 0.39319 0.0
C1326 C 0.01872 0.25977 0.3788 0.0
C1327 C 0.01181 0.22634 0.37419 0.0
C1328 C 0.01421 0.20769 0.36436 0.0
C1329 C 0.00752 0.26063 0.39398 0.0
C1330 C 0.99782 0.24424 0.3989 0.0
C1331 C 0.00039 0.22724 0.38924 0.0
C1332 C 0.98426 0.24466 0.41344 0.0
C1333 C 0.006 0.2791 0.40453 0.0
C1334 C 0.98701 0.23492 0.42951 0.0
C1335 C 0.97397 0.23522 0.44307 0.0
C1336 C 0.95788 0.24508 0.44064 0.0
C1337 C 0.95517 0.25473 0.42446 0.0
C1338 C 0.96822 0.25448 0.41098 0.0
H1339 H 0.01797 0.289 0.40243 0.0
H1340 H 0.99312 0.28532 0.39945 0.0
H1341 H 0.00527 0.27738 0.41965 0.0
H1342 H 0.99926 0.22716 0.43156 0.0
H1343 H 0.97632 0.2275 0.4553 0.0
H1344 H 0.26191 0.54795 0.35068 0.0
H1345 H 0.26276 0.53846 0.38261 0.0
H1346 H 0.26752 0.59598 0.40315 0.0
H1347 H 0.26647 0.60563 0.37128 0.0
H1348 H 0.29235 0.54675 0.40813 0.0
H1349 H 0.22812 0.57348 0.43498 0.0
H1350 H 0.23173 0.57084 0.41045 0.0
H1351 H 0.24215 0.59071 0.42434 0.0
C1352 C 0.26282 0.5586 0.36196 0.0
C1353 C 0.26418 0.57756 0.35841 0.0
C1354 C 0.2633 0.55314 0.38021 0.0
C1355 C 0.26502 0.5665 0.39524 0.0
C1356 C 0.26581 0.58543 0.39176 0.0
H1357 H 0.31427 0.55972 0.50535 0.0
H1358 H 0.306 0.56562 0.47302 0.0
C1359 C 0.26532 0.59092 0.37351 0.0
C1360 C 0.26775 0.56069 0.41449 0.0
H1361 H 0.25113 0.56501 0.45771 0.0
C1362 C 0.28322 0.55057 0.41893 0.0
C1363 C 0.25573 0.56554 0.4285 0.0
C1364 C 0.23839 0.57559 0.42433 0.0
C1365 C 0.28737 0.54571 0.43715 0.0
C1366 C 0.27588 0.55136 0.45133 0.0
C1367 C 0.26002 0.56088 0.44681 0.0
C1368 C 0.28053 0.54802 0.47104 0.0
C1369 C 0.30407 0.53465 0.44109 0.0
C1370 C 0.26872 0.5365 0.48073 0.0
C1371 C 0.27336 0.53317 0.49927 0.0
C1372 C 0.2898 0.5415 0.50845 0.0
C1373 C 0.30144 0.55324 0.49872 0.0
C1374 C 0.29683 0.55649 0.48021 0.0
H1375 H 0.30845 0.52733 0.42826 0.0
H1376 H 0.31588 0.5442 0.44695 0.0
H1377 H 0.30113 0.52423 0.4514 0.0
H1378 H 0.25601 0.52994 0.47388 0.0
H1379 H 0.26402 0.52423 0.50647 0.0
H1380 H 0.2199 0.35636 0.75954 0.0
H1381 H 0.22465 0.37406 0.78959 0.0
H1382 H 0.22433 0.42533 0.762 0.0
H1383 H 0.21946 0.4078 0.73186 0.0
H1384 H 0.25347 0.40167 0.80286 0.0
H1385 H 0.18312 0.42923 0.79947 0.0
H1386 H 0.18905 0.40986 0.78448 0.0
H1387 H 0.19677 0.43314 0.7799 0.0
C1388 C 0.22092 0.3714 0.75982 0.0
C1389 C 0.21916 0.38067 0.74329 0.0
C1390 C 0.22366 0.38148 0.77701 0.0
C1391 C 0.22457 0.40097 0.77798 0.0
C1392 C 0.22336 0.41028 0.76152 0.0
H1393 H 0.25684 0.47005 0.88028 0.0
H1394 H 0.2543 0.45763 0.84779 0.0
C1395 C 0.22066 0.40023 0.74432 0.0
C1396 C 0.22644 0.41146 0.7963 0.0
H1397 H 0.20316 0.43917 0.82567 0.0
C1398 C 0.24255 0.40998 0.80784 0.0
C1399 C 0.21205 0.42213 0.80273 0.0
C1400 C 0.19418 0.42364 0.79111 0.0
C1401 C 0.24461 0.4188 0.82577 0.0
C1402 C 0.23024 0.4295 0.83219 0.0
C1403 C 0.21419 0.43109 0.82059 0.0
C1404 C 0.23109 0.43807 0.85137 0.0
C1405 C 0.26186 0.41612 0.83793 0.0
C1406 C 0.21848 0.4316 0.8639 0.0
C1407 C 0.21982 0.43872 0.88237 0.0
C1408 C 0.23373 0.45253 0.88861 0.0
C1409 C 0.24593 0.45948 0.87584 0.0
C1410 C 0.24461 0.45229 0.85735 0.0
H1411 H 0.26992 0.40471 0.83222 0.0
H1412 H 0.27096 0.42914 0.83903 0.0
H1413 H 0.25818 0.413 0.85217 0.0
H1414 H 0.20788 0.4207 0.85949 0.0
H1415 H 0.21008 0.43327 0.89183 0.0
H1416 H 0.73101 0.99721 0.65045 0.0
H1417 H 0.7211 0.99845 0.61758 0.0
H1418 H 0.75944 0.9572 0.60316 0.0
H1419 H 0.76924 0.95565 0.63594 0.0
H1420 H 0.7431 0.00838 0.58931 0.0
H1421 H 0.7115 0.93678 0.57457 0.0
H1422 H 0.71653 0.94696 0.59792 0.0
H1423 H 0.73471 0.93739 0.5851 0.0
C1424 C 0.73718 0.98823 0.64032 0.0
C1425 C 0.75089 0.97628 0.64585 0.0
C1426 C 0.73151 0.98898 0.62154 0.0
C1427 C 0.73936 0.97775 0.60796 0.0
C1428 C 0.75291 0.9657 0.61344 0.0
H1429 H 0.74208 0.96489 0.48986 0.0
H1430 H 0.74653 0.96486 0.52365 0.0
C1431 C 0.75856 0.96491 0.6322 0.0
C1432 C 0.73417 0.97931 0.58798 0.0
H1433 H 0.71842 0.95383 0.54818 0.0
C1434 C 0.73748 0.99653 0.58033 0.0
C1435 C 0.72679 0.96383 0.57634 0.0
C1436 C 0.72199 0.94524 0.58392 0.0
C1437 C 0.73432 0.99849 0.56119 0.0
C1438 C 0.72751 0.98286 0.5495 0.0
C1439 C 0.72374 0.96577 0.55721 0.0
C1440 C 0.72501 0.98365 0.52909 0.0
C1441 C 0.73895 0.01705 0.5535 0.0
C1442 C 0.71145 0.9943 0.52098 0.0
C1443 C 0.70878 0.99426 0.50161 0.0
C1444 C 0.71956 0.98348 0.49009 0.0
C1445 C 0.73332 0.97309 0.49834 0.0
C1446 C 0.73596 0.97311 0.51763 0.0
H1447 H 0.7472 0.02676 0.56383 0.0
H1448 H 0.74688 0.01526 0.54088 0.0
H1449 H 0.72587 0.0235 0.54946 0.0
H1450 H 0.70271 0.00233 0.52962 0.0
H1451 H 0.69794 0.00225 0.49567 0.0
H1452 H 0.75633 0.06101 0.27302 0.0
H1453 H 0.74457 0.05848 0.24037 0.0
H1454 H 0.71611 0.00568 0.24865 0.0
H1455 H 0.72832 0.00788 0.28112 0.0
H1456 H 0.73517 0.00491 0.21716 0.0
H1457 H 0.6921 0.06596 0.21969 0.0
H1458 H 0.7159 0.07126 0.22791 0.0
H1459 H 0.70128 0.05602 0.24039 0.0
C1460 C 0.74744 0.04894 0.26789 0.0
C1461 C 0.74274 0.03491 0.27974 0.0
C1462 C 0.74062 0.04758 0.24929 0.0
C1463 C 0.72903 0.03213 0.24222 0.0
C1464 C 0.72472 0.01789 0.25393 0.0
H1465 H 0.67324 0.99752 0.13458 0.0
H1466 H 0.68431 0.00046 0.16739 0.0
C1467 C 0.73149 0.01928 0.27254 0.0
C1468 C 0.72196 0.03048 0.22245 0.0
H1469 H 0.69639 0.05196 0.18971 0.0
C1470 C 0.7266 0.01513 0.21118 0.0
C1471 C 0.71077 0.04384 0.2147 0.0
C1472 C 0.70455 0.06011 0.22632 0.0
C1473 C 0.72062 0.01296 0.19228 0.0
C1474 C 0.70958 0.0264 0.18452 0.0
C1475 C 0.70491 0.04173 0.19575 0.0
C1476 C 0.70275 0.02475 0.16473 0.0
C1477 C 0.72641 0.9965 0.18065 0.0
C1478 C 0.70924 0.03764 0.15249 0.0
C1479 C 0.70305 0.03594 0.13371 0.0
C1480 C 0.69012 0.02139 0.12687 0.0
C1481 C 0.68343 0.00869 0.13931 0.0
C1482 C 0.68969 0.01036 0.15806 0.0
H1483 H 0.73792 0.98955 0.18773 0.0
H1484 H 0.71437 0.98619 0.17793 0.0
H1485 H 0.73088 0.00083 0.16703 0.0
H1486 H 0.71931 0.04885 0.15742 0.0
H1487 H 0.70868 0.04582 0.12449 0.0
H1488 H 0.37066 0.28668 0.62234 0.0
H1489 H 0.40257 0.28692 0.61271 0.0
H1490 H 0.3824 0.26585 0.55758 0.0
H1491 H 0.35041 0.26551 0.56702 0.0
H1492 H 0.41558 0.24897 0.57388 0.0
H1493 H 0.42113 0.32624 0.57609 0.0
H1494 H 0.41339 0.31615 0.59667 0.0
H1495 H 0.39908 0.31293 0.57537 0.0
C1496 C 0.37299 0.28187 0.60822 0.0
C1497 C 0.35796 0.27622 0.5954 0.0
C1498 C 0.39122 0.28208 0.60274 0.0
C1499 C 0.39475 0.27663 0.58439 0.0
C1500 C 0.3799 0.27017 0.57179 0.0
H1501 H 0.49436 0.30369 0.52753 0.0
H1502 H 0.46221 0.29786 0.53579 0.0
C1503 C 0.36165 0.27002 0.57722 0.0
C1504 C 0.41383 0.27855 0.57809 0.0
H1505 H 0.44833 0.31091 0.57003 0.0
C1506 C 0.42278 0.26248 0.57302 0.0
C1507 C 0.42299 0.29623 0.57675 0.0
C1508 C 0.41367 0.31392 0.58135 0.0
C1509 C 0.44091 0.26364 0.56695 0.0
C1510 C 0.45024 0.28132 0.56606 0.0
C1511 C 0.44113 0.29738 0.57082 0.0
C1512 C 0.46955 0.28356 0.56039 0.0
C1513 C 0.44988 0.24601 0.56134 0.0
C1514 C 0.48427 0.27742 0.5715 0.0
C1515 C 0.50262 0.28073 0.56683 0.0
C1516 C 0.50656 0.29026 0.55097 0.0
C1517 C 0.49174 0.29612 0.53971 0.0
C1518 C 0.4734 0.29289 0.54445 0.0
H1519 H 0.43948 0.23401 0.55875 0.0
H1520 H 0.45756 0.24772 0.54863 0.0
H1521 H 0.45999 0.24275 0.57269 0.0
H1522 H 0.48159 0.27044 0.58402 0.0
H1523 H 0.51375 0.27593 0.5757 0.0
H1524 H 0.27612 0.76521 0.00861 0.0
H1525 H 0.24275 0.75686 0.0082 0.0
H1526 H 0.25367 0.71122 0.04232 0.0
H1527 H 0.28712 0.71926 0.04229 0.0
H1528 H 0.22776 0.70068 0.01575 0.0
H1529 H 0.20977 0.76748 0.04937 0.0
H1530 H 0.22125 0.77082 0.0284 0.0
H1531 H 0.23349 0.76139 0.04781 0.0
C1532 C 0.27136 0.7534 0.01601 0.0
C1533 C 0.28415 0.74278 0.02536 0.0
C1534 C 0.2523 0.74871 0.01588 0.0
C1535 C 0.24565 0.73365 0.02556 0.0
C1536 C 0.25846 0.72291 0.03478 0.0
H1537 H 0.12973 0.72063 0.05126 0.0
H1538 H 0.16348 0.72535 0.0528 0.0
C1539 C 0.27756 0.72744 0.03467 0.0
C1540 C 0.22536 0.72902 0.02597 0.0
H1541 H 0.18442 0.74772 0.03536 0.0
C1542 C 0.21829 0.71092 0.02018 0.0
C1543 C 0.21303 0.74227 0.03209 0.0
C1544 C 0.2198 0.7615 0.03996 0.0
C1545 C 0.19919 0.70581 0.01997 0.0
C1546 C 0.18674 0.71937 0.02508 0.0
C1547 C 0.19389 0.73736 0.03121 0.0
C1548 C 0.16628 0.7153 0.02431 0.0
C1549 C 0.19267 0.68584 0.01464 0.0
C1550 C 0.15651 0.70806 0.00779 0.0
C1551 C 0.13719 0.70484 0.00701 0.0
C1552 C 0.12711 0.70923 0.02261 0.0
C1553 C 0.13696 0.71669 0.03907 0.0
C1554 C 0.1563 0.71959 0.03993 0.0
H1555 H 0.20396 0.67634 0.01722 0.0
H1556 H 0.18061 0.68135 0.02248 0.0
H1557 H 0.18844 0.68437 0.99957 0.0
H1558 H 0.16379 0.7051 0.99539 0.0
H1559 H 0.13018 0.69889 0.99415 0.0
H1560 H 0.76132 0.22712 0.3604 0.0
H1561 H 0.79158 0.23227 0.37768 0.0
H1562 H 0.76472 0.23248 0.42939 0.0
H1563 H 0.73439 0.2272 0.41229 0.0
H1564 H 0.80546 0.26117 0.40497 0.0
H1565 H 0.80194 0.1911 0.43308 0.0
H1566 H 0.78673 0.19702 0.41386 0.0
H1567 H 0.78252 0.20489 0.4372 0.0
C1568 C 0.76181 0.22839 0.37545 0.0
C1569 C 0.74543 0.22659 0.38496 0.0
C1570 C 0.77912 0.23135 0.38529 0.0
C1571 C 0.78036 0.23247 0.40478 0.0
C1572 C 0.76404 0.23134 0.41434 0.0
H1573 H 0.88315 0.26456 0.47326 0.0
H1574 H 0.85066 0.26226 0.46078 0.0
C1575 C 0.74673 0.2284 0.40452 0.0
C1576 C 0.79881 0.2343 0.41506 0.0
H1577 H 0.82822 0.2111 0.44283 0.0
C1578 C 0.81043 0.2503 0.41335 0.0
C1579 C 0.80525 0.21997 0.42581 0.0
C1580 C 0.79357 0.20219 0.42754 0.0
C1581 C 0.82842 0.25233 0.42206 0.0
C1582 C 0.83482 0.23804 0.43288 0.0
C1583 C 0.82316 0.22209 0.43467 0.0
C1584 C 0.85404 0.23885 0.4414 0.0
C1585 C 0.84066 0.26946 0.41915 0.0
C1586 C 0.86645 0.22607 0.43505 0.0
C1587 C 0.88491 0.22728 0.4422 0.0
C1588 C 0.89127 0.24123 0.45592 0.0
C1589 C 0.87862 0.25362 0.46275 0.0
C1590 C 0.86014 0.25244 0.45552 0.0
H1591 H 0.83493 0.27743 0.40768 0.0
H1592 H 0.84188 0.27867 0.43209 0.0
H1593 H 0.85486 0.26565 0.41599 0.0
H1594 H 0.86196 0.21541 0.42424 0.0
H1595 H 0.89428 0.21739 0.43685 0.0
H1596 H 0.67157 0.71855 0.97403 0.0
H1597 H 0.63894 0.71874 0.9813 0.0
H1598 H 0.63434 0.77076 0.95556 0.0
H1599 H 0.66705 0.77066 0.9483 0.0
H1600 H 0.61667 0.76972 0.98881 0.0
H1601 H 0.59614 0.70683 0.94247 0.0
H1602 H 0.61438 0.70327 0.95963 0.0
H1603 H 0.61848 0.71936 0.94203 0.0
C1604 C 0.66361 0.73007 0.96999 0.0
C1605 C 0.67188 0.74469 0.96077 0.0
C1606 C 0.64497 0.73013 0.9741 0.0
C1607 C 0.63415 0.74461 0.96871 0.0
C1608 C 0.64247 0.75946 0.95986 0.0
H1609 H 0.51625 0.762 0.96934 0.0
H1610 H 0.54996 0.76592 0.96704 0.0
C1611 C 0.66119 0.75947 0.95586 0.0
C1612 C 0.61405 0.74396 0.97191 0.0
H1613 H 0.57344 0.71746 0.96231 0.0
C1614 C 0.60718 0.75835 0.98296 0.0
C1615 C 0.60169 0.72916 0.96415 0.0
C1616 C 0.60798 0.71387 0.95126 0.0
C1617 C 0.58832 0.75808 0.98682 0.0
C1618 C 0.5761 0.7431 0.97932 0.0
C1619 C 0.58293 0.72882 0.96818 0.0
C1620 C 0.55602 0.74202 0.98248 0.0
C1621 C 0.58163 0.77358 0.99912 0.0
C1622 C 0.54832 0.72732 0.99195 0.0
C1623 C 0.5291 0.72501 0.99323 0.0
C1624 C 0.51723 0.73726 0.98487 0.0
C1625 C 0.52505 0.75228 0.97581 0.0
C1626 C 0.54429 0.75463 0.97463 0.0
H1627 H 0.59336 0.78198 0.00684 0.0
H1628 H 0.57374 0.78293 0.99041 0.0
H1629 H 0.57216 0.76794 0.00926 0.0
H1630 H 0.55717 0.71736 0.99796 0.0
H1631 H 0.52349 0.71319 0.0001 0.0
H1632 H 0.59275 0.37749 0.30348 0.0
H1633 H 0.57912 0.40727 0.30011 0.0
H1634 H 0.57236 0.39585 0.2407 0.0
H1635 H 0.58581 0.36578 0.24393 0.0
H1636 H 0.59129 0.43679 0.28025 0.0
H1637 H 0.52017 0.40925 0.25466 0.0
H1638 H 0.53697 0.39493 0.26523 0.0
H1639 H 0.53872 0.40091 0.24159 0.0
C1640 C 0.58838 0.38126 0.28965 0.0
C1641 C 0.59032 0.36919 0.27395 0.0
C1642 C 0.58058 0.3983 0.28778 0.0
C1643 C 0.57449 0.40364 0.2702 0.0
C1644 C 0.57665 0.39182 0.25444 0.0
H1645 H 0.54989 0.51846 0.25333 0.0
H1646 H 0.56121 0.48728 0.24937 0.0
C1647 C 0.58447 0.3747 0.25628 0.0
C1648 C 0.56622 0.42178 0.26856 0.0
H1649 H 0.52601 0.44192 0.25643 0.0
C1650 C 0.57705 0.43794 0.27495 0.0
C1651 C 0.54757 0.42316 0.26186 0.0
C1652 C 0.53507 0.40616 0.25558 0.0
C1653 C 0.56972 0.45547 0.27495 0.0
C1654 C 0.55114 0.45691 0.268 0.0
C1655 C 0.5403 0.44076 0.26155 0.0
C1656 C 0.54256 0.47503 0.26825 0.0
C1657 C 0.58175 0.47222 0.28298 0.0
C1658 C 0.52766 0.47819 0.2794 0.0
C1659 C 0.52107 0.49595 0.28156 0.0
C1660 C 0.52931 0.51081 0.27262 0.0
C1661 C 0.54348 0.50732 0.2606 0.0
C1662 C 0.54998 0.48955 0.25836 0.0
H1663 H 0.59392 0.4682 0.29164 0.0
H1664 H 0.58703 0.48011 0.27147 0.0
H1665 H 0.57364 0.48161 0.29163 0.0
H1666 H 0.52171 0.46713 0.28709 0.0
H1667 H 0.51021 0.49827 0.29099 0.0
H1668 H 0.04166 0.29139 0.71954 0.0
H1669 H 0.03866 0.25819 0.70964 0.0
H1670 H 0.0133 0.24638 0.76052 0.0
H1671 H 0.0159 0.27955 0.77031 0.0
H1672 H 0.05413 0.22873 0.73049 0.0
H1673 H 0.97734 0.21976 0.71823 0.0
H1674 H 0.99003 0.24215 0.71861 0.0
H1675 H 0.98549 0.23179 0.74001 0.0
C1676 C 0.035 0.28177 0.72837 0.0
C1677 C 0.02858 0.28807 0.74548 0.0
C1678 C 0.0335 0.26282 0.7228 0.0
C1679 C 0.02548 0.24993 0.73422 0.0
C1680 C 0.01921 0.25617 0.75137 0.0
H1681 H 0.00466 0.13208 0.73788 0.0
H1682 H 0.00689 0.16598 0.74257 0.0
C1683 C 0.02081 0.27507 0.75698 0.0
C1684 C 0.02437 0.22982 0.72872 0.0
H1685 H 0.99363 0.19217 0.71931 0.0
C1686 C 0.04093 0.22072 0.72783 0.0
C1687 C 0.00711 0.2195 0.72531 0.0
C1688 C 0.98895 0.22877 0.72541 0.0
C1689 C 0.0407 0.20137 0.72431 0.0
C1690 C 0.02341 0.19097 0.72125 0.0
C1691 C 0.00685 0.20017 0.72173 0.0
C1692 C 0.02215 0.17045 0.71819 0.0
C1693 C 0.05891 0.19215 0.72463 0.0
C1694 C 0.02986 0.16173 0.70282 0.0
C1695 C 0.02862 0.14235 0.70011 0.0
C1696 C 0.01948 0.13136 0.71263 0.0
C1697 C 0.01163 0.14017 0.7279 0.0
C1698 C 0.01294 0.15952 0.73063 0.0
H1699 H 0.07049 0.2014 0.73153 0.0
H1700 H 0.05791 0.17907 0.73194 0.0
H1701 H 0.06243 0.18865 0.71014 0.0
H1702 H 0.03667 0.16993 0.69283 0.0
H1703 H 0.03454 0.13598 0.68806 0.0
H1704 H 0.37244 0.75496 0.21264 0.0
H1705 H 0.38585 0.78675 0.21902 0.0
H1706 H 0.43106 0.7666 0.25229 0.0
H1707 H 0.418 0.73469 0.24564 0.0
H1708 H 0.39421 0.80818 0.25144 0.0
H1709 H 0.45837 0.79598 0.21497 0.0
H1710 H 0.43844 0.77951 0.21302 0.0
H1711 H 0.45431 0.78083 0.2333 0.0
C1712 C 0.38518 0.75727 0.22141 0.0
C1713 C 0.39425 0.74226 0.22848 0.0
C1714 C 0.39283 0.77546 0.22503 0.0
C1715 C 0.40966 0.77899 0.23579 0.0
C1716 C 0.41832 0.76413 0.24355 0.0
H1717 H 0.47375 0.88411 0.267 0.0
H1718 H 0.46217 0.85138 0.26465 0.0
C1719 C 0.41075 0.74592 0.23984 0.0
C1720 C 0.41818 0.79822 0.2386 0.0
H1721 H 0.45664 0.82567 0.23027 0.0
C1722 C 0.40787 0.81199 0.24684 0.0
C1723 C 0.43601 0.80316 0.23255 0.0
C1724 C 0.44739 0.78915 0.22282 0.0
C1725 C 0.41488 0.83059 0.24916 0.0
C1726 C 0.43259 0.83551 0.24296 0.0
C1727 C 0.44308 0.82175 0.23504 0.0
C1728 C 0.44009 0.85507 0.24388 0.0
C1729 C 0.40333 0.84487 0.25821 0.0
C1730 C 0.43176 0.86777 0.23261 0.0
C1731 C 0.43844 0.88636 0.23373 0.0
C1732 C 0.45357 0.89263 0.24621 0.0
C1733 C 0.46218 0.87972 0.25715 0.0
C1734 C 0.45553 0.86106 0.25593 0.0
H1735 H 0.39193 0.83831 0.26572 0.0
H1736 H 0.41213 0.85452 0.26813 0.0
H1737 H 0.39702 0.8532 0.24736 0.0
H1738 H 0.42002 0.86328 0.22298 0.0
H1739 H 0.43174 0.89584 0.22482 0.0
H1740 H 0.96144 0.63738 0.7704 0.0
H1741 H 0.96226 0.60454 0.76037 0.0
H1742 H 0.99888 0.61887 0.71774 0.0
H1743 H 0.99832 0.65181 0.72776 0.0
H1744 H 0.95238 0.58634 0.72483 0.0
H1745 H 0.02689 0.58043 0.74679 0.0
H1746 H 0.01401 0.59975 0.75466 0.0
H1747 H 0.02205 0.5986 0.73161 0.0
C1748 C 0.96964 0.63359 0.75885 0.0
C1749 C 0.9799 0.64723 0.74996 0.0
C1750 C 0.97008 0.61481 0.75314 0.0
C1751 C 0.98085 0.60929 0.73851 0.0
C1752 C 0.99076 0.62285 0.72929 0.0
H1753 H 0.99965 0.49686 0.69384 0.0
H1754 H 0.00045 0.53079 0.69931 0.0
C1755 C 0.99032 0.64167 0.73497 0.0
C1756 C 0.98163 0.58928 0.73301 0.0
H1757 H 0.01059 0.55361 0.73224 0.0
C1758 C 0.96511 0.57918 0.72639 0.0
C1759 C 0.99829 0.58005 0.73498 0.0
C1760 C 0.01633 0.59017 0.74252 0.0
C1761 C 0.96476 0.56001 0.7218 0.0
C1762 C 0.98131 0.55067 0.72425 0.0
C1763 C 0.99794 0.56084 0.73042 0.0
C1764 C 0.9814 0.53021 0.72128 0.0
C1765 C 0.94668 0.54992 0.71433 0.0
C1766 C 0.97083 0.51871 0.73217 0.0
C1767 C 0.9704 0.49943 0.72915 0.0
C1768 C 0.98061 0.49123 0.71522 0.0
C1769 C 0.99168 0.50277 0.70471 0.0
C1770 C 0.99209 0.52212 0.70775 0.0
H1771 H 0.93687 0.55961 0.70839 0.0
H1772 H 0.94907 0.53897 0.70342 0.0
H1773 H 0.93997 0.54317 0.72582 0.0
H1774 H 0.96286 0.52468 0.74302 0.0
H1775 H 0.96208 0.49091 0.73777 0.0
H1776 H 0.72995 0.38383 0.64603 0.0
H1777 H 0.71949 0.39737 0.61731 0.0
H1778 H 0.66253 0.38955 0.63164 0.0
H1779 H 0.67288 0.37533 0.65998 0.0
H1780 H 0.66705 0.37804 0.59585 0.0
H1781 H 0.70088 0.44864 0.61068 0.0
H1782 H 0.71698 0.43084 0.61309 0.0
H1783 H 0.69831 0.43228 0.62843 0.0
C1784 C 0.7152 0.38508 0.6431 0.0
C1785 C 0.70228 0.37898 0.65556 0.0
C1786 C 0.70926 0.393 0.62679 0.0
C1787 C 0.69027 0.395 0.62261 0.0
C1788 C 0.67728 0.38852 0.63479 0.0
H1789 H 0.65172 0.45486 0.52629 0.0
H1790 H 0.65731 0.44574 0.55829 0.0
C1791 C 0.68324 0.38058 0.65113 0.0
C1792 C 0.68402 0.40286 0.60497 0.0
H1793 H 0.69093 0.44018 0.57876 0.0
C1794 C 0.67208 0.39172 0.59221 0.0
C1795 C 0.69033 0.42083 0.60035 0.0
C1796 C 0.70217 0.43392 0.61394 0.0
C1797 C 0.66703 0.39771 0.5746 0.0
C1798 C 0.67436 0.41516 0.56952 0.0
C1799 C 0.68553 0.4267 0.5826 0.0
C1800 C 0.6714 0.42116 0.55038 0.0
C1801 C 0.65402 0.3852 0.56151 0.0
C1802 C 0.67798 0.41067 0.53547 0.0
C1803 C 0.6749 0.41586 0.51732 0.0
C1804 C 0.66522 0.4317 0.51367 0.0
C1805 C 0.65921 0.4426 0.52868 0.0
C1806 C 0.66231 0.43736 0.54692 0.0
H1807 H 0.64546 0.37529 0.56916 0.0
H1808 H 0.64459 0.39343 0.55303 0.0
H1809 H 0.66229 0.37698 0.55194 0.0
H1810 H 0.68548 0.39841 0.53789 0.0
H1811 H 0.68012 0.40744 0.5061 0.0
H1812 H 0.78278 0.59383 0.29311 0.0
H1813 H 0.78555 0.57633 0.26334 0.0
H1814 H 0.77148 0.62437 0.23413 0.0
H1815 H 0.76881 0.64202 0.26389 0.0
H1816 H 0.75219 0.57469 0.232 0.0
H1817 H 0.82233 0.60101 0.21342 0.0
H1818 H 0.81636 0.59955 0.23726 0.0
H1819 H 0.80741 0.61738 0.22371 0.0
C1820 C 0.78079 0.60081 0.28036 0.0
C1821 C 0.77599 0.6194 0.28077 0.0
C1822 C 0.7822 0.59075 0.2634 0.0
C1823 C 0.77891 0.59917 0.24664 0.0
C1824 C 0.77427 0.61775 0.24699 0.0
H1825 H 0.75047 0.5664 0.13304 0.0
H1826 H 0.75296 0.57859 0.16549 0.0
C1827 C 0.77269 0.62777 0.26394 0.0
C1828 C 0.77905 0.58824 0.22871 0.0
H1829 H 0.80376 0.58262 0.19018 0.0
C1830 C 0.76352 0.57624 0.22291 0.0
C1831 C 0.79395 0.59024 0.21706 0.0
C1832 C 0.81107 0.60265 0.22309 0.0
C1833 C 0.7622 0.56667 0.20534 0.0
C1834 C 0.77673 0.5693 0.19331 0.0
C1835 C 0.79262 0.58072 0.19944 0.0
C1836 C 0.77505 0.56135 0.17388 0.0
C1837 C 0.74515 0.55402 0.19962 0.0
C1838 C 0.78676 0.54769 0.16787 0.0
C1839 C 0.78533 0.54064 0.1493 0.0
C1840 C 0.77239 0.54741 0.13645 0.0
C1841 C 0.76067 0.56104 0.1426 0.0
C1842 C 0.76199 0.56793 0.16113 0.0
H1843 H 0.73749 0.55005 0.21181 0.0
H1844 H 0.73565 0.56132 0.19031 0.0
H1845 H 0.74897 0.5412 0.19188 0.0
H1846 H 0.79698 0.54253 0.17753 0.0
H1847 H 0.79462 0.53025 0.14489 0.0
H1848 H 0.24025 0.02941 0.311 0.0
H1849 H 0.23631 0.02342 0.34352 0.0
H1850 H 0.24542 0.08208 0.35877 0.0
H1851 H 0.24913 0.08817 0.32614 0.0
H1852 H 0.26727 0.06025 0.37991 0.0
H1853 H 0.19339 0.0333 0.37665 0.0
H1854 H 0.2073 0.02179 0.36026 0.0
H1855 H 0.20315 0.04589 0.3583 0.0
C1856 C 0.24072 0.04109 0.32117 0.0
C1857 C 0.24443 0.05932 0.31597 0.0
C1858 C 0.23861 0.03764 0.33977 0.0
C1859 C 0.2402 0.05234 0.3535 0.0
C1860 C 0.24395 0.07055 0.34835 0.0
H1861 H 0.21769 0.05409 0.46972 0.0
H1862 H 0.21672 0.057 0.43609 0.0
C1863 C 0.24608 0.07401 0.32975 0.0
C1864 C 0.23931 0.04863 0.37338 0.0
H1865 H 0.21125 0.03034 0.405 0.0
C1866 C 0.25501 0.05375 0.38541 0.0
C1867 C 0.22325 0.04023 0.3805 0.0
C1868 C 0.20574 0.03512 0.36832 0.0
C1869 C 0.25516 0.05061 0.40438 0.0
C1870 C 0.23927 0.04182 0.41144 0.0
C1871 C 0.22348 0.03685 0.39946 0.0
C1872 C 0.23864 0.03847 0.43141 0.0
C1873 C 0.2722 0.05706 0.41679 0.0
C1874 C 0.2509 0.02665 0.43979 0.0
C1875 C 0.25158 0.02505 0.45901 0.0
C1876 C 0.23994 0.03521 0.47015 0.0
C1877 C 0.22703 0.04632 0.46154 0.0
C1878 C 0.22637 0.0479 0.44234 0.0
H1879 H 0.28142 0.06718 0.41009 0.0
H1880 H 0.26824 0.06361 0.43016 0.0
H1881 H 0.28027 0.0449 0.41992 0.0
H1882 H 0.26031 0.01905 0.43152 0.0
H1883 H 0.26174 0.01646 0.46521 0.0
H1884 H 0.24734 0.98662 0.72466 0.0
H1885 H 0.25903 0.98564 0.75711 0.0
H1886 H 0.31535 0.98856 0.74028 0.0
H1887 H 0.30373 0.98895 0.70772 0.0
H1888 H 0.28388 0.95988 0.77379 0.0
H1889 H 0.31251 0.03352 0.77952 0.0
H1890 H 0.29558 0.02461 0.76121 0.0
H1891 H 0.31937 0.01895 0.76036 0.0
C1892 C 0.26221 0.98696 0.72787 0.0
C1893 C 0.27466 0.98852 0.71375 0.0
C1894 C 0.26885 0.98641 0.74638 0.0
C1895 C 0.28803 0.98739 0.75107 0.0
C1896 C 0.3005 0.98823 0.73694 0.0
H1897 H 0.33936 0.97363 0.86212 0.0
H1898 H 0.33222 0.97138 0.82841 0.0
C1899 C 0.29386 0.98869 0.7184 0.0
C1900 C 0.29487 0.98784 0.77081 0.0
H1901 H 0.31611 0.01649 0.80618 0.0
C1902 C 0.29107 0.97218 0.78087 0.0
C1903 C 0.3041 0.00399 0.77995 0.0
C1904 C 0.30808 0.02132 0.76982 0.0
C1905 C 0.29616 0.9723 0.79995 0.0
C1906 C 0.30526 0.98849 0.80909 0.0
C1907 C 0.30921 0.00409 0.79902 0.0
C1908 C 0.30979 0.98986 0.82937 0.0
C1909 C 0.29132 0.95537 0.81036 0.0
C1910 C 0.29961 0.00111 0.84094 0.0
C1911 C 0.30349 0.00228 0.86016 0.0
C1912 C 0.31779 0.99236 0.86817 0.0
C1913 C 0.32811 0.98125 0.85644 0.0
C1914 C 0.32411 0.98 0.8372 0.0
H1915 H 0.28222 0.94481 0.80172 0.0
H1916 H 0.30428 0.94891 0.81482 0.0
H1917 H 0.2842 0.95939 0.82306 0.0
H1918 H 0.28846 0.00877 0.83509 0.0
H1919 H 0.29505 0.0107 0.86875 0.0
H1920 H 0.67338 0.67883 0.38573 0.0
H1921 H 0.64427 0.67039 0.39982 0.0
H1922 H 0.63307 0.72828 0.40651 0.0
H1923 H 0.66253 0.73689 0.39308 0.0
H1924 H 0.63186 0.68714 0.43821 0.0
H1925 H 0.58721 0.69772 0.37449 0.0
H1926 H 0.61133 0.6926 0.37353 0.0
H1927 H 0.60543 0.71525 0.38184 0.0
C1928 C 0.66502 0.68979 0.39072 0.0
C1929 C 0.67049 0.70855 0.38885 0.0
C1930 C 0.64831 0.68494 0.39855 0.0
C1931 C 0.63669 0.69875 0.4043 0.0
C1932 C 0.64195 0.71746 0.40219 0.0
H1933 H 0.53442 0.69094 0.46304 0.0
H1934 H 0.566 0.69983 0.45444 0.0
C1935 C 0.6587 0.72233 0.39448 0.0
C1936 C 0.61877 0.69357 0.412 0.0
H1937 H 0.57205 0.68926 0.40096 0.0
C1938 C 0.61874 0.68764 0.43015 0.0
C1939 C 0.6018 0.69421 0.40134 0.0
C1940 C 0.60127 0.70019 0.38167 0.0
C1941 C 0.60202 0.68231 0.43794 0.0
C1942 C 0.58506 0.68295 0.42725 0.0
C1943 C 0.58513 0.68889 0.40912 0.0
C1944 C 0.56705 0.67665 0.43418 0.0
C1945 C 0.60255 0.67564 0.45733 0.0
C1946 C 0.55743 0.66058 0.42582 0.0
C1947 C 0.53957 0.65545 0.43074 0.0
C1948 C 0.53087 0.66642 0.44398 0.0
C1949 C 0.54082 0.68215 0.4529 0.0
C1950 C 0.55881 0.68726 0.44798 0.0
H1951 H 0.61695 0.67372 0.46287 0.0
H1952 H 0.59637 0.68596 0.46674 0.0
H1953 H 0.59413 0.66227 0.45751 0.0
H1954 H 0.56362 0.65221 0.41517 0.0
H1955 H 0.53236 0.64309 0.42384 0.0
H1956 H 0.71658 0.26646 0.95029 0.0
H1957 H 0.74925 0.27821 0.95105 0.0
H1958 H 0.74999 0.28776 0.01063 0.0
H1959 H 0.71746 0.27595 0.00995 0.0
H1960 H 0.76627 0.31768 0.99268 0.0
H1961 H 0.79365 0.25019 0.9702 0.0
H1962 H 0.77547 0.25785 0.95495 0.0
H1963 H 0.77051 0.25194 0.97803 0.0
C1964 C 0.72375 0.27112 0.96352 0.0
C1965 C 0.71442 0.2707 0.98002 0.0
C1966 C 0.74237 0.27776 0.96394 0.0
C1967 C 0.75203 0.28377 0.98091 0.0
C1968 C 0.74273 0.28331 0.99739 0.0
H1969 H 0.86952 0.29837 0.00955 0.0
H1970 H 0.83632 0.2891 0.00622 0.0
C1971 C 0.72411 0.27674 0.99696 0.0
C1972 C 0.77188 0.29038 0.98161 0.0
H1973 H 0.81517 0.27635 0.97375 0.0
C1974 C 0.77698 0.30869 0.98848 0.0
C1975 C 0.78579 0.27852 0.97632 0.0
C1976 C 0.78118 0.25848 0.96961 0.0
C1977 C 0.79569 0.31548 0.99022 0.0
C1978 C 0.80957 0.30368 0.98472 0.0
C1979 C 0.80445 0.28538 0.97782 0.0
C1980 C 0.8296 0.30971 0.98679 0.0
C1981 C 0.80047 0.33502 0.99841 0.0
C1982 C 0.83683 0.3243 0.97684 0.0
C1983 C 0.85582 0.32972 0.9788 0.0
C1984 C 0.86788 0.32061 0.99072 0.0
C1985 C 0.86056 0.30589 0.00051 0.0
C1986 C 0.84162 0.30048 0.99853 0.0
H1987 H 0.78873 0.34077 0.00565 0.0
H1988 H 0.81283 0.33548 0.0084 0.0
H1989 H 0.80384 0.34414 0.9871 0.0
H1990 H 0.82782 0.33139 0.96747 0.0
H1991 H 0.86102 0.34115 0.97113 0.0
H1992 H 0.27042 0.77052 0.64319 0.0
H1993 H 0.24003 0.77007 0.62606 0.0
H1994 H 0.26632 0.79069 0.57865 0.0
H1995 H 0.29669 0.79122 0.59575 0.0
H1996 H 0.23484 0.80825 0.58543 0.0
H1997 H 0.22082 0.73201 0.58488 0.0
H1998 H 0.22547 0.74255 0.60796 0.0
H1999 H 0.24339 0.74328 0.5917 0.0
C2000 C 0.26967 0.77504 0.62915 0.0
C2001 C 0.28584 0.78125 0.62092 0.0
C2002 C 0.25234 0.77467 0.61934 0.0
C2003 C 0.25094 0.78009 0.60098 0.0
C2004 C 0.26707 0.78649 0.59281 0.0
H2005 H 0.14768 0.75251 0.53273 0.0
H2006 H 0.18074 0.75634 0.54283 0.0
C2007 C 0.28439 0.78698 0.60267 0.0
C2008 C 0.23264 0.7791 0.59033 0.0
H2009 H 0.19499 0.74961 0.57644 0.0
C2010 C 0.22618 0.7954 0.58331 0.0
C2011 C 0.22154 0.76225 0.58719 0.0
C2012 C 0.22823 0.74399 0.59315 0.0
C2013 C 0.20859 0.79545 0.57388 0.0
C2014 C 0.19701 0.77883 0.57179 0.0
C2015 C 0.20379 0.7624 0.57818 0.0
C2016 C 0.17748 0.77826 0.56396 0.0
C2017 C 0.20264 0.81329 0.56621 0.0
C2018 C 0.16471 0.78951 0.57225 0.0
C2019 C 0.14589 0.78752 0.56635 0.0
C2020 C 0.13936 0.77403 0.55221 0.0
C2021 C 0.15226 0.76318 0.54349 0.0
C2022 C 0.17114 0.76526 0.54935 0.0
H2023 H 0.21485 0.82249 0.56324 0.0
H2024 H 0.19355 0.81055 0.55325 0.0
H2025 H 0.19481 0.82088 0.57667 0.0
H2026 H 0.16916 0.79936 0.5838 0.0
H2027 H 0.13634 0.79622 0.57322 0.0
H2028 H 0.32999 0.27909 0.06603 0.0
H2029 H 0.36215 0.27451 0.05875 0.0
H2030 H 0.3491 0.2154 0.05064 0.0
H2031 H 0.31704 0.21985 0.05833 0.0
H2032 H 0.38782 0.25254 0.07683 0.0
H2033 H 0.37353 0.22899 0.00232 0.0
H2034 H 0.35687 0.24077 0.01565 0.0
H2035 H 0.36017 0.21662 0.01839 0.0
C2036 C 0.33399 0.26512 0.06268 0.0
C2037 C 0.32088 0.24988 0.06219 0.0
C2038 C 0.35232 0.26254 0.05848 0.0
C2039 C 0.35787 0.24467 0.05374 0.0
C2040 C 0.34494 0.22936 0.05371 0.0
H2041 H 0.47178 0.21256 0.0523 0.0
H2042 H 0.43859 0.21405 0.05694 0.0
C2043 C 0.3266 0.23194 0.05796 0.0
C2044 C 0.37735 0.24208 0.04941 0.0
H2045 H 0.40453 0.22779 0.01485 0.0
C2046 C 0.39149 0.24712 0.0633 0.0
C2047 C 0.38205 0.23516 0.03167 0.0
C2048 C 0.36741 0.2302 0.01606 0.0
C2049 C 0.41024 0.24528 0.05998 0.0
C2050 C 0.41492 0.23804 0.04236 0.0
C2051 C 0.40082 0.23317 0.02839 0.0
C2052 C 0.4345 0.23588 0.03818 0.0
C2053 C 0.42495 0.25138 0.07523 0.0
C2054 C 0.44297 0.24723 0.02561 0.0
C2055 C 0.46194 0.24648 0.02298 0.0
C2056 C 0.47272 0.23428 0.03284 0.0
C2057 C 0.46393 0.22232 0.04476 0.0
C2058 C 0.44499 0.22312 0.0474 0.0
H2059 H 0.41934 0.26007 0.08655 0.0
H2060 H 0.43045 0.23892 0.08133 0.0
H2061 H 0.43673 0.25939 0.06961 0.0
H2062 H 0.43505 0.25716 0.01836 0.0
H2063 H 0.46831 0.25599 0.01385 0.0
H2064 H 0.39667 0.65241 0.73954 0.0
H2065 H 0.40793 0.6225 0.72911 0.0
H2066 H 0.39503 0.63417 0.67205 0.0
H2067 H 0.38298 0.66376 0.6825 0.0
H2068 H 0.38281 0.59928 0.6795 0.0
H2069 H 0.45636 0.61225 0.70569 0.0
H2070 H 0.44056 0.6165 0.72348 0.0
H2071 H 0.44064 0.63066 0.70381 0.0
C2072 C 0.39631 0.64861 0.72477 0.0
C2073 C 0.38948 0.66064 0.71179 0.0
C2074 C 0.40294 0.63163 0.71882 0.0
C2075 C 0.40286 0.62635 0.69978 0.0
C2076 C 0.3956 0.63815 0.68679 0.0
H2077 H 0.45378 0.52476 0.65985 0.0
H2078 H 0.44679 0.55751 0.66474 0.0
C2079 C 0.38894 0.65515 0.69275 0.0
C2080 C 0.40932 0.60802 0.69361 0.0
H2081 H 0.4458 0.5803 0.69823 0.0
C2082 C 0.39666 0.59521 0.68339 0.0
C2083 C 0.42751 0.60282 0.6984 0.0
C2084 C 0.44211 0.61635 0.70828 0.0
C2085 C 0.40138 0.57705 0.67866 0.0
C2086 C 0.41912 0.57148 0.68457 0.0
C2087 C 0.43212 0.58454 0.69394 0.0
C2088 C 0.42395 0.55189 0.68206 0.0
C2089 C 0.38725 0.56391 0.66754 0.0
C2090 C 0.4138 0.53804 0.69064 0.0
C2091 C 0.41779 0.51946 0.68797 0.0
C2092 C 0.43208 0.51432 0.67669 0.0
C2093 C 0.4427 0.5283 0.66862 0.0
C2094 C 0.43868 0.54697 0.67133 0.0
H2095 H 0.37685 0.57156 0.65959 0.0
H2096 H 0.39407 0.55454 0.65767 0.0
H2097 H 0.37969 0.55522 0.67716 0.0
H2098 H 0.4027 0.54161 0.69939 0.0
H2099 H 0.40964 0.50908 0.69475 0.0
H2100 H 0.9751 0.72489 0.24525 0.0
H2101 H 0.97464 0.75784 0.25536 0.0
H2102 H 0.97922 0.74399 0.31263 0.0
H2103 H 0.97917 0.71096 0.3026 0.0
H2104 H 0.9503 0.77654 0.27966 0.0
H2105 H 0.02429 0.78184 0.30707 0.0
H2106 H 0.0146 0.76276 0.29144 0.0
H2107 H 0.00964 0.76359 0.31552 0.0
C2108 C 0.97589 0.72887 0.26 0.0
C2109 C 0.97782 0.71544 0.27315 0.0
C2110 C 0.97564 0.74767 0.26574 0.0
C2111 C 0.97729 0.75333 0.28472 0.0
C2112 C 0.9784 0.7399 0.29791 0.0
H2113 H 0.96461 0.86535 0.33323 0.0
H2114 H 0.96135 0.83176 0.32557 0.0
C2115 C 0.97859 0.72108 0.29217 0.0
C2116 C 0.97824 0.77336 0.29061 0.0
H2117 H 0.0076 0.80877 0.31068 0.0
C2118 C 0.96277 0.78361 0.28653 0.0
C2119 C 0.99462 0.78249 0.2994 0.0
C2120 C 0.01182 0.7722 0.30353 0.0
C2121 C 0.96325 0.80282 0.29104 0.0
C2122 C 0.97961 0.81192 0.29989 0.0
C2123 C 0.99506 0.80167 0.30398 0.0
C2124 C 0.98123 0.83223 0.30436 0.0
C2125 C 0.94648 0.81337 0.28591 0.0
C2126 C 0.99361 0.84351 0.29507 0.0
C2127 C 0.99541 0.86268 0.29929 0.0
C2128 C 0.98499 0.87092 0.31305 0.0
C2129 C 0.97263 0.85951 0.32238 0.0
C2130 C 0.97078 0.84032 0.31807 0.0
H2131 H 0.93623 0.80493 0.27628 0.0
H2132 H 0.93953 0.81739 0.2987 0.0
H2133 H 0.95073 0.82631 0.27929 0.0
H2134 H 0.00178 0.83748 0.28443 0.0
H2135 H 0.00484 0.87107 0.29163 0.0
H2136 H 0.60004 0.29518 0.79109 0.0
H2137 H 0.58432 0.26428 0.7916 0.0
H2138 H 0.63419 0.23937 0.77544 0.0
H2139 H 0.64998 0.27032 0.77489 0.0
H2140 H 0.60352 0.2256 0.75425 0.0
H2141 H 0.58915 0.22464 0.82891 0.0
H2142 H 0.58209 0.24487 0.81778 0.0
H2143 H 0.60635 0.24062 0.82042 0.0
C2144 C 0.60783 0.2831 0.78822 0.0
C2145 C 0.6264 0.28512 0.78346 0.0
C2146 C 0.5988 0.26544 0.78844 0.0
C2147 C 0.60819 0.24948 0.78395 0.0
C2148 C 0.62672 0.25149 0.77912 0.0
H2149 H 0.57766 0.13434 0.79826 0.0
H2150 H 0.58993 0.16672 0.80123 0.0
C2151 C 0.63572 0.26915 0.77881 0.0
C2152 C 0.5984 0.23075 0.7831 0.0
H2153 H 0.57523 0.19987 0.80889 0.0
C2154 C 0.59734 0.21997 0.7662 0.0
C2155 C 0.59048 0.22338 0.79875 0.0
C2156 C 0.59216 0.23387 0.81755 0.0
C2157 C 0.58864 0.20199 0.76449 0.0
C2158 C 0.5803 0.19477 0.78001 0.0
C2159 C 0.58137 0.20555 0.79694 0.0
C2160 C 0.5715 0.17561 0.77922 0.0
C2161 C 0.58901 0.1907 0.74624 0.0
C2162 C 0.55662 0.16997 0.76628 0.0
C2163 C 0.54975 0.15138 0.76434 0.0
C2164 C 0.5575 0.13813 0.77549 0.0
C2165 C 0.57164 0.14411 0.78919 0.0
C2166 C 0.57858 0.16264 0.79101 0.0
H2167 H 0.59988 0.19635 0.73749 0.0
H2168 H 0.59159 0.17598 0.74853 0.0
H2169 H 0.57536 0.191 0.73836 0.0
H2170 H 0.55065 0.17985 0.75732 0.0
H2171 H 0.5389 0.14727 0.75361 0.0
H2172 H 0.02462 0.30665 0.24048 0.0
H2173 H 0.01712 0.33876 0.23634 0.0
H2174 H 0.0746 0.35717 0.24952 0.0
H2175 H 0.08223 0.32498 0.25345 0.0
H2176 H 0.04988 0.37663 0.26979 0.0
H2177 H 0.02819 0.37292 0.1944 0.0
H2178 H 0.01726 0.3554 0.20746 0.0
H2179 H 0.04185 0.35569 0.20483 0.0
C2180 C 0.03577 0.31745 0.24185 0.0
C2181 C 0.05412 0.31326 0.24674 0.0
C2182 C 0.03144 0.33581 0.23961 0.0
C2183 C 0.04537 0.3503 0.24226 0.0
C2184 C 0.06368 0.34615 0.24723 0.0
H2185 H 0.04544 0.46587 0.21918 0.0
H2186 H 0.04892 0.43237 0.21884 0.0
C2187 C 0.06802 0.3278 0.24949 0.0
C2188 C 0.04069 0.3699 0.24113 0.0
H2189 H 0.02347 0.40094 0.21176 0.0
C2190 C 0.0441 0.38195 0.25711 0.0
C2191 C 0.03324 0.37679 0.22453 0.0
C2192 C 0.03003 0.36461 0.20676 0.0
C2193 C 0.0403 0.40075 0.25697 0.0
C2194 C 0.03256 0.40759 0.24046 0.0
C2195 C 0.02918 0.39556 0.22444 0.0
C2196 C 0.0289 0.42746 0.23939 0.0
C2197 C 0.04507 0.41324 0.27434 0.0
C2198 C 0.01608 0.43567 0.25064 0.0
C2199 C 0.01415 0.45483 0.25097 0.0
C2200 C 0.02499 0.46608 0.23998 0.0
C2201 C 0.03713 0.45762 0.22803 0.0
C2202 C 0.03904 0.43848 0.22772 0.0
H2203 H 0.05464 0.40682 0.28435 0.0
H2204 H 0.05163 0.4268 0.27091 0.0
H2205 H 0.03213 0.41594 0.28132 0.0
H2206 H 0.00791 0.42733 0.25954 0.0
H2207 H 0.00475 0.46093 0.26038 0.0
H2208 H 0.35094 0.61812 0.32561 0.0
H2209 H 0.38102 0.60694 0.31862 0.0
H2210 H 0.35698 0.57989 0.26709 0.0
H2211 H 0.32655 0.59099 0.27405 0.0
H2212 H 0.38758 0.56814 0.31287 0.0
H2213 H 0.40517 0.60974 0.25334 0.0
H2214 H 0.38589 0.61448 0.26733 0.0
H2215 H 0.38381 0.59542 0.2501 0.0
C2216 C 0.35202 0.60998 0.31267 0.0
C2217 C 0.3363 0.60535 0.30044 0.0
C2218 C 0.36926 0.60357 0.3087 0.0
C2219 C 0.37122 0.59258 0.29235 0.0
C2220 C 0.35575 0.58847 0.27974 0.0
H2221 H 0.47319 0.54424 0.25778 0.0
H2222 H 0.44077 0.55233 0.259 0.0
C2223 C 0.3384 0.59482 0.28374 0.0
C2224 C 0.3893 0.58472 0.28917 0.0
H2225 H 0.42691 0.58827 0.26286 0.0
C2226 C 0.39612 0.5724 0.30184 0.0
C2227 C 0.40032 0.59023 0.27469 0.0
C2228 C 0.39355 0.6033 0.26064 0.0
C2229 C 0.41393 0.56584 0.30075 0.0
C2230 C 0.4253 0.572 0.2868 0.0
C2231 C 0.4182 0.58373 0.27365 0.0
C2232 C 0.44485 0.56698 0.2861 0.0
C2233 C 0.42051 0.55254 0.31469 0.0
C2234 C 0.45789 0.57269 0.30086 0.0
C2235 C 0.47637 0.56815 0.30019 0.0
C2236 C 0.48216 0.55775 0.28475 0.0
C2237 C 0.46908 0.55209 0.26995 0.0
C2238 C 0.4506 0.55677 0.27057 0.0
H2239 H 0.40866 0.5453 0.321 0.0
H2240 H 0.42902 0.54196 0.30815 0.0
H2241 H 0.42925 0.56042 0.32605 0.0
H2242 H 0.45379 0.58073 0.3129 0.0
H2243 H 0.4861 0.57259 0.31185 0.0
H2244 H 0.1488 0.36722 0.67383 0.0
H2245 H 0.12045 0.38421 0.67309 0.0
H2246 H 0.09712 0.34801 0.71219 0.0
H2247 H 0.12543 0.33113 0.71325 0.0
H2248 H 0.08201 0.37372 0.66531 0.0
H2249 H 0.09773 0.40008 0.73873 0.0
H2250 H 0.11461 0.38906 0.7251 0.0
H2251 H 0.09685 0.37521 0.73528 0.0
C2252 C 0.13752 0.36268 0.68205 0.0
C2253 C 0.13946 0.34797 0.6938 0.0
C2254 C 0.12135 0.37243 0.68163 0.0
C2255 C 0.10691 0.36762 0.69292 0.0
C2256 C 0.10831 0.35219 0.7037 0.0
H2257 H 0.00278 0.40959 0.7213 0.0
H2258 H 0.03028 0.39206 0.71704 0.0
C2259 C 0.12446 0.3425 0.7042 0.0
C2260 C 0.09079 0.37927 0.69424 0.0
H2261 H 0.06811 0.40596 0.72505 0.0
C2262 C 0.079 0.38088 0.67832 0.0
C2263 C 0.08704 0.38871 0.71121 0.0
C2264 C 0.09981 0.38837 0.72852 0.0
C2265 C 0.06315 0.3912 0.6791 0.0
C2266 C 0.05919 0.40026 0.69619 0.0
C2267 C 0.07116 0.3989 0.712 0.0
C2268 C 0.0424 0.41079 0.69817 0.0
C2269 C 0.05046 0.39192 0.66182 0.0
C2270 C 0.04023 0.42724 0.68911 0.0
C2271 C 0.0245 0.43731 0.69151 0.0
C2272 C 0.01068 0.43105 0.70299 0.0
C2273 C 0.01302 0.41462 0.71214 0.0
C2274 C 0.02876 0.40464 0.7098 0.0
H2275 H 0.05347 0.38132 0.65079 0.0
H2276 H 0.03568 0.38974 0.66507 0.0
H2277 H 0.05234 0.40585 0.65624 0.0
H2278 H 0.05078 0.43237 0.68032 0.0
H2279 H 0.02304 0.44986 0.68422 0.0
H2280 H 0.84591 0.97997 0.72493 0.0
H2281 H 0.87813 0.99285 0.73003 0.0
H2282 H 0.86179 0.04509 0.71051 0.0
H2283 H 0.82967 0.03253 0.70572 0.0
H2284 H 0.89966 0.00514 0.70299 0.0
H2285 H 0.89441 0.06229 0.75651 0.0
H2286 H 0.87628 0.04401 0.75152 0.0
H2287 H 0.87777 0.06358 0.73724 0.0
C2288 C 0.84913 0.99432 0.72208 0.0
C2289 C 0.83522 0.00522 0.71489 0.0
C2290 C 0.86755 0.00164 0.72497 0.0
C2291 C 0.87234 0.02 0.72087 0.0
C2292 C 0.85838 0.03103 0.71419 0.0
H2293 H 0.96479 0.09058 0.69725 0.0
H2294 H 0.93491 0.07437 0.70187 0.0
C2295 C 0.84 0.02376 0.71133 0.0
C2296 C 0.89207 0.02722 0.72189 0.0
H2297 H 0.92109 0.06456 0.738 0.0
C2298 C 0.90447 0.01793 0.71093 0.0
C2299 C 0.89832 0.0439 0.73228 0.0
C2300 C 0.88603 0.05391 0.7452 0.0
C2301 C 0.92265 0.02544 0.70929 0.0
C2302 C 0.92856 0.04257 0.71895 0.0
C2303 C 0.91643 0.05148 0.7305 0.0
C2304 C 0.94683 0.05211 0.71631 0.0
C2305 C 0.93515 0.01548 0.69655 0.0
C2306 C 0.96341 0.04493 0.72294 0.0
C2307 C 0.98055 0.05425 0.72046 0.0
C2308 C 0.98137 0.07093 0.71133 0.0
C2309 C 0.96467 0.07794 0.7046 0.0
C2310 C 0.94758 0.06867 0.70715 0.0
H2311 H 0.92759 0.00371 0.68808 0.0
H2312 H 0.9414 0.02529 0.68705 0.0
H2313 H 0.94666 0.00993 0.70497 0.0
H2314 H 0.96306 0.03225 0.73023 0.0
H2315 H 0.99313 0.04861 0.72603 0.0
H2316 H 0.65123 0.99508 0.31183 0.0
H2317 H 0.61903 0.98256 0.30583 0.0
H2318 H 0.62461 0.98402 0.24683 0.0
H2319 H 0.65684 0.99646 0.25264 0.0
H2320 H 0.58979 0.99935 0.28599 0.0
H2321 H 0.60374 0.93025 0.25358 0.0
H2322 H 0.62133 0.94486 0.26728 0.0
H2323 H 0.61512 0.94981 0.24371 0.0
C2324 C 0.64565 0.99267 0.29757 0.0
C2325 C 0.65663 0.99673 0.28271 0.0
C2326 C 0.62725 0.98553 0.29418 0.0
C2327 C 0.61955 0.98217 0.2759 0.0
C2328 C 0.63041 0.98623 0.26103 0.0
H2329 H 0.50317 0.9666 0.23762 0.0
H2330 H 0.53593 0.97733 0.24337 0.0
C2331 C 0.6488 0.99343 0.2644 0.0
C2332 C 0.59993 0.97497 0.2724 0.0
H2333 H 0.57228 0.9382 0.25243 0.0
C2334 C 0.58594 0.98597 0.27869 0.0
C2335 C 0.59502 0.95744 0.26303 0.0
C2336 C 0.60956 0.94479 0.25662 0.0
C2337 C 0.56709 0.98001 0.27559 0.0
C2338 C 0.56215 0.96269 0.2658 0.0
C2339 C 0.57615 0.95155 0.25979 0.0
C2340 C 0.54249 0.95586 0.26188 0.0
C2341 C 0.55259 0.99218 0.28299 0.0
C2342 C 0.53548 0.94 0.27005 0.0
C2343 C 0.51676 0.93388 0.26688 0.0
C2344 C 0.50473 0.94346 0.25536 0.0
C2345 C 0.51196 0.95911 0.24684 0.0
C2346 C 0.53067 0.96524 0.25007 0.0
H2347 H 0.55871 0.00296 0.29362 0.0
H2348 H 0.546 0.99933 0.27137 0.0
H2349 H 0.54152 0.98371 0.28924 0.0
H2350 H 0.54443 0.93257 0.27919 0.0
H2351 H 0.51161 0.92191 0.27381 0.0
H2352 H 0.27782 0.34518 0.60107 0.0
H2353 H 0.2729 0.37538 0.58834 0.0
H2354 H 0.33033 0.39303 0.603 0.0
H2355 H 0.33554 0.36287 0.61491 0.0
H2356 H 0.27717 0.41097 0.60456 0.0
H2357 H 0.32545 0.40309 0.54843 0.0
H2358 H 0.31748 0.3838 0.56128 0.0
H2359 H 0.33649 0.39954 0.57073 0.0
C2360 C 0.28939 0.3555 0.60151 0.0
C2361 C 0.30711 0.35157 0.60886 0.0
C2362 C 0.28657 0.37271 0.59421 0.0
C2363 C 0.30139 0.38623 0.59424 0.0
C2364 C 0.31886 0.38257 0.60224 0.0
H2365 H 0.32531 0.49929 0.57255 0.0
H2366 H 0.32395 0.46738 0.58216 0.0
C2367 C 0.32175 0.36536 0.60926 0.0
C2368 C 0.29873 0.4044 0.58634 0.0
H2369 H 0.31716 0.43414 0.55634 0.0
C2370 C 0.28579 0.41597 0.59391 0.0
C2371 C 0.30973 0.4108 0.57218 0.0
C2372 C 0.32292 0.39857 0.56254 0.0
C2373 C 0.28438 0.4342 0.58847 0.0
C2374 C 0.29603 0.44083 0.57496 0.0
C2375 C 0.30839 0.42902 0.56685 0.0
C2376 C 0.29627 0.46025 0.56963 0.0
C2377 C 0.27103 0.44651 0.59771 0.0
C2378 C 0.28115 0.46672 0.55935 0.0
C2379 C 0.28187 0.48497 0.55384 0.0
C2380 C 0.29773 0.49701 0.55858 0.0
C2381 C 0.31281 0.49044 0.56893 0.0
C2382 C 0.3121 0.4722 0.57433 0.0
H2383 H 0.26503 0.44018 0.60983 0.0
H2384 H 0.27814 0.4602 0.60242 0.0
H2385 H 0.25947 0.44901 0.58751 0.0
H2386 H 0.2689 0.45759 0.55543 0.0
H2387 H 0.27002 0.48969 0.54596 0.0
H2388 H 0.25599 0.66169 0.97414 0.0
H2389 H 0.24716 0.62958 0.96264 0.0
H2390 H 0.29085 0.61025 0.9985 0.0
H2391 H 0.29972 0.64221 0.01017 0.0
H2392 H 0.27017 0.60419 0.94489 0.0
H2393 H 0.24436 0.57795 0.00986 0.0
H2394 H 0.24745 0.60243 0.00623 0.0
H2395 H 0.26715 0.58959 0.01265 0.0
C2396 C 0.26365 0.6506 0.97968 0.0
C2397 C 0.27854 0.65451 0.99311 0.0
C2398 C 0.25859 0.63228 0.97307 0.0
C2399 C 0.2682 0.61756 0.9799 0.0
C2400 C 0.28304 0.6214 0.99331 0.0
H2401 H 0.26845 0.49908 0.95951 0.0
H2402 H 0.27404 0.53187 0.97002 0.0
C2403 C 0.28814 0.63969 -0.00011 0.0
C2404 C 0.26321 0.59821 0.97256 0.0
H2405 H 0.249 0.55527 0.98559 0.0
C2406 C 0.26538 0.5935 0.95371 0.0
C2407 C 0.25697 0.58435 0.98415 0.0
C2408 C 0.25367 0.58881 0.00431 0.0
C2409 C 0.26206 0.5751 0.94626 0.0
C2410 C 0.2561 0.56118 0.95792 0.0
C2411 C 0.25363 0.56598 0.9767 0.0
C2412 C 0.25281 0.54143 0.9511 0.0
C2413 C 0.26555 0.57062 0.92614 0.0
C2414 C 0.23895 0.53594 0.93704 0.0
C2415 C 0.2357 0.51719 0.93102 0.0
C2416 C 0.24615 0.5036 0.93909 0.0
C2417 C 0.26002 0.50918 0.95317 0.0
C2418 C 0.26328 0.52791 0.95914 0.0
H2419 H 0.27423 0.58185 0.92038 0.0
H2420 H 0.27255 0.55741 0.92445 0.0
H2421 H 0.25205 0.56896 0.91781 0.0
H2422 H 0.23046 0.54611 0.93092 0.0
H2423 H 0.22474 0.51328 0.92034 0.0
H2424 H 0.71689 0.13223 0.33373 0.0
H2425 H 0.71586 0.10314 0.34929 0.0
H2426 H 0.67502 0.12395 0.38499 0.0
H2427 H 0.67573 0.15304 0.3693 0.0
H2428 H 0.72583 0.10181 0.38672 0.0
H2429 H 0.65394 0.0709 0.37045 0.0
H2430 H 0.66413 0.089 0.35735 0.0
H2431 H 0.65538 0.09466 0.37962 0.0
C2432 C 0.70739 0.13049 0.34462 0.0
C2433 C 0.69646 0.14499 0.35033 0.0
C2434 C 0.70684 0.11386 0.35352 0.0
C2435 C 0.69531 0.11135 0.36823 0.0
C2436 C 0.68377 0.12546 0.37345 0.0
H2437 H 0.68886 0.02633 0.44898 0.0
H2438 H 0.68499 0.05437 0.43195 0.0
C2439 C 0.68426 0.14211 0.3645 0.0
C2440 C 0.69682 0.09478 0.37924 0.0
H2441 H 0.67238 0.05674 0.39332 0.0
C2442 C 0.71416 0.09191 0.38809 0.0
C2443 C 0.68152 0.08202 0.38116 0.0
C2444 C 0.66271 0.08415 0.37153 0.0
C2445 C 0.71664 0.07663 0.39883 0.0
C2446 C 0.70143 0.06372 0.40055 0.0
C2447 C 0.684 0.06669 0.39194 0.0
C2448 C 0.70358 0.04676 0.41078 0.0
C2449 C 0.73548 0.07452 0.40844 0.0
C2450 C 0.71518 0.0332 0.40439 0.0
C2451 C 0.71747 0.01728 0.41409 0.0
C2452 C 0.70813 0.01456 0.43033 0.0
C2453 C 0.6964 0.02814 0.43664 0.0
C2454 C 0.69407 0.04407 0.42687 0.0
H2455 H 0.74418 0.08782 0.40966 0.0
H2456 H 0.7341 0.06952 0.42256 0.0
H2457 H 0.74289 0.06414 0.40025 0.0
H2458 H 0.72247 0.03494 0.39187 0.0
H2459 H 0.72673 0.00718 0.40896 0.0
H2460 H 0.66188 0.82585 0.02104 0.0
H2461 H 0.65902 0.85705 0.03537 0.0
H2462 H 0.68865 0.88079 0.99151 0.0
H2463 H 0.69148 0.84971 0.977 0.0
H2464 H 0.68902 0.88272 0.04773 0.0
H2465 H 0.64249 0.91147 0.99414 0.0
H2466 H 0.6451 0.88685 0.99529 0.0
H2467 H 0.66255 0.90127 0.98536 0.0
C2468 C 0.66764 0.83771 0.01433 0.0
C2469 C 0.67691 0.83529 0.99787 0.0
C2470 C 0.66599 0.85551 0.02255 0.0
C2471 C 0.67342 0.87121 0.01437 0.0
C2472 C 0.68251 0.86887 0.99785 0.0
H2473 H 0.68834 0.98913 0.04439 0.0
H2474 H 0.68693 0.95787 0.02902 0.0
C2475 C 0.68421 0.85108 0.98964 0.0
C2476 C 0.67261 0.88996 0.02367 0.0
H2477 H 0.65665 0.9329 0.01788 0.0
C2478 C 0.68182 0.89367 0.0413 0.0
C2479 C 0.66329 0.9042 0.01516 0.0
C2480 C 0.65265 0.90077 0.99651 0.0
C2481 C 0.68234 0.91139 0.05048 0.0
C2482 C 0.67306 0.92567 0.04196 0.0
C2483 C 0.66374 0.92193 0.02437 0.0
C2484 C 0.67312 0.94465 0.05097 0.0
C2485 C 0.6933 0.91481 0.06897 0.0
C2486 C 0.66545 0.94762 0.06822 0.0
C2487 C 0.66624 0.96544 0.07702 0.0
C2488 C 0.67455 0.98066 0.06866 0.0
C2489 C 0.68173 0.97772 0.05113 0.0
C2490 C 0.681 0.95987 0.04236 0.0
H2491 H 0.70338 0.90402 0.07125 0.0
H2492 H 0.70102 0.92865 0.07002 0.0
H2493 H 0.68359 0.91448 0.0803 0.0
H2494 H 0.65891 0.93613 0.07489 0.0
H2495 H 0.6603 0.96733 0.09037 0.0
H2496 H 0.57739 0.33544 0.36188 0.0
H2497 H 0.57188 0.3285 0.39372 0.0
H2498 H 0.59979 0.27768 0.38672 0.0
H2499 H 0.60555 0.28459 0.3546 0.0
H2500 H 0.56501 0.2744 0.40448 0.0
H2501 H 0.61289 0.3317 0.43647 0.0
H2502 H 0.59524 0.34008 0.42116 0.0
H2503 H 0.6118 0.32502 0.41191 0.0
C2504 C 0.58234 0.32274 0.36702 0.0
C2505 C 0.59193 0.31057 0.35569 0.0
C2506 C 0.57925 0.31885 0.38527 0.0
C2507 C 0.58568 0.30274 0.39262 0.0
C2508 C 0.59486 0.29027 0.38129 0.0
H2509 H 0.58261 0.28546 0.51146 0.0
H2510 H 0.59229 0.28436 0.47953 0.0
C2511 C 0.59809 0.29421 0.36297 0.0
C2512 C 0.58264 0.29914 0.41218 0.0
H2513 H 0.59054 0.31855 0.45644 0.0
C2514 C 0.5708 0.28386 0.4159 0.0
C2515 C 0.59027 0.3115 0.42702 0.0
C2516 C 0.6034 0.3279 0.42396 0.0
C2517 C 0.56567 0.28118 0.43404 0.0
C2518 C 0.57267 0.29402 0.44869 0.0
C2519 C 0.58518 0.30876 0.44511 0.0
C2520 C 0.56633 0.29316 0.46767 0.0
C2521 C 0.5525 0.26492 0.43746 0.0
C2522 C 0.54856 0.29857 0.47145 0.0
C2523 C 0.54311 0.2996 0.48968 0.0
C2524 C 0.55531 0.29515 0.50447 0.0
C2525 C 0.57298 0.2893 0.50048 0.0
C2526 C 0.57848 0.28847 0.48225 0.0
H2527 H 0.55092 0.2545 0.4254 0.0
H2528 H 0.55746 0.25803 0.45 0.0
H2529 H 0.53863 0.27 0.44002 0.0
H2530 H 0.53913 0.30253 0.46035 0.0
H2531 H 0.52953 0.30445 0.49223 0.0
H2532 H 0.97478 0.26303 0.6655 0.0
H2533 H 0.96368 0.25439 0.63323 0.0
H2534 H 0.99886 0.29904 0.61471 0.0
H2535 H 0.0101 0.30776 0.64684 0.0
H2536 H 0.94581 0.27754 0.60751 0.0
H2537 H 0.01177 0.25265 0.58266 0.0
H2538 H 0.0075 0.25541 0.60703 0.0
H2539 H 0.01392 0.27534 0.59454 0.0
C2540 C 0.98023 0.27097 0.65456 0.0
C2541 C 0.99337 0.28606 0.65874 0.0
C2542 C 0.97385 0.26601 0.63615 0.0
C2543 C 0.98063 0.27593 0.6216 0.0
C2544 C 0.9937 0.29101 0.62572 0.0
H2545 H 0.96242 0.27484 0.50263 0.0
H2546 H 0.97253 0.28073 0.5355 0.0
C2547 C 3e-05 0.29603 0.64411 0.0
C2548 C 0.9737 0.27087 0.60213 0.0
H2549 H 0.98769 0.25653 0.5596 0.0
C2550 C 0.95489 0.2728 0.59703 0.0
C2551 C 0.98563 0.26472 0.58855 0.0
C2552 C 0.0058 0.26173 0.59344 0.0
C2553 C 0.94779 0.26928 0.57853 0.0
C2554 C 0.95979 0.26333 0.56489 0.0
C2555 C 0.97854 0.26114 0.57008 0.0
C2556 C 0.95332 0.25976 0.54505 0.0
C2557 C 0.92769 0.27256 0.57365 0.0
C2558 C 0.93926 0.24591 0.5395 0.0
C2559 C 0.93345 0.24251 0.52071 0.0
C2560 C 0.94176 0.25277 0.50712 0.0
C2561 C 0.9559 0.26656 0.51274 0.0
C2562 C 0.96164 0.26999 0.53151 0.0
H2563 H 0.92173 0.28143 0.5846 0.0
H2564 H 0.92613 0.27926 0.56025 0.0
H2565 H 0.91944 0.25902 0.57219 0.0
H2566 H 0.93294 0.23757 0.54968 0.0
H2567 H 0.92271 0.23161 0.51677 0.0
H2568 H 0.36821 0.68741 0.13596 0.0
H2569 H 0.38102 0.69173 0.10583 0.0
H2570 H 0.43365 0.67366 0.12677 0.0
H2571 H 0.42105 0.66938 0.15703 0.0
H2572 H 0.41504 0.71746 0.10457 0.0
H2573 H 0.42214 0.64613 0.0732 0.0
H2574 H 0.40537 0.65108 0.09013 0.0
H2575 H 0.42952 0.65067 0.09741 0.0
C2576 C 0.38239 0.68393 0.13407 0.0
C2577 C 0.39367 0.67817 0.14895 0.0
C2578 C 0.38967 0.68645 0.11684 0.0
C2579 C 0.40823 0.68296 0.11412 0.0
C2580 C 0.41923 0.67623 0.12858 0.0
H2581 H 0.48242 0.70109 0.02612 0.0
H2582 H 0.46763 0.69166 0.05393 0.0
C2583 C 0.41201 0.67386 0.14587 0.0
C2584 C 0.41669 0.68837 0.09696 0.0
H2585 H 0.43543 0.67116 0.05776 0.0
C2586 C 0.41941 0.70737 0.09424 0.0
C2587 C 0.42255 0.67513 0.08375 0.0
C2588 C 0.4197 0.65457 0.0861 0.0
C2589 C 0.42813 0.71355 0.07871 0.0
C2590 C 0.43378 0.70032 0.06527 0.0
C2591 C 0.43104 0.68127 0.06803 0.0
C2592 C 0.44263 0.706 0.04833 0.0
C2593 C 0.43171 0.7342 0.07719 0.0
C2594 C 0.43342 0.71703 0.03585 0.0
C2595 C 0.44198 0.72275 0.02014 0.0
C2596 C 0.45982 0.71727 0.01639 0.0
C2597 C 0.46885 0.70588 0.02875 0.0
C2598 C 0.46033 0.70031 0.04455 0.0
H2599 H 0.43166 0.74198 0.09094 0.0
H2600 H 0.44526 0.73741 0.07122 0.0
H2601 H 0.42055 0.73931 0.06796 0.0
H2602 H 0.41959 0.72126 0.03826 0.0
H2603 H 0.43466 0.73162 0.01103 0.0
H2604 H 0.00898 0.72897 0.83755 0.0
H2605 H 0.02509 0.73257 0.86858 0.0
H2606 H 0.9817 0.69793 0.88996 0.0
H2607 H 0.96545 0.69426 0.85915 0.0
H2608 H 0.00816 0.74266 0.9085 0.0
H2609 H 0.03577 0.67303 0.8952 0.0
H2610 H 0.02903 0.68734 0.87658 0.0
H2611 H 0.01156 0.67556 0.88896 0.0
C2612 C 0.00268 0.72239 0.84892 0.0
C2613 C 0.98602 0.71117 0.84584 0.0
C2614 C 0.0119 0.7245 0.86662 0.0
C2615 C 0.00459 0.7154 0.88142 0.0
C2616 C 0.98753 0.705 0.87863 0.0
H2617 H 0.04625 0.68552 0.98882 0.0
H2618 H 0.02856 0.68918 0.95953 0.0
C2619 C 0.97829 0.70293 0.861 0.0
C2620 C 0.01549 0.71532 0.89938 0.0
H2621 H 0.04214 0.68767 0.9251 0.0
C2622 C 0.0157 0.73073 0.91217 0.0
C2623 C 0.0252 0.69968 0.904 0.0
C2624 C 0.02556 0.68294 0.89049 0.0
C2625 C 0.0251 0.7307 0.9298 0.0
C2626 C 0.03477 0.71497 0.93448 0.0
C2627 C 0.03469 0.69968 0.92151 0.0
C2628 C 0.0448 0.71378 0.95285 0.0
C2629 C 0.02414 0.74723 0.94344 0.0
C2630 C 0.05981 0.72641 0.95885 0.0
C2631 C 0.06985 0.72447 0.97573 0.0
C2632 C 0.06517 0.70975 0.98684 0.0
C2633 C 0.05006 0.69719 0.98079 0.0
C2634 C 0.04 0.69918 0.96398 0.0
H2635 H 0.01243 0.75582 0.93957 0.0
H2636 H 0.02254 0.74274 0.95772 0.0
H2637 H 0.03724 0.75612 0.94358 0.0
H2638 H 0.06399 0.73756 0.95032 0.0
H2639 H 0.0813 0.73448 0.98005 0.0
H2640 H 0.62647 0.42222 0.67028 0.0
H2641 H 0.59594 0.43465 0.66518 0.0
H2642 H 0.57779 0.40978 0.71434 0.0
H2643 H 0.60839 0.39771 0.71981 0.0
H2644 H 0.56177 0.41705 0.65913 0.0
H2645 H 0.56416 0.46271 0.72385 0.0
H2646 H 0.58445 0.45216 0.71574 0.0
H2647 H 0.56786 0.43898 0.72816 0.0
C2648 C 0.61602 0.41952 0.68009 0.0
C2649 C 0.61993 0.40921 0.69561 0.0
C2650 C 0.59857 0.4266 0.67713 0.0
C2651 C 0.58471 0.42349 0.68959 0.0
C2652 C 0.58844 0.41283 0.70484 0.0
H2653 H 0.46769 0.43998 0.69035 0.0
H2654 H 0.49917 0.42926 0.69394 0.0
C2655 C 0.60593 0.40586 0.7079 0.0
C2656 C 0.5662 0.43102 0.68641 0.0
H2657 H 0.53465 0.45764 0.70691 0.0
C2658 C 0.55591 0.42606 0.66951 0.0
C2659 C 0.55863 0.44288 0.69993 0.0
C2660 C 0.56942 0.44966 0.71785 0.0
C2661 C 0.53805 0.43223 0.666 0.0
C2662 C 0.53033 0.4436 0.67973 0.0
C2663 C 0.54065 0.4488 0.69649 0.0
C2664 C 0.51135 0.44991 0.67709 0.0
C2665 C 0.52729 0.42635 0.64784 0.0
C2666 C 0.50791 0.46509 0.66644 0.0
C2667 C 0.48995 0.47127 0.66438 0.0
C2668 C 0.47517 0.46228 0.67285 0.0
C2669 C 0.47873 0.44701 0.68344 0.0
C2670 C 0.49669 0.44094 0.6856 0.0
H2671 H 0.5348 0.41653 0.63904 0.0
H2672 H 0.51355 0.41964 0.65052 0.0
H2673 H 0.52471 0.43879 0.64 0.0
H2674 H 0.51913 0.47219 0.65984 0.0
H2675 H 0.4876 0.48299 0.65607 0.0
H2676 H 0.86064 0.60868 0.25811 0.0
H2677 H 0.88874 0.59401 0.24909 0.0
H2678 H 0.8843 0.55756 0.29393 0.0
H2679 H 0.8563 0.57217 0.30316 0.0
H2680 H 0.92264 0.59099 0.27461 0.0
H2681 H 0.88954 0.52317 0.24515 0.0
H2682 H 0.87691 0.54396 0.2473 0.0
H2683 H 0.88231 0.53141 0.26742 0.0
C2684 C 0.86559 0.59749 0.26601 0.0
C2685 C 0.85625 0.5916 0.28138 0.0
C2686 C 0.88164 0.58915 0.26084 0.0
C2687 C 0.88845 0.57464 0.27076 0.0
C2688 C 0.8791 0.56862 0.28599 0.0
H2689 H 0.98009 0.50408 0.26794 0.0
H2690 H 0.95129 0.51922 0.27303 0.0
C2691 C 0.86315 0.57704 0.29127 0.0
C2692 C 0.90571 0.56616 0.26565 0.0
H2693 H 0.92241 0.52563 0.24907 0.0
C2694 C 0.92265 0.57675 0.26888 0.0
C2695 C 0.90556 0.54759 0.25828 0.0
C2696 C 0.88762 0.53583 0.25417 0.0
C2697 C 0.9396 0.56904 0.26547 0.0
C2698 C 0.9395 0.55039 0.25816 0.0
C2699 C 0.92247 0.53992 0.25466 0.0
C2700 C 0.95691 0.54122 0.25469 0.0
C2701 C 0.95746 0.58074 0.2704 0.0
C2702 C 0.96953 0.5484 0.24249 0.0
C2703 C 0.98607 0.53982 0.23964 0.0
C2704 C 0.99012 0.52372 0.24871 0.0
C2705 C 0.97727 0.51635 0.26061 0.0
C2706 C 0.96084 0.52502 0.26357 0.0
H2707 H 0.95538 0.59269 0.28031 0.0
H2708 H 0.96831 0.57233 0.27663 0.0
H2709 H 0.96266 0.58637 0.25759 0.0
H2710 H 0.96657 0.56061 0.23511 0.0
H2711 H 0.99561 0.54566 0.2302 0.0
H2712 H 0.15015 0.03522 0.32067 0.0
H2713 H 0.12121 0.01748 0.32598 0.0
H2714 H 0.1428 0.96779 0.30192 0.0
H2715 H 0.1718 0.98539 0.29646 0.0
H2716 H 0.09763 0.99627 0.29637 0.0
H2717 H 0.12262 0.95329 0.35302 0.0
H2718 H 0.13479 0.97476 0.34777 0.0
H2719 H 0.13645 0.95402 0.33313 0.0
C2720 C 0.14883 0.02048 0.31664 0.0
C2721 C 0.16327 0.01172 0.30811 0.0
C2722 C 0.13228 0.01039 0.31968 0.0
C2723 C 0.12998 0.99134 0.31448 0.0
C2724 C 0.14444 0.98246 0.30623 0.0
H2725 H 0.03234 0.91605 0.29629 0.0
H2726 H 0.06242 0.93343 0.29512 0.0
C2727 C 0.16094 0.99256 0.30305 0.0
C2728 C 0.11207 0.98094 0.31677 0.0
H2729 H 0.09192 0.94592 0.3399 0.0
C2730 C 0.09634 0.98532 0.30593 0.0
C2731 C 0.1105 0.96674 0.32933 0.0
C2732 C 0.12692 0.96194 0.34162 0.0
C2733 C 0.0791 0.97556 0.30706 0.0
C2734 C 0.07761 0.96114 0.31934 0.0
C2735 C 0.09322 0.95696 0.33044 0.0
C2736 C 0.05987 0.95013 0.32059 0.0
C2737 C 0.06253 0.98062 0.29511 0.0
C2738 C 0.04869 0.95372 0.33543 0.0
C2739 C 0.0315 0.94387 0.33613 0.0
C2740 C 0.02534 0.93016 0.32207 0.0
C2741 C 0.0368 0.92639 0.30741 0.0
C2742 C 0.05391 0.93634 0.30667 0.0
H2743 H 0.06546 0.99357 0.28794 0.0
H2744 H 0.05855 0.96914 0.28443 0.0
H2745 H 0.05045 0.98247 0.30371 0.0
H2746 H 0.05315 0.96433 0.3463 0.0
H2747 H 0.02302 0.94694 0.34766 0.0
H2748 H 0.37748 0.01147 0.68946 0.0
H2749 H 0.40812 0.02477 0.70147 0.0
H2750 H 0.38235 0.06447 0.73694 0.0
H2751 H 0.35157 0.05124 0.72504 0.0
H2752 H 0.422 0.06326 0.70041 0.0
H2753 H 0.42013 0.03975 0.77229 0.0
H2754 H 0.4048 0.02936 0.75328 0.0
H2755 H 0.40049 0.05169 0.76382 0.0
C2756 C 0.37829 0.02299 0.69986 0.0
C2757 C 0.36207 0.03028 0.70631 0.0
C2758 C 0.39582 0.03057 0.70669 0.0
C2759 C 0.39748 0.04546 0.72021 0.0
C2760 C 0.38135 0.05281 0.72669 0.0
H2761 H 0.49641 0.10368 0.77755 0.0
H2762 H 0.4643 0.0934 0.76708 0.0
C2763 C 0.36378 0.04529 0.7198 0.0
C2764 C 0.41614 0.05351 0.72714 0.0
H2765 H 0.44656 0.05832 0.76547 0.0
C2766 C 0.42739 0.06222 0.71464 0.0
C2767 C 0.42302 0.05223 0.74574 0.0
C2768 C 0.41159 0.04265 0.7596 0.0
C2769 C 0.4454 0.06968 0.72022 0.0
C2770 C 0.4525 0.06797 0.7387 0.0
C2771 C 0.4411 0.05957 0.75131 0.0
C2772 C 0.47192 0.07428 0.74502 0.0
C2773 C 0.45655 0.07952 0.70632 0.0
C2774 C 0.48683 0.06674 0.73627 0.0
C2775 C 0.50514 0.0727 0.74208 0.0
C2776 C 0.50895 0.08617 0.75695 0.0
C2777 C 0.49396 0.09348 0.7659 0.0
C2778 C 0.47562 0.08754 0.76002 0.0
H2779 H 0.44742 0.08455 0.695 0.0
H2780 H 0.46525 0.09154 0.7131 0.0
H2781 H 0.46588 0.06968 0.69988 0.0
H2782 H 0.48432 0.05621 0.72492 0.0
H2783 H 0.5163 0.06691 0.73473 0.0
H2784 H 0.69454 0.60649 0.38579 0.0
H2785 H 0.68845 0.5762 0.39844 0.0
H2786 H 0.68218 0.60309 0.45241 0.0
H2787 H 0.6884 0.63352 0.43997 0.0
H2788 H 0.71018 0.56316 0.43314 0.0
H2789 H 0.6336 0.56615 0.4374 0.0
H2790 H 0.64635 0.57932 0.42128 0.0
H2791 H 0.64839 0.58635 0.44558 0.0
C2792 C 0.69185 0.606 0.40036 0.0
C2793 C 0.69199 0.62242 0.4119 0.0
C2794 C 0.68838 0.58868 0.40753 0.0
C2795 C 0.68478 0.58749 0.42629 0.0
C2796 C 0.68481 0.6038 0.43785 0.0
H2797 H 0.65316 0.49157 0.48795 0.0
H2798 H 0.65984 0.5231 0.4784 0.0
C2799 C 0.68843 0.62114 0.43073 0.0
C2800 C 0.68139 0.56911 0.43381 0.0
H2801 H 0.64714 0.53947 0.44777 0.0
C2802 C 0.69642 0.55794 0.43639 0.0
C2803 C 0.66346 0.56254 0.43816 0.0
C2804 C 0.64692 0.57409 0.43543 0.0
C2805 C 0.694 0.54024 0.44323 0.0
C2806 C 0.67594 0.53337 0.44708 0.0
C2807 C 0.66095 0.54472 0.44476 0.0
C2808 C 0.67223 0.51427 0.45305 0.0
C2809 C 0.71087 0.52924 0.44655 0.0
C2810 C 0.67678 0.49884 0.44189 0.0
C2811 C 0.67324 0.48084 0.44743 0.0
C2812 C 0.66475 0.47785 0.46412 0.0
C2813 C 0.65996 0.49336 0.47516 0.0
C2814 C 0.66364 0.51138 0.46965 0.0
H2815 H 0.72381 0.53846 0.44863 0.0
H2816 H 0.70962 0.5209 0.45889 0.0
H2817 H 0.71227 0.51961 0.43422 0.0
H2818 H 0.68302 0.50069 0.42881 0.0
H2819 H 0.67734 0.46929 0.43868 0.0
H2820 H 0.7464 0.35279 0.00666 0.0
H2821 H 0.75794 0.38317 0.02107 0.0
H2822 H 0.71713 0.37897 0.06204 0.0
H2823 H 0.70551 0.34857 0.0478 0.0
H2824 H 0.73615 0.41442 0.0253 0.0
H2825 H 0.76608 0.3944 0.0933 0.0
H2826 H 0.76126 0.37793 0.0735 0.0
H2827 H 0.7427 0.38517 0.08717 0.0
C2828 C 0.73996 0.35825 0.01883 0.0
C2829 C 0.72498 0.34828 0.02605 0.0
C2830 C 0.7466 0.3756 0.02705 0.0
C2831 C 0.73853 0.3832 0.04273 0.0
C2832 C 0.72377 0.37319 0.05014 0.0
H2833 H 0.74654 0.48882 0.10649 0.0
H2834 H 0.74044 0.45637 0.09472 0.0
C2835 C 0.71708 0.35586 0.04191 0.0
C2836 C 0.7447 0.40215 0.05059 0.0
H2837 H 0.76304 0.42668 0.09006 0.0
C2838 C 0.74219 0.41712 0.0394 0.0
C2839 C 0.75244 0.40558 0.06903 0.0
C2840 C 0.75595 0.38993 0.08144 0.0
C2841 C 0.74679 0.43551 0.04629 0.0
C2842 C 0.75452 0.43897 0.06475 0.0
C2843 C 0.75716 0.42398 0.07591 0.0
C2844 C 0.75949 0.45813 0.0728 0.0
C2845 C 0.74273 0.45108 0.03391 0.0
C2846 C 0.77265 0.4697 0.06475 0.0
C2847 C 0.77614 0.48823 0.07141 0.0
C2848 C 0.76667 0.49548 0.0864 0.0
C2849 C 0.75415 0.48361 0.09501 0.0
C2850 C 0.75059 0.4651 0.08826 0.0
H2851 H 0.73254 0.44641 0.02216 0.0
H2852 H 0.73721 0.46293 0.0419 0.0
H2853 H 0.75578 0.45613 0.02799 0.0
H2854 H 0.78001 0.46447 0.0531 0.0
H2855 H 0.78608 0.49697 0.0647 0.0
H2856 H 0.30037 0.89228 0.6252 0.0
H2857 H 0.28982 0.91965 0.61031 0.0
H2858 H 0.27836 0.88686 0.55853 0.0
H2859 H 0.2888 0.85937 0.57328 0.0
H2860 H 0.30458 0.93561 0.57868 0.0
H2861 H 0.22962 0.91312 0.56666 0.0
H2862 H 0.24503 0.90249 0.58295 0.0
H2863 H 0.24539 0.8966 0.55846 0.0
C2864 C 0.29553 0.89085 0.61066 0.0
C2865 C 0.2954 0.87363 0.60043 0.0
C2866 C 0.28952 0.9065 0.60219 0.0
C2867 C 0.28311 0.9052 0.58341 0.0
C2868 C 0.28297 0.88807 0.57313 0.0
H2869 H 0.27126 0.9927 0.50791 0.0
H2870 H 0.27925 0.96498 0.52375 0.0
C2871 C 0.28905 0.87241 0.58157 0.0
C2872 C 0.2772 0.92192 0.57439 0.0
H2873 H 0.24 0.94042 0.55255 0.0
C2874 C 0.29045 0.93671 0.57302 0.0
C2875 C 0.25871 0.92334 0.5672 0.0
C2876 C 0.24378 0.90813 0.56899 0.0
C2877 C 0.2858 0.95277 0.56427 0.0
C2878 C 0.26746 0.95396 0.5566 0.0
C2879 C 0.25409 0.93935 0.55832 0.0
C2880 C 0.26197 0.97029 0.54668 0.0
C2881 C 0.30049 0.96842 0.56342 0.0
C2882 C 0.24927 0.98217 0.55414 0.0
C2883 C 0.24461 0.99798 0.54509 0.0
C2884 C 0.25244 0.00205 0.52832 0.0
C2885 C 0.26485 0.98985 0.5207 0.0
C2886 C 0.26956 0.97412 0.5298 0.0
H2887 H 0.31258 0.96708 0.57341 0.0
H2888 H 0.30556 0.96823 0.54921 0.0
H2889 H 0.29465 0.98208 0.56639 0.0
H2890 H 0.2432 0.97936 0.56712 0.0
H2891 H 0.23488 0.00703 0.5512 0.0
H2892 H 0.30961 0.1777 0.99147 0.0
H2893 H 0.31517 0.14923 0.973 0.0
H2894 H 0.28987 0.11633 0.01369 0.0
H2895 H 0.28417 0.14464 0.03219 0.0
H2896 H 0.33577 0.11847 0.98458 0.0
H2897 H 0.26178 0.0976 0.96365 0.0
H2898 H 0.26948 0.12088 0.97254 0.0
H2899 H 0.2668 0.10262 0.98818 0.0
C2900 C 0.30517 0.16441 0.99646 0.0
C2901 C 0.29636 0.16344 0.01326 0.0
C2902 C 0.30839 0.14818 0.98591 0.0
C2903 C 0.30271 0.13074 0.99189 0.0
C2904 C 0.29408 0.1297 0.0087 0.0
H2905 H 0.3059 0.01629 0.95097 0.0
H2906 H 0.30201 0.0455 0.96877 0.0
C2907 C 0.29091 0.1459 0.01929 0.0
C2908 C 0.30605 0.11355 0.98071 0.0
H2909 H 0.28383 0.07557 0.95677 0.0
C2910 C 0.32445 0.10912 0.97838 0.0
C2911 C 0.29122 0.10143 0.9727 0.0
C2912 C 0.27119 0.10589 0.97421 0.0
C2913 C 0.32843 0.09257 0.96863 0.0
C2914 C 0.31358 0.08037 0.96072 0.0
C2915 C 0.29518 0.08493 0.96291 0.0
C2916 C 0.31676 0.06269 0.95024 0.0
C2917 C 0.34845 0.08804 0.96735 0.0
C2918 C 0.32631 0.06268 0.93389 0.0
C2919 C 0.32872 0.04597 0.92378 0.0
C2920 C 0.32149 0.02898 0.92976 0.0
C2921 C 0.31192 0.02908 0.94615 0.0
C2922 C 0.30955 0.04578 0.95626 0.0
H2923 H 0.35776 0.09623 0.97808 0.0
H2924 H 0.35011 0.07303 0.96895 0.0
H2925 H 0.35306 0.09143 0.9535 0.0
H2926 H 0.33168 0.07561 0.92881 0.0
H2927 H 0.33627 0.04637 0.91128 0.0
H2928 H 0.44194 0.68778 0.63719 0.0
H2929 H 0.45608 0.68347 0.60739 0.0
H2930 H 0.40296 0.66291 0.58117 0.0
H2931 H 0.38868 0.66715 0.61086 0.0
H2932 H 0.45508 0.6484 0.58309 0.0
H2933 H 0.42246 0.70724 0.55027 0.0
H2934 H 0.42463 0.70557 0.57516 0.0
H2935 H 0.4072 0.69127 0.56128 0.0
C2936 C 0.43325 0.68235 0.62509 0.0
C2937 C 0.41416 0.67785 0.62638 0.0
C2938 C 0.44136 0.67986 0.60811 0.0
C2939 C 0.43051 0.67302 0.59212 0.0
C2940 C 0.41151 0.66837 0.59336 0.0
H2941 H 0.46252 0.6333 0.48366 0.0
H2942 H 0.44974 0.63656 0.51429 0.0
C2943 C 0.4034 0.67074 0.61035 0.0
C2944 C 0.43908 0.67079 0.57412 0.0
H2945 H 0.44005 0.68818 0.53126 0.0
C2946 C 0.45183 0.65707 0.57174 0.0
C2947 C 0.43487 0.68227 0.55947 0.0
C2948 C 0.42165 0.69753 0.56159 0.0
C2949 C 0.46032 0.65435 0.55489 0.0
C2950 C 0.45588 0.66563 0.54014 0.0
C2951 C 0.44333 0.67952 0.54262 0.0
C2952 C 0.46417 0.66329 0.52199 0.0
C2953 C 0.47412 0.6396 0.553 0.0
C2954 C 0.47641 0.6773 0.51622 0.0
C2955 C 0.48373 0.67548 0.49878 0.0
C2956 C 0.47874 0.6597 0.48673 0.0
C2957 C 0.46652 0.64565 0.49261 0.0
C2958 C 0.45932 0.64742 0.51012 0.0
H2959 H 0.47859 0.63448 0.56666 0.0
H2960 H 0.46764 0.62764 0.54403 0.0
H2961 H 0.48659 0.64504 0.54629 0.0
H2962 H 0.4802 0.6897 0.52518 0.0
H2963 H 0.49293 0.68662 0.49453 0.0
H2964 H 0.00613 0.68978 0.37659 0.0
H2965 H 0.02053 0.70144 0.40691 0.0
H2966 H 0.05692 0.7396 0.38026 0.0
H2967 H 0.04256 0.72808 0.3498 0.0
H2968 H 0.05949 0.70171 0.41873 0.0
H2969 H 0.03301 0.77253 0.4205 0.0
H2970 H 0.0227 0.75363 0.40498 0.0
H2971 H 0.04432 0.7653 0.40001 0.0
C2972 C 0.01715 0.70071 0.37714 0.0
C2973 C 0.02317 0.70803 0.36077 0.0
C2974 C 0.02536 0.70733 0.39448 0.0
C2975 C 0.03963 0.7215 0.39581 0.0
C2976 C 0.04573 0.72884 0.37953 0.0
H2977 H 0.10125 0.77773 0.4934 0.0
H2978 H 0.08949 0.76798 0.46153 0.0
C2979 C 0.03757 0.72217 0.36214 0.0
C2980 C 0.04839 0.72819 0.41426 0.0
H2981 H 0.05336 0.76573 0.44565 0.0
C2982 C 0.05818 0.71571 0.42463 0.0
C2983 C 0.04676 0.74649 0.42181 0.0
C2984 C 0.03603 0.76029 0.41136 0.0
C2985 C 0.06638 0.72104 0.44241 0.0
C2986 C 0.06435 0.73921 0.45019 0.0
C2987 C 0.05486 0.75181 0.43967 0.0
C2988 C 0.07145 0.74518 0.46946 0.0
C2989 C 0.07732 0.70721 0.45261 0.0
C2990 C 0.06499 0.73578 0.48448 0.0
C2991 C 0.07178 0.74119 0.50263 0.0
C2992 C 0.08504 0.75628 0.5062 0.0
C2993 C 0.09124 0.7659 0.49112 0.0
C2994 C 0.08446 0.76042 0.47293 0.0
H2995 H 0.08221 0.69632 0.44287 0.0
H2996 H 0.08956 0.71419 0.46082 0.0
H2997 H 0.06828 0.70021 0.46231 0.0
H2998 H 0.05468 0.7242 0.48216 0.0
H2999 H 0.06685 0.73333 0.51386 0.0
H3000 H 0.58351 0.30867 0.87062 0.0
H3001 H 0.56964 0.29839 0.89859 0.0
H3002 H 0.58566 0.24272 0.88585 0.0
H3003 H 0.59986 0.25293 0.85798 0.0
H3004 H 0.54142 0.27122 0.90246 0.0
H3005 H 0.60757 0.25448 0.93923 0.0
H3006 H 0.60694 0.26784 0.9189 0.0
H3007 H 0.60294 0.24298 0.91651 0.0
C3008 C 0.5841 0.29423 0.87375 0.0
C3009 C 0.59292 0.28165 0.86214 0.0
C3010 C 0.57614 0.28838 0.88973 0.0
C3011 C 0.57687 0.26987 0.89443 0.0
C3012 C 0.58528 0.25716 0.88267 0.0
H3013 H 0.51163 0.22139 0.97986 0.0
H3014 H 0.52502 0.2279 0.95038 0.0
C3015 C 0.5933 0.263 0.8667 0.0
C3016 C 0.56879 0.26396 0.91167 0.0
H3017 H 0.57986 0.24713 0.95383 0.0
C3018 C 0.54979 0.2659 0.91369 0.0
C3019 C 0.57982 0.25722 0.92635 0.0
C3020 C 0.60048 0.25563 0.92529 0.0
C3021 C 0.54149 0.26131 0.93002 0.0
C3022 C 0.55246 0.25431 0.94459 0.0
C3023 C 0.57146 0.25234 0.94256 0.0
C3024 C 0.54468 0.24981 0.96241 0.0
C3025 C 0.52119 0.26451 0.93177 0.0
C3026 C 0.55165 0.2596 0.97898 0.0
C3027 C 0.54409 0.25588 0.99581 0.0
C3028 C 0.52944 0.24223 0.9964 0.0
C3029 C 0.52271 0.23218 0.97981 0.0
C3030 C 0.53033 0.23589 0.96297 0.0
H3031 H 0.51592 0.27389 0.92129 0.0
H3032 H 0.51293 0.25101 0.92957 0.0
H3033 H 0.51881 0.2706 0.94585 0.0
H3034 H 0.56273 0.27039 0.97884 0.0
H3035 H 0.54943 0.26402 0.00829 0.0
H3036 H 0.98866 0.28612 0.16621 0.0
H3037 H 0.97165 0.29373 0.13767 0.0
H3038 H 0.00417 0.34588 0.13849 0.0
H3039 H 0.02139 0.33837 0.16703 0.0
H3040 H 0.9507 0.32559 0.13094 0.0
H3041 H 0.01069 0.32041 0.0864 0.0
H3042 H 0.01051 0.3109 0.10894 0.0
H3043 H 0.01444 0.33549 0.1072 0.0
C3044 C 0.9922 0.29923 0.16036 0.0
C3045 C 0.0065 0.31157 0.16882 0.0
C3046 C 0.98244 0.30356 0.14407 0.0
C3047 C 0.98684 0.32024 0.13587 0.0
C3048 C 0.0008 0.3328 0.14446 0.0
H3049 H 0.94382 0.35694 0.02902 0.0
H3050 H 0.96055 0.35592 0.05949 0.0
C3051 C 0.01056 0.3285 0.1608 0.0
C3052 C 0.97683 0.3243 0.11823 0.0
H3053 H 0.98241 0.32846 0.07203 0.0
C3054 C 0.95763 0.32631 0.11806 0.0
C3055 C 0.98596 0.32533 0.1015 0.0
C3056 C 0.00651 0.3228 0.10086 0.0
C3057 C 0.94723 0.32916 0.10154 0.0
C3058 C 0.95625 0.3296 0.0847 0.0
C3059 C 0.97555 0.32809 0.08496 0.0
C3060 C 0.94578 0.33061 0.06654 0.0
C3061 C 0.9267 0.33172 0.10228 0.0
C3062 C 0.93213 0.31659 0.06033 0.0
C3063 C 0.92262 0.3171 0.04297 0.0
C3064 C 0.92667 0.33158 0.03139 0.0
C3065 C 0.94047 0.34555 0.03758 0.0
C3066 C 0.94996 0.34504 0.055 0.0
H3067 H 0.92317 0.33669 0.11642 0.0
H3068 H 0.92201 0.34176 0.09222 0.0
H3069 H 0.91883 0.31817 0.09869 0.0
H3070 H 0.92905 0.30505 0.06878 0.0
H3071 H 0.91237 0.30592 0.03845 0.0
loop_
_geom_bond_atom_site_label_1
_geom_bond_atom_site_label_2
_geom_bond_distance
_geom_bond_site_symmetry_2
_ccdc_geom_bond_type
O0 Cd1 2.300 . S
O0 C7 1.275 . S
Cd1 O0 2.300 . S
Cd1 O9 2.381 . S
Cd1 O10 2.378 . S
O2 Cd3 2.385 . S
O2 C7 1.255 . S
Cd3 O2 2.385 . S
Cd3 O4 2.317 . S
O4 Cd3 2.317 . S
O4 C5 1.232 . S
C5 O4 1.232 . S
C5 O6 1.218 . S
O6 C5 1.218 . S
C7 O0 1.275 . S
C7 O2 1.255 . S
C8 O9 1.258 . S
C8 O10 1.256 . S
O9 Cd1 2.381 . S
O9 C8 1.258 . S
O10 Cd1 2.378 . S
O10 C8 1.256 . S
O11 Cd12 2.300 . S
O11 C18 1.275 . S
Cd12 O11 2.300 . S
Cd12 O20 2.381 . S
Cd12 O21 2.378 . S
O13 Cd14 2.385 . S
O13 C18 1.255 . S
Cd14 O13 2.385 . S
Cd14 O15 2.317 . S
O15 Cd14 2.317 . S
O15 C16 1.232 . S
C16 O15 1.232 . S
C16 O17 1.218 . S
O17 C16 1.218 . S
C18 O11 1.275 . S
C18 O13 1.255 . S
C19 O20 1.258 . S
C19 O21 1.256 . S
O20 Cd12 2.381 . S
O20 C19 1.258 . S
O21 Cd12 2.378 . S
O21 C19 1.256 . S
O22 Cd23 2.300 . S
O22 C29 1.275 . S
Cd23 O22 2.300 . S
Cd23 O31 2.381 1_565 S
Cd23 O32 2.378 . S
O24 Cd25 2.385 . S
O24 C29 1.255 . S
Cd25 O24 2.385 . S
Cd25 O26 2.317 . S
O26 Cd25 2.317 . S
O26 C27 1.232 . S
C27 O26 1.232 . S
C27 O28 1.218 . S
O28 C27 1.218 . S
C29 O22 1.275 . S
C29 O24 1.255 . S
C30 O31 1.258 . S
C30 O32 1.256 1_545 S
O31 Cd23 2.381 1_545 S
O31 C30 1.258 . S
O32 Cd23 2.378 . S
O32 C30 1.256 1_565 S
O33 Cd34 2.300 . S
O33 C40 1.275 . S
Cd34 O33 2.300 . S
Cd34 O42 2.381 1_545 S
Cd34 O43 2.378 . S
O35 Cd36 2.385 . S
O35 C40 1.255 . S
Cd36 O35 2.385 . S
Cd36 O37 2.317 . S
O37 Cd36 2.317 . S
O37 C38 1.232 . S
C38 O37 1.232 . S
C38 O39 1.218 . S
O39 C38 1.218 . S
C40 O33 1.275 . S
C40 O35 1.255 . S
C41 O42 1.258 . S
C41 O43 1.256 1_565 S
O42 Cd34 2.381 1_565 S
O42 C41 1.258 . S
O43 Cd34 2.378 . S
O43 C41 1.256 1_545 S
O44 Cd45 2.300 . S
O44 C51 1.275 . S
Cd45 O44 2.300 . S
Cd45 O53 2.381 . S
Cd45 O54 2.378 . S
O46 Cd47 2.385 . S
O46 C51 1.255 . S
Cd47 O46 2.385 . S
Cd47 O48 2.317 . S
O48 Cd47 2.317 . S
O48 C49 1.232 . S
C49 O48 1.232 . S
C49 O50 1.218 . S
O50 C49 1.218 . S
C51 O44 1.275 . S
C51 O46 1.255 . S
C52 O53 1.258 . S
C52 O54 1.256 . S
O53 Cd45 2.381 . S
O53 C52 1.258 . S
O54 Cd45 2.378 . S
O54 C52 1.256 . S
O55 Cd56 2.300 . S
O55 C62 1.275 . S
Cd56 O55 2.300 . S
Cd56 O64 2.381 1_554 S
Cd56 O65 2.378 . S
O57 Cd58 2.385 . S
O57 C62 1.255 . S
Cd58 O57 2.385 . S
Cd58 O59 2.317 . S
O59 Cd58 2.317 . S
O59 C60 1.232 . S
C60 O59 1.232 . S
C60 O61 1.218 . S
O61 C60 1.218 . S
C62 O55 1.275 . S
C62 O57 1.255 . S
C63 O64 1.258 . S
C63 O65 1.256 1_556 S
O64 Cd56 2.381 1_556 S
O64 C63 1.258 . S
O65 Cd56 2.378 . S
O65 C63 1.256 1_554 S
O66 Cd67 2.300 . S
O66 C73 1.275 . S
Cd67 O66 2.300 . S
Cd67 O75 2.381 . S
Cd67 O76 2.378 . S
O68 Cd69 2.385 . S
O68 C73 1.255 . S
Cd69 O68 2.385 . S
Cd69 O70 2.317 . S
O70 Cd69 2.317 . S
O70 C71 1.232 . S
C71 O70 1.232 . S
C71 O72 1.218 . S
O72 C71 1.218 . S
C73 O66 1.275 . S
C73 O68 1.255 . S
C74 O75 1.258 . S
C74 O76 1.256 . S
O75 Cd67 2.381 . S
O75 C74 1.258 . S
O76 Cd67 2.378 . S
O76 C74 1.256 . S
O77 Cd78 2.300 . S
O77 C84 1.275 . S
Cd78 O77 2.300 . S
Cd78 O86 2.381 1_556 S
Cd78 O87 2.378 . S
O79 Cd80 2.385 . S
O79 C84 1.255 . S
Cd80 O79 2.385 . S
Cd80 O81 2.317 . S
O81 Cd80 2.317 . S
O81 C82 1.232 . S
C82 O81 1.232 . S
C82 O83 1.218 . S
O83 C82 1.218 . S
C84 O77 1.275 . S
C84 O79 1.255 . S
C85 O86 1.258 . S
C85 O87 1.256 1_554 S
O86 Cd78 2.381 1_554 S
O86 C85 1.258 . S
O87 Cd78 2.378 . S
O87 C85 1.256 1_556 S
O88 Cd89 2.300 . S
O88 C95 1.275 . S
Cd89 O88 2.300 . S
Cd89 O97 2.381 . S
Cd89 O98 2.378 . S
O90 Cd91 2.385 . S
O90 C95 1.255 . S
Cd91 O90 2.385 . S
Cd91 O92 2.317 . S
O92 Cd91 2.317 . S
O92 C93 1.232 . S
C93 O92 1.232 . S
C93 O94 1.218 . S
O94 C93 1.218 . S
C95 O88 1.275 . S
C95 O90 1.255 . S
C96 O97 1.258 . S
C96 O98 1.256 . S
O97 Cd89 2.381 . S
O97 C96 1.258 . S
O98 Cd89 2.378 . S
O98 C96 1.256 . S
O99 Cd100 2.300 . S
O99 C106 1.275 . S
Cd100 O99 2.300 . S
Cd100 O108 2.381 1_455 S
Cd100 O109 2.378 . S
O101 Cd102 2.385 . S
O101 C106 1.255 . S
Cd102 O101 2.385 . S
Cd102 O103 2.317 . S
O103 Cd102 2.317 . S
O103 C104 1.232 . S
C104 O103 1.232 . S
C104 O105 1.218 . S
O105 C104 1.218 . S
C106 O99 1.275 . S
C106 O101 1.255 . S
C107 O108 1.258 . S
C107 O109 1.256 1_655 S
O108 Cd100 2.381 1_655 S
O108 C107 1.258 . S
O109 Cd100 2.378 . S
O109 C107 1.256 1_455 S
O110 Cd111 2.300 . S
O110 C117 1.275 . S
Cd111 O110 2.300 . S
Cd111 O119 2.381 . S
Cd111 O120 2.378 . S
O112 Cd113 2.385 . S
O112 C117 1.255 . S
Cd113 O112 2.385 . S
Cd113 O114 2.317 . S
O114 Cd113 2.317 . S
O114 C115 1.232 . S
C115 O114 1.232 . S
C115 O116 1.218 . S
O116 C115 1.218 . S
C117 O110 1.275 . S
C117 O112 1.255 . S
C118 O119 1.258 . S
C118 O120 1.256 . S
O119 Cd111 2.381 . S
O119 C118 1.258 . S
O120 Cd111 2.378 . S
O120 C118 1.256 . S
O121 Cd122 2.300 . S
O121 C128 1.275 . S
Cd122 O121 2.300 . S
Cd122 O130 2.381 1_655 S
Cd122 O131 2.378 . S
O123 Cd124 2.385 . S
O123 C128 1.255 . S
Cd124 O123 2.385 . S
Cd124 O125 2.317 . S
O125 Cd124 2.317 . S
O125 C126 1.232 . S
C126 O125 1.232 . S
C126 O127 1.218 . S
O127 C126 1.218 . S
C128 O121 1.275 . S
C128 O123 1.255 . S
C129 O130 1.258 . S
C129 O131 1.256 1_455 S
O130 Cd122 2.381 1_455 S
O130 C129 1.258 . S
O131 Cd122 2.378 . S
O131 C129 1.256 1_655 S
O132 Cd133 2.300 . S
O132 C139 1.275 . S
Cd133 O132 2.300 . S
Cd133 O141 2.381 . S
Cd133 O142 2.378 . S
O134 Cd135 2.385 . S
O134 C139 1.255 . S
Cd135 O134 2.385 . S
Cd135 O136 2.317 . S
O136 Cd135 2.317 . S
O136 C137 1.232 . S
C137 O136 1.232 . S
C137 O138 1.218 . S
O138 C137 1.218 . S
C139 O132 1.275 . S
C139 O134 1.255 . S
C140 O141 1.258 . S
C140 O142 1.256 . S
O141 Cd133 2.381 . S
O141 C140 1.258 . S
O142 Cd133 2.378 . S
O142 C140 1.256 . S
O143 Cd144 2.300 . S
O143 C150 1.275 . S
Cd144 O143 2.300 . S
Cd144 O152 2.381 . S
Cd144 O153 2.378 . S
O145 Cd146 2.385 . S
O145 C150 1.255 . S
Cd146 O145 2.385 . S
Cd146 O147 2.317 . S
O147 Cd146 2.317 . S
O147 C148 1.232 . S
C148 O147 1.232 . S
C148 O149 1.218 . S
O149 C148 1.218 . S
C150 O143 1.275 . S
C150 O145 1.255 . S
C151 O152 1.258 . S
C151 O153 1.256 . S
O152 Cd144 2.381 . S
O152 C151 1.258 . S
O153 Cd144 2.378 . S
O153 C151 1.256 . S
O154 Cd155 2.300 1_545 S
O154 C161 1.275 . S
Cd155 O154 2.300 1_565 S
Cd155 O163 2.381 1_565 S
Cd155 O164 2.378 . S
O156 Cd157 2.385 . S
O156 C161 1.255 1_565 S
Cd157 O156 2.385 . S
Cd157 O158 2.317 . S
O158 Cd157 2.317 . S
O158 C159 1.232 . S
C159 O158 1.232 . S
C159 O160 1.218 . S
O160 C159 1.218 . S
C161 O154 1.275 . S
C161 O156 1.255 1_545 S
C162 O163 1.258 1_565 S
C162 O164 1.256 . S
O163 Cd155 2.381 1_545 S
O163 C162 1.258 1_545 S
O164 Cd155 2.378 . S
O164 C162 1.256 . S
O165 Cd166 2.300 1_565 S
O165 C172 1.275 . S
Cd166 O165 2.300 1_545 S
Cd166 O174 2.381 1_545 S
Cd166 O175 2.378 . S
O167 Cd168 2.385 . S
O167 C172 1.255 1_545 S
Cd168 O167 2.385 . S
Cd168 O169 2.317 . S
O169 Cd168 2.317 . S
O169 C170 1.232 . S
C170 O169 1.232 . S
C170 O171 1.218 . S
O171 C170 1.218 . S
C172 O165 1.275 . S
C172 O167 1.255 1_565 S
C173 O174 1.258 1_545 S
C173 O175 1.256 . S
O174 Cd166 2.381 1_565 S
O174 C173 1.258 1_565 S
O175 Cd166 2.378 . S
O175 C173 1.256 . S
O176 Cd177 2.300 . S
O176 C183 1.275 . S
Cd177 O176 2.300 . S
Cd177 O185 2.381 . S
Cd177 O186 2.378 . S
O178 Cd179 2.385 . S
O178 C183 1.255 . S
Cd179 O178 2.385 . S
Cd179 O180 2.317 . S
O180 Cd179 2.317 . S
O180 C181 1.232 . S
C181 O180 1.232 . S
C181 O182 1.218 . S
O182 C181 1.218 . S
C183 O176 1.275 . S
C183 O178 1.255 . S
C184 O185 1.258 . S
C184 O186 1.256 . S
O185 Cd177 2.381 . S
O185 C184 1.258 . S
O186 Cd177 2.378 . S
O186 C184 1.256 . S
O187 Cd188 2.300 1_556 S
O187 C194 1.275 . S
Cd188 O187 2.300 1_554 S
Cd188 O196 2.381 1_554 S
Cd188 O197 2.378 . S
O189 Cd190 2.385 . S
O189 C194 1.255 1_554 S
Cd190 O189 2.385 . S
Cd190 O191 2.317 . S
O191 Cd190 2.317 . S
O191 C192 1.232 . S
C192 O191 1.232 . S
C192 O193 1.218 . S
O193 C192 1.218 . S
C194 O187 1.275 . S
C194 O189 1.255 1_556 S
C195 O196 1.258 1_554 S
C195 O197 1.256 . S
O196 Cd188 2.381 1_556 S
O196 C195 1.258 1_556 S
O197 Cd188 2.378 . S
O197 C195 1.256 . S
O198 Cd199 2.300 . S
O198 C205 1.275 . S
Cd199 O198 2.300 . S
Cd199 O207 2.381 . S
Cd199 O208 2.378 . S
O200 Cd201 2.385 . S
O200 C205 1.255 . S
Cd201 O200 2.385 . S
Cd201 O202 2.317 . S
O202 Cd201 2.317 . S
O202 C203 1.232 . S
C203 O202 1.232 . S
C203 O204 1.218 . S
O204 C203 1.218 . S
C205 O198 1.275 . S
C205 O200 1.255 . S
C206 O207 1.258 . S
C206 O208 1.256 . S
O207 Cd199 2.381 . S
O207 C206 1.258 . S
O208 Cd199 2.378 . S
O208 C206 1.256 . S
O209 Cd210 2.300 1_554 S
O209 C216 1.275 . S
Cd210 O209 2.300 1_556 S
Cd210 O218 2.381 1_556 S
Cd210 O219 2.378 . S
O211 Cd212 2.385 . S
O211 C216 1.255 1_556 S
Cd212 O211 2.385 . S
Cd212 O213 2.317 . S
O213 Cd212 2.317 . S
O213 C214 1.232 . S
C214 O213 1.232 . S
C214 O215 1.218 . S
O215 C214 1.218 . S
C216 O209 1.275 . S
C216 O211 1.255 1_554 S
C217 O218 1.258 1_556 S
C217 O219 1.256 . S
O218 Cd210 2.381 1_554 S
O218 C217 1.258 1_554 S
O219 Cd210 2.378 . S
O219 C217 1.256 . S
O220 Cd221 2.300 . S
O220 C227 1.275 . S
Cd221 O220 2.300 . S
Cd221 O229 2.381 . S
Cd221 O230 2.378 . S
O222 Cd223 2.385 . S
O222 C227 1.255 . S
Cd223 O222 2.385 . S
Cd223 O224 2.317 . S
O224 Cd223 2.317 . S
O224 C225 1.232 . S
C225 O224 1.232 . S
C225 O226 1.218 . S
O226 C225 1.218 . S
C227 O220 1.275 . S
C227 O222 1.255 . S
C228 O229 1.258 . S
C228 O230 1.256 . S
O229 Cd221 2.381 . S
O229 C228 1.258 . S
O230 Cd221 2.378 . S
O230 C228 1.256 . S
O231 Cd232 2.300 1_655 S
O231 C238 1.275 . S
Cd232 O231 2.300 1_455 S
Cd232 O240 2.381 1_455 S
Cd232 O241 2.378 . S
O233 Cd234 2.385 . S
O233 C238 1.255 1_455 S
Cd234 O233 2.385 . S
Cd234 O235 2.317 . S
O235 Cd234 2.317 . S
O235 C236 1.232 . S
C236 O235 1.232 . S
C236 O237 1.218 . S
O237 C236 1.218 . S
C238 O231 1.275 . S
C238 O233 1.255 1_655 S
C239 O240 1.258 1_455 S
C239 O241 1.256 . S
O240 Cd232 2.381 1_655 S
O240 C239 1.258 1_655 S
O241 Cd232 2.378 . S
O241 C239 1.256 . S
O242 Cd243 2.300 . S
O242 C249 1.275 . S
Cd243 O242 2.300 . S
Cd243 O251 2.381 . S
Cd243 O252 2.378 . S
O244 Cd245 2.385 . S
O244 C249 1.255 . S
Cd245 O244 2.385 . S
Cd245 O246 2.317 . S
O246 Cd245 2.317 . S
O246 C247 1.232 . S
C247 O246 1.232 . S
C247 O248 1.218 . S
O248 C247 1.218 . S
C249 O242 1.275 . S
C249 O244 1.255 . S
C250 O251 1.258 . S
C250 O252 1.256 . S
O251 Cd243 2.381 . S
O251 C250 1.258 . S
O252 Cd243 2.378 . S
O252 C250 1.256 . S
O253 Cd254 2.300 1_455 S
O253 C260 1.275 . S
Cd254 O253 2.300 1_655 S
Cd254 O262 2.381 1_655 S
Cd254 O263 2.378 . S
O255 Cd256 2.385 . S
O255 C260 1.255 1_655 S
Cd256 O255 2.385 . S
Cd256 O257 2.317 . S
O257 Cd256 2.317 . S
O257 C258 1.232 . S
C258 O257 1.232 . S
C258 O259 1.218 . S
O259 C258 1.218 . S
C260 O253 1.275 . S
C260 O255 1.255 1_455 S
C261 O262 1.258 1_655 S
C261 O263 1.256 . S
O262 Cd254 2.381 1_455 S
O262 C261 1.258 1_455 S
O263 Cd254 2.378 . S
O263 C261 1.256 . S
H264 C267 0.931 . S
H265 C270 0.928 . S
H266 C272 0.930 . S
C267 H264 0.931 . S
C267 C268 1.413 . S
C267 C269 1.360 . S
C268 C267 1.413 . S
C268 C272 1.429 . S
C269 C267 1.360 . S
C269 C270 1.372 . S
C270 H265 0.928 . S
C270 C269 1.372 . S
C270 C271 1.404 . S
C271 C270 1.404 . S
C271 C272 1.391 . S
C272 H266 0.930 . S
C272 C268 1.429 . S
C272 C271 1.391 . S
H273 C276 0.931 . S
H274 C279 0.928 . S
H275 C281 0.930 . S
C276 H273 0.931 . S
C276 C277 1.413 . S
C276 C278 1.360 . S
C277 C276 1.413 . S
C277 C281 1.429 . S
C278 C276 1.360 . S
C278 C279 1.372 . S
C279 H274 0.928 . S
C279 C278 1.372 . S
C279 C280 1.404 . S
C280 C279 1.404 . S
C280 C281 1.391 . S
C281 H275 0.930 . S
C281 C277 1.429 . S
C281 C280 1.391 . S
H282 C285 0.931 . S
H283 C288 0.928 . S
H284 C290 0.930 . S
C285 H282 0.931 . S
C285 C286 1.413 . S
C285 C287 1.360 1_565 S
C286 C285 1.413 . S
C286 C290 1.429 . S
C287 C285 1.360 1_545 S
C287 C288 1.372 . S
C288 H283 0.928 . S
C288 C287 1.372 . S
C288 C289 1.404 . S
C289 C288 1.404 . S
C289 C290 1.391 1_545 S
C290 H284 0.930 . S
C290 C286 1.429 . S
C290 C289 1.391 1_565 S
H291 C294 0.931 . S
H292 C297 0.928 . S
H293 C299 0.930 . S
C294 H291 0.931 . S
C294 C295 1.413 . S
C294 C296 1.376 . S
C295 C294 1.413 . S
C295 C299 1.429 1_545 S
C296 C294 1.376 . S
C296 C297 1.356 1_545 S
C297 H292 0.928 . S
C297 C296 1.356 1_565 S
C297 C298 1.404 . S
C298 C297 1.404 . S
C298 C299 1.391 . S
C299 H293 0.930 . S
C299 C295 1.429 1_565 S
C299 C298 1.391 . S
H300 C303 0.931 . S
H301 C306 0.928 . S
H302 C308 0.930 . S
C303 H300 0.931 . S
C303 C304 1.413 . S
C303 C305 1.360 . S
C304 C303 1.413 . S
C304 C308 1.429 . S
C305 C303 1.360 . S
C305 C306 1.372 . S
C306 H301 0.928 . S
C306 C305 1.372 . S
C306 C307 1.404 . S
C307 C306 1.404 . S
C307 C308 1.391 . S
C308 H302 0.930 . S
C308 C304 1.429 . S
C308 C307 1.391 . S
H309 C312 0.931 . S
H310 C315 0.928 . S
H311 C317 0.930 . S
C312 H309 0.931 . S
C312 C313 1.413 . S
C312 C314 1.376 . S
C313 C312 1.413 . S
C313 C317 1.429 1_554 S
C314 C312 1.376 . S
C314 C315 1.356 1_554 S
C315 H310 0.928 . S
C315 C314 1.356 1_556 S
C315 C316 1.404 . S
C316 C315 1.404 . S
C316 C317 1.391 . S
C317 H311 0.930 . S
C317 C313 1.429 1_556 S
C317 C316 1.391 . S
H318 C321 0.931 . S
H319 C324 0.928 . S
H320 C326 0.930 . S
C321 H318 0.931 . S
C321 C322 1.413 . S
C321 C323 1.360 . S
C322 C321 1.413 . S
C322 C326 1.429 . S
C323 C321 1.360 . S
C323 C324 1.372 . S
C324 H319 0.928 . S
C324 C323 1.372 . S
C324 C325 1.404 . S
C325 C324 1.404 . S
C325 C326 1.391 . S
C326 H320 0.930 . S
C326 C322 1.429 . S
C326 C325 1.391 . S
H327 C330 0.931 . S
H328 C333 0.928 . S
H329 C335 0.930 . S
C330 H327 0.931 . S
C330 C331 1.413 . S
C330 C332 1.360 1_556 S
C331 C330 1.413 . S
C331 C335 1.429 . S
C332 C330 1.360 1_554 S
C332 C333 1.372 . S
C333 H328 0.928 . S
C333 C332 1.372 . S
C333 C334 1.404 . S
C334 C333 1.404 . S
C334 C335 1.391 1_554 S
C335 H329 0.930 . S
C335 C331 1.429 . S
C335 C334 1.391 1_556 S
H336 C339 0.931 . S
H337 C342 0.928 . S
H338 C344 0.930 . S
C339 H336 0.931 . S
C339 C340 1.413 . S
C339 C341 1.360 . S
C340 C339 1.413 . S
C340 C344 1.429 . S
C341 C339 1.360 . S
C341 C342 1.372 . S
C342 H337 0.928 . S
C342 C341 1.372 . S
C342 C343 1.404 . S
C343 C342 1.404 . S
C343 C344 1.391 . S
C344 H338 0.930 . S
C344 C340 1.429 . S
C344 C343 1.391 . S
H345 C348 0.931 . S
H346 C351 0.928 . S
H347 C353 0.930 . S
C348 H345 0.931 . S
C348 C349 1.413 . S
C348 C350 1.376 . S
C349 C348 1.413 . S
C349 C353 1.429 1_455 S
C350 C348 1.376 . S
C350 C351 1.356 1_455 S
C351 H346 0.928 . S
C351 C350 1.356 1_655 S
C351 C352 1.404 . S
C352 C351 1.404 . S
C352 C353 1.391 . S
C353 H347 0.930 . S
C353 C349 1.429 1_655 S
C353 C352 1.391 . S
H354 C357 0.931 . S
H355 C360 0.928 . S
H356 C362 0.930 . S
C357 H354 0.931 . S
C357 C358 1.413 . S
C357 C359 1.360 . S
C358 C357 1.413 . S
C358 C362 1.429 . S
C359 C357 1.360 . S
C359 C360 1.372 . S
C360 H355 0.928 . S
C360 C359 1.372 . S
C360 C361 1.404 . S
C361 C360 1.404 . S
C361 C362 1.391 . S
C362 H356 0.930 . S
C362 C358 1.429 . S
C362 C361 1.391 . S
H363 C366 0.931 . S
H364 C369 0.928 . S
H365 C371 0.930 . S
C366 H363 0.931 . S
C366 C367 1.413 . S
C366 C368 1.360 1_655 S
C367 C366 1.413 . S
C367 C371 1.429 . S
C368 C366 1.360 1_455 S
C368 C369 1.372 . S
C369 H364 0.928 . S
C369 C368 1.372 . S
C369 C370 1.404 . S
C370 C369 1.404 . S
C370 C371 1.391 1_455 S
C371 H365 0.930 . S
C371 C367 1.429 . S
C371 C370 1.391 1_655 S
H372 C375 0.931 . S
H373 C378 0.928 . S
H374 C380 0.930 . S
C375 H372 0.931 . S
C375 C376 1.413 . S
C375 C377 1.360 . S
C376 C375 1.413 . S
C376 C380 1.429 . S
C377 C375 1.360 . S
C377 C378 1.372 . S
C378 H373 0.928 . S
C378 C377 1.372 . S
C378 C379 1.404 . S
C379 C378 1.404 . S
C379 C380 1.391 . S
C380 H374 0.930 . S
C380 C376 1.429 . S
C380 C379 1.391 . S
H381 C384 0.931 . S
H382 C387 0.928 . S
H383 C389 0.930 . S
C384 H381 0.931 . S
C384 C385 1.413 . S
C384 C386 1.360 . S
C385 C384 1.413 . S
C385 C389 1.429 . S
C386 C384 1.360 . S
C386 C387 1.372 . S
C387 H382 0.928 . S
C387 C386 1.372 . S
C387 C388 1.404 . S
C388 C387 1.404 . S
C388 C389 1.391 . S
C389 H383 0.930 . S
C389 C385 1.429 . S
C389 C388 1.391 . S
H390 C393 0.931 . S
H391 C396 0.928 . S
H392 C398 0.930 . S
C393 H390 0.931 . S
C393 C394 1.413 . S
C393 C395 1.360 1_545 S
C394 C393 1.413 . S
C394 C398 1.429 . S
C395 C393 1.360 1_565 S
C395 C396 1.372 . S
C396 H391 0.928 . S
C396 C395 1.372 . S
C396 C397 1.404 . S
C397 C396 1.404 . S
C397 C398 1.391 1_565 S
C398 H392 0.930 . S
C398 C394 1.429 . S
C398 C397 1.391 1_545 S
H399 C402 0.931 . S
H400 C405 0.928 . S
H401 C407 0.930 . S
C402 H399 0.931 . S
C402 C403 1.413 . S
C402 C404 1.374 . S
C403 C402 1.413 . S
C403 C407 1.429 1_565 S
C404 C402 1.374 . S
C404 C405 1.358 1_565 S
C405 H400 0.928 . S
C405 C404 1.358 1_545 S
C405 C406 1.404 . S
C406 C405 1.404 . S
C406 C407 1.391 . S
C407 H401 0.930 . S
C407 C403 1.429 1_545 S
C407 C406 1.391 . S
H408 C411 0.931 . S
H409 C414 0.928 . S
H410 C416 0.930 . S
C411 H408 0.931 . S
C411 C412 1.413 . S
C411 C413 1.360 . S
C412 C411 1.413 . S
C412 C416 1.429 . S
C413 C411 1.360 . S
C413 C414 1.372 . S
C414 H409 0.928 . S
C414 C413 1.372 . S
C414 C415 1.404 . S
C415 C414 1.404 . S
C415 C416 1.391 . S
C416 H410 0.930 . S
C416 C412 1.429 . S
C416 C415 1.391 . S
H417 C420 0.931 . S
H418 C423 0.928 . S
H419 C425 0.930 . S
C420 H417 0.931 . S
C420 C421 1.413 . S
C420 C422 1.374 . S
C421 C420 1.413 . S
C421 C425 1.429 1_556 S
C422 C420 1.374 . S
C422 C423 1.358 1_556 S
C423 H418 0.928 . S
C423 C422 1.358 1_554 S
C423 C424 1.404 . S
C424 C423 1.404 . S
C424 C425 1.391 . S
C425 H419 0.930 . S
C425 C421 1.429 1_554 S
C425 C424 1.391 . S
H426 C429 0.931 . S
H427 C432 0.928 . S
H428 C434 0.930 . S
C429 H426 0.931 . S
C429 C430 1.413 . S
C429 C431 1.360 . S
C430 C429 1.413 . S
C430 C434 1.429 . S
C431 C429 1.360 . S
C431 C432 1.372 . S
C432 H427 0.928 . S
C432 C431 1.372 . S
C432 C433 1.404 . S
C433 C432 1.404 . S
C433 C434 1.391 . S
C434 H428 0.930 . S
C434 C430 1.429 . S
C434 C433 1.391 . S
H435 C438 0.931 . S
H436 C441 0.928 . S
H437 C443 0.930 . S
C438 H435 0.931 . S
C438 C439 1.413 . S
C438 C440 1.360 1_554 S
C439 C438 1.413 . S
C439 C443 1.429 . S
C440 C438 1.360 1_556 S
C440 C441 1.372 . S
C441 H436 0.928 . S
C441 C440 1.372 . S
C441 C442 1.404 . S
C442 C441 1.404 . S
C442 C443 1.391 1_556 S
C443 H437 0.930 . S
C443 C439 1.429 . S
C443 C442 1.391 1_554 S
H444 C447 0.931 . S
H445 C450 0.928 . S
H446 C452 0.930 . S
C447 H444 0.931 . S
C447 C448 1.413 . S
C447 C449 1.360 . S
C448 C447 1.413 . S
C448 C452 1.429 . S
C449 C447 1.360 . S
C449 C450 1.372 . S
C450 H445 0.928 . S
C450 C449 1.372 . S
C450 C451 1.404 . S
C451 C450 1.404 . S
C451 C452 1.391 . S
C452 H446 0.930 . S
C452 C448 1.429 . S
C452 C451 1.391 . S
H453 C456 0.931 . S
H454 C459 0.928 . S
H455 C461 0.930 . S
C456 H453 0.931 . S
C456 C457 1.413 . S
C456 C458 1.374 . S
C457 C456 1.413 . S
C457 C461 1.429 1_655 S
C458 C456 1.374 . S
C458 C459 1.358 1_655 S
C459 H454 0.928 . S
C459 C458 1.358 1_455 S
C459 C460 1.404 . S
C460 C459 1.404 . S
C460 C461 1.391 . S
C461 H455 0.930 . S
C461 C457 1.429 1_455 S
C461 C460 1.391 . S
H462 C465 0.931 . S
H463 C468 0.928 . S
H464 C470 0.930 . S
C465 H462 0.931 . S
C465 C466 1.413 . S
C465 C467 1.360 . S
C466 C465 1.413 . S
C466 C470 1.429 . S
C467 C465 1.360 . S
C467 C468 1.372 . S
C468 H463 0.928 . S
C468 C467 1.372 . S
C468 C469 1.404 . S
C469 C468 1.404 . S
C469 C470 1.391 . S
C470 H464 0.930 . S
C470 C466 1.429 . S
C470 C469 1.391 . S
H471 C474 0.931 . S
H472 C477 0.928 . S
H473 C479 0.930 . S
C474 H471 0.931 . S
C474 C475 1.413 . S
C474 C476 1.360 1_455 S
C475 C474 1.413 . S
C475 C479 1.429 . S
C476 C474 1.360 1_655 S
C476 C477 1.372 . S
C477 H472 0.928 . S
C477 C476 1.372 . S
C477 C478 1.404 . S
C478 C477 1.404 . S
C478 C479 1.391 1_655 S
C479 H473 0.930 . S
C479 C475 1.429 . S
C479 C478 1.391 1_455 S
H480 C488 0.929 . S
H481 C490 0.930 . S
H482 C492 0.930 . S
H483 C495 0.929 . S
H484 C498 0.930 . S
H485 C500 0.960 . S
H486 C500 0.960 . S
H487 C500 0.960 . S
C488 H480 0.929 . S
C488 C489 1.377 . S
C488 C490 1.384 . S
C489 C488 1.377 . S
C489 C495 1.390 . S
C490 H481 0.930 . S
C490 C488 1.384 . S
C490 C491 1.372 . S
C491 C490 1.372 . S
C491 C492 1.400 . S
C491 C496 1.490 . S
C492 H482 0.930 . S
C492 C491 1.400 . S
C492 C495 1.386 . S
H493 C509 0.930 . S
H494 C510 0.931 . S
C495 H483 0.929 . S
C495 C489 1.390 . S
C495 C492 1.386 . S
C496 C491 1.490 . S
C496 C498 1.395 . S
C496 C499 1.403 . S
H497 C503 0.930 . S
C498 H484 0.930 . S
C498 C496 1.395 . S
C498 C501 1.403 . S
C499 C496 1.403 . S
C499 C500 1.524 . S
C499 C503 1.400 . S
C500 H485 0.960 . S
C500 H486 0.960 . S
C500 H487 0.960 . S
C500 C499 1.524 . S
C501 C498 1.403 . S
C501 C502 1.392 . S
C501 C505 1.495 . S
C502 C501 1.392 . S
C502 C503 1.385 . S
C502 C504 1.478 . S
C503 H497 0.930 . S
C503 C499 1.400 . S
C503 C502 1.385 . S
C504 C502 1.478 . S
C504 C506 1.381 . S
C504 C510 1.383 . S
C505 C501 1.495 . S
C505 H511 0.959 . S
C505 H512 0.961 . S
C505 H513 0.960 . S
C506 C504 1.381 . S
C506 C507 1.394 . S
C506 H514 0.930 . S
C507 C506 1.394 . S
C507 C508 1.383 . S
C507 H515 0.929 . S
C508 C507 1.383 . S
C508 C509 1.377 . S
C509 H493 0.930 . S
C509 C508 1.377 . S
C509 C510 1.379 . S
C510 H494 0.931 . S
C510 C504 1.383 . S
C510 C509 1.379 . S
H511 C505 0.959 . S
H512 C505 0.961 . S
H513 C505 0.960 . S
H514 C506 0.930 . S
H515 C507 0.929 . S
H516 C524 0.929 . S
H517 C526 0.930 . S
H518 C528 0.930 . S
H519 C531 0.929 . S
H520 C534 0.930 . S
H521 C536 0.960 . S
H522 C536 0.960 . S
H523 C536 0.960 . S
C524 H516 0.929 . S
C524 C525 1.377 . S
C524 C526 1.384 . S
C525 C524 1.377 . S
C525 C531 1.390 . S
C526 H517 0.930 . S
C526 C524 1.384 . S
C526 C527 1.372 . S
C527 C526 1.372 . S
C527 C528 1.400 . S
C527 C532 1.490 . S
C528 H518 0.930 . S
C528 C527 1.400 . S
C528 C531 1.386 . S
H529 C545 0.930 . S
H530 C546 0.931 . S
C531 H519 0.929 . S
C531 C525 1.390 . S
C531 C528 1.386 . S
C532 C527 1.490 . S
C532 C534 1.395 . S
C532 C535 1.403 . S
H533 C539 0.930 . S
C534 H520 0.930 . S
C534 C532 1.395 . S
C534 C537 1.403 . S
C535 C532 1.403 . S
C535 C536 1.524 . S
C535 C539 1.400 . S
C536 H521 0.960 . S
C536 H522 0.960 . S
C536 H523 0.960 . S
C536 C535 1.524 . S
C537 C534 1.403 . S
C537 C538 1.392 . S
C537 C541 1.495 . S
C538 C537 1.392 . S
C538 C539 1.385 . S
C538 C540 1.478 . S
C539 H533 0.930 . S
C539 C535 1.400 . S
C539 C538 1.385 . S
C540 C538 1.478 . S
C540 C542 1.381 . S
C540 C546 1.383 . S
C541 C537 1.495 . S
C541 H547 0.959 . S
C541 H548 0.961 . S
C541 H549 0.960 . S
C542 C540 1.381 . S
C542 C543 1.394 . S
C542 H550 0.930 . S
C543 C542 1.394 . S
C543 C544 1.383 . S
C543 H551 0.929 . S
C544 C543 1.383 . S
C544 C545 1.377 . S
C545 H529 0.930 . S
C545 C544 1.377 . S
C545 C546 1.379 . S
C546 H530 0.931 . S
C546 C540 1.383 . S
C546 C545 1.379 . S
H547 C541 0.959 . S
H548 C541 0.961 . S
H549 C541 0.960 . S
H550 C542 0.930 . S
H551 C543 0.929 . S
H552 C560 0.929 . S
H553 C562 0.930 1_565 S
H554 C564 0.930 . S
H555 C567 0.929 . S
H556 C570 0.930 . S
H557 C572 0.960 . S
H558 C572 0.960 . S
H559 C572 0.960 . S
C560 H552 0.929 . S
C560 C561 1.377 1_565 S
C560 C562 1.384 1_565 S
C561 C560 1.377 1_545 S
C561 C567 1.390 . S
C562 H553 0.930 1_545 S
C562 C560 1.384 1_545 S
C562 C563 1.372 . S
C563 C562 1.372 . S
C563 C564 1.400 . S
C563 C568 1.490 . S
C564 H554 0.930 . S
C564 C563 1.400 . S
C564 C567 1.386 . S
H565 C581 0.930 . S
H566 C582 0.931 . S
C567 H555 0.929 . S
C567 C561 1.390 . S
C567 C564 1.386 . S
C568 C563 1.490 . S
C568 C570 1.395 . S
C568 C571 1.403 . S
H569 C575 0.930 . S
C570 H556 0.930 . S
C570 C568 1.395 . S
C570 C573 1.403 . S
C571 C568 1.403 . S
C571 C572 1.524 . S
C571 C575 1.400 . S
C572 H557 0.960 . S
C572 H558 0.960 . S
C572 H559 0.960 . S
C572 C571 1.524 . S
C573 C570 1.403 . S
C573 C574 1.392 . S
C573 C577 1.495 . S
C574 C573 1.392 . S
C574 C575 1.385 . S
C574 C576 1.478 . S
C575 H569 0.930 . S
C575 C571 1.400 . S
C575 C574 1.385 . S
C576 C574 1.478 . S
C576 C578 1.381 . S
C576 C582 1.383 . S
C577 C573 1.495 . S
C577 H583 0.968 . S
C577 H584 0.961 . S
C577 H585 0.960 . S
C578 C576 1.381 . S
C578 C579 1.394 . S
C578 H586 0.930 . S
C579 C578 1.394 . S
C579 C580 1.383 . S
C579 H587 0.929 . S
C580 C579 1.383 . S
C580 C581 1.377 . S
C581 H565 0.930 . S
C581 C580 1.377 . S
C581 C582 1.379 . S
C582 H566 0.931 . S
C582 C576 1.383 . S
C582 C581 1.379 . S
H583 C577 0.968 . S
H584 C577 0.961 . S
H585 C577 0.960 . S
H586 C578 0.930 . S
H587 C579 0.929 . S
H588 C596 0.929 . S
H589 C598 0.930 . S
H590 C600 0.930 . S
H591 C603 0.929 1_545 S
H592 C606 0.930 . S
H593 C608 0.960 . S
H594 C608 0.967 . S
H595 C608 0.960 . S
C596 H588 0.929 . S
C596 C597 1.377 . S
C596 C598 1.384 . S
C597 C596 1.377 . S
C597 C603 1.390 . S
C598 H589 0.930 . S
C598 C596 1.384 . S
C598 C599 1.372 . S
C599 C598 1.372 . S
C599 C600 1.400 . S
C599 C604 1.490 . S
C600 H590 0.930 . S
C600 C599 1.400 . S
C600 C603 1.386 . S
H601 C617 0.930 . S
H602 C618 0.931 . S
C603 H591 0.929 1_565 S
C603 C597 1.390 . S
C603 C600 1.386 . S
C604 C599 1.490 . S
C604 C606 1.395 . S
C604 C607 1.403 . S
H605 C611 0.930 . S
C606 H592 0.930 . S
C606 C604 1.395 . S
C606 C609 1.403 . S
C607 C604 1.403 . S
C607 C608 1.524 1_565 S
C607 C611 1.400 . S
C608 H593 0.960 . S
C608 H594 0.967 . S
C608 H595 0.960 . S
C608 C607 1.524 1_545 S
C609 C606 1.403 . S
C609 C610 1.392 . S
C609 C613 1.495 . S
C610 C609 1.392 . S
C610 C611 1.385 . S
C610 C612 1.478 . S
C611 H605 0.930 . S
C611 C607 1.400 . S
C611 C610 1.385 . S
C612 C610 1.478 . S
C612 C614 1.381 . S
C612 C618 1.383 . S
C613 C609 1.495 . S
C613 H619 0.959 . S
C613 H620 0.961 . S
C613 H621 0.960 . S
C614 C612 1.381 . S
C614 C615 1.394 . S
C614 H622 0.930 . S
C615 C614 1.394 . S
C615 C616 1.383 . S
C615 H623 0.929 . S
C616 C615 1.383 . S
C616 C617 1.377 . S
C617 H601 0.930 . S
C617 C616 1.377 . S
C617 C618 1.379 . S
C618 H602 0.931 . S
C618 C612 1.383 . S
C618 C617 1.379 . S
H619 C613 0.959 . S
H620 C613 0.961 . S
H621 C613 0.960 . S
H622 C614 0.930 . S
H623 C615 0.929 . S
H624 C632 0.929 . S
H625 C634 0.930 . S
H626 C636 0.930 . S
H627 C639 0.929 . S
H628 C642 0.930 . S
H629 C644 0.960 . S
H630 C644 0.960 . S
H631 C644 0.960 . S
C632 H624 0.929 . S
C632 C633 1.377 . S
C632 C634 1.384 . S
C633 C632 1.377 . S
C633 C639 1.390 . S
C634 H625 0.930 . S
C634 C632 1.384 . S
C634 C635 1.372 . S
C635 C634 1.372 . S
C635 C636 1.400 . S
C635 C640 1.490 . S
C636 H626 0.930 . S
C636 C635 1.400 . S
C636 C639 1.386 . S
H637 C653 0.930 . S
H638 C654 0.931 . S
C639 H627 0.929 . S
C639 C633 1.390 . S
C639 C636 1.386 . S
C640 C635 1.490 . S
C640 C642 1.395 . S
C640 C643 1.403 . S
H641 C647 0.930 . S
C642 H628 0.930 . S
C642 C640 1.395 . S
C642 C645 1.403 . S
C643 C640 1.403 . S
C643 C644 1.524 . S
C643 C647 1.400 . S
C644 H629 0.960 . S
C644 H630 0.960 . S
C644 H631 0.960 . S
C644 C643 1.524 . S
C645 C642 1.403 . S
C645 C646 1.392 . S
C645 C649 1.495 . S
C646 C645 1.392 . S
C646 C647 1.385 . S
C646 C648 1.478 . S
C647 H641 0.930 . S
C647 C643 1.400 . S
C647 C646 1.385 . S
C648 C646 1.478 . S
C648 C650 1.381 . S
C648 C654 1.383 . S
C649 C645 1.495 . S
C649 H655 0.959 . S
C649 H656 0.961 . S
C649 H657 0.960 . S
C650 C648 1.381 . S
C650 C651 1.394 . S
C650 H658 0.930 . S
C651 C650 1.394 . S
C651 C652 1.383 . S
C651 H659 0.929 . S
C652 C651 1.383 . S
C652 C653 1.377 . S
C653 H637 0.930 . S
C653 C652 1.377 . S
C653 C654 1.379 . S
C654 H638 0.931 . S
C654 C648 1.383 . S
C654 C653 1.379 . S
H655 C649 0.959 . S
H656 C649 0.961 . S
H657 C649 0.960 . S
H658 C650 0.930 . S
H659 C651 0.929 . S
H660 C668 0.929 . S
H661 C670 0.930 1_554 S
H662 C672 0.930 . S
H663 C675 0.929 . S
H664 C678 0.930 . S
H665 C680 0.960 . S
H666 C680 0.960 . S
H667 C680 0.960 . S
C668 H660 0.929 . S
C668 C669 1.377 1_554 S
C668 C670 1.384 1_554 S
C669 C668 1.377 1_556 S
C669 C675 1.390 . S
C670 H661 0.930 1_556 S
C670 C668 1.384 1_556 S
C670 C671 1.372 . S
C671 C670 1.372 . S
C671 C672 1.400 . S
C671 C676 1.490 . S
C672 H662 0.930 . S
C672 C671 1.400 . S
C672 C675 1.386 . S
H673 C689 0.930 . S
H674 C690 0.931 . S
C675 H663 0.929 . S
C675 C669 1.390 . S
C675 C672 1.386 . S
C676 C671 1.490 . S
C676 C678 1.395 . S
C676 C679 1.403 . S
H677 C683 0.930 . S
C678 H664 0.930 . S
C678 C676 1.395 . S
C678 C681 1.403 . S
C679 C676 1.403 . S
C679 C680 1.524 . S
C679 C683 1.400 . S
C680 H665 0.960 . S
C680 H666 0.960 . S
C680 H667 0.960 . S
C680 C679 1.524 . S
C681 C678 1.403 . S
C681 C682 1.392 . S
C681 C685 1.495 . S
C682 C681 1.392 . S
C682 C683 1.385 . S
C682 C684 1.478 . S
C683 H677 0.930 . S
C683 C679 1.400 . S
C683 C682 1.385 . S
C684 C682 1.478 . S
C684 C686 1.381 . S
C684 C690 1.383 . S
C685 C681 1.495 . S
C685 H691 0.959 . S
C685 H692 0.961 . S
C685 H693 0.960 . S
C686 C684 1.381 . S
C686 C687 1.394 . S
C686 H694 0.930 . S
C687 C686 1.394 . S
C687 C688 1.383 . S
C687 H695 0.929 . S
C688 C687 1.383 . S
C688 C689 1.377 . S
C689 H673 0.930 . S
C689 C688 1.377 . S
C689 C690 1.379 . S
C690 H674 0.931 . S
C690 C684 1.383 . S
C690 C689 1.379 . S
H691 C685 0.959 . S
H692 C685 0.961 . S
H693 C685 0.960 . S
H694 C686 0.930 . S
H695 C687 0.929 . S
H696 C704 0.929 . S
H697 C706 0.930 . S
H698 C708 0.930 . S
H699 C711 0.929 . S
H700 C714 0.930 . S
H701 C716 0.960 . S
H702 C716 0.960 . S
H703 C716 0.960 . S
C704 H696 0.929 . S
C704 C705 1.377 . S
C704 C706 1.384 . S
C705 C704 1.377 . S
C705 C711 1.390 . S
C706 H697 0.930 . S
C706 C704 1.384 . S
C706 C707 1.372 . S
C707 C706 1.372 . S
C707 C708 1.400 . S
C707 C712 1.490 . S
C708 H698 0.930 . S
C708 C707 1.400 . S
C708 C711 1.386 . S
H709 C725 0.930 . S
H710 C726 0.931 . S
C711 H699 0.929 . S
C711 C705 1.390 . S
C711 C708 1.386 . S
C712 C707 1.490 . S
C712 C714 1.395 . S
C712 C715 1.403 . S
H713 C719 0.930 . S
C714 H700 0.930 . S
C714 C712 1.395 . S
C714 C717 1.403 . S
C715 C712 1.403 . S
C715 C716 1.524 . S
C715 C719 1.400 . S
C716 H701 0.960 . S
C716 H702 0.960 . S
C716 H703 0.960 . S
C716 C715 1.524 . S
C717 C714 1.403 . S
C717 C718 1.392 . S
C717 C721 1.495 . S
C718 C717 1.392 . S
C718 C719 1.385 . S
C718 C720 1.478 . S
C719 H713 0.930 . S
C719 C715 1.400 . S
C719 C718 1.385 . S
C720 C718 1.478 . S
C720 C722 1.381 . S
C720 C726 1.383 . S
C721 C717 1.495 . S
C721 H727 0.959 . S
C721 H728 0.961 . S
C721 H729 0.960 . S
C722 C720 1.381 . S
C722 C723 1.394 . S
C722 H730 0.930 . S
C723 C722 1.394 . S
C723 C724 1.383 . S
C723 H731 0.929 . S
C724 C723 1.383 . S
C724 C725 1.377 . S
C725 H709 0.930 . S
C725 C724 1.377 . S
C725 C726 1.379 . S
C726 H710 0.931 . S
C726 C720 1.383 . S
C726 C725 1.379 . S
H727 C721 0.959 . S
H728 C721 0.961 . S
H729 C721 0.960 . S
H730 C722 0.930 . S
H731 C723 0.929 . S
H732 C740 0.929 . S
H733 C742 0.930 . S
H734 C744 0.930 1_556 S
H735 C747 0.929 . S
H736 C750 0.930 . S
H737 C752 0.960 . S
H738 C752 0.960 . S
H739 C752 0.960 . S
C740 H732 0.929 . S
C740 C741 1.377 . S
C740 C742 1.384 . S
C741 C740 1.377 . S
C741 C747 1.390 1_554 S
C742 H733 0.930 . S
C742 C740 1.384 . S
C742 C743 1.372 . S
C743 C742 1.372 . S
C743 C744 1.400 . S
C743 C748 1.490 . S
C744 H734 0.930 1_554 S
C744 C743 1.400 . S
C744 C747 1.386 1_554 S
H745 C761 0.930 . S
H746 C762 0.931 . S
C747 H735 0.929 . S
C747 C741 1.390 1_556 S
C747 C744 1.386 1_556 S
C748 C743 1.490 . S
C748 C750 1.395 . S
C748 C751 1.403 . S
H749 C755 0.930 . S
C750 H736 0.930 . S
C750 C748 1.395 . S
C750 C753 1.403 . S
C751 C748 1.403 . S
C751 C752 1.524 . S
C751 C755 1.400 . S
C752 H737 0.960 . S
C752 H738 0.960 . S
C752 H739 0.960 . S
C752 C751 1.524 . S
C753 C750 1.403 . S
C753 C754 1.392 . S
C753 C757 1.495 . S
C754 C753 1.392 . S
C754 C755 1.385 . S
C754 C756 1.478 . S
C755 H749 0.930 . S
C755 C751 1.400 . S
C755 C754 1.385 . S
C756 C754 1.478 . S
C756 C758 1.381 . S
C756 C762 1.383 . S
C757 C753 1.495 . S
C757 H763 0.959 . S
C757 H764 0.961 . S
C757 H765 0.960 . S
C758 C756 1.381 . S
C758 C759 1.394 . S
C758 H766 0.930 . S
C759 C758 1.394 . S
C759 C760 1.383 . S
C759 H767 0.929 . S
C760 C759 1.383 . S
C760 C761 1.377 . S
C761 H745 0.930 . S
C761 C760 1.377 . S
C761 C762 1.379 . S
C762 H746 0.931 . S
C762 C756 1.383 . S
C762 C761 1.379 . S
H763 C757 0.959 . S
H764 C757 0.961 . S
H765 C757 0.960 . S
H766 C758 0.930 . S
H767 C759 0.929 . S
H768 C776 0.929 . S
H769 C778 0.930 . S
H770 C780 0.930 . S
H771 C783 0.929 . S
H772 C786 0.930 . S
H773 C788 0.960 . S
H774 C788 0.960 . S
H775 C788 0.960 . S
C776 H768 0.929 . S
C776 C777 1.377 . S
C776 C778 1.384 . S
C777 C776 1.377 . S
C777 C783 1.390 . S
C778 H769 0.930 . S
C778 C776 1.384 . S
C778 C779 1.372 . S
C779 C778 1.372 . S
C779 C780 1.400 . S
C779 C784 1.490 . S
C780 H770 0.930 . S
C780 C779 1.400 . S
C780 C783 1.386 . S
H781 C797 0.930 . S
H782 C798 0.931 . S
C783 H771 0.929 . S
C783 C777 1.390 . S
C783 C780 1.386 . S
C784 C779 1.490 . S
C784 C786 1.395 . S
C784 C787 1.403 . S
H785 C791 0.930 . S
C786 H772 0.930 . S
C786 C784 1.395 . S
C786 C789 1.403 . S
C787 C784 1.403 . S
C787 C788 1.524 . S
C787 C791 1.400 . S
C788 H773 0.960 . S
C788 H774 0.960 . S
C788 H775 0.960 . S
C788 C787 1.524 . S
C789 C786 1.403 . S
C789 C790 1.392 . S
C789 C793 1.495 . S
C790 C789 1.392 . S
C790 C791 1.385 . S
C790 C792 1.478 . S
C791 H785 0.930 . S
C791 C787 1.400 . S
C791 C790 1.385 . S
C792 C790 1.478 . S
C792 C794 1.381 . S
C792 C798 1.383 . S
C793 C789 1.495 . S
C793 H799 0.959 . S
C793 H800 0.961 . S
C793 H801 0.960 . S
C794 C792 1.381 . S
C794 C795 1.394 . S
C794 H802 0.930 . S
C795 C794 1.394 . S
C795 C796 1.383 . S
C795 H803 0.929 . S
C796 C795 1.383 . S
C796 C797 1.377 . S
C797 H781 0.930 . S
C797 C796 1.377 . S
C797 C798 1.379 . S
C798 H782 0.931 . S
C798 C792 1.383 . S
C798 C797 1.379 . S
H799 C793 0.959 . S
H800 C793 0.961 . S
H801 C793 0.960 . S
H802 C794 0.930 . S
H803 C795 0.929 . S
H804 C812 0.937 . S
H805 C814 0.930 1_455 S
H806 C816 0.930 . S
H807 C819 0.929 . S
H808 C822 0.930 . S
H809 C824 0.960 . S
H810 C824 0.960 . S
H811 C824 0.960 . S
C812 H804 0.937 . S
C812 C813 1.372 1_455 S
C812 C814 1.381 1_455 S
C813 C812 1.372 1_655 S
C813 C819 1.390 . S
C814 H805 0.930 1_655 S
C814 C812 1.381 1_655 S
C814 C815 1.372 . S
C815 C814 1.372 . S
C815 C816 1.400 . S
C815 C820 1.490 . S
C816 H806 0.930 . S
C816 C815 1.400 . S
C816 C819 1.386 . S
H817 C833 0.930 . S
H818 C834 0.931 . S
C819 H807 0.929 . S
C819 C813 1.390 . S
C819 C816 1.386 . S
C820 C815 1.490 . S
C820 C822 1.395 . S
C820 C823 1.403 . S
H821 C827 0.930 . S
C822 H808 0.930 . S
C822 C820 1.395 . S
C822 C825 1.403 . S
C823 C820 1.403 . S
C823 C824 1.524 . S
C823 C827 1.400 . S
C824 H809 0.960 . S
C824 H810 0.960 . S
C824 H811 0.960 . S
C824 C823 1.524 . S
C825 C822 1.403 . S
C825 C826 1.392 . S
C825 C829 1.495 . S
C826 C825 1.392 . S
C826 C827 1.385 . S
C826 C828 1.478 . S
C827 H821 0.930 . S
C827 C823 1.400 . S
C827 C826 1.385 . S
C828 C826 1.478 . S
C828 C830 1.381 . S
C828 C834 1.383 . S
C829 C825 1.495 . S
C829 H835 0.959 1_655 S
C829 H836 0.961 . S
C829 H837 0.960 . S
C830 C828 1.381 . S
C830 C831 1.394 . S
C830 H838 0.930 . S
C831 C830 1.394 . S
C831 C832 1.383 . S
C831 H839 0.929 . S
C832 C831 1.383 . S
C832 C833 1.377 . S
C833 H817 0.930 . S
C833 C832 1.377 . S
C833 C834 1.379 . S
C834 H818 0.931 . S
C834 C828 1.383 . S
C834 C833 1.379 . S
H835 C829 0.959 1_455 S
H836 C829 0.961 . S
H837 C829 0.960 . S
H838 C830 0.930 . S
H839 C831 0.929 . S
H840 C848 0.929 . S
H841 C850 0.930 . S
H842 C852 0.930 . S
H843 C855 0.929 . S
H844 C858 0.930 . S
H845 C860 0.960 . S
H846 C860 0.960 . S
H847 C860 0.960 . S
C848 H840 0.929 . S
C848 C849 1.377 . S
C848 C850 1.384 . S
C849 C848 1.377 . S
C849 C855 1.390 . S
C850 H841 0.930 . S
C850 C848 1.384 . S
C850 C851 1.372 . S
C851 C850 1.372 . S
C851 C852 1.400 . S
C851 C856 1.490 . S
C852 H842 0.930 . S
C852 C851 1.400 . S
C852 C855 1.386 . S
H853 C869 0.930 . S
H854 C870 0.931 . S
C855 H843 0.929 . S
C855 C849 1.390 . S
C855 C852 1.386 . S
C856 C851 1.490 . S
C856 C858 1.395 . S
C856 C859 1.403 . S
H857 C863 0.930 . S
C858 H844 0.930 . S
C858 C856 1.395 . S
C858 C861 1.403 . S
C859 C856 1.403 . S
C859 C860 1.524 . S
C859 C863 1.400 . S
C860 H845 0.960 . S
C860 H846 0.960 . S
C860 H847 0.960 . S
C860 C859 1.524 . S
C861 C858 1.403 . S
C861 C862 1.392 . S
C861 C865 1.495 . S
C862 C861 1.392 . S
C862 C863 1.385 . S
C862 C864 1.478 . S
C863 H857 0.930 . S
C863 C859 1.400 . S
C863 C862 1.385 . S
C864 C862 1.478 . S
C864 C866 1.381 . S
C864 C870 1.383 . S
C865 C861 1.495 . S
C865 H871 0.959 . S
C865 H872 0.961 . S
C865 H873 0.960 . S
C866 C864 1.381 . S
C866 C867 1.394 . S
C866 H874 0.930 . S
C867 C866 1.394 . S
C867 C868 1.383 . S
C867 H875 0.929 . S
C868 C867 1.383 . S
C868 C869 1.377 . S
C869 H853 0.930 . S
C869 C868 1.377 . S
C869 C870 1.379 . S
C870 H854 0.931 . S
C870 C864 1.383 . S
C870 C869 1.379 . S
H871 C865 0.959 . S
H872 C865 0.961 . S
H873 C865 0.960 . S
H874 C866 0.930 . S
H875 C867 0.929 . S
H876 C884 0.941 . S
H877 C886 0.930 . S
H878 C888 0.930 . S
H879 C891 0.929 . S
H880 C894 0.930 . S
H881 C896 0.960 . S
H882 C896 0.960 1_655 S
H883 C896 0.960 . S
C884 H876 0.941 . S
C884 C885 1.377 . S
C884 C886 1.384 . S
C885 C884 1.377 . S
C885 C891 1.390 . S
C886 H877 0.930 . S
C886 C884 1.384 . S
C886 C887 1.372 . S
C887 C886 1.372 . S
C887 C888 1.400 . S
C887 C892 1.490 . S
C888 H878 0.930 . S
C888 C887 1.400 . S
C888 C891 1.386 . S
H889 C905 0.930 . S
H890 C906 0.931 . S
C891 H879 0.929 . S
C891 C885 1.390 . S
C891 C888 1.386 . S
C892 C887 1.490 . S
C892 C894 1.395 . S
C892 C895 1.403 . S
H893 C899 0.930 . S
C894 H880 0.930 . S
C894 C892 1.395 . S
C894 C897 1.403 . S
C895 C892 1.403 . S
C895 C896 1.524 . S
C895 C899 1.400 . S
C896 H881 0.960 . S
C896 H882 0.960 1_455 S
C896 H883 0.960 . S
C896 C895 1.524 . S
C897 C894 1.403 . S
C897 C898 1.392 . S
C897 C901 1.495 . S
C898 C897 1.392 . S
C898 C899 1.385 . S
C898 C900 1.478 . S
C899 H893 0.930 . S
C899 C895 1.400 . S
C899 C898 1.385 . S
C900 C898 1.478 . S
C900 C902 1.381 . S
C900 C906 1.383 . S
C901 C897 1.495 . S
C901 H907 0.959 . S
C901 H908 0.961 . S
C901 H909 0.960 . S
C902 C900 1.381 . S
C902 C903 1.394 . S
C902 H910 0.930 . S
C903 C902 1.394 . S
C903 C904 1.383 . S
C903 H911 0.929 . S
C904 C903 1.383 . S
C904 C905 1.377 . S
C905 H889 0.930 . S
C905 C904 1.377 . S
C905 C906 1.379 . S
C906 H890 0.931 . S
C906 C900 1.383 . S
C906 C905 1.379 . S
H907 C901 0.959 . S
H908 C901 0.961 . S
H909 C901 0.960 . S
H910 C902 0.930 . S
H911 C903 0.929 . S
H912 C920 0.929 . S
H913 C922 0.930 . S
H914 C924 0.930 . S
H915 C927 0.929 . S
H916 C930 0.930 . S
H917 C932 0.960 . S
H918 C932 0.960 . S
H919 C932 0.960 . S
C920 H912 0.929 . S
C920 C921 1.377 . S
C920 C922 1.384 . S
C921 C920 1.377 . S
C921 C927 1.390 . S
C922 H913 0.930 . S
C922 C920 1.384 . S
C922 C923 1.372 . S
C923 C922 1.372 . S
C923 C924 1.400 . S
C923 C928 1.490 . S
C924 H914 0.930 . S
C924 C923 1.400 . S
C924 C927 1.386 . S
H925 C941 0.930 . S
H926 C942 0.931 . S
C927 H915 0.929 . S
C927 C921 1.390 . S
C927 C924 1.386 . S
C928 C923 1.490 . S
C928 C930 1.395 . S
C928 C931 1.403 . S
H929 C935 0.930 . S
C930 H916 0.930 . S
C930 C928 1.395 . S
C930 C933 1.403 . S
C931 C928 1.403 . S
C931 C932 1.524 . S
C931 C935 1.400 . S
C932 H917 0.960 . S
C932 H918 0.960 . S
C932 H919 0.960 . S
C932 C931 1.524 . S
C933 C930 1.403 . S
C933 C934 1.392 . S
C933 C937 1.495 . S
C934 C933 1.392 . S
C934 C935 1.385 . S
C934 C936 1.478 . S
C935 H929 0.930 . S
C935 C931 1.400 . S
C935 C934 1.385 . S
C936 C934 1.478 . S
C936 C938 1.381 . S
C936 C942 1.383 . S
C937 C933 1.495 . S
C937 H943 0.959 . S
C937 H944 0.961 . S
C937 H945 0.960 . S
C938 C936 1.381 . S
C938 C939 1.394 . S
C938 H946 0.930 . S
C939 C938 1.394 . S
C939 C940 1.383 . S
C939 H947 0.929 . S
C940 C939 1.383 . S
C940 C941 1.377 . S
C941 H925 0.930 . S
C941 C940 1.377 . S
C941 C942 1.379 . S
C942 H926 0.931 . S
C942 C936 1.383 . S
C942 C941 1.379 . S
H943 C937 0.959 . S
H944 C937 0.961 . S
H945 C937 0.960 . S
H946 C938 0.930 . S
H947 C939 0.929 . S
H948 C956 0.929 . S
H949 C958 0.930 . S
H950 C960 0.930 . S
H951 C963 0.929 . S
H952 C966 0.930 . S
H953 C968 0.960 . S
H954 C968 0.960 . S
H955 C968 0.960 . S
C956 H948 0.929 . S
C956 C957 1.377 . S
C956 C958 1.384 . S
C957 C956 1.377 . S
C957 C963 1.390 . S
C958 H949 0.930 . S
C958 C956 1.384 . S
C958 C959 1.372 . S
C959 C958 1.372 . S
C959 C960 1.400 . S
C959 C964 1.490 . S
C960 H950 0.930 . S
C960 C959 1.400 . S
C960 C963 1.386 . S
H961 C977 0.930 . S
H962 C978 0.931 . S
C963 H951 0.929 . S
C963 C957 1.390 . S
C963 C960 1.386 . S
C964 C959 1.490 . S
C964 C966 1.395 . S
C964 C967 1.403 . S
H965 C971 0.930 . S
C966 H952 0.930 . S
C966 C964 1.395 . S
C966 C969 1.403 . S
C967 C964 1.403 . S
C967 C968 1.524 . S
C967 C971 1.400 . S
C968 H953 0.960 . S
C968 H954 0.960 . S
C968 H955 0.960 . S
C968 C967 1.524 . S
C969 C966 1.403 . S
C969 C970 1.392 . S
C969 C973 1.495 . S
C970 C969 1.392 . S
C970 C971 1.385 . S
C970 C972 1.478 . S
C971 H965 0.930 . S
C971 C967 1.400 . S
C971 C970 1.385 . S
C972 C970 1.478 . S
C972 C974 1.381 . S
C972 C978 1.383 . S
C973 C969 1.495 . S
C973 H979 0.959 . S
C973 H980 0.961 . S
C973 H981 0.960 . S
C974 C972 1.381 . S
C974 C975 1.394 . S
C974 H982 0.930 . S
C975 C974 1.394 . S
C975 C976 1.383 . S
C975 H983 0.929 . S
C976 C975 1.383 . S
C976 C977 1.377 . S
C977 H961 0.930 . S
C977 C976 1.377 . S
C977 C978 1.379 . S
C978 H962 0.931 . S
C978 C972 1.383 . S
C978 C977 1.379 . S
H979 C973 0.959 . S
H980 C973 0.961 . S
H981 C973 0.960 . S
H982 C974 0.930 . S
H983 C975 0.929 . S
H984 C992 0.929 . S
H985 C994 0.930 . S
H986 C996 0.930 . S
H987 C999 0.929 1_545 S
H988 C1002 0.930 . S
H989 C1004 0.960 . S
H990 C1004 0.960 . S
H991 C1004 0.960 . S
C992 H984 0.929 . S
C992 C993 1.377 . S
C992 C994 1.384 . S
C993 C992 1.377 . S
C993 C999 1.390 . S
C994 H985 0.930 . S
C994 C992 1.384 . S
C994 C995 1.372 . S
C995 C994 1.372 . S
C995 C996 1.400 . S
C995 C1000 1.490 . S
C996 H986 0.930 . S
C996 C995 1.400 . S
C996 C999 1.386 . S
H997 C1013 0.930 . S
H998 C1014 0.931 . S
C999 H987 0.929 1_565 S
C999 C993 1.390 . S
C999 C996 1.386 . S
C1000 C995 1.490 . S
C1000 C1002 1.395 . S
C1000 C1003 1.403 . S
H1001 C1007 0.930 . S
C1002 H988 0.930 . S
C1002 C1000 1.395 . S
C1002 C1005 1.403 . S
C1003 C1000 1.403 . S
C1003 C1004 1.524 1_565 S
C1003 C1007 1.400 . S
C1004 H989 0.960 . S
C1004 H990 0.960 . S
C1004 H991 0.960 . S
C1004 C1003 1.524 1_545 S
C1005 C1002 1.403 . S
C1005 C1006 1.392 . S
C1005 C1009 1.495 . S
C1006 C1005 1.392 . S
C1006 C1007 1.385 . S
C1006 C1008 1.478 . S
C1007 H1001 0.930 . S
C1007 C1003 1.400 . S
C1007 C1006 1.385 . S
C1008 C1006 1.478 . S
C1008 C1010 1.381 . S
C1008 C1014 1.383 . S
C1009 C1005 1.495 . S
C1009 H1015 0.959 . S
C1009 H1016 0.961 . S
C1009 H1017 0.960 . S
C1010 C1008 1.381 . S
C1010 C1011 1.394 . S
C1010 H1018 0.930 . S
C1011 C1010 1.394 . S
C1011 C1012 1.383 . S
C1011 H1019 0.929 . S
C1012 C1011 1.383 . S
C1012 C1013 1.377 . S
C1013 H997 0.930 . S
C1013 C1012 1.377 . S
C1013 C1014 1.379 . S
C1014 H998 0.931 . S
C1014 C1008 1.383 . S
C1014 C1013 1.379 . S
H1015 C1009 0.959 . S
H1016 C1009 0.961 . S
H1017 C1009 0.960 . S
H1018 C1010 0.930 . S
H1019 C1011 0.929 . S
H1020 C1028 0.929 . S
H1021 C1030 0.930 . S
H1022 C1032 0.930 . S
H1023 C1035 0.929 1_565 S
H1024 C1038 0.930 . S
H1025 C1040 0.960 . S
H1026 C1040 0.960 . S
H1027 C1040 0.960 . S
C1028 H1020 0.929 . S
C1028 C1029 1.377 . S
C1028 C1030 1.384 . S
C1029 C1028 1.377 . S
C1029 C1035 1.390 . S
C1030 H1021 0.930 . S
C1030 C1028 1.384 . S
C1030 C1031 1.372 . S
C1031 C1030 1.372 . S
C1031 C1032 1.400 . S
C1031 C1036 1.490 . S
C1032 H1022 0.930 . S
C1032 C1031 1.400 . S
C1032 C1035 1.386 . S
H1033 C1049 0.930 . S
H1034 C1050 0.931 . S
C1035 H1023 0.929 1_545 S
C1035 C1029 1.390 . S
C1035 C1032 1.386 . S
C1036 C1031 1.490 . S
C1036 C1038 1.395 . S
C1036 C1039 1.403 . S
H1037 C1043 0.930 . S
C1038 H1024 0.930 . S
C1038 C1036 1.395 . S
C1038 C1041 1.403 . S
C1039 C1036 1.403 . S
C1039 C1040 1.524 1_545 S
C1039 C1043 1.400 . S
C1040 H1025 0.960 . S
C1040 H1026 0.960 . S
C1040 H1027 0.960 . S
C1040 C1039 1.524 1_565 S
C1041 C1038 1.403 . S
C1041 C1042 1.392 . S
C1041 C1045 1.495 . S
C1042 C1041 1.392 . S
C1042 C1043 1.385 . S
C1042 C1044 1.478 . S
C1043 H1037 0.930 . S
C1043 C1039 1.400 . S
C1043 C1042 1.385 . S
C1044 C1042 1.478 . S
C1044 C1046 1.381 . S
C1044 C1050 1.383 . S
C1045 C1041 1.495 . S
C1045 H1051 0.959 . S
C1045 H1052 0.961 . S
C1045 H1053 0.960 . S
C1046 C1044 1.381 . S
C1046 C1047 1.394 . S
C1046 H1054 0.930 . S
C1047 C1046 1.394 . S
C1047 C1048 1.383 . S
C1047 H1055 0.929 . S
C1048 C1047 1.383 . S
C1048 C1049 1.377 . S
C1049 H1033 0.930 . S
C1049 C1048 1.377 . S
C1049 C1050 1.379 . S
C1050 H1034 0.931 . S
C1050 C1044 1.383 . S
C1050 C1049 1.379 . S
H1051 C1045 0.959 . S
H1052 C1045 0.961 . S
H1053 C1045 0.960 . S
H1054 C1046 0.930 . S
H1055 C1047 0.929 . S
H1056 C1064 0.929 . S
H1057 C1066 0.930 . S
H1058 C1068 0.930 . S
H1059 C1071 0.929 . S
H1060 C1074 0.930 . S
H1061 C1076 0.960 . S
H1062 C1076 0.960 . S
H1063 C1076 0.960 . S
C1064 H1056 0.929 . S
C1064 C1065 1.377 . S
C1064 C1066 1.384 . S
C1065 C1064 1.377 . S
C1065 C1071 1.390 . S
C1066 H1057 0.930 . S
C1066 C1064 1.384 . S
C1066 C1067 1.372 . S
C1067 C1066 1.372 . S
C1067 C1068 1.400 . S
C1067 C1072 1.490 . S
C1068 H1058 0.930 . S
C1068 C1067 1.400 . S
C1068 C1071 1.386 . S
H1069 C1085 0.930 . S
H1070 C1086 0.931 . S
C1071 H1059 0.929 . S
C1071 C1065 1.390 . S
C1071 C1068 1.386 . S
C1072 C1067 1.490 . S
C1072 C1074 1.395 . S
C1072 C1075 1.403 . S
H1073 C1079 0.930 . S
C1074 H1060 0.930 . S
C1074 C1072 1.395 . S
C1074 C1077 1.403 . S
C1075 C1072 1.403 . S
C1075 C1076 1.524 . S
C1075 C1079 1.400 . S
C1076 H1061 0.960 . S
C1076 H1062 0.960 . S
C1076 H1063 0.960 . S
C1076 C1075 1.524 . S
C1077 C1074 1.403 . S
C1077 C1078 1.392 . S
C1077 C1081 1.495 . S
C1078 C1077 1.392 . S
C1078 C1079 1.385 . S
C1078 C1080 1.478 . S
C1079 H1073 0.930 . S
C1079 C1075 1.400 . S
C1079 C1078 1.385 . S
C1080 C1078 1.478 . S
C1080 C1082 1.381 . S
C1080 C1086 1.383 . S
C1081 C1077 1.495 . S
C1081 H1087 0.959 . S
C1081 H1088 0.961 . S
C1081 H1089 0.960 . S
C1082 C1080 1.381 . S
C1082 C1083 1.394 . S
C1082 H1090 0.930 . S
C1083 C1082 1.394 . S
C1083 C1084 1.383 . S
C1083 H1091 0.929 . S
C1084 C1083 1.383 . S
C1084 C1085 1.377 . S
C1085 H1069 0.930 . S
C1085 C1084 1.377 . S
C1085 C1086 1.379 . S
C1086 H1070 0.931 . S
C1086 C1080 1.383 . S
C1086 C1085 1.379 . S
H1087 C1081 0.959 . S
H1088 C1081 0.961 . S
H1089 C1081 0.960 . S
H1090 C1082 0.930 . S
H1091 C1083 0.929 . S
H1092 C1100 0.929 . S
H1093 C1102 0.930 . S
H1094 C1104 0.930 . S
H1095 C1107 0.929 . S
H1096 C1110 0.930 . S
H1097 C1112 0.960 . S
H1098 C1112 0.960 . S
H1099 C1112 0.960 . S
C1100 H1092 0.929 . S
C1100 C1101 1.377 . S
C1100 C1102 1.384 . S
C1101 C1100 1.377 . S
C1101 C1107 1.390 . S
C1102 H1093 0.930 . S
C1102 C1100 1.384 . S
C1102 C1103 1.372 . S
C1103 C1102 1.372 . S
C1103 C1104 1.400 . S
C1103 C1108 1.490 . S
C1104 H1094 0.930 . S
C1104 C1103 1.400 . S
C1104 C1107 1.386 . S
H1105 C1121 0.930 . S
H1106 C1122 0.931 . S
C1107 H1095 0.929 . S
C1107 C1101 1.390 . S
C1107 C1104 1.386 . S
C1108 C1103 1.490 . S
C1108 C1110 1.395 . S
C1108 C1111 1.403 . S
H1109 C1115 0.930 . S
C1110 H1096 0.930 . S
C1110 C1108 1.395 . S
C1110 C1113 1.403 . S
C1111 C1108 1.403 . S
C1111 C1112 1.524 . S
C1111 C1115 1.400 . S
C1112 H1097 0.960 . S
C1112 H1098 0.960 . S
C1112 H1099 0.960 . S
C1112 C1111 1.524 . S
C1113 C1110 1.403 . S
C1113 C1114 1.392 . S
C1113 C1117 1.495 . S
C1114 C1113 1.392 . S
C1114 C1115 1.385 . S
C1114 C1116 1.478 . S
C1115 H1109 0.930 . S
C1115 C1111 1.400 . S
C1115 C1114 1.385 . S
C1116 C1114 1.478 . S
C1116 C1118 1.381 . S
C1116 C1122 1.383 . S
C1117 C1113 1.495 . S
C1117 H1123 0.959 . S
C1117 H1124 0.961 . S
C1117 H1125 0.960 . S
C1118 C1116 1.381 . S
C1118 C1119 1.394 . S
C1118 H1126 0.930 . S
C1119 C1118 1.394 . S
C1119 C1120 1.383 . S
C1119 H1127 0.929 . S
C1120 C1119 1.383 . S
C1120 C1121 1.377 . S
C1121 H1105 0.930 . S
C1121 C1120 1.377 . S
C1121 C1122 1.379 . S
C1122 H1106 0.931 . S
C1122 C1116 1.383 . S
C1122 C1121 1.379 . S
H1123 C1117 0.959 . S
H1124 C1117 0.961 . S
H1125 C1117 0.960 . S
H1126 C1118 0.930 . S
H1127 C1119 0.929 . S
H1128 C1136 0.929 . S
H1129 C1138 0.930 . S
H1130 C1140 0.930 . S
H1131 C1143 0.929 . S
H1132 C1146 0.930 . S
H1133 C1148 0.960 . S
H1134 C1148 0.960 . S
H1135 C1148 0.960 . S
C1136 H1128 0.929 . S
C1136 C1137 1.377 . S
C1136 C1138 1.384 . S
C1137 C1136 1.377 . S
C1137 C1143 1.390 . S
C1138 H1129 0.930 . S
C1138 C1136 1.384 . S
C1138 C1139 1.372 . S
C1139 C1138 1.372 . S
C1139 C1140 1.400 . S
C1139 C1144 1.490 . S
C1140 H1130 0.930 . S
C1140 C1139 1.400 . S
C1140 C1143 1.386 . S
H1141 C1157 0.930 . S
H1142 C1158 0.931 . S
C1143 H1131 0.929 . S
C1143 C1137 1.390 . S
C1143 C1140 1.386 . S
C1144 C1139 1.490 . S
C1144 C1146 1.395 . S
C1144 C1147 1.403 . S
H1145 C1151 0.930 . S
C1146 H1132 0.930 . S
C1146 C1144 1.395 . S
C1146 C1149 1.403 . S
C1147 C1144 1.403 . S
C1147 C1148 1.524 . S
C1147 C1151 1.400 . S
C1148 H1133 0.960 . S
C1148 H1134 0.960 . S
C1148 H1135 0.960 . S
C1148 C1147 1.524 . S
C1149 C1146 1.403 . S
C1149 C1150 1.392 . S
C1149 C1153 1.495 . S
C1150 C1149 1.392 . S
C1150 C1151 1.385 . S
C1150 C1152 1.478 . S
C1151 H1145 0.930 . S
C1151 C1147 1.400 . S
C1151 C1150 1.385 . S
C1152 C1150 1.478 . S
C1152 C1154 1.381 . S
C1152 C1158 1.383 . S
C1153 C1149 1.495 . S
C1153 H1159 0.959 . S
C1153 H1160 0.961 . S
C1153 H1161 0.960 . S
C1154 C1152 1.381 . S
C1154 C1155 1.394 . S
C1154 H1162 0.930 . S
C1155 C1154 1.394 . S
C1155 C1156 1.383 . S
C1155 H1163 0.929 . S
C1156 C1155 1.383 . S
C1156 C1157 1.377 . S
C1157 H1141 0.930 . S
C1157 C1156 1.377 . S
C1157 C1158 1.379 . S
C1158 H1142 0.931 . S
C1158 C1152 1.383 . S
C1158 C1157 1.379 . S
H1159 C1153 0.959 . S
H1160 C1153 0.961 . S
H1161 C1153 0.960 . S
H1162 C1154 0.930 . S
H1163 C1155 0.929 . S
H1164 C1172 0.929 . S
H1165 C1174 0.930 . S
H1166 C1176 0.930 . S
H1167 C1179 0.929 . S
H1168 C1182 0.930 . S
H1169 C1184 0.960 . S
H1170 C1184 0.960 . S
H1171 C1184 0.960 . S
C1172 H1164 0.929 . S
C1172 C1173 1.377 . S
C1172 C1174 1.384 . S
C1173 C1172 1.377 . S
C1173 C1179 1.390 . S
C1174 H1165 0.930 . S
C1174 C1172 1.384 . S
C1174 C1175 1.372 . S
C1175 C1174 1.372 . S
C1175 C1176 1.400 . S
C1175 C1180 1.490 . S
C1176 H1166 0.930 . S
C1176 C1175 1.400 . S
C1176 C1179 1.386 . S
H1177 C1193 0.930 . S
H1178 C1194 0.931 . S
C1179 H1167 0.929 . S
C1179 C1173 1.390 . S
C1179 C1176 1.386 . S
C1180 C1175 1.490 . S
C1180 C1182 1.395 . S
C1180 C1183 1.403 . S
H1181 C1187 0.930 . S
C1182 H1168 0.930 . S
C1182 C1180 1.395 . S
C1182 C1185 1.403 . S
C1183 C1180 1.403 . S
C1183 C1184 1.524 . S
C1183 C1187 1.400 . S
C1184 H1169 0.960 . S
C1184 H1170 0.960 . S
C1184 H1171 0.960 . S
C1184 C1183 1.524 . S
C1185 C1182 1.403 . S
C1185 C1186 1.392 . S
C1185 C1189 1.495 . S
C1186 C1185 1.392 . S
C1186 C1187 1.385 . S
C1186 C1188 1.478 . S
C1187 H1181 0.930 . S
C1187 C1183 1.400 . S
C1187 C1186 1.385 . S
C1188 C1186 1.478 . S
C1188 C1190 1.381 . S
C1188 C1194 1.383 . S
C1189 C1185 1.495 . S
C1189 H1195 0.959 . S
C1189 H1196 0.961 . S
C1189 H1197 0.960 . S
C1190 C1188 1.381 . S
C1190 C1191 1.394 . S
C1190 H1198 0.930 . S
C1191 C1190 1.394 . S
C1191 C1192 1.383 . S
C1191 H1199 0.929 . S
C1192 C1191 1.383 . S
C1192 C1193 1.377 . S
C1193 H1177 0.930 . S
C1193 C1192 1.377 . S
C1193 C1194 1.379 . S
C1194 H1178 0.931 . S
C1194 C1188 1.383 . S
C1194 C1193 1.379 . S
H1195 C1189 0.959 . S
H1196 C1189 0.961 . S
H1197 C1189 0.960 . S
H1198 C1190 0.930 . S
H1199 C1191 0.929 . S
H1200 C1208 0.929 . S
H1201 C1210 0.930 . S
H1202 C1212 0.930 . S
H1203 C1215 0.929 . S
H1204 C1218 0.930 . S
H1205 C1220 0.960 . S
H1206 C1220 0.960 . S
H1207 C1220 0.960 . S
C1208 H1200 0.929 . S
C1208 C1209 1.377 . S
C1208 C1210 1.384 . S
C1209 C1208 1.377 . S
C1209 C1215 1.390 . S
C1210 H1201 0.930 . S
C1210 C1208 1.384 . S
C1210 C1211 1.372 . S
C1211 C1210 1.372 . S
C1211 C1212 1.400 . S
C1211 C1216 1.490 . S
C1212 H1202 0.930 . S
C1212 C1211 1.400 . S
C1212 C1215 1.386 . S
H1213 C1229 0.930 . S
H1214 C1230 0.931 . S
C1215 H1203 0.929 . S
C1215 C1209 1.390 . S
C1215 C1212 1.386 . S
C1216 C1211 1.490 . S
C1216 C1218 1.395 . S
C1216 C1219 1.403 . S
H1217 C1223 0.930 . S
C1218 H1204 0.930 . S
C1218 C1216 1.395 . S
C1218 C1221 1.403 . S
C1219 C1216 1.403 . S
C1219 C1220 1.524 . S
C1219 C1223 1.400 . S
C1220 H1205 0.960 . S
C1220 H1206 0.960 . S
C1220 H1207 0.960 . S
C1220 C1219 1.524 . S
C1221 C1218 1.403 . S
C1221 C1222 1.392 . S
C1221 C1225 1.495 . S
C1222 C1221 1.392 . S
C1222 C1223 1.385 . S
C1222 C1224 1.478 . S
C1223 H1217 0.930 . S
C1223 C1219 1.400 . S
C1223 C1222 1.385 . S
C1224 C1222 1.478 . S
C1224 C1226 1.381 . S
C1224 C1230 1.383 . S
C1225 C1221 1.495 . S
C1225 H1231 0.959 . S
C1225 H1232 0.961 . S
C1225 H1233 0.960 . S
C1226 C1224 1.381 . S
C1226 C1227 1.394 . S
C1226 H1234 0.930 . S
C1227 C1226 1.394 . S
C1227 C1228 1.383 . S
C1227 H1235 0.929 . S
C1228 C1227 1.383 . S
C1228 C1229 1.377 . S
C1229 H1213 0.930 . S
C1229 C1228 1.377 . S
C1229 C1230 1.379 . S
C1230 H1214 0.931 . S
C1230 C1224 1.383 . S
C1230 C1229 1.379 . S
H1231 C1225 0.959 . S
H1232 C1225 0.961 . S
H1233 C1225 0.960 . S
H1234 C1226 0.930 . S
H1235 C1227 0.929 . S
H1236 C1244 0.929 . S
H1237 C1246 0.930 . S
H1238 C1248 0.930 . S
H1239 C1251 0.929 . S
H1240 C1254 0.930 . S
H1241 C1256 0.960 . S
H1242 C1256 0.960 . S
H1243 C1256 0.960 . S
C1244 H1236 0.929 . S
C1244 C1245 1.377 . S
C1244 C1246 1.384 . S
C1245 C1244 1.377 . S
C1245 C1251 1.390 . S
C1246 H1237 0.930 . S
C1246 C1244 1.384 . S
C1246 C1247 1.372 . S
C1247 C1246 1.372 . S
C1247 C1248 1.400 . S
C1247 C1252 1.490 . S
C1248 H1238 0.930 . S
C1248 C1247 1.400 . S
C1248 C1251 1.386 . S
H1249 C1265 0.930 . S
H1250 C1266 0.931 . S
C1251 H1239 0.929 . S
C1251 C1245 1.390 . S
C1251 C1248 1.386 . S
C1252 C1247 1.490 . S
C1252 C1254 1.395 . S
C1252 C1255 1.403 . S
H1253 C1259 0.930 . S
C1254 H1240 0.930 . S
C1254 C1252 1.395 . S
C1254 C1257 1.403 . S
C1255 C1252 1.403 . S
C1255 C1256 1.524 . S
C1255 C1259 1.400 . S
C1256 H1241 0.960 . S
C1256 H1242 0.960 . S
C1256 H1243 0.960 . S
C1256 C1255 1.524 . S
C1257 C1254 1.403 . S
C1257 C1258 1.392 . S
C1257 C1261 1.495 . S
C1258 C1257 1.392 . S
C1258 C1259 1.385 . S
C1258 C1260 1.478 . S
C1259 H1253 0.930 . S
C1259 C1255 1.400 . S
C1259 C1258 1.385 . S
C1260 C1258 1.478 . S
C1260 C1262 1.381 . S
C1260 C1266 1.383 . S
C1261 C1257 1.495 . S
C1261 H1267 0.932 1_455 S
C1261 H1268 0.961 . S
C1261 H1269 0.960 . S
C1262 C1260 1.381 . S
C1262 C1263 1.394 . S
C1262 H1270 0.930 . S
C1263 C1262 1.394 . S
C1263 C1264 1.383 . S
C1263 H1271 0.929 . S
C1264 C1263 1.383 . S
C1264 C1265 1.377 . S
C1265 H1249 0.930 . S
C1265 C1264 1.377 . S
C1265 C1266 1.379 . S
C1266 H1250 0.931 . S
C1266 C1260 1.383 . S
C1266 C1265 1.379 . S
H1267 C1261 0.932 1_655 S
H1268 C1261 0.961 . S
H1269 C1261 0.960 . S
H1270 C1262 0.930 . S
H1271 C1263 0.929 . S
H1272 C1280 0.929 . S
H1273 C1282 0.930 . S
H1274 C1284 0.930 . S
H1275 C1287 0.929 . S
H1276 C1290 0.930 . S
H1277 C1292 0.960 . S
H1278 C1292 0.960 . S
H1279 C1292 0.960 . S
C1280 H1272 0.929 . S
C1280 C1281 1.377 . S
C1280 C1282 1.384 . S
C1281 C1280 1.377 . S
C1281 C1287 1.390 . S
C1282 H1273 0.930 . S
C1282 C1280 1.384 . S
C1282 C1283 1.372 . S
C1283 C1282 1.372 . S
C1283 C1284 1.400 . S
C1283 C1288 1.490 . S
C1284 H1274 0.930 . S
C1284 C1283 1.400 . S
C1284 C1287 1.386 . S
H1285 C1301 0.930 . S
H1286 C1302 0.931 . S
C1287 H1275 0.929 . S
C1287 C1281 1.390 . S
C1287 C1284 1.386 . S
C1288 C1283 1.490 . S
C1288 C1290 1.395 . S
C1288 C1291 1.403 . S
H1289 C1295 0.930 . S
C1290 H1276 0.930 . S
C1290 C1288 1.395 . S
C1290 C1293 1.403 . S
C1291 C1288 1.403 . S
C1291 C1292 1.524 . S
C1291 C1295 1.400 . S
C1292 H1277 0.960 . S
C1292 H1278 0.960 . S
C1292 H1279 0.960 . S
C1292 C1291 1.524 . S
C1293 C1290 1.403 . S
C1293 C1294 1.392 . S
C1293 C1297 1.495 . S
C1294 C1293 1.392 . S
C1294 C1295 1.385 . S
C1294 C1296 1.478 . S
C1295 H1289 0.930 . S
C1295 C1291 1.400 . S
C1295 C1294 1.385 . S
C1296 C1294 1.478 . S
C1296 C1298 1.381 . S
C1296 C1302 1.383 . S
C1297 C1293 1.495 . S
C1297 H1303 0.959 . S
C1297 H1304 0.961 . S
C1297 H1305 0.960 . S
C1298 C1296 1.381 . S
C1298 C1299 1.394 . S
C1298 H1306 0.930 . S
C1299 C1298 1.394 . S
C1299 C1300 1.383 . S
C1299 H1307 0.929 . S
C1300 C1299 1.383 . S
C1300 C1301 1.377 . S
C1301 H1285 0.930 . S
C1301 C1300 1.377 . S
C1301 C1302 1.379 . S
C1302 H1286 0.931 . S
C1302 C1296 1.383 . S
C1302 C1301 1.379 . S
H1303 C1297 0.959 . S
H1304 C1297 0.961 . S
H1305 C1297 0.960 . S
H1306 C1298 0.930 . S
H1307 C1299 0.929 . S
H1308 C1316 0.929 . S
H1309 C1318 0.930 . S
H1310 C1320 0.930 . S
H1311 C1323 0.929 . S
H1312 C1326 0.930 . S
H1313 C1328 0.960 . S
H1314 C1328 0.960 . S
H1315 C1328 0.960 . S
C1316 H1308 0.929 . S
C1316 C1317 1.377 . S
C1316 C1318 1.384 . S
C1317 C1316 1.377 . S
C1317 C1323 1.390 . S
C1318 H1309 0.930 . S
C1318 C1316 1.384 . S
C1318 C1319 1.372 . S
C1319 C1318 1.372 . S
C1319 C1320 1.400 . S
C1319 C1324 1.490 . S
C1320 H1310 0.930 . S
C1320 C1319 1.400 . S
C1320 C1323 1.386 . S
H1321 C1337 0.930 . S
H1322 C1338 0.931 . S
C1323 H1311 0.929 . S
C1323 C1317 1.390 . S
C1323 C1320 1.386 . S
C1324 C1319 1.490 . S
C1324 C1326 1.395 . S
C1324 C1327 1.403 . S
H1325 C1331 0.930 . S
C1326 H1312 0.930 . S
C1326 C1324 1.395 . S
C1326 C1329 1.403 . S
C1327 C1324 1.403 . S
C1327 C1328 1.524 . S
C1327 C1331 1.400 . S
C1328 H1313 0.960 . S
C1328 H1314 0.960 . S
C1328 H1315 0.960 . S
C1328 C1327 1.524 . S
C1329 C1326 1.403 . S
C1329 C1330 1.392 . S
C1329 C1333 1.495 . S
C1330 C1329 1.392 . S
C1330 C1331 1.385 . S
C1330 C1332 1.478 . S
C1331 H1325 0.930 . S
C1331 C1327 1.400 . S
C1331 C1330 1.385 . S
C1332 C1330 1.478 . S
C1332 C1334 1.381 . S
C1332 C1338 1.383 . S
C1333 C1329 1.495 . S
C1333 H1339 0.959 1_655 S
C1333 H1340 0.961 . S
C1333 H1341 0.960 . S
C1334 C1332 1.381 . S
C1334 C1335 1.394 . S
C1334 H1342 0.930 . S
C1335 C1334 1.394 . S
C1335 C1336 1.383 . S
C1335 H1343 0.929 . S
C1336 C1335 1.383 . S
C1336 C1337 1.377 . S
C1337 H1321 0.930 . S
C1337 C1336 1.377 . S
C1337 C1338 1.379 . S
C1338 H1322 0.931 . S
C1338 C1332 1.383 . S
C1338 C1337 1.379 . S
H1339 C1333 0.959 1_455 S
H1340 C1333 0.961 . S
H1341 C1333 0.960 . S
H1342 C1334 0.930 . S
H1343 C1335 0.929 . S
H1344 C1352 0.929 . S
H1345 C1354 0.930 . S
H1346 C1356 0.930 . S
H1347 C1359 0.929 . S
H1348 C1362 0.930 . S
H1349 C1364 0.960 . S
H1350 C1364 0.960 . S
H1351 C1364 0.960 . S
C1352 H1344 0.929 . S
C1352 C1353 1.377 . S
C1352 C1354 1.384 . S
C1353 C1352 1.377 . S
C1353 C1359 1.390 . S
C1354 H1345 0.930 . S
C1354 C1352 1.384 . S
C1354 C1355 1.372 . S
C1355 C1354 1.372 . S
C1355 C1356 1.400 . S
C1355 C1360 1.490 . S
C1356 H1346 0.930 . S
C1356 C1355 1.400 . S
C1356 C1359 1.386 . S
H1357 C1373 0.930 . S
H1358 C1374 0.931 . S
C1359 H1347 0.929 . S
C1359 C1353 1.390 . S
C1359 C1356 1.386 . S
C1360 C1355 1.490 . S
C1360 C1362 1.395 . S
C1360 C1363 1.403 . S
H1361 C1367 0.930 . S
C1362 H1348 0.930 . S
C1362 C1360 1.395 . S
C1362 C1365 1.403 . S
C1363 C1360 1.403 . S
C1363 C1364 1.524 . S
C1363 C1367 1.400 . S
C1364 H1349 0.960 . S
C1364 H1350 0.960 . S
C1364 H1351 0.960 . S
C1364 C1363 1.524 . S
C1365 C1362 1.403 . S
C1365 C1366 1.392 . S
C1365 C1369 1.495 . S
C1366 C1365 1.392 . S
C1366 C1367 1.385 . S
C1366 C1368 1.478 . S
C1367 H1361 0.930 . S
C1367 C1363 1.400 . S
C1367 C1366 1.385 . S
C1368 C1366 1.478 . S
C1368 C1370 1.381 . S
C1368 C1374 1.383 . S
C1369 C1365 1.495 . S
C1369 H1375 0.959 . S
C1369 H1376 0.961 . S
C1369 H1377 0.960 . S
C1370 C1368 1.381 . S
C1370 C1371 1.394 . S
C1370 H1378 0.930 . S
C1371 C1370 1.394 . S
C1371 C1372 1.383 . S
C1371 H1379 0.929 . S
C1372 C1371 1.383 . S
C1372 C1373 1.377 . S
C1373 H1357 0.930 . S
C1373 C1372 1.377 . S
C1373 C1374 1.379 . S
C1374 H1358 0.931 . S
C1374 C1368 1.383 . S
C1374 C1373 1.379 . S
H1375 C1369 0.959 . S
H1376 C1369 0.961 . S
H1377 C1369 0.960 . S
H1378 C1370 0.930 . S
H1379 C1371 0.929 . S
H1380 C1388 0.929 . S
H1381 C1390 0.930 . S
H1382 C1392 0.930 . S
H1383 C1395 0.929 . S
H1384 C1398 0.930 . S
H1385 C1400 0.960 . S
H1386 C1400 0.960 . S
H1387 C1400 0.960 . S
C1388 H1380 0.929 . S
C1388 C1389 1.377 . S
C1388 C1390 1.384 . S
C1389 C1388 1.377 . S
C1389 C1395 1.390 . S
C1390 H1381 0.930 . S
C1390 C1388 1.384 . S
C1390 C1391 1.372 . S
C1391 C1390 1.372 . S
C1391 C1392 1.400 . S
C1391 C1396 1.490 . S
C1392 H1382 0.930 . S
C1392 C1391 1.400 . S
C1392 C1395 1.386 . S
H1393 C1409 0.930 . S
H1394 C1410 0.931 . S
C1395 H1383 0.929 . S
C1395 C1389 1.390 . S
C1395 C1392 1.386 . S
C1396 C1391 1.490 . S
C1396 C1398 1.395 . S
C1396 C1399 1.403 . S
H1397 C1403 0.930 . S
C1398 H1384 0.930 . S
C1398 C1396 1.395 . S
C1398 C1401 1.403 . S
C1399 C1396 1.403 . S
C1399 C1400 1.524 . S
C1399 C1403 1.400 . S
C1400 H1385 0.960 . S
C1400 H1386 0.960 . S
C1400 H1387 0.960 . S
C1400 C1399 1.524 . S
C1401 C1398 1.403 . S
C1401 C1402 1.392 . S
C1401 C1405 1.495 . S
C1402 C1401 1.392 . S
C1402 C1403 1.385 . S
C1402 C1404 1.478 . S
C1403 H1397 0.930 . S
C1403 C1399 1.400 . S
C1403 C1402 1.385 . S
C1404 C1402 1.478 . S
C1404 C1406 1.381 . S
C1404 C1410 1.383 . S
C1405 C1401 1.495 . S
C1405 H1411 0.959 . S
C1405 H1412 0.961 . S
C1405 H1413 0.960 . S
C1406 C1404 1.381 . S
C1406 C1407 1.394 . S
C1406 H1414 0.930 . S
C1407 C1406 1.394 . S
C1407 C1408 1.383 . S
C1407 H1415 0.929 . S
C1408 C1407 1.383 . S
C1408 C1409 1.377 . S
C1409 H1393 0.930 . S
C1409 C1408 1.377 . S
C1409 C1410 1.379 . S
C1410 H1394 0.931 . S
C1410 C1404 1.383 . S
C1410 C1409 1.379 . S
H1411 C1405 0.959 . S
H1412 C1405 0.961 . S
H1413 C1405 0.960 . S
H1414 C1406 0.930 . S
H1415 C1407 0.929 . S
H1416 C1424 0.929 1_545 S
H1417 C1426 0.960 . S
H1418 C1428 0.930 . S
H1419 C1431 0.929 . S
H1420 C1434 0.930 . S
H1421 C1436 0.960 . S
H1422 C1436 0.960 . S
H1423 C1436 0.960 . S
C1424 H1416 0.929 1_565 S
C1424 C1425 1.377 . S
C1424 C1426 1.377 1_565 S
C1425 C1424 1.377 . S
C1425 C1431 1.390 . S
C1426 H1417 0.960 . S
C1426 C1424 1.377 1_545 S
C1426 C1427 1.351 1_545 S
C1427 C1426 1.351 1_565 S
C1427 C1428 1.400 . S
C1427 C1432 1.490 . S
C1428 H1418 0.930 . S
C1428 C1427 1.400 . S
C1428 C1431 1.386 . S
H1429 C1445 0.930 . S
H1430 C1446 0.931 . S
C1431 H1419 0.929 . S
C1431 C1425 1.390 . S
C1431 C1428 1.386 . S
C1432 C1427 1.490 . S
C1432 C1434 1.395 1_565 S
C1432 C1435 1.403 . S
H1433 C1439 0.930 . S
C1434 H1420 0.930 . S
C1434 C1432 1.395 1_545 S
C1434 C1437 1.403 . S
C1435 C1432 1.403 . S
C1435 C1436 1.524 . S
C1435 C1439 1.400 . S
C1436 H1421 0.960 . S
C1436 H1422 0.960 . S
C1436 H1423 0.960 . S
C1436 C1435 1.524 . S
C1437 C1434 1.403 . S
C1437 C1438 1.392 . S
C1437 C1441 1.495 . S
C1438 C1437 1.392 . S
C1438 C1439 1.385 1_545 S
C1438 C1440 1.478 . S
C1439 H1433 0.930 . S
C1439 C1435 1.400 . S
C1439 C1438 1.385 1_565 S
C1440 C1438 1.478 . S
C1440 C1442 1.381 . S
C1440 C1446 1.383 1_545 S
C1441 C1437 1.495 . S
C1441 H1447 0.959 . S
C1441 H1448 0.961 . S
C1441 H1449 0.960 . S
C1442 C1440 1.381 . S
C1442 C1443 1.394 . S
C1442 H1450 0.930 . S
C1443 C1442 1.394 . S
C1443 C1444 1.383 . S
C1443 H1451 0.929 . S
C1444 C1443 1.383 . S
C1444 C1445 1.377 1_545 S
C1445 H1429 0.930 . S
C1445 C1444 1.377 1_565 S
C1445 C1446 1.379 . S
C1446 H1430 0.931 . S
C1446 C1440 1.383 1_565 S
C1446 C1445 1.379 . S
H1447 C1441 0.959 . S
H1448 C1441 0.961 . S
H1449 C1441 0.960 . S
H1450 C1442 0.930 . S
H1451 C1443 0.929 . S
H1452 C1460 0.929 . S
H1453 C1462 0.930 . S
H1454 C1464 0.930 . S
H1455 C1467 0.929 . S
H1456 C1470 0.930 . S
H1457 C1472 0.960 . S
H1458 C1472 0.960 . S
H1459 C1472 0.960 . S
C1460 H1452 0.929 . S
C1460 C1461 1.377 . S
C1460 C1462 1.384 . S
C1461 C1460 1.377 . S
C1461 C1467 1.390 . S
C1462 H1453 0.930 . S
C1462 C1460 1.384 . S
C1462 C1463 1.372 . S
C1463 C1462 1.372 . S
C1463 C1464 1.400 . S
C1463 C1468 1.490 . S
C1464 H1454 0.930 . S
C1464 C1463 1.400 . S
C1464 C1467 1.386 . S
H1465 C1481 0.930 . S
H1466 C1482 0.931 . S
C1467 H1455 0.929 . S
C1467 C1461 1.390 . S
C1467 C1464 1.386 . S
C1468 C1463 1.490 . S
C1468 C1470 1.395 1_545 S
C1468 C1471 1.403 . S
H1469 C1475 0.930 . S
C1470 H1456 0.930 . S
C1470 C1468 1.395 1_565 S
C1470 C1473 1.403 . S
C1471 C1468 1.403 . S
C1471 C1472 1.524 . S
C1471 C1475 1.400 . S
C1472 H1457 0.960 . S
C1472 H1458 0.960 . S
C1472 H1459 0.960 . S
C1472 C1471 1.524 . S
C1473 C1470 1.403 . S
C1473 C1474 1.392 1_565 S
C1473 C1477 1.495 . S
C1474 C1473 1.392 1_545 S
C1474 C1475 1.385 . S
C1474 C1476 1.478 . S
C1475 H1469 0.930 . S
C1475 C1471 1.400 . S
C1475 C1474 1.385 . S
C1476 C1474 1.478 . S
C1476 C1478 1.381 . S
C1476 C1482 1.383 1_545 S
C1477 C1473 1.495 . S
C1477 H1483 0.959 . S
C1477 H1484 0.961 . S
C1477 H1485 0.960 . S
C1478 C1476 1.381 . S
C1478 C1479 1.394 . S
C1478 H1486 0.930 . S
C1479 C1478 1.394 . S
C1479 C1480 1.380 1_545 S
C1479 H1487 0.929 . S
C1480 C1479 1.380 1_565 S
C1480 C1481 1.381 . S
C1481 H1465 0.930 . S
C1481 C1480 1.381 . S
C1481 C1482 1.379 . S
C1482 H1466 0.931 . S
C1482 C1476 1.383 1_565 S
C1482 C1481 1.379 . S
H1483 C1477 0.959 . S
H1484 C1477 0.961 . S
H1485 C1477 0.960 . S
H1486 C1478 0.930 . S
H1487 C1479 0.929 . S
H1488 C1496 0.929 . S
H1489 C1498 0.930 . S
H1490 C1500 0.930 . S
H1491 C1503 0.929 . S
H1492 C1506 0.930 . S
H1493 C1508 0.960 . S
H1494 C1508 0.960 . S
H1495 C1508 0.960 . S
C1496 H1488 0.929 . S
C1496 C1497 1.377 . S
C1496 C1498 1.384 . S
C1497 C1496 1.377 . S
C1497 C1503 1.390 . S
C1498 H1489 0.930 . S
C1498 C1496 1.384 . S
C1498 C1499 1.372 . S
C1499 C1498 1.372 . S
C1499 C1500 1.400 . S
C1499 C1504 1.490 . S
C1500 H1490 0.930 . S
C1500 C1499 1.400 . S
C1500 C1503 1.386 . S
H1501 C1517 0.930 . S
H1502 C1518 0.931 . S
C1503 H1491 0.929 . S
C1503 C1497 1.390 . S
C1503 C1500 1.386 . S
C1504 C1499 1.490 . S
C1504 C1506 1.395 . S
C1504 C1507 1.403 . S
H1505 C1511 0.930 . S
C1506 H1492 0.930 . S
C1506 C1504 1.395 . S
C1506 C1509 1.403 . S
C1507 C1504 1.403 . S
C1507 C1508 1.524 . S
C1507 C1511 1.400 . S
C1508 H1493 0.960 . S
C1508 H1494 0.960 . S
C1508 H1495 0.960 . S
C1508 C1507 1.524 . S
C1509 C1506 1.403 . S
C1509 C1510 1.392 . S
C1509 C1513 1.495 . S
C1510 C1509 1.392 . S
C1510 C1511 1.385 . S
C1510 C1512 1.478 . S
C1511 H1505 0.930 . S
C1511 C1507 1.400 . S
C1511 C1510 1.385 . S
C1512 C1510 1.478 . S
C1512 C1514 1.381 . S
C1512 C1518 1.383 . S
C1513 C1509 1.495 . S
C1513 H1519 0.959 . S
C1513 H1520 0.961 . S
C1513 H1521 0.960 . S
C1514 C1512 1.381 . S
C1514 C1515 1.394 . S
C1514 H1522 0.930 . S
C1515 C1514 1.394 . S
C1515 C1516 1.383 . S
C1515 H1523 0.929 . S
C1516 C1515 1.383 . S
C1516 C1517 1.377 . S
C1517 H1501 0.930 . S
C1517 C1516 1.377 . S
C1517 C1518 1.379 . S
C1518 H1502 0.931 . S
C1518 C1512 1.383 . S
C1518 C1517 1.379 . S
H1519 C1513 0.959 . S
H1520 C1513 0.961 . S
H1521 C1513 0.960 . S
H1522 C1514 0.930 . S
H1523 C1515 0.929 . S
H1524 C1532 0.923 1_556 S
H1525 C1534 0.930 . S
H1526 C1536 0.930 . S
H1527 C1539 0.929 . S
H1528 C1542 0.930 . S
H1529 C1544 0.958 1_556 S
H1530 C1544 0.950 1_556 S
H1531 C1544 0.969 . S
C1532 H1524 0.923 1_554 S
C1532 C1533 1.384 . S
C1532 C1534 1.384 1_554 S
C1533 C1532 1.384 . S
C1533 C1539 1.390 . S
C1534 H1525 0.930 . S
C1534 C1532 1.384 1_556 S
C1534 C1535 1.372 1_556 S
C1535 C1534 1.372 1_554 S
C1535 C1536 1.400 . S
C1535 C1540 1.490 . S
C1536 H1526 0.930 . S
C1536 C1535 1.400 . S
C1536 C1539 1.386 . S
H1537 C1553 0.930 . S
H1538 C1554 0.931 . S
C1539 H1527 0.929 . S
C1539 C1533 1.390 . S
C1539 C1536 1.386 . S
C1540 C1535 1.490 . S
C1540 C1542 1.395 . S
C1540 C1543 1.403 . S
H1541 C1547 0.943 . S
C1542 H1528 0.930 . S
C1542 C1540 1.395 . S
C1542 C1545 1.403 . S
C1543 C1540 1.403 . S
C1543 C1544 1.527 . S
C1543 C1547 1.400 . S
C1544 H1529 0.958 1_554 S
C1544 H1530 0.950 1_554 S
C1544 H1531 0.969 . S
C1544 C1543 1.527 . S
C1545 C1542 1.403 . S
C1545 C1546 1.392 . S
C1545 C1549 1.495 . S
C1546 C1545 1.392 . S
C1546 C1547 1.385 . S
C1546 C1548 1.478 . S
C1547 H1541 0.943 . S
C1547 C1543 1.400 . S
C1547 C1546 1.385 . S
C1548 C1546 1.478 . S
C1548 C1550 1.381 1_554 S
C1548 C1554 1.383 . S
C1549 C1545 1.495 . S
C1549 H1555 0.959 . S
C1549 H1556 0.961 . S
C1549 H1557 0.960 . S
C1550 C1548 1.381 1_556 S
C1550 C1551 1.394 . S
C1550 H1558 0.930 . S
C1551 C1550 1.394 . S
C1551 C1552 1.383 1_556 S
C1551 H1559 0.929 . S
C1552 C1551 1.383 1_554 S
C1552 C1553 1.377 . S
C1553 H1537 0.930 . S
C1553 C1552 1.377 . S
C1553 C1554 1.379 . S
C1554 H1538 0.931 . S
C1554 C1548 1.383 . S
C1554 C1553 1.379 . S
H1555 C1549 0.959 . S
H1556 C1549 0.961 . S
H1557 C1549 0.960 . S
H1558 C1550 0.930 . S
H1559 C1551 0.929 . S
H1560 C1568 0.929 . S
H1561 C1570 0.930 . S
H1562 C1572 0.930 . S
H1563 C1575 0.929 . S
H1564 C1578 0.930 . S
H1565 C1580 0.960 . S
H1566 C1580 0.960 . S
H1567 C1580 0.960 . S
C1568 H1560 0.929 . S
C1568 C1569 1.377 . S
C1568 C1570 1.384 . S
C1569 C1568 1.377 . S
C1569 C1575 1.390 . S
C1570 H1561 0.930 . S
C1570 C1568 1.384 . S
C1570 C1571 1.372 . S
C1571 C1570 1.372 . S
C1571 C1572 1.400 . S
C1571 C1576 1.490 . S
C1572 H1562 0.930 . S
C1572 C1571 1.400 . S
C1572 C1575 1.386 . S
H1573 C1589 0.930 . S
H1574 C1590 0.931 . S
C1575 H1563 0.929 . S
C1575 C1569 1.390 . S
C1575 C1572 1.386 . S
C1576 C1571 1.490 . S
C1576 C1578 1.395 . S
C1576 C1579 1.403 . S
H1577 C1583 0.930 . S
C1578 H1564 0.930 . S
C1578 C1576 1.395 . S
C1578 C1581 1.403 . S
C1579 C1576 1.403 . S
C1579 C1580 1.524 . S
C1579 C1583 1.400 . S
C1580 H1565 0.960 . S
C1580 H1566 0.960 . S
C1580 H1567 0.960 . S
C1580 C1579 1.524 . S
C1581 C1578 1.403 . S
C1581 C1582 1.392 . S
C1581 C1585 1.495 . S
C1582 C1581 1.392 . S
C1582 C1583 1.385 . S
C1582 C1584 1.478 . S
C1583 H1577 0.930 . S
C1583 C1579 1.400 . S
C1583 C1582 1.385 . S
C1584 C1582 1.478 . S
C1584 C1586 1.381 . S
C1584 C1590 1.383 . S
C1585 C1581 1.495 . S
C1585 H1591 0.959 . S
C1585 H1592 0.961 . S
C1585 H1593 0.960 . S
C1586 C1584 1.381 . S
C1586 C1587 1.394 . S
C1586 H1594 0.930 . S
C1587 C1586 1.394 . S
C1587 C1588 1.383 . S
C1587 H1595 0.929 . S
C1588 C1587 1.383 . S
C1588 C1589 1.377 . S
C1589 H1573 0.930 . S
C1589 C1588 1.377 . S
C1589 C1590 1.379 . S
C1590 H1574 0.931 . S
C1590 C1584 1.383 . S
C1590 C1589 1.379 . S
H1591 C1585 0.959 . S
H1592 C1585 0.961 . S
H1593 C1585 0.960 . S
H1594 C1586 0.930 . S
H1595 C1587 0.929 . S
H1596 C1604 0.929 . S
H1597 C1606 0.930 . S
H1598 C1608 0.930 . S
H1599 C1611 0.929 . S
H1600 C1614 0.930 . S
H1601 C1616 0.960 . S
H1602 C1616 0.960 . S
H1603 C1616 0.960 . S
C1604 H1596 0.929 . S
C1604 C1605 1.377 1_554 S
C1604 C1606 1.384 . S
C1605 C1604 1.377 1_556 S
C1605 C1611 1.390 . S
C1606 H1597 0.930 . S
C1606 C1604 1.384 . S
C1606 C1607 1.372 1_554 S
C1607 C1606 1.372 1_556 S
C1607 C1608 1.400 . S
C1607 C1612 1.490 . S
C1608 H1598 0.930 . S
C1608 C1607 1.400 . S
C1608 C1611 1.386 . S
H1609 C1625 0.930 . S
H1610 C1626 0.931 . S
C1611 H1599 0.929 . S
C1611 C1605 1.390 . S
C1611 C1608 1.386 . S
C1612 C1607 1.490 . S
C1612 C1614 1.395 1_556 S
C1612 C1615 1.403 . S
H1613 C1619 0.930 . S
C1614 H1600 0.930 . S
C1614 C1612 1.395 1_554 S
C1614 C1617 1.403 . S
C1615 C1612 1.403 . S
C1615 C1616 1.524 . S
C1615 C1619 1.400 . S
C1616 H1601 0.960 . S
C1616 H1602 0.960 . S
C1616 H1603 0.960 . S
C1616 C1615 1.524 . S
C1617 C1614 1.403 . S
C1617 C1618 1.392 1_554 S
C1617 C1621 1.495 . S
C1618 C1617 1.392 1_556 S
C1618 C1619 1.385 . S
C1618 C1620 1.478 1_556 S
C1619 H1613 0.930 . S
C1619 C1615 1.400 . S
C1619 C1618 1.385 . S
C1620 C1618 1.478 1_554 S
C1620 C1622 1.381 . S
C1620 C1626 1.383 1_554 S
C1621 C1617 1.495 . S
C1621 H1627 0.959 . S
C1621 H1628 0.961 . S
C1621 H1629 0.960 . S
C1622 C1620 1.381 . S
C1622 C1623 1.394 . S
C1622 H1630 0.930 . S
C1623 C1622 1.394 . S
C1623 C1624 1.383 . S
C1623 H1631 0.929 . S
C1624 C1623 1.383 . S
C1624 C1625 1.377 1_554 S
C1625 H1609 0.930 . S
C1625 C1624 1.377 1_556 S
C1625 C1626 1.379 . S
C1626 H1610 0.931 . S
C1626 C1620 1.383 1_556 S
C1626 C1625 1.379 . S
H1627 C1621 0.959 . S
H1628 C1621 0.961 . S
H1629 C1621 0.960 . S
H1630 C1622 0.930 . S
H1631 C1623 0.929 . S
H1632 C1640 0.929 . S
H1633 C1642 0.930 . S
H1634 C1644 0.930 . S
H1635 C1647 0.929 . S
H1636 C1650 0.930 . S
H1637 C1652 0.960 . S
H1638 C1652 0.960 . S
H1639 C1652 0.960 . S
C1640 H1632 0.929 . S
C1640 C1641 1.377 . S
C1640 C1642 1.384 . S
C1641 C1640 1.377 . S
C1641 C1647 1.390 . S
C1642 H1633 0.930 . S
C1642 C1640 1.384 . S
C1642 C1643 1.372 . S
C1643 C1642 1.372 . S
C1643 C1644 1.400 . S
C1643 C1648 1.490 . S
C1644 H1634 0.930 . S
C1644 C1643 1.400 . S
C1644 C1647 1.386 . S
H1645 C1661 0.930 . S
H1646 C1662 0.931 . S
C1647 H1635 0.929 . S
C1647 C1641 1.390 . S
C1647 C1644 1.386 . S
C1648 C1643 1.490 . S
C1648 C1650 1.395 . S
C1648 C1651 1.403 . S
H1649 C1655 0.930 . S
C1650 H1636 0.930 . S
C1650 C1648 1.395 . S
C1650 C1653 1.403 . S
C1651 C1648 1.403 . S
C1651 C1652 1.524 . S
C1651 C1655 1.400 . S
C1652 H1637 0.960 . S
C1652 H1638 0.960 . S
C1652 H1639 0.960 . S
C1652 C1651 1.524 . S
C1653 C1650 1.403 . S
C1653 C1654 1.392 . S
C1653 C1657 1.495 . S
C1654 C1653 1.392 . S
C1654 C1655 1.385 . S
C1654 C1656 1.478 . S
C1655 H1649 0.930 . S
C1655 C1651 1.400 . S
C1655 C1654 1.385 . S
C1656 C1654 1.478 . S
C1656 C1658 1.381 . S
C1656 C1662 1.383 . S
C1657 C1653 1.495 . S
C1657 H1663 0.959 . S
C1657 H1664 0.961 . S
C1657 H1665 0.960 . S
C1658 C1656 1.381 . S
C1658 C1659 1.394 . S
C1658 H1666 0.930 . S
C1659 C1658 1.394 . S
C1659 C1660 1.383 . S
C1659 H1667 0.929 . S
C1660 C1659 1.383 . S
C1660 C1661 1.377 . S
C1661 H1645 0.930 . S
C1661 C1660 1.377 . S
C1661 C1662 1.379 . S
C1662 H1646 0.931 . S
C1662 C1656 1.383 . S
C1662 C1661 1.379 . S
H1663 C1657 0.959 . S
H1664 C1657 0.961 . S
H1665 C1657 0.960 . S
H1666 C1658 0.930 . S
H1667 C1659 0.929 . S
H1668 C1676 0.929 . S
H1669 C1678 0.930 . S
H1670 C1680 0.930 . S
H1671 C1683 0.929 . S
H1672 C1686 0.930 . S
H1673 C1688 0.960 . S
H1674 C1688 0.960 . S
H1675 C1688 0.960 . S
C1676 H1668 0.929 . S
C1676 C1677 1.377 . S
C1676 C1678 1.384 . S
C1677 C1676 1.377 . S
C1677 C1683 1.390 . S
C1678 H1669 0.930 . S
C1678 C1676 1.384 . S
C1678 C1679 1.372 . S
C1679 C1678 1.372 . S
C1679 C1680 1.400 . S
C1679 C1684 1.490 . S
C1680 H1670 0.930 . S
C1680 C1679 1.400 . S
C1680 C1683 1.386 . S
H1681 C1697 0.924 1_655 S
H1682 C1698 0.931 . S
C1683 H1671 0.929 . S
C1683 C1677 1.390 . S
C1683 C1680 1.386 . S
C1684 C1679 1.490 . S
C1684 C1686 1.395 . S
C1684 C1687 1.403 1_455 S
H1685 C1691 0.930 . S
C1686 H1672 0.930 . S
C1686 C1684 1.395 . S
C1686 C1689 1.403 . S
C1687 C1684 1.403 1_655 S
C1687 C1688 1.524 . S
C1687 C1691 1.400 . S
C1688 H1673 0.960 . S
C1688 H1674 0.960 . S
C1688 H1675 0.960 . S
C1688 C1687 1.524 . S
C1689 C1686 1.403 . S
C1689 C1690 1.392 . S
C1689 C1693 1.495 . S
C1690 C1689 1.392 . S
C1690 C1691 1.385 1_455 S
C1690 C1692 1.478 . S
C1691 H1685 0.930 . S
C1691 C1687 1.400 . S
C1691 C1690 1.385 1_655 S
C1692 C1690 1.478 . S
C1692 C1694 1.381 . S
C1692 C1698 1.383 . S
C1693 C1689 1.495 . S
C1693 H1699 0.959 . S
C1693 H1700 0.961 . S
C1693 H1701 0.960 . S
C1694 C1692 1.381 . S
C1694 C1695 1.394 . S
C1694 H1702 0.930 . S
C1695 C1694 1.394 . S
C1695 C1696 1.383 . S
C1695 H1703 0.929 . S
C1696 C1695 1.383 . S
C1696 C1697 1.377 . S
C1697 H1681 0.924 1_455 S
C1697 C1696 1.377 . S
C1697 C1698 1.379 . S
C1698 H1682 0.931 . S
C1698 C1692 1.383 . S
C1698 C1697 1.379 . S
H1699 C1693 0.959 . S
H1700 C1693 0.961 . S
H1701 C1693 0.960 . S
H1702 C1694 0.930 . S
H1703 C1695 0.929 . S
H1704 C1712 0.929 . S
H1705 C1714 0.930 . S
H1706 C1716 0.930 . S
H1707 C1719 0.929 . S
H1708 C1722 0.930 . S
H1709 C1724 0.960 . S
H1710 C1724 0.960 . S
H1711 C1724 0.960 . S
C1712 H1704 0.929 . S
C1712 C1713 1.377 . S
C1712 C1714 1.384 . S
C1713 C1712 1.377 . S
C1713 C1719 1.390 . S
C1714 H1705 0.930 . S
C1714 C1712 1.384 . S
C1714 C1715 1.372 . S
C1715 C1714 1.372 . S
C1715 C1716 1.400 . S
C1715 C1720 1.490 . S
C1716 H1706 0.930 . S
C1716 C1715 1.400 . S
C1716 C1719 1.386 . S
H1717 C1733 0.930 . S
H1718 C1734 0.931 . S
C1719 H1707 0.929 . S
C1719 C1713 1.390 . S
C1719 C1716 1.386 . S
C1720 C1715 1.490 . S
C1720 C1722 1.395 . S
C1720 C1723 1.403 . S
H1721 C1727 0.930 . S
C1722 H1708 0.930 . S
C1722 C1720 1.395 . S
C1722 C1725 1.403 . S
C1723 C1720 1.403 . S
C1723 C1724 1.524 . S
C1723 C1727 1.400 . S
C1724 H1709 0.960 . S
C1724 H1710 0.960 . S
C1724 H1711 0.960 . S
C1724 C1723 1.524 . S
C1725 C1722 1.403 . S
C1725 C1726 1.392 . S
C1725 C1729 1.495 . S
C1726 C1725 1.392 . S
C1726 C1727 1.385 . S
C1726 C1728 1.478 . S
C1727 H1721 0.930 . S
C1727 C1723 1.400 . S
C1727 C1726 1.385 . S
C1728 C1726 1.478 . S
C1728 C1730 1.381 . S
C1728 C1734 1.383 . S
C1729 C1725 1.495 . S
C1729 H1735 0.959 . S
C1729 H1736 0.961 . S
C1729 H1737 0.960 . S
C1730 C1728 1.381 . S
C1730 C1731 1.394 . S
C1730 H1738 0.930 . S
C1731 C1730 1.394 . S
C1731 C1732 1.383 . S
C1731 H1739 0.929 . S
C1732 C1731 1.383 . S
C1732 C1733 1.377 . S
C1733 H1717 0.930 . S
C1733 C1732 1.377 . S
C1733 C1734 1.379 . S
C1734 H1718 0.931 . S
C1734 C1728 1.383 . S
C1734 C1733 1.379 . S
H1735 C1729 0.959 . S
H1736 C1729 0.961 . S
H1737 C1729 0.960 . S
H1738 C1730 0.930 . S
H1739 C1731 0.929 . S
H1740 C1748 0.929 . S
H1741 C1750 0.930 . S
H1742 C1752 0.913 1_455 S
H1743 C1755 0.929 1_455 S
H1744 C1758 0.930 . S
H1745 C1760 0.960 . S
H1746 C1760 0.960 . S
H1747 C1760 0.960 . S
C1748 H1740 0.929 . S
C1748 C1749 1.377 . S
C1748 C1750 1.384 . S
C1749 C1748 1.377 . S
C1749 C1755 1.390 . S
C1750 H1741 0.930 . S
C1750 C1748 1.384 . S
C1750 C1751 1.372 . S
C1751 C1750 1.372 . S
C1751 C1752 1.412 . S
C1751 C1756 1.490 . S
C1752 H1742 0.913 1_655 S
C1752 C1751 1.412 . S
C1752 C1755 1.390 . S
H1753 C1769 0.930 . S
H1754 C1770 0.931 . S
C1755 H1743 0.929 1_655 S
C1755 C1749 1.390 . S
C1755 C1752 1.390 . S
C1756 C1751 1.490 . S
C1756 C1758 1.395 . S
C1756 C1759 1.403 1_655 S
H1757 C1763 0.930 . S
C1758 H1744 0.930 . S
C1758 C1756 1.395 . S
C1758 C1761 1.403 . S
C1759 C1756 1.403 1_455 S
C1759 C1760 1.524 . S
C1759 C1763 1.400 . S
C1760 H1745 0.960 . S
C1760 H1746 0.960 . S
C1760 H1747 0.960 . S
C1760 C1759 1.524 . S
C1761 C1758 1.403 . S
C1761 C1762 1.392 . S
C1761 C1765 1.495 . S
C1762 C1761 1.392 . S
C1762 C1763 1.385 1_655 S
C1762 C1764 1.478 . S
C1763 H1757 0.930 . S
C1763 C1759 1.400 . S
C1763 C1762 1.385 1_455 S
C1764 C1762 1.478 . S
C1764 C1766 1.381 . S
C1764 C1770 1.383 1_655 S
C1765 C1761 1.495 . S
C1765 H1771 0.959 . S
C1765 H1772 0.961 . S
C1765 H1773 0.960 . S
C1766 C1764 1.381 . S
C1766 C1767 1.394 . S
C1766 H1774 0.930 . S
C1767 C1766 1.394 . S
C1767 C1768 1.383 1_655 S
C1767 H1775 0.929 . S
C1768 C1767 1.383 1_455 S
C1768 C1769 1.377 . S
C1769 H1753 0.930 . S
C1769 C1768 1.377 . S
C1769 C1770 1.379 . S
C1770 H1754 0.931 . S
C1770 C1764 1.383 1_455 S
C1770 C1769 1.379 . S
H1771 C1765 0.959 . S
H1772 C1765 0.961 . S
H1773 C1765 0.960 . S
H1774 C1766 0.930 . S
H1775 C1767 0.929 . S
H1776 C1784 0.929 . S
H1777 C1786 0.930 . S
H1778 C1788 0.930 . S
H1779 C1791 0.929 . S
H1780 C1794 0.930 . S
H1781 C1796 0.960 . S
H1782 C1796 0.960 . S
H1783 C1796 0.960 . S
C1784 H1776 0.929 . S
C1784 C1785 1.377 . S
C1784 C1786 1.384 . S
C1785 C1784 1.377 . S
C1785 C1791 1.390 . S
C1786 H1777 0.930 . S
C1786 C1784 1.384 . S
C1786 C1787 1.372 . S
C1787 C1786 1.372 . S
C1787 C1788 1.400 . S
C1787 C1792 1.490 . S
C1788 H1778 0.930 . S
C1788 C1787 1.400 . S
C1788 C1791 1.386 . S
H1789 C1805 0.930 . S
H1790 C1806 0.931 . S
C1791 H1779 0.929 . S
C1791 C1785 1.390 . S
C1791 C1788 1.386 . S
C1792 C1787 1.490 . S
C1792 C1794 1.395 . S
C1792 C1795 1.403 . S
H1793 C1799 0.930 . S
C1794 H1780 0.930 . S
C1794 C1792 1.395 . S
C1794 C1797 1.403 . S
C1795 C1792 1.403 . S
C1795 C1796 1.524 . S
C1795 C1799 1.400 . S
C1796 H1781 0.960 . S
C1796 H1782 0.960 . S
C1796 H1783 0.960 . S
C1796 C1795 1.524 . S
C1797 C1794 1.403 . S
C1797 C1798 1.392 . S
C1797 C1801 1.495 . S
C1798 C1797 1.392 . S
C1798 C1799 1.385 . S
C1798 C1800 1.478 . S
C1799 H1793 0.930 . S
C1799 C1795 1.400 . S
C1799 C1798 1.385 . S
C1800 C1798 1.478 . S
C1800 C1802 1.381 . S
C1800 C1806 1.383 . S
C1801 C1797 1.495 . S
C1801 H1807 0.959 . S
C1801 H1808 0.961 . S
C1801 H1809 0.960 . S
C1802 C1800 1.381 . S
C1802 C1803 1.394 . S
C1802 H1810 0.930 . S
C1803 C1802 1.394 . S
C1803 C1804 1.383 . S
C1803 H1811 0.929 . S
C1804 C1803 1.383 . S
C1804 C1805 1.377 . S
C1805 H1789 0.930 . S
C1805 C1804 1.377 . S
C1805 C1806 1.379 . S
C1806 H1790 0.931 . S
C1806 C1800 1.383 . S
C1806 C1805 1.379 . S
H1807 C1801 0.959 . S
H1808 C1801 0.961 . S
H1809 C1801 0.960 . S
H1810 C1802 0.930 . S
H1811 C1803 0.929 . S
H1812 C1820 0.929 . S
H1813 C1822 0.930 . S
H1814 C1824 0.930 . S
H1815 C1827 0.929 . S
H1816 C1830 0.930 . S
H1817 C1832 0.960 . S
H1818 C1832 0.960 . S
H1819 C1832 0.960 . S
C1820 H1812 0.929 . S
C1820 C1821 1.377 . S
C1820 C1822 1.384 . S
C1821 C1820 1.377 . S
C1821 C1827 1.390 . S
C1822 H1813 0.930 . S
C1822 C1820 1.384 . S
C1822 C1823 1.372 . S
C1823 C1822 1.372 . S
C1823 C1824 1.400 . S
C1823 C1828 1.490 . S
C1824 H1814 0.930 . S
C1824 C1823 1.400 . S
C1824 C1827 1.386 . S
H1825 C1841 0.930 . S
H1826 C1842 0.931 . S
C1827 H1815 0.929 . S
C1827 C1821 1.390 . S
C1827 C1824 1.386 . S
C1828 C1823 1.490 . S
C1828 C1830 1.395 . S
C1828 C1831 1.403 . S
H1829 C1835 0.930 . S
C1830 H1816 0.930 . S
C1830 C1828 1.395 . S
C1830 C1833 1.403 . S
C1831 C1828 1.403 . S
C1831 C1832 1.524 . S
C1831 C1835 1.400 . S
C1832 H1817 0.960 . S
C1832 H1818 0.960 . S
C1832 H1819 0.960 . S
C1832 C1831 1.524 . S
C1833 C1830 1.403 . S
C1833 C1834 1.392 . S
C1833 C1837 1.495 . S
C1834 C1833 1.392 . S
C1834 C1835 1.385 . S
C1834 C1836 1.478 . S
C1835 H1829 0.930 . S
C1835 C1831 1.400 . S
C1835 C1834 1.385 . S
C1836 C1834 1.478 . S
C1836 C1838 1.381 . S
C1836 C1842 1.383 . S
C1837 C1833 1.495 . S
C1837 H1843 0.959 . S
C1837 H1844 0.961 . S
C1837 H1845 0.960 . S
C1838 C1836 1.381 . S
C1838 C1839 1.394 . S
C1838 H1846 0.930 . S
C1839 C1838 1.394 . S
C1839 C1840 1.383 . S
C1839 H1847 0.929 . S
C1840 C1839 1.383 . S
C1840 C1841 1.377 . S
C1841 H1825 0.930 . S
C1841 C1840 1.377 . S
C1841 C1842 1.379 . S
C1842 H1826 0.931 . S
C1842 C1836 1.383 . S
C1842 C1841 1.379 . S
H1843 C1837 0.959 . S
H1844 C1837 0.961 . S
H1845 C1837 0.960 . S
H1846 C1838 0.930 . S
H1847 C1839 0.929 . S
H1848 C1856 0.929 . S
H1849 C1858 0.930 . S
H1850 C1860 0.930 . S
H1851 C1863 0.929 . S
H1852 C1866 0.930 . S
H1853 C1868 0.960 . S
H1854 C1868 0.960 1_565 S
H1855 C1868 0.960 . S
C1856 H1848 0.929 . S
C1856 C1857 1.377 1_565 S
C1856 C1858 1.384 . S
C1857 C1856 1.377 1_545 S
C1857 C1863 1.390 . S
C1858 H1849 0.930 . S
C1858 C1856 1.384 . S
C1858 C1859 1.372 1_565 S
C1859 C1858 1.372 1_545 S
C1859 C1860 1.400 . S
C1859 C1864 1.490 . S
C1860 H1850 0.930 . S
C1860 C1859 1.400 . S
C1860 C1863 1.386 . S
H1861 C1877 0.930 . S
H1862 C1878 0.931 . S
C1863 H1851 0.929 . S
C1863 C1857 1.390 . S
C1863 C1860 1.386 . S
C1864 C1859 1.490 . S
C1864 C1866 1.395 . S
C1864 C1867 1.403 . S
H1865 C1871 0.930 . S
C1866 H1852 0.930 . S
C1866 C1864 1.395 . S
C1866 C1869 1.403 . S
C1867 C1864 1.403 . S
C1867 C1868 1.524 . S
C1867 C1871 1.400 . S
C1868 H1853 0.960 . S
C1868 H1854 0.960 1_545 S
C1868 H1855 0.960 . S
C1868 C1867 1.524 . S
C1869 C1866 1.403 . S
C1869 C1870 1.392 . S
C1869 C1873 1.495 . S
C1870 C1869 1.392 . S
C1870 C1871 1.385 . S
C1870 C1872 1.484 . S
C1871 H1865 0.930 . S
C1871 C1867 1.400 . S
C1871 C1870 1.385 . S
C1872 C1870 1.484 . S
C1872 C1874 1.339 1_545 S
C1872 C1878 1.419 . S
C1873 C1869 1.495 . S
C1873 H1879 0.959 . S
C1873 H1880 0.961 . S
C1873 H1881 0.960 1_545 S
C1874 C1872 1.339 1_565 S
C1874 C1875 1.394 . S
C1874 H1882 0.930 . S
C1875 C1874 1.394 . S
C1875 C1876 1.383 . S
C1875 H1883 0.929 . S
C1876 C1875 1.383 . S
C1876 C1877 1.377 1_565 S
C1877 H1861 0.930 . S
C1877 C1876 1.377 1_545 S
C1877 C1878 1.379 . S
C1878 H1862 0.931 . S
C1878 C1872 1.419 . S
C1878 C1877 1.379 . S
H1879 C1873 0.959 . S
H1880 C1873 0.961 . S
H1881 C1873 0.960 1_565 S
H1882 C1874 0.930 . S
H1883 C1875 0.929 . S
H1884 C1892 0.929 . S
H1885 C1894 0.930 . S
H1886 C1896 0.930 . S
H1887 C1899 0.929 . S
H1888 C1902 0.930 . S
H1889 C1904 0.960 . S
H1890 C1904 0.960 . S
H1891 C1904 0.960 . S
C1892 H1884 0.929 . S
C1892 C1893 1.377 . S
C1892 C1894 1.384 . S
C1893 C1892 1.377 . S
C1893 C1899 1.390 . S
C1894 H1885 0.930 . S
C1894 C1892 1.384 . S
C1894 C1895 1.372 . S
C1895 C1894 1.372 . S
C1895 C1896 1.400 . S
C1895 C1900 1.490 . S
C1896 H1886 0.930 . S
C1896 C1895 1.400 . S
C1896 C1899 1.386 . S
H1897 C1913 0.930 . S
H1898 C1914 0.931 . S
C1899 H1887 0.929 . S
C1899 C1893 1.390 . S
C1899 C1896 1.386 . S
C1900 C1895 1.490 . S
C1900 C1902 1.395 . S
C1900 C1903 1.403 1_565 S
H1901 C1907 0.930 . S
C1902 H1888 0.930 . S
C1902 C1900 1.395 . S
C1902 C1905 1.403 . S
C1903 C1900 1.403 1_545 S
C1903 C1904 1.524 . S
C1903 C1907 1.400 . S
C1904 H1889 0.960 . S
C1904 H1890 0.960 . S
C1904 H1891 0.960 . S
C1904 C1903 1.524 . S
C1905 C1902 1.403 . S
C1905 C1906 1.392 . S
C1905 C1909 1.495 . S
C1906 C1905 1.392 . S
C1906 C1907 1.385 1_565 S
C1906 C1908 1.478 . S
C1907 H1901 0.930 . S
C1907 C1903 1.400 . S
C1907 C1906 1.385 1_545 S
C1908 C1906 1.478 . S
C1908 C1910 1.383 . S
C1908 C1914 1.383 . S
C1909 C1905 1.495 . S
C1909 H1915 0.959 . S
C1909 H1916 0.961 . S
C1909 H1917 0.960 . S
C1910 C1908 1.383 . S
C1910 C1911 1.394 1_565 S
C1910 H1918 0.929 1_565 S
C1911 C1910 1.394 1_545 S
C1911 C1912 1.383 1_545 S
C1911 H1919 0.929 . S
C1912 C1911 1.383 1_565 S
C1912 C1913 1.377 . S
C1913 H1897 0.930 . S
C1913 C1912 1.377 . S
C1913 C1914 1.379 . S
C1914 H1898 0.931 . S
C1914 C1908 1.383 . S
C1914 C1913 1.379 . S
H1915 C1909 0.959 . S
H1916 C1909 0.961 . S
H1917 C1909 0.960 . S
H1918 C1910 0.929 1_545 S
H1919 C1911 0.929 . S
H1920 C1928 0.929 . S
H1921 C1930 0.930 . S
H1922 C1932 0.930 . S
H1923 C1935 0.929 . S
H1924 C1938 0.930 . S
H1925 C1940 0.960 . S
H1926 C1940 0.960 . S
H1927 C1940 0.960 . S
C1928 H1920 0.929 . S
C1928 C1929 1.377 . S
C1928 C1930 1.384 . S
C1929 C1928 1.377 . S
C1929 C1935 1.390 . S
C1930 H1921 0.930 . S
C1930 C1928 1.384 . S
C1930 C1931 1.372 . S
C1931 C1930 1.372 . S
C1931 C1932 1.400 . S
C1931 C1936 1.490 . S
C1932 H1922 0.930 . S
C1932 C1931 1.400 . S
C1932 C1935 1.386 . S
H1933 C1949 0.930 . S
H1934 C1950 0.931 . S
C1935 H1923 0.929 . S
C1935 C1929 1.390 . S
C1935 C1932 1.386 . S
C1936 C1931 1.490 . S
C1936 C1938 1.395 . S
C1936 C1939 1.403 . S
H1937 C1943 0.930 . S
C1938 H1924 0.930 . S
C1938 C1936 1.395 . S
C1938 C1941 1.403 . S
C1939 C1936 1.403 . S
C1939 C1940 1.524 . S
C1939 C1943 1.400 . S
C1940 H1925 0.960 . S
C1940 H1926 0.960 . S
C1940 H1927 0.960 . S
C1940 C1939 1.524 . S
C1941 C1938 1.403 . S
C1941 C1942 1.392 . S
C1941 C1945 1.495 . S
C1942 C1941 1.392 . S
C1942 C1943 1.385 . S
C1942 C1944 1.478 . S
C1943 H1937 0.930 . S
C1943 C1939 1.400 . S
C1943 C1942 1.385 . S
C1944 C1942 1.478 . S
C1944 C1946 1.381 . S
C1944 C1950 1.383 . S
C1945 C1941 1.495 . S
C1945 H1951 0.959 . S
C1945 H1952 0.961 . S
C1945 H1953 0.960 . S
C1946 C1944 1.381 . S
C1946 C1947 1.394 . S
C1946 H1954 0.930 . S
C1947 C1946 1.394 . S
C1947 C1948 1.383 . S
C1947 H1955 0.929 . S
C1948 C1947 1.383 . S
C1948 C1949 1.377 . S
C1949 H1933 0.930 . S
C1949 C1948 1.377 . S
C1949 C1950 1.379 . S
C1950 H1934 0.931 . S
C1950 C1944 1.383 . S
C1950 C1949 1.379 . S
H1951 C1945 0.959 . S
H1952 C1945 0.961 . S
H1953 C1945 0.960 . S
H1954 C1946 0.930 . S
H1955 C1947 0.929 . S
H1956 C1964 0.929 . S
H1957 C1966 0.930 . S
H1958 C1968 0.930 . S
H1959 C1971 0.929 . S
H1960 C1974 0.930 . S
H1961 C1976 0.960 . S
H1962 C1976 0.960 . S
H1963 C1976 0.960 . S
C1964 H1956 0.929 . S
C1964 C1965 1.377 . S
C1964 C1966 1.384 . S
C1965 C1964 1.377 . S
C1965 C1971 1.390 . S
C1966 H1957 0.930 . S
C1966 C1964 1.384 . S
C1966 C1967 1.372 . S
C1967 C1966 1.372 . S
C1967 C1968 1.400 . S
C1967 C1972 1.490 . S
C1968 H1958 0.930 . S
C1968 C1967 1.400 . S
C1968 C1971 1.386 . S
H1969 C1985 0.930 . S
H1970 C1986 0.931 . S
C1971 H1959 0.929 . S
C1971 C1965 1.390 . S
C1971 C1968 1.386 . S
C1972 C1967 1.490 . S
C1972 C1974 1.395 1_556 S
C1972 C1975 1.403 . S
H1973 C1979 0.930 . S
C1974 H1960 0.930 . S
C1974 C1972 1.395 1_554 S
C1974 C1977 1.403 . S
C1975 C1972 1.403 . S
C1975 C1976 1.524 . S
C1975 C1979 1.400 . S
C1976 H1961 0.960 . S
C1976 H1962 0.960 . S
C1976 H1963 0.960 . S
C1976 C1975 1.524 . S
C1977 C1974 1.403 . S
C1977 C1978 1.392 1_554 S
C1977 C1981 1.495 . S
C1978 C1977 1.392 1_556 S
C1978 C1979 1.385 . S
C1978 C1980 1.478 . S
C1979 H1973 0.930 . S
C1979 C1975 1.400 . S
C1979 C1978 1.385 . S
C1980 C1978 1.478 . S
C1980 C1982 1.381 . S
C1980 C1986 1.383 1_556 S
C1981 C1977 1.495 . S
C1981 H1987 0.959 . S
C1981 H1988 0.961 . S
C1981 H1989 0.960 . S
C1982 C1980 1.381 . S
C1982 C1983 1.394 . S
C1982 H1990 0.930 . S
C1983 C1982 1.394 . S
C1983 C1984 1.380 1_556 S
C1983 H1991 0.929 . S
C1984 C1983 1.380 1_554 S
C1984 C1985 1.380 . S
C1985 H1969 0.930 . S
C1985 C1984 1.380 . S
C1985 C1986 1.379 . S
C1986 H1970 0.931 . S
C1986 C1980 1.383 1_554 S
C1986 C1985 1.379 . S
H1987 C1981 0.959 . S
H1988 C1981 0.961 . S
H1989 C1981 0.960 . S
H1990 C1982 0.930 . S
H1991 C1983 0.929 . S
H1992 C2000 0.929 . S
H1993 C2002 0.930 . S
H1994 C2004 0.930 . S
H1995 C2007 0.929 . S
H1996 C2010 0.930 . S
H1997 C2012 0.960 . S
H1998 C2012 0.960 . S
H1999 C2012 0.960 . S
C2000 H1992 0.929 . S
C2000 C2001 1.377 . S
C2000 C2002 1.384 . S
C2001 C2000 1.377 . S
C2001 C2007 1.390 . S
C2002 H1993 0.930 . S
C2002 C2000 1.384 . S
C2002 C2003 1.372 . S
C2003 C2002 1.372 . S
C2003 C2004 1.400 . S
C2003 C2008 1.490 . S
C2004 H1994 0.930 . S
C2004 C2003 1.400 . S
C2004 C2007 1.386 . S
H2005 C2021 0.930 . S
H2006 C2022 0.931 . S
C2007 H1995 0.929 . S
C2007 C2001 1.390 . S
C2007 C2004 1.386 . S
C2008 C2003 1.490 . S
C2008 C2010 1.395 . S
C2008 C2011 1.403 . S
H2009 C2015 0.930 . S
C2010 H1996 0.930 . S
C2010 C2008 1.395 . S
C2010 C2013 1.403 . S
C2011 C2008 1.403 . S
C2011 C2012 1.524 . S
C2011 C2015 1.400 . S
C2012 H1997 0.960 . S
C2012 H1998 0.960 . S
C2012 H1999 0.960 . S
C2012 C2011 1.524 . S
C2013 C2010 1.403 . S
C2013 C2014 1.392 . S
C2013 C2017 1.495 . S
C2014 C2013 1.392 . S
C2014 C2015 1.385 . S
C2014 C2016 1.478 . S
C2015 H2009 0.930 . S
C2015 C2011 1.400 . S
C2015 C2014 1.385 . S
C2016 C2014 1.478 . S
C2016 C2018 1.381 . S
C2016 C2022 1.383 . S
C2017 C2013 1.495 . S
C2017 H2023 0.959 . S
C2017 H2024 0.961 . S
C2017 H2025 0.960 . S
C2018 C2016 1.381 . S
C2018 C2019 1.394 . S
C2018 H2026 0.930 . S
C2019 C2018 1.394 . S
C2019 C2020 1.383 . S
C2019 H2027 0.929 . S
C2020 C2019 1.383 . S
C2020 C2021 1.377 . S
C2021 H2005 0.930 . S
C2021 C2020 1.377 . S
C2021 C2022 1.379 . S
C2022 H2006 0.931 . S
C2022 C2016 1.383 . S
C2022 C2021 1.379 . S
H2023 C2017 0.959 . S
H2024 C2017 0.961 . S
H2025 C2017 0.960 . S
H2026 C2018 0.930 . S
H2027 C2019 0.929 . S
H2028 C2036 0.929 . S
H2029 C2038 0.930 . S
H2030 C2040 0.930 . S
H2031 C2043 0.929 . S
H2032 C2046 0.930 . S
H2033 C2048 0.960 . S
H2034 C2048 0.960 . S
H2035 C2048 0.960 . S
C2036 H2028 0.929 . S
C2036 C2037 1.377 . S
C2036 C2038 1.384 . S
C2037 C2036 1.377 . S
C2037 C2043 1.390 . S
C2038 H2029 0.930 . S
C2038 C2036 1.384 . S
C2038 C2039 1.372 . S
C2039 C2038 1.372 . S
C2039 C2040 1.400 . S
C2039 C2044 1.490 . S
C2040 H2030 0.930 . S
C2040 C2039 1.400 . S
C2040 C2043 1.386 . S
H2041 C2057 0.930 . S
H2042 C2058 0.931 . S
C2043 H2031 0.929 . S
C2043 C2037 1.390 . S
C2043 C2040 1.386 . S
C2044 C2039 1.490 . S
C2044 C2046 1.395 . S
C2044 C2047 1.403 1_554 S
H2045 C2051 0.930 . S
C2046 H2032 0.930 . S
C2046 C2044 1.395 . S
C2046 C2049 1.403 . S
C2047 C2044 1.403 1_556 S
C2047 C2048 1.524 . S
C2047 C2051 1.400 . S
C2048 H2033 0.960 . S
C2048 H2034 0.960 . S
C2048 H2035 0.960 . S
C2048 C2047 1.524 . S
C2049 C2046 1.403 . S
C2049 C2050 1.392 . S
C2049 C2053 1.495 . S
C2050 C2049 1.392 . S
C2050 C2051 1.385 1_554 S
C2050 C2052 1.478 . S
C2051 H2045 0.930 . S
C2051 C2047 1.400 . S
C2051 C2050 1.385 1_556 S
C2052 C2050 1.478 . S
C2052 C2054 1.381 . S
C2052 C2058 1.383 . S
C2053 C2049 1.495 . S
C2053 H2059 0.959 . S
C2053 H2060 0.961 . S
C2053 H2061 0.960 . S
C2054 C2052 1.381 . S
C2054 C2055 1.394 . S
C2054 H2062 0.930 . S
C2055 C2054 1.394 . S
C2055 C2056 1.383 1_554 S
C2055 H2063 0.929 . S
C2056 C2055 1.383 1_556 S
C2056 C2057 1.377 . S
C2057 H2041 0.930 . S
C2057 C2056 1.377 . S
C2057 C2058 1.379 1_556 S
C2058 H2042 0.931 . S
C2058 C2052 1.383 . S
C2058 C2057 1.379 1_554 S
H2059 C2053 0.959 . S
H2060 C2053 0.961 . S
H2061 C2053 0.960 . S
H2062 C2054 0.930 . S
H2063 C2055 0.929 . S
H2064 C2072 0.929 . S
H2065 C2074 0.930 . S
H2066 C2076 0.930 . S
H2067 C2079 0.929 . S
H2068 C2082 0.930 . S
H2069 C2084 0.960 . S
H2070 C2084 0.960 . S
H2071 C2084 0.960 . S
C2072 H2064 0.929 . S
C2072 C2073 1.377 . S
C2072 C2074 1.384 . S
C2073 C2072 1.377 . S
C2073 C2079 1.390 . S
C2074 H2065 0.930 . S
C2074 C2072 1.384 . S
C2074 C2075 1.372 . S
C2075 C2074 1.372 . S
C2075 C2076 1.400 . S
C2075 C2080 1.490 . S
C2076 H2066 0.930 . S
C2076 C2075 1.400 . S
C2076 C2079 1.386 . S
H2077 C2093 0.930 . S
H2078 C2094 0.931 . S
C2079 H2067 0.929 . S
C2079 C2073 1.390 . S
C2079 C2076 1.386 . S
C2080 C2075 1.490 . S
C2080 C2082 1.395 . S
C2080 C2083 1.403 . S
H2081 C2087 0.930 . S
C2082 H2068 0.930 . S
C2082 C2080 1.395 . S
C2082 C2085 1.403 . S
C2083 C2080 1.403 . S
C2083 C2084 1.524 . S
C2083 C2087 1.400 . S
C2084 H2069 0.960 . S
C2084 H2070 0.960 . S
C2084 H2071 0.960 . S
C2084 C2083 1.524 . S
C2085 C2082 1.403 . S
C2085 C2086 1.392 . S
C2085 C2089 1.495 . S
C2086 C2085 1.392 . S
C2086 C2087 1.385 . S
C2086 C2088 1.478 . S
C2087 H2081 0.930 . S
C2087 C2083 1.400 . S
C2087 C2086 1.385 . S
C2088 C2086 1.478 . S
C2088 C2090 1.381 . S
C2088 C2094 1.383 . S
C2089 C2085 1.495 . S
C2089 H2095 0.959 . S
C2089 H2096 0.961 . S
C2089 H2097 0.960 . S
C2090 C2088 1.381 . S
C2090 C2091 1.394 . S
C2090 H2098 0.930 . S
C2091 C2090 1.394 . S
C2091 C2092 1.383 . S
C2091 H2099 0.929 . S
C2092 C2091 1.383 . S
C2092 C2093 1.377 . S
C2093 H2077 0.930 . S
C2093 C2092 1.377 . S
C2093 C2094 1.379 . S
C2094 H2078 0.931 . S
C2094 C2088 1.383 . S
C2094 C2093 1.379 . S
H2095 C2089 0.959 . S
H2096 C2089 0.961 . S
H2097 C2089 0.960 . S
H2098 C2090 0.930 . S
H2099 C2091 0.929 . S
H2100 C2108 0.929 . S
H2101 C2110 0.930 . S
H2102 C2112 0.930 . S
H2103 C2115 0.929 . S
H2104 C2118 0.930 . S
H2105 C2120 0.960 . S
H2106 C2120 0.960 . S
H2107 C2120 0.960 . S
C2108 H2100 0.929 . S
C2108 C2109 1.377 . S
C2108 C2110 1.384 . S
C2109 C2108 1.377 . S
C2109 C2115 1.390 . S
C2110 H2101 0.930 . S
C2110 C2108 1.384 . S
C2110 C2111 1.372 . S
C2111 C2110 1.372 . S
C2111 C2112 1.400 . S
C2111 C2116 1.490 . S
C2112 H2102 0.930 . S
C2112 C2111 1.400 . S
C2112 C2115 1.386 . S
H2113 C2129 0.930 . S
H2114 C2130 0.931 . S
C2115 H2103 0.929 . S
C2115 C2109 1.390 . S
C2115 C2112 1.386 . S
C2116 C2111 1.490 . S
C2116 C2118 1.395 . S
C2116 C2119 1.403 1_655 S
H2117 C2123 0.930 . S
C2118 H2104 0.930 . S
C2118 C2116 1.395 . S
C2118 C2121 1.403 . S
C2119 C2116 1.403 1_455 S
C2119 C2120 1.524 . S
C2119 C2123 1.400 . S
C2120 H2105 0.960 . S
C2120 H2106 0.960 . S
C2120 H2107 0.960 . S
C2120 C2119 1.524 . S
C2121 C2118 1.403 . S
C2121 C2122 1.392 . S
C2121 C2125 1.495 . S
C2122 C2121 1.392 . S
C2122 C2123 1.385 1_655 S
C2122 C2124 1.478 . S
C2123 H2117 0.930 . S
C2123 C2119 1.400 . S
C2123 C2122 1.385 1_455 S
C2124 C2122 1.478 . S
C2124 C2126 1.381 . S
C2124 C2130 1.383 . S
C2125 C2121 1.495 . S
C2125 H2131 0.959 . S
C2125 H2132 0.961 . S
C2125 H2133 0.960 . S
C2126 C2124 1.381 . S
C2126 C2127 1.394 . S
C2126 H2134 0.930 . S
C2127 C2126 1.394 . S
C2127 C2128 1.383 . S
C2127 H2135 0.929 . S
C2128 C2127 1.383 . S
C2128 C2129 1.377 . S
C2129 H2113 0.930 . S
C2129 C2128 1.377 . S
C2129 C2130 1.379 . S
C2130 H2114 0.931 . S
C2130 C2124 1.383 . S
C2130 C2129 1.379 . S
H2131 C2125 0.959 . S
H2132 C2125 0.961 . S
H2133 C2125 0.960 . S
H2134 C2126 0.930 . S
H2135 C2127 0.929 . S
H2136 C2144 0.929 . S
H2137 C2146 0.930 . S
H2138 C2148 0.930 . S
H2139 C2151 0.929 . S
H2140 C2154 0.930 . S
H2141 C2156 0.960 . S
H2142 C2156 0.960 . S
H2143 C2156 0.960 . S
C2144 H2136 0.929 . S
C2144 C2145 1.377 . S
C2144 C2146 1.384 . S
C2145 C2144 1.377 . S
C2145 C2151 1.390 . S
C2146 H2137 0.930 . S
C2146 C2144 1.384 . S
C2146 C2147 1.372 . S
C2147 C2146 1.372 . S
C2147 C2148 1.400 . S
C2147 C2152 1.490 . S
C2148 H2138 0.930 . S
C2148 C2147 1.400 . S
C2148 C2151 1.386 . S
H2149 C2165 0.930 . S
H2150 C2166 0.931 . S
C2151 H2139 0.929 . S
C2151 C2145 1.390 . S
C2151 C2148 1.386 . S
C2152 C2147 1.490 . S
C2152 C2154 1.395 . S
C2152 C2155 1.403 . S
H2153 C2159 0.930 . S
C2154 H2140 0.930 . S
C2154 C2152 1.395 . S
C2154 C2157 1.403 . S
C2155 C2152 1.403 . S
C2155 C2156 1.524 . S
C2155 C2159 1.400 . S
C2156 H2141 0.960 . S
C2156 H2142 0.960 . S
C2156 H2143 0.960 . S
C2156 C2155 1.524 . S
C2157 C2154 1.403 . S
C2157 C2158 1.392 . S
C2157 C2161 1.495 . S
C2158 C2157 1.392 . S
C2158 C2159 1.385 . S
C2158 C2160 1.478 . S
C2159 H2153 0.930 . S
C2159 C2155 1.400 . S
C2159 C2158 1.385 . S
C2160 C2158 1.478 . S
C2160 C2162 1.381 . S
C2160 C2166 1.383 . S
C2161 C2157 1.495 . S
C2161 H2167 0.959 . S
C2161 H2168 0.961 . S
C2161 H2169 0.960 . S
C2162 C2160 1.381 . S
C2162 C2163 1.394 . S
C2162 H2170 0.930 . S
C2163 C2162 1.394 . S
C2163 C2164 1.383 . S
C2163 H2171 0.929 . S
C2164 C2163 1.383 . S
C2164 C2165 1.377 . S
C2165 H2149 0.930 . S
C2165 C2164 1.377 . S
C2165 C2166 1.379 . S
C2166 H2150 0.931 . S
C2166 C2160 1.383 . S
C2166 C2165 1.379 . S
H2167 C2161 0.959 . S
H2168 C2161 0.961 . S
H2169 C2161 0.960 . S
H2170 C2162 0.930 . S
H2171 C2163 0.929 . S
H2172 C2180 0.929 . S
H2173 C2182 0.930 . S
H2174 C2184 0.930 . S
H2175 C2187 0.929 . S
H2176 C2190 0.932 . S
H2177 C2192 0.960 . S
H2178 C2192 0.960 . S
H2179 C2192 0.960 . S
C2180 H2172 0.929 . S
C2180 C2181 1.377 1_655 S
C2180 C2182 1.384 . S
C2181 C2180 1.377 1_455 S
C2181 C2187 1.390 . S
C2182 H2173 0.930 . S
C2182 C2180 1.384 . S
C2182 C2183 1.372 1_655 S
C2183 C2182 1.372 1_455 S
C2183 C2184 1.400 . S
C2183 C2188 1.490 . S
C2184 H2174 0.930 . S
C2184 C2183 1.400 . S
C2184 C2187 1.386 . S
H2185 C2201 0.930 . S
H2186 C2202 0.931 . S
C2187 H2175 0.929 . S
C2187 C2181 1.390 . S
C2187 C2184 1.386 . S
C2188 C2183 1.490 . S
C2188 C2190 1.392 1_455 S
C2188 C2191 1.403 . S
H2189 C2195 0.930 . S
C2190 H2176 0.932 . S
C2190 C2188 1.392 1_655 S
C2190 C2193 1.405 . S
C2191 C2188 1.403 . S
C2191 C2192 1.524 . S
C2191 C2195 1.400 . S
C2192 H2177 0.960 . S
C2192 H2178 0.960 . S
C2192 H2179 0.960 . S
C2192 C2191 1.524 . S
C2193 C2190 1.405 . S
C2193 C2194 1.392 1_655 S
C2193 C2197 1.495 . S
C2194 C2193 1.392 1_455 S
C2194 C2195 1.385 . S
C2194 C2196 1.477 1_455 S
C2195 H2189 0.930 . S
C2195 C2191 1.400 . S
C2195 C2194 1.385 . S
C2196 C2194 1.477 1_655 S
C2196 C2198 1.386 . S
C2196 C2202 1.379 1_655 S
C2197 C2193 1.495 . S
C2197 H2203 0.959 . S
C2197 H2204 0.961 1_655 S
C2197 H2205 0.960 . S
C2198 C2196 1.386 . S
C2198 C2199 1.394 . S
C2198 H2206 0.930 . S
C2199 C2198 1.394 . S
C2199 C2200 1.383 . S
C2199 H2207 0.929 . S
C2200 C2199 1.383 . S
C2200 C2201 1.377 1_655 S
C2201 H2185 0.930 . S
C2201 C2200 1.377 1_455 S
C2201 C2202 1.379 . S
C2202 H2186 0.931 . S
C2202 C2196 1.379 1_455 S
C2202 C2201 1.379 . S
H2203 C2197 0.959 . S
H2204 C2197 0.961 1_455 S
H2205 C2197 0.960 . S
H2206 C2198 0.930 . S
H2207 C2199 0.929 . S
H2208 C2216 0.929 . S
H2209 C2218 0.930 . S
H2210 C2220 0.930 . S
H2211 C2223 0.929 . S
H2212 C2226 0.930 . S
H2213 C2228 0.960 . S
H2214 C2228 0.960 . S
H2215 C2228 0.960 . S
C2216 H2208 0.929 . S
C2216 C2217 1.377 . S
C2216 C2218 1.384 . S
C2217 C2216 1.377 . S
C2217 C2223 1.390 . S
C2218 H2209 0.930 . S
C2218 C2216 1.384 . S
C2218 C2219 1.372 . S
C2219 C2218 1.372 . S
C2219 C2220 1.400 . S
C2219 C2224 1.490 . S
C2220 H2210 0.930 . S
C2220 C2219 1.400 . S
C2220 C2223 1.386 . S
H2221 C2237 0.930 . S
H2222 C2238 0.931 . S
C2223 H2211 0.929 . S
C2223 C2217 1.390 . S
C2223 C2220 1.386 . S
C2224 C2219 1.490 . S
C2224 C2226 1.395 . S
C2224 C2227 1.403 . S
H2225 C2231 0.930 . S
C2226 H2212 0.930 . S
C2226 C2224 1.395 . S
C2226 C2229 1.403 . S
C2227 C2224 1.403 . S
C2227 C2228 1.524 . S
C2227 C2231 1.400 . S
C2228 H2213 0.960 . S
C2228 H2214 0.960 . S
C2228 H2215 0.960 . S
C2228 C2227 1.524 . S
C2229 C2226 1.403 . S
C2229 C2230 1.392 . S
C2229 C2233 1.495 . S
C2230 C2229 1.392 . S
C2230 C2231 1.385 . S
C2230 C2232 1.478 . S
C2231 H2225 0.930 . S
C2231 C2227 1.400 . S
C2231 C2230 1.385 . S
C2232 C2230 1.478 . S
C2232 C2234 1.381 . S
C2232 C2238 1.383 . S
C2233 C2229 1.495 . S
C2233 H2239 0.959 . S
C2233 H2240 0.961 . S
C2233 H2241 0.960 . S
C2234 C2232 1.381 . S
C2234 C2235 1.394 . S
C2234 H2242 0.930 . S
C2235 C2234 1.394 . S
C2235 C2236 1.383 . S
C2235 H2243 0.929 . S
C2236 C2235 1.383 . S
C2236 C2237 1.377 . S
C2237 H2221 0.930 . S
C2237 C2236 1.377 . S
C2237 C2238 1.379 . S
C2238 H2222 0.931 . S
C2238 C2232 1.383 . S
C2238 C2237 1.379 . S
H2239 C2233 0.959 . S
H2240 C2233 0.961 . S
H2241 C2233 0.960 . S
H2242 C2234 0.930 . S
H2243 C2235 0.929 . S
H2244 C2252 0.929 . S
H2245 C2254 0.930 . S
H2246 C2256 0.930 . S
H2247 C2259 0.929 . S
H2248 C2262 0.930 . S
H2249 C2264 0.960 . S
H2250 C2264 0.960 . S
H2251 C2264 0.960 . S
C2252 H2244 0.929 . S
C2252 C2253 1.377 . S
C2252 C2254 1.384 . S
C2253 C2252 1.377 . S
C2253 C2259 1.390 . S
C2254 H2245 0.930 . S
C2254 C2252 1.384 . S
C2254 C2255 1.372 . S
C2255 C2254 1.372 . S
C2255 C2256 1.400 . S
C2255 C2260 1.490 . S
C2256 H2246 0.930 . S
C2256 C2255 1.400 . S
C2256 C2259 1.386 . S
H2257 C2273 0.930 . S
H2258 C2274 0.931 . S
C2259 H2247 0.929 . S
C2259 C2253 1.390 . S
C2259 C2256 1.386 . S
C2260 C2255 1.490 . S
C2260 C2262 1.395 . S
C2260 C2263 1.403 . S
H2261 C2267 0.930 . S
C2262 H2248 0.930 . S
C2262 C2260 1.395 . S
C2262 C2265 1.403 . S
C2263 C2260 1.403 . S
C2263 C2264 1.524 . S
C2263 C2267 1.400 . S
C2264 H2249 0.960 . S
C2264 H2250 0.960 . S
C2264 H2251 0.960 . S
C2264 C2263 1.524 . S
C2265 C2262 1.403 . S
C2265 C2266 1.392 . S
C2265 C2269 1.495 . S
C2266 C2265 1.392 . S
C2266 C2267 1.385 . S
C2266 C2268 1.478 . S
C2267 H2261 0.930 . S
C2267 C2263 1.400 . S
C2267 C2266 1.385 . S
C2268 C2266 1.478 . S
C2268 C2270 1.381 . S
C2268 C2274 1.383 . S
C2269 C2265 1.495 . S
C2269 H2275 0.959 . S
C2269 H2276 0.961 . S
C2269 H2277 0.960 . S
C2270 C2268 1.381 . S
C2270 C2271 1.394 . S
C2270 H2278 0.930 . S
C2271 C2270 1.394 . S
C2271 C2272 1.383 . S
C2271 H2279 0.929 . S
C2272 C2271 1.383 . S
C2272 C2273 1.377 . S
C2273 H2257 0.930 . S
C2273 C2272 1.377 . S
C2273 C2274 1.379 . S
C2274 H2258 0.931 . S
C2274 C2268 1.383 . S
C2274 C2273 1.379 . S
H2275 C2269 0.959 . S
H2276 C2269 0.961 . S
H2277 C2269 0.960 . S
H2278 C2270 0.930 . S
H2279 C2271 0.929 . S
H2280 C2288 0.929 . S
H2281 C2290 0.930 . S
H2282 C2292 0.930 . S
H2283 C2295 0.929 . S
H2284 C2298 0.922 1_565 S
H2285 C2300 0.960 . S
H2286 C2300 0.960 . S
H2287 C2300 0.960 . S
C2288 H2280 0.929 . S
C2288 C2289 1.377 . S
C2288 C2290 1.384 . S
C2289 C2288 1.377 . S
C2289 C2295 1.390 . S
C2290 H2281 0.930 . S
C2290 C2288 1.384 . S
C2290 C2291 1.372 . S
C2291 C2290 1.372 . S
C2291 C2292 1.400 . S
C2291 C2296 1.490 . S
C2292 H2282 0.930 . S
C2292 C2291 1.400 . S
C2292 C2295 1.386 . S
H2293 C2309 0.930 . S
H2294 C2310 0.931 . S
C2295 H2283 0.929 . S
C2295 C2289 1.390 . S
C2295 C2292 1.386 . S
C2296 C2291 1.490 . S
C2296 C2298 1.395 . S
C2296 C2299 1.403 . S
H2297 C2303 0.930 . S
C2298 H2284 0.922 1_545 S
C2298 C2296 1.395 . S
C2298 C2301 1.403 . S
C2299 C2296 1.403 . S
C2299 C2300 1.524 . S
C2299 C2303 1.400 . S
C2300 H2285 0.960 . S
C2300 H2286 0.960 . S
C2300 H2287 0.960 . S
C2300 C2299 1.524 . S
C2301 C2298 1.403 . S
C2301 C2302 1.392 . S
C2301 C2305 1.495 . S
C2302 C2301 1.392 . S
C2302 C2303 1.385 . S
C2302 C2304 1.478 . S
C2303 H2297 0.930 . S
C2303 C2299 1.400 . S
C2303 C2302 1.385 . S
C2304 C2302 1.478 . S
C2304 C2306 1.381 . S
C2304 C2310 1.383 . S
C2305 C2301 1.495 . S
C2305 H2311 0.959 1_545 S
C2305 H2312 0.961 . S
C2305 H2313 0.960 . S
C2306 C2304 1.381 . S
C2306 C2307 1.394 . S
C2306 H2314 0.930 . S
C2307 C2306 1.394 . S
C2307 C2308 1.383 . S
C2307 H2315 0.929 . S
C2308 C2307 1.383 . S
C2308 C2309 1.377 . S
C2309 H2293 0.930 . S
C2309 C2308 1.377 . S
C2309 C2310 1.379 . S
C2310 H2294 0.931 . S
C2310 C2304 1.383 . S
C2310 C2309 1.379 . S
H2311 C2305 0.959 1_565 S
H2312 C2305 0.961 . S
H2313 C2305 0.960 . S
H2314 C2306 0.930 . S
H2315 C2307 0.929 . S
H2316 C2324 0.929 . S
H2317 C2326 0.930 . S
H2318 C2328 0.930 . S
H2319 C2331 0.929 . S
H2320 C2334 0.930 . S
H2321 C2336 0.960 . S
H2322 C2336 0.960 . S
H2323 C2336 0.960 . S
C2324 H2316 0.929 . S
C2324 C2325 1.377 . S
C2324 C2326 1.384 . S
C2325 C2324 1.377 . S
C2325 C2331 1.390 . S
C2326 H2317 0.930 . S
C2326 C2324 1.384 . S
C2326 C2327 1.372 . S
C2327 C2326 1.372 . S
C2327 C2328 1.400 . S
C2327 C2332 1.490 . S
C2328 H2318 0.930 . S
C2328 C2327 1.400 . S
C2328 C2331 1.386 . S
H2329 C2345 0.930 . S
H2330 C2346 0.931 . S
C2331 H2319 0.929 . S
C2331 C2325 1.390 . S
C2331 C2328 1.386 . S
C2332 C2327 1.490 . S
C2332 C2334 1.395 . S
C2332 C2335 1.403 . S
H2333 C2339 0.930 . S
C2334 H2320 0.930 . S
C2334 C2332 1.395 . S
C2334 C2337 1.403 . S
C2335 C2332 1.403 . S
C2335 C2336 1.524 . S
C2335 C2339 1.400 . S
C2336 H2321 0.960 . S
C2336 H2322 0.960 . S
C2336 H2323 0.960 . S
C2336 C2335 1.524 . S
C2337 C2334 1.403 . S
C2337 C2338 1.392 . S
C2337 C2341 1.495 . S
C2338 C2337 1.392 . S
C2338 C2339 1.385 . S
C2338 C2340 1.478 . S
C2339 H2333 0.930 . S
C2339 C2335 1.400 . S
C2339 C2338 1.385 . S
C2340 C2338 1.478 . S
C2340 C2342 1.381 . S
C2340 C2346 1.383 . S
C2341 C2337 1.495 . S
C2341 H2347 0.959 . S
C2341 H2348 0.961 . S
C2341 H2349 0.960 . S
C2342 C2340 1.381 . S
C2342 C2343 1.394 . S
C2342 H2350 0.930 . S
C2343 C2342 1.394 . S
C2343 C2344 1.383 . S
C2343 H2351 0.929 . S
C2344 C2343 1.383 . S
C2344 C2345 1.377 . S
C2345 H2329 0.930 . S
C2345 C2344 1.377 . S
C2345 C2346 1.379 . S
C2346 H2330 0.931 . S
C2346 C2340 1.383 . S
C2346 C2345 1.379 . S
H2347 C2341 0.959 . S
H2348 C2341 0.961 . S
H2349 C2341 0.960 . S
H2350 C2342 0.930 . S
H2351 C2343 0.929 . S
H2352 C2360 0.929 . S
H2353 C2362 0.930 . S
H2354 C2364 0.930 . S
H2355 C2367 0.929 . S
H2356 C2370 0.930 . S
H2357 C2372 0.960 . S
H2358 C2372 0.960 . S
H2359 C2372 0.960 . S
C2360 H2352 0.929 . S
C2360 C2361 1.377 . S
C2360 C2362 1.384 . S
C2361 C2360 1.377 . S
C2361 C2367 1.390 . S
C2362 H2353 0.930 . S
C2362 C2360 1.384 . S
C2362 C2363 1.372 . S
C2363 C2362 1.372 . S
C2363 C2364 1.400 . S
C2363 C2368 1.490 . S
C2364 H2354 0.930 . S
C2364 C2363 1.400 . S
C2364 C2367 1.386 . S
H2365 C2381 0.930 . S
H2366 C2382 0.931 . S
C2367 H2355 0.929 . S
C2367 C2361 1.390 . S
C2367 C2364 1.386 . S
C2368 C2363 1.490 . S
C2368 C2370 1.395 . S
C2368 C2371 1.403 . S
H2369 C2375 0.930 . S
C2370 H2356 0.930 . S
C2370 C2368 1.395 . S
C2370 C2373 1.403 . S
C2371 C2368 1.403 . S
C2371 C2372 1.524 . S
C2371 C2375 1.400 . S
C2372 H2357 0.960 . S
C2372 H2358 0.960 . S
C2372 H2359 0.960 . S
C2372 C2371 1.524 . S
C2373 C2370 1.403 . S
C2373 C2374 1.392 . S
C2373 C2377 1.495 . S
C2374 C2373 1.392 . S
C2374 C2375 1.385 . S
C2374 C2376 1.478 . S
C2375 H2369 0.930 . S
C2375 C2371 1.400 . S
C2375 C2374 1.385 . S
C2376 C2374 1.478 . S
C2376 C2378 1.381 . S
C2376 C2382 1.383 . S
C2377 C2373 1.495 . S
C2377 H2383 0.959 . S
C2377 H2384 0.961 . S
C2377 H2385 0.960 . S
C2378 C2376 1.381 . S
C2378 C2379 1.394 . S
C2378 H2386 0.930 . S
C2379 C2378 1.394 . S
C2379 C2380 1.383 . S
C2379 H2387 0.929 . S
C2380 C2379 1.383 . S
C2380 C2381 1.377 . S
C2381 H2365 0.930 . S
C2381 C2380 1.377 . S
C2381 C2382 1.379 . S
C2382 H2366 0.931 . S
C2382 C2376 1.383 . S
C2382 C2381 1.379 . S
H2383 C2377 0.959 . S
H2384 C2377 0.961 . S
H2385 C2377 0.960 . S
H2386 C2378 0.930 . S
H2387 C2379 0.929 . S
H2388 C2396 0.929 . S
H2389 C2398 0.930 . S
H2390 C2400 0.930 . S
H2391 C2403 0.951 . S
H2392 C2406 0.930 . S
H2393 C2408 0.971 . S
H2394 C2408 0.964 . S
H2395 C2408 0.967 . S
C2396 H2388 0.929 . S
C2396 C2397 1.377 . S
C2396 C2398 1.384 . S
C2397 C2396 1.377 . S
C2397 C2403 1.390 . S
C2398 H2389 0.930 . S
C2398 C2396 1.384 . S
C2398 C2399 1.372 . S
C2399 C2398 1.372 . S
C2399 C2400 1.400 . S
C2399 C2404 1.490 . S
C2400 H2390 0.930 . S
C2400 C2399 1.400 . S
C2400 C2403 1.386 . S
H2401 C2417 0.930 . S
H2402 C2418 0.931 . S
C2403 H2391 0.951 . S
C2403 C2397 1.390 . S
C2403 C2400 1.386 . S
C2404 C2399 1.490 . S
C2404 C2406 1.395 . S
C2404 C2407 1.403 . S
H2405 C2411 0.930 . S
C2406 H2392 0.930 . S
C2406 C2404 1.395 . S
C2406 C2409 1.403 . S
C2407 C2404 1.403 . S
C2407 C2408 1.503 1_556 S
C2407 C2411 1.400 . S
C2408 H2393 0.971 . S
C2408 H2394 0.964 . S
C2408 H2395 0.967 . S
C2408 C2407 1.503 1_554 S
C2409 C2406 1.403 . S
C2409 C2410 1.392 . S
C2409 C2413 1.495 . S
C2410 C2409 1.392 . S
C2410 C2411 1.385 . S
C2410 C2412 1.478 . S
C2411 H2405 0.930 . S
C2411 C2407 1.400 . S
C2411 C2410 1.385 . S
C2412 C2410 1.478 . S
C2412 C2414 1.381 . S
C2412 C2418 1.383 . S
C2413 C2409 1.495 . S
C2413 H2419 0.959 . S
C2413 H2420 0.961 . S
C2413 H2421 0.960 . S
C2414 C2412 1.381 . S
C2414 C2415 1.394 . S
C2414 H2422 0.930 . S
C2415 C2414 1.394 . S
C2415 C2416 1.383 . S
C2415 H2423 0.929 . S
C2416 C2415 1.383 . S
C2416 C2417 1.377 . S
C2417 H2401 0.930 . S
C2417 C2416 1.377 . S
C2417 C2418 1.379 . S
C2418 H2402 0.931 . S
C2418 C2412 1.383 . S
C2418 C2417 1.379 . S
H2419 C2413 0.959 . S
H2420 C2413 0.961 . S
H2421 C2413 0.960 . S
H2422 C2414 0.930 . S
H2423 C2415 0.929 . S
H2424 C2432 0.929 . S
H2425 C2434 0.930 . S
H2426 C2436 0.930 . S
H2427 C2439 0.929 . S
H2428 C2442 0.930 . S
H2429 C2444 0.960 . S
H2430 C2444 0.960 . S
H2431 C2444 0.960 . S
C2432 H2424 0.929 . S
C2432 C2433 1.377 . S
C2432 C2434 1.384 . S
C2433 C2432 1.377 . S
C2433 C2439 1.390 . S
C2434 H2425 0.930 . S
C2434 C2432 1.384 . S
C2434 C2435 1.372 . S
C2435 C2434 1.372 . S
C2435 C2436 1.400 . S
C2435 C2440 1.490 . S
C2436 H2426 0.930 . S
C2436 C2435 1.400 . S
C2436 C2439 1.386 . S
H2437 C2453 0.930 . S
H2438 C2454 0.931 . S
C2439 H2427 0.929 . S
C2439 C2433 1.390 . S
C2439 C2436 1.386 . S
C2440 C2435 1.490 . S
C2440 C2442 1.395 . S
C2440 C2443 1.403 . S
H2441 C2447 0.930 . S
C2442 H2428 0.930 . S
C2442 C2440 1.395 . S
C2442 C2445 1.403 . S
C2443 C2440 1.403 . S
C2443 C2444 1.524 . S
C2443 C2447 1.400 . S
C2444 H2429 0.960 . S
C2444 H2430 0.960 . S
C2444 H2431 0.960 . S
C2444 C2443 1.524 . S
C2445 C2442 1.403 . S
C2445 C2446 1.392 . S
C2445 C2449 1.495 . S
C2446 C2445 1.392 . S
C2446 C2447 1.385 . S
C2446 C2448 1.478 . S
C2447 H2441 0.930 . S
C2447 C2443 1.400 . S
C2447 C2446 1.385 . S
C2448 C2446 1.478 . S
C2448 C2450 1.381 . S
C2448 C2454 1.383 . S
C2449 C2445 1.495 . S
C2449 H2455 0.959 . S
C2449 H2456 0.961 . S
C2449 H2457 0.960 . S
C2450 C2448 1.381 . S
C2450 C2451 1.394 . S
C2450 H2458 0.930 . S
C2451 C2450 1.394 . S
C2451 C2452 1.383 . S
C2451 H2459 0.929 . S
C2452 C2451 1.383 . S
C2452 C2453 1.377 . S
C2453 H2437 0.930 . S
C2453 C2452 1.377 . S
C2453 C2454 1.379 . S
C2454 H2438 0.931 . S
C2454 C2448 1.383 . S
C2454 C2453 1.379 . S
H2455 C2449 0.959 . S
H2456 C2449 0.961 . S
H2457 C2449 0.960 . S
H2458 C2450 0.930 . S
H2459 C2451 0.929 . S
H2460 C2468 0.929 . S
H2461 C2470 0.930 . S
H2462 C2472 0.930 1_556 S
H2463 C2475 0.929 . S
H2464 C2478 0.930 . S
H2465 C2480 0.960 . S
H2466 C2480 0.960 . S
H2467 C2480 0.960 . S
C2468 H2460 0.929 . S
C2468 C2469 1.377 . S
C2468 C2470 1.384 . S
C2469 C2468 1.377 . S
C2469 C2475 1.390 1_554 S
C2470 H2461 0.930 . S
C2470 C2468 1.384 . S
C2470 C2471 1.372 . S
C2471 C2470 1.372 . S
C2471 C2472 1.400 . S
C2471 C2476 1.490 . S
C2472 H2462 0.930 1_554 S
C2472 C2471 1.400 . S
C2472 C2475 1.386 1_554 S
H2473 C2489 0.930 . S
H2474 C2490 0.931 . S
C2475 H2463 0.929 . S
C2475 C2469 1.390 1_556 S
C2475 C2472 1.386 1_556 S
C2476 C2471 1.490 . S
C2476 C2478 1.395 . S
C2476 C2479 1.403 . S
H2477 C2483 0.930 . S
C2478 H2464 0.930 . S
C2478 C2476 1.395 . S
C2478 C2481 1.403 . S
C2479 C2476 1.403 . S
C2479 C2480 1.524 1_554 S
C2479 C2483 1.400 . S
C2480 H2465 0.960 . S
C2480 H2466 0.960 . S
C2480 H2467 0.960 . S
C2480 C2479 1.524 1_556 S
C2481 C2478 1.403 . S
C2481 C2482 1.392 . S
C2481 C2485 1.495 . S
C2482 C2481 1.392 . S
C2482 C2483 1.385 . S
C2482 C2484 1.478 . S
C2483 H2477 0.930 . S
C2483 C2479 1.400 . S
C2483 C2482 1.385 . S
C2484 C2482 1.478 . S
C2484 C2486 1.381 . S
C2484 C2490 1.383 . S
C2485 C2481 1.495 . S
C2485 H2491 0.959 . S
C2485 H2492 0.961 . S
C2485 H2493 0.960 . S
C2486 C2484 1.381 . S
C2486 C2487 1.394 . S
C2486 H2494 0.930 . S
C2487 C2486 1.394 . S
C2487 C2488 1.383 . S
C2487 H2495 0.929 . S
C2488 C2487 1.383 . S
C2488 C2489 1.377 . S
C2489 H2473 0.930 . S
C2489 C2488 1.377 . S
C2489 C2490 1.379 . S
C2490 H2474 0.931 . S
C2490 C2484 1.383 . S
C2490 C2489 1.379 . S
H2491 C2485 0.959 . S
H2492 C2485 0.961 . S
H2493 C2485 0.960 . S
H2494 C2486 0.930 . S
H2495 C2487 0.929 . S
H2496 C2504 0.929 . S
H2497 C2506 0.930 . S
H2498 C2508 0.930 . S
H2499 C2511 0.929 . S
H2500 C2514 0.930 . S
H2501 C2516 0.960 . S
H2502 C2516 0.960 . S
H2503 C2516 0.960 . S
C2504 H2496 0.929 . S
C2504 C2505 1.377 . S
C2504 C2506 1.384 . S
C2505 C2504 1.377 . S
C2505 C2511 1.390 . S
C2506 H2497 0.930 . S
C2506 C2504 1.384 . S
C2506 C2507 1.372 . S
C2507 C2506 1.372 . S
C2507 C2508 1.400 . S
C2507 C2512 1.490 . S
C2508 H2498 0.930 . S
C2508 C2507 1.400 . S
C2508 C2511 1.386 . S
H2509 C2525 0.930 . S
H2510 C2526 0.931 . S
C2511 H2499 0.929 . S
C2511 C2505 1.390 . S
C2511 C2508 1.386 . S
C2512 C2507 1.490 . S
C2512 C2514 1.395 . S
C2512 C2515 1.403 . S
H2513 C2519 0.930 . S
C2514 H2500 0.930 . S
C2514 C2512 1.395 . S
C2514 C2517 1.403 . S
C2515 C2512 1.403 . S
C2515 C2516 1.524 . S
C2515 C2519 1.400 . S
C2516 H2501 0.960 . S
C2516 H2502 0.960 . S
C2516 H2503 0.960 . S
C2516 C2515 1.524 . S
C2517 C2514 1.403 . S
C2517 C2518 1.392 . S
C2517 C2521 1.495 . S
C2518 C2517 1.392 . S
C2518 C2519 1.385 . S
C2518 C2520 1.478 . S
C2519 H2513 0.930 . S
C2519 C2515 1.400 . S
C2519 C2518 1.385 . S
C2520 C2518 1.478 . S
C2520 C2522 1.381 . S
C2520 C2526 1.383 . S
C2521 C2517 1.495 . S
C2521 H2527 0.959 . S
C2521 H2528 0.961 . S
C2521 H2529 0.960 . S
C2522 C2520 1.381 . S
C2522 C2523 1.394 . S
C2522 H2530 0.930 . S
C2523 C2522 1.394 . S
C2523 C2524 1.383 . S
C2523 H2531 0.929 . S
C2524 C2523 1.383 . S
C2524 C2525 1.377 . S
C2525 H2509 0.930 . S
C2525 C2524 1.377 . S
C2525 C2526 1.379 . S
C2526 H2510 0.931 . S
C2526 C2520 1.383 . S
C2526 C2525 1.379 . S
H2527 C2521 0.959 . S
H2528 C2521 0.961 . S
H2529 C2521 0.960 . S
H2530 C2522 0.930 . S
H2531 C2523 0.929 . S
H2532 C2540 0.929 . S
H2533 C2542 0.930 . S
H2534 C2544 0.930 . S
H2535 C2547 0.929 . S
H2536 C2550 0.930 . S
H2537 C2552 0.981 . S
H2538 C2552 0.974 . S
H2539 C2552 0.968 . S
C2540 H2532 0.929 . S
C2540 C2541 1.377 . S
C2540 C2542 1.384 . S
C2541 C2540 1.377 . S
C2541 C2547 1.390 . S
C2542 H2533 0.930 . S
C2542 C2540 1.384 . S
C2542 C2543 1.372 . S
C2543 C2542 1.372 . S
C2543 C2544 1.400 . S
C2543 C2548 1.490 . S
C2544 H2534 0.930 . S
C2544 C2543 1.400 . S
C2544 C2547 1.386 . S
H2545 C2561 0.930 . S
H2546 C2562 0.931 . S
C2547 H2535 0.929 . S
C2547 C2541 1.390 . S
C2547 C2544 1.386 . S
C2548 C2543 1.490 . S
C2548 C2550 1.395 . S
C2548 C2551 1.403 . S
H2549 C2555 0.930 . S
C2550 H2536 0.930 . S
C2550 C2548 1.395 . S
C2550 C2553 1.403 . S
C2551 C2548 1.403 . S
C2551 C2552 1.483 1_655 S
C2551 C2555 1.400 . S
C2552 H2537 0.981 . S
C2552 H2538 0.974 . S
C2552 H2539 0.968 . S
C2552 C2551 1.483 1_455 S
C2553 C2550 1.403 . S
C2553 C2554 1.392 . S
C2553 C2557 1.495 . S
C2554 C2553 1.392 . S
C2554 C2555 1.385 . S
C2554 C2556 1.478 . S
C2555 H2549 0.930 . S
C2555 C2551 1.400 . S
C2555 C2554 1.385 . S
C2556 C2554 1.478 . S
C2556 C2558 1.381 . S
C2556 C2562 1.383 . S
C2557 C2553 1.495 . S
C2557 H2563 0.959 . S
C2557 H2564 0.961 . S
C2557 H2565 0.960 . S
C2558 C2556 1.381 . S
C2558 C2559 1.394 . S
C2558 H2566 0.930 . S
C2559 C2558 1.394 . S
C2559 C2560 1.383 . S
C2559 H2567 0.929 . S
C2560 C2559 1.383 . S
C2560 C2561 1.377 . S
C2561 H2545 0.930 . S
C2561 C2560 1.377 . S
C2561 C2562 1.379 . S
C2562 H2546 0.931 . S
C2562 C2556 1.383 . S
C2562 C2561 1.379 . S
H2563 C2557 0.959 . S
H2564 C2557 0.961 . S
H2565 C2557 0.960 . S
H2566 C2558 0.930 . S
H2567 C2559 0.929 . S
H2568 C2576 0.929 . S
H2569 C2578 0.930 . S
H2570 C2580 0.930 . S
H2571 C2583 0.929 . S
H2572 C2586 0.930 . S
H2573 C2588 0.960 . S
H2574 C2588 0.960 . S
H2575 C2588 0.960 . S
C2576 H2568 0.929 . S
C2576 C2577 1.377 . S
C2576 C2578 1.384 . S
C2577 C2576 1.377 . S
C2577 C2583 1.390 . S
C2578 H2569 0.930 . S
C2578 C2576 1.384 . S
C2578 C2579 1.372 . S
C2579 C2578 1.372 . S
C2579 C2580 1.400 . S
C2579 C2584 1.490 . S
C2580 H2570 0.930 . S
C2580 C2579 1.400 . S
C2580 C2583 1.386 . S
H2581 C2597 0.930 . S
H2582 C2598 0.931 . S
C2583 H2571 0.929 . S
C2583 C2577 1.390 . S
C2583 C2580 1.386 . S
C2584 C2579 1.490 . S
C2584 C2586 1.395 . S
C2584 C2587 1.403 . S
H2585 C2591 0.930 . S
C2586 H2572 0.930 . S
C2586 C2584 1.395 . S
C2586 C2589 1.403 . S
C2587 C2584 1.403 . S
C2587 C2588 1.524 . S
C2587 C2591 1.400 . S
C2588 H2573 0.960 . S
C2588 H2574 0.960 . S
C2588 H2575 0.960 . S
C2588 C2587 1.524 . S
C2589 C2586 1.403 . S
C2589 C2590 1.392 . S
C2589 C2593 1.495 . S
C2590 C2589 1.392 . S
C2590 C2591 1.385 . S
C2590 C2592 1.478 . S
C2591 H2585 0.930 . S
C2591 C2587 1.400 . S
C2591 C2590 1.385 . S
C2592 C2590 1.478 . S
C2592 C2594 1.381 . S
C2592 C2598 1.383 . S
C2593 C2589 1.495 . S
C2593 H2599 0.959 . S
C2593 H2600 0.961 . S
C2593 H2601 0.960 . S
C2594 C2592 1.381 . S
C2594 C2595 1.394 . S
C2594 H2602 0.930 . S
C2595 C2594 1.394 . S
C2595 C2596 1.383 . S
C2595 H2603 0.929 . S
C2596 C2595 1.383 . S
C2596 C2597 1.377 . S
C2597 H2581 0.930 . S
C2597 C2596 1.377 . S
C2597 C2598 1.379 . S
C2598 H2582 0.931 . S
C2598 C2592 1.383 . S
C2598 C2597 1.379 . S
H2599 C2593 0.959 . S
H2600 C2593 0.961 . S
H2601 C2593 0.960 . S
H2602 C2594 0.930 . S
H2603 C2595 0.929 . S
H2604 C2612 0.929 . S
H2605 C2614 0.930 . S
H2606 C2616 0.930 . S
H2607 C2619 0.932 1_655 S
H2608 C2622 0.930 . S
H2609 C2624 0.960 . S
H2610 C2624 0.960 . S
H2611 C2624 0.960 . S
C2612 H2604 0.929 . S
C2612 C2613 1.377 . S
C2612 C2614 1.384 . S
C2613 C2612 1.377 . S
C2613 C2619 1.390 . S
C2614 H2605 0.930 . S
C2614 C2612 1.384 . S
C2614 C2615 1.372 . S
C2615 C2614 1.372 . S
C2615 C2616 1.400 . S
C2615 C2620 1.490 . S
C2616 H2606 0.930 . S
C2616 C2615 1.400 . S
C2616 C2619 1.386 . S
H2617 C2633 0.930 . S
H2618 C2634 0.931 . S
C2619 H2607 0.932 1_455 S
C2619 C2613 1.390 . S
C2619 C2616 1.386 . S
C2620 C2615 1.490 . S
C2620 C2622 1.395 . S
C2620 C2623 1.403 . S
H2621 C2627 0.930 . S
C2622 H2608 0.930 . S
C2622 C2620 1.395 . S
C2622 C2625 1.403 . S
C2623 C2620 1.403 . S
C2623 C2624 1.524 . S
C2623 C2627 1.400 . S
C2624 H2609 0.960 . S
C2624 H2610 0.960 . S
C2624 H2611 0.960 . S
C2624 C2623 1.524 . S
C2625 C2622 1.403 . S
C2625 C2626 1.392 . S
C2625 C2629 1.495 . S
C2626 C2625 1.392 . S
C2626 C2627 1.385 . S
C2626 C2628 1.478 . S
C2627 H2621 0.930 . S
C2627 C2623 1.400 . S
C2627 C2626 1.385 . S
C2628 C2626 1.478 . S
C2628 C2630 1.381 . S
C2628 C2634 1.383 . S
C2629 C2625 1.495 . S
C2629 H2635 0.959 . S
C2629 H2636 0.961 . S
C2629 H2637 0.960 . S
C2630 C2628 1.381 . S
C2630 C2631 1.394 . S
C2630 H2638 0.930 . S
C2631 C2630 1.394 . S
C2631 C2632 1.383 . S
C2631 H2639 0.929 . S
C2632 C2631 1.383 . S
C2632 C2633 1.377 . S
C2633 H2617 0.930 . S
C2633 C2632 1.377 . S
C2633 C2634 1.379 . S
C2634 H2618 0.931 . S
C2634 C2628 1.383 . S
C2634 C2633 1.379 . S
H2635 C2629 0.959 . S
H2636 C2629 0.961 . S
H2637 C2629 0.960 . S
H2638 C2630 0.930 . S
H2639 C2631 0.929 . S
H2640 C2648 0.929 . S
H2641 C2650 0.930 . S
H2642 C2652 0.930 . S
H2643 C2655 0.929 . S
H2644 C2658 0.930 . S
H2645 C2660 0.960 . S
H2646 C2660 0.960 . S
H2647 C2660 0.960 . S
C2648 H2640 0.929 . S
C2648 C2649 1.377 . S
C2648 C2650 1.384 . S
C2649 C2648 1.377 . S
C2649 C2655 1.390 . S
C2650 H2641 0.930 . S
C2650 C2648 1.384 . S
C2650 C2651 1.372 . S
C2651 C2650 1.372 . S
C2651 C2652 1.400 . S
C2651 C2656 1.490 . S
C2652 H2642 0.930 . S
C2652 C2651 1.400 . S
C2652 C2655 1.386 . S
H2653 C2669 0.930 . S
H2654 C2670 0.931 . S
C2655 H2643 0.929 . S
C2655 C2649 1.390 . S
C2655 C2652 1.386 . S
C2656 C2651 1.490 . S
C2656 C2658 1.395 . S
C2656 C2659 1.403 . S
H2657 C2663 0.930 . S
C2658 H2644 0.930 . S
C2658 C2656 1.395 . S
C2658 C2661 1.403 . S
C2659 C2656 1.403 . S
C2659 C2660 1.524 . S
C2659 C2663 1.400 . S
C2660 H2645 0.960 . S
C2660 H2646 0.960 . S
C2660 H2647 0.960 . S
C2660 C2659 1.524 . S
C2661 C2658 1.403 . S
C2661 C2662 1.392 . S
C2661 C2665 1.495 . S
C2662 C2661 1.392 . S
C2662 C2663 1.385 . S
C2662 C2664 1.478 . S
C2663 H2657 0.930 . S
C2663 C2659 1.400 . S
C2663 C2662 1.385 . S
C2664 C2662 1.478 . S
C2664 C2666 1.381 . S
C2664 C2670 1.383 . S
C2665 C2661 1.495 . S
C2665 H2671 0.959 . S
C2665 H2672 0.961 . S
C2665 H2673 0.960 . S
C2666 C2664 1.381 . S
C2666 C2667 1.394 . S
C2666 H2674 0.930 . S
C2667 C2666 1.394 . S
C2667 C2668 1.383 . S
C2667 H2675 0.929 . S
C2668 C2667 1.383 . S
C2668 C2669 1.377 . S
C2669 H2653 0.930 . S
C2669 C2668 1.377 . S
C2669 C2670 1.379 . S
C2670 H2654 0.931 . S
C2670 C2664 1.383 . S
C2670 C2669 1.379 . S
H2671 C2665 0.959 . S
H2672 C2665 0.961 . S
H2673 C2665 0.960 . S
H2674 C2666 0.930 . S
H2675 C2667 0.929 . S
H2676 C2684 0.929 . S
H2677 C2686 0.930 . S
H2678 C2688 0.930 . S
H2679 C2691 0.929 . S
H2680 C2694 0.930 . S
H2681 C2696 0.960 . S
H2682 C2696 0.960 . S
H2683 C2696 0.960 . S
C2684 H2676 0.929 . S
C2684 C2685 1.377 . S
C2684 C2686 1.384 . S
C2685 C2684 1.377 . S
C2685 C2691 1.390 . S
C2686 H2677 0.930 . S
C2686 C2684 1.384 . S
C2686 C2687 1.372 . S
C2687 C2686 1.372 . S
C2687 C2688 1.400 . S
C2687 C2692 1.490 . S
C2688 H2678 0.930 . S
C2688 C2687 1.400 . S
C2688 C2691 1.386 . S
H2689 C2705 0.930 . S
H2690 C2706 0.931 . S
C2691 H2679 0.929 . S
C2691 C2685 1.390 . S
C2691 C2688 1.386 . S
C2692 C2687 1.490 . S
C2692 C2694 1.395 . S
C2692 C2695 1.403 . S
H2693 C2699 0.930 . S
C2694 H2680 0.930 . S
C2694 C2692 1.395 . S
C2694 C2697 1.403 . S
C2695 C2692 1.403 . S
C2695 C2696 1.524 . S
C2695 C2699 1.400 . S
C2696 H2681 0.960 . S
C2696 H2682 0.960 . S
C2696 H2683 0.960 . S
C2696 C2695 1.524 . S
C2697 C2694 1.403 . S
C2697 C2698 1.392 . S
C2697 C2701 1.495 . S
C2698 C2697 1.392 . S
C2698 C2699 1.385 . S
C2698 C2700 1.478 . S
C2699 H2693 0.930 . S
C2699 C2695 1.400 . S
C2699 C2698 1.385 . S
C2700 C2698 1.478 . S
C2700 C2702 1.381 . S
C2700 C2706 1.383 . S
C2701 C2697 1.495 . S
C2701 H2707 0.959 . S
C2701 H2708 0.961 . S
C2701 H2709 0.960 . S
C2702 C2700 1.381 . S
C2702 C2703 1.394 . S
C2702 H2710 0.930 . S
C2703 C2702 1.394 . S
C2703 C2704 1.383 . S
C2703 H2711 0.929 . S
C2704 C2703 1.383 . S
C2704 C2705 1.377 . S
C2705 H2689 0.930 . S
C2705 C2704 1.377 . S
C2705 C2706 1.379 . S
C2706 H2690 0.931 . S
C2706 C2700 1.383 . S
C2706 C2705 1.379 . S
H2707 C2701 0.959 . S
H2708 C2701 0.961 . S
H2709 C2701 0.960 . S
H2710 C2702 0.930 . S
H2711 C2703 0.929 . S
H2712 C2720 0.929 . S
H2713 C2722 0.925 1_545 S
H2714 C2724 0.930 . S
H2715 C2727 0.929 . S
H2716 C2730 0.930 . S
H2717 C2732 0.960 . S
H2718 C2732 0.960 . S
H2719 C2732 0.960 . S
C2720 H2712 0.929 . S
C2720 C2721 1.377 1_545 S
C2720 C2722 1.382 1_545 S
C2721 C2720 1.377 1_565 S
C2721 C2727 1.390 . S
C2722 H2713 0.925 1_565 S
C2722 C2720 1.382 1_565 S
C2722 C2723 1.378 . S
C2723 C2722 1.378 . S
C2723 C2724 1.400 . S
C2723 C2728 1.490 . S
C2724 H2714 0.930 . S
C2724 C2723 1.400 . S
C2724 C2727 1.386 . S
H2725 C2741 0.930 . S
H2726 C2742 0.931 . S
C2727 H2715 0.929 . S
C2727 C2721 1.390 . S
C2727 C2724 1.386 . S
C2728 C2723 1.490 . S
C2728 C2730 1.395 . S
C2728 C2731 1.403 . S
H2729 C2735 0.930 . S
C2730 H2716 0.930 . S
C2730 C2728 1.395 . S
C2730 C2733 1.403 . S
C2731 C2728 1.403 . S
C2731 C2732 1.524 . S
C2731 C2735 1.400 . S
C2732 H2717 0.960 . S
C2732 H2718 0.960 . S
C2732 H2719 0.960 . S
C2732 C2731 1.524 . S
C2733 C2730 1.403 . S
C2733 C2734 1.392 . S
C2733 C2737 1.495 . S
C2734 C2733 1.392 . S
C2734 C2735 1.385 . S
C2734 C2736 1.478 . S
C2735 H2729 0.930 . S
C2735 C2731 1.400 . S
C2735 C2734 1.385 . S
C2736 C2734 1.478 . S
C2736 C2738 1.381 . S
C2736 C2742 1.383 . S
C2737 C2733 1.495 . S
C2737 H2743 0.959 . S
C2737 H2744 0.961 . S
C2737 H2745 0.960 . S
C2738 C2736 1.381 . S
C2738 C2739 1.394 . S
C2738 H2746 0.930 . S
C2739 C2738 1.394 . S
C2739 C2740 1.383 . S
C2739 H2747 0.929 . S
C2740 C2739 1.383 . S
C2740 C2741 1.377 . S
C2741 H2725 0.930 . S
C2741 C2740 1.377 . S
C2741 C2742 1.379 . S
C2742 H2726 0.931 . S
C2742 C2736 1.383 . S
C2742 C2741 1.379 . S
H2743 C2737 0.959 . S
H2744 C2737 0.961 . S
H2745 C2737 0.960 . S
H2746 C2738 0.930 . S
H2747 C2739 0.929 . S
H2748 C2756 0.957 . S
H2749 C2758 0.930 . S
H2750 C2760 0.930 . S
H2751 C2763 0.929 . S
H2752 C2766 0.930 . S
H2753 C2768 0.960 . S
H2754 C2768 0.960 . S
H2755 C2768 0.960 . S
C2756 H2748 0.957 . S
C2756 C2757 1.377 . S
C2756 C2758 1.384 . S
C2757 C2756 1.377 . S
C2757 C2763 1.390 . S
C2758 H2749 0.930 . S
C2758 C2756 1.384 . S
C2758 C2759 1.372 . S
C2759 C2758 1.372 . S
C2759 C2760 1.400 . S
C2759 C2764 1.490 . S
C2760 H2750 0.930 . S
C2760 C2759 1.400 . S
C2760 C2763 1.386 . S
H2761 C2777 0.930 . S
H2762 C2778 0.931 . S
C2763 H2751 0.929 . S
C2763 C2757 1.390 . S
C2763 C2760 1.386 . S
C2764 C2759 1.490 . S
C2764 C2766 1.395 . S
C2764 C2767 1.403 . S
H2765 C2771 0.930 . S
C2766 H2752 0.930 . S
C2766 C2764 1.395 . S
C2766 C2769 1.403 . S
C2767 C2764 1.403 . S
C2767 C2768 1.524 . S
C2767 C2771 1.400 . S
C2768 H2753 0.960 . S
C2768 H2754 0.960 . S
C2768 H2755 0.960 . S
C2768 C2767 1.524 . S
C2769 C2766 1.403 . S
C2769 C2770 1.392 . S
C2769 C2773 1.495 . S
C2770 C2769 1.392 . S
C2770 C2771 1.385 . S
C2770 C2772 1.478 . S
C2771 H2765 0.930 . S
C2771 C2767 1.400 . S
C2771 C2770 1.385 . S
C2772 C2770 1.478 . S
C2772 C2774 1.381 . S
C2772 C2778 1.383 . S
C2773 C2769 1.495 . S
C2773 H2779 0.959 . S
C2773 H2780 0.961 . S
C2773 H2781 0.960 . S
C2774 C2772 1.381 . S
C2774 C2775 1.394 . S
C2774 H2782 0.930 . S
C2775 C2774 1.394 . S
C2775 C2776 1.383 . S
C2775 H2783 0.929 . S
C2776 C2775 1.383 . S
C2776 C2777 1.377 . S
C2777 H2761 0.930 . S
C2777 C2776 1.377 . S
C2777 C2778 1.379 . S
C2778 H2762 0.931 . S
C2778 C2772 1.383 . S
C2778 C2777 1.379 . S
H2779 C2773 0.959 . S
H2780 C2773 0.961 . S
H2781 C2773 0.960 . S
H2782 C2774 0.930 . S
H2783 C2775 0.929 . S
H2784 C2792 0.929 . S
H2785 C2794 0.930 . S
H2786 C2796 0.930 . S
H2787 C2799 0.929 . S
H2788 C2802 0.930 . S
H2789 C2804 0.960 . S
H2790 C2804 0.960 . S
H2791 C2804 0.960 . S
C2792 H2784 0.929 . S
C2792 C2793 1.377 . S
C2792 C2794 1.384 . S
C2793 C2792 1.377 . S
C2793 C2799 1.390 . S
C2794 H2785 0.930 . S
C2794 C2792 1.384 . S
C2794 C2795 1.372 . S
C2795 C2794 1.372 . S
C2795 C2796 1.400 . S
C2795 C2800 1.490 . S
C2796 H2786 0.930 . S
C2796 C2795 1.400 . S
C2796 C2799 1.386 . S
H2797 C2813 0.930 . S
H2798 C2814 0.931 . S
C2799 H2787 0.929 . S
C2799 C2793 1.390 . S
C2799 C2796 1.386 . S
C2800 C2795 1.490 . S
C2800 C2802 1.395 . S
C2800 C2803 1.403 . S
H2801 C2807 0.930 . S
C2802 H2788 0.930 . S
C2802 C2800 1.395 . S
C2802 C2805 1.403 . S
C2803 C2800 1.403 . S
C2803 C2804 1.524 . S
C2803 C2807 1.400 . S
C2804 H2789 0.960 . S
C2804 H2790 0.960 . S
C2804 H2791 0.960 . S
C2804 C2803 1.524 . S
C2805 C2802 1.403 . S
C2805 C2806 1.392 . S
C2805 C2809 1.495 . S
C2806 C2805 1.392 . S
C2806 C2807 1.385 . S
C2806 C2808 1.478 . S
C2807 H2801 0.930 . S
C2807 C2803 1.400 . S
C2807 C2806 1.385 . S
C2808 C2806 1.478 . S
C2808 C2810 1.381 . S
C2808 C2814 1.383 . S
C2809 C2805 1.495 . S
C2809 H2815 0.959 . S
C2809 H2816 0.961 . S
C2809 H2817 0.960 . S
C2810 C2808 1.381 . S
C2810 C2811 1.394 . S
C2810 H2818 0.930 . S
C2811 C2810 1.394 . S
C2811 C2812 1.383 . S
C2811 H2819 0.929 . S
C2812 C2811 1.383 . S
C2812 C2813 1.377 . S
C2813 H2797 0.930 . S
C2813 C2812 1.377 . S
C2813 C2814 1.379 . S
C2814 H2798 0.931 . S
C2814 C2808 1.383 . S
C2814 C2813 1.379 . S
H2815 C2809 0.959 . S
H2816 C2809 0.961 . S
H2817 C2809 0.960 . S
H2818 C2810 0.930 . S
H2819 C2811 0.929 . S
H2820 C2828 0.929 1_556 S
H2821 C2830 0.930 . S
H2822 C2832 0.930 . S
H2823 C2835 0.929 . S
H2824 C2838 0.930 . S
H2825 C2840 0.960 . S
H2826 C2840 0.960 . S
H2827 C2840 0.960 . S
C2828 H2820 0.929 1_554 S
C2828 C2829 1.377 . S
C2828 C2830 1.384 . S
C2829 C2828 1.377 . S
C2829 C2835 1.390 . S
C2830 H2821 0.930 . S
C2830 C2828 1.384 . S
C2830 C2831 1.372 . S
C2831 C2830 1.372 . S
C2831 C2832 1.400 . S
C2831 C2836 1.490 . S
C2832 H2822 0.930 . S
C2832 C2831 1.400 . S
C2832 C2835 1.386 . S
H2833 C2849 0.930 . S
H2834 C2850 0.931 . S
C2835 H2823 0.929 . S
C2835 C2829 1.390 . S
C2835 C2832 1.386 . S
C2836 C2831 1.490 . S
C2836 C2838 1.395 . S
C2836 C2839 1.403 . S
H2837 C2843 0.930 . S
C2838 H2824 0.930 . S
C2838 C2836 1.395 . S
C2838 C2841 1.403 . S
C2839 C2836 1.403 . S
C2839 C2840 1.524 . S
C2839 C2843 1.400 . S
C2840 H2825 0.960 . S
C2840 H2826 0.960 . S
C2840 H2827 0.960 . S
C2840 C2839 1.524 . S
C2841 C2838 1.403 . S
C2841 C2842 1.392 . S
C2841 C2845 1.495 . S
C2842 C2841 1.392 . S
C2842 C2843 1.385 . S
C2842 C2844 1.478 . S
C2843 H2837 0.930 . S
C2843 C2839 1.400 . S
C2843 C2842 1.385 . S
C2844 C2842 1.478 . S
C2844 C2846 1.381 . S
C2844 C2850 1.383 . S
C2845 C2841 1.495 . S
C2845 H2851 0.959 1_554 S
C2845 H2852 0.961 . S
C2845 H2853 0.960 . S
C2846 C2844 1.381 . S
C2846 C2847 1.394 . S
C2846 H2854 0.930 . S
C2847 C2846 1.394 . S
C2847 C2848 1.383 . S
C2847 H2855 0.929 . S
C2848 C2847 1.383 . S
C2848 C2849 1.377 . S
C2849 H2833 0.930 . S
C2849 C2848 1.377 . S
C2849 C2850 1.379 . S
C2850 H2834 0.931 . S
C2850 C2844 1.383 . S
C2850 C2849 1.379 . S
H2851 C2845 0.959 1_556 S
H2852 C2845 0.961 . S
H2853 C2845 0.960 . S
H2854 C2846 0.930 . S
H2855 C2847 0.929 . S
H2856 C2864 0.929 . S
H2857 C2866 0.930 . S
H2858 C2868 0.930 . S
H2859 C2871 0.929 . S
H2860 C2874 0.930 . S
H2861 C2876 0.960 . S
H2862 C2876 0.960 . S
H2863 C2876 0.960 . S
C2864 H2856 0.929 . S
C2864 C2865 1.377 . S
C2864 C2866 1.384 . S
C2865 C2864 1.377 . S
C2865 C2871 1.390 . S
C2866 H2857 0.930 . S
C2866 C2864 1.384 . S
C2866 C2867 1.372 . S
C2867 C2866 1.372 . S
C2867 C2868 1.400 . S
C2867 C2872 1.490 . S
C2868 H2858 0.930 . S
C2868 C2867 1.400 . S
C2868 C2871 1.386 . S
H2869 C2885 0.930 . S
H2870 C2886 0.931 . S
C2871 H2859 0.929 . S
C2871 C2865 1.390 . S
C2871 C2868 1.386 . S
C2872 C2867 1.490 . S
C2872 C2874 1.395 . S
C2872 C2875 1.403 . S
H2873 C2879 0.930 . S
C2874 H2860 0.930 . S
C2874 C2872 1.395 . S
C2874 C2877 1.403 . S
C2875 C2872 1.403 . S
C2875 C2876 1.524 . S
C2875 C2879 1.400 . S
C2876 H2861 0.960 . S
C2876 H2862 0.960 . S
C2876 H2863 0.960 . S
C2876 C2875 1.524 . S
C2877 C2874 1.403 . S
C2877 C2878 1.392 . S
C2877 C2881 1.495 . S
C2878 C2877 1.392 . S
C2878 C2879 1.385 . S
C2878 C2880 1.478 . S
C2879 H2873 0.930 . S
C2879 C2875 1.400 . S
C2879 C2878 1.385 . S
C2880 C2878 1.478 . S
C2880 C2882 1.381 . S
C2880 C2886 1.383 . S
C2881 C2877 1.495 . S
C2881 H2887 0.959 . S
C2881 H2888 0.961 . S
C2881 H2889 0.960 . S
C2882 C2880 1.381 . S
C2882 C2883 1.394 . S
C2882 H2890 0.930 . S
C2883 C2882 1.394 . S
C2883 C2884 1.383 . S
C2883 H2891 0.929 . S
C2884 C2883 1.383 . S
C2884 C2885 1.377 . S
C2885 H2869 0.930 . S
C2885 C2884 1.377 . S
C2885 C2886 1.379 . S
C2886 H2870 0.931 . S
C2886 C2880 1.383 . S
C2886 C2885 1.379 . S
H2887 C2881 0.959 . S
H2888 C2881 0.961 . S
H2889 C2881 0.960 . S
H2890 C2882 0.930 . S
H2891 C2883 0.929 . S
H2892 C2900 0.929 . S
H2893 C2902 0.930 . S
H2894 C2904 0.930 . S
H2895 C2907 0.929 1_554 S
H2896 C2910 0.930 . S
H2897 C2912 0.960 . S
H2898 C2912 0.960 . S
H2899 C2912 0.960 . S
C2900 H2892 0.929 . S
C2900 C2901 1.377 . S
C2900 C2902 1.384 . S
C2901 C2900 1.377 . S
C2901 C2907 1.390 . S
C2902 H2893 0.930 . S
C2902 C2900 1.384 . S
C2902 C2903 1.372 . S
C2903 C2902 1.372 . S
C2903 C2904 1.400 . S
C2903 C2908 1.490 . S
C2904 H2894 0.930 . S
C2904 C2903 1.400 . S
C2904 C2907 1.386 . S
H2905 C2921 0.930 . S
H2906 C2922 0.931 . S
C2907 H2895 0.929 1_556 S
C2907 C2901 1.390 . S
C2907 C2904 1.386 . S
C2908 C2903 1.490 . S
C2908 C2910 1.395 . S
C2908 C2911 1.403 . S
H2909 C2915 0.930 . S
C2910 H2896 0.930 . S
C2910 C2908 1.395 . S
C2910 C2913 1.403 . S
C2911 C2908 1.403 . S
C2911 C2912 1.524 . S
C2911 C2915 1.400 . S
C2912 H2897 0.960 . S
C2912 H2898 0.960 . S
C2912 H2899 0.960 . S
C2912 C2911 1.524 . S
C2913 C2910 1.403 . S
C2913 C2914 1.392 . S
C2913 C2917 1.495 . S
C2914 C2913 1.392 . S
C2914 C2915 1.385 . S
C2914 C2916 1.478 . S
C2915 H2909 0.930 . S
C2915 C2911 1.400 . S
C2915 C2914 1.385 . S
C2916 C2914 1.478 . S
C2916 C2918 1.381 . S
C2916 C2922 1.383 . S
C2917 C2913 1.495 . S
C2917 H2923 0.959 . S
C2917 H2924 0.961 . S
C2917 H2925 0.960 . S
C2918 C2916 1.381 . S
C2918 C2919 1.394 . S
C2918 H2926 0.930 . S
C2919 C2918 1.394 . S
C2919 C2920 1.383 . S
C2919 H2927 0.929 . S
C2920 C2919 1.383 . S
C2920 C2921 1.377 . S
C2921 H2905 0.930 . S
C2921 C2920 1.377 . S
C2921 C2922 1.379 . S
C2922 H2906 0.931 . S
C2922 C2916 1.383 . S
C2922 C2921 1.379 . S
H2923 C2917 0.959 . S
H2924 C2917 0.961 . S
H2925 C2917 0.960 . S
H2926 C2918 0.930 . S
H2927 C2919 0.929 . S
H2928 C2936 0.929 . S
H2929 C2938 0.930 . S
H2930 C2940 0.930 . S
H2931 C2943 0.929 . S
H2932 C2946 0.930 . S
H2933 C2948 0.960 . S
H2934 C2948 0.960 . S
H2935 C2948 0.960 . S
C2936 H2928 0.929 . S
C2936 C2937 1.377 . S
C2936 C2938 1.384 . S
C2937 C2936 1.377 . S
C2937 C2943 1.390 . S
C2938 H2929 0.930 . S
C2938 C2936 1.384 . S
C2938 C2939 1.372 . S
C2939 C2938 1.372 . S
C2939 C2940 1.400 . S
C2939 C2944 1.490 . S
C2940 H2930 0.930 . S
C2940 C2939 1.400 . S
C2940 C2943 1.386 . S
H2941 C2957 0.930 . S
H2942 C2958 0.931 . S
C2943 H2931 0.929 . S
C2943 C2937 1.390 . S
C2943 C2940 1.386 . S
C2944 C2939 1.490 . S
C2944 C2946 1.395 . S
C2944 C2947 1.403 . S
H2945 C2951 0.930 . S
C2946 H2932 0.930 . S
C2946 C2944 1.395 . S
C2946 C2949 1.403 . S
C2947 C2944 1.403 . S
C2947 C2948 1.524 . S
C2947 C2951 1.400 . S
C2948 H2933 0.960 . S
C2948 H2934 0.960 . S
C2948 H2935 0.960 . S
C2948 C2947 1.524 . S
C2949 C2946 1.403 . S
C2949 C2950 1.392 . S
C2949 C2953 1.495 . S
C2950 C2949 1.392 . S
C2950 C2951 1.385 . S
C2950 C2952 1.478 . S
C2951 H2945 0.930 . S
C2951 C2947 1.400 . S
C2951 C2950 1.385 . S
C2952 C2950 1.478 . S
C2952 C2954 1.381 . S
C2952 C2958 1.383 . S
C2953 C2949 1.495 . S
C2953 H2959 0.959 . S
C2953 H2960 0.961 . S
C2953 H2961 0.960 . S
C2954 C2952 1.381 . S
C2954 C2955 1.394 . S
C2954 H2962 0.930 . S
C2955 C2954 1.394 . S
C2955 C2956 1.383 . S
C2955 H2963 0.929 . S
C2956 C2955 1.383 . S
C2956 C2957 1.377 . S
C2957 H2941 0.930 . S
C2957 C2956 1.377 . S
C2957 C2958 1.379 . S
C2958 H2942 0.931 . S
C2958 C2952 1.383 . S
C2958 C2957 1.379 . S
H2959 C2953 0.959 . S
H2960 C2953 0.961 . S
H2961 C2953 0.960 . S
H2962 C2954 0.930 . S
H2963 C2955 0.929 . S
H2964 C2972 0.929 . S
H2965 C2974 0.930 . S
H2966 C2976 0.930 . S
H2967 C2979 0.929 . S
H2968 C2982 0.930 . S
H2969 C2984 0.960 . S
H2970 C2984 0.968 . S
H2971 C2984 0.960 . S
C2972 H2964 0.929 . S
C2972 C2973 1.377 . S
C2972 C2974 1.384 . S
C2973 C2972 1.377 . S
C2973 C2979 1.390 . S
C2974 H2965 0.930 . S
C2974 C2972 1.384 . S
C2974 C2975 1.372 . S
C2975 C2974 1.372 . S
C2975 C2976 1.400 . S
C2975 C2980 1.490 . S
C2976 H2966 0.930 . S
C2976 C2975 1.400 . S
C2976 C2979 1.386 . S
H2977 C2993 0.930 . S
H2978 C2994 0.931 . S
C2979 H2967 0.929 . S
C2979 C2973 1.390 . S
C2979 C2976 1.386 . S
C2980 C2975 1.490 . S
C2980 C2982 1.395 . S
C2980 C2983 1.403 . S
H2981 C2987 0.930 . S
C2982 H2968 0.930 . S
C2982 C2980 1.395 . S
C2982 C2985 1.403 . S
C2983 C2980 1.403 . S
C2983 C2984 1.524 . S
C2983 C2987 1.400 . S
C2984 H2969 0.960 . S
C2984 H2970 0.968 . S
C2984 H2971 0.960 . S
C2984 C2983 1.524 . S
C2985 C2982 1.403 . S
C2985 C2986 1.392 . S
C2985 C2989 1.495 . S
C2986 C2985 1.392 . S
C2986 C2987 1.385 . S
C2986 C2988 1.478 . S
C2987 H2981 0.930 . S
C2987 C2983 1.400 . S
C2987 C2986 1.385 . S
C2988 C2986 1.478 . S
C2988 C2990 1.381 . S
C2988 C2994 1.383 . S
C2989 C2985 1.495 . S
C2989 H2995 0.959 . S
C2989 H2996 0.961 . S
C2989 H2997 0.960 . S
C2990 C2988 1.381 . S
C2990 C2991 1.394 . S
C2990 H2998 0.930 . S
C2991 C2990 1.394 . S
C2991 C2992 1.383 . S
C2991 H2999 0.929 . S
C2992 C2991 1.383 . S
C2992 C2993 1.377 . S
C2993 H2977 0.930 . S
C2993 C2992 1.377 . S
C2993 C2994 1.379 . S
C2994 H2978 0.931 . S
C2994 C2988 1.383 . S
C2994 C2993 1.379 . S
H2995 C2989 0.959 . S
H2996 C2989 0.961 . S
H2997 C2989 0.960 . S
H2998 C2990 0.930 . S
H2999 C2991 0.929 . S
H3000 C3008 0.929 . S
H3001 C3010 0.930 . S
H3002 C3012 0.930 . S
H3003 C3015 0.929 . S
H3004 C3018 0.930 . S
H3005 C3020 0.960 . S
H3006 C3020 0.960 . S
H3007 C3020 0.960 . S
C3008 H3000 0.929 . S
C3008 C3009 1.377 . S
C3008 C3010 1.384 . S
C3009 C3008 1.377 . S
C3009 C3015 1.390 . S
C3010 H3001 0.930 . S
C3010 C3008 1.384 . S
C3010 C3011 1.372 . S
C3011 C3010 1.372 . S
C3011 C3012 1.400 . S
C3011 C3016 1.490 . S
C3012 H3002 0.930 . S
C3012 C3011 1.400 . S
C3012 C3015 1.386 . S
H3013 C3029 0.930 . S
H3014 C3030 0.931 . S
C3015 H3003 0.929 . S
C3015 C3009 1.390 . S
C3015 C3012 1.386 . S
C3016 C3011 1.490 . S
C3016 C3018 1.395 . S
C3016 C3019 1.403 . S
H3017 C3023 0.930 . S
C3018 H3004 0.930 . S
C3018 C3016 1.395 . S
C3018 C3021 1.403 . S
C3019 C3016 1.403 . S
C3019 C3020 1.524 . S
C3019 C3023 1.400 . S
C3020 H3005 0.960 . S
C3020 H3006 0.960 . S
C3020 H3007 0.960 . S
C3020 C3019 1.524 . S
C3021 C3018 1.403 . S
C3021 C3022 1.392 . S
C3021 C3025 1.495 . S
C3022 C3021 1.392 . S
C3022 C3023 1.385 . S
C3022 C3024 1.478 . S
C3023 H3017 0.930 . S
C3023 C3019 1.400 . S
C3023 C3022 1.385 . S
C3024 C3022 1.478 . S
C3024 C3026 1.381 . S
C3024 C3030 1.383 . S
C3025 C3021 1.495 . S
C3025 H3031 0.959 . S
C3025 H3032 0.961 . S
C3025 H3033 0.960 . S
C3026 C3024 1.381 . S
C3026 C3027 1.394 . S
C3026 H3034 0.930 . S
C3027 C3026 1.394 . S
C3027 C3028 1.383 . S
C3027 H3035 0.929 . S
C3028 C3027 1.383 . S
C3028 C3029 1.377 . S
C3029 H3013 0.930 . S
C3029 C3028 1.377 . S
C3029 C3030 1.379 . S
C3030 H3014 0.931 . S
C3030 C3024 1.383 . S
C3030 C3029 1.379 . S
H3031 C3025 0.959 . S
H3032 C3025 0.961 . S
H3033 C3025 0.960 . S
H3034 C3026 0.930 . S
H3035 C3027 0.929 . S
H3036 C3044 0.929 . S
H3037 C3046 0.930 . S
H3038 C3048 0.930 . S
H3039 C3051 0.929 1_455 S
H3040 C3054 0.930 . S
H3041 C3056 0.960 . S
H3042 C3056 0.960 . S
H3043 C3056 0.960 . S
C3044 H3036 0.929 . S
C3044 C3045 1.377 . S
C3044 C3046 1.384 . S
C3045 C3044 1.377 . S
C3045 C3051 1.390 . S
C3046 H3037 0.930 . S
C3046 C3044 1.384 . S
C3046 C3047 1.372 . S
C3047 C3046 1.372 . S
C3047 C3048 1.400 . S
C3047 C3052 1.490 . S
C3048 H3038 0.930 . S
C3048 C3047 1.400 . S
C3048 C3051 1.386 . S
H3049 C3065 0.930 . S
H3050 C3066 0.931 . S
C3051 H3039 0.929 1_655 S
C3051 C3045 1.390 . S
C3051 C3048 1.386 . S
C3052 C3047 1.490 . S
C3052 C3054 1.395 . S
C3052 C3055 1.403 . S
H3053 C3059 0.930 . S
C3054 H3040 0.930 . S
C3054 C3052 1.395 . S
C3054 C3057 1.403 . S
C3055 C3052 1.403 . S
C3055 C3056 1.524 1_655 S
C3055 C3059 1.400 . S
C3056 H3041 0.960 . S
C3056 H3042 0.960 . S
C3056 H3043 0.960 . S
C3056 C3055 1.524 1_455 S
C3057 C3054 1.403 . S
C3057 C3058 1.392 . S
C3057 C3061 1.495 . S
C3058 C3057 1.392 . S
C3058 C3059 1.385 . S
C3058 C3060 1.478 . S
C3059 H3053 0.930 . S
C3059 C3055 1.400 . S
C3059 C3058 1.385 . S
C3060 C3058 1.478 . S
C3060 C3062 1.381 . S
C3060 C3066 1.383 . S
C3061 C3057 1.495 . S
C3061 H3067 0.959 . S
C3061 H3068 0.961 . S
C3061 H3069 0.960 . S
C3062 C3060 1.381 . S
C3062 C3063 1.394 . S
C3062 H3070 0.930 . S
C3063 C3062 1.394 . S
C3063 C3064 1.383 . S
C3063 H3071 0.929 . S
C3064 C3063 1.383 . S
C3064 C3065 1.377 . S
C3065 H3049 0.930 . S
C3065 C3064 1.377 . S
C3065 C3066 1.379 . S
C3066 H3050 0.931 . S
C3066 C3060 1.383 . S
C3066 C3065 1.379 . S
H3067 C3061 0.959 . S
H3068 C3061 0.961 . S
H3069 C3061 0.960 . S
H3070 C3062 0.930 . S
H3071 C3063 0.929 . S
C508 C475 1.827 . S
C489 C8 1.820 . S
C544 C448 1.390 . S
C525 C19 1.369 . S
C580 C466 1.297 . S
C561 C30 1.277 . S
C616 C457 2.043 . S
C597 C41 2.027 . S
C652 C394 1.831 . S
C633 C52 1.819 . S
C669 C63 2.017 . S
C688 C403 2.054 . S
C724 C376 1.397 . S
C705 C74 1.369 . S
C741 C85 1.285 . S
C760 C385 1.281 . S
C796 C439 1.834 . S
C777 C96 1.817 . S
C813 C107 2.016 . S
C832 C421 2.057 . S
C849 C118 1.368 . S
C868 C412 1.401 . S
C904 C430 1.274 . S
C885 C129 1.281 . S
C940 C367 1.822 . S
C921 C140 1.784 . S
C957 C151 1.310 . S
C976 C340 1.418 . S
C1012 C358 1.268 . S
C993 C162 1.238 . S
C1029 C173 1.947 . S
C1048 C349 2.047 . S
C1084 C286 1.824 . S
C1065 C184 1.784 . S
C1120 C295 2.054 . S
C1101 C195 1.954 . S
C1137 C206 1.298 . S
C1156 C268 1.398 . S
C1173 C217 1.240 . S
C1192 C277 1.295 . S
C1209 C228 1.772 . S
C1228 C331 1.840 . S
C1245 C239 1.951 . S
C1264 C313 2.058 . S
C1300 C304 1.416 . S
C1281 C250 1.313 . S
C1317 C261 1.244 . S
C1336 C322 1.296 . S
C1372 C269 1.113 . S
C1353 C7 1.094 . S
C1408 C278 0.930 . S
C1389 C18 0.964 . S
C1425 C29 1.041 . S
C1444 C287 1.060 . S
C1461 C40 0.805 . S
C1480 C296 0.796 1_565 S
C1516 C305 1.088 . S
C1497 C51 1.098 . S
C1533 C62 0.804 . S
C1552 C314 0.820 . S
C1588 C323 0.940 . S
C1569 C73 0.962 . S
C1624 C332 1.065 . S
C1605 C84 1.042 . S
C1660 C341 1.091 . S
C1641 C95 1.100 . S
C1677 C106 0.808 . S
C1696 C350 0.807 . S
C1713 C117 0.964 . S
C1732 C359 0.928 . S
C1749 C128 1.050 . S
C1768 C368 1.032 . S
C1785 C139 1.046 . S
C1804 C377 1.089 . S
C1821 C150 0.906 . S
C1840 C386 0.957 . S
C1857 C161 0.984 . S
C1876 C395 1.035 . S
C1893 C172 0.777 . S
C1912 C404 0.798 . S
C1929 C183 1.058 . S
C1948 C413 1.113 . S
C1984 C422 0.815 1_554 S
C1965 C194 0.805 . S
C2020 C431 0.979 . S
C2001 C205 0.916 . S
C2056 C440 1.033 . S
C2037 C216 0.980 . S
C2092 C449 1.084 . S
C2073 C227 1.043 . S
C2109 C238 0.777 . S
C2128 C458 0.801 . S
C2145 C249 0.892 . S
C2164 C467 0.927 . S
C2181 C260 0.986 . S
C2200 C476 1.038 . S
C2217 C5 1.418 . S
C2236 C343 1.621 . S
C2272 C370 1.471 . S
C2253 C16 1.326 . S
C2289 C27 1.128 1_545 S
C2308 C352 1.219 . S
C2344 C361 2.014 . S
C2325 C38 1.831 1_565 S
C2361 C49 1.437 . S
C2380 C271 1.626 . S
C2397 C60 1.824 1_556 S
C2416 C280 2.011 . S
C2433 C71 1.317 . S
C2452 C289 1.476 . S
C2469 C82 1.116 1_554 S
C2488 C298 1.183 . S
C2524 C307 1.611 . S
C2505 C93 1.424 . S
C2560 C325 2.014 . S
C2541 C104 1.819 1_655 S
C2577 C115 1.325 . S
C2596 C334 1.490 . S
C2613 C126 1.130 1_455 S
C2632 C316 1.207 . S
C2668 C451 1.631 . S
C2649 C137 1.235 . S
C2704 C478 1.483 . S
C2685 C148 1.028 . S
C2721 C159 0.940 . S
C2740 C460 1.200 . S
C2776 C469 2.015 . S
C2757 C170 1.499 . S
C2793 C181 1.248 . S
C2812 C379 1.617 . S
C2829 C192 1.481 . S
C2848 C388 2.024 . S
C2865 C203 1.042 . S
C2884 C397 1.470 . S
C2920 C406 1.235 . S
C2901 C214 0.921 . S
C2956 C415 1.629 . S
C2937 C225 1.237 . S
C2992 C433 2.015 . S
C2973 C236 1.499 . S
C3009 C247 1.050 . S
C3028 C442 1.468 . S
C3064 C424 1.198 . S
C3045 C258 0.952 . S
