# Generated by pormake.
# Topology pyr, (3,6)-cn, num edge types: 1
# Building blocks:
#     Node 0, Type 0, BuildingBlock: BETDIP_clean_linker_0, # of connection points: 3
#     Node 1, Type 0, BuildingBlock: BETDIP_clean_linker_0, # of connection points: 3
#     Node 2, Type 0, BuildingBlock: BETDIP_clean_linker_0, # of connection points: 3
#     Node 3, Type 0, BuildingBlock: BETDIP_clean_linker_0, # of connection points: 3
#     Node 4, Type 0, BuildingBlock: BETDIP_clean_linker_0, # of connection points: 3
#     Node 5, Type 0, BuildingBlock: BETDIP_clean_linker_0, # of connection points: 3
#     Node 6, Type 0, BuildingBlock: BETDIP_clean_linker_0, # of connection points: 3
#     Node 7, Type 0, BuildingBlock: BETDIP_clean_linker_0, # of connection points: 3
#     Node 8, Type 1, BuildingBlock: MIDCAF_clean_sbu_0, # of connection points: 6
#     Node 9, Type 1, BuildingBlock: MIDCAF_clean_sbu_0, # of connection points: 6
#     Node 10, Type 1, BuildingBlock: MIDCAF_clean_sbu_0, # of connection points: 6
#     Node 11, Type 1, BuildingBlock: MIDCAF_clean_sbu_0, # of connection points: 6
#     Edge 12, Type (0, 1), BuildingBlock: ZUJKAS_clean_linker_0, # of connection points: 2
#     Edge 13, Type (0, 1), BuildingBlock: ZUJKAS_clean_linker_0, # of connection points: 2
#     Edge 14, Type (0, 1), BuildingBlock: ZUJKAS_clean_linker_0, # of connection points: 2
#     Edge 15, Type (0, 1), BuildingBlock: ZUJKAS_clean_linker_0, # of connection points: 2
#     Edge 16, Type (0, 1), BuildingBlock: ZUJKAS_clean_linker_0, # of connection points: 2
#     Edge 17, Type (0, 1), BuildingBlock: ZUJKAS_clean_linker_0, # of connection points: 2
#     Edge 18, Type (0, 1), BuildingBlock: ZUJKAS_clean_linker_0, # of connection points: 2
#     Edge 19, Type (0, 1), BuildingBlock: ZUJKAS_clean_linker_0, # of connection points: 2
#     Edge 20, Type (0, 1), BuildingBlock: ZUJKAS_clean_linker_0, # of connection points: 2
#     Edge 21, Type (0, 1), BuildingBlock: ZUJKAS_clean_linker_0, # of connection points: 2
#     Edge 22, Type (0, 1), BuildingBlock: ZUJKAS_clean_linker_0, # of connection points: 2
#     Edge 23, Type (0, 1), BuildingBlock: ZUJKAS_clean_linker_0, # of connection points: 2
#     Edge 24, Type (0, 1), BuildingBlock: ZUJKAS_clean_linker_0, # of connection points: 2
#     Edge 25, Type (0, 1), BuildingBlock: ZUJKAS_clean_linker_0, # of connection points: 2
#     Edge 26, Type (0, 1), BuildingBlock: ZUJKAS_clean_linker_0, # of connection points: 2
#     Edge 27, Type (0, 1), BuildingBlock: ZUJKAS_clean_linker_0, # of connection points: 2
#     Edge 28, Type (0, 1), BuildingBlock: ZUJKAS_clean_linker_0, # of connection points: 2
#     Edge 29, Type (0, 1), BuildingBlock: ZUJKAS_clean_linker_0, # of connection points: 2
#     Edge 30, Type (0, 1), BuildingBlock: ZUJKAS_clean_linker_0, # of connection points: 2
#     Edge 31, Type (0, 1), BuildingBlock: ZUJKAS_clean_linker_0, # of connection points: 2
#     Edge 32, Type (0, 1), BuildingBlock: ZUJKAS_clean_linker_0, # of connection points: 2
#     Edge 33, Type (0, 1), BuildingBlock: ZUJKAS_clean_linker_0, # of connection points: 2
#     Edge 34, Type (0, 1), BuildingBlock: ZUJKAS_clean_linker_0, # of connection points: 2
#     Edge 35, Type (0, 1), BuildingBlock: ZUJKAS_clean_linker_0, # of connection points: 2
# Relax obj value: 0.086
# Max RMSD: 0.179
# Mean RMSD: 0.138
data_MOF--net-pry--node1-MIDCAF_clean_sbu_0--node2-BETDIP_clean_linker_0--edge1-ZUJKAS_clean_linker_0
_symmetry_space_group_name_H-M    P1
_symmetry_Int_Tables_number       1
_symmetry_cell_setting            triclinic
loop_
_symmetry_equiv_pos_as_xyz
'x, y, z'
_cell_length_a     45.681513
_cell_length_b     45.135217
_cell_length_c     47.500431
_cell_angle_alpha  92.991448
_cell_angle_beta   85.975498
_cell_angle_gamma 96.7323
loop_
_atom_site_label
_atom_site_type_symbol
_atom_site_fract_x
_atom_site_fract_y
_atom_site_fract_z
_atom_type_partial_charge
H0 H 0.19683 0.23156 0.24713 0.0
H1 H 0.26622 0.22045 0.18292 0.0
H2 H 0.25749 0.167 0.25586 0.0
H3 H 0.24899 0.25473 0.16079 0.0
C4 C 0.23014 0.26314 0.17232 0.0
C5 C 0.21566 0.22038 0.23913 0.0
C6 C 0.22512 0.19798 0.25465 0.0
C7 C 0.23026 0.22889 0.21338 0.0
C8 C 0.25498 0.2147 0.20297 0.0
C9 C 0.26511 0.19234 0.21822 0.0
C10 C 0.24999 0.18424 0.24404 0.0
N11 N 0.21907 0.25163 0.19884 0.0
H12 H 0.31291 0.85274 0.76077 0.0
H13 H 0.3018 0.78681 0.69242 0.0
H14 H 0.36609 0.77992 0.75307 0.0
H15 H 0.25835 0.80305 0.6899 0.0
C16 C 0.25973 0.82614 0.69776 0.0
C17 C 0.31885 0.83241 0.7498 0.0
C18 C 0.34094 0.81736 0.75988 0.0
C19 C 0.30392 0.82126 0.726 0.0
C20 C 0.3123 0.79523 0.71137 0.0
C21 C 0.33472 0.78001 0.72095 0.0
C22 C 0.34851 0.79103 0.74561 0.0
N23 N 0.28124 0.83728 0.71715 0.0
H24 H 0.76937 0.34697 0.78813 0.0
H25 H 0.70024 0.27492 0.80108 0.0
H26 H 0.77549 0.28381 0.85161 0.0
H27 H 0.68899 0.28395 0.75754 0.0
C28 C 0.6953 0.30761 0.75478 0.0
C29 C 0.76045 0.32712 0.79913 0.0
C30 C 0.77575 0.31727 0.82085 0.0
C31 C 0.7337 0.31158 0.79123 0.0
C32 C 0.72167 0.28611 0.80584 0.0
C33 C 0.7366 0.27586 0.82775 0.0
C34 C 0.76383 0.29142 0.83476 0.0
N35 N 0.71899 0.32315 0.76946 0.0
H36 H 0.79242 0.68162 0.2916 0.0
H37 H 0.85411 0.75941 0.30585 0.0
H38 H 0.77972 0.73983 0.36508 0.0
H39 H 0.86479 0.75383 0.25844 0.0
C40 C 0.86301 0.72974 0.25492 0.0
C41 C 0.79922 0.70157 0.3043 0.0
C42 C 0.78275 0.70852 0.32937 0.0
C43 C 0.82449 0.72012 0.29527 0.0
C44 C 0.83374 0.74583 0.31181 0.0
C45 C 0.81767 0.75314 0.33708 0.0
C46 C 0.79205 0.73449 0.34551 0.0
N47 N 0.84105 0.71111 0.27047 0.0
H48 H 0.8719 0.89179 0.94045 0.0
H49 H 0.94432 0.88277 0.87887 0.0
H50 H 0.88118 0.94345 0.86602 0.0
H51 H 0.96615 0.87002 0.918 0.0
C52 C 0.94826 0.85592 0.92859 0.0
C53 C 0.88374 0.89811 0.92069 0.0
C54 C 0.87349 0.91945 0.90441 0.0
C55 C 0.90965 0.88536 0.91214 0.0
C56 C 0.92504 0.8934 0.88642 0.0
C57 C 0.91471 0.91412 0.86953 0.0
C58 C 0.88913 0.92729 0.87886 0.0
N59 N 0.91889 0.86362 0.92922 0.0
H60 H 0.64929 0.09834 0.36275 0.0
H61 H 0.659 0.15908 0.43503 0.0
H62 H 0.59453 0.16983 0.37562 0.0
H63 H 0.67591 0.11875 0.45358 0.0
C64 C 0.68858 0.10933 0.43581 0.0
C65 C 0.64231 0.11735 0.37525 0.0
C66 C 0.62008 0.13295 0.36608 0.0
C67 C 0.656 0.1261 0.40031 0.0
C68 C 0.64772 0.15133 0.41627 0.0
C69 C 0.62579 0.16756 0.40732 0.0
C70 C 0.612 0.15802 0.38228 0.0
N71 N 0.67887 0.1098 0.40804 0.0
H72 H 0.40099 0.57821 0.16307 0.0
H73 H 0.45651 0.66052 0.14911 0.0
H74 H 0.38392 0.63375 0.09678 0.0
H75 H 0.44383 0.56523 0.17929 0.0
C76 C 0.45146 0.58541 0.19139 0.0
C77 C 0.40705 0.59799 0.15108 0.0
C78 C 0.38983 0.6034 0.12893 0.0
C79 C 0.43157 0.61833 0.158 0.0
C80 C 0.43821 0.64451 0.14306 0.0
C81 C 0.42118 0.65031 0.12084 0.0
C82 C 0.39724 0.62944 0.1138 0.0
N83 N 0.44903 0.61381 0.18073 0.0
H84 H 0.07263 0.39259 0.60386 0.0
H85 H 0.12541 0.47334 0.62959 0.0
H86 H 0.1629 0.41067 0.57087 0.0
H87 H 0.08115 0.48907 0.643 0.0
C88 C 0.06896 0.46888 0.65121 0.0
C89 C 0.09313 0.40728 0.60184 0.0
C90 C 0.11736 0.39823 0.58498 0.0
C91 C 0.09546 0.43452 0.61753 0.0
C92 C 0.12257 0.45302 0.61646 0.0
C93 C 0.14699 0.44425 0.59992 0.0
C94 C 0.14406 0.41717 0.58389 0.0
N95 N 0.07123 0.44098 0.63642 0.0
Zn96 Zn 0.99109 0.0596 0.56817 0.0
Zn97 Zn 0.0541 0.99015 0.50176 0.0
Zn98 Zn 0.02174 0.02534 0.53425 0.0
C99 C 0.07511 0.04857 0.48838 0.0
C100 C 0.99489 0.97661 0.48807 0.0
O101 O 0.02536 0.01367 0.57892 0.0
O102 O 0.00123 0.04627 0.60485 0.0
C103 C 0.03177 0.09759 0.53676 0.0
O104 O 0.05425 0.05389 0.50708 0.0
O105 O 0.08067 0.02208 0.48269 0.0
O106 O 0.02056 0.96992 0.48104 0.0
O107 O 0.9909 0.9969 0.50762 0.0
O108 O 0.01035 0.09828 0.55497 0.0
O109 O 0.03964 0.07238 0.52681 0.0
O110 O 0.97471 0.01838 0.5224 0.0
O111 O 0.95157 0.04603 0.55452 0.0
C112 C 0.95082 0.0286 0.53286 0.0
O113 O 0.04471 0.99751 0.56168 0.0
O114 O 0.06933 0.96858 0.53193 0.0
C115 C 0.01618 0.02438 0.60326 0.0
C116 C 0.06207 0.97691 0.55697 0.0
Zn117 Zn 0.49991 0.03707 0.00122 0.0
Zn118 Zn 0.56485 0.97691 0.05968 0.0
Zn119 Zn 0.53275 0.00642 0.03061 0.0
C120 C 0.60448 0.00824 0.02266 0.0
C121 C 0.52674 0.93424 0.03221 0.0
O122 O 0.50766 0.0353 0.06086 0.0
O123 O 0.48369 0.06112 0.03353 0.0
C124 C 0.55891 0.05128 0.98128 0.0
O125 O 0.57996 0.01524 0.01441 0.0
O126 O 0.60444 0.99259 0.04389 0.0
O127 O 0.54882 0.93622 0.04702 0.0
O128 O 0.51715 0.95809 0.0244 0.0
O129 O 0.53305 0.05597 0.97639 0.0
O130 O 0.56299 0.03367 0.00082 0.0
O131 O 0.50209 0.97404 0.0064 0.0
O132 O 0.47432 0.00228 0.98553 0.0
C133 C 0.481 0.97674 0.99034 0.0
O134 O 0.52722 0.02151 0.07622 0.0
O135 O 0.55227 0.99148 0.09795 0.0
C136 C 0.48995 0.05506 0.0579 0.0
C137 C 0.53633 0.01257 0.09912 0.0
Zn138 Zn 0.54414 0.54115 0.56142 0.0
Zn139 Zn 0.47313 0.46322 0.50294 0.0
Zn140 Zn 0.51049 0.50265 0.52937 0.0
C141 C 0.5136 0.43022 0.52302 0.0
C142 C 0.50235 0.50384 0.46319 0.0
O143 O 0.48264 0.53095 0.55794 0.0
O144 O 0.51358 0.56543 0.57867 0.0
C145 C 0.55218 0.48297 0.57561 0.0
O146 O 0.5233 0.45644 0.53305 0.0
O147 O 0.49095 0.42665 0.50896 0.0
O148 O 0.48223 0.4822 0.46576 0.0
O149 O 0.51661 0.51428 0.48468 0.0
O150 O 0.55702 0.50988 0.5844 0.0
O151 O 0.53692 0.47602 0.55388 0.0
O152 O 0.53947 0.5303 0.49963 0.0
O153 O 0.56957 0.55693 0.52835 0.0
C154 C 0.56221 0.54943 0.50358 0.0
O155 O 0.46426 0.50841 0.54478 0.0
O156 O 0.43637 0.47036 0.52542 0.0
C157 C 0.48752 0.55454 0.5743 0.0
C158 C 0.4388 0.49333 0.54175 0.0
Zn159 Zn 0.09371 0.55175 0.97452 0.0
Zn160 Zn 0.00938 0.4872 0.03968 0.0
Zn161 Zn 0.0516 0.51993 0.00676 0.0
C162 C 0.06559 0.47055 0.04999 0.0
C163 C 0.99874 0.47345 0.98245 0.0
O164 O 0.04356 0.56724 0.01253 0.0
O165 O 0.07737 0.59073 0.98335 0.0
C166 C 0.1225 0.52424 0.01403 0.0
O167 O 0.07444 0.49117 0.03248 0.0
O168 O 0.03835 0.46449 0.05675 0.0
O169 O 0.98732 0.46889 0.00706 0.0
O170 O 0.02291 0.49094 0.97858 0.0
O171 O 0.12784 0.5423 0.99441 0.0
O172 O 0.09574 0.51303 0.02058 0.0
O173 O 0.0451 0.50724 0.96187 0.0
O174 O 0.08434 0.5297 0.93827 0.0
C175 C 0.06045 0.51248 0.93849 0.0
O176 O 0.02685 0.551 0.0338 0.0
O177 O 0.99478 0.52248 0.06077 0.0
C178 C 0.05514 0.59132 0.00072 0.0
C179 C 0.00625 0.54811 0.05378 0.0
H180 H 0.16515 0.1904 0.26669 0.0
H181 H 0.13822 0.17348 0.31027 0.0
H182 H 0.22063 0.16554 0.34671 0.0
H183 H 0.24778 0.18373 0.30369 0.0
H184 H 0.13771 0.12036 0.33291 0.0
H185 H 0.17794 0.20862 0.4108 0.0
H186 H 0.18353 0.21294 0.37316 0.0
H187 H 0.20758 0.19249 0.39115 0.0
C188 C 0.17762 0.18572 0.28418 0.0
C189 C 0.20871 0.18855 0.28161 0.0
C190 C 0.16214 0.17586 0.30906 0.0
C191 C 0.17735 0.16868 0.33201 0.0
C192 C 0.20836 0.1716 0.3296 0.0
H193 H 0.13191 0.05193 0.46675 0.0
H194 H 0.15568 0.08544 0.43091 0.0
C195 C 0.22387 0.18158 0.30476 0.0
C196 C 0.16077 0.15596 0.35756 0.0
H197 H 0.15414 0.16282 0.42978 0.0
C198 C 0.141 0.12996 0.35402 0.0
C199 C 0.1649 0.1685 0.38518 0.0
C200 C 0.18441 0.19735 0.39033 0.0
C201 C 0.12623 0.11557 0.37733 0.0
C202 C 0.13136 0.12738 0.40489 0.0
C203 C 0.15037 0.15381 0.40855 0.0
C204 C 0.11865 0.11099 0.42991 0.0
C205 C 0.10582 0.08723 0.37252 0.0
C206 C 0.09025 0.11491 0.44174 0.0
C207 C 0.07658 0.09578 0.46233 0.0
C208 C 0.09118 0.07252 0.47128 0.0
C209 C 0.12018 0.06973 0.46034 0.0
C210 C 0.13382 0.08885 0.43992 0.0
H211 H 0.10309 0.08166 0.34972 0.0
H212 H 0.11471 0.06837 0.38187 0.0
H213 H 0.08377 0.08951 0.38328 0.0
H214 H 0.07815 0.13177 0.43407 0.0
H215 H 0.05402 0.09806 0.46994 0.0
H216 H 0.37565 0.87023 0.76504 0.0
H217 H 0.40125 0.89132 0.80639 0.0
H218 H 0.36533 0.81429 0.85304 0.0
H219 H 0.34132 0.79243 0.81096 0.0
H220 H 0.38135 0.90967 0.85392 0.0
H221 H 0.44725 0.81913 0.87531 0.0
H222 H 0.42802 0.81909 0.84344 0.0
H223 H 0.40865 0.80606 0.87565 0.0
C224 C 0.37362 0.85771 0.78407 0.0
C225 C 0.3567 0.82972 0.78489 0.0
C226 C 0.38819 0.86974 0.80773 0.0
C227 C 0.38575 0.85429 0.83294 0.0
C228 C 0.36852 0.82632 0.83375 0.0
H229 H 0.42208 0.96093 0.98766 0.0
H230 H 0.39792 0.92678 0.95238 0.0
C231 C 0.35452 0.81395 0.8098 0.0
C232 C 0.39969 0.8685 0.85864 0.0
H233 H 0.44316 0.85705 0.91203 0.0
C234 C 0.39502 0.89811 0.86644 0.0
C235 C 0.41793 0.85377 0.87499 0.0
C236 C 0.42603 0.82289 0.86674 0.0
C237 C 0.40794 0.91337 0.8898 0.0
C238 C 0.42484 0.89815 0.90708 0.0
C239 C 0.42973 0.86858 0.89925 0.0
C240 C 0.43866 0.91323 0.93244 0.0
C241 C 0.40416 0.94607 0.89489 0.0
C242 C 0.4693 0.91457 0.93502 0.0
C243 C 0.48299 0.93308 0.95609 0.0
C244 C 0.46626 0.95082 0.97457 0.0
C245 C 0.43543 0.94755 0.97351 0.0
C246 C 0.42169 0.92839 0.95307 0.0
H247 H 0.39902 0.95626 0.87528 0.0
H248 H 0.38543 0.94844 0.91071 0.0
H249 H 0.42437 0.95889 0.90288 0.0
H250 H 0.48291 0.90282 0.91966 0.0
H251 H 0.50684 0.93539 0.95641 0.0
H252 H 0.65211 0.28297 0.72153 0.0
H253 H 0.62658 0.30762 0.68717 0.0
H254 H 0.67813 0.39129 0.70763 0.0
H255 H 0.70395 0.36675 0.74155 0.0
H256 H 0.5925 0.35355 0.69552 0.0
H257 H 0.68888 0.38633 0.62194 0.0
H258 H 0.68984 0.35966 0.6488 0.0
H259 H 0.69482 0.39909 0.65772 0.0
C260 C 0.65808 0.30659 0.71852 0.0
C261 C 0.68014 0.32285 0.73406 0.0
C262 C 0.6435 0.32064 0.69892 0.0
C263 C 0.65081 0.35119 0.69443 0.0
C264 C 0.67263 0.36754 0.7102 0.0
H265 H 0.55239 0.4806 0.63238 0.0
H266 H 0.57436 0.44515 0.65931 0.0
C267 C 0.68725 0.3535 0.72974 0.0
C268 C 0.63489 0.36629 0.67408 0.0
H269 H 0.64569 0.41071 0.61734 0.0
C270 C 0.6041 0.36577 0.67824 0.0
C271 C 0.6499 0.38177 0.65117 0.0
C272 C 0.68264 0.38153 0.64441 0.0
C273 C 0.58813 0.38145 0.66093 0.0
C274 C 0.60341 0.39851 0.63918 0.0
C275 C 0.634 0.39788 0.63419 0.0
C276 C 0.58847 0.41867 0.62263 0.0
C277 C 0.55502 0.37968 0.66618 0.0
C278 C 0.58961 0.41602 0.59296 0.0
C279 C 0.57721 0.4365 0.57752 0.0
C280 C 0.56353 0.45989 0.59146 0.0
C281 C 0.56249 0.46251 0.6211 0.0
C282 C 0.57481 0.44212 0.63652 0.0
H283 H 0.54594 0.35892 0.67682 0.0
H284 H 0.54946 0.39893 0.68022 0.0
H285 H 0.54403 0.38047 0.64616 0.0
H286 H 0.60053 0.39844 0.58175 0.0
H287 H 0.57955 0.43497 0.55477 0.0
H288 H 0.86889 0.67061 0.24285 0.0
H289 H 0.9007 0.64945 0.20546 0.0
H290 H 0.93239 0.73787 0.17843 0.0
H291 H 0.90052 0.75939 0.21614 0.0
H292 H 0.91314 0.69331 0.13388 0.0
H293 H 0.99308 0.65445 0.20232 0.0
H294 H 0.9551 0.64432 0.21395 0.0
H295 H 0.96977 0.68306 0.21384 0.0
C296 C 0.88263 0.68562 0.22902 0.0
C297 C 0.88222 0.71669 0.23235 0.0
C298 C 0.90092 0.67349 0.20777 0.0
C299 C 0.91911 0.69214 0.18944 0.0
C300 C 0.91863 0.72316 0.19251 0.0
H301 H 0.03853 0.60105 0.06828 0.0
H302 H 0.02114 0.64272 0.09787 0.0
C303 C 0.90047 0.73537 0.21399 0.0
C304 C 0.93778 0.67876 0.1666 0.0
H305 H 0.99088 0.63141 0.15565 0.0
C306 C 0.93057 0.68028 0.13851 0.0
C307 C 0.96081 0.66218 0.17268 0.0
C308 C 0.97041 0.66108 0.20231 0.0
C309 C 0.94435 0.66375 0.11659 0.0
C310 C 0.96563 0.64527 0.12308 0.0
C311 C 0.9744 0.64552 0.15081 0.0
C312 C 0.97585 0.62241 0.10249 0.0
C313 C 0.93533 0.66515 0.0868 0.0
C314 C 0.9561 0.59745 0.09533 0.0
C315 C 0.96598 0.57366 0.07889 0.0
C316 C 0.99575 0.57455 0.06903 0.0
C317 C 0.01541 0.59999 0.07543 0.0
C318 C 0.00555 0.62371 0.09229 0.0
H319 H 0.92437 0.68543 0.08406 0.0
H320 H 0.95481 0.66495 0.07143 0.0
H321 H 0.91955 0.64526 0.08182 0.0
H322 H 0.9332 0.59589 0.10336 0.0
H323 H 0.9504 0.55432 0.07423 0.0
H324 H 0.27307 0.133 0.22004 0.0
H325 H 0.31565 0.10832 0.2015 0.0
H326 H 0.35808 0.19193 0.17076 0.0
H327 H 0.3164 0.21713 0.19065 0.0
H328 H 0.33615 0.10107 0.14881 0.0
H329 H 0.42537 0.16397 0.20757 0.0
H330 H 0.38682 0.16669 0.21722 0.0
H331 H 0.40582 0.18852 0.18938 0.0
C332 C 0.29173 0.14635 0.20993 0.0
C333 C 0.29123 0.17719 0.20703 0.0
C334 C 0.31603 0.13211 0.19914 0.0
C335 C 0.34044 0.1483 0.18518 0.0
C336 C 0.33996 0.17903 0.18211 0.0
H337 H 0.47493 0.1115 0.06215 0.0
H338 H 0.44122 0.13259 0.09796 0.0
C339 C 0.31579 0.19335 0.19309 0.0
C340 C 0.36539 0.13272 0.17207 0.0
H341 H 0.44082 0.13651 0.16514 0.0
C342 C 0.35899 0.10849 0.15284 0.0
C343 C 0.39529 0.1422 0.17737 0.0
C344 C 0.40372 0.16657 0.19925 0.0
C345 C 0.38158 0.09456 0.13778 0.0
C346 C 0.41139 0.10507 0.14203 0.0
C347 C 0.41791 0.12855 0.16193 0.0
C348 C 0.4357 0.09394 0.12364 0.0
C349 C 0.37355 0.06952 0.11641 0.0
C350 C 0.4446 0.0656 0.12681 0.0
C351 C 0.46414 0.05353 0.10641 0.0
C352 C 0.4748 0.06961 0.08252 0.0
C353 C 0.46706 0.09861 0.08034 0.0
C354 C 0.44786 0.11072 0.10079 0.0
H355 H 0.34931 0.06499 0.11453 0.0
H356 H 0.38431 0.07507 0.09536 0.0
H357 H 0.38181 0.04881 0.12267 0.0
H358 H 0.43538 0.05231 0.14433 0.0
H359 H 0.46938 0.03098 0.10841 0.0
H360 H 0.217 0.80994 0.66154 0.0
H361 H 0.18036 0.83996 0.64603 0.0
H362 H 0.21505 0.91438 0.69919 0.0
H363 H 0.25217 0.88453 0.71442 0.0
H364 H 0.13626 0.86722 0.67668 0.0
H365 H 0.21651 0.95178 0.62282 0.0
H366 H 0.22705 0.91711 0.6339 0.0
H367 H 0.22181 0.94717 0.65938 0.0
C368 C 0.21686 0.83274 0.66988 0.0
C369 C 0.23757 0.8449 0.68904 0.0
C370 C 0.19585 0.84985 0.66107 0.0
C371 C 0.19509 0.87958 0.67116 0.0
C372 C 0.21551 0.8917 0.69068 0.0
H373 H 0.08227 0.00407 0.60617 0.0
H374 H 0.11164 0.98259 0.63986 0.0
C375 C 0.23665 0.87456 0.69948 0.0
C376 C 0.17296 0.89756 0.66088 0.0
H377 H 0.16611 0.95704 0.62103 0.0
C378 C 0.14281 0.88705 0.66477 0.0
C379 C 0.18141 0.9236 0.64549 0.0
C380 C 0.21343 0.93556 0.63989 0.0
C381 C 0.12106 0.90122 0.65293 0.0
C382 C 0.12963 0.92638 0.6365 0.0
C383 C 0.15958 0.93781 0.63374 0.0
C384 C 0.10858 0.93867 0.61896 0.0
C385 C 0.08906 0.88882 0.65758 0.0
C386 C 0.0968 0.92103 0.59637 0.0
C387 C 0.08031 0.93324 0.57716 0.0
C388 C 0.07498 0.96331 0.58023 0.0
C389 C 0.08561 0.9807 0.60358 0.0
C390 C 0.10254 0.96852 0.62269 0.0
H391 H 0.08527 0.87542 0.67674 0.0
H392 H 0.07456 0.90704 0.65972 0.0
H393 H 0.08253 0.87404 0.63913 0.0
H394 H 0.10153 0.89812 0.59279 0.0
H395 H 0.07254 0.91937 0.55928 0.0
H396 H 0.82696 0.29634 0.83385 0.0
H397 H 0.86984 0.3249 0.85463 0.0
H398 H 0.8297 0.40612 0.84993 0.0
H399 H 0.78663 0.37781 0.82952 0.0
H400 H 0.90882 0.38457 0.83475 0.0
H401 H 0.84182 0.389 0.9372 0.0
H402 H 0.83325 0.36073 0.90976 0.0
H403 H 0.82503 0.39817 0.90608 0.0
C404 C 0.82739 0.32033 0.83701 0.0
C405 C 0.80329 0.33479 0.83024 0.0
C406 C 0.852 0.3366 0.84863 0.0
C407 C 0.85284 0.36754 0.85377 0.0
C408 C 0.82945 0.38223 0.84597 0.0
H409 H 0.94936 0.49219 0.96576 0.0
H410 H 0.91705 0.46838 0.93017 0.0
C411 C 0.80491 0.36603 0.83425 0.0
C412 C 0.87654 0.38402 0.87002 0.0
H413 H 0.8895 0.41473 0.93564 0.0
C414 C 0.90475 0.39126 0.85681 0.0
C415 C 0.87104 0.39251 0.89874 0.0
C416 C 0.84124 0.38464 0.914 0.0
C417 C 0.92756 0.40753 0.87157 0.0
C418 C 0.92198 0.41615 0.90039 0.0
C419 C 0.89377 0.40842 0.91351 0.0
C420 C 0.94457 0.43334 0.91778 0.0
C421 C 0.95705 0.41589 0.85599 0.0
C422 C 0.97135 0.42221 0.92208 0.0
C423 C 0.99013 0.43623 0.94213 0.0
C424 C 0.98204 0.46119 0.95837 0.0
C425 C 0.95592 0.47293 0.95338 0.0
C426 C 0.93751 0.45933 0.93308 0.0
H427 H 0.95512 0.41561 0.83279 0.0
H428 H 0.96698 0.43838 0.86313 0.0
H429 H 0.97235 0.39951 0.8602 0.0
H430 H 0.97704 0.40187 0.91104 0.0
H431 H 0.01014 0.42678 0.94593 0.0
H432 H 0.77722 0.64745 0.32945 0.0
H433 H 0.7359 0.6141 0.3497 0.0
H434 H 0.68878 0.68985 0.37371 0.0
H435 H 0.72954 0.72323 0.3527 0.0
H436 H 0.71754 0.6155 0.40506 0.0
H437 H 0.62395 0.63109 0.34162 0.0
H438 H 0.66192 0.6424 0.32993 0.0
H439 H 0.6423 0.66601 0.35442 0.0
C440 C 0.75773 0.65695 0.33837 0.0
C441 C 0.75668 0.68803 0.3395 0.0
C442 C 0.73419 0.63785 0.35003 0.0
C443 C 0.70906 0.64941 0.36285 0.0
C444 C 0.70764 0.68033 0.36336 0.0
H445 H 0.59549 0.60317 0.50355 0.0
H446 H 0.62975 0.62376 0.46589 0.0
C447 C 0.73115 0.69944 0.35171 0.0
C448 C 0.6859 0.62975 0.37854 0.0
H449 H 0.61115 0.61194 0.38813 0.0
C450 C 0.69434 0.61425 0.40095 0.0
C451 C 0.65565 0.62786 0.37306 0.0
C452 C 0.64543 0.64249 0.34825 0.0
C453 C 0.67324 0.59846 0.41905 0.0
C454 C 0.64294 0.59838 0.41478 0.0
C455 C 0.63446 0.61233 0.39144 0.0
C456 C 0.62008 0.58658 0.43614 0.0
C457 C 0.68337 0.58285 0.44333 0.0
C458 C 0.60289 0.55911 0.43155 0.0
C459 C 0.58334 0.54713 0.45323 0.0
C460 C 0.58054 0.56269 0.47953 0.0
C461 C 0.5972 0.59063 0.48357 0.0
C462 C 0.61672 0.60245 0.46207 0.0
H463 H 0.7071 0.57944 0.44021 0.0
H464 H 0.68026 0.59664 0.46312 0.0
H465 H 0.67008 0.56084 0.44607 0.0
H466 H 0.60534 0.54655 0.41164 0.0
H467 H 0.57122 0.52529 0.44972 0.0
H468 H 0.24544 0.28805 0.12182 0.0
H469 H 0.22217 0.32669 0.10001 0.0
H470 H 0.1592 0.3295 0.17184 0.0
H471 H 0.18249 0.29122 0.19383 0.0
H472 H 0.16444 0.32488 0.0849 0.0
H473 H 0.18964 0.41759 0.16372 0.0
H474 H 0.20785 0.38406 0.16187 0.0
H475 H 0.17152 0.38425 0.17912 0.0
C476 C 0.22673 0.29707 0.133 0.0
C477 C 0.2159 0.28669 0.15956 0.0
C478 C 0.21346 0.31911 0.12053 0.0
C479 C 0.18924 0.33137 0.13448 0.0
C480 C 0.17827 0.32088 0.16095 0.0
H481 H 0.06012 0.44551 0.10116 0.0
H482 H 0.09285 0.41343 0.12015 0.0
C483 C 0.1915 0.29882 0.17342 0.0
C484 C 0.17468 0.35425 0.12091 0.0
H485 H 0.15359 0.42441 0.13125 0.0
C486 C 0.16236 0.34678 0.09485 0.0
C487 C 0.1721 0.38288 0.13385 0.0
C488 C 0.18622 0.39285 0.16105 0.0
C489 C 0.14643 0.36664 0.082 0.0
C490 C 0.14312 0.39493 0.09537 0.0
C491 C 0.15611 0.40271 0.12105 0.0
C492 C 0.12452 0.41587 0.08406 0.0
C493 C 0.13224 0.35672 0.05482 0.0
C494 C 0.1317 0.42837 0.05762 0.0
C495 C 0.11291 0.44669 0.04665 0.0
C496 C 0.08682 0.45308 0.06209 0.0
C497 C 0.08008 0.44102 0.08878 0.0
C498 C 0.09881 0.42277 0.0997 0.0
H499 H 0.13203 0.33231 0.05021 0.0
H500 H 0.10918 0.3624 0.05568 0.0
H501 H 0.1448 0.36852 0.03706 0.0
H502 H 0.15163 0.42366 0.04533 0.0
H503 H 0.11845 0.45529 0.02585 0.0
H504 H 0.7365 0.26889 0.88481 0.0
H505 H 0.71424 0.22647 0.91171 0.0
H506 H 0.68235 0.18205 0.83535 0.0
H507 H 0.70596 0.22371 0.80799 0.0
H508 H 0.65761 0.20652 0.919 0.0
H509 H 0.71636 0.11486 0.86919 0.0
H510 H 0.72871 0.15367 0.8634 0.0
H511 H 0.69949 0.13417 0.84372 0.0
C512 C 0.7254 0.24981 0.87355 0.0
C513 C 0.72329 0.24971 0.84411 0.0
C514 C 0.71247 0.22562 0.88905 0.0
C515 C 0.69706 0.20076 0.87555 0.0
C516 C 0.69478 0.20058 0.84619 0.0
H517 H 0.56038 0.06789 0.92713 0.0
H518 H 0.59825 0.10179 0.90254 0.0
C519 C 0.70791 0.22468 0.83061 0.0
C520 C 0.68153 0.17612 0.89246 0.0
H521 H 0.67131 0.10014 0.89697 0.0
C522 C 0.66101 0.18333 0.91445 0.0
C523 C 0.68603 0.14579 0.88668 0.0
C524 C 0.70908 0.13667 0.86465 0.0
C525 C 0.64405 0.16104 0.92994 0.0
C526 C 0.64761 0.13077 0.92328 0.0
C527 C 0.66867 0.12344 0.90194 0.0
C528 C 0.62755 0.10665 0.93668 0.0
C529 C 0.62155 0.1698 0.95271 0.0
C530 C 0.63197 0.0976 0.96375 0.0
C531 C 0.61036 0.07808 0.97787 0.0
C532 C 0.58405 0.06755 0.9651 0.0
C533 C 0.58043 0.07567 0.93749 0.0
C534 C 0.60205 0.09493 0.92337 0.0
H535 H 0.62134 0.19439 0.95522 0.0
H536 H 0.59917 0.15945 0.94762 0.0
H537 H 0.62641 0.16128 0.97319 0.0
H538 H 0.65149 0.10665 0.97438 0.0
H539 H 0.61345 0.07271 0.99932 0.0
H540 H 0.84093 0.809 0.32113 0.0
H541 H 0.86348 0.85007 0.35106 0.0
H542 H 0.84134 0.79765 0.42446 0.0
H543 H 0.81958 0.75618 0.39469 0.0
H544 H 0.84152 0.88284 0.40177 0.0
H545 H 0.93276 0.81581 0.42011 0.0
H546 H 0.90772 0.80582 0.39253 0.0
H547 H 0.89593 0.79856 0.42862 0.0
C548 C 0.8408 0.80624 0.34366 0.0
C549 C 0.82869 0.7792 0.35547 0.0
C550 C 0.85341 0.82982 0.36074 0.0
C551 C 0.85424 0.82677 0.3899 0.0
C552 C 0.84106 0.80035 0.40196 0.0
H553 H 0.93856 0.96013 0.51036 0.0
H554 H 0.90002 0.926 0.48796 0.0
C555 C 0.82847 0.77675 0.38491 0.0
C556 C 0.8712 0.85014 0.40717 0.0
H557 H 0.9349 0.86402 0.44145 0.0
C558 C 0.86178 0.87873 0.41073 0.0
C559 C 0.89771 0.84466 0.41863 0.0
C560 C 0.90937 0.81466 0.41469 0.0
C561 C 0.87853 0.90213 0.42518 0.0
C562 C 0.90524 0.89666 0.43612 0.0
C563 C 0.91426 0.86797 0.43309 0.0
C564 C 0.92583 0.9208 0.44842 0.0
C565 C 0.86833 0.9328 0.42784 0.0
C566 C 0.95268 0.92947 0.43337 0.0
C567 C 0.97448 0.94884 0.44598 0.0
C568 C 0.96986 0.95996 0.47391 0.0
C569 C 0.94246 0.95227 0.48864 0.0
C570 C 0.92052 0.93277 0.47593 0.0
H571 H 0.84786 0.93382 0.41678 0.0
H572 H 0.86406 0.93923 0.4505 0.0
H573 H 0.88595 0.94947 0.41901 0.0
H574 H 0.95718 0.92035 0.41216 0.0
H575 H 0.99537 0.95441 0.43413 0.0
H576 H 0.34832 0.72768 0.74124 0.0
H577 H 0.36835 0.68587 0.71438 0.0
H578 H 0.36351 0.73012 0.63689 0.0
H579 H 0.34408 0.77221 0.66352 0.0
H580 H 0.34545 0.64745 0.6662 0.0
H581 H 0.45203 0.71647 0.64021 0.0
H582 H 0.42598 0.72726 0.66814 0.0
H583 H 0.41938 0.73204 0.63191 0.0
C584 C 0.3515 0.72852 0.71847 0.0
C585 C 0.34473 0.75345 0.70458 0.0
C586 C 0.36273 0.70449 0.70315 0.0
C587 C 0.36764 0.70499 0.67367 0.0
C588 C 0.36008 0.72936 0.65965 0.0
H589 H 0.466 0.59983 0.55079 0.0
H590 H 0.4325 0.63384 0.57351 0.0
C591 C 0.34877 0.75333 0.67492 0.0
C592 C 0.38221 0.6809 0.65772 0.0
H593 H 0.44596 0.66774 0.61971 0.0
C594 C 0.36742 0.6518 0.656 0.0
C595 C 0.41086 0.68664 0.64445 0.0
C596 C 0.42819 0.7172 0.64636 0.0
C597 C 0.38041 0.6284 0.64093 0.0
C598 C 0.40918 0.63417 0.6278 0.0
C599 C 0.42386 0.6633 0.6296 0.0
C600 C 0.42509 0.61051 0.61252 0.0
C601 C 0.36298 0.59792 0.63871 0.0
C602 C 0.43155 0.58558 0.62654 0.0
C603 C 0.45047 0.56596 0.61338 0.0
C604 C 0.46321 0.57105 0.58608 0.0
C605 C 0.45601 0.5953 0.57171 0.0
C606 C 0.43699 0.61474 0.58473 0.0
H607 H 0.33887 0.59922 0.64241 0.0
H608 H 0.3672 0.58681 0.61765 0.0
H609 H 0.36971 0.58375 0.65497 0.0
H610 H 0.42329 0.58218 0.64819 0.0
H611 H 0.45628 0.54771 0.62501 0.0
H612 H 0.8901 0.91505 0.81907 0.0
H613 H 0.91468 0.929 0.77354 0.0
H614 H 0.99838 0.9446 0.81177 0.0
H615 H 0.97385 0.92977 0.85732 0.0
H616 H 0.94182 0.98147 0.76115 0.0
H617 H 0.02182 0.89833 0.74067 0.0
H618 H 0.99216 0.89429 0.76788 0.0
H619 H 0.02545 0.91858 0.77401 0.0
C620 C 0.91378 0.92126 0.81771 0.0
C621 C 0.93006 0.92146 0.84174 0.0
C622 C 0.92784 0.9291 0.79166 0.0
C623 C 0.95848 0.93753 0.78905 0.0
C624 C 0.97488 0.93745 0.813 0.0
H625 H 0.02929 0.0513 0.65382 0.0
H626 H 0.02124 0.02872 0.69981 0.0
C627 C 0.96082 0.9292 0.83906 0.0
C628 C 0.97248 0.94878 0.76183 0.0
H629 H 0.0273 0.93943 0.71029 0.0
C630 C 0.96045 0.97215 0.75005 0.0
C631 C 0.99667 0.93651 0.74715 0.0
C632 C 0.00963 0.91035 0.7579 0.0
C633 C 0.97176 0.98359 0.72415 0.0
C634 C 0.9966 0.97209 0.70992 0.0
C635 C 0.0086 0.94854 0.72147 0.0
C636 C 0.00937 0.98394 0.68258 0.0
C637 C 0.95639 0.0074 0.71195 0.0
C638 C 0.00799 0.9658 0.65763 0.0
C639 C 0.01332 0.97862 0.63124 0.0
C640 C 0.01983 0.00971 0.62961 0.0
C641 C 0.02407 0.0273 0.65457 0.0
C642 C 0.0193 0.01445 0.68082 0.0
H643 H 0.93351 0.00786 0.72146 0.0
H644 H 0.96879 0.0296 0.71638 0.0
H645 H 0.9554 0.00385 0.68871 0.0
H646 H 0.00063 0.94214 0.65852 0.0
H647 H 0.00983 0.96462 0.61227 0.0
H648 H 0.60078 0.07597 0.34784 0.0
H649 H 0.57963 0.0595 0.303 0.0
H650 H 0.58504 0.15096 0.27926 0.0
H651 H 0.60626 0.1677 0.3242 0.0
H652 H 0.53141 0.11549 0.2651 0.0
H653 H 0.63079 0.06099 0.22842 0.0
H654 H 0.61459 0.04878 0.26196 0.0
H655 H 0.63027 0.08699 0.25858 0.0
C656 C 0.59756 0.09261 0.33307 0.0
C657 C 0.60558 0.12313 0.33947 0.0
C658 C 0.58538 0.08316 0.30748 0.0
C659 C 0.58118 0.10397 0.28759 0.0
C660 C 0.58813 0.13453 0.29428 0.0
H661 H 0.53567 0.07265 0.11119 0.0
H662 H 0.54181 0.09802 0.15787 0.0
C663 C 0.60023 0.14404 0.31998 0.0
C664 C 0.57096 0.09355 0.25934 0.0
H665 H 0.58885 0.04991 0.20129 0.0
C666 C 0.54402 0.10134 0.251 0.0
C667 C 0.58764 0.0754 0.24083 0.0
C668 C 0.61756 0.06776 0.24771 0.0
C669 C 0.53278 0.09033 0.2251 0.0
C670 C 0.549 0.07127 0.20721 0.0
C671 C 0.57628 0.06428 0.21523 0.0
C672 C 0.53808 0.05715 0.18043 0.0
C673 C 0.50332 0.09829 0.21734 0.0
C674 C 0.53285 0.02593 0.17782 0.0
C675 C 0.52946 0.01154 0.15136 0.0
C676 C 0.53119 0.02806 0.12692 0.0
C677 C 0.53388 0.05941 0.12973 0.0
C678 C 0.53745 0.0739 0.15637 0.0
H679 H 0.49168 0.11006 0.23511 0.0
H680 H 0.50672 0.11302 0.19913 0.0
H681 H 0.48902 0.07784 0.21077 0.0
H682 H 0.53326 0.0126 0.19608 0.0
H683 H 0.52738 0.98736 0.14981 0.0
H684 H 0.47203 0.63001 0.22938 0.0
H685 H 0.49175 0.6238 0.27518 0.0
H686 H 0.48004 0.52816 0.26046 0.0
H687 H 0.46063 0.53424 0.21468 0.0
H688 H 0.46227 0.5942 0.31987 0.0
H689 H 0.56363 0.5423 0.28675 0.0
H690 H 0.54431 0.56143 0.26262 0.0
H691 H 0.53185 0.5233 0.27072 0.0
C692 C 0.47403 0.60769 0.23577 0.0
C693 C 0.46489 0.58254 0.21846 0.0
C694 C 0.48531 0.60419 0.26192 0.0
C695 C 0.4879 0.57555 0.27103 0.0
C696 C 0.479 0.5505 0.25359 0.0
H697 H 0.49607 0.47561 0.41191 0.0
H698 H 0.49833 0.49805 0.36607 0.0
C699 C 0.46769 0.55397 0.22754 0.0
C700 C 0.49747 0.57143 0.29966 0.0
H701 H 0.54362 0.53397 0.33455 0.0
C702 C 0.48049 0.58163 0.32318 0.0
C703 C 0.52135 0.55518 0.30391 0.0
C704 C 0.54152 0.54519 0.27964 0.0
C705 C 0.48534 0.57413 0.35067 0.0
C706 C 0.50808 0.55631 0.35474 0.0
C707 C 0.52616 0.54759 0.33138 0.0
C708 C 0.51065 0.54312 0.38229 0.0
C709 C 0.46486 0.58363 0.37494 0.0
C710 C 0.51767 0.56095 0.40658 0.0
C711 C 0.5163 0.54812 0.43298 0.0
C712 C 0.50807 0.51729 0.43533 0.0
C713 C 0.5024 0.49945 0.41076 0.0
C714 C 0.5038 0.51221 0.38452 0.0
H715 H 0.44587 0.59378 0.36764 0.0
H716 H 0.45621 0.56423 0.38772 0.0
H717 H 0.47726 0.60037 0.38889 0.0
H718 H 0.52334 0.58484 0.40524 0.0
H719 H 0.52047 0.56243 0.4516 0.0
H720 H 0.03096 0.42555 0.67763 0.0
H721 H 0.01183 0.42664 0.72712 0.0
H722 H 0.05703 0.5154 0.73937 0.0
H723 H 0.07492 0.51485 0.68979 0.0
H724 H 0.04118 0.42768 0.7707 0.0
H725 H 0.98241 0.52724 0.78309 0.0
H726 H 0.99288 0.51148 0.74865 0.0
H727 H 0.01835 0.53817 0.76694 0.0
C728 C 0.03622 0.44553 0.69079 0.0
C729 C 0.05444 0.47017 0.67997 0.0
C730 C 0.02526 0.44614 0.71906 0.0
C731 C 0.0325 0.4713 0.73702 0.0
C732 C 0.05017 0.49612 0.72588 0.0
H733 H 0.09393 0.49039 0.89502 0.0
H734 H 0.07889 0.47422 0.84789 0.0
C735 C 0.0607 0.4957 0.69757 0.0
C736 C 0.02501 0.47045 0.76798 0.0
H737 H 0.00739 0.51557 0.82503 0.0
C738 C 0.03299 0.44657 0.7825 0.0
C739 C 0.01335 0.49444 0.78367 0.0
C740 C 0.00094 0.51903 0.76965 0.0
C741 C 0.03259 0.4476 0.81208 0.0
C742 C 0.02505 0.47359 0.82746 0.0
C743 C 0.014 0.49596 0.81322 0.0
C744 C 0.03272 0.47998 0.85716 0.0
C745 C 0.04137 0.42128 0.82649 0.0
C746 C 0.01192 0.48918 0.87803 0.0
C747 C 0.02062 0.49858 0.90506 0.0
C748 C 0.05024 0.49918 0.91145 0.0
C749 C 0.07088 0.48972 0.89068 0.0
C750 C 0.06221 0.4802 0.86384 0.0
H751 H 0.03453 0.40006 0.81455 0.0
H752 H 0.06577 0.42348 0.8271 0.0
H753 H 0.03137 0.4199 0.84845 0.0
H754 H 0.98921 0.48993 0.8732 0.0
H755 H 0.00458 0.50684 0.92045 0.0
H756 H 0.86572 0.97877 0.90629 0.0
H757 H 0.82165 0.00196 0.92392 0.0
H758 H 0.7759 0.91493 0.94079 0.0
H759 H 0.82008 0.8918 0.92393 0.0
H760 H 0.76546 0.9978 0.90864 0.0
H761 H 0.76592 0.95745 0.01652 0.0
H762 H 0.79642 0.95464 0.99068 0.0
H763 H 0.76443 0.92719 0.9905 0.0
C764 C 0.8462 0.96462 0.91371 0.0
C765 C 0.84645 0.93349 0.91407 0.0
C766 C 0.82104 0.97788 0.92377 0.0
C767 C 0.79562 0.96027 0.93425 0.0
C768 C 0.7955 0.92909 0.93361 0.0
H769 H 0.61553 0.99807 0.96617 0.0
H770 H 0.66408 0.99245 0.94256 0.0
C771 C 0.82074 0.91586 0.92392 0.0
C772 C 0.76938 0.97438 0.94635 0.0
H773 H 0.72166 0.97576 0.00477 0.0
C774 C 0.75601 0.99326 0.92978 0.0
C775 C 0.75742 0.96912 0.97417 0.0
C776 C 0.77199 0.95127 0.99409 0.0
C777 C 0.73039 0.00607 0.93992 0.0
C778 C 0.71738 0.99917 0.96708 0.0
C779 C 0.73137 0.98104 0.98388 0.0
C780 C 0.68876 0.00923 0.97855 0.0
C781 C 0.71781 0.02704 0.92152 0.0
C782 C 0.68624 0.02135 0.00637 0.0
C783 C 0.65849 0.02373 0.02004 0.0
C784 C 0.63272 0.01476 0.00596 0.0
C785 C 0.63516 0.00555 0.9773 0.0
C786 C 0.66298 0.00241 0.96378 0.0
H787 H 0.7353 0.0383 0.90702 0.0
H788 H 0.70126 0.01408 0.90831 0.0
H789 H 0.70684 0.04438 0.93434 0.0
H790 H 0.70571 0.02698 0.01821 0.0
H791 H 0.65712 0.03078 0.04221 0.0
H792 H 0.72897 0.08613 0.39745 0.0
H793 H 0.7724 0.06232 0.4078 0.0
H794 H 0.7502 0.07446 0.49706 0.0
H795 H 0.70686 0.09833 0.48687 0.0
H796 H 0.81973 0.08919 0.44034 0.0
H797 H 0.76489 0.98545 0.48713 0.0
H798 H 0.74621 0.00793 0.46533 0.0
H799 H 0.75083 0.01885 0.50184 0.0
C800 C 0.7332 0.08348 0.41928 0.0
C801 C 0.71446 0.094 0.44141 0.0
C802 C 0.75801 0.06987 0.42514 0.0
C803 C 0.76428 0.06616 0.45319 0.0
C804 C 0.74547 0.07651 0.47526 0.0
H805 H 0.89526 0.02891 0.55698 0.0
H806 H 0.85029 0.03249 0.53327 0.0
C807 C 0.72084 0.09031 0.46942 0.0
C808 C 0.79147 0.05337 0.45964 0.0
H809 H 0.81577 0.9988 0.4962 0.0
C810 C 0.81898 0.06912 0.4521 0.0
C811 C 0.79038 0.02716 0.47494 0.0
C812 C 0.76151 0.00866 0.48259 0.0
C813 C 0.84533 0.0605 0.46101 0.0
C814 C 0.84419 0.0349 0.47731 0.0
C815 C 0.81672 0.01834 0.48366 0.0
C816 C 0.87057 0.0274 0.491 0.0
C817 C 0.8739 0.08002 0.4544 0.0
C818 C 0.89675 0.02185 0.47522 0.0
C819 C 0.92275 0.02008 0.48883 0.0
C820 C 0.9228 0.02331 0.51844 0.0
C821 C 0.89599 0.02644 0.53414 0.0
C822 C 0.8702 0.02842 0.52059 0.0
H823 H 0.87011 0.1019 0.44649 0.0
H824 H 0.88684 0.08418 0.47343 0.0
H825 H 0.88739 0.06858 0.43783 0.0
H826 H 0.89743 0.02028 0.45237 0.0
H827 H 0.9431 0.018 0.47613 0.0
H828 H 0.34576 0.57935 0.16576 0.0
H829 H 0.29869 0.55103 0.15405 0.0
H830 H 0.32628 0.55391 0.06542 0.0
H831 H 0.37339 0.58171 0.07699 0.0
H832 H 0.25981 0.57486 0.12209 0.0
H833 H 0.28802 0.46783 0.07183 0.0
H834 H 0.31272 0.49122 0.094 0.0
H835 H 0.31089 0.49925 0.05748 0.0
C836 C 0.34208 0.57318 0.14384 0.0
C837 C 0.36317 0.58283 0.12226 0.0
C838 C 0.31518 0.55708 0.13719 0.0
C839 C 0.30912 0.55002 0.10889 0.0
C840 C 0.3307 0.55853 0.08742 0.0
H841 H 0.17959 0.52339 0.99464 0.0
H842 H 0.22235 0.52273 0.02247 0.0
C843 C 0.35747 0.57473 0.09403 0.0
C844 C 0.27904 0.53757 0.10136 0.0
H845 H 0.24243 0.48447 0.05883 0.0
C846 C 0.25573 0.55467 0.10887 0.0
C847 C 0.27385 0.51122 0.08415 0.0
C848 C 0.29766 0.49116 0.07663 0.0
C849 C 0.228 0.54754 0.09773 0.0
C850 C 0.2233 0.52215 0.07908 0.0
C851 C 0.24605 0.50392 0.07311 0.0
C852 C 0.19681 0.51702 0.06234 0.0
C853 C 0.20478 0.56856 0.10431 0.0
C854 C 0.16811 0.51287 0.07534 0.0
C855 C 0.14354 0.51366 0.05944 0.0
C856 C 0.14736 0.51803 0.03027 0.0
C857 C 0.17599 0.52009 0.01711 0.0
C858 C 0.20044 0.51954 0.03297 0.0
H859 H 0.21375 0.58969 0.11526 0.0
H860 H 0.19525 0.57414 0.08465 0.0
H861 H 0.18665 0.55761 0.11826 0.0
H862 H 0.16479 0.51039 0.09793 0.0
H863 H 0.12176 0.51238 0.07019 0.0
H864 H 0.19844 0.42387 0.61033 0.0
H865 H 0.24762 0.45156 0.61012 0.0
H866 H 0.21144 0.53208 0.59209 0.0
H867 H 0.16168 0.5042 0.59239 0.0
H868 H 0.2599 0.51681 0.5547 0.0
H869 H 0.2868 0.51493 0.66596 0.0
H870 H 0.27055 0.47905 0.65319 0.0
H871 H 0.24924 0.51033 0.65527 0.0
C872 C 0.20091 0.44752 0.60653 0.0
C873 C 0.17637 0.46188 0.60116 0.0
C874 C 0.22894 0.4634 0.60677 0.0
C875 C 0.23308 0.49398 0.60161 0.0
C876 C 0.20859 0.50858 0.59652 0.0
H877 H 0.41931 0.54846 0.54588 0.0
H878 H 0.37079 0.56074 0.56594 0.0
C879 C 0.1803 0.49268 0.59664 0.0
C880 C 0.26358 0.50916 0.59855 0.0
H881 H 0.32848 0.51411 0.63075 0.0
C882 C 0.27487 0.51737 0.57151 0.0
C883 C 0.28292 0.51016 0.62062 0.0
C884 C 0.27168 0.50344 0.65047 0.0
C885 C 0.30545 0.52294 0.56514 0.0
C886 C 0.32498 0.52054 0.58656 0.0
C887 C 0.31347 0.51569 0.61432 0.0
C888 C 0.35621 0.51596 0.57929 0.0
C889 C 0.31668 0.52828 0.53498 0.0
C890 C 0.36442 0.48718 0.58121 0.0
C891 C 0.39198 0.48035 0.57012 0.0
C892 C 0.412 0.50227 0.55723 0.0
C893 C 0.40449 0.5315 0.55652 0.0
C894 C 0.37671 0.53838 0.5676 0.0
H895 H 0.29846 0.52776 0.52059 0.0
H896 H 0.33001 0.55043 0.53393 0.0
H897 H 0.33119 0.5111 0.52722 0.0
H898 H 0.34886 0.46951 0.58998 0.0
H899 H 0.39728 0.45762 0.57076 0.0
H900 H 0.00247 0.83902 0.93353 0.0
H901 H 0.01503 0.79439 0.95509 0.0
H902 H 0.92283 0.7687 0.97773 0.0
H903 H 0.91008 0.81328 0.95608 0.0
H904 H 0.00156 0.77385 0.01243 0.0
H905 H 0.95084 0.69617 0.92969 0.0
H906 H 0.95938 0.73571 0.92482 0.0
H907 H 0.92798 0.7222 0.94733 0.0
C908 C 0.9849 0.82392 0.94324 0.0
C909 C 0.95533 0.82954 0.943 0.0
C910 C 0.9921 0.79852 0.95562 0.0
C911 C 0.96985 0.77813 0.96779 0.0
C912 C 0.9403 0.784 0.96817 0.0
H913 H 0.9966 0.59758 0.01273 0.0
H914 H 0.97282 0.64341 0.0118 0.0
C915 C 0.93307 0.80952 0.95586 0.0
C916 C 0.97775 0.75022 0.97899 0.0
H917 H 0.97504 0.67514 0.9643 0.0
C918 C 0.99551 0.7522 0.00213 0.0
C919 C 0.96964 0.72199 0.96566 0.0
C920 C 0.95107 0.71868 0.94038 0.0
C921 C 0.006 0.72674 0.01182 0.0
C922 C 0.99912 0.69874 0.99758 0.0
C923 C 0.9803 0.6966 0.97524 0.0
C924 C 0.01358 0.67204 0.00332 0.0
C925 C 0.02457 0.73011 0.03708 0.0
C926 C 0.04442 0.67296 0.99947 0.0
C927 C 0.05804 0.6469 0.0003 0.0
C928 C 0.04111 0.61932 0.00493 0.0
C929 C 0.01032 0.61857 0.00984 0.0
C930 C 0.99667 0.64471 0.00905 0.0
H931 H 0.01942 0.74959 0.05105 0.0
H932 H 0.02112 0.70975 0.04961 0.0
H933 H 0.04824 0.73392 0.02972 0.0
H934 H 0.05791 0.69357 0.99432 0.0
H935 H 0.08177 0.64816 0.99619 0.0
H936 H 0.47533 0.67775 0.1023 0.0
H937 H 0.48605 0.72477 0.07806 0.0
H938 H 0.39288 0.733 0.07945 0.0
H939 H 0.38198 0.68655 0.1044 0.0
H940 H 0.46576 0.74178 0.02544 0.0
H941 H 0.42853 0.81171 0.11819 0.0
H942 H 0.43604 0.77368 0.12127 0.0
H943 H 0.40255 0.78118 0.10677 0.0
C944 C 0.45713 0.68967 0.09763 0.0
C945 C 0.42781 0.67845 0.10544 0.0
C946 C 0.46327 0.71637 0.08355 0.0
C947 C 0.44026 0.73245 0.07717 0.0
C948 C 0.41096 0.72108 0.08443 0.0
H949 H 0.46727 0.91861 0.02811 0.0
H950 H 0.44121 0.86801 0.03138 0.0
C951 C 0.40479 0.6944 0.09849 0.0
C952 C 0.44714 0.76162 0.06381 0.0
H953 H 0.4472 0.83658 0.07754 0.0
C954 C 0.46144 0.76252 0.03667 0.0
C955 C 0.44116 0.7886 0.07838 0.0
C956 C 0.42642 0.78898 0.10784 0.0
C957 C 0.47078 0.78982 0.02409 0.0
C958 C 0.46618 0.81686 0.03928 0.0
C959 C 0.45057 0.81585 0.06582 0.0
C960 C 0.48106 0.8462 0.03032 0.0
C961 C 0.48592 0.78942 0.99484 0.0
C962 C 0.51202 0.85061 0.02765 0.0
C963 C 0.52682 0.87931 0.02575 0.0
C964 C 0.511 0.90426 0.02657 0.0
C965 C 0.48001 0.89977 0.02704 0.0
C966 C 0.46512 0.8709 0.02911 0.0
H967 H 0.47798 0.7689 0.98237 0.0
H968 H 0.48221 0.80924 0.98322 0.0
H969 H 0.51003 0.78947 0.99652 0.0
H970 H 0.52485 0.8321 0.02915 0.0
H971 H 0.55072 0.88214 0.02542 0.0
H972 H 0.15961 0.35953 0.57938 0.0
H973 H 0.15542 0.3089 0.55839 0.0
H974 H 0.06613 0.31698 0.53839 0.0
H975 H 0.07069 0.36831 0.55789 0.0
H976 H 0.11886 0.26435 0.57794 0.0
H977 H 0.09587 0.27607 0.4668 0.0
H978 H 0.10983 0.30749 0.48908 0.0
H979 H 0.07088 0.29476 0.49034 0.0
C980 C 0.13938 0.35097 0.5697 0.0
C981 C 0.11549 0.36814 0.57029 0.0
C982 C 0.13698 0.32188 0.55785 0.0
C983 C 0.11065 0.30922 0.54638 0.0
C984 C 0.08696 0.32646 0.54641 0.0
H985 H 0.00767 0.14789 0.52845 0.0
H986 H 0.03325 0.19815 0.52409 0.0
C987 C 0.08942 0.35569 0.55804 0.0
C988 C 0.10665 0.277 0.53766 0.0
H989 H 0.07931 0.22772 0.4863 0.0
C990 C 0.11096 0.25631 0.55761 0.0
C991 C 0.09645 0.2665 0.51108 0.0
C992 C 0.09331 0.28742 0.48802 0.0
C993 C 0.10332 0.22559 0.55256 0.0
C994 C 0.09133 0.21525 0.52671 0.0
C995 C 0.08857 0.23573 0.50608 0.0
C996 C 0.07707 0.18425 0.52299 0.0
C997 C 0.10616 0.20463 0.57573 0.0
C998 C 0.09331 0.15961 0.52255 0.0
C999 C 0.07863 0.1307 0.52509 0.0
C1000 C 0.04764 0.12629 0.52803 0.0
C1001 C 0.03159 0.15077 0.52637 0.0
C1002 C 0.04618 0.17945 0.52372 0.0
H1003 H 0.11267 0.21674 0.59571 0.0
H1004 H 0.08493 0.19044 0.58008 0.0
H1005 H 0.12319 0.18968 0.56888 0.0
H1006 H 0.11721 0.1629 0.52178 0.0
H1007 H 0.09145 0.11217 0.5265 0.0
H1008 H 0.61525 0.22062 0.38692 0.0
H1009 H 0.59952 0.26443 0.41349 0.0
H1010 H 0.60166 0.22016 0.49147 0.0
H1011 H 0.61733 0.17603 0.46495 0.0
H1012 H 0.54852 0.26636 0.44808 0.0
H1013 H 0.64764 0.30234 0.50813 0.0
H1014 H 0.6483 0.27639 0.4779 0.0
H1015 H 0.63242 0.26403 0.51153 0.0
C1016 C 0.61235 0.22013 0.40972 0.0
C1017 C 0.61744 0.19471 0.42377 0.0
C1018 C 0.60351 0.24528 0.4249 0.0
C1019 C 0.5997 0.24574 0.4545 0.0
C1020 C 0.60504 0.22057 0.46869 0.0
H1021 H 0.49436 0.37563 0.54304 0.0
H1022 H 0.51683 0.32939 0.53127 0.0
C1023 C 0.61394 0.19534 0.45349 0.0
C1024 C 0.58853 0.27202 0.47008 0.0
H1025 H 0.60626 0.32912 0.51836 0.0
C1026 C 0.56109 0.27999 0.46355 0.0
C1027 C 0.60506 0.2899 0.49012 0.0
C1028 C 0.63511 0.28299 0.49726 0.0
C1029 C 0.54983 0.30544 0.47621 0.0
C1030 C 0.56619 0.32322 0.49644 0.0
C1031 C 0.5936 0.31524 0.50313 0.0
C1032 C 0.55583 0.35123 0.50917 0.0
C1033 C 0.52092 0.31362 0.46707 0.0
C1034 C 0.57115 0.37896 0.50218 0.0
C1035 C 0.55849 0.40538 0.50922 0.0
C1036 C 0.53056 0.40448 0.52372 0.0
C1037 C 0.5162 0.37692 0.53238 0.0
C1038 C 0.52889 0.35052 0.52543 0.0
H1039 H 0.51439 0.30137 0.44717 0.0
H1040 H 0.50323 0.30791 0.48377 0.0
H1041 H 0.52227 0.33796 0.46391 0.0
H1042 H 0.59191 0.38002 0.48956 0.0
H1043 H 0.56958 0.42628 0.50162 0.0
loop_
_geom_bond_atom_site_label_1
_geom_bond_atom_site_label_2
_geom_bond_distance
_geom_bond_site_symmetry_2
_ccdc_geom_bond_type
H0 C5 0.930 . S
H1 C8 0.930 . S
H2 C10 0.930 . S
H3 C4 1.016 . S
C4 H3 1.016 . S
C4 N11 1.286 . S
C5 H0 0.930 . S
C5 C6 1.397 . S
C5 C7 1.361 . S
C6 C5 1.397 . S
C6 C10 1.390 . S
C7 C5 1.361 . S
C7 C8 1.393 . S
C7 N11 1.413 . S
C8 H1 0.930 . S
C8 C7 1.393 . S
C8 C9 1.399 . S
C9 C8 1.399 . S
C9 C10 1.381 . S
C10 H2 0.930 . S
C10 C6 1.390 . S
C10 C9 1.381 . S
N11 C4 1.286 . S
N11 C7 1.413 . S
H12 C17 0.930 . S
H13 C20 0.930 . S
H14 C22 0.930 . S
H15 C16 1.016 . S
C16 H15 1.016 . S
C16 N23 1.286 . S
C17 H12 0.930 . S
C17 C18 1.397 . S
C17 C19 1.361 . S
C18 C17 1.397 . S
C18 C22 1.390 . S
C19 C17 1.361 . S
C19 C20 1.393 . S
C19 N23 1.413 . S
C20 H13 0.930 . S
C20 C19 1.393 . S
C20 C21 1.399 . S
C21 C20 1.399 . S
C21 C22 1.381 . S
C22 H14 0.930 . S
C22 C18 1.390 . S
C22 C21 1.381 . S
N23 C16 1.286 . S
N23 C19 1.413 . S
H24 C29 0.930 . S
H25 C32 0.930 . S
H26 C34 0.930 . S
H27 C28 1.016 . S
C28 H27 1.016 . S
C28 N35 1.286 . S
C29 H24 0.930 . S
C29 C30 1.397 . S
C29 C31 1.361 . S
C30 C29 1.397 . S
C30 C34 1.390 . S
C31 C29 1.361 . S
C31 C32 1.393 . S
C31 N35 1.413 . S
C32 H25 0.930 . S
C32 C31 1.393 . S
C32 C33 1.399 . S
C33 C32 1.399 . S
C33 C34 1.381 . S
C34 H26 0.930 . S
C34 C30 1.390 . S
C34 C33 1.381 . S
N35 C28 1.286 . S
N35 C31 1.413 . S
H36 C41 0.930 . S
H37 C44 0.930 . S
H38 C46 0.930 . S
H39 C40 1.016 . S
C40 H39 1.016 . S
C40 N47 1.286 . S
C41 H36 0.930 . S
C41 C42 1.397 . S
C41 C43 1.361 . S
C42 C41 1.397 . S
C42 C46 1.390 . S
C43 C41 1.361 . S
C43 C44 1.393 . S
C43 N47 1.413 . S
C44 H37 0.930 . S
C44 C43 1.393 . S
C44 C45 1.399 . S
C45 C44 1.399 . S
C45 C46 1.381 . S
C46 H38 0.930 . S
C46 C42 1.390 . S
C46 C45 1.381 . S
N47 C40 1.286 . S
N47 C43 1.413 . S
H48 C53 0.930 . S
H49 C56 0.930 . S
H50 C58 0.930 . S
H51 C52 1.016 . S
C52 H51 1.016 . S
C52 N59 1.286 . S
C53 H48 0.930 . S
C53 C54 1.397 . S
C53 C55 1.361 . S
C54 C53 1.397 . S
C54 C58 1.390 . S
C55 C53 1.361 . S
C55 C56 1.393 . S
C55 N59 1.413 . S
C56 H49 0.930 . S
C56 C55 1.393 . S
C56 C57 1.399 . S
C57 C56 1.399 . S
C57 C58 1.381 . S
C58 H50 0.930 . S
C58 C54 1.390 . S
C58 C57 1.381 . S
N59 C52 1.286 . S
N59 C55 1.413 . S
H60 C65 0.930 . S
H61 C68 0.930 . S
H62 C70 0.930 . S
H63 C64 1.016 . S
C64 H63 1.016 . S
C64 N71 1.286 . S
C65 H60 0.930 . S
C65 C66 1.397 . S
C65 C67 1.361 . S
C66 C65 1.397 . S
C66 C70 1.390 . S
C67 C65 1.361 . S
C67 C68 1.393 . S
C67 N71 1.413 . S
C68 H61 0.930 . S
C68 C67 1.393 . S
C68 C69 1.399 . S
C69 C68 1.399 . S
C69 C70 1.381 . S
C70 H62 0.930 . S
C70 C66 1.390 . S
C70 C69 1.381 . S
N71 C64 1.286 . S
N71 C67 1.413 . S
H72 C77 0.930 . S
H73 C80 0.930 . S
H74 C82 0.930 . S
H75 C76 1.016 . S
C76 H75 1.016 . S
C76 N83 1.286 . S
C77 H72 0.930 . S
C77 C78 1.397 . S
C77 C79 1.361 . S
C78 C77 1.397 . S
C78 C82 1.390 . S
C79 C77 1.361 . S
C79 C80 1.393 . S
C79 N83 1.413 . S
C80 H73 0.930 . S
C80 C79 1.393 . S
C80 C81 1.399 . S
C81 C80 1.399 . S
C81 C82 1.381 . S
C82 H74 0.930 . S
C82 C78 1.390 . S
C82 C81 1.381 . S
N83 C76 1.286 . S
N83 C79 1.413 . S
H84 C89 0.930 . S
H85 C92 0.930 . S
H86 C94 0.930 . S
H87 C88 1.016 . S
C88 H87 1.016 . S
C88 N95 1.286 . S
C89 H84 0.930 . S
C89 C90 1.397 . S
C89 C91 1.361 . S
C90 C89 1.397 . S
C90 C94 1.390 . S
C91 C89 1.361 . S
C91 C92 1.393 . S
C91 N95 1.413 . S
C92 H85 0.930 . S
C92 C91 1.393 . S
C92 C93 1.399 . S
C93 C92 1.399 . S
C93 C94 1.381 . S
C94 H86 0.930 . S
C94 C90 1.390 . S
C94 C93 1.381 . S
N95 C88 1.286 . S
N95 C91 1.413 . S
Zn96 O102 1.920 . S
Zn96 O108 1.898 . S
Zn96 O111 1.905 . S
Zn97 O105 1.905 1_565 S
Zn97 O106 1.898 . S
Zn97 O114 1.920 . S
Zn98 O101 2.080 1_455 S
Zn98 O104 2.114 . S
Zn98 O107 2.120 1_445 S
Zn98 O109 2.120 . S
Zn98 O110 2.114 1_455 S
Zn98 O113 2.080 . S
C99 O104 1.166 . S
C99 O105 1.182 . S
C100 O106 1.167 1_655 S
C100 O107 1.299 . S
O101 Zn98 2.080 1_655 S
O101 C115 1.305 . S
O102 Zn96 1.920 . S
O102 C115 1.234 . S
C103 O108 1.167 1_455 S
C103 O109 1.299 . S
O104 Zn98 2.114 . S
O104 C99 1.166 . S
O105 Zn97 1.905 1_545 S
O105 C99 1.182 . S
O106 Zn97 1.898 . S
O106 C100 1.167 1_455 S
O107 Zn98 2.120 1_665 S
O107 C100 1.299 . S
O108 Zn96 1.898 . S
O108 C103 1.167 1_655 S
O109 Zn98 2.120 . S
O109 C103 1.299 . S
O110 Zn98 2.114 1_655 S
O110 C112 1.166 . S
O111 Zn96 1.905 . S
O111 C112 1.182 . S
C112 O110 1.166 . S
C112 O111 1.182 . S
O113 Zn98 2.080 . S
O113 C116 1.305 1_545 S
O114 Zn97 1.920 . S
O114 C116 1.234 . S
C115 O101 1.305 . S
C115 O102 1.234 . S
C116 O113 1.305 1_565 S
C116 O114 1.234 . S
Zn117 O123 1.920 1_556 S
Zn117 O129 1.898 . S
Zn117 O132 1.905 . S
Zn118 O126 1.905 . S
Zn118 O127 1.898 . S
Zn118 O135 1.920 . S
Zn119 O122 2.080 . S
Zn119 O125 2.114 1_545 S
Zn119 O128 2.120 1_545 S
Zn119 O130 2.120 . S
Zn119 O131 2.114 1_544 S
Zn119 O134 2.080 . S
C120 O125 1.166 . S
C120 O126 1.182 . S
C121 O127 1.167 . S
C121 O128 1.299 . S
O122 Zn119 2.080 . S
O122 C136 1.305 . S
O123 Zn117 1.920 1_554 S
O123 C136 1.234 . S
C124 O129 1.167 . S
C124 O130 1.299 1_556 S
O125 Zn119 2.114 1_565 S
O125 C120 1.166 . S
O126 Zn118 1.905 . S
O126 C120 1.182 . S
O127 Zn118 1.898 . S
O127 C121 1.167 . S
O128 Zn119 2.120 1_565 S
O128 C121 1.299 . S
O129 Zn117 1.898 . S
O129 C124 1.167 . S
O130 Zn119 2.120 . S
O130 C124 1.299 1_554 S
O131 Zn119 2.114 1_566 S
O131 C133 1.166 . S
O132 Zn117 1.905 . S
O132 C133 1.182 1_545 S
C133 O131 1.166 . S
C133 O132 1.182 1_565 S
O134 Zn119 2.080 . S
O134 C137 1.305 . S
O135 Zn118 1.920 . S
O135 C137 1.234 1_565 S
C136 O122 1.305 . S
C136 O123 1.234 . S
C137 O134 1.305 . S
C137 O135 1.234 1_545 S
Zn138 O144 1.920 . S
Zn138 O150 1.898 . S
Zn138 O153 1.905 . S
Zn139 O147 1.905 . S
Zn139 O148 1.898 . S
Zn139 O156 1.920 . S
Zn140 O143 2.080 . S
Zn140 O146 2.114 . S
Zn140 O149 2.120 . S
Zn140 O151 2.120 . S
Zn140 O152 2.114 . S
Zn140 O155 2.080 . S
C141 O146 1.166 . S
C141 O147 1.182 . S
C142 O148 1.167 . S
C142 O149 1.299 . S
O143 Zn140 2.080 . S
O143 C157 1.305 . S
O144 Zn138 1.920 . S
O144 C157 1.234 . S
C145 O150 1.167 . S
C145 O151 1.299 . S
O146 Zn140 2.114 . S
O146 C141 1.166 . S
O147 Zn139 1.905 . S
O147 C141 1.182 . S
O148 Zn139 1.898 . S
O148 C142 1.167 . S
O149 Zn140 2.120 . S
O149 C142 1.299 . S
O150 Zn138 1.898 . S
O150 C145 1.167 . S
O151 Zn140 2.120 . S
O151 C145 1.299 . S
O152 Zn140 2.114 . S
O152 C154 1.166 . S
O153 Zn138 1.905 . S
O153 C154 1.182 . S
C154 O152 1.166 . S
C154 O153 1.182 . S
O155 Zn140 2.080 . S
O155 C158 1.305 . S
O156 Zn139 1.920 . S
O156 C158 1.234 . S
C157 O143 1.305 . S
C157 O144 1.234 . S
C158 O155 1.305 . S
C158 O156 1.234 . S
Zn159 O165 1.920 . S
Zn159 O171 1.898 . S
Zn159 O174 1.905 . S
Zn160 O168 1.871 1_655 S
Zn160 O169 1.914 . S
Zn160 O177 1.930 . S
Zn161 O164 2.080 1_554 S
Zn161 O167 2.114 . S
Zn161 O170 2.120 1_554 S
Zn161 O172 2.120 . S
Zn161 O173 2.114 1_554 S
Zn161 O176 2.080 . S
C162 O167 1.166 . S
C162 O168 1.182 . S
C163 O169 1.167 1_556 S
C163 O170 1.299 1_655 S
O164 Zn161 2.080 1_556 S
O164 C178 1.305 . S
O165 Zn159 1.920 . S
O165 C178 1.234 . S
C166 O171 1.167 1_554 S
C166 O172 1.299 . S
O167 Zn161 2.114 . S
O167 C162 1.166 . S
O168 Zn160 1.871 1_455 S
O168 C162 1.182 . S
O169 Zn160 1.914 . S
O169 C163 1.167 1_554 S
O170 Zn161 2.120 1_556 S
O170 C163 1.299 1_455 S
O171 Zn159 1.898 . S
O171 C166 1.167 1_556 S
O172 Zn161 2.120 . S
O172 C166 1.299 . S
O173 Zn161 2.114 1_556 S
O173 C175 1.166 . S
O174 Zn159 1.905 . S
O174 C175 1.182 . S
C175 O173 1.166 . S
C175 O174 1.182 . S
O176 Zn161 2.080 . S
O176 C179 1.305 . S
O177 Zn160 1.930 . S
O177 C179 1.234 1_655 S
C178 O164 1.305 . S
C178 O165 1.234 . S
C179 O176 1.305 . S
C179 O177 1.234 1_455 S
H180 C188 0.929 . S
H181 C190 0.930 . S
H182 C192 0.930 . S
H183 C195 0.929 . S
H184 C198 0.930 . S
H185 C200 0.960 . S
H186 C200 0.960 . S
H187 C200 0.960 . S
C188 H180 0.929 . S
C188 C189 1.377 . S
C188 C190 1.384 . S
C189 C188 1.377 . S
C189 C195 1.390 . S
C190 H181 0.930 . S
C190 C188 1.384 . S
C190 C191 1.372 . S
C191 C190 1.372 . S
C191 C192 1.400 . S
C191 C196 1.490 . S
C192 H182 0.930 . S
C192 C191 1.400 . S
C192 C195 1.386 . S
H193 C209 0.930 . S
H194 C210 0.931 . S
C195 H183 0.929 . S
C195 C189 1.390 . S
C195 C192 1.386 . S
C196 C191 1.490 . S
C196 C198 1.395 . S
C196 C199 1.403 . S
H197 C203 0.930 . S
C198 H184 0.930 . S
C198 C196 1.395 . S
C198 C201 1.403 . S
C199 C196 1.403 . S
C199 C200 1.524 . S
C199 C203 1.400 . S
C200 H185 0.960 . S
C200 H186 0.960 . S
C200 H187 0.960 . S
C200 C199 1.524 . S
C201 C198 1.403 . S
C201 C202 1.392 . S
C201 C205 1.495 . S
C202 C201 1.392 . S
C202 C203 1.385 . S
C202 C204 1.478 . S
C203 H197 0.930 . S
C203 C199 1.400 . S
C203 C202 1.385 . S
C204 C202 1.478 . S
C204 C206 1.381 . S
C204 C210 1.383 . S
C205 C201 1.495 . S
C205 H211 0.959 . S
C205 H212 0.961 . S
C205 H213 0.960 . S
C206 C204 1.381 . S
C206 C207 1.394 . S
C206 H214 0.930 . S
C207 C206 1.394 . S
C207 C208 1.383 . S
C207 H215 0.929 . S
C208 C207 1.383 . S
C208 C209 1.377 . S
C209 H193 0.930 . S
C209 C208 1.377 . S
C209 C210 1.379 . S
C210 H194 0.931 . S
C210 C204 1.383 . S
C210 C209 1.379 . S
H211 C205 0.959 . S
H212 C205 0.961 . S
H213 C205 0.960 . S
H214 C206 0.930 . S
H215 C207 0.929 . S
H216 C224 0.929 . S
H217 C226 0.930 . S
H218 C228 0.930 . S
H219 C231 0.929 . S
H220 C234 0.930 . S
H221 C236 0.960 . S
H222 C236 0.960 . S
H223 C236 0.960 . S
C224 H216 0.929 . S
C224 C225 1.377 . S
C224 C226 1.384 . S
C225 C224 1.377 . S
C225 C231 1.390 . S
C226 H217 0.930 . S
C226 C224 1.384 . S
C226 C227 1.372 . S
C227 C226 1.372 . S
C227 C228 1.400 . S
C227 C232 1.490 . S
C228 H218 0.930 . S
C228 C227 1.400 . S
C228 C231 1.386 . S
H229 C245 0.930 . S
H230 C246 0.931 . S
C231 H219 0.929 . S
C231 C225 1.390 . S
C231 C228 1.386 . S
C232 C227 1.490 . S
C232 C234 1.395 . S
C232 C235 1.403 . S
H233 C239 0.930 . S
C234 H220 0.930 . S
C234 C232 1.395 . S
C234 C237 1.403 . S
C235 C232 1.403 . S
C235 C236 1.524 . S
C235 C239 1.400 . S
C236 H221 0.960 . S
C236 H222 0.960 . S
C236 H223 0.960 . S
C236 C235 1.524 . S
C237 C234 1.403 . S
C237 C238 1.392 . S
C237 C241 1.495 . S
C238 C237 1.392 . S
C238 C239 1.385 . S
C238 C240 1.478 . S
C239 H233 0.930 . S
C239 C235 1.400 . S
C239 C238 1.385 . S
C240 C238 1.478 . S
C240 C242 1.381 . S
C240 C246 1.383 . S
C241 C237 1.495 . S
C241 H247 0.959 . S
C241 H248 0.961 . S
C241 H249 0.960 . S
C242 C240 1.381 . S
C242 C243 1.394 . S
C242 H250 0.930 . S
C243 C242 1.394 . S
C243 C244 1.383 . S
C243 H251 0.957 . S
C244 C243 1.383 . S
C244 C245 1.377 . S
C245 H229 0.930 . S
C245 C244 1.377 . S
C245 C246 1.379 . S
C246 H230 0.931 . S
C246 C240 1.383 . S
C246 C245 1.379 . S
H247 C241 0.959 . S
H248 C241 0.961 . S
H249 C241 0.960 . S
H250 C242 0.930 . S
H251 C243 0.957 . S
H252 C260 0.929 . S
H253 C262 0.930 . S
H254 C264 0.930 . S
H255 C267 0.929 . S
H256 C270 0.930 . S
H257 C272 0.960 . S
H258 C272 0.960 . S
H259 C272 0.960 . S
C260 H252 0.929 . S
C260 C261 1.377 . S
C260 C262 1.384 . S
C261 C260 1.377 . S
C261 C267 1.390 . S
C262 H253 0.930 . S
C262 C260 1.384 . S
C262 C263 1.372 . S
C263 C262 1.372 . S
C263 C264 1.400 . S
C263 C268 1.490 . S
C264 H254 0.930 . S
C264 C263 1.400 . S
C264 C267 1.386 . S
H265 C281 0.930 . S
H266 C282 0.931 . S
C267 H255 0.929 . S
C267 C261 1.390 . S
C267 C264 1.386 . S
C268 C263 1.490 . S
C268 C270 1.395 . S
C268 C271 1.403 . S
H269 C275 0.930 . S
C270 H256 0.930 . S
C270 C268 1.395 . S
C270 C273 1.403 . S
C271 C268 1.403 . S
C271 C272 1.524 . S
C271 C275 1.400 . S
C272 H257 0.960 . S
C272 H258 0.960 . S
C272 H259 0.960 . S
C272 C271 1.524 . S
C273 C270 1.403 . S
C273 C274 1.392 . S
C273 C277 1.495 . S
C274 C273 1.392 . S
C274 C275 1.385 . S
C274 C276 1.478 . S
C275 H269 0.930 . S
C275 C271 1.400 . S
C275 C274 1.385 . S
C276 C274 1.478 . S
C276 C278 1.381 . S
C276 C282 1.383 . S
C277 C273 1.495 . S
C277 H283 0.959 . S
C277 H284 0.961 . S
C277 H285 0.960 . S
C278 C276 1.381 . S
C278 C279 1.394 . S
C278 H286 0.930 . S
C279 C278 1.394 . S
C279 C280 1.383 . S
C279 H287 0.929 . S
C280 C279 1.383 . S
C280 C281 1.377 . S
C281 H265 0.930 . S
C281 C280 1.377 . S
C281 C282 1.379 . S
C282 H266 0.931 . S
C282 C276 1.383 . S
C282 C281 1.379 . S
H283 C277 0.959 . S
H284 C277 0.961 . S
H285 C277 0.960 . S
H286 C278 0.930 . S
H287 C279 0.929 . S
H288 C296 0.929 . S
H289 C298 0.930 . S
H290 C300 0.930 . S
H291 C303 0.929 . S
H292 C306 0.930 . S
H293 C308 0.960 1_455 S
H294 C308 0.960 . S
H295 C308 0.960 . S
C296 H288 0.929 . S
C296 C297 1.377 . S
C296 C298 1.384 . S
C297 C296 1.377 . S
C297 C303 1.390 . S
C298 H289 0.930 . S
C298 C296 1.384 . S
C298 C299 1.372 . S
C299 C298 1.372 . S
C299 C300 1.400 . S
C299 C304 1.490 . S
C300 H290 0.930 . S
C300 C299 1.400 . S
C300 C303 1.386 . S
H301 C317 0.930 . S
H302 C318 0.931 . S
C303 H291 0.929 . S
C303 C297 1.390 . S
C303 C300 1.386 . S
C304 C299 1.490 . S
C304 C306 1.395 . S
C304 C307 1.403 . S
H305 C311 0.930 . S
C306 H292 0.930 . S
C306 C304 1.395 . S
C306 C309 1.403 . S
C307 C304 1.403 . S
C307 C308 1.524 . S
C307 C311 1.400 . S
C308 H293 0.960 1_655 S
C308 H294 0.960 . S
C308 H295 0.960 . S
C308 C307 1.524 . S
C309 C306 1.403 . S
C309 C310 1.392 . S
C309 C313 1.495 . S
C310 C309 1.392 . S
C310 C311 1.385 . S
C310 C312 1.478 . S
C311 H305 0.930 . S
C311 C307 1.400 . S
C311 C310 1.385 . S
C312 C310 1.478 . S
C312 C314 1.381 . S
C312 C318 1.383 1_655 S
C313 C309 1.495 . S
C313 H319 0.959 . S
C313 H320 0.961 . S
C313 H321 0.960 . S
C314 C312 1.381 . S
C314 C315 1.394 . S
C314 H322 0.930 . S
C315 C314 1.394 . S
C315 C316 1.383 1_655 S
C315 H323 0.929 . S
C316 C315 1.383 1_455 S
C316 C317 1.377 . S
C317 H301 0.930 . S
C317 C316 1.377 . S
C317 C318 1.379 . S
C318 H302 0.931 . S
C318 C312 1.383 1_455 S
C318 C317 1.379 . S
H319 C313 0.959 . S
H320 C313 0.961 . S
H321 C313 0.960 . S
H322 C314 0.930 . S
H323 C315 0.929 . S
H324 C332 0.929 . S
H325 C334 0.930 . S
H326 C336 0.930 . S
H327 C339 0.929 . S
H328 C342 0.930 . S
H329 C344 0.960 . S
H330 C344 0.960 . S
H331 C344 0.960 . S
C332 H324 0.929 . S
C332 C333 1.377 . S
C332 C334 1.384 . S
C333 C332 1.377 . S
C333 C339 1.390 . S
C334 H325 0.930 . S
C334 C332 1.384 . S
C334 C335 1.372 . S
C335 C334 1.372 . S
C335 C336 1.400 . S
C335 C340 1.490 . S
C336 H326 0.930 . S
C336 C335 1.400 . S
C336 C339 1.386 . S
H337 C353 0.930 . S
H338 C354 0.931 . S
C339 H327 0.929 . S
C339 C333 1.390 . S
C339 C336 1.386 . S
C340 C335 1.490 . S
C340 C342 1.395 . S
C340 C343 1.403 . S
H341 C347 0.930 . S
C342 H328 0.930 . S
C342 C340 1.395 . S
C342 C345 1.403 . S
C343 C340 1.403 . S
C343 C344 1.524 . S
C343 C347 1.400 . S
C344 H329 0.960 . S
C344 H330 0.960 . S
C344 H331 0.960 . S
C344 C343 1.524 . S
C345 C342 1.403 . S
C345 C346 1.392 . S
C345 C349 1.495 . S
C346 C345 1.392 . S
C346 C347 1.385 . S
C346 C348 1.478 . S
C347 H341 0.930 . S
C347 C343 1.400 . S
C347 C346 1.385 . S
C348 C346 1.478 . S
C348 C350 1.381 . S
C348 C354 1.383 . S
C349 C345 1.495 . S
C349 H355 0.959 . S
C349 H356 0.961 . S
C349 H357 0.960 . S
C350 C348 1.381 . S
C350 C351 1.394 . S
C350 H358 0.930 . S
C351 C350 1.394 . S
C351 C352 1.383 . S
C351 H359 0.929 . S
C352 C351 1.383 . S
C352 C353 1.377 . S
C353 H337 0.930 . S
C353 C352 1.377 . S
C353 C354 1.379 . S
C354 H338 0.931 . S
C354 C348 1.383 . S
C354 C353 1.379 . S
H355 C349 0.959 . S
H356 C349 0.961 . S
H357 C349 0.960 . S
H358 C350 0.930 . S
H359 C351 0.929 . S
H360 C368 0.929 . S
H361 C370 0.930 . S
H362 C372 0.930 . S
H363 C375 0.929 . S
H364 C378 0.930 . S
H365 C380 0.960 . S
H366 C380 0.960 . S
H367 C380 0.960 . S
C368 H360 0.929 . S
C368 C369 1.377 . S
C368 C370 1.384 . S
C369 C368 1.377 . S
C369 C375 1.390 . S
C370 H361 0.930 . S
C370 C368 1.384 . S
C370 C371 1.372 . S
C371 C370 1.372 . S
C371 C372 1.400 . S
C371 C376 1.490 . S
C372 H362 0.930 . S
C372 C371 1.400 . S
C372 C375 1.386 . S
H373 C389 0.930 1_545 S
H374 C390 0.931 . S
C375 H363 0.929 . S
C375 C369 1.390 . S
C375 C372 1.386 . S
C376 C371 1.490 . S
C376 C378 1.395 . S
C376 C379 1.403 . S
H377 C383 0.930 . S
C378 H364 0.930 . S
C378 C376 1.395 . S
C378 C381 1.403 . S
C379 C376 1.403 . S
C379 C380 1.524 . S
C379 C383 1.400 . S
C380 H365 0.960 . S
C380 H366 0.960 . S
C380 H367 0.960 . S
C380 C379 1.524 . S
C381 C378 1.403 . S
C381 C382 1.392 . S
C381 C385 1.495 . S
C382 C381 1.392 . S
C382 C383 1.385 . S
C382 C384 1.478 . S
C383 H377 0.930 . S
C383 C379 1.400 . S
C383 C382 1.385 . S
C384 C382 1.478 . S
C384 C386 1.381 . S
C384 C390 1.383 . S
C385 C381 1.495 . S
C385 H391 0.959 . S
C385 H392 0.961 . S
C385 H393 0.960 . S
C386 C384 1.381 . S
C386 C387 1.394 . S
C386 H394 0.930 . S
C387 C386 1.394 . S
C387 C388 1.383 . S
C387 H395 0.929 . S
C388 C387 1.383 . S
C388 C389 1.377 . S
C389 H373 0.930 1_565 S
C389 C388 1.377 . S
C389 C390 1.379 . S
C390 H374 0.931 . S
C390 C384 1.383 . S
C390 C389 1.379 . S
H391 C385 0.959 . S
H392 C385 0.961 . S
H393 C385 0.960 . S
H394 C386 0.930 . S
H395 C387 0.929 . S
H396 C404 0.929 . S
H397 C406 0.930 . S
H398 C408 0.930 . S
H399 C411 0.929 . S
H400 C414 0.930 . S
H401 C416 0.960 . S
H402 C416 0.960 . S
H403 C416 0.960 . S
C404 H396 0.929 . S
C404 C405 1.377 . S
C404 C406 1.384 . S
C405 C404 1.377 . S
C405 C411 1.390 . S
C406 H397 0.930 . S
C406 C404 1.384 . S
C406 C407 1.372 . S
C407 C406 1.372 . S
C407 C408 1.400 . S
C407 C412 1.490 . S
C408 H398 0.930 . S
C408 C407 1.400 . S
C408 C411 1.386 . S
H409 C425 0.930 . S
H410 C426 0.931 . S
C411 H399 0.929 . S
C411 C405 1.390 . S
C411 C408 1.386 . S
C412 C407 1.490 . S
C412 C414 1.395 . S
C412 C415 1.403 . S
H413 C419 0.930 . S
C414 H400 0.930 . S
C414 C412 1.395 . S
C414 C417 1.403 . S
C415 C412 1.403 . S
C415 C416 1.524 . S
C415 C419 1.400 . S
C416 H401 0.960 . S
C416 H402 0.960 . S
C416 H403 0.960 . S
C416 C415 1.524 . S
C417 C414 1.403 . S
C417 C418 1.392 . S
C417 C421 1.495 . S
C418 C417 1.392 . S
C418 C419 1.385 . S
C418 C420 1.478 . S
C419 H413 0.930 . S
C419 C415 1.400 . S
C419 C418 1.385 . S
C420 C418 1.478 . S
C420 C422 1.381 . S
C420 C426 1.383 . S
C421 C417 1.495 . S
C421 H427 0.959 . S
C421 H428 0.961 . S
C421 H429 0.960 . S
C422 C420 1.381 . S
C422 C423 1.394 . S
C422 H430 0.930 . S
C423 C422 1.394 . S
C423 C424 1.383 . S
C423 H431 0.929 . S
C424 C423 1.383 . S
C424 C425 1.377 . S
C425 H409 0.930 . S
C425 C424 1.377 . S
C425 C426 1.379 . S
C426 H410 0.931 . S
C426 C420 1.383 . S
C426 C425 1.379 . S
H427 C421 0.959 . S
H428 C421 0.961 . S
H429 C421 0.960 . S
H430 C422 0.930 . S
H431 C423 0.929 . S
H432 C440 0.929 . S
H433 C442 0.930 . S
H434 C444 0.930 . S
H435 C447 0.929 . S
H436 C450 0.930 . S
H437 C452 0.960 . S
H438 C452 0.960 . S
H439 C452 0.960 . S
C440 H432 0.929 . S
C440 C441 1.377 . S
C440 C442 1.384 . S
C441 C440 1.377 . S
C441 C447 1.390 . S
C442 H433 0.930 . S
C442 C440 1.384 . S
C442 C443 1.372 . S
C443 C442 1.372 . S
C443 C444 1.400 . S
C443 C448 1.490 . S
C444 H434 0.930 . S
C444 C443 1.400 . S
C444 C447 1.386 . S
H445 C461 0.930 . S
H446 C462 0.931 . S
C447 H435 0.929 . S
C447 C441 1.390 . S
C447 C444 1.386 . S
C448 C443 1.490 . S
C448 C450 1.395 . S
C448 C451 1.403 . S
H449 C455 0.930 . S
C450 H436 0.930 . S
C450 C448 1.395 . S
C450 C453 1.403 . S
C451 C448 1.403 . S
C451 C452 1.524 . S
C451 C455 1.400 . S
C452 H437 0.960 . S
C452 H438 0.960 . S
C452 H439 0.960 . S
C452 C451 1.524 . S
C453 C450 1.403 . S
C453 C454 1.392 . S
C453 C457 1.495 . S
C454 C453 1.392 . S
C454 C455 1.385 . S
C454 C456 1.478 . S
C455 H449 0.930 . S
C455 C451 1.400 . S
C455 C454 1.385 . S
C456 C454 1.478 . S
C456 C458 1.381 . S
C456 C462 1.383 . S
C457 C453 1.495 . S
C457 H463 0.959 . S
C457 H464 0.961 . S
C457 H465 0.960 . S
C458 C456 1.381 . S
C458 C459 1.394 . S
C458 H466 0.930 . S
C459 C458 1.394 . S
C459 C460 1.383 . S
C459 H467 0.929 . S
C460 C459 1.383 . S
C460 C461 1.377 . S
C461 H445 0.930 . S
C461 C460 1.377 . S
C461 C462 1.379 . S
C462 H446 0.931 . S
C462 C456 1.383 . S
C462 C461 1.379 . S
H463 C457 0.959 . S
H464 C457 0.961 . S
H465 C457 0.960 . S
H466 C458 0.930 . S
H467 C459 0.929 . S
H468 C476 0.929 . S
H469 C478 0.930 . S
H470 C480 0.930 . S
H471 C483 0.929 . S
H472 C486 0.930 . S
H473 C488 0.960 . S
H474 C488 0.960 . S
H475 C488 0.960 . S
C476 H468 0.929 . S
C476 C477 1.377 . S
C476 C478 1.384 . S
C477 C476 1.377 . S
C477 C483 1.390 . S
C478 H469 0.930 . S
C478 C476 1.384 . S
C478 C479 1.372 . S
C479 C478 1.372 . S
C479 C480 1.400 . S
C479 C484 1.490 . S
C480 H470 0.930 . S
C480 C479 1.400 . S
C480 C483 1.386 . S
H481 C497 0.930 . S
H482 C498 0.931 . S
C483 H471 0.929 . S
C483 C477 1.390 . S
C483 C480 1.386 . S
C484 C479 1.490 . S
C484 C486 1.395 . S
C484 C487 1.403 . S
H485 C491 0.930 . S
C486 H472 0.930 . S
C486 C484 1.395 . S
C486 C489 1.403 . S
C487 C484 1.403 . S
C487 C488 1.524 . S
C487 C491 1.400 . S
C488 H473 0.960 . S
C488 H474 0.960 . S
C488 H475 0.960 . S
C488 C487 1.524 . S
C489 C486 1.403 . S
C489 C490 1.392 . S
C489 C493 1.495 . S
C490 C489 1.392 . S
C490 C491 1.385 . S
C490 C492 1.478 . S
C491 H485 0.930 . S
C491 C487 1.400 . S
C491 C490 1.385 . S
C492 C490 1.478 . S
C492 C494 1.381 . S
C492 C498 1.383 . S
C493 C489 1.495 . S
C493 H499 0.959 . S
C493 H500 0.961 . S
C493 H501 0.960 . S
C494 C492 1.381 . S
C494 C495 1.394 . S
C494 H502 0.930 . S
C495 C494 1.394 . S
C495 C496 1.383 . S
C495 H503 0.929 . S
C496 C495 1.383 . S
C496 C497 1.377 . S
C497 H481 0.930 . S
C497 C496 1.377 . S
C497 C498 1.379 . S
C498 H482 0.931 . S
C498 C492 1.383 . S
C498 C497 1.379 . S
H499 C493 0.959 . S
H500 C493 0.961 . S
H501 C493 0.960 . S
H502 C494 0.930 . S
H503 C495 0.929 . S
H504 C512 0.929 . S
H505 C514 0.930 . S
H506 C516 0.930 . S
H507 C519 0.929 . S
H508 C522 0.930 . S
H509 C524 0.960 . S
H510 C524 0.960 . S
H511 C524 0.960 . S
C512 H504 0.929 . S
C512 C513 1.377 . S
C512 C514 1.384 . S
C513 C512 1.377 . S
C513 C519 1.390 . S
C514 H505 0.930 . S
C514 C512 1.384 . S
C514 C515 1.372 . S
C515 C514 1.372 . S
C515 C516 1.400 . S
C515 C520 1.490 . S
C516 H506 0.930 . S
C516 C515 1.400 . S
C516 C519 1.386 . S
H517 C533 0.930 . S
H518 C534 0.931 . S
C519 H507 0.929 . S
C519 C513 1.390 . S
C519 C516 1.386 . S
C520 C515 1.490 . S
C520 C522 1.395 . S
C520 C523 1.403 . S
H521 C527 0.930 . S
C522 H508 0.930 . S
C522 C520 1.395 . S
C522 C525 1.403 . S
C523 C520 1.403 . S
C523 C524 1.524 . S
C523 C527 1.400 . S
C524 H509 0.960 . S
C524 H510 0.960 . S
C524 H511 0.960 . S
C524 C523 1.524 . S
C525 C522 1.403 . S
C525 C526 1.392 . S
C525 C529 1.495 . S
C526 C525 1.392 . S
C526 C527 1.385 . S
C526 C528 1.478 . S
C527 H521 0.930 . S
C527 C523 1.400 . S
C527 C526 1.385 . S
C528 C526 1.478 . S
C528 C530 1.381 . S
C528 C534 1.383 . S
C529 C525 1.495 . S
C529 H535 0.959 . S
C529 H536 0.961 . S
C529 H537 0.960 . S
C530 C528 1.381 . S
C530 C531 1.394 1_556 S
C530 H538 0.931 . S
C531 C530 1.394 1_554 S
C531 C532 1.383 1_554 S
C531 H539 0.929 . S
C532 C531 1.383 1_556 S
C532 C533 1.377 . S
C533 H517 0.930 . S
C533 C532 1.377 . S
C533 C534 1.379 . S
C534 H518 0.931 . S
C534 C528 1.383 . S
C534 C533 1.379 . S
H535 C529 0.959 . S
H536 C529 0.961 . S
H537 C529 0.960 . S
H538 C530 0.931 . S
H539 C531 0.929 . S
H540 C548 0.929 . S
H541 C550 0.930 . S
H542 C552 0.930 . S
H543 C555 0.929 . S
H544 C558 0.930 . S
H545 C560 0.960 . S
H546 C560 0.960 . S
H547 C560 0.960 . S
C548 H540 0.929 . S
C548 C549 1.377 . S
C548 C550 1.384 . S
C549 C548 1.377 . S
C549 C555 1.390 . S
C550 H541 0.930 . S
C550 C548 1.384 . S
C550 C551 1.372 . S
C551 C550 1.372 . S
C551 C552 1.400 . S
C551 C556 1.490 . S
C552 H542 0.930 . S
C552 C551 1.400 . S
C552 C555 1.386 . S
H553 C569 0.930 . S
H554 C570 0.931 . S
C555 H543 0.929 . S
C555 C549 1.390 . S
C555 C552 1.386 . S
C556 C551 1.490 . S
C556 C558 1.395 . S
C556 C559 1.403 . S
H557 C563 0.930 . S
C558 H544 0.930 . S
C558 C556 1.395 . S
C558 C561 1.403 . S
C559 C556 1.403 . S
C559 C560 1.524 . S
C559 C563 1.400 . S
C560 H545 0.960 . S
C560 H546 0.960 . S
C560 H547 0.960 . S
C560 C559 1.524 . S
C561 C558 1.403 . S
C561 C562 1.392 . S
C561 C565 1.495 . S
C562 C561 1.392 . S
C562 C563 1.385 . S
C562 C564 1.478 . S
C563 H557 0.930 . S
C563 C559 1.400 . S
C563 C562 1.385 . S
C564 C562 1.478 . S
C564 C566 1.381 . S
C564 C570 1.383 . S
C565 C561 1.495 . S
C565 H571 0.959 . S
C565 H572 0.961 . S
C565 H573 0.960 . S
C566 C564 1.381 . S
C566 C567 1.394 . S
C566 H574 0.930 . S
C567 C566 1.394 . S
C567 C568 1.383 . S
C567 H575 0.929 . S
C568 C567 1.383 . S
C568 C569 1.377 . S
C569 H553 0.930 . S
C569 C568 1.377 . S
C569 C570 1.379 . S
C570 H554 0.931 . S
C570 C564 1.383 . S
C570 C569 1.379 . S
H571 C565 0.959 . S
H572 C565 0.961 . S
H573 C565 0.960 . S
H574 C566 0.930 . S
H575 C567 0.929 . S
H576 C584 0.929 . S
H577 C586 0.930 . S
H578 C588 0.930 . S
H579 C591 0.929 . S
H580 C594 0.930 . S
H581 C596 0.960 . S
H582 C596 0.960 . S
H583 C596 0.960 . S
C584 H576 0.929 . S
C584 C585 1.377 . S
C584 C586 1.384 . S
C585 C584 1.377 . S
C585 C591 1.390 . S
C586 H577 0.930 . S
C586 C584 1.384 . S
C586 C587 1.372 . S
C587 C586 1.372 . S
C587 C588 1.400 . S
C587 C592 1.490 . S
C588 H578 0.930 . S
C588 C587 1.400 . S
C588 C591 1.386 . S
H589 C605 0.930 . S
H590 C606 0.931 . S
C591 H579 0.929 . S
C591 C585 1.390 . S
C591 C588 1.386 . S
C592 C587 1.490 . S
C592 C594 1.395 . S
C592 C595 1.403 . S
H593 C599 0.930 . S
C594 H580 0.930 . S
C594 C592 1.395 . S
C594 C597 1.403 . S
C595 C592 1.403 . S
C595 C596 1.524 . S
C595 C599 1.400 . S
C596 H581 0.960 . S
C596 H582 0.960 . S
C596 H583 0.960 . S
C596 C595 1.524 . S
C597 C594 1.403 . S
C597 C598 1.392 . S
C597 C601 1.495 . S
C598 C597 1.392 . S
C598 C599 1.385 . S
C598 C600 1.478 . S
C599 H593 0.930 . S
C599 C595 1.400 . S
C599 C598 1.385 . S
C600 C598 1.478 . S
C600 C602 1.381 . S
C600 C606 1.383 . S
C601 C597 1.495 . S
C601 H607 0.959 . S
C601 H608 0.961 . S
C601 H609 0.960 . S
C602 C600 1.381 . S
C602 C603 1.394 . S
C602 H610 0.930 . S
C603 C602 1.394 . S
C603 C604 1.383 . S
C603 H611 0.929 . S
C604 C603 1.383 . S
C604 C605 1.377 . S
C605 H589 0.930 . S
C605 C604 1.377 . S
C605 C606 1.379 . S
C606 H590 0.931 . S
C606 C600 1.383 . S
C606 C605 1.379 . S
H607 C601 0.959 . S
H608 C601 0.961 . S
H609 C601 0.960 . S
H610 C602 0.930 . S
H611 C603 0.929 . S
H612 C620 0.929 . S
H613 C622 0.930 . S
H614 C624 0.930 1_445 S
H615 C627 0.929 1_545 S
H616 C630 0.930 . S
H617 C632 0.960 . S
H618 C632 0.960 . S
H619 C632 0.960 . S
C620 H612 0.929 . S
C620 C621 1.377 . S
C620 C622 1.384 . S
C621 C620 1.377 . S
C621 C627 1.390 . S
C622 H613 0.930 . S
C622 C620 1.384 . S
C622 C623 1.372 . S
C623 C622 1.372 . S
C623 C624 1.400 . S
C623 C628 1.490 . S
C624 H614 0.930 1_665 S
C624 C623 1.400 . S
C624 C627 1.386 . S
H625 C641 0.930 . S
H626 C642 0.931 1_455 S
C627 H615 0.929 1_565 S
C627 C621 1.390 . S
C627 C624 1.386 . S
C628 C623 1.490 . S
C628 C630 1.395 . S
C628 C631 1.418 . S
H629 C635 0.938 . S
C630 H616 0.930 . S
C630 C628 1.395 . S
C630 C633 1.403 . S
C631 C628 1.418 . S
C631 C632 1.508 1_655 S
C631 C635 1.402 1_655 S
C632 H617 0.960 . S
C632 H618 0.960 . S
C632 H619 0.960 . S
C632 C631 1.508 1_455 S
C633 C630 1.403 . S
C633 C634 1.392 . S
C633 C637 1.495 . S
C634 C633 1.392 . S
C634 C635 1.377 1_655 S
C634 C636 1.478 . S
C635 H629 0.938 . S
C635 C631 1.402 1_455 S
C635 C634 1.377 1_455 S
C636 C634 1.478 . S
C636 C638 1.381 . S
C636 C642 1.383 1_565 S
C637 C633 1.495 . S
C637 H643 0.959 . S
C637 H644 0.961 1_565 S
C637 H645 0.960 . S
C638 C636 1.381 . S
C638 C639 1.394 . S
C638 H646 0.930 . S
C639 C638 1.394 . S
C639 C640 1.383 1_565 S
C639 H647 0.929 . S
C640 C639 1.383 1_545 S
C640 C641 1.377 1_655 S
C641 H625 0.930 . S
C641 C640 1.377 1_455 S
C641 C642 1.379 1_455 S
C642 H626 0.931 1_655 S
C642 C636 1.383 1_545 S
C642 C641 1.379 1_655 S
H643 C637 0.959 . S
H644 C637 0.961 1_545 S
H645 C637 0.960 . S
H646 C638 0.930 . S
H647 C639 0.929 . S
H648 C656 0.929 . S
H649 C658 0.930 . S
H650 C660 0.930 . S
H651 C663 0.929 . S
H652 C666 0.930 . S
H653 C668 0.960 . S
H654 C668 0.960 . S
H655 C668 0.960 . S
C656 H648 0.929 . S
C656 C657 1.377 . S
C656 C658 1.384 . S
C657 C656 1.377 . S
C657 C663 1.390 . S
C658 H649 0.930 . S
C658 C656 1.384 . S
C658 C659 1.372 . S
C659 C658 1.372 . S
C659 C660 1.400 . S
C659 C664 1.490 . S
C660 H650 0.930 . S
C660 C659 1.400 . S
C660 C663 1.386 . S
H661 C677 0.930 . S
H662 C678 0.931 . S
C663 H651 0.929 . S
C663 C657 1.390 . S
C663 C660 1.386 . S
C664 C659 1.490 . S
C664 C666 1.395 . S
C664 C667 1.403 . S
H665 C671 0.930 . S
C666 H652 0.930 . S
C666 C664 1.395 . S
C666 C669 1.403 . S
C667 C664 1.403 . S
C667 C668 1.524 . S
C667 C671 1.400 . S
C668 H653 0.960 . S
C668 H654 0.960 . S
C668 H655 0.960 . S
C668 C667 1.524 . S
C669 C666 1.403 . S
C669 C670 1.392 . S
C669 C673 1.495 . S
C670 C669 1.392 . S
C670 C671 1.385 . S
C670 C672 1.478 . S
C671 H665 0.930 . S
C671 C667 1.400 . S
C671 C670 1.385 . S
C672 C670 1.478 . S
C672 C674 1.381 . S
C672 C678 1.383 . S
C673 C669 1.495 . S
C673 H679 0.959 . S
C673 H680 0.961 . S
C673 H681 0.960 . S
C674 C672 1.381 . S
C674 C675 1.394 . S
C674 H682 0.930 . S
C675 C674 1.394 . S
C675 C676 1.383 . S
C675 H683 0.929 1_545 S
C676 C675 1.383 . S
C676 C677 1.377 . S
C677 H661 0.930 . S
C677 C676 1.377 . S
C677 C678 1.379 . S
C678 H662 0.931 . S
C678 C672 1.383 . S
C678 C677 1.379 . S
H679 C673 0.959 . S
H680 C673 0.961 . S
H681 C673 0.960 . S
H682 C674 0.930 . S
H683 C675 0.929 1_565 S
H684 C692 0.929 . S
H685 C694 0.930 . S
H686 C696 0.930 . S
H687 C699 0.929 . S
H688 C702 0.930 . S
H689 C704 0.960 . S
H690 C704 0.960 . S
H691 C704 0.960 . S
C692 H684 0.929 . S
C692 C693 1.377 . S
C692 C694 1.384 . S
C693 C692 1.377 . S
C693 C699 1.390 . S
C694 H685 0.930 . S
C694 C692 1.384 . S
C694 C695 1.372 . S
C695 C694 1.372 . S
C695 C696 1.400 . S
C695 C700 1.490 . S
C696 H686 0.930 . S
C696 C695 1.400 . S
C696 C699 1.386 . S
H697 C713 0.930 . S
H698 C714 0.931 . S
C699 H687 0.929 . S
C699 C693 1.390 . S
C699 C696 1.386 . S
C700 C695 1.490 . S
C700 C702 1.395 . S
C700 C703 1.403 . S
H701 C707 0.930 . S
C702 H688 0.930 . S
C702 C700 1.395 . S
C702 C705 1.403 . S
C703 C700 1.403 . S
C703 C704 1.524 . S
C703 C707 1.400 . S
C704 H689 0.960 . S
C704 H690 0.960 . S
C704 H691 0.960 . S
C704 C703 1.524 . S
C705 C702 1.403 . S
C705 C706 1.392 . S
C705 C709 1.495 . S
C706 C705 1.392 . S
C706 C707 1.385 . S
C706 C708 1.478 . S
C707 H701 0.930 . S
C707 C703 1.400 . S
C707 C706 1.385 . S
C708 C706 1.478 . S
C708 C710 1.381 . S
C708 C714 1.383 . S
C709 C705 1.495 . S
C709 H715 0.959 . S
C709 H716 0.961 . S
C709 H717 0.960 . S
C710 C708 1.381 . S
C710 C711 1.394 . S
C710 H718 0.930 . S
C711 C710 1.394 . S
C711 C712 1.383 . S
C711 H719 0.929 . S
C712 C711 1.383 . S
C712 C713 1.377 . S
C713 H697 0.930 . S
C713 C712 1.377 . S
C713 C714 1.379 . S
C714 H698 0.931 . S
C714 C708 1.383 . S
C714 C713 1.379 . S
H715 C709 0.959 . S
H716 C709 0.961 . S
H717 C709 0.960 . S
H718 C710 0.930 . S
H719 C711 0.929 . S
H720 C728 0.929 . S
H721 C730 0.930 . S
H722 C732 0.930 . S
H723 C735 0.929 . S
H724 C738 0.930 . S
H725 C740 0.960 . S
H726 C740 0.960 . S
H727 C740 0.960 . S
C728 H720 0.929 . S
C728 C729 1.377 . S
C728 C730 1.384 . S
C729 C728 1.377 . S
C729 C735 1.390 . S
C730 H721 0.930 . S
C730 C728 1.384 . S
C730 C731 1.372 . S
C731 C730 1.372 . S
C731 C732 1.400 . S
C731 C736 1.490 . S
C732 H722 0.930 . S
C732 C731 1.400 . S
C732 C735 1.386 . S
H733 C749 0.930 . S
H734 C750 0.931 . S
C735 H723 0.929 . S
C735 C729 1.390 . S
C735 C732 1.386 . S
C736 C731 1.490 . S
C736 C738 1.395 . S
C736 C739 1.403 . S
H737 C743 0.930 . S
C738 H724 0.930 . S
C738 C736 1.395 . S
C738 C741 1.403 . S
C739 C736 1.403 . S
C739 C740 1.524 . S
C739 C743 1.400 . S
C740 H725 0.960 . S
C740 H726 0.960 . S
C740 H727 0.960 . S
C740 C739 1.524 . S
C741 C738 1.403 . S
C741 C742 1.392 . S
C741 C745 1.495 . S
C742 C741 1.392 . S
C742 C743 1.385 . S
C742 C744 1.478 . S
C743 H737 0.930 . S
C743 C739 1.400 . S
C743 C742 1.385 . S
C744 C742 1.478 . S
C744 C746 1.381 . S
C744 C750 1.383 . S
C745 C741 1.495 . S
C745 H751 0.959 . S
C745 H752 0.961 . S
C745 H753 0.960 . S
C746 C744 1.381 . S
C746 C747 1.394 . S
C746 H754 0.930 . S
C747 C746 1.394 . S
C747 C748 1.383 . S
C747 H755 0.929 . S
C748 C747 1.383 . S
C748 C749 1.377 . S
C749 H733 0.930 . S
C749 C748 1.377 . S
C749 C750 1.379 . S
C750 H734 0.931 . S
C750 C744 1.383 . S
C750 C749 1.379 . S
H751 C745 0.959 . S
H752 C745 0.961 . S
H753 C745 0.960 . S
H754 C746 0.930 . S
H755 C747 0.929 . S
H756 C764 0.929 1_545 S
H757 C766 0.918 1_545 S
H758 C768 0.930 . S
H759 C771 0.929 . S
H760 C774 0.930 . S
H761 C776 0.960 . S
H762 C776 0.960 . S
H763 C776 0.960 1_556 S
C764 H756 0.929 1_565 S
C764 C765 1.377 . S
C764 C766 1.387 . S
C765 C764 1.377 . S
C765 C771 1.390 . S
C766 H757 0.918 1_565 S
C766 C764 1.387 . S
C766 C767 1.381 . S
C767 C766 1.381 . S
C767 C768 1.400 . S
C767 C772 1.490 . S
C768 H758 0.930 . S
C768 C767 1.400 . S
C768 C771 1.386 . S
H769 C785 0.930 . S
H770 C786 0.931 . S
C771 H759 0.929 . S
C771 C765 1.390 . S
C771 C768 1.386 . S
C772 C767 1.490 . S
C772 C774 1.395 1_565 S
C772 C775 1.403 . S
H773 C779 0.930 1_554 S
C774 H760 0.930 . S
C774 C772 1.395 1_545 S
C774 C777 1.403 . S
C775 C772 1.403 . S
C775 C776 1.524 1_556 S
C775 C779 1.400 . S
C776 H761 0.960 . S
C776 H762 0.960 . S
C776 H763 0.960 1_554 S
C776 C775 1.524 1_554 S
C777 C774 1.403 . S
C777 C778 1.392 1_545 S
C777 C781 1.495 . S
C778 C777 1.392 1_565 S
C778 C779 1.385 . S
C778 C780 1.478 . S
C779 H773 0.930 1_556 S
C779 C775 1.400 . S
C779 C778 1.385 . S
C780 C778 1.478 . S
C780 C782 1.381 1_566 S
C780 C786 1.383 . S
C781 C777 1.495 . S
C781 H787 0.959 . S
C781 H788 0.961 . S
C781 H789 0.960 . S
C782 C780 1.381 1_544 S
C782 C783 1.394 . S
C782 H790 0.930 . S
C783 C782 1.394 . S
C783 C784 1.383 1_545 S
C783 H791 0.929 . S
C784 C783 1.383 1_565 S
C784 C785 1.377 1_554 S
C785 H769 0.930 . S
C785 C784 1.377 1_556 S
C785 C786 1.379 . S
C786 H770 0.931 . S
C786 C780 1.383 . S
C786 C785 1.379 . S
H787 C781 0.959 . S
H788 C781 0.961 . S
H789 C781 0.960 . S
H790 C782 0.930 . S
H791 C783 0.929 . S
H792 C800 0.929 . S
H793 C802 0.930 . S
H794 C804 0.930 . S
H795 C807 0.929 . S
H796 C810 0.930 . S
H797 C812 0.960 . S
H798 C812 0.960 . S
H799 C812 0.960 . S
C800 H792 0.929 . S
C800 C801 1.377 . S
C800 C802 1.384 . S
C801 C800 1.377 . S
C801 C807 1.390 . S
C802 H793 0.930 . S
C802 C800 1.384 . S
C802 C803 1.372 . S
C803 C802 1.372 . S
C803 C804 1.400 . S
C803 C808 1.490 . S
C804 H794 0.930 . S
C804 C803 1.400 . S
C804 C807 1.386 . S
H805 C821 0.930 . S
H806 C822 0.931 . S
C807 H795 0.929 . S
C807 C801 1.390 . S
C807 C804 1.386 . S
C808 C803 1.490 . S
C808 C810 1.395 . S
C808 C811 1.403 . S
H809 C815 0.930 . S
C810 H796 0.930 . S
C810 C808 1.395 . S
C810 C813 1.403 . S
C811 C808 1.403 . S
C811 C812 1.524 . S
C811 C815 1.400 . S
C812 H797 0.960 . S
C812 H798 0.960 . S
C812 H799 0.960 . S
C812 C811 1.524 . S
C813 C810 1.403 . S
C813 C814 1.392 . S
C813 C817 1.495 . S
C814 C813 1.392 . S
C814 C815 1.385 . S
C814 C816 1.478 . S
C815 H809 0.930 . S
C815 C811 1.400 . S
C815 C814 1.385 . S
C816 C814 1.478 . S
C816 C818 1.381 . S
C816 C822 1.383 . S
C817 C813 1.495 . S
C817 H823 0.959 1_545 S
C817 H824 0.961 . S
C817 H825 0.960 1_545 S
C818 C816 1.381 . S
C818 C819 1.394 . S
C818 H826 0.930 1_545 S
C819 C818 1.394 . S
C819 C820 1.383 . S
C819 H827 0.929 1_545 S
C820 C819 1.383 . S
C820 C821 1.377 . S
C821 H805 0.930 . S
C821 C820 1.377 . S
C821 C822 1.379 . S
C822 H806 0.931 . S
C822 C816 1.383 . S
C822 C821 1.379 . S
H823 C817 0.959 1_565 S
H824 C817 0.961 . S
H825 C817 0.960 1_565 S
H826 C818 0.930 1_565 S
H827 C819 0.929 1_565 S
H828 C836 0.929 . S
H829 C838 0.930 . S
H830 C840 0.930 . S
H831 C843 0.929 . S
H832 C846 0.930 . S
H833 C848 0.960 . S
H834 C848 0.960 . S
H835 C848 0.960 . S
C836 H828 0.929 . S
C836 C837 1.377 . S
C836 C838 1.384 . S
C837 C836 1.377 . S
C837 C843 1.390 . S
C838 H829 0.930 . S
C838 C836 1.384 . S
C838 C839 1.372 . S
C839 C838 1.372 . S
C839 C840 1.400 . S
C839 C844 1.490 . S
C840 H830 0.930 . S
C840 C839 1.400 . S
C840 C843 1.386 . S
H841 C857 0.930 1_556 S
H842 C858 0.931 1_556 S
C843 H831 0.929 . S
C843 C837 1.390 . S
C843 C840 1.386 . S
C844 C839 1.490 . S
C844 C846 1.395 . S
C844 C847 1.403 . S
H845 C851 0.930 . S
C846 H832 0.930 . S
C846 C844 1.395 . S
C846 C849 1.403 . S
C847 C844 1.403 . S
C847 C848 1.524 . S
C847 C851 1.400 . S
C848 H833 0.960 . S
C848 H834 0.960 . S
C848 H835 0.960 . S
C848 C847 1.524 . S
C849 C846 1.403 . S
C849 C850 1.392 . S
C849 C853 1.495 . S
C850 C849 1.392 . S
C850 C851 1.385 . S
C850 C852 1.478 . S
C851 H845 0.930 . S
C851 C847 1.400 . S
C851 C850 1.385 . S
C852 C850 1.478 . S
C852 C854 1.381 . S
C852 C858 1.383 . S
C853 C849 1.495 . S
C853 H859 0.959 . S
C853 H860 0.961 . S
C853 H861 0.960 . S
C854 C852 1.381 . S
C854 C855 1.394 . S
C854 H862 0.930 . S
C855 C854 1.394 . S
C855 C856 1.383 . S
C855 H863 0.929 . S
C856 C855 1.383 . S
C856 C857 1.377 . S
C857 H841 0.930 1_554 S
C857 C856 1.377 . S
C857 C858 1.379 . S
C858 H842 0.931 1_554 S
C858 C852 1.383 . S
C858 C857 1.379 . S
H859 C853 0.959 . S
H860 C853 0.961 . S
H861 C853 0.960 . S
H862 C854 0.930 . S
H863 C855 0.929 . S
H864 C872 0.929 . S
H865 C874 0.930 . S
H866 C876 0.930 . S
H867 C879 0.929 . S
H868 C882 0.930 . S
H869 C884 0.960 . S
H870 C884 0.960 . S
H871 C884 0.960 . S
C872 H864 0.929 . S
C872 C873 1.377 . S
C872 C874 1.384 . S
C873 C872 1.377 . S
C873 C879 1.390 . S
C874 H865 0.930 . S
C874 C872 1.384 . S
C874 C875 1.372 . S
C875 C874 1.372 . S
C875 C876 1.400 . S
C875 C880 1.490 . S
C876 H866 0.930 . S
C876 C875 1.400 . S
C876 C879 1.386 . S
H877 C893 0.930 . S
H878 C894 0.931 . S
C879 H867 0.929 . S
C879 C873 1.390 . S
C879 C876 1.386 . S
C880 C875 1.490 . S
C880 C882 1.395 . S
C880 C883 1.403 . S
H881 C887 0.930 . S
C882 H868 0.930 . S
C882 C880 1.395 . S
C882 C885 1.403 . S
C883 C880 1.403 . S
C883 C884 1.524 . S
C883 C887 1.400 . S
C884 H869 0.960 . S
C884 H870 0.960 . S
C884 H871 0.960 . S
C884 C883 1.524 . S
C885 C882 1.403 . S
C885 C886 1.392 . S
C885 C889 1.495 . S
C886 C885 1.392 . S
C886 C887 1.385 . S
C886 C888 1.478 . S
C887 H881 0.930 . S
C887 C883 1.400 . S
C887 C886 1.385 . S
C888 C886 1.478 . S
C888 C890 1.381 . S
C888 C894 1.383 . S
C889 C885 1.495 . S
C889 H895 0.959 . S
C889 H896 0.961 . S
C889 H897 0.960 . S
C890 C888 1.381 . S
C890 C891 1.394 . S
C890 H898 0.930 . S
C891 C890 1.394 . S
C891 C892 1.383 . S
C891 H899 0.929 . S
C892 C891 1.383 . S
C892 C893 1.377 . S
C893 H877 0.930 . S
C893 C892 1.377 . S
C893 C894 1.379 . S
C894 H878 0.931 . S
C894 C888 1.383 . S
C894 C893 1.379 . S
H895 C889 0.959 . S
H896 C889 0.961 . S
H897 C889 0.960 . S
H898 C890 0.930 . S
H899 C891 0.929 . S
H900 C908 0.929 . S
H901 C910 0.930 . S
H902 C912 0.930 . S
H903 C915 0.929 . S
H904 C918 0.930 . S
H905 C920 0.960 . S
H906 C920 0.960 . S
H907 C920 0.960 . S
C908 H900 0.929 . S
C908 C909 1.377 1_455 S
C908 C910 1.384 . S
C909 C908 1.377 1_655 S
C909 C915 1.390 . S
C910 H901 0.930 . S
C910 C908 1.384 . S
C910 C911 1.372 . S
C911 C910 1.372 . S
C911 C912 1.400 1_455 S
C911 C916 1.490 . S
C912 H902 0.930 . S
C912 C911 1.400 1_655 S
C912 C915 1.386 . S
H913 C929 0.930 . S
H914 C930 0.931 1_655 S
C915 H903 0.929 . S
C915 C909 1.390 . S
C915 C912 1.386 . S
C916 C911 1.490 . S
C916 C918 1.395 . S
C916 C919 1.403 1_455 S
H917 C923 0.930 1_655 S
C918 H904 0.930 . S
C918 C916 1.395 . S
C918 C921 1.403 . S
C919 C916 1.403 1_655 S
C919 C920 1.524 . S
C919 C923 1.400 1_655 S
C920 H905 0.960 . S
C920 H906 0.960 . S
C920 H907 0.960 . S
C920 C919 1.524 . S
C921 C918 1.403 . S
C921 C922 1.392 . S
C921 C925 1.495 1_556 S
C922 C921 1.392 . S
C922 C923 1.385 . S
C922 C924 1.478 . S
C923 H917 0.930 1_455 S
C923 C919 1.400 1_455 S
C923 C922 1.385 . S
C924 C922 1.478 . S
C924 C926 1.381 . S
C924 C930 1.383 1_556 S
C925 C921 1.495 1_554 S
C925 H931 0.959 . S
C925 H932 0.961 . S
C925 H933 0.973 . S
C926 C924 1.381 . S
C926 C927 1.394 . S
C926 H934 0.930 . S
C927 C926 1.394 . S
C927 C928 1.383 . S
C927 H935 0.929 . S
C928 C927 1.383 . S
C928 C929 1.377 1_556 S
C929 H913 0.930 . S
C929 C928 1.377 1_554 S
C929 C930 1.379 . S
C930 H914 0.931 1_455 S
C930 C924 1.383 1_554 S
C930 C929 1.379 . S
H931 C925 0.959 . S
H932 C925 0.961 . S
H933 C925 0.973 . S
H934 C926 0.930 . S
H935 C927 0.929 . S
H936 C944 0.929 . S
H937 C946 0.930 . S
H938 C948 0.930 . S
H939 C951 0.929 . S
H940 C954 0.930 . S
H941 C956 0.960 . S
H942 C956 0.960 . S
H943 C956 0.960 . S
C944 H936 0.929 . S
C944 C945 1.377 . S
C944 C946 1.384 . S
C945 C944 1.377 . S
C945 C951 1.390 . S
C946 H937 0.930 . S
C946 C944 1.384 . S
C946 C947 1.372 . S
C947 C946 1.372 . S
C947 C948 1.400 . S
C947 C952 1.490 . S
C948 H938 0.930 . S
C948 C947 1.400 . S
C948 C951 1.386 . S
H949 C965 0.930 . S
H950 C966 0.931 . S
C951 H939 0.929 . S
C951 C945 1.390 . S
C951 C948 1.386 . S
C952 C947 1.490 . S
C952 C954 1.395 . S
C952 C955 1.403 . S
H953 C959 0.930 . S
C954 H940 0.930 . S
C954 C952 1.395 . S
C954 C957 1.403 . S
C955 C952 1.403 . S
C955 C956 1.524 . S
C955 C959 1.400 . S
C956 H941 0.960 . S
C956 H942 0.960 . S
C956 H943 0.960 . S
C956 C955 1.524 . S
C957 C954 1.403 . S
C957 C958 1.392 . S
C957 C961 1.495 . S
C958 C957 1.392 . S
C958 C959 1.385 . S
C958 C960 1.478 . S
C959 H953 0.930 . S
C959 C955 1.400 . S
C959 C958 1.385 . S
C960 C958 1.478 . S
C960 C962 1.381 . S
C960 C966 1.383 . S
C961 C957 1.495 . S
C961 H967 0.958 . S
C961 H968 0.961 1_554 S
C961 H969 0.960 . S
C962 C960 1.381 . S
C962 C963 1.394 . S
C962 H970 0.930 . S
C963 C962 1.394 . S
C963 C964 1.383 . S
C963 H971 0.929 . S
C964 C963 1.383 . S
C964 C965 1.377 . S
C965 H949 0.930 . S
C965 C964 1.377 . S
C965 C966 1.379 . S
C966 H950 0.931 . S
C966 C960 1.383 . S
C966 C965 1.379 . S
H967 C961 0.958 . S
H968 C961 0.961 1_556 S
H969 C961 0.960 . S
H970 C962 0.930 . S
H971 C963 0.929 . S
H972 C980 0.929 . S
H973 C982 0.930 . S
H974 C984 0.930 . S
H975 C987 0.929 . S
H976 C990 0.930 . S
H977 C992 0.960 . S
H978 C992 0.960 . S
H979 C992 0.960 . S
C980 H972 0.929 . S
C980 C981 1.377 . S
C980 C982 1.384 . S
C981 C980 1.377 . S
C981 C987 1.390 . S
C982 H973 0.930 . S
C982 C980 1.384 . S
C982 C983 1.372 . S
C983 C982 1.372 . S
C983 C984 1.400 . S
C983 C988 1.490 . S
C984 H974 0.930 . S
C984 C983 1.400 . S
C984 C987 1.386 . S
H985 C1001 0.930 1_655 S
H986 C1002 0.931 . S
C987 H975 0.929 . S
C987 C981 1.390 . S
C987 C984 1.386 . S
C988 C983 1.490 . S
C988 C990 1.395 . S
C988 C991 1.403 . S
H989 C995 0.930 . S
C990 H976 0.930 . S
C990 C988 1.395 . S
C990 C993 1.403 . S
C991 C988 1.403 . S
C991 C992 1.524 . S
C991 C995 1.400 . S
C992 H977 0.960 . S
C992 H978 0.960 . S
C992 H979 0.960 . S
C992 C991 1.524 . S
C993 C990 1.403 . S
C993 C994 1.392 . S
C993 C997 1.495 . S
C994 C993 1.392 . S
C994 C995 1.385 . S
C994 C996 1.478 . S
C995 H989 0.930 . S
C995 C991 1.400 . S
C995 C994 1.385 . S
C996 C994 1.478 . S
C996 C998 1.381 . S
C996 C1002 1.383 . S
C997 C993 1.495 . S
C997 H1003 0.959 . S
C997 H1004 0.961 . S
C997 H1005 0.960 . S
C998 C996 1.381 . S
C998 C999 1.394 . S
C998 H1006 0.930 . S
C999 C998 1.394 . S
C999 C1000 1.383 . S
C999 H1007 0.929 . S
C1000 C999 1.383 . S
C1000 C1001 1.377 . S
C1001 H985 0.930 1_455 S
C1001 C1000 1.377 . S
C1001 C1002 1.379 . S
C1002 H986 0.931 . S
C1002 C996 1.383 . S
C1002 C1001 1.379 . S
H1003 C997 0.959 . S
H1004 C997 0.961 . S
H1005 C997 0.960 . S
H1006 C998 0.930 . S
H1007 C999 0.929 . S
H1008 C1016 0.929 . S
H1009 C1018 0.930 . S
H1010 C1020 0.930 . S
H1011 C1023 0.929 . S
H1012 C1026 0.930 . S
H1013 C1028 0.960 . S
H1014 C1028 0.960 . S
H1015 C1028 0.960 . S
C1016 H1008 0.929 . S
C1016 C1017 1.377 . S
C1016 C1018 1.384 . S
C1017 C1016 1.377 . S
C1017 C1023 1.390 . S
C1018 H1009 0.930 . S
C1018 C1016 1.384 . S
C1018 C1019 1.372 . S
C1019 C1018 1.372 . S
C1019 C1020 1.400 . S
C1019 C1024 1.490 . S
C1020 H1010 0.930 . S
C1020 C1019 1.400 . S
C1020 C1023 1.386 . S
H1021 C1037 0.930 . S
H1022 C1038 0.931 . S
C1023 H1011 0.929 . S
C1023 C1017 1.390 . S
C1023 C1020 1.386 . S
C1024 C1019 1.490 . S
C1024 C1026 1.395 . S
C1024 C1027 1.403 . S
H1025 C1031 0.930 . S
C1026 H1012 0.930 . S
C1026 C1024 1.395 . S
C1026 C1029 1.403 . S
C1027 C1024 1.403 . S
C1027 C1028 1.524 . S
C1027 C1031 1.400 . S
C1028 H1013 0.960 . S
C1028 H1014 0.960 . S
C1028 H1015 0.960 . S
C1028 C1027 1.524 . S
C1029 C1026 1.403 . S
C1029 C1030 1.392 . S
C1029 C1033 1.495 . S
C1030 C1029 1.392 . S
C1030 C1031 1.385 . S
C1030 C1032 1.478 . S
C1031 H1025 0.930 . S
C1031 C1027 1.400 . S
C1031 C1030 1.385 . S
C1032 C1030 1.478 . S
C1032 C1034 1.381 . S
C1032 C1038 1.383 . S
C1033 C1029 1.495 . S
C1033 H1039 0.959 . S
C1033 H1040 0.961 . S
C1033 H1041 0.960 . S
C1034 C1032 1.381 . S
C1034 C1035 1.394 . S
C1034 H1042 0.930 . S
C1035 C1034 1.394 . S
C1035 C1036 1.383 . S
C1035 H1043 0.929 . S
C1036 C1035 1.383 . S
C1036 C1037 1.377 . S
C1037 H1021 0.930 . S
C1037 C1036 1.377 . S
C1037 C1038 1.379 . S
C1038 H1022 0.931 . S
C1038 C1032 1.383 . S
C1038 C1037 1.379 . S
H1039 C1033 0.959 . S
H1040 C1033 0.961 . S
H1041 C1033 0.960 . S
H1042 C1034 0.930 . S
H1043 C1035 0.929 . S
C189 C6 1.760 . S
C208 C99 1.605 . S
C225 C18 1.847 . S
C244 C133 1.677 . S
C280 C145 1.412 . S
C261 C28 1.492 . S
C297 C40 0.902 . S
C316 C179 0.871 . S
C352 C136 1.706 . S
C333 C9 1.864 . S
C388 C116 1.439 . S
C369 C16 1.514 . S
C424 C163 1.436 . S
C405 C30 1.513 . S
C460 C154 1.077 . S
C441 C42 1.177 . S
C477 C4 1.524 . S
C496 C162 1.404 . S
C532 C124 1.430 . S
C513 C33 1.593 . S
C549 C45 1.235 . S
C568 C100 1.186 . S
C585 C21 1.812 . S
C604 C157 1.726 . S
C640 C115 1.672 . S
C621 C57 1.822 . S
C657 C66 1.927 . S
C676 C137 1.807 . S
C693 C76 1.683 . S
C712 C142 1.562 . S
C729 C88 1.007 . S
C748 C175 1.009 . S
C765 C54 1.900 . S
C784 C120 1.798 . S
C820 C112 1.588 . S
C801 C64 1.650 . S
C856 C166 1.342 . S
C837 C78 1.429 . S
C892 C158 1.177 . S
C873 C93 1.291 . S
C909 C52 1.459 . S
C928 C178 1.391 . S
C964 C121 1.554 . S
C945 C81 1.674 . S
C1000 C103 1.254 . S
C981 C90 1.371 . S
C1017 C69 1.858 . S
C1036 C141 1.724 . S
