# Generated by pormake.
# Topology zzz, (3,6)-cn, num edge types: 1
# Building blocks:
#     Node 0, Type 0, BuildingBlock: KAKCAD_clean_linker_0, # of connection points: 3
#     Node 1, Type 0, BuildingBlock: KAKCAD_clean_linker_0, # of connection points: 3
#     Node 2, Type 0, BuildingBlock: KAKCAD_clean_linker_0, # of connection points: 3
#     Node 3, Type 0, BuildingBlock: KAKCAD_clean_linker_0, # of connection points: 3
#     Node 4, Type 0, BuildingBlock: KAKCAD_clean_linker_0, # of connection points: 3
#     Node 5, Type 0, BuildingBlock: KAKCAD_clean_linker_0, # of connection points: 3
#     Node 6, Type 0, BuildingBlock: KAKCAD_clean_linker_0, # of connection points: 3
#     Node 7, Type 0, BuildingBlock: KAKCAD_clean_linker_0, # of connection points: 3
#     Node 8, Type 1, BuildingBlock: BETFAJ_clean_sbu_0, # of connection points: 6
#     Node 9, Type 1, BuildingBlock: BETFAJ_clean_sbu_0, # of connection points: 6
#     Node 10, Type 1, BuildingBlock: BETFAJ_clean_sbu_0, # of connection points: 6
#     Node 11, Type 1, BuildingBlock: BETFAJ_clean_sbu_0, # of connection points: 6
#     Edge 12, Type (0, 1), BuildingBlock: MIFKUJ_clean_linker_0, # of connection points: 2
#     Edge 13, Type (0, 1), BuildingBlock: MIFKUJ_clean_linker_0, # of connection points: 2
#     Edge 14, Type (0, 1), BuildingBlock: MIFKUJ_clean_linker_0, # of connection points: 2
#     Edge 15, Type (0, 1), BuildingBlock: MIFKUJ_clean_linker_0, # of connection points: 2
#     Edge 16, Type (0, 1), BuildingBlock: MIFKUJ_clean_linker_0, # of connection points: 2
#     Edge 17, Type (0, 1), BuildingBlock: MIFKUJ_clean_linker_0, # of connection points: 2
#     Edge 18, Type (0, 1), BuildingBlock: MIFKUJ_clean_linker_0, # of connection points: 2
#     Edge 19, Type (0, 1), BuildingBlock: MIFKUJ_clean_linker_0, # of connection points: 2
#     Edge 20, Type (0, 1), BuildingBlock: MIFKUJ_clean_linker_0, # of connection points: 2
#     Edge 21, Type (0, 1), BuildingBlock: MIFKUJ_clean_linker_0, # of connection points: 2
#     Edge 22, Type (0, 1), BuildingBlock: MIFKUJ_clean_linker_0, # of connection points: 2
#     Edge 23, Type (0, 1), BuildingBlock: MIFKUJ_clean_linker_0, # of connection points: 2
#     Edge 24, Type (0, 1), BuildingBlock: MIFKUJ_clean_linker_0, # of connection points: 2
#     Edge 25, Type (0, 1), BuildingBlock: MIFKUJ_clean_linker_0, # of connection points: 2
#     Edge 26, Type (0, 1), BuildingBlock: MIFKUJ_clean_linker_0, # of connection points: 2
#     Edge 27, Type (0, 1), BuildingBlock: MIFKUJ_clean_linker_0, # of connection points: 2
#     Edge 28, Type (0, 1), BuildingBlock: MIFKUJ_clean_linker_0, # of connection points: 2
#     Edge 29, Type (0, 1), BuildingBlock: MIFKUJ_clean_linker_0, # of connection points: 2
#     Edge 30, Type (0, 1), BuildingBlock: MIFKUJ_clean_linker_0, # of connection points: 2
#     Edge 31, Type (0, 1), BuildingBlock: MIFKUJ_clean_linker_0, # of connection points: 2
#     Edge 32, Type (0, 1), BuildingBlock: MIFKUJ_clean_linker_0, # of connection points: 2
#     Edge 33, Type (0, 1), BuildingBlock: MIFKUJ_clean_linker_0, # of connection points: 2
#     Edge 34, Type (0, 1), BuildingBlock: MIFKUJ_clean_linker_0, # of connection points: 2
#     Edge 35, Type (0, 1), BuildingBlock: MIFKUJ_clean_linker_0, # of connection points: 2
# Relax obj value: 0.412
# Max RMSD: 0.274
# Mean RMSD: 0.252
data_MOF--net-zzz--node1-BETFAJ_clean_sbu_0--node2-KAKCAD_clean_linker_0--edge1-MIFKUJ_clean_linker_0
_symmetry_space_group_name_H-M    P1
_symmetry_Int_Tables_number       1
_symmetry_cell_setting            triclinic
loop_
_symmetry_equiv_pos_as_xyz
'x, y, z'
_cell_length_a     75.432126
_cell_length_b     75.430662
_cell_length_c     22.715563
_cell_angle_alpha  89.861614
_cell_angle_beta   89.994766
_cell_angle_gamma 90.083243
loop_
_atom_site_label
_atom_site_type_symbol
_atom_site_fract_x
_atom_site_fract_y
_atom_site_fract_z
_atom_type_partial_charge
C0 C 0.7748 0.57526 0.12862 0.0
C1 C 0.77546 0.56848 0.07095 0.0
C2 C 0.76389 0.56738 0.17099 0.0
C3 C 0.75312 0.5529 0.15602 0.0
C4 C 0.75249 0.54723 0.09731 0.0
C5 C 0.76361 0.55485 0.05528 0.0
C6 C 0.74424 0.54224 0.20198 0.0
C7 C 0.72659 0.53705 0.19501 0.0
C8 C 0.71875 0.52472 0.23338 0.0
C9 C 0.72898 0.51725 0.27933 0.0
C10 C 0.74672 0.52283 0.2875 0.0
C11 C 0.75409 0.53539 0.24898 0.0
C12 C 0.75863 0.51522 0.3329 0.0
C13 C 0.76308 0.52533 0.38263 0.0
C14 C 0.769 0.50036 0.31908 0.0
C15 C 0.78413 0.49629 0.35232 0.0
C16 C 0.78923 0.507 0.40015 0.0
C17 C 0.70007 0.51972 0.22125 0.0
C18 C 0.6872 0.53316 0.21982 0.0
C19 C 0.69599 0.50315 0.19656 0.0
C20 C 0.67986 0.50058 0.16668 0.0
C21 C 0.6677 0.51462 0.16067 0.0
C22 C 0.67122 0.53065 0.18986 0.0
C23 C 0.77812 0.52118 0.41624 0.0
H24 H 0.78347 0.58598 0.14193 0.0
H25 H 0.7644 0.5721 0.21597 0.0
H26 H 0.74439 0.53598 0.08479 0.0
H27 H 0.76387 0.549 0.0118 0.0
H28 H 0.71902 0.54231 0.15829 0.0
H29 H 0.76791 0.53912 0.25379 0.0
H30 H 0.72324 0.50737 0.30828 0.0
H31 H 0.75558 0.53714 0.39315 0.0
H32 H 0.7661 0.49263 0.2801 0.0
H33 H 0.79226 0.48517 0.33906 0.0
H34 H 0.6901 0.54611 0.238 0.0
H35 H 0.70583 0.4927 0.19607 0.0
H36 H 0.7817 0.52981 0.45238 0.0
H37 H 0.66201 0.54162 0.18674 0.0
H38 H 0.67753 0.4881 0.14453 0.0
C39 C 0.02716 0.75645 0.99241 0.0
C40 C 0.04254 0.76692 0.99122 0.0
C41 C 0.02166 0.74845 0.04476 0.0
C42 C 0.03136 0.75097 0.09693 0.0
C43 C 0.04724 0.76068 0.09504 0.0
C44 C 0.05284 0.76852 0.04247 0.0
C45 C 0.02414 0.74452 0.15363 0.0
C46 C 0.01718 0.72742 0.15794 0.0
C47 C 0.0087 0.72164 0.20934 0.0
C48 C 0.00705 0.73329 0.25768 0.0
C49 C 0.01448 0.75052 0.25437 0.0
C50 C 0.02299 0.75588 0.20214 0.0
C51 C 0.01315 0.76372 0.30296 0.0
C52 C 0.9966 0.76939 0.3242 0.0
C53 C 0.02844 0.77294 0.32078 0.0
C54 C 0.02718 0.78816 0.35552 0.0
C55 C 0.01057 0.79466 0.37338 0.0
C56 C 1.00151 0.70338 0.20826 0.0
C57 C 0.98496 0.70047 0.18177 0.0
C58 C 0.01333 0.6891 0.21371 0.0
C59 C 0.00934 0.67264 0.18839 0.0
C60 C 0.99352 0.67022 0.15656 0.0
C61 C 0.98098 0.68404 0.15629 0.0
C62 C 0.99532 0.78472 0.35913 0.0
H63 H 0.01898 0.75513 0.95346 0.0
H64 H 0.00931 0.74111 0.04509 0.0
H65 H 0.055 0.76267 0.13459 0.0
H66 H 0.06462 0.77676 0.04282 0.0
H67 H 0.01818 0.71854 0.12055 0.0
H68 H 0.02807 0.76929 0.19832 0.0
H69 H 1.00027 0.72898 0.29726 0.0
H70 H 0.98458 0.76267 0.31064 0.0
H71 H 0.04139 0.76883 0.30533 0.0
H72 H 0.03924 0.79519 0.36676 0.0
H73 H 0.9758 0.71138 0.17575 0.0
H74 H 0.02637 0.69117 0.23245 0.0
H75 H 0.98231 0.78934 0.37202 0.0
H76 H 0.96854 0.68253 0.13299 0.0
H77 H 0.01936 0.66237 0.18927 0.0
C78 C 0.74058 0.9559 0.05281 0.0
C79 C 0.72674 0.96702 0.03398 0.0
C80 C 0.75189 0.9613 0.09825 0.0
C81 C 0.74923 0.97768 0.12605 0.0
C82 C 0.73584 0.98901 0.10586 0.0
C83 C 0.72477 0.98378 0.0601 0.0
C84 C 0.75959 0.98274 0.17834 0.0
C85 C 0.778 0.98434 0.17535 0.0
C86 C 0.78773 0.99058 0.2238 0.0
C87 C 0.77877 0.99484 0.27667 0.0
C88 C 0.7602 0.9926 0.2803 0.0
C89 C 0.75082 0.98678 0.23078 0.0
C90 C 0.74974 0.99584 0.33444 0.0
C91 C 0.74461 0.98131 0.36921 0.0
C92 C 0.74075 0.012 0.34124 0.0
C93 C 0.72619 0.01329 0.37946 0.0
C94 C 0.72017 0.99835 0.41101 0.0
C95 C 0.80704 0.99333 0.21525 0.0
C96 C 0.81762 0.97896 0.19776 0.0
C97 C 0.81391 0.01057 0.21029 0.0
C98 C 0.8305 0.01345 0.18388 0.0
C99 C 0.84053 0.99913 0.16217 0.0
C100 C 0.83421 0.98181 0.17182 0.0
C101 C 0.73001 0.98255 0.40716 0.0
H102 H 0.74231 0.9429 0.03351 0.0
H103 H 0.7622 0.95239 0.11339 0.0
H104 H 0.73366 1.00174 0.1266 0.0
H105 H 0.71404 0.99251 0.04736 0.0
H106 H 0.7847 0.98142 0.13423 0.0
H107 H 0.73652 0.98531 0.23318 0.0
H108 H 0.78613 0.99965 0.31435 0.0
H109 H 0.75104 0.96859 0.36366 0.0
H110 H 0.74412 0.02324 0.31359 0.0
H111 H 0.71887 0.02562 0.38086 0.0
H112 H 0.81248 0.96556 0.20031 0.0
H113 H 0.8059 0.02187 0.22257 0.0
H114 H 0.7259 0.97085 0.43132 0.0
H115 H 0.84143 0.97046 0.15533 0.0
H116 H 0.83507 0.02695 0.17786 0.0
C117 C 0.49324 0.73063 0.36246 0.0
C118 C 0.50919 0.72301 0.38225 0.0
C119 C 0.49338 0.74589 0.32735 0.0
C120 C 0.50944 0.75406 0.31141 0.0
C121 C 0.52532 0.74733 0.33476 0.0
C122 C 0.5252 0.73195 0.36991 0.0
C123 C 0.5097 0.7666 0.26075 0.0
C124 C 0.51639 0.78412 0.26436 0.0
C125 C 0.51675 0.79494 0.2134 0.0
C126 C 0.51066 0.78812 0.15974 0.0
C127 C 0.5039 0.77095 0.15602 0.0
C128 C 0.50336 0.76032 0.20652 0.0
C129 C 0.49773 0.76397 0.09892 0.0
C130 C 0.48116 0.75562 0.0945 0.0
C131 C 0.5087 0.76506 0.04903 0.0
C132 C 0.50356 0.75706 0.99636 0.0
C133 C 0.48726 0.74814 0.9926 0.0
C134 C 0.52241 0.81377 0.21317 0.0
C135 C 0.51066 0.82681 0.23341 0.0
C136 C 0.53648 0.81888 0.17627 0.0
C137 C 0.53773 0.83628 0.15518 0.0
C138 C 0.52489 0.84899 0.17042 0.0
C139 C 0.51191 0.84427 0.21236 0.0
C140 C 0.47591 0.74786 0.04162 0.0
H141 H 0.48064 0.72438 0.37211 0.0
H142 H 0.48096 0.75075 0.30968 0.0
H143 H 0.5379 0.75318 0.3223 0.0
H144 H 0.53774 0.72646 0.38417 0.0
H145 H 0.52113 0.78924 0.30599 0.0
H146 H 0.49844 0.74683 0.2032 0.0
H147 H 0.51076 0.79643 0.12068 0.0
H148 H 0.47244 0.75478 0.13232 0.0
H149 H 0.52156 0.77141 0.05154 0.0
H150 H 0.51255 0.7573 0.95919 0.0
H151 H 0.49952 0.82315 0.26102 0.0
H152 H 0.5455 0.80898 0.15913 0.0
H153 H 0.4634 0.74079 0.04004 0.0
H154 H 0.50201 0.85378 0.22609 0.0
H155 H 0.54785 0.83927 0.12284 0.0
C156 C 0.25096 0.47291 0.30598 0.0
C157 C 0.24023 0.45764 0.30726 0.0
C158 C 0.26064 0.47726 0.25567 0.0
C159 C 0.25959 0.46658 0.20534 0.0
C160 C 0.24982 0.45077 0.20753 0.0
C161 C 0.24039 0.44621 0.25831 0.0
C162 C 0.26732 0.47292 0.14941 0.0
C163 C 0.28489 0.47863 0.14731 0.0
C164 C 0.29188 0.48642 0.09626 0.0
C165 C 0.28085 0.48886 0.04651 0.0
C166 C 0.26309 0.48272 0.04779 0.0
C167 C 0.25661 0.47472 0.0995 0.0
C168 C 0.25051 0.48492 0.9976 0.0
C169 C 0.24674 0.50174 0.97403 0.0
C170 C 0.23993 0.47048 0.98019 0.0
C171 C 0.22525 0.47293 0.9435 0.0
C172 C 0.22067 0.48992 0.92277 0.0
C173 C 0.31075 0.49189 0.09857 0.0
C174 C 0.31517 0.50944 0.11279 0.0
C175 C 0.32379 0.47872 0.10394 0.0
C176 C 0.34048 0.48272 0.1273 0.0
C177 C 0.34454 0.50002 0.1462 0.0
C178 C 0.33193 0.51349 0.13616 0.0
C179 C 0.23197 0.50422 0.93708 0.0
H180 H 0.25096 0.48224 0.34216 0.0
H181 H 0.26801 0.4896 0.2548 0.0
H182 H 0.24903 0.44224 0.16931 0.0
H183 H 0.23256 0.43417 0.25816 0.0
H184 H 0.29318 0.47719 0.18608 0.0
H185 H 0.24284 0.47063 0.10192 0.0
H186 H 0.28608 0.49514 0.00722 0.0
H187 H 0.25455 0.51314 0.98696 0.0
H188 H 0.24248 0.45735 0.99765 0.0
H189 H 0.21691 0.46157 0.93433 0.0
H190 H 0.30523 0.51977 0.11027 0.0
H191 H 0.32054 0.46501 0.09464 0.0
H192 H 0.22911 0.51745 0.92121 0.0
H193 H 0.33465 0.52702 0.14915 0.0
H194 H 0.34966 0.47192 0.13472 0.0
C195 C 0.96844 0.23759 0.2984 0.0
C196 C 0.97892 0.23738 0.34956 0.0
C197 C 0.97493 0.24507 0.24636 0.0
C198 C 0.99189 0.2527 0.24489 0.0
C199 C 1.00219 0.25291 0.29643 0.0
C200 C 0.99583 0.24515 0.34821 0.0
C201 C 0.99887 0.26048 0.18975 0.0
C202 C 0.00568 0.27769 0.18987 0.0
C203 C 0.01263 0.2853 0.13852 0.0
C204 C 0.01321 0.27527 0.08614 0.0
C205 C 0.0063 0.25782 0.08547 0.0
C206 C 0.99897 0.2507 0.13737 0.0
C207 C 0.00704 0.24632 0.03237 0.0
C208 C 0.99148 0.23828 0.01118 0.0
C209 C 0.02342 0.24106 0.00874 0.0
C210 C 0.02426 0.22729 0.9673 0.0
C211 C 0.00872 0.21869 0.94802 0.0
C212 C 0.01867 0.30393 0.14264 0.0
C213 C 0.00616 0.31759 0.13679 0.0
C214 C 0.03492 0.30763 0.1701 0.0
C215 C 0.03803 0.32425 0.19546 0.0
C216 C 0.02485 0.33747 0.19453 0.0
C217 C 0.00924 0.33422 0.16228 0.0
C218 C 0.99229 0.22475 0.96915 0.0
H219 H 0.95546 0.23142 0.29812 0.0
H220 H 0.96671 0.24487 0.20724 0.0
H221 H 0.01535 0.2587 0.29622 0.0
H222 H 0.00418 0.24503 0.38702 0.0
H223 H 0.00532 0.28539 0.23018 0.0
H224 H 0.99389 0.23724 0.13751 0.0
H225 H 0.01878 0.28101 0.04646 0.0
H226 H 0.9787 0.24198 0.02905 0.0
H227 H 0.03562 0.24688 0.02483 0.0
H228 H 0.03711 0.22303 0.95157 0.0
H229 H 0.99334 0.3149 0.11723 0.0
H230 H 0.0446 0.29719 0.17627 0.0
H231 H 0.98008 0.21835 0.95569 0.0
H232 H 0.99872 0.34398 0.16092 0.0
H233 H 0.05033 0.32637 0.21899 0.0
C234 C 0.26515 0.97707 0.28545 0.0
C235 C 0.28165 0.98467 0.29888 0.0
C236 C 0.25428 0.98477 0.24259 0.0
C237 C 0.25974 1.00021 0.21278 0.0
C238 C 0.27569 0.00842 0.22936 0.0
C239 C 0.28655 1.0007 0.27187 0.0
C240 C 0.24961 0.00701 0.16156 0.0
C241 C 0.23109 0.00784 0.16278 0.0
C242 C 0.2215 0.01378 0.11359 0.0
C243 C 0.23064 0.01892 0.06198 0.0
C244 C 0.24933 0.01799 0.0604 0.0
C245 C 0.25857 0.01211 0.11022 0.0
C246 C 0.26002 0.02259 0.00778 0.0
C247 C 0.2641 0.0094 0.96644 0.0
C248 C 0.27001 0.03829 0.0079 0.0
C249 C 0.28453 0.04032 0.97004 0.0
C250 C 0.28953 0.02658 0.9316 0.0
C251 C 0.20195 0.01421 0.11875 0.0
C252 C 0.19263 0.99815 0.12318 0.0
C253 C 0.19331 0.03004 0.13383 0.0
C254 C 0.17603 0.02965 0.1568 0.0
C255 C 0.16717 0.0134 0.16543 0.0
C256 C 0.17541 0.99775 0.14593 0.0
C257 C 0.27867 0.01139 0.9285 0.0
H258 H 0.26114 0.96465 0.30551 0.0
H259 H 0.24208 0.97811 0.23059 0.0
H260 H 0.28005 0.02055 0.20815 0.0
H261 H 0.29911 0.00695 0.28221 0.0
H262 H 0.22404 0.00401 0.20247 0.0
H263 H 0.27291 0.01109 0.10828 0.0
H264 H 0.22335 0.02341 0.02368 0.0
H265 H 0.25689 0.99696 0.96666 0.0
H266 H 0.26735 0.04849 0.04023 0.0
H267 H 0.29237 0.05232 0.97296 0.0
H268 H 0.19914 0.98575 0.11265 0.0
H269 H 0.20039 0.04253 0.13206 0.0
H270 H 0.28215 1.00049 0.89987 0.0
H271 H 0.16887 0.98504 0.15093 0.0
H272 H 0.17015 0.04194 0.17166 0.0
C273 C 0.48484 0.2806 0.91935 0.0
C274 C 0.49807 0.29379 0.92377 0.0
C275 C 0.48415 0.26643 0.95973 0.0
C276 C 0.49659 0.26524 0.00561 0.0
C277 C 0.51024 0.27792 0.00827 0.0
C278 C 0.51098 0.29195 0.9681 0.0
C279 C 0.49427 0.25255 0.05547 0.0
C280 C 0.49289 0.234 0.04739 0.0
C281 C 0.49158 0.2227 0.09689 0.0
C282 C 0.4917 0.22995 0.1536 0.0
C283 C 0.49313 0.24822 0.16232 0.0
C284 C 0.49413 0.25941 0.11301 0.0
C285 C 0.49482 0.25541 0.22293 0.0
C286 C 0.48501 0.24818 0.27001 0.0
C287 C 0.50685 0.26917 0.23447 0.0
C288 C 0.50891 0.27569 0.29135 0.0
C289 C 0.49921 0.26846 0.33861 0.0
C290 C 0.49159 0.20312 0.09334 0.0
C291 C 0.47615 0.19384 0.10928 0.0
C292 C 0.5079 0.19421 0.09479 0.0
C293 C 0.50898 0.17694 0.11737 0.0
C294 C 0.49375 0.16825 0.13879 0.0
C295 C 0.47719 0.17652 0.13143 0.0
C296 C 0.48721 0.25461 0.32727 0.0
H297 H 0.47479 0.28143 0.8854 0.0
H298 H 0.47342 0.25692 0.95682 0.0
H299 H 0.52004 0.27735 0.04312 0.0
H300 H 0.52125 0.30185 0.97374 0.0
H301 H 0.49328 0.22843 0.00349 0.0
H302 H 0.49489 0.27363 0.11936 0.0
H303 H 0.49148 0.2211 0.19133 0.0
H304 H 0.47551 0.23765 0.26257 0.0
H305 H 0.51484 0.27487 0.19961 0.0
H306 H 0.51791 0.28671 0.29786 0.0
H307 H 0.46348 0.2006 0.11005 0.0
H308 H 0.52004 0.20121 0.08412 0.0
H309 H 0.4795 0.24876 0.36254 0.0
H310 H 0.46522 0.17029 0.14781 0.0
H311 H 0.52191 0.17085 0.12178 0.0
Sm312 Sm 0.0125 1.00196 0.70891 0.0
Sm313 Sm 0.9887 0.01485 0.59247 0.0
C314 C 0.0224 0.98685 0.80763 0.0
C315 C 0.02957 0.96882 0.81497 0.0
C316 C 0.02135 0.95453 0.78616 0.0
C317 C 0.02937 0.93795 0.7848 0.0
C318 C 0.04563 0.93521 0.81299 0.0
C319 C 0.0536 0.94922 0.84396 0.0
C320 C 0.0457 0.96602 0.84439 0.0
C321 C 0.03276 0.00498 0.60699 0.0
C322 C 0.99843 0.97242 0.61051 0.0
C323 C 0.97777 0.02874 0.49303 0.0
C324 C 0.96608 0.04407 0.48407 0.0
C325 C 0.97112 0.05737 0.44438 0.0
C326 C 0.96297 0.07397 0.44635 0.0
C327 C 0.94964 0.07751 0.48813 0.0
C328 C 0.94375 0.06371 0.52486 0.0
C329 C 0.95194 0.04715 0.52301 0.0
C330 C 0.9682 0.01141 0.69372 0.0
C331 C 0.00437 0.0446 0.6884 0.0
O332 O 0.00576 0.98775 0.79114 0.0
O333 O 0.03268 0.99799 0.77914 0.0
O334 O 0.01657 0.00816 0.61412 0.0
O335 O 0.03925 0.99998 0.6573 0.0
O336 O 0.00411 0.97565 0.6648 0.0
O337 O 0.99335 0.98512 0.57355 0.0
O338 O 0.99314 0.03275 0.51663 0.0
O339 O 0.97044 0.01449 0.51595 0.0
O340 O 0.98445 0.0084 0.68706 0.0
O341 O 0.96184 0.01647 0.64334 0.0
O342 O 0.99748 0.04122 0.6357 0.0
O343 O 0.00991 0.03204 0.72522 0.0
H344 H 0.00885 0.9562 0.76347 0.0
H345 H 0.02277 0.92719 0.76202 0.0
H346 H 0.06607 0.94724 0.86669 0.0
H347 H 0.05232 0.97687 0.8665 0.0
H348 H 0.98216 0.05534 0.41467 0.0
H349 H 0.968 0.08435 0.41787 0.0
H350 H 0.93335 0.06595 0.55689 0.0
H351 H 0.94788 0.03714 0.5545 0.0
Sm352 Sm 0.51049 0.02662 0.71933 0.0
Sm353 Sm 0.49847 0.9997 0.62535 0.0
C354 C 0.52201 0.03826 0.82131 0.0
C355 C 0.53478 0.02951 0.8609 0.0
C356 C 0.53157 0.0121 0.88036 0.0
C357 C 0.54547 1.00169 0.90088 0.0
C358 C 0.56271 0.0085 0.90367 0.0
C359 C 0.56562 0.02645 0.88999 0.0
C360 C 0.55173 0.03688 0.86859 0.0
C361 C 0.50315 0.04552 0.6176 0.0
C362 C 0.54086 0.00963 0.634 0.0
C363 C 0.48915 0.9784 0.5388 0.0
C364 C 0.47309 0.9676 0.53317 0.0
C365 C 0.45962 0.96938 0.57523 0.0
C366 C 0.44365 0.96033 0.56865 0.0
C367 C 0.44087 0.94917 0.52 0.0
C368 C 0.45478 0.94678 0.47931 0.0
C369 C 0.47078 0.956 0.4858 0.0
C370 C 0.50125 0.98656 0.7386 0.0
C371 C 0.46775 0.01918 0.70022 0.0
O372 O 0.50656 0.03043 0.81524 0.0
O373 O 0.52872 0.04359 0.77109 0.0
O374 O 0.50176 0.02902 0.62463 0.0
O375 O 0.50829 0.0528 0.66637 0.0
O376 O 0.53759 0.01742 0.68483 0.0
O377 O 0.52799 1.00323 0.60067 0.0
O378 O 0.48647 0.99555 0.53738 0.0
O379 O 0.49994 0.97355 0.58094 0.0
O380 O 0.5123 0.99669 0.71366 0.0
O381 O 0.48805 0.98328 0.70377 0.0
O382 O 0.47154 0.01176 0.64919 0.0
O383 O 0.48036 0.02406 0.73735 0.0
H384 H 0.51864 0.00602 0.87573 0.0
H385 H 0.5429 0.98801 0.91214 0.0
H386 H 0.57884 0.03205 0.89166 0.0
H387 H 0.55455 0.05026 0.85378 0.0
H388 H 0.46124 0.97824 0.6123 0.0
H389 H 0.4332 0.9628 0.60025 0.0
H390 H 0.45314 0.93813 0.44173 0.0
H391 H 0.48116 0.95438 0.45327 0.0
Sm392 Sm 0.49601 0.51278 0.70211 0.0
Sm393 Sm 0.52031 0.50143 0.59523 0.0
C394 C 0.48678 0.52799 0.80118 0.0
C395 C 0.48074 0.54637 0.80982 0.0
C396 C 0.49034 0.56042 0.78437 0.0
C397 C 0.48356 0.57754 0.78449 0.0
C398 C 0.46716 0.58105 0.81075 0.0
C399 C 0.4578 0.56726 0.83852 0.0
C400 C 0.46448 0.54994 0.8375 0.0
C401 C 0.4756 0.511 0.60075 0.0
C402 C 0.51144 0.54308 0.60721 0.0
C403 C 0.53405 0.48398 0.50625 0.0
C404 C 0.53321 0.46465 0.49582 0.0
C405 C 0.51801 0.45708 0.47027 0.0
C406 C 0.51486 0.43892 0.4751 0.0
C407 C 0.52688 0.42796 0.50517 0.0
C408 C 0.54285 0.43523 0.52584 0.0
C409 C 0.54602 0.4534 0.521 0.0
C410 C 0.53748 0.51033 0.69769 0.0
C411 C 0.50155 0.47051 0.68238 0.0
O412 O 0.50338 0.52622 0.78494 0.0
O413 O 0.4759 0.5177 0.77185 0.0
O414 O 0.49189 0.50786 0.60605 0.0
O415 O 0.4692 0.51515 0.65193 0.0
O416 O 0.50576 0.53936 0.66115 0.0
O417 O 0.51627 0.53054 0.56992 0.0
O418 O 0.51899 0.49254 0.50227 0.0
O419 O 0.54345 0.48893 0.55181 0.0
O420 O 0.52347 0.50123 0.69374 0.0
O421 O 0.54311 0.51503 0.64576 0.0
O422 O 0.50995 0.47455 0.63271 0.0
O423 O 0.49559 0.48281 0.71877 0.0
H424 H 0.50297 0.5582 0.76306 0.0
H425 H 0.4912 0.5881 0.76426 0.0
H426 H 0.44522 0.56984 0.85982 0.0
H427 H 0.45682 0.5393 0.85713 0.0
H428 H 0.50799 0.46531 0.44979 0.0
H429 H 0.50266 0.43356 0.45729 0.0
H430 H 0.55239 0.42708 0.54904 0.0
H431 H 0.55796 0.45878 0.54062 0.0
Sm432 Sm 0.99781 0.49123 0.73583 0.0
Sm433 Sm 0.00889 0.51497 0.6165 0.0
C434 C 0.98282 0.48342 0.83679 0.0
C435 C 0.96575 0.4898 0.86061 0.0
C436 C 0.96452 0.50667 0.88646 0.0
C437 C 0.94798 0.51435 0.8965 0.0
C438 C 0.93238 0.50529 0.88108 0.0
C439 C 0.93356 0.48796 0.85911 0.0
C440 C 0.95009 0.48024 0.84938 0.0
C441 C 0.00872 0.47029 0.64242 0.0
C442 C 0.96746 0.5037 0.63471 0.0
C443 C 0.02502 0.52317 0.51817 0.0
C444 C 0.0428 0.51713 0.50154 0.0
C445 C 0.04848 0.50027 0.51982 0.0
C446 C 0.06639 0.49591 0.51877 0.0
C447 C 0.07902 0.50837 0.49987 0.0
C448 C 0.07325 0.52494 0.47873 0.0
C449 C 0.05524 0.52931 0.47977 0.0
C450 C 0.99806 0.53602 0.71011 0.0
C451 C 0.03958 0.50075 0.71448 0.0
O452 O 0.99563 0.49518 0.83232 0.0
O453 O 0.98157 0.47314 0.79042 0.0
O454 O 0.00709 0.48683 0.64479 0.0
O455 O 0.00477 0.46378 0.69393 0.0
O456 O 0.97119 0.49861 0.68958 0.0
O457 O 0.97971 0.50897 0.59645 0.0
O458 O 0.01258 0.51097 0.52044 0.0
O459 O 0.02499 0.53374 0.56387 0.0
O460 O 0.9997 0.51945 0.70791 0.0
O461 O 1.00169 0.54239 0.65819 0.0
O462 O 0.03551 0.50708 0.66141 0.0
O463 O 0.02751 0.49532 0.75308 0.0
H464 H 0.9763 0.51436 0.89608 0.0
H465 H 0.94745 0.52774 0.91351 0.0
H466 H 0.92171 0.48057 0.84799 0.0
H467 H 0.95058 0.46713 0.83009 0.0
H468 H 0.03922 0.49076 0.53813 0.0
H469 H 0.0704 0.48291 0.53413 0.0
H470 H 0.08271 0.53481 0.46401 0.0
H471 H 0.05116 0.54252 0.46682 0.0
H472 H 0.13803 0.03546 0.16027 0.0
H473 H 0.11146 0.03454 0.2226 0.0
H474 H 0.13222 0.98871 0.31315 0.0
H475 H 0.1585 0.98945 0.25099 0.0
H476 H 0.09838 0.98412 0.2957 0.0
H477 H 0.13459 0.03214 0.36985 0.0
H478 H 0.15087 0.06045 0.36303 0.0
H479 H 0.10293 0.08727 0.31358 0.0
H480 H 0.0864 0.05905 0.31941 0.0
H481 H 0.0624 0.98646 0.58222 0.0
H482 H 0.08089 0.9881 0.4941 0.0
H483 H 0.04534 0.02669 0.41874 0.0
H484 H 0.02653 0.02484 0.50724 0.0
H485 H 0.08216 0.03648 0.41578 0.0
H486 H 0.04534 0.98824 0.35903 0.0
H487 H 0.02977 0.95962 0.36837 0.0
H488 H 0.07954 0.93279 0.38886 0.0
H489 H 0.09544 0.96129 0.38072 0.0
C490 C 0.13687 0.02516 0.19334 0.0
C491 C 0.1504 0.01249 0.20032 0.0
C492 C 0.12169 0.02466 0.22906 0.0
C493 C 0.11984 0.01164 0.27318 0.0
C494 C 0.1332 0.99882 0.27934 0.0
C495 C 0.14825 0.99923 0.24349 0.0
C496 C 0.10438 0.01146 0.31432 0.0
C497 C 0.09492 0.99556 0.32212 0.0
C498 C 0.09941 0.02651 0.34776 0.0
C499 C 0.10932 0.04346 0.34434 0.0
C500 C 0.12755 0.04405 0.35708 0.0
C501 C 0.13682 0.06008 0.35347 0.0
C502 C 0.12795 0.07564 0.33768 0.0
C503 C 0.10979 0.0752 0.32566 0.0
C504 C 0.10047 0.0592 0.32913 0.0
C505 C 0.0584 0.99517 0.54663 0.0
C506 C 0.04297 0.00548 0.55139 0.0
C507 C 0.06896 0.99604 0.4962 0.0
C508 C 0.06447 0.00744 0.44964 0.0
C509 C 0.049 0.01774 0.45405 0.0
C510 C 0.03821 0.01661 0.50434 0.0
C511 C 0.07657 0.00902 0.39813 0.0
C512 C 0.08542 0.02515 0.38854 0.0
C513 C 0.08111 0.99413 0.36349 0.0
C514 C 0.07159 0.97696 0.36951 0.0
C515 C 0.05298 0.97627 0.36611 0.0
C516 C 0.04409 0.96006 0.37104 0.0
C517 C 0.05367 0.9444 0.37893 0.0
C518 C 0.07215 0.94493 0.38243 0.0
C519 C 0.0811 0.96112 0.37768 0.0
H520 H 0.04677 0.93185 0.38238 0.0
H521 H 0.13515 0.08804 0.33492 0.0
H522 H 0.47323 0.13796 0.13778 0.0
H523 H 0.47425 0.11313 0.20765 0.0
H524 H 0.51823 0.1379 0.29707 0.0
H525 H 0.51757 0.1623 0.22673 0.0
H526 H 0.5239 0.10458 0.29638 0.0
H527 H 0.4731 0.14048 0.34502 0.0
H528 H 0.44451 0.1553 0.32644 0.0
H529 H 0.42032 0.10506 0.28831 0.0
H530 H 0.44885 0.08995 0.30597 0.0
H531 H 0.5142 0.07892 0.59412 0.0
H532 H 0.51189 0.0954 0.50177 0.0
H533 H 0.48474 0.05128 0.42186 0.0
H534 H 0.48745 0.03436 0.51456 0.0
H535 H 0.46934 0.08953 0.40794 0.0
H536 H 0.52134 0.05397 0.37563 0.0
H537 H 0.55015 0.0411 0.40384 0.0
H538 H 0.57235 0.09329 0.42041 0.0
H539 H 0.54357 0.10649 0.39327 0.0
C540 C 0.48324 0.13796 0.17196 0.0
C541 C 0.49536 0.1521 0.17645 0.0
C542 C 0.48376 0.12381 0.21214 0.0
C543 C 0.49614 0.12369 0.25854 0.0
C544 C 0.50857 0.13754 0.26178 0.0
C545 C 0.50822 0.15151 0.22125 0.0
C546 C 0.4959 0.10966 0.30522 0.0
C547 C 0.51193 0.10135 0.32063 0.0
C548 C 0.48028 0.10507 0.33667 0.0
C549 C 0.46314 0.11412 0.32606 0.0
C550 C 0.46171 0.13261 0.33223 0.0
C551 C 0.44552 0.14106 0.32194 0.0
C552 C 0.43063 0.13114 0.30601 0.0
C553 C 0.43188 0.11273 0.30051 0.0
C554 C 0.44806 0.10422 0.31066 0.0
C555 C 0.5077 0.07269 0.557 0.0
C556 C 0.50102 0.05534 0.56151 0.0
C557 C 0.50642 0.08213 0.50423 0.0
C558 C 0.4982 0.07455 0.45499 0.0
C559 C 0.49115 0.05734 0.45945 0.0
C560 C 0.49273 0.0477 0.51222 0.0
C561 C 0.49732 0.08484 0.39918 0.0
C562 C 0.48115 0.0925 0.3825 0.0
C563 C 0.51285 0.0891 0.36728 0.0
C564 C 0.53025 0.08121 0.38283 0.0
C565 C 0.53232 0.0627 0.38575 0.0
C566 C 0.54865 0.05535 0.40147 0.0
C567 C 0.56306 0.06637 0.41401 0.0
C568 C 0.56118 0.08477 0.4107 0.0
C569 C 0.54486 0.0922 0.39508 0.0
H570 H 0.5757 0.06065 0.4262 0.0
H571 H 0.4181 0.1377 0.29808 0.0
H572 H 0.378 0.48577 0.13266 0.0
H573 H 0.40332 0.48849 0.19946 0.0
H574 H 0.37352 0.52449 0.3082 0.0
H575 H 0.34811 0.52165 0.24253 0.0
H576 H 0.40772 0.53536 0.29682 0.0
H577 H 0.37711 0.48078 0.34388 0.0
H578 H 0.36462 0.4513 0.3219 0.0
H579 H 0.41614 0.43273 0.27072 0.0
H580 H 0.42889 0.4622 0.29163 0.0
H581 H 0.44415 0.5272 0.5818 0.0
H582 H 0.42577 0.52663 0.4933 0.0
H583 H 0.46441 0.49364 0.40676 0.0
H584 H 0.48311 0.49441 0.4957 0.0
H585 H 0.42942 0.48095 0.39639 0.0
H586 H 0.46079 0.53428 0.36106 0.0
H587 H 0.47344 0.56392 0.3792 0.0
H588 H 0.42124 0.58496 0.40639 0.0
H589 H 0.40826 0.55537 0.38943 0.0
C590 C 0.37682 0.49432 0.17066 0.0
C591 C 0.36087 0.50342 0.18205 0.0
C592 C 0.39135 0.49588 0.20884 0.0
C593 C 0.39029 0.50652 0.25942 0.0
C594 C 0.37471 0.51622 0.26949 0.0
C595 C 0.36017 0.51464 0.2315 0.0
C596 C 0.40501 0.50703 0.30338 0.0
C597 C 0.41237 0.52348 0.31891 0.0
C598 C 0.41154 0.49147 0.33097 0.0
C599 C 0.40391 0.47375 0.31863 0.0
C600 C 0.38574 0.47045 0.32748 0.0
C601 C 0.37862 0.45374 0.31529 0.0
C602 C 0.38957 0.44016 0.29474 0.0
C603 C 0.40767 0.44326 0.28651 0.0
C604 C 0.41485 0.45997 0.29854 0.0
C605 C 0.44882 0.51992 0.54379 0.0
C606 C 0.4651 0.51088 0.54559 0.0
C607 C 0.43833 0.51968 0.49309 0.0
C608 C 0.44374 0.51022 0.4431 0.0
C609 C 0.46001 0.50111 0.44469 0.0
C610 C 0.47071 0.50161 0.49535 0.0
C611 C 0.43186 0.50934 0.3907 0.0
C612 C 0.42497 0.49282 0.37376 0.0
C613 C 0.42579 0.52484 0.36177 0.0
C614 C 0.43355 0.54255 0.37427 0.0
C615 C 0.45201 0.54517 0.3716 0.0
C616 C 0.45924 0.56198 0.38144 0.0
C617 C 0.44814 0.57632 0.39356 0.0
C618 C 0.42981 0.57384 0.39665 0.0
C619 C 0.42251 0.55705 0.38694 0.0
H620 H 0.45375 0.58935 0.40067 0.0
H621 H 0.38404 0.42723 0.28535 0.0
H622 H 0.01468 0.37201 0.17165 0.0
H623 H 0.01384 0.39687 0.24114 0.0
H624 H 0.03703 0.36368 0.37525 0.0
H625 H 0.03759 0.33884 0.30699 0.0
H626 H 0.00729 0.38015 0.41376 0.0
H627 H 0.06079 0.39673 0.31044 0.0
H628 H 0.07857 0.40441 0.22291 0.0
H629 H 0.04436 0.4486 0.18733 0.0
H630 H 0.02622 0.44103 0.27426 0.0
H631 H 0.02441 0.43812 0.64385 0.0
H632 H 0.02926 0.41807 0.56116 0.0
H633 H 0.00816 0.45732 0.44191 0.0
H634 H 0.0036 0.47762 0.52513 0.0
H635 H 0.0352 0.43934 0.39031 0.0
H636 H 0.98201 0.42379 0.49157 0.0
H637 H 0.96327 0.41652 0.57725 0.0
H638 H 0.99518 0.37066 0.61312 0.0
H639 H 0.01428 0.3778 0.52811 0.0
C640 C 0.01976 0.37006 0.21578 0.0
C641 C 0.02627 0.35338 0.23346 0.0
C642 C 0.01937 0.38433 0.25538 0.0
C643 C 0.02542 0.38218 0.3135 0.0
C644 C 0.03231 0.36569 0.33068 0.0
C645 C 0.03279 0.35151 0.29123 0.0
C646 C 0.02353 0.39659 0.35796 0.0
C647 C 0.01359 0.39301 0.40886 0.0
C648 C 0.03113 0.41364 0.35068 0.0
C649 C 0.04203 0.41819 0.29847 0.0
C650 C 0.05696 0.40798 0.28365 0.0
C651 C 0.06713 0.41234 0.23421 0.0
C652 C 0.06257 0.42695 0.19948 0.0
C653 C 0.04786 0.43727 0.21421 0.0
C654 C 0.03764 0.43296 0.26358 0.0
C655 C 0.02108 0.44259 0.59986 0.0
C656 C 0.01371 0.45946 0.59081 0.0
C657 C 0.02378 0.43109 0.5526 0.0
C658 C 0.01874 0.436 0.49528 0.0
C659 C 0.01214 0.4532 0.48566 0.0
C660 C 0.00962 0.46484 0.53313 0.0
C661 C 0.01936 0.42268 0.44676 0.0
C662 C 0.02889 0.42649 0.39507 0.0
C663 C 0.0112 0.40584 0.4528 0.0
C664 C 0.99966 0.40142 0.50374 0.0
C665 C 0.9851 0.41222 0.51796 0.0
C666 C 0.9744 0.40812 0.56638 0.0
C667 C 0.97805 0.39316 0.60068 0.0
C668 C 0.99238 0.38225 0.58653 0.0
C669 C 1.00314 0.38631 0.5382 0.0
H670 H 0.96975 0.39001 0.63815 0.0
H671 H 0.07046 0.43031 0.16123 0.0
H672 H 0.87211 0.98077 0.15986 0.0
H673 H 0.89596 0.98333 0.08701 0.0
H674 H 0.86836 0.02661 0.0034 0.0
H675 H 0.84439 0.02393 0.0751 0.0
H676 H 0.87789 1.00142 0.92488 0.0
H677 H 0.9062 0.03366 0.08171 0.0
H678 H 0.91761 0.03795 0.18241 0.0
H679 H 0.95273 0.99369 0.16072 0.0
H680 H 0.94135 0.98898 0.06011 0.0
H681 H 0.93974 0.03149 0.71956 0.0
H682 H 0.92049 0.02979 0.80572 0.0
H683 H 0.95308 0.9881 0.87783 0.0
H684 H 0.97256 0.98997 0.79117 0.0
H685 H 0.94196 0.01048 0.96433 0.0
H686 H 0.91443 0.97815 0.80887 0.0
H687 H 0.90315 0.97303 0.70846 0.0
H688 H 0.8664 0.01602 0.72847 0.0
H689 H 0.87764 0.02156 0.82875 0.0
C690 C 0.87121 0.99096 0.12632 0.0
C691 C 0.85629 1.00215 0.12352 0.0
C692 C 0.88492 0.99247 0.08487 0.0
C693 C 0.884 0.00519 0.03966 0.0
C694 C 0.86939 0.0167 0.03783 0.0
C695 C 0.85576 0.01526 0.07934 0.0
C696 C 0.89758 0.00582 0.99191 0.0
C697 C 0.89186 0.00365 0.93356 0.0
C698 C 0.91592 0.00802 0.00318 0.0
C699 C 0.92278 0.01085 0.06361 0.0
C700 C 0.91624 0.02474 0.0986 0.0
C701 C 0.92273 0.02727 0.15562 0.0
C702 C 0.93585 0.01607 0.17801 0.0
C703 C 0.94254 1.00234 0.14335 0.0
C704 C 0.93609 0.99975 0.08631 0.0
C705 C 0.94292 0.02207 0.75405 0.0
C706 C 0.95776 0.01095 0.74891 0.0
C707 C 0.93187 0.02107 0.80326 0.0
C708 C 0.93512 0.00862 0.84804 0.0
C709 C 0.95029 0.99785 0.84399 0.0
C710 C 0.96151 0.99899 0.79469 0.0
C711 C 0.92218 0.00648 0.89728 0.0
C712 C 0.92799 0.00824 0.95576 0.0
C713 C 0.90388 0.00372 0.88633 0.0
C714 C 0.89698 1.00036 0.82617 0.0
C715 C 0.90402 0.98659 0.79172 0.0
C716 C 0.89763 0.9836 0.73484 0.0
C717 C 0.88409 0.99422 0.71205 0.0
C718 C 0.8769 0.00782 0.74616 0.0
C719 C 0.88326 0.01088 0.80305 0.0
H720 H 0.87916 0.99189 0.668 0.0
H721 H 0.94085 0.01805 0.22217 0.0
H722 H 0.49488 0.86575 0.13152 0.0
H723 H 0.49268 0.89109 0.06537 0.0
H724 H 0.54964 0.89572 0.06225 0.0
H725 H 0.55198 0.87063 0.1306 0.0
H726 H 0.53405 0.92827 0.06275 0.0
H727 H 0.52832 0.87507 0.95113 0.0
H728 H 0.51633 0.8456 0.92619 0.0
H729 H 0.46449 0.86804 0.90357 0.0
H730 H 0.47611 0.89761 0.92928 0.0
H731 H 0.53345 0.97848 0.78882 0.0
H732 H 0.53906 0.95734 0.86935 0.0
H733 H 0.48282 0.94873 0.88781 0.0
H734 H 0.47722 0.96942 0.80684 0.0
H735 H 0.50046 0.91803 0.87823 0.0
H736 H 0.50568 0.97055 0.99831 0.0
H737 H 0.51698 0.99924 0.03458 0.0
H738 H 0.56972 0.97803 0.04217 0.0
H739 H 0.55874 0.94922 0.00586 0.0
C740 C 0.50698 0.87238 0.11826 0.0
C741 C 0.52364 0.86601 0.13657 0.0
C742 C 0.50569 0.88679 0.07961 0.0
C743 C 0.521 0.89512 0.05768 0.0
C744 C 0.53763 0.88943 0.0781 0.0
C745 C 0.53894 0.875 0.11697 0.0
C746 C 0.51954 0.90918 0.01156 0.0
C747 C 0.52696 0.92597 0.02193 0.0
C748 C 0.51009 0.90628 0.95855 0.0
C749 C 0.50306 0.88854 0.94264 0.0
C750 C 0.51434 0.8737 0.94125 0.0
C751 C 0.50761 0.85698 0.92692 0.0
C752 C 0.48965 0.85494 0.91343 0.0
C753 C 0.47839 0.86963 0.9141 0.0
C754 C 0.48505 0.88638 0.92849 0.0
C755 C 0.5223 0.97229 0.81082 0.0
C756 C 0.50488 0.97564 0.7917 0.0
C757 C 0.52551 0.96026 0.85698 0.0
C758 C 0.51137 0.95156 0.88527 0.0
C759 C 0.49397 0.95531 0.86701 0.0
C760 C 0.49078 0.96715 0.82073 0.0
C761 C 0.51459 0.93735 0.92991 0.0
C762 C 0.50762 0.92039 0.9189 0.0
C763 C 0.52452 0.94012 0.98207 0.0
C764 C 0.53141 0.9578 0.99888 0.0
C765 C 0.51972 0.97208 0.00703 0.0
C766 C 0.52604 0.9883 0.02816 0.0
C767 C 0.54403 0.99041 0.04111 0.0
C768 C 0.55577 0.97633 0.03256 0.0
C769 C 0.54951 0.96006 0.01168 0.0
H770 H 0.54891 1.00299 0.05722 0.0
H771 H 0.48447 0.84199 0.90235 0.0
H772 H 0.65905 0.53828 0.07519 0.0
H773 H 0.63497 0.53676 0.00403 0.0
H774 H 0.61781 0.48702 0.07929 0.0
H775 H 0.64258 0.48821 0.14962 0.0
H776 H 0.61515 0.48461 0.96727 0.0
H777 H 0.59492 0.52793 0.10198 0.0
H778 H 0.59612 0.55457 0.16455 0.0
H779 H 0.60347 0.58729 0.01153 0.0
H780 H 0.60257 0.56082 0.94805 0.0
H781 H 0.53416 0.49096 0.79918 0.0
H782 H 0.55418 0.4909 0.88444 0.0
H783 H 0.58562 0.53201 0.80324 0.0
H784 H 0.56589 0.53185 0.71743 0.0
H785 H 0.57797 0.53744 0.92645 0.0
H786 H 0.59972 0.4918 0.79444 0.0
H787 H 0.59708 0.46437 0.73623 0.0
H788 H 0.58417 0.43505 0.89276 0.0
H789 H 0.58639 0.46239 0.95175 0.0
C790 C 0.65004 0.5271 0.07707 0.0
C791 C 0.65256 0.5135 0.11868 0.0
C792 C 0.63618 0.52626 0.03638 0.0
C793 C 0.62415 0.51202 0.03694 0.0
C794 C 0.62678 0.49824 0.07803 0.0
C795 C 0.64091 0.49893 0.1183 0.0
C796 C 0.60926 0.51143 0.99342 0.0
C797 C 0.60681 0.49608 0.95934 0.0
C798 C 0.59831 0.52636 0.98232 0.0
C799 C 0.59881 0.54236 0.02028 0.0
C800 C 0.59691 0.54079 0.08168 0.0
C801 C 0.59752 0.55587 0.11732 0.0
C802 C 0.5999 0.57261 0.09204 0.0
C803 C 0.60164 0.57431 0.03105 0.0
C804 C 0.60105 0.55928 0.99521 0.0
C805 C 0.54526 0.50009 0.79977 0.0
C806 C 0.54851 0.51139 0.75157 0.0
C807 C 0.55671 0.49999 0.8484 0.0
C808 C 0.57146 0.51138 0.85006 0.0
C809 C 0.57434 0.52311 0.80288 0.0
C810 C 0.56308 0.52299 0.75387 0.0
C811 C 0.58422 0.51083 0.90004 0.0
C812 C 0.58621 0.52596 0.93521 0.0
C813 C 0.59445 0.49558 0.91294 0.0
C814 C 0.59302 0.47918 0.87739 0.0
C815 C 0.59613 0.47954 0.81635 0.0
C816 C 0.59474 0.46401 0.78323 0.0
C817 C 0.59043 0.44799 0.81077 0.0
C818 C 0.58751 0.44747 0.87149 0.0
C819 C 0.5888 0.46299 0.90477 0.0
H820 H 0.58937 0.43597 0.78507 0.0
H821 H 0.60037 0.58426 0.11971 0.0
H822 H 0.98142 0.66985 0.04342 0.0
H823 H 0.98005 0.64498 0.9755 0.0
H824 H 0.99963 0.61002 0.11108 0.0
H825 H 1.00132 0.63512 0.17957 0.0
H826 H 0.01649 0.60443 0.00763 0.0
H827 H 0.95452 0.60779 0.06531 0.0
H828 H 0.92706 0.62462 0.08388 0.0
H829 H 0.92679 0.64272 0.9045 0.0
H830 H 0.95441 0.62621 0.88518 0.0
H831 H 1.00329 0.52854 0.82724 0.0
H832 H 0.99975 0.54892 0.91063 0.0
H833 H 0.98034 0.58926 0.79229 0.0
H834 H 0.98375 0.56891 0.70942 0.0
H835 H 0.96214 0.59016 0.89415 0.0
H836 H 0.02224 0.58988 0.83316 0.0
H837 H 0.05179 0.57815 0.80868 0.0
H838 H 0.05773 0.55882 0.98553 0.0
H839 H 0.02802 0.57018 0.01082 0.0
C840 C 0.98507 0.65682 0.05943 0.0
C841 C 0.99123 0.65448 0.11741 0.0
C842 C 0.98431 0.64256 0.02032 0.0
C843 C 0.98941 0.62547 0.03825 0.0
C844 C 0.99554 0.62303 0.09617 0.0
C845 C 0.99646 0.63738 0.13533 0.0
C846 C 0.98884 0.6104 0.99569 0.0
C847 C 0.00448 0.60097 0.98401 0.0
C848 C 0.97338 0.60634 0.96295 0.0
C849 C 0.95646 0.61572 0.97379 0.0
C850 C 0.94858 0.61536 0.02987 0.0
C851 C 0.93304 0.6249 0.04058 0.0
C852 C 0.9252 0.63475 0.99541 0.0
C853 C 0.93289 0.6351 0.93944 0.0
C854 C 0.94848 0.62566 0.92859 0.0
C855 C 0.99777 0.54155 0.81944 0.0
C856 C 0.99362 0.54705 0.76197 0.0
C857 C 0.99595 0.55329 0.86697 0.0
C858 C 0.98991 0.57074 0.85781 0.0
C859 C 0.98499 0.57591 0.80069 0.0
C860 C 0.98698 0.56426 0.75329 0.0
C861 C 0.98976 0.58402 0.90655 0.0
C862 C 0.97402 0.59323 0.91899 0.0
C863 C 0.00525 0.58816 0.93912 0.0
C864 C 0.02279 0.58065 0.92365 0.0
C865 C 0.02972 0.58289 0.86661 0.0
C866 C 0.04653 0.57637 0.85263 0.0
C867 C 0.05663 0.56774 0.89549 0.0
C868 C 0.04988 0.5655 0.95235 0.0
C869 C 0.03305 0.57195 0.96652 0.0
H870 H 0.06971 0.56288 0.88465 0.0
H871 H 0.91313 0.64208 0.00373 0.0
H872 H 0.9473 0.24041 0.40743 0.0
H873 H 0.935 0.21952 0.47934 0.0
H874 H 0.98423 0.19029 0.47714 0.0
H875 H 0.99665 0.21158 0.40816 0.0
H876 H 0.9271 0.18963 0.45239 0.0
H877 H 0.98972 0.16058 0.58131 0.0
H878 H 0.01279 0.17153 0.64861 0.0
H879 H 0.98292 0.21908 0.67795 0.0
H880 H 0.95936 0.20826 0.612 0.0
H881 H 0.94229 0.10264 0.40491 0.0
H882 H 0.93848 0.13422 0.42074 0.0
H883 H 0.93883 0.12587 0.6088 0.0
H884 H 0.94382 0.09427 0.59319 0.0
H885 H 0.96 0.15021 0.5884 0.0
H886 H 0.90124 0.14438 0.53666 0.0
H887 H 0.87443 0.13377 0.48566 0.0
H888 H 0.89209 0.15822 0.32516 0.0
H889 H 0.91914 0.16875 0.37478 0.0
C890 C 0.95562 0.22984 0.42415 0.0
C891 C 0.97282 0.22742 0.40193 0.0
C892 C 0.94863 0.21793 0.4653 0.0
C893 C 0.95858 0.20317 0.4838 0.0
C894 C 0.97629 0.20168 0.46503 0.0
C895 C 0.98339 0.21379 0.42492 0.0
C896 C 0.94967 0.18748 0.51051 0.0
C897 C 0.93417 0.18119 0.48304 0.0
C898 C 0.95812 0.1767 0.55328 0.0
C899 C 0.97268 0.18357 0.59134 0.0
C900 C 0.98794 0.17333 0.60228 0.0
C901 C 1.00115 0.17952 0.64025 0.0
C902 C 0.99934 0.196 0.66746 0.0
C903 C 0.98433 0.20633 0.65667 0.0
C904 C 0.97104 0.20018 0.6189 0.0
C905 C 0.9413 0.10747 0.44965 0.0
C906 C 0.94353 0.09595 0.49765 0.0
C907 C 0.93882 0.12555 0.45879 0.0
C908 C 0.93812 0.13249 0.51615 0.0
C909 C 0.93922 0.12084 0.56424 0.0
C910 C 0.94193 0.10273 0.55514 0.0
C911 C 0.93897 0.15198 0.5246 0.0
C912 C 0.95273 0.15895 0.55923 0.0
C913 C 0.92856 0.16361 0.49022 0.0
C914 C 0.91225 0.15742 0.45967 0.0
C915 C 0.89945 0.14744 0.49042 0.0
C916 C 0.8842 0.14144 0.46173 0.0
C917 C 0.88155 0.14533 0.40223 0.0
C918 C 0.89414 0.15526 0.3713 0.0
C919 C 0.90942 0.1613 0.39977 0.0
H920 H 0.86973 0.14066 0.38009 0.0
H921 H 0.00955 0.20075 0.69699 0.0
H922 H 0.27691 0.96959 0.40826 0.0
H923 H 0.2993 0.95355 0.46695 0.0
H924 H 0.33765 0.96172 0.32851 0.0
H925 H 0.31563 0.9776 0.27059 0.0
H926 H 0.33677 0.92664 0.37288 0.0
H927 H 0.33652 0.98878 0.44317 0.0
H928 H 0.32309 0.01439 0.49361 0.0
H929 H 0.31481 0.98269 0.64851 0.0
H930 H 0.32791 0.95679 0.59845 0.0
H931 H 0.42392 0.94672 0.41434 0.0
H932 H 0.3927 0.94113 0.3976 0.0
H933 H 0.38513 0.93068 0.58273 0.0
H934 H 0.41676 0.9359 0.59989 0.0
H935 H 0.36375 0.95636 0.54554 0.0
H936 H 0.37441 0.8982 0.48423 0.0
H937 H 0.38956 0.87332 0.43542 0.0
H938 H 0.37892 0.89654 0.26636 0.0
H939 H 0.36395 0.92171 0.31404 0.0
C940 C 0.29014 0.96786 0.39064 0.0
C941 C 0.29467 0.97498 0.33535 0.0
C942 C 0.30284 0.95872 0.424 0.0
C943 C 0.32005 0.95642 0.40179 0.0
C944 C 0.3244 0.96326 0.34621 0.0
C945 C 0.31188 0.9725 0.31346 0.0
C946 C 0.33418 0.94766 0.43615 0.0
C947 C 0.34263 0.93293 0.41112 0.0
C948 C 0.34125 0.95537 0.48769 0.0
C949 C 0.3329 0.9708 0.51681 0.0
C950 C 0.33161 0.98721 0.48768 0.0
C951 C 0.3241 1.00179 0.51625 0.0
C952 C 0.31803 1.00015 0.57414 0.0
C953 C 0.31945 0.98392 0.60359 0.0
C954 C 0.32688 0.96929 0.57513 0.0
C955 C 0.41587 0.94251 0.45129 0.0
C956 C 0.42286 0.94194 0.50857 0.0
C957 C 0.39792 0.9393 0.44162 0.0
C958 C 0.38656 0.9354 0.4889 0.0
C959 C 0.39367 0.93365 0.54564 0.0
C960 C 0.41172 0.93676 0.55535 0.0
C961 C 0.36715 0.93618 0.47935 0.0
C962 C 0.3576 0.94938 0.50915 0.0
C963 C 0.35907 0.92702 0.43222 0.0
C964 C 0.368 0.91187 0.40287 0.0
C965 C 0.37536 0.89806 0.43664 0.0
C966 C 0.38392 0.88389 0.40915 0.0
C967 C 0.38519 0.88334 0.34783 0.0
C968 C 0.37789 0.89696 0.31386 0.0
C969 C 0.36932 0.91116 0.34112 0.0
H970 H 0.39183 0.87237 0.32663 0.0
H971 H 0.31228 0.01146 0.59626 0.0
H972 H 0.47281 0.27427 0.42001 0.0
H973 H 0.47404 0.29536 0.50112 0.0
H974 H 0.52995 0.30302 0.47 0.0
H975 H 0.52917 0.28085 0.39276 0.0
H976 H 0.52231 0.31357 0.57783 0.0
H977 H 0.49664 0.32345 0.379 0.0
H978 H 0.4745 0.31712 0.30177 0.0
H979 H 0.4324 0.32809 0.42367 0.0
H980 H 0.45435 0.3343 0.50172 0.0
H981 H 0.54815 0.39872 0.49794 0.0
H982 H 0.53992 0.36793 0.51702 0.0
H983 H 0.48704 0.38449 0.56431 0.0
H984 H 0.49509 0.41525 0.54374 0.0
H985 H 0.48529 0.36047 0.4868 0.0
H986 H 0.51607 0.36644 0.66112 0.0
H987 H 0.53893 0.37337 0.73457 0.0
H988 H 0.57337 0.33445 0.65819 0.0
H989 H 0.55076 0.32739 0.58379 0.0
C990 C 0.48556 0.27972 0.43234 0.0
C991 C 0.50076 0.27655 0.39799 0.0
C992 C 0.48622 0.29186 0.47873 0.0
C993 C 0.50189 0.30141 0.48958 0.0
C994 C 0.51759 0.29613 0.46164 0.0
C995 C 0.51706 0.28367 0.41654 0.0
C996 C 0.50135 0.31927 0.51661 0.0
C997 C 0.51426 0.32394 0.55838 0.0
C998 C 0.49022 0.33263 0.49305 0.0
C999 C 0.47706 0.32908 0.4462 0.0
C1000 C 0.48265 0.32445 0.38924 0.0
C1001 C 0.47015 0.32088 0.3454 0.0
C1002 C 0.45205 0.32214 0.35786 0.0
C1003 C 0.44642 0.32705 0.41415 0.0
C1004 C 0.45887 0.33057 0.45822 0.0
C1005 C 0.53484 0.3958 0.51309 0.0
C1006 C 0.5222 0.40933 0.5185 0.0
C1007 C 0.53019 0.37823 0.52467 0.0
C1008 C 0.51291 0.37391 0.54284 0.0
C1009 C 0.50044 0.38751 0.55031 0.0
C1010 C 0.505 0.40503 0.53779 0.0
C1011 C 0.50725 0.35512 0.54488 0.0
C1012 C 0.49306 0.35027 0.50854 0.0
C1013 C 0.51744 0.3418 0.573 0.0
C1014 C 0.53147 0.34624 0.6169 0.0
C1015 C 0.52847 0.35934 0.65982 0.0
C1016 C 0.54142 0.36331 0.70171 0.0
C1017 C 0.55757 0.35431 0.70123 0.0
C1018 C 0.5608 0.34136 0.6587 0.0
C1019 C 0.54786 0.33732 0.61672 0.0
H1020 H 0.56761 0.35739 0.7337 0.0
H1021 H 0.44239 0.31937 0.32387 0.0
H1022 H 0.20621 0.44574 0.29609 0.0
H1023 H 0.18216 0.45028 0.36477 0.0
H1024 H 0.21896 0.47017 0.49409 0.0
H1025 H 0.24352 0.46509 0.42569 0.0
H1026 H 0.1704 0.44386 0.47692 0.0
H1027 H 0.20036 0.51125 0.53626 0.0
H1028 H 0.22437 0.53128 0.50396 0.0
H1029 H 0.21935 0.51194 0.32707 0.0
H1030 H 0.19514 0.49202 0.35823 0.0
H1031 H 0.09672 0.49196 0.58985 0.0
H1032 H 0.12756 0.48185 0.59 0.0
H1033 H 0.13519 0.50513 0.41816 0.0
H1034 H 0.10442 0.51506 0.41733 0.0
H1035 H 0.16441 0.5093 0.48845 0.0
H1036 H 0.12307 0.46279 0.42933 0.0
H1037 H 0.09732 0.44324 0.44641 0.0
H1038 H 0.12265 0.42146 0.59961 0.0
H1039 H 0.14846 0.44101 0.58371 0.0
C1040 C 0.20947 0.45025 0.33998 0.0
C1041 C 0.22682 0.45545 0.35473 0.0
C1042 C 0.19559 0.45286 0.37939 0.0
C1043 C 0.19875 0.46089 0.43397 0.0
C1044 C 0.21626 0.46415 0.45176 0.0
C1045 C 0.23024 0.46139 0.41238 0.0
C1046 C 0.1836 0.46896 0.46516 0.0
C1047 C 0.16924 0.45813 0.48105 0.0
C1048 C 0.18199 0.48763 0.46943 0.0
C1049 C 0.19624 0.49986 0.44993 0.0
C1050 C 0.20441 0.51125 0.49056 0.0
C1051 C 0.21802 0.52262 0.4724 0.0
C1052 C 0.22346 0.5228 0.41358 0.0
C1053 C 0.21519 0.51173 0.37268 0.0
C1054 C 0.20153 0.5004 0.39057 0.0
C1055 C 0.10503 0.495 0.55226 0.0
C1056 C 0.09811 0.50403 0.50304 0.0
C1057 C 0.12264 0.48937 0.55273 0.0
C1058 C 0.13356 0.49266 0.50398 0.0
C1059 C 0.12698 0.50256 0.45638 0.0
C1060 C 0.10939 0.50819 0.45585 0.0
C1061 C 0.15111 0.48421 0.49867 0.0
C1062 C 0.16586 0.49499 0.48736 0.0
C1063 C 0.1529 0.46554 0.49681 0.0
C1064 C 0.13757 0.45353 0.5058 0.0
C1065 C 0.12309 0.4539 0.46684 0.0
C1066 C 0.1085 0.44281 0.47627 0.0
C1067 C 0.10832 0.43116 0.52419 0.0
C1068 C 0.12278 0.43053 0.56261 0.0
C1069 C 0.1374 0.44161 0.55341 0.0
H1070 H 0.09701 0.42259 0.53146 0.0
H1071 H 0.23403 0.53158 0.39965 0.0
H1072 H 0.0738 0.77143 0.9312 0.0
H1073 H 0.08092 0.79595 0.86394 0.0
H1074 H 0.02673 0.81408 0.87513 0.0
H1075 H 0.01949 0.78925 0.93889 0.0
H1076 H 0.03873 0.8241 0.77644 0.0
H1077 H 0.06079 0.82618 0.97884 0.0
H1078 H 0.07881 0.81508 0.06176 0.0
H1079 H 0.12595 0.81997 0.95686 0.0
H1080 H 0.10813 0.83089 0.87307 0.0
H1081 H 0.05386 0.91503 0.90746 0.0
H1082 H 0.06032 0.88339 0.90774 0.0
H1083 H 0.06162 0.88344 0.71759 0.0
H1084 H 0.05414 0.91511 0.7175 0.0
H1085 H 0.08357 0.86158 0.87636 0.0
H1086 H 0.04329 0.84094 0.67087 0.0
H1087 H 0.01992 0.85207 0.60456 0.0
H1088 H 1.00142 0.88714 0.73977 0.0
H1089 H 0.02406 0.87553 0.80795 0.0
C1090 C 0.06335 0.78035 0.91734 0.0
C1091 C 0.04617 0.77864 0.94053 0.0
C1092 C 0.0674 0.79435 0.87915 0.0
C1093 C 0.05449 0.80717 0.86582 0.0
C1094 C 0.03696 0.80443 0.88466 0.0
C1095 C 0.03282 0.79023 0.92138 0.0
C1096 C 0.05939 0.82482 0.84173 0.0
C1097 C 0.04875 0.83226 0.79742 0.0
C1098 C 0.07241 0.8355 0.86932 0.0
C1099 C 0.08315 0.82911 0.91963 0.0
C1100 C 0.075 0.82481 0.97349 0.0
C1101 C 0.08516 0.81855 0.02058 0.0
C1102 C 0.10351 0.81677 0.01452 0.0
C1103 C 0.11173 0.82131 0.96141 0.0
C1104 C 0.10161 0.82752 0.9141 0.0
C1105 C 0.05596 0.90835 0.86585 0.0
C1106 C 0.05341 0.91733 0.81257 0.0
C1107 C 0.05967 0.89027 0.86587 0.0
C1108 C 0.06117 0.88093 0.81256 0.0
C1109 C 0.06018 0.89028 0.75915 0.0
C1110 C 0.05602 0.90833 0.75914 0.0
C1111 C 0.06195 0.86128 0.81431 0.0
C1112 C 0.07393 0.85337 0.85366 0.0
C1113 C 0.04943 0.85046 0.78449 0.0
C1114 C 0.03573 0.8577 0.74402 0.0
C1115 C 0.03423 0.85102 0.68649 0.0
C1116 C 0.02102 0.85732 0.6487 0.0
C1117 C 0.00933 0.87046 0.66767 0.0
C1118 C 0.01059 0.87707 0.72493 0.0
C1119 C 0.02355 0.87055 0.76331 0.0
H1120 H 0.99922 0.87544 0.63813 0.0
H1121 H 0.11136 0.81192 0.05102 0.0
H1122 H 0.70921 0.93542 0.03779 0.0
H1123 H 0.68022 0.92944 0.99407 0.0
H1124 H 0.68322 0.97892 0.89868 0.0
H1125 H 0.71234 0.98458 0.94055 0.0
H1126 H 0.65521 0.95016 0.02797 0.0
H1127 H 0.6536 0.98292 0.79342 0.0
H1128 H 0.67024 0.98176 0.70032 0.0
H1129 H 0.69085 0.93062 0.7475 0.0
H1130 H 0.67393 0.93126 0.84032 0.0
H1131 H 0.59114 0.01396 0.97581 0.0
H1132 H 0.61727 0.99505 0.98648 0.0
H1133 H 0.59443 0.95707 0.86662 0.0
H1134 H 0.56837 0.97605 0.85512 0.0
H1135 H 0.62832 0.96651 0.83645 0.0
H1136 H 0.59908 0.94376 0.00424 0.0
H1137 H 0.58158 0.94483 0.09584 0.0
H1138 H 0.62254 0.97539 0.17903 0.0
H1139 H 0.6403 0.97452 0.08804 0.0
C1140 C 0.70409 0.94454 0.00508 0.0
C1141 C 0.71281 0.96064 0.99336 0.0
C1142 C 0.68747 0.94115 0.98033 0.0
C1143 C 0.67943 0.95379 0.94356 0.0
C1144 C 0.68915 0.96883 0.92636 0.0
C1145 C 0.70576 0.97218 0.95084 0.0
C1146 C 0.65995 0.95371 0.9349 0.0
C1147 C 0.64931 0.95337 0.98574 0.0
C1148 C 0.65211 0.95761 0.87977 0.0
C1149 C 0.66243 0.95714 0.82401 0.0
C1150 C 0.66151 0.97133 0.78376 0.0
C1151 C 0.67103 0.97079 0.73102 0.0
C1152 C 0.68161 0.95613 0.71801 0.0
C1153 C 0.68267 0.94198 0.7577 0.0
C1154 C 0.67311 0.94244 0.81043 0.0
C1155 C 0.59164 1.00151 0.95223 0.0
C1156 C 0.57777 0.99645 0.91477 0.0
C1157 C 0.60645 0.99065 0.95873 0.0
C1158 C 0.60764 0.97459 0.92775 0.0
C1159 C 0.59365 0.96933 0.89124 0.0
C1160 C 0.57878 0.98014 0.885 0.0
C1161 C 0.62427 0.96433 0.92989 0.0
C1162 C 0.63423 0.96273 0.87806 0.0
C1163 C 0.63155 0.95868 0.98393 0.0
C1164 C 0.62104 0.95905 0.03924 0.0
C1165 C 0.60436 0.95073 0.04205 0.0
C1166 C 0.5944 0.95127 0.09393 0.0
C1167 C 0.60094 0.96017 0.14325 0.0
C1168 C 0.6175 0.96846 0.14089 0.0
C1169 C 0.62756 0.96787 0.08925 0.0
H1170 H 0.59318 0.96064 0.18329 0.0
H1171 H 0.689 0.95573 0.67718 0.0
H1172 H 0.45681 0.74707 0.92709 0.0
H1173 H 0.44784 0.72307 0.86069 0.0
H1174 H 0.4993 0.69887 0.88209 0.0
H1175 H 0.50847 0.72313 0.9454 0.0
H1176 H 0.48728 0.68981 0.78148 0.0
H1177 H 0.46346 0.6914 0.98103 0.0
H1178 H 0.44628 0.70498 0.06159 0.0
H1179 H 0.39963 0.70491 0.95317 0.0
H1180 H 0.41664 0.69152 0.87169 0.0
H1181 H 0.45992 0.60095 0.90655 0.0
H1182 H 0.45697 0.63314 0.90909 0.0
H1183 H 0.45697 0.63482 0.71907 0.0
H1184 H 0.46085 0.60252 0.7167 0.0
H1185 H 0.43718 0.6584 0.87755 0.0
H1186 H 0.48161 0.67369 0.67572 0.0
H1187 H 0.50394 0.6596 0.61208 0.0
H1188 H 0.51626 0.62232 0.7491 0.0
H1189 H 0.49471 0.63682 0.8148 0.0
C1190 C 0.46634 0.73692 0.91562 0.0
C1191 C 0.48322 0.73674 0.94169 0.0
C1192 C 0.46122 0.72322 0.87792 0.0
C1193 C 0.47272 0.7089 0.86781 0.0
C1194 C 0.49016 0.70972 0.88924 0.0
C1195 C 0.4954 0.72359 0.92563 0.0
C1196 C 0.46607 0.6918 0.84444 0.0
C1197 C 0.47611 0.68301 0.80154 0.0
C1198 C 0.45162 0.68287 0.87117 0.0
C1199 C 0.44133 0.6907 0.92018 0.0
C1200 C 0.44955 0.69435 0.97438 0.0
C1201 C 0.43985 0.70202 0.02015 0.0
C1202 C 0.42188 0.70585 0.01244 0.0
C1203 C 0.41356 0.70197 0.959 0.0
C1204 C 0.42322 0.69437 0.91301 0.0
C1205 C 0.45876 0.60817 0.86543 0.0
C1206 C 0.46073 0.59944 0.81154 0.0
C1207 C 0.45706 0.62656 0.86674 0.0
C1208 C 0.45709 0.63644 0.81413 0.0
C1209 C 0.45725 0.62748 0.76007 0.0
C1210 C 0.45936 0.6091 0.75876 0.0
C1211 C 0.45906 0.65598 0.81711 0.0
C1212 C 0.44796 0.66531 0.85567 0.0
C1213 C 0.47318 0.66507 0.78866 0.0
C1214 C 0.48617 0.65608 0.74966 0.0
C1215 C 0.48908 0.66249 0.6923 0.0
C1216 C 0.50168 0.65448 0.65594 0.0
C1217 C 0.51135 0.63992 0.67619 0.0
C1218 C 0.50866 0.63353 0.73328 0.0
C1219 C 0.49632 0.6417 0.77024 0.0
H1220 H 0.52102 0.63368 0.64781 0.0
H1221 H 0.4144 0.71179 0.04792 0.0
H1222 H 0.77543 0.57113 0.94968 0.0
H1223 H 0.80149 0.56767 0.88663 0.0
H1224 H 0.83545 0.57249 0.03842 0.0
H1225 H 0.80981 0.57526 0.10156 0.0
H1226 H 0.85173 0.58459 0.93512 0.0
H1227 H 0.81767 0.53332 0.00958 0.0
H1228 H 0.79 0.516 0.01762 0.0
H1229 H 0.78785 0.51119 0.82939 0.0
H1230 H 0.81536 0.52879 0.82031 0.0
H1231 H 0.91978 0.52505 0.972 0.0
H1232 H 0.89191 0.5414 0.97625 0.0
H1233 H 0.87793 0.52231 0.80342 0.0
H1234 H 0.90595 0.50591 0.79875 0.0
H1235 H 0.85003 0.52082 0.88131 0.0
H1236 H 0.89072 0.5641 0.81508 0.0
H1237 H 0.91976 0.57908 0.81471 0.0
H1238 H 0.91049 0.59763 0.99057 0.0
H1239 H 0.8814 0.58276 0.99185 0.0
C1240 C 0.78847 0.57194 0.96943 0.0
C1241 C 0.79045 0.57291 0.03102 0.0
C1242 C 0.80333 0.57013 0.93321 0.0
C1243 C 0.82032 0.56944 0.95819 0.0
C1244 C 0.82243 0.57295 0.01832 0.0
C1245 C 0.80763 0.57458 0.05453 0.0
C1246 C 0.83532 0.56137 0.92625 0.0
C1247 C 0.85134 0.57075 0.92235 0.0
C1248 C 0.83471 0.54336 0.90874 0.0
C1249 C 0.81839 0.53254 0.91423 0.0
C1250 C 0.81122 0.52865 0.96993 0.0
C1251 C 0.79558 0.51879 0.97468 0.0
C1252 C 0.78714 0.51253 0.92403 0.0
C1253 C 0.79437 0.51609 0.86856 0.0
C1254 C 0.80997 0.52602 0.86357 0.0
C1255 C 0.9108 0.52439 0.93484 0.0
C1256 C 0.91503 0.51429 0.88504 0.0
C1257 C 0.89492 0.53375 0.9372 0.0
C1258 C 0.88308 0.53336 0.88954 0.0
C1259 C 0.88699 0.52289 0.84034 0.0
C1260 C 0.90291 0.51347 0.83798 0.0
C1261 C 0.86657 0.54386 0.89238 0.0
C1262 C 0.85032 0.53489 0.89108 0.0
C1263 C 0.86699 0.56221 0.9052 0.0
C1264 C 0.88385 0.57235 0.90335 0.0
C1265 C 0.89482 0.57151 0.85339 0.0
C1266 C 0.9113 0.57995 0.85308 0.0
C1267 C 0.91695 0.58932 0.90255 0.0
C1268 C 0.90605 0.59046 0.95214 0.0
C1269 C 0.88952 0.58208 0.95257 0.0
H1270 H 0.92981 0.59556 0.90243 0.0
H1271 H 0.77504 0.5049 0.92778 0.0
H1272 H 0.03063 0.19016 0.96077 0.0
H1273 H 0.03037 0.16242 0.90591 0.0
H1274 H 0.98855 0.18257 0.79484 0.0
H1275 H 0.98842 0.21026 0.85125 0.0
H1276 H 0.9806 0.15076 0.82166 0.0
H1277 H 0.03285 0.1763 0.74483 0.0
H1278 H 0.06191 0.1913 0.74474 0.0
H1279 H 0.08474 0.14763 0.83954 0.0
H1280 H 0.05575 0.13245 0.84089 0.0
H1281 H 0.98885 0.07381 0.63748 0.0
H1282 H 0.99012 0.10464 0.6706 0.0
H1283 H 0.02376 0.08922 0.81525 0.0
H1284 H 0.02256 0.05835 0.78263 0.0
H1285 H 0.03546 0.12011 0.75793 0.0
H1286 H 0.98043 0.09616 0.83651 0.0
H1287 H 0.95112 0.08191 0.82752 0.0
H1288 H 0.93328 0.12444 0.71655 0.0
H1289 H 0.96267 0.13871 0.72346 0.0
C1290 C 0.02159 0.18883 0.924 0.0
C1291 C 0.00962 0.20251 0.91026 0.0
C1292 C 0.02146 0.17291 0.89241 0.0
C1293 C 0.00962 0.17033 0.84531 0.0
C1294 C 0.99783 0.18412 0.83086 0.0
C1295 C 0.99779 0.19998 0.86307 0.0
C1296 C 0.00901 0.15293 0.81356 0.0
C1297 C 0.99261 0.14427 0.80675 0.0
C1298 C 0.02459 0.14424 0.79394 0.0
C1299 C 0.04208 0.15329 0.79332 0.0
C1300 C 0.04404 0.16994 0.76601 0.0
C1301 C 0.0605 0.17847 0.76568 0.0
C1302 C 0.07515 0.17044 0.79222 0.0
C1303 C 0.07337 0.15384 0.81903 0.0
C1304 C 0.05693 0.14525 0.81952 0.0
C1305 C 0.99661 0.07694 0.6762 0.0
C1306 C 0.00558 0.06349 0.70743 0.0
C1307 C 0.99727 0.09461 0.69519 0.0
C1308 C 0.00695 0.09928 0.74567 0.0
C1309 C 0.01621 0.08597 0.77618 0.0
C1310 C 0.01544 0.06828 0.75756 0.0
C1311 C 0.00718 0.11791 0.7677 0.0
C1312 C 0.0235 0.12678 0.77242 0.0
C1313 C 0.99149 0.12695 0.78405 0.0
C1314 C 0.97381 0.11841 0.78004 0.0
C1315 C 0.97032 0.10239 0.80969 0.0
C1316 C 0.9537 0.0943 0.80492 0.0
C1317 C 0.94038 0.10222 0.77119 0.0
C1318 C 0.94365 0.11827 0.74229 0.0
C1319 C 0.96029 0.12636 0.7466 0.0
H1320 H 0.92751 0.09596 0.76763 0.0
H1321 H 0.08789 0.17706 0.79192 0.0
H1322 H 0.29741 0.01585 0.81836 0.0
H1323 H 0.32649 0.01563 0.77004 0.0
H1324 H 0.35016 0.03813 0.92579 0.0
H1325 H 0.3213 0.03852 0.97379 0.0
H1326 H 0.36359 0.05362 0.83288 0.0
H1327 H 0.35238 0.99265 0.88898 0.0
H1328 H 0.33582 0.96443 0.88968 0.0
H1329 H 0.34118 0.96066 0.70197 0.0
H1330 H 0.35743 0.98907 0.69993 0.0
H1331 H 0.45442 0.03281 0.80297 0.0
H1332 H 0.42344 0.03502 0.8331 0.0
H1333 H 0.40698 0.01252 0.66749 0.0
H1334 H 0.43801 0.00993 0.6374 0.0
H1335 H 0.38878 0.99782 0.754 0.0
H1336 H 0.40181 0.05731 0.69768 0.0
H1337 H 0.41859 0.08538 0.69567 0.0
H1338 H 0.40986 0.09201 0.8811 0.0
H1339 H 0.39323 0.06384 0.88441 0.0
C1340 C 0.30881 0.02078 0.84223 0.0
C1341 C 0.30692 0.02729 0.89995 0.0
C1342 C 0.32547 0.02061 0.81459 0.0
C1343 C 0.34067 0.02669 0.84438 0.0
C1344 C 0.33871 0.03344 0.90158 0.0
C1345 C 0.32211 0.03373 0.92898 0.0
C1346 C 0.35869 0.0259 0.81701 0.0
C1347 C 0.36913 0.04136 0.81614 0.0
C1348 C 0.36584 0.01009 0.79318 0.0
C1349 C 0.35594 0.99309 0.79427 0.0
C1350 C 0.34987 0.9859 0.84778 0.0
C1351 C 0.34054 0.96987 0.8484 0.0
C1352 C 0.33738 0.96081 0.79584 0.0
C1353 C 0.34356 0.96775 0.74257 0.0
C1354 C 0.35282 0.98381 0.74165 0.0
C1355 C 0.44424 0.02843 0.77267 0.0
C1356 C 0.4488 0.02128 0.71753 0.0
C1357 C 0.42647 0.02977 0.78993 0.0
C1358 C 0.41275 0.02417 0.75233 0.0
C1359 C 0.41726 0.01699 0.6973 0.0
C1360 C 0.43505 0.0156 0.68004 0.0
C1361 C 0.3938 0.02545 0.77119 0.0
C1362 C 0.38319 0.01011 0.77029 0.0
C1363 C 0.38645 0.04139 0.79317 0.0
C1364 C 0.39639 0.05838 0.79136 0.0
C1365 C 0.40357 0.06469 0.73812 0.0
C1366 C 0.41304 0.08063 0.73673 0.0
C1367 C 0.41532 0.09046 0.78825 0.0
C1368 C 0.4081 0.08438 0.84124 0.0
C1369 C 0.39863 0.06844 0.84288 0.0
H1370 H 0.42265 0.10279 0.78708 0.0
H1371 H 0.33019 0.94838 0.79643 0.0
H1372 H 0.46939 0.31313 0.88473 0.0
H1373 H 0.46963 0.34159 0.8326 0.0
H1374 H 0.52671 0.34014 0.8256 0.0
H1375 H 0.5266 0.31154 0.87628 0.0
H1376 H 0.51525 0.37115 0.86928 0.0
H1377 H 0.5024 0.33375 0.70928 0.0
H1378 H 0.48734 0.31184 0.64686 0.0
H1379 H 0.44183 0.34569 0.63427 0.0
H1380 H 0.45627 0.36756 0.6989 0.0
H1381 H 0.5136 0.44112 0.62316 0.0
H1382 H 0.51272 0.41012 0.65593 0.0
H1383 H 0.48473 0.42557 0.81265 0.0
H1384 H 0.48578 0.4566 0.78127 0.0
H1385 H 0.48287 0.38717 0.68677 0.0
H1386 H 0.50623 0.40157 0.92448 0.0
H1387 H 0.52418 0.42397 0.97667 0.0
H1388 H 0.5532 0.43478 0.81794 0.0
H1389 H 0.53585 0.41211 0.76545 0.0
C1390 C 0.48199 0.31862 0.87092 0.0
C1391 C 0.49799 0.31001 0.88543 0.0
C1392 C 0.4821 0.33498 0.8413 0.0
C1393 C 0.4982 0.34312 0.82552 0.0
C1394 C 0.51413 0.33425 0.8379 0.0
C1395 C 0.51403 0.31788 0.86711 0.0
C1396 C 0.49856 0.36132 0.79952 0.0
C1397 C 0.50808 0.37457 0.82947 0.0
C1398 C 0.48946 0.36584 0.74688 0.0
C1399 C 0.48039 0.35229 0.70998 0.0
C1400 C 0.48904 0.33644 0.69441 0.0
C1401 C 0.48062 0.32401 0.65839 0.0
C1402 C 0.46365 0.32737 0.63659 0.0
C1403 C 0.45499 0.3431 0.65125 0.0
C1404 C 0.46326 0.35549 0.68783 0.0
C1405 C 0.50702 0.43795 0.66423 0.0
C1406 C 0.49974 0.45147 0.69946 0.0
C1407 C 0.5064 0.42018 0.6825 0.0
C1408 C 0.49845 0.4155 0.73616 0.0
C1409 C 0.49088 0.42887 0.77091 0.0
C1410 C 0.4915 0.44663 0.75281 0.0
C1411 C 0.49902 0.39683 0.75769 0.0
C1412 C 0.48973 0.38361 0.72704 0.0
C1413 C 0.50858 0.39214 0.80892 0.0
C1414 C 0.51956 0.40531 0.84088 0.0
C1415 C 0.51654 0.40864 0.90089 0.0
C1416 C 0.52663 0.42137 0.93055 0.0
C1417 C 0.53981 0.43082 0.90065 0.0
C1418 C 0.54302 0.42747 0.84114 0.0
C1419 C 0.53305 0.41468 0.81141 0.0
H1420 H 0.54756 0.44073 0.92359 0.0
H1421 H 0.45724 0.3178 0.60822 0.0
H1422 H 0.20421 0.46788 0.8426 0.0
H1423 H 0.17443 0.47055 0.80183 0.0
H1424 H 0.16826 0.52115 0.88735 0.0
H1425 H 0.19764 0.5181 0.93115 0.0
H1426 H 0.14021 0.50256 0.90624 0.0
H1427 H 0.17283 0.51659 0.72931 0.0
H1428 H 0.19604 0.51114 0.65497 0.0
H1429 H 0.1722 0.46112 0.61248 0.0
H1430 H 0.14863 0.46637 0.68575 0.0
H1431 H 0.06805 0.51719 0.66206 0.0
H1432 H 0.0992 0.51601 0.69166 0.0
H1433 H 0.08582 0.47922 0.83049 0.0
H1434 H 0.05458 0.48106 0.80304 0.0
H1435 H 0.12398 0.49274 0.69728 0.0
H1436 H 0.11382 0.48328 0.94731 0.0
H1437 H 0.09125 0.48909 0.02336 0.0
H1438 H 0.07082 0.53231 0.92094 0.0
H1439 H 0.09366 0.52724 0.84516 0.0
C1440 C 0.19657 0.47962 0.85285 0.0
C1441 C 0.20347 0.49271 0.89074 0.0
C1442 C 0.17954 0.48124 0.82871 0.0
C1443 C 0.16898 0.49614 0.84088 0.0
C1444 C 0.17605 0.50951 0.87708 0.0
C1445 C 0.19303 0.50783 0.90165 0.0
C1446 C 0.15023 0.49728 0.81931 0.0
C1447 C 0.13671 0.50049 0.86045 0.0
C1448 C 0.14549 0.49462 0.75955 0.0
C1449 C 0.15907 0.49182 0.71336 0.0
C1450 C 0.1725 0.50445 0.70393 0.0
C1451 C 0.18568 0.50142 0.66184 0.0
C1452 C 0.18557 0.48578 0.62902 0.0
C1453 C 0.17216 0.47326 0.63767 0.0
C1454 C 0.15885 0.47629 0.67925 0.0
C1455 C 0.07171 0.50893 0.69918 0.0
C1456 C 0.05868 0.4995 0.73089 0.0
C1457 C 0.0896 0.50819 0.71592 0.0
C1458 C 0.09497 0.49785 0.76436 0.0
C1459 C 0.08207 0.48776 0.79421 0.0
C1460 C 0.06415 0.48878 0.77829 0.0
C1461 C 0.11393 0.49797 0.78436 0.0
C1462 C 0.12748 0.49493 0.74299 0.0
C1463 C 0.11873 0.50097 0.84397 0.0
C1464 C 0.10536 0.50474 0.89025 0.0
C1465 C 0.10463 0.49416 0.94127 0.0
C1466 C 0.09181 0.49735 0.98437 0.0
C1467 C 0.07962 0.51111 0.97697 0.0
C1468 C 0.08033 0.52177 0.92667 0.0
C1469 C 0.09324 0.51876 0.88368 0.0
H1470 H 0.06962 0.5135 0.01019 0.0
H1471 H 0.19588 0.48333 0.59697 0.0
H1472 H 0.98936 0.80472 0.46663 0.0
H1473 H 0.98709 0.83414 0.51182 0.0
H1474 H 0.02618 0.85425 0.39011 0.0
H1475 H 0.02867 0.82499 0.34561 0.0
H1476 H 0.03256 0.86775 0.49295 0.0
H1477 H 0.9805 0.86154 0.37245 0.0
H1478 H 0.95293 0.84734 0.33791 0.0
H1479 H 0.93017 0.85269 0.51023 0.0
H1480 H 0.95771 0.86672 0.54598 0.0
H1481 H 0.98532 0.95908 0.50651 0.0
H1482 H 0.98686 0.92853 0.47081 0.0
H1483 H 0.01294 0.91261 0.63131 0.0
H1484 H 0.01178 0.94308 0.66665 0.0
H1485 H 0.97399 0.89713 0.50987 0.0
H1486 H 0.04513 0.88001 0.59236 0.0
H1487 H 0.07251 0.89575 0.61968 0.0
H1488 H 0.05783 0.93954 0.50916 0.0
H1489 H 0.03061 0.92381 0.47946 0.0
C1490 C 0.99746 0.81542 0.44952 0.0
C1491 C 0.00924 0.8124 0.40254 0.0
C1492 C 0.99615 0.83227 0.47538 0.0
C1493 C 0.00635 0.84658 0.45415 0.0
C1494 C 0.01824 0.8435 0.40772 0.0
C1495 C 0.01966 0.82668 0.38229 0.0
C1496 C 0.00444 0.86487 0.47894 0.0
C1497 C 0.01973 0.87412 0.49688 0.0
C1498 C 0.98777 0.87342 0.48341 0.0
C1499 C 0.97122 0.86501 0.46201 0.0
C1500 C 0.96966 0.85957 0.40306 0.0
C1501 C 0.95404 0.85157 0.38326 0.0
C1502 C 0.93983 0.84907 0.42189 0.0
C1503 C 0.9412 0.85461 0.48038 0.0
C1504 C 0.9568 0.86259 0.50043 0.0
C1505 C 0.99132 0.94909 0.53442 0.0
C1506 C 0.99842 0.95366 0.58968 0.0
C1507 C 0.99211 0.93158 0.51401 0.0
C1508 C 1.00013 0.91823 0.5481 0.0
C1509 C 0.00683 0.92265 0.60385 0.0
C1510 C 0.00605 0.94014 0.62422 0.0
C1511 C 1.00205 0.89989 0.52438 0.0
C1512 C 0.9868 0.89068 0.5065 0.0
C1513 C 0.01881 0.89152 0.51904 0.0
C1514 C 0.03557 0.90081 0.53457 0.0
C1515 C 0.04772 0.89294 0.57364 0.0
C1516 C 0.06326 0.90186 0.58942 0.0
C1517 C 0.06686 0.91867 0.5664 0.0
C1518 C 0.05501 0.92652 0.52699 0.0
C1519 C 0.03953 0.91759 0.51061 0.0
H1520 H 0.07885 0.92559 0.57895 0.0
H1521 H 0.92774 0.84288 0.40647 0.0
H1522 H 0.69409 0.97314 0.40886 0.0
H1523 H 0.66449 0.97452 0.45219 0.0
H1524 H 0.67655 0.02576 0.52563 0.0
H1525 H 0.7064 0.02444 0.48249 0.0
H1526 H 0.65731 1.00217 0.60437 0.0
H1527 H 0.65386 0.0247 0.40421 0.0
H1528 H 0.65832 0.02296 0.29681 0.0
H1529 H 0.6263 0.97589 0.29005 0.0
H1530 H 0.62185 0.97723 0.39747 0.0
H1531 H 0.56943 0.02941 0.66867 0.0
H1532 H 0.60006 0.0272 0.63478 0.0
H1533 H 0.58553 0.98357 0.52197 0.0
H1534 H 0.55466 0.98639 0.55352 0.0
H1535 H 0.60669 1.00293 0.46486 0.0
H1536 H 0.60895 0.97927 0.65951 0.0
H1537 H 0.60335 0.97943 0.76635 0.0
H1538 H 0.63731 0.02476 0.78586 0.0
H1539 H 0.64279 0.02514 0.67877 0.0
C1540 C 0.69063 0.98457 0.43517 0.0
C1541 C 0.70271 0.99867 0.44223 0.0
C1542 C 0.67361 0.98539 0.4596 0.0
C1543 C 0.66822 1.00029 0.49186 0.0
C1544 C 0.68041 0.01413 0.5009 0.0
C1545 C 0.69743 0.0134 0.47592 0.0
C1546 C 0.64958 1.00177 0.51319 0.0
C1547 C 0.64622 1.00256 0.57397 0.0
C1548 C 0.63507 1.00168 0.47365 0.0
C1549 C 0.63766 1.00098 0.40895 0.0
C1550 C 0.64788 0.01391 0.37986 0.0
C1551 C 0.65039 0.01301 0.31895 0.0
C1552 C 0.64263 0.99931 0.28659 0.0
C1553 C 0.63231 0.9865 0.31508 0.0
C1554 C 0.62978 0.98733 0.37598 0.0
C1555 C 0.57275 0.01931 0.63672 0.0
C1556 C 0.55957 0.00803 0.61398 0.0
C1557 C 0.59036 0.01798 0.61758 0.0
C1558 C 0.59536 0.00496 0.57654 0.0
C1559 C 0.58215 0.99372 0.55368 0.0
C1560 C 0.56446 0.99531 0.57186 0.0
C1561 C 0.61422 1.00331 0.5564 0.0
C1562 C 0.61767 1.0025 0.49566 0.0
C1563 C 0.62876 1.00298 0.59616 0.0
C1564 C 0.62611 1.00236 0.66093 0.0
C1565 C 0.61516 0.98934 0.68651 0.0
C1566 C 0.61197 0.98936 0.74712 0.0
C1567 C 0.61987 1.00218 0.78285 0.0
C1568 C 0.63111 0.0149 0.75808 0.0
C1569 C 0.63427 0.015 0.6974 0.0
H1570 H 0.61738 1.00218 0.82977 0.0
H1571 H 0.64459 0.99863 0.23944 0.0
H1572 H 0.52925 0.71103 0.476 0.0
H1573 H 0.52962 0.68117 0.51906 0.0
H1574 H 0.48963 0.66446 0.39533 0.0
H1575 H 0.4891 0.69413 0.35263 0.0
H1576 H 0.48241 0.6507 0.49868 0.0
H1577 H 0.53449 0.65454 0.37672 0.0
H1578 H 0.56281 0.66732 0.34257 0.0
H1579 H 0.58547 0.65924 0.51395 0.0
H1580 H 0.55719 0.64662 0.54933 0.0
H1581 H 0.52467 0.55675 0.50386 0.0
H1582 H 0.5244 0.58762 0.47074 0.0
H1583 H 0.49947 0.60323 0.6334 0.0
H1584 H 0.49938 0.5724 0.66613 0.0
H1585 H 0.53902 0.61756 0.51146 0.0
H1586 H 0.46991 0.63945 0.59835 0.0
H1587 H 0.4415 0.62592 0.6278 0.0
H1588 H 0.45233 0.58076 0.5193 0.0
H1589 H 0.48027 0.59447 0.48605 0.0
C1590 C 0.52053 0.70099 0.45798 0.0
C1591 C 0.50911 0.70509 0.41087 0.0
C1592 C 0.52076 0.68389 0.48263 0.0
C1593 C 0.50977 0.6704 0.46015 0.0
C1594 C 0.49817 0.67457 0.41382 0.0
C1595 C 0.49786 0.69163 0.38948 0.0
C1596 C 0.51057 0.65185 0.48353 0.0
C1597 C 0.4948 0.64348 0.50166 0.0
C1598 C 0.52668 0.64226 0.48701 0.0
C1599 C 0.54368 0.6498 0.4658 0.0
C1600 C 0.54548 0.65561 0.40722 0.0
C1601 C 0.56152 0.6628 0.38763 0.0
C1602 C 0.57591 0.66413 0.42611 0.0
C1603 C 0.5743 0.65823 0.48423 0.0
C1604 C 0.55827 0.65104 0.50406 0.0
C1605 C 0.51918 0.56673 0.53277 0.0
C1606 C 0.51206 0.56199 0.58788 0.0
C1607 C 0.51911 0.58443 0.51383 0.0
C1608 C 0.51182 0.59782 0.5493 0.0
C1609 C 0.50505 0.59319 0.60488 0.0
C1610 C 0.5051 0.57549 0.62376 0.0
C1611 C 0.5109 0.61647 0.52721 0.0
C1612 C 0.52664 0.62482 0.50904 0.0
C1613 C 0.4947 0.62596 0.52336 0.0
C1614 C 0.47746 0.61788 0.54064 0.0
C1615 C 0.46621 0.62671 0.58029 0.0
C1616 C 0.45012 0.61904 0.59741 0.0
C1617 C 0.44519 0.60245 0.5757 0.0
C1618 C 0.45618 0.59362 0.53601 0.0
C1619 C 0.47211 0.60138 0.51776 0.0
H1620 H 0.43281 0.59647 0.58949 0.0
H1621 H 0.58833 0.6697 0.41086 0.0
H1622 H 0.82119 0.50067 0.34766 0.0
H1623 H 0.85034 0.49864 0.39347 0.0
H1624 H 0.82661 0.50585 0.56456 0.0
H1625 H 0.79732 0.50836 0.5184 0.0
H1626 H 0.85482 0.5249 0.55993 0.0
H1627 H 0.84364 0.46448 0.51493 0.0
H1628 H 0.83526 0.43869 0.45448 0.0
H1629 H 0.87906 0.44888 0.33842 0.0
H1630 H 0.88756 0.4749 0.39771 0.0
H1631 H 0.9373 0.50174 0.70287 0.0
H1632 H 0.90638 0.50109 0.6695 0.0
H1633 H 0.9239 0.50404 0.48909 0.0
H1634 H 0.95475 0.50487 0.52187 0.0
H1635 H 0.89805 0.47808 0.50722 0.0
H1636 H 0.90799 0.53963 0.55548 0.0
H1637 H 0.91564 0.56476 0.6199 0.0
H1638 H 0.87298 0.55084 0.7365 0.0
H1639 H 0.86544 0.52532 0.67378 0.0
C1640 C 0.8221 0.50152 0.39516 0.0
C1641 C 0.80683 0.5045 0.42934 0.0
C1642 C 0.83885 0.50034 0.42145 0.0
C1643 C 0.84081 0.50176 0.48284 0.0
C1644 C 0.82556 0.50467 0.51717 0.0
C1645 C 0.80878 0.50607 0.49075 0.0
C1646 C 0.85883 0.50087 0.51056 0.0
C1647 C 0.86412 0.51443 0.54919 0.0
C1648 C 0.8712 0.48738 0.49639 0.0
C1649 C 0.86615 0.47174 0.46053 0.0
C1650 C 0.85141 0.46131 0.47627 0.0
C1651 C 0.84665 0.44663 0.44224 0.0
C1652 C 0.8566 0.44218 0.39257 0.0
C1653 C 0.87135 0.45236 0.37688 0.0
C1654 C 0.87616 0.46706 0.41073 0.0
C1655 C 0.93459 0.50227 0.65606 0.0
C1656 C 0.94859 0.50342 0.61508 0.0
C1657 C 0.91688 0.50194 0.63706 0.0
C1658 C 0.91277 0.50257 0.57671 0.0
C1659 C 0.92671 0.50353 0.53584 0.0
C1660 C 0.94438 0.50409 0.55474 0.0
C1661 C 0.89401 0.5022 0.55565 0.0
C1662 C 0.88863 0.48839 0.51832 0.0
C1663 C 0.88149 0.51528 0.57185 0.0
C1664 C 0.88629 0.53042 0.61028 0.0
C1665 C 0.90042 0.54177 0.59533 0.0
C1666 C 0.90473 0.55609 0.63154 0.0
C1667 C 0.89488 0.55935 0.68245 0.0
C1668 C 0.8807 0.54826 0.6973 0.0
C1669 C 0.87642 0.53384 0.66148 0.0
H1670 H 0.89818 0.57053 0.71012 0.0
H1671 H 0.85289 0.43081 0.36629 0.0
loop_
_geom_bond_atom_site_label_1
_geom_bond_atom_site_label_2
_geom_bond_distance
_geom_bond_site_symmetry_2
_ccdc_geom_bond_type
C0 C1 1.386 . S
C0 C2 1.397 . S
C0 H24 0.931 . S
C1 C0 1.386 . S
C1 C5 1.397 . S
C2 C0 1.397 . S
C2 C3 1.384 . S
C2 H25 0.930 . S
C3 C2 1.384 . S
C3 C4 1.377 . S
C3 C6 1.481 . S
C4 C3 1.377 . S
C4 C5 1.389 . S
C4 H26 0.929 . S
C5 C1 1.397 . S
C5 C4 1.389 . S
C5 H27 0.931 . S
C6 C3 1.481 . S
C6 C7 1.387 . S
C6 C11 1.390 . S
C7 C6 1.387 . S
C7 C8 1.401 . S
C7 H28 0.930 . S
C8 C7 1.401 . S
C8 C9 1.376 . S
C8 C17 1.511 . S
C9 C8 1.376 . S
C9 C10 1.392 . S
C9 H30 0.931 . S
C10 C9 1.392 . S
C10 C11 1.361 . S
C10 C12 1.500 . S
C11 C6 1.390 . S
C11 C10 1.361 . S
C11 H29 0.931 . S
C12 C10 1.500 . S
C12 C13 1.371 . S
C12 C14 1.365 . S
C13 C12 1.371 . S
C13 C23 1.386 . S
C13 H31 0.931 . S
C14 C12 1.365 . S
C14 C15 1.409 . S
C14 H32 0.929 . S
C15 C14 1.409 . S
C15 C16 1.380 . S
C15 H33 0.930 . S
C16 C15 1.380 . S
C16 C23 1.357 . S
C17 C8 1.511 . S
C17 C18 1.341 . S
C17 C19 1.371 . S
C18 C17 1.341 . S
C18 C22 1.394 . S
C18 H34 0.930 . S
C19 C17 1.371 . S
C19 C20 1.392 . S
C19 H35 0.931 . S
C20 C19 1.392 . S
C20 C21 1.331 . S
C20 H38 0.932 . S
C21 C20 1.331 . S
C21 C22 1.336 . S
C22 C18 1.394 . S
C22 C21 1.336 . S
C22 H37 0.929 . S
C23 C13 1.386 . S
C23 C16 1.357 . S
C23 H36 0.928 . S
H24 C0 0.931 . S
H25 C2 0.930 . S
H26 C4 0.929 . S
H27 C5 0.931 . S
H28 C7 0.930 . S
H29 C11 0.931 . S
H30 C9 0.931 . S
H31 C13 0.931 . S
H32 C14 0.929 . S
H33 C15 0.930 . S
H34 C18 0.930 . S
H35 C19 0.931 . S
H36 C23 0.928 . S
H37 C22 0.929 . S
H38 C20 0.932 . S
C39 C40 1.394 . S
C39 C41 1.397 . S
C39 H63 0.931 . S
C40 C39 1.394 . S
C40 C44 1.389 1_655 S
C41 C39 1.397 . S
C41 C42 1.389 . S
C41 H64 0.930 . S
C42 C41 1.389 . S
C42 C43 1.373 1_655 S
C42 C45 1.480 . S
C43 C42 1.373 1_455 S
C43 C44 1.389 . S
C43 H65 0.929 . S
C44 C40 1.389 1_455 S
C44 C43 1.389 . S
C44 H66 0.931 . S
C45 C42 1.480 . S
C45 C46 1.388 . S
C45 C50 1.390 . S
C46 C45 1.388 . S
C46 C47 1.402 . S
C46 H67 0.930 . S
C47 C46 1.402 . S
C47 C48 1.376 . S
C47 C56 1.513 . S
C48 C47 1.376 . S
C48 C49 1.392 . S
C48 H69 0.934 . S
C49 C48 1.392 . S
C49 C50 1.361 . S
C49 C51 1.499 1_655 S
C50 C45 1.390 . S
C50 C49 1.361 . S
C50 H68 0.931 . S
C51 C49 1.499 1_455 S
C51 C52 1.364 1_455 S
C51 C53 1.373 . S
C52 C51 1.364 1_655 S
C52 C62 1.386 . S
C52 H70 0.931 . S
C53 C51 1.373 . S
C53 C54 1.409 . S
C53 H71 0.929 . S
C54 C53 1.409 . S
C54 C55 1.377 . S
C54 H72 0.930 . S
C55 C54 1.377 . S
C55 C62 1.360 1_455 S
C56 C47 1.513 . S
C56 C57 1.341 . S
C56 C58 1.371 1_655 S
C57 C56 1.341 . S
C57 C61 1.394 . S
C57 H73 0.930 . S
C58 C56 1.371 1_455 S
C58 C59 1.392 . S
C58 H74 0.931 . S
C59 C58 1.392 . S
C59 C60 1.322 1_455 S
C59 H77 0.932 . S
C60 C59 1.322 1_655 S
C60 C61 1.345 . S
C61 C57 1.394 . S
C61 C60 1.345 . S
C61 H76 0.929 . S
C62 C52 1.386 . S
C62 C55 1.360 1_655 S
C62 H75 0.928 . S
H63 C39 0.931 . S
H64 C41 0.930 . S
H65 C43 0.929 . S
H66 C44 0.931 . S
H67 C46 0.930 . S
H68 C50 0.931 . S
H69 C48 0.934 . S
H70 C52 0.931 . S
H71 C53 0.929 . S
H72 C54 0.930 . S
H73 C57 0.930 . S
H74 C58 0.931 . S
H75 C62 0.928 . S
H76 C61 0.929 . S
H77 C59 0.932 . S
C78 C79 1.386 . S
C78 C80 1.397 . S
C78 H102 0.931 . S
C79 C78 1.386 . S
C79 C83 1.397 1_565 S
C80 C78 1.397 . S
C80 C81 1.384 . S
C80 H103 0.930 . S
C81 C80 1.384 . S
C81 C82 1.377 1_565 S
C81 C84 1.481 . S
C82 C81 1.377 1_545 S
C82 C83 1.389 . S
C82 H104 0.929 . S
C83 C79 1.397 1_545 S
C83 C82 1.389 . S
C83 H105 0.931 . S
C84 C81 1.481 . S
C84 C85 1.387 . S
C84 C89 1.390 . S
C85 C84 1.387 . S
C85 C86 1.401 . S
C85 H106 0.930 . S
C86 C85 1.401 . S
C86 C87 1.376 . S
C86 C95 1.511 . S
C87 C86 1.376 . S
C87 C88 1.392 . S
C87 H108 0.931 . S
C88 C87 1.392 . S
C88 C89 1.361 . S
C88 C90 1.500 . S
C89 C84 1.390 . S
C89 C88 1.361 . S
C89 H107 0.931 . S
C90 C88 1.500 . S
C90 C91 1.371 . S
C90 C92 1.365 1_565 S
C91 C90 1.371 . S
C91 C101 1.386 . S
C91 H109 0.931 . S
C92 C90 1.365 1_545 S
C92 C93 1.409 . S
C92 H110 0.929 . S
C93 C92 1.409 . S
C93 C94 1.380 1_545 S
C93 H111 0.930 . S
C94 C93 1.380 1_565 S
C94 C101 1.357 . S
C95 C86 1.511 . S
C95 C96 1.341 . S
C95 C97 1.368 1_565 S
C96 C95 1.341 . S
C96 C100 1.394 . S
C96 H112 0.930 . S
C97 C95 1.368 1_545 S
C97 C98 1.392 . S
C97 H113 0.934 . S
C98 C97 1.392 . S
C98 C99 1.316 1_545 S
C98 H116 0.950 . S
C99 C98 1.316 1_565 S
C99 C100 1.336 . S
C100 C96 1.394 . S
C100 C99 1.336 . S
C100 H115 0.929 . S
C101 C91 1.386 . S
C101 C94 1.357 . S
C101 H114 0.928 . S
H102 C78 0.931 . S
H103 C80 0.930 . S
H104 C82 0.929 . S
H105 C83 0.931 . S
H106 C85 0.930 . S
H107 C89 0.931 . S
H108 C87 0.931 . S
H109 C91 0.931 . S
H110 C92 0.929 . S
H111 C93 0.930 . S
H112 C96 0.930 . S
H113 C97 0.934 . S
H114 C101 0.928 . S
H115 C100 0.929 . S
H116 C98 0.950 . S
C117 C118 1.386 . S
C117 C119 1.397 . S
C117 H141 0.931 . S
C118 C117 1.386 . S
C118 C122 1.397 . S
C119 C117 1.397 . S
C119 C120 1.384 . S
C119 H142 0.930 . S
C120 C119 1.384 . S
C120 C121 1.377 . S
C120 C123 1.481 . S
C121 C120 1.377 . S
C121 C122 1.389 . S
C121 H143 0.929 . S
C122 C118 1.397 . S
C122 C121 1.389 . S
C122 H144 0.931 . S
C123 C120 1.481 . S
C123 C124 1.387 . S
C123 C128 1.390 . S
C124 C123 1.387 . S
C124 C125 1.401 . S
C124 H145 0.930 . S
C125 C124 1.401 . S
C125 C126 1.376 . S
C125 C134 1.511 . S
C126 C125 1.376 . S
C126 C127 1.392 . S
C126 H147 0.931 . S
C127 C126 1.392 . S
C127 C128 1.361 . S
C127 C129 1.500 . S
C128 C123 1.390 . S
C128 C127 1.361 . S
C128 H146 0.931 . S
C129 C127 1.500 . S
C129 C130 1.371 . S
C129 C131 1.365 . S
C130 C129 1.371 . S
C130 C140 1.386 . S
C130 H148 0.931 . S
C131 C129 1.365 . S
C131 C132 1.409 . S
C131 H149 0.929 . S
C132 C131 1.409 . S
C132 C133 1.380 . S
C132 H150 0.930 . S
C133 C132 1.380 . S
C133 C140 1.357 . S
C134 C125 1.511 . S
C134 C135 1.341 . S
C134 C136 1.371 . S
C135 C134 1.341 . S
C135 C139 1.394 . S
C135 H151 0.930 . S
C136 C134 1.371 . S
C136 C137 1.392 . S
C136 H152 0.931 . S
C137 C136 1.392 . S
C137 C138 1.331 . S
C137 H155 0.932 . S
C138 C137 1.331 . S
C138 C139 1.336 . S
C139 C135 1.394 . S
C139 C138 1.336 . S
C139 H154 0.929 . S
C140 C130 1.386 . S
C140 C133 1.357 . S
C140 H153 0.928 . S
H141 C117 0.931 . S
H142 C119 0.930 . S
H143 C121 0.929 . S
H144 C122 0.931 . S
H145 C124 0.930 . S
H146 C128 0.931 . S
H147 C126 0.931 . S
H148 C130 0.931 . S
H149 C131 0.929 . S
H150 C132 0.930 . S
H151 C135 0.930 . S
H152 C136 0.931 . S
H153 C140 0.928 . S
H154 C139 0.929 . S
H155 C137 0.932 . S
C156 C157 1.386 . S
C156 C158 1.397 . S
C156 H180 0.931 . S
C157 C156 1.386 . S
C157 C161 1.397 . S
C158 C156 1.397 . S
C158 C159 1.384 . S
C158 H181 0.930 . S
C159 C158 1.384 . S
C159 C160 1.377 . S
C159 C162 1.481 . S
C160 C159 1.377 . S
C160 C161 1.389 . S
C160 H182 0.929 . S
C161 C157 1.397 . S
C161 C160 1.389 . S
C161 H183 0.931 . S
C162 C159 1.481 . S
C162 C163 1.387 . S
C162 C167 1.390 . S
C163 C162 1.387 . S
C163 C164 1.401 . S
C163 H184 0.930 . S
C164 C163 1.401 . S
C164 C165 1.376 1_554 S
C164 C173 1.511 . S
C165 C164 1.376 1_556 S
C165 C166 1.392 . S
C165 H186 0.931 . S
C166 C165 1.392 . S
C166 C167 1.361 1_556 S
C166 C168 1.500 . S
C167 C162 1.390 . S
C167 C166 1.361 1_554 S
C167 H185 0.931 . S
C168 C166 1.500 . S
C168 C169 1.371 . S
C168 C170 1.365 . S
C169 C168 1.371 . S
C169 C179 1.386 . S
C169 H187 0.931 . S
C170 C168 1.365 . S
C170 C171 1.409 . S
C170 H188 0.929 . S
C171 C170 1.409 . S
C171 C172 1.380 . S
C171 H189 0.930 . S
C172 C171 1.380 . S
C172 C179 1.357 . S
C173 C164 1.511 . S
C173 C174 1.341 . S
C173 C175 1.371 . S
C174 C173 1.341 . S
C174 C178 1.394 . S
C174 H190 0.930 . S
C175 C173 1.371 . S
C175 C176 1.392 . S
C175 H191 0.931 1_554 S
C176 C175 1.392 . S
C176 C177 1.331 . S
C176 H194 0.932 . S
C177 C176 1.331 . S
C177 C178 1.336 . S
C178 C174 1.394 . S
C178 C177 1.336 . S
C178 H193 0.929 . S
C179 C169 1.386 . S
C179 C172 1.357 . S
C179 H192 0.928 . S
H180 C156 0.931 . S
H181 C158 0.930 . S
H182 C160 0.929 . S
H183 C161 0.931 . S
H184 C163 0.930 . S
H185 C167 0.931 . S
H186 C165 0.931 . S
H187 C169 0.931 . S
H188 C170 0.929 . S
H189 C171 0.930 . S
H190 C174 0.930 . S
H191 C175 0.931 1_556 S
H192 C179 0.928 . S
H193 C178 0.929 . S
H194 C176 0.932 . S
C195 C196 1.386 . S
C195 C197 1.397 . S
C195 H219 0.931 . S
C196 C195 1.386 . S
C196 C200 1.398 1_655 S
C197 C195 1.397 . S
C197 C198 1.389 1_655 S
C197 H220 0.930 . S
C198 C197 1.389 1_455 S
C198 C199 1.373 . S
C198 C201 1.480 1_455 S
C199 C198 1.373 . S
C199 C200 1.389 . S
C199 H221 0.929 . S
C200 C196 1.398 1_455 S
C200 C199 1.389 . S
C200 H222 0.931 . S
C201 C198 1.480 1_655 S
C201 C202 1.386 . S
C201 C206 1.390 . S
C202 C201 1.386 . S
C202 C203 1.400 . S
C202 H223 0.935 . S
C203 C202 1.400 . S
C203 C204 1.376 1_554 S
C203 C212 1.512 . S
C204 C203 1.376 1_556 S
C204 C205 1.392 1_655 S
C204 H225 0.933 . S
C205 C204 1.392 1_455 S
C205 C206 1.361 1_456 S
C205 C207 1.499 . S
C206 C201 1.390 . S
C206 C205 1.361 1_654 S
C206 H224 0.931 1_655 S
C207 C205 1.499 . S
C207 C208 1.357 1_455 S
C207 C209 1.380 . S
C208 C207 1.357 1_655 S
C208 C218 1.386 . S
C208 H226 0.931 . S
C209 C207 1.380 . S
C209 C210 1.409 . S
C209 H227 0.929 . S
C210 C209 1.409 . S
C210 C211 1.384 . S
C210 H228 0.930 . S
C211 C210 1.384 . S
C211 C218 1.353 1_455 S
C212 C203 1.512 . S
C212 C213 1.341 . S
C212 C214 1.371 1_655 S
C213 C212 1.341 . S
C213 C217 1.394 . S
C213 H229 0.930 . S
C214 C212 1.371 1_455 S
C214 C215 1.392 . S
C214 H230 0.931 1_554 S
C215 C214 1.392 . S
C215 C216 1.327 1_455 S
C215 H233 0.932 . S
C216 C215 1.327 1_655 S
C216 C217 1.340 . S
C217 C213 1.394 . S
C217 C216 1.340 . S
C217 H232 0.929 . S
C218 C208 1.386 . S
C218 C211 1.353 1_655 S
C218 H231 0.928 . S
H219 C195 0.931 . S
H220 C197 0.930 . S
H221 C199 0.929 . S
H222 C200 0.931 . S
H223 C202 0.935 . S
H224 C206 0.931 1_455 S
H225 C204 0.933 . S
H226 C208 0.931 . S
H227 C209 0.929 . S
H228 C210 0.930 . S
H229 C213 0.930 . S
H230 C214 0.931 1_556 S
H231 C218 0.928 . S
H232 C217 0.929 . S
H233 C215 0.932 . S
C234 C235 1.386 1_565 S
C234 C236 1.397 . S
C234 H258 0.931 . S
C235 C234 1.386 1_545 S
C235 C239 1.397 . S
C236 C234 1.397 . S
C236 C237 1.384 1_565 S
C236 H259 0.930 . S
C237 C236 1.384 1_545 S
C237 C238 1.377 . S
C237 C240 1.481 . S
C238 C237 1.377 . S
C238 C239 1.389 . S
C238 H260 0.929 . S
C239 C235 1.397 . S
C239 C238 1.389 . S
C239 H261 0.931 . S
C240 C237 1.481 . S
C240 C241 1.387 . S
C240 C245 1.390 . S
C241 C240 1.387 . S
C241 C242 1.401 . S
C241 H262 0.930 . S
C242 C241 1.401 . S
C242 C243 1.376 1_554 S
C242 C251 1.511 . S
C243 C242 1.376 1_556 S
C243 C244 1.392 . S
C243 H264 0.931 . S
C244 C243 1.392 . S
C244 C245 1.361 1_556 S
C244 C246 1.500 . S
C245 C240 1.390 . S
C245 C244 1.361 1_554 S
C245 H263 0.931 . S
C246 C244 1.500 . S
C246 C247 1.371 1_545 S
C246 C248 1.365 . S
C247 C246 1.371 1_565 S
C247 C257 1.386 . S
C247 H265 0.931 . S
C248 C246 1.365 . S
C248 C249 1.409 . S
C248 H266 0.929 . S
C249 C248 1.409 . S
C249 C250 1.380 . S
C249 H267 0.930 . S
C250 C249 1.380 . S
C250 C257 1.357 1_545 S
C251 C242 1.511 . S
C251 C252 1.341 1_545 S
C251 C253 1.371 . S
C252 C251 1.341 1_565 S
C252 C256 1.396 . S
C252 H268 0.930 . S
C253 C251 1.371 . S
C253 C254 1.392 . S
C253 H269 0.931 1_554 S
C254 C253 1.392 . S
C254 C255 1.331 . S
C254 H272 0.932 . S
C255 C254 1.331 . S
C255 C256 1.321 1_545 S
C256 C252 1.396 . S
C256 C255 1.321 1_565 S
C256 H271 0.946 . S
C257 C247 1.386 . S
C257 C250 1.357 1_565 S
C257 H270 0.928 . S
H258 C234 0.931 . S
H259 C236 0.930 . S
H260 C238 0.929 . S
H261 C239 0.931 . S
H262 C241 0.930 . S
H263 C245 0.931 . S
H264 C243 0.931 . S
H265 C247 0.931 . S
H266 C248 0.929 . S
H267 C249 0.930 . S
H268 C252 0.930 . S
H269 C253 0.931 1_556 S
H270 C257 0.928 . S
H271 C256 0.946 . S
H272 C254 0.932 . S
C273 C274 1.386 . S
C273 C275 1.397 . S
C273 H297 0.931 . S
C274 C273 1.386 . S
C274 C278 1.397 . S
C275 C273 1.397 . S
C275 C276 1.384 . S
C275 H298 0.930 . S
C276 C275 1.384 . S
C276 C277 1.377 . S
C276 C279 1.481 . S
C277 C276 1.377 . S
C277 C278 1.389 . S
C277 H299 0.929 . S
C278 C274 1.397 . S
C278 C277 1.389 . S
C278 H300 0.931 . S
C279 C276 1.481 . S
C279 C280 1.387 . S
C279 C284 1.390 1_556 S
C280 C279 1.387 . S
C280 C281 1.401 1_556 S
C280 H301 0.930 . S
C281 C280 1.401 1_554 S
C281 C282 1.376 . S
C281 C290 1.511 . S
C282 C281 1.376 . S
C282 C283 1.392 . S
C282 H303 0.931 . S
C283 C282 1.392 . S
C283 C284 1.361 . S
C283 C285 1.500 . S
C284 C279 1.390 1_554 S
C284 C283 1.361 . S
C284 H302 0.931 . S
C285 C283 1.500 . S
C285 C286 1.371 . S
C285 C287 1.365 . S
C286 C285 1.371 . S
C286 C296 1.386 . S
C286 H304 0.931 . S
C287 C285 1.365 . S
C287 C288 1.409 . S
C287 H305 0.929 . S
C288 C287 1.409 . S
C288 C289 1.380 . S
C288 H306 0.930 . S
C289 C288 1.380 . S
C289 C296 1.357 . S
C290 C281 1.511 . S
C290 C291 1.341 . S
C290 C292 1.371 . S
C291 C290 1.341 . S
C291 C295 1.394 . S
C291 H307 0.930 1_554 S
C292 C290 1.371 . S
C292 C293 1.392 . S
C292 H308 0.931 . S
C293 C292 1.392 . S
C293 C294 1.331 . S
C293 H311 0.932 . S
C294 C293 1.331 . S
C294 C295 1.336 . S
C295 C291 1.394 . S
C295 C294 1.336 . S
C295 H310 0.929 . S
C296 C286 1.386 . S
C296 C289 1.357 . S
C296 H309 0.928 . S
H297 C273 0.931 . S
H298 C275 0.930 . S
H299 C277 0.929 . S
H300 C278 0.931 . S
H301 C280 0.930 . S
H302 C284 0.931 . S
H303 C282 0.931 . S
H304 C286 0.931 . S
H305 C287 0.929 . S
H306 C288 0.930 . S
H307 C291 0.930 1_556 S
H308 C292 0.931 . S
H309 C296 0.928 . S
H310 C295 0.929 . S
H311 C293 0.932 . S
Sm312 C314 2.846 . S
Sm312 O332 2.543 . S
Sm312 O333 2.450 . S
Sm312 O334 2.681 1_565 S
Sm312 O335 2.464 . S
Sm312 O336 2.396 . S
Sm312 O340 2.386 1_455 S
Sm312 O343 2.408 1_565 S
Sm313 C323 2.846 . S
Sm313 O334 2.386 1_655 S
Sm313 O337 2.408 1_545 S
Sm313 O338 2.543 . S
Sm313 O339 2.450 . S
Sm313 O340 2.681 1_545 S
Sm313 O341 2.464 . S
Sm313 O342 2.396 . S
C314 Sm312 2.846 . S
C314 C315 1.506 . S
C314 O332 1.261 . S
C314 O333 1.242 . S
C315 C314 1.506 . S
C315 C316 1.358 . S
C315 C320 1.382 . S
C316 C315 1.358 . S
C316 C317 1.385 . S
C316 H344 0.930 1_455 S
C317 C316 1.385 . S
C317 C318 1.395 . S
C317 H345 0.929 1_455 S
C318 C317 1.395 . S
C318 C319 1.335 . S
C319 C318 1.335 . S
C319 C320 1.398 . S
C319 H346 0.930 . S
C320 C315 1.382 . S
C320 C319 1.398 . S
C320 H347 0.929 . S
C321 O334 1.270 1_565 S
C321 O335 1.253 . S
C322 O336 1.252 1_655 S
C322 O337 1.272 . S
C323 Sm313 2.846 . S
C323 C324 1.506 . S
C323 O338 1.261 . S
C323 O339 1.242 . S
C324 C323 1.506 . S
C324 C325 1.358 . S
C324 C329 1.382 . S
C325 C324 1.358 . S
C325 C326 1.385 . S
C325 H348 0.930 1_655 S
C326 C325 1.385 . S
C326 C327 1.395 . S
C326 H349 0.929 1_655 S
C327 C326 1.395 . S
C327 C328 1.335 . S
C328 C327 1.335 . S
C328 C329 1.398 . S
C328 H350 0.930 . S
C329 C324 1.382 . S
C329 C328 1.398 . S
C329 H351 0.929 . S
C330 O340 1.253 1_545 S
C330 O341 1.285 . S
C331 O342 1.252 1_455 S
C331 O343 1.272 . S
O332 Sm312 2.543 . S
O332 C314 1.261 . S
O333 Sm312 2.450 . S
O333 C314 1.242 . S
O334 Sm312 2.681 1_545 S
O334 Sm313 2.386 1_455 S
O334 C321 1.270 1_545 S
O335 Sm312 2.464 . S
O335 C321 1.253 . S
O336 Sm312 2.396 . S
O336 C322 1.252 1_455 S
O337 Sm313 2.408 1_565 S
O337 C322 1.272 . S
O338 Sm313 2.543 . S
O338 C323 1.261 . S
O339 Sm313 2.450 . S
O339 C323 1.242 . S
O340 Sm312 2.386 1_655 S
O340 Sm313 2.681 1_565 S
O340 C330 1.253 1_565 S
O341 Sm313 2.464 . S
O341 C330 1.285 . S
O342 Sm313 2.396 . S
O342 C331 1.252 1_655 S
O343 Sm312 2.408 1_545 S
O343 C331 1.272 . S
H344 C316 0.930 1_655 S
H345 C317 0.929 1_655 S
H346 C319 0.930 . S
H347 C320 0.929 . S
H348 C325 0.930 1_455 S
H349 C326 0.929 1_455 S
H350 C328 0.930 . S
H351 C329 0.929 . S
Sm352 C354 2.846 . S
Sm352 O372 2.569 . S
Sm352 O373 2.450 . S
Sm352 O374 2.681 . S
Sm352 O375 2.464 . S
Sm352 O376 2.396 . S
Sm352 O380 2.386 1_545 S
Sm352 O383 2.408 . S
Sm353 C363 2.846 . S
Sm353 O374 2.386 1_565 S
Sm353 O377 2.408 . S
Sm353 O378 2.544 . S
Sm353 O379 2.450 . S
Sm353 O380 2.681 . S
Sm353 O381 2.464 . S
Sm353 O382 2.396 . S
C354 Sm352 2.846 . S
C354 C355 1.506 . S
C354 O372 1.322 . S
C354 O373 1.242 . S
C355 C354 1.506 . S
C355 C356 1.358 . S
C355 C360 1.382 . S
C356 C355 1.358 . S
C356 C357 1.385 . S
C356 H384 0.930 1_545 S
C357 C356 1.385 . S
C357 C358 1.395 . S
C357 H385 0.929 1_545 S
C358 C357 1.395 . S
C358 C359 1.335 . S
C359 C358 1.335 . S
C359 C360 1.398 . S
C359 H386 0.930 . S
C360 C355 1.382 . S
C360 C359 1.398 . S
C360 H387 0.929 . S
C361 O374 1.271 . S
C361 O375 1.251 . S
C362 O376 1.252 1_565 S
C362 O377 1.272 . S
C363 Sm353 2.846 . S
C363 C364 1.506 . S
C363 O378 1.265 . S
C363 O379 1.242 . S
C364 C363 1.506 . S
C364 C365 1.358 . S
C364 C369 1.382 . S
C365 C364 1.358 . S
C365 C366 1.385 . S
C365 H388 0.930 1_565 S
C366 C365 1.385 . S
C366 C367 1.395 . S
C366 H389 0.929 1_565 S
C367 C366 1.395 . S
C367 C368 1.335 . S
C368 C367 1.335 . S
C368 C369 1.398 . S
C368 H390 0.930 . S
C369 C364 1.382 . S
C369 C368 1.398 . S
C369 H391 0.929 . S
C370 O380 1.271 . S
C370 O381 1.251 . S
C371 O382 1.252 1_545 S
C371 O383 1.272 . S
O372 Sm352 2.569 . S
O372 C354 1.322 . S
O373 Sm352 2.450 . S
O373 C354 1.242 . S
O374 Sm352 2.681 . S
O374 Sm353 2.386 1_545 S
O374 C361 1.271 . S
O375 Sm352 2.464 . S
O375 C361 1.251 . S
O376 Sm352 2.396 . S
O376 C362 1.252 1_545 S
O377 Sm353 2.408 . S
O377 C362 1.272 . S
O378 Sm353 2.544 . S
O378 C363 1.265 . S
O379 Sm353 2.450 . S
O379 C363 1.242 . S
O380 Sm352 2.386 1_565 S
O380 Sm353 2.681 . S
O380 C370 1.271 . S
O381 Sm353 2.464 . S
O381 C370 1.251 . S
O382 Sm353 2.396 . S
O382 C371 1.252 1_565 S
O383 Sm352 2.408 . S
O383 C371 1.272 . S
H384 C356 0.930 1_565 S
H385 C357 0.929 1_565 S
H386 C359 0.930 . S
H387 C360 0.929 . S
H388 C365 0.930 1_545 S
H389 C366 0.929 1_545 S
H390 C368 0.930 . S
H391 C369 0.929 . S
Sm392 C394 2.846 . S
Sm392 O412 2.543 . S
Sm392 O413 2.450 . S
Sm392 O414 2.681 . S
Sm392 O415 2.464 . S
Sm392 O416 2.396 . S
Sm392 O420 2.386 . S
Sm392 O423 2.408 . S
Sm393 C403 2.846 . S
Sm393 O414 2.386 . S
Sm393 O417 2.408 . S
Sm393 O418 2.543 . S
Sm393 O419 2.450 . S
Sm393 O420 2.681 . S
Sm393 O421 2.464 . S
Sm393 O422 2.396 . S
C394 Sm392 2.846 . S
C394 C395 1.506 . S
C394 O412 1.261 . S
C394 O413 1.242 . S
C395 C394 1.506 . S
C395 C396 1.358 . S
C395 C400 1.382 . S
C396 C395 1.358 . S
C396 C397 1.385 . S
C396 H424 0.930 . S
C397 C396 1.385 . S
C397 C398 1.395 . S
C397 H425 0.929 . S
C398 C397 1.395 . S
C398 C399 1.335 . S
C399 C398 1.335 . S
C399 C400 1.398 . S
C399 H426 0.930 . S
C400 C395 1.382 . S
C400 C399 1.398 . S
C400 H427 0.929 . S
C401 O414 1.271 . S
C401 O415 1.251 . S
C402 O416 1.252 . S
C402 O417 1.272 . S
C403 Sm393 2.846 . S
C403 C404 1.506 . S
C403 O418 1.261 . S
C403 O419 1.242 . S
C404 C403 1.506 . S
C404 C405 1.358 . S
C404 C409 1.382 . S
C405 C404 1.358 . S
C405 C406 1.385 . S
C405 H428 0.930 . S
C406 C405 1.385 . S
C406 C407 1.395 . S
C406 H429 0.929 . S
C407 C406 1.395 . S
C407 C408 1.335 . S
C408 C407 1.335 . S
C408 C409 1.398 . S
C408 H430 0.930 . S
C409 C404 1.382 . S
C409 C408 1.398 . S
C409 H431 0.929 . S
C410 O420 1.271 . S
C410 O421 1.251 . S
C411 O422 1.252 . S
C411 O423 1.272 . S
O412 Sm392 2.543 . S
O412 C394 1.261 . S
O413 Sm392 2.450 . S
O413 C394 1.242 . S
O414 Sm392 2.681 . S
O414 Sm393 2.386 . S
O414 C401 1.271 . S
O415 Sm392 2.464 . S
O415 C401 1.251 . S
O416 Sm392 2.396 . S
O416 C402 1.252 . S
O417 Sm393 2.408 . S
O417 C402 1.272 . S
O418 Sm393 2.543 . S
O418 C403 1.261 . S
O419 Sm393 2.450 . S
O419 C403 1.242 . S
O420 Sm392 2.386 . S
O420 Sm393 2.681 . S
O420 C410 1.271 . S
O421 Sm393 2.464 . S
O421 C410 1.251 . S
O422 Sm393 2.396 . S
O422 C411 1.252 . S
O423 Sm392 2.408 . S
O423 C411 1.272 . S
H424 C396 0.930 . S
H425 C397 0.929 . S
H426 C399 0.930 . S
H427 C400 0.929 . S
H428 C405 0.930 . S
H429 C406 0.929 . S
H430 C408 0.930 . S
H431 C409 0.929 . S
Sm432 C434 2.846 . S
Sm432 O452 2.543 . S
Sm432 O453 2.450 . S
Sm432 O454 2.681 1_655 S
Sm432 O455 2.464 . S
Sm432 O456 2.396 . S
Sm432 O460 2.386 . S
Sm432 O463 2.408 1_655 S
Sm433 C443 2.846 . S
Sm433 O454 2.386 . S
Sm433 O457 2.408 1_455 S
Sm433 O458 2.543 . S
Sm433 O459 2.450 . S
Sm433 O460 2.681 1_455 S
Sm433 O461 2.464 . S
Sm433 O462 2.396 . S
C434 Sm432 2.846 . S
C434 C435 1.506 . S
C434 O452 1.261 . S
C434 O453 1.242 . S
C435 C434 1.506 . S
C435 C436 1.358 . S
C435 C440 1.382 . S
C436 C435 1.358 . S
C436 C437 1.385 . S
C436 H464 0.930 . S
C437 C436 1.385 . S
C437 C438 1.395 . S
C437 H465 0.929 . S
C438 C437 1.395 . S
C438 C439 1.335 . S
C439 C438 1.335 . S
C439 C440 1.398 . S
C439 H466 0.930 . S
C440 C435 1.382 . S
C440 C439 1.398 . S
C440 H467 0.929 . S
C441 O454 1.271 1_655 S
C441 O455 1.251 . S
C442 O456 1.252 . S
C442 O457 1.272 . S
C443 Sm433 2.846 . S
C443 C444 1.506 . S
C443 O458 1.261 . S
C443 O459 1.242 . S
C444 C443 1.506 . S
C444 C445 1.358 . S
C444 C449 1.382 . S
C445 C444 1.358 . S
C445 C446 1.385 . S
C445 H468 0.930 . S
C446 C445 1.385 . S
C446 C447 1.395 . S
C446 H469 0.929 . S
C447 C446 1.395 . S
C447 C448 1.335 . S
C448 C447 1.335 . S
C448 C449 1.398 . S
C448 H470 0.930 . S
C449 C444 1.382 . S
C449 C448 1.398 . S
C449 H471 0.929 . S
C450 O460 1.271 1_455 S
C450 O461 1.251 . S
C451 O462 1.252 . S
C451 O463 1.272 . S
O452 Sm432 2.543 . S
O452 C434 1.261 . S
O453 Sm432 2.450 . S
O453 C434 1.242 . S
O454 Sm432 2.681 1_455 S
O454 Sm433 2.386 . S
O454 C441 1.271 1_455 S
O455 Sm432 2.464 . S
O455 C441 1.251 . S
O456 Sm432 2.396 . S
O456 C442 1.252 . S
O457 Sm433 2.408 1_655 S
O457 C442 1.272 . S
O458 Sm433 2.543 . S
O458 C443 1.261 . S
O459 Sm433 2.450 . S
O459 C443 1.242 . S
O460 Sm432 2.386 . S
O460 Sm433 2.681 1_655 S
O460 C450 1.271 1_655 S
O461 Sm433 2.464 . S
O461 C450 1.251 . S
O462 Sm433 2.396 . S
O462 C451 1.252 . S
O463 Sm432 2.408 1_455 S
O463 C451 1.272 . S
H464 C436 0.930 . S
H465 C437 0.929 . S
H466 C439 0.930 . S
H467 C440 0.929 . S
H468 C445 0.930 . S
H469 C446 0.929 . S
H470 C448 0.930 . S
H471 C449 0.929 . S
H472 C490 0.951 . S
H473 C492 0.951 . S
H474 C494 0.950 . S
H475 C495 0.950 . S
H476 C497 0.950 . S
H477 C500 0.950 . S
H478 C501 0.950 . S
H479 C503 0.950 . S
H480 C504 0.950 . S
H481 C505 0.951 . S
H482 C507 0.951 . S
H483 C509 0.950 . S
H484 C510 0.950 . S
H485 C512 0.950 . S
H486 C515 0.950 . S
H487 C516 0.950 . S
H488 C518 0.950 . S
H489 C519 0.950 . S
C490 H472 0.951 . S
C490 C491 1.366 . S
C490 C492 1.388 . S
C491 C490 1.366 . S
C491 C495 1.385 1_545 S
C492 H473 0.951 . S
C492 C490 1.388 . S
C492 C493 1.366 . S
C493 C492 1.366 . S
C493 C494 1.414 1_545 S
C493 C496 1.499 . S
C494 H474 0.950 . S
C494 C493 1.414 1_565 S
C494 C495 1.374 . S
C495 H475 0.950 . S
C495 C491 1.385 1_565 S
C495 C494 1.374 . S
C496 C493 1.499 . S
C496 C497 1.373 1_545 S
C496 C498 1.389 . S
C497 H476 0.950 . S
C497 C496 1.373 1_565 S
C497 C513 1.377 . S
C498 C496 1.389 . S
C498 C499 1.524 . S
C498 C512 1.377 . S
C499 C498 1.524 . S
C499 C500 1.397 . S
C499 C504 1.363 . S
C500 H477 0.950 . S
C500 C499 1.397 . S
C500 C501 1.334 . S
C501 H478 0.950 . S
C501 C500 1.334 . S
C501 C502 1.287 . S
C502 C501 1.287 . S
C502 C503 1.524 . S
C502 H521 0.913 . S
C503 H479 0.950 . S
C503 C502 1.524 . S
C503 C504 1.415 . S
C504 H480 0.950 . S
C504 C499 1.363 . S
C504 C503 1.415 . S
C505 H481 0.951 . S
C505 C506 1.366 1_565 S
C505 C507 1.388 . S
C506 C505 1.366 1_545 S
C506 C510 1.385 . S
C507 H482 0.951 . S
C507 C505 1.388 . S
C507 C508 1.366 1_565 S
C508 C507 1.366 1_545 S
C508 C509 1.414 . S
C508 C511 1.499 . S
C509 H483 0.950 . S
C509 C508 1.414 . S
C509 C510 1.374 . S
C510 H484 0.950 . S
C510 C506 1.385 . S
C510 C509 1.374 . S
C511 C508 1.499 . S
C511 C512 1.373 . S
C511 C513 1.389 1_545 S
C512 H485 0.950 . S
C512 C498 1.377 . S
C512 C511 1.373 . S
C513 C497 1.377 . S
C513 C511 1.389 1_565 S
C513 C514 1.524 . S
C514 C513 1.524 . S
C514 C515 1.397 . S
C514 C519 1.363 . S
C515 H486 0.950 . S
C515 C514 1.397 . S
C515 C516 1.334 . S
C516 H487 0.950 . S
C516 C515 1.334 . S
C516 C517 1.287 . S
C517 C516 1.287 . S
C517 C518 1.524 . S
C517 H520 0.999 . S
C518 H488 0.950 . S
C518 C517 1.524 . S
C518 C519 1.415 . S
C519 H489 0.950 . S
C519 C514 1.363 . S
C519 C518 1.415 . S
H520 C517 0.999 . S
H521 C502 0.913 . S
H522 C540 0.951 . S
H523 C542 0.951 . S
H524 C544 0.950 . S
H525 C545 0.950 . S
H526 C547 0.950 . S
H527 C550 0.950 . S
H528 C551 0.950 . S
H529 C553 0.950 . S
H530 C554 0.950 . S
H531 C555 0.951 . S
H532 C557 0.951 . S
H533 C559 0.950 . S
H534 C560 0.950 . S
H535 C562 0.950 . S
H536 C565 0.950 . S
H537 C566 0.950 . S
H538 C568 0.950 . S
H539 C569 0.950 . S
C540 H522 0.951 . S
C540 C541 1.366 . S
C540 C542 1.388 . S
C541 C540 1.366 . S
C541 C545 1.385 . S
C542 H523 0.951 . S
C542 C540 1.388 . S
C542 C543 1.366 . S
C543 C542 1.366 . S
C543 C544 1.414 . S
C543 C546 1.499 . S
C544 H524 0.950 . S
C544 C543 1.414 . S
C544 C545 1.374 . S
C545 H525 0.950 . S
C545 C541 1.385 . S
C545 C544 1.374 . S
C546 C543 1.499 . S
C546 C547 1.373 . S
C546 C548 1.389 . S
C547 H526 0.950 . S
C547 C546 1.373 . S
C547 C563 1.377 . S
C548 C546 1.389 . S
C548 C549 1.524 . S
C548 C562 1.377 . S
C549 C548 1.524 . S
C549 C550 1.397 . S
C549 C554 1.363 . S
C550 H527 0.950 . S
C550 C549 1.397 . S
C550 C551 1.334 . S
C551 H528 0.950 . S
C551 C550 1.334 . S
C551 C552 1.287 . S
C552 C551 1.287 . S
C552 C553 1.524 . S
C552 H571 0.913 . S
C553 H529 0.950 . S
C553 C552 1.524 . S
C553 C554 1.415 . S
C554 H530 0.950 . S
C554 C549 1.363 . S
C554 C553 1.415 . S
C555 H531 0.951 . S
C555 C556 1.366 . S
C555 C557 1.388 . S
C556 C555 1.366 . S
C556 C560 1.385 . S
C557 H532 0.951 . S
C557 C555 1.388 . S
C557 C558 1.366 . S
C558 C557 1.366 . S
C558 C559 1.414 . S
C558 C561 1.499 . S
C559 H533 0.950 . S
C559 C558 1.414 . S
C559 C560 1.374 . S
C560 H534 0.950 . S
C560 C556 1.385 . S
C560 C559 1.374 . S
C561 C558 1.499 . S
C561 C562 1.373 . S
C561 C563 1.389 . S
C562 H535 0.950 . S
C562 C548 1.377 . S
C562 C561 1.373 . S
C563 C547 1.377 . S
C563 C561 1.389 . S
C563 C564 1.524 . S
C564 C563 1.524 . S
C564 C565 1.397 . S
C564 C569 1.363 . S
C565 H536 0.950 . S
C565 C564 1.397 . S
C565 C566 1.334 . S
C566 H537 0.950 . S
C566 C565 1.334 . S
C566 C567 1.287 . S
C567 C566 1.287 . S
C567 C568 1.524 . S
C567 H570 0.999 . S
C568 H538 0.950 . S
C568 C567 1.524 . S
C568 C569 1.415 . S
C569 H539 0.950 . S
C569 C564 1.363 . S
C569 C568 1.415 . S
H570 C567 0.999 . S
H571 C552 0.913 . S
H572 C590 0.951 . S
H573 C592 0.951 . S
H574 C594 0.950 . S
H575 C595 0.950 . S
H576 C597 0.950 . S
H577 C600 0.950 . S
H578 C601 0.950 . S
H579 C603 0.950 . S
H580 C604 0.950 . S
H581 C605 0.951 . S
H582 C607 0.951 . S
H583 C609 0.950 . S
H584 C610 0.950 . S
H585 C612 0.950 . S
H586 C615 0.950 . S
H587 C616 0.950 . S
H588 C618 0.950 . S
H589 C619 0.950 . S
C590 H572 0.951 . S
C590 C591 1.366 . S
C590 C592 1.388 . S
C591 C590 1.366 . S
C591 C595 1.385 . S
C592 H573 0.951 . S
C592 C590 1.388 . S
C592 C593 1.366 . S
C593 C592 1.366 . S
C593 C594 1.414 . S
C593 C596 1.499 . S
C594 H574 0.950 . S
C594 C593 1.414 . S
C594 C595 1.374 . S
C595 H575 0.950 . S
C595 C591 1.385 . S
C595 C594 1.374 . S
C596 C593 1.499 . S
C596 C597 1.373 . S
C596 C598 1.389 . S
C597 H576 0.950 . S
C597 C596 1.373 . S
C597 C613 1.377 . S
C598 C596 1.389 . S
C598 C599 1.524 . S
C598 C612 1.377 . S
C599 C598 1.524 . S
C599 C600 1.397 . S
C599 C604 1.363 . S
C600 H577 0.950 . S
C600 C599 1.397 . S
C600 C601 1.334 . S
C601 H578 0.950 . S
C601 C600 1.334 . S
C601 C602 1.287 . S
C602 C601 1.287 . S
C602 C603 1.524 . S
C602 H621 0.913 . S
C603 H579 0.950 . S
C603 C602 1.524 . S
C603 C604 1.415 . S
C604 H580 0.950 . S
C604 C599 1.363 . S
C604 C603 1.415 . S
C605 H581 0.951 . S
C605 C606 1.366 . S
C605 C607 1.388 . S
C606 C605 1.366 . S
C606 C610 1.385 . S
C607 H582 0.951 . S
C607 C605 1.388 . S
C607 C608 1.366 . S
C608 C607 1.366 . S
C608 C609 1.414 . S
C608 C611 1.499 . S
C609 H583 0.950 . S
C609 C608 1.414 . S
C609 C610 1.374 . S
C610 H584 0.950 . S
C610 C606 1.385 . S
C610 C609 1.374 . S
C611 C608 1.499 . S
C611 C612 1.373 . S
C611 C613 1.389 . S
C612 H585 0.950 . S
C612 C598 1.377 . S
C612 C611 1.373 . S
C613 C597 1.377 . S
C613 C611 1.389 . S
C613 C614 1.524 . S
C614 C613 1.524 . S
C614 C615 1.397 . S
C614 C619 1.363 . S
C615 H586 0.950 . S
C615 C614 1.397 . S
C615 C616 1.334 . S
C616 H587 0.950 . S
C616 C615 1.334 . S
C616 C617 1.287 . S
C617 C616 1.287 . S
C617 C618 1.524 . S
C617 H620 0.999 . S
C618 H588 0.950 . S
C618 C617 1.524 . S
C618 C619 1.415 . S
C619 H589 0.950 . S
C619 C614 1.363 . S
C619 C618 1.415 . S
H620 C617 0.999 . S
H621 C602 0.913 . S
H622 C640 0.951 . S
H623 C642 0.951 . S
H624 C644 0.950 . S
H625 C645 0.950 . S
H626 C647 0.950 . S
H627 C650 0.950 . S
H628 C651 0.950 . S
H629 C653 0.950 . S
H630 C654 0.950 1_655 S
H631 C655 0.951 . S
H632 C657 0.951 . S
H633 C659 0.950 . S
H634 C660 0.950 . S
H635 C662 0.950 . S
H636 C665 0.950 . S
H637 C666 0.950 . S
H638 C668 0.950 . S
H639 C669 0.950 1_455 S
C640 H622 0.951 . S
C640 C641 1.364 1_655 S
C640 C642 1.388 . S
C641 C640 1.364 1_455 S
C641 C645 1.386 . S
C642 H623 0.951 . S
C642 C640 1.388 . S
C642 C643 1.366 1_655 S
C643 C642 1.366 1_455 S
C643 C644 1.414 . S
C643 C646 1.499 . S
C644 H624 0.950 . S
C644 C643 1.414 . S
C644 C645 1.374 . S
C645 H625 0.950 . S
C645 C641 1.386 . S
C645 C644 1.374 . S
C646 C643 1.499 . S
C646 C647 1.373 1_455 S
C646 C648 1.389 . S
C647 H626 0.950 . S
C647 C646 1.373 1_655 S
C647 C663 1.377 . S
C648 C646 1.389 . S
C648 C649 1.524 . S
C648 C662 1.377 . S
C649 C648 1.524 . S
C649 C650 1.397 . S
C649 C654 1.363 . S
C650 H627 0.950 . S
C650 C649 1.397 . S
C650 C651 1.334 . S
C651 H628 0.950 . S
C651 C650 1.334 . S
C651 C652 1.287 . S
C652 C651 1.287 . S
C652 C653 1.524 . S
C652 H671 0.913 . S
C653 H629 0.950 . S
C653 C652 1.524 . S
C653 C654 1.415 . S
C654 H630 0.950 1_455 S
C654 C649 1.363 . S
C654 C653 1.415 . S
C655 H631 0.951 . S
C655 C656 1.396 . S
C655 C657 1.388 . S
C656 C655 1.396 . S
C656 C660 1.355 1_455 S
C657 H632 0.951 . S
C657 C655 1.388 . S
C657 C658 1.366 1_455 S
C658 C657 1.366 1_655 S
C658 C659 1.413 . S
C658 C661 1.498 . S
C659 H633 0.950 . S
C659 C658 1.413 . S
C659 C660 1.374 . S
C660 H634 0.950 . S
C660 C656 1.355 1_655 S
C660 C659 1.374 . S
C661 C658 1.498 . S
C661 C662 1.365 1_655 S
C661 C663 1.397 . S
C662 H635 0.950 . S
C662 C648 1.377 . S
C662 C661 1.365 1_455 S
C663 C647 1.377 . S
C663 C661 1.397 . S
C663 C664 1.524 . S
C664 C663 1.524 . S
C664 C665 1.397 . S
C664 C669 1.363 . S
C665 H636 0.950 . S
C665 C664 1.397 . S
C665 C666 1.334 . S
C666 H637 0.950 . S
C666 C665 1.334 . S
C666 C667 1.287 . S
C667 C666 1.287 . S
C667 C668 1.524 . S
C667 H670 0.999 . S
C668 H638 0.950 . S
C668 C667 1.524 . S
C668 C669 1.415 . S
C669 H639 0.950 1_655 S
C669 C664 1.363 . S
C669 C668 1.415 . S
H670 C667 0.999 . S
H671 C652 0.913 . S
H672 C690 0.951 . S
H673 C692 0.951 . S
H674 C694 0.950 . S
H675 C695 0.950 . S
H676 C697 0.950 . S
H677 C700 0.950 . S
H678 C701 0.950 . S
H679 C703 0.950 . S
H680 C704 0.947 1_565 S
H681 C705 0.951 . S
H682 C707 0.951 . S
H683 C709 0.950 . S
H684 C710 0.950 . S
H685 C712 0.959 . S
H686 C715 0.950 . S
H687 C716 0.950 . S
H688 C718 0.950 . S
H689 C719 0.950 1_545 S
C690 H672 0.951 . S
C690 C691 1.366 . S
C690 C692 1.388 . S
C691 C690 1.366 . S
C691 C695 1.385 1_565 S
C692 H673 0.951 . S
C692 C690 1.388 . S
C692 C693 1.366 . S
C693 C692 1.366 . S
C693 C694 1.414 1_565 S
C693 C696 1.499 . S
C694 H674 0.950 . S
C694 C693 1.414 1_545 S
C694 C695 1.374 . S
C695 H675 0.950 . S
C695 C691 1.385 1_545 S
C695 C694 1.374 . S
C696 C693 1.499 . S
C696 C697 1.373 1_554 S
C696 C698 1.389 1_565 S
C697 H676 0.950 . S
C697 C696 1.373 1_556 S
C697 C713 1.377 . S
C698 C696 1.389 1_545 S
C698 C699 1.524 . S
C698 C712 1.380 1_554 S
C699 C698 1.524 . S
C699 C700 1.397 . S
C699 C704 1.364 . S
C700 H677 0.950 . S
C700 C699 1.397 . S
C700 C701 1.334 . S
C701 H678 0.950 . S
C701 C700 1.334 . S
C701 C702 1.287 . S
C702 C701 1.287 . S
C702 C703 1.524 . S
C702 H721 0.913 . S
C703 H679 0.950 . S
C703 C702 1.524 . S
C703 C704 1.416 . S
C704 H680 0.947 1_545 S
C704 C699 1.364 . S
C704 C703 1.416 . S
C705 H681 0.951 . S
C705 C706 1.366 1_545 S
C705 C707 1.388 . S
C706 C705 1.366 1_565 S
C706 C710 1.385 . S
C707 H682 0.951 . S
C707 C705 1.388 . S
C707 C708 1.366 1_545 S
C708 C707 1.366 1_565 S
C708 C709 1.414 . S
C708 C711 1.499 . S
C709 H683 0.950 . S
C709 C708 1.414 . S
C709 C710 1.374 . S
C710 H684 0.950 . S
C710 C706 1.385 . S
C710 C709 1.374 . S
C711 C708 1.499 . S
C711 C712 1.364 1_565 S
C711 C713 1.389 . S
C712 H685 0.959 . S
C712 C698 1.380 1_556 S
C712 C711 1.364 1_545 S
C713 C697 1.377 . S
C713 C711 1.389 . S
C713 C714 1.524 . S
C714 C713 1.524 . S
C714 C715 1.397 . S
C714 C719 1.363 . S
C715 H686 0.950 . S
C715 C714 1.397 . S
C715 C716 1.334 . S
C716 H687 0.950 . S
C716 C715 1.334 . S
C716 C717 1.287 . S
C717 C716 1.287 . S
C717 C718 1.524 . S
C717 H720 0.999 . S
C718 H688 0.950 . S
C718 C717 1.524 . S
C718 C719 1.415 . S
C719 H689 0.950 1_565 S
C719 C714 1.363 . S
C719 C718 1.415 . S
H720 C717 0.999 . S
H721 C702 0.913 . S
H722 C740 0.951 . S
H723 C742 0.951 . S
H724 C744 0.950 . S
H725 C745 0.950 . S
H726 C747 0.950 . S
H727 C750 0.950 1_554 S
H728 C751 0.950 . S
H729 C753 0.950 . S
H730 C754 0.950 . S
H731 C755 0.951 . S
H732 C757 0.951 . S
H733 C759 0.950 . S
H734 C760 0.950 . S
H735 C762 0.950 . S
H736 C765 0.950 . S
H737 C766 0.950 . S
H738 C768 0.950 . S
H739 C769 0.950 . S
C740 H722 0.951 . S
C740 C741 1.366 . S
C740 C742 1.388 . S
C741 C740 1.366 . S
C741 C745 1.385 . S
C742 H723 0.951 . S
C742 C740 1.388 . S
C742 C743 1.366 . S
C743 C742 1.366 . S
C743 C744 1.414 . S
C743 C746 1.499 . S
C744 H724 0.950 . S
C744 C743 1.414 . S
C744 C745 1.374 . S
C745 H725 0.950 . S
C745 C741 1.385 . S
C745 C744 1.374 . S
C746 C743 1.499 . S
C746 C747 1.373 . S
C746 C748 1.389 1_554 S
C747 H726 0.950 . S
C747 C746 1.373 . S
C747 C763 1.377 1_554 S
C748 C746 1.389 1_556 S
C748 C749 1.524 . S
C748 C762 1.377 . S
C749 C748 1.524 . S
C749 C750 1.397 . S
C749 C754 1.363 . S
C750 H727 0.950 1_556 S
C750 C749 1.397 . S
C750 C751 1.334 . S
C751 H728 0.950 . S
C751 C750 1.334 . S
C751 C752 1.287 . S
C752 C751 1.287 . S
C752 C753 1.524 . S
C752 H771 0.913 . S
C753 H729 0.950 . S
C753 C752 1.524 . S
C753 C754 1.415 . S
C754 H730 0.950 . S
C754 C749 1.363 . S
C754 C753 1.415 . S
C755 H731 0.951 . S
C755 C756 1.366 . S
C755 C757 1.388 . S
C756 C755 1.366 . S
C756 C760 1.385 . S
C757 H732 0.951 . S
C757 C755 1.388 . S
C757 C758 1.366 . S
C758 C757 1.366 . S
C758 C759 1.414 . S
C758 C761 1.499 . S
C759 H733 0.950 . S
C759 C758 1.414 . S
C759 C760 1.374 . S
C760 H734 0.950 . S
C760 C756 1.385 . S
C760 C759 1.374 . S
C761 C758 1.499 . S
C761 C762 1.373 . S
C761 C763 1.389 . S
C762 H735 0.950 . S
C762 C748 1.377 . S
C762 C761 1.373 . S
C763 C747 1.377 1_556 S
C763 C761 1.389 . S
C763 C764 1.524 1_556 S
C764 C763 1.524 1_554 S
C764 C765 1.397 1_554 S
C764 C769 1.363 . S
C765 H736 0.950 . S
C765 C764 1.397 1_556 S
C765 C766 1.334 . S
C766 H737 0.950 . S
C766 C765 1.334 . S
C766 C767 1.287 1_556 S
C767 C766 1.287 1_554 S
C767 C768 1.524 . S
C767 H770 0.999 . S
C768 H738 0.950 . S
C768 C767 1.524 . S
C768 C769 1.415 . S
C769 H739 0.950 . S
C769 C764 1.363 . S
C769 C768 1.415 . S
H770 C767 0.999 . S
H771 C752 0.913 . S
H772 C790 0.951 . S
H773 C792 0.951 . S
H774 C794 0.950 . S
H775 C795 0.950 . S
H776 C797 0.945 1_554 S
H777 C800 0.950 . S
H778 C801 0.950 . S
H779 C803 0.950 . S
H780 C804 0.950 1_556 S
H781 C805 0.951 . S
H782 C807 0.951 . S
H783 C809 0.950 . S
H784 C810 0.950 . S
H785 C812 0.950 . S
H786 C815 0.950 . S
H787 C816 0.950 . S
H788 C818 0.950 . S
H789 C819 0.950 . S
C790 H772 0.951 . S
C790 C791 1.366 . S
C790 C792 1.388 . S
C791 C790 1.366 . S
C791 C795 1.385 . S
C792 H773 0.951 . S
C792 C790 1.388 . S
C792 C793 1.366 . S
C793 C792 1.366 . S
C793 C794 1.414 . S
C793 C796 1.499 . S
C794 H774 0.950 . S
C794 C793 1.414 . S
C794 C795 1.374 . S
C795 H775 0.950 . S
C795 C791 1.385 . S
C795 C794 1.374 . S
C796 C793 1.499 . S
C796 C797 1.362 1_554 S
C796 C798 1.389 . S
C797 H776 0.945 1_556 S
C797 C796 1.362 1_556 S
C797 C813 1.394 . S
C798 C796 1.389 . S
C798 C799 1.524 . S
C798 C812 1.377 1_554 S
C799 C798 1.524 . S
C799 C800 1.397 . S
C799 C804 1.363 . S
C800 H777 0.950 . S
C800 C799 1.397 . S
C800 C801 1.334 . S
C801 H778 0.950 . S
C801 C800 1.334 . S
C801 C802 1.287 . S
C802 C801 1.287 . S
C802 C803 1.524 . S
C802 H821 0.913 . S
C803 H779 0.950 . S
C803 C802 1.524 . S
C803 C804 1.415 . S
C804 H780 0.950 1_554 S
C804 C799 1.363 . S
C804 C803 1.415 . S
C805 H781 0.951 . S
C805 C806 1.366 . S
C805 C807 1.388 . S
C806 C805 1.366 . S
C806 C810 1.385 . S
C807 H782 0.951 . S
C807 C805 1.388 . S
C807 C808 1.366 . S
C808 C807 1.366 . S
C808 C809 1.414 . S
C808 C811 1.499 . S
C809 H783 0.950 . S
C809 C808 1.414 . S
C809 C810 1.374 . S
C810 H784 0.950 . S
C810 C806 1.385 . S
C810 C809 1.374 . S
C811 C808 1.499 . S
C811 C812 1.373 . S
C811 C813 1.389 . S
C812 H785 0.950 . S
C812 C798 1.377 1_556 S
C812 C811 1.373 . S
C813 C797 1.394 . S
C813 C811 1.389 . S
C813 C814 1.524 . S
C814 C813 1.524 . S
C814 C815 1.397 . S
C814 C819 1.363 . S
C815 H786 0.950 . S
C815 C814 1.397 . S
C815 C816 1.334 . S
C816 H787 0.950 . S
C816 C815 1.334 . S
C816 C817 1.287 . S
C817 C816 1.287 . S
C817 C818 1.524 . S
C817 H820 0.999 . S
C818 H788 0.950 . S
C818 C817 1.524 . S
C818 C819 1.415 . S
C819 H789 0.950 . S
C819 C814 1.363 . S
C819 C818 1.415 . S
H820 C817 0.999 . S
H821 C802 0.913 . S
H822 C840 0.951 . S
H823 C842 0.951 . S
H824 C844 0.950 . S
H825 C845 0.950 . S
H826 C847 0.950 . S
H827 C850 0.950 . S
H828 C851 0.950 . S
H829 C853 0.950 . S
H830 C854 0.950 . S
H831 C855 0.951 . S
H832 C857 0.951 . S
H833 C859 0.950 . S
H834 C860 0.950 . S
H835 C862 0.950 . S
H836 C865 0.950 . S
H837 C866 0.950 . S
H838 C868 0.950 1_554 S
H839 C869 0.950 1_554 S
C840 H822 0.951 . S
C840 C841 1.367 . S
C840 C842 1.388 . S
C841 C840 1.367 . S
C841 C845 1.384 1_655 S
C842 H823 0.951 . S
C842 C840 1.388 . S
C842 C843 1.366 . S
C843 C842 1.366 . S
C843 C844 1.414 1_655 S
C843 C846 1.499 . S
C844 H824 0.950 . S
C844 C843 1.414 1_455 S
C844 C845 1.374 . S
C845 H825 0.950 . S
C845 C841 1.384 1_455 S
C845 C844 1.374 . S
C846 C843 1.499 . S
C846 C847 1.373 1_655 S
C846 C848 1.389 1_554 S
C847 H826 0.950 . S
C847 C846 1.373 1_455 S
C847 C863 1.377 1_554 S
C848 C846 1.389 1_556 S
C848 C849 1.524 1_556 S
C848 C862 1.377 . S
C849 C848 1.524 1_554 S
C849 C850 1.397 . S
C849 C854 1.363 1_554 S
C850 H827 0.950 . S
C850 C849 1.397 . S
C850 C851 1.334 . S
C851 H828 0.950 . S
C851 C850 1.334 . S
C851 C852 1.287 . S
C852 C851 1.287 . S
C852 C853 1.524 1_554 S
C852 H871 0.913 . S
C853 H829 0.950 . S
C853 C852 1.524 1_556 S
C853 C854 1.415 . S
C854 H830 0.950 . S
C854 C849 1.363 1_556 S
C854 C853 1.415 . S
C855 H831 0.951 . S
C855 C856 1.351 1_455 S
C855 C857 1.388 . S
C856 C855 1.351 1_655 S
C856 C860 1.400 . S
C857 H832 0.951 . S
C857 C855 1.388 . S
C857 C858 1.367 . S
C858 C857 1.367 . S
C858 C859 1.413 1_455 S
C858 C861 1.499 . S
C859 H833 0.950 . S
C859 C858 1.413 1_655 S
C859 C860 1.374 . S
C860 H834 0.950 . S
C860 C856 1.400 . S
C860 C859 1.374 . S
C861 C858 1.499 . S
C861 C862 1.368 1_455 S
C861 C863 1.394 . S
C862 H835 0.950 . S
C862 C848 1.377 . S
C862 C861 1.368 1_655 S
C863 C847 1.377 1_556 S
C863 C861 1.394 . S
C863 C864 1.524 . S
C864 C863 1.524 . S
C864 C865 1.397 . S
C864 C869 1.363 . S
C865 H836 0.950 . S
C865 C864 1.397 . S
C865 C866 1.334 . S
C866 H837 0.950 . S
C866 C865 1.334 . S
C866 C867 1.287 . S
C867 C866 1.287 . S
C867 C868 1.524 . S
C867 H870 0.999 . S
C868 H838 0.950 1_556 S
C868 C867 1.524 . S
C868 C869 1.415 . S
C869 H839 0.950 1_556 S
C869 C864 1.363 . S
C869 C868 1.415 . S
H870 C867 0.999 . S
H871 C852 0.913 . S
H872 C890 0.951 . S
H873 C892 0.951 . S
H874 C894 0.950 . S
H875 C895 0.950 . S
H876 C897 0.950 . S
H877 C900 0.950 . S
H878 C901 0.950 . S
H879 C903 0.950 . S
H880 C904 0.950 1_655 S
H881 C905 0.951 . S
H882 C907 0.951 . S
H883 C909 0.950 . S
H884 C910 0.950 . S
H885 C912 0.950 . S
H886 C915 0.950 . S
H887 C916 0.950 . S
H888 C918 0.950 . S
H889 C919 0.950 . S
C890 H872 0.951 . S
C890 C891 1.366 1_655 S
C890 C892 1.388 . S
C891 C890 1.366 1_455 S
C891 C895 1.385 . S
C892 H873 0.951 . S
C892 C890 1.388 . S
C892 C893 1.366 . S
C893 C892 1.366 . S
C893 C894 1.414 1_655 S
C893 C896 1.499 . S
C894 H874 0.950 . S
C894 C893 1.414 1_455 S
C894 C895 1.374 . S
C895 H875 0.950 . S
C895 C891 1.385 . S
C895 C894 1.374 . S
C896 C893 1.499 . S
C896 C897 1.373 . S
C896 C898 1.389 . S
C897 H876 0.950 . S
C897 C896 1.373 . S
C897 C913 1.377 . S
C898 C896 1.389 . S
C898 C899 1.524 1_655 S
C898 C912 1.377 . S
C899 C898 1.524 1_455 S
C899 C900 1.397 . S
C899 C904 1.363 . S
C900 H877 0.950 . S
C900 C899 1.397 . S
C900 C901 1.334 . S
C901 H878 0.950 . S
C901 C900 1.334 . S
C901 C902 1.287 . S
C902 C901 1.287 . S
C902 C903 1.524 . S
C902 H921 0.913 . S
C903 H879 0.950 . S
C903 C902 1.524 . S
C903 C904 1.415 . S
C904 H880 0.950 1_455 S
C904 C899 1.363 . S
C904 C903 1.415 . S
C905 H881 0.951 . S
C905 C906 1.366 . S
C905 C907 1.388 . S
C906 C905 1.366 . S
C906 C910 1.385 . S
C907 H882 0.951 . S
C907 C905 1.388 . S
C907 C908 1.366 . S
C908 C907 1.366 . S
C908 C909 1.414 . S
C908 C911 1.499 . S
C909 H883 0.950 . S
C909 C908 1.414 . S
C909 C910 1.374 . S
C910 H884 0.950 . S
C910 C906 1.385 . S
C910 C909 1.374 . S
C911 C908 1.499 . S
C911 C912 1.373 . S
C911 C913 1.389 . S
C912 H885 0.950 . S
C912 C898 1.377 . S
C912 C911 1.373 . S
C913 C897 1.377 . S
C913 C911 1.389 . S
C913 C914 1.524 . S
C914 C913 1.524 . S
C914 C915 1.397 . S
C914 C919 1.363 . S
C915 H886 0.950 . S
C915 C914 1.397 . S
C915 C916 1.334 . S
C916 H887 0.950 . S
C916 C915 1.334 . S
C916 C917 1.287 . S
C917 C916 1.287 . S
C917 C918 1.524 . S
C917 H920 0.999 . S
C918 H888 0.950 . S
C918 C917 1.524 . S
C918 C919 1.415 . S
C919 H889 0.950 . S
C919 C914 1.363 . S
C919 C918 1.415 . S
H920 C917 0.999 . S
H921 C902 0.913 . S
H922 C940 0.951 . S
H923 C942 0.951 . S
H924 C944 0.961 . S
H925 C945 0.950 . S
H926 C947 0.950 . S
H927 C950 0.950 . S
H928 C951 0.950 . S
H929 C953 0.950 . S
H930 C954 0.950 . S
H931 C955 0.951 . S
H932 C957 0.951 . S
H933 C959 0.950 . S
H934 C960 0.950 . S
H935 C962 0.988 . S
H936 C965 0.950 . S
H937 C966 0.950 . S
H938 C968 0.950 . S
H939 C969 0.950 . S
C940 H922 0.951 . S
C940 C941 1.366 . S
C940 C942 1.388 . S
C941 C940 1.366 . S
C941 C945 1.385 . S
C942 H923 0.951 . S
C942 C940 1.388 . S
C942 C943 1.363 1_545 S
C943 C942 1.363 1_565 S
C943 C944 1.414 . S
C943 C946 1.502 . S
C944 H924 0.961 . S
C944 C943 1.414 . S
C944 C945 1.366 1_565 S
C945 H925 0.950 . S
C945 C941 1.385 . S
C945 C944 1.366 1_545 S
C946 C943 1.502 . S
C946 C947 1.373 . S
C946 C948 1.389 1_565 S
C947 H926 0.950 . S
C947 C946 1.373 . S
C947 C963 1.377 . S
C948 C946 1.389 1_545 S
C948 C949 1.524 . S
C948 C962 1.395 . S
C949 C948 1.524 . S
C949 C950 1.397 . S
C949 C954 1.363 . S
C950 H927 0.950 . S
C950 C949 1.397 . S
C950 C951 1.334 . S
C951 H928 0.950 . S
C951 C950 1.334 . S
C951 C952 1.287 . S
C952 C951 1.287 . S
C952 C953 1.524 . S
C952 H971 0.913 . S
C953 H929 0.950 . S
C953 C952 1.524 . S
C953 C954 1.415 . S
C954 H930 0.950 . S
C954 C949 1.363 . S
C954 C953 1.415 . S
C955 H931 0.951 . S
C955 C956 1.366 . S
C955 C957 1.388 . S
C956 C955 1.366 . S
C956 C960 1.385 . S
C957 H932 0.951 . S
C957 C955 1.388 . S
C957 C958 1.366 . S
C958 C957 1.366 . S
C958 C959 1.414 . S
C958 C961 1.499 . S
C959 H933 0.950 . S
C959 C958 1.414 . S
C959 C960 1.374 . S
C960 H934 0.950 . S
C960 C956 1.385 . S
C960 C959 1.374 . S
C961 C958 1.499 . S
C961 C962 1.321 1_565 S
C961 C963 1.389 . S
C962 H935 0.988 . S
C962 C948 1.395 . S
C962 C961 1.321 1_545 S
C963 C947 1.377 . S
C963 C961 1.389 . S
C963 C964 1.524 . S
C964 C963 1.524 . S
C964 C965 1.397 . S
C964 C969 1.363 . S
C965 H936 0.950 . S
C965 C964 1.397 . S
C965 C966 1.334 . S
C966 H937 0.950 . S
C966 C965 1.334 . S
C966 C967 1.287 . S
C967 C966 1.287 . S
C967 C968 1.524 . S
C967 H970 0.999 . S
C968 H938 0.950 . S
C968 C967 1.524 . S
C968 C969 1.415 . S
C969 H939 0.950 . S
C969 C964 1.363 . S
C969 C968 1.415 . S
H970 C967 0.999 . S
H971 C952 0.913 . S
H972 C990 0.951 . S
H973 C992 0.951 . S
H974 C994 0.950 . S
H975 C995 0.950 . S
H976 C997 0.950 . S
H977 C1000 0.950 . S
H978 C1001 0.950 . S
H979 C1003 0.950 . S
H980 C1004 0.950 . S
H981 C1005 0.951 . S
H982 C1007 0.951 . S
H983 C1009 0.950 . S
H984 C1010 0.950 . S
H985 C1012 0.950 . S
H986 C1015 0.950 . S
H987 C1016 0.950 . S
H988 C1018 0.950 . S
H989 C1019 0.950 . S
C990 H972 0.951 . S
C990 C991 1.366 . S
C990 C992 1.388 . S
C991 C990 1.366 . S
C991 C995 1.385 . S
C992 H973 0.951 . S
C992 C990 1.388 . S
C992 C993 1.366 . S
C993 C992 1.366 . S
C993 C994 1.414 . S
C993 C996 1.499 . S
C994 H974 0.950 . S
C994 C993 1.414 . S
C994 C995 1.374 . S
C995 H975 0.950 . S
C995 C991 1.385 . S
C995 C994 1.374 . S
C996 C993 1.499 . S
C996 C997 1.373 . S
C996 C998 1.389 . S
C997 H976 0.950 . S
C997 C996 1.373 . S
C997 C1013 1.377 . S
C998 C996 1.389 . S
C998 C999 1.524 . S
C998 C1012 1.377 . S
C999 C998 1.524 . S
C999 C1000 1.397 . S
C999 C1004 1.363 . S
C1000 H977 0.950 . S
C1000 C999 1.397 . S
C1000 C1001 1.334 . S
C1001 H978 0.950 . S
C1001 C1000 1.334 . S
C1001 C1002 1.287 . S
C1002 C1001 1.287 . S
C1002 C1003 1.524 . S
C1002 H1021 0.913 . S
C1003 H979 0.950 . S
C1003 C1002 1.524 . S
C1003 C1004 1.415 . S
C1004 H980 0.950 . S
C1004 C999 1.363 . S
C1004 C1003 1.415 . S
C1005 H981 0.951 . S
C1005 C1006 1.366 . S
C1005 C1007 1.388 . S
C1006 C1005 1.366 . S
C1006 C1010 1.385 . S
C1007 H982 0.951 . S
C1007 C1005 1.388 . S
C1007 C1008 1.366 . S
C1008 C1007 1.366 . S
C1008 C1009 1.414 . S
C1008 C1011 1.499 . S
C1009 H983 0.950 . S
C1009 C1008 1.414 . S
C1009 C1010 1.374 . S
C1010 H984 0.950 . S
C1010 C1006 1.385 . S
C1010 C1009 1.374 . S
C1011 C1008 1.499 . S
C1011 C1012 1.373 . S
C1011 C1013 1.389 . S
C1012 H985 0.950 . S
C1012 C998 1.377 . S
C1012 C1011 1.373 . S
C1013 C997 1.377 . S
C1013 C1011 1.389 . S
C1013 C1014 1.524 . S
C1014 C1013 1.524 . S
C1014 C1015 1.397 . S
C1014 C1019 1.363 . S
C1015 H986 0.950 . S
C1015 C1014 1.397 . S
C1015 C1016 1.334 . S
C1016 H987 0.950 . S
C1016 C1015 1.334 . S
C1016 C1017 1.287 . S
C1017 C1016 1.287 . S
C1017 C1018 1.524 . S
C1017 H1020 0.999 . S
C1018 H988 0.950 . S
C1018 C1017 1.524 . S
C1018 C1019 1.415 . S
C1019 H989 0.950 . S
C1019 C1014 1.363 . S
C1019 C1018 1.415 . S
H1020 C1017 0.999 . S
H1021 C1002 0.913 . S
H1022 C1040 0.951 . S
H1023 C1042 0.951 . S
H1024 C1044 0.950 . S
H1025 C1045 0.950 . S
H1026 C1047 0.950 . S
H1027 C1050 0.950 . S
H1028 C1051 0.950 . S
H1029 C1053 0.950 . S
H1030 C1054 0.950 . S
H1031 C1055 0.951 . S
H1032 C1057 0.951 . S
H1033 C1059 0.950 . S
H1034 C1060 0.950 . S
H1035 C1062 0.950 . S
H1036 C1065 0.950 . S
H1037 C1066 0.950 . S
H1038 C1068 0.950 . S
H1039 C1069 0.950 . S
C1040 H1022 0.951 . S
C1040 C1041 1.366 . S
C1040 C1042 1.388 . S
C1041 C1040 1.366 . S
C1041 C1045 1.385 . S
C1042 H1023 0.951 . S
C1042 C1040 1.388 . S
C1042 C1043 1.366 . S
C1043 C1042 1.366 . S
C1043 C1044 1.414 . S
C1043 C1046 1.499 . S
C1044 H1024 0.950 . S
C1044 C1043 1.414 . S
C1044 C1045 1.374 . S
C1045 H1025 0.950 . S
C1045 C1041 1.385 . S
C1045 C1044 1.374 . S
C1046 C1043 1.499 . S
C1046 C1047 1.373 . S
C1046 C1048 1.389 . S
C1047 H1026 0.950 . S
C1047 C1046 1.373 . S
C1047 C1063 1.377 . S
C1048 C1046 1.389 . S
C1048 C1049 1.524 . S
C1048 C1062 1.377 . S
C1049 C1048 1.524 . S
C1049 C1050 1.397 . S
C1049 C1054 1.363 . S
C1050 H1027 0.950 . S
C1050 C1049 1.397 . S
C1050 C1051 1.334 . S
C1051 H1028 0.950 . S
C1051 C1050 1.334 . S
C1051 C1052 1.287 . S
C1052 C1051 1.287 . S
C1052 C1053 1.524 . S
C1052 H1071 0.913 . S
C1053 H1029 0.950 . S
C1053 C1052 1.524 . S
C1053 C1054 1.415 . S
C1054 H1030 0.950 . S
C1054 C1049 1.363 . S
C1054 C1053 1.415 . S
C1055 H1031 0.951 . S
C1055 C1056 1.366 . S
C1055 C1057 1.388 . S
C1056 C1055 1.366 . S
C1056 C1060 1.385 . S
C1057 H1032 0.951 . S
C1057 C1055 1.388 . S
C1057 C1058 1.366 . S
C1058 C1057 1.366 . S
C1058 C1059 1.414 . S
C1058 C1061 1.499 . S
C1059 H1033 0.950 . S
C1059 C1058 1.414 . S
C1059 C1060 1.374 . S
C1060 H1034 0.950 . S
C1060 C1056 1.385 . S
C1060 C1059 1.374 . S
C1061 C1058 1.499 . S
C1061 C1062 1.373 . S
C1061 C1063 1.389 . S
C1062 H1035 0.950 . S
C1062 C1048 1.377 . S
C1062 C1061 1.373 . S
C1063 C1047 1.377 . S
C1063 C1061 1.389 . S
C1063 C1064 1.524 . S
C1064 C1063 1.524 . S
C1064 C1065 1.397 . S
C1064 C1069 1.363 . S
C1065 H1036 0.950 . S
C1065 C1064 1.397 . S
C1065 C1066 1.334 . S
C1066 H1037 0.950 . S
C1066 C1065 1.334 . S
C1066 C1067 1.287 . S
C1067 C1066 1.287 . S
C1067 C1068 1.524 . S
C1067 H1070 0.999 . S
C1068 H1038 0.950 . S
C1068 C1067 1.524 . S
C1068 C1069 1.415 . S
C1069 H1039 0.950 . S
C1069 C1064 1.363 . S
C1069 C1068 1.415 . S
H1070 C1067 0.999 . S
H1071 C1052 0.913 . S
H1072 C1090 0.951 . S
H1073 C1092 0.951 1_556 S
H1074 C1094 0.950 . S
H1075 C1095 0.950 . S
H1076 C1097 0.950 . S
H1077 C1100 0.950 . S
H1078 C1101 0.950 . S
H1079 C1103 0.950 . S
H1080 C1104 0.950 . S
H1081 C1105 0.951 . S
H1082 C1107 0.951 . S
H1083 C1109 0.950 . S
H1084 C1110 0.950 . S
H1085 C1112 0.950 . S
H1086 C1115 0.950 . S
H1087 C1116 0.950 . S
H1088 C1118 0.950 . S
H1089 C1119 0.950 . S
C1090 H1072 0.951 . S
C1090 C1091 1.366 1_455 S
C1090 C1092 1.388 . S
C1091 C1090 1.366 1_655 S
C1091 C1095 1.385 . S
C1092 H1073 0.951 1_554 S
C1092 C1090 1.388 . S
C1092 C1093 1.366 . S
C1093 C1092 1.366 . S
C1093 C1094 1.414 1_455 S
C1093 C1096 1.499 . S
C1094 H1074 0.950 . S
C1094 C1093 1.414 1_655 S
C1094 C1095 1.374 . S
C1095 H1075 0.950 . S
C1095 C1091 1.385 . S
C1095 C1094 1.374 . S
C1096 C1093 1.499 . S
C1096 C1097 1.373 1_455 S
C1096 C1098 1.389 1_554 S
C1097 H1076 0.950 . S
C1097 C1096 1.373 1_655 S
C1097 C1113 1.379 1_554 S
C1098 C1096 1.389 1_556 S
C1098 C1099 1.524 . S
C1098 C1112 1.377 . S
C1099 C1098 1.524 . S
C1099 C1100 1.397 1_556 S
C1099 C1104 1.363 . S
C1100 H1077 0.950 . S
C1100 C1099 1.397 1_554 S
C1100 C1101 1.334 . S
C1101 H1078 0.950 . S
C1101 C1100 1.334 . S
C1101 C1102 1.287 . S
C1102 C1101 1.287 . S
C1102 C1103 1.524 1_554 S
C1102 H1121 0.913 . S
C1103 H1079 0.950 . S
C1103 C1102 1.524 1_556 S
C1103 C1104 1.415 . S
C1104 H1080 0.950 . S
C1104 C1099 1.363 . S
C1104 C1103 1.415 . S
C1105 H1081 0.951 . S
C1105 C1106 1.366 . S
C1105 C1107 1.388 . S
C1106 C1105 1.366 . S
C1106 C1110 1.385 . S
C1107 H1082 0.951 . S
C1107 C1105 1.388 . S
C1107 C1108 1.366 . S
C1108 C1107 1.366 . S
C1108 C1109 1.414 . S
C1108 C1111 1.499 . S
C1109 H1083 0.950 . S
C1109 C1108 1.414 . S
C1109 C1110 1.374 . S
C1110 H1084 0.950 . S
C1110 C1106 1.385 . S
C1110 C1109 1.374 . S
C1111 C1108 1.499 . S
C1111 C1112 1.373 . S
C1111 C1113 1.374 1_455 S
C1112 H1085 0.950 . S
C1112 C1098 1.377 . S
C1112 C1111 1.373 . S
C1113 C1097 1.379 1_556 S
C1113 C1111 1.374 1_655 S
C1113 C1114 1.538 . S
C1114 C1113 1.538 . S
C1114 C1115 1.397 . S
C1114 C1119 1.363 1_556 S
C1115 H1086 0.950 . S
C1115 C1114 1.397 . S
C1115 C1116 1.334 . S
C1116 H1087 0.950 . S
C1116 C1115 1.334 . S
C1116 C1117 1.287 . S
C1117 C1116 1.287 . S
C1117 C1118 1.524 1_556 S
C1117 H1120 0.999 . S
C1118 H1088 0.950 . S
C1118 C1117 1.524 1_554 S
C1118 C1119 1.415 . S
C1119 H1089 0.950 . S
C1119 C1114 1.363 1_554 S
C1119 C1118 1.415 . S
H1120 C1117 0.999 . S
H1121 C1102 0.913 . S
H1122 C1140 0.951 . S
H1123 C1142 0.951 1_556 S
H1124 C1144 0.950 . S
H1125 C1145 0.950 . S
H1126 C1147 0.950 . S
H1127 C1150 0.950 . S
H1128 C1151 0.950 . S
H1129 C1153 0.950 . S
H1130 C1154 0.950 1_565 S
H1131 C1155 0.951 . S
H1132 C1157 0.951 . S
H1133 C1159 0.950 . S
H1134 C1160 0.950 . S
H1135 C1162 0.950 . S
H1136 C1165 0.950 1_556 S
H1137 C1166 0.950 . S
H1138 C1168 0.950 . S
H1139 C1169 0.950 . S
C1140 H1122 0.951 . S
C1140 C1141 1.366 . S
C1140 C1142 1.388 . S
C1141 C1140 1.366 . S
C1141 C1145 1.385 1_565 S
C1142 H1123 0.951 1_554 S
C1142 C1140 1.388 . S
C1142 C1143 1.366 1_565 S
C1143 C1142 1.366 1_545 S
C1143 C1144 1.414 . S
C1143 C1146 1.499 . S
C1144 H1124 0.950 . S
C1144 C1143 1.414 . S
C1144 C1145 1.374 . S
C1145 H1125 0.950 . S
C1145 C1141 1.385 1_545 S
C1145 C1144 1.374 . S
C1146 C1143 1.499 . S
C1146 C1147 1.373 . S
C1146 C1148 1.389 1_554 S
C1147 H1126 0.950 . S
C1147 C1146 1.373 . S
C1147 C1163 1.377 . S
C1148 C1146 1.389 1_556 S
C1148 C1149 1.524 . S
C1148 C1162 1.377 . S
C1149 C1148 1.524 . S
C1149 C1150 1.397 . S
C1149 C1154 1.363 . S
C1150 H1127 0.950 . S
C1150 C1149 1.397 . S
C1150 C1151 1.334 . S
C1151 H1128 0.950 . S
C1151 C1150 1.334 . S
C1151 C1152 1.287 . S
C1152 C1151 1.287 . S
C1152 C1153 1.524 . S
C1152 H1171 0.913 . S
C1153 H1129 0.950 . S
C1153 C1152 1.524 . S
C1153 C1154 1.415 . S
C1154 H1130 0.950 1_545 S
C1154 C1149 1.363 . S
C1154 C1153 1.415 . S
C1155 H1131 0.951 . S
C1155 C1156 1.366 . S
C1155 C1157 1.388 . S
C1156 C1155 1.366 . S
C1156 C1160 1.385 . S
C1157 H1132 0.951 . S
C1157 C1155 1.388 . S
C1157 C1158 1.366 . S
C1158 C1157 1.366 . S
C1158 C1159 1.414 . S
C1158 C1161 1.499 . S
C1159 H1133 0.950 . S
C1159 C1158 1.414 . S
C1159 C1160 1.374 . S
C1160 H1134 0.950 . S
C1160 C1156 1.385 . S
C1160 C1159 1.374 . S
C1161 C1158 1.499 . S
C1161 C1162 1.373 . S
C1161 C1163 1.389 1_556 S
C1162 H1135 0.950 . S
C1162 C1148 1.377 . S
C1162 C1161 1.373 . S
C1163 C1147 1.377 . S
C1163 C1161 1.389 1_554 S
C1163 C1164 1.524 . S
C1164 C1163 1.524 . S
C1164 C1165 1.397 1_545 S
C1164 C1169 1.363 . S
C1165 H1136 0.950 1_554 S
C1165 C1164 1.397 1_565 S
C1165 C1166 1.334 . S
C1166 H1137 0.950 . S
C1166 C1165 1.334 . S
C1166 C1167 1.287 . S
C1167 C1166 1.287 . S
C1167 C1168 1.524 1_565 S
C1167 H1170 0.999 . S
C1168 H1138 0.950 . S
C1168 C1167 1.524 1_545 S
C1168 C1169 1.415 . S
C1169 H1139 0.950 . S
C1169 C1164 1.363 . S
C1169 C1168 1.415 . S
H1170 C1167 0.999 . S
H1171 C1152 0.913 . S
H1172 C1190 0.951 . S
H1173 C1192 0.951 1_556 S
H1174 C1194 0.950 . S
H1175 C1195 0.950 . S
H1176 C1197 0.950 . S
H1177 C1200 0.950 1_554 S
H1178 C1201 0.950 . S
H1179 C1203 0.950 . S
H1180 C1204 0.950 . S
H1181 C1205 0.951 . S
H1182 C1207 0.951 . S
H1183 C1209 0.950 . S
H1184 C1210 0.950 . S
H1185 C1212 0.950 . S
H1186 C1215 0.950 . S
H1187 C1216 0.950 1_556 S
H1188 C1218 0.950 . S
H1189 C1219 0.950 . S
C1190 H1172 0.951 . S
C1190 C1191 1.366 . S
C1190 C1192 1.388 . S
C1191 C1190 1.366 . S
C1191 C1195 1.385 . S
C1192 H1173 0.951 1_554 S
C1192 C1190 1.388 . S
C1192 C1193 1.366 . S
C1193 C1192 1.366 . S
C1193 C1194 1.414 . S
C1193 C1196 1.499 . S
C1194 H1174 0.950 . S
C1194 C1193 1.414 . S
C1194 C1195 1.374 . S
C1195 H1175 0.950 . S
C1195 C1191 1.385 . S
C1195 C1194 1.374 . S
C1196 C1193 1.499 . S
C1196 C1197 1.373 . S
C1196 C1198 1.389 1_554 S
C1197 H1176 0.950 . S
C1197 C1196 1.373 . S
C1197 C1213 1.380 . S
C1198 C1196 1.389 1_556 S
C1198 C1199 1.524 . S
C1198 C1212 1.377 . S
C1199 C1198 1.524 . S
C1199 C1200 1.397 . S
C1199 C1204 1.363 . S
C1200 H1177 0.950 1_556 S
C1200 C1199 1.397 . S
C1200 C1201 1.334 . S
C1201 H1178 0.950 . S
C1201 C1200 1.334 . S
C1201 C1202 1.287 . S
C1202 C1201 1.287 . S
C1202 C1203 1.524 . S
C1202 H1221 0.913 . S
C1203 H1179 0.950 . S
C1203 C1202 1.524 . S
C1203 C1204 1.415 . S
C1204 H1180 0.950 . S
C1204 C1199 1.363 . S
C1204 C1203 1.415 . S
C1205 H1181 0.951 . S
C1205 C1206 1.366 . S
C1205 C1207 1.388 . S
C1206 C1205 1.366 . S
C1206 C1210 1.385 . S
C1207 H1182 0.951 . S
C1207 C1205 1.388 . S
C1207 C1208 1.366 . S
C1208 C1207 1.366 . S
C1208 C1209 1.414 . S
C1208 C1211 1.499 . S
C1209 H1183 0.950 . S
C1209 C1208 1.414 . S
C1209 C1210 1.374 . S
C1210 H1184 0.950 . S
C1210 C1206 1.385 . S
C1210 C1209 1.374 . S
C1211 C1208 1.499 . S
C1211 C1212 1.373 . S
C1211 C1213 1.383 1_556 S
C1212 H1185 0.950 . S
C1212 C1198 1.377 . S
C1212 C1211 1.373 . S
C1213 C1197 1.380 . S
C1213 C1211 1.383 1_554 S
C1213 C1214 1.527 . S
C1214 C1213 1.527 . S
C1214 C1215 1.397 1_554 S
C1214 C1219 1.363 . S
C1215 H1186 0.950 . S
C1215 C1214 1.397 1_556 S
C1215 C1216 1.334 1_556 S
C1216 H1187 0.950 1_554 S
C1216 C1215 1.334 1_554 S
C1216 C1217 1.287 . S
C1217 C1216 1.287 . S
C1217 C1218 1.524 . S
C1217 H1220 0.999 . S
C1218 H1188 0.950 . S
C1218 C1217 1.524 . S
C1218 C1219 1.415 . S
C1219 H1189 0.950 . S
C1219 C1214 1.363 . S
C1219 C1218 1.415 . S
H1220 C1217 0.999 . S
H1221 C1202 0.913 . S
H1222 C1240 0.951 . S
H1223 C1242 0.951 1_556 S
H1224 C1244 0.950 . S
H1225 C1245 0.950 . S
H1226 C1247 0.950 . S
H1227 C1250 0.950 . S
H1228 C1251 0.950 . S
H1229 C1253 0.950 . S
H1230 C1254 0.950 . S
H1231 C1255 0.951 . S
H1232 C1257 0.951 . S
H1233 C1259 0.950 . S
H1234 C1260 0.950 . S
H1235 C1262 0.950 . S
H1236 C1265 0.950 . S
H1237 C1266 0.950 . S
H1238 C1268 0.950 . S
H1239 C1269 0.950 . S
C1240 H1222 0.951 . S
C1240 C1241 1.366 . S
C1240 C1242 1.388 . S
C1241 C1240 1.366 . S
C1241 C1245 1.385 . S
C1242 H1223 0.951 1_554 S
C1242 C1240 1.388 . S
C1242 C1243 1.366 . S
C1243 C1242 1.366 . S
C1243 C1244 1.414 . S
C1243 C1246 1.499 . S
C1244 H1224 0.950 . S
C1244 C1243 1.414 . S
C1244 C1245 1.374 . S
C1245 H1225 0.950 . S
C1245 C1241 1.385 . S
C1245 C1244 1.374 . S
C1246 C1243 1.499 . S
C1246 C1247 1.373 . S
C1246 C1248 1.389 1_554 S
C1247 H1226 0.950 . S
C1247 C1246 1.373 . S
C1247 C1263 1.377 1_554 S
C1248 C1246 1.389 1_556 S
C1248 C1249 1.524 . S
C1248 C1262 1.377 . S
C1249 C1248 1.524 . S
C1249 C1250 1.397 1_556 S
C1249 C1254 1.363 . S
C1250 H1227 0.950 . S
C1250 C1249 1.397 1_554 S
C1250 C1251 1.334 . S
C1251 H1228 0.950 . S
C1251 C1250 1.334 . S
C1251 C1252 1.287 1_554 S
C1252 C1251 1.287 1_556 S
C1252 C1253 1.524 . S
C1252 H1271 0.913 . S
C1253 H1229 0.950 . S
C1253 C1252 1.524 . S
C1253 C1254 1.415 . S
C1254 H1230 0.950 . S
C1254 C1249 1.363 . S
C1254 C1253 1.415 . S
C1255 H1231 0.951 . S
C1255 C1256 1.366 . S
C1255 C1257 1.388 . S
C1256 C1255 1.366 . S
C1256 C1260 1.385 . S
C1257 H1232 0.951 . S
C1257 C1255 1.388 . S
C1257 C1258 1.366 . S
C1258 C1257 1.366 . S
C1258 C1259 1.414 . S
C1258 C1261 1.499 . S
C1259 H1233 0.950 . S
C1259 C1258 1.414 . S
C1259 C1260 1.374 . S
C1260 H1234 0.950 . S
C1260 C1256 1.385 . S
C1260 C1259 1.374 . S
C1261 C1258 1.499 . S
C1261 C1262 1.373 . S
C1261 C1263 1.389 . S
C1262 H1235 0.950 . S
C1262 C1248 1.377 . S
C1262 C1261 1.373 . S
C1263 C1247 1.377 1_556 S
C1263 C1261 1.389 . S
C1263 C1264 1.524 . S
C1264 C1263 1.524 . S
C1264 C1265 1.397 . S
C1264 C1269 1.363 1_556 S
C1265 H1236 0.950 . S
C1265 C1264 1.397 . S
C1265 C1266 1.334 . S
C1266 H1237 0.950 . S
C1266 C1265 1.334 . S
C1266 C1267 1.287 . S
C1267 C1266 1.287 . S
C1267 C1268 1.524 1_556 S
C1267 H1270 0.999 . S
C1268 H1238 0.950 . S
C1268 C1267 1.524 1_554 S
C1268 C1269 1.415 . S
C1269 H1239 0.950 . S
C1269 C1264 1.363 1_554 S
C1269 C1268 1.415 . S
H1270 C1267 0.999 . S
H1271 C1252 0.913 . S
H1272 C1290 0.951 . S
H1273 C1292 0.951 . S
H1274 C1294 0.959 . S
H1275 C1295 0.950 . S
H1276 C1297 0.950 . S
H1277 C1300 0.950 . S
H1278 C1301 0.950 . S
H1279 C1303 0.950 . S
H1280 C1304 0.950 . S
H1281 C1305 0.951 . S
H1282 C1307 0.952 1_655 S
H1283 C1309 0.950 . S
H1284 C1310 0.950 . S
H1285 C1312 0.950 . S
H1286 C1315 0.950 . S
H1287 C1316 0.950 . S
H1288 C1318 0.950 . S
H1289 C1319 0.950 . S
C1290 H1272 0.951 . S
C1290 C1291 1.366 . S
C1290 C1292 1.388 . S
C1291 C1290 1.366 . S
C1291 C1295 1.385 1_455 S
C1292 H1273 0.951 . S
C1292 C1290 1.388 . S
C1292 C1293 1.366 . S
C1293 C1292 1.366 . S
C1293 C1294 1.404 1_455 S
C1293 C1296 1.499 . S
C1294 H1274 0.959 . S
C1294 C1293 1.404 1_655 S
C1294 C1295 1.377 . S
C1295 H1275 0.950 . S
C1295 C1291 1.385 1_655 S
C1295 C1294 1.377 . S
C1296 C1293 1.499 . S
C1296 C1297 1.373 1_455 S
C1296 C1298 1.389 . S
C1297 H1276 0.950 . S
C1297 C1296 1.373 1_655 S
C1297 C1313 1.377 . S
C1298 C1296 1.389 . S
C1298 C1299 1.524 . S
C1298 C1312 1.377 . S
C1299 C1298 1.524 . S
C1299 C1300 1.397 . S
C1299 C1304 1.363 . S
C1300 H1277 0.950 . S
C1300 C1299 1.397 . S
C1300 C1301 1.334 . S
C1301 H1278 0.950 . S
C1301 C1300 1.334 . S
C1301 C1302 1.287 . S
C1302 C1301 1.287 . S
C1302 C1303 1.524 . S
C1302 H1321 0.913 . S
C1303 H1279 0.950 . S
C1303 C1302 1.524 . S
C1303 C1304 1.415 . S
C1304 H1280 0.950 . S
C1304 C1299 1.363 . S
C1304 C1303 1.415 . S
C1305 H1281 0.951 . S
C1305 C1306 1.366 . S
C1305 C1307 1.388 . S
C1306 C1305 1.366 . S
C1306 C1310 1.385 . S
C1307 H1282 0.952 1_455 S
C1307 C1305 1.388 . S
C1307 C1308 1.366 . S
C1308 C1307 1.366 . S
C1308 C1309 1.414 . S
C1308 C1311 1.499 . S
C1309 H1283 0.950 . S
C1309 C1308 1.414 . S
C1309 C1310 1.374 . S
C1310 H1284 0.950 . S
C1310 C1306 1.385 . S
C1310 C1309 1.374 . S
C1311 C1308 1.499 . S
C1311 C1312 1.373 . S
C1311 C1313 1.389 1_455 S
C1312 H1285 0.950 . S
C1312 C1298 1.377 . S
C1312 C1311 1.373 . S
C1313 C1297 1.377 . S
C1313 C1311 1.389 1_655 S
C1313 C1314 1.524 . S
C1314 C1313 1.524 . S
C1314 C1315 1.397 . S
C1314 C1319 1.363 . S
C1315 H1286 0.950 . S
C1315 C1314 1.397 . S
C1315 C1316 1.334 . S
C1316 H1287 0.950 . S
C1316 C1315 1.334 . S
C1316 C1317 1.287 . S
C1317 C1316 1.287 . S
C1317 C1318 1.524 . S
C1317 H1320 0.999 . S
C1318 H1288 0.950 . S
C1318 C1317 1.524 . S
C1318 C1319 1.415 . S
C1319 H1289 0.950 . S
C1319 C1314 1.363 . S
C1319 C1318 1.415 . S
H1320 C1317 0.999 . S
H1321 C1302 0.913 . S
H1322 C1340 0.961 . S
H1323 C1342 0.958 . S
H1324 C1344 0.950 . S
H1325 C1345 0.950 . S
H1326 C1347 0.950 . S
H1327 C1350 0.950 . S
H1328 C1351 0.950 . S
H1329 C1353 0.950 . S
H1330 C1354 0.950 . S
H1331 C1355 0.951 . S
H1332 C1357 0.951 . S
H1333 C1359 0.950 1_565 S
H1334 C1360 0.931 1_565 S
H1335 C1362 0.950 . S
H1336 C1365 0.950 . S
H1337 C1366 0.950 . S
H1338 C1368 0.950 . S
H1339 C1369 0.950 . S
C1340 H1322 0.961 . S
C1340 C1341 1.356 1_565 S
C1340 C1342 1.388 . S
C1341 C1340 1.356 1_545 S
C1341 C1345 1.385 . S
C1342 H1323 0.958 . S
C1342 C1340 1.388 . S
C1342 C1343 1.359 1_565 S
C1343 C1342 1.359 1_545 S
C1343 C1344 1.414 . S
C1343 C1346 1.499 . S
C1344 H1324 0.950 . S
C1344 C1343 1.414 . S
C1344 C1345 1.374 . S
C1345 H1325 0.950 . S
C1345 C1341 1.385 . S
C1345 C1344 1.374 . S
C1346 C1343 1.499 . S
C1346 C1347 1.373 . S
C1346 C1348 1.389 1_545 S
C1347 H1326 0.950 . S
C1347 C1346 1.373 . S
C1347 C1363 1.377 . S
C1348 C1346 1.389 1_565 S
C1348 C1349 1.524 . S
C1348 C1362 1.377 . S
C1349 C1348 1.524 . S
C1349 C1350 1.397 . S
C1349 C1354 1.363 . S
C1350 H1327 0.950 . S
C1350 C1349 1.397 . S
C1350 C1351 1.334 . S
C1351 H1328 0.950 . S
C1351 C1350 1.334 . S
C1351 C1352 1.287 . S
C1352 C1351 1.287 . S
C1352 C1353 1.524 . S
C1352 H1371 0.913 . S
C1353 H1329 0.950 . S
C1353 C1352 1.524 . S
C1353 C1354 1.415 . S
C1354 H1330 0.950 . S
C1354 C1349 1.363 . S
C1354 C1353 1.415 . S
C1355 H1331 0.951 . S
C1355 C1356 1.366 . S
C1355 C1357 1.388 . S
C1356 C1355 1.366 . S
C1356 C1360 1.385 . S
C1357 H1332 0.951 . S
C1357 C1355 1.388 . S
C1357 C1358 1.366 . S
C1358 C1357 1.366 . S
C1358 C1359 1.414 . S
C1358 C1361 1.499 . S
C1359 H1333 0.950 1_545 S
C1359 C1358 1.414 . S
C1359 C1360 1.374 . S
C1360 H1334 0.931 1_545 S
C1360 C1356 1.385 . S
C1360 C1359 1.374 . S
C1361 C1358 1.499 . S
C1361 C1362 1.373 1_545 S
C1361 C1363 1.389 . S
C1362 H1335 0.950 . S
C1362 C1348 1.377 . S
C1362 C1361 1.373 1_565 S
C1363 C1347 1.377 . S
C1363 C1361 1.389 . S
C1363 C1364 1.524 . S
C1364 C1363 1.524 . S
C1364 C1365 1.397 . S
C1364 C1369 1.363 . S
C1365 H1336 0.950 . S
C1365 C1364 1.397 . S
C1365 C1366 1.334 . S
C1366 H1337 0.950 . S
C1366 C1365 1.334 . S
C1366 C1367 1.287 . S
C1367 C1366 1.287 . S
C1367 C1368 1.524 . S
C1367 H1370 0.999 . S
C1368 H1338 0.950 . S
C1368 C1367 1.524 . S
C1368 C1369 1.415 . S
C1369 H1339 0.950 . S
C1369 C1364 1.363 . S
C1369 C1368 1.415 . S
H1370 C1367 0.999 . S
H1371 C1352 0.913 . S
H1372 C1390 0.951 . S
H1373 C1392 0.951 . S
H1374 C1394 0.950 . S
H1375 C1395 0.950 . S
H1376 C1397 0.950 . S
H1377 C1400 0.950 . S
H1378 C1401 0.950 . S
H1379 C1403 0.950 . S
H1380 C1404 0.950 . S
H1381 C1405 0.951 . S
H1382 C1407 0.951 . S
H1383 C1409 0.950 . S
H1384 C1410 0.950 . S
H1385 C1412 0.950 . S
H1386 C1415 0.950 . S
H1387 C1416 0.950 . S
H1388 C1418 0.950 . S
H1389 C1419 0.950 . S
C1390 H1372 0.951 . S
C1390 C1391 1.366 . S
C1390 C1392 1.388 . S
C1391 C1390 1.366 . S
C1391 C1395 1.385 . S
C1392 H1373 0.951 . S
C1392 C1390 1.388 . S
C1392 C1393 1.366 . S
C1393 C1392 1.366 . S
C1393 C1394 1.414 . S
C1393 C1396 1.499 . S
C1394 H1374 0.950 . S
C1394 C1393 1.414 . S
C1394 C1395 1.374 . S
C1395 H1375 0.950 . S
C1395 C1391 1.385 . S
C1395 C1394 1.374 . S
C1396 C1393 1.499 . S
C1396 C1397 1.373 . S
C1396 C1398 1.389 . S
C1397 H1376 0.950 . S
C1397 C1396 1.373 . S
C1397 C1413 1.377 . S
C1398 C1396 1.389 . S
C1398 C1399 1.524 . S
C1398 C1412 1.377 . S
C1399 C1398 1.524 . S
C1399 C1400 1.397 . S
C1399 C1404 1.363 . S
C1400 H1377 0.950 . S
C1400 C1399 1.397 . S
C1400 C1401 1.334 . S
C1401 H1378 0.950 . S
C1401 C1400 1.334 . S
C1401 C1402 1.287 . S
C1402 C1401 1.287 . S
C1402 C1403 1.524 . S
C1402 H1421 0.913 . S
C1403 H1379 0.950 . S
C1403 C1402 1.524 . S
C1403 C1404 1.415 . S
C1404 H1380 0.950 . S
C1404 C1399 1.363 . S
C1404 C1403 1.415 . S
C1405 H1381 0.951 . S
C1405 C1406 1.366 . S
C1405 C1407 1.388 . S
C1406 C1405 1.366 . S
C1406 C1410 1.385 . S
C1407 H1382 0.951 . S
C1407 C1405 1.388 . S
C1407 C1408 1.366 . S
C1408 C1407 1.366 . S
C1408 C1409 1.414 . S
C1408 C1411 1.499 . S
C1409 H1383 0.950 . S
C1409 C1408 1.414 . S
C1409 C1410 1.374 . S
C1410 H1384 0.950 . S
C1410 C1406 1.385 . S
C1410 C1409 1.374 . S
C1411 C1408 1.499 . S
C1411 C1412 1.373 . S
C1411 C1413 1.389 . S
C1412 H1385 0.950 . S
C1412 C1398 1.377 . S
C1412 C1411 1.373 . S
C1413 C1397 1.377 . S
C1413 C1411 1.389 . S
C1413 C1414 1.524 . S
C1414 C1413 1.524 . S
C1414 C1415 1.397 . S
C1414 C1419 1.363 . S
C1415 H1386 0.950 . S
C1415 C1414 1.397 . S
C1415 C1416 1.334 . S
C1416 H1387 0.950 . S
C1416 C1415 1.334 . S
C1416 C1417 1.287 . S
C1417 C1416 1.287 . S
C1417 C1418 1.524 . S
C1417 H1420 0.999 . S
C1418 H1388 0.950 . S
C1418 C1417 1.524 . S
C1418 C1419 1.415 . S
C1419 H1389 0.950 . S
C1419 C1414 1.363 . S
C1419 C1418 1.415 . S
H1420 C1417 0.999 . S
H1421 C1402 0.913 . S
H1422 C1440 0.951 . S
H1423 C1442 0.951 . S
H1424 C1444 0.950 . S
H1425 C1445 0.950 . S
H1426 C1447 0.950 . S
H1427 C1450 0.950 . S
H1428 C1451 0.950 . S
H1429 C1453 0.950 . S
H1430 C1454 0.950 . S
H1431 C1455 0.951 . S
H1432 C1457 0.951 . S
H1433 C1459 0.950 . S
H1434 C1460 0.950 . S
H1435 C1462 0.950 . S
H1436 C1465 0.950 . S
H1437 C1466 0.950 . S
H1438 C1468 0.950 . S
H1439 C1469 0.950 . S
C1440 H1422 0.951 . S
C1440 C1441 1.366 . S
C1440 C1442 1.388 . S
C1441 C1440 1.366 . S
C1441 C1445 1.385 . S
C1442 H1423 0.951 . S
C1442 C1440 1.388 . S
C1442 C1443 1.366 . S
C1443 C1442 1.366 . S
C1443 C1444 1.414 . S
C1443 C1446 1.499 . S
C1444 H1424 0.950 . S
C1444 C1443 1.414 . S
C1444 C1445 1.374 . S
C1445 H1425 0.950 . S
C1445 C1441 1.385 . S
C1445 C1444 1.374 . S
C1446 C1443 1.499 . S
C1446 C1447 1.373 . S
C1446 C1448 1.389 . S
C1447 H1426 0.950 . S
C1447 C1446 1.373 . S
C1447 C1463 1.377 . S
C1448 C1446 1.389 . S
C1448 C1449 1.524 . S
C1448 C1462 1.377 . S
C1449 C1448 1.524 . S
C1449 C1450 1.397 . S
C1449 C1454 1.363 . S
C1450 H1427 0.950 . S
C1450 C1449 1.397 . S
C1450 C1451 1.334 . S
C1451 H1428 0.950 . S
C1451 C1450 1.334 . S
C1451 C1452 1.287 . S
C1452 C1451 1.287 . S
C1452 C1453 1.524 . S
C1452 H1471 0.913 . S
C1453 H1429 0.950 . S
C1453 C1452 1.524 . S
C1453 C1454 1.415 . S
C1454 H1430 0.950 . S
C1454 C1449 1.363 . S
C1454 C1453 1.415 . S
C1455 H1431 0.951 . S
C1455 C1456 1.366 . S
C1455 C1457 1.388 . S
C1456 C1455 1.366 . S
C1456 C1460 1.385 . S
C1457 H1432 0.951 . S
C1457 C1455 1.388 . S
C1457 C1458 1.366 . S
C1458 C1457 1.366 . S
C1458 C1459 1.414 . S
C1458 C1461 1.499 . S
C1459 H1433 0.950 . S
C1459 C1458 1.414 . S
C1459 C1460 1.374 . S
C1460 H1434 0.950 . S
C1460 C1456 1.385 . S
C1460 C1459 1.374 . S
C1461 C1458 1.499 . S
C1461 C1462 1.373 . S
C1461 C1463 1.389 . S
C1462 H1435 0.950 . S
C1462 C1448 1.377 . S
C1462 C1461 1.373 . S
C1463 C1447 1.377 . S
C1463 C1461 1.389 . S
C1463 C1464 1.524 . S
C1464 C1463 1.524 . S
C1464 C1465 1.397 . S
C1464 C1469 1.363 . S
C1465 H1436 0.950 . S
C1465 C1464 1.397 . S
C1465 C1466 1.334 . S
C1466 H1437 0.950 . S
C1466 C1465 1.334 . S
C1466 C1467 1.287 . S
C1467 C1466 1.287 . S
C1467 C1468 1.524 . S
C1467 H1470 0.999 . S
C1468 H1438 0.950 . S
C1468 C1467 1.524 . S
C1468 C1469 1.415 . S
C1469 H1439 0.950 . S
C1469 C1464 1.363 . S
C1469 C1468 1.415 . S
H1470 C1467 0.999 . S
H1471 C1452 0.913 . S
H1472 C1490 0.951 . S
H1473 C1492 0.951 . S
H1474 C1494 0.950 . S
H1475 C1495 0.950 . S
H1476 C1497 0.950 . S
H1477 C1500 0.950 . S
H1478 C1501 0.950 . S
H1479 C1503 0.950 . S
H1480 C1504 0.950 . S
H1481 C1505 0.951 1_455 S
H1482 C1507 0.935 1_455 S
H1483 C1509 0.950 . S
H1484 C1510 0.950 . S
H1485 C1512 0.950 . S
H1486 C1515 0.950 . S
H1487 C1516 0.950 . S
H1488 C1518 0.950 . S
H1489 C1519 0.950 . S
C1490 H1472 0.951 . S
C1490 C1491 1.366 . S
C1490 C1492 1.388 . S
C1491 C1490 1.366 . S
C1491 C1495 1.385 1_655 S
C1492 H1473 0.951 . S
C1492 C1490 1.388 . S
C1492 C1493 1.366 . S
C1493 C1492 1.366 . S
C1493 C1494 1.414 1_655 S
C1493 C1496 1.499 . S
C1494 H1474 0.950 . S
C1494 C1493 1.414 1_455 S
C1494 C1495 1.374 . S
C1495 H1475 0.950 . S
C1495 C1491 1.385 1_455 S
C1495 C1494 1.374 . S
C1496 C1493 1.499 . S
C1496 C1497 1.373 1_655 S
C1496 C1498 1.389 . S
C1497 H1476 0.950 . S
C1497 C1496 1.373 1_455 S
C1497 C1513 1.377 . S
C1498 C1496 1.389 . S
C1498 C1499 1.524 . S
C1498 C1512 1.377 . S
C1499 C1498 1.524 . S
C1499 C1500 1.397 . S
C1499 C1504 1.363 . S
C1500 H1477 0.950 . S
C1500 C1499 1.397 . S
C1500 C1501 1.334 . S
C1501 H1478 0.950 . S
C1501 C1500 1.334 . S
C1501 C1502 1.287 . S
C1502 C1501 1.287 . S
C1502 C1503 1.524 . S
C1502 H1521 0.913 . S
C1503 H1479 0.950 . S
C1503 C1502 1.524 . S
C1503 C1504 1.415 . S
C1504 H1480 0.950 . S
C1504 C1499 1.363 . S
C1504 C1503 1.415 . S
C1505 H1481 0.951 1_655 S
C1505 C1506 1.366 . S
C1505 C1507 1.392 . S
C1506 C1505 1.366 . S
C1506 C1510 1.385 . S
C1507 H1482 0.935 1_655 S
C1507 C1505 1.392 . S
C1507 C1508 1.379 . S
C1508 C1507 1.379 . S
C1508 C1509 1.414 . S
C1508 C1511 1.499 . S
C1509 H1483 0.950 . S
C1509 C1508 1.414 . S
C1509 C1510 1.374 . S
C1510 H1484 0.950 . S
C1510 C1506 1.385 . S
C1510 C1509 1.374 . S
C1511 C1508 1.499 . S
C1511 C1512 1.373 . S
C1511 C1513 1.389 1_655 S
C1512 H1485 0.950 . S
C1512 C1498 1.377 . S
C1512 C1511 1.373 . S
C1513 C1497 1.377 . S
C1513 C1511 1.389 1_455 S
C1513 C1514 1.524 . S
C1514 C1513 1.524 . S
C1514 C1515 1.397 . S
C1514 C1519 1.363 . S
C1515 H1486 0.950 . S
C1515 C1514 1.397 . S
C1515 C1516 1.334 . S
C1516 H1487 0.950 . S
C1516 C1515 1.334 . S
C1516 C1517 1.287 . S
C1517 C1516 1.287 . S
C1517 C1518 1.524 . S
C1517 H1520 0.999 . S
C1518 H1488 0.950 . S
C1518 C1517 1.524 . S
C1518 C1519 1.415 . S
C1519 H1489 0.950 . S
C1519 C1514 1.363 . S
C1519 C1518 1.415 . S
H1520 C1517 0.999 . S
H1521 C1502 0.913 . S
H1522 C1540 0.951 . S
H1523 C1542 0.951 . S
H1524 C1544 0.950 . S
H1525 C1545 0.950 . S
H1526 C1547 0.950 . S
H1527 C1550 0.950 . S
H1528 C1551 0.950 . S
H1529 C1553 0.950 . S
H1530 C1554 0.950 . S
H1531 C1555 0.951 . S
H1532 C1557 0.951 . S
H1533 C1559 0.950 . S
H1534 C1560 0.950 . S
H1535 C1562 0.950 . S
H1536 C1565 0.905 1_565 S
H1537 C1566 0.965 . S
H1538 C1568 0.950 . S
H1539 C1569 0.950 . S
C1540 H1522 0.951 . S
C1540 C1541 1.366 . S
C1540 C1542 1.388 . S
C1541 C1540 1.366 . S
C1541 C1545 1.385 1_565 S
C1542 H1523 0.951 . S
C1542 C1540 1.388 . S
C1542 C1543 1.366 . S
C1543 C1542 1.366 . S
C1543 C1544 1.414 1_565 S
C1543 C1546 1.499 . S
C1544 H1524 0.950 . S
C1544 C1543 1.414 1_545 S
C1544 C1545 1.374 . S
C1545 H1525 0.950 . S
C1545 C1541 1.385 1_545 S
C1545 C1544 1.374 . S
C1546 C1543 1.499 . S
C1546 C1547 1.373 1_565 S
C1546 C1548 1.389 . S
C1547 H1526 0.950 . S
C1547 C1546 1.373 1_545 S
C1547 C1563 1.377 . S
C1548 C1546 1.389 . S
C1548 C1549 1.524 . S
C1548 C1562 1.377 . S
C1549 C1548 1.524 . S
C1549 C1550 1.397 . S
C1549 C1554 1.363 . S
C1550 H1527 0.950 . S
C1550 C1549 1.397 . S
C1550 C1551 1.334 . S
C1551 H1528 0.950 . S
C1551 C1550 1.334 . S
C1551 C1552 1.287 . S
C1552 C1551 1.287 . S
C1552 C1553 1.524 . S
C1552 H1571 0.913 . S
C1553 H1529 0.950 . S
C1553 C1552 1.524 . S
C1553 C1554 1.415 . S
C1554 H1530 0.950 . S
C1554 C1549 1.363 . S
C1554 C1553 1.415 . S
C1555 H1531 0.951 . S
C1555 C1556 1.366 1_545 S
C1555 C1557 1.388 . S
C1556 C1555 1.366 1_565 S
C1556 C1560 1.385 . S
C1557 H1532 0.951 . S
C1557 C1555 1.388 . S
C1557 C1558 1.366 1_545 S
C1558 C1557 1.366 1_565 S
C1558 C1559 1.414 . S
C1558 C1561 1.499 . S
C1559 H1533 0.950 . S
C1559 C1558 1.414 . S
C1559 C1560 1.374 . S
C1560 H1534 0.950 . S
C1560 C1556 1.385 . S
C1560 C1559 1.374 . S
C1561 C1558 1.499 . S
C1561 C1562 1.373 . S
C1561 C1563 1.389 1_565 S
C1562 H1535 0.950 . S
C1562 C1548 1.377 . S
C1562 C1561 1.373 . S
C1563 C1547 1.377 . S
C1563 C1561 1.389 1_545 S
C1563 C1564 1.524 . S
C1564 C1563 1.524 . S
C1564 C1565 1.424 . S
C1564 C1569 1.363 . S
C1565 H1536 0.905 1_545 S
C1565 C1564 1.424 . S
C1565 C1566 1.352 . S
C1566 H1537 0.965 . S
C1566 C1565 1.352 . S
C1566 C1567 1.287 . S
C1567 C1566 1.287 . S
C1567 C1568 1.524 . S
C1567 H1570 0.999 . S
C1568 H1538 0.950 . S
C1568 C1567 1.524 . S
C1568 C1569 1.415 . S
C1569 H1539 0.950 . S
C1569 C1564 1.363 . S
C1569 C1568 1.415 . S
H1570 C1567 0.999 . S
H1571 C1552 0.913 . S
H1572 C1590 0.951 . S
H1573 C1592 0.951 . S
H1574 C1594 0.950 . S
H1575 C1595 0.950 . S
H1576 C1597 0.950 . S
H1577 C1600 0.950 . S
H1578 C1601 0.950 . S
H1579 C1603 0.950 . S
H1580 C1604 0.950 . S
H1581 C1605 0.951 . S
H1582 C1607 0.951 . S
H1583 C1609 0.950 . S
H1584 C1610 0.950 . S
H1585 C1612 0.950 . S
H1586 C1615 0.950 . S
H1587 C1616 0.950 . S
H1588 C1618 0.950 . S
H1589 C1619 0.950 . S
C1590 H1572 0.951 . S
C1590 C1591 1.366 . S
C1590 C1592 1.388 . S
C1591 C1590 1.366 . S
C1591 C1595 1.385 . S
C1592 H1573 0.951 . S
C1592 C1590 1.388 . S
C1592 C1593 1.366 . S
C1593 C1592 1.366 . S
C1593 C1594 1.414 . S
C1593 C1596 1.499 . S
C1594 H1574 0.950 . S
C1594 C1593 1.414 . S
C1594 C1595 1.374 . S
C1595 H1575 0.950 . S
C1595 C1591 1.385 . S
C1595 C1594 1.374 . S
C1596 C1593 1.499 . S
C1596 C1597 1.373 . S
C1596 C1598 1.389 . S
C1597 H1576 0.950 . S
C1597 C1596 1.373 . S
C1597 C1613 1.377 . S
C1598 C1596 1.389 . S
C1598 C1599 1.524 . S
C1598 C1612 1.377 . S
C1599 C1598 1.524 . S
C1599 C1600 1.397 . S
C1599 C1604 1.363 . S
C1600 H1577 0.950 . S
C1600 C1599 1.397 . S
C1600 C1601 1.334 . S
C1601 H1578 0.950 . S
C1601 C1600 1.334 . S
C1601 C1602 1.287 . S
C1602 C1601 1.287 . S
C1602 C1603 1.524 . S
C1602 H1621 0.913 . S
C1603 H1579 0.950 . S
C1603 C1602 1.524 . S
C1603 C1604 1.415 . S
C1604 H1580 0.950 . S
C1604 C1599 1.363 . S
C1604 C1603 1.415 . S
C1605 H1581 0.951 . S
C1605 C1606 1.366 . S
C1605 C1607 1.388 . S
C1606 C1605 1.366 . S
C1606 C1610 1.385 . S
C1607 H1582 0.951 . S
C1607 C1605 1.388 . S
C1607 C1608 1.366 . S
C1608 C1607 1.366 . S
C1608 C1609 1.414 . S
C1608 C1611 1.499 . S
C1609 H1583 0.950 . S
C1609 C1608 1.414 . S
C1609 C1610 1.374 . S
C1610 H1584 0.950 . S
C1610 C1606 1.385 . S
C1610 C1609 1.374 . S
C1611 C1608 1.499 . S
C1611 C1612 1.373 . S
C1611 C1613 1.389 . S
C1612 H1585 0.950 . S
C1612 C1598 1.377 . S
C1612 C1611 1.373 . S
C1613 C1597 1.377 . S
C1613 C1611 1.389 . S
C1613 C1614 1.524 . S
C1614 C1613 1.524 . S
C1614 C1615 1.397 . S
C1614 C1619 1.363 . S
C1615 H1586 0.950 . S
C1615 C1614 1.397 . S
C1615 C1616 1.334 . S
C1616 H1587 0.950 . S
C1616 C1615 1.334 . S
C1616 C1617 1.287 . S
C1617 C1616 1.287 . S
C1617 C1618 1.524 . S
C1617 H1620 0.999 . S
C1618 H1588 0.950 . S
C1618 C1617 1.524 . S
C1618 C1619 1.415 . S
C1619 H1589 0.950 . S
C1619 C1614 1.363 . S
C1619 C1618 1.415 . S
H1620 C1617 0.999 . S
H1621 C1602 0.913 . S
H1622 C1640 0.951 . S
H1623 C1642 0.951 . S
H1624 C1644 0.950 . S
H1625 C1645 0.950 . S
H1626 C1647 0.950 . S
H1627 C1650 0.950 . S
H1628 C1651 0.950 . S
H1629 C1653 0.950 . S
H1630 C1654 0.950 . S
H1631 C1655 0.951 . S
H1632 C1657 0.951 . S
H1633 C1659 0.950 . S
H1634 C1660 0.950 . S
H1635 C1662 0.950 . S
H1636 C1665 0.950 . S
H1637 C1666 0.950 . S
H1638 C1668 0.950 . S
H1639 C1669 0.950 . S
C1640 H1622 0.951 . S
C1640 C1641 1.366 . S
C1640 C1642 1.388 . S
C1641 C1640 1.366 . S
C1641 C1645 1.385 . S
C1642 H1623 0.951 . S
C1642 C1640 1.388 . S
C1642 C1643 1.366 . S
C1643 C1642 1.366 . S
C1643 C1644 1.414 . S
C1643 C1646 1.499 . S
C1644 H1624 0.950 . S
C1644 C1643 1.414 . S
C1644 C1645 1.374 . S
C1645 H1625 0.950 . S
C1645 C1641 1.385 . S
C1645 C1644 1.374 . S
C1646 C1643 1.499 . S
C1646 C1647 1.373 . S
C1646 C1648 1.389 . S
C1647 H1626 0.950 . S
C1647 C1646 1.373 . S
C1647 C1663 1.377 . S
C1648 C1646 1.389 . S
C1648 C1649 1.524 . S
C1648 C1662 1.377 . S
C1649 C1648 1.524 . S
C1649 C1650 1.397 . S
C1649 C1654 1.363 . S
C1650 H1627 0.950 . S
C1650 C1649 1.397 . S
C1650 C1651 1.334 . S
C1651 H1628 0.950 . S
C1651 C1650 1.334 . S
C1651 C1652 1.287 . S
C1652 C1651 1.287 . S
C1652 C1653 1.524 . S
C1652 H1671 0.913 . S
C1653 H1629 0.950 . S
C1653 C1652 1.524 . S
C1653 C1654 1.415 . S
C1654 H1630 0.950 . S
C1654 C1649 1.363 . S
C1654 C1653 1.415 . S
C1655 H1631 0.951 . S
C1655 C1656 1.366 . S
C1655 C1657 1.388 . S
C1656 C1655 1.366 . S
C1656 C1660 1.385 . S
C1657 H1632 0.951 . S
C1657 C1655 1.388 . S
C1657 C1658 1.366 . S
C1658 C1657 1.366 . S
C1658 C1659 1.414 . S
C1658 C1661 1.499 . S
C1659 H1633 0.950 . S
C1659 C1658 1.414 . S
C1659 C1660 1.374 . S
C1660 H1634 0.950 . S
C1660 C1656 1.385 . S
C1660 C1659 1.374 . S
C1661 C1658 1.499 . S
C1661 C1662 1.373 . S
C1661 C1663 1.389 . S
C1662 H1635 0.950 . S
C1662 C1648 1.377 . S
C1662 C1661 1.373 . S
C1663 C1647 1.377 . S
C1663 C1661 1.389 . S
C1663 C1664 1.524 . S
C1664 C1663 1.524 . S
C1664 C1665 1.397 . S
C1664 C1669 1.363 . S
C1665 H1636 0.950 . S
C1665 C1664 1.397 . S
C1665 C1666 1.334 . S
C1666 H1637 0.950 . S
C1666 C1665 1.334 . S
C1666 C1667 1.287 . S
C1667 C1666 1.287 . S
C1667 C1668 1.524 . S
C1667 H1670 0.999 . S
C1668 H1638 0.950 . S
C1668 C1667 1.524 . S
C1668 C1669 1.415 . S
C1669 H1639 0.950 . S
C1669 C1664 1.363 . S
C1669 C1668 1.415 . S
H1670 C1667 0.999 . S
H1671 C1652 0.913 . S
C491 C255 1.906 . S
C506 C321 2.013 1_545 S
C556 C361 2.025 . S
C541 C294 1.893 . S
C606 C401 2.018 . S
C591 C177 1.907 . S
C656 C441 2.019 1_455 S
C641 C216 1.912 1_455 S
C706 C330 2.013 1_565 S
C691 C99 1.912 . S
C741 C138 1.894 . S
C756 C370 2.024 . S
C791 C21 1.907 . S
C806 C410 2.018 . S
C841 C60 1.912 . S
C856 C450 2.019 1_655 S
C906 C327 0.254 . S
C891 C196 0.265 1_455 S
C956 C367 0.259 . S
C941 C235 0.274 . S
C1006 C407 0.252 . S
C991 C289 0.267 . S
C1041 C157 0.275 . S
C1056 C447 0.262 . S
C1091 C40 0.261 . S
C1106 C318 0.244 . S
C1156 C358 0.262 . S
C1141 C79 0.259 . S
C1206 C398 0.255 . S
C1191 C133 0.258 . S
C1241 C1 0.261 . S
C1256 C438 0.266 . S
C1291 C211 2.519 . S
C1306 C331 2.825 . S
C1341 C250 2.508 . S
C1356 C371 2.814 . S
C1406 C411 2.821 . S
C1391 C274 2.520 . S
C1456 C451 2.818 . S
C1441 C172 2.506 . S
C1491 C55 2.520 1_655 S
C1506 C322 2.825 . S
C1556 C362 2.814 . S
C1541 C94 2.509 . S
C1606 C402 2.821 . S
C1591 C118 2.522 . S
C1641 C16 2.512 . S
C1656 C442 2.824 . S
