# Generated by pormake.
# Topology anh, (6,3)-cn, num edge types: 1
# Building blocks:
#     Node 0, Type 0, BuildingBlock: NUHQIS_clean_sbu_0, # of connection points: 6
#     Node 1, Type 0, BuildingBlock: NUHQIS_clean_sbu_0, # of connection points: 6
#     Node 2, Type 0, BuildingBlock: NUHQIS_clean_sbu_0, # of connection points: 6
#     Node 3, Type 1, BuildingBlock: VETTIZ_charged_linker_0, # of connection points: 3
#     Node 4, Type 1, BuildingBlock: VETTIZ_charged_linker_0, # of connection points: 3
#     Node 5, Type 1, BuildingBlock: VETTIZ_charged_linker_0, # of connection points: 3
#     Node 6, Type 1, BuildingBlock: VETTIZ_charged_linker_0, # of connection points: 3
#     Node 7, Type 1, BuildingBlock: VETTIZ_charged_linker_0, # of connection points: 3
#     Node 8, Type 1, BuildingBlock: VETTIZ_charged_linker_0, # of connection points: 3
#     Edge 9, Type (0, 1), BuildingBlock: EZIPEK_clean_linker_0, # of connection points: 2
#     Edge 10, Type (0, 1), BuildingBlock: EZIPEK_clean_linker_0, # of connection points: 2
#     Edge 11, Type (0, 1), BuildingBlock: EZIPEK_clean_linker_0, # of connection points: 2
#     Edge 12, Type (0, 1), BuildingBlock: EZIPEK_clean_linker_0, # of connection points: 2
#     Edge 13, Type (0, 1), BuildingBlock: EZIPEK_clean_linker_0, # of connection points: 2
#     Edge 14, Type (0, 1), BuildingBlock: EZIPEK_clean_linker_0, # of connection points: 2
#     Edge 15, Type (0, 1), BuildingBlock: EZIPEK_clean_linker_0, # of connection points: 2
#     Edge 16, Type (0, 1), BuildingBlock: EZIPEK_clean_linker_0, # of connection points: 2
#     Edge 17, Type (0, 1), BuildingBlock: EZIPEK_clean_linker_0, # of connection points: 2
#     Edge 18, Type (0, 1), BuildingBlock: EZIPEK_clean_linker_0, # of connection points: 2
#     Edge 19, Type (0, 1), BuildingBlock: EZIPEK_clean_linker_0, # of connection points: 2
#     Edge 20, Type (0, 1), BuildingBlock: EZIPEK_clean_linker_0, # of connection points: 2
#     Edge 21, Type (0, 1), BuildingBlock: EZIPEK_clean_linker_0, # of connection points: 2
#     Edge 22, Type (0, 1), BuildingBlock: EZIPEK_clean_linker_0, # of connection points: 2
#     Edge 23, Type (0, 1), BuildingBlock: EZIPEK_clean_linker_0, # of connection points: 2
#     Edge 24, Type (0, 1), BuildingBlock: EZIPEK_clean_linker_0, # of connection points: 2
#     Edge 25, Type (0, 1), BuildingBlock: EZIPEK_clean_linker_0, # of connection points: 2
#     Edge 26, Type (0, 1), BuildingBlock: EZIPEK_clean_linker_0, # of connection points: 2
# Relax obj value: 0.304
# Max RMSD: 0.199
# Mean RMSD: 0.166
data_MOF--net-anh--node1-NUHQIS_clean_sbu_0--node2-VETTIZ_charged_linker_0--edge1-EZIPEK_clean_linker_0
_symmetry_space_group_name_H-M    P1
_symmetry_Int_Tables_number       1
_symmetry_cell_setting            triclinic
loop_
_symmetry_equiv_pos_as_xyz
'x, y, z'
_cell_length_a     28.356745
_cell_length_b     28.378117
_cell_length_c     52.738179
_cell_angle_alpha  90.786973
_cell_angle_beta   92.452167
_cell_angle_gamma 120.12749
loop_
_atom_site_label
_atom_site_type_symbol
_atom_site_fract_x
_atom_site_fract_y
_atom_site_fract_z
_atom_type_partial_charge
Tb0 Tb 0.24041 0.64936 0.17165 0.0
Eu1 Eu 0.17644 0.71071 0.15451 0.0
C2 C 0.20571 0.70726 0.21177 0.0
C3 C 1.10939 0.57569 0.16423 0.0
C4 C 0.29182 0.55295 0.17832 0.0
C5 C 0.30211 0.47554 0.18897 0.0
C6 C 0.29636 0.51969 0.19655 0.0
C7 C 0.28959 0.5396 0.15238 0.0
C8 C 0.29604 0.49599 0.14484 0.0
C9 C 0.30399 0.46488 0.1631 0.0
C10 C 0.29142 0.60234 0.1866 0.0
O11 O 0.23355 0.63618 0.13019 0.0
O12 O 0.19546 0.6875 0.11711 0.0
O13 O 0.26581 0.78123 0.15394 0.0
O14 O 0.3063 0.7383 0.17425 0.0
C15 C 0.21621 0.6565 0.11218 0.0
O16 O 0.13723 0.73882 0.12687 0.0
O17 O 0.1305 0.74867 0.16696 0.0
O18 O 0.20793 0.74013 0.19436 0.0
O19 O 0.20733 0.66322 0.20584 0.0
O20 O 0.15699 0.57755 0.16352 0.0
O21 O 1.10872 0.62211 0.16328 0.0
C22 C 0.31006 0.78328 0.16467 0.0
O23 O 0.31044 0.6423 0.17105 0.0
O24 O 0.24673 0.59467 0.19616 0.0
C25 C 1.04993 0.71384 0.14138 0.0
C26 C 0.93954 0.6336 0.1436 0.0
C27 C 0.96976 0.6321 0.12362 0.0
C28 C 1.0245 0.67179 0.12249 0.0
C29 C 1.01848 0.71708 0.16054 0.0
C30 C 0.96351 0.67706 0.16168 0.0
C31 C 1.11005 0.74679 0.14415 0.0
H32 H 0.30852 0.4519 0.20324 0.0
H33 H 0.29749 0.52908 0.21663 0.0
H34 H 0.28505 0.5641 0.13797 0.0
H35 H 0.29751 0.48816 0.1248 0.0
H36 H 0.95139 0.59898 0.10937 0.0
H37 H 1.04743 0.66769 0.10757 0.0
H38 H 1.03722 0.74879 0.17543 0.0
H39 H 0.94026 0.6789 0.17705 0.0
Tb40 Tb 0.75531 0.16337 0.50335 0.0
Eu41 Eu 0.63079 0.09827 0.48312 0.0
C42 C 0.66223 0.12026 0.54141 0.0
C43 C 0.6959 1.03038 0.49748 0.0
C44 C 0.89033 0.27894 0.512 0.0
C45 C 0.94545 0.37283 0.52816 0.0
C46 C 0.92147 0.31684 0.5319 0.0
C47 C 0.8856 0.29777 0.48804 0.0
C48 C 0.90935 0.35334 0.48437 0.0
C49 C 0.93795 0.39102 0.50454 0.0
C50 C 0.85441 0.22123 0.51731 0.0
O51 O 0.75275 0.18442 0.46348 0.0
O52 O 0.67933 0.1041 0.44968 0.0
O53 O 0.65027 0.18861 0.48517 0.0
O54 O 0.73445 0.2297 0.50638 0.0
C55 C 0.72282 0.14974 0.4448 0.0
O56 O 0.54688 1.03279 0.48583 0.0
O57 O 0.56822 0.08693 0.45428 0.0
O58 O 0.62964 0.12111 0.52351 0.0
O59 O 0.70883 0.124 0.53631 0.0
O60 O 0.74178 1.0786 0.49768 0.0
O61 O 0.64848 1.02914 0.49445 0.0
C62 C 0.69222 0.23282 0.49657 0.0
O63 O 0.81489 0.21251 0.53176 0.0
O64 O 0.83702 0.18682 0.49772 0.0
C65 C 0.48226 1.05556 0.47068 0.0
C66 C 0.39002 1.06292 0.481 0.0
C67 C 0.38667 1.02543 0.46233 0.0
C68 C 0.43251 1.02175 0.45721 0.0
C69 C 0.4864 0.09458 0.48875 0.0
C70 C 0.44032 0.0983 0.4939 0.0
C71 C 0.52889 1.04834 0.46635 0.0
H72 H 0.96776 0.40174 0.54384 0.0
H73 H 0.92482 0.3031 0.5506 0.0
H74 H 0.86114 0.26964 0.47244 0.0
H75 H 0.90357 0.36696 0.466 0.0
H76 H 0.34797 0.99774 0.45229 0.0
H77 H 0.4288 0.99163 0.44319 0.0
H78 H 0.52484 0.1211 0.49924 0.0
H79 H 0.44338 0.12724 0.50841 0.0
Tb80 Tb 0.71569 0.63128 0.83886 0.0
Eu81 Eu 0.65329 0.51167 0.81406 0.0
C82 C 0.66046 0.52897 0.87321 0.0
C83 C 0.78689 0.57257 0.82919 0.0
C84 C 0.73131 0.75718 0.86445 0.0
C85 C 0.72104 0.83334 0.85177 0.0
C86 C 0.75442 0.81121 0.85702 0.0
C87 C 0.67598 0.72834 0.87014 0.0
C88 C 0.64263 0.75056 0.86499 0.0
C89 C 0.66449 0.80155 0.85405 0.0
C90 C 0.75861 0.72672 0.85802 0.0
O91 O 0.73893 0.64181 0.79899 0.0
O92 O 0.66565 0.56515 0.78138 0.0
O93 O 0.58375 0.52486 0.82859 0.0
O94 O 0.63093 0.61784 0.83046 0.0
C95 C 0.70802 0.61314 0.77896 0.0
O96 O 0.63706 0.42796 0.81069 0.0
O97 O 0.59428 0.45456 0.78513 0.0
O98 O 0.66412 0.49963 0.85506 0.0
O99 O 0.6693 0.57825 0.86919 0.0
O100 O 0.78002 0.60753 0.8434 0.0
O101 O 0.74571 0.53769 0.8133 0.0
C102 C 0.58337 0.57143 0.83101 0.0
O103 O 0.74793 0.68446 0.87131 0.0
O104 O 0.75488 0.7153 0.8338 0.0
C105 C 0.54776 0.36273 0.79595 0.0
C106 C 0.45308 0.26306 0.80325 0.0
C107 C 0.49105 0.26603 0.7862 0.0
C108 C 0.53817 0.31553 0.78263 0.0
C109 C 0.50899 0.36039 0.81241 0.0
C110 C 0.46187 0.31053 0.81622 0.0
C111 C 0.5989 0.41359 0.79272 0.0
H112 H 0.73835 0.8728 0.84331 0.0
H113 H 0.79683 0.83383 0.85232 0.0
H114 H 0.65713 0.68636 0.87568 0.0
H115 H 0.59897 0.72553 0.86673 0.0
H116 H 0.48487 0.22956 0.77618 0.0
H117 H 0.56757 0.31679 0.76978 0.0
H118 H 0.51553 0.39683 0.82249 0.0
H119 H 0.43306 0.30869 0.82956 0.0
C120 C 0.85591 0.31988 0.17351 0.0
C121 C 0.89989 0.36868 0.18677 0.0
C122 C 0.8946 0.37285 0.21303 0.0
C123 C 0.81159 0.2829 0.21336 0.0
C124 C 0.81119 0.2779 0.18726 0.0
C125 C 0.75819 0.224 0.17794 0.0
H126 H 0.52245 0.98567 0.21868 0.0
C127 C 0.76418 0.23289 0.22335 0.0
C128 C 0.73025 0.19714 0.20281 0.0
H129 H 0.55014 1.02278 0.14009 0.0
H130 H 0.63771 0.10773 0.15266 0.0
H131 H 0.64153 1.0143 0.23319 0.0
H132 H 0.55438 0.10065 0.23872 0.0
H133 H 0.5947 0.11768 0.26714 0.0
H134 H 0.54475 1.04725 0.2594 0.0
H135 H 0.59564 1.00258 0.2578 0.0
H136 H 0.66752 1.05269 0.26179 0.0
C137 C 0.77307 0.18677 0.16314 0.0
C138 C 0.72144 0.23824 0.16144 0.0
C139 C 0.76301 0.21263 0.32006 0.0
C140 C 0.72758 0.17106 0.33571 0.0
C141 C 0.68173 0.12478 0.32432 0.0
C142 C 0.67101 0.11964 0.29793 0.0
C143 C 0.70659 0.16116 0.2823 0.0
C144 C 0.75164 0.2067 0.29346 0.0
C145 C 0.78434 0.24686 0.2739 0.0
C146 C 0.75251 0.21715 0.24902 0.0
C147 C 0.70677 0.16725 0.25418 0.0
C148 C 0.84235 0.25416 0.2757 0.0
C149 C 0.78257 0.29997 0.27915 0.0
C150 C 0.54657 1.01149 0.20386 0.0
C151 C 0.52757 0.99598 0.17837 0.0
C152 C 0.5624 1.03243 0.16007 0.0
C153 C 0.61327 1.08202 0.16732 0.0
C154 C 0.6309 0.09666 0.1933 0.0
C155 C 0.59659 1.06022 0.21065 0.0
C156 C 0.61865 1.07818 0.23733 0.0
C157 C 0.67054 0.1321 0.23405 0.0
C158 C 0.68037 0.14521 0.20814 0.0
C159 C 0.63123 1.03481 0.24833 0.0
C160 C 0.57609 0.08608 0.25161 0.0
H161 H 0.85382 0.33861 0.24605 0.0
H162 H 0.85661 0.31428 0.15323 0.0
H163 H 0.71182 0.26601 0.17224 0.0
H164 H 0.6824 0.20112 0.15541 0.0
H165 H 0.74216 0.25898 0.14416 0.0
H166 H 0.80052 0.17773 0.17515 0.0
H167 H 0.79435 0.20664 0.14583 0.0
H168 H 0.73587 0.14757 0.15726 0.0
H169 H 0.79849 0.24887 0.32835 0.0
H170 H 0.65388 0.09245 0.336 0.0
H171 H 0.63496 1.08329 0.29086 0.0
H172 H 0.83997 0.21401 0.27756 0.0
H173 H 0.86659 0.28039 0.29258 0.0
H174 H 0.86552 0.27153 0.25872 0.0
H175 H 0.74767 0.29267 0.29065 0.0
H176 H 0.77615 0.31712 0.26144 0.0
H177 H 0.82046 0.33147 0.2897 0.0
H178 H 0.92502 0.40866 0.22404 0.0
C179 C 0.85234 0.33131 0.22604 0.0
C180 C 0.69772 0.77613 0.50811 0.0
C181 C 0.69773 0.82131 0.52168 0.0
C182 C 0.69647 0.81789 0.54826 0.0
C183 C 0.699 0.73251 0.548 0.0
C184 C 0.69782 0.73159 0.52178 0.0
C185 C 0.69663 0.67842 0.51227 0.0
H186 H 0.70504 0.44186 0.55196 0.0
C187 C 0.70115 0.68386 0.55771 0.0
C188 C 0.69919 0.64994 0.53704 0.0
H189 H 0.68463 0.47156 0.47365 0.0
H190 H 0.6886 0.55834 0.48662 0.0
H191 H 0.79479 0.56168 0.56869 0.0
H192 H 0.62051 0.46969 0.5708 0.0
H193 H 0.64266 0.50937 0.59915 0.0
H194 H 0.66469 0.4608 0.59308 0.0
H195 H 0.76036 0.50959 0.59098 0.0
H196 H 0.7805 0.57983 0.59805 0.0
C197 C 0.74636 0.69318 0.49667 0.0
C198 C 0.64306 0.64212 0.4965 0.0
C199 C 0.71983 0.6739 0.6544 0.0
C200 C 0.72157 0.63514 0.67029 0.0
C201 C 0.72024 0.5893 0.65889 0.0
C202 C 0.7167 0.58174 0.63236 0.0
C203 C 0.71384 0.62011 0.61658 0.0
C204 C 0.71536 0.66515 0.62776 0.0
C205 C 0.71006 0.70062 0.60818 0.0
C206 C 0.70609 0.67013 0.58329 0.0
C207 C 0.70834 0.62298 0.58835 0.0
C208 C 0.76295 0.75726 0.61084 0.0
C209 C 0.65642 0.70113 0.61252 0.0
C210 C 0.70157 0.46641 0.53725 0.0
C211 C 0.69512 0.44821 0.51168 0.0
C212 C 0.69021 0.48326 0.49365 0.0
C213 C 0.69227 0.53374 0.50113 0.0
C214 C 0.69856 0.5506 0.52715 0.0
C215 C 0.70275 0.51571 0.54431 0.0
C216 C 0.70727 0.53551 0.57112 0.0
C217 C 0.70551 0.58779 0.56807 0.0
C218 C 0.7007 0.59929 0.54218 0.0
C219 C 0.76329 0.54698 0.58307 0.0
C220 C 0.65661 0.49173 0.58445 0.0
H221 H 0.6975 0.77822 0.58132 0.0
H222 H 0.69814 0.77578 0.48761 0.0
H223 H 0.60742 0.63254 0.50787 0.0
H224 H 0.63999 0.60312 0.49039 0.0
H225 H 0.64055 0.66308 0.47928 0.0
H226 H 0.78479 0.7202 0.50817 0.0
H227 H 0.74532 0.71484 0.47944 0.0
H228 H 0.74709 0.65598 0.49058 0.0
H229 H 0.72063 0.70953 0.66257 0.0
H230 H 0.72155 0.55892 0.67065 0.0
H231 H 0.71592 0.54579 0.62525 0.0
H232 H 0.79916 0.75301 0.61576 0.0
H233 H 0.76045 0.78319 0.62608 0.0
H234 H 0.7728 0.77947 0.59304 0.0
H235 H 0.62631 0.66389 0.62196 0.0
H236 H 0.63465 0.70072 0.59451 0.0
H237 H 0.66431 0.73685 0.62472 0.0
H238 H 0.69567 0.84964 0.55957 0.0
C239 C 0.69745 0.77535 0.56111 0.0
C240 C 0.33007 0.57406 0.84212 0.0
C241 C 0.37898 0.58027 0.85568 0.0
C242 C 0.38394 0.59363 0.88182 0.0
C243 C 0.29577 0.59096 0.88136 0.0
C244 C 0.28893 0.58005 0.85544 0.0
C245 C 0.23407 0.57649 0.84582 0.0
H246 H 0.99831 0.58421 0.88496 0.0
C247 C 0.24727 0.59282 0.89088 0.0
C248 C 0.20944 0.58492 0.87029 0.0
H249 H 1.02629 0.56817 0.8067 0.0
H250 H 1.11362 0.57152 0.81976 0.0
H251 H 1.03283 0.50263 0.90538 0.0
H252 H 1.11587 0.67622 0.90007 0.0
H253 H 0.1389 0.66538 0.92952 0.0
H254 H 1.06708 0.64106 0.92339 0.0
H255 H 1.02235 0.54577 0.92674 0.0
H256 H 1.07429 0.52789 0.93345 0.0
C257 C 0.19549 0.52022 0.83302 0.0
C258 C 0.2464 0.62218 0.82737 0.0
C259 C 0.24441 0.61765 0.98727 0.0
C260 C 0.20612 0.61909 0.00297 0.0
C261 C 0.15751 0.61303 0.99162 0.0
C262 C 0.14712 0.60603 0.96517 0.0
C263 C 0.18566 0.60485 0.94949 0.0
C264 C 0.23321 0.61044 0.96069 0.0
C265 C 0.26914 0.60772 0.94117 0.0
C266 C 0.23536 0.59929 0.91634 0.0
C267 C 0.18668 0.59807 0.92134 0.0
C268 C 0.27564 0.55765 0.94682 0.0
C269 C 0.32328 0.66347 0.9425 0.0
C270 C 1.02248 0.58132 0.87031 0.0
C271 C 1.00357 0.57587 0.84473 0.0
C272 C 1.03843 0.57245 0.82672 0.0
C273 C 1.08934 0.57445 0.83425 0.0
C274 C 1.10733 0.58027 0.86027 0.0
C275 C 1.07278 0.5836 0.87738 0.0
C276 C 1.09506 0.59035 0.90413 0.0
C277 C 0.14867 0.59145 0.90109 0.0
C278 C 0.15822 0.58509 0.8753 0.0
C279 C 1.05415 0.53947 0.91838 0.0
C280 C 1.10449 0.64577 0.91509 0.0
H281 H 0.35223 0.60814 0.91431 0.0
H282 H 0.32385 0.56439 0.82191 0.0
H283 H 0.27504 0.66264 0.83674 0.0
H284 H 0.20853 0.622 0.82104 0.0
H285 H 0.26544 0.61712 0.81034 0.0
H286 H 0.18761 0.48751 0.84644 0.0
H287 H 0.2137 0.51363 0.81604 0.0
H288 H 0.15576 0.51646 0.82692 0.0
H289 H 0.28218 0.62216 0.9955 0.0
H290 H 0.12753 0.61403 0.00334 0.0
H291 H 1.10928 0.60203 0.95806 0.0
H292 H 0.23808 0.52427 0.95467 0.0
H293 H 0.3101 0.56856 0.96095 0.0
H294 H 0.28135 0.53876 0.92964 0.0
H295 H 0.3168 0.69715 0.94905 0.0
H296 H 0.34057 0.67588 0.92369 0.0
H297 H 0.35437 0.66308 0.95589 0.0
H298 H 0.4196 0.59964 0.89304 0.0
C299 C 0.34385 0.59867 0.89437 0.0
C300 C 0.99972 0.63974 0.46701 0.0
C301 C 0.97989 0.58551 0.45873 0.0
C302 C 0.97006 0.5714 0.43259 0.0
C303 C 1.01031 0.66652 0.42325 0.0
C304 C 1.01369 0.67958 0.44885 0.0
C305 C 1.03667 0.7397 0.45395 0.0
H306 H 0.23151 0.97841 0.43049 0.0
C307 C 1.03804 0.71749 0.40963 0.0
C308 C 1.05077 0.76056 0.42716 0.0
H309 H 1.11487 0.93991 0.48804 0.0
H310 H 1.05075 0.85499 0.46393 0.0
H311 H 0.2209 0.86464 0.41617 0.0
H312 H 0.13593 0.94293 0.38608 0.0
H313 H 0.12686 0.89454 0.36223 0.0
H314 H 0.19475 0.94963 0.37152 0.0
H315 H 0.25076 0.92784 0.40002 0.0
H316 H 0.22008 0.86415 0.38249 0.0
C317 C 1.08816 0.76166 0.47218 0.0
C318 C 0.99188 0.74897 0.46489 0.0
C319 C 1.11412 0.71355 0.32439 0.0
C320 C 0.15148 0.75497 0.30951 0.0
C321 C 0.174 0.80984 0.31766 0.0
C322 C 0.15951 0.82335 0.34058 0.0
C323 C 1.12281 0.7815 0.35558 0.0
C324 C 1.10037 0.72771 0.34733 0.0
C325 C 1.06195 0.68881 0.36576 0.0
C326 C 1.06312 0.72842 0.38595 0.0
C327 C 1.1 0.78248 0.38007 0.0
C328 C 1.08754 0.65507 0.37575 0.0
C329 C 1.0046 0.65407 0.35218 0.0
C330 C 0.19223 0.95173 0.43806 0.0
C331 C 0.17984 0.96284 0.46222 0.0
C332 C 0.12671 0.92974 0.47045 0.0
C333 C 1.09051 0.88055 0.45708 0.0
C334 C 1.1081 0.86581 0.4355 0.0
C335 C 0.15501 0.90341 0.42473 0.0
C336 C 0.16079 0.88385 0.39899 0.0
C337 C 1.11244 0.82581 0.39774 0.0
C338 C 1.0841 0.81503 0.42005 0.0
C339 C 0.21608 0.88519 0.39927 0.0
C340 C 0.15457 0.91955 0.37859 0.0
H341 H 0.97755 0.59916 0.39503 0.0
H342 H 1.00612 0.65085 0.48711 0.0
H343 H 0.95558 0.71031 0.4701 0.0
H344 H 0.97678 0.76804 0.45092 0.0
H345 H 1.00705 0.77508 0.4826 0.0
H346 H 1.11887 0.75334 0.46398 0.0
H347 H 1.07769 0.74221 0.49081 0.0
H348 H 1.10777 0.80603 0.47616 0.0
H349 H 1.0959 0.67113 0.31818 0.0
H350 H 0.20242 0.84212 0.30614 0.0
H351 H 0.17783 0.86574 0.34593 0.0
H352 H 0.12997 0.68256 0.38372 0.0
H353 H 1.08929 0.62941 0.36012 0.0
H354 H 1.06537 0.62755 0.39082 0.0
H355 H 0.99849 0.67565 0.33603 0.0
H356 H 0.97144 0.64603 0.36485 0.0
H357 H 0.99859 0.61465 0.34449 0.0
H358 H 0.95378 0.52944 0.42601 0.0
C359 C 0.98454 0.61173 0.41475 0.0
C360 C 0.50493 0.88061 0.79151 0.0
C361 C 0.5527 0.87824 0.7887 0.0
C362 C 0.58232 0.8986 0.76688 0.0
C363 C 0.51912 0.92688 0.75181 0.0
C364 C 0.4899 0.9068 0.77324 0.0
C365 C 0.44354 0.91823 0.7743 0.0
H366 H 0.3898 0.11436 0.7527 0.0
C367 C 0.49549 0.95464 0.73729 0.0
C368 C 0.45216 0.95128 0.75059 0.0
H369 H 0.31328 0.98485 0.80514 0.0
H370 H 0.34776 0.93349 0.78287 0.0
H371 H 0.50181 0.12375 0.7434 0.0
H372 H 0.34489 1.02322 0.70466 0.0
H373 H 0.39267 1.02562 0.68364 0.0
H374 H 0.39334 0.08755 0.69277 0.0
H375 H 0.4627 0.14724 0.72544 0.0
H376 H 0.50547 0.12806 0.70982 0.0
C377 C 0.45009 0.95115 0.79936 0.0
C378 C 0.38942 0.86311 0.77157 0.0
C379 C 0.5793 1.04494 0.65598 0.0
C380 C 0.56795 1.07606 0.63908 0.0
C381 C 0.52945 0.09143 0.64497 0.0
C382 C 0.50158 1.07481 0.66744 0.0
C383 C 0.51278 1.04292 0.68406 0.0
C384 C 0.55105 1.02853 0.67819 0.0
C385 C 0.55683 0.99361 0.69778 0.0
C386 C 0.51263 0.98591 0.71533 0.0
C387 C 0.48809 1.01598 0.70759 0.0
C388 C 0.61509 1.02668 0.71094 0.0
C389 C 0.54397 0.93896 0.68465 0.0
C390 C 0.38015 1.07476 0.75938 0.0
C391 C 0.35371 1.05594 0.78219 0.0
C392 C 0.33846 1.00265 0.78922 0.0
C393 C 0.35857 0.97317 0.77653 0.0
C394 C 0.39257 0.99692 0.7564 0.0
C395 C 0.39823 1.04402 0.74648 0.0
C396 C 0.42885 1.0583 0.7225 0.0
C397 C 0.4479 1.0169 0.72233 0.0
C398 C 0.42763 0.98209 0.74275 0.0
C399 C 0.47736 0.11756 0.72532 0.0
C400 C 0.38816 1.0485 0.69967 0.0
H401 H 0.58922 0.93622 0.73195 0.0
H402 H 0.48121 0.8643 0.80803 0.0
H403 H 0.39101 0.83646 0.75635 0.0
H404 H 0.35417 0.86808 0.76609 0.0
H405 H 0.38144 0.84122 0.7896 0.0
H406 H 0.47971 0.95033 0.81356 0.0
H407 H 0.41126 0.93437 0.80904 0.0
H408 H 0.46533 0.99489 0.79594 0.0
H409 H 0.60856 1.03251 0.6516 0.0
H410 H 0.52013 0.11511 0.63189 0.0
H411 H 0.47231 0.0871 0.67106 0.0
H412 H 0.63466 1.07106 0.70756 0.0
H413 H 0.64257 1.01271 0.70387 0.0
H414 H 0.61467 1.0243 0.73189 0.0
H415 H 0.50739 0.92336 0.67126 0.0
H416 H 0.53426 0.90635 0.69817 0.0
H417 H 0.57869 0.94419 0.67363 0.0
H418 H 0.61871 0.89608 0.76428 0.0
C419 C 0.5653 0.92212 0.74825 0.0
C420 C 0.6889 0.41362 0.13183 0.0
C421 C 0.74161 0.43717 0.12296 0.0
C422 C 0.74954 0.41844 0.09956 0.0
C423 C 0.65223 0.36904 0.0905 0.0
C424 C 0.64432 0.3789 0.1152 0.0
C425 C 0.58476 0.35583 0.11962 0.0
H426 H 0.37127 0.36047 0.08231 0.0
C427 C 0.60066 0.34906 0.07534 0.0
C428 C 0.55971 0.3372 0.09242 0.0
H429 H 0.39791 0.29695 0.15206 0.0
H430 H 0.46279 0.27757 0.13119 0.0
H431 H 0.49039 0.43404 0.06923 0.0
H432 H 0.3786 0.26748 0.04516 0.0
H433 H 0.42475 0.29471 0.02096 0.0
H434 H 0.38168 0.32283 0.0279 0.0
H435 H 0.42997 0.41179 0.0488 0.0
H436 H 0.49326 0.42654 0.03618 0.0
C437 C 0.57617 0.40185 0.13039 0.0
C438 C 0.56672 0.30812 0.13787 0.0
C439 C 0.6201 0.41548 0.98516 0.0
C440 C 0.58553 0.42453 0.96869 0.0
C441 C 0.53193 0.40751 0.97533 0.0
C442 C 0.51332 0.38267 -0.00159 0.0
C443 C 0.54924 0.37643 0.01537 0.0
C444 C 0.60148 0.39222 0.00856 0.0
C445 C 0.63406 0.38273 0.02904 0.0
C446 C 0.59255 0.35899 0.04953 0.0
C447 C 0.54313 0.35571 0.04124 0.0
C448 C 0.68551 0.43842 0.03731 0.0
C449 C 0.64787 0.3402 0.01861 0.0
C450 C 0.39033 0.34147 0.09295 0.0
C451 C 0.38163 0.332 0.11888 0.0
C452 C 0.40558 0.30591 0.13226 0.0
C453 C 0.44429 0.29697 0.12083 0.0
C454 C 0.46027 0.31703 0.09673 0.0
C455 C 0.43004 0.33334 0.08215 0.0
C456 C 0.45106 0.34794 0.05599 0.0
C457 C 0.50099 0.34094 0.0583 0.0
C458 C 0.5076 0.32636 0.08293 0.0
C459 C 0.46691 0.4081 0.05211 0.0
C460 C 0.40684 0.3065 0.03636 0.0
H461 H 0.71174 0.37106 0.06531 0.0
H462 H 0.68273 0.42655 0.15018 0.0
H463 H 0.60208 0.30903 0.14835 0.0
H464 H 0.54354 0.26795 0.12742 0.0
H465 H 0.54132 0.31013 0.15281 0.0
H466 H 0.59051 0.43599 0.11717 0.0
H467 H 0.59851 0.41808 0.14913 0.0
H468 H 0.53297 0.3873 0.13361 0.0
H469 H 0.66124 0.42762 0.98017 0.0
H470 H 0.50461 0.41369 0.96264 0.0
H471 H 0.47219 0.3707 0.00251 0.0
H472 H 0.69464 0.47045 0.02334 0.0
H473 H 0.72301 0.43548 0.03905 0.0
H474 H 0.68031 0.45492 0.05553 0.0
H475 H 0.61175 0.30621 0.00797 0.0
H476 H 0.65947 0.32113 0.03391 0.0
H477 H 0.68161 0.35913 0.00547 0.0
H478 H 0.79027 0.43506 0.09286 0.0
C479 C 0.70456 0.38338 0.08336 0.0
C480 C 0.38012 0.44815 0.15457 0.0
C481 C 0.32308 0.4275 0.15503 0.0
C482 C 0.30447 0.34058 0.13547 0.0
C483 C 0.36113 0.36272 0.13305 0.0
N484 N 0.45334 0.43945 0.13752 0.0
N485 N 0.23042 0.35211 0.14719 0.0
C486 C 0.3992 0.41682 0.14215 0.0
C487 C 0.28528 0.37347 0.14601 0.0
N488 N 0.41612 0.49772 0.16614 0.0
N489 N 0.26835 0.28825 0.12715 0.0
H490 H 0.2126 0.37316 0.15487 0.0
H491 H 0.2126 0.37316 0.15487 0.0
H492 H 0.28074 0.26247 0.11935 0.0
H493 H 0.22623 0.27078 0.12842 0.0
H494 H 0.45763 0.51185 0.16941 0.0
H495 H 0.40423 0.52352 0.1743 0.0
H496 H 0.48192 0.48067 0.14055 0.0
H497 H 0.46958 0.41806 0.1288 0.0
C498 C 0.92201 0.46994 0.50448 0.0
C499 C 0.95762 0.44927 0.50042 0.0
C500 C 1.01676 0.52895 0.47654 0.0
C501 C 0.9763 0.54437 0.47671 0.0
N502 N 0.89763 0.53914 0.49501 0.0
N503 N 1.04056 0.45931 0.48491 0.0
C504 C 0.93136 0.51817 0.4923 0.0
C505 C 1.00623 0.47959 0.48761 0.0
N506 N 0.8779 0.44149 0.51882 0.0
N507 N 1.06536 0.56214 0.46601 0.0
H508 H 1.03519 0.42467 0.49402 0.0
H509 H 1.07314 0.47536 0.47313 0.0
H510 H 1.07437 0.59899 0.45802 0.0
H511 H 1.09853 0.55591 0.46698 0.0
H512 H 0.84849 0.45215 0.522 0.0
H513 H 0.87067 0.40641 0.52806 0.0
H514 H 0.86617 0.5249 0.50737 0.0
H515 H 0.9025 0.57312 0.48549 0.0
C516 C 0.60657 0.79064 0.8149 0.0
C517 C 0.62812 0.81582 0.8394 0.0
C518 C 0.59491 0.87919 0.83203 0.0
C519 C 0.57198 0.85305 0.80781 0.0
N520 N 0.5435 0.7755 0.77912 0.0
N521 N 0.63935 0.88115 0.87227 0.0
C522 C 0.5737 0.80589 0.80026 0.0
C523 C 0.62038 0.85851 0.84837 0.0
N524 N 0.62064 0.75502 0.80482 0.0
N525 N 0.59502 0.92519 0.83984 0.0
H526 H 0.65809 0.86694 0.88503 0.0
H527 H 0.63483 0.91308 0.87942 0.0
H528 H 0.57888 0.94478 0.82899 0.0
H529 H 0.57888 0.94478 0.82899 0.0
H530 H 0.61254 0.74172 0.78579 0.0
H531 H 0.64462 0.74226 0.81467 0.0
H532 H 0.53985 0.73837 0.77365 0.0
H533 H 0.51772 0.78481 0.76835 0.0
C534 C 0.87218 0.54174 0.15888 0.0
C535 C 0.88278 0.58842 0.14512 0.0
C536 C 0.79343 0.53858 0.12251 0.0
C537 C 0.78532 0.49026 0.13406 0.0
N538 N 0.80748 0.44715 0.16767 0.0
N539 N 0.84937 0.63698 0.12032 0.0
C540 C 0.82149 0.49243 0.15398 0.0
C541 C 0.84169 0.58866 0.12913 0.0
N542 N 0.91163 0.54429 0.17563 0.0
N543 N 0.75601 0.53587 0.1044 0.0
H544 H 0.88466 0.67417 0.12508 0.0
H545 H 0.81951 0.64122 0.1102 0.0
H546 H 0.71845 0.50067 0.10022 0.0
H547 H 0.76251 0.56778 0.09286 0.0
H548 H 0.90862 0.51118 0.18519 0.0
H549 H 0.94863 0.5802 0.17978 0.0
H550 H 0.83016 0.44621 0.18349 0.0
H551 H 0.77082 0.41061 0.16397 0.0
C552 C 0.3151 1.08311 0.47209 0.0
C553 C 0.33861 1.0598 0.48797 0.0
C554 C 0.24885 0.98755 0.49866 0.0
C555 C 0.2256 1.00484 0.47904 0.0
N556 N 0.23158 1.07885 0.45536 0.0
N557 N 0.33047 1.007 0.52427 0.0
C558 C 0.25728 1.05704 0.4691 0.0
C559 C 0.30603 1.01836 0.50432 0.0
N560 N 0.34816 0.12722 0.45854 0.0
N561 N 0.2178 0.93927 0.50998 0.0
H562 H 0.37267 1.02916 0.52816 0.0
H563 H 0.30899 0.97985 0.53817 0.0
H564 H 0.17549 0.91676 0.50765 0.0
H565 H 0.23411 0.92076 0.52144 0.0
H566 H 0.33385 0.14323 0.44456 0.0
H567 H 0.39065 0.14709 0.46124 0.0
H568 H 0.25163 0.11782 0.44829 0.0
H569 H 0.18901 1.05864 0.45293 0.0
C570 C 0.41945 0.17556 0.82458 0.0
C571 C 0.40751 0.2085 0.80874 0.0
C572 C 0.32936 0.1275 0.78848 0.0
C573 C 0.35037 0.09612 0.79941 0.0
N574 N 0.39543 0.08427 0.83652 0.0
N575 N 0.3441 0.21841 0.78094 0.0
C576 C 0.38835 0.11809 0.82067 0.0
C577 C 0.35896 0.1851 0.7929 0.0
N578 N 0.46322 0.19976 0.8418 0.0
N579 N 0.28386 0.10182 0.7724 0.0
H580 H 0.36564 0.26058 0.78445 0.0
H581 H 0.31044 0.20483 0.76819 0.0
H582 H 0.26318 1.05949 0.76933 0.0
H583 H 0.26561 0.1212 0.76313 0.0
H584 H 0.47899 0.17889 0.85179 0.0
H585 H 0.48488 0.24184 0.84559 0.0
H586 H 0.42063 0.09756 0.85308 0.0
H587 H 0.37141 1.04209 0.8347 0.0
C588 C 0.66054 0.92509 0.48835 0.0
C589 C 0.69801 0.97624 0.5015 0.0
C590 C 0.74337 0.92693 0.52047 0.0
C591 C 0.70116 0.87441 0.51071 0.0
N592 N 0.61443 0.8253 0.48724 0.0
N593 N 0.76811 1.01824 0.53549 0.0
C594 C 0.65848 0.87424 0.49509 0.0
C595 C 0.73773 0.97495 0.51885 0.0
N596 N 0.6281 0.92485 0.46843 0.0
N597 N 0.7901 0.93143 0.53133 0.0
H598 H 0.76275 1.05186 0.53689 0.0
H599 H 0.7936 1.01762 0.55014 0.0
H600 H 0.79642 0.89828 0.53232 0.0
H601 H 0.82457 0.96882 0.53661 0.0
H602 H 0.60388 0.89059 0.45656 0.0
H603 H 0.63009 0.9603 0.46196 0.0
H604 H 0.57902 0.82155 0.47847 0.0
H605 H 0.61187 0.78823 0.49125 0.0
C606 C 0.89408 0.6214 0.82876 0.0
C607 C 0.84261 0.57262 0.83146 0.0
C608 C 0.8966 0.52456 0.8383 0.0
C609 C 0.94804 0.57421 0.83793 0.0
N610 N 0.99373 0.67165 0.83563 0.0
N611 N 0.79784 0.47856 0.84266 0.0
C612 C 0.94586 0.62293 0.8339 0.0
C613 C 0.84495 0.52441 0.83703 0.0
N614 N 0.8938 0.66639 0.8201 0.0
N615 N 0.89689 0.47669 0.83958 0.0
H616 H 0.76018 0.47671 0.84246 0.0
H617 H 0.79661 0.44393 0.84974 0.0
H618 H 0.93297 0.47526 0.84101 0.0
H619 H 0.8619 0.43846 0.83707 0.0
H620 H 0.92865 0.70135 0.81488 0.0
H621 H 0.85787 0.66699 0.81583 0.0
H622 H 0.99568 0.70928 0.83621 0.0
H623 H 1.03172 0.6744 0.83825 0.0
C624 C 0.37045 0.88687 0.17851 0.0
C625 C 0.36584 0.83862 0.16693 0.0
C626 C 0.46753 0.89351 0.16213 0.0
C627 C 0.47128 0.94254 0.17211 0.0
N628 N 0.42189 0.98597 0.1855 0.0
N629 N 0.4112 0.80102 0.14355 0.0
C630 C 0.42128 0.93891 0.17899 0.0
C631 C 0.41493 0.84357 0.15767 0.0
N632 N 0.32685 0.88273 0.19051 0.0
N633 N 0.51475 0.8938 0.15769 0.0
H634 H 0.37436 0.76483 0.13962 0.0
H635 H 0.44339 0.80334 0.13378 0.0
H636 H 0.55309 0.92889 0.16015 0.0
H637 H 0.51631 0.85869 0.15345 0.0
H638 H 0.32882 0.91402 0.20187 0.0
H639 H 0.28996 0.84623 0.19119 0.0
H640 H 0.38669 0.98795 0.18798 0.0
H641 H 0.45738 1.02411 0.18601 0.0
C642 C 0.73378 0.33765 0.48908 0.0
C643 C 0.69163 0.28791 0.49889 0.0
C644 C 0.64871 0.34198 0.5137 0.0
C645 C 0.69212 0.39227 0.50513 0.0
N646 N 0.77287 0.43527 0.48154 0.0
N647 N 0.61324 0.24678 0.52423 0.0
C648 C 0.73369 0.38901 0.49193 0.0
C649 C 0.65009 0.2914 0.51194 0.0
N650 N 0.77497 0.33599 0.47729 0.0
N651 N 0.60406 0.34187 0.52255 0.0
H652 H 0.61276 0.20983 0.52375 0.0
H653 H 0.58621 0.24746 0.53677 0.0
H654 H 0.60083 0.37686 0.52369 0.0
H655 H 0.56802 0.30659 0.52635 0.0
H656 H 0.81016 0.37 0.47174 0.0
H657 H 0.77498 0.29984 0.47359 0.0
H658 H 0.80188 0.43685 0.46967 0.0
H659 H 0.77532 0.47292 0.48401 0.0
C660 C 0.51189 0.60432 0.82147 0.0
C661 C 0.5285 0.57149 0.83552 0.0
C662 C 0.4389 0.53419 0.85641 0.0
C663 C 0.42608 0.57244 0.84512 0.0
N664 N 0.45812 0.64996 0.81885 0.0
N665 N 0.50861 0.51287 0.87088 0.0
C666 C 0.46475 0.60891 0.8281 0.0
C667 C 0.49177 0.53824 0.85404 0.0
N668 N 0.53954 0.62948 0.80074 0.0
N669 N 0.39972 0.49266 0.86937 0.0
H670 H 0.5475 0.51765 0.87113 0.0
H671 H 0.48675 0.49267 0.88643 0.0
H672 H 0.36088 0.48753 0.87104 0.0
H673 H 0.40366 0.46027 0.87594 0.0
H674 H 0.52602 0.64819 0.78782 0.0
H675 H 0.57264 0.62643 0.79506 0.0
H676 H 0.48784 0.68188 0.80903 0.0
H677 H 0.42463 0.65417 0.82271 0.0
C678 C 1.05326 0.48342 0.18667 0.0
C679 C 1.05547 0.51984 0.16763 0.0
C680 C 0.95505 0.45267 0.15738 0.0
C681 C 0.95388 0.41588 0.17606 0.0
N682 N 1.00934 0.39105 0.20189 0.0
N683 N 1.00832 0.53152 0.1314 0.0
C684 C 1.00545 0.42994 0.18851 0.0
C685 C 1.00612 0.50207 0.15203 0.0
N686 N 1.09571 0.50092 0.20446 0.0
N687 N 0.90705 0.44119 0.14499 0.0
H688 H 1.04411 0.56626 0.1267 0.0
H689 H 0.97644 0.51925 0.1177 0.0
H690 H 0.8703 0.40583 0.14789 0.0
H691 H 0.90286 0.4676 0.13285 0.0
H692 H 1.09423 0.47899 0.22038 0.0
H693 H 0.12985 0.53994 0.20502 0.0
H694 H 1.04632 0.3961 0.2093 0.0
H695 H 0.97647 0.35144 0.20293 0.0
C696 C 0.25425 0.68854 0.06948 0.0
C697 C 0.22026 0.64481 0.08485 0.0
C698 C 0.18791 0.58232 0.04705 0.0
C699 C 0.21596 0.62734 0.03131 0.0
N700 N 0.27309 0.72424 0.02721 0.0
N701 N 0.1512 0.5505 0.08817 0.0
C702 C 0.24885 0.68069 0.04247 0.0
C703 C 0.18661 0.5916 0.07366 0.0
N704 N 0.2926 0.73736 0.08082 0.0
N705 N 0.16296 0.53055 0.03651 0.0
H706 H 0.14931 0.5555 0.10766 0.0
H707 H 1.121 0.51252 0.08069 0.0
H708 H 0.16304 0.5225 0.01715 0.0
H709 H 0.14646 0.49571 0.04714 0.0
H710 H 0.32241 0.76926 0.07101 0.0
H711 H 0.29789 0.74426 0.1005 0.0
H712 H 0.29204 0.76464 0.03396 0.0
H713 H 0.2712 0.72011 0.00746 0.0
C714 C 0.72191 0.20145 0.40631 0.0
C715 C 0.7344 0.16349 0.41762 0.0
C716 C 0.75653 0.14249 0.37577 0.0
C717 C 0.73696 0.17467 0.36407 0.0
N718 N 0.69861 0.23316 0.36774 0.0
N719 N 0.7627 0.09686 0.41341 0.0
C720 C 0.71982 0.20444 0.37927 0.0
C721 C 0.75186 0.13402 0.40241 0.0
N722 N 0.71129 0.23418 0.4214 0.0
N723 N 0.78032 0.12068 0.36132 0.0
H724 H 0.76283 0.09196 0.43299 0.0
H725 H 0.76904 1.0691 0.40318 0.0
H726 H 0.78441 0.12638 0.34185 0.0
H727 H 0.80009 0.10099 0.36877 0.0
H728 H 0.70801 0.26687 0.41481 0.0
H729 H 0.70954 0.23122 0.44103 0.0
H730 H 0.67902 0.2502 0.37728 0.0
H731 H 0.69764 0.23739 0.34814 0.0
C732 C 0.76484 0.63634 0.74025 0.0
C733 C 0.71999 0.6334 0.7526 0.0
C734 C 0.67839 0.63715 0.71131 0.0
C735 C 0.72351 0.64077 0.69881 0.0
N736 N 0.81614 0.65865 0.70217 0.0
N737 N 0.64396 0.64857 0.75091 0.0
C738 C 0.76889 0.64521 0.7136 0.0
C739 C 0.68003 0.63961 0.73837 0.0
N740 N 0.80208 0.62788 0.75362 0.0
N741 N 0.63244 0.62791 0.6975 0.0
H742 H 0.64615 0.65271 0.77067 0.0
H743 H 0.61664 0.65813 0.74183 0.0
H744 H 0.62859 0.62432 0.67773 0.0
H745 H 0.59627 0.619 0.70574 0.0
H746 H 0.83188 0.6229 0.74514 0.0
H747 H 0.80108 0.62245 0.77314 0.0
H748 H 0.85227 0.66742 0.71219 0.0
H749 H 0.82065 0.66626 0.68287 0.0
C750 C 0.66298 0.15066 0.58639 0.0
C751 C 0.64216 0.10843 0.56723 0.0
C752 C 0.5704 1.04714 0.59447 0.0
C753 C 0.59309 0.08816 0.61421 0.0
N754 N 0.66489 0.17588 0.63078 0.0
N755 N 0.58324 1.01385 0.55433 0.0
C756 C 0.64063 0.13912 0.61071 0.0
C757 C 0.59791 1.05586 0.57166 0.0
N758 N 0.7026 0.20217 0.581 0.0
N759 N 0.52168 1.00042 0.59727 0.0
H760 H 0.60286 1.0187 0.53749 0.0
H761 H 0.55524 0.97332 0.55761 0.0
H762 H 0.50049 0.99213 0.61384 0.0
H763 H 0.4999 0.97181 0.58252 0.0
H764 H 0.71514 0.23614 0.59311 0.0
H765 H 0.72069 0.21168 0.56357 0.0
H766 H 0.70279 0.21125 0.63026 0.0
H767 H 0.6488 0.16918 0.64866 0.0
C768 C 0.66879 0.53118 0.92114 0.0
C769 C 0.64086 0.50339 0.89789 0.0
C770 C 0.58165 0.4219 0.92109 0.0
C771 C 0.60523 0.4517 0.94437 0.0
N772 N 0.66429 0.53808 0.96671 0.0
N773 N 0.56172 0.42625 0.87661 0.0
C774 C 0.64681 0.50741 0.94447 0.0
C775 C 0.59477 0.44979 0.89808 0.0
N776 N 0.71766 0.57882 0.92107 0.0
N777 N 0.54789 0.3666 0.92083 0.0
H778 H 0.56781 0.44606 0.85958 0.0
H779 H 0.52467 0.38966 0.87646 0.0
H780 H 0.5379 0.3444 0.9373 0.0
H781 H 0.53426 0.34222 0.90417 0.0
H782 H 0.74231 0.59777 0.93748 0.0
H783 H 0.73638 0.59655 0.90446 0.0
H784 H 0.69039 0.58018 0.96748 0.0
H785 H 0.64881 0.52237 0.98416 0.0
C786 C 0.1389 0.70969 0.24025 0.0
C787 C 0.19103 0.71531 0.23739 0.0
C788 C 0.21482 0.74068 0.28269 0.0
C789 C 0.16516 0.7409 0.28477 0.0
N790 N 1.08298 0.73291 0.26506 0.0
N791 N 0.28091 0.74071 0.25483 0.0
C792 C 0.12797 0.72733 0.26341 0.0
C793 C 0.22961 0.73174 0.25837 0.0
N794 N 1.09913 0.68568 0.22108 0.0
N795 N 0.24716 0.74787 0.30405 0.0
H796 H 0.29264 0.73357 0.23736 0.0
H797 H 0.31289 0.75858 0.26866 0.0
H798 H 0.23787 0.75523 0.32208 0.0
H799 H 0.28092 0.74255 0.30426 0.0
H800 H 1.05866 0.67526 0.22295 0.0
H801 H 1.10526 0.67123 0.204 0.0
H802 H 1.05785 0.72982 0.24938 0.0
H803 H 1.07309 0.7451 0.2818 0.0
loop_
_geom_bond_atom_site_label_1
_geom_bond_atom_site_label_2
_geom_bond_distance
_geom_bond_site_symmetry_2
_ccdc_geom_bond_type
Tb0 C10 2.825 . S
Tb0 O11 2.347 . S
Tb0 O14 2.366 . S
Tb0 O19 2.418 . S
Tb0 O20 2.384 1_455 S
Tb0 O23 2.479 . S
Tb0 O24 2.471 . S
Eu1 O12 2.418 . S
Eu1 O13 2.384 1_655 S
Eu1 O16 2.479 . S
Eu1 O17 2.471 . S
Eu1 O18 2.347 1_655 S
Eu1 O21 2.366 . S
Eu1 C31 2.825 . S
C2 O18 1.259 . S
C2 O19 1.265 . S
C3 O20 1.255 . S
C3 O21 1.265 . S
C4 C6 1.380 . S
C4 C7 1.374 . S
C4 C10 1.507 . S
C5 C6 1.384 . S
C5 C9 1.387 . S
C5 H32 0.930 . S
C6 C4 1.380 . S
C6 C5 1.384 . S
C6 H33 0.931 . S
C7 C4 1.374 . S
C7 C8 1.390 . S
C7 H34 0.930 . S
C8 C7 1.390 . S
C8 C9 1.391 . S
C8 H35 0.930 . S
C9 C5 1.387 . S
C9 C8 1.391 . S
C10 Tb0 2.825 . S
C10 C4 1.507 . S
C10 O23 1.238 . S
C10 O24 1.247 . S
O11 Tb0 2.347 . S
O11 C15 1.259 . S
O12 Eu1 2.418 . S
O12 C15 1.265 1_655 S
O13 Eu1 2.384 1_455 S
O13 C22 1.255 . S
O14 Tb0 2.366 . S
O14 C22 1.265 . S
C15 O11 1.259 . S
C15 O12 1.265 1_455 S
O16 Eu1 2.479 . S
O16 C31 1.238 . S
O17 Eu1 2.471 . S
O17 C31 1.247 . S
O18 Eu1 2.347 1_455 S
O18 C2 1.259 . S
O19 Tb0 2.418 . S
O19 C2 1.265 . S
O20 Tb0 2.384 1_655 S
O20 C3 1.255 . S
O21 Eu1 2.366 . S
O21 C3 1.265 . S
C22 O13 1.255 . S
C22 O14 1.265 . S
O23 Tb0 2.479 . S
O23 C10 1.238 . S
O24 Tb0 2.471 . S
O24 C10 1.247 . S
C25 C28 1.380 . S
C25 C29 1.374 . S
C25 C31 1.507 . S
C26 C27 1.387 . S
C26 C30 1.391 . S
C27 C26 1.387 . S
C27 C28 1.384 . S
C27 H36 0.930 . S
C28 C25 1.380 . S
C28 C27 1.384 . S
C28 H37 0.931 . S
C29 C25 1.374 . S
C29 C30 1.390 . S
C29 H38 0.930 . S
C30 C26 1.391 . S
C30 C29 1.390 . S
C30 H39 0.930 . S
C31 Eu1 2.825 . S
C31 O16 1.238 . S
C31 O17 1.247 . S
C31 C25 1.507 . S
H32 C5 0.930 . S
H33 C6 0.931 . S
H34 C7 0.930 . S
H35 C8 0.930 . S
H36 C27 0.930 . S
H37 C28 0.931 . S
H38 C29 0.930 . S
H39 C30 0.930 . S
Tb40 C50 2.825 . S
Tb40 O51 2.347 . S
Tb40 O54 2.366 . S
Tb40 O59 2.418 . S
Tb40 O60 2.384 1_545 S
Tb40 O63 2.479 . S
Tb40 O64 2.471 . S
Eu41 O52 2.418 . S
Eu41 O53 2.384 . S
Eu41 O56 2.479 1_545 S
Eu41 O57 2.471 1_545 S
Eu41 O58 2.347 . S
Eu41 O61 2.366 1_545 S
Eu41 C71 2.825 1_545 S
C42 O58 1.259 . S
C42 O59 1.265 . S
C43 O60 1.255 . S
C43 O61 1.265 . S
C44 C46 1.380 . S
C44 C47 1.374 . S
C44 C50 1.507 . S
C45 C46 1.384 . S
C45 C49 1.387 . S
C45 H72 0.930 . S
C46 C44 1.380 . S
C46 C45 1.384 . S
C46 H73 0.931 . S
C47 C44 1.374 . S
C47 C48 1.390 . S
C47 H74 0.930 . S
C48 C47 1.390 . S
C48 C49 1.391 . S
C48 H75 0.930 . S
C49 C45 1.387 . S
C49 C48 1.391 . S
C50 Tb40 2.825 . S
C50 C44 1.507 . S
C50 O63 1.238 . S
C50 O64 1.247 . S
O51 Tb40 2.347 . S
O51 C55 1.259 . S
O52 Eu41 2.418 . S
O52 C55 1.265 . S
O53 Eu41 2.384 . S
O53 C62 1.255 . S
O54 Tb40 2.366 . S
O54 C62 1.265 . S
C55 O51 1.259 . S
C55 O52 1.265 . S
O56 Eu41 2.479 1_565 S
O56 C71 1.238 . S
O57 Eu41 2.471 1_565 S
O57 C71 1.247 . S
O58 Eu41 2.347 . S
O58 C42 1.259 . S
O59 Tb40 2.418 . S
O59 C42 1.265 . S
O60 Tb40 2.384 1_565 S
O60 C43 1.255 . S
O61 Eu41 2.366 1_565 S
O61 C43 1.265 . S
C62 O53 1.255 . S
C62 O54 1.265 . S
O63 Tb40 2.479 . S
O63 C50 1.238 . S
O64 Tb40 2.471 . S
O64 C50 1.247 . S
C65 C68 1.380 . S
C65 C69 1.374 . S
C65 C71 1.507 . S
C66 C67 1.387 . S
C66 C70 1.391 . S
C67 C66 1.387 . S
C67 C68 1.384 . S
C67 H76 0.930 . S
C68 C65 1.380 . S
C68 C67 1.384 . S
C68 H77 0.931 . S
C69 C65 1.374 . S
C69 C70 1.390 . S
C69 H78 0.930 . S
C70 C66 1.391 . S
C70 C69 1.390 . S
C70 H79 0.930 . S
C71 Eu41 2.825 1_565 S
C71 O56 1.238 . S
C71 O57 1.247 . S
C71 C65 1.507 . S
H72 C45 0.930 . S
H73 C46 0.931 . S
H74 C47 0.930 . S
H75 C48 0.930 . S
H76 C67 0.930 . S
H77 C68 0.931 . S
H78 C69 0.930 . S
H79 C70 0.930 . S
Tb80 C90 2.825 . S
Tb80 O91 2.347 . S
Tb80 O94 2.366 . S
Tb80 O99 2.418 . S
Tb80 O100 2.384 . S
Tb80 O103 2.479 . S
Tb80 O104 2.471 . S
Eu81 O92 2.418 . S
Eu81 O93 2.384 . S
Eu81 O96 2.479 . S
Eu81 O97 2.471 . S
Eu81 O98 2.347 . S
Eu81 O101 2.366 . S
Eu81 C111 2.825 . S
C82 O98 1.259 . S
C82 O99 1.265 . S
C83 O100 1.255 . S
C83 O101 1.265 . S
C84 C86 1.380 . S
C84 C87 1.374 . S
C84 C90 1.507 . S
C85 C86 1.384 . S
C85 C89 1.387 . S
C85 H112 0.930 . S
C86 C84 1.380 . S
C86 C85 1.384 . S
C86 H113 0.931 . S
C87 C84 1.374 . S
C87 C88 1.390 . S
C87 H114 0.930 . S
C88 C87 1.390 . S
C88 C89 1.391 . S
C88 H115 0.930 . S
C89 C85 1.387 . S
C89 C88 1.391 . S
C90 Tb80 2.825 . S
C90 C84 1.507 . S
C90 O103 1.238 . S
C90 O104 1.247 . S
O91 Tb80 2.347 . S
O91 C95 1.259 . S
O92 Eu81 2.418 . S
O92 C95 1.265 . S
O93 Eu81 2.384 . S
O93 C102 1.255 . S
O94 Tb80 2.366 . S
O94 C102 1.265 . S
C95 O91 1.259 . S
C95 O92 1.265 . S
O96 Eu81 2.479 . S
O96 C111 1.238 . S
O97 Eu81 2.471 . S
O97 C111 1.247 . S
O98 Eu81 2.347 . S
O98 C82 1.259 . S
O99 Tb80 2.418 . S
O99 C82 1.265 . S
O100 Tb80 2.384 . S
O100 C83 1.255 . S
O101 Eu81 2.366 . S
O101 C83 1.265 . S
C102 O93 1.255 . S
C102 O94 1.265 . S
O103 Tb80 2.479 . S
O103 C90 1.238 . S
O104 Tb80 2.471 . S
O104 C90 1.247 . S
C105 C108 1.380 . S
C105 C109 1.374 . S
C105 C111 1.507 . S
C106 C107 1.387 . S
C106 C110 1.391 . S
C107 C106 1.387 . S
C107 C108 1.384 . S
C107 H116 0.930 . S
C108 C105 1.380 . S
C108 C107 1.384 . S
C108 H117 0.931 . S
C109 C105 1.374 . S
C109 C110 1.390 . S
C109 H118 0.930 . S
C110 C106 1.391 . S
C110 C109 1.390 . S
C110 H119 0.930 . S
C111 Eu81 2.825 . S
C111 O96 1.238 . S
C111 O97 1.247 . S
C111 C105 1.507 . S
H112 C85 0.930 . S
H113 C86 0.931 . S
H114 C87 0.930 . S
H115 C88 0.930 . S
H116 C107 0.930 . S
H117 C108 0.931 . S
H118 C109 0.930 . S
H119 C110 0.930 . S
C120 C121 1.391 . S
C120 C124 1.391 . S
C120 H162 0.948 . S
C121 C120 1.391 . S
C121 C122 1.391 . S
C122 C121 1.391 . S
C122 H178 0.947 . S
C122 C179 1.392 . S
C123 C124 1.391 . S
C123 C127 1.397 . S
C123 C179 1.419 . S
C124 C120 1.391 . S
C124 C123 1.391 . S
C124 C125 1.399 . S
C125 C124 1.399 . S
C125 C128 1.396 . S
C125 C137 1.453 . S
C125 C138 1.684 . S
H126 C150 0.948 . S
C127 C123 1.397 . S
C127 C128 1.394 . S
C127 C146 1.723 . S
C128 C125 1.396 . S
C128 C127 1.394 . S
C128 C158 1.723 1_545 S
H129 C152 0.947 . S
H130 C153 0.948 . S
H131 C159 0.982 . S
H132 C160 0.979 . S
H133 C160 0.980 . S
H134 C160 0.983 . S
H135 C159 0.979 . S
H136 C159 0.977 . S
C137 C125 1.453 . S
C137 H166 0.982 . S
C137 H167 0.979 . S
C137 H168 0.977 1_545 S
C138 C125 1.684 . S
C138 H163 0.979 . S
C138 H164 0.980 . S
C138 H165 0.983 . S
C139 C140 1.391 . S
C139 C144 1.391 . S
C139 H169 0.948 . S
C140 C139 1.391 . S
C140 C141 1.391 1_545 S
C141 C140 1.391 1_565 S
C141 C142 1.392 . S
C141 H170 0.947 . S
C142 C141 1.392 . S
C142 C143 1.419 1_565 S
C142 H171 0.948 . S
C143 C142 1.419 1_545 S
C143 C144 1.391 . S
C143 C147 1.397 . S
C144 C139 1.391 . S
C144 C143 1.391 . S
C144 C145 1.399 . S
C145 C144 1.399 . S
C145 C146 1.396 . S
C145 C148 1.453 . S
C145 C149 1.684 . S
C146 C127 1.723 . S
C146 C145 1.396 . S
C146 C147 1.394 . S
C147 C143 1.397 . S
C147 C146 1.394 . S
C147 C157 1.723 1_545 S
C148 C145 1.453 . S
C148 H172 0.982 . S
C148 H173 0.979 . S
C148 H174 0.977 . S
C149 C145 1.684 . S
C149 H175 0.979 . S
C149 H176 0.980 . S
C149 H177 0.983 . S
C150 H126 0.948 . S
C150 C151 1.391 . S
C150 C155 1.391 . S
C151 C150 1.391 . S
C151 C152 1.391 . S
C152 H129 0.947 . S
C152 C151 1.391 . S
C152 C153 1.392 . S
C153 H130 0.948 . S
C153 C152 1.392 . S
C153 C154 1.419 . S
C154 C153 1.419 . S
C154 C155 1.391 . S
C154 C158 1.397 . S
C155 C150 1.391 . S
C155 C154 1.391 . S
C155 C156 1.399 . S
C156 C155 1.399 . S
C156 C157 1.396 . S
C156 C159 1.453 . S
C156 C160 1.684 . S
C157 C147 1.723 1_565 S
C157 C156 1.396 . S
C157 C158 1.394 . S
C158 C128 1.723 1_565 S
C158 C154 1.397 . S
C158 C157 1.394 . S
C159 H131 0.982 . S
C159 H135 0.979 . S
C159 H136 0.977 . S
C159 C156 1.453 . S
C160 H132 0.979 . S
C160 H133 0.980 . S
C160 H134 0.983 . S
C160 C156 1.684 . S
H161 C179 0.948 . S
H162 C120 0.948 . S
H163 C138 0.979 . S
H164 C138 0.980 . S
H165 C138 0.983 . S
H166 C137 0.982 . S
H167 C137 0.979 . S
H168 C137 0.977 1_565 S
H169 C139 0.948 . S
H170 C141 0.947 . S
H171 C142 0.948 . S
H172 C148 0.982 . S
H173 C148 0.979 . S
H174 C148 0.977 . S
H175 C149 0.979 . S
H176 C149 0.980 . S
H177 C149 0.983 . S
H178 C122 0.947 . S
C179 C122 1.392 . S
C179 C123 1.419 . S
C179 H161 0.948 . S
C180 C181 1.391 . S
C180 C184 1.391 . S
C180 H222 0.948 . S
C181 C180 1.391 . S
C181 C182 1.391 . S
C182 C181 1.391 . S
C182 H238 0.947 . S
C182 C239 1.392 . S
C183 C184 1.391 . S
C183 C187 1.397 . S
C183 C239 1.419 . S
C184 C180 1.391 . S
C184 C183 1.391 . S
C184 C185 1.399 . S
C185 C184 1.399 . S
C185 C188 1.396 . S
C185 C197 1.453 . S
C185 C198 1.684 . S
H186 C210 0.948 . S
C187 C183 1.397 . S
C187 C188 1.394 . S
C187 C206 1.723 . S
C188 C185 1.396 . S
C188 C187 1.394 . S
C188 C218 1.723 . S
H189 C212 0.947 . S
H190 C213 0.948 . S
H191 C219 0.982 . S
H192 C220 0.979 . S
H193 C220 0.980 . S
H194 C220 0.983 . S
H195 C219 0.979 . S
H196 C219 0.977 . S
C197 C185 1.453 . S
C197 H226 0.982 . S
C197 H227 0.979 . S
C197 H228 0.977 . S
C198 C185 1.684 . S
C198 H223 0.979 . S
C198 H224 0.980 . S
C198 H225 0.983 . S
C199 C200 1.391 . S
C199 C204 1.391 . S
C199 H229 0.948 . S
C200 C199 1.391 . S
C200 C201 1.391 . S
C201 C200 1.391 . S
C201 C202 1.392 . S
C201 H230 0.947 . S
C202 C201 1.392 . S
C202 C203 1.419 . S
C202 H231 0.948 . S
C203 C202 1.419 . S
C203 C204 1.391 . S
C203 C207 1.397 . S
C204 C199 1.391 . S
C204 C203 1.391 . S
C204 C205 1.399 . S
C205 C204 1.399 . S
C205 C206 1.396 . S
C205 C208 1.453 . S
C205 C209 1.684 . S
C206 C187 1.723 . S
C206 C205 1.396 . S
C206 C207 1.394 . S
C207 C203 1.397 . S
C207 C206 1.394 . S
C207 C217 1.723 . S
C208 C205 1.453 . S
C208 H232 0.982 . S
C208 H233 0.979 . S
C208 H234 0.977 . S
C209 C205 1.684 . S
C209 H235 0.979 . S
C209 H236 0.980 . S
C209 H237 0.983 . S
C210 H186 0.948 . S
C210 C211 1.391 . S
C210 C215 1.391 . S
C211 C210 1.391 . S
C211 C212 1.391 . S
C212 H189 0.947 . S
C212 C211 1.391 . S
C212 C213 1.392 . S
C213 H190 0.948 . S
C213 C212 1.392 . S
C213 C214 1.419 . S
C214 C213 1.419 . S
C214 C215 1.391 . S
C214 C218 1.397 . S
C215 C210 1.391 . S
C215 C214 1.391 . S
C215 C216 1.399 . S
C216 C215 1.399 . S
C216 C217 1.396 . S
C216 C219 1.453 . S
C216 C220 1.684 . S
C217 C207 1.723 . S
C217 C216 1.396 . S
C217 C218 1.394 . S
C218 C188 1.723 . S
C218 C214 1.397 . S
C218 C217 1.394 . S
C219 H191 0.982 . S
C219 H195 0.979 . S
C219 H196 0.977 . S
C219 C216 1.453 . S
C220 H192 0.979 . S
C220 H193 0.980 . S
C220 H194 0.983 . S
C220 C216 1.684 . S
H221 C239 0.948 . S
H222 C180 0.948 . S
H223 C198 0.979 . S
H224 C198 0.980 . S
H225 C198 0.983 . S
H226 C197 0.982 . S
H227 C197 0.979 . S
H228 C197 0.977 . S
H229 C199 0.948 . S
H230 C201 0.947 . S
H231 C202 0.948 . S
H232 C208 0.982 . S
H233 C208 0.979 . S
H234 C208 0.977 . S
H235 C209 0.979 . S
H236 C209 0.980 . S
H237 C209 0.983 . S
H238 C182 0.947 . S
C239 C182 1.392 . S
C239 C183 1.419 . S
C239 H221 0.948 . S
C240 C241 1.391 . S
C240 C244 1.391 . S
C240 H282 0.948 . S
C241 C240 1.391 . S
C241 C242 1.391 . S
C242 C241 1.391 . S
C242 H298 0.947 . S
C242 C299 1.392 . S
C243 C244 1.391 . S
C243 C247 1.397 . S
C243 C299 1.419 . S
C244 C240 1.391 . S
C244 C243 1.391 . S
C244 C245 1.399 . S
C245 C244 1.399 . S
C245 C248 1.396 . S
C245 C257 1.453 . S
C245 C258 1.684 . S
H246 C270 0.948 . S
C247 C243 1.397 . S
C247 C248 1.394 . S
C247 C266 1.723 . S
C248 C245 1.396 . S
C248 C247 1.394 . S
C248 C278 1.723 1_455 S
H249 C272 0.947 . S
H250 C273 0.948 . S
H251 C279 0.982 . S
H252 C280 0.979 . S
H253 C280 0.980 . S
H254 C280 0.983 . S
H255 C279 0.979 . S
H256 C279 0.977 . S
C257 C245 1.453 . S
C257 H286 0.982 . S
C257 H287 0.979 . S
C257 H288 0.956 1_455 S
C258 C245 1.684 . S
C258 H283 0.979 . S
C258 H284 0.980 . S
C258 H285 0.983 . S
C259 C260 1.392 1_556 S
C259 C264 1.391 . S
C259 H289 0.948 . S
C260 C259 1.392 1_554 S
C260 C261 1.392 1_454 S
C261 C260 1.392 1_656 S
C261 C262 1.392 . S
C261 H290 0.947 . S
C262 C261 1.392 . S
C262 C263 1.419 1_655 S
C262 H291 0.948 . S
C263 C262 1.419 1_455 S
C263 C264 1.391 . S
C263 C267 1.397 . S
C264 C259 1.391 . S
C264 C263 1.391 . S
C264 C265 1.399 . S
C265 C264 1.399 . S
C265 C266 1.396 . S
C265 C268 1.453 . S
C265 C269 1.684 . S
C266 C247 1.723 . S
C266 C265 1.396 . S
C266 C267 1.394 . S
C267 C263 1.397 . S
C267 C266 1.394 . S
C267 C277 1.723 1_455 S
C268 C265 1.453 . S
C268 H292 0.982 . S
C268 H293 0.979 . S
C268 H294 0.977 . S
C269 C265 1.684 . S
C269 H295 0.979 . S
C269 H296 0.980 . S
C269 H297 0.983 . S
C270 H246 0.948 . S
C270 C271 1.391 . S
C270 C275 1.391 . S
C271 C270 1.391 . S
C271 C272 1.391 . S
C272 H249 0.947 . S
C272 C271 1.391 . S
C272 C273 1.392 . S
C273 H250 0.948 . S
C273 C272 1.392 . S
C273 C274 1.419 . S
C274 C273 1.419 . S
C274 C275 1.391 . S
C274 C278 1.397 . S
C275 C270 1.391 . S
C275 C274 1.391 . S
C275 C276 1.399 . S
C276 C275 1.399 . S
C276 C277 1.396 . S
C276 C279 1.453 . S
C276 C280 1.684 . S
C277 C267 1.723 1_655 S
C277 C276 1.396 . S
C277 C278 1.394 . S
C278 C248 1.723 1_655 S
C278 C274 1.397 . S
C278 C277 1.394 . S
C279 H251 0.982 . S
C279 H255 0.979 . S
C279 H256 0.977 . S
C279 C276 1.453 . S
C280 H252 0.979 . S
C280 H253 0.980 . S
C280 H254 0.983 . S
C280 C276 1.684 . S
H281 C299 0.948 . S
H282 C240 0.948 . S
H283 C258 0.979 . S
H284 C258 0.980 . S
H285 C258 0.983 . S
H286 C257 0.982 . S
H287 C257 0.979 . S
H288 C257 0.956 1_655 S
H289 C259 0.948 . S
H290 C261 0.947 . S
H291 C262 0.948 . S
H292 C268 0.982 . S
H293 C268 0.979 . S
H294 C268 0.977 . S
H295 C269 0.979 . S
H296 C269 0.980 . S
H297 C269 0.983 . S
H298 C242 0.947 . S
C299 C242 1.392 . S
C299 C243 1.419 . S
C299 H281 0.948 . S
C300 C301 1.391 . S
C300 C304 1.391 . S
C300 H342 0.948 . S
C301 C300 1.391 . S
C301 C302 1.391 . S
C302 C301 1.391 . S
C302 H358 0.947 . S
C302 C359 1.392 . S
C303 C304 1.391 . S
C303 C307 1.397 . S
C303 C359 1.419 . S
C304 C300 1.391 . S
C304 C303 1.391 . S
C304 C305 1.399 . S
C305 C304 1.399 . S
C305 C308 1.396 . S
C305 C317 1.455 1_655 S
C305 C318 1.684 . S
H306 C330 0.948 . S
C307 C303 1.397 . S
C307 C308 1.394 . S
C307 C326 1.723 . S
C308 C305 1.396 . S
C308 C307 1.394 . S
C308 C338 1.723 1_655 S
H309 C332 0.947 . S
H310 C333 0.948 . S
H311 C339 0.982 . S
H312 C340 0.979 . S
H313 C340 0.980 . S
H314 C340 0.983 . S
H315 C339 0.979 . S
H316 C339 0.977 . S
C317 C305 1.455 1_455 S
C317 H346 0.981 . S
C317 H347 0.980 1_455 S
C317 H348 0.976 . S
C318 C305 1.684 . S
C318 H343 0.979 . S
C318 H344 0.980 . S
C318 H345 0.983 . S
C319 C320 1.391 1_655 S
C319 C324 1.391 . S
C319 H349 0.948 . S
C320 C319 1.391 1_455 S
C320 C321 1.391 . S
C321 C320 1.391 . S
C321 C322 1.392 . S
C321 H350 0.947 . S
C322 C321 1.392 . S
C322 C323 1.419 . S
C322 H351 0.948 . S
C323 C322 1.419 . S
C323 C324 1.391 1_455 S
C323 C327 1.397 . S
C324 C319 1.391 . S
C324 C323 1.391 1_655 S
C324 C325 1.399 . S
C325 C324 1.399 . S
C325 C326 1.396 . S
C325 C328 1.453 . S
C325 C329 1.684 . S
C326 C307 1.723 . S
C326 C325 1.396 . S
C326 C327 1.394 1_655 S
C327 C323 1.397 . S
C327 C326 1.394 1_455 S
C327 C337 1.723 . S
C328 C325 1.453 . S
C328 H352 0.982 . S
C328 H353 0.979 . S
C328 H354 0.977 . S
C329 C325 1.684 . S
C329 H355 0.979 . S
C329 H356 0.980 . S
C329 H357 0.983 . S
C330 H306 0.948 . S
C330 C331 1.391 . S
C330 C335 1.391 . S
C331 C330 1.391 . S
C331 C332 1.391 . S
C332 H309 0.947 . S
C332 C331 1.391 . S
C332 C333 1.392 . S
C333 H310 0.948 . S
C333 C332 1.392 . S
C333 C334 1.419 . S
C334 C333 1.419 . S
C334 C335 1.391 . S
C334 C338 1.397 . S
C335 C330 1.391 . S
C335 C334 1.391 . S
C335 C336 1.399 . S
C336 C335 1.399 . S
C336 C337 1.396 . S
C336 C339 1.453 . S
C336 C340 1.684 . S
C337 C327 1.723 . S
C337 C336 1.396 . S
C337 C338 1.394 . S
C338 C308 1.723 1_455 S
C338 C334 1.397 . S
C338 C337 1.394 . S
C339 H311 0.982 . S
C339 H315 0.979 . S
C339 H316 0.977 . S
C339 C336 1.453 . S
C340 H312 0.979 . S
C340 H313 0.980 . S
C340 H314 0.983 . S
C340 C336 1.684 . S
H341 C359 0.948 . S
H342 C300 0.948 . S
H343 C318 0.979 . S
H344 C318 0.980 . S
H345 C318 0.983 . S
H346 C317 0.981 . S
H347 C317 0.980 1_655 S
H348 C317 0.976 . S
H349 C319 0.948 . S
H350 C321 0.947 . S
H351 C322 0.948 . S
H352 C328 0.982 . S
H353 C328 0.979 . S
H354 C328 0.977 . S
H355 C329 0.979 . S
H356 C329 0.980 . S
H357 C329 0.983 . S
H358 C302 0.947 . S
C359 C302 1.392 . S
C359 C303 1.419 . S
C359 H341 0.948 . S
C360 C361 1.391 . S
C360 C364 1.391 . S
C360 H402 0.948 . S
C361 C360 1.391 . S
C361 C362 1.391 . S
C362 C361 1.391 . S
C362 H418 0.947 . S
C362 C419 1.392 . S
C363 C364 1.391 . S
C363 C367 1.397 . S
C363 C419 1.419 . S
C364 C360 1.391 . S
C364 C363 1.391 . S
C364 C365 1.399 . S
C365 C364 1.399 . S
C365 C368 1.396 . S
C365 C377 1.453 . S
C365 C378 1.684 . S
H366 C390 0.948 . S
C367 C363 1.397 . S
C367 C368 1.394 . S
C367 C386 1.723 . S
C368 C365 1.396 . S
C368 C367 1.394 . S
C368 C398 1.723 1_565 S
H369 C392 0.947 . S
H370 C393 0.948 . S
H371 C399 0.982 . S
H372 C400 0.979 . S
H373 C400 0.980 . S
H374 C400 0.983 . S
H375 C399 0.979 . S
H376 C399 0.977 . S
C377 C365 1.453 . S
C377 H406 0.982 1_565 S
C377 H407 0.979 . S
C377 H408 0.977 1_565 S
C378 C365 1.684 . S
C378 H403 0.979 . S
C378 H404 0.980 . S
C378 H405 0.983 . S
C379 C380 1.391 1_565 S
C379 C384 1.391 . S
C379 H409 0.948 . S
C380 C379 1.391 1_545 S
C380 C381 1.391 . S
C381 C380 1.391 . S
C381 C382 1.392 . S
C381 H410 0.947 . S
C382 C381 1.392 . S
C382 C383 1.419 . S
C382 H411 0.948 . S
C383 C382 1.419 . S
C383 C384 1.391 1_545 S
C383 C387 1.397 . S
C384 C379 1.391 . S
C384 C383 1.391 1_565 S
C384 C385 1.399 . S
C385 C384 1.399 . S
C385 C386 1.396 . S
C385 C388 1.453 . S
C385 C389 1.684 . S
C386 C367 1.723 . S
C386 C385 1.396 . S
C386 C387 1.394 1_565 S
C387 C383 1.397 . S
C387 C386 1.394 1_545 S
C387 C397 1.723 . S
C388 C385 1.453 . S
C388 H412 0.982 . S
C388 H413 0.979 . S
C388 H414 0.977 . S
C389 C385 1.684 . S
C389 H415 0.979 . S
C389 H416 0.980 . S
C389 H417 0.983 . S
C390 H366 0.948 . S
C390 C391 1.391 . S
C390 C395 1.391 . S
C391 C390 1.391 . S
C391 C392 1.391 . S
C392 H369 0.947 . S
C392 C391 1.391 . S
C392 C393 1.392 . S
C393 H370 0.948 . S
C393 C392 1.392 . S
C393 C394 1.419 . S
C394 C393 1.419 . S
C394 C395 1.391 . S
C394 C398 1.397 . S
C395 C390 1.391 . S
C395 C394 1.391 . S
C395 C396 1.399 . S
C396 C395 1.399 . S
C396 C397 1.396 . S
C396 C399 1.453 . S
C396 C400 1.684 . S
C397 C387 1.723 . S
C397 C396 1.396 . S
C397 C398 1.394 . S
C398 C368 1.723 1_545 S
C398 C394 1.397 . S
C398 C397 1.394 . S
C399 H371 0.982 . S
C399 H375 0.979 . S
C399 H376 0.977 . S
C399 C396 1.453 . S
C400 H372 0.979 . S
C400 H373 0.980 . S
C400 H374 0.983 . S
C400 C396 1.684 . S
H401 C419 0.948 . S
H402 C360 0.948 . S
H403 C378 0.979 . S
H404 C378 0.980 . S
H405 C378 0.983 . S
H406 C377 0.982 1_545 S
H407 C377 0.979 . S
H408 C377 0.977 1_545 S
H409 C379 0.948 . S
H410 C381 0.947 . S
H411 C382 0.948 . S
H412 C388 0.982 . S
H413 C388 0.979 . S
H414 C388 0.977 . S
H415 C389 0.979 . S
H416 C389 0.980 . S
H417 C389 0.983 . S
H418 C362 0.947 . S
C419 C362 1.392 . S
C419 C363 1.419 . S
C419 H401 0.948 . S
C420 C421 1.391 . S
C420 C424 1.391 . S
C420 H462 0.948 . S
C421 C420 1.391 . S
C421 C422 1.391 . S
C422 C421 1.391 . S
C422 H478 0.947 . S
C422 C479 1.392 . S
C423 C424 1.391 . S
C423 C427 1.397 . S
C423 C479 1.419 . S
C424 C420 1.391 . S
C424 C423 1.391 . S
C424 C425 1.399 . S
C425 C424 1.399 . S
C425 C428 1.396 . S
C425 C437 1.453 . S
C425 C438 1.684 . S
H426 C450 0.948 . S
C427 C423 1.397 . S
C427 C428 1.394 . S
C427 C446 1.723 . S
C428 C425 1.396 . S
C428 C427 1.394 . S
C428 C458 1.723 . S
H429 C452 0.947 . S
H430 C453 0.948 . S
H431 C459 0.982 . S
H432 C460 0.979 . S
H433 C460 0.980 . S
H434 C460 0.983 . S
H435 C459 0.979 . S
H436 C459 0.977 . S
C437 C425 1.453 . S
C437 H466 0.982 . S
C437 H467 0.979 . S
C437 H468 0.977 . S
C438 C425 1.684 . S
C438 H463 0.979 . S
C438 H464 0.980 . S
C438 H465 0.983 . S
C439 C440 1.391 . S
C439 C444 1.391 1_556 S
C439 H469 0.948 . S
C440 C439 1.391 . S
C440 C441 1.391 . S
C441 C440 1.391 . S
C441 C442 1.392 1_556 S
C441 H470 0.947 . S
C442 C441 1.392 1_554 S
C442 C443 1.419 . S
C442 H471 0.948 . S
C443 C442 1.419 . S
C443 C444 1.391 . S
C443 C447 1.397 . S
C444 C439 1.391 1_554 S
C444 C443 1.391 . S
C444 C445 1.399 . S
C445 C444 1.399 . S
C445 C446 1.396 . S
C445 C448 1.453 . S
C445 C449 1.684 . S
C446 C427 1.723 . S
C446 C445 1.396 . S
C446 C447 1.394 . S
C447 C443 1.397 . S
C447 C446 1.394 . S
C447 C457 1.723 . S
C448 C445 1.453 . S
C448 H472 0.982 . S
C448 H473 0.979 . S
C448 H474 0.977 . S
C449 C445 1.684 . S
C449 H475 0.979 . S
C449 H476 0.980 . S
C449 H477 0.983 . S
C450 H426 0.948 . S
C450 C451 1.391 . S
C450 C455 1.391 . S
C451 C450 1.391 . S
C451 C452 1.391 . S
C452 H429 0.947 . S
C452 C451 1.391 . S
C452 C453 1.392 . S
C453 H430 0.948 . S
C453 C452 1.392 . S
C453 C454 1.419 . S
C454 C453 1.419 . S
C454 C455 1.391 . S
C454 C458 1.397 . S
C455 C450 1.391 . S
C455 C454 1.391 . S
C455 C456 1.399 . S
C456 C455 1.399 . S
C456 C457 1.396 . S
C456 C459 1.453 . S
C456 C460 1.684 . S
C457 C447 1.723 . S
C457 C456 1.396 . S
C457 C458 1.394 . S
C458 C428 1.723 . S
C458 C454 1.397 . S
C458 C457 1.394 . S
C459 H431 0.982 . S
C459 H435 0.979 . S
C459 H436 0.977 . S
C459 C456 1.453 . S
C460 H432 0.979 . S
C460 H433 0.980 . S
C460 H434 0.983 . S
C460 C456 1.684 . S
H461 C479 0.948 . S
H462 C420 0.948 . S
H463 C438 0.979 . S
H464 C438 0.980 . S
H465 C438 0.983 . S
H466 C437 0.982 . S
H467 C437 0.979 . S
H468 C437 0.977 . S
H469 C439 0.948 . S
H470 C441 0.947 . S
H471 C442 0.948 . S
H472 C448 0.982 . S
H473 C448 0.979 . S
H474 C448 0.977 . S
H475 C449 0.979 . S
H476 C449 0.980 . S
H477 C449 0.983 . S
H478 C422 0.947 . S
C479 C422 1.392 . S
C479 C423 1.419 . S
C479 H461 0.948 . S
C480 C481 1.363 . S
C480 C486 1.379 . S
C480 N488 1.356 . S
C481 C480 1.363 . S
C481 C487 1.363 . S
C482 C483 1.363 . S
C482 C487 1.379 . S
C482 N489 1.356 . S
C483 C482 1.363 . S
C483 C486 1.363 . S
N484 C486 1.356 . S
N484 H496 0.984 . S
N484 H497 0.985 . S
N485 C487 1.356 . S
N485 H490 0.984 . S
N485 H491 0.985 . S
C486 C480 1.379 . S
C486 C483 1.363 . S
C486 N484 1.356 . S
C487 C481 1.363 . S
C487 C482 1.379 . S
C487 N485 1.356 . S
N488 C480 1.356 . S
N488 H494 0.984 . S
N488 H495 0.984 . S
N489 C482 1.356 . S
N489 H492 0.984 . S
N489 H493 0.985 . S
H490 N485 0.984 . S
H491 N485 0.985 . S
H492 N489 0.984 . S
H493 N489 0.985 . S
H494 N488 0.984 . S
H495 N488 0.984 . S
H496 N484 0.984 . S
H497 N484 0.985 . S
C498 C499 1.363 . S
C498 C504 1.379 . S
C498 N506 1.356 . S
C499 C498 1.363 . S
C499 C505 1.363 . S
C500 C501 1.363 . S
C500 C505 1.379 . S
C500 N507 1.356 . S
C501 C500 1.363 . S
C501 C504 1.363 . S
N502 C504 1.356 . S
N502 H514 0.984 . S
N502 H515 0.985 . S
N503 C505 1.356 . S
N503 H508 0.984 . S
N503 H509 0.985 . S
C504 C498 1.379 . S
C504 C501 1.363 . S
C504 N502 1.356 . S
C505 C499 1.363 . S
C505 C500 1.379 . S
C505 N503 1.356 . S
N506 C498 1.356 . S
N506 H512 0.984 . S
N506 H513 0.984 . S
N507 C500 1.356 . S
N507 H510 0.984 . S
N507 H511 0.985 . S
H508 N503 0.984 . S
H509 N503 0.985 . S
H510 N507 0.984 . S
H511 N507 0.985 . S
H512 N506 0.984 . S
H513 N506 0.984 . S
H514 N502 0.984 . S
H515 N502 0.985 . S
C516 C517 1.363 . S
C516 C522 1.379 . S
C516 N524 1.356 . S
C517 C516 1.363 . S
C517 C523 1.363 . S
C518 C519 1.363 . S
C518 C523 1.379 . S
C518 N525 1.356 . S
C519 C518 1.363 . S
C519 C522 1.363 . S
N520 C522 1.356 . S
N520 H532 0.984 . S
N520 H533 0.985 . S
N521 C523 1.356 . S
N521 H526 0.984 . S
N521 H527 0.985 . S
C522 C516 1.379 . S
C522 C519 1.363 . S
C522 N520 1.356 . S
C523 C517 1.363 . S
C523 C518 1.379 . S
C523 N521 1.356 . S
N524 C516 1.356 . S
N524 H530 0.984 . S
N524 H531 0.984 . S
N525 C518 1.356 . S
N525 H528 0.984 . S
N525 H529 0.985 . S
H526 N521 0.984 . S
H527 N521 0.985 . S
H528 N525 0.984 . S
H529 N525 0.985 . S
H530 N524 0.984 . S
H531 N524 0.984 . S
H532 N520 0.984 . S
H533 N520 0.985 . S
C534 C535 1.363 . S
C534 C540 1.379 . S
C534 N542 1.356 . S
C535 C534 1.363 . S
C535 C541 1.363 . S
C536 C537 1.363 . S
C536 C541 1.379 . S
C536 N543 1.356 . S
C537 C536 1.363 . S
C537 C540 1.363 . S
N538 C540 1.356 . S
N538 H550 0.984 . S
N538 H551 0.985 . S
N539 C541 1.356 . S
N539 H544 0.984 . S
N539 H545 0.985 . S
C540 C534 1.379 . S
C540 C537 1.363 . S
C540 N538 1.356 . S
C541 C535 1.363 . S
C541 C536 1.379 . S
C541 N539 1.356 . S
N542 C534 1.356 . S
N542 H548 0.984 . S
N542 H549 0.984 . S
N543 C536 1.356 . S
N543 H546 0.984 . S
N543 H547 0.985 . S
H544 N539 0.984 . S
H545 N539 0.985 . S
H546 N543 0.984 . S
H547 N543 0.985 . S
H548 N542 0.984 . S
H549 N542 0.984 . S
H550 N538 0.984 . S
H551 N538 0.985 . S
C552 C553 1.363 . S
C552 C558 1.379 . S
C552 N560 1.356 . S
C553 C552 1.363 . S
C553 C559 1.363 . S
C554 C555 1.363 . S
C554 C559 1.379 . S
C554 N561 1.356 . S
C555 C554 1.363 . S
C555 C558 1.363 . S
N556 C558 1.356 . S
N556 H568 0.984 . S
N556 H569 0.985 . S
N557 C559 1.356 . S
N557 H562 0.984 . S
N557 H563 0.985 . S
C558 C552 1.379 . S
C558 C555 1.363 . S
C558 N556 1.356 . S
C559 C553 1.363 . S
C559 C554 1.379 . S
C559 N557 1.356 . S
N560 C552 1.356 . S
N560 H566 0.984 . S
N560 H567 0.984 . S
N561 C554 1.356 . S
N561 H564 0.984 . S
N561 H565 0.985 . S
H562 N557 0.984 . S
H563 N557 0.985 . S
H564 N561 0.984 . S
H565 N561 0.985 . S
H566 N560 0.984 . S
H567 N560 0.984 . S
H568 N556 0.984 . S
H569 N556 0.985 . S
C570 C571 1.363 . S
C570 C576 1.379 . S
C570 N578 1.356 . S
C571 C570 1.363 . S
C571 C577 1.363 . S
C572 C573 1.363 . S
C572 C577 1.379 . S
C572 N579 1.356 . S
C573 C572 1.363 . S
C573 C576 1.363 . S
N574 C576 1.356 . S
N574 H586 0.984 . S
N574 H587 0.985 . S
N575 C577 1.356 . S
N575 H580 0.984 . S
N575 H581 0.985 . S
C576 C570 1.379 . S
C576 C573 1.363 . S
C576 N574 1.356 . S
C577 C571 1.363 . S
C577 C572 1.379 . S
C577 N575 1.356 . S
N578 C570 1.356 . S
N578 H584 0.984 . S
N578 H585 0.984 . S
N579 C572 1.356 . S
N579 H582 0.984 . S
N579 H583 0.985 . S
H580 N575 0.984 . S
H581 N575 0.985 . S
H582 N579 0.984 . S
H583 N579 0.985 . S
H584 N578 0.984 . S
H585 N578 0.984 . S
H586 N574 0.984 . S
H587 N574 0.985 . S
C588 C589 1.363 . S
C588 C594 1.379 . S
C588 N596 1.356 . S
C589 C588 1.363 . S
C589 C595 1.363 . S
C590 C591 1.363 . S
C590 C595 1.379 . S
C590 N597 1.356 . S
C591 C590 1.363 . S
C591 C594 1.363 . S
N592 C594 1.356 . S
N592 H604 0.984 . S
N592 H605 0.985 . S
N593 C595 1.356 . S
N593 H598 0.984 . S
N593 H599 0.985 . S
C594 C588 1.379 . S
C594 C591 1.363 . S
C594 N592 1.356 . S
C595 C589 1.363 . S
C595 C590 1.379 . S
C595 N593 1.356 . S
N596 C588 1.356 . S
N596 H602 0.984 . S
N596 H603 0.984 . S
N597 C590 1.356 . S
N597 H600 0.984 . S
N597 H601 0.985 . S
H598 N593 0.984 . S
H599 N593 0.985 . S
H600 N597 0.984 . S
H601 N597 0.985 . S
H602 N596 0.984 . S
H603 N596 0.984 . S
H604 N592 0.984 . S
H605 N592 0.985 . S
C606 C607 1.363 . S
C606 C612 1.379 . S
C606 N614 1.356 . S
C607 C606 1.363 . S
C607 C613 1.363 . S
C608 C609 1.363 . S
C608 C613 1.379 . S
C608 N615 1.356 . S
C609 C608 1.363 . S
C609 C612 1.363 . S
N610 C612 1.356 . S
N610 H622 0.984 . S
N610 H623 0.985 . S
N611 C613 1.356 . S
N611 H616 0.984 . S
N611 H617 0.985 . S
C612 C606 1.379 . S
C612 C609 1.363 . S
C612 N610 1.356 . S
C613 C607 1.363 . S
C613 C608 1.379 . S
C613 N611 1.356 . S
N614 C606 1.356 . S
N614 H620 0.984 . S
N614 H621 0.984 . S
N615 C608 1.356 . S
N615 H618 0.984 . S
N615 H619 0.985 . S
H616 N611 0.984 . S
H617 N611 0.985 . S
H618 N615 0.984 . S
H619 N615 0.985 . S
H620 N614 0.984 . S
H621 N614 0.984 . S
H622 N610 0.984 . S
H623 N610 0.985 . S
C624 C625 1.363 . S
C624 C630 1.379 . S
C624 N632 1.356 . S
C625 C624 1.363 . S
C625 C631 1.363 . S
C626 C627 1.363 . S
C626 C631 1.379 . S
C626 N633 1.356 . S
C627 C626 1.363 . S
C627 C630 1.363 . S
N628 C630 1.356 . S
N628 H640 0.984 . S
N628 H641 0.985 . S
N629 C631 1.356 . S
N629 H634 0.984 . S
N629 H635 0.985 . S
C630 C624 1.379 . S
C630 C627 1.363 . S
C630 N628 1.356 . S
C631 C625 1.363 . S
C631 C626 1.379 . S
C631 N629 1.356 . S
N632 C624 1.356 . S
N632 H638 0.984 . S
N632 H639 0.984 . S
N633 C626 1.356 . S
N633 H636 0.984 . S
N633 H637 0.985 . S
H634 N629 0.984 . S
H635 N629 0.985 . S
H636 N633 0.984 . S
H637 N633 0.985 . S
H638 N632 0.984 . S
H639 N632 0.984 . S
H640 N628 0.984 . S
H641 N628 0.985 . S
C642 C643 1.363 . S
C642 C648 1.379 . S
C642 N650 1.356 . S
C643 C642 1.363 . S
C643 C649 1.363 . S
C644 C645 1.363 . S
C644 C649 1.379 . S
C644 N651 1.356 . S
C645 C644 1.363 . S
C645 C648 1.363 . S
N646 C648 1.356 . S
N646 H658 0.984 . S
N646 H659 0.985 . S
N647 C649 1.356 . S
N647 H652 0.984 . S
N647 H653 0.985 . S
C648 C642 1.379 . S
C648 C645 1.363 . S
C648 N646 1.356 . S
C649 C643 1.363 . S
C649 C644 1.379 . S
C649 N647 1.356 . S
N650 C642 1.356 . S
N650 H656 0.984 . S
N650 H657 0.984 . S
N651 C644 1.356 . S
N651 H654 0.984 . S
N651 H655 0.985 . S
H652 N647 0.984 . S
H653 N647 0.985 . S
H654 N651 0.984 . S
H655 N651 0.985 . S
H656 N650 0.984 . S
H657 N650 0.984 . S
H658 N646 0.984 . S
H659 N646 0.985 . S
C660 C661 1.363 . S
C660 C666 1.379 . S
C660 N668 1.356 . S
C661 C660 1.363 . S
C661 C667 1.363 . S
C662 C663 1.363 . S
C662 C667 1.379 . S
C662 N669 1.356 . S
C663 C662 1.363 . S
C663 C666 1.363 . S
N664 C666 1.356 . S
N664 H676 0.984 . S
N664 H677 0.985 . S
N665 C667 1.356 . S
N665 H670 0.984 . S
N665 H671 0.985 . S
C666 C660 1.379 . S
C666 C663 1.363 . S
C666 N664 1.356 . S
C667 C661 1.363 . S
C667 C662 1.379 . S
C667 N665 1.356 . S
N668 C660 1.356 . S
N668 H674 0.984 . S
N668 H675 0.984 . S
N669 C662 1.356 . S
N669 H672 0.984 . S
N669 H673 0.985 . S
H670 N665 0.984 . S
H671 N665 0.985 . S
H672 N669 0.984 . S
H673 N669 0.985 . S
H674 N668 0.984 . S
H675 N668 0.984 . S
H676 N664 0.984 . S
H677 N664 0.985 . S
C678 C679 1.363 . S
C678 C684 1.379 . S
C678 N686 1.356 . S
C679 C678 1.363 . S
C679 C685 1.363 . S
C680 C681 1.363 . S
C680 C685 1.379 . S
C680 N687 1.356 . S
C681 C680 1.363 . S
C681 C684 1.363 . S
N682 C684 1.356 . S
N682 H694 0.984 . S
N682 H695 0.985 . S
N683 C685 1.356 . S
N683 H688 0.984 . S
N683 H689 0.985 . S
C684 C678 1.379 . S
C684 C681 1.363 . S
C684 N682 1.356 . S
C685 C679 1.363 . S
C685 C680 1.379 . S
C685 N683 1.356 . S
N686 C678 1.356 . S
N686 H692 0.984 . S
N686 H693 0.984 . S
N687 C680 1.356 . S
N687 H690 0.984 . S
N687 H691 0.985 . S
H688 N683 0.984 . S
H689 N683 0.985 . S
H690 N687 0.984 . S
H691 N687 0.985 . S
H692 N686 0.984 . S
H693 N686 0.984 . S
H694 N682 0.984 . S
H695 N682 0.985 . S
C696 C697 1.363 . S
C696 C702 1.379 . S
C696 N704 1.356 . S
C697 C696 1.363 . S
C697 C703 1.363 . S
C698 C699 1.363 . S
C698 C703 1.379 . S
C698 N705 1.356 . S
C699 C698 1.363 . S
C699 C702 1.363 . S
N700 C702 1.356 . S
N700 H712 0.984 . S
N700 H713 0.985 . S
N701 C703 1.356 . S
N701 H706 0.984 . S
N701 H707 0.985 . S
C702 C696 1.379 . S
C702 C699 1.363 . S
C702 N700 1.356 . S
C703 C697 1.363 . S
C703 C698 1.379 . S
C703 N701 1.356 . S
N704 C696 1.356 . S
N704 H710 0.984 . S
N704 H711 0.984 . S
N705 C698 1.356 . S
N705 H708 0.984 . S
N705 H709 0.985 . S
H706 N701 0.984 . S
H707 N701 0.985 . S
H708 N705 0.984 . S
H709 N705 0.985 . S
H710 N704 0.984 . S
H711 N704 0.984 . S
H712 N700 0.984 . S
H713 N700 0.985 . S
C714 C715 1.363 . S
C714 C720 1.379 . S
C714 N722 1.356 . S
C715 C714 1.363 . S
C715 C721 1.363 . S
C716 C717 1.363 . S
C716 C721 1.379 . S
C716 N723 1.356 1_545 S
C717 C716 1.363 . S
C717 C720 1.363 . S
N718 C720 1.356 . S
N718 H730 0.984 . S
N718 H731 0.985 . S
N719 C721 1.356 1_565 S
N719 H724 0.984 . S
N719 H725 0.985 . S
C720 C714 1.379 . S
C720 C717 1.363 . S
C720 N718 1.356 . S
C721 C715 1.363 . S
C721 C716 1.379 . S
C721 N719 1.356 1_545 S
N722 C714 1.356 . S
N722 H728 0.984 . S
N722 H729 0.984 . S
N723 C716 1.356 1_565 S
N723 H726 0.984 . S
N723 H727 0.985 . S
H724 N719 0.984 . S
H725 N719 0.985 . S
H726 N723 0.984 . S
H727 N723 0.985 . S
H728 N722 0.984 . S
H729 N722 0.984 . S
H730 N718 0.984 . S
H731 N718 0.985 . S
C732 C733 1.363 . S
C732 C738 1.379 . S
C732 N740 1.356 . S
C733 C732 1.363 . S
C733 C739 1.363 . S
C734 C735 1.363 . S
C734 C739 1.379 . S
C734 N741 1.356 . S
C735 C734 1.363 . S
C735 C738 1.363 . S
N736 C738 1.356 . S
N736 H748 0.984 . S
N736 H749 0.985 . S
N737 C739 1.356 . S
N737 H742 0.984 . S
N737 H743 0.985 . S
C738 C732 1.379 . S
C738 C735 1.363 . S
C738 N736 1.356 . S
C739 C733 1.363 . S
C739 C734 1.379 . S
C739 N737 1.356 . S
N740 C732 1.356 . S
N740 H746 0.984 . S
N740 H747 0.984 . S
N741 C734 1.356 . S
N741 H744 0.984 . S
N741 H745 0.985 . S
H742 N737 0.984 . S
H743 N737 0.985 . S
H744 N741 0.984 . S
H745 N741 0.985 . S
H746 N740 0.984 . S
H747 N740 0.984 . S
H748 N736 0.984 . S
H749 N736 0.985 . S
C750 C751 1.363 . S
C750 C756 1.379 . S
C750 N758 1.356 . S
C751 C750 1.363 . S
C751 C757 1.363 1_545 S
C752 C753 1.363 1_565 S
C752 C757 1.379 . S
C752 N759 1.356 . S
C753 C752 1.363 1_545 S
C753 C756 1.363 . S
N754 C756 1.356 . S
N754 H766 0.984 . S
N754 H767 0.985 . S
N755 C757 1.356 . S
N755 H760 0.984 1_565 S
N755 H761 0.985 . S
C756 C750 1.379 . S
C756 C753 1.363 . S
C756 N754 1.356 . S
C757 C751 1.363 1_565 S
C757 C752 1.379 . S
C757 N755 1.356 . S
N758 C750 1.356 . S
N758 H764 0.984 . S
N758 H765 0.984 . S
N759 C752 1.356 . S
N759 H762 0.984 . S
N759 H763 0.985 . S
H760 N755 0.984 1_545 S
H761 N755 0.985 . S
H762 N759 0.984 . S
H763 N759 0.985 . S
H764 N758 0.984 . S
H765 N758 0.984 . S
H766 N754 0.984 . S
H767 N754 0.985 . S
C768 C769 1.363 . S
C768 C774 1.379 . S
C768 N776 1.356 . S
C769 C768 1.363 . S
C769 C775 1.363 . S
C770 C771 1.363 . S
C770 C775 1.379 . S
C770 N777 1.356 . S
C771 C770 1.363 . S
C771 C774 1.363 . S
N772 C774 1.356 . S
N772 H784 0.984 . S
N772 H785 0.985 . S
N773 C775 1.356 . S
N773 H778 0.984 . S
N773 H779 0.985 . S
C774 C768 1.379 . S
C774 C771 1.363 . S
C774 N772 1.356 . S
C775 C769 1.363 . S
C775 C770 1.379 . S
C775 N773 1.356 . S
N776 C768 1.356 . S
N776 H782 0.984 . S
N776 H783 0.984 . S
N777 C770 1.356 . S
N777 H780 0.984 . S
N777 H781 0.985 . S
H778 N773 0.984 . S
H779 N773 0.985 . S
H780 N777 0.984 . S
H781 N777 0.985 . S
H782 N776 0.984 . S
H783 N776 0.984 . S
H784 N772 0.984 . S
H785 N772 0.985 . S
C786 C787 1.363 1_655 S
C786 C792 1.379 . S
C786 N794 1.356 . S
C787 C786 1.363 1_455 S
C787 C793 1.363 . S
C788 C789 1.363 . S
C788 C793 1.379 . S
C788 N795 1.356 . S
C789 C788 1.363 . S
C789 C792 1.363 1_455 S
N790 C792 1.356 . S
N790 H802 0.984 . S
N790 H803 0.985 . S
N791 C793 1.356 . S
N791 H796 0.984 . S
N791 H797 0.985 . S
C792 C786 1.379 . S
C792 C789 1.363 1_655 S
C792 N790 1.356 . S
C793 C787 1.363 . S
C793 C788 1.379 . S
C793 N791 1.356 . S
N794 C786 1.356 . S
N794 H800 0.984 . S
N794 H801 0.984 . S
N795 C788 1.356 . S
N795 H798 0.984 . S
N795 H799 0.985 . S
H796 N791 0.984 . S
H797 N791 0.985 . S
H798 N795 0.984 . S
H799 N795 0.985 . S
H800 N794 0.984 . S
H801 N794 0.984 . S
H802 N790 0.984 . S
H803 N790 0.985 . S
C481 C9 0.741 . S
C483 C451 0.736 . S
C499 C49 0.529 . S
C501 C301 0.455 . S
C517 C89 0.536 . S
C519 C361 0.487 . S
C535 C26 0.666 . S
C537 C421 0.601 . S
C555 C331 0.722 . S
C553 C66 0.735 . S
C573 C391 0.793 . S
C571 C106 0.773 . S
C589 C43 3.055 . S
C591 C181 2.857 . S
C607 C83 3.180 . S
C609 C271 3.155 . S
C625 C22 3.230 . S
C627 C151 3.205 . S
C645 C211 3.205 . S
C643 C62 3.230 . S
C663 C241 2.900 . S
C661 C102 3.103 . S
C679 C3 3.054 . S
C681 C121 2.866 . S
C699 C260 1.786 . S
C697 C15 1.749 . S
C715 C55 1.764 . S
C717 C140 1.779 . S
C733 C95 1.759 . S
C735 C200 1.775 . S
C753 C380 1.043 . S
C751 C42 1.059 . S
C771 C440 1.056 . S
C769 C82 1.060 . S
C787 C2 1.043 . S
C789 C320 1.028 . S
