# Generated by pormake.
# Topology tbo, (3,4)-cn, num edge types: 1
# Building blocks:
#     Node 0, Type 0, BuildingBlock: MIDCAF_clean_linker_0, # of connection points: 3
#     Node 1, Type 0, BuildingBlock: MIDCAF_clean_linker_0, # of connection points: 3
#     Node 2, Type 0, BuildingBlock: MIDCAF_clean_linker_0, # of connection points: 3
#     Node 3, Type 0, BuildingBlock: MIDCAF_clean_linker_0, # of connection points: 3
#     Node 4, Type 0, BuildingBlock: MIDCAF_clean_linker_0, # of connection points: 3
#     Node 5, Type 0, BuildingBlock: MIDCAF_clean_linker_0, # of connection points: 3
#     Node 6, Type 0, BuildingBlock: MIDCAF_clean_linker_0, # of connection points: 3
#     Node 7, Type 0, BuildingBlock: MIDCAF_clean_linker_0, # of connection points: 3
#     Node 8, Type 0, BuildingBlock: MIDCAF_clean_linker_0, # of connection points: 3
#     Node 9, Type 0, BuildingBlock: MIDCAF_clean_linker_0, # of connection points: 3
#     Node 10, Type 0, BuildingBlock: MIDCAF_clean_linker_0, # of connection points: 3
#     Node 11, Type 0, BuildingBlock: MIDCAF_clean_linker_0, # of connection points: 3
#     Node 12, Type 0, BuildingBlock: MIDCAF_clean_linker_0, # of connection points: 3
#     Node 13, Type 0, BuildingBlock: MIDCAF_clean_linker_0, # of connection points: 3
#     Node 14, Type 0, BuildingBlock: MIDCAF_clean_linker_0, # of connection points: 3
#     Node 15, Type 0, BuildingBlock: MIDCAF_clean_linker_0, # of connection points: 3
#     Node 16, Type 0, BuildingBlock: MIDCAF_clean_linker_0, # of connection points: 3
#     Node 17, Type 0, BuildingBlock: MIDCAF_clean_linker_0, # of connection points: 3
#     Node 18, Type 0, BuildingBlock: MIDCAF_clean_linker_0, # of connection points: 3
#     Node 19, Type 0, BuildingBlock: MIDCAF_clean_linker_0, # of connection points: 3
#     Node 20, Type 0, BuildingBlock: MIDCAF_clean_linker_0, # of connection points: 3
#     Node 21, Type 0, BuildingBlock: MIDCAF_clean_linker_0, # of connection points: 3
#     Node 22, Type 0, BuildingBlock: MIDCAF_clean_linker_0, # of connection points: 3
#     Node 23, Type 0, BuildingBlock: MIDCAF_clean_linker_0, # of connection points: 3
#     Node 24, Type 0, BuildingBlock: MIDCAF_clean_linker_0, # of connection points: 3
#     Node 25, Type 0, BuildingBlock: MIDCAF_clean_linker_0, # of connection points: 3
#     Node 26, Type 0, BuildingBlock: MIDCAF_clean_linker_0, # of connection points: 3
#     Node 27, Type 0, BuildingBlock: MIDCAF_clean_linker_0, # of connection points: 3
#     Node 28, Type 0, BuildingBlock: MIDCAF_clean_linker_0, # of connection points: 3
#     Node 29, Type 0, BuildingBlock: MIDCAF_clean_linker_0, # of connection points: 3
#     Node 30, Type 0, BuildingBlock: MIDCAF_clean_linker_0, # of connection points: 3
#     Node 31, Type 0, BuildingBlock: MIDCAF_clean_linker_0, # of connection points: 3
#     Node 32, Type 1, BuildingBlock: ESEHIV_clean_sbu_0, # of connection points: 4
#     Node 33, Type 1, BuildingBlock: ESEHIV_clean_sbu_0, # of connection points: 4
#     Node 34, Type 1, BuildingBlock: ESEHIV_clean_sbu_0, # of connection points: 4
#     Node 35, Type 1, BuildingBlock: ESEHIV_clean_sbu_0, # of connection points: 4
#     Node 36, Type 1, BuildingBlock: ESEHIV_clean_sbu_0, # of connection points: 4
#     Node 37, Type 1, BuildingBlock: ESEHIV_clean_sbu_0, # of connection points: 4
#     Node 38, Type 1, BuildingBlock: ESEHIV_clean_sbu_0, # of connection points: 4
#     Node 39, Type 1, BuildingBlock: ESEHIV_clean_sbu_0, # of connection points: 4
#     Node 40, Type 1, BuildingBlock: ESEHIV_clean_sbu_0, # of connection points: 4
#     Node 41, Type 1, BuildingBlock: ESEHIV_clean_sbu_0, # of connection points: 4
#     Node 42, Type 1, BuildingBlock: ESEHIV_clean_sbu_0, # of connection points: 4
#     Node 43, Type 1, BuildingBlock: ESEHIV_clean_sbu_0, # of connection points: 4
#     Node 44, Type 1, BuildingBlock: ESEHIV_clean_sbu_0, # of connection points: 4
#     Node 45, Type 1, BuildingBlock: ESEHIV_clean_sbu_0, # of connection points: 4
#     Node 46, Type 1, BuildingBlock: ESEHIV_clean_sbu_0, # of connection points: 4
#     Node 47, Type 1, BuildingBlock: ESEHIV_clean_sbu_0, # of connection points: 4
#     Node 48, Type 1, BuildingBlock: ESEHIV_clean_sbu_0, # of connection points: 4
#     Node 49, Type 1, BuildingBlock: ESEHIV_clean_sbu_0, # of connection points: 4
#     Node 50, Type 1, BuildingBlock: ESEHIV_clean_sbu_0, # of connection points: 4
#     Node 51, Type 1, BuildingBlock: ESEHIV_clean_sbu_0, # of connection points: 4
#     Node 52, Type 1, BuildingBlock: ESEHIV_clean_sbu_0, # of connection points: 4
#     Node 53, Type 1, BuildingBlock: ESEHIV_clean_sbu_0, # of connection points: 4
#     Node 54, Type 1, BuildingBlock: ESEHIV_clean_sbu_0, # of connection points: 4
#     Node 55, Type 1, BuildingBlock: ESEHIV_clean_sbu_0, # of connection points: 4
#     Edge 56, Type (0, 1), BuildingBlock: UVAHIK_clean_linker_0, # of connection points: 2
#     Edge 57, Type (0, 1), BuildingBlock: UVAHIK_clean_linker_0, # of connection points: 2
#     Edge 58, Type (0, 1), BuildingBlock: UVAHIK_clean_linker_0, # of connection points: 2
#     Edge 59, Type (0, 1), BuildingBlock: UVAHIK_clean_linker_0, # of connection points: 2
#     Edge 60, Type (0, 1), BuildingBlock: UVAHIK_clean_linker_0, # of connection points: 2
#     Edge 61, Type (0, 1), BuildingBlock: UVAHIK_clean_linker_0, # of connection points: 2
#     Edge 62, Type (0, 1), BuildingBlock: UVAHIK_clean_linker_0, # of connection points: 2
#     Edge 63, Type (0, 1), BuildingBlock: UVAHIK_clean_linker_0, # of connection points: 2
#     Edge 64, Type (0, 1), BuildingBlock: UVAHIK_clean_linker_0, # of connection points: 2
#     Edge 65, Type (0, 1), BuildingBlock: UVAHIK_clean_linker_0, # of connection points: 2
#     Edge 66, Type (0, 1), BuildingBlock: UVAHIK_clean_linker_0, # of connection points: 2
#     Edge 67, Type (0, 1), BuildingBlock: UVAHIK_clean_linker_0, # of connection points: 2
#     Edge 68, Type (0, 1), BuildingBlock: UVAHIK_clean_linker_0, # of connection points: 2
#     Edge 69, Type (0, 1), BuildingBlock: UVAHIK_clean_linker_0, # of connection points: 2
#     Edge 70, Type (0, 1), BuildingBlock: UVAHIK_clean_linker_0, # of connection points: 2
#     Edge 71, Type (0, 1), BuildingBlock: UVAHIK_clean_linker_0, # of connection points: 2
#     Edge 72, Type (0, 1), BuildingBlock: UVAHIK_clean_linker_0, # of connection points: 2
#     Edge 73, Type (0, 1), BuildingBlock: UVAHIK_clean_linker_0, # of connection points: 2
#     Edge 74, Type (0, 1), BuildingBlock: UVAHIK_clean_linker_0, # of connection points: 2
#     Edge 75, Type (0, 1), BuildingBlock: UVAHIK_clean_linker_0, # of connection points: 2
#     Edge 76, Type (0, 1), BuildingBlock: UVAHIK_clean_linker_0, # of connection points: 2
#     Edge 77, Type (0, 1), BuildingBlock: UVAHIK_clean_linker_0, # of connection points: 2
#     Edge 78, Type (0, 1), BuildingBlock: UVAHIK_clean_linker_0, # of connection points: 2
#     Edge 79, Type (0, 1), BuildingBlock: UVAHIK_clean_linker_0, # of connection points: 2
#     Edge 80, Type (0, 1), BuildingBlock: UVAHIK_clean_linker_0, # of connection points: 2
#     Edge 81, Type (0, 1), BuildingBlock: UVAHIK_clean_linker_0, # of connection points: 2
#     Edge 82, Type (0, 1), BuildingBlock: UVAHIK_clean_linker_0, # of connection points: 2
#     Edge 83, Type (0, 1), BuildingBlock: UVAHIK_clean_linker_0, # of connection points: 2
#     Edge 84, Type (0, 1), BuildingBlock: UVAHIK_clean_linker_0, # of connection points: 2
#     Edge 85, Type (0, 1), BuildingBlock: UVAHIK_clean_linker_0, # of connection points: 2
#     Edge 86, Type (0, 1), BuildingBlock: UVAHIK_clean_linker_0, # of connection points: 2
#     Edge 87, Type (0, 1), BuildingBlock: UVAHIK_clean_linker_0, # of connection points: 2
#     Edge 88, Type (0, 1), BuildingBlock: UVAHIK_clean_linker_0, # of connection points: 2
#     Edge 89, Type (0, 1), BuildingBlock: UVAHIK_clean_linker_0, # of connection points: 2
#     Edge 90, Type (0, 1), BuildingBlock: UVAHIK_clean_linker_0, # of connection points: 2
#     Edge 91, Type (0, 1), BuildingBlock: UVAHIK_clean_linker_0, # of connection points: 2
#     Edge 92, Type (0, 1), BuildingBlock: UVAHIK_clean_linker_0, # of connection points: 2
#     Edge 93, Type (0, 1), BuildingBlock: UVAHIK_clean_linker_0, # of connection points: 2
#     Edge 94, Type (0, 1), BuildingBlock: UVAHIK_clean_linker_0, # of connection points: 2
#     Edge 95, Type (0, 1), BuildingBlock: UVAHIK_clean_linker_0, # of connection points: 2
#     Edge 96, Type (0, 1), BuildingBlock: UVAHIK_clean_linker_0, # of connection points: 2
#     Edge 97, Type (0, 1), BuildingBlock: UVAHIK_clean_linker_0, # of connection points: 2
#     Edge 98, Type (0, 1), BuildingBlock: UVAHIK_clean_linker_0, # of connection points: 2
#     Edge 99, Type (0, 1), BuildingBlock: UVAHIK_clean_linker_0, # of connection points: 2
#     Edge 100, Type (0, 1), BuildingBlock: UVAHIK_clean_linker_0, # of connection points: 2
#     Edge 101, Type (0, 1), BuildingBlock: UVAHIK_clean_linker_0, # of connection points: 2
#     Edge 102, Type (0, 1), BuildingBlock: UVAHIK_clean_linker_0, # of connection points: 2
#     Edge 103, Type (0, 1), BuildingBlock: UVAHIK_clean_linker_0, # of connection points: 2
#     Edge 104, Type (0, 1), BuildingBlock: UVAHIK_clean_linker_0, # of connection points: 2
#     Edge 105, Type (0, 1), BuildingBlock: UVAHIK_clean_linker_0, # of connection points: 2
#     Edge 106, Type (0, 1), BuildingBlock: UVAHIK_clean_linker_0, # of connection points: 2
#     Edge 107, Type (0, 1), BuildingBlock: UVAHIK_clean_linker_0, # of connection points: 2
#     Edge 108, Type (0, 1), BuildingBlock: UVAHIK_clean_linker_0, # of connection points: 2
#     Edge 109, Type (0, 1), BuildingBlock: UVAHIK_clean_linker_0, # of connection points: 2
#     Edge 110, Type (0, 1), BuildingBlock: UVAHIK_clean_linker_0, # of connection points: 2
#     Edge 111, Type (0, 1), BuildingBlock: UVAHIK_clean_linker_0, # of connection points: 2
#     Edge 112, Type (0, 1), BuildingBlock: UVAHIK_clean_linker_0, # of connection points: 2
#     Edge 113, Type (0, 1), BuildingBlock: UVAHIK_clean_linker_0, # of connection points: 2
#     Edge 114, Type (0, 1), BuildingBlock: UVAHIK_clean_linker_0, # of connection points: 2
#     Edge 115, Type (0, 1), BuildingBlock: UVAHIK_clean_linker_0, # of connection points: 2
#     Edge 116, Type (0, 1), BuildingBlock: UVAHIK_clean_linker_0, # of connection points: 2
#     Edge 117, Type (0, 1), BuildingBlock: UVAHIK_clean_linker_0, # of connection points: 2
#     Edge 118, Type (0, 1), BuildingBlock: UVAHIK_clean_linker_0, # of connection points: 2
#     Edge 119, Type (0, 1), BuildingBlock: UVAHIK_clean_linker_0, # of connection points: 2
#     Edge 120, Type (0, 1), BuildingBlock: UVAHIK_clean_linker_0, # of connection points: 2
#     Edge 121, Type (0, 1), BuildingBlock: UVAHIK_clean_linker_0, # of connection points: 2
#     Edge 122, Type (0, 1), BuildingBlock: UVAHIK_clean_linker_0, # of connection points: 2
#     Edge 123, Type (0, 1), BuildingBlock: UVAHIK_clean_linker_0, # of connection points: 2
#     Edge 124, Type (0, 1), BuildingBlock: UVAHIK_clean_linker_0, # of connection points: 2
#     Edge 125, Type (0, 1), BuildingBlock: UVAHIK_clean_linker_0, # of connection points: 2
#     Edge 126, Type (0, 1), BuildingBlock: UVAHIK_clean_linker_0, # of connection points: 2
#     Edge 127, Type (0, 1), BuildingBlock: UVAHIK_clean_linker_0, # of connection points: 2
#     Edge 128, Type (0, 1), BuildingBlock: UVAHIK_clean_linker_0, # of connection points: 2
#     Edge 129, Type (0, 1), BuildingBlock: UVAHIK_clean_linker_0, # of connection points: 2
#     Edge 130, Type (0, 1), BuildingBlock: UVAHIK_clean_linker_0, # of connection points: 2
#     Edge 131, Type (0, 1), BuildingBlock: UVAHIK_clean_linker_0, # of connection points: 2
#     Edge 132, Type (0, 1), BuildingBlock: UVAHIK_clean_linker_0, # of connection points: 2
#     Edge 133, Type (0, 1), BuildingBlock: UVAHIK_clean_linker_0, # of connection points: 2
#     Edge 134, Type (0, 1), BuildingBlock: UVAHIK_clean_linker_0, # of connection points: 2
#     Edge 135, Type (0, 1), BuildingBlock: UVAHIK_clean_linker_0, # of connection points: 2
#     Edge 136, Type (0, 1), BuildingBlock: UVAHIK_clean_linker_0, # of connection points: 2
#     Edge 137, Type (0, 1), BuildingBlock: UVAHIK_clean_linker_0, # of connection points: 2
#     Edge 138, Type (0, 1), BuildingBlock: UVAHIK_clean_linker_0, # of connection points: 2
#     Edge 139, Type (0, 1), BuildingBlock: UVAHIK_clean_linker_0, # of connection points: 2
#     Edge 140, Type (0, 1), BuildingBlock: UVAHIK_clean_linker_0, # of connection points: 2
#     Edge 141, Type (0, 1), BuildingBlock: UVAHIK_clean_linker_0, # of connection points: 2
#     Edge 142, Type (0, 1), BuildingBlock: UVAHIK_clean_linker_0, # of connection points: 2
#     Edge 143, Type (0, 1), BuildingBlock: UVAHIK_clean_linker_0, # of connection points: 2
#     Edge 144, Type (0, 1), BuildingBlock: UVAHIK_clean_linker_0, # of connection points: 2
#     Edge 145, Type (0, 1), BuildingBlock: UVAHIK_clean_linker_0, # of connection points: 2
#     Edge 146, Type (0, 1), BuildingBlock: UVAHIK_clean_linker_0, # of connection points: 2
#     Edge 147, Type (0, 1), BuildingBlock: UVAHIK_clean_linker_0, # of connection points: 2
#     Edge 148, Type (0, 1), BuildingBlock: UVAHIK_clean_linker_0, # of connection points: 2
#     Edge 149, Type (0, 1), BuildingBlock: UVAHIK_clean_linker_0, # of connection points: 2
#     Edge 150, Type (0, 1), BuildingBlock: UVAHIK_clean_linker_0, # of connection points: 2
#     Edge 151, Type (0, 1), BuildingBlock: UVAHIK_clean_linker_0, # of connection points: 2
# Relax obj value: 0.001
# Max RMSD: 0.115
# Mean RMSD: 0.046
data_MOF--net-tbo--node1-ESEHIV_clean_sbu_0--node2-MIDCAF_clean_linker_0--edge1-UVAHIK_clean_linker_0
_symmetry_space_group_name_H-M    P1
_symmetry_Int_Tables_number       1
_symmetry_cell_setting            triclinic
loop_
_symmetry_equiv_pos_as_xyz
'x, y, z'
_cell_length_a     112.42074
_cell_length_b     112.55236
_cell_length_c     112.47296
_cell_angle_alpha  89.940402
_cell_angle_beta   91.687141
_cell_angle_gamma 90.588955
loop_
_atom_site_label
_atom_site_type_symbol
_atom_site_fract_x
_atom_site_fract_y
_atom_site_fract_z
_atom_type_partial_charge
C0 C 0.13731 0.17943 0.19627 0.0
C1 C 0.13168 0.17211 0.2046 0.0
C2 C 0.13604 0.16057 0.20651 0.0
C3 C 0.14583 0.1565 0.20036 0.0
H4 H 0.16667 0.12657 0.19411 0.0
H5 H 0.17571 0.10812 0.20059 0.0
H6 H 0.20968 0.12041 0.188 0.0
H7 H 0.20036 0.1387 0.1809 0.0
H8 H 0.19753 0.1599 0.15971 0.0
H9 H 0.20479 0.17129 0.14293 0.0
H10 H 0.17245 0.19176 0.14207 0.0
H11 H 0.1654 0.18069 0.15905 0.0
H12 H 0.1512 0.18129 0.1838 0.0
H13 H 0.13432 0.18842 0.19469 0.0
H14 H 0.13182 0.1546 0.2127 0.0
H15 H 0.14892 0.14757 0.20209 0.0
N16 N 0.16735 0.14927 0.18893 0.0
N17 N 0.18165 0.15207 0.17437 0.0
N18 N 0.16654 0.16606 0.17664 0.0
C19 C 0.17717 0.14545 0.18336 0.0
C20 C 0.17631 0.16236 0.1709 0.0
C21 C 0.16203 0.15961 0.1857 0.0
C22 C 0.18281 0.13414 0.18706 0.0
C23 C 0.17607 0.12534 0.1927 0.0
C24 C 0.18131 0.11476 0.19651 0.0
C25 C 0.19352 0.11276 0.19503 0.0
C26 C 0.20025 0.12153 0.18922 0.0
C27 C 0.19492 0.13206 0.18519 0.0
C28 C 0.18088 0.16936 0.16077 0.0
C29 C 0.19198 0.16685 0.15597 0.0
C30 C 0.19612 0.17335 0.14628 0.0
C31 C 0.18922 0.18246 0.1411 0.0
C32 C 0.17812 0.18496 0.14594 0.0
C33 C 0.17404 0.17854 0.15567 0.0
C34 C 0.15148 0.16385 0.19207 0.0
C35 C 0.14705 0.17534 0.19006 0.0
C36 C 0.83333 0.14535 0.18735 0.0
C37 C 0.82206 0.14219 0.18247 0.0
C38 C 0.81689 0.14957 0.17368 0.0
C39 C 0.82285 0.15975 0.16981 0.0
H40 H 0.82123 0.18462 0.14375 0.0
H41 H 0.8133 0.19497 0.12632 0.0
H42 H 0.84337 0.21918 0.12778 0.0
H43 H 0.85123 0.20899 0.1454 0.0
H44 H 0.8705 0.20658 0.16609 0.0
H45 H 0.88876 0.21356 0.17611 0.0
H46 H 0.88561 0.18554 0.20213 0.0
H47 H 0.86752 0.17839 0.19201 0.0
H48 H 0.84796 0.15769 0.18742 0.0
H49 H 0.83766 0.13981 0.19402 0.0
H50 H 0.80815 0.14756 0.16987 0.0
H51 H 0.81854 0.16519 0.16304 0.0
N52 N 0.83609 0.17972 0.16075 0.0
N53 N 0.8519 0.1934 0.16234 0.0
N54 N 0.85062 0.17767 0.17597 0.0
C55 C 0.84174 0.18955 0.15665 0.0
C56 C 0.8564 0.18753 0.17202 0.0
C57 C 0.84044 0.1737 0.17039 0.0
C58 C 0.8369 0.19594 0.14602 0.0
C59 C 0.82618 0.19215 0.14039 0.0
C60 C 0.82165 0.19805 0.13033 0.0
C61 C 0.82771 0.20788 0.1256 0.0
C62 C 0.8384 0.21172 0.13126 0.0
C63 C 0.84294 0.20582 0.14134 0.0
C64 C 0.8675 0.19187 0.17819 0.0
C65 C 0.87368 0.20188 0.17394 0.0
C66 C 0.88414 0.20594 0.17973 0.0
C67 C 0.88869 0.20011 0.18992 0.0
C68 C 0.88248 0.19015 0.1942 0.0
C69 C 0.87203 0.18608 0.18841 0.0
C70 C 0.83412 0.1629 0.17465 0.0
C71 C 0.83927 0.15559 0.18351 0.0
C72 C 0.82926 0.83244 0.13648 0.0
C73 C 0.81978 0.83777 0.13012 0.0
C74 C 0.81477 0.84814 0.13476 0.0
C75 C 0.81925 0.85313 0.1454 0.0
H76 H 0.81232 0.87828 0.17335 0.0
H77 H 0.80434 0.89617 0.18247 0.0
H78 H 0.83797 0.9022 0.20111 0.0
H79 H 0.84593 0.88443 0.19212 0.0
H80 H 0.86364 0.86335 0.19521 0.0
H81 H 0.88087 0.85445 0.2051 0.0
H82 H 0.87481 0.82218 0.18493 0.0
H83 H 0.85778 0.83123 0.17472 0.0
H84 H 0.84114 0.8331 0.15163 0.0
H85 H 0.83343 0.82455 0.13312 0.0
H86 H 0.80736 0.85239 0.13018 0.0
H87 H 0.81523 0.86116 0.14864 0.0
N88 N 0.82949 0.8636 0.16716 0.0
N89 N 0.84423 0.8637 0.18238 0.0
N90 N 0.84367 0.84842 0.16827 0.0
C91 C 0.83458 0.86879 0.17702 0.0
C92 C 0.84881 0.8535 0.17811 0.0
C93 C 0.83404 0.8534 0.16269 0.0
C94 C 0.82975 0.87989 0.18202 0.0
C95 C 0.81803 0.88347 0.17934 0.0
C96 C 0.81343 0.89366 0.1846 0.0
C97 C 0.82054 0.90057 0.1925 0.0
C98 C 0.83231 0.89711 0.19499 0.0
C99 C 0.83684 0.88687 0.18988 0.0
C100 C 0.8593 0.84802 0.18415 0.0
C101 C 0.86596 0.85435 0.19287 0.0
C102 C 0.87583 0.84921 0.19861 0.0
C103 C 0.87924 0.83757 0.19587 0.0
C104 C 0.87256 0.83123 0.18715 0.0
C105 C 0.86275 0.8364 0.18133 0.0
C106 C 0.82886 0.84789 0.15166 0.0
C107 C 0.83373 0.83742 0.1471 0.0
C108 C 0.11857 0.82145 0.17376 0.0
C109 C 0.11677 0.80936 0.17112 0.0
C110 C 0.12569 0.80318 0.1653 0.0
C111 C 0.13624 0.809 0.16218 0.0
H112 H 0.16233 0.81072 0.13536 0.0
H113 H 0.17411 0.80486 0.11854 0.0
H114 H 0.19988 0.83243 0.12733 0.0
H115 H 0.18805 0.83846 0.144 0.0
H116 H 0.18517 0.85401 0.167 0.0
H117 H 0.19185 0.87042 0.17968 0.0
H118 H 0.15767 0.87059 0.19626 0.0
H119 H 0.15109 0.85398 0.18383 0.0
H120 H 0.13033 0.83648 0.17319 0.0
H121 H 0.11189 0.82641 0.17835 0.0
H122 H 0.1245 0.79385 0.16316 0.0
H123 H 0.143 0.804 0.15776 0.0
N124 N 0.15641 0.82332 0.15349 0.0
N125 N 0.17036 0.83847 0.1579 0.0
N126 N 0.15316 0.83668 0.16905 0.0
C127 C 0.16683 0.829 0.15111 0.0
C128 C 0.1636 0.84236 0.1669 0.0
C129 C 0.14952 0.82714 0.16244 0.0
C130 C 0.17418 0.8251 0.14107 0.0
C131 C 0.17051 0.81554 0.13374 0.0
C132 C 0.17731 0.81212 0.12411 0.0
C133 C 0.18793 0.81819 0.12154 0.0
C134 C 0.19165 0.82767 0.12893 0.0
C135 C 0.18488 0.83108 0.13856 0.0
C136 C 0.16759 0.85261 0.17439 0.0
C137 C 0.17906 0.85754 0.17333 0.0
C138 C 0.18288 0.86702 0.18057 0.0
C139 C 0.17532 0.87185 0.18903 0.0
C140 C 0.16381 0.86698 0.19 0.0
C141 C 0.16001 0.85748 0.1828 0.0
C142 C 0.13815 0.82104 0.16508 0.0
C143 C 0.12918 0.82719 0.17087 0.0
C144 C 0.13327 0.81955 0.82408 0.0
C145 C 0.12936 0.8253 0.81359 0.0
C146 C 0.13662 0.83421 0.80876 0.0
C147 C 0.14749 0.83737 0.81436 0.0
H148 H 0.17131 0.86781 0.82242 0.0
H149 H 0.1826 0.8857 0.8171 0.0
H150 H 0.21521 0.86877 0.82861 0.0
H151 H 0.20396 0.85101 0.83424 0.0
H152 H 0.19807 0.8351 0.85931 0.0
H153 H 0.20505 0.82418 0.87677 0.0
H154 H 0.17504 0.80009 0.873 0.0
H155 H 0.16805 0.81094 0.85538 0.0
H156 H 0.14683 0.81798 0.83768 0.0
H157 H 0.12796 0.81254 0.82795 0.0
H158 H 0.13382 0.83885 0.80073 0.0
H159 H 0.15284 0.84431 0.81041 0.0
N160 N 0.1693 0.84451 0.82719 0.0
N161 N 0.18416 0.84061 0.84172 0.0
N162 N 0.16734 0.8282 0.84005 0.0
C163 C 0.17992 0.8474 0.83258 0.0
C164 C 0.17792 0.83102 0.84556 0.0
C165 C 0.16298 0.83486 0.83083 0.0
C166 C 0.18674 0.85801 0.82877 0.0
C167 C 0.18089 0.86788 0.82376 0.0
C168 C 0.18732 0.87813 0.82077 0.0
C169 C 0.19975 0.87857 0.82246 0.0
C170 C 0.20564 0.86861 0.82719 0.0
C171 C 0.19919 0.85848 0.83044 0.0
C172 C 0.18243 0.82397 0.85592 0.0
C173 C 0.19294 0.82745 0.86212 0.0
C174 C 0.19693 0.82122 0.8722 0.0
C175 C 0.19055 0.81132 0.87634 0.0
C176 C 0.1802 0.80764 0.87 0.0
C177 C 0.17617 0.81391 0.85992 0.0
C178 C 0.15141 0.83161 0.82487 0.0
C179 C 0.14415 0.82264 0.82962 0.0
C180 C 0.15345 0.19909 0.84835 0.0
C181 C 0.14846 0.19744 0.83685 0.0
C182 C 0.15341 0.18879 0.82948 0.0
C183 C 0.1631 0.18202 0.83352 0.0
H184 H 0.1823 0.15207 0.82601 0.0
H185 H 0.18783 0.13417 0.81547 0.0
H186 H 0.21446 0.12672 0.84284 0.0
H187 H 0.20886 0.14454 0.85351 0.0
H188 H 0.21315 0.16313 0.87518 0.0
H189 H 0.22434 0.17048 0.89274 0.0
H190 H 0.20173 0.20122 0.89361 0.0
H191 H 0.19069 0.19407 0.87619 0.0
H192 H 0.16674 0.19396 0.86126 0.0
H193 H 0.14975 0.20548 0.85437 0.0
H194 H 0.14993 0.18737 0.82052 0.0
H195 H 0.16672 0.1755 0.82758 0.0
N196 N 0.18201 0.167 0.84328 0.0
N197 N 0.19762 0.16408 0.8573 0.0
N198 N 0.18473 0.18016 0.85926 0.0
C199 C 0.19151 0.16056 0.84724 0.0
C200 C 0.19428 0.17391 0.86335 0.0
C201 C 0.17854 0.17679 0.84926 0.0
C202 C 0.19509 0.14978 0.84067 0.0
C203 C 0.18934 0.14665 0.82981 0.0
C204 C 0.19256 0.1364 0.8237 0.0
C205 C 0.20156 0.129 0.82832 0.0
C206 C 0.20738 0.13216 0.83912 0.0
C207 C 0.2042 0.14243 0.84521 0.0
C208 C 0.20103 0.17802 0.87418 0.0
C209 C 0.21057 0.17146 0.87912 0.0
C210 C 0.21696 0.17563 0.88921 0.0
C211 C 0.214 0.18649 0.89449 0.0
C212 C 0.20438 0.19293 0.88963 0.0
C213 C 0.19799 0.18876 0.87965 0.0
C214 C 0.16814 0.18379 0.84498 0.0
C215 C 0.16318 0.19241 0.85234 0.0
C216 C 0.84837 0.14045 0.81287 0.0
C217 C 0.83921 0.13532 0.81948 0.0
C218 C 0.83615 0.1407 0.83021 0.0
C219 C 0.84203 0.15097 0.83422 0.0
H220 H 0.84565 0.17345 0.86368 0.0
H221 H 0.83744 0.18356 0.88079 0.0
H222 H 0.85073 0.21711 0.86786 0.0
H223 H 0.8592 0.20701 0.85084 0.0
H224 H 0.88587 0.20088 0.83771 0.0
H225 H 0.90307 0.20938 0.82832 0.0
H226 H 0.89871 0.18443 0.79931 0.0
H227 H 0.88153 0.17559 0.80897 0.0
H228 H 0.86129 0.1545 0.81158 0.0
H229 H 0.851 0.13646 0.8046 0.0
H230 H 0.82901 0.1371 0.83544 0.0
H231 H 0.83931 0.15486 0.8425 0.0
N232 N 0.85288 0.17299 0.84153 0.0
N233 N 0.86728 0.18799 0.83968 0.0
N234 N 0.8665 0.1721 0.82614 0.0
C235 C 0.85789 0.18332 0.84547 0.0
C236 C 0.87171 0.18242 0.83006 0.0
C237 C 0.85705 0.16734 0.83185 0.0
C238 C 0.85308 0.18944 0.85591 0.0
C239 C 0.84685 0.18298 0.86449 0.0
C240 C 0.8422 0.18874 0.8743 0.0
C241 C 0.84345 0.20109 0.8756 0.0
C242 C 0.84961 0.20758 0.86701 0.0
C243 C 0.8545 0.20179 0.85732 0.0
C244 C 0.88221 0.18756 0.82409 0.0
C245 C 0.88849 0.19718 0.82931 0.0
C246 C 0.89837 0.20213 0.82387 0.0
C247 C 0.90223 0.19771 0.81296 0.0
C248 C 0.89604 0.18802 0.80774 0.0
C249 C 0.88614 0.18298 0.81326 0.0
C250 C 0.85115 0.15619 0.82761 0.0
C251 C 0.85431 0.15075 0.81691 0.0
C252 C 0.81387 0.85077 0.86459 0.0
C253 C 0.81718 0.84079 0.87141 0.0
C254 C 0.82684 0.83398 0.86778 0.0
C255 C 0.83302 0.83704 0.85758 0.0
H256 H 0.86191 0.82778 0.83821 0.0
H257 H 0.87852 0.81577 0.83197 0.0
H258 H 0.88039 0.83617 0.79954 0.0
H259 H 0.86371 0.84813 0.80565 0.0
H260 H 0.84685 0.87026 0.80164 0.0
H261 H 0.84136 0.88816 0.79058 0.0
H262 H 0.81739 0.89776 0.8182 0.0
H263 H 0.82288 0.87999 0.82931 0.0
H264 H 0.81717 0.86155 0.84935 0.0
H265 H 0.80638 0.85613 0.86702 0.0
H266 H 0.82974 0.82633 0.87291 0.0
H267 H 0.84042 0.83158 0.8551 0.0
N268 N 0.84539 0.84349 0.83624 0.0
N269 N 0.84798 0.85606 0.81984 0.0
N270 N 0.833 0.85993 0.83335 0.0
C271 C 0.85133 0.84633 0.82625 0.0
C272 C 0.83883 0.86292 0.82334 0.0
C273 C 0.83619 0.85022 0.83985 0.0
C274 C 0.86143 0.83896 0.82244 0.0
C275 C 0.86582 0.82972 0.82973 0.0
C276 C 0.8754 0.82286 0.82619 0.0
C277 C 0.88078 0.82501 0.81526 0.0
C278 C 0.87636 0.8342 0.80795 0.0
C279 C 0.86683 0.84111 0.81151 0.0
C280 C 0.83535 0.87366 0.81642 0.0
C281 C 0.8404 0.87617 0.80537 0.0
C282 C 0.83722 0.8864 0.79899 0.0
C283 C 0.82899 0.89441 0.80354 0.0
C284 C 0.82388 0.89185 0.81452 0.0
C285 C 0.82699 0.88161 0.82086 0.0
C286 C 0.82969 0.847 0.85074 0.0
C287 C 0.82004 0.85383 0.85439 0.0
C288 C 0.14418 0.70278 0.67546 0.0
C289 C 0.1418 0.70131 0.68759 0.0
C290 C 0.14953 0.69439 0.69468 0.0
C291 C 0.15923 0.6888 0.68974 0.0
H292 H 0.17814 0.65928 0.69549 0.0
H293 H 0.18479 0.64166 0.70605 0.0
H294 H 0.20676 0.63245 0.67663 0.0
H295 H 0.2003 0.65033 0.66608 0.0
H296 H 0.20022 0.66765 0.6434 0.0
H297 H 0.20986 0.6741 0.62534 0.0
H298 H 0.19249 0.70803 0.62742 0.0
H299 H 0.18283 0.70164 0.64554 0.0
H300 H 0.15555 0.69844 0.66112 0.0
H301 H 0.13839 0.70813 0.6698 0.0
H302 H 0.14787 0.69298 0.70402 0.0
H303 H 0.16487 0.68336 0.69546 0.0
N304 N 0.17557 0.67356 0.67804 0.0
N305 N 0.18917 0.67045 0.66304 0.0
N306 N 0.17623 0.68673 0.66191 0.0
C307 C 0.1844 0.66702 0.67348 0.0
C308 C 0.18519 0.68032 0.65722 0.0
C309 C 0.1714 0.68337 0.67236 0.0
C310 C 0.18865 0.65626 0.67988 0.0
C311 C 0.18439 0.65354 0.69122 0.0
C312 C 0.18815 0.64336 0.69727 0.0
C313 C 0.19625 0.63557 0.69217 0.0
C314 C 0.2006 0.63831 0.68087 0.0
C315 C 0.19685 0.64855 0.6748 0.0
C316 C 0.19074 0.68413 0.64598 0.0
C317 C 0.19841 0.67649 0.64003 0.0
C318 C 0.2039 0.68015 0.62962 0.0
C319 C 0.20196 0.69158 0.62497 0.0
C320 C 0.19426 0.69921 0.63086 0.0
C321 C 0.18866 0.69551 0.64121 0.0
C322 C 0.16154 0.69008 0.67758 0.0
C323 C 0.15403 0.6973 0.67052 0.0
C324 C 0.8378 0.65091 0.6766 0.0
C325 C 0.82694 0.64627 0.672 0.0
C326 C 0.82127 0.65214 0.66241 0.0
C327 C 0.82635 0.66229 0.65745 0.0
H328 H 0.82118 0.68467 0.63026 0.0
H329 H 0.81105 0.69315 0.61291 0.0
H330 H 0.83853 0.72012 0.61081 0.0
H331 H 0.84859 0.7118 0.62836 0.0
H332 H 0.86851 0.71326 0.64893 0.0
H333 H 0.88675 0.72227 0.65713 0.0
H334 H 0.88957 0.69409 0.68311 0.0
H335 H 0.87144 0.68495 0.67484 0.0
H336 H 0.8513 0.66441 0.67534 0.0
H337 H 0.84245 0.64655 0.68393 0.0
H338 H 0.81278 0.64898 0.65879 0.0
H339 H 0.82164 0.66651 0.65007 0.0
N340 N 0.8372 0.68259 0.64671 0.0
N341 N 0.85189 0.69747 0.64625 0.0
N342 N 0.85266 0.68281 0.66114 0.0
C343 C 0.84178 0.69243 0.6415 0.0
C344 C 0.8574 0.69273 0.65607 0.0
C345 C 0.84254 0.6777 0.6565 0.0
C346 C 0.83572 0.69756 0.63078 0.0
C347 C 0.82511 0.69241 0.62613 0.0
C348 C 0.81931 0.69723 0.61611 0.0
C349 C 0.82396 0.70732 0.61046 0.0
C350 C 0.83461 0.71243 0.61505 0.0
C351 C 0.84042 0.70762 0.62509 0.0
C352 C 0.86846 0.69832 0.66118 0.0
C353 C 0.873 0.70895 0.65639 0.0
C354 C 0.88344 0.71418 0.66115 0.0
C355 C 0.88965 0.70891 0.67077 0.0
C356 C 0.8851 0.69831 0.6756 0.0
C357 C 0.87464 0.6931 0.67088 0.0
C358 C 0.83724 0.66692 0.66196 0.0
C359 C 0.8429 0.66112 0.67164 0.0
C360 C 0.84549 0.33694 0.64805 0.0
C361 C 0.83372 0.33847 0.64379 0.0
C362 C 0.82648 0.34659 0.64968 0.0
C363 C 0.83086 0.35284 0.6597 0.0
H364 H 0.82729 0.38517 0.68026 0.0
H365 H 0.81774 0.40235 0.68913 0.0
H366 H 0.84034 0.39869 0.7206 0.0
H367 H 0.84977 0.3816 0.7119 0.0
H368 H 0.87316 0.36749 0.71056 0.0
H369 H 0.89133 0.36041 0.72034 0.0
H370 H 0.8942 0.33323 0.69352 0.0
H371 H 0.8759 0.34016 0.68379 0.0
H372 H 0.85892 0.34159 0.66107 0.0
H373 H 0.85143 0.33101 0.64361 0.0
H374 H 0.81734 0.34793 0.64673 0.0
H375 H 0.825 0.35888 0.66412 0.0
N376 N 0.84126 0.36643 0.67984 0.0
N377 N 0.85583 0.36783 0.69518 0.0
N378 N 0.85745 0.35338 0.68042 0.0
C379 C 0.84557 0.37181 0.68996 0.0
C380 C 0.86183 0.35865 0.6905 0.0
C381 C 0.84718 0.35717 0.67503 0.0
C382 C 0.83934 0.38199 0.69533 0.0
C383 C 0.83017 0.38799 0.6891 0.0
C384 C 0.82474 0.39787 0.69415 0.0
C385 C 0.82828 0.40187 0.70558 0.0
C386 C 0.83731 0.39576 0.71185 0.0
C387 C 0.84278 0.38599 0.70679 0.0
C388 C 0.87301 0.3544 0.69637 0.0
C389 C 0.87764 0.36 0.70671 0.0
C390 C 0.88811 0.35599 0.7123 0.0
C391 C 0.89422 0.34626 0.70771 0.0
C392 C 0.88963 0.34066 0.69737 0.0
C393 C 0.87916 0.34469 0.69175 0.0
C394 C 0.84255 0.35107 0.66409 0.0
C395 C 0.84982 0.3431 0.65807 0.0
C396 C 0.14766 0.34021 0.70142 0.0
C397 C 0.14171 0.33062 0.69575 0.0
C398 C 0.146 0.3265 0.68489 0.0
C399 C 0.15586 0.33194 0.67977 0.0
H400 H 0.17937 0.32845 0.65208 0.0
H401 H 0.18816 0.32068 0.6341 0.0
H402 H 0.21264 0.35051 0.63383 0.0
H403 H 0.20381 0.35837 0.65153 0.0
H404 H 0.2004 0.3795 0.66837 0.0
H405 H 0.20958 0.39743 0.67662 0.0
H406 H 0.19273 0.39085 0.71002 0.0
H407 H 0.18347 0.37275 0.70177 0.0
H408 H 0.16177 0.35306 0.70092 0.0
H409 H 0.14477 0.34348 0.7099 0.0
H410 H 0.14158 0.31922 0.68021 0.0
H411 H 0.1588 0.32861 0.67133 0.0
N412 N 0.17649 0.34328 0.66959 0.0
N413 N 0.19031 0.35897 0.66921 0.0
N414 N 0.17674 0.35783 0.68459 0.0
C415 C 0.18571 0.34886 0.66429 0.0
C416 C 0.18593 0.36353 0.67932 0.0
C417 C 0.17193 0.34771 0.67974 0.0
C418 C 0.19085 0.34406 0.65329 0.0
C419 C 0.18659 0.33338 0.64816 0.0
C420 C 0.19167 0.32889 0.63788 0.0
C421 C 0.20107 0.335 0.6325 0.0
C422 C 0.20528 0.34567 0.63762 0.0
C423 C 0.20024 0.35014 0.64786 0.0
C424 C 0.19119 0.37463 0.68441 0.0
C425 C 0.1986 0.38183 0.67747 0.0
C426 C 0.20382 0.39218 0.68217 0.0
C427 C 0.20186 0.39556 0.69396 0.0
C428 C 0.19446 0.38841 0.70093 0.0
C429 C 0.1891 0.37809 0.69617 0.0
C430 C 0.16168 0.34167 0.68535 0.0
C431 C 0.15749 0.34567 0.69629 0.0
C432 C 0.13113 0.32011 0.33775 0.0
C433 C 0.1288 0.32272 0.3257 0.0
C434 C 0.13737 0.32907 0.31935 0.0
C435 C 0.148 0.33289 0.32502 0.0
H436 H 0.17556 0.35897 0.32318 0.0
H437 H 0.18682 0.37614 0.31623 0.0
H438 H 0.20634 0.37753 0.34989 0.0
H439 H 0.19544 0.36023 0.35666 0.0
H440 H 0.19291 0.34031 0.37497 0.0
H441 H 0.20007 0.33075 0.39313 0.0
H442 H 0.17499 0.30191 0.38723 0.0
H443 H 0.16777 0.31147 0.36887 0.0
H444 H 0.14331 0.32155 0.35266 0.0
H445 H 0.12473 0.31513 0.34282 0.0
H446 H 0.13578 0.33121 0.31005 0.0
H447 H 0.15441 0.33784 0.31993 0.0
N448 N 0.16785 0.34366 0.33894 0.0
N449 N 0.18155 0.34209 0.35497 0.0
N450 N 0.16543 0.32879 0.35339 0.0
C451 C 0.17786 0.34766 0.34482 0.0
C452 C 0.17546 0.33262 0.35929 0.0
C453 C 0.16156 0.33426 0.34321 0.0
C454 C 0.1846 0.35815 0.34047 0.0
C455 C 0.18227 0.36293 0.32909 0.0
C456 C 0.1887 0.37283 0.32512 0.0
C457 C 0.19755 0.37825 0.33247 0.0
C458 C 0.19979 0.37349 0.34387 0.0
C459 C 0.19345 0.36356 0.34779 0.0
C460 C 0.17972 0.32669 0.37042 0.0
C461 C 0.18888 0.33193 0.37748 0.0
C462 C 0.19295 0.32649 0.38796 0.0
C463 C 0.18804 0.31561 0.39166 0.0
C464 C 0.17897 0.31026 0.38458 0.0
C465 C 0.1748 0.31578 0.3741 0.0
C466 C 0.15036 0.33022 0.33708 0.0
C467 C 0.14182 0.32372 0.34335 0.0
C468 C 0.13507 0.68171 0.33209 0.0
C469 C 0.13161 0.68012 0.32009 0.0
C470 C 0.13784 0.67194 0.31323 0.0
C471 C 0.14757 0.66579 0.31819 0.0
H472 H 0.16948 0.6367 0.31401 0.0
H473 H 0.17855 0.62032 0.30367 0.0
H474 H 0.20748 0.62012 0.32978 0.0
H475 H 0.19852 0.63668 0.34011 0.0
H476 H 0.20023 0.66093 0.35919 0.0
H477 H 0.20851 0.67167 0.37655 0.0
H478 H 0.17335 0.68406 0.38439 0.0
H479 H 0.16522 0.6737 0.36708 0.0
H480 H 0.14723 0.67724 0.34626 0.0
H481 H 0.13029 0.68771 0.33772 0.0
H482 H 0.13544 0.67055 0.30394 0.0
H483 H 0.15236 0.65977 0.3126 0.0
N484 N 0.16748 0.65302 0.32957 0.0
N485 N 0.18245 0.65246 0.34464 0.0
N486 N 0.16691 0.66612 0.34564 0.0
C487 C 0.17763 0.64811 0.33422 0.0
C488 C 0.17705 0.66146 0.35042 0.0
C489 C 0.16208 0.66203 0.33524 0.0
C490 C 0.18325 0.63808 0.32793 0.0
C491 C 0.17779 0.63321 0.31759 0.0
C492 C 0.18294 0.62373 0.31167 0.0
C493 C 0.19373 0.61887 0.31589 0.0
C494 C 0.19923 0.62373 0.32621 0.0
C495 C 0.19404 0.6332 0.33218 0.0
C496 C 0.1821 0.6666 0.36164 0.0
C497 C 0.19428 0.66586 0.36471 0.0
C498 C 0.19902 0.672 0.37467 0.0
C499 C 0.19163 0.67893 0.38174 0.0
C500 C 0.17937 0.67912 0.37896 0.0
C501 C 0.17469 0.6731 0.36904 0.0
C502 C 0.15126 0.66773 0.33009 0.0
C503 C 0.14477 0.67563 0.33701 0.0
C504 C 0.8286 0.63421 0.31128 0.0
C505 C 0.81903 0.62979 0.31781 0.0
C506 C 0.81633 0.63538 0.32855 0.0
C507 C 0.82293 0.64528 0.33258 0.0
H508 H 0.8224 0.67287 0.357 0.0
H509 H 0.81601 0.68466 0.37379 0.0
H510 H 0.84686 0.70749 0.37056 0.0
H511 H 0.85338 0.69566 0.35396 0.0
H512 H 0.87169 0.69094 0.3349 0.0
H513 H 0.88945 0.69738 0.32488 0.0
H514 H 0.88237 0.67157 0.29713 0.0
H515 H 0.86438 0.6651 0.30713 0.0
H516 H 0.84251 0.64719 0.31003 0.0
H517 H 0.83102 0.63001 0.30305 0.0
H518 H 0.80896 0.63224 0.33374 0.0
H519 H 0.82053 0.64941 0.34085 0.0
N520 N 0.83596 0.6666 0.33981 0.0
N521 N 0.85212 0.67969 0.33777 0.0
N522 N 0.8493 0.66391 0.32437 0.0
C523 C 0.84227 0.67631 0.34366 0.0
C524 C 0.85572 0.67357 0.32813 0.0
C525 C 0.83942 0.66034 0.33018 0.0
C526 C 0.83841 0.68329 0.35406 0.0
C527 C 0.82786 0.68037 0.35988 0.0
C528 C 0.82415 0.68717 0.36948 0.0
C529 C 0.83092 0.69703 0.37353 0.0
C530 C 0.84152 0.69987 0.36779 0.0
C531 C 0.84521 0.6931 0.35819 0.0
C532 C 0.86656 0.67746 0.32187 0.0
C533 C 0.87385 0.6866 0.32667 0.0
C534 C 0.88411 0.69026 0.32095 0.0
C535 C 0.88738 0.68493 0.31025 0.0
C536 C 0.88005 0.67589 0.30533 0.0
C537 C 0.86978 0.67215 0.31111 0.0
C538 C 0.83245 0.64976 0.326 0.0
C539 C 0.83523 0.64405 0.31533 0.0
C540 C 0.81697 0.34091 0.38748 0.0
C541 C 0.82054 0.33093 0.39415 0.0
C542 C 0.83069 0.32473 0.39072 0.0
C543 C 0.83691 0.32822 0.38071 0.0
H544 H 0.86644 0.3202 0.36164 0.0
H545 H 0.88325 0.30852 0.35544 0.0
H546 H 0.88137 0.32532 0.32087 0.0
H547 H 0.86481 0.33729 0.3272 0.0
H548 H 0.84424 0.35689 0.32197 0.0
H549 H 0.83809 0.37399 0.30997 0.0
H550 H 0.82371 0.3904 0.34101 0.0
H551 H 0.82966 0.37321 0.35304 0.0
H552 H 0.82006 0.35202 0.37238 0.0
H553 H 0.80915 0.34584 0.38983 0.0
H554 H 0.83383 0.31713 0.39578 0.0
H555 H 0.84459 0.32311 0.37831 0.0
N556 N 0.84863 0.33454 0.35911 0.0
N557 N 0.85042 0.34649 0.34217 0.0
N558 N 0.8359 0.35072 0.3561 0.0
C559 C 0.85418 0.33709 0.34883 0.0
C560 C 0.84133 0.35338 0.34577 0.0
C561 C 0.83945 0.34126 0.3628 0.0
C562 C 0.86426 0.32974 0.34494 0.0
C563 C 0.86959 0.32141 0.3527 0.0
C564 C 0.87921 0.31464 0.34912 0.0
C565 C 0.88372 0.31595 0.33764 0.0
C566 C 0.8783 0.3242 0.32985 0.0
C567 C 0.86874 0.33103 0.33346 0.0
C568 C 0.83745 0.36369 0.33847 0.0
C569 C 0.83975 0.36412 0.32625 0.0
C570 C 0.83618 0.37388 0.31936 0.0
C571 C 0.83044 0.3835 0.32458 0.0
C572 C 0.82817 0.38311 0.33679 0.0
C573 C 0.83153 0.37325 0.34365 0.0
C574 C 0.83318 0.33802 0.37383 0.0
C575 C 0.8232 0.34441 0.37743 0.0
C576 C 0.63778 0.19406 0.68078 0.0
C577 C 0.63671 0.19103 0.69282 0.0
C578 C 0.64574 0.18441 0.6985 0.0
C579 C 0.65558 0.18071 0.6922 0.0
H580 H 0.67335 0.14805 0.68463 0.0
H581 H 0.68288 0.12995 0.69131 0.0
H582 H 0.71498 0.14039 0.67362 0.0
H583 H 0.70515 0.15842 0.66643 0.0
H584 H 0.69977 0.17751 0.6442 0.0
H585 H 0.70659 0.18864 0.6271 0.0
H586 H 0.67783 0.21338 0.63085 0.0
H587 H 0.67109 0.20239 0.6481 0.0
H588 H 0.64836 0.19304 0.66525 0.0
H589 H 0.63093 0.1992 0.67623 0.0
H590 H 0.64509 0.18192 0.70776 0.0
H591 H 0.66235 0.17553 0.69681 0.0
N592 N 0.67293 0.16974 0.67706 0.0
N593 N 0.68639 0.17216 0.66169 0.0
N594 N 0.67098 0.18585 0.66396 0.0
C595 C 0.68252 0.16586 0.67118 0.0
C596 C 0.68064 0.18218 0.65801 0.0
C597 C 0.66712 0.17971 0.67354 0.0
C598 C 0.68851 0.15476 0.67506 0.0
C599 C 0.68245 0.14653 0.68215 0.0
C600 C 0.68797 0.13614 0.68606 0.0
C601 C 0.69981 0.13372 0.68319 0.0
C602 C 0.70584 0.14188 0.67595 0.0
C603 C 0.70022 0.15225 0.67187 0.0
C604 C 0.68484 0.189 0.64757 0.0
C605 C 0.69487 0.18532 0.64141 0.0
C606 C 0.69876 0.19168 0.63154 0.0
C607 C 0.69273 0.20189 0.62756 0.0
C608 C 0.68276 0.20563 0.63375 0.0
C609 C 0.67885 0.19927 0.64362 0.0
C610 C 0.65671 0.18378 0.68016 0.0
C611 C 0.64776 0.19058 0.67453 0.0
C612 C 0.34291 0.14473 0.70197 0.0
C613 C 0.33289 0.13806 0.69812 0.0
C614 C 0.3273 0.14096 0.68715 0.0
C615 C 0.33164 0.1503 0.68021 0.0
H616 H 0.32236 0.17553 0.65225 0.0
H617 H 0.3126 0.18263 0.63394 0.0
H618 H 0.34635 0.19637 0.6222 0.0
H619 H 0.35588 0.18983 0.64065 0.0
H620 H 0.37331 0.19968 0.66275 0.0
H621 H 0.39047 0.21101 0.67048 0.0
H622 H 0.39091 0.18967 0.70241 0.0
H623 H 0.37372 0.17847 0.69485 0.0
H624 H 0.35505 0.15888 0.69833 0.0
H625 H 0.34754 0.14264 0.71028 0.0
H626 H 0.31949 0.13608 0.68398 0.0
H627 H 0.32712 0.15227 0.67182 0.0
N628 N 0.34113 0.16986 0.66617 0.0
N629 N 0.35582 0.1845 0.66328 0.0
N630 N 0.35657 0.17268 0.68041 0.0
C631 C 0.34575 0.17872 0.6594 0.0
C632 C 0.36126 0.18157 0.6738 0.0
C633 C 0.34655 0.16674 0.67668 0.0
C634 C 0.33987 0.18223 0.64797 0.0
C635 C 0.32768 0.18005 0.64572 0.0
C636 C 0.32209 0.18407 0.63518 0.0
C637 C 0.32862 0.19024 0.62658 0.0
C638 C 0.34091 0.192 0.62871 0.0
C639 C 0.34643 0.18816 0.6393 0.0
C640 C 0.37204 0.18818 0.67819 0.0
C641 C 0.37707 0.19737 0.67141 0.0
C642 C 0.38696 0.20384 0.6758 0.0
C643 C 0.39201 0.2013 0.68709 0.0
C644 C 0.38711 0.19199 0.69377 0.0
C645 C 0.37727 0.18551 0.68938 0.0
C646 C 0.34171 0.15694 0.68406 0.0
C647 C 0.34726 0.15403 0.69504 0.0
C648 C 0.32777 0.8306 0.63757 0.0
C649 C 0.31539 0.83176 0.63598 0.0
C650 C 0.30901 0.83777 0.64463 0.0
C651 C 0.31493 0.84279 0.65453 0.0
H652 H 0.31303 0.87338 0.67481 0.0
H653 H 0.30491 0.89158 0.68287 0.0
H654 H 0.33596 0.89549 0.70612 0.0
H655 H 0.34419 0.87742 0.69799 0.0
H656 H 0.36545 0.8599 0.69575 0.0
H657 H 0.38377 0.8522 0.70456 0.0
H658 H 0.37838 0.81938 0.68513 0.0
H659 H 0.36017 0.82726 0.67599 0.0
H660 H 0.34323 0.83446 0.64859 0.0
H661 H 0.33287 0.82596 0.63103 0.0
H662 H 0.29948 0.83884 0.64357 0.0
H663 H 0.30977 0.84754 0.66095 0.0
N664 N 0.3288 0.85733 0.67134 0.0
N665 N 0.34499 0.85873 0.68485 0.0
N666 N 0.34413 0.84334 0.67077 0.0
C667 C 0.33446 0.86302 0.68055 0.0
C668 C 0.34987 0.84888 0.68008 0.0
C669 C 0.33357 0.84753 0.66638 0.0
C670 C 0.32931 0.87391 0.6857 0.0
C671 C 0.31814 0.87809 0.68165 0.0
C672 C 0.31344 0.88851 0.68631 0.0
C673 C 0.31981 0.89502 0.6951 0.0
C674 C 0.33091 0.89078 0.69923 0.0
C675 C 0.33559 0.88036 0.69461 0.0
C676 C 0.36126 0.8442 0.68516 0.0
C677 C 0.36815 0.85104 0.69331 0.0
C678 C 0.37866 0.84658 0.69845 0.0
C679 C 0.38256 0.8351 0.69567 0.0
C680 C 0.37575 0.8283 0.6874 0.0
C681 C 0.36526 0.83281 0.68218 0.0
C682 C 0.32732 0.8417 0.65613 0.0
C683 C 0.33367 0.8354 0.64763 0.0
C684 C 0.63197 0.82936 0.68143 0.0
C685 C 0.62821 0.8189 0.67557 0.0
C686 C 0.63499 0.81463 0.6662 0.0
C687 C 0.64517 0.82081 0.66264 0.0
H688 H 0.67229 0.82114 0.63764 0.0
H689 H 0.68256 0.81608 0.61957 0.0
H690 H 0.70168 0.84957 0.62143 0.0
H691 H 0.69176 0.85443 0.63963 0.0
H692 H 0.69384 0.86682 0.6655 0.0
H693 H 0.70071 0.88396 0.67701 0.0
H694 H 0.66855 0.88261 0.69712 0.0
H695 H 0.66184 0.86522 0.68586 0.0
H696 H 0.64469 0.84354 0.68269 0.0
H697 H 0.62706 0.8328 0.6888 0.0
H698 H 0.63228 0.80662 0.66147 0.0
H699 H 0.65012 0.81734 0.65532 0.0
N700 N 0.66536 0.83499 0.65472 0.0
N701 N 0.67877 0.85091 0.65772 0.0
N702 N 0.66345 0.84772 0.67105 0.0
C703 C 0.67498 0.84137 0.65117 0.0
C704 C 0.67308 0.85413 0.66768 0.0
C705 C 0.65953 0.83813 0.66467 0.0
C706 C 0.68119 0.83819 0.64015 0.0
C707 C 0.6787 0.82741 0.63421 0.0
C708 C 0.68456 0.82454 0.62379 0.0
C709 C 0.69299 0.8324 0.619 0.0
C710 C 0.69543 0.84318 0.62494 0.0
C711 C 0.68965 0.84601 0.63539 0.0
C712 C 0.67727 0.86461 0.67472 0.0
C713 C 0.68822 0.87016 0.67237 0.0
C714 C 0.69214 0.88006 0.67895 0.0
C715 C 0.68518 0.88474 0.68799 0.0
C716 C 0.67424 0.87917 0.69035 0.0
C717 C 0.67035 0.86921 0.68383 0.0
C718 C 0.64886 0.83136 0.66846 0.0
C719 C 0.64215 0.83549 0.67795 0.0
C720 C 0.62144 0.82004 0.31927 0.0
C721 C 0.61567 0.82563 0.30954 0.0
C722 C 0.6206 0.83618 0.30505 0.0
C723 C 0.63103 0.84104 0.31018 0.0
H724 H 0.65228 0.87037 0.30935 0.0
H725 H 0.66042 0.8882 0.30046 0.0
H726 H 0.69333 0.88342 0.32064 0.0
H727 H 0.68501 0.86566 0.32988 0.0
H728 H 0.68434 0.84649 0.35175 0.0
H729 H 0.69392 0.83661 0.36872 0.0
H730 H 0.66618 0.80977 0.368 0.0
H731 H 0.65647 0.81971 0.3512 0.0
H732 H 0.63607 0.8203 0.33185 0.0
H733 H 0.61797 0.81181 0.32284 0.0
H734 H 0.61631 0.84079 0.29767 0.0
H735 H 0.63453 0.84921 0.30649 0.0
N736 N 0.65272 0.85071 0.3208 0.0
N737 N 0.66842 0.85002 0.33499 0.0
N738 N 0.65348 0.83528 0.33476 0.0
C739 C 0.66294 0.85548 0.32554 0.0
C740 C 0.6637 0.8399 0.33968 0.0
C741 C 0.64793 0.84061 0.32531 0.0
C742 C 0.66799 0.86651 0.32032 0.0
C743 C 0.66126 0.87308 0.31193 0.0
C744 C 0.66597 0.88331 0.30675 0.0
C745 C 0.67759 0.88723 0.30973 0.0
C746 C 0.68431 0.88074 0.31822 0.0
C747 C 0.67955 0.87051 0.32348 0.0
C748 C 0.66961 0.83393 0.35004 0.0
C749 C 0.68026 0.83849 0.3552 0.0
C750 C 0.6858 0.83278 0.36491 0.0
C751 C 0.68084 0.82237 0.36973 0.0
C752 C 0.67017 0.81784 0.36462 0.0
C753 C 0.66464 0.82353 0.35491 0.0
C754 C 0.63681 0.83546 0.31992 0.0
C755 C 0.63187 0.82489 0.32439 0.0
C756 C 0.64155 0.19887 0.33751 0.0
C757 C 0.63535 0.19397 0.32762 0.0
C758 C 0.63991 0.18374 0.32228 0.0
C759 C 0.6503 0.17845 0.32683 0.0
H760 H 0.67645 0.15276 0.3193 0.0
H761 H 0.68468 0.13485 0.3105 0.0
H762 H 0.70477 0.12812 0.34306 0.0
H763 H 0.69663 0.14591 0.35186 0.0
H764 H 0.70208 0.1674 0.36865 0.0
H765 H 0.71233 0.17521 0.38629 0.0
H766 H 0.68724 0.20396 0.38753 0.0
H767 H 0.67703 0.19627 0.36965 0.0
H768 H 0.65636 0.19754 0.3498 0.0
H769 H 0.63823 0.20667 0.34191 0.0
H770 H 0.63547 0.17983 0.31454 0.0
H771 H 0.65347 0.17055 0.3225 0.0
N772 N 0.6715 0.16735 0.33686 0.0
N773 N 0.68661 0.16637 0.35163 0.0
N774 N 0.67281 0.18181 0.35191 0.0
C775 C 0.6812 0.16179 0.34168 0.0
C776 C 0.68253 0.17637 0.3568 0.0
C777 C 0.66722 0.17736 0.34195 0.0
C778 C 0.68588 0.15081 0.33628 0.0
C779 C 0.68259 0.14744 0.3246 0.0
C780 C 0.68735 0.13722 0.31953 0.0
C781 C 0.69536 0.13008 0.3261 0.0
C782 C 0.69853 0.13338 0.33781 0.0
C783 C 0.69391 0.14363 0.34282 0.0
C784 C 0.68869 0.18119 0.36767 0.0
C785 C 0.6987 0.17539 0.37264 0.0
C786 C 0.70456 0.17983 0.38284 0.0
C787 C 0.70059 0.19019 0.38837 0.0
C788 C 0.69061 0.19602 0.38342 0.0
C789 C 0.68471 0.19157 0.37319 0.0
C790 C 0.65641 0.18323 0.33685 0.0
C791 C 0.65193 0.19357 0.34207 0.0
C792 C 0.32659 0.12577 0.32488 0.0
C793 C 0.31672 0.12237 0.33153 0.0
C794 C 0.31388 0.1292 0.34149 0.0
C795 C 0.3207 0.13921 0.3447 0.0
H796 H 0.32223 0.16677 0.3685 0.0
H797 H 0.31661 0.17907 0.38519 0.0
H798 H 0.34639 0.20258 0.37899 0.0
H799 H 0.35218 0.19021 0.36245 0.0
H800 H 0.36885 0.18552 0.34168 0.0
H801 H 0.38607 0.19131 0.33039 0.0
H802 H 0.3804 0.16095 0.30739 0.0
H803 H 0.36323 0.15498 0.31882 0.0
H804 H 0.34098 0.13809 0.32275 0.0
H805 H 0.32912 0.12062 0.31724 0.0
H806 H 0.30625 0.12691 0.34673 0.0
H807 H 0.31819 0.14427 0.3524 0.0
N808 N 0.33468 0.16016 0.35077 0.0
N809 N 0.3508 0.17299 0.3475 0.0
N810 N 0.34746 0.15648 0.3351 0.0
C811 C 0.34114 0.17 0.35388 0.0
C812 C 0.35404 0.1663 0.3381 0.0
C813 C 0.33777 0.15334 0.3414 0.0
C814 C 0.33768 0.17746 0.36409 0.0
C815 C 0.32761 0.17454 0.37068 0.0
C816 C 0.32433 0.18164 0.38022 0.0
C817 C 0.33104 0.19181 0.38342 0.0
C818 C 0.34112 0.19472 0.37686 0.0
C819 C 0.34439 0.18764 0.36731 0.0
C820 C 0.36459 0.16977 0.33118 0.0
C821 C 0.37124 0.18004 0.33423 0.0
C822 C 0.3811 0.18342 0.3277 0.0
C823 C 0.38459 0.17663 0.31795 0.0
C824 C 0.37802 0.16632 0.31492 0.0
C825 C 0.36812 0.16293 0.32145 0.0
C826 C 0.33057 0.14264 0.33803 0.0
C827 C 0.33344 0.13577 0.32809 0.0
C828 C 0.31503 0.82342 0.38184 0.0
C829 C 0.31971 0.81272 0.38634 0.0
C830 C 0.32922 0.8075 0.38051 0.0
C831 C 0.33389 0.81277 0.37041 0.0
H832 H 0.36023 0.80846 0.34825 0.0
H833 H 0.37718 0.79869 0.33988 0.0
H834 H 0.37828 0.82514 0.31207 0.0
H835 H 0.36107 0.8349 0.32034 0.0
H836 H 0.34221 0.85544 0.32029 0.0
H837 H 0.33423 0.87343 0.31129 0.0
H838 H 0.30745 0.87472 0.338 0.0
H839 H 0.31555 0.85681 0.34719 0.0
H840 H 0.31587 0.83693 0.36839 0.0
H841 H 0.30766 0.82763 0.38609 0.0
H842 H 0.33318 0.79937 0.38384 0.0
H843 H 0.34123 0.80841 0.36623 0.0
N844 N 0.34386 0.82373 0.35004 0.0
N845 N 0.34411 0.83835 0.33525 0.0
N846 N 0.32972 0.83889 0.34999 0.0
C847 C 0.34882 0.82837 0.34019 0.0
C848 C 0.33457 0.84368 0.34007 0.0
C849 C 0.33435 0.82887 0.35502 0.0
C850 C 0.35924 0.82251 0.335 0.0
C851 C 0.36404 0.81225 0.34035 0.0
C852 C 0.37384 0.80666 0.33559 0.0
C853 C 0.37913 0.81117 0.32534 0.0
C854 C 0.37434 0.82139 0.31992 0.0
C855 C 0.36451 0.82702 0.32471 0.0
C856 C 0.32956 0.85462 0.33452 0.0
C857 C 0.33461 0.85952 0.32428 0.0
C858 C 0.32999 0.86983 0.31905 0.0
C859 C 0.32019 0.87554 0.3239 0.0
C860 C 0.3151 0.87064 0.33411 0.0
C861 C 0.31972 0.86031 0.33935 0.0
C862 C 0.32921 0.82344 0.36581 0.0
C863 C 0.31971 0.82872 0.37166 0.0
C864 C 0.63856 0.69373 0.18066 0.0
C865 C 0.63366 0.68559 0.1887 0.0
C866 C 0.63915 0.6745 0.19027 0.0
C867 C 0.64929 0.67164 0.18399 0.0
H868 H 0.67829 0.64953 0.18521 0.0
H869 H 0.68976 0.63209 0.1908 0.0
H870 H 0.71155 0.63708 0.16018 0.0
H871 H 0.70001 0.65452 0.15445 0.0
H872 H 0.69887 0.68039 0.14151 0.0
H873 H 0.70491 0.69334 0.12536 0.0
H874 H 0.67158 0.71196 0.12705 0.0
H875 H 0.6657 0.6993 0.1434 0.0
H876 H 0.65216 0.69737 0.16823 0.0
H877 H 0.63472 0.70243 0.17936 0.0
H878 H 0.63553 0.66793 0.19625 0.0
H879 H 0.65323 0.66299 0.1854 0.0
N880 N 0.67133 0.66697 0.17209 0.0
N881 N 0.68453 0.67125 0.15686 0.0
N882 N 0.66833 0.68371 0.16001 0.0
C883 C 0.68118 0.66416 0.166 0.0
C884 C 0.67814 0.68104 0.1538 0.0
C885 C 0.66485 0.67673 0.16916 0.0
C886 C 0.6882 0.65349 0.16937 0.0
C887 C 0.68551 0.64695 0.17963 0.0
C888 C 0.69214 0.63697 0.18289 0.0
C889 C 0.70159 0.63322 0.17596 0.0
C890 C 0.70426 0.63968 0.16566 0.0
C891 C 0.69767 0.64973 0.16242 0.0
C892 C 0.6818 0.68879 0.14381 0.0
C893 C 0.69282 0.68724 0.13845 0.0
C894 C 0.69626 0.69464 0.12912 0.0
C895 C 0.68875 0.70373 0.12488 0.0
C896 C 0.6777 0.70521 0.13021 0.0
C897 C 0.67429 0.69787 0.13957 0.0
C898 C 0.65414 0.67976 0.1759 0.0
C899 C 0.64863 0.69084 0.17431 0.0
C900 C 0.34112 0.63077 0.18669 0.0
C901 C 0.32971 0.62565 0.18526 0.0
C902 C 0.32173 0.6306 0.17678 0.0
C903 C 0.32504 0.64053 0.17005 0.0
H904 H 0.31781 0.65958 0.13761 0.0
H905 H 0.30609 0.66722 0.12063 0.0
H906 H 0.32676 0.69975 0.12182 0.0
H907 H 0.33837 0.69227 0.1387 0.0
H908 H 0.36183 0.69418 0.15461 0.0
H909 H 0.38011 0.70455 0.16102 0.0
H910 H 0.38783 0.67642 0.18613 0.0
H911 H 0.36976 0.666 0.1797 0.0
H912 H 0.35325 0.64437 0.18149 0.0
H913 H 0.3476 0.62706 0.19292 0.0
H914 H 0.31283 0.62696 0.1755 0.0
H915 H 0.31862 0.64422 0.16373 0.0
N916 N 0.33309 0.66072 0.15571 0.0
N917 N 0.34642 0.67674 0.15342 0.0
N918 N 0.34991 0.66269 0.16843 0.0
C919 C 0.33634 0.67078 0.14983 0.0
C920 C 0.35326 0.67274 0.16271 0.0
C921 C 0.33986 0.65663 0.16505 0.0
C922 C 0.32905 0.67531 0.13958 0.0
C923 C 0.31983 0.66838 0.13428 0.0
C924 C 0.31315 0.67272 0.1245 0.0
C925 C 0.31545 0.68411 0.11992 0.0
C926 C 0.32464 0.69101 0.12524 0.0
C927 C 0.33136 0.68666 0.1349 0.0
C928 C 0.3643 0.67921 0.16659 0.0
C929 C 0.36743 0.69019 0.16148 0.0
C930 C 0.37787 0.69618 0.1652 0.0
C931 C 0.38546 0.69128 0.17404 0.0
C932 C 0.38229 0.68035 0.17917 0.0
C933 C 0.37185 0.67441 0.17552 0.0
C934 C 0.33638 0.64577 0.1717 0.0
C935 C 0.34439 0.64069 0.18005 0.0
C936 C 0.34638 0.31492 0.14387 0.0
C937 C 0.33555 0.3186 0.13858 0.0
C938 C 0.33013 0.32884 0.14297 0.0
C939 C 0.33526 0.33512 0.15256 0.0
H940 H 0.32852 0.36233 0.17511 0.0
H941 H 0.31791 0.37905 0.18332 0.0
H942 H 0.34609 0.38404 0.20983 0.0
H943 H 0.3566 0.36718 0.20184 0.0
H944 H 0.37465 0.3442 0.20636 0.0
H945 H 0.39303 0.33683 0.21583 0.0
H946 H 0.40145 0.31876 0.18336 0.0
H947 H 0.38313 0.32598 0.17391 0.0
H948 H 0.35979 0.31801 0.15745 0.0
H949 H 0.35075 0.30703 0.14077 0.0
H950 H 0.32189 0.33206 0.13896 0.0
H951 H 0.33074 0.3429 0.15571 0.0
N952 N 0.34539 0.34721 0.17315 0.0
N953 N 0.36021 0.34922 0.18815 0.0
N954 N 0.36152 0.33417 0.17382 0.0
C955 C 0.34985 0.35301 0.18292 0.0
C956 C 0.36611 0.33982 0.18363 0.0
C957 C 0.35114 0.33778 0.16854 0.0
C958 C 0.34344 0.36333 0.18782 0.0
C959 C 0.33248 0.36697 0.1827 0.0
C960 C 0.32641 0.37663 0.18736 0.0
C961 C 0.33111 0.38289 0.19726 0.0
C962 C 0.3421 0.3793 0.20232 0.0
C963 C 0.34817 0.36965 0.19768 0.0
C964 C 0.37739 0.33567 0.18937 0.0
C965 C 0.38045 0.3387 0.20122 0.0
C966 C 0.39094 0.33444 0.20667 0.0
C967 C 0.39869 0.32726 0.20032 0.0
C968 C 0.39571 0.32438 0.18844 0.0
C969 C 0.38516 0.32846 0.18306 0.0
C970 C 0.34597 0.33133 0.15803 0.0
C971 C 0.35153 0.32121 0.15349 0.0
C972 C 0.64118 0.32933 0.19399 0.0
C973 C 0.63527 0.32079 0.18676 0.0
C974 C 0.639 0.31924 0.17506 0.0
C975 C 0.64855 0.32581 0.17076 0.0
H976 H 0.66946 0.32766 0.14249 0.0
H977 H 0.67784 0.32032 0.12434 0.0
H978 H 0.70971 0.34127 0.13129 0.0
H979 H 0.70113 0.34897 0.1494 0.0
H980 H 0.69915 0.3694 0.16954 0.0
H981 H 0.70708 0.38704 0.17951 0.0
H982 H 0.67922 0.38477 0.20508 0.0
H983 H 0.67138 0.36692 0.19525 0.0
H984 H 0.65519 0.34236 0.1955 0.0
H985 H 0.63861 0.3307 0.20308 0.0
H986 H 0.6345 0.31295 0.16914 0.0
H987 H 0.65116 0.32428 0.1617 0.0
N988 N 0.66988 0.33732 0.16312 0.0
N989 N 0.68428 0.35244 0.16482 0.0
N990 N 0.66987 0.35026 0.17941 0.0
C991 C 0.6795 0.34302 0.15874 0.0
C992 C 0.67949 0.35616 0.17514 0.0
C993 C 0.66502 0.34081 0.17343 0.0
C994 C 0.68464 0.33887 0.14748 0.0
C995 C 0.67826 0.33074 0.14019 0.0
C996 C 0.68311 0.32645 0.12977 0.0
C997 C 0.69453 0.33007 0.12638 0.0
C998 C 0.70086 0.33835 0.13357 0.0
C999 C 0.69595 0.34273 0.14399 0.0
C1000 C 0.68456 0.36672 0.18152 0.0
C1001 C 0.6947 0.3726 0.1773 0.0
C1002 C 0.69923 0.38279 0.18299 0.0
C1003 C 0.69374 0.3874 0.19305 0.0
C1004 C 0.68374 0.38141 0.19742 0.0
C1005 C 0.6792 0.37119 0.19173 0.0
C1006 C 0.6546 0.33422 0.17802 0.0
C1007 C 0.65073 0.33599 0.18965 0.0
C1008 C 0.64161 0.32117 0.82247 0.0
C1009 C 0.63564 0.32607 0.81247 0.0
C1010 C 0.64044 0.33632 0.80722 0.0
C1011 C 0.65088 0.34157 0.81187 0.0
H1012 H 0.67538 0.3666 0.80416 0.0
H1013 H 0.68278 0.38415 0.79413 0.0
H1014 H 0.70721 0.39107 0.82375 0.0
H1015 H 0.70001 0.37325 0.83372 0.0
H1016 H 0.70298 0.35293 0.85352 0.0
H1017 H 0.71265 0.34548 0.87164 0.0
H1018 H 0.68622 0.31748 0.8735 0.0
H1019 H 0.67664 0.32475 0.85525 0.0
H1020 H 0.6564 0.32243 0.83487 0.0
H1021 H 0.63825 0.31319 0.82665 0.0
H1022 H 0.636 0.34045 0.79963 0.0
H1023 H 0.65421 0.34951 0.8076 0.0
N1024 N 0.6724 0.35224 0.82147 0.0
N1025 N 0.6876 0.35368 0.83611 0.0
N1026 N 0.6732 0.33846 0.83709 0.0
C1027 C 0.68229 0.35785 0.82594 0.0
C1028 C 0.68313 0.34397 0.84174 0.0
C1029 C 0.66777 0.34256 0.82695 0.0
C1030 C 0.68706 0.36849 0.8198 0.0
C1031 C 0.68234 0.37182 0.80857 0.0
C1032 C 0.68655 0.38196 0.80282 0.0
C1033 C 0.69554 0.3891 0.80815 0.0
C1034 C 0.70036 0.38571 0.81932 0.0
C1035 C 0.69619 0.37551 0.82507 0.0
C1036 C 0.689 0.33946 0.85286 0.0
C1037 C 0.6992 0.34517 0.85776 0.0
C1038 C 0.70473 0.34095 0.86821 0.0
C1039 C 0.70021 0.33088 0.87405 0.0
C1040 C 0.69002 0.32516 0.86916 0.0
C1041 C 0.68448 0.32939 0.85871 0.0
C1042 C 0.65681 0.33674 0.82193 0.0
C1043 C 0.65206 0.32644 0.82715 0.0
C1044 C 0.65253 0.70392 0.8355 0.0
C1045 C 0.64872 0.70123 0.82379 0.0
C1046 C 0.6551 0.69274 0.81742 0.0
C1047 C 0.66515 0.68727 0.82259 0.0
H1048 H 0.6877 0.65732 0.82046 0.0
H1049 H 0.69753 0.64036 0.81162 0.0
H1050 H 0.72688 0.64435 0.83698 0.0
H1051 H 0.7172 0.66132 0.84575 0.0
H1052 H 0.71574 0.67935 0.86699 0.0
H1053 H 0.72355 0.68763 0.88576 0.0
H1054 H 0.69262 0.70988 0.88781 0.0
H1055 H 0.68475 0.7016 0.86923 0.0
H1056 H 0.6652 0.70092 0.84966 0.0
H1057 H 0.64771 0.71019 0.84079 0.0
H1058 H 0.65249 0.69051 0.80835 0.0
H1059 H 0.66994 0.68091 0.81738 0.0
N1060 N 0.68554 0.67562 0.83441 0.0
N1061 N 0.70012 0.67557 0.84982 0.0
N1062 N 0.68464 0.6893 0.85007 0.0
C1063 C 0.69562 0.67092 0.83945 0.0
C1064 C 0.69469 0.68476 0.8552 0.0
C1065 C 0.68 0.68485 0.83969 0.0
C1066 C 0.70162 0.66072 0.83384 0.0
C1067 C 0.69627 0.65462 0.82413 0.0
C1068 C 0.70187 0.64485 0.81911 0.0
C1069 C 0.71299 0.641 0.8236 0.0
C1070 C 0.71838 0.64716 0.83322 0.0
C1071 C 0.71277 0.65687 0.83829 0.0
C1072 C 0.69958 0.68977 0.86657 0.0
C1073 C 0.71059 0.686 0.87144 0.0
C1074 C 0.71511 0.69078 0.88217 0.0
C1075 C 0.70868 0.69936 0.88831 0.0
C1076 C 0.69771 0.70314 0.88341 0.0
C1077 C 0.69323 0.69844 0.87268 0.0
C1078 C 0.66908 0.69018 0.83423 0.0
C1079 C 0.66257 0.69852 0.84063 0.0
C1080 C 0.34262 0.64136 0.80291 0.0
C1081 C 0.33384 0.63499 0.80895 0.0
C1082 C 0.33015 0.6393 0.81997 0.0
C1083 C 0.3351 0.64975 0.82481 0.0
H1084 H 0.33765 0.67178 0.85609 0.0
H1085 H 0.32993 0.68107 0.87394 0.0
H1086 H 0.34311 0.71517 0.86234 0.0
H1087 H 0.35108 0.7059 0.84464 0.0
H1088 H 0.37734 0.7018 0.83014 0.0
H1089 H 0.39527 0.70967 0.82117 0.0
H1090 H 0.3926 0.68258 0.79403 0.0
H1091 H 0.37461 0.67482 0.80281 0.0
H1092 H 0.35438 0.65636 0.80283 0.0
H1093 H 0.34576 0.63821 0.79447 0.0
H1094 H 0.32332 0.63465 0.8248 0.0
H1095 H 0.33203 0.65282 0.83331 0.0
N1096 N 0.34495 0.67226 0.83375 0.0
N1097 N 0.35931 0.68753 0.83277 0.0
N1098 N 0.35879 0.67231 0.81856 0.0
C1099 C 0.34986 0.68249 0.83822 0.0
C1100 C 0.36387 0.68244 0.82295 0.0
C1101 C 0.34933 0.66716 0.82385 0.0
C1102 C 0.345 0.6881 0.84895 0.0
C1103 C 0.3389 0.68126 0.85734 0.0
C1104 C 0.33453 0.68655 0.86757 0.0
C1105 C 0.33593 0.69882 0.86949 0.0
C1106 C 0.34187 0.70569 0.86104 0.0
C1107 C 0.34647 0.70037 0.85094 0.0
C1108 C 0.3745 0.68763 0.81725 0.0
C1109 C 0.38052 0.69755 0.82222 0.0
C1110 C 0.39085 0.70203 0.81712 0.0
C1111 C 0.3954 0.69672 0.80691 0.0
C1112 C 0.38927 0.68696 0.80181 0.0
C1113 C 0.37897 0.68246 0.80692 0.0
C1114 C 0.34393 0.6561 0.81878 0.0
C1115 C 0.34762 0.65175 0.80776 0.0
C1116 C 0.32411 0.33722 0.89104 0.0
C1117 C 0.32799 0.32686 0.89688 0.0
C1118 C 0.33758 0.3206 0.89227 0.0
C1119 C 0.34326 0.3247 0.88212 0.0
H1120 H 0.36597 0.31522 0.85347 0.0
H1121 H 0.38311 0.30486 0.84569 0.0
H1122 H 0.39727 0.3381 0.83292 0.0
H1123 H 0.37992 0.34852 0.84038 0.0
H1124 H 0.3585 0.37154 0.83808 0.0
H1125 H 0.34971 0.38939 0.82891 0.0
H1126 H 0.31494 0.3779 0.83979 0.0
H1127 H 0.32363 0.36033 0.84908 0.0
H1128 H 0.32648 0.34933 0.87668 0.0
H1129 H 0.31663 0.34215 0.89425 0.0
H1130 H 0.34082 0.31263 0.89663 0.0
H1131 H 0.35068 0.31971 0.87887 0.0
N1132 N 0.35535 0.33434 0.86159 0.0
N1133 N 0.35686 0.34881 0.84658 0.0
N1134 N 0.3413 0.3495 0.85999 0.0
C1135 C 0.36108 0.33884 0.85206 0.0
C1136 C 0.34687 0.3541 0.85047 0.0
C1137 C 0.3455 0.33971 0.86568 0.0
C1138 C 0.3716 0.33269 0.84753 0.0
C1139 C 0.37274 0.32034 0.84902 0.0
C1140 C 0.38249 0.3144 0.84454 0.0
C1141 C 0.39145 0.32072 0.83874 0.0
C1142 C 0.39046 0.33307 0.83739 0.0
C1143 C 0.38053 0.339 0.84162 0.0
C1144 C 0.34176 0.36458 0.84434 0.0
C1145 C 0.34898 0.37283 0.83843 0.0
C1146 C 0.34398 0.38303 0.83325 0.0
C1147 C 0.33166 0.38496 0.83364 0.0
C1148 C 0.32445 0.37657 0.83929 0.0
C1149 C 0.32944 0.36656 0.84467 0.0
C1150 C 0.33942 0.33511 0.87632 0.0
C1151 C 0.32974 0.34128 0.88089 0.0
Cu1152 Cu 0.25855 0.25786 0.02086 0.0
N1153 N 0.2596 0.27229 0.01273 0.0
N1154 N 0.26544 0.28507 0.99879 0.0
C1155 C 0.26604 0.27385 0.00296 0.0
C1156 C 0.25841 0.29087 0.00636 0.0
C1157 C 0.25481 0.28294 0.01496 0.0
O1158 O 0.2601 0.24544 0.00893 0.0
C1159 C 0.26808 0.26518 0.04224 0.0
O1160 O 0.25786 0.27073 0.04175 0.0
H1161 H 0.27122 0.26686 0.99911 0.0
H1162 H 0.24915 0.28482 0.02232 0.0
N1163 N 0.24379 0.25561 0.02778 0.0
N1164 N 0.23048 0.24832 0.04029 0.0
C1165 C 0.24157 0.2474 0.03614 0.0
C1166 C 0.23372 0.26191 0.02647 0.0
C1167 C 0.22549 0.25746 0.03424 0.0
C1168 C 0.25269 0.24663 1.00022 0.0
O1169 O 0.24498 0.25531 1.0005 0.0
H1170 H 0.24817 0.24119 0.03947 0.0
H1171 H 0.23252 0.26935 0.02048 0.0
O1172 O 0.2707 0.25842 0.03362 0.0
H1173 H 0.25594 0.30012 0.00566 0.0
H1174 H 0.21658 0.26073 0.03541 0.0
Cu1175 Cu 0.76617 0.2681 0.99815 0.0
N1176 N 0.75154 0.27069 0.0067 0.0
N1177 N 0.73906 0.27693 0.02039 0.0
C1178 C 0.74991 0.27834 0.01569 0.0
C1179 C 0.73368 0.26813 0.014 0.0
C1180 C 0.74141 0.26431 0.00555 0.0
O1181 O 0.77361 0.26053 0.01302 0.0
C1182 C 0.75762 0.28632 0.9816 0.0
O1183 O 0.7618 0.29359 0.98989 0.0
H1184 H 0.7567 0.28445 0.01904 0.0
H1185 H 0.7399 0.25717 0.99924 0.0
N1186 N 0.78081 0.26539 0.98963 0.0
N1187 N 0.79345 0.25862 0.97637 0.0
C1188 C 0.78192 0.25957 0.97927 0.0
C1189 C 0.79195 0.26831 0.99334 0.0
C1190 C 0.79978 0.26408 0.9852 0.0
C1191 C 0.77881 0.26664 0.02118 0.0
O1192 O 0.77959 0.27823 0.01998 0.0
H1193 H 0.77449 0.25582 0.97415 0.0
H1194 H 0.79424 0.27303 1.00147 0.0
O1195 O 0.75851 0.27518 0.98317 0.0
H1196 H 0.72484 0.2646 0.01541 0.0
H1197 H 0.80938 0.26495 0.98571 0.0
Cu1198 Cu 0.75083 0.78639 0.00474 0.0
N1199 N 0.7503 0.79877 0.99359 0.0
N1200 N 0.75497 0.80896 0.97724 0.0
C1201 C 0.75631 0.79873 0.98341 0.0
C1202 C 0.74779 0.8157 0.98383 0.0
C1203 C 0.74492 0.80939 0.99389 0.0
O1204 O 0.75089 0.77175 0.99548 0.0
C1205 C 0.76567 0.79873 0.02032 0.0
O1206 O 0.75795 0.80697 0.01736 0.0
H1207 H 0.76188 0.79146 0.98081 0.0
H1208 H 0.7396 0.81253 1.00106 0.0
N1209 N 0.73771 0.78582 0.01459 0.0
N1210 N 0.72615 0.77886 0.02892 0.0
C1211 C 0.73649 0.77769 0.02326 0.0
C1212 C 0.72777 0.79239 0.01473 0.0
C1213 C 0.72064 0.78815 0.02362 0.0
C1214 C 0.74083 0.76846 0.99103 0.0
O1215 O 0.73139 0.77474 0.99332 0.0
H1216 H 0.74311 0.77104 0.02536 0.0
H1217 H 0.72567 0.79953 0.00864 0.0
O1218 O 0.76464 0.78855 0.01542 0.0
H1219 H 0.74488 0.82458 0.9816 0.0
H1220 H 0.71194 0.79142 0.02577 0.0
Cu1221 Cu 0.26482 0.75818 0.99737 0.0
N1222 N 0.26334 0.77181 0.00675 0.0
N1223 N 0.25666 0.78319 0.02136 0.0
C1224 C 0.25541 0.77282 0.01541 0.0
C1225 C 0.26571 0.78898 0.01614 0.0
C1226 C 0.26985 0.7819 0.00715 0.0
O1227 O 0.2648 0.74476 0.00847 0.0
C1228 C 0.25133 0.76808 0.97957 0.0
O1229 O 0.25937 0.77638 0.98185 0.0
H1230 H 0.24893 0.76597 0.01734 0.0
H1231 H 0.27722 0.78387 1.00147 0.0
N1232 N 0.27906 0.75799 0.98916 0.0
N1233 N 0.29182 0.75329 0.97508 0.0
C1234 C 0.28031 0.75354 0.97816 0.0
C1235 C 0.29015 0.76074 0.99315 0.0
C1236 C 0.29806 0.7578 0.98449 0.0
C1237 C 0.27159 0.74632 0.01764 0.0
O1238 O 0.27809 0.75606 0.01843 0.0
H1239 H 0.27297 0.75003 0.97273 0.0
H1240 H 0.29238 0.76432 1.00186 0.0
O1241 O 0.25183 0.75843 0.98549 0.0
H1242 H 0.26932 0.79754 0.01884 0.0
H1243 H 0.30765 0.75874 0.98513 0.0
Cu1244 Cu 0.00912 0.24205 0.27581 0.0
N1245 N 0.01844 0.22833 0.27541 0.0
N1246 N 0.03271 0.21615 0.26952 0.0
C1247 C 0.02754 0.22685 0.26806 0.0
C1248 C 0.0266 0.21068 0.27814 0.0
C1249 C 0.01776 0.21819 0.28173 0.0
O1250 O 0.02026 0.25542 0.27716 0.0
C1251 C 0.99263 0.23216 0.26054 0.0
O1252 O 0.99432 0.22372 0.26847 0.0
H1253 H 0.03037 0.23358 0.26184 0.0
H1254 H 0.01119 0.21626 0.28829 0.0
N1255 N 0.99928 0.2426 0.28893 0.0
N1256 N 0.98441 0.2487 0.30014 0.0
C1257 C 0.98967 0.24959 0.28954 0.0
C1258 C 1.00019 0.23711 0.29955 0.0
C1259 C 0.99098 0.2408 0.30647 0.0
C1260 C 0.02736 0.2546 0.28617 0.0
O1261 O 0.02621 0.24539 0.29324 0.0
H1262 H 0.98664 0.25526 0.28231 0.0
H1263 H 0.00722 0.23112 0.30224 0.0
O1264 O 0.99853 0.24184 0.26175 0.0
H1265 H 0.0282 0.20178 0.28143 0.0
H1266 H 0.98948 0.23819 0.31557 0.0
Cu1267 Cu 0.75007 0.01598 0.24925 0.0
N1268 N 0.75204 0.02415 0.235 0.0
N1269 N 0.75881 0.03816 0.2227 0.0
C1270 C 0.75709 0.03499 0.23412 0.0
C1271 C 0.7545 0.02893 0.21615 0.0
C1272 C 0.75036 0.02029 0.22377 0.0
O1273 O 0.74984 0.02797 0.26166 0.0
C1274 C 0.77246 0.00487 0.24595 0.0
O1275 O 0.77567 0.01494 0.24101 0.0
H1276 H 0.75975 0.04025 0.24181 0.0
H1277 H 0.74684 0.01162 0.22133 0.0
N1278 N 0.73581 0.00737 0.24907 0.0
N1279 N 0.72291 0.99298 0.25373 0.0
C1280 C 0.73386 0.99768 0.25578 0.0
C1281 C 0.72578 0.00886 0.24245 0.0
C1282 C 0.71778 0.99995 0.24529 0.0
C1283 C 0.74497 0.0267 0.27165 0.0
O1284 O 0.74104 0.01616 0.2748 0.0
H1285 H 0.74047 0.99405 0.26192 0.0
H1286 H 0.72441 0.01588 0.23599 0.0
O1287 O 0.76249 0.00417 0.25098 0.0
H1288 H 0.75478 0.02819 0.20657 0.0
H1289 H 0.70888 0.99878 0.24154 0.0
Cu1290 Cu 0.00597 0.75976 0.25703 0.0
N1291 N 0.99686 0.77347 0.25828 0.0
N1292 N 0.98217 0.78616 0.25409 0.0
C1293 C 0.98665 0.7753 0.25205 0.0
C1294 C 0.98987 0.79137 0.26195 0.0
C1295 C 0.99898 0.78355 0.26446 0.0
O1296 O 0.99483 0.74635 0.25738 0.0
C1297 C 0.02255 0.77003 0.24318 0.0
O1298 O 0.02291 0.77668 0.25279 0.0
H1299 H 0.98266 0.76879 0.24604 0.0
H1300 H 0.00676 0.78529 0.27007 0.0
N1301 N 0.01698 0.75801 0.26971 0.0
N1302 N 0.03246 0.75066 0.28012 0.0
C1303 C 0.02602 0.75028 0.26981 0.0
C1304 C 0.01767 0.76348 0.28036 0.0
C1305 C 0.02724 0.75899 0.28678 0.0
C1306 C 0.99041 0.74458 0.26755 0.0
O1307 O 0.99373 0.75158 0.2764 0.0
H1308 H 0.02785 0.74452 0.2624 0.0
H1309 H 0.01148 0.77001 0.2834 0.0
O1310 O 0.01522 0.76131 0.24271 0.0
H1311 H 0.98921 0.80035 0.26529 0.0
H1312 H 0.02995 0.76143 0.29578 0.0
Cu1313 Cu 0.24202 0.9931 0.272 0.0
N1314 N 0.24235 0.00325 0.28521 0.0
N1315 N 0.24797 0.01889 0.29636 0.0
C1316 C 0.24882 0.01336 0.28577 0.0
C1317 C 0.24065 0.01193 0.30273 0.0
C1318 C 0.23718 0.0023 0.29582 0.0
O1319 O 0.24086 0.00348 0.25814 0.0
C1320 C 0.25715 0.97744 0.2829 0.0
O1321 O 0.24916 0.97901 0.29102 0.0
H1322 H 0.25432 0.0164 0.27862 0.0
H1323 H 0.23153 0.995 0.29849 0.0
N1324 N 0.22884 0.98282 0.27126 0.0
N1325 N 0.21704 0.96821 0.26414 0.0
C1326 C 0.22752 0.97404 0.26321 0.0
C1327 C 0.21882 0.98259 0.27753 0.0
C1328 C 0.21155 0.97353 0.2732 0.0
C1329 C 0.23135 0.00956 0.25791 0.0
O1330 O 0.2238 0.00794 0.26647 0.0
H1331 H 0.23416 0.97202 0.25676 0.0
H1332 H 0.21677 0.98875 0.28452 0.0
O1333 O 0.25604 0.98305 0.27309 0.0
H1334 H 0.23801 0.01363 0.31174 0.0
H1335 H 0.20276 0.97128 0.27623 0.0
Cu1336 Cu 0.00832 0.75622 0.75332 0.0
N1337 N 0.01906 0.74366 0.75261 0.0
N1338 N 0.03508 0.73384 0.7467 0.0
C1339 C 0.02931 0.74431 0.74674 0.0
C1340 C 0.02815 0.72631 0.75289 0.0
C1341 C 0.01829 0.73238 0.75651 0.0
O1342 O 0.01817 0.77046 0.75589 0.0
C1343 C 0.99326 0.7463 0.73645 0.0
O1344 O 0.99515 0.73733 0.74371 0.0
H1345 H 0.03235 0.75236 0.74248 0.0
H1346 H 0.01088 0.72866 0.76121 0.0
N1347 N 0.99759 0.75482 0.76567 0.0
N1348 N 0.98217 0.7596 0.77677 0.0
C1349 C 0.98843 0.76225 0.76704 0.0
C1350 C 0.99715 0.74717 0.77486 0.0
C1351 C 0.9876 0.75007 0.7817 0.0
C1352 C 0.02161 0.77261 0.76658 0.0
O1353 O 0.0177 0.76579 0.77512 0.0
H1354 H 0.98642 0.76945 0.76096 0.0
H1355 H 0.00346 0.74018 0.77666 0.0
O1356 O 0.99852 0.75617 0.7387 0.0
H1357 H 0.02981 0.71696 0.75435 0.0
H1358 H 0.98506 0.74571 0.78984 0.0
Cu1359 Cu 0.27132 0.01177 0.77345 0.0
N1360 N 0.28379 0.0229 0.77423 0.0
N1361 N 0.29459 0.03876 0.76895 0.0
C1362 C 0.28441 0.03247 0.76709 0.0
C1363 C 0.30061 0.03288 0.77767 0.0
C1364 C 0.29391 0.02311 0.78093 0.0
O1365 O 0.25681 0.02105 0.77428 0.0
C1366 C 0.28284 0.99942 0.75593 0.0
O1367 O 0.29209 0.00342 0.76217 0.0
H1368 H 0.27766 0.03452 0.76036 0.0
H1369 H 0.29641 0.01648 0.78746 0.0
N1370 N 0.27176 1.00075 0.78595 0.0
N1371 N 0.26666 0.98453 0.79615 0.0
C1372 C 0.26607 0.99016 0.78557 0.0
C1373 C 0.27625 1.00178 0.79714 0.0
C1374 C 0.27303 0.9918 0.80349 0.0
C1375 C 0.25489 0.02565 0.78438 0.0
O1376 O 0.26231 0.02342 0.79331 0.0
H1377 H 0.26108 0.98693 0.77783 0.0
H1378 H 0.28105 0.00945 0.80062 0.0
O1379 O 0.27246 0.00242 0.75894 0.0
H1380 H 0.30925 0.0354 0.7814 0.0
H1381 H 0.275 0.99013 0.81282 0.0
Cu1382 Cu 0.02409 0.27673 0.77213 0.0
N1383 N 0.01503 0.29061 0.77237 0.0
N1384 N 1.00012 0.30287 0.76754 0.0
C1385 C 0.00501 0.29215 0.76573 0.0
C1386 C 0.00741 0.30834 0.77562 0.0
C1387 C 0.01659 0.30074 0.77861 0.0
O1388 O 0.01257 0.26363 0.77164 0.0
C1389 C 0.04127 0.28741 0.75938 0.0
O1390 O 0.04022 0.29453 0.76852 0.0
H1391 H 1.00149 0.28552 0.75958 0.0
H1392 H 0.0239 0.30255 0.78481 0.0
N1393 N 0.03373 0.27486 0.78581 0.0
N1394 N 0.04827 0.26758 0.79758 0.0
C1395 C 0.04284 0.26722 0.78672 0.0
C1396 C 0.03331 0.28022 0.79648 0.0
C1397 C 0.04233 0.27578 0.80375 0.0
C1398 C 0.0053 0.26424 0.78011 0.0
O1399 O 0.00684 0.27276 0.788 0.0
H1400 H 0.04548 0.26159 0.77949 0.0
H1401 H 0.02683 0.28674 0.79889 0.0
O1402 O 0.03476 0.27807 0.75879 0.0
H1403 H 0.00615 0.31713 0.77922 0.0
H1404 H 0.0442 0.27821 0.81293 0.0
Cu1405 Cu 0.75463 0.01303 0.75589 0.0
N1406 N 0.75702 0.02251 0.76945 0.0
N1407 N 0.76499 0.0369 0.78095 0.0
C1408 C 0.76441 0.03199 0.77 0.0
C1409 C 0.75763 0.03023 0.78756 0.0
C1410 C 0.75272 0.02137 0.78044 0.0
O1411 O 0.75162 0.02395 0.74271 0.0
C1412 C 0.77146 0.99742 0.76398 0.0
O1413 O 0.76525 0.9991 0.77352 0.0
H1414 H 0.76955 0.03497 0.76255 0.0
H1415 H 0.74673 0.0144 0.78322 0.0
N1416 N 0.74148 0.0028 0.75684 0.0
N1417 N 0.72933 0.9876 0.752 0.0
C1418 C 0.73967 0.99327 0.74979 0.0
C1419 C 0.73193 0.00324 0.76377 0.0
C1420 C 0.72444 0.99382 0.76084 0.0
C1421 C 0.7427 0.0306 0.74428 0.0
O1422 O 0.73667 0.02916 0.75402 0.0
H1423 H 0.74586 0.99058 0.74313 0.0
H1424 H 0.73033 0.01006 0.77026 0.0
O1425 O 0.76849 0.00292 0.75445 0.0
H1426 H 0.75595 0.03159 0.79688 0.0
H1427 H 0.71591 0.99191 0.76466 0.0
Cu1428 Cu 0.253 0.76219 0.50714 0.0
N1429 N 0.25078 0.77616 0.51559 0.0
N1430 N 0.25407 0.78942 0.5301 0.0
C1431 C 0.25418 0.77784 0.52704 0.0
C1432 C 0.2504 0.79527 0.52019 0.0
C1433 C 0.24835 0.78704 0.51124 0.0
O1434 O 0.25519 0.74989 0.51916 0.0
C1435 C 0.27182 0.75813 0.49061 0.0
O1436 O 0.26927 0.74673 0.4912 0.0
H1437 H 0.25764 0.77083 0.53272 0.0
H1438 H 0.24606 0.78892 0.50203 0.0
N1439 N 0.23978 0.75876 0.49718 0.0
N1440 N 0.22873 0.75065 0.48238 0.0
C1441 C 0.2396 0.7514 0.48774 0.0
C1442 C 0.22863 0.76292 0.49777 0.0
C1443 C 0.22179 0.75795 0.48862 0.0
C1444 C 0.25078 0.73944 0.51854 0.0
O1445 O 0.24599 0.73567 0.50843 0.0
H1446 H 0.24731 0.74668 0.48485 0.0
H1447 H 0.22568 0.76907 0.50443 0.0
O1448 O 0.26648 0.76539 0.49721 0.0
H1449 H 0.2498 0.80482 0.51934 0.0
H1450 H 0.2124 0.75941 0.48686 0.0
Cu1451 Cu 0.76242 0.77756 0.48984 0.0
N1452 N 0.77662 0.77696 0.4816 0.0
N1453 N 0.7893 0.77055 0.46812 0.0
C1454 C 0.77817 0.76977 0.47224 0.0
C1455 C 0.79503 0.77854 0.47526 0.0
C1456 C 0.78716 0.78249 0.48357 0.0
O1457 O 0.74954 0.77583 0.47796 0.0
C1458 C 0.77105 0.7683 0.51053 0.0
O1459 O 0.77692 0.7784 0.50966 0.0
H1460 H 0.77128 0.76386 0.46872 0.0
H1461 H 0.78906 0.7888 0.49063 0.0
N1462 N 0.76009 0.792 0.4976 0.0
N1463 N 0.75307 0.80412 0.51141 0.0
C1464 C 0.75224 0.79331 0.50629 0.0
C1465 C 0.76606 0.80241 0.49708 0.0
C1466 C 0.76178 0.8099 0.50566 0.0
C1467 C 0.75038 0.78327 0.46947 0.0
O1468 O 0.75918 0.79105 0.46987 0.0
H1469 H 0.74645 0.7862 0.5092 0.0
H1470 H 0.77324 0.80429 0.49115 0.0
O1471 O 0.76356 0.76545 0.50225 0.0
H1472 H 0.80421 0.78135 0.47452 0.0
H1473 H 0.76493 0.81883 0.50762 0.0
Cu1474 Cu 0.76987 0.26157 0.5157 0.0
N1475 N 0.7701 0.24764 0.50658 0.0
N1476 N 0.76495 0.23525 0.49172 0.0
C1477 C 0.76339 0.24605 0.4966 0.0
C1478 C 0.77297 0.22979 0.49898 0.0
C1479 C 0.77616 0.23748 0.50813 0.0
O1480 O 0.76996 0.27453 0.50418 0.0
C1481 C 0.75566 0.25103 0.53185 0.0
O1482 O 0.7645 0.24354 0.53122 0.0
H1483 H 0.75729 0.25267 0.49313 0.0
H1484 H 0.78233 0.23569 0.51545 0.0
N1485 N 0.78317 0.26337 0.52593 0.0
N1486 N 0.79445 0.27047 0.54107 0.0
C1487 C 0.78376 0.2708 0.5353 0.0
C1488 C 0.79388 0.25816 0.52569 0.0
C1489 C 0.80085 0.26248 0.53507 0.0
C1490 C 0.7784 0.27373 0.4969 0.0
O1491 O 0.78618 0.26519 0.49843 0.0
H1492 H 0.77641 0.27629 0.53787 0.0
H1493 H 0.79652 0.25182 0.51909 0.0
O1494 O 0.75595 0.26047 0.5256 0.0
H1495 H 0.77635 0.22093 0.49774 0.0
H1496 H 0.80999 0.26013 0.53713 0.0
Cu1497 Cu 0.27188 0.26699 0.50848 0.0
N1498 N 0.2714 0.28045 0.51821 0.0
N1499 N 0.26549 0.29224 0.53283 0.0
C1500 C 0.26453 0.2814 0.52775 0.0
C1501 C 0.2733 0.29835 0.52621 0.0
C1502 C 0.27695 0.29105 0.51721 0.0
O1503 O 0.27432 0.25348 0.51912 0.0
C1504 C 0.25486 0.27639 0.49351 0.0
O1505 O 0.26198 0.28555 0.49542 0.0
H1506 H 0.25869 0.27435 0.53066 0.0
H1507 H 0.28296 0.29343 0.51025 0.0
N1508 N 0.28454 0.2675 0.49809 0.0
N1509 N 0.29554 0.26237 0.48269 0.0
C1510 C 0.28503 0.261 0.48808 0.0
C1511 C 0.2951 0.27322 0.4991 0.0
C1512 C 0.3019 0.27008 0.48961 0.0
C1513 C 0.28368 0.25455 0.52574 0.0
O1514 O 0.29032 0.26412 0.52456 0.0
H1515 H 0.27796 0.25502 0.48511 0.0
H1516 H 0.29783 0.27897 0.50638 0.0
O1517 O 0.25732 0.26654 0.49856 0.0
H1518 H 0.27615 0.30745 0.52773 0.0
H1519 H 0.31086 0.27314 0.48802 0.0
Cu1520 Cu 0.75767 0.52326 0.74755 0.0
N1521 N 0.7574 0.53321 0.73428 0.0
N1522 N 0.76297 0.54749 0.72172 0.0
C1523 C 0.76555 0.54168 0.73196 0.0
C1524 C 0.75282 0.5424 0.71738 0.0
C1525 C 0.7494 0.53359 0.72516 0.0
O1526 O 0.75646 0.53313 0.7616 0.0
C1527 C 0.77516 0.50604 0.75456 0.0
O1528 O 0.7698 0.50564 0.76478 0.0
H1529 H 0.77334 0.5434 0.73758 0.0
H1530 H 0.74162 0.5279 0.72425 0.0
N1531 N 0.74438 0.51318 0.74729 0.0
N1532 N 0.73315 0.49722 0.75135 0.0
C1533 C 0.74429 0.5015 0.74989 0.0
C1534 C 0.7329 0.51642 0.7469 0.0
C1535 C 0.72594 0.5066 0.74934 0.0
C1536 C 0.76404 0.54081 0.76536 0.0
O1537 O 0.77448 0.54151 0.76046 0.0
H1538 H 0.75228 0.49637 0.75117 0.0
H1539 H 0.72986 0.52543 0.74566 0.0
O1540 O 0.7718 0.51357 0.74676 0.0
H1541 H 0.7481 0.54496 0.70926 0.0
H1542 H 0.7164 0.5066 0.75034 0.0
Cu1543 Cu 0.26144 0.5106 0.76826 0.0
N1544 N 0.26149 0.50216 0.78246 0.0
N1545 N 0.267 0.48805 0.79537 0.0
C1546 C 0.26561 0.49106 0.78381 0.0
C1547 C 0.26355 0.49763 0.80155 0.0
C1548 C 0.26012 0.50634 0.79354 0.0
O1549 O 0.26211 0.49881 0.75573 0.0
C1550 C 0.27864 0.52853 0.76159 0.0
O1551 O 0.27392 0.52808 0.75077 0.0
H1552 H 0.26847 0.48566 0.77649 0.0
H1553 H 0.25756 0.51532 0.79562 0.0
N1554 N 0.24749 0.51931 0.76628 0.0
N1555 N 0.23533 0.5335 0.75937 0.0
C1556 C 0.2467 0.53038 0.76183 0.0
C1557 C 0.23622 0.51529 0.76688 0.0
C1558 C 0.22868 0.52404 0.76265 0.0
C1559 C 0.25694 0.4999 0.74558 0.0
O1560 O 0.25246 0.51022 0.74247 0.0
H1561 H 0.25438 0.53586 0.76003 0.0
H1562 H 0.23372 0.5064 0.76954 0.0
O1563 O 0.27493 0.52144 0.76951 0.0
H1564 H 0.26398 0.49846 0.81114 0.0
H1565 H 0.21913 0.52318 0.76142 0.0
Cu1566 Cu 0.27115 0.5021 0.26598 0.0
N1567 N 0.26967 0.49465 0.28075 0.0
N1568 N 0.26283 0.48141 0.29378 0.0
C1569 C 0.2619 0.48572 0.2826 0.0
C1570 C 0.27156 0.48792 0.29921 0.0
C1571 C 0.27572 0.49615 0.29116 0.0
O1572 O 0.27175 0.4894 0.25419 0.0
C1573 C 0.25957 0.5221 0.2718 0.0
O1574 O 0.26893 0.52215 0.27909 0.0
H1575 H 0.2559 0.48223 0.27573 0.0
H1576 H 0.28268 0.50269 0.29278 0.0
N1577 N 0.28517 0.51102 0.26447 0.0
N1578 N 0.29713 0.52496 0.25698 0.0
C1579 C 0.28638 0.51954 0.25619 0.0
C1580 C 0.29557 0.51092 0.27071 0.0
C1581 C 0.30296 0.51959 0.26614 0.0
C1582 C 0.2797 0.48179 0.25693 0.0
O1583 O 0.28623 0.48349 0.26668 0.0
H1584 H 0.27934 0.52191 0.24988 0.0
H1585 H 0.29766 0.505 0.27803 0.0
O1586 O 0.25815 0.51343 0.26457 0.0
H1587 H 0.27466 0.48684 0.30835 0.0
H1588 H 0.31194 0.52169 0.26924 0.0
Cu1589 Cu 0.77082 0.50788 0.24426 0.0
N1590 N 0.78483 0.49942 0.24698 0.0
N1591 N 0.79686 0.48544 0.25447 0.0
C1592 C 0.7855 0.48859 0.25203 0.0
C1593 C 0.80361 0.49462 0.25076 0.0
C1594 C 0.79616 0.50323 0.24611 0.0
O1595 O 0.75772 0.49641 0.24327 0.0
C1596 C 0.77631 0.52894 0.25562 0.0
O1597 O 0.78336 0.5295 0.24653 0.0
H1598 H 0.77778 0.48342 0.2545 0.0
H1599 H 0.79881 0.51184 0.24277 0.0
N1600 N 0.77082 0.51621 0.22984 0.0
N1601 N 0.76526 0.5298 0.21635 0.0
C1602 C 0.76255 0.52422 0.22655 0.0
C1603 C 0.77905 0.51664 0.2214 0.0
C1604 C 0.77565 0.52507 0.21306 0.0
C1605 C 0.75745 0.49009 0.23386 0.0
O1606 O 0.76578 0.49174 0.22606 0.0
H1607 H 0.755 0.52631 0.23189 0.0
H1608 H 0.78709 0.51145 0.22148 0.0
O1609 O 0.76969 0.51977 0.25684 0.0
H1610 H 0.81322 0.49518 0.25161 0.0
H1611 H 0.78053 0.52762 0.20529 0.0
Cu1612 Cu 0.51169 0.24934 0.76696 0.0
N1613 N 0.50329 0.24973 0.78108 0.0
N1614 N 0.48985 0.25554 0.79403 0.0
C1615 C 0.4939 0.25674 0.78293 0.0
C1616 C 0.49698 0.24748 0.79943 0.0
C1617 C 0.50522 0.24381 0.79137 0.0
O1618 O 0.50001 0.25021 0.75381 0.0
C1619 C 0.53015 0.26227 0.77679 0.0
O1620 O 0.52901 0.25364 0.78455 0.0
H1621 H 0.4902 0.26274 0.77629 0.0
H1622 H 0.51219 0.23739 0.79292 0.0
N1623 N 0.52021 0.23533 0.7653 0.0
N1624 N 0.53432 0.22331 0.75886 0.0
C1625 C 0.53104 0.23466 0.76058 0.0
C1626 C 0.51652 0.22401 0.7667 0.0
C1627 C 0.52521 0.21656 0.76267 0.0
C1628 C 0.49086 0.24352 0.75482 0.0
O1629 O 0.49015 0.23661 0.76419 0.0
H1630 H 0.53613 0.24235 0.75783 0.0
H1631 H 0.50794 0.22137 0.76997 0.0
O1632 O 0.52323 0.26237 0.76761 0.0
H1633 H 0.49619 0.24438 0.8085 0.0
H1634 H 0.52476 0.20695 0.76231 0.0
Cu1635 Cu 0.51663 0.76816 0.75703 0.0
N1636 N 0.52811 0.76809 0.76947 0.0
N1637 N 0.54432 0.76255 0.78003 0.0
C1638 C 0.53778 0.7611 0.76986 0.0
C1639 C 0.53852 0.77079 0.7863 0.0
C1640 C 0.52851 0.77414 0.7798 0.0
O1641 O 0.52536 0.76861 0.74232 0.0
C1642 C 0.50201 0.75273 0.76883 0.0
O1643 O 0.50525 0.76006 0.77744 0.0
H1644 H 0.53994 0.75506 0.76278 0.0
H1645 H 0.52182 0.78027 0.78262 0.0
N1646 N 0.50645 0.78125 0.75731 0.0
N1647 N 0.49068 0.79245 0.75251 0.0
C1648 C 0.49617 0.78198 0.7509 0.0
C1649 C 0.50754 0.79165 0.76317 0.0
C1650 C 0.49779 0.79855 0.76027 0.0
C1651 C 0.52994 0.77863 0.73963 0.0
O1652 O 0.52814 0.78778 0.74655 0.0
H1653 H 0.4928 0.77492 0.74516 0.0
H1654 H 0.51502 0.79422 0.76887 0.0
O1655 O 0.50634 0.75426 0.75859 0.0
H1656 H 0.54111 0.7739 0.79511 0.0
H1657 H 0.49625 0.80749 0.76335 0.0
Cu1658 Cu 0.50196 0.73988 0.25686 0.0
N1659 N 0.49164 0.73896 0.26955 0.0
N1660 N 0.47661 0.74414 0.28099 0.0
C1661 C 0.48184 0.74563 0.27043 0.0
C1662 C 0.4834 0.73617 0.28698 0.0
C1663 C 0.49267 0.73301 0.27991 0.0
O1664 O 0.49205 0.73961 0.24236 0.0
C1665 C 0.51682 0.75556 0.26878 0.0
O1666 O 0.51543 0.7473 0.27689 0.0
H1667 H 0.47896 0.75188 0.26364 0.0
H1668 H 0.49991 0.7272 0.28241 0.0
N1669 N 0.51271 0.72732 0.25658 0.0
N1670 N 0.52855 0.71699 0.2512 0.0
C1671 C 0.5225 0.72724 0.24999 0.0
C1672 C 0.5125 0.71672 0.26215 0.0
C1673 C 0.52231 0.71035 0.25889 0.0
C1674 C 0.48791 0.72954 0.23903 0.0
O1675 O 0.4909 0.72004 0.24516 0.0
H1676 H 0.52512 0.73461 0.24442 0.0
H1677 H 0.50556 0.71367 0.26789 0.0
O1678 O 0.51145 0.75434 0.25872 0.0
H1679 H 0.48193 0.73303 0.29592 0.0
H1680 H 0.52448 0.7014 0.26167 0.0
Cu1681 Cu 0.51306 0.2415 0.25126 0.0
N1682 N 0.5035 0.22776 0.25139 0.0
N1683 N 0.48836 0.21585 0.25627 0.0
C1684 C 0.49351 0.22667 0.25761 0.0
C1685 C 0.49544 0.20987 0.24892 0.0
C1686 C 0.50476 0.21725 0.24589 0.0
O1687 O 0.5022 0.2549 0.25016 0.0
C1688 C 0.52991 0.23165 0.2661 0.0
O1689 O 0.5283 0.22339 0.25796 0.0
H1690 H 0.49022 0.23368 0.26318 0.0
H1691 H 0.512 0.21502 0.24022 0.0
N1692 N 0.52273 0.2424 0.23808 0.0
N1693 N 0.53713 0.24936 0.2266 0.0
C1694 C 0.53184 0.25015 0.23718 0.0
C1695 C 0.52215 0.23649 0.22768 0.0
C1696 C 0.53109 0.24072 0.22059 0.0
C1697 C 0.49501 0.25419 0.2412 0.0
O1698 O 0.49589 0.24505 0.23403 0.0
H1699 H 0.53452 0.25626 0.24421 0.0
H1700 H 0.51556 0.22979 0.22527 0.0
O1701 O 0.52381 0.24112 0.26522 0.0
H1702 H 0.49398 0.20084 0.24586 0.0
H1703 H 0.53278 0.23791 0.2116 0.0
C1704 C 0.19115 0.20147 0.12941 0.0
C1705 C 0.19347 0.18925 0.13062 0.0
C1706 C 0.19488 0.20777 0.11945 0.0
C1707 C 0.21669 0.20735 0.09581 0.0
H1708 H 0.1949 0.22871 0.07938 0.0
C1709 C 0.22887 0.2296 0.05161 0.0
C1710 C 0.22548 0.24146 0.04978 0.0
C1711 C 0.22457 0.2231 0.06119 0.0
C1712 C 0.20116 0.22291 0.08394 0.0
H1713 H 0.20153 0.17412 0.12215 0.0
H1714 H 0.20826 0.1852 0.10492 0.0
H1715 H 0.18839 0.21778 0.09681 0.0
H1716 H 0.21489 0.25578 0.05653 0.0
H1717 H 0.20754 0.24454 0.07341 0.0
H1718 H 0.22956 0.2126 0.08316 0.0
C1719 C 0.20358 0.18988 0.11174 0.0
C1720 C 0.19741 0.21662 0.09391 0.0
C1721 C 0.19975 0.18355 0.12165 0.0
C1722 C 0.21754 0.24662 0.05763 0.0
C1723 C 0.21332 0.24015 0.0673 0.0
C1724 C 0.22049 0.21371 0.08591 0.0
C1725 C 0.20114 0.20205 0.11051 0.0
C1726 C 0.20512 0.20876 0.09994 0.0
C1727 C 0.21687 0.22833 0.06927 0.0
C1728 C 0.21277 0.22155 0.07981 0.0
H1729 H 0.18654 0.20622 0.13623 0.0
H1730 H 0.19302 0.21718 0.11883 0.0
H1731 H 0.22289 0.20148 0.10037 0.0
H1732 H 0.23482 0.22534 0.04559 0.0
H1733 H 0.22728 0.21395 0.06223 0.0
C1734 C 0.82334 0.22653 0.11395 0.0
C1735 C 0.8229 0.21407 0.11481 0.0
C1736 C 0.81868 0.23231 0.10386 0.0
C1737 C 0.79751 0.228 0.07842 0.0
H1738 H 0.81442 0.2547 0.06479 0.0
C1739 C 0.78348 0.24828 0.03303 0.0
C1740 C 0.78395 0.26071 0.03191 0.0
C1741 C 0.78827 0.24269 0.04316 0.0
C1742 C 0.80951 0.24735 0.06857 0.0
H1743 H 0.81744 0.19791 0.10556 0.0
H1744 H 0.80929 0.20799 0.08801 0.0
H1745 H 0.82272 0.2448 0.08242 0.0
H1746 H 0.78984 0.27703 0.04061 0.0
H1747 H 0.79808 0.26728 0.05834 0.0
H1748 H 0.78429 0.23056 0.0646 0.0
C1749 C 0.81307 0.21331 0.09522 0.0
C1750 C 0.81428 0.24167 0.07867 0.0
C1751 C 0.81774 0.20753 0.1053 0.0
C1752 C 0.78935 0.26743 0.04116 0.0
C1753 C 0.79414 0.26183 0.0513 0.0
C1754 C 0.79274 0.23369 0.06833 0.0
C1755 C 0.81344 0.22577 0.09439 0.0
C1756 C 0.80835 0.2319 0.0837 0.0
C1757 C 0.79365 0.24939 0.05244 0.0
C1758 C 0.79869 0.24342 0.06325 0.0
H1759 H 0.8271 0.23185 0.12118 0.0
H1760 H 0.81897 0.24193 0.10357 0.0
H1761 H 0.79261 0.22064 0.08218 0.0
H1762 H 0.77942 0.24283 0.02606 0.0
H1763 H 0.78788 0.23308 0.04366 0.0
C1764 C 0.81241 0.84018 0.10893 0.0
C1765 C 0.81537 0.83269 0.11856 0.0
C1766 C 0.8086 0.83543 0.09797 0.0
C1767 C 0.79549 0.8084 0.084 0.0
H1768 H 0.80556 0.82357 0.05495 0.0
C1769 C 0.77897 0.79205 0.0374 0.0
C1770 C 0.77443 0.80118 0.03011 0.0
C1771 C 0.78574 0.79479 0.04774 0.0
C1772 C 0.80266 0.81923 0.06298 0.0
H1773 H 0.81641 0.81428 0.12421 0.0
H1774 H 0.80992 0.806 0.10502 0.0
H1775 H 0.81359 0.83056 0.07409 0.0
H1776 H 0.77396 0.82027 0.02755 0.0
H1777 H 0.78577 0.82501 0.04537 0.0
H1778 H 0.78439 0.79721 0.07285 0.0
C1779 C 0.81049 0.81556 0.10598 0.0
C1780 C 0.80722 0.82327 0.07396 0.0
C1781 C 0.81433 0.82032 0.11695 0.0
C1782 C 0.77731 0.81303 0.033 0.0
C1783 C 0.78415 0.81575 0.0432 0.0
C1784 C 0.79094 0.80434 0.073 0.0
C1785 C 0.80763 0.82306 0.09633 0.0
C1786 C 0.8035 0.81809 0.08463 0.0
C1787 C 0.78822 0.8067 0.05085 0.0
C1788 C 0.79428 0.80988 0.06238 0.0
H1789 H 0.81323 0.84974 0.10979 0.0
H1790 H 0.80629 0.84149 0.0908 0.0
H1791 H 0.79235 0.80425 0.09203 0.0
H1792 H 0.77684 0.78284 0.03542 0.0
H1793 H 0.78884 0.78761 0.05342 0.0
C1794 C 0.20035 0.82342 0.10398 0.0
C1795 C 0.19507 0.81471 0.11117 0.0
C1796 C 0.20706 0.82018 0.09424 0.0
C1797 C 0.21204 0.79519 0.07363 0.0
H1798 H 0.24129 0.81221 0.06704 0.0
C1799 C 0.24472 0.7785 0.03894 0.0
C1800 C 0.25001 0.78694 0.03148 0.0
C1801 C 0.2381 0.78206 0.04862 0.0
C1802 C 0.23307 0.80746 0.06867 0.0
H1803 H 0.1929 0.79573 0.11379 0.0
H1804 H 0.20459 0.79007 0.09682 0.0
H1805 H 0.22959 0.81803 0.08398 0.0
H1806 H 0.25251 0.80581 0.02843 0.0
H1807 H 0.24093 0.81206 0.04534 0.0
H1808 H 0.21552 0.78461 0.05835 0.0
C1809 C 0.20339 0.79943 0.09861 0.0
C1810 C 0.22636 0.81079 0.07839 0.0
C1811 C 0.19668 0.80268 0.10835 0.0
C1812 C 0.24865 0.79907 0.03405 0.0
C1813 C 0.24201 0.80265 0.04375 0.0
C1814 C 0.21875 0.79186 0.06393 0.0
C1815 C 0.20866 0.80814 0.09142 0.0
C1816 C 0.21578 0.80467 0.08102 0.0
C1817 C 0.2366 0.79418 0.05111 0.0
C1818 C 0.22938 0.79791 0.06134 0.0
H1819 H 0.19915 0.83278 0.10577 0.0
H1820 H 0.21083 0.82712 0.0888 0.0
H1821 H 0.20384 0.79042 0.07526 0.0
H1822 H 0.2458 0.76909 0.03742 0.0
H1823 H 0.23428 0.7753 0.05424 0.0
C1824 C 0.19856 0.81173 0.89739 0.0
C1825 C 0.19455 0.80512 0.88744 0.0
C1826 C 0.20252 0.80604 0.90778 0.0
C1827 C 0.21505 0.77798 0.91895 0.0
H1828 H 0.2084 0.79188 0.94955 0.0
C1829 C 0.23659 0.76108 0.96363 0.0
C1830 C 0.24206 0.77033 0.97025 0.0
C1831 C 0.22878 0.76369 0.95401 0.0
C1832 C 0.2103 0.78786 0.94107 0.0
H1833 H 0.19152 0.78728 0.88065 0.0
H1834 H 0.19842 0.7773 0.89892 0.0
H1835 H 0.19853 0.79956 0.93159 0.0
H1836 H 0.24326 0.78946 0.97233 0.0
H1837 H 0.22967 0.79394 0.95584 0.0
H1838 H 0.22712 0.7665 0.92848 0.0
C1839 C 0.19853 0.78692 0.89861 0.0
C1840 C 0.20468 0.79229 0.93078 0.0
C1841 C 0.19449 0.79263 0.88819 0.0
C1842 C 0.23923 0.78213 0.96738 0.0
C1843 C 0.23135 0.78471 0.95797 0.0
C1844 C 0.22067 0.77352 0.92929 0.0
C1845 C 0.20259 0.79357 0.90853 0.0
C1846 C 0.20728 0.78767 0.91955 0.0
C1847 C 0.22616 0.77556 0.95104 0.0
C1848 C 0.21864 0.77868 0.94041 0.0
H1849 H 0.19859 0.82135 0.89717 0.0
H1850 H 0.20574 0.81145 0.91518 0.0
H1851 H 0.21728 0.77425 0.91044 0.0
H1852 H 0.23867 0.75191 0.96562 0.0
H1853 H 0.22489 0.75645 0.94883 0.0
C1854 C 0.22377 0.20345 0.90549 0.0
C1855 C 0.22083 0.19129 0.90498 0.0
C1856 C 0.22902 0.20838 0.91575 0.0
C1857 C 0.24493 0.2022 0.94425 0.0
H1858 H 0.2299 0.23144 0.95365 0.0
C1859 C 0.25327 0.22678 0.98995 0.0
C1860 C 0.25291 0.23924 0.98942 0.0
C1861 C 0.25093 0.22001 0.97962 0.0
C1862 C 0.23434 0.22337 0.9511 0.0
H1863 H 0.2217 0.17465 0.91467 0.0
H1864 H 0.23092 0.18334 0.93274 0.0
H1865 H 0.22294 0.22132 0.93572 0.0
H1866 H 0.25095 0.25441 0.97771 0.0
H1867 H 0.24733 0.24275 0.95979 0.0
H1868 H 0.25635 0.20437 0.9598 0.0
C1869 C 0.22915 0.18901 0.92513 0.0
C1870 C 0.23032 0.21755 0.9408 0.0
C1871 C 0.22387 0.18405 0.91479 0.0
C1872 C 0.25111 0.24481 0.97837 0.0
C1873 C 0.24895 0.23811 0.96812 0.0
C1874 C 0.24901 0.20809 0.95463 0.0
C1875 C 0.23147 0.2013 0.92582 0.0
C1876 C 0.23566 0.20701 0.93713 0.0
C1877 C 0.24829 0.22565 0.96868 0.0
C1878 C 0.24388 0.21887 0.95804 0.0
H1879 H 0.22181 0.20922 0.89798 0.0
H1880 H 0.23096 0.21783 0.91589 0.0
H1881 H 0.2492 0.19406 0.94165 0.0
H1882 H 0.25459 0.2223 0.99841 0.0
H1883 H 0.25051 0.21042 0.98034 0.0
C1884 C 0.83054 0.21678 0.88409 0.0
C1885 C 0.8383 0.20719 0.88587 0.0
C1886 C 0.82546 0.22235 0.8938 0.0
C1887 C 0.83035 0.229 0.92504 0.0
H1888 H 0.79607 0.23165 0.9266 0.0
C1889 C 0.80863 0.24611 0.96738 0.0
C1890 C 0.79813 0.2527 0.96622 0.0
C1891 C 0.81331 0.24047 0.95753 0.0
C1892 C 0.80567 0.2312 0.92625 0.0
H1893 H 0.84699 0.19601 0.89911 0.0
H1894 H 0.83836 0.20602 0.91614 0.0
H1895 H 0.80477 0.22235 0.90935 0.0
H1896 H 0.78433 0.25866 0.9539 0.0
H1897 H 0.79273 0.24928 0.93652 0.0
H1898 H 0.83142 0.2382 0.94162 0.0
C1899 C 0.83612 0.2091 0.90723 0.0
C1900 C 0.81063 0.2258 0.91638 0.0
C1901 C 0.841 0.20336 0.89752 0.0
C1902 C 0.79238 0.25353 0.95502 0.0
C1903 C 0.7972 0.24809 0.94509 0.0
C1904 C 0.82543 0.23461 0.9348 0.0
C1905 C 0.82825 0.21859 0.90545 0.0
C1906 C 0.823 0.22457 0.91575 0.0
C1907 C 0.80775 0.24148 0.94619 0.0
C1908 C 0.813 0.23571 0.93562 0.0
H1909 H 0.82828 0.21983 0.87518 0.0
H1910 H 0.81945 0.22969 0.89221 0.0
H1911 H 0.83993 0.22826 0.92468 0.0
H1912 H 0.81312 0.24519 0.97598 0.0
H1913 H 0.82125 0.23522 0.95888 0.0
C1914 C 0.80799 0.82552 0.88479 0.0
C1915 C 0.81057 0.8375 0.88223 0.0
C1916 C 0.80176 0.82243 0.89494 0.0
C1917 C 0.78164 0.83468 0.91724 0.0
H1918 H 0.79156 0.80732 0.93585 0.0
C1919 C 0.76282 0.82417 0.96349 0.0
C1920 C 0.76059 0.81218 0.9663 0.0
C1921 C 0.76865 0.82724 0.95308 0.0
C1922 C 0.78857 0.8149 0.93068 0.0
H1923 H 0.80875 0.85559 0.88851 0.0
H1924 H 0.79789 0.85019 0.9062 0.0
H1925 H 0.80228 0.81269 0.91808 0.0
H1926 H 0.76244 0.79407 0.9601 0.0
H1927 H 0.77256 0.79943 0.94198 0.0
H1928 H 0.76794 0.8369 0.92985 0.0
C1929 C 0.80052 0.8432 0.90025 0.0
C1930 C 0.79473 0.81799 0.92048 0.0
C1931 C 0.80676 0.84629 0.8901 0.0
C1932 C 0.76419 0.80337 0.95835 0.0
C1933 C 0.77001 0.80645 0.94794 0.0
C1934 C 0.77548 0.83159 0.92743 0.0
C1935 C 0.79795 0.83123 0.9028 0.0
C1936 C 0.79135 0.82792 0.91363 0.0
C1937 C 0.77239 0.81842 0.94522 0.0
C1938 C 0.77887 0.82167 0.93429 0.0
H1939 H 0.81061 0.81853 0.87883 0.0
H1940 H 0.79977 0.81314 0.89653 0.0
H1941 H 0.77868 0.84228 0.91207 0.0
H1942 H 0.76033 0.83118 0.96946 0.0
H1943 H 0.77048 0.83654 0.95135 0.0
C1944 C 0.1201 0.17352 0.22338 0.0
C1945 C 0.12137 0.1765 0.21133 0.0
C1946 C 0.11045 0.17765 0.2297 0.0
C1947 C 0.08018 0.19021 0.22545 0.0
H1948 H 0.08493 0.19984 0.25836 0.0
C1949 C 0.0445 0.21522 0.25132 0.0
C1950 C 0.04254 0.21152 0.26305 0.0
C1951 C 0.05403 0.21078 0.24504 0.0
C1952 C 0.08344 0.19708 0.24921 0.0
H1953 H 0.11333 0.18614 0.19648 0.0
H1954 H 0.09674 0.19365 0.20758 0.0
H1955 H 0.10173 0.19257 0.24734 0.0
H1956 H 0.04915 0.20032 0.27741 0.0
H1957 H 0.06581 0.19253 0.26644 0.0
H1958 H 0.06191 0.1949 0.22732 0.0
C1959 C 0.10311 0.18794 0.21212 0.0
C1960 C 0.09306 0.19288 0.24289 0.0
C1961 C 0.11273 0.18376 0.20578 0.0
C1962 C 0.05036 0.20327 0.26836 0.0
C1963 C 0.05996 0.1989 0.26212 0.0
C1964 C 0.07058 0.19448 0.23176 0.0
C1965 C 0.10183 0.18494 0.22416 0.0
C1966 C 0.09157 0.18939 0.23092 0.0
C1967 C 0.0619 0.20259 0.25038 0.0
C1968 C 0.07209 0.19796 0.24371 0.0
H1969 H 0.12665 0.16808 0.228 0.0
H1970 H 0.1097 0.17503 0.23891 0.0
H1971 H 0.07863 0.18741 0.21633 0.0
H1972 H 0.03857 0.22146 0.24692 0.0
H1973 H 0.05533 0.21387 0.23605 0.0
C1974 C 0.80902 0.12423 0.17834 0.0
C1975 C 0.81568 0.13128 0.1865 0.0
C1976 C 0.8028 0.11416 0.18214 0.0
C1977 C 0.79061 0.10023 0.20921 0.0
H1978 H 0.78892 0.07195 0.18955 0.0
C1979 C 0.77247 0.05535 0.22623 0.0
C1980 C 0.76487 0.04871 0.21852 0.0
C1981 C 0.77844 0.06546 0.22219 0.0
C1982 C 0.7892 0.07982 0.19508 0.0
H1983 H 0.82101 0.13313 0.20511 0.0
H1984 H 0.8105 0.11539 0.21166 0.0
H1985 H 0.80002 0.08932 0.18286 0.0
H1986 H 0.75761 0.04773 0.20045 0.0
H1987 H 0.76817 0.0653 0.19339 0.0
H1988 H 0.77993 0.09064 0.2215 0.0
C1989 C 0.8099 0.11777 0.20234 0.0
C1990 C 0.79556 0.0898 0.19125 0.0
C1991 C 0.81607 0.12788 0.19855 0.0
C1992 C 0.76347 0.05249 0.20662 0.0
C1993 C 0.76952 0.06258 0.20257 0.0
C1994 C 0.78432 0.09023 0.21307 0.0
C1995 C 0.80312 0.1108 0.19419 0.0
C1996 C 0.79636 0.10014 0.19827 0.0
C1997 C 0.77706 0.06919 0.21032 0.0
C1998 C 0.78355 0.0799 0.20606 0.0
H1999 H 0.80864 0.12645 0.16897 0.0
H2000 H 0.7976 0.1091 0.17562 0.0
H2001 H 0.79082 0.1081 0.21475 0.0
H2002 H 0.77402 0.05268 0.23537 0.0
H2003 H 0.78433 0.07024 0.22834 0.0
C2004 C 0.89217 0.83427 0.2142 0.0
C2005 C 0.88973 0.83211 0.20205 0.0
C2006 C 0.90213 0.82932 0.21996 0.0
C2007 C 0.93135 0.81588 0.21388 0.0
H2008 H 0.92948 0.8048 0.24644 0.0
C2009 C 0.96822 0.78804 0.23683 0.0
C2010 C 0.97177 0.79132 0.24847 0.0
C2011 C 0.95822 0.79313 0.23129 0.0
C2012 C 0.93016 0.80795 0.23738 0.0
H2013 H 0.89596 0.823 0.18645 0.0
H2014 H 0.91305 0.81404 0.19657 0.0
H2015 H 0.91193 0.81322 0.23649 0.0
H2016 H 0.96752 0.8024 0.26347 0.0
H2017 H 0.94996 0.81128 0.25379 0.0
H2018 H 0.94954 0.81039 0.21474 0.0
C2019 C 0.90739 0.81975 0.20162 0.0
C2020 C 0.92011 0.81281 0.23168 0.0
C2021 C 0.89747 0.82477 0.19584 0.0
C2022 C 0.96505 0.79976 0.25447 0.0
C2023 C 0.95495 0.80476 0.24897 0.0
C2024 C 0.94135 0.81093 0.21955 0.0
C2025 C 0.90989 0.82201 0.21374 0.0
C2026 C 0.92057 0.81683 0.21984 0.0
C2027 C 0.95147 0.80153 0.2373 0.0
C2028 C 0.94087 0.80691 0.23136 0.0
H2029 H 0.88633 0.83973 0.21932 0.0
H2030 H 0.90383 0.83137 0.22926 0.0
H2031 H 0.93212 0.81909 0.20485 0.0
H2032 H 0.97328 0.78168 0.23192 0.0
H2033 H 0.9557 0.79039 0.22233 0.0
C2034 C 0.1866 0.89107 0.1924 0.0
C2035 C 0.17943 0.88186 0.19685 0.0
C2036 C 0.19054 0.9004 0.19978 0.0
C2037 C 0.18395 0.91607 0.22759 0.0
H2038 H 0.21672 0.92689 0.22611 0.0
C2039 C 0.20455 0.95013 0.26111 0.0
C2040 C 0.21255 0.95862 0.2567 0.0
C2041 C 0.20038 0.94073 0.25392 0.0
C2042 C 0.2075 0.9241 0.22654 0.0
H2043 H 0.17092 0.87525 0.21265 0.0
H2044 H 0.17768 0.89159 0.22545 0.0
H2045 H 0.20967 0.9107 0.2133 0.0
H2046 H 0.22214 0.96408 0.24114 0.0
H2047 H 0.21482 0.94784 0.22859 0.0
H2048 H 0.18173 0.92954 0.24074 0.0
C2049 C 0.18015 0.89164 0.21621 0.0
C2050 C 0.20346 0.9148 0.2192 0.0
C2051 C 0.17626 0.88228 0.20886 0.0
C2052 C 0.21618 0.95757 0.2449 0.0
C2053 C 0.21198 0.94823 0.2377 0.0
C2054 C 0.18796 0.92543 0.2349 0.0
C2055 C 0.18737 0.90079 0.21177 0.0
C2056 C 0.19164 0.91068 0.21962 0.0
C2057 C 0.20408 0.93964 0.24212 0.0
C2058 C 0.19979 0.92959 0.23445 0.0
H2059 H 0.18906 0.89117 0.18317 0.0
H2060 H 0.19595 0.9074 0.19603 0.0
H2061 H 0.17474 0.9132 0.22802 0.0
H2062 H 0.20168 0.95062 0.2702 0.0
H2063 H 0.19444 0.9342 0.25769 0.0
C2064 C 0.10771 0.8199 0.8147 0.0
C2065 C 0.11774 0.82192 0.80778 0.0
C2066 C 0.09695 0.81605 0.80942 0.0
C2067 C 0.08011 0.81287 0.78061 0.0
H2068 H 0.06332 0.78846 0.79795 0.0
C2069 C 0.03995 0.78441 0.76148 0.0
C2070 C 0.03108 0.78144 0.76957 0.0
C2071 C 0.05015 0.79079 0.76534 0.0
C2072 C 0.06779 0.79539 0.79305 0.0
H2073 H 0.12423 0.82174 0.78982 0.0
H2074 H 0.10542 0.81486 0.78059 0.0
H2075 H 0.08181 0.79662 0.80621 0.0
H2076 H 0.02544 0.78369 0.78768 0.0
H2077 H 0.04295 0.79497 0.79427 0.0
H2078 H 0.06602 0.8114 0.76734 0.0
C2079 C 0.10586 0.8164 0.7901 0.0
C2080 C 0.07842 0.80009 0.7978 0.0
C2081 C 0.11664 0.82033 0.79539 0.0
C2082 C 0.03219 0.78571 0.78128 0.0
C2083 C 0.04227 0.79211 0.78508 0.0
C2084 C 0.06942 0.80811 0.77581 0.0
C2085 C 0.09593 0.81402 0.79709 0.0
C2086 C 0.08468 0.80898 0.79173 0.0
C2087 C 0.0516 0.79432 0.77731 0.0
C2088 C 0.06307 0.79941 0.78206 0.0
H2089 H 0.10818 0.82128 0.82423 0.0
H2090 H 0.08942 0.81459 0.81506 0.0
H2091 H 0.08468 0.81975 0.77572 0.0
H2092 H 0.03936 0.78118 0.75242 0.0
H2093 H 0.05718 0.79237 0.75913 0.0
C2094 C 0.20685 0.10737 0.82837 0.0
C2095 C 0.20477 0.11793 0.82198 0.0
C2096 C 0.20994 0.09697 0.82248 0.0
C2097 C 0.22349 0.08631 0.79518 0.0
H2098 H 0.21163 0.05578 0.80591 0.0
C2099 C 0.24158 0.04209 0.77702 0.0
C2100 C 0.24536 0.03436 0.78616 0.0
C2101 C 0.23426 0.05175 0.77956 0.0
C2102 C 0.215 0.06424 0.80278 0.0
H2103 H 0.20434 0.12581 0.80437 0.0
H2104 H 0.20969 0.10759 0.79408 0.0
H2105 H 0.20359 0.07401 0.81402 0.0
H2106 H 0.24387 0.03016 0.80486 0.0
H2107 H 0.2311 0.04675 0.80923 0.0
H2108 H 0.23519 0.07651 0.78423 0.0
C2109 C 0.20895 0.10739 0.80365 0.0
C2110 C 0.21043 0.07468 0.80746 0.0
C2111 C 0.2058 0.1178 0.80954 0.0
C2112 C 0.24111 0.03599 0.79764 0.0
C2113 C 0.23372 0.04548 0.80014 0.0
C2114 C 0.22808 0.07584 0.79049 0.0
C2115 C 0.21107 0.09685 0.81006 0.0
C2116 C 0.21486 0.08584 0.80397 0.0
C2117 C 0.23048 0.05368 0.79122 0.0
C2118 C 0.22413 0.06469 0.79451 0.0
H2119 H 0.20601 0.10712 0.83793 0.0
H2120 H 0.21167 0.08906 0.82772 0.0
H2121 H 0.22715 0.09475 0.79234 0.0
H2122 H 0.24481 0.04108 0.7681 0.0
H2123 H 0.23184 0.05787 0.77248 0.0
C2124 C 0.92128 0.19641 0.80159 0.0
C2125 C 0.91269 0.20331 0.80721 0.0
C2126 C 0.93162 0.20173 0.79723 0.0
C2127 C 0.95111 0.22688 0.80368 0.0
H2128 H 0.96289 0.22442 0.77171 0.0
C2129 C 0.98521 0.26008 0.78768 0.0
C2130 C 0.99487 0.2562 0.78112 0.0
C2131 C 0.97563 0.25255 0.7898 0.0
C2132 C 0.95981 0.22503 0.78072 0.0
H2133 H 0.90789 0.22134 0.81178 0.0
H2134 H 0.92598 0.23047 0.80452 0.0
H2135 H 0.94511 0.21298 0.77725 0.0
H2136 H 1.0018 0.24148 0.77115 0.0
H2137 H 0.98491 0.22804 0.77508 0.0
H2138 H 0.96564 0.23878 0.80731 0.0
C2139 C 0.92478 0.22095 0.80362 0.0
C2140 C 0.94964 0.21852 0.78387 0.0
C2141 C 0.91445 0.21568 0.80784 0.0
C2142 C 0.99449 0.24469 0.77627 0.0
C2143 C 0.98483 0.23702 0.77851 0.0
C2144 C 0.96126 0.23324 0.8006 0.0
C2145 C 0.93359 0.21402 0.79851 0.0
C2146 C 0.94502 0.21969 0.79529 0.0
C2147 C 0.97543 0.24082 0.78557 0.0
C2148 C 0.96553 0.23272 0.78899 0.0
H2149 H 0.92025 0.18685 0.80099 0.0
H2150 H 0.9383 0.1962 0.79332 0.0
H2151 H 0.94789 0.22774 0.81262 0.0
H2152 H 0.98508 0.26899 0.79132 0.0
H2153 H 0.96838 0.25593 0.79492 0.0
C2154 C 0.82336 0.9053 0.78465 0.0
C2155 C 0.8258 0.90546 0.79699 0.0
C2156 C 0.81985 0.91567 0.77865 0.0
C2157 C 0.81948 0.94853 0.78166 0.0
H2158 H 0.79121 0.94669 0.76112 0.0
C2159 C 0.78724 0.9869 0.77552 0.0
C2160 C 0.78119 0.98871 0.76458 0.0
C2161 C 0.79505 0.97746 0.77704 0.0
C2162 C 0.79928 0.94735 0.7666 0.0
H2163 H 0.82689 0.91672 0.81261 0.0
H2164 H 0.82069 0.93471 0.80224 0.0
H2165 H 0.80037 0.92844 0.76854 0.0
H2166 H 0.77892 0.98238 0.74648 0.0
H2167 H 0.79262 0.96561 0.74919 0.0
H2168 H 0.81811 0.96742 0.78012 0.0
C2169 C 0.82153 0.92662 0.79715 0.0
C2170 C 0.80451 0.93688 0.77088 0.0
C2171 C 0.82494 0.91627 0.80313 0.0
C2172 C 0.78355 0.98121 0.75498 0.0
C2173 C 0.79129 0.97159 0.75656 0.0
C2174 C 0.81426 0.95896 0.77739 0.0
C2175 C 0.81884 0.92644 0.78486 0.0
C2176 C 0.81443 0.93738 0.77879 0.0
C2177 C 0.79694 0.96949 0.7677 0.0
C2178 C 0.80385 0.95851 0.77015 0.0
H2179 H 0.82388 0.8971 0.77967 0.0
H2180 H 0.81789 0.91526 0.76918 0.0
H2181 H 0.82727 0.9492 0.78753 0.0
H2182 H 0.78559 0.99256 0.78307 0.0
H2183 H 0.79912 0.97605 0.78578 0.0
C2184 C 0.19503 0.09637 0.21021 0.0
C2185 C 0.19913 0.10164 0.19972 0.0
C2186 C 0.19971 0.08566 0.21436 0.0
C2187 C 0.22509 0.06704 0.21655 0.0
H2188 H 0.20217 0.04149 0.22066 0.0
C2189 C 0.23715 0.02239 0.24045 0.0
C2190 C 0.22872 0.0187 0.24872 0.0
C2191 C 0.23449 0.03161 0.23237 0.0
C2192 C 0.20871 0.04852 0.21961 0.0
H2193 H 0.21178 0.09977 0.18561 0.0
H2194 H 0.2203 0.0812 0.19325 0.0
H2195 H 0.19597 0.05981 0.21084 0.0
H2196 H 0.21085 0.02167 0.25482 0.0
H2197 H 0.20636 0.03758 0.2411 0.0
H2198 H 0.23766 0.05603 0.22601 0.0
C2199 C 0.21329 0.08542 0.19807 0.0
C2200 C 0.20515 0.05897 0.21393 0.0
C2201 C 0.20843 0.09608 0.19376 0.0
C2202 C 0.21758 0.02424 0.24859 0.0
C2203 C 0.21494 0.03334 0.2406 0.0
C2204 C 0.22864 0.05659 0.22242 0.0
C2205 C 0.2088 0.08004 0.20829 0.0
C2206 C 0.21321 0.06844 0.21264 0.0
C2207 C 0.22333 0.0372 0.23239 0.0
C2208 C 0.22036 0.04737 0.22437 0.0
H2209 H 0.18817 0.10051 0.2153 0.0
H2210 H 0.19623 0.08176 0.22237 0.0
H2211 H 0.23145 0.07426 0.21566 0.0
H2212 H 0.24583 0.01832 0.24034 0.0
H2213 H 0.24114 0.03436 0.22614 0.0
C2214 C 0.20373 0.90038 0.82466 0.0
C2215 C 0.20657 0.88946 0.81953 0.0
C2216 C 0.21044 0.9106 0.82228 0.0
C2217 C 0.23943 0.92039 0.8095 0.0
H2218 H 0.22441 0.95125 0.80964 0.0
C2219 C 0.26015 0.9641 0.79108 0.0
C2220 C 0.26068 0.97361 0.79916 0.0
C2221 C 0.25393 0.95366 0.79379 0.0
C2222 C 0.22871 0.94268 0.80963 0.0
H2223 H 0.21843 0.88063 0.80768 0.0
H2224 H 0.22977 0.89851 0.80294 0.0
H2225 H 0.21256 0.93347 0.8134 0.0
H2226 H 0.25505 0.97976 0.81632 0.0
H2227 H 0.24383 0.96159 0.82092 0.0
H2228 H 0.25546 0.92975 0.80516 0.0
C2229 C 0.22269 0.89922 0.8092 0.0
C2230 C 0.22196 0.93245 0.81187 0.0
C2231 C 0.21613 0.88896 0.81181 0.0
C2232 C 0.25487 0.9725 0.81 0.0
C2233 C 0.24841 0.96217 0.81259 0.0
C2234 C 0.2461 0.9306 0.807 0.0
C2235 C 0.22002 0.9102 0.81447 0.0
C2236 C 0.22721 0.92113 0.81191 0.0
C2237 C 0.24788 0.95267 0.8045 0.0
C2238 C 0.24082 0.94184 0.80711 0.0
H2239 H 0.19647 0.90096 0.83076 0.0
H2240 H 0.20821 0.91875 0.82675 0.0
H2241 H 0.24393 0.91194 0.80969 0.0
H2242 H 0.26459 0.96475 0.78269 0.0
H2243 H 0.25361 0.94645 0.7874 0.0
C2244 C 0.13737 0.21676 0.83583 0.0
C2245 C 0.13818 0.20472 0.83259 0.0
C2246 C 0.12763 0.22355 0.83206 0.0
C2247 C 0.10386 0.22531 0.80904 0.0
H2248 H 0.08826 0.24528 0.8318 0.0
C2249 C 0.05986 0.24905 0.79714 0.0
C2250 C 0.05821 0.26053 0.80168 0.0
C2251 C 0.06955 0.24224 0.801 0.0
C2252 C 0.0926 0.2399 0.82527 0.0
H2253 H 0.12922 0.19043 0.82283 0.0
H2254 H 0.11234 0.20237 0.81605 0.0
H2255 H 0.10538 0.23352 0.83821 0.0
H2256 H 0.0655 0.27388 0.81374 0.0
H2257 H 0.08258 0.26212 0.82032 0.0
H2258 H 0.09128 0.2318 0.79604 0.0
C2259 C 0.11932 0.20653 0.82149 0.0
C2260 C 0.1024 0.23312 0.82897 0.0
C2261 C 0.12902 0.1997 0.82535 0.0
C2262 C 0.06646 0.26502 0.81019 0.0
C2263 C 0.07623 0.25825 0.81398 0.0
C2264 C 0.09414 0.23216 0.80531 0.0
C2265 C 0.11849 0.21851 0.82486 0.0
C2266 C 0.10811 0.22573 0.82091 0.0
C2267 C 0.07792 0.24676 0.80942 0.0
C2268 C 0.08835 0.23953 0.81338 0.0
H2269 H 0.14435 0.22101 0.84118 0.0
H2270 H 0.12732 0.2328 0.83465 0.0
H2271 H 0.10818 0.21981 0.80259 0.0
H2272 H 0.05354 0.24526 0.79072 0.0
H2273 H 0.07039 0.23335 0.79746 0.0
C2274 C 0.82898 0.12344 0.80314 0.0
C2275 C 0.8326 0.12456 0.81516 0.0
C2276 C 0.82202 0.11371 0.7993 0.0
C2277 C 0.8013 0.091 0.81067 0.0
H2278 H 0.80635 0.07542 0.78053 0.0
C2279 C 0.77624 0.04789 0.79677 0.0
C2280 C 0.77237 0.04682 0.78482 0.0
C2281 C 0.78368 0.05731 0.80043 0.0
C2282 C 0.80473 0.07976 0.78891 0.0
H2283 H 0.83223 0.11604 0.83246 0.0
H2284 H 0.82014 0.0991 0.82577 0.0
H2285 H 0.81943 0.0918 0.7869 0.0
H2286 H 0.77307 0.05505 0.76741 0.0
H2287 H 0.78598 0.07149 0.77378 0.0
H2288 H 0.78659 0.07903 0.81268 0.0
C2289 C 0.82245 0.10586 0.81935 0.0
C2290 C 0.81224 0.08914 0.79256 0.0
C2291 C 0.82939 0.11556 0.82318 0.0
C2292 C 0.77603 0.05548 0.77664 0.0
C2293 C 0.78346 0.06491 0.78029 0.0
C2294 C 0.79379 0.08164 0.80702 0.0
C2295 C 0.81854 0.10489 0.8074 0.0
C2296 C 0.81063 0.09486 0.80349 0.0
C2297 C 0.78741 0.06592 0.79223 0.0
C2298 C 0.79541 0.0759 0.7961 0.0
H2299 H 0.83118 0.13027 0.79677 0.0
H2300 H 0.81907 0.1133 0.79006 0.0
H2301 H 0.79967 0.09535 0.81904 0.0
H2302 H 0.77374 0.0413 0.80328 0.0
H2303 H 0.78669 0.05772 0.80966 0.0
C2304 C 0.90024 0.81485 0.81965 0.0
C2305 C 0.89098 0.81774 0.8115 0.0
C2306 C 0.90995 0.80821 0.81604 0.0
C2307 C 0.92588 0.79954 0.78906 0.0
H2308 H 0.94043 0.77619 0.81011 0.0
C2309 C 0.97064 0.77806 0.77861 0.0
C2310 C 0.97204 0.7659 0.78106 0.0
C2311 C 0.96073 0.78416 0.78253 0.0
C2312 C 0.93641 0.7826 0.80407 0.0
H2313 H 0.88453 0.81565 0.79327 0.0
H2314 H 0.90138 0.80398 0.787 0.0
H2315 H 0.92296 0.78691 0.81639 0.0
H2316 H 0.9641 0.75062 0.78961 0.0
H2317 H 0.94669 0.76122 0.79636 0.0
H2318 H 0.93913 0.79505 0.77662 0.0
C2319 C 0.90128 0.80705 0.79612 0.0
C2320 C 0.92647 0.78886 0.80774 0.0
C2321 C 0.89161 0.81373 0.79971 0.0
C2322 C 0.96334 0.76 0.78766 0.0
C2323 C 0.95337 0.7661 0.79154 0.0
C2324 C 0.93578 0.79326 0.78538 0.0
C2325 C 0.91062 0.80426 0.80422 0.0
C2326 C 0.9211 0.79744 0.80029 0.0
C2327 C 0.95191 0.77824 0.78896 0.0
C2328 C 0.94122 0.78475 0.79286 0.0
H2329 H 0.9001 0.81793 0.82876 0.0
H2330 H 0.91705 0.8064 0.82248 0.0
H2331 H 0.92208 0.80617 0.78313 0.0
H2332 H 0.97729 0.78293 0.77377 0.0
H2333 H 0.96006 0.79356 0.7806 0.0
C2334 C 0.80459 0.91074 0.20375 0.0
C2335 C 0.81569 0.91124 0.19837 0.0
C2336 C 0.80032 0.92061 0.20981 0.0
C2337 C 0.81032 0.94939 0.22345 0.0
H2338 H 0.77657 0.95616 0.2221 0.0
C2339 C 0.78978 0.99431 0.23731 0.0
C2340 C 0.77902 0.99383 0.24339 0.0
C2341 C 0.7949 0.9839 0.23309 0.0
C2342 C 0.786 0.95431 0.22268 0.0
H2343 H 0.83089 0.92254 0.19481 0.0
H2344 H 0.82333 0.93985 0.20504 0.0
H2345 H 0.78394 0.9389 0.2117 0.0
H2346 H 0.76559 0.98193 0.25036 0.0
H2347 H 0.77451 0.96384 0.24295 0.0
H2348 H 0.81234 0.9651 0.23415 0.0
C2349 C 0.81804 0.93176 0.20494 0.0
C2350 C 0.79024 0.94438 0.21673 0.0
C2351 C 0.82235 0.92186 0.199 0.0
C2352 C 0.77386 0.98265 0.24569 0.0
C2353 C 0.77891 0.97228 0.24137 0.0
C2354 C 0.80608 0.95941 0.2293 0.0
C2355 C 0.807 0.93126 0.21052 0.0
C2356 C 0.80247 0.94178 0.217 0.0
C2357 C 0.78932 0.97281 0.23477 0.0
C2358 C 0.79387 0.96197 0.22897 0.0
H2359 H 0.79933 0.90262 0.20355 0.0
H2360 H 0.79188 0.91978 0.21414 0.0
H2361 H 0.81976 0.94759 0.22407 0.0
H2362 H 0.794 0.00276 0.23539 0.0
H2363 H 0.80291 0.9846 0.22801 0.0
C2364 C 0.09459 0.80837 0.17257 0.0
C2365 C 0.10575 0.80326 0.17492 0.0
C2366 C 0.08432 0.80344 0.17735 0.0
C2367 C 0.07245 0.77718 0.19406 0.0
H2368 H 0.05147 0.80089 0.20666 0.0
C2369 C 0.03165 0.7656 0.22335 0.0
C2370 C 0.03074 0.77286 0.23345 0.0
C2371 C 0.03973 0.76852 0.21446 0.0
C2372 C 0.05722 0.79413 0.20319 0.0
H2373 H 0.11488 0.78872 0.18374 0.0
H2374 H 0.09704 0.78029 0.19244 0.0
H2375 H 0.06766 0.80707 0.19426 0.0
H2376 H 0.03765 0.78886 0.24209 0.0
H2377 H 0.05158 0.7938 0.22688 0.0
H2378 H 0.06227 0.76433 0.20369 0.0
C2379 C 0.09611 0.78795 0.18667 0.0
C2380 C 0.06645 0.79766 0.19592 0.0
C2381 C 0.10637 0.7928 0.18173 0.0
C2382 C 0.03802 0.78306 0.23444 0.0
C2383 C 0.046 0.78597 0.22563 0.0
C2384 C 0.0632 0.77365 0.20143 0.0
C2385 C 0.08498 0.79338 0.1848 0.0
C2386 C 0.07436 0.78929 0.19143 0.0
C2387 C 0.04695 0.7788 0.21551 0.0
C2388 C 0.05568 0.78214 0.20634 0.0
H2389 H 0.09384 0.81634 0.16721 0.0
H2390 H 0.07589 0.8077 0.17544 0.0
H2391 H 0.07823 0.77045 0.19062 0.0
H2392 H 0.02619 0.75767 0.22234 0.0
H2393 H 0.04026 0.76282 0.20675 0.0
C2394 C 0.9082 0.1961 0.20058 0.0
C2395 C 0.89989 0.20432 0.19605 0.0
C2396 C 0.91851 0.19996 0.20671 0.0
C2397 C 0.93859 0.22579 0.212 0.0
H2398 H 0.94726 0.20834 0.24063 0.0
C2399 C 0.97699 0.23966 0.24588 0.0
C2400 C 0.98349 0.23024 0.25098 0.0
C2401 C 0.96709 0.23731 0.23829 0.0
C2402 C 0.94507 0.21324 0.23258 0.0
H2403 H 0.89607 0.22311 0.19429 0.0
H2404 H 0.91416 0.22985 0.20498 0.0
H2405 H 0.92944 0.20268 0.22923 0.0
H2406 H 0.98534 0.21109 0.2514 0.0
H2407 H 0.96846 0.20704 0.23805 0.0
H2408 H 0.95435 0.23634 0.21545 0.0
C2409 C 0.91269 0.22041 0.20369 0.0
C2410 C 0.93482 0.20999 0.22604 0.0
C2411 C 0.90232 0.21654 0.19757 0.0
C2412 C 0.98039 0.21854 0.24777 0.0
C2413 C 0.97065 0.21621 0.24017 0.0
C2414 C 0.94892 0.22905 0.21857 0.0
C2415 C 0.92083 0.21215 0.20847 0.0
C2416 C 0.93153 0.2161 0.21558 0.0
C2417 C 0.96361 0.22551 0.23566 0.0
C2418 C 0.95237 0.22267 0.22884 0.0
H2419 H 0.90676 0.18665 0.19935 0.0
H2420 H 0.92471 0.19337 0.21005 0.0
H2421 H 0.9363 0.23066 0.20396 0.0
H2422 H 0.97917 0.24877 0.24824 0.0
H2423 H 0.96186 0.24468 0.23493 0.0
C2424 C 0.20863 0.68802 0.60414 0.0
C2425 C 0.20804 0.69555 0.61406 0.0
C2426 C 0.21435 0.69176 0.59388 0.0
C2427 C 0.23669 0.71312 0.58312 0.0
H2428 H 0.22065 0.70854 0.55246 0.0
C2429 C 0.25081 0.73804 0.54079 0.0
C2430 C 0.24888 0.73261 0.52963 0.0
C2431 C 0.24713 0.73243 0.55118 0.0
C2432 C 0.22541 0.7097 0.5609 0.0
H2433 H 0.21318 0.71284 0.62108 0.0
H2434 H 0.22317 0.71939 0.60317 0.0
H2435 H 0.21156 0.70093 0.57035 0.0
H2436 H 0.2423 0.71667 0.52075 0.0
H2437 H 0.23624 0.70671 0.53889 0.0
H2438 H 0.25056 0.72186 0.57372 0.0
C2439 C 0.21922 0.71057 0.60333 0.0
C2440 C 0.22014 0.70537 0.57118 0.0
C2441 C 0.21339 0.70688 0.61354 0.0
C2442 C 0.24384 0.72114 0.52918 0.0
C2443 C 0.24025 0.71547 0.53959 0.0
C2444 C 0.24202 0.71736 0.57283 0.0
C2445 C 0.21973 0.70308 0.59337 0.0
C2446 C 0.22565 0.70716 0.58242 0.0
C2447 C 0.24153 0.72119 0.55069 0.0
C2448 C 0.23638 0.71584 0.56159 0.0
H2449 H 0.20453 0.67927 0.60424 0.0
H2450 H 0.21465 0.68576 0.58638 0.0
H2451 H 0.24124 0.71448 0.59164 0.0
H2452 H 0.25462 0.7469 0.54148 0.0
H2453 H 0.24818 0.73718 0.55951 0.0
C2454 C 0.81684 0.72499 0.59873 0.0
C2455 C 0.81764 0.7126 0.59993 0.0
C2456 C 0.81104 0.73001 0.58883 0.0
C2457 C 0.78921 0.72394 0.56431 0.0
H2458 H 0.80422 0.7516 0.55041 0.0
C2459 C 0.77281 0.74824 0.5205 0.0
C2460 C 0.77361 0.7607 0.521 0.0
C2461 C 0.77727 0.74135 0.53004 0.0
C2462 C 0.79985 0.74394 0.55423 0.0
H2463 H 0.81288 0.69575 0.59161 0.0
H2464 H 0.8027 0.70456 0.57428 0.0
H2465 H 0.814 0.74158 0.56708 0.0
H2466 H 0.77871 0.77571 0.53218 0.0
H2467 H 0.78619 0.76382 0.54869 0.0
H2468 H 0.775 0.72645 0.55136 0.0
C2469 C 0.80649 0.71037 0.5811 0.0
C2470 C 0.80546 0.7382 0.56381 0.0
C2471 C 0.81233 0.70534 0.59102 0.0
C2472 C 0.77817 0.76612 0.53143 0.0
C2473 C 0.78252 0.7593 0.54089 0.0
C2474 C 0.78357 0.72972 0.55467 0.0
C2475 C 0.80588 0.72278 0.57984 0.0
C2476 C 0.80012 0.72828 0.56913 0.0
C2477 C 0.78253 0.74686 0.54016 0.0
C2478 C 0.78873 0.73994 0.5497 0.0
H2479 H 0.82059 0.73085 0.60553 0.0
H2480 H 0.81051 0.7396 0.58826 0.0
H2481 H 0.78487 0.71632 0.56824 0.0
H2482 H 0.76934 0.74385 0.51255 0.0
H2483 H 0.77712 0.73176 0.52926 0.0
C2484 C 0.83251 0.31962 0.63178 0.0
C2485 C 0.82909 0.3315 0.63333 0.0
C2486 C 0.82858 0.31314 0.6218 0.0
C2487 C 0.80517 0.31169 0.59825 0.0
H2488 H 0.82812 0.29282 0.58169 0.0
C2489 C 0.79345 0.28863 0.55339 0.0
C2490 C 0.79826 0.27736 0.55134 0.0
C2491 C 0.79714 0.29532 0.56333 0.0
C2492 C 0.82154 0.2979 0.58628 0.0
H2493 H 0.81865 0.34579 0.62553 0.0
H2494 H 0.81162 0.33439 0.60819 0.0
H2495 H 0.83449 0.30425 0.59916 0.0
H2496 H 0.81059 0.26421 0.55827 0.0
H2497 H 0.81689 0.27576 0.57571 0.0
H2498 H 0.79217 0.30521 0.5855 0.0
C2499 C 0.81736 0.33011 0.61476 0.0
C2500 C 0.82521 0.30449 0.59629 0.0
C2501 C 0.82138 0.33664 0.62473 0.0
C2502 C 0.80683 0.27293 0.5595 0.0
C2503 C 0.81046 0.27958 0.56949 0.0
C2504 C 0.80147 0.30502 0.58828 0.0
C2505 C 0.82101 0.31832 0.61314 0.0
C2506 C 0.81707 0.31144 0.60241 0.0
C2507 C 0.80568 0.29089 0.57154 0.0
C2508 C 0.8096 0.29802 0.58216 0.0
H2509 H 0.8382 0.31525 0.63834 0.0
H2510 H 0.83137 0.30401 0.62093 0.0
H2511 H 0.79865 0.31685 0.60284 0.0
H2512 H 0.78698 0.29239 0.54719 0.0
H2513 H 0.79341 0.30407 0.56446 0.0
C2514 C 0.20918 0.31809 0.62067 0.0
C2515 C 0.20668 0.33026 0.6217 0.0
C2516 C 0.21517 0.31382 0.61085 0.0
C2517 C 0.23551 0.32381 0.58766 0.0
H2518 H 0.22651 0.29415 0.57221 0.0
C2519 C 0.25654 0.30862 0.54407 0.0
C2520 C 0.25908 0.29648 0.54288 0.0
C2521 C 0.25005 0.31266 0.55365 0.0
C2522 C 0.22923 0.30239 0.57651 0.0
H2523 H 0.20803 0.34737 0.61291 0.0
H2524 H 0.21849 0.33992 0.59583 0.0
H2525 H 0.2151 0.30126 0.58886 0.0
H2526 H 0.25704 0.27914 0.55102 0.0
H2527 H 0.24579 0.28619 0.56776 0.0
H2528 H 0.24967 0.32493 0.5754 0.0
C2529 C 0.21603 0.33372 0.60273 0.0
C2530 C 0.22267 0.30646 0.58604 0.0
C2531 C 0.21003 0.33799 0.61252 0.0
C2532 C 0.25507 0.28851 0.55156 0.0
C2533 C 0.24861 0.29255 0.56115 0.0
C2534 C 0.24207 0.31973 0.57816 0.0
C2535 C 0.21881 0.32162 0.60185 0.0
C2536 C 0.22572 0.31724 0.59171 0.0
C2537 C 0.24598 0.30468 0.56229 0.0
C2538 C 0.23901 0.30898 0.57245 0.0
H2539 H 0.20684 0.31193 0.62764 0.0
H2540 H 0.21728 0.30446 0.61048 0.0
H2541 H 0.23822 0.33205 0.59197 0.0
H2542 H 0.25934 0.31497 0.53746 0.0
H2543 H 0.24803 0.32203 0.55415 0.0
C2544 C 0.19458 0.31698 0.41309 0.0
C2545 C 0.19248 0.30999 0.40289 0.0
C2546 C 0.19976 0.31207 0.42337 0.0
C2547 C 0.20737 0.28399 0.439 0.0
H2548 H 0.23196 0.30393 0.45371 0.0
C2549 C 0.24159 0.26911 0.47656 0.0
C2550 C 0.2447 0.27785 0.48504 0.0
C2551 C 0.23378 0.27183 0.46697 0.0
C2552 C 0.22501 0.29829 0.44983 0.0
H2553 H 0.19373 0.29223 0.39564 0.0
H2554 H 0.20294 0.28363 0.41366 0.0
H2555 H 0.22116 0.31094 0.43616 0.0
H2556 H 0.24133 0.29581 0.49083 0.0
H2557 H 0.22753 0.30041 0.47448 0.0
H2558 H 0.21146 0.27127 0.45277 0.0
C2559 C 0.20047 0.2929 0.4137 0.0
C2560 C 0.2188 0.30233 0.43974 0.0
C2561 C 0.19521 0.29782 0.40338 0.0
C2562 C 0.23918 0.28896 0.48433 0.0
C2563 C 0.23135 0.29162 0.47491 0.0
C2564 C 0.21364 0.27992 0.44917 0.0
C2565 C 0.20306 0.30005 0.42372 0.0
C2566 C 0.20979 0.29533 0.43428 0.0
C2567 C 0.22896 0.2833 0.46582 0.0
C2568 C 0.22241 0.28713 0.4548 0.0
H2569 H 0.19233 0.32631 0.41308 0.0
H2570 H 0.20134 0.31777 0.43102 0.0
H2571 H 0.20047 0.27839 0.43499 0.0
H2572 H 0.2458 0.26049 0.47688 0.0
H2573 H 0.2321 0.26523 0.46011 0.0
C2574 C 0.19209 0.69778 0.39366 0.0
C2575 C 0.19657 0.68633 0.39174 0.0
C2576 C 0.19625 0.70466 0.40325 0.0
C2577 C 0.21146 0.70235 0.43278 0.0
H2578 H 0.21449 0.73654 0.42942 0.0
C2579 C 0.23126 0.73265 0.47013 0.0
C2580 C 0.22532 0.74335 0.47228 0.0
C2581 C 0.22811 0.72562 0.46027 0.0
C2582 C 0.21359 0.72701 0.43053 0.0
H2583 H 0.20917 0.67328 0.39836 0.0
H2584 H 0.21667 0.68544 0.41502 0.0
H2585 H 0.20893 0.72446 0.41213 0.0
H2586 H 0.21141 0.75502 0.4657 0.0
H2587 H 0.20584 0.74271 0.44848 0.0
H2588 H 0.21621 0.70495 0.45119 0.0
C2589 C 0.20975 0.68899 0.40917 0.0
C2590 C 0.21039 0.72007 0.42062 0.0
C2591 C 0.20555 0.68206 0.39955 0.0
C2592 C 0.2161 0.74681 0.46434 0.0
C2593 C 0.213 0.73981 0.45442 0.0
C2594 C 0.21473 0.70929 0.44268 0.0
C2595 C 0.20509 0.70035 0.41119 0.0
C2596 C 0.20917 0.70765 0.42162 0.0
C2597 C 0.21898 0.72914 0.45227 0.0
C2598 C 0.21573 0.72172 0.4417 0.0
H2599 H 0.18533 0.70146 0.38772 0.0
H2600 H 0.19233 0.71329 0.40457 0.0
H2601 H 0.21044 0.69284 0.43394 0.0
H2602 H 0.2383 0.72964 0.47614 0.0
H2603 H 0.23294 0.7175 0.45883 0.0
C2604 C 0.83505 0.70883 0.39222 0.0
C2605 C 0.82686 0.70448 0.38354 0.0
C2606 C 0.8313 0.71616 0.4014 0.0
C2607 C 0.80697 0.73632 0.40919 0.0
H2608 H 0.81928 0.73217 0.44148 0.0
C2609 C 0.78637 0.75964 0.44917 0.0
C2610 C 0.794 0.76392 0.45836 0.0
C2611 C 0.79075 0.75279 0.43995 0.0
C2612 C 0.81588 0.73356 0.43248 0.0
H2613 H 0.8083 0.70443 0.37774 0.0
H2614 H 0.80172 0.71704 0.39384 0.0
H2615 H 0.82609 0.71923 0.42572 0.0
H2616 H 0.81232 0.76441 0.46495 0.0
H2617 H 0.82002 0.75258 0.44874 0.0
H2618 H 0.79674 0.75062 0.41592 0.0
C2619 C 0.81108 0.71488 0.39349 0.0
C2620 C 0.81977 0.72612 0.42345 0.0
C2621 C 0.81482 0.70754 0.38433 0.0
C2622 C 0.8062 0.76132 0.45798 0.0
C2623 C 0.81059 0.75443 0.44876 0.0
C2624 C 0.80309 0.74375 0.4182 0.0
C2625 C 0.81928 0.71934 0.4021 0.0
C2626 C 0.81531 0.72736 0.4117 0.0
C2627 C 0.8029 0.75002 0.43966 0.0
C2628 C 0.80743 0.74242 0.42998 0.0
H2629 H 0.84437 0.70655 0.39195 0.0
H2630 H 0.83786 0.7195 0.40783 0.0
H2631 H 0.80352 0.73767 0.4002 0.0
H2632 H 0.77696 0.7616 0.44906 0.0
H2633 H 0.78454 0.74946 0.43317 0.0
C2634 C 0.81151 0.31448 0.40606 0.0
C2635 C 0.81358 0.3267 0.40442 0.0
C2636 C 0.80521 0.31035 0.41577 0.0
C2637 C 0.79689 0.31843 0.44611 0.0
H2638 H 0.77676 0.2904 0.4425 0.0
C2639 C 0.77582 0.29324 0.48606 0.0
C2640 C 0.77908 0.28122 0.48614 0.0
C2641 C 0.77768 0.30028 0.47593 0.0
C2642 C 0.78228 0.29829 0.44364 0.0
H2643 H 0.81051 0.34419 0.41172 0.0
H2644 H 0.79935 0.33696 0.4287 0.0
H2645 H 0.78449 0.30011 0.42491 0.0
H2646 H 0.78627 0.26701 0.47562 0.0
H2647 H 0.78921 0.27909 0.45804 0.0
H2648 H 0.79485 0.31634 0.46493 0.0
C2649 C 0.80271 0.33057 0.42246 0.0
C2650 C 0.78677 0.30381 0.43358 0.0
C2651 C 0.80902 0.33472 0.41269 0.0
C2652 C 0.78375 0.27627 0.47584 0.0
C2653 C 0.78535 0.28317 0.46573 0.0
C2654 C 0.79231 0.31292 0.45621 0.0
C2655 C 0.80075 0.31832 0.42413 0.0
C2656 C 0.79449 0.31369 0.4347 0.0
C2657 C 0.7825 0.29528 0.46568 0.0
C2658 C 0.7853 0.30255 0.45508 0.0
H2659 H 0.81474 0.30806 0.39979 0.0
H2660 H 0.80405 0.30085 0.41684 0.0
H2661 H 0.80283 0.32599 0.44731 0.0
H2662 H 0.77224 0.29727 0.49391 0.0
H2663 H 0.77541 0.30961 0.4761 0.0
C2664 C 0.11983 0.70514 0.68713 0.0
C2665 C 0.13104 0.70646 0.69285 0.0
C2666 C 0.10953 0.70885 0.69271 0.0
C2667 C 0.09846 0.71536 0.72273 0.0
H2668 H 0.07146 0.72821 0.70498 0.0
C2669 C 0.05262 0.72104 0.74386 0.0
C2670 C 0.04595 0.73113 0.74072 0.0
C2671 C 0.06304 0.71835 0.73795 0.0
C2672 C 0.07896 0.72474 0.71011 0.0
H2673 H 0.14033 0.71327 0.7086 0.0
H2674 H 0.12245 0.71999 0.71821 0.0
H2675 H 0.08964 0.72371 0.69472 0.0
H2676 H 0.04514 0.74625 0.72869 0.0
H2677 H 0.06339 0.74179 0.71875 0.0
H2678 H 0.08791 0.71669 0.73818 0.0
C2679 C 0.12153 0.71578 0.70958 0.0
C2680 C 0.08935 0.72201 0.70418 0.0
C2681 C 0.13179 0.71199 0.70405 0.0
C2682 C 0.05004 0.73848 0.73152 0.0
C2683 C 0.06047 0.73582 0.72566 0.0
C2684 C 0.0881 0.71814 0.72867 0.0
C2685 C 0.11023 0.71405 0.70409 0.0
C2686 C 0.09924 0.71726 0.71041 0.0
C2687 C 0.0671 0.7257 0.72876 0.0
C2688 C 0.07819 0.72284 0.72244 0.0
H2689 H 0.11896 0.7008 0.67856 0.0
H2690 H 0.101 0.70725 0.68826 0.0
H2691 H 0.10581 0.71155 0.72781 0.0
H2692 H 0.04987 0.71521 0.75094 0.0
H2693 H 0.06782 0.7104 0.7405 0.0
C2694 C 0.81567 0.62697 0.66972 0.0
C2695 C 0.82139 0.63543 0.67717 0.0
C2696 C 0.8098 0.61716 0.67453 0.0
C2697 C 0.80757 0.59876 0.70156 0.0
H2698 H 0.77623 0.59081 0.68837 0.0
C2699 C 0.77651 0.56485 0.72402 0.0
C2700 C 0.76963 0.55718 0.71666 0.0
C2701 C 0.78302 0.57422 0.71916 0.0
C2702 C 0.78504 0.59279 0.69206 0.0
H2703 H 0.8256 0.64003 0.69555 0.0
H2704 H 0.81543 0.62281 0.70394 0.0
H2705 H 0.78746 0.60729 0.68001 0.0
H2706 H 0.76435 0.55328 0.69839 0.0
H2707 H 0.7758 0.56955 0.68987 0.0
H2708 H 0.80518 0.58423 0.71357 0.0
C2709 C 0.81555 0.62378 0.69436 0.0
C2710 C 0.79147 0.60226 0.68728 0.0
C2711 C 0.82139 0.63364 0.68955 0.0
C2712 C 0.76942 0.55912 0.70431 0.0
C2713 C 0.77599 0.56846 0.69944 0.0
C2714 C 0.80116 0.58925 0.70632 0.0
C2715 C 0.80955 0.61552 0.6869 0.0
C2716 C 0.8028 0.60537 0.69197 0.0
C2717 C 0.78287 0.57613 0.7068 0.0
C2718 C 0.78979 0.58616 0.70164 0.0
H2719 H 0.81571 0.62793 0.66014 0.0
H2720 H 0.80546 0.61084 0.66853 0.0
H2721 H 0.81634 0.60084 0.70529 0.0
H2722 H 0.7767 0.56375 0.73358 0.0
H2723 H 0.78803 0.58007 0.72513 0.0
C2724 C 0.90732 0.32969 0.71509 0.0
C2725 C 0.9053 0.34193 0.71375 0.0
C2726 C 0.91766 0.32562 0.72091 0.0
C2727 C 0.94173 0.33505 0.74209 0.0
H2728 H 0.95791 0.3076 0.72982 0.0
C2729 C 0.98775 0.31975 0.76056 0.0
C2730 C 0.98941 0.30744 0.76189 0.0
C2731 C 0.97751 0.32412 0.75477 0.0
C2732 C 0.95343 0.3152 0.73344 0.0
H2733 H 0.9127 0.35949 0.71729 0.0
H2734 H 0.93075 0.35239 0.72741 0.0
H2735 H 0.9401 0.3149 0.71946 0.0
H2736 H 0.98136 0.29013 0.75851 0.0
H2737 H 0.96357 0.29773 0.74843 0.0
H2738 H 0.95509 0.33534 0.75607 0.0
C2739 C 0.92424 0.34593 0.72414 0.0
C2740 C 0.94321 0.31939 0.7275 0.0
C2741 C 0.9139 0.35 0.71833 0.0
C2742 C 0.98051 0.29964 0.75744 0.0
C2743 C 0.97029 0.304 0.75165 0.0
C2744 C 0.95196 0.33087 0.74803 0.0
C2745 C 0.92624 0.33369 0.72552 0.0
C2746 C 0.93721 0.32934 0.73177 0.0
C2747 C 0.9687 0.31629 0.75018 0.0
C2748 C 0.95791 0.32087 0.7438 0.0
H2749 H 0.9008 0.32324 0.71183 0.0
H2750 H 0.91882 0.31613 0.72198 0.0
H2751 H 0.93723 0.34264 0.74572 0.0
H2752 H 0.99447 0.326 0.76376 0.0
H2753 H 0.97661 0.33363 0.75367 0.0
C2754 C 0.20788 0.41702 0.69226 0.0
C2755 C 0.20772 0.40644 0.69892 0.0
C2756 C 0.21381 0.42714 0.69668 0.0
C2757 C 0.23775 0.43664 0.71763 0.0
H2758 H 0.22249 0.46734 0.71572 0.0
C2759 C 0.25575 0.47776 0.74336 0.0
C2760 C 0.25385 0.48913 0.7385 0.0
C2761 C 0.25109 0.46764 0.73765 0.0
C2762 C 0.22701 0.45889 0.71613 0.0
H2763 H 0.21364 0.39819 0.71544 0.0
H2764 H 0.22403 0.4159 0.72319 0.0
H2765 H 0.21215 0.44983 0.70776 0.0
H2766 H 0.24623 0.49868 0.72341 0.0
H2767 H 0.23843 0.48101 0.71324 0.0
H2768 H 0.25265 0.44566 0.7259 0.0
C2769 C 0.21959 0.41633 0.71452 0.0
C2770 C 0.22103 0.44884 0.71162 0.0
C2771 C 0.21354 0.40623 0.71015 0.0
C2772 C 0.24778 0.49007 0.72745 0.0
C2773 C 0.2432 0.47993 0.72167 0.0
C2774 C 0.24378 0.44671 0.72205 0.0
C2775 C 0.21981 0.42688 0.70782 0.0
C2776 C 0.22628 0.43759 0.71241 0.0
C2777 C 0.24451 0.46861 0.72686 0.0
C2778 C 0.23845 0.45797 0.72146 0.0
H2779 H 0.2034 0.41747 0.68361 0.0
H2780 H 0.21388 0.43511 0.69128 0.0
H2781 H 0.2421 0.42811 0.71819 0.0
H2782 H 0.26035 0.47669 0.75189 0.0
H2783 H 0.2522 0.45912 0.742 0.0
C2784 C 0.10659 0.32075 0.32531 0.0
C2785 C 0.11745 0.31869 0.31986 0.0
C2786 C 0.09597 0.31606 0.32045 0.0
C2787 C 0.08237 0.30056 0.29377 0.0
H2788 H 0.06144 0.28748 0.31734 0.0
C2789 C 0.03861 0.2737 0.2819 0.0
C2790 C 0.03692 0.26347 0.28888 0.0
C2791 C 0.04775 0.28189 0.28489 0.0
C2792 C 0.06718 0.29106 0.31062 0.0
H2793 H 0.1257 0.31044 0.30485 0.0
H2794 H 0.10721 0.30185 0.29654 0.0
H2795 H 0.07868 0.2991 0.32374 0.0
H2796 H 0.04368 0.25376 0.30433 0.0
H2797 H 0.05943 0.26776 0.30934 0.0
H2798 H 0.07103 0.29185 0.28069 0.0
C2799 C 0.10681 0.30734 0.30442 0.0
C2800 C 0.07703 0.2979 0.31429 0.0
C2801 C 0.11743 0.3122 0.3092 0.0
C2802 C 0.04459 0.26158 0.29878 0.0
C2803 C 0.05364 0.26968 0.30173 0.0
C2804 C 0.07249 0.29362 0.29009 0.0
C2805 C 0.09596 0.30898 0.31013 0.0
C2806 C 0.08489 0.3026 0.30595 0.0
C2807 C 0.05529 0.28 0.29494 0.0
C2808 C 0.06494 0.28856 0.29851 0.0
H2809 H 0.10634 0.32589 0.33343 0.0
H2810 H 0.08778 0.3178 0.32494 0.0
H2811 H 0.08811 0.30417 0.28708 0.0
H2812 H 0.03287 0.27539 0.2742 0.0
H2813 H 0.0488 0.28976 0.27947 0.0
C2814 C 0.19224 0.59941 0.30485 0.0
C2815 C 0.19926 0.60886 0.30947 0.0
C2816 C 0.19745 0.59006 0.29872 0.0
C2817 C 0.22469 0.58228 0.28276 0.0
H2818 H 0.2159 0.54971 0.29004 0.0
C2819 C 0.25584 0.54332 0.27595 0.0
C2820 C 0.25131 0.5322 0.27226 0.0
C2821 C 0.24824 0.55273 0.27807 0.0
C2822 C 0.21829 0.55875 0.2877 0.0
H2823 H 0.21725 0.61591 0.31112 0.0
H2824 H 0.22634 0.59956 0.30063 0.0
H2825 H 0.20506 0.56606 0.29885 0.0
H2826 H 0.23526 0.5223 0.26751 0.0
H2827 H 0.22178 0.53889 0.2714 0.0
H2828 H 0.23814 0.575 0.27192 0.0
C2829 C 0.21678 0.59942 0.30163 0.0
C2830 C 0.2121 0.56813 0.29279 0.0
C2831 C 0.21159 0.60873 0.30779 0.0
C2832 C 0.23897 0.5308 0.27029 0.0
C2833 C 0.23128 0.54025 0.2726 0.0
C2834 C 0.23086 0.57293 0.27769 0.0
C2835 C 0.20978 0.58998 0.297 0.0
C2836 C 0.21545 0.58001 0.29063 0.0
C2837 C 0.23586 0.55127 0.27668 0.0
C2838 C 0.22796 0.56105 0.28037 0.0
H2839 H 0.18272 0.59917 0.30607 0.0
H2840 H 0.19179 0.58296 0.29523 0.0
H2841 H 0.22731 0.59131 0.28068 0.0
H2842 H 0.26531 0.54468 0.27751 0.0
H2843 H 0.25208 0.56101 0.28134 0.0
C2844 C 0.89858 0.69098 0.29205 0.0
C2845 C 0.89844 0.68887 0.30438 0.0
C2846 C 0.90878 0.6957 0.28683 0.0
C2847 C 0.9352 0.71377 0.2951 0.0
H2848 H 0.94765 0.70388 0.26491 0.0
C2849 C 0.98031 0.73078 0.28122 0.0
C2850 C 0.98121 0.73542 0.26969 0.0
C2851 C 0.97054 0.72385 0.28427 0.0
C2852 C 0.9442 0.70679 0.2733 0.0
H2853 H 0.90913 0.68929 0.32073 0.0
H2854 H 0.92683 0.69743 0.31168 0.0
H2855 H 0.92978 0.69409 0.27253 0.0
H2856 H 0.97294 0.73585 0.25207 0.0
H2857 H 0.95556 0.72372 0.25747 0.0
H2858 H 0.94943 0.72645 0.29595 0.0
C2859 C 0.919 0.69575 0.30607 0.0
C2860 C 0.93398 0.70119 0.27766 0.0
C2861 C 0.90885 0.69108 0.31126 0.0
C2862 C 0.97247 0.73234 0.26101 0.0
C2863 C 0.96254 0.72542 0.26411 0.0
C2864 C 0.94533 0.71932 0.29077 0.0
C2865 C 0.91902 0.69839 0.29385 0.0
C2866 C 0.9295 0.70451 0.28873 0.0
C2867 C 0.96129 0.72148 0.27591 0.0
C2868 C 0.9501 0.71578 0.27994 0.0
H2869 H 0.89067 0.6894 0.28652 0.0
H2870 H 0.90849 0.69767 0.2774 0.0
H2871 H 0.9318 0.71679 0.30348 0.0
H2872 H 0.987 0.73287 0.28806 0.0
H2873 H 0.97002 0.72067 0.29333 0.0
C2874 C 0.82039 0.39249 0.30658 0.0
C2875 C 0.82695 0.39396 0.3173 0.0
C2876 C 0.81715 0.40236 0.29968 0.0
C2877 C 0.81486 0.43549 0.30109 0.0
H2878 H 0.81279 0.43258 0.26673 0.0
C2879 C 0.81029 0.47578 0.26924 0.0
C2880 C 0.80077 0.47504 0.26089 0.0
C2881 C 0.81362 0.46584 0.27598 0.0
C2882 C 0.8133 0.43349 0.27632 0.0
H2883 H 0.83546 0.40682 0.32913 0.0
H2884 H 0.83029 0.42401 0.31692 0.0
H2885 H 0.81852 0.41544 0.27879 0.0
H2886 H 0.78749 0.46329 0.25279 0.0
H2887 H 0.79354 0.44578 0.26439 0.0
H2888 H 0.81002 0.4537 0.29847 0.0
C2889 C 0.82723 0.41532 0.31397 0.0
C2890 C 0.8165 0.42364 0.28327 0.0
C2891 C 0.83028 0.40547 0.32097 0.0
C2892 C 0.79483 0.4641 0.25921 0.0
C2893 C 0.79831 0.45409 0.26579 0.0
C2894 C 0.81188 0.44537 0.29412 0.0
C2895 C 0.82059 0.41393 0.30323 0.0
C2896 C 0.81727 0.42447 0.29578 0.0
C2897 C 0.80766 0.45491 0.27433 0.0
C2898 C 0.81102 0.44445 0.28168 0.0
H2899 H 0.81762 0.38371 0.30362 0.0
H2900 H 0.81182 0.40088 0.29164 0.0
H2901 H 0.81509 0.43648 0.31066 0.0
H2902 H 0.81494 0.48413 0.27079 0.0
H2903 H 0.82089 0.46668 0.28248 0.0
C2904 C 0.21201 0.621 0.69863 0.0
C2905 C 0.20009 0.62468 0.69867 0.0
C2906 C 0.21566 0.61099 0.7051 0.0
C2907 C 0.20734 0.59222 0.73048 0.0
H2908 H 0.22894 0.56965 0.71693 0.0
C2909 C 0.21946 0.54775 0.75366 0.0
C2910 C 0.23131 0.54397 0.75305 0.0
C2911 C 0.21548 0.55759 0.7471 0.0
C2912 C 0.22302 0.57594 0.72092 0.0
H2913 H 0.1826 0.62044 0.70526 0.0
H2914 H 0.18899 0.60307 0.7166 0.0
H2915 H 0.2224 0.58673 0.70523 0.0
H2916 H 0.24826 0.54774 0.74493 0.0
H2917 H 0.24145 0.56498 0.73389 0.0
H2918 H 0.20804 0.5815 0.74622 0.0
C2919 C 0.19555 0.60804 0.71171 0.0
C2920 C 0.21926 0.58572 0.71419 0.0
C2921 C 0.19189 0.61801 0.70521 0.0
C2922 C 0.23911 0.5504 0.74581 0.0
C2923 C 0.23516 0.56023 0.7393 0.0
C2924 C 0.21114 0.58245 0.73724 0.0
C2925 C 0.20748 0.60445 0.71178 0.0
C2926 C 0.2114 0.59399 0.7189 0.0
C2927 C 0.22327 0.5639 0.73977 0.0
C2928 C 0.21906 0.57421 0.73255 0.0
H2929 H 0.21859 0.62602 0.69382 0.0
H2930 H 0.22494 0.60853 0.70508 0.0
H2931 H 0.2014 0.59852 0.73443 0.0
H2932 H 0.21322 0.54309 0.7592 0.0
H2933 H 0.20624 0.56011 0.74761 0.0
C2934 C 0.19882 0.39774 0.32145 0.0
C2935 C 0.20438 0.38886 0.32837 0.0
C2936 C 0.20518 0.40783 0.31791 0.0
C2937 C 0.23605 0.41953 0.31461 0.0
H2938 H 0.2203 0.45002 0.31377 0.0
C2939 C 0.26138 0.46389 0.30702 0.0
C2940 C 0.25616 0.47158 0.29856 0.0
C2941 C 0.25509 0.45395 0.31108 0.0
C2942 C 0.2248 0.44156 0.3139 0.0
H2943 H 0.22117 0.38358 0.3367 0.0
H2944 H 0.2321 0.4013 0.33094 0.0
H2945 H 0.20934 0.43234 0.31984 0.0
H2946 H 0.24013 0.47511 0.28804 0.0
H2947 H 0.22914 0.45782 0.29514 0.0
H2948 H 0.25156 0.42885 0.30882 0.0
C2949 C 0.22285 0.40042 0.32808 0.0
C2950 C 0.2185 0.43139 0.31732 0.0
C2951 C 0.21651 0.3903 0.33154 0.0
C2952 C 0.24443 0.46928 0.29447 0.0
C2953 C 0.2381 0.45944 0.29862 0.0
C2954 C 0.24237 0.42972 0.31129 0.0
C2955 C 0.21727 0.40935 0.32124 0.0
C2956 C 0.22402 0.42022 0.31767 0.0
C2957 C 0.2434 0.45158 0.30687 0.0
C2958 C 0.2368 0.44084 0.31084 0.0
H2959 H 0.18947 0.39702 0.31892 0.0
H2960 H 0.20061 0.41442 0.3125 0.0
H2961 H 0.24056 0.41108 0.31457 0.0
H2962 H 0.27043 0.46539 0.31027 0.0
H2963 H 0.25937 0.44811 0.31751 0.0
C2964 C 0.11327 0.6821 0.30682 0.0
C2965 C 0.12172 0.68723 0.31479 0.0
C2966 C 0.10381 0.68882 0.30217 0.0
C2967 C 0.09394 0.71997 0.29773 0.0
H2968 H 0.06238 0.70576 0.29584 0.0
C2969 C 0.05137 0.74777 0.29147 0.0
C2970 C 0.04256 0.74347 0.28342 0.0
C2971 C 0.06119 0.7408 0.29464 0.0
C2972 C 0.07116 0.70981 0.29619 0.0
H2973 H 0.12703 0.70358 0.32378 0.0
H2974 H 0.11043 0.71514 0.31599 0.0
H2975 H 0.0793 0.69375 0.30234 0.0
H2976 H 0.03707 0.72839 0.27251 0.0
H2977 H 0.05423 0.71625 0.278 0.0
H2978 H 0.08574 0.73609 0.29179 0.0
C2979 C 0.11114 0.70597 0.31321 0.0
C2980 C 0.08087 0.70292 0.29988 0.0
C2981 C 0.12059 0.69928 0.31782 0.0
C2982 C 0.04377 0.73202 0.27863 0.0
C2983 C 0.05353 0.72501 0.28187 0.0
C2984 C 0.08423 0.72687 0.2941 0.0
C2985 C 0.1026 0.70082 0.30537 0.0
C2986 C 0.09237 0.70795 0.3008 0.0
C2987 C 0.06236 0.72933 0.28989 0.0
C2988 C 0.07272 0.72189 0.29338 0.0
H2989 H 0.11385 0.67283 0.30435 0.0
H2990 H 0.09746 0.68461 0.29605 0.0
H2991 H 0.1027 0.72407 0.29811 0.0
H2992 H 0.05075 0.75658 0.29523 0.0
H2993 H 0.06778 0.74433 0.30094 0.0
C2994 C 0.80843 0.61023 0.32094 0.0
C2995 C 0.81185 0.61947 0.31329 0.0
C2996 C 0.80199 0.60037 0.31651 0.0
C2997 C 0.78344 0.59025 0.29051 0.0
H2998 H 0.79452 0.55877 0.29903 0.0
C2999 C 0.77857 0.55052 0.2594 0.0
C3000 C 0.77622 0.53912 0.26389 0.0
C3001 C 0.78014 0.56018 0.26703 0.0
C3002 C 0.79113 0.56748 0.29676 0.0
H3003 H 0.81087 0.62577 0.29507 0.0
H3004 H 0.79983 0.60861 0.28734 0.0
H3005 H 0.80284 0.57613 0.30948 0.0
H3006 H 0.77327 0.52891 0.27987 0.0
H3007 H 0.77626 0.54594 0.29342 0.0
H3008 H 0.7721 0.58165 0.27746 0.0
C3009 C 0.80202 0.60896 0.29677 0.0
C3010 C 0.79591 0.57744 0.30272 0.0
C3011 C 0.80849 0.61875 0.30118 0.0
C3012 C 0.77501 0.53763 0.2762 0.0
C3013 C 0.7768 0.54734 0.28392 0.0
C3014 C 0.77868 0.58032 0.28456 0.0
C3015 C 0.79874 0.59962 0.30436 0.0
C3016 C 0.79241 0.58897 0.29938 0.0
C3017 C 0.77954 0.55869 0.2794 0.0
C3018 C 0.78276 0.56886 0.28733 0.0
H3019 H 0.81093 0.61049 0.33031 0.0
H3020 H 0.79956 0.59335 0.32259 0.0
H3021 H 0.78034 0.59898 0.28791 0.0
H3022 H 0.77951 0.55194 0.24994 0.0
H3023 H 0.78238 0.56874 0.26325 0.0
C3024 C 0.89537 0.29692 0.33747 0.0
C3025 C 0.89407 0.30882 0.33386 0.0
C3026 C 0.90515 0.29029 0.33401 0.0
C3027 C 0.93562 0.2937 0.32232 0.0
H3028 H 0.93159 0.26034 0.31443 0.0
C3029 C 0.97194 0.26668 0.29956 0.0
C3030 C 0.97428 0.25525 0.30405 0.0
C3031 C 0.96219 0.27309 0.3034 0.0
C3032 C 0.93287 0.26962 0.31672 0.0
H3033 H 0.9022 0.32306 0.3238 0.0
H3034 H 0.91895 0.31141 0.31743 0.0
H3035 H 0.91449 0.27175 0.32058 0.0
H3036 H 0.96811 0.24155 0.316 0.0
H3037 H 0.95103 0.25276 0.32272 0.0
H3038 H 0.95397 0.29158 0.31824 0.0
C3039 C 0.91252 0.30724 0.32313 0.0
C3040 C 0.92308 0.27617 0.32027 0.0
C3041 C 0.90279 0.31388 0.32665 0.0
C3042 C 0.96659 0.25036 0.31245 0.0
C3043 C 0.95676 0.25674 0.31621 0.0
C3044 C 0.94538 0.28717 0.31868 0.0
C3045 C 0.91386 0.29536 0.32679 0.0
C3046 C 0.92431 0.28832 0.3231 0.0
C3047 C 0.95448 0.2682 0.31176 0.0
C3048 C 0.94412 0.27507 0.31581 0.0
H3049 H 0.88877 0.29265 0.3429 0.0
H3050 H 0.90592 0.28122 0.33713 0.0
H3051 H 0.93699 0.30295 0.32466 0.0
H3052 H 0.97774 0.27075 0.29319 0.0
H3053 H 0.96062 0.28186 0.29973 0.0
C3054 C 0.81989 0.41256 0.72302 0.0
C3055 C 0.82282 0.41252 0.71094 0.0
C3056 C 0.81537 0.42276 0.72826 0.0
C3057 C 0.81428 0.45533 0.72477 0.0
H3058 H 0.78789 0.45304 0.74611 0.0
C3059 C 0.78795 0.49624 0.73965 0.0
C3060 C 0.78314 0.4963 0.75105 0.0
C3061 C 0.79387 0.48626 0.73551 0.0
C3062 C 0.79541 0.45384 0.74035 0.0
H3063 H 0.82321 0.42319 0.6949 0.0
H3064 H 0.81521 0.44099 0.70403 0.0
H3065 H 0.7956 0.43508 0.73718 0.0
H3066 H 0.78136 0.4861 0.76728 0.0
H3067 H 0.79192 0.46878 0.76016 0.0
H3068 H 0.81411 0.47407 0.72792 0.0
C3069 C 0.81651 0.43313 0.70946 0.0
C3070 C 0.79979 0.44353 0.73518 0.0
C3071 C 0.82096 0.42289 0.70419 0.0
C3072 C 0.78493 0.48636 0.75845 0.0
C3073 C 0.79088 0.47637 0.75431 0.0
C3074 C 0.80994 0.46563 0.72998 0.0
C3075 C 0.81373 0.43321 0.72158 0.0
C3076 C 0.80921 0.44416 0.72725 0.0
C3077 C 0.79517 0.47609 0.74268 0.0
C3078 C 0.80037 0.46505 0.73776 0.0
H3079 H 0.82112 0.40468 0.72844 0.0
H3080 H 0.81339 0.42253 0.73763 0.0
H3081 H 0.82169 0.4561 0.71887 0.0
H3082 H 0.78675 0.50372 0.73369 0.0
H3083 H 0.79694 0.48636 0.72648 0.0
C3084 C 0.12263 0.33227 0.70666 0.0
C3085 C 0.13099 0.32511 0.70108 0.0
C3086 C 0.11278 0.32719 0.71206 0.0
C3087 C 0.09357 0.30048 0.71327 0.0
H3088 H 0.08631 0.31307 0.74426 0.0
C3089 C 0.0563 0.28183 0.74413 0.0
C3090 C 0.05012 0.29051 0.75038 0.0
C3091 C 0.06599 0.28513 0.73716 0.0
C3092 C 0.08812 0.30952 0.73556 0.0
H3093 H 0.13533 0.30694 0.69663 0.0
H3094 H 0.11799 0.29807 0.70602 0.0
H3095 H 0.10357 0.32056 0.73404 0.0
H3096 H 0.04854 0.30942 0.75349 0.0
H3097 H 0.06502 0.31514 0.74124 0.0
H3098 H 0.07794 0.28949 0.71485 0.0
C3099 C 0.11911 0.30764 0.70615 0.0
C3100 C 0.09804 0.31382 0.7297 0.0
C3101 C 0.12903 0.31273 0.70077 0.0
C3102 C 0.05327 0.30251 0.74895 0.0
C3103 C 0.06278 0.30579 0.74197 0.0
C3104 C 0.08356 0.29617 0.71915 0.0
C3105 C 0.11096 0.31481 0.71201 0.0
C3106 C 0.10078 0.30953 0.7184 0.0
C3107 C 0.06955 0.29715 0.73633 0.0
C3108 C 0.08059 0.30085 0.73027 0.0
H3109 H 0.12366 0.34184 0.70682 0.0
H3110 H 0.10653 0.33299 0.71628 0.0
H3111 H 0.09547 0.297 0.70456 0.0
H3112 H 0.05407 0.27251 0.74511 0.0
H3113 H 0.07101 0.27827 0.73288 0.0
C3114 C 0.902 0.72671 0.67728 0.0
C3115 C 0.9009 0.71434 0.6757 0.0
C3116 C 0.91255 0.73174 0.68203 0.0
C3117 C 0.94459 0.72535 0.68749 0.0
H3118 H 0.9428 0.74906 0.71235 0.0
C3119 C 0.98207 0.73327 0.72215 0.0
C3120 C 0.98447 0.74477 0.7265 0.0
C3121 C 0.97268 0.73117 0.71403 0.0
C3122 C 0.94348 0.74263 0.70525 0.0
H3123 H 0.91015 0.69761 0.67768 0.0
H3124 H 0.92841 0.70633 0.68611 0.0
H3125 H 0.92459 0.74218 0.70202 0.0
H3126 H 0.97917 0.76319 0.72543 0.0
H3127 H 0.96256 0.7595 0.71115 0.0
H3128 H 0.96341 0.72554 0.69094 0.0
C3129 C 0.92118 0.71218 0.68359 0.0
C3130 C 0.93303 0.73866 0.69934 0.0
C3131 C 0.91063 0.70715 0.67889 0.0
C3132 C 0.97756 0.75425 0.72217 0.0
C3133 C 0.968 0.75212 0.71409 0.0
C3134 C 0.955 0.72932 0.69338 0.0
C3135 C 0.92227 0.72453 0.68525 0.0
C3136 C 0.93344 0.72974 0.69061 0.0
C3137 C 0.96535 0.7405 0.71008 0.0
C3138 C 0.95455 0.73777 0.70255 0.0
H3139 H 0.89464 0.73249 0.675 0.0
H3140 H 0.91311 0.74129 0.68313 0.0
H3141 H 0.94525 0.71868 0.68062 0.0
H3142 H 0.98725 0.72578 0.72531 0.0
H3143 H 0.97084 0.72211 0.71127 0.0
C3144 C 0.70068 0.20235 0.60691 0.0
C3145 C 0.6968 0.20852 0.61692 0.0
C3146 C 0.70473 0.2085 0.597 0.0
C3147 C 0.71746 0.23734 0.58794 0.0
H3148 H 0.71157 0.2245 0.55631 0.0
C3149 C 0.73973 0.25685 0.54598 0.0
C3150 C 0.74575 0.24809 0.53971 0.0
C3151 C 0.73154 0.25357 0.55463 0.0
C3152 C 0.71324 0.22824 0.56508 0.0
H3153 H 0.69411 0.22606 0.62428 0.0
H3154 H 0.70104 0.23682 0.60687 0.0
H3155 H 0.70147 0.21577 0.57316 0.0
H3156 H 0.7475 0.22912 0.53704 0.0
H3157 H 0.73317 0.22345 0.5518 0.0
H3158 H 0.72948 0.24962 0.57982 0.0
C3159 C 0.70102 0.2272 0.60675 0.0
C3160 C 0.70751 0.22319 0.57475 0.0
C3161 C 0.69694 0.22103 0.61669 0.0
C3162 C 0.74302 0.23607 0.54177 0.0
C3163 C 0.73474 0.23282 0.55018 0.0
C3164 C 0.72316 0.24242 0.57823 0.0
C3165 C 0.705 0.221 0.59679 0.0
C3166 C 0.70984 0.22743 0.58636 0.0
C3167 C 0.72908 0.24149 0.5569 0.0
C3168 C 0.72139 0.23768 0.56676 0.0
H3169 H 0.70055 0.19273 0.60671 0.0
H3170 H 0.70788 0.20342 0.58957 0.0
H3171 H 0.71952 0.24079 0.59676 0.0
H3172 H 0.74174 0.26618 0.5446 0.0
H3173 H 0.72728 0.26044 0.55967 0.0
C3174 C 0.31318 0.18903 0.60971 0.0
C3175 C 0.3227 0.1951 0.61556 0.0
C3176 C 0.30794 0.1936 0.59922 0.0
C3177 C 0.31495 0.21236 0.5739 0.0
H3178 H 0.28129 0.21927 0.57052 0.0
C3179 C 0.29808 0.24718 0.54118 0.0
C3180 C 0.28722 0.2456 0.53483 0.0
C3181 C 0.30164 0.23921 0.55002 0.0
C3182 C 0.29066 0.21716 0.57121 0.0
H3183 H 0.33369 0.21108 0.61513 0.0
H3184 H 0.32489 0.2187 0.59671 0.0
H3185 H 0.28886 0.20855 0.58815 0.0
H3186 H 0.27157 0.23429 0.53283 0.0
H3187 H 0.27789 0.22016 0.54844 0.0
H3188 H 0.3169 0.22098 0.55714 0.0
C3189 C 0.32157 0.21036 0.6002 0.0
C3190 C 0.29499 0.21107 0.58131 0.0
C3191 C 0.32666 0.20593 0.61074 0.0
C3192 C 0.28 0.23573 0.53754 0.0
C3193 C 0.28359 0.22769 0.5465 0.0
C3194 C 0.31064 0.21829 0.5638 0.0
C3195 C 0.31223 0.20422 0.59428 0.0
C3196 C 0.30724 0.20899 0.58291 0.0
C3197 C 0.2945 0.22934 0.55281 0.0
C3198 C 0.29853 0.22118 0.56252 0.0
H3199 H 0.30993 0.18063 0.61308 0.0
H3200 H 0.30075 0.18869 0.5948 0.0
H3201 H 0.32441 0.21066 0.57482 0.0
H3202 H 0.30388 0.25468 0.53941 0.0
H3203 H 0.30995 0.24096 0.55486 0.0
C3204 C 0.29898 0.81974 0.62616 0.0
C3205 C 0.30912 0.82704 0.62518 0.0
C3206 C 0.29281 0.81564 0.61596 0.0
C3207 C 0.28596 0.82312 0.58514 0.0
H3208 H 0.27926 0.78954 0.58074 0.0
C3209 C 0.26617 0.80469 0.54076 0.0
C3210 C 0.25897 0.79443 0.54098 0.0
C3211 C 0.27189 0.80887 0.55117 0.0
C3212 C 0.28081 0.79898 0.58188 0.0
H3213 H 0.32073 0.83584 0.61283 0.0
H3214 H 0.30975 0.82888 0.59496 0.0
H3215 H 0.29 0.79631 0.59865 0.0
H3216 H 0.25167 0.7808 0.55227 0.0
H3217 H 0.26111 0.78838 0.57058 0.0
H3218 H 0.27648 0.82595 0.56865 0.0
C3219 C 0.30667 0.82625 0.60362 0.0
C3220 C 0.28706 0.80282 0.59213 0.0
C3221 C 0.31298 0.83016 0.61382 0.0
C3222 C 0.25727 0.78868 0.55187 0.0
C3223 C 0.26278 0.79298 0.56234 0.0
C3224 C 0.27951 0.81932 0.57499 0.0
C3225 C 0.29653 0.81896 0.60461 0.0
C3226 C 0.28977 0.81491 0.59381 0.0
C3227 C 0.27037 0.80303 0.56212 0.0
C3228 C 0.2769 0.80717 0.57315 0.0
H3229 H 0.29584 0.8172 0.63483 0.0
H3230 H 0.28499 0.81006 0.61695 0.0
H3231 H 0.28782 0.83252 0.5863 0.0
H3232 H 0.26779 0.80918 0.53244 0.0
H3233 H 0.2778 0.81648 0.55052 0.0
C3234 C 0.71117 0.83269 0.60641 0.0
C3235 C 0.69916 0.82946 0.60782 0.0
C3236 C 0.71688 0.83024 0.59582 0.0
C3237 C 0.71553 0.81064 0.56968 0.0
H3238 H 0.73502 0.835 0.55522 0.0
C3239 C 0.73504 0.80387 0.52342 0.0
C3240 C 0.74666 0.80804 0.52159 0.0
C3241 C 0.72907 0.80693 0.53369 0.0
C3242 C 0.72974 0.82804 0.5592 0.0
H3243 H 0.68378 0.82111 0.59906 0.0
H3244 H 0.69384 0.81663 0.5807 0.0
H3245 H 0.72512 0.83921 0.57374 0.0
H3246 H 0.7611 0.8188 0.52905 0.0
H3247 H 0.75081 0.824 0.5471 0.0
H3248 H 0.7203 0.79937 0.55534 0.0
C3249 C 0.69882 0.82103 0.58785 0.0
C3250 C 0.72404 0.83047 0.56981 0.0
C3251 C 0.69307 0.82357 0.5984 0.0
C3252 C 0.7521 0.81556 0.53015 0.0
C3253 C 0.74618 0.81854 0.54049 0.0
C3254 C 0.72131 0.80817 0.55913 0.0
C3255 C 0.71077 0.82439 0.58641 0.0
C3256 C 0.71685 0.82181 0.57515 0.0
C3257 C 0.73462 0.81415 0.54247 0.0
C3258 C 0.72847 0.81685 0.55372 0.0
H3259 H 0.71623 0.83702 0.61354 0.0
H3260 H 0.72615 0.83278 0.59506 0.0
H3261 H 0.71019 0.80373 0.57367 0.0
H3262 H 0.73055 0.79821 0.51689 0.0
H3263 H 0.72009 0.8036 0.53473 0.0
C3264 C 0.6802 0.81132 0.38922 0.0
C3265 C 0.68684 0.81619 0.37994 0.0
C3266 C 0.68588 0.80553 0.39881 0.0
C3267 C 0.71445 0.79132 0.40782 0.0
H3268 H 0.7051 0.79837 0.43996 0.0
C3269 C 0.74621 0.78755 0.44814 0.0
C3270 C 0.74207 0.78335 0.45905 0.0
C3271 C 0.73842 0.78906 0.43841 0.0
C3272 C 0.70766 0.79611 0.43104 0.0
H3273 H 0.70466 0.81857 0.37342 0.0
H3274 H 0.71457 0.80874 0.39019 0.0
H3275 H 0.69346 0.80618 0.42305 0.0
H3276 H 0.72656 0.77711 0.46825 0.0
H3277 H 0.71272 0.77997 0.45112 0.0
H3278 H 0.7289 0.78164 0.4158 0.0
C3279 C 0.70495 0.80926 0.39002 0.0
C3280 C 0.70101 0.80061 0.42134 0.0
C3281 C 0.69928 0.81506 0.38046 0.0
C3282 C 0.72997 0.78031 0.45992 0.0
C3283 C 0.72208 0.78202 0.45016 0.0
C3284 C 0.7211 0.78687 0.41749 0.0
C3285 C 0.69834 0.80442 0.39932 0.0
C3286 C 0.70453 0.79854 0.40961 0.0
C3287 C 0.72623 0.78654 0.43934 0.0
C3288 C 0.71798 0.78949 0.42921 0.0
H3289 H 0.67061 0.81212 0.38917 0.0
H3290 H 0.68051 0.80186 0.40578 0.0
H3291 H 0.71724 0.7893 0.39892 0.0
H3292 H 0.7555 0.78992 0.44718 0.0
H3293 H 0.7419 0.79268 0.43028 0.0
C3294 C 0.70903 0.20713 0.40067 0.0
C3295 C 0.70694 0.19487 0.39922 0.0
C3296 C 0.71532 0.21146 0.41071 0.0
C3297 C 0.73659 0.20217 0.4346 0.0
H3298 H 0.72648 0.23094 0.4501 0.0
C3299 C 0.75714 0.21829 0.4797 0.0
C3300 C 0.75902 0.23058 0.48114 0.0
C3301 C 0.75093 0.21385 0.46965 0.0
C3302 C 0.72951 0.22297 0.4458 0.0
H3303 H 0.70953 0.17759 0.40741 0.0
H3304 H 0.72047 0.18514 0.42489 0.0
H3305 H 0.71523 0.22343 0.4328 0.0
H3306 H 0.75626 0.24778 0.47286 0.0
H3307 H 0.74551 0.24007 0.45538 0.0
H3308 H 0.75089 0.20171 0.4476 0.0
C3309 C 0.71745 0.19139 0.41815 0.0
C3310 C 0.72305 0.21866 0.43587 0.0
C3311 C 0.71116 0.18707 0.40813 0.0
C3312 C 0.75475 0.23829 0.47218 0.0
C3313 C 0.74858 0.23386 0.46214 0.0
C3314 C 0.74306 0.20648 0.44453 0.0
C3315 C 0.71965 0.20364 0.41955 0.0
C3316 C 0.72651 0.20821 0.43014 0.0
C3317 C 0.74649 0.22159 0.46079 0.0
C3318 C 0.73961 0.21695 0.45024 0.0
H3319 H 0.70605 0.21337 0.39391 0.0
H3320 H 0.71699 0.22093 0.41142 0.0
H3321 H 0.73962 0.19419 0.43029 0.0
H3322 H 0.76018 0.21211 0.48648 0.0
H3323 H 0.74938 0.20436 0.46897 0.0
C3324 C 0.3362 0.20411 0.40154 0.0
C3325 C 0.32754 0.1994 0.39354 0.0
C3326 C 0.33292 0.21129 0.41101 0.0
C3327 C 0.30851 0.23017 0.42123 0.0
H3328 H 0.32372 0.22586 0.45231 0.0
C3329 C 0.29097 0.25184 0.46377 0.0
C3330 C 0.29936 0.25621 0.47225 0.0
C3331 C 0.29461 0.24538 0.45394 0.0
C3332 C 0.31949 0.22729 0.44365 0.0
H3333 H 0.30862 0.19866 0.38919 0.0
H3334 H 0.30288 0.21101 0.40583 0.0
H3335 H 0.32964 0.21358 0.43569 0.0
H3336 H 0.31821 0.25726 0.4769 0.0
H3337 H 0.32456 0.24618 0.45964 0.0
H3338 H 0.29832 0.24384 0.42922 0.0
C3339 C 0.31223 0.20924 0.40471 0.0
C3340 C 0.32288 0.22024 0.43413 0.0
C3341 C 0.31551 0.20205 0.39525 0.0
C3342 C 0.3115 0.25412 0.47052 0.0
C3343 C 0.31514 0.24764 0.46069 0.0
C3344 C 0.30512 0.23722 0.43076 0.0
C3345 C 0.3209 0.21395 0.41271 0.0
C3346 C 0.3174 0.22157 0.42281 0.0
C3347 C 0.30673 0.24311 0.45233 0.0
C3348 C 0.31054 0.23584 0.4421 0.0
H3349 H 0.34553 0.20215 0.40056 0.0
H3350 H 0.33983 0.21486 0.41694 0.0
H3351 H 0.30424 0.23155 0.41259 0.0
H3352 H 0.28157 0.25341 0.46473 0.0
H3353 H 0.28788 0.24195 0.44773 0.0
C3354 C 0.31337 0.79452 0.39756 0.0
C3355 C 0.31485 0.80694 0.3971 0.0
C3356 C 0.30938 0.78897 0.40784 0.0
C3357 C 0.30702 0.79349 0.44024 0.0
H3358 H 0.28436 0.76734 0.43784 0.0
C3359 C 0.28189 0.77515 0.4805 0.0
C3360 C 0.27926 0.76291 0.481 0.0
C3361 C 0.28735 0.78007 0.47062 0.0
C3362 C 0.29084 0.77449 0.43867 0.0
H3363 H 0.31315 0.82326 0.4071 0.0
H3364 H 0.30598 0.81357 0.42502 0.0
H3365 H 0.29107 0.77702 0.41982 0.0
H3366 H 0.28087 0.74617 0.47169 0.0
H3367 H 0.29056 0.75475 0.45447 0.0
H3368 H 0.30671 0.79102 0.45911 0.0
C3369 C 0.30807 0.80812 0.41745 0.0
C3370 C 0.29467 0.78008 0.42833 0.0
C3371 C 0.31204 0.81369 0.40713 0.0
C3372 C 0.28275 0.75562 0.4716 0.0
C3373 C 0.2882 0.76056 0.46168 0.0
C3374 C 0.3032 0.7879 0.45059 0.0
C3375 C 0.30676 0.79568 0.41795 0.0
C3376 C 0.30275 0.78969 0.42898 0.0
C3377 C 0.29033 0.77289 0.46095 0.0
C3378 C 0.295 0.77837 0.44994 0.0
H3379 H 0.31532 0.78906 0.38995 0.0
H3380 H 0.30857 0.77937 0.40794 0.0
H3381 H 0.31342 0.80072 0.44106 0.0
H3382 H 0.27935 0.78104 0.48758 0.0
H3383 H 0.28876 0.7896 0.47034 0.0
C3384 C 0.61464 0.19174 0.69519 0.0
C3385 C 0.62616 0.19463 0.69948 0.0
C3386 C 0.60471 0.19468 0.70176 0.0
C3387 C 0.59393 0.21558 0.72338 0.0
H3388 H 0.57145 0.19087 0.73186 0.0
C3389 C 0.55569 0.2254 0.75488 0.0
C3390 C 0.54479 0.21944 0.75295 0.0
C3391 C 0.56574 0.22208 0.74869 0.0
C3392 C 0.57749 0.19795 0.72942 0.0
H3393 H 0.63638 0.20305 0.71382 0.0
H3394 H 0.61896 0.20853 0.72515 0.0
H3395 H 0.58848 0.18595 0.71993 0.0
H3396 H 0.53576 0.20541 0.74301 0.0
H3397 H 0.55309 0.19989 0.73181 0.0
H3398 H 0.58284 0.22772 0.73236 0.0
C3399 C 0.61764 0.20386 0.71679 0.0
C3400 C 0.58729 0.19508 0.72264 0.0
C3401 C 0.62758 0.2007 0.71035 0.0
C3402 C 0.54412 0.21003 0.74477 0.0
C3403 C 0.5541 0.20686 0.73839 0.0
C3404 C 0.58401 0.21851 0.72995 0.0
C3405 C 0.60612 0.20078 0.71261 0.0
C3406 C 0.59563 0.20386 0.71961 0.0
C3407 C 0.56507 0.21288 0.7402 0.0
C3408 C 0.57566 0.20973 0.73315 0.0
H3409 H 0.61333 0.187 0.68687 0.0
H3410 H 0.59591 0.19226 0.69833 0.0
H3411 H 0.60019 0.22253 0.72105 0.0
H3412 H 0.55644 0.23261 0.76123 0.0
H3413 H 0.57404 0.22675 0.75061 0.0
C3414 C 0.32467 0.11729 0.70022 0.0
C3415 C 0.32841 0.12806 0.70551 0.0
C3416 C 0.32087 0.10777 0.70722 0.0
C3417 C 0.32291 0.09599 0.73797 0.0
H3418 H 0.2961 0.07634 0.72747 0.0
C3419 C 0.28997 0.05666 0.75695 0.0
C3420 C 0.29839 0.04915 0.76248 0.0
C3421 C 0.2936 0.06644 0.75023 0.0
C3422 C 0.30355 0.08179 0.73059 0.0
H3423 H 0.33074 0.13736 0.72231 0.0
H3424 H 0.32408 0.1208 0.73449 0.0
H3425 H 0.30221 0.09317 0.71535 0.0
H3426 H 0.31728 0.04613 0.76528 0.0
H3427 H 0.32362 0.06317 0.75356 0.0
H3428 H 0.32411 0.08474 0.75332 0.0
C3429 C 0.32431 0.11962 0.72495 0.0
C3430 C 0.30714 0.09136 0.72356 0.0
C3431 C 0.32811 0.12913 0.71795 0.0
C3432 C 0.31055 0.05179 0.76128 0.0
C3433 C 0.31419 0.06157 0.75454 0.0
C3434 C 0.31932 0.08641 0.745 0.0
C3435 C 0.3207 0.10879 0.71968 0.0
C3436 C 0.31686 0.0986 0.72717 0.0
C3437 C 0.30575 0.06897 0.74886 0.0
C3438 C 0.30959 0.07919 0.7414 0.0
H3439 H 0.32495 0.1161 0.69068 0.0
H3440 H 0.31831 0.09951 0.70287 0.0
H3441 H 0.33051 0.10129 0.74096 0.0
H3442 H 0.28053 0.05504 0.75787 0.0
H3443 H 0.28685 0.07207 0.74618 0.0
C3444 C 0.40138 0.82307 0.69515 0.0
C3445 C 0.3936 0.83025 0.70149 0.0
C3446 C 0.41177 0.81864 0.70063 0.0
C3447 C 0.42607 0.81323 0.73047 0.0
H3448 H 0.45494 0.81158 0.71253 0.0
C3449 C 0.47236 0.80449 0.75256 0.0
C3450 C 0.47973 0.79641 0.74683 0.0
C3451 C 0.46177 0.80834 0.74704 0.0
C3452 C 0.44692 0.81188 0.71763 0.0
H3453 H 0.39064 0.83816 0.71874 0.0
H3454 H 0.40887 0.83084 0.72811 0.0
H3455 H 0.43669 0.8188 0.7029 0.0
H3456 H 0.48178 0.78618 0.73071 0.0
H3457 H 0.4633 0.7929 0.72108 0.0
H3458 H 0.43642 0.80652 0.74526 0.0
C3459 C 0.40689 0.82846 0.71894 0.0
C3460 C 0.43643 0.81599 0.7121 0.0
C3461 C 0.39648 0.83282 0.71349 0.0
C3462 C 0.47626 0.79231 0.73542 0.0
C3463 C 0.46573 0.79625 0.72985 0.0
C3464 C 0.43659 0.80922 0.73602 0.0
C3465 C 0.41469 0.8213 0.7126 0.0
C3466 C 0.42585 0.81674 0.71844 0.0
C3467 C 0.45834 0.8043 0.7356 0.0
C3468 C 0.44714 0.80851 0.72967 0.0
H3469 H 0.39955 0.82099 0.68587 0.0
H3470 H 0.41747 0.81304 0.69549 0.0
H3471 H 0.41808 0.81346 0.73559 0.0
H3472 H 0.47473 0.80774 0.76138 0.0
H3473 H 0.45632 0.81462 0.75167 0.0
C3474 C 0.68727 0.89636 0.70711 0.0
C3475 C 0.68929 0.89542 0.69486 0.0
C3476 C 0.69112 0.9064 0.71352 0.0
C3477 C 0.70084 0.9378 0.70945 0.0
H3478 H 0.714 0.93424 0.74151 0.0
C3479 C 0.72692 0.97534 0.73385 0.0
C3480 C 0.72439 0.97737 0.74585 0.0
C3481 C 0.72217 0.96544 0.72785 0.0
C3482 C 0.71023 0.93539 0.73261 0.0
H3483 H 0.69686 0.90447 0.67976 0.0
H3484 H 0.70392 0.92172 0.69097 0.0
H3485 H 0.70671 0.91676 0.73061 0.0
H3486 H 0.71495 0.97052 0.76095 0.0
H3487 H 0.70664 0.95315 0.75045 0.0
H3488 H 0.7046 0.9564 0.7114 0.0
C3489 C 0.69918 0.91479 0.69562 0.0
C3490 C 0.70602 0.92538 0.72636 0.0
C3491 C 0.69527 0.90479 0.6892 0.0
C3492 C 0.71699 0.96924 0.7517 0.0
C3493 C 0.71233 0.95926 0.74572 0.0
C3494 C 0.70513 0.94779 0.71567 0.0
C3495 C 0.69714 0.91575 0.70786 0.0
C3496 C 0.70134 0.92644 0.71467 0.0
C3497 C 0.71484 0.95727 0.73371 0.0
C3498 C 0.70993 0.94669 0.72729 0.0
H3499 H 0.68282 0.88927 0.71181 0.0
H3500 H 0.68927 0.90688 0.7229 0.0
H3501 H 0.69707 0.93902 0.70057 0.0
H3502 H 0.73247 0.98149 0.72905 0.0
H3503 H 0.72436 0.9641 0.71863 0.0
C3504 C 0.59574 0.81561 0.31136 0.0
C3505 C 0.60454 0.82047 0.30412 0.0
C3506 C 0.58537 0.81057 0.30631 0.0
C3507 C 0.57341 0.79697 0.27861 0.0
H3508 H 0.54334 0.80014 0.29427 0.0
C3509 C 0.53052 0.77201 0.26228 0.0
C3510 C 0.52502 0.76564 0.27139 0.0
C3511 C 0.5393 0.7806 0.26507 0.0
C3512 C 0.55167 0.79919 0.28978 0.0
H3513 H 0.60929 0.82385 0.28587 0.0
H3514 H 0.59109 0.81519 0.27705 0.0
H3515 H 0.56064 0.81154 0.30147 0.0
H3516 H 0.52394 0.76364 0.29052 0.0
H3517 H 0.53905 0.77857 0.29533 0.0
H3518 H 0.56444 0.7844 0.26709 0.0
C3519 C 0.59227 0.81521 0.28664 0.0
C3520 C 0.5616 0.80568 0.29393 0.0
C3521 C 0.60265 0.82027 0.2917 0.0
C3522 C 0.52805 0.76836 0.28329 0.0
C3523 C 0.53666 0.777 0.28606 0.0
C3524 C 0.56345 0.7905 0.27443 0.0
C3525 C 0.58352 0.81026 0.29389 0.0
C3526 C 0.57267 0.80441 0.2886 0.0
C3527 C 0.54255 0.78307 0.277 0.0
C3528 C 0.55255 0.7913 0.28018 0.0
H3529 H 0.59684 0.81574 0.32096 0.0
H3530 H 0.57891 0.80669 0.31216 0.0
H3531 H 0.58182 0.79571 0.27435 0.0
H3532 H 0.52837 0.77006 0.25303 0.0
H3533 H 0.54366 0.78519 0.2579 0.0
C3534 C 0.70525 0.11966 0.30934 0.0
C3535 C 0.70056 0.11929 0.32078 0.0
C3536 C 0.71065 0.10965 0.30459 0.0
C3537 C 0.71174 0.0771 0.30688 0.0
H3538 H 0.74207 0.08059 0.29163 0.0
C3539 C 0.73659 0.0362 0.28975 0.0
C3540 C 0.74199 0.03736 0.27869 0.0
C3541 C 0.73243 0.04621 0.29566 0.0
C3542 C 0.73354 0.07945 0.29573 0.0
H3543 H 0.69758 0.10804 0.33609 0.0
H3544 H 0.70691 0.09052 0.32774 0.0
H3545 H 0.73258 0.09798 0.29995 0.0
H3546 H 0.7476 0.05003 0.26536 0.0
H3547 H 0.74013 0.06736 0.27547 0.0
H3548 H 0.71246 0.05867 0.30241 0.0
C3549 C 0.70646 0.09857 0.32247 0.0
C3550 C 0.72812 0.08944 0.30052 0.0
C3551 C 0.70119 0.10862 0.32728 0.0
C3552 C 0.74353 0.04879 0.2739 0.0
C3553 C 0.73927 0.05878 0.27974 0.0
C3554 C 0.71709 0.06714 0.30199 0.0
C3555 C 0.71133 0.099 0.31111 0.0
C3556 C 0.71714 0.08838 0.30611 0.0
C3557 C 0.73347 0.05762 0.2906 0.0
C3558 C 0.72806 0.06817 0.29631 0.0
H3559 H 0.70496 0.12778 0.30416 0.0
H3560 H 0.71422 0.11021 0.29576 0.0
H3561 H 0.70322 0.07602 0.31102 0.0
H3562 H 0.73533 0.02753 0.29374 0.0
H3563 H 0.72825 0.04498 0.30413 0.0
C3564 C 0.39697 0.19241 0.30826 0.0
C3565 C 0.39505 0.18035 0.31098 0.0
C3566 C 0.40695 0.196 0.30201 0.0
C3567 C 0.43021 0.18503 0.28227 0.0
H3568 H 0.44698 0.21366 0.29258 0.0
C3569 C 0.47587 0.1994 0.26391 0.0
C3570 C 0.47768 0.2116 0.26178 0.0
C3571 C 0.4657 0.19537 0.26963 0.0
C3572 C 0.44233 0.20572 0.28949 0.0
H3573 H 0.40214 0.16262 0.30919 0.0
H3574 H 0.41957 0.16889 0.29827 0.0
H3575 H 0.42946 0.20703 0.30305 0.0
H3576 H 0.46992 0.22904 0.2636 0.0
H3577 H 0.45224 0.22204 0.27353 0.0
H3578 H 0.44314 0.18373 0.26872 0.0
C3579 C 0.41327 0.17555 0.30087 0.0
C3580 C 0.43227 0.20192 0.2955 0.0
C3581 C 0.40328 0.17195 0.30713 0.0
C3582 C 0.46896 0.21963 0.26531 0.0
C3583 C 0.4588 0.2156 0.27101 0.0
C3584 C 0.44029 0.18884 0.27626 0.0
C3585 C 0.41527 0.18763 0.29831 0.0
C3586 C 0.42605 0.19155 0.29194 0.0
C3587 C 0.45709 0.20344 0.27334 0.0
C3588 C 0.44644 0.19926 0.27977 0.0
H3589 H 0.3907 0.19908 0.31089 0.0
H3590 H 0.40808 0.20534 0.29999 0.0
H3591 H 0.42555 0.17708 0.27921 0.0
H3592 H 0.48245 0.19299 0.26143 0.0
H3593 H 0.46472 0.18596 0.27139 0.0
C3594 C 0.31179 0.89608 0.32557 0.0
C3595 C 0.31538 0.88662 0.3184 0.0
C3596 C 0.30732 0.9065 0.32044 0.0
C3597 C 0.29319 0.91825 0.29285 0.0
H3598 H 0.30061 0.94863 0.30765 0.0
C3599 C 0.27191 0.96232 0.27613 0.0
C3600 C 0.26675 0.96879 0.2853 0.0
C3601 C 0.27973 0.95298 0.27887 0.0
C3602 C 0.29847 0.94022 0.30339 0.0
H3603 H 0.31698 0.88072 0.30016 0.0
H3604 H 0.30932 0.89899 0.29122 0.0
H3605 H 0.31045 0.93076 0.31501 0.0
H3606 H 0.2662 0.97102 0.30442 0.0
H3607 H 0.27982 0.95499 0.30914 0.0
H3608 H 0.28099 0.92773 0.2814 0.0
C3609 C 0.30991 0.8983 0.30082 0.0
C3610 C 0.30406 0.92996 0.30765 0.0
C3611 C 0.3144 0.88787 0.30595 0.0
C3612 C 0.27 0.96617 0.29716 0.0
C3613 C 0.27788 0.95702 0.29987 0.0
C3614 C 0.2876 0.92853 0.28857 0.0
C3615 C 0.30631 0.90775 0.308 0.0
C3616 C 0.30127 0.9188 0.30264 0.0
C3617 C 0.28266 0.95014 0.29079 0.0
C3618 C 0.28995 0.93959 0.294 0.0
H3619 H 0.31254 0.89549 0.33517 0.0
H3620 H 0.30447 0.91352 0.32626 0.0
H3621 H 0.29076 0.90979 0.28882 0.0
H3622 H 0.2695 0.96412 0.26692 0.0
H3623 H 0.28332 0.94787 0.27168 0.0
C3624 C 0.70308 0.11852 0.69931 0.0
C3625 C 0.70572 0.12279 0.68791 0.0
C3626 C 0.70785 0.10788 0.70353 0.0
C3627 C 0.73219 0.08736 0.7022 0.0
H3628 H 0.70914 0.06458 0.71377 0.0
C3629 C 0.74552 0.04265 0.72551 0.0
C3630 C 0.73911 0.0401 0.73578 0.0
C3631 C 0.74196 0.05194 0.71787 0.0
C3632 C 0.71572 0.07085 0.71064 0.0
H3633 H 0.71595 0.11928 0.67222 0.0
H3634 H 0.72464 0.10079 0.67989 0.0
H3635 H 0.7023 0.08271 0.70406 0.0
H3636 H 0.72398 0.04536 0.74605 0.0
H3637 H 0.71799 0.0614 0.73304 0.0
H3638 H 0.74564 0.07573 0.70935 0.0
C3639 C 0.71869 0.10573 0.68541 0.0
C3640 C 0.71178 0.0812 0.70503 0.0
C3641 C 0.71374 0.11634 0.68106 0.0
C3642 C 0.72911 0.04698 0.7382 0.0
C3643 C 0.72559 0.05617 0.73065 0.0
C3644 C 0.73617 0.07701 0.70797 0.0
C3645 C 0.71557 0.1013 0.69658 0.0
C3646 C 0.71996 0.0897 0.70104 0.0
C3647 C 0.7319 0.05878 0.72036 0.0
C3648 C 0.72795 0.06881 0.71259 0.0
H3649 H 0.69726 0.12338 0.70502 0.0
H3650 H 0.70548 0.10476 0.71227 0.0
H3651 H 0.73866 0.0938 0.69918 0.0
H3652 H 0.75329 0.03753 0.72341 0.0
H3653 H 0.74701 0.05371 0.71 0.0
C3654 C 0.68986 0.90613 0.3104 0.0
C3655 C 0.68262 0.89802 0.30392 0.0
C3656 C 0.69428 0.9164 0.30496 0.0
C3657 C 0.69961 0.92979 0.27526 0.0
H3658 H 0.70102 0.95927 0.29307 0.0
C3659 C 0.70964 0.97527 0.25331 0.0
C3660 C 0.71792 0.98265 0.25941 0.0
C3661 C 0.70518 0.965 0.25872 0.0
C3662 C 0.70076 0.95109 0.28801 0.0
H3663 H 0.67466 0.89426 0.28649 0.0
H3664 H 0.68199 0.91228 0.27718 0.0
H3665 H 0.69377 0.9412 0.30253 0.0
H3666 H 0.72773 0.98521 0.27611 0.0
H3667 H 0.71999 0.96733 0.28553 0.0
H3668 H 0.70646 0.93976 0.26069 0.0
C3669 C 0.6844 0.91066 0.28642 0.0
C3670 C 0.69664 0.9407 0.29344 0.0
C3671 C 0.68004 0.90039 0.29183 0.0
C3672 C 0.72147 0.97964 0.27111 0.0
C3673 C 0.71695 0.96945 0.27656 0.0
C3674 C 0.70364 0.94019 0.26981 0.0
C3675 C 0.69155 0.91884 0.29292 0.0
C3676 C 0.69603 0.9299 0.28715 0.0
C3677 C 0.70882 0.96196 0.2704 0.0
C3678 C 0.70428 0.95096 0.27612 0.0
H3679 H 0.69195 0.90467 0.31974 0.0
H3680 H 0.69989 0.9224 0.31021 0.0
H3681 H 0.69947 0.92162 0.27019 0.0
H3682 H 0.70678 0.9773 0.24427 0.0
H3683 H 0.69885 0.95946 0.25378 0.0
C3684 C 0.62273 0.21172 0.32224 0.0
C3685 C 0.62402 0.19932 0.32303 0.0
C3686 C 0.61206 0.21667 0.3179 0.0
C3687 C 0.58006 0.20934 0.31243 0.0
H3688 H 0.58095 0.23497 0.28939 0.0
C3689 C 0.54203 0.21807 0.27881 0.0
C3690 C 0.53906 0.22976 0.27561 0.0
C3691 C 0.55164 0.21581 0.28656 0.0
C3692 C 0.58053 0.22798 0.296 0.0
H3693 H 0.61498 0.18242 0.32007 0.0
H3694 H 0.59654 0.19099 0.31234 0.0
H3695 H 0.59945 0.22814 0.29895 0.0
H3696 H 0.54365 0.24831 0.2783 0.0
H3697 H 0.56072 0.24434 0.29189 0.0
H3698 H 0.5612 0.20891 0.30919 0.0
C3699 C 0.60371 0.19693 0.31517 0.0
C3700 C 0.59114 0.22404 0.30146 0.0
C3701 C 0.61436 0.192 0.31945 0.0
C3702 C 0.5457 0.23922 0.28068 0.0
C3703 C 0.5555 0.23694 0.28836 0.0
C3704 C 0.56948 0.21326 0.30696 0.0
C3705 C 0.6024 0.20933 0.31434 0.0
C3706 C 0.59106 0.21445 0.30951 0.0
C3707 C 0.55865 0.22517 0.29126 0.0
C3708 C 0.56961 0.22241 0.29845 0.0
H3709 H 0.63002 0.21762 0.32482 0.0
H3710 H 0.61134 0.22625 0.31744 0.0
H3711 H 0.57963 0.20214 0.3188 0.0
H3712 H 0.53707 0.21059 0.27506 0.0
H3713 H 0.55388 0.20665 0.28846 0.0
C3714 C 0.30645 0.10951 0.31602 0.0
C3715 C 0.30937 0.11178 0.32805 0.0
C3716 C 0.29956 0.09957 0.31273 0.0
C3717 C 0.27841 0.07734 0.32455 0.0
H3718 H 0.28669 0.05946 0.29659 0.0
C3719 C 0.25675 0.03181 0.31224 0.0
C3720 C 0.2541 0.02964 0.30013 0.0
C3721 C 0.26319 0.04198 0.31579 0.0
C3722 C 0.28417 0.06443 0.30434 0.0
H3723 H 0.30743 0.10527 0.34605 0.0
H3724 H 0.29544 0.08791 0.34032 0.0
H3725 H 0.29857 0.0768 0.30249 0.0
H3726 H 0.25574 0.03678 0.28232 0.0
H3727 H 0.26695 0.05444 0.2885 0.0
H3728 H 0.26402 0.06491 0.32641 0.0
C3729 C 0.29832 0.09392 0.33343 0.0
C3730 C 0.29098 0.07438 0.30773 0.0
C3731 C 0.30521 0.10388 0.33672 0.0
C3732 C 0.25783 0.03802 0.2917 0.0
C3733 C 0.26427 0.04816 0.29524 0.0
C3734 C 0.27159 0.06737 0.32117 0.0
C3735 C 0.29542 0.09164 0.32139 0.0
C3736 C 0.28818 0.08099 0.31786 0.0
C3737 C 0.26713 0.05022 0.30732 0.0
C3738 C 0.27437 0.06081 0.311 0.0
H3739 H 0.30935 0.11552 0.30913 0.0
H3740 H 0.29733 0.0982 0.3034 0.0
H3741 H 0.2759 0.08232 0.33231 0.0
H3742 H 0.25414 0.02551 0.31897 0.0
H3743 H 0.26535 0.04323 0.32516 0.0
C3744 C 0.39862 0.80065 0.32797 0.0
C3745 C 0.38957 0.80511 0.32036 0.0
C3746 C 0.40815 0.79444 0.32341 0.0
C3747 C 0.41671 0.77716 0.29721 0.0
H3748 H 0.44862 0.7814 0.31068 0.0
C3749 C 0.45798 0.75524 0.27724 0.0
C3750 C 0.46655 0.75057 0.28527 0.0
C3751 C 0.44853 0.76194 0.28133 0.0
C3752 C 0.43974 0.78002 0.30691 0.0
H3753 H 0.38355 0.80664 0.30194 0.0
H3754 H 0.40033 0.79596 0.29392 0.0
H3755 H 0.43246 0.7934 0.31798 0.0
H3756 H 0.47183 0.74927 0.30392 0.0
H3757 H 0.45526 0.76078 0.31106 0.0
H3758 H 0.424 0.76375 0.28615 0.0
C3759 C 0.39995 0.79716 0.30346 0.0
C3760 C 0.43047 0.78691 0.31108 0.0
C3761 C 0.39041 0.8034 0.30804 0.0
C3762 C 0.46535 0.75263 0.2975 0.0
C3763 C 0.45592 0.75936 0.30158 0.0
C3764 C 0.42598 0.77027 0.29303 0.0
C3765 C 0.40889 0.79253 0.3111 0.0
C3766 C 0.41883 0.78552 0.30633 0.0
C3767 C 0.44745 0.76417 0.29354 0.0
C3768 C 0.43759 0.77157 0.29787 0.0
H3769 H 0.39832 0.80194 0.3375 0.0
H3770 H 0.41481 0.79091 0.32956 0.0
H3771 H 0.40782 0.77573 0.29348 0.0
H3772 H 0.45856 0.75371 0.26778 0.0
H3773 H 0.4422 0.76558 0.27489 0.0
C3774 C 0.32257 0.91613 0.70183 0.0
C3775 C 0.31501 0.90626 0.69988 0.0
C3776 C 0.31824 0.92658 0.7067 0.0
C3777 C 0.29072 0.94317 0.71271 0.0
H3778 H 0.31108 0.95849 0.73664 0.0
C3779 C 0.27606 0.98164 0.74387 0.0
C3780 C 0.28476 0.99033 0.74672 0.0
C3781 C 0.27892 0.9718 0.7369 0.0
C3782 C 0.30533 0.95443 0.72986 0.0
H3783 H 0.2969 0.89972 0.70135 0.0
H3784 H 0.28935 0.918 0.70995 0.0
H3785 H 0.31767 0.94047 0.72714 0.0
H3786 H 0.30289 0.99606 0.74369 0.0
H3787 H 0.30775 0.97915 0.73139 0.0
H3788 H 0.27831 0.95719 0.71562 0.0
C3789 C 0.2986 0.91767 0.70758 0.0
C3790 C 0.30912 0.94408 0.7244 0.0
C3791 C 0.30294 0.9072 0.70266 0.0
C3792 C 0.29605 0.98943 0.74179 0.0
C3793 C 0.29886 0.97969 0.7348 0.0
C3794 C 0.2869 0.95358 0.71821 0.0
C3795 C 0.30625 0.92744 0.70979 0.0
C3796 C 0.30193 0.93836 0.71568 0.0
C3797 C 0.29049 0.97053 0.73264 0.0
C3798 C 0.29424 0.95939 0.72677 0.0
H3799 H 0.33185 0.9158 0.69954 0.0
H3800 H 0.32432 0.93402 0.70803 0.0
H3801 H 0.28499 0.93902 0.70597 0.0
H3802 H 0.2673 0.98209 0.7476 0.0
H3803 H 0.27227 0.96489 0.73539 0.0
C3804 C 0.61686 0.8002 0.68055 0.0
C3805 C 0.61719 0.81263 0.67923 0.0
C3806 C 0.60664 0.79448 0.68468 0.0
C3807 C 0.57437 0.79899 0.68927 0.0
H3808 H 0.57858 0.77636 0.71502 0.0
C3809 C 0.53977 0.79146 0.72476 0.0
C3810 C 0.53797 0.78007 0.72954 0.0
C3811 C 0.54845 0.79345 0.71636 0.0
C3812 C 0.57722 0.78246 0.70767 0.0
H3813 H 0.6069 0.82872 0.68072 0.0
H3814 H 0.58923 0.81882 0.68803 0.0
H3815 H 0.5959 0.78362 0.70449 0.0
H3816 H 0.54357 0.76173 0.72897 0.0
H3817 H 0.55896 0.76526 0.71426 0.0
H3818 H 0.55576 0.7982 0.69275 0.0
C3819 C 0.5968 0.81345 0.68584 0.0
C3820 C 0.58716 0.78664 0.70164 0.0
C3821 C 0.60699 0.81915 0.68179 0.0
C3822 C 0.54473 0.77058 0.72538 0.0
C3823 C 0.55358 0.77262 0.71705 0.0
C3824 C 0.56446 0.79484 0.6953 0.0
C3825 C 0.59652 0.80106 0.68746 0.0
C3826 C 0.58588 0.79525 0.69262 0.0
C3827 C 0.55564 0.78413 0.71259 0.0
C3828 C 0.56581 0.78681 0.70482 0.0
H3829 H 0.6246 0.79494 0.6787 0.0
H3830 H 0.60669 0.78492 0.68577 0.0
H3831 H 0.57304 0.80541 0.68218 0.0
H3832 H 0.53468 0.79895 0.72777 0.0
H3833 H 0.54988 0.80245 0.71324 0.0
C3834 C 0.40239 0.21193 0.70407 0.0
C3835 C 0.40219 0.20846 0.69207 0.0
C3836 C 0.41205 0.21833 0.70896 0.0
C3837 C 0.44393 0.22414 0.70507 0.0
H3838 H 0.43891 0.24767 0.72954 0.0
C3839 C 0.48279 0.2449 0.73373 0.0
C3840 C 0.48093 0.2434 0.74594 0.0
C3841 C 0.47335 0.24313 0.72544 0.0
C3842 C 0.44046 0.24118 0.72266 0.0
H3843 H 0.41195 0.20915 0.67574 0.0
H3844 H 0.42884 0.22046 0.68428 0.0
H3845 H 0.42191 0.23973 0.71803 0.0
H3846 H 0.46772 0.23957 0.75911 0.0
H3847 H 0.45135 0.23676 0.74479 0.0
H3848 H 0.46248 0.22538 0.71001 0.0
C3849 C 0.42152 0.21814 0.68992 0.0
C3850 C 0.43072 0.23658 0.71611 0.0
C3851 C 0.41181 0.21174 0.685 0.0
C3852 C 0.46942 0.24073 0.74974 0.0
C3853 C 0.46001 0.2392 0.74154 0.0
C3854 C 0.45369 0.22879 0.71161 0.0
C3855 C 0.42177 0.22147 0.70197 0.0
C3856 C 0.43228 0.22769 0.70753 0.0
C3857 C 0.46189 0.24013 0.72928 0.0
C3858 C 0.452 0.23705 0.72076 0.0
H3859 H 0.39507 0.20969 0.70973 0.0
H3860 H 0.412 0.22058 0.71831 0.0
H3861 H 0.44545 0.21728 0.69856 0.0
H3862 H 0.4916 0.2469 0.73059 0.0
H3863 H 0.47503 0.24392 0.71603 0.0
C3864 C 0.69859 0.70707 0.10531 0.0
C3865 C 0.69238 0.71162 0.11494 0.0
C3866 C 0.70193 0.71447 0.09596 0.0
C3867 C 0.70659 0.74622 0.08813 0.0
H3868 H 0.70512 0.73416 0.05583 0.0
C3869 C 0.71433 0.77609 0.04697 0.0
C3870 C 0.72182 0.77146 0.03837 0.0
C3871 C 0.71038 0.76893 0.05627 0.0
C3872 C 0.70565 0.73763 0.06482 0.0
H3873 H 0.68499 0.72766 0.12232 0.0
H3874 H 0.69047 0.74045 0.10587 0.0
H3875 H 0.69893 0.72144 0.07213 0.0
H3876 H 0.73076 0.75558 0.03262 0.0
H3877 H 0.72391 0.74311 0.04882 0.0
H3878 H 0.71322 0.76246 0.08074 0.0
C3879 C 0.69291 0.73118 0.10561 0.0
C3880 C 0.70214 0.73032 0.07417 0.0
C3881 C 0.68962 0.72379 0.11498 0.0
C3882 C 0.72513 0.75946 0.03918 0.0
C3883 C 0.7211 0.75228 0.0484 0.0
C3884 C 0.71002 0.75355 0.07875 0.0
C3885 C 0.69911 0.72662 0.09596 0.0
C3886 C 0.70264 0.73449 0.08597 0.0
C3887 C 0.71372 0.75694 0.05708 0.0
C3888 C 0.70967 0.74931 0.067 0.0
H3889 H 0.70076 0.69773 0.10489 0.0
H3890 H 0.70684 0.71066 0.08877 0.0
H3891 H 0.70727 0.74969 0.0971 0.0
H3892 H 0.71169 0.78531 0.04663 0.0
H3893 H 0.70463 0.77275 0.06278 0.0
C3894 C 0.30462 0.70077 0.10974 0.0
C3895 C 0.30842 0.68893 0.10962 0.0
C3896 C 0.29901 0.70577 0.09973 0.0
C3897 C 0.28375 0.69936 0.07071 0.0
H3898 H 0.29517 0.73106 0.06338 0.0
C3899 C 0.27336 0.72577 0.0264 0.0
C3900 C 0.27193 0.73807 0.02783 0.0
C3901 C 0.27633 0.71863 0.0363 0.0
C3902 C 0.29175 0.72227 0.06535 0.0
H3903 H 0.30883 0.67286 0.09904 0.0
H3904 H 0.29904 0.68166 0.08141 0.0
H3905 H 0.30319 0.72082 0.08074 0.0
H3906 H 0.27136 0.75237 0.04066 0.0
H3907 H 0.27611 0.73998 0.05781 0.0
H3908 H 0.27234 0.70093 0.0551 0.0
C3909 C 0.30036 0.68704 0.08932 0.0
C3910 C 0.29636 0.71638 0.07534 0.0
C3911 C 0.30597 0.68201 0.09941 0.0
C3912 C 0.27257 0.74293 0.03931 0.0
C3913 C 0.27538 0.73584 0.04912 0.0
C3914 C 0.27911 0.7053 0.06063 0.0
C3915 C 0.29708 0.69907 0.08928 0.0
C3916 C 0.2923 0.70494 0.07828 0.0
C3917 C 0.27783 0.72372 0.0477 0.0
C3918 C 0.28293 0.71691 0.05797 0.0
H3919 H 0.30613 0.70626 0.11756 0.0
H3920 H 0.29632 0.71497 0.10012 0.0
H3921 H 0.28045 0.69053 0.07273 0.0
H3922 H 0.27298 0.72186 0.01761 0.0
H3923 H 0.27813 0.7093 0.03494 0.0
C3924 C 0.33638 0.30698 0.11941 0.0
C3925 C 0.32972 0.3117 0.12867 0.0
C3926 C 0.33071 0.30094 0.1099 0.0
C3927 C 0.30143 0.29877 0.09443 0.0
H3928 H 0.31297 0.26944 0.08106 0.0
C3929 C 0.27159 0.27157 0.06313 0.0
C3930 C 0.27633 0.26759 0.05246 0.0
C3931 C 0.27901 0.27582 0.07233 0.0
C3932 C 0.30972 0.27769 0.08463 0.0
H3933 H 0.31195 0.31318 0.13548 0.0
H3934 H 0.30211 0.30275 0.11897 0.0
H3935 H 0.32431 0.27925 0.09734 0.0
H3936 H 0.29264 0.26425 0.04329 0.0
H3937 H 0.30578 0.27187 0.05951 0.0
H3938 H 0.28689 0.29732 0.08187 0.0
C3939 C 0.31168 0.30393 0.11889 0.0
C3940 C 0.31621 0.28331 0.09394 0.0
C3941 C 0.31732 0.30994 0.12836 0.0
C3942 C 0.28876 0.26726 0.05144 0.0
C3943 C 0.29625 0.27163 0.06071 0.0
C3944 C 0.295 0.29321 0.08519 0.0
C3945 C 0.31826 0.29951 0.10945 0.0
C3946 C 0.31198 0.2938 0.09908 0.0
C3947 C 0.29139 0.27633 0.07108 0.0
C3948 C 0.29891 0.28248 0.08034 0.0
H3949 H 0.34594 0.30824 0.11935 0.0
H3950 H 0.33602 0.29769 0.10274 0.0
H3951 H 0.29809 0.30701 0.09796 0.0
H3952 H 0.26205 0.27176 0.06426 0.0
H3953 H 0.27499 0.27905 0.08033 0.0
C3954 C 0.70658 0.33219 0.10788 0.0
C3955 C 0.69976 0.32506 0.11546 0.0
C3956 C 0.71108 0.32748 0.09742 0.0
C3957 C 0.70557 0.30347 0.07574 0.0
H3958 H 0.73822 0.30899 0.06685 0.0
C3959 C 0.72651 0.27704 0.03806 0.0
C3960 C 0.73456 0.28287 0.03066 0.0
C3961 C 0.72232 0.28265 0.04817 0.0
C3962 C 0.72902 0.3075 0.06909 0.0
H3963 H 0.69281 0.30722 0.11815 0.0
H3964 H 0.70045 0.29914 0.09988 0.0
H3965 H 0.73092 0.31804 0.08493 0.0
H3966 H 0.74439 0.29926 0.028 0.0
H3967 H 0.73694 0.30918 0.04555 0.0
H3968 H 0.70356 0.29306 0.05992 0.0
C3969 C 0.70216 0.30841 0.10194 0.0
C3970 C 0.72486 0.31267 0.07948 0.0
C3971 C 0.69775 0.31307 0.11241 0.0
C3972 C 0.73829 0.29449 0.03359 0.0
C3973 C 0.73404 0.30015 0.04367 0.0
C3974 C 0.70969 0.29839 0.06533 0.0
C3975 C 0.70879 0.31557 0.09427 0.0
C3976 C 0.71313 0.31058 0.08299 0.0
C3977 C 0.726 0.2943 0.05111 0.0
C3978 C 0.72151 0.30021 0.06193 0.0
H3979 H 0.70821 0.34148 0.10987 0.0
H3980 H 0.7161 0.33323 0.09165 0.0
H3981 H 0.69642 0.30187 0.0781 0.0
H3982 H 0.72362 0.26801 0.0362 0.0
H3983 H 0.71636 0.27775 0.0538 0.0
C3984 C 0.70747 0.31409 0.88708 0.0
C3985 C 0.70613 0.32637 0.88517 0.0
C3986 C 0.71308 0.30986 0.89749 0.0
C3987 C 0.72139 0.31848 0.92842 0.0
H3988 H 0.74314 0.29208 0.92661 0.0
C3989 C 0.75061 0.30332 0.96879 0.0
C3990 C 0.75186 0.29102 0.97054 0.0
C3991 C 0.74511 0.30772 0.95838 0.0
C3992 C 0.73699 0.29938 0.9273 0.0
H3993 H 0.70954 0.34379 0.89284 0.0
H3994 H 0.7195 0.33641 0.91089 0.0
H3995 H 0.73337 0.29955 0.90851 0.0
H3996 H 0.74829 0.2737 0.96269 0.0
H3997 H 0.73862 0.28135 0.94464 0.0
H3998 H 0.725 0.3183 0.94722 0.0
C3999 C 0.71612 0.33005 0.90437 0.0
C4000 C 0.73139 0.30366 0.91691 0.0
C4001 C 0.71052 0.33429 0.89396 0.0
C4002 C 0.7475 0.28323 0.96163 0.0
C4003 C 0.74202 0.28762 0.95123 0.0
C4004 C 0.727 0.3142 0.93882 0.0
C4005 C 0.71749 0.31778 0.90627 0.0
C4006 C 0.7235 0.31326 0.91734 0.0
C4007 C 0.74074 0.29992 0.94947 0.0
C4008 C 0.73486 0.30457 0.93839 0.0
H4009 H 0.7043 0.30774 0.88046 0.0
H4010 H 0.71386 0.30035 0.89871 0.0
H4011 H 0.71523 0.32577 0.92911 0.0
H4012 H 0.75388 0.30958 0.97545 0.0
H4013 H 0.74441 0.31724 0.95726 0.0
C4014 C 0.72529 0.70795 0.90128 0.0
C4015 C 0.7133 0.70443 0.89977 0.0
C4016 C 0.72931 0.71358 0.91178 0.0
C4017 C 0.71768 0.73136 0.93622 0.0
H4018 H 0.74817 0.72564 0.95214 0.0
C4019 C 0.72843 0.75289 0.98097 0.0
C4020 C 0.73956 0.75855 0.98247 0.0
C4021 C 0.72623 0.74503 0.97159 0.0
C4022 C 0.73967 0.72739 0.94773 0.0
H4023 H 0.69633 0.70337 0.90839 0.0
H4024 H 0.70331 0.71309 0.92665 0.0
H4025 H 0.74238 0.71426 0.93425 0.0
H4026 H 0.75737 0.75989 0.97571 0.0
H4027 H 0.75346 0.74616 0.95905 0.0
H4028 H 0.71493 0.74451 0.94947 0.0
C4029 C 0.70956 0.71179 0.91963 0.0
C4030 C 0.73636 0.72088 0.9375 0.0
C4031 C 0.70555 0.70622 0.90916 0.0
C4032 C 0.74872 0.75561 0.97479 0.0
C4033 C 0.74647 0.74776 0.96526 0.0
C4034 C 0.72097 0.73783 0.94637 0.0
C4035 C 0.72142 0.71577 0.92098 0.0
C4036 C 0.72525 0.72272 0.93171 0.0
C4037 C 0.73506 0.74272 0.96334 0.0
C4038 C 0.73193 0.73584 0.95236 0.0
H4039 H 0.73147 0.70675 0.89417 0.0
H4040 H 0.73849 0.71659 0.91251 0.0
H4041 H 0.70921 0.73325 0.93181 0.0
H4042 H 0.72124 0.75486 0.98685 0.0
H4043 H 0.71745 0.74103 0.97058 0.0
C4044 C 0.32376 0.71434 0.87934 0.0
C4045 C 0.33127 0.70446 0.8803 0.0
C4046 C 0.31939 0.71967 0.88955 0.0
C4047 C 0.32617 0.725 0.92081 0.0
H4048 H 0.29223 0.72904 0.92415 0.0
C4049 C 0.30698 0.7417 0.96483 0.0
C4050 C 0.29646 0.74832 0.96439 0.0
C4051 C 0.31122 0.73644 0.95453 0.0
C4052 C 0.30176 0.72823 0.92332 0.0
H4053 H 0.34023 0.69249 0.89262 0.0
H4054 H 0.33285 0.70206 0.91052 0.0
H4055 H 0.29964 0.71993 0.9062 0.0
H4056 H 0.28232 0.75494 0.95283 0.0
H4057 H 0.28997 0.74632 0.93473 0.0
H4058 H 0.32845 0.73367 0.93761 0.0
C4059 C 0.33024 0.70556 0.90186 0.0
C4060 C 0.30597 0.72291 0.91304 0.0
C4061 C 0.3344 0.70006 0.89165 0.0
C4062 C 0.29039 0.74977 0.95342 0.0
C4063 C 0.29476 0.74473 0.94306 0.0
C4064 C 0.32199 0.73055 0.93098 0.0
C4065 C 0.32266 0.71538 0.9009 0.0
C4066 C 0.3182 0.72117 0.91173 0.0
C4067 C 0.30519 0.73788 0.94346 0.0
C4068 C 0.3097 0.73218 0.93245 0.0
H4069 H 0.32119 0.71786 0.87069 0.0
H4070 H 0.31359 0.72726 0.88858 0.0
H4071 H 0.33566 0.72387 0.91994 0.0
H4072 H 0.31174 0.7403 0.97321 0.0
H4073 H 0.31912 0.73104 0.95535 0.0
C4074 C 0.31872 0.33079 0.91651 0.0
C4075 C 0.32197 0.32266 0.90772 0.0
C4076 C 0.31274 0.32692 0.92654 0.0
C4077 C 0.30622 0.30002 0.94428 0.0
H4078 H 0.2803 0.31888 0.95588 0.0
C4079 C 0.27422 0.28206 0.97915 0.0
C4080 C 0.27123 0.28971 0.98846 0.0
C4081 C 0.28035 0.28634 0.96939 0.0
C4082 C 0.2876 0.31358 0.95283 0.0
H4083 H 0.32147 0.30411 0.90257 0.0
H4084 H 0.31097 0.29735 0.92005 0.0
H4085 H 0.29128 0.32575 0.93874 0.0
H4086 H 0.2722 0.30793 0.99467 0.0
H4087 H 0.28288 0.31544 0.97755 0.0
H4088 H 0.30247 0.2878 0.9583 0.0
C4089 C 0.31321 0.3067 0.91928 0.0
C4090 C 0.2939 0.31752 0.94301 0.0
C4091 C 0.31922 0.31056 0.90926 0.0
C4092 C 0.27428 0.30182 0.98762 0.0
C4093 C 0.2804 0.30612 0.97782 0.0
C4094 C 0.29989 0.29607 0.95407 0.0
C4095 C 0.30985 0.31484 0.92803 0.0
C4096 C 0.30326 0.31076 0.93859 0.0
C4097 C 0.28362 0.29839 0.96866 0.0
C4098 C 0.29048 0.30277 0.95842 0.0
H4099 H 0.32088 0.34015 0.91568 0.0
H4100 H 0.31049 0.3334 0.9332 0.0
H4101 H 0.31351 0.2947 0.94126 0.0
H4102 H 0.27176 0.27274 0.97935 0.0
H4103 H 0.28246 0.2802 0.96237 0.0
C4104 C 0.61364 0.69526 0.18992 0.0
C4105 C 0.62285 0.68866 0.19538 0.0
C4106 C 0.60357 0.69828 0.19622 0.0
C4107 C 0.58588 0.68956 0.22181 0.0
H4108 H 0.57399 0.72172 0.21957 0.0
C4109 C 0.54743 0.70594 0.25055 0.0
C4110 C 0.53918 0.71372 0.24519 0.0
C4111 C 0.55779 0.70286 0.24473 0.0
C4112 C 0.57708 0.71265 0.22018 0.0
H4113 H 0.62865 0.68014 0.21185 0.0
H4114 H 0.61096 0.68524 0.22274 0.0
H4115 H 0.59165 0.71631 0.20885 0.0
H4116 H 0.53517 0.72411 0.22937 0.0
H4117 H 0.55307 0.71863 0.21913 0.0
H4118 H 0.57121 0.68581 0.23296 0.0
C4119 C 0.61155 0.68801 0.21355 0.0
C4120 C 0.58723 0.70957 0.21405 0.0
C4121 C 0.62167 0.68506 0.20729 0.0
C4122 C 0.54146 0.71827 0.23384 0.0
C4123 C 0.55175 0.71513 0.22798 0.0
C4124 C 0.57566 0.69261 0.22787 0.0
C4125 C 0.60242 0.6947 0.2081 0.0
C4126 C 0.59173 0.69798 0.21477 0.0
C4127 C 0.56009 0.70743 0.23336 0.0
C4128 C 0.5711 0.70419 0.2271 0.0
H4129 H 0.61411 0.69798 0.18071 0.0
H4130 H 0.5966 0.70329 0.19172 0.0
H4131 H 0.58907 0.68052 0.22243 0.0
H4132 H 0.54598 0.70239 0.25935 0.0
H4133 H 0.56408 0.69705 0.24923 0.0
C4134 C 0.32995 0.6146 0.20472 0.0
C4135 C 0.32621 0.61528 0.19269 0.0
C4136 C 0.32699 0.60475 0.21166 0.0
C4137 C 0.31707 0.57327 0.2093 0.0
H4138 H 0.30939 0.57753 0.24241 0.0
C4139 C 0.29692 0.53583 0.23787 0.0
C4140 C 0.30122 0.53463 0.24968 0.0
C4141 C 0.3004 0.54548 0.23091 0.0
C4142 C 0.31165 0.57618 0.23321 0.0
H4143 H 0.31631 0.60606 0.17859 0.0
H4144 H 0.31085 0.58905 0.19078 0.0
H4145 H 0.31415 0.59481 0.23029 0.0
H4146 H 0.31266 0.5426 0.26337 0.0
H4147 H 0.31879 0.55948 0.25118 0.0
H4148 H 0.31438 0.55463 0.21223 0.0
C4149 C 0.31627 0.59606 0.1948 0.0
C4150 C 0.31439 0.58608 0.22625 0.0
C4151 C 0.31927 0.6059 0.18783 0.0
C4152 C 0.30925 0.54323 0.2543 0.0
C4153 C 0.31266 0.55295 0.24735 0.0
C4154 C 0.31426 0.56337 0.21625 0.0
C4155 C 0.32014 0.59533 0.20679 0.0
C4156 C 0.31713 0.58477 0.21419 0.0
C4157 C 0.30822 0.55421 0.2356 0.0
C4158 C 0.31151 0.56471 0.22829 0.0
H4159 H 0.33514 0.62172 0.20883 0.0
H4160 H 0.33025 0.60447 0.22081 0.0
H4161 H 0.31935 0.57187 0.20012 0.0
H4162 H 0.29084 0.52929 0.234 0.0
H4163 H 0.29675 0.54622 0.22192 0.0
C4164 C 0.40944 0.31686 0.21719 0.0
C4165 C 0.40973 0.3225 0.20605 0.0
C4166 C 0.41961 0.31132 0.22199 0.0
C4167 C 0.4476 0.29812 0.21199 0.0
H4168 H 0.45454 0.29465 0.2458 0.0
C4169 C 0.47724 0.26087 0.22939 0.0
C4170 C 0.48572 0.26318 0.23856 0.0
C4171 C 0.46867 0.26924 0.22625 0.0
C4172 C 0.45281 0.29566 0.23633 0.0
H4173 H 0.42107 0.32748 0.19159 0.0
H4174 H 0.43885 0.31815 0.20006 0.0
H4175 H 0.43861 0.30789 0.23893 0.0
H4176 H 0.49161 0.27604 0.25185 0.0
H4177 H 0.47652 0.29087 0.24623 0.0
H4178 H 0.46179 0.28603 0.20933 0.0
C4179 C 0.43071 0.31762 0.20495 0.0
C4180 C 0.44359 0.30314 0.23238 0.0
C4181 C 0.42053 0.32301 0.20009 0.0
C4182 C 0.48522 0.27402 0.24473 0.0
C4183 C 0.47657 0.28248 0.24153 0.0
C4184 C 0.4568 0.29073 0.21592 0.0
C4185 C 0.43032 0.31141 0.21581 0.0
C4186 C 0.44074 0.30432 0.22015 0.0
C4187 C 0.46831 0.28023 0.23211 0.0
C4188 C 0.45936 0.28917 0.22813 0.0
H4189 H 0.40122 0.31627 0.22195 0.0
H4190 H 0.4189 0.30653 0.2303 0.0
H4191 H 0.44564 0.29863 0.20253 0.0
H4192 H 0.47721 0.25257 0.22454 0.0
H4193 H 0.46227 0.26704 0.21918 0.0
C4194 C 0.69889 0.39984 0.21119 0.0
C4195 C 0.6983 0.39857 0.19873 0.0
C4196 C 0.70337 0.41032 0.21643 0.0
C4197 C 0.71014 0.44198 0.2095 0.0
H4198 H 0.73263 0.4399 0.23623 0.0
C4199 C 0.74559 0.47756 0.21963 0.0
C4200 C 0.74815 0.48094 0.23145 0.0
C4201 C 0.73761 0.46831 0.21703 0.0
C4202 C 0.72619 0.44065 0.22891 0.0
H4203 H 0.7017 0.40751 0.18206 0.0
H4204 H 0.70974 0.42555 0.19113 0.0
H4205 H 0.72235 0.42196 0.22896 0.0
H4206 H 0.74422 0.47738 0.24986 0.0
H4207 H 0.7303 0.46087 0.2453 0.0
H4208 H 0.71437 0.46057 0.20914 0.0
C4209 C 0.70662 0.41853 0.19689 0.0
C4210 C 0.7203 0.43037 0.22474 0.0
C4211 C 0.70217 0.40809 0.19167 0.0
C4212 C 0.74235 0.475 0.24067 0.0
C4213 C 0.73446 0.46553 0.23806 0.0
C4214 C 0.71607 0.45221 0.21363 0.0
C4215 C 0.7073 0.4198 0.20934 0.0
C4216 C 0.71245 0.43087 0.21476 0.0
C4217 C 0.73207 0.46206 0.22619 0.0
C4218 C 0.7244 0.45161 0.22317 0.0
H4219 H 0.69607 0.39265 0.2169 0.0
H4220 H 0.7037 0.41102 0.22604 0.0
H4221 H 0.70394 0.44276 0.202 0.0
H4222 H 0.74989 0.48199 0.21233 0.0
H4223 H 0.73608 0.46577 0.20782 0.0
C4224 C 0.61571 0.31634 0.81541 0.0
C4225 C 0.62433 0.3207 0.80767 0.0
C4226 C 0.60497 0.31156 0.81093 0.0
C4227 C 0.59073 0.2984 0.78388 0.0
H4228 H 0.56187 0.30384 0.80104 0.0
C4229 C 0.54486 0.27754 0.76962 0.0
C4230 C 0.53948 0.27141 0.77898 0.0
C4231 C 0.55457 0.28521 0.77198 0.0
C4232 C 0.56985 0.30227 0.79613 0.0
H4233 H 0.62843 0.32325 0.7891 0.0
H4234 H 0.60957 0.31512 0.78131 0.0
H4235 H 0.58029 0.31388 0.80739 0.0
H4236 H 0.53967 0.26889 0.7981 0.0
H4237 H 0.55634 0.2823 0.80218 0.0
H4238 H 0.58023 0.28664 0.77273 0.0
C4239 C 0.61117 0.31532 0.79085 0.0
C4240 C 0.58043 0.30796 0.79981 0.0
C4241 C 0.62194 0.3201 0.79532 0.0
C4242 C 0.54365 0.27345 0.7907 0.0
C4243 C 0.55316 0.2812 0.79305 0.0
C4244 C 0.58011 0.29275 0.78015 0.0
C4245 C 0.60253 0.31103 0.7986 0.0
C4246 C 0.59107 0.30586 0.79393 0.0
C4247 C 0.55886 0.28703 0.78373 0.0
C4248 C 0.56963 0.2944 0.78644 0.0
H4249 H 0.61718 0.31678 0.82495 0.0
H4250 H 0.59862 0.30816 0.81717 0.0
H4251 H 0.59877 0.29652 0.77918 0.0
H4252 H 0.54184 0.27608 0.7605 0.0
H4253 H 0.55879 0.28963 0.76463 0.0
C4254 C 0.73122 0.63074 0.81644 0.0
C4255 C 0.71891 0.63053 0.81838 0.0
C4256 C 0.73683 0.62085 0.81169 0.0
C4257 C 0.7334 0.5884 0.80765 0.0
H4258 H 0.75596 0.59283 0.78257 0.0
C4259 C 0.74866 0.54986 0.77815 0.0
C4260 C 0.76028 0.55006 0.77383 0.0
C4261 C 0.74447 0.55934 0.7848 0.0
C4262 C 0.74986 0.59142 0.78972 0.0
H4263 H 0.70289 0.61968 0.81696 0.0
H4264 H 0.71266 0.60245 0.80859 0.0
H4265 H 0.7469 0.61009 0.79155 0.0
H4266 H 0.77679 0.56019 0.77365 0.0
H4267 H 0.76954 0.57665 0.78546 0.0
H4268 H 0.73631 0.56974 0.80581 0.0
C4269 C 0.71798 0.61025 0.8108 0.0
C4270 C 0.74463 0.60134 0.79484 0.0
C4271 C 0.71236 0.62018 0.81547 0.0
C4272 C 0.76778 0.55975 0.77679 0.0
C4273 C 0.76358 0.56925 0.78348 0.0
C4274 C 0.73868 0.57849 0.80258 0.0
C4275 C 0.73028 0.61047 0.80886 0.0
C4276 C 0.73623 0.59994 0.80377 0.0
C4277 C 0.75178 0.56928 0.78735 0.0
C4278 C 0.74687 0.57985 0.79344 0.0
H4279 H 0.73651 0.63861 0.81849 0.0
H4280 H 0.74633 0.62128 0.81038 0.0
H4281 H 0.72712 0.58703 0.81466 0.0
H4282 H 0.74261 0.54255 0.77605 0.0
H4283 H 0.7353 0.55908 0.7875 0.0
C4284 C 0.41643 0.70432 0.80925 0.0
C4285 C 0.40668 0.70113 0.80177 0.0
C4286 C 0.42712 0.70821 0.80448 0.0
C4287 C 0.43976 0.72142 0.77757 0.0
H4288 H 0.46966 0.71179 0.79252 0.0
C4289 C 0.4852 0.73933 0.76173 0.0
C4290 C 0.49258 0.7438 0.77102 0.0
C4291 C 0.47522 0.73228 0.76426 0.0
C4292 C 0.46139 0.71457 0.78825 0.0
H4293 H 0.40052 0.69968 0.78337 0.0
H4294 H 0.41926 0.70637 0.77502 0.0
H4295 H 0.45102 0.70333 0.79938 0.0
H4296 H 0.49569 0.74387 0.79014 0.0
H4297 H 0.47848 0.73161 0.79451 0.0
H4298 H 0.45015 0.73288 0.76662 0.0
C4299 C 0.41859 0.7059 0.7846 0.0
C4300 C 0.4507 0.70975 0.7922 0.0
C4301 C 0.40789 0.70197 0.78938 0.0
C4302 C 0.49016 0.74059 0.78279 0.0
C4303 C 0.48031 0.73349 0.78529 0.0
C4304 C 0.45047 0.72624 0.7736 0.0
C4305 C 0.42835 0.70902 0.79209 0.0
C4306 C 0.43974 0.71332 0.7871 0.0
C4307 C 0.47257 0.72945 0.77609 0.0
C4308 C 0.46139 0.72308 0.77909 0.0
H4309 H 0.41585 0.70365 0.81883 0.0
H4310 H 0.4344 0.71071 0.81052 0.0
H4311 H 0.43148 0.72443 0.77349 0.0
H4312 H 0.48683 0.7417 0.75258 0.0
H4313 H 0.46946 0.72922 0.75698 0.0
C4314 C 0.33042 0.40711 0.83208 0.0
C4315 C 0.32623 0.39583 0.82854 0.0
C4316 C 0.32442 0.41734 0.82829 0.0
C4317 C 0.30409 0.42913 0.80528 0.0
H4318 H 0.29416 0.45096 0.82963 0.0
C4319 C 0.27123 0.46666 0.79408 0.0
C4320 C 0.27288 0.47761 0.79988 0.0
C4321 C 0.2777 0.45672 0.79777 0.0
C4322 C 0.29701 0.44509 0.82267 0.0
H4323 H 0.31285 0.38634 0.81793 0.0
H4324 H 0.30255 0.40423 0.81105 0.0
H4325 H 0.30633 0.43389 0.83517 0.0
H4326 H 0.28257 0.48677 0.81411 0.0
H4327 H 0.29415 0.46955 0.82037 0.0
H4328 H 0.2951 0.44037 0.79271 0.0
C4329 C 0.31037 0.40517 0.81683 0.0
C4330 C 0.30396 0.43529 0.82587 0.0
C4331 C 0.31623 0.39495 0.82079 0.0
C4332 C 0.28099 0.47838 0.80959 0.0
C4333 C 0.28762 0.46849 0.81318 0.0
C4334 C 0.29731 0.43902 0.80204 0.0
C4335 C 0.31428 0.41645 0.82072 0.0
C4336 C 0.30748 0.42717 0.81722 0.0
C4337 C 0.28615 0.45753 0.80723 0.0
C4338 C 0.29356 0.44708 0.8107 0.0
H4339 H 0.33805 0.408 0.83813 0.0
H4340 H 0.32764 0.42594 0.83135 0.0
H4341 H 0.30679 0.42305 0.79842 0.0
H4342 H 0.26494 0.46583 0.78664 0.0
H4343 H 0.27607 0.4484 0.79316 0.0
C4344 C 0.71176 0.6141 0.17104 0.0
C4345 C 0.70862 0.6226 0.17951 0.0
C4346 C 0.71804 0.60393 0.1745 0.0
C4347 C 0.72501 0.58539 0.20101 0.0
H4348 H 0.74942 0.57238 0.1813 0.0
C4349 C 0.74649 0.5404 0.21208 0.0
C4350 C 0.75885 0.53951 0.21088 0.0
C4351 C 0.74034 0.55022 0.20756 0.0
C4352 C 0.74268 0.57594 0.18695 0.0
H4353 H 0.71001 0.62729 0.19819 0.0
H4354 H 0.72107 0.60968 0.20421 0.0
H4355 H 0.73912 0.59042 0.17504 0.0
H4356 H 0.77442 0.54816 0.20379 0.0
H4357 H 0.76373 0.5654 0.196 0.0
H4358 H 0.72878 0.57117 0.2131 0.0
C4359 C 0.71843 0.61069 0.19493 0.0
C4360 C 0.73668 0.58621 0.18329 0.0
C4361 C 0.7121 0.62081 0.19148 0.0
C4362 C 0.76489 0.54853 0.20475 0.0
C4363 C 0.75874 0.55841 0.20029 0.0
C4364 C 0.73103 0.57516 0.20469 0.0
C4365 C 0.72139 0.60206 0.1865 0.0
C4366 C 0.72778 0.59109 0.1903 0.0
C4367 C 0.74641 0.55946 0.20178 0.0
C4368 C 0.73994 0.57029 0.19771 0.0
H4369 H 0.7091 0.61516 0.16177 0.0
H4370 H 0.72004 0.59741 0.16779 0.0
H4371 H 0.71811 0.58878 0.20656 0.0
H4372 H 0.74156 0.5335 0.21656 0.0
H4373 H 0.73081 0.55058 0.20864 0.0
C4374 C 0.71186 0.40329 0.80237 0.0
C4375 C 0.69973 0.40007 0.80208 0.0
C4376 C 0.71576 0.41353 0.79652 0.0
C4377 C 0.70717 0.43445 0.77253 0.0
H4378 H 0.72997 0.45565 0.78831 0.0
C4379 C 0.71802 0.48143 0.75458 0.0
C4380 C 0.72981 0.48567 0.75589 0.0
C4381 C 0.7146 0.47064 0.75972 0.0
C4382 C 0.72373 0.44974 0.78368 0.0
H4383 H 0.68217 0.40531 0.79563 0.0
H4384 H 0.68899 0.42306 0.78535 0.0
H4385 H 0.72364 0.43754 0.7983 0.0
H4386 H 0.74727 0.48156 0.76354 0.0
H4387 H 0.74141 0.46271 0.77209 0.0
H4388 H 0.70728 0.44661 0.75789 0.0
C4389 C 0.69551 0.41757 0.78996 0.0
C4390 C 0.72009 0.43937 0.78944 0.0
C4391 C 0.69161 0.40738 0.79585 0.0
C4392 C 0.73814 0.47864 0.7622 0.0
C4393 C 0.73474 0.46785 0.76729 0.0
C4394 C 0.71085 0.4448 0.76675 0.0
C4395 C 0.70763 0.42076 0.79021 0.0
C4396 C 0.71172 0.43163 0.78396 0.0
C4397 C 0.72289 0.46378 0.76627 0.0
C4398 C 0.71915 0.45261 0.77227 0.0
H4399 H 0.71839 0.39779 0.80694 0.0
H4400 H 0.72518 0.41568 0.79677 0.0
H4401 H 0.70083 0.42858 0.768 0.0
H4402 H 0.71138 0.48649 0.74968 0.0
H4403 H 0.70538 0.46784 0.75882 0.0
C4404 C 0.62997 0.70128 0.81083 0.0
C4405 C 0.63824 0.7074 0.81827 0.0
C4406 C 0.61999 0.70709 0.80595 0.0
C4407 C 0.60796 0.7373 0.7998 0.0
H4408 H 0.57752 0.72079 0.79829 0.0
C4409 C 0.56346 0.76166 0.79146 0.0
C4410 C 0.555 0.75632 0.78366 0.0
C4411 C 0.57375 0.75559 0.79508 0.0
C4412 C 0.58598 0.72549 0.79853 0.0
H4413 H 0.64257 0.72458 0.8261 0.0
H4414 H 0.62509 0.73454 0.81796 0.0
H4415 H 0.5952 0.71038 0.80561 0.0
H4416 H 0.55072 0.74031 0.77364 0.0
H4417 H 0.56869 0.72974 0.77992 0.0
H4418 H 0.59867 0.75247 0.79293 0.0
C4419 C 0.62635 0.72529 0.81574 0.0
C4420 C 0.59614 0.71951 0.8027 0.0
C4421 C 0.63632 0.7195 0.82057 0.0
C4422 C 0.5571 0.74474 0.77956 0.0
C4423 C 0.56734 0.73863 0.78326 0.0
C4424 C 0.5978 0.74329 0.7957 0.0
C4425 C 0.61802 0.71916 0.80839 0.0
C4426 C 0.60727 0.72536 0.80347 0.0
C4427 C 0.5758 0.74399 0.79106 0.0
C4428 C 0.58667 0.73748 0.79509 0.0
H4429 H 0.63109 0.69193 0.80893 0.0
H4430 H 0.61386 0.70211 0.80022 0.0
H4431 H 0.6164 0.74204 0.80002 0.0
H4432 H 0.56218 0.77059 0.79471 0.0
H4433 H 0.58002 0.75994 0.80119 0.0
C4434 C 0.3256 0.62317 0.79157 0.0
C4435 C 0.32865 0.62387 0.80377 0.0
C4436 C 0.32088 0.61266 0.78666 0.0
C4437 C 0.30589 0.5845 0.79503 0.0
H4438 H 0.31496 0.57419 0.7637 0.0
C4439 C 0.2916 0.5388 0.77693 0.0
C4440 C 0.28667 0.53848 0.76529 0.0
C4441 C 0.29765 0.54889 0.78117 0.0
C4442 C 0.31229 0.577 0.77242 0.0
H4443 H 0.3293 0.61401 0.82033 0.0
H4444 H 0.32118 0.59565 0.81178 0.0
H4445 H 0.32349 0.5925 0.77212 0.0
H4446 H 0.28483 0.54834 0.74878 0.0
H4447 H 0.29545 0.56602 0.75621 0.0
H4448 H 0.29472 0.56902 0.79537 0.0
C4449 C 0.32221 0.60329 0.80602 0.0
C4450 C 0.31715 0.58751 0.77725 0.0
C4451 C 0.32687 0.61382 0.81094 0.0
C4452 C 0.28852 0.54828 0.75778 0.0
C4453 C 0.29462 0.55841 0.76203 0.0
C4454 C 0.30109 0.574 0.79024 0.0
C4455 C 0.31913 0.60257 0.79382 0.0
C4456 C 0.31401 0.59139 0.78863 0.0
C4457 C 0.29896 0.55894 0.77389 0.0
C4458 C 0.30424 0.5701 0.7789 0.0
H4459 H 0.32671 0.63081 0.78583 0.0
H4460 H 0.31842 0.61251 0.77728 0.0
H4461 H 0.30307 0.58732 0.8037 0.0
H4462 H 0.29045 0.53137 0.78294 0.0
H4463 H 0.30111 0.54892 0.79026 0.0
C4464 C 0.39997 0.30538 0.82552 0.0
C4465 C 0.40174 0.31434 0.83406 0.0
C4466 C 0.40963 0.29911 0.82127 0.0
C4467 C 0.443 0.29962 0.82067 0.0
H4468 H 0.4381 0.26681 0.81102 0.0
C4469 C 0.48079 0.26625 0.81058 0.0
C4470 C 0.48 0.26168 0.79897 0.0
C4471 C 0.47136 0.27269 0.81514 0.0
C4472 C 0.43956 0.27597 0.81369 0.0
H4473 H 0.41486 0.32375 0.84498 0.0
H4474 H 0.43173 0.31243 0.83809 0.0
H4475 H 0.42153 0.27798 0.81867 0.0
H4476 H 0.46871 0.25993 0.78313 0.0
H4477 H 0.45201 0.27084 0.79128 0.0
H4478 H 0.46123 0.29727 0.81608 0.0
C4479 C 0.42299 0.31047 0.83427 0.0
C4480 C 0.43005 0.28245 0.81797 0.0
C4481 C 0.41333 0.31693 0.83831 0.0
C4482 C 0.46953 0.26344 0.79208 0.0
C4483 C 0.46 0.26961 0.79674 0.0
C4484 C 0.45257 0.29303 0.81664 0.0
C4485 C 0.42129 0.30144 0.82568 0.0
C4486 C 0.43157 0.29443 0.82141 0.0
C4487 C 0.46089 0.27438 0.80826 0.0
C4488 C 0.4509 0.2812 0.81301 0.0
H4489 H 0.3911 0.30331 0.82205 0.0
H4490 H 0.40792 0.29249 0.81445 0.0
H4491 H 0.44456 0.30884 0.82298 0.0
H4492 H 0.48881 0.26506 0.816 0.0
H4493 H 0.47221 0.27628 0.82407 0.0
C4494 C 0.32433 0.39458 0.2148 0.0
C4495 C 0.32457 0.39305 0.2024 0.0
C4496 C 0.31856 0.40426 0.21969 0.0
C4497 C 0.29605 0.4274 0.21372 0.0
H4498 H 0.31261 0.44309 0.24013 0.0
C4499 C 0.28032 0.47109 0.23719 0.0
C4500 C 0.28208 0.4712 0.24961 0.0
C4501 C 0.28454 0.46157 0.23044 0.0
C4502 C 0.3078 0.43876 0.23282 0.0
H4503 H 0.31871 0.40051 0.18545 0.0
H4504 H 0.30856 0.41745 0.19405 0.0
H4505 H 0.32194 0.42657 0.23028 0.0
H4506 H 0.28867 0.46105 0.26478 0.0
H4507 H 0.29571 0.44455 0.25319 0.0
H4508 H 0.28185 0.43969 0.21642 0.0
C4509 C 0.3128 0.41106 0.19996 0.0
C4510 C 0.31316 0.42927 0.22718 0.0
C4511 C 0.31862 0.40135 0.19504 0.0
C4512 C 0.28738 0.46134 0.2552 0.0
C4513 C 0.29148 0.45189 0.24854 0.0
C4514 C 0.29065 0.43696 0.21942 0.0
C4515 C 0.31284 0.41271 0.21235 0.0
C4516 C 0.30728 0.42331 0.21772 0.0
C4517 C 0.29051 0.45205 0.23607 0.0
C4518 C 0.29638 0.44257 0.22921 0.0
H4519 H 0.32855 0.38823 0.22076 0.0
H4520 H 0.31854 0.40512 0.22928 0.0
H4521 H 0.29129 0.42299 0.20644 0.0
H4522 H 0.27627 0.47859 0.23266 0.0
H4523 H 0.28362 0.46191 0.22084 0.0
C4524 C 0.6168 0.31835 0.19878 0.0
C4525 C 0.62531 0.31342 0.19135 0.0
C4526 C 0.60729 0.31143 0.20276 0.0
C4527 C 0.58966 0.28455 0.1953 0.0
H4528 H 0.5802 0.28605 0.22812 0.0
C4529 C 0.55486 0.25204 0.21431 0.0
C4530 C 0.54689 0.25655 0.22252 0.0
C4531 C 0.56444 0.25898 0.21053 0.0
C4532 C 0.58262 0.28563 0.21888 0.0
H4533 H 0.63067 0.29719 0.18267 0.0
H4534 H 0.61403 0.28523 0.18948 0.0
H4535 H 0.59682 0.29828 0.22159 0.0
H4536 H 0.54253 0.27202 0.23293 0.0
H4537 H 0.55908 0.28416 0.22625 0.0
H4538 H 0.5754 0.27203 0.19252 0.0
C4539 C 0.61462 0.29449 0.19207 0.0
C4540 C 0.59216 0.29263 0.21515 0.0
C4541 C 0.62415 0.30137 0.18815 0.0
C4542 C 0.54864 0.2682 0.22677 0.0
C4543 C 0.55815 0.27516 0.22294 0.0
C4544 C 0.58007 0.27761 0.199 0.0
C4545 C 0.60605 0.29945 0.19937 0.0
C4546 C 0.59581 0.29214 0.20333 0.0
C4547 C 0.56622 0.27063 0.21482 0.0
C4548 C 0.57643 0.27804 0.21085 0.0
H4549 H 0.61733 0.32763 0.2013 0.0
H4550 H 0.60077 0.31554 0.20829 0.0
H4551 H 0.59215 0.2841 0.18608 0.0
H4552 H 0.55383 0.24306 0.21098 0.0
H4553 H 0.57057 0.25512 0.2044 0.0
C4554 C 0.39695 0.70975 0.18011 0.0
C4555 C 0.39667 0.69744 0.17794 0.0
C4556 C 0.40738 0.71533 0.18446 0.0
C4557 C 0.44003 0.711 0.18838 0.0
H4558 H 0.43729 0.73194 0.21549 0.0
C4559 C 0.47711 0.71722 0.22376 0.0
C4560 C 0.47904 0.72837 0.22911 0.0
C4561 C 0.46784 0.71547 0.21543 0.0
C4562 C 0.43822 0.72631 0.20777 0.0
H4563 H 0.40727 0.68146 0.17817 0.0
H4564 H 0.42534 0.6911 0.1859 0.0
H4565 H 0.41935 0.72504 0.20474 0.0
H4566 H 0.473 0.74658 0.22961 0.0
H4567 H 0.45658 0.74348 0.21503 0.0
H4568 H 0.45887 0.7119 0.1917 0.0
C4569 C 0.41755 0.69649 0.18418 0.0
C4570 C 0.42793 0.72235 0.20161 0.0
C4571 C 0.40714 0.69092 0.17989 0.0
C4572 C 0.47175 0.73789 0.2256 0.0
C4573 C 0.46232 0.7361 0.21732 0.0
C4574 C 0.4503 0.71494 0.19454 0.0
C4575 C 0.41779 0.70874 0.18664 0.0
C4576 C 0.4287 0.71435 0.19206 0.0
C4577 C 0.46016 0.72481 0.21229 0.0
C4578 C 0.44949 0.72235 0.20453 0.0
H4579 H 0.38901 0.71501 0.17875 0.0
H4580 H 0.40729 0.72479 0.18619 0.0
H4581 H 0.44096 0.70506 0.1809 0.0
H4582 H 0.4826 0.70971 0.22626 0.0
H4583 H 0.46635 0.70663 0.21185 0.0
loop_
_geom_bond_atom_site_label_1
_geom_bond_atom_site_label_2
_geom_bond_distance
_geom_bond_site_symmetry_2
_ccdc_geom_bond_type
C0 C1 1.384 . S
C0 H13 0.947 . S
C0 C35 1.382 . S
C1 C0 1.384 . S
C1 C2 1.378 . S
C2 C1 1.378 . S
C2 C3 1.378 . S
C2 H14 0.952 . S
C3 C2 1.378 . S
C3 H15 0.950 . S
C3 C34 1.383 . S
H4 C23 0.947 . S
H5 C24 0.946 . S
H6 C26 0.953 . S
H7 C27 0.945 . S
H8 C29 0.952 . S
H9 C30 0.949 . S
H10 C32 0.950 . S
H11 C33 0.948 . S
H12 C35 0.951 . S
H13 C0 0.947 . S
H14 C2 0.952 . S
H15 C3 0.950 . S
N16 C19 1.382 . S
N16 C21 1.363 . S
N17 C19 1.371 . S
N17 C20 1.372 . S
N18 C20 1.361 . S
N18 C21 1.377 . S
C19 N16 1.382 . S
C19 N17 1.371 . S
C19 C22 1.480 . S
C20 N17 1.372 . S
C20 N18 1.361 . S
C20 C28 1.457 . S
C21 N16 1.363 . S
C21 N18 1.377 . S
C21 C34 1.479 . S
C22 C19 1.480 . S
C22 C23 1.383 . S
C22 C27 1.385 . S
C23 H4 0.947 . S
C23 C22 1.383 . S
C23 C24 1.388 . S
C24 H5 0.946 . S
C24 C23 1.388 . S
C24 C25 1.384 . S
C25 C24 1.384 . S
C25 C26 1.377 . S
C26 H6 0.953 . S
C26 C25 1.377 . S
C26 C27 1.369 . S
C27 H7 0.945 . S
C27 C22 1.385 . S
C27 C26 1.369 . S
C28 C20 1.457 . S
C28 C29 1.372 . S
C28 C33 1.364 . S
C29 H8 0.952 . S
C29 C28 1.372 . S
C29 C30 1.389 . S
C30 H9 0.949 . S
C30 C29 1.389 . S
C30 C31 1.387 . S
C31 C30 1.387 . S
C31 C32 1.372 . S
C32 H10 0.950 . S
C32 C31 1.372 . S
C32 C33 1.379 . S
C33 H11 0.948 . S
C33 C28 1.364 . S
C33 C32 1.379 . S
C34 C3 1.383 . S
C34 C21 1.479 . S
C34 C35 1.398 . S
C35 C0 1.382 . S
C35 H12 0.951 . S
C35 C34 1.398 . S
C36 C37 1.384 . S
C36 H49 0.947 . S
C36 C71 1.382 . S
C37 C36 1.384 . S
C37 C38 1.378 . S
C38 C37 1.378 . S
C38 C39 1.378 . S
C38 H50 0.952 . S
C39 C38 1.378 . S
C39 H51 0.950 . S
C39 C70 1.383 . S
H40 C59 0.947 . S
H41 C60 0.946 . S
H42 C62 0.953 . S
H43 C63 0.945 . S
H44 C65 0.952 . S
H45 C66 0.949 . S
H46 C68 0.950 . S
H47 C69 0.948 . S
H48 C71 0.951 . S
H49 C36 0.947 . S
H50 C38 0.952 . S
H51 C39 0.950 . S
N52 C55 1.382 . S
N52 C57 1.363 . S
N53 C55 1.371 . S
N53 C56 1.372 . S
N54 C56 1.361 . S
N54 C57 1.377 . S
C55 N52 1.382 . S
C55 N53 1.371 . S
C55 C58 1.480 . S
C56 N53 1.372 . S
C56 N54 1.361 . S
C56 C64 1.457 . S
C57 N52 1.363 . S
C57 N54 1.377 . S
C57 C70 1.479 . S
C58 C55 1.480 . S
C58 C59 1.383 . S
C58 C63 1.385 . S
C59 H40 0.947 . S
C59 C58 1.383 . S
C59 C60 1.388 . S
C60 H41 0.946 . S
C60 C59 1.388 . S
C60 C61 1.384 . S
C61 C60 1.384 . S
C61 C62 1.377 . S
C62 H42 0.953 . S
C62 C61 1.377 . S
C62 C63 1.369 . S
C63 H43 0.945 . S
C63 C58 1.385 . S
C63 C62 1.369 . S
C64 C56 1.457 . S
C64 C65 1.372 . S
C64 C69 1.364 . S
C65 H44 0.952 . S
C65 C64 1.372 . S
C65 C66 1.389 . S
C66 H45 0.949 . S
C66 C65 1.389 . S
C66 C67 1.387 . S
C67 C66 1.387 . S
C67 C68 1.372 . S
C68 H46 0.950 . S
C68 C67 1.372 . S
C68 C69 1.379 . S
C69 H47 0.948 . S
C69 C64 1.364 . S
C69 C68 1.379 . S
C70 C39 1.383 . S
C70 C57 1.479 . S
C70 C71 1.398 . S
C71 C36 1.382 . S
C71 H48 0.951 . S
C71 C70 1.398 . S
C72 C73 1.384 . S
C72 H85 0.947 . S
C72 C107 1.382 . S
C73 C72 1.384 . S
C73 C74 1.378 . S
C74 C73 1.378 . S
C74 C75 1.378 . S
C74 H86 0.952 . S
C75 C74 1.378 . S
C75 H87 0.950 . S
C75 C106 1.383 . S
H76 C95 0.947 . S
H77 C96 0.946 . S
H78 C98 0.953 . S
H79 C99 0.945 . S
H80 C101 0.952 . S
H81 C102 0.949 . S
H82 C104 0.950 . S
H83 C105 0.948 . S
H84 C107 0.951 . S
H85 C72 0.947 . S
H86 C74 0.952 . S
H87 C75 0.950 . S
N88 C91 1.382 . S
N88 C93 1.363 . S
N89 C91 1.371 . S
N89 C92 1.372 . S
N90 C92 1.361 . S
N90 C93 1.377 . S
C91 N88 1.382 . S
C91 N89 1.371 . S
C91 C94 1.480 . S
C92 N89 1.372 . S
C92 N90 1.361 . S
C92 C100 1.457 . S
C93 N88 1.363 . S
C93 N90 1.377 . S
C93 C106 1.479 . S
C94 C91 1.480 . S
C94 C95 1.383 . S
C94 C99 1.385 . S
C95 H76 0.947 . S
C95 C94 1.383 . S
C95 C96 1.388 . S
C96 H77 0.946 . S
C96 C95 1.388 . S
C96 C97 1.384 . S
C97 C96 1.384 . S
C97 C98 1.377 . S
C98 H78 0.953 . S
C98 C97 1.377 . S
C98 C99 1.369 . S
C99 H79 0.945 . S
C99 C94 1.385 . S
C99 C98 1.369 . S
C100 C92 1.457 . S
C100 C101 1.372 . S
C100 C105 1.364 . S
C101 H80 0.952 . S
C101 C100 1.372 . S
C101 C102 1.389 . S
C102 H81 0.949 . S
C102 C101 1.389 . S
C102 C103 1.387 . S
C103 C102 1.387 . S
C103 C104 1.372 . S
C104 H82 0.950 . S
C104 C103 1.372 . S
C104 C105 1.379 . S
C105 H83 0.948 . S
C105 C100 1.364 . S
C105 C104 1.379 . S
C106 C75 1.383 . S
C106 C93 1.479 . S
C106 C107 1.398 . S
C107 C72 1.382 . S
C107 H84 0.951 . S
C107 C106 1.398 . S
C108 C109 1.384 . S
C108 H121 0.947 . S
C108 C143 1.382 . S
C109 C108 1.384 . S
C109 C110 1.378 . S
C110 C109 1.378 . S
C110 C111 1.378 . S
C110 H122 0.952 . S
C111 C110 1.378 . S
C111 H123 0.950 . S
C111 C142 1.383 . S
H112 C131 0.947 . S
H113 C132 0.946 . S
H114 C134 0.953 . S
H115 C135 0.945 . S
H116 C137 0.952 . S
H117 C138 0.949 . S
H118 C140 0.950 . S
H119 C141 0.948 . S
H120 C143 0.951 . S
H121 C108 0.947 . S
H122 C110 0.952 . S
H123 C111 0.950 . S
N124 C127 1.382 . S
N124 C129 1.363 . S
N125 C127 1.371 . S
N125 C128 1.372 . S
N126 C128 1.361 . S
N126 C129 1.377 . S
C127 N124 1.382 . S
C127 N125 1.371 . S
C127 C130 1.480 . S
C128 N125 1.372 . S
C128 N126 1.361 . S
C128 C136 1.457 . S
C129 N124 1.363 . S
C129 N126 1.377 . S
C129 C142 1.479 . S
C130 C127 1.480 . S
C130 C131 1.383 . S
C130 C135 1.385 . S
C131 H112 0.947 . S
C131 C130 1.383 . S
C131 C132 1.388 . S
C132 H113 0.946 . S
C132 C131 1.388 . S
C132 C133 1.384 . S
C133 C132 1.384 . S
C133 C134 1.377 . S
C134 H114 0.953 . S
C134 C133 1.377 . S
C134 C135 1.369 . S
C135 H115 0.945 . S
C135 C130 1.385 . S
C135 C134 1.369 . S
C136 C128 1.457 . S
C136 C137 1.372 . S
C136 C141 1.364 . S
C137 H116 0.952 . S
C137 C136 1.372 . S
C137 C138 1.389 . S
C138 H117 0.949 . S
C138 C137 1.389 . S
C138 C139 1.387 . S
C139 C138 1.387 . S
C139 C140 1.372 . S
C140 H118 0.950 . S
C140 C139 1.372 . S
C140 C141 1.379 . S
C141 H119 0.948 . S
C141 C136 1.364 . S
C141 C140 1.379 . S
C142 C111 1.383 . S
C142 C129 1.479 . S
C142 C143 1.398 . S
C143 C108 1.382 . S
C143 H120 0.951 . S
C143 C142 1.398 . S
C144 C145 1.384 . S
C144 H157 0.947 . S
C144 C179 1.382 . S
C145 C144 1.384 . S
C145 C146 1.378 . S
C146 C145 1.378 . S
C146 C147 1.378 . S
C146 H158 0.952 . S
C147 C146 1.378 . S
C147 H159 0.950 . S
C147 C178 1.383 . S
H148 C167 0.947 . S
H149 C168 0.946 . S
H150 C170 0.953 . S
H151 C171 0.945 . S
H152 C173 0.952 . S
H153 C174 0.949 . S
H154 C176 0.950 . S
H155 C177 0.948 . S
H156 C179 0.951 . S
H157 C144 0.947 . S
H158 C146 0.952 . S
H159 C147 0.950 . S
N160 C163 1.382 . S
N160 C165 1.363 . S
N161 C163 1.371 . S
N161 C164 1.372 . S
N162 C164 1.361 . S
N162 C165 1.377 . S
C163 N160 1.382 . S
C163 N161 1.371 . S
C163 C166 1.480 . S
C164 N161 1.372 . S
C164 N162 1.361 . S
C164 C172 1.457 . S
C165 N160 1.363 . S
C165 N162 1.377 . S
C165 C178 1.479 . S
C166 C163 1.480 . S
C166 C167 1.383 . S
C166 C171 1.385 . S
C167 H148 0.947 . S
C167 C166 1.383 . S
C167 C168 1.388 . S
C168 H149 0.946 . S
C168 C167 1.388 . S
C168 C169 1.384 . S
C169 C168 1.384 . S
C169 C170 1.377 . S
C170 H150 0.953 . S
C170 C169 1.377 . S
C170 C171 1.369 . S
C171 H151 0.945 . S
C171 C166 1.385 . S
C171 C170 1.369 . S
C172 C164 1.457 . S
C172 C173 1.372 . S
C172 C177 1.364 . S
C173 H152 0.952 . S
C173 C172 1.372 . S
C173 C174 1.389 . S
C174 H153 0.949 . S
C174 C173 1.389 . S
C174 C175 1.387 . S
C175 C174 1.387 . S
C175 C176 1.372 . S
C176 H154 0.950 . S
C176 C175 1.372 . S
C176 C177 1.379 . S
C177 H155 0.948 . S
C177 C172 1.364 . S
C177 C176 1.379 . S
C178 C147 1.383 . S
C178 C165 1.479 . S
C178 C179 1.398 . S
C179 C144 1.382 . S
C179 H156 0.951 . S
C179 C178 1.398 . S
C180 C181 1.384 . S
C180 H193 0.947 . S
C180 C215 1.382 . S
C181 C180 1.384 . S
C181 C182 1.378 . S
C182 C181 1.378 . S
C182 C183 1.378 . S
C182 H194 0.952 . S
C183 C182 1.378 . S
C183 H195 0.950 . S
C183 C214 1.383 . S
H184 C203 0.947 . S
H185 C204 0.946 . S
H186 C206 0.953 . S
H187 C207 0.945 . S
H188 C209 0.952 . S
H189 C210 0.949 . S
H190 C212 0.950 . S
H191 C213 0.948 . S
H192 C215 0.951 . S
H193 C180 0.947 . S
H194 C182 0.952 . S
H195 C183 0.950 . S
N196 C199 1.382 . S
N196 C201 1.363 . S
N197 C199 1.371 . S
N197 C200 1.372 . S
N198 C200 1.361 . S
N198 C201 1.377 . S
C199 N196 1.382 . S
C199 N197 1.371 . S
C199 C202 1.480 . S
C200 N197 1.372 . S
C200 N198 1.361 . S
C200 C208 1.457 . S
C201 N196 1.363 . S
C201 N198 1.377 . S
C201 C214 1.479 . S
C202 C199 1.480 . S
C202 C203 1.383 . S
C202 C207 1.385 . S
C203 H184 0.947 . S
C203 C202 1.383 . S
C203 C204 1.388 . S
C204 H185 0.946 . S
C204 C203 1.388 . S
C204 C205 1.384 . S
C205 C204 1.384 . S
C205 C206 1.377 . S
C206 H186 0.953 . S
C206 C205 1.377 . S
C206 C207 1.369 . S
C207 H187 0.945 . S
C207 C202 1.385 . S
C207 C206 1.369 . S
C208 C200 1.457 . S
C208 C209 1.372 . S
C208 C213 1.364 . S
C209 H188 0.952 . S
C209 C208 1.372 . S
C209 C210 1.389 . S
C210 H189 0.949 . S
C210 C209 1.389 . S
C210 C211 1.387 . S
C211 C210 1.387 . S
C211 C212 1.372 . S
C212 H190 0.950 . S
C212 C211 1.372 . S
C212 C213 1.379 . S
C213 H191 0.948 . S
C213 C208 1.364 . S
C213 C212 1.379 . S
C214 C183 1.383 . S
C214 C201 1.479 . S
C214 C215 1.398 . S
C215 C180 1.382 . S
C215 H192 0.951 . S
C215 C214 1.398 . S
C216 C217 1.384 . S
C216 H229 0.947 . S
C216 C251 1.382 . S
C217 C216 1.384 . S
C217 C218 1.378 . S
C218 C217 1.378 . S
C218 C219 1.378 . S
C218 H230 0.952 . S
C219 C218 1.378 . S
C219 H231 0.950 . S
C219 C250 1.383 . S
H220 C239 0.947 . S
H221 C240 0.946 . S
H222 C242 0.953 . S
H223 C243 0.945 . S
H224 C245 0.952 . S
H225 C246 0.949 . S
H226 C248 0.950 . S
H227 C249 0.948 . S
H228 C251 0.951 . S
H229 C216 0.947 . S
H230 C218 0.952 . S
H231 C219 0.950 . S
N232 C235 1.382 . S
N232 C237 1.363 . S
N233 C235 1.371 . S
N233 C236 1.372 . S
N234 C236 1.361 . S
N234 C237 1.377 . S
C235 N232 1.382 . S
C235 N233 1.371 . S
C235 C238 1.480 . S
C236 N233 1.372 . S
C236 N234 1.361 . S
C236 C244 1.457 . S
C237 N232 1.363 . S
C237 N234 1.377 . S
C237 C250 1.479 . S
C238 C235 1.480 . S
C238 C239 1.383 . S
C238 C243 1.385 . S
C239 H220 0.947 . S
C239 C238 1.383 . S
C239 C240 1.388 . S
C240 H221 0.946 . S
C240 C239 1.388 . S
C240 C241 1.384 . S
C241 C240 1.384 . S
C241 C242 1.377 . S
C242 H222 0.953 . S
C242 C241 1.377 . S
C242 C243 1.369 . S
C243 H223 0.945 . S
C243 C238 1.385 . S
C243 C242 1.369 . S
C244 C236 1.457 . S
C244 C245 1.372 . S
C244 C249 1.364 . S
C245 H224 0.952 . S
C245 C244 1.372 . S
C245 C246 1.389 . S
C246 H225 0.949 . S
C246 C245 1.389 . S
C246 C247 1.387 . S
C247 C246 1.387 . S
C247 C248 1.372 . S
C248 H226 0.950 . S
C248 C247 1.372 . S
C248 C249 1.379 . S
C249 H227 0.948 . S
C249 C244 1.364 . S
C249 C248 1.379 . S
C250 C219 1.383 . S
C250 C237 1.479 . S
C250 C251 1.398 . S
C251 C216 1.382 . S
C251 H228 0.951 . S
C251 C250 1.398 . S
C252 C253 1.384 . S
C252 H265 0.947 . S
C252 C287 1.382 . S
C253 C252 1.384 . S
C253 C254 1.378 . S
C254 C253 1.378 . S
C254 C255 1.378 . S
C254 H266 0.952 . S
C255 C254 1.378 . S
C255 H267 0.950 . S
C255 C286 1.383 . S
H256 C275 0.947 . S
H257 C276 0.946 . S
H258 C278 0.953 . S
H259 C279 0.945 . S
H260 C281 0.952 . S
H261 C282 0.949 . S
H262 C284 0.950 . S
H263 C285 0.948 . S
H264 C287 0.951 . S
H265 C252 0.947 . S
H266 C254 0.952 . S
H267 C255 0.950 . S
N268 C271 1.382 . S
N268 C273 1.363 . S
N269 C271 1.371 . S
N269 C272 1.372 . S
N270 C272 1.361 . S
N270 C273 1.377 . S
C271 N268 1.382 . S
C271 N269 1.371 . S
C271 C274 1.480 . S
C272 N269 1.372 . S
C272 N270 1.361 . S
C272 C280 1.457 . S
C273 N268 1.363 . S
C273 N270 1.377 . S
C273 C286 1.479 . S
C274 C271 1.480 . S
C274 C275 1.383 . S
C274 C279 1.385 . S
C275 H256 0.947 . S
C275 C274 1.383 . S
C275 C276 1.388 . S
C276 H257 0.946 . S
C276 C275 1.388 . S
C276 C277 1.384 . S
C277 C276 1.384 . S
C277 C278 1.377 . S
C278 H258 0.953 . S
C278 C277 1.377 . S
C278 C279 1.369 . S
C279 H259 0.945 . S
C279 C274 1.385 . S
C279 C278 1.369 . S
C280 C272 1.457 . S
C280 C281 1.372 . S
C280 C285 1.364 . S
C281 H260 0.952 . S
C281 C280 1.372 . S
C281 C282 1.389 . S
C282 H261 0.949 . S
C282 C281 1.389 . S
C282 C283 1.387 . S
C283 C282 1.387 . S
C283 C284 1.372 . S
C284 H262 0.950 . S
C284 C283 1.372 . S
C284 C285 1.379 . S
C285 H263 0.948 . S
C285 C280 1.364 . S
C285 C284 1.379 . S
C286 C255 1.383 . S
C286 C273 1.479 . S
C286 C287 1.398 . S
C287 C252 1.382 . S
C287 H264 0.951 . S
C287 C286 1.398 . S
C288 C289 1.384 . S
C288 H301 0.947 . S
C288 C323 1.382 . S
C289 C288 1.384 . S
C289 C290 1.378 . S
C290 C289 1.378 . S
C290 C291 1.378 . S
C290 H302 0.952 . S
C291 C290 1.378 . S
C291 H303 0.950 . S
C291 C322 1.383 . S
H292 C311 0.947 . S
H293 C312 0.946 . S
H294 C314 0.953 . S
H295 C315 0.945 . S
H296 C317 0.952 . S
H297 C318 0.949 . S
H298 C320 0.950 . S
H299 C321 0.948 . S
H300 C323 0.951 . S
H301 C288 0.947 . S
H302 C290 0.952 . S
H303 C291 0.950 . S
N304 C307 1.382 . S
N304 C309 1.363 . S
N305 C307 1.371 . S
N305 C308 1.372 . S
N306 C308 1.361 . S
N306 C309 1.377 . S
C307 N304 1.382 . S
C307 N305 1.371 . S
C307 C310 1.480 . S
C308 N305 1.372 . S
C308 N306 1.361 . S
C308 C316 1.457 . S
C309 N304 1.363 . S
C309 N306 1.377 . S
C309 C322 1.479 . S
C310 C307 1.480 . S
C310 C311 1.383 . S
C310 C315 1.385 . S
C311 H292 0.947 . S
C311 C310 1.383 . S
C311 C312 1.388 . S
C312 H293 0.946 . S
C312 C311 1.388 . S
C312 C313 1.384 . S
C313 C312 1.384 . S
C313 C314 1.377 . S
C314 H294 0.953 . S
C314 C313 1.377 . S
C314 C315 1.369 . S
C315 H295 0.945 . S
C315 C310 1.385 . S
C315 C314 1.369 . S
C316 C308 1.457 . S
C316 C317 1.372 . S
C316 C321 1.364 . S
C317 H296 0.952 . S
C317 C316 1.372 . S
C317 C318 1.389 . S
C318 H297 0.949 . S
C318 C317 1.389 . S
C318 C319 1.387 . S
C319 C318 1.387 . S
C319 C320 1.372 . S
C320 H298 0.950 . S
C320 C319 1.372 . S
C320 C321 1.379 . S
C321 H299 0.948 . S
C321 C316 1.364 . S
C321 C320 1.379 . S
C322 C291 1.383 . S
C322 C309 1.479 . S
C322 C323 1.398 . S
C323 C288 1.382 . S
C323 H300 0.951 . S
C323 C322 1.398 . S
C324 C325 1.384 . S
C324 H337 0.947 . S
C324 C359 1.382 . S
C325 C324 1.384 . S
C325 C326 1.378 . S
C326 C325 1.378 . S
C326 C327 1.378 . S
C326 H338 0.952 . S
C327 C326 1.378 . S
C327 H339 0.950 . S
C327 C358 1.383 . S
H328 C347 0.947 . S
H329 C348 0.946 . S
H330 C350 0.953 . S
H331 C351 0.945 . S
H332 C353 0.952 . S
H333 C354 0.949 . S
H334 C356 0.950 . S
H335 C357 0.948 . S
H336 C359 0.951 . S
H337 C324 0.947 . S
H338 C326 0.952 . S
H339 C327 0.950 . S
N340 C343 1.382 . S
N340 C345 1.363 . S
N341 C343 1.371 . S
N341 C344 1.372 . S
N342 C344 1.361 . S
N342 C345 1.377 . S
C343 N340 1.382 . S
C343 N341 1.371 . S
C343 C346 1.480 . S
C344 N341 1.372 . S
C344 N342 1.361 . S
C344 C352 1.457 . S
C345 N340 1.363 . S
C345 N342 1.377 . S
C345 C358 1.479 . S
C346 C343 1.480 . S
C346 C347 1.383 . S
C346 C351 1.385 . S
C347 H328 0.947 . S
C347 C346 1.383 . S
C347 C348 1.388 . S
C348 H329 0.946 . S
C348 C347 1.388 . S
C348 C349 1.384 . S
C349 C348 1.384 . S
C349 C350 1.377 . S
C350 H330 0.953 . S
C350 C349 1.377 . S
C350 C351 1.369 . S
C351 H331 0.945 . S
C351 C346 1.385 . S
C351 C350 1.369 . S
C352 C344 1.457 . S
C352 C353 1.372 . S
C352 C357 1.364 . S
C353 H332 0.952 . S
C353 C352 1.372 . S
C353 C354 1.389 . S
C354 H333 0.949 . S
C354 C353 1.389 . S
C354 C355 1.387 . S
C355 C354 1.387 . S
C355 C356 1.372 . S
C356 H334 0.950 . S
C356 C355 1.372 . S
C356 C357 1.379 . S
C357 H335 0.948 . S
C357 C352 1.364 . S
C357 C356 1.379 . S
C358 C327 1.383 . S
C358 C345 1.479 . S
C358 C359 1.398 . S
C359 C324 1.382 . S
C359 H336 0.951 . S
C359 C358 1.398 . S
C360 C361 1.384 . S
C360 H373 0.947 . S
C360 C395 1.382 . S
C361 C360 1.384 . S
C361 C362 1.378 . S
C362 C361 1.378 . S
C362 C363 1.378 . S
C362 H374 0.952 . S
C363 C362 1.378 . S
C363 H375 0.950 . S
C363 C394 1.383 . S
H364 C383 0.947 . S
H365 C384 0.946 . S
H366 C386 0.953 . S
H367 C387 0.945 . S
H368 C389 0.952 . S
H369 C390 0.949 . S
H370 C392 0.950 . S
H371 C393 0.948 . S
H372 C395 0.951 . S
H373 C360 0.947 . S
H374 C362 0.952 . S
H375 C363 0.950 . S
N376 C379 1.382 . S
N376 C381 1.363 . S
N377 C379 1.371 . S
N377 C380 1.372 . S
N378 C380 1.361 . S
N378 C381 1.377 . S
C379 N376 1.382 . S
C379 N377 1.371 . S
C379 C382 1.480 . S
C380 N377 1.372 . S
C380 N378 1.361 . S
C380 C388 1.457 . S
C381 N376 1.363 . S
C381 N378 1.377 . S
C381 C394 1.479 . S
C382 C379 1.480 . S
C382 C383 1.383 . S
C382 C387 1.385 . S
C383 H364 0.947 . S
C383 C382 1.383 . S
C383 C384 1.388 . S
C384 H365 0.946 . S
C384 C383 1.388 . S
C384 C385 1.384 . S
C385 C384 1.384 . S
C385 C386 1.377 . S
C386 H366 0.953 . S
C386 C385 1.377 . S
C386 C387 1.369 . S
C387 H367 0.945 . S
C387 C382 1.385 . S
C387 C386 1.369 . S
C388 C380 1.457 . S
C388 C389 1.372 . S
C388 C393 1.364 . S
C389 H368 0.952 . S
C389 C388 1.372 . S
C389 C390 1.389 . S
C390 H369 0.949 . S
C390 C389 1.389 . S
C390 C391 1.387 . S
C391 C390 1.387 . S
C391 C392 1.372 . S
C392 H370 0.950 . S
C392 C391 1.372 . S
C392 C393 1.379 . S
C393 H371 0.948 . S
C393 C388 1.364 . S
C393 C392 1.379 . S
C394 C363 1.383 . S
C394 C381 1.479 . S
C394 C395 1.398 . S
C395 C360 1.382 . S
C395 H372 0.951 . S
C395 C394 1.398 . S
C396 C397 1.384 . S
C396 H409 0.947 . S
C396 C431 1.382 . S
C397 C396 1.384 . S
C397 C398 1.378 . S
C398 C397 1.378 . S
C398 C399 1.378 . S
C398 H410 0.952 . S
C399 C398 1.378 . S
C399 H411 0.950 . S
C399 C430 1.383 . S
H400 C419 0.947 . S
H401 C420 0.946 . S
H402 C422 0.953 . S
H403 C423 0.945 . S
H404 C425 0.952 . S
H405 C426 0.949 . S
H406 C428 0.950 . S
H407 C429 0.948 . S
H408 C431 0.951 . S
H409 C396 0.947 . S
H410 C398 0.952 . S
H411 C399 0.950 . S
N412 C415 1.382 . S
N412 C417 1.363 . S
N413 C415 1.371 . S
N413 C416 1.372 . S
N414 C416 1.361 . S
N414 C417 1.377 . S
C415 N412 1.382 . S
C415 N413 1.371 . S
C415 C418 1.480 . S
C416 N413 1.372 . S
C416 N414 1.361 . S
C416 C424 1.457 . S
C417 N412 1.363 . S
C417 N414 1.377 . S
C417 C430 1.479 . S
C418 C415 1.480 . S
C418 C419 1.383 . S
C418 C423 1.385 . S
C419 H400 0.947 . S
C419 C418 1.383 . S
C419 C420 1.388 . S
C420 H401 0.946 . S
C420 C419 1.388 . S
C420 C421 1.384 . S
C421 C420 1.384 . S
C421 C422 1.377 . S
C422 H402 0.953 . S
C422 C421 1.377 . S
C422 C423 1.369 . S
C423 H403 0.945 . S
C423 C418 1.385 . S
C423 C422 1.369 . S
C424 C416 1.457 . S
C424 C425 1.372 . S
C424 C429 1.364 . S
C425 H404 0.952 . S
C425 C424 1.372 . S
C425 C426 1.389 . S
C426 H405 0.949 . S
C426 C425 1.389 . S
C426 C427 1.387 . S
C427 C426 1.387 . S
C427 C428 1.372 . S
C428 H406 0.950 . S
C428 C427 1.372 . S
C428 C429 1.379 . S
C429 H407 0.948 . S
C429 C424 1.364 . S
C429 C428 1.379 . S
C430 C399 1.383 . S
C430 C417 1.479 . S
C430 C431 1.398 . S
C431 C396 1.382 . S
C431 H408 0.951 . S
C431 C430 1.398 . S
C432 C433 1.384 . S
C432 H445 0.947 . S
C432 C467 1.382 . S
C433 C432 1.384 . S
C433 C434 1.378 . S
C434 C433 1.378 . S
C434 C435 1.378 . S
C434 H446 0.952 . S
C435 C434 1.378 . S
C435 H447 0.950 . S
C435 C466 1.383 . S
H436 C455 0.947 . S
H437 C456 0.946 . S
H438 C458 0.953 . S
H439 C459 0.945 . S
H440 C461 0.952 . S
H441 C462 0.949 . S
H442 C464 0.950 . S
H443 C465 0.948 . S
H444 C467 0.951 . S
H445 C432 0.947 . S
H446 C434 0.952 . S
H447 C435 0.950 . S
N448 C451 1.382 . S
N448 C453 1.363 . S
N449 C451 1.371 . S
N449 C452 1.372 . S
N450 C452 1.361 . S
N450 C453 1.377 . S
C451 N448 1.382 . S
C451 N449 1.371 . S
C451 C454 1.480 . S
C452 N449 1.372 . S
C452 N450 1.361 . S
C452 C460 1.457 . S
C453 N448 1.363 . S
C453 N450 1.377 . S
C453 C466 1.479 . S
C454 C451 1.480 . S
C454 C455 1.383 . S
C454 C459 1.385 . S
C455 H436 0.947 . S
C455 C454 1.383 . S
C455 C456 1.388 . S
C456 H437 0.946 . S
C456 C455 1.388 . S
C456 C457 1.384 . S
C457 C456 1.384 . S
C457 C458 1.377 . S
C458 H438 0.953 . S
C458 C457 1.377 . S
C458 C459 1.369 . S
C459 H439 0.945 . S
C459 C454 1.385 . S
C459 C458 1.369 . S
C460 C452 1.457 . S
C460 C461 1.372 . S
C460 C465 1.364 . S
C461 H440 0.952 . S
C461 C460 1.372 . S
C461 C462 1.389 . S
C462 H441 0.949 . S
C462 C461 1.389 . S
C462 C463 1.387 . S
C463 C462 1.387 . S
C463 C464 1.372 . S
C464 H442 0.950 . S
C464 C463 1.372 . S
C464 C465 1.379 . S
C465 H443 0.948 . S
C465 C460 1.364 . S
C465 C464 1.379 . S
C466 C435 1.383 . S
C466 C453 1.479 . S
C466 C467 1.398 . S
C467 C432 1.382 . S
C467 H444 0.951 . S
C467 C466 1.398 . S
C468 C469 1.384 . S
C468 H481 0.947 . S
C468 C503 1.382 . S
C469 C468 1.384 . S
C469 C470 1.378 . S
C470 C469 1.378 . S
C470 C471 1.378 . S
C470 H482 0.952 . S
C471 C470 1.378 . S
C471 H483 0.950 . S
C471 C502 1.383 . S
H472 C491 0.947 . S
H473 C492 0.946 . S
H474 C494 0.953 . S
H475 C495 0.945 . S
H476 C497 0.952 . S
H477 C498 0.949 . S
H478 C500 0.950 . S
H479 C501 0.948 . S
H480 C503 0.951 . S
H481 C468 0.947 . S
H482 C470 0.952 . S
H483 C471 0.950 . S
N484 C487 1.382 . S
N484 C489 1.363 . S
N485 C487 1.371 . S
N485 C488 1.372 . S
N486 C488 1.361 . S
N486 C489 1.377 . S
C487 N484 1.382 . S
C487 N485 1.371 . S
C487 C490 1.480 . S
C488 N485 1.372 . S
C488 N486 1.361 . S
C488 C496 1.457 . S
C489 N484 1.363 . S
C489 N486 1.377 . S
C489 C502 1.479 . S
C490 C487 1.480 . S
C490 C491 1.383 . S
C490 C495 1.385 . S
C491 H472 0.947 . S
C491 C490 1.383 . S
C491 C492 1.388 . S
C492 H473 0.946 . S
C492 C491 1.388 . S
C492 C493 1.384 . S
C493 C492 1.384 . S
C493 C494 1.377 . S
C494 H474 0.953 . S
C494 C493 1.377 . S
C494 C495 1.369 . S
C495 H475 0.945 . S
C495 C490 1.385 . S
C495 C494 1.369 . S
C496 C488 1.457 . S
C496 C497 1.372 . S
C496 C501 1.364 . S
C497 H476 0.952 . S
C497 C496 1.372 . S
C497 C498 1.389 . S
C498 H477 0.949 . S
C498 C497 1.389 . S
C498 C499 1.387 . S
C499 C498 1.387 . S
C499 C500 1.372 . S
C500 H478 0.950 . S
C500 C499 1.372 . S
C500 C501 1.379 . S
C501 H479 0.948 . S
C501 C496 1.364 . S
C501 C500 1.379 . S
C502 C471 1.383 . S
C502 C489 1.479 . S
C502 C503 1.398 . S
C503 C468 1.382 . S
C503 H480 0.951 . S
C503 C502 1.398 . S
C504 C505 1.384 . S
C504 H517 0.947 . S
C504 C539 1.382 . S
C505 C504 1.384 . S
C505 C506 1.378 . S
C506 C505 1.378 . S
C506 C507 1.378 . S
C506 H518 0.952 . S
C507 C506 1.378 . S
C507 H519 0.950 . S
C507 C538 1.383 . S
H508 C527 0.947 . S
H509 C528 0.946 . S
H510 C530 0.953 . S
H511 C531 0.945 . S
H512 C533 0.952 . S
H513 C534 0.949 . S
H514 C536 0.950 . S
H515 C537 0.948 . S
H516 C539 0.951 . S
H517 C504 0.947 . S
H518 C506 0.952 . S
H519 C507 0.950 . S
N520 C523 1.382 . S
N520 C525 1.363 . S
N521 C523 1.371 . S
N521 C524 1.372 . S
N522 C524 1.361 . S
N522 C525 1.377 . S
C523 N520 1.382 . S
C523 N521 1.371 . S
C523 C526 1.480 . S
C524 N521 1.372 . S
C524 N522 1.361 . S
C524 C532 1.457 . S
C525 N520 1.363 . S
C525 N522 1.377 . S
C525 C538 1.479 . S
C526 C523 1.480 . S
C526 C527 1.383 . S
C526 C531 1.385 . S
C527 H508 0.947 . S
C527 C526 1.383 . S
C527 C528 1.388 . S
C528 H509 0.946 . S
C528 C527 1.388 . S
C528 C529 1.384 . S
C529 C528 1.384 . S
C529 C530 1.377 . S
C530 H510 0.953 . S
C530 C529 1.377 . S
C530 C531 1.369 . S
C531 H511 0.945 . S
C531 C526 1.385 . S
C531 C530 1.369 . S
C532 C524 1.457 . S
C532 C533 1.372 . S
C532 C537 1.364 . S
C533 H512 0.952 . S
C533 C532 1.372 . S
C533 C534 1.389 . S
C534 H513 0.949 . S
C534 C533 1.389 . S
C534 C535 1.387 . S
C535 C534 1.387 . S
C535 C536 1.372 . S
C536 H514 0.950 . S
C536 C535 1.372 . S
C536 C537 1.379 . S
C537 H515 0.948 . S
C537 C532 1.364 . S
C537 C536 1.379 . S
C538 C507 1.383 . S
C538 C525 1.479 . S
C538 C539 1.398 . S
C539 C504 1.382 . S
C539 H516 0.951 . S
C539 C538 1.398 . S
C540 C541 1.384 . S
C540 H553 0.947 . S
C540 C575 1.382 . S
C541 C540 1.384 . S
C541 C542 1.378 . S
C542 C541 1.378 . S
C542 C543 1.378 . S
C542 H554 0.952 . S
C543 C542 1.378 . S
C543 H555 0.950 . S
C543 C574 1.383 . S
H544 C563 0.947 . S
H545 C564 0.946 . S
H546 C566 0.953 . S
H547 C567 0.945 . S
H548 C569 0.952 . S
H549 C570 0.949 . S
H550 C572 0.950 . S
H551 C573 0.948 . S
H552 C575 0.951 . S
H553 C540 0.947 . S
H554 C542 0.952 . S
H555 C543 0.950 . S
N556 C559 1.382 . S
N556 C561 1.363 . S
N557 C559 1.371 . S
N557 C560 1.372 . S
N558 C560 1.361 . S
N558 C561 1.377 . S
C559 N556 1.382 . S
C559 N557 1.371 . S
C559 C562 1.480 . S
C560 N557 1.372 . S
C560 N558 1.361 . S
C560 C568 1.457 . S
C561 N556 1.363 . S
C561 N558 1.377 . S
C561 C574 1.479 . S
C562 C559 1.480 . S
C562 C563 1.383 . S
C562 C567 1.385 . S
C563 H544 0.947 . S
C563 C562 1.383 . S
C563 C564 1.388 . S
C564 H545 0.946 . S
C564 C563 1.388 . S
C564 C565 1.384 . S
C565 C564 1.384 . S
C565 C566 1.377 . S
C566 H546 0.953 . S
C566 C565 1.377 . S
C566 C567 1.369 . S
C567 H547 0.945 . S
C567 C562 1.385 . S
C567 C566 1.369 . S
C568 C560 1.457 . S
C568 C569 1.372 . S
C568 C573 1.364 . S
C569 H548 0.952 . S
C569 C568 1.372 . S
C569 C570 1.389 . S
C570 H549 0.949 . S
C570 C569 1.389 . S
C570 C571 1.387 . S
C571 C570 1.387 . S
C571 C572 1.372 . S
C572 H550 0.950 . S
C572 C571 1.372 . S
C572 C573 1.379 . S
C573 H551 0.948 . S
C573 C568 1.364 . S
C573 C572 1.379 . S
C574 C543 1.383 . S
C574 C561 1.479 . S
C574 C575 1.398 . S
C575 C540 1.382 . S
C575 H552 0.951 . S
C575 C574 1.398 . S
C576 C577 1.384 . S
C576 H589 0.947 . S
C576 C611 1.382 . S
C577 C576 1.384 . S
C577 C578 1.378 . S
C578 C577 1.378 . S
C578 C579 1.378 . S
C578 H590 0.952 . S
C579 C578 1.378 . S
C579 H591 0.950 . S
C579 C610 1.383 . S
H580 C599 0.947 . S
H581 C600 0.946 . S
H582 C602 0.953 . S
H583 C603 0.945 . S
H584 C605 0.952 . S
H585 C606 0.949 . S
H586 C608 0.950 . S
H587 C609 0.948 . S
H588 C611 0.951 . S
H589 C576 0.947 . S
H590 C578 0.952 . S
H591 C579 0.950 . S
N592 C595 1.382 . S
N592 C597 1.363 . S
N593 C595 1.371 . S
N593 C596 1.372 . S
N594 C596 1.361 . S
N594 C597 1.377 . S
C595 N592 1.382 . S
C595 N593 1.371 . S
C595 C598 1.480 . S
C596 N593 1.372 . S
C596 N594 1.361 . S
C596 C604 1.457 . S
C597 N592 1.363 . S
C597 N594 1.377 . S
C597 C610 1.479 . S
C598 C595 1.480 . S
C598 C599 1.383 . S
C598 C603 1.385 . S
C599 H580 0.947 . S
C599 C598 1.383 . S
C599 C600 1.388 . S
C600 H581 0.946 . S
C600 C599 1.388 . S
C600 C601 1.384 . S
C601 C600 1.384 . S
C601 C602 1.377 . S
C602 H582 0.953 . S
C602 C601 1.377 . S
C602 C603 1.369 . S
C603 H583 0.945 . S
C603 C598 1.385 . S
C603 C602 1.369 . S
C604 C596 1.457 . S
C604 C605 1.372 . S
C604 C609 1.364 . S
C605 H584 0.952 . S
C605 C604 1.372 . S
C605 C606 1.389 . S
C606 H585 0.949 . S
C606 C605 1.389 . S
C606 C607 1.387 . S
C607 C606 1.387 . S
C607 C608 1.372 . S
C608 H586 0.950 . S
C608 C607 1.372 . S
C608 C609 1.379 . S
C609 H587 0.948 . S
C609 C604 1.364 . S
C609 C608 1.379 . S
C610 C579 1.383 . S
C610 C597 1.479 . S
C610 C611 1.398 . S
C611 C576 1.382 . S
C611 H588 0.951 . S
C611 C610 1.398 . S
C612 C613 1.384 . S
C612 H625 0.947 . S
C612 C647 1.382 . S
C613 C612 1.384 . S
C613 C614 1.378 . S
C614 C613 1.378 . S
C614 C615 1.378 . S
C614 H626 0.952 . S
C615 C614 1.378 . S
C615 H627 0.950 . S
C615 C646 1.383 . S
H616 C635 0.947 . S
H617 C636 0.946 . S
H618 C638 0.953 . S
H619 C639 0.945 . S
H620 C641 0.952 . S
H621 C642 0.949 . S
H622 C644 0.950 . S
H623 C645 0.948 . S
H624 C647 0.951 . S
H625 C612 0.947 . S
H626 C614 0.952 . S
H627 C615 0.950 . S
N628 C631 1.382 . S
N628 C633 1.363 . S
N629 C631 1.371 . S
N629 C632 1.372 . S
N630 C632 1.361 . S
N630 C633 1.377 . S
C631 N628 1.382 . S
C631 N629 1.371 . S
C631 C634 1.480 . S
C632 N629 1.372 . S
C632 N630 1.361 . S
C632 C640 1.457 . S
C633 N628 1.363 . S
C633 N630 1.377 . S
C633 C646 1.479 . S
C634 C631 1.480 . S
C634 C635 1.383 . S
C634 C639 1.385 . S
C635 H616 0.947 . S
C635 C634 1.383 . S
C635 C636 1.388 . S
C636 H617 0.946 . S
C636 C635 1.388 . S
C636 C637 1.384 . S
C637 C636 1.384 . S
C637 C638 1.377 . S
C638 H618 0.953 . S
C638 C637 1.377 . S
C638 C639 1.369 . S
C639 H619 0.945 . S
C639 C634 1.385 . S
C639 C638 1.369 . S
C640 C632 1.457 . S
C640 C641 1.372 . S
C640 C645 1.364 . S
C641 H620 0.952 . S
C641 C640 1.372 . S
C641 C642 1.389 . S
C642 H621 0.949 . S
C642 C641 1.389 . S
C642 C643 1.387 . S
C643 C642 1.387 . S
C643 C644 1.372 . S
C644 H622 0.950 . S
C644 C643 1.372 . S
C644 C645 1.379 . S
C645 H623 0.948 . S
C645 C640 1.364 . S
C645 C644 1.379 . S
C646 C615 1.383 . S
C646 C633 1.479 . S
C646 C647 1.398 . S
C647 C612 1.382 . S
C647 H624 0.951 . S
C647 C646 1.398 . S
C648 C649 1.384 . S
C648 H661 0.947 . S
C648 C683 1.382 . S
C649 C648 1.384 . S
C649 C650 1.378 . S
C650 C649 1.378 . S
C650 C651 1.378 . S
C650 H662 0.952 . S
C651 C650 1.378 . S
C651 H663 0.950 . S
C651 C682 1.383 . S
H652 C671 0.947 . S
H653 C672 0.946 . S
H654 C674 0.953 . S
H655 C675 0.945 . S
H656 C677 0.952 . S
H657 C678 0.949 . S
H658 C680 0.950 . S
H659 C681 0.948 . S
H660 C683 0.951 . S
H661 C648 0.947 . S
H662 C650 0.952 . S
H663 C651 0.950 . S
N664 C667 1.382 . S
N664 C669 1.363 . S
N665 C667 1.371 . S
N665 C668 1.372 . S
N666 C668 1.361 . S
N666 C669 1.377 . S
C667 N664 1.382 . S
C667 N665 1.371 . S
C667 C670 1.480 . S
C668 N665 1.372 . S
C668 N666 1.361 . S
C668 C676 1.457 . S
C669 N664 1.363 . S
C669 N666 1.377 . S
C669 C682 1.479 . S
C670 C667 1.480 . S
C670 C671 1.383 . S
C670 C675 1.385 . S
C671 H652 0.947 . S
C671 C670 1.383 . S
C671 C672 1.388 . S
C672 H653 0.946 . S
C672 C671 1.388 . S
C672 C673 1.384 . S
C673 C672 1.384 . S
C673 C674 1.377 . S
C674 H654 0.953 . S
C674 C673 1.377 . S
C674 C675 1.369 . S
C675 H655 0.945 . S
C675 C670 1.385 . S
C675 C674 1.369 . S
C676 C668 1.457 . S
C676 C677 1.372 . S
C676 C681 1.364 . S
C677 H656 0.952 . S
C677 C676 1.372 . S
C677 C678 1.389 . S
C678 H657 0.949 . S
C678 C677 1.389 . S
C678 C679 1.387 . S
C679 C678 1.387 . S
C679 C680 1.372 . S
C680 H658 0.950 . S
C680 C679 1.372 . S
C680 C681 1.379 . S
C681 H659 0.948 . S
C681 C676 1.364 . S
C681 C680 1.379 . S
C682 C651 1.383 . S
C682 C669 1.479 . S
C682 C683 1.398 . S
C683 C648 1.382 . S
C683 H660 0.951 . S
C683 C682 1.398 . S
C684 C685 1.384 . S
C684 H697 0.947 . S
C684 C719 1.382 . S
C685 C684 1.384 . S
C685 C686 1.378 . S
C686 C685 1.378 . S
C686 C687 1.378 . S
C686 H698 0.952 . S
C687 C686 1.378 . S
C687 H699 0.950 . S
C687 C718 1.383 . S
H688 C707 0.947 . S
H689 C708 0.946 . S
H690 C710 0.953 . S
H691 C711 0.945 . S
H692 C713 0.952 . S
H693 C714 0.949 . S
H694 C716 0.950 . S
H695 C717 0.948 . S
H696 C719 0.951 . S
H697 C684 0.947 . S
H698 C686 0.952 . S
H699 C687 0.950 . S
N700 C703 1.382 . S
N700 C705 1.363 . S
N701 C703 1.371 . S
N701 C704 1.372 . S
N702 C704 1.361 . S
N702 C705 1.377 . S
C703 N700 1.382 . S
C703 N701 1.371 . S
C703 C706 1.480 . S
C704 N701 1.372 . S
C704 N702 1.361 . S
C704 C712 1.457 . S
C705 N700 1.363 . S
C705 N702 1.377 . S
C705 C718 1.479 . S
C706 C703 1.480 . S
C706 C707 1.383 . S
C706 C711 1.385 . S
C707 H688 0.947 . S
C707 C706 1.383 . S
C707 C708 1.388 . S
C708 H689 0.946 . S
C708 C707 1.388 . S
C708 C709 1.384 . S
C709 C708 1.384 . S
C709 C710 1.377 . S
C710 H690 0.953 . S
C710 C709 1.377 . S
C710 C711 1.369 . S
C711 H691 0.945 . S
C711 C706 1.385 . S
C711 C710 1.369 . S
C712 C704 1.457 . S
C712 C713 1.372 . S
C712 C717 1.364 . S
C713 H692 0.952 . S
C713 C712 1.372 . S
C713 C714 1.389 . S
C714 H693 0.949 . S
C714 C713 1.389 . S
C714 C715 1.387 . S
C715 C714 1.387 . S
C715 C716 1.372 . S
C716 H694 0.950 . S
C716 C715 1.372 . S
C716 C717 1.379 . S
C717 H695 0.948 . S
C717 C712 1.364 . S
C717 C716 1.379 . S
C718 C687 1.383 . S
C718 C705 1.479 . S
C718 C719 1.398 . S
C719 C684 1.382 . S
C719 H696 0.951 . S
C719 C718 1.398 . S
C720 C721 1.384 . S
C720 H733 0.947 . S
C720 C755 1.382 . S
C721 C720 1.384 . S
C721 C722 1.378 . S
C722 C721 1.378 . S
C722 C723 1.378 . S
C722 H734 0.952 . S
C723 C722 1.378 . S
C723 H735 0.950 . S
C723 C754 1.383 . S
H724 C743 0.947 . S
H725 C744 0.946 . S
H726 C746 0.953 . S
H727 C747 0.945 . S
H728 C749 0.952 . S
H729 C750 0.949 . S
H730 C752 0.950 . S
H731 C753 0.948 . S
H732 C755 0.951 . S
H733 C720 0.947 . S
H734 C722 0.952 . S
H735 C723 0.950 . S
N736 C739 1.382 . S
N736 C741 1.363 . S
N737 C739 1.371 . S
N737 C740 1.372 . S
N738 C740 1.361 . S
N738 C741 1.377 . S
C739 N736 1.382 . S
C739 N737 1.371 . S
C739 C742 1.480 . S
C740 N737 1.372 . S
C740 N738 1.361 . S
C740 C748 1.457 . S
C741 N736 1.363 . S
C741 N738 1.377 . S
C741 C754 1.479 . S
C742 C739 1.480 . S
C742 C743 1.383 . S
C742 C747 1.385 . S
C743 H724 0.947 . S
C743 C742 1.383 . S
C743 C744 1.388 . S
C744 H725 0.946 . S
C744 C743 1.388 . S
C744 C745 1.384 . S
C745 C744 1.384 . S
C745 C746 1.377 . S
C746 H726 0.953 . S
C746 C745 1.377 . S
C746 C747 1.369 . S
C747 H727 0.945 . S
C747 C742 1.385 . S
C747 C746 1.369 . S
C748 C740 1.457 . S
C748 C749 1.372 . S
C748 C753 1.364 . S
C749 H728 0.952 . S
C749 C748 1.372 . S
C749 C750 1.389 . S
C750 H729 0.949 . S
C750 C749 1.389 . S
C750 C751 1.387 . S
C751 C750 1.387 . S
C751 C752 1.372 . S
C752 H730 0.950 . S
C752 C751 1.372 . S
C752 C753 1.379 . S
C753 H731 0.948 . S
C753 C748 1.364 . S
C753 C752 1.379 . S
C754 C723 1.383 . S
C754 C741 1.479 . S
C754 C755 1.398 . S
C755 C720 1.382 . S
C755 H732 0.951 . S
C755 C754 1.398 . S
C756 C757 1.384 . S
C756 H769 0.947 . S
C756 C791 1.382 . S
C757 C756 1.384 . S
C757 C758 1.378 . S
C758 C757 1.378 . S
C758 C759 1.378 . S
C758 H770 0.952 . S
C759 C758 1.378 . S
C759 H771 0.950 . S
C759 C790 1.383 . S
H760 C779 0.947 . S
H761 C780 0.946 . S
H762 C782 0.953 . S
H763 C783 0.945 . S
H764 C785 0.952 . S
H765 C786 0.949 . S
H766 C788 0.950 . S
H767 C789 0.948 . S
H768 C791 0.951 . S
H769 C756 0.947 . S
H770 C758 0.952 . S
H771 C759 0.950 . S
N772 C775 1.382 . S
N772 C777 1.363 . S
N773 C775 1.371 . S
N773 C776 1.372 . S
N774 C776 1.361 . S
N774 C777 1.377 . S
C775 N772 1.382 . S
C775 N773 1.371 . S
C775 C778 1.480 . S
C776 N773 1.372 . S
C776 N774 1.361 . S
C776 C784 1.457 . S
C777 N772 1.363 . S
C777 N774 1.377 . S
C777 C790 1.479 . S
C778 C775 1.480 . S
C778 C779 1.383 . S
C778 C783 1.385 . S
C779 H760 0.947 . S
C779 C778 1.383 . S
C779 C780 1.388 . S
C780 H761 0.946 . S
C780 C779 1.388 . S
C780 C781 1.384 . S
C781 C780 1.384 . S
C781 C782 1.377 . S
C782 H762 0.953 . S
C782 C781 1.377 . S
C782 C783 1.369 . S
C783 H763 0.945 . S
C783 C778 1.385 . S
C783 C782 1.369 . S
C784 C776 1.457 . S
C784 C785 1.372 . S
C784 C789 1.364 . S
C785 H764 0.952 . S
C785 C784 1.372 . S
C785 C786 1.389 . S
C786 H765 0.949 . S
C786 C785 1.389 . S
C786 C787 1.387 . S
C787 C786 1.387 . S
C787 C788 1.372 . S
C788 H766 0.950 . S
C788 C787 1.372 . S
C788 C789 1.379 . S
C789 H767 0.948 . S
C789 C784 1.364 . S
C789 C788 1.379 . S
C790 C759 1.383 . S
C790 C777 1.479 . S
C790 C791 1.398 . S
C791 C756 1.382 . S
C791 H768 0.951 . S
C791 C790 1.398 . S
C792 C793 1.384 . S
C792 H805 0.947 . S
C792 C827 1.382 . S
C793 C792 1.384 . S
C793 C794 1.378 . S
C794 C793 1.378 . S
C794 C795 1.378 . S
C794 H806 0.952 . S
C795 C794 1.378 . S
C795 H807 0.950 . S
C795 C826 1.383 . S
H796 C815 0.947 . S
H797 C816 0.946 . S
H798 C818 0.953 . S
H799 C819 0.945 . S
H800 C821 0.952 . S
H801 C822 0.949 . S
H802 C824 0.950 . S
H803 C825 0.948 . S
H804 C827 0.951 . S
H805 C792 0.947 . S
H806 C794 0.952 . S
H807 C795 0.950 . S
N808 C811 1.382 . S
N808 C813 1.363 . S
N809 C811 1.371 . S
N809 C812 1.372 . S
N810 C812 1.361 . S
N810 C813 1.377 . S
C811 N808 1.382 . S
C811 N809 1.371 . S
C811 C814 1.480 . S
C812 N809 1.372 . S
C812 N810 1.361 . S
C812 C820 1.457 . S
C813 N808 1.363 . S
C813 N810 1.377 . S
C813 C826 1.479 . S
C814 C811 1.480 . S
C814 C815 1.383 . S
C814 C819 1.385 . S
C815 H796 0.947 . S
C815 C814 1.383 . S
C815 C816 1.388 . S
C816 H797 0.946 . S
C816 C815 1.388 . S
C816 C817 1.384 . S
C817 C816 1.384 . S
C817 C818 1.377 . S
C818 H798 0.953 . S
C818 C817 1.377 . S
C818 C819 1.369 . S
C819 H799 0.945 . S
C819 C814 1.385 . S
C819 C818 1.369 . S
C820 C812 1.457 . S
C820 C821 1.372 . S
C820 C825 1.364 . S
C821 H800 0.952 . S
C821 C820 1.372 . S
C821 C822 1.389 . S
C822 H801 0.949 . S
C822 C821 1.389 . S
C822 C823 1.387 . S
C823 C822 1.387 . S
C823 C824 1.372 . S
C824 H802 0.950 . S
C824 C823 1.372 . S
C824 C825 1.379 . S
C825 H803 0.948 . S
C825 C820 1.364 . S
C825 C824 1.379 . S
C826 C795 1.383 . S
C826 C813 1.479 . S
C826 C827 1.398 . S
C827 C792 1.382 . S
C827 H804 0.951 . S
C827 C826 1.398 . S
C828 C829 1.384 . S
C828 H841 0.947 . S
C828 C863 1.382 . S
C829 C828 1.384 . S
C829 C830 1.378 . S
C830 C829 1.378 . S
C830 C831 1.378 . S
C830 H842 0.952 . S
C831 C830 1.378 . S
C831 H843 0.950 . S
C831 C862 1.383 . S
H832 C851 0.947 . S
H833 C852 0.946 . S
H834 C854 0.953 . S
H835 C855 0.945 . S
H836 C857 0.952 . S
H837 C858 0.949 . S
H838 C860 0.950 . S
H839 C861 0.948 . S
H840 C863 0.951 . S
H841 C828 0.947 . S
H842 C830 0.952 . S
H843 C831 0.950 . S
N844 C847 1.382 . S
N844 C849 1.363 . S
N845 C847 1.371 . S
N845 C848 1.372 . S
N846 C848 1.361 . S
N846 C849 1.377 . S
C847 N844 1.382 . S
C847 N845 1.371 . S
C847 C850 1.480 . S
C848 N845 1.372 . S
C848 N846 1.361 . S
C848 C856 1.457 . S
C849 N844 1.363 . S
C849 N846 1.377 . S
C849 C862 1.479 . S
C850 C847 1.480 . S
C850 C851 1.383 . S
C850 C855 1.385 . S
C851 H832 0.947 . S
C851 C850 1.383 . S
C851 C852 1.388 . S
C852 H833 0.946 . S
C852 C851 1.388 . S
C852 C853 1.384 . S
C853 C852 1.384 . S
C853 C854 1.377 . S
C854 H834 0.953 . S
C854 C853 1.377 . S
C854 C855 1.369 . S
C855 H835 0.945 . S
C855 C850 1.385 . S
C855 C854 1.369 . S
C856 C848 1.457 . S
C856 C857 1.372 . S
C856 C861 1.364 . S
C857 H836 0.952 . S
C857 C856 1.372 . S
C857 C858 1.389 . S
C858 H837 0.949 . S
C858 C857 1.389 . S
C858 C859 1.387 . S
C859 C858 1.387 . S
C859 C860 1.372 . S
C860 H838 0.950 . S
C860 C859 1.372 . S
C860 C861 1.379 . S
C861 H839 0.948 . S
C861 C856 1.364 . S
C861 C860 1.379 . S
C862 C831 1.383 . S
C862 C849 1.479 . S
C862 C863 1.398 . S
C863 C828 1.382 . S
C863 H840 0.951 . S
C863 C862 1.398 . S
C864 C865 1.384 . S
C864 H877 0.947 . S
C864 C899 1.382 . S
C865 C864 1.384 . S
C865 C866 1.378 . S
C866 C865 1.378 . S
C866 C867 1.378 . S
C866 H878 0.952 . S
C867 C866 1.378 . S
C867 H879 0.950 . S
C867 C898 1.383 . S
H868 C887 0.947 . S
H869 C888 0.946 . S
H870 C890 0.953 . S
H871 C891 0.945 . S
H872 C893 0.952 . S
H873 C894 0.949 . S
H874 C896 0.950 . S
H875 C897 0.948 . S
H876 C899 0.951 . S
H877 C864 0.947 . S
H878 C866 0.952 . S
H879 C867 0.950 . S
N880 C883 1.382 . S
N880 C885 1.363 . S
N881 C883 1.371 . S
N881 C884 1.372 . S
N882 C884 1.361 . S
N882 C885 1.377 . S
C883 N880 1.382 . S
C883 N881 1.371 . S
C883 C886 1.480 . S
C884 N881 1.372 . S
C884 N882 1.361 . S
C884 C892 1.457 . S
C885 N880 1.363 . S
C885 N882 1.377 . S
C885 C898 1.479 . S
C886 C883 1.480 . S
C886 C887 1.383 . S
C886 C891 1.385 . S
C887 H868 0.947 . S
C887 C886 1.383 . S
C887 C888 1.388 . S
C888 H869 0.946 . S
C888 C887 1.388 . S
C888 C889 1.384 . S
C889 C888 1.384 . S
C889 C890 1.377 . S
C890 H870 0.953 . S
C890 C889 1.377 . S
C890 C891 1.369 . S
C891 H871 0.945 . S
C891 C886 1.385 . S
C891 C890 1.369 . S
C892 C884 1.457 . S
C892 C893 1.372 . S
C892 C897 1.364 . S
C893 H872 0.952 . S
C893 C892 1.372 . S
C893 C894 1.389 . S
C894 H873 0.949 . S
C894 C893 1.389 . S
C894 C895 1.387 . S
C895 C894 1.387 . S
C895 C896 1.372 . S
C896 H874 0.950 . S
C896 C895 1.372 . S
C896 C897 1.379 . S
C897 H875 0.948 . S
C897 C892 1.364 . S
C897 C896 1.379 . S
C898 C867 1.383 . S
C898 C885 1.479 . S
C898 C899 1.398 . S
C899 C864 1.382 . S
C899 H876 0.951 . S
C899 C898 1.398 . S
C900 C901 1.384 . S
C900 H913 0.947 . S
C900 C935 1.382 . S
C901 C900 1.384 . S
C901 C902 1.378 . S
C902 C901 1.378 . S
C902 C903 1.378 . S
C902 H914 0.952 . S
C903 C902 1.378 . S
C903 H915 0.950 . S
C903 C934 1.383 . S
H904 C923 0.947 . S
H905 C924 0.946 . S
H906 C926 0.953 . S
H907 C927 0.945 . S
H908 C929 0.952 . S
H909 C930 0.949 . S
H910 C932 0.950 . S
H911 C933 0.948 . S
H912 C935 0.951 . S
H913 C900 0.947 . S
H914 C902 0.952 . S
H915 C903 0.950 . S
N916 C919 1.382 . S
N916 C921 1.363 . S
N917 C919 1.371 . S
N917 C920 1.372 . S
N918 C920 1.361 . S
N918 C921 1.377 . S
C919 N916 1.382 . S
C919 N917 1.371 . S
C919 C922 1.480 . S
C920 N917 1.372 . S
C920 N918 1.361 . S
C920 C928 1.457 . S
C921 N916 1.363 . S
C921 N918 1.377 . S
C921 C934 1.479 . S
C922 C919 1.480 . S
C922 C923 1.383 . S
C922 C927 1.385 . S
C923 H904 0.947 . S
C923 C922 1.383 . S
C923 C924 1.388 . S
C924 H905 0.946 . S
C924 C923 1.388 . S
C924 C925 1.384 . S
C925 C924 1.384 . S
C925 C926 1.377 . S
C926 H906 0.953 . S
C926 C925 1.377 . S
C926 C927 1.369 . S
C927 H907 0.945 . S
C927 C922 1.385 . S
C927 C926 1.369 . S
C928 C920 1.457 . S
C928 C929 1.372 . S
C928 C933 1.364 . S
C929 H908 0.952 . S
C929 C928 1.372 . S
C929 C930 1.389 . S
C930 H909 0.949 . S
C930 C929 1.389 . S
C930 C931 1.387 . S
C931 C930 1.387 . S
C931 C932 1.372 . S
C932 H910 0.950 . S
C932 C931 1.372 . S
C932 C933 1.379 . S
C933 H911 0.948 . S
C933 C928 1.364 . S
C933 C932 1.379 . S
C934 C903 1.383 . S
C934 C921 1.479 . S
C934 C935 1.398 . S
C935 C900 1.382 . S
C935 H912 0.951 . S
C935 C934 1.398 . S
C936 C937 1.384 . S
C936 H949 0.947 . S
C936 C971 1.382 . S
C937 C936 1.384 . S
C937 C938 1.378 . S
C938 C937 1.378 . S
C938 C939 1.378 . S
C938 H950 0.952 . S
C939 C938 1.378 . S
C939 H951 0.950 . S
C939 C970 1.383 . S
H940 C959 0.947 . S
H941 C960 0.946 . S
H942 C962 0.953 . S
H943 C963 0.945 . S
H944 C965 0.952 . S
H945 C966 0.949 . S
H946 C968 0.950 . S
H947 C969 0.948 . S
H948 C971 0.951 . S
H949 C936 0.947 . S
H950 C938 0.952 . S
H951 C939 0.950 . S
N952 C955 1.382 . S
N952 C957 1.363 . S
N953 C955 1.371 . S
N953 C956 1.372 . S
N954 C956 1.361 . S
N954 C957 1.377 . S
C955 N952 1.382 . S
C955 N953 1.371 . S
C955 C958 1.480 . S
C956 N953 1.372 . S
C956 N954 1.361 . S
C956 C964 1.457 . S
C957 N952 1.363 . S
C957 N954 1.377 . S
C957 C970 1.479 . S
C958 C955 1.480 . S
C958 C959 1.383 . S
C958 C963 1.385 . S
C959 H940 0.947 . S
C959 C958 1.383 . S
C959 C960 1.388 . S
C960 H941 0.946 . S
C960 C959 1.388 . S
C960 C961 1.384 . S
C961 C960 1.384 . S
C961 C962 1.377 . S
C962 H942 0.953 . S
C962 C961 1.377 . S
C962 C963 1.369 . S
C963 H943 0.945 . S
C963 C958 1.385 . S
C963 C962 1.369 . S
C964 C956 1.457 . S
C964 C965 1.372 . S
C964 C969 1.364 . S
C965 H944 0.952 . S
C965 C964 1.372 . S
C965 C966 1.389 . S
C966 H945 0.949 . S
C966 C965 1.389 . S
C966 C967 1.387 . S
C967 C966 1.387 . S
C967 C968 1.372 . S
C968 H946 0.950 . S
C968 C967 1.372 . S
C968 C969 1.379 . S
C969 H947 0.948 . S
C969 C964 1.364 . S
C969 C968 1.379 . S
C970 C939 1.383 . S
C970 C957 1.479 . S
C970 C971 1.398 . S
C971 C936 1.382 . S
C971 H948 0.951 . S
C971 C970 1.398 . S
C972 C973 1.384 . S
C972 H985 0.947 . S
C972 C1007 1.382 . S
C973 C972 1.384 . S
C973 C974 1.378 . S
C974 C973 1.378 . S
C974 C975 1.378 . S
C974 H986 0.952 . S
C975 C974 1.378 . S
C975 H987 0.950 . S
C975 C1006 1.383 . S
H976 C995 0.947 . S
H977 C996 0.946 . S
H978 C998 0.953 . S
H979 C999 0.945 . S
H980 C1001 0.952 . S
H981 C1002 0.949 . S
H982 C1004 0.950 . S
H983 C1005 0.948 . S
H984 C1007 0.951 . S
H985 C972 0.947 . S
H986 C974 0.952 . S
H987 C975 0.950 . S
N988 C991 1.382 . S
N988 C993 1.363 . S
N989 C991 1.371 . S
N989 C992 1.372 . S
N990 C992 1.361 . S
N990 C993 1.377 . S
C991 N988 1.382 . S
C991 N989 1.371 . S
C991 C994 1.480 . S
C992 N989 1.372 . S
C992 N990 1.361 . S
C992 C1000 1.457 . S
C993 N988 1.363 . S
C993 N990 1.377 . S
C993 C1006 1.479 . S
C994 C991 1.480 . S
C994 C995 1.383 . S
C994 C999 1.385 . S
C995 H976 0.947 . S
C995 C994 1.383 . S
C995 C996 1.388 . S
C996 H977 0.946 . S
C996 C995 1.388 . S
C996 C997 1.384 . S
C997 C996 1.384 . S
C997 C998 1.377 . S
C998 H978 0.953 . S
C998 C997 1.377 . S
C998 C999 1.369 . S
C999 H979 0.945 . S
C999 C994 1.385 . S
C999 C998 1.369 . S
C1000 C992 1.457 . S
C1000 C1001 1.372 . S
C1000 C1005 1.364 . S
C1001 H980 0.952 . S
C1001 C1000 1.372 . S
C1001 C1002 1.389 . S
C1002 H981 0.949 . S
C1002 C1001 1.389 . S
C1002 C1003 1.387 . S
C1003 C1002 1.387 . S
C1003 C1004 1.372 . S
C1004 H982 0.950 . S
C1004 C1003 1.372 . S
C1004 C1005 1.379 . S
C1005 H983 0.948 . S
C1005 C1000 1.364 . S
C1005 C1004 1.379 . S
C1006 C975 1.383 . S
C1006 C993 1.479 . S
C1006 C1007 1.398 . S
C1007 C972 1.382 . S
C1007 H984 0.951 . S
C1007 C1006 1.398 . S
C1008 C1009 1.384 . S
C1008 H1021 0.947 . S
C1008 C1043 1.382 . S
C1009 C1008 1.384 . S
C1009 C1010 1.378 . S
C1010 C1009 1.378 . S
C1010 C1011 1.378 . S
C1010 H1022 0.952 . S
C1011 C1010 1.378 . S
C1011 H1023 0.950 . S
C1011 C1042 1.383 . S
H1012 C1031 0.947 . S
H1013 C1032 0.946 . S
H1014 C1034 0.953 . S
H1015 C1035 0.945 . S
H1016 C1037 0.952 . S
H1017 C1038 0.949 . S
H1018 C1040 0.950 . S
H1019 C1041 0.948 . S
H1020 C1043 0.951 . S
H1021 C1008 0.947 . S
H1022 C1010 0.952 . S
H1023 C1011 0.950 . S
N1024 C1027 1.382 . S
N1024 C1029 1.363 . S
N1025 C1027 1.371 . S
N1025 C1028 1.372 . S
N1026 C1028 1.361 . S
N1026 C1029 1.377 . S
C1027 N1024 1.382 . S
C1027 N1025 1.371 . S
C1027 C1030 1.480 . S
C1028 N1025 1.372 . S
C1028 N1026 1.361 . S
C1028 C1036 1.457 . S
C1029 N1024 1.363 . S
C1029 N1026 1.377 . S
C1029 C1042 1.479 . S
C1030 C1027 1.480 . S
C1030 C1031 1.383 . S
C1030 C1035 1.385 . S
C1031 H1012 0.947 . S
C1031 C1030 1.383 . S
C1031 C1032 1.388 . S
C1032 H1013 0.946 . S
C1032 C1031 1.388 . S
C1032 C1033 1.384 . S
C1033 C1032 1.384 . S
C1033 C1034 1.377 . S
C1034 H1014 0.953 . S
C1034 C1033 1.377 . S
C1034 C1035 1.369 . S
C1035 H1015 0.945 . S
C1035 C1030 1.385 . S
C1035 C1034 1.369 . S
C1036 C1028 1.457 . S
C1036 C1037 1.372 . S
C1036 C1041 1.364 . S
C1037 H1016 0.952 . S
C1037 C1036 1.372 . S
C1037 C1038 1.389 . S
C1038 H1017 0.949 . S
C1038 C1037 1.389 . S
C1038 C1039 1.387 . S
C1039 C1038 1.387 . S
C1039 C1040 1.372 . S
C1040 H1018 0.950 . S
C1040 C1039 1.372 . S
C1040 C1041 1.379 . S
C1041 H1019 0.948 . S
C1041 C1036 1.364 . S
C1041 C1040 1.379 . S
C1042 C1011 1.383 . S
C1042 C1029 1.479 . S
C1042 C1043 1.398 . S
C1043 C1008 1.382 . S
C1043 H1020 0.951 . S
C1043 C1042 1.398 . S
C1044 C1045 1.384 . S
C1044 H1057 0.947 . S
C1044 C1079 1.382 . S
C1045 C1044 1.384 . S
C1045 C1046 1.378 . S
C1046 C1045 1.378 . S
C1046 C1047 1.378 . S
C1046 H1058 0.952 . S
C1047 C1046 1.378 . S
C1047 H1059 0.950 . S
C1047 C1078 1.383 . S
H1048 C1067 0.947 . S
H1049 C1068 0.946 . S
H1050 C1070 0.953 . S
H1051 C1071 0.945 . S
H1052 C1073 0.952 . S
H1053 C1074 0.949 . S
H1054 C1076 0.950 . S
H1055 C1077 0.948 . S
H1056 C1079 0.951 . S
H1057 C1044 0.947 . S
H1058 C1046 0.952 . S
H1059 C1047 0.950 . S
N1060 C1063 1.382 . S
N1060 C1065 1.363 . S
N1061 C1063 1.371 . S
N1061 C1064 1.372 . S
N1062 C1064 1.361 . S
N1062 C1065 1.377 . S
C1063 N1060 1.382 . S
C1063 N1061 1.371 . S
C1063 C1066 1.480 . S
C1064 N1061 1.372 . S
C1064 N1062 1.361 . S
C1064 C1072 1.457 . S
C1065 N1060 1.363 . S
C1065 N1062 1.377 . S
C1065 C1078 1.479 . S
C1066 C1063 1.480 . S
C1066 C1067 1.383 . S
C1066 C1071 1.385 . S
C1067 H1048 0.947 . S
C1067 C1066 1.383 . S
C1067 C1068 1.388 . S
C1068 H1049 0.946 . S
C1068 C1067 1.388 . S
C1068 C1069 1.384 . S
C1069 C1068 1.384 . S
C1069 C1070 1.377 . S
C1070 H1050 0.953 . S
C1070 C1069 1.377 . S
C1070 C1071 1.369 . S
C1071 H1051 0.945 . S
C1071 C1066 1.385 . S
C1071 C1070 1.369 . S
C1072 C1064 1.457 . S
C1072 C1073 1.372 . S
C1072 C1077 1.364 . S
C1073 H1052 0.952 . S
C1073 C1072 1.372 . S
C1073 C1074 1.389 . S
C1074 H1053 0.949 . S
C1074 C1073 1.389 . S
C1074 C1075 1.387 . S
C1075 C1074 1.387 . S
C1075 C1076 1.372 . S
C1076 H1054 0.950 . S
C1076 C1075 1.372 . S
C1076 C1077 1.379 . S
C1077 H1055 0.948 . S
C1077 C1072 1.364 . S
C1077 C1076 1.379 . S
C1078 C1047 1.383 . S
C1078 C1065 1.479 . S
C1078 C1079 1.398 . S
C1079 C1044 1.382 . S
C1079 H1056 0.951 . S
C1079 C1078 1.398 . S
C1080 C1081 1.384 . S
C1080 H1093 0.947 . S
C1080 C1115 1.382 . S
C1081 C1080 1.384 . S
C1081 C1082 1.378 . S
C1082 C1081 1.378 . S
C1082 C1083 1.378 . S
C1082 H1094 0.952 . S
C1083 C1082 1.378 . S
C1083 H1095 0.950 . S
C1083 C1114 1.383 . S
H1084 C1103 0.947 . S
H1085 C1104 0.946 . S
H1086 C1106 0.953 . S
H1087 C1107 0.945 . S
H1088 C1109 0.952 . S
H1089 C1110 0.949 . S
H1090 C1112 0.950 . S
H1091 C1113 0.948 . S
H1092 C1115 0.951 . S
H1093 C1080 0.947 . S
H1094 C1082 0.952 . S
H1095 C1083 0.950 . S
N1096 C1099 1.382 . S
N1096 C1101 1.363 . S
N1097 C1099 1.371 . S
N1097 C1100 1.372 . S
N1098 C1100 1.361 . S
N1098 C1101 1.377 . S
C1099 N1096 1.382 . S
C1099 N1097 1.371 . S
C1099 C1102 1.480 . S
C1100 N1097 1.372 . S
C1100 N1098 1.361 . S
C1100 C1108 1.457 . S
C1101 N1096 1.363 . S
C1101 N1098 1.377 . S
C1101 C1114 1.479 . S
C1102 C1099 1.480 . S
C1102 C1103 1.383 . S
C1102 C1107 1.385 . S
C1103 H1084 0.947 . S
C1103 C1102 1.383 . S
C1103 C1104 1.388 . S
C1104 H1085 0.946 . S
C1104 C1103 1.388 . S
C1104 C1105 1.384 . S
C1105 C1104 1.384 . S
C1105 C1106 1.377 . S
C1106 H1086 0.953 . S
C1106 C1105 1.377 . S
C1106 C1107 1.369 . S
C1107 H1087 0.945 . S
C1107 C1102 1.385 . S
C1107 C1106 1.369 . S
C1108 C1100 1.457 . S
C1108 C1109 1.372 . S
C1108 C1113 1.364 . S
C1109 H1088 0.952 . S
C1109 C1108 1.372 . S
C1109 C1110 1.389 . S
C1110 H1089 0.949 . S
C1110 C1109 1.389 . S
C1110 C1111 1.387 . S
C1111 C1110 1.387 . S
C1111 C1112 1.372 . S
C1112 H1090 0.950 . S
C1112 C1111 1.372 . S
C1112 C1113 1.379 . S
C1113 H1091 0.948 . S
C1113 C1108 1.364 . S
C1113 C1112 1.379 . S
C1114 C1083 1.383 . S
C1114 C1101 1.479 . S
C1114 C1115 1.398 . S
C1115 C1080 1.382 . S
C1115 H1092 0.951 . S
C1115 C1114 1.398 . S
C1116 C1117 1.384 . S
C1116 H1129 0.947 . S
C1116 C1151 1.382 . S
C1117 C1116 1.384 . S
C1117 C1118 1.378 . S
C1118 C1117 1.378 . S
C1118 C1119 1.378 . S
C1118 H1130 0.952 . S
C1119 C1118 1.378 . S
C1119 H1131 0.950 . S
C1119 C1150 1.383 . S
H1120 C1139 0.947 . S
H1121 C1140 0.946 . S
H1122 C1142 0.953 . S
H1123 C1143 0.945 . S
H1124 C1145 0.952 . S
H1125 C1146 0.949 . S
H1126 C1148 0.950 . S
H1127 C1149 0.948 . S
H1128 C1151 0.951 . S
H1129 C1116 0.947 . S
H1130 C1118 0.952 . S
H1131 C1119 0.950 . S
N1132 C1135 1.382 . S
N1132 C1137 1.363 . S
N1133 C1135 1.371 . S
N1133 C1136 1.372 . S
N1134 C1136 1.361 . S
N1134 C1137 1.377 . S
C1135 N1132 1.382 . S
C1135 N1133 1.371 . S
C1135 C1138 1.480 . S
C1136 N1133 1.372 . S
C1136 N1134 1.361 . S
C1136 C1144 1.457 . S
C1137 N1132 1.363 . S
C1137 N1134 1.377 . S
C1137 C1150 1.479 . S
C1138 C1135 1.480 . S
C1138 C1139 1.383 . S
C1138 C1143 1.385 . S
C1139 H1120 0.947 . S
C1139 C1138 1.383 . S
C1139 C1140 1.388 . S
C1140 H1121 0.946 . S
C1140 C1139 1.388 . S
C1140 C1141 1.384 . S
C1141 C1140 1.384 . S
C1141 C1142 1.377 . S
C1142 H1122 0.953 . S
C1142 C1141 1.377 . S
C1142 C1143 1.369 . S
C1143 H1123 0.945 . S
C1143 C1138 1.385 . S
C1143 C1142 1.369 . S
C1144 C1136 1.457 . S
C1144 C1145 1.372 . S
C1144 C1149 1.364 . S
C1145 H1124 0.952 . S
C1145 C1144 1.372 . S
C1145 C1146 1.389 . S
C1146 H1125 0.949 . S
C1146 C1145 1.389 . S
C1146 C1147 1.387 . S
C1147 C1146 1.387 . S
C1147 C1148 1.372 . S
C1148 H1126 0.950 . S
C1148 C1147 1.372 . S
C1148 C1149 1.379 . S
C1149 H1127 0.948 . S
C1149 C1144 1.364 . S
C1149 C1148 1.379 . S
C1150 C1119 1.383 . S
C1150 C1137 1.479 . S
C1150 C1151 1.398 . S
C1151 C1116 1.382 . S
C1151 H1128 0.951 . S
C1151 C1150 1.398 . S
Cu1152 N1153 1.999 . S
Cu1152 O1158 1.974 1_554 S
Cu1152 N1163 1.985 . S
Cu1152 O1172 1.959 . S
N1153 Cu1152 1.999 . S
N1153 C1155 1.263 1_554 S
N1153 C1157 1.389 . S
N1154 C1155 1.358 . S
N1154 C1156 1.400 . S
C1155 N1153 1.263 1_556 S
C1155 N1154 1.358 . S
C1155 H1161 0.930 . S
C1156 N1154 1.400 . S
C1156 C1157 1.351 1_556 S
C1156 H1173 0.930 . S
C1157 N1153 1.389 . S
C1157 C1156 1.351 1_554 S
C1157 H1162 0.930 . S
O1158 Cu1152 1.974 1_556 S
O1158 C1168 1.282 . S
C1159 O1160 1.261 . S
C1159 O1172 1.251 . S
O1160 C1159 1.261 . S
H1161 C1155 0.930 . S
H1162 C1157 0.930 . S
N1163 Cu1152 1.985 . S
N1163 C1165 1.335 . S
N1163 C1166 1.390 . S
N1164 C1165 1.345 . S
N1164 C1167 1.336 . S
C1165 N1163 1.335 . S
C1165 N1164 1.345 . S
C1165 H1170 0.930 . S
C1166 N1163 1.390 . S
C1166 C1167 1.346 . S
C1166 H1171 0.930 . S
C1167 N1164 1.336 . S
C1167 C1166 1.346 . S
C1167 H1174 0.929 . S
C1168 O1158 1.282 . S
C1168 O1169 1.216 . S
O1169 C1168 1.216 . S
H1170 C1165 0.930 . S
H1171 C1166 0.930 . S
O1172 Cu1152 1.959 . S
O1172 C1159 1.251 . S
H1173 C1156 0.930 . S
H1174 C1167 0.929 . S
Cu1175 N1176 1.999 . S
Cu1175 O1181 1.974 . S
Cu1175 N1186 1.985 1_554 S
Cu1175 O1195 1.959 1_554 S
N1176 Cu1175 1.999 . S
N1176 C1178 1.263 . S
N1176 C1180 1.389 . S
N1177 C1178 1.358 . S
N1177 C1179 1.400 . S
C1178 N1176 1.263 . S
C1178 N1177 1.358 . S
C1178 H1184 0.930 . S
C1179 N1177 1.400 . S
C1179 C1180 1.351 . S
C1179 H1196 0.930 . S
C1180 N1176 1.389 . S
C1180 C1179 1.351 . S
C1180 H1185 0.930 . S
O1181 Cu1175 1.974 . S
O1181 C1191 1.282 . S
C1182 O1183 1.261 . S
C1182 O1195 1.251 . S
O1183 C1182 1.261 . S
H1184 C1178 0.930 . S
H1185 C1180 0.930 . S
N1186 Cu1175 1.985 1_556 S
N1186 C1188 1.335 . S
N1186 C1189 1.390 . S
N1187 C1188 1.345 . S
N1187 C1190 1.336 . S
C1188 N1186 1.335 . S
C1188 N1187 1.345 . S
C1188 H1193 0.930 . S
C1189 N1186 1.390 . S
C1189 C1190 1.346 . S
C1189 H1194 0.930 1_556 S
C1190 N1187 1.336 . S
C1190 C1189 1.346 . S
C1190 H1197 0.929 . S
C1191 O1181 1.282 . S
C1191 O1192 1.216 . S
O1192 C1191 1.216 . S
H1193 C1188 0.930 . S
H1194 C1189 0.930 1_554 S
O1195 Cu1175 1.959 1_556 S
O1195 C1182 1.251 . S
H1196 C1179 0.930 . S
H1197 C1190 0.929 . S
Cu1198 N1199 1.962 1_554 S
Cu1198 O1204 1.929 1_554 S
Cu1198 N1209 2.021 . S
Cu1198 O1218 2.004 . S
N1199 Cu1198 1.962 1_556 S
N1199 C1201 1.263 . S
N1199 C1203 1.389 . S
N1200 C1201 1.358 . S
N1200 C1202 1.400 . S
C1201 N1199 1.263 . S
C1201 N1200 1.358 . S
C1201 H1207 0.930 . S
C1202 N1200 1.400 . S
C1202 C1203 1.351 . S
C1202 H1219 0.930 . S
C1203 N1199 1.389 . S
C1203 C1202 1.351 . S
C1203 H1208 0.930 . S
O1204 Cu1198 1.929 1_556 S
O1204 C1214 1.282 . S
C1205 O1206 1.261 . S
C1205 O1218 1.251 . S
O1206 C1205 1.261 . S
H1207 C1201 0.930 . S
H1208 C1203 0.930 . S
N1209 Cu1198 2.021 . S
N1209 C1211 1.335 . S
N1209 C1212 1.390 . S
N1210 C1211 1.345 . S
N1210 C1213 1.336 . S
C1211 N1209 1.335 . S
C1211 N1210 1.345 . S
C1211 H1216 0.930 . S
C1212 N1209 1.390 . S
C1212 C1213 1.346 . S
C1212 H1217 0.988 . S
C1213 N1210 1.336 . S
C1213 C1212 1.346 . S
C1213 H1220 0.929 . S
C1214 O1204 1.282 . S
C1214 O1215 1.216 . S
O1215 C1214 1.216 . S
H1216 C1211 0.930 . S
H1217 C1212 0.988 . S
O1218 Cu1198 2.004 . S
O1218 C1205 1.251 . S
H1219 C1202 0.930 . S
H1220 C1213 0.929 . S
Cu1221 N1222 2.009 . S
Cu1221 O1227 1.986 . S
Cu1221 N1232 1.975 1_554 S
Cu1221 O1241 1.947 1_554 S
N1222 Cu1221 2.009 . S
N1222 C1224 1.263 . S
N1222 C1226 1.389 . S
N1223 C1224 1.358 . S
N1223 C1225 1.400 . S
C1224 N1222 1.263 . S
C1224 N1223 1.358 . S
C1224 H1230 0.930 . S
C1225 N1223 1.400 . S
C1225 C1226 1.351 . S
C1225 H1242 0.930 . S
C1226 N1222 1.389 . S
C1226 C1225 1.351 . S
C1226 H1231 0.930 . S
O1227 Cu1221 1.986 . S
O1227 C1237 1.282 . S
C1228 O1229 1.261 . S
C1228 O1241 1.251 . S
O1229 C1228 1.261 . S
H1230 C1224 0.930 . S
H1231 C1226 0.930 . S
N1232 Cu1221 1.975 1_556 S
N1232 C1234 1.335 . S
N1232 C1235 1.390 . S
N1233 C1234 1.345 . S
N1233 C1236 1.336 . S
C1234 N1232 1.335 . S
C1234 N1233 1.345 . S
C1234 H1239 0.930 . S
C1235 N1232 1.390 . S
C1235 C1236 1.346 . S
C1235 H1240 0.925 1_556 S
C1236 N1233 1.336 . S
C1236 C1235 1.346 . S
C1236 H1243 0.929 . S
C1237 O1227 1.282 . S
C1237 O1238 1.216 . S
O1238 C1237 1.216 . S
H1239 C1234 0.930 . S
H1240 C1235 0.925 1_554 S
O1241 Cu1221 1.947 1_556 S
O1241 C1228 1.251 . S
H1242 C1225 0.930 . S
H1243 C1236 0.929 . S
Cu1244 N1245 1.999 . S
Cu1244 O1250 1.974 . S
Cu1244 N1255 1.985 1_455 S
Cu1244 O1264 1.959 1_455 S
N1245 Cu1244 1.999 . S
N1245 C1247 1.263 . S
N1245 C1249 1.389 . S
N1246 C1247 1.358 . S
N1246 C1248 1.400 . S
C1247 N1245 1.263 . S
C1247 N1246 1.358 . S
C1247 H1253 0.930 . S
C1248 N1246 1.400 . S
C1248 C1249 1.351 . S
C1248 H1265 0.930 . S
C1249 N1245 1.389 . S
C1249 C1248 1.351 . S
C1249 H1254 0.930 . S
O1250 Cu1244 1.974 . S
O1250 C1260 1.282 . S
C1251 O1252 1.261 . S
C1251 O1264 1.251 . S
O1252 C1251 1.261 . S
H1253 C1247 0.930 . S
H1254 C1249 0.930 . S
N1255 Cu1244 1.985 1_655 S
N1255 C1257 1.335 . S
N1255 C1258 1.381 1_655 S
N1256 C1257 1.345 . S
N1256 C1259 1.336 . S
C1257 N1255 1.335 . S
C1257 N1256 1.345 . S
C1257 H1262 0.930 . S
C1258 N1255 1.381 1_455 S
C1258 C1259 1.301 1_455 S
C1258 H1263 0.977 . S
C1259 N1256 1.336 . S
C1259 C1258 1.301 1_655 S
C1259 H1266 0.929 . S
C1260 O1250 1.282 . S
C1260 O1261 1.216 . S
O1261 C1260 1.216 . S
H1262 C1257 0.930 . S
H1263 C1258 0.977 . S
O1264 Cu1244 1.959 1_655 S
O1264 C1251 1.251 . S
H1265 C1248 0.930 . S
H1266 C1259 0.929 . S
Cu1267 N1268 1.999 . S
Cu1267 O1273 1.974 . S
Cu1267 N1278 1.985 1_545 S
Cu1267 O1287 1.959 1_545 S
N1268 Cu1267 1.999 . S
N1268 C1270 1.263 . S
N1268 C1272 1.389 . S
N1269 C1270 1.358 . S
N1269 C1271 1.400 . S
C1270 N1268 1.263 . S
C1270 N1269 1.358 . S
C1270 H1276 0.930 . S
C1271 N1269 1.400 . S
C1271 C1272 1.351 . S
C1271 H1288 0.930 . S
C1272 N1268 1.389 . S
C1272 C1271 1.351 . S
C1272 H1277 0.930 . S
O1273 Cu1267 1.974 . S
O1273 C1283 1.282 . S
C1274 O1275 1.261 . S
C1274 O1287 1.251 . S
O1275 C1274 1.261 . S
H1276 C1270 0.930 . S
H1277 C1272 0.930 . S
N1278 Cu1267 1.985 1_565 S
N1278 C1280 1.335 . S
N1278 C1281 1.390 . S
N1279 C1280 1.345 . S
N1279 C1282 1.336 . S
C1280 N1278 1.335 . S
C1280 N1279 1.345 . S
C1280 H1285 0.930 . S
C1281 N1278 1.390 . S
C1281 C1282 1.346 . S
C1281 H1286 0.930 1_565 S
C1282 N1279 1.336 . S
C1282 C1281 1.346 . S
C1282 H1289 0.929 . S
C1283 O1273 1.282 . S
C1283 O1284 1.216 . S
O1284 C1283 1.216 . S
H1285 C1280 0.930 . S
H1286 C1281 0.930 1_545 S
O1287 Cu1267 1.959 1_565 S
O1287 C1274 1.251 . S
H1288 C1271 0.930 . S
H1289 C1282 0.929 . S
Cu1290 N1291 2.000 1_455 S
Cu1290 O1296 1.974 1_455 S
Cu1290 N1301 1.985 . S
Cu1290 O1310 1.959 . S
N1291 Cu1290 2.000 1_655 S
N1291 C1293 1.263 . S
N1291 C1295 1.389 . S
N1292 C1293 1.358 . S
N1292 C1294 1.400 . S
C1293 N1291 1.263 . S
C1293 N1292 1.358 . S
C1293 H1299 0.930 . S
C1294 N1292 1.400 . S
C1294 C1295 1.351 . S
C1294 H1311 0.930 . S
C1295 N1291 1.389 . S
C1295 C1294 1.351 . S
C1295 H1300 0.930 . S
O1296 Cu1290 1.974 1_655 S
O1296 C1306 1.282 . S
C1297 O1298 1.261 . S
C1297 O1310 1.251 . S
O1298 C1297 1.261 . S
H1299 C1293 0.930 . S
H1300 C1295 0.930 . S
N1301 Cu1290 1.985 . S
N1301 C1303 1.335 . S
N1301 C1304 1.390 . S
N1302 C1303 1.345 . S
N1302 C1305 1.336 . S
C1303 N1301 1.335 . S
C1303 N1302 1.345 . S
C1303 H1308 0.930 . S
C1304 N1301 1.390 . S
C1304 C1305 1.346 . S
C1304 H1309 0.930 . S
C1305 N1302 1.336 . S
C1305 C1304 1.346 . S
C1305 H1312 0.929 . S
C1306 O1296 1.282 . S
C1306 O1307 1.216 . S
O1307 C1306 1.216 . S
H1308 C1303 0.930 . S
H1309 C1304 0.930 . S
O1310 Cu1290 1.959 . S
O1310 C1297 1.251 . S
H1311 C1294 0.930 . S
H1312 C1305 0.929 . S
Cu1313 N1314 1.991 1_565 S
Cu1313 O1319 1.964 1_565 S
Cu1313 N1324 1.993 . S
Cu1313 O1333 1.969 . S
N1314 Cu1313 1.991 1_545 S
N1314 C1316 1.263 . S
N1314 C1318 1.389 . S
N1315 C1316 1.358 . S
N1315 C1317 1.400 . S
C1316 N1314 1.263 . S
C1316 N1315 1.358 . S
C1316 H1322 0.930 . S
C1317 N1315 1.400 . S
C1317 C1318 1.351 . S
C1317 H1334 0.930 . S
C1318 N1314 1.389 . S
C1318 C1317 1.351 . S
C1318 H1323 0.930 . S
O1319 Cu1313 1.964 1_545 S
O1319 C1329 1.282 . S
C1320 O1321 1.261 . S
C1320 O1333 1.251 . S
O1321 C1320 1.261 . S
H1322 C1316 0.930 . S
H1323 C1318 0.930 . S
N1324 Cu1313 1.993 . S
N1324 C1326 1.335 . S
N1324 C1327 1.390 . S
N1325 C1326 1.345 . S
N1325 C1328 1.336 . S
C1326 N1324 1.335 . S
C1326 N1325 1.345 . S
C1326 H1331 0.930 . S
C1327 N1324 1.390 . S
C1327 C1328 1.346 . S
C1327 H1332 1.023 . S
C1328 N1325 1.336 . S
C1328 C1327 1.346 . S
C1328 H1335 0.929 . S
C1329 O1319 1.282 . S
C1329 O1330 1.216 . S
O1330 C1329 1.216 . S
H1331 C1326 0.930 . S
H1332 C1327 1.023 . S
O1333 Cu1313 1.969 . S
O1333 C1320 1.251 . S
H1334 C1317 0.930 . S
H1335 C1328 0.929 . S
Cu1336 N1337 1.999 . S
Cu1336 O1342 1.974 . S
Cu1336 N1347 1.985 1_455 S
Cu1336 O1356 1.959 1_455 S
N1337 Cu1336 1.999 . S
N1337 C1339 1.263 . S
N1337 C1341 1.389 . S
N1338 C1339 1.358 . S
N1338 C1340 1.400 . S
C1339 N1337 1.263 . S
C1339 N1338 1.358 . S
C1339 H1345 0.930 . S
C1340 N1338 1.400 . S
C1340 C1341 1.351 . S
C1340 H1357 0.930 . S
C1341 N1337 1.389 . S
C1341 C1340 1.351 . S
C1341 H1346 0.930 . S
O1342 Cu1336 1.974 . S
O1342 C1352 1.282 . S
C1343 O1344 1.261 . S
C1343 O1356 1.251 . S
O1344 C1343 1.261 . S
H1345 C1339 0.930 . S
H1346 C1341 0.930 . S
N1347 Cu1336 1.985 1_655 S
N1347 C1349 1.335 . S
N1347 C1350 1.392 1_655 S
N1348 C1349 1.345 . S
N1348 C1351 1.336 . S
C1349 N1347 1.335 . S
C1349 N1348 1.345 . S
C1349 H1354 0.930 . S
C1350 N1347 1.392 1_455 S
C1350 C1351 1.354 1_455 S
C1350 H1355 0.922 . S
C1351 N1348 1.336 . S
C1351 C1350 1.354 1_655 S
C1351 H1358 0.929 . S
C1352 O1342 1.282 . S
C1352 O1353 1.216 . S
O1353 C1352 1.216 . S
H1354 C1349 0.930 . S
H1355 C1350 0.922 . S
O1356 Cu1336 1.959 1_655 S
O1356 C1343 1.251 . S
H1357 C1340 0.930 . S
H1358 C1351 0.929 . S
Cu1359 N1360 1.999 . S
Cu1359 O1365 1.974 . S
Cu1359 N1370 1.962 1_545 S
Cu1359 O1379 1.959 1_545 S
N1360 Cu1359 1.999 . S
N1360 C1362 1.263 . S
N1360 C1364 1.389 . S
N1361 C1362 1.358 . S
N1361 C1363 1.400 . S
C1362 N1360 1.263 . S
C1362 N1361 1.358 . S
C1362 H1368 0.930 . S
C1363 N1361 1.400 . S
C1363 C1364 1.351 . S
C1363 H1380 0.930 . S
C1364 N1360 1.389 . S
C1364 C1363 1.351 . S
C1364 H1369 0.930 . S
O1365 Cu1359 1.974 . S
O1365 C1375 1.282 . S
C1366 O1367 1.261 . S
C1366 O1379 1.251 . S
O1367 C1366 1.261 . S
H1368 C1362 0.930 . S
H1369 C1364 0.930 . S
N1370 Cu1359 1.962 1_565 S
N1370 C1372 1.369 . S
N1370 C1373 1.384 1_565 S
N1371 C1372 1.345 . S
N1371 C1374 1.336 . S
C1372 N1370 1.369 . S
C1372 N1371 1.345 . S
C1372 H1377 0.930 . S
C1373 N1370 1.384 1_545 S
C1373 C1374 1.346 1_545 S
C1373 H1378 0.930 . S
C1374 N1371 1.336 . S
C1374 C1373 1.346 1_565 S
C1374 H1381 0.929 . S
C1375 O1365 1.282 . S
C1375 O1376 1.216 . S
O1376 C1375 1.216 . S
H1377 C1372 0.930 . S
H1378 C1373 0.930 . S
O1379 Cu1359 1.959 1_565 S
O1379 C1366 1.251 . S
H1380 C1363 0.930 . S
H1381 C1374 0.929 . S
Cu1382 N1383 1.999 . S
Cu1382 O1388 1.974 . S
Cu1382 N1393 1.985 . S
Cu1382 O1402 1.959 . S
N1383 Cu1382 1.999 . S
N1383 C1385 1.263 1_455 S
N1383 C1387 1.389 . S
N1384 C1385 1.358 . S
N1384 C1386 1.400 . S
C1385 N1383 1.263 1_655 S
C1385 N1384 1.358 . S
C1385 H1391 0.930 . S
C1386 N1384 1.400 . S
C1386 C1387 1.351 1_655 S
C1386 H1403 0.930 . S
C1387 N1383 1.389 . S
C1387 C1386 1.351 1_455 S
C1387 H1392 0.930 . S
O1388 Cu1382 1.974 . S
O1388 C1398 1.282 1_455 S
C1389 O1390 1.261 . S
C1389 O1402 1.251 . S
O1390 C1389 1.261 . S
H1391 C1385 0.930 . S
H1392 C1387 0.930 . S
N1393 Cu1382 1.985 . S
N1393 C1395 1.335 . S
N1393 C1396 1.390 . S
N1394 C1395 1.345 . S
N1394 C1397 1.336 . S
C1395 N1393 1.335 . S
C1395 N1394 1.345 . S
C1395 H1400 0.930 . S
C1396 N1393 1.390 . S
C1396 C1397 1.346 . S
C1396 H1401 0.930 . S
C1397 N1394 1.336 . S
C1397 C1396 1.346 . S
C1397 H1404 0.929 . S
C1398 O1388 1.282 1_655 S
C1398 O1399 1.216 1_655 S
O1399 C1398 1.216 1_455 S
H1400 C1395 0.930 . S
H1401 C1396 0.930 . S
O1402 Cu1382 1.959 . S
O1402 C1389 1.251 . S
H1403 C1386 0.930 . S
H1404 C1397 0.929 . S
Cu1405 N1406 1.999 . S
Cu1405 O1411 1.974 . S
Cu1405 N1416 2.024 . S
Cu1405 O1425 1.959 1_545 S
N1406 Cu1405 1.999 . S
N1406 C1408 1.263 . S
N1406 C1410 1.389 . S
N1407 C1408 1.358 . S
N1407 C1409 1.400 . S
C1408 N1406 1.263 . S
C1408 N1407 1.358 . S
C1408 H1414 0.930 . S
C1409 N1407 1.400 . S
C1409 C1410 1.351 . S
C1409 H1426 0.930 . S
C1410 N1406 1.389 . S
C1410 C1409 1.351 . S
C1410 H1415 0.930 . S
O1411 Cu1405 1.974 . S
O1411 C1421 1.282 . S
C1412 O1413 1.262 1_565 S
C1412 O1425 1.251 . S
O1413 C1412 1.262 1_545 S
H1414 C1408 0.930 . S
H1415 C1410 0.930 . S
N1416 Cu1405 2.024 . S
N1416 C1418 1.274 1_545 S
N1416 C1419 1.405 . S
N1417 C1418 1.345 . S
N1417 C1420 1.336 . S
C1418 N1416 1.274 1_565 S
C1418 N1417 1.345 . S
C1418 H1423 0.930 . S
C1419 N1416 1.405 . S
C1419 C1420 1.346 1_545 S
C1419 H1424 0.930 . S
C1420 N1417 1.336 . S
C1420 C1419 1.346 1_565 S
C1420 H1427 0.929 . S
C1421 O1411 1.282 . S
C1421 O1422 1.216 . S
O1422 C1421 1.216 . S
H1423 C1418 0.930 . S
H1424 C1419 0.930 . S
O1425 Cu1405 1.959 1_565 S
O1425 C1412 1.251 . S
H1426 C1409 0.930 . S
H1427 C1420 0.929 . S
Cu1428 N1429 1.999 . S
Cu1428 O1434 1.974 . S
Cu1428 N1439 1.985 . S
Cu1428 O1448 1.959 . S
N1429 Cu1428 1.999 . S
N1429 C1431 1.263 . S
N1429 C1433 1.389 . S
N1430 C1431 1.358 . S
N1430 C1432 1.400 . S
C1431 N1429 1.263 . S
C1431 N1430 1.358 . S
C1431 H1437 0.930 . S
C1432 N1430 1.400 . S
C1432 C1433 1.351 . S
C1432 H1449 0.930 . S
C1433 N1429 1.389 . S
C1433 C1432 1.351 . S
C1433 H1438 0.930 . S
O1434 Cu1428 1.974 . S
O1434 C1444 1.282 . S
C1435 O1436 1.261 . S
C1435 O1448 1.251 . S
O1436 C1435 1.261 . S
H1437 C1431 0.930 . S
H1438 C1433 0.930 . S
N1439 Cu1428 1.985 . S
N1439 C1441 1.335 . S
N1439 C1442 1.390 . S
N1440 C1441 1.345 . S
N1440 C1443 1.336 . S
C1441 N1439 1.335 . S
C1441 N1440 1.345 . S
C1441 H1446 0.930 . S
C1442 N1439 1.390 . S
C1442 C1443 1.346 . S
C1442 H1447 0.930 . S
C1443 N1440 1.336 . S
C1443 C1442 1.346 . S
C1443 H1450 0.929 . S
C1444 O1434 1.282 . S
C1444 O1445 1.216 . S
O1445 C1444 1.216 . S
H1446 C1441 0.930 . S
H1447 C1442 0.930 . S
O1448 Cu1428 1.959 . S
O1448 C1435 1.251 . S
H1449 C1432 0.930 . S
H1450 C1443 0.929 . S
Cu1451 N1452 1.999 . S
Cu1451 O1457 1.974 . S
Cu1451 N1462 1.985 . S
Cu1451 O1471 1.959 . S
N1452 Cu1451 1.999 . S
N1452 C1454 1.263 . S
N1452 C1456 1.389 . S
N1453 C1454 1.358 . S
N1453 C1455 1.400 . S
C1454 N1452 1.263 . S
C1454 N1453 1.358 . S
C1454 H1460 0.930 . S
C1455 N1453 1.400 . S
C1455 C1456 1.351 . S
C1455 H1472 0.930 . S
C1456 N1452 1.389 . S
C1456 C1455 1.351 . S
C1456 H1461 0.930 . S
O1457 Cu1451 1.974 . S
O1457 C1467 1.282 . S
C1458 O1459 1.261 . S
C1458 O1471 1.251 . S
O1459 C1458 1.261 . S
H1460 C1454 0.930 . S
H1461 C1456 0.930 . S
N1462 Cu1451 1.985 . S
N1462 C1464 1.335 . S
N1462 C1465 1.390 . S
N1463 C1464 1.345 . S
N1463 C1466 1.336 . S
C1464 N1462 1.335 . S
C1464 N1463 1.345 . S
C1464 H1469 0.930 . S
C1465 N1462 1.390 . S
C1465 C1466 1.346 . S
C1465 H1470 0.930 . S
C1466 N1463 1.336 . S
C1466 C1465 1.346 . S
C1466 H1473 0.929 . S
C1467 O1457 1.282 . S
C1467 O1468 1.216 . S
O1468 C1467 1.216 . S
H1469 C1464 0.930 . S
H1470 C1465 0.930 . S
O1471 Cu1451 1.959 . S
O1471 C1458 1.251 . S
H1472 C1455 0.930 . S
H1473 C1466 0.929 . S
Cu1474 N1475 1.999 . S
Cu1474 O1480 1.974 . S
Cu1474 N1485 1.985 . S
Cu1474 O1494 1.959 . S
N1475 Cu1474 1.999 . S
N1475 C1477 1.263 . S
N1475 C1479 1.389 . S
N1476 C1477 1.358 . S
N1476 C1478 1.400 . S
C1477 N1475 1.263 . S
C1477 N1476 1.358 . S
C1477 H1483 0.930 . S
C1478 N1476 1.400 . S
C1478 C1479 1.351 . S
C1478 H1495 0.930 . S
C1479 N1475 1.389 . S
C1479 C1478 1.351 . S
C1479 H1484 0.930 . S
O1480 Cu1474 1.974 . S
O1480 C1490 1.282 . S
C1481 O1482 1.261 . S
C1481 O1494 1.251 . S
O1482 C1481 1.261 . S
H1483 C1477 0.930 . S
H1484 C1479 0.930 . S
N1485 Cu1474 1.985 . S
N1485 C1487 1.335 . S
N1485 C1488 1.390 . S
N1486 C1487 1.345 . S
N1486 C1489 1.336 . S
C1487 N1485 1.335 . S
C1487 N1486 1.345 . S
C1487 H1492 0.930 . S
C1488 N1485 1.390 . S
C1488 C1489 1.346 . S
C1488 H1493 0.930 . S
C1489 N1486 1.336 . S
C1489 C1488 1.346 . S
C1489 H1496 0.929 . S
C1490 O1480 1.282 . S
C1490 O1491 1.216 . S
O1491 C1490 1.216 . S
H1492 C1487 0.930 . S
H1493 C1488 0.930 . S
O1494 Cu1474 1.959 . S
O1494 C1481 1.251 . S
H1495 C1478 0.930 . S
H1496 C1489 0.929 . S
Cu1497 N1498 1.999 . S
Cu1497 O1503 1.974 . S
Cu1497 N1508 1.985 . S
Cu1497 O1517 1.959 . S
N1498 Cu1497 1.999 . S
N1498 C1500 1.263 . S
N1498 C1502 1.389 . S
N1499 C1500 1.358 . S
N1499 C1501 1.400 . S
C1500 N1498 1.263 . S
C1500 N1499 1.358 . S
C1500 H1506 0.930 . S
C1501 N1499 1.400 . S
C1501 C1502 1.351 . S
C1501 H1518 0.930 . S
C1502 N1498 1.389 . S
C1502 C1501 1.351 . S
C1502 H1507 0.930 . S
O1503 Cu1497 1.974 . S
O1503 C1513 1.282 . S
C1504 O1505 1.261 . S
C1504 O1517 1.251 . S
O1505 C1504 1.261 . S
H1506 C1500 0.930 . S
H1507 C1502 0.930 . S
N1508 Cu1497 1.985 . S
N1508 C1510 1.335 . S
N1508 C1511 1.390 . S
N1509 C1510 1.345 . S
N1509 C1512 1.336 . S
C1510 N1508 1.335 . S
C1510 N1509 1.345 . S
C1510 H1515 0.930 . S
C1511 N1508 1.390 . S
C1511 C1512 1.346 . S
C1511 H1516 0.930 . S
C1512 N1509 1.336 . S
C1512 C1511 1.346 . S
C1512 H1519 0.929 . S
C1513 O1503 1.282 . S
C1513 O1514 1.216 . S
O1514 C1513 1.216 . S
H1515 C1510 0.930 . S
H1516 C1511 0.930 . S
O1517 Cu1497 1.959 . S
O1517 C1504 1.251 . S
H1518 C1501 0.930 . S
H1519 C1512 0.929 . S
Cu1520 N1521 1.999 . S
Cu1520 O1526 1.974 . S
Cu1520 N1531 1.985 . S
Cu1520 O1540 1.959 . S
N1521 Cu1520 1.999 . S
N1521 C1523 1.263 . S
N1521 C1525 1.389 . S
N1522 C1523 1.358 . S
N1522 C1524 1.400 . S
C1523 N1521 1.263 . S
C1523 N1522 1.358 . S
C1523 H1529 0.930 . S
C1524 N1522 1.400 . S
C1524 C1525 1.351 . S
C1524 H1541 0.930 . S
C1525 N1521 1.389 . S
C1525 C1524 1.351 . S
C1525 H1530 0.930 . S
O1526 Cu1520 1.974 . S
O1526 C1536 1.282 . S
C1527 O1528 1.261 . S
C1527 O1540 1.251 . S
O1528 C1527 1.261 . S
H1529 C1523 0.930 . S
H1530 C1525 0.930 . S
N1531 Cu1520 1.985 . S
N1531 C1533 1.335 . S
N1531 C1534 1.390 . S
N1532 C1533 1.345 . S
N1532 C1535 1.336 . S
C1533 N1531 1.335 . S
C1533 N1532 1.345 . S
C1533 H1538 0.930 . S
C1534 N1531 1.390 . S
C1534 C1535 1.346 . S
C1534 H1539 0.930 . S
C1535 N1532 1.336 . S
C1535 C1534 1.346 . S
C1535 H1542 0.929 . S
C1536 O1526 1.282 . S
C1536 O1537 1.216 . S
O1537 C1536 1.216 . S
H1538 C1533 0.930 . S
H1539 C1534 0.930 . S
O1540 Cu1520 1.959 . S
O1540 C1527 1.251 . S
H1541 C1524 0.930 . S
H1542 C1535 0.929 . S
Cu1543 N1544 1.999 . S
Cu1543 O1549 1.974 . S
Cu1543 N1554 1.985 . S
Cu1543 O1563 1.959 . S
N1544 Cu1543 1.999 . S
N1544 C1546 1.263 . S
N1544 C1548 1.389 . S
N1545 C1546 1.358 . S
N1545 C1547 1.400 . S
C1546 N1544 1.263 . S
C1546 N1545 1.358 . S
C1546 H1552 0.930 . S
C1547 N1545 1.400 . S
C1547 C1548 1.351 . S
C1547 H1564 0.930 . S
C1548 N1544 1.389 . S
C1548 C1547 1.351 . S
C1548 H1553 0.930 . S
O1549 Cu1543 1.974 . S
O1549 C1559 1.282 . S
C1550 O1551 1.261 . S
C1550 O1563 1.251 . S
O1551 C1550 1.261 . S
H1552 C1546 0.930 . S
H1553 C1548 0.930 . S
N1554 Cu1543 1.985 . S
N1554 C1556 1.335 . S
N1554 C1557 1.390 . S
N1555 C1556 1.345 . S
N1555 C1558 1.336 . S
C1556 N1554 1.335 . S
C1556 N1555 1.345 . S
C1556 H1561 0.930 . S
C1557 N1554 1.390 . S
C1557 C1558 1.346 . S
C1557 H1562 0.930 . S
C1558 N1555 1.336 . S
C1558 C1557 1.346 . S
C1558 H1565 0.929 . S
C1559 O1549 1.282 . S
C1559 O1560 1.216 . S
O1560 C1559 1.216 . S
H1561 C1556 0.930 . S
H1562 C1557 0.930 . S
O1563 Cu1543 1.959 . S
O1563 C1550 1.251 . S
H1564 C1547 0.930 . S
H1565 C1558 0.929 . S
Cu1566 N1567 1.999 . S
Cu1566 O1572 1.974 . S
Cu1566 N1577 1.985 . S
Cu1566 O1586 1.959 . S
N1567 Cu1566 1.999 . S
N1567 C1569 1.263 . S
N1567 C1571 1.389 . S
N1568 C1569 1.358 . S
N1568 C1570 1.400 . S
C1569 N1567 1.263 . S
C1569 N1568 1.358 . S
C1569 H1575 0.930 . S
C1570 N1568 1.400 . S
C1570 C1571 1.351 . S
C1570 H1587 0.930 . S
C1571 N1567 1.389 . S
C1571 C1570 1.351 . S
C1571 H1576 0.930 . S
O1572 Cu1566 1.974 . S
O1572 C1582 1.282 . S
C1573 O1574 1.261 . S
C1573 O1586 1.251 . S
O1574 C1573 1.261 . S
H1575 C1569 0.930 . S
H1576 C1571 0.930 . S
N1577 Cu1566 1.985 . S
N1577 C1579 1.335 . S
N1577 C1580 1.390 . S
N1578 C1579 1.345 . S
N1578 C1581 1.336 . S
C1579 N1577 1.335 . S
C1579 N1578 1.345 . S
C1579 H1584 0.930 . S
C1580 N1577 1.390 . S
C1580 C1581 1.346 . S
C1580 H1585 0.930 . S
C1581 N1578 1.336 . S
C1581 C1580 1.346 . S
C1581 H1588 0.929 . S
C1582 O1572 1.282 . S
C1582 O1583 1.216 . S
O1583 C1582 1.216 . S
H1584 C1579 0.930 . S
H1585 C1580 0.930 . S
O1586 Cu1566 1.959 . S
O1586 C1573 1.251 . S
H1587 C1570 0.930 . S
H1588 C1581 0.929 . S
Cu1589 N1590 1.999 . S
Cu1589 O1595 1.974 . S
Cu1589 N1600 1.985 . S
Cu1589 O1609 1.959 . S
N1590 Cu1589 1.999 . S
N1590 C1592 1.263 . S
N1590 C1594 1.389 . S
N1591 C1592 1.358 . S
N1591 C1593 1.400 . S
C1592 N1590 1.263 . S
C1592 N1591 1.358 . S
C1592 H1598 0.930 . S
C1593 N1591 1.400 . S
C1593 C1594 1.351 . S
C1593 H1610 0.930 . S
C1594 N1590 1.389 . S
C1594 C1593 1.351 . S
C1594 H1599 0.930 . S
O1595 Cu1589 1.974 . S
O1595 C1605 1.282 . S
C1596 O1597 1.261 . S
C1596 O1609 1.251 . S
O1597 C1596 1.261 . S
H1598 C1592 0.930 . S
H1599 C1594 0.930 . S
N1600 Cu1589 1.985 . S
N1600 C1602 1.335 . S
N1600 C1603 1.390 . S
N1601 C1602 1.345 . S
N1601 C1604 1.336 . S
C1602 N1600 1.335 . S
C1602 N1601 1.345 . S
C1602 H1607 0.930 . S
C1603 N1600 1.390 . S
C1603 C1604 1.346 . S
C1603 H1608 0.930 . S
C1604 N1601 1.336 . S
C1604 C1603 1.346 . S
C1604 H1611 0.929 . S
C1605 O1595 1.282 . S
C1605 O1606 1.216 . S
O1606 C1605 1.216 . S
H1607 C1602 0.930 . S
H1608 C1603 0.930 . S
O1609 Cu1589 1.959 . S
O1609 C1596 1.251 . S
H1610 C1593 0.930 . S
H1611 C1604 0.929 . S
Cu1612 N1613 1.999 . S
Cu1612 O1618 1.974 . S
Cu1612 N1623 1.985 . S
Cu1612 O1632 1.959 . S
N1613 Cu1612 1.999 . S
N1613 C1615 1.263 . S
N1613 C1617 1.389 . S
N1614 C1615 1.358 . S
N1614 C1616 1.400 . S
C1615 N1613 1.263 . S
C1615 N1614 1.358 . S
C1615 H1621 0.930 . S
C1616 N1614 1.400 . S
C1616 C1617 1.351 . S
C1616 H1633 0.930 . S
C1617 N1613 1.389 . S
C1617 C1616 1.351 . S
C1617 H1622 0.930 . S
O1618 Cu1612 1.974 . S
O1618 C1628 1.282 . S
C1619 O1620 1.261 . S
C1619 O1632 1.251 . S
O1620 C1619 1.261 . S
H1621 C1615 0.930 . S
H1622 C1617 0.930 . S
N1623 Cu1612 1.985 . S
N1623 C1625 1.335 . S
N1623 C1626 1.390 . S
N1624 C1625 1.345 . S
N1624 C1627 1.336 . S
C1625 N1623 1.335 . S
C1625 N1624 1.345 . S
C1625 H1630 0.930 . S
C1626 N1623 1.390 . S
C1626 C1627 1.346 . S
C1626 H1631 0.930 . S
C1627 N1624 1.336 . S
C1627 C1626 1.346 . S
C1627 H1634 0.929 . S
C1628 O1618 1.282 . S
C1628 O1629 1.216 . S
O1629 C1628 1.216 . S
H1630 C1625 0.930 . S
H1631 C1626 0.930 . S
O1632 Cu1612 1.959 . S
O1632 C1619 1.251 . S
H1633 C1616 0.930 . S
H1634 C1627 0.929 . S
Cu1635 N1636 1.999 . S
Cu1635 O1641 1.974 . S
Cu1635 N1646 1.985 . S
Cu1635 O1655 1.959 . S
N1636 Cu1635 1.999 . S
N1636 C1638 1.263 . S
N1636 C1640 1.389 . S
N1637 C1638 1.358 . S
N1637 C1639 1.400 . S
C1638 N1636 1.263 . S
C1638 N1637 1.358 . S
C1638 H1644 0.930 . S
C1639 N1637 1.400 . S
C1639 C1640 1.351 . S
C1639 H1656 0.930 . S
C1640 N1636 1.389 . S
C1640 C1639 1.351 . S
C1640 H1645 0.930 . S
O1641 Cu1635 1.974 . S
O1641 C1651 1.282 . S
C1642 O1643 1.261 . S
C1642 O1655 1.251 . S
O1643 C1642 1.261 . S
H1644 C1638 0.930 . S
H1645 C1640 0.930 . S
N1646 Cu1635 1.985 . S
N1646 C1648 1.335 . S
N1646 C1649 1.390 . S
N1647 C1648 1.345 . S
N1647 C1650 1.336 . S
C1648 N1646 1.335 . S
C1648 N1647 1.345 . S
C1648 H1653 0.930 . S
C1649 N1646 1.390 . S
C1649 C1650 1.346 . S
C1649 H1654 0.930 . S
C1650 N1647 1.336 . S
C1650 C1649 1.346 . S
C1650 H1657 0.929 . S
C1651 O1641 1.282 . S
C1651 O1652 1.216 . S
O1652 C1651 1.216 . S
H1653 C1648 0.930 . S
H1654 C1649 0.930 . S
O1655 Cu1635 1.959 . S
O1655 C1642 1.251 . S
H1656 C1639 0.930 . S
H1657 C1650 0.929 . S
Cu1658 N1659 1.999 . S
Cu1658 O1664 1.974 . S
Cu1658 N1669 1.985 . S
Cu1658 O1678 1.959 . S
N1659 Cu1658 1.999 . S
N1659 C1661 1.263 . S
N1659 C1663 1.389 . S
N1660 C1661 1.358 . S
N1660 C1662 1.400 . S
C1661 N1659 1.263 . S
C1661 N1660 1.358 . S
C1661 H1667 0.930 . S
C1662 N1660 1.400 . S
C1662 C1663 1.351 . S
C1662 H1679 0.930 . S
C1663 N1659 1.389 . S
C1663 C1662 1.351 . S
C1663 H1668 0.930 . S
O1664 Cu1658 1.974 . S
O1664 C1674 1.282 . S
C1665 O1666 1.261 . S
C1665 O1678 1.251 . S
O1666 C1665 1.261 . S
H1667 C1661 0.930 . S
H1668 C1663 0.930 . S
N1669 Cu1658 1.985 . S
N1669 C1671 1.335 . S
N1669 C1672 1.390 . S
N1670 C1671 1.345 . S
N1670 C1673 1.336 . S
C1671 N1669 1.335 . S
C1671 N1670 1.345 . S
C1671 H1676 0.930 . S
C1672 N1669 1.390 . S
C1672 C1673 1.346 . S
C1672 H1677 0.930 . S
C1673 N1670 1.336 . S
C1673 C1672 1.346 . S
C1673 H1680 0.929 . S
C1674 O1664 1.282 . S
C1674 O1675 1.216 . S
O1675 C1674 1.216 . S
H1676 C1671 0.930 . S
H1677 C1672 0.930 . S
O1678 Cu1658 1.959 . S
O1678 C1665 1.251 . S
H1679 C1662 0.930 . S
H1680 C1673 0.929 . S
Cu1681 N1682 1.999 . S
Cu1681 O1687 1.974 . S
Cu1681 N1692 1.985 . S
Cu1681 O1701 1.959 . S
N1682 Cu1681 1.999 . S
N1682 C1684 1.263 . S
N1682 C1686 1.389 . S
N1683 C1684 1.358 . S
N1683 C1685 1.400 . S
C1684 N1682 1.263 . S
C1684 N1683 1.358 . S
C1684 H1690 0.930 . S
C1685 N1683 1.400 . S
C1685 C1686 1.351 . S
C1685 H1702 0.930 . S
C1686 N1682 1.389 . S
C1686 C1685 1.351 . S
C1686 H1691 0.930 . S
O1687 Cu1681 1.974 . S
O1687 C1697 1.282 . S
C1688 O1689 1.261 . S
C1688 O1701 1.251 . S
O1689 C1688 1.261 . S
H1690 C1684 0.930 . S
H1691 C1686 0.930 . S
N1692 Cu1681 1.985 . S
N1692 C1694 1.335 . S
N1692 C1695 1.390 . S
N1693 C1694 1.345 . S
N1693 C1696 1.336 . S
C1694 N1692 1.335 . S
C1694 N1693 1.345 . S
C1694 H1699 0.930 . S
C1695 N1692 1.390 . S
C1695 C1696 1.346 . S
C1695 H1700 0.930 . S
C1696 N1693 1.336 . S
C1696 C1695 1.346 . S
C1696 H1703 0.929 . S
C1697 O1687 1.282 . S
C1697 O1698 1.216 . S
O1698 C1697 1.216 . S
H1699 C1694 0.930 . S
H1700 C1695 0.930 . S
O1701 Cu1681 1.959 . S
O1701 C1688 1.251 . S
H1702 C1685 0.930 . S
H1703 C1696 0.929 . S
C1704 C1705 1.349 . S
C1704 C1706 1.327 . S
C1704 H1729 0.950 . S
C1705 C1704 1.349 . S
C1705 C1721 1.349 . S
C1706 C1704 1.327 . S
C1706 C1725 1.429 . S
C1706 H1730 0.950 . S
C1707 C1724 1.574 . S
C1707 C1726 1.368 . S
C1707 H1731 0.949 . S
H1708 C1712 0.949 . S
C1709 C1710 1.349 . S
C1709 C1711 1.327 . S
C1709 H1732 0.950 . S
C1710 C1709 1.349 . S
C1710 C1722 1.349 . S
C1711 C1709 1.327 . S
C1711 C1727 1.429 . S
C1711 H1733 0.950 . S
C1712 H1708 0.949 . S
C1712 C1720 1.574 . S
C1712 C1728 1.368 . S
H1713 C1721 0.950 . S
H1714 C1719 0.950 . S
H1715 C1720 0.949 . S
H1716 C1722 0.950 . S
H1717 C1723 0.950 . S
H1718 C1724 0.949 . S
C1719 H1714 0.950 . S
C1719 C1721 1.327 . S
C1719 C1725 1.429 . S
C1720 C1712 1.574 . S
C1720 H1715 0.949 . S
C1720 C1726 1.368 . S
C1721 C1705 1.349 . S
C1721 H1713 0.950 . S
C1721 C1719 1.327 . S
C1722 C1710 1.349 . S
C1722 H1716 0.950 . S
C1722 C1723 1.327 . S
C1723 H1717 0.950 . S
C1723 C1722 1.327 . S
C1723 C1727 1.429 . S
C1724 C1707 1.574 . S
C1724 H1718 0.949 . S
C1724 C1728 1.368 . S
C1725 C1706 1.429 . S
C1725 C1719 1.429 . S
C1725 C1726 1.523 . S
C1726 C1707 1.368 . S
C1726 C1720 1.368 . S
C1726 C1725 1.523 . S
C1727 C1711 1.429 . S
C1727 C1723 1.429 . S
C1727 C1728 1.523 . S
C1728 C1712 1.368 . S
C1728 C1724 1.368 . S
C1728 C1727 1.523 . S
H1729 C1704 0.950 . S
H1730 C1706 0.950 . S
H1731 C1707 0.949 . S
H1732 C1709 0.950 . S
H1733 C1711 0.950 . S
C1734 C1735 1.349 . S
C1734 C1736 1.327 . S
C1734 H1759 0.950 . S
C1735 C1734 1.349 . S
C1735 C1751 1.349 . S
C1736 C1734 1.327 . S
C1736 C1755 1.429 . S
C1736 H1760 0.950 . S
C1737 C1754 1.574 . S
C1737 C1756 1.368 . S
C1737 H1761 0.949 . S
H1738 C1742 0.949 . S
C1739 C1740 1.349 . S
C1739 C1741 1.327 . S
C1739 H1762 0.950 . S
C1740 C1739 1.349 . S
C1740 C1752 1.349 . S
C1741 C1739 1.327 . S
C1741 C1757 1.429 . S
C1741 H1763 0.950 . S
C1742 H1738 0.949 . S
C1742 C1750 1.574 . S
C1742 C1758 1.368 . S
H1743 C1751 0.950 . S
H1744 C1749 0.950 . S
H1745 C1750 0.949 . S
H1746 C1752 0.950 . S
H1747 C1753 0.950 . S
H1748 C1754 0.949 . S
C1749 H1744 0.950 . S
C1749 C1751 1.327 . S
C1749 C1755 1.429 . S
C1750 C1742 1.574 . S
C1750 H1745 0.949 . S
C1750 C1756 1.368 . S
C1751 C1735 1.349 . S
C1751 H1743 0.950 . S
C1751 C1749 1.327 . S
C1752 C1740 1.349 . S
C1752 H1746 0.950 . S
C1752 C1753 1.327 . S
C1753 H1747 0.950 . S
C1753 C1752 1.327 . S
C1753 C1757 1.429 . S
C1754 C1737 1.574 . S
C1754 H1748 0.949 . S
C1754 C1758 1.368 . S
C1755 C1736 1.429 . S
C1755 C1749 1.429 . S
C1755 C1756 1.523 . S
C1756 C1737 1.368 . S
C1756 C1750 1.368 . S
C1756 C1755 1.523 . S
C1757 C1741 1.429 . S
C1757 C1753 1.429 . S
C1757 C1758 1.523 . S
C1758 C1742 1.368 . S
C1758 C1754 1.368 . S
C1758 C1757 1.523 . S
H1759 C1734 0.950 . S
H1760 C1736 0.950 . S
H1761 C1737 0.949 . S
H1762 C1739 0.950 . S
H1763 C1741 0.950 . S
C1764 C1765 1.349 . S
C1764 C1766 1.327 . S
C1764 H1789 0.950 . S
C1765 C1764 1.349 . S
C1765 C1781 1.349 . S
C1766 C1764 1.327 . S
C1766 C1785 1.429 . S
C1766 H1790 0.950 . S
C1767 C1784 1.574 . S
C1767 C1786 1.368 . S
C1767 H1791 0.949 . S
H1768 C1772 0.949 . S
C1769 C1770 1.349 . S
C1769 C1771 1.327 . S
C1769 H1792 0.950 . S
C1770 C1769 1.349 . S
C1770 C1782 1.349 . S
C1771 C1769 1.327 . S
C1771 C1787 1.429 . S
C1771 H1793 0.950 . S
C1772 H1768 0.949 . S
C1772 C1780 1.574 . S
C1772 C1788 1.368 . S
H1773 C1781 0.950 . S
H1774 C1779 0.950 . S
H1775 C1780 0.949 . S
H1776 C1782 0.950 . S
H1777 C1783 0.950 . S
H1778 C1784 0.949 . S
C1779 H1774 0.950 . S
C1779 C1781 1.327 . S
C1779 C1785 1.429 . S
C1780 C1772 1.574 . S
C1780 H1775 0.949 . S
C1780 C1786 1.368 . S
C1781 C1765 1.349 . S
C1781 H1773 0.950 . S
C1781 C1779 1.327 . S
C1782 C1770 1.349 . S
C1782 H1776 0.950 . S
C1782 C1783 1.327 . S
C1783 H1777 0.950 . S
C1783 C1782 1.327 . S
C1783 C1787 1.429 . S
C1784 C1767 1.574 . S
C1784 H1778 0.949 . S
C1784 C1788 1.368 . S
C1785 C1766 1.429 . S
C1785 C1779 1.429 . S
C1785 C1786 1.523 . S
C1786 C1767 1.368 . S
C1786 C1780 1.368 . S
C1786 C1785 1.523 . S
C1787 C1771 1.429 . S
C1787 C1783 1.429 . S
C1787 C1788 1.523 . S
C1788 C1772 1.368 . S
C1788 C1784 1.368 . S
C1788 C1787 1.523 . S
H1789 C1764 0.950 . S
H1790 C1766 0.950 . S
H1791 C1767 0.949 . S
H1792 C1769 0.950 . S
H1793 C1771 0.950 . S
C1794 C1795 1.349 . S
C1794 C1796 1.327 . S
C1794 H1819 0.950 . S
C1795 C1794 1.349 . S
C1795 C1811 1.349 . S
C1796 C1794 1.327 . S
C1796 C1815 1.429 . S
C1796 H1820 0.950 . S
C1797 C1814 1.574 . S
C1797 C1816 1.368 . S
C1797 H1821 0.949 . S
H1798 C1802 0.949 . S
C1799 C1800 1.349 . S
C1799 C1801 1.327 . S
C1799 H1822 0.950 . S
C1800 C1799 1.349 . S
C1800 C1812 1.349 . S
C1801 C1799 1.327 . S
C1801 C1817 1.429 . S
C1801 H1823 0.950 . S
C1802 H1798 0.949 . S
C1802 C1810 1.574 . S
C1802 C1818 1.368 . S
H1803 C1811 0.950 . S
H1804 C1809 0.950 . S
H1805 C1810 0.949 . S
H1806 C1812 0.950 . S
H1807 C1813 0.950 . S
H1808 C1814 0.949 . S
C1809 H1804 0.950 . S
C1809 C1811 1.327 . S
C1809 C1815 1.429 . S
C1810 C1802 1.574 . S
C1810 H1805 0.949 . S
C1810 C1816 1.368 . S
C1811 C1795 1.349 . S
C1811 H1803 0.950 . S
C1811 C1809 1.327 . S
C1812 C1800 1.349 . S
C1812 H1806 0.950 . S
C1812 C1813 1.327 . S
C1813 H1807 0.950 . S
C1813 C1812 1.327 . S
C1813 C1817 1.429 . S
C1814 C1797 1.574 . S
C1814 H1808 0.949 . S
C1814 C1818 1.368 . S
C1815 C1796 1.429 . S
C1815 C1809 1.429 . S
C1815 C1816 1.523 . S
C1816 C1797 1.368 . S
C1816 C1810 1.368 . S
C1816 C1815 1.523 . S
C1817 C1801 1.429 . S
C1817 C1813 1.429 . S
C1817 C1818 1.523 . S
C1818 C1802 1.368 . S
C1818 C1814 1.368 . S
C1818 C1817 1.523 . S
H1819 C1794 0.950 . S
H1820 C1796 0.950 . S
H1821 C1797 0.949 . S
H1822 C1799 0.950 . S
H1823 C1801 0.950 . S
C1824 C1825 1.349 . S
C1824 C1826 1.327 . S
C1824 H1849 0.950 . S
C1825 C1824 1.349 . S
C1825 C1841 1.349 . S
C1826 C1824 1.327 . S
C1826 C1845 1.429 . S
C1826 H1850 0.950 . S
C1827 C1844 1.574 . S
C1827 C1846 1.368 . S
C1827 H1851 0.949 . S
H1828 C1832 0.949 . S
C1829 C1830 1.349 . S
C1829 C1831 1.327 . S
C1829 H1852 0.950 . S
C1830 C1829 1.349 . S
C1830 C1842 1.349 . S
C1831 C1829 1.327 . S
C1831 C1847 1.429 . S
C1831 H1853 0.950 . S
C1832 H1828 0.949 . S
C1832 C1840 1.574 . S
C1832 C1848 1.368 . S
H1833 C1841 0.950 . S
H1834 C1839 0.950 . S
H1835 C1840 0.949 . S
H1836 C1842 0.950 . S
H1837 C1843 0.950 . S
H1838 C1844 0.949 . S
C1839 H1834 0.950 . S
C1839 C1841 1.327 . S
C1839 C1845 1.429 . S
C1840 C1832 1.574 . S
C1840 H1835 0.949 . S
C1840 C1846 1.368 . S
C1841 C1825 1.349 . S
C1841 H1833 0.950 . S
C1841 C1839 1.327 . S
C1842 C1830 1.349 . S
C1842 H1836 0.950 . S
C1842 C1843 1.327 . S
C1843 H1837 0.950 . S
C1843 C1842 1.327 . S
C1843 C1847 1.429 . S
C1844 C1827 1.574 . S
C1844 H1838 0.949 . S
C1844 C1848 1.368 . S
C1845 C1826 1.429 . S
C1845 C1839 1.429 . S
C1845 C1846 1.523 . S
C1846 C1827 1.368 . S
C1846 C1840 1.368 . S
C1846 C1845 1.523 . S
C1847 C1831 1.429 . S
C1847 C1843 1.429 . S
C1847 C1848 1.523 . S
C1848 C1832 1.368 . S
C1848 C1844 1.368 . S
C1848 C1847 1.523 . S
H1849 C1824 0.950 . S
H1850 C1826 0.950 . S
H1851 C1827 0.949 . S
H1852 C1829 0.950 . S
H1853 C1831 0.950 . S
C1854 C1855 1.349 . S
C1854 C1856 1.327 . S
C1854 H1879 0.950 . S
C1855 C1854 1.349 . S
C1855 C1871 1.349 . S
C1856 C1854 1.327 . S
C1856 C1875 1.429 . S
C1856 H1880 0.950 . S
C1857 C1874 1.574 . S
C1857 C1876 1.368 . S
C1857 H1881 0.949 . S
H1858 C1862 0.949 . S
C1859 C1860 1.349 . S
C1859 C1861 1.327 . S
C1859 H1882 0.950 . S
C1860 C1859 1.349 . S
C1860 C1872 1.349 . S
C1861 C1859 1.327 . S
C1861 C1877 1.429 . S
C1861 H1883 0.950 . S
C1862 H1858 0.949 . S
C1862 C1870 1.574 . S
C1862 C1878 1.368 . S
H1863 C1871 0.950 . S
H1864 C1869 0.950 . S
H1865 C1870 0.949 . S
H1866 C1872 0.950 . S
H1867 C1873 0.950 . S
H1868 C1874 0.949 . S
C1869 H1864 0.950 . S
C1869 C1871 1.327 . S
C1869 C1875 1.429 . S
C1870 C1862 1.574 . S
C1870 H1865 0.949 . S
C1870 C1876 1.368 . S
C1871 C1855 1.349 . S
C1871 H1863 0.950 . S
C1871 C1869 1.327 . S
C1872 C1860 1.349 . S
C1872 H1866 0.950 . S
C1872 C1873 1.327 . S
C1873 H1867 0.950 . S
C1873 C1872 1.327 . S
C1873 C1877 1.429 . S
C1874 C1857 1.574 . S
C1874 H1868 0.949 . S
C1874 C1878 1.368 . S
C1875 C1856 1.429 . S
C1875 C1869 1.429 . S
C1875 C1876 1.523 . S
C1876 C1857 1.368 . S
C1876 C1870 1.368 . S
C1876 C1875 1.523 . S
C1877 C1861 1.429 . S
C1877 C1873 1.429 . S
C1877 C1878 1.523 . S
C1878 C1862 1.368 . S
C1878 C1874 1.368 . S
C1878 C1877 1.523 . S
H1879 C1854 0.950 . S
H1880 C1856 0.950 . S
H1881 C1857 0.949 . S
H1882 C1859 0.950 . S
H1883 C1861 0.950 . S
C1884 C1885 1.349 . S
C1884 C1886 1.327 . S
C1884 H1909 0.950 . S
C1885 C1884 1.349 . S
C1885 C1901 1.349 . S
C1886 C1884 1.327 . S
C1886 C1905 1.429 . S
C1886 H1910 0.950 . S
C1887 C1904 1.574 . S
C1887 C1906 1.368 . S
C1887 H1911 0.949 . S
H1888 C1892 0.949 . S
C1889 C1890 1.349 . S
C1889 C1891 1.327 . S
C1889 H1912 0.950 . S
C1890 C1889 1.349 . S
C1890 C1902 1.349 . S
C1891 C1889 1.327 . S
C1891 C1907 1.429 . S
C1891 H1913 0.950 . S
C1892 H1888 0.949 . S
C1892 C1900 1.574 . S
C1892 C1908 1.368 . S
H1893 C1901 0.950 . S
H1894 C1899 0.950 . S
H1895 C1900 0.949 . S
H1896 C1902 0.950 . S
H1897 C1903 0.950 . S
H1898 C1904 0.949 . S
C1899 H1894 0.950 . S
C1899 C1901 1.327 . S
C1899 C1905 1.429 . S
C1900 C1892 1.574 . S
C1900 H1895 0.949 . S
C1900 C1906 1.368 . S
C1901 C1885 1.349 . S
C1901 H1893 0.950 . S
C1901 C1899 1.327 . S
C1902 C1890 1.349 . S
C1902 H1896 0.950 . S
C1902 C1903 1.327 . S
C1903 H1897 0.950 . S
C1903 C1902 1.327 . S
C1903 C1907 1.429 . S
C1904 C1887 1.574 . S
C1904 H1898 0.949 . S
C1904 C1908 1.368 . S
C1905 C1886 1.429 . S
C1905 C1899 1.429 . S
C1905 C1906 1.523 . S
C1906 C1887 1.368 . S
C1906 C1900 1.368 . S
C1906 C1905 1.523 . S
C1907 C1891 1.429 . S
C1907 C1903 1.429 . S
C1907 C1908 1.523 . S
C1908 C1892 1.368 . S
C1908 C1904 1.368 . S
C1908 C1907 1.523 . S
H1909 C1884 0.950 . S
H1910 C1886 0.950 . S
H1911 C1887 0.949 . S
H1912 C1889 0.950 . S
H1913 C1891 0.950 . S
C1914 C1915 1.349 . S
C1914 C1916 1.327 . S
C1914 H1939 0.950 . S
C1915 C1914 1.349 . S
C1915 C1931 1.349 . S
C1916 C1914 1.327 . S
C1916 C1935 1.429 . S
C1916 H1940 0.950 . S
C1917 C1934 1.574 . S
C1917 C1936 1.368 . S
C1917 H1941 0.949 . S
H1918 C1922 0.949 . S
C1919 C1920 1.349 . S
C1919 C1921 1.327 . S
C1919 H1942 0.950 . S
C1920 C1919 1.349 . S
C1920 C1932 1.349 . S
C1921 C1919 1.327 . S
C1921 C1937 1.429 . S
C1921 H1943 0.950 . S
C1922 H1918 0.949 . S
C1922 C1930 1.574 . S
C1922 C1938 1.368 . S
H1923 C1931 0.950 . S
H1924 C1929 0.950 . S
H1925 C1930 0.949 . S
H1926 C1932 0.950 . S
H1927 C1933 0.950 . S
H1928 C1934 0.949 . S
C1929 H1924 0.950 . S
C1929 C1931 1.327 . S
C1929 C1935 1.429 . S
C1930 C1922 1.574 . S
C1930 H1925 0.949 . S
C1930 C1936 1.368 . S
C1931 C1915 1.349 . S
C1931 H1923 0.950 . S
C1931 C1929 1.327 . S
C1932 C1920 1.349 . S
C1932 H1926 0.950 . S
C1932 C1933 1.327 . S
C1933 H1927 0.950 . S
C1933 C1932 1.327 . S
C1933 C1937 1.429 . S
C1934 C1917 1.574 . S
C1934 H1928 0.949 . S
C1934 C1938 1.368 . S
C1935 C1916 1.429 . S
C1935 C1929 1.429 . S
C1935 C1936 1.523 . S
C1936 C1917 1.368 . S
C1936 C1930 1.368 . S
C1936 C1935 1.523 . S
C1937 C1921 1.429 . S
C1937 C1933 1.429 . S
C1937 C1938 1.523 . S
C1938 C1922 1.368 . S
C1938 C1934 1.368 . S
C1938 C1937 1.523 . S
H1939 C1914 0.950 . S
H1940 C1916 0.950 . S
H1941 C1917 0.949 . S
H1942 C1919 0.950 . S
H1943 C1921 0.950 . S
C1944 C1945 1.349 . S
C1944 C1946 1.327 . S
C1944 H1969 0.950 . S
C1945 C1944 1.349 . S
C1945 C1961 1.349 . S
C1946 C1944 1.327 . S
C1946 C1965 1.429 . S
C1946 H1970 0.950 . S
C1947 C1964 1.574 . S
C1947 C1966 1.368 . S
C1947 H1971 0.949 . S
H1948 C1952 0.949 . S
C1949 C1950 1.349 . S
C1949 C1951 1.327 . S
C1949 H1972 0.950 . S
C1950 C1949 1.349 . S
C1950 C1962 1.349 . S
C1951 C1949 1.327 . S
C1951 C1967 1.429 . S
C1951 H1973 0.950 . S
C1952 H1948 0.949 . S
C1952 C1960 1.574 . S
C1952 C1968 1.368 . S
H1953 C1961 0.950 . S
H1954 C1959 0.950 . S
H1955 C1960 0.949 . S
H1956 C1962 0.950 . S
H1957 C1963 0.950 . S
H1958 C1964 0.949 . S
C1959 H1954 0.950 . S
C1959 C1961 1.327 . S
C1959 C1965 1.429 . S
C1960 C1952 1.574 . S
C1960 H1955 0.949 . S
C1960 C1966 1.368 . S
C1961 C1945 1.349 . S
C1961 H1953 0.950 . S
C1961 C1959 1.327 . S
C1962 C1950 1.349 . S
C1962 H1956 0.950 . S
C1962 C1963 1.327 . S
C1963 H1957 0.950 . S
C1963 C1962 1.327 . S
C1963 C1967 1.429 . S
C1964 C1947 1.574 . S
C1964 H1958 0.949 . S
C1964 C1968 1.368 . S
C1965 C1946 1.429 . S
C1965 C1959 1.429 . S
C1965 C1966 1.523 . S
C1966 C1947 1.368 . S
C1966 C1960 1.368 . S
C1966 C1965 1.523 . S
C1967 C1951 1.429 . S
C1967 C1963 1.429 . S
C1967 C1968 1.523 . S
C1968 C1952 1.368 . S
C1968 C1964 1.368 . S
C1968 C1967 1.523 . S
H1969 C1944 0.950 . S
H1970 C1946 0.950 . S
H1971 C1947 0.949 . S
H1972 C1949 0.950 . S
H1973 C1951 0.950 . S
C1974 C1975 1.349 . S
C1974 C1976 1.327 . S
C1974 H1999 0.950 . S
C1975 C1974 1.349 . S
C1975 C1991 1.349 . S
C1976 C1974 1.327 . S
C1976 C1995 1.429 . S
C1976 H2000 0.950 . S
C1977 C1994 1.574 . S
C1977 C1996 1.368 . S
C1977 H2001 0.949 . S
H1978 C1982 0.949 . S
C1979 C1980 1.349 . S
C1979 C1981 1.327 . S
C1979 H2002 0.950 . S
C1980 C1979 1.349 . S
C1980 C1992 1.349 . S
C1981 C1979 1.327 . S
C1981 C1997 1.429 . S
C1981 H2003 0.950 . S
C1982 H1978 0.949 . S
C1982 C1990 1.574 . S
C1982 C1998 1.368 . S
H1983 C1991 0.950 . S
H1984 C1989 0.950 . S
H1985 C1990 0.949 . S
H1986 C1992 0.950 . S
H1987 C1993 0.950 . S
H1988 C1994 0.949 . S
C1989 H1984 0.950 . S
C1989 C1991 1.327 . S
C1989 C1995 1.429 . S
C1990 C1982 1.574 . S
C1990 H1985 0.949 . S
C1990 C1996 1.368 . S
C1991 C1975 1.349 . S
C1991 H1983 0.950 . S
C1991 C1989 1.327 . S
C1992 C1980 1.349 . S
C1992 H1986 0.950 . S
C1992 C1993 1.327 . S
C1993 H1987 0.950 . S
C1993 C1992 1.327 . S
C1993 C1997 1.429 . S
C1994 C1977 1.574 . S
C1994 H1988 0.949 . S
C1994 C1998 1.368 . S
C1995 C1976 1.429 . S
C1995 C1989 1.429 . S
C1995 C1996 1.523 . S
C1996 C1977 1.368 . S
C1996 C1990 1.368 . S
C1996 C1995 1.523 . S
C1997 C1981 1.429 . S
C1997 C1993 1.429 . S
C1997 C1998 1.523 . S
C1998 C1982 1.368 . S
C1998 C1994 1.368 . S
C1998 C1997 1.523 . S
H1999 C1974 0.950 . S
H2000 C1976 0.950 . S
H2001 C1977 0.949 . S
H2002 C1979 0.950 . S
H2003 C1981 0.950 . S
C2004 C2005 1.349 . S
C2004 C2006 1.327 . S
C2004 H2029 0.950 . S
C2005 C2004 1.349 . S
C2005 C2021 1.349 . S
C2006 C2004 1.327 . S
C2006 C2025 1.429 . S
C2006 H2030 0.950 . S
C2007 C2024 1.574 . S
C2007 C2026 1.368 . S
C2007 H2031 0.949 . S
H2008 C2012 0.949 . S
C2009 C2010 1.349 . S
C2009 C2011 1.327 . S
C2009 H2032 0.950 . S
C2010 C2009 1.349 . S
C2010 C2022 1.349 . S
C2011 C2009 1.327 . S
C2011 C2027 1.429 . S
C2011 H2033 0.950 . S
C2012 H2008 0.949 . S
C2012 C2020 1.574 . S
C2012 C2028 1.368 . S
H2013 C2021 0.950 . S
H2014 C2019 0.950 . S
H2015 C2020 0.949 . S
H2016 C2022 0.950 . S
H2017 C2023 0.950 . S
H2018 C2024 0.949 . S
C2019 H2014 0.950 . S
C2019 C2021 1.327 . S
C2019 C2025 1.429 . S
C2020 C2012 1.574 . S
C2020 H2015 0.949 . S
C2020 C2026 1.368 . S
C2021 C2005 1.349 . S
C2021 H2013 0.950 . S
C2021 C2019 1.327 . S
C2022 C2010 1.349 . S
C2022 H2016 0.950 . S
C2022 C2023 1.327 . S
C2023 H2017 0.950 . S
C2023 C2022 1.327 . S
C2023 C2027 1.429 . S
C2024 C2007 1.574 . S
C2024 H2018 0.949 . S
C2024 C2028 1.368 . S
C2025 C2006 1.429 . S
C2025 C2019 1.429 . S
C2025 C2026 1.523 . S
C2026 C2007 1.368 . S
C2026 C2020 1.368 . S
C2026 C2025 1.523 . S
C2027 C2011 1.429 . S
C2027 C2023 1.429 . S
C2027 C2028 1.523 . S
C2028 C2012 1.368 . S
C2028 C2024 1.368 . S
C2028 C2027 1.523 . S
H2029 C2004 0.950 . S
H2030 C2006 0.950 . S
H2031 C2007 0.949 . S
H2032 C2009 0.950 . S
H2033 C2011 0.950 . S
C2034 C2035 1.349 . S
C2034 C2036 1.327 . S
C2034 H2059 0.950 . S
C2035 C2034 1.349 . S
C2035 C2051 1.349 . S
C2036 C2034 1.327 . S
C2036 C2055 1.429 . S
C2036 H2060 0.950 . S
C2037 C2054 1.574 . S
C2037 C2056 1.368 . S
C2037 H2061 0.949 . S
H2038 C2042 0.949 . S
C2039 C2040 1.349 . S
C2039 C2041 1.327 . S
C2039 H2062 0.950 . S
C2040 C2039 1.349 . S
C2040 C2052 1.349 . S
C2041 C2039 1.327 . S
C2041 C2057 1.429 . S
C2041 H2063 0.950 . S
C2042 H2038 0.949 . S
C2042 C2050 1.574 . S
C2042 C2058 1.368 . S
H2043 C2051 0.950 . S
H2044 C2049 0.950 . S
H2045 C2050 0.949 . S
H2046 C2052 0.950 . S
H2047 C2053 0.950 . S
H2048 C2054 0.949 . S
C2049 H2044 0.950 . S
C2049 C2051 1.327 . S
C2049 C2055 1.429 . S
C2050 C2042 1.574 . S
C2050 H2045 0.949 . S
C2050 C2056 1.368 . S
C2051 C2035 1.349 . S
C2051 H2043 0.950 . S
C2051 C2049 1.327 . S
C2052 C2040 1.349 . S
C2052 H2046 0.950 . S
C2052 C2053 1.327 . S
C2053 H2047 0.950 . S
C2053 C2052 1.327 . S
C2053 C2057 1.429 . S
C2054 C2037 1.574 . S
C2054 H2048 0.949 . S
C2054 C2058 1.368 . S
C2055 C2036 1.429 . S
C2055 C2049 1.429 . S
C2055 C2056 1.523 . S
C2056 C2037 1.368 . S
C2056 C2050 1.368 . S
C2056 C2055 1.523 . S
C2057 C2041 1.429 . S
C2057 C2053 1.429 . S
C2057 C2058 1.523 . S
C2058 C2042 1.368 . S
C2058 C2054 1.368 . S
C2058 C2057 1.523 . S
H2059 C2034 0.950 . S
H2060 C2036 0.950 . S
H2061 C2037 0.949 . S
H2062 C2039 0.950 . S
H2063 C2041 0.950 . S
C2064 C2065 1.349 . S
C2064 C2066 1.327 . S
C2064 H2089 0.950 . S
C2065 C2064 1.349 . S
C2065 C2081 1.349 . S
C2066 C2064 1.327 . S
C2066 C2085 1.429 . S
C2066 H2090 0.950 . S
C2067 C2084 1.574 . S
C2067 C2086 1.368 . S
C2067 H2091 0.949 . S
H2068 C2072 0.949 . S
C2069 C2070 1.349 . S
C2069 C2071 1.327 . S
C2069 H2092 0.950 . S
C2070 C2069 1.349 . S
C2070 C2082 1.349 . S
C2071 C2069 1.327 . S
C2071 C2087 1.429 . S
C2071 H2093 0.950 . S
C2072 H2068 0.949 . S
C2072 C2080 1.574 . S
C2072 C2088 1.368 . S
H2073 C2081 0.950 . S
H2074 C2079 0.950 . S
H2075 C2080 0.949 . S
H2076 C2082 0.950 . S
H2077 C2083 0.950 . S
H2078 C2084 0.949 . S
C2079 H2074 0.950 . S
C2079 C2081 1.327 . S
C2079 C2085 1.429 . S
C2080 C2072 1.574 . S
C2080 H2075 0.949 . S
C2080 C2086 1.368 . S
C2081 C2065 1.349 . S
C2081 H2073 0.950 . S
C2081 C2079 1.327 . S
C2082 C2070 1.349 . S
C2082 H2076 0.950 . S
C2082 C2083 1.327 . S
C2083 H2077 0.950 . S
C2083 C2082 1.327 . S
C2083 C2087 1.429 . S
C2084 C2067 1.574 . S
C2084 H2078 0.949 . S
C2084 C2088 1.368 . S
C2085 C2066 1.429 . S
C2085 C2079 1.429 . S
C2085 C2086 1.523 . S
C2086 C2067 1.368 . S
C2086 C2080 1.368 . S
C2086 C2085 1.523 . S
C2087 C2071 1.429 . S
C2087 C2083 1.429 . S
C2087 C2088 1.523 . S
C2088 C2072 1.368 . S
C2088 C2084 1.368 . S
C2088 C2087 1.523 . S
H2089 C2064 0.950 . S
H2090 C2066 0.950 . S
H2091 C2067 0.949 . S
H2092 C2069 0.950 . S
H2093 C2071 0.950 . S
C2094 C2095 1.349 . S
C2094 C2096 1.327 . S
C2094 H2119 0.950 . S
C2095 C2094 1.349 . S
C2095 C2111 1.349 . S
C2096 C2094 1.327 . S
C2096 C2115 1.429 . S
C2096 H2120 0.950 . S
C2097 C2114 1.574 . S
C2097 C2116 1.368 . S
C2097 H2121 0.949 . S
H2098 C2102 0.949 . S
C2099 C2100 1.349 . S
C2099 C2101 1.327 . S
C2099 H2122 0.950 . S
C2100 C2099 1.349 . S
C2100 C2112 1.349 . S
C2101 C2099 1.327 . S
C2101 C2117 1.429 . S
C2101 H2123 0.950 . S
C2102 H2098 0.949 . S
C2102 C2110 1.574 . S
C2102 C2118 1.368 . S
H2103 C2111 0.950 . S
H2104 C2109 0.950 . S
H2105 C2110 0.949 . S
H2106 C2112 0.950 . S
H2107 C2113 0.950 . S
H2108 C2114 0.949 . S
C2109 H2104 0.950 . S
C2109 C2111 1.327 . S
C2109 C2115 1.429 . S
C2110 C2102 1.574 . S
C2110 H2105 0.949 . S
C2110 C2116 1.368 . S
C2111 C2095 1.349 . S
C2111 H2103 0.950 . S
C2111 C2109 1.327 . S
C2112 C2100 1.349 . S
C2112 H2106 0.950 . S
C2112 C2113 1.327 . S
C2113 H2107 0.950 . S
C2113 C2112 1.327 . S
C2113 C2117 1.429 . S
C2114 C2097 1.574 . S
C2114 H2108 0.949 . S
C2114 C2118 1.368 . S
C2115 C2096 1.429 . S
C2115 C2109 1.429 . S
C2115 C2116 1.523 . S
C2116 C2097 1.368 . S
C2116 C2110 1.368 . S
C2116 C2115 1.523 . S
C2117 C2101 1.429 . S
C2117 C2113 1.429 . S
C2117 C2118 1.523 . S
C2118 C2102 1.368 . S
C2118 C2114 1.368 . S
C2118 C2117 1.523 . S
H2119 C2094 0.950 . S
H2120 C2096 0.950 . S
H2121 C2097 0.949 . S
H2122 C2099 0.950 . S
H2123 C2101 0.950 . S
C2124 C2125 1.349 . S
C2124 C2126 1.327 . S
C2124 H2149 0.950 . S
C2125 C2124 1.349 . S
C2125 C2141 1.349 . S
C2126 C2124 1.327 . S
C2126 C2145 1.429 . S
C2126 H2150 0.950 . S
C2127 C2144 1.574 . S
C2127 C2146 1.368 . S
C2127 H2151 0.949 . S
H2128 C2132 0.949 . S
C2129 C2130 1.349 . S
C2129 C2131 1.327 . S
C2129 H2152 0.950 . S
C2130 C2129 1.349 . S
C2130 C2142 1.349 . S
C2131 C2129 1.327 . S
C2131 C2147 1.429 . S
C2131 H2153 0.950 . S
C2132 H2128 0.949 . S
C2132 C2140 1.574 . S
C2132 C2148 1.368 . S
H2133 C2141 0.950 . S
H2134 C2139 0.950 . S
H2135 C2140 0.949 . S
H2136 C2142 0.950 . S
H2137 C2143 0.950 . S
H2138 C2144 0.949 . S
C2139 H2134 0.950 . S
C2139 C2141 1.327 . S
C2139 C2145 1.429 . S
C2140 C2132 1.574 . S
C2140 H2135 0.949 . S
C2140 C2146 1.368 . S
C2141 C2125 1.349 . S
C2141 H2133 0.950 . S
C2141 C2139 1.327 . S
C2142 C2130 1.349 . S
C2142 H2136 0.950 . S
C2142 C2143 1.327 . S
C2143 H2137 0.950 . S
C2143 C2142 1.327 . S
C2143 C2147 1.429 . S
C2144 C2127 1.574 . S
C2144 H2138 0.949 . S
C2144 C2148 1.368 . S
C2145 C2126 1.429 . S
C2145 C2139 1.429 . S
C2145 C2146 1.523 . S
C2146 C2127 1.368 . S
C2146 C2140 1.368 . S
C2146 C2145 1.523 . S
C2147 C2131 1.429 . S
C2147 C2143 1.429 . S
C2147 C2148 1.523 . S
C2148 C2132 1.368 . S
C2148 C2144 1.368 . S
C2148 C2147 1.523 . S
H2149 C2124 0.950 . S
H2150 C2126 0.950 . S
H2151 C2127 0.949 . S
H2152 C2129 0.950 . S
H2153 C2131 0.950 . S
C2154 C2155 1.349 . S
C2154 C2156 1.327 . S
C2154 H2179 0.950 . S
C2155 C2154 1.349 . S
C2155 C2171 1.349 . S
C2156 C2154 1.327 . S
C2156 C2175 1.429 . S
C2156 H2180 0.950 . S
C2157 C2174 1.574 . S
C2157 C2176 1.368 . S
C2157 H2181 0.949 . S
H2158 C2162 0.949 . S
C2159 C2160 1.349 . S
C2159 C2161 1.327 . S
C2159 H2182 0.950 . S
C2160 C2159 1.349 . S
C2160 C2172 1.349 . S
C2161 C2159 1.327 . S
C2161 C2177 1.429 . S
C2161 H2183 0.950 . S
C2162 H2158 0.949 . S
C2162 C2170 1.574 . S
C2162 C2178 1.368 . S
H2163 C2171 0.950 . S
H2164 C2169 0.950 . S
H2165 C2170 0.949 . S
H2166 C2172 0.950 . S
H2167 C2173 0.950 . S
H2168 C2174 0.949 . S
C2169 H2164 0.950 . S
C2169 C2171 1.327 . S
C2169 C2175 1.429 . S
C2170 C2162 1.574 . S
C2170 H2165 0.949 . S
C2170 C2176 1.368 . S
C2171 C2155 1.349 . S
C2171 H2163 0.950 . S
C2171 C2169 1.327 . S
C2172 C2160 1.349 . S
C2172 H2166 0.950 . S
C2172 C2173 1.327 . S
C2173 H2167 0.950 . S
C2173 C2172 1.327 . S
C2173 C2177 1.429 . S
C2174 C2157 1.574 . S
C2174 H2168 0.949 . S
C2174 C2178 1.368 . S
C2175 C2156 1.429 . S
C2175 C2169 1.429 . S
C2175 C2176 1.523 . S
C2176 C2157 1.368 . S
C2176 C2170 1.368 . S
C2176 C2175 1.523 . S
C2177 C2161 1.429 . S
C2177 C2173 1.429 . S
C2177 C2178 1.523 . S
C2178 C2162 1.368 . S
C2178 C2174 1.368 . S
C2178 C2177 1.523 . S
H2179 C2154 0.950 . S
H2180 C2156 0.950 . S
H2181 C2157 0.949 . S
H2182 C2159 0.950 . S
H2183 C2161 0.950 . S
C2184 C2185 1.349 . S
C2184 C2186 1.327 . S
C2184 H2209 0.950 . S
C2185 C2184 1.349 . S
C2185 C2201 1.349 . S
C2186 C2184 1.327 . S
C2186 C2205 1.429 . S
C2186 H2210 0.950 . S
C2187 C2204 1.574 . S
C2187 C2206 1.368 . S
C2187 H2211 0.949 . S
H2188 C2192 0.949 . S
C2189 C2190 1.349 . S
C2189 C2191 1.327 . S
C2189 H2212 0.950 . S
C2190 C2189 1.349 . S
C2190 C2202 1.349 . S
C2191 C2189 1.327 . S
C2191 C2207 1.429 . S
C2191 H2213 0.950 . S
C2192 H2188 0.949 . S
C2192 C2200 1.574 . S
C2192 C2208 1.368 . S
H2193 C2201 0.950 . S
H2194 C2199 0.950 . S
H2195 C2200 0.949 . S
H2196 C2202 0.950 . S
H2197 C2203 0.950 . S
H2198 C2204 0.949 . S
C2199 H2194 0.950 . S
C2199 C2201 1.327 . S
C2199 C2205 1.429 . S
C2200 C2192 1.574 . S
C2200 H2195 0.949 . S
C2200 C2206 1.368 . S
C2201 C2185 1.349 . S
C2201 H2193 0.950 . S
C2201 C2199 1.327 . S
C2202 C2190 1.349 . S
C2202 H2196 0.950 . S
C2202 C2203 1.327 . S
C2203 H2197 0.950 . S
C2203 C2202 1.327 . S
C2203 C2207 1.429 . S
C2204 C2187 1.574 . S
C2204 H2198 0.949 . S
C2204 C2208 1.368 . S
C2205 C2186 1.429 . S
C2205 C2199 1.429 . S
C2205 C2206 1.523 . S
C2206 C2187 1.368 . S
C2206 C2200 1.368 . S
C2206 C2205 1.523 . S
C2207 C2191 1.429 . S
C2207 C2203 1.429 . S
C2207 C2208 1.523 . S
C2208 C2192 1.368 . S
C2208 C2204 1.368 . S
C2208 C2207 1.523 . S
H2209 C2184 0.950 . S
H2210 C2186 0.950 . S
H2211 C2187 0.949 . S
H2212 C2189 0.950 . S
H2213 C2191 0.950 . S
C2214 C2215 1.349 . S
C2214 C2216 1.327 . S
C2214 H2239 0.950 . S
C2215 C2214 1.349 . S
C2215 C2231 1.349 . S
C2216 C2214 1.327 . S
C2216 C2235 1.429 . S
C2216 H2240 0.950 . S
C2217 C2234 1.574 . S
C2217 C2236 1.368 . S
C2217 H2241 0.949 . S
H2218 C2222 0.949 . S
C2219 C2220 1.349 . S
C2219 C2221 1.327 . S
C2219 H2242 0.950 . S
C2220 C2219 1.349 . S
C2220 C2232 1.349 . S
C2221 C2219 1.327 . S
C2221 C2237 1.429 . S
C2221 H2243 0.950 . S
C2222 H2218 0.949 . S
C2222 C2230 1.574 . S
C2222 C2238 1.368 . S
H2223 C2231 0.950 . S
H2224 C2229 0.950 . S
H2225 C2230 0.949 . S
H2226 C2232 0.950 . S
H2227 C2233 0.950 . S
H2228 C2234 0.949 . S
C2229 H2224 0.950 . S
C2229 C2231 1.327 . S
C2229 C2235 1.429 . S
C2230 C2222 1.574 . S
C2230 H2225 0.949 . S
C2230 C2236 1.368 . S
C2231 C2215 1.349 . S
C2231 H2223 0.950 . S
C2231 C2229 1.327 . S
C2232 C2220 1.349 . S
C2232 H2226 0.950 . S
C2232 C2233 1.327 . S
C2233 H2227 0.950 . S
C2233 C2232 1.327 . S
C2233 C2237 1.429 . S
C2234 C2217 1.574 . S
C2234 H2228 0.949 . S
C2234 C2238 1.368 . S
C2235 C2216 1.429 . S
C2235 C2229 1.429 . S
C2235 C2236 1.523 . S
C2236 C2217 1.368 . S
C2236 C2230 1.368 . S
C2236 C2235 1.523 . S
C2237 C2221 1.429 . S
C2237 C2233 1.429 . S
C2237 C2238 1.523 . S
C2238 C2222 1.368 . S
C2238 C2234 1.368 . S
C2238 C2237 1.523 . S
H2239 C2214 0.950 . S
H2240 C2216 0.950 . S
H2241 C2217 0.949 . S
H2242 C2219 0.950 . S
H2243 C2221 0.950 . S
C2244 C2245 1.349 . S
C2244 C2246 1.327 . S
C2244 H2269 0.950 . S
C2245 C2244 1.349 . S
C2245 C2261 1.349 . S
C2246 C2244 1.327 . S
C2246 C2265 1.429 . S
C2246 H2270 0.950 . S
C2247 C2264 1.574 . S
C2247 C2266 1.368 . S
C2247 H2271 0.949 . S
H2248 C2252 0.949 . S
C2249 C2250 1.349 . S
C2249 C2251 1.327 . S
C2249 H2272 0.950 . S
C2250 C2249 1.349 . S
C2250 C2262 1.349 . S
C2251 C2249 1.327 . S
C2251 C2267 1.429 . S
C2251 H2273 0.950 . S
C2252 H2248 0.949 . S
C2252 C2260 1.574 . S
C2252 C2268 1.368 . S
H2253 C2261 0.950 . S
H2254 C2259 0.950 . S
H2255 C2260 0.949 . S
H2256 C2262 0.950 . S
H2257 C2263 0.950 . S
H2258 C2264 0.949 . S
C2259 H2254 0.950 . S
C2259 C2261 1.327 . S
C2259 C2265 1.429 . S
C2260 C2252 1.574 . S
C2260 H2255 0.949 . S
C2260 C2266 1.368 . S
C2261 C2245 1.349 . S
C2261 H2253 0.950 . S
C2261 C2259 1.327 . S
C2262 C2250 1.349 . S
C2262 H2256 0.950 . S
C2262 C2263 1.327 . S
C2263 H2257 0.950 . S
C2263 C2262 1.327 . S
C2263 C2267 1.429 . S
C2264 C2247 1.574 . S
C2264 H2258 0.949 . S
C2264 C2268 1.368 . S
C2265 C2246 1.429 . S
C2265 C2259 1.429 . S
C2265 C2266 1.523 . S
C2266 C2247 1.368 . S
C2266 C2260 1.368 . S
C2266 C2265 1.523 . S
C2267 C2251 1.429 . S
C2267 C2263 1.429 . S
C2267 C2268 1.523 . S
C2268 C2252 1.368 . S
C2268 C2264 1.368 . S
C2268 C2267 1.523 . S
H2269 C2244 0.950 . S
H2270 C2246 0.950 . S
H2271 C2247 0.949 . S
H2272 C2249 0.950 . S
H2273 C2251 0.950 . S
C2274 C2275 1.349 . S
C2274 C2276 1.327 . S
C2274 H2299 0.950 . S
C2275 C2274 1.349 . S
C2275 C2291 1.349 . S
C2276 C2274 1.327 . S
C2276 C2295 1.429 . S
C2276 H2300 0.950 . S
C2277 C2294 1.574 . S
C2277 C2296 1.368 . S
C2277 H2301 0.949 . S
H2278 C2282 0.949 . S
C2279 C2280 1.349 . S
C2279 C2281 1.327 . S
C2279 H2302 0.950 . S
C2280 C2279 1.349 . S
C2280 C2292 1.349 . S
C2281 C2279 1.327 . S
C2281 C2297 1.429 . S
C2281 H2303 0.950 . S
C2282 H2278 0.949 . S
C2282 C2290 1.574 . S
C2282 C2298 1.368 . S
H2283 C2291 0.950 . S
H2284 C2289 0.950 . S
H2285 C2290 0.949 . S
H2286 C2292 0.950 . S
H2287 C2293 0.950 . S
H2288 C2294 0.949 . S
C2289 H2284 0.950 . S
C2289 C2291 1.327 . S
C2289 C2295 1.429 . S
C2290 C2282 1.574 . S
C2290 H2285 0.949 . S
C2290 C2296 1.368 . S
C2291 C2275 1.349 . S
C2291 H2283 0.950 . S
C2291 C2289 1.327 . S
C2292 C2280 1.349 . S
C2292 H2286 0.950 . S
C2292 C2293 1.327 . S
C2293 H2287 0.950 . S
C2293 C2292 1.327 . S
C2293 C2297 1.429 . S
C2294 C2277 1.574 . S
C2294 H2288 0.949 . S
C2294 C2298 1.368 . S
C2295 C2276 1.429 . S
C2295 C2289 1.429 . S
C2295 C2296 1.523 . S
C2296 C2277 1.368 . S
C2296 C2290 1.368 . S
C2296 C2295 1.523 . S
C2297 C2281 1.429 . S
C2297 C2293 1.429 . S
C2297 C2298 1.523 . S
C2298 C2282 1.368 . S
C2298 C2294 1.368 . S
C2298 C2297 1.523 . S
H2299 C2274 0.950 . S
H2300 C2276 0.950 . S
H2301 C2277 0.949 . S
H2302 C2279 0.950 . S
H2303 C2281 0.950 . S
C2304 C2305 1.349 . S
C2304 C2306 1.327 . S
C2304 H2329 0.950 . S
C2305 C2304 1.349 . S
C2305 C2321 1.349 . S
C2306 C2304 1.327 . S
C2306 C2325 1.429 . S
C2306 H2330 0.950 . S
C2307 C2324 1.574 . S
C2307 C2326 1.368 . S
C2307 H2331 0.949 . S
H2308 C2312 0.949 . S
C2309 C2310 1.349 . S
C2309 C2311 1.327 . S
C2309 H2332 0.950 . S
C2310 C2309 1.349 . S
C2310 C2322 1.349 . S
C2311 C2309 1.327 . S
C2311 C2327 1.429 . S
C2311 H2333 0.950 . S
C2312 H2308 0.949 . S
C2312 C2320 1.574 . S
C2312 C2328 1.368 . S
H2313 C2321 0.950 . S
H2314 C2319 0.950 . S
H2315 C2320 0.949 . S
H2316 C2322 0.950 . S
H2317 C2323 0.950 . S
H2318 C2324 0.949 . S
C2319 H2314 0.950 . S
C2319 C2321 1.327 . S
C2319 C2325 1.429 . S
C2320 C2312 1.574 . S
C2320 H2315 0.949 . S
C2320 C2326 1.368 . S
C2321 C2305 1.349 . S
C2321 H2313 0.950 . S
C2321 C2319 1.327 . S
C2322 C2310 1.349 . S
C2322 H2316 0.950 . S
C2322 C2323 1.327 . S
C2323 H2317 0.950 . S
C2323 C2322 1.327 . S
C2323 C2327 1.429 . S
C2324 C2307 1.574 . S
C2324 H2318 0.949 . S
C2324 C2328 1.368 . S
C2325 C2306 1.429 . S
C2325 C2319 1.429 . S
C2325 C2326 1.523 . S
C2326 C2307 1.368 . S
C2326 C2320 1.368 . S
C2326 C2325 1.523 . S
C2327 C2311 1.429 . S
C2327 C2323 1.429 . S
C2327 C2328 1.523 . S
C2328 C2312 1.368 . S
C2328 C2324 1.368 . S
C2328 C2327 1.523 . S
H2329 C2304 0.950 . S
H2330 C2306 0.950 . S
H2331 C2307 0.949 . S
H2332 C2309 0.950 . S
H2333 C2311 0.950 . S
C2334 C2335 1.349 . S
C2334 C2336 1.327 . S
C2334 H2359 0.950 . S
C2335 C2334 1.349 . S
C2335 C2351 1.349 . S
C2336 C2334 1.327 . S
C2336 C2355 1.429 . S
C2336 H2360 0.950 . S
C2337 C2354 1.574 . S
C2337 C2356 1.368 . S
C2337 H2361 0.949 . S
H2338 C2342 0.949 . S
C2339 C2340 1.349 . S
C2339 C2341 1.327 . S
C2339 H2362 0.950 . S
C2340 C2339 1.349 . S
C2340 C2352 1.349 . S
C2341 C2339 1.327 . S
C2341 C2357 1.429 . S
C2341 H2363 0.950 . S
C2342 H2338 0.949 . S
C2342 C2350 1.574 . S
C2342 C2358 1.368 . S
H2343 C2351 0.950 . S
H2344 C2349 0.950 . S
H2345 C2350 0.949 . S
H2346 C2352 0.950 . S
H2347 C2353 0.950 . S
H2348 C2354 0.949 . S
C2349 H2344 0.950 . S
C2349 C2351 1.327 . S
C2349 C2355 1.429 . S
C2350 C2342 1.574 . S
C2350 H2345 0.949 . S
C2350 C2356 1.368 . S
C2351 C2335 1.349 . S
C2351 H2343 0.950 . S
C2351 C2349 1.327 . S
C2352 C2340 1.349 . S
C2352 H2346 0.950 . S
C2352 C2353 1.327 . S
C2353 H2347 0.950 . S
C2353 C2352 1.327 . S
C2353 C2357 1.429 . S
C2354 C2337 1.574 . S
C2354 H2348 0.949 . S
C2354 C2358 1.368 . S
C2355 C2336 1.429 . S
C2355 C2349 1.429 . S
C2355 C2356 1.523 . S
C2356 C2337 1.368 . S
C2356 C2350 1.368 . S
C2356 C2355 1.523 . S
C2357 C2341 1.429 . S
C2357 C2353 1.429 . S
C2357 C2358 1.523 . S
C2358 C2342 1.368 . S
C2358 C2354 1.368 . S
C2358 C2357 1.523 . S
H2359 C2334 0.950 . S
H2360 C2336 0.950 . S
H2361 C2337 0.949 . S
H2362 C2339 0.950 . S
H2363 C2341 0.950 . S
C2364 C2365 1.349 . S
C2364 C2366 1.327 . S
C2364 H2389 0.950 . S
C2365 C2364 1.349 . S
C2365 C2381 1.349 . S
C2366 C2364 1.327 . S
C2366 C2385 1.429 . S
C2366 H2390 0.950 . S
C2367 C2384 1.574 . S
C2367 C2386 1.368 . S
C2367 H2391 0.949 . S
H2368 C2372 0.949 . S
C2369 C2370 1.349 . S
C2369 C2371 1.327 . S
C2369 H2392 0.950 . S
C2370 C2369 1.349 . S
C2370 C2382 1.349 . S
C2371 C2369 1.327 . S
C2371 C2387 1.429 . S
C2371 H2393 0.950 . S
C2372 H2368 0.949 . S
C2372 C2380 1.574 . S
C2372 C2388 1.368 . S
H2373 C2381 0.950 . S
H2374 C2379 0.950 . S
H2375 C2380 0.949 . S
H2376 C2382 0.950 . S
H2377 C2383 0.950 . S
H2378 C2384 0.949 . S
C2379 H2374 0.950 . S
C2379 C2381 1.327 . S
C2379 C2385 1.429 . S
C2380 C2372 1.574 . S
C2380 H2375 0.949 . S
C2380 C2386 1.368 . S
C2381 C2365 1.349 . S
C2381 H2373 0.950 . S
C2381 C2379 1.327 . S
C2382 C2370 1.349 . S
C2382 H2376 0.950 . S
C2382 C2383 1.327 . S
C2383 H2377 0.950 . S
C2383 C2382 1.327 . S
C2383 C2387 1.429 . S
C2384 C2367 1.574 . S
C2384 H2378 0.949 . S
C2384 C2388 1.368 . S
C2385 C2366 1.429 . S
C2385 C2379 1.429 . S
C2385 C2386 1.523 . S
C2386 C2367 1.368 . S
C2386 C2380 1.368 . S
C2386 C2385 1.523 . S
C2387 C2371 1.429 . S
C2387 C2383 1.429 . S
C2387 C2388 1.523 . S
C2388 C2372 1.368 . S
C2388 C2384 1.368 . S
C2388 C2387 1.523 . S
H2389 C2364 0.950 . S
H2390 C2366 0.950 . S
H2391 C2367 0.949 . S
H2392 C2369 0.950 . S
H2393 C2371 0.950 . S
C2394 C2395 1.349 . S
C2394 C2396 1.327 . S
C2394 H2419 0.950 . S
C2395 C2394 1.349 . S
C2395 C2411 1.349 . S
C2396 C2394 1.327 . S
C2396 C2415 1.429 . S
C2396 H2420 0.950 . S
C2397 C2414 1.574 . S
C2397 C2416 1.368 . S
C2397 H2421 0.949 . S
H2398 C2402 0.949 . S
C2399 C2400 1.349 . S
C2399 C2401 1.327 . S
C2399 H2422 0.950 . S
C2400 C2399 1.349 . S
C2400 C2412 1.349 . S
C2401 C2399 1.327 . S
C2401 C2417 1.429 . S
C2401 H2423 0.950 . S
C2402 H2398 0.949 . S
C2402 C2410 1.574 . S
C2402 C2418 1.368 . S
H2403 C2411 0.950 . S
H2404 C2409 0.950 . S
H2405 C2410 0.949 . S
H2406 C2412 0.950 . S
H2407 C2413 0.950 . S
H2408 C2414 0.949 . S
C2409 H2404 0.950 . S
C2409 C2411 1.327 . S
C2409 C2415 1.429 . S
C2410 C2402 1.574 . S
C2410 H2405 0.949 . S
C2410 C2416 1.368 . S
C2411 C2395 1.349 . S
C2411 H2403 0.950 . S
C2411 C2409 1.327 . S
C2412 C2400 1.349 . S
C2412 H2406 0.950 . S
C2412 C2413 1.327 . S
C2413 H2407 0.950 . S
C2413 C2412 1.327 . S
C2413 C2417 1.429 . S
C2414 C2397 1.574 . S
C2414 H2408 0.949 . S
C2414 C2418 1.368 . S
C2415 C2396 1.429 . S
C2415 C2409 1.429 . S
C2415 C2416 1.523 . S
C2416 C2397 1.368 . S
C2416 C2410 1.368 . S
C2416 C2415 1.523 . S
C2417 C2401 1.429 . S
C2417 C2413 1.429 . S
C2417 C2418 1.523 . S
C2418 C2402 1.368 . S
C2418 C2414 1.368 . S
C2418 C2417 1.523 . S
H2419 C2394 0.950 . S
H2420 C2396 0.950 . S
H2421 C2397 0.949 . S
H2422 C2399 0.950 . S
H2423 C2401 0.950 . S
C2424 C2425 1.349 . S
C2424 C2426 1.327 . S
C2424 H2449 0.950 . S
C2425 C2424 1.349 . S
C2425 C2441 1.349 . S
C2426 C2424 1.327 . S
C2426 C2445 1.429 . S
C2426 H2450 0.950 . S
C2427 C2444 1.574 . S
C2427 C2446 1.368 . S
C2427 H2451 0.949 . S
H2428 C2432 0.949 . S
C2429 C2430 1.349 . S
C2429 C2431 1.327 . S
C2429 H2452 0.950 . S
C2430 C2429 1.349 . S
C2430 C2442 1.349 . S
C2431 C2429 1.327 . S
C2431 C2447 1.429 . S
C2431 H2453 0.950 . S
C2432 H2428 0.949 . S
C2432 C2440 1.574 . S
C2432 C2448 1.368 . S
H2433 C2441 0.950 . S
H2434 C2439 0.950 . S
H2435 C2440 0.949 . S
H2436 C2442 0.950 . S
H2437 C2443 0.950 . S
H2438 C2444 0.949 . S
C2439 H2434 0.950 . S
C2439 C2441 1.327 . S
C2439 C2445 1.429 . S
C2440 C2432 1.574 . S
C2440 H2435 0.949 . S
C2440 C2446 1.368 . S
C2441 C2425 1.349 . S
C2441 H2433 0.950 . S
C2441 C2439 1.327 . S
C2442 C2430 1.349 . S
C2442 H2436 0.950 . S
C2442 C2443 1.327 . S
C2443 H2437 0.950 . S
C2443 C2442 1.327 . S
C2443 C2447 1.429 . S
C2444 C2427 1.574 . S
C2444 H2438 0.949 . S
C2444 C2448 1.368 . S
C2445 C2426 1.429 . S
C2445 C2439 1.429 . S
C2445 C2446 1.523 . S
C2446 C2427 1.368 . S
C2446 C2440 1.368 . S
C2446 C2445 1.523 . S
C2447 C2431 1.429 . S
C2447 C2443 1.429 . S
C2447 C2448 1.523 . S
C2448 C2432 1.368 . S
C2448 C2444 1.368 . S
C2448 C2447 1.523 . S
H2449 C2424 0.950 . S
H2450 C2426 0.950 . S
H2451 C2427 0.949 . S
H2452 C2429 0.950 . S
H2453 C2431 0.950 . S
C2454 C2455 1.349 . S
C2454 C2456 1.327 . S
C2454 H2479 0.950 . S
C2455 C2454 1.349 . S
C2455 C2471 1.349 . S
C2456 C2454 1.327 . S
C2456 C2475 1.429 . S
C2456 H2480 0.950 . S
C2457 C2474 1.574 . S
C2457 C2476 1.368 . S
C2457 H2481 0.949 . S
H2458 C2462 0.949 . S
C2459 C2460 1.349 . S
C2459 C2461 1.327 . S
C2459 H2482 0.950 . S
C2460 C2459 1.349 . S
C2460 C2472 1.349 . S
C2461 C2459 1.327 . S
C2461 C2477 1.429 . S
C2461 H2483 0.950 . S
C2462 H2458 0.949 . S
C2462 C2470 1.574 . S
C2462 C2478 1.368 . S
H2463 C2471 0.950 . S
H2464 C2469 0.950 . S
H2465 C2470 0.949 . S
H2466 C2472 0.950 . S
H2467 C2473 0.950 . S
H2468 C2474 0.949 . S
C2469 H2464 0.950 . S
C2469 C2471 1.327 . S
C2469 C2475 1.429 . S
C2470 C2462 1.574 . S
C2470 H2465 0.949 . S
C2470 C2476 1.368 . S
C2471 C2455 1.349 . S
C2471 H2463 0.950 . S
C2471 C2469 1.327 . S
C2472 C2460 1.349 . S
C2472 H2466 0.950 . S
C2472 C2473 1.327 . S
C2473 H2467 0.950 . S
C2473 C2472 1.327 . S
C2473 C2477 1.429 . S
C2474 C2457 1.574 . S
C2474 H2468 0.949 . S
C2474 C2478 1.368 . S
C2475 C2456 1.429 . S
C2475 C2469 1.429 . S
C2475 C2476 1.523 . S
C2476 C2457 1.368 . S
C2476 C2470 1.368 . S
C2476 C2475 1.523 . S
C2477 C2461 1.429 . S
C2477 C2473 1.429 . S
C2477 C2478 1.523 . S
C2478 C2462 1.368 . S
C2478 C2474 1.368 . S
C2478 C2477 1.523 . S
H2479 C2454 0.950 . S
H2480 C2456 0.950 . S
H2481 C2457 0.949 . S
H2482 C2459 0.950 . S
H2483 C2461 0.950 . S
C2484 C2485 1.349 . S
C2484 C2486 1.327 . S
C2484 H2509 0.950 . S
C2485 C2484 1.349 . S
C2485 C2501 1.349 . S
C2486 C2484 1.327 . S
C2486 C2505 1.429 . S
C2486 H2510 0.950 . S
C2487 C2504 1.574 . S
C2487 C2506 1.368 . S
C2487 H2511 0.949 . S
H2488 C2492 0.949 . S
C2489 C2490 1.349 . S
C2489 C2491 1.327 . S
C2489 H2512 0.950 . S
C2490 C2489 1.349 . S
C2490 C2502 1.349 . S
C2491 C2489 1.327 . S
C2491 C2507 1.429 . S
C2491 H2513 0.950 . S
C2492 H2488 0.949 . S
C2492 C2500 1.574 . S
C2492 C2508 1.368 . S
H2493 C2501 0.950 . S
H2494 C2499 0.950 . S
H2495 C2500 0.949 . S
H2496 C2502 0.950 . S
H2497 C2503 0.950 . S
H2498 C2504 0.949 . S
C2499 H2494 0.950 . S
C2499 C2501 1.327 . S
C2499 C2505 1.429 . S
C2500 C2492 1.574 . S
C2500 H2495 0.949 . S
C2500 C2506 1.368 . S
C2501 C2485 1.349 . S
C2501 H2493 0.950 . S
C2501 C2499 1.327 . S
C2502 C2490 1.349 . S
C2502 H2496 0.950 . S
C2502 C2503 1.327 . S
C2503 H2497 0.950 . S
C2503 C2502 1.327 . S
C2503 C2507 1.429 . S
C2504 C2487 1.574 . S
C2504 H2498 0.949 . S
C2504 C2508 1.368 . S
C2505 C2486 1.429 . S
C2505 C2499 1.429 . S
C2505 C2506 1.523 . S
C2506 C2487 1.368 . S
C2506 C2500 1.368 . S
C2506 C2505 1.523 . S
C2507 C2491 1.429 . S
C2507 C2503 1.429 . S
C2507 C2508 1.523 . S
C2508 C2492 1.368 . S
C2508 C2504 1.368 . S
C2508 C2507 1.523 . S
H2509 C2484 0.950 . S
H2510 C2486 0.950 . S
H2511 C2487 0.949 . S
H2512 C2489 0.950 . S
H2513 C2491 0.950 . S
C2514 C2515 1.349 . S
C2514 C2516 1.327 . S
C2514 H2539 0.950 . S
C2515 C2514 1.349 . S
C2515 C2531 1.349 . S
C2516 C2514 1.327 . S
C2516 C2535 1.429 . S
C2516 H2540 0.950 . S
C2517 C2534 1.574 . S
C2517 C2536 1.368 . S
C2517 H2541 0.949 . S
H2518 C2522 0.949 . S
C2519 C2520 1.349 . S
C2519 C2521 1.327 . S
C2519 H2542 0.950 . S
C2520 C2519 1.349 . S
C2520 C2532 1.349 . S
C2521 C2519 1.327 . S
C2521 C2537 1.429 . S
C2521 H2543 0.950 . S
C2522 H2518 0.949 . S
C2522 C2530 1.574 . S
C2522 C2538 1.368 . S
H2523 C2531 0.950 . S
H2524 C2529 0.950 . S
H2525 C2530 0.949 . S
H2526 C2532 0.950 . S
H2527 C2533 0.950 . S
H2528 C2534 0.949 . S
C2529 H2524 0.950 . S
C2529 C2531 1.327 . S
C2529 C2535 1.429 . S
C2530 C2522 1.574 . S
C2530 H2525 0.949 . S
C2530 C2536 1.368 . S
C2531 C2515 1.349 . S
C2531 H2523 0.950 . S
C2531 C2529 1.327 . S
C2532 C2520 1.349 . S
C2532 H2526 0.950 . S
C2532 C2533 1.327 . S
C2533 H2527 0.950 . S
C2533 C2532 1.327 . S
C2533 C2537 1.429 . S
C2534 C2517 1.574 . S
C2534 H2528 0.949 . S
C2534 C2538 1.368 . S
C2535 C2516 1.429 . S
C2535 C2529 1.429 . S
C2535 C2536 1.523 . S
C2536 C2517 1.368 . S
C2536 C2530 1.368 . S
C2536 C2535 1.523 . S
C2537 C2521 1.429 . S
C2537 C2533 1.429 . S
C2537 C2538 1.523 . S
C2538 C2522 1.368 . S
C2538 C2534 1.368 . S
C2538 C2537 1.523 . S
H2539 C2514 0.950 . S
H2540 C2516 0.950 . S
H2541 C2517 0.949 . S
H2542 C2519 0.950 . S
H2543 C2521 0.950 . S
C2544 C2545 1.349 . S
C2544 C2546 1.327 . S
C2544 H2569 0.950 . S
C2545 C2544 1.349 . S
C2545 C2561 1.349 . S
C2546 C2544 1.327 . S
C2546 C2565 1.429 . S
C2546 H2570 0.950 . S
C2547 C2564 1.574 . S
C2547 C2566 1.368 . S
C2547 H2571 0.949 . S
H2548 C2552 0.949 . S
C2549 C2550 1.349 . S
C2549 C2551 1.327 . S
C2549 H2572 0.950 . S
C2550 C2549 1.349 . S
C2550 C2562 1.349 . S
C2551 C2549 1.327 . S
C2551 C2567 1.429 . S
C2551 H2573 0.950 . S
C2552 H2548 0.949 . S
C2552 C2560 1.574 . S
C2552 C2568 1.368 . S
H2553 C2561 0.950 . S
H2554 C2559 0.950 . S
H2555 C2560 0.949 . S
H2556 C2562 0.950 . S
H2557 C2563 0.950 . S
H2558 C2564 0.949 . S
C2559 H2554 0.950 . S
C2559 C2561 1.327 . S
C2559 C2565 1.429 . S
C2560 C2552 1.574 . S
C2560 H2555 0.949 . S
C2560 C2566 1.368 . S
C2561 C2545 1.349 . S
C2561 H2553 0.950 . S
C2561 C2559 1.327 . S
C2562 C2550 1.349 . S
C2562 H2556 0.950 . S
C2562 C2563 1.327 . S
C2563 H2557 0.950 . S
C2563 C2562 1.327 . S
C2563 C2567 1.429 . S
C2564 C2547 1.574 . S
C2564 H2558 0.949 . S
C2564 C2568 1.368 . S
C2565 C2546 1.429 . S
C2565 C2559 1.429 . S
C2565 C2566 1.523 . S
C2566 C2547 1.368 . S
C2566 C2560 1.368 . S
C2566 C2565 1.523 . S
C2567 C2551 1.429 . S
C2567 C2563 1.429 . S
C2567 C2568 1.523 . S
C2568 C2552 1.368 . S
C2568 C2564 1.368 . S
C2568 C2567 1.523 . S
H2569 C2544 0.950 . S
H2570 C2546 0.950 . S
H2571 C2547 0.949 . S
H2572 C2549 0.950 . S
H2573 C2551 0.950 . S
C2574 C2575 1.349 . S
C2574 C2576 1.327 . S
C2574 H2599 0.950 . S
C2575 C2574 1.349 . S
C2575 C2591 1.349 . S
C2576 C2574 1.327 . S
C2576 C2595 1.429 . S
C2576 H2600 0.950 . S
C2577 C2594 1.574 . S
C2577 C2596 1.368 . S
C2577 H2601 0.949 . S
H2578 C2582 0.949 . S
C2579 C2580 1.349 . S
C2579 C2581 1.327 . S
C2579 H2602 0.950 . S
C2580 C2579 1.349 . S
C2580 C2592 1.349 . S
C2581 C2579 1.327 . S
C2581 C2597 1.429 . S
C2581 H2603 0.950 . S
C2582 H2578 0.949 . S
C2582 C2590 1.574 . S
C2582 C2598 1.368 . S
H2583 C2591 0.950 . S
H2584 C2589 0.950 . S
H2585 C2590 0.949 . S
H2586 C2592 0.950 . S
H2587 C2593 0.950 . S
H2588 C2594 0.949 . S
C2589 H2584 0.950 . S
C2589 C2591 1.327 . S
C2589 C2595 1.429 . S
C2590 C2582 1.574 . S
C2590 H2585 0.949 . S
C2590 C2596 1.368 . S
C2591 C2575 1.349 . S
C2591 H2583 0.950 . S
C2591 C2589 1.327 . S
C2592 C2580 1.349 . S
C2592 H2586 0.950 . S
C2592 C2593 1.327 . S
C2593 H2587 0.950 . S
C2593 C2592 1.327 . S
C2593 C2597 1.429 . S
C2594 C2577 1.574 . S
C2594 H2588 0.949 . S
C2594 C2598 1.368 . S
C2595 C2576 1.429 . S
C2595 C2589 1.429 . S
C2595 C2596 1.523 . S
C2596 C2577 1.368 . S
C2596 C2590 1.368 . S
C2596 C2595 1.523 . S
C2597 C2581 1.429 . S
C2597 C2593 1.429 . S
C2597 C2598 1.523 . S
C2598 C2582 1.368 . S
C2598 C2594 1.368 . S
C2598 C2597 1.523 . S
H2599 C2574 0.950 . S
H2600 C2576 0.950 . S
H2601 C2577 0.949 . S
H2602 C2579 0.950 . S
H2603 C2581 0.950 . S
C2604 C2605 1.349 . S
C2604 C2606 1.327 . S
C2604 H2629 0.950 . S
C2605 C2604 1.349 . S
C2605 C2621 1.349 . S
C2606 C2604 1.327 . S
C2606 C2625 1.429 . S
C2606 H2630 0.950 . S
C2607 C2624 1.574 . S
C2607 C2626 1.368 . S
C2607 H2631 0.949 . S
H2608 C2612 0.949 . S
C2609 C2610 1.349 . S
C2609 C2611 1.327 . S
C2609 H2632 0.950 . S
C2610 C2609 1.349 . S
C2610 C2622 1.349 . S
C2611 C2609 1.327 . S
C2611 C2627 1.429 . S
C2611 H2633 0.950 . S
C2612 H2608 0.949 . S
C2612 C2620 1.574 . S
C2612 C2628 1.368 . S
H2613 C2621 0.950 . S
H2614 C2619 0.950 . S
H2615 C2620 0.949 . S
H2616 C2622 0.950 . S
H2617 C2623 0.950 . S
H2618 C2624 0.949 . S
C2619 H2614 0.950 . S
C2619 C2621 1.327 . S
C2619 C2625 1.429 . S
C2620 C2612 1.574 . S
C2620 H2615 0.949 . S
C2620 C2626 1.368 . S
C2621 C2605 1.349 . S
C2621 H2613 0.950 . S
C2621 C2619 1.327 . S
C2622 C2610 1.349 . S
C2622 H2616 0.950 . S
C2622 C2623 1.327 . S
C2623 H2617 0.950 . S
C2623 C2622 1.327 . S
C2623 C2627 1.429 . S
C2624 C2607 1.574 . S
C2624 H2618 0.949 . S
C2624 C2628 1.368 . S
C2625 C2606 1.429 . S
C2625 C2619 1.429 . S
C2625 C2626 1.523 . S
C2626 C2607 1.368 . S
C2626 C2620 1.368 . S
C2626 C2625 1.523 . S
C2627 C2611 1.429 . S
C2627 C2623 1.429 . S
C2627 C2628 1.523 . S
C2628 C2612 1.368 . S
C2628 C2624 1.368 . S
C2628 C2627 1.523 . S
H2629 C2604 0.950 . S
H2630 C2606 0.950 . S
H2631 C2607 0.949 . S
H2632 C2609 0.950 . S
H2633 C2611 0.950 . S
C2634 C2635 1.349 . S
C2634 C2636 1.327 . S
C2634 H2659 0.950 . S
C2635 C2634 1.349 . S
C2635 C2651 1.349 . S
C2636 C2634 1.327 . S
C2636 C2655 1.429 . S
C2636 H2660 0.950 . S
C2637 C2654 1.574 . S
C2637 C2656 1.368 . S
C2637 H2661 0.949 . S
H2638 C2642 0.949 . S
C2639 C2640 1.349 . S
C2639 C2641 1.327 . S
C2639 H2662 0.950 . S
C2640 C2639 1.349 . S
C2640 C2652 1.349 . S
C2641 C2639 1.327 . S
C2641 C2657 1.429 . S
C2641 H2663 0.950 . S
C2642 H2638 0.949 . S
C2642 C2650 1.574 . S
C2642 C2658 1.368 . S
H2643 C2651 0.950 . S
H2644 C2649 0.950 . S
H2645 C2650 0.949 . S
H2646 C2652 0.950 . S
H2647 C2653 0.950 . S
H2648 C2654 0.949 . S
C2649 H2644 0.950 . S
C2649 C2651 1.327 . S
C2649 C2655 1.429 . S
C2650 C2642 1.574 . S
C2650 H2645 0.949 . S
C2650 C2656 1.368 . S
C2651 C2635 1.349 . S
C2651 H2643 0.950 . S
C2651 C2649 1.327 . S
C2652 C2640 1.349 . S
C2652 H2646 0.950 . S
C2652 C2653 1.327 . S
C2653 H2647 0.950 . S
C2653 C2652 1.327 . S
C2653 C2657 1.429 . S
C2654 C2637 1.574 . S
C2654 H2648 0.949 . S
C2654 C2658 1.368 . S
C2655 C2636 1.429 . S
C2655 C2649 1.429 . S
C2655 C2656 1.523 . S
C2656 C2637 1.368 . S
C2656 C2650 1.368 . S
C2656 C2655 1.523 . S
C2657 C2641 1.429 . S
C2657 C2653 1.429 . S
C2657 C2658 1.523 . S
C2658 C2642 1.368 . S
C2658 C2654 1.368 . S
C2658 C2657 1.523 . S
H2659 C2634 0.950 . S
H2660 C2636 0.950 . S
H2661 C2637 0.949 . S
H2662 C2639 0.950 . S
H2663 C2641 0.950 . S
C2664 C2665 1.349 . S
C2664 C2666 1.327 . S
C2664 H2689 0.950 . S
C2665 C2664 1.349 . S
C2665 C2681 1.349 . S
C2666 C2664 1.327 . S
C2666 C2685 1.429 . S
C2666 H2690 0.950 . S
C2667 C2684 1.574 . S
C2667 C2686 1.368 . S
C2667 H2691 0.949 . S
H2668 C2672 0.949 . S
C2669 C2670 1.349 . S
C2669 C2671 1.327 . S
C2669 H2692 0.950 . S
C2670 C2669 1.349 . S
C2670 C2682 1.349 . S
C2671 C2669 1.327 . S
C2671 C2687 1.429 . S
C2671 H2693 0.950 . S
C2672 H2668 0.949 . S
C2672 C2680 1.574 . S
C2672 C2688 1.368 . S
H2673 C2681 0.950 . S
H2674 C2679 0.950 . S
H2675 C2680 0.949 . S
H2676 C2682 0.950 . S
H2677 C2683 0.950 . S
H2678 C2684 0.949 . S
C2679 H2674 0.950 . S
C2679 C2681 1.327 . S
C2679 C2685 1.429 . S
C2680 C2672 1.574 . S
C2680 H2675 0.949 . S
C2680 C2686 1.368 . S
C2681 C2665 1.349 . S
C2681 H2673 0.950 . S
C2681 C2679 1.327 . S
C2682 C2670 1.349 . S
C2682 H2676 0.950 . S
C2682 C2683 1.327 . S
C2683 H2677 0.950 . S
C2683 C2682 1.327 . S
C2683 C2687 1.429 . S
C2684 C2667 1.574 . S
C2684 H2678 0.949 . S
C2684 C2688 1.368 . S
C2685 C2666 1.429 . S
C2685 C2679 1.429 . S
C2685 C2686 1.523 . S
C2686 C2667 1.368 . S
C2686 C2680 1.368 . S
C2686 C2685 1.523 . S
C2687 C2671 1.429 . S
C2687 C2683 1.429 . S
C2687 C2688 1.523 . S
C2688 C2672 1.368 . S
C2688 C2684 1.368 . S
C2688 C2687 1.523 . S
H2689 C2664 0.950 . S
H2690 C2666 0.950 . S
H2691 C2667 0.949 . S
H2692 C2669 0.950 . S
H2693 C2671 0.950 . S
C2694 C2695 1.349 . S
C2694 C2696 1.327 . S
C2694 H2719 0.950 . S
C2695 C2694 1.349 . S
C2695 C2711 1.349 . S
C2696 C2694 1.327 . S
C2696 C2715 1.429 . S
C2696 H2720 0.950 . S
C2697 C2714 1.574 . S
C2697 C2716 1.368 . S
C2697 H2721 0.949 . S
H2698 C2702 0.949 . S
C2699 C2700 1.349 . S
C2699 C2701 1.327 . S
C2699 H2722 0.950 . S
C2700 C2699 1.349 . S
C2700 C2712 1.349 . S
C2701 C2699 1.327 . S
C2701 C2717 1.429 . S
C2701 H2723 0.950 . S
C2702 H2698 0.949 . S
C2702 C2710 1.574 . S
C2702 C2718 1.368 . S
H2703 C2711 0.950 . S
H2704 C2709 0.950 . S
H2705 C2710 0.949 . S
H2706 C2712 0.950 . S
H2707 C2713 0.950 . S
H2708 C2714 0.949 . S
C2709 H2704 0.950 . S
C2709 C2711 1.327 . S
C2709 C2715 1.429 . S
C2710 C2702 1.574 . S
C2710 H2705 0.949 . S
C2710 C2716 1.368 . S
C2711 C2695 1.349 . S
C2711 H2703 0.950 . S
C2711 C2709 1.327 . S
C2712 C2700 1.349 . S
C2712 H2706 0.950 . S
C2712 C2713 1.327 . S
C2713 H2707 0.950 . S
C2713 C2712 1.327 . S
C2713 C2717 1.429 . S
C2714 C2697 1.574 . S
C2714 H2708 0.949 . S
C2714 C2718 1.368 . S
C2715 C2696 1.429 . S
C2715 C2709 1.429 . S
C2715 C2716 1.523 . S
C2716 C2697 1.368 . S
C2716 C2710 1.368 . S
C2716 C2715 1.523 . S
C2717 C2701 1.429 . S
C2717 C2713 1.429 . S
C2717 C2718 1.523 . S
C2718 C2702 1.368 . S
C2718 C2714 1.368 . S
C2718 C2717 1.523 . S
H2719 C2694 0.950 . S
H2720 C2696 0.950 . S
H2721 C2697 0.949 . S
H2722 C2699 0.950 . S
H2723 C2701 0.950 . S
C2724 C2725 1.349 . S
C2724 C2726 1.327 . S
C2724 H2749 0.950 . S
C2725 C2724 1.349 . S
C2725 C2741 1.349 . S
C2726 C2724 1.327 . S
C2726 C2745 1.429 . S
C2726 H2750 0.950 . S
C2727 C2744 1.574 . S
C2727 C2746 1.368 . S
C2727 H2751 0.949 . S
H2728 C2732 0.949 . S
C2729 C2730 1.349 . S
C2729 C2731 1.327 . S
C2729 H2752 0.950 . S
C2730 C2729 1.349 . S
C2730 C2742 1.349 . S
C2731 C2729 1.327 . S
C2731 C2747 1.429 . S
C2731 H2753 0.950 . S
C2732 H2728 0.949 . S
C2732 C2740 1.574 . S
C2732 C2748 1.368 . S
H2733 C2741 0.950 . S
H2734 C2739 0.950 . S
H2735 C2740 0.949 . S
H2736 C2742 0.950 . S
H2737 C2743 0.950 . S
H2738 C2744 0.949 . S
C2739 H2734 0.950 . S
C2739 C2741 1.327 . S
C2739 C2745 1.429 . S
C2740 C2732 1.574 . S
C2740 H2735 0.949 . S
C2740 C2746 1.368 . S
C2741 C2725 1.349 . S
C2741 H2733 0.950 . S
C2741 C2739 1.327 . S
C2742 C2730 1.349 . S
C2742 H2736 0.950 . S
C2742 C2743 1.327 . S
C2743 H2737 0.950 . S
C2743 C2742 1.327 . S
C2743 C2747 1.429 . S
C2744 C2727 1.574 . S
C2744 H2738 0.949 . S
C2744 C2748 1.368 . S
C2745 C2726 1.429 . S
C2745 C2739 1.429 . S
C2745 C2746 1.523 . S
C2746 C2727 1.368 . S
C2746 C2740 1.368 . S
C2746 C2745 1.523 . S
C2747 C2731 1.429 . S
C2747 C2743 1.429 . S
C2747 C2748 1.523 . S
C2748 C2732 1.368 . S
C2748 C2744 1.368 . S
C2748 C2747 1.523 . S
H2749 C2724 0.950 . S
H2750 C2726 0.950 . S
H2751 C2727 0.949 . S
H2752 C2729 0.950 . S
H2753 C2731 0.950 . S
C2754 C2755 1.349 . S
C2754 C2756 1.327 . S
C2754 H2779 0.950 . S
C2755 C2754 1.349 . S
C2755 C2771 1.349 . S
C2756 C2754 1.327 . S
C2756 C2775 1.429 . S
C2756 H2780 0.950 . S
C2757 C2774 1.574 . S
C2757 C2776 1.368 . S
C2757 H2781 0.949 . S
H2758 C2762 0.949 . S
C2759 C2760 1.349 . S
C2759 C2761 1.327 . S
C2759 H2782 0.950 . S
C2760 C2759 1.349 . S
C2760 C2772 1.349 . S
C2761 C2759 1.327 . S
C2761 C2777 1.429 . S
C2761 H2783 0.950 . S
C2762 H2758 0.949 . S
C2762 C2770 1.574 . S
C2762 C2778 1.368 . S
H2763 C2771 0.950 . S
H2764 C2769 0.950 . S
H2765 C2770 0.949 . S
H2766 C2772 0.950 . S
H2767 C2773 0.950 . S
H2768 C2774 0.949 . S
C2769 H2764 0.950 . S
C2769 C2771 1.327 . S
C2769 C2775 1.429 . S
C2770 C2762 1.574 . S
C2770 H2765 0.949 . S
C2770 C2776 1.368 . S
C2771 C2755 1.349 . S
C2771 H2763 0.950 . S
C2771 C2769 1.327 . S
C2772 C2760 1.349 . S
C2772 H2766 0.950 . S
C2772 C2773 1.327 . S
C2773 H2767 0.950 . S
C2773 C2772 1.327 . S
C2773 C2777 1.429 . S
C2774 C2757 1.574 . S
C2774 H2768 0.949 . S
C2774 C2778 1.368 . S
C2775 C2756 1.429 . S
C2775 C2769 1.429 . S
C2775 C2776 1.523 . S
C2776 C2757 1.368 . S
C2776 C2770 1.368 . S
C2776 C2775 1.523 . S
C2777 C2761 1.429 . S
C2777 C2773 1.429 . S
C2777 C2778 1.523 . S
C2778 C2762 1.368 . S
C2778 C2774 1.368 . S
C2778 C2777 1.523 . S
H2779 C2754 0.950 . S
H2780 C2756 0.950 . S
H2781 C2757 0.949 . S
H2782 C2759 0.950 . S
H2783 C2761 0.950 . S
C2784 C2785 1.349 . S
C2784 C2786 1.327 . S
C2784 H2809 0.950 . S
C2785 C2784 1.349 . S
C2785 C2801 1.349 . S
C2786 C2784 1.327 . S
C2786 C2805 1.429 . S
C2786 H2810 0.950 . S
C2787 C2804 1.574 . S
C2787 C2806 1.368 . S
C2787 H2811 0.949 . S
H2788 C2792 0.949 . S
C2789 C2790 1.349 . S
C2789 C2791 1.327 . S
C2789 H2812 0.950 . S
C2790 C2789 1.349 . S
C2790 C2802 1.349 . S
C2791 C2789 1.327 . S
C2791 C2807 1.429 . S
C2791 H2813 0.950 . S
C2792 H2788 0.949 . S
C2792 C2800 1.574 . S
C2792 C2808 1.368 . S
H2793 C2801 0.950 . S
H2794 C2799 0.950 . S
H2795 C2800 0.949 . S
H2796 C2802 0.950 . S
H2797 C2803 0.950 . S
H2798 C2804 0.949 . S
C2799 H2794 0.950 . S
C2799 C2801 1.327 . S
C2799 C2805 1.429 . S
C2800 C2792 1.574 . S
C2800 H2795 0.949 . S
C2800 C2806 1.368 . S
C2801 C2785 1.349 . S
C2801 H2793 0.950 . S
C2801 C2799 1.327 . S
C2802 C2790 1.349 . S
C2802 H2796 0.950 . S
C2802 C2803 1.327 . S
C2803 H2797 0.950 . S
C2803 C2802 1.327 . S
C2803 C2807 1.429 . S
C2804 C2787 1.574 . S
C2804 H2798 0.949 . S
C2804 C2808 1.368 . S
C2805 C2786 1.429 . S
C2805 C2799 1.429 . S
C2805 C2806 1.523 . S
C2806 C2787 1.368 . S
C2806 C2800 1.368 . S
C2806 C2805 1.523 . S
C2807 C2791 1.429 . S
C2807 C2803 1.429 . S
C2807 C2808 1.523 . S
C2808 C2792 1.368 . S
C2808 C2804 1.368 . S
C2808 C2807 1.523 . S
H2809 C2784 0.950 . S
H2810 C2786 0.950 . S
H2811 C2787 0.949 . S
H2812 C2789 0.950 . S
H2813 C2791 0.950 . S
C2814 C2815 1.349 . S
C2814 C2816 1.327 . S
C2814 H2839 0.950 . S
C2815 C2814 1.349 . S
C2815 C2831 1.349 . S
C2816 C2814 1.327 . S
C2816 C2835 1.429 . S
C2816 H2840 0.950 . S
C2817 C2834 1.574 . S
C2817 C2836 1.368 . S
C2817 H2841 0.949 . S
H2818 C2822 0.949 . S
C2819 C2820 1.349 . S
C2819 C2821 1.327 . S
C2819 H2842 0.950 . S
C2820 C2819 1.349 . S
C2820 C2832 1.349 . S
C2821 C2819 1.327 . S
C2821 C2837 1.429 . S
C2821 H2843 0.950 . S
C2822 H2818 0.949 . S
C2822 C2830 1.574 . S
C2822 C2838 1.368 . S
H2823 C2831 0.950 . S
H2824 C2829 0.950 . S
H2825 C2830 0.949 . S
H2826 C2832 0.950 . S
H2827 C2833 0.950 . S
H2828 C2834 0.949 . S
C2829 H2824 0.950 . S
C2829 C2831 1.327 . S
C2829 C2835 1.429 . S
C2830 C2822 1.574 . S
C2830 H2825 0.949 . S
C2830 C2836 1.368 . S
C2831 C2815 1.349 . S
C2831 H2823 0.950 . S
C2831 C2829 1.327 . S
C2832 C2820 1.349 . S
C2832 H2826 0.950 . S
C2832 C2833 1.327 . S
C2833 H2827 0.950 . S
C2833 C2832 1.327 . S
C2833 C2837 1.429 . S
C2834 C2817 1.574 . S
C2834 H2828 0.949 . S
C2834 C2838 1.368 . S
C2835 C2816 1.429 . S
C2835 C2829 1.429 . S
C2835 C2836 1.523 . S
C2836 C2817 1.368 . S
C2836 C2830 1.368 . S
C2836 C2835 1.523 . S
C2837 C2821 1.429 . S
C2837 C2833 1.429 . S
C2837 C2838 1.523 . S
C2838 C2822 1.368 . S
C2838 C2834 1.368 . S
C2838 C2837 1.523 . S
H2839 C2814 0.950 . S
H2840 C2816 0.950 . S
H2841 C2817 0.949 . S
H2842 C2819 0.950 . S
H2843 C2821 0.950 . S
C2844 C2845 1.349 . S
C2844 C2846 1.327 . S
C2844 H2869 0.950 . S
C2845 C2844 1.349 . S
C2845 C2861 1.349 . S
C2846 C2844 1.327 . S
C2846 C2865 1.429 . S
C2846 H2870 0.950 . S
C2847 C2864 1.574 . S
C2847 C2866 1.368 . S
C2847 H2871 0.949 . S
H2848 C2852 0.949 . S
C2849 C2850 1.349 . S
C2849 C2851 1.327 . S
C2849 H2872 0.950 . S
C2850 C2849 1.349 . S
C2850 C2862 1.349 . S
C2851 C2849 1.327 . S
C2851 C2867 1.429 . S
C2851 H2873 0.950 . S
C2852 H2848 0.949 . S
C2852 C2860 1.574 . S
C2852 C2868 1.368 . S
H2853 C2861 0.950 . S
H2854 C2859 0.950 . S
H2855 C2860 0.949 . S
H2856 C2862 0.950 . S
H2857 C2863 0.950 . S
H2858 C2864 0.949 . S
C2859 H2854 0.950 . S
C2859 C2861 1.327 . S
C2859 C2865 1.429 . S
C2860 C2852 1.574 . S
C2860 H2855 0.949 . S
C2860 C2866 1.368 . S
C2861 C2845 1.349 . S
C2861 H2853 0.950 . S
C2861 C2859 1.327 . S
C2862 C2850 1.349 . S
C2862 H2856 0.950 . S
C2862 C2863 1.327 . S
C2863 H2857 0.950 . S
C2863 C2862 1.327 . S
C2863 C2867 1.429 . S
C2864 C2847 1.574 . S
C2864 H2858 0.949 . S
C2864 C2868 1.368 . S
C2865 C2846 1.429 . S
C2865 C2859 1.429 . S
C2865 C2866 1.523 . S
C2866 C2847 1.368 . S
C2866 C2860 1.368 . S
C2866 C2865 1.523 . S
C2867 C2851 1.429 . S
C2867 C2863 1.429 . S
C2867 C2868 1.523 . S
C2868 C2852 1.368 . S
C2868 C2864 1.368 . S
C2868 C2867 1.523 . S
H2869 C2844 0.950 . S
H2870 C2846 0.950 . S
H2871 C2847 0.949 . S
H2872 C2849 0.950 . S
H2873 C2851 0.950 . S
C2874 C2875 1.349 . S
C2874 C2876 1.327 . S
C2874 H2899 0.950 . S
C2875 C2874 1.349 . S
C2875 C2891 1.349 . S
C2876 C2874 1.327 . S
C2876 C2895 1.429 . S
C2876 H2900 0.950 . S
C2877 C2894 1.574 . S
C2877 C2896 1.368 . S
C2877 H2901 0.949 . S
H2878 C2882 0.949 . S
C2879 C2880 1.349 . S
C2879 C2881 1.327 . S
C2879 H2902 0.950 . S
C2880 C2879 1.349 . S
C2880 C2892 1.349 . S
C2881 C2879 1.327 . S
C2881 C2897 1.429 . S
C2881 H2903 0.950 . S
C2882 H2878 0.949 . S
C2882 C2890 1.574 . S
C2882 C2898 1.368 . S
H2883 C2891 0.950 . S
H2884 C2889 0.950 . S
H2885 C2890 0.949 . S
H2886 C2892 0.950 . S
H2887 C2893 0.950 . S
H2888 C2894 0.949 . S
C2889 H2884 0.950 . S
C2889 C2891 1.327 . S
C2889 C2895 1.429 . S
C2890 C2882 1.574 . S
C2890 H2885 0.949 . S
C2890 C2896 1.368 . S
C2891 C2875 1.349 . S
C2891 H2883 0.950 . S
C2891 C2889 1.327 . S
C2892 C2880 1.349 . S
C2892 H2886 0.950 . S
C2892 C2893 1.327 . S
C2893 H2887 0.950 . S
C2893 C2892 1.327 . S
C2893 C2897 1.429 . S
C2894 C2877 1.574 . S
C2894 H2888 0.949 . S
C2894 C2898 1.368 . S
C2895 C2876 1.429 . S
C2895 C2889 1.429 . S
C2895 C2896 1.523 . S
C2896 C2877 1.368 . S
C2896 C2890 1.368 . S
C2896 C2895 1.523 . S
C2897 C2881 1.429 . S
C2897 C2893 1.429 . S
C2897 C2898 1.523 . S
C2898 C2882 1.368 . S
C2898 C2894 1.368 . S
C2898 C2897 1.523 . S
H2899 C2874 0.950 . S
H2900 C2876 0.950 . S
H2901 C2877 0.949 . S
H2902 C2879 0.950 . S
H2903 C2881 0.950 . S
C2904 C2905 1.349 . S
C2904 C2906 1.327 . S
C2904 H2929 0.950 . S
C2905 C2904 1.349 . S
C2905 C2921 1.349 . S
C2906 C2904 1.327 . S
C2906 C2925 1.429 . S
C2906 H2930 0.950 . S
C2907 C2924 1.574 . S
C2907 C2926 1.368 . S
C2907 H2931 0.949 . S
H2908 C2912 0.949 . S
C2909 C2910 1.349 . S
C2909 C2911 1.327 . S
C2909 H2932 0.950 . S
C2910 C2909 1.349 . S
C2910 C2922 1.349 . S
C2911 C2909 1.327 . S
C2911 C2927 1.429 . S
C2911 H2933 0.950 . S
C2912 H2908 0.949 . S
C2912 C2920 1.574 . S
C2912 C2928 1.368 . S
H2913 C2921 0.950 . S
H2914 C2919 0.950 . S
H2915 C2920 0.949 . S
H2916 C2922 0.950 . S
H2917 C2923 0.950 . S
H2918 C2924 0.949 . S
C2919 H2914 0.950 . S
C2919 C2921 1.327 . S
C2919 C2925 1.429 . S
C2920 C2912 1.574 . S
C2920 H2915 0.949 . S
C2920 C2926 1.368 . S
C2921 C2905 1.349 . S
C2921 H2913 0.950 . S
C2921 C2919 1.327 . S
C2922 C2910 1.349 . S
C2922 H2916 0.950 . S
C2922 C2923 1.327 . S
C2923 H2917 0.950 . S
C2923 C2922 1.327 . S
C2923 C2927 1.429 . S
C2924 C2907 1.574 . S
C2924 H2918 0.949 . S
C2924 C2928 1.368 . S
C2925 C2906 1.429 . S
C2925 C2919 1.429 . S
C2925 C2926 1.523 . S
C2926 C2907 1.368 . S
C2926 C2920 1.368 . S
C2926 C2925 1.523 . S
C2927 C2911 1.429 . S
C2927 C2923 1.429 . S
C2927 C2928 1.523 . S
C2928 C2912 1.368 . S
C2928 C2924 1.368 . S
C2928 C2927 1.523 . S
H2929 C2904 0.950 . S
H2930 C2906 0.950 . S
H2931 C2907 0.949 . S
H2932 C2909 0.950 . S
H2933 C2911 0.950 . S
C2934 C2935 1.349 . S
C2934 C2936 1.327 . S
C2934 H2959 0.950 . S
C2935 C2934 1.349 . S
C2935 C2951 1.349 . S
C2936 C2934 1.327 . S
C2936 C2955 1.429 . S
C2936 H2960 0.950 . S
C2937 C2954 1.574 . S
C2937 C2956 1.368 . S
C2937 H2961 0.949 . S
H2938 C2942 0.949 . S
C2939 C2940 1.349 . S
C2939 C2941 1.327 . S
C2939 H2962 0.950 . S
C2940 C2939 1.349 . S
C2940 C2952 1.349 . S
C2941 C2939 1.327 . S
C2941 C2957 1.429 . S
C2941 H2963 0.950 . S
C2942 H2938 0.949 . S
C2942 C2950 1.574 . S
C2942 C2958 1.368 . S
H2943 C2951 0.950 . S
H2944 C2949 0.950 . S
H2945 C2950 0.949 . S
H2946 C2952 0.950 . S
H2947 C2953 0.950 . S
H2948 C2954 0.949 . S
C2949 H2944 0.950 . S
C2949 C2951 1.327 . S
C2949 C2955 1.429 . S
C2950 C2942 1.574 . S
C2950 H2945 0.949 . S
C2950 C2956 1.368 . S
C2951 C2935 1.349 . S
C2951 H2943 0.950 . S
C2951 C2949 1.327 . S
C2952 C2940 1.349 . S
C2952 H2946 0.950 . S
C2952 C2953 1.327 . S
C2953 H2947 0.950 . S
C2953 C2952 1.327 . S
C2953 C2957 1.429 . S
C2954 C2937 1.574 . S
C2954 H2948 0.949 . S
C2954 C2958 1.368 . S
C2955 C2936 1.429 . S
C2955 C2949 1.429 . S
C2955 C2956 1.523 . S
C2956 C2937 1.368 . S
C2956 C2950 1.368 . S
C2956 C2955 1.523 . S
C2957 C2941 1.429 . S
C2957 C2953 1.429 . S
C2957 C2958 1.523 . S
C2958 C2942 1.368 . S
C2958 C2954 1.368 . S
C2958 C2957 1.523 . S
H2959 C2934 0.950 . S
H2960 C2936 0.950 . S
H2961 C2937 0.949 . S
H2962 C2939 0.950 . S
H2963 C2941 0.950 . S
C2964 C2965 1.349 . S
C2964 C2966 1.327 . S
C2964 H2989 0.950 . S
C2965 C2964 1.349 . S
C2965 C2981 1.349 . S
C2966 C2964 1.327 . S
C2966 C2985 1.429 . S
C2966 H2990 0.950 . S
C2967 C2984 1.574 . S
C2967 C2986 1.368 . S
C2967 H2991 0.949 . S
H2968 C2972 0.949 . S
C2969 C2970 1.349 . S
C2969 C2971 1.327 . S
C2969 H2992 0.950 . S
C2970 C2969 1.349 . S
C2970 C2982 1.349 . S
C2971 C2969 1.327 . S
C2971 C2987 1.429 . S
C2971 H2993 0.950 . S
C2972 H2968 0.949 . S
C2972 C2980 1.574 . S
C2972 C2988 1.368 . S
H2973 C2981 0.950 . S
H2974 C2979 0.950 . S
H2975 C2980 0.949 . S
H2976 C2982 0.950 . S
H2977 C2983 0.950 . S
H2978 C2984 0.949 . S
C2979 H2974 0.950 . S
C2979 C2981 1.327 . S
C2979 C2985 1.429 . S
C2980 C2972 1.574 . S
C2980 H2975 0.949 . S
C2980 C2986 1.368 . S
C2981 C2965 1.349 . S
C2981 H2973 0.950 . S
C2981 C2979 1.327 . S
C2982 C2970 1.349 . S
C2982 H2976 0.950 . S
C2982 C2983 1.327 . S
C2983 H2977 0.950 . S
C2983 C2982 1.327 . S
C2983 C2987 1.429 . S
C2984 C2967 1.574 . S
C2984 H2978 0.949 . S
C2984 C2988 1.368 . S
C2985 C2966 1.429 . S
C2985 C2979 1.429 . S
C2985 C2986 1.523 . S
C2986 C2967 1.368 . S
C2986 C2980 1.368 . S
C2986 C2985 1.523 . S
C2987 C2971 1.429 . S
C2987 C2983 1.429 . S
C2987 C2988 1.523 . S
C2988 C2972 1.368 . S
C2988 C2984 1.368 . S
C2988 C2987 1.523 . S
H2989 C2964 0.950 . S
H2990 C2966 0.950 . S
H2991 C2967 0.949 . S
H2992 C2969 0.950 . S
H2993 C2971 0.950 . S
C2994 C2995 1.349 . S
C2994 C2996 1.327 . S
C2994 H3019 0.950 . S
C2995 C2994 1.349 . S
C2995 C3011 1.349 . S
C2996 C2994 1.327 . S
C2996 C3015 1.429 . S
C2996 H3020 0.950 . S
C2997 C3014 1.574 . S
C2997 C3016 1.368 . S
C2997 H3021 0.949 . S
H2998 C3002 0.949 . S
C2999 C3000 1.349 . S
C2999 C3001 1.327 . S
C2999 H3022 0.950 . S
C3000 C2999 1.349 . S
C3000 C3012 1.349 . S
C3001 C2999 1.327 . S
C3001 C3017 1.429 . S
C3001 H3023 0.950 . S
C3002 H2998 0.949 . S
C3002 C3010 1.574 . S
C3002 C3018 1.368 . S
H3003 C3011 0.950 . S
H3004 C3009 0.950 . S
H3005 C3010 0.949 . S
H3006 C3012 0.950 . S
H3007 C3013 0.950 . S
H3008 C3014 0.949 . S
C3009 H3004 0.950 . S
C3009 C3011 1.327 . S
C3009 C3015 1.429 . S
C3010 C3002 1.574 . S
C3010 H3005 0.949 . S
C3010 C3016 1.368 . S
C3011 C2995 1.349 . S
C3011 H3003 0.950 . S
C3011 C3009 1.327 . S
C3012 C3000 1.349 . S
C3012 H3006 0.950 . S
C3012 C3013 1.327 . S
C3013 H3007 0.950 . S
C3013 C3012 1.327 . S
C3013 C3017 1.429 . S
C3014 C2997 1.574 . S
C3014 H3008 0.949 . S
C3014 C3018 1.368 . S
C3015 C2996 1.429 . S
C3015 C3009 1.429 . S
C3015 C3016 1.523 . S
C3016 C2997 1.368 . S
C3016 C3010 1.368 . S
C3016 C3015 1.523 . S
C3017 C3001 1.429 . S
C3017 C3013 1.429 . S
C3017 C3018 1.523 . S
C3018 C3002 1.368 . S
C3018 C3014 1.368 . S
C3018 C3017 1.523 . S
H3019 C2994 0.950 . S
H3020 C2996 0.950 . S
H3021 C2997 0.949 . S
H3022 C2999 0.950 . S
H3023 C3001 0.950 . S
C3024 C3025 1.349 . S
C3024 C3026 1.327 . S
C3024 H3049 0.950 . S
C3025 C3024 1.349 . S
C3025 C3041 1.349 . S
C3026 C3024 1.327 . S
C3026 C3045 1.429 . S
C3026 H3050 0.950 . S
C3027 C3044 1.574 . S
C3027 C3046 1.368 . S
C3027 H3051 0.949 . S
H3028 C3032 0.949 . S
C3029 C3030 1.349 . S
C3029 C3031 1.327 . S
C3029 H3052 0.950 . S
C3030 C3029 1.349 . S
C3030 C3042 1.349 . S
C3031 C3029 1.327 . S
C3031 C3047 1.429 . S
C3031 H3053 0.950 . S
C3032 H3028 0.949 . S
C3032 C3040 1.574 . S
C3032 C3048 1.368 . S
H3033 C3041 0.950 . S
H3034 C3039 0.950 . S
H3035 C3040 0.949 . S
H3036 C3042 0.950 . S
H3037 C3043 0.950 . S
H3038 C3044 0.949 . S
C3039 H3034 0.950 . S
C3039 C3041 1.327 . S
C3039 C3045 1.429 . S
C3040 C3032 1.574 . S
C3040 H3035 0.949 . S
C3040 C3046 1.368 . S
C3041 C3025 1.349 . S
C3041 H3033 0.950 . S
C3041 C3039 1.327 . S
C3042 C3030 1.349 . S
C3042 H3036 0.950 . S
C3042 C3043 1.327 . S
C3043 H3037 0.950 . S
C3043 C3042 1.327 . S
C3043 C3047 1.429 . S
C3044 C3027 1.574 . S
C3044 H3038 0.949 . S
C3044 C3048 1.368 . S
C3045 C3026 1.429 . S
C3045 C3039 1.429 . S
C3045 C3046 1.523 . S
C3046 C3027 1.368 . S
C3046 C3040 1.368 . S
C3046 C3045 1.523 . S
C3047 C3031 1.429 . S
C3047 C3043 1.429 . S
C3047 C3048 1.523 . S
C3048 C3032 1.368 . S
C3048 C3044 1.368 . S
C3048 C3047 1.523 . S
H3049 C3024 0.950 . S
H3050 C3026 0.950 . S
H3051 C3027 0.949 . S
H3052 C3029 0.950 . S
H3053 C3031 0.950 . S
C3054 C3055 1.349 . S
C3054 C3056 1.327 . S
C3054 H3079 0.950 . S
C3055 C3054 1.349 . S
C3055 C3071 1.349 . S
C3056 C3054 1.327 . S
C3056 C3075 1.429 . S
C3056 H3080 0.950 . S
C3057 C3074 1.574 . S
C3057 C3076 1.368 . S
C3057 H3081 0.949 . S
H3058 C3062 0.949 . S
C3059 C3060 1.349 . S
C3059 C3061 1.327 . S
C3059 H3082 0.950 . S
C3060 C3059 1.349 . S
C3060 C3072 1.349 . S
C3061 C3059 1.327 . S
C3061 C3077 1.429 . S
C3061 H3083 0.950 . S
C3062 H3058 0.949 . S
C3062 C3070 1.574 . S
C3062 C3078 1.368 . S
H3063 C3071 0.950 . S
H3064 C3069 0.950 . S
H3065 C3070 0.949 . S
H3066 C3072 0.950 . S
H3067 C3073 0.950 . S
H3068 C3074 0.949 . S
C3069 H3064 0.950 . S
C3069 C3071 1.327 . S
C3069 C3075 1.429 . S
C3070 C3062 1.574 . S
C3070 H3065 0.949 . S
C3070 C3076 1.368 . S
C3071 C3055 1.349 . S
C3071 H3063 0.950 . S
C3071 C3069 1.327 . S
C3072 C3060 1.349 . S
C3072 H3066 0.950 . S
C3072 C3073 1.327 . S
C3073 H3067 0.950 . S
C3073 C3072 1.327 . S
C3073 C3077 1.429 . S
C3074 C3057 1.574 . S
C3074 H3068 0.949 . S
C3074 C3078 1.368 . S
C3075 C3056 1.429 . S
C3075 C3069 1.429 . S
C3075 C3076 1.523 . S
C3076 C3057 1.368 . S
C3076 C3070 1.368 . S
C3076 C3075 1.523 . S
C3077 C3061 1.429 . S
C3077 C3073 1.429 . S
C3077 C3078 1.523 . S
C3078 C3062 1.368 . S
C3078 C3074 1.368 . S
C3078 C3077 1.523 . S
H3079 C3054 0.950 . S
H3080 C3056 0.950 . S
H3081 C3057 0.949 . S
H3082 C3059 0.950 . S
H3083 C3061 0.950 . S
C3084 C3085 1.349 . S
C3084 C3086 1.327 . S
C3084 H3109 0.950 . S
C3085 C3084 1.349 . S
C3085 C3101 1.349 . S
C3086 C3084 1.327 . S
C3086 C3105 1.429 . S
C3086 H3110 0.950 . S
C3087 C3104 1.574 . S
C3087 C3106 1.368 . S
C3087 H3111 0.949 . S
H3088 C3092 0.949 . S
C3089 C3090 1.349 . S
C3089 C3091 1.327 . S
C3089 H3112 0.950 . S
C3090 C3089 1.349 . S
C3090 C3102 1.349 . S
C3091 C3089 1.327 . S
C3091 C3107 1.429 . S
C3091 H3113 0.950 . S
C3092 H3088 0.949 . S
C3092 C3100 1.574 . S
C3092 C3108 1.368 . S
H3093 C3101 0.950 . S
H3094 C3099 0.950 . S
H3095 C3100 0.949 . S
H3096 C3102 0.950 . S
H3097 C3103 0.950 . S
H3098 C3104 0.949 . S
C3099 H3094 0.950 . S
C3099 C3101 1.327 . S
C3099 C3105 1.429 . S
C3100 C3092 1.574 . S
C3100 H3095 0.949 . S
C3100 C3106 1.368 . S
C3101 C3085 1.349 . S
C3101 H3093 0.950 . S
C3101 C3099 1.327 . S
C3102 C3090 1.349 . S
C3102 H3096 0.950 . S
C3102 C3103 1.327 . S
C3103 H3097 0.950 . S
C3103 C3102 1.327 . S
C3103 C3107 1.429 . S
C3104 C3087 1.574 . S
C3104 H3098 0.949 . S
C3104 C3108 1.368 . S
C3105 C3086 1.429 . S
C3105 C3099 1.429 . S
C3105 C3106 1.523 . S
C3106 C3087 1.368 . S
C3106 C3100 1.368 . S
C3106 C3105 1.523 . S
C3107 C3091 1.429 . S
C3107 C3103 1.429 . S
C3107 C3108 1.523 . S
C3108 C3092 1.368 . S
C3108 C3104 1.368 . S
C3108 C3107 1.523 . S
H3109 C3084 0.950 . S
H3110 C3086 0.950 . S
H3111 C3087 0.949 . S
H3112 C3089 0.950 . S
H3113 C3091 0.950 . S
C3114 C3115 1.349 . S
C3114 C3116 1.327 . S
C3114 H3139 0.950 . S
C3115 C3114 1.349 . S
C3115 C3131 1.349 . S
C3116 C3114 1.327 . S
C3116 C3135 1.429 . S
C3116 H3140 0.950 . S
C3117 C3134 1.574 . S
C3117 C3136 1.368 . S
C3117 H3141 0.949 . S
H3118 C3122 0.949 . S
C3119 C3120 1.349 . S
C3119 C3121 1.327 . S
C3119 H3142 0.950 . S
C3120 C3119 1.349 . S
C3120 C3132 1.349 . S
C3121 C3119 1.327 . S
C3121 C3137 1.429 . S
C3121 H3143 0.950 . S
C3122 H3118 0.949 . S
C3122 C3130 1.574 . S
C3122 C3138 1.368 . S
H3123 C3131 0.950 . S
H3124 C3129 0.950 . S
H3125 C3130 0.949 . S
H3126 C3132 0.950 . S
H3127 C3133 0.950 . S
H3128 C3134 0.949 . S
C3129 H3124 0.950 . S
C3129 C3131 1.327 . S
C3129 C3135 1.429 . S
C3130 C3122 1.574 . S
C3130 H3125 0.949 . S
C3130 C3136 1.368 . S
C3131 C3115 1.349 . S
C3131 H3123 0.950 . S
C3131 C3129 1.327 . S
C3132 C3120 1.349 . S
C3132 H3126 0.950 . S
C3132 C3133 1.327 . S
C3133 H3127 0.950 . S
C3133 C3132 1.327 . S
C3133 C3137 1.429 . S
C3134 C3117 1.574 . S
C3134 H3128 0.949 . S
C3134 C3138 1.368 . S
C3135 C3116 1.429 . S
C3135 C3129 1.429 . S
C3135 C3136 1.523 . S
C3136 C3117 1.368 . S
C3136 C3130 1.368 . S
C3136 C3135 1.523 . S
C3137 C3121 1.429 . S
C3137 C3133 1.429 . S
C3137 C3138 1.523 . S
C3138 C3122 1.368 . S
C3138 C3134 1.368 . S
C3138 C3137 1.523 . S
H3139 C3114 0.950 . S
H3140 C3116 0.950 . S
H3141 C3117 0.949 . S
H3142 C3119 0.950 . S
H3143 C3121 0.950 . S
C3144 C3145 1.349 . S
C3144 C3146 1.327 . S
C3144 H3169 0.950 . S
C3145 C3144 1.349 . S
C3145 C3161 1.349 . S
C3146 C3144 1.327 . S
C3146 C3165 1.429 . S
C3146 H3170 0.950 . S
C3147 C3164 1.574 . S
C3147 C3166 1.368 . S
C3147 H3171 0.949 . S
H3148 C3152 0.949 . S
C3149 C3150 1.349 . S
C3149 C3151 1.327 . S
C3149 H3172 0.950 . S
C3150 C3149 1.349 . S
C3150 C3162 1.349 . S
C3151 C3149 1.327 . S
C3151 C3167 1.429 . S
C3151 H3173 0.950 . S
C3152 H3148 0.949 . S
C3152 C3160 1.574 . S
C3152 C3168 1.368 . S
H3153 C3161 0.950 . S
H3154 C3159 0.950 . S
H3155 C3160 0.949 . S
H3156 C3162 0.950 . S
H3157 C3163 0.950 . S
H3158 C3164 0.949 . S
C3159 H3154 0.950 . S
C3159 C3161 1.327 . S
C3159 C3165 1.429 . S
C3160 C3152 1.574 . S
C3160 H3155 0.949 . S
C3160 C3166 1.368 . S
C3161 C3145 1.349 . S
C3161 H3153 0.950 . S
C3161 C3159 1.327 . S
C3162 C3150 1.349 . S
C3162 H3156 0.950 . S
C3162 C3163 1.327 . S
C3163 H3157 0.950 . S
C3163 C3162 1.327 . S
C3163 C3167 1.429 . S
C3164 C3147 1.574 . S
C3164 H3158 0.949 . S
C3164 C3168 1.368 . S
C3165 C3146 1.429 . S
C3165 C3159 1.429 . S
C3165 C3166 1.523 . S
C3166 C3147 1.368 . S
C3166 C3160 1.368 . S
C3166 C3165 1.523 . S
C3167 C3151 1.429 . S
C3167 C3163 1.429 . S
C3167 C3168 1.523 . S
C3168 C3152 1.368 . S
C3168 C3164 1.368 . S
C3168 C3167 1.523 . S
H3169 C3144 0.950 . S
H3170 C3146 0.950 . S
H3171 C3147 0.949 . S
H3172 C3149 0.950 . S
H3173 C3151 0.950 . S
C3174 C3175 1.349 . S
C3174 C3176 1.327 . S
C3174 H3199 0.950 . S
C3175 C3174 1.349 . S
C3175 C3191 1.349 . S
C3176 C3174 1.327 . S
C3176 C3195 1.429 . S
C3176 H3200 0.950 . S
C3177 C3194 1.574 . S
C3177 C3196 1.368 . S
C3177 H3201 0.949 . S
H3178 C3182 0.949 . S
C3179 C3180 1.349 . S
C3179 C3181 1.327 . S
C3179 H3202 0.950 . S
C3180 C3179 1.349 . S
C3180 C3192 1.349 . S
C3181 C3179 1.327 . S
C3181 C3197 1.429 . S
C3181 H3203 0.950 . S
C3182 H3178 0.949 . S
C3182 C3190 1.574 . S
C3182 C3198 1.368 . S
H3183 C3191 0.950 . S
H3184 C3189 0.950 . S
H3185 C3190 0.949 . S
H3186 C3192 0.950 . S
H3187 C3193 0.950 . S
H3188 C3194 0.949 . S
C3189 H3184 0.950 . S
C3189 C3191 1.327 . S
C3189 C3195 1.429 . S
C3190 C3182 1.574 . S
C3190 H3185 0.949 . S
C3190 C3196 1.368 . S
C3191 C3175 1.349 . S
C3191 H3183 0.950 . S
C3191 C3189 1.327 . S
C3192 C3180 1.349 . S
C3192 H3186 0.950 . S
C3192 C3193 1.327 . S
C3193 H3187 0.950 . S
C3193 C3192 1.327 . S
C3193 C3197 1.429 . S
C3194 C3177 1.574 . S
C3194 H3188 0.949 . S
C3194 C3198 1.368 . S
C3195 C3176 1.429 . S
C3195 C3189 1.429 . S
C3195 C3196 1.523 . S
C3196 C3177 1.368 . S
C3196 C3190 1.368 . S
C3196 C3195 1.523 . S
C3197 C3181 1.429 . S
C3197 C3193 1.429 . S
C3197 C3198 1.523 . S
C3198 C3182 1.368 . S
C3198 C3194 1.368 . S
C3198 C3197 1.523 . S
H3199 C3174 0.950 . S
H3200 C3176 0.950 . S
H3201 C3177 0.949 . S
H3202 C3179 0.950 . S
H3203 C3181 0.950 . S
C3204 C3205 1.349 . S
C3204 C3206 1.327 . S
C3204 H3229 0.950 . S
C3205 C3204 1.349 . S
C3205 C3221 1.349 . S
C3206 C3204 1.327 . S
C3206 C3225 1.429 . S
C3206 H3230 0.950 . S
C3207 C3224 1.574 . S
C3207 C3226 1.368 . S
C3207 H3231 0.949 . S
H3208 C3212 0.949 . S
C3209 C3210 1.349 . S
C3209 C3211 1.327 . S
C3209 H3232 0.950 . S
C3210 C3209 1.349 . S
C3210 C3222 1.349 . S
C3211 C3209 1.327 . S
C3211 C3227 1.429 . S
C3211 H3233 0.950 . S
C3212 H3208 0.949 . S
C3212 C3220 1.574 . S
C3212 C3228 1.368 . S
H3213 C3221 0.950 . S
H3214 C3219 0.950 . S
H3215 C3220 0.949 . S
H3216 C3222 0.950 . S
H3217 C3223 0.950 . S
H3218 C3224 0.949 . S
C3219 H3214 0.950 . S
C3219 C3221 1.327 . S
C3219 C3225 1.429 . S
C3220 C3212 1.574 . S
C3220 H3215 0.949 . S
C3220 C3226 1.368 . S
C3221 C3205 1.349 . S
C3221 H3213 0.950 . S
C3221 C3219 1.327 . S
C3222 C3210 1.349 . S
C3222 H3216 0.950 . S
C3222 C3223 1.327 . S
C3223 H3217 0.950 . S
C3223 C3222 1.327 . S
C3223 C3227 1.429 . S
C3224 C3207 1.574 . S
C3224 H3218 0.949 . S
C3224 C3228 1.368 . S
C3225 C3206 1.429 . S
C3225 C3219 1.429 . S
C3225 C3226 1.523 . S
C3226 C3207 1.368 . S
C3226 C3220 1.368 . S
C3226 C3225 1.523 . S
C3227 C3211 1.429 . S
C3227 C3223 1.429 . S
C3227 C3228 1.523 . S
C3228 C3212 1.368 . S
C3228 C3224 1.368 . S
C3228 C3227 1.523 . S
H3229 C3204 0.950 . S
H3230 C3206 0.950 . S
H3231 C3207 0.949 . S
H3232 C3209 0.950 . S
H3233 C3211 0.950 . S
C3234 C3235 1.349 . S
C3234 C3236 1.327 . S
C3234 H3259 0.950 . S
C3235 C3234 1.349 . S
C3235 C3251 1.349 . S
C3236 C3234 1.327 . S
C3236 C3255 1.429 . S
C3236 H3260 0.950 . S
C3237 C3254 1.574 . S
C3237 C3256 1.368 . S
C3237 H3261 0.949 . S
H3238 C3242 0.949 . S
C3239 C3240 1.349 . S
C3239 C3241 1.327 . S
C3239 H3262 0.950 . S
C3240 C3239 1.349 . S
C3240 C3252 1.349 . S
C3241 C3239 1.327 . S
C3241 C3257 1.429 . S
C3241 H3263 0.950 . S
C3242 H3238 0.949 . S
C3242 C3250 1.574 . S
C3242 C3258 1.368 . S
H3243 C3251 0.950 . S
H3244 C3249 0.950 . S
H3245 C3250 0.949 . S
H3246 C3252 0.950 . S
H3247 C3253 0.950 . S
H3248 C3254 0.949 . S
C3249 H3244 0.950 . S
C3249 C3251 1.327 . S
C3249 C3255 1.429 . S
C3250 C3242 1.574 . S
C3250 H3245 0.949 . S
C3250 C3256 1.368 . S
C3251 C3235 1.349 . S
C3251 H3243 0.950 . S
C3251 C3249 1.327 . S
C3252 C3240 1.349 . S
C3252 H3246 0.950 . S
C3252 C3253 1.327 . S
C3253 H3247 0.950 . S
C3253 C3252 1.327 . S
C3253 C3257 1.429 . S
C3254 C3237 1.574 . S
C3254 H3248 0.949 . S
C3254 C3258 1.368 . S
C3255 C3236 1.429 . S
C3255 C3249 1.429 . S
C3255 C3256 1.523 . S
C3256 C3237 1.368 . S
C3256 C3250 1.368 . S
C3256 C3255 1.523 . S
C3257 C3241 1.429 . S
C3257 C3253 1.429 . S
C3257 C3258 1.523 . S
C3258 C3242 1.368 . S
C3258 C3254 1.368 . S
C3258 C3257 1.523 . S
H3259 C3234 0.950 . S
H3260 C3236 0.950 . S
H3261 C3237 0.949 . S
H3262 C3239 0.950 . S
H3263 C3241 0.950 . S
C3264 C3265 1.349 . S
C3264 C3266 1.327 . S
C3264 H3289 0.950 . S
C3265 C3264 1.349 . S
C3265 C3281 1.349 . S
C3266 C3264 1.327 . S
C3266 C3285 1.429 . S
C3266 H3290 0.950 . S
C3267 C3284 1.574 . S
C3267 C3286 1.368 . S
C3267 H3291 0.949 . S
H3268 C3272 0.949 . S
C3269 C3270 1.349 . S
C3269 C3271 1.327 . S
C3269 H3292 0.950 . S
C3270 C3269 1.349 . S
C3270 C3282 1.349 . S
C3271 C3269 1.327 . S
C3271 C3287 1.429 . S
C3271 H3293 0.950 . S
C3272 H3268 0.949 . S
C3272 C3280 1.574 . S
C3272 C3288 1.368 . S
H3273 C3281 0.950 . S
H3274 C3279 0.950 . S
H3275 C3280 0.949 . S
H3276 C3282 0.950 . S
H3277 C3283 0.950 . S
H3278 C3284 0.949 . S
C3279 H3274 0.950 . S
C3279 C3281 1.327 . S
C3279 C3285 1.429 . S
C3280 C3272 1.574 . S
C3280 H3275 0.949 . S
C3280 C3286 1.368 . S
C3281 C3265 1.349 . S
C3281 H3273 0.950 . S
C3281 C3279 1.327 . S
C3282 C3270 1.349 . S
C3282 H3276 0.950 . S
C3282 C3283 1.327 . S
C3283 H3277 0.950 . S
C3283 C3282 1.327 . S
C3283 C3287 1.429 . S
C3284 C3267 1.574 . S
C3284 H3278 0.949 . S
C3284 C3288 1.368 . S
C3285 C3266 1.429 . S
C3285 C3279 1.429 . S
C3285 C3286 1.523 . S
C3286 C3267 1.368 . S
C3286 C3280 1.368 . S
C3286 C3285 1.523 . S
C3287 C3271 1.429 . S
C3287 C3283 1.429 . S
C3287 C3288 1.523 . S
C3288 C3272 1.368 . S
C3288 C3284 1.368 . S
C3288 C3287 1.523 . S
H3289 C3264 0.950 . S
H3290 C3266 0.950 . S
H3291 C3267 0.949 . S
H3292 C3269 0.950 . S
H3293 C3271 0.950 . S
C3294 C3295 1.349 . S
C3294 C3296 1.327 . S
C3294 H3319 0.950 . S
C3295 C3294 1.349 . S
C3295 C3311 1.349 . S
C3296 C3294 1.327 . S
C3296 C3315 1.429 . S
C3296 H3320 0.950 . S
C3297 C3314 1.574 . S
C3297 C3316 1.368 . S
C3297 H3321 0.949 . S
H3298 C3302 0.949 . S
C3299 C3300 1.349 . S
C3299 C3301 1.327 . S
C3299 H3322 0.950 . S
C3300 C3299 1.349 . S
C3300 C3312 1.349 . S
C3301 C3299 1.327 . S
C3301 C3317 1.429 . S
C3301 H3323 0.950 . S
C3302 H3298 0.949 . S
C3302 C3310 1.574 . S
C3302 C3318 1.368 . S
H3303 C3311 0.950 . S
H3304 C3309 0.950 . S
H3305 C3310 0.949 . S
H3306 C3312 0.950 . S
H3307 C3313 0.950 . S
H3308 C3314 0.949 . S
C3309 H3304 0.950 . S
C3309 C3311 1.327 . S
C3309 C3315 1.429 . S
C3310 C3302 1.574 . S
C3310 H3305 0.949 . S
C3310 C3316 1.368 . S
C3311 C3295 1.349 . S
C3311 H3303 0.950 . S
C3311 C3309 1.327 . S
C3312 C3300 1.349 . S
C3312 H3306 0.950 . S
C3312 C3313 1.327 . S
C3313 H3307 0.950 . S
C3313 C3312 1.327 . S
C3313 C3317 1.429 . S
C3314 C3297 1.574 . S
C3314 H3308 0.949 . S
C3314 C3318 1.368 . S
C3315 C3296 1.429 . S
C3315 C3309 1.429 . S
C3315 C3316 1.523 . S
C3316 C3297 1.368 . S
C3316 C3310 1.368 . S
C3316 C3315 1.523 . S
C3317 C3301 1.429 . S
C3317 C3313 1.429 . S
C3317 C3318 1.523 . S
C3318 C3302 1.368 . S
C3318 C3314 1.368 . S
C3318 C3317 1.523 . S
H3319 C3294 0.950 . S
H3320 C3296 0.950 . S
H3321 C3297 0.949 . S
H3322 C3299 0.950 . S
H3323 C3301 0.950 . S
C3324 C3325 1.349 . S
C3324 C3326 1.327 . S
C3324 H3349 0.950 . S
C3325 C3324 1.349 . S
C3325 C3341 1.349 . S
C3326 C3324 1.327 . S
C3326 C3345 1.429 . S
C3326 H3350 0.950 . S
C3327 C3344 1.574 . S
C3327 C3346 1.368 . S
C3327 H3351 0.949 . S
H3328 C3332 0.949 . S
C3329 C3330 1.349 . S
C3329 C3331 1.327 . S
C3329 H3352 0.950 . S
C3330 C3329 1.349 . S
C3330 C3342 1.349 . S
C3331 C3329 1.327 . S
C3331 C3347 1.429 . S
C3331 H3353 0.950 . S
C3332 H3328 0.949 . S
C3332 C3340 1.574 . S
C3332 C3348 1.368 . S
H3333 C3341 0.950 . S
H3334 C3339 0.950 . S
H3335 C3340 0.949 . S
H3336 C3342 0.950 . S
H3337 C3343 0.950 . S
H3338 C3344 0.949 . S
C3339 H3334 0.950 . S
C3339 C3341 1.327 . S
C3339 C3345 1.429 . S
C3340 C3332 1.574 . S
C3340 H3335 0.949 . S
C3340 C3346 1.368 . S
C3341 C3325 1.349 . S
C3341 H3333 0.950 . S
C3341 C3339 1.327 . S
C3342 C3330 1.349 . S
C3342 H3336 0.950 . S
C3342 C3343 1.327 . S
C3343 H3337 0.950 . S
C3343 C3342 1.327 . S
C3343 C3347 1.429 . S
C3344 C3327 1.574 . S
C3344 H3338 0.949 . S
C3344 C3348 1.368 . S
C3345 C3326 1.429 . S
C3345 C3339 1.429 . S
C3345 C3346 1.523 . S
C3346 C3327 1.368 . S
C3346 C3340 1.368 . S
C3346 C3345 1.523 . S
C3347 C3331 1.429 . S
C3347 C3343 1.429 . S
C3347 C3348 1.523 . S
C3348 C3332 1.368 . S
C3348 C3344 1.368 . S
C3348 C3347 1.523 . S
H3349 C3324 0.950 . S
H3350 C3326 0.950 . S
H3351 C3327 0.949 . S
H3352 C3329 0.950 . S
H3353 C3331 0.950 . S
C3354 C3355 1.349 . S
C3354 C3356 1.327 . S
C3354 H3379 0.950 . S
C3355 C3354 1.349 . S
C3355 C3371 1.349 . S
C3356 C3354 1.327 . S
C3356 C3375 1.429 . S
C3356 H3380 0.950 . S
C3357 C3374 1.574 . S
C3357 C3376 1.368 . S
C3357 H3381 0.949 . S
H3358 C3362 0.949 . S
C3359 C3360 1.349 . S
C3359 C3361 1.327 . S
C3359 H3382 0.950 . S
C3360 C3359 1.349 . S
C3360 C3372 1.349 . S
C3361 C3359 1.327 . S
C3361 C3377 1.429 . S
C3361 H3383 0.950 . S
C3362 H3358 0.949 . S
C3362 C3370 1.574 . S
C3362 C3378 1.368 . S
H3363 C3371 0.950 . S
H3364 C3369 0.950 . S
H3365 C3370 0.949 . S
H3366 C3372 0.950 . S
H3367 C3373 0.950 . S
H3368 C3374 0.949 . S
C3369 H3364 0.950 . S
C3369 C3371 1.327 . S
C3369 C3375 1.429 . S
C3370 C3362 1.574 . S
C3370 H3365 0.949 . S
C3370 C3376 1.368 . S
C3371 C3355 1.349 . S
C3371 H3363 0.950 . S
C3371 C3369 1.327 . S
C3372 C3360 1.349 . S
C3372 H3366 0.950 . S
C3372 C3373 1.327 . S
C3373 H3367 0.950 . S
C3373 C3372 1.327 . S
C3373 C3377 1.429 . S
C3374 C3357 1.574 . S
C3374 H3368 0.949 . S
C3374 C3378 1.368 . S
C3375 C3356 1.429 . S
C3375 C3369 1.429 . S
C3375 C3376 1.523 . S
C3376 C3357 1.368 . S
C3376 C3370 1.368 . S
C3376 C3375 1.523 . S
C3377 C3361 1.429 . S
C3377 C3373 1.429 . S
C3377 C3378 1.523 . S
C3378 C3362 1.368 . S
C3378 C3374 1.368 . S
C3378 C3377 1.523 . S
H3379 C3354 0.950 . S
H3380 C3356 0.950 . S
H3381 C3357 0.949 . S
H3382 C3359 0.950 . S
H3383 C3361 0.950 . S
C3384 C3385 1.349 . S
C3384 C3386 1.327 . S
C3384 H3409 0.950 . S
C3385 C3384 1.349 . S
C3385 C3401 1.349 . S
C3386 C3384 1.327 . S
C3386 C3405 1.429 . S
C3386 H3410 0.950 . S
C3387 C3404 1.574 . S
C3387 C3406 1.368 . S
C3387 H3411 0.949 . S
H3388 C3392 0.949 . S
C3389 C3390 1.349 . S
C3389 C3391 1.327 . S
C3389 H3412 0.950 . S
C3390 C3389 1.349 . S
C3390 C3402 1.349 . S
C3391 C3389 1.327 . S
C3391 C3407 1.429 . S
C3391 H3413 0.950 . S
C3392 H3388 0.949 . S
C3392 C3400 1.574 . S
C3392 C3408 1.368 . S
H3393 C3401 0.950 . S
H3394 C3399 0.950 . S
H3395 C3400 0.949 . S
H3396 C3402 0.950 . S
H3397 C3403 0.950 . S
H3398 C3404 0.949 . S
C3399 H3394 0.950 . S
C3399 C3401 1.327 . S
C3399 C3405 1.429 . S
C3400 C3392 1.574 . S
C3400 H3395 0.949 . S
C3400 C3406 1.368 . S
C3401 C3385 1.349 . S
C3401 H3393 0.950 . S
C3401 C3399 1.327 . S
C3402 C3390 1.349 . S
C3402 H3396 0.950 . S
C3402 C3403 1.327 . S
C3403 H3397 0.950 . S
C3403 C3402 1.327 . S
C3403 C3407 1.429 . S
C3404 C3387 1.574 . S
C3404 H3398 0.949 . S
C3404 C3408 1.368 . S
C3405 C3386 1.429 . S
C3405 C3399 1.429 . S
C3405 C3406 1.523 . S
C3406 C3387 1.368 . S
C3406 C3400 1.368 . S
C3406 C3405 1.523 . S
C3407 C3391 1.429 . S
C3407 C3403 1.429 . S
C3407 C3408 1.523 . S
C3408 C3392 1.368 . S
C3408 C3404 1.368 . S
C3408 C3407 1.523 . S
H3409 C3384 0.950 . S
H3410 C3386 0.950 . S
H3411 C3387 0.949 . S
H3412 C3389 0.950 . S
H3413 C3391 0.950 . S
C3414 C3415 1.349 . S
C3414 C3416 1.327 . S
C3414 H3439 0.950 . S
C3415 C3414 1.349 . S
C3415 C3431 1.349 . S
C3416 C3414 1.327 . S
C3416 C3435 1.429 . S
C3416 H3440 0.950 . S
C3417 C3434 1.574 . S
C3417 C3436 1.368 . S
C3417 H3441 0.949 . S
H3418 C3422 0.949 . S
C3419 C3420 1.349 . S
C3419 C3421 1.327 . S
C3419 H3442 0.950 . S
C3420 C3419 1.349 . S
C3420 C3432 1.349 . S
C3421 C3419 1.327 . S
C3421 C3437 1.429 . S
C3421 H3443 0.950 . S
C3422 H3418 0.949 . S
C3422 C3430 1.574 . S
C3422 C3438 1.368 . S
H3423 C3431 0.950 . S
H3424 C3429 0.950 . S
H3425 C3430 0.949 . S
H3426 C3432 0.950 . S
H3427 C3433 0.950 . S
H3428 C3434 0.949 . S
C3429 H3424 0.950 . S
C3429 C3431 1.327 . S
C3429 C3435 1.429 . S
C3430 C3422 1.574 . S
C3430 H3425 0.949 . S
C3430 C3436 1.368 . S
C3431 C3415 1.349 . S
C3431 H3423 0.950 . S
C3431 C3429 1.327 . S
C3432 C3420 1.349 . S
C3432 H3426 0.950 . S
C3432 C3433 1.327 . S
C3433 H3427 0.950 . S
C3433 C3432 1.327 . S
C3433 C3437 1.429 . S
C3434 C3417 1.574 . S
C3434 H3428 0.949 . S
C3434 C3438 1.368 . S
C3435 C3416 1.429 . S
C3435 C3429 1.429 . S
C3435 C3436 1.523 . S
C3436 C3417 1.368 . S
C3436 C3430 1.368 . S
C3436 C3435 1.523 . S
C3437 C3421 1.429 . S
C3437 C3433 1.429 . S
C3437 C3438 1.523 . S
C3438 C3422 1.368 . S
C3438 C3434 1.368 . S
C3438 C3437 1.523 . S
H3439 C3414 0.950 . S
H3440 C3416 0.950 . S
H3441 C3417 0.949 . S
H3442 C3419 0.950 . S
H3443 C3421 0.950 . S
C3444 C3445 1.349 . S
C3444 C3446 1.327 . S
C3444 H3469 0.950 . S
C3445 C3444 1.349 . S
C3445 C3461 1.349 . S
C3446 C3444 1.327 . S
C3446 C3465 1.429 . S
C3446 H3470 0.950 . S
C3447 C3464 1.574 . S
C3447 C3466 1.368 . S
C3447 H3471 0.949 . S
H3448 C3452 0.949 . S
C3449 C3450 1.349 . S
C3449 C3451 1.327 . S
C3449 H3472 0.950 . S
C3450 C3449 1.349 . S
C3450 C3462 1.349 . S
C3451 C3449 1.327 . S
C3451 C3467 1.429 . S
C3451 H3473 0.950 . S
C3452 H3448 0.949 . S
C3452 C3460 1.574 . S
C3452 C3468 1.368 . S
H3453 C3461 0.950 . S
H3454 C3459 0.950 . S
H3455 C3460 0.949 . S
H3456 C3462 0.950 . S
H3457 C3463 0.950 . S
H3458 C3464 0.949 . S
C3459 H3454 0.950 . S
C3459 C3461 1.327 . S
C3459 C3465 1.429 . S
C3460 C3452 1.574 . S
C3460 H3455 0.949 . S
C3460 C3466 1.368 . S
C3461 C3445 1.349 . S
C3461 H3453 0.950 . S
C3461 C3459 1.327 . S
C3462 C3450 1.349 . S
C3462 H3456 0.950 . S
C3462 C3463 1.327 . S
C3463 H3457 0.950 . S
C3463 C3462 1.327 . S
C3463 C3467 1.429 . S
C3464 C3447 1.574 . S
C3464 H3458 0.949 . S
C3464 C3468 1.368 . S
C3465 C3446 1.429 . S
C3465 C3459 1.429 . S
C3465 C3466 1.523 . S
C3466 C3447 1.368 . S
C3466 C3460 1.368 . S
C3466 C3465 1.523 . S
C3467 C3451 1.429 . S
C3467 C3463 1.429 . S
C3467 C3468 1.523 . S
C3468 C3452 1.368 . S
C3468 C3464 1.368 . S
C3468 C3467 1.523 . S
H3469 C3444 0.950 . S
H3470 C3446 0.950 . S
H3471 C3447 0.949 . S
H3472 C3449 0.950 . S
H3473 C3451 0.950 . S
C3474 C3475 1.349 . S
C3474 C3476 1.327 . S
C3474 H3499 0.950 . S
C3475 C3474 1.349 . S
C3475 C3491 1.349 . S
C3476 C3474 1.327 . S
C3476 C3495 1.429 . S
C3476 H3500 0.950 . S
C3477 C3494 1.574 . S
C3477 C3496 1.368 . S
C3477 H3501 0.949 . S
H3478 C3482 0.949 . S
C3479 C3480 1.349 . S
C3479 C3481 1.327 . S
C3479 H3502 0.950 . S
C3480 C3479 1.349 . S
C3480 C3492 1.349 . S
C3481 C3479 1.327 . S
C3481 C3497 1.429 . S
C3481 H3503 0.950 . S
C3482 H3478 0.949 . S
C3482 C3490 1.574 . S
C3482 C3498 1.368 . S
H3483 C3491 0.950 . S
H3484 C3489 0.950 . S
H3485 C3490 0.949 . S
H3486 C3492 0.950 . S
H3487 C3493 0.950 . S
H3488 C3494 0.949 . S
C3489 H3484 0.950 . S
C3489 C3491 1.327 . S
C3489 C3495 1.429 . S
C3490 C3482 1.574 . S
C3490 H3485 0.949 . S
C3490 C3496 1.368 . S
C3491 C3475 1.349 . S
C3491 H3483 0.950 . S
C3491 C3489 1.327 . S
C3492 C3480 1.349 . S
C3492 H3486 0.950 . S
C3492 C3493 1.327 . S
C3493 H3487 0.950 . S
C3493 C3492 1.327 . S
C3493 C3497 1.429 . S
C3494 C3477 1.574 . S
C3494 H3488 0.949 . S
C3494 C3498 1.368 . S
C3495 C3476 1.429 . S
C3495 C3489 1.429 . S
C3495 C3496 1.523 . S
C3496 C3477 1.368 . S
C3496 C3490 1.368 . S
C3496 C3495 1.523 . S
C3497 C3481 1.429 . S
C3497 C3493 1.429 . S
C3497 C3498 1.523 . S
C3498 C3482 1.368 . S
C3498 C3494 1.368 . S
C3498 C3497 1.523 . S
H3499 C3474 0.950 . S
H3500 C3476 0.950 . S
H3501 C3477 0.949 . S
H3502 C3479 0.950 . S
H3503 C3481 0.950 . S
C3504 C3505 1.349 . S
C3504 C3506 1.327 . S
C3504 H3529 0.950 . S
C3505 C3504 1.349 . S
C3505 C3521 1.349 . S
C3506 C3504 1.327 . S
C3506 C3525 1.429 . S
C3506 H3530 0.950 . S
C3507 C3524 1.574 . S
C3507 C3526 1.368 . S
C3507 H3531 0.949 . S
H3508 C3512 0.949 . S
C3509 C3510 1.349 . S
C3509 C3511 1.327 . S
C3509 H3532 0.950 . S
C3510 C3509 1.349 . S
C3510 C3522 1.349 . S
C3511 C3509 1.327 . S
C3511 C3527 1.429 . S
C3511 H3533 0.950 . S
C3512 H3508 0.949 . S
C3512 C3520 1.574 . S
C3512 C3528 1.368 . S
H3513 C3521 0.950 . S
H3514 C3519 0.950 . S
H3515 C3520 0.949 . S
H3516 C3522 0.950 . S
H3517 C3523 0.950 . S
H3518 C3524 0.949 . S
C3519 H3514 0.950 . S
C3519 C3521 1.327 . S
C3519 C3525 1.429 . S
C3520 C3512 1.574 . S
C3520 H3515 0.949 . S
C3520 C3526 1.368 . S
C3521 C3505 1.349 . S
C3521 H3513 0.950 . S
C3521 C3519 1.327 . S
C3522 C3510 1.349 . S
C3522 H3516 0.950 . S
C3522 C3523 1.327 . S
C3523 H3517 0.950 . S
C3523 C3522 1.327 . S
C3523 C3527 1.429 . S
C3524 C3507 1.574 . S
C3524 H3518 0.949 . S
C3524 C3528 1.368 . S
C3525 C3506 1.429 . S
C3525 C3519 1.429 . S
C3525 C3526 1.523 . S
C3526 C3507 1.368 . S
C3526 C3520 1.368 . S
C3526 C3525 1.523 . S
C3527 C3511 1.429 . S
C3527 C3523 1.429 . S
C3527 C3528 1.523 . S
C3528 C3512 1.368 . S
C3528 C3524 1.368 . S
C3528 C3527 1.523 . S
H3529 C3504 0.950 . S
H3530 C3506 0.950 . S
H3531 C3507 0.949 . S
H3532 C3509 0.950 . S
H3533 C3511 0.950 . S
C3534 C3535 1.349 . S
C3534 C3536 1.327 . S
C3534 H3559 0.950 . S
C3535 C3534 1.349 . S
C3535 C3551 1.349 . S
C3536 C3534 1.327 . S
C3536 C3555 1.429 . S
C3536 H3560 0.950 . S
C3537 C3554 1.574 . S
C3537 C3556 1.368 . S
C3537 H3561 0.949 . S
H3538 C3542 0.949 . S
C3539 C3540 1.349 . S
C3539 C3541 1.327 . S
C3539 H3562 0.950 . S
C3540 C3539 1.349 . S
C3540 C3552 1.349 . S
C3541 C3539 1.327 . S
C3541 C3557 1.429 . S
C3541 H3563 0.950 . S
C3542 H3538 0.949 . S
C3542 C3550 1.574 . S
C3542 C3558 1.368 . S
H3543 C3551 0.950 . S
H3544 C3549 0.950 . S
H3545 C3550 0.949 . S
H3546 C3552 0.950 . S
H3547 C3553 0.950 . S
H3548 C3554 0.949 . S
C3549 H3544 0.950 . S
C3549 C3551 1.327 . S
C3549 C3555 1.429 . S
C3550 C3542 1.574 . S
C3550 H3545 0.949 . S
C3550 C3556 1.368 . S
C3551 C3535 1.349 . S
C3551 H3543 0.950 . S
C3551 C3549 1.327 . S
C3552 C3540 1.349 . S
C3552 H3546 0.950 . S
C3552 C3553 1.327 . S
C3553 H3547 0.950 . S
C3553 C3552 1.327 . S
C3553 C3557 1.429 . S
C3554 C3537 1.574 . S
C3554 H3548 0.949 . S
C3554 C3558 1.368 . S
C3555 C3536 1.429 . S
C3555 C3549 1.429 . S
C3555 C3556 1.523 . S
C3556 C3537 1.368 . S
C3556 C3550 1.368 . S
C3556 C3555 1.523 . S
C3557 C3541 1.429 . S
C3557 C3553 1.429 . S
C3557 C3558 1.523 . S
C3558 C3542 1.368 . S
C3558 C3554 1.368 . S
C3558 C3557 1.523 . S
H3559 C3534 0.950 . S
H3560 C3536 0.950 . S
H3561 C3537 0.949 . S
H3562 C3539 0.950 . S
H3563 C3541 0.950 . S
C3564 C3565 1.349 . S
C3564 C3566 1.327 . S
C3564 H3589 0.950 . S
C3565 C3564 1.349 . S
C3565 C3581 1.349 . S
C3566 C3564 1.327 . S
C3566 C3585 1.429 . S
C3566 H3590 0.950 . S
C3567 C3584 1.574 . S
C3567 C3586 1.368 . S
C3567 H3591 0.949 . S
H3568 C3572 0.949 . S
C3569 C3570 1.349 . S
C3569 C3571 1.327 . S
C3569 H3592 0.950 . S
C3570 C3569 1.349 . S
C3570 C3582 1.349 . S
C3571 C3569 1.327 . S
C3571 C3587 1.429 . S
C3571 H3593 0.950 . S
C3572 H3568 0.949 . S
C3572 C3580 1.574 . S
C3572 C3588 1.368 . S
H3573 C3581 0.950 . S
H3574 C3579 0.950 . S
H3575 C3580 0.949 . S
H3576 C3582 0.950 . S
H3577 C3583 0.950 . S
H3578 C3584 0.949 . S
C3579 H3574 0.950 . S
C3579 C3581 1.327 . S
C3579 C3585 1.429 . S
C3580 C3572 1.574 . S
C3580 H3575 0.949 . S
C3580 C3586 1.368 . S
C3581 C3565 1.349 . S
C3581 H3573 0.950 . S
C3581 C3579 1.327 . S
C3582 C3570 1.349 . S
C3582 H3576 0.950 . S
C3582 C3583 1.327 . S
C3583 H3577 0.950 . S
C3583 C3582 1.327 . S
C3583 C3587 1.429 . S
C3584 C3567 1.574 . S
C3584 H3578 0.949 . S
C3584 C3588 1.368 . S
C3585 C3566 1.429 . S
C3585 C3579 1.429 . S
C3585 C3586 1.523 . S
C3586 C3567 1.368 . S
C3586 C3580 1.368 . S
C3586 C3585 1.523 . S
C3587 C3571 1.429 . S
C3587 C3583 1.429 . S
C3587 C3588 1.523 . S
C3588 C3572 1.368 . S
C3588 C3584 1.368 . S
C3588 C3587 1.523 . S
H3589 C3564 0.950 . S
H3590 C3566 0.950 . S
H3591 C3567 0.949 . S
H3592 C3569 0.950 . S
H3593 C3571 0.950 . S
C3594 C3595 1.349 . S
C3594 C3596 1.327 . S
C3594 H3619 0.950 . S
C3595 C3594 1.349 . S
C3595 C3611 1.349 . S
C3596 C3594 1.327 . S
C3596 C3615 1.429 . S
C3596 H3620 0.950 . S
C3597 C3614 1.574 . S
C3597 C3616 1.368 . S
C3597 H3621 0.949 . S
H3598 C3602 0.949 . S
C3599 C3600 1.349 . S
C3599 C3601 1.327 . S
C3599 H3622 0.950 . S
C3600 C3599 1.349 . S
C3600 C3612 1.349 . S
C3601 C3599 1.327 . S
C3601 C3617 1.429 . S
C3601 H3623 0.950 . S
C3602 H3598 0.949 . S
C3602 C3610 1.574 . S
C3602 C3618 1.368 . S
H3603 C3611 0.950 . S
H3604 C3609 0.950 . S
H3605 C3610 0.949 . S
H3606 C3612 0.950 . S
H3607 C3613 0.950 . S
H3608 C3614 0.949 . S
C3609 H3604 0.950 . S
C3609 C3611 1.327 . S
C3609 C3615 1.429 . S
C3610 C3602 1.574 . S
C3610 H3605 0.949 . S
C3610 C3616 1.368 . S
C3611 C3595 1.349 . S
C3611 H3603 0.950 . S
C3611 C3609 1.327 . S
C3612 C3600 1.349 . S
C3612 H3606 0.950 . S
C3612 C3613 1.327 . S
C3613 H3607 0.950 . S
C3613 C3612 1.327 . S
C3613 C3617 1.429 . S
C3614 C3597 1.574 . S
C3614 H3608 0.949 . S
C3614 C3618 1.368 . S
C3615 C3596 1.429 . S
C3615 C3609 1.429 . S
C3615 C3616 1.523 . S
C3616 C3597 1.368 . S
C3616 C3610 1.368 . S
C3616 C3615 1.523 . S
C3617 C3601 1.429 . S
C3617 C3613 1.429 . S
C3617 C3618 1.523 . S
C3618 C3602 1.368 . S
C3618 C3614 1.368 . S
C3618 C3617 1.523 . S
H3619 C3594 0.950 . S
H3620 C3596 0.950 . S
H3621 C3597 0.949 . S
H3622 C3599 0.950 . S
H3623 C3601 0.950 . S
C3624 C3625 1.349 . S
C3624 C3626 1.327 . S
C3624 H3649 0.950 . S
C3625 C3624 1.349 . S
C3625 C3641 1.349 . S
C3626 C3624 1.327 . S
C3626 C3645 1.429 . S
C3626 H3650 0.950 . S
C3627 C3644 1.574 . S
C3627 C3646 1.368 . S
C3627 H3651 0.949 . S
H3628 C3632 0.949 . S
C3629 C3630 1.349 . S
C3629 C3631 1.327 . S
C3629 H3652 0.950 . S
C3630 C3629 1.349 . S
C3630 C3642 1.349 . S
C3631 C3629 1.327 . S
C3631 C3647 1.429 . S
C3631 H3653 0.950 . S
C3632 H3628 0.949 . S
C3632 C3640 1.574 . S
C3632 C3648 1.368 . S
H3633 C3641 0.950 . S
H3634 C3639 0.950 . S
H3635 C3640 0.949 . S
H3636 C3642 0.950 . S
H3637 C3643 0.950 . S
H3638 C3644 0.949 . S
C3639 H3634 0.950 . S
C3639 C3641 1.327 . S
C3639 C3645 1.429 . S
C3640 C3632 1.574 . S
C3640 H3635 0.949 . S
C3640 C3646 1.368 . S
C3641 C3625 1.349 . S
C3641 H3633 0.950 . S
C3641 C3639 1.327 . S
C3642 C3630 1.349 . S
C3642 H3636 0.950 . S
C3642 C3643 1.327 . S
C3643 H3637 0.950 . S
C3643 C3642 1.327 . S
C3643 C3647 1.429 . S
C3644 C3627 1.574 . S
C3644 H3638 0.949 . S
C3644 C3648 1.368 . S
C3645 C3626 1.429 . S
C3645 C3639 1.429 . S
C3645 C3646 1.523 . S
C3646 C3627 1.368 . S
C3646 C3640 1.368 . S
C3646 C3645 1.523 . S
C3647 C3631 1.429 . S
C3647 C3643 1.429 . S
C3647 C3648 1.523 . S
C3648 C3632 1.368 . S
C3648 C3644 1.368 . S
C3648 C3647 1.523 . S
H3649 C3624 0.950 . S
H3650 C3626 0.950 . S
H3651 C3627 0.949 . S
H3652 C3629 0.950 . S
H3653 C3631 0.950 . S
C3654 C3655 1.349 . S
C3654 C3656 1.327 . S
C3654 H3679 0.950 . S
C3655 C3654 1.349 . S
C3655 C3671 1.349 . S
C3656 C3654 1.327 . S
C3656 C3675 1.429 . S
C3656 H3680 0.950 . S
C3657 C3674 1.574 . S
C3657 C3676 1.368 . S
C3657 H3681 0.949 . S
H3658 C3662 0.949 . S
C3659 C3660 1.349 . S
C3659 C3661 1.327 . S
C3659 H3682 0.950 . S
C3660 C3659 1.349 . S
C3660 C3672 1.349 . S
C3661 C3659 1.327 . S
C3661 C3677 1.429 . S
C3661 H3683 0.950 . S
C3662 H3658 0.949 . S
C3662 C3670 1.574 . S
C3662 C3678 1.368 . S
H3663 C3671 0.950 . S
H3664 C3669 0.950 . S
H3665 C3670 0.949 . S
H3666 C3672 0.950 . S
H3667 C3673 0.950 . S
H3668 C3674 0.949 . S
C3669 H3664 0.950 . S
C3669 C3671 1.327 . S
C3669 C3675 1.429 . S
C3670 C3662 1.574 . S
C3670 H3665 0.949 . S
C3670 C3676 1.368 . S
C3671 C3655 1.349 . S
C3671 H3663 0.950 . S
C3671 C3669 1.327 . S
C3672 C3660 1.349 . S
C3672 H3666 0.950 . S
C3672 C3673 1.327 . S
C3673 H3667 0.950 . S
C3673 C3672 1.327 . S
C3673 C3677 1.429 . S
C3674 C3657 1.574 . S
C3674 H3668 0.949 . S
C3674 C3678 1.368 . S
C3675 C3656 1.429 . S
C3675 C3669 1.429 . S
C3675 C3676 1.523 . S
C3676 C3657 1.368 . S
C3676 C3670 1.368 . S
C3676 C3675 1.523 . S
C3677 C3661 1.429 . S
C3677 C3673 1.429 . S
C3677 C3678 1.523 . S
C3678 C3662 1.368 . S
C3678 C3674 1.368 . S
C3678 C3677 1.523 . S
H3679 C3654 0.950 . S
H3680 C3656 0.950 . S
H3681 C3657 0.949 . S
H3682 C3659 0.950 . S
H3683 C3661 0.950 . S
C3684 C3685 1.349 . S
C3684 C3686 1.327 . S
C3684 H3709 0.950 . S
C3685 C3684 1.349 . S
C3685 C3701 1.349 . S
C3686 C3684 1.327 . S
C3686 C3705 1.429 . S
C3686 H3710 0.950 . S
C3687 C3704 1.574 . S
C3687 C3706 1.368 . S
C3687 H3711 0.949 . S
H3688 C3692 0.949 . S
C3689 C3690 1.349 . S
C3689 C3691 1.327 . S
C3689 H3712 0.950 . S
C3690 C3689 1.349 . S
C3690 C3702 1.349 . S
C3691 C3689 1.327 . S
C3691 C3707 1.429 . S
C3691 H3713 0.950 . S
C3692 H3688 0.949 . S
C3692 C3700 1.574 . S
C3692 C3708 1.368 . S
H3693 C3701 0.950 . S
H3694 C3699 0.950 . S
H3695 C3700 0.949 . S
H3696 C3702 0.950 . S
H3697 C3703 0.950 . S
H3698 C3704 0.949 . S
C3699 H3694 0.950 . S
C3699 C3701 1.327 . S
C3699 C3705 1.429 . S
C3700 C3692 1.574 . S
C3700 H3695 0.949 . S
C3700 C3706 1.368 . S
C3701 C3685 1.349 . S
C3701 H3693 0.950 . S
C3701 C3699 1.327 . S
C3702 C3690 1.349 . S
C3702 H3696 0.950 . S
C3702 C3703 1.327 . S
C3703 H3697 0.950 . S
C3703 C3702 1.327 . S
C3703 C3707 1.429 . S
C3704 C3687 1.574 . S
C3704 H3698 0.949 . S
C3704 C3708 1.368 . S
C3705 C3686 1.429 . S
C3705 C3699 1.429 . S
C3705 C3706 1.523 . S
C3706 C3687 1.368 . S
C3706 C3700 1.368 . S
C3706 C3705 1.523 . S
C3707 C3691 1.429 . S
C3707 C3703 1.429 . S
C3707 C3708 1.523 . S
C3708 C3692 1.368 . S
C3708 C3704 1.368 . S
C3708 C3707 1.523 . S
H3709 C3684 0.950 . S
H3710 C3686 0.950 . S
H3711 C3687 0.949 . S
H3712 C3689 0.950 . S
H3713 C3691 0.950 . S
C3714 C3715 1.349 . S
C3714 C3716 1.327 . S
C3714 H3739 0.950 . S
C3715 C3714 1.349 . S
C3715 C3731 1.349 . S
C3716 C3714 1.327 . S
C3716 C3735 1.429 . S
C3716 H3740 0.950 . S
C3717 C3734 1.574 . S
C3717 C3736 1.368 . S
C3717 H3741 0.949 . S
H3718 C3722 0.949 . S
C3719 C3720 1.349 . S
C3719 C3721 1.327 . S
C3719 H3742 0.950 . S
C3720 C3719 1.349 . S
C3720 C3732 1.349 . S
C3721 C3719 1.327 . S
C3721 C3737 1.429 . S
C3721 H3743 0.950 . S
C3722 H3718 0.949 . S
C3722 C3730 1.574 . S
C3722 C3738 1.368 . S
H3723 C3731 0.950 . S
H3724 C3729 0.950 . S
H3725 C3730 0.949 . S
H3726 C3732 0.950 . S
H3727 C3733 0.950 . S
H3728 C3734 0.949 . S
C3729 H3724 0.950 . S
C3729 C3731 1.327 . S
C3729 C3735 1.429 . S
C3730 C3722 1.574 . S
C3730 H3725 0.949 . S
C3730 C3736 1.368 . S
C3731 C3715 1.349 . S
C3731 H3723 0.950 . S
C3731 C3729 1.327 . S
C3732 C3720 1.349 . S
C3732 H3726 0.950 . S
C3732 C3733 1.327 . S
C3733 H3727 0.950 . S
C3733 C3732 1.327 . S
C3733 C3737 1.429 . S
C3734 C3717 1.574 . S
C3734 H3728 0.949 . S
C3734 C3738 1.368 . S
C3735 C3716 1.429 . S
C3735 C3729 1.429 . S
C3735 C3736 1.523 . S
C3736 C3717 1.368 . S
C3736 C3730 1.368 . S
C3736 C3735 1.523 . S
C3737 C3721 1.429 . S
C3737 C3733 1.429 . S
C3737 C3738 1.523 . S
C3738 C3722 1.368 . S
C3738 C3734 1.368 . S
C3738 C3737 1.523 . S
H3739 C3714 0.950 . S
H3740 C3716 0.950 . S
H3741 C3717 0.949 . S
H3742 C3719 0.950 . S
H3743 C3721 0.950 . S
C3744 C3745 1.349 . S
C3744 C3746 1.327 . S
C3744 H3769 0.950 . S
C3745 C3744 1.349 . S
C3745 C3761 1.349 . S
C3746 C3744 1.327 . S
C3746 C3765 1.429 . S
C3746 H3770 0.950 . S
C3747 C3764 1.574 . S
C3747 C3766 1.368 . S
C3747 H3771 0.949 . S
H3748 C3752 0.949 . S
C3749 C3750 1.349 . S
C3749 C3751 1.327 . S
C3749 H3772 0.950 . S
C3750 C3749 1.349 . S
C3750 C3762 1.349 . S
C3751 C3749 1.327 . S
C3751 C3767 1.429 . S
C3751 H3773 0.950 . S
C3752 H3748 0.949 . S
C3752 C3760 1.574 . S
C3752 C3768 1.368 . S
H3753 C3761 0.950 . S
H3754 C3759 0.950 . S
H3755 C3760 0.949 . S
H3756 C3762 0.950 . S
H3757 C3763 0.950 . S
H3758 C3764 0.949 . S
C3759 H3754 0.950 . S
C3759 C3761 1.327 . S
C3759 C3765 1.429 . S
C3760 C3752 1.574 . S
C3760 H3755 0.949 . S
C3760 C3766 1.368 . S
C3761 C3745 1.349 . S
C3761 H3753 0.950 . S
C3761 C3759 1.327 . S
C3762 C3750 1.349 . S
C3762 H3756 0.950 . S
C3762 C3763 1.327 . S
C3763 H3757 0.950 . S
C3763 C3762 1.327 . S
C3763 C3767 1.429 . S
C3764 C3747 1.574 . S
C3764 H3758 0.949 . S
C3764 C3768 1.368 . S
C3765 C3746 1.429 . S
C3765 C3759 1.429 . S
C3765 C3766 1.523 . S
C3766 C3747 1.368 . S
C3766 C3760 1.368 . S
C3766 C3765 1.523 . S
C3767 C3751 1.429 . S
C3767 C3763 1.429 . S
C3767 C3768 1.523 . S
C3768 C3752 1.368 . S
C3768 C3764 1.368 . S
C3768 C3767 1.523 . S
H3769 C3744 0.950 . S
H3770 C3746 0.950 . S
H3771 C3747 0.949 . S
H3772 C3749 0.950 . S
H3773 C3751 0.950 . S
C3774 C3775 1.349 . S
C3774 C3776 1.327 . S
C3774 H3799 0.950 . S
C3775 C3774 1.349 . S
C3775 C3791 1.349 . S
C3776 C3774 1.327 . S
C3776 C3795 1.429 . S
C3776 H3800 0.950 . S
C3777 C3794 1.574 . S
C3777 C3796 1.368 . S
C3777 H3801 0.949 . S
H3778 C3782 0.949 . S
C3779 C3780 1.349 . S
C3779 C3781 1.327 . S
C3779 H3802 0.950 . S
C3780 C3779 1.349 . S
C3780 C3792 1.349 . S
C3781 C3779 1.327 . S
C3781 C3797 1.429 . S
C3781 H3803 0.950 . S
C3782 H3778 0.949 . S
C3782 C3790 1.574 . S
C3782 C3798 1.368 . S
H3783 C3791 0.950 . S
H3784 C3789 0.950 . S
H3785 C3790 0.949 . S
H3786 C3792 0.950 . S
H3787 C3793 0.950 . S
H3788 C3794 0.949 . S
C3789 H3784 0.950 . S
C3789 C3791 1.327 . S
C3789 C3795 1.429 . S
C3790 C3782 1.574 . S
C3790 H3785 0.949 . S
C3790 C3796 1.368 . S
C3791 C3775 1.349 . S
C3791 H3783 0.950 . S
C3791 C3789 1.327 . S
C3792 C3780 1.349 . S
C3792 H3786 0.950 . S
C3792 C3793 1.327 . S
C3793 H3787 0.950 . S
C3793 C3792 1.327 . S
C3793 C3797 1.429 . S
C3794 C3777 1.574 . S
C3794 H3788 0.949 . S
C3794 C3798 1.368 . S
C3795 C3776 1.429 . S
C3795 C3789 1.429 . S
C3795 C3796 1.523 . S
C3796 C3777 1.368 . S
C3796 C3790 1.368 . S
C3796 C3795 1.523 . S
C3797 C3781 1.429 . S
C3797 C3793 1.429 . S
C3797 C3798 1.523 . S
C3798 C3782 1.368 . S
C3798 C3794 1.368 . S
C3798 C3797 1.523 . S
H3799 C3774 0.950 . S
H3800 C3776 0.950 . S
H3801 C3777 0.949 . S
H3802 C3779 0.950 . S
H3803 C3781 0.950 . S
C3804 C3805 1.349 . S
C3804 C3806 1.327 . S
C3804 H3829 0.950 . S
C3805 C3804 1.349 . S
C3805 C3821 1.349 . S
C3806 C3804 1.327 . S
C3806 C3825 1.429 . S
C3806 H3830 0.950 . S
C3807 C3824 1.574 . S
C3807 C3826 1.368 . S
C3807 H3831 0.949 . S
H3808 C3812 0.949 . S
C3809 C3810 1.349 . S
C3809 C3811 1.327 . S
C3809 H3832 0.950 . S
C3810 C3809 1.349 . S
C3810 C3822 1.349 . S
C3811 C3809 1.327 . S
C3811 C3827 1.429 . S
C3811 H3833 0.950 . S
C3812 H3808 0.949 . S
C3812 C3820 1.574 . S
C3812 C3828 1.368 . S
H3813 C3821 0.950 . S
H3814 C3819 0.950 . S
H3815 C3820 0.949 . S
H3816 C3822 0.950 . S
H3817 C3823 0.950 . S
H3818 C3824 0.949 . S
C3819 H3814 0.950 . S
C3819 C3821 1.327 . S
C3819 C3825 1.429 . S
C3820 C3812 1.574 . S
C3820 H3815 0.949 . S
C3820 C3826 1.368 . S
C3821 C3805 1.349 . S
C3821 H3813 0.950 . S
C3821 C3819 1.327 . S
C3822 C3810 1.349 . S
C3822 H3816 0.950 . S
C3822 C3823 1.327 . S
C3823 H3817 0.950 . S
C3823 C3822 1.327 . S
C3823 C3827 1.429 . S
C3824 C3807 1.574 . S
C3824 H3818 0.949 . S
C3824 C3828 1.368 . S
C3825 C3806 1.429 . S
C3825 C3819 1.429 . S
C3825 C3826 1.523 . S
C3826 C3807 1.368 . S
C3826 C3820 1.368 . S
C3826 C3825 1.523 . S
C3827 C3811 1.429 . S
C3827 C3823 1.429 . S
C3827 C3828 1.523 . S
C3828 C3812 1.368 . S
C3828 C3824 1.368 . S
C3828 C3827 1.523 . S
H3829 C3804 0.950 . S
H3830 C3806 0.950 . S
H3831 C3807 0.949 . S
H3832 C3809 0.950 . S
H3833 C3811 0.950 . S
C3834 C3835 1.349 . S
C3834 C3836 1.327 . S
C3834 H3859 0.950 . S
C3835 C3834 1.349 . S
C3835 C3851 1.349 . S
C3836 C3834 1.327 . S
C3836 C3855 1.429 . S
C3836 H3860 0.950 . S
C3837 C3854 1.574 . S
C3837 C3856 1.368 . S
C3837 H3861 0.949 . S
H3838 C3842 0.949 . S
C3839 C3840 1.349 . S
C3839 C3841 1.327 . S
C3839 H3862 0.950 . S
C3840 C3839 1.349 . S
C3840 C3852 1.349 . S
C3841 C3839 1.327 . S
C3841 C3857 1.429 . S
C3841 H3863 0.950 . S
C3842 H3838 0.949 . S
C3842 C3850 1.574 . S
C3842 C3858 1.368 . S
H3843 C3851 0.950 . S
H3844 C3849 0.950 . S
H3845 C3850 0.949 . S
H3846 C3852 0.950 . S
H3847 C3853 0.950 . S
H3848 C3854 0.949 . S
C3849 H3844 0.950 . S
C3849 C3851 1.327 . S
C3849 C3855 1.429 . S
C3850 C3842 1.574 . S
C3850 H3845 0.949 . S
C3850 C3856 1.368 . S
C3851 C3835 1.349 . S
C3851 H3843 0.950 . S
C3851 C3849 1.327 . S
C3852 C3840 1.349 . S
C3852 H3846 0.950 . S
C3852 C3853 1.327 . S
C3853 H3847 0.950 . S
C3853 C3852 1.327 . S
C3853 C3857 1.429 . S
C3854 C3837 1.574 . S
C3854 H3848 0.949 . S
C3854 C3858 1.368 . S
C3855 C3836 1.429 . S
C3855 C3849 1.429 . S
C3855 C3856 1.523 . S
C3856 C3837 1.368 . S
C3856 C3850 1.368 . S
C3856 C3855 1.523 . S
C3857 C3841 1.429 . S
C3857 C3853 1.429 . S
C3857 C3858 1.523 . S
C3858 C3842 1.368 . S
C3858 C3854 1.368 . S
C3858 C3857 1.523 . S
H3859 C3834 0.950 . S
H3860 C3836 0.950 . S
H3861 C3837 0.949 . S
H3862 C3839 0.950 . S
H3863 C3841 0.950 . S
C3864 C3865 1.349 . S
C3864 C3866 1.327 . S
C3864 H3889 0.950 . S
C3865 C3864 1.349 . S
C3865 C3881 1.349 . S
C3866 C3864 1.327 . S
C3866 C3885 1.429 . S
C3866 H3890 0.950 . S
C3867 C3884 1.574 . S
C3867 C3886 1.368 . S
C3867 H3891 0.949 . S
H3868 C3872 0.949 . S
C3869 C3870 1.349 . S
C3869 C3871 1.327 . S
C3869 H3892 0.950 . S
C3870 C3869 1.349 . S
C3870 C3882 1.349 . S
C3871 C3869 1.327 . S
C3871 C3887 1.429 . S
C3871 H3893 0.950 . S
C3872 H3868 0.949 . S
C3872 C3880 1.574 . S
C3872 C3888 1.368 . S
H3873 C3881 0.950 . S
H3874 C3879 0.950 . S
H3875 C3880 0.949 . S
H3876 C3882 0.950 . S
H3877 C3883 0.950 . S
H3878 C3884 0.949 . S
C3879 H3874 0.950 . S
C3879 C3881 1.327 . S
C3879 C3885 1.429 . S
C3880 C3872 1.574 . S
C3880 H3875 0.949 . S
C3880 C3886 1.368 . S
C3881 C3865 1.349 . S
C3881 H3873 0.950 . S
C3881 C3879 1.327 . S
C3882 C3870 1.349 . S
C3882 H3876 0.950 . S
C3882 C3883 1.327 . S
C3883 H3877 0.950 . S
C3883 C3882 1.327 . S
C3883 C3887 1.429 . S
C3884 C3867 1.574 . S
C3884 H3878 0.949 . S
C3884 C3888 1.368 . S
C3885 C3866 1.429 . S
C3885 C3879 1.429 . S
C3885 C3886 1.523 . S
C3886 C3867 1.368 . S
C3886 C3880 1.368 . S
C3886 C3885 1.523 . S
C3887 C3871 1.429 . S
C3887 C3883 1.429 . S
C3887 C3888 1.523 . S
C3888 C3872 1.368 . S
C3888 C3884 1.368 . S
C3888 C3887 1.523 . S
H3889 C3864 0.950 . S
H3890 C3866 0.950 . S
H3891 C3867 0.949 . S
H3892 C3869 0.950 . S
H3893 C3871 0.950 . S
C3894 C3895 1.349 . S
C3894 C3896 1.327 . S
C3894 H3919 0.950 . S
C3895 C3894 1.349 . S
C3895 C3911 1.349 . S
C3896 C3894 1.327 . S
C3896 C3915 1.429 . S
C3896 H3920 0.950 . S
C3897 C3914 1.574 . S
C3897 C3916 1.368 . S
C3897 H3921 0.949 . S
H3898 C3902 0.949 . S
C3899 C3900 1.349 . S
C3899 C3901 1.327 . S
C3899 H3922 0.950 . S
C3900 C3899 1.349 . S
C3900 C3912 1.349 . S
C3901 C3899 1.327 . S
C3901 C3917 1.429 . S
C3901 H3923 0.950 . S
C3902 H3898 0.949 . S
C3902 C3910 1.574 . S
C3902 C3918 1.368 . S
H3903 C3911 0.950 . S
H3904 C3909 0.950 . S
H3905 C3910 0.949 . S
H3906 C3912 0.950 . S
H3907 C3913 0.950 . S
H3908 C3914 0.949 . S
C3909 H3904 0.950 . S
C3909 C3911 1.327 . S
C3909 C3915 1.429 . S
C3910 C3902 1.574 . S
C3910 H3905 0.949 . S
C3910 C3916 1.368 . S
C3911 C3895 1.349 . S
C3911 H3903 0.950 . S
C3911 C3909 1.327 . S
C3912 C3900 1.349 . S
C3912 H3906 0.950 . S
C3912 C3913 1.327 . S
C3913 H3907 0.950 . S
C3913 C3912 1.327 . S
C3913 C3917 1.429 . S
C3914 C3897 1.574 . S
C3914 H3908 0.949 . S
C3914 C3918 1.368 . S
C3915 C3896 1.429 . S
C3915 C3909 1.429 . S
C3915 C3916 1.523 . S
C3916 C3897 1.368 . S
C3916 C3910 1.368 . S
C3916 C3915 1.523 . S
C3917 C3901 1.429 . S
C3917 C3913 1.429 . S
C3917 C3918 1.523 . S
C3918 C3902 1.368 . S
C3918 C3914 1.368 . S
C3918 C3917 1.523 . S
H3919 C3894 0.950 . S
H3920 C3896 0.950 . S
H3921 C3897 0.949 . S
H3922 C3899 0.950 . S
H3923 C3901 0.950 . S
C3924 C3925 1.349 . S
C3924 C3926 1.327 . S
C3924 H3949 0.950 . S
C3925 C3924 1.349 . S
C3925 C3941 1.349 . S
C3926 C3924 1.327 . S
C3926 C3945 1.429 . S
C3926 H3950 0.950 . S
C3927 C3944 1.574 . S
C3927 C3946 1.368 . S
C3927 H3951 0.949 . S
H3928 C3932 0.949 . S
C3929 C3930 1.349 . S
C3929 C3931 1.327 . S
C3929 H3952 0.950 . S
C3930 C3929 1.349 . S
C3930 C3942 1.349 . S
C3931 C3929 1.327 . S
C3931 C3947 1.429 . S
C3931 H3953 0.950 . S
C3932 H3928 0.949 . S
C3932 C3940 1.574 . S
C3932 C3948 1.368 . S
H3933 C3941 0.950 . S
H3934 C3939 0.950 . S
H3935 C3940 0.949 . S
H3936 C3942 0.950 . S
H3937 C3943 0.950 . S
H3938 C3944 0.949 . S
C3939 H3934 0.950 . S
C3939 C3941 1.327 . S
C3939 C3945 1.429 . S
C3940 C3932 1.574 . S
C3940 H3935 0.949 . S
C3940 C3946 1.368 . S
C3941 C3925 1.349 . S
C3941 H3933 0.950 . S
C3941 C3939 1.327 . S
C3942 C3930 1.349 . S
C3942 H3936 0.950 . S
C3942 C3943 1.327 . S
C3943 H3937 0.950 . S
C3943 C3942 1.327 . S
C3943 C3947 1.429 . S
C3944 C3927 1.574 . S
C3944 H3938 0.949 . S
C3944 C3948 1.368 . S
C3945 C3926 1.429 . S
C3945 C3939 1.429 . S
C3945 C3946 1.523 . S
C3946 C3927 1.368 . S
C3946 C3940 1.368 . S
C3946 C3945 1.523 . S
C3947 C3931 1.429 . S
C3947 C3943 1.429 . S
C3947 C3948 1.523 . S
C3948 C3932 1.368 . S
C3948 C3944 1.368 . S
C3948 C3947 1.523 . S
H3949 C3924 0.950 . S
H3950 C3926 0.950 . S
H3951 C3927 0.949 . S
H3952 C3929 0.950 . S
H3953 C3931 0.950 . S
C3954 C3955 1.349 . S
C3954 C3956 1.327 . S
C3954 H3979 0.950 . S
C3955 C3954 1.349 . S
C3955 C3971 1.349 . S
C3956 C3954 1.327 . S
C3956 C3975 1.429 . S
C3956 H3980 0.950 . S
C3957 C3974 1.574 . S
C3957 C3976 1.368 . S
C3957 H3981 0.949 . S
H3958 C3962 0.949 . S
C3959 C3960 1.349 . S
C3959 C3961 1.327 . S
C3959 H3982 0.950 . S
C3960 C3959 1.349 . S
C3960 C3972 1.349 . S
C3961 C3959 1.327 . S
C3961 C3977 1.429 . S
C3961 H3983 0.950 . S
C3962 H3958 0.949 . S
C3962 C3970 1.574 . S
C3962 C3978 1.368 . S
H3963 C3971 0.950 . S
H3964 C3969 0.950 . S
H3965 C3970 0.949 . S
H3966 C3972 0.950 . S
H3967 C3973 0.950 . S
H3968 C3974 0.949 . S
C3969 H3964 0.950 . S
C3969 C3971 1.327 . S
C3969 C3975 1.429 . S
C3970 C3962 1.574 . S
C3970 H3965 0.949 . S
C3970 C3976 1.368 . S
C3971 C3955 1.349 . S
C3971 H3963 0.950 . S
C3971 C3969 1.327 . S
C3972 C3960 1.349 . S
C3972 H3966 0.950 . S
C3972 C3973 1.327 . S
C3973 H3967 0.950 . S
C3973 C3972 1.327 . S
C3973 C3977 1.429 . S
C3974 C3957 1.574 . S
C3974 H3968 0.949 . S
C3974 C3978 1.368 . S
C3975 C3956 1.429 . S
C3975 C3969 1.429 . S
C3975 C3976 1.523 . S
C3976 C3957 1.368 . S
C3976 C3970 1.368 . S
C3976 C3975 1.523 . S
C3977 C3961 1.429 . S
C3977 C3973 1.429 . S
C3977 C3978 1.523 . S
C3978 C3962 1.368 . S
C3978 C3974 1.368 . S
C3978 C3977 1.523 . S
H3979 C3954 0.950 . S
H3980 C3956 0.950 . S
H3981 C3957 0.949 . S
H3982 C3959 0.950 . S
H3983 C3961 0.950 . S
C3984 C3985 1.349 . S
C3984 C3986 1.327 . S
C3984 H4009 0.950 . S
C3985 C3984 1.349 . S
C3985 C4001 1.349 . S
C3986 C3984 1.327 . S
C3986 C4005 1.429 . S
C3986 H4010 0.950 . S
C3987 C4004 1.574 . S
C3987 C4006 1.368 . S
C3987 H4011 0.949 . S
H3988 C3992 0.949 . S
C3989 C3990 1.349 . S
C3989 C3991 1.327 . S
C3989 H4012 0.950 . S
C3990 C3989 1.349 . S
C3990 C4002 1.349 . S
C3991 C3989 1.327 . S
C3991 C4007 1.429 . S
C3991 H4013 0.950 . S
C3992 H3988 0.949 . S
C3992 C4000 1.574 . S
C3992 C4008 1.368 . S
H3993 C4001 0.950 . S
H3994 C3999 0.950 . S
H3995 C4000 0.949 . S
H3996 C4002 0.950 . S
H3997 C4003 0.950 . S
H3998 C4004 0.949 . S
C3999 H3994 0.950 . S
C3999 C4001 1.327 . S
C3999 C4005 1.429 . S
C4000 C3992 1.574 . S
C4000 H3995 0.949 . S
C4000 C4006 1.368 . S
C4001 C3985 1.349 . S
C4001 H3993 0.950 . S
C4001 C3999 1.327 . S
C4002 C3990 1.349 . S
C4002 H3996 0.950 . S
C4002 C4003 1.327 . S
C4003 H3997 0.950 . S
C4003 C4002 1.327 . S
C4003 C4007 1.429 . S
C4004 C3987 1.574 . S
C4004 H3998 0.949 . S
C4004 C4008 1.368 . S
C4005 C3986 1.429 . S
C4005 C3999 1.429 . S
C4005 C4006 1.523 . S
C4006 C3987 1.368 . S
C4006 C4000 1.368 . S
C4006 C4005 1.523 . S
C4007 C3991 1.429 . S
C4007 C4003 1.429 . S
C4007 C4008 1.523 . S
C4008 C3992 1.368 . S
C4008 C4004 1.368 . S
C4008 C4007 1.523 . S
H4009 C3984 0.950 . S
H4010 C3986 0.950 . S
H4011 C3987 0.949 . S
H4012 C3989 0.950 . S
H4013 C3991 0.950 . S
C4014 C4015 1.349 . S
C4014 C4016 1.327 . S
C4014 H4039 0.950 . S
C4015 C4014 1.349 . S
C4015 C4031 1.349 . S
C4016 C4014 1.327 . S
C4016 C4035 1.429 . S
C4016 H4040 0.950 . S
C4017 C4034 1.574 . S
C4017 C4036 1.368 . S
C4017 H4041 0.949 . S
H4018 C4022 0.949 . S
C4019 C4020 1.349 . S
C4019 C4021 1.327 . S
C4019 H4042 0.950 . S
C4020 C4019 1.349 . S
C4020 C4032 1.349 . S
C4021 C4019 1.327 . S
C4021 C4037 1.429 . S
C4021 H4043 0.950 . S
C4022 H4018 0.949 . S
C4022 C4030 1.574 . S
C4022 C4038 1.368 . S
H4023 C4031 0.950 . S
H4024 C4029 0.950 . S
H4025 C4030 0.949 . S
H4026 C4032 0.950 . S
H4027 C4033 0.950 . S
H4028 C4034 0.949 . S
C4029 H4024 0.950 . S
C4029 C4031 1.327 . S
C4029 C4035 1.429 . S
C4030 C4022 1.574 . S
C4030 H4025 0.949 . S
C4030 C4036 1.368 . S
C4031 C4015 1.349 . S
C4031 H4023 0.950 . S
C4031 C4029 1.327 . S
C4032 C4020 1.349 . S
C4032 H4026 0.950 . S
C4032 C4033 1.327 . S
C4033 H4027 0.950 . S
C4033 C4032 1.327 . S
C4033 C4037 1.429 . S
C4034 C4017 1.574 . S
C4034 H4028 0.949 . S
C4034 C4038 1.368 . S
C4035 C4016 1.429 . S
C4035 C4029 1.429 . S
C4035 C4036 1.523 . S
C4036 C4017 1.368 . S
C4036 C4030 1.368 . S
C4036 C4035 1.523 . S
C4037 C4021 1.429 . S
C4037 C4033 1.429 . S
C4037 C4038 1.523 . S
C4038 C4022 1.368 . S
C4038 C4034 1.368 . S
C4038 C4037 1.523 . S
H4039 C4014 0.950 . S
H4040 C4016 0.950 . S
H4041 C4017 0.949 . S
H4042 C4019 0.950 . S
H4043 C4021 0.950 . S
C4044 C4045 1.349 . S
C4044 C4046 1.327 . S
C4044 H4069 0.950 . S
C4045 C4044 1.349 . S
C4045 C4061 1.349 . S
C4046 C4044 1.327 . S
C4046 C4065 1.429 . S
C4046 H4070 0.950 . S
C4047 C4064 1.574 . S
C4047 C4066 1.368 . S
C4047 H4071 0.949 . S
H4048 C4052 0.949 . S
C4049 C4050 1.349 . S
C4049 C4051 1.327 . S
C4049 H4072 0.950 . S
C4050 C4049 1.349 . S
C4050 C4062 1.349 . S
C4051 C4049 1.327 . S
C4051 C4067 1.429 . S
C4051 H4073 0.950 . S
C4052 H4048 0.949 . S
C4052 C4060 1.574 . S
C4052 C4068 1.368 . S
H4053 C4061 0.950 . S
H4054 C4059 0.950 . S
H4055 C4060 0.949 . S
H4056 C4062 0.950 . S
H4057 C4063 0.950 . S
H4058 C4064 0.949 . S
C4059 H4054 0.950 . S
C4059 C4061 1.327 . S
C4059 C4065 1.429 . S
C4060 C4052 1.574 . S
C4060 H4055 0.949 . S
C4060 C4066 1.368 . S
C4061 C4045 1.349 . S
C4061 H4053 0.950 . S
C4061 C4059 1.327 . S
C4062 C4050 1.349 . S
C4062 H4056 0.950 . S
C4062 C4063 1.327 . S
C4063 H4057 0.950 . S
C4063 C4062 1.327 . S
C4063 C4067 1.429 . S
C4064 C4047 1.574 . S
C4064 H4058 0.949 . S
C4064 C4068 1.368 . S
C4065 C4046 1.429 . S
C4065 C4059 1.429 . S
C4065 C4066 1.523 . S
C4066 C4047 1.368 . S
C4066 C4060 1.368 . S
C4066 C4065 1.523 . S
C4067 C4051 1.429 . S
C4067 C4063 1.429 . S
C4067 C4068 1.523 . S
C4068 C4052 1.368 . S
C4068 C4064 1.368 . S
C4068 C4067 1.523 . S
H4069 C4044 0.950 . S
H4070 C4046 0.950 . S
H4071 C4047 0.949 . S
H4072 C4049 0.950 . S
H4073 C4051 0.950 . S
C4074 C4075 1.349 . S
C4074 C4076 1.327 . S
C4074 H4099 0.950 . S
C4075 C4074 1.349 . S
C4075 C4091 1.349 . S
C4076 C4074 1.327 . S
C4076 C4095 1.429 . S
C4076 H4100 0.950 . S
C4077 C4094 1.574 . S
C4077 C4096 1.368 . S
C4077 H4101 0.949 . S
H4078 C4082 0.949 . S
C4079 C4080 1.349 . S
C4079 C4081 1.327 . S
C4079 H4102 0.950 . S
C4080 C4079 1.349 . S
C4080 C4092 1.349 . S
C4081 C4079 1.327 . S
C4081 C4097 1.429 . S
C4081 H4103 0.950 . S
C4082 H4078 0.949 . S
C4082 C4090 1.574 . S
C4082 C4098 1.368 . S
H4083 C4091 0.950 . S
H4084 C4089 0.950 . S
H4085 C4090 0.949 . S
H4086 C4092 0.950 . S
H4087 C4093 0.950 . S
H4088 C4094 0.949 . S
C4089 H4084 0.950 . S
C4089 C4091 1.327 . S
C4089 C4095 1.429 . S
C4090 C4082 1.574 . S
C4090 H4085 0.949 . S
C4090 C4096 1.368 . S
C4091 C4075 1.349 . S
C4091 H4083 0.950 . S
C4091 C4089 1.327 . S
C4092 C4080 1.349 . S
C4092 H4086 0.950 . S
C4092 C4093 1.327 . S
C4093 H4087 0.950 . S
C4093 C4092 1.327 . S
C4093 C4097 1.429 . S
C4094 C4077 1.574 . S
C4094 H4088 0.949 . S
C4094 C4098 1.368 . S
C4095 C4076 1.429 . S
C4095 C4089 1.429 . S
C4095 C4096 1.523 . S
C4096 C4077 1.368 . S
C4096 C4090 1.368 . S
C4096 C4095 1.523 . S
C4097 C4081 1.429 . S
C4097 C4093 1.429 . S
C4097 C4098 1.523 . S
C4098 C4082 1.368 . S
C4098 C4094 1.368 . S
C4098 C4097 1.523 . S
H4099 C4074 0.950 . S
H4100 C4076 0.950 . S
H4101 C4077 0.949 . S
H4102 C4079 0.950 . S
H4103 C4081 0.950 . S
C4104 C4105 1.349 . S
C4104 C4106 1.327 . S
C4104 H4129 0.950 . S
C4105 C4104 1.349 . S
C4105 C4121 1.349 . S
C4106 C4104 1.327 . S
C4106 C4125 1.429 . S
C4106 H4130 0.950 . S
C4107 C4124 1.574 . S
C4107 C4126 1.368 . S
C4107 H4131 0.949 . S
H4108 C4112 0.949 . S
C4109 C4110 1.349 . S
C4109 C4111 1.327 . S
C4109 H4132 0.950 . S
C4110 C4109 1.349 . S
C4110 C4122 1.349 . S
C4111 C4109 1.327 . S
C4111 C4127 1.429 . S
C4111 H4133 0.950 . S
C4112 H4108 0.949 . S
C4112 C4120 1.574 . S
C4112 C4128 1.368 . S
H4113 C4121 0.950 . S
H4114 C4119 0.950 . S
H4115 C4120 0.949 . S
H4116 C4122 0.950 . S
H4117 C4123 0.950 . S
H4118 C4124 0.949 . S
C4119 H4114 0.950 . S
C4119 C4121 1.327 . S
C4119 C4125 1.429 . S
C4120 C4112 1.574 . S
C4120 H4115 0.949 . S
C4120 C4126 1.368 . S
C4121 C4105 1.349 . S
C4121 H4113 0.950 . S
C4121 C4119 1.327 . S
C4122 C4110 1.349 . S
C4122 H4116 0.950 . S
C4122 C4123 1.327 . S
C4123 H4117 0.950 . S
C4123 C4122 1.327 . S
C4123 C4127 1.429 . S
C4124 C4107 1.574 . S
C4124 H4118 0.949 . S
C4124 C4128 1.368 . S
C4125 C4106 1.429 . S
C4125 C4119 1.429 . S
C4125 C4126 1.523 . S
C4126 C4107 1.368 . S
C4126 C4120 1.368 . S
C4126 C4125 1.523 . S
C4127 C4111 1.429 . S
C4127 C4123 1.429 . S
C4127 C4128 1.523 . S
C4128 C4112 1.368 . S
C4128 C4124 1.368 . S
C4128 C4127 1.523 . S
H4129 C4104 0.950 . S
H4130 C4106 0.950 . S
H4131 C4107 0.949 . S
H4132 C4109 0.950 . S
H4133 C4111 0.950 . S
C4134 C4135 1.349 . S
C4134 C4136 1.327 . S
C4134 H4159 0.950 . S
C4135 C4134 1.349 . S
C4135 C4151 1.349 . S
C4136 C4134 1.327 . S
C4136 C4155 1.429 . S
C4136 H4160 0.950 . S
C4137 C4154 1.574 . S
C4137 C4156 1.368 . S
C4137 H4161 0.949 . S
H4138 C4142 0.949 . S
C4139 C4140 1.349 . S
C4139 C4141 1.327 . S
C4139 H4162 0.950 . S
C4140 C4139 1.349 . S
C4140 C4152 1.349 . S
C4141 C4139 1.327 . S
C4141 C4157 1.429 . S
C4141 H4163 0.950 . S
C4142 H4138 0.949 . S
C4142 C4150 1.574 . S
C4142 C4158 1.368 . S
H4143 C4151 0.950 . S
H4144 C4149 0.950 . S
H4145 C4150 0.949 . S
H4146 C4152 0.950 . S
H4147 C4153 0.950 . S
H4148 C4154 0.949 . S
C4149 H4144 0.950 . S
C4149 C4151 1.327 . S
C4149 C4155 1.429 . S
C4150 C4142 1.574 . S
C4150 H4145 0.949 . S
C4150 C4156 1.368 . S
C4151 C4135 1.349 . S
C4151 H4143 0.950 . S
C4151 C4149 1.327 . S
C4152 C4140 1.349 . S
C4152 H4146 0.950 . S
C4152 C4153 1.327 . S
C4153 H4147 0.950 . S
C4153 C4152 1.327 . S
C4153 C4157 1.429 . S
C4154 C4137 1.574 . S
C4154 H4148 0.949 . S
C4154 C4158 1.368 . S
C4155 C4136 1.429 . S
C4155 C4149 1.429 . S
C4155 C4156 1.523 . S
C4156 C4137 1.368 . S
C4156 C4150 1.368 . S
C4156 C4155 1.523 . S
C4157 C4141 1.429 . S
C4157 C4153 1.429 . S
C4157 C4158 1.523 . S
C4158 C4142 1.368 . S
C4158 C4154 1.368 . S
C4158 C4157 1.523 . S
H4159 C4134 0.950 . S
H4160 C4136 0.950 . S
H4161 C4137 0.949 . S
H4162 C4139 0.950 . S
H4163 C4141 0.950 . S
C4164 C4165 1.349 . S
C4164 C4166 1.327 . S
C4164 H4189 0.950 . S
C4165 C4164 1.349 . S
C4165 C4181 1.349 . S
C4166 C4164 1.327 . S
C4166 C4185 1.429 . S
C4166 H4190 0.950 . S
C4167 C4184 1.574 . S
C4167 C4186 1.368 . S
C4167 H4191 0.949 . S
H4168 C4172 0.949 . S
C4169 C4170 1.349 . S
C4169 C4171 1.327 . S
C4169 H4192 0.950 . S
C4170 C4169 1.349 . S
C4170 C4182 1.349 . S
C4171 C4169 1.327 . S
C4171 C4187 1.429 . S
C4171 H4193 0.950 . S
C4172 H4168 0.949 . S
C4172 C4180 1.574 . S
C4172 C4188 1.368 . S
H4173 C4181 0.950 . S
H4174 C4179 0.950 . S
H4175 C4180 0.949 . S
H4176 C4182 0.950 . S
H4177 C4183 0.950 . S
H4178 C4184 0.949 . S
C4179 H4174 0.950 . S
C4179 C4181 1.327 . S
C4179 C4185 1.429 . S
C4180 C4172 1.574 . S
C4180 H4175 0.949 . S
C4180 C4186 1.368 . S
C4181 C4165 1.349 . S
C4181 H4173 0.950 . S
C4181 C4179 1.327 . S
C4182 C4170 1.349 . S
C4182 H4176 0.950 . S
C4182 C4183 1.327 . S
C4183 H4177 0.950 . S
C4183 C4182 1.327 . S
C4183 C4187 1.429 . S
C4184 C4167 1.574 . S
C4184 H4178 0.949 . S
C4184 C4188 1.368 . S
C4185 C4166 1.429 . S
C4185 C4179 1.429 . S
C4185 C4186 1.523 . S
C4186 C4167 1.368 . S
C4186 C4180 1.368 . S
C4186 C4185 1.523 . S
C4187 C4171 1.429 . S
C4187 C4183 1.429 . S
C4187 C4188 1.523 . S
C4188 C4172 1.368 . S
C4188 C4184 1.368 . S
C4188 C4187 1.523 . S
H4189 C4164 0.950 . S
H4190 C4166 0.950 . S
H4191 C4167 0.949 . S
H4192 C4169 0.950 . S
H4193 C4171 0.950 . S
C4194 C4195 1.349 . S
C4194 C4196 1.327 . S
C4194 H4219 0.950 . S
C4195 C4194 1.349 . S
C4195 C4211 1.349 . S
C4196 C4194 1.327 . S
C4196 C4215 1.429 . S
C4196 H4220 0.950 . S
C4197 C4214 1.574 . S
C4197 C4216 1.368 . S
C4197 H4221 0.949 . S
H4198 C4202 0.949 . S
C4199 C4200 1.349 . S
C4199 C4201 1.327 . S
C4199 H4222 0.950 . S
C4200 C4199 1.349 . S
C4200 C4212 1.349 . S
C4201 C4199 1.327 . S
C4201 C4217 1.429 . S
C4201 H4223 0.950 . S
C4202 H4198 0.949 . S
C4202 C4210 1.574 . S
C4202 C4218 1.368 . S
H4203 C4211 0.950 . S
H4204 C4209 0.950 . S
H4205 C4210 0.949 . S
H4206 C4212 0.950 . S
H4207 C4213 0.950 . S
H4208 C4214 0.949 . S
C4209 H4204 0.950 . S
C4209 C4211 1.327 . S
C4209 C4215 1.429 . S
C4210 C4202 1.574 . S
C4210 H4205 0.949 . S
C4210 C4216 1.368 . S
C4211 C4195 1.349 . S
C4211 H4203 0.950 . S
C4211 C4209 1.327 . S
C4212 C4200 1.349 . S
C4212 H4206 0.950 . S
C4212 C4213 1.327 . S
C4213 H4207 0.950 . S
C4213 C4212 1.327 . S
C4213 C4217 1.429 . S
C4214 C4197 1.574 . S
C4214 H4208 0.949 . S
C4214 C4218 1.368 . S
C4215 C4196 1.429 . S
C4215 C4209 1.429 . S
C4215 C4216 1.523 . S
C4216 C4197 1.368 . S
C4216 C4210 1.368 . S
C4216 C4215 1.523 . S
C4217 C4201 1.429 . S
C4217 C4213 1.429 . S
C4217 C4218 1.523 . S
C4218 C4202 1.368 . S
C4218 C4214 1.368 . S
C4218 C4217 1.523 . S
H4219 C4194 0.950 . S
H4220 C4196 0.950 . S
H4221 C4197 0.949 . S
H4222 C4199 0.950 . S
H4223 C4201 0.950 . S
C4224 C4225 1.349 . S
C4224 C4226 1.327 . S
C4224 H4249 0.950 . S
C4225 C4224 1.349 . S
C4225 C4241 1.349 . S
C4226 C4224 1.327 . S
C4226 C4245 1.429 . S
C4226 H4250 0.950 . S
C4227 C4244 1.574 . S
C4227 C4246 1.368 . S
C4227 H4251 0.949 . S
H4228 C4232 0.949 . S
C4229 C4230 1.349 . S
C4229 C4231 1.327 . S
C4229 H4252 0.950 . S
C4230 C4229 1.349 . S
C4230 C4242 1.349 . S
C4231 C4229 1.327 . S
C4231 C4247 1.429 . S
C4231 H4253 0.950 . S
C4232 H4228 0.949 . S
C4232 C4240 1.574 . S
C4232 C4248 1.368 . S
H4233 C4241 0.950 . S
H4234 C4239 0.950 . S
H4235 C4240 0.949 . S
H4236 C4242 0.950 . S
H4237 C4243 0.950 . S
H4238 C4244 0.949 . S
C4239 H4234 0.950 . S
C4239 C4241 1.327 . S
C4239 C4245 1.429 . S
C4240 C4232 1.574 . S
C4240 H4235 0.949 . S
C4240 C4246 1.368 . S
C4241 C4225 1.349 . S
C4241 H4233 0.950 . S
C4241 C4239 1.327 . S
C4242 C4230 1.349 . S
C4242 H4236 0.950 . S
C4242 C4243 1.327 . S
C4243 H4237 0.950 . S
C4243 C4242 1.327 . S
C4243 C4247 1.429 . S
C4244 C4227 1.574 . S
C4244 H4238 0.949 . S
C4244 C4248 1.368 . S
C4245 C4226 1.429 . S
C4245 C4239 1.429 . S
C4245 C4246 1.523 . S
C4246 C4227 1.368 . S
C4246 C4240 1.368 . S
C4246 C4245 1.523 . S
C4247 C4231 1.429 . S
C4247 C4243 1.429 . S
C4247 C4248 1.523 . S
C4248 C4232 1.368 . S
C4248 C4244 1.368 . S
C4248 C4247 1.523 . S
H4249 C4224 0.950 . S
H4250 C4226 0.950 . S
H4251 C4227 0.949 . S
H4252 C4229 0.950 . S
H4253 C4231 0.950 . S
C4254 C4255 1.349 . S
C4254 C4256 1.327 . S
C4254 H4279 0.950 . S
C4255 C4254 1.349 . S
C4255 C4271 1.349 . S
C4256 C4254 1.327 . S
C4256 C4275 1.429 . S
C4256 H4280 0.950 . S
C4257 C4274 1.574 . S
C4257 C4276 1.368 . S
C4257 H4281 0.949 . S
H4258 C4262 0.949 . S
C4259 C4260 1.349 . S
C4259 C4261 1.327 . S
C4259 H4282 0.950 . S
C4260 C4259 1.349 . S
C4260 C4272 1.349 . S
C4261 C4259 1.327 . S
C4261 C4277 1.429 . S
C4261 H4283 0.950 . S
C4262 H4258 0.949 . S
C4262 C4270 1.574 . S
C4262 C4278 1.368 . S
H4263 C4271 0.950 . S
H4264 C4269 0.950 . S
H4265 C4270 0.949 . S
H4266 C4272 0.950 . S
H4267 C4273 0.950 . S
H4268 C4274 0.949 . S
C4269 H4264 0.950 . S
C4269 C4271 1.327 . S
C4269 C4275 1.429 . S
C4270 C4262 1.574 . S
C4270 H4265 0.949 . S
C4270 C4276 1.368 . S
C4271 C4255 1.349 . S
C4271 H4263 0.950 . S
C4271 C4269 1.327 . S
C4272 C4260 1.349 . S
C4272 H4266 0.950 . S
C4272 C4273 1.327 . S
C4273 H4267 0.950 . S
C4273 C4272 1.327 . S
C4273 C4277 1.429 . S
C4274 C4257 1.574 . S
C4274 H4268 0.949 . S
C4274 C4278 1.368 . S
C4275 C4256 1.429 . S
C4275 C4269 1.429 . S
C4275 C4276 1.523 . S
C4276 C4257 1.368 . S
C4276 C4270 1.368 . S
C4276 C4275 1.523 . S
C4277 C4261 1.429 . S
C4277 C4273 1.429 . S
C4277 C4278 1.523 . S
C4278 C4262 1.368 . S
C4278 C4274 1.368 . S
C4278 C4277 1.523 . S
H4279 C4254 0.950 . S
H4280 C4256 0.950 . S
H4281 C4257 0.949 . S
H4282 C4259 0.950 . S
H4283 C4261 0.950 . S
C4284 C4285 1.349 . S
C4284 C4286 1.327 . S
C4284 H4309 0.950 . S
C4285 C4284 1.349 . S
C4285 C4301 1.349 . S
C4286 C4284 1.327 . S
C4286 C4305 1.429 . S
C4286 H4310 0.950 . S
C4287 C4304 1.574 . S
C4287 C4306 1.368 . S
C4287 H4311 0.949 . S
H4288 C4292 0.949 . S
C4289 C4290 1.349 . S
C4289 C4291 1.327 . S
C4289 H4312 0.950 . S
C4290 C4289 1.349 . S
C4290 C4302 1.349 . S
C4291 C4289 1.327 . S
C4291 C4307 1.429 . S
C4291 H4313 0.950 . S
C4292 H4288 0.949 . S
C4292 C4300 1.574 . S
C4292 C4308 1.368 . S
H4293 C4301 0.950 . S
H4294 C4299 0.950 . S
H4295 C4300 0.949 . S
H4296 C4302 0.950 . S
H4297 C4303 0.950 . S
H4298 C4304 0.949 . S
C4299 H4294 0.950 . S
C4299 C4301 1.327 . S
C4299 C4305 1.429 . S
C4300 C4292 1.574 . S
C4300 H4295 0.949 . S
C4300 C4306 1.368 . S
C4301 C4285 1.349 . S
C4301 H4293 0.950 . S
C4301 C4299 1.327 . S
C4302 C4290 1.349 . S
C4302 H4296 0.950 . S
C4302 C4303 1.327 . S
C4303 H4297 0.950 . S
C4303 C4302 1.327 . S
C4303 C4307 1.429 . S
C4304 C4287 1.574 . S
C4304 H4298 0.949 . S
C4304 C4308 1.368 . S
C4305 C4286 1.429 . S
C4305 C4299 1.429 . S
C4305 C4306 1.523 . S
C4306 C4287 1.368 . S
C4306 C4300 1.368 . S
C4306 C4305 1.523 . S
C4307 C4291 1.429 . S
C4307 C4303 1.429 . S
C4307 C4308 1.523 . S
C4308 C4292 1.368 . S
C4308 C4304 1.368 . S
C4308 C4307 1.523 . S
H4309 C4284 0.950 . S
H4310 C4286 0.950 . S
H4311 C4287 0.949 . S
H4312 C4289 0.950 . S
H4313 C4291 0.950 . S
C4314 C4315 1.349 . S
C4314 C4316 1.327 . S
C4314 H4339 0.950 . S
C4315 C4314 1.349 . S
C4315 C4331 1.349 . S
C4316 C4314 1.327 . S
C4316 C4335 1.429 . S
C4316 H4340 0.950 . S
C4317 C4334 1.574 . S
C4317 C4336 1.368 . S
C4317 H4341 0.949 . S
H4318 C4322 0.949 . S
C4319 C4320 1.349 . S
C4319 C4321 1.327 . S
C4319 H4342 0.950 . S
C4320 C4319 1.349 . S
C4320 C4332 1.349 . S
C4321 C4319 1.327 . S
C4321 C4337 1.429 . S
C4321 H4343 0.950 . S
C4322 H4318 0.949 . S
C4322 C4330 1.574 . S
C4322 C4338 1.368 . S
H4323 C4331 0.950 . S
H4324 C4329 0.950 . S
H4325 C4330 0.949 . S
H4326 C4332 0.950 . S
H4327 C4333 0.950 . S
H4328 C4334 0.949 . S
C4329 H4324 0.950 . S
C4329 C4331 1.327 . S
C4329 C4335 1.429 . S
C4330 C4322 1.574 . S
C4330 H4325 0.949 . S
C4330 C4336 1.368 . S
C4331 C4315 1.349 . S
C4331 H4323 0.950 . S
C4331 C4329 1.327 . S
C4332 C4320 1.349 . S
C4332 H4326 0.950 . S
C4332 C4333 1.327 . S
C4333 H4327 0.950 . S
C4333 C4332 1.327 . S
C4333 C4337 1.429 . S
C4334 C4317 1.574 . S
C4334 H4328 0.949 . S
C4334 C4338 1.368 . S
C4335 C4316 1.429 . S
C4335 C4329 1.429 . S
C4335 C4336 1.523 . S
C4336 C4317 1.368 . S
C4336 C4330 1.368 . S
C4336 C4335 1.523 . S
C4337 C4321 1.429 . S
C4337 C4333 1.429 . S
C4337 C4338 1.523 . S
C4338 C4322 1.368 . S
C4338 C4334 1.368 . S
C4338 C4337 1.523 . S
H4339 C4314 0.950 . S
H4340 C4316 0.950 . S
H4341 C4317 0.949 . S
H4342 C4319 0.950 . S
H4343 C4321 0.950 . S
C4344 C4345 1.349 . S
C4344 C4346 1.327 . S
C4344 H4369 0.950 . S
C4345 C4344 1.349 . S
C4345 C4361 1.349 . S
C4346 C4344 1.327 . S
C4346 C4365 1.429 . S
C4346 H4370 0.950 . S
C4347 C4364 1.574 . S
C4347 C4366 1.368 . S
C4347 H4371 0.949 . S
H4348 C4352 0.949 . S
C4349 C4350 1.349 . S
C4349 C4351 1.327 . S
C4349 H4372 0.950 . S
C4350 C4349 1.349 . S
C4350 C4362 1.349 . S
C4351 C4349 1.327 . S
C4351 C4367 1.429 . S
C4351 H4373 0.950 . S
C4352 H4348 0.949 . S
C4352 C4360 1.574 . S
C4352 C4368 1.368 . S
H4353 C4361 0.950 . S
H4354 C4359 0.950 . S
H4355 C4360 0.949 . S
H4356 C4362 0.950 . S
H4357 C4363 0.950 . S
H4358 C4364 0.949 . S
C4359 H4354 0.950 . S
C4359 C4361 1.327 . S
C4359 C4365 1.429 . S
C4360 C4352 1.574 . S
C4360 H4355 0.949 . S
C4360 C4366 1.368 . S
C4361 C4345 1.349 . S
C4361 H4353 0.950 . S
C4361 C4359 1.327 . S
C4362 C4350 1.349 . S
C4362 H4356 0.950 . S
C4362 C4363 1.327 . S
C4363 H4357 0.950 . S
C4363 C4362 1.327 . S
C4363 C4367 1.429 . S
C4364 C4347 1.574 . S
C4364 H4358 0.949 . S
C4364 C4368 1.368 . S
C4365 C4346 1.429 . S
C4365 C4359 1.429 . S
C4365 C4366 1.523 . S
C4366 C4347 1.368 . S
C4366 C4360 1.368 . S
C4366 C4365 1.523 . S
C4367 C4351 1.429 . S
C4367 C4363 1.429 . S
C4367 C4368 1.523 . S
C4368 C4352 1.368 . S
C4368 C4364 1.368 . S
C4368 C4367 1.523 . S
H4369 C4344 0.950 . S
H4370 C4346 0.950 . S
H4371 C4347 0.949 . S
H4372 C4349 0.950 . S
H4373 C4351 0.950 . S
C4374 C4375 1.349 . S
C4374 C4376 1.327 . S
C4374 H4399 0.950 . S
C4375 C4374 1.349 . S
C4375 C4391 1.349 . S
C4376 C4374 1.327 . S
C4376 C4395 1.429 . S
C4376 H4400 0.950 . S
C4377 C4394 1.574 . S
C4377 C4396 1.368 . S
C4377 H4401 0.949 . S
H4378 C4382 0.949 . S
C4379 C4380 1.349 . S
C4379 C4381 1.327 . S
C4379 H4402 0.950 . S
C4380 C4379 1.349 . S
C4380 C4392 1.349 . S
C4381 C4379 1.327 . S
C4381 C4397 1.429 . S
C4381 H4403 0.950 . S
C4382 H4378 0.949 . S
C4382 C4390 1.574 . S
C4382 C4398 1.368 . S
H4383 C4391 0.950 . S
H4384 C4389 0.950 . S
H4385 C4390 0.949 . S
H4386 C4392 0.950 . S
H4387 C4393 0.950 . S
H4388 C4394 0.949 . S
C4389 H4384 0.950 . S
C4389 C4391 1.327 . S
C4389 C4395 1.429 . S
C4390 C4382 1.574 . S
C4390 H4385 0.949 . S
C4390 C4396 1.368 . S
C4391 C4375 1.349 . S
C4391 H4383 0.950 . S
C4391 C4389 1.327 . S
C4392 C4380 1.349 . S
C4392 H4386 0.950 . S
C4392 C4393 1.327 . S
C4393 H4387 0.950 . S
C4393 C4392 1.327 . S
C4393 C4397 1.429 . S
C4394 C4377 1.574 . S
C4394 H4388 0.949 . S
C4394 C4398 1.368 . S
C4395 C4376 1.429 . S
C4395 C4389 1.429 . S
C4395 C4396 1.523 . S
C4396 C4377 1.368 . S
C4396 C4390 1.368 . S
C4396 C4395 1.523 . S
C4397 C4381 1.429 . S
C4397 C4393 1.429 . S
C4397 C4398 1.523 . S
C4398 C4382 1.368 . S
C4398 C4394 1.368 . S
C4398 C4397 1.523 . S
H4399 C4374 0.950 . S
H4400 C4376 0.950 . S
H4401 C4377 0.949 . S
H4402 C4379 0.950 . S
H4403 C4381 0.950 . S
C4404 C4405 1.349 . S
C4404 C4406 1.327 . S
C4404 H4429 0.950 . S
C4405 C4404 1.349 . S
C4405 C4421 1.349 . S
C4406 C4404 1.327 . S
C4406 C4425 1.429 . S
C4406 H4430 0.950 . S
C4407 C4424 1.574 . S
C4407 C4426 1.368 . S
C4407 H4431 0.949 . S
H4408 C4412 0.949 . S
C4409 C4410 1.349 . S
C4409 C4411 1.327 . S
C4409 H4432 0.950 . S
C4410 C4409 1.349 . S
C4410 C4422 1.349 . S
C4411 C4409 1.327 . S
C4411 C4427 1.429 . S
C4411 H4433 0.950 . S
C4412 H4408 0.949 . S
C4412 C4420 1.574 . S
C4412 C4428 1.368 . S
H4413 C4421 0.950 . S
H4414 C4419 0.950 . S
H4415 C4420 0.949 . S
H4416 C4422 0.950 . S
H4417 C4423 0.950 . S
H4418 C4424 0.949 . S
C4419 H4414 0.950 . S
C4419 C4421 1.327 . S
C4419 C4425 1.429 . S
C4420 C4412 1.574 . S
C4420 H4415 0.949 . S
C4420 C4426 1.368 . S
C4421 C4405 1.349 . S
C4421 H4413 0.950 . S
C4421 C4419 1.327 . S
C4422 C4410 1.349 . S
C4422 H4416 0.950 . S
C4422 C4423 1.327 . S
C4423 H4417 0.950 . S
C4423 C4422 1.327 . S
C4423 C4427 1.429 . S
C4424 C4407 1.574 . S
C4424 H4418 0.949 . S
C4424 C4428 1.368 . S
C4425 C4406 1.429 . S
C4425 C4419 1.429 . S
C4425 C4426 1.523 . S
C4426 C4407 1.368 . S
C4426 C4420 1.368 . S
C4426 C4425 1.523 . S
C4427 C4411 1.429 . S
C4427 C4423 1.429 . S
C4427 C4428 1.523 . S
C4428 C4412 1.368 . S
C4428 C4424 1.368 . S
C4428 C4427 1.523 . S
H4429 C4404 0.950 . S
H4430 C4406 0.950 . S
H4431 C4407 0.949 . S
H4432 C4409 0.950 . S
H4433 C4411 0.950 . S
C4434 C4435 1.349 . S
C4434 C4436 1.327 . S
C4434 H4459 0.950 . S
C4435 C4434 1.349 . S
C4435 C4451 1.349 . S
C4436 C4434 1.327 . S
C4436 C4455 1.429 . S
C4436 H4460 0.950 . S
C4437 C4454 1.574 . S
C4437 C4456 1.368 . S
C4437 H4461 0.949 . S
H4438 C4442 0.949 . S
C4439 C4440 1.349 . S
C4439 C4441 1.327 . S
C4439 H4462 0.950 . S
C4440 C4439 1.349 . S
C4440 C4452 1.349 . S
C4441 C4439 1.327 . S
C4441 C4457 1.429 . S
C4441 H4463 0.950 . S
C4442 H4438 0.949 . S
C4442 C4450 1.574 . S
C4442 C4458 1.368 . S
H4443 C4451 0.950 . S
H4444 C4449 0.950 . S
H4445 C4450 0.949 . S
H4446 C4452 0.950 . S
H4447 C4453 0.950 . S
H4448 C4454 0.949 . S
C4449 H4444 0.950 . S
C4449 C4451 1.327 . S
C4449 C4455 1.429 . S
C4450 C4442 1.574 . S
C4450 H4445 0.949 . S
C4450 C4456 1.368 . S
C4451 C4435 1.349 . S
C4451 H4443 0.950 . S
C4451 C4449 1.327 . S
C4452 C4440 1.349 . S
C4452 H4446 0.950 . S
C4452 C4453 1.327 . S
C4453 H4447 0.950 . S
C4453 C4452 1.327 . S
C4453 C4457 1.429 . S
C4454 C4437 1.574 . S
C4454 H4448 0.949 . S
C4454 C4458 1.368 . S
C4455 C4436 1.429 . S
C4455 C4449 1.429 . S
C4455 C4456 1.523 . S
C4456 C4437 1.368 . S
C4456 C4450 1.368 . S
C4456 C4455 1.523 . S
C4457 C4441 1.429 . S
C4457 C4453 1.429 . S
C4457 C4458 1.523 . S
C4458 C4442 1.368 . S
C4458 C4454 1.368 . S
C4458 C4457 1.523 . S
H4459 C4434 0.950 . S
H4460 C4436 0.950 . S
H4461 C4437 0.949 . S
H4462 C4439 0.950 . S
H4463 C4441 0.950 . S
C4464 C4465 1.349 . S
C4464 C4466 1.327 . S
C4464 H4489 0.950 . S
C4465 C4464 1.349 . S
C4465 C4481 1.349 . S
C4466 C4464 1.327 . S
C4466 C4485 1.429 . S
C4466 H4490 0.950 . S
C4467 C4484 1.574 . S
C4467 C4486 1.368 . S
C4467 H4491 0.949 . S
H4468 C4472 0.949 . S
C4469 C4470 1.349 . S
C4469 C4471 1.327 . S
C4469 H4492 0.950 . S
C4470 C4469 1.349 . S
C4470 C4482 1.349 . S
C4471 C4469 1.327 . S
C4471 C4487 1.429 . S
C4471 H4493 0.950 . S
C4472 H4468 0.949 . S
C4472 C4480 1.574 . S
C4472 C4488 1.368 . S
H4473 C4481 0.950 . S
H4474 C4479 0.950 . S
H4475 C4480 0.949 . S
H4476 C4482 0.950 . S
H4477 C4483 0.950 . S
H4478 C4484 0.949 . S
C4479 H4474 0.950 . S
C4479 C4481 1.327 . S
C4479 C4485 1.429 . S
C4480 C4472 1.574 . S
C4480 H4475 0.949 . S
C4480 C4486 1.368 . S
C4481 C4465 1.349 . S
C4481 H4473 0.950 . S
C4481 C4479 1.327 . S
C4482 C4470 1.349 . S
C4482 H4476 0.950 . S
C4482 C4483 1.327 . S
C4483 H4477 0.950 . S
C4483 C4482 1.327 . S
C4483 C4487 1.429 . S
C4484 C4467 1.574 . S
C4484 H4478 0.949 . S
C4484 C4488 1.368 . S
C4485 C4466 1.429 . S
C4485 C4479 1.429 . S
C4485 C4486 1.523 . S
C4486 C4467 1.368 . S
C4486 C4480 1.368 . S
C4486 C4485 1.523 . S
C4487 C4471 1.429 . S
C4487 C4483 1.429 . S
C4487 C4488 1.523 . S
C4488 C4472 1.368 . S
C4488 C4484 1.368 . S
C4488 C4487 1.523 . S
H4489 C4464 0.950 . S
H4490 C4466 0.950 . S
H4491 C4467 0.949 . S
H4492 C4469 0.950 . S
H4493 C4471 0.950 . S
C4494 C4495 1.349 . S
C4494 C4496 1.327 . S
C4494 H4519 0.950 . S
C4495 C4494 1.349 . S
C4495 C4511 1.349 . S
C4496 C4494 1.327 . S
C4496 C4515 1.429 . S
C4496 H4520 0.950 . S
C4497 C4514 1.574 . S
C4497 C4516 1.368 . S
C4497 H4521 0.949 . S
H4498 C4502 0.949 . S
C4499 C4500 1.349 . S
C4499 C4501 1.327 . S
C4499 H4522 0.950 . S
C4500 C4499 1.349 . S
C4500 C4512 1.349 . S
C4501 C4499 1.327 . S
C4501 C4517 1.429 . S
C4501 H4523 0.950 . S
C4502 H4498 0.949 . S
C4502 C4510 1.574 . S
C4502 C4518 1.368 . S
H4503 C4511 0.950 . S
H4504 C4509 0.950 . S
H4505 C4510 0.949 . S
H4506 C4512 0.950 . S
H4507 C4513 0.950 . S
H4508 C4514 0.949 . S
C4509 H4504 0.950 . S
C4509 C4511 1.327 . S
C4509 C4515 1.429 . S
C4510 C4502 1.574 . S
C4510 H4505 0.949 . S
C4510 C4516 1.368 . S
C4511 C4495 1.349 . S
C4511 H4503 0.950 . S
C4511 C4509 1.327 . S
C4512 C4500 1.349 . S
C4512 H4506 0.950 . S
C4512 C4513 1.327 . S
C4513 H4507 0.950 . S
C4513 C4512 1.327 . S
C4513 C4517 1.429 . S
C4514 C4497 1.574 . S
C4514 H4508 0.949 . S
C4514 C4518 1.368 . S
C4515 C4496 1.429 . S
C4515 C4509 1.429 . S
C4515 C4516 1.523 . S
C4516 C4497 1.368 . S
C4516 C4510 1.368 . S
C4516 C4515 1.523 . S
C4517 C4501 1.429 . S
C4517 C4513 1.429 . S
C4517 C4518 1.523 . S
C4518 C4502 1.368 . S
C4518 C4514 1.368 . S
C4518 C4517 1.523 . S
H4519 C4494 0.950 . S
H4520 C4496 0.950 . S
H4521 C4497 0.949 . S
H4522 C4499 0.950 . S
H4523 C4501 0.950 . S
C4524 C4525 1.349 . S
C4524 C4526 1.327 . S
C4524 H4549 0.950 . S
C4525 C4524 1.349 . S
C4525 C4541 1.349 . S
C4526 C4524 1.327 . S
C4526 C4545 1.429 . S
C4526 H4550 0.950 . S
C4527 C4544 1.574 . S
C4527 C4546 1.368 . S
C4527 H4551 0.949 . S
H4528 C4532 0.949 . S
C4529 C4530 1.349 . S
C4529 C4531 1.327 . S
C4529 H4552 0.950 . S
C4530 C4529 1.349 . S
C4530 C4542 1.349 . S
C4531 C4529 1.327 . S
C4531 C4547 1.429 . S
C4531 H4553 0.950 . S
C4532 H4528 0.949 . S
C4532 C4540 1.574 . S
C4532 C4548 1.368 . S
H4533 C4541 0.950 . S
H4534 C4539 0.950 . S
H4535 C4540 0.949 . S
H4536 C4542 0.950 . S
H4537 C4543 0.950 . S
H4538 C4544 0.949 . S
C4539 H4534 0.950 . S
C4539 C4541 1.327 . S
C4539 C4545 1.429 . S
C4540 C4532 1.574 . S
C4540 H4535 0.949 . S
C4540 C4546 1.368 . S
C4541 C4525 1.349 . S
C4541 H4533 0.950 . S
C4541 C4539 1.327 . S
C4542 C4530 1.349 . S
C4542 H4536 0.950 . S
C4542 C4543 1.327 . S
C4543 H4537 0.950 . S
C4543 C4542 1.327 . S
C4543 C4547 1.429 . S
C4544 C4527 1.574 . S
C4544 H4538 0.949 . S
C4544 C4548 1.368 . S
C4545 C4526 1.429 . S
C4545 C4539 1.429 . S
C4545 C4546 1.523 . S
C4546 C4527 1.368 . S
C4546 C4540 1.368 . S
C4546 C4545 1.523 . S
C4547 C4531 1.429 . S
C4547 C4543 1.429 . S
C4547 C4548 1.523 . S
C4548 C4532 1.368 . S
C4548 C4544 1.368 . S
C4548 C4547 1.523 . S
H4549 C4524 0.950 . S
H4550 C4526 0.950 . S
H4551 C4527 0.949 . S
H4552 C4529 0.950 . S
H4553 C4531 0.950 . S
C4554 C4555 1.349 . S
C4554 C4556 1.327 . S
C4554 H4579 0.950 . S
C4555 C4554 1.349 . S
C4555 C4571 1.349 . S
C4556 C4554 1.327 . S
C4556 C4575 1.429 . S
C4556 H4580 0.950 . S
C4557 C4574 1.574 . S
C4557 C4576 1.368 . S
C4557 H4581 0.949 . S
H4558 C4562 0.949 . S
C4559 C4560 1.349 . S
C4559 C4561 1.327 . S
C4559 H4582 0.950 . S
C4560 C4559 1.349 . S
C4560 C4572 1.349 . S
C4561 C4559 1.327 . S
C4561 C4577 1.429 . S
C4561 H4583 0.950 . S
C4562 H4558 0.949 . S
C4562 C4570 1.574 . S
C4562 C4578 1.368 . S
H4563 C4571 0.950 . S
H4564 C4569 0.950 . S
H4565 C4570 0.949 . S
H4566 C4572 0.950 . S
H4567 C4573 0.950 . S
H4568 C4574 0.949 . S
C4569 H4564 0.950 . S
C4569 C4571 1.327 . S
C4569 C4575 1.429 . S
C4570 C4562 1.574 . S
C4570 H4565 0.949 . S
C4570 C4576 1.368 . S
C4571 C4555 1.349 . S
C4571 H4563 0.950 . S
C4571 C4569 1.327 . S
C4572 C4560 1.349 . S
C4572 H4566 0.950 . S
C4572 C4573 1.327 . S
C4573 H4567 0.950 . S
C4573 C4572 1.327 . S
C4573 C4577 1.429 . S
C4574 C4557 1.574 . S
C4574 H4568 0.949 . S
C4574 C4578 1.368 . S
C4575 C4556 1.429 . S
C4575 C4569 1.429 . S
C4575 C4576 1.523 . S
C4576 C4557 1.368 . S
C4576 C4570 1.368 . S
C4576 C4575 1.523 . S
C4577 C4561 1.429 . S
C4577 C4573 1.429 . S
C4577 C4578 1.523 . S
C4578 C4562 1.368 . S
C4578 C4574 1.368 . S
C4578 C4577 1.523 . S
H4579 C4554 0.950 . S
H4580 C4556 0.950 . S
H4581 C4557 0.949 . S
H4582 C4559 0.950 . S
H4583 C4561 0.950 . S
C1710 N1164 1.458 . S
C1705 C31 1.491 . S
C1740 C1191 1.569 . S
C1735 C61 1.572 . S
C1765 C73 1.514 . S
C1770 C1205 1.505 . S
C1800 N1223 1.444 . S
C1795 C133 1.473 . S
C1825 C175 1.557 . S
C1830 C1228 1.561 . S
C1855 C211 1.487 . S
C1860 C1168 1.485 . S
C1885 C241 1.418 . S
C1890 N1187 1.389 . S
C1920 N1200 1.450 . S
C1915 C253 1.494 . S
C1950 N1246 1.408 . S
C1945 C1 1.440 . S
C1975 C37 1.516 . S
C1980 N1269 1.484 . S
C2005 C103 1.558 . S
C2010 N1292 1.537 . S
C2040 N1325 1.430 . S
C2035 C139 1.471 . S
C2065 C145 1.528 . S
C2070 C1352 1.523 . S
C2100 C1375 1.552 . S
C2095 C205 1.555 . S
C2125 C247 1.491 . S
C2130 C1398 1.494 . S
C2160 C1412 1.439 . S
C2155 C283 1.440 . S
C2185 C25 1.422 . S
C2190 C1329 1.415 . S
C2215 C169 1.467 . S
C2220 N1371 1.439 . S
C2250 N1394 1.435 . S
C2245 C181 1.471 . S
C2275 C217 1.466 . S
C2280 N1407 1.436 . S
C2310 N1348 1.414 . S
C2305 C277 1.452 . S
C2340 C1274 1.657 . S
C2335 C97 1.657 . S
C2365 C109 1.514 . S
C2370 C1297 1.509 . S
C2400 C1251 1.573 . S
C2395 C67 1.573 . S
C2430 C1444 1.451 . S
C2425 C319 1.450 . S
C2455 C349 1.594 . S
C2460 C1458 1.594 . S
C2485 C361 1.505 . S
C2490 N1486 1.464 . S
C2520 N1499 1.434 . S
C2515 C421 1.464 . S
C2545 C463 1.567 . S
C2550 C1504 1.572 . S
C2575 C499 1.479 . S
C2580 N1440 1.440 . S
C2605 C529 1.511 . S
C2610 N1453 1.482 . S
C2635 C541 1.444 . S
C2640 C1490 1.436 . S
C2670 N1338 1.408 . S
C2665 C289 1.438 . S
C2695 C325 1.512 . S
C2700 N1522 1.469 . S
C2730 N1384 1.447 . S
C2725 C391 1.479 . S
C2755 C427 1.510 . S
C2760 C1559 1.513 . S
C2785 C433 1.558 . S
C2790 C1260 1.558 . S
C2820 C1573 1.586 . S
C2815 C493 1.585 . S
C2845 C535 1.543 . S
C2850 C1306 1.551 . S
C2880 N1591 1.398 . S
C2875 C571 1.435 . S
C2905 C313 1.454 . S
C2910 N1555 1.425 . S
C2940 N1568 1.465 . S
C2935 C457 1.497 . S
C2965 C469 1.471 . S
C2970 N1302 1.424 . S
C3000 C1596 1.441 . S
C2995 C505 1.436 . S
C3025 C565 1.425 . S
C3030 N1256 1.391 . S
C3055 C385 1.555 . S
C3060 C1527 1.556 . S
C3085 C397 1.553 . S
C3090 C1389 1.556 . S
C3115 C355 1.584 . S
C3120 C1343 1.585 . S
C3145 C607 1.516 . S
C3150 C1481 1.523 . S
C3180 C1513 1.523 . S
C3175 C637 1.528 . S
C3205 C649 1.473 . S
C3210 N1430 1.438 . S
C3235 C709 1.440 . S
C3240 N1463 1.411 . S
C3265 C751 1.568 . S
C3270 C1467 1.566 . S
C3295 C787 1.551 . S
C3300 N1476 1.518 . S
C3330 N1509 1.370 . S
C3325 C817 1.399 . S
C3355 C829 1.501 . S
C3360 C1435 1.500 . S
C3390 N1624 1.433 . S
C3385 C577 1.465 . S
C3415 C613 1.458 . S
C3420 N1361 1.422 . S
C3450 N1647 1.380 . S
C3445 C679 1.420 . S
C3475 C715 1.476 . S
C3480 N1417 1.444 . S
C3505 C721 1.534 . S
C3510 C1665 1.538 . S
C3535 C781 1.651 . S
C3540 C1283 1.648 . S
C3570 N1683 1.396 . S
C3565 C823 1.427 . S
C3595 C859 1.486 . S
C3600 C1320 1.493 . S
C3630 C1421 1.476 . S
C3625 C601 1.475 . S
C3660 N1279 1.471 . S
C3655 C745 1.505 . S
C3685 C757 1.572 . S
C3690 C1688 1.570 . S
C3715 C793 1.397 . S
C3720 N1315 1.357 . S
C3750 N1660 1.465 . S
C3745 C853 1.498 . S
C3780 C1366 1.552 . S
C3775 C673 1.551 . S
C3810 C1651 1.546 . S
C3805 C685 1.547 . S
C3840 C1628 1.539 . S
C3835 C643 1.541 . S
C3865 C895 1.405 . S
C3870 N1210 1.368 . S
C3895 C925 1.543 . S
C3900 C1237 1.538 . S
C3930 C1159 1.540 . S
C3925 C937 1.540 . S
C3960 N1177 1.380 . S
C3955 C997 1.409 . S
C3990 C1182 1.569 . S
C3985 C1039 1.566 . S
C4020 C1214 1.484 . S
C4015 C1075 1.490 . S
C4050 N1233 1.486 . S
C4045 C1105 1.520 . S
C4075 C1117 1.507 . S
C4080 N1154 1.472 . S
C4105 C865 1.374 . S
C4110 N1670 1.344 . S
C4140 N1578 1.445 . S
C4135 C901 1.477 . S
C4170 C1697 1.574 . S
C4165 C967 1.575 . S
C4200 C1605 1.390 . S
C4195 C1003 1.390 . S
C4225 C1009 1.566 . S
C4230 C1619 1.569 . S
C4260 C1536 1.576 . S
C4255 C1069 1.581 . S
C4290 C1642 1.641 . S
C4285 C1111 1.636 . S
C4315 C1147 1.490 . S
C4320 N1545 1.447 . S
C4350 N1601 1.349 . S
C4345 C889 1.376 . S
C4380 N1532 1.447 . S
C4375 C1033 1.474 . S
C4410 N1637 1.394 . S
C4405 C1045 1.424 . S
C4435 C1081 1.503 . S
C4440 C1550 1.508 . S
C4465 C1141 1.442 . S
C4470 N1614 1.406 . S
C4495 C961 1.649 . S
C4500 C1582 1.645 . S
C4525 C973 1.436 . S
C4530 N1693 1.406 . S
C4560 C1674 1.515 . S
C4555 C931 1.520 . S
