# Generated by pormake.
# Topology pyr, (3,6)-cn, num edge types: 1
# Building blocks:
#     Node 0, Type 0, BuildingBlock: QEWDON_clean_linker_0, # of connection points: 3
#     Node 1, Type 0, BuildingBlock: QEWDON_clean_linker_0, # of connection points: 3
#     Node 2, Type 0, BuildingBlock: QEWDON_clean_linker_0, # of connection points: 3
#     Node 3, Type 0, BuildingBlock: QEWDON_clean_linker_0, # of connection points: 3
#     Node 4, Type 0, BuildingBlock: QEWDON_clean_linker_0, # of connection points: 3
#     Node 5, Type 0, BuildingBlock: QEWDON_clean_linker_0, # of connection points: 3
#     Node 6, Type 0, BuildingBlock: QEWDON_clean_linker_0, # of connection points: 3
#     Node 7, Type 0, BuildingBlock: QEWDON_clean_linker_0, # of connection points: 3
#     Node 8, Type 1, BuildingBlock: BETDIP_clean_sbu_0, # of connection points: 6
#     Node 9, Type 1, BuildingBlock: BETDIP_clean_sbu_0, # of connection points: 6
#     Node 10, Type 1, BuildingBlock: BETDIP_clean_sbu_0, # of connection points: 6
#     Node 11, Type 1, BuildingBlock: BETDIP_clean_sbu_0, # of connection points: 6
#     Edge 12, Type (0, 1), BuildingBlock: TEMPAE_clean_linker_10, # of connection points: 2
#     Edge 13, Type (0, 1), BuildingBlock: TEMPAE_clean_linker_10, # of connection points: 2
#     Edge 14, Type (0, 1), BuildingBlock: TEMPAE_clean_linker_10, # of connection points: 2
#     Edge 15, Type (0, 1), BuildingBlock: TEMPAE_clean_linker_10, # of connection points: 2
#     Edge 16, Type (0, 1), BuildingBlock: TEMPAE_clean_linker_10, # of connection points: 2
#     Edge 17, Type (0, 1), BuildingBlock: TEMPAE_clean_linker_10, # of connection points: 2
#     Edge 18, Type (0, 1), BuildingBlock: TEMPAE_clean_linker_10, # of connection points: 2
#     Edge 19, Type (0, 1), BuildingBlock: TEMPAE_clean_linker_10, # of connection points: 2
#     Edge 20, Type (0, 1), BuildingBlock: TEMPAE_clean_linker_10, # of connection points: 2
#     Edge 21, Type (0, 1), BuildingBlock: TEMPAE_clean_linker_10, # of connection points: 2
#     Edge 22, Type (0, 1), BuildingBlock: TEMPAE_clean_linker_10, # of connection points: 2
#     Edge 23, Type (0, 1), BuildingBlock: TEMPAE_clean_linker_10, # of connection points: 2
#     Edge 24, Type (0, 1), BuildingBlock: TEMPAE_clean_linker_10, # of connection points: 2
#     Edge 25, Type (0, 1), BuildingBlock: TEMPAE_clean_linker_10, # of connection points: 2
#     Edge 26, Type (0, 1), BuildingBlock: TEMPAE_clean_linker_10, # of connection points: 2
#     Edge 27, Type (0, 1), BuildingBlock: TEMPAE_clean_linker_10, # of connection points: 2
#     Edge 28, Type (0, 1), BuildingBlock: TEMPAE_clean_linker_10, # of connection points: 2
#     Edge 29, Type (0, 1), BuildingBlock: TEMPAE_clean_linker_10, # of connection points: 2
#     Edge 30, Type (0, 1), BuildingBlock: TEMPAE_clean_linker_10, # of connection points: 2
#     Edge 31, Type (0, 1), BuildingBlock: TEMPAE_clean_linker_10, # of connection points: 2
#     Edge 32, Type (0, 1), BuildingBlock: TEMPAE_clean_linker_10, # of connection points: 2
#     Edge 33, Type (0, 1), BuildingBlock: TEMPAE_clean_linker_10, # of connection points: 2
#     Edge 34, Type (0, 1), BuildingBlock: TEMPAE_clean_linker_10, # of connection points: 2
#     Edge 35, Type (0, 1), BuildingBlock: TEMPAE_clean_linker_10, # of connection points: 2
# Relax obj value: 0.166
# Max RMSD: 0.272
# Mean RMSD: 0.185
data_MOF--net-pyr--node1-BETDIP_clean_sbu_0--node2-QEWDON_clean_linker_0--edge1-TEMPAE_clean_linker_10
_symmetry_space_group_name_H-M    P1
_symmetry_Int_Tables_number       1
_symmetry_cell_setting            triclinic
loop_
_symmetry_equiv_pos_as_xyz
'x, y, z'
_cell_length_a     36.167654
_cell_length_b     40.963755
_cell_length_c     42.346641
_cell_angle_alpha  88.409662
_cell_angle_beta   93.501332
_cell_angle_gamma 114.70208
loop_
_atom_site_label
_atom_site_type_symbol
_atom_site_fract_x
_atom_site_fract_y
_atom_site_fract_z
_atom_type_partial_charge
H0 H 0.43138 0.32928 0.20388 0.0
C1 C 0.41263 0.31954 0.22405 0.0
C2 C 0.40669 0.28614 0.23764 0.0
C3 C 0.39402 0.34028 0.23589 0.0
H4 H 0.37799 0.24847 0.27472 0.0
C5 C 0.38257 0.27409 0.26398 0.0
C6 C 0.36406 0.2947 0.27645 0.0
C7 C 0.36972 0.32767 0.26203 0.0
C8 C 0.39938 0.37478 0.2204 0.0
H9 H 0.35519 0.34358 0.27112 0.0
C10 C 0.36547 0.38248 0.21274 0.0
C11 C 0.37013 0.41462 0.19707 0.0
C12 C 0.43827 0.39978 0.2125 0.0
H13 H 0.46492 0.3946 0.2183 0.0
C14 C 0.44316 0.43186 0.19725 0.0
H15 H 0.33539 0.36326 0.21875 0.0
C16 C 0.40938 0.43928 0.18951 0.0
H17 H 0.41392 0.46406 0.17715 0.0
H18 H 0.47324 0.45096 0.19124 0.0
H19 H 0.18417 0.83623 0.77313 0.0
C20 C 0.2005 0.82235 0.76314 0.0
C21 C 0.23599 0.82307 0.779 0.0
C22 C 0.18587 0.80385 0.73447 0.0
H23 H 0.28505 0.80657 0.77767 0.0
C24 C 0.25722 0.80545 0.76567 0.0
C25 C 0.24296 0.78661 0.73701 0.0
C26 C 0.20693 0.7857 0.72164 0.0
C27 C 0.14853 0.80373 0.71811 0.0
H28 H 0.19543 0.7712 0.69959 0.0
C29 C 0.14488 0.83625 0.71232 0.0
C30 C 0.10868 0.83627 0.69841 0.0
C31 C 0.11586 0.77119 0.70922 0.0
H32 H 0.11801 0.74583 0.71354 0.0
C33 C 0.07972 0.77113 0.69548 0.0
H34 H 0.17013 0.86154 0.71877 0.0
C35 C 0.07597 0.80347 0.69027 0.0
H36 H 0.04782 0.80295 0.67941 0.0
H37 H 0.05451 0.74594 0.68893 0.0
H38 H 0.6853 0.46134 0.89487 0.0
C39 C 0.67299 0.43336 0.90201 0.0
C40 C 0.69611 0.42104 0.92329 0.0
C41 C 0.63312 0.40999 0.89128 0.0
H42 H 0.69571 0.37566 0.95071 0.0
C43 C 0.67898 0.38492 0.9333 0.0
C44 C 0.63936 0.36121 0.92314 0.0
C45 C 0.61684 0.37392 0.90195 0.0
C46 C 0.60572 0.42383 0.87315 0.0
H47 H 0.58602 0.35584 0.8943 0.0
C48 C 0.61652 0.44452 0.84491 0.0
C49 C 0.58879 0.45668 0.82898 0.0
C50 C 0.56739 0.41589 0.88498 0.0
H51 H 0.55841 0.40067 0.90669 0.0
C52 C 0.5402 0.42758 0.86934 0.0
H53 H 0.64596 0.45102 0.83549 0.0
C54 C 0.55064 0.44761 0.84165 0.0
H55 H 0.52843 0.4558 0.82986 0.0
H56 H 0.51076 0.42103 0.87874 0.0
H57 H 0.93357 0.81848 0.37513 0.0
C58 C 0.90939 0.79736 0.38724 0.0
C59 C 0.90049 0.80382 0.4179 0.0
C60 C 0.88663 0.76421 0.37146 0.0
H61 H 0.85985 0.781 0.45564 0.0
C62 C 0.8685 0.77609 0.4328 0.0
C63 C 0.84537 0.74283 0.41798 0.0
C64 C 0.85458 0.73705 0.38719 0.0
C65 C 0.89189 0.7613 0.3368 0.0
H66 H 0.83589 0.71211 0.37505 0.0
C67 C 0.90102 0.73406 0.32339 0.0
C68 C 0.90643 0.7341 0.29027 0.0
C69 C 0.88773 0.78749 0.31656 0.0
H70 H 0.88045 0.80837 0.32585 0.0
C71 C 0.89248 0.78715 0.28421 0.0
H72 H 0.90459 0.71369 0.3385 0.0
C73 C 0.90181 0.76086 0.27121 0.0
H74 H 0.9057 0.76151 0.24599 0.0
H75 H 0.88907 0.80757 0.26908 0.0
H76 H 0.69432 0.79921 0.95325 0.0
C77 C 0.70362 0.81291 0.9309 0.0
C78 C 0.73961 0.81529 0.91817 0.0
C79 C 0.67993 0.82891 0.9154 0.0
H80 H 0.7784 0.8347 0.87885 0.0
C81 C 0.75113 0.8333 0.88926 0.0
C82 C 0.7278 0.84948 0.87348 0.0
C83 C 0.69247 0.8477 0.88696 0.0
C84 C 0.6416 0.8252 0.92882 0.0
H85 H 0.674 0.85977 0.87481 0.0
C86 C 0.63528 0.85574 0.93588 0.0
C87 C 0.59985 0.85209 0.95052 0.0
C88 C 0.61178 0.7909 0.93569 0.0
H89 H 0.61608 0.76704 0.93035 0.0
C90 C 0.57611 0.78712 0.9494 0.0
H91 H 0.6587 0.88227 0.93126 0.0
C92 C 0.57018 0.81747 0.95693 0.0
H93 H 0.5424 0.81389 0.96782 0.0
H94 H 0.55316 0.76059 0.9545 0.0
H95 H 0.90033 0.30029 0.47748 0.0
C96 C 0.88836 0.30135 0.45363 0.0
C97 C 0.90327 0.28966 0.42836 0.0
C98 C 0.85625 0.31213 0.44881 0.0
H99 H 0.89808 0.28203 0.37773 0.0
C100 C 0.88703 0.2908 0.39759 0.0
C101 C 0.85514 0.30162 0.39225 0.0
C102 C 0.84011 0.31252 0.41779 0.0
C103 C 0.83694 0.31929 0.47638 0.0
H104 H 0.81399 0.31887 0.41361 0.0
C105 C 0.81979 0.34456 0.47429 0.0
C106 C 0.79919 0.34946 0.49964 0.0
C107 C 0.83371 0.29947 0.50463 0.0
H108 H 0.84509 0.27889 0.50696 0.0
C109 C 0.81441 0.30501 0.5301 0.0
H110 H 0.82234 0.3604 0.45296 0.0
C111 C 0.79707 0.32965 0.52765 0.0
H112 H 0.78082 0.33228 0.54738 0.0
H113 H 0.81196 0.28944 0.55158 0.0
H114 H 0.45849 0.80394 0.26094 0.0
C115 C 0.42732 0.78749 0.25283 0.0
C116 C 0.40619 0.80216 0.23198 0.0
C117 C 0.4091 0.75108 0.26219 0.0
H118 H 0.35086 0.78986 0.20316 0.0
C119 C 0.36646 0.77957 0.22063 0.0
C120 C 0.34778 0.74311 0.22937 0.0
C121 C 0.36931 0.72919 0.25045 0.0
C122 C 0.4348 0.73391 0.27723 0.0
H123 H 0.35597 0.70087 0.2565 0.0
C124 C 0.43403 0.72414 0.30971 0.0
C125 C 0.45847 0.70661 0.32217 0.0
C126 C 0.45962 0.72588 0.25753 0.0
H127 H 0.46046 0.73293 0.23264 0.0
C128 C 0.48276 0.70798 0.26936 0.0
H129 H 0.41511 0.73057 0.32502 0.0
C130 C 0.48199 0.69818 0.30113 0.0
H131 H 0.49969 0.68345 0.30906 0.0
H132 H 0.5012 0.70136 0.25372 0.0
H133 H 0.21272 0.45644 0.78036 0.0
C134 C 0.19549 0.43123 0.76815 0.0
C135 C 0.20554 0.42644 0.73735 0.0
C136 C 0.16459 0.40285 0.78377 0.0
H137 H 0.19351 0.38895 0.69944 0.0
C138 C 0.18429 0.39299 0.72235 0.0
C139 C 0.15352 0.36406 0.73714 0.0
C140 C 0.14385 0.36945 0.76787 0.0
C141 C 0.15848 0.40534 0.81836 0.0
H142 H 0.12056 0.34738 0.77984 0.0
C143 C 0.14853 0.43219 0.83162 0.0
C144 C 0.14252 0.43191 0.86466 0.0
C145 C 0.1629 0.37934 0.83871 0.0
H146 H 0.1709 0.35882 0.82959 0.0
C147 C 0.15759 0.37947 0.87099 0.0
H148 H 0.14478 0.45243 0.81645 0.0
C149 C 0.14741 0.40535 0.88381 0.0
H150 H 0.1431 0.40453 0.90898 0.0
H151 H 0.16124 0.35922 0.88619 0.0
Tb152 Tb 0.98962 0.06776 0.5807 0.0
Tb153 Tb 0.07568 0.10369 0.56823 0.0
C154 C 0.91805 0.02356 0.59128 0.0
C155 C 0.89624 1.00784 0.61992 0.0
C156 C 0.8623 0.97465 0.61817 0.0
C157 C 0.84155 0.9592 0.64533 0.0
C158 C 0.85438 0.97679 0.67471 0.0
C159 C 0.88842 1.01022 0.67624 0.0
C160 C 0.90928 0.02552 0.64911 0.0
C161 C 0.02903 0.12825 0.6137 0.0
C162 C 0.05309 0.0442 0.61783 0.0
C163 C 0.14705 0.14808 0.55765 0.0
C164 C 0.16889 0.16569 0.52913 0.0
C165 C 0.16428 0.19524 0.51475 0.0
C166 C 0.18497 0.21118 0.48763 0.0
C167 C 0.21068 0.19793 0.47429 0.0
C168 C 0.21526 0.16844 0.48883 0.0
C169 C 0.19489 0.15273 0.516 0.0
C170 C 0.03621 0.04278 0.53595 0.0
C171 C 0.01167 0.12439 0.52797 0.0
O172 O 0.94713 0.01409 0.5852 0.0
O173 O 0.92896 0.05799 0.58736 0.0
O174 O 0.04279 0.1054 0.60799 0.0
O175 O 0.99139 0.11556 0.60358 0.0
O176 O 0.01554 0.03437 0.60582 0.0
O177 O 0.08179 0.07607 0.61146 0.0
O178 O 0.11878 0.15743 0.56645 0.0
O179 O 0.13582 0.11341 0.55974 0.0
O180 O 0.02267 0.06583 0.54129 0.0
O181 O 0.07395 0.05543 0.546 0.0
O182 O 0.04972 0.13501 0.53922 0.0
O183 O 0.98307 0.09353 0.5368 0.0
H184 H 0.85203 0.96055 0.59584 0.0
H185 H 0.81592 0.93316 0.6434 0.0
H186 H 0.89885 0.02468 0.69837 0.0
H187 H 0.93558 0.05116 0.65093 0.0
H188 H 0.14471 0.20609 0.52438 0.0
H189 H 0.18114 0.23414 0.47732 0.0
H190 H 0.23422 0.15709 0.47898 0.0
H191 H 0.19925 0.13013 0.5266 0.0
Tb192 Tb 0.57186 0.10714 0.09503 0.0
Tb193 Tb 0.47893 0.06484 0.07422 0.0
C194 C 0.64154 0.15552 0.10807 0.0
C195 C 0.6593 0.18118 0.1342 0.0
C196 C 0.69234 0.21412 0.12923 0.0
C197 C 0.71155 0.23735 0.15462 0.0
C198 C 0.69819 0.22776 0.18547 0.0
C199 C 0.66377 0.19531 0.18993 0.0
C200 C 0.64436 0.17241 0.16452 0.0
C201 C 0.53282 0.04398 0.12184 0.0
C202 C 0.50373 0.12466 0.12676 0.0
C203 C 0.40912 0.01513 0.06772 0.0
C204 C 0.38696 0.9914 0.04093 0.0
C205 C 0.40431 0.97172 0.02542 0.0
C206 C 0.38442 0.95144 0.99866 0.0
C207 C 0.34687 0.9505 0.98679 0.0
C208 C 0.32913 0.9696 1.00266 0.0
C209 C 0.34899 0.9898 0.02957 0.0
C210 C 0.5167 0.12096 0.03634 0.0
C211 C 0.54745 0.05066 0.04082 0.0
O212 O 0.61438 0.16051 0.08917 0.0
O213 O 0.63055 0.12165 0.11563 0.0
O214 O 0.51841 0.06659 0.11452 0.0
O215 O 0.57152 0.05816 0.11739 0.0
O216 O 0.54294 0.13269 0.12371 0.0
O217 O 0.4738 0.09776 0.11153 0.0
O218 O 0.44068 1.01065 0.0805 0.0
O219 O 0.41632 0.04916 0.06402 0.0
O220 O 0.53023 0.10903 0.05962 0.0
O221 O 0.47848 0.0992 0.03247 0.0
O222 O 0.50905 0.03806 0.04885 0.0
O223 O 0.57641 0.08094 0.0524 0.0
H224 H 0.70388 0.22151 0.10585 0.0
H225 H 0.73741 0.26241 0.15018 0.0
H226 H 0.65284 0.18666 0.21329 0.0
H227 H 0.61851 0.14723 0.16878 0.0
H228 H 0.43365 0.97248 0.03351 0.0
H229 H 0.39905 0.93734 0.98671 0.0
H230 H 0.30002 0.96906 0.99417 0.0
H231 H 0.33506 1.00473 0.04117 0.0
Tb232 Tb 0.53605 0.62181 0.59302 0.0
Tb233 Tb 0.51409 0.55159 0.56401 0.0
C234 C 0.53534 0.67881 0.61278 0.0
C235 C 0.50329 0.68763 0.62482 0.0
C236 C 0.46373 0.6737 0.61043 0.0
C237 C 0.43357 0.68205 0.62235 0.0
C238 C 0.44224 0.70424 0.64906 0.0
C239 C 0.48178 0.71764 0.66366 0.0
C240 C 0.51202 0.7095 0.65156 0.0
C241 C 0.56625 0.58074 0.62469 0.0
C242 C 0.45064 0.55651 0.60754 0.0
C243 C 0.51427 0.49355 0.5463 0.0
C244 C 0.54476 0.48327 0.53363 0.0
C245 C 0.58655 0.50373 0.5404 0.0
C246 C 0.61522 0.49275 0.52956 0.0
C247 C 0.60252 0.46087 0.5121 0.0
C248 C 0.56068 0.44091 0.5047 0.0
C249 C 0.53203 0.45212 0.51533 0.0
C250 C 0.48278 0.59181 0.53217 0.0
C251 C 0.59899 0.61745 0.5486 0.0
O252 O 0.53125 0.67021 0.58287 0.0
O253 O 0.54632 0.65752 0.63064 0.0
O254 O 0.53126 0.571 0.61118 0.0
O255 O 0.58563 0.61522 0.62107 0.0
O256 O 0.47193 0.5918 0.60563 0.0
O257 O 0.46349 0.53432 0.59483 0.0
O258 O 0.52147 0.50464 0.57564 0.0
O259 O 0.50199 0.51366 0.52796 0.0
O260 O 0.5179 0.60228 0.54577 0.0
O261 O 0.46468 0.55716 0.53537 0.0
O262 O 0.57747 0.58216 0.55004 0.0
O263 O 0.58666 0.63958 0.56209 0.0
H264 H 0.45608 0.65642 0.58991 0.0
H265 H 0.40364 0.67155 0.61031 0.0
H266 H 0.48934 0.73421 0.68463 0.0
H267 H 0.54221 0.72015 0.66321 0.0
H268 H 0.59703 0.52767 0.55479 0.0
H269 H 0.64719 0.5084 0.53597 0.0
H270 H 0.55011 0.41636 0.4911 0.0
H271 H 0.49989 0.43609 0.50981 0.0
Tb272 Tb 0.0261 0.61334 0.05633 0.0
Tb273 Tb 0.01674 0.55025 0.09672 0.0
C274 C 0.01364 0.66018 0.02345 0.0
C275 C 0.98109 0.67302 1.01893 0.0
C276 C 0.94252 0.65084 1.00519 0.0
C277 C 0.91332 0.66436 0.99843 0.0
C278 C 0.92195 0.70022 1.00537 0.0
C279 C 0.9599 0.72202 1.02014 0.0
C280 C 0.98929 0.70857 0.02671 0.0
C281 C 0.09375 0.61985 0.08894 0.0
C282 C 0.9879 0.60502 0.12437 0.0
C283 C 0.02901 0.50317 0.12943 0.0
C284 C 0.0619 0.49102 0.1323 0.0
C285 C 0.10018 0.51224 0.12065 0.0
C286 C 0.13227 0.50183 0.12557 0.0
C287 C 0.12659 0.47001 0.14221 0.0
C288 C 0.08781 0.44841 0.15309 0.0
C289 C 0.05575 0.45889 0.14819 0.0
C290 C 0.94921 0.54398 0.06387 0.0
C291 C 0.05547 0.55879 0.02889 0.0
O292 O 1.00482 0.62766 1.01363 0.0
O293 O 0.03468 0.66722 0.05061 0.0
O294 O 0.05796 0.60547 0.09805 0.0
O295 O 0.09271 0.63383 0.06125 0.0
O296 O 0.98954 0.61778 0.095 0.0
O297 O 1.00061 0.57965 0.13152 0.0
O298 O 0.03914 0.53599 0.13901 0.0
O299 O 0.00724 0.49622 0.10263 0.0
O300 O 0.98507 0.55815 0.05498 0.0
O301 O 0.95002 0.53001 0.09162 0.0
O302 O 0.05354 0.54592 0.05822 0.0
O303 O 0.04263 0.58405 0.02164 0.0
H304 H 0.93507 0.62326 0.99897 0.0
H305 H 0.88413 0.64689 0.98732 0.0
H306 H 0.96745 0.74986 0.02549 0.0
H307 H 0.01881 0.72624 0.03716 0.0
H308 H 0.1055 0.53727 0.10842 0.0
H309 H 0.16184 0.51927 0.11722 0.0
H310 H 0.08232 0.42351 0.16558 0.0
H311 H 0.02634 0.44221 0.15728 0.0
C312 C 0.34247 0.30575 0.32889 0.0
C313 C 0.33907 0.28183 0.30462 0.0
C314 C 0.32036 0.2937 0.35619 0.0
C315 C 0.29451 0.25678 0.35948 0.0
C316 C 0.29032 0.2326 0.33485 0.0
C317 C 0.31248 0.24544 0.30768 0.0
C318 C 0.32541 0.32034 0.38185 0.0
C319 C 0.26313 0.19301 0.3375 0.0
C320 C 0.27257 0.21808 0.44224 0.0
C321 C 0.23261 0.21449 0.4453 0.0
C322 C 0.29305 0.23196 0.41452 0.0
C323 C 0.27339 0.24307 0.38932 0.0
C324 C 0.23347 0.24038 0.39245 0.0
C325 C 0.21347 0.22594 0.42033 0.0
C326 C 0.33557 0.23426 0.41205 0.0
C327 C 0.21168 0.25226 0.36618 0.0
H328 H 0.36324 0.33383 0.32691 0.0
H329 H 0.30904 0.22689 0.2888 0.0
H330 H 0.29519 0.3185 0.38794 0.0
H331 H 0.33978 0.3139 0.40359 0.0
H332 H 0.34454 0.34844 0.37476 0.0
H333 H 0.26222 0.17796 0.31582 0.0
H334 H 0.27417 0.18128 0.3579 0.0
H335 H 0.23163 0.18903 0.34197 0.0
H336 H 0.28798 0.21002 0.4616 0.0
H337 H 0.18246 0.22293 0.42227 0.0
H338 H 0.35711 0.26243 0.40748 0.0
H339 H 0.33614 0.2179 0.39179 0.0
H340 H 0.34665 0.22465 0.43385 0.0
H341 H 0.23048 0.28058 0.35962 0.0
H342 H 0.18146 0.24996 0.37289 0.0
H343 H 0.20719 0.23568 0.34481 0.0
C344 C 0.29219 0.86489 0.81509 0.0
C345 C 0.25084 0.84212 0.80959 0.0
C346 C 0.30677 0.88255 0.84413 0.0
C347 C 0.27932 0.87717 0.86823 0.0
C348 C 0.23749 0.85437 0.86276 0.0
C349 C 0.22373 0.83715 0.83344 0.0
C350 C 0.35155 0.90688 0.84905 0.0
C351 C 0.20741 0.84787 0.88798 0.0
C352 C 0.32528 0.89638 0.95224 0.0
C353 C 0.32723 0.93077 0.9572 0.0
C354 C 0.30902 0.87831 0.92357 0.0
C355 C 0.29457 0.89517 0.89929 0.0
C356 C 0.29579 0.92961 0.90436 0.0
C357 C 0.31206 0.94699 0.93331 0.0
C358 C 0.30791 0.84147 0.91908 0.0
C359 C 0.28085 0.94847 0.87892 0.0
H360 H 0.31311 0.86911 0.79653 0.0
H361 H 0.19182 0.81924 0.82935 0.0
H362 H 0.35551 0.93434 0.85518 0.0
H363 H 0.36516 0.89694 0.86917 0.0
H364 H 0.36873 0.90855 0.82774 0.0
H365 H 0.17582 0.82973 0.87979 0.0
H366 H 0.21635 0.83579 0.90921 0.0
H367 H 0.20771 0.87375 0.8954 0.0
H368 H 0.3366 0.88362 0.9708 0.0
H369 H 0.31399 0.97377 0.93693 0.0
H370 H 0.32717 0.84217 0.89943 0.0
H371 H 0.27637 0.82194 0.91245 0.0
H372 H 0.31895 0.83157 0.94074 0.0
H373 H 0.29939 0.95329 0.85793 0.0
H374 H 0.28258 0.97466 0.88704 0.0
H375 H 0.24882 0.93127 0.87117 0.0
C376 C 0.58765 0.50803 0.7959 0.0
C377 C 0.59757 0.47833 0.79898 0.0
C378 C 0.58693 0.52456 0.76646 0.0
C379 C 0.59696 0.5116 0.73905 0.0
C380 C 0.60969 0.48316 0.74228 0.0
C381 C 0.60974 0.46679 0.77217 0.0
C382 C 0.57322 0.55473 0.76449 0.0
C383 C 0.62139 0.46887 0.7139 0.0
C384 C 0.54595 0.5283 0.66231 0.0
C385 C 0.57606 0.56054 0.65136 0.0
C386 C 0.55297 0.51131 0.68999 0.0
C387 C 0.59131 0.52649 0.70708 0.0
C388 C 0.62256 0.55796 0.69509 0.0
C389 C 0.61448 0.57472 0.66759 0.0
C390 C 0.51852 0.47806 0.70183 0.0
C391 C 0.66408 0.57481 0.71204 0.0
H392 H 0.57864 0.51745 0.81652 0.0
H393 H 0.61721 0.44377 0.77419 0.0
H394 H 0.59609 0.57854 0.75279 0.0
H395 H 0.54421 0.54616 0.74987 0.0
H396 H 0.56839 0.56288 0.78814 0.0
H397 H 0.63563 0.45019 0.72078 0.0
H398 H 0.59382 0.45427 0.69831 0.0
H399 H 0.6429 0.49129 0.69987 0.0
H400 H 0.51617 0.51707 0.64996 0.0
H401 H 0.63803 0.59949 0.65922 0.0
H402 H 0.50907 0.48405 0.72462 0.0
H403 H 0.52876 0.45625 0.70634 0.0
H404 H 0.49155 0.46818 0.68483 0.0
H405 H 0.66178 0.58671 0.73464 0.0
H406 H 0.68652 0.59627 0.6977 0.0
H407 H 0.67574 0.55413 0.71792 0.0
C408 C 0.88771 0.67847 0.25762 0.0
C409 C 0.91786 0.70785 0.27395 0.0
C410 C 0.89775 0.65934 0.23476 0.0
C411 C 0.93904 0.67002 0.22745 0.0
C412 C 0.96969 0.69884 0.24483 0.0
C413 C 0.95876 0.71738 0.26763 0.0
C414 C 0.86387 0.62882 0.21724 0.0
C415 C 0.01406 0.71144 0.23814 0.0
C416 C 0.97092 0.60694 0.1814 0.0
C417 C 0.97322 0.62051 0.15029 0.0
C418 C 0.95945 0.62233 0.20644 0.0
C419 C 0.95002 0.65237 0.20069 0.0
C420 C 0.95179 0.66594 0.16929 0.0
C421 C 0.96323 0.64994 0.14464 0.0
C422 C 0.9579 0.60664 0.23925 0.0
C423 C 0.94216 0.69786 0.16174 0.0
H424 H 0.85597 0.67163 0.26155 0.0
H425 H 0.98216 0.74075 0.27932 0.0
H426 H 0.86165 0.63653 0.19211 0.0
H427 H 0.87051 0.6047 0.21759 0.0
H428 H 0.8339 0.62159 0.22751 0.0
H429 H 0.03444 0.73228 0.25515 0.0
H430 H 0.02279 0.68848 0.23915 0.0
H431 H 0.01914 0.72281 0.21388 0.0
H432 H 0.97851 0.5843 0.18638 0.0
H433 H 0.96492 0.66094 0.12092 0.0
H434 H 0.92725 0.59895 0.24838 0.0
H435 H 0.98018 0.62712 0.25559 0.0
H436 H 0.9648 0.58262 0.23983 0.0
H437 H 0.91101 0.69218 0.16879 0.0
H438 H 0.94415 0.70491 0.13619 0.0
H439 H 0.96367 0.72153 0.17552 0.0
C440 C 0.42443 0.26071 0.19064 0.0
C441 C 0.42451 0.26336 0.22362 0.0
C442 C 0.43997 0.23866 0.17689 0.0
C443 C 0.45543 0.21822 0.19655 0.0
C444 C 0.456 0.22092 0.22984 0.0
C445 C 0.44074 0.24362 0.24298 0.0
C446 C 0.43904 0.23667 0.14126 0.0
C447 C 0.47202 0.19934 0.25154 0.0
C448 C 0.4525 0.13531 0.1569 0.0
C449 C 0.49268 0.14714 0.14772 0.0
C450 C 0.44047 0.15765 0.1741 0.0
C451 C 0.4692 0.19285 0.18202 0.0
C452 C 0.51019 0.20451 0.1739 0.0
C453 C 0.5215 0.18142 0.15698 0.0
C454 C 0.39662 0.14402 0.18277 0.0
C455 C 0.54164 0.24194 0.18173 0.0
H456 H 0.41133 0.27531 0.17544 0.0
H457 H 0.44152 0.24588 0.26847 0.0
H458 H 0.46992 0.24254 0.13344 0.0
H459 H 0.4186 0.20909 0.13325 0.0
H460 H 0.4282 0.25583 0.12937 0.0
H461 H 0.47148 0.20529 0.2769 0.0
H462 H 0.45337 0.17022 0.24754 0.0
H463 H 0.50375 0.20495 0.24618 0.0
H464 H 0.43012 0.10872 0.15016 0.0
H465 H 0.55262 0.19081 0.14995 0.0
H466 H 0.38168 0.15938 0.1695 0.0
H467 H 0.39508 0.1482 0.20834 0.0
H468 H 0.37902 0.11502 0.17734 0.0
H469 H 0.53406 0.26182 0.1677 0.0
H470 H 0.57289 0.24566 0.17651 0.0
H471 H 0.54142 0.24795 0.20708 0.0
C472 C 0.13204 0.89572 0.67128 0.0
C473 C 0.1053 0.8705 0.69159 0.0
C474 C 0.12676 0.92673 0.66202 0.0
C475 C 0.09454 0.93292 0.67402 0.0
C476 C 0.06897 0.90848 0.69605 0.0
C477 C 0.07429 0.87722 0.70421 0.0
C478 C 0.15398 0.95157 0.63785 0.0
C479 C 0.03488 0.91454 0.70991 0.0
C480 C 0.09276 0.02451 0.6589 0.0
C481 C 0.06369 0.0165 0.63354 0.0
C482 C 0.10267 0.99741 0.67294 0.0
C483 C 0.08417 0.9621 0.66039 0.0
C484 C 0.05544 0.95429 0.63433 0.0
C485 C 0.04511 0.98142 0.62162 0.0
C486 C 0.13258 1.00639 0.70125 0.0
C487 C 0.03595 0.91738 0.61949 0.0
H488 H 0.15593 0.89031 0.66149 0.0
H489 H 0.05392 0.85777 0.72019 0.0
H490 H 0.13588 0.94972 0.61531 0.0
H491 H 0.16636 0.97986 0.64589 0.0
H492 H 0.17983 0.9448 0.6331 0.0
H493 H 0.02163 0.89594 0.72988 0.0
H494 H 0.04601 0.94261 0.71839 0.0
H495 H 0.01029 0.91035 0.69138 0.0
H496 H 0.10714 0.0517 0.66801 0.0
H497 H 0.0232 0.97538 0.60154 0.0
H498 H 0.15937 1.00142 0.69577 0.0
H499 H 0.11817 0.98866 0.72141 0.0
H500 H 0.14334 0.03483 0.70871 0.0
H501 H 0.05985 0.90924 0.61226 0.0
H502 H 0.01563 0.91629 0.59839 0.0
H503 H 0.01777 0.89733 0.63698 0.0
C504 C 0.74237 0.47903 0.95062 0.0
C505 C 0.73659 0.44584 0.93787 0.0
C506 C 0.7779 0.49952 0.96927 0.0
C507 C 0.80826 0.48644 0.97549 0.0
C508 C 0.80355 0.45398 0.96118 0.0
C509 C 0.76801 0.43427 0.9425 0.0
C510 C 0.78195 0.53425 0.98362 0.0
C511 C 0.83513 0.43903 0.96692 0.0
C512 C 0.9154 0.54354 1.01022 0.0
C513 C 0.91232 0.53261 0.04202 0.0
C514 C 0.88135 0.53023 0.98857 0.0
C515 C 0.84339 0.50484 0.99881 0.0
C516 C 0.83985 0.49472 0.03117 0.0
C517 C 0.87426 0.50887 0.05238 0.0
C518 C 0.88644 0.5423 0.9545 0.0
C519 C 0.80009 0.46771 0.04319 0.0
H520 H 0.71823 0.48814 0.94741 0.0
H521 H 0.76411 0.40895 0.93235 0.0
H522 H 0.77838 0.53064 1.00948 0.0
H523 H 0.81268 0.55587 0.98015 0.0
H524 H 0.75866 0.5431 0.97329 0.0
H525 H 0.82817 0.41467 0.95255 0.0
H526 H 0.8657 0.45956 0.96131 0.0
H527 H 0.8367 0.43193 0.9923 0.0
H528 H 0.94473 0.56182 1.00201 0.0
H529 H 0.87162 0.50038 0.07693 0.0
H530 H 0.86156 0.54997 0.94588 0.0
H531 H 0.88456 0.51979 0.93955 0.0
H532 H 0.91616 0.56548 0.9512 0.0
H533 H 0.77521 0.47616 0.03666 0.0
H534 H 0.80168 0.46425 0.06928 0.0
H535 H 0.79186 0.44126 0.03192 0.0
C536 C 0.8144 0.70801 0.46664 0.0
C537 C 0.80969 0.71611 0.43459 0.0
C538 C 0.78051 0.68863 0.48467 0.0
C539 C 0.74057 0.67714 0.47054 0.0
C540 C 0.73566 0.68356 0.43775 0.0
C541 C 0.77023 0.70283 0.42016 0.0
C542 C 0.78749 0.68214 0.51934 0.0
C543 C 0.69377 0.6719 0.42162 0.0
C544 C 0.6503 0.60984 0.51492 0.0
C545 C 0.63611 0.6325 0.52957 0.0
C546 C 0.68409 0.6238 0.49571 0.0
C547 C 0.70426 0.66141 0.49068 0.0
C548 C 0.69014 0.68438 0.50548 0.0
C549 C 0.65652 0.66974 0.52471 0.0
C550 C 0.69814 0.59824 0.48072 0.0
C551 C 0.7105 0.7246 0.50087 0.0
H552 H 0.8448 0.71805 0.47796 0.0
H553 H 0.76623 0.70928 0.39555 0.0
H554 H 0.77689 0.69841 0.53381 0.0
H555 H 0.76959 0.65351 0.52545 0.0
H556 H 0.82016 0.68941 0.52601 0.0
H557 H 0.69497 0.67567 0.39556 0.0
H558 H 0.67476 0.64321 0.42679 0.0
H559 H 0.67841 0.68779 0.43094 0.0
H560 H 0.63485 0.58106 0.51828 0.0
H561 H 0.64592 0.68763 0.53565 0.0
H562 H 0.73051 0.60519 0.48809 0.0
H563 H 0.69632 0.60083 0.45459 0.0
H564 H 0.67963 0.56979 0.48723 0.0
H565 H 0.74298 0.73504 0.5094 0.0
H566 H 0.69562 0.7388 0.51363 0.0
H567 H 0.70976 0.73123 0.47532 0.0
C568 C 0.29794 0.39504 0.17554 0.0
C569 C 0.33407 0.42221 0.1883 0.0
C570 C 0.26362 0.4018 0.16725 0.0
C571 C 0.26551 0.43658 0.17175 0.0
C572 C 0.30193 0.46418 0.18443 0.0
C573 C 0.33575 0.45664 0.19258 0.0
C574 C 0.22531 0.37171 0.15376 0.0
C575 C 0.30507 0.5016 0.18962 0.0
C576 C 0.18938 0.46438 0.12628 0.0
C577 C 0.16138 0.46016 0.14927 0.0
C578 C 0.22322 0.45647 0.13315 0.0
C579 C 0.22916 0.44401 0.16373 0.0
C580 C 0.20075 0.43927 0.18692 0.0
C581 C 0.16725 0.44745 0.17942 0.0
C582 C 0.25283 0.46176 0.1078 0.0
C583 C 0.20606 0.42607 0.2198 0.0
H584 H 0.29662 0.36852 0.17171 0.0
H585 H 0.36341 0.47764 0.20276 0.0
H586 H 0.19972 0.36675 0.16914 0.0
H587 H 0.21664 0.37944 0.13008 0.0
H588 H 0.22894 0.34627 0.15148 0.0
H589 H 0.33583 0.5202 0.19912 0.0
H590 H 0.29809 0.51275 0.16702 0.0
H591 H 0.28229 0.50065 0.20643 0.0
H592 H 0.18475 0.47378 0.10283 0.0
H593 H 0.1461 0.44465 0.19745 0.0
H594 H 0.25551 0.43623 0.10364 0.0
H595 H 0.28355 0.48189 0.1157 0.0
H596 H 0.24342 0.47098 0.08504 0.0
H597 H 0.20801 0.39982 0.2185 0.0
H598 H 0.18063 0.42288 0.23482 0.0
H599 H 0.23503 0.44525 0.2315 0.0
C600 C 0.58222 0.31124 0.94971 0.0
C601 C 0.62075 0.32421 0.937 0.0
C602 C 0.5659 0.27784 0.96543 0.0
C603 C 0.5883 0.25646 0.96821 0.0
C604 C 0.62678 0.26904 0.95472 0.0
C605 C 0.64263 0.30278 0.93954 0.0
C606 C 0.52504 0.26581 0.97976 0.0
C607 C 0.65143 0.24699 0.95662 0.0
C608 C 0.56379 0.18648 0.03459 0.0
C609 C 0.53755 0.155 1.01875 0.0
C610 C 0.58091 0.21955 1.01842 0.0
C611 C 0.57164 0.2212 0.98552 0.0
C612 C 0.54548 0.18925 0.96939 0.0
C613 C 0.52837 0.15668 0.98628 0.0
C614 C 0.60792 0.25293 0.03678 0.0
C615 C 0.53515 0.18952 0.93434 0.0
H616 H 0.56537 0.32782 0.94829 0.0
H617 H 0.67233 0.31252 0.92967 0.0
H618 H 0.50362 0.2394 0.96989 0.0
H619 H 0.52848 0.26226 1.00568 0.0
H620 H 0.51129 0.28533 0.97537 0.0
H621 H 0.68005 0.25986 0.94393 0.0
H622 H 0.65935 0.24306 0.98173 0.0
H623 H 0.63312 0.21996 0.94638 0.0
H624 H 0.56939 0.1856 0.05992 0.0
H625 H 0.50769 0.13241 0.97406 0.0
H626 H 0.59364 0.27224 0.03592 0.0
H627 H 0.63775 0.26637 0.02588 0.0
H628 H 0.61338 0.24696 0.06195 0.0
H629 H 0.51844 0.20662 0.9294 0.0
H630 H 0.51611 0.16215 0.92498 0.0
H631 H 0.56351 0.2013 0.92128 0.0
C632 C 0.93414 0.87225 0.41688 0.0
C633 C 0.92234 0.83986 0.43404 0.0
C634 C 0.95211 0.90599 0.4322 0.0
C635 C 0.95813 0.90778 0.46566 0.0
C636 C 0.94656 0.87529 0.48309 0.0
C637 C 0.92937 0.84202 0.46717 0.0
C638 C 0.96461 0.93981 0.41253 0.0
C639 C 0.95219 0.87561 0.51874 0.0
C640 C 0.03876 0.99175 0.50639 0.0
C641 C 0.0156 1.00924 0.51681 0.0
C642 C 0.02064 0.95946 0.48913 0.0
C643 C 0.97791 0.94347 0.48246 0.0
C644 C 0.95427 0.96104 0.49289 0.0
C645 C 0.97341 0.99385 0.50965 0.0
C646 C 0.04735 0.94227 0.47827 0.0
C647 C 0.9086 0.94476 0.48692 0.0
H648 H 0.92856 0.87133 0.39143 0.0
H649 H 0.92136 0.81753 0.48089 0.0
H650 H 0.94791 0.95566 0.41938 0.0
H651 H 0.9976 0.95684 0.41707 0.0
H652 H 0.95854 0.93406 0.38678 0.0
H653 H 0.94006 0.8481 0.52901 0.0
H654 H 0.98503 0.88954 0.52604 0.0
H655 H 0.93656 0.89076 0.52901 0.0
H656 H 0.0714 1.00338 0.51175 0.0
H657 H 0.95525 1.00704 0.51773 0.0
H658 H 0.04235 0.93753 0.45238 0.0
H659 H 0.0391 0.91574 0.48991 0.0
H660 H 0.08025 0.95906 0.48375 0.0
H661 H 0.90065 0.94067 0.46118 0.0
H662 H 0.89455 0.96183 0.49609 0.0
H663 H 0.89506 0.91797 0.49841 0.0
C664 C 0.2854 0.75131 0.74227 0.0
C665 C 0.26675 0.76911 0.72289 0.0
C666 C 0.31165 0.73819 0.72993 0.0
C667 C 0.31897 0.74247 0.69731 0.0
C668 C 0.29863 0.75872 0.6773 0.0
C669 C 0.27294 0.77204 0.69035 0.0
C670 C 0.33288 0.72113 0.75208 0.0
C671 C 0.30532 0.76336 0.6423 0.0
C672 C 0.42068 0.74866 0.67249 0.0
C673 C 0.41041 0.71382 0.66139 0.0
C674 C 0.3912 0.75821 0.6843 0.0
C675 C 0.35024 0.73245 0.68465 0.0
C676 C 0.33948 0.69732 0.67325 0.0
C677 C 0.36973 0.68836 0.66191 0.0
C678 C 0.40395 0.7959 0.69648 0.0
C679 C 0.29606 0.66922 0.67306 0.0
H680 H 0.28009 0.74824 0.76731 0.0
H681 H 0.25895 0.78599 0.67523 0.0
H682 H 0.32816 0.69444 0.74306 0.0
H683 H 0.36619 0.7381 0.75327 0.0
H684 H 0.32192 0.71777 0.77641 0.0
H685 H 0.28425 0.77328 0.62953 0.0
H686 H 0.33709 0.78285 0.63861 0.0
H687 H 0.30107 0.7375 0.63167 0.0
H688 H 0.45181 0.76872 0.67163 0.0
H689 H 0.36154 0.66126 0.65375 0.0
H690 H 0.39611 0.79496 0.72152 0.0
H691 H 0.38714 0.80931 0.6827 0.0
H692 H 0.43716 0.81256 0.69498 0.0
H693 H 0.28544 0.66445 0.69749 0.0
H694 H 0.29264 0.64326 0.66306 0.0
H695 H 0.27576 0.67892 0.65894 0.0
C696 C 0.75254 0.85119 0.81943 0.0
C697 C 0.74065 0.86787 0.84279 0.0
C698 C 0.76828 0.86922 0.79138 0.0
C699 C 0.77234 0.90487 0.78661 0.0
C700 C 0.759 0.92142 0.8096 0.0
C701 C 0.74315 0.90263 0.83744 0.0
C702 C 0.78175 0.85049 0.76731 0.0
C703 C 0.76294 0.95942 0.80534 0.0
C704 C 0.85532 0.9614 0.73238 0.0
C705 C 0.83297 0.9599 0.70376 0.0
C706 C 0.83579 0.94451 0.75973 0.0
C707 C 0.79285 0.92536 0.75843 0.0
C708 C 0.76998 0.92422 0.72982 0.0
C709 C 0.79031 0.94159 0.70284 0.0
C710 C 0.86125 0.94636 0.78983 0.0
C711 C 0.72416 0.904 0.72753 0.0
H712 H 0.74999 0.82407 0.82331 0.0
H713 H 0.73414 0.91562 0.85555 0.0
H714 H 0.76711 0.85125 0.74368 0.0
H715 H 0.81519 0.86471 0.76524 0.0
H716 H 0.77423 0.82202 0.77374 0.0
H717 H 0.74829 0.96739 0.82418 0.0
H718 H 0.79566 0.97825 0.80573 0.0
H719 H 0.74899 0.96248 0.78202 0.0
H720 H 0.88829 0.97502 0.73324 0.0
H721 H 0.77275 0.94078 0.68097 0.0
H722 H 0.85837 0.91905 0.79648 0.0
H723 H 0.85007 0.95645 0.80954 0.0
H724 H 0.89402 0.9641 0.78741 0.0
H725 H 0.71561 0.87498 0.73192 0.0
H726 H 0.7107 0.90714 0.70398 0.0
H727 H 0.71047 0.91352 0.74595 0.0
C728 C 0.81817 0.26271 0.3465 0.0
C729 C 0.83375 0.29661 0.36069 0.0
C730 C 0.79623 0.25646 0.31726 0.0
C731 C 0.79036 0.28503 0.30154 0.0
C732 C 0.80637 0.31951 0.31563 0.0
C733 C 0.82754 0.3248 0.34536 0.0
C734 C 0.77901 0.21911 0.30334 0.0
C735 C 0.80137 0.3507 0.29923 0.0
C736 C 0.76483 0.26444 0.2145 0.0
C737 C 0.72205 0.24937 0.21336 0.0
C738 C 0.78776 0.27921 0.24257 0.0
C739 C 0.76743 0.2782 0.27032 0.0
C740 C 0.72447 0.26549 0.26881 0.0
C741 C 0.70233 0.2516 0.24024 0.0
C742 C 0.83361 0.29328 0.24306 0.0
C743 C 0.70159 0.26376 0.29792 0.0
H744 H 0.82247 0.24081 0.35869 0.0
H745 H 0.83963 0.35099 0.35649 0.0
H746 H 0.74552 0.20913 0.29896 0.0
H747 H 0.79221 0.21975 0.28024 0.0
H748 H 0.78538 0.19969 0.31907 0.0
H749 H 0.81588 0.37584 0.31329 0.0
H750 H 0.81508 0.35546 0.27586 0.0
H751 H 0.76855 0.34438 0.29478 0.0
H752 H 0.78055 0.26277 0.19406 0.0
H753 H 0.66936 0.24098 0.23938 0.0
H754 H 0.84328 0.27347 0.25505 0.0
H755 H 0.84826 0.31876 0.25656 0.0
H756 H 0.84499 0.298 0.21882 0.0
H757 H 0.70287 0.24226 0.31387 0.0
H758 H 0.66907 0.25787 0.29199 0.0
H759 H 0.71586 0.28939 0.3112 0.0
C760 C 0.42518 0.68283 0.37436 0.0
C761 C 0.46003 0.69616 0.3565 0.0
C762 C 0.42606 0.66861 0.40511 0.0
C763 C 0.46229 0.66676 0.41812 0.0
C764 C 0.4979 0.68166 0.4008 0.0
C765 C 0.49654 0.6968 0.37079 0.0
C766 C 0.3878 0.65444 0.42323 0.0
C767 C 0.53716 0.67999 0.4132 0.0
C768 C 0.48343 0.64754 0.50484 0.0
C769 C 0.47366 0.61063 0.50417 0.0
C770 C 0.47735 0.66578 0.47759 0.0
C771 C 0.46273 0.647 0.44856 0.0
C772 C 0.45223 0.60954 0.44801 0.0
C773 C 0.45714 0.5918 0.47585 0.0
C774 C 0.4875 0.70533 0.47976 0.0
C775 C 0.43777 0.58845 0.4176 0.0
H776 H 0.39679 0.68222 0.36393 0.0
H777 H 0.52421 0.70825 0.35802 0.0
H778 H 0.37461 0.62466 0.42373 0.0
H779 H 0.39486 0.66388 0.44812 0.0
H780 H 0.36445 0.66293 0.41239 0.0
H781 H 0.56226 0.69297 0.39693 0.0
H782 H 0.54698 0.69335 0.43656 0.0
H783 H 0.53223 0.65153 0.41662 0.0
H784 H 0.49586 0.66221 0.52665 0.0
H785 H 0.44978 0.56331 0.47503 0.0
H786 H 0.46301 0.71139 0.46761 0.0
H787 H 0.51605 0.72106 0.46775 0.0
H788 H 0.49177 0.71454 0.50469 0.0
H789 H 0.41074 0.59158 0.40678 0.0
H790 H 0.4297 0.55936 0.42125 0.0
H791 H 0.46207 0.59908 0.40042 0.0
C792 C 0.15964 0.48767 0.89681 0.0
C793 C 0.13012 0.45768 0.88076 0.0
C794 C 0.14885 0.50653 0.91945 0.0
C795 C 0.10744 0.49495 0.92681 0.0
C796 C 0.07739 0.46546 0.90973 0.0
C797 C 0.08906 0.44721 0.88715 0.0
C798 C 0.1821 0.53778 0.93668 0.0
C799 C 0.03293 0.45189 0.91649 0.0
C800 C 0.08215 0.51499 1.00926 0.0
C801 C 0.07085 0.54362 1.00319 0.0
C802 C 0.09443 0.49931 0.98487 0.0
C803 C 0.09572 0.51238 0.95332 0.0
C804 C 0.08499 0.54164 0.94716 0.0
C805 C 0.07271 0.55674 0.97195 0.0
C806 C 0.10548 0.46826 0.99286 0.0
C807 C 0.08599 0.5568 0.91418 0.0
H808 H 0.19152 0.49525 0.89284 0.0
H809 H 0.06616 0.42339 0.87568 0.0
H810 H 0.17451 0.56138 0.93604 0.0
H811 H 0.18468 0.53053 0.9619 0.0
H812 H 0.21217 0.54561 0.92638 0.0
H813 H 0.013 0.43051 0.89974 0.0
H814 H 0.02828 0.4409 0.9409 0.0
H815 H 0.02323 0.47427 0.91512 0.0
H816 H 0.08089 0.50439 0.0331 0.0
H817 H 0.06414 0.57877 0.96667 0.0
H818 H 0.1368 0.47466 0.98578 0.0
H819 H 0.08453 0.4441 0.97938 0.0
H820 H 0.10386 0.46163 1.01851 0.0
H821 H 0.11677 0.56518 0.90509 0.0
H822 H 0.07807 0.58027 0.91328 0.0
H823 H 0.06421 0.53578 0.89801 0.0
C824 C 0.60202 0.91349 0.93998 0.0
C825 C 0.59453 0.88422 0.96052 0.0
C826 C 0.59639 0.94369 0.94934 0.0
C827 C 0.58338 0.94465 0.98003 0.0
C828 C 0.57636 0.91535 1.00097 0.0
C829 C 0.58191 0.88549 0.99093 0.0
C830 C 0.60376 0.97428 0.9263 0.0
C831 C 0.5628 0.91545 0.03401 0.0
C832 C 0.59851 0.03049 0.02156 0.0
C833 C 0.55854 0.02786 1.02035 0.0
C834 C 0.60766 1.00463 1.00689 0.0
C835 C 0.57614 0.97576 0.99042 0.0
C836 C 0.5364 0.97453 0.98717 0.0
C837 C 0.52806 1.00052 1.00228 0.0
C838 C 0.65039 1.00681 1.01096 0.0
C839 C 0.50202 0.94448 0.96948 0.0
H840 H 0.61156 0.91246 0.91639 0.0
H841 H 0.57675 0.86316 1.00705 0.0
H842 H 0.5751 0.97767 0.92122 0.0
H843 H 0.6265 0.99979 0.93683 0.0
H844 H 0.61482 0.9698 0.90362 0.0
H845 H 0.55966 0.89092 0.04761 0.0
H846 H 0.58505 0.93931 0.04717 0.0
H847 H 0.53301 0.9173 0.03285 0.0
H848 H 0.62221 0.05151 0.03553 0.0
H849 H 0.49721 0.99864 1.00085 0.0
H850 H 0.66099 1.00262 0.98802 0.0
H851 H 0.65059 0.98516 0.02724 0.0
H852 H 0.67237 0.03305 0.02088 0.0
H853 H 0.51177 0.93995 0.94629 0.0
H854 H 0.47457 0.95007 0.96544 0.0
H855 H 0.49342 0.91919 0.98329 0.0
C856 C 0.92521 0.2404 0.41818 0.0
C857 C 0.9311 0.27147 0.43499 0.0
C858 C 0.94482 0.21852 0.42839 0.0
C859 C 0.96974 0.22716 0.45669 0.0
C860 C 0.97857 0.25993 0.47226 0.0
C861 C 0.95979 0.28204 0.46081 0.0
C862 C 0.9359 0.18449 0.41041 0.0
C863 C 1.00456 0.26997 0.50278 0.0
C864 C 0.96185 0.14849 0.50914 0.0
C865 C 1.00034 0.14853 0.50719 0.0
C866 C 0.95168 0.17395 0.4927 0.0
C867 C 0.98024 0.19931 0.47293 0.0
C868 C 0.01857 0.19845 0.46974 0.0
C869 C 0.02854 0.17344 0.48748 0.0
C870 C 0.91081 0.17445 0.49741 0.0
C871 C 0.04911 0.22412 0.44794 0.0
H872 H 0.90314 0.23159 0.39825 0.0
H873 H 0.96577 0.30661 0.47333 0.0
H874 H 0.96375 0.17957 0.4095 0.0
H875 H 0.91284 0.16128 0.42265 0.0
H876 H 0.92375 0.18558 0.38585 0.0
H877 H 0.01283 0.29825 0.50964 0.0
H878 H 0.98749 0.2521 0.52203 0.0
H879 H 0.03293 0.26617 0.50086 0.0
H880 H 0.94025 0.12954 0.52473 0.0
H881 H 0.05833 0.17338 0.48597 0.0
H882 H 0.89289 0.1701 0.4745 0.0
H883 H 0.91528 0.2011 0.50642 0.0
H884 H 0.89264 0.1535 0.51434 0.0
H885 H 0.03447 0.22344 0.42401 0.0
H886 H 0.07582 0.21767 0.44587 0.0
H887 H 0.06016 0.25197 0.45686 0.0
C888 C 0.27687 0.73177 0.20849 0.0
C889 C 0.30756 0.71939 0.21366 0.0
C890 C 0.24119 0.71227 0.18986 0.0
C891 C 0.23566 0.6793 0.1761 0.0
C892 C 0.26549 0.66567 0.18256 0.0
C893 C 0.3011 0.68589 0.20116 0.0
C894 C 0.21016 0.72778 0.1838 0.0
C895 C 0.26066 0.63049 0.16865 0.0
C896 C 0.12808 0.62153 0.14259 0.0
C897 C 0.13081 0.63165 0.11059 0.0
C898 C 0.16231 0.63561 0.16401 0.0
C899 C 0.20013 0.66066 0.15323 0.0
C900 C 0.20332 0.66986 0.12068 0.0
C901 C 0.1687 0.65515 0.09977 0.0
C902 C 0.15761 0.6247 0.19837 0.0
C903 C 0.24296 0.6964 0.1081 0.0
H904 H 0.28126 0.75732 0.21843 0.0
H905 H 0.3247 0.67618 0.2047 0.0
H906 H 0.20842 0.73428 0.15829 0.0
H907 H 0.17948 0.70778 0.1898 0.0
H908 H 0.21778 0.7526 0.19768 0.0
H909 H 0.28405 0.62161 0.17873 0.0
H910 H 0.22999 0.60916 0.17284 0.0
H911 H 0.26338 0.63343 0.14267 0.0
H912 H 0.09889 0.60335 0.15112 0.0
H913 H 0.17106 0.66297 0.07505 0.0
H914 H 0.16071 0.64799 0.21281 0.0
H915 H 0.18202 0.61645 0.20704 0.0
H916 H 0.12755 0.60224 0.20236 0.0
H917 H 0.25149 0.72316 0.11883 0.0
H918 H 0.24104 0.69918 0.08195 0.0
H919 H 0.26781 0.68795 0.11477 0.0
C920 C 0.23538 0.46253 0.68896 0.0
C921 C 0.2404 0.45454 0.72099 0.0
C922 C 0.26901 0.48312 0.67108 0.0
C923 C 0.30898 0.49595 0.68536 0.0
C924 C 0.31407 0.48981 0.71819 0.0
C925 C 0.27976 0.46932 0.73561 0.0
C926 C 0.26182 0.48926 0.63637 0.0
C927 C 0.35599 0.50297 0.73449 0.0
C928 C 0.39379 0.50421 0.63182 0.0
C929 C 0.41342 0.5414 0.62642 0.0
C930 C 0.36019 0.48936 0.651 0.0
C931 C 0.34528 0.51208 0.66526 0.0
C932 C 0.36471 0.54967 0.65977 0.0
C933 C 0.39847 0.56385 0.64049 0.0
C934 C 0.34074 0.44919 0.65615 0.0
C935 C 0.34977 0.57494 0.67415 0.0
H936 H 0.20505 0.45136 0.6775 0.0
H937 H 0.284 0.46303 0.76023 0.0
H938 H 0.27904 0.51796 0.63016 0.0
H939 H 0.27307 0.47337 0.62203 0.0
H940 H 0.22902 0.48125 0.62968 0.0
H941 H 0.35474 0.4996 0.76058 0.0
H942 H 0.37238 0.48773 0.72563 0.0
H943 H 0.37407 0.53175 0.72899 0.0
H944 H 0.40502 0.48649 0.62135 0.0
H945 H 0.41328 0.59261 0.63661 0.0
H946 H 0.30824 0.43803 0.64756 0.0
H947 H 0.3416 0.44306 0.6818 0.0
H948 H 0.35619 0.43524 0.64376 0.0
H949 H 0.31898 0.56984 0.66366 0.0
H950 H 0.37035 0.60358 0.67011 0.0
H951 H 0.347 0.57014 0.69998 0.0
C952 C 0.80781 0.81664 0.93528 0.0
C953 C 0.76514 0.79881 0.93469 0.0
C954 C 0.83243 0.80053 0.94878 0.0
C955 C 0.814 0.76595 0.96253 0.0
C956 C 0.77103 0.74836 0.96317 0.0
C957 C 0.74708 0.76489 0.94905 0.0
C958 C 0.87817 0.82008 0.94748 0.0
C959 C 0.75033 0.71162 0.97794 0.0
C960 C 0.87502 0.70987 0.96433 0.0
C961 C 0.8925 0.7155 0.99528 0.0
C962 C 0.84891 0.7257 0.95358 0.0
C963 C 0.83972 0.7474 0.9744 0.0
C964 C 0.8565 0.75249 1.00593 0.0
C965 C 0.88299 0.73667 1.01595 0.0
C966 C 0.83208 0.72002 0.91965 0.0
C967 C 0.8469 0.77504 0.0289 0.0
H968 H 0.82205 0.84318 0.92488 0.0
H969 H 0.71416 0.75077 0.94849 0.0
H970 H 0.89289 0.82269 0.97159 0.0
H971 H 0.88973 0.80438 0.9332 0.0
H972 H 0.88773 0.84734 0.93692 0.0
H973 H 0.71693 0.70297 0.97897 0.0
H974 H 0.75563 0.69157 0.96402 0.0
H975 H 0.7635 0.71148 1.00228 0.0
H976 H 0.88277 0.6939 0.94818 0.0
H977 H 0.89627 0.7408 0.03996 0.0
H978 H 0.84295 0.7462 0.90702 0.0
H979 H 0.79832 0.70874 0.91878 0.0
H980 H 0.84135 0.70162 0.90677 0.0
H981 H 0.85858 0.80327 0.02045 0.0
H982 H 0.86057 0.77469 0.05306 0.0
H983 H 0.81342 0.76518 0.03024 0.0
C984 C 0.4033 0.86036 0.2138 0.0
C985 C 0.42609 0.83992 0.21952 0.0
C986 C 0.41991 0.89414 0.19879 0.0
C987 C 0.46067 0.90845 0.18955 0.0
C988 C 0.48439 0.88866 0.19628 0.0
C989 C 0.46683 0.85468 0.21099 0.0
C990 C 0.3934 0.91412 0.19208 0.0
C991 C 0.5281 0.90299 0.18718 0.0
C992 C 0.49251 0.97748 0.12244 0.0
C993 C 0.51179 1.00986 0.13904 0.0
C994 C 0.4752 0.9444 0.13854 0.0
C995 C 0.47808 0.94361 0.17212 0.0
C996 C 0.49778 0.97644 0.18892 0.0
C997 C 0.51433 1.00917 0.17216 0.0
C998 C 0.45424 0.91025 0.11958 0.0
C999 C 0.50206 0.97696 0.2246 0.0
H1000 H 0.37205 0.84967 0.2207 0.0
H1001 H 0.48472 0.83916 0.21481 0.0
H1002 H 0.40802 0.94127 0.2028 0.0
H1003 H 0.38997 0.91781 0.16617 0.0
H1004 H 0.36259 0.89976 0.20134 0.0
H1005 H 0.54325 0.88551 0.19578 0.0
H1006 H 0.52926 0.90516 0.16106 0.0
H1007 H 0.54568 0.93037 0.19695 0.0
H1008 H 0.49146 0.97801 0.09679 0.0
H1009 H 0.52997 0.03424 0.18494 0.0
H1010 H 0.42262 0.8952 0.12701 0.0
H1011 H 0.47046 0.89269 0.12416 0.0
H1012 H 0.45317 0.91554 0.09373 0.0
H1013 H 0.47157 0.96393 0.23454 0.0
H1014 H 0.51785 1.00467 0.23415 0.0
H1015 H 0.5195 0.96132 0.23296 0.0
C1016 C 0.1258 0.32614 0.68765 0.0
C1017 C 0.13369 0.32806 0.72069 0.0
C1018 C 0.11039 0.29316 0.67131 0.0
C1019 C 0.10173 0.26065 0.68821 0.0
C1020 C 0.10881 0.26216 0.7216 0.0
C1021 C 0.12477 0.29567 0.73736 0.0
C1022 C 0.10337 0.29318 0.63579 0.0
C1023 C 0.09955 0.22829 0.74074 0.0
C1024 C 0.02391 0.17572 0.64683 0.0
C1025 C 0.04846 0.16064 0.63449 0.0
C1026 C 0.0407 0.20729 0.66514 0.0
C1027 C 0.08349 0.22515 0.67094 0.0
C1028 C 0.10854 0.20985 0.65885 0.0
C1029 C 0.09073 0.17763 0.64108 0.0
C1030 C 0.01251 0.22191 0.67782 0.0
C1031 C 0.15428 0.22811 0.66393 0.0
H1032 H 0.13169 0.35064 0.67435 0.0
H1033 H 0.13108 0.29649 0.76273 0.0
H1034 H 0.12015 0.27967 0.62457 0.0
H1035 H 0.07052 0.2778 0.62917 0.0
H1036 H 0.1133 0.32076 0.6259 0.0
H1037 H 0.10651 0.2338 0.76647 0.0
H1038 H 0.06688 0.20981 0.73695 0.0
H1039 H 0.11756 0.21412 0.73273 0.0
H1040 H 0.99118 0.16281 0.64205 0.0
H1041 H 0.10997 0.16629 0.63162 0.0
H1042 H 0.01826 0.24834 0.66677 0.0
H1043 H 0.01852 0.22625 0.70372 0.0
H1044 H 0.97988 0.20364 0.67312 0.0
H1045 H 0.16589 0.25504 0.65258 0.0
H1046 H 0.16951 0.2124 0.65398 0.0
H1047 H 0.16299 0.23226 0.68956 0.0
C1048 C 0.77705 0.39394 0.52203 0.0
C1049 C 0.77728 0.3731 0.49639 0.0
C1050 C 0.75124 0.4117 0.52126 0.0
C1051 C 0.72538 0.40888 0.49402 0.0
C1052 C 0.72768 0.39014 0.46717 0.0
C1053 C 0.75346 0.37228 0.46872 0.0
C1054 C 0.74976 0.43149 0.55039 0.0
C1055 C 0.70101 0.38699 0.43753 0.0
C1056 C 0.62489 0.41111 0.51075 0.0
C1057 C 0.6326 0.44699 0.50411 0.0
C1058 C 0.65449 0.39817 0.5066 0.0
C1059 C 0.69266 0.42166 0.49529 0.0
C1060 C 0.70006 0.45756 0.4873 0.0
C1061 C 0.66997 0.46991 0.49202 0.0
C1062 C 0.64551 0.35975 0.51563 0.0
C1063 C 0.74012 0.48316 0.47468 0.0
H1064 H 0.79605 0.39532 0.54322 0.0
H1065 H 0.75327 0.3561 0.44884 0.0
H1066 H 0.75234 0.45877 0.54402 0.0
H1067 H 0.71997 0.41688 0.56114 0.0
H1068 H 0.7744 0.434 0.56844 0.0
H1069 H 0.71094 0.37656 0.41727 0.0
H1070 H 0.6691 0.36837 0.44193 0.0
H1071 H 0.70116 0.41344 0.43091 0.0
H1072 H 0.59626 0.39346 0.5205 0.0
H1073 H 0.67582 0.49761 0.48662 0.0
H1074 H 0.66663 0.35933 0.53562 0.0
H1075 H 0.65056 0.34559 0.49552 0.0
H1076 H 0.61371 0.3446 0.52277 0.0
H1077 H 0.76483 0.48893 0.49341 0.0
H1078 H 0.73952 0.509 0.46666 0.0
H1079 H 0.7479 0.47079 0.4546 0.0
loop_
_geom_bond_atom_site_label_1
_geom_bond_atom_site_label_2
_geom_bond_distance
_geom_bond_site_symmetry_2
_ccdc_geom_bond_type
H0 C1 0.949 . S
C1 H0 0.949 . S
C1 C2 1.395 . S
C1 C3 1.391 . S
C2 C1 1.395 . S
C2 C5 1.390 . S
C3 C1 1.391 . S
C3 C7 1.387 . S
C3 C8 1.491 . S
H4 C5 0.950 . S
C5 C2 1.390 . S
C5 H4 0.950 . S
C5 C6 1.378 . S
C6 C5 1.378 . S
C6 C7 1.409 . S
C7 C3 1.387 . S
C7 C6 1.409 . S
C7 H9 0.951 . S
C8 C3 1.491 . S
C8 C10 1.382 . S
C8 C12 1.404 . S
H9 C7 0.951 . S
C10 C8 1.382 . S
C10 C11 1.390 . S
C10 H15 0.949 . S
C11 C10 1.390 . S
C11 C16 1.399 . S
C12 C8 1.404 . S
C12 H13 0.950 . S
C12 C14 1.375 . S
H13 C12 0.950 . S
C14 C12 1.375 . S
C14 C16 1.382 . S
C14 H18 0.950 . S
H15 C10 0.949 . S
C16 C11 1.399 . S
C16 C14 1.382 . S
C16 H17 0.952 . S
H17 C16 0.952 . S
H18 C14 0.950 . S
H19 C20 0.949 . S
C20 H19 0.949 . S
C20 C21 1.395 . S
C20 C22 1.391 . S
C21 C20 1.395 . S
C21 C24 1.390 . S
C22 C20 1.391 . S
C22 C26 1.387 . S
C22 C27 1.491 . S
H23 C24 0.950 . S
C24 C21 1.390 . S
C24 H23 0.950 . S
C24 C25 1.378 . S
C25 C24 1.378 . S
C25 C26 1.409 . S
C26 C22 1.387 . S
C26 C25 1.409 . S
C26 H28 0.951 . S
C27 C22 1.491 . S
C27 C29 1.382 . S
C27 C31 1.404 . S
H28 C26 0.951 . S
C29 C27 1.382 . S
C29 C30 1.390 . S
C29 H34 0.949 . S
C30 C29 1.390 . S
C30 C35 1.399 . S
C31 C27 1.404 . S
C31 H32 0.950 . S
C31 C33 1.375 . S
H32 C31 0.950 . S
C33 C31 1.375 . S
C33 C35 1.382 . S
C33 H37 0.950 1_455 S
H34 C29 0.949 . S
C35 C30 1.399 . S
C35 C33 1.382 . S
C35 H36 0.952 1_455 S
H36 C35 0.952 1_655 S
H37 C33 0.950 1_655 S
H38 C39 0.949 . S
C39 H38 0.949 . S
C39 C40 1.395 . S
C39 C41 1.391 . S
C40 C39 1.395 . S
C40 C43 1.390 . S
C41 C39 1.391 . S
C41 C45 1.387 . S
C41 C46 1.491 . S
H42 C43 0.950 . S
C43 C40 1.390 . S
C43 H42 0.950 . S
C43 C44 1.378 . S
C44 C43 1.378 . S
C44 C45 1.409 . S
C45 C41 1.387 . S
C45 C44 1.409 . S
C45 H47 0.951 . S
C46 C41 1.491 . S
C46 C48 1.382 . S
C46 C50 1.404 . S
H47 C45 0.951 . S
C48 C46 1.382 . S
C48 C49 1.390 . S
C48 H53 0.949 . S
C49 C48 1.390 . S
C49 C54 1.399 . S
C50 C46 1.404 . S
C50 H51 0.950 . S
C50 C52 1.375 . S
H51 C50 0.950 . S
C52 C50 1.375 . S
C52 C54 1.382 . S
C52 H56 0.950 . S
H53 C48 0.949 . S
C54 C49 1.399 . S
C54 C52 1.382 . S
C54 H55 0.952 . S
H55 C54 0.952 . S
H56 C52 0.950 . S
H57 C58 0.949 . S
C58 H57 0.949 . S
C58 C59 1.395 . S
C58 C60 1.391 . S
C59 C58 1.395 . S
C59 C62 1.390 . S
C60 C58 1.391 . S
C60 C64 1.387 . S
C60 C65 1.491 . S
H61 C62 0.950 . S
C62 C59 1.390 . S
C62 H61 0.950 . S
C62 C63 1.378 . S
C63 C62 1.378 . S
C63 C64 1.409 . S
C64 C60 1.387 . S
C64 C63 1.409 . S
C64 H66 0.951 . S
C65 C60 1.491 . S
C65 C67 1.382 . S
C65 C69 1.404 . S
H66 C64 0.951 . S
C67 C65 1.382 . S
C67 C68 1.390 . S
C67 H72 0.949 . S
C68 C67 1.390 . S
C68 C73 1.399 . S
C69 C65 1.404 . S
C69 H70 0.950 . S
C69 C71 1.375 . S
H70 C69 0.950 . S
C71 C69 1.375 . S
C71 C73 1.382 . S
C71 H75 0.950 . S
H72 C67 0.949 . S
C73 C68 1.399 . S
C73 C71 1.382 . S
C73 H74 0.952 . S
H74 C73 0.952 . S
H75 C71 0.950 . S
H76 C77 0.949 . S
C77 H76 0.949 . S
C77 C78 1.395 . S
C77 C79 1.391 . S
C78 C77 1.395 . S
C78 C81 1.390 . S
C79 C77 1.391 . S
C79 C83 1.387 . S
C79 C84 1.491 . S
H80 C81 0.950 . S
C81 C78 1.390 . S
C81 H80 0.950 . S
C81 C82 1.378 . S
C82 C81 1.378 . S
C82 C83 1.409 . S
C83 C79 1.387 . S
C83 C82 1.409 . S
C83 H85 0.951 . S
C84 C79 1.491 . S
C84 C86 1.382 . S
C84 C88 1.404 . S
H85 C83 0.951 . S
C86 C84 1.382 . S
C86 C87 1.390 . S
C86 H91 0.949 . S
C87 C86 1.390 . S
C87 C92 1.399 . S
C88 C84 1.404 . S
C88 H89 0.950 . S
C88 C90 1.375 . S
H89 C88 0.950 . S
C90 C88 1.375 . S
C90 C92 1.382 . S
C90 H94 0.950 . S
H91 C86 0.949 . S
C92 C87 1.399 . S
C92 C90 1.382 . S
C92 H93 0.952 . S
H93 C92 0.952 . S
H94 C90 0.950 . S
H95 C96 0.949 . S
C96 H95 0.949 . S
C96 C97 1.395 . S
C96 C98 1.391 . S
C97 C96 1.395 . S
C97 C100 1.390 . S
C98 C96 1.391 . S
C98 C102 1.387 . S
C98 C103 1.491 . S
H99 C100 0.950 . S
C100 C97 1.390 . S
C100 H99 0.950 . S
C100 C101 1.378 . S
C101 C100 1.378 . S
C101 C102 1.409 . S
C102 C98 1.387 . S
C102 C101 1.409 . S
C102 H104 0.951 . S
C103 C98 1.491 . S
C103 C105 1.382 . S
C103 C107 1.404 . S
H104 C102 0.951 . S
C105 C103 1.382 . S
C105 C106 1.390 . S
C105 H110 0.949 . S
C106 C105 1.390 . S
C106 C111 1.399 . S
C107 C103 1.404 . S
C107 H108 0.950 . S
C107 C109 1.375 . S
H108 C107 0.950 . S
C109 C107 1.375 . S
C109 C111 1.382 . S
C109 H113 0.950 . S
H110 C105 0.949 . S
C111 C106 1.399 . S
C111 C109 1.382 . S
C111 H112 0.952 . S
H112 C111 0.952 . S
H113 C109 0.950 . S
H114 C115 0.949 . S
C115 H114 0.949 . S
C115 C116 1.395 . S
C115 C117 1.391 . S
C116 C115 1.395 . S
C116 C119 1.390 . S
C117 C115 1.391 . S
C117 C121 1.387 . S
C117 C122 1.491 . S
H118 C119 0.950 . S
C119 C116 1.390 . S
C119 H118 0.950 . S
C119 C120 1.378 . S
C120 C119 1.378 . S
C120 C121 1.409 . S
C121 C117 1.387 . S
C121 C120 1.409 . S
C121 H123 0.951 . S
C122 C117 1.491 . S
C122 C124 1.382 . S
C122 C126 1.404 . S
H123 C121 0.951 . S
C124 C122 1.382 . S
C124 C125 1.390 . S
C124 H129 0.949 . S
C125 C124 1.390 . S
C125 C130 1.399 . S
C126 C122 1.404 . S
C126 H127 0.950 . S
C126 C128 1.375 . S
H127 C126 0.950 . S
C128 C126 1.375 . S
C128 C130 1.382 . S
C128 H132 0.950 . S
H129 C124 0.949 . S
C130 C125 1.399 . S
C130 C128 1.382 . S
C130 H131 0.952 . S
H131 C130 0.952 . S
H132 C128 0.950 . S
H133 C134 0.949 . S
C134 H133 0.949 . S
C134 C135 1.395 . S
C134 C136 1.391 . S
C135 C134 1.395 . S
C135 C138 1.390 . S
C136 C134 1.391 . S
C136 C140 1.387 . S
C136 C141 1.491 . S
H137 C138 0.950 . S
C138 C135 1.390 . S
C138 H137 0.950 . S
C138 C139 1.378 . S
C139 C138 1.378 . S
C139 C140 1.409 . S
C140 C136 1.387 . S
C140 C139 1.409 . S
C140 H142 0.951 . S
C141 C136 1.491 . S
C141 C143 1.382 . S
C141 C145 1.404 . S
H142 C140 0.951 . S
C143 C141 1.382 . S
C143 C144 1.390 . S
C143 H148 0.949 . S
C144 C143 1.390 . S
C144 C149 1.399 . S
C145 C141 1.404 . S
C145 H146 0.950 . S
C145 C147 1.375 . S
H146 C145 0.950 . S
C147 C145 1.375 . S
C147 C149 1.382 . S
C147 H151 0.950 . S
H148 C143 0.949 . S
C149 C144 1.399 . S
C149 C147 1.382 . S
C149 H150 0.952 . S
H150 C149 0.952 . S
H151 C147 0.950 . S
Tb152 C154 2.809 1_545 S
Tb152 O172 2.484 1_545 S
Tb152 O173 2.440 . S
Tb152 O174 2.658 1_655 S
Tb152 O175 2.409 1_655 S
Tb152 O176 2.378 1_655 S
Tb152 O180 2.325 . S
Tb152 O183 2.341 . S
Tb153 C163 2.809 . S
Tb153 O174 2.325 . S
Tb153 O177 2.341 . S
Tb153 O178 2.484 . S
Tb153 O179 2.440 . S
Tb153 O180 2.658 1_455 S
Tb153 O181 2.409 . S
Tb153 O182 2.378 . S
C154 Tb152 2.809 1_565 S
C154 C155 1.514 . S
C154 O172 1.248 . S
C154 O173 1.266 1_565 S
C155 C154 1.514 . S
C155 C156 1.359 . S
C155 C160 1.348 . S
C156 C155 1.359 . S
C156 C157 1.380 . S
C156 H184 0.929 . S
C157 C156 1.380 . S
C157 C158 1.347 . S
C157 H185 0.931 . S
C158 C157 1.347 . S
C158 C159 1.369 . S
C159 C158 1.369 . S
C159 C160 1.408 . S
C159 H186 0.930 . S
C160 C155 1.348 . S
C160 C159 1.408 . S
C160 H187 0.930 . S
C161 O174 1.281 . S
C161 O175 1.254 . S
C162 O176 1.236 . S
C162 O177 1.266 . S
C163 Tb153 2.809 . S
C163 C164 1.514 . S
C163 O178 1.248 . S
C163 O179 1.266 . S
C164 C163 1.514 . S
C164 C165 1.359 . S
C164 C169 1.348 . S
C165 C164 1.359 . S
C165 C166 1.380 . S
C165 H188 0.929 . S
C166 C165 1.380 . S
C166 C167 1.347 . S
C166 H189 0.931 . S
C167 C166 1.347 . S
C167 C168 1.369 . S
C168 C167 1.369 . S
C168 C169 1.408 . S
C168 H190 0.930 . S
C169 C164 1.348 . S
C169 C168 1.408 . S
C169 H191 0.930 . S
C170 O180 1.281 1_565 S
C170 O181 1.254 1_665 S
C171 O182 1.236 1_655 S
C171 O183 1.266 . S
O172 Tb152 2.484 1_565 S
O172 C154 1.248 . S
O173 Tb152 2.440 . S
O173 C154 1.266 1_545 S
O174 Tb152 2.658 1_455 S
O174 Tb153 2.325 . S
O174 C161 1.281 . S
O175 Tb152 2.409 1_455 S
O175 C161 1.254 . S
O176 Tb152 2.378 1_455 S
O176 C162 1.236 . S
O177 Tb153 2.341 . S
O177 C162 1.266 . S
O178 Tb153 2.484 . S
O178 C163 1.248 . S
O179 Tb153 2.440 . S
O179 C163 1.266 . S
O180 Tb152 2.325 . S
O180 Tb153 2.658 1_655 S
O180 C170 1.281 1_545 S
O181 Tb153 2.409 . S
O181 C170 1.254 1_445 S
O182 Tb153 2.378 . S
O182 C171 1.236 1_455 S
O183 Tb152 2.341 . S
O183 C171 1.266 . S
H184 C156 0.929 . S
H185 C157 0.931 . S
H186 C159 0.930 . S
H187 C160 0.930 . S
H188 C165 0.929 . S
H189 C166 0.931 . S
H190 C168 0.930 . S
H191 C169 0.930 . S
Tb192 C194 2.809 . S
Tb192 O212 2.484 . S
Tb192 O213 2.440 . S
Tb192 O214 2.658 . S
Tb192 O215 2.409 1_545 S
Tb192 O216 2.378 . S
Tb192 O220 2.325 . S
Tb192 O223 2.341 . S
Tb193 C203 2.809 1_545 S
Tb193 O214 2.324 . S
Tb193 O217 2.341 . S
Tb193 O218 2.484 1_545 S
Tb193 O219 2.440 . S
Tb193 O220 2.658 . S
Tb193 O221 2.409 . S
Tb193 O222 2.378 . S
C194 Tb192 2.809 . S
C194 C195 1.514 . S
C194 O212 1.248 . S
C194 O213 1.266 . S
C195 C194 1.514 . S
C195 C196 1.359 . S
C195 C200 1.348 . S
C196 C195 1.359 . S
C196 C197 1.380 . S
C196 H224 0.929 . S
C197 C196 1.380 . S
C197 C198 1.347 . S
C197 H225 0.931 . S
C198 C197 1.347 . S
C198 C199 1.369 . S
C199 C198 1.369 . S
C199 C200 1.408 . S
C199 H226 0.930 . S
C200 C195 1.348 . S
C200 C199 1.408 . S
C200 H227 0.930 . S
C201 O214 1.281 1_565 S
C201 O215 1.254 . S
C202 O216 1.236 . S
C202 O217 1.266 . S
C203 Tb193 2.809 1_565 S
C203 C204 1.514 1_554 S
C203 O218 1.248 . S
C203 O219 1.266 1_565 S
C204 C203 1.514 1_556 S
C204 C205 1.359 . S
C204 C209 1.348 . S
C205 C204 1.359 . S
C205 C206 1.380 . S
C205 H228 0.929 1_556 S
C206 C205 1.380 . S
C206 C207 1.347 . S
C206 H229 0.931 . S
C207 C206 1.347 . S
C207 C208 1.369 . S
C208 C207 1.369 . S
C208 C209 1.408 . S
C208 H230 0.930 . S
C209 C204 1.348 . S
C209 C208 1.408 . S
C209 H231 0.930 . S
C210 O220 1.281 . S
C210 O221 1.254 . S
C211 O222 1.236 1_565 S
C211 O223 1.266 1_565 S
O212 Tb192 2.484 . S
O212 C194 1.248 . S
O213 Tb192 2.440 . S
O213 C194 1.266 . S
O214 Tb192 2.658 . S
O214 Tb193 2.324 . S
O214 C201 1.281 1_545 S
O215 Tb192 2.409 1_565 S
O215 C201 1.254 . S
O216 Tb192 2.378 . S
O216 C202 1.236 . S
O217 Tb193 2.341 . S
O217 C202 1.266 . S
O218 Tb193 2.484 1_565 S
O218 C203 1.248 . S
O219 Tb193 2.440 . S
O219 C203 1.266 1_545 S
O220 Tb192 2.325 . S
O220 Tb193 2.658 . S
O220 C210 1.281 . S
O221 Tb193 2.409 . S
O221 C210 1.254 . S
O222 Tb193 2.378 . S
O222 C211 1.236 1_545 S
O223 Tb192 2.341 . S
O223 C211 1.266 1_545 S
H224 C196 0.929 . S
H225 C197 0.931 . S
H226 C199 0.930 . S
H227 C200 0.930 . S
H228 C205 0.929 1_554 S
H229 C206 0.931 . S
H230 C208 0.930 . S
H231 C209 0.930 . S
Tb232 C234 2.809 . S
Tb232 O252 2.484 . S
Tb232 O253 2.440 . S
Tb232 O254 2.658 . S
Tb232 O255 2.409 . S
Tb232 O256 2.378 . S
Tb232 O260 2.325 . S
Tb232 O263 2.341 . S
Tb233 C243 2.809 . S
Tb233 O254 2.325 . S
Tb233 O257 2.341 . S
Tb233 O258 2.484 . S
Tb233 O259 2.440 . S
Tb233 O260 2.658 . S
Tb233 O261 2.409 . S
Tb233 O262 2.378 . S
C234 Tb232 2.809 . S
C234 C235 1.514 . S
C234 O252 1.248 . S
C234 O253 1.266 . S
C235 C234 1.514 . S
C235 C236 1.359 . S
C235 C240 1.348 . S
C236 C235 1.359 . S
C236 C237 1.380 . S
C236 H264 0.929 . S
C237 C236 1.380 . S
C237 C238 1.347 . S
C237 H265 0.931 . S
C238 C237 1.347 . S
C238 C239 1.369 . S
C239 C238 1.369 . S
C239 C240 1.408 . S
C239 H266 0.930 . S
C240 C235 1.348 . S
C240 C239 1.408 . S
C240 H267 0.930 . S
C241 O254 1.281 . S
C241 O255 1.254 . S
C242 O256 1.236 . S
C242 O257 1.266 . S
C243 Tb233 2.809 . S
C243 C244 1.514 . S
C243 O258 1.248 . S
C243 O259 1.266 . S
C244 C243 1.514 . S
C244 C245 1.359 . S
C244 C249 1.348 . S
C245 C244 1.359 . S
C245 C246 1.380 . S
C245 H268 0.929 . S
C246 C245 1.380 . S
C246 C247 1.347 . S
C246 H269 0.931 . S
C247 C246 1.347 . S
C247 C248 1.369 . S
C248 C247 1.369 . S
C248 C249 1.408 . S
C248 H270 0.930 . S
C249 C244 1.348 . S
C249 C248 1.408 . S
C249 H271 0.930 . S
C250 O260 1.281 . S
C250 O261 1.254 . S
C251 O262 1.236 . S
C251 O263 1.266 . S
O252 Tb232 2.484 . S
O252 C234 1.248 . S
O253 Tb232 2.440 . S
O253 C234 1.266 . S
O254 Tb232 2.658 . S
O254 Tb233 2.325 . S
O254 C241 1.281 . S
O255 Tb232 2.409 . S
O255 C241 1.254 . S
O256 Tb232 2.378 . S
O256 C242 1.236 . S
O257 Tb233 2.341 . S
O257 C242 1.266 . S
O258 Tb233 2.484 . S
O258 C243 1.248 . S
O259 Tb233 2.440 . S
O259 C243 1.266 . S
O260 Tb232 2.325 . S
O260 Tb233 2.658 . S
O260 C250 1.281 . S
O261 Tb233 2.409 . S
O261 C250 1.254 . S
O262 Tb233 2.378 . S
O262 C251 1.236 . S
O263 Tb232 2.341 . S
O263 C251 1.266 . S
H264 C236 0.929 . S
H265 C237 0.931 . S
H266 C239 0.930 . S
H267 C240 0.930 . S
H268 C245 0.929 . S
H269 C246 0.931 . S
H270 C248 0.930 . S
H271 C249 0.930 . S
Tb272 C274 2.809 . S
Tb272 O292 2.484 1_455 S
Tb272 O293 2.440 . S
Tb272 O294 2.658 1_556 S
Tb272 O295 2.409 1_556 S
Tb272 O296 2.378 1_556 S
Tb272 O300 2.325 1_556 S
Tb272 O303 2.341 . S
Tb273 C283 2.809 . S
Tb273 O294 2.325 . S
Tb273 O297 2.341 . S
Tb273 O298 2.484 . S
Tb273 O299 2.440 . S
Tb273 O300 2.658 . S
Tb273 O301 2.409 1_455 S
Tb273 O302 2.378 1_554 S
C274 Tb272 2.809 . S
C274 C275 1.514 1_455 S
C274 O292 1.248 1_455 S
C274 O293 1.266 . S
C275 C274 1.514 1_655 S
C275 C276 1.359 . S
C275 C280 1.348 1_655 S
C276 C275 1.359 . S
C276 C277 1.380 . S
C276 H304 0.929 . S
C277 C276 1.380 . S
C277 C278 1.347 . S
C277 H305 0.931 . S
C278 C277 1.347 . S
C278 C279 1.369 . S
C279 C278 1.369 . S
C279 C280 1.408 1_655 S
C279 H306 0.930 1_655 S
C280 C275 1.348 1_455 S
C280 C279 1.408 1_455 S
C280 H307 0.930 . S
C281 O294 1.281 . S
C281 O295 1.254 . S
C282 O296 1.236 . S
C282 O297 1.266 . S
C283 Tb273 2.809 . S
C283 C284 1.514 . S
C283 O298 1.248 . S
C283 O299 1.266 . S
C284 C283 1.514 . S
C284 C285 1.359 . S
C284 C289 1.348 . S
C285 C284 1.359 . S
C285 C286 1.380 . S
C285 H308 0.929 . S
C286 C285 1.380 . S
C286 C287 1.347 . S
C286 H309 0.931 . S
C287 C286 1.347 . S
C287 C288 1.369 . S
C288 C287 1.369 . S
C288 C289 1.408 . S
C288 H310 0.930 . S
C289 C284 1.348 . S
C289 C288 1.408 . S
C289 H311 0.930 . S
C290 O300 1.281 1_656 S
C290 O301 1.254 1_556 S
C291 O302 1.236 . S
C291 O303 1.266 . S
O292 Tb272 2.484 1_655 S
O292 C274 1.248 1_655 S
O293 Tb272 2.440 . S
O293 C274 1.266 . S
O294 Tb272 2.658 1_554 S
O294 Tb273 2.325 . S
O294 C281 1.281 . S
O295 Tb272 2.409 1_554 S
O295 C281 1.254 . S
O296 Tb272 2.378 1_554 S
O296 C282 1.236 . S
O297 Tb273 2.341 . S
O297 C282 1.266 . S
O298 Tb273 2.484 . S
O298 C283 1.248 . S
O299 Tb273 2.440 . S
O299 C283 1.266 . S
O300 Tb272 2.325 1_554 S
O300 Tb273 2.658 . S
O300 C290 1.281 1_454 S
O301 Tb273 2.409 1_655 S
O301 C290 1.254 1_554 S
O302 Tb273 2.378 1_556 S
O302 C291 1.236 . S
O303 Tb272 2.341 . S
O303 C291 1.266 . S
H304 C276 0.929 . S
H305 C277 0.931 . S
H306 C279 0.930 1_455 S
H307 C280 0.930 . S
H308 C285 0.929 . S
H309 C286 0.931 . S
H310 C288 0.930 . S
H311 C289 0.930 . S
C312 C313 1.391 . S
C312 C314 1.394 . S
C312 H328 0.931 . S
C313 C312 1.391 . S
C313 C317 1.376 . S
C314 C312 1.394 . S
C314 C315 1.369 . S
C314 C318 1.531 . S
C315 C314 1.369 . S
C315 C316 1.410 . S
C315 C323 1.503 . S
C316 C315 1.410 . S
C316 C317 1.392 . S
C316 C319 1.511 . S
C317 C313 1.376 . S
C317 C316 1.392 . S
C317 H329 0.929 . S
C318 C314 1.531 . S
C318 H330 0.960 . S
C318 H331 0.962 . S
C318 H332 0.960 . S
C319 C316 1.511 . S
C319 H333 0.961 . S
C319 H334 0.961 . S
C319 H335 0.961 . S
C320 C321 1.370 . S
C320 C322 1.363 . S
C320 H336 0.931 . S
C321 C320 1.370 . S
C321 C325 1.408 . S
C322 C320 1.363 . S
C322 C323 1.370 . S
C322 C326 1.524 . S
C323 C315 1.503 . S
C323 C322 1.370 . S
C323 C324 1.403 . S
C324 C323 1.403 . S
C324 C325 1.404 . S
C324 C327 1.539 . S
C325 C321 1.408 . S
C325 C324 1.404 . S
C325 H337 0.930 . S
C326 C322 1.524 . S
C326 H338 0.956 . S
C326 H339 0.961 . S
C326 H340 0.961 . S
C327 C324 1.539 . S
C327 H341 0.958 . S
C327 H342 0.961 . S
C327 H343 0.960 . S
H328 C312 0.931 . S
H329 C317 0.929 . S
H330 C318 0.960 . S
H331 C318 0.962 . S
H332 C318 0.960 . S
H333 C319 0.961 . S
H334 C319 0.961 . S
H335 C319 0.961 . S
H336 C320 0.931 . S
H337 C325 0.930 . S
H338 C326 0.956 . S
H339 C326 0.961 . S
H340 C326 0.961 . S
H341 C327 0.958 . S
H342 C327 0.961 . S
H343 C327 0.960 . S
C344 C345 1.391 . S
C344 C346 1.394 . S
C344 H360 0.931 . S
C345 C344 1.391 . S
C345 C349 1.376 . S
C346 C344 1.394 . S
C346 C347 1.369 . S
C346 C350 1.531 . S
C347 C346 1.369 . S
C347 C348 1.410 . S
C347 C355 1.503 . S
C348 C347 1.410 . S
C348 C349 1.392 . S
C348 C351 1.511 . S
C349 C345 1.376 . S
C349 C348 1.392 . S
C349 H361 0.929 . S
C350 C346 1.531 . S
C350 H362 0.960 . S
C350 H363 0.962 . S
C350 H364 0.960 . S
C351 C348 1.511 . S
C351 H365 0.961 . S
C351 H366 0.961 . S
C351 H367 0.961 . S
C352 C353 1.370 . S
C352 C354 1.363 . S
C352 H368 0.931 . S
C353 C352 1.370 . S
C353 C357 1.408 . S
C354 C352 1.363 . S
C354 C355 1.370 . S
C354 C358 1.524 . S
C355 C347 1.503 . S
C355 C354 1.370 . S
C355 C356 1.403 . S
C356 C355 1.403 . S
C356 C357 1.404 . S
C356 C359 1.539 . S
C357 C353 1.408 . S
C357 C356 1.404 . S
C357 H369 0.930 . S
C358 C354 1.524 . S
C358 H370 0.956 . S
C358 H371 0.961 . S
C358 H372 0.961 . S
C359 C356 1.539 . S
C359 H373 0.958 . S
C359 H374 0.961 . S
C359 H375 0.960 . S
H360 C344 0.931 . S
H361 C349 0.929 . S
H362 C350 0.960 . S
H363 C350 0.962 . S
H364 C350 0.960 . S
H365 C351 0.961 . S
H366 C351 0.961 . S
H367 C351 0.961 . S
H368 C352 0.931 . S
H369 C357 0.930 . S
H370 C358 0.956 . S
H371 C358 0.961 . S
H372 C358 0.961 . S
H373 C359 0.958 . S
H374 C359 0.961 . S
H375 C359 0.960 . S
C376 C377 1.391 . S
C376 C378 1.394 . S
C376 H392 0.931 . S
C377 C376 1.391 . S
C377 C381 1.376 . S
C378 C376 1.394 . S
C378 C379 1.369 . S
C378 C382 1.531 . S
C379 C378 1.369 . S
C379 C380 1.410 . S
C379 C387 1.503 . S
C380 C379 1.410 . S
C380 C381 1.392 . S
C380 C383 1.511 . S
C381 C377 1.376 . S
C381 C380 1.392 . S
C381 H393 0.929 . S
C382 C378 1.531 . S
C382 H394 0.960 . S
C382 H395 0.962 . S
C382 H396 0.960 . S
C383 C380 1.511 . S
C383 H397 0.961 . S
C383 H398 0.961 . S
C383 H399 0.961 . S
C384 C385 1.370 . S
C384 C386 1.363 . S
C384 H400 0.931 . S
C385 C384 1.370 . S
C385 C389 1.408 . S
C386 C384 1.363 . S
C386 C387 1.370 . S
C386 C390 1.524 . S
C387 C379 1.503 . S
C387 C386 1.370 . S
C387 C388 1.403 . S
C388 C387 1.403 . S
C388 C389 1.404 . S
C388 C391 1.539 . S
C389 C385 1.408 . S
C389 C388 1.404 . S
C389 H401 0.930 . S
C390 C386 1.524 . S
C390 H402 0.956 . S
C390 H403 0.961 . S
C390 H404 0.961 . S
C391 C388 1.539 . S
C391 H405 0.958 . S
C391 H406 0.961 . S
C391 H407 0.960 . S
H392 C376 0.931 . S
H393 C381 0.929 . S
H394 C382 0.960 . S
H395 C382 0.962 . S
H396 C382 0.960 . S
H397 C383 0.961 . S
H398 C383 0.961 . S
H399 C383 0.961 . S
H400 C384 0.931 . S
H401 C389 0.930 . S
H402 C390 0.956 . S
H403 C390 0.961 . S
H404 C390 0.961 . S
H405 C391 0.958 . S
H406 C391 0.961 . S
H407 C391 0.960 . S
C408 C409 1.391 . S
C408 C410 1.394 . S
C408 H424 0.931 . S
C409 C408 1.391 . S
C409 C413 1.376 . S
C410 C408 1.394 . S
C410 C411 1.369 . S
C410 C414 1.531 . S
C411 C410 1.369 . S
C411 C412 1.410 . S
C411 C419 1.503 . S
C412 C411 1.410 . S
C412 C413 1.392 . S
C412 C415 1.511 . S
C413 C409 1.376 . S
C413 C412 1.392 . S
C413 H425 0.929 . S
C414 C410 1.531 . S
C414 H426 0.960 . S
C414 H427 0.962 . S
C414 H428 0.960 . S
C415 C412 1.511 . S
C415 H429 0.961 . S
C415 H430 0.961 . S
C415 H431 0.961 . S
C416 C417 1.370 . S
C416 C418 1.363 . S
C416 H432 0.931 . S
C417 C416 1.370 . S
C417 C421 1.408 . S
C418 C416 1.363 . S
C418 C419 1.370 . S
C418 C422 1.524 . S
C419 C411 1.503 . S
C419 C418 1.370 . S
C419 C420 1.403 . S
C420 C419 1.403 . S
C420 C421 1.404 . S
C420 C423 1.539 . S
C421 C417 1.408 . S
C421 C420 1.404 . S
C421 H433 0.930 . S
C422 C418 1.524 . S
C422 H434 0.956 . S
C422 H435 0.961 . S
C422 H436 0.961 . S
C423 C420 1.539 . S
C423 H437 0.958 . S
C423 H438 0.961 . S
C423 H439 0.960 . S
H424 C408 0.931 . S
H425 C413 0.929 . S
H426 C414 0.960 . S
H427 C414 0.962 . S
H428 C414 0.960 . S
H429 C415 0.961 . S
H430 C415 0.961 . S
H431 C415 0.961 . S
H432 C416 0.931 . S
H433 C421 0.930 . S
H434 C422 0.956 . S
H435 C422 0.961 . S
H436 C422 0.961 . S
H437 C423 0.958 . S
H438 C423 0.961 . S
H439 C423 0.960 . S
C440 C441 1.391 . S
C440 C442 1.394 . S
C440 H456 0.931 . S
C441 C440 1.391 . S
C441 C445 1.376 . S
C442 C440 1.394 . S
C442 C443 1.369 . S
C442 C446 1.531 . S
C443 C442 1.369 . S
C443 C444 1.410 . S
C443 C451 1.503 . S
C444 C443 1.410 . S
C444 C445 1.392 . S
C444 C447 1.511 . S
C445 C441 1.376 . S
C445 C444 1.392 . S
C445 H457 0.929 . S
C446 C442 1.531 . S
C446 H458 0.960 . S
C446 H459 0.962 . S
C446 H460 0.960 . S
C447 C444 1.511 . S
C447 H461 0.961 . S
C447 H462 0.961 . S
C447 H463 0.961 . S
C448 C449 1.370 . S
C448 C450 1.363 . S
C448 H464 0.931 . S
C449 C448 1.370 . S
C449 C453 1.408 . S
C450 C448 1.363 . S
C450 C451 1.370 . S
C450 C454 1.524 . S
C451 C443 1.503 . S
C451 C450 1.370 . S
C451 C452 1.403 . S
C452 C451 1.403 . S
C452 C453 1.404 . S
C452 C455 1.539 . S
C453 C449 1.408 . S
C453 C452 1.404 . S
C453 H465 0.930 . S
C454 C450 1.524 . S
C454 H466 0.956 . S
C454 H467 0.961 . S
C454 H468 0.961 . S
C455 C452 1.539 . S
C455 H469 0.958 . S
C455 H470 0.961 . S
C455 H471 0.960 . S
H456 C440 0.931 . S
H457 C445 0.929 . S
H458 C446 0.960 . S
H459 C446 0.962 . S
H460 C446 0.960 . S
H461 C447 0.961 . S
H462 C447 0.961 . S
H463 C447 0.961 . S
H464 C448 0.931 . S
H465 C453 0.930 . S
H466 C454 0.956 . S
H467 C454 0.961 . S
H468 C454 0.961 . S
H469 C455 0.958 . S
H470 C455 0.961 . S
H471 C455 0.960 . S
C472 C473 1.391 . S
C472 C474 1.394 . S
C472 H488 0.931 . S
C473 C472 1.391 . S
C473 C477 1.376 1_455 S
C474 C472 1.394 . S
C474 C475 1.369 . S
C474 C478 1.531 . S
C475 C474 1.369 . S
C475 C476 1.410 1_455 S
C475 C483 1.503 . S
C476 C475 1.410 1_655 S
C476 C477 1.392 . S
C476 C479 1.511 . S
C477 C473 1.376 1_655 S
C477 C476 1.392 . S
C477 H489 0.929 . S
C478 C474 1.531 . S
C478 H490 0.960 . S
C478 H491 0.962 . S
C478 H492 0.960 . S
C479 C476 1.511 . S
C479 H493 0.961 . S
C479 H494 0.961 . S
C479 H495 0.961 . S
C480 C481 1.370 . S
C480 C482 1.363 . S
C480 H496 0.931 . S
C481 C480 1.370 . S
C481 C485 1.408 . S
C482 C480 1.363 . S
C482 C483 1.370 . S
C482 C486 1.524 . S
C483 C475 1.503 . S
C483 C482 1.370 . S
C483 C484 1.403 . S
C484 C483 1.403 . S
C484 C485 1.404 . S
C484 C487 1.539 1_455 S
C485 C481 1.408 . S
C485 C484 1.404 . S
C485 H497 0.930 . S
C486 C482 1.524 . S
C486 H498 0.956 . S
C486 H499 0.961 . S
C486 H500 0.961 . S
C487 C484 1.539 1_655 S
C487 H501 0.958 1_655 S
C487 H502 0.961 . S
C487 H503 0.960 . S
H488 C472 0.931 . S
H489 C477 0.929 . S
H490 C478 0.960 . S
H491 C478 0.962 . S
H492 C478 0.960 . S
H493 C479 0.961 . S
H494 C479 0.961 . S
H495 C479 0.961 . S
H496 C480 0.931 . S
H497 C485 0.930 . S
H498 C486 0.956 . S
H499 C486 0.961 . S
H500 C486 0.961 . S
H501 C487 0.958 1_455 S
H502 C487 0.961 . S
H503 C487 0.960 . S
C504 C505 1.391 . S
C504 C506 1.394 . S
C504 H520 0.931 . S
C505 C504 1.391 . S
C505 C509 1.376 . S
C506 C504 1.394 . S
C506 C507 1.369 . S
C506 C510 1.531 . S
C507 C506 1.369 . S
C507 C508 1.410 . S
C507 C515 1.503 . S
C508 C507 1.410 . S
C508 C509 1.392 . S
C508 C511 1.511 . S
C509 C505 1.376 . S
C509 C508 1.392 . S
C509 H521 0.929 . S
C510 C506 1.531 . S
C510 H522 0.960 . S
C510 H523 0.962 . S
C510 H524 0.960 . S
C511 C508 1.511 . S
C511 H525 0.961 . S
C511 H526 0.961 . S
C511 H527 0.961 . S
C512 C513 1.370 . S
C512 C514 1.363 . S
C512 H528 0.931 . S
C513 C512 1.370 . S
C513 C517 1.408 . S
C514 C512 1.363 . S
C514 C515 1.370 . S
C514 C518 1.524 . S
C515 C507 1.503 . S
C515 C514 1.370 . S
C515 C516 1.403 . S
C516 C515 1.403 . S
C516 C517 1.404 . S
C516 C519 1.539 . S
C517 C513 1.408 . S
C517 C516 1.404 . S
C517 H529 0.930 . S
C518 C514 1.524 . S
C518 H530 0.956 . S
C518 H531 0.961 . S
C518 H532 0.961 . S
C519 C516 1.539 . S
C519 H533 0.958 . S
C519 H534 0.961 . S
C519 H535 0.960 . S
H520 C504 0.931 . S
H521 C509 0.929 . S
H522 C510 0.960 . S
H523 C510 0.962 . S
H524 C510 0.960 . S
H525 C511 0.961 . S
H526 C511 0.961 . S
H527 C511 0.961 . S
H528 C512 0.931 . S
H529 C517 0.930 . S
H530 C518 0.956 . S
H531 C518 0.961 . S
H532 C518 0.961 . S
H533 C519 0.958 . S
H534 C519 0.961 . S
H535 C519 0.960 . S
C536 C537 1.391 . S
C536 C538 1.394 . S
C536 H552 0.931 . S
C537 C536 1.391 . S
C537 C541 1.376 . S
C538 C536 1.394 . S
C538 C539 1.369 . S
C538 C542 1.531 . S
C539 C538 1.369 . S
C539 C540 1.410 . S
C539 C547 1.503 . S
C540 C539 1.410 . S
C540 C541 1.392 . S
C540 C543 1.511 . S
C541 C537 1.376 . S
C541 C540 1.392 . S
C541 H553 0.929 . S
C542 C538 1.531 . S
C542 H554 0.960 . S
C542 H555 0.962 . S
C542 H556 0.960 . S
C543 C540 1.511 . S
C543 H557 0.961 . S
C543 H558 0.961 . S
C543 H559 0.961 . S
C544 C545 1.370 . S
C544 C546 1.363 . S
C544 H560 0.931 . S
C545 C544 1.370 . S
C545 C549 1.408 . S
C546 C544 1.363 . S
C546 C547 1.370 . S
C546 C550 1.524 . S
C547 C539 1.503 . S
C547 C546 1.370 . S
C547 C548 1.403 . S
C548 C547 1.403 . S
C548 C549 1.404 . S
C548 C551 1.539 . S
C549 C545 1.408 . S
C549 C548 1.404 . S
C549 H561 0.930 . S
C550 C546 1.524 . S
C550 H562 0.956 . S
C550 H563 0.961 . S
C550 H564 0.961 . S
C551 C548 1.539 . S
C551 H565 0.958 . S
C551 H566 0.961 . S
C551 H567 0.960 . S
H552 C536 0.931 . S
H553 C541 0.929 . S
H554 C542 0.960 . S
H555 C542 0.962 . S
H556 C542 0.960 . S
H557 C543 0.961 . S
H558 C543 0.961 . S
H559 C543 0.961 . S
H560 C544 0.931 . S
H561 C549 0.930 . S
H562 C550 0.956 . S
H563 C550 0.961 . S
H564 C550 0.961 . S
H565 C551 0.958 . S
H566 C551 0.961 . S
H567 C551 0.960 . S
C568 C569 1.391 . S
C568 C570 1.394 . S
C568 H584 0.931 . S
C569 C568 1.391 . S
C569 C573 1.376 . S
C570 C568 1.394 . S
C570 C571 1.369 . S
C570 C574 1.531 . S
C571 C570 1.369 . S
C571 C572 1.410 . S
C571 C579 1.503 . S
C572 C571 1.410 . S
C572 C573 1.392 . S
C572 C575 1.511 . S
C573 C569 1.376 . S
C573 C572 1.392 . S
C573 H585 0.929 . S
C574 C570 1.531 . S
C574 H586 0.960 . S
C574 H587 0.962 . S
C574 H588 0.960 . S
C575 C572 1.511 . S
C575 H589 0.961 . S
C575 H590 0.961 . S
C575 H591 0.961 . S
C576 C577 1.370 . S
C576 C578 1.363 . S
C576 H592 0.931 . S
C577 C576 1.370 . S
C577 C581 1.408 . S
C578 C576 1.363 . S
C578 C579 1.370 . S
C578 C582 1.524 . S
C579 C571 1.503 . S
C579 C578 1.370 . S
C579 C580 1.403 . S
C580 C579 1.403 . S
C580 C581 1.404 . S
C580 C583 1.539 . S
C581 C577 1.408 . S
C581 C580 1.404 . S
C581 H593 0.930 . S
C582 C578 1.524 . S
C582 H594 0.956 . S
C582 H595 0.961 . S
C582 H596 0.961 . S
C583 C580 1.539 . S
C583 H597 0.958 . S
C583 H598 0.961 . S
C583 H599 0.960 . S
H584 C568 0.931 . S
H585 C573 0.929 . S
H586 C574 0.960 . S
H587 C574 0.962 . S
H588 C574 0.960 . S
H589 C575 0.961 . S
H590 C575 0.961 . S
H591 C575 0.961 . S
H592 C576 0.931 . S
H593 C581 0.930 . S
H594 C582 0.956 . S
H595 C582 0.961 . S
H596 C582 0.961 . S
H597 C583 0.958 . S
H598 C583 0.961 . S
H599 C583 0.960 . S
C600 C601 1.391 . S
C600 C602 1.394 . S
C600 H616 0.931 . S
C601 C600 1.391 . S
C601 C605 1.376 . S
C602 C600 1.394 . S
C602 C603 1.369 . S
C602 C606 1.531 . S
C603 C602 1.369 . S
C603 C604 1.410 . S
C603 C611 1.503 . S
C604 C603 1.410 . S
C604 C605 1.392 . S
C604 C607 1.511 . S
C605 C601 1.376 . S
C605 C604 1.392 . S
C605 H617 0.929 . S
C606 C602 1.531 . S
C606 H618 0.960 . S
C606 H619 0.962 . S
C606 H620 0.960 . S
C607 C604 1.511 . S
C607 H621 0.961 1_556 S
C607 H622 0.961 1_556 S
C607 H623 0.961 . S
C608 C609 1.370 . S
C608 C610 1.363 . S
C608 H624 0.931 . S
C609 C608 1.370 . S
C609 C613 1.408 1_554 S
C610 C608 1.363 . S
C610 C611 1.370 1_554 S
C610 C614 1.524 . S
C611 C603 1.503 . S
C611 C610 1.370 1_556 S
C611 C612 1.403 . S
C612 C611 1.403 . S
C612 C613 1.404 . S
C612 C615 1.539 . S
C613 C609 1.408 1_556 S
C613 C612 1.404 . S
C613 H625 0.930 . S
C614 C610 1.524 . S
C614 H626 0.956 1_554 S
C614 H627 0.961 . S
C614 H628 0.961 . S
C615 C612 1.539 . S
C615 H629 0.958 . S
C615 H630 0.961 . S
C615 H631 0.960 . S
H616 C600 0.931 . S
H617 C605 0.929 . S
H618 C606 0.960 . S
H619 C606 0.962 . S
H620 C606 0.960 . S
H621 C607 0.961 1_554 S
H622 C607 0.961 1_554 S
H623 C607 0.961 . S
H624 C608 0.931 . S
H625 C613 0.930 . S
H626 C614 0.956 1_556 S
H627 C614 0.961 . S
H628 C614 0.961 . S
H629 C615 0.958 . S
H630 C615 0.961 . S
H631 C615 0.960 . S
C632 C633 1.391 . S
C632 C634 1.394 . S
C632 H648 0.931 . S
C633 C632 1.391 . S
C633 C637 1.376 . S
C634 C632 1.394 . S
C634 C635 1.369 . S
C634 C638 1.531 . S
C635 C634 1.369 . S
C635 C636 1.410 . S
C635 C643 1.503 . S
C636 C635 1.410 . S
C636 C637 1.392 . S
C636 C639 1.511 . S
C637 C633 1.376 . S
C637 C636 1.392 . S
C637 H649 0.929 . S
C638 C634 1.531 . S
C638 H650 0.960 . S
C638 H651 0.962 . S
C638 H652 0.960 . S
C639 C636 1.511 . S
C639 H653 0.961 . S
C639 H654 0.961 . S
C639 H655 0.961 . S
C640 C641 1.370 . S
C640 C642 1.363 . S
C640 H656 0.931 . S
C641 C640 1.370 . S
C641 C645 1.408 . S
C642 C640 1.363 . S
C642 C643 1.370 . S
C642 C646 1.524 . S
C643 C635 1.503 . S
C643 C642 1.370 . S
C643 C644 1.403 . S
C644 C643 1.403 . S
C644 C645 1.404 . S
C644 C647 1.539 . S
C645 C641 1.408 . S
C645 C644 1.404 . S
C645 H657 0.930 . S
C646 C642 1.524 . S
C646 H658 0.956 . S
C646 H659 0.961 . S
C646 H660 0.961 . S
C647 C644 1.539 . S
C647 H661 0.958 . S
C647 H662 0.961 . S
C647 H663 0.960 . S
H648 C632 0.931 . S
H649 C637 0.929 . S
H650 C638 0.960 . S
H651 C638 0.962 . S
H652 C638 0.960 . S
H653 C639 0.961 . S
H654 C639 0.961 . S
H655 C639 0.961 . S
H656 C640 0.931 . S
H657 C645 0.930 . S
H658 C646 0.956 . S
H659 C646 0.961 . S
H660 C646 0.961 . S
H661 C647 0.958 . S
H662 C647 0.961 . S
H663 C647 0.960 . S
C664 C665 1.391 . S
C664 C666 1.394 . S
C664 H680 0.931 . S
C665 C664 1.391 . S
C665 C669 1.376 . S
C666 C664 1.394 . S
C666 C667 1.369 . S
C666 C670 1.531 . S
C667 C666 1.369 . S
C667 C668 1.410 . S
C667 C675 1.503 . S
C668 C667 1.410 . S
C668 C669 1.392 . S
C668 C671 1.511 . S
C669 C665 1.376 . S
C669 C668 1.392 . S
C669 H681 0.929 . S
C670 C666 1.531 . S
C670 H682 0.960 . S
C670 H683 0.962 . S
C670 H684 0.960 . S
C671 C668 1.511 . S
C671 H685 0.961 . S
C671 H686 0.961 . S
C671 H687 0.961 . S
C672 C673 1.370 . S
C672 C674 1.363 . S
C672 H688 0.931 . S
C673 C672 1.370 . S
C673 C677 1.408 . S
C674 C672 1.363 . S
C674 C675 1.370 . S
C674 C678 1.524 . S
C675 C667 1.503 . S
C675 C674 1.370 . S
C675 C676 1.403 . S
C676 C675 1.403 . S
C676 C677 1.404 . S
C676 C679 1.539 . S
C677 C673 1.408 . S
C677 C676 1.404 . S
C677 H689 0.930 . S
C678 C674 1.524 . S
C678 H690 0.956 . S
C678 H691 0.961 . S
C678 H692 0.961 . S
C679 C676 1.539 . S
C679 H693 0.958 . S
C679 H694 0.961 . S
C679 H695 0.960 . S
H680 C664 0.931 . S
H681 C669 0.929 . S
H682 C670 0.960 . S
H683 C670 0.962 . S
H684 C670 0.960 . S
H685 C671 0.961 . S
H686 C671 0.961 . S
H687 C671 0.961 . S
H688 C672 0.931 . S
H689 C677 0.930 . S
H690 C678 0.956 . S
H691 C678 0.961 . S
H692 C678 0.961 . S
H693 C679 0.958 . S
H694 C679 0.961 . S
H695 C679 0.960 . S
C696 C697 1.391 . S
C696 C698 1.394 . S
C696 H712 0.931 . S
C697 C696 1.391 . S
C697 C701 1.376 . S
C698 C696 1.394 . S
C698 C699 1.369 . S
C698 C702 1.531 . S
C699 C698 1.369 . S
C699 C700 1.410 . S
C699 C707 1.503 . S
C700 C699 1.410 . S
C700 C701 1.392 . S
C700 C703 1.511 . S
C701 C697 1.376 . S
C701 C700 1.392 . S
C701 H713 0.929 . S
C702 C698 1.531 . S
C702 H714 0.960 . S
C702 H715 0.962 . S
C702 H716 0.960 . S
C703 C700 1.511 . S
C703 H717 0.961 . S
C703 H718 0.961 . S
C703 H719 0.961 . S
C704 C705 1.370 . S
C704 C706 1.363 . S
C704 H720 0.931 . S
C705 C704 1.370 . S
C705 C709 1.408 . S
C706 C704 1.363 . S
C706 C707 1.370 . S
C706 C710 1.524 . S
C707 C699 1.503 . S
C707 C706 1.370 . S
C707 C708 1.403 . S
C708 C707 1.403 . S
C708 C709 1.404 . S
C708 C711 1.539 . S
C709 C705 1.408 . S
C709 C708 1.404 . S
C709 H721 0.930 . S
C710 C706 1.524 . S
C710 H722 0.956 . S
C710 H723 0.961 . S
C710 H724 0.961 . S
C711 C708 1.539 . S
C711 H725 0.958 . S
C711 H726 0.961 . S
C711 H727 0.960 . S
H712 C696 0.931 . S
H713 C701 0.929 . S
H714 C702 0.960 . S
H715 C702 0.962 . S
H716 C702 0.960 . S
H717 C703 0.961 . S
H718 C703 0.961 . S
H719 C703 0.961 . S
H720 C704 0.931 . S
H721 C709 0.930 . S
H722 C710 0.956 . S
H723 C710 0.961 . S
H724 C710 0.961 . S
H725 C711 0.958 . S
H726 C711 0.961 . S
H727 C711 0.960 . S
C728 C729 1.391 . S
C728 C730 1.394 . S
C728 H744 0.931 . S
C729 C728 1.391 . S
C729 C733 1.376 . S
C730 C728 1.394 . S
C730 C731 1.369 . S
C730 C734 1.531 . S
C731 C730 1.369 . S
C731 C732 1.410 . S
C731 C739 1.503 . S
C732 C731 1.410 . S
C732 C733 1.392 . S
C732 C735 1.511 . S
C733 C729 1.376 . S
C733 C732 1.392 . S
C733 H745 0.929 . S
C734 C730 1.531 . S
C734 H746 0.960 . S
C734 H747 0.962 . S
C734 H748 0.960 . S
C735 C732 1.511 . S
C735 H749 0.961 . S
C735 H750 0.961 . S
C735 H751 0.961 . S
C736 C737 1.370 . S
C736 C738 1.363 . S
C736 H752 0.931 . S
C737 C736 1.370 . S
C737 C741 1.408 . S
C738 C736 1.363 . S
C738 C739 1.370 . S
C738 C742 1.524 . S
C739 C731 1.503 . S
C739 C738 1.370 . S
C739 C740 1.403 . S
C740 C739 1.403 . S
C740 C741 1.404 . S
C740 C743 1.539 . S
C741 C737 1.408 . S
C741 C740 1.404 . S
C741 H753 0.930 . S
C742 C738 1.524 . S
C742 H754 0.956 . S
C742 H755 0.961 . S
C742 H756 0.961 . S
C743 C740 1.539 . S
C743 H757 0.958 . S
C743 H758 0.961 . S
C743 H759 0.960 . S
H744 C728 0.931 . S
H745 C733 0.929 . S
H746 C734 0.960 . S
H747 C734 0.962 . S
H748 C734 0.960 . S
H749 C735 0.961 . S
H750 C735 0.961 . S
H751 C735 0.961 . S
H752 C736 0.931 . S
H753 C741 0.930 . S
H754 C742 0.956 . S
H755 C742 0.961 . S
H756 C742 0.961 . S
H757 C743 0.958 . S
H758 C743 0.961 . S
H759 C743 0.960 . S
C760 C761 1.391 . S
C760 C762 1.394 . S
C760 H776 0.931 . S
C761 C760 1.391 . S
C761 C765 1.376 . S
C762 C760 1.394 . S
C762 C763 1.369 . S
C762 C766 1.531 . S
C763 C762 1.369 . S
C763 C764 1.410 . S
C763 C771 1.503 . S
C764 C763 1.410 . S
C764 C765 1.392 . S
C764 C767 1.511 . S
C765 C761 1.376 . S
C765 C764 1.392 . S
C765 H777 0.929 . S
C766 C762 1.531 . S
C766 H778 0.960 . S
C766 H779 0.962 . S
C766 H780 0.960 . S
C767 C764 1.511 . S
C767 H781 0.961 . S
C767 H782 0.961 . S
C767 H783 0.961 . S
C768 C769 1.370 . S
C768 C770 1.363 . S
C768 H784 0.931 . S
C769 C768 1.370 . S
C769 C773 1.408 . S
C770 C768 1.363 . S
C770 C771 1.370 . S
C770 C774 1.524 . S
C771 C763 1.503 . S
C771 C770 1.370 . S
C771 C772 1.403 . S
C772 C771 1.403 . S
C772 C773 1.404 . S
C772 C775 1.539 . S
C773 C769 1.408 . S
C773 C772 1.404 . S
C773 H785 0.930 . S
C774 C770 1.524 . S
C774 H786 0.956 . S
C774 H787 0.961 . S
C774 H788 0.961 . S
C775 C772 1.539 . S
C775 H789 0.958 . S
C775 H790 0.961 . S
C775 H791 0.960 . S
H776 C760 0.931 . S
H777 C765 0.929 . S
H778 C766 0.960 . S
H779 C766 0.962 . S
H780 C766 0.960 . S
H781 C767 0.961 . S
H782 C767 0.961 . S
H783 C767 0.961 . S
H784 C768 0.931 . S
H785 C773 0.930 . S
H786 C774 0.956 . S
H787 C774 0.961 . S
H788 C774 0.961 . S
H789 C775 0.958 . S
H790 C775 0.961 . S
H791 C775 0.960 . S
C792 C793 1.391 . S
C792 C794 1.394 . S
C792 H808 0.931 . S
C793 C792 1.391 . S
C793 C797 1.376 . S
C794 C792 1.394 . S
C794 C795 1.369 . S
C794 C798 1.531 . S
C795 C794 1.369 . S
C795 C796 1.410 . S
C795 C803 1.503 . S
C796 C795 1.410 . S
C796 C797 1.392 . S
C796 C799 1.511 . S
C797 C793 1.376 . S
C797 C796 1.392 . S
C797 H809 0.929 . S
C798 C794 1.531 . S
C798 H810 0.960 . S
C798 H811 0.962 . S
C798 H812 0.960 . S
C799 C796 1.511 . S
C799 H813 0.961 . S
C799 H814 0.961 . S
C799 H815 0.961 . S
C800 C801 1.370 . S
C800 C802 1.363 . S
C800 H816 0.931 . S
C801 C800 1.370 . S
C801 C805 1.408 . S
C802 C800 1.363 . S
C802 C803 1.370 . S
C802 C806 1.524 . S
C803 C795 1.503 . S
C803 C802 1.370 . S
C803 C804 1.403 . S
C804 C803 1.403 . S
C804 C805 1.404 . S
C804 C807 1.539 . S
C805 C801 1.408 . S
C805 C804 1.404 . S
C805 H817 0.930 . S
C806 C802 1.524 . S
C806 H818 0.956 . S
C806 H819 0.961 . S
C806 H820 0.961 . S
C807 C804 1.539 . S
C807 H821 0.958 . S
C807 H822 0.961 . S
C807 H823 0.960 . S
H808 C792 0.931 . S
H809 C797 0.929 . S
H810 C798 0.960 . S
H811 C798 0.962 . S
H812 C798 0.960 . S
H813 C799 0.961 . S
H814 C799 0.961 . S
H815 C799 0.961 . S
H816 C800 0.931 . S
H817 C805 0.930 . S
H818 C806 0.956 . S
H819 C806 0.961 . S
H820 C806 0.961 . S
H821 C807 0.958 . S
H822 C807 0.961 . S
H823 C807 0.960 . S
C824 C825 1.391 . S
C824 C826 1.394 . S
C824 H840 0.931 . S
C825 C824 1.391 . S
C825 C829 1.376 . S
C826 C824 1.394 . S
C826 C827 1.369 . S
C826 C830 1.531 . S
C827 C826 1.369 . S
C827 C828 1.410 . S
C827 C835 1.503 . S
C828 C827 1.410 . S
C828 C829 1.392 . S
C828 C831 1.511 1_556 S
C829 C825 1.376 . S
C829 C828 1.392 . S
C829 H841 0.929 . S
C830 C826 1.531 . S
C830 H842 0.960 . S
C830 H843 0.962 . S
C830 H844 0.960 . S
C831 C828 1.511 1_554 S
C831 H845 0.961 . S
C831 H846 0.961 . S
C831 H847 0.961 1_554 S
C832 C833 1.370 . S
C832 C834 1.363 . S
C832 H848 0.931 . S
C833 C832 1.370 . S
C833 C837 1.408 . S
C834 C832 1.363 . S
C834 C835 1.370 1_554 S
C834 C838 1.524 . S
C835 C827 1.503 . S
C835 C834 1.370 1_556 S
C835 C836 1.403 . S
C836 C835 1.403 . S
C836 C837 1.404 1_556 S
C836 C839 1.539 . S
C837 C833 1.408 . S
C837 C836 1.404 1_554 S
C837 H849 0.925 1_554 S
C838 C834 1.524 . S
C838 H850 0.956 . S
C838 H851 0.961 . S
C838 H852 0.961 . S
C839 C836 1.539 . S
C839 H853 0.958 . S
C839 H854 0.961 . S
C839 H855 0.960 . S
H840 C824 0.931 . S
H841 C829 0.929 . S
H842 C830 0.960 . S
H843 C830 0.962 . S
H844 C830 0.960 . S
H845 C831 0.961 . S
H846 C831 0.961 . S
H847 C831 0.961 1_556 S
H848 C832 0.931 . S
H849 C837 0.925 1_556 S
H850 C838 0.956 . S
H851 C838 0.961 . S
H852 C838 0.961 . S
H853 C839 0.958 . S
H854 C839 0.961 . S
H855 C839 0.960 . S
C856 C857 1.391 . S
C856 C858 1.394 . S
C856 H872 0.931 . S
C857 C856 1.391 . S
C857 C861 1.376 . S
C858 C856 1.394 . S
C858 C859 1.369 . S
C858 C862 1.531 . S
C859 C858 1.369 . S
C859 C860 1.410 . S
C859 C867 1.503 . S
C860 C859 1.410 . S
C860 C861 1.392 . S
C860 C863 1.511 1_655 S
C861 C857 1.376 . S
C861 C860 1.392 . S
C861 H873 0.929 . S
C862 C858 1.531 . S
C862 H874 0.960 . S
C862 H875 0.962 . S
C862 H876 0.960 . S
C863 C860 1.511 1_455 S
C863 H877 0.961 . S
C863 H878 0.961 1_455 S
C863 H879 0.961 . S
C864 C865 1.370 . S
C864 C866 1.363 . S
C864 H880 0.931 . S
C865 C864 1.370 . S
C865 C869 1.408 1_655 S
C866 C864 1.363 . S
C866 C867 1.370 . S
C866 C870 1.524 . S
C867 C859 1.503 . S
C867 C866 1.370 . S
C867 C868 1.403 1_655 S
C868 C867 1.403 1_455 S
C868 C869 1.404 . S
C868 C871 1.539 . S
C869 C865 1.408 1_455 S
C869 C868 1.404 . S
C869 H881 0.930 . S
C870 C866 1.524 . S
C870 H882 0.956 . S
C870 H883 0.961 . S
C870 H884 0.961 . S
C871 C868 1.539 . S
C871 H885 0.958 . S
C871 H886 0.961 . S
C871 H887 0.960 . S
H872 C856 0.931 . S
H873 C861 0.929 . S
H874 C862 0.960 . S
H875 C862 0.962 . S
H876 C862 0.960 . S
H877 C863 0.961 . S
H878 C863 0.961 1_655 S
H879 C863 0.961 . S
H880 C864 0.931 . S
H881 C869 0.930 . S
H882 C870 0.956 . S
H883 C870 0.961 . S
H884 C870 0.961 . S
H885 C871 0.958 . S
H886 C871 0.961 . S
H887 C871 0.960 . S
C888 C889 1.391 . S
C888 C890 1.394 . S
C888 H904 0.931 . S
C889 C888 1.391 . S
C889 C893 1.376 . S
C890 C888 1.394 . S
C890 C891 1.369 . S
C890 C894 1.531 . S
C891 C890 1.369 . S
C891 C892 1.410 . S
C891 C899 1.503 . S
C892 C891 1.410 . S
C892 C893 1.392 . S
C892 C895 1.511 . S
C893 C889 1.376 . S
C893 C892 1.392 . S
C893 H905 0.929 . S
C894 C890 1.531 . S
C894 H906 0.960 . S
C894 H907 0.962 . S
C894 H908 0.960 . S
C895 C892 1.511 . S
C895 H909 0.961 . S
C895 H910 0.961 . S
C895 H911 0.961 . S
C896 C897 1.370 . S
C896 C898 1.363 . S
C896 H912 0.931 . S
C897 C896 1.370 . S
C897 C901 1.408 . S
C898 C896 1.363 . S
C898 C899 1.370 . S
C898 C902 1.524 . S
C899 C891 1.503 . S
C899 C898 1.370 . S
C899 C900 1.403 . S
C900 C899 1.403 . S
C900 C901 1.404 . S
C900 C903 1.539 . S
C901 C897 1.408 . S
C901 C900 1.404 . S
C901 H913 0.930 . S
C902 C898 1.524 . S
C902 H914 0.956 . S
C902 H915 0.961 . S
C902 H916 0.961 . S
C903 C900 1.539 . S
C903 H917 0.958 . S
C903 H918 0.961 . S
C903 H919 0.960 . S
H904 C888 0.931 . S
H905 C893 0.929 . S
H906 C894 0.960 . S
H907 C894 0.962 . S
H908 C894 0.960 . S
H909 C895 0.961 . S
H910 C895 0.961 . S
H911 C895 0.961 . S
H912 C896 0.931 . S
H913 C901 0.930 . S
H914 C902 0.956 . S
H915 C902 0.961 . S
H916 C902 0.961 . S
H917 C903 0.958 . S
H918 C903 0.961 . S
H919 C903 0.960 . S
C920 C921 1.391 . S
C920 C922 1.394 . S
C920 H936 0.931 . S
C921 C920 1.391 . S
C921 C925 1.376 . S
C922 C920 1.394 . S
C922 C923 1.369 . S
C922 C926 1.531 . S
C923 C922 1.369 . S
C923 C924 1.410 . S
C923 C931 1.503 . S
C924 C923 1.410 . S
C924 C925 1.392 . S
C924 C927 1.511 . S
C925 C921 1.376 . S
C925 C924 1.392 . S
C925 H937 0.929 . S
C926 C922 1.531 . S
C926 H938 0.960 . S
C926 H939 0.962 . S
C926 H940 0.960 . S
C927 C924 1.511 . S
C927 H941 0.961 . S
C927 H942 0.961 . S
C927 H943 0.961 . S
C928 C929 1.370 . S
C928 C930 1.363 . S
C928 H944 0.931 . S
C929 C928 1.370 . S
C929 C933 1.408 . S
C930 C928 1.363 . S
C930 C931 1.370 . S
C930 C934 1.524 . S
C931 C923 1.503 . S
C931 C930 1.370 . S
C931 C932 1.403 . S
C932 C931 1.403 . S
C932 C933 1.404 . S
C932 C935 1.539 . S
C933 C929 1.408 . S
C933 C932 1.404 . S
C933 H945 0.930 . S
C934 C930 1.524 . S
C934 H946 0.956 . S
C934 H947 0.961 . S
C934 H948 0.961 . S
C935 C932 1.539 . S
C935 H949 0.958 . S
C935 H950 0.961 . S
C935 H951 0.960 . S
H936 C920 0.931 . S
H937 C925 0.929 . S
H938 C926 0.960 . S
H939 C926 0.962 . S
H940 C926 0.960 . S
H941 C927 0.961 . S
H942 C927 0.961 . S
H943 C927 0.961 . S
H944 C928 0.931 . S
H945 C933 0.930 . S
H946 C934 0.956 . S
H947 C934 0.961 . S
H948 C934 0.961 . S
H949 C935 0.958 . S
H950 C935 0.961 . S
H951 C935 0.960 . S
C952 C953 1.391 . S
C952 C954 1.394 . S
C952 H968 0.931 . S
C953 C952 1.391 . S
C953 C957 1.376 . S
C954 C952 1.394 . S
C954 C955 1.369 . S
C954 C958 1.531 . S
C955 C954 1.369 . S
C955 C956 1.410 . S
C955 C963 1.503 . S
C956 C955 1.410 . S
C956 C957 1.392 . S
C956 C959 1.511 . S
C957 C953 1.376 . S
C957 C956 1.392 . S
C957 H969 0.929 . S
C958 C954 1.531 . S
C958 H970 0.960 . S
C958 H971 0.962 . S
C958 H972 0.960 . S
C959 C956 1.511 . S
C959 H973 0.961 . S
C959 H974 0.961 . S
C959 H975 0.961 . S
C960 C961 1.370 . S
C960 C962 1.363 . S
C960 H976 0.931 . S
C961 C960 1.370 . S
C961 C965 1.408 . S
C962 C960 1.363 . S
C962 C963 1.370 . S
C962 C966 1.524 . S
C963 C955 1.503 . S
C963 C962 1.370 . S
C963 C964 1.403 . S
C964 C963 1.403 . S
C964 C965 1.404 . S
C964 C967 1.539 . S
C965 C961 1.408 . S
C965 C964 1.404 . S
C965 H977 0.930 . S
C966 C962 1.524 . S
C966 H978 0.956 . S
C966 H979 0.961 . S
C966 H980 0.961 . S
C967 C964 1.539 . S
C967 H981 0.958 . S
C967 H982 0.961 . S
C967 H983 0.960 . S
H968 C952 0.931 . S
H969 C957 0.929 . S
H970 C958 0.960 . S
H971 C958 0.962 . S
H972 C958 0.960 . S
H973 C959 0.961 . S
H974 C959 0.961 . S
H975 C959 0.961 . S
H976 C960 0.931 . S
H977 C965 0.930 . S
H978 C966 0.956 . S
H979 C966 0.961 . S
H980 C966 0.961 . S
H981 C967 0.958 . S
H982 C967 0.961 . S
H983 C967 0.960 . S
C984 C985 1.391 . S
C984 C986 1.394 . S
C984 H1000 0.931 . S
C985 C984 1.391 . S
C985 C989 1.376 . S
C986 C984 1.394 . S
C986 C987 1.369 . S
C986 C990 1.531 . S
C987 C986 1.369 . S
C987 C988 1.410 . S
C987 C995 1.503 . S
C988 C987 1.410 . S
C988 C989 1.392 . S
C988 C991 1.511 . S
C989 C985 1.376 . S
C989 C988 1.392 . S
C989 H1001 0.929 . S
C990 C986 1.531 . S
C990 H1002 0.960 . S
C990 H1003 0.962 . S
C990 H1004 0.960 . S
C991 C988 1.511 . S
C991 H1005 0.961 . S
C991 H1006 0.961 . S
C991 H1007 0.961 . S
C992 C993 1.370 . S
C992 C994 1.363 . S
C992 H1008 0.931 . S
C993 C992 1.370 . S
C993 C997 1.408 . S
C994 C992 1.363 . S
C994 C995 1.370 . S
C994 C998 1.524 . S
C995 C987 1.503 . S
C995 C994 1.370 . S
C995 C996 1.403 . S
C996 C995 1.403 . S
C996 C997 1.404 . S
C996 C999 1.539 . S
C997 C993 1.408 . S
C997 C996 1.404 . S
C997 H1009 0.930 . S
C998 C994 1.524 . S
C998 H1010 0.956 . S
C998 H1011 0.961 . S
C998 H1012 0.961 . S
C999 C996 1.539 . S
C999 H1013 0.958 . S
C999 H1014 0.961 . S
C999 H1015 0.960 . S
H1000 C984 0.931 . S
H1001 C989 0.929 . S
H1002 C990 0.960 . S
H1003 C990 0.962 . S
H1004 C990 0.960 . S
H1005 C991 0.961 . S
H1006 C991 0.961 . S
H1007 C991 0.961 . S
H1008 C992 0.931 . S
H1009 C997 0.930 . S
H1010 C998 0.956 . S
H1011 C998 0.961 . S
H1012 C998 0.961 . S
H1013 C999 0.958 . S
H1014 C999 0.961 . S
H1015 C999 0.960 . S
C1016 C1017 1.391 . S
C1016 C1018 1.394 . S
C1016 H1032 0.931 . S
C1017 C1016 1.391 . S
C1017 C1021 1.376 . S
C1018 C1016 1.394 . S
C1018 C1019 1.369 . S
C1018 C1022 1.531 . S
C1019 C1018 1.369 . S
C1019 C1020 1.410 . S
C1019 C1027 1.503 . S
C1020 C1019 1.410 . S
C1020 C1021 1.392 . S
C1020 C1023 1.511 . S
C1021 C1017 1.376 . S
C1021 C1020 1.392 . S
C1021 H1033 0.929 . S
C1022 C1018 1.531 . S
C1022 H1034 0.960 . S
C1022 H1035 0.962 . S
C1022 H1036 0.960 . S
C1023 C1020 1.511 . S
C1023 H1037 0.961 . S
C1023 H1038 0.961 . S
C1023 H1039 0.961 . S
C1024 C1025 1.370 . S
C1024 C1026 1.363 . S
C1024 H1040 0.931 . S
C1025 C1024 1.370 . S
C1025 C1029 1.408 . S
C1026 C1024 1.363 . S
C1026 C1027 1.370 . S
C1026 C1030 1.524 . S
C1027 C1019 1.503 . S
C1027 C1026 1.370 . S
C1027 C1028 1.403 . S
C1028 C1027 1.403 . S
C1028 C1029 1.404 . S
C1028 C1031 1.539 . S
C1029 C1025 1.408 . S
C1029 C1028 1.404 . S
C1029 H1041 0.930 . S
C1030 C1026 1.524 . S
C1030 H1042 0.956 . S
C1030 H1043 0.961 . S
C1030 H1044 0.961 . S
C1031 C1028 1.539 . S
C1031 H1045 0.958 . S
C1031 H1046 0.961 . S
C1031 H1047 0.960 . S
H1032 C1016 0.931 . S
H1033 C1021 0.929 . S
H1034 C1022 0.960 . S
H1035 C1022 0.962 . S
H1036 C1022 0.960 . S
H1037 C1023 0.961 . S
H1038 C1023 0.961 . S
H1039 C1023 0.961 . S
H1040 C1024 0.931 . S
H1041 C1029 0.930 . S
H1042 C1030 0.956 . S
H1043 C1030 0.961 . S
H1044 C1030 0.961 . S
H1045 C1031 0.958 . S
H1046 C1031 0.961 . S
H1047 C1031 0.960 . S
C1048 C1049 1.391 . S
C1048 C1050 1.394 . S
C1048 H1064 0.931 . S
C1049 C1048 1.391 . S
C1049 C1053 1.376 . S
C1050 C1048 1.394 . S
C1050 C1051 1.369 . S
C1050 C1054 1.531 . S
C1051 C1050 1.369 . S
C1051 C1052 1.410 . S
C1051 C1059 1.503 . S
C1052 C1051 1.410 . S
C1052 C1053 1.392 . S
C1052 C1055 1.511 . S
C1053 C1049 1.376 . S
C1053 C1052 1.392 . S
C1053 H1065 0.929 . S
C1054 C1050 1.531 . S
C1054 H1066 0.960 . S
C1054 H1067 0.962 . S
C1054 H1068 0.960 . S
C1055 C1052 1.511 . S
C1055 H1069 0.961 . S
C1055 H1070 0.961 . S
C1055 H1071 0.961 . S
C1056 C1057 1.370 . S
C1056 C1058 1.363 . S
C1056 H1072 0.931 . S
C1057 C1056 1.370 . S
C1057 C1061 1.408 . S
C1058 C1056 1.363 . S
C1058 C1059 1.370 . S
C1058 C1062 1.524 . S
C1059 C1051 1.503 . S
C1059 C1058 1.370 . S
C1059 C1060 1.403 . S
C1060 C1059 1.403 . S
C1060 C1061 1.404 . S
C1060 C1063 1.539 . S
C1061 C1057 1.408 . S
C1061 C1060 1.404 . S
C1061 H1073 0.930 . S
C1062 C1058 1.524 . S
C1062 H1074 0.956 . S
C1062 H1075 0.961 . S
C1062 H1076 0.961 . S
C1063 C1060 1.539 . S
C1063 H1077 0.958 . S
C1063 H1078 0.961 . S
C1063 H1079 0.960 . S
H1064 C1048 0.931 . S
H1065 C1053 0.929 . S
H1066 C1054 0.960 . S
H1067 C1054 0.962 . S
H1068 C1054 0.960 . S
H1069 C1055 0.961 . S
H1070 C1055 0.961 . S
H1071 C1055 0.961 . S
H1072 C1056 0.931 . S
H1073 C1061 0.930 . S
H1074 C1062 0.956 . S
H1075 C1062 0.961 . S
H1076 C1062 0.961 . S
H1077 C1063 0.958 . S
H1078 C1063 0.961 . S
H1079 C1063 0.960 . S
C313 C6 1.394 . S
C321 C167 1.443 . S
C345 C21 1.386 . S
C353 C207 1.453 . S
C385 C241 1.795 . S
C377 C49 1.680 . S
C409 C68 2.389 . S
C417 C282 2.458 1_655 S
C449 C202 2.296 . S
C441 C2 2.242 . S
C481 C162 1.777 1_565 S
C473 C30 1.703 . S
C513 C290 1.430 . S
C505 C40 1.501 . S
C545 C251 1.739 . S
C537 C63 1.797 . S
C569 C11 1.161 . S
C577 C287 1.278 . S
C609 C210 2.284 . S
C601 C44 2.345 . S
C633 C59 1.942 . S
C641 C170 1.946 . S
C665 C25 2.064 . S
C673 C238 2.053 . S
C705 C158 1.606 . S
C697 C82 1.624 . S
C729 C101 1.046 . S
C737 C198 1.133 . S
C761 C125 1.907 . S
C769 C250 2.046 . S
C793 C144 2.118 . S
C801 C291 2.066 . S
C825 C87 1.161 . S
C833 C211 1.270 . S
C865 C171 2.758 . S
C857 C97 2.646 . S
C897 C281 1.518 . S
C889 C120 1.466 . S
C929 C242 1.696 . S
C921 C135 1.713 . S
C953 C78 1.891 . S
C961 C278 1.972 . S
C993 C201 1.533 . S
C985 C116 1.564 . S
C1025 C161 2.575 . S
C1017 C139 2.656 . S
C1049 C106 1.255 . S
C1057 C247 1.492 . S
