# Generated by pormake.
# Topology cml, (3,6)-cn, num edge types: 1
# Building blocks:
#     Node 0, Type 0, BuildingBlock: KAKCAD_clean_linker_0, # of connection points: 3
#     Node 1, Type 0, BuildingBlock: KAKCAD_clean_linker_0, # of connection points: 3
#     Node 2, Type 0, BuildingBlock: KAKCAD_clean_linker_0, # of connection points: 3
#     Node 3, Type 0, BuildingBlock: KAKCAD_clean_linker_0, # of connection points: 3
#     Node 4, Type 0, BuildingBlock: KAKCAD_clean_linker_0, # of connection points: 3
#     Node 5, Type 0, BuildingBlock: KAKCAD_clean_linker_0, # of connection points: 3
#     Node 6, Type 0, BuildingBlock: KAKCAD_clean_linker_0, # of connection points: 3
#     Node 7, Type 0, BuildingBlock: KAKCAD_clean_linker_0, # of connection points: 3
#     Node 8, Type 1, BuildingBlock: IZENUY_clean_sbu_0, # of connection points: 6
#     Node 9, Type 1, BuildingBlock: IZENUY_clean_sbu_0, # of connection points: 6
#     Node 10, Type 1, BuildingBlock: IZENUY_clean_sbu_0, # of connection points: 6
#     Node 11, Type 1, BuildingBlock: IZENUY_clean_sbu_0, # of connection points: 6
#     Edge 12, Type (0, 1), BuildingBlock: MIFKUJ_clean_linker_0, # of connection points: 2
#     Edge 13, Type (0, 1), BuildingBlock: MIFKUJ_clean_linker_0, # of connection points: 2
#     Edge 14, Type (0, 1), BuildingBlock: MIFKUJ_clean_linker_0, # of connection points: 2
#     Edge 15, Type (0, 1), BuildingBlock: MIFKUJ_clean_linker_0, # of connection points: 2
#     Edge 16, Type (0, 1), BuildingBlock: MIFKUJ_clean_linker_0, # of connection points: 2
#     Edge 17, Type (0, 1), BuildingBlock: MIFKUJ_clean_linker_0, # of connection points: 2
#     Edge 18, Type (0, 1), BuildingBlock: MIFKUJ_clean_linker_0, # of connection points: 2
#     Edge 19, Type (0, 1), BuildingBlock: MIFKUJ_clean_linker_0, # of connection points: 2
#     Edge 20, Type (0, 1), BuildingBlock: MIFKUJ_clean_linker_0, # of connection points: 2
#     Edge 21, Type (0, 1), BuildingBlock: MIFKUJ_clean_linker_0, # of connection points: 2
#     Edge 22, Type (0, 1), BuildingBlock: MIFKUJ_clean_linker_0, # of connection points: 2
#     Edge 23, Type (0, 1), BuildingBlock: MIFKUJ_clean_linker_0, # of connection points: 2
#     Edge 24, Type (0, 1), BuildingBlock: MIFKUJ_clean_linker_0, # of connection points: 2
#     Edge 25, Type (0, 1), BuildingBlock: MIFKUJ_clean_linker_0, # of connection points: 2
#     Edge 26, Type (0, 1), BuildingBlock: MIFKUJ_clean_linker_0, # of connection points: 2
#     Edge 27, Type (0, 1), BuildingBlock: MIFKUJ_clean_linker_0, # of connection points: 2
#     Edge 28, Type (0, 1), BuildingBlock: MIFKUJ_clean_linker_0, # of connection points: 2
#     Edge 29, Type (0, 1), BuildingBlock: MIFKUJ_clean_linker_0, # of connection points: 2
#     Edge 30, Type (0, 1), BuildingBlock: MIFKUJ_clean_linker_0, # of connection points: 2
#     Edge 31, Type (0, 1), BuildingBlock: MIFKUJ_clean_linker_0, # of connection points: 2
#     Edge 32, Type (0, 1), BuildingBlock: MIFKUJ_clean_linker_0, # of connection points: 2
#     Edge 33, Type (0, 1), BuildingBlock: MIFKUJ_clean_linker_0, # of connection points: 2
#     Edge 34, Type (0, 1), BuildingBlock: MIFKUJ_clean_linker_0, # of connection points: 2
#     Edge 35, Type (0, 1), BuildingBlock: MIFKUJ_clean_linker_0, # of connection points: 2
# Relax obj value: 0.055
# Max RMSD: 0.070
# Mean RMSD: 0.067
data_MOF--net-cml--node1-IZENUY_clean_sbu_0--node2-KAKCAD_clean_linker_0--edge1-MIFKUJ_clean_linker_0
_symmetry_space_group_name_H-M    P1
_symmetry_Int_Tables_number       1
_symmetry_cell_setting            triclinic
loop_
_symmetry_equiv_pos_as_xyz
'x, y, z'
_cell_length_a     53.921896
_cell_length_b     62.711692
_cell_length_c     58.177245
_cell_angle_alpha  89.957614
_cell_angle_beta   90.079439
_cell_angle_gamma 90.209608
loop_
_atom_site_label
_atom_site_type_symbol
_atom_site_fract_x
_atom_site_fract_y
_atom_site_fract_z
_atom_type_partial_charge
C0 C 0.30605 0.45411 0.95986 0.0
C1 C 0.33202 0.45617 0.95955 0.0
C2 C 0.29477 0.43705 0.97138 0.0
C3 C 0.30924 0.42193 0.98309 0.0
C4 C 0.3352 0.42393 0.98262 0.0
C5 C 0.34646 0.4408 0.97089 0.0
C6 C 0.29741 0.40448 0.9964 0.0
C7 C 0.27858 0.39186 0.98663 0.0
C8 C 0.26758 0.37507 0.99917 0.0
C9 C 0.27551 0.3714 0.02193 0.0
C10 C 0.29468 0.3836 0.03171 0.0
C11 C 0.30541 0.40015 0.01887 0.0
C12 C 0.30435 0.37851 0.05496 0.0
C13 C 0.28817 0.3748 0.07348 0.0
C14 C 0.33005 0.37718 0.05866 0.0
C15 C 0.33941 0.37222 0.08038 0.0
C16 C 0.3233 0.36859 0.09895 0.0
C17 C 0.24874 0.36079 0.98823 0.0
C18 C 0.23177 0.3687 0.97194 0.0
C19 C 0.24792 0.33891 0.99363 0.0
C20 C 0.23062 0.3254 0.9832 0.0
C21 C 0.21393 0.33321 0.96663 0.0
C22 C 0.21477 0.35508 0.96115 0.0
C23 C 0.29757 0.37002 0.09532 0.0
H24 H 0.29448 0.46565 0.95112 0.0
H25 H 0.27471 0.43594 0.97158 0.0
H26 H 0.34681 0.41241 0.99135 0.0
H27 H 0.3665 0.44206 0.97111 0.0
H28 H 0.27325 0.39468 0.96893 0.0
H29 H 0.31989 0.40988 0.02651 0.0
H30 H 0.26716 0.35874 0.03198 0.0
H31 H 0.26828 0.37583 0.07112 0.0
H32 H 0.34295 0.37976 0.04467 0.0
H33 H 0.35932 0.37149 0.08271 0.0
H34 H 0.23152 0.38546 0.9675 0.0
H35 H 0.26091 0.33202 0.00571 0.0
H36 H 0.28473 0.36722 0.10931 0.0
H37 H 0.20252 0.36173 0.94828 0.0
H38 H 0.23035 0.3088 0.9883 0.0
C39 C 0.70013 0.55333 0.45519 0.0
C40 C 0.6742 0.55114 0.4543 0.0
C41 C 0.71103 0.57034 0.46707 0.0
C42 C 0.69621 0.58541 0.47843 0.0
C43 C 0.67028 0.58318 0.47756 0.0
C44 C 0.6594 0.56626 0.4656 0.0
C45 C 0.70767 0.60346 0.49111 0.0
C46 C 0.72741 0.61504 0.48142 0.0
C47 C 0.73772 0.6326 0.49301 0.0
C48 C 0.7286 0.63825 0.51475 0.0
C49 C 0.70908 0.62668 0.52475 0.0
C50 C 0.69859 0.60944 0.51278 0.0
C51 C 0.69957 0.63251 0.54773 0.0
C52 C 0.71578 0.63414 0.56657 0.0
C53 C 0.6741 0.63585 0.55107 0.0
C54 C 0.66495 0.64062 0.57292 0.0
C55 C 0.68106 0.64174 0.59187 0.0
C56 C 0.75729 0.64555 0.48189 0.0
C57 C 0.77859 0.63582 0.4729 0.0
C58 C 0.75436 0.66769 0.47959 0.0
C59 C 0.77224 0.67986 0.46815 0.0
C60 C 0.79355 0.67015 0.45918 0.0
C61 C 0.79672 0.64807 0.46183 0.0
C62 C 0.70656 0.6385 0.58852 0.0
H63 H 0.712 0.54201 0.44651 0.0
H64 H 0.73106 0.57156 0.46758 0.0
H65 H 0.65837 0.59466 0.48594 0.0
H66 H 0.63938 0.56488 0.46544 0.0
H67 H 0.73414 0.61093 0.46445 0.0
H68 H 0.68366 0.60039 0.52062 0.0
H69 H 0.73656 0.65175 0.52381 0.0
H70 H 0.73549 0.63152 0.5644 0.0
H71 H 0.66127 0.63475 0.53676 0.0
H72 H 0.64519 0.6429 0.57511 0.0
H73 H 0.78124 0.61877 0.47452 0.0
H74 H 0.73799 0.6755 0.48625 0.0
H75 H 0.71933 0.63934 0.60289 0.0
H76 H 0.81299 0.64025 0.45499 0.0
H77 H 0.7695 0.6969 0.46644 0.0
C78 C 0.69044 0.44461 0.95255 0.0
C79 C 0.68663 0.46377 0.96454 0.0
C80 C 0.70141 0.42716 0.96344 0.0
C81 C 0.7088 0.42847 0.98658 0.0
C82 C 0.70559 0.4478 0.99839 0.0
C83 C 0.69463 0.46526 0.98749 0.0
C84 C 0.71872 0.4094 0.9986 0.0
C85 C 0.73558 0.39581 0.98759 0.0
C86 C 0.7438 0.37696 0.99828 0.0
C87 C 0.7351 0.37204 0.02047 0.0
C88 C 0.71872 0.38574 0.03195 0.0
C89 C 0.71058 0.40432 0.02084 0.0
C90 C 0.70962 0.38056 0.05538 0.0
C91 C 0.70153 0.35984 0.06086 0.0
C92 C 0.7083 0.39654 0.07225 0.0
C93 C 0.69858 0.39204 0.09395 0.0
C94 C 0.68987 0.37146 0.09928 0.0
C95 C 0.7613 0.36243 0.98621 0.0
C96 C 0.7598 0.35951 0.96227 0.0
C97 C 0.77967 0.35133 0.99849 0.0
C98 C 0.79595 0.3376 0.98719 0.0
C99 C 0.79464 0.33489 0.96321 0.0
C100 C 0.77638 0.3461 0.9509 0.0
C101 C 0.69173 0.35535 0.08258 0.0
H102 H 0.68418 0.44284 0.93495 0.0
H103 H 0.70331 0.4124 0.95395 0.0
H104 H 0.71146 0.44941 0.01612 0.0
H105 H 0.69233 0.47991 0.99708 0.0
H106 H 0.74253 0.40013 0.97075 0.0
H107 H 0.69714 0.41448 0.02926 0.0
H108 H 0.74098 0.3575 0.02888 0.0
H109 H 0.70208 0.34726 0.04814 0.0
H110 H 0.71478 0.41256 0.06864 0.0
H111 H 0.69784 0.40471 0.10656 0.0
H112 H 0.74569 0.36747 0.95221 0.0
H113 H 0.7817 0.35334 0.01688 0.0
H114 H 0.6849 0.3394 0.08603 0.0
H115 H 0.77495 0.34473 0.9324 0.0
H116 H 0.80944 0.32901 0.99737 0.0
C117 C 0.30161 0.63153 0.58815 0.0
C118 C 0.32762 0.63167 0.58992 0.0
C119 C 0.29005 0.62579 0.56749 0.0
C120 C 0.30428 0.61981 0.54834 0.0
C121 C 0.33026 0.62014 0.55008 0.0
C122 C 0.3418 0.62607 0.57061 0.0
C123 C 0.29219 0.61275 0.52671 0.0
C124 C 0.27282 0.62461 0.51692 0.0
C125 C 0.26177 0.61825 0.49605 0.0
C126 C 0.27014 0.59949 0.4853 0.0
C127 C 0.28974 0.58766 0.49474 0.0
C128 C 0.30056 0.59436 0.51546 0.0
C129 C 0.29978 0.56882 0.48254 0.0
C130 C 0.28396 0.55279 0.47405 0.0
C131 C 0.32548 0.56681 0.47938 0.0
C132 C 0.33522 0.54917 0.46799 0.0
C133 C 0.31948 0.53303 0.45964 0.0
C134 C 0.24254 0.63184 0.48492 0.0
C135 C 0.22494 0.64281 0.4982 0.0
C136 C 0.24226 0.63462 0.46092 0.0
C137 C 0.22508 0.6482 0.45053 0.0
C138 C 0.20791 0.65961 0.46385 0.0
C139 C 0.20794 0.6566 0.48783 0.0
C140 C 0.29375 0.53494 0.46285 0.0
H141 H 0.29024 0.63589 0.60273 0.0
H142 H 0.26998 0.62558 0.56663 0.0
H143 H 0.3417 0.6158 0.53554 0.0
H144 H 0.36186 0.6258 0.5715 0.0
H145 H 0.26712 0.63929 0.52514 0.0
H146 H 0.31544 0.58508 0.52298 0.0
H147 H 0.26181 0.59428 0.4693 0.0
H148 H 0.26408 0.55392 0.47635 0.0
H149 H 0.33809 0.57902 0.48558 0.0
H150 H 0.35513 0.54801 0.46596 0.0
H151 H 0.22435 0.64087 0.51669 0.0
H152 H 0.2557 0.6267 0.45011 0.0
H153 H 0.28121 0.52276 0.4565 0.0
H154 H 0.1952 0.66525 0.49871 0.0
H155 H 0.22539 0.64979 0.432 0.0
C156 C 0.79178 0.96093 0.96165 0.0
C157 C 0.81671 0.96689 0.96456 0.0
C158 C 0.78242 0.94268 0.97256 0.0
C159 C 0.79795 0.92987 0.98626 0.0
C160 C 0.82309 0.93568 0.98853 0.0
C161 C 0.83227 0.95407 0.97801 0.0
C162 C 0.78821 0.91061 0.99837 0.0
C163 C 0.7702 0.89734 0.98817 0.0
C164 C 0.76201 0.87868 0.99931 0.0
C165 C 0.77196 0.87332 0.0209 0.0
C166 C 0.7899 0.88637 0.03131 0.0
C167 C 0.79758 0.90508 0.02013 0.0
C168 C 0.80147 0.88031 0.0535 0.0
C169 C 0.78696 0.87397 0.07236 0.0
C170 C 0.82735 0.88135 0.056 0.0
C171 C 0.8385 0.87661 0.07702 0.0
C172 C 0.82404 0.87088 0.09617 0.0
C173 C 0.74369 0.86439 0.98804 0.0
C174 C 0.72197 0.87268 0.9782 0.0
C175 C 0.7479 0.84233 0.98699 0.0
C176 C 0.73077 0.82882 0.97628 0.0
C177 C 0.70885 0.83701 0.96659 0.0
C178 C 0.70467 0.85914 0.96771 0.0
C179 C 0.79813 0.86937 0.09354 0.0
H180 H 0.77945 0.97063 0.95133 0.0
H181 H 0.76294 0.93885 0.97056 0.0
H182 H 0.83586 0.92594 0.99831 0.0
H183 H 0.85169 0.95812 0.98013 0.0
H184 H 0.7632 0.90104 0.97117 0.0
H185 H 0.81088 0.91543 0.02859 0.0
H186 H 0.76597 0.85883 0.02947 0.0
H187 H 0.76695 0.87314 0.0709 0.0
H188 H 0.83902 0.88579 0.04162 0.0
H189 H 0.85852 0.87737 0.07821 0.0
H190 H 0.71817 0.88962 0.97895 0.0
H191 H 0.76468 0.83554 0.99413 0.0
H192 H 0.78643 0.86515 0.10796 0.0
H193 H 0.68785 0.86601 0.96078 0.0
H194 H 0.73494 0.81197 0.97534 0.0
C195 C 0.20589 0.04996 0.45586 0.0
C196 C 0.18054 0.04474 0.45649 0.0
C197 C 0.21476 0.06814 0.46718 0.0
C198 C 0.19841 0.08151 0.47924 0.0
C199 C 0.173 0.07642 0.47947 0.0
C200 C 0.16419 0.05822 0.46831 0.0
C201 C 0.2077 0.10064 0.49171 0.0
C202 C 0.22612 0.11375 0.48205 0.0
C203 C 0.23461 0.13207 0.49362 0.0
C204 C 0.22424 0.1373 0.51508 0.0
C205 C 0.20558 0.12452 0.52485 0.0
C206 C 0.19774 0.10609 0.51319 0.0
C207 C 0.19373 0.1305 0.54695 0.0
C208 C 0.20793 0.13793 0.56561 0.0
C209 C 0.16791 0.12851 0.54956 0.0
C210 C 0.15662 0.1333 0.57046 0.0
C211 C 0.17083 0.14025 0.5893 0.0
C212 C 0.25381 0.14599 0.48295 0.0
C213 C 0.27378 0.13705 0.47082 0.0
C214 C 0.25209 0.16833 0.48443 0.0
C215 C 0.26985 0.18138 0.47396 0.0
C216 C 0.28958 0.1724 0.46162 0.0
C217 C 0.2914 0.15011 0.46019 0.0
C218 C 0.19658 0.14278 0.58659 0.0
H219 H 0.21893 0.03976 0.44701 0.0
H220 H 0.23447 0.07148 0.46686 0.0
H221 H 0.1598 0.08661 0.48813 0.0
H222 H 0.14449 0.0548 0.46873 0.0
H223 H 0.23328 0.11005 0.46513 0.0
H224 H 0.18396 0.09579 0.52104 0.0
H225 H 0.23049 0.15144 0.52409 0.0
H226 H 0.22788 0.13948 0.56418 0.0
H227 H 0.15637 0.1233 0.53537 0.0
H228 H 0.13668 0.13162 0.57186 0.0
H229 H 0.27592 0.11992 0.46967 0.0
H230 H 0.23675 0.17578 0.49328 0.0
H231 H 0.20804 0.14795 0.60085 0.0
H232 H 0.30663 0.14275 0.45106 0.0
H233 H 0.26784 0.19853 0.47511 0.0
C234 C 0.18303 0.93726 0.94667 0.0
C235 C 0.18118 0.95684 0.9583 0.0
C236 C 0.19384 0.91961 0.95734 0.0
C237 C 0.20293 0.92111 0.97993 0.0
C238 C 0.20154 0.94076 0.99142 0.0
C239 C 0.19086 0.95844 0.98071 0.0
C240 C 0.213 0.90199 0.99171 0.0
C241 C 0.22912 0.88814 0.98016 0.0
C242 C 0.2378 0.86944 0.99079 0.0
C243 C 0.23016 0.86479 0.01338 0.0
C244 C 0.21435 0.87868 0.02532 0.0
C245 C 0.20588 0.89723 0.01433 0.0
C246 C 0.20612 0.87371 0.04908 0.0
C247 C 0.19789 0.85312 0.05495 0.0
C248 C 0.20562 0.88979 0.06587 0.0
C249 C 0.1965 0.88555 0.08787 0.0
C250 C 0.18755 0.86513 0.09358 0.0
C251 C 0.25492 0.85491 0.97829 0.0
C252 C 0.25207 0.85137 0.95455 0.0
C253 C 0.27447 0.84472 0.98988 0.0
C254 C 0.29082 0.83145 0.97803 0.0
C255 C 0.28824 0.82821 0.95421 0.0
C256 C 0.26859 0.8383 0.94265 0.0
C257 C 0.18866 0.84889 0.07695 0.0
H258 H 0.17545 0.93535 0.92954 0.0
H259 H 0.19437 0.9046 0.94815 0.0
H260 H 0.20871 0.94246 0.00873 0.0
H261 H 0.19015 0.97337 0.99002 0.0
H262 H 0.23524 0.89221 0.96297 0.0
H263 H 0.193 0.90762 0.02315 0.0
H264 H 0.23646 0.85034 0.02173 0.0
H265 H 0.19783 0.84046 0.0423 0.0
H266 H 0.21223 0.90572 0.06197 0.0
H267 H 0.19639 0.89832 0.10039 0.0
H268 H 0.23701 0.85865 0.94509 0.0
H269 H 0.27745 0.84723 0.00809 0.0
H270 H 0.18166 0.83305 0.08068 0.0
H271 H 0.26613 0.83642 0.92429 0.0
H272 H 0.30545 0.82369 0.98761 0.0
C273 C 0.8043 0.13113 0.58849 0.0
C274 C 0.83026 0.13163 0.59064 0.0
C275 C 0.7932 0.12621 0.56738 0.0
C276 C 0.80789 0.12139 0.54815 0.0
C277 C 0.83383 0.12209 0.55028 0.0
C278 C 0.8449 0.12725 0.57127 0.0
C279 C 0.79632 0.11504 0.52605 0.0
C280 C 0.77704 0.1271 0.51639 0.0
C281 C 0.76654 0.12138 0.49507 0.0
C282 C 0.7753 0.10305 0.48375 0.0
C283 C 0.79468 0.09093 0.49316 0.0
C284 C 0.80502 0.09703 0.51431 0.0
C285 C 0.80478 0.07225 0.48069 0.0
C286 C 0.78893 0.0568 0.47106 0.0
C287 C 0.83055 0.06972 0.47855 0.0
C288 C 0.8403 0.0521 0.4671 0.0
C289 C 0.82452 0.03653 0.45763 0.0
C290 C 0.74732 0.1351 0.48418 0.0
C291 C 0.7288 0.14483 0.49753 0.0
C292 C 0.74782 0.1391 0.46038 0.0
C293 C 0.73041 0.15262 0.45023 0.0
C294 C 0.71217 0.16259 0.46364 0.0
C295 C 0.71149 0.15848 0.48738 0.0
C296 C 0.79872 0.03902 0.45976 0.0
H297 H 0.79258 0.13457 0.60313 0.0
H298 H 0.77316 0.12569 0.56621 0.0
H299 H 0.84559 0.1186 0.53568 0.0
H300 H 0.86495 0.12733 0.57247 0.0
H301 H 0.77094 0.14142 0.52509 0.0
H302 H 0.81971 0.08755 0.52184 0.0
H303 H 0.76735 0.09838 0.46739 0.0
H304 H 0.769 0.0583 0.47258 0.0
H305 H 0.84321 0.08147 0.48561 0.0
H306 H 0.86026 0.05052 0.46594 0.0
H307 H 0.72762 0.14186 0.51583 0.0
H308 H 0.76208 0.13223 0.44962 0.0
H309 H 0.78613 0.02733 0.4525 0.0
H310 H 0.69744 0.16572 0.49811 0.0
H311 H 0.73163 0.15571 0.43195 0.0
Fe312 Fe 0.00809 0.81761 0.3217 0.0
Fe313 Fe 0.0077 0.84196 0.36747 0.0
O314 O 0.00764 0.84198 0.33704 0.0
Fe315 Fe 0.00703 0.86648 0.32197 0.0
O316 O 0.97791 0.85962 0.30821 0.0
O317 O 0.98914 0.82743 0.29762 0.0
O318 O 0.97935 0.80884 0.335 0.0
C319 C 0.9762 0.80723 0.3564 0.0
C320 C 0.03981 0.84137 0.29543 0.0
O321 O 0.9903 0.81692 0.37034 0.0
C322 C 0.0397 0.87632 0.35615 0.0
O323 O 0.02711 0.80349 0.34311 0.0
O324 O 0.03707 0.8281 0.36845 0.0
O325 O 0.02503 0.85689 0.29739 0.0
O326 O 0.03684 0.82471 0.3073 0.0
C327 C 0.97445 0.87373 0.35924 0.0
O328 O 0.02535 0.86697 0.37018 0.0
O329 O 0.03616 0.87483 0.33478 0.0
C330 C 0.04105 0.8103 0.35909 0.0
O331 O 0.97817 0.85581 0.36847 0.0
O332 O 0.98888 0.88065 0.34377 0.0
C333 C 0.97449 0.84315 0.29617 0.0
Fe334 Fe 0.00308 0.15917 0.871 0.0
Fe335 Fe 0.00109 0.13436 0.82561 0.0
O336 O 0.00248 0.15886 0.84056 0.0
Fe337 Fe 0.00323 0.1832 0.82508 0.0
O338 O 0.02197 0.19759 0.84653 0.0
O339 O 0.0328 0.17284 0.87125 0.0
O340 O 0.0202 0.1341 0.87392 0.0
C341 C 0.03358 0.12392 0.85987 0.0
C342 C 0.97136 0.19346 0.85961 0.0
O343 O 0.02979 0.12525 0.83854 0.0
C344 C 0.96988 0.15785 0.79893 0.0
O345 O 0.97347 0.14545 0.87282 0.0
O346 O 0.98215 0.12071 0.84729 0.0
O347 O 0.97444 0.19176 0.8382 0.0
O348 O 0.98589 0.18431 0.87359 0.0
C349 C 0.03454 0.15933 0.79898 0.0
O350 O 0.97228 0.14166 0.81156 0.0
O351 O 0.98473 0.17344 0.80071 0.0
C352 C 0.96862 0.12786 0.86329 0.0
O353 O 0.01972 0.14373 0.80124 0.0
O354 O 0.03199 0.176 0.81089 0.0
C355 C 0.03647 0.19076 0.86199 0.0
Fe356 Fe 0.50654 0.31731 0.32355 0.0
Fe357 Fe 0.50717 0.3411 0.36972 0.0
O358 O 0.50622 0.34148 0.33932 0.0
Fe359 Fe 0.50484 0.36613 0.32461 0.0
O360 O 0.47535 0.35911 0.31175 0.0
O361 O 0.48696 0.3274 0.29994 0.0
O362 O 0.47826 0.30817 0.33722 0.0
C363 C 0.47511 0.30674 0.35864 0.0
C364 C 0.53732 0.34169 0.29714 0.0
O365 O 0.48957 0.31615 0.37253 0.0
C366 C 0.53847 0.37597 0.35793 0.0
O367 O 0.52604 0.3029 0.34434 0.0
O368 O 0.53654 0.32721 0.3698 0.0
O369 O 0.52218 0.35692 0.29942 0.0
O370 O 0.53491 0.32488 0.30884 0.0
C371 C 0.47348 0.37284 0.36284 0.0
O372 O 0.52499 0.36606 0.37228 0.0
O373 O 0.5342 0.37466 0.33666 0.0
C374 C 0.54035 0.30953 0.36013 0.0
O375 O 0.47772 0.35491 0.37176 0.0
O376 O 0.48729 0.38001 0.34703 0.0
C377 C 0.47187 0.34287 0.29939 0.0
Fe378 Fe 0.50333 0.65929 0.86662 0.0
Fe379 Fe 0.50854 0.63426 0.82176 0.0
O380 O 0.50597 0.65891 0.83628 0.0
Fe381 Fe 0.50599 0.68319 0.82062 0.0
O382 O 0.52196 0.69856 0.84327 0.0
O383 O 0.53175 0.67454 0.86928 0.0
O384 O 0.52192 0.63524 0.87139 0.0
C385 C 0.53785 0.62613 0.85888 0.0
C386 C 0.47066 0.69207 0.85259 0.0
O387 O 0.53658 0.62745 0.8373 0.0
C388 C 0.47744 0.65536 0.79247 0.0
O389 O 0.47474 0.64389 0.86577 0.0
O390 O 0.48892 0.61951 0.8421 0.0
O391 O 0.47552 0.69017 0.83151 0.0
O392 O 0.48433 0.68349 0.86764 0.0
C393 C 0.5421 0.6612 0.7979 0.0
O394 O 0.48067 0.63932 0.80518 0.0
O395 O 0.49035 0.67211 0.79514 0.0
C396 C 0.47307 0.62564 0.85673 0.0
O397 O 0.52872 0.6446 0.79897 0.0
O398 O 0.53633 0.67793 0.80859 0.0
C399 C 0.53545 0.69241 0.85988 0.0
H400 H 0.16646 0.34197 0.95183 0.0
H401 H 0.13737 0.31805 0.9328 0.0
H402 H 0.19028 0.26679 0.93781 0.0
H403 H 0.22035 0.29108 0.95488 0.0
H404 H 0.16958 0.2638 0.89907 0.0
H405 H 0.13763 0.27264 0.97504 0.0
H406 H 0.1229 0.29209 0.00919 0.0
H407 H 0.0641 0.31973 0.96938 0.0
H408 H 0.07867 0.30065 0.9349 0.0
H409 H 0.07825 0.17997 0.88601 0.0
H410 H 0.10918 0.20424 0.90279 0.0
H411 H 0.06841 0.25822 0.87697 0.0
H412 H 0.03778 0.23417 0.85975 0.0
H413 H 0.08256 0.25903 0.92622 0.0
H414 H 0.11639 0.24812 0.85008 0.0
H415 H 0.1312 0.22596 0.81794 0.0
H416 H 0.18704 0.19874 0.86159 0.0
H417 H 0.17229 0.2205 0.89411 0.0
C418 C 0.17218 0.32574 0.94856 0.0
C419 C 0.19587 0.31856 0.95513 0.0
C420 C 0.15527 0.31191 0.93798 0.0
C421 C 0.16132 0.29041 0.93431 0.0
C422 C 0.18502 0.28325 0.94057 0.0
C423 C 0.20213 0.29716 0.95068 0.0
C424 C 0.14308 0.2754 0.92381 0.0
C425 C 0.15067 0.26261 0.90528 0.0
C426 C 0.11823 0.27388 0.93163 0.0
C427 C 0.10941 0.28538 0.95234 0.0
C428 C 0.12167 0.28299 0.97353 0.0
C429 C 0.11333 0.29393 0.99295 0.0
C430 C 0.09262 0.30718 0.99144 0.0
C431 C 0.08016 0.30948 0.97052 0.0
C432 C 0.08844 0.2986 0.95103 0.0
C433 C 0.07597 0.19701 0.88383 0.0
C434 C 0.05564 0.20517 0.87154 0.0
C435 C 0.09363 0.21081 0.89337 0.0
C436 C 0.09099 0.23297 0.89107 0.0
C437 C 0.0707 0.24116 0.8789 0.0
C438 C 0.05332 0.22739 0.86899 0.0
C439 C 0.1092 0.24768 0.90168 0.0
C440 C 0.10154 0.26033 0.92017 0.0
C441 C 0.13407 0.24873 0.89418 0.0
C442 C 0.14306 0.23577 0.87459 0.0
C443 C 0.13167 0.23726 0.85289 0.0
C444 C 0.14009 0.22481 0.83459 0.0
C445 C 0.16 0.21091 0.83774 0.0
C446 C 0.17159 0.20949 0.85918 0.0
C447 C 0.16322 0.22189 0.87755 0.0
H448 H 0.16649 0.20128 0.82355 0.0
H449 H 0.08619 0.31563 0.0065 0.0
H450 H 0.84321 0.67189 0.46765 0.0
H451 H 0.87417 0.69458 0.44855 0.0
H452 H 0.81732 0.71989 0.40414 0.0
H453 H 0.78621 0.69754 0.42349 0.0
H454 H 0.86581 0.7063 0.38232 0.0
H455 H 0.83088 0.74999 0.44302 0.0
H456 H 0.81885 0.75714 0.48315 0.0
H457 H 0.89438 0.74897 0.50482 0.0
H458 H 0.90678 0.74143 0.46483 0.0
H459 H 0.93267 0.79459 0.33637 0.0
H460 H 0.90127 0.77057 0.35252 0.0
H461 H 0.94708 0.76123 0.41262 0.0
H462 H 0.97775 0.78598 0.39709 0.0
H463 H 0.90304 0.7663 0.4261 0.0
H464 H 0.93962 0.7226 0.36808 0.0
H465 H 0.95391 0.71308 0.32918 0.0
H466 H 0.87938 0.71803 0.30369 0.0
H467 H 0.86469 0.72785 0.3424 0.0
C468 C 0.83742 0.6822 0.45371 0.0
C469 C 0.8124 0.6831 0.44705 0.0
C470 C 0.85503 0.69512 0.44287 0.0
C471 C 0.84793 0.70885 0.425 0.0
C472 C 0.82309 0.70933 0.41788 0.0
C473 C 0.80538 0.69671 0.429 0.0
C474 C 0.86629 0.72334 0.41439 0.0
C475 C 0.8738 0.7196 0.3917 0.0
C476 C 0.87711 0.74023 0.42698 0.0
C477 C 0.8697 0.74492 0.45098 0.0
C478 C 0.84487 0.74952 0.45637 0.0
C479 C 0.838 0.75368 0.47908 0.0
C480 C 0.85583 0.75345 0.49654 0.0
C481 C 0.88059 0.74911 0.49129 0.0
C482 C 0.88755 0.74491 0.46861 0.0
C483 C 0.93599 0.78732 0.35299 0.0
C484 C 0.95756 0.79217 0.36551 0.0
C485 C 0.91813 0.77351 0.36216 0.0
C486 C 0.92189 0.76383 0.38371 0.0
C487 C 0.94363 0.76854 0.39604 0.0
C488 C 0.96118 0.78267 0.38713 0.0
C489 C 0.90296 0.74932 0.39384 0.0
C490 C 0.89521 0.75304 0.41653 0.0
C491 C 0.89235 0.73213 0.38137 0.0
C492 C 0.9011 0.72617 0.35809 0.0
C493 C 0.92631 0.72181 0.35414 0.0
C494 C 0.93447 0.71633 0.33214 0.0
C495 C 0.91757 0.71501 0.31396 0.0
C496 C 0.89245 0.71909 0.31777 0.0
C497 C 0.88419 0.7246 0.33975 0.0
H498 H 0.92393 0.71077 0.29694 0.0
H499 H 0.85047 0.75668 0.51411 0.0
H500 H 0.78586 0.30961 0.92536 0.0
H501 H 0.81501 0.28666 0.90532 0.0
H502 H 0.872 0.30311 0.95442 0.0
H503 H 0.84366 0.32753 0.97335 0.0
H504 H 0.89177 0.30221 0.91499 0.0
H505 H 0.83785 0.25409 0.95518 0.0
H506 H 0.79804 0.23794 0.96686 0.0
H507 H 0.78303 0.22052 0.89683 0.0
H508 H 0.82262 0.23683 0.88468 0.0
H509 H 0.9701 0.2122 0.90181 0.0
H510 H 0.93897 0.23678 0.91671 0.0
H511 H 0.89823 0.23224 0.85307 0.0
H512 H 0.92963 0.20781 0.83777 0.0
H513 H 0.86965 0.22721 0.89681 0.0
H514 H 0.92737 0.27439 0.8586 0.0
H515 H 0.96913 0.28844 0.85011 0.0
H516 H 0.97883 0.3054 0.92106 0.0
H517 H 0.93725 0.29115 0.93004 0.0
C518 C 0.8047 0.30868 0.93173 0.0
C519 C 0.81227 0.32047 0.95112 0.0
C520 C 0.82128 0.29523 0.92042 0.0
C521 C 0.84563 0.29279 0.92858 0.0
C522 C 0.8533 0.30462 0.94781 0.0
C523 C 0.83689 0.31839 0.95885 0.0
C524 C 0.86324 0.27807 0.91706 0.0
C525 C 0.88692 0.28577 0.91125 0.0
C526 C 0.8569 0.25666 0.91175 0.0
C527 C 0.83306 0.2469 0.91899 0.0
C528 C 0.82596 0.24697 0.94224 0.0
C529 C 0.80346 0.23776 0.94895 0.0
C530 C 0.78798 0.22827 0.93258 0.0
C531 C 0.79501 0.22792 0.90948 0.0
C532 C 0.81749 0.23713 0.90268 0.0
C533 C 0.95451 0.21639 0.89096 0.0
C534 C 0.95232 0.20813 0.86859 0.0
C535 C 0.93681 0.23046 0.89949 0.0
C536 C 0.91645 0.23633 0.88592 0.0
C537 C 0.9139 0.22787 0.86373 0.0
C538 C 0.93186 0.21403 0.85501 0.0
C539 C 0.89796 0.2514 0.89509 0.0
C540 C 0.87423 0.24374 0.90044 0.0
C541 C 0.9044 0.27267 0.90045 0.0
C542 C 0.92927 0.28154 0.89502 0.0
C543 C 0.93848 0.28097 0.87242 0.0
C544 C 0.96211 0.289 0.86752 0.0
C545 C 0.97665 0.29777 0.88504 0.0
C546 C 0.96755 0.29859 0.9075 0.0
C547 C 0.94394 0.29056 0.9125 0.0
H548 H 0.99495 0.30396 0.88121 0.0
H549 H 0.77057 0.22114 0.93781 0.0
H550 H 0.21681 0.68619 0.42724 0.0
H551 H 0.18855 0.71152 0.40946 0.0
H552 H 0.13185 0.69448 0.45847 0.0
H553 H 0.15948 0.66802 0.47544 0.0
H554 H 0.11143 0.69902 0.41869 0.0
H555 H 0.16725 0.7412 0.46343 0.0
H556 H 0.2078 0.75431 0.47718 0.0
H557 H 0.22544 0.77646 0.40926 0.0
H558 H 0.18511 0.76322 0.39503 0.0
H559 H 0.06773 0.81582 0.39877 0.0
H560 H 0.09618 0.7906 0.41678 0.0
H561 H 0.08632 0.74737 0.35981 0.0
H562 H 0.05736 0.77225 0.34194 0.0
H563 H 0.13887 0.77373 0.40606 0.0
H564 H 0.08702 0.6964 0.37883 0.0
H565 H 0.04437 0.68489 0.36946 0.0
H566 H 0.01506 0.73558 0.41078 0.0
H567 H 0.0575 0.74716 0.42069 0.0
C568 C 0.19821 0.6875 0.43405 0.0
C569 C 0.19052 0.675 0.45286 0.0
C570 C 0.18215 0.70227 0.42403 0.0
C571 C 0.15819 0.70523 0.43287 0.0
C572 C 0.15029 0.69258 0.45141 0.0
C573 C 0.16625 0.6776 0.46127 0.0
C574 C 0.14141 0.72153 0.42279 0.0
C575 C 0.11746 0.71534 0.41593 0.0
C576 C 0.149 0.74299 0.41962 0.0
C577 C 0.17325 0.75104 0.42813 0.0
C578 C 0.17985 0.74873 0.45139 0.0
C579 C 0.20278 0.7562 0.45928 0.0
C580 C 0.21921 0.76616 0.44409 0.0
C581 C 0.21271 0.76872 0.421 0.0
C582 C 0.1898 0.76125 0.41302 0.0
C583 C 0.07171 0.801 0.38998 0.0
C584 C 0.06004 0.79595 0.36902 0.0
C585 C 0.08803 0.78661 0.4003 0.0
C586 C 0.09307 0.76693 0.38985 0.0
C587 C 0.08229 0.76226 0.36844 0.0
C588 C 0.06581 0.77655 0.3582 0.0
C589 C 0.10911 0.7511 0.40161 0.0
C590 C 0.13289 0.75739 0.40878 0.0
C591 C 0.10108 0.72992 0.40575 0.0
C592 C 0.07546 0.72276 0.4003 0.0
C593 C 0.07147 0.70501 0.38601 0.0
C594 C 0.04733 0.69849 0.38059 0.0
C595 C 0.02702 0.70954 0.38946 0.0
C596 C 0.03081 0.72707 0.40386 0.0
C597 C 0.0549 0.73363 0.40937 0.0
H598 H 0.00836 0.70449 0.3852 0.0
H599 H 0.23696 0.77194 0.45023 0.0
H600 H 0.69531 0.79654 0.97966 0.0
H601 H 0.6664 0.77236 0.96044 0.0
H602 H 0.65106 0.82044 0.90944 0.0
H603 H 0.68066 0.84455 0.928 0.0
H604 H 0.60797 0.79976 0.9276 0.0
H605 H 0.68718 0.78199 0.89467 0.0
H606 H 0.73131 0.77188 0.89587 0.0
H607 H 0.71258 0.71422 0.93181 0.0
H608 H 0.66835 0.72414 0.93113 0.0
H609 H 0.54489 0.73385 0.84771 0.0
H610 H 0.57462 0.75845 0.86522 0.0
H611 H 0.5977 0.70922 0.91235 0.0
H612 H 0.56821 0.68441 0.89482 0.0
H613 H 0.63708 0.73088 0.89567 0.0
H614 H 0.55977 0.74762 0.93069 0.0
H615 H 0.51527 0.75643 0.93162 0.0
H616 H 0.52966 0.81446 0.89469 0.0
H617 H 0.5743 0.80585 0.89329 0.0
C618 C 0.68607 0.80195 0.9642 0.0
C619 C 0.69053 0.82251 0.95533 0.0
C620 C 0.66942 0.78813 0.95333 0.0
C621 C 0.65674 0.79459 0.93346 0.0
C622 C 0.66064 0.8152 0.92481 0.0
C623 C 0.6775 0.82898 0.93553 0.0
C624 C 0.63961 0.77968 0.92161 0.0
C625 C 0.61436 0.78485 0.92028 0.0
C626 C 0.6479 0.75996 0.91271 0.0
C627 C 0.67448 0.75392 0.91305 0.0
C628 C 0.69249 0.76724 0.903 0.0
C629 C 0.71752 0.76153 0.90356 0.0
C630 C 0.72476 0.74245 0.91396 0.0
C631 C 0.70696 0.72901 0.92378 0.0
C632 C 0.6819 0.73466 0.9233 0.0
C633 C 0.55633 0.7282 0.86175 0.0
C634 C 0.55401 0.70718 0.86996 0.0
C635 C 0.57326 0.74232 0.87179 0.0
C636 C 0.58817 0.73574 0.89027 0.0
C637 C 0.58635 0.71464 0.89814 0.0
C638 C 0.56939 0.70051 0.88815 0.0
C639 C 0.60541 0.75095 0.9016 0.0
C640 C 0.63068 0.74583 0.90287 0.0
C641 C 0.59708 0.77058 0.91074 0.0
C642 C 0.57034 0.77599 0.9117 0.0
C643 C 0.55343 0.76219 0.92262 0.0
C644 C 0.5282 0.76715 0.92326 0.0
C645 C 0.51966 0.78597 0.91319 0.0
C646 C 0.53633 0.79989 0.90248 0.0
C647 C 0.56161 0.79499 0.90178 0.0
H648 H 0.50013 0.78977 0.91379 0.0
H649 H 0.74414 0.73805 0.91436 0.0
H650 H 0.30759 0.16877 0.41797 0.0
H651 H 0.33817 0.19162 0.39896 0.0
H652 H 0.34418 0.22994 0.46033 0.0
H653 H 0.31322 0.20735 0.47924 0.0
H654 H 0.34268 0.25481 0.42418 0.0
H655 H 0.38875 0.19258 0.44533 0.0
H656 H 0.39817 0.15417 0.44729 0.0
H657 H 0.40311 0.15155 0.37369 0.0
H658 H 0.39337 0.1899 0.37127 0.0
H659 H 0.4582 0.305 0.40272 0.0
H660 H 0.42558 0.28209 0.41824 0.0
H661 H 0.41454 0.25403 0.35134 0.0
H662 H 0.4472 0.27702 0.33552 0.0
H663 H 0.4179 0.22408 0.3882 0.0
H664 H 0.37388 0.28802 0.36839 0.0
H665 H 0.36724 0.3269 0.36828 0.0
H666 H 0.36084 0.32656 0.44183 0.0
H667 H 0.36785 0.2877 0.44243 0.0
C668 C 0.31555 0.18201 0.42743 0.0
C669 C 0.30813 0.18624 0.45011 0.0
C670 C 0.33303 0.19504 0.41657 0.0
C671 C 0.34373 0.21234 0.42832 0.0
C672 C 0.33615 0.21671 0.45091 0.0
C673 C 0.31848 0.20381 0.4617 0.0
C674 C 0.36282 0.22591 0.4171 0.0
C675 C 0.35923 0.24808 0.41653 0.0
C676 C 0.38422 0.21713 0.40671 0.0
C677 C 0.39006 0.19406 0.40811 0.0
C678 C 0.39163 0.18377 0.42955 0.0
C679 C 0.39707 0.16202 0.43075 0.0
C680 C 0.40116 0.15041 0.41062 0.0
C681 C 0.39989 0.16055 0.38926 0.0
C682 C 0.39443 0.1823 0.38796 0.0
C683 C 0.44889 0.29395 0.39127 0.0
C684 C 0.45531 0.29281 0.36788 0.0
C685 C 0.4302 0.28093 0.40017 0.0
C686 C 0.41761 0.2665 0.38589 0.0
C687 C 0.42408 0.26512 0.36259 0.0
C688 C 0.44265 0.2783 0.35359 0.0
C689 C 0.39774 0.25284 0.39546 0.0
C690 C 0.40121 0.23071 0.39572 0.0
C691 C 0.37641 0.26166 0.40581 0.0
C692 C 0.3716 0.28496 0.40546 0.0
C693 C 0.37121 0.29625 0.38456 0.0
C694 C 0.36737 0.31828 0.3844 0.0
C695 C 0.36368 0.3292 0.40504 0.0
C696 C 0.36372 0.31808 0.42586 0.0
C697 C 0.3676 0.29604 0.42612 0.0
H698 H 0.36076 0.34627 0.40489 0.0
H699 H 0.40538 0.13357 0.41159 0.0
H700 H 0.27881 0.80107 0.91809 0.0
H701 H 0.30839 0.77929 0.89693 0.0
H702 H 0.36745 0.80162 0.94098 0.0
H703 H 0.33837 0.82455 0.96117 0.0
H704 H 0.38341 0.80061 0.8993 0.0
H705 H 0.33885 0.75124 0.94718 0.0
H706 H 0.30194 0.73313 0.96297 0.0
H707 H 0.28276 0.71041 0.89562 0.0
H708 H 0.31942 0.72863 0.87938 0.0
H709 H 0.46897 0.71471 0.89233 0.0
H710 H 0.43656 0.73909 0.90512 0.0
H711 H 0.39505 0.7267 0.84312 0.0
H712 H 0.42793 0.70257 0.8298 0.0
H713 H 0.3686 0.72306 0.88906 0.0
H714 H 0.41917 0.76968 0.84345 0.0
H715 H 0.45807 0.78672 0.83081 0.0
H716 H 0.46787 0.81418 0.89779 0.0
H717 H 0.42954 0.79661 0.91114 0.0
C718 C 0.29815 0.80162 0.9231 0.0
C719 C 0.30612 0.81457 0.94146 0.0
C720 C 0.31501 0.78891 0.91114 0.0
C721 C 0.34012 0.78853 0.91756 0.0
C722 C 0.34817 0.80156 0.93572 0.0
C723 C 0.3314 0.81449 0.94748 0.0
C724 C 0.3581 0.77456 0.90549 0.0
C725 C 0.38023 0.78362 0.89725 0.0
C726 C 0.35375 0.75245 0.90231 0.0
C727 C 0.3317 0.7415 0.91203 0.0
C728 C 0.32665 0.74252 0.93571 0.0
C729 C 0.3058 0.73222 0.94475 0.0
C730 C 0.28997 0.72069 0.9303 0.0
C731 C 0.29501 0.71939 0.90679 0.0
C732 C 0.31582 0.72969 0.89766 0.0
C733 C 0.45296 0.71717 0.88138 0.0
C734 C 0.45091 0.70673 0.86008 0.0
C735 C 0.43455 0.73115 0.88868 0.0
C736 C 0.41355 0.73469 0.875 0.0
C737 C 0.41122 0.72415 0.85383 0.0
C738 C 0.42997 0.71047 0.84625 0.0
C739 C 0.39392 0.74911 0.88333 0.0
C740 C 0.37155 0.7401 0.89089 0.0
C741 C 0.39829 0.77117 0.88633 0.0
C742 C 0.42157 0.78156 0.87839 0.0
C743 C 0.42981 0.77904 0.85562 0.0
C744 C 0.45178 0.78881 0.84832 0.0
C745 C 0.46554 0.80139 0.86354 0.0
C746 C 0.45731 0.80428 0.88607 0.0
C747 C 0.43549 0.79438 0.89353 0.0
H748 H 0.48251 0.80899 0.85785 0.0
H749 H 0.27384 0.71271 0.93733 0.0
H750 H 0.68635 0.15748 0.4235 0.0
H751 H 0.6578 0.18265 0.40538 0.0
H752 H 0.66937 0.22684 0.46123 0.0
H753 H 0.69767 0.20159 0.47956 0.0
H754 H 0.62194 0.22509 0.4506 0.0
H755 H 0.69747 0.23357 0.40799 0.0
H756 H 0.73326 0.2217 0.38503 0.0
H757 H 0.68406 0.19802 0.33278 0.0
H758 H 0.64795 0.20949 0.35559 0.0
H759 H 0.57082 0.31631 0.39716 0.0
H760 H 0.60072 0.29156 0.4139 0.0
H761 H 0.58388 0.24559 0.36099 0.0
H762 H 0.55401 0.27027 0.34399 0.0
H763 H 0.63395 0.24838 0.36982 0.0
H764 H 0.55847 0.24004 0.41285 0.0
H765 H 0.52294 0.25247 0.43579 0.0
H766 H 0.57267 0.27656 0.48739 0.0
H767 H 0.60854 0.26454 0.46457 0.0
C768 C 0.68287 0.1726 0.43185 0.0
C769 C 0.69431 0.17759 0.45291 0.0
C770 C 0.66658 0.18699 0.42147 0.0
C771 C 0.66172 0.2068 0.43175 0.0
C772 C 0.67284 0.21167 0.45296 0.0
C773 C 0.68896 0.19721 0.46345 0.0
C774 C 0.64495 0.22242 0.42049 0.0
C775 C 0.62479 0.23039 0.43304 0.0
C776 C 0.64832 0.22903 0.3974 0.0
C777 C 0.67 0.22221 0.3836 0.0
C778 C 0.69428 0.22569 0.39168 0.0
C779 C 0.71462 0.21906 0.37868 0.0
C780 C 0.71093 0.20906 0.35749 0.0
C781 C 0.68689 0.20574 0.34922 0.0
C782 C 0.66647 0.21232 0.36216 0.0
C783 C 0.57356 0.301 0.38895 0.0
C784 C 0.55982 0.29521 0.36933 0.0
C785 C 0.59061 0.28685 0.39861 0.0
C786 C 0.59425 0.26663 0.38887 0.0
C787 C 0.58128 0.26109 0.36882 0.0
C788 C 0.56415 0.27521 0.35917 0.0
C789 C 0.61109 0.25105 0.39998 0.0
C790 C 0.63118 0.24307 0.38739 0.0
C791 C 0.60774 0.24449 0.42306 0.0
C792 C 0.58619 0.25157 0.4369 0.0
C793 C 0.56184 0.24813 0.42901 0.0
C794 C 0.54163 0.25508 0.442 0.0
C795 C 0.54555 0.26535 0.46301 0.0
C796 C 0.56967 0.26863 0.4711 0.0
C797 C 0.58994 0.26174 0.45815 0.0
H798 H 0.52988 0.27072 0.47304 0.0
H799 H 0.7267 0.20394 0.34745 0.0
H800 H 0.31986 0.49837 0.96237 0.0
H801 H 0.34151 0.52867 0.94485 0.0
H802 H 0.39306 0.48546 0.91275 0.0
H803 H 0.37179 0.45523 0.93062 0.0
H804 H 0.41744 0.51697 0.93087 0.0
H805 H 0.34568 0.51138 0.88241 0.0
H806 H 0.30105 0.50964 0.87328 0.0
H807 H 0.2906 0.57169 0.90279 0.0
H808 H 0.33514 0.57368 0.91239 0.0
H809 H 0.47051 0.58319 0.84689 0.0
H810 H 0.44405 0.55633 0.86467 0.0
H811 H 0.40842 0.60492 0.90513 0.0
H812 H 0.43513 0.63217 0.8875 0.0
H813 H 0.37545 0.57286 0.88479 0.0
H814 H 0.44951 0.57831 0.93057 0.0
H815 H 0.49473 0.57939 0.93679 0.0
H816 H 0.50131 0.51608 0.90952 0.0
H817 H 0.45615 0.51478 0.90265 0.0
C818 C 0.33564 0.49536 0.95135 0.0
C819 C 0.34415 0.47445 0.94785 0.0
C820 C 0.348 0.51267 0.94134 0.0
C821 C 0.36883 0.50937 0.92731 0.0
C822 C 0.37712 0.48845 0.92358 0.0
C823 C 0.36495 0.47118 0.93378 0.0
C824 C 0.38251 0.52766 0.91702 0.0
C825 C 0.40824 0.52903 0.92059 0.0
C826 C 0.37049 0.54375 0.90406 0.0
C827 C 0.34369 0.54257 0.89835 0.0
C828 C 0.33383 0.52458 0.88713 0.0
C829 C 0.30856 0.52356 0.88184 0.0
C830 C 0.29299 0.54051 0.88752 0.0
C831 C 0.30268 0.55855 0.89845 0.0
C832 C 0.32794 0.55964 0.9038 0.0
C833 C 0.45693 0.58831 0.8594 0.0
C834 C 0.45512 0.60986 0.86593 0.0
C835 C 0.44185 0.57288 0.86957 0.0
C836 C 0.42454 0.57864 0.88637 0.0
C837 C 0.42178 0.60021 0.89223 0.0
C838 C 0.43708 0.61571 0.88218 0.0
C839 C 0.41023 0.56185 0.89842 0.0
C840 C 0.38449 0.56081 0.89521 0.0
C841 C 0.42227 0.5459 0.91147 0.0
C842 C 0.44943 0.54653 0.91588 0.0
C843 C 0.4606 0.56468 0.9257 0.0
C844 C 0.48624 0.56533 0.92936 0.0
C845 C 0.5009 0.54784 0.9235 0.0
C846 C 0.48993 0.52963 0.91401 0.0
C847 C 0.46431 0.52893 0.91023 0.0
H848 H 0.52074 0.54837 0.92635 0.0
H849 H 0.27343 0.5397 0.88339 0.0
H850 H 0.68789 0.50917 0.45485 0.0
H851 H 0.66735 0.47921 0.43569 0.0
H852 H 0.61358 0.52229 0.40653 0.0
H853 H 0.63398 0.55227 0.42571 0.0
H854 H 0.59104 0.48903 0.4243 0.0
H855 H 0.6593 0.49996 0.37345 0.0
H856 H 0.70314 0.50447 0.36242 0.0
H857 H 0.71953 0.44182 0.38798 0.0
H858 H 0.67584 0.43705 0.39946 0.0
H859 H 0.56777 0.40293 0.33249 0.0
H860 H 0.5937 0.43215 0.34676 0.0
H861 H 0.57658 0.41414 0.41653 0.0
H862 H 0.55045 0.38508 0.40252 0.0
H863 H 0.63416 0.43619 0.37519 0.0
H864 H 0.56448 0.45931 0.44657 0.0
H865 H 0.51966 0.45606 0.45443 0.0
H866 H 0.5045 0.45407 0.38199 0.0
H867 H 0.54916 0.4577 0.37369 0.0
C868 C 0.67189 0.51228 0.4441 0.0
C869 C 0.66251 0.53307 0.44183 0.0
C870 C 0.66017 0.49515 0.43316 0.0
C871 C 0.63902 0.49852 0.41955 0.0
C872 C 0.62982 0.5193 0.41702 0.0
C873 C 0.64145 0.53641 0.42803 0.0
C874 C 0.62582 0.4803 0.40875 0.0
C875 C 0.60051 0.47752 0.41355 0.0
C876 C 0.63804 0.46543 0.39441 0.0
C877 C 0.66433 0.46823 0.38751 0.0
C878 C 0.67229 0.48721 0.37689 0.0
C879 C 0.69711 0.4898 0.37053 0.0
C880 C 0.71413 0.47346 0.37455 0.0
C881 C 0.70634 0.45448 0.3849 0.0
C882 C 0.68154 0.45181 0.39132 0.0
C883 C 0.56973 0.40502 0.35088 0.0
C884 C 0.55668 0.39188 0.36636 0.0
C885 C 0.58464 0.42168 0.35899 0.0
C886 C 0.58669 0.4255 0.38266 0.0
C887 C 0.5749 0.41165 0.39816 0.0
C888 C 0.55999 0.39503 0.39011 0.0
C889 C 0.59965 0.44479 0.3912 0.0
C890 C 0.62481 0.44775 0.38597 0.0
C891 C 0.58719 0.46013 0.40473 0.0
C892 C 0.5602 0.45856 0.40954 0.0
C893 C 0.55157 0.45831 0.43232 0.0
C894 C 0.52619 0.45639 0.43685 0.0
C895 C 0.50925 0.45479 0.41872 0.0
C896 C 0.51764 0.45524 0.39602 0.0
C897 C 0.54299 0.45722 0.39139 0.0
H898 H 0.48963 0.45325 0.42227 0.0
H899 H 0.73333 0.4755 0.3696 0.0
H900 H 0.65112 0.48931 0.9834 0.0
H901 H 0.6279 0.51785 0.96473 0.0
H902 H 0.66806 0.50705 0.90176 0.0
H903 H 0.69197 0.47884 0.92056 0.0
H904 H 0.66289 0.54921 0.91026 0.0
H905 H 0.61043 0.48768 0.90861 0.0
H906 H 0.58729 0.45688 0.92405 0.0
H907 H 0.54386 0.4987 0.96618 0.0
H908 H 0.56706 0.52973 0.95133 0.0
H909 H 0.57606 0.60468 0.83821 0.0
H910 H 0.60347 0.5782 0.85575 0.0
H911 H 0.56737 0.58743 0.9211 0.0
H912 H 0.53992 0.61376 0.90381 0.0
H913 H 0.57095 0.54557 0.90973 0.0
H914 H 0.62457 0.60699 0.91214 0.0
H915 H 0.64702 0.63775 0.89577 0.0
H916 H 0.68735 0.59595 0.85104 0.0
H917 H 0.66486 0.56494 0.86693 0.0
C918 C 0.6553 0.49321 0.96568 0.0
C919 C 0.67336 0.48176 0.95344 0.0
C920 C 0.64183 0.50938 0.95497 0.0
C921 C 0.646 0.51435 0.93177 0.0
C922 C 0.66446 0.50338 0.91965 0.0
C923 C 0.67796 0.48717 0.93036 0.0
C924 C 0.6308 0.53079 0.92011 0.0
C925 C 0.64279 0.54828 0.90987 0.0
C926 C 0.60456 0.52971 0.91992 0.0
C927 C 0.59074 0.51102 0.92907 0.0
C928 C 0.59615 0.4903 0.92137 0.0
C929 C 0.58298 0.4728 0.92998 0.0
C930 C 0.56419 0.47582 0.94615 0.0
C931 C 0.55848 0.49637 0.95371 0.0
C932 C 0.57164 0.51392 0.9452 0.0
C933 C 0.5741 0.6012 0.85635 0.0
C934 C 0.55576 0.6113 0.86959 0.0
C935 C 0.58983 0.58613 0.86636 0.0
C936 C 0.58748 0.58093 0.88973 0.0
C937 C 0.56946 0.59122 0.90303 0.0
C938 C 0.55385 0.60633 0.89311 0.0
C939 C 0.60301 0.56411 0.90023 0.0
C940 C 0.59105 0.54648 0.91015 0.0
C941 C 0.62922 0.56505 0.90006 0.0
C942 C 0.64284 0.58366 0.89056 0.0
C943 C 0.63807 0.60437 0.89868 0.0
C944 C 0.65084 0.62185 0.88951 0.0
C945 C 0.66855 0.61881 0.87233 0.0
C946 C 0.67359 0.59828 0.86433 0.0
C947 C 0.66086 0.58074 0.87342 0.0
H948 H 0.67842 0.63237 0.86525 0.0
H949 H 0.55399 0.46225 0.95276 0.0
H950 H 0.3088 0.49085 0.46692 0.0
H951 H 0.3291 0.45989 0.4494 0.0
H952 H 0.37461 0.50197 0.40851 0.0
H953 H 0.35435 0.53287 0.42581 0.0
H954 H 0.35665 0.46697 0.38378 0.0
H955 H 0.39722 0.48198 0.4568 0.0
H956 H 0.3981 0.48687 0.49885 0.0
H957 H 0.36972 0.4234 0.50831 0.0
H958 H 0.36836 0.41825 0.46626 0.0
H959 H 0.4657 0.4149 0.35365 0.0
H960 H 0.43387 0.43804 0.36936 0.0
H961 H 0.40439 0.38555 0.40892 0.0
H962 H 0.43674 0.36218 0.39352 0.0
H963 H 0.40766 0.42093 0.43451 0.0
H964 H 0.37347 0.40358 0.36183 0.0
H965 H 0.37315 0.39819 0.31986 0.0
H966 H 0.38829 0.46475 0.3094 0.0
H967 H 0.38915 0.47049 0.35132 0.0
C968 C 0.32288 0.49344 0.45394 0.0
C969 C 0.33015 0.51424 0.44782 0.0
C970 C 0.33452 0.47578 0.44405 0.0
C971 C 0.35347 0.47867 0.4278 0.0
C972 C 0.36003 0.4994 0.42102 0.0
C973 C 0.34859 0.51702 0.43103 0.0
C974 C 0.36754 0.46029 0.41864 0.0
C975 C 0.36785 0.4569 0.39482 0.0
C976 C 0.38149 0.44675 0.43317 0.0
C977 C 0.38239 0.44983 0.45841 0.0
C978 C 0.39097 0.46914 0.46785 0.0
C979 C 0.39159 0.47195 0.49168 0.0
C980 C 0.38389 0.45549 0.50624 0.0
C981 C 0.37562 0.43616 0.49701 0.0
C982 C 0.37493 0.43328 0.47318 0.0
C983 C 0.45241 0.40816 0.36559 0.0
C984 C 0.45375 0.38665 0.37228 0.0
C985 C 0.43411 0.42143 0.37449 0.0
C986 C 0.41646 0.41345 0.39001 0.0
C987 C 0.41776 0.39201 0.39687 0.0
C988 C 0.43624 0.37869 0.38806 0.0
C989 C 0.39734 0.42793 0.39952 0.0
C990 C 0.39606 0.43063 0.42343 0.0
C991 C 0.38236 0.44073 0.38506 0.0
C992 C 0.3815 0.43744 0.35977 0.0
C993 C 0.37688 0.41705 0.3506 0.0
C994 C 0.37659 0.41393 0.3268 0.0
C995 C 0.38072 0.43111 0.31198 0.0
C996 C 0.38509 0.45146 0.32091 0.0
C997 C 0.38545 0.45466 0.34469 0.0
H998 H 0.38051 0.42865 0.29356 0.0
H999 H 0.38439 0.45769 0.52469 0.0
H1000 H 0.81473 0.97779 0.91919 0.0
H1001 H 0.83588 0.00788 0.90041 0.0
H1002 H 0.86265 0.02958 0.96628 0.0
H1003 H 0.84191 0.99937 0.98504 0.0
H1004 H 0.84472 0.06313 0.93465 0.0
H1005 H 0.90013 0.00219 0.93853 0.0
H1006 H 0.91124 0.96462 0.9317 0.0
H1007 H 0.90068 0.97334 0.85913 0.0
H1008 H 0.88911 0.01091 0.86559 0.0
H1009 H 0.94872 0.12789 0.90656 0.0
H1010 H 0.9183 0.10283 0.92224 0.0
H1011 H 0.91221 0.07233 0.85595 0.0
H1012 H 0.94343 0.09672 0.84054 0.0
H1013 H 0.91671 0.04351 0.88613 0.0
H1014 H 0.86482 0.10468 0.88035 0.0
H1015 H 0.85243 0.14214 0.88582 0.0
H1016 H 0.85397 0.13363 0.95905 0.0
H1017 H 0.86672 0.09619 0.95403 0.0
C1018 C 0.82479 0.98922 0.92964 0.0
C1019 C 0.82687 0.98628 0.95349 0.0
C1020 C 0.83685 0.00632 0.91893 0.0
C1021 C 0.85084 0.02086 0.932 0.0
C1022 C 0.85187 0.01855 0.95595 0.0
C1023 C 0.84018 0.00127 0.9666 0.0
C1024 C 0.86614 0.03738 0.92061 0.0
C1025 C 0.86056 0.05895 0.92412 0.0
C1026 C 0.88637 0.03179 0.90647 0.0
C1027 C 0.89346 0.00926 0.90257 0.0
C1028 C 0.89995 0.99604 0.92114 0.0
C1029 C 0.90637 0.97476 0.91733 0.0
C1030 C 0.90659 0.96658 0.895 0.0
C1031 C 0.90045 0.97968 0.87642 0.0
C1032 C 0.89397 0.00097 0.88015 0.0
C1033 C 0.94067 0.11599 0.89529 0.0
C1034 C 0.94853 0.11418 0.87236 0.0
C1035 C 0.92316 0.10173 0.90423 0.0
C1036 C 0.91269 0.08576 0.89024 0.0
C1037 C 0.92004 0.08442 0.86714 0.0
C1038 C 0.93786 0.09838 0.85833 0.0
C1039 C 0.89542 0.06957 0.89999 0.0
C1040 C 0.9007 0.04792 0.89633 0.0
C1041 C 0.87471 0.07516 0.9137 0.0
C1042 C 0.86694 0.09766 0.91681 0.0
C1043 C 0.86269 0.11083 0.89763 0.0
C1044 C 0.85558 0.13206 0.90065 0.0
C1045 C 0.85247 0.14028 0.92277 0.0
C1046 C 0.85641 0.12726 0.94192 0.0
C1047 C 0.86355 0.10602 0.939 0.0
H1048 H 0.84696 0.15672 0.92507 0.0
H1049 H 0.91158 0.9501 0.89208 0.0
H1050 H 0.14807 0.01549 0.47379 0.0
H1051 H 0.13035 0.98449 0.4543 0.0
H1052 H 0.17372 0.99877 0.39393 0.0
H1053 H 0.19134 0.03011 0.41332 0.0
H1054 H 0.12457 0.99126 0.384 0.0
H1055 H 0.18902 0.95666 0.42585 0.0
H1056 H 0.21429 0.94779 0.45986 0.0
H1057 H 0.15 0.92205 0.49355 0.0
H1058 H 0.12426 0.93105 0.45987 0.0
H1059 H 0.07614 0.89712 0.33197 0.0
H1060 H 0.1061 0.92317 0.3467 0.0
H1061 H 0.07586 0.91567 0.41488 0.0
H1062 H 0.04644 0.88931 0.40049 0.0
H1063 H 0.12453 0.91834 0.41713 0.0
H1064 H 0.05937 0.9577 0.37881 0.0
H1065 H 0.03282 0.96743 0.34591 0.0
H1066 H 0.09724 0.98497 0.3068 0.0
H1067 H 0.1242 0.97507 0.33941 0.0
C1068 C 0.15386 0.01201 0.45637 0.0
C1069 C 0.171 0.02525 0.44503 0.0
C1070 C 0.14391 0.99419 0.44534 0.0
C1071 C 0.15091 0.98923 0.42275 0.0
C1072 C 0.16819 0.00229 0.41141 0.0
C1073 C 0.17831 0.02008 0.42252 0.0
C1074 C 0.13903 0.97103 0.41074 0.0
C1075 C 0.125 0.9752 0.39093 0.0
C1076 C 0.13923 0.9502 0.42008 0.0
C1077 C 0.15467 0.94466 0.44036 0.0
C1078 C 0.18023 0.94924 0.44057 0.0
C1079 C 0.19464 0.94417 0.45979 0.0
C1080 C 0.18375 0.93439 0.47887 0.0
C1081 C 0.15842 0.92963 0.47876 0.0
C1082 C 0.14391 0.93468 0.45959 0.0
C1083 C 0.07598 0.90094 0.35013 0.0
C1084 C 0.05874 0.89128 0.36502 0.0
C1085 C 0.09307 0.91587 0.35851 0.0
C1086 C 0.09299 0.92161 0.38184 0.0
C1087 C 0.07629 0.9115 0.39681 0.0
C1088 C 0.05939 0.89647 0.38852 0.0
C1089 C 0.10955 0.93868 0.39073 0.0
C1090 C 0.12446 0.93431 0.40995 0.0
C1091 C 0.10999 0.95938 0.38098 0.0
C1092 C 0.0938 0.96541 0.36143 0.0
C1093 C 0.06787 0.96348 0.36313 0.0
C1094 C 0.05275 0.96905 0.34455 0.0
C1095 C 0.06334 0.97675 0.32425 0.0
C1096 C 0.08907 0.97896 0.32252 0.0
C1097 C 0.10427 0.97338 0.34104 0.0
H1098 H 0.0516 0.98105 0.30988 0.0
H1099 H 0.19494 0.93048 0.49373 0.0
H1100 H 0.18321 0.96996 0.91328 0.0
H1101 H 0.16001 0.99892 0.89524 0.0
H1102 H 0.12748 0.01467 0.96074 0.0
H1103 H 0.14969 0.9852 0.97868 0.0
H1104 H 0.09309 0.01357 0.92858 0.0
H1105 H 0.17396 0.04538 0.93602 0.0
H1106 H 0.21928 0.04781 0.93094 0.0
H1107 H 0.21009 0.04683 0.85762 0.0
H1108 H 0.16471 0.0441 0.86227 0.0
H1109 H 0.04314 0.11422 0.90476 0.0
H1110 H 0.07041 0.08656 0.91967 0.0
H1111 H 0.0924 0.07034 0.85065 0.0
H1112 H 0.06508 0.09815 0.83541 0.0
H1113 H 0.13217 0.07103 0.88227 0.0
H1114 H 0.05096 0.04029 0.87525 0.0
H1115 H 0.00565 0.03878 0.88075 0.0
H1116 H 0.01571 0.03826 0.95398 0.0
H1117 H 0.0611 0.04011 0.94892 0.0
C1118 C 0.17104 0.97953 0.92384 0.0
C1119 C 0.16833 0.97524 0.94745 0.0
C1120 C 0.15798 0.99623 0.91353 0.0
C1121 C 0.14217 0.00911 0.92668 0.0
C1122 C 0.13962 0.00498 0.95027 0.0
C1123 C 0.15254 0.98824 0.96055 0.0
C1124 C 0.12755 0.02641 0.9158 0.0
C1125 C 0.10171 0.02626 0.9187 0.0
C1126 C 0.13868 0.04265 0.90234 0.0
C1127 C 0.16596 0.0443 0.8995 0.0
C1128 C 0.18162 0.0455 0.91882 0.0
C1129 C 0.20731 0.04697 0.91601 0.0
C1130 C 0.21756 0.04741 0.89397 0.0
C1131 C 0.20213 0.04645 0.87468 0.0
C1132 C 0.17642 0.04496 0.87739 0.0
C1133 C 0.05387 0.10492 0.89268 0.0
C1134 C 0.05169 0.10826 0.86884 0.0
C1135 C 0.06943 0.08908 0.90126 0.0
C1136 C 0.08312 0.07624 0.88623 0.0
C1137 C 0.08187 0.08006 0.8625 0.0
C1138 C 0.0662 0.0959 0.85384 0.0
C1139 C 0.09789 0.05829 0.89543 0.0
C1140 C 0.12365 0.05827 0.89212 0.0
C1141 C 0.08672 0.0419 0.90859 0.0
C1142 C 0.05943 0.04053 0.9117 0.0
C1143 C 0.04351 0.04001 0.89253 0.0
C1144 C 0.01781 0.03907 0.89557 0.0
C1145 C 0.00781 0.03847 0.9177 0.0
C1146 C 0.02349 0.03875 0.93684 0.0
C1147 C 0.0492 0.03972 0.9339 0.0
H1148 H 0.98791 0.03776 0.92002 0.0
H1149 H 0.23746 0.04855 0.89184 0.0
H1150 H 0.86198 0.03617 0.42621 0.0
H1151 H 0.88142 0.00523 0.40835 0.0
H1152 H 0.83067 0.96351 0.44407 0.0
H1153 H 0.81128 0.99454 0.46233 0.0
H1154 H 0.87937 0.95049 0.4477 0.0
H1155 H 0.82361 0.97028 0.38769 0.0
H1156 H 0.80298 0.99478 0.36063 0.0
H1157 H 0.873 0.00905 0.329 0.0
H1158 H 0.89412 0.98487 0.35608 0.0
H1159 H 0.93531 0.86353 0.38747 0.0
H1160 H 0.90387 0.8878 0.40282 0.0
H1161 H 0.93877 0.94042 0.36742 0.0
H1162 H 0.9695 0.91633 0.3515 0.0
H1163 H 0.8911 0.94386 0.36346 0.0
H1164 H 0.94743 0.92942 0.4267 0.0
H1165 H 0.96935 0.90631 0.45434 0.0
H1166 H 0.89964 0.88332 0.48019 0.0
H1167 H 0.87732 0.90613 0.4525 0.0
C1168 C 0.85493 0.02042 0.43024 0.0
C1169 C 0.83516 0.01777 0.44571 0.0
C1170 C 0.86591 0.00276 0.41988 0.0
C1171 C 0.85734 0.98208 0.42473 0.0
C1172 C 0.83747 0.97935 0.44003 0.0
C1173 C 0.82634 0.99706 0.45031 0.0
C1174 C 0.87002 0.96342 0.41451 0.0
C1175 C 0.88151 0.94874 0.42926 0.0
C1176 C 0.87312 0.96138 0.39048 0.0
C1177 C 0.86046 0.97583 0.37402 0.0
C1178 C 0.83464 0.97874 0.37507 0.0
C1179 C 0.82285 0.99256 0.35971 0.0
C1180 C 0.83668 0.00349 0.34313 0.0
C1181 C 0.86232 0.00058 0.34185 0.0
C1182 C 0.8742 0.98679 0.35718 0.0
C1183 C 0.93619 0.88027 0.38293 0.0
C1184 C 0.95498 0.88801 0.36835 0.0
C1185 C 0.91826 0.89413 0.39176 0.0
C1186 C 0.9191 0.91602 0.38651 0.0
C1187 C 0.93764 0.92362 0.37168 0.0
C1188 C 0.95529 0.9098 0.36264 0.0
C1189 C 0.90119 0.93131 0.39666 0.0
C1190 C 0.88864 0.94535 0.38189 0.0
C1191 C 0.89732 0.93289 0.42068 0.0
C1192 C 0.91073 0.91927 0.43736 0.0
C1193 C 0.9368 0.91932 0.43818 0.0
C1194 C 0.94929 0.9063 0.45386 0.0
C1195 C 0.9359 0.8933 0.46896 0.0
C1196 C 0.90999 0.89336 0.46845 0.0
C1197 C 0.89741 0.90633 0.45278 0.0
H1198 H 0.9456 0.88323 0.48109 0.0
H1199 H 0.82752 0.01418 0.33126 0.0
H1200 H 0.30978 0.38556 0.1404 0.0
H1201 H 0.32926 0.37936 0.17793 0.0
H1202 H 0.37956 0.3345 0.14691 0.0
H1203 H 0.36001 0.34042 0.10949 0.0
H1204 H 0.36197 0.32085 0.18949 0.0
H1205 H 0.3977 0.3846 0.15511 0.0
H1206 H 0.39573 0.42067 0.13831 0.0
H1207 H 0.36271 0.44444 0.20029 0.0
H1208 H 0.36417 0.40841 0.21734 0.0
H1209 H 0.46716 0.31767 0.26132 0.0
H1210 H 0.43633 0.32051 0.23078 0.0
H1211 H 0.40025 0.3715 0.26748 0.0
H1212 H 0.43163 0.36924 0.29775 0.0
H1213 H 0.40526 0.38246 0.22516 0.0
H1214 H 0.37385 0.3203 0.26183 0.0
H1215 H 0.37515 0.28449 0.27929 0.0
H1216 H 0.39805 0.25775 0.21483 0.0
H1217 H 0.39725 0.29346 0.19705 0.0
C1218 C 0.32472 0.37413 0.14169 0.0
C1219 C 0.33354 0.36361 0.122 0.0
C1220 C 0.3359 0.37068 0.16308 0.0
C1221 C 0.356 0.35662 0.16512 0.0
C1222 C 0.3641 0.34543 0.14569 0.0
C1223 C 0.35306 0.34896 0.12431 0.0
C1224 C 0.36969 0.35447 0.1871 0.0
C1225 C 0.37155 0.33426 0.1973 0.0
C1226 C 0.38151 0.37212 0.1976 0.0
C1227 C 0.38077 0.39378 0.18739 0.0
C1228 C 0.38983 0.39748 0.16508 0.0
C1229 C 0.38884 0.41792 0.15552 0.0
C1230 C 0.37903 0.43482 0.16819 0.0
C1231 C 0.37025 0.43133 0.19048 0.0
C1232 C 0.37117 0.41091 0.2001 0.0
C1233 C 0.4525 0.32933 0.26304 0.0
C1234 C 0.45191 0.34329 0.28191 0.0
C1235 C 0.43476 0.33085 0.24561 0.0
C1236 C 0.41572 0.34605 0.24691 0.0
C1237 C 0.41474 0.35965 0.26606 0.0
C1238 C 0.43268 0.35833 0.28336 0.0
C1239 C 0.39797 0.34869 0.22755 0.0
C1240 C 0.39537 0.36903 0.21773 0.0
C1241 C 0.38528 0.33116 0.21756 0.0
C1242 C 0.38565 0.30961 0.22814 0.0
C1243 C 0.37933 0.30682 0.25141 0.0
C1244 C 0.37995 0.28653 0.26136 0.0
C1245 C 0.38672 0.26887 0.24819 0.0
C1246 C 0.39282 0.27145 0.22501 0.0
C1247 C 0.39225 0.29171 0.21498 0.0
H1248 H 0.3872 0.25317 0.25592 0.0
H1249 H 0.37828 0.45064 0.16077 0.0
H1250 H 0.65042 0.67375 0.60572 0.0
H1251 H 0.63196 0.67865 0.64391 0.0
H1252 H 0.67001 0.62266 0.66834 0.0
H1253 H 0.68888 0.61792 0.63032 0.0
H1254 H 0.61598 0.62452 0.67596 0.0
H1255 H 0.69093 0.66545 0.68719 0.0
H1256 H 0.72153 0.69328 0.67733 0.0
H1257 H 0.66524 0.74125 0.68283 0.0
H1258 H 0.63419 0.71364 0.69239 0.0
H1259 H 0.57479 0.62958 0.78888 0.0
H1260 H 0.60488 0.62822 0.75747 0.0
H1261 H 0.5844 0.692 0.73712 0.0
H1262 H 0.55537 0.69383 0.76943 0.0
H1263 H 0.63148 0.68598 0.72782 0.0
H1264 H 0.55641 0.64701 0.71603 0.0
H1265 H 0.52471 0.6206 0.72697 0.0
H1266 H 0.5776 0.57014 0.71901 0.0
H1267 H 0.61015 0.59644 0.70952 0.0
C1268 C 0.65497 0.66262 0.61933 0.0
C1269 C 0.67105 0.64548 0.61518 0.0
C1270 C 0.64453 0.66547 0.64108 0.0
C1271 C 0.64973 0.65104 0.65887 0.0
C1272 C 0.66589 0.63398 0.6548 0.0
C1273 C 0.6767 0.63135 0.63318 0.0
C1274 C 0.63729 0.65315 0.68138 0.0
C1275 C 0.61962 0.63774 0.68752 0.0
C1276 C 0.64154 0.67082 0.69595 0.0
C1277 C 0.66019 0.68744 0.69028 0.0
C1278 C 0.68502 0.6819 0.68608 0.0
C1279 C 0.70246 0.69764 0.68059 0.0
C1280 C 0.69532 0.71901 0.67939 0.0
C1281 C 0.67073 0.72469 0.68374 0.0
C1282 C 0.65321 0.709 0.68921 0.0
C1283 C 0.57717 0.64346 0.77797 0.0
C1284 C 0.56263 0.6617 0.78128 0.0
C1285 C 0.5943 0.64267 0.76004 0.0
C1286 C 0.59636 0.65977 0.74451 0.0
C1287 C 0.58303 0.67856 0.74877 0.0
C1288 C 0.5664 0.67958 0.76716 0.0
C1289 C 0.61023 0.65721 0.72264 0.0
C1290 C 0.62796 0.67262 0.71644 0.0
C1291 C 0.60567 0.63972 0.70772 0.0
C1292 C 0.58584 0.62376 0.71233 0.0
C1293 C 0.56137 0.63031 0.71679 0.0
C1294 C 0.54326 0.61535 0.72283 0.0
C1295 C 0.54907 0.59368 0.72355 0.0
C1296 C 0.57311 0.58694 0.71844 0.0
C1297 C 0.59147 0.60189 0.71291 0.0
H1298 H 0.53495 0.58211 0.72808 0.0
H1299 H 0.70885 0.73118 0.67515 0.0
H1300 H 0.69497 0.33616 0.12685 0.0
H1301 H 0.6738 0.32873 0.16324 0.0
H1302 H 0.63671 0.38944 0.15894 0.0
H1303 H 0.65754 0.39688 0.12263 0.0
H1304 H 0.65365 0.38192 0.20198 0.0
H1305 H 0.60751 0.34344 0.14354 0.0
H1306 H 0.60269 0.31742 0.11206 0.0
H1307 H 0.62744 0.2672 0.15665 0.0
H1308 H 0.63271 0.293 0.18832 0.0
H1309 H 0.54604 0.37492 0.26802 0.0
H1310 H 0.57675 0.37731 0.23756 0.0
H1311 H 0.60314 0.31436 0.25448 0.0
H1312 H 0.57197 0.31164 0.28503 0.0
H1313 H 0.59735 0.31944 0.20849 0.0
H1314 H 0.63748 0.35755 0.26872 0.0
H1315 H 0.64088 0.38373 0.30017 0.0
H1316 H 0.62719 0.43474 0.25261 0.0
H1317 H 0.6233 0.40885 0.22091 0.0
C1318 C 0.68224 0.34789 0.13364 0.0
C1319 C 0.67793 0.36711 0.12182 0.0
C1320 C 0.67023 0.34365 0.15445 0.0
C1321 C 0.65357 0.35849 0.16372 0.0
C1322 C 0.6496 0.37782 0.15218 0.0
C1323 C 0.66159 0.38207 0.13143 0.0
C1324 C 0.6396 0.35382 0.18509 0.0
C1325 C 0.64127 0.36831 0.2034 0.0
C1326 C 0.62405 0.33569 0.18719 0.0
C1327 C 0.62079 0.32018 0.16819 0.0
C1328 C 0.61211 0.32688 0.14657 0.0
C1329 C 0.60926 0.31217 0.12871 0.0
C1330 C 0.61483 0.29068 0.13233 0.0
C1331 C 0.62319 0.28385 0.15385 0.0
C1332 C 0.6261 0.29851 0.17176 0.0
C1333 C 0.55837 0.36155 0.2654 0.0
C1334 C 0.55651 0.34307 0.279 0.0
C1335 C 0.57605 0.36301 0.24802 0.0
C1336 C 0.59248 0.34614 0.24397 0.0
C1337 C 0.5907 0.3276 0.25741 0.0
C1338 C 0.57292 0.3261 0.27487 0.0
C1339 C 0.61089 0.34787 0.22514 0.0
C1340 C 0.61008 0.33283 0.20731 0.0
C1341 C 0.62724 0.36552 0.22347 0.0
C1342 C 0.62997 0.38121 0.24243 0.0
C1343 C 0.63505 0.37434 0.26497 0.0
C1344 C 0.63708 0.38913 0.28285 0.0
C1345 C 0.63422 0.41088 0.2784 0.0
C1346 C 0.6294 0.41788 0.25603 0.0
C1347 C 0.62732 0.40316 0.23809 0.0
H1348 H 0.63577 0.4223 0.29227 0.0
H1349 H 0.61261 0.27932 0.11848 0.0
H1350 H 0.31597 0.61735 0.63301 0.0
H1351 H 0.33921 0.62326 0.66862 0.0
H1352 H 0.39072 0.66373 0.63211 0.0
H1353 H 0.36773 0.65765 0.59646 0.0
H1354 H 0.41483 0.63545 0.65621 0.0
H1355 H 0.34842 0.68368 0.6717 0.0
H1356 H 0.30493 0.69499 0.67599 0.0
H1357 H 0.29439 0.64897 0.72982 0.0
H1358 H 0.33774 0.63717 0.72563 0.0
H1359 H 0.47846 0.67877 0.75292 0.0
H1360 H 0.4514 0.67516 0.71935 0.0
H1361 H 0.41077 0.62491 0.75332 0.0
H1362 H 0.43812 0.62812 0.78691 0.0
H1363 H 0.38061 0.65788 0.73146 0.0
H1364 H 0.44633 0.60866 0.71407 0.0
H1365 H 0.48896 0.59588 0.70765 0.0
H1366 H 0.50039 0.64461 0.65683 0.0
H1367 H 0.45778 0.65766 0.66293 0.0
C1368 C 0.33199 0.62782 0.63269 0.0
C1369 C 0.34012 0.63696 0.61194 0.0
C1370 C 0.34524 0.63121 0.65306 0.0
C1371 C 0.36667 0.64403 0.6531 0.0
C1372 C 0.37432 0.65371 0.6325 0.0
C1373 C 0.3612 0.6502 0.61214 0.0
C1374 C 0.3822 0.64611 0.6741 0.0
C1375 C 0.40738 0.64074 0.67254 0.0
C1376 C 0.37236 0.65235 0.69563 0.0
C1377 C 0.34627 0.65939 0.69818 0.0
C1378 C 0.33677 0.67584 0.68431 0.0
C1379 C 0.31215 0.68237 0.68676 0.0
C1380 C 0.29688 0.67267 0.70312 0.0
C1381 C 0.30623 0.65645 0.71712 0.0
C1382 C 0.33083 0.64985 0.71474 0.0
C1383 C 0.4637 0.66701 0.75332 0.0
C1384 C 0.46041 0.65372 0.77257 0.0
C1385 C 0.44835 0.66491 0.73408 0.0
C1386 C 0.42919 0.64972 0.73386 0.0
C1387 C 0.42549 0.63672 0.7532 0.0
C1388 C 0.44115 0.63854 0.77231 0.0
C1389 C 0.41314 0.64745 0.71333 0.0
C1390 C 0.38794 0.65273 0.71503 0.0
C1391 C 0.42293 0.64125 0.69185 0.0
C1392 C 0.44899 0.63427 0.68914 0.0
C1393 C 0.45805 0.61683 0.70175 0.0
C1394 C 0.48214 0.60944 0.69805 0.0
C1395 C 0.49737 0.61943 0.68183 0.0
C1396 C 0.48857 0.63689 0.66937 0.0
C1397 C 0.46444 0.64425 0.6729 0.0
H1398 H 0.51596 0.61361 0.67887 0.0
H1399 H 0.27783 0.67775 0.70499 0.0
H1400 H 0.86287 0.89261 0.11544 0.0
H1401 H 0.88479 0.88453 0.15106 0.0
H1402 H 0.83431 0.83251 0.16433 0.0
H1403 H 0.81255 0.84008 0.1282 0.0
H1404 H 0.84541 0.85819 0.20379 0.0
H1405 H 0.88717 0.8196 0.14441 0.0
H1406 H 0.90742 0.81511 0.10676 0.0
H1407 H 0.9631 0.861 0.12565 0.0
H1408 H 0.94295 0.86602 0.1633 0.0
H1409 H 0.96376 0.81166 0.26516 0.0
H1410 H 0.93401 0.8129 0.23351 0.0
H1411 H 0.91192 0.87608 0.25417 0.0
H1412 H 0.9414 0.87491 0.28605 0.0
H1413 H 0.93454 0.83947 0.19796 0.0
H1414 H 0.85154 0.88425 0.23881 0.0
H1415 H 0.83089 0.88725 0.27647 0.0
H1416 H 0.85681 0.82492 0.29509 0.0
H1417 H 0.87731 0.82141 0.25744 0.0
C1418 C 0.85648 0.87933 0.12578 0.0
C1419 C 0.83615 0.86679 0.11874 0.0
C1420 C 0.86894 0.87484 0.14623 0.0
C1421 C 0.8613 0.85781 0.16016 0.0
C1422 C 0.84045 0.84574 0.15376 0.0
C1423 C 0.82803 0.85013 0.13315 0.0
C1424 C 0.8759 0.85221 0.18086 0.0
C1425 C 0.86487 0.85401 0.20259 0.0
C1426 C 0.90114 0.84639 0.17917 0.0
C1427 C 0.91343 0.84331 0.15661 0.0
C1428 C 0.90362 0.82886 0.14047 0.0
C1429 C 0.9151 0.8262 0.11914 0.0
C1430 C 0.93651 0.8378 0.1138 0.0
C1431 C 0.94651 0.85204 0.1298 0.0
C1432 C 0.93508 0.85479 0.15115 0.0
C1433 C 0.9524 0.82575 0.26316 0.0
C1434 C 0.95511 0.84325 0.27808 0.0
C1435 C 0.93542 0.82643 0.24502 0.0
C1436 C 0.92067 0.84453 0.24152 0.0
C1437 C 0.92286 0.86182 0.25672 0.0
C1438 C 0.93985 0.86117 0.27488 0.0
C1439 C 0.90429 0.84594 0.22107 0.0
C1440 C 0.91503 0.84344 0.19929 0.0
C1441 C 0.87875 0.85086 0.22278 0.0
C1442 C 0.86613 0.85266 0.24535 0.0
C1443 C 0.85272 0.87114 0.25089 0.0
C1444 C 0.84106 0.87294 0.27225 0.0
C1445 C 0.84259 0.85631 0.28819 0.0
C1446 C 0.85571 0.83782 0.28277 0.0
C1447 C 0.86738 0.83593 0.26143 0.0
H1448 H 0.83357 0.85774 0.30472 0.0
H1449 H 0.94537 0.83571 0.09728 0.0
H1450 H 0.17868 0.17364 0.61896 0.0
H1451 H 0.15765 0.18039 0.65557 0.0
H1452 H 0.11481 0.1227 0.64686 0.0
H1453 H 0.13562 0.11593 0.61042 0.0
H1454 H 0.08578 0.15471 0.65966 0.0
H1455 H 0.16442 0.1256 0.68402 0.0
H1456 H 0.21004 0.12408 0.68643 0.0
H1457 H 0.21173 0.18654 0.71659 0.0
H1458 H 0.1661 0.18855 0.71407 0.0
H1459 H 0.0415 0.12744 0.76793 0.0
H1460 H 0.06688 0.1282 0.73342 0.0
H1461 H 0.09321 0.19112 0.75094 0.0
H1462 H 0.06757 0.19064 0.7858 0.0
H1463 H 0.13067 0.16242 0.73374 0.0
H1464 H 0.05067 0.18887 0.71364 0.0
H1465 H 0.00498 0.18879 0.71239 0.0
H1466 H 0.00557 0.13019 0.6743 0.0
H1467 H 0.0513 0.1296 0.67583 0.0
C1468 C 0.16492 0.16233 0.62498 0.0
C1469 C 0.15872 0.1443 0.61176 0.0
C1470 C 0.1529 0.16622 0.64587 0.0
C1471 C 0.1347 0.15201 0.65398 0.0
C1472 C 0.12865 0.13396 0.64086 0.0
C1473 C 0.14053 0.13013 0.62001 0.0
C1474 C 0.12164 0.15583 0.67602 0.0
C1475 C 0.09561 0.15626 0.67586 0.0
C1476 C 0.13448 0.15853 0.69709 0.0
C1477 C 0.16189 0.15734 0.69859 0.0
C1478 C 0.17454 0.13909 0.69098 0.0
C1479 C 0.20039 0.13812 0.6924 0.0
C1480 C 0.21379 0.15523 0.70159 0.0
C1481 C 0.20134 0.17332 0.70943 0.0
C1482 C 0.17549 0.17438 0.70802 0.0
C1483 C 0.0528 0.14142 0.76467 0.0
C1484 C 0.05223 0.15911 0.77953 0.0
C1485 C 0.06728 0.14181 0.74488 0.0
C1486 C 0.08155 0.15984 0.7395 0.0
C1487 C 0.08214 0.17712 0.7548 0.0
C1488 C 0.06747 0.17682 0.77465 0.0
C1489 C 0.09492 0.16067 0.71734 0.0
C1490 C 0.12091 0.16117 0.71747 0.0
C1491 C 0.08205 0.15871 0.69622 0.0
C1492 C 0.05449 0.15911 0.69503 0.0
C1493 C 0.04109 0.17585 0.70518 0.0
C1494 C 0.01517 0.17593 0.70442 0.0
C1495 C 0.00239 0.15947 0.69332 0.0
C1496 C 0.01551 0.14291 0.68293 0.0
C1497 C 0.04144 0.14269 0.68375 0.0
H1498 H 0.98234 0.15959 0.69273 0.0
H1499 H 0.2338 0.15445 0.70269 0.0
H1500 H 0.15667 0.89132 0.11765 0.0
H1501 H 0.13722 0.88471 0.15477 0.0
H1502 H 0.17226 0.82308 0.15832 0.0
H1503 H 0.19217 0.8297 0.12112 0.0
H1504 H 0.12317 0.82102 0.16938 0.0
H1505 H 0.19301 0.86279 0.19223 0.0
H1506 H 0.22217 0.89313 0.19093 0.0
H1507 H 0.16286 0.93628 0.20641 0.0
H1508 H 0.13326 0.90623 0.20747 0.0
H1509 H 0.07295 0.81015 0.28294 0.0
H1510 H 0.10328 0.81161 0.2516 0.0
H1511 H 0.08014 0.87568 0.23548 0.0
H1512 H 0.05031 0.87455 0.26677 0.0
H1513 H 0.12929 0.87266 0.23373 0.0
H1514 H 0.05901 0.83221 0.20492 0.0
H1515 H 0.02895 0.80247 0.20526 0.0
H1516 H 0.08855 0.75747 0.20042 0.0
H1517 H 0.11899 0.78697 0.20035 0.0
C1518 C 0.16063 0.87649 0.12646 0.0
C1519 C 0.17616 0.86111 0.11646 0.0
C1520 C 0.14943 0.87272 0.14768 0.0
C1521 C 0.15356 0.85352 0.15947 0.0
C1522 C 0.16889 0.83803 0.14953 0.0
C1523 C 0.18017 0.84181 0.12825 0.0
C1524 C 0.14107 0.84955 0.18178 0.0
C1525 C 0.12491 0.83204 0.18366 0.0
C1526 C 0.14309 0.86411 0.20027 0.0
C1527 C 0.16088 0.88224 0.1998 0.0
C1528 C 0.18615 0.87876 0.19521 0.0
C1529 C 0.20277 0.89591 0.19453 0.0
C1530 C 0.19437 0.91662 0.19855 0.0
C1531 C 0.16934 0.92023 0.2033 0.0
C1532 C 0.15264 0.90313 0.20397 0.0
C1533 C 0.07444 0.82459 0.27279 0.0
C1534 C 0.05904 0.84217 0.27727 0.0
C1535 C 0.09173 0.82537 0.25485 0.0
C1536 C 0.0938 0.84369 0.24105 0.0
C1537 C 0.0789 0.86139 0.2459 0.0
C1538 C 0.06173 0.86065 0.26377 0.0
C1539 C 0.11085 0.8445 0.22106 0.0
C1540 C 0.1279 0.86141 0.21962 0.0
C1541 C 0.10955 0.82947 0.20294 0.0
C1542 C 0.09127 0.81176 0.20292 0.0
C1543 C 0.0657 0.81596 0.20411 0.0
C1544 C 0.0486 0.79916 0.20423 0.0
C1545 C 0.05684 0.77809 0.20294 0.0
C1546 C 0.0822 0.77379 0.20147 0.0
C1547 C 0.09938 0.79054 0.20138 0.0
H1548 H 0.04356 0.7651 0.20303 0.0
H1549 H 0.20727 0.92988 0.19802 0.0
H1550 H 0.86894 0.15864 0.59941 0.0
H1551 H 0.89045 0.1642 0.63596 0.0
H1552 H 0.84053 0.11986 0.66901 0.0
H1553 H 0.81863 0.11461 0.63253 0.0
H1554 H 0.84897 0.15219 0.69651 0.0
H1555 H 0.89969 0.10571 0.65181 0.0
H1556 H 0.92401 0.09353 0.6185 0.0
H1557 H 0.97299 0.14725 0.62581 0.0
H1558 H 0.94864 0.16002 0.65886 0.0
H1559 H 0.93005 0.13117 0.79276 0.0
H1560 H 0.90369 0.12817 0.75852 0.0
H1561 H 0.94461 0.17924 0.72626 0.0
H1562 H 0.97078 0.18252 0.76033 0.0
H1563 H 0.94019 0.14255 0.69926 0.0
H1564 H 0.88827 0.18879 0.7444 0.0
H1565 H 0.86469 0.19906 0.77891 0.0
H1566 H 0.81892 0.14326 0.77191 0.0
H1567 H 0.84248 0.13248 0.73752 0.0
C1568 C 0.86254 0.15013 0.6145 0.0
C1569 C 0.84223 0.13608 0.61311 0.0
C1570 C 0.87486 0.15327 0.63536 0.0
C1571 C 0.86743 0.14212 0.65515 0.0
C1572 C 0.84665 0.12859 0.65396 0.0
C1573 C 0.83413 0.12562 0.63313 0.0
C1574 C 0.88161 0.14429 0.67695 0.0
C1575 C 0.86888 0.14984 0.69713 0.0
C1576 C 0.90767 0.14145 0.67779 0.0
C1577 C 0.92213 0.13396 0.65766 0.0
C1578 C 0.91547 0.11507 0.64616 0.0
C1579 C 0.92929 0.10804 0.62733 0.0
C1580 C 0.94998 0.11965 0.61999 0.0
C1581 C 0.95691 0.13831 0.63147 0.0
C1582 C 0.9431 0.14546 0.65024 0.0
C1583 C 0.93322 0.14192 0.77847 0.0
C1584 C 0.95247 0.15709 0.77927 0.0
C1585 C 0.91812 0.14022 0.75898 0.0
C1586 C 0.92219 0.15354 0.73994 0.0
C1587 C 0.94115 0.16887 0.74083 0.0
C1588 C 0.956 0.17077 0.76037 0.0
C1589 C 0.90763 0.15079 0.71855 0.0
C1590 C 0.9203 0.14499 0.69852 0.0
C1591 C 0.88158 0.15319 0.71793 0.0
C1592 C 0.86731 0.15971 0.73852 0.0
C1593 C 0.87332 0.17861 0.75033 0.0
C1594 C 0.85993 0.18454 0.76985 0.0
C1595 C 0.84036 0.17179 0.77764 0.0
C1596 C 0.8341 0.15311 0.76588 0.0
C1597 C 0.84746 0.14709 0.74636 0.0
H1598 H 0.83002 0.17641 0.79275 0.0
H1599 H 0.96068 0.11415 0.60544 0.0
loop_
_geom_bond_atom_site_label_1
_geom_bond_atom_site_label_2
_geom_bond_distance
_geom_bond_site_symmetry_2
_ccdc_geom_bond_type
C0 C1 1.386 . S
C0 C2 1.397 . S
C0 H24 0.931 . S
C1 C0 1.386 . S
C1 C5 1.397 . S
C2 C0 1.397 . S
C2 C3 1.384 . S
C2 H25 0.930 . S
C3 C2 1.384 . S
C3 C4 1.377 . S
C3 C6 1.481 . S
C4 C3 1.377 . S
C4 C5 1.389 . S
C4 H26 0.929 . S
C5 C1 1.397 . S
C5 C4 1.389 . S
C5 H27 0.931 . S
C6 C3 1.481 . S
C6 C7 1.387 . S
C6 C11 1.390 1_556 S
C7 C6 1.387 . S
C7 C8 1.401 1_556 S
C7 H28 0.930 . S
C8 C7 1.401 1_554 S
C8 C9 1.376 . S
C8 C17 1.511 1_554 S
C9 C8 1.376 . S
C9 C10 1.392 . S
C9 H30 0.931 . S
C10 C9 1.392 . S
C10 C11 1.361 . S
C10 C12 1.500 . S
C11 C6 1.390 1_554 S
C11 C10 1.361 . S
C11 H29 0.931 . S
C12 C10 1.500 . S
C12 C13 1.371 . S
C12 C14 1.365 . S
C13 C12 1.371 . S
C13 C23 1.386 . S
C13 H31 0.931 . S
C14 C12 1.365 . S
C14 C15 1.409 . S
C14 H32 0.929 . S
C15 C14 1.409 . S
C15 C16 1.380 . S
C15 H33 0.930 . S
C16 C15 1.380 . S
C16 C23 1.357 . S
C17 C8 1.511 1_556 S
C17 C18 1.341 . S
C17 C19 1.386 . S
C18 C17 1.341 . S
C18 C22 1.394 . S
C18 H34 0.930 . S
C19 C17 1.386 . S
C19 C20 1.411 . S
C19 H35 0.898 1_556 S
C20 C19 1.411 . S
C20 C21 1.331 . S
C20 H38 0.932 . S
C21 C20 1.331 . S
C21 C22 1.336 . S
C22 C18 1.394 . S
C22 C21 1.336 . S
C22 H37 0.929 . S
C23 C13 1.386 . S
C23 C16 1.357 . S
C23 H36 0.928 . S
H24 C0 0.931 . S
H25 C2 0.930 . S
H26 C4 0.929 . S
H27 C5 0.931 . S
H28 C7 0.930 . S
H29 C11 0.931 . S
H30 C9 0.931 . S
H31 C13 0.931 . S
H32 C14 0.929 . S
H33 C15 0.930 . S
H34 C18 0.930 . S
H35 C19 0.898 1_554 S
H36 C23 0.928 . S
H37 C22 0.929 . S
H38 C20 0.932 . S
C39 C40 1.386 . S
C39 C41 1.397 . S
C39 H63 0.931 . S
C40 C39 1.386 . S
C40 C44 1.397 . S
C41 C39 1.397 . S
C41 C42 1.384 . S
C41 H64 0.930 . S
C42 C41 1.384 . S
C42 C43 1.377 . S
C42 C45 1.481 . S
C43 C42 1.377 . S
C43 C44 1.389 . S
C43 H65 0.929 . S
C44 C40 1.397 . S
C44 C43 1.389 . S
C44 H66 0.931 . S
C45 C42 1.481 . S
C45 C46 1.387 . S
C45 C50 1.390 . S
C46 C45 1.387 . S
C46 C47 1.401 . S
C46 H67 0.930 . S
C47 C46 1.401 . S
C47 C48 1.376 . S
C47 C56 1.511 . S
C48 C47 1.376 . S
C48 C49 1.392 . S
C48 H69 0.931 . S
C49 C48 1.392 . S
C49 C50 1.361 . S
C49 C51 1.500 . S
C50 C45 1.390 . S
C50 C49 1.361 . S
C50 H68 0.931 . S
C51 C49 1.500 . S
C51 C52 1.371 . S
C51 C53 1.365 . S
C52 C51 1.371 . S
C52 C62 1.386 . S
C52 H70 0.931 . S
C53 C51 1.365 . S
C53 C54 1.409 . S
C53 H71 0.929 . S
C54 C53 1.409 . S
C54 C55 1.380 . S
C54 H72 0.930 . S
C55 C54 1.380 . S
C55 C62 1.357 . S
C56 C47 1.511 . S
C56 C57 1.341 . S
C56 C58 1.371 . S
C57 C56 1.341 . S
C57 C61 1.394 . S
C57 H73 0.930 . S
C58 C56 1.371 . S
C58 C59 1.392 . S
C58 H74 0.931 . S
C59 C58 1.392 . S
C59 C60 1.331 . S
C59 H77 0.932 . S
C60 C59 1.331 . S
C60 C61 1.336 . S
C61 C57 1.394 . S
C61 C60 1.336 . S
C61 H76 0.929 . S
C62 C52 1.386 . S
C62 C55 1.357 . S
C62 H75 0.928 . S
H63 C39 0.931 . S
H64 C41 0.930 . S
H65 C43 0.929 . S
H66 C44 0.931 . S
H67 C46 0.930 . S
H68 C50 0.931 . S
H69 C48 0.931 . S
H70 C52 0.931 . S
H71 C53 0.929 . S
H72 C54 0.930 . S
H73 C57 0.930 . S
H74 C58 0.931 . S
H75 C62 0.928 . S
H76 C61 0.929 . S
H77 C59 0.932 . S
C78 C79 1.386 . S
C78 C80 1.397 . S
C78 H102 0.931 . S
C79 C78 1.386 . S
C79 C83 1.397 . S
C80 C78 1.397 . S
C80 C81 1.384 . S
C80 H103 0.930 . S
C81 C80 1.384 . S
C81 C82 1.377 . S
C81 C84 1.481 . S
C82 C81 1.377 . S
C82 C83 1.389 . S
C82 H104 0.929 1_556 S
C83 C79 1.397 . S
C83 C82 1.389 . S
C83 H105 0.931 . S
C84 C81 1.481 . S
C84 C85 1.387 . S
C84 C89 1.390 1_556 S
C85 C84 1.387 . S
C85 C86 1.422 . S
C85 H106 0.930 . S
C86 C85 1.422 . S
C86 C87 1.341 1_556 S
C86 C95 1.527 . S
C87 C86 1.341 1_554 S
C87 C88 1.392 . S
C87 H108 0.931 . S
C88 C87 1.392 . S
C88 C89 1.361 . S
C88 C90 1.500 . S
C89 C84 1.390 1_554 S
C89 C88 1.361 . S
C89 H107 0.931 . S
C90 C88 1.500 . S
C90 C91 1.371 . S
C90 C92 1.365 . S
C91 C90 1.371 . S
C91 C101 1.386 . S
C91 H109 0.931 . S
C92 C90 1.365 . S
C92 C93 1.409 . S
C92 H110 0.929 . S
C93 C92 1.409 . S
C93 C94 1.380 . S
C93 H111 0.930 . S
C94 C93 1.380 . S
C94 C101 1.357 . S
C95 C86 1.527 . S
C95 C96 1.341 . S
C95 C97 1.371 1_556 S
C96 C95 1.341 . S
C96 C100 1.394 . S
C96 H112 0.930 . S
C97 C95 1.371 1_554 S
C97 C98 1.392 1_554 S
C97 H113 0.931 . S
C98 C97 1.392 1_556 S
C98 C99 1.331 . S
C98 H116 0.932 1_556 S
C99 C98 1.331 . S
C99 C100 1.336 . S
C100 C96 1.394 . S
C100 C99 1.336 . S
C100 H115 0.929 . S
C101 C91 1.386 . S
C101 C94 1.357 . S
C101 H114 0.928 . S
H102 C78 0.931 . S
H103 C80 0.930 . S
H104 C82 0.929 1_554 S
H105 C83 0.931 . S
H106 C85 0.930 . S
H107 C89 0.931 . S
H108 C87 0.931 . S
H109 C91 0.931 . S
H110 C92 0.929 . S
H111 C93 0.930 . S
H112 C96 0.930 . S
H113 C97 0.931 . S
H114 C101 0.928 . S
H115 C100 0.929 . S
H116 C98 0.932 1_554 S
C117 C118 1.386 . S
C117 C119 1.397 . S
C117 H141 0.931 . S
C118 C117 1.386 . S
C118 C122 1.397 . S
C119 C117 1.397 . S
C119 C120 1.384 . S
C119 H142 0.930 . S
C120 C119 1.384 . S
C120 C121 1.377 . S
C120 C123 1.481 . S
C121 C120 1.377 . S
C121 C122 1.389 . S
C121 H143 0.929 . S
C122 C118 1.397 . S
C122 C121 1.389 . S
C122 H144 0.931 . S
C123 C120 1.481 . S
C123 C124 1.387 . S
C123 C128 1.390 . S
C124 C123 1.387 . S
C124 C125 1.401 . S
C124 H145 0.930 . S
C125 C124 1.401 . S
C125 C126 1.376 . S
C125 C134 1.511 . S
C126 C125 1.376 . S
C126 C127 1.392 . S
C126 H147 0.931 . S
C127 C126 1.392 . S
C127 C128 1.361 . S
C127 C129 1.500 . S
C128 C123 1.390 . S
C128 C127 1.361 . S
C128 H146 0.931 . S
C129 C127 1.500 . S
C129 C130 1.371 . S
C129 C131 1.365 . S
C130 C129 1.371 . S
C130 C140 1.386 . S
C130 H148 0.931 . S
C131 C129 1.365 . S
C131 C132 1.409 . S
C131 H149 0.929 . S
C132 C131 1.409 . S
C132 C133 1.380 . S
C132 H150 0.930 . S
C133 C132 1.380 . S
C133 C140 1.357 . S
C134 C125 1.511 . S
C134 C135 1.341 . S
C134 C136 1.371 . S
C135 C134 1.341 . S
C135 C139 1.394 . S
C135 H151 0.930 . S
C136 C134 1.371 . S
C136 C137 1.392 . S
C136 H152 0.931 . S
C137 C136 1.392 . S
C137 C138 1.331 . S
C137 H155 0.932 . S
C138 C137 1.331 . S
C138 C139 1.336 . S
C139 C135 1.394 . S
C139 C138 1.336 . S
C139 H154 0.929 . S
C140 C130 1.386 . S
C140 C133 1.357 . S
C140 H153 0.928 . S
H141 C117 0.931 . S
H142 C119 0.930 . S
H143 C121 0.929 . S
H144 C122 0.931 . S
H145 C124 0.930 . S
H146 C128 0.931 . S
H147 C126 0.931 . S
H148 C130 0.931 . S
H149 C131 0.929 . S
H150 C132 0.930 . S
H151 C135 0.930 . S
H152 C136 0.931 . S
H153 C140 0.928 . S
H154 C139 0.929 . S
H155 C137 0.932 . S
C156 C157 1.386 . S
C156 C158 1.397 . S
C156 H180 0.931 . S
C157 C156 1.386 . S
C157 C161 1.397 . S
C158 C156 1.397 . S
C158 C159 1.384 . S
C158 H181 0.930 . S
C159 C158 1.384 . S
C159 C160 1.377 . S
C159 C162 1.481 . S
C160 C159 1.377 . S
C160 C161 1.389 . S
C160 H182 0.929 . S
C161 C157 1.397 . S
C161 C160 1.389 . S
C161 H183 0.931 . S
C162 C159 1.481 . S
C162 C163 1.387 . S
C162 C167 1.390 1_556 S
C163 C162 1.387 . S
C163 C164 1.401 1_556 S
C163 H184 0.930 . S
C164 C163 1.401 1_554 S
C164 C165 1.376 . S
C164 C173 1.511 1_554 S
C165 C164 1.376 . S
C165 C166 1.392 . S
C165 H186 0.931 . S
C166 C165 1.392 . S
C166 C167 1.361 . S
C166 C168 1.500 . S
C167 C162 1.390 1_554 S
C167 C166 1.361 . S
C167 H185 0.931 . S
C168 C166 1.500 . S
C168 C169 1.371 . S
C168 C170 1.365 . S
C169 C168 1.371 . S
C169 C179 1.386 . S
C169 H187 0.931 . S
C170 C168 1.365 . S
C170 C171 1.409 . S
C170 H188 0.929 . S
C171 C170 1.409 . S
C171 C172 1.380 . S
C171 H189 0.930 . S
C172 C171 1.380 . S
C172 C179 1.357 . S
C173 C164 1.511 1_556 S
C173 C174 1.341 . S
C173 C175 1.386 . S
C174 C173 1.341 . S
C174 C178 1.394 . S
C174 H190 0.930 . S
C175 C173 1.386 . S
C175 C176 1.411 . S
C175 H191 0.898 1_556 S
C176 C175 1.411 . S
C176 C177 1.331 . S
C176 H194 0.932 . S
C177 C176 1.331 . S
C177 C178 1.336 . S
C178 C174 1.394 . S
C178 C177 1.336 . S
C178 H193 0.929 . S
C179 C169 1.386 . S
C179 C172 1.357 . S
C179 H192 0.928 . S
H180 C156 0.931 . S
H181 C158 0.930 . S
H182 C160 0.929 . S
H183 C161 0.931 . S
H184 C163 0.930 . S
H185 C167 0.931 . S
H186 C165 0.931 . S
H187 C169 0.931 . S
H188 C170 0.929 . S
H189 C171 0.930 . S
H190 C174 0.930 . S
H191 C175 0.898 1_554 S
H192 C179 0.928 . S
H193 C178 0.929 . S
H194 C176 0.932 . S
C195 C196 1.386 . S
C195 C197 1.397 . S
C195 H219 0.931 . S
C196 C195 1.386 . S
C196 C200 1.397 . S
C197 C195 1.397 . S
C197 C198 1.384 . S
C197 H220 0.930 . S
C198 C197 1.384 . S
C198 C199 1.377 . S
C198 C201 1.481 . S
C199 C198 1.377 . S
C199 C200 1.389 . S
C199 H221 0.929 . S
C200 C196 1.397 . S
C200 C199 1.389 . S
C200 H222 0.931 . S
C201 C198 1.481 . S
C201 C202 1.387 . S
C201 C206 1.390 . S
C202 C201 1.387 . S
C202 C203 1.401 . S
C202 H223 0.930 . S
C203 C202 1.401 . S
C203 C204 1.376 . S
C203 C212 1.511 . S
C204 C203 1.376 . S
C204 C205 1.392 . S
C204 H225 0.931 . S
C205 C204 1.392 . S
C205 C206 1.361 . S
C205 C207 1.500 . S
C206 C201 1.390 . S
C206 C205 1.361 . S
C206 H224 0.931 . S
C207 C205 1.500 . S
C207 C208 1.371 . S
C207 C209 1.365 . S
C208 C207 1.371 . S
C208 C218 1.386 . S
C208 H226 0.931 . S
C209 C207 1.365 . S
C209 C210 1.409 . S
C209 H227 0.929 . S
C210 C209 1.409 . S
C210 C211 1.380 . S
C210 H228 0.930 . S
C211 C210 1.380 . S
C211 C218 1.357 . S
C212 C203 1.511 . S
C212 C213 1.341 . S
C212 C214 1.371 . S
C213 C212 1.341 . S
C213 C217 1.394 . S
C213 H229 0.930 . S
C214 C212 1.371 . S
C214 C215 1.392 . S
C214 H230 0.931 . S
C215 C214 1.392 . S
C215 C216 1.331 . S
C215 H233 0.932 . S
C216 C215 1.331 . S
C216 C217 1.336 . S
C217 C213 1.394 . S
C217 C216 1.336 . S
C217 H232 0.929 . S
C218 C208 1.386 . S
C218 C211 1.357 . S
C218 H231 0.928 . S
H219 C195 0.931 . S
H220 C197 0.930 . S
H221 C199 0.929 . S
H222 C200 0.931 . S
H223 C202 0.930 . S
H224 C206 0.931 . S
H225 C204 0.931 . S
H226 C208 0.931 . S
H227 C209 0.929 . S
H228 C210 0.930 . S
H229 C213 0.930 . S
H230 C214 0.931 . S
H231 C218 0.928 . S
H232 C217 0.929 . S
H233 C215 0.932 . S
C234 C235 1.386 . S
C234 C236 1.397 . S
C234 H258 0.931 . S
C235 C234 1.386 . S
C235 C239 1.397 . S
C236 C234 1.397 . S
C236 C237 1.384 . S
C236 H259 0.930 . S
C237 C236 1.384 . S
C237 C238 1.377 . S
C237 C240 1.481 . S
C238 C237 1.377 . S
C238 C239 1.389 . S
C238 H260 0.929 1_556 S
C239 C235 1.397 . S
C239 C238 1.389 . S
C239 H261 0.931 . S
C240 C237 1.481 . S
C240 C241 1.387 . S
C240 C245 1.390 1_556 S
C241 C240 1.387 . S
C241 C242 1.422 . S
C241 H262 0.930 . S
C242 C241 1.422 . S
C242 C243 1.341 1_556 S
C242 C251 1.527 . S
C243 C242 1.341 1_554 S
C243 C244 1.392 . S
C243 H264 0.931 . S
C244 C243 1.392 . S
C244 C245 1.361 . S
C244 C246 1.500 . S
C245 C240 1.390 1_554 S
C245 C244 1.361 . S
C245 H263 0.931 . S
C246 C244 1.500 . S
C246 C247 1.371 . S
C246 C248 1.365 . S
C247 C246 1.371 . S
C247 C257 1.386 . S
C247 H265 0.931 . S
C248 C246 1.365 . S
C248 C249 1.409 . S
C248 H266 0.929 . S
C249 C248 1.409 . S
C249 C250 1.380 . S
C249 H267 0.930 . S
C250 C249 1.380 . S
C250 C257 1.357 . S
C251 C242 1.527 . S
C251 C252 1.341 . S
C251 C253 1.371 1_556 S
C252 C251 1.341 . S
C252 C256 1.394 . S
C252 H268 0.930 . S
C253 C251 1.371 1_554 S
C253 C254 1.392 1_554 S
C253 H269 0.931 . S
C254 C253 1.392 1_556 S
C254 C255 1.331 . S
C254 H272 0.932 1_556 S
C255 C254 1.331 . S
C255 C256 1.336 . S
C256 C252 1.394 . S
C256 C255 1.336 . S
C256 H271 0.929 . S
C257 C247 1.386 . S
C257 C250 1.357 . S
C257 H270 0.928 . S
H258 C234 0.931 . S
H259 C236 0.930 . S
H260 C238 0.929 1_554 S
H261 C239 0.931 . S
H262 C241 0.930 . S
H263 C245 0.931 . S
H264 C243 0.931 . S
H265 C247 0.931 . S
H266 C248 0.929 . S
H267 C249 0.930 . S
H268 C252 0.930 . S
H269 C253 0.931 . S
H270 C257 0.928 . S
H271 C256 0.929 . S
H272 C254 0.932 1_554 S
C273 C274 1.386 . S
C273 C275 1.397 . S
C273 H297 0.931 . S
C274 C273 1.386 . S
C274 C278 1.397 . S
C275 C273 1.397 . S
C275 C276 1.384 . S
C275 H298 0.930 . S
C276 C275 1.384 . S
C276 C277 1.377 . S
C276 C279 1.481 . S
C277 C276 1.377 . S
C277 C278 1.389 . S
C277 H299 0.929 . S
C278 C274 1.397 . S
C278 C277 1.389 . S
C278 H300 0.931 . S
C279 C276 1.481 . S
C279 C280 1.387 . S
C279 C284 1.390 . S
C280 C279 1.387 . S
C280 C281 1.401 . S
C280 H301 0.930 . S
C281 C280 1.401 . S
C281 C282 1.376 . S
C281 C290 1.511 . S
C282 C281 1.376 . S
C282 C283 1.392 . S
C282 H303 0.931 . S
C283 C282 1.392 . S
C283 C284 1.361 . S
C283 C285 1.500 . S
C284 C279 1.390 . S
C284 C283 1.361 . S
C284 H302 0.931 . S
C285 C283 1.500 . S
C285 C286 1.371 . S
C285 C287 1.365 . S
C286 C285 1.371 . S
C286 C296 1.386 . S
C286 H304 0.931 . S
C287 C285 1.365 . S
C287 C288 1.409 . S
C287 H305 0.929 . S
C288 C287 1.409 . S
C288 C289 1.380 . S
C288 H306 0.930 . S
C289 C288 1.380 . S
C289 C296 1.357 . S
C290 C281 1.511 . S
C290 C291 1.341 . S
C290 C292 1.371 . S
C291 C290 1.341 . S
C291 C295 1.394 . S
C291 H307 0.930 . S
C292 C290 1.371 . S
C292 C293 1.392 . S
C292 H308 0.931 . S
C293 C292 1.392 . S
C293 C294 1.331 . S
C293 H311 0.932 . S
C294 C293 1.331 . S
C294 C295 1.336 . S
C295 C291 1.394 . S
C295 C294 1.336 . S
C295 H310 0.929 . S
C296 C286 1.386 . S
C296 C289 1.357 . S
C296 H309 0.928 . S
H297 C273 0.931 . S
H298 C275 0.930 . S
H299 C277 0.929 . S
H300 C278 0.931 . S
H301 C280 0.930 . S
H302 C284 0.931 . S
H303 C282 0.931 . S
H304 C286 0.931 . S
H305 C287 0.929 . S
H306 C288 0.930 . S
H307 C291 0.930 . S
H308 C292 0.931 . S
H309 C296 0.928 . S
H310 C295 0.929 . S
H311 C293 0.932 . S
Fe312 O314 1.918 . S
Fe312 O317 1.997 1_455 S
Fe312 O318 2.002 1_455 S
Fe312 O323 1.976 . S
Fe312 O326 1.996 . S
Fe313 O314 1.918 . S
Fe313 O321 1.997 1_455 S
Fe313 O324 1.996 . S
Fe313 O328 1.976 . S
Fe313 O331 2.002 1_455 S
O314 Fe312 1.918 . S
O314 Fe313 1.918 . S
O314 Fe315 1.918 . S
Fe315 O314 1.918 . S
Fe315 O316 2.002 1_455 S
Fe315 O325 1.976 . S
Fe315 O329 1.996 . S
Fe315 O332 1.997 1_455 S
O316 Fe315 2.002 1_655 S
O316 C333 1.295 . S
O317 Fe312 1.997 1_655 S
O317 C333 1.235 . S
O318 Fe312 2.002 1_655 S
O318 C319 1.295 . S
C319 O318 1.295 . S
C319 O321 1.235 . S
C320 O325 1.287 . S
C320 O326 1.255 . S
O321 Fe313 1.997 1_655 S
O321 C319 1.235 . S
C322 O328 1.287 . S
C322 O329 1.255 . S
O323 Fe312 1.976 . S
O323 C330 1.287 . S
O324 Fe313 1.996 . S
O324 C330 1.255 . S
O325 Fe315 1.976 . S
O325 C320 1.287 . S
O326 Fe312 1.996 . S
O326 C320 1.255 . S
C327 O331 1.295 . S
C327 O332 1.235 . S
O328 Fe313 1.976 . S
O328 C322 1.287 . S
O329 Fe315 1.996 . S
O329 C322 1.255 . S
C330 O323 1.287 . S
C330 O324 1.255 . S
O331 Fe313 2.002 1_655 S
O331 C327 1.295 . S
O332 Fe315 1.997 1_655 S
O332 C327 1.235 . S
C333 O316 1.295 . S
C333 O317 1.235 . S
Fe334 O336 1.918 1_455 S
Fe334 O339 1.997 . S
Fe334 O340 2.003 . S
Fe334 O345 1.976 1_455 S
Fe334 O348 1.995 1_455 S
Fe335 O336 1.918 1_455 S
Fe335 O343 1.996 . S
Fe335 O346 1.996 1_455 S
Fe335 O350 1.976 1_455 S
Fe335 O353 2.002 . S
O336 Fe334 1.918 1_655 S
O336 Fe335 1.918 1_655 S
O336 Fe337 1.918 1_655 S
Fe337 O336 1.918 1_455 S
Fe337 O338 2.003 . S
Fe337 O347 1.975 1_455 S
Fe337 O351 1.995 1_455 S
Fe337 O354 1.997 . S
O338 Fe337 2.003 . S
O338 C355 1.295 . S
O339 Fe334 1.997 . S
O339 C355 1.235 . S
O340 Fe334 2.003 . S
O340 C341 1.295 . S
C341 O340 1.295 . S
C341 O343 1.235 . S
C342 O347 1.287 . S
C342 O348 1.255 . S
O343 Fe335 1.996 . S
O343 C341 1.235 . S
C344 O350 1.287 . S
C344 O351 1.255 . S
O345 Fe334 1.976 1_655 S
O345 C352 1.287 . S
O346 Fe335 1.996 1_655 S
O346 C352 1.255 . S
O347 Fe337 1.975 1_655 S
O347 C342 1.287 . S
O348 Fe334 1.995 1_655 S
O348 C342 1.255 . S
C349 O353 1.295 . S
C349 O354 1.235 . S
O350 Fe335 1.976 1_655 S
O350 C344 1.287 . S
O351 Fe337 1.995 1_655 S
O351 C344 1.255 . S
C352 O345 1.287 . S
C352 O346 1.255 . S
O353 Fe335 2.002 . S
O353 C349 1.295 . S
O354 Fe337 1.997 . S
O354 C349 1.235 . S
C355 O338 1.295 . S
C355 O339 1.235 . S
Fe356 O358 1.918 . S
Fe356 O361 1.997 . S
Fe356 O362 2.002 . S
Fe356 O367 1.976 . S
Fe356 O370 1.996 . S
Fe357 O358 1.918 . S
Fe357 O365 1.997 . S
Fe357 O368 1.996 . S
Fe357 O372 1.976 . S
Fe357 O375 2.002 . S
O358 Fe356 1.918 . S
O358 Fe357 1.918 . S
O358 Fe359 1.918 . S
Fe359 O358 1.918 . S
Fe359 O360 2.002 . S
Fe359 O369 1.976 . S
Fe359 O373 1.996 . S
Fe359 O376 1.997 . S
O360 Fe359 2.002 . S
O360 C377 1.295 . S
O361 Fe356 1.997 . S
O361 C377 1.235 . S
O362 Fe356 2.002 . S
O362 C363 1.295 . S
C363 O362 1.295 . S
C363 O365 1.235 . S
C364 O369 1.287 . S
C364 O370 1.255 . S
O365 Fe357 1.997 . S
O365 C363 1.235 . S
C366 O372 1.287 . S
C366 O373 1.255 . S
O367 Fe356 1.976 . S
O367 C374 1.287 . S
O368 Fe357 1.996 . S
O368 C374 1.255 . S
O369 Fe359 1.976 . S
O369 C364 1.287 . S
O370 Fe356 1.996 . S
O370 C364 1.255 . S
C371 O375 1.295 . S
C371 O376 1.235 . S
O372 Fe357 1.976 . S
O372 C366 1.287 . S
O373 Fe359 1.996 . S
O373 C366 1.255 . S
C374 O367 1.287 . S
C374 O368 1.255 . S
O375 Fe357 2.002 . S
O375 C371 1.295 . S
O376 Fe359 1.997 . S
O376 C371 1.235 . S
C377 O360 1.295 . S
C377 O361 1.235 . S
Fe378 O380 1.918 . S
Fe378 O383 1.997 . S
Fe378 O384 2.002 . S
Fe378 O389 1.976 . S
Fe378 O392 1.996 . S
Fe379 O380 1.918 . S
Fe379 O387 1.997 . S
Fe379 O390 1.996 . S
Fe379 O394 1.976 . S
Fe379 O397 2.002 . S
O380 Fe378 1.918 . S
O380 Fe379 1.918 . S
O380 Fe381 1.918 . S
Fe381 O380 1.918 . S
Fe381 O382 2.002 . S
Fe381 O391 1.976 . S
Fe381 O395 1.996 . S
Fe381 O398 1.997 . S
O382 Fe381 2.002 . S
O382 C399 1.295 . S
O383 Fe378 1.997 . S
O383 C399 1.235 . S
O384 Fe378 2.002 . S
O384 C385 1.295 . S
C385 O384 1.295 . S
C385 O387 1.235 . S
C386 O391 1.287 . S
C386 O392 1.255 . S
O387 Fe379 1.997 . S
O387 C385 1.235 . S
C388 O394 1.287 . S
C388 O395 1.255 . S
O389 Fe378 1.976 . S
O389 C396 1.287 . S
O390 Fe379 1.996 . S
O390 C396 1.255 . S
O391 Fe381 1.976 . S
O391 C386 1.287 . S
O392 Fe378 1.996 . S
O392 C386 1.255 . S
C393 O397 1.295 . S
C393 O398 1.235 . S
O394 Fe379 1.976 . S
O394 C388 1.287 . S
O395 Fe381 1.996 . S
O395 C388 1.255 . S
C396 O389 1.287 . S
C396 O390 1.255 . S
O397 Fe379 2.002 . S
O397 C393 1.295 . S
O398 Fe381 1.997 . S
O398 C393 1.235 . S
C399 O382 1.295 . S
C399 O383 1.235 . S
H400 C418 0.951 . S
H401 C420 0.951 . S
H402 C422 0.950 . S
H403 C423 0.950 . S
H404 C425 0.950 . S
H405 C428 0.950 . S
H406 C429 0.950 . S
H407 C431 0.950 . S
H408 C432 0.950 . S
H409 C433 0.951 . S
H410 C435 0.951 . S
H411 C437 0.950 . S
H412 C438 0.950 . S
H413 C440 0.950 . S
H414 C443 0.950 . S
H415 C444 0.950 . S
H416 C446 0.950 . S
H417 C447 0.950 . S
C418 H400 0.951 . S
C418 C419 1.366 . S
C418 C420 1.388 . S
C419 C418 1.366 . S
C419 C423 1.385 . S
C420 H401 0.951 . S
C420 C418 1.388 . S
C420 C421 1.366 . S
C421 C420 1.366 . S
C421 C422 1.414 . S
C421 C424 1.499 . S
C422 H402 0.950 . S
C422 C421 1.414 . S
C422 C423 1.374 . S
C423 H403 0.950 . S
C423 C419 1.385 . S
C423 C422 1.374 . S
C424 C421 1.499 . S
C424 C425 1.373 . S
C424 C426 1.389 . S
C425 H404 0.950 . S
C425 C424 1.373 . S
C425 C441 1.377 . S
C426 C424 1.389 . S
C426 C427 1.524 . S
C426 C440 1.377 . S
C427 C426 1.524 . S
C427 C428 1.397 . S
C427 C432 1.363 . S
C428 H405 0.950 . S
C428 C427 1.397 . S
C428 C429 1.334 . S
C429 H406 0.950 . S
C429 C428 1.334 . S
C429 C430 1.287 . S
C430 C429 1.287 . S
C430 C431 1.524 . S
C430 H449 0.913 . S
C431 H407 0.950 . S
C431 C430 1.524 . S
C431 C432 1.415 . S
C432 H408 0.950 . S
C432 C427 1.363 . S
C432 C431 1.415 . S
C433 H409 0.951 . S
C433 C434 1.366 . S
C433 C435 1.388 . S
C434 C433 1.366 . S
C434 C438 1.385 . S
C435 H410 0.951 . S
C435 C433 1.388 . S
C435 C436 1.366 . S
C436 C435 1.366 . S
C436 C437 1.414 . S
C436 C439 1.499 . S
C437 H411 0.950 . S
C437 C436 1.414 . S
C437 C438 1.374 . S
C438 H412 0.950 . S
C438 C434 1.385 . S
C438 C437 1.374 . S
C439 C436 1.499 . S
C439 C440 1.373 . S
C439 C441 1.389 . S
C440 H413 0.950 . S
C440 C426 1.377 . S
C440 C439 1.373 . S
C441 C425 1.377 . S
C441 C439 1.389 . S
C441 C442 1.524 . S
C442 C441 1.524 . S
C442 C443 1.397 . S
C442 C447 1.363 . S
C443 H414 0.950 . S
C443 C442 1.397 . S
C443 C444 1.334 . S
C444 H415 0.950 . S
C444 C443 1.334 . S
C444 C445 1.287 . S
C445 C444 1.287 . S
C445 C446 1.524 . S
C445 H448 0.999 . S
C446 H416 0.950 . S
C446 C445 1.524 . S
C446 C447 1.415 . S
C447 H417 0.950 . S
C447 C442 1.363 . S
C447 C446 1.415 . S
H448 C445 0.999 . S
H449 C430 0.913 . S
H450 C468 0.951 . S
H451 C470 0.951 . S
H452 C472 0.950 . S
H453 C473 0.950 . S
H454 C475 0.950 . S
H455 C478 0.950 . S
H456 C479 0.950 . S
H457 C481 0.950 . S
H458 C482 0.950 . S
H459 C483 0.951 . S
H460 C485 0.951 . S
H461 C487 0.950 . S
H462 C488 0.950 . S
H463 C490 0.950 . S
H464 C493 0.950 . S
H465 C494 0.950 . S
H466 C496 0.950 . S
H467 C497 0.950 . S
C468 H450 0.951 . S
C468 C469 1.366 . S
C468 C470 1.388 . S
C469 C468 1.366 . S
C469 C473 1.385 . S
C470 H451 0.951 . S
C470 C468 1.388 . S
C470 C471 1.366 . S
C471 C470 1.366 . S
C471 C472 1.414 . S
C471 C474 1.499 . S
C472 H452 0.950 . S
C472 C471 1.414 . S
C472 C473 1.374 . S
C473 H453 0.950 . S
C473 C469 1.385 . S
C473 C472 1.374 . S
C474 C471 1.499 . S
C474 C475 1.373 . S
C474 C476 1.389 . S
C475 H454 0.950 . S
C475 C474 1.373 . S
C475 C491 1.377 . S
C476 C474 1.389 . S
C476 C477 1.524 . S
C476 C490 1.377 . S
C477 C476 1.524 . S
C477 C478 1.397 . S
C477 C482 1.363 . S
C478 H455 0.950 . S
C478 C477 1.397 . S
C478 C479 1.334 . S
C479 H456 0.950 . S
C479 C478 1.334 . S
C479 C480 1.287 . S
C480 C479 1.287 . S
C480 C481 1.524 . S
C480 H499 0.913 . S
C481 H457 0.950 . S
C481 C480 1.524 . S
C481 C482 1.415 . S
C482 H458 0.950 . S
C482 C477 1.363 . S
C482 C481 1.415 . S
C483 H459 0.951 . S
C483 C484 1.366 . S
C483 C485 1.388 . S
C484 C483 1.366 . S
C484 C488 1.385 . S
C485 H460 0.951 . S
C485 C483 1.388 . S
C485 C486 1.366 . S
C486 C485 1.366 . S
C486 C487 1.414 . S
C486 C489 1.499 . S
C487 H461 0.950 . S
C487 C486 1.414 . S
C487 C488 1.374 . S
C488 H462 0.950 . S
C488 C484 1.385 . S
C488 C487 1.374 . S
C489 C486 1.499 . S
C489 C490 1.373 . S
C489 C491 1.389 . S
C490 H463 0.950 . S
C490 C476 1.377 . S
C490 C489 1.373 . S
C491 C475 1.377 . S
C491 C489 1.389 . S
C491 C492 1.524 . S
C492 C491 1.524 . S
C492 C493 1.397 . S
C492 C497 1.363 . S
C493 H464 0.950 . S
C493 C492 1.397 . S
C493 C494 1.334 . S
C494 H465 0.950 . S
C494 C493 1.334 . S
C494 C495 1.287 . S
C495 C494 1.287 . S
C495 C496 1.524 . S
C495 H498 0.999 . S
C496 H466 0.950 . S
C496 C495 1.524 . S
C496 C497 1.415 . S
C497 H467 0.950 . S
C497 C492 1.363 . S
C497 C496 1.415 . S
H498 C495 0.999 . S
H499 C480 0.913 . S
H500 C518 0.951 . S
H501 C520 0.951 . S
H502 C522 0.950 . S
H503 C523 0.950 . S
H504 C525 0.950 . S
H505 C528 0.950 . S
H506 C529 0.950 . S
H507 C531 0.950 . S
H508 C532 0.950 . S
H509 C533 0.951 . S
H510 C535 0.951 . S
H511 C537 0.950 . S
H512 C538 0.950 . S
H513 C540 0.950 . S
H514 C543 0.950 . S
H515 C544 0.950 . S
H516 C546 0.950 . S
H517 C547 0.950 . S
C518 H500 0.951 . S
C518 C519 1.366 . S
C518 C520 1.388 . S
C519 C518 1.366 . S
C519 C523 1.385 . S
C520 H501 0.951 . S
C520 C518 1.388 . S
C520 C521 1.366 . S
C521 C520 1.366 . S
C521 C522 1.414 . S
C521 C524 1.499 . S
C522 H502 0.950 . S
C522 C521 1.414 . S
C522 C523 1.374 . S
C523 H503 0.950 . S
C523 C519 1.385 . S
C523 C522 1.374 . S
C524 C521 1.499 . S
C524 C525 1.373 . S
C524 C526 1.389 . S
C525 H504 0.950 . S
C525 C524 1.373 . S
C525 C541 1.377 . S
C526 C524 1.389 . S
C526 C527 1.524 . S
C526 C540 1.377 . S
C527 C526 1.524 . S
C527 C528 1.397 . S
C527 C532 1.363 . S
C528 H505 0.950 . S
C528 C527 1.397 . S
C528 C529 1.334 . S
C529 H506 0.950 . S
C529 C528 1.334 . S
C529 C530 1.287 . S
C530 C529 1.287 . S
C530 C531 1.524 . S
C530 H549 0.913 . S
C531 H507 0.950 . S
C531 C530 1.524 . S
C531 C532 1.415 . S
C532 H508 0.950 . S
C532 C527 1.363 . S
C532 C531 1.415 . S
C533 H509 0.951 . S
C533 C534 1.366 . S
C533 C535 1.388 . S
C534 C533 1.366 . S
C534 C538 1.385 . S
C535 H510 0.951 . S
C535 C533 1.388 . S
C535 C536 1.366 . S
C536 C535 1.366 . S
C536 C537 1.414 . S
C536 C539 1.499 . S
C537 H511 0.950 . S
C537 C536 1.414 . S
C537 C538 1.374 . S
C538 H512 0.950 . S
C538 C534 1.385 . S
C538 C537 1.374 . S
C539 C536 1.499 . S
C539 C540 1.373 . S
C539 C541 1.389 . S
C540 H513 0.950 . S
C540 C526 1.377 . S
C540 C539 1.373 . S
C541 C525 1.377 . S
C541 C539 1.389 . S
C541 C542 1.524 . S
C542 C541 1.524 . S
C542 C543 1.397 . S
C542 C547 1.363 . S
C543 H514 0.950 . S
C543 C542 1.397 . S
C543 C544 1.334 . S
C544 H515 0.950 . S
C544 C543 1.334 . S
C544 C545 1.287 . S
C545 C544 1.287 . S
C545 C546 1.524 . S
C545 H548 0.999 1_655 S
C546 H516 0.950 . S
C546 C545 1.524 . S
C546 C547 1.415 . S
C547 H517 0.950 . S
C547 C542 1.363 . S
C547 C546 1.415 . S
H548 C545 0.999 1_455 S
H549 C530 0.913 . S
H550 C568 0.951 . S
H551 C570 0.951 . S
H552 C572 0.950 . S
H553 C573 0.950 . S
H554 C575 0.950 . S
H555 C578 0.950 . S
H556 C579 0.950 . S
H557 C581 0.950 . S
H558 C582 0.950 . S
H559 C583 0.951 . S
H560 C585 0.951 . S
H561 C587 0.950 . S
H562 C588 0.950 . S
H563 C590 0.950 . S
H564 C593 0.950 . S
H565 C594 0.950 . S
H566 C596 0.950 . S
H567 C597 0.950 . S
C568 H550 0.951 . S
C568 C569 1.366 . S
C568 C570 1.388 . S
C569 C568 1.366 . S
C569 C573 1.385 . S
C570 H551 0.951 . S
C570 C568 1.388 . S
C570 C571 1.366 . S
C571 C570 1.366 . S
C571 C572 1.414 . S
C571 C574 1.499 . S
C572 H552 0.950 . S
C572 C571 1.414 . S
C572 C573 1.374 . S
C573 H553 0.950 . S
C573 C569 1.385 . S
C573 C572 1.374 . S
C574 C571 1.499 . S
C574 C575 1.373 . S
C574 C576 1.389 . S
C575 H554 0.950 . S
C575 C574 1.373 . S
C575 C591 1.377 . S
C576 C574 1.389 . S
C576 C577 1.524 . S
C576 C590 1.377 . S
C577 C576 1.524 . S
C577 C578 1.397 . S
C577 C582 1.363 . S
C578 H555 0.950 . S
C578 C577 1.397 . S
C578 C579 1.334 . S
C579 H556 0.950 . S
C579 C578 1.334 . S
C579 C580 1.287 . S
C580 C579 1.287 . S
C580 C581 1.524 . S
C580 H599 0.913 . S
C581 H557 0.950 . S
C581 C580 1.524 . S
C581 C582 1.415 . S
C582 H558 0.950 . S
C582 C577 1.363 . S
C582 C581 1.415 . S
C583 H559 0.951 . S
C583 C584 1.366 . S
C583 C585 1.388 . S
C584 C583 1.366 . S
C584 C588 1.385 . S
C585 H560 0.951 . S
C585 C583 1.388 . S
C585 C586 1.366 . S
C586 C585 1.366 . S
C586 C587 1.414 . S
C586 C589 1.499 . S
C587 H561 0.950 . S
C587 C586 1.414 . S
C587 C588 1.374 . S
C588 H562 0.950 . S
C588 C584 1.385 . S
C588 C587 1.374 . S
C589 C586 1.499 . S
C589 C590 1.373 . S
C589 C591 1.389 . S
C590 H563 0.950 . S
C590 C576 1.377 . S
C590 C589 1.373 . S
C591 C575 1.377 . S
C591 C589 1.389 . S
C591 C592 1.524 . S
C592 C591 1.524 . S
C592 C593 1.397 . S
C592 C597 1.363 . S
C593 H564 0.950 . S
C593 C592 1.397 . S
C593 C594 1.334 . S
C594 H565 0.950 . S
C594 C593 1.334 . S
C594 C595 1.287 . S
C595 C594 1.287 . S
C595 C596 1.524 . S
C595 H598 0.999 1_455 S
C596 H566 0.950 . S
C596 C595 1.524 . S
C596 C597 1.415 . S
C597 H567 0.950 . S
C597 C592 1.363 . S
C597 C596 1.415 . S
H598 C595 0.999 1_655 S
H599 C580 0.913 . S
H600 C618 0.951 . S
H601 C620 0.951 . S
H602 C622 0.950 . S
H603 C623 0.950 . S
H604 C625 0.950 . S
H605 C628 0.950 . S
H606 C629 0.950 . S
H607 C631 0.950 . S
H608 C632 0.950 . S
H609 C633 0.951 . S
H610 C635 0.951 . S
H611 C637 0.950 . S
H612 C638 0.950 . S
H613 C640 0.950 . S
H614 C643 0.950 . S
H615 C644 0.950 . S
H616 C646 0.950 . S
H617 C647 0.950 . S
C618 H600 0.951 . S
C618 C619 1.366 . S
C618 C620 1.388 . S
C619 C618 1.366 . S
C619 C623 1.385 . S
C620 H601 0.951 . S
C620 C618 1.388 . S
C620 C621 1.366 . S
C621 C620 1.366 . S
C621 C622 1.414 . S
C621 C624 1.499 . S
C622 H602 0.950 . S
C622 C621 1.414 . S
C622 C623 1.374 . S
C623 H603 0.950 . S
C623 C619 1.385 . S
C623 C622 1.374 . S
C624 C621 1.499 . S
C624 C625 1.373 . S
C624 C626 1.389 . S
C625 H604 0.950 . S
C625 C624 1.373 . S
C625 C641 1.377 . S
C626 C624 1.389 . S
C626 C627 1.524 . S
C626 C640 1.377 . S
C627 C626 1.524 . S
C627 C628 1.397 . S
C627 C632 1.363 . S
C628 H605 0.950 . S
C628 C627 1.397 . S
C628 C629 1.334 . S
C629 H606 0.950 . S
C629 C628 1.334 . S
C629 C630 1.287 . S
C630 C629 1.287 . S
C630 C631 1.524 . S
C630 H649 0.913 . S
C631 H607 0.950 . S
C631 C630 1.524 . S
C631 C632 1.415 . S
C632 H608 0.950 . S
C632 C627 1.363 . S
C632 C631 1.415 . S
C633 H609 0.951 . S
C633 C634 1.366 . S
C633 C635 1.388 . S
C634 C633 1.366 . S
C634 C638 1.385 . S
C635 H610 0.951 . S
C635 C633 1.388 . S
C635 C636 1.366 . S
C636 C635 1.366 . S
C636 C637 1.414 . S
C636 C639 1.499 . S
C637 H611 0.950 . S
C637 C636 1.414 . S
C637 C638 1.374 . S
C638 H612 0.950 . S
C638 C634 1.385 . S
C638 C637 1.374 . S
C639 C636 1.499 . S
C639 C640 1.373 . S
C639 C641 1.389 . S
C640 H613 0.950 . S
C640 C626 1.377 . S
C640 C639 1.373 . S
C641 C625 1.377 . S
C641 C639 1.389 . S
C641 C642 1.524 . S
C642 C641 1.524 . S
C642 C643 1.397 . S
C642 C647 1.363 . S
C643 H614 0.950 . S
C643 C642 1.397 . S
C643 C644 1.334 . S
C644 H615 0.950 . S
C644 C643 1.334 . S
C644 C645 1.287 . S
C645 C644 1.287 . S
C645 C646 1.524 . S
C645 H648 0.999 . S
C646 H616 0.950 . S
C646 C645 1.524 . S
C646 C647 1.415 . S
C647 H617 0.950 . S
C647 C642 1.363 . S
C647 C646 1.415 . S
H648 C645 0.999 . S
H649 C630 0.913 . S
H650 C668 0.951 . S
H651 C670 0.951 . S
H652 C672 0.950 . S
H653 C673 0.950 . S
H654 C675 0.950 . S
H655 C678 0.950 . S
H656 C679 0.950 . S
H657 C681 0.950 . S
H658 C682 0.950 . S
H659 C683 0.951 . S
H660 C685 0.951 . S
H661 C687 0.950 . S
H662 C688 0.950 . S
H663 C690 0.950 . S
H664 C693 0.950 . S
H665 C694 0.950 . S
H666 C696 0.950 . S
H667 C697 0.950 . S
C668 H650 0.951 . S
C668 C669 1.366 . S
C668 C670 1.388 . S
C669 C668 1.366 . S
C669 C673 1.385 . S
C670 H651 0.951 . S
C670 C668 1.388 . S
C670 C671 1.366 . S
C671 C670 1.366 . S
C671 C672 1.414 . S
C671 C674 1.499 . S
C672 H652 0.950 . S
C672 C671 1.414 . S
C672 C673 1.374 . S
C673 H653 0.950 . S
C673 C669 1.385 . S
C673 C672 1.374 . S
C674 C671 1.499 . S
C674 C675 1.373 . S
C674 C676 1.389 . S
C675 H654 0.950 . S
C675 C674 1.373 . S
C675 C691 1.377 . S
C676 C674 1.389 . S
C676 C677 1.524 . S
C676 C690 1.377 . S
C677 C676 1.524 . S
C677 C678 1.397 . S
C677 C682 1.363 . S
C678 H655 0.950 . S
C678 C677 1.397 . S
C678 C679 1.334 . S
C679 H656 0.950 . S
C679 C678 1.334 . S
C679 C680 1.287 . S
C680 C679 1.287 . S
C680 C681 1.524 . S
C680 H699 0.913 . S
C681 H657 0.950 . S
C681 C680 1.524 . S
C681 C682 1.415 . S
C682 H658 0.950 . S
C682 C677 1.363 . S
C682 C681 1.415 . S
C683 H659 0.951 . S
C683 C684 1.366 . S
C683 C685 1.388 . S
C684 C683 1.366 . S
C684 C688 1.385 . S
C685 H660 0.951 . S
C685 C683 1.388 . S
C685 C686 1.366 . S
C686 C685 1.366 . S
C686 C687 1.414 . S
C686 C689 1.499 . S
C687 H661 0.950 . S
C687 C686 1.414 . S
C687 C688 1.374 . S
C688 H662 0.950 . S
C688 C684 1.385 . S
C688 C687 1.374 . S
C689 C686 1.499 . S
C689 C690 1.373 . S
C689 C691 1.389 . S
C690 H663 0.950 . S
C690 C676 1.377 . S
C690 C689 1.373 . S
C691 C675 1.377 . S
C691 C689 1.389 . S
C691 C692 1.524 . S
C692 C691 1.524 . S
C692 C693 1.397 . S
C692 C697 1.363 . S
C693 H664 0.950 . S
C693 C692 1.397 . S
C693 C694 1.334 . S
C694 H665 0.950 . S
C694 C693 1.334 . S
C694 C695 1.287 . S
C695 C694 1.287 . S
C695 C696 1.524 . S
C695 H698 0.999 . S
C696 H666 0.950 . S
C696 C695 1.524 . S
C696 C697 1.415 . S
C697 H667 0.950 . S
C697 C692 1.363 . S
C697 C696 1.415 . S
H698 C695 0.999 . S
H699 C680 0.913 . S
H700 C718 0.951 . S
H701 C720 0.951 . S
H702 C722 0.950 . S
H703 C723 0.950 . S
H704 C725 0.950 . S
H705 C728 0.950 . S
H706 C729 0.950 . S
H707 C731 0.950 . S
H708 C732 0.950 . S
H709 C733 0.951 . S
H710 C735 0.951 . S
H711 C737 0.950 . S
H712 C738 0.950 . S
H713 C740 0.950 . S
H714 C743 0.950 . S
H715 C744 0.950 . S
H716 C746 0.950 . S
H717 C747 0.950 . S
C718 H700 0.951 . S
C718 C719 1.366 . S
C718 C720 1.388 . S
C719 C718 1.366 . S
C719 C723 1.385 . S
C720 H701 0.951 . S
C720 C718 1.388 . S
C720 C721 1.366 . S
C721 C720 1.366 . S
C721 C722 1.414 . S
C721 C724 1.499 . S
C722 H702 0.950 . S
C722 C721 1.414 . S
C722 C723 1.374 . S
C723 H703 0.950 . S
C723 C719 1.385 . S
C723 C722 1.374 . S
C724 C721 1.499 . S
C724 C725 1.373 . S
C724 C726 1.389 . S
C725 H704 0.950 . S
C725 C724 1.373 . S
C725 C741 1.377 . S
C726 C724 1.389 . S
C726 C727 1.524 . S
C726 C740 1.377 . S
C727 C726 1.524 . S
C727 C728 1.397 . S
C727 C732 1.363 . S
C728 H705 0.950 . S
C728 C727 1.397 . S
C728 C729 1.334 . S
C729 H706 0.950 . S
C729 C728 1.334 . S
C729 C730 1.287 . S
C730 C729 1.287 . S
C730 C731 1.524 . S
C730 H749 0.913 . S
C731 H707 0.950 . S
C731 C730 1.524 . S
C731 C732 1.415 . S
C732 H708 0.950 . S
C732 C727 1.363 . S
C732 C731 1.415 . S
C733 H709 0.951 . S
C733 C734 1.366 . S
C733 C735 1.388 . S
C734 C733 1.366 . S
C734 C738 1.385 . S
C735 H710 0.951 . S
C735 C733 1.388 . S
C735 C736 1.366 . S
C736 C735 1.366 . S
C736 C737 1.414 . S
C736 C739 1.499 . S
C737 H711 0.950 . S
C737 C736 1.414 . S
C737 C738 1.374 . S
C738 H712 0.950 . S
C738 C734 1.385 . S
C738 C737 1.374 . S
C739 C736 1.499 . S
C739 C740 1.373 . S
C739 C741 1.389 . S
C740 H713 0.950 . S
C740 C726 1.377 . S
C740 C739 1.373 . S
C741 C725 1.377 . S
C741 C739 1.389 . S
C741 C742 1.524 . S
C742 C741 1.524 . S
C742 C743 1.397 . S
C742 C747 1.363 . S
C743 H714 0.950 . S
C743 C742 1.397 . S
C743 C744 1.334 . S
C744 H715 0.950 . S
C744 C743 1.334 . S
C744 C745 1.287 . S
C745 C744 1.287 . S
C745 C746 1.524 . S
C745 H748 0.999 . S
C746 H716 0.950 . S
C746 C745 1.524 . S
C746 C747 1.415 . S
C747 H717 0.950 . S
C747 C742 1.363 . S
C747 C746 1.415 . S
H748 C745 0.999 . S
H749 C730 0.913 . S
H750 C768 0.951 . S
H751 C770 0.951 . S
H752 C772 0.950 . S
H753 C773 0.950 . S
H754 C775 0.950 . S
H755 C778 0.950 . S
H756 C779 0.950 . S
H757 C781 0.950 . S
H758 C782 0.950 . S
H759 C783 0.951 . S
H760 C785 0.951 . S
H761 C787 0.950 . S
H762 C788 0.950 . S
H763 C790 0.950 . S
H764 C793 0.950 . S
H765 C794 0.950 . S
H766 C796 0.950 . S
H767 C797 0.950 . S
C768 H750 0.951 . S
C768 C769 1.366 . S
C768 C770 1.388 . S
C769 C768 1.366 . S
C769 C773 1.385 . S
C770 H751 0.951 . S
C770 C768 1.388 . S
C770 C771 1.366 . S
C771 C770 1.366 . S
C771 C772 1.414 . S
C771 C774 1.499 . S
C772 H752 0.950 . S
C772 C771 1.414 . S
C772 C773 1.374 . S
C773 H753 0.950 . S
C773 C769 1.385 . S
C773 C772 1.374 . S
C774 C771 1.499 . S
C774 C775 1.373 . S
C774 C776 1.389 . S
C775 H754 0.950 . S
C775 C774 1.373 . S
C775 C791 1.377 . S
C776 C774 1.389 . S
C776 C777 1.524 . S
C776 C790 1.377 . S
C777 C776 1.524 . S
C777 C778 1.397 . S
C777 C782 1.363 . S
C778 H755 0.950 . S
C778 C777 1.397 . S
C778 C779 1.334 . S
C779 H756 0.950 . S
C779 C778 1.334 . S
C779 C780 1.287 . S
C780 C779 1.287 . S
C780 C781 1.524 . S
C780 H799 0.913 . S
C781 H757 0.950 . S
C781 C780 1.524 . S
C781 C782 1.415 . S
C782 H758 0.950 . S
C782 C777 1.363 . S
C782 C781 1.415 . S
C783 H759 0.951 . S
C783 C784 1.366 . S
C783 C785 1.388 . S
C784 C783 1.366 . S
C784 C788 1.385 . S
C785 H760 0.951 . S
C785 C783 1.388 . S
C785 C786 1.366 . S
C786 C785 1.366 . S
C786 C787 1.414 . S
C786 C789 1.499 . S
C787 H761 0.950 . S
C787 C786 1.414 . S
C787 C788 1.374 . S
C788 H762 0.950 . S
C788 C784 1.385 . S
C788 C787 1.374 . S
C789 C786 1.499 . S
C789 C790 1.373 . S
C789 C791 1.389 . S
C790 H763 0.950 . S
C790 C776 1.377 . S
C790 C789 1.373 . S
C791 C775 1.377 . S
C791 C789 1.389 . S
C791 C792 1.524 . S
C792 C791 1.524 . S
C792 C793 1.397 . S
C792 C797 1.363 . S
C793 H764 0.950 . S
C793 C792 1.397 . S
C793 C794 1.334 . S
C794 H765 0.950 . S
C794 C793 1.334 . S
C794 C795 1.287 . S
C795 C794 1.287 . S
C795 C796 1.524 . S
C795 H798 0.999 . S
C796 H766 0.950 . S
C796 C795 1.524 . S
C796 C797 1.415 . S
C797 H767 0.950 . S
C797 C792 1.363 . S
C797 C796 1.415 . S
H798 C795 0.999 . S
H799 C780 0.913 . S
H800 C818 0.951 . S
H801 C820 0.951 . S
H802 C822 0.950 . S
H803 C823 0.950 . S
H804 C825 0.950 . S
H805 C828 0.950 . S
H806 C829 0.950 . S
H807 C831 0.950 . S
H808 C832 0.950 . S
H809 C833 0.951 . S
H810 C835 0.951 . S
H811 C837 0.950 . S
H812 C838 0.950 . S
H813 C840 0.950 . S
H814 C843 0.950 . S
H815 C844 0.950 . S
H816 C846 0.950 . S
H817 C847 0.950 . S
C818 H800 0.951 . S
C818 C819 1.366 . S
C818 C820 1.388 . S
C819 C818 1.366 . S
C819 C823 1.385 . S
C820 H801 0.951 . S
C820 C818 1.388 . S
C820 C821 1.366 . S
C821 C820 1.366 . S
C821 C822 1.414 . S
C821 C824 1.499 . S
C822 H802 0.950 . S
C822 C821 1.414 . S
C822 C823 1.374 . S
C823 H803 0.950 . S
C823 C819 1.385 . S
C823 C822 1.374 . S
C824 C821 1.499 . S
C824 C825 1.373 . S
C824 C826 1.389 . S
C825 H804 0.950 . S
C825 C824 1.373 . S
C825 C841 1.377 . S
C826 C824 1.389 . S
C826 C827 1.524 . S
C826 C840 1.377 . S
C827 C826 1.524 . S
C827 C828 1.397 . S
C827 C832 1.363 . S
C828 H805 0.950 . S
C828 C827 1.397 . S
C828 C829 1.334 . S
C829 H806 0.950 . S
C829 C828 1.334 . S
C829 C830 1.287 . S
C830 C829 1.287 . S
C830 C831 1.524 . S
C830 H849 0.913 . S
C831 H807 0.950 . S
C831 C830 1.524 . S
C831 C832 1.415 . S
C832 H808 0.950 . S
C832 C827 1.363 . S
C832 C831 1.415 . S
C833 H809 0.951 . S
C833 C834 1.366 . S
C833 C835 1.388 . S
C834 C833 1.366 . S
C834 C838 1.385 . S
C835 H810 0.951 . S
C835 C833 1.388 . S
C835 C836 1.366 . S
C836 C835 1.366 . S
C836 C837 1.414 . S
C836 C839 1.499 . S
C837 H811 0.950 . S
C837 C836 1.414 . S
C837 C838 1.374 . S
C838 H812 0.950 . S
C838 C834 1.385 . S
C838 C837 1.374 . S
C839 C836 1.499 . S
C839 C840 1.373 . S
C839 C841 1.389 . S
C840 H813 0.950 . S
C840 C826 1.377 . S
C840 C839 1.373 . S
C841 C825 1.377 . S
C841 C839 1.389 . S
C841 C842 1.524 . S
C842 C841 1.524 . S
C842 C843 1.397 . S
C842 C847 1.363 . S
C843 H814 0.950 . S
C843 C842 1.397 . S
C843 C844 1.334 . S
C844 H815 0.950 . S
C844 C843 1.334 . S
C844 C845 1.287 . S
C845 C844 1.287 . S
C845 C846 1.524 . S
C845 H848 0.999 . S
C846 H816 0.950 . S
C846 C845 1.524 . S
C846 C847 1.415 . S
C847 H817 0.950 . S
C847 C842 1.363 . S
C847 C846 1.415 . S
H848 C845 0.999 . S
H849 C830 0.913 . S
H850 C868 0.951 . S
H851 C870 0.951 . S
H852 C872 0.950 . S
H853 C873 0.950 . S
H854 C875 0.950 . S
H855 C878 0.950 . S
H856 C879 0.950 . S
H857 C881 0.950 . S
H858 C882 0.950 . S
H859 C883 0.951 . S
H860 C885 0.951 . S
H861 C887 0.950 . S
H862 C888 0.950 . S
H863 C890 0.950 . S
H864 C893 0.950 . S
H865 C894 0.950 . S
H866 C896 0.950 . S
H867 C897 0.950 . S
C868 H850 0.951 . S
C868 C869 1.366 . S
C868 C870 1.388 . S
C869 C868 1.366 . S
C869 C873 1.385 . S
C870 H851 0.951 . S
C870 C868 1.388 . S
C870 C871 1.366 . S
C871 C870 1.366 . S
C871 C872 1.414 . S
C871 C874 1.499 . S
C872 H852 0.950 . S
C872 C871 1.414 . S
C872 C873 1.374 . S
C873 H853 0.950 . S
C873 C869 1.385 . S
C873 C872 1.374 . S
C874 C871 1.499 . S
C874 C875 1.373 . S
C874 C876 1.389 . S
C875 H854 0.950 . S
C875 C874 1.373 . S
C875 C891 1.377 . S
C876 C874 1.389 . S
C876 C877 1.524 . S
C876 C890 1.377 . S
C877 C876 1.524 . S
C877 C878 1.397 . S
C877 C882 1.363 . S
C878 H855 0.950 . S
C878 C877 1.397 . S
C878 C879 1.334 . S
C879 H856 0.950 . S
C879 C878 1.334 . S
C879 C880 1.287 . S
C880 C879 1.287 . S
C880 C881 1.524 . S
C880 H899 0.913 . S
C881 H857 0.950 . S
C881 C880 1.524 . S
C881 C882 1.415 . S
C882 H858 0.950 . S
C882 C877 1.363 . S
C882 C881 1.415 . S
C883 H859 0.951 . S
C883 C884 1.366 . S
C883 C885 1.388 . S
C884 C883 1.366 . S
C884 C888 1.385 . S
C885 H860 0.951 . S
C885 C883 1.388 . S
C885 C886 1.366 . S
C886 C885 1.366 . S
C886 C887 1.414 . S
C886 C889 1.499 . S
C887 H861 0.950 . S
C887 C886 1.414 . S
C887 C888 1.374 . S
C888 H862 0.950 . S
C888 C884 1.385 . S
C888 C887 1.374 . S
C889 C886 1.499 . S
C889 C890 1.373 . S
C889 C891 1.389 . S
C890 H863 0.950 . S
C890 C876 1.377 . S
C890 C889 1.373 . S
C891 C875 1.377 . S
C891 C889 1.389 . S
C891 C892 1.524 . S
C892 C891 1.524 . S
C892 C893 1.397 . S
C892 C897 1.363 . S
C893 H864 0.950 . S
C893 C892 1.397 . S
C893 C894 1.334 . S
C894 H865 0.950 . S
C894 C893 1.334 . S
C894 C895 1.287 . S
C895 C894 1.287 . S
C895 C896 1.524 . S
C895 H898 0.999 . S
C896 H866 0.950 . S
C896 C895 1.524 . S
C896 C897 1.415 . S
C897 H867 0.950 . S
C897 C892 1.363 . S
C897 C896 1.415 . S
H898 C895 0.999 . S
H899 C880 0.913 . S
H900 C918 0.951 . S
H901 C920 0.951 . S
H902 C922 0.950 . S
H903 C923 0.950 . S
H904 C925 0.950 . S
H905 C928 0.950 . S
H906 C929 0.950 . S
H907 C931 0.950 . S
H908 C932 0.950 . S
H909 C933 0.951 . S
H910 C935 0.951 . S
H911 C937 0.950 . S
H912 C938 0.950 . S
H913 C940 0.950 . S
H914 C943 0.950 . S
H915 C944 0.950 . S
H916 C946 0.950 . S
H917 C947 0.950 . S
C918 H900 0.951 . S
C918 C919 1.366 . S
C918 C920 1.388 . S
C919 C918 1.366 . S
C919 C923 1.385 . S
C920 H901 0.951 . S
C920 C918 1.388 . S
C920 C921 1.366 . S
C921 C920 1.366 . S
C921 C922 1.414 . S
C921 C924 1.499 . S
C922 H902 0.950 . S
C922 C921 1.414 . S
C922 C923 1.374 . S
C923 H903 0.950 . S
C923 C919 1.385 . S
C923 C922 1.374 . S
C924 C921 1.499 . S
C924 C925 1.373 . S
C924 C926 1.389 . S
C925 H904 0.950 . S
C925 C924 1.373 . S
C925 C941 1.377 . S
C926 C924 1.389 . S
C926 C927 1.524 . S
C926 C940 1.377 . S
C927 C926 1.524 . S
C927 C928 1.397 . S
C927 C932 1.363 . S
C928 H905 0.950 . S
C928 C927 1.397 . S
C928 C929 1.334 . S
C929 H906 0.950 . S
C929 C928 1.334 . S
C929 C930 1.287 . S
C930 C929 1.287 . S
C930 C931 1.524 . S
C930 H949 0.913 . S
C931 H907 0.950 . S
C931 C930 1.524 . S
C931 C932 1.415 . S
C932 H908 0.950 . S
C932 C927 1.363 . S
C932 C931 1.415 . S
C933 H909 0.951 . S
C933 C934 1.366 . S
C933 C935 1.388 . S
C934 C933 1.366 . S
C934 C938 1.385 . S
C935 H910 0.951 . S
C935 C933 1.388 . S
C935 C936 1.366 . S
C936 C935 1.366 . S
C936 C937 1.414 . S
C936 C939 1.499 . S
C937 H911 0.950 . S
C937 C936 1.414 . S
C937 C938 1.374 . S
C938 H912 0.950 . S
C938 C934 1.385 . S
C938 C937 1.374 . S
C939 C936 1.499 . S
C939 C940 1.373 . S
C939 C941 1.389 . S
C940 H913 0.950 . S
C940 C926 1.377 . S
C940 C939 1.373 . S
C941 C925 1.377 . S
C941 C939 1.389 . S
C941 C942 1.524 . S
C942 C941 1.524 . S
C942 C943 1.397 . S
C942 C947 1.363 . S
C943 H914 0.950 . S
C943 C942 1.397 . S
C943 C944 1.334 . S
C944 H915 0.950 . S
C944 C943 1.334 . S
C944 C945 1.287 . S
C945 C944 1.287 . S
C945 C946 1.524 . S
C945 H948 0.999 . S
C946 H916 0.950 . S
C946 C945 1.524 . S
C946 C947 1.415 . S
C947 H917 0.950 . S
C947 C942 1.363 . S
C947 C946 1.415 . S
H948 C945 0.999 . S
H949 C930 0.913 . S
H950 C968 0.951 . S
H951 C970 0.951 . S
H952 C972 0.950 . S
H953 C973 0.950 . S
H954 C975 0.950 . S
H955 C978 0.950 . S
H956 C979 0.950 . S
H957 C981 0.950 . S
H958 C982 0.950 . S
H959 C983 0.951 . S
H960 C985 0.951 . S
H961 C987 0.950 . S
H962 C988 0.950 . S
H963 C990 0.950 . S
H964 C993 0.950 . S
H965 C994 0.950 . S
H966 C996 0.950 . S
H967 C997 0.950 . S
C968 H950 0.951 . S
C968 C969 1.366 . S
C968 C970 1.388 . S
C969 C968 1.366 . S
C969 C973 1.385 . S
C970 H951 0.951 . S
C970 C968 1.388 . S
C970 C971 1.366 . S
C971 C970 1.366 . S
C971 C972 1.414 . S
C971 C974 1.499 . S
C972 H952 0.950 . S
C972 C971 1.414 . S
C972 C973 1.374 . S
C973 H953 0.950 . S
C973 C969 1.385 . S
C973 C972 1.374 . S
C974 C971 1.499 . S
C974 C975 1.373 . S
C974 C976 1.389 . S
C975 H954 0.950 . S
C975 C974 1.373 . S
C975 C991 1.377 . S
C976 C974 1.389 . S
C976 C977 1.524 . S
C976 C990 1.377 . S
C977 C976 1.524 . S
C977 C978 1.397 . S
C977 C982 1.363 . S
C978 H955 0.950 . S
C978 C977 1.397 . S
C978 C979 1.334 . S
C979 H956 0.950 . S
C979 C978 1.334 . S
C979 C980 1.287 . S
C980 C979 1.287 . S
C980 C981 1.524 . S
C980 H999 0.913 . S
C981 H957 0.950 . S
C981 C980 1.524 . S
C981 C982 1.415 . S
C982 H958 0.950 . S
C982 C977 1.363 . S
C982 C981 1.415 . S
C983 H959 0.951 . S
C983 C984 1.366 . S
C983 C985 1.388 . S
C984 C983 1.366 . S
C984 C988 1.385 . S
C985 H960 0.951 . S
C985 C983 1.388 . S
C985 C986 1.366 . S
C986 C985 1.366 . S
C986 C987 1.414 . S
C986 C989 1.499 . S
C987 H961 0.950 . S
C987 C986 1.414 . S
C987 C988 1.374 . S
C988 H962 0.950 . S
C988 C984 1.385 . S
C988 C987 1.374 . S
C989 C986 1.499 . S
C989 C990 1.373 . S
C989 C991 1.389 . S
C990 H963 0.950 . S
C990 C976 1.377 . S
C990 C989 1.373 . S
C991 C975 1.377 . S
C991 C989 1.389 . S
C991 C992 1.524 . S
C992 C991 1.524 . S
C992 C993 1.397 . S
C992 C997 1.363 . S
C993 H964 0.950 . S
C993 C992 1.397 . S
C993 C994 1.334 . S
C994 H965 0.950 . S
C994 C993 1.334 . S
C994 C995 1.287 . S
C995 C994 1.287 . S
C995 C996 1.524 . S
C995 H998 0.999 . S
C996 H966 0.950 . S
C996 C995 1.524 . S
C996 C997 1.415 . S
C997 H967 0.950 . S
C997 C992 1.363 . S
C997 C996 1.415 . S
H998 C995 0.999 . S
H999 C980 0.913 . S
H1000 C1018 0.951 . S
H1001 C1020 0.950 . S
H1002 C1022 0.950 . S
H1003 C1023 0.950 . S
H1004 C1025 0.950 . S
H1005 C1028 0.950 . S
H1006 C1029 0.950 . S
H1007 C1031 0.950 . S
H1008 C1032 0.950 1_545 S
H1009 C1033 0.951 . S
H1010 C1035 0.951 . S
H1011 C1037 0.950 . S
H1012 C1038 0.950 . S
H1013 C1040 0.950 . S
H1014 C1043 0.950 . S
H1015 C1044 0.950 . S
H1016 C1046 0.950 . S
H1017 C1047 0.950 . S
C1018 H1000 0.951 . S
C1018 C1019 1.366 . S
C1018 C1020 1.386 1_565 S
C1019 C1018 1.366 . S
C1019 C1023 1.385 . S
C1020 H1001 0.950 . S
C1020 C1018 1.386 1_545 S
C1020 C1021 1.367 . S
C1021 C1020 1.367 . S
C1021 C1022 1.414 . S
C1021 C1024 1.499 . S
C1022 H1002 0.950 . S
C1022 C1021 1.414 . S
C1022 C1023 1.374 1_545 S
C1023 H1003 0.950 . S
C1023 C1019 1.385 . S
C1023 C1022 1.374 1_565 S
C1024 C1021 1.499 . S
C1024 C1025 1.373 . S
C1024 C1026 1.389 . S
C1025 H1004 0.950 . S
C1025 C1024 1.373 . S
C1025 C1041 1.377 . S
C1026 C1024 1.389 . S
C1026 C1027 1.524 . S
C1026 C1040 1.377 . S
C1027 C1026 1.524 . S
C1027 C1028 1.397 1_545 S
C1027 C1032 1.363 1_545 S
C1028 H1005 0.950 . S
C1028 C1027 1.397 1_565 S
C1028 C1029 1.334 . S
C1029 H1006 0.950 . S
C1029 C1028 1.334 . S
C1029 C1030 1.287 . S
C1030 C1029 1.287 . S
C1030 C1031 1.524 . S
C1030 H1049 0.913 . S
C1031 H1007 0.950 . S
C1031 C1030 1.524 . S
C1031 C1032 1.415 . S
C1032 H1008 0.950 1_565 S
C1032 C1027 1.363 1_565 S
C1032 C1031 1.415 . S
C1033 H1009 0.951 . S
C1033 C1034 1.366 . S
C1033 C1035 1.388 . S
C1034 C1033 1.366 . S
C1034 C1038 1.385 . S
C1035 H1010 0.951 . S
C1035 C1033 1.388 . S
C1035 C1036 1.366 . S
C1036 C1035 1.366 . S
C1036 C1037 1.414 . S
C1036 C1039 1.499 . S
C1037 H1011 0.950 . S
C1037 C1036 1.414 . S
C1037 C1038 1.374 . S
C1038 H1012 0.950 . S
C1038 C1034 1.385 . S
C1038 C1037 1.374 . S
C1039 C1036 1.499 . S
C1039 C1040 1.373 . S
C1039 C1041 1.389 . S
C1040 H1013 0.950 . S
C1040 C1026 1.377 . S
C1040 C1039 1.373 . S
C1041 C1025 1.377 . S
C1041 C1039 1.389 . S
C1041 C1042 1.524 . S
C1042 C1041 1.524 . S
C1042 C1043 1.397 . S
C1042 C1047 1.363 . S
C1043 H1014 0.950 . S
C1043 C1042 1.397 . S
C1043 C1044 1.334 . S
C1044 H1015 0.950 . S
C1044 C1043 1.334 . S
C1044 C1045 1.287 . S
C1045 C1044 1.287 . S
C1045 C1046 1.524 . S
C1045 H1048 0.999 . S
C1046 H1016 0.950 . S
C1046 C1045 1.524 . S
C1046 C1047 1.415 . S
C1047 H1017 0.950 . S
C1047 C1042 1.363 . S
C1047 C1046 1.415 . S
H1048 C1045 0.999 . S
H1049 C1030 0.913 . S
H1050 C1068 0.951 . S
H1051 C1070 0.951 . S
H1052 C1072 0.950 . S
H1053 C1073 0.950 . S
H1054 C1075 0.950 . S
H1055 C1078 0.950 . S
H1056 C1079 0.950 . S
H1057 C1081 0.950 . S
H1058 C1082 0.950 . S
H1059 C1083 0.951 . S
H1060 C1085 0.951 . S
H1061 C1087 0.950 . S
H1062 C1088 0.950 . S
H1063 C1090 0.950 . S
H1064 C1093 0.950 . S
H1065 C1094 0.950 . S
H1066 C1096 0.950 . S
H1067 C1097 0.950 . S
C1068 H1050 0.951 . S
C1068 C1069 1.366 . S
C1068 C1070 1.388 1_545 S
C1069 C1068 1.366 . S
C1069 C1073 1.385 . S
C1070 H1051 0.951 . S
C1070 C1068 1.388 1_565 S
C1070 C1071 1.366 . S
C1071 C1070 1.366 . S
C1071 C1072 1.414 . S
C1071 C1074 1.499 . S
C1072 H1052 0.950 . S
C1072 C1071 1.414 . S
C1072 C1073 1.374 1_565 S
C1073 H1053 0.950 . S
C1073 C1069 1.385 . S
C1073 C1072 1.374 1_545 S
C1074 C1071 1.499 . S
C1074 C1075 1.373 . S
C1074 C1076 1.389 . S
C1075 H1054 0.950 . S
C1075 C1074 1.373 . S
C1075 C1091 1.377 . S
C1076 C1074 1.389 . S
C1076 C1077 1.524 . S
C1076 C1090 1.377 . S
C1077 C1076 1.524 . S
C1077 C1078 1.397 . S
C1077 C1082 1.363 . S
C1078 H1055 0.950 . S
C1078 C1077 1.397 . S
C1078 C1079 1.334 . S
C1079 H1056 0.950 . S
C1079 C1078 1.334 . S
C1079 C1080 1.287 . S
C1080 C1079 1.287 . S
C1080 C1081 1.524 . S
C1080 H1099 0.913 . S
C1081 H1057 0.950 . S
C1081 C1080 1.524 . S
C1081 C1082 1.415 . S
C1082 H1058 0.950 . S
C1082 C1077 1.363 . S
C1082 C1081 1.415 . S
C1083 H1059 0.951 . S
C1083 C1084 1.366 . S
C1083 C1085 1.388 . S
C1084 C1083 1.366 . S
C1084 C1088 1.385 . S
C1085 H1060 0.951 . S
C1085 C1083 1.388 . S
C1085 C1086 1.366 . S
C1086 C1085 1.366 . S
C1086 C1087 1.414 . S
C1086 C1089 1.499 . S
C1087 H1061 0.950 . S
C1087 C1086 1.414 . S
C1087 C1088 1.374 . S
C1088 H1062 0.950 . S
C1088 C1084 1.385 . S
C1088 C1087 1.374 . S
C1089 C1086 1.499 . S
C1089 C1090 1.373 . S
C1089 C1091 1.389 . S
C1090 H1063 0.950 . S
C1090 C1076 1.377 . S
C1090 C1089 1.373 . S
C1091 C1075 1.377 . S
C1091 C1089 1.389 . S
C1091 C1092 1.524 . S
C1092 C1091 1.524 . S
C1092 C1093 1.397 . S
C1092 C1097 1.363 . S
C1093 H1064 0.950 . S
C1093 C1092 1.397 . S
C1093 C1094 1.334 . S
C1094 H1065 0.950 . S
C1094 C1093 1.334 . S
C1094 C1095 1.287 . S
C1095 C1094 1.287 . S
C1095 C1096 1.524 . S
C1095 H1098 0.999 . S
C1096 H1066 0.950 . S
C1096 C1095 1.524 . S
C1096 C1097 1.415 . S
C1097 H1067 0.950 . S
C1097 C1092 1.363 . S
C1097 C1096 1.415 . S
H1098 C1095 0.999 . S
H1099 C1080 0.913 . S
H1100 C1118 0.951 . S
H1101 C1120 0.951 . S
H1102 C1122 0.950 . S
H1103 C1123 0.950 . S
H1104 C1125 0.950 . S
H1105 C1128 0.950 . S
H1106 C1129 0.950 . S
H1107 C1131 0.950 . S
H1108 C1132 0.950 . S
H1109 C1133 0.951 . S
H1110 C1135 0.951 . S
H1111 C1137 0.950 . S
H1112 C1138 0.950 . S
H1113 C1140 0.950 . S
H1114 C1143 0.950 . S
H1115 C1144 0.950 . S
H1116 C1146 0.950 . S
H1117 C1147 0.950 . S
C1118 H1100 0.951 . S
C1118 C1119 1.366 . S
C1118 C1120 1.388 1_565 S
C1119 C1118 1.366 . S
C1119 C1123 1.385 1_565 S
C1120 H1101 0.951 . S
C1120 C1118 1.388 1_545 S
C1120 C1121 1.366 . S
C1121 C1120 1.366 . S
C1121 C1122 1.414 . S
C1121 C1124 1.499 . S
C1122 H1102 0.950 . S
C1122 C1121 1.414 . S
C1122 C1123 1.374 . S
C1123 H1103 0.950 . S
C1123 C1119 1.385 1_545 S
C1123 C1122 1.374 . S
C1124 C1121 1.499 . S
C1124 C1125 1.373 . S
C1124 C1126 1.389 . S
C1125 H1104 0.950 . S
C1125 C1124 1.373 . S
C1125 C1141 1.377 . S
C1126 C1124 1.389 . S
C1126 C1127 1.524 . S
C1126 C1140 1.377 . S
C1127 C1126 1.524 . S
C1127 C1128 1.397 . S
C1127 C1132 1.363 . S
C1128 H1105 0.950 . S
C1128 C1127 1.397 . S
C1128 C1129 1.334 . S
C1129 H1106 0.950 . S
C1129 C1128 1.334 . S
C1129 C1130 1.287 . S
C1130 C1129 1.287 . S
C1130 C1131 1.524 . S
C1130 H1149 0.913 . S
C1131 H1107 0.950 . S
C1131 C1130 1.524 . S
C1131 C1132 1.415 . S
C1132 H1108 0.950 . S
C1132 C1127 1.363 . S
C1132 C1131 1.415 . S
C1133 H1109 0.951 . S
C1133 C1134 1.366 . S
C1133 C1135 1.388 . S
C1134 C1133 1.366 . S
C1134 C1138 1.385 . S
C1135 H1110 0.951 . S
C1135 C1133 1.388 . S
C1135 C1136 1.366 . S
C1136 C1135 1.366 . S
C1136 C1137 1.414 . S
C1136 C1139 1.499 . S
C1137 H1111 0.950 . S
C1137 C1136 1.414 . S
C1137 C1138 1.374 . S
C1138 H1112 0.950 . S
C1138 C1134 1.385 . S
C1138 C1137 1.374 . S
C1139 C1136 1.499 . S
C1139 C1140 1.373 . S
C1139 C1141 1.389 . S
C1140 H1113 0.950 . S
C1140 C1126 1.377 . S
C1140 C1139 1.373 . S
C1141 C1125 1.377 . S
C1141 C1139 1.389 . S
C1141 C1142 1.524 . S
C1142 C1141 1.524 . S
C1142 C1143 1.397 . S
C1142 C1147 1.363 . S
C1143 H1114 0.950 . S
C1143 C1142 1.397 . S
C1143 C1144 1.334 . S
C1144 H1115 0.950 . S
C1144 C1143 1.334 . S
C1144 C1145 1.287 . S
C1145 C1144 1.287 . S
C1145 C1146 1.524 . S
C1145 H1148 0.999 . S
C1146 H1116 0.950 . S
C1146 C1145 1.524 . S
C1146 C1147 1.415 . S
C1147 H1117 0.950 . S
C1147 C1142 1.363 . S
C1147 C1146 1.415 . S
H1148 C1145 0.999 . S
H1149 C1130 0.913 . S
H1150 C1168 0.951 . S
H1151 C1170 0.951 . S
H1152 C1172 0.950 . S
H1153 C1173 0.950 . S
H1154 C1175 0.950 . S
H1155 C1178 0.950 . S
H1156 C1179 0.950 . S
H1157 C1181 0.950 . S
H1158 C1182 0.950 1_565 S
H1159 C1183 0.951 . S
H1160 C1185 0.951 . S
H1161 C1187 0.950 . S
H1162 C1188 0.950 . S
H1163 C1190 0.950 . S
H1164 C1193 0.950 . S
H1165 C1194 0.950 . S
H1166 C1196 0.950 . S
H1167 C1197 0.950 . S
C1168 H1150 0.951 . S
C1168 C1169 1.366 . S
C1168 C1170 1.388 1_545 S
C1169 C1168 1.366 . S
C1169 C1173 1.385 1_545 S
C1170 H1151 0.951 . S
C1170 C1168 1.388 1_565 S
C1170 C1171 1.366 . S
C1171 C1170 1.366 . S
C1171 C1172 1.414 . S
C1171 C1174 1.499 . S
C1172 H1152 0.950 . S
C1172 C1171 1.414 . S
C1172 C1173 1.374 . S
C1173 H1153 0.950 . S
C1173 C1169 1.385 1_565 S
C1173 C1172 1.374 . S
C1174 C1171 1.499 . S
C1174 C1175 1.373 . S
C1174 C1176 1.389 . S
C1175 H1154 0.950 . S
C1175 C1174 1.373 . S
C1175 C1191 1.377 . S
C1176 C1174 1.389 . S
C1176 C1177 1.524 . S
C1176 C1190 1.377 . S
C1177 C1176 1.524 . S
C1177 C1178 1.397 1_565 S
C1177 C1182 1.363 1_565 S
C1178 H1155 0.950 . S
C1178 C1177 1.397 1_545 S
C1178 C1179 1.334 . S
C1179 H1156 0.950 . S
C1179 C1178 1.334 . S
C1179 C1180 1.287 . S
C1180 C1179 1.287 . S
C1180 C1181 1.524 . S
C1180 H1199 0.913 . S
C1181 H1157 0.950 . S
C1181 C1180 1.524 . S
C1181 C1182 1.415 . S
C1182 H1158 0.950 1_545 S
C1182 C1177 1.363 1_545 S
C1182 C1181 1.415 . S
C1183 H1159 0.951 . S
C1183 C1184 1.366 . S
C1183 C1185 1.388 . S
C1184 C1183 1.366 . S
C1184 C1188 1.385 . S
C1185 H1160 0.951 . S
C1185 C1183 1.388 . S
C1185 C1186 1.366 . S
C1186 C1185 1.366 . S
C1186 C1187 1.414 . S
C1186 C1189 1.499 . S
C1187 H1161 0.950 . S
C1187 C1186 1.414 . S
C1187 C1188 1.374 . S
C1188 H1162 0.950 . S
C1188 C1184 1.385 . S
C1188 C1187 1.374 . S
C1189 C1186 1.499 . S
C1189 C1190 1.373 . S
C1189 C1191 1.389 . S
C1190 H1163 0.950 . S
C1190 C1176 1.377 . S
C1190 C1189 1.373 . S
C1191 C1175 1.377 . S
C1191 C1189 1.389 . S
C1191 C1192 1.524 . S
C1192 C1191 1.524 . S
C1192 C1193 1.397 . S
C1192 C1197 1.363 . S
C1193 H1164 0.950 . S
C1193 C1192 1.397 . S
C1193 C1194 1.334 . S
C1194 H1165 0.950 . S
C1194 C1193 1.334 . S
C1194 C1195 1.287 . S
C1195 C1194 1.287 . S
C1195 C1196 1.524 . S
C1195 H1198 0.999 . S
C1196 H1166 0.950 . S
C1196 C1195 1.524 . S
C1196 C1197 1.415 . S
C1197 H1167 0.950 . S
C1197 C1192 1.363 . S
C1197 C1196 1.415 . S
H1198 C1195 0.999 . S
H1199 C1180 0.913 . S
H1200 C1218 0.951 . S
H1201 C1220 0.951 . S
H1202 C1222 0.950 . S
H1203 C1223 0.950 . S
H1204 C1225 0.950 . S
H1205 C1228 0.950 . S
H1206 C1229 0.950 . S
H1207 C1231 0.950 . S
H1208 C1232 0.950 . S
H1209 C1233 0.951 . S
H1210 C1235 0.951 . S
H1211 C1237 0.950 . S
H1212 C1238 0.950 . S
H1213 C1240 0.950 . S
H1214 C1243 0.950 . S
H1215 C1244 0.950 . S
H1216 C1246 0.950 . S
H1217 C1247 0.950 . S
C1218 H1200 0.951 . S
C1218 C1219 1.366 . S
C1218 C1220 1.388 . S
C1219 C1218 1.366 . S
C1219 C1223 1.385 . S
C1220 H1201 0.951 . S
C1220 C1218 1.388 . S
C1220 C1221 1.366 . S
C1221 C1220 1.366 . S
C1221 C1222 1.414 . S
C1221 C1224 1.499 . S
C1222 H1202 0.950 . S
C1222 C1221 1.414 . S
C1222 C1223 1.374 . S
C1223 H1203 0.950 . S
C1223 C1219 1.385 . S
C1223 C1222 1.374 . S
C1224 C1221 1.499 . S
C1224 C1225 1.373 . S
C1224 C1226 1.389 . S
C1225 H1204 0.950 . S
C1225 C1224 1.373 . S
C1225 C1241 1.377 . S
C1226 C1224 1.389 . S
C1226 C1227 1.524 . S
C1226 C1240 1.377 . S
C1227 C1226 1.524 . S
C1227 C1228 1.397 . S
C1227 C1232 1.363 . S
C1228 H1205 0.950 . S
C1228 C1227 1.397 . S
C1228 C1229 1.334 . S
C1229 H1206 0.950 . S
C1229 C1228 1.334 . S
C1229 C1230 1.287 . S
C1230 C1229 1.287 . S
C1230 C1231 1.524 . S
C1230 H1249 0.913 . S
C1231 H1207 0.950 . S
C1231 C1230 1.524 . S
C1231 C1232 1.415 . S
C1232 H1208 0.950 . S
C1232 C1227 1.363 . S
C1232 C1231 1.415 . S
C1233 H1209 0.951 . S
C1233 C1234 1.366 . S
C1233 C1235 1.388 . S
C1234 C1233 1.366 . S
C1234 C1238 1.385 . S
C1235 H1210 0.951 . S
C1235 C1233 1.388 . S
C1235 C1236 1.366 . S
C1236 C1235 1.366 . S
C1236 C1237 1.414 . S
C1236 C1239 1.499 . S
C1237 H1211 0.950 . S
C1237 C1236 1.414 . S
C1237 C1238 1.374 . S
C1238 H1212 0.950 . S
C1238 C1234 1.385 . S
C1238 C1237 1.374 . S
C1239 C1236 1.499 . S
C1239 C1240 1.373 . S
C1239 C1241 1.389 . S
C1240 H1213 0.950 . S
C1240 C1226 1.377 . S
C1240 C1239 1.373 . S
C1241 C1225 1.377 . S
C1241 C1239 1.389 . S
C1241 C1242 1.524 . S
C1242 C1241 1.524 . S
C1242 C1243 1.397 . S
C1242 C1247 1.363 . S
C1243 H1214 0.950 . S
C1243 C1242 1.397 . S
C1243 C1244 1.334 . S
C1244 H1215 0.950 . S
C1244 C1243 1.334 . S
C1244 C1245 1.287 . S
C1245 C1244 1.287 . S
C1245 C1246 1.524 . S
C1245 H1248 0.999 . S
C1246 H1216 0.950 . S
C1246 C1245 1.524 . S
C1246 C1247 1.415 . S
C1247 H1217 0.950 . S
C1247 C1242 1.363 . S
C1247 C1246 1.415 . S
H1248 C1245 0.999 . S
H1249 C1230 0.913 . S
H1250 C1268 0.951 . S
H1251 C1270 0.951 . S
H1252 C1272 0.950 . S
H1253 C1273 0.950 . S
H1254 C1275 0.950 . S
H1255 C1278 0.950 . S
H1256 C1279 0.950 . S
H1257 C1281 0.950 . S
H1258 C1282 0.950 . S
H1259 C1283 0.951 . S
H1260 C1285 0.951 . S
H1261 C1287 0.950 . S
H1262 C1288 0.950 . S
H1263 C1290 0.950 . S
H1264 C1293 0.950 . S
H1265 C1294 0.950 . S
H1266 C1296 0.950 . S
H1267 C1297 0.950 . S
C1268 H1250 0.951 . S
C1268 C1269 1.366 . S
C1268 C1270 1.388 . S
C1269 C1268 1.366 . S
C1269 C1273 1.385 . S
C1270 H1251 0.951 . S
C1270 C1268 1.388 . S
C1270 C1271 1.366 . S
C1271 C1270 1.366 . S
C1271 C1272 1.414 . S
C1271 C1274 1.499 . S
C1272 H1252 0.950 . S
C1272 C1271 1.414 . S
C1272 C1273 1.374 . S
C1273 H1253 0.950 . S
C1273 C1269 1.385 . S
C1273 C1272 1.374 . S
C1274 C1271 1.499 . S
C1274 C1275 1.373 . S
C1274 C1276 1.389 . S
C1275 H1254 0.950 . S
C1275 C1274 1.373 . S
C1275 C1291 1.377 . S
C1276 C1274 1.389 . S
C1276 C1277 1.524 . S
C1276 C1290 1.377 . S
C1277 C1276 1.524 . S
C1277 C1278 1.397 . S
C1277 C1282 1.363 . S
C1278 H1255 0.950 . S
C1278 C1277 1.397 . S
C1278 C1279 1.334 . S
C1279 H1256 0.950 . S
C1279 C1278 1.334 . S
C1279 C1280 1.287 . S
C1280 C1279 1.287 . S
C1280 C1281 1.524 . S
C1280 H1299 0.913 . S
C1281 H1257 0.950 . S
C1281 C1280 1.524 . S
C1281 C1282 1.415 . S
C1282 H1258 0.950 . S
C1282 C1277 1.363 . S
C1282 C1281 1.415 . S
C1283 H1259 0.951 . S
C1283 C1284 1.366 . S
C1283 C1285 1.388 . S
C1284 C1283 1.366 . S
C1284 C1288 1.385 . S
C1285 H1260 0.951 . S
C1285 C1283 1.388 . S
C1285 C1286 1.366 . S
C1286 C1285 1.366 . S
C1286 C1287 1.414 . S
C1286 C1289 1.499 . S
C1287 H1261 0.950 . S
C1287 C1286 1.414 . S
C1287 C1288 1.374 . S
C1288 H1262 0.950 . S
C1288 C1284 1.385 . S
C1288 C1287 1.374 . S
C1289 C1286 1.499 . S
C1289 C1290 1.373 . S
C1289 C1291 1.389 . S
C1290 H1263 0.950 . S
C1290 C1276 1.377 . S
C1290 C1289 1.373 . S
C1291 C1275 1.377 . S
C1291 C1289 1.389 . S
C1291 C1292 1.524 . S
C1292 C1291 1.524 . S
C1292 C1293 1.397 . S
C1292 C1297 1.363 . S
C1293 H1264 0.950 . S
C1293 C1292 1.397 . S
C1293 C1294 1.334 . S
C1294 H1265 0.950 . S
C1294 C1293 1.334 . S
C1294 C1295 1.287 . S
C1295 C1294 1.287 . S
C1295 C1296 1.524 . S
C1295 H1298 0.999 . S
C1296 H1266 0.950 . S
C1296 C1295 1.524 . S
C1296 C1297 1.415 . S
C1297 H1267 0.950 . S
C1297 C1292 1.363 . S
C1297 C1296 1.415 . S
H1298 C1295 0.999 . S
H1299 C1280 0.913 . S
H1300 C1318 0.951 . S
H1301 C1320 0.951 . S
H1302 C1322 0.950 . S
H1303 C1323 0.950 . S
H1304 C1325 0.950 . S
H1305 C1328 0.950 . S
H1306 C1329 0.950 . S
H1307 C1331 0.950 . S
H1308 C1332 0.950 . S
H1309 C1333 0.951 . S
H1310 C1335 0.951 . S
H1311 C1337 0.950 . S
H1312 C1338 0.950 . S
H1313 C1340 0.950 . S
H1314 C1343 0.950 . S
H1315 C1344 0.950 . S
H1316 C1346 0.950 . S
H1317 C1347 0.950 . S
C1318 H1300 0.951 . S
C1318 C1319 1.366 . S
C1318 C1320 1.388 . S
C1319 C1318 1.366 . S
C1319 C1323 1.385 . S
C1320 H1301 0.951 . S
C1320 C1318 1.388 . S
C1320 C1321 1.366 . S
C1321 C1320 1.366 . S
C1321 C1322 1.414 . S
C1321 C1324 1.499 . S
C1322 H1302 0.950 . S
C1322 C1321 1.414 . S
C1322 C1323 1.374 . S
C1323 H1303 0.950 . S
C1323 C1319 1.385 . S
C1323 C1322 1.374 . S
C1324 C1321 1.499 . S
C1324 C1325 1.373 . S
C1324 C1326 1.389 . S
C1325 H1304 0.950 . S
C1325 C1324 1.373 . S
C1325 C1341 1.377 . S
C1326 C1324 1.389 . S
C1326 C1327 1.524 . S
C1326 C1340 1.377 . S
C1327 C1326 1.524 . S
C1327 C1328 1.397 . S
C1327 C1332 1.363 . S
C1328 H1305 0.950 . S
C1328 C1327 1.397 . S
C1328 C1329 1.334 . S
C1329 H1306 0.950 . S
C1329 C1328 1.334 . S
C1329 C1330 1.287 . S
C1330 C1329 1.287 . S
C1330 C1331 1.524 . S
C1330 H1349 0.913 . S
C1331 H1307 0.950 . S
C1331 C1330 1.524 . S
C1331 C1332 1.415 . S
C1332 H1308 0.950 . S
C1332 C1327 1.363 . S
C1332 C1331 1.415 . S
C1333 H1309 0.951 . S
C1333 C1334 1.366 . S
C1333 C1335 1.388 . S
C1334 C1333 1.366 . S
C1334 C1338 1.385 . S
C1335 H1310 0.951 . S
C1335 C1333 1.388 . S
C1335 C1336 1.366 . S
C1336 C1335 1.366 . S
C1336 C1337 1.414 . S
C1336 C1339 1.499 . S
C1337 H1311 0.950 . S
C1337 C1336 1.414 . S
C1337 C1338 1.374 . S
C1338 H1312 0.950 . S
C1338 C1334 1.385 . S
C1338 C1337 1.374 . S
C1339 C1336 1.499 . S
C1339 C1340 1.373 . S
C1339 C1341 1.389 . S
C1340 H1313 0.950 . S
C1340 C1326 1.377 . S
C1340 C1339 1.373 . S
C1341 C1325 1.377 . S
C1341 C1339 1.389 . S
C1341 C1342 1.524 . S
C1342 C1341 1.524 . S
C1342 C1343 1.397 . S
C1342 C1347 1.363 . S
C1343 H1314 0.950 . S
C1343 C1342 1.397 . S
C1343 C1344 1.334 . S
C1344 H1315 0.950 . S
C1344 C1343 1.334 . S
C1344 C1345 1.287 . S
C1345 C1344 1.287 . S
C1345 C1346 1.524 . S
C1345 H1348 0.999 . S
C1346 H1316 0.950 . S
C1346 C1345 1.524 . S
C1346 C1347 1.415 . S
C1347 H1317 0.950 . S
C1347 C1342 1.363 . S
C1347 C1346 1.415 . S
H1348 C1345 0.999 . S
H1349 C1330 0.913 . S
H1350 C1368 0.951 . S
H1351 C1370 0.951 . S
H1352 C1372 0.950 . S
H1353 C1373 0.950 . S
H1354 C1375 0.950 . S
H1355 C1378 0.950 . S
H1356 C1379 0.950 . S
H1357 C1381 0.950 . S
H1358 C1382 0.950 . S
H1359 C1383 0.951 . S
H1360 C1385 0.951 . S
H1361 C1387 0.950 . S
H1362 C1388 0.950 . S
H1363 C1390 0.950 . S
H1364 C1393 0.950 . S
H1365 C1394 0.950 . S
H1366 C1396 0.950 . S
H1367 C1397 0.950 . S
C1368 H1350 0.951 . S
C1368 C1369 1.366 . S
C1368 C1370 1.388 . S
C1369 C1368 1.366 . S
C1369 C1373 1.385 . S
C1370 H1351 0.951 . S
C1370 C1368 1.388 . S
C1370 C1371 1.366 . S
C1371 C1370 1.366 . S
C1371 C1372 1.414 . S
C1371 C1374 1.499 . S
C1372 H1352 0.950 . S
C1372 C1371 1.414 . S
C1372 C1373 1.374 . S
C1373 H1353 0.950 . S
C1373 C1369 1.385 . S
C1373 C1372 1.374 . S
C1374 C1371 1.499 . S
C1374 C1375 1.373 . S
C1374 C1376 1.389 . S
C1375 H1354 0.950 . S
C1375 C1374 1.373 . S
C1375 C1391 1.377 . S
C1376 C1374 1.389 . S
C1376 C1377 1.524 . S
C1376 C1390 1.377 . S
C1377 C1376 1.524 . S
C1377 C1378 1.397 . S
C1377 C1382 1.363 . S
C1378 H1355 0.950 . S
C1378 C1377 1.397 . S
C1378 C1379 1.334 . S
C1379 H1356 0.950 . S
C1379 C1378 1.334 . S
C1379 C1380 1.287 . S
C1380 C1379 1.287 . S
C1380 C1381 1.524 . S
C1380 H1399 0.913 . S
C1381 H1357 0.950 . S
C1381 C1380 1.524 . S
C1381 C1382 1.415 . S
C1382 H1358 0.950 . S
C1382 C1377 1.363 . S
C1382 C1381 1.415 . S
C1383 H1359 0.951 . S
C1383 C1384 1.366 . S
C1383 C1385 1.388 . S
C1384 C1383 1.366 . S
C1384 C1388 1.385 . S
C1385 H1360 0.951 . S
C1385 C1383 1.388 . S
C1385 C1386 1.366 . S
C1386 C1385 1.366 . S
C1386 C1387 1.414 . S
C1386 C1389 1.499 . S
C1387 H1361 0.950 . S
C1387 C1386 1.414 . S
C1387 C1388 1.374 . S
C1388 H1362 0.950 . S
C1388 C1384 1.385 . S
C1388 C1387 1.374 . S
C1389 C1386 1.499 . S
C1389 C1390 1.373 . S
C1389 C1391 1.389 . S
C1390 H1363 0.950 . S
C1390 C1376 1.377 . S
C1390 C1389 1.373 . S
C1391 C1375 1.377 . S
C1391 C1389 1.389 . S
C1391 C1392 1.524 . S
C1392 C1391 1.524 . S
C1392 C1393 1.397 . S
C1392 C1397 1.363 . S
C1393 H1364 0.950 . S
C1393 C1392 1.397 . S
C1393 C1394 1.334 . S
C1394 H1365 0.950 . S
C1394 C1393 1.334 . S
C1394 C1395 1.287 . S
C1395 C1394 1.287 . S
C1395 C1396 1.524 . S
C1395 H1398 0.999 . S
C1396 H1366 0.950 . S
C1396 C1395 1.524 . S
C1396 C1397 1.415 . S
C1397 H1367 0.950 . S
C1397 C1392 1.363 . S
C1397 C1396 1.415 . S
H1398 C1395 0.999 . S
H1399 C1380 0.913 . S
H1400 C1418 0.951 . S
H1401 C1420 0.951 . S
H1402 C1422 0.950 . S
H1403 C1423 0.950 . S
H1404 C1425 0.950 . S
H1405 C1428 0.950 . S
H1406 C1429 0.950 . S
H1407 C1431 0.950 . S
H1408 C1432 0.950 . S
H1409 C1433 0.951 . S
H1410 C1435 0.951 . S
H1411 C1437 0.950 . S
H1412 C1438 0.950 . S
H1413 C1440 0.950 . S
H1414 C1443 0.950 . S
H1415 C1444 0.950 . S
H1416 C1446 0.950 . S
H1417 C1447 0.950 . S
C1418 H1400 0.951 . S
C1418 C1419 1.366 . S
C1418 C1420 1.388 . S
C1419 C1418 1.366 . S
C1419 C1423 1.385 . S
C1420 H1401 0.951 . S
C1420 C1418 1.388 . S
C1420 C1421 1.366 . S
C1421 C1420 1.366 . S
C1421 C1422 1.414 . S
C1421 C1424 1.499 . S
C1422 H1402 0.950 . S
C1422 C1421 1.414 . S
C1422 C1423 1.374 . S
C1423 H1403 0.950 . S
C1423 C1419 1.385 . S
C1423 C1422 1.374 . S
C1424 C1421 1.499 . S
C1424 C1425 1.373 . S
C1424 C1426 1.389 . S
C1425 H1404 0.950 . S
C1425 C1424 1.373 . S
C1425 C1441 1.377 . S
C1426 C1424 1.389 . S
C1426 C1427 1.524 . S
C1426 C1440 1.377 . S
C1427 C1426 1.524 . S
C1427 C1428 1.397 . S
C1427 C1432 1.363 . S
C1428 H1405 0.950 . S
C1428 C1427 1.397 . S
C1428 C1429 1.334 . S
C1429 H1406 0.950 . S
C1429 C1428 1.334 . S
C1429 C1430 1.287 . S
C1430 C1429 1.287 . S
C1430 C1431 1.524 . S
C1430 H1449 0.913 . S
C1431 H1407 0.950 . S
C1431 C1430 1.524 . S
C1431 C1432 1.415 . S
C1432 H1408 0.950 . S
C1432 C1427 1.363 . S
C1432 C1431 1.415 . S
C1433 H1409 0.951 . S
C1433 C1434 1.366 . S
C1433 C1435 1.388 . S
C1434 C1433 1.366 . S
C1434 C1438 1.385 . S
C1435 H1410 0.951 . S
C1435 C1433 1.388 . S
C1435 C1436 1.366 . S
C1436 C1435 1.366 . S
C1436 C1437 1.414 . S
C1436 C1439 1.499 . S
C1437 H1411 0.950 . S
C1437 C1436 1.414 . S
C1437 C1438 1.374 . S
C1438 H1412 0.950 . S
C1438 C1434 1.385 . S
C1438 C1437 1.374 . S
C1439 C1436 1.499 . S
C1439 C1440 1.373 . S
C1439 C1441 1.389 . S
C1440 H1413 0.950 . S
C1440 C1426 1.377 . S
C1440 C1439 1.373 . S
C1441 C1425 1.377 . S
C1441 C1439 1.389 . S
C1441 C1442 1.524 . S
C1442 C1441 1.524 . S
C1442 C1443 1.397 . S
C1442 C1447 1.363 . S
C1443 H1414 0.950 . S
C1443 C1442 1.397 . S
C1443 C1444 1.334 . S
C1444 H1415 0.950 . S
C1444 C1443 1.334 . S
C1444 C1445 1.287 . S
C1445 C1444 1.287 . S
C1445 C1446 1.524 . S
C1445 H1448 0.999 . S
C1446 H1416 0.950 . S
C1446 C1445 1.524 . S
C1446 C1447 1.415 . S
C1447 H1417 0.950 . S
C1447 C1442 1.363 . S
C1447 C1446 1.415 . S
H1448 C1445 0.999 . S
H1449 C1430 0.913 . S
H1450 C1468 0.951 . S
H1451 C1470 0.951 . S
H1452 C1472 0.950 . S
H1453 C1473 0.950 . S
H1454 C1475 0.950 . S
H1455 C1478 0.950 . S
H1456 C1479 0.950 . S
H1457 C1481 0.950 . S
H1458 C1482 0.950 . S
H1459 C1483 0.951 . S
H1460 C1485 0.951 . S
H1461 C1487 0.950 . S
H1462 C1488 0.950 . S
H1463 C1490 0.950 . S
H1464 C1493 0.950 . S
H1465 C1494 0.950 . S
H1466 C1496 0.950 . S
H1467 C1497 0.950 . S
C1468 H1450 0.951 . S
C1468 C1469 1.366 . S
C1468 C1470 1.388 . S
C1469 C1468 1.366 . S
C1469 C1473 1.385 . S
C1470 H1451 0.951 . S
C1470 C1468 1.388 . S
C1470 C1471 1.366 . S
C1471 C1470 1.366 . S
C1471 C1472 1.414 . S
C1471 C1474 1.499 . S
C1472 H1452 0.950 . S
C1472 C1471 1.414 . S
C1472 C1473 1.374 . S
C1473 H1453 0.950 . S
C1473 C1469 1.385 . S
C1473 C1472 1.374 . S
C1474 C1471 1.499 . S
C1474 C1475 1.373 . S
C1474 C1476 1.389 . S
C1475 H1454 0.950 . S
C1475 C1474 1.373 . S
C1475 C1491 1.377 . S
C1476 C1474 1.389 . S
C1476 C1477 1.524 . S
C1476 C1490 1.377 . S
C1477 C1476 1.524 . S
C1477 C1478 1.397 . S
C1477 C1482 1.363 . S
C1478 H1455 0.950 . S
C1478 C1477 1.397 . S
C1478 C1479 1.334 . S
C1479 H1456 0.950 . S
C1479 C1478 1.334 . S
C1479 C1480 1.287 . S
C1480 C1479 1.287 . S
C1480 C1481 1.524 . S
C1480 H1499 0.913 . S
C1481 H1457 0.950 . S
C1481 C1480 1.524 . S
C1481 C1482 1.415 . S
C1482 H1458 0.950 . S
C1482 C1477 1.363 . S
C1482 C1481 1.415 . S
C1483 H1459 0.951 . S
C1483 C1484 1.366 . S
C1483 C1485 1.388 . S
C1484 C1483 1.366 . S
C1484 C1488 1.385 . S
C1485 H1460 0.951 . S
C1485 C1483 1.388 . S
C1485 C1486 1.366 . S
C1486 C1485 1.366 . S
C1486 C1487 1.414 . S
C1486 C1489 1.499 . S
C1487 H1461 0.950 . S
C1487 C1486 1.414 . S
C1487 C1488 1.374 . S
C1488 H1462 0.950 . S
C1488 C1484 1.385 . S
C1488 C1487 1.374 . S
C1489 C1486 1.499 . S
C1489 C1490 1.373 . S
C1489 C1491 1.389 . S
C1490 H1463 0.950 . S
C1490 C1476 1.377 . S
C1490 C1489 1.373 . S
C1491 C1475 1.377 . S
C1491 C1489 1.389 . S
C1491 C1492 1.524 . S
C1492 C1491 1.524 . S
C1492 C1493 1.397 . S
C1492 C1497 1.363 . S
C1493 H1464 0.950 . S
C1493 C1492 1.397 . S
C1493 C1494 1.334 . S
C1494 H1465 0.950 . S
C1494 C1493 1.334 . S
C1494 C1495 1.287 . S
C1495 C1494 1.287 . S
C1495 C1496 1.524 . S
C1495 H1498 0.999 . S
C1496 H1466 0.950 . S
C1496 C1495 1.524 . S
C1496 C1497 1.415 . S
C1497 H1467 0.950 . S
C1497 C1492 1.363 . S
C1497 C1496 1.415 . S
H1498 C1495 0.999 . S
H1499 C1480 0.913 . S
H1500 C1518 0.951 . S
H1501 C1520 0.951 . S
H1502 C1522 0.950 . S
H1503 C1523 0.950 . S
H1504 C1525 0.950 . S
H1505 C1528 0.950 . S
H1506 C1529 0.950 . S
H1507 C1531 0.950 . S
H1508 C1532 0.950 . S
H1509 C1533 0.951 . S
H1510 C1535 0.951 . S
H1511 C1537 0.950 . S
H1512 C1538 0.950 . S
H1513 C1540 0.950 . S
H1514 C1543 0.950 . S
H1515 C1544 0.950 . S
H1516 C1546 0.950 . S
H1517 C1547 0.950 . S
C1518 H1500 0.951 . S
C1518 C1519 1.366 . S
C1518 C1520 1.388 . S
C1519 C1518 1.366 . S
C1519 C1523 1.385 . S
C1520 H1501 0.951 . S
C1520 C1518 1.388 . S
C1520 C1521 1.366 . S
C1521 C1520 1.366 . S
C1521 C1522 1.414 . S
C1521 C1524 1.499 . S
C1522 H1502 0.950 . S
C1522 C1521 1.414 . S
C1522 C1523 1.374 . S
C1523 H1503 0.950 . S
C1523 C1519 1.385 . S
C1523 C1522 1.374 . S
C1524 C1521 1.499 . S
C1524 C1525 1.373 . S
C1524 C1526 1.389 . S
C1525 H1504 0.950 . S
C1525 C1524 1.373 . S
C1525 C1541 1.377 . S
C1526 C1524 1.389 . S
C1526 C1527 1.524 . S
C1526 C1540 1.377 . S
C1527 C1526 1.524 . S
C1527 C1528 1.397 . S
C1527 C1532 1.363 . S
C1528 H1505 0.950 . S
C1528 C1527 1.397 . S
C1528 C1529 1.334 . S
C1529 H1506 0.950 . S
C1529 C1528 1.334 . S
C1529 C1530 1.287 . S
C1530 C1529 1.287 . S
C1530 C1531 1.524 . S
C1530 H1549 0.913 . S
C1531 H1507 0.950 . S
C1531 C1530 1.524 . S
C1531 C1532 1.415 . S
C1532 H1508 0.950 . S
C1532 C1527 1.363 . S
C1532 C1531 1.415 . S
C1533 H1509 0.951 . S
C1533 C1534 1.366 . S
C1533 C1535 1.388 . S
C1534 C1533 1.366 . S
C1534 C1538 1.385 . S
C1535 H1510 0.951 . S
C1535 C1533 1.388 . S
C1535 C1536 1.366 . S
C1536 C1535 1.366 . S
C1536 C1537 1.414 . S
C1536 C1539 1.499 . S
C1537 H1511 0.950 . S
C1537 C1536 1.414 . S
C1537 C1538 1.374 . S
C1538 H1512 0.950 . S
C1538 C1534 1.385 . S
C1538 C1537 1.374 . S
C1539 C1536 1.499 . S
C1539 C1540 1.373 . S
C1539 C1541 1.389 . S
C1540 H1513 0.950 . S
C1540 C1526 1.377 . S
C1540 C1539 1.373 . S
C1541 C1525 1.377 . S
C1541 C1539 1.389 . S
C1541 C1542 1.524 . S
C1542 C1541 1.524 . S
C1542 C1543 1.397 . S
C1542 C1547 1.363 . S
C1543 H1514 0.950 . S
C1543 C1542 1.397 . S
C1543 C1544 1.334 . S
C1544 H1515 0.950 . S
C1544 C1543 1.334 . S
C1544 C1545 1.287 . S
C1545 C1544 1.287 . S
C1545 C1546 1.524 . S
C1545 H1548 0.999 . S
C1546 H1516 0.950 . S
C1546 C1545 1.524 . S
C1546 C1547 1.415 . S
C1547 H1517 0.950 . S
C1547 C1542 1.363 . S
C1547 C1546 1.415 . S
H1548 C1545 0.999 . S
H1549 C1530 0.913 . S
H1550 C1568 0.951 . S
H1551 C1570 0.951 . S
H1552 C1572 0.950 . S
H1553 C1573 0.950 . S
H1554 C1575 0.950 . S
H1555 C1578 0.950 . S
H1556 C1579 0.950 . S
H1557 C1581 0.950 . S
H1558 C1582 0.950 . S
H1559 C1583 0.951 . S
H1560 C1585 0.951 . S
H1561 C1587 0.950 . S
H1562 C1588 0.950 . S
H1563 C1590 0.950 . S
H1564 C1593 0.950 . S
H1565 C1594 0.950 . S
H1566 C1596 0.950 . S
H1567 C1597 0.950 . S
C1568 H1550 0.951 . S
C1568 C1569 1.366 . S
C1568 C1570 1.388 . S
C1569 C1568 1.366 . S
C1569 C1573 1.385 . S
C1570 H1551 0.951 . S
C1570 C1568 1.388 . S
C1570 C1571 1.366 . S
C1571 C1570 1.366 . S
C1571 C1572 1.414 . S
C1571 C1574 1.499 . S
C1572 H1552 0.950 . S
C1572 C1571 1.414 . S
C1572 C1573 1.374 . S
C1573 H1553 0.950 . S
C1573 C1569 1.385 . S
C1573 C1572 1.374 . S
C1574 C1571 1.499 . S
C1574 C1575 1.373 . S
C1574 C1576 1.389 . S
C1575 H1554 0.950 . S
C1575 C1574 1.373 . S
C1575 C1591 1.377 . S
C1576 C1574 1.389 . S
C1576 C1577 1.524 . S
C1576 C1590 1.377 . S
C1577 C1576 1.524 . S
C1577 C1578 1.397 . S
C1577 C1582 1.363 . S
C1578 H1555 0.950 . S
C1578 C1577 1.397 . S
C1578 C1579 1.334 . S
C1579 H1556 0.950 . S
C1579 C1578 1.334 . S
C1579 C1580 1.287 . S
C1580 C1579 1.287 . S
C1580 C1581 1.524 . S
C1580 H1599 0.913 . S
C1581 H1557 0.950 . S
C1581 C1580 1.524 . S
C1581 C1582 1.415 . S
C1582 H1558 0.950 . S
C1582 C1577 1.363 . S
C1582 C1581 1.415 . S
C1583 H1559 0.951 . S
C1583 C1584 1.366 . S
C1583 C1585 1.388 . S
C1584 C1583 1.366 . S
C1584 C1588 1.385 . S
C1585 H1560 0.951 . S
C1585 C1583 1.388 . S
C1585 C1586 1.366 . S
C1586 C1585 1.366 . S
C1586 C1587 1.414 . S
C1586 C1589 1.499 . S
C1587 H1561 0.950 . S
C1587 C1586 1.414 . S
C1587 C1588 1.374 . S
C1588 H1562 0.950 . S
C1588 C1584 1.385 . S
C1588 C1587 1.374 . S
C1589 C1586 1.499 . S
C1589 C1590 1.373 . S
C1589 C1591 1.389 . S
C1590 H1563 0.950 . S
C1590 C1576 1.377 . S
C1590 C1589 1.373 . S
C1591 C1575 1.377 . S
C1591 C1589 1.389 . S
C1591 C1592 1.524 . S
C1592 C1591 1.524 . S
C1592 C1593 1.397 . S
C1592 C1597 1.363 . S
C1593 H1564 0.950 . S
C1593 C1592 1.397 . S
C1593 C1594 1.334 . S
C1594 H1565 0.950 . S
C1594 C1593 1.334 . S
C1594 C1595 1.287 . S
C1595 C1594 1.287 . S
C1595 C1596 1.524 . S
C1595 H1598 0.999 . S
C1596 H1566 0.950 . S
C1596 C1595 1.524 . S
C1596 C1597 1.415 . S
C1597 H1567 0.950 . S
C1597 C1592 1.363 . S
C1597 C1596 1.415 . S
H1598 C1595 0.999 . S
H1599 C1580 0.913 . S
C419 C21 1.546 . S
C434 C355 1.531 . S
C484 C319 1.531 . S
C469 C60 1.546 . S
C534 C342 1.524 . S
C519 C99 1.522 . S
C584 C330 1.515 . S
C569 C138 1.519 . S
C634 C399 1.531 . S
C619 C177 1.547 . S
C684 C363 1.531 . S
C669 C216 1.546 . S
C719 C255 1.522 . S
C734 C386 1.524 . S
C784 C374 1.516 . S
C769 C294 1.519 . S
C819 C1 1.491 . S
C834 C396 1.502 . S
C884 C366 1.501 . S
C869 C40 1.489 . S
C919 C79 1.530 . S
C934 C385 1.537 . S
C969 C133 1.518 . S
C984 C371 1.525 . S
C1034 C352 1.502 . S
C1019 C157 1.491 . S
C1069 C196 1.489 . S
C1084 C322 1.501 . S
C1134 C341 1.537 . S
C1119 C235 1.529 . S
C1184 C327 1.525 . S
C1169 C289 1.518 . S
C1234 C377 1.500 . S
C1219 C16 1.496 . S
C1284 C393 1.499 . S
C1269 C55 1.495 . S
C1319 C94 1.454 . S
C1334 C364 1.466 . S
C1384 C388 1.467 . S
C1369 C118 1.455 . S
C1434 C333 1.500 . S
C1419 C172 1.497 . S
C1469 C211 1.495 . S
C1484 C349 1.499 . S
C1519 C250 1.454 . S
C1534 C320 1.466 . S
C1569 C274 1.456 . S
C1584 C344 1.466 . S
