# Generated by pormake.
# Topology scu, (8,4)-cn, num edge types: 1
# Building blocks:
#     Node 0, Type 0, BuildingBlock: VETTIZ_charged_sbu_0, # of connection points: 8
#     Node 1, Type 1, BuildingBlock: IZENUY_clean_linker_0, # of connection points: 4
#     Node 2, Type 1, BuildingBlock: IZENUY_clean_linker_0, # of connection points: 4
#     Edge 3, Type (0, 1), BuildingBlock: TEMPAE_clean_linker_10, # of connection points: 2
#     Edge 4, Type (0, 1), BuildingBlock: TEMPAE_clean_linker_10, # of connection points: 2
#     Edge 5, Type (0, 1), BuildingBlock: TEMPAE_clean_linker_10, # of connection points: 2
#     Edge 6, Type (0, 1), BuildingBlock: TEMPAE_clean_linker_10, # of connection points: 2
#     Edge 7, Type (0, 1), BuildingBlock: TEMPAE_clean_linker_10, # of connection points: 2
#     Edge 8, Type (0, 1), BuildingBlock: TEMPAE_clean_linker_10, # of connection points: 2
#     Edge 9, Type (0, 1), BuildingBlock: TEMPAE_clean_linker_10, # of connection points: 2
#     Edge 10, Type (0, 1), BuildingBlock: TEMPAE_clean_linker_10, # of connection points: 2
# Relax obj value: 0.029
# Max RMSD: 0.128
# Mean RMSD: 0.109
data_MOF--net-scu--node1-VETTIZ_charged_sbu_0--node2-IZENUY_clean_linker_0--edge1-TEMPAE_clean_linker_10
_symmetry_space_group_name_H-M    P1
_symmetry_Int_Tables_number       1
_symmetry_cell_setting            triclinic
loop_
_symmetry_equiv_pos_as_xyz
'x, y, z'
_cell_length_a     29.457508
_cell_length_b     29.479798
_cell_length_c     18.306904
_cell_angle_alpha  90.353879
_cell_angle_beta   87.083864
_cell_angle_gamma 91.511667
loop_
_atom_site_label
_atom_site_type_symbol
_atom_site_fract_x
_atom_site_fract_y
_atom_site_fract_z
_atom_type_partial_charge
Fe0 Fe 0.02065 0.01984 0.17229 0.0
O1 O 0.02245 0.02461 0.06509 0.0
Fe2 Fe 0.04195 0.96699 1.00374 0.0
Fe3 Fe 0.96908 0.04194 0.00884 0.0
O4 O 0.02544 0.02108 0.06506 0.0
O5 O 0.98795 0.98355 0.94885 0.0
O6 O 0.98472 0.98703 0.94905 0.0
Fe7 Fe 0.98996 0.98801 0.84176 0.0
C8 C 0.91858 1.0069 0.14367 0.0
O9 O 0.01603 0.08928 0.16453 0.0
O10 O 0.96119 0.09828 0.07971 0.0
O11 O 0.06017 0.98903 0.82945 0.0
O12 O 0.0848 1.00745 0.9388 0.0
O13 O 0.09756 0.95813 0.06955 0.0
O14 O 0.09035 0.01444 0.15791 0.0
O15 O 1.01087 0.08347 0.94301 0.0
O16 O 0.99109 0.05772 0.8346 0.0
C17 C 0.11326 0.98418 0.1208 0.0
O18 O 0.99445 0.91882 0.85037 0.0
O19 O 0.05113 0.91131 0.93158 0.0
O20 O 0.95055 0.01925 0.18432 0.0
O21 O 0.92465 1.00334 0.07462 0.0
C22 C 0.98635 0.11289 0.13214 0.0
C23 C 1.00643 0.08925 0.87499 0.0
C24 C 0.89788 0.02489 0.89032 0.0
O25 O 0.91383 0.05124 0.9413 0.0
O26 O 0.92068 0.99326 0.85634 0.0
C27 C 0.0914 1.00346 0.86999 0.0
O28 O 1.00181 0.92397 0.0688 0.0
O29 O 0.01907 0.94995 0.17869 0.0
C30 C 0.0254 0.89573 0.88053 0.0
C31 C 1.00546 0.91822 0.13697 0.0
H32 H 0.01691 0.44369 0.40662 0.0
H33 H 0.03483 0.43257 0.63848 0.0
H34 H 0.02767 0.31262 0.50462 0.0
H35 H 0.04481 0.56559 0.60356 0.0
H36 H 0.01895 0.5787 0.37469 0.0
H37 H 0.05173 0.69677 0.50235 0.0
N38 N 0.02952 0.492 0.53203 0.0
N39 N 0.02646 0.51841 0.47958 0.0
C40 C 0.02091 0.42326 0.45474 0.0
C41 C 0.02165 0.37583 0.44786 0.0
C42 C 0.02649 0.44404 0.52361 0.0
C43 C 0.03106 0.4168 0.58542 0.0
C44 C 0.0318 0.36941 0.57861 0.0
C45 C 0.02755 0.34932 0.50976 0.0
C46 C 0.04221 0.58634 0.55539 0.0
C47 C 0.05012 0.63339 0.56052 0.0
C48 C 0.03165 0.56626 0.48784 0.0
C49 C 0.02754 0.59395 0.42639 0.0
C50 C 0.03532 0.64104 0.43121 0.0
C51 C 0.04693 0.66024 0.49812 0.0
H52 H 0.57484 0.02083 0.41315 0.0
H53 H 0.56936 0.04857 0.64513 0.0
H54 H 0.69742 0.05376 0.52138 0.0
H55 H 0.44073 0.02063 0.60678 0.0
H56 H 0.44045 0.01383 0.37085 0.0
H57 H 0.31471 1.00586 0.50088 0.0
N58 N 0.5181 0.02885 0.53544 0.0
N59 N 0.49488 0.02227 0.48104 0.0
C60 C 0.59164 0.03002 0.46261 0.0
C61 C 0.63902 0.0376 0.45956 0.0
C62 C 0.56624 0.03468 0.52978 0.0
C63 C 0.58883 0.04565 0.59353 0.0
C64 C 0.63611 0.05327 0.59092 0.0
C65 C 0.66068 0.04942 0.52361 0.0
C66 C 0.42269 0.01731 0.55685 0.0
C67 C 0.3751 1.01285 0.56114 0.0
C68 C 0.44664 0.01724 0.48782 0.0
C69 C 0.42228 0.01319 0.42383 0.0
C70 C 0.37455 1.00999 0.42817 0.0
C71 C 0.35156 1.00914 0.49701 0.0
C72 C 0.98741 0.19749 0.11907 0.0
C73 C 0.97949 0.15874 0.16222 0.0
C74 C 0.99062 0.24079 0.15183 0.0
C75 C 0.98552 0.24493 0.22908 0.0
C76 C 0.97397 0.20597 0.27176 0.0
C77 C 0.97146 0.16342 0.23779 0.0
C78 C 1.00273 0.28129 0.10415 0.0
C79 C 0.96752 0.20861 0.35412 0.0
C80 C 0.05062 0.32548 0.34787 0.0
C81 C 0.01576 0.35248 0.37716 0.0
C82 C 0.04233 0.29349 0.29284 0.0
C83 C 0.99784 0.28789 0.26755 0.0
C84 C 0.96365 0.31818 0.29202 0.0
C85 C 0.97305 0.35028 0.34682 0.0
C86 C 0.08007 0.26257 0.26744 0.0
C87 C 0.91605 0.31381 0.26569 0.0
H88 H 0.99396 0.19369 0.06055 0.0
H89 H 0.96515 0.13328 0.27088 0.0
H90 H 0.98578 0.31221 0.12538 0.0
H91 H 0.04 0.2879 0.10363 0.0
H92 H 0.99328 0.27519 0.04685 0.0
H93 H 0.95444 0.17603 0.37827 0.0
H94 H 1.0005 0.21742 0.37803 0.0
H95 H 0.94344 0.2356 0.37038 0.0
H96 H 0.08365 0.32736 0.37151 0.0
H97 H 0.94606 0.37111 0.36987 0.0
H98 H 0.08094 0.25838 0.20714 0.0
H99 H 0.07382 0.22851 0.29205 0.0
H100 H 0.11387 0.27563 0.28351 0.0
H101 H 0.91669 0.30698 0.20598 0.0
H102 H 0.89642 0.34488 0.27775 0.0
H103 H 0.89797 0.28474 0.29355 0.0
C104 C 0.83352 1.00782 0.13676 0.0
C105 C 0.87191 1.00176 0.17781 0.0
C106 C 0.78978 1.01036 0.17114 0.0
C107 C 0.78432 1.00639 0.24823 0.0
C108 C 0.82264 0.99747 0.28917 0.0
C109 C 0.86584 0.99543 0.25356 0.0
C110 C 0.74992 0.01986 0.12543 0.0
C111 C 0.81846 0.99253 0.37136 0.0
C112 C 0.69627 0.06771 0.36645 0.0
C113 C 0.6677 0.03173 0.39141 0.0
C114 C 0.73217 0.06051 0.3147 0.0
C115 C 0.74004 0.01607 0.28787 0.0
C116 C 0.70899 0.98028 0.30852 0.0
C117 C 0.67303 0.98857 0.36016 0.0
C118 C 0.76397 0.09983 0.29374 0.0
C119 C 0.71596 0.9325 0.28102 0.0
H120 H 0.83787 1.01292 0.07818 0.0
H121 H 0.89521 0.99026 0.28561 0.0
H122 H 0.72063 0.99685 0.14083 0.0
H123 H 0.73889 0.05512 0.13575 0.0
H124 H 0.75856 0.01596 0.06595 0.0
H125 H 0.85072 0.98199 0.39433 0.0
H126 H 0.80874 0.02538 0.39677 0.0
H127 H 0.79134 0.96714 0.38722 0.0
H128 H 0.69214 0.10106 0.39086 0.0
H129 H 0.6512 0.96065 0.38005 0.0
H130 H 0.77125 0.1005 0.23371 0.0
H131 H 0.79679 0.09577 0.31989 0.0
H132 H 0.74983 0.13295 0.31131 0.0
H133 H 0.72535 0.93232 0.22157 0.0
H134 H 0.68506 0.91059 0.29129 0.0
H135 H 0.74436 0.91752 0.3094 0.0
C136 C 0.98972 0.86671 0.24316 0.0
C137 C 0.99965 0.87203 0.16799 0.0
C138 C 0.99164 0.82413 0.27639 0.0
C139 C 1.00445 0.78589 0.23361 0.0
C140 C 1.01199 0.79052 0.1569 0.0
C141 C 1.00922 0.83358 0.12486 0.0
C142 C 0.98257 0.82069 0.35817 0.0
C143 C 0.02593 0.75078 0.10929 0.0
C144 C 0.06529 0.70241 0.34768 0.0
C145 C 0.03008 0.67151 0.36824 0.0
C146 C 0.05828 0.73784 0.29911 0.0
C147 C 0.01473 0.74287 0.27115 0.0
C148 C 0.97992 0.70988 0.2878 0.0
C149 C 0.98808 0.67437 0.3361 0.0
C150 C 0.0966 0.77178 0.28205 0.0
C151 C 0.93309 0.714 0.25915 0.0
H152 H 0.98187 0.89625 0.2766 0.0
H153 H 0.01719 0.83751 0.06673 0.0
H154 H 0.95831 0.79218 0.37153 0.0
H155 H 0.01471 0.81364 0.3846 0.0
H156 H 0.96854 0.85238 0.38224 0.0
H157 H 0.0231 0.75803 0.05022 0.0
H158 H 0.0618 0.74285 0.11849 0.0
H159 H 1.00483 0.7201 0.12373 0.0
H160 H 0.09784 0.70001 0.37237 0.0
H161 H 0.96075 0.65064 0.35242 0.0
H162 H 0.08891 0.80448 0.30975 0.0
H163 H 0.10013 0.77837 0.22241 0.0
H164 H 0.12963 0.76003 0.30057 0.0
H165 H 0.91531 0.74204 0.2883 0.0
H166 H 0.91226 0.6823 0.26728 0.0
H167 H 0.93529 0.72241 0.20007 0.0
C168 C 0.16663 0.95177 0.2046 0.0
C169 C 0.1598 0.97777 0.14278 0.0
C170 C 0.20833 0.95392 0.23827 0.0
C171 C 0.24384 0.98296 0.20924 0.0
C172 C 0.2381 1.00654 0.14326 0.0
C173 C 0.19579 1.00396 0.11103 0.0
C174 C 0.21276 0.92848 0.30878 0.0
C175 C 0.27545 0.03705 0.10995 0.0
C176 C 0.3103 0.03725 0.35912 0.0
C177 C 0.34725 1.00849 0.36234 0.0
C178 C 0.27781 0.03076 0.30669 0.0
C179 C 0.28269 0.99491 0.25526 0.0
C180 C 0.32199 0.96813 0.25424 0.0
C181 C 0.35389 0.97513 0.30825 0.0
C182 C 0.23659 0.06032 0.3099 0.0
C183 C 0.32887 0.93027 0.19935 0.0
H184 H 0.13835 0.932 0.2293 0.0
H185 H 0.19001 0.02455 0.06373 0.0
H186 H 0.24539 0.91052 0.30789 0.0
H187 H 0.21272 0.95293 0.35515 0.0
H188 H 0.18443 0.90333 0.31914 0.0
H189 H 0.26643 0.05129 0.05673 0.0
H190 H 0.28262 0.06561 0.14774 0.0
H191 H 0.30724 0.01791 0.10166 0.0
H192 H 0.30557 0.06353 0.40034 0.0
H193 H 0.38249 0.95288 0.31068 0.0
H194 H 0.20578 0.03943 0.32565 0.0
H195 H 0.23146 0.075 0.2554 0.0
H196 H 0.23953 0.08853 0.35005 0.0
H197 H 0.30643 0.90085 0.21558 0.0
H198 H 0.36459 0.91894 0.19617 0.0
H199 H 0.31961 0.941 0.14419 0.0
C200 C 0.01466 0.83789 0.78285 0.0
C201 C 0.03301 0.84955 0.84996 0.0
C202 C 0.02225 0.79577 0.7498 0.0
C203 C 0.04869 0.76374 0.78469 0.0
C204 C 0.0664 0.77446 0.85348 0.0
C205 C 0.05865 0.81751 0.88518 0.0
C206 C 1.00273 0.78616 0.6762 0.0
C207 C 0.0941 0.7409 0.89283 0.0
C208 C 0.02654 0.65252 0.68986 0.0
C209 C 0.05871 0.65625 0.63103 0.0
C210 C 0.02639 0.68438 0.74737 0.0
C211 C 0.05908 0.72058 0.74532 0.0
C212 C 0.09515 0.72057 0.69114 0.0
C213 C 0.09441 0.68845 0.6344 0.0
C214 C 0.98786 0.68255 0.80484 0.0
C215 C 0.13111 0.75802 0.68717 0.0
H216 H 0.99498 0.86222 0.75463 0.0
H217 H 0.07267 0.82602 0.93727 0.0
H218 H 0.03064 0.78036 0.63445 0.0
H219 H 0.98086 0.75494 0.67898 0.0
H220 H 0.98212 0.81443 0.65734 0.0
H221 H 0.10039 0.75199 0.94963 0.0
H222 H 0.07663 0.70709 0.89462 0.0
H223 H 0.12737 0.73681 0.86268 0.0
H224 H 0.99901 0.62749 0.68754 0.0
H225 H 0.11972 0.69086 0.58934 0.0
H226 H 0.96092 0.70568 0.78911 0.0
H227 H 0.99947 0.69389 0.85884 0.0
H228 H 0.97262 0.64777 0.81016 0.0
H229 H 0.11675 0.78869 0.66324 0.0
H230 H 0.16132 0.74824 0.65237 0.0
H231 H 0.14218 0.76721 0.74244 0.0
C232 C 0.17612 1.01053 0.87915 0.0
C233 C 0.13786 1.01138 0.83646 0.0
C234 C 0.22043 1.01263 0.8466 0.0
C235 C 0.22659 0.01659 0.76966 0.0
C236 C 0.18805 0.01932 0.72669 0.0
C237 C 0.14428 0.01649 0.76054 0.0
C238 C 0.26045 1.00982 0.89455 0.0
C239 C 0.19299 0.02365 0.64444 0.0
C240 C 0.33442 0.05408 0.66241 0.0
C241 C 0.34798 1.01282 0.63117 0.0
C242 C 0.29704 0.05561 0.71325 0.0
C243 C 0.27273 0.01494 0.7324 0.0
C244 C 0.28913 0.97284 0.70595 0.0
C245 C 0.32645 0.97234 0.6552 0.0
C246 C 0.28112 0.10104 0.74113 0.0
C247 C 0.26477 0.92862 0.72596 0.0
H248 H 0.17146 1.00645 0.93782 0.0
H249 H 0.11495 0.01751 0.72718 0.0
H250 H 0.28624 0.98651 0.87063 0.0
H251 H 0.277 0.04391 0.89885 0.0
H252 H 0.25 0.998 0.95054 0.0
H253 H 0.15976 0.02757 0.61938 0.0
H254 H 0.21531 0.05334 0.62917 0.0
H255 H 0.20928 0.99304 0.62059 0.0
H256 H 0.35071 0.08541 0.64274 0.0
H257 H 0.33668 0.94055 0.63007 0.0
H258 H 0.27252 0.09962 0.80079 0.0
H259 H 0.24982 0.10995 0.71376 0.0
H260 H 0.3072 0.12842 0.73029 0.0
H261 H 0.25696 0.92693 0.78583 0.0
H262 H 0.28509 0.89878 0.70894 0.0
H263 H 0.23197 0.92642 0.69869 0.0
C264 C 1.00497 0.14186 0.76888 0.0
C265 C 0.01541 0.13474 0.84184 0.0
C266 C 1.01059 0.18464 0.73648 0.0
C267 C 0.02767 0.2216 0.77751 0.0
C268 C 0.03887 0.21482 0.85097 0.0
C269 C 0.03244 0.17145 0.88245 0.0
C270 C 0.99775 0.19029 0.65815 0.0
C271 C 0.05755 0.2533 0.89619 0.0
C272 C 0.07349 0.31239 0.64695 0.0
C273 C 0.03556 0.33968 0.64259 0.0
C274 C 0.07329 0.27639 0.6968 0.0
C275 C 0.03368 0.26684 0.74183 0.0
C276 C 0.99661 0.29655 0.74134 0.0
C277 C 0.99811 0.33287 0.69179 0.0
C278 C 0.11386 0.24617 0.6964 0.0
C279 C 0.95355 0.28742 0.78774 0.0
H280 H 0.99165 0.11397 0.73682 0.0
H281 H 0.04059 0.16637 0.93884 0.0
H282 H 0.97186 0.21678 0.65506 0.0
H283 H 0.02795 0.20162 0.62372 0.0
H284 H 0.98388 0.15835 0.63446 0.0
H285 H 0.06488 0.24242 0.95229 0.0
H286 H 0.08931 0.26743 0.86901 0.0
H287 H 0.03292 0.28113 0.9004 0.0
H288 H 0.10237 0.31774 0.60854 0.0
H289 H 0.96864 0.35381 0.6877 0.0
H290 H 0.10605 0.21423 0.66664 0.0
H291 H 0.12173 0.23699 0.75298 0.0
H292 H 0.14452 0.26262 0.66909 0.0
H293 H 0.93437 0.25848 0.76395 0.0
H294 H 0.9313 0.31729 0.79043 0.0
H295 H 0.96143 0.27789 0.84412 0.0
C296 C 0.83811 1.00986 0.80102 0.0
C297 C 0.85169 0.03258 0.86429 0.0
C298 C 0.79661 0.01833 0.7708 0.0
C299 C 0.76709 0.05006 0.80491 0.0
C300 C 0.77929 0.0717 0.87073 0.0
C301 C 0.82175 0.06304 0.89938 0.0
C302 C 0.78526 0.99433 0.70045 0.0
C303 C 0.74845 0.10506 0.9097 0.0
C304 C 0.69702 0.09441 0.65699 0.0
C305 C 0.6613 0.06198 0.65811 0.0
C306 C 0.72925 0.09478 0.71075 0.0
C307 C 0.7255 0.06199 0.76705 0.0
C308 C 0.68618 0.0333 0.77384 0.0
C309 C 0.65453 0.03342 0.71889 0.0
C310 C 0.77014 0.12658 0.70205 0.0
C311 C 0.68013 0.99897 0.83453 0.0
H312 H 0.86056 0.98608 0.77319 0.0
H313 H 0.8316 0.08047 0.94865 0.0
H314 H 0.75222 0.97558 0.70774 0.0
H315 H 0.78198 0.01957 0.65642 0.0
H316 H 0.81155 0.96988 0.68189 0.0
H317 H 0.75602 0.10854 0.96835 0.0
H318 H 0.75362 0.13886 0.88385 0.0
H319 H 0.71213 0.09478 0.90582 0.0
H320 H 0.70165 0.11738 0.61101 0.0
H321 H 0.62673 1.00855 0.7205 0.0
H322 H 0.79986 0.10735 0.68043 0.0
H323 H 0.77881 0.14132 0.7556 0.0
H324 H 0.76442 0.15464 0.66361 0.0
H325 H 0.70128 0.96919 0.82082 0.0
H326 H 0.64415 0.98697 0.84224 0.0
H327 H 0.69145 0.01347 0.88687 0.0
loop_
_geom_bond_atom_site_label_1
_geom_bond_atom_site_label_2
_geom_bond_distance
_geom_bond_site_symmetry_2
_ccdc_geom_bond_type
Fe0 O1 1.886 . S
Fe0 O4 1.715 1_645 S
Fe0 O9 2.077 1_655 S
Fe0 O14 1.935 1_655 S
Fe0 O20 2.077 1_545 S
Fe0 O29 1.935 1_545 S
O1 Fe0 1.886 . S
O1 Fe3 1.715 . S
Fe2 O4 1.886 . S
Fe2 O5 1.715 1_554 S
Fe2 O12 1.935 1_554 S
Fe2 O13 2.077 . S
Fe2 O19 1.935 1_554 S
Fe2 O28 2.077 . S
Fe3 O1 1.715 . S
Fe3 O6 1.886 1_554 S
Fe3 O10 1.935 . S
Fe3 O15 2.077 1_554 S
Fe3 O21 1.935 . S
Fe3 O25 2.077 1_554 S
O4 Fe0 1.715 1_465 S
O4 Fe2 1.886 . S
O5 Fe2 1.715 1_556 S
O5 Fe7 1.886 . S
O6 Fe3 1.886 1_556 S
O6 Fe7 1.715 1_645 S
Fe7 O5 1.886 . S
Fe7 O6 1.715 1_465 S
Fe7 O11 2.077 1_565 S
Fe7 O16 1.935 1_565 S
Fe7 O18 2.077 1_455 S
Fe7 O26 1.935 1_455 S
C8 O20 1.377 1_545 S
C8 O21 1.421 . S
O9 Fe0 2.077 1_455 S
O9 C22 1.375 1_455 S
O10 Fe3 1.935 . S
O10 C22 1.421 . S
O11 Fe7 2.077 1_545 S
O11 C27 1.375 1_545 S
O12 Fe2 1.935 1_556 S
O12 C27 1.421 . S
O13 Fe2 2.077 . S
O13 C17 1.381 . S
O14 Fe0 1.935 1_455 S
O14 C17 1.421 1_545 S
O15 Fe3 2.077 1_556 S
O15 C23 1.381 . S
O16 Fe7 1.935 1_545 S
O16 C23 1.421 1_455 S
C17 O13 1.381 . S
C17 O14 1.421 1_565 S
O18 Fe7 2.077 1_655 S
O18 C30 1.377 1_655 S
O19 Fe2 1.935 1_556 S
O19 C30 1.421 . S
O20 Fe0 2.077 1_565 S
O20 C8 1.377 1_565 S
O21 Fe3 1.935 . S
O21 C8 1.421 . S
C22 O9 1.375 1_655 S
C22 O10 1.421 . S
C23 O15 1.381 . S
C23 O16 1.421 1_655 S
C24 O25 1.381 . S
C24 O26 1.421 1_545 S
O25 Fe3 2.077 1_556 S
O25 C24 1.381 . S
O26 Fe7 1.935 1_655 S
O26 C24 1.421 1_565 S
C27 O11 1.375 1_565 S
C27 O12 1.421 . S
O28 Fe2 2.077 . S
O28 C31 1.381 . S
O29 Fe0 1.935 1_565 S
O29 C31 1.421 1_655 S
C30 O18 1.377 1_455 S
C30 O19 1.421 . S
C31 O28 1.381 . S
C31 O29 1.421 1_455 S
H32 C40 0.940 . S
H33 C43 0.940 . S
H34 C45 0.940 . S
H35 C46 0.940 . S
H36 C49 0.940 . S
H37 C51 0.940 . S
N38 N39 1.190 . S
N38 C42 1.477 . S
N39 N38 1.190 . S
N39 C48 1.477 . S
C40 H32 0.940 . S
C40 C41 1.390 1_455 S
C40 C42 1.322 . S
C41 C40 1.390 1_655 S
C41 C45 1.370 . S
C42 N38 1.477 . S
C42 C40 1.322 . S
C42 C43 1.447 . S
C43 H33 0.940 . S
C43 C42 1.447 . S
C43 C44 1.373 . S
C44 C43 1.373 . S
C44 C45 1.417 1_455 S
C45 H34 0.940 . S
C45 C41 1.370 . S
C45 C44 1.417 1_655 S
C46 H35 0.940 . S
C46 C47 1.390 1_455 S
C46 C48 1.322 . S
C47 C46 1.390 1_655 S
C47 C51 1.370 . S
C48 N39 1.477 . S
C48 C46 1.322 . S
C48 C49 1.447 . S
C49 H36 0.940 . S
C49 C48 1.447 . S
C49 C50 1.373 . S
C50 C49 1.373 . S
C50 C51 1.417 1_455 S
C51 H37 0.940 . S
C51 C47 1.370 . S
C51 C50 1.417 1_655 S
H52 C60 0.940 . S
H53 C63 0.940 . S
H54 C65 0.940 . S
H55 C66 0.940 . S
H56 C69 0.940 . S
H57 C71 0.940 . S
N58 N59 1.190 . S
N58 C62 1.477 . S
N59 N58 1.190 . S
N59 C68 1.477 . S
C60 H52 0.940 . S
C60 C61 1.390 1_545 S
C60 C62 1.322 . S
C61 C60 1.390 1_565 S
C61 C65 1.370 . S
C62 N58 1.477 . S
C62 C60 1.322 . S
C62 C63 1.447 . S
C63 H53 0.940 . S
C63 C62 1.447 . S
C63 C64 1.373 . S
C64 C63 1.373 . S
C64 C65 1.417 1_545 S
C65 H54 0.940 . S
C65 C61 1.370 . S
C65 C64 1.417 1_565 S
C66 H55 0.940 . S
C66 C67 1.390 1_545 S
C66 C68 1.322 . S
C67 C66 1.390 1_565 S
C67 C71 1.370 . S
C68 N59 1.477 . S
C68 C66 1.322 . S
C68 C69 1.447 . S
C69 H56 0.940 . S
C69 C68 1.447 . S
C69 C70 1.373 . S
C70 C69 1.373 . S
C70 C71 1.417 1_545 S
C71 H57 0.940 . S
C71 C67 1.370 . S
C71 C70 1.417 1_565 S
C72 C73 1.391 1_455 S
C72 C74 1.394 . S
C72 H88 0.931 . S
C73 C72 1.391 1_655 S
C73 C77 1.376 . S
C74 C72 1.394 . S
C74 C75 1.369 1_455 S
C74 C78 1.531 . S
C75 C74 1.369 1_655 S
C75 C76 1.410 . S
C75 C83 1.503 . S
C76 C75 1.410 . S
C76 C77 1.392 . S
C76 C79 1.511 . S
C77 C73 1.376 . S
C77 C76 1.392 . S
C77 H89 0.929 . S
C78 C74 1.531 . S
C78 H90 0.960 . S
C78 H91 0.962 . S
C78 H92 0.960 . S
C79 C76 1.511 . S
C79 H93 0.961 . S
C79 H94 0.961 . S
C79 H95 0.961 . S
C80 C81 1.370 1_455 S
C80 C82 1.363 . S
C80 H96 0.931 . S
C81 C80 1.370 1_655 S
C81 C85 1.408 . S
C82 C80 1.363 . S
C82 C83 1.370 1_455 S
C82 C86 1.524 . S
C83 C75 1.503 . S
C83 C82 1.370 1_655 S
C83 C84 1.403 . S
C84 C83 1.403 . S
C84 C85 1.404 . S
C84 C87 1.539 . S
C85 C81 1.408 . S
C85 C84 1.404 . S
C85 H97 0.930 . S
C86 C82 1.524 . S
C86 H98 0.956 . S
C86 H99 0.961 . S
C86 H100 0.961 . S
C87 C84 1.539 . S
C87 H101 0.958 . S
C87 H102 0.961 . S
C87 H103 0.960 . S
H88 C72 0.931 . S
H89 C77 0.929 . S
H90 C78 0.960 . S
H91 C78 0.962 . S
H92 C78 0.960 . S
H93 C79 0.961 . S
H94 C79 0.961 . S
H95 C79 0.961 . S
H96 C80 0.931 . S
H97 C85 0.930 . S
H98 C86 0.956 . S
H99 C86 0.961 . S
H100 C86 0.961 . S
H101 C87 0.958 . S
H102 C87 0.961 . S
H103 C87 0.960 . S
C104 C105 1.391 . S
C104 C106 1.394 . S
C104 H120 0.931 . S
C105 C104 1.391 . S
C105 C109 1.376 1_565 S
C106 C104 1.394 . S
C106 C107 1.369 . S
C106 C110 1.531 . S
C107 C106 1.369 . S
C107 C108 1.410 1_565 S
C107 C115 1.503 . S
C108 C107 1.410 1_545 S
C108 C109 1.392 . S
C108 C111 1.511 . S
C109 C105 1.376 1_545 S
C109 C108 1.392 . S
C109 H121 0.929 . S
C110 C106 1.531 . S
C110 H122 0.960 . S
C110 H123 0.962 . S
C110 H124 0.960 . S
C111 C108 1.511 . S
C111 H125 0.961 . S
C111 H126 0.961 . S
C111 H127 0.961 1_545 S
C112 C113 1.370 1_545 S
C112 C114 1.363 . S
C112 H128 0.931 . S
C113 C112 1.370 1_565 S
C113 C117 1.408 . S
C114 C112 1.363 . S
C114 C115 1.370 1_545 S
C114 C118 1.524 . S
C115 C107 1.503 . S
C115 C114 1.370 1_565 S
C115 C116 1.403 . S
C116 C115 1.403 . S
C116 C117 1.404 . S
C116 C119 1.539 . S
C117 C113 1.408 . S
C117 C116 1.404 . S
C117 H129 0.930 . S
C118 C114 1.524 . S
C118 H130 0.956 . S
C118 H131 0.961 . S
C118 H132 0.961 . S
C119 C116 1.539 . S
C119 H133 0.958 . S
C119 H134 0.961 . S
C119 H135 0.960 . S
H120 C104 0.931 . S
H121 C109 0.929 . S
H122 C110 0.960 . S
H123 C110 0.962 . S
H124 C110 0.960 . S
H125 C111 0.961 . S
H126 C111 0.961 . S
H127 C111 0.961 1_565 S
H128 C112 0.931 . S
H129 C117 0.930 . S
H130 C118 0.956 . S
H131 C118 0.961 . S
H132 C118 0.961 . S
H133 C119 0.958 . S
H134 C119 0.961 . S
H135 C119 0.960 . S
C136 C137 1.392 . S
C136 C138 1.394 . S
C136 H152 0.931 . S
C137 C136 1.392 . S
C137 C141 1.375 1_655 S
C138 C136 1.394 . S
C138 C139 1.369 1_655 S
C138 C142 1.531 . S
C139 C138 1.369 1_455 S
C139 C140 1.410 . S
C139 C147 1.503 . S
C140 C139 1.410 . S
C140 C141 1.392 . S
C140 C143 1.511 . S
C141 C137 1.375 1_455 S
C141 C140 1.392 . S
C141 H153 0.929 . S
C142 C138 1.531 . S
C142 H154 0.960 . S
C142 H155 0.962 . S
C142 H156 0.960 . S
C143 C140 1.511 . S
C143 H157 0.961 . S
C143 H158 0.961 . S
C143 H159 0.961 . S
C144 C145 1.370 . S
C144 C146 1.363 . S
C144 H160 0.931 . S
C145 C144 1.370 . S
C145 C149 1.408 . S
C146 C144 1.363 . S
C146 C147 1.370 . S
C146 C150 1.524 . S
C147 C139 1.503 . S
C147 C146 1.370 . S
C147 C148 1.403 . S
C148 C147 1.403 . S
C148 C149 1.404 . S
C148 C151 1.539 . S
C149 C145 1.408 . S
C149 C148 1.404 . S
C149 H161 0.930 . S
C150 C146 1.524 . S
C150 H162 0.956 1_455 S
C150 H163 0.961 . S
C150 H164 0.961 . S
C151 C148 1.539 . S
C151 H165 0.958 1_455 S
C151 H166 0.961 . S
C151 H167 0.960 . S
H152 C136 0.931 . S
H153 C141 0.929 . S
H154 C142 0.960 . S
H155 C142 0.962 . S
H156 C142 0.960 . S
H157 C143 0.961 . S
H158 C143 0.961 . S
H159 C143 0.961 . S
H160 C144 0.931 . S
H161 C149 0.930 . S
H162 C150 0.956 1_655 S
H163 C150 0.961 . S
H164 C150 0.961 . S
H165 C151 0.958 1_655 S
H166 C151 0.961 . S
H167 C151 0.960 . S
C168 C169 1.391 . S
C168 C170 1.394 . S
C168 H184 0.931 . S
C169 C168 1.391 . S
C169 C173 1.376 1_565 S
C170 C168 1.394 . S
C170 C171 1.369 . S
C170 C174 1.531 . S
C171 C170 1.369 . S
C171 C172 1.410 1_565 S
C171 C179 1.503 . S
C172 C171 1.410 1_545 S
C172 C173 1.392 . S
C172 C175 1.511 . S
C173 C169 1.376 1_545 S
C173 C172 1.392 . S
C173 H185 0.929 . S
C174 C170 1.531 . S
C174 H186 0.960 . S
C174 H187 0.962 . S
C174 H188 0.960 . S
C175 C172 1.511 . S
C175 H189 0.961 . S
C175 H190 0.961 . S
C175 H191 0.961 1_545 S
C176 C177 1.370 . S
C176 C178 1.363 . S
C176 H192 0.931 . S
C177 C176 1.370 . S
C177 C181 1.408 1_545 S
C178 C176 1.363 . S
C178 C179 1.370 1_545 S
C178 C182 1.524 . S
C179 C171 1.503 . S
C179 C178 1.370 1_565 S
C179 C180 1.403 . S
C180 C179 1.403 . S
C180 C181 1.404 . S
C180 C183 1.539 . S
C181 C177 1.408 1_565 S
C181 C180 1.404 . S
C181 H193 0.930 . S
C182 C178 1.524 . S
C182 H194 0.956 . S
C182 H195 0.961 . S
C182 H196 0.961 . S
C183 C180 1.539 . S
C183 H197 0.958 . S
C183 H198 0.961 . S
C183 H199 0.960 . S
H184 C168 0.931 . S
H185 C173 0.929 . S
H186 C174 0.960 . S
H187 C174 0.962 . S
H188 C174 0.960 . S
H189 C175 0.961 . S
H190 C175 0.961 . S
H191 C175 0.961 1_565 S
H192 C176 0.931 . S
H193 C181 0.930 . S
H194 C182 0.956 . S
H195 C182 0.961 . S
H196 C182 0.961 . S
H197 C183 0.958 . S
H198 C183 0.961 . S
H199 C183 0.960 . S
C200 C201 1.391 . S
C200 C202 1.394 . S
C200 H216 0.931 . S
C201 C200 1.391 . S
C201 C205 1.376 . S
C202 C200 1.394 . S
C202 C203 1.369 . S
C202 C206 1.531 . S
C203 C202 1.369 . S
C203 C204 1.410 . S
C203 C211 1.503 . S
C204 C203 1.410 . S
C204 C205 1.392 . S
C204 C207 1.511 . S
C205 C201 1.376 . S
C205 C204 1.392 . S
C205 H217 0.929 . S
C206 C202 1.531 . S
C206 H218 0.960 . S
C206 H219 0.962 1_455 S
C206 H220 0.960 . S
C207 C204 1.511 . S
C207 H221 0.961 1_455 S
C207 H222 0.961 1_455 S
C207 H223 0.961 . S
C208 C209 1.370 . S
C208 C210 1.363 . S
C208 H224 0.931 . S
C209 C208 1.370 . S
C209 C213 1.408 1_655 S
C210 C208 1.363 . S
C210 C211 1.370 1_655 S
C210 C214 1.524 . S
C211 C203 1.503 . S
C211 C210 1.370 1_455 S
C211 C212 1.403 . S
C212 C211 1.403 . S
C212 C213 1.404 . S
C212 C215 1.539 . S
C213 C209 1.408 1_455 S
C213 C212 1.404 . S
C213 H225 0.930 . S
C214 C210 1.524 . S
C214 H226 0.956 . S
C214 H227 0.961 . S
C214 H228 0.961 . S
C215 C212 1.539 . S
C215 H229 0.958 . S
C215 H230 0.961 . S
C215 H231 0.960 . S
H216 C200 0.931 . S
H217 C205 0.929 . S
H218 C206 0.960 . S
H219 C206 0.962 1_655 S
H220 C206 0.960 . S
H221 C207 0.961 1_655 S
H222 C207 0.961 1_655 S
H223 C207 0.961 . S
H224 C208 0.931 . S
H225 C213 0.930 . S
H226 C214 0.956 . S
H227 C214 0.961 . S
H228 C214 0.961 . S
H229 C215 0.958 . S
H230 C215 0.961 . S
H231 C215 0.960 . S
C232 C233 1.391 . S
C232 C234 1.394 . S
C232 H248 0.931 . S
C233 C232 1.391 . S
C233 C237 1.376 1_565 S
C234 C232 1.394 . S
C234 C235 1.369 . S
C234 C238 1.531 . S
C235 C234 1.369 . S
C235 C236 1.410 1_565 S
C235 C243 1.503 . S
C236 C235 1.410 1_545 S
C236 C237 1.392 . S
C236 C239 1.511 . S
C237 C233 1.376 1_545 S
C237 C236 1.392 . S
C237 H249 0.929 . S
C238 C234 1.531 . S
C238 H250 0.960 . S
C238 H251 0.962 . S
C238 H252 0.960 . S
C239 C236 1.511 . S
C239 H253 0.961 . S
C239 H254 0.961 . S
C239 H255 0.961 . S
C240 C241 1.370 1_545 S
C240 C242 1.363 . S
C240 H256 0.931 . S
C241 C240 1.370 1_565 S
C241 C245 1.408 . S
C242 C240 1.363 . S
C242 C243 1.370 1_545 S
C242 C246 1.524 . S
C243 C235 1.503 . S
C243 C242 1.370 1_565 S
C243 C244 1.403 . S
C244 C243 1.403 . S
C244 C245 1.404 . S
C244 C247 1.539 . S
C245 C241 1.408 . S
C245 C244 1.404 . S
C245 H257 0.930 . S
C246 C242 1.524 . S
C246 H258 0.956 . S
C246 H259 0.961 . S
C246 H260 0.961 . S
C247 C244 1.539 . S
C247 H261 0.958 . S
C247 H262 0.961 . S
C247 H263 0.960 . S
H248 C232 0.931 . S
H249 C237 0.929 . S
H250 C238 0.960 . S
H251 C238 0.962 . S
H252 C238 0.960 . S
H253 C239 0.961 . S
H254 C239 0.961 . S
H255 C239 0.961 . S
H256 C240 0.931 . S
H257 C245 0.930 . S
H258 C246 0.956 . S
H259 C246 0.961 . S
H260 C246 0.961 . S
H261 C247 0.958 . S
H262 C247 0.961 . S
H263 C247 0.960 . S
C264 C265 1.391 . S
C264 C266 1.394 . S
C264 H280 0.931 . S
C265 C264 1.391 . S
C265 C269 1.376 1_655 S
C266 C264 1.394 . S
C266 C267 1.369 . S
C266 C270 1.531 . S
C267 C266 1.369 . S
C267 C268 1.410 1_655 S
C267 C275 1.503 . S
C268 C267 1.410 1_455 S
C268 C269 1.392 . S
C268 C271 1.511 . S
C269 C265 1.376 1_455 S
C269 C268 1.392 . S
C269 H281 0.929 . S
C270 C266 1.531 . S
C270 H282 0.960 . S
C270 H283 0.962 . S
C270 H284 0.960 . S
C271 C268 1.511 . S
C271 H285 0.961 . S
C271 H286 0.961 . S
C271 H287 0.961 . S
C272 C273 1.370 . S
C272 C274 1.363 . S
C272 H288 0.931 . S
C273 C272 1.370 . S
C273 C277 1.408 1_455 S
C274 C272 1.363 . S
C274 C275 1.370 1_455 S
C274 C278 1.524 . S
C275 C267 1.503 . S
C275 C274 1.370 1_655 S
C275 C276 1.403 . S
C276 C275 1.403 . S
C276 C277 1.404 . S
C276 C279 1.539 . S
C277 C273 1.408 1_655 S
C277 C276 1.404 . S
C277 H289 0.930 . S
C278 C274 1.524 . S
C278 H290 0.956 . S
C278 H291 0.961 . S
C278 H292 0.961 . S
C279 C276 1.539 . S
C279 H293 0.958 . S
C279 H294 0.961 . S
C279 H295 0.960 . S
H280 C264 0.931 . S
H281 C269 0.929 . S
H282 C270 0.960 . S
H283 C270 0.962 . S
H284 C270 0.960 . S
H285 C271 0.961 . S
H286 C271 0.961 . S
H287 C271 0.961 . S
H288 C272 0.931 . S
H289 C277 0.930 . S
H290 C278 0.956 . S
H291 C278 0.961 . S
H292 C278 0.961 . S
H293 C279 0.958 . S
H294 C279 0.961 . S
H295 C279 0.960 . S
C296 C297 1.391 . S
C296 C298 1.394 . S
C296 H312 0.931 . S
C297 C296 1.391 . S
C297 C301 1.376 1_565 S
C298 C296 1.394 . S
C298 C299 1.369 . S
C298 C302 1.531 . S
C299 C298 1.369 . S
C299 C300 1.410 1_565 S
C299 C307 1.506 . S
C300 C299 1.410 1_545 S
C300 C301 1.392 . S
C300 C303 1.511 . S
C301 C297 1.376 1_545 S
C301 C300 1.392 . S
C301 H313 0.929 . S
C302 C298 1.531 . S
C302 H314 0.960 . S
C302 H315 0.962 . S
C302 H316 0.960 . S
C303 C300 1.511 . S
C303 H317 0.961 . S
C303 H318 0.961 . S
C303 H319 0.961 . S
C304 C305 1.370 . S
C304 C306 1.363 . S
C304 H320 0.931 . S
C305 C304 1.370 . S
C305 C309 1.408 1_545 S
C306 C304 1.363 . S
C306 C307 1.360 1_545 S
C306 C310 1.524 . S
C307 C299 1.506 . S
C307 C306 1.360 1_565 S
C307 C308 1.412 . S
C308 C307 1.412 . S
C308 C309 1.404 . S
C308 C311 1.539 . S
C309 C305 1.408 1_565 S
C309 C308 1.404 . S
C309 H321 0.930 . S
C310 C306 1.524 . S
C310 H322 0.956 . S
C310 H323 0.961 . S
C310 H324 0.961 . S
C311 C308 1.539 . S
C311 H325 0.958 . S
C311 H326 0.961 . S
C311 H327 0.960 . S
H312 C296 0.931 . S
H313 C301 0.929 . S
H314 C302 0.960 . S
H315 C302 0.962 . S
H316 C302 0.960 . S
H317 C303 0.961 . S
H318 C303 0.961 . S
H319 C303 0.961 . S
H320 C304 0.931 . S
H321 C309 0.930 . S
H322 C310 0.956 . S
H323 C310 0.961 . S
H324 C310 0.961 . S
H325 C311 0.958 . S
H326 C311 0.961 . S
H327 C311 0.960 . S
C73 C22 1.556 . S
C81 C41 1.554 . S
C105 C8 1.596 1_565 S
C113 C61 1.538 . S
C137 C31 1.554 1_655 S
C145 C50 1.567 . S
C169 C17 1.528 . S
C177 C70 1.560 . S
C201 C30 1.551 . S
C209 C47 1.545 . S
C233 C27 1.543 . S
C241 C67 1.540 . S
C273 C44 1.564 . S
C265 C23 1.536 . S
C297 C24 1.563 1_565 S
C305 C64 1.569 . S
