# Generated by pormake.
# Topology ptr, (4,4)-cn, num edge types: 1
# Building blocks:
#     Node 0, Type 0, BuildingBlock: TATPOV_clean_sbu_0, # of connection points: 4
#     Node 1, Type 0, BuildingBlock: TATPOV_clean_sbu_0, # of connection points: 4
#     Node 2, Type 0, BuildingBlock: TATPOV_clean_sbu_0, # of connection points: 4
#     Node 3, Type 0, BuildingBlock: TATPOV_clean_sbu_0, # of connection points: 4
#     Node 4, Type 0, BuildingBlock: TATPOV_clean_sbu_0, # of connection points: 4
#     Node 5, Type 0, BuildingBlock: TATPOV_clean_sbu_0, # of connection points: 4
#     Node 6, Type 0, BuildingBlock: TATPOV_clean_sbu_0, # of connection points: 4
#     Node 7, Type 0, BuildingBlock: TATPOV_clean_sbu_0, # of connection points: 4
#     Node 8, Type 0, BuildingBlock: TATPOV_clean_sbu_0, # of connection points: 4
#     Node 9, Type 0, BuildingBlock: TATPOV_clean_sbu_0, # of connection points: 4
#     Node 10, Type 0, BuildingBlock: TATPOV_clean_sbu_0, # of connection points: 4
#     Node 11, Type 0, BuildingBlock: TATPOV_clean_sbu_0, # of connection points: 4
#     Node 12, Type 0, BuildingBlock: TATPOV_clean_sbu_0, # of connection points: 4
#     Node 13, Type 0, BuildingBlock: TATPOV_clean_sbu_0, # of connection points: 4
#     Node 14, Type 0, BuildingBlock: TATPOV_clean_sbu_0, # of connection points: 4
#     Node 15, Type 0, BuildingBlock: TATPOV_clean_sbu_0, # of connection points: 4
#     Node 16, Type 0, BuildingBlock: TATPOV_clean_sbu_0, # of connection points: 4
#     Node 17, Type 0, BuildingBlock: TATPOV_clean_sbu_0, # of connection points: 4
#     Node 18, Type 1, BuildingBlock: MUDLON_clean_linker_0, # of connection points: 4
#     Node 19, Type 1, BuildingBlock: MUDLON_clean_linker_0, # of connection points: 4
#     Node 20, Type 1, BuildingBlock: MUDLON_clean_linker_0, # of connection points: 4
#     Node 21, Type 1, BuildingBlock: MUDLON_clean_linker_0, # of connection points: 4
#     Node 22, Type 1, BuildingBlock: MUDLON_clean_linker_0, # of connection points: 4
#     Node 23, Type 1, BuildingBlock: MUDLON_clean_linker_0, # of connection points: 4
#     Node 24, Type 1, BuildingBlock: MUDLON_clean_linker_0, # of connection points: 4
#     Node 25, Type 1, BuildingBlock: MUDLON_clean_linker_0, # of connection points: 4
#     Node 26, Type 1, BuildingBlock: MUDLON_clean_linker_0, # of connection points: 4
#     Node 27, Type 1, BuildingBlock: MUDLON_clean_linker_0, # of connection points: 4
#     Node 28, Type 1, BuildingBlock: MUDLON_clean_linker_0, # of connection points: 4
#     Node 29, Type 1, BuildingBlock: MUDLON_clean_linker_0, # of connection points: 4
#     Node 30, Type 1, BuildingBlock: MUDLON_clean_linker_0, # of connection points: 4
#     Node 31, Type 1, BuildingBlock: MUDLON_clean_linker_0, # of connection points: 4
#     Node 32, Type 1, BuildingBlock: MUDLON_clean_linker_0, # of connection points: 4
#     Node 33, Type 1, BuildingBlock: MUDLON_clean_linker_0, # of connection points: 4
#     Node 34, Type 1, BuildingBlock: MUDLON_clean_linker_0, # of connection points: 4
#     Node 35, Type 1, BuildingBlock: MUDLON_clean_linker_0, # of connection points: 4
#     Edge 36, Type (0, 1), BuildingBlock: TEMPAE_clean_linker_10, # of connection points: 2
#     Edge 37, Type (0, 1), BuildingBlock: TEMPAE_clean_linker_10, # of connection points: 2
#     Edge 38, Type (0, 1), BuildingBlock: TEMPAE_clean_linker_10, # of connection points: 2
#     Edge 39, Type (0, 1), BuildingBlock: TEMPAE_clean_linker_10, # of connection points: 2
#     Edge 40, Type (0, 1), BuildingBlock: TEMPAE_clean_linker_10, # of connection points: 2
#     Edge 41, Type (0, 1), BuildingBlock: TEMPAE_clean_linker_10, # of connection points: 2
#     Edge 42, Type (0, 1), BuildingBlock: TEMPAE_clean_linker_10, # of connection points: 2
#     Edge 43, Type (0, 1), BuildingBlock: TEMPAE_clean_linker_10, # of connection points: 2
#     Edge 44, Type (0, 1), BuildingBlock: TEMPAE_clean_linker_10, # of connection points: 2
#     Edge 45, Type (0, 1), BuildingBlock: TEMPAE_clean_linker_10, # of connection points: 2
#     Edge 46, Type (0, 1), BuildingBlock: TEMPAE_clean_linker_10, # of connection points: 2
#     Edge 47, Type (0, 1), BuildingBlock: TEMPAE_clean_linker_10, # of connection points: 2
#     Edge 48, Type (0, 1), BuildingBlock: TEMPAE_clean_linker_10, # of connection points: 2
#     Edge 49, Type (0, 1), BuildingBlock: TEMPAE_clean_linker_10, # of connection points: 2
#     Edge 50, Type (0, 1), BuildingBlock: TEMPAE_clean_linker_10, # of connection points: 2
#     Edge 51, Type (0, 1), BuildingBlock: TEMPAE_clean_linker_10, # of connection points: 2
#     Edge 52, Type (0, 1), BuildingBlock: TEMPAE_clean_linker_10, # of connection points: 2
#     Edge 53, Type (0, 1), BuildingBlock: TEMPAE_clean_linker_10, # of connection points: 2
#     Edge 54, Type (0, 1), BuildingBlock: TEMPAE_clean_linker_10, # of connection points: 2
#     Edge 55, Type (0, 1), BuildingBlock: TEMPAE_clean_linker_10, # of connection points: 2
#     Edge 56, Type (0, 1), BuildingBlock: TEMPAE_clean_linker_10, # of connection points: 2
#     Edge 57, Type (0, 1), BuildingBlock: TEMPAE_clean_linker_10, # of connection points: 2
#     Edge 58, Type (0, 1), BuildingBlock: TEMPAE_clean_linker_10, # of connection points: 2
#     Edge 59, Type (0, 1), BuildingBlock: TEMPAE_clean_linker_10, # of connection points: 2
#     Edge 60, Type (0, 1), BuildingBlock: TEMPAE_clean_linker_10, # of connection points: 2
#     Edge 61, Type (0, 1), BuildingBlock: TEMPAE_clean_linker_10, # of connection points: 2
#     Edge 62, Type (0, 1), BuildingBlock: TEMPAE_clean_linker_10, # of connection points: 2
#     Edge 63, Type (0, 1), BuildingBlock: TEMPAE_clean_linker_10, # of connection points: 2
#     Edge 64, Type (0, 1), BuildingBlock: TEMPAE_clean_linker_10, # of connection points: 2
#     Edge 65, Type (0, 1), BuildingBlock: TEMPAE_clean_linker_10, # of connection points: 2
#     Edge 66, Type (0, 1), BuildingBlock: TEMPAE_clean_linker_10, # of connection points: 2
#     Edge 67, Type (0, 1), BuildingBlock: TEMPAE_clean_linker_10, # of connection points: 2
#     Edge 68, Type (0, 1), BuildingBlock: TEMPAE_clean_linker_10, # of connection points: 2
#     Edge 69, Type (0, 1), BuildingBlock: TEMPAE_clean_linker_10, # of connection points: 2
#     Edge 70, Type (0, 1), BuildingBlock: TEMPAE_clean_linker_10, # of connection points: 2
#     Edge 71, Type (0, 1), BuildingBlock: TEMPAE_clean_linker_10, # of connection points: 2
#     Edge 72, Type (0, 1), BuildingBlock: TEMPAE_clean_linker_10, # of connection points: 2
#     Edge 73, Type (0, 1), BuildingBlock: TEMPAE_clean_linker_10, # of connection points: 2
#     Edge 74, Type (0, 1), BuildingBlock: TEMPAE_clean_linker_10, # of connection points: 2
#     Edge 75, Type (0, 1), BuildingBlock: TEMPAE_clean_linker_10, # of connection points: 2
#     Edge 76, Type (0, 1), BuildingBlock: TEMPAE_clean_linker_10, # of connection points: 2
#     Edge 77, Type (0, 1), BuildingBlock: TEMPAE_clean_linker_10, # of connection points: 2
#     Edge 78, Type (0, 1), BuildingBlock: TEMPAE_clean_linker_10, # of connection points: 2
#     Edge 79, Type (0, 1), BuildingBlock: TEMPAE_clean_linker_10, # of connection points: 2
#     Edge 80, Type (0, 1), BuildingBlock: TEMPAE_clean_linker_10, # of connection points: 2
#     Edge 81, Type (0, 1), BuildingBlock: TEMPAE_clean_linker_10, # of connection points: 2
#     Edge 82, Type (0, 1), BuildingBlock: TEMPAE_clean_linker_10, # of connection points: 2
#     Edge 83, Type (0, 1), BuildingBlock: TEMPAE_clean_linker_10, # of connection points: 2
#     Edge 84, Type (0, 1), BuildingBlock: TEMPAE_clean_linker_10, # of connection points: 2
#     Edge 85, Type (0, 1), BuildingBlock: TEMPAE_clean_linker_10, # of connection points: 2
#     Edge 86, Type (0, 1), BuildingBlock: TEMPAE_clean_linker_10, # of connection points: 2
#     Edge 87, Type (0, 1), BuildingBlock: TEMPAE_clean_linker_10, # of connection points: 2
#     Edge 88, Type (0, 1), BuildingBlock: TEMPAE_clean_linker_10, # of connection points: 2
#     Edge 89, Type (0, 1), BuildingBlock: TEMPAE_clean_linker_10, # of connection points: 2
#     Edge 90, Type (0, 1), BuildingBlock: TEMPAE_clean_linker_10, # of connection points: 2
#     Edge 91, Type (0, 1), BuildingBlock: TEMPAE_clean_linker_10, # of connection points: 2
#     Edge 92, Type (0, 1), BuildingBlock: TEMPAE_clean_linker_10, # of connection points: 2
#     Edge 93, Type (0, 1), BuildingBlock: TEMPAE_clean_linker_10, # of connection points: 2
#     Edge 94, Type (0, 1), BuildingBlock: TEMPAE_clean_linker_10, # of connection points: 2
#     Edge 95, Type (0, 1), BuildingBlock: TEMPAE_clean_linker_10, # of connection points: 2
#     Edge 96, Type (0, 1), BuildingBlock: TEMPAE_clean_linker_10, # of connection points: 2
#     Edge 97, Type (0, 1), BuildingBlock: TEMPAE_clean_linker_10, # of connection points: 2
#     Edge 98, Type (0, 1), BuildingBlock: TEMPAE_clean_linker_10, # of connection points: 2
#     Edge 99, Type (0, 1), BuildingBlock: TEMPAE_clean_linker_10, # of connection points: 2
#     Edge 100, Type (0, 1), BuildingBlock: TEMPAE_clean_linker_10, # of connection points: 2
#     Edge 101, Type (0, 1), BuildingBlock: TEMPAE_clean_linker_10, # of connection points: 2
#     Edge 102, Type (0, 1), BuildingBlock: TEMPAE_clean_linker_10, # of connection points: 2
#     Edge 103, Type (0, 1), BuildingBlock: TEMPAE_clean_linker_10, # of connection points: 2
#     Edge 104, Type (0, 1), BuildingBlock: TEMPAE_clean_linker_10, # of connection points: 2
#     Edge 105, Type (0, 1), BuildingBlock: TEMPAE_clean_linker_10, # of connection points: 2
#     Edge 106, Type (0, 1), BuildingBlock: TEMPAE_clean_linker_10, # of connection points: 2
#     Edge 107, Type (0, 1), BuildingBlock: TEMPAE_clean_linker_10, # of connection points: 2
# Relax obj value: 0.059
# Max RMSD: 0.186
# Mean RMSD: 0.100
data_MOF--net-ptr--node1-TATPOV_clean_sbu_0--node2-MUDLON_clean_linker_0--edge1-TEMPAE_clean_linker_10
_symmetry_space_group_name_H-M    P1
_symmetry_Int_Tables_number       1
_symmetry_cell_setting            triclinic
loop_
_symmetry_equiv_pos_as_xyz
'x, y, z'
_cell_length_a     105.72994
_cell_length_b     107.20105
_cell_length_c     61.864891
_cell_angle_alpha  89.532281
_cell_angle_beta   90.899382
_cell_angle_gamma 121.35069
loop_
_atom_site_label
_atom_site_type_symbol
_atom_site_fract_x
_atom_site_fract_y
_atom_site_fract_z
_atom_type_partial_charge
Zn0 Zn 0.96978 0.3789 0.01732 0.0
Zn1 Zn 0.99375 0.37615 0.0182 0.0
O2 O 0.97621 0.35506 0.0156 0.0
O3 O 0.9565 0.35696 0.01321 0.0
O4 O 0.01082 0.37283 0.02182 0.0
O5 O 0.97488 0.38805 0.04691 0.0
O6 O 0.99511 0.38698 0.04646 0.0
C7 C 0.96224 0.34912 0.01336 0.0
C8 C 0.99034 0.394 0.98243 0.0
O9 O 0.9973 0.38815 0.99016 0.0
O10 O 0.97878 0.39209 0.99144 0.0
C11 C 0.02236 0.37757 0.01045 0.0
O12 O 0.02433 0.38604 0.99378 0.0
C13 C 0.98693 0.39076 0.05577 0.0
Zn14 Zn 0.64544 0.60642 0.01925 0.0
Zn15 Zn 0.64473 0.6308 0.02552 0.0
O16 O 0.66664 0.63777 0.01922 0.0
O17 O 0.66748 0.61782 0.01564 0.0
O18 O 0.64623 0.65007 0.03147 0.0
O19 O 0.63678 0.5991 0.04862 0.0
O20 O 0.63593 0.61897 0.05364 0.0
C21 C 0.67402 0.63161 0.01594 0.0
C22 C 0.62694 0.6104 0.98819 0.0
O23 O 0.63065 0.62184 0.9992 0.0
O24 O 0.63196 0.6023 0.99331 0.0
C25 C 0.63759 0.65415 0.02436 0.0
O26 O 0.62617 0.64524 0.01214 0.0
C27 C 0.63351 0.60663 0.06033 0.0
Zn28 Zn 0.36852 0.97413 0.0234 0.0
Zn29 Zn 0.37107 1.00019 0.01843 0.0
O30 O 0.34882 0.9863 0.02432 0.0
O31 O 0.34686 0.9651 0.03029 0.0
O32 O 0.37242 0.01947 0.01288 0.0
O33 O 0.37494 0.97465 0.99284 0.0
O34 O 0.37831 0.99663 0.98954 0.0
C35 C 0.34096 0.97278 0.02908 0.0
C36 C 0.38928 0.99581 0.05351 0.0
O37 O 0.385 0.00385 0.04476 0.0
O38 O 0.38414 0.98287 0.0469 0.0
C39 C 0.36642 0.02443 0.02499 0.0
O40 O 0.3596 0.01713 0.04248 0.0
C41 C 0.37901 0.98604 0.98167 0.0
Zn42 Zn 0.03635 0.63226 0.01221 0.0
Zn43 Zn 0.00947 0.62968 0.01252 0.0
O44 O 0.02468 0.6516 0.01639 0.0
O45 O 0.04673 0.65429 0.01456 0.0
O46 O 0.9903 0.62955 0.01039 0.0
O47 O 0.03164 0.62254 0.98297 0.0
O48 O 0.00977 0.62036 0.9836 0.0
C49 C 0.03874 0.65979 0.01672 0.0
C50 C 0.01726 0.61485 0.04794 0.0
O51 O 0.0079 0.61758 0.03939 0.0
O52 O 0.02985 0.61984 0.03945 0.0
C53 C 0.98777 0.63725 0.0231 0.0
O54 O 0.99725 0.64435 0.0389 0.0
C55 C 0.01917 0.61831 0.97412 0.0
Zn56 Zn 0.36594 0.39791 0.02046 0.0
Zn57 Zn 0.36537 0.37306 0.01255 0.0
O58 O 0.34369 0.36624 0.01997 0.0
O59 O 0.3444 0.38653 0.02813 0.0
O60 O 0.36369 0.3539 0.00503 0.0
O61 O 0.37187 0.40456 0.98981 0.0
O62 O 0.37336 0.38507 0.98441 0.0
C63 C 0.33717 0.37277 0.02613 0.0
C64 C 0.38556 0.39365 0.04847 0.0
O65 O 0.38009 0.38156 0.03834 0.0
O66 O 0.38155 0.40258 0.04347 0.0
C67 C 0.36668 0.34633 0.01767 0.0
O68 O 0.37176 0.35118 0.03725 0.0
C69 C 0.37492 0.39706 0.97766 0.0
Zn70 Zn 0.62716 0.02738 0.01166 0.0
Zn71 Zn 0.6265 0.00172 0.0139 0.0
O72 O 0.64844 0.01764 0.00916 0.0
O73 O 0.6488 0.03815 0.00384 0.0
O74 O 0.62643 0.98271 0.01681 0.0
O75 O 0.62126 0.02504 0.04298 0.0
O76 O 0.618 0.00299 0.04301 0.0
C77 C 0.65553 0.03125 0.00483 0.0
C78 C 0.60739 0.00585 0.98028 0.0
O79 O 0.61274 0.99841 0.98779 0.0
O80 O 0.6113 0.01821 0.98829 0.0
C81 C 0.63792 0.98193 0.01405 0.0
O82 O 0.65032 0.9937 0.0083 0.0
C83 C 0.61718 0.01305 0.05249 0.0
Zn84 Zn 0.62921 0.70775 0.34726 0.0
Zn85 Zn 0.65481 0.70784 0.35116 0.0
O86 O 0.63895 0.68621 0.34666 0.0
O87 O 0.61791 0.68569 0.34386 0.0
O88 O 0.67345 0.7072 0.35553 0.0
O89 O 0.63265 0.71691 0.37671 0.0
O90 O 0.6535 0.71704 0.37965 0.0
C91 C 0.62493 0.67905 0.34406 0.0
C92 C 0.65073 0.72476 0.31434 0.0
O93 O 0.65854 0.72044 0.32393 0.0
O94 O 0.638 0.72097 0.32126 0.0
C95 C 0.67758 0.70138 0.34168 0.0
O96 O 0.66983 0.69619 0.32369 0.0
C97 C 0.64422 0.71995 0.38741 0.0
Zn98 Zn 0.29777 0.93659 0.34671 0.0
Zn99 Zn 0.30159 0.96321 0.35314 0.0
O100 O 0.32274 0.96783 0.34733 0.0
O101 O 0.3199 0.94615 0.34295 0.0
O102 O 0.30442 0.98305 0.35912 0.0
O103 O 0.28864 0.92993 0.37577 0.0
O104 O 0.29227 0.95184 0.38155 0.0
C105 C 0.32824 0.95992 0.34373 0.0
C106 C 0.28191 0.94373 0.31584 0.0
O107 O 0.28788 0.9558 0.32609 0.0
O108 O 0.28433 0.93378 0.3215 0.0
C109 C 0.31257 0.99413 0.34741 0.0
O110 O 0.31916 0.9926 0.33069 0.0
C111 C 0.28759 0.9388 0.38787 0.0
Zn112 Zn 0.03666 0.30658 0.35556 0.0
Zn113 Zn 0.04083 0.33366 0.35174 0.0
O114 O 0.0183 0.32015 0.35642 0.0
O115 O 0.01466 0.29797 0.35762 0.0
O116 O 0.0432 0.35345 0.3469 0.0
O117 O 0.0454 0.30847 0.32615 0.0
O118 O 0.04883 0.33053 0.32339 0.0
C119 C 0.00959 0.30636 0.35799 0.0
C120 C 0.05592 0.32707 0.38882 0.0
O121 O 0.05373 0.33614 0.37849 0.0
O122 O 0.04977 0.31393 0.38249 0.0
C123 C 0.0362 0.35794 0.35771 0.0
O124 O 0.02752 0.34973 0.37335 0.0
C125 C 0.04987 0.32014 0.31552 0.0
Zn126 Zn 0.70333 0.96056 0.34382 0.0
Zn127 Zn 0.67872 0.96194 0.34199 0.0
O128 O 0.69558 0.98332 0.34647 0.0
O129 O 0.71597 0.98256 0.34604 0.0
O130 O 0.66091 0.96419 0.3381 0.0
O131 O 0.69863 0.95047 0.31519 0.0
O132 O 0.6789 0.95242 0.31292 0.0
C133 C 0.70967 0.98984 0.34745 0.0
C134 C 0.68292 0.94477 0.37839 0.0
O135 O 0.67498 0.94916 0.36935 0.0
O136 O 0.69535 0.94827 0.37058 0.0
C137 C 0.64928 0.95871 0.34945 0.0
O138 O 0.64783 0.95028 0.36593 0.0
C139 C 0.68725 0.94837 0.30491 0.0
Zn140 Zn 0.0344 0.73106 0.36952 0.0
Zn141 Zn 0.03299 0.70639 0.3565 0.0
O142 O 0.01144 0.69964 0.36438 0.0
O143 O 0.01256 0.71956 0.37598 0.0
O144 O 0.03107 0.68751 0.3465 0.0
O145 O 0.04167 0.73974 0.33986 0.0
O146 O 0.0406 0.71959 0.32955 0.0
C147 C 0.00511 0.706 0.37199 0.0
C148 C 0.05331 0.72448 0.39472 0.0
O149 O 0.04813 0.71352 0.38202 0.0
O150 O 0.04911 0.73354 0.3927 0.0
C151 C 0.03298 0.67907 0.35888 0.0
O152 O 0.03678 0.68277 0.37921 0.0
C153 C 0.04348 0.73249 0.32546 0.0
Zn154 Zn 0.30186 0.36464 0.34891 0.0
Zn155 Zn 0.29985 0.33874 0.3501 0.0
O156 O 0.32207 0.35353 0.34532 0.0
O157 O 0.32341 0.37455 0.34069 0.0
O158 O 0.29941 0.31974 0.3536 0.0
O159 O 0.29611 0.36283 0.38016 0.0
O160 O 0.29115 0.34019 0.37905 0.0
C161 C 0.32962 0.36715 0.3411 0.0
C162 C 0.28171 0.34405 0.31677 0.0
O163 O 0.28673 0.33614 0.32341 0.0
O164 O 0.28579 0.35618 0.32573 0.0
C165 C 0.30502 0.31526 0.33992 0.0
O166 O 0.31061 0.32279 0.3221 0.0
C167 C 0.291 0.35047 0.38903 0.0
Zn168 Zn 0.30278 0.04444 0.6824 0.0
Zn169 Zn 0.32822 0.04414 0.68399 0.0
O170 O 0.31181 0.02251 0.68085 0.0
O171 O 0.29091 0.02233 0.68034 0.0
O172 O 0.34659 0.04301 0.68767 0.0
O173 O 0.30762 0.05444 0.71153 0.0
O174 O 0.32842 0.05443 0.71206 0.0
C175 C 0.29771 0.01549 0.6797 0.0
C176 C 0.32325 0.06033 0.6473 0.0
O177 O 0.33139 0.05626 0.65651 0.0
O178 O 0.3108 0.05672 0.65518 0.0
C179 C 0.35025 0.03652 0.67429 0.0
O180 O 0.34219 0.0309 0.65665 0.0
C181 C 0.31971 0.05772 0.72085 0.0
Zn182 Zn 0.96645 0.27313 0.68698 0.0
Zn183 Zn 0.96909 0.29953 0.68936 0.0
O184 O 0.99062 0.30444 0.68513 0.0
O185 O 0.98855 0.28295 0.68354 0.0
O186 O 0.971 0.31913 0.69336 0.0
O187 O 0.95749 0.26776 0.71668 0.0
O188 O 0.95853 0.28881 0.71734 0.0
C189 C 0.99654 0.29675 0.68306 0.0
C190 C 0.95041 0.27859 0.65314 0.0
O191 O 0.95587 0.29096 0.6624 0.0
O192 O 0.95322 0.26921 0.66053 0.0
C193 C 0.98041 0.3309 0.68397 0.0
O194 O 0.98967 0.33066 0.67029 0.0
C195 C 0.95484 0.27659 0.72608 0.0
Zn196 Zn 0.71144 0.64356 0.68818 0.0
Zn197 Zn 0.70953 0.66744 0.68389 0.0
O198 O 0.68826 0.6514 0.69211 0.0
O199 O 0.68982 0.6318 0.69586 0.0
O200 O 0.70785 0.68518 0.67863 0.0
O201 O 0.71745 0.64478 0.65737 0.0
O202 O 0.71665 0.66481 0.65413 0.0
C203 C 0.68221 0.63782 0.69633 0.0
C204 C 0.73088 0.66681 0.71741 0.0
O205 O 0.72481 0.67335 0.70894 0.0
O206 O 0.72724 0.65416 0.71107 0.0
C207 C 0.70098 0.68894 0.69117 0.0
O208 O 0.69506 0.6813 0.70881 0.0
C209 C 0.71914 0.6554 0.64602 0.0
Zn210 Zn 0.3677 0.296 0.6792 0.0
Zn211 Zn 0.34163 0.29475 0.67588 0.0
O212 O 0.35741 0.31655 0.68027 0.0
O213 O 0.37897 0.31804 0.68089 0.0
O214 O 0.3233 0.29591 0.67082 0.0
O215 O 0.3641 0.28611 0.65038 0.0
O216 O 0.34283 0.28514 0.64767 0.0
C217 C 0.3715 0.32418 0.6816 0.0
C218 C 0.34673 0.27915 0.71331 0.0
O219 O 0.33813 0.28233 0.70328 0.0
O220 O 0.35965 0.28377 0.70633 0.0
C221 C 0.31262 0.29231 0.68359 0.0
O222 O 0.31248 0.2865 0.70243 0.0
C223 C 0.35229 0.28247 0.63991 0.0
Zn224 Zn 0.69617 0.063 0.68544 0.0
Zn225 Zn 0.69558 0.03776 0.68038 0.0
O226 O 0.67368 0.03128 0.68489 0.0
O227 O 0.67392 0.05184 0.68795 0.0
O228 O 0.69461 0.01876 0.67461 0.0
O229 O 0.70568 0.07015 0.65642 0.0
O230 O 0.70555 0.04967 0.65287 0.0
C231 C 0.66681 0.03801 0.68749 0.0
C232 C 0.71306 0.05785 0.71813 0.0
O233 O 0.70868 0.04607 0.70765 0.0
O234 O 0.70915 0.06668 0.71198 0.0
C235 C 0.68702 0.0073 0.6859 0.0
O236 O 0.6797 0.00779 0.70252 0.0
C237 C 0.7088 0.06215 0.64559 0.0
Zn238 Zn 0.96876 0.704 0.67319 0.0
Zn239 Zn 0.96685 0.67775 0.67335 0.0
O240 O 0.9886 0.69292 0.66616 0.0
O241 O 0.99067 0.71446 0.66725 0.0
O242 O 0.96753 0.65928 0.67629 0.0
O243 O 0.96223 0.70116 0.70403 0.0
O244 O 0.95929 0.67924 0.70333 0.0
C245 C 0.99642 0.70679 0.6646 0.0
C246 C 0.94816 0.68288 0.64097 0.0
O247 O 0.95241 0.67451 0.64841 0.0
O248 O 0.95333 0.69555 0.64885 0.0
C249 C 0.95649 0.64624 0.67592 0.0
O250 O 0.94315 0.64396 0.67249 0.0
C251 C 0.95839 0.68914 0.71324 0.0
H252 H 0.23858 0.3625 0.13407 0.0
N253 N 0.21154 0.34497 0.11834 0.0
H254 H 0.2491 0.36026 0.16803 0.0
H255 H 0.19618 0.32524 0.15087 0.0
H256 H 0.20621 0.32363 0.1857 0.0
H257 H 0.21072 0.31916 0.11522 0.0
H258 H 0.22626 0.31466 0.09136 0.0
H259 H 0.22563 0.36043 0.08375 0.0
H260 H 0.24099 0.35601 0.05974 0.0
H261 H 0.2043 0.36515 0.11538 0.0
H262 H 0.18574 0.31866 0.11391 0.0
H263 H 0.17968 0.36151 0.10976 0.0
H264 H 0.16088 0.31473 0.10959 0.0
H265 H 0.10677 0.3484 0.12509 0.0
H266 H 0.09714 0.34782 0.16085 0.0
H267 H 0.0899 0.30479 0.17163 0.0
H268 H 0.09904 0.30508 0.13519 0.0
H269 H 0.0828 0.31189 0.08501 0.0
H270 H 0.07145 0.32206 0.06185 0.0
H271 H 0.11168 0.36446 0.06578 0.0
H272 H 0.12278 0.35426 0.08938 0.0
H273 H 0.1327 0.34961 0.12528 0.0
H274 H 0.15763 0.3539 0.12756 0.0
H275 H 0.14424 0.31658 0.08619 0.0
N276 N 0.10858 0.32629 0.10581 0.0
H277 H 0.11897 0.31189 0.08513 0.0
C278 C 0.21659 0.34423 0.13989 0.0
C279 C 0.23144 0.35408 0.14541 0.0
C280 C 0.2374 0.35281 0.16497 0.0
C281 C 0.22854 0.3418 0.17992 0.0
C282 C 0.2135 0.3321 0.17457 0.0
C283 C 0.20763 0.33316 0.15465 0.0
C284 C 0.21726 0.34027 0.10136 0.0
C285 C 0.21695 0.32701 0.10268 0.0
C286 C 0.22585 0.32447 0.08911 0.0
C287 C 0.23494 0.33504 0.07382 0.0
C288 C 0.23402 0.34758 0.07119 0.0
C289 C 0.22529 0.35017 0.08491 0.0
C290 C 0.19678 0.34222 0.11535 0.0
C291 C 0.19482 0.35414 0.11408 0.0
C292 C 0.18071 0.352 0.111 0.0
C293 C 0.16817 0.33781 0.1094 0.0
C294 C 0.17023 0.32583 0.11046 0.0
C295 C 0.18442 0.32802 0.1132 0.0
C296 C 0.10332 0.32656 0.12716 0.0
C297 C 0.10295 0.33871 0.13486 0.0
C298 C 0.09751 0.33844 0.15537 0.0
C299 C 0.09274 0.32624 0.16881 0.0
C300 C 0.09353 0.31431 0.16148 0.0
C301 C 0.09868 0.31445 0.14074 0.0
C302 C 0.10359 0.33222 0.08896 0.0
C303 C 0.08928 0.32329 0.0804 0.0
C304 C 0.08284 0.32914 0.06712 0.0
C305 C 0.09062 0.34412 0.06205 0.0
C306 C 0.10532 0.35292 0.06961 0.0
C307 C 0.11175 0.34705 0.08295 0.0
C308 C 0.12388 0.33026 0.1052 0.0
C309 C 0.13511 0.34236 0.11664 0.0
C310 C 0.14946 0.34487 0.11778 0.0
C311 C 0.15303 0.33553 0.10719 0.0
C312 C 0.14188 0.32382 0.09498 0.0
C313 C 0.12747 0.32121 0.09411 0.0
H314 H 0.69806 0.7914 0.13091 0.0
N315 N 0.6777 0.79302 0.10739 0.0
H316 H 0.69553 0.78179 0.16781 0.0
H317 H 0.65439 0.78502 0.13417 0.0
H318 H 0.65159 0.77495 0.17073 0.0
H319 H 0.6486 0.77101 0.10247 0.0
H320 H 0.63966 0.74836 0.08268 0.0
H321 H 0.6928 0.7871 0.07969 0.0
H322 H 0.684 0.76416 0.06028 0.0
H323 H 0.69838 0.82052 0.11481 0.0
H324 H 0.65367 0.79376 0.09045 0.0
H325 H 0.69671 0.84219 0.11053 0.0
H326 H 0.65216 0.81543 0.08482 0.0
H327 H 0.68956 0.9117 0.10727 0.0
H328 H 0.69091 0.92316 0.14181 0.0
H329 H 0.66217 0.88046 0.16969 0.0
H330 H 0.66 0.86932 0.13488 0.0
H331 H 0.64454 0.87659 0.10419 0.0
H332 H 0.63195 0.88737 0.08529 0.0
H333 H 0.66752 0.90738 0.03942 0.0
H334 H 0.68014 0.89677 0.05863 0.0
H335 H 0.69566 0.88086 0.08728 0.0
H336 H 0.69646 0.85854 0.08645 0.0
H337 H 0.64993 0.83342 0.10229 0.0
N338 N 0.67295 0.88365 0.09685 0.0
H339 H 0.64914 0.8558 0.10143 0.0
C340 C 0.67639 0.78876 0.12977 0.0
C341 C 0.688 0.78805 0.1397 0.0
C342 C 0.68655 0.78259 0.16069 0.0
C343 C 0.67332 0.77754 0.17194 0.0
C344 C 0.66183 0.77864 0.16224 0.0
C345 C 0.6634 0.78436 0.14139 0.0
C346 C 0.67145 0.7809 0.09246 0.0
C347 C 0.65636 0.76987 0.09278 0.0
C348 C 0.65126 0.75678 0.08163 0.0
C349 C 0.66114 0.75433 0.07012 0.0
C350 C 0.67605 0.7657 0.06879 0.0
C351 C 0.68111 0.77884 0.07987 0.0
C352 C 0.6763 0.80549 0.10285 0.0
C353 C 0.68829 0.81937 0.10812 0.0
C354 C 0.68732 0.83178 0.10546 0.0
C355 C 0.67433 0.8307 0.09708 0.0
C356 C 0.6623 0.81675 0.09155 0.0
C357 C 0.66321 0.80425 0.09458 0.0
C358 C 0.67488 0.88966 0.11833 0.0
C359 C 0.68368 0.90484 0.12094 0.0
C360 C 0.68447 0.91136 0.14078 0.0
C361 C 0.67663 0.90278 0.15871 0.0
C362 C 0.66812 0.8875 0.15622 0.0
C363 C 0.66707 0.88102 0.13622 0.0
C364 C 0.66338 0.88605 0.08288 0.0
C365 C 0.64936 0.88287 0.08964 0.0
C366 C 0.64222 0.8891 0.07891 0.0
C367 C 0.64885 0.89835 0.06105 0.0
C368 C 0.66211 0.90024 0.05305 0.0
C369 C 0.66932 0.89418 0.06396 0.0
C370 C 0.67246 0.87003 0.09474 0.0
C371 C 0.68561 0.87048 0.09024 0.0
C372 C 0.68605 0.85768 0.09004 0.0
C373 C 0.67334 0.84408 0.09482 0.0
C374 C 0.65995 0.8436 0.09843 0.0
C375 C 0.65948 0.85643 0.09814 0.0
H376 H 0.10749 0.77745 0.14283 0.0
N377 N 0.1039 0.79742 0.11949 0.0
H378 H 0.09712 0.76726 0.17788 0.0
H379 H 0.08749 0.80372 0.14408 0.0
H380 H 0.07691 0.79336 0.17957 0.0
H381 H 0.07954 0.78551 0.09493 0.0
H382 H 0.07001 0.76406 0.07135 0.0
H383 H 0.11899 0.78408 0.10765 0.0
H384 H 0.10942 0.76258 0.08454 0.0
H385 H 0.1287 0.80116 0.14115 0.0
H386 H 0.11343 0.82138 0.0957 0.0
H387 H 0.15357 0.82209 0.13919 0.0
H388 H 0.13878 0.84235 0.0928 0.0
H389 H 0.23402 0.88773 0.13314 0.0
H390 H 0.24573 0.9001 0.167 0.0
H391 H 0.20717 0.90255 0.18154 0.0
H392 H 0.19612 0.89116 0.14687 0.0
H393 H 0.21096 0.90869 0.11042 0.0
H394 H 0.22898 0.92796 0.08654 0.0
H395 H 0.239 0.89725 0.05889 0.0
H396 H 0.22124 0.87825 0.08302 0.0
H397 H 0.19934 0.85416 0.11686 0.0
H398 H 0.17389 0.83341 0.11601 0.0
H399 H 0.15792 0.86322 0.11179 0.0
N400 N 0.20839 0.88225 0.11648 0.0
H401 H 0.1836 0.88389 0.11149 0.0
C402 C 0.09838 0.79153 0.14073 0.0
C403 C 0.10097 0.78115 0.15063 0.0
C404 C 0.09504 0.77532 0.1708 0.0
C405 C 0.08625 0.77955 0.18148 0.0
C406 C 0.0836 0.78986 0.17163 0.0
C407 C 0.08968 0.79583 0.15148 0.0
C408 C 0.09987 0.78636 0.10319 0.0
C409 C 0.08626 0.78076 0.09227 0.0
C410 C 0.08086 0.76855 0.07883 0.0
C411 C 0.08895 0.76164 0.07631 0.0
C412 C 0.10293 0.76766 0.08638 0.0
C413 C 0.10841 0.77998 0.09956 0.0
C414 C 0.11898 0.80968 0.11871 0.0
C415 C 0.1306 0.81006 0.13068 0.0
C416 C 0.14501 0.82207 0.12934 0.0
C417 C 0.14828 0.83394 0.11572 0.0
C418 C 0.13667 0.83352 0.10367 0.0
C419 C 0.12219 0.82152 0.10519 0.0
C420 C 0.21413 0.88827 0.13762 0.0
C421 C 0.22808 0.89084 0.14378 0.0
C422 C 0.2347 0.89787 0.16323 0.0
C423 C 0.22737 0.90226 0.17726 0.0
C424 C 0.21326 0.89952 0.17111 0.0
C425 C 0.20678 0.89276 0.15136 0.0
C426 C 0.215 0.89213 0.09861 0.0
C427 C 0.21666 0.90602 0.09865 0.0
C428 C 0.22699 0.91702 0.08508 0.0
C429 C 0.23553 0.91416 0.07105 0.0
C430 C 0.23254 0.89979 0.0694 0.0
C431 C 0.2224 0.8889 0.08316 0.0
C432 C 0.19327 0.87045 0.11451 0.0
C433 C 0.1903 0.85614 0.11553 0.0
C434 C 0.17574 0.84433 0.11526 0.0
C435 C 0.16378 0.8466 0.11424 0.0
C436 C 0.16682 0.86103 0.1125 0.0
C437 C 0.18148 0.87287 0.1125 0.0
H438 H 0.35172 0.23527 0.9002 0.0
N439 N 0.32835 0.21165 0.91983 0.0
H440 H 0.3516 0.245 0.86462 0.0
H441 H 0.30641 0.20038 0.89053 0.0
H442 H 0.30614 0.21028 0.85466 0.0
H443 H 0.31108 0.22011 0.93651 0.0
H444 H 0.31857 0.24166 0.95864 0.0
H445 H 0.35571 0.22875 0.93939 0.0
H446 H 0.36319 0.24998 0.96219 0.0
H447 H 0.35433 0.21458 0.90559 0.0
H448 H 0.3143 0.18616 0.94036 0.0
H449 H 0.36157 0.19655 0.90851 0.0
H450 H 0.3218 0.16812 0.94419 0.0
H451 H 0.37541 0.14598 0.88417 0.0
H452 H 0.36903 0.13258 0.84988 0.0
H453 H 0.32678 0.09994 0.87599 0.0
H454 H 0.33338 0.11312 0.91012 0.0
H455 H 0.3375 0.12002 0.94783 0.0
H456 H 0.33828 0.10248 0.97258 0.0
H457 H 0.38407 0.11973 0.95644 0.0
H458 H 0.38315 0.13715 0.93172 0.0
H459 H 0.37702 0.16645 0.92893 0.0
H460 H 0.36999 0.18479 0.93207 0.0
H461 H 0.32402 0.15102 0.92275 0.0
N462 N 0.35958 0.13827 0.92007 0.0
H463 H 0.33112 0.13282 0.9206 0.0
C464 C 0.32901 0.21703 0.89811 0.0
C465 C 0.34174 0.22962 0.8904 0.0
C466 C 0.34162 0.23528 0.87006 0.0
C467 C 0.3288 0.22852 0.85693 0.0
C468 C 0.3162 0.2157 0.86437 0.0
C469 C 0.31633 0.21005 0.88481 0.0
C470 C 0.33272 0.22272 0.93626 0.0
C471 C 0.32239 0.2264 0.9425 0.0
C472 C 0.32672 0.23873 0.95521 0.0
C473 C 0.34154 0.24766 0.96212 0.0
C474 C 0.35174 0.2435 0.95686 0.0
C475 C 0.34742 0.23121 0.94398 0.0
C476 C 0.33359 0.20167 0.92255 0.0
C477 C 0.34711 0.20452 0.91404 0.0
C478 C 0.35135 0.19418 0.91594 0.0
C479 C 0.34227 0.1808 0.92657 0.0
C480 C 0.32896 0.17818 0.9356 0.0
C481 C 0.3247 0.1885 0.93357 0.0
C482 C 0.35494 0.13064 0.89969 0.0
C483 C 0.36474 0.13599 0.88234 0.0
C484 C 0.36105 0.12835 0.8628 0.0
C485 C 0.34742 0.11514 0.86025 0.0
C486 C 0.33746 0.10995 0.87753 0.0
C487 C 0.34118 0.11758 0.89706 0.0
C488 C 0.36031 0.12987 0.93782 0.0
C489 C 0.34778 0.12023 0.94993 0.0
C490 C 0.34822 0.11016 0.96401 0.0
C491 C 0.3612 0.10964 0.96635 0.0
C492 C 0.37394 0.11992 0.9552 0.0
C493 C 0.37345 0.12988 0.94107 0.0
C494 C 0.3547 0.14831 0.92435 0.0
C495 C 0.36542 0.16302 0.92797 0.0
C496 C 0.36137 0.17349 0.92952 0.0
C497 C 0.34644 0.16946 0.92734 0.0
C498 C 0.33561 0.15456 0.92467 0.0
C499 C 0.33969 0.14408 0.92329 0.0
H500 H 0.77106 0.10596 0.89895 0.0
N501 N 0.79672 0.10839 0.9144 0.0
H502 H 0.75832 0.09483 0.86517 0.0
H503 H 0.80582 0.09798 0.88298 0.0
H504 H 0.79293 0.08669 0.84867 0.0
H505 H 0.78719 0.08208 0.93105 0.0
H506 H 0.76559 0.06796 0.9541 0.0
H507 H 0.7825 0.11956 0.93692 0.0
H508 H 0.76121 0.10559 0.96023 0.0
H509 H 0.79464 0.13002 0.89269 0.0
H510 H 0.82099 0.12266 0.93913 0.0
H511 H 0.8119 0.15591 0.89455 0.0
H512 H 0.838 0.14906 0.94235 0.0
H513 H 0.87224 0.24141 0.89599 0.0
H514 H 0.88656 0.25265 0.86314 0.0
H515 H 0.89144 0.21552 0.85438 0.0
H516 H 0.87776 0.20458 0.88738 0.0
H517 H 0.89489 0.22243 0.92379 0.0
H518 H 0.91283 0.24121 0.94868 0.0
H519 H 0.87868 0.24825 0.9717 0.0
H520 H 0.8609 0.22965 0.94652 0.0
H521 H 0.83776 0.20287 0.91231 0.0
H522 H 0.82024 0.17664 0.91467 0.0
H523 H 0.85674 0.16978 0.92541 0.0
N524 N 0.867 0.21693 0.91515 0.0
H525 H 0.87397 0.19617 0.92472 0.0
C526 C 0.78944 0.10272 0.89368 0.0
C527 C 0.77596 0.10177 0.88822 0.0
C528 C 0.76862 0.09533 0.86888 0.0
C529 C 0.77451 0.08968 0.85443 0.0
C530 C 0.78814 0.09095 0.85953 0.0
C531 C 0.7955 0.09738 0.87906 0.0
C532 C 0.78654 0.10185 0.93216 0.0
C533 C 0.78187 0.08741 0.93795 0.0
C534 C 0.76951 0.07935 0.95097 0.0
C535 C 0.76173 0.08569 0.95878 0.0
C536 C 0.7671 0.1005 0.95454 0.0
C537 C 0.77933 0.10851 0.94122 0.0
C538 C 0.80657 0.12412 0.91555 0.0
C539 C 0.80407 0.13386 0.90346 0.0
C540 C 0.81397 0.14891 0.9048 0.0
C541 C 0.82643 0.15477 0.9187 0.0
C542 C 0.82872 0.14504 0.93115 0.0
C543 C 0.81895 0.12992 0.92946 0.0
C544 C 0.87369 0.22208 0.89422 0.0
C545 C 0.87621 0.2356 0.88681 0.0
C546 C 0.88443 0.24203 0.86819 0.0
C547 C 0.89001 0.23488 0.85636 0.0
C548 C 0.88711 0.22114 0.86322 0.0
C549 C 0.8792 0.21487 0.88214 0.0
C550 C 0.87659 0.22482 0.93317 0.0
C551 C 0.89117 0.22769 0.93467 0.0
C552 C 0.90141 0.23845 0.94881 0.0
C553 C 0.89717 0.24627 0.96193 0.0
C554 C 0.88225 0.24234 0.96188 0.0
C555 C 0.87208 0.23174 0.94753 0.0
C556 C 0.85711 0.20143 0.91792 0.0
C557 C 0.8419 0.19566 0.91541 0.0
C558 C 0.83193 0.18062 0.91654 0.0
C559 C 0.83701 0.17091 0.91974 0.0
C560 C 0.85232 0.17682 0.92305 0.0
C561 C 0.86226 0.19194 0.92244 0.0
H562 H 0.81038 0.71723 0.89286 0.0
N563 N 0.81349 0.69706 0.91333 0.0
H564 H 0.7988 0.71507 0.85724 0.0
H565 H 0.8058 0.67523 0.88381 0.0
H566 H 0.7939 0.67286 0.84861 0.0
H567 H 0.78979 0.66883 0.91401 0.0
H568 H 0.76785 0.65954 0.93593 0.0
H569 H 0.80941 0.71059 0.94595 0.0
H570 H 0.78712 0.70128 0.968 0.0
H571 H 0.84195 0.71732 0.91172 0.0
H572 H 0.8124 0.67125 0.92282 0.0
H573 H 0.86318 0.7143 0.91615 0.0
H574 H 0.83349 0.66821 0.92816 0.0
H575 H 0.9151 0.70874 0.89096 0.0
H576 H 0.92225 0.70601 0.85448 0.0
H577 H 0.90521 0.66036 0.86697 0.0
H578 H 0.89749 0.66291 0.90286 0.0
H579 H 0.88926 0.6612 0.93984 0.0
H580 H 0.9015 0.65162 0.96257 0.0
H581 H 0.94104 0.69463 0.96479 0.0
H582 H 0.92895 0.70382 0.94118 0.0
H583 H 0.89946 0.70846 0.94078 0.0
H584 H 0.87706 0.70974 0.94179 0.0
H585 H 0.85277 0.66813 0.90885 0.0
N586 N 0.90287 0.68844 0.92154 0.0
H587 H 0.8751 0.66669 0.90898 0.0
C588 C 0.80887 0.6964 0.89109 0.0
C589 C 0.80713 0.70769 0.88302 0.0
C590 C 0.80052 0.70644 0.86275 0.0
C591 C 0.79534 0.69373 0.85037 0.0
C592 C 0.79768 0.6827 0.858 0.0
C593 C 0.8045 0.68406 0.87809 0.0
C594 C 0.80136 0.69051 0.92831 0.0
C595 C 0.78956 0.67597 0.92599 0.0
C596 C 0.77689 0.67068 0.93844 0.0
C597 C 0.77568 0.67975 0.95344 0.0
C598 C 0.78776 0.69403 0.95659 0.0
C599 C 0.80048 0.69935 0.94405 0.0
C600 C 0.82557 0.69465 0.91708 0.0
C601 C 0.84006 0.70659 0.91542 0.0
C602 C 0.85218 0.70483 0.91815 0.0
C603 C 0.8501 0.69101 0.92275 0.0
C604 C 0.83553 0.67899 0.92448 0.0
C605 C 0.82339 0.68076 0.92158 0.0
C606 C 0.90603 0.68617 0.89981 0.0
C607 C 0.91276 0.69813 0.8857 0.0
C608 C 0.9168 0.69655 0.86496 0.0
C609 C 0.91435 0.683 0.85816 0.0
C610 C 0.90731 0.67093 0.87203 0.0
C611 C 0.90296 0.67243 0.89258 0.0
C612 C 0.90835 0.68319 0.93856 0.0
C613 C 0.90048 0.66857 0.94553 0.0
C614 C 0.90748 0.66314 0.95861 0.0
C615 C 0.92239 0.67228 0.96512 0.0
C616 C 0.92971 0.68718 0.95957 0.0
C617 C 0.92279 0.69251 0.94632 0.0
C618 C 0.88899 0.68762 0.92463 0.0
C619 C 0.88919 0.69949 0.93423 0.0
C620 C 0.87642 0.70026 0.93452 0.0
C621 C 0.86314 0.68919 0.92496 0.0
C622 C 0.86275 0.67685 0.91642 0.0
C623 C 0.87555 0.67602 0.91638 0.0
H624 H 0.74962 0.63636 0.45443 0.0
N625 N 0.77172 0.65821 0.43303 0.0
H626 H 0.74058 0.6372 0.49034 0.0
H627 H 0.7836 0.68185 0.46006 0.0
H628 H 0.77462 0.68284 0.49566 0.0
H629 H 0.78155 0.68676 0.42355 0.0
H630 H 0.76797 0.69526 0.40183 0.0
H631 H 0.74995 0.64236 0.40518 0.0
H632 H 0.73667 0.65076 0.3825 0.0
H633 H 0.77364 0.63534 0.42273 0.0
H634 H 0.80025 0.68118 0.43768 0.0
H635 H 0.7958 0.63364 0.42312 0.0
H636 H 0.82235 0.67948 0.43975 0.0
H637 H 0.86181 0.63069 0.47409 0.0
H638 H 0.87423 0.63539 0.50953 0.0
H639 H 0.88586 0.68037 0.5058 0.0
H640 H 0.87302 0.67546 0.4707 0.0
H641 H 0.88392 0.67763 0.43701 0.0
H642 H 0.90543 0.68356 0.4157 0.0
H643 H 0.88763 0.63774 0.40389 0.0
H644 H 0.86549 0.63177 0.42458 0.0
H645 H 0.83314 0.63051 0.45466 0.0
H646 H 0.81168 0.63295 0.44882 0.0
H647 H 0.84022 0.67635 0.42309 0.0
N648 N 0.8613 0.65006 0.44769 0.0
H649 H 0.86158 0.6741 0.43016 0.0
C650 C 0.76731 0.65894 0.45464 0.0
C651 C 0.75517 0.64648 0.46349 0.0
C652 C 0.74996 0.64703 0.48387 0.0
C653 C 0.75686 0.66012 0.49577 0.0
C654 C 0.76917 0.67257 0.48696 0.0
C655 C 0.77432 0.67201 0.46655 0.0
C656 C 0.76657 0.66388 0.41621 0.0
C657 C 0.77194 0.67889 0.41432 0.0
C658 C 0.76418 0.68373 0.40177 0.0
C659 C 0.75102 0.67365 0.39079 0.0
C660 C 0.74653 0.65878 0.39119 0.0
C661 C 0.75419 0.65397 0.40389 0.0
C662 C 0.78524 0.65828 0.43049 0.0
C663 C 0.78433 0.64506 0.42599 0.0
C664 C 0.797 0.64409 0.42654 0.0
C665 C 0.81092 0.65633 0.43201 0.0
C666 C 0.81189 0.6698 0.43544 0.0
C667 C 0.79919 0.67079 0.4345 0.0
C668 C 0.86663 0.65272 0.46973 0.0
C669 C 0.86674 0.64146 0.48121 0.0
C670 C 0.87383 0.64416 0.50137 0.0
C671 C 0.88111 0.65827 0.51024 0.0
C672 C 0.88046 0.66943 0.49916 0.0
C673 C 0.87314 0.66665 0.47913 0.0
C674 C 0.87274 0.65418 0.43194 0.0
C675 C 0.88412 0.66883 0.42901 0.0
C676 C 0.89657 0.67224 0.41693 0.0
C677 C 0.89812 0.66111 0.4081 0.0
C678 C 0.88661 0.64651 0.41044 0.0
C679 C 0.87397 0.64312 0.42211 0.0
C680 C 0.84901 0.65196 0.44273 0.0
C681 C 0.83472 0.64052 0.44767 0.0
C682 C 0.82244 0.64191 0.44411 0.0
C683 C 0.8241 0.65482 0.43522 0.0
C684 C 0.83846 0.6663 0.43015 0.0
C685 C 0.8508 0.66495 0.43403 0.0
H686 H 0.37147 0.13855 0.47095 0.0
N687 N 0.35037 0.13021 0.44073 0.0
H688 H 0.36906 0.12813 0.50724 0.0
H689 H 0.32452 0.10997 0.46011 0.0
H690 H 0.32202 0.09969 0.49609 0.0
H691 H 0.32328 0.11188 0.42188 0.0
H692 H 0.31654 0.08975 0.40141 0.0
H693 H 0.36882 0.12335 0.42389 0.0
H694 H 0.36242 0.10174 0.40247 0.0
H695 H 0.36834 0.15425 0.41885 0.0
H696 H 0.32623 0.1323 0.45078 0.0
H697 H 0.36617 0.17562 0.41306 0.0
H698 H 0.32436 0.15389 0.44636 0.0
H699 H 0.3665 0.24478 0.4522 0.0
H700 H 0.36544 0.25417 0.48761 0.0
H701 H 0.32194 0.21608 0.49725 0.0
H702 H 0.32333 0.20664 0.46196 0.0
H703 H 0.31689 0.21319 0.42719 0.0
H704 H 0.30854 0.22653 0.40489 0.0
H705 H 0.35259 0.25282 0.37916 0.0
H706 H 0.36089 0.23961 0.40199 0.0
H707 H 0.36871 0.21729 0.43519 0.0
H708 H 0.36882 0.19464 0.43451 0.0
H709 H 0.32131 0.17036 0.42435 0.0
N710 N 0.34567 0.22059 0.43293 0.0
H711 H 0.32137 0.19322 0.42607 0.0
C712 C 0.34825 0.12509 0.46278 0.0
C713 C 0.36063 0.13022 0.47653 0.0
C714 C 0.35923 0.12426 0.49721 0.0
C715 C 0.34537 0.11297 0.50441 0.0
C716 C 0.33289 0.10819 0.49085 0.0
C717 C 0.33429 0.11417 0.47027 0.0
C718 C 0.34655 0.1191 0.42468 0.0
C719 C 0.33188 0.10981 0.41744 0.0
C720 C 0.32807 0.09719 0.40562 0.0
C721 C 0.33889 0.09378 0.40067 0.0
C722 C 0.35373 0.10379 0.4065 0.0
C723 C 0.35746 0.11624 0.41849 0.0
C724 C 0.34768 0.1418 0.4356 0.0
C725 C 0.3586 0.15405 0.42454 0.0
C726 C 0.35738 0.16631 0.42147 0.0
C727 C 0.34525 0.1667 0.4297 0.0
C728 C 0.33386 0.15405 0.43975 0.0
C729 C 0.33499 0.14167 0.4425 0.0
C730 C 0.34505 0.22508 0.45453 0.0
C731 C 0.35683 0.23842 0.46211 0.0
C732 C 0.35612 0.24381 0.48221 0.0
C733 C 0.34352 0.23596 0.49514 0.0
C734 C 0.33182 0.22236 0.48772 0.0
C735 C 0.33257 0.21696 0.46755 0.0
C736 C 0.33957 0.22547 0.41627 0.0
C737 C 0.32464 0.22151 0.41628 0.0
C738 C 0.31987 0.22917 0.40349 0.0
C739 C 0.32997 0.24091 0.3905 0.0
C740 C 0.34461 0.24403 0.38929 0.0
C741 C 0.34934 0.23639 0.4021 0.0
C742 C 0.34512 0.20698 0.4305 0.0
C743 C 0.35836 0.20707 0.43259 0.0
C744 C 0.35837 0.19407 0.43203 0.0
C745 C 0.34508 0.18056 0.42916 0.0
C746 C 0.33175 0.18051 0.42677 0.0
C747 C 0.33176 0.1936 0.42754 0.0
H748 H 0.80625 0.11494 0.49555 0.0
N749 N 0.79926 0.12237 0.45821 0.0
H750 H 0.79075 0.10499 0.52758 0.0
H751 H 0.77248 0.11994 0.46414 0.0
H752 H 0.75717 0.11052 0.49618 0.0
H753 H 0.78016 0.12146 0.427 0.0
H754 H 0.76515 0.10083 0.40243 0.0
H755 H 0.80311 0.10043 0.45011 0.0
H756 H 0.78847 0.08 0.42542 0.0
H757 H 0.82812 0.13604 0.45184 0.0
H758 H 0.79169 0.14321 0.45413 0.0
H759 H 0.84544 0.16229 0.44812 0.0
H760 H 0.80892 0.16953 0.45162 0.0
H761 H 0.8953 0.2324 0.47061 0.0
H762 H 0.90739 0.2431 0.50474 0.0
H763 H 0.87319 0.25225 0.51931 0.0
H764 H 0.86084 0.24126 0.48457 0.0
H765 H 0.87886 0.25563 0.43397 0.0
H766 H 0.90054 0.26906 0.41071 0.0
H767 H 0.90659 0.23225 0.41184 0.0
H768 H 0.88502 0.21886 0.43465 0.0
H769 H 0.87293 0.20852 0.47288 0.0
H770 H 0.85531 0.1826 0.47139 0.0
H771 H 0.82633 0.19012 0.43066 0.0
N772 N 0.86997 0.23035 0.45396 0.0
H773 H 0.84399 0.21652 0.43308 0.0
C774 C 0.79061 0.11827 0.47757 0.0
C775 C 0.79563 0.11418 0.49579 0.0
C776 C 0.78677 0.10853 0.51405 0.0
C777 C 0.77268 0.10689 0.51441 0.0
C778 C 0.76786 0.11143 0.49632 0.0
C779 C 0.77671 0.117 0.47804 0.0
C780 C 0.79263 0.11232 0.44048 0.0
C781 C 0.78221 0.11258 0.42638 0.0
C782 C 0.77369 0.10082 0.41234 0.0
C783 C 0.77548 0.08871 0.41233 0.0
C784 C 0.78667 0.08906 0.42537 0.0
C785 C 0.79512 0.10075 0.4393 0.0
C786 C 0.8087 0.13768 0.45362 0.0
C787 C 0.82388 0.14332 0.45143 0.0
C788 C 0.83375 0.15833 0.44954 0.0
C789 C 0.82864 0.16811 0.45006 0.0
C790 C 0.81327 0.16236 0.45113 0.0
C791 C 0.80337 0.14726 0.45276 0.0
C792 C 0.87709 0.23608 0.47476 0.0
C793 C 0.8903 0.23671 0.4809 0.0
C794 C 0.89731 0.24293 0.50051 0.0
C795 C 0.89138 0.24873 0.51457 0.0
C796 C 0.87802 0.24786 0.50876 0.0
C797 C 0.87098 0.24162 0.48898 0.0
C798 C 0.88029 0.23629 0.43628 0.0
C799 C 0.88455 0.25028 0.42854 0.0
C800 C 0.89692 0.25793 0.41533 0.0
C801 C 0.90528 0.25171 0.4098 0.0
C802 C 0.90036 0.2373 0.41608 0.0
C803 C 0.88793 0.2296 0.42906 0.0
C804 C 0.85976 0.21469 0.45329 0.0
C805 C 0.8628 0.2048 0.46376 0.0
C806 C 0.85271 0.18979 0.46264 0.0
C807 C 0.83938 0.18417 0.45078 0.0
C808 C 0.83639 0.19404 0.44015 0.0
C809 C 0.84649 0.20912 0.44142 0.0
H810 H 0.02644 0.57205 0.23645 0.0
N811 N 0.00288 0.54809 0.25493 0.0
H812 H 0.02701 0.58186 0.20056 0.0
H813 H 0.9816 0.5368 0.22476 0.0
H814 H 0.98194 0.54676 0.18877 0.0
H815 H 0.98392 0.55509 0.26932 0.0
H816 H 0.98934 0.57605 0.29153 0.0
H817 H 0.02906 0.56576 0.27759 0.0
H818 H 0.0344 0.5863 0.30037 0.0
H819 H 0.03106 0.55375 0.24831 0.0
H820 H 0.98706 0.52027 0.26678 0.0
H821 H 0.03918 0.5364 0.25085 0.0
H822 H 0.99476 0.50237 0.26774 0.0
H823 H 0.05134 0.47271 0.22255 0.0
H824 H 0.0435 0.4585 0.18889 0.0
H825 H 0.99801 0.44444 0.20225 0.0
H826 H 0.00598 0.45894 0.2356 0.0
H827 H 0.00964 0.45112 0.26974 0.0
H828 H 0.0095 0.4331 0.29409 0.0
H829 H 0.05734 0.45837 0.29701 0.0
H830 H 0.05732 0.47662 0.27304 0.0
H831 H 0.04476 0.49916 0.22991 0.0
H832 H 0.0376 0.51729 0.232 0.0
H833 H 0.008 0.49303 0.28423 0.0
N834 N 0.03425 0.4745 0.25184 0.0
H835 H 0.01452 0.47452 0.28108 0.0
C836 C 0.00393 0.55361 0.23327 0.0
C837 C 0.01674 0.56633 0.2261 0.0
C838 C 0.017 0.57203 0.20562 0.0
C839 C 0.00447 0.56517 0.19189 0.0
C840 C 0.9918 0.55225 0.1989 0.0
C841 C 0.99156 0.54656 0.21942 0.0
C842 C 0.00596 0.55871 0.27163 0.0
C843 C 0.99487 0.56168 0.27647 0.0
C844 C 0.99801 0.57368 0.28922 0.0
C845 C 0.01237 0.583 0.29762 0.0
C846 C 0.02329 0.57954 0.29381 0.0
C847 C 0.02017 0.5676 0.28086 0.0
C848 C 0.00843 0.53839 0.25777 0.0
C849 C 0.02313 0.54268 0.25315 0.0
C850 C 0.02772 0.53259 0.25425 0.0
C851 C 0.01764 0.51782 0.2593 0.0
C852 C 0.00297 0.51363 0.26416 0.0
C853 C 0.99849 0.52383 0.26351 0.0
C854 C 0.02928 0.46679 0.23157 0.0
C855 C 0.03971 0.46667 0.21804 0.0
C856 C 0.03522 0.45858 0.1989 0.0
C857 C 0.02014 0.45032 0.19309 0.0
C858 C 0.00968 0.45058 0.20651 0.0
C859 C 0.01421 0.45885 0.22553 0.0
C860 C 0.03355 0.46535 0.26962 0.0
C861 C 0.02009 0.45305 0.27608 0.0
C862 C 0.02004 0.44263 0.28987 0.0
C863 C 0.03342 0.44415 0.29728 0.0
C864 C 0.04682 0.45688 0.2918 0.0
C865 C 0.04684 0.46735 0.27811 0.0
C866 C 0.03025 0.48537 0.25514 0.0
C867 C 0.03674 0.49778 0.24185 0.0
C868 C 0.03271 0.50824 0.24325 0.0
C869 C 0.02222 0.50677 0.2584 0.0
C870 C 0.01591 0.49447 0.2721 0.0
C871 C 0.01977 0.48382 0.27039 0.0
H872 H 0.58815 0.54605 0.24572 0.0
N873 N 0.56063 0.53682 0.25744 0.0
H874 H 0.60011 0.55807 0.21189 0.0
H875 H 0.54684 0.54003 0.22186 0.0
H876 H 0.55879 0.55259 0.18836 0.0
H877 H 0.5492 0.55458 0.25274 0.0
H878 H 0.55709 0.57691 0.27281 0.0
H879 H 0.57654 0.54521 0.29386 0.0
H880 H 0.58477 0.56787 0.31392 0.0
H881 H 0.55887 0.51136 0.25505 0.0
H882 H 0.5317 0.53031 0.26008 0.0
H883 H 0.53668 0.48705 0.25295 0.0
H884 H 0.50953 0.50609 0.2591 0.0
H885 H 0.44878 0.44083 0.22815 0.0
H886 H 0.43616 0.43243 0.19336 0.0
H887 H 0.46409 0.41549 0.17773 0.0
H888 H 0.4769 0.42414 0.21283 0.0
H889 H 0.45854 0.44958 0.26807 0.0
H890 H 0.43669 0.437 0.29088 0.0
H891 H 0.43493 0.39633 0.2809 0.0
H892 H 0.45699 0.40901 0.25833 0.0
H893 H 0.49514 0.44402 0.26649 0.0
H894 H 0.51669 0.46853 0.27213 0.0
H895 H 0.49484 0.48666 0.23542 0.0
N896 N 0.47037 0.43644 0.24463 0.0
H897 H 0.4732 0.46237 0.23099 0.0
C898 C 0.56669 0.5422 0.23633 0.0
C899 C 0.58166 0.54724 0.23306 0.0
C900 C 0.58849 0.55426 0.21384 0.0
C901 C 0.58047 0.55652 0.19752 0.0
C902 C 0.56528 0.55098 0.20052 0.0
C903 C 0.55843 0.54384 0.21972 0.0
C904 C 0.56225 0.54811 0.27185 0.0
C905 C 0.55655 0.55705 0.26649 0.0
C906 C 0.56122 0.56996 0.27786 0.0
C907 C 0.57173 0.57427 0.29472 0.0
C908 C 0.5766 0.56481 0.30107 0.0
C909 C 0.5719 0.55186 0.28968 0.0
C910 C 0.5471 0.52271 0.25788 0.0
C911 C 0.54811 0.51024 0.25608 0.0
C912 C 0.53538 0.49633 0.25503 0.0
C913 C 0.52122 0.49451 0.25595 0.0
C914 C 0.52021 0.50704 0.25805 0.0
C915 C 0.53298 0.52099 0.25883 0.0
C916 C 0.46384 0.43309 0.22316 0.0
C917 C 0.45236 0.43549 0.21722 0.0
C918 C 0.44505 0.43055 0.19736 0.0
C919 C 0.44899 0.42311 0.18294 0.0
C920 C 0.46083 0.42122 0.18849 0.0
C921 C 0.46815 0.42614 0.20848 0.0
C922 C 0.45948 0.43021 0.2615 0.0
C923 C 0.45381 0.43807 0.27132 0.0
C924 C 0.44129 0.43087 0.28436 0.0
C925 C 0.43411 0.4157 0.2875 0.0
C926 C 0.44023 0.40802 0.27863 0.0
C927 C 0.45285 0.41525 0.26588 0.0
C928 C 0.48262 0.45121 0.24805 0.0
C929 C 0.49501 0.45333 0.25981 0.0
C930 C 0.50736 0.46735 0.26286 0.0
C931 C 0.50765 0.47965 0.25401 0.0
C932 C 0.49503 0.47753 0.24267 0.0
C933 C 0.48262 0.46351 0.23987 0.0
H934 H 0.55491 0.98249 0.24079 0.0
N935 N 0.55873 0.00687 0.26131 0.0
H936 H 0.56358 0.98164 0.20475 0.0
H937 H 0.57082 0.02831 0.23233 0.0
H938 H 0.57893 0.02728 0.19568 0.0
H939 H 0.58493 0.0213 0.28082 0.0
H940 H 0.59673 0.01114 0.30293 0.0
H941 H 0.54463 0.9792 0.27817 0.0
H942 H 0.55632 0.96882 0.30053 0.0
H943 H 0.53159 0.98544 0.24597 0.0
H944 H 0.55404 0.02546 0.28249 0.0
H945 H 0.50909 0.98659 0.24481 0.0
H946 H 0.53143 0.02637 0.28248 0.0
H947 H 0.4605 0.99378 0.21893 0.0
H948 H 0.44906 0.99297 0.18383 0.0
H949 H 0.45735 0.03634 0.19465 0.0
H950 H 0.46836 0.0369 0.23018 0.0
H951 H 0.46521 0.0288 0.28196 0.0
H952 H 0.44254 0.01993 0.3029 0.0
H953 H 0.42291 0.97829 0.27044 0.0
H954 H 0.44531 0.98713 0.24967 0.0
H955 H 0.46783 0.98894 0.25616 0.0
H956 H 0.4887 0.98559 0.26246 0.0
H957 H 0.51882 0.03221 0.25644 0.0
N958 N 0.46933 0.01519 0.24953 0.0
H959 H 0.4978 0.03545 0.25105 0.0
C960 C 0.56253 0.00562 0.23947 0.0
C961 C 0.56021 0.99236 0.23123 0.0
C962 C 0.5651 0.99184 0.2106 0.0
C963 C 0.57195 0.00441 0.19765 0.0
C964 C 0.57365 0.01746 0.20546 0.0
C965 C 0.56907 0.01806 0.22628 0.0
C966 C 0.56398 0.00105 0.27784 0.0
C967 C 0.5785 0.00994 0.28562 0.0
C968 C 0.5852 0.00408 0.29828 0.0
C969 C 0.5775 0.98912 0.30342 0.0
C970 C 0.5626 0.98035 0.29665 0.0
C971 C 0.55586 0.98628 0.28403 0.0
C972 C 0.54457 0.00554 0.26406 0.0
C973 C 0.53156 0.99429 0.25421 0.0
C974 C 0.51866 0.99495 0.25364 0.0
C975 C 0.51848 0.00676 0.26316 0.0
C976 C 0.53124 0.01735 0.27441 0.0
C977 C 0.54413 0.01677 0.27471 0.0
C978 C 0.46514 0.01539 0.22729 0.0
C979 C 0.46002 0.00318 0.21371 0.0
C980 C 0.45347 0.00272 0.19368 0.0
C981 C 0.45223 0.01455 0.1867 0.0
C982 C 0.45822 0.0271 0.19966 0.0
C983 C 0.46451 0.02745 0.21986 0.0
C984 C 0.45705 0.00873 0.26423 0.0
C985 C 0.45614 0.01764 0.27981 0.0
C986 C 0.4432 0.01258 0.29171 0.0
C987 C 0.43091 0.99849 0.28806 0.0
C988 C 0.43214 0.98928 0.27334 0.0
C989 C 0.44506 0.99432 0.26156 0.0
C990 C 0.48124 0.01255 0.25336 0.0
C991 C 0.47887 0.99847 0.25641 0.0
C992 C 0.49089 0.99654 0.25988 0.0
C993 C 0.50551 0.00863 0.26019 0.0
C994 C 0.50775 0.02265 0.25691 0.0
C995 C 0.49577 0.02455 0.25361 0.0
H996 H 0.41403 0.96546 0.79337 0.0
N997 N 0.43706 0.98716 0.77325 0.0
H998 H 0.4043 0.96619 0.82877 0.0
H999 H 0.44914 0.01036 0.80116 0.0
H1000 H 0.43954 0.0112 0.83634 0.0
H1001 H 0.44802 0.01599 0.76436 0.0
H1002 H 0.43593 0.02552 0.74133 0.0
H1003 H 0.41562 0.97216 0.74454 0.0
H1004 H 0.40377 0.98156 0.72075 0.0
H1005 H 0.43835 0.96406 0.76215 0.0
H1006 H 0.46579 0.0095 0.77912 0.0
H1007 H 0.46016 0.96179 0.76167 0.0
H1008 H 0.48755 0.0072 0.78029 0.0
H1009 H 0.52883 0.95692 0.80471 0.0
H1010 H 0.54031 0.95984 0.84061 0.0
H1011 H 0.54503 0.00214 0.84669 0.0
H1012 H 0.53313 0.99898 0.81119 0.0
H1013 H 0.54881 0.00494 0.78094 0.0
H1014 H 0.57111 0.01387 0.75991 0.0
H1015 H 0.55265 0.97139 0.73047 0.0
H1016 H 0.53005 0.96241 0.7517 0.0
H1017 H 0.49731 0.95722 0.79033 0.0
H1018 H 0.47611 0.96026 0.7863 0.0
H1019 H 0.50495 0.00405 0.7621 0.0
N1020 N 0.5255 0.97654 0.78293 0.0
H1021 H 0.5261 0.00119 0.76734 0.0
C1022 C 0.43234 0.98774 0.7947 0.0
C1023 C 0.4197 0.97541 0.80283 0.0
C1024 C 0.41411 0.9759 0.82291 0.0
C1025 C 0.42114 0.98878 0.83528 0.0
C1026 C 0.43398 0.00108 0.82726 0.0
C1027 C 0.43949 1.0006 0.80711 0.0
C1028 C 0.43255 0.99333 0.75632 0.0
C1029 C 0.43855 0.00845 0.75459 0.0
C1030 C 0.43165 0.01389 0.7413 0.0
C1031 C 0.4187 0.00427 0.7295 0.0
C1032 C 0.41351 0.98924 0.72999 0.0
C1033 C 0.42034 0.98385 0.74336 0.0
C1034 C 0.45039 0.98682 0.771 0.0
C1035 C 0.44913 0.97355 0.76576 0.0
C1036 C 0.46161 0.97226 0.76578 0.0
C1037 C 0.47567 0.98423 0.77142 0.0
C1038 C 0.47697 0.99774 0.77579 0.0
C1039 C 0.46446 0.99906 0.77539 0.0
C1040 C 0.53025 0.97774 0.80521 0.0
C1041 C 0.53203 0.96665 0.81404 0.0
C1042 C 0.53858 0.96834 0.83446 0.0
C1043 C 0.54365 0.98127 0.84623 0.0
C1044 C 0.54132 0.99213 0.83779 0.0
C1045 C 0.53453 0.99032 0.81754 0.0
C1046 C 0.53765 0.98289 0.76795 0.0
C1047 C 0.54931 0.99754 0.76972 0.0
C1048 C 0.56216 0.00265 0.75776 0.0
C1049 C 0.5637 0.99327 0.74381 0.0
C1050 C 0.55174 0.97888 0.74108 0.0
C1051 C 0.53885 0.97374 0.75313 0.0
C1052 C 0.51333 0.97882 0.77904 0.0
C1053 C 0.49902 0.96745 0.78407 0.0
C1054 C 0.48688 0.9692 0.78156 0.0
C1055 C 0.4887 0.98238 0.77364 0.0
C1056 C 0.50308 0.99379 0.76846 0.0
C1057 C 0.51527 0.9921 0.77129 0.0
H1058 H 0.97558 0.53655 0.80189 0.0
N1059 N 0.99421 0.54865 0.76759 0.0
H1060 H 0.97846 0.54786 0.83725 0.0
H1061 H 0.01697 0.5738 0.78171 0.0
H1062 H 0.02016 0.58508 0.81721 0.0
H1063 H 0.00536 0.56434 0.73189 0.0
H1064 H 0.99563 0.57724 0.71136 0.0
H1065 H 0.96626 0.54411 0.77108 0.0
H1066 H 0.95639 0.55676 0.75055 0.0
H1067 H 0.96725 0.52308 0.76163 0.0
H1068 H 0.014 0.54068 0.77134 0.0
H1069 H 0.96284 0.49843 0.76205 0.0
H1070 H 0.00964 0.51601 0.77299 0.0
H1071 H 0.95856 0.42237 0.79991 0.0
H1072 H 0.96403 0.41479 0.8342 0.0
H1073 H 0.00472 0.4568 0.8399 0.0
H1074 H 0.99958 0.46378 0.80464 0.0
H1075 H 0.00219 0.45009 0.76963 0.0
H1076 H 0.00618 0.43416 0.74638 0.0
H1077 H 0.95995 0.41128 0.72735 0.0
H1078 H 0.95625 0.42761 0.75013 0.0
H1079 H 0.9578 0.45644 0.78972 0.0
H1080 H 0.96203 0.48099 0.78581 0.0
H1081 H 0.00353 0.49475 0.75431 0.0
N1082 N 0.97541 0.44692 0.77843 0.0
H1083 H 0.99956 0.47045 0.75944 0.0
C1084 C 0.99612 0.55438 0.78919 0.0
C1085 C 0.98537 0.54709 0.80517 0.0
C1086 C 0.98706 0.55356 0.8254 0.0
C1087 C 0.9995 0.56742 0.83 0.0
C1088 C 0.01034 0.57451 0.81407 0.0
C1089 C 0.00863 0.56805 0.79389 0.0
C1090 C 0.98663 0.55326 0.75299 0.0
C1091 C 0.99447 0.56231 0.73558 0.0
C1092 C 0.98888 0.56967 0.72389 0.0
C1093 C 0.9753 0.56816 0.72949 0.0
C1094 C 0.96699 0.55833 0.74604 0.0
C1095 C 0.97258 0.55096 0.75769 0.0
C1096 C 0.99106 0.53385 0.76622 0.0
C1097 C 0.97662 0.5217 0.76374 0.0
C1098 C 0.97408 0.50751 0.76424 0.0
C1099 C 0.98586 0.5051 0.76764 0.0
C1100 C 1.00029 0.51732 0.76991 0.0
C1101 C 0.00282 0.53147 0.7691 0.0
C1102 C 0.97847 0.44368 0.79987 0.0
C1103 C 0.96858 0.42997 0.80871 0.0
C1104 C 0.97173 0.42571 0.82843 0.0
C1105 C 0.98478 0.43521 0.84013 0.0
C1106 C 0.99465 0.44909 0.83133 0.0
C1107 C 0.99162 0.45322 0.81127 0.0
C1108 C 0.97888 0.44006 0.76149 0.0
C1109 C 0.99306 0.442 0.75984 0.0
C1110 C 0.99527 0.43274 0.74674 0.0
C1111 C 0.98334 0.42129 0.7352 0.0
C1112 C 0.96942 0.42005 0.7358 0.0
C1113 C 0.96726 0.42936 0.74881 0.0
C1114 C 0.97822 0.46148 0.77478 0.0
C1115 C 0.96779 0.46478 0.78192 0.0
C1116 C 0.97019 0.47882 0.77948 0.0
C1117 C 0.9831 0.48996 0.7696 0.0
C1118 C 0.99354 0.48658 0.76226 0.0
C1119 C 0.99121 0.47255 0.765 0.0
H1120 H 0.43972 0.43855 0.79503 0.0
N1121 N 0.44294 0.46358 0.77651 0.0
H1122 H 0.42735 0.42726 0.82865 0.0
H1123 H 0.43145 0.47354 0.80478 0.0
H1124 H 0.41953 0.46237 0.83936 0.0
H1125 H 0.41876 0.45296 0.75171 0.0
H1126 H 0.40829 0.4314 0.72822 0.0
H1127 H 0.4577 0.45027 0.76241 0.0
H1128 H 0.44722 0.42877 0.73934 0.0
H1129 H 0.46529 0.46276 0.79839 0.0
H1130 H 0.45554 0.48996 0.75851 0.0
H1131 H 0.49082 0.48269 0.80245 0.0
H1132 H 0.48141 0.51003 0.76198 0.0
H1133 H 0.55114 0.53389 0.84095 0.0
H1134 H 0.55895 0.54747 0.87501 0.0
H1135 H 0.55653 0.58265 0.8448 0.0
H1136 H 0.54846 0.56884 0.81085 0.0
H1137 H 0.5473 0.56152 0.77189 0.0
H1138 H 0.56852 0.57889 0.74988 0.0
H1139 H 0.59438 0.56191 0.77734 0.0
H1140 H 0.57326 0.54478 0.79924 0.0
H1141 H 0.53857 0.51613 0.79223 0.0
H1142 H 0.51334 0.49662 0.78307 0.0
H1143 H 0.49846 0.52714 0.78889 0.0
N1144 N 0.54771 0.54342 0.80291 0.0
H1145 H 0.52393 0.54669 0.79727 0.0
C1146 C 0.43625 0.45685 0.79694 0.0
C1147 C 0.43522 0.44384 0.80422 0.0
C1148 C 0.42819 0.43736 0.82356 0.0
C1149 C 0.42243 0.44392 0.83635 0.0
C1150 C 0.42387 0.45713 0.82962 0.0
C1151 C 0.43063 0.46347 0.80996 0.0
C1152 C 0.43893 0.45325 0.75902 0.0
C1153 C 0.42525 0.44803 0.74846 0.0
C1154 C 0.41928 0.43574 0.73509 0.0
C1155 C 0.4269 0.42838 0.73224 0.0
C1156 C 0.44109 0.43422 0.74146 0.0
C1157 C 0.44713 0.44661 0.75459 0.0
C1158 C 0.45841 0.47488 0.77816 0.0
C1159 C 0.46865 0.47299 0.79031 0.0
C1160 C 0.48335 0.48441 0.79248 0.0
C1161 C 0.48822 0.49799 0.78249 0.0
C1162 C 0.47801 0.49979 0.77008 0.0
C1163 C 0.46327 0.48833 0.76795 0.0
C1164 C 0.54941 0.5504 0.82341 0.0
C1165 C 0.55187 0.54433 0.84191 0.0
C1166 C 0.55629 0.55209 0.86132 0.0
C1167 C 0.55844 0.56616 0.86249 0.0
C1168 C 0.55506 0.57187 0.84427 0.0
C1169 C 0.55044 0.56399 0.8249 0.0
C1170 C 0.55882 0.55191 0.78716 0.0
C1171 C 0.55746 0.56138 0.77278 0.0
C1172 C 0.56957 0.57129 0.76028 0.0
C1173 C 0.58315 0.57189 0.76219 0.0
C1174 C 0.58414 0.56187 0.77582 0.0
C1175 C 0.57208 0.552 0.78815 0.0
C1176 C 0.53303 0.53273 0.7956 0.0
C1177 C 0.52986 0.5186 0.7912 0.0
C1178 C 0.51543 0.50747 0.78617 0.0
C1179 C 0.5038 0.51024 0.78558 0.0
C1180 C 0.50714 0.52462 0.7891 0.0
C1181 C 0.52167 0.53581 0.79401 0.0
H1182 H 0.7034 0.90103 0.55506 0.0
N1183 N 0.68349 0.88773 0.58575 0.0
H1184 H 0.69981 0.9092 0.51962 0.0
H1185 H 0.65702 0.88205 0.56825 0.0
H1186 H 0.65333 0.89009 0.53287 0.0
H1187 H 0.65891 0.88314 0.60689 0.0
H1188 H 0.65772 0.90067 0.63076 0.0
H1189 H 0.70613 0.91194 0.60216 0.0
H1190 H 0.70513 0.92949 0.62596 0.0
H1191 H 0.70291 0.88035 0.5977 0.0
H1192 H 0.65642 0.86229 0.58488 0.0
H1193 H 0.69841 0.8558 0.60372 0.0
H1194 H 0.65184 0.83769 0.58971 0.0
H1195 H 0.68478 0.78911 0.57 0.0
H1196 H 0.6823 0.77859 0.53432 0.0
H1197 H 0.63485 0.75886 0.53674 0.0
H1198 H 0.63744 0.7697 0.57258 0.0
H1199 H 0.64478 0.76242 0.61947 0.0
H1200 H 0.65201 0.74797 0.64134 0.0
H1201 H 0.69803 0.7794 0.62855 0.0
H1202 H 0.69069 0.79404 0.60746 0.0
H1203 H 0.68806 0.81033 0.58354 0.0
H1204 H 0.69294 0.83508 0.58347 0.0
H1205 H 0.65075 0.81991 0.61371 0.0
N1206 N 0.66217 0.78558 0.59562 0.0
H1207 H 0.64568 0.79488 0.6127 0.0
C1208 C 0.68053 0.89084 0.56421 0.0
C1209 C 0.69241 0.89843 0.55014 0.0
C1210 C 0.69036 0.90319 0.53004 0.0
C1211 C 0.6763 0.90038 0.52357 0.0
C1212 C 0.66426 0.89233 0.53738 0.0
C1213 C 0.66636 0.88768 0.55761 0.0
C1214 C 0.68264 0.89635 0.60271 0.0
C1215 C 0.66904 0.89312 0.6113 0.0
C1216 C 0.66839 0.90316 0.62487 0.0
C1217 C 0.68133 0.91652 0.63016 0.0
C1218 C 0.69498 0.91926 0.62244 0.0
C1219 C 0.6956 0.90928 0.60883 0.0
C1220 C 0.68009 0.87316 0.59061 0.0
C1221 C 0.69172 0.87105 0.59621 0.0
C1222 C 0.68912 0.85699 0.59945 0.0
C1223 C 0.67478 0.84466 0.59695 0.0
C1224 C 0.66302 0.84687 0.592 0.0
C1225 C 0.66563 0.86099 0.58899 0.0
C1226 C 0.66125 0.78036 0.57391 0.0
C1227 C 0.67386 0.78282 0.5628 0.0
C1228 C 0.67244 0.77674 0.54237 0.0
C1229 C 0.65839 0.76791 0.53279 0.0
C1230 C 0.64581 0.76555 0.54383 0.0
C1231 C 0.64726 0.77178 0.56417 0.0
C1232 C 0.66712 0.77921 0.6117 0.0
C1233 C 0.65644 0.76638 0.62193 0.0
C1234 C 0.66059 0.75806 0.63418 0.0
C1235 C 0.67559 0.76236 0.63633 0.0
C1236 C 0.68639 0.77577 0.62726 0.0
C1237 C 0.68219 0.78414 0.61507 0.0
C1238 C 0.66637 0.80064 0.59798 0.0
C1239 C 0.67987 0.81225 0.5903 0.0
C1240 C 0.68271 0.82653 0.59043 0.0
C1241 C 0.67221 0.82959 0.59845 0.0
C1242 C 0.65899 0.818 0.60699 0.0
C1243 C 0.65612 0.8037 0.60666 0.0
H1244 H 0.25942 0.88859 0.58214 0.0
N1245 N 0.23133 0.87353 0.59426 0.0
H1246 H 0.26928 0.9016 0.54816 0.0
H1247 H 0.21497 0.87299 0.55906 0.0
H1248 H 0.22459 0.88512 0.52451 0.0
H1249 H 0.21852 0.89007 0.59167 0.0
H1250 H 0.22627 0.91229 0.61224 0.0
H1251 H 0.24775 0.88189 0.63024 0.0
H1252 H 0.25577 0.90431 0.65075 0.0
H1253 H 0.23007 0.84904 0.58371 0.0
H1254 H 0.20253 0.8653 0.60449 0.0
H1255 H 0.20827 0.82462 0.58007 0.0
H1256 H 0.18086 0.84085 0.60216 0.0
H1257 H 0.13206 0.74514 0.56799 0.0
H1258 H 0.12109 0.73328 0.53327 0.0
H1259 H 0.13299 0.77514 0.50595 0.0
H1260 H 0.14392 0.78684 0.54018 0.0
H1261 H 0.1179 0.77406 0.56402 0.0
H1262 H 0.09456 0.76458 0.58203 0.0
H1263 H 0.11299 0.75598 0.63923 0.0
H1264 H 0.13599 0.76415 0.61989 0.0
H1265 H 0.16873 0.77973 0.59184 0.0
H1266 H 0.1903 0.80411 0.59798 0.0
H1267 H 0.16451 0.82305 0.57782 0.0
N1268 N 0.14178 0.77266 0.57879 0.0
H1269 H 0.14284 0.7986 0.57314 0.0
C1270 C 0.23652 0.87967 0.57307 0.0
C1271 C 0.25179 0.88771 0.56949 0.0
C1272 C 0.25738 0.8951 0.55001 0.0
C1273 C 0.24775 0.89443 0.53347 0.0
C1274 C 0.23237 0.88612 0.53696 0.0
C1275 C 0.22681 0.87895 0.55663 0.0
C1276 C 0.23257 0.88427 0.60947 0.0
C1277 C 0.22624 0.89278 0.60504 0.0
C1278 C 0.23081 0.90559 0.61667 0.0
C1279 C 0.24182 0.91018 0.63287 0.0
C1280 C 0.24722 0.90104 0.63845 0.0
C1281 C 0.24263 0.88821 0.62679 0.0
C1282 C 0.21813 0.85909 0.59443 0.0
C1283 C 0.21935 0.84728 0.5879 0.0
C1284 C 0.20683 0.83328 0.58596 0.0
C1285 C 0.19269 0.83063 0.59086 0.0
C1286 C 0.19149 0.84245 0.59786 0.0
C1287 C 0.20402 0.85654 0.59944 0.0
C1288 C 0.1388 0.76686 0.55699 0.0
C1289 C 0.13273 0.7518 0.55428 0.0
C1290 C 0.12636 0.74503 0.53451 0.0
C1291 C 0.12604 0.75325 0.51693 0.0
C1292 C 0.13317 0.7685 0.5191 0.0
C1293 C 0.13944 0.77524 0.5389 0.0
C1294 C 0.12863 0.7694 0.5904 0.0
C1295 C 0.11696 0.77009 0.58039 0.0
C1296 C 0.10356 0.76481 0.59097 0.0
C1297 C 0.10161 0.75925 0.61218 0.0
C1298 C 0.11376 0.75966 0.62269 0.0
C1299 C 0.12703 0.76452 0.6118 0.0
C1300 C 0.15427 0.78732 0.5818 0.0
C1301 C 0.16779 0.78918 0.58881 0.0
C1302 C 0.18013 0.80316 0.59216 0.0
C1303 C 0.17929 0.81568 0.58823 0.0
C1304 C 0.16561 0.81375 0.58134 0.0
C1305 C 0.1532 0.79973 0.57838 0.0
H1306 H 0.22202 0.32015 0.57231 0.0
N1307 N 0.22686 0.34503 0.59241 0.0
H1308 H 0.23118 0.31882 0.53685 0.0
H1309 H 0.23973 0.36625 0.56322 0.0
H1310 H 0.24836 0.36478 0.52718 0.0
H1311 H 0.25341 0.35846 0.61093 0.0
H1312 H 0.26433 0.34761 0.63338 0.0
H1313 H 0.21164 0.31766 0.61033 0.0
H1314 H 0.22236 0.30665 0.63332 0.0
H1315 H 0.19937 0.32388 0.57773 0.0
H1316 H 0.223 0.36428 0.61322 0.0
H1317 H 0.17694 0.32517 0.57807 0.0
H1318 H 0.20051 0.36539 0.61456 0.0
H1319 H 0.13216 0.33382 0.55399 0.0
H1320 H 0.12115 0.3326 0.51844 0.0
H1321 H 0.12003 0.37127 0.53339 0.0
H1322 H 0.13125 0.37255 0.56894 0.0
H1323 H 0.1332 0.36602 0.62013 0.0
H1324 H 0.11058 0.35665 0.64126 0.0
H1325 H 0.0908 0.31592 0.60617 0.0
H1326 H 0.11323 0.32543 0.58497 0.0
H1327 H 0.13611 0.32742 0.59374 0.0
H1328 H 0.15728 0.32432 0.5982 0.0
H1329 H 0.1869 0.37078 0.58938 0.0
N1330 N 0.13718 0.35339 0.58625 0.0
H1331 H 0.16563 0.37381 0.58571 0.0
C1332 C 0.23048 0.34343 0.57061 0.0
C1333 C 0.22775 0.32996 0.56266 0.0
C1334 C 0.23294 0.32918 0.54239 0.0
C1335 C 0.24051 0.34172 0.52948 0.0
C1336 C 0.24252 0.35498 0.5369 0.0
C1337 C 0.23762 0.35583 0.55738 0.0
C1338 C 0.23178 0.33893 0.60899 0.0
C1339 C 0.24649 0.34726 0.61626 0.0
C1340 C 0.25268 0.34101 0.62915 0.0
C1341 C 0.24425 0.3262 0.63514 0.0
C1342 C 0.22921 0.31803 0.6288 0.0
C1343 C 0.22302 0.32434 0.61583 0.0
C1344 C 0.21291 0.34414 0.59522 0.0
C1345 C 0.19964 0.33288 0.58597 0.0
C1346 C 0.18679 0.33361 0.58629 0.0
C1347 C 0.18694 0.34553 0.59604 0.0
C1348 C 0.20005 0.35626 0.60641 0.0
C1349 C 0.21288 0.35558 0.6059 0.0
C1350 C 0.13266 0.35341 0.56412 0.0
C1351 C 0.12992 0.34226 0.54948 0.0
C1352 C 0.1236 0.34156 0.52914 0.0
C1353 C 0.1197 0.35182 0.52322 0.0
C1354 C 0.12285 0.36318 0.5376 0.0
C1355 C 0.12933 0.36398 0.5578 0.0
C1356 C 0.12497 0.34648 0.60105 0.0
C1357 C 0.12411 0.35494 0.61744 0.0
C1358 C 0.11118 0.34957 0.62946 0.0
C1359 C 0.09883 0.33561 0.62518 0.0
C1360 C 0.10004 0.32681 0.60959 0.0
C1361 C 0.11295 0.33219 0.59761 0.0
C1362 C 0.14928 0.35096 0.58961 0.0
C1363 C 0.14712 0.33698 0.59303 0.0
C1364 C 0.15929 0.33519 0.59542 0.0
C1365 C 0.17386 0.3473 0.59431 0.0
C1366 C 0.1759 0.36123 0.59084 0.0
C1367 C 0.16376 0.36299 0.58858 0.0
C1368 C 0.00325 0.39954 0.08892 0.0
C1369 C 0.99169 0.39885 0.07651 0.0
C1370 C 0.00799 0.4075 0.10834 0.0
C1371 C 0.00116 0.41513 0.1153 0.0
C1372 C 0.98948 0.41446 0.10285 0.0
C1373 C 0.98482 0.40625 0.08372 0.0
C1374 C 0.02033 0.40779 0.12138 0.0
C1375 C 0.98205 0.42261 0.10956 0.0
C1376 C 0.00394 0.42658 0.17399 0.0
C1377 C 0.01536 0.44128 0.17321 0.0
C1378 C 0.99942 0.41784 0.15535 0.0
C1379 C 0.00634 0.42404 0.13542 0.0
C1380 C 0.01787 0.43889 0.13456 0.0
C1381 C 0.02232 0.44731 0.15352 0.0
C1382 C 0.98724 0.40199 0.15696 0.0
C1383 C 0.02534 0.44596 0.11355 0.0
H1384 H 0.00857 0.39381 0.0835 0.0
H1385 H 0.97593 0.40586 0.07418 0.0
H1386 H 0.02991 0.41915 0.12259 0.0
H1387 H 0.01658 0.40393 0.13808 0.0
H1388 H 0.02413 0.40087 0.11414 0.0
H1389 H 0.97314 0.42097 0.09806 0.0
H1390 H 0.97719 0.41896 0.12583 0.0
H1391 H 0.99037 0.43448 0.11066 0.0
H1392 H 0.99868 0.42187 0.18927 0.0
H1393 H 0.03108 0.45871 0.1529 0.0
H1394 H 0.99116 0.3949 0.1508 0.0
H1395 H 0.97764 0.39995 0.14674 0.0
H1396 H 0.98343 0.3987 0.17382 0.0
H1397 H 0.03023 0.43998 0.10643 0.0
H1398 H 0.03422 0.45759 0.11568 0.0
H1399 H 0.01703 0.44538 0.10175 0.0
C1400 C 0.61872 0.60618 0.092 0.0
C1401 C 0.62641 0.60065 0.08143 0.0
C1402 C 0.61107 0.59977 0.11122 0.0
C1403 C 0.61131 0.58768 0.12014 0.0
C1404 C 0.61939 0.58231 0.10982 0.0
C1405 C 0.62676 0.58881 0.09057 0.0
C1406 C 0.60248 0.6057 0.12171 0.0
C1407 C 0.62009 0.56958 0.11898 0.0
C1408 C 0.60242 0.57728 0.17914 0.0
C1409 C 0.58807 0.56491 0.17771 0.0
C1410 C 0.60998 0.58502 0.16059 0.0
C1411 C 0.60297 0.5804 0.14009 0.0
C1412 C 0.58833 0.56821 0.13856 0.0
C1413 C 0.58108 0.56057 0.15737 0.0
C1414 C 0.6256 0.59793 0.16288 0.0
C1415 C 0.58046 0.563 0.11698 0.0
H1416 H 0.61834 0.61528 0.08498 0.0
H1417 H 0.63277 0.58452 0.08259 0.0
H1418 H 0.59054 0.59713 0.12199 0.0
H1419 H 0.60621 0.60877 0.13873 0.0
H1420 H 0.60374 0.61541 0.11308 0.0
H1421 H 0.62726 0.56704 0.10935 0.0
H1422 H 0.62441 0.57196 0.13585 0.0
H1423 H 0.6088 0.55971 0.11942 0.0
H1424 H 0.60778 0.58093 0.19482 0.0
H1425 H 0.57005 0.55097 0.15606 0.0
H1426 H 0.62651 0.60772 0.15511 0.0
H1427 H 0.63335 0.59559 0.15448 0.0
H1428 H 0.62922 0.60053 0.18006 0.0
H1429 H 0.58076 0.57217 0.10808 0.0
H1430 H 0.56873 0.55405 0.11869 0.0
H1431 H 0.58623 0.55898 0.10696 0.0
C1432 C 0.40046 0.01083 0.08706 0.0
C1433 C 0.40017 0.00123 0.07156 0.0
C1434 C 0.40957 0.01446 0.10563 0.0
C1435 C 0.41883 0.0086 0.10838 0.0
C1436 C 0.41917 0.99959 0.09209 0.0
C1437 C 0.40971 0.99588 0.07405 0.0
C1438 C 0.40872 0.0239 0.12281 0.0
C1439 C 0.4291 0.99339 0.09411 0.0
C1440 C 0.44995 0.02403 0.15055 0.0
C1441 C 0.44374 0.01336 0.16674 0.0
C1442 C 0.44191 0.02279 0.13153 0.0
C1443 C 0.42723 0.01079 0.12897 0.0
C1444 C 0.4208 1.00023 0.14562 0.0
C1445 C 0.42919 0.00157 0.16419 0.0
C1446 C 0.44925 0.03409 0.11396 0.0
C1447 C 0.4051 0.9874 0.14372 0.0
H1448 H 0.39304 0.01493 0.08521 0.0
H1449 H 0.40963 0.98858 0.06194 0.0
H1450 H 0.4037 0.01727 0.13756 0.0
H1451 H 0.41997 0.03295 0.12737 0.0
H1452 H 0.40197 0.02859 0.11745 0.0
H1453 H 0.42918 0.98785 0.07906 0.0
H1454 H 0.44062 0.00219 0.09805 0.0
H1455 H 0.42527 0.98536 0.10752 0.0
H1456 H 0.46121 0.03315 0.15257 0.0
H1457 H 0.42432 0.99345 0.1769 0.0
H1458 H 0.44237 0.0388 0.10958 0.0
H1459 H 0.45022 0.02884 0.0992 0.0
H1460 H 0.46048 0.0431 0.11884 0.0
H1461 H 0.39741 0.99127 0.13995 0.0
H1462 H 0.4014 0.98078 0.15876 0.0
H1463 H 0.40423 0.98023 0.13023 0.0
C1464 C 0.38649 0.97566 0.95193 0.0
C1465 C 0.38489 0.98702 0.95971 0.0
C1466 C 0.39238 0.97645 0.93148 0.0
C1467 C 0.39673 0.98887 0.91836 0.0
C1468 C 0.39504 1.00034 0.92597 0.0
C1469 C 0.38916 0.9993 0.94659 0.0
C1470 C 0.39404 0.964 0.92397 0.0
C1471 C 0.3995 0.01373 0.91235 0.0
C1472 C 0.42433 0.99569 0.87445 0.0
C1473 C 0.41499 0.9894 0.85637 0.0
C1474 C 0.41857 0.99592 0.89464 0.0
C1475 C 0.40312 0.98979 0.89674 0.0
C1476 C 0.39368 0.98375 0.87842 0.0
C1477 C 0.39973 0.98359 0.85847 0.0
C1478 C 0.42898 0.00235 0.91385 0.0
C1479 C 0.37717 0.97721 0.87998 0.0
H1480 H 0.38325 0.96613 0.96191 0.0
H1481 H 0.38796 0.00812 0.95244 0.0
H1482 H 0.38769 0.95936 0.9087 0.0
H1483 H 0.40583 0.96807 0.92056 0.0
H1484 H 0.3901 0.95509 0.93613 0.0
H1485 H 0.39725 0.02157 0.92046 0.0
H1486 H 0.41149 0.01937 0.90877 0.0
H1487 H 0.39343 0.01049 0.89665 0.0
H1488 H 0.43611 1.00009 0.87294 0.0
H1489 H 0.3925 0.97893 0.84444 0.0
H1490 H 0.4263 0.99369 0.92602 0.0
H1491 H 0.42755 0.0108 0.92171 0.0
H1492 H 0.44077 0.00735 0.90928 0.0
H1493 H 0.37238 0.96758 0.89087 0.0
H1494 H 0.37148 0.97371 0.86399 0.0
H1495 H 0.3748 0.98524 0.8871 0.0
C1496 C 0.99573 0.39586 0.94313 0.0
C1497 C 0.99487 0.40236 0.96211 0.0
C1498 C 0.99628 0.40215 0.92286 0.0
C1499 C 0.99637 0.41541 0.92177 0.0
C1500 C 0.99689 0.42265 0.94111 0.0
C1501 C 0.99583 0.41588 0.96105 0.0
C1502 C 0.9954 0.39392 0.90266 0.0
C1503 C 0.99747 0.43702 0.94074 0.0
C1504 C 0.00256 0.43482 0.86757 0.0
C1505 C 0.988 0.43048 0.86127 0.0
C1506 C 0.00554 0.43014 0.88728 0.0
C1507 C 0.99366 0.42057 0.90076 0.0
C1508 C 0.97896 0.41609 0.89446 0.0
C1509 C 0.97635 0.42129 0.87507 0.0
C1510 C 0.02138 0.43545 0.89373 0.0
C1511 C 0.96592 0.40578 0.90824 0.0
H1512 H 0.99479 0.38529 0.94401 0.0
H1513 H 0.99516 0.42088 0.97582 0.0
H1514 H 0.9842 0.38917 0.89522 0.0
H1515 H 0.00352 0.40136 0.89059 0.0
H1516 H 0.99742 0.38491 0.90611 0.0
H1517 H 1.00038 0.44236 0.95686 0.0
H1518 H 0.00568 0.44459 0.92885 0.0
H1519 H 0.98649 0.43515 0.93571 0.0
H1520 H 0.01167 0.44175 0.85701 0.0
H1521 H 0.9651 0.41815 0.87081 0.0
H1522 H 0.02298 0.42604 0.89542 0.0
H1523 H 0.02395 0.44093 0.9097 0.0
H1524 H 0.0294 0.44321 0.88177 0.0
H1525 H 0.96613 0.39571 0.91164 0.0
H1526 H 0.95514 0.40263 0.90038 0.0
H1527 H 0.96662 0.41098 0.92399 0.0
C1528 C 0.6071 0.61167 0.9671 0.0
C1529 C 0.61656 0.6062 0.96954 0.0
C1530 C 0.59657 0.60681 0.95013 0.0
C1531 C 0.59565 0.59641 0.93521 0.0
C1532 C 0.60549 0.59122 0.93729 0.0
C1533 C 0.61573 0.59611 0.95446 0.0
C1534 C 0.58618 0.61249 0.9485 0.0
C1535 C 0.60506 0.58029 0.92154 0.0
C1536 C 0.56189 0.56959 0.9026 0.0
C1537 C 0.56599 0.57539 0.88174 0.0
C1538 C 0.57083 0.57703 0.92061 0.0
C1539 C 0.58427 0.59049 0.91759 0.0
C1540 C 0.58784 0.59694 0.8968 0.0
C1541 C 0.57861 0.58932 0.87911 0.0
C1542 C 0.56649 0.56991 0.94257 0.0
C1543 C 0.60208 0.61123 0.89285 0.0
H1544 H 0.60766 0.61944 0.97876 0.0
H1545 H 0.62309 0.59193 0.9561 0.0
H1546 H 0.58651 0.61684 0.93205 0.0
H1547 H 0.57465 0.6034 0.95119 0.0
H1548 H 0.58894 0.62122 0.9605 0.0
H1549 H 0.61387 0.5778 0.92495 0.0
H1550 H 0.59416 0.56994 0.92228 0.0
H1551 H 0.60639 0.58452 0.90478 0.0
H1552 H 0.55203 0.55889 0.90469 0.0
H1553 H 0.58189 0.5938 0.86299 0.0
H1554 H 0.5682 0.57802 0.95509 0.0
H1555 H 0.5736 0.56547 0.94701 0.0
H1556 H 0.55474 0.56081 0.94284 0.0
H1557 H 0.60407 0.61932 0.90554 0.0
H1558 H 0.60204 0.61592 0.87679 0.0
H1559 H 0.6115 0.6094 0.89352 0.0
C1560 C 0.00148 0.60511 0.94328 0.0
C1561 C 0.01555 0.6108 0.95287 0.0
C1562 C 0.99798 0.59779 0.92332 0.0
C1563 C 0.00881 0.59617 0.91271 0.0
C1564 C 0.02302 0.60193 0.92226 0.0
C1565 C 0.02621 0.60915 0.9422 0.0
C1566 C 0.98269 0.59177 0.91362 0.0
C1567 C 0.0349 0.60047 0.9114 0.0
C1568 C 0.99783 0.56657 0.87049 0.0
C1569 C 0.00115 0.57459 0.8512 0.0
C1570 C 0.99989 0.57338 0.89062 0.0
C1571 C 0.00541 0.58857 0.89149 0.0
C1572 C 0.00846 0.59665 0.87207 0.0
C1573 C 0.00627 0.58957 0.85218 0.0
C1574 C 0.99652 0.56439 0.91099 0.0
C1575 C 0.01434 0.61286 0.87231 0.0
H1576 H 0.99317 0.60631 0.9514 0.0
H1577 H 0.03712 0.6135 0.94943 0.0
H1578 H 0.9835 0.5967 0.89748 0.0
H1579 H 0.97727 0.5798 0.91123 0.0
H1580 H 0.97552 0.5939 0.92394 0.0
H1581 H 0.04538 0.60554 0.921 0.0
H1582 H 0.03098 0.58877 0.90888 0.0
H1583 H 0.03726 0.60572 0.89524 0.0
H1584 H 0.99399 0.55503 0.86987 0.0
H1585 H 0.00859 0.59578 0.83733 0.0
H1586 H 0.98886 0.56584 0.92125 0.0
H1587 H 0.00687 0.5682 0.92051 0.0
H1588 H 0.99146 0.55257 0.90752 0.0
H1589 H 0.00685 0.61511 0.88158 0.0
H1590 H 0.01553 0.61743 0.85578 0.0
H1591 H 0.02532 0.61869 0.88056 0.0
C1592 C 0.39084 0.39964 0.94644 0.0
C1593 C 0.38077 0.40267 0.95591 0.0
C1594 C 0.3975 0.40607 0.92668 0.0
C1595 C 0.39366 0.41539 0.91593 0.0
C1596 C 0.38306 0.41801 0.92506 0.0
C1597 C 0.3769 0.41177 0.94509 0.0
C1598 C 0.40898 0.40327 0.91765 0.0
C1599 C 0.37837 0.42755 0.91381 0.0
C1600 C 0.42051 0.44392 0.87647 0.0
C1601 C 0.41487 0.43683 0.85665 0.0
C1602 C 0.41384 0.43696 0.89594 0.0
C1603 C 0.40102 0.42276 0.89544 0.0
C1604 C 0.39514 0.41568 0.87536 0.0
C1605 C 0.40228 0.42275 0.85619 0.0
C1606 C 0.4206 0.44474 0.91706 0.0
C1607 C 0.38128 0.40071 0.87412 0.0
H1608 H 0.39393 0.3927 0.95488 0.0
H1609 H 0.36903 0.41403 0.95232 0.0
H1610 H 0.40573 0.3987 0.90109 0.0
H1611 H 0.41975 0.41373 0.91644 0.0
H1612 H 0.41057 0.39559 0.92783 0.0
H1613 H 0.36929 0.42769 0.92237 0.0
H1614 H 0.38794 0.43891 0.91276 0.0
H1615 H 0.37462 0.42365 0.89703 0.0
H1616 H 0.43035 0.45477 0.87671 0.0
H1617 H 0.39794 0.41734 0.84076 0.0
H1618 H 0.42329 0.43793 0.92749 0.0
H1619 H 0.41253 0.44639 0.92588 0.0
H1620 H 0.43085 0.45554 0.91467 0.0
H1621 H 0.38302 0.39269 0.88301 0.0
H1622 H 0.37796 0.39688 0.85719 0.0
H1623 H 0.37201 0.40087 0.88199 0.0
C1624 C 0.58678 0.00514 0.9591 0.0
C1625 C 0.59677 1.00035 0.96187 0.0
C1626 C 0.57727 0.00091 0.94102 0.0
C1627 C 0.57803 0.99197 0.92503 0.0
C1628 C 0.58787 0.98682 0.92796 0.0
C1629 C 0.59701 0.99094 0.94651 0.0
C1630 C 0.56671 0.00637 0.93876 0.0
C1631 C 0.58918 0.97748 0.91107 0.0
C1632 C 0.54669 0.97374 0.88347 0.0
C1633 C 0.55229 0.98387 0.8665 0.0
C1634 C 0.55495 0.97619 0.90267 0.0
C1635 C 0.56924 0.98887 0.90464 0.0
C1636 C 0.57503 0.99897 0.88732 0.0
C1637 C 0.56641 0.99641 0.86855 0.0
C1638 C 0.54829 0.96535 0.92095 0.0
C1639 C 0.59033 0.01249 0.88861 0.0
H1640 H 0.58644 0.01229 0.97107 0.0
H1641 H 0.60478 0.98727 0.94856 0.0
H1642 H 0.56998 0.01401 0.92489 0.0
H1643 H 0.55531 0.99712 0.93537 0.0
H1644 H 0.56655 0.01212 0.9535 0.0
H1645 H 0.59674 0.97371 0.91632 0.0
H1646 H 0.57814 0.96779 0.90728 0.0
H1647 H 0.59345 0.98383 0.89589 0.0
H1648 H 0.53575 0.96405 0.88183 0.0
H1649 H 0.57081 0.00413 0.85527 0.0
H1650 H 0.5474 0.97084 0.93547 0.0
H1651 H 0.55559 0.96113 0.92538 0.0
H1652 H 0.53711 0.95596 0.91676 0.0
H1653 H 0.59084 0.01966 0.90186 0.0
H1654 H 0.59347 0.01884 0.87331 0.0
H1655 H 0.59865 0.00942 0.89242 0.0
C1656 C 0.59999 0.99678 0.0812 0.0
C1657 C 0.61104 0.01073 0.07443 0.0
C1658 C 0.5932 0.99475 0.10133 0.0
C1659 C 0.59791 0.00689 0.11517 0.0
C1660 C 0.60947 0.02089 0.10871 0.0
C1661 C 0.61575 0.02267 0.08828 0.0
C1662 C 0.58068 0.97972 0.10748 0.0
C1663 C 0.61509 0.03405 0.12324 0.0
C1664 C 0.5727 0.00747 0.15762 0.0
C1665 C 0.57788 0.0041 0.17638 0.0
C1666 C 0.57872 0.00782 0.13742 0.0
C1667 C 0.59048 0.00515 0.13614 0.0
C1668 C 0.59565 0.00161 0.1551 0.0
C1669 C 0.58914 0.00095 0.175 0.0
C1670 C 0.57269 0.01131 0.11751 0.0
C1671 C 0.6084 0.99905 0.15448 0.0
H1672 H 0.59626 0.98755 0.07042 0.0
H1673 H 0.62439 0.03345 0.08313 0.0
H1674 H 0.58315 0.97636 0.12322 0.0
H1675 H 0.57038 0.97994 0.10947 0.0
H1676 H 0.5786 0.97136 0.09516 0.0
H1677 H 0.62483 0.04395 0.11642 0.0
H1678 H 0.60618 0.03642 0.12576 0.0
H1679 H 0.61822 0.03177 0.13934 0.0
H1680 H 0.56393 0.00983 0.15881 0.0
H1681 H 0.59317 0.99845 0.18963 0.0
H1682 H 0.56973 0.00288 0.1049 0.0
H1683 H 0.5813 0.02194 0.11069 0.0
H1684 H 0.56275 0.01191 0.12102 0.0
H1685 H 0.60602 0.99034 0.14268 0.0
H1686 H 0.61073 0.9959 0.17053 0.0
H1687 H 0.61853 0.00914 0.14902 0.0
C1688 C 1.00058 0.60164 0.07923 0.0
C1689 C 0.0138 0.60624 0.06821 0.0
C1690 C 0.99772 0.59418 0.09905 0.0
C1691 C 0.00833 0.59127 0.10802 0.0
C1692 C 0.02151 0.59557 0.09671 0.0
C1693 C 0.02408 0.60298 0.07699 0.0
C1694 C 0.98351 0.58972 0.11064 0.0
C1695 C 0.03311 0.59266 0.10571 0.0
C1696 C 0.01088 0.58682 0.16853 0.0
C1697 C 0.0046 0.57168 0.17051 0.0
C1698 C 0.01172 0.59327 0.14837 0.0
C1699 C 0.00611 0.58437 0.1297 0.0
C1700 C 0.99934 0.56903 0.13166 0.0
C1701 C 0.99867 0.56286 0.15205 0.0
C1702 C 0.01897 0.60966 0.14699 0.0
C1703 C 0.99324 0.55919 0.11212 0.0
H1704 H 0.99256 0.60408 0.07257 0.0
H1705 H 0.0343 0.60641 0.0686 0.0
H1706 H 0.97757 0.57788 0.11447 0.0
H1707 H 0.98607 0.59567 0.12621 0.0
H1708 H 0.97602 0.59202 0.10094 0.0
H1709 H 0.04247 0.59617 0.09448 0.0
H1710 H 0.03757 0.59857 0.12124 0.0
H1711 H 0.02809 0.58085 0.10912 0.0
H1712 H 0.01521 0.59366 0.18279 0.0
H1713 H 0.99388 0.55116 0.15344 0.0
H1714 H 0.01144 0.61254 0.13875 0.0
H1715 H 0.02915 0.61427 0.1372 0.0
H1716 H 0.02202 0.61494 0.16316 0.0
H1717 H 0.98553 0.56139 0.10288 0.0
H1718 H 0.98731 0.54743 0.11657 0.0
H1719 H 0.00243 0.56148 0.10119 0.0
C1720 C 0.40322 0.41123 0.07599 0.0
C1721 C 0.39631 0.3973 0.06655 0.0
C1722 C 0.41264 0.41474 0.09404 0.0
C1723 C 0.41522 0.40407 0.10299 0.0
C1724 C 0.40871 0.39014 0.09316 0.0
C1725 C 0.39932 0.38691 0.075 0.0
C1726 C 0.4194 0.42975 0.10399 0.0
C1727 C 0.41125 0.3785 0.10224 0.0
C1728 C 0.44759 0.41891 0.14284 0.0
C1729 C 0.4404 0.41704 0.16253 0.0
C1730 C 0.43949 0.41413 0.12332 0.0
C1731 C 0.42386 0.4073 0.12356 0.0
C1732 C 0.41654 0.40481 0.1435 0.0
C1733 C 0.42489 0.40971 0.16272 0.0
C1734 C 0.44768 0.41697 0.10237 0.0
C1735 C 0.39989 0.3975 0.1445 0.0
H1736 H 0.40109 0.4194 0.0695 0.0
H1737 H 0.39406 0.37614 0.06779 0.0
H1738 H 0.415 0.42881 0.12048 0.0
H1739 H 0.43159 0.43492 0.1056 0.0
H1740 H 0.41702 0.43708 0.0943 0.0
H1741 H 0.40648 0.36871 0.09164 0.0
H1742 H 0.42327 0.38288 0.10449 0.0
H1743 H 0.4061 0.37506 0.11838 0.0
H1744 H 0.45957 0.42459 0.14262 0.0
H1745 H 0.41927 0.40795 0.17795 0.0
H1746 H 0.44684 0.42535 0.0929 0.0
H1747 H 0.44262 0.4069 0.09241 0.0
H1748 H 0.45959 0.42089 0.10508 0.0
H1749 H 0.39638 0.40457 0.13662 0.0
H1750 H 0.39583 0.39534 0.16137 0.0
H1751 H 0.39446 0.387 0.13555 0.0
C1752 C 0.65763 0.72774 0.42318 0.0
C1753 C 0.64691 0.72708 0.40881 0.0
C1754 C 0.66002 0.73433 0.4436 0.0
C1755 C 0.65162 0.74058 0.4496 0.0
C1756 C 0.64092 0.7401 0.43505 0.0
C1757 C 0.63863 0.73329 0.41492 0.0
C1758 C 0.6714 0.73449 0.45882 0.0
C1759 C 0.63188 0.7468 0.44074 0.0
C1760 C 0.6465 0.74597 0.5087 0.0
C1761 C 0.65685 0.76089 0.51157 0.0
C1762 C 0.64495 0.73913 0.48876 0.0
C1763 C 0.65383 0.74748 0.47119 0.0
C1764 C 0.66436 0.76254 0.47403 0.0
C1765 C 0.66581 0.76905 0.49425 0.0
C1766 C 0.63373 0.72301 0.48644 0.0
C1767 C 0.67388 0.77184 0.4556 0.0
H1768 H 0.66404 0.72294 0.41861 0.0
H1769 H 0.6304 0.73293 0.40386 0.0
H1770 H 0.67991 0.7459 0.46316 0.0
H1771 H 0.66602 0.72875 0.47403 0.0
H1772 H 0.67701 0.72918 0.4517 0.0
H1773 H 0.62428 0.74584 0.42737 0.0
H1774 H 0.62519 0.74138 0.45528 0.0
H1775 H 0.63932 0.75853 0.44472 0.0
H1776 H 0.63972 0.73959 0.52218 0.0
H1777 H 0.67376 0.78061 0.49641 0.0
H1778 H 0.63918 0.71724 0.48051 0.0
H1779 H 0.62513 0.7213 0.47429 0.0
H1780 H 0.62818 0.71795 0.50193 0.0
H1781 H 0.68022 0.76717 0.44898 0.0
H1782 H 0.6818 0.7833 0.46062 0.0
H1783 H 0.66674 0.77191 0.44231 0.0
C1784 C 0.28558 0.94324 0.42704 0.0
C1785 C 0.28086 0.93372 0.40932 0.0
C1786 C 0.28019 0.93795 0.44785 0.0
C1787 C 0.2696 0.92291 0.45076 0.0
C1788 C 0.26429 0.91344 0.43269 0.0
C1789 C 0.27012 0.91893 0.41225 0.0
C1790 C 0.28629 0.94831 0.46681 0.0
C1791 C 0.25275 0.89741 0.435 0.0
C1792 C 0.26636 0.90344 0.50366 0.0
C1793 C 0.25374 0.90238 0.51271 0.0
C1794 C 0.27201 0.91069 0.48399 0.0
C1795 C 0.26468 0.91675 0.47276 0.0
C1796 C 0.25206 0.91589 0.48185 0.0
C1797 C 0.24683 0.90885 0.5018 0.0
C1798 C 0.28561 0.91151 0.47493 0.0
C1799 C 0.24382 0.92202 0.47018 0.0
H1800 H 0.29393 0.95466 0.42479 0.0
H1801 H 0.26632 0.91158 0.3985 0.0
H1802 H 0.27714 0.94754 0.47642 0.0
H1803 H 0.29268 0.94521 0.47764 0.0
H1804 H 0.29366 0.95983 0.46167 0.0
H1805 H 0.24892 0.89181 0.41912 0.0
H1806 H 0.2574 0.89191 0.44464 0.0
H1807 H 0.24303 0.89601 0.4438 0.0
H1808 H 0.27169 0.89832 0.51168 0.0
H1809 H 0.23727 0.90839 0.50882 0.0
H1810 H 0.29395 0.92294 0.47049 0.0
H1811 H 0.28259 0.90485 0.45999 0.0
H1812 H 0.2908 0.90749 0.48657 0.0
H1813 H 0.2515 0.93368 0.46615 0.0
H1814 H 0.23461 0.92109 0.4799 0.0
H1815 H 0.23917 0.9161 0.45471 0.0
C1816 C 0.07591 0.34656 0.41234 0.0
C1817 C 0.06566 0.33174 0.40829 0.0
C1818 C 0.08543 0.35094 0.43051 0.0
C1819 C 0.08447 0.34025 0.44514 0.0
C1820 C 0.07401 0.3253 0.44126 0.0
C1821 C 0.06484 0.32122 0.42281 0.0
C1822 C 0.09658 0.36696 0.43398 0.0
C1823 C 0.07245 0.31358 0.45665 0.0
C1824 C 0.11609 0.34738 0.48325 0.0
C1825 C 0.11139 0.35005 0.50279 0.0
C1826 C 0.10775 0.34478 0.46412 0.0
C1827 C 0.09425 0.34459 0.46468 0.0
C1828 C 0.08961 0.34756 0.48431 0.0
C1829 C 0.09829 0.35035 0.50309 0.0
C1830 C 0.11318 0.3419 0.44343 0.0
C1831 C 0.07518 0.3472 0.48567 0.0
H1832 H 0.07666 0.35473 0.40113 0.0
H1833 H 0.05689 0.30975 0.41989 0.0
H1834 H 0.09464 0.37056 0.44968 0.0
H1835 H 0.10794 0.36883 0.43468 0.0
H1836 H 0.09608 0.37389 0.42094 0.0
H1837 H 0.06358 0.30247 0.4515 0.0
H1838 H 0.08305 0.3138 0.45784 0.0
H1839 H 0.06991 0.31567 0.47308 0.0
H1840 H 0.12628 0.34726 0.48297 0.0
H1841 H 0.09454 0.35224 0.51825 0.0
H1842 H 0.11335 0.34912 0.43035 0.0
H1843 H 0.1055 0.33046 0.43817 0.0
H1844 H 0.12446 0.34365 0.44531 0.0
H1845 H 0.07476 0.35456 0.47336 0.0
H1846 H 0.07355 0.35051 0.50187 0.0
H1847 H 0.0658 0.336 0.48218 0.0
C1848 C 0.05201 0.309 0.28163 0.0
C1849 C 0.05617 0.32155 0.29386 0.0
C1850 C 0.05791 0.31002 0.26111 0.0
C1851 C 0.06852 0.32391 0.25285 0.0
C1852 C 0.07284 0.33662 0.26518 0.0
C1853 C 0.06645 0.33531 0.28545 0.0
C1854 C 0.05274 0.29624 0.24823 0.0
C1855 C 0.08436 0.35158 0.25709 0.0
C1856 C 0.09319 0.32386 0.20893 0.0
C1857 C 0.08676 0.32592 0.19035 0.0
C1858 C 0.08761 0.3236 0.22948 0.0
C1859 C 0.07509 0.32504 0.23133 0.0
C1860 C 0.06854 0.32706 0.21253 0.0
C1861 C 0.07458 0.32765 0.19225 0.0
C1862 C 0.09508 0.32175 0.24918 0.0
C1863 C 0.05497 0.32827 0.21379 0.0
H1864 H 0.04396 0.29835 0.28801 0.0
H1865 H 0.06976 0.34502 0.29495 0.0
H1866 H 0.04831 0.29708 0.23226 0.0
H1867 H 0.06221 0.2948 0.24517 0.0
H1868 H 0.04401 0.28635 0.25665 0.0
H1869 H 0.08666 0.36036 0.26877 0.0
H1870 H 0.09485 0.35193 0.25399 0.0
H1871 H 0.08064 0.35391 0.24153 0.0
H1872 H 0.10269 0.32265 0.20736 0.0
H1873 H 0.0696 0.32915 0.17778 0.0
H1874 H 0.08731 0.31138 0.25752 0.0
H1875 H 0.09818 0.33076 0.2608 0.0
H1876 H 0.1052 0.3216 0.24505 0.0
H1877 H 0.04575 0.31822 0.22116 0.0
H1878 H 0.05126 0.32987 0.19765 0.0
H1879 H 0.05725 0.33756 0.22433 0.0
C1880 C 0.65089 0.74319 0.28937 0.0
C1881 C 0.65617 0.73395 0.29474 0.0
C1882 C 0.65493 0.75117 0.27004 0.0
C1883 C 0.66421 0.74962 0.25546 0.0
C1884 C 0.6699 0.74061 0.26103 0.0
C1885 C 0.66594 0.73299 0.28077 0.0
C1886 C 0.6489 0.76093 0.26494 0.0
C1887 C 0.67961 0.73849 0.24573 0.0
C1888 C 0.6589 0.75645 0.19669 0.0
C1889 C 0.67122 0.77044 0.1933 0.0
C1890 C 0.65675 0.7494 0.21666 0.0
C1891 C 0.66703 0.75665 0.2338 0.0
C1892 C 0.67953 0.77079 0.23043 0.0
C1893 C 0.68156 0.77747 0.2101 0.0
C1894 C 0.64343 0.73421 0.21947 0.0
C1895 C 0.69054 0.77898 0.24843 0.0
H1896 H 0.64347 0.74409 0.30026 0.0
H1897 H 0.66999 0.72581 0.28484 0.0
H1898 H 0.65803 0.77199 0.26034 0.0
H1899 H 0.64111 0.75644 0.25096 0.0
H1900 H 0.64297 0.76196 0.27882 0.0
H1901 H 0.68389 0.73187 0.25302 0.0
H1902 H 0.67319 0.7329 0.23087 0.0
H1903 H 0.68914 0.74921 0.24074 0.0
H1904 H 0.65102 0.75095 0.18356 0.0
H1905 H 0.69107 0.78831 0.20743 0.0
H1906 H 0.636 0.73436 0.23179 0.0
H1907 H 0.64698 0.72669 0.22537 0.0
H1908 H 0.637 0.72977 0.20417 0.0
H1909 H 0.68491 0.78081 0.26193 0.0
H1910 H 0.69988 0.78973 0.24302 0.0
H1911 H 0.6951 0.77242 0.25491 0.0
C1912 C 0.27852 0.94869 0.27761 0.0
C1913 C 0.27239 0.94111 0.29683 0.0
C1914 C 0.27055 0.94383 0.25801 0.0
C1915 C 0.25605 0.9313 0.2579 0.0
C1916 C 0.24941 0.92443 0.27767 0.0
C1917 C 0.25779 0.92927 0.29688 0.0
C1918 C 0.27813 0.95129 0.23726 0.0
C1919 C 0.23385 0.91132 0.27836 0.0
C1920 C 0.23265 0.92083 0.2063 0.0
C1921 C 0.23453 0.90972 0.19808 0.0
C1922 C 0.23949 0.92794 0.22583 0.0
C1923 C 0.24871 0.9241 0.23713 0.0
C1924 C 0.25076 0.913 0.22886 0.0
C1925 C 0.24348 0.90582 0.20969 0.0
C1926 C 0.23678 0.93948 0.23442 0.0
C1927 C 0.26063 0.90867 0.2403 0.0
H1928 H 0.28993 0.95772 0.27766 0.0
H1929 H 0.25313 0.92341 0.31184 0.0
H1930 H 0.28093 0.94414 0.22827 0.0
H1931 H 0.27068 0.95314 0.22673 0.0
H1932 H 0.2885 0.96194 0.24028 0.0
H1933 H 0.22951 0.90881 0.29508 0.0
H1934 H 0.22626 0.91312 0.26805 0.0
H1935 H 0.23374 0.90163 0.27194 0.0
H1936 H 0.22596 0.92412 0.19738 0.0
H1937 H 0.24475 0.89703 0.2039 0.0
H1938 H 0.24741 0.95007 0.23582 0.0
H1939 H 0.2321 0.93644 0.25089 0.0
H1940 H 0.22906 0.941 0.22393 0.0
H1941 H 0.27185 0.91842 0.24294 0.0
H1942 H 0.26173 0.90044 0.23107 0.0
H1943 H 0.25608 0.90404 0.25642 0.0
C1944 C 0.68763 0.93058 0.27986 0.0
C1945 C 0.68383 0.94109 0.28365 0.0
C1946 C 0.6854 0.92407 0.25951 0.0
C1947 C 0.67962 0.92849 0.24231 0.0
C1948 C 0.67556 0.93897 0.24609 0.0
C1949 C 0.67752 0.94501 0.26687 0.0
C1950 C 0.68948 0.91264 0.25633 0.0
C1951 C 0.66968 0.9442 0.22803 0.0
C1952 C 0.69019 0.92246 0.18673 0.0
C1953 C 0.67718 0.90973 0.17982 0.0
C1954 C 0.69089 0.92902 0.20661 0.0
C1955 C 0.67844 0.92251 0.22026 0.0
C1956 C 0.66525 0.90975 0.21341 0.0
C1957 C 0.66471 0.90365 0.19317 0.0
C1958 C 0.7051 0.94277 0.2132 0.0
C1959 C 0.65183 0.90232 0.2277 0.0
H1960 H 0.69237 0.92743 0.29291 0.0
H1961 H 0.67467 0.95321 0.26977 0.0
H1962 H 0.67999 0.90262 0.24913 0.0
H1963 H 0.69881 0.91676 0.24491 0.0
H1964 H 0.6928 0.90966 0.27173 0.0
H1965 H 0.66647 0.95194 0.23381 0.0
H1966 H 0.67828 0.94973 0.21551 0.0
H1967 H 0.65992 0.9348 0.22014 0.0
H1968 H 0.69998 0.92718 0.17683 0.0
H1969 H 0.65448 0.89405 0.18788 0.0
H1970 H 0.71021 0.94045 0.22725 0.0
H1971 H 0.70277 0.95127 0.21829 0.0
H1972 H 0.71325 0.94723 0.19991 0.0
H1973 H 0.65464 0.89866 0.24289 0.0
H1974 H 0.64228 0.8927 0.21975 0.0
H1975 H 0.64841 0.91012 0.23226 0.0
C1976 C 0.05465 0.75416 0.30079 0.0
C1977 C 0.04921 0.73923 0.30403 0.0
C1978 C 0.06045 0.76085 0.28083 0.0
C1979 C 0.0607 0.75241 0.26357 0.0
C1980 C 0.05504 0.7373 0.26659 0.0
C1981 C 0.04943 0.7309 0.28682 0.0
C1982 C 0.06651 0.77702 0.27832 0.0
C1983 C 0.055 0.72792 0.24849 0.0
C1984 C 0.06472 0.76747 0.20657 0.0
C1985 C 0.07976 0.77301 0.20272 0.0
C1986 C 0.05832 0.76064 0.22626 0.0
C1987 C 0.06724 0.7595 0.24254 0.0
C1988 C 0.08248 0.76526 0.23882 0.0
C1989 C 0.08853 0.77189 0.21892 0.0
C1990 C 0.04201 0.75452 0.22957 0.0
C1991 C 0.0924 0.76444 0.25588 0.0
H1992 H 0.05458 0.76071 0.31399 0.0
H1993 H 0.04519 0.71936 0.28913 0.0
H1994 H 0.07842 0.78272 0.27417 0.0
H1995 H 0.0607 0.77896 0.26484 0.0
H1996 H 0.06534 0.782 0.29324 0.0
H1997 H 0.04975 0.71626 0.25322 0.0
H1998 H 0.04898 0.7287 0.23418 0.0
H1999 H 0.06653 0.73194 0.24347 0.0
H2000 H 0.05787 0.76818 0.19397 0.0
H2001 H 0.1002 0.7763 0.21606 0.0
H2002 H 0.04039 0.75973 0.24382 0.0
H2003 H 0.03634 0.74264 0.23293 0.0
H2004 H 0.0366 0.75624 0.21527 0.0
H2005 H 0.09223 0.76998 0.27085 0.0
H2006 H 0.10404 0.76956 0.2505 0.0
H2007 H 0.08823 0.75286 0.26009 0.0
C2008 C 0.2755 0.33606 0.27837 0.0
C2009 C 0.27169 0.33974 0.29785 0.0
C2010 C 0.2676 0.33478 0.25919 0.0
C2011 C 0.25536 0.33677 0.25979 0.0
C2012 C 0.25082 0.33936 0.27982 0.0
C2013 C 0.25924 0.34111 0.29854 0.0
C2014 C 0.27304 0.33241 0.2381 0.0
C2015 C 0.23754 0.34104 0.28131 0.0
C2016 C 0.24667 0.35285 0.21101 0.0
C2017 C 0.23511 0.34039 0.20071 0.0
C2018 C 0.25353 0.35173 0.22988 0.0
C2019 C 0.24837 0.33786 0.23933 0.0
C2020 C 0.23647 0.32525 0.22948 0.0
C2021 C 0.23014 0.32663 0.21013 0.0
C2022 C 0.26636 0.36545 0.23968 0.0
C2023 C 0.23038 0.31032 0.23943 0.0
H2024 H 0.28526 0.33518 0.27787 0.0
H2025 H 0.2563 0.34391 0.31369 0.0
H2026 H 0.26376 0.32353 0.22867 0.0
H2027 H 0.27771 0.34251 0.22821 0.0
H2028 H 0.28175 0.32966 0.24061 0.0
H2029 H 0.2342 0.3408 0.29832 0.0
H2030 H 0.24017 0.35159 0.274 0.0
H2031 H 0.22799 0.33222 0.27216 0.0
H2032 H 0.2504 0.36358 0.20439 0.0
H2033 H 0.22141 0.31686 0.20228 0.0
H2034 H 0.27609 0.36421 0.24186 0.0
H2035 H 0.26334 0.36736 0.25589 0.0
H2036 H 0.26967 0.37526 0.22954 0.0
H2037 H 0.2391 0.30751 0.24014 0.0
H2038 H 0.22071 0.30167 0.23022 0.0
H2039 H 0.22697 0.31035 0.2563 0.0
C2040 C 0.289 0.35959 0.42496 0.0
C2041 C 0.28419 0.34792 0.41053 0.0
C2042 C 0.28193 0.35771 0.44475 0.0
C2043 C 0.26948 0.3439 0.44996 0.0
C2044 C 0.26472 0.332 0.4356 0.0
C2045 C 0.27227 0.33411 0.41615 0.0
C2046 C 0.28761 0.37058 0.45988 0.0
C2047 C 0.25131 0.31721 0.4404 0.0
C2048 C 0.25765 0.33709 0.50865 0.0
C2049 C 0.24706 0.34121 0.50884 0.0
C2050 C 0.2649 0.33769 0.48952 0.0
C2051 C 0.26118 0.34217 0.47007 0.0
C2052 C 0.25007 0.34581 0.47008 0.0
C2053 C 0.24329 0.34548 0.48957 0.0
C2054 C 0.27693 0.33407 0.49028 0.0
C2055 C 0.24556 0.35033 0.44959 0.0
H2056 H 0.29828 0.37026 0.42071 0.0
H2057 H 0.26845 0.32509 0.40492 0.0
H2058 H 0.27918 0.37371 0.46142 0.0
H2059 H 0.28958 0.36758 0.47626 0.0
H2060 H 0.29807 0.38024 0.45418 0.0
H2061 H 0.24937 0.30895 0.42797 0.0
H2062 H 0.2526 0.31323 0.4564 0.0
H2063 H 0.24134 0.31812 0.44113 0.0
H2064 H 0.26063 0.33392 0.52368 0.0
H2065 H 0.23504 0.3486 0.48979 0.0
H2066 H 0.28769 0.34392 0.48606 0.0
H2067 H 0.27462 0.32554 0.47818 0.0
H2068 H 0.27805 0.33019 0.50649 0.0
H2069 H 0.25496 0.36086 0.44374 0.0
H2070 H 0.23591 0.35161 0.45201 0.0
H2071 H 0.24273 0.3421 0.4367 0.0
C2072 C 0.66858 0.9368 0.41296 0.0
C2073 C 0.67825 0.93603 0.39854 0.0
C2074 C 0.66594 0.93013 0.43345 0.0
C2075 C 0.67304 0.92243 0.43942 0.0
C2076 C 0.68204 0.92088 0.42433 0.0
C2077 C 0.68458 0.92774 0.40417 0.0
C2078 C 0.65626 0.93201 0.4491 0.0
C2079 C 0.68968 0.91262 0.42988 0.0
C2080 C 0.68458 0.92083 0.49713 0.0
C2081 C 0.67444 0.90629 0.50277 0.0
C2082 C 0.68369 0.92644 0.477 0.0
C2083 C 0.67244 0.91725 0.46201 0.0
C2084 C 0.66177 0.90273 0.46795 0.0
C2085 C 0.66287 0.89743 0.48833 0.0
C2086 C 0.69521 0.94203 0.47142 0.0
C2087 C 0.64965 0.89259 0.45241 0.0
H2088 H 0.66365 0.9432 0.40869 0.0
H2089 H 0.6919 0.92692 0.39296 0.0
H2090 H 0.64828 0.92142 0.45675 0.0
H2091 H 0.66326 0.93958 0.46222 0.0
H2092 H 0.65 0.93653 0.44112 0.0
H2093 H 0.69517 0.91128 0.41569 0.0
H2094 H 0.69819 0.91856 0.44267 0.0
H2095 H 0.6816 0.90164 0.43634 0.0
H2096 H 0.69335 0.92781 0.50844 0.0
H2097 H 0.65501 0.88618 0.49264 0.0
H2098 H 0.68981 0.94789 0.46523 0.0
H2099 H 0.70237 0.94213 0.45841 0.0
H2100 H 0.70236 0.94811 0.48553 0.0
H2101 H 0.64409 0.89804 0.44518 0.0
H2102 H 0.64119 0.88232 0.46036 0.0
H2103 H 0.65454 0.88976 0.43898 0.0
C2104 C 0.06837 0.73795 0.42724 0.0
C2105 C 0.06433 0.72689 0.41189 0.0
C2106 C 0.0789 0.74075 0.44347 0.0
C2107 C 0.0857 0.73235 0.44441 0.0
C2108 C 0.08169 0.72113 0.42903 0.0
C2109 C 0.07099 0.71848 0.41296 0.0
C2110 C 0.08274 0.75274 0.45966 0.0
C2111 C 0.08877 0.71201 0.4295 0.0
C2112 C 0.12158 0.7518 0.47677 0.0
C2113 C 0.11671 0.74594 0.49745 0.0
C2114 C 0.11186 0.74664 0.45886 0.0
C2115 C 0.09689 0.73544 0.46175 0.0
C2116 C 0.09221 0.72878 0.48228 0.0
C2117 C 0.10218 0.7341 0.49987 0.0
C2118 C 0.11735 0.75391 0.43719 0.0
C2119 C 0.07634 0.71685 0.48611 0.0
H2120 H 0.06326 0.74448 0.42666 0.0
H2121 H 0.06796 0.70994 0.40114 0.0
H2122 H 0.0805 0.7482 0.47629 0.0
H2123 H 0.09472 0.76113 0.45889 0.0
H2124 H 0.07634 0.75818 0.45678 0.0
H2125 H 0.08441 0.70367 0.41645 0.0
H2126 H 0.10093 0.71915 0.42772 0.0
H2127 H 0.08681 0.70638 0.44531 0.0
H2128 H 0.13286 0.76082 0.47476 0.0
H2129 H 0.09826 0.7296 0.51582 0.0
H2130 H 0.11279 0.76099 0.43363 0.0
H2131 H 0.11347 0.74563 0.42414 0.0
H2132 H 0.12963 0.76077 0.43682 0.0
H2133 H 0.06921 0.72163 0.4858 0.0
H2134 H 0.075 0.71138 0.50195 0.0
H2135 H 0.07229 0.70851 0.47313 0.0
C2136 C 0.33775 0.07057 0.75138 0.0
C2137 C 0.32386 0.06574 0.74169 0.0
C2138 C 0.34194 0.07858 0.77074 0.0
C2139 C 0.33199 0.08179 0.78069 0.0
C2140 C 0.31791 0.07683 0.77113 0.0
C2141 C 0.31403 0.06889 0.75175 0.0
C2142 C 0.35706 0.08371 0.78047 0.0
C2143 C 0.30697 0.07998 0.78131 0.0
C2144 C 0.33684 0.09139 0.84041 0.0
C2145 C 0.34368 0.10665 0.83981 0.0
C2146 C 0.33308 0.08317 0.8213 0.0
C2147 C 0.3363 0.0904 0.80108 0.0
C2148 C 0.34333 0.1058 0.80035 0.0
C2149 C 0.34692 0.11374 0.81972 0.0
C2150 C 0.3256 0.06676 0.82274 0.0
C2151 C 0.34692 0.11389 0.77908 0.0
H2152 H 0.34543 0.06821 0.74373 0.0
H2153 H 0.30326 0.06519 0.74444 0.0
H2154 H 0.3635 0.09581 0.78159 0.0
H2155 H 0.35594 0.0794 0.79714 0.0
H2156 H 0.36344 0.08019 0.77084 0.0
H2157 H 0.29641 0.07521 0.77195 0.0
H2158 H 0.30448 0.07551 0.79798 0.0
H2159 H 0.31184 0.09195 0.78255 0.0
H2160 H 0.33453 0.08584 0.85587 0.0
H2161 H 0.35206 0.12551 0.81912 0.0
H2162 H 0.33229 0.06308 0.81434 0.0
H2163 H 0.31462 0.06152 0.8145 0.0
H2164 H 0.32401 0.06284 0.83973 0.0
H2165 H 0.35396 0.11128 0.7693 0.0
H2166 H 0.35277 0.12591 0.7813 0.0
H2167 H 0.33657 0.1103 0.76966 0.0
C2168 C 0.94721 0.26202 0.76018 0.0
C2169 C 0.94656 0.27217 0.74653 0.0
C2170 C 0.93848 0.25679 0.77874 0.0
C2171 C 0.92857 0.26152 0.78341 0.0
C2172 C 0.92805 0.27196 0.76987 0.0
C2173 C 0.93721 0.27732 0.75172 0.0
C2174 C 0.93966 0.24597 0.79311 0.0
C2175 C 0.9174 0.27704 0.77406 0.0
C2176 C 0.89542 0.23532 0.81717 0.0
C2177 C 0.8995 0.24204 0.83748 0.0
C2178 C 0.9046 0.24179 0.79927 0.0
C2179 C 0.91834 0.25507 0.80197 0.0
C2180 C 0.92247 0.26188 0.82251 0.0
C2181 C 0.91289 0.25535 0.84 0.0
C2182 C 0.89965 0.23436 0.77753 0.0
C2183 C 0.93718 0.27583 0.82616 0.0
H2184 H 0.9545 0.25809 0.75627 0.0
H2185 H 0.93658 0.28508 0.74108 0.0
H2186 H 0.94165 0.24977 0.81014 0.0
H2187 H 0.92909 0.23528 0.79256 0.0
H2188 H 0.94873 0.24428 0.78817 0.0
H2189 H 0.9187 0.28556 0.76242 0.0
H2190 H 0.90585 0.26762 0.77288 0.0
H2191 H 0.91906 0.28148 0.79068 0.0
H2192 H 0.88502 0.22503 0.81532 0.0
H2193 H 0.91604 0.26043 0.85582 0.0
H2194 H 0.90734 0.23089 0.77223 0.0
H2195 H 0.89997 0.24211 0.76523 0.0
H2196 H 0.88827 0.2246 0.77788 0.0
H2197 H 0.94633 0.274 0.82248 0.0
H2198 H 0.93862 0.27984 0.84305 0.0
H2199 H 0.93823 0.28449 0.81506 0.0
C2200 C 0.75271 0.66981 0.73793 0.0
C2201 C 0.74195 0.6736 0.73511 0.0
C2202 C 0.76237 0.67476 0.75584 0.0
C2203 C 0.76101 0.68346 0.77163 0.0
C2204 C 0.75054 0.68781 0.76847 0.0
C2205 C 0.74121 0.68295 0.75007 0.0
C2206 C 0.77359 0.67014 0.75833 0.0
C2207 C 0.74861 0.69689 0.7851 0.0
C2208 C 0.77254 0.67883 0.82802 0.0
C2209 C 0.78655 0.69148 0.83034 0.0
C2210 C 0.76392 0.67639 0.80931 0.0
C2211 C 0.76957 0.68673 0.79229 0.0
C2212 C 0.78368 0.69962 0.79462 0.0
C2213 C 0.79196 0.70192 0.81377 0.0
C2214 C 0.74883 0.66262 0.80763 0.0
C2215 C 0.79019 0.71075 0.77668 0.0
H2216 H 0.75343 0.66273 0.72624 0.0
H2217 H 0.73286 0.68585 0.74796 0.0
H2218 H 0.78471 0.67973 0.76209 0.0
H2219 H 0.77048 0.66238 0.77203 0.0
H2220 H 0.77433 0.66475 0.74354 0.0
H2221 H 0.74104 0.70053 0.7793 0.0
H2222 H 0.744 0.69038 0.80006 0.0
H2223 H 0.75946 0.70665 0.78948 0.0
H2224 H 0.76826 0.67088 0.84101 0.0
H2225 H 0.80282 0.71171 0.8156 0.0
H2226 H 0.74874 0.65561 0.79447 0.0
H2227 H 0.7403 0.66536 0.8035 0.0
H2228 H 0.74564 0.65621 0.82289 0.0
H2229 H 0.7919 0.70574 0.76226 0.0
H2230 H 0.80096 0.72052 0.78143 0.0
H2231 H 0.78241 0.71431 0.77182 0.0
C2232 C 0.7267 0.64618 0.61485 0.0
C2233 C 0.72426 0.65682 0.62345 0.0
C2234 C 0.73187 0.64736 0.59379 0.0
C2235 C 0.73467 0.65947 0.5809 0.0
C2236 C 0.73212 0.67021 0.58933 0.0
C2237 C 0.72694 0.66876 0.61054 0.0
C2238 C 0.73443 0.63566 0.58538 0.0
C2239 C 0.73498 0.68326 0.576 0.0
C2240 C 0.76107 0.66777 0.53466 0.0
C2241 C 0.75122 0.66075 0.5173 0.0
C2242 C 0.75585 0.66789 0.55532 0.0
C2243 C 0.7404 0.66084 0.55867 0.0
C2244 C 0.73042 0.65411 0.54108 0.0
C2245 C 0.73595 0.65412 0.52061 0.0
C2246 C 0.76684 0.67512 0.5737 0.0
C2247 C 0.71388 0.64653 0.54401 0.0
H2248 H 0.72465 0.63689 0.62464 0.0
H2249 H 0.72508 0.67703 0.61704 0.0
H2250 H 0.72766 0.63067 0.57054 0.0
H2251 H 0.74621 0.64057 0.58094 0.0
H2252 H 0.73159 0.62687 0.59743 0.0
H2253 H 0.73219 0.6905 0.58477 0.0
H2254 H 0.74682 0.68972 0.57146 0.0
H2255 H 0.72837 0.67958 0.56076 0.0
H2256 H 0.77288 0.67281 0.53222 0.0
H2257 H 0.7283 0.6489 0.50716 0.0
H2258 H 0.76544 0.66674 0.58567 0.0
H2259 H 0.76478 0.68296 0.58219 0.0
H2260 H 0.77848 0.68102 0.56811 0.0
H2261 H 0.7101 0.63694 0.55479 0.0
H2262 H 0.70768 0.64274 0.52843 0.0
H2263 H 0.71102 0.65399 0.55189 0.0
C2264 C 0.31966 0.07463 0.61831 0.0
C2265 C 0.32809 0.06911 0.62714 0.0
C2266 C 0.3236 0.08244 0.59882 0.0
C2267 C 0.33626 0.08477 0.58775 0.0
C2268 C 0.34503 0.07951 0.59675 0.0
C2269 C 0.34085 0.07176 0.61637 0.0
C2270 C 0.31399 0.08791 0.58982 0.0
C2271 C 0.35859 0.08177 0.58537 0.0
C2272 C 0.33529 0.09055 0.52735 0.0
C2273 C 0.34389 0.10582 0.52566 0.0
C2274 C 0.33316 0.08355 0.54737 0.0
C2275 C 0.33976 0.09202 0.56622 0.0
C2276 C 0.34882 0.10741 0.56456 0.0
C2277 C 0.35081 0.11414 0.54427 0.0
C2278 C 0.3235 0.06711 0.54841 0.0
C2279 C 0.35602 0.1168 0.58431 0.0
H2280 H 0.30984 0.07275 0.62654 0.0
H2281 H 0.34744 0.06756 0.62307 0.0
H2282 H 0.3208 0.09982 0.58666 0.0
H2283 H 0.30898 0.08246 0.57416 0.0
H2284 H 0.30493 0.08581 0.60093 0.0
H2285 H 0.36469 0.07775 0.59507 0.0
H2286 H 0.3553 0.07594 0.56966 0.0
H2287 H 0.36621 0.09354 0.58185 0.0
H2288 H 0.33016 0.08405 0.51295 0.0
H2289 H 0.35742 0.12594 0.54306 0.0
H2290 H 0.31349 0.06397 0.55798 0.0
H2291 H 0.32952 0.06247 0.55671 0.0
H2292 H 0.31992 0.06207 0.53212 0.0
H2293 H 0.34735 0.11598 0.59514 0.0
H2294 H 0.36361 0.12847 0.5801 0.0
H2295 H 0.36235 0.11287 0.59356 0.0
C2296 C 0.93583 0.26192 0.62255 0.0
C2297 C 0.94083 0.27509 0.6336 0.0
C2298 C 0.92709 0.2585 0.60374 0.0
C2299 C 0.92316 0.26845 0.59576 0.0
C2300 C 0.92789 0.28164 0.60702 0.0
C2301 C 0.93672 0.28484 0.62579 0.0
C2302 C 0.92234 0.24434 0.59214 0.0
C2303 C 0.92382 0.29247 0.59905 0.0
C2304 C 0.91467 0.26462 0.53569 0.0
C2305 C 0.8992 0.25545 0.53527 0.0
C2306 C 0.92255 0.26954 0.55528 0.0
C2307 C 0.91477 0.26527 0.57498 0.0
C2308 C 0.89909 0.25675 0.57464 0.0
C2309 C 0.89147 0.25192 0.55475 0.0
C2310 C 0.93926 0.27866 0.5549 0.0
C2311 C 0.8904 0.25207 0.59532 0.0
H2312 H 0.93891 0.25429 0.62844 0.0
H2313 H 0.94046 0.29501 0.63427 0.0
H2314 H 0.91011 0.23786 0.59021 0.0
H2315 H 0.9271 0.24669 0.57569 0.0
H2316 H 0.92593 0.23757 0.60084 0.0
H2317 H 0.92761 0.30179 0.61034 0.0
H2318 H 0.92886 0.2968 0.58305 0.0
H2319 H 0.91164 0.28699 0.59683 0.0
H2320 H 0.92068 0.26763 0.52063 0.0
H2321 H 0.87952 0.24481 0.55453 0.0
H2322 H 0.94391 0.27226 0.56179 0.0
H2323 H 0.9434 0.28855 0.56505 0.0
H2324 H 0.94355 0.2821 0.53827 0.0
H2325 H 0.89221 0.24396 0.6038 0.0
H2326 H 0.87833 0.24707 0.59229 0.0
H2327 H 0.89429 0.26154 0.60633 0.0
C2328 C 0.33631 0.27002 0.60715 0.0
C2329 C 0.34965 0.2751 0.61868 0.0
C2330 C 0.33389 0.26305 0.58702 0.0
C2331 C 0.3451 0.2612 0.57822 0.0
C2332 C 0.35853 0.26625 0.58983 0.0
C2333 C 0.36063 0.27309 0.60988 0.0
C2334 C 0.3194 0.25776 0.57512 0.0
C2335 C 0.3708 0.26456 0.58096 0.0
C2336 C 0.33731 0.23324 0.53461 0.0
C2337 C 0.34267 0.2421 0.51617 0.0
C2338 C 0.33744 0.2392 0.55481 0.0
C2339 C 0.34309 0.25437 0.5566 0.0
C2340 C 0.34799 0.26327 0.5379 0.0
C2341 C 0.34769 0.25702 0.51793 0.0
C2342 C 0.33209 0.22936 0.57439 0.0
C2343 C 0.35407 0.27949 0.53911 0.0
H2344 H 0.32775 0.27147 0.61384 0.0
H2345 H 0.37099 0.27697 0.61861 0.0
H2346 H 0.32146 0.26342 0.55932 0.0
H2347 H 0.31396 0.2459 0.57171 0.0
H2348 H 0.31166 0.25967 0.58441 0.0
H2349 H 0.38049 0.26887 0.59217 0.0
H2350 H 0.36664 0.25287 0.5778 0.0
H2351 H 0.37457 0.27042 0.56532 0.0
H2352 H 0.33349 0.22172 0.5334 0.0
H2353 H 0.35154 0.26388 0.50366 0.0
H2354 H 0.32404 0.23093 0.58343 0.0
H2355 H 0.34158 0.23224 0.58547 0.0
H2356 H 0.32676 0.21764 0.56999 0.0
H2357 H 0.34611 0.28162 0.54728 0.0
H2358 H 0.35647 0.28469 0.52288 0.0
H2359 H 0.36447 0.28483 0.54888 0.0
C2360 C 0.71916 0.08079 0.61608 0.0
C2361 C 0.71695 0.06775 0.62508 0.0
C2362 C 0.72774 0.08686 0.59756 0.0
C2363 C 0.73435 0.07977 0.58784 0.0
C2364 C 0.7319 0.06643 0.59652 0.0
C2365 C 0.72318 0.06055 0.615 0.0
C2366 C 0.72998 0.10102 0.58865 0.0
C2367 C 0.73882 0.05859 0.5866 0.0
C2368 C 0.74766 0.08996 0.53011 0.0
C2369 C 0.76284 0.10001 0.53326 0.0
C2370 C 0.73825 0.08324 0.54771 0.0
C2371 C 0.74419 0.08657 0.56898 0.0
C2372 C 0.75951 0.09664 0.57229 0.0
C2373 C 0.76864 0.10328 0.5544 0.0
C2374 C 0.72196 0.07258 0.54355 0.0
C2375 C 0.76625 0.10048 0.59475 0.0
H2376 H 0.71433 0.0864 0.62368 0.0
H2377 H 0.72155 0.05049 0.62186 0.0
H2378 H 0.74189 0.10965 0.58961 0.0
H2379 H 0.72661 0.09969 0.57134 0.0
H2380 H 0.72355 0.10483 0.59755 0.0
H2381 H 0.73537 0.04805 0.59479 0.0
H2382 H 0.73572 0.05643 0.56923 0.0
H2383 H 0.75106 0.0656 0.58761 0.0
H2384 H 0.74313 0.08717 0.51382 0.0
H2385 H 0.78032 0.11115 0.55699 0.0
H2386 H 0.7153 0.07642 0.55161 0.0
H2387 H 0.7187 0.06177 0.55055 0.0
H2388 H 0.7191 0.07118 0.52603 0.0
H2389 H 0.76111 0.10544 0.60412 0.0
H2390 H 0.77842 0.10824 0.59454 0.0
H2391 H 0.76398 0.09043 0.60344 0.0
C2392 C 0.92892 0.6847 0.6197 0.0
C2393 C 0.93726 0.67806 0.62291 0.0
C2394 C 0.91903 0.68084 0.60213 0.0
C2395 C 0.91766 0.6703 0.58712 0.0
C2396 C 0.92587 0.66338 0.59044 0.0
C2397 C 0.93546 0.66723 0.60845 0.0
C2398 C 0.91025 0.68825 0.59943 0.0
C2399 C 0.92488 0.65226 0.57459 0.0
C2400 C 0.88439 0.65282 0.5487 0.0
C2401 C 0.89022 0.66152 0.53021 0.0
C2402 C 0.89316 0.65557 0.56742 0.0
C2403 C 0.90818 0.6671 0.56743 0.0
C2404 C 0.91413 0.67583 0.5487 0.0
C2405 C 0.90503 0.67301 0.53039 0.0
C2406 C 0.88634 0.64622 0.58721 0.0
C2407 C 0.93015 0.68807 0.54793 0.0
H2408 H 0.93013 0.69296 0.63095 0.0
H2409 H 0.94192 0.6621 0.61082 0.0
H2410 H 0.91369 0.69497 0.58451 0.0
H2411 H 0.89828 0.67997 0.59762 0.0
H2412 H 0.9118 0.69543 0.61334 0.0
H2413 H 0.93159 0.64752 0.57987 0.0
H2414 H 0.9132 0.64328 0.57245 0.0
H2415 H 0.92882 0.65747 0.55856 0.0
H2416 H 0.87292 0.64394 0.54855 0.0
H2417 H 0.90961 0.6796 0.51598 0.0
H2418 H 0.88728 0.65319 0.60104 0.0
H2419 H 0.89243 0.64072 0.59181 0.0
H2420 H 0.87448 0.63777 0.58461 0.0
H2421 H 0.93235 0.69638 0.56038 0.0
H2422 H 0.93317 0.69352 0.5319 0.0
H2423 H 0.93748 0.68377 0.55167 0.0
C2424 C 0.95763 0.69851 0.74951 0.0
C2425 C 0.95249 0.68666 0.73534 0.0
C2426 C 0.95139 0.69676 0.76995 0.0
C2427 C 0.93944 0.68289 0.77612 0.0
C2428 C 0.93438 0.6708 0.76204 0.0
C2429 C 0.94113 0.67279 0.74187 0.0
C2430 C 0.95739 0.70984 0.78472 0.0
C2431 C 0.92146 0.65593 0.76788 0.0
C2432 C 0.93037 0.67763 0.83587 0.0
C2433 C 0.91976 0.68168 0.83696 0.0
C2434 C 0.93663 0.67758 0.81605 0.0
C2435 C 0.93187 0.68135 0.7969 0.0
C2436 C 0.92066 0.68482 0.79787 0.0
C2437 C 0.91488 0.68514 0.81798 0.0
C2438 C 0.94881 0.67418 0.81576 0.0
C2439 C 0.91506 0.68858 0.77776 0.0
H2440 H 0.96651 0.70922 0.74453 0.0
H2441 H 0.93709 0.66365 0.73083 0.0
H2442 H 0.94885 0.71276 0.787 0.0
H2443 H 0.96008 0.7072 0.80089 0.0
H2444 H 0.96749 0.71953 0.77822 0.0
H2445 H 0.91939 0.6475 0.75568 0.0
H2446 H 0.92343 0.65243 0.78386 0.0
H2447 H 0.91132 0.6565 0.76922 0.0
H2448 H 0.93419 0.67506 0.85066 0.0
H2449 H 0.9066 0.68819 0.81892 0.0
H2450 H 0.95933 0.68408 0.81088 0.0
H2451 H 0.94624 0.66556 0.80368 0.0
H2452 H 0.95054 0.67053 0.8318 0.0
H2453 H 0.92397 0.69911 0.77108 0.0
H2454 H 0.9053 0.68956 0.781 0.0
H2455 H 0.91197 0.68013 0.76516 0.0
C2456 C 0.32843 0.26621 0.74313 0.0
C2457 C 0.342 0.27035 0.73347 0.0
C2458 C 0.32441 0.25852 0.76284 0.0
C2459 C 0.33418 0.25492 0.77308 0.0
C2460 C 0.34768 0.25875 0.7631 0.0
C2461 C 0.35141 0.26638 0.74348 0.0
C2462 C 0.3099 0.25458 0.77298 0.0
C2463 C 0.35842 0.25511 0.77344 0.0
C2464 C 0.33512 0.25019 0.83372 0.0
C2465 C 0.32867 0.23503 0.83566 0.0
C2466 C 0.33629 0.25673 0.81354 0.0
C2467 C 0.33087 0.2479 0.79479 0.0
C2468 C 0.3237 0.23252 0.79674 0.0
C2469 C 0.32268 0.22626 0.81718 0.0
C2470 C 0.34395 0.27317 0.8122 0.0
C2471 C 0.31775 0.22274 0.77713 0.0
H2472 H 0.32107 0.26918 0.7355 0.0
H2473 H 0.36187 0.26943 0.73614 0.0
H2474 H 0.30342 0.24275 0.77685 0.0
H2475 H 0.31205 0.26059 0.78843 0.0
H2476 H 0.30308 0.25723 0.76228 0.0
H2477 H 0.36816 0.25829 0.76313 0.0
H2478 H 0.36244 0.26085 0.78918 0.0
H2479 H 0.35279 0.24322 0.77675 0.0
H2480 H 0.33947 0.257 0.84802 0.0
H2481 H 0.31772 0.21454 0.81856 0.0
H2482 H 0.33702 0.27636 0.8029 0.0
H2483 H 0.35455 0.27759 0.80351 0.0
H2484 H 0.34637 0.27835 0.82842 0.0
H2485 H 0.31088 0.22559 0.76696 0.0
H2486 H 0.31099 0.211 0.78159 0.0
H2487 H 0.32712 0.22438 0.76712 0.0
C2488 C 0.72737 0.0744 0.74893 0.0
C2489 C 0.72279 0.06143 0.73752 0.0
C2490 C 0.73642 0.07804 0.76743 0.0
C2491 C 0.74105 0.06849 0.7748 0.0
C2492 C 0.73666 0.05547 0.76326 0.0
C2493 C 0.72755 0.05207 0.74475 0.0
C2494 C 0.74082 0.09202 0.77931 0.0
C2495 C 0.74142 0.04505 0.77064 0.0
C2496 C 0.77361 0.08628 0.81422 0.0
C2497 C 0.76632 0.08264 0.83409 0.0
C2498 C 0.76559 0.08106 0.7947 0.0
C2499 C 0.74995 0.072 0.79514 0.0
C2500 C 0.74266 0.06761 0.81522 0.0
C2501 C 0.75093 0.07298 0.83444 0.0
C2502 C 0.77376 0.08592 0.77361 0.0
C2503 C 0.72602 0.05791 0.81643 0.0
H2504 H 0.72381 0.08175 0.7435 0.0
H2505 H 0.72411 0.04206 0.73601 0.0
H2506 H 0.73642 0.08947 0.79597 0.0
H2507 H 0.75306 0.09892 0.78069 0.0
H2508 H 0.73663 0.09845 0.77111 0.0
H2509 H 0.73763 0.03572 0.75934 0.0
H2510 H 0.75367 0.0509 0.77214 0.0
H2511 H 0.73689 0.0407 0.78687 0.0
H2512 H 0.78549 0.09376 0.81387 0.0
H2513 H 0.74529 0.06991 0.8498 0.0
H2514 H 0.77133 0.09371 0.76544 0.0
H2515 H 0.76998 0.07647 0.76261 0.0
H2516 H 0.78594 0.09137 0.77601 0.0
H2517 H 0.72078 0.06392 0.81018 0.0
H2518 H 0.72222 0.05432 0.83322 0.0
H2519 H 0.72202 0.0481 0.80614 0.0
C2520 C 0.0307 0.3638 0.03339 0.0
C2521 C 0.03336 0.37338 0.0161 0.0
C2522 C 0.04088 0.35966 0.03914 0.0
C2523 C 0.05413 0.36525 0.02735 0.0
C2524 C 0.05691 0.37489 0.00983 0.0
C2525 C 0.04647 0.37883 0.00438 0.0
C2526 C 0.03747 0.34933 0.05791 0.0
C2527 C 0.07093 0.38109 0.99694 0.0
C2528 C 0.0846 0.36379 0.0583 0.0
C2529 C 0.08287 0.35066 0.05079 0.0
C2530 C 0.07587 0.3691 0.04995 0.0
C2531 C 0.06507 0.36106 0.03376 0.0
C2532 C 0.06379 0.3482 0.02532 0.0
C2533 C 0.07272 0.34317 0.0339 0.0
C2534 C 0.07763 0.38288 0.05936 0.0
C2535 C 0.05245 0.33934 0.008 0.0
H2536 H 0.0206 0.35948 0.04254 0.0
H2537 H 0.04863 0.38623 0.99099 0.0
H2538 H 0.03742 0.33946 0.05248 0.0
H2539 H 0.04621 0.35466 0.0706 0.0
H2540 H 0.0266 0.34582 0.06525 0.0
H2541 H 0.07134 0.38829 0.9836 0.0
H2542 H 0.08071 0.38747 0.0077 0.0
H2543 H 0.07185 0.3721 0.98996 0.0
H2544 H 0.09227 0.36958 0.07152 0.0
H2545 H 0.07147 0.33314 0.02777 0.0
H2546 H 0.06772 0.3801 0.06896 0.0
H2547 H 0.07846 0.3904 0.04628 0.0
H2548 H 0.08758 0.38871 0.07003 0.0
H2549 H 0.04116 0.33433 0.01474 0.0
H2550 H 0.05386 0.33049 0.00162 0.0
H2551 H 0.05316 0.34646 0.99438 0.0
C2552 C 0.65309 0.67857 0.04215 0.0
C2553 C 0.64055 0.66893 0.02974 0.0
C2554 C 0.65606 0.69254 0.04754 0.0
C2555 C 0.64625 0.69703 0.04039 0.0
C2556 C 0.63364 0.68742 0.02769 0.0
C2557 C 0.63095 0.67349 0.02251 0.0
C2558 C 0.66963 0.70245 0.06109 0.0
C2559 C 0.62291 0.69181 0.01982 0.0
C2560 C 0.64703 0.72706 0.0736 0.0
C2561 C 0.65626 0.73957 0.06134 0.0
C2562 C 0.64331 0.71311 0.06661 0.0
C2563 C 0.64899 0.7116 0.04689 0.0
C2564 C 0.65796 0.72411 0.03411 0.0
C2565 C 0.66149 0.73795 0.04149 0.0
C2566 C 0.63372 0.70006 0.08075 0.0
C2567 C 0.66419 0.72293 0.01296 0.0
H2568 H 0.66062 0.67519 0.04776 0.0
H2569 H 0.62125 0.66614 0.01288 0.0
H2570 H 0.6767 0.71293 0.05251 0.0
H2571 H 0.66628 0.70506 0.07651 0.0
H2572 H 0.67636 0.69747 0.06489 0.0
H2573 H 0.61389 0.68327 0.00954 0.0
H2574 H 0.61789 0.69395 0.03383 0.0
H2575 H 0.62886 0.7021 0.01039 0.0
H2576 H 0.64314 0.72819 0.08914 0.0
H2577 H 0.66849 0.74753 0.0318 0.0
H2578 H 0.64024 0.69529 0.08677 0.0
H2579 H 0.62422 0.69148 0.07125 0.0
H2580 H 0.62939 0.70295 0.09487 0.0
H2581 H 0.67194 0.71903 0.01599 0.0
H2582 H 0.67022 0.73355 0.0043 0.0
H2583 H 0.65516 0.7148 0.00229 0.0
C2584 C 0.31725 0.97296 0.02775 0.0
C2585 C 0.32493 0.96593 0.03341 0.0
C2586 C 0.302 0.96631 0.0317 0.0
C2587 C 0.29436 0.95245 0.04182 0.0
C2588 C 0.3021 0.94537 0.04764 0.0
C2589 C 0.31722 0.95214 0.04324 0.0
C2590 C 0.29407 0.97407 0.02501 0.0
C2591 C 0.29443 0.93066 0.05874 0.0
C2592 C 0.25952 0.93781 0.07442 0.0
C2593 C 0.24921 0.92626 0.06127 0.0
C2594 C 0.27407 0.94729 0.06754 0.0
C2595 C 0.27835 0.94524 0.04694 0.0
C2596 C 0.26759 0.93452 0.03278 0.0
C2597 C 0.25315 0.92506 0.04019 0.0
C2598 C 0.28518 0.95851 0.08321 0.0
C2599 C 0.27162 0.93219 0.01051 0.0
H2600 H 0.32313 0.98358 0.02005 0.0
H2601 H 0.32306 0.94666 0.04777 0.0
H2602 H 0.28473 0.96706 0.01385 0.0
H2603 H 0.28927 0.97613 0.03938 0.0
H2604 H 0.30153 0.98466 0.01689 0.0
H2605 H 0.30208 0.92671 0.0624 0.0
H2606 H 0.28953 0.93131 0.0741 0.0
H2607 H 0.28524 0.92244 0.04837 0.0
H2608 H 0.2566 0.93871 0.09081 0.0
H2609 H 0.24516 0.91623 0.02991 0.0
H2610 H 0.29234 0.96911 0.075 0.0
H2611 H 0.29247 0.95473 0.08967 0.0
H2612 H 0.27972 0.96029 0.09704 0.0
H2613 H 0.27883 0.9428 0.00233 0.0
H2614 H 0.26164 0.92542 0.00022 0.0
H2615 H 0.2779 0.92654 0.01193 0.0
C2616 C 0.35967 0.04329 0.03187 0.0
C2617 C 0.36625 0.03773 0.0186 0.0
C2618 C 0.35873 0.0554 0.0254 0.0
C2619 C 0.36444 0.06205 0.00515 0.0
C2620 C 0.37133 0.05664 0.99187 0.0
C2621 C 0.37218 0.04459 0.99877 0.0
C2622 C 0.3514 0.0609 0.04007 0.0
C2623 C 0.37752 0.0634 0.97012 0.0
C2624 C 0.3496 0.08314 0.97566 0.0
C2625 C 0.36121 0.09764 0.97863 0.0
C2626 C 0.35028 0.07148 0.98485 0.0
C2627 C 0.36284 0.07437 0.99739 0.0
C2628 C 0.37429 0.08901 0.00125 0.0
C2629 C 0.37336 0.10047 0.99177 0.0
C2630 C 0.33786 0.05603 0.98027 0.0
C2631 C 0.38779 0.09256 0.01473 0.0
H2632 H 0.35508 0.03809 0.04724 0.0
H2633 H 0.37729 0.04039 0.98839 0.0
H2634 H 0.35897 0.07273 0.04329 0.0
H2635 H 0.34133 0.05959 0.03201 0.0
H2636 H 0.34818 0.055 0.05575 0.0
H2637 H 0.38284 0.05813 0.96197 0.0
H2638 H 0.36852 0.06245 0.95946 0.0
H2639 H 0.38583 0.07521 0.97203 0.0
H2640 H 0.34027 0.08085 0.9653 0.0
H2641 H 0.38229 0.11166 0.99431 0.0
H2642 H 0.33377 0.04982 0.99557 0.0
H2643 H 0.34204 0.0504 0.97032 0.0
H2644 H 0.32841 0.05565 0.97152 0.0
H2645 H 0.38443 0.08682 0.03051 0.0
H2646 H 0.39508 0.10447 0.01773 0.0
H2647 H 0.39429 0.08865 0.00634 0.0
C2648 C 0.93872 0.32733 6e-05 0.0
C2649 C 0.95283 0.33318 0.00953 0.0
C2650 C 0.93018 0.31252 0.99441 0.0
C2651 C 0.93573 0.30323 0.99872 0.0
C2652 C 0.94968 0.30892 0.00916 0.0
C2653 C 0.95815 0.32387 0.01423 0.0
C2654 C 0.91545 0.30694 0.98301 0.0
C2655 C 0.95582 0.29929 0.01445 0.0
C2656 C 0.90642 0.2629 0.9942 0.0
C2657 C 0.90847 0.25988 0.97297 0.0
C2658 C 0.91584 0.27674 0.00339 0.0
C2659 C 0.92732 0.28787 0.99085 0.0
C2660 C 0.92983 0.28464 0.96976 0.0
C2661 C 0.92044 0.27066 0.96115 0.0
C2662 C 0.91305 0.27966 0.02612 0.0
C2663 C 0.9418 0.29623 0.95571 0.0
H2664 H 0.93456 0.33445 0.99631 0.0
H2665 H 0.969 0.3283 0.0217 0.0
H2666 H 0.9158 0.30304 0.9666 0.0
H2667 H 0.90652 0.29752 0.99192 0.0
H2668 H 0.91252 0.31547 0.98142 0.0
H2669 H 0.96607 0.30502 0.02455 0.0
H2670 H 0.94746 0.28933 0.02311 0.0
H2671 H 0.95841 0.29567 0.99928 0.0
H2672 H 0.8972 0.25455 0.00338 0.0
H2673 H 0.92193 0.26843 0.94462 0.0
H2674 H 0.9084 0.28685 0.02562 0.0
H2675 H 0.92358 0.28543 0.03555 0.0
H2676 H 0.90515 0.26943 0.03472 0.0
H2677 H 0.93913 0.30473 0.9518 0.0
H2678 H 0.943 0.29169 0.94032 0.0
H2679 H 0.95261 0.30168 0.96444 0.0
C2680 C 0.69832 0.63359 0.01013 0.0
C2681 C 0.69003 0.64039 0.01107 0.0
C2682 C 0.71299 0.64119 0.00305 0.0
C2683 C 0.71957 0.65597 0.99664 0.0
C2684 C 0.71156 0.66315 0.99863 0.0
C2685 C 0.69688 0.65527 0.00589 0.0
C2686 C 0.72118 0.63316 0.00133 0.0
C2687 C 0.71821 0.6789 0.99197 0.0
C2688 C 0.7611 0.67659 0.98692 0.0
C2689 C 0.76146 0.67451 0.96464 0.0
C2690 C 0.74754 0.671 0.99758 0.0
C2691 C 0.7341 0.66325 0.9856 0.0
C2692 C 0.73446 0.66158 0.96299 0.0
C2693 C 0.74812 0.66721 0.95282 0.0
C2694 C 0.74757 0.67298 0.02171 0.0
C2695 C 0.7204 0.65349 0.94957 0.0
H2696 H 0.69319 0.62214 0.01435 0.0
H2697 H 0.69058 0.66063 0.00663 0.0
H2698 H 0.72282 0.63177 0.98404 0.0
H2699 H 0.7323 0.63956 0.00905 0.0
H2700 H 0.71508 0.62219 0.00899 0.0
H2701 H 0.71133 0.68339 0.99703 0.0
H2702 H 0.7295 0.68574 0.99902 0.0
H2703 H 0.71926 0.67978 0.97413 0.0
H2704 H 0.7714 0.68223 0.9961 0.0
H2705 H 0.74837 0.66586 0.93551 0.0
H2706 H 0.7427 0.66221 0.02983 0.0
H2707 H 0.74061 0.67756 0.02577 0.0
H2708 H 0.75892 0.68029 0.02836 0.0
H2709 H 0.71391 0.64189 0.95474 0.0
H2710 H 0.72263 0.65383 0.93202 0.0
H2711 H 0.7134 0.65824 0.95211 0.0
C2712 C 0.97476 0.65084 0.02932 0.0
C2713 C 0.97562 0.63996 0.01816 0.0
C2714 C 0.96476 0.65507 0.02274 0.0
C2715 C 0.95532 0.64821 0.00465 0.0
C2716 C 0.95547 0.63657 0.9942 0.0
C2717 C 0.96564 0.63262 0.00104 0.0
C2718 C 0.96498 0.66754 0.0343 0.0
C2719 C 0.94549 0.62888 0.97497 0.0
C2720 C 0.92419 0.6553 0.99181 0.0
C2721 C 0.93073 0.6662 0.97592 0.0
C2722 C 0.93203 0.64932 0.00142 0.0
C2723 C 0.94674 0.65438 0.995 0.0
C2724 C 0.95338 0.6654 0.97904 0.0
C2725 C 0.94529 0.67109 0.96965 0.0
C2726 C 0.92458 0.63755 0.01833 0.0
C2727 C 0.96903 0.67112 0.9717 0.0
H2728 H 0.98237 0.65654 0.04263 0.0
H2729 H 0.96612 0.62411 0.99243 0.0
H2730 H 0.96984 0.67727 0.02361 0.0
H2731 H 0.95356 0.66469 0.03809 0.0
H2732 H 0.97161 0.67052 0.04955 0.0
H2733 H 0.9456 0.61893 0.9704 0.0
H2734 H 0.93393 0.62573 0.97842 0.0
H2735 H 0.94918 0.6364 0.96091 0.0
H2736 H 0.91299 0.65151 0.99683 0.0
H2737 H 0.95033 0.67922 0.95701 0.0
H2738 H 0.93108 0.64111 0.03367 0.0
H2739 H 0.92419 0.6275 0.01301 0.0
H2740 H 0.91311 0.63483 0.02158 0.0
H2741 H 0.9768 0.67544 0.98573 0.0
H2742 H 0.97268 0.67993 0.95945 0.0
H2743 H 0.96987 0.6621 0.96462 0.0
C2744 C 0.36867 0.32418 0.02324 0.0
C2745 C 0.36385 0.33189 0.01059 0.0
C2746 C 0.36578 0.31038 0.01681 0.0
C2747 C 0.35776 0.30407 0.99739 0.0
C2748 C 0.35288 0.31181 0.98456 0.0
C2749 C 0.35605 0.32563 0.99125 0.0
C2750 C 0.37131 0.30253 0.03078 0.0
C2751 C 0.34419 0.30542 0.96381 0.0
C2752 C 0.35994 0.2744 0.96762 0.0
C2753 C 0.34648 0.26182 0.97317 0.0
C2754 C 0.36405 0.28813 0.97612 0.0
C2755 C 0.3544 0.28938 0.99033 0.0
C2756 C 0.34106 0.27668 0.99661 0.0
C2757 C 0.3373 0.26306 0.98806 0.0
C2758 C 0.37843 0.30139 0.96916 0.0
C2759 C 0.33046 0.27756 0.01171 0.0
H2760 H 0.37475 0.32895 0.03817 0.0
H2761 H 0.35222 0.33146 0.9814 0.0
H2762 H 0.36184 0.29191 0.03621 0.0
H2763 H 0.37862 0.30015 0.02127 0.0
H2764 H 0.37756 0.309 0.04526 0.0
H2765 H 0.34112 0.3128 0.95577 0.0
H2766 H 0.35079 0.30321 0.95241 0.0
H2767 H 0.33391 0.29484 0.96718 0.0
H2768 H 0.36703 0.27365 0.95592 0.0
H2769 H 0.32701 0.25339 0.99275 0.0
H2770 H 0.38493 0.30784 0.98347 0.0
H2771 H 0.37607 0.30856 0.95905 0.0
H2772 H 0.38533 0.29842 0.95969 0.0
H2773 H 0.33632 0.28338 0.02677 0.0
H2774 H 0.32099 0.2666 0.01604 0.0
H2775 H 0.32604 0.28391 0.00395 0.0
C2776 C 0.67819 0.05187 0.98813 0.0
C2777 C 0.67158 0.03898 0.00035 0.0
C2778 C 0.69325 0.05909 0.98294 0.0
C2779 C 0.702 0.05347 0.99057 0.0
C2780 C 0.69549 0.04067 0.00344 0.0
C2781 C 0.68029 0.03347 0.00796 0.0
C2782 C 0.69969 0.07253 0.96879 0.0
C2783 C 0.70455 0.03454 0.01226 0.0
C2784 C 0.73606 0.0641 0.95754 0.0
C2785 C 0.74701 0.07647 0.96866 0.0
C2786 C 0.72145 0.05621 0.96491 0.0
C2787 C 0.71778 0.06066 0.9841 0.0
C2788 C 0.72897 0.07272 0.99599 0.0
C2789 C 0.74344 0.08062 0.98795 0.0
C2790 C 0.70981 0.04363 0.9515 0.0
C2791 C 0.72554 0.07757 0.01678 0.0
H2792 H 0.6715 0.05614 0.98211 0.0
H2793 H 0.67526 0.02358 0.0176 0.0
H2794 H 0.70912 0.08193 0.97723 0.0
H2795 H 0.70403 0.07062 0.95376 0.0
H2796 H 0.6914 0.07553 0.96428 0.0
H2797 H 0.69804 0.02506 0.02312 0.0
H2798 H 0.70874 0.03102 0.99874 0.0
H2799 H 0.71434 0.04311 0.02133 0.0
H2800 H 0.73877 0.06101 0.94244 0.0
H2801 H 0.75194 0.09018 0.99655 0.0
H2802 H 0.70167 0.04635 0.9451 0.0
H2803 H 0.70365 0.0337 0.96162 0.0
H2804 H 0.71464 0.04105 0.93766 0.0
H2805 H 0.71847 0.08219 0.01326 0.0
H2806 H 0.73574 0.08599 0.02534 0.0
H2807 H 0.71926 0.0681 0.02773 0.0
C2808 C 0.65111 0.96863 0.0215 0.0
C2809 C 0.63772 0.96824 0.01878 0.0
C2810 C 0.65131 0.95606 0.02732 0.0
C2811 C 0.63778 0.94267 0.03014 0.0
C2812 C 0.6242 0.94207 0.02671 0.0
C2813 C 0.62432 0.95491 0.02127 0.0
C2814 C 0.66605 0.95724 0.03112 0.0
C2815 C 0.60956 0.92794 0.02914 0.0
C2816 C 0.64238 0.9098 0.03063 0.0
C2817 C 0.64337 0.90778 0.05288 0.0
C2818 C 0.63956 0.92051 0.02292 0.0
C2819 C 0.63803 0.92959 0.03782 0.0
C2820 C 0.63833 0.92711 0.06029 0.0
C2821 C 0.64089 0.91617 0.06753 0.0
C2822 C 0.63898 0.92259 0.99885 0.0
C2823 C 0.63699 0.93668 0.07675 0.0
H2824 H 0.66152 0.97888 0.01968 0.0
H2825 H 0.61393 0.95451 0.01905 0.0
H2826 H 0.66689 0.95433 0.04811 0.0
H2827 H 0.66696 0.94943 0.02059 0.0
H2828 H 0.67557 0.96841 0.0279 0.0
H2829 H 0.60003 0.92904 0.02424 0.0
H2830 H 0.60935 0.91925 0.01923 0.0
H2831 H 0.60812 0.92428 0.04623 0.0
H2832 H 0.64424 0.90328 0.01927 0.0
H2833 H 0.64187 0.9148 0.08474 0.0
H2834 H 0.64911 0.93285 0.99387 0.0
H2835 H 0.62934 0.9236 0.99446 0.0
H2836 H 0.63825 0.91341 0.98954 0.0
H2837 H 0.64682 0.94791 0.07585 0.0
H2838 H 0.63621 0.93257 0.09351 0.0
H2839 H 0.62708 0.93742 0.07321 0.0
C2840 C 0.03772 0.68085 0.03159 0.0
C2841 C 0.04577 0.67558 0.02138 0.0
C2842 C 0.04469 0.6954 0.03864 0.0
C2843 C 0.06001 0.70496 0.035 0.0
C2844 C 0.06799 0.69993 0.02355 0.0
C2845 C 0.06081 0.68525 0.01707 0.0
C2846 C 0.03583 0.70028 0.05107 0.0
C2847 C 0.08426 0.70988 0.01893 0.0
C2848 C 0.07589 0.74555 0.0443 0.0
C2849 C 0.08223 0.74743 0.06499 0.0
C2850 C 0.0689 0.73186 0.03404 0.0
C2851 C 0.06795 0.71974 0.04499 0.0
C2852 C 0.07436 0.72163 0.06589 0.0
C2853 C 0.08153 0.73548 0.07554 0.0
C2854 C 0.06247 0.73031 0.01158 0.0
C2855 C 0.07336 0.70896 0.07829 0.0
H2856 H 0.0261 0.67344 0.035 0.0
H2857 H 0.06706 0.68127 0.00898 0.0
H2858 H 0.03991 0.70263 0.06806 0.0
H2859 H 0.0373 0.71051 0.04411 0.0
H2860 H 0.02381 0.69187 0.05109 0.0
H2861 H 0.0884 0.70482 0.00767 0.0
H2862 H 0.08636 0.72033 0.01185 0.0
H2863 H 0.09074 0.71253 0.03425 0.0
H2864 H 0.07647 0.75482 0.03614 0.0
H2865 H 0.08623 0.73688 0.09168 0.0
H2866 H 0.0503 0.72266 0.01184 0.0
H2867 H 0.06708 0.72561 0.00055 0.0
H2868 H 0.06477 0.74093 0.00487 0.0
H2869 H 0.06157 0.70035 0.08055 0.0
H2870 H 0.07887 0.71227 0.09443 0.0
H2871 H 0.07858 0.70403 0.069 0.0
C2872 C 0.31214 0.34955 0.02615 0.0
C2873 C 0.32118 0.36444 0.03127 0.0
C2874 C 0.29695 0.34179 0.031 0.0
C2875 C 0.29076 0.34908 0.04139 0.0
C2876 C 0.29986 0.36407 0.04664 0.0
C2877 C 0.31489 0.37155 0.04144 0.0
C2878 C 0.28753 0.32585 0.025 0.0
C2879 C 0.29376 0.37226 0.05791 0.0
C2880 C 0.25082 0.33887 0.0418 0.0
C2881 C 0.24717 0.33446 0.06335 0.0
C2882 C 0.26453 0.34222 0.03354 0.0
C2883 C 0.27484 0.34126 0.04727 0.0
C2884 C 0.27058 0.33538 0.06831 0.0
C2885 C 0.25676 0.33201 0.07609 0.0
C2886 C 0.26851 0.34815 0.01086 0.0
C2887 C 0.28121 0.33418 0.0835 0.0
H2888 H 0.3169 0.34399 0.01822 0.0
H2889 H 0.32177 0.38302 0.04556 0.0
H2890 H 0.28255 0.31917 0.03971 0.0
H2891 H 0.27826 0.3241 0.01421 0.0
H2892 H 0.29398 0.32183 0.0167 0.0
H2893 H 0.30237 0.38387 0.061 0.0
H2894 H 0.28477 0.37193 0.04795 0.0
H2895 H 0.28891 0.36697 0.0736 0.0
H2896 H 0.24333 0.34058 0.03181 0.0
H2897 H 0.25406 0.32869 0.0928 0.0
H2898 H 0.27461 0.34374 0.00261 0.0
H2899 H 0.27587 0.36021 0.01153 0.0
H2900 H 0.25853 0.34551 0.00102 0.0
H2901 H 0.28728 0.32983 0.07501 0.0
H2902 H 0.27544 0.32703 0.09756 0.0
H2903 H 0.28953 0.34521 0.08967 0.0
C2904 C 0.69786 0.70407 0.36642 0.0
C2905 C 0.69014 0.69929 0.34664 0.0
C2906 C 0.70883 0.70095 0.37221 0.0
C2907 C 0.71218 0.69286 0.35789 0.0
C2908 C 0.70489 0.68855 0.33751 0.0
C2909 C 0.69396 0.69181 0.33213 0.0
C2910 C 0.71636 0.70577 0.39408 0.0
C2911 C 0.70817 0.67994 0.32177 0.0
C2912 C 0.74698 0.69153 0.36957 0.0
C2913 C 0.74117 0.67832 0.38096 0.0
C2914 C 0.73768 0.69633 0.36159 0.0
C2915 C 0.72223 0.68772 0.36512 0.0
C2916 C 0.7163 0.67428 0.37627 0.0
C2917 C 0.72582 0.66979 0.38409 0.0
C2918 C 0.7444 0.7107 0.3497 0.0
C2919 C 0.6999 0.66478 0.38045 0.0
H2920 H 0.69506 0.70992 0.3777 0.0
H2921 H 0.68813 0.68813 0.31676 0.0
H2922 H 0.71307 0.69604 0.40436 0.0
H2923 H 0.72856 0.71163 0.39237 0.0
H2924 H 0.71344 0.71301 0.40254 0.0
H2925 H 0.70266 0.67867 0.30581 0.0
H2926 H 0.72028 0.68533 0.31935 0.0
H2927 H 0.70429 0.6689 0.32848 0.0
H2928 H 0.75881 0.69815 0.36696 0.0
H2929 H 0.72122 0.65973 0.39327 0.0
H2930 H 0.74242 0.71839 0.35878 0.0
H2931 H 0.73902 0.70908 0.33359 0.0
H2932 H 0.75652 0.71581 0.3475 0.0
H2933 H 0.69625 0.67076 0.39067 0.0
H2934 H 0.69699 0.65439 0.38868 0.0
H2935 H 0.69356 0.66215 0.36499 0.0
C2936 C 0.32583 0.02126 0.34217 0.0
C2937 C 0.31526 0.00873 0.35324 0.0
C2938 C 0.32919 0.03525 0.34843 0.0
C2939 C 0.32173 0.03675 0.3661 0.0
C2940 C 0.31068 0.02411 0.37686 0.0
C2941 C 0.30761 0.01027 0.37036 0.0
C2942 C 0.34109 0.04845 0.33661 0.0
C2943 C 0.30241 0.02524 0.39569 0.0
C2944 C 0.34144 0.07184 0.39876 0.0
C2945 C 0.33467 0.07937 0.39108 0.0
C2946 C 0.33744 0.05809 0.39056 0.0
C2947 C 0.32626 0.05154 0.37439 0.0
C2948 C 0.31935 0.05903 0.36651 0.0
C2949 C 0.32366 0.07287 0.37492 0.0
C2950 C 0.34509 0.05049 0.39942 0.0
C2951 C 0.30736 0.05238 0.34932 0.0
H2952 H 0.33179 0.0202 0.32891 0.0
H2953 H 0.29935 1.00066 0.37892 0.0
H2954 H 0.33687 0.05553 0.33122 0.0
H2955 H 0.35062 0.05502 0.34771 0.0
H2956 H 0.34512 0.0454 0.32229 0.0
H2957 H 0.2934 0.01436 0.40128 0.0
H2958 H 0.31021 0.03082 0.40941 0.0
H2959 H 0.29755 0.03192 0.39117 0.0
H2960 H 0.3497 0.07656 0.41159 0.0
H2961 H 0.31844 0.07863 0.36877 0.0
H2962 H 0.35018 0.04782 0.38608 0.0
H2963 H 0.33688 0.04004 0.40716 0.0
H2964 H 0.35386 0.05725 0.41153 0.0
H2965 H 0.31162 0.04999 0.33464 0.0
H2966 H 0.30317 0.05965 0.34478 0.0
H2967 H 0.29794 0.04184 0.35515 0.0
C2968 C 0.98834 0.30784 0.37209 0.0
C2969 C 0.99356 0.29998 0.36131 0.0
C2970 C 0.97342 0.30103 0.37812 0.0
C2971 C 0.96351 0.28615 0.37281 0.0
C2972 C 0.96855 0.27854 0.36051 0.0
C2973 C 0.98354 0.2855 0.35513 0.0
C2974 C 0.96853 0.30946 0.39147 0.0
C2975 C 0.95829 0.26277 0.35411 0.0
C2976 C 0.93241 0.26196 0.41076 0.0
C2977 C 0.92005 0.26076 0.40007 0.0
C2978 C 0.94663 0.27056 0.40233 0.0
C2979 C 0.94853 0.27795 0.38247 0.0
C2980 C 0.93609 0.27689 0.37164 0.0
C2981 C 0.92196 0.2684 0.38073 0.0
C2982 C 0.95961 0.27159 0.4146 0.0
C2983 C 0.93767 0.28442 0.35027 0.0
H2984 H 0.99606 0.31904 0.3769 0.0
H2985 H 0.98751 0.27945 0.3465 0.0
H2986 H 0.95794 0.30792 0.38508 0.0
H2987 H 0.96656 0.30527 0.4083 0.0
H2988 H 0.97695 0.32134 0.39185 0.0
H2989 H 0.96338 0.25907 0.34214 0.0
H2990 H 0.95545 0.25572 0.36865 0.0
H2991 H 0.94779 0.26113 0.34716 0.0
H2992 H 0.93093 0.25625 0.42594 0.0
H2993 H 0.91237 0.26748 0.37255 0.0
H2994 H 0.96824 0.28321 0.41749 0.0
H2995 H 0.9647 0.26672 0.40489 0.0
H2996 H 0.95634 0.26587 0.43043 0.0
H2997 H 0.94596 0.29627 0.35173 0.0
H2998 H 0.92702 0.28301 0.34438 0.0
H2999 H 0.94178 0.27995 0.33796 0.0
C3000 C 0.04597 0.38033 0.33459 0.0
C3001 C 0.03686 0.37168 0.35152 0.0
C3002 C 0.04583 0.39271 0.32738 0.0
C3003 C 0.03635 0.39656 0.3373 0.0
C3004 C 0.0275 0.38817 0.35486 0.0
C3005 C 0.02787 0.37585 0.36177 0.0
C3006 C 0.05548 0.40139 0.30865 0.0
C3007 C 0.01725 0.39192 0.36585 0.0
C3008 C 0.04352 0.43467 0.32591 0.0
C3009 C 0.03347 0.43194 0.30889 0.0
C3010 C 0.04438 0.42324 0.33569 0.0
C3011 C 0.03497 0.40873 0.32826 0.0
C3012 C 0.02456 0.40587 0.31145 0.0
C3013 C 0.02397 0.41749 0.30196 0.0
C3014 C 0.05558 0.42671 0.35362 0.0
C3015 C 0.01433 0.39057 0.30303 0.0
H3016 H 0.05301 0.37725 0.32662 0.0
H3017 H 0.02082 0.36927 0.3749 0.0
H3018 H 0.04841 0.40052 0.2946 0.0
H3019 H 0.06235 0.41312 0.313 0.0
H3020 H 0.06292 0.39754 0.30363 0.0
H3021 H 0.01196 0.38501 0.3803 0.0
H3022 H 0.0234 0.40356 0.37087 0.0
H3023 H 0.00841 0.39041 0.35433 0.0
H3024 H 0.0508 0.44578 0.33151 0.0
H3025 H 0.01636 0.41527 0.28856 0.0
H3026 H 0.0638 0.42392 0.34842 0.0
H3027 H 0.05003 0.41999 0.3681 0.0
H3028 H 0.06156 0.43842 0.35828 0.0
H3029 H 0.02093 0.38637 0.29579 0.0
H3030 H 0.00638 0.39009 0.29062 0.0
H3031 H 0.00797 0.38315 0.31651 0.0
C3032 C 0.62466 0.65602 0.33616 0.0
C3033 C 0.61687 0.66307 0.34019 0.0
C3034 C 0.61716 0.64115 0.33059 0.0
C3035 C 0.60149 0.63312 0.32918 0.0
C3036 C 0.59355 0.64001 0.33414 0.0
C3037 C 0.60133 0.65491 0.3395 0.0
C3038 C 0.62604 0.63422 0.3253 0.0
C3039 C 0.57684 0.63178 0.33299 0.0
C3040 C 0.58342 0.6012 0.29014 0.0
C3041 C 0.57873 0.5892 0.30399 0.0
C3042 C 0.59078 0.6155 0.29818 0.0
C3043 C 0.5935 0.61791 0.32069 0.0
C3044 C 0.58868 0.60585 0.33483 0.0
C3045 C 0.58141 0.59161 0.32629 0.0
C3046 C 0.59584 0.62807 0.28253 0.0
C3047 C 0.59128 0.608 0.35892 0.0
H3048 H 0.63667 0.66222 0.33668 0.0
H3049 H 0.5952 0.66022 0.34276 0.0
H3050 H 0.62201 0.624 0.3347 0.0
H3051 H 0.62456 0.63123 0.30792 0.0
H3052 H 0.63805 0.64162 0.32875 0.0
H3053 H 0.57229 0.63832 0.33925 0.0
H3054 H 0.57307 0.62877 0.31597 0.0
H3055 H 0.57212 0.62149 0.34239 0.0
H3056 H 0.58167 0.59944 0.27285 0.0
H3057 H 0.57777 0.58236 0.33705 0.0
H3058 H 0.60805 0.6354 0.28369 0.0
H3059 H 0.59087 0.63463 0.28673 0.0
H3060 H 0.59278 0.62432 0.26551 0.0
H3061 H 0.60334 0.61467 0.36251 0.0
H3062 H 0.58659 0.59747 0.36776 0.0
H3063 H 0.58623 0.61407 0.36519 0.0
C3064 C 0.35292 0.98159 0.33394 0.0
C3065 C 0.34424 0.96673 0.33929 0.0
C3066 C 0.36767 0.98772 0.32744 0.0
C3067 C 0.3739 0.97881 0.32649 0.0
C3068 C 0.36542 0.964 0.33296 0.0
C3069 C 0.35068 0.95813 0.33916 0.0
C3070 C 0.37634 0.00353 0.32056 0.0
C3071 C 0.3717 0.95417 0.33241 0.0
C3072 C 0.40353 0.9873 0.28535 0.0
C3073 C 0.41645 0.99375 0.29818 0.0
C3074 C 0.3897 0.98269 0.29434 0.0
C3075 C 0.38871 0.98448 0.31678 0.0
C3076 C 0.40173 0.99114 0.32982 0.0
C3077 C 0.41549 0.99578 0.32032 0.0
C3078 C 0.37611 0.97579 0.27982 0.0
C3079 C 0.40107 0.9931 0.35382 0.0
H3080 H 0.34803 0.98831 0.33401 0.0
H3081 H 0.3441 0.94668 0.34349 0.0
H3082 H 0.38735 0.00932 0.32873 0.0
H3083 H 0.37827 0.00418 0.3029 0.0
H3084 H 0.37045 0.00933 0.3242 0.0
H3085 H 0.3642 0.94337 0.33994 0.0
H3086 H 0.37355 0.95239 0.3154 0.0
H3087 H 0.38258 0.95939 0.34093 0.0
H3088 H 0.40427 0.98598 0.26815 0.0
H3089 H 0.42546 1.00075 0.33026 0.0
H3090 H 0.37019 0.98178 0.28117 0.0
H3091 H 0.36836 0.96436 0.28498 0.0
H3092 H 0.37886 0.97571 0.26258 0.0
H3093 H 0.39554 0.99929 0.35693 0.0
H3094 H 0.41225 0.99895 0.36155 0.0
H3095 H 0.39437 0.98227 0.36166 0.0
C3096 C 0.62457 0.95601 0.35627 0.0
C3097 C 0.6376 0.96206 0.34416 0.0
C3098 C 0.61357 0.95931 0.35143 0.0
C3099 C 0.61566 0.96889 0.33412 0.0
C3100 C 0.62875 0.97498 0.32182 0.0
C3101 C 0.63952 0.97149 0.32697 0.0
C3102 C 0.59975 0.95257 0.36486 0.0
C3103 C 0.63143 0.98527 0.30324 0.0
C3104 C 0.58396 0.96969 0.3057 0.0
C3105 C 0.58557 0.98263 0.31385 0.0
C3106 C 0.59317 0.96465 0.31299 0.0
C3107 C 0.6043 0.97275 0.32877 0.0
C3108 C 0.60542 0.98536 0.33793 0.0
C3109 C 0.59604 0.99013 0.33038 0.0
C3110 C 0.59156 0.95112 0.30287 0.0
C3111 C 0.61706 0.99426 0.35489 0.0
H3112 H 0.62296 0.94871 0.36957 0.0
H3113 H 0.64952 0.97624 0.3175 0.0
H3114 H 0.59873 0.96129 0.37267 0.0
H3115 H 0.58982 0.94624 0.35434 0.0
H3116 H 0.59973 0.94521 0.37763 0.0
H3117 H 0.64215 0.98902 0.29521 0.0
H3118 H 0.62239 0.97981 0.29101 0.0
H3119 H 0.63138 0.99499 0.30913 0.0
H3120 H 0.57602 0.9639 0.29277 0.0
H3121 H 0.5972 1.00001 0.33699 0.0
H3122 H 0.5913 0.94361 0.31553 0.0
H3123 H 0.60127 0.95423 0.29257 0.0
H3124 H 0.58136 0.94516 0.29271 0.0
H3125 H 0.61681 0.98712 0.36815 0.0
H3126 H 0.61555 0.00291 0.36189 0.0
H3127 H 0.6282 0.99955 0.34758 0.0
C3128 C 0.03462 0.65667 0.36316 0.0
C3129 C 0.0305 0.66499 0.35064 0.0
C3130 C 0.03213 0.64322 0.35565 0.0
C3131 C 0.0252 0.63789 0.33524 0.0
C3132 C 0.02099 0.64623 0.32255 0.0
C3133 C 0.02376 0.65971 0.33034 0.0
C3134 C 0.03694 0.63473 0.36953 0.0
C3135 C 0.01346 0.64087 0.30078 0.0
C3136 C 0.02967 0.60977 0.30484 0.0
C3137 C 0.01616 0.59681 0.30886 0.0
C3138 C 0.03294 0.62312 0.31386 0.0
C3139 C 0.02238 0.62361 0.32703 0.0
C3140 C 0.00887 0.61055 0.33157 0.0
C3141 C 0.00596 0.59731 0.32254 0.0
C3142 C 0.04753 0.63679 0.30876 0.0
C3143 C 0.9973 0.61063 0.3455 0.0
H3144 H 0.03988 0.66069 0.37883 0.0
H3145 H 0.02047 0.66602 0.3206 0.0
H3146 H 0.02724 0.62383 0.37339 0.0
H3147 H 0.04484 0.6329 0.36056 0.0
H3148 H 0.04231 0.64044 0.38492 0.0
H3149 H 0.01075 0.64859 0.29301 0.0
H3150 H 0.02071 0.63927 0.28983 0.0
H3151 H 0.00307 0.63012 0.30259 0.0
H3152 H 0.03754 0.60961 0.29402 0.0
H3153 H 0.99559 0.58735 0.32604 0.0
H3154 H 0.0533 0.64255 0.32391 0.0
H3155 H 0.04552 0.64436 0.29909 0.0
H3156 H 0.05497 0.63441 0.29955 0.0
H3157 H 0.00217 0.61558 0.36146 0.0
H3158 H 0.98759 0.59948 0.3481 0.0
H3159 H 0.9934 0.61742 0.33776 0.0
C3160 C 0.3537 0.3678 0.34147 0.0
C3161 C 0.3455 0.37426 0.3357 0.0
C3162 C 0.36864 0.3743 0.3357 0.0
C3163 C 0.3754 0.38737 0.32343 0.0
C3164 C 0.36721 0.39399 0.31775 0.0
C3165 C 0.35243 0.38745 0.32415 0.0
C3166 C 0.37712 0.3671 0.34244 0.0
C3167 C 0.37391 0.40775 0.30429 0.0
C3168 C 0.41713 0.41205 0.31798 0.0
C3169 C 0.41943 0.40768 0.29788 0.0
C3170 C 0.40294 0.40507 0.32704 0.0
C3171 C 0.39076 0.39375 0.3154 0.0
C3172 C 0.39311 0.38916 0.29525 0.0
C3173 C 0.40744 0.3961 0.28684 0.0
C3174 C 0.40092 0.41004 0.34878 0.0
C3175 C 0.3804 0.37736 0.2821 0.0
H3176 H 0.34843 0.35767 0.35053 0.0
H3177 H 0.34615 0.39246 0.31952 0.0
H3178 H 0.38013 0.36324 0.32793 0.0
H3179 H 0.38759 0.3751 0.3508 0.0
H3180 H 0.37062 0.35763 0.35334 0.0
H3181 H 0.36612 0.41166 0.30156 0.0
H3182 H 0.38408 0.41658 0.31231 0.0
H3183 H 0.37718 0.40573 0.28835 0.0
H3184 H 0.42643 0.42098 0.32654 0.0
H3185 H 0.40918 0.39285 0.27114 0.0
H3186 H 0.39471 0.40052 0.35966 0.0
H3187 H 0.39429 0.4153 0.34683 0.0
H3188 H 0.41166 0.41796 0.35665 0.0
H3189 H 0.37415 0.36726 0.29185 0.0
H3190 H 0.38418 0.37469 0.26713 0.0
H3191 H 0.37259 0.38094 0.27751 0.0
C3192 C 0.30245 0.29579 0.36539 0.0
C3193 C 0.30662 0.30259 0.3451 0.0
C3194 C 0.30528 0.2848 0.37139 0.0
C3195 C 0.31239 0.28041 0.35672 0.0
C3196 C 0.31603 0.28676 0.33586 0.0
C3197 C 0.31314 0.29779 0.33032 0.0
C3198 C 0.30126 0.27834 0.39382 0.0
C3199 C 0.32351 0.2823 0.31969 0.0
C3200 C 0.33532 0.26603 0.38191 0.0
C3201 C 0.32573 0.25085 0.38022 0.0
C3202 C 0.3312 0.27572 0.37392 0.0
C3203 C 0.31714 0.27014 0.36392 0.0
C3204 C 0.30751 0.25484 0.3617 0.0
C3205 C 0.31189 0.24536 0.36997 0.0
C3206 C 0.34177 0.29195 0.37678 0.0
C3207 C 0.29248 0.24848 0.35097 0.0
H3208 H 0.29737 0.29936 0.37692 0.0
H3209 H 0.31633 0.30291 0.31455 0.0
H3210 H 0.29465 0.26624 0.39295 0.0
H3211 H 0.31151 0.28143 0.40323 0.0
H3212 H 0.29485 0.28215 0.40273 0.0
H3213 H 0.32428 0.28719 0.3035 0.0
H3214 H 0.33487 0.28584 0.32551 0.0
H3215 H 0.3174 0.27024 0.31803 0.0
H3216 H 0.3459 0.27038 0.39018 0.0
H3217 H 0.30447 0.23365 0.36849 0.0
H3218 H 0.3367 0.29651 0.38721 0.0
H3219 H 0.34398 0.29757 0.36092 0.0
H3220 H 0.35251 0.29454 0.38421 0.0
H3221 H 0.28549 0.25126 0.36053 0.0
H3222 H 0.28666 0.23641 0.34939 0.0
H3223 H 0.29361 0.25329 0.33465 0.0
C3224 C 0.71207 0.0133 0.35933 0.0
C3225 C 0.71871 0.00573 0.35197 0.0
C3226 C 0.72073 0.02779 0.36668 0.0
C3227 C 0.73637 0.03486 0.36652 0.0
C3228 C 0.7431 0.02761 0.35768 0.0
C3229 C 0.7342 0.01313 0.35059 0.0
C3230 C 0.71313 0.03515 0.37597 0.0
C3231 C 0.75974 0.03481 0.35701 0.0
C3232 C 0.76116 0.0755 0.37872 0.0
C3233 C 0.76498 0.07515 0.40043 0.0
C3234 C 0.7516 0.06249 0.36744 0.0
C3235 C 0.74567 0.0489 0.37824 0.0
C3236 C 0.74917 0.04857 0.40034 0.0
C3237 C 0.75878 0.06168 0.41111 0.0
C3238 C 0.74813 0.06323 0.34388 0.0
C3239 C 0.74298 0.03435 0.41256 0.0
H3240 H 0.70011 0.00771 0.36036 0.0
H3241 H 0.73943 0.00743 0.34466 0.0
H3242 H 0.71458 0.03582 0.39381 0.0
H3243 H 0.71818 0.04647 0.36978 0.0
H3244 H 0.70108 0.02909 0.37211 0.0
H3245 H 0.76319 0.02846 0.34723 0.0
H3246 H 0.76485 0.04599 0.35021 0.0
H3247 H 0.76418 0.03583 0.37369 0.0
H3248 H 0.76593 0.08591 0.37045 0.0
H3249 H 0.76144 0.06139 0.42803 0.0
H3250 H 0.73597 0.05708 0.34104 0.0
H3251 H 0.75275 0.05802 0.33391 0.0
H3252 H 0.75279 0.07466 0.33824 0.0
H3253 H 0.73071 0.02806 0.41144 0.0
H3254 H 0.74632 0.03605 0.42991 0.0
H3255 H 0.74691 0.02757 0.40523 0.0
C3256 C 0.97937 0.68505 0.36434 0.0
C3257 C 0.98902 0.69769 0.37616 0.0
C3258 C 0.96398 0.67763 0.3675 0.0
C3259 C 0.95821 0.68282 0.38322 0.0
C3260 C 0.96798 0.69536 0.39558 0.0
C3261 C 0.98322 0.70273 0.39171 0.0
C3262 C 0.95389 0.66449 0.35373 0.0
C3263 C 0.96232 0.70105 0.41285 0.0
C3264 C 0.91904 0.67544 0.38275 0.0
C3265 C 0.91249 0.66479 0.39888 0.0
C3266 C 0.93365 0.68067 0.37633 0.0
C3267 C 0.94197 0.67538 0.38676 0.0
C3268 C 0.93515 0.66413 0.40237 0.0
C3269 C 0.92042 0.65887 0.40811 0.0
C3270 C 0.94041 0.69242 0.35925 0.0
C3271 C 0.9437 0.65839 0.41417 0.0
H3272 H 0.98381 0.68118 0.3522 0.0
H3273 H 0.99065 0.71243 0.40101 0.0
H3274 H 0.94695 0.65488 0.36412 0.0
H3275 H 0.94625 0.66663 0.34414 0.0
H3276 H 0.96013 0.6617 0.34246 0.0
H3277 H 0.97144 0.71051 0.42173 0.0
H3278 H 0.95499 0.70449 0.40544 0.0
H3279 H 0.95563 0.69227 0.42465 0.0
H3280 H 0.91287 0.67998 0.3756 0.0
H3281 H 0.91538 0.65075 0.42078 0.0
H3282 H 0.94633 0.68976 0.34721 0.0
H3283 H 0.94865 0.70296 0.36688 0.0
H3284 H 0.93195 0.69387 0.35068 0.0
H3285 H 0.94968 0.65552 0.40258 0.0
H3286 H 0.93641 0.64863 0.42412 0.0
H3287 H 0.95214 0.66704 0.42497 0.0
C3288 C 0.37005 0.03876 0.69961 0.0
C3289 C 0.36244 0.03396 0.67975 0.0
C3290 C 0.38042 0.03501 0.70613 0.0
C3291 C 0.38332 0.02629 0.69244 0.0
C3292 C 0.37626 0.02205 0.6719 0.0
C3293 C 0.36588 0.02591 0.66581 0.0
C3294 C 0.3877 0.03976 0.72817 0.0
C3295 C 0.37913 0.01283 0.65679 0.0
C3296 C 0.41651 0.02278 0.70693 0.0
C3297 C 0.40976 0.00963 0.7186 0.0
C3298 C 0.40804 0.02822 0.69784 0.0
C3299 C 0.39249 0.02037 0.70061 0.0
C3300 C 0.38562 0.00699 0.71207 0.0
C3301 C 0.39432 0.00181 0.72092 0.0
C3302 C 0.41574 0.04248 0.68562 0.0
C3303 C 0.36909 0.9983 0.71552 0.0
H3304 H 0.36754 0.04506 0.71045 0.0
H3305 H 0.36014 0.02223 0.65037 0.0
H3306 H 0.38369 0.03006 0.73878 0.0
H3307 H 0.39988 0.04495 0.72692 0.0
H3308 H 0.3853 0.04757 0.73602 0.0
H3309 H 0.37411 0.01185 0.64051 0.0
H3310 H 0.39121 0.01753 0.65502 0.0
H3311 H 0.37443 0.0017 0.66366 0.0
H3312 H 0.42842 0.02883 0.70495 0.0
H3313 H 0.38902 0.99181 0.73029 0.0
H3314 H 0.4143 0.05071 0.69416 0.0
H3315 H 0.41068 0.04102 0.66927 0.0
H3316 H 0.42778 0.04686 0.68389 0.0
H3317 H 0.36578 0.00483 0.72509 0.0
H3318 H 0.36541 0.98784 0.72413 0.0
H3319 H 0.36312 0.99583 0.69975 0.0
C3320 C 0.99249 0.35812 0.68063 0.0
C3321 C 0.98121 0.34479 0.68909 0.0
C3322 C 0.99368 0.37138 0.68619 0.0
C3323 C 0.98332 0.37132 0.70049 0.0
C3324 C 0.97173 0.35788 0.7087 0.0
C3325 C 0.97084 0.34481 0.70294 0.0
C3326 C 0.0062 0.38549 0.67715 0.0
C3327 C 0.96043 0.35732 0.72394 0.0
C3328 C 0.99285 0.40421 0.73512 0.0
C3329 C 0.98491 0.40974 0.72462 0.0
C3330 C 0.99296 0.39211 0.72689 0.0
C3331 C 0.98486 0.38527 0.70773 0.0
C3332 C 0.97734 0.39114 0.69654 0.0
C3333 C 0.97746 0.40331 0.70511 0.0
C3334 C 0.00116 0.38621 0.7393 0.0
C3335 C 0.96863 0.3842 0.67602 0.0
H3336 H 1.00056 0.35822 0.66991 0.0
H3337 H 0.96204 0.33458 0.70949 0.0
H3338 H 0.00178 0.39173 0.66905 0.0
H3339 H 0.01361 0.3924 0.69051 0.0
H3340 H 0.01288 0.38364 0.66537 0.0
H3341 H 0.95178 0.34595 0.72823 0.0
H3342 H 0.96601 0.36331 0.73904 0.0
H3343 H 0.95495 0.36279 0.71652 0.0
H3344 H 0.99844 0.4089 0.75037 0.0
H3345 H 0.97146 0.40762 0.69674 0.0
H3346 H 0.0085 0.38473 0.72837 0.0
H3347 H 0.9931 0.37533 0.74608 0.0
H3348 H 0.00797 0.39351 0.7528 0.0
H3349 H 0.97557 0.3827 0.6643 0.0
H3350 H 0.96449 0.39081 0.66827 0.0
H3351 H 0.95901 0.37321 0.67971 0.0
C3352 C 0.65946 0.61376 0.7041 0.0
C3353 C 0.66644 0.629 0.70261 0.0
C3354 C 0.64502 0.60522 0.71186 0.0
C3355 C 0.63732 0.61207 0.71842 0.0
C3356 C 0.64401 0.62738 0.71605 0.0
C3357 C 0.65851 0.63568 0.70811 0.0
C3358 C 0.63827 0.58891 0.71399 0.0
C3359 C 0.63614 0.63506 0.72284 0.0
C3360 C 0.59631 0.58604 0.72891 0.0
C3361 C 0.59658 0.58333 0.75107 0.0
C3362 C 0.60942 0.59593 0.7181 0.0
C3363 C 0.623 0.60329 0.72982 0.0
C3364 C 0.62314 0.60114 0.7524 0.0
C3365 C 0.60995 0.59118 0.76272 0.0
C3366 C 0.60884 0.59797 0.69402 0.0
C3367 C 0.63735 0.60885 0.76556 0.0
H3368 H 0.66542 0.60847 0.69963 0.0
H3369 H 0.66379 0.64745 0.70694 0.0
H3370 H 0.63696 0.58586 0.73135 0.0
H3371 H 0.62709 0.58299 0.70636 0.0
H3372 H 0.64517 0.58515 0.70646 0.0
H3373 H 0.64204 0.64665 0.71753 0.0
H3374 H 0.62469 0.6294 0.71612 0.0
H3375 H 0.63531 0.63476 0.74072 0.0
H3376 H 0.58598 0.57999 0.71989 0.0
H3377 H 0.61012 0.58933 0.77995 0.0
H3378 H 0.61427 0.59292 0.68561 0.0
H3379 H 0.61499 0.60976 0.68985 0.0
H3380 H 0.59728 0.59291 0.68778 0.0
H3381 H 0.64475 0.60495 0.76058 0.0
H3382 H 0.63537 0.60689 0.78318 0.0
H3383 H 0.64328 0.62079 0.76256 0.0
C3384 C 0.69005 0.70444 0.69789 0.0
C3385 C 0.69877 0.70111 0.68512 0.0
C3386 C 0.68693 0.71518 0.69146 0.0
C3387 C 0.69267 0.7228 0.6718 0.0
C3388 C 0.7019 0.71985 0.65923 0.0
C3389 C 0.70483 0.70905 0.66602 0.0
C3390 C 0.67705 0.71801 0.70532 0.0
C3391 C 0.70827 0.72775 0.63819 0.0
C3392 C 0.67138 0.73729 0.64169 0.0
C3393 C 0.67978 0.75229 0.64636 0.0
C3394 C 0.67536 0.72761 0.65012 0.0
C3395 C 0.68812 0.73301 0.66352 0.0
C3396 C 0.69661 0.74811 0.66848 0.0
C3397 C 0.69235 0.75758 0.65982 0.0
C3398 C 0.66602 0.7116 0.64435 0.0
C3399 C 0.71027 0.75427 0.68275 0.0
H3400 H 0.68535 0.69842 0.7127 0.0
H3401 H 0.71163 0.70663 0.65608 0.0
H3402 H 0.68239 0.72985 0.70871 0.0
H3403 H 0.66651 0.71456 0.69651 0.0
H3404 H 0.67443 0.71202 0.72093 0.0
H3405 H 0.71607 0.72495 0.63109 0.0
H3406 H 0.69917 0.72486 0.62634 0.0
H3407 H 0.71417 0.73974 0.64068 0.0
H3408 H 0.66183 0.73313 0.63095 0.0
H3409 H 0.69884 0.76913 0.66362 0.0
H3410 H 0.66215 0.70489 0.65927 0.0
H3411 H 0.67277 0.70824 0.6354 0.0
H3412 H 0.6562 0.70909 0.63424 0.0
H3413 H 0.70742 0.74863 0.69862 0.0
H3414 H 0.71546 0.76619 0.6855 0.0
H3415 H 0.71854 0.7523 0.67525 0.0
C3416 C 0.29661 0.9921 0.67136 0.0
C3417 C 0.28926 0.99944 0.67642 0.0
C3418 C 0.28865 0.97716 0.66619 0.0
C3419 C 0.27296 0.96934 0.66625 0.0
C3420 C 0.2655 0.97652 0.67231 0.0
C3421 C 0.27372 0.99149 0.67723 0.0
C3422 C 0.29702 0.96991 0.65971 0.0
C3423 C 0.2488 0.96854 0.67277 0.0
C3424 C 0.25299 0.93704 0.6281 0.0
C3425 C 0.24889 0.92516 0.642 0.0
C3426 C 0.26071 0.95142 0.63587 0.0
C3427 C 0.26438 0.95404 0.65814 0.0
C3428 C 0.26006 0.9421 0.67236 0.0
C3429 C 0.25243 0.92778 0.66409 0.0
C3430 C 0.26521 0.96384 0.62012 0.0
C3431 C 0.26366 0.94446 0.69623 0.0
H3432 H 0.3086 0.99813 0.67072 0.0
H3433 H 0.26794 0.99703 0.6813 0.0
H3434 H 0.29324 0.95978 0.66922 0.0
H3435 H 0.29473 0.96672 0.64242 0.0
H3436 H 0.30917 0.97718 0.66207 0.0
H3437 H 0.24473 0.9753 0.67981 0.0
H3438 H 0.24426 0.96542 0.65608 0.0
H3439 H 0.24434 0.95831 0.68229 0.0
H3440 H 0.25058 0.93513 0.61094 0.0
H3441 H 0.24924 0.91863 0.6749 0.0
H3442 H 0.27745 0.97102 0.62009 0.0
H3443 H 0.26064 0.97061 0.62517 0.0
H3444 H 0.26131 0.95994 0.60336 0.0
H3445 H 0.27585 0.95089 0.69876 0.0
H3446 H 0.25907 0.93401 0.70524 0.0
H3447 H 0.25919 0.95088 0.70318 0.0
C3448 C 0.02107 0.31849 0.67258 0.0
C3449 C 0.01258 0.30373 0.67857 0.0
C3450 C 0.03576 0.32462 0.66575 0.0
C3451 C 0.04212 0.31581 0.66501 0.0
C3452 C 0.03385 0.30114 0.67213 0.0
C3453 C 0.0192 0.29528 0.67876 0.0
C3454 C 0.04423 0.34032 0.6583 0.0
C3455 C 0.04024 0.2914 0.67175 0.0
C3456 C 0.07132 0.32398 0.62319 0.0
C3457 C 0.0844 0.33064 0.63567 0.0
C3458 C 0.05756 0.31935 0.63252 0.0
C3459 C 0.05682 0.32142 0.65493 0.0
C3460 C 0.06999 0.32827 0.66763 0.0
C3461 C 0.08365 0.33284 0.65783 0.0
C3462 C 0.0438 0.31216 0.61836 0.0
C3463 C 0.06962 0.33058 0.69159 0.0
H3464 H 0.01606 0.32511 0.67241 0.0
H3465 H 0.01279 0.2839 0.68357 0.0
H3466 H 0.05535 0.34629 0.66612 0.0
H3467 H 0.0459 0.3407 0.64059 0.0
H3468 H 0.03832 0.34611 0.66192 0.0
H3469 H 0.03291 0.2807 0.67968 0.0
H3470 H 0.0419 0.28937 0.65477 0.0
H3471 H 0.05123 0.29681 0.67998 0.0
H3472 H 0.07185 0.32253 0.60597 0.0
H3473 H 0.09372 0.33794 0.66756 0.0
H3474 H 0.0379 0.31818 0.61952 0.0
H3475 H 0.03612 0.30085 0.62403 0.0
H3476 H 0.04633 0.31175 0.60111 0.0
H3477 H 0.06409 0.33679 0.6946 0.0
H3478 H 0.08088 0.33658 0.69903 0.0
H3479 H 0.06305 0.31987 0.69981 0.0
C3480 C 0.28858 0.29097 0.69074 0.0
C3481 C 0.30099 0.29561 0.67767 0.0
C3482 C 0.27789 0.29463 0.6856 0.0
C3483 C 0.27974 0.30324 0.66708 0.0
C3484 C 0.29215 0.30781 0.65371 0.0
C3485 C 0.30256 0.30388 0.6591 0.0
C3486 C 0.26471 0.28942 0.70008 0.0
C3487 C 0.2946 0.31708 0.63388 0.0
C3488 C 0.24864 0.30541 0.63933 0.0
C3489 C 0.25163 0.31917 0.64611 0.0
C3490 C 0.25713 0.29965 0.64706 0.0
C3491 C 0.269 0.3079 0.66175 0.0
C3492 C 0.27153 0.3214 0.66959 0.0
C3493 C 0.26277 0.32682 0.66178 0.0
C3494 C 0.25396 0.28514 0.63849 0.0
C3495 C 0.28406 0.33054 0.68526 0.0
H3496 H 0.28725 0.28454 0.70508 0.0
H3497 H 0.31211 0.30756 0.64889 0.0
H3498 H 0.26488 0.29893 0.70735 0.0
H3499 H 0.25429 0.28331 0.69047 0.0
H3500 H 0.26453 0.28226 0.71331 0.0
H3501 H 0.30474 0.3196 0.62506 0.0
H3502 H 0.28496 0.31141 0.62267 0.0
H3503 H 0.29561 0.32753 0.63861 0.0
H3504 H 0.24017 0.29945 0.6271 0.0
H3505 H 0.26497 0.33732 0.66743 0.0
H3506 H 0.25378 0.27812 0.6519 0.0
H3507 H 0.26289 0.28694 0.62737 0.0
H3508 H 0.24322 0.27921 0.62954 0.0
H3509 H 0.28372 0.32386 0.69927 0.0
H3510 H 0.2837 0.34008 0.69133 0.0
H3511 H 0.2948 0.33462 0.67715 0.0
C3512 C 0.6774 0.98065 0.69185 0.0
C3513 C 0.68599 0.99344 0.67979 0.0
C3514 C 0.67598 0.96737 0.68575 0.0
C3515 C 0.6833 0.96686 0.66711 0.0
C3516 C 0.69211 0.97976 0.65501 0.0
C3517 C 0.69336 0.99288 0.6615 0.0
C3518 C 0.66653 0.95385 0.69908 0.0
C3519 C 0.7001 0.97969 0.63502 0.0
C3520 C 0.69137 0.93671 0.6576 0.0
C3521 C 0.68059 0.92816 0.64195 0.0
C3522 C 0.69199 0.94899 0.66667 0.0
C3523 C 0.68161 0.95284 0.65988 0.0
C3524 C 0.67028 0.94386 0.64485 0.0
C3525 C 0.6699 0.93163 0.63608 0.0
C3526 C 0.70415 0.9582 0.68281 0.0
C3527 C 0.65901 0.94759 0.63717 0.0
H3528 H 0.67167 0.98097 0.70602 0.0
H3529 H 0.70003 0.00268 0.65206 0.0
H3530 H 0.65721 0.94548 0.68905 0.0
H3531 H 0.67314 0.94906 0.70457 0.0
H3532 H 0.66192 0.95615 0.71348 0.0
H3533 H 0.70667 0.99069 0.62757 0.0
H3534 H 0.70766 0.97571 0.6391 0.0
H3535 H 0.69197 0.97208 0.62284 0.0
H3536 H 0.69955 0.93398 0.66239 0.0
H3537 H 0.66165 0.92518 0.62381 0.0
H3538 H 0.69945 0.96018 0.69737 0.0
H3539 H 0.71195 0.969 0.67557 0.0
H3540 H 0.71048 0.95301 0.68787 0.0
H3541 H 0.65378 0.94947 0.65116 0.0
H3542 H 0.65018 0.93884 0.6269 0.0
H3543 H 0.66461 0.95786 0.62765 0.0
C3544 C 0.0166 0.70894 0.6417 0.0
C3545 C 0.01219 0.71401 0.65907 0.0
C3546 C 0.03141 0.71649 0.63505 0.0
C3547 C 0.04209 0.72903 0.64666 0.0
C3548 C 0.03774 0.73379 0.66483 0.0
C3549 C 0.02275 0.7264 0.67052 0.0
C3550 C 0.0355 0.71135 0.61516 0.0
C3551 C 0.04889 0.74672 0.67816 0.0
C3552 C 0.08212 0.7405 0.63695 0.0
C3553 C 0.08678 0.75233 0.62263 0.0
C3554 C 0.06783 0.73324 0.64565 0.0
C3555 C 0.05769 0.73746 0.63923 0.0
C3556 C 0.0623 0.74946 0.62507 0.0
C3557 C 0.07686 0.75694 0.61739 0.0
C3558 C 0.0635 0.72084 0.66136 0.0
C3559 C 0.05172 0.75411 0.61744 0.0
H3560 H 0.00835 0.69941 0.63278 0.0
H3561 H 0.01928 0.73022 0.68406 0.0
H3562 H 0.0402 0.7202 0.60289 0.0
H3563 H 0.04415 0.70879 0.61924 0.0
H3564 H 0.02584 0.7015 0.60784 0.0
H3565 H 0.04392 0.7482 0.69288 0.0
H3566 H 0.05823 0.74535 0.68313 0.0
H3567 H 0.05359 0.75684 0.66836 0.0
H3568 H 0.08944 0.73657 0.64098 0.0
H3569 H 0.08033 0.76631 0.60696 0.0
H3570 H 0.0552 0.71035 0.65369 0.0
H3571 H 0.05831 0.72227 0.67584 0.0
H3572 H 0.07315 0.72005 0.66668 0.0
H3573 H 0.04199 0.74482 0.60925 0.0
H3574 H 0.05696 0.76347 0.60603 0.0
H3575 H 0.04754 0.75724 0.63143 0.0
C3576 C 0.94667 0.6194 0.68033 0.0
C3577 C 0.95864 0.63389 0.68099 0.0
C3578 C 0.94847 0.60774 0.6865 0.0
C3579 C 0.96254 0.61065 0.69366 0.0
C3580 C 0.97474 0.62522 0.69382 0.0
C3581 C 0.97266 0.63662 0.68742 0.0
C3582 C 0.93523 0.59236 0.6859 0.0
C3583 C 0.98992 0.62882 0.70145 0.0
C3584 C 0.96558 0.58492 0.733 0.0
C3585 C 0.97063 0.57791 0.71971 0.0
C3586 C 0.96248 0.59526 0.72459 0.0
C3587 C 0.96442 0.59867 0.70227 0.0
C3588 C 0.96904 0.59128 0.6886 0.0
C3589 C 0.97216 0.58103 0.69749 0.0
C3590 C 0.95771 0.60296 0.73978 0.0
C3591 C 0.97108 0.5945 0.66469 0.0
H3592 H 0.93582 0.61715 0.67529 0.0
H3593 H 0.982 0.64776 0.68797 0.0
H3594 H 0.93786 0.58514 0.67677 0.0
H3595 H 0.93243 0.58798 0.70259 0.0
H3596 H 0.92534 0.59179 0.67836 0.0
H3597 H 0.99838 0.64061 0.6997 0.0
H3598 H 0.9895 0.62576 0.71871 0.0
H3599 H 0.99351 0.62241 0.69218 0.0
H3600 H 0.96461 0.58276 0.75023 0.0
H3601 H 0.97594 0.57557 0.6871 0.0
H3602 H 0.94729 0.602 0.7338 0.0
H3603 H 0.96628 0.61477 0.7404 0.0
H3604 H 0.95593 0.59849 0.75646 0.0
H3605 H 0.96097 0.59357 0.65742 0.0
H3606 H 0.97357 0.587 0.656 0.0
H3607 H 0.98033 0.60588 0.66211 0.0
C3608 C 0.37179 0.34627 0.69503 0.0
C3609 C 0.37917 0.34014 0.68522 0.0
C3610 C 0.37941 0.3611 0.70083 0.0
C3611 C 0.39468 0.37005 0.69625 0.0
C3612 C 0.40197 0.36409 0.68522 0.0
C3613 C 0.39417 0.34916 0.68008 0.0
C3614 C 0.3713 0.36697 0.71292 0.0
C3615 C 0.41815 0.37335 0.6796 0.0
C3616 C 0.41239 0.41122 0.70182 0.0
C3617 C 0.41931 0.41371 0.72216 0.0
C3618 C 0.40456 0.3971 0.69289 0.0
C3619 C 0.40335 0.38521 0.70488 0.0
C3620 C 0.41031 0.38772 0.72545 0.0
C3621 C 0.41832 0.40195 0.73373 0.0
C3622 C 0.39755 0.39488 0.67071 0.0
C3623 C 0.40906 0.37533 0.73895 0.0
H3624 H 0.3602 0.33933 0.6991 0.0
H3625 H 0.39989 0.3445 0.67227 0.0
H3626 H 0.37587 0.36994 0.72963 0.0
H3627 H 0.37296 0.37704 0.70507 0.0
H3628 H 0.35922 0.35891 0.71383 0.0
H3629 H 0.4217 0.36753 0.66881 0.0
H3630 H 0.42045 0.3836 0.67157 0.0
H3631 H 0.42501 0.37644 0.69461 0.0
H3632 H 0.41316 0.42034 0.69291 0.0
H3633 H 0.42346 0.40385 0.74963 0.0
H3634 H 0.38536 0.38761 0.6718 0.0
H3635 H 0.40154 0.38942 0.66 0.0
H3636 H 0.40006 0.40534 0.66312 0.0
H3637 H 0.39723 0.36716 0.742 0.0
H3638 H 0.41496 0.37912 0.75476 0.0
H3639 H 0.4137 0.36968 0.73011 0.0
C3640 C 0.64318 0.01501 0.69723 0.0
C3641 C 0.65065 0.02982 0.69142 0.0
C3642 C 0.62832 0.00773 0.70367 0.0
C3643 C 0.62076 0.01542 0.70412 0.0
C3644 C 0.62799 0.03011 0.69704 0.0
C3645 C 0.64285 0.03714 0.69087 0.0
C3646 C 0.62099 0.99206 0.71115 0.0
C3647 C 0.62029 0.03866 0.69708 0.0
C3648 C 0.579 0.99579 0.71148 0.0
C3649 C 0.57815 0.99829 0.73348 0.0
C3650 C 0.59279 0.00101 0.70169 0.0
C3651 C 0.60596 0.00877 0.71427 0.0
C3652 C 0.60509 0.01092 0.73662 0.0
C3653 C 0.59122 0.00569 0.74591 0.0
C3654 C 0.5933 0.99858 0.67781 0.0
C3655 C 0.61884 0.01902 0.75068 0.0
H3656 H 0.64912 0.00927 0.69766 0.0
H3657 H 0.64848 0.04854 0.68615 0.0
H3658 H 0.61942 0.99158 0.72889 0.0
H3659 H 0.60987 0.98537 0.70351 0.0
H3660 H 0.62768 0.98712 0.70738 0.0
H3661 H 0.62688 0.04942 0.68895 0.0
H3662 H 0.60931 0.03239 0.68889 0.0
H3663 H 0.61835 0.04056 0.71399 0.0
H3664 H 0.56891 0.99007 0.70185 0.0
H3665 H 0.59058 0.00737 0.76302 0.0
H3666 H 0.59993 0.99346 0.67492 0.0
H3667 H 0.59884 0.00924 0.66927 0.0
H3668 H 0.58208 0.99153 0.6706 0.0
H3669 H 0.62562 0.01391 0.7494 0.0
H3670 H 0.6162 0.01914 0.76796 0.0
H3671 H 0.62573 0.03047 0.74503 0.0
loop_
_geom_bond_atom_site_label_1
_geom_bond_atom_site_label_2
_geom_bond_distance
_geom_bond_site_symmetry_2
_ccdc_geom_bond_type
Zn0 O3 2.031 1_554 S
Zn0 O5 2.049 . S
Zn0 O10 2.067 1_554 S
Zn1 O2 1.962 1_455 S
Zn1 O4 1.986 . S
Zn1 O6 1.996 1_455 S
Zn1 O9 1.903 1_554 S
O2 Zn1 1.962 1_655 S
O2 C7 1.254 . S
O3 Zn0 2.031 1_556 S
O3 C7 1.269 1_556 S
O4 Zn1 1.986 . S
O4 C11 1.262 . S
O5 Zn0 2.049 . S
O5 C13 1.260 . S
O6 Zn1 1.996 1_655 S
O6 C13 1.257 . S
C7 O2 1.254 . S
C7 O3 1.269 1_554 S
C8 O9 1.273 . S
C8 O10 1.270 1_455 S
O9 Zn1 1.903 1_556 S
O9 C8 1.273 . S
O10 Zn0 2.067 1_556 S
O10 C8 1.270 1_655 S
C11 O4 1.262 . S
C11 O12 1.232 . S
O12 C11 1.232 . S
C13 O5 1.260 . S
C13 O6 1.257 . S
Zn14 O17 2.020 1_554 S
Zn14 O19 2.049 . S
Zn14 O24 2.067 1_554 S
Zn15 O16 1.962 . S
Zn15 O18 1.986 . S
Zn15 O20 1.996 . S
Zn15 O23 1.903 1_554 S
O16 Zn15 1.962 . S
O16 C21 1.254 . S
O17 Zn14 2.020 1_556 S
O17 C21 1.262 1_556 S
O18 Zn15 1.986 . S
O18 C25 1.262 . S
O19 Zn14 2.049 . S
O19 C27 1.260 . S
O20 Zn15 1.996 . S
O20 C27 1.257 . S
C21 O16 1.254 . S
C21 O17 1.262 1_554 S
C22 O23 1.274 . S
C22 O24 1.270 . S
O23 Zn15 1.903 1_556 S
O23 C22 1.274 . S
O24 Zn14 2.067 1_556 S
O24 C22 1.270 . S
C25 O18 1.262 . S
C25 O26 1.232 . S
O26 C25 1.232 . S
C27 O19 1.260 . S
C27 O20 1.257 . S
Zn28 O31 2.031 . S
Zn28 O33 2.049 1_554 S
Zn28 O38 2.067 . S
Zn29 O30 1.962 1_545 S
Zn29 O32 1.986 1_554 S
Zn29 O34 1.996 1_544 S
Zn29 O37 1.943 . S
O30 Zn29 1.962 1_565 S
O30 C35 1.254 . S
O31 Zn28 2.031 . S
O31 C35 1.269 . S
O32 Zn29 1.986 1_556 S
O32 C39 1.262 1_556 S
O33 Zn28 2.049 1_556 S
O33 C41 1.260 . S
O34 Zn29 1.996 1_566 S
O34 C41 1.257 . S
C35 O30 1.254 . S
C35 O31 1.269 . S
C36 O37 1.249 . S
C36 O38 1.270 1_545 S
O37 Zn29 1.943 . S
O37 C36 1.249 . S
O38 Zn28 2.067 . S
O38 C36 1.270 1_565 S
C39 O32 1.262 1_554 S
C39 O40 1.232 . S
O40 C39 1.232 . S
C41 O33 1.260 . S
C41 O34 1.257 . S
Zn42 O45 2.031 . S
Zn42 O47 2.049 1_554 S
Zn42 O52 2.067 . S
Zn43 O44 1.962 1_655 S
Zn43 O46 1.986 1_554 S
Zn43 O48 1.996 1_654 S
Zn43 O51 1.943 . S
O44 Zn43 1.962 1_455 S
O44 C49 1.254 . S
O45 Zn42 2.031 . S
O45 C49 1.269 . S
O46 Zn43 1.986 1_556 S
O46 C53 1.262 1_556 S
O47 Zn42 2.049 1_556 S
O47 C55 1.260 . S
O48 Zn43 1.996 1_456 S
O48 C55 1.257 . S
C49 O44 1.254 . S
C49 O45 1.269 . S
C50 O51 1.249 . S
C50 O52 1.270 1_655 S
O51 Zn43 1.943 . S
O51 C50 1.249 . S
O52 Zn42 2.067 . S
O52 C50 1.270 1_455 S
C53 O46 1.262 1_554 S
C53 O54 1.232 . S
O54 C53 1.232 . S
C55 O47 1.260 . S
C55 O48 1.257 . S
Zn56 O59 2.031 . S
Zn56 O61 2.049 1_554 S
Zn56 O66 2.067 . S
Zn57 O58 1.962 . S
Zn57 O60 1.986 1_554 S
Zn57 O62 1.996 1_554 S
Zn57 O65 1.943 . S
O58 Zn57 1.962 . S
O58 C63 1.254 . S
O59 Zn56 2.031 . S
O59 C63 1.269 . S
O60 Zn57 1.986 1_556 S
O60 C67 1.262 1_556 S
O61 Zn56 2.049 1_556 S
O61 C69 1.260 . S
O62 Zn57 1.996 1_556 S
O62 C69 1.257 . S
C63 O58 1.254 . S
C63 O59 1.269 . S
C64 O65 1.249 . S
C64 O66 1.270 . S
O65 Zn57 1.943 . S
O65 C64 1.249 . S
O66 Zn56 2.067 . S
O66 C64 1.270 . S
C67 O60 1.262 1_554 S
C67 O68 1.232 . S
O68 C67 1.232 . S
C69 O61 1.260 . S
C69 O62 1.257 . S
Zn70 O73 2.031 . S
Zn70 O75 2.049 . S
Zn70 O80 2.067 . S
Zn71 O72 1.962 1_565 S
Zn71 O74 1.986 . S
Zn71 O76 1.996 1_565 S
Zn71 O79 1.943 . S
O72 Zn71 1.962 1_545 S
O72 C77 1.254 . S
O73 Zn70 2.031 . S
O73 C77 1.269 . S
O74 Zn71 1.986 . S
O74 C81 1.262 . S
O75 Zn70 2.049 . S
O75 C83 1.260 . S
O76 Zn71 1.996 1_545 S
O76 C83 1.257 . S
C77 O72 1.254 . S
C77 O73 1.269 . S
C78 O79 1.249 1_556 S
C78 O80 1.270 1_566 S
O79 Zn71 1.943 . S
O79 C78 1.249 1_554 S
O80 Zn70 2.067 . S
O80 C78 1.270 1_544 S
C81 O74 1.262 . S
C81 O82 1.232 . S
O82 C81 1.232 . S
C83 O75 1.260 . S
C83 O76 1.257 . S
Zn84 O87 2.031 . S
Zn84 O89 2.049 . S
Zn84 O94 2.067 . S
Zn85 O86 1.962 . S
Zn85 O88 1.986 . S
Zn85 O90 1.996 . S
Zn85 O93 1.943 . S
O86 Zn85 1.962 . S
O86 C91 1.254 . S
O87 Zn84 2.031 . S
O87 C91 1.269 . S
O88 Zn85 1.986 . S
O88 C95 1.262 . S
O89 Zn84 2.049 . S
O89 C97 1.260 . S
O90 Zn85 1.996 . S
O90 C97 1.257 . S
C91 O86 1.254 . S
C91 O87 1.269 . S
C92 O93 1.249 . S
C92 O94 1.270 . S
O93 Zn85 1.943 . S
O93 C92 1.249 . S
O94 Zn84 2.067 . S
O94 C92 1.270 . S
C95 O88 1.262 . S
C95 O96 1.232 . S
O96 C95 1.232 . S
C97 O89 1.260 . S
C97 O90 1.257 . S
Zn98 O101 2.031 . S
Zn98 O103 2.049 . S
Zn98 O108 2.067 . S
Zn99 O100 1.962 . S
Zn99 O102 1.986 . S
Zn99 O104 1.996 . S
Zn99 O107 1.943 . S
O100 Zn99 1.962 . S
O100 C105 1.254 . S
O101 Zn98 2.031 . S
O101 C105 1.269 . S
O102 Zn99 1.986 . S
O102 C109 1.262 1_565 S
O103 Zn98 2.049 . S
O103 C111 1.260 . S
O104 Zn99 1.996 . S
O104 C111 1.257 . S
C105 O100 1.254 . S
C105 O101 1.269 . S
C106 O107 1.249 . S
C106 O108 1.270 . S
O107 Zn99 1.943 . S
O107 C106 1.249 . S
O108 Zn98 2.067 . S
O108 C106 1.270 . S
C109 O102 1.262 1_545 S
C109 O110 1.232 . S
O110 C109 1.232 . S
C111 O103 1.260 . S
C111 O104 1.257 . S
Zn112 O115 2.031 . S
Zn112 O117 2.049 . S
Zn112 O122 2.067 . S
Zn113 O114 1.962 . S
Zn113 O116 1.986 . S
Zn113 O118 1.996 . S
Zn113 O121 1.943 . S
O114 Zn113 1.962 . S
O114 C119 1.254 . S
O115 Zn112 2.031 . S
O115 C119 1.269 . S
O116 Zn113 1.986 . S
O116 C123 1.262 . S
O117 Zn112 2.049 . S
O117 C125 1.260 . S
O118 Zn113 1.996 . S
O118 C125 1.257 . S
C119 O114 1.254 . S
C119 O115 1.269 . S
C120 O121 1.249 . S
C120 O122 1.270 . S
O121 Zn113 1.943 . S
O121 C120 1.249 . S
O122 Zn112 2.067 . S
O122 C120 1.270 . S
C123 O116 1.262 . S
C123 O124 1.232 . S
O124 C123 1.232 . S
C125 O117 1.260 . S
C125 O118 1.257 . S
Zn126 O129 2.031 . S
Zn126 O131 2.049 . S
Zn126 O136 2.067 . S
Zn127 O128 1.962 . S
Zn127 O130 1.986 . S
Zn127 O132 1.996 . S
Zn127 O135 1.943 . S
O128 Zn127 1.962 . S
O128 C133 1.254 . S
O129 Zn126 2.031 . S
O129 C133 1.269 . S
O130 Zn127 1.986 . S
O130 C137 1.262 . S
O131 Zn126 2.049 . S
O131 C139 1.260 . S
O132 Zn127 1.996 . S
O132 C139 1.257 . S
C133 O128 1.254 . S
C133 O129 1.269 . S
C134 O135 1.249 . S
C134 O136 1.270 . S
O135 Zn127 1.943 . S
O135 C134 1.249 . S
O136 Zn126 2.067 . S
O136 C134 1.270 . S
C137 O130 1.262 . S
C137 O138 1.232 . S
O138 C137 1.232 . S
C139 O131 1.260 . S
C139 O132 1.257 . S
Zn140 O143 2.031 . S
Zn140 O145 2.049 . S
Zn140 O150 2.067 . S
Zn141 O142 1.962 . S
Zn141 O144 1.986 . S
Zn141 O146 1.996 . S
Zn141 O149 1.943 . S
O142 Zn141 1.962 . S
O142 C147 1.254 . S
O143 Zn140 2.031 . S
O143 C147 1.269 . S
O144 Zn141 1.986 . S
O144 C151 1.262 . S
O145 Zn140 2.049 . S
O145 C153 1.260 . S
O146 Zn141 1.996 . S
O146 C153 1.257 . S
C147 O142 1.254 . S
C147 O143 1.269 . S
C148 O149 1.249 . S
C148 O150 1.270 . S
O149 Zn141 1.943 . S
O149 C148 1.249 . S
O150 Zn140 2.067 . S
O150 C148 1.270 . S
C151 O144 1.262 . S
C151 O152 1.232 . S
O152 C151 1.232 . S
C153 O145 1.260 . S
C153 O146 1.257 . S
Zn154 O157 2.031 . S
Zn154 O159 2.049 . S
Zn154 O164 2.067 . S
Zn155 O156 1.962 . S
Zn155 O158 1.986 . S
Zn155 O160 1.996 . S
Zn155 O163 1.943 . S
O156 Zn155 1.962 . S
O156 C161 1.254 . S
O157 Zn154 2.031 . S
O157 C161 1.269 . S
O158 Zn155 1.986 . S
O158 C165 1.262 . S
O159 Zn154 2.049 . S
O159 C167 1.260 . S
O160 Zn155 1.996 . S
O160 C167 1.257 . S
C161 O156 1.254 . S
C161 O157 1.269 . S
C162 O163 1.249 . S
C162 O164 1.270 . S
O163 Zn155 1.943 . S
O163 C162 1.249 . S
O164 Zn154 2.067 . S
O164 C162 1.270 . S
C165 O158 1.262 . S
C165 O166 1.232 . S
O166 C165 1.232 . S
C167 O159 1.260 . S
C167 O160 1.257 . S
Zn168 O171 2.031 . S
Zn168 O173 2.049 . S
Zn168 O178 2.067 . S
Zn169 O170 1.962 . S
Zn169 O172 1.986 . S
Zn169 O174 1.996 . S
Zn169 O177 1.943 . S
O170 Zn169 1.962 . S
O170 C175 1.254 . S
O171 Zn168 2.031 . S
O171 C175 1.269 . S
O172 Zn169 1.986 . S
O172 C179 1.262 . S
O173 Zn168 2.049 . S
O173 C181 1.260 . S
O174 Zn169 1.996 . S
O174 C181 1.257 . S
C175 O170 1.254 . S
C175 O171 1.269 . S
C176 O177 1.249 . S
C176 O178 1.270 . S
O177 Zn169 1.943 . S
O177 C176 1.249 . S
O178 Zn168 2.067 . S
O178 C176 1.270 . S
C179 O172 1.262 . S
C179 O180 1.232 . S
O180 C179 1.232 . S
C181 O173 1.260 . S
C181 O174 1.257 . S
Zn182 O185 2.031 . S
Zn182 O187 2.049 . S
Zn182 O192 2.067 . S
Zn183 O184 1.962 . S
Zn183 O186 1.986 . S
Zn183 O188 1.996 . S
Zn183 O191 1.943 . S
O184 Zn183 1.962 . S
O184 C189 1.254 . S
O185 Zn182 2.031 . S
O185 C189 1.269 . S
O186 Zn183 1.986 . S
O186 C193 1.262 . S
O187 Zn182 2.049 . S
O187 C195 1.260 . S
O188 Zn183 1.996 . S
O188 C195 1.257 . S
C189 O184 1.254 . S
C189 O185 1.269 . S
C190 O191 1.249 . S
C190 O192 1.270 . S
O191 Zn183 1.943 . S
O191 C190 1.249 . S
O192 Zn182 2.067 . S
O192 C190 1.270 . S
C193 O186 1.262 . S
C193 O194 1.232 . S
O194 C193 1.232 . S
C195 O187 1.260 . S
C195 O188 1.257 . S
Zn196 O199 2.031 . S
Zn196 O201 2.049 . S
Zn196 O206 2.067 . S
Zn197 O198 1.962 . S
Zn197 O200 1.986 . S
Zn197 O202 1.996 . S
Zn197 O205 1.943 . S
O198 Zn197 1.962 . S
O198 C203 1.254 . S
O199 Zn196 2.031 . S
O199 C203 1.269 . S
O200 Zn197 1.986 . S
O200 C207 1.262 . S
O201 Zn196 2.049 . S
O201 C209 1.260 . S
O202 Zn197 1.996 . S
O202 C209 1.257 . S
C203 O198 1.254 . S
C203 O199 1.269 . S
C204 O205 1.249 . S
C204 O206 1.270 . S
O205 Zn197 1.943 . S
O205 C204 1.249 . S
O206 Zn196 2.067 . S
O206 C204 1.270 . S
C207 O200 1.262 . S
C207 O208 1.232 . S
O208 C207 1.232 . S
C209 O201 1.260 . S
C209 O202 1.257 . S
Zn210 O213 2.031 . S
Zn210 O215 2.049 . S
Zn210 O220 2.067 . S
Zn211 O212 1.962 . S
Zn211 O214 1.986 . S
Zn211 O216 1.996 . S
Zn211 O219 1.943 . S
O212 Zn211 1.962 . S
O212 C217 1.254 . S
O213 Zn210 2.031 . S
O213 C217 1.269 . S
O214 Zn211 1.986 . S
O214 C221 1.262 . S
O215 Zn210 2.049 . S
O215 C223 1.260 . S
O216 Zn211 1.996 . S
O216 C223 1.257 . S
C217 O212 1.254 . S
C217 O213 1.269 . S
C218 O219 1.249 . S
C218 O220 1.270 . S
O219 Zn211 1.943 . S
O219 C218 1.249 . S
O220 Zn210 2.067 . S
O220 C218 1.270 . S
C221 O214 1.262 . S
C221 O222 1.232 . S
O222 C221 1.232 . S
C223 O215 1.260 . S
C223 O216 1.257 . S
Zn224 O227 2.031 . S
Zn224 O229 2.049 . S
Zn224 O234 2.067 . S
Zn225 O226 1.962 . S
Zn225 O228 1.986 . S
Zn225 O230 1.996 . S
Zn225 O233 1.943 . S
O226 Zn225 1.962 . S
O226 C231 1.254 . S
O227 Zn224 2.031 . S
O227 C231 1.269 . S
O228 Zn225 1.986 . S
O228 C235 1.262 1_545 S
O229 Zn224 2.049 . S
O229 C237 1.260 . S
O230 Zn225 1.996 . S
O230 C237 1.257 . S
C231 O226 1.254 . S
C231 O227 1.269 . S
C232 O233 1.249 . S
C232 O234 1.270 . S
O233 Zn225 1.943 . S
O233 C232 1.249 . S
O234 Zn224 2.067 . S
O234 C232 1.270 . S
C235 O228 1.262 1_565 S
C235 O236 1.232 . S
O236 C235 1.232 . S
C237 O229 1.260 . S
C237 O230 1.257 . S
Zn238 O241 2.031 . S
Zn238 O243 2.049 . S
Zn238 O248 2.067 . S
Zn239 O240 1.962 . S
Zn239 O242 1.986 . S
Zn239 O244 1.996 . S
Zn239 O247 1.943 . S
O240 Zn239 1.962 . S
O240 C245 1.254 . S
O241 Zn238 2.031 . S
O241 C245 1.269 . S
O242 Zn239 1.986 . S
O242 C249 1.262 . S
O243 Zn238 2.049 . S
O243 C251 1.260 . S
O244 Zn239 1.996 . S
O244 C251 1.257 . S
C245 O240 1.254 . S
C245 O241 1.269 . S
C246 O247 1.249 . S
C246 O248 1.270 . S
O247 Zn239 1.943 . S
O247 C246 1.249 . S
O248 Zn238 2.067 . S
O248 C246 1.270 . S
C249 O242 1.262 . S
C249 O250 1.232 . S
O250 C249 1.232 . S
C251 O243 1.260 . S
C251 O244 1.257 . S
H252 C279 0.929 . S
N253 C278 1.433 . S
N253 C284 1.435 . S
N253 C290 1.423 . S
H254 C280 0.930 . S
H255 C283 0.931 . S
H256 C282 0.929 . S
H257 C285 0.930 . S
H258 C286 0.932 . S
H259 C289 0.929 . S
H260 C288 0.931 . S
H261 C291 0.929 . S
H262 C295 0.932 . S
H263 C292 0.931 . S
H264 C294 0.929 . S
H265 C297 0.929 . S
H266 C298 0.930 . S
H267 C300 0.929 . S
H268 C301 0.931 . S
H269 C303 0.930 . S
H270 C304 0.932 . S
H271 C306 0.931 . S
H272 C307 0.929 . S
H273 C309 0.929 . S
H274 C310 0.931 . S
H275 C312 0.929 . S
N276 C296 1.433 . S
N276 C302 1.435 . S
N276 C308 1.423 . S
H277 C313 0.932 . S
C278 N253 1.433 . S
C278 C279 1.363 . S
C278 C283 1.370 . S
C279 H252 0.929 . S
C279 C278 1.363 . S
C279 C280 1.385 . S
C280 H254 0.930 . S
C280 C279 1.385 . S
C280 C281 1.357 . S
C281 C280 1.357 . S
C281 C282 1.406 . S
C282 H256 0.929 . S
C282 C281 1.406 . S
C282 C283 1.391 . S
C283 H255 0.931 . S
C283 C278 1.370 . S
C283 C282 1.391 . S
C284 N253 1.435 . S
C284 C285 1.358 . S
C284 C289 1.371 . S
C285 H257 0.930 . S
C285 C284 1.358 . S
C285 C286 1.405 . S
C286 H258 0.932 . S
C286 C285 1.405 . S
C286 C287 1.383 . S
C287 C286 1.383 . S
C287 C288 1.393 . S
C288 H260 0.931 . S
C288 C287 1.393 . S
C288 C289 1.382 . S
C289 H259 0.929 . S
C289 C284 1.371 . S
C289 C288 1.382 . S
C290 N253 1.423 . S
C290 C291 1.362 . S
C290 C295 1.388 . S
C291 H261 0.929 . S
C291 C290 1.362 . S
C291 C292 1.376 . S
C292 H263 0.931 . S
C292 C291 1.376 . S
C292 C293 1.396 . S
C293 C292 1.396 . S
C293 C294 1.348 . S
C293 C311 1.472 . S
C294 H264 0.929 . S
C294 C293 1.348 . S
C294 C295 1.443 . S
C295 H262 0.932 . S
C295 C290 1.388 . S
C295 C294 1.443 . S
C296 N276 1.433 . S
C296 C297 1.363 . S
C296 C301 1.370 . S
C297 H265 0.929 . S
C297 C296 1.363 . S
C297 C298 1.385 . S
C298 H266 0.930 . S
C298 C297 1.385 . S
C298 C299 1.357 . S
C299 C298 1.357 . S
C299 C300 1.406 . S
C300 H267 0.929 . S
C300 C299 1.406 . S
C300 C301 1.391 . S
C301 H268 0.931 . S
C301 C296 1.370 . S
C301 C300 1.391 . S
C302 N276 1.435 . S
C302 C303 1.358 . S
C302 C307 1.371 . S
C303 H269 0.930 . S
C303 C302 1.358 . S
C303 C304 1.405 . S
C304 H270 0.932 . S
C304 C303 1.405 . S
C304 C305 1.383 . S
C305 C304 1.383 . S
C305 C306 1.393 . S
C306 H271 0.931 . S
C306 C305 1.393 . S
C306 C307 1.382 . S
C307 H272 0.929 . S
C307 C302 1.371 . S
C307 C306 1.382 . S
C308 N276 1.423 . S
C308 C309 1.362 . S
C308 C313 1.388 . S
C309 H273 0.929 . S
C309 C308 1.362 . S
C309 C310 1.376 . S
C310 H274 0.931 . S
C310 C309 1.376 . S
C310 C311 1.396 . S
C311 C293 1.472 . S
C311 C310 1.396 . S
C311 C312 1.348 . S
C312 H275 0.929 . S
C312 C311 1.348 . S
C312 C313 1.443 . S
C313 H277 0.932 . S
C313 C308 1.388 . S
C313 C312 1.443 . S
H314 C341 0.929 . S
N315 C340 1.433 . S
N315 C346 1.435 . S
N315 C352 1.423 . S
H316 C342 0.930 . S
H317 C345 0.931 . S
H318 C344 0.929 . S
H319 C347 0.930 . S
H320 C348 0.932 . S
H321 C351 0.929 . S
H322 C350 0.931 . S
H323 C353 0.929 . S
H324 C357 0.932 . S
H325 C354 0.931 . S
H326 C356 0.929 . S
H327 C359 0.929 . S
H328 C360 0.930 . S
H329 C362 0.929 . S
H330 C363 0.931 . S
H331 C365 0.930 . S
H332 C366 0.932 . S
H333 C368 0.931 . S
H334 C369 0.929 . S
H335 C371 0.929 . S
H336 C372 0.931 . S
H337 C374 0.929 . S
N338 C358 1.433 . S
N338 C364 1.435 . S
N338 C370 1.423 . S
H339 C375 0.932 . S
C340 N315 1.433 . S
C340 C341 1.363 . S
C340 C345 1.370 . S
C341 H314 0.929 . S
C341 C340 1.363 . S
C341 C342 1.385 . S
C342 H316 0.930 . S
C342 C341 1.385 . S
C342 C343 1.357 . S
C343 C342 1.357 . S
C343 C344 1.406 . S
C344 H318 0.929 . S
C344 C343 1.406 . S
C344 C345 1.391 . S
C345 H317 0.931 . S
C345 C340 1.370 . S
C345 C344 1.391 . S
C346 N315 1.435 . S
C346 C347 1.358 . S
C346 C351 1.371 . S
C347 H319 0.930 . S
C347 C346 1.358 . S
C347 C348 1.405 . S
C348 H320 0.932 . S
C348 C347 1.405 . S
C348 C349 1.383 . S
C349 C348 1.383 . S
C349 C350 1.393 . S
C350 H322 0.931 . S
C350 C349 1.393 . S
C350 C351 1.382 . S
C351 H321 0.929 . S
C351 C346 1.371 . S
C351 C350 1.382 . S
C352 N315 1.423 . S
C352 C353 1.362 . S
C352 C357 1.388 . S
C353 H323 0.929 . S
C353 C352 1.362 . S
C353 C354 1.376 . S
C354 H325 0.931 . S
C354 C353 1.376 . S
C354 C355 1.396 . S
C355 C354 1.396 . S
C355 C356 1.348 . S
C355 C373 1.472 . S
C356 H326 0.929 . S
C356 C355 1.348 . S
C356 C357 1.443 . S
C357 H324 0.932 . S
C357 C352 1.388 . S
C357 C356 1.443 . S
C358 N338 1.433 . S
C358 C359 1.363 . S
C358 C363 1.370 . S
C359 H327 0.929 . S
C359 C358 1.363 . S
C359 C360 1.385 . S
C360 H328 0.930 . S
C360 C359 1.385 . S
C360 C361 1.357 . S
C361 C360 1.357 . S
C361 C362 1.406 . S
C362 H329 0.929 . S
C362 C361 1.406 . S
C362 C363 1.391 . S
C363 H330 0.931 . S
C363 C358 1.370 . S
C363 C362 1.391 . S
C364 N338 1.435 . S
C364 C365 1.358 . S
C364 C369 1.371 . S
C365 H331 0.930 . S
C365 C364 1.358 . S
C365 C366 1.405 . S
C366 H332 0.932 . S
C366 C365 1.405 . S
C366 C367 1.383 . S
C367 C366 1.383 . S
C367 C368 1.393 . S
C368 H333 0.931 . S
C368 C367 1.393 . S
C368 C369 1.382 . S
C369 H334 0.929 . S
C369 C364 1.371 . S
C369 C368 1.382 . S
C370 N338 1.423 . S
C370 C371 1.362 . S
C370 C375 1.388 . S
C371 H335 0.929 . S
C371 C370 1.362 . S
C371 C372 1.376 . S
C372 H336 0.931 . S
C372 C371 1.376 . S
C372 C373 1.396 . S
C373 C355 1.472 . S
C373 C372 1.396 . S
C373 C374 1.348 . S
C374 H337 0.929 . S
C374 C373 1.348 . S
C374 C375 1.443 . S
C375 H339 0.932 . S
C375 C370 1.388 . S
C375 C374 1.443 . S
H376 C403 0.929 . S
N377 C402 1.433 . S
N377 C408 1.435 . S
N377 C414 1.423 . S
H378 C404 0.930 . S
H379 C407 0.931 . S
H380 C406 0.929 . S
H381 C409 0.930 . S
H382 C410 0.932 . S
H383 C413 0.929 . S
H384 C412 0.931 . S
H385 C415 0.929 . S
H386 C419 0.932 . S
H387 C416 0.931 . S
H388 C418 0.929 . S
H389 C421 0.929 . S
H390 C422 0.930 . S
H391 C424 0.929 . S
H392 C425 0.931 . S
H393 C427 0.930 . S
H394 C428 0.932 . S
H395 C430 0.931 . S
H396 C431 0.929 . S
H397 C433 0.929 . S
H398 C434 0.931 . S
H399 C436 0.929 . S
N400 C420 1.433 . S
N400 C426 1.435 . S
N400 C432 1.423 . S
H401 C437 0.932 . S
C402 N377 1.433 . S
C402 C403 1.363 . S
C402 C407 1.370 . S
C403 H376 0.929 . S
C403 C402 1.363 . S
C403 C404 1.385 . S
C404 H378 0.930 . S
C404 C403 1.385 . S
C404 C405 1.357 . S
C405 C404 1.357 . S
C405 C406 1.406 . S
C406 H380 0.929 . S
C406 C405 1.406 . S
C406 C407 1.391 . S
C407 H379 0.931 . S
C407 C402 1.370 . S
C407 C406 1.391 . S
C408 N377 1.435 . S
C408 C409 1.358 . S
C408 C413 1.371 . S
C409 H381 0.930 . S
C409 C408 1.358 . S
C409 C410 1.405 . S
C410 H382 0.932 . S
C410 C409 1.405 . S
C410 C411 1.383 . S
C411 C410 1.383 . S
C411 C412 1.393 . S
C412 H384 0.931 . S
C412 C411 1.393 . S
C412 C413 1.382 . S
C413 H383 0.929 . S
C413 C408 1.371 . S
C413 C412 1.382 . S
C414 N377 1.423 . S
C414 C415 1.362 . S
C414 C419 1.388 . S
C415 H385 0.929 . S
C415 C414 1.362 . S
C415 C416 1.376 . S
C416 H387 0.931 . S
C416 C415 1.376 . S
C416 C417 1.396 . S
C417 C416 1.396 . S
C417 C418 1.348 . S
C417 C435 1.472 . S
C418 H388 0.929 . S
C418 C417 1.348 . S
C418 C419 1.443 . S
C419 H386 0.932 . S
C419 C414 1.388 . S
C419 C418 1.443 . S
C420 N400 1.433 . S
C420 C421 1.363 . S
C420 C425 1.370 . S
C421 H389 0.929 . S
C421 C420 1.363 . S
C421 C422 1.385 . S
C422 H390 0.930 . S
C422 C421 1.385 . S
C422 C423 1.357 . S
C423 C422 1.357 . S
C423 C424 1.406 . S
C424 H391 0.929 . S
C424 C423 1.406 . S
C424 C425 1.391 . S
C425 H392 0.931 . S
C425 C420 1.370 . S
C425 C424 1.391 . S
C426 N400 1.435 . S
C426 C427 1.358 . S
C426 C431 1.371 . S
C427 H393 0.930 . S
C427 C426 1.358 . S
C427 C428 1.405 . S
C428 H394 0.932 . S
C428 C427 1.405 . S
C428 C429 1.383 . S
C429 C428 1.383 . S
C429 C430 1.393 . S
C430 H395 0.931 . S
C430 C429 1.393 . S
C430 C431 1.382 . S
C431 H396 0.929 . S
C431 C426 1.371 . S
C431 C430 1.382 . S
C432 N400 1.423 . S
C432 C433 1.362 . S
C432 C437 1.388 . S
C433 H397 0.929 . S
C433 C432 1.362 . S
C433 C434 1.376 . S
C434 H398 0.931 . S
C434 C433 1.376 . S
C434 C435 1.396 . S
C435 C417 1.472 . S
C435 C434 1.396 . S
C435 C436 1.348 . S
C436 H399 0.929 . S
C436 C435 1.348 . S
C436 C437 1.443 . S
C437 H401 0.932 . S
C437 C432 1.388 . S
C437 C436 1.443 . S
H438 C465 0.929 . S
N439 C464 1.433 . S
N439 C470 1.435 . S
N439 C476 1.423 . S
H440 C466 0.930 . S
H441 C469 0.931 . S
H442 C468 0.929 . S
H443 C471 0.930 . S
H444 C472 0.932 . S
H445 C475 0.929 . S
H446 C474 0.931 . S
H447 C477 0.929 . S
H448 C481 0.932 . S
H449 C478 0.931 . S
H450 C480 0.929 . S
H451 C483 0.929 . S
H452 C484 0.930 . S
H453 C486 0.929 . S
H454 C487 0.931 . S
H455 C489 0.930 . S
H456 C490 0.932 . S
H457 C492 0.931 . S
H458 C493 0.929 . S
H459 C495 0.929 . S
H460 C496 0.931 . S
H461 C498 0.929 . S
N462 C482 1.433 . S
N462 C488 1.435 . S
N462 C494 1.423 . S
H463 C499 0.932 . S
C464 N439 1.433 . S
C464 C465 1.363 . S
C464 C469 1.370 . S
C465 H438 0.929 . S
C465 C464 1.363 . S
C465 C466 1.385 . S
C466 H440 0.930 . S
C466 C465 1.385 . S
C466 C467 1.357 . S
C467 C466 1.357 . S
C467 C468 1.406 . S
C468 H442 0.929 . S
C468 C467 1.406 . S
C468 C469 1.391 . S
C469 H441 0.931 . S
C469 C464 1.370 . S
C469 C468 1.391 . S
C470 N439 1.435 . S
C470 C471 1.358 . S
C470 C475 1.371 . S
C471 H443 0.930 . S
C471 C470 1.358 . S
C471 C472 1.405 . S
C472 H444 0.932 . S
C472 C471 1.405 . S
C472 C473 1.383 . S
C473 C472 1.383 . S
C473 C474 1.393 . S
C474 H446 0.931 . S
C474 C473 1.393 . S
C474 C475 1.382 . S
C475 H445 0.929 . S
C475 C470 1.371 . S
C475 C474 1.382 . S
C476 N439 1.423 . S
C476 C477 1.362 . S
C476 C481 1.388 . S
C477 H447 0.929 . S
C477 C476 1.362 . S
C477 C478 1.376 . S
C478 H449 0.931 . S
C478 C477 1.376 . S
C478 C479 1.396 . S
C479 C478 1.396 . S
C479 C480 1.348 . S
C479 C497 1.472 . S
C480 H450 0.929 . S
C480 C479 1.348 . S
C480 C481 1.443 . S
C481 H448 0.932 . S
C481 C476 1.388 . S
C481 C480 1.443 . S
C482 N462 1.433 . S
C482 C483 1.363 . S
C482 C487 1.370 . S
C483 H451 0.929 . S
C483 C482 1.363 . S
C483 C484 1.385 . S
C484 H452 0.930 . S
C484 C483 1.385 . S
C484 C485 1.357 . S
C485 C484 1.357 . S
C485 C486 1.406 . S
C486 H453 0.929 . S
C486 C485 1.406 . S
C486 C487 1.391 . S
C487 H454 0.931 . S
C487 C482 1.370 . S
C487 C486 1.391 . S
C488 N462 1.435 . S
C488 C489 1.358 . S
C488 C493 1.371 . S
C489 H455 0.930 . S
C489 C488 1.358 . S
C489 C490 1.405 . S
C490 H456 0.932 . S
C490 C489 1.405 . S
C490 C491 1.383 . S
C491 C490 1.383 . S
C491 C492 1.393 . S
C492 H457 0.931 . S
C492 C491 1.393 . S
C492 C493 1.382 . S
C493 H458 0.929 . S
C493 C488 1.371 . S
C493 C492 1.382 . S
C494 N462 1.423 . S
C494 C495 1.362 . S
C494 C499 1.388 . S
C495 H459 0.929 . S
C495 C494 1.362 . S
C495 C496 1.376 . S
C496 H460 0.931 . S
C496 C495 1.376 . S
C496 C497 1.396 . S
C497 C479 1.472 . S
C497 C496 1.396 . S
C497 C498 1.348 . S
C498 H461 0.929 . S
C498 C497 1.348 . S
C498 C499 1.443 . S
C499 H463 0.932 . S
C499 C494 1.388 . S
C499 C498 1.443 . S
H500 C527 0.929 . S
N501 C526 1.433 . S
N501 C532 1.435 . S
N501 C538 1.423 . S
H502 C528 0.930 . S
H503 C531 0.931 . S
H504 C530 0.929 . S
H505 C533 0.930 . S
H506 C534 0.932 . S
H507 C537 0.929 . S
H508 C536 0.931 . S
H509 C539 0.929 . S
H510 C543 0.932 . S
H511 C540 0.931 . S
H512 C542 0.929 . S
H513 C545 0.929 . S
H514 C546 0.930 . S
H515 C548 0.929 . S
H516 C549 0.931 . S
H517 C551 0.930 . S
H518 C552 0.932 . S
H519 C554 0.931 . S
H520 C555 0.929 . S
H521 C557 0.929 . S
H522 C558 0.931 . S
H523 C560 0.929 . S
N524 C544 1.433 . S
N524 C550 1.435 . S
N524 C556 1.423 . S
H525 C561 0.932 . S
C526 N501 1.433 . S
C526 C527 1.363 . S
C526 C531 1.370 . S
C527 H500 0.929 . S
C527 C526 1.363 . S
C527 C528 1.385 . S
C528 H502 0.930 . S
C528 C527 1.385 . S
C528 C529 1.357 . S
C529 C528 1.357 . S
C529 C530 1.406 . S
C530 H504 0.929 . S
C530 C529 1.406 . S
C530 C531 1.391 . S
C531 H503 0.931 . S
C531 C526 1.370 . S
C531 C530 1.391 . S
C532 N501 1.435 . S
C532 C533 1.358 . S
C532 C537 1.371 . S
C533 H505 0.930 . S
C533 C532 1.358 . S
C533 C534 1.405 . S
C534 H506 0.932 . S
C534 C533 1.405 . S
C534 C535 1.383 . S
C535 C534 1.383 . S
C535 C536 1.393 . S
C536 H508 0.931 . S
C536 C535 1.393 . S
C536 C537 1.382 . S
C537 H507 0.929 . S
C537 C532 1.371 . S
C537 C536 1.382 . S
C538 N501 1.423 . S
C538 C539 1.362 . S
C538 C543 1.388 . S
C539 H509 0.929 . S
C539 C538 1.362 . S
C539 C540 1.376 . S
C540 H511 0.931 . S
C540 C539 1.376 . S
C540 C541 1.396 . S
C541 C540 1.396 . S
C541 C542 1.348 . S
C541 C559 1.472 . S
C542 H512 0.929 . S
C542 C541 1.348 . S
C542 C543 1.443 . S
C543 H510 0.932 . S
C543 C538 1.388 . S
C543 C542 1.443 . S
C544 N524 1.433 . S
C544 C545 1.363 . S
C544 C549 1.370 . S
C545 H513 0.929 . S
C545 C544 1.363 . S
C545 C546 1.385 . S
C546 H514 0.930 . S
C546 C545 1.385 . S
C546 C547 1.357 . S
C547 C546 1.357 . S
C547 C548 1.406 . S
C548 H515 0.929 . S
C548 C547 1.406 . S
C548 C549 1.391 . S
C549 H516 0.931 . S
C549 C544 1.370 . S
C549 C548 1.391 . S
C550 N524 1.435 . S
C550 C551 1.358 . S
C550 C555 1.371 . S
C551 H517 0.930 . S
C551 C550 1.358 . S
C551 C552 1.405 . S
C552 H518 0.932 . S
C552 C551 1.405 . S
C552 C553 1.383 . S
C553 C552 1.383 . S
C553 C554 1.393 . S
C554 H519 0.931 . S
C554 C553 1.393 . S
C554 C555 1.382 . S
C555 H520 0.929 . S
C555 C550 1.371 . S
C555 C554 1.382 . S
C556 N524 1.423 . S
C556 C557 1.362 . S
C556 C561 1.388 . S
C557 H521 0.929 . S
C557 C556 1.362 . S
C557 C558 1.376 . S
C558 H522 0.931 . S
C558 C557 1.376 . S
C558 C559 1.396 . S
C559 C541 1.472 . S
C559 C558 1.396 . S
C559 C560 1.348 . S
C560 H523 0.929 . S
C560 C559 1.348 . S
C560 C561 1.443 . S
C561 H525 0.932 . S
C561 C556 1.388 . S
C561 C560 1.443 . S
H562 C589 0.929 . S
N563 C588 1.433 . S
N563 C594 1.435 . S
N563 C600 1.423 . S
H564 C590 0.930 . S
H565 C593 0.931 . S
H566 C592 0.929 . S
H567 C595 0.930 . S
H568 C596 0.932 . S
H569 C599 0.929 . S
H570 C598 0.931 . S
H571 C601 0.929 . S
H572 C605 0.932 . S
H573 C602 0.931 . S
H574 C604 0.929 . S
H575 C607 0.929 . S
H576 C608 0.930 . S
H577 C610 0.929 . S
H578 C611 0.931 . S
H579 C613 0.930 . S
H580 C614 0.932 . S
H581 C616 0.931 . S
H582 C617 0.929 . S
H583 C619 0.929 . S
H584 C620 0.931 . S
H585 C622 0.929 . S
N586 C606 1.433 . S
N586 C612 1.435 . S
N586 C618 1.423 . S
H587 C623 0.932 . S
C588 N563 1.433 . S
C588 C589 1.363 . S
C588 C593 1.370 . S
C589 H562 0.929 . S
C589 C588 1.363 . S
C589 C590 1.385 . S
C590 H564 0.930 . S
C590 C589 1.385 . S
C590 C591 1.357 . S
C591 C590 1.357 . S
C591 C592 1.406 . S
C592 H566 0.929 . S
C592 C591 1.406 . S
C592 C593 1.391 . S
C593 H565 0.931 . S
C593 C588 1.370 . S
C593 C592 1.391 . S
C594 N563 1.435 . S
C594 C595 1.358 . S
C594 C599 1.371 . S
C595 H567 0.930 . S
C595 C594 1.358 . S
C595 C596 1.405 . S
C596 H568 0.932 . S
C596 C595 1.405 . S
C596 C597 1.383 . S
C597 C596 1.383 . S
C597 C598 1.393 . S
C598 H570 0.931 . S
C598 C597 1.393 . S
C598 C599 1.382 . S
C599 H569 0.929 . S
C599 C594 1.371 . S
C599 C598 1.382 . S
C600 N563 1.423 . S
C600 C601 1.362 . S
C600 C605 1.388 . S
C601 H571 0.929 . S
C601 C600 1.362 . S
C601 C602 1.376 . S
C602 H573 0.931 . S
C602 C601 1.376 . S
C602 C603 1.396 . S
C603 C602 1.396 . S
C603 C604 1.348 . S
C603 C621 1.472 . S
C604 H574 0.929 . S
C604 C603 1.348 . S
C604 C605 1.443 . S
C605 H572 0.932 . S
C605 C600 1.388 . S
C605 C604 1.443 . S
C606 N586 1.433 . S
C606 C607 1.363 . S
C606 C611 1.370 . S
C607 H575 0.929 . S
C607 C606 1.363 . S
C607 C608 1.385 . S
C608 H576 0.930 . S
C608 C607 1.385 . S
C608 C609 1.357 . S
C609 C608 1.357 . S
C609 C610 1.406 . S
C610 H577 0.929 . S
C610 C609 1.406 . S
C610 C611 1.391 . S
C611 H578 0.931 . S
C611 C606 1.370 . S
C611 C610 1.391 . S
C612 N586 1.435 . S
C612 C613 1.358 . S
C612 C617 1.371 . S
C613 H579 0.930 . S
C613 C612 1.358 . S
C613 C614 1.405 . S
C614 H580 0.932 . S
C614 C613 1.405 . S
C614 C615 1.383 . S
C615 C614 1.383 . S
C615 C616 1.393 . S
C616 H581 0.931 . S
C616 C615 1.393 . S
C616 C617 1.382 . S
C617 H582 0.929 . S
C617 C612 1.371 . S
C617 C616 1.382 . S
C618 N586 1.423 . S
C618 C619 1.362 . S
C618 C623 1.388 . S
C619 H583 0.929 . S
C619 C618 1.362 . S
C619 C620 1.376 . S
C620 H584 0.931 . S
C620 C619 1.376 . S
C620 C621 1.396 . S
C621 C603 1.472 . S
C621 C620 1.396 . S
C621 C622 1.348 . S
C622 H585 0.929 . S
C622 C621 1.348 . S
C622 C623 1.443 . S
C623 H587 0.932 . S
C623 C618 1.388 . S
C623 C622 1.443 . S
H624 C651 0.929 . S
N625 C650 1.433 . S
N625 C656 1.435 . S
N625 C662 1.423 . S
H626 C652 0.930 . S
H627 C655 0.931 . S
H628 C654 0.929 . S
H629 C657 0.930 . S
H630 C658 0.932 . S
H631 C661 0.929 . S
H632 C660 0.931 . S
H633 C663 0.929 . S
H634 C667 0.932 . S
H635 C664 0.931 . S
H636 C666 0.929 . S
H637 C669 0.929 . S
H638 C670 0.930 . S
H639 C672 0.929 . S
H640 C673 0.931 . S
H641 C675 0.930 . S
H642 C676 0.932 . S
H643 C678 0.931 . S
H644 C679 0.929 . S
H645 C681 0.929 . S
H646 C682 0.931 . S
H647 C684 0.929 . S
N648 C668 1.433 . S
N648 C674 1.435 . S
N648 C680 1.423 . S
H649 C685 0.932 . S
C650 N625 1.433 . S
C650 C651 1.363 . S
C650 C655 1.370 . S
C651 H624 0.929 . S
C651 C650 1.363 . S
C651 C652 1.385 . S
C652 H626 0.930 . S
C652 C651 1.385 . S
C652 C653 1.357 . S
C653 C652 1.357 . S
C653 C654 1.406 . S
C654 H628 0.929 . S
C654 C653 1.406 . S
C654 C655 1.391 . S
C655 H627 0.931 . S
C655 C650 1.370 . S
C655 C654 1.391 . S
C656 N625 1.435 . S
C656 C657 1.358 . S
C656 C661 1.371 . S
C657 H629 0.930 . S
C657 C656 1.358 . S
C657 C658 1.405 . S
C658 H630 0.932 . S
C658 C657 1.405 . S
C658 C659 1.383 . S
C659 C658 1.383 . S
C659 C660 1.393 . S
C660 H632 0.931 . S
C660 C659 1.393 . S
C660 C661 1.382 . S
C661 H631 0.929 . S
C661 C656 1.371 . S
C661 C660 1.382 . S
C662 N625 1.423 . S
C662 C663 1.362 . S
C662 C667 1.388 . S
C663 H633 0.929 . S
C663 C662 1.362 . S
C663 C664 1.376 . S
C664 H635 0.931 . S
C664 C663 1.376 . S
C664 C665 1.396 . S
C665 C664 1.396 . S
C665 C666 1.348 . S
C665 C683 1.472 . S
C666 H636 0.929 . S
C666 C665 1.348 . S
C666 C667 1.443 . S
C667 H634 0.932 . S
C667 C662 1.388 . S
C667 C666 1.443 . S
C668 N648 1.433 . S
C668 C669 1.363 . S
C668 C673 1.370 . S
C669 H637 0.929 . S
C669 C668 1.363 . S
C669 C670 1.385 . S
C670 H638 0.930 . S
C670 C669 1.385 . S
C670 C671 1.357 . S
C671 C670 1.357 . S
C671 C672 1.406 . S
C672 H639 0.929 . S
C672 C671 1.406 . S
C672 C673 1.391 . S
C673 H640 0.931 . S
C673 C668 1.370 . S
C673 C672 1.391 . S
C674 N648 1.435 . S
C674 C675 1.358 . S
C674 C679 1.371 . S
C675 H641 0.930 . S
C675 C674 1.358 . S
C675 C676 1.405 . S
C676 H642 0.932 . S
C676 C675 1.405 . S
C676 C677 1.383 . S
C677 C676 1.383 . S
C677 C678 1.393 . S
C678 H643 0.931 . S
C678 C677 1.393 . S
C678 C679 1.382 . S
C679 H644 0.929 . S
C679 C674 1.371 . S
C679 C678 1.382 . S
C680 N648 1.423 . S
C680 C681 1.362 . S
C680 C685 1.388 . S
C681 H645 0.929 . S
C681 C680 1.362 . S
C681 C682 1.376 . S
C682 H646 0.931 . S
C682 C681 1.376 . S
C682 C683 1.396 . S
C683 C665 1.472 . S
C683 C682 1.396 . S
C683 C684 1.348 . S
C684 H647 0.929 . S
C684 C683 1.348 . S
C684 C685 1.443 . S
C685 H649 0.932 . S
C685 C680 1.388 . S
C685 C684 1.443 . S
H686 C713 0.929 . S
N687 C712 1.433 . S
N687 C718 1.435 . S
N687 C724 1.423 . S
H688 C714 0.930 . S
H689 C717 0.931 . S
H690 C716 0.929 . S
H691 C719 0.930 . S
H692 C720 0.932 . S
H693 C723 0.929 . S
H694 C722 0.931 . S
H695 C725 0.929 . S
H696 C729 0.932 . S
H697 C726 0.931 . S
H698 C728 0.929 . S
H699 C731 0.929 . S
H700 C732 0.930 . S
H701 C734 0.929 . S
H702 C735 0.931 . S
H703 C737 0.930 . S
H704 C738 0.932 . S
H705 C740 0.931 . S
H706 C741 0.929 . S
H707 C743 0.929 . S
H708 C744 0.931 . S
H709 C746 0.929 . S
N710 C730 1.433 . S
N710 C736 1.435 . S
N710 C742 1.423 . S
H711 C747 0.932 . S
C712 N687 1.433 . S
C712 C713 1.363 . S
C712 C717 1.370 . S
C713 H686 0.929 . S
C713 C712 1.363 . S
C713 C714 1.385 . S
C714 H688 0.930 . S
C714 C713 1.385 . S
C714 C715 1.357 . S
C715 C714 1.357 . S
C715 C716 1.406 . S
C716 H690 0.929 . S
C716 C715 1.406 . S
C716 C717 1.391 . S
C717 H689 0.931 . S
C717 C712 1.370 . S
C717 C716 1.391 . S
C718 N687 1.435 . S
C718 C719 1.358 . S
C718 C723 1.371 . S
C719 H691 0.930 . S
C719 C718 1.358 . S
C719 C720 1.405 . S
C720 H692 0.932 . S
C720 C719 1.405 . S
C720 C721 1.383 . S
C721 C720 1.383 . S
C721 C722 1.393 . S
C722 H694 0.931 . S
C722 C721 1.393 . S
C722 C723 1.382 . S
C723 H693 0.929 . S
C723 C718 1.371 . S
C723 C722 1.382 . S
C724 N687 1.423 . S
C724 C725 1.362 . S
C724 C729 1.388 . S
C725 H695 0.929 . S
C725 C724 1.362 . S
C725 C726 1.376 . S
C726 H697 0.931 . S
C726 C725 1.376 . S
C726 C727 1.396 . S
C727 C726 1.396 . S
C727 C728 1.348 . S
C727 C745 1.472 . S
C728 H698 0.929 . S
C728 C727 1.348 . S
C728 C729 1.443 . S
C729 H696 0.932 . S
C729 C724 1.388 . S
C729 C728 1.443 . S
C730 N710 1.433 . S
C730 C731 1.363 . S
C730 C735 1.370 . S
C731 H699 0.929 . S
C731 C730 1.363 . S
C731 C732 1.385 . S
C732 H700 0.930 . S
C732 C731 1.385 . S
C732 C733 1.357 . S
C733 C732 1.357 . S
C733 C734 1.406 . S
C734 H701 0.929 . S
C734 C733 1.406 . S
C734 C735 1.391 . S
C735 H702 0.931 . S
C735 C730 1.370 . S
C735 C734 1.391 . S
C736 N710 1.435 . S
C736 C737 1.358 . S
C736 C741 1.371 . S
C737 H703 0.930 . S
C737 C736 1.358 . S
C737 C738 1.405 . S
C738 H704 0.932 . S
C738 C737 1.405 . S
C738 C739 1.383 . S
C739 C738 1.383 . S
C739 C740 1.393 . S
C740 H705 0.931 . S
C740 C739 1.393 . S
C740 C741 1.382 . S
C741 H706 0.929 . S
C741 C736 1.371 . S
C741 C740 1.382 . S
C742 N710 1.423 . S
C742 C743 1.362 . S
C742 C747 1.388 . S
C743 H707 0.929 . S
C743 C742 1.362 . S
C743 C744 1.376 . S
C744 H708 0.931 . S
C744 C743 1.376 . S
C744 C745 1.396 . S
C745 C727 1.472 . S
C745 C744 1.396 . S
C745 C746 1.348 . S
C746 H709 0.929 . S
C746 C745 1.348 . S
C746 C747 1.443 . S
C747 H711 0.932 . S
C747 C742 1.388 . S
C747 C746 1.443 . S
H748 C775 0.929 . S
N749 C774 1.433 . S
N749 C780 1.435 . S
N749 C786 1.423 . S
H750 C776 0.930 . S
H751 C779 0.931 . S
H752 C778 0.929 . S
H753 C781 0.930 . S
H754 C782 0.932 . S
H755 C785 0.929 . S
H756 C784 0.931 . S
H757 C787 0.929 . S
H758 C791 0.932 . S
H759 C788 0.931 . S
H760 C790 0.929 . S
H761 C793 0.929 . S
H762 C794 0.930 . S
H763 C796 0.929 . S
H764 C797 0.931 . S
H765 C799 0.930 . S
H766 C800 0.932 . S
H767 C802 0.931 . S
H768 C803 0.929 . S
H769 C805 0.929 . S
H770 C806 0.931 . S
H771 C808 0.929 . S
N772 C792 1.433 . S
N772 C798 1.435 . S
N772 C804 1.423 . S
H773 C809 0.932 . S
C774 N749 1.433 . S
C774 C775 1.363 . S
C774 C779 1.370 . S
C775 H748 0.929 . S
C775 C774 1.363 . S
C775 C776 1.385 . S
C776 H750 0.930 . S
C776 C775 1.385 . S
C776 C777 1.357 . S
C777 C776 1.357 . S
C777 C778 1.406 . S
C778 H752 0.929 . S
C778 C777 1.406 . S
C778 C779 1.391 . S
C779 H751 0.931 . S
C779 C774 1.370 . S
C779 C778 1.391 . S
C780 N749 1.435 . S
C780 C781 1.358 . S
C780 C785 1.371 . S
C781 H753 0.930 . S
C781 C780 1.358 . S
C781 C782 1.405 . S
C782 H754 0.932 . S
C782 C781 1.405 . S
C782 C783 1.383 . S
C783 C782 1.383 . S
C783 C784 1.393 . S
C784 H756 0.931 . S
C784 C783 1.393 . S
C784 C785 1.382 . S
C785 H755 0.929 . S
C785 C780 1.371 . S
C785 C784 1.382 . S
C786 N749 1.423 . S
C786 C787 1.362 . S
C786 C791 1.388 . S
C787 H757 0.929 . S
C787 C786 1.362 . S
C787 C788 1.376 . S
C788 H759 0.931 . S
C788 C787 1.376 . S
C788 C789 1.396 . S
C789 C788 1.396 . S
C789 C790 1.348 . S
C789 C807 1.472 . S
C790 H760 0.929 . S
C790 C789 1.348 . S
C790 C791 1.443 . S
C791 H758 0.932 . S
C791 C786 1.388 . S
C791 C790 1.443 . S
C792 N772 1.433 . S
C792 C793 1.363 . S
C792 C797 1.370 . S
C793 H761 0.929 . S
C793 C792 1.363 . S
C793 C794 1.385 . S
C794 H762 0.930 . S
C794 C793 1.385 . S
C794 C795 1.357 . S
C795 C794 1.357 . S
C795 C796 1.406 . S
C796 H763 0.929 . S
C796 C795 1.406 . S
C796 C797 1.391 . S
C797 H764 0.931 . S
C797 C792 1.370 . S
C797 C796 1.391 . S
C798 N772 1.435 . S
C798 C799 1.358 . S
C798 C803 1.371 . S
C799 H765 0.930 . S
C799 C798 1.358 . S
C799 C800 1.405 . S
C800 H766 0.932 . S
C800 C799 1.405 . S
C800 C801 1.383 . S
C801 C800 1.383 . S
C801 C802 1.393 . S
C802 H767 0.931 . S
C802 C801 1.393 . S
C802 C803 1.382 . S
C803 H768 0.929 . S
C803 C798 1.371 . S
C803 C802 1.382 . S
C804 N772 1.423 . S
C804 C805 1.362 . S
C804 C809 1.388 . S
C805 H769 0.929 . S
C805 C804 1.362 . S
C805 C806 1.376 . S
C806 H770 0.931 . S
C806 C805 1.376 . S
C806 C807 1.396 . S
C807 C789 1.472 . S
C807 C806 1.396 . S
C807 C808 1.348 . S
C808 H771 0.929 . S
C808 C807 1.348 . S
C808 C809 1.443 . S
C809 H773 0.932 . S
C809 C804 1.388 . S
C809 C808 1.443 . S
H810 C837 0.929 . S
N811 C836 1.433 . S
N811 C842 1.435 . S
N811 C848 1.423 . S
H812 C838 0.930 . S
H813 C841 0.931 . S
H814 C840 0.929 . S
H815 C843 0.930 . S
H816 C844 0.932 . S
H817 C847 0.929 . S
H818 C846 0.931 . S
H819 C849 0.929 . S
H820 C853 0.932 1_655 S
H821 C850 0.931 . S
H822 C852 0.929 . S
H823 C855 0.929 . S
H824 C856 0.930 . S
H825 C858 0.929 . S
H826 C859 0.931 . S
H827 C861 0.930 . S
H828 C862 0.932 . S
H829 C864 0.931 . S
H830 C865 0.929 . S
H831 C867 0.929 . S
H832 C868 0.931 . S
H833 C870 0.929 . S
N834 C854 1.433 . S
N834 C860 1.435 . S
N834 C866 1.423 . S
H835 C871 0.932 1_655 S
C836 N811 1.433 . S
C836 C837 1.363 . S
C836 C841 1.370 1_455 S
C837 H810 0.929 . S
C837 C836 1.363 . S
C837 C838 1.385 . S
C838 H812 0.930 . S
C838 C837 1.385 . S
C838 C839 1.357 1_455 S
C839 C838 1.357 1_655 S
C839 C840 1.406 . S
C840 H814 0.929 . S
C840 C839 1.406 . S
C840 C841 1.391 . S
C841 H813 0.931 . S
C841 C836 1.370 1_655 S
C841 C840 1.391 . S
C842 N811 1.435 . S
C842 C843 1.358 1_455 S
C842 C847 1.371 . S
C843 H815 0.930 . S
C843 C842 1.358 1_655 S
C843 C844 1.405 . S
C844 H816 0.932 . S
C844 C843 1.405 . S
C844 C845 1.383 1_655 S
C845 C844 1.383 1_455 S
C845 C846 1.393 . S
C846 H818 0.931 . S
C846 C845 1.393 . S
C846 C847 1.382 . S
C847 H817 0.929 . S
C847 C842 1.371 . S
C847 C846 1.382 . S
C848 N811 1.423 . S
C848 C849 1.362 . S
C848 C853 1.388 . S
C849 H819 0.929 . S
C849 C848 1.362 . S
C849 C850 1.376 . S
C850 H821 0.931 . S
C850 C849 1.376 . S
C850 C851 1.396 . S
C851 C850 1.396 . S
C851 C852 1.348 . S
C851 C869 1.472 . S
C852 H822 0.929 . S
C852 C851 1.348 . S
C852 C853 1.443 . S
C853 H820 0.932 1_455 S
C853 C848 1.388 . S
C853 C852 1.443 . S
C854 N834 1.433 . S
C854 C855 1.363 . S
C854 C859 1.370 1_455 S
C855 H823 0.929 . S
C855 C854 1.363 . S
C855 C856 1.385 . S
C856 H824 0.930 . S
C856 C855 1.385 . S
C856 C857 1.357 1_455 S
C857 C856 1.357 1_655 S
C857 C858 1.406 . S
C858 H825 0.929 . S
C858 C857 1.406 . S
C858 C859 1.391 . S
C859 H826 0.931 . S
C859 C854 1.370 1_655 S
C859 C858 1.391 . S
C860 N834 1.435 . S
C860 C861 1.358 1_455 S
C860 C865 1.371 . S
C861 H827 0.930 . S
C861 C860 1.358 1_655 S
C861 C862 1.405 . S
C862 H828 0.932 . S
C862 C861 1.405 . S
C862 C863 1.383 1_655 S
C863 C862 1.383 1_455 S
C863 C864 1.393 . S
C864 H829 0.931 . S
C864 C863 1.393 . S
C864 C865 1.382 . S
C865 H830 0.929 . S
C865 C860 1.371 . S
C865 C864 1.382 . S
C866 N834 1.423 . S
C866 C867 1.362 . S
C866 C871 1.388 . S
C867 H831 0.929 . S
C867 C866 1.362 . S
C867 C868 1.376 . S
C868 H832 0.931 . S
C868 C867 1.376 . S
C868 C869 1.396 . S
C869 C851 1.472 . S
C869 C868 1.396 . S
C869 C870 1.348 . S
C870 H833 0.929 . S
C870 C869 1.348 . S
C870 C871 1.443 . S
C871 H835 0.932 1_455 S
C871 C866 1.388 . S
C871 C870 1.443 . S
H872 C899 0.929 . S
N873 C898 1.433 . S
N873 C904 1.435 . S
N873 C910 1.423 . S
H874 C900 0.930 . S
H875 C903 0.931 . S
H876 C902 0.929 . S
H877 C905 0.930 . S
H878 C906 0.932 . S
H879 C909 0.929 . S
H880 C908 0.931 . S
H881 C911 0.929 . S
H882 C915 0.932 . S
H883 C912 0.931 . S
H884 C914 0.929 . S
H885 C917 0.929 . S
H886 C918 0.930 . S
H887 C920 0.929 . S
H888 C921 0.931 . S
H889 C923 0.930 . S
H890 C924 0.932 . S
H891 C926 0.931 . S
H892 C927 0.929 . S
H893 C929 0.929 . S
H894 C930 0.931 . S
H895 C932 0.929 . S
N896 C916 1.433 . S
N896 C922 1.435 . S
N896 C928 1.423 . S
H897 C933 0.932 . S
C898 N873 1.433 . S
C898 C899 1.363 . S
C898 C903 1.370 . S
C899 H872 0.929 . S
C899 C898 1.363 . S
C899 C900 1.385 . S
C900 H874 0.930 . S
C900 C899 1.385 . S
C900 C901 1.357 . S
C901 C900 1.357 . S
C901 C902 1.406 . S
C902 H876 0.929 . S
C902 C901 1.406 . S
C902 C903 1.391 . S
C903 H875 0.931 . S
C903 C898 1.370 . S
C903 C902 1.391 . S
C904 N873 1.435 . S
C904 C905 1.358 . S
C904 C909 1.371 . S
C905 H877 0.930 . S
C905 C904 1.358 . S
C905 C906 1.405 . S
C906 H878 0.932 . S
C906 C905 1.405 . S
C906 C907 1.383 . S
C907 C906 1.383 . S
C907 C908 1.393 . S
C908 H880 0.931 . S
C908 C907 1.393 . S
C908 C909 1.382 . S
C909 H879 0.929 . S
C909 C904 1.371 . S
C909 C908 1.382 . S
C910 N873 1.423 . S
C910 C911 1.362 . S
C910 C915 1.388 . S
C911 H881 0.929 . S
C911 C910 1.362 . S
C911 C912 1.376 . S
C912 H883 0.931 . S
C912 C911 1.376 . S
C912 C913 1.396 . S
C913 C912 1.396 . S
C913 C914 1.348 . S
C913 C931 1.472 . S
C914 H884 0.929 . S
C914 C913 1.348 . S
C914 C915 1.443 . S
C915 H882 0.932 . S
C915 C910 1.388 . S
C915 C914 1.443 . S
C916 N896 1.433 . S
C916 C917 1.363 . S
C916 C921 1.370 . S
C917 H885 0.929 . S
C917 C916 1.363 . S
C917 C918 1.385 . S
C918 H886 0.930 . S
C918 C917 1.385 . S
C918 C919 1.357 . S
C919 C918 1.357 . S
C919 C920 1.406 . S
C920 H887 0.929 . S
C920 C919 1.406 . S
C920 C921 1.391 . S
C921 H888 0.931 . S
C921 C916 1.370 . S
C921 C920 1.391 . S
C922 N896 1.435 . S
C922 C923 1.358 . S
C922 C927 1.371 . S
C923 H889 0.930 . S
C923 C922 1.358 . S
C923 C924 1.405 . S
C924 H890 0.932 . S
C924 C923 1.405 . S
C924 C925 1.383 . S
C925 C924 1.383 . S
C925 C926 1.393 . S
C926 H891 0.931 . S
C926 C925 1.393 . S
C926 C927 1.382 . S
C927 H892 0.929 . S
C927 C922 1.371 . S
C927 C926 1.382 . S
C928 N896 1.423 . S
C928 C929 1.362 . S
C928 C933 1.388 . S
C929 H893 0.929 . S
C929 C928 1.362 . S
C929 C930 1.376 . S
C930 H894 0.931 . S
C930 C929 1.376 . S
C930 C931 1.396 . S
C931 C913 1.472 . S
C931 C930 1.396 . S
C931 C932 1.348 . S
C932 H895 0.929 . S
C932 C931 1.348 . S
C932 C933 1.443 . S
C933 H897 0.932 . S
C933 C928 1.388 . S
C933 C932 1.443 . S
H934 C961 0.929 . S
N935 C960 1.433 . S
N935 C966 1.435 . S
N935 C972 1.423 . S
H936 C962 0.930 . S
H937 C965 0.931 . S
H938 C964 0.929 . S
H939 C967 0.930 . S
H940 C968 0.932 . S
H941 C971 0.929 . S
H942 C970 0.931 . S
H943 C973 0.929 . S
H944 C977 0.932 1_545 S
H945 C974 0.931 . S
H946 C976 0.929 . S
H947 C979 0.929 . S
H948 C980 0.930 . S
H949 C982 0.929 . S
H950 C983 0.931 . S
H951 C985 0.930 . S
H952 C986 0.932 . S
H953 C988 0.931 . S
H954 C989 0.929 . S
H955 C991 0.929 . S
H956 C992 0.931 . S
H957 C994 0.929 . S
N958 C978 1.433 . S
N958 C984 1.435 . S
N958 C990 1.423 . S
H959 C995 0.932 1_545 S
C960 N935 1.433 . S
C960 C961 1.363 . S
C960 C965 1.370 1_565 S
C961 H934 0.929 . S
C961 C960 1.363 . S
C961 C962 1.385 . S
C962 H936 0.930 . S
C962 C961 1.385 . S
C962 C963 1.357 1_565 S
C963 C962 1.357 1_545 S
C963 C964 1.406 . S
C964 H938 0.929 . S
C964 C963 1.406 . S
C964 C965 1.391 . S
C965 H937 0.931 . S
C965 C960 1.370 1_545 S
C965 C964 1.391 . S
C966 N935 1.435 . S
C966 C967 1.358 1_565 S
C966 C971 1.371 . S
C967 H939 0.930 . S
C967 C966 1.358 1_545 S
C967 C968 1.405 . S
C968 H940 0.932 . S
C968 C967 1.405 . S
C968 C969 1.383 1_545 S
C969 C968 1.383 1_565 S
C969 C970 1.393 . S
C970 H942 0.931 . S
C970 C969 1.393 . S
C970 C971 1.382 . S
C971 H941 0.929 . S
C971 C966 1.371 . S
C971 C970 1.382 . S
C972 N935 1.423 . S
C972 C973 1.362 . S
C972 C977 1.388 . S
C973 H943 0.929 . S
C973 C972 1.362 . S
C973 C974 1.376 . S
C974 H945 0.931 . S
C974 C973 1.376 . S
C974 C975 1.396 . S
C975 C974 1.396 . S
C975 C976 1.348 . S
C975 C993 1.472 . S
C976 H946 0.929 . S
C976 C975 1.348 . S
C976 C977 1.443 . S
C977 H944 0.932 1_565 S
C977 C972 1.388 . S
C977 C976 1.443 . S
C978 N958 1.433 . S
C978 C979 1.363 . S
C978 C983 1.370 1_565 S
C979 H947 0.929 . S
C979 C978 1.363 . S
C979 C980 1.385 . S
C980 H948 0.930 . S
C980 C979 1.385 . S
C980 C981 1.357 1_565 S
C981 C980 1.357 1_545 S
C981 C982 1.406 . S
C982 H949 0.929 . S
C982 C981 1.406 . S
C982 C983 1.391 . S
C983 H950 0.931 . S
C983 C978 1.370 1_545 S
C983 C982 1.391 . S
C984 N958 1.435 . S
C984 C985 1.358 1_565 S
C984 C989 1.371 . S
C985 H951 0.930 . S
C985 C984 1.358 1_545 S
C985 C986 1.405 . S
C986 H952 0.932 . S
C986 C985 1.405 . S
C986 C987 1.383 1_545 S
C987 C986 1.383 1_565 S
C987 C988 1.393 . S
C988 H953 0.931 . S
C988 C987 1.393 . S
C988 C989 1.382 . S
C989 H954 0.929 . S
C989 C984 1.371 . S
C989 C988 1.382 . S
C990 N958 1.423 . S
C990 C991 1.362 . S
C990 C995 1.388 . S
C991 H955 0.929 . S
C991 C990 1.362 . S
C991 C992 1.376 . S
C992 H956 0.931 . S
C992 C991 1.376 . S
C992 C993 1.396 . S
C993 C975 1.472 . S
C993 C992 1.396 . S
C993 C994 1.348 . S
C994 H957 0.929 . S
C994 C993 1.348 . S
C994 C995 1.443 . S
C995 H959 0.932 1_565 S
C995 C990 1.388 . S
C995 C994 1.443 . S
H996 C1023 0.929 . S
N997 C1022 1.433 . S
N997 C1028 1.435 . S
N997 C1034 1.423 . S
H998 C1024 0.930 . S
H999 C1027 0.931 . S
H1000 C1026 0.929 . S
H1001 C1029 0.930 . S
H1002 C1030 0.932 . S
H1003 C1033 0.929 . S
H1004 C1032 0.931 . S
H1005 C1035 0.929 . S
H1006 C1039 0.932 . S
H1007 C1036 0.931 . S
H1008 C1038 0.923 1_545 S
H1009 C1041 0.929 . S
H1010 C1042 0.930 . S
H1011 C1044 0.959 . S
H1012 C1045 0.943 . S
H1013 C1047 0.930 . S
H1014 C1048 0.932 . S
H1015 C1050 0.931 . S
H1016 C1051 0.929 . S
H1017 C1053 0.929 . S
H1018 C1054 0.931 . S
H1019 C1056 0.877 1_545 S
N1020 C1040 1.433 . S
N1020 C1046 1.435 . S
N1020 C1052 1.423 . S
H1021 C1057 0.951 . S
C1022 N997 1.433 . S
C1022 C1023 1.363 . S
C1022 C1027 1.370 1_565 S
C1023 H996 0.929 . S
C1023 C1022 1.363 . S
C1023 C1024 1.385 . S
C1024 H998 0.930 . S
C1024 C1023 1.385 . S
C1024 C1025 1.357 . S
C1025 C1024 1.357 . S
C1025 C1026 1.406 1_565 S
C1026 H1000 0.929 . S
C1026 C1025 1.406 1_545 S
C1026 C1027 1.391 . S
C1027 H999 0.931 . S
C1027 C1022 1.370 1_545 S
C1027 C1026 1.391 . S
C1028 N997 1.435 . S
C1028 C1029 1.358 1_565 S
C1028 C1033 1.371 . S
C1029 H1001 0.930 . S
C1029 C1028 1.358 1_545 S
C1029 C1030 1.405 . S
C1030 H1002 0.932 . S
C1030 C1029 1.405 . S
C1030 C1031 1.383 . S
C1031 C1030 1.383 . S
C1031 C1032 1.393 1_545 S
C1032 H1004 0.931 . S
C1032 C1031 1.393 1_565 S
C1032 C1033 1.382 . S
C1033 H1003 0.929 . S
C1033 C1028 1.371 . S
C1033 C1032 1.382 . S
C1034 N997 1.423 . S
C1034 C1035 1.362 . S
C1034 C1039 1.388 1_565 S
C1035 H1005 0.929 . S
C1035 C1034 1.362 . S
C1035 C1036 1.376 . S
C1036 H1007 0.931 . S
C1036 C1035 1.376 . S
C1036 C1037 1.396 . S
C1037 C1036 1.396 . S
C1037 C1038 1.377 . S
C1037 C1055 1.472 . S
C1038 H1008 0.923 1_565 S
C1038 C1037 1.377 . S
C1038 C1039 1.421 1_565 S
C1039 H1006 0.932 . S
C1039 C1034 1.388 1_545 S
C1039 C1038 1.421 1_545 S
C1040 N1020 1.433 . S
C1040 C1041 1.363 . S
C1040 C1045 1.360 1_565 S
C1041 H1009 0.929 . S
C1041 C1040 1.363 . S
C1041 C1042 1.385 . S
C1042 H1010 0.930 . S
C1042 C1041 1.385 . S
C1042 C1043 1.357 . S
C1043 C1042 1.357 . S
C1043 C1044 1.370 1_565 S
C1044 H1011 0.959 . S
C1044 C1043 1.370 1_545 S
C1044 C1045 1.396 . S
C1045 H1012 0.943 . S
C1045 C1040 1.360 1_545 S
C1045 C1044 1.396 . S
C1046 N1020 1.435 . S
C1046 C1047 1.358 1_565 S
C1046 C1051 1.371 . S
C1047 H1013 0.930 . S
C1047 C1046 1.358 1_545 S
C1047 C1048 1.405 . S
C1048 H1014 0.932 . S
C1048 C1047 1.405 . S
C1048 C1049 1.383 . S
C1049 C1048 1.383 . S
C1049 C1050 1.393 1_545 S
C1050 H1015 0.931 . S
C1050 C1049 1.393 1_565 S
C1050 C1051 1.382 . S
C1051 H1016 0.929 . S
C1051 C1046 1.371 . S
C1051 C1050 1.382 . S
C1052 N1020 1.423 . S
C1052 C1053 1.362 . S
C1052 C1057 1.346 1_565 S
C1053 H1017 0.929 . S
C1053 C1052 1.362 . S
C1053 C1054 1.376 . S
C1054 H1018 0.931 . S
C1054 C1053 1.376 . S
C1054 C1055 1.396 . S
C1055 C1037 1.472 . S
C1055 C1054 1.396 . S
C1055 C1056 1.368 . S
C1056 H1019 0.877 1_565 S
C1056 C1055 1.368 . S
C1056 C1057 1.505 1_565 S
C1057 H1021 0.951 . S
C1057 C1052 1.346 1_545 S
C1057 C1056 1.505 1_545 S
H1058 C1085 0.929 . S
N1059 C1084 1.433 . S
N1059 C1090 1.435 . S
N1059 C1096 1.423 . S
H1060 C1086 0.930 . S
H1061 C1089 0.931 . S
H1062 C1088 0.929 . S
H1063 C1091 0.930 . S
H1064 C1092 0.932 . S
H1065 C1095 0.929 . S
H1066 C1094 0.931 . S
H1067 C1097 0.929 . S
H1068 C1101 0.932 1_455 S
H1069 C1098 0.931 . S
H1070 C1100 0.929 . S
H1071 C1103 0.929 . S
H1072 C1104 0.930 . S
H1073 C1106 0.929 . S
H1074 C1107 0.931 . S
H1075 C1109 0.930 . S
H1076 C1110 0.932 . S
H1077 C1112 0.931 . S
H1078 C1113 0.929 . S
H1079 C1115 0.929 . S
H1080 C1116 0.931 . S
H1081 C1118 0.929 . S
N1082 C1102 1.433 . S
N1082 C1108 1.435 . S
N1082 C1114 1.423 . S
H1083 C1119 0.932 1_455 S
C1084 N1059 1.433 . S
C1084 C1085 1.363 . S
C1084 C1089 1.370 1_655 S
C1085 H1058 0.929 . S
C1085 C1084 1.363 . S
C1085 C1086 1.385 . S
C1086 H1060 0.930 . S
C1086 C1085 1.385 . S
C1086 C1087 1.357 1_655 S
C1087 C1086 1.357 1_455 S
C1087 C1088 1.406 . S
C1088 H1062 0.929 . S
C1088 C1087 1.406 . S
C1088 C1089 1.391 . S
C1089 H1061 0.931 . S
C1089 C1084 1.370 1_455 S
C1089 C1088 1.391 . S
C1090 N1059 1.435 . S
C1090 C1091 1.358 1_655 S
C1090 C1095 1.371 . S
C1091 H1063 0.930 . S
C1091 C1090 1.358 1_455 S
C1091 C1092 1.405 . S
C1092 H1064 0.932 . S
C1092 C1091 1.405 . S
C1092 C1093 1.383 1_455 S
C1093 C1092 1.383 1_655 S
C1093 C1094 1.393 . S
C1094 H1066 0.931 . S
C1094 C1093 1.393 . S
C1094 C1095 1.382 . S
C1095 H1065 0.929 . S
C1095 C1090 1.371 . S
C1095 C1094 1.382 . S
C1096 N1059 1.423 . S
C1096 C1097 1.362 . S
C1096 C1101 1.388 . S
C1097 H1067 0.929 . S
C1097 C1096 1.362 . S
C1097 C1098 1.376 . S
C1098 H1069 0.931 . S
C1098 C1097 1.376 . S
C1098 C1099 1.396 . S
C1099 C1098 1.396 . S
C1099 C1100 1.348 . S
C1099 C1117 1.472 . S
C1100 H1070 0.929 . S
C1100 C1099 1.348 . S
C1100 C1101 1.443 . S
C1101 H1068 0.932 1_655 S
C1101 C1096 1.388 . S
C1101 C1100 1.443 . S
C1102 N1082 1.433 . S
C1102 C1103 1.363 . S
C1102 C1107 1.370 1_655 S
C1103 H1071 0.929 . S
C1103 C1102 1.363 . S
C1103 C1104 1.385 . S
C1104 H1072 0.930 . S
C1104 C1103 1.385 . S
C1104 C1105 1.357 1_655 S
C1105 C1104 1.357 1_455 S
C1105 C1106 1.406 . S
C1106 H1073 0.929 . S
C1106 C1105 1.406 . S
C1106 C1107 1.391 . S
C1107 H1074 0.931 . S
C1107 C1102 1.370 1_455 S
C1107 C1106 1.391 . S
C1108 N1082 1.435 . S
C1108 C1109 1.358 1_655 S
C1108 C1113 1.371 . S
C1109 H1075 0.930 . S
C1109 C1108 1.358 1_455 S
C1109 C1110 1.405 . S
C1110 H1076 0.932 . S
C1110 C1109 1.405 . S
C1110 C1111 1.383 1_455 S
C1111 C1110 1.383 1_655 S
C1111 C1112 1.393 . S
C1112 H1077 0.931 . S
C1112 C1111 1.393 . S
C1112 C1113 1.382 . S
C1113 H1078 0.929 . S
C1113 C1108 1.371 . S
C1113 C1112 1.382 . S
C1114 N1082 1.423 . S
C1114 C1115 1.362 . S
C1114 C1119 1.388 . S
C1115 H1079 0.929 . S
C1115 C1114 1.362 . S
C1115 C1116 1.376 . S
C1116 H1080 0.931 . S
C1116 C1115 1.376 . S
C1116 C1117 1.396 . S
C1117 C1099 1.472 . S
C1117 C1116 1.396 . S
C1117 C1118 1.348 . S
C1118 H1081 0.929 . S
C1118 C1117 1.348 . S
C1118 C1119 1.443 . S
C1119 H1083 0.932 1_655 S
C1119 C1114 1.388 . S
C1119 C1118 1.443 . S
H1120 C1147 0.929 . S
N1121 C1146 1.433 . S
N1121 C1152 1.435 . S
N1121 C1158 1.423 . S
H1122 C1148 0.930 . S
H1123 C1151 0.931 . S
H1124 C1150 0.929 . S
H1125 C1153 0.930 . S
H1126 C1154 0.932 . S
H1127 C1157 0.929 . S
H1128 C1156 0.931 . S
H1129 C1159 0.929 . S
H1130 C1163 0.932 . S
H1131 C1160 0.931 . S
H1132 C1162 0.929 . S
H1133 C1165 0.929 . S
H1134 C1166 0.930 . S
H1135 C1168 0.929 . S
H1136 C1169 0.931 . S
H1137 C1171 0.930 . S
H1138 C1172 0.932 . S
H1139 C1174 0.931 . S
H1140 C1175 0.929 . S
H1141 C1177 0.929 . S
H1142 C1178 0.931 . S
H1143 C1180 0.929 . S
N1144 C1164 1.433 . S
N1144 C1170 1.435 . S
N1144 C1176 1.423 . S
H1145 C1181 0.932 . S
C1146 N1121 1.433 . S
C1146 C1147 1.363 . S
C1146 C1151 1.370 . S
C1147 H1120 0.929 . S
C1147 C1146 1.363 . S
C1147 C1148 1.385 . S
C1148 H1122 0.930 . S
C1148 C1147 1.385 . S
C1148 C1149 1.357 . S
C1149 C1148 1.357 . S
C1149 C1150 1.406 . S
C1150 H1124 0.929 . S
C1150 C1149 1.406 . S
C1150 C1151 1.391 . S
C1151 H1123 0.931 . S
C1151 C1146 1.370 . S
C1151 C1150 1.391 . S
C1152 N1121 1.435 . S
C1152 C1153 1.358 . S
C1152 C1157 1.371 . S
C1153 H1125 0.930 . S
C1153 C1152 1.358 . S
C1153 C1154 1.405 . S
C1154 H1126 0.932 . S
C1154 C1153 1.405 . S
C1154 C1155 1.383 . S
C1155 C1154 1.383 . S
C1155 C1156 1.393 . S
C1156 H1128 0.931 . S
C1156 C1155 1.393 . S
C1156 C1157 1.382 . S
C1157 H1127 0.929 . S
C1157 C1152 1.371 . S
C1157 C1156 1.382 . S
C1158 N1121 1.423 . S
C1158 C1159 1.362 . S
C1158 C1163 1.388 . S
C1159 H1129 0.929 . S
C1159 C1158 1.362 . S
C1159 C1160 1.376 . S
C1160 H1131 0.931 . S
C1160 C1159 1.376 . S
C1160 C1161 1.396 . S
C1161 C1160 1.396 . S
C1161 C1162 1.348 . S
C1161 C1179 1.472 . S
C1162 H1132 0.929 . S
C1162 C1161 1.348 . S
C1162 C1163 1.443 . S
C1163 H1130 0.932 . S
C1163 C1158 1.388 . S
C1163 C1162 1.443 . S
C1164 N1144 1.433 . S
C1164 C1165 1.363 . S
C1164 C1169 1.370 . S
C1165 H1133 0.929 . S
C1165 C1164 1.363 . S
C1165 C1166 1.385 . S
C1166 H1134 0.930 . S
C1166 C1165 1.385 . S
C1166 C1167 1.357 . S
C1167 C1166 1.357 . S
C1167 C1168 1.406 . S
C1168 H1135 0.929 . S
C1168 C1167 1.406 . S
C1168 C1169 1.391 . S
C1169 H1136 0.931 . S
C1169 C1164 1.370 . S
C1169 C1168 1.391 . S
C1170 N1144 1.435 . S
C1170 C1171 1.358 . S
C1170 C1175 1.371 . S
C1171 H1137 0.930 . S
C1171 C1170 1.358 . S
C1171 C1172 1.405 . S
C1172 H1138 0.932 . S
C1172 C1171 1.405 . S
C1172 C1173 1.383 . S
C1173 C1172 1.383 . S
C1173 C1174 1.393 . S
C1174 H1139 0.931 . S
C1174 C1173 1.393 . S
C1174 C1175 1.382 . S
C1175 H1140 0.929 . S
C1175 C1170 1.371 . S
C1175 C1174 1.382 . S
C1176 N1144 1.423 . S
C1176 C1177 1.362 . S
C1176 C1181 1.388 . S
C1177 H1141 0.929 . S
C1177 C1176 1.362 . S
C1177 C1178 1.376 . S
C1178 H1142 0.931 . S
C1178 C1177 1.376 . S
C1178 C1179 1.396 . S
C1179 C1161 1.472 . S
C1179 C1178 1.396 . S
C1179 C1180 1.348 . S
C1180 H1143 0.929 . S
C1180 C1179 1.348 . S
C1180 C1181 1.443 . S
C1181 H1145 0.932 . S
C1181 C1176 1.388 . S
C1181 C1180 1.443 . S
H1182 C1209 0.929 . S
N1183 C1208 1.433 . S
N1183 C1214 1.435 . S
N1183 C1220 1.423 . S
H1184 C1210 0.930 . S
H1185 C1213 0.931 . S
H1186 C1212 0.929 . S
H1187 C1215 0.930 . S
H1188 C1216 0.932 . S
H1189 C1219 0.929 . S
H1190 C1218 0.931 . S
H1191 C1221 0.929 . S
H1192 C1225 0.932 . S
H1193 C1222 0.931 . S
H1194 C1224 0.929 . S
H1195 C1227 0.929 . S
H1196 C1228 0.930 . S
H1197 C1230 0.929 . S
H1198 C1231 0.931 . S
H1199 C1233 0.930 . S
H1200 C1234 0.932 . S
H1201 C1236 0.931 . S
H1202 C1237 0.929 . S
H1203 C1239 0.929 . S
H1204 C1240 0.931 . S
H1205 C1242 0.929 . S
N1206 C1226 1.433 . S
N1206 C1232 1.435 . S
N1206 C1238 1.423 . S
H1207 C1243 0.932 . S
C1208 N1183 1.433 . S
C1208 C1209 1.363 . S
C1208 C1213 1.370 . S
C1209 H1182 0.929 . S
C1209 C1208 1.363 . S
C1209 C1210 1.385 . S
C1210 H1184 0.930 . S
C1210 C1209 1.385 . S
C1210 C1211 1.357 . S
C1211 C1210 1.357 . S
C1211 C1212 1.406 . S
C1212 H1186 0.929 . S
C1212 C1211 1.406 . S
C1212 C1213 1.391 . S
C1213 H1185 0.931 . S
C1213 C1208 1.370 . S
C1213 C1212 1.391 . S
C1214 N1183 1.435 . S
C1214 C1215 1.358 . S
C1214 C1219 1.371 . S
C1215 H1187 0.930 . S
C1215 C1214 1.358 . S
C1215 C1216 1.405 . S
C1216 H1188 0.932 . S
C1216 C1215 1.405 . S
C1216 C1217 1.383 . S
C1217 C1216 1.383 . S
C1217 C1218 1.393 . S
C1218 H1190 0.931 . S
C1218 C1217 1.393 . S
C1218 C1219 1.382 . S
C1219 H1189 0.929 . S
C1219 C1214 1.371 . S
C1219 C1218 1.382 . S
C1220 N1183 1.423 . S
C1220 C1221 1.362 . S
C1220 C1225 1.388 . S
C1221 H1191 0.929 . S
C1221 C1220 1.362 . S
C1221 C1222 1.376 . S
C1222 H1193 0.931 . S
C1222 C1221 1.376 . S
C1222 C1223 1.396 . S
C1223 C1222 1.396 . S
C1223 C1224 1.348 . S
C1223 C1241 1.472 . S
C1224 H1194 0.929 . S
C1224 C1223 1.348 . S
C1224 C1225 1.443 . S
C1225 H1192 0.932 . S
C1225 C1220 1.388 . S
C1225 C1224 1.443 . S
C1226 N1206 1.433 . S
C1226 C1227 1.363 . S
C1226 C1231 1.370 . S
C1227 H1195 0.929 . S
C1227 C1226 1.363 . S
C1227 C1228 1.385 . S
C1228 H1196 0.930 . S
C1228 C1227 1.385 . S
C1228 C1229 1.357 . S
C1229 C1228 1.357 . S
C1229 C1230 1.406 . S
C1230 H1197 0.929 . S
C1230 C1229 1.406 . S
C1230 C1231 1.391 . S
C1231 H1198 0.931 . S
C1231 C1226 1.370 . S
C1231 C1230 1.391 . S
C1232 N1206 1.435 . S
C1232 C1233 1.358 . S
C1232 C1237 1.371 . S
C1233 H1199 0.930 . S
C1233 C1232 1.358 . S
C1233 C1234 1.405 . S
C1234 H1200 0.932 . S
C1234 C1233 1.405 . S
C1234 C1235 1.383 . S
C1235 C1234 1.383 . S
C1235 C1236 1.393 . S
C1236 H1201 0.931 . S
C1236 C1235 1.393 . S
C1236 C1237 1.382 . S
C1237 H1202 0.929 . S
C1237 C1232 1.371 . S
C1237 C1236 1.382 . S
C1238 N1206 1.423 . S
C1238 C1239 1.362 . S
C1238 C1243 1.388 . S
C1239 H1203 0.929 . S
C1239 C1238 1.362 . S
C1239 C1240 1.376 . S
C1240 H1204 0.931 . S
C1240 C1239 1.376 . S
C1240 C1241 1.396 . S
C1241 C1223 1.472 . S
C1241 C1240 1.396 . S
C1241 C1242 1.348 . S
C1242 H1205 0.929 . S
C1242 C1241 1.348 . S
C1242 C1243 1.443 . S
C1243 H1207 0.932 . S
C1243 C1238 1.388 . S
C1243 C1242 1.443 . S
H1244 C1271 0.929 . S
N1245 C1270 1.433 . S
N1245 C1276 1.435 . S
N1245 C1282 1.423 . S
H1246 C1272 0.930 . S
H1247 C1275 0.931 . S
H1248 C1274 0.929 . S
H1249 C1277 0.930 . S
H1250 C1278 0.932 . S
H1251 C1281 0.929 . S
H1252 C1280 0.931 . S
H1253 C1283 0.929 . S
H1254 C1287 0.932 . S
H1255 C1284 0.931 . S
H1256 C1286 0.929 . S
H1257 C1289 0.929 . S
H1258 C1290 0.930 . S
H1259 C1292 0.929 . S
H1260 C1293 0.931 . S
H1261 C1295 0.930 . S
H1262 C1296 0.932 . S
H1263 C1298 0.931 . S
H1264 C1299 0.929 . S
H1265 C1301 0.929 . S
H1266 C1302 0.931 . S
H1267 C1304 0.929 . S
N1268 C1288 1.433 . S
N1268 C1294 1.435 . S
N1268 C1300 1.423 . S
H1269 C1305 0.932 . S
C1270 N1245 1.433 . S
C1270 C1271 1.363 . S
C1270 C1275 1.370 . S
C1271 H1244 0.929 . S
C1271 C1270 1.363 . S
C1271 C1272 1.385 . S
C1272 H1246 0.930 . S
C1272 C1271 1.385 . S
C1272 C1273 1.357 . S
C1273 C1272 1.357 . S
C1273 C1274 1.406 . S
C1274 H1248 0.929 . S
C1274 C1273 1.406 . S
C1274 C1275 1.391 . S
C1275 H1247 0.931 . S
C1275 C1270 1.370 . S
C1275 C1274 1.391 . S
C1276 N1245 1.435 . S
C1276 C1277 1.358 . S
C1276 C1281 1.371 . S
C1277 H1249 0.930 . S
C1277 C1276 1.358 . S
C1277 C1278 1.405 . S
C1278 H1250 0.932 . S
C1278 C1277 1.405 . S
C1278 C1279 1.383 . S
C1279 C1278 1.383 . S
C1279 C1280 1.393 . S
C1280 H1252 0.931 . S
C1280 C1279 1.393 . S
C1280 C1281 1.382 . S
C1281 H1251 0.929 . S
C1281 C1276 1.371 . S
C1281 C1280 1.382 . S
C1282 N1245 1.423 . S
C1282 C1283 1.362 . S
C1282 C1287 1.388 . S
C1283 H1253 0.929 . S
C1283 C1282 1.362 . S
C1283 C1284 1.376 . S
C1284 H1255 0.931 . S
C1284 C1283 1.376 . S
C1284 C1285 1.396 . S
C1285 C1284 1.396 . S
C1285 C1286 1.348 . S
C1285 C1303 1.472 . S
C1286 H1256 0.929 . S
C1286 C1285 1.348 . S
C1286 C1287 1.443 . S
C1287 H1254 0.932 . S
C1287 C1282 1.388 . S
C1287 C1286 1.443 . S
C1288 N1268 1.433 . S
C1288 C1289 1.363 . S
C1288 C1293 1.370 . S
C1289 H1257 0.929 . S
C1289 C1288 1.363 . S
C1289 C1290 1.385 . S
C1290 H1258 0.930 . S
C1290 C1289 1.385 . S
C1290 C1291 1.357 . S
C1291 C1290 1.357 . S
C1291 C1292 1.406 . S
C1292 H1259 0.929 . S
C1292 C1291 1.406 . S
C1292 C1293 1.391 . S
C1293 H1260 0.931 . S
C1293 C1288 1.370 . S
C1293 C1292 1.391 . S
C1294 N1268 1.435 . S
C1294 C1295 1.358 . S
C1294 C1299 1.371 . S
C1295 H1261 0.930 . S
C1295 C1294 1.358 . S
C1295 C1296 1.405 . S
C1296 H1262 0.932 . S
C1296 C1295 1.405 . S
C1296 C1297 1.383 . S
C1297 C1296 1.383 . S
C1297 C1298 1.393 . S
C1298 H1263 0.931 . S
C1298 C1297 1.393 . S
C1298 C1299 1.382 . S
C1299 H1264 0.929 . S
C1299 C1294 1.371 . S
C1299 C1298 1.382 . S
C1300 N1268 1.423 . S
C1300 C1301 1.362 . S
C1300 C1305 1.388 . S
C1301 H1265 0.929 . S
C1301 C1300 1.362 . S
C1301 C1302 1.376 . S
C1302 H1266 0.931 . S
C1302 C1301 1.376 . S
C1302 C1303 1.396 . S
C1303 C1285 1.472 . S
C1303 C1302 1.396 . S
C1303 C1304 1.348 . S
C1304 H1267 0.929 . S
C1304 C1303 1.348 . S
C1304 C1305 1.443 . S
C1305 H1269 0.932 . S
C1305 C1300 1.388 . S
C1305 C1304 1.443 . S
H1306 C1333 0.929 . S
N1307 C1332 1.433 . S
N1307 C1338 1.435 . S
N1307 C1344 1.423 . S
H1308 C1334 0.930 . S
H1309 C1337 0.931 . S
H1310 C1336 0.929 . S
H1311 C1339 0.930 . S
H1312 C1340 0.932 . S
H1313 C1343 0.929 . S
H1314 C1342 0.931 . S
H1315 C1345 0.929 . S
H1316 C1349 0.932 . S
H1317 C1346 0.931 . S
H1318 C1348 0.929 . S
H1319 C1351 0.929 . S
H1320 C1352 0.930 . S
H1321 C1354 0.929 . S
H1322 C1355 0.931 . S
H1323 C1357 0.930 . S
H1324 C1358 0.932 . S
H1325 C1360 0.931 . S
H1326 C1361 0.929 . S
H1327 C1363 0.929 . S
H1328 C1364 0.931 . S
H1329 C1366 0.929 . S
N1330 C1350 1.433 . S
N1330 C1356 1.435 . S
N1330 C1362 1.423 . S
H1331 C1367 0.932 . S
C1332 N1307 1.433 . S
C1332 C1333 1.363 . S
C1332 C1337 1.370 . S
C1333 H1306 0.929 . S
C1333 C1332 1.363 . S
C1333 C1334 1.385 . S
C1334 H1308 0.930 . S
C1334 C1333 1.385 . S
C1334 C1335 1.357 . S
C1335 C1334 1.357 . S
C1335 C1336 1.406 . S
C1336 H1310 0.929 . S
C1336 C1335 1.406 . S
C1336 C1337 1.391 . S
C1337 H1309 0.931 . S
C1337 C1332 1.370 . S
C1337 C1336 1.391 . S
C1338 N1307 1.435 . S
C1338 C1339 1.358 . S
C1338 C1343 1.371 . S
C1339 H1311 0.930 . S
C1339 C1338 1.358 . S
C1339 C1340 1.405 . S
C1340 H1312 0.932 . S
C1340 C1339 1.405 . S
C1340 C1341 1.383 . S
C1341 C1340 1.383 . S
C1341 C1342 1.393 . S
C1342 H1314 0.931 . S
C1342 C1341 1.393 . S
C1342 C1343 1.382 . S
C1343 H1313 0.929 . S
C1343 C1338 1.371 . S
C1343 C1342 1.382 . S
C1344 N1307 1.423 . S
C1344 C1345 1.362 . S
C1344 C1349 1.388 . S
C1345 H1315 0.929 . S
C1345 C1344 1.362 . S
C1345 C1346 1.376 . S
C1346 H1317 0.931 . S
C1346 C1345 1.376 . S
C1346 C1347 1.396 . S
C1347 C1346 1.396 . S
C1347 C1348 1.348 . S
C1347 C1365 1.472 . S
C1348 H1318 0.929 . S
C1348 C1347 1.348 . S
C1348 C1349 1.443 . S
C1349 H1316 0.932 . S
C1349 C1344 1.388 . S
C1349 C1348 1.443 . S
C1350 N1330 1.433 . S
C1350 C1351 1.363 . S
C1350 C1355 1.370 . S
C1351 H1319 0.929 . S
C1351 C1350 1.363 . S
C1351 C1352 1.385 . S
C1352 H1320 0.930 . S
C1352 C1351 1.385 . S
C1352 C1353 1.357 . S
C1353 C1352 1.357 . S
C1353 C1354 1.406 . S
C1354 H1321 0.929 . S
C1354 C1353 1.406 . S
C1354 C1355 1.391 . S
C1355 H1322 0.931 . S
C1355 C1350 1.370 . S
C1355 C1354 1.391 . S
C1356 N1330 1.435 . S
C1356 C1357 1.358 . S
C1356 C1361 1.371 . S
C1357 H1323 0.930 . S
C1357 C1356 1.358 . S
C1357 C1358 1.405 . S
C1358 H1324 0.932 . S
C1358 C1357 1.405 . S
C1358 C1359 1.383 . S
C1359 C1358 1.383 . S
C1359 C1360 1.393 . S
C1360 H1325 0.931 . S
C1360 C1359 1.393 . S
C1360 C1361 1.382 . S
C1361 H1326 0.929 . S
C1361 C1356 1.371 . S
C1361 C1360 1.382 . S
C1362 N1330 1.423 . S
C1362 C1363 1.362 . S
C1362 C1367 1.388 . S
C1363 H1327 0.929 . S
C1363 C1362 1.362 . S
C1363 C1364 1.376 . S
C1364 H1328 0.931 . S
C1364 C1363 1.376 . S
C1364 C1365 1.396 . S
C1365 C1347 1.472 . S
C1365 C1364 1.396 . S
C1365 C1366 1.348 . S
C1366 H1329 0.929 . S
C1366 C1365 1.348 . S
C1366 C1367 1.443 . S
C1367 H1331 0.932 . S
C1367 C1362 1.388 . S
C1367 C1366 1.443 . S
C1368 C1369 1.391 1_455 S
C1368 C1370 1.394 . S
C1368 H1384 0.931 . S
C1369 C1368 1.391 1_655 S
C1369 C1373 1.376 . S
C1370 C1368 1.394 . S
C1370 C1371 1.369 1_455 S
C1370 C1374 1.531 . S
C1371 C1370 1.369 1_655 S
C1371 C1372 1.410 . S
C1371 C1379 1.503 . S
C1372 C1371 1.410 . S
C1372 C1373 1.392 . S
C1372 C1375 1.511 . S
C1373 C1369 1.376 . S
C1373 C1372 1.392 . S
C1373 H1385 0.929 . S
C1374 C1370 1.531 . S
C1374 H1386 0.960 . S
C1374 H1387 0.962 . S
C1374 H1388 0.960 . S
C1375 C1372 1.511 . S
C1375 H1389 0.961 . S
C1375 H1390 0.961 . S
C1375 H1391 0.961 . S
C1376 C1377 1.370 . S
C1376 C1378 1.363 . S
C1376 H1392 0.931 . S
C1377 C1376 1.370 . S
C1377 C1381 1.397 1_655 S
C1378 C1376 1.363 . S
C1378 C1379 1.370 . S
C1378 C1382 1.524 . S
C1379 C1371 1.503 . S
C1379 C1378 1.370 . S
C1379 C1380 1.403 1_655 S
C1380 C1379 1.403 1_455 S
C1380 C1381 1.437 . S
C1380 C1383 1.539 . S
C1381 C1377 1.397 1_455 S
C1381 C1380 1.437 . S
C1381 H1393 0.915 . S
C1382 C1378 1.524 . S
C1382 H1394 0.956 . S
C1382 H1395 0.961 . S
C1382 H1396 0.961 . S
C1383 C1380 1.539 . S
C1383 H1397 0.958 . S
C1383 H1398 0.961 . S
C1383 H1399 0.960 . S
H1384 C1368 0.931 . S
H1385 C1373 0.929 . S
H1386 C1374 0.960 . S
H1387 C1374 0.962 . S
H1388 C1374 0.960 . S
H1389 C1375 0.961 . S
H1390 C1375 0.961 . S
H1391 C1375 0.961 . S
H1392 C1376 0.931 . S
H1393 C1381 0.915 . S
H1394 C1382 0.956 . S
H1395 C1382 0.961 . S
H1396 C1382 0.961 . S
H1397 C1383 0.958 . S
H1398 C1383 0.961 . S
H1399 C1383 0.960 . S
C1400 C1401 1.391 . S
C1400 C1402 1.394 . S
C1400 H1416 0.931 . S
C1401 C1400 1.391 . S
C1401 C1405 1.376 . S
C1402 C1400 1.394 . S
C1402 C1403 1.369 . S
C1402 C1406 1.531 . S
C1403 C1402 1.369 . S
C1403 C1404 1.410 . S
C1403 C1411 1.503 . S
C1404 C1403 1.410 . S
C1404 C1405 1.392 . S
C1404 C1407 1.511 . S
C1405 C1401 1.376 . S
C1405 C1404 1.392 . S
C1405 H1417 0.929 . S
C1406 C1402 1.531 . S
C1406 H1418 0.960 . S
C1406 H1419 0.962 . S
C1406 H1420 0.960 . S
C1407 C1404 1.511 . S
C1407 H1421 0.961 . S
C1407 H1422 0.961 . S
C1407 H1423 0.961 . S
C1408 C1409 1.370 . S
C1408 C1410 1.363 . S
C1408 H1424 0.931 . S
C1409 C1408 1.370 . S
C1409 C1413 1.408 . S
C1410 C1408 1.363 . S
C1410 C1411 1.370 . S
C1410 C1414 1.524 . S
C1411 C1403 1.503 . S
C1411 C1410 1.370 . S
C1411 C1412 1.403 . S
C1412 C1411 1.403 . S
C1412 C1413 1.404 . S
C1412 C1415 1.539 . S
C1413 C1409 1.408 . S
C1413 C1412 1.404 . S
C1413 H1425 0.930 . S
C1414 C1410 1.524 . S
C1414 H1426 0.956 . S
C1414 H1427 0.961 . S
C1414 H1428 0.961 . S
C1415 C1412 1.539 . S
C1415 H1429 0.958 . S
C1415 H1430 0.961 . S
C1415 H1431 0.960 . S
H1416 C1400 0.931 . S
H1417 C1405 0.929 . S
H1418 C1406 0.960 . S
H1419 C1406 0.962 . S
H1420 C1406 0.960 . S
H1421 C1407 0.961 . S
H1422 C1407 0.961 . S
H1423 C1407 0.961 . S
H1424 C1408 0.931 . S
H1425 C1413 0.930 . S
H1426 C1414 0.956 . S
H1427 C1414 0.961 . S
H1428 C1414 0.961 . S
H1429 C1415 0.958 . S
H1430 C1415 0.961 . S
H1431 C1415 0.960 . S
C1432 C1433 1.391 . S
C1432 C1434 1.394 . S
C1432 H1448 0.931 . S
C1433 C1432 1.391 . S
C1433 C1437 1.376 1_545 S
C1434 C1432 1.394 . S
C1434 C1435 1.369 . S
C1434 C1438 1.531 . S
C1435 C1434 1.369 . S
C1435 C1436 1.410 1_545 S
C1435 C1443 1.503 . S
C1436 C1435 1.410 1_565 S
C1436 C1437 1.392 . S
C1436 C1439 1.511 . S
C1437 C1433 1.376 1_565 S
C1437 C1436 1.392 . S
C1437 H1449 0.929 . S
C1438 C1434 1.531 . S
C1438 H1450 0.960 . S
C1438 H1451 0.962 . S
C1438 H1452 0.960 . S
C1439 C1436 1.511 . S
C1439 H1453 0.961 . S
C1439 H1454 0.961 . S
C1439 H1455 0.961 . S
C1440 C1441 1.370 . S
C1440 C1442 1.363 . S
C1440 H1456 0.931 . S
C1441 C1440 1.370 . S
C1441 C1445 1.408 . S
C1442 C1440 1.363 . S
C1442 C1443 1.370 . S
C1442 C1446 1.524 . S
C1443 C1435 1.503 . S
C1443 C1442 1.370 . S
C1443 C1444 1.403 . S
C1444 C1443 1.403 . S
C1444 C1445 1.404 . S
C1444 C1447 1.539 . S
C1445 C1441 1.408 . S
C1445 C1444 1.404 . S
C1445 H1457 0.930 . S
C1446 C1442 1.524 . S
C1446 H1458 0.956 . S
C1446 H1459 0.961 1_545 S
C1446 H1460 1.015 . S
C1447 C1444 1.539 . S
C1447 H1461 0.958 . S
C1447 H1462 0.961 . S
C1447 H1463 0.960 . S
H1448 C1432 0.931 . S
H1449 C1437 0.929 . S
H1450 C1438 0.960 . S
H1451 C1438 0.962 . S
H1452 C1438 0.960 . S
H1453 C1439 0.961 . S
H1454 C1439 0.961 . S
H1455 C1439 0.961 . S
H1456 C1440 0.931 . S
H1457 C1445 0.930 . S
H1458 C1446 0.956 . S
H1459 C1446 0.961 1_565 S
H1460 C1446 1.015 . S
H1461 C1447 0.958 . S
H1462 C1447 0.961 . S
H1463 C1447 0.960 . S
C1464 C1465 1.470 . S
C1464 C1466 1.394 . S
C1464 H1480 0.931 . S
C1465 C1464 1.470 . S
C1465 C1469 1.334 1_565 S
C1466 C1464 1.394 . S
C1466 C1467 1.369 . S
C1466 C1470 1.531 . S
C1467 C1466 1.369 . S
C1467 C1468 1.410 1_565 S
C1467 C1475 1.503 . S
C1468 C1467 1.410 1_545 S
C1468 C1469 1.392 . S
C1468 C1471 1.511 . S
C1469 C1465 1.334 1_545 S
C1469 C1468 1.392 . S
C1469 H1481 0.929 . S
C1470 C1466 1.531 . S
C1470 H1482 0.960 . S
C1470 H1483 0.962 . S
C1470 H1484 0.960 . S
C1471 C1468 1.511 . S
C1471 H1485 0.961 . S
C1471 H1486 0.961 . S
C1471 H1487 0.961 . S
C1472 C1473 1.370 . S
C1472 C1474 1.363 . S
C1472 H1488 0.931 . S
C1473 C1472 1.370 . S
C1473 C1477 1.408 . S
C1474 C1472 1.363 . S
C1474 C1475 1.370 . S
C1474 C1478 1.524 . S
C1475 C1467 1.503 . S
C1475 C1474 1.370 . S
C1475 C1476 1.403 . S
C1476 C1475 1.403 . S
C1476 C1477 1.404 . S
C1476 C1479 1.539 1_565 S
C1477 C1473 1.408 . S
C1477 C1476 1.404 . S
C1477 H1489 0.936 . S
C1478 C1474 1.524 . S
C1478 H1490 0.956 . S
C1478 H1491 0.961 1_565 S
C1478 H1492 0.961 . S
C1479 C1476 1.539 1_545 S
C1479 H1493 0.958 1_545 S
C1479 H1494 0.961 . S
C1479 H1495 0.960 . S
H1480 C1464 0.931 . S
H1481 C1469 0.929 . S
H1482 C1470 0.960 . S
H1483 C1470 0.962 . S
H1484 C1470 0.960 . S
H1485 C1471 0.961 . S
H1486 C1471 0.961 . S
H1487 C1471 0.961 . S
H1488 C1472 0.931 . S
H1489 C1477 0.936 . S
H1490 C1478 0.956 . S
H1491 C1478 0.961 1_545 S
H1492 C1478 0.961 . S
H1493 C1479 0.958 1_565 S
H1494 C1479 0.961 . S
H1495 C1479 0.960 . S
C1496 C1497 1.391 . S
C1496 C1498 1.394 . S
C1496 H1512 0.931 . S
C1497 C1496 1.391 . S
C1497 C1501 1.376 1_455 S
C1498 C1496 1.394 . S
C1498 C1499 1.369 . S
C1498 C1502 1.531 . S
C1499 C1498 1.369 . S
C1499 C1500 1.410 1_455 S
C1499 C1507 1.503 . S
C1500 C1499 1.410 1_655 S
C1500 C1501 1.392 . S
C1500 C1503 1.511 . S
C1501 C1497 1.376 1_655 S
C1501 C1500 1.392 . S
C1501 H1513 0.929 . S
C1502 C1498 1.531 . S
C1502 H1514 0.960 . S
C1502 H1515 0.962 . S
C1502 H1516 0.960 . S
C1503 C1500 1.511 . S
C1503 H1517 0.961 . S
C1503 H1518 0.961 . S
C1503 H1519 0.961 . S
C1504 C1505 1.370 . S
C1504 C1506 1.363 . S
C1504 H1520 0.931 . S
C1505 C1504 1.370 . S
C1505 C1509 1.408 1_455 S
C1506 C1504 1.363 . S
C1506 C1507 1.370 . S
C1506 C1510 1.524 . S
C1507 C1499 1.503 . S
C1507 C1506 1.370 . S
C1507 C1508 1.403 1_455 S
C1508 C1507 1.403 1_655 S
C1508 C1509 1.404 . S
C1508 C1511 1.539 . S
C1509 C1505 1.408 1_655 S
C1509 C1508 1.404 . S
C1509 H1521 0.930 . S
C1510 C1506 1.524 . S
C1510 H1522 0.956 . S
C1510 H1523 0.961 . S
C1510 H1524 0.961 . S
C1511 C1508 1.539 . S
C1511 H1525 0.958 . S
C1511 H1526 0.961 . S
C1511 H1527 0.960 . S
H1512 C1496 0.931 . S
H1513 C1501 0.929 . S
H1514 C1502 0.960 . S
H1515 C1502 0.962 . S
H1516 C1502 0.960 . S
H1517 C1503 0.961 . S
H1518 C1503 0.961 . S
H1519 C1503 0.961 . S
H1520 C1504 0.931 . S
H1521 C1509 0.930 . S
H1522 C1510 0.956 . S
H1523 C1510 0.961 . S
H1524 C1510 0.961 . S
H1525 C1511 0.958 . S
H1526 C1511 0.961 . S
H1527 C1511 0.960 . S
C1528 C1529 1.391 . S
C1528 C1530 1.394 . S
C1528 H1544 0.931 . S
C1529 C1528 1.391 . S
C1529 C1533 1.376 . S
C1530 C1528 1.394 . S
C1530 C1531 1.369 . S
C1530 C1534 1.531 . S
C1531 C1530 1.369 . S
C1531 C1532 1.410 . S
C1531 C1539 1.503 . S
C1532 C1531 1.410 . S
C1532 C1533 1.392 . S
C1532 C1535 1.511 . S
C1533 C1529 1.376 . S
C1533 C1532 1.392 . S
C1533 H1545 0.929 . S
C1534 C1530 1.531 . S
C1534 H1546 0.960 . S
C1534 H1547 0.962 . S
C1534 H1548 0.960 . S
C1535 C1532 1.511 . S
C1535 H1549 0.961 . S
C1535 H1550 0.961 . S
C1535 H1551 0.961 . S
C1536 C1537 1.370 . S
C1536 C1538 1.363 . S
C1536 H1552 0.931 . S
C1537 C1536 1.370 . S
C1537 C1541 1.408 . S
C1538 C1536 1.363 . S
C1538 C1539 1.370 . S
C1538 C1542 1.524 . S
C1539 C1531 1.503 . S
C1539 C1538 1.370 . S
C1539 C1540 1.403 . S
C1540 C1539 1.403 . S
C1540 C1541 1.404 . S
C1540 C1543 1.539 . S
C1541 C1537 1.408 . S
C1541 C1540 1.404 . S
C1541 H1553 0.930 . S
C1542 C1538 1.524 . S
C1542 H1554 0.956 . S
C1542 H1555 0.961 . S
C1542 H1556 0.961 . S
C1543 C1540 1.539 . S
C1543 H1557 0.958 . S
C1543 H1558 0.961 . S
C1543 H1559 0.960 . S
H1544 C1528 0.931 . S
H1545 C1533 0.929 . S
H1546 C1534 0.960 . S
H1547 C1534 0.962 . S
H1548 C1534 0.960 . S
H1549 C1535 0.961 . S
H1550 C1535 0.961 . S
H1551 C1535 0.961 . S
H1552 C1536 0.931 . S
H1553 C1541 0.930 . S
H1554 C1542 0.956 . S
H1555 C1542 0.961 . S
H1556 C1542 0.961 . S
H1557 C1543 0.958 . S
H1558 C1543 0.961 . S
H1559 C1543 0.960 . S
C1560 C1561 1.391 1_655 S
C1560 C1562 1.394 . S
C1560 H1576 0.931 . S
C1561 C1560 1.391 1_455 S
C1561 C1565 1.376 . S
C1562 C1560 1.394 . S
C1562 C1563 1.369 1_655 S
C1562 C1566 1.531 . S
C1563 C1562 1.369 1_455 S
C1563 C1564 1.410 . S
C1563 C1571 1.503 . S
C1564 C1563 1.410 . S
C1564 C1565 1.392 . S
C1564 C1567 1.511 . S
C1565 C1561 1.376 . S
C1565 C1564 1.392 . S
C1565 H1577 0.929 . S
C1566 C1562 1.531 . S
C1566 H1578 0.960 . S
C1566 H1579 0.962 . S
C1566 H1580 0.960 . S
C1567 C1564 1.511 . S
C1567 H1581 0.961 . S
C1567 H1582 0.961 . S
C1567 H1583 0.961 . S
C1568 C1569 1.370 1_655 S
C1568 C1570 1.338 . S
C1568 H1584 0.931 . S
C1569 C1568 1.370 1_455 S
C1569 C1573 1.408 . S
C1570 C1568 1.338 . S
C1570 C1571 1.372 1_655 S
C1570 C1574 1.553 . S
C1571 C1563 1.503 . S
C1571 C1570 1.372 1_455 S
C1571 C1572 1.403 . S
C1572 C1571 1.403 . S
C1572 C1573 1.404 . S
C1572 C1575 1.539 . S
C1573 C1569 1.408 . S
C1573 C1572 1.404 . S
C1573 H1585 0.930 . S
C1574 C1570 1.553 . S
C1574 H1586 0.956 . S
C1574 H1587 0.961 . S
C1574 H1588 0.961 . S
C1575 C1572 1.539 . S
C1575 H1589 0.958 . S
C1575 H1590 0.961 . S
C1575 H1591 0.960 . S
H1576 C1560 0.931 . S
H1577 C1565 0.929 . S
H1578 C1566 0.960 . S
H1579 C1566 0.962 . S
H1580 C1566 0.960 . S
H1581 C1567 0.961 . S
H1582 C1567 0.961 . S
H1583 C1567 0.961 . S
H1584 C1568 0.931 . S
H1585 C1573 0.930 . S
H1586 C1574 0.956 . S
H1587 C1574 0.961 . S
H1588 C1574 0.961 . S
H1589 C1575 0.958 . S
H1590 C1575 0.961 . S
H1591 C1575 0.960 . S
C1592 C1593 1.391 . S
C1592 C1594 1.394 . S
C1592 H1608 0.931 . S
C1593 C1592 1.391 . S
C1593 C1597 1.376 . S
C1594 C1592 1.394 . S
C1594 C1595 1.369 . S
C1594 C1598 1.531 . S
C1595 C1594 1.369 . S
C1595 C1596 1.410 . S
C1595 C1603 1.503 . S
C1596 C1595 1.410 . S
C1596 C1597 1.392 . S
C1596 C1599 1.511 . S
C1597 C1593 1.376 . S
C1597 C1596 1.392 . S
C1597 H1609 0.929 . S
C1598 C1594 1.531 . S
C1598 H1610 0.960 . S
C1598 H1611 0.962 . S
C1598 H1612 0.960 . S
C1599 C1596 1.511 . S
C1599 H1613 0.961 . S
C1599 H1614 0.961 . S
C1599 H1615 0.961 . S
C1600 C1601 1.370 . S
C1600 C1602 1.363 . S
C1600 H1616 0.931 . S
C1601 C1600 1.370 . S
C1601 C1605 1.408 . S
C1602 C1600 1.363 . S
C1602 C1603 1.370 . S
C1602 C1606 1.524 . S
C1603 C1595 1.503 . S
C1603 C1602 1.370 . S
C1603 C1604 1.403 . S
C1604 C1603 1.403 . S
C1604 C1605 1.404 . S
C1604 C1607 1.539 . S
C1605 C1601 1.408 . S
C1605 C1604 1.404 . S
C1605 H1617 0.930 . S
C1606 C1602 1.524 . S
C1606 H1618 0.956 . S
C1606 H1619 0.961 . S
C1606 H1620 0.961 . S
C1607 C1604 1.539 . S
C1607 H1621 0.958 . S
C1607 H1622 0.961 . S
C1607 H1623 0.960 . S
H1608 C1592 0.931 . S
H1609 C1597 0.929 . S
H1610 C1598 0.960 . S
H1611 C1598 0.962 . S
H1612 C1598 0.960 . S
H1613 C1599 0.961 . S
H1614 C1599 0.961 . S
H1615 C1599 0.961 . S
H1616 C1600 0.931 . S
H1617 C1605 0.930 . S
H1618 C1606 0.956 . S
H1619 C1606 0.961 . S
H1620 C1606 0.961 . S
H1621 C1607 0.958 . S
H1622 C1607 0.961 . S
H1623 C1607 0.960 . S
C1624 C1625 1.391 . S
C1624 C1626 1.394 . S
C1624 H1640 0.931 . S
C1625 C1624 1.391 . S
C1625 C1629 1.376 . S
C1626 C1624 1.394 . S
C1626 C1627 1.369 . S
C1626 C1630 1.531 . S
C1627 C1626 1.369 . S
C1627 C1628 1.384 . S
C1627 C1635 1.503 . S
C1628 C1627 1.384 . S
C1628 C1629 1.417 . S
C1628 C1631 1.516 1_565 S
C1629 C1625 1.376 . S
C1629 C1628 1.417 . S
C1629 H1641 0.929 . S
C1630 C1626 1.531 . S
C1630 H1642 0.960 1_565 S
C1630 H1643 0.962 . S
C1630 H1644 0.960 1_565 S
C1631 C1628 1.516 1_545 S
C1631 H1645 0.961 1_545 S
C1631 H1646 0.961 1_545 S
C1631 H1647 0.961 . S
C1632 C1633 1.370 . S
C1632 C1634 1.363 . S
C1632 H1648 0.931 . S
C1633 C1632 1.370 . S
C1633 C1637 1.408 1_565 S
C1634 C1632 1.363 . S
C1634 C1635 1.370 . S
C1634 C1638 1.524 . S
C1635 C1627 1.503 . S
C1635 C1634 1.370 . S
C1635 C1636 1.403 1_565 S
C1636 C1635 1.403 1_545 S
C1636 C1637 1.404 . S
C1636 C1639 1.539 . S
C1637 C1633 1.408 1_545 S
C1637 C1636 1.404 . S
C1637 H1649 0.930 . S
C1638 C1634 1.524 . S
C1638 H1650 0.956 . S
C1638 H1651 0.961 . S
C1638 H1652 0.961 . S
C1639 C1636 1.539 . S
C1639 H1653 0.958 . S
C1639 H1654 0.961 . S
C1639 H1655 0.960 . S
H1640 C1624 0.931 . S
H1641 C1629 0.929 . S
H1642 C1630 0.960 1_545 S
H1643 C1630 0.962 . S
H1644 C1630 0.960 1_545 S
H1645 C1631 0.961 1_565 S
H1646 C1631 0.961 1_565 S
H1647 C1631 0.961 . S
H1648 C1632 0.931 . S
H1649 C1637 0.930 . S
H1650 C1638 0.956 . S
H1651 C1638 0.961 . S
H1652 C1638 0.961 . S
H1653 C1639 0.958 . S
H1654 C1639 0.961 . S
H1655 C1639 0.960 . S
C1656 C1657 1.391 1_565 S
C1656 C1658 1.394 . S
C1656 H1672 0.931 . S
C1657 C1656 1.391 1_545 S
C1657 C1661 1.376 . S
C1658 C1656 1.394 . S
C1658 C1659 1.369 1_565 S
C1658 C1662 1.531 . S
C1659 C1658 1.369 1_545 S
C1659 C1660 1.410 . S
C1659 C1667 1.503 . S
C1660 C1659 1.410 . S
C1660 C1661 1.392 . S
C1660 C1663 1.511 . S
C1661 C1657 1.376 . S
C1661 C1660 1.392 . S
C1661 H1673 0.929 . S
C1662 C1658 1.531 . S
C1662 H1674 0.960 . S
C1662 H1675 0.962 . S
C1662 H1676 0.960 . S
C1663 C1660 1.511 . S
C1663 H1677 0.961 . S
C1663 H1678 0.961 . S
C1663 H1679 0.961 . S
C1664 C1665 1.370 . S
C1664 C1666 1.363 . S
C1664 H1680 0.931 . S
C1665 C1664 1.370 . S
C1665 C1669 1.407 . S
C1666 C1664 1.363 . S
C1666 C1667 1.370 . S
C1666 C1670 1.524 . S
C1667 C1659 1.503 . S
C1667 C1666 1.370 . S
C1667 C1668 1.397 1_545 S
C1668 C1667 1.397 1_565 S
C1668 C1669 1.396 1_565 S
C1668 C1671 1.553 . S
C1669 C1665 1.407 . S
C1669 C1668 1.396 1_545 S
C1669 H1681 0.930 1_545 S
C1670 C1666 1.524 . S
C1670 H1682 0.956 . S
C1670 H1683 0.961 . S
C1670 H1684 0.961 . S
C1671 C1668 1.553 . S
C1671 H1685 0.958 . S
C1671 H1686 0.961 . S
C1671 H1687 0.959 1_565 S
H1672 C1656 0.931 . S
H1673 C1661 0.929 . S
H1674 C1662 0.960 . S
H1675 C1662 0.962 . S
H1676 C1662 0.960 . S
H1677 C1663 0.961 . S
H1678 C1663 0.961 . S
H1679 C1663 0.961 . S
H1680 C1664 0.931 . S
H1681 C1669 0.930 1_565 S
H1682 C1670 0.956 . S
H1683 C1670 0.961 . S
H1684 C1670 0.961 . S
H1685 C1671 0.958 . S
H1686 C1671 0.961 . S
H1687 C1671 0.959 1_545 S
C1688 C1689 1.391 . S
C1688 C1690 1.394 . S
C1688 H1704 0.931 . S
C1689 C1688 1.391 . S
C1689 C1693 1.376 1_655 S
C1690 C1688 1.394 . S
C1690 C1691 1.369 . S
C1690 C1694 1.531 . S
C1691 C1690 1.369 . S
C1691 C1692 1.410 1_655 S
C1691 C1699 1.503 . S
C1692 C1691 1.410 1_455 S
C1692 C1693 1.392 . S
C1692 C1695 1.511 . S
C1693 C1689 1.376 1_455 S
C1693 C1692 1.392 . S
C1693 H1705 0.929 . S
C1694 C1690 1.531 . S
C1694 H1706 0.960 . S
C1694 H1707 0.962 . S
C1694 H1708 0.960 . S
C1695 C1692 1.511 . S
C1695 H1709 0.961 . S
C1695 H1710 0.961 . S
C1695 H1711 0.961 . S
C1696 C1697 1.370 . S
C1696 C1698 1.363 . S
C1696 H1712 0.931 . S
C1697 C1696 1.370 . S
C1697 C1701 1.367 1_655 S
C1698 C1696 1.363 . S
C1698 C1699 1.370 . S
C1698 C1702 1.524 . S
C1699 C1691 1.503 . S
C1699 C1698 1.370 . S
C1699 C1700 1.403 1_655 S
C1700 C1699 1.403 1_455 S
C1700 C1701 1.379 . S
C1700 C1703 1.539 . S
C1701 C1697 1.367 1_455 S
C1701 C1700 1.379 . S
C1701 H1713 0.999 . S
C1702 C1698 1.524 . S
C1702 H1714 0.956 . S
C1702 H1715 0.961 . S
C1702 H1716 0.961 . S
C1703 C1700 1.539 . S
C1703 H1717 0.958 . S
C1703 H1718 0.961 . S
C1703 H1719 0.960 . S
H1704 C1688 0.931 . S
H1705 C1693 0.929 . S
H1706 C1694 0.960 . S
H1707 C1694 0.962 . S
H1708 C1694 0.960 . S
H1709 C1695 0.961 . S
H1710 C1695 0.961 . S
H1711 C1695 0.961 . S
H1712 C1696 0.931 . S
H1713 C1701 0.999 . S
H1714 C1702 0.956 . S
H1715 C1702 0.961 . S
H1716 C1702 0.961 . S
H1717 C1703 0.958 . S
H1718 C1703 0.961 . S
H1719 C1703 0.960 . S
C1720 C1721 1.391 . S
C1720 C1722 1.394 . S
C1720 H1736 0.931 . S
C1721 C1720 1.391 . S
C1721 C1725 1.376 . S
C1722 C1720 1.394 . S
C1722 C1723 1.369 . S
C1722 C1726 1.531 . S
C1723 C1722 1.369 . S
C1723 C1724 1.410 . S
C1723 C1731 1.503 . S
C1724 C1723 1.410 . S
C1724 C1725 1.392 . S
C1724 C1727 1.511 . S
C1725 C1721 1.376 . S
C1725 C1724 1.392 . S
C1725 H1737 0.929 . S
C1726 C1722 1.531 . S
C1726 H1738 0.960 . S
C1726 H1739 0.962 . S
C1726 H1740 0.960 . S
C1727 C1724 1.511 . S
C1727 H1741 0.961 . S
C1727 H1742 0.961 . S
C1727 H1743 0.961 . S
C1728 C1729 1.370 . S
C1728 C1730 1.363 . S
C1728 H1744 0.931 . S
C1729 C1728 1.370 . S
C1729 C1733 1.408 . S
C1730 C1728 1.363 . S
C1730 C1731 1.370 . S
C1730 C1734 1.524 . S
C1731 C1723 1.503 . S
C1731 C1730 1.370 . S
C1731 C1732 1.403 . S
C1732 C1731 1.403 . S
C1732 C1733 1.404 . S
C1732 C1735 1.539 . S
C1733 C1729 1.408 . S
C1733 C1732 1.404 . S
C1733 H1745 0.930 . S
C1734 C1730 1.524 . S
C1734 H1746 0.956 . S
C1734 H1747 0.961 . S
C1734 H1748 0.961 . S
C1735 C1732 1.539 . S
C1735 H1749 0.958 . S
C1735 H1750 0.961 . S
C1735 H1751 0.960 . S
H1736 C1720 0.931 . S
H1737 C1725 0.929 . S
H1738 C1726 0.960 . S
H1739 C1726 0.962 . S
H1740 C1726 0.960 . S
H1741 C1727 0.961 . S
H1742 C1727 0.961 . S
H1743 C1727 0.961 . S
H1744 C1728 0.931 . S
H1745 C1733 0.930 . S
H1746 C1734 0.956 . S
H1747 C1734 0.961 . S
H1748 C1734 0.961 . S
H1749 C1735 0.958 . S
H1750 C1735 0.961 . S
H1751 C1735 0.960 . S
C1752 C1753 1.391 . S
C1752 C1754 1.394 . S
C1752 H1768 0.931 . S
C1753 C1752 1.391 . S
C1753 C1757 1.376 . S
C1754 C1752 1.394 . S
C1754 C1755 1.369 . S
C1754 C1758 1.531 . S
C1755 C1754 1.369 . S
C1755 C1756 1.410 . S
C1755 C1763 1.503 . S
C1756 C1755 1.410 . S
C1756 C1757 1.392 . S
C1756 C1759 1.511 . S
C1757 C1753 1.376 . S
C1757 C1756 1.392 . S
C1757 H1769 0.929 . S
C1758 C1754 1.531 . S
C1758 H1770 0.960 . S
C1758 H1771 0.962 . S
C1758 H1772 0.960 . S
C1759 C1756 1.511 . S
C1759 H1773 0.961 . S
C1759 H1774 0.961 . S
C1759 H1775 0.961 . S
C1760 C1761 1.370 . S
C1760 C1762 1.363 . S
C1760 H1776 0.931 . S
C1761 C1760 1.370 . S
C1761 C1765 1.408 . S
C1762 C1760 1.363 . S
C1762 C1763 1.370 . S
C1762 C1766 1.524 . S
C1763 C1755 1.503 . S
C1763 C1762 1.370 . S
C1763 C1764 1.403 . S
C1764 C1763 1.403 . S
C1764 C1765 1.404 . S
C1764 C1767 1.539 . S
C1765 C1761 1.408 . S
C1765 C1764 1.404 . S
C1765 H1777 0.930 . S
C1766 C1762 1.524 . S
C1766 H1778 0.956 . S
C1766 H1779 0.961 . S
C1766 H1780 0.961 . S
C1767 C1764 1.539 . S
C1767 H1781 0.958 . S
C1767 H1782 0.961 . S
C1767 H1783 0.960 . S
H1768 C1752 0.931 . S
H1769 C1757 0.929 . S
H1770 C1758 0.960 . S
H1771 C1758 0.962 . S
H1772 C1758 0.960 . S
H1773 C1759 0.961 . S
H1774 C1759 0.961 . S
H1775 C1759 0.961 . S
H1776 C1760 0.931 . S
H1777 C1765 0.930 . S
H1778 C1766 0.956 . S
H1779 C1766 0.961 . S
H1780 C1766 0.961 . S
H1781 C1767 0.958 . S
H1782 C1767 0.961 . S
H1783 C1767 0.960 . S
C1784 C1785 1.391 . S
C1784 C1786 1.394 . S
C1784 H1800 0.931 . S
C1785 C1784 1.391 . S
C1785 C1789 1.376 . S
C1786 C1784 1.394 . S
C1786 C1787 1.369 . S
C1786 C1790 1.531 . S
C1787 C1786 1.369 . S
C1787 C1788 1.410 . S
C1787 C1795 1.503 . S
C1788 C1787 1.410 . S
C1788 C1789 1.392 . S
C1788 C1791 1.511 . S
C1789 C1785 1.376 . S
C1789 C1788 1.392 . S
C1789 H1801 0.929 . S
C1790 C1786 1.531 . S
C1790 H1802 0.960 . S
C1790 H1803 0.962 . S
C1790 H1804 0.960 . S
C1791 C1788 1.511 . S
C1791 H1805 0.961 . S
C1791 H1806 0.961 . S
C1791 H1807 0.961 . S
C1792 C1793 1.370 . S
C1792 C1794 1.363 . S
C1792 H1808 0.931 . S
C1793 C1792 1.370 . S
C1793 C1797 1.408 . S
C1794 C1792 1.363 . S
C1794 C1795 1.370 . S
C1794 C1798 1.524 . S
C1795 C1787 1.503 . S
C1795 C1794 1.370 . S
C1795 C1796 1.403 . S
C1796 C1795 1.403 . S
C1796 C1797 1.404 . S
C1796 C1799 1.539 . S
C1797 C1793 1.408 . S
C1797 C1796 1.404 . S
C1797 H1809 0.930 . S
C1798 C1794 1.524 . S
C1798 H1810 0.956 . S
C1798 H1811 0.961 . S
C1798 H1812 0.961 . S
C1799 C1796 1.539 . S
C1799 H1813 0.958 . S
C1799 H1814 0.961 . S
C1799 H1815 0.960 . S
H1800 C1784 0.931 . S
H1801 C1789 0.929 . S
H1802 C1790 0.960 . S
H1803 C1790 0.962 . S
H1804 C1790 0.960 . S
H1805 C1791 0.961 . S
H1806 C1791 0.961 . S
H1807 C1791 0.961 . S
H1808 C1792 0.931 . S
H1809 C1797 0.930 . S
H1810 C1798 0.956 . S
H1811 C1798 0.961 . S
H1812 C1798 0.961 . S
H1813 C1799 0.958 . S
H1814 C1799 0.961 . S
H1815 C1799 0.960 . S
C1816 C1817 1.391 . S
C1816 C1818 1.394 . S
C1816 H1832 0.931 . S
C1817 C1816 1.391 . S
C1817 C1821 1.376 . S
C1818 C1816 1.394 . S
C1818 C1819 1.369 . S
C1818 C1822 1.531 . S
C1819 C1818 1.369 . S
C1819 C1820 1.410 . S
C1819 C1827 1.503 . S
C1820 C1819 1.410 . S
C1820 C1821 1.392 . S
C1820 C1823 1.511 . S
C1821 C1817 1.376 . S
C1821 C1820 1.392 . S
C1821 H1833 0.929 . S
C1822 C1818 1.531 . S
C1822 H1834 0.960 . S
C1822 H1835 0.962 . S
C1822 H1836 0.960 . S
C1823 C1820 1.511 . S
C1823 H1837 0.961 . S
C1823 H1838 0.961 . S
C1823 H1839 0.961 . S
C1824 C1825 1.370 . S
C1824 C1826 1.363 . S
C1824 H1840 0.931 . S
C1825 C1824 1.370 . S
C1825 C1829 1.408 . S
C1826 C1824 1.363 . S
C1826 C1827 1.370 . S
C1826 C1830 1.524 . S
C1827 C1819 1.503 . S
C1827 C1826 1.370 . S
C1827 C1828 1.403 . S
C1828 C1827 1.403 . S
C1828 C1829 1.404 . S
C1828 C1831 1.539 . S
C1829 C1825 1.408 . S
C1829 C1828 1.404 . S
C1829 H1841 0.930 . S
C1830 C1826 1.524 . S
C1830 H1842 0.956 . S
C1830 H1843 0.961 . S
C1830 H1844 0.961 . S
C1831 C1828 1.539 . S
C1831 H1845 0.958 . S
C1831 H1846 0.961 . S
C1831 H1847 0.960 . S
H1832 C1816 0.931 . S
H1833 C1821 0.929 . S
H1834 C1822 0.960 . S
H1835 C1822 0.962 . S
H1836 C1822 0.960 . S
H1837 C1823 0.961 . S
H1838 C1823 0.961 . S
H1839 C1823 0.961 . S
H1840 C1824 0.931 . S
H1841 C1829 0.930 . S
H1842 C1830 0.956 . S
H1843 C1830 0.961 . S
H1844 C1830 0.961 . S
H1845 C1831 0.958 . S
H1846 C1831 0.961 . S
H1847 C1831 0.960 . S
C1848 C1849 1.391 . S
C1848 C1850 1.394 . S
C1848 H1864 0.931 . S
C1849 C1848 1.391 . S
C1849 C1853 1.376 . S
C1850 C1848 1.394 . S
C1850 C1851 1.369 . S
C1850 C1854 1.531 . S
C1851 C1850 1.369 . S
C1851 C1852 1.410 . S
C1851 C1859 1.503 . S
C1852 C1851 1.410 . S
C1852 C1853 1.392 . S
C1852 C1855 1.511 . S
C1853 C1849 1.376 . S
C1853 C1852 1.392 . S
C1853 H1865 0.929 . S
C1854 C1850 1.531 . S
C1854 H1866 0.960 . S
C1854 H1867 0.962 . S
C1854 H1868 0.960 . S
C1855 C1852 1.511 . S
C1855 H1869 0.961 . S
C1855 H1870 0.961 . S
C1855 H1871 0.961 . S
C1856 C1857 1.370 . S
C1856 C1858 1.363 . S
C1856 H1872 0.931 . S
C1857 C1856 1.370 . S
C1857 C1861 1.408 . S
C1858 C1856 1.363 . S
C1858 C1859 1.370 . S
C1858 C1862 1.524 . S
C1859 C1851 1.503 . S
C1859 C1858 1.370 . S
C1859 C1860 1.403 . S
C1860 C1859 1.403 . S
C1860 C1861 1.404 . S
C1860 C1863 1.539 . S
C1861 C1857 1.408 . S
C1861 C1860 1.404 . S
C1861 H1873 0.930 . S
C1862 C1858 1.524 . S
C1862 H1874 0.956 . S
C1862 H1875 0.961 . S
C1862 H1876 0.961 . S
C1863 C1860 1.539 . S
C1863 H1877 0.958 . S
C1863 H1878 0.961 . S
C1863 H1879 0.960 . S
H1864 C1848 0.931 . S
H1865 C1853 0.929 . S
H1866 C1854 0.960 . S
H1867 C1854 0.962 . S
H1868 C1854 0.960 . S
H1869 C1855 0.961 . S
H1870 C1855 0.961 . S
H1871 C1855 0.961 . S
H1872 C1856 0.931 . S
H1873 C1861 0.930 . S
H1874 C1862 0.956 . S
H1875 C1862 0.961 . S
H1876 C1862 0.961 . S
H1877 C1863 0.958 . S
H1878 C1863 0.961 . S
H1879 C1863 0.960 . S
C1880 C1881 1.391 . S
C1880 C1882 1.394 . S
C1880 H1896 0.931 . S
C1881 C1880 1.391 . S
C1881 C1885 1.376 . S
C1882 C1880 1.394 . S
C1882 C1883 1.369 . S
C1882 C1886 1.531 . S
C1883 C1882 1.369 . S
C1883 C1884 1.410 . S
C1883 C1891 1.503 . S
C1884 C1883 1.410 . S
C1884 C1885 1.392 . S
C1884 C1887 1.511 . S
C1885 C1881 1.376 . S
C1885 C1884 1.392 . S
C1885 H1897 0.929 . S
C1886 C1882 1.531 . S
C1886 H1898 0.960 . S
C1886 H1899 0.962 . S
C1886 H1900 0.960 . S
C1887 C1884 1.511 . S
C1887 H1901 0.961 . S
C1887 H1902 0.961 . S
C1887 H1903 0.961 . S
C1888 C1889 1.370 . S
C1888 C1890 1.363 . S
C1888 H1904 0.931 . S
C1889 C1888 1.370 . S
C1889 C1893 1.408 . S
C1890 C1888 1.363 . S
C1890 C1891 1.370 . S
C1890 C1894 1.524 . S
C1891 C1883 1.503 . S
C1891 C1890 1.370 . S
C1891 C1892 1.403 . S
C1892 C1891 1.403 . S
C1892 C1893 1.404 . S
C1892 C1895 1.539 . S
C1893 C1889 1.408 . S
C1893 C1892 1.404 . S
C1893 H1905 0.930 . S
C1894 C1890 1.524 . S
C1894 H1906 0.956 . S
C1894 H1907 0.961 . S
C1894 H1908 0.961 . S
C1895 C1892 1.539 . S
C1895 H1909 0.958 . S
C1895 H1910 0.961 . S
C1895 H1911 0.960 . S
H1896 C1880 0.931 . S
H1897 C1885 0.929 . S
H1898 C1886 0.960 . S
H1899 C1886 0.962 . S
H1900 C1886 0.960 . S
H1901 C1887 0.961 . S
H1902 C1887 0.961 . S
H1903 C1887 0.961 . S
H1904 C1888 0.931 . S
H1905 C1893 0.930 . S
H1906 C1894 0.956 . S
H1907 C1894 0.961 . S
H1908 C1894 0.961 . S
H1909 C1895 0.958 . S
H1910 C1895 0.961 . S
H1911 C1895 0.960 . S
C1912 C1913 1.391 . S
C1912 C1914 1.394 . S
C1912 H1928 0.931 . S
C1913 C1912 1.391 . S
C1913 C1917 1.376 . S
C1914 C1912 1.394 . S
C1914 C1915 1.369 . S
C1914 C1918 1.531 . S
C1915 C1914 1.369 . S
C1915 C1916 1.410 . S
C1915 C1923 1.503 . S
C1916 C1915 1.410 . S
C1916 C1917 1.392 . S
C1916 C1919 1.511 . S
C1917 C1913 1.376 . S
C1917 C1916 1.392 . S
C1917 H1929 0.929 . S
C1918 C1914 1.531 . S
C1918 H1930 0.960 . S
C1918 H1931 0.962 . S
C1918 H1932 0.960 . S
C1919 C1916 1.511 . S
C1919 H1933 0.961 . S
C1919 H1934 0.961 . S
C1919 H1935 0.961 . S
C1920 C1921 1.370 . S
C1920 C1922 1.363 . S
C1920 H1936 0.931 . S
C1921 C1920 1.370 . S
C1921 C1925 1.408 . S
C1922 C1920 1.363 . S
C1922 C1923 1.370 . S
C1922 C1926 1.524 . S
C1923 C1915 1.503 . S
C1923 C1922 1.370 . S
C1923 C1924 1.403 . S
C1924 C1923 1.403 . S
C1924 C1925 1.404 . S
C1924 C1927 1.539 . S
C1925 C1921 1.408 . S
C1925 C1924 1.404 . S
C1925 H1937 0.930 . S
C1926 C1922 1.524 . S
C1926 H1938 0.956 . S
C1926 H1939 0.961 . S
C1926 H1940 0.961 . S
C1927 C1924 1.539 . S
C1927 H1941 0.958 . S
C1927 H1942 0.961 . S
C1927 H1943 0.960 . S
H1928 C1912 0.931 . S
H1929 C1917 0.929 . S
H1930 C1918 0.960 . S
H1931 C1918 0.962 . S
H1932 C1918 0.960 . S
H1933 C1919 0.961 . S
H1934 C1919 0.961 . S
H1935 C1919 0.961 . S
H1936 C1920 0.931 . S
H1937 C1925 0.930 . S
H1938 C1926 0.956 . S
H1939 C1926 0.961 . S
H1940 C1926 0.961 . S
H1941 C1927 0.958 . S
H1942 C1927 0.961 . S
H1943 C1927 0.960 . S
C1944 C1945 1.391 . S
C1944 C1946 1.394 . S
C1944 H1960 0.931 . S
C1945 C1944 1.391 . S
C1945 C1949 1.376 . S
C1946 C1944 1.394 . S
C1946 C1947 1.369 . S
C1946 C1950 1.531 . S
C1947 C1946 1.369 . S
C1947 C1948 1.410 . S
C1947 C1955 1.503 . S
C1948 C1947 1.410 . S
C1948 C1949 1.392 . S
C1948 C1951 1.511 . S
C1949 C1945 1.376 . S
C1949 C1948 1.392 . S
C1949 H1961 0.929 . S
C1950 C1946 1.531 . S
C1950 H1962 0.960 . S
C1950 H1963 0.962 . S
C1950 H1964 0.960 . S
C1951 C1948 1.511 . S
C1951 H1965 0.961 . S
C1951 H1966 0.961 . S
C1951 H1967 0.961 . S
C1952 C1953 1.370 . S
C1952 C1954 1.363 . S
C1952 H1968 0.931 . S
C1953 C1952 1.370 . S
C1953 C1957 1.408 . S
C1954 C1952 1.363 . S
C1954 C1955 1.370 . S
C1954 C1958 1.524 . S
C1955 C1947 1.503 . S
C1955 C1954 1.370 . S
C1955 C1956 1.403 . S
C1956 C1955 1.403 . S
C1956 C1957 1.404 . S
C1956 C1959 1.539 . S
C1957 C1953 1.408 . S
C1957 C1956 1.404 . S
C1957 H1969 0.930 . S
C1958 C1954 1.524 . S
C1958 H1970 0.956 . S
C1958 H1971 0.961 . S
C1958 H1972 0.961 . S
C1959 C1956 1.539 . S
C1959 H1973 0.958 . S
C1959 H1974 0.961 . S
C1959 H1975 0.960 . S
H1960 C1944 0.931 . S
H1961 C1949 0.929 . S
H1962 C1950 0.960 . S
H1963 C1950 0.962 . S
H1964 C1950 0.960 . S
H1965 C1951 0.961 . S
H1966 C1951 0.961 . S
H1967 C1951 0.961 . S
H1968 C1952 0.931 . S
H1969 C1957 0.930 . S
H1970 C1958 0.956 . S
H1971 C1958 0.961 . S
H1972 C1958 0.961 . S
H1973 C1959 0.958 . S
H1974 C1959 0.961 . S
H1975 C1959 0.960 . S
C1976 C1977 1.391 . S
C1976 C1978 1.394 . S
C1976 H1992 0.931 . S
C1977 C1976 1.391 . S
C1977 C1981 1.376 . S
C1978 C1976 1.394 . S
C1978 C1979 1.369 . S
C1978 C1982 1.531 . S
C1979 C1978 1.369 . S
C1979 C1980 1.410 . S
C1979 C1987 1.503 . S
C1980 C1979 1.410 . S
C1980 C1981 1.392 . S
C1980 C1983 1.511 . S
C1981 C1977 1.376 . S
C1981 C1980 1.392 . S
C1981 H1993 0.929 . S
C1982 C1978 1.531 . S
C1982 H1994 0.960 . S
C1982 H1995 0.962 . S
C1982 H1996 0.960 . S
C1983 C1980 1.511 . S
C1983 H1997 0.961 . S
C1983 H1998 0.961 . S
C1983 H1999 0.961 . S
C1984 C1985 1.370 . S
C1984 C1986 1.363 . S
C1984 H2000 0.931 . S
C1985 C1984 1.370 . S
C1985 C1989 1.408 . S
C1986 C1984 1.363 . S
C1986 C1987 1.370 . S
C1986 C1990 1.524 . S
C1987 C1979 1.503 . S
C1987 C1986 1.370 . S
C1987 C1988 1.403 . S
C1988 C1987 1.403 . S
C1988 C1989 1.404 . S
C1988 C1991 1.539 . S
C1989 C1985 1.408 . S
C1989 C1988 1.404 . S
C1989 H2001 0.930 . S
C1990 C1986 1.524 . S
C1990 H2002 0.956 . S
C1990 H2003 0.961 . S
C1990 H2004 0.961 . S
C1991 C1988 1.539 . S
C1991 H2005 0.958 . S
C1991 H2006 0.961 . S
C1991 H2007 0.960 . S
H1992 C1976 0.931 . S
H1993 C1981 0.929 . S
H1994 C1982 0.960 . S
H1995 C1982 0.962 . S
H1996 C1982 0.960 . S
H1997 C1983 0.961 . S
H1998 C1983 0.961 . S
H1999 C1983 0.961 . S
H2000 C1984 0.931 . S
H2001 C1989 0.930 . S
H2002 C1990 0.956 . S
H2003 C1990 0.961 . S
H2004 C1990 0.961 . S
H2005 C1991 0.958 . S
H2006 C1991 0.961 . S
H2007 C1991 0.960 . S
C2008 C2009 1.391 . S
C2008 C2010 1.394 . S
C2008 H2024 0.931 . S
C2009 C2008 1.391 . S
C2009 C2013 1.376 . S
C2010 C2008 1.394 . S
C2010 C2011 1.369 . S
C2010 C2014 1.531 . S
C2011 C2010 1.369 . S
C2011 C2012 1.410 . S
C2011 C2019 1.503 . S
C2012 C2011 1.410 . S
C2012 C2013 1.392 . S
C2012 C2015 1.511 . S
C2013 C2009 1.376 . S
C2013 C2012 1.392 . S
C2013 H2025 0.929 . S
C2014 C2010 1.531 . S
C2014 H2026 0.960 . S
C2014 H2027 0.962 . S
C2014 H2028 0.960 . S
C2015 C2012 1.511 . S
C2015 H2029 0.961 . S
C2015 H2030 0.961 . S
C2015 H2031 0.961 . S
C2016 C2017 1.370 . S
C2016 C2018 1.363 . S
C2016 H2032 0.931 . S
C2017 C2016 1.370 . S
C2017 C2021 1.408 . S
C2018 C2016 1.363 . S
C2018 C2019 1.370 . S
C2018 C2022 1.524 . S
C2019 C2011 1.503 . S
C2019 C2018 1.370 . S
C2019 C2020 1.403 . S
C2020 C2019 1.403 . S
C2020 C2021 1.404 . S
C2020 C2023 1.539 . S
C2021 C2017 1.408 . S
C2021 C2020 1.404 . S
C2021 H2033 0.930 . S
C2022 C2018 1.524 . S
C2022 H2034 0.956 . S
C2022 H2035 0.961 . S
C2022 H2036 0.961 . S
C2023 C2020 1.539 . S
C2023 H2037 0.958 . S
C2023 H2038 0.961 . S
C2023 H2039 0.960 . S
H2024 C2008 0.931 . S
H2025 C2013 0.929 . S
H2026 C2014 0.960 . S
H2027 C2014 0.962 . S
H2028 C2014 0.960 . S
H2029 C2015 0.961 . S
H2030 C2015 0.961 . S
H2031 C2015 0.961 . S
H2032 C2016 0.931 . S
H2033 C2021 0.930 . S
H2034 C2022 0.956 . S
H2035 C2022 0.961 . S
H2036 C2022 0.961 . S
H2037 C2023 0.958 . S
H2038 C2023 0.961 . S
H2039 C2023 0.960 . S
C2040 C2041 1.391 . S
C2040 C2042 1.394 . S
C2040 H2056 0.931 . S
C2041 C2040 1.391 . S
C2041 C2045 1.376 . S
C2042 C2040 1.394 . S
C2042 C2043 1.369 . S
C2042 C2046 1.531 . S
C2043 C2042 1.369 . S
C2043 C2044 1.410 . S
C2043 C2051 1.503 . S
C2044 C2043 1.410 . S
C2044 C2045 1.392 . S
C2044 C2047 1.511 . S
C2045 C2041 1.376 . S
C2045 C2044 1.392 . S
C2045 H2057 0.929 . S
C2046 C2042 1.531 . S
C2046 H2058 0.960 . S
C2046 H2059 0.962 . S
C2046 H2060 0.960 . S
C2047 C2044 1.511 . S
C2047 H2061 0.961 . S
C2047 H2062 0.961 . S
C2047 H2063 0.961 . S
C2048 C2049 1.370 . S
C2048 C2050 1.363 . S
C2048 H2064 0.931 . S
C2049 C2048 1.370 . S
C2049 C2053 1.408 . S
C2050 C2048 1.363 . S
C2050 C2051 1.370 . S
C2050 C2054 1.524 . S
C2051 C2043 1.503 . S
C2051 C2050 1.370 . S
C2051 C2052 1.403 . S
C2052 C2051 1.403 . S
C2052 C2053 1.404 . S
C2052 C2055 1.539 . S
C2053 C2049 1.408 . S
C2053 C2052 1.404 . S
C2053 H2065 0.930 . S
C2054 C2050 1.524 . S
C2054 H2066 0.956 . S
C2054 H2067 0.961 . S
C2054 H2068 0.961 . S
C2055 C2052 1.539 . S
C2055 H2069 0.958 . S
C2055 H2070 0.961 . S
C2055 H2071 0.960 . S
H2056 C2040 0.931 . S
H2057 C2045 0.929 . S
H2058 C2046 0.960 . S
H2059 C2046 0.962 . S
H2060 C2046 0.960 . S
H2061 C2047 0.961 . S
H2062 C2047 0.961 . S
H2063 C2047 0.961 . S
H2064 C2048 0.931 . S
H2065 C2053 0.930 . S
H2066 C2054 0.956 . S
H2067 C2054 0.961 . S
H2068 C2054 0.961 . S
H2069 C2055 0.958 . S
H2070 C2055 0.961 . S
H2071 C2055 0.960 . S
C2072 C2073 1.391 . S
C2072 C2074 1.394 . S
C2072 H2088 0.931 . S
C2073 C2072 1.391 . S
C2073 C2077 1.376 . S
C2074 C2072 1.394 . S
C2074 C2075 1.369 . S
C2074 C2078 1.531 . S
C2075 C2074 1.369 . S
C2075 C2076 1.410 . S
C2075 C2083 1.503 . S
C2076 C2075 1.410 . S
C2076 C2077 1.392 . S
C2076 C2079 1.511 . S
C2077 C2073 1.376 . S
C2077 C2076 1.392 . S
C2077 H2089 0.929 . S
C2078 C2074 1.531 . S
C2078 H2090 0.960 . S
C2078 H2091 0.962 . S
C2078 H2092 0.960 . S
C2079 C2076 1.511 . S
C2079 H2093 0.961 . S
C2079 H2094 0.961 . S
C2079 H2095 0.961 . S
C2080 C2081 1.370 . S
C2080 C2082 1.363 . S
C2080 H2096 0.931 . S
C2081 C2080 1.370 . S
C2081 C2085 1.408 . S
C2082 C2080 1.363 . S
C2082 C2083 1.370 . S
C2082 C2086 1.524 . S
C2083 C2075 1.503 . S
C2083 C2082 1.370 . S
C2083 C2084 1.403 . S
C2084 C2083 1.403 . S
C2084 C2085 1.404 . S
C2084 C2087 1.539 . S
C2085 C2081 1.408 . S
C2085 C2084 1.404 . S
C2085 H2097 0.930 . S
C2086 C2082 1.524 . S
C2086 H2098 0.956 . S
C2086 H2099 0.961 . S
C2086 H2100 0.961 . S
C2087 C2084 1.539 . S
C2087 H2101 0.958 . S
C2087 H2102 0.961 . S
C2087 H2103 0.960 . S
H2088 C2072 0.931 . S
H2089 C2077 0.929 . S
H2090 C2078 0.960 . S
H2091 C2078 0.962 . S
H2092 C2078 0.960 . S
H2093 C2079 0.961 . S
H2094 C2079 0.961 . S
H2095 C2079 0.961 . S
H2096 C2080 0.931 . S
H2097 C2085 0.930 . S
H2098 C2086 0.956 . S
H2099 C2086 0.961 . S
H2100 C2086 0.961 . S
H2101 C2087 0.958 . S
H2102 C2087 0.961 . S
H2103 C2087 0.960 . S
C2104 C2105 1.391 . S
C2104 C2106 1.394 . S
C2104 H2120 0.931 . S
C2105 C2104 1.391 . S
C2105 C2109 1.376 . S
C2106 C2104 1.394 . S
C2106 C2107 1.369 . S
C2106 C2110 1.531 . S
C2107 C2106 1.369 . S
C2107 C2108 1.410 . S
C2107 C2115 1.503 . S
C2108 C2107 1.410 . S
C2108 C2109 1.392 . S
C2108 C2111 1.511 . S
C2109 C2105 1.376 . S
C2109 C2108 1.392 . S
C2109 H2121 0.929 . S
C2110 C2106 1.531 . S
C2110 H2122 0.960 . S
C2110 H2123 0.962 . S
C2110 H2124 0.960 . S
C2111 C2108 1.511 . S
C2111 H2125 0.961 . S
C2111 H2126 0.961 . S
C2111 H2127 0.961 . S
C2112 C2113 1.370 . S
C2112 C2114 1.363 . S
C2112 H2128 0.931 . S
C2113 C2112 1.370 . S
C2113 C2117 1.408 . S
C2114 C2112 1.363 . S
C2114 C2115 1.370 . S
C2114 C2118 1.524 . S
C2115 C2107 1.503 . S
C2115 C2114 1.370 . S
C2115 C2116 1.403 . S
C2116 C2115 1.403 . S
C2116 C2117 1.404 . S
C2116 C2119 1.539 . S
C2117 C2113 1.408 . S
C2117 C2116 1.404 . S
C2117 H2129 0.930 . S
C2118 C2114 1.524 . S
C2118 H2130 0.956 . S
C2118 H2131 0.961 . S
C2118 H2132 0.961 . S
C2119 C2116 1.539 . S
C2119 H2133 0.958 . S
C2119 H2134 0.961 . S
C2119 H2135 0.960 . S
H2120 C2104 0.931 . S
H2121 C2109 0.929 . S
H2122 C2110 0.960 . S
H2123 C2110 0.962 . S
H2124 C2110 0.960 . S
H2125 C2111 0.961 . S
H2126 C2111 0.961 . S
H2127 C2111 0.961 . S
H2128 C2112 0.931 . S
H2129 C2117 0.930 . S
H2130 C2118 0.956 . S
H2131 C2118 0.961 . S
H2132 C2118 0.961 . S
H2133 C2119 0.958 . S
H2134 C2119 0.961 . S
H2135 C2119 0.960 . S
C2136 C2137 1.391 . S
C2136 C2138 1.394 . S
C2136 H2152 0.931 . S
C2137 C2136 1.391 . S
C2137 C2141 1.376 . S
C2138 C2136 1.394 . S
C2138 C2139 1.369 . S
C2138 C2142 1.531 . S
C2139 C2138 1.369 . S
C2139 C2140 1.410 . S
C2139 C2147 1.503 . S
C2140 C2139 1.410 . S
C2140 C2141 1.392 . S
C2140 C2143 1.511 . S
C2141 C2137 1.376 . S
C2141 C2140 1.392 . S
C2141 H2153 0.929 . S
C2142 C2138 1.531 . S
C2142 H2154 0.960 . S
C2142 H2155 0.962 . S
C2142 H2156 0.960 . S
C2143 C2140 1.511 . S
C2143 H2157 0.961 . S
C2143 H2158 0.961 . S
C2143 H2159 0.961 . S
C2144 C2145 1.370 . S
C2144 C2146 1.363 . S
C2144 H2160 0.931 . S
C2145 C2144 1.370 . S
C2145 C2149 1.408 . S
C2146 C2144 1.363 . S
C2146 C2147 1.370 . S
C2146 C2150 1.524 . S
C2147 C2139 1.503 . S
C2147 C2146 1.370 . S
C2147 C2148 1.403 . S
C2148 C2147 1.403 . S
C2148 C2149 1.404 . S
C2148 C2151 1.539 . S
C2149 C2145 1.408 . S
C2149 C2148 1.404 . S
C2149 H2161 0.930 . S
C2150 C2146 1.524 . S
C2150 H2162 0.956 . S
C2150 H2163 0.961 . S
C2150 H2164 0.961 . S
C2151 C2148 1.539 . S
C2151 H2165 0.958 . S
C2151 H2166 0.961 . S
C2151 H2167 0.960 . S
H2152 C2136 0.931 . S
H2153 C2141 0.929 . S
H2154 C2142 0.960 . S
H2155 C2142 0.962 . S
H2156 C2142 0.960 . S
H2157 C2143 0.961 . S
H2158 C2143 0.961 . S
H2159 C2143 0.961 . S
H2160 C2144 0.931 . S
H2161 C2149 0.930 . S
H2162 C2150 0.956 . S
H2163 C2150 0.961 . S
H2164 C2150 0.961 . S
H2165 C2151 0.958 . S
H2166 C2151 0.961 . S
H2167 C2151 0.960 . S
C2168 C2169 1.391 . S
C2168 C2170 1.394 . S
C2168 H2184 0.931 . S
C2169 C2168 1.391 . S
C2169 C2173 1.376 . S
C2170 C2168 1.394 . S
C2170 C2171 1.369 . S
C2170 C2174 1.531 . S
C2171 C2170 1.369 . S
C2171 C2172 1.410 . S
C2171 C2179 1.503 . S
C2172 C2171 1.410 . S
C2172 C2173 1.392 . S
C2172 C2175 1.511 . S
C2173 C2169 1.376 . S
C2173 C2172 1.392 . S
C2173 H2185 0.929 . S
C2174 C2170 1.531 . S
C2174 H2186 0.960 . S
C2174 H2187 0.962 . S
C2174 H2188 0.960 . S
C2175 C2172 1.511 . S
C2175 H2189 0.961 . S
C2175 H2190 0.961 . S
C2175 H2191 0.961 . S
C2176 C2177 1.370 . S
C2176 C2178 1.363 . S
C2176 H2192 0.931 . S
C2177 C2176 1.370 . S
C2177 C2181 1.408 . S
C2178 C2176 1.363 . S
C2178 C2179 1.370 . S
C2178 C2182 1.524 . S
C2179 C2171 1.503 . S
C2179 C2178 1.370 . S
C2179 C2180 1.403 . S
C2180 C2179 1.403 . S
C2180 C2181 1.404 . S
C2180 C2183 1.539 . S
C2181 C2177 1.408 . S
C2181 C2180 1.404 . S
C2181 H2193 0.930 . S
C2182 C2178 1.524 . S
C2182 H2194 0.956 . S
C2182 H2195 0.961 . S
C2182 H2196 0.961 . S
C2183 C2180 1.539 . S
C2183 H2197 0.958 . S
C2183 H2198 0.961 . S
C2183 H2199 0.960 . S
H2184 C2168 0.931 . S
H2185 C2173 0.929 . S
H2186 C2174 0.960 . S
H2187 C2174 0.962 . S
H2188 C2174 0.960 . S
H2189 C2175 0.961 . S
H2190 C2175 0.961 . S
H2191 C2175 0.961 . S
H2192 C2176 0.931 . S
H2193 C2181 0.930 . S
H2194 C2182 0.956 . S
H2195 C2182 0.961 . S
H2196 C2182 0.961 . S
H2197 C2183 0.958 . S
H2198 C2183 0.961 . S
H2199 C2183 0.960 . S
C2200 C2201 1.391 . S
C2200 C2202 1.394 . S
C2200 H2216 0.931 . S
C2201 C2200 1.391 . S
C2201 C2205 1.376 . S
C2202 C2200 1.394 . S
C2202 C2203 1.369 . S
C2202 C2206 1.531 . S
C2203 C2202 1.369 . S
C2203 C2204 1.410 . S
C2203 C2211 1.503 . S
C2204 C2203 1.410 . S
C2204 C2205 1.392 . S
C2204 C2207 1.511 . S
C2205 C2201 1.376 . S
C2205 C2204 1.392 . S
C2205 H2217 0.929 . S
C2206 C2202 1.531 . S
C2206 H2218 0.960 . S
C2206 H2219 0.962 . S
C2206 H2220 0.960 . S
C2207 C2204 1.511 . S
C2207 H2221 0.961 . S
C2207 H2222 0.961 . S
C2207 H2223 0.961 . S
C2208 C2209 1.370 . S
C2208 C2210 1.363 . S
C2208 H2224 0.931 . S
C2209 C2208 1.370 . S
C2209 C2213 1.408 . S
C2210 C2208 1.363 . S
C2210 C2211 1.370 . S
C2210 C2214 1.524 . S
C2211 C2203 1.503 . S
C2211 C2210 1.370 . S
C2211 C2212 1.403 . S
C2212 C2211 1.403 . S
C2212 C2213 1.404 . S
C2212 C2215 1.539 . S
C2213 C2209 1.408 . S
C2213 C2212 1.404 . S
C2213 H2225 0.930 . S
C2214 C2210 1.524 . S
C2214 H2226 0.956 . S
C2214 H2227 0.961 . S
C2214 H2228 0.961 . S
C2215 C2212 1.539 . S
C2215 H2229 0.958 . S
C2215 H2230 0.961 . S
C2215 H2231 0.960 . S
H2216 C2200 0.931 . S
H2217 C2205 0.929 . S
H2218 C2206 0.960 . S
H2219 C2206 0.962 . S
H2220 C2206 0.960 . S
H2221 C2207 0.961 . S
H2222 C2207 0.961 . S
H2223 C2207 0.961 . S
H2224 C2208 0.931 . S
H2225 C2213 0.930 . S
H2226 C2214 0.956 . S
H2227 C2214 0.961 . S
H2228 C2214 0.961 . S
H2229 C2215 0.958 . S
H2230 C2215 0.961 . S
H2231 C2215 0.960 . S
C2232 C2233 1.391 . S
C2232 C2234 1.394 . S
C2232 H2248 0.931 . S
C2233 C2232 1.391 . S
C2233 C2237 1.376 . S
C2234 C2232 1.394 . S
C2234 C2235 1.369 . S
C2234 C2238 1.531 . S
C2235 C2234 1.369 . S
C2235 C2236 1.410 . S
C2235 C2243 1.503 . S
C2236 C2235 1.410 . S
C2236 C2237 1.392 . S
C2236 C2239 1.511 . S
C2237 C2233 1.376 . S
C2237 C2236 1.392 . S
C2237 H2249 0.929 . S
C2238 C2234 1.531 . S
C2238 H2250 0.960 . S
C2238 H2251 0.962 . S
C2238 H2252 0.960 . S
C2239 C2236 1.511 . S
C2239 H2253 0.961 . S
C2239 H2254 0.961 . S
C2239 H2255 0.961 . S
C2240 C2241 1.370 . S
C2240 C2242 1.363 . S
C2240 H2256 0.931 . S
C2241 C2240 1.370 . S
C2241 C2245 1.408 . S
C2242 C2240 1.363 . S
C2242 C2243 1.370 . S
C2242 C2246 1.524 . S
C2243 C2235 1.503 . S
C2243 C2242 1.370 . S
C2243 C2244 1.403 . S
C2244 C2243 1.403 . S
C2244 C2245 1.404 . S
C2244 C2247 1.539 . S
C2245 C2241 1.408 . S
C2245 C2244 1.404 . S
C2245 H2257 0.930 . S
C2246 C2242 1.524 . S
C2246 H2258 0.956 . S
C2246 H2259 0.961 . S
C2246 H2260 0.961 . S
C2247 C2244 1.539 . S
C2247 H2261 0.958 . S
C2247 H2262 0.961 . S
C2247 H2263 0.960 . S
H2248 C2232 0.931 . S
H2249 C2237 0.929 . S
H2250 C2238 0.960 . S
H2251 C2238 0.962 . S
H2252 C2238 0.960 . S
H2253 C2239 0.961 . S
H2254 C2239 0.961 . S
H2255 C2239 0.961 . S
H2256 C2240 0.931 . S
H2257 C2245 0.930 . S
H2258 C2246 0.956 . S
H2259 C2246 0.961 . S
H2260 C2246 0.961 . S
H2261 C2247 0.958 . S
H2262 C2247 0.961 . S
H2263 C2247 0.960 . S
C2264 C2265 1.391 . S
C2264 C2266 1.394 . S
C2264 H2280 0.931 . S
C2265 C2264 1.391 . S
C2265 C2269 1.376 . S
C2266 C2264 1.394 . S
C2266 C2267 1.369 . S
C2266 C2270 1.531 . S
C2267 C2266 1.369 . S
C2267 C2268 1.410 . S
C2267 C2275 1.503 . S
C2268 C2267 1.410 . S
C2268 C2269 1.392 . S
C2268 C2271 1.511 . S
C2269 C2265 1.376 . S
C2269 C2268 1.392 . S
C2269 H2281 0.929 . S
C2270 C2266 1.531 . S
C2270 H2282 0.960 . S
C2270 H2283 0.962 . S
C2270 H2284 0.960 . S
C2271 C2268 1.511 . S
C2271 H2285 0.961 . S
C2271 H2286 0.961 . S
C2271 H2287 0.961 . S
C2272 C2273 1.370 . S
C2272 C2274 1.363 . S
C2272 H2288 0.931 . S
C2273 C2272 1.370 . S
C2273 C2277 1.408 . S
C2274 C2272 1.363 . S
C2274 C2275 1.370 . S
C2274 C2278 1.524 . S
C2275 C2267 1.503 . S
C2275 C2274 1.370 . S
C2275 C2276 1.403 . S
C2276 C2275 1.403 . S
C2276 C2277 1.404 . S
C2276 C2279 1.539 . S
C2277 C2273 1.408 . S
C2277 C2276 1.404 . S
C2277 H2289 0.930 . S
C2278 C2274 1.524 . S
C2278 H2290 0.956 . S
C2278 H2291 0.961 . S
C2278 H2292 0.961 . S
C2279 C2276 1.539 . S
C2279 H2293 0.958 . S
C2279 H2294 0.961 . S
C2279 H2295 0.960 . S
H2280 C2264 0.931 . S
H2281 C2269 0.929 . S
H2282 C2270 0.960 . S
H2283 C2270 0.962 . S
H2284 C2270 0.960 . S
H2285 C2271 0.961 . S
H2286 C2271 0.961 . S
H2287 C2271 0.961 . S
H2288 C2272 0.931 . S
H2289 C2277 0.930 . S
H2290 C2278 0.956 . S
H2291 C2278 0.961 . S
H2292 C2278 0.961 . S
H2293 C2279 0.958 . S
H2294 C2279 0.961 . S
H2295 C2279 0.960 . S
C2296 C2297 1.391 . S
C2296 C2298 1.394 . S
C2296 H2312 0.931 . S
C2297 C2296 1.391 . S
C2297 C2301 1.376 . S
C2298 C2296 1.394 . S
C2298 C2299 1.369 . S
C2298 C2302 1.531 . S
C2299 C2298 1.369 . S
C2299 C2300 1.410 . S
C2299 C2307 1.503 . S
C2300 C2299 1.410 . S
C2300 C2301 1.392 . S
C2300 C2303 1.511 . S
C2301 C2297 1.376 . S
C2301 C2300 1.392 . S
C2301 H2313 0.929 . S
C2302 C2298 1.531 . S
C2302 H2314 0.960 . S
C2302 H2315 0.962 . S
C2302 H2316 0.960 . S
C2303 C2300 1.511 . S
C2303 H2317 0.961 . S
C2303 H2318 0.961 . S
C2303 H2319 0.961 . S
C2304 C2305 1.370 . S
C2304 C2306 1.363 . S
C2304 H2320 0.931 . S
C2305 C2304 1.370 . S
C2305 C2309 1.408 . S
C2306 C2304 1.363 . S
C2306 C2307 1.370 . S
C2306 C2310 1.524 . S
C2307 C2299 1.503 . S
C2307 C2306 1.370 . S
C2307 C2308 1.403 . S
C2308 C2307 1.403 . S
C2308 C2309 1.404 . S
C2308 C2311 1.539 . S
C2309 C2305 1.408 . S
C2309 C2308 1.404 . S
C2309 H2321 0.930 . S
C2310 C2306 1.524 . S
C2310 H2322 0.956 . S
C2310 H2323 0.961 . S
C2310 H2324 0.961 . S
C2311 C2308 1.539 . S
C2311 H2325 0.958 . S
C2311 H2326 0.961 . S
C2311 H2327 0.960 . S
H2312 C2296 0.931 . S
H2313 C2301 0.929 . S
H2314 C2302 0.960 . S
H2315 C2302 0.962 . S
H2316 C2302 0.960 . S
H2317 C2303 0.961 . S
H2318 C2303 0.961 . S
H2319 C2303 0.961 . S
H2320 C2304 0.931 . S
H2321 C2309 0.930 . S
H2322 C2310 0.956 . S
H2323 C2310 0.961 . S
H2324 C2310 0.961 . S
H2325 C2311 0.958 . S
H2326 C2311 0.961 . S
H2327 C2311 0.960 . S
C2328 C2329 1.391 . S
C2328 C2330 1.394 . S
C2328 H2344 0.931 . S
C2329 C2328 1.391 . S
C2329 C2333 1.376 . S
C2330 C2328 1.394 . S
C2330 C2331 1.369 . S
C2330 C2334 1.531 . S
C2331 C2330 1.369 . S
C2331 C2332 1.410 . S
C2331 C2339 1.503 . S
C2332 C2331 1.410 . S
C2332 C2333 1.392 . S
C2332 C2335 1.511 . S
C2333 C2329 1.376 . S
C2333 C2332 1.392 . S
C2333 H2345 0.929 . S
C2334 C2330 1.531 . S
C2334 H2346 0.960 . S
C2334 H2347 0.962 . S
C2334 H2348 0.960 . S
C2335 C2332 1.511 . S
C2335 H2349 0.961 . S
C2335 H2350 0.961 . S
C2335 H2351 0.961 . S
C2336 C2337 1.370 . S
C2336 C2338 1.363 . S
C2336 H2352 0.931 . S
C2337 C2336 1.370 . S
C2337 C2341 1.408 . S
C2338 C2336 1.363 . S
C2338 C2339 1.370 . S
C2338 C2342 1.524 . S
C2339 C2331 1.503 . S
C2339 C2338 1.370 . S
C2339 C2340 1.403 . S
C2340 C2339 1.403 . S
C2340 C2341 1.404 . S
C2340 C2343 1.539 . S
C2341 C2337 1.408 . S
C2341 C2340 1.404 . S
C2341 H2353 0.930 . S
C2342 C2338 1.524 . S
C2342 H2354 0.956 . S
C2342 H2355 0.961 . S
C2342 H2356 0.961 . S
C2343 C2340 1.539 . S
C2343 H2357 0.958 . S
C2343 H2358 0.961 . S
C2343 H2359 0.960 . S
H2344 C2328 0.931 . S
H2345 C2333 0.929 . S
H2346 C2334 0.960 . S
H2347 C2334 0.962 . S
H2348 C2334 0.960 . S
H2349 C2335 0.961 . S
H2350 C2335 0.961 . S
H2351 C2335 0.961 . S
H2352 C2336 0.931 . S
H2353 C2341 0.930 . S
H2354 C2342 0.956 . S
H2355 C2342 0.961 . S
H2356 C2342 0.961 . S
H2357 C2343 0.958 . S
H2358 C2343 0.961 . S
H2359 C2343 0.960 . S
C2360 C2361 1.391 . S
C2360 C2362 1.394 . S
C2360 H2376 0.931 . S
C2361 C2360 1.391 . S
C2361 C2365 1.376 . S
C2362 C2360 1.394 . S
C2362 C2363 1.369 . S
C2362 C2366 1.531 . S
C2363 C2362 1.369 . S
C2363 C2364 1.410 . S
C2363 C2371 1.503 . S
C2364 C2363 1.410 . S
C2364 C2365 1.392 . S
C2364 C2367 1.511 . S
C2365 C2361 1.376 . S
C2365 C2364 1.392 . S
C2365 H2377 0.929 . S
C2366 C2362 1.531 . S
C2366 H2378 0.960 . S
C2366 H2379 0.962 . S
C2366 H2380 0.960 . S
C2367 C2364 1.511 . S
C2367 H2381 0.961 . S
C2367 H2382 0.961 . S
C2367 H2383 0.961 . S
C2368 C2369 1.370 . S
C2368 C2370 1.363 . S
C2368 H2384 0.931 . S
C2369 C2368 1.370 . S
C2369 C2373 1.408 . S
C2370 C2368 1.363 . S
C2370 C2371 1.370 . S
C2370 C2374 1.524 . S
C2371 C2363 1.503 . S
C2371 C2370 1.370 . S
C2371 C2372 1.403 . S
C2372 C2371 1.403 . S
C2372 C2373 1.404 . S
C2372 C2375 1.539 . S
C2373 C2369 1.408 . S
C2373 C2372 1.404 . S
C2373 H2385 0.930 . S
C2374 C2370 1.524 . S
C2374 H2386 0.956 . S
C2374 H2387 0.961 . S
C2374 H2388 0.961 . S
C2375 C2372 1.539 . S
C2375 H2389 0.958 . S
C2375 H2390 0.961 . S
C2375 H2391 0.960 . S
H2376 C2360 0.931 . S
H2377 C2365 0.929 . S
H2378 C2366 0.960 . S
H2379 C2366 0.962 . S
H2380 C2366 0.960 . S
H2381 C2367 0.961 . S
H2382 C2367 0.961 . S
H2383 C2367 0.961 . S
H2384 C2368 0.931 . S
H2385 C2373 0.930 . S
H2386 C2374 0.956 . S
H2387 C2374 0.961 . S
H2388 C2374 0.961 . S
H2389 C2375 0.958 . S
H2390 C2375 0.961 . S
H2391 C2375 0.960 . S
C2392 C2393 1.391 . S
C2392 C2394 1.394 . S
C2392 H2408 0.931 . S
C2393 C2392 1.391 . S
C2393 C2397 1.376 . S
C2394 C2392 1.394 . S
C2394 C2395 1.369 . S
C2394 C2398 1.531 . S
C2395 C2394 1.369 . S
C2395 C2396 1.410 . S
C2395 C2403 1.503 . S
C2396 C2395 1.410 . S
C2396 C2397 1.392 . S
C2396 C2399 1.511 . S
C2397 C2393 1.376 . S
C2397 C2396 1.392 . S
C2397 H2409 0.929 . S
C2398 C2394 1.531 . S
C2398 H2410 0.960 . S
C2398 H2411 0.962 . S
C2398 H2412 0.960 . S
C2399 C2396 1.511 . S
C2399 H2413 0.961 . S
C2399 H2414 0.961 . S
C2399 H2415 0.961 . S
C2400 C2401 1.370 . S
C2400 C2402 1.363 . S
C2400 H2416 0.931 . S
C2401 C2400 1.370 . S
C2401 C2405 1.408 . S
C2402 C2400 1.363 . S
C2402 C2403 1.370 . S
C2402 C2406 1.524 . S
C2403 C2395 1.503 . S
C2403 C2402 1.370 . S
C2403 C2404 1.403 . S
C2404 C2403 1.403 . S
C2404 C2405 1.404 . S
C2404 C2407 1.539 . S
C2405 C2401 1.408 . S
C2405 C2404 1.404 . S
C2405 H2417 0.930 . S
C2406 C2402 1.524 . S
C2406 H2418 0.956 . S
C2406 H2419 0.961 . S
C2406 H2420 0.961 . S
C2407 C2404 1.539 . S
C2407 H2421 0.958 . S
C2407 H2422 0.961 . S
C2407 H2423 0.960 . S
H2408 C2392 0.931 . S
H2409 C2397 0.929 . S
H2410 C2398 0.960 . S
H2411 C2398 0.962 . S
H2412 C2398 0.960 . S
H2413 C2399 0.961 . S
H2414 C2399 0.961 . S
H2415 C2399 0.961 . S
H2416 C2400 0.931 . S
H2417 C2405 0.930 . S
H2418 C2406 0.956 . S
H2419 C2406 0.961 . S
H2420 C2406 0.961 . S
H2421 C2407 0.958 . S
H2422 C2407 0.961 . S
H2423 C2407 0.960 . S
C2424 C2425 1.391 . S
C2424 C2426 1.394 . S
C2424 H2440 0.931 . S
C2425 C2424 1.391 . S
C2425 C2429 1.376 . S
C2426 C2424 1.394 . S
C2426 C2427 1.369 . S
C2426 C2430 1.531 . S
C2427 C2426 1.369 . S
C2427 C2428 1.410 . S
C2427 C2435 1.503 . S
C2428 C2427 1.410 . S
C2428 C2429 1.392 . S
C2428 C2431 1.511 . S
C2429 C2425 1.376 . S
C2429 C2428 1.392 . S
C2429 H2441 0.929 . S
C2430 C2426 1.531 . S
C2430 H2442 0.960 . S
C2430 H2443 0.962 . S
C2430 H2444 0.960 . S
C2431 C2428 1.511 . S
C2431 H2445 0.961 . S
C2431 H2446 0.961 . S
C2431 H2447 0.961 . S
C2432 C2433 1.370 . S
C2432 C2434 1.363 . S
C2432 H2448 0.931 . S
C2433 C2432 1.370 . S
C2433 C2437 1.408 . S
C2434 C2432 1.363 . S
C2434 C2435 1.370 . S
C2434 C2438 1.524 . S
C2435 C2427 1.503 . S
C2435 C2434 1.370 . S
C2435 C2436 1.403 . S
C2436 C2435 1.403 . S
C2436 C2437 1.404 . S
C2436 C2439 1.539 . S
C2437 C2433 1.408 . S
C2437 C2436 1.404 . S
C2437 H2449 0.930 . S
C2438 C2434 1.524 . S
C2438 H2450 0.956 . S
C2438 H2451 0.961 . S
C2438 H2452 0.961 . S
C2439 C2436 1.539 . S
C2439 H2453 0.958 . S
C2439 H2454 0.961 . S
C2439 H2455 0.960 . S
H2440 C2424 0.931 . S
H2441 C2429 0.929 . S
H2442 C2430 0.960 . S
H2443 C2430 0.962 . S
H2444 C2430 0.960 . S
H2445 C2431 0.961 . S
H2446 C2431 0.961 . S
H2447 C2431 0.961 . S
H2448 C2432 0.931 . S
H2449 C2437 0.930 . S
H2450 C2438 0.956 . S
H2451 C2438 0.961 . S
H2452 C2438 0.961 . S
H2453 C2439 0.958 . S
H2454 C2439 0.961 . S
H2455 C2439 0.960 . S
C2456 C2457 1.391 . S
C2456 C2458 1.394 . S
C2456 H2472 0.931 . S
C2457 C2456 1.391 . S
C2457 C2461 1.376 . S
C2458 C2456 1.394 . S
C2458 C2459 1.369 . S
C2458 C2462 1.531 . S
C2459 C2458 1.369 . S
C2459 C2460 1.410 . S
C2459 C2467 1.503 . S
C2460 C2459 1.410 . S
C2460 C2461 1.392 . S
C2460 C2463 1.511 . S
C2461 C2457 1.376 . S
C2461 C2460 1.392 . S
C2461 H2473 0.929 . S
C2462 C2458 1.531 . S
C2462 H2474 0.960 . S
C2462 H2475 0.962 . S
C2462 H2476 0.960 . S
C2463 C2460 1.511 . S
C2463 H2477 0.961 . S
C2463 H2478 0.961 . S
C2463 H2479 0.961 . S
C2464 C2465 1.370 . S
C2464 C2466 1.363 . S
C2464 H2480 0.931 . S
C2465 C2464 1.370 . S
C2465 C2469 1.408 . S
C2466 C2464 1.363 . S
C2466 C2467 1.370 . S
C2466 C2470 1.524 . S
C2467 C2459 1.503 . S
C2467 C2466 1.370 . S
C2467 C2468 1.403 . S
C2468 C2467 1.403 . S
C2468 C2469 1.404 . S
C2468 C2471 1.539 . S
C2469 C2465 1.408 . S
C2469 C2468 1.404 . S
C2469 H2481 0.930 . S
C2470 C2466 1.524 . S
C2470 H2482 0.956 . S
C2470 H2483 0.961 . S
C2470 H2484 0.961 . S
C2471 C2468 1.539 . S
C2471 H2485 0.958 . S
C2471 H2486 0.961 . S
C2471 H2487 0.960 . S
H2472 C2456 0.931 . S
H2473 C2461 0.929 . S
H2474 C2462 0.960 . S
H2475 C2462 0.962 . S
H2476 C2462 0.960 . S
H2477 C2463 0.961 . S
H2478 C2463 0.961 . S
H2479 C2463 0.961 . S
H2480 C2464 0.931 . S
H2481 C2469 0.930 . S
H2482 C2470 0.956 . S
H2483 C2470 0.961 . S
H2484 C2470 0.961 . S
H2485 C2471 0.958 . S
H2486 C2471 0.961 . S
H2487 C2471 0.960 . S
C2488 C2489 1.391 . S
C2488 C2490 1.394 . S
C2488 H2504 0.931 . S
C2489 C2488 1.391 . S
C2489 C2493 1.376 . S
C2490 C2488 1.394 . S
C2490 C2491 1.369 . S
C2490 C2494 1.531 . S
C2491 C2490 1.369 . S
C2491 C2492 1.410 . S
C2491 C2499 1.503 . S
C2492 C2491 1.410 . S
C2492 C2493 1.392 . S
C2492 C2495 1.511 . S
C2493 C2489 1.376 . S
C2493 C2492 1.392 . S
C2493 H2505 0.929 . S
C2494 C2490 1.531 . S
C2494 H2506 0.960 . S
C2494 H2507 0.962 . S
C2494 H2508 0.960 . S
C2495 C2492 1.511 . S
C2495 H2509 0.961 . S
C2495 H2510 0.961 . S
C2495 H2511 0.961 . S
C2496 C2497 1.370 . S
C2496 C2498 1.363 . S
C2496 H2512 0.931 . S
C2497 C2496 1.370 . S
C2497 C2501 1.408 . S
C2498 C2496 1.363 . S
C2498 C2499 1.370 . S
C2498 C2502 1.524 . S
C2499 C2491 1.503 . S
C2499 C2498 1.370 . S
C2499 C2500 1.403 . S
C2500 C2499 1.403 . S
C2500 C2501 1.404 . S
C2500 C2503 1.539 . S
C2501 C2497 1.408 . S
C2501 C2500 1.404 . S
C2501 H2513 0.930 . S
C2502 C2498 1.524 . S
C2502 H2514 0.956 . S
C2502 H2515 0.961 . S
C2502 H2516 0.961 . S
C2503 C2500 1.539 . S
C2503 H2517 0.958 . S
C2503 H2518 0.961 . S
C2503 H2519 0.960 . S
H2504 C2488 0.931 . S
H2505 C2493 0.929 . S
H2506 C2494 0.960 . S
H2507 C2494 0.962 . S
H2508 C2494 0.960 . S
H2509 C2495 0.961 . S
H2510 C2495 0.961 . S
H2511 C2495 0.961 . S
H2512 C2496 0.931 . S
H2513 C2501 0.930 . S
H2514 C2502 0.956 . S
H2515 C2502 0.961 . S
H2516 C2502 0.961 . S
H2517 C2503 0.958 . S
H2518 C2503 0.961 . S
H2519 C2503 0.960 . S
C2520 C2521 1.391 . S
C2520 C2522 1.394 . S
C2520 H2536 0.931 . S
C2521 C2520 1.391 . S
C2521 C2525 1.376 . S
C2522 C2520 1.394 . S
C2522 C2523 1.369 . S
C2522 C2526 1.531 . S
C2523 C2522 1.369 . S
C2523 C2524 1.410 . S
C2523 C2531 1.503 . S
C2524 C2523 1.410 . S
C2524 C2525 1.392 . S
C2524 C2527 1.511 . S
C2525 C2521 1.376 . S
C2525 C2524 1.392 . S
C2525 H2537 0.929 . S
C2526 C2522 1.531 . S
C2526 H2538 0.960 . S
C2526 H2539 0.962 . S
C2526 H2540 0.960 . S
C2527 C2524 1.511 . S
C2527 H2541 0.961 1_554 S
C2527 H2542 0.961 . S
C2527 H2543 0.961 . S
C2528 C2529 1.370 . S
C2528 C2530 1.363 . S
C2528 H2544 0.931 . S
C2529 C2528 1.370 . S
C2529 C2533 1.408 . S
C2530 C2528 1.363 . S
C2530 C2531 1.370 . S
C2530 C2534 1.524 . S
C2531 C2523 1.503 . S
C2531 C2530 1.370 . S
C2531 C2532 1.403 . S
C2532 C2531 1.403 . S
C2532 C2533 1.404 . S
C2532 C2535 1.539 . S
C2533 C2529 1.408 . S
C2533 C2532 1.404 . S
C2533 H2545 0.930 . S
C2534 C2530 1.524 . S
C2534 H2546 0.956 . S
C2534 H2547 0.961 . S
C2534 H2548 0.961 . S
C2535 C2532 1.539 . S
C2535 H2549 0.958 . S
C2535 H2550 0.961 . S
C2535 H2551 0.960 . S
H2536 C2520 0.931 . S
H2537 C2525 0.929 . S
H2538 C2526 0.960 . S
H2539 C2526 0.962 . S
H2540 C2526 0.960 . S
H2541 C2527 0.961 1_556 S
H2542 C2527 0.961 . S
H2543 C2527 0.961 . S
H2544 C2528 0.931 . S
H2545 C2533 0.930 . S
H2546 C2534 0.956 . S
H2547 C2534 0.961 . S
H2548 C2534 0.961 . S
H2549 C2535 0.958 . S
H2550 C2535 0.961 . S
H2551 C2535 0.960 . S
C2552 C2553 1.391 . S
C2552 C2554 1.394 . S
C2552 H2568 0.931 . S
C2553 C2552 1.391 . S
C2553 C2557 1.376 . S
C2554 C2552 1.394 . S
C2554 C2555 1.369 . S
C2554 C2558 1.531 . S
C2555 C2554 1.369 . S
C2555 C2556 1.410 . S
C2555 C2563 1.503 . S
C2556 C2555 1.410 . S
C2556 C2557 1.392 . S
C2556 C2559 1.511 . S
C2557 C2553 1.376 . S
C2557 C2556 1.392 . S
C2557 H2569 0.929 . S
C2558 C2554 1.531 . S
C2558 H2570 0.960 . S
C2558 H2571 0.962 . S
C2558 H2572 0.960 . S
C2559 C2556 1.511 . S
C2559 H2573 0.961 . S
C2559 H2574 0.961 . S
C2559 H2575 0.961 . S
C2560 C2561 1.370 . S
C2560 C2562 1.363 . S
C2560 H2576 0.931 . S
C2561 C2560 1.370 . S
C2561 C2565 1.408 . S
C2562 C2560 1.363 . S
C2562 C2563 1.370 . S
C2562 C2566 1.524 . S
C2563 C2555 1.503 . S
C2563 C2562 1.370 . S
C2563 C2564 1.403 . S
C2564 C2563 1.403 . S
C2564 C2565 1.404 . S
C2564 C2567 1.539 . S
C2565 C2561 1.408 . S
C2565 C2564 1.404 . S
C2565 H2577 0.930 . S
C2566 C2562 1.524 . S
C2566 H2578 0.956 . S
C2566 H2579 0.961 . S
C2566 H2580 0.961 . S
C2567 C2564 1.539 . S
C2567 H2581 0.958 . S
C2567 H2582 0.961 . S
C2567 H2583 0.960 . S
H2568 C2552 0.931 . S
H2569 C2557 0.929 . S
H2570 C2558 0.960 . S
H2571 C2558 0.962 . S
H2572 C2558 0.960 . S
H2573 C2559 0.961 . S
H2574 C2559 0.961 . S
H2575 C2559 0.961 . S
H2576 C2560 0.931 . S
H2577 C2565 0.930 . S
H2578 C2566 0.956 . S
H2579 C2566 0.961 . S
H2580 C2566 0.961 . S
H2581 C2567 0.958 . S
H2582 C2567 0.961 . S
H2583 C2567 0.960 . S
C2584 C2585 1.391 . S
C2584 C2586 1.394 . S
C2584 H2600 0.931 . S
C2585 C2584 1.391 . S
C2585 C2589 1.376 . S
C2586 C2584 1.394 . S
C2586 C2587 1.369 . S
C2586 C2590 1.531 . S
C2587 C2586 1.369 . S
C2587 C2588 1.410 . S
C2587 C2595 1.503 . S
C2588 C2587 1.410 . S
C2588 C2589 1.392 . S
C2588 C2591 1.511 . S
C2589 C2585 1.376 . S
C2589 C2588 1.392 . S
C2589 H2601 0.929 . S
C2590 C2586 1.531 . S
C2590 H2602 0.960 . S
C2590 H2603 0.962 . S
C2590 H2604 0.960 . S
C2591 C2588 1.511 . S
C2591 H2605 0.961 . S
C2591 H2606 0.961 . S
C2591 H2607 0.961 . S
C2592 C2593 1.370 . S
C2592 C2594 1.363 . S
C2592 H2608 0.931 . S
C2593 C2592 1.370 . S
C2593 C2597 1.408 . S
C2594 C2592 1.363 . S
C2594 C2595 1.370 . S
C2594 C2598 1.524 . S
C2595 C2587 1.503 . S
C2595 C2594 1.370 . S
C2595 C2596 1.403 . S
C2596 C2595 1.403 . S
C2596 C2597 1.404 . S
C2596 C2599 1.539 . S
C2597 C2593 1.408 . S
C2597 C2596 1.404 . S
C2597 H2609 0.930 . S
C2598 C2594 1.524 . S
C2598 H2610 0.956 . S
C2598 H2611 0.961 . S
C2598 H2612 0.961 . S
C2599 C2596 1.539 . S
C2599 H2613 0.958 . S
C2599 H2614 0.961 . S
C2599 H2615 0.960 . S
H2600 C2584 0.931 . S
H2601 C2589 0.929 . S
H2602 C2590 0.960 . S
H2603 C2590 0.962 . S
H2604 C2590 0.960 . S
H2605 C2591 0.961 . S
H2606 C2591 0.961 . S
H2607 C2591 0.961 . S
H2608 C2592 0.931 . S
H2609 C2597 0.930 . S
H2610 C2598 0.956 . S
H2611 C2598 0.961 . S
H2612 C2598 0.961 . S
H2613 C2599 0.958 . S
H2614 C2599 0.961 . S
H2615 C2599 0.960 . S
C2616 C2617 1.391 1_554 S
C2616 C2618 1.394 . S
C2616 H2632 0.931 . S
C2617 C2616 1.391 1_556 S
C2617 C2621 1.376 . S
C2618 C2616 1.394 . S
C2618 C2619 1.369 1_554 S
C2618 C2622 1.531 . S
C2619 C2618 1.369 1_556 S
C2619 C2620 1.410 . S
C2619 C2627 1.503 . S
C2620 C2619 1.410 . S
C2620 C2621 1.392 . S
C2620 C2623 1.511 . S
C2621 C2617 1.376 . S
C2621 C2620 1.392 . S
C2621 H2633 0.929 . S
C2622 C2618 1.531 . S
C2622 H2634 0.960 . S
C2622 H2635 0.962 . S
C2622 H2636 0.960 . S
C2623 C2620 1.511 . S
C2623 H2637 0.961 . S
C2623 H2638 0.961 . S
C2623 H2639 0.961 . S
C2624 C2625 1.370 . S
C2624 C2626 1.363 . S
C2624 H2640 0.931 . S
C2625 C2624 1.370 . S
C2625 C2629 1.408 . S
C2626 C2624 1.363 . S
C2626 C2627 1.370 . S
C2626 C2630 1.524 . S
C2627 C2619 1.503 . S
C2627 C2626 1.370 . S
C2627 C2628 1.403 . S
C2628 C2627 1.403 . S
C2628 C2629 1.404 . S
C2628 C2631 1.545 . S
C2629 C2625 1.408 . S
C2629 C2628 1.404 . S
C2629 H2641 0.930 . S
C2630 C2626 1.524 . S
C2630 H2642 0.956 . S
C2630 H2643 0.961 . S
C2630 H2644 0.961 . S
C2631 C2628 1.545 . S
C2631 H2645 0.947 1_556 S
C2631 H2646 0.965 . S
C2631 H2647 0.962 . S
H2632 C2616 0.931 . S
H2633 C2621 0.929 . S
H2634 C2622 0.960 . S
H2635 C2622 0.962 . S
H2636 C2622 0.960 . S
H2637 C2623 0.961 . S
H2638 C2623 0.961 . S
H2639 C2623 0.961 . S
H2640 C2624 0.931 . S
H2641 C2629 0.930 . S
H2642 C2630 0.956 . S
H2643 C2630 0.961 . S
H2644 C2630 0.961 . S
H2645 C2631 0.947 1_554 S
H2646 C2631 0.965 . S
H2647 C2631 0.962 . S
C2648 C2649 1.391 . S
C2648 C2650 1.394 . S
C2648 H2664 0.931 . S
C2649 C2648 1.391 . S
C2649 C2653 1.376 1_556 S
C2650 C2648 1.394 . S
C2650 C2651 1.369 . S
C2650 C2654 1.531 . S
C2651 C2650 1.369 . S
C2651 C2652 1.410 . S
C2651 C2659 1.503 . S
C2652 C2651 1.410 . S
C2652 C2653 1.392 1_556 S
C2652 C2655 1.511 . S
C2653 C2649 1.376 1_554 S
C2653 C2652 1.392 1_554 S
C2653 H2665 0.929 . S
C2654 C2650 1.531 . S
C2654 H2666 0.960 . S
C2654 H2667 0.962 . S
C2654 H2668 0.960 . S
C2655 C2652 1.511 . S
C2655 H2669 0.961 1_556 S
C2655 H2670 0.961 . S
C2655 H2671 0.961 . S
C2656 C2657 1.370 . S
C2656 C2658 1.363 . S
C2656 H2672 0.931 . S
C2657 C2656 1.370 . S
C2657 C2661 1.408 . S
C2658 C2656 1.363 . S
C2658 C2659 1.370 . S
C2658 C2662 1.524 1_556 S
C2659 C2651 1.503 . S
C2659 C2658 1.370 . S
C2659 C2660 1.403 . S
C2660 C2659 1.403 . S
C2660 C2661 1.404 . S
C2660 C2663 1.539 . S
C2661 C2657 1.408 . S
C2661 C2660 1.404 . S
C2661 H2673 0.930 . S
C2662 C2658 1.524 1_554 S
C2662 H2674 0.956 . S
C2662 H2675 0.961 . S
C2662 H2676 0.961 . S
C2663 C2660 1.539 . S
C2663 H2677 0.958 . S
C2663 H2678 0.961 . S
C2663 H2679 0.960 . S
H2664 C2648 0.931 . S
H2665 C2653 0.929 . S
H2666 C2654 0.960 . S
H2667 C2654 0.962 . S
H2668 C2654 0.960 . S
H2669 C2655 0.961 1_554 S
H2670 C2655 0.961 . S
H2671 C2655 0.961 . S
H2672 C2656 0.931 . S
H2673 C2661 0.930 . S
H2674 C2662 0.956 . S
H2675 C2662 0.961 . S
H2676 C2662 0.961 . S
H2677 C2663 0.958 . S
H2678 C2663 0.961 . S
H2679 C2663 0.960 . S
C2680 C2681 1.391 . S
C2680 C2682 1.394 . S
C2680 H2696 0.926 1_556 S
C2681 C2680 1.391 . S
C2681 C2685 1.376 . S
C2682 C2680 1.394 . S
C2682 C2683 1.369 . S
C2682 C2686 1.531 . S
C2683 C2682 1.369 . S
C2683 C2684 1.410 . S
C2683 C2691 1.503 . S
C2684 C2683 1.410 . S
C2684 C2685 1.392 . S
C2684 C2687 1.511 . S
C2685 C2681 1.376 . S
C2685 C2684 1.392 . S
C2685 H2697 0.929 . S
C2686 C2682 1.531 . S
C2686 H2698 0.960 . S
C2686 H2699 0.970 . S
C2686 H2700 0.960 . S
C2687 C2684 1.511 . S
C2687 H2701 0.961 . S
C2687 H2702 0.961 . S
C2687 H2703 0.961 . S
C2688 C2689 1.370 . S
C2688 C2690 1.363 . S
C2688 H2704 0.931 . S
C2689 C2688 1.370 . S
C2689 C2693 1.408 . S
C2690 C2688 1.363 . S
C2690 C2691 1.370 . S
C2690 C2694 1.524 1_556 S
C2691 C2683 1.503 . S
C2691 C2690 1.370 . S
C2691 C2692 1.403 . S
C2692 C2691 1.403 . S
C2692 C2693 1.404 . S
C2692 C2695 1.539 . S
C2693 C2689 1.408 . S
C2693 C2692 1.404 . S
C2693 H2705 0.930 . S
C2694 C2690 1.524 1_554 S
C2694 H2706 0.956 . S
C2694 H2707 0.961 . S
C2694 H2708 0.961 . S
C2695 C2692 1.539 . S
C2695 H2709 0.958 . S
C2695 H2710 0.961 . S
C2695 H2711 0.960 . S
H2696 C2680 0.926 1_554 S
H2697 C2685 0.929 . S
H2698 C2686 0.960 . S
H2699 C2686 0.970 . S
H2700 C2686 0.960 . S
H2701 C2687 0.961 . S
H2702 C2687 0.961 . S
H2703 C2687 0.961 . S
H2704 C2688 0.931 . S
H2705 C2693 0.930 . S
H2706 C2694 0.956 . S
H2707 C2694 0.961 . S
H2708 C2694 0.961 . S
H2709 C2695 0.958 . S
H2710 C2695 0.961 . S
H2711 C2695 0.960 . S
C2712 C2713 1.391 1_554 S
C2712 C2714 1.394 . S
C2712 H2728 0.931 . S
C2713 C2712 1.391 1_556 S
C2713 C2717 1.376 . S
C2714 C2712 1.394 . S
C2714 C2715 1.369 1_554 S
C2714 C2718 1.531 . S
C2715 C2714 1.369 1_556 S
C2715 C2716 1.410 . S
C2715 C2723 1.503 . S
C2716 C2715 1.410 . S
C2716 C2717 1.392 . S
C2716 C2719 1.511 . S
C2717 C2713 1.376 . S
C2717 C2716 1.392 . S
C2717 H2729 0.929 . S
C2718 C2714 1.531 . S
C2718 H2730 0.960 . S
C2718 H2731 0.962 . S
C2718 H2732 0.960 . S
C2719 C2716 1.511 . S
C2719 H2733 0.961 . S
C2719 H2734 0.961 . S
C2719 H2735 0.961 . S
C2720 C2721 1.370 . S
C2720 C2722 1.363 . S
C2720 H2736 0.931 . S
C2721 C2720 1.370 . S
C2721 C2725 1.408 . S
C2722 C2720 1.363 . S
C2722 C2723 1.370 . S
C2722 C2726 1.524 . S
C2723 C2715 1.503 . S
C2723 C2722 1.370 . S
C2723 C2724 1.403 . S
C2724 C2723 1.403 . S
C2724 C2725 1.404 . S
C2724 C2727 1.539 . S
C2725 C2721 1.408 . S
C2725 C2724 1.404 . S
C2725 H2737 0.930 . S
C2726 C2722 1.524 . S
C2726 H2738 0.956 . S
C2726 H2739 0.961 . S
C2726 H2740 0.961 . S
C2727 C2724 1.539 . S
C2727 H2741 0.958 . S
C2727 H2742 0.961 . S
C2727 H2743 0.960 . S
H2728 C2712 0.931 . S
H2729 C2717 0.929 . S
H2730 C2718 0.960 . S
H2731 C2718 0.962 . S
H2732 C2718 0.960 . S
H2733 C2719 0.961 . S
H2734 C2719 0.961 . S
H2735 C2719 0.961 . S
H2736 C2720 0.931 . S
H2737 C2725 0.930 . S
H2738 C2726 0.956 . S
H2739 C2726 0.961 . S
H2740 C2726 0.961 . S
H2741 C2727 0.958 . S
H2742 C2727 0.961 . S
H2743 C2727 0.960 . S
C2744 C2745 1.401 . S
C2744 C2746 1.394 . S
C2744 H2760 0.931 . S
C2745 C2744 1.401 . S
C2745 C2749 1.359 1_554 S
C2746 C2744 1.394 . S
C2746 C2747 1.369 1_554 S
C2746 C2750 1.531 . S
C2747 C2746 1.369 1_556 S
C2747 C2748 1.410 . S
C2747 C2755 1.503 . S
C2748 C2747 1.410 . S
C2748 C2749 1.392 . S
C2748 C2751 1.511 . S
C2749 C2745 1.359 1_556 S
C2749 C2748 1.392 . S
C2749 H2761 0.929 . S
C2750 C2746 1.531 . S
C2750 H2762 0.960 . S
C2750 H2763 0.962 1_554 S
C2750 H2764 0.960 . S
C2751 C2748 1.511 . S
C2751 H2765 0.961 . S
C2751 H2766 0.961 . S
C2751 H2767 0.961 . S
C2752 C2753 1.370 . S
C2752 C2754 1.363 . S
C2752 H2768 0.931 . S
C2753 C2752 1.370 . S
C2753 C2757 1.408 . S
C2754 C2752 1.363 . S
C2754 C2755 1.370 . S
C2754 C2758 1.524 . S
C2755 C2747 1.503 . S
C2755 C2754 1.370 . S
C2755 C2756 1.403 . S
C2756 C2755 1.403 . S
C2756 C2757 1.404 . S
C2756 C2759 1.539 1_556 S
C2757 C2753 1.408 . S
C2757 C2756 1.404 . S
C2757 H2769 0.930 . S
C2758 C2754 1.524 . S
C2758 H2770 0.956 . S
C2758 H2771 0.961 . S
C2758 H2772 0.961 . S
C2759 C2756 1.539 1_554 S
C2759 H2773 0.958 . S
C2759 H2774 0.961 . S
C2759 H2775 0.960 . S
H2760 C2744 0.931 . S
H2761 C2749 0.929 . S
H2762 C2750 0.960 . S
H2763 C2750 0.962 1_556 S
H2764 C2750 0.960 . S
H2765 C2751 0.961 . S
H2766 C2751 0.961 . S
H2767 C2751 0.961 . S
H2768 C2752 0.931 . S
H2769 C2757 0.930 . S
H2770 C2758 0.956 . S
H2771 C2758 0.961 . S
H2772 C2758 0.961 . S
H2773 C2759 0.958 . S
H2774 C2759 0.961 . S
H2775 C2759 0.960 . S
C2776 C2777 1.393 . S
C2776 C2778 1.390 1_554 S
C2776 H2792 0.932 . S
C2777 C2776 1.393 . S
C2777 C2781 1.376 . S
C2778 C2776 1.390 1_556 S
C2778 C2779 1.369 . S
C2778 C2782 1.531 . S
C2779 C2778 1.369 . S
C2779 C2780 1.410 . S
C2779 C2787 1.503 . S
C2780 C2779 1.410 . S
C2780 C2781 1.392 1_556 S
C2780 C2783 1.511 . S
C2781 C2777 1.376 . S
C2781 C2780 1.392 1_554 S
C2781 H2793 0.929 . S
C2782 C2778 1.531 . S
C2782 H2794 0.960 . S
C2782 H2795 0.962 . S
C2782 H2796 0.970 . S
C2783 C2780 1.511 . S
C2783 H2797 0.961 . S
C2783 H2798 0.961 . S
C2783 H2799 0.961 1_556 S
C2784 C2785 1.370 . S
C2784 C2786 1.363 . S
C2784 H2800 0.931 . S
C2785 C2784 1.370 . S
C2785 C2789 1.408 . S
C2786 C2784 1.363 . S
C2786 C2787 1.370 . S
C2786 C2790 1.524 . S
C2787 C2779 1.503 . S
C2787 C2786 1.370 . S
C2787 C2788 1.403 . S
C2788 C2787 1.403 . S
C2788 C2789 1.404 . S
C2788 C2791 1.539 1_556 S
C2789 C2785 1.408 . S
C2789 C2788 1.404 . S
C2789 H2801 0.930 . S
C2790 C2786 1.524 . S
C2790 H2802 0.956 . S
C2790 H2803 0.961 . S
C2790 H2804 0.961 . S
C2791 C2788 1.539 1_554 S
C2791 H2805 0.958 . S
C2791 H2806 0.961 . S
C2791 H2807 0.960 . S
H2792 C2776 0.932 . S
H2793 C2781 0.929 . S
H2794 C2782 0.960 . S
H2795 C2782 0.962 . S
H2796 C2782 0.970 . S
H2797 C2783 0.961 . S
H2798 C2783 0.961 . S
H2799 C2783 0.961 1_554 S
H2800 C2784 0.931 . S
H2801 C2789 0.930 . S
H2802 C2790 0.956 . S
H2803 C2790 0.961 . S
H2804 C2790 0.961 . S
H2805 C2791 0.958 . S
H2806 C2791 0.961 . S
H2807 C2791 0.960 . S
C2808 C2809 1.391 . S
C2808 C2810 1.394 . S
C2808 H2824 0.931 . S
C2809 C2808 1.391 . S
C2809 C2813 1.376 . S
C2810 C2808 1.394 . S
C2810 C2811 1.369 . S
C2810 C2814 1.531 . S
C2811 C2810 1.369 . S
C2811 C2812 1.410 . S
C2811 C2819 1.503 . S
C2812 C2811 1.410 . S
C2812 C2813 1.392 . S
C2812 C2815 1.511 . S
C2813 C2809 1.376 . S
C2813 C2812 1.392 . S
C2813 H2825 0.929 . S
C2814 C2810 1.531 . S
C2814 H2826 0.960 . S
C2814 H2827 0.962 . S
C2814 H2828 0.960 . S
C2815 C2812 1.511 . S
C2815 H2829 0.961 . S
C2815 H2830 0.961 . S
C2815 H2831 0.961 . S
C2816 C2817 1.370 . S
C2816 C2818 1.363 . S
C2816 H2832 0.931 . S
C2817 C2816 1.370 . S
C2817 C2821 1.408 . S
C2818 C2816 1.363 . S
C2818 C2819 1.370 . S
C2818 C2822 1.524 . S
C2819 C2811 1.503 . S
C2819 C2818 1.370 . S
C2819 C2820 1.403 . S
C2820 C2819 1.403 . S
C2820 C2821 1.404 . S
C2820 C2823 1.539 . S
C2821 C2817 1.408 . S
C2821 C2820 1.404 . S
C2821 H2833 0.930 . S
C2822 C2818 1.524 . S
C2822 H2834 0.956 . S
C2822 H2835 0.961 . S
C2822 H2836 0.961 . S
C2823 C2820 1.539 . S
C2823 H2837 0.958 . S
C2823 H2838 0.961 . S
C2823 H2839 0.960 . S
H2824 C2808 0.931 . S
H2825 C2813 0.929 . S
H2826 C2814 0.960 . S
H2827 C2814 0.962 . S
H2828 C2814 0.960 . S
H2829 C2815 0.961 . S
H2830 C2815 0.961 . S
H2831 C2815 0.961 . S
H2832 C2816 0.931 . S
H2833 C2821 0.930 . S
H2834 C2822 0.956 . S
H2835 C2822 0.961 . S
H2836 C2822 0.961 . S
H2837 C2823 0.958 . S
H2838 C2823 0.961 . S
H2839 C2823 0.960 . S
C2840 C2841 1.391 . S
C2840 C2842 1.394 . S
C2840 H2856 0.931 . S
C2841 C2840 1.391 . S
C2841 C2845 1.376 . S
C2842 C2840 1.394 . S
C2842 C2843 1.369 . S
C2842 C2846 1.531 . S
C2843 C2842 1.369 . S
C2843 C2844 1.410 . S
C2843 C2851 1.503 . S
C2844 C2843 1.410 . S
C2844 C2845 1.392 . S
C2844 C2847 1.511 . S
C2845 C2841 1.376 . S
C2845 C2844 1.392 . S
C2845 H2857 0.929 . S
C2846 C2842 1.531 . S
C2846 H2858 0.960 . S
C2846 H2859 0.962 . S
C2846 H2860 0.960 . S
C2847 C2844 1.511 . S
C2847 H2861 0.961 1_554 S
C2847 H2862 0.961 . S
C2847 H2863 0.961 . S
C2848 C2849 1.370 . S
C2848 C2850 1.363 . S
C2848 H2864 0.931 . S
C2849 C2848 1.370 . S
C2849 C2853 1.408 . S
C2850 C2848 1.363 . S
C2850 C2851 1.370 . S
C2850 C2854 1.524 . S
C2851 C2843 1.503 . S
C2851 C2850 1.370 . S
C2851 C2852 1.403 . S
C2852 C2851 1.403 . S
C2852 C2853 1.404 . S
C2852 C2855 1.539 . S
C2853 C2849 1.408 . S
C2853 C2852 1.404 . S
C2853 H2865 0.930 . S
C2854 C2850 1.524 . S
C2854 H2866 0.956 . S
C2854 H2867 0.961 . S
C2854 H2868 0.961 . S
C2855 C2852 1.539 . S
C2855 H2869 0.958 . S
C2855 H2870 0.961 . S
C2855 H2871 0.960 . S
H2856 C2840 0.931 . S
H2857 C2845 0.929 . S
H2858 C2846 0.960 . S
H2859 C2846 0.962 . S
H2860 C2846 0.960 . S
H2861 C2847 0.961 1_556 S
H2862 C2847 0.961 . S
H2863 C2847 0.961 . S
H2864 C2848 0.931 . S
H2865 C2853 0.930 . S
H2866 C2854 0.956 . S
H2867 C2854 0.961 . S
H2868 C2854 0.961 . S
H2869 C2855 0.958 . S
H2870 C2855 0.961 . S
H2871 C2855 0.960 . S
C2872 C2873 1.391 . S
C2872 C2874 1.394 . S
C2872 H2888 0.931 . S
C2873 C2872 1.391 . S
C2873 C2877 1.376 . S
C2874 C2872 1.394 . S
C2874 C2875 1.369 . S
C2874 C2878 1.531 . S
C2875 C2874 1.369 . S
C2875 C2876 1.410 . S
C2875 C2883 1.503 . S
C2876 C2875 1.410 . S
C2876 C2877 1.392 . S
C2876 C2879 1.511 . S
C2877 C2873 1.376 . S
C2877 C2876 1.392 . S
C2877 H2889 0.929 . S
C2878 C2874 1.531 . S
C2878 H2890 0.960 . S
C2878 H2891 0.962 . S
C2878 H2892 0.960 . S
C2879 C2876 1.511 . S
C2879 H2893 0.961 . S
C2879 H2894 0.961 . S
C2879 H2895 0.961 . S
C2880 C2881 1.370 . S
C2880 C2882 1.363 . S
C2880 H2896 0.931 . S
C2881 C2880 1.370 . S
C2881 C2885 1.408 . S
C2882 C2880 1.363 . S
C2882 C2883 1.370 . S
C2882 C2886 1.524 . S
C2883 C2875 1.503 . S
C2883 C2882 1.370 . S
C2883 C2884 1.403 . S
C2884 C2883 1.403 . S
C2884 C2885 1.404 . S
C2884 C2887 1.539 . S
C2885 C2881 1.408 . S
C2885 C2884 1.404 . S
C2885 H2897 0.930 . S
C2886 C2882 1.524 . S
C2886 H2898 0.956 . S
C2886 H2899 0.961 . S
C2886 H2900 0.961 . S
C2887 C2884 1.539 . S
C2887 H2901 0.958 . S
C2887 H2902 0.961 . S
C2887 H2903 0.960 . S
H2888 C2872 0.931 . S
H2889 C2877 0.929 . S
H2890 C2878 0.960 . S
H2891 C2878 0.962 . S
H2892 C2878 0.960 . S
H2893 C2879 0.961 . S
H2894 C2879 0.961 . S
H2895 C2879 0.961 . S
H2896 C2880 0.931 . S
H2897 C2885 0.930 . S
H2898 C2886 0.956 . S
H2899 C2886 0.961 . S
H2900 C2886 0.961 . S
H2901 C2887 0.958 . S
H2902 C2887 0.961 . S
H2903 C2887 0.960 . S
C2904 C2905 1.391 . S
C2904 C2906 1.394 . S
C2904 H2920 0.931 . S
C2905 C2904 1.391 . S
C2905 C2909 1.376 . S
C2906 C2904 1.394 . S
C2906 C2907 1.369 . S
C2906 C2910 1.531 . S
C2907 C2906 1.369 . S
C2907 C2908 1.410 . S
C2907 C2915 1.503 . S
C2908 C2907 1.410 . S
C2908 C2909 1.392 . S
C2908 C2911 1.511 . S
C2909 C2905 1.376 . S
C2909 C2908 1.392 . S
C2909 H2921 0.929 . S
C2910 C2906 1.531 . S
C2910 H2922 0.960 . S
C2910 H2923 0.962 . S
C2910 H2924 0.960 . S
C2911 C2908 1.511 . S
C2911 H2925 0.961 . S
C2911 H2926 0.961 . S
C2911 H2927 0.961 . S
C2912 C2913 1.370 . S
C2912 C2914 1.363 . S
C2912 H2928 0.931 . S
C2913 C2912 1.370 . S
C2913 C2917 1.408 . S
C2914 C2912 1.363 . S
C2914 C2915 1.370 . S
C2914 C2918 1.524 . S
C2915 C2907 1.503 . S
C2915 C2914 1.370 . S
C2915 C2916 1.403 . S
C2916 C2915 1.403 . S
C2916 C2917 1.404 . S
C2916 C2919 1.539 . S
C2917 C2913 1.408 . S
C2917 C2916 1.404 . S
C2917 H2929 0.930 . S
C2918 C2914 1.524 . S
C2918 H2930 0.956 . S
C2918 H2931 0.961 . S
C2918 H2932 0.961 . S
C2919 C2916 1.539 . S
C2919 H2933 0.958 . S
C2919 H2934 0.961 . S
C2919 H2935 0.960 . S
H2920 C2904 0.931 . S
H2921 C2909 0.929 . S
H2922 C2910 0.960 . S
H2923 C2910 0.962 . S
H2924 C2910 0.960 . S
H2925 C2911 0.961 . S
H2926 C2911 0.961 . S
H2927 C2911 0.961 . S
H2928 C2912 0.931 . S
H2929 C2917 0.930 . S
H2930 C2918 0.956 . S
H2931 C2918 0.961 . S
H2932 C2918 0.961 . S
H2933 C2919 0.958 . S
H2934 C2919 0.961 . S
H2935 C2919 0.960 . S
C2936 C2937 1.391 . S
C2936 C2938 1.394 . S
C2936 H2952 0.931 . S
C2937 C2936 1.391 . S
C2937 C2941 1.376 . S
C2938 C2936 1.394 . S
C2938 C2939 1.369 . S
C2938 C2942 1.531 . S
C2939 C2938 1.369 . S
C2939 C2940 1.410 . S
C2939 C2947 1.503 . S
C2940 C2939 1.410 . S
C2940 C2941 1.392 . S
C2940 C2943 1.511 . S
C2941 C2937 1.376 . S
C2941 C2940 1.392 . S
C2941 H2953 0.929 . S
C2942 C2938 1.531 . S
C2942 H2954 0.960 . S
C2942 H2955 0.962 . S
C2942 H2956 0.960 . S
C2943 C2940 1.511 . S
C2943 H2957 0.961 . S
C2943 H2958 0.961 . S
C2943 H2959 0.961 . S
C2944 C2945 1.370 . S
C2944 C2946 1.363 . S
C2944 H2960 0.931 . S
C2945 C2944 1.370 . S
C2945 C2949 1.408 . S
C2946 C2944 1.363 . S
C2946 C2947 1.370 . S
C2946 C2950 1.524 . S
C2947 C2939 1.503 . S
C2947 C2946 1.370 . S
C2947 C2948 1.403 . S
C2948 C2947 1.403 . S
C2948 C2949 1.404 . S
C2948 C2951 1.539 . S
C2949 C2945 1.408 . S
C2949 C2948 1.404 . S
C2949 H2961 0.930 . S
C2950 C2946 1.524 . S
C2950 H2962 0.956 . S
C2950 H2963 0.961 . S
C2950 H2964 0.961 . S
C2951 C2948 1.539 . S
C2951 H2965 0.958 . S
C2951 H2966 0.961 . S
C2951 H2967 0.960 . S
H2952 C2936 0.931 . S
H2953 C2941 0.929 . S
H2954 C2942 0.960 . S
H2955 C2942 0.962 . S
H2956 C2942 0.960 . S
H2957 C2943 0.961 . S
H2958 C2943 0.961 . S
H2959 C2943 0.961 . S
H2960 C2944 0.931 . S
H2961 C2949 0.930 . S
H2962 C2950 0.956 . S
H2963 C2950 0.961 . S
H2964 C2950 0.961 . S
H2965 C2951 0.958 . S
H2966 C2951 0.961 . S
H2967 C2951 0.960 . S
C2968 C2969 1.391 . S
C2968 C2970 1.394 . S
C2968 H2984 0.931 . S
C2969 C2968 1.391 . S
C2969 C2973 1.376 . S
C2970 C2968 1.394 . S
C2970 C2971 1.369 . S
C2970 C2974 1.531 . S
C2971 C2970 1.369 . S
C2971 C2972 1.410 . S
C2971 C2979 1.503 . S
C2972 C2971 1.410 . S
C2972 C2973 1.392 . S
C2972 C2975 1.511 . S
C2973 C2969 1.376 . S
C2973 C2972 1.392 . S
C2973 H2985 0.929 . S
C2974 C2970 1.531 . S
C2974 H2986 0.960 . S
C2974 H2987 0.962 . S
C2974 H2988 0.960 . S
C2975 C2972 1.511 . S
C2975 H2989 0.961 . S
C2975 H2990 0.961 . S
C2975 H2991 0.961 . S
C2976 C2977 1.370 . S
C2976 C2978 1.363 . S
C2976 H2992 0.931 . S
C2977 C2976 1.370 . S
C2977 C2981 1.408 . S
C2978 C2976 1.363 . S
C2978 C2979 1.370 . S
C2978 C2982 1.524 . S
C2979 C2971 1.503 . S
C2979 C2978 1.370 . S
C2979 C2980 1.403 . S
C2980 C2979 1.403 . S
C2980 C2981 1.404 . S
C2980 C2983 1.539 . S
C2981 C2977 1.408 . S
C2981 C2980 1.404 . S
C2981 H2993 0.930 . S
C2982 C2978 1.524 . S
C2982 H2994 0.956 . S
C2982 H2995 0.961 . S
C2982 H2996 0.961 . S
C2983 C2980 1.539 . S
C2983 H2997 0.958 . S
C2983 H2998 0.961 . S
C2983 H2999 0.960 . S
H2984 C2968 0.931 . S
H2985 C2973 0.929 . S
H2986 C2974 0.960 . S
H2987 C2974 0.962 . S
H2988 C2974 0.960 . S
H2989 C2975 0.961 . S
H2990 C2975 0.961 . S
H2991 C2975 0.961 . S
H2992 C2976 0.931 . S
H2993 C2981 0.930 . S
H2994 C2982 0.956 . S
H2995 C2982 0.961 . S
H2996 C2982 0.961 . S
H2997 C2983 0.958 . S
H2998 C2983 0.961 . S
H2999 C2983 0.960 . S
C3000 C3001 1.391 . S
C3000 C3002 1.394 . S
C3000 H3016 0.931 . S
C3001 C3000 1.391 . S
C3001 C3005 1.376 . S
C3002 C3000 1.394 . S
C3002 C3003 1.369 . S
C3002 C3006 1.531 . S
C3003 C3002 1.369 . S
C3003 C3004 1.410 . S
C3003 C3011 1.503 . S
C3004 C3003 1.410 . S
C3004 C3005 1.392 . S
C3004 C3007 1.511 1_455 S
C3005 C3001 1.376 . S
C3005 C3004 1.392 . S
C3005 H3017 0.929 . S
C3006 C3002 1.531 . S
C3006 H3018 0.960 . S
C3006 H3019 0.962 . S
C3006 H3020 0.960 . S
C3007 C3004 1.511 1_655 S
C3007 H3021 0.961 . S
C3007 H3022 0.961 . S
C3007 H3023 0.961 . S
C3008 C3009 1.370 . S
C3008 C3010 1.363 . S
C3008 H3024 0.931 . S
C3009 C3008 1.370 . S
C3009 C3013 1.408 . S
C3010 C3008 1.363 . S
C3010 C3011 1.370 . S
C3010 C3014 1.524 . S
C3011 C3003 1.503 . S
C3011 C3010 1.370 . S
C3011 C3012 1.403 . S
C3012 C3011 1.403 . S
C3012 C3013 1.406 . S
C3012 C3015 1.539 1_455 S
C3013 C3009 1.408 . S
C3013 C3012 1.406 . S
C3013 H3025 0.928 1_455 S
C3014 C3010 1.524 . S
C3014 H3026 0.956 . S
C3014 H3027 0.961 . S
C3014 H3028 0.961 . S
C3015 C3012 1.539 1_655 S
C3015 H3029 0.954 . S
C3015 H3030 0.961 . S
C3015 H3031 0.960 . S
H3016 C3000 0.931 . S
H3017 C3005 0.929 . S
H3018 C3006 0.960 . S
H3019 C3006 0.962 . S
H3020 C3006 0.960 . S
H3021 C3007 0.961 . S
H3022 C3007 0.961 . S
H3023 C3007 0.961 . S
H3024 C3008 0.931 . S
H3025 C3013 0.928 1_655 S
H3026 C3014 0.956 . S
H3027 C3014 0.961 . S
H3028 C3014 0.961 . S
H3029 C3015 0.954 . S
H3030 C3015 0.961 . S
H3031 C3015 0.960 . S
C3032 C3033 1.391 . S
C3032 C3034 1.394 . S
C3032 H3048 0.931 . S
C3033 C3032 1.391 . S
C3033 C3037 1.376 . S
C3034 C3032 1.394 . S
C3034 C3035 1.369 . S
C3034 C3038 1.531 . S
C3035 C3034 1.369 . S
C3035 C3036 1.410 . S
C3035 C3043 1.503 . S
C3036 C3035 1.410 . S
C3036 C3037 1.392 . S
C3036 C3039 1.511 . S
C3037 C3033 1.376 . S
C3037 C3036 1.392 . S
C3037 H3049 0.929 . S
C3038 C3034 1.531 . S
C3038 H3050 0.960 . S
C3038 H3051 0.962 . S
C3038 H3052 0.960 . S
C3039 C3036 1.511 . S
C3039 H3053 0.961 . S
C3039 H3054 0.961 . S
C3039 H3055 0.961 . S
C3040 C3041 1.370 . S
C3040 C3042 1.363 . S
C3040 H3056 0.931 . S
C3041 C3040 1.370 . S
C3041 C3045 1.408 . S
C3042 C3040 1.363 . S
C3042 C3043 1.370 . S
C3042 C3046 1.524 . S
C3043 C3035 1.503 . S
C3043 C3042 1.370 . S
C3043 C3044 1.403 . S
C3044 C3043 1.403 . S
C3044 C3045 1.404 . S
C3044 C3047 1.539 . S
C3045 C3041 1.408 . S
C3045 C3044 1.404 . S
C3045 H3057 0.930 . S
C3046 C3042 1.524 . S
C3046 H3058 0.956 . S
C3046 H3059 0.961 . S
C3046 H3060 0.961 . S
C3047 C3044 1.539 . S
C3047 H3061 0.958 . S
C3047 H3062 0.961 . S
C3047 H3063 0.960 . S
H3048 C3032 0.931 . S
H3049 C3037 0.929 . S
H3050 C3038 0.960 . S
H3051 C3038 0.962 . S
H3052 C3038 0.960 . S
H3053 C3039 0.961 . S
H3054 C3039 0.961 . S
H3055 C3039 0.961 . S
H3056 C3040 0.931 . S
H3057 C3045 0.930 . S
H3058 C3046 0.956 . S
H3059 C3046 0.961 . S
H3060 C3046 0.961 . S
H3061 C3047 0.958 . S
H3062 C3047 0.961 . S
H3063 C3047 0.960 . S
C3064 C3065 1.391 . S
C3064 C3066 1.394 . S
C3064 H3080 0.931 . S
C3065 C3064 1.391 . S
C3065 C3069 1.376 . S
C3066 C3064 1.394 . S
C3066 C3067 1.369 . S
C3066 C3070 1.531 . S
C3067 C3066 1.369 . S
C3067 C3068 1.410 . S
C3067 C3075 1.503 . S
C3068 C3067 1.410 . S
C3068 C3069 1.392 . S
C3068 C3071 1.511 . S
C3069 C3065 1.376 . S
C3069 C3068 1.392 . S
C3069 H3081 0.929 . S
C3070 C3066 1.531 . S
C3070 H3082 0.960 . S
C3070 H3083 0.962 . S
C3070 H3084 0.960 . S
C3071 C3068 1.511 . S
C3071 H3085 0.961 . S
C3071 H3086 0.961 . S
C3071 H3087 0.961 1_565 S
C3072 C3073 1.370 . S
C3072 C3074 1.363 . S
C3072 H3088 0.931 . S
C3073 C3072 1.370 . S
C3073 C3077 1.408 1_565 S
C3074 C3072 1.363 . S
C3074 C3075 1.370 . S
C3074 C3078 1.524 . S
C3075 C3067 1.503 . S
C3075 C3074 1.370 . S
C3075 C3076 1.403 1_565 S
C3076 C3075 1.403 1_545 S
C3076 C3077 1.404 . S
C3076 C3079 1.539 . S
C3077 C3073 1.408 1_545 S
C3077 C3076 1.404 . S
C3077 H3089 0.930 . S
C3078 C3074 1.524 . S
C3078 H3090 0.956 . S
C3078 H3091 0.961 . S
C3078 H3092 0.961 . S
C3079 C3076 1.539 . S
C3079 H3093 0.958 . S
C3079 H3094 0.961 . S
C3079 H3095 0.960 . S
H3080 C3064 0.931 . S
H3081 C3069 0.929 . S
H3082 C3070 0.960 . S
H3083 C3070 0.962 . S
H3084 C3070 0.960 . S
H3085 C3071 0.961 . S
H3086 C3071 0.961 . S
H3087 C3071 0.961 1_545 S
H3088 C3072 0.931 . S
H3089 C3077 0.930 . S
H3090 C3078 0.956 . S
H3091 C3078 0.961 . S
H3092 C3078 0.961 . S
H3093 C3079 0.958 . S
H3094 C3079 0.961 . S
H3095 C3079 0.960 . S
C3096 C3097 1.391 . S
C3096 C3098 1.394 . S
C3096 H3112 0.931 . S
C3097 C3096 1.391 . S
C3097 C3101 1.376 . S
C3098 C3096 1.394 . S
C3098 C3099 1.369 . S
C3098 C3102 1.531 . S
C3099 C3098 1.369 . S
C3099 C3100 1.410 . S
C3099 C3107 1.503 . S
C3100 C3099 1.410 . S
C3100 C3101 1.392 . S
C3100 C3103 1.511 1_565 S
C3101 C3097 1.376 . S
C3101 C3100 1.392 . S
C3101 H3113 0.929 . S
C3102 C3098 1.531 . S
C3102 H3114 0.960 . S
C3102 H3115 0.962 . S
C3102 H3116 0.960 . S
C3103 C3100 1.511 1_545 S
C3103 H3117 0.961 . S
C3103 H3118 0.961 . S
C3103 H3119 0.961 . S
C3104 C3105 1.370 . S
C3104 C3106 1.363 . S
C3104 H3120 0.931 . S
C3105 C3104 1.370 . S
C3105 C3109 1.408 1_565 S
C3106 C3104 1.363 . S
C3106 C3107 1.370 . S
C3106 C3110 1.524 . S
C3107 C3099 1.503 . S
C3107 C3106 1.370 . S
C3107 C3108 1.403 . S
C3108 C3107 1.403 . S
C3108 C3109 1.404 1_565 S
C3108 C3111 1.539 1_565 S
C3109 C3105 1.408 1_545 S
C3109 C3108 1.404 1_545 S
C3109 H3121 0.930 . S
C3110 C3106 1.524 . S
C3110 H3122 0.956 . S
C3110 H3123 0.961 . S
C3110 H3124 0.961 . S
C3111 C3108 1.539 1_545 S
C3111 H3125 0.958 . S
C3111 H3126 0.961 . S
C3111 H3127 0.960 . S
H3112 C3096 0.931 . S
H3113 C3101 0.929 . S
H3114 C3102 0.960 . S
H3115 C3102 0.962 . S
H3116 C3102 0.960 . S
H3117 C3103 0.961 . S
H3118 C3103 0.961 . S
H3119 C3103 0.961 . S
H3120 C3104 0.931 . S
H3121 C3109 0.930 . S
H3122 C3110 0.956 . S
H3123 C3110 0.961 . S
H3124 C3110 0.961 . S
H3125 C3111 0.958 . S
H3126 C3111 0.961 . S
H3127 C3111 0.960 . S
C3128 C3129 1.391 . S
C3128 C3130 1.394 . S
C3128 H3144 0.931 . S
C3129 C3128 1.391 . S
C3129 C3133 1.376 . S
C3130 C3128 1.394 . S
C3130 C3131 1.369 . S
C3130 C3134 1.531 . S
C3131 C3130 1.369 . S
C3131 C3132 1.410 . S
C3131 C3139 1.503 . S
C3132 C3131 1.410 . S
C3132 C3133 1.392 . S
C3132 C3135 1.511 . S
C3133 C3129 1.376 . S
C3133 C3132 1.392 . S
C3133 H3145 0.929 . S
C3134 C3130 1.531 . S
C3134 H3146 0.960 . S
C3134 H3147 0.962 . S
C3134 H3148 0.960 . S
C3135 C3132 1.511 . S
C3135 H3149 0.961 . S
C3135 H3150 0.961 . S
C3135 H3151 0.961 . S
C3136 C3137 1.370 . S
C3136 C3138 1.363 . S
C3136 H3152 0.931 . S
C3137 C3136 1.370 . S
C3137 C3141 1.408 1_455 S
C3138 C3136 1.363 . S
C3138 C3139 1.370 . S
C3138 C3142 1.524 . S
C3139 C3131 1.503 . S
C3139 C3138 1.370 . S
C3139 C3140 1.403 1_455 S
C3140 C3139 1.403 1_655 S
C3140 C3141 1.404 . S
C3140 C3143 1.539 . S
C3141 C3137 1.408 1_655 S
C3141 C3140 1.404 . S
C3141 H3153 0.930 . S
C3142 C3138 1.524 . S
C3142 H3154 0.956 . S
C3142 H3155 0.961 . S
C3142 H3156 0.961 . S
C3143 C3140 1.539 . S
C3143 H3157 0.958 . S
C3143 H3158 0.961 . S
C3143 H3159 0.960 . S
H3144 C3128 0.931 . S
H3145 C3133 0.929 . S
H3146 C3134 0.960 . S
H3147 C3134 0.962 . S
H3148 C3134 0.960 . S
H3149 C3135 0.961 . S
H3150 C3135 0.961 . S
H3151 C3135 0.961 . S
H3152 C3136 0.931 . S
H3153 C3141 0.930 . S
H3154 C3142 0.956 . S
H3155 C3142 0.961 . S
H3156 C3142 0.961 . S
H3157 C3143 0.958 . S
H3158 C3143 0.961 . S
H3159 C3143 0.960 . S
C3160 C3161 1.391 . S
C3160 C3162 1.394 . S
C3160 H3176 0.931 . S
C3161 C3160 1.391 . S
C3161 C3165 1.376 . S
C3162 C3160 1.394 . S
C3162 C3163 1.369 . S
C3162 C3166 1.531 . S
C3163 C3162 1.369 . S
C3163 C3164 1.410 . S
C3163 C3171 1.503 . S
C3164 C3163 1.410 . S
C3164 C3165 1.392 . S
C3164 C3167 1.511 . S
C3165 C3161 1.376 . S
C3165 C3164 1.392 . S
C3165 H3177 0.929 . S
C3166 C3162 1.531 . S
C3166 H3178 0.960 . S
C3166 H3179 0.962 . S
C3166 H3180 0.960 . S
C3167 C3164 1.511 . S
C3167 H3181 0.961 . S
C3167 H3182 0.961 . S
C3167 H3183 0.961 . S
C3168 C3169 1.370 . S
C3168 C3170 1.363 . S
C3168 H3184 0.931 . S
C3169 C3168 1.370 . S
C3169 C3173 1.408 . S
C3170 C3168 1.363 . S
C3170 C3171 1.370 . S
C3170 C3174 1.524 . S
C3171 C3163 1.503 . S
C3171 C3170 1.370 . S
C3171 C3172 1.403 . S
C3172 C3171 1.403 . S
C3172 C3173 1.404 . S
C3172 C3175 1.539 . S
C3173 C3169 1.408 . S
C3173 C3172 1.404 . S
C3173 H3185 0.930 . S
C3174 C3170 1.524 . S
C3174 H3186 0.956 . S
C3174 H3187 0.961 . S
C3174 H3188 0.961 . S
C3175 C3172 1.539 . S
C3175 H3189 0.958 . S
C3175 H3190 0.961 . S
C3175 H3191 0.960 . S
H3176 C3160 0.931 . S
H3177 C3165 0.929 . S
H3178 C3166 0.960 . S
H3179 C3166 0.962 . S
H3180 C3166 0.960 . S
H3181 C3167 0.961 . S
H3182 C3167 0.961 . S
H3183 C3167 0.961 . S
H3184 C3168 0.931 . S
H3185 C3173 0.930 . S
H3186 C3174 0.956 . S
H3187 C3174 0.961 . S
H3188 C3174 0.961 . S
H3189 C3175 0.958 . S
H3190 C3175 0.961 . S
H3191 C3175 0.960 . S
C3192 C3193 1.391 . S
C3192 C3194 1.394 . S
C3192 H3208 0.931 . S
C3193 C3192 1.391 . S
C3193 C3197 1.376 . S
C3194 C3192 1.394 . S
C3194 C3195 1.369 . S
C3194 C3198 1.531 . S
C3195 C3194 1.369 . S
C3195 C3196 1.410 . S
C3195 C3203 1.503 . S
C3196 C3195 1.410 . S
C3196 C3197 1.392 . S
C3196 C3199 1.511 . S
C3197 C3193 1.376 . S
C3197 C3196 1.392 . S
C3197 H3209 0.929 . S
C3198 C3194 1.531 . S
C3198 H3210 0.960 . S
C3198 H3211 0.962 . S
C3198 H3212 0.960 . S
C3199 C3196 1.511 . S
C3199 H3213 0.961 . S
C3199 H3214 0.961 . S
C3199 H3215 0.961 . S
C3200 C3201 1.370 . S
C3200 C3202 1.363 . S
C3200 H3216 0.931 . S
C3201 C3200 1.370 . S
C3201 C3205 1.408 . S
C3202 C3200 1.363 . S
C3202 C3203 1.370 . S
C3202 C3206 1.524 . S
C3203 C3195 1.503 . S
C3203 C3202 1.370 . S
C3203 C3204 1.403 . S
C3204 C3203 1.403 . S
C3204 C3205 1.404 . S
C3204 C3207 1.539 . S
C3205 C3201 1.408 . S
C3205 C3204 1.404 . S
C3205 H3217 0.930 . S
C3206 C3202 1.524 . S
C3206 H3218 0.956 . S
C3206 H3219 0.961 . S
C3206 H3220 0.961 . S
C3207 C3204 1.539 . S
C3207 H3221 0.958 . S
C3207 H3222 0.961 . S
C3207 H3223 0.960 . S
H3208 C3192 0.931 . S
H3209 C3197 0.929 . S
H3210 C3198 0.960 . S
H3211 C3198 0.962 . S
H3212 C3198 0.960 . S
H3213 C3199 0.961 . S
H3214 C3199 0.961 . S
H3215 C3199 0.961 . S
H3216 C3200 0.931 . S
H3217 C3205 0.930 . S
H3218 C3206 0.956 . S
H3219 C3206 0.961 . S
H3220 C3206 0.961 . S
H3221 C3207 0.958 . S
H3222 C3207 0.961 . S
H3223 C3207 0.960 . S
C3224 C3225 1.391 . S
C3224 C3226 1.394 . S
C3224 H3240 0.931 . S
C3225 C3224 1.391 . S
C3225 C3229 1.376 . S
C3226 C3224 1.394 . S
C3226 C3227 1.369 . S
C3226 C3230 1.531 . S
C3227 C3226 1.369 . S
C3227 C3228 1.410 . S
C3227 C3235 1.503 . S
C3228 C3227 1.410 . S
C3228 C3229 1.392 . S
C3228 C3231 1.511 . S
C3229 C3225 1.376 . S
C3229 C3228 1.392 . S
C3229 H3241 0.929 . S
C3230 C3226 1.531 . S
C3230 H3242 0.960 . S
C3230 H3243 0.962 . S
C3230 H3244 0.960 . S
C3231 C3228 1.511 . S
C3231 H3245 0.961 . S
C3231 H3246 0.961 . S
C3231 H3247 0.961 . S
C3232 C3233 1.370 . S
C3232 C3234 1.363 . S
C3232 H3248 0.931 . S
C3233 C3232 1.370 . S
C3233 C3237 1.408 . S
C3234 C3232 1.363 . S
C3234 C3235 1.370 . S
C3234 C3238 1.524 . S
C3235 C3227 1.503 . S
C3235 C3234 1.370 . S
C3235 C3236 1.403 . S
C3236 C3235 1.403 . S
C3236 C3237 1.404 . S
C3236 C3239 1.539 . S
C3237 C3233 1.408 . S
C3237 C3236 1.404 . S
C3237 H3249 0.930 . S
C3238 C3234 1.524 . S
C3238 H3250 0.956 . S
C3238 H3251 0.961 . S
C3238 H3252 0.961 . S
C3239 C3236 1.539 . S
C3239 H3253 0.958 . S
C3239 H3254 0.961 . S
C3239 H3255 0.960 . S
H3240 C3224 0.931 . S
H3241 C3229 0.929 . S
H3242 C3230 0.960 . S
H3243 C3230 0.962 . S
H3244 C3230 0.960 . S
H3245 C3231 0.961 . S
H3246 C3231 0.961 . S
H3247 C3231 0.961 . S
H3248 C3232 0.931 . S
H3249 C3237 0.930 . S
H3250 C3238 0.956 . S
H3251 C3238 0.961 . S
H3252 C3238 0.961 . S
H3253 C3239 0.958 . S
H3254 C3239 0.961 . S
H3255 C3239 0.960 . S
C3256 C3257 1.391 . S
C3256 C3258 1.394 . S
C3256 H3272 0.931 . S
C3257 C3256 1.391 . S
C3257 C3261 1.376 . S
C3258 C3256 1.394 . S
C3258 C3259 1.369 . S
C3258 C3262 1.531 . S
C3259 C3258 1.369 . S
C3259 C3260 1.410 . S
C3259 C3267 1.503 . S
C3260 C3259 1.410 . S
C3260 C3261 1.392 . S
C3260 C3263 1.511 . S
C3261 C3257 1.376 . S
C3261 C3260 1.392 . S
C3261 H3273 0.929 . S
C3262 C3258 1.531 . S
C3262 H3274 0.960 . S
C3262 H3275 0.962 . S
C3262 H3276 0.960 . S
C3263 C3260 1.511 . S
C3263 H3277 0.961 . S
C3263 H3278 0.961 . S
C3263 H3279 0.961 . S
C3264 C3265 1.370 . S
C3264 C3266 1.363 . S
C3264 H3280 0.931 . S
C3265 C3264 1.370 . S
C3265 C3269 1.408 . S
C3266 C3264 1.363 . S
C3266 C3267 1.370 . S
C3266 C3270 1.524 . S
C3267 C3259 1.503 . S
C3267 C3266 1.370 . S
C3267 C3268 1.403 . S
C3268 C3267 1.403 . S
C3268 C3269 1.404 . S
C3268 C3271 1.539 . S
C3269 C3265 1.408 . S
C3269 C3268 1.404 . S
C3269 H3281 0.930 . S
C3270 C3266 1.524 . S
C3270 H3282 0.956 . S
C3270 H3283 0.961 . S
C3270 H3284 0.961 . S
C3271 C3268 1.539 . S
C3271 H3285 0.958 . S
C3271 H3286 0.961 . S
C3271 H3287 0.960 . S
H3272 C3256 0.931 . S
H3273 C3261 0.929 . S
H3274 C3262 0.960 . S
H3275 C3262 0.962 . S
H3276 C3262 0.960 . S
H3277 C3263 0.961 . S
H3278 C3263 0.961 . S
H3279 C3263 0.961 . S
H3280 C3264 0.931 . S
H3281 C3269 0.930 . S
H3282 C3270 0.956 . S
H3283 C3270 0.961 . S
H3284 C3270 0.961 . S
H3285 C3271 0.958 . S
H3286 C3271 0.961 . S
H3287 C3271 0.960 . S
C3288 C3289 1.391 . S
C3288 C3290 1.394 . S
C3288 H3304 0.931 . S
C3289 C3288 1.391 . S
C3289 C3293 1.376 . S
C3290 C3288 1.394 . S
C3290 C3291 1.369 . S
C3290 C3294 1.531 . S
C3291 C3290 1.369 . S
C3291 C3292 1.410 . S
C3291 C3299 1.503 . S
C3292 C3291 1.410 . S
C3292 C3293 1.392 . S
C3292 C3295 1.511 1_545 S
C3293 C3289 1.376 . S
C3293 C3292 1.392 . S
C3293 H3305 0.929 . S
C3294 C3290 1.531 . S
C3294 H3306 0.960 . S
C3294 H3307 0.962 . S
C3294 H3308 0.960 . S
C3295 C3292 1.511 1_565 S
C3295 H3309 0.961 . S
C3295 H3310 0.961 . S
C3295 H3311 0.961 . S
C3296 C3297 1.370 . S
C3296 C3298 1.363 . S
C3296 H3312 0.931 . S
C3297 C3296 1.370 . S
C3297 C3301 1.402 1_545 S
C3298 C3296 1.363 . S
C3298 C3299 1.370 . S
C3298 C3302 1.524 . S
C3299 C3291 1.503 . S
C3299 C3298 1.370 . S
C3299 C3300 1.403 . S
C3300 C3299 1.403 . S
C3300 C3301 1.346 1_545 S
C3300 C3303 1.539 1_545 S
C3301 C3297 1.402 1_565 S
C3301 C3300 1.346 1_565 S
C3301 H3313 0.998 . S
C3302 C3298 1.524 . S
C3302 H3314 0.956 . S
C3302 H3315 0.961 . S
C3302 H3316 0.961 . S
C3303 C3300 1.539 1_565 S
C3303 H3317 0.958 . S
C3303 H3318 0.961 . S
C3303 H3319 0.960 . S
H3304 C3288 0.931 . S
H3305 C3293 0.929 . S
H3306 C3294 0.960 . S
H3307 C3294 0.962 . S
H3308 C3294 0.960 . S
H3309 C3295 0.961 . S
H3310 C3295 0.961 . S
H3311 C3295 0.961 . S
H3312 C3296 0.931 . S
H3313 C3301 0.998 . S
H3314 C3302 0.956 . S
H3315 C3302 0.961 . S
H3316 C3302 0.961 . S
H3317 C3303 0.958 . S
H3318 C3303 0.961 . S
H3319 C3303 0.960 . S
C3320 C3321 1.391 . S
C3320 C3322 1.394 . S
C3320 H3336 0.931 1_655 S
C3321 C3320 1.391 . S
C3321 C3325 1.376 . S
C3322 C3320 1.394 . S
C3322 C3323 1.369 . S
C3322 C3326 1.531 1_655 S
C3323 C3322 1.369 . S
C3323 C3324 1.410 . S
C3323 C3331 1.503 . S
C3324 C3323 1.410 . S
C3324 C3325 1.392 . S
C3324 C3327 1.511 . S
C3325 C3321 1.376 . S
C3325 C3324 1.392 . S
C3325 H3337 0.929 . S
C3326 C3322 1.531 1_455 S
C3326 H3338 0.960 . S
C3326 H3339 0.962 . S
C3326 H3340 0.960 . S
C3327 C3324 1.511 . S
C3327 H3341 0.961 . S
C3327 H3342 0.961 . S
C3327 H3343 0.961 . S
C3328 C3329 1.370 . S
C3328 C3330 1.363 . S
C3328 H3344 0.931 . S
C3329 C3328 1.370 . S
C3329 C3333 1.408 . S
C3330 C3328 1.363 . S
C3330 C3331 1.370 . S
C3330 C3334 1.524 . S
C3331 C3323 1.503 . S
C3331 C3330 1.370 . S
C3331 C3332 1.403 . S
C3332 C3331 1.403 . S
C3332 C3333 1.404 . S
C3332 C3335 1.539 . S
C3333 C3329 1.408 . S
C3333 C3332 1.404 . S
C3333 H3345 0.930 . S
C3334 C3330 1.524 . S
C3334 H3346 0.956 . S
C3334 H3347 0.961 . S
C3334 H3348 0.961 . S
C3335 C3332 1.539 . S
C3335 H3349 0.958 . S
C3335 H3350 0.961 . S
C3335 H3351 0.960 . S
H3336 C3320 0.931 1_455 S
H3337 C3325 0.929 . S
H3338 C3326 0.960 . S
H3339 C3326 0.962 . S
H3340 C3326 0.960 . S
H3341 C3327 0.961 . S
H3342 C3327 0.961 . S
H3343 C3327 0.961 . S
H3344 C3328 0.931 . S
H3345 C3333 0.930 . S
H3346 C3334 0.956 . S
H3347 C3334 0.961 . S
H3348 C3334 0.961 . S
H3349 C3335 0.958 . S
H3350 C3335 0.961 . S
H3351 C3335 0.960 . S
C3352 C3353 1.391 . S
C3352 C3354 1.394 . S
C3352 H3368 0.931 . S
C3353 C3352 1.391 . S
C3353 C3357 1.376 . S
C3354 C3352 1.394 . S
C3354 C3355 1.369 . S
C3354 C3358 1.531 . S
C3355 C3354 1.369 . S
C3355 C3356 1.410 . S
C3355 C3363 1.503 . S
C3356 C3355 1.410 . S
C3356 C3357 1.392 . S
C3356 C3359 1.511 . S
C3357 C3353 1.376 . S
C3357 C3356 1.392 . S
C3357 H3369 0.929 . S
C3358 C3354 1.531 . S
C3358 H3370 0.960 . S
C3358 H3371 0.962 . S
C3358 H3372 0.960 . S
C3359 C3356 1.511 . S
C3359 H3373 0.961 . S
C3359 H3374 0.961 . S
C3359 H3375 0.961 . S
C3360 C3361 1.370 . S
C3360 C3362 1.363 . S
C3360 H3376 0.931 . S
C3361 C3360 1.370 . S
C3361 C3365 1.408 . S
C3362 C3360 1.363 . S
C3362 C3363 1.370 . S
C3362 C3366 1.524 . S
C3363 C3355 1.503 . S
C3363 C3362 1.370 . S
C3363 C3364 1.403 . S
C3364 C3363 1.403 . S
C3364 C3365 1.404 . S
C3364 C3367 1.539 . S
C3365 C3361 1.408 . S
C3365 C3364 1.404 . S
C3365 H3377 0.930 . S
C3366 C3362 1.524 . S
C3366 H3378 0.956 . S
C3366 H3379 0.961 . S
C3366 H3380 0.961 . S
C3367 C3364 1.539 . S
C3367 H3381 0.958 . S
C3367 H3382 0.961 . S
C3367 H3383 0.960 . S
H3368 C3352 0.931 . S
H3369 C3357 0.929 . S
H3370 C3358 0.960 . S
H3371 C3358 0.962 . S
H3372 C3358 0.960 . S
H3373 C3359 0.961 . S
H3374 C3359 0.961 . S
H3375 C3359 0.961 . S
H3376 C3360 0.931 . S
H3377 C3365 0.930 . S
H3378 C3366 0.956 . S
H3379 C3366 0.961 . S
H3380 C3366 0.961 . S
H3381 C3367 0.958 . S
H3382 C3367 0.961 . S
H3383 C3367 0.960 . S
C3384 C3385 1.391 . S
C3384 C3386 1.394 . S
C3384 H3400 0.931 . S
C3385 C3384 1.391 . S
C3385 C3389 1.376 . S
C3386 C3384 1.394 . S
C3386 C3387 1.369 . S
C3386 C3390 1.531 . S
C3387 C3386 1.369 . S
C3387 C3388 1.410 . S
C3387 C3395 1.503 . S
C3388 C3387 1.410 . S
C3388 C3389 1.392 . S
C3388 C3391 1.511 . S
C3389 C3385 1.376 . S
C3389 C3388 1.392 . S
C3389 H3401 0.929 . S
C3390 C3386 1.531 . S
C3390 H3402 0.960 . S
C3390 H3403 0.962 . S
C3390 H3404 0.960 . S
C3391 C3388 1.511 . S
C3391 H3405 0.961 . S
C3391 H3406 0.961 . S
C3391 H3407 0.961 . S
C3392 C3393 1.370 . S
C3392 C3394 1.363 . S
C3392 H3408 0.931 . S
C3393 C3392 1.370 . S
C3393 C3397 1.408 . S
C3394 C3392 1.363 . S
C3394 C3395 1.370 . S
C3394 C3398 1.524 . S
C3395 C3387 1.503 . S
C3395 C3394 1.370 . S
C3395 C3396 1.403 . S
C3396 C3395 1.403 . S
C3396 C3397 1.404 . S
C3396 C3399 1.539 . S
C3397 C3393 1.408 . S
C3397 C3396 1.404 . S
C3397 H3409 0.930 . S
C3398 C3394 1.524 . S
C3398 H3410 0.956 . S
C3398 H3411 0.961 . S
C3398 H3412 0.961 . S
C3399 C3396 1.539 . S
C3399 H3413 0.958 . S
C3399 H3414 0.961 . S
C3399 H3415 0.960 . S
H3400 C3384 0.931 . S
H3401 C3389 0.929 . S
H3402 C3390 0.960 . S
H3403 C3390 0.962 . S
H3404 C3390 0.960 . S
H3405 C3391 0.961 . S
H3406 C3391 0.961 . S
H3407 C3391 0.961 . S
H3408 C3392 0.931 . S
H3409 C3397 0.930 . S
H3410 C3398 0.956 . S
H3411 C3398 0.961 . S
H3412 C3398 0.961 . S
H3413 C3399 0.958 . S
H3414 C3399 0.961 . S
H3415 C3399 0.960 . S
C3416 C3417 1.391 . S
C3416 C3418 1.394 . S
C3416 H3432 0.931 . S
C3417 C3416 1.391 . S
C3417 C3421 1.376 . S
C3418 C3416 1.394 . S
C3418 C3419 1.369 . S
C3418 C3422 1.531 . S
C3419 C3418 1.369 . S
C3419 C3420 1.410 . S
C3419 C3427 1.503 . S
C3420 C3419 1.410 . S
C3420 C3421 1.392 . S
C3420 C3423 1.511 . S
C3421 C3417 1.376 . S
C3421 C3420 1.392 . S
C3421 H3433 0.929 . S
C3422 C3418 1.531 . S
C3422 H3434 0.960 . S
C3422 H3435 0.962 . S
C3422 H3436 0.960 . S
C3423 C3420 1.511 . S
C3423 H3437 0.961 . S
C3423 H3438 0.961 . S
C3423 H3439 0.961 . S
C3424 C3425 1.370 . S
C3424 C3426 1.363 . S
C3424 H3440 0.931 . S
C3425 C3424 1.370 . S
C3425 C3429 1.408 . S
C3426 C3424 1.363 . S
C3426 C3427 1.370 . S
C3426 C3430 1.524 . S
C3427 C3419 1.503 . S
C3427 C3426 1.370 . S
C3427 C3428 1.403 . S
C3428 C3427 1.403 . S
C3428 C3429 1.404 . S
C3428 C3431 1.539 . S
C3429 C3425 1.408 . S
C3429 C3428 1.404 . S
C3429 H3441 0.930 . S
C3430 C3426 1.524 . S
C3430 H3442 0.956 . S
C3430 H3443 0.961 . S
C3430 H3444 0.961 . S
C3431 C3428 1.539 . S
C3431 H3445 0.958 . S
C3431 H3446 0.961 . S
C3431 H3447 0.960 . S
H3432 C3416 0.931 . S
H3433 C3421 0.929 . S
H3434 C3422 0.960 . S
H3435 C3422 0.962 . S
H3436 C3422 0.960 . S
H3437 C3423 0.961 . S
H3438 C3423 0.961 . S
H3439 C3423 0.961 . S
H3440 C3424 0.931 . S
H3441 C3429 0.930 . S
H3442 C3430 0.956 . S
H3443 C3430 0.961 . S
H3444 C3430 0.961 . S
H3445 C3431 0.958 . S
H3446 C3431 0.961 . S
H3447 C3431 0.960 . S
C3448 C3449 1.391 . S
C3448 C3450 1.394 . S
C3448 H3464 0.931 . S
C3449 C3448 1.391 . S
C3449 C3453 1.376 . S
C3450 C3448 1.394 . S
C3450 C3451 1.369 . S
C3450 C3454 1.531 . S
C3451 C3450 1.369 . S
C3451 C3452 1.410 . S
C3451 C3459 1.503 . S
C3452 C3451 1.410 . S
C3452 C3453 1.392 . S
C3452 C3455 1.511 . S
C3453 C3449 1.376 . S
C3453 C3452 1.392 . S
C3453 H3465 0.929 . S
C3454 C3450 1.531 . S
C3454 H3466 0.960 . S
C3454 H3467 0.962 . S
C3454 H3468 0.960 . S
C3455 C3452 1.511 . S
C3455 H3469 0.961 . S
C3455 H3470 0.961 . S
C3455 H3471 0.961 . S
C3456 C3457 1.370 . S
C3456 C3458 1.363 . S
C3456 H3472 0.931 . S
C3457 C3456 1.370 . S
C3457 C3461 1.408 . S
C3458 C3456 1.363 . S
C3458 C3459 1.370 . S
C3458 C3462 1.524 . S
C3459 C3451 1.503 . S
C3459 C3458 1.370 . S
C3459 C3460 1.403 . S
C3460 C3459 1.403 . S
C3460 C3461 1.404 . S
C3460 C3463 1.539 . S
C3461 C3457 1.408 . S
C3461 C3460 1.404 . S
C3461 H3473 0.930 . S
C3462 C3458 1.524 . S
C3462 H3474 0.956 . S
C3462 H3475 0.961 . S
C3462 H3476 0.961 . S
C3463 C3460 1.539 . S
C3463 H3477 0.958 . S
C3463 H3478 0.961 . S
C3463 H3479 0.960 . S
H3464 C3448 0.931 . S
H3465 C3453 0.929 . S
H3466 C3454 0.960 . S
H3467 C3454 0.962 . S
H3468 C3454 0.960 . S
H3469 C3455 0.961 . S
H3470 C3455 0.961 . S
H3471 C3455 0.961 . S
H3472 C3456 0.931 . S
H3473 C3461 0.930 . S
H3474 C3462 0.956 . S
H3475 C3462 0.961 . S
H3476 C3462 0.961 . S
H3477 C3463 0.958 . S
H3478 C3463 0.961 . S
H3479 C3463 0.960 . S
C3480 C3481 1.391 . S
C3480 C3482 1.394 . S
C3480 H3496 0.931 . S
C3481 C3480 1.391 . S
C3481 C3485 1.376 . S
C3482 C3480 1.394 . S
C3482 C3483 1.369 . S
C3482 C3486 1.531 . S
C3483 C3482 1.369 . S
C3483 C3484 1.410 . S
C3483 C3491 1.503 . S
C3484 C3483 1.410 . S
C3484 C3485 1.392 . S
C3484 C3487 1.511 . S
C3485 C3481 1.376 . S
C3485 C3484 1.392 . S
C3485 H3497 0.929 . S
C3486 C3482 1.531 . S
C3486 H3498 0.960 . S
C3486 H3499 0.962 . S
C3486 H3500 0.960 . S
C3487 C3484 1.511 . S
C3487 H3501 0.961 . S
C3487 H3502 0.961 . S
C3487 H3503 0.961 . S
C3488 C3489 1.370 . S
C3488 C3490 1.363 . S
C3488 H3504 0.931 . S
C3489 C3488 1.370 . S
C3489 C3493 1.408 . S
C3490 C3488 1.363 . S
C3490 C3491 1.370 . S
C3490 C3494 1.524 . S
C3491 C3483 1.503 . S
C3491 C3490 1.370 . S
C3491 C3492 1.403 . S
C3492 C3491 1.403 . S
C3492 C3493 1.404 . S
C3492 C3495 1.539 . S
C3493 C3489 1.408 . S
C3493 C3492 1.404 . S
C3493 H3505 0.930 . S
C3494 C3490 1.524 . S
C3494 H3506 0.956 . S
C3494 H3507 0.961 . S
C3494 H3508 0.961 . S
C3495 C3492 1.539 . S
C3495 H3509 0.958 . S
C3495 H3510 0.961 . S
C3495 H3511 0.960 . S
H3496 C3480 0.931 . S
H3497 C3485 0.929 . S
H3498 C3486 0.960 . S
H3499 C3486 0.962 . S
H3500 C3486 0.960 . S
H3501 C3487 0.961 . S
H3502 C3487 0.961 . S
H3503 C3487 0.961 . S
H3504 C3488 0.931 . S
H3505 C3493 0.930 . S
H3506 C3494 0.956 . S
H3507 C3494 0.961 . S
H3508 C3494 0.961 . S
H3509 C3495 0.958 . S
H3510 C3495 0.961 . S
H3511 C3495 0.960 . S
C3512 C3513 1.391 . S
C3512 C3514 1.394 . S
C3512 H3528 0.931 . S
C3513 C3512 1.391 . S
C3513 C3517 1.376 . S
C3514 C3512 1.394 . S
C3514 C3515 1.369 . S
C3514 C3518 1.531 . S
C3515 C3514 1.369 . S
C3515 C3516 1.410 . S
C3515 C3523 1.503 . S
C3516 C3515 1.410 . S
C3516 C3517 1.392 . S
C3516 C3519 1.511 . S
C3517 C3513 1.376 . S
C3517 C3516 1.392 . S
C3517 H3529 0.929 . S
C3518 C3514 1.531 . S
C3518 H3530 0.960 . S
C3518 H3531 0.962 . S
C3518 H3532 0.960 . S
C3519 C3516 1.511 . S
C3519 H3533 0.961 . S
C3519 H3534 0.961 . S
C3519 H3535 0.961 . S
C3520 C3521 1.370 . S
C3520 C3522 1.363 . S
C3520 H3536 0.931 . S
C3521 C3520 1.370 . S
C3521 C3525 1.408 . S
C3522 C3520 1.363 . S
C3522 C3523 1.370 . S
C3522 C3526 1.524 . S
C3523 C3515 1.503 . S
C3523 C3522 1.370 . S
C3523 C3524 1.403 . S
C3524 C3523 1.403 . S
C3524 C3525 1.404 . S
C3524 C3527 1.539 . S
C3525 C3521 1.408 . S
C3525 C3524 1.404 . S
C3525 H3537 0.930 . S
C3526 C3522 1.524 . S
C3526 H3538 0.956 . S
C3526 H3539 0.961 . S
C3526 H3540 0.961 . S
C3527 C3524 1.539 . S
C3527 H3541 0.958 . S
C3527 H3542 0.961 . S
C3527 H3543 0.960 . S
H3528 C3512 0.931 . S
H3529 C3517 0.929 . S
H3530 C3518 0.960 . S
H3531 C3518 0.962 . S
H3532 C3518 0.960 . S
H3533 C3519 0.961 . S
H3534 C3519 0.961 . S
H3535 C3519 0.961 . S
H3536 C3520 0.931 . S
H3537 C3525 0.930 . S
H3538 C3526 0.956 . S
H3539 C3526 0.961 . S
H3540 C3526 0.961 . S
H3541 C3527 0.958 . S
H3542 C3527 0.961 . S
H3543 C3527 0.960 . S
C3544 C3545 1.391 . S
C3544 C3546 1.394 . S
C3544 H3560 0.931 . S
C3545 C3544 1.391 . S
C3545 C3549 1.376 . S
C3546 C3544 1.394 . S
C3546 C3547 1.369 . S
C3546 C3550 1.531 . S
C3547 C3546 1.369 . S
C3547 C3548 1.410 . S
C3547 C3555 1.503 . S
C3548 C3547 1.410 . S
C3548 C3549 1.392 . S
C3548 C3551 1.511 . S
C3549 C3545 1.376 . S
C3549 C3548 1.392 . S
C3549 H3561 0.929 . S
C3550 C3546 1.531 . S
C3550 H3562 0.960 . S
C3550 H3563 0.962 . S
C3550 H3564 0.960 . S
C3551 C3548 1.511 . S
C3551 H3565 0.961 . S
C3551 H3566 0.961 . S
C3551 H3567 0.961 . S
C3552 C3553 1.370 . S
C3552 C3554 1.363 . S
C3552 H3568 0.931 . S
C3553 C3552 1.370 . S
C3553 C3557 1.408 . S
C3554 C3552 1.363 . S
C3554 C3555 1.370 . S
C3554 C3558 1.524 . S
C3555 C3547 1.503 . S
C3555 C3554 1.370 . S
C3555 C3556 1.403 . S
C3556 C3555 1.403 . S
C3556 C3557 1.404 . S
C3556 C3559 1.539 . S
C3557 C3553 1.408 . S
C3557 C3556 1.404 . S
C3557 H3569 0.930 . S
C3558 C3554 1.524 . S
C3558 H3570 0.956 . S
C3558 H3571 0.961 . S
C3558 H3572 0.961 . S
C3559 C3556 1.539 . S
C3559 H3573 0.958 . S
C3559 H3574 0.961 . S
C3559 H3575 0.960 . S
H3560 C3544 0.931 . S
H3561 C3549 0.929 . S
H3562 C3550 0.960 . S
H3563 C3550 0.962 . S
H3564 C3550 0.960 . S
H3565 C3551 0.961 . S
H3566 C3551 0.961 . S
H3567 C3551 0.961 . S
H3568 C3552 0.931 . S
H3569 C3557 0.930 . S
H3570 C3558 0.956 . S
H3571 C3558 0.961 . S
H3572 C3558 0.961 . S
H3573 C3559 0.958 . S
H3574 C3559 0.961 . S
H3575 C3559 0.960 . S
C3576 C3577 1.391 . S
C3576 C3578 1.394 . S
C3576 H3592 0.931 . S
C3577 C3576 1.391 . S
C3577 C3581 1.376 . S
C3578 C3576 1.394 . S
C3578 C3579 1.369 . S
C3578 C3582 1.531 . S
C3579 C3578 1.369 . S
C3579 C3580 1.410 . S
C3579 C3587 1.503 . S
C3580 C3579 1.410 . S
C3580 C3581 1.392 . S
C3580 C3583 1.511 1_655 S
C3581 C3577 1.376 . S
C3581 C3580 1.392 . S
C3581 H3593 0.929 . S
C3582 C3578 1.531 . S
C3582 H3594 0.960 . S
C3582 H3595 0.962 . S
C3582 H3596 0.960 . S
C3583 C3580 1.511 1_455 S
C3583 H3597 0.961 . S
C3583 H3598 0.961 . S
C3583 H3599 0.961 . S
C3584 C3585 1.370 . S
C3584 C3586 1.363 . S
C3584 H3600 0.931 . S
C3585 C3584 1.370 . S
C3585 C3589 1.408 1_655 S
C3586 C3584 1.363 . S
C3586 C3587 1.370 . S
C3586 C3590 1.524 . S
C3587 C3579 1.503 . S
C3587 C3586 1.370 . S
C3587 C3588 1.403 . S
C3588 C3587 1.403 . S
C3588 C3589 1.402 1_655 S
C3588 C3591 1.539 1_655 S
C3589 C3585 1.408 1_455 S
C3589 C3588 1.402 1_455 S
C3589 H3601 0.932 . S
C3590 C3586 1.524 . S
C3590 H3602 0.956 . S
C3590 H3603 0.961 . S
C3590 H3604 0.961 . S
C3591 C3588 1.539 1_455 S
C3591 H3605 0.958 . S
C3591 H3606 0.961 . S
C3591 H3607 0.960 . S
H3592 C3576 0.931 . S
H3593 C3581 0.929 . S
H3594 C3582 0.960 . S
H3595 C3582 0.962 . S
H3596 C3582 0.960 . S
H3597 C3583 0.961 . S
H3598 C3583 0.961 . S
H3599 C3583 0.961 . S
H3600 C3584 0.931 . S
H3601 C3589 0.932 . S
H3602 C3590 0.956 . S
H3603 C3590 0.961 . S
H3604 C3590 0.961 . S
H3605 C3591 0.958 . S
H3606 C3591 0.961 . S
H3607 C3591 0.960 . S
C3608 C3609 1.391 . S
C3608 C3610 1.394 . S
C3608 H3624 0.931 . S
C3609 C3608 1.391 . S
C3609 C3613 1.376 . S
C3610 C3608 1.394 . S
C3610 C3611 1.369 . S
C3610 C3614 1.531 . S
C3611 C3610 1.369 . S
C3611 C3612 1.410 . S
C3611 C3619 1.503 . S
C3612 C3611 1.410 . S
C3612 C3613 1.392 . S
C3612 C3615 1.511 . S
C3613 C3609 1.376 . S
C3613 C3612 1.392 . S
C3613 H3625 0.929 . S
C3614 C3610 1.531 . S
C3614 H3626 0.960 . S
C3614 H3627 0.962 . S
C3614 H3628 0.960 . S
C3615 C3612 1.511 . S
C3615 H3629 0.961 . S
C3615 H3630 0.961 . S
C3615 H3631 0.961 . S
C3616 C3617 1.370 . S
C3616 C3618 1.363 . S
C3616 H3632 0.931 . S
C3617 C3616 1.370 . S
C3617 C3621 1.408 . S
C3618 C3616 1.363 . S
C3618 C3619 1.370 . S
C3618 C3622 1.524 . S
C3619 C3611 1.503 . S
C3619 C3618 1.370 . S
C3619 C3620 1.403 . S
C3620 C3619 1.403 . S
C3620 C3621 1.404 . S
C3620 C3623 1.539 . S
C3621 C3617 1.408 . S
C3621 C3620 1.404 . S
C3621 H3633 0.930 . S
C3622 C3618 1.524 . S
C3622 H3634 0.956 . S
C3622 H3635 0.961 . S
C3622 H3636 0.961 . S
C3623 C3620 1.539 . S
C3623 H3637 0.958 . S
C3623 H3638 0.961 . S
C3623 H3639 0.960 . S
H3624 C3608 0.931 . S
H3625 C3613 0.929 . S
H3626 C3614 0.960 . S
H3627 C3614 0.962 . S
H3628 C3614 0.960 . S
H3629 C3615 0.961 . S
H3630 C3615 0.961 . S
H3631 C3615 0.961 . S
H3632 C3616 0.931 . S
H3633 C3621 0.930 . S
H3634 C3622 0.956 . S
H3635 C3622 0.961 . S
H3636 C3622 0.961 . S
H3637 C3623 0.958 . S
H3638 C3623 0.961 . S
H3639 C3623 0.960 . S
C3640 C3641 1.391 . S
C3640 C3642 1.394 . S
C3640 H3656 0.931 . S
C3641 C3640 1.391 . S
C3641 C3645 1.376 . S
C3642 C3640 1.394 . S
C3642 C3643 1.369 . S
C3642 C3646 1.531 1_545 S
C3643 C3642 1.369 . S
C3643 C3644 1.410 . S
C3643 C3651 1.503 . S
C3644 C3643 1.410 . S
C3644 C3645 1.392 . S
C3644 C3647 1.511 . S
C3645 C3641 1.376 . S
C3645 C3644 1.392 . S
C3645 H3657 0.929 . S
C3646 C3642 1.531 1_565 S
C3646 H3658 0.960 . S
C3646 H3659 0.962 . S
C3646 H3660 0.960 . S
C3647 C3644 1.511 . S
C3647 H3661 0.961 . S
C3647 H3662 0.961 . S
C3647 H3663 0.961 . S
C3648 C3649 1.370 . S
C3648 C3650 1.363 . S
C3648 H3664 0.931 1_545 S
C3649 C3648 1.370 . S
C3649 C3653 1.408 . S
C3650 C3648 1.363 . S
C3650 C3651 1.370 . S
C3650 C3654 1.516 1_545 S
C3651 C3643 1.503 . S
C3651 C3650 1.370 . S
C3651 C3652 1.403 . S
C3652 C3651 1.403 . S
C3652 C3653 1.404 . S
C3652 C3655 1.539 . S
C3653 C3649 1.408 . S
C3653 C3652 1.404 . S
C3653 H3665 0.930 . S
C3654 C3650 1.516 1_565 S
C3654 H3666 0.974 . S
C3654 H3667 0.951 1_565 S
C3654 H3668 0.961 . S
C3655 C3652 1.539 . S
C3655 H3669 0.958 . S
C3655 H3670 0.961 . S
C3655 H3671 0.960 . S
H3656 C3640 0.931 . S
H3657 C3645 0.929 . S
H3658 C3646 0.960 . S
H3659 C3646 0.962 . S
H3660 C3646 0.960 . S
H3661 C3647 0.961 . S
H3662 C3647 0.961 . S
H3663 C3647 0.961 . S
H3664 C3648 0.931 1_565 S
H3665 C3653 0.930 . S
H3666 C3654 0.974 . S
H3667 C3654 0.951 1_545 S
H3668 C3654 0.961 . S
H3669 C3655 0.958 . S
H3670 C3655 0.961 . S
H3671 C3655 0.960 . S
C1369 C13 1.508 . S
C1377 C857 1.558 . S
C1401 C27 1.377 . S
C1409 C901 1.440 . S
C1441 C981 1.536 . S
C1433 C36 1.549 . S
C1465 C41 1.511 . S
C1473 C1025 1.517 . S
C1497 C8 1.627 . S
C1505 C1105 1.644 . S
C1529 C22 1.526 . S
C1537 C1167 1.508 . S
C1561 C55 1.519 . S
C1569 C1087 1.538 . S
C1601 C1149 1.403 . S
C1593 C69 1.421 . S
C1633 C1043 1.582 . S
C1625 C78 1.526 . S
C1657 C83 1.508 . S
C1665 C963 1.487 . S
C1697 C839 1.665 . S
C1689 C50 1.609 . S
C1721 C64 1.525 . S
C1729 C919 1.520 . S
C1753 C97 1.593 . S
C1761 C1229 1.587 . S
C1785 C111 1.429 . S
C1793 C1273 1.460 . S
C1825 C1353 1.580 . S
C1817 C120 1.595 . S
C1849 C125 1.547 . S
C1857 C299 1.528 . S
C1881 C92 1.700 . S
C1889 C343 1.743 . S
C1913 C106 1.518 . S
C1921 C423 1.528 . S
C1945 C139 1.545 . S
C1953 C361 1.611 . S
C1977 C153 1.446 . S
C1985 C405 1.419 . S
C2017 C281 1.598 . S
C2009 C162 1.582 . S
C2049 C1335 1.573 . S
C2041 C167 1.492 . S
C2081 C1211 1.703 . S
C2073 C134 1.676 . S
C2113 C1291 1.544 . S
C2105 C148 1.552 . S
C2137 C181 1.570 . S
C2145 C485 1.579 . S
C2169 C195 1.436 . S
C2177 C547 1.411 . S
C2201 C204 1.568 . S
C2209 C591 1.611 . S
C2233 C209 1.554 . S
C2241 C653 1.570 . S
C2273 C715 1.748 . S
C2265 C176 1.711 . S
C2305 C795 1.552 . S
C2297 C190 1.499 . S
C2337 C733 1.624 . S
C2329 C223 1.575 . S
C2369 C777 1.454 . S
C2361 C237 1.402 . S
C2393 C246 1.550 . S
C2401 C671 1.593 . S
C2433 C609 1.566 . S
C2425 C251 1.462 . S
C2457 C218 1.681 . S
C2465 C467 1.710 . S
C2497 C529 1.536 . S
C2489 C232 1.543 . S
C2529 C305 1.350 . S
C2521 C11 1.389 . S
C2553 C25 1.297 . S
C2561 C349 1.286 . S
C2593 C429 1.321 . S
C2585 C35 1.371 . S
C2625 C491 1.351 . S
C2617 C39 1.434 1_556 S
C2657 C553 1.405 . S
C2649 C7 1.497 1_556 S
C2689 C597 1.316 . S
C2681 C21 1.393 1_556 S
C2713 C53 1.401 1_556 S
C2721 C615 1.375 . S
C2745 C67 1.298 . S
C2753 C473 1.263 . S
C2777 C77 1.348 . S
C2785 C535 1.301 . S
C2809 C81 1.437 . S
C2817 C367 1.382 . S
C2849 C411 1.410 . S
C2841 C49 1.479 . S
C2873 C63 1.391 . S
C2881 C287 1.301 . S
C2913 C659 1.363 . S
C2905 C95 1.384 . S
C2937 C109 1.351 . S
C2945 C721 1.281 . S
C2969 C119 1.431 1_655 S
C2977 C801 1.375 . S
C3009 C863 1.262 . S
C3001 C123 1.318 . S
C3033 C91 1.475 . S
C3041 C907 1.432 . S
C3065 C105 1.328 . S
C3073 C987 1.267 . S
C3097 C137 1.338 . S
C3105 C969 1.298 . S
C3129 C151 1.197 . S
C3137 C845 1.171 . S
C3169 C925 1.318 . S
C3161 C161 1.382 . S
C3193 C165 1.432 . S
C3201 C739 1.397 . S
C3225 C133 1.511 1_545 S
C3233 C783 1.419 . S
C3265 C677 1.357 . S
C3257 C147 1.433 1_655 S
C3297 C1031 1.314 . S
C3289 C179 1.357 . S
C3321 C193 1.209 . S
C3329 C1111 1.179 . S
C3353 C203 1.365 . S
C3361 C1173 1.305 . S
C3393 C1235 1.361 . S
C3385 C207 1.410 . S
C3425 C1279 1.453 . S
C3417 C175 1.508 1_565 S
C3449 C189 1.429 1_455 S
C3457 C1359 1.363 . S
C3481 C221 1.391 . S
C3489 C1341 1.346 . S
C3513 C235 1.326 . S
C3521 C1217 1.251 . S
C3553 C1297 1.357 . S
C3545 C245 1.412 1_455 S
C3585 C1093 1.270 . S
C3577 C249 1.298 . S
C3617 C1155 1.396 . S
C3609 C217 1.487 . S
C3641 C231 1.348 . S
C3649 C1049 1.286 . S
