# Generated by pormake.
# Topology pto, (3,4)-cn, num edge types: 1
# Building blocks:
#     Node 0, Type 0, BuildingBlock: BETDAH_clean_linker_0, # of connection points: 3
#     Node 1, Type 0, BuildingBlock: BETDAH_clean_linker_0, # of connection points: 3
#     Node 2, Type 0, BuildingBlock: BETDAH_clean_linker_0, # of connection points: 3
#     Node 3, Type 0, BuildingBlock: BETDAH_clean_linker_0, # of connection points: 3
#     Node 4, Type 0, BuildingBlock: BETDAH_clean_linker_0, # of connection points: 3
#     Node 5, Type 0, BuildingBlock: BETDAH_clean_linker_0, # of connection points: 3
#     Node 6, Type 0, BuildingBlock: BETDAH_clean_linker_0, # of connection points: 3
#     Node 7, Type 0, BuildingBlock: BETDAH_clean_linker_0, # of connection points: 3
#     Node 8, Type 1, BuildingBlock: KOZSID_clean_sbu_0, # of connection points: 4
#     Node 9, Type 1, BuildingBlock: KOZSID_clean_sbu_0, # of connection points: 4
#     Node 10, Type 1, BuildingBlock: KOZSID_clean_sbu_0, # of connection points: 4
#     Node 11, Type 1, BuildingBlock: KOZSID_clean_sbu_0, # of connection points: 4
#     Node 12, Type 1, BuildingBlock: KOZSID_clean_sbu_0, # of connection points: 4
#     Node 13, Type 1, BuildingBlock: KOZSID_clean_sbu_0, # of connection points: 4
#     Edge 14, Type (0, 1), BuildingBlock: ZUJKAS_clean_linker_0, # of connection points: 2
#     Edge 15, Type (0, 1), BuildingBlock: ZUJKAS_clean_linker_0, # of connection points: 2
#     Edge 16, Type (0, 1), BuildingBlock: ZUJKAS_clean_linker_0, # of connection points: 2
#     Edge 17, Type (0, 1), BuildingBlock: ZUJKAS_clean_linker_0, # of connection points: 2
#     Edge 18, Type (0, 1), BuildingBlock: ZUJKAS_clean_linker_0, # of connection points: 2
#     Edge 19, Type (0, 1), BuildingBlock: ZUJKAS_clean_linker_0, # of connection points: 2
#     Edge 20, Type (0, 1), BuildingBlock: ZUJKAS_clean_linker_0, # of connection points: 2
#     Edge 21, Type (0, 1), BuildingBlock: ZUJKAS_clean_linker_0, # of connection points: 2
#     Edge 22, Type (0, 1), BuildingBlock: ZUJKAS_clean_linker_0, # of connection points: 2
#     Edge 23, Type (0, 1), BuildingBlock: ZUJKAS_clean_linker_0, # of connection points: 2
#     Edge 24, Type (0, 1), BuildingBlock: ZUJKAS_clean_linker_0, # of connection points: 2
#     Edge 25, Type (0, 1), BuildingBlock: ZUJKAS_clean_linker_0, # of connection points: 2
#     Edge 26, Type (0, 1), BuildingBlock: ZUJKAS_clean_linker_0, # of connection points: 2
#     Edge 27, Type (0, 1), BuildingBlock: ZUJKAS_clean_linker_0, # of connection points: 2
#     Edge 28, Type (0, 1), BuildingBlock: ZUJKAS_clean_linker_0, # of connection points: 2
#     Edge 29, Type (0, 1), BuildingBlock: ZUJKAS_clean_linker_0, # of connection points: 2
#     Edge 30, Type (0, 1), BuildingBlock: ZUJKAS_clean_linker_0, # of connection points: 2
#     Edge 31, Type (0, 1), BuildingBlock: ZUJKAS_clean_linker_0, # of connection points: 2
#     Edge 32, Type (0, 1), BuildingBlock: ZUJKAS_clean_linker_0, # of connection points: 2
#     Edge 33, Type (0, 1), BuildingBlock: ZUJKAS_clean_linker_0, # of connection points: 2
#     Edge 34, Type (0, 1), BuildingBlock: ZUJKAS_clean_linker_0, # of connection points: 2
#     Edge 35, Type (0, 1), BuildingBlock: ZUJKAS_clean_linker_0, # of connection points: 2
#     Edge 36, Type (0, 1), BuildingBlock: ZUJKAS_clean_linker_0, # of connection points: 2
#     Edge 37, Type (0, 1), BuildingBlock: ZUJKAS_clean_linker_0, # of connection points: 2
# Relax obj value: 0.010
# Max RMSD: 0.122
# Mean RMSD: 0.061
data_MOF--net-pto--node1-KOZSID_clean_sbu_0--node2-BETDAH_clean_linker_0--edge1-ZUJKAS_clean_linker_0
_symmetry_space_group_name_H-M    P1
_symmetry_Int_Tables_number       1
_symmetry_cell_setting            triclinic
loop_
_symmetry_equiv_pos_as_xyz
'x, y, z'
_cell_length_a     49.109538
_cell_length_b     63.988552
_cell_length_c     57.378463
_cell_angle_alpha  102.69033
_cell_angle_beta   94.326938
_cell_angle_gamma 102.65842
loop_
_atom_site_label
_atom_site_type_symbol
_atom_site_fract_x
_atom_site_fract_y
_atom_site_fract_z
_atom_type_partial_charge
H0 H 0.32776 0.22608 0.40229 0.0
H1 H 0.30439 0.28766 0.40601 0.0
H2 H 0.28398 0.25175 0.45994 0.0
C3 C 0.31799 0.23875 0.41121 0.0
C4 C 0.30594 0.2366 0.43224 0.0
C5 C 0.31769 0.25716 0.40163 0.0
C6 C 0.30455 0.27335 0.41313 0.0
C7 C 0.29257 0.2714 0.43431 0.0
C8 C 0.29358 0.25319 0.44378 0.0
N9 N 0.27962 0.28749 0.44683 0.0
C10 C 0.27126 0.30352 0.43718 0.0
H11 H 0.29643 0.73993 0.79403 0.0
H12 H 0.31863 0.80002 0.77019 0.0
H13 H 0.24271 0.75089 0.73759 0.0
C14 C 0.29197 0.75015 0.78216 0.0
C15 C 0.26742 0.74284 0.76554 0.0
C16 C 0.31057 0.7707 0.78395 0.0
C17 C 0.30449 0.78408 0.76874 0.0
C18 C 0.28005 0.77669 0.75175 0.0
C19 C 0.26178 0.75619 0.75034 0.0
N20 N 0.2725 0.78936 0.73603 0.0
C21 C 0.28914 0.80883 0.73285 0.0
H22 H 0.86882 0.75206 0.39976 0.0
H23 H 0.84322 0.77745 0.34009 0.0
H24 H 0.86919 0.71661 0.32695 0.0
C25 C 0.86535 0.75079 0.38057 0.0
C26 C 0.86998 0.73234 0.36444 0.0
C27 C 0.85558 0.76723 0.37204 0.0
C28 C 0.85024 0.76479 0.34697 0.0
C29 C 0.85514 0.74646 0.33076 0.0
C30 C 0.86513 0.73053 0.33961 0.0
N31 N 0.85105 0.74369 0.30543 0.0
C32 C 0.83382 0.75366 0.29355 0.0
H33 H 0.79803 0.2603 0.84924 0.0
H34 H 0.76899 0.23233 0.90728 0.0
H35 H 0.80836 0.30157 0.92095 0.0
C36 C 0.79496 0.26231 0.86805 0.0
C37 C 0.80431 0.28324 0.88393 0.0
C38 C 0.78234 0.24383 0.87628 0.0
C39 C 0.77848 0.24651 0.90071 0.0
C40 C 0.78765 0.26749 0.91674 0.0
C41 C 0.80077 0.2856 0.90832 0.0
N42 N 0.7852 0.27084 0.94166 0.0
C43 C 0.76305 0.25928 0.95099 0.0
H44 H 0.77778 0.72431 0.8271 0.0
H45 H 0.80936 0.72803 0.75985 0.0
H46 H 0.75541 0.76944 0.78757 0.0
C47 C 0.7792 0.73146 0.81164 0.0
C48 C 0.76448 0.74767 0.80948 0.0
C49 C 0.79571 0.72439 0.79397 0.0
C50 C 0.79714 0.73356 0.77389 0.0
C51 C 0.78291 0.74981 0.7715 0.0
C52 C 0.76652 0.75688 0.78933 0.0
N53 N 0.78543 0.7583 0.75069 0.0
C54 C 0.77781 0.7773 0.74771 0.0
H55 H 0.79593 0.28503 0.41025 0.0
H56 H 0.82156 0.26367 0.47289 0.0
H57 H 0.73777 0.23698 0.43549 0.0
C58 C 0.79139 0.27475 0.42284 0.0
C59 C 0.76462 0.26044 0.4201 0.0
C60 C 0.81216 0.27624 0.44187 0.0
C61 C 0.80591 0.26273 0.4581 0.0
C62 C 0.77903 0.24849 0.4556 0.0
C63 C 0.75858 0.24766 0.43686 0.0
N64 N 0.77112 0.23569 0.47236 0.0
C65 C 0.78887 0.22592 0.48396 0.0
H66 H 0.29372 0.23452 0.8397 0.0
H67 H 0.28798 0.29852 0.87888 0.0
H68 H 0.25717 0.27599 0.80332 0.0
C69 C 0.28722 0.24973 0.84017 0.0
C70 C 0.27473 0.25319 0.81892 0.0
C71 C 0.29195 0.26589 0.86193 0.0
C72 C 0.28396 0.28567 0.86231 0.0
C73 C 0.27118 0.28935 0.84146 0.0
C74 C 0.26658 0.27309 0.81964 0.0
N75 N 0.26443 0.31003 0.84315 0.0
C76 C 0.24478 0.3144 0.82735 0.0
H77 H 0.27225 0.75234 0.33718 0.0
H78 H 0.30266 0.77498 0.27632 0.0
H79 H 0.25339 0.70854 0.26657 0.0
C80 C 0.27427 0.74922 0.31813 0.0
C81 C 0.2615 0.72831 0.30319 0.0
C82 C 0.28921 0.76623 0.30871 0.0
C83 C 0.29138 0.76201 0.28383 0.0
C84 C 0.27849 0.74107 0.26867 0.0
C85 C 0.26361 0.72448 0.27845 0.0
N86 N 0.27904 0.73615 0.24338 0.0
C87 C 0.29838 0.74768 0.23141 0.0
C88 C 0.10509 0.5528 0.4204 0.0
C89 C 0.12374 0.5683 0.43873 0.0
C90 C 0.11706 0.56331 0.45983 0.0
C91 C 0.09493 0.54505 0.45322 0.0
N92 N 0.08715 0.53794 0.42913 0.0
Co93 Co 0.05605 0.51186 0.41177 0.0
N94 N 0.04537 0.50517 0.44293 0.0
C95 C 0.05686 0.51693 0.46545 0.0
C96 C 0.04517 0.50835 0.4833 0.0
C97 C 0.02521 0.48985 0.47151 0.0
C98 C 0.02605 0.48812 0.44703 0.0
N99 N 0.02526 0.48552 0.3944 0.0
C100 C 0.00843 0.46994 0.40306 0.0
C101 C 0.99136 0.45343 0.38453 0.0
C102 C 0.99748 0.4588 0.36351 0.0
C103 C 0.01803 0.47805 0.37027 0.0
N104 N 0.06645 0.51873 0.3806 0.0
C105 C 0.05385 0.50772 0.35812 0.0
C106 C 0.06462 0.51683 0.3403 0.0
C107 C 0.08522 0.53489 0.35204 0.0
C108 C 0.08597 0.53566 0.37648 0.0
N109 N 0.08274 0.49252 0.41052 0.0
C110 C 0.11863 0.46349 0.4092 0.0
C111 C 0.10231 0.46382 0.38832 0.0
C112 C 0.08469 0.47833 0.38937 0.0
C113 C 0.11712 0.47833 0.43066 0.0
C114 C 0.09928 0.49261 0.43089 0.0
N115 N 0.02941 0.53132 0.41298 0.0
C116 C 0.99442 0.54482 0.39265 0.0
C117 C 0.99602 0.56204 0.41288 0.0
C118 C 0.0137 0.56296 0.43353 0.0
C119 C 0.02999 0.54756 0.4332 0.0
C120 C 0.01098 0.52972 0.39315 0.0
H121 H 0.04325 0.5494 0.44942 0.0
H122 H 0.00895 0.5172 0.37705 0.0
H123 H 0.07268 0.4776 0.37287 0.0
H124 H 0.09895 0.50335 0.44784 0.0
C125 C 0.08002 0.53498 0.46923 0.0
C126 C 0.10495 0.5532 0.39506 0.0
C127 C 0.00866 0.46961 0.42847 0.0
C128 C 0.03174 0.48896 0.35433 0.0
H129 H 0.14025 0.58199 0.43704 0.0
H130 H 0.12683 0.57218 0.47787 0.0
H131 H 0.05098 0.5145 0.50257 0.0
H132 H 0.01191 0.47866 0.47997 0.0
H133 H 0.97643 0.43872 0.38591 0.0
H134 H 0.98855 0.44946 0.34541 0.0
H135 H 0.05801 0.51119 0.32108 0.0
H136 H 0.09794 0.54635 0.34351 0.0
H137 H 0.10308 0.45294 0.37115 0.0
H138 H 0.12911 0.4786 0.4474 0.0
H139 H 0.98116 0.54335 0.37612 0.0
H140 H 0.01522 0.57565 0.44988 0.0
C141 C 0.06464 0.54681 0.80407 0.0
C142 C 0.08398 0.5609 0.82296 0.0
C143 C 0.07577 0.55578 0.8436 0.0
C144 C 0.05214 0.53883 0.83617 0.0
N145 N 0.04483 0.53265 0.81199 0.0
Co146 Co 0.01234 0.50832 0.79348 0.0
N147 N 0.99933 0.50169 0.82401 0.0
C148 C 0.0109 0.51239 0.84685 0.0
C149 C 0.99765 0.50391 0.86409 0.0
C150 C 0.97642 0.48665 0.85157 0.0
C151 C 0.97791 0.48564 0.82727 0.0
N152 N 0.98017 0.48368 0.77497 0.0
C153 C 0.96092 0.46908 0.7829 0.0
C154 C 0.94249 0.45415 0.76398 0.0
C155 C 0.95065 0.45926 0.7433 0.0
C156 C 0.97344 0.47696 0.75075 0.0
N157 N 0.02507 0.51526 0.76298 0.0
C158 C 0.01284 0.50513 0.74017 0.0
C159 C 0.02556 0.51411 0.72299 0.0
C160 C 0.04707 0.53115 0.73553 0.0
C161 C 0.04631 0.5315 0.75976 0.0
N162 N 0.0364 0.48691 0.79224 0.0
C163 C 0.06928 0.45565 0.79087 0.0
C164 C 0.05395 0.45697 0.76993 0.0
C165 C 0.03783 0.47259 0.77101 0.0
C166 C 0.06797 0.47039 0.81246 0.0
C167 C 0.05162 0.48573 0.81273 0.0
N168 N 0.98824 0.5297 0.79473 0.0
C169 C 0.95342 0.54412 0.77541 0.0
C170 C 0.95465 0.5605 0.79635 0.0
C171 C 0.97291 0.56108 0.8165 0.0
C172 C 0.98932 0.54567 0.81531 0.0
C173 C 0.97024 0.52906 0.77499 0.0
H174 H 0.00287 0.54715 0.83126 0.0
H175 H 0.96831 0.5171 0.75845 0.0
H176 H 0.02663 0.47268 0.75443 0.0
H177 H 0.05146 0.49631 0.8298 0.0
C178 C 0.03552 0.52922 0.85152 0.0
C179 C 0.06556 0.54802 0.77905 0.0
C180 C 0.95951 0.46845 0.80802 0.0
C181 C 0.98913 0.48746 0.73547 0.0
H182 H 0.10196 0.57378 0.82196 0.0
H183 H 0.08556 0.56373 0.86187 0.0
H184 H 0.0033 0.50921 0.88344 0.0
H185 H 0.96197 0.47572 0.8595 0.0
H186 H 0.92509 0.44083 0.76503 0.0
H187 H 0.94127 0.45093 0.72501 0.0
H188 H 0.01961 0.50908 0.70366 0.0
H189 H 0.06141 0.54226 0.72772 0.0
H190 H 0.05452 0.44611 0.75268 0.0
H191 H 0.0791 0.46987 0.82928 0.0
H192 H 0.93933 0.54274 0.75938 0.0
H193 H 0.97498 0.57361 0.83308 0.0
C194 C 0.34279 0.9936 0.6042 0.0
C195 C 0.36948 0.99506 0.61533 0.0
C196 C 0.3878 0.01004 0.60685 0.0
C197 C 0.37134 0.01696 0.59122 0.0
N198 N 0.34354 0.00739 0.58924 0.0
Co199 Co 0.31217 0.01311 0.56893 0.0
N200 N 0.33931 0.0349 0.55625 0.0
C201 C 0.36772 0.04035 0.56101 0.0
C202 C 0.38066 0.05593 0.54981 0.0
C203 C 0.35923 0.06097 0.53735 0.0
C204 C 0.33437 0.04817 0.54182 0.0
N205 N 0.28076 0.01912 0.5489 0.0
C206 C 0.28141 0.0342 0.5355 0.0
C207 C 0.25462 0.03377 0.52544 0.0
C208 C 0.23635 0.01795 0.53285 0.0
C209 C 0.25292 0.00973 0.54704 0.0
N210 N 0.28505 0.99109 0.58141 0.0
C211 C 0.25675 0.98465 0.57542 0.0
C212 C 0.24381 0.96876 0.58623 0.0
C213 C 0.26507 0.9647 0.5999 0.0
C214 C 0.28988 0.97852 0.59675 0.0
N215 N 0.30854 0.03732 0.59598 0.0
C216 C 0.30231 0.07361 0.63142 0.0
C217 C 0.27919 0.05626 0.62051 0.0
C218 C 0.28274 0.03846 0.60299 0.0
C219 C 0.32877 0.07218 0.6248 0.0
C220 C 0.33143 0.05394 0.60733 0.0
N221 N 0.31571 0.98896 0.54163 0.0
C222 C 0.29399 0.95727 0.50888 0.0
C223 C 0.32018 0.95508 0.50228 0.0
C224 C 0.34418 0.97011 0.51575 0.0
C225 C 0.3415 0.98669 0.5353 0.0
C226 C 0.29225 0.97415 0.52834 0.0
H227 H 0.36059 0.99741 0.54502 0.0
H228 H 0.27163 0.97487 0.53215 0.0
H229 H 0.26417 0.02603 0.59508 0.0
H230 H 0.35214 0.05376 0.60306 0.0
C231 C 0.38147 0.03186 0.57759 0.0
C232 C 0.31751 0.97869 0.60827 0.0
C233 C 0.30665 0.04991 0.53277 0.0
C234 C 0.2429 0.99386 0.55961 0.0
H235 H 0.37515 0.98611 0.62816 0.0
H236 H 0.41045 0.01513 0.61138 0.0
H237 H 0.40296 0.06324 0.55112 0.0
H238 H 0.36157 0.07305 0.52661 0.0
H239 H 0.24881 0.04412 0.51429 0.0
H240 H 0.21363 0.01336 0.52886 0.0
H241 H 0.22158 0.96095 0.58427 0.0
H242 H 0.26255 0.95274 0.61077 0.0
H243 H 0.25822 0.05666 0.62494 0.0
H244 H 0.3474 0.08505 0.63309 0.0
H245 H 0.27474 0.94618 0.49882 0.0
H246 H 0.36498 0.96892 0.51147 0.0
C247 C 0.534 0.80628 0.09125 0.0
C248 C 0.53936 0.82442 0.11094 0.0
C249 C 0.56415 0.83835 0.10878 0.0
C250 C 0.57336 0.82757 0.08867 0.0
N251 N 0.55595 0.80779 0.07823 0.0
Co252 Co 0.56616 0.78454 0.05413 0.0
N253 N 0.59358 0.80657 0.04306 0.0
C254 C 0.60587 0.82723 0.05587 0.0
C255 C 0.62444 0.83864 0.04364 0.0
C256 C 0.62388 0.82408 0.02194 0.0
C257 C 0.60503 0.8045 0.02222 0.0
N258 N 0.57655 0.76132 0.03023 0.0
C259 C 0.58922 0.76286 0.01036 0.0
C260 C 0.5932 0.74247 0.99879 0.0
C261 C 0.58291 0.72789 0.01223 0.0
C262 C 0.57319 0.7401 0.03116 0.0
N263 N 0.53915 0.76243 0.06545 0.0
C264 C 0.54133 0.74166 0.06437 0.0
C265 C 0.52409 0.73147 0.07838 0.0
C266 C 0.51026 0.74688 0.08882 0.0
C267 C 0.51892 0.76537 0.07972 0.0
N268 N 0.53682 0.78614 0.03023 0.0
C269 C 0.4991 0.78836 0.99227 0.0
C270 C 0.50061 0.76797 0.99691 0.0
C271 C 0.51957 0.76722 0.01594 0.0
C272 C 0.5161 0.80765 0.00781 0.0
C273 C 0.53467 0.80618 0.02671 0.0
N274 N 0.5958 0.78299 0.07813 0.0
C275 C 0.61096 0.78196 0.11863 0.0
C276 C 0.63782 0.78078 0.11275 0.0
C277 C 0.64326 0.78085 0.08913 0.0
C278 C 0.62198 0.78193 0.0721 0.0
C279 C 0.59038 0.78302 0.10117 0.0
H280 H 0.62671 0.78185 0.05404 0.0
H281 H 0.57004 0.78392 0.10647 0.0
H282 H 0.52083 0.75132 0.01877 0.0
H283 H 0.54796 0.82124 0.03807 0.0
C284 C 0.59669 0.83591 0.07775 0.0
C285 C 0.51041 0.78641 0.08694 0.0
C286 C 0.60043 0.78369 0.00368 0.0
C287 C 0.55779 0.73194 0.04828 0.0
H288 H 0.52762 0.82696 0.12608 0.0
H289 H 0.57438 0.85423 0.12068 0.0
H290 H 0.63645 0.85563 0.04949 0.0
H291 H 0.63629 0.82739 0.00778 0.0
H292 H 0.60308 0.73866 0.98266 0.0
H293 H 0.5821 0.71041 0.00835 0.0
H294 H 0.52188 0.71492 0.08083 0.0
H295 H 0.49609 0.74484 0.10214 0.0
H296 H 0.48745 0.75264 0.98577 0.0
H297 H 0.51586 0.82378 0.00494 0.0
H298 H 0.60589 0.78234 0.13675 0.0
H299 H 0.66366 0.77978 0.08371 0.0
C300 C 0.82083 0.97813 0.65115 0.0
C301 C 0.84454 0.97486 0.66325 0.0
C302 C 0.86706 0.98994 0.65954 0.0
C303 C 0.85595 0.00142 0.64532 0.0
N304 N 0.82763 0.99467 0.63975 0.0
Co305 Co 0.80321 0.00617 0.61847 0.0
N306 N 0.83631 0.02899 0.61389 0.0
C307 C 0.86344 0.03242 0.62341 0.0
C308 C 0.88131 0.04976 0.61781 0.0
C309 C 0.86457 0.05814 0.60412 0.0
C310 C 0.83735 0.04536 0.60221 0.0
N311 N 0.77891 0.01731 0.59669 0.0
C312 C 0.78554 0.0344 0.58606 0.0
C313 C 0.76214 0.03665 0.57254 0.0
C314 C 0.73996 0.02046 0.57474 0.0
C315 C 0.75097 0.00931 0.58943 0.0
N316 N 0.76996 0.98384 0.62367 0.0
C317 C 0.74275 0.98081 0.6146 0.0
C318 C 0.72446 0.9648 0.62192 0.0
C319 C 0.74094 0.95708 0.63657 0.0
C320 C 0.76848 0.96879 0.63718 0.0
N321 N 0.79697 0.0278 0.64689 0.0
C322 C 0.78828 0.05894 0.68698 0.0
C323 C 0.76631 0.04759 0.66861 0.0
C324 C 0.77105 0.0322 0.64894 0.0
C325 C 0.81464 0.0543 0.68501 0.0
C326 C 0.81851 0.03885 0.66496 0.0
N327 N 0.80943 0.98438 0.59 0.0
C328 C 0.7909 0.95385 0.55519 0.0
C329 C 0.81798 0.9518 0.55106 0.0
C330 C 0.84073 0.96671 0.56648 0.0
C331 C 0.83603 0.98269 0.58562 0.0
C332 C 0.78716 0.97014 0.57447 0.0
H333 H 0.85429 0.99337 0.59669 0.0
H334 H 0.76598 0.97065 0.57657 0.0
H335 H 0.75343 0.02411 0.63559 0.0
H336 H 0.83916 0.03624 0.66438 0.0
C337 C 0.87144 0.01908 0.63757 0.0
C338 C 0.79244 0.96488 0.65074 0.0
C339 C 0.81323 0.04956 0.58921 0.0
C340 C 0.73516 0.99272 0.59855 0.0
H341 H 0.84552 0.96277 0.67364 0.0
H342 H 0.88893 0.99229 0.66644 0.0
H343 H 0.90379 0.0557 0.62318 0.0
H344 H 0.87157 0.07214 0.59651 0.0
H345 H 0.76101 0.04904 0.56261 0.0
H346 H 0.71822 0.01764 0.5672 0.0
H347 H 0.70187 0.95928 0.61706 0.0
H348 H 0.7335 0.94422 0.64569 0.0
H349 H 0.74542 0.05044 0.66945 0.0
H350 H 0.83243 0.06288 0.69863 0.0
H351 H 0.77249 0.94262 0.54396 0.0
H352 H 0.86218 0.96616 0.56381 0.0
C353 C 0.4728 0.27581 0.18417 0.0
C354 C 0.47129 0.29711 0.19494 0.0
C355 C 0.49083 0.31103 0.18619 0.0
C356 C 0.50312 0.29751 0.17067 0.0
N357 N 0.49241 0.27574 0.16876 0.0
Co358 Co 0.50463 0.25035 0.14871 0.0
N359 N 0.53576 0.2709 0.13825 0.0
C360 C 0.54276 0.29324 0.14513 0.0
C361 C 0.56547 0.30283 0.13541 0.0
C362 C 0.57345 0.28563 0.1214 0.0
C363 C 0.55493 0.26645 0.12328 0.0
N364 N 0.51641 0.22495 0.12822 0.0
C365 C 0.537 0.22486 0.11374 0.0
C366 C 0.5373 0.20354 0.10184 0.0
C367 C 0.51622 0.18965 0.10909 0.0
C368 C 0.50419 0.2032 0.12482 0.0
N369 N 0.47402 0.22982 0.1597 0.0
C370 C 0.46722 0.20749 0.15319 0.0
C371 C 0.44595 0.19792 0.16444 0.0
C372 C 0.43904 0.21516 0.17939 0.0
C373 C 0.45662 0.2343 0.17637 0.0
N374 N 0.47839 0.25064 0.12066 0.0
C375 C 0.44302 0.2509 0.07962 0.0
C376 C 0.44183 0.23152 0.08736 0.0
C377 C 0.45954 0.23176 0.10772 0.0
C378 C 0.46191 0.2702 0.09304 0.0
C379 C 0.47911 0.26971 0.11331 0.0
N380 N 0.53082 0.25008 0.17665 0.0
C381 C 0.55179 0.23011 0.20134 0.0
C382 C 0.5673 0.24985 0.21688 0.0
C383 C 0.56435 0.26968 0.21185 0.0
C384 C 0.54624 0.26942 0.19179 0.0
C385 C 0.53373 0.2306 0.18154 0.0
H386 H 0.54505 0.28509 0.18893 0.0
H387 H 0.52222 0.21502 0.17052 0.0
H388 H 0.45764 0.21641 0.11248 0.0
H389 H 0.49303 0.28499 0.12253 0.0
C390 C 0.52673 0.30475 0.15978 0.0
C391 C 0.45655 0.25626 0.1903 0.0
C392 C 0.55622 0.24446 0.1102 0.0
C393 C 0.4817 0.19598 0.13691 0.0
H394 H 0.45808 0.30213 0.20831 0.0
H395 H 0.49624 0.3289 0.19131 0.0
H396 H 0.57486 0.32027 0.13795 0.0
H397 H 0.59081 0.28706 0.11083 0.0
H398 H 0.55116 0.19852 0.08908 0.0
H399 H 0.51028 0.1718 0.10348 0.0
H400 H 0.43692 0.18049 0.16236 0.0
H401 H 0.42316 0.21382 0.19144 0.0
H402 H 0.42724 0.21618 0.07783 0.0
H403 H 0.46397 0.28562 0.08768 0.0
H404 H 0.5532 0.21433 0.20464 0.0
H405 H 0.57624 0.2854 0.22318 0.0
H406 H 0.22677 0.29629 0.40368 0.0
H407 H 0.2032 0.32412 0.39421 0.0
H408 H 0.26592 0.37542 0.44436 0.0
H409 H 0.28957 0.34758 0.45363 0.0
H410 H 0.18125 0.35113 0.4292 0.0
H411 H 0.25876 0.40162 0.38554 0.0
H412 H 0.26042 0.37427 0.38809 0.0
H413 H 0.27281 0.39751 0.41355 0.0
C414 C 0.2358 0.31359 0.41216 0.0
C415 C 0.25994 0.32002 0.42915 0.0
C416 C 0.22236 0.32942 0.40683 0.0
C417 C 0.233 0.35185 0.41838 0.0
C418 C 0.25771 0.35828 0.43486 0.0
H419 H 0.17138 0.47018 0.43341 0.0
H420 H 0.19901 0.44282 0.43462 0.0
C421 C 0.27112 0.34243 0.4402 0.0
C422 C 0.21669 0.36814 0.41512 0.0
H423 H 0.2201 0.41633 0.39784 0.0
C424 C 0.18961 0.36527 0.42211 0.0
C425 C 0.22781 0.38666 0.40611 0.0
C426 C 0.25645 0.39018 0.39768 0.0
C427 C 0.17353 0.38068 0.42082 0.0
C428 C 0.18461 0.39922 0.4118 0.0
C429 C 0.21166 0.40207 0.4047 0.0
C430 C 0.1685 0.41597 0.41 0.0
C431 C 0.14517 0.3773 0.42983 0.0
C432 C 0.14246 0.41002 0.39539 0.0
C433 C 0.12648 0.42551 0.39487 0.0
C434 C 0.13636 0.44735 0.40879 0.0
C435 C 0.16292 0.45342 0.42281 0.0
C436 C 0.17885 0.43787 0.42336 0.0
H437 H 0.14298 0.36563 0.44173 0.0
H438 H 0.14165 0.3932 0.43993 0.0
H439 H 0.1284 0.3703 0.41422 0.0
H440 H 0.13431 0.39327 0.38463 0.0
H441 H 0.10605 0.4202 0.38403 0.0
H442 H 0.24108 0.71039 0.72572 0.0
H443 H 0.20702 0.67575 0.72456 0.0
H444 H 0.21388 0.69303 0.80216 0.0
H445 H 0.24809 0.72749 0.80345 0.0
H446 H 0.21577 0.65033 0.78437 0.0
H447 H 0.12528 0.6691 0.73595 0.0
H448 H 0.15581 0.67034 0.72047 0.0
H449 H 0.15736 0.68977 0.74871 0.0
C450 C 0.23518 0.70682 0.7425 0.0
C451 C 0.24719 0.72165 0.76468 0.0
C452 C 0.21569 0.68708 0.74181 0.0
C453 C 0.20759 0.68199 0.76325 0.0
C454 C 0.21981 0.69665 0.7854 0.0
H455 H 0.06335 0.59098 0.78963 0.0
H456 H 0.09829 0.62273 0.78397 0.0
C457 C 0.23942 0.71629 0.78611 0.0
C458 C 0.18658 0.66133 0.76283 0.0
H459 H 0.11805 0.63355 0.74355 0.0
C460 C 0.19442 0.6466 0.77538 0.0
C461 C 0.15867 0.65665 0.75129 0.0
C462 C 0.14861 0.67236 0.73852 0.0
C463 C 0.17505 0.62742 0.77694 0.0
C464 C 0.14725 0.62258 0.76511 0.0
C465 C 0.13946 0.63721 0.75238 0.0
C466 C 0.12548 0.60316 0.76703 0.0
C467 C 0.18427 0.61296 0.79195 0.0
C468 C 0.12891 0.58164 0.75892 0.0
C469 C 0.1091 0.56358 0.76233 0.0
C470 C 0.08545 0.56682 0.77356 0.0
C471 C 0.0815 0.58823 0.7809 0.0
C472 C 0.10137 0.60627 0.77765 0.0
H473 H 0.20385 0.62172 0.80443 0.0
H474 H 0.16758 0.60719 0.80271 0.0
H475 H 0.1885 0.59824 0.77987 0.0
H476 H 0.14708 0.57884 0.75027 0.0
H477 H 0.11243 0.54714 0.75659 0.0
H478 H 0.91374 0.7375 0.39939 0.0
H479 H 0.93321 0.70837 0.4107 0.0
H480 H 0.86817 0.65887 0.36092 0.0
H481 H 0.84901 0.68784 0.34928 0.0
H482 H 0.91145 0.6725 0.42922 0.0
H483 H 0.93948 0.64456 0.3376 0.0
H484 H 0.92893 0.67007 0.34714 0.0
H485 H 0.90287 0.64423 0.33777 0.0
C486 C 0.90347 0.72039 0.39108 0.0
C487 C 0.88013 0.7149 0.37322 0.0
C488 C 0.91461 0.70379 0.3975 0.0
C489 C 0.90252 0.68149 0.38622 0.0
C490 C 0.87831 0.67599 0.36935 0.0
H491 H 0.94269 0.55702 0.39059 0.0
H492 H 0.91915 0.58611 0.38596 0.0
C493 C 0.86735 0.69253 0.36277 0.0
C494 C 0.91568 0.66397 0.39143 0.0
H495 H 0.94403 0.62197 0.36468 0.0
C496 C 0.91868 0.6615 0.41515 0.0
C497 C 0.92527 0.64972 0.37305 0.0
C498 C 0.92426 0.65237 0.34752 0.0
C499 C 0.93047 0.64483 0.42085 0.0
C500 C 0.93959 0.63041 0.40238 0.0
C501 C 0.93673 0.63295 0.37874 0.0
C502 C 0.9528 0.61282 0.40713 0.0
C503 C 0.93272 0.64248 0.44647 0.0
C504 C 0.97948 0.61826 0.42061 0.0
C505 C 0.99317 0.60172 0.42305 0.0
C506 C 0.98041 0.5794 0.412 0.0
C507 C 0.95331 0.57402 0.39903 0.0
C508 C 0.93973 0.5906 0.39651 0.0
H509 H 0.91962 0.65182 0.45748 0.0
H510 H 0.92621 0.62484 0.44692 0.0
H511 H 0.95497 0.64894 0.45487 0.0
H512 H 0.99013 0.63537 0.42856 0.0
H513 H 0.01419 0.60653 0.43281 0.0
H514 H 0.79551 0.32486 0.89418 0.0
H515 H 0.81889 0.35659 0.87963 0.0
H516 H 0.86848 0.3169 0.8398 0.0
H517 H 0.84511 0.28514 0.85411 0.0
H518 H 0.87477 0.37745 0.88623 0.0
H519 H 0.83759 0.34352 0.78875 0.0
H520 H 0.82218 0.33107 0.81153 0.0
H521 H 0.85457 0.32587 0.80178 0.0
C522 C 0.8114 0.32293 0.88231 0.0
C523 C 0.81835 0.30249 0.87514 0.0
C524 C 0.82464 0.34102 0.87395 0.0
C525 C 0.84501 0.33898 0.85826 0.0
C526 C 0.85225 0.31867 0.85134 0.0
H527 H 0.96589 0.42657 0.80061 0.0
H528 H 0.93637 0.39525 0.8124 0.0
C529 C 0.83893 0.30056 0.85958 0.0
C530 C 0.85959 0.35831 0.84993 0.0
H531 H 0.87527 0.37605 0.79945 0.0
C532 C 0.87464 0.37724 0.86727 0.0
C533 C 0.85934 0.35799 0.82516 0.0
C534 C 0.84232 0.33861 0.80573 0.0
C535 C 0.89017 0.39562 0.86049 0.0
C536 C 0.8904 0.39508 0.83575 0.0
C537 C 0.87506 0.37631 0.8184 0.0
C538 C 0.90715 0.41365 0.82759 0.0
C539 C 0.9069 0.41524 0.87979 0.0
C540 C 0.90004 0.43412 0.83182 0.0
C541 C 0.91675 0.45188 0.825 0.0
C542 C 0.94075 0.44936 0.81397 0.0
C543 C 0.94744 0.42875 0.80918 0.0
C544 C 0.93067 0.41097 0.81587 0.0
H545 H 0.90864 0.41144 0.89775 0.0
H546 H 0.92841 0.42093 0.8752 0.0
H547 H 0.89638 0.42905 0.88106 0.0
H548 H 0.88174 0.43638 0.84056 0.0
H549 H 0.91124 0.46768 0.82866 0.0
H550 H 0.31704 0.23545 0.47935 0.0
H551 H 0.31619 0.20297 0.49548 0.0
H552 H 0.29409 0.16096 0.42359 0.0
H553 H 0.29468 0.19332 0.40731 0.0
H554 H 0.27081 0.16601 0.49084 0.0
H555 H 0.36226 0.14206 0.45061 0.0
H556 H 0.35534 0.16891 0.45245 0.0
H557 H 0.33556 0.14543 0.42953 0.0
C558 C 0.3119 0.21929 0.46698 0.0
C559 C 0.30602 0.21696 0.44204 0.0
C560 C 0.31154 0.20078 0.47621 0.0
C561 C 0.30545 0.17963 0.46069 0.0
C562 C 0.29943 0.1772 0.43581 0.0
H563 H 0.29409 0.04857 0.48534 0.0
H564 H 0.29215 0.07989 0.46742 0.0
C565 C 0.2998 0.1957 0.42655 0.0
C566 C 0.30472 0.16006 0.47064 0.0
H567 H 0.33586 0.11729 0.47047 0.0
C568 C 0.28506 0.15537 0.48645 0.0
C569 C 0.32328 0.14621 0.46478 0.0
C570 C 0.34549 0.15094 0.44858 0.0
C571 C 0.28328 0.13703 0.49641 0.0
C572 C 0.30199 0.12327 0.4907 0.0
C573 C 0.32151 0.12787 0.47475 0.0
C574 C 0.30214 0.10432 0.50153 0.0
C575 C 0.26111 0.13233 0.51265 0.0
C576 C 0.30858 0.10776 0.52655 0.0
C577 C 0.30959 0.08996 0.53669 0.0
C578 C 0.30427 0.06852 0.52195 0.0
C579 C 0.29795 0.06503 0.49695 0.0
C580 C 0.29693 0.08284 0.48678 0.0
H581 H 0.24388 0.14064 0.51001 0.0
H582 H 0.25189 0.11432 0.50942 0.0
H583 H 0.27088 0.1386 0.53171 0.0
H584 H 0.31327 0.12425 0.53817 0.0
H585 H 0.31481 0.09291 0.55601 0.0
H586 H 0.32648 0.80931 0.81885 0.0
H587 H 0.36267 0.81817 0.85392 0.0
H588 H 0.38594 0.75705 0.82654 0.0
H589 H 0.35 0.74821 0.79162 0.0
H590 H 0.36127 0.78967 0.88622 0.0
H591 H 0.46246 0.80268 0.84832 0.0
H592 H 0.43015 0.80494 0.8329 0.0
H593 H 0.43673 0.77825 0.83206 0.0
C594 C 0.33992 0.79813 0.82003 0.0
C595 C 0.33552 0.7781 0.80259 0.0
C596 C 0.36043 0.80313 0.84008 0.0
C597 C 0.37712 0.78834 0.84271 0.0
C598 C 0.37363 0.76886 0.82468 0.0
H599 H 0.48895 0.76073 0.94708 0.0
H600 H 0.45925 0.76262 0.9119 0.0
C601 C 0.35302 0.76377 0.80482 0.0
C602 C 0.39597 0.79185 0.86537 0.0
H603 H 0.46372 0.79519 0.88738 0.0
C604 C 0.38377 0.79126 0.88663 0.0
C605 C 0.42521 0.79371 0.86573 0.0
C606 C 0.43951 0.79514 0.84358 0.0
C607 C 0.39982 0.79144 0.90803 0.0
C608 C 0.42901 0.7928 0.90829 0.0
C609 C 0.44134 0.79408 0.88717 0.0
C610 C 0.44688 0.79186 0.92992 0.0
C611 C 0.38509 0.78909 0.92981 0.0
C612 C 0.44992 0.80773 0.95177 0.0
C613 C 0.46655 0.80648 0.97209 0.0
C614 C 0.48074 0.78947 0.9709 0.0
C615 C 0.47789 0.77378 0.94885 0.0
C616 C 0.46115 0.77497 0.92861 0.0
H617 H 0.36195 0.7827 0.92492 0.0
H618 H 0.39317 0.7778 0.9392 0.0
H619 H 0.38902 0.8055 0.94262 0.0
H620 H 0.43953 0.82115 0.95309 0.0
H621 H 0.46811 0.81878 0.98876 0.0
H622 H 0.88866 0.79084 0.41423 0.0
H623 H 0.8811 0.82259 0.44315 0.0
H624 H 0.80643 0.82102 0.39749 0.0
H625 H 0.81307 0.78858 0.36895 0.0
H626 H 0.87905 0.8635 0.43771 0.0
H627 H 0.77723 0.82183 0.46176 0.0
H628 H 0.79947 0.80676 0.44506 0.0
H629 H 0.77728 0.82007 0.43011 0.0
C630 C 0.87036 0.797 0.41048 0.0
C631 C 0.85131 0.78696 0.38934 0.0
C632 C 0.86621 0.81529 0.42695 0.0
C633 C 0.84296 0.82397 0.4227 0.0
C634 C 0.8242 0.81432 0.40141 0.0
H635 H 0.7886 0.93568 0.50557 0.0
H636 H 0.79482 0.90532 0.47372 0.0
C637 C 0.82824 0.79593 0.38495 0.0
C638 C 0.83868 0.8433 0.44047 0.0
H639 H 0.79272 0.86049 0.47782 0.0
C640 C 0.86018 0.86283 0.4465 0.0
C641 C 0.81405 0.8424 0.45193 0.0
C642 C 0.79078 0.82159 0.4471 0.0
C643 C 0.85767 0.8815 0.46358 0.0
C644 C 0.83313 0.88054 0.47508 0.0
C645 C 0.81147 0.86115 0.46887 0.0
C646 C 0.82987 0.89928 0.49416 0.0
C647 C 0.88118 0.90219 0.46909 0.0
C648 C 0.84739 0.90578 0.51625 0.0
C649 C 0.84371 0.92294 0.53459 0.0
C650 C 0.8224 0.93396 0.53121 0.0
C651 C 0.80497 0.92741 0.50894 0.0
C652 C 0.80859 0.91015 0.49066 0.0
H653 H 0.89541 0.90197 0.45492 0.0
H654 H 0.87263 0.91708 0.47089 0.0
H655 H 0.89386 0.90357 0.48645 0.0
H656 H 0.8636 0.8973 0.51946 0.0
H657 H 0.85716 0.9272 0.55163 0.0
H658 H 0.76674 0.24009 0.98802 0.0
H659 H 0.72984 0.23141 0.01348 0.0
H660 H 0.6722 0.25224 0.96812 0.0
H661 H 0.70897 0.26058 0.94256 0.0
H662 H 0.70601 0.26292 0.03851 0.0
H663 H 0.62284 0.1958 0.9784 0.0
H664 H 0.65848 0.20296 0.97148 0.0
H665 H 0.63408 0.21906 0.96574 0.0
C666 C 0.74589 0.24215 0.98318 0.0
C667 C 0.74033 0.25069 0.96334 0.0
C668 C 0.72492 0.23729 0.99772 0.0
C669 C 0.69816 0.24091 0.99254 0.0
C670 C 0.69244 0.2488 0.97214 0.0
H671 H 0.55435 0.25407 0.06638 0.0
H672 H 0.58915 0.25168 0.03789 0.0
C673 C 0.71341 0.25363 0.95761 0.0
C674 C 0.67736 0.2389 0.00986 0.0
H675 H 0.60932 0.21503 0.01472 0.0
C676 C 0.68499 0.25222 0.03342 0.0
C677 C 0.6499 0.22506 0.00311 0.0
C678 C 0.64087 0.20975 0.97837 0.0
C679 C 0.66564 0.25261 0.05019 0.0
C680 C 0.63805 0.23903 0.04334 0.0
C681 C 0.63051 0.22543 0.01991 0.0
C682 C 0.61648 0.23935 0.06004 0.0
C683 C 0.67459 0.26819 0.07482 0.0
C684 C 0.62015 0.23288 0.0817 0.0
C685 C 0.60041 0.23434 0.09794 0.0
C686 C 0.57667 0.24212 0.09262 0.0
C687 C 0.57263 0.24809 0.07075 0.0
C688 C 0.59238 0.24666 0.05453 0.0
H689 H 0.69415 0.28099 0.07534 0.0
H690 H 0.65775 0.27655 0.08047 0.0
H691 H 0.67868 0.25867 0.08815 0.0
H692 H 0.63839 0.22688 0.08611 0.0
H693 H 0.60375 0.22961 0.11474 0.0
H694 H 0.32207 0.81118 0.69774 0.0
H695 H 0.33509 0.8425 0.67923 0.0
H696 H 0.29562 0.88117 0.73159 0.0
H697 H 0.28287 0.8499 0.75018 0.0
H698 H 0.29365 0.85904 0.65924 0.0
H699 H 0.36824 0.9258 0.72793 0.0
H700 H 0.36132 0.89717 0.72918 0.0
H701 H 0.33688 0.91345 0.73891 0.0
C702 C 0.3171 0.82666 0.70573 0.0
C703 C 0.30188 0.82843 0.72546 0.0
C704 C 0.3244 0.84447 0.69513 0.0
C705 C 0.31658 0.86425 0.70417 0.0
C706 C 0.30243 0.86627 0.72464 0.0
H707 H 0.30101 0.9788 0.65258 0.0
H708 H 0.30272 0.95112 0.67603 0.0
C709 C 0.29512 0.84844 0.73522 0.0
C710 C 0.31983 0.88155 0.6904 0.0
H711 H 0.3475 0.9363 0.69463 0.0
C712 C 0.30572 0.87587 0.66686 0.0
C713 C 0.3353 0.90353 0.70051 0.0
C714 C 0.35152 0.91038 0.72545 0.0
C715 C 0.30605 0.89169 0.65333 0.0
C716 C 0.32143 0.91372 0.66343 0.0
C717 C 0.33578 0.91939 0.68692 0.0
C718 C 0.32218 0.93114 0.65002 0.0
C719 C 0.28906 0.88481 0.62866 0.0
C720 C 0.33308 0.92931 0.62792 0.0
C721 C 0.33187 0.94494 0.61451 0.0
C722 C 0.32003 0.96274 0.62313 0.0
C723 C 0.31006 0.96506 0.64561 0.0
C724 C 0.31113 0.94936 0.65898 0.0
H725 H 0.27297 0.86902 0.62616 0.0
H726 H 0.27827 0.89769 0.62556 0.0
H727 H 0.30334 0.88241 0.61475 0.0
H728 H 0.34219 0.91562 0.62091 0.0
H729 H 0.33983 0.943 0.59725 0.0
H730 H 0.77747 0.74029 0.28577 0.0
H731 H 0.7461 0.74885 0.25571 0.0
H732 H 0.81725 0.79204 0.23704 0.0
H733 H 0.84867 0.78317 0.26691 0.0
H734 H 0.73546 0.7888 0.24922 0.0
H735 H 0.78345 0.74764 0.17277 0.0
H736 H 0.79004 0.74434 0.20296 0.0
H737 H 0.80752 0.76915 0.19519 0.0
C738 C 0.78622 0.75187 0.27545 0.0
C739 C 0.81523 0.76117 0.27847 0.0
C740 C 0.76839 0.75671 0.25831 0.0
C741 C 0.77943 0.77079 0.24389 0.0
C742 C 0.80839 0.78083 0.24769 0.0
H743 H 0.69392 0.80199 0.12084 0.0
H744 H 0.72937 0.80105 0.15283 0.0
C745 C 0.82623 0.77594 0.26482 0.0
C746 C 0.76067 0.7742 0.22433 0.0
H747 H 0.74699 0.76409 0.16308 0.0
C748 C 0.73804 0.7835 0.2304 0.0
C749 C 0.76412 0.76725 0.19978 0.0
C750 C 0.78743 0.75637 0.19216 0.0
C751 C 0.71863 0.78594 0.21254 0.0
C752 C 0.72173 0.77855 0.188 0.0
C753 C 0.74473 0.76974 0.18193 0.0
C754 C 0.70055 0.77886 0.16837 0.0
C755 C 0.69498 0.79642 0.2201 0.0
C756 C 0.67286 0.76623 0.16617 0.0
C757 C 0.65269 0.76659 0.14788 0.0
C758 C 0.65981 0.77955 0.13134 0.0
C759 C 0.6878 0.79174 0.13319 0.0
C760 C 0.70802 0.79133 0.15153 0.0
H761 H 0.69988 0.80652 0.23898 0.0
H762 H 0.69052 0.80706 0.2081 0.0
H763 H 0.67562 0.78326 0.2189 0.0
H764 H 0.66686 0.75603 0.1786 0.0
H765 H 0.63149 0.75663 0.14665 0.0
H766 H 0.79733 0.20658 0.88254 0.0
H767 H 0.79377 0.17257 0.85148 0.0
H768 H 0.74824 0.19742 0.80078 0.0
H769 H 0.75212 0.23151 0.83159 0.0
H770 H 0.74963 0.1398 0.82058 0.0
H771 H 0.81878 0.1891 0.76978 0.0
H772 H 0.81365 0.20012 0.80043 0.0
H773 H 0.78755 0.19842 0.7759 0.0
C774 C 0.78598 0.20452 0.86493 0.0
C775 C 0.77527 0.22173 0.85934 0.0
C776 C 0.78406 0.18516 0.84719 0.0
C777 C 0.77134 0.18275 0.82369 0.0
C778 C 0.75873 0.1992 0.81865 0.0
H779 H 0.75899 0.09054 0.6861 0.0
H780 H 0.75317 0.11924 0.72 0.0
C781 C 0.76085 0.21859 0.83626 0.0
C782 C 0.77307 0.1639 0.80402 0.0
H783 H 0.79892 0.15152 0.75041 0.0
C784 C 0.76045 0.14231 0.80525 0.0
C785 C 0.78745 0.16725 0.78417 0.0
C786 C 0.80288 0.18994 0.78252 0.0
C787 C 0.76124 0.124 0.78679 0.0
C788 C 0.77524 0.12744 0.7668 0.0
C789 C 0.78802 0.14899 0.76569 0.0
C790 C 0.7771 0.10897 0.74676 0.0
C791 C 0.74667 0.10116 0.78853 0.0
C792 C 0.79255 0.09374 0.7506 0.0
C793 C 0.79593 0.07731 0.73125 0.0
C794 C 0.78391 0.07585 0.70772 0.0
C795 C 0.76819 0.09102 0.70403 0.0
C796 C 0.76494 0.10748 0.72335 0.0
H797 H 0.73183 0.10165 0.80222 0.0
H798 H 0.73493 0.09124 0.77085 0.0
H799 H 0.76269 0.09264 0.79379 0.0
H800 H 0.8025 0.09485 0.76848 0.0
H801 H 0.80799 0.06577 0.7347 0.0
H802 H 0.298 0.2699 0.3622 0.0
H803 H 0.31995 0.27132 0.32534 0.0
H804 H 0.39027 0.25097 0.35509 0.0
H805 H 0.3687 0.24966 0.39188 0.0
H806 H 0.37425 0.29536 0.31855 0.0
H807 H 0.36148 0.20471 0.29062 0.0
H808 H 0.34264 0.21743 0.31331 0.0
H809 H 0.37871 0.21703 0.32081 0.0
C810 C 0.31827 0.26594 0.36095 0.0
C811 C 0.33145 0.25937 0.37981 0.0
C812 C 0.33071 0.26668 0.33988 0.0
C813 C 0.35644 0.26082 0.33734 0.0
C814 C 0.37008 0.25505 0.35647 0.0
H815 H 0.47208 0.24807 0.23303 0.0
H816 H 0.44676 0.25026 0.26846 0.0
C817 C 0.3577 0.25428 0.37746 0.0
C818 C 0.36908 0.26044 0.31467 0.0
H819 H 0.39145 0.2264 0.26957 0.0
C820 C 0.37779 0.28028 0.30766 0.0
C821 C 0.37354 0.2407 0.30052 0.0
C822 C 0.36338 0.21871 0.30652 0.0
C823 C 0.39189 0.28104 0.28732 0.0
C824 C 0.39698 0.26138 0.27355 0.0
C825 C 0.38767 0.24147 0.28027 0.0
C826 C 0.41263 0.26107 0.25244 0.0
C827 C 0.40208 0.30296 0.2812 0.0
C828 C 0.40173 0.26633 0.23171 0.0
C829 C 0.41617 0.26506 0.21154 0.0
C830 C 0.44163 0.25853 0.21189 0.0
C831 C 0.45252 0.25328 0.23257 0.0
C832 C 0.4381 0.25451 0.25269 0.0
H833 H 0.40188 0.31706 0.29639 0.0
H834 H 0.42377 0.30481 0.27627 0.0
H835 H 0.38811 0.30378 0.26547 0.0
H836 H 0.38184 0.271 0.23099 0.0
H837 H 0.40736 0.26892 0.19557 0.0
H838 H 0.84986 0.72488 0.78568 0.0
H839 H 0.87531 0.69632 0.78756 0.0
H840 H 0.8033 0.65733 0.80987 0.0
H841 H 0.77741 0.68569 0.80757 0.0
H842 H 0.88813 0.67852 0.82732 0.0
H843 H 0.82119 0.61506 0.7502 0.0
H844 H 0.82099 0.64392 0.75575 0.0
H845 H 0.80281 0.62697 0.77361 0.0
C846 C 0.83936 0.71017 0.79085 0.0
C847 C 0.81153 0.70746 0.79628 0.0
C848 C 0.85399 0.69394 0.79205 0.0
C849 C 0.84107 0.67461 0.79856 0.0
C850 C 0.81351 0.67201 0.80449 0.0
H851 H 0.9272 0.57724 0.83334 0.0
H852 H 0.89942 0.60481 0.83467 0.0
C853 C 0.79885 0.6883 0.80338 0.0
C854 C 0.85654 0.65721 0.79895 0.0
H855 H 0.85715 0.60438 0.771 0.0
C856 C 0.88132 0.66227 0.8151 0.0
C857 C 0.84774 0.63614 0.78277 0.0
C858 C 0.82186 0.63014 0.76443 0.0
C859 C 0.89756 0.64678 0.81553 0.0
C860 C 0.88859 0.62562 0.79953 0.0
C861 C 0.86384 0.62057 0.78335 0.0
C862 C 0.90515 0.60875 0.79874 0.0
C863 C 0.92454 0.65334 0.83266 0.0
C864 C 0.91714 0.60155 0.77794 0.0
C865 C 0.93312 0.58588 0.77714 0.0
C866 C 0.93728 0.57696 0.7971 0.0
C867 C 0.92487 0.58403 0.81781 0.0
C868 C 0.90893 0.59975 0.8186 0.0
H869 H 0.93147 0.67151 0.83999 0.0
H870 H 0.92124 0.64552 0.848 0.0
H871 H 0.94166 0.64755 0.82356 0.0
H872 H 0.91445 0.6083 0.76241 0.0
H873 H 0.94264 0.58104 0.76101 0.0
H874 H 0.844 0.28714 0.40718 0.0
H875 H 0.88308 0.3191 0.41158 0.0
H876 H 0.88227 0.33505 0.48856 0.0
H877 H 0.84171 0.30375 0.48407 0.0
H878 H 0.88295 0.37001 0.47293 0.0
H879 H 0.96494 0.33348 0.43228 0.0
H880 H 0.93333 0.32453 0.41138 0.0
H881 H 0.93377 0.31678 0.4398 0.0
C882 C 0.85223 0.29732 0.42511 0.0
C883 C 0.83943 0.293 0.44524 0.0
C884 C 0.87497 0.31545 0.42765 0.0
C885 C 0.88601 0.32942 0.45045 0.0
C886 C 0.87424 0.32448 0.47077 0.0
H887 H 0.02783 0.44015 0.44901 0.0
H888 H 0.99995 0.40718 0.45899 0.0
C889 C 0.85119 0.30644 0.46821 0.0
C890 C 0.90758 0.35034 0.45253 0.0
H891 H 0.96775 0.37169 0.43097 0.0
C892 C 0.90179 0.37033 0.46415 0.0
C893 C 0.93254 0.35093 0.44158 0.0
C894 C 0.94162 0.33023 0.43083 0.0
C895 C 0.9193 0.39079 0.46387 0.0
C896 C 0.94273 0.39133 0.45086 0.0
C897 C 0.94948 0.37138 0.44052 0.0
C898 C 0.95962 0.41222 0.44668 0.0
C899 C 0.91236 0.41157 0.47751 0.0
C900 C 0.94633 0.42609 0.43651 0.0
C901 C 0.9622 0.44506 0.43127 0.0
C902 C 0.99169 0.45018 0.43543 0.0
C903 C 0.00507 0.43645 0.44567 0.0
C904 C 0.98917 0.41764 0.45128 0.0
H905 H 0.90146 0.40862 0.49319 0.0
H906 H 0.93156 0.42519 0.48409 0.0
H907 H 0.8979 0.41686 0.46546 0.0
H908 H 0.92367 0.42199 0.43207 0.0
H909 H 0.95151 0.45547 0.42339 0.0
H910 H 0.18845 0.30155 0.82484 0.0
H911 H 0.15438 0.321 0.81186 0.0
H912 H 0.22158 0.36662 0.79155 0.0
H913 H 0.25546 0.34698 0.80422 0.0
H914 H 0.15737 0.36386 0.83371 0.0
H915 H 0.15959 0.35538 0.73577 0.0
H916 H 0.17281 0.3375 0.75173 0.0
H917 H 0.19405 0.36452 0.75275 0.0
C918 C 0.19565 0.31526 0.81679 0.0
C919 C 0.2243 0.32271 0.81514 0.0
C920 C 0.17628 0.32641 0.80951 0.0
C921 C 0.18536 0.34514 0.80048 0.0
C922 C 0.21395 0.35193 0.79789 0.0
H923 H 0.1212 0.46101 0.8157 0.0
H924 H 0.14775 0.43304 0.81683 0.0
C925 C 0.23329 0.34076 0.80517 0.0
C926 C 0.16585 0.35923 0.79687 0.0
H927 H 0.14065 0.38481 0.75655 0.0
C928 C 0.15343 0.3682 0.81674 0.0
C929 C 0.16059 0.36481 0.7747 0.0
C930 C 0.17223 0.35488 0.75245 0.0
C931 C 0.13675 0.38318 0.8153 0.0
C932 C 0.13266 0.38962 0.7935 0.0
C933 C 0.14413 0.38004 0.77333 0.0
C934 C 0.1171 0.40671 0.79168 0.0
C935 C 0.12375 0.39213 0.83719 0.0
C936 C 0.09141 0.4013 0.77667 0.0
C937 C 0.07605 0.41725 0.77608 0.0
C938 C 0.08622 0.43893 0.79041 0.0
C939 C 0.11243 0.44439 0.80484 0.0
C940 C 0.1277 0.42845 0.80545 0.0
H941 H 0.12298 0.38158 0.85026 0.0
H942 H 0.13658 0.40889 0.8464 0.0
H943 H 0.10206 0.39345 0.83198 0.0
H944 H 0.08292 0.3846 0.76588 0.0
H945 H 0.05585 0.41242 0.76492 0.0
H946 H 0.26382 0.68498 0.29407 0.0
H947 H 0.23774 0.65583 0.31109 0.0
H948 H 0.19781 0.70248 0.35263 0.0
H949 H 0.22348 0.73163 0.33549 0.0
H950 H 0.23763 0.65641 0.36262 0.0
H951 H 0.13198 0.64954 0.31486 0.0
H952 H 0.16422 0.66204 0.30482 0.0
H953 H 0.15155 0.67695 0.33032 0.0
C954 C 0.2493 0.68897 0.30667 0.0
C955 C 0.24565 0.71059 0.3134 0.0
C956 C 0.23457 0.67236 0.31647 0.0
C957 C 0.21572 0.677 0.33294 0.0
C958 C 0.21207 0.69854 0.33976 0.0
H959 H 0.09941 0.59543 0.40311 0.0
H960 H 0.12778 0.62625 0.38975 0.0
C961 C 0.22691 0.71519 0.3301 0.0
C962 C 0.2 0.65933 0.34314 0.0
H963 H 0.13395 0.62856 0.34374 0.0
C964 C 0.21497 0.65025 0.35849 0.0
C965 C 0.17046 0.65149 0.33779 0.0
C966 C 0.15351 0.66033 0.32091 0.0
C967 C 0.20108 0.63366 0.36892 0.0
C968 C 0.17153 0.62559 0.36334 0.0
C969 C 0.15659 0.63477 0.34804 0.0
C970 C 0.15564 0.60736 0.37278 0.0
C971 C 0.21814 0.62529 0.38621 0.0
C972 C 0.16191 0.58656 0.36773 0.0
C973 C 0.14591 0.5691 0.37553 0.0
C974 C 0.12315 0.57209 0.38818 0.0
C975 C 0.11698 0.59288 0.39343 0.0
C976 C 0.13308 0.61039 0.38576 0.0
H977 H 0.23836 0.63745 0.39406 0.0
H978 H 0.20628 0.62155 0.40113 0.0
H979 H 0.22314 0.60989 0.3764 0.0
H980 H 0.17877 0.58367 0.35727 0.0
H981 H 0.15086 0.55311 0.37124 0.0
H982 H 0.78895 0.81846 0.77672 0.0
H983 H 0.78635 0.85244 0.76416 0.0
H984 H 0.7548 0.81389 0.69167 0.0
H985 H 0.75692 0.78009 0.70436 0.0
H986 H 0.81594 0.86807 0.73104 0.0
H987 H 0.70234 0.85466 0.70138 0.0
H988 H 0.71566 0.83846 0.71956 0.0
H989 H 0.7159 0.83181 0.68742 0.0
C990 C 0.78079 0.81734 0.75829 0.0
C991 C 0.77278 0.79687 0.74149 0.0
C992 C 0.7794 0.83668 0.75111 0.0
C993 C 0.76995 0.8357 0.72705 0.0
C994 C 0.76141 0.81504 0.71044 0.0
H995 H 0.77773 0.9208 0.63022 0.0
H996 H 0.7714 0.89043 0.65068 0.0
C997 C 0.76273 0.79577 0.71764 0.0
C998 C 0.77154 0.85625 0.71865 0.0
H999 H 0.7337 0.88174 0.6864 0.0
C1000 C 0.79786 0.87126 0.72164 0.0
C1001 C 0.74795 0.86037 0.70633 0.0
C1002 C 0.71883 0.84557 0.70369 0.0
C1003 C 0.80148 0.88975 0.71174 0.0
C1004 C 0.77809 0.89342 0.69873 0.0
C1005 C 0.75162 0.87878 0.69629 0.0
C1006 C 0.781 0.91185 0.68663 0.0
C1007 C 0.83051 0.90473 0.71443 0.0
C1008 C 0.78814 0.93388 0.70011 0.0
C1009 C 0.79166 0.95115 0.68846 0.0
C1010 C 0.78809 0.9466 0.6632 0.0
C1011 C 0.78058 0.92459 0.64973 0.0
C1012 C 0.77694 0.90733 0.66137 0.0
H1013 H 0.84712 0.89738 0.72113 0.0
H1014 H 0.83522 0.90845 0.69694 0.0
H1015 H 0.83142 0.92058 0.72746 0.0
H1016 H 0.79103 0.93768 0.71962 0.0
H1017 H 0.79731 0.96806 0.69911 0.0
H1018 H 0.75232 0.29422 0.40232 0.0
H1019 H 0.71775 0.29151 0.36811 0.0
H1020 H 0.69307 0.22086 0.35797 0.0
H1021 H 0.72798 0.22331 0.39186 0.0
H1022 H 0.71499 0.26604 0.31944 0.0
H1023 H 0.61798 0.24105 0.36082 0.0
H1024 H 0.652 0.25362 0.37849 0.0
H1025 H 0.64358 0.22503 0.36266 0.0
C1026 C 0.73968 0.27807 0.39274 0.0
C1027 C 0.74296 0.25897 0.39982 0.0
C1028 C 0.71984 0.27658 0.37329 0.0
C1029 C 0.70271 0.25602 0.36071 0.0
C1030 C 0.70578 0.23692 0.36773 0.0
H1031 H 0.60431 0.22379 0.21928 0.0
H1032 H 0.63694 0.22469 0.2542 0.0
C1033 C 0.7257 0.23837 0.38713 0.0
C1034 C 0.68222 0.25453 0.33977 0.0
H1035 H 0.61194 0.24095 0.31944 0.0
C1036 C 0.69246 0.26056 0.3194 0.0
C1037 C 0.65287 0.24753 0.33992 0.0
C1038 C 0.64081 0.24159 0.36168 0.0
C1039 C 0.67407 0.25958 0.29903 0.0
C1040 C 0.64474 0.25222 0.29903 0.0
C1041 C 0.63448 0.2464 0.31948 0.0
C1042 C 0.62437 0.25105 0.27814 0.0
C1043 C 0.68608 0.26676 0.27782 0.0
C1044 C 0.60613 0.26524 0.28027 0.0
C1045 C 0.58746 0.26473 0.26042 0.0
C1046 C 0.58653 0.24987 0.23813 0.0
C1047 C 0.60443 0.23533 0.23624 0.0
C1048 C 0.62321 0.23594 0.25608 0.0
H1049 H 0.70847 0.27607 0.28251 0.0
H1050 H 0.68484 0.25196 0.26307 0.0
H1051 H 0.67377 0.27727 0.2709 0.0
H1052 H 0.60663 0.27693 0.29721 0.0
H1053 H 0.57366 0.27592 0.26253 0.0
H1054 H 0.25278 0.20884 0.81055 0.0
H1055 H 0.25508 0.18031 0.77499 0.0
H1056 H 0.29306 0.23062 0.74018 0.0
H1057 H 0.29095 0.25933 0.77585 0.0
H1058 H 0.23457 0.17391 0.72283 0.0
H1059 H 0.35097 0.19107 0.74513 0.0
H1060 H 0.32873 0.19999 0.76701 0.0
H1061 H 0.33607 0.21412 0.7436 0.0
C1062 C 0.26127 0.21382 0.79518 0.0
C1063 C 0.27188 0.23628 0.796 0.0
C1064 C 0.2625 0.19753 0.77489 0.0
C1065 C 0.27456 0.20339 0.75515 0.0
C1066 C 0.28389 0.22581 0.75537 0.0
H1067 H 0.32595 0.11723 0.63461 0.0
H1068 H 0.31843 0.14945 0.66308 0.0
C1069 C 0.28248 0.24216 0.77564 0.0
C1070 C 0.27891 0.18592 0.73513 0.0
H1071 H 0.32974 0.16207 0.7116 0.0
C1072 C 0.25536 0.17138 0.72021 0.0
C1073 C 0.30608 0.18274 0.73181 0.0
C1074 C 0.332 0.19767 0.74776 0.0
C1075 C 0.25825 0.15359 0.70204 0.0
C1076 C 0.28537 0.14994 0.69922 0.0
C1077 C 0.30897 0.16483 0.71382 0.0
C1078 C 0.2897 0.13039 0.68181 0.0
C1079 C 0.23224 0.13902 0.68594 0.0
C1080 C 0.27653 0.10896 0.68319 0.0
C1081 C 0.28077 0.09055 0.66695 0.0
C1082 C 0.2986 0.09318 0.64921 0.0
C1083 C 0.31228 0.11465 0.6482 0.0
C1084 C 0.30787 0.13308 0.66436 0.0
H1085 H 0.21516 0.14783 0.68525 0.0
H1086 H 0.23683 0.13312 0.6673 0.0
H1087 H 0.22433 0.12443 0.69319 0.0
H1088 H 0.26312 0.10644 0.69697 0.0
H1089 H 0.27031 0.07423 0.66845 0.0
H1090 H 0.31818 0.72291 0.19619 0.0
H1091 H 0.34935 0.73558 0.16808 0.0
H1092 H 0.35167 0.80321 0.20238 0.0
H1093 H 0.3205 0.79041 0.23081 0.0
H1094 H 0.34092 0.76198 0.13535 0.0
H1095 H 0.43546 0.80176 0.20351 0.0
H1096 H 0.40549 0.78267 0.20958 0.0
H1097 H 0.40365 0.81035 0.20945 0.0
C1098 C 0.32551 0.74048 0.19775 0.0
C1099 C 0.31734 0.75576 0.2156 0.0
C1100 C 0.34314 0.74769 0.18166 0.0
C1101 C 0.35296 0.77033 0.18322 0.0
C1102 C 0.34461 0.78568 0.20106 0.0
H1103 H 0.48711 0.82285 0.10446 0.0
H1104 H 0.44646 0.82194 0.12602 0.0
C1105 C 0.32686 0.77841 0.21722 0.0
C1106 C 0.37225 0.77751 0.16624 0.0
H1107 H 0.44087 0.80109 0.16318 0.0
C1108 C 0.36271 0.77078 0.14142 0.0
C1109 C 0.40058 0.78912 0.1742 0.0
C1110 C 0.41212 0.79633 0.2006 0.0
C1111 C 0.38099 0.77473 0.12432 0.0
C1112 C 0.40968 0.7853 0.13225 0.0
C1113 C 0.41886 0.793 0.15709 0.0
C1114 C 0.43133 0.78644 0.1155 0.0
C1115 C 0.36941 0.76729 0.09795 0.0
C1116 C 0.43547 0.76704 0.10092 0.0
C1117 C 0.45953 0.7675 0.08931 0.0
C1118 C 0.48109 0.78706 0.0934 0.0
C1119 C 0.4741 0.80691 0.10431 0.0
C1120 C 0.45002 0.80655 0.11597 0.0
H1121 H 0.34683 0.76748 0.09522 0.0
H1122 H 0.38126 0.7779 0.08732 0.0
H1123 H 0.37096 0.75006 0.09086 0.0
H1124 H 0.42092 0.75129 0.09949 0.0
H1125 H 0.46137 0.75218 0.07788 0.0
H1126 H 0.80259 0.2323 0.53179 0.0
H1127 H 0.81547 0.20531 0.55237 0.0
H1128 H 0.81471 0.16121 0.48347 0.0
H1129 H 0.80231 0.18833 0.46302 0.0
H1130 H 0.78091 0.16465 0.54728 0.0
H1131 H 0.88462 0.15513 0.52121 0.0
H1132 H 0.8708 0.17841 0.51791 0.0
H1133 H 0.85928 0.15245 0.49584 0.0
C1134 C 0.80617 0.21714 0.52116 0.0
C1135 C 0.80194 0.21236 0.49595 0.0
C1136 C 0.81337 0.20171 0.53287 0.0
C1137 C 0.81639 0.18132 0.51948 0.0
C1138 C 0.81321 0.17701 0.49421 0.0
H1139 H 0.81343 0.0523 0.5425 0.0
H1140 H 0.81634 0.08547 0.52687 0.0
C1141 C 0.80607 0.19245 0.48253 0.0
C1142 C 0.81926 0.16355 0.53168 0.0
H1143 H 0.85815 0.12616 0.53673 0.0
C1144 C 0.79804 0.15646 0.54528 0.0
C1145 C 0.84148 0.15275 0.52889 0.0
C1146 C 0.86548 0.1602 0.51536 0.0
C1147 C 0.79788 0.13841 0.55547 0.0
C1148 C 0.81983 0.12736 0.55234 0.0
C1149 C 0.84134 0.13466 0.53909 0.0
C1150 C 0.82013 0.10771 0.56199 0.0
C1151 C 0.77363 0.13079 0.56872 0.0
C1152 C 0.82189 0.10932 0.5869 0.0
C1153 C 0.82009 0.09044 0.59575 0.0
C1154 C 0.81666 0.06972 0.57983 0.0
C1155 C 0.81589 0.06817 0.555 0.0
C1156 C 0.81764 0.08705 0.54614 0.0
H1157 H 0.75546 0.13777 0.56481 0.0
H1158 H 0.76642 0.11249 0.56385 0.0
H1159 H 0.78061 0.13625 0.58841 0.0
H1160 H 0.82429 0.12515 0.59945 0.0
H1161 H 0.82094 0.09191 0.61498 0.0
H1162 H 0.3389 0.25005 0.86666 0.0
H1163 H 0.36284 0.24542 0.90356 0.0
H1164 H 0.3011 0.26972 0.9442 0.0
H1165 H 0.27685 0.27418 0.90734 0.0
H1166 H 0.38469 0.28068 0.9469 0.0
H1167 H 0.30506 0.21048 0.96279 0.0
H1168 H 0.30627 0.21691 0.93369 0.0
H1169 H 0.29197 0.23325 0.95698 0.0
C1170 C 0.33021 0.25412 0.8834 0.0
C1171 C 0.30596 0.26242 0.88412 0.0
C1172 C 0.34397 0.25157 0.90445 0.0
C1173 C 0.33354 0.25703 0.92649 0.0
C1174 C 0.30924 0.26516 0.92728 0.0
H1175 H 0.41669 0.28288 0.07193 0.0
H1176 H 0.39003 0.28398 0.03464 0.0
C1177 C 0.29557 0.26786 0.90627 0.0
C1178 C 0.34883 0.25515 0.94886 0.0
H1179 H 0.34342 0.22764 0.99367 0.0
C1180 C 0.37573 0.26906 0.95711 0.0
C1181 C 0.33708 0.23986 0.96199 0.0
C1182 C 0.30859 0.22411 0.95341 0.0
C1183 C 0.39106 0.26834 0.97844 0.0
C1184 C 0.37908 0.25339 0.99183 0.0
C1185 C 0.35238 0.23919 0.98339 0.0
C1186 C 0.39418 0.25225 0.01462 0.0
C1187 C 0.42006 0.28345 0.98646 0.0
C1188 C 0.40483 0.23384 0.01575 0.0
C1189 C 0.42034 0.23324 0.03695 0.0
C1190 C 0.42526 0.25098 0.05746 0.0
C1191 C 0.4138 0.26913 0.05637 0.0
C1192 C 0.39845 0.26976 0.03513 0.0
H1193 H 0.4283 0.29104 0.97196 0.0
H1194 H 0.41919 0.2969 0.00211 0.0
H1195 H 0.43503 0.27428 0.99227 0.0
H1196 H 0.40171 0.22018 1.00005 0.0
H1197 H 0.42911 0.21913 0.03703 0.0
H1198 H 0.31785 0.77639 0.35404 0.0
H1199 H 0.32875 0.81185 0.38364 0.0
H1200 H 0.29901 0.84225 0.32997 0.0
H1201 H 0.28687 0.80649 0.30044 0.0
H1202 H 0.36112 0.85367 0.38785 0.0
H1203 H 0.24724 0.85265 0.3811 0.0
H1204 H 0.25989 0.82911 0.36719 0.0
H1205 H 0.26229 0.85204 0.35347 0.0
C1206 C 0.31377 0.79065 0.34847 0.0
C1207 C 0.30092 0.78852 0.32503 0.0
C1208 C 0.32021 0.81095 0.36537 0.0
C1209 C 0.31407 0.82959 0.35919 0.0
C1210 C 0.30333 0.82795 0.33528 0.0
H1211 H 0.35324 0.95799 0.4661 0.0
H1212 H 0.35384 0.92886 0.43045 0.0
C1213 C 0.2967 0.80756 0.31834 0.0
C1214 C 0.31679 0.85002 0.37837 0.0
H1215 H 0.27796 0.88242 0.40899 0.0
C1216 C 0.34302 0.86013 0.39237 0.0
C1217 C 0.29302 0.85818 0.38444 0.0
C1218 C 0.26395 0.84738 0.37094 0.0
C1219 C 0.34603 0.87791 0.41255 0.0
C1220 C 0.32223 0.88601 0.4186 0.0
C1221 C 0.29618 0.87623 0.40426 0.0
C1222 C 0.32324 0.90362 0.4406 0.0
C1223 C 0.37434 0.88723 0.42777 0.0
C1224 C 0.30568 0.8992 0.45802 0.0
C1225 C 0.30513 0.9158 0.47821 0.0
C1226 C 0.32216 0.93723 0.48146 0.0
C1227 C 0.34014 0.94157 0.46423 0.0
C1228 C 0.34054 0.92494 0.44388 0.0
H1229 H 0.38863 0.87597 0.42394 0.0
H1230 H 0.38444 0.90315 0.42386 0.0
H1231 H 0.37202 0.89038 0.44725 0.0
H1232 H 0.29221 0.88286 0.4559 0.0
H1233 H 0.29131 0.91186 0.4913 0.0
H1234 H 0.71093 0.75325 0.80296 0.0
H1235 H 0.68102 0.76282 0.83405 0.0
H1236 H 0.74792 0.76683 0.88924 0.0
H1237 H 0.77798 0.75761 0.85838 0.0
H1238 H 0.6651 0.73841 0.86929 0.0
H1239 H 0.72289 0.82489 0.91173 0.0
H1240 H 0.72753 0.81053 0.88202 0.0
H1241 H 0.74469 0.80552 0.90833 0.0
C1242 C 0.71939 0.75653 0.82174 0.0
C1243 C 0.74681 0.75468 0.82823 0.0
C1244 C 0.70225 0.76188 0.83945 0.0
C1245 C 0.71237 0.76577 0.86394 0.0
C1246 C 0.73984 0.76423 0.87046 0.0
H1247 H 0.65607 0.78616 0.00268 0.0
H1248 H 0.68143 0.7826 0.96733 0.0
C1249 C 0.7569 0.75876 0.8528 0.0
C1250 C 0.69386 0.77028 0.88274 0.0
H1251 H 0.68903 0.80777 0.93377 0.0
C1252 C 0.67005 0.75368 0.88323 0.0
C1253 C 0.70045 0.7902 0.90088 0.0
C1254 C 0.72513 0.80891 0.90068 0.0
C1255 C 0.65336 0.75607 0.90203 0.0
C1256 C 0.66035 0.7758 0.92053 0.0
C1257 C 0.6837 0.79265 0.91961 0.0
C1258 C 0.64484 0.77875 0.94178 0.0
C1259 C 0.62918 0.73704 0.90251 0.0
C1260 C 0.61593 0.77809 0.9392 0.0
C1261 C 0.60147 0.78006 0.9594 0.0
C1262 C 0.61583 0.78304 0.9824 0.0
C1263 C 0.64476 0.78409 0.98504 0.0
C1264 C 0.65917 0.78205 0.96491 0.0
H1265 H 0.63062 0.7214 0.89017 0.0
H1266 H 0.62847 0.73448 0.921 0.0
H1267 H 0.60909 0.74078 0.89669 0.0
H1268 H 0.60456 0.77594 0.92159 0.0
H1269 H 0.5791 0.77911 0.95709 0.0
loop_
_geom_bond_atom_site_label_1
_geom_bond_atom_site_label_2
_geom_bond_distance
_geom_bond_site_symmetry_2
_ccdc_geom_bond_type
H0 C3 0.929 . S
H1 C6 0.929 . S
H2 C8 0.930 . S
C3 H0 0.929 . S
C3 C4 1.398 . S
C3 C5 1.396 . S
C4 C3 1.398 . S
C4 C8 1.407 . S
C5 C3 1.396 . S
C5 C6 1.394 . S
C6 H1 0.929 . S
C6 C5 1.394 . S
C6 C7 1.382 . S
C7 C6 1.382 . S
C7 C8 1.392 . S
C7 N9 1.420 . S
C8 H2 0.930 . S
C8 C4 1.407 . S
C8 C7 1.392 . S
N9 C7 1.420 . S
N9 C10 1.244 . S
C10 N9 1.244 . S
H11 C14 0.929 . S
H12 C17 0.929 . S
H13 C19 0.930 . S
C14 H11 0.929 . S
C14 C15 1.398 . S
C14 C16 1.396 . S
C15 C14 1.398 . S
C15 C19 1.407 . S
C16 C14 1.396 . S
C16 C17 1.394 . S
C17 H12 0.929 . S
C17 C16 1.394 . S
C17 C18 1.382 . S
C18 C17 1.382 . S
C18 C19 1.392 . S
C18 N20 1.420 . S
C19 H13 0.930 . S
C19 C15 1.407 . S
C19 C18 1.392 . S
N20 C18 1.420 . S
N20 C21 1.244 . S
C21 N20 1.244 . S
H22 C25 0.929 . S
H23 C28 0.929 . S
H24 C30 0.930 . S
C25 H22 0.929 . S
C25 C26 1.398 . S
C25 C27 1.396 . S
C26 C25 1.398 . S
C26 C30 1.407 . S
C27 C25 1.396 . S
C27 C28 1.394 . S
C28 H23 0.929 . S
C28 C27 1.394 . S
C28 C29 1.382 . S
C29 C28 1.382 . S
C29 C30 1.392 . S
C29 N31 1.420 . S
C30 H24 0.930 . S
C30 C26 1.407 . S
C30 C29 1.392 . S
N31 C29 1.420 . S
N31 C32 1.244 . S
C32 N31 1.244 . S
H33 C36 0.929 . S
H34 C39 0.929 . S
H35 C41 0.930 . S
C36 H33 0.929 . S
C36 C37 1.398 . S
C36 C38 1.396 . S
C37 C36 1.398 . S
C37 C41 1.407 . S
C38 C36 1.396 . S
C38 C39 1.394 . S
C39 H34 0.929 . S
C39 C38 1.394 . S
C39 C40 1.382 . S
C40 C39 1.382 . S
C40 C41 1.392 . S
C40 N42 1.420 . S
C41 H35 0.930 . S
C41 C37 1.407 . S
C41 C40 1.392 . S
N42 C40 1.420 . S
N42 C43 1.244 . S
C43 N42 1.244 . S
H44 C47 0.929 . S
H45 C50 0.929 . S
H46 C52 0.930 . S
C47 H44 0.929 . S
C47 C48 1.398 . S
C47 C49 1.396 . S
C48 C47 1.398 . S
C48 C52 1.407 . S
C49 C47 1.396 . S
C49 C50 1.394 . S
C50 H45 0.929 . S
C50 C49 1.394 . S
C50 C51 1.382 . S
C51 C50 1.382 . S
C51 C52 1.392 . S
C51 N53 1.420 . S
C52 H46 0.930 . S
C52 C48 1.407 . S
C52 C51 1.392 . S
N53 C51 1.420 . S
N53 C54 1.244 . S
C54 N53 1.244 . S
H55 C58 0.929 . S
H56 C61 0.929 . S
H57 C63 0.930 . S
C58 H55 0.929 . S
C58 C59 1.398 . S
C58 C60 1.396 . S
C59 C58 1.398 . S
C59 C63 1.407 . S
C60 C58 1.396 . S
C60 C61 1.394 . S
C61 H56 0.929 . S
C61 C60 1.394 . S
C61 C62 1.382 . S
C62 C61 1.382 . S
C62 C63 1.392 . S
C62 N64 1.420 . S
C63 H57 0.930 . S
C63 C59 1.407 . S
C63 C62 1.392 . S
N64 C62 1.420 . S
N64 C65 1.244 . S
C65 N64 1.244 . S
H66 C69 0.929 . S
H67 C72 0.929 . S
H68 C74 0.930 . S
C69 H66 0.929 . S
C69 C70 1.398 . S
C69 C71 1.396 . S
C70 C69 1.398 . S
C70 C74 1.407 . S
C71 C69 1.396 . S
C71 C72 1.394 . S
C72 H67 0.929 . S
C72 C71 1.394 . S
C72 C73 1.382 . S
C73 C72 1.382 . S
C73 C74 1.392 . S
C73 N75 1.420 . S
C74 H68 0.930 . S
C74 C70 1.407 . S
C74 C73 1.392 . S
N75 C73 1.420 . S
N75 C76 1.244 . S
C76 N75 1.244 . S
H77 C80 0.929 . S
H78 C83 0.929 . S
H79 C85 0.930 . S
C80 H77 0.929 . S
C80 C81 1.398 . S
C80 C82 1.396 . S
C81 C80 1.398 . S
C81 C85 1.407 . S
C82 C80 1.396 . S
C82 C83 1.394 . S
C83 H78 0.929 . S
C83 C82 1.394 . S
C83 C84 1.382 . S
C84 C83 1.382 . S
C84 C85 1.392 . S
C84 N86 1.420 . S
C85 H79 0.930 . S
C85 C81 1.407 . S
C85 C84 1.392 . S
N86 C84 1.420 . S
N86 C87 1.244 . S
C87 N86 1.244 . S
C88 C89 1.443 . S
C88 N92 1.376 . S
C88 C126 1.389 . S
C89 C88 1.443 . S
C89 C90 1.340 . S
C89 H129 0.951 . S
C90 C89 1.340 . S
C90 C91 1.439 . S
C90 H130 0.950 . S
C91 C90 1.439 . S
C91 N92 1.374 . S
C91 C125 1.395 . S
N92 C88 1.376 . S
N92 C91 1.374 . S
N92 Co93 2.008 . S
Co93 N92 2.008 . S
Co93 N94 1.995 . S
Co93 N99 2.008 . S
Co93 N104 1.995 . S
Co93 N109 2.282 . S
Co93 N115 2.282 . S
N94 Co93 1.995 . S
N94 C95 1.376 . S
N94 C98 1.383 . S
C95 N94 1.376 . S
C95 C96 1.446 . S
C95 C125 1.391 . S
C96 C95 1.446 . S
C96 C97 1.339 . S
C96 H131 0.949 . S
C97 C96 1.339 . S
C97 C98 1.439 . S
C97 H132 0.950 . S
C98 N94 1.383 . S
C98 C97 1.439 . S
C98 C127 1.392 . S
N99 Co93 2.008 . S
N99 C100 1.376 . S
N99 C103 1.374 . S
C100 N99 1.376 . S
C100 C101 1.447 . S
C100 C127 1.389 . S
C101 C100 1.447 . S
C101 C102 1.346 . S
C101 H133 0.944 1_455 S
C102 C101 1.346 . S
C102 C103 1.439 . S
C102 H134 0.950 . S
C103 N99 1.374 . S
C103 C102 1.439 . S
C103 C128 1.395 . S
N104 Co93 1.995 . S
N104 C105 1.376 . S
N104 C108 1.383 . S
C105 N104 1.376 . S
C105 C106 1.446 . S
C105 C128 1.391 . S
C106 C105 1.446 . S
C106 C107 1.339 . S
C106 H135 0.949 . S
C107 C106 1.339 . S
C107 C108 1.439 . S
C107 H136 0.950 . S
C108 N104 1.383 . S
C108 C107 1.439 . S
C108 C126 1.392 . S
N109 Co93 2.282 . S
N109 C112 1.332 . S
N109 C114 1.332 . S
C110 C111 1.386 . S
C110 C113 1.388 . S
C111 C110 1.386 . S
C111 C112 1.382 . S
C111 H137 0.950 . S
C112 N109 1.332 . S
C112 C111 1.382 . S
C112 H123 0.952 . S
C113 C110 1.388 . S
C113 C114 1.382 . S
C113 H138 0.950 . S
C114 N109 1.332 . S
C114 C113 1.382 . S
C114 H124 0.948 . S
N115 Co93 2.282 . S
N115 C119 1.332 . S
N115 C120 1.332 . S
C116 C117 1.388 1_455 S
C116 C120 1.382 . S
C116 H139 0.950 1_455 S
C117 C116 1.388 1_655 S
C117 C118 1.386 1_655 S
C118 C117 1.386 1_455 S
C118 C119 1.382 . S
C118 H140 0.950 . S
C119 N115 1.332 . S
C119 C118 1.382 . S
C119 H121 0.952 . S
C120 N115 1.332 . S
C120 C116 1.382 . S
C120 H122 0.948 . S
H121 C119 0.952 . S
H122 C120 0.948 . S
H123 C112 0.952 . S
H124 C114 0.948 . S
C125 C91 1.395 . S
C125 C95 1.391 . S
C126 C88 1.389 . S
C126 C108 1.392 . S
C127 C98 1.392 . S
C127 C100 1.389 . S
C128 C103 1.395 . S
C128 C105 1.391 . S
H129 C89 0.951 . S
H130 C90 0.950 . S
H131 C96 0.949 . S
H132 C97 0.950 . S
H133 C101 0.944 1_655 S
H134 C102 0.950 . S
H135 C106 0.949 . S
H136 C107 0.950 . S
H137 C111 0.950 . S
H138 C113 0.950 . S
H139 C116 0.950 1_655 S
H140 C118 0.950 . S
C141 C142 1.443 . S
C141 N145 1.376 . S
C141 C179 1.389 . S
C142 C141 1.443 . S
C142 C143 1.340 . S
C142 H182 0.951 . S
C143 C142 1.340 . S
C143 C144 1.439 . S
C143 H183 0.950 . S
C144 C143 1.439 . S
C144 N145 1.374 . S
C144 C178 1.395 . S
N145 C141 1.376 . S
N145 C144 1.374 . S
N145 Co146 2.008 . S
Co146 N145 2.008 . S
Co146 N147 1.995 1_455 S
Co146 N152 2.008 1_455 S
Co146 N157 1.995 . S
Co146 N162 2.282 . S
Co146 N168 2.282 1_455 S
N147 Co146 1.995 1_655 S
N147 C148 1.376 . S
N147 C151 1.383 . S
C148 N147 1.376 . S
C148 C149 1.445 . S
C148 C178 1.392 1_655 S
C149 C148 1.445 . S
C149 C150 1.339 . S
C149 H184 0.949 . S
C150 C149 1.339 . S
C150 C151 1.439 . S
C150 H185 0.950 . S
C151 N147 1.383 . S
C151 C150 1.439 . S
C151 C180 1.392 . S
N152 Co146 2.008 1_655 S
N152 C153 1.376 . S
N152 C156 1.374 . S
C153 N152 1.376 . S
C153 C154 1.443 . S
C153 C180 1.389 . S
C154 C153 1.443 . S
C154 C155 1.340 . S
C154 H186 0.951 . S
C155 C154 1.340 . S
C155 C156 1.439 . S
C155 H187 0.950 . S
C156 N152 1.374 . S
C156 C155 1.439 . S
C156 C181 1.395 . S
N157 Co146 1.995 . S
N157 C158 1.376 . S
N157 C161 1.383 . S
C158 N157 1.376 . S
C158 C159 1.446 . S
C158 C181 1.391 1_455 S
C159 C158 1.446 . S
C159 C160 1.339 . S
C159 H188 0.949 . S
C160 C159 1.339 . S
C160 C161 1.439 . S
C160 H189 0.950 . S
C161 N157 1.383 . S
C161 C160 1.439 . S
C161 C179 1.392 . S
N162 Co146 2.282 . S
N162 C165 1.332 . S
N162 C167 1.332 . S
C163 C164 1.386 . S
C163 C166 1.388 . S
C164 C163 1.386 . S
C164 C165 1.382 . S
C164 H190 0.950 . S
C165 N162 1.332 . S
C165 C164 1.382 . S
C165 H176 0.952 . S
C166 C163 1.388 . S
C166 C167 1.382 . S
C166 H191 0.950 . S
C167 N162 1.332 . S
C167 C166 1.382 . S
C167 H177 0.948 . S
N168 Co146 2.282 1_655 S
N168 C172 1.332 . S
N168 C173 1.332 . S
C169 C170 1.388 . S
C169 C173 1.382 . S
C169 H192 0.950 . S
C170 C169 1.388 . S
C170 C171 1.386 . S
C171 C170 1.386 . S
C171 C172 1.382 . S
C171 H193 0.950 . S
C172 N168 1.332 . S
C172 C171 1.382 . S
C172 H174 0.952 . S
C173 N168 1.332 . S
C173 C169 1.382 . S
C173 H175 0.948 . S
H174 C172 0.952 . S
H175 C173 0.948 . S
H176 C165 0.952 . S
H177 C167 0.948 . S
C178 C144 1.395 . S
C178 C148 1.392 1_455 S
C179 C141 1.389 . S
C179 C161 1.392 . S
C180 C151 1.392 . S
C180 C153 1.389 . S
C181 C156 1.395 . S
C181 C158 1.391 1_655 S
H182 C142 0.951 . S
H183 C143 0.950 . S
H184 C149 0.949 . S
H185 C150 0.950 . S
H186 C154 0.951 . S
H187 C155 0.950 . S
H188 C159 0.949 . S
H189 C160 0.950 . S
H190 C164 0.950 . S
H191 C166 0.950 . S
H192 C169 0.950 . S
H193 C171 0.950 . S
C194 C195 1.443 . S
C194 N198 1.376 1_565 S
C194 C232 1.389 . S
C195 C194 1.443 . S
C195 C196 1.340 1_565 S
C195 H235 0.951 . S
C196 C195 1.340 1_545 S
C196 C197 1.439 . S
C196 H236 0.950 . S
C197 C196 1.439 . S
C197 N198 1.374 . S
C197 C231 1.395 . S
N198 C194 1.376 1_545 S
N198 C197 1.374 . S
N198 Co199 2.008 . S
Co199 N198 2.008 . S
Co199 N200 1.995 . S
Co199 N205 2.008 . S
Co199 N210 1.995 . S
Co199 N215 2.282 . S
Co199 N221 2.282 . S
N200 Co199 1.995 . S
N200 C201 1.376 . S
N200 C204 1.383 . S
C201 N200 1.376 . S
C201 C202 1.446 . S
C201 C231 1.391 . S
C202 C201 1.446 . S
C202 C203 1.339 . S
C202 H237 0.949 . S
C203 C202 1.339 . S
C203 C204 1.439 . S
C203 H238 0.950 . S
C204 N200 1.383 . S
C204 C203 1.439 . S
C204 C233 1.392 . S
N205 Co199 2.008 . S
N205 C206 1.376 . S
N205 C209 1.374 . S
C206 N205 1.376 . S
C206 C207 1.443 . S
C206 C233 1.389 . S
C207 C206 1.443 . S
C207 C208 1.340 . S
C207 H239 0.951 . S
C208 C207 1.340 . S
C208 C209 1.439 . S
C208 H240 0.950 . S
C209 N205 1.374 . S
C209 C208 1.439 . S
C209 C234 1.395 . S
N210 Co199 1.995 . S
N210 C211 1.376 . S
N210 C214 1.383 1_545 S
C211 N210 1.376 . S
C211 C212 1.446 1_545 S
C211 C234 1.391 . S
C212 C211 1.446 1_565 S
C212 C213 1.339 . S
C212 H241 0.949 . S
C213 C212 1.339 . S
C213 C214 1.439 . S
C213 H242 0.950 . S
C214 N210 1.383 1_565 S
C214 C213 1.439 . S
C214 C232 1.392 . S
N215 Co199 2.282 . S
N215 C218 1.332 . S
N215 C220 1.332 . S
C216 C217 1.386 . S
C216 C219 1.388 . S
C217 C216 1.386 . S
C217 C218 1.382 . S
C217 H243 0.950 . S
C218 N215 1.332 . S
C218 C217 1.382 . S
C218 H229 0.952 . S
C219 C216 1.388 . S
C219 C220 1.382 . S
C219 H244 0.950 . S
C220 N215 1.332 . S
C220 C219 1.382 . S
C220 H230 0.948 . S
N221 Co199 2.282 . S
N221 C225 1.329 1_545 S
N221 C226 1.332 1_545 S
C222 C223 1.388 . S
C222 C226 1.382 . S
C222 H245 0.950 . S
C223 C222 1.388 . S
C223 C224 1.386 . S
C224 C223 1.386 . S
C224 C225 1.394 . S
C224 H246 0.950 . S
C225 N221 1.329 1_565 S
C225 C224 1.394 . S
C225 H227 0.942 1_565 S
C226 N221 1.332 1_565 S
C226 C222 1.382 . S
C226 H228 0.948 . S
H227 C225 0.942 1_545 S
H228 C226 0.948 . S
H229 C218 0.952 . S
H230 C220 0.948 . S
C231 C197 1.395 . S
C231 C201 1.391 . S
C232 C194 1.389 . S
C232 C214 1.392 . S
C233 C204 1.392 . S
C233 C206 1.389 . S
C234 C209 1.395 . S
C234 C211 1.391 . S
H235 C195 0.951 . S
H236 C196 0.950 . S
H237 C202 0.949 . S
H238 C203 0.950 . S
H239 C207 0.951 . S
H240 C208 0.950 . S
H241 C212 0.949 . S
H242 C213 0.950 . S
H243 C217 0.950 . S
H244 C219 0.950 . S
H245 C222 0.950 . S
H246 C224 0.950 . S
C247 C248 1.443 . S
C247 N251 1.376 . S
C247 C285 1.389 . S
C248 C247 1.443 . S
C248 C249 1.340 . S
C248 H288 0.951 . S
C249 C248 1.340 . S
C249 C250 1.439 . S
C249 H289 0.950 . S
C250 C249 1.439 . S
C250 N251 1.374 . S
C250 C284 1.395 . S
N251 C247 1.376 . S
N251 C250 1.374 . S
N251 Co252 2.032 . S
Co252 N251 2.032 . S
Co252 N253 1.975 1_554 S
Co252 N258 1.985 1_554 S
Co252 N263 2.015 . S
Co252 N268 2.253 1_554 S
Co252 N274 2.312 . S
N253 Co252 1.975 1_556 S
N253 C254 1.376 1_556 S
N253 C257 1.383 . S
C254 N253 1.376 1_554 S
C254 C255 1.446 1_554 S
C254 C284 1.391 . S
C255 C254 1.446 1_556 S
C255 C256 1.339 . S
C255 H290 0.949 . S
C256 C255 1.339 . S
C256 C257 1.439 . S
C256 H291 0.950 . S
C257 N253 1.383 . S
C257 C256 1.439 . S
C257 C286 1.392 . S
N258 Co252 1.985 1_556 S
N258 C259 1.376 . S
N258 C262 1.374 . S
C259 N258 1.376 . S
C259 C260 1.443 . S
C259 C286 1.389 . S
C260 C259 1.443 . S
C260 C261 1.340 . S
C260 H292 0.951 . S
C261 C260 1.340 . S
C261 C262 1.439 . S
C261 H293 0.950 . S
C262 N258 1.374 . S
C262 C261 1.439 . S
C262 C287 1.395 . S
N263 Co252 2.015 . S
N263 C264 1.380 . S
N263 C267 1.383 . S
C264 N263 1.380 . S
C264 C265 1.464 . S
C264 C287 1.373 1_554 S
C265 C264 1.464 . S
C265 C266 1.339 . S
C265 H294 0.949 . S
C266 C265 1.339 . S
C266 C267 1.439 . S
C266 H295 0.950 . S
C267 N263 1.383 . S
C267 C266 1.439 . S
C267 C285 1.392 . S
N268 Co252 2.253 1_556 S
N268 C271 1.332 . S
N268 C273 1.332 . S
C269 C270 1.386 . S
C269 C272 1.388 . S
C270 C269 1.386 . S
C270 C271 1.382 . S
C270 H296 0.950 . S
C271 N268 1.332 . S
C271 C270 1.382 . S
C271 H282 0.952 . S
C272 C269 1.388 . S
C272 C273 1.382 . S
C272 H297 0.950 . S
C273 N268 1.332 . S
C273 C272 1.382 . S
C273 H283 0.948 . S
N274 Co252 2.312 . S
N274 C278 1.332 . S
N274 C279 1.332 . S
C275 C276 1.388 . S
C275 C279 1.382 . S
C275 H298 0.950 . S
C276 C275 1.388 . S
C276 C277 1.386 . S
C277 C276 1.386 . S
C277 C278 1.382 . S
C277 H299 0.950 . S
C278 N274 1.332 . S
C278 C277 1.382 . S
C278 H280 0.952 . S
C279 N274 1.332 . S
C279 C275 1.382 . S
C279 H281 0.948 . S
H280 C278 0.952 . S
H281 C279 0.948 . S
H282 C271 0.952 . S
H283 C273 0.948 . S
C284 C250 1.395 . S
C284 C254 1.391 . S
C285 C247 1.389 . S
C285 C267 1.392 . S
C286 C257 1.392 . S
C286 C259 1.389 . S
C287 C262 1.395 . S
C287 C264 1.373 1_556 S
H288 C248 0.951 . S
H289 C249 0.950 . S
H290 C255 0.949 . S
H291 C256 0.950 . S
H292 C260 0.951 . S
H293 C261 0.950 . S
H294 C265 0.949 . S
H295 C266 0.950 . S
H296 C270 0.950 . S
H297 C272 0.950 . S
H298 C275 0.950 . S
H299 C277 0.950 . S
C300 C301 1.445 1_545 S
C300 N304 1.373 . S
C300 C338 1.390 1_545 S
C301 C300 1.445 1_565 S
C301 C302 1.340 1_565 S
C301 H341 0.951 . S
C302 C301 1.340 1_545 S
C302 C303 1.439 . S
C302 H342 0.950 . S
C303 C302 1.439 . S
C303 N304 1.374 . S
C303 C337 1.395 . S
N304 C300 1.373 . S
N304 C303 1.374 . S
N304 Co305 2.008 . S
Co305 N304 2.008 . S
Co305 N306 1.995 . S
Co305 N311 2.008 . S
Co305 N316 1.995 . S
Co305 N321 2.282 . S
Co305 N327 2.282 . S
N306 Co305 1.995 . S
N306 C307 1.376 . S
N306 C310 1.383 . S
C307 N306 1.376 . S
C307 C308 1.446 . S
C307 C337 1.391 . S
C308 C307 1.446 . S
C308 C309 1.339 . S
C308 H343 0.949 . S
C309 C308 1.339 . S
C309 C310 1.439 . S
C309 H344 0.950 . S
C310 N306 1.383 . S
C310 C309 1.439 . S
C310 C339 1.392 . S
N311 Co305 2.008 . S
N311 C312 1.376 . S
N311 C315 1.374 . S
C312 N311 1.376 . S
C312 C313 1.443 . S
C312 C339 1.389 . S
C313 C312 1.443 . S
C313 C314 1.340 . S
C313 H345 0.951 . S
C314 C313 1.340 . S
C314 C315 1.439 . S
C314 H346 0.950 . S
C315 N311 1.374 . S
C315 C314 1.439 . S
C315 C340 1.395 . S
N316 Co305 1.995 . S
N316 C317 1.376 . S
N316 C320 1.383 1_545 S
C317 N316 1.376 . S
C317 C318 1.446 1_545 S
C317 C340 1.391 . S
C318 C317 1.446 1_565 S
C318 C319 1.339 . S
C318 H347 0.949 . S
C319 C318 1.339 . S
C319 C320 1.439 . S
C319 H348 0.950 . S
C320 N316 1.383 1_565 S
C320 C319 1.439 . S
C320 C338 1.392 . S
N321 Co305 2.282 . S
N321 C324 1.332 . S
N321 C326 1.332 . S
C322 C323 1.386 . S
C322 C325 1.388 . S
C323 C322 1.386 . S
C323 C324 1.382 . S
C323 H349 0.950 . S
C324 N321 1.332 . S
C324 C323 1.382 . S
C324 H335 0.952 . S
C325 C322 1.388 . S
C325 C326 1.382 . S
C325 H350 0.950 . S
C326 N321 1.332 . S
C326 C325 1.382 . S
C326 H336 0.948 . S
N327 Co305 2.282 . S
N327 C331 1.332 . S
N327 C332 1.332 1_545 S
C328 C329 1.388 . S
C328 C332 1.382 . S
C328 H351 0.950 . S
C329 C328 1.388 . S
C329 C330 1.386 . S
C330 C329 1.386 . S
C330 C331 1.382 1_565 S
C330 H352 0.950 . S
C331 N327 1.332 . S
C331 C330 1.382 1_545 S
C331 H333 0.952 . S
C332 N327 1.332 1_565 S
C332 C328 1.382 . S
C332 H334 0.948 . S
H333 C331 0.952 . S
H334 C332 0.948 . S
H335 C324 0.952 . S
H336 C326 0.948 . S
C337 C303 1.395 . S
C337 C307 1.391 . S
C338 C300 1.390 1_565 S
C338 C320 1.392 . S
C339 C310 1.392 . S
C339 C312 1.389 . S
C340 C315 1.395 . S
C340 C317 1.391 . S
H341 C301 0.951 . S
H342 C302 0.950 . S
H343 C308 0.949 . S
H344 C309 0.950 . S
H345 C313 0.951 . S
H346 C314 0.950 . S
H347 C318 0.949 . S
H348 C319 0.950 . S
H349 C323 0.950 . S
H350 C325 0.950 . S
H351 C328 0.950 . S
H352 C330 0.950 . S
C353 C354 1.443 . S
C353 N357 1.376 . S
C353 C391 1.389 . S
C354 C353 1.443 . S
C354 C355 1.340 . S
C354 H394 0.951 . S
C355 C354 1.340 . S
C355 C356 1.439 . S
C355 H395 0.950 . S
C356 C355 1.439 . S
C356 N357 1.374 . S
C356 C390 1.395 . S
N357 C353 1.376 . S
N357 C356 1.374 . S
N357 Co358 2.008 . S
Co358 N357 2.008 . S
Co358 N359 1.995 . S
Co358 N364 2.008 . S
Co358 N369 1.995 . S
Co358 N374 2.282 . S
Co358 N380 2.282 . S
N359 Co358 1.995 . S
N359 C360 1.376 . S
N359 C363 1.383 . S
C360 N359 1.376 . S
C360 C361 1.446 . S
C360 C390 1.391 . S
C361 C360 1.446 . S
C361 C362 1.339 . S
C361 H396 0.949 . S
C362 C361 1.339 . S
C362 C363 1.439 . S
C362 H397 0.950 . S
C363 N359 1.383 . S
C363 C362 1.439 . S
C363 C392 1.392 . S
N364 Co358 2.008 . S
N364 C365 1.376 . S
N364 C368 1.374 . S
C365 N364 1.376 . S
C365 C366 1.443 . S
C365 C392 1.389 . S
C366 C365 1.443 . S
C366 C367 1.340 . S
C366 H398 0.951 . S
C367 C366 1.340 . S
C367 C368 1.439 . S
C367 H399 0.950 . S
C368 N364 1.374 . S
C368 C367 1.439 . S
C368 C393 1.395 . S
N369 Co358 1.995 . S
N369 C370 1.376 . S
N369 C373 1.383 . S
C370 N369 1.376 . S
C370 C371 1.446 . S
C370 C393 1.391 . S
C371 C370 1.446 . S
C371 C372 1.339 . S
C371 H400 0.949 . S
C372 C371 1.339 . S
C372 C373 1.439 . S
C372 H401 0.950 . S
C373 N369 1.383 . S
C373 C372 1.439 . S
C373 C391 1.392 . S
N374 Co358 2.282 . S
N374 C377 1.332 . S
N374 C379 1.332 . S
C375 C376 1.386 . S
C375 C378 1.388 . S
C376 C375 1.386 . S
C376 C377 1.382 . S
C376 H402 0.950 . S
C377 N374 1.332 . S
C377 C376 1.382 . S
C377 H388 0.952 . S
C378 C375 1.388 . S
C378 C379 1.382 . S
C378 H403 0.950 . S
C379 N374 1.332 . S
C379 C378 1.382 . S
C379 H389 0.948 . S
N380 Co358 2.282 . S
N380 C384 1.332 . S
N380 C385 1.332 . S
C381 C382 1.388 . S
C381 C385 1.382 . S
C381 H404 0.950 . S
C382 C381 1.388 . S
C382 C383 1.386 . S
C383 C382 1.386 . S
C383 C384 1.382 . S
C383 H405 0.950 . S
C384 N380 1.332 . S
C384 C383 1.382 . S
C384 H386 0.952 . S
C385 N380 1.332 . S
C385 C381 1.382 . S
C385 H387 0.948 . S
H386 C384 0.952 . S
H387 C385 0.948 . S
H388 C377 0.952 . S
H389 C379 0.948 . S
C390 C356 1.395 . S
C390 C360 1.391 . S
C391 C353 1.389 . S
C391 C373 1.392 . S
C392 C363 1.392 . S
C392 C365 1.389 . S
C393 C368 1.395 . S
C393 C370 1.391 . S
H394 C354 0.951 . S
H395 C355 0.950 . S
H396 C361 0.949 . S
H397 C362 0.950 . S
H398 C366 0.951 . S
H399 C367 0.950 . S
H400 C371 0.949 . S
H401 C372 0.950 . S
H402 C376 0.950 . S
H403 C378 0.950 . S
H404 C381 0.950 . S
H405 C383 0.950 . S
H406 C414 0.929 . S
H407 C416 0.930 . S
H408 C418 0.930 . S
H409 C421 0.929 . S
H410 C424 0.930 . S
H411 C426 0.960 . S
H412 C426 0.960 . S
H413 C426 0.960 . S
C414 H406 0.929 . S
C414 C415 1.377 . S
C414 C416 1.384 . S
C415 C414 1.377 . S
C415 C421 1.390 . S
C416 H407 0.930 . S
C416 C414 1.384 . S
C416 C417 1.372 . S
C417 C416 1.372 . S
C417 C418 1.400 . S
C417 C422 1.490 . S
C418 H408 0.930 . S
C418 C417 1.400 . S
C418 C421 1.386 . S
H419 C435 0.930 . S
H420 C436 0.931 . S
C421 H409 0.929 . S
C421 C415 1.390 . S
C421 C418 1.386 . S
C422 C417 1.490 . S
C422 C424 1.395 . S
C422 C425 1.403 . S
H423 C429 0.930 . S
C424 H410 0.930 . S
C424 C422 1.395 . S
C424 C427 1.403 . S
C425 C422 1.403 . S
C425 C426 1.524 . S
C425 C429 1.400 . S
C426 H411 0.960 . S
C426 H412 0.960 . S
C426 H413 0.960 . S
C426 C425 1.524 . S
C427 C424 1.403 . S
C427 C428 1.392 . S
C427 C431 1.495 . S
C428 C427 1.392 . S
C428 C429 1.385 . S
C428 C430 1.478 . S
C429 H423 0.930 . S
C429 C425 1.400 . S
C429 C428 1.385 . S
C430 C428 1.478 . S
C430 C432 1.381 . S
C430 C436 1.383 . S
C431 C427 1.495 . S
C431 H437 0.959 . S
C431 H438 0.961 . S
C431 H439 0.960 . S
C432 C430 1.381 . S
C432 C433 1.394 . S
C432 H440 0.930 . S
C433 C432 1.394 . S
C433 C434 1.383 . S
C433 H441 0.929 . S
C434 C433 1.383 . S
C434 C435 1.377 . S
C435 H419 0.930 . S
C435 C434 1.377 . S
C435 C436 1.379 . S
C436 H420 0.931 . S
C436 C430 1.383 . S
C436 C435 1.379 . S
H437 C431 0.959 . S
H438 C431 0.961 . S
H439 C431 0.960 . S
H440 C432 0.930 . S
H441 C433 0.929 . S
H442 C450 0.929 . S
H443 C452 0.930 . S
H444 C454 0.930 . S
H445 C457 0.929 . S
H446 C460 0.930 . S
H447 C462 0.960 . S
H448 C462 0.960 . S
H449 C462 0.960 . S
C450 H442 0.929 . S
C450 C451 1.377 . S
C450 C452 1.384 . S
C451 C450 1.377 . S
C451 C457 1.390 . S
C452 H443 0.930 . S
C452 C450 1.384 . S
C452 C453 1.372 . S
C453 C452 1.372 . S
C453 C454 1.400 . S
C453 C458 1.490 . S
C454 H444 0.930 . S
C454 C453 1.400 . S
C454 C457 1.386 . S
H455 C471 0.930 . S
H456 C472 0.931 . S
C457 H445 0.929 . S
C457 C451 1.390 . S
C457 C454 1.386 . S
C458 C453 1.490 . S
C458 C460 1.395 . S
C458 C461 1.403 . S
H459 C465 0.930 . S
C460 H446 0.930 . S
C460 C458 1.395 . S
C460 C463 1.403 . S
C461 C458 1.403 . S
C461 C462 1.524 . S
C461 C465 1.400 . S
C462 H447 0.960 . S
C462 H448 0.960 . S
C462 H449 0.960 . S
C462 C461 1.524 . S
C463 C460 1.403 . S
C463 C464 1.392 . S
C463 C467 1.495 . S
C464 C463 1.392 . S
C464 C465 1.385 . S
C464 C466 1.478 . S
C465 H459 0.930 . S
C465 C461 1.400 . S
C465 C464 1.385 . S
C466 C464 1.478 . S
C466 C468 1.381 . S
C466 C472 1.383 . S
C467 C463 1.495 . S
C467 H473 0.959 . S
C467 H474 0.961 . S
C467 H475 0.960 . S
C468 C466 1.381 . S
C468 C469 1.394 . S
C468 H476 0.930 . S
C469 C468 1.394 . S
C469 C470 1.383 . S
C469 H477 0.929 . S
C470 C469 1.383 . S
C470 C471 1.377 . S
C471 H455 0.930 . S
C471 C470 1.377 . S
C471 C472 1.379 . S
C472 H456 0.931 . S
C472 C466 1.383 . S
C472 C471 1.379 . S
H473 C467 0.959 . S
H474 C467 0.961 . S
H475 C467 0.960 . S
H476 C468 0.930 . S
H477 C469 0.929 . S
H478 C486 0.929 . S
H479 C488 0.930 . S
H480 C490 0.930 . S
H481 C493 0.929 . S
H482 C496 0.930 . S
H483 C498 0.960 . S
H484 C498 0.960 . S
H485 C498 0.960 . S
C486 H478 0.929 . S
C486 C487 1.377 . S
C486 C488 1.384 . S
C487 C486 1.377 . S
C487 C493 1.390 . S
C488 H479 0.930 . S
C488 C486 1.384 . S
C488 C489 1.372 . S
C489 C488 1.372 . S
C489 C490 1.400 . S
C489 C494 1.490 . S
C490 H480 0.930 . S
C490 C489 1.400 . S
C490 C493 1.386 . S
H491 C507 0.930 . S
H492 C508 0.931 . S
C493 H481 0.929 . S
C493 C487 1.390 . S
C493 C490 1.386 . S
C494 C489 1.490 . S
C494 C496 1.395 . S
C494 C497 1.403 . S
H495 C501 0.930 . S
C496 H482 0.930 . S
C496 C494 1.395 . S
C496 C499 1.403 . S
C497 C494 1.403 . S
C497 C498 1.524 . S
C497 C501 1.400 . S
C498 H483 0.960 . S
C498 H484 0.960 . S
C498 H485 0.960 . S
C498 C497 1.524 . S
C499 C496 1.403 . S
C499 C500 1.392 . S
C499 C503 1.495 . S
C500 C499 1.392 . S
C500 C501 1.385 . S
C500 C502 1.478 . S
C501 H495 0.930 . S
C501 C497 1.400 . S
C501 C500 1.385 . S
C502 C500 1.478 . S
C502 C504 1.381 . S
C502 C508 1.383 . S
C503 C499 1.495 . S
C503 H509 0.959 . S
C503 H510 0.961 . S
C503 H511 0.960 . S
C504 C502 1.381 . S
C504 C505 1.394 . S
C504 H512 0.930 . S
C505 C504 1.394 . S
C505 C506 1.383 . S
C505 H513 0.929 1_655 S
C506 C505 1.383 . S
C506 C507 1.377 . S
C507 H491 0.930 . S
C507 C506 1.377 . S
C507 C508 1.379 . S
C508 H492 0.931 . S
C508 C502 1.383 . S
C508 C507 1.379 . S
H509 C503 0.959 . S
H510 C503 0.961 . S
H511 C503 0.960 . S
H512 C504 0.930 . S
H513 C505 0.929 1_455 S
H514 C522 0.929 . S
H515 C524 0.930 . S
H516 C526 0.930 . S
H517 C529 0.929 . S
H518 C532 0.930 . S
H519 C534 0.960 . S
H520 C534 0.960 . S
H521 C534 0.960 . S
C522 H514 0.929 . S
C522 C523 1.377 . S
C522 C524 1.384 . S
C523 C522 1.377 . S
C523 C529 1.390 . S
C524 H515 0.930 . S
C524 C522 1.384 . S
C524 C525 1.372 . S
C525 C524 1.372 . S
C525 C526 1.400 . S
C525 C530 1.490 . S
C526 H516 0.930 . S
C526 C525 1.400 . S
C526 C529 1.386 . S
H527 C543 0.930 . S
H528 C544 0.931 . S
C529 H517 0.929 . S
C529 C523 1.390 . S
C529 C526 1.386 . S
C530 C525 1.490 . S
C530 C532 1.395 . S
C530 C533 1.403 . S
H531 C537 0.930 . S
C532 H518 0.930 . S
C532 C530 1.395 . S
C532 C535 1.403 . S
C533 C530 1.403 . S
C533 C534 1.524 . S
C533 C537 1.400 . S
C534 H519 0.960 . S
C534 H520 0.960 . S
C534 H521 0.960 . S
C534 C533 1.524 . S
C535 C532 1.403 . S
C535 C536 1.392 . S
C535 C539 1.495 . S
C536 C535 1.392 . S
C536 C537 1.385 . S
C536 C538 1.478 . S
C537 H531 0.930 . S
C537 C533 1.400 . S
C537 C536 1.385 . S
C538 C536 1.478 . S
C538 C540 1.381 . S
C538 C544 1.383 . S
C539 C535 1.495 . S
C539 H545 0.959 . S
C539 H546 0.961 . S
C539 H547 0.960 . S
C540 C538 1.381 . S
C540 C541 1.394 . S
C540 H548 0.930 . S
C541 C540 1.394 . S
C541 C542 1.383 . S
C541 H549 0.929 . S
C542 C541 1.383 . S
C542 C543 1.377 . S
C543 H527 0.930 . S
C543 C542 1.377 . S
C543 C544 1.379 . S
C544 H528 0.931 . S
C544 C538 1.383 . S
C544 C543 1.379 . S
H545 C539 0.959 . S
H546 C539 0.961 . S
H547 C539 0.960 . S
H548 C540 0.930 . S
H549 C541 0.929 . S
H550 C558 0.929 . S
H551 C560 0.930 . S
H552 C562 0.930 . S
H553 C565 0.929 . S
H554 C568 0.930 . S
H555 C570 0.960 . S
H556 C570 0.960 . S
H557 C570 0.960 . S
C558 H550 0.929 . S
C558 C559 1.377 . S
C558 C560 1.384 . S
C559 C558 1.377 . S
C559 C565 1.390 . S
C560 H551 0.930 . S
C560 C558 1.384 . S
C560 C561 1.372 . S
C561 C560 1.372 . S
C561 C562 1.400 . S
C561 C566 1.490 . S
C562 H552 0.930 . S
C562 C561 1.400 . S
C562 C565 1.386 . S
H563 C579 0.930 . S
H564 C580 0.931 . S
C565 H553 0.929 . S
C565 C559 1.390 . S
C565 C562 1.386 . S
C566 C561 1.490 . S
C566 C568 1.395 . S
C566 C569 1.403 . S
H567 C573 0.930 . S
C568 H554 0.930 . S
C568 C566 1.395 . S
C568 C571 1.403 . S
C569 C566 1.403 . S
C569 C570 1.524 . S
C569 C573 1.400 . S
C570 H555 0.960 . S
C570 H556 0.960 . S
C570 H557 0.960 . S
C570 C569 1.524 . S
C571 C568 1.403 . S
C571 C572 1.392 . S
C571 C575 1.495 . S
C572 C571 1.392 . S
C572 C573 1.385 . S
C572 C574 1.478 . S
C573 H567 0.930 . S
C573 C569 1.400 . S
C573 C572 1.385 . S
C574 C572 1.478 . S
C574 C576 1.381 . S
C574 C580 1.383 . S
C575 C571 1.495 . S
C575 H581 0.959 . S
C575 H582 0.961 . S
C575 H583 0.960 . S
C576 C574 1.381 . S
C576 C577 1.394 . S
C576 H584 0.930 . S
C577 C576 1.394 . S
C577 C578 1.383 . S
C577 H585 0.929 . S
C578 C577 1.383 . S
C578 C579 1.377 . S
C579 H563 0.930 . S
C579 C578 1.377 . S
C579 C580 1.379 . S
C580 H564 0.931 . S
C580 C574 1.383 . S
C580 C579 1.379 . S
H581 C575 0.959 . S
H582 C575 0.961 . S
H583 C575 0.960 . S
H584 C576 0.930 . S
H585 C577 0.929 . S
H586 C594 0.929 . S
H587 C596 0.930 . S
H588 C598 0.930 . S
H589 C601 0.929 . S
H590 C604 0.930 . S
H591 C606 0.960 . S
H592 C606 0.960 . S
H593 C606 0.960 . S
C594 H586 0.929 . S
C594 C595 1.377 . S
C594 C596 1.384 . S
C595 C594 1.377 . S
C595 C601 1.390 . S
C596 H587 0.930 . S
C596 C594 1.384 . S
C596 C597 1.372 . S
C597 C596 1.372 . S
C597 C598 1.400 . S
C597 C602 1.490 . S
C598 H588 0.930 . S
C598 C597 1.400 . S
C598 C601 1.386 . S
H599 C615 0.930 . S
H600 C616 0.931 . S
C601 H589 0.929 . S
C601 C595 1.390 . S
C601 C598 1.386 . S
C602 C597 1.490 . S
C602 C604 1.395 . S
C602 C605 1.403 . S
H603 C609 0.930 . S
C604 H590 0.930 . S
C604 C602 1.395 . S
C604 C607 1.403 . S
C605 C602 1.403 . S
C605 C606 1.524 . S
C605 C609 1.400 . S
C606 H591 0.960 . S
C606 H592 0.960 . S
C606 H593 0.960 . S
C606 C605 1.524 . S
C607 C604 1.403 . S
C607 C608 1.392 . S
C607 C611 1.495 . S
C608 C607 1.392 . S
C608 C609 1.385 . S
C608 C610 1.478 . S
C609 H603 0.930 . S
C609 C605 1.400 . S
C609 C608 1.385 . S
C610 C608 1.478 . S
C610 C612 1.381 . S
C610 C616 1.383 . S
C611 C607 1.495 . S
C611 H617 0.959 . S
C611 H618 0.961 . S
C611 H619 0.960 . S
C612 C610 1.381 . S
C612 C613 1.394 . S
C612 H620 0.930 . S
C613 C612 1.394 . S
C613 C614 1.383 . S
C613 H621 0.929 . S
C614 C613 1.383 . S
C614 C615 1.377 . S
C615 H599 0.930 . S
C615 C614 1.377 . S
C615 C616 1.379 . S
C616 H600 0.931 . S
C616 C610 1.383 . S
C616 C615 1.379 . S
H617 C611 0.959 . S
H618 C611 0.961 . S
H619 C611 0.960 . S
H620 C612 0.930 . S
H621 C613 0.929 . S
H622 C630 0.929 . S
H623 C632 0.930 . S
H624 C634 0.930 . S
H625 C637 0.929 . S
H626 C640 0.930 . S
H627 C642 0.960 . S
H628 C642 0.960 . S
H629 C642 0.960 . S
C630 H622 0.929 . S
C630 C631 1.377 . S
C630 C632 1.384 . S
C631 C630 1.377 . S
C631 C637 1.390 . S
C632 H623 0.930 . S
C632 C630 1.384 . S
C632 C633 1.372 . S
C633 C632 1.372 . S
C633 C634 1.400 . S
C633 C638 1.490 . S
C634 H624 0.930 . S
C634 C633 1.400 . S
C634 C637 1.386 . S
H635 C651 0.930 . S
H636 C652 0.931 . S
C637 H625 0.929 . S
C637 C631 1.390 . S
C637 C634 1.386 . S
C638 C633 1.490 . S
C638 C640 1.395 . S
C638 C641 1.403 . S
H639 C645 0.930 . S
C640 H626 0.930 . S
C640 C638 1.395 . S
C640 C643 1.403 . S
C641 C638 1.403 . S
C641 C642 1.524 . S
C641 C645 1.400 . S
C642 H627 0.960 . S
C642 H628 0.960 . S
C642 H629 0.960 . S
C642 C641 1.524 . S
C643 C640 1.403 . S
C643 C644 1.392 . S
C643 C647 1.495 . S
C644 C643 1.392 . S
C644 C645 1.385 . S
C644 C646 1.478 . S
C645 H639 0.930 . S
C645 C641 1.400 . S
C645 C644 1.385 . S
C646 C644 1.478 . S
C646 C648 1.381 . S
C646 C652 1.383 . S
C647 C643 1.495 . S
C647 H653 0.959 . S
C647 H654 0.961 . S
C647 H655 0.960 . S
C648 C646 1.381 . S
C648 C649 1.394 . S
C648 H656 0.930 . S
C649 C648 1.394 . S
C649 C650 1.383 . S
C649 H657 0.929 . S
C650 C649 1.383 . S
C650 C651 1.377 . S
C651 H635 0.930 . S
C651 C650 1.377 . S
C651 C652 1.379 . S
C652 H636 0.931 . S
C652 C646 1.383 . S
C652 C651 1.379 . S
H653 C647 0.959 . S
H654 C647 0.961 . S
H655 C647 0.960 . S
H656 C648 0.930 . S
H657 C649 0.929 . S
H658 C666 0.929 . S
H659 C668 0.930 . S
H660 C670 0.930 . S
H661 C673 0.929 . S
H662 C676 0.930 . S
H663 C678 0.960 . S
H664 C678 0.960 . S
H665 C678 0.960 . S
C666 H658 0.929 . S
C666 C667 1.377 . S
C666 C668 1.384 . S
C667 C666 1.377 . S
C667 C673 1.390 . S
C668 H659 0.930 . S
C668 C666 1.384 . S
C668 C669 1.372 . S
C669 C668 1.372 . S
C669 C670 1.400 . S
C669 C674 1.490 . S
C670 H660 0.930 . S
C670 C669 1.400 . S
C670 C673 1.386 . S
H671 C687 0.930 . S
H672 C688 0.931 . S
C673 H661 0.929 . S
C673 C667 1.390 . S
C673 C670 1.386 . S
C674 C669 1.490 . S
C674 C676 1.395 1_556 S
C674 C677 1.403 . S
H675 C681 0.930 . S
C676 H662 0.930 . S
C676 C674 1.395 1_554 S
C676 C679 1.403 . S
C677 C674 1.403 . S
C677 C678 1.524 . S
C677 C681 1.400 1_556 S
C678 H663 0.960 . S
C678 H664 0.960 . S
C678 H665 0.960 . S
C678 C677 1.524 . S
C679 C676 1.403 . S
C679 C680 1.392 . S
C679 C683 1.495 . S
C680 C679 1.392 . S
C680 C681 1.385 . S
C680 C682 1.478 . S
C681 H675 0.930 . S
C681 C677 1.400 1_554 S
C681 C680 1.385 . S
C682 C680 1.478 . S
C682 C684 1.381 . S
C682 C688 1.383 . S
C683 C679 1.495 . S
C683 H689 0.959 . S
C683 H690 0.961 . S
C683 H691 0.960 . S
C684 C682 1.381 . S
C684 C685 1.394 . S
C684 H692 0.930 . S
C685 C684 1.394 . S
C685 C686 1.383 . S
C685 H693 0.929 . S
C686 C685 1.383 . S
C686 C687 1.377 . S
C687 H671 0.930 . S
C687 C686 1.377 . S
C687 C688 1.379 . S
C688 H672 0.931 . S
C688 C682 1.383 . S
C688 C687 1.379 . S
H689 C683 0.959 . S
H690 C683 0.961 . S
H691 C683 0.960 . S
H692 C684 0.930 . S
H693 C685 0.929 . S
H694 C702 0.929 . S
H695 C704 0.930 . S
H696 C706 0.930 . S
H697 C709 0.929 . S
H698 C712 0.930 . S
H699 C714 0.960 . S
H700 C714 0.960 . S
H701 C714 0.960 . S
C702 H694 0.929 . S
C702 C703 1.377 . S
C702 C704 1.384 . S
C703 C702 1.377 . S
C703 C709 1.390 . S
C704 H695 0.930 . S
C704 C702 1.384 . S
C704 C705 1.372 . S
C705 C704 1.372 . S
C705 C706 1.400 . S
C705 C710 1.490 . S
C706 H696 0.930 . S
C706 C705 1.400 . S
C706 C709 1.386 . S
H707 C723 0.930 . S
H708 C724 0.931 . S
C709 H697 0.929 . S
C709 C703 1.390 . S
C709 C706 1.386 . S
C710 C705 1.490 . S
C710 C712 1.395 . S
C710 C713 1.403 . S
H711 C717 0.930 . S
C712 H698 0.930 . S
C712 C710 1.395 . S
C712 C715 1.403 . S
C713 C710 1.403 . S
C713 C714 1.524 . S
C713 C717 1.400 . S
C714 H699 0.960 . S
C714 H700 0.960 . S
C714 H701 0.960 . S
C714 C713 1.524 . S
C715 C712 1.403 . S
C715 C716 1.392 . S
C715 C719 1.495 . S
C716 C715 1.392 . S
C716 C717 1.385 . S
C716 C718 1.478 . S
C717 H711 0.930 . S
C717 C713 1.400 . S
C717 C716 1.385 . S
C718 C716 1.478 . S
C718 C720 1.381 . S
C718 C724 1.383 . S
C719 C715 1.495 . S
C719 H725 0.959 . S
C719 H726 0.961 . S
C719 H727 0.960 . S
C720 C718 1.381 . S
C720 C721 1.394 . S
C720 H728 0.930 . S
C721 C720 1.394 . S
C721 C722 1.383 . S
C721 H729 0.929 . S
C722 C721 1.383 . S
C722 C723 1.377 . S
C723 H707 0.930 . S
C723 C722 1.377 . S
C723 C724 1.379 . S
C724 H708 0.931 . S
C724 C718 1.383 . S
C724 C723 1.379 . S
H725 C719 0.959 . S
H726 C719 0.961 . S
H727 C719 0.960 . S
H728 C720 0.930 . S
H729 C721 0.929 . S
H730 C738 0.929 . S
H731 C740 0.930 . S
H732 C742 0.930 . S
H733 C745 0.929 . S
H734 C748 0.930 . S
H735 C750 0.960 . S
H736 C750 0.960 . S
H737 C750 0.960 . S
C738 H730 0.929 . S
C738 C739 1.377 . S
C738 C740 1.384 . S
C739 C738 1.377 . S
C739 C745 1.390 . S
C740 H731 0.930 . S
C740 C738 1.384 . S
C740 C741 1.372 . S
C741 C740 1.372 . S
C741 C742 1.400 . S
C741 C746 1.490 . S
C742 H732 0.930 . S
C742 C741 1.400 . S
C742 C745 1.386 . S
H743 C759 0.930 . S
H744 C760 0.931 . S
C745 H733 0.929 . S
C745 C739 1.390 . S
C745 C742 1.386 . S
C746 C741 1.490 . S
C746 C748 1.395 . S
C746 C749 1.403 . S
H747 C753 0.930 . S
C748 H734 0.930 . S
C748 C746 1.395 . S
C748 C751 1.403 . S
C749 C746 1.403 . S
C749 C750 1.524 . S
C749 C753 1.400 . S
C750 H735 0.960 . S
C750 H736 0.960 . S
C750 H737 0.960 . S
C750 C749 1.524 . S
C751 C748 1.403 . S
C751 C752 1.392 . S
C751 C755 1.495 . S
C752 C751 1.392 . S
C752 C753 1.385 . S
C752 C754 1.478 . S
C753 H747 0.930 . S
C753 C749 1.400 . S
C753 C752 1.385 . S
C754 C752 1.478 . S
C754 C756 1.381 . S
C754 C760 1.383 . S
C755 C751 1.495 . S
C755 H761 0.959 . S
C755 H762 0.961 . S
C755 H763 0.960 . S
C756 C754 1.381 . S
C756 C757 1.394 . S
C756 H764 0.930 . S
C757 C756 1.394 . S
C757 C758 1.383 . S
C757 H765 0.929 . S
C758 C757 1.383 . S
C758 C759 1.377 . S
C759 H743 0.930 . S
C759 C758 1.377 . S
C759 C760 1.379 . S
C760 H744 0.931 . S
C760 C754 1.383 . S
C760 C759 1.379 . S
H761 C755 0.959 . S
H762 C755 0.961 . S
H763 C755 0.960 . S
H764 C756 0.930 . S
H765 C757 0.929 . S
H766 C774 0.929 . S
H767 C776 0.930 . S
H768 C778 0.930 . S
H769 C781 0.929 . S
H770 C784 0.930 . S
H771 C786 0.960 . S
H772 C786 0.960 . S
H773 C786 0.960 . S
C774 H766 0.929 . S
C774 C775 1.377 . S
C774 C776 1.384 . S
C775 C774 1.377 . S
C775 C781 1.390 . S
C776 H767 0.930 . S
C776 C774 1.384 . S
C776 C777 1.372 . S
C777 C776 1.372 . S
C777 C778 1.400 . S
C777 C782 1.490 . S
C778 H768 0.930 . S
C778 C777 1.400 . S
C778 C781 1.386 . S
H779 C795 0.930 . S
H780 C796 0.931 . S
C781 H769 0.929 . S
C781 C775 1.390 . S
C781 C778 1.386 . S
C782 C777 1.490 . S
C782 C784 1.395 . S
C782 C785 1.403 . S
H783 C789 0.930 . S
C784 H770 0.930 . S
C784 C782 1.395 . S
C784 C787 1.403 . S
C785 C782 1.403 . S
C785 C786 1.524 . S
C785 C789 1.400 . S
C786 H771 0.960 . S
C786 H772 0.960 . S
C786 H773 0.960 . S
C786 C785 1.524 . S
C787 C784 1.403 . S
C787 C788 1.392 . S
C787 C791 1.495 . S
C788 C787 1.392 . S
C788 C789 1.385 . S
C788 C790 1.478 . S
C789 H783 0.930 . S
C789 C785 1.400 . S
C789 C788 1.385 . S
C790 C788 1.478 . S
C790 C792 1.381 . S
C790 C796 1.383 . S
C791 C787 1.495 . S
C791 H797 0.959 . S
C791 H798 0.961 . S
C791 H799 0.960 . S
C792 C790 1.381 . S
C792 C793 1.394 . S
C792 H800 0.930 . S
C793 C792 1.394 . S
C793 C794 1.383 . S
C793 H801 0.929 . S
C794 C793 1.383 . S
C794 C795 1.377 . S
C795 H779 0.930 . S
C795 C794 1.377 . S
C795 C796 1.379 . S
C796 H780 0.931 . S
C796 C790 1.383 . S
C796 C795 1.379 . S
H797 C791 0.959 . S
H798 C791 0.961 . S
H799 C791 0.960 . S
H800 C792 0.930 . S
H801 C793 0.929 . S
H802 C810 0.929 . S
H803 C812 0.930 . S
H804 C814 0.930 . S
H805 C817 0.929 . S
H806 C820 0.930 . S
H807 C822 0.960 . S
H808 C822 0.960 . S
H809 C822 0.960 . S
C810 H802 0.929 . S
C810 C811 1.377 . S
C810 C812 1.384 . S
C811 C810 1.377 . S
C811 C817 1.390 . S
C812 H803 0.930 . S
C812 C810 1.384 . S
C812 C813 1.372 . S
C813 C812 1.372 . S
C813 C814 1.400 . S
C813 C818 1.490 . S
C814 H804 0.930 . S
C814 C813 1.400 . S
C814 C817 1.386 . S
H815 C831 0.930 . S
H816 C832 0.931 . S
C817 H805 0.929 . S
C817 C811 1.390 . S
C817 C814 1.386 . S
C818 C813 1.490 . S
C818 C820 1.395 . S
C818 C821 1.403 . S
H819 C825 0.930 . S
C820 H806 0.930 . S
C820 C818 1.395 . S
C820 C823 1.403 . S
C821 C818 1.403 . S
C821 C822 1.524 . S
C821 C825 1.400 . S
C822 H807 0.960 . S
C822 H808 0.960 . S
C822 H809 0.960 . S
C822 C821 1.524 . S
C823 C820 1.403 . S
C823 C824 1.392 . S
C823 C827 1.495 . S
C824 C823 1.392 . S
C824 C825 1.385 . S
C824 C826 1.478 . S
C825 H819 0.930 . S
C825 C821 1.400 . S
C825 C824 1.385 . S
C826 C824 1.478 . S
C826 C828 1.381 . S
C826 C832 1.383 . S
C827 C823 1.495 . S
C827 H833 0.959 . S
C827 H834 0.961 . S
C827 H835 0.960 . S
C828 C826 1.381 . S
C828 C829 1.394 . S
C828 H836 0.930 . S
C829 C828 1.394 . S
C829 C830 1.383 . S
C829 H837 0.929 . S
C830 C829 1.383 . S
C830 C831 1.377 . S
C831 H815 0.930 . S
C831 C830 1.377 . S
C831 C832 1.379 . S
C832 H816 0.931 . S
C832 C826 1.383 . S
C832 C831 1.379 . S
H833 C827 0.959 . S
H834 C827 0.961 . S
H835 C827 0.960 . S
H836 C828 0.930 . S
H837 C829 0.929 . S
H838 C846 0.929 . S
H839 C848 0.930 . S
H840 C850 0.930 . S
H841 C853 0.929 . S
H842 C856 0.930 . S
H843 C858 0.960 . S
H844 C858 0.960 . S
H845 C858 0.960 . S
C846 H838 0.929 . S
C846 C847 1.377 . S
C846 C848 1.384 . S
C847 C846 1.377 . S
C847 C853 1.390 . S
C848 H839 0.930 . S
C848 C846 1.384 . S
C848 C849 1.372 . S
C849 C848 1.372 . S
C849 C850 1.400 . S
C849 C854 1.490 . S
C850 H840 0.930 . S
C850 C849 1.400 . S
C850 C853 1.386 . S
H851 C867 0.930 . S
H852 C868 0.931 . S
C853 H841 0.929 . S
C853 C847 1.390 . S
C853 C850 1.386 . S
C854 C849 1.490 . S
C854 C856 1.395 . S
C854 C857 1.403 . S
H855 C861 0.930 . S
C856 H842 0.930 . S
C856 C854 1.395 . S
C856 C859 1.403 . S
C857 C854 1.403 . S
C857 C858 1.524 . S
C857 C861 1.400 . S
C858 H843 0.960 . S
C858 H844 0.960 . S
C858 H845 0.960 . S
C858 C857 1.524 . S
C859 C856 1.403 . S
C859 C860 1.392 . S
C859 C863 1.495 . S
C860 C859 1.392 . S
C860 C861 1.385 . S
C860 C862 1.478 . S
C861 H855 0.930 . S
C861 C857 1.400 . S
C861 C860 1.385 . S
C862 C860 1.478 . S
C862 C864 1.381 . S
C862 C868 1.383 . S
C863 C859 1.495 . S
C863 H869 0.959 . S
C863 H870 0.961 . S
C863 H871 0.960 . S
C864 C862 1.381 . S
C864 C865 1.394 . S
C864 H872 0.930 . S
C865 C864 1.394 . S
C865 C866 1.383 . S
C865 H873 0.929 . S
C866 C865 1.383 . S
C866 C867 1.377 . S
C867 H851 0.930 . S
C867 C866 1.377 . S
C867 C868 1.379 . S
C868 H852 0.931 . S
C868 C862 1.383 . S
C868 C867 1.379 . S
H869 C863 0.959 . S
H870 C863 0.961 . S
H871 C863 0.960 . S
H872 C864 0.930 . S
H873 C865 0.929 . S
H874 C882 0.929 . S
H875 C884 0.930 . S
H876 C886 0.930 . S
H877 C889 0.929 . S
H878 C892 0.930 . S
H879 C894 0.960 . S
H880 C894 0.960 . S
H881 C894 0.960 . S
C882 H874 0.929 . S
C882 C883 1.377 . S
C882 C884 1.384 . S
C883 C882 1.377 . S
C883 C889 1.390 . S
C884 H875 0.930 . S
C884 C882 1.384 . S
C884 C885 1.372 . S
C885 C884 1.372 . S
C885 C886 1.400 . S
C885 C890 1.490 . S
C886 H876 0.930 . S
C886 C885 1.400 . S
C886 C889 1.386 . S
H887 C903 0.930 . S
H888 C904 0.931 . S
C889 H877 0.929 . S
C889 C883 1.390 . S
C889 C886 1.386 . S
C890 C885 1.490 . S
C890 C892 1.395 . S
C890 C893 1.403 . S
H891 C897 0.930 . S
C892 H878 0.930 . S
C892 C890 1.395 . S
C892 C895 1.403 . S
C893 C890 1.403 . S
C893 C894 1.524 . S
C893 C897 1.400 . S
C894 H879 0.960 . S
C894 H880 0.960 . S
C894 H881 0.960 . S
C894 C893 1.524 . S
C895 C892 1.403 . S
C895 C896 1.392 . S
C895 C899 1.495 . S
C896 C895 1.392 . S
C896 C897 1.385 . S
C896 C898 1.478 . S
C897 H891 0.930 . S
C897 C893 1.400 . S
C897 C896 1.385 . S
C898 C896 1.478 . S
C898 C900 1.381 . S
C898 C904 1.383 . S
C899 C895 1.495 . S
C899 H905 0.959 . S
C899 H906 0.961 . S
C899 H907 0.960 . S
C900 C898 1.381 . S
C900 C901 1.394 . S
C900 H908 0.930 . S
C901 C900 1.394 . S
C901 C902 1.383 . S
C901 H909 0.929 . S
C902 C901 1.383 . S
C902 C903 1.377 . S
C903 H887 0.930 . S
C903 C902 1.377 . S
C903 C904 1.379 . S
C904 H888 0.931 . S
C904 C898 1.383 . S
C904 C903 1.379 . S
H905 C899 0.959 . S
H906 C899 0.961 . S
H907 C899 0.960 . S
H908 C900 0.930 . S
H909 C901 0.929 . S
H910 C918 0.929 . S
H911 C920 0.930 . S
H912 C922 0.930 . S
H913 C925 0.929 . S
H914 C928 0.930 . S
H915 C930 0.960 . S
H916 C930 0.960 . S
H917 C930 0.960 . S
C918 H910 0.929 . S
C918 C919 1.377 . S
C918 C920 1.384 . S
C919 C918 1.377 . S
C919 C925 1.390 . S
C920 H911 0.930 . S
C920 C918 1.384 . S
C920 C921 1.372 . S
C921 C920 1.372 . S
C921 C922 1.400 . S
C921 C926 1.490 . S
C922 H912 0.930 . S
C922 C921 1.400 . S
C922 C925 1.386 . S
H923 C939 0.930 . S
H924 C940 0.931 . S
C925 H913 0.929 . S
C925 C919 1.390 . S
C925 C922 1.386 . S
C926 C921 1.490 . S
C926 C928 1.395 . S
C926 C929 1.403 . S
H927 C933 0.930 . S
C928 H914 0.930 . S
C928 C926 1.395 . S
C928 C931 1.403 . S
C929 C926 1.403 . S
C929 C930 1.524 . S
C929 C933 1.400 . S
C930 H915 0.960 . S
C930 H916 0.960 . S
C930 H917 0.960 . S
C930 C929 1.524 . S
C931 C928 1.403 . S
C931 C932 1.392 . S
C931 C935 1.495 . S
C932 C931 1.392 . S
C932 C933 1.385 . S
C932 C934 1.478 . S
C933 H927 0.930 . S
C933 C929 1.400 . S
C933 C932 1.385 . S
C934 C932 1.478 . S
C934 C936 1.381 . S
C934 C940 1.383 . S
C935 C931 1.495 . S
C935 H941 0.959 . S
C935 H942 0.961 . S
C935 H943 0.960 . S
C936 C934 1.381 . S
C936 C937 1.394 . S
C936 H944 0.930 . S
C937 C936 1.394 . S
C937 C938 1.383 . S
C937 H945 0.929 . S
C938 C937 1.383 . S
C938 C939 1.377 . S
C939 H923 0.930 . S
C939 C938 1.377 . S
C939 C940 1.379 . S
C940 H924 0.931 . S
C940 C934 1.383 . S
C940 C939 1.379 . S
H941 C935 0.959 . S
H942 C935 0.961 . S
H943 C935 0.960 . S
H944 C936 0.930 . S
H945 C937 0.929 . S
H946 C954 0.929 . S
H947 C956 0.930 . S
H948 C958 0.930 . S
H949 C961 0.929 . S
H950 C964 0.930 . S
H951 C966 0.960 . S
H952 C966 0.960 . S
H953 C966 0.960 . S
C954 H946 0.929 . S
C954 C955 1.377 . S
C954 C956 1.384 . S
C955 C954 1.377 . S
C955 C961 1.390 . S
C956 H947 0.930 . S
C956 C954 1.384 . S
C956 C957 1.372 . S
C957 C956 1.372 . S
C957 C958 1.400 . S
C957 C962 1.490 . S
C958 H948 0.930 . S
C958 C957 1.400 . S
C958 C961 1.386 . S
H959 C975 0.930 . S
H960 C976 0.931 . S
C961 H949 0.929 . S
C961 C955 1.390 . S
C961 C958 1.386 . S
C962 C957 1.490 . S
C962 C964 1.395 . S
C962 C965 1.403 . S
H963 C969 0.930 . S
C964 H950 0.930 . S
C964 C962 1.395 . S
C964 C967 1.403 . S
C965 C962 1.403 . S
C965 C966 1.524 . S
C965 C969 1.400 . S
C966 H951 0.960 . S
C966 H952 0.960 . S
C966 H953 0.960 . S
C966 C965 1.524 . S
C967 C964 1.403 . S
C967 C968 1.392 . S
C967 C971 1.495 . S
C968 C967 1.392 . S
C968 C969 1.385 . S
C968 C970 1.478 . S
C969 H963 0.930 . S
C969 C965 1.400 . S
C969 C968 1.385 . S
C970 C968 1.478 . S
C970 C972 1.381 . S
C970 C976 1.383 . S
C971 C967 1.495 . S
C971 H977 0.959 . S
C971 H978 0.961 . S
C971 H979 0.960 . S
C972 C970 1.381 . S
C972 C973 1.394 . S
C972 H980 0.930 . S
C973 C972 1.394 . S
C973 C974 1.383 . S
C973 H981 0.929 . S
C974 C973 1.383 . S
C974 C975 1.377 . S
C975 H959 0.930 . S
C975 C974 1.377 . S
C975 C976 1.379 . S
C976 H960 0.931 . S
C976 C970 1.383 . S
C976 C975 1.379 . S
H977 C971 0.959 . S
H978 C971 0.961 . S
H979 C971 0.960 . S
H980 C972 0.930 . S
H981 C973 0.929 . S
H982 C990 0.929 . S
H983 C992 0.930 . S
H984 C994 0.930 . S
H985 C997 0.929 . S
H986 C1000 0.930 . S
H987 C1002 0.960 . S
H988 C1002 0.960 . S
H989 C1002 0.960 . S
C990 H982 0.929 . S
C990 C991 1.377 . S
C990 C992 1.384 . S
C991 C990 1.377 . S
C991 C997 1.390 . S
C992 H983 0.930 . S
C992 C990 1.384 . S
C992 C993 1.372 . S
C993 C992 1.372 . S
C993 C994 1.400 . S
C993 C998 1.490 . S
C994 H984 0.930 . S
C994 C993 1.400 . S
C994 C997 1.386 . S
H995 C1011 0.930 . S
H996 C1012 0.931 . S
C997 H985 0.929 . S
C997 C991 1.390 . S
C997 C994 1.386 . S
C998 C993 1.490 . S
C998 C1000 1.395 . S
C998 C1001 1.403 . S
H999 C1005 0.930 . S
C1000 H986 0.930 . S
C1000 C998 1.395 . S
C1000 C1003 1.403 . S
C1001 C998 1.403 . S
C1001 C1002 1.524 . S
C1001 C1005 1.400 . S
C1002 H987 0.960 . S
C1002 H988 0.960 . S
C1002 H989 0.960 . S
C1002 C1001 1.524 . S
C1003 C1000 1.403 . S
C1003 C1004 1.392 . S
C1003 C1007 1.495 . S
C1004 C1003 1.392 . S
C1004 C1005 1.385 . S
C1004 C1006 1.478 . S
C1005 H999 0.930 . S
C1005 C1001 1.400 . S
C1005 C1004 1.385 . S
C1006 C1004 1.478 . S
C1006 C1008 1.381 . S
C1006 C1012 1.383 . S
C1007 C1003 1.495 . S
C1007 H1013 0.959 . S
C1007 H1014 0.961 . S
C1007 H1015 0.960 . S
C1008 C1006 1.381 . S
C1008 C1009 1.394 . S
C1008 H1016 0.930 . S
C1009 C1008 1.394 . S
C1009 C1010 1.383 . S
C1009 H1017 0.929 . S
C1010 C1009 1.383 . S
C1010 C1011 1.377 . S
C1011 H995 0.930 . S
C1011 C1010 1.377 . S
C1011 C1012 1.379 . S
C1012 H996 0.931 . S
C1012 C1006 1.383 . S
C1012 C1011 1.379 . S
H1013 C1007 0.959 . S
H1014 C1007 0.961 . S
H1015 C1007 0.960 . S
H1016 C1008 0.930 . S
H1017 C1009 0.929 . S
H1018 C1026 0.929 . S
H1019 C1028 0.930 . S
H1020 C1030 0.930 . S
H1021 C1033 0.929 . S
H1022 C1036 0.930 . S
H1023 C1038 0.960 . S
H1024 C1038 0.960 . S
H1025 C1038 0.960 . S
C1026 H1018 0.929 . S
C1026 C1027 1.377 . S
C1026 C1028 1.384 . S
C1027 C1026 1.377 . S
C1027 C1033 1.390 . S
C1028 H1019 0.930 . S
C1028 C1026 1.384 . S
C1028 C1029 1.372 . S
C1029 C1028 1.372 . S
C1029 C1030 1.400 . S
C1029 C1034 1.490 . S
C1030 H1020 0.930 . S
C1030 C1029 1.400 . S
C1030 C1033 1.386 . S
H1031 C1047 0.930 . S
H1032 C1048 0.931 . S
C1033 H1021 0.929 . S
C1033 C1027 1.390 . S
C1033 C1030 1.386 . S
C1034 C1029 1.490 . S
C1034 C1036 1.395 . S
C1034 C1037 1.403 . S
H1035 C1041 0.930 . S
C1036 H1022 0.930 . S
C1036 C1034 1.395 . S
C1036 C1039 1.403 . S
C1037 C1034 1.403 . S
C1037 C1038 1.524 . S
C1037 C1041 1.400 . S
C1038 H1023 0.960 . S
C1038 H1024 0.960 . S
C1038 H1025 0.960 . S
C1038 C1037 1.524 . S
C1039 C1036 1.403 . S
C1039 C1040 1.392 . S
C1039 C1043 1.495 . S
C1040 C1039 1.392 . S
C1040 C1041 1.385 . S
C1040 C1042 1.478 . S
C1041 H1035 0.930 . S
C1041 C1037 1.400 . S
C1041 C1040 1.385 . S
C1042 C1040 1.478 . S
C1042 C1044 1.381 . S
C1042 C1048 1.383 . S
C1043 C1039 1.495 . S
C1043 H1049 0.959 . S
C1043 H1050 0.961 . S
C1043 H1051 0.960 . S
C1044 C1042 1.381 . S
C1044 C1045 1.394 . S
C1044 H1052 0.930 . S
C1045 C1044 1.394 . S
C1045 C1046 1.383 . S
C1045 H1053 0.929 . S
C1046 C1045 1.383 . S
C1046 C1047 1.377 . S
C1047 H1031 0.930 . S
C1047 C1046 1.377 . S
C1047 C1048 1.379 . S
C1048 H1032 0.931 . S
C1048 C1042 1.383 . S
C1048 C1047 1.379 . S
H1049 C1043 0.959 . S
H1050 C1043 0.961 . S
H1051 C1043 0.960 . S
H1052 C1044 0.930 . S
H1053 C1045 0.929 . S
H1054 C1062 0.929 . S
H1055 C1064 0.930 . S
H1056 C1066 0.930 . S
H1057 C1069 0.929 . S
H1058 C1072 0.930 . S
H1059 C1074 0.960 . S
H1060 C1074 0.960 . S
H1061 C1074 0.960 . S
C1062 H1054 0.929 . S
C1062 C1063 1.377 . S
C1062 C1064 1.384 . S
C1063 C1062 1.377 . S
C1063 C1069 1.390 . S
C1064 H1055 0.930 . S
C1064 C1062 1.384 . S
C1064 C1065 1.372 . S
C1065 C1064 1.372 . S
C1065 C1066 1.400 . S
C1065 C1070 1.490 . S
C1066 H1056 0.930 . S
C1066 C1065 1.400 . S
C1066 C1069 1.386 . S
H1067 C1083 0.930 . S
H1068 C1084 0.931 . S
C1069 H1057 0.929 . S
C1069 C1063 1.390 . S
C1069 C1066 1.386 . S
C1070 C1065 1.490 . S
C1070 C1072 1.395 . S
C1070 C1073 1.403 . S
H1071 C1077 0.930 . S
C1072 H1058 0.930 . S
C1072 C1070 1.395 . S
C1072 C1075 1.403 . S
C1073 C1070 1.403 . S
C1073 C1074 1.524 . S
C1073 C1077 1.400 . S
C1074 H1059 0.960 . S
C1074 H1060 0.960 . S
C1074 H1061 0.960 . S
C1074 C1073 1.524 . S
C1075 C1072 1.403 . S
C1075 C1076 1.392 . S
C1075 C1079 1.495 . S
C1076 C1075 1.392 . S
C1076 C1077 1.385 . S
C1076 C1078 1.478 . S
C1077 H1071 0.930 . S
C1077 C1073 1.400 . S
C1077 C1076 1.385 . S
C1078 C1076 1.478 . S
C1078 C1080 1.381 . S
C1078 C1084 1.383 . S
C1079 C1075 1.495 . S
C1079 H1085 0.959 . S
C1079 H1086 0.961 . S
C1079 H1087 0.960 . S
C1080 C1078 1.381 . S
C1080 C1081 1.394 . S
C1080 H1088 0.930 . S
C1081 C1080 1.394 . S
C1081 C1082 1.383 . S
C1081 H1089 0.929 . S
C1082 C1081 1.383 . S
C1082 C1083 1.377 . S
C1083 H1067 0.930 . S
C1083 C1082 1.377 . S
C1083 C1084 1.379 . S
C1084 H1068 0.931 . S
C1084 C1078 1.383 . S
C1084 C1083 1.379 . S
H1085 C1079 0.959 . S
H1086 C1079 0.961 . S
H1087 C1079 0.960 . S
H1088 C1080 0.930 . S
H1089 C1081 0.929 . S
H1090 C1098 0.929 . S
H1091 C1100 0.930 . S
H1092 C1102 0.930 . S
H1093 C1105 0.929 . S
H1094 C1108 0.930 . S
H1095 C1110 0.960 . S
H1096 C1110 0.960 . S
H1097 C1110 0.960 . S
C1098 H1090 0.929 . S
C1098 C1099 1.377 . S
C1098 C1100 1.384 . S
C1099 C1098 1.377 . S
C1099 C1105 1.390 . S
C1100 H1091 0.930 . S
C1100 C1098 1.384 . S
C1100 C1101 1.372 . S
C1101 C1100 1.372 . S
C1101 C1102 1.400 . S
C1101 C1106 1.490 . S
C1102 H1092 0.930 . S
C1102 C1101 1.400 . S
C1102 C1105 1.386 . S
H1103 C1119 0.930 . S
H1104 C1120 0.931 . S
C1105 H1093 0.929 . S
C1105 C1099 1.390 . S
C1105 C1102 1.386 . S
C1106 C1101 1.490 . S
C1106 C1108 1.395 . S
C1106 C1109 1.403 . S
H1107 C1113 0.930 . S
C1108 H1094 0.930 . S
C1108 C1106 1.395 . S
C1108 C1111 1.403 . S
C1109 C1106 1.403 . S
C1109 C1110 1.524 . S
C1109 C1113 1.400 . S
C1110 H1095 0.960 . S
C1110 H1096 0.960 . S
C1110 H1097 0.960 . S
C1110 C1109 1.524 . S
C1111 C1108 1.403 . S
C1111 C1112 1.392 . S
C1111 C1115 1.495 . S
C1112 C1111 1.392 . S
C1112 C1113 1.385 . S
C1112 C1114 1.478 . S
C1113 H1107 0.930 . S
C1113 C1109 1.400 . S
C1113 C1112 1.385 . S
C1114 C1112 1.478 . S
C1114 C1116 1.381 . S
C1114 C1120 1.383 . S
C1115 C1111 1.495 . S
C1115 H1121 0.959 . S
C1115 H1122 0.961 . S
C1115 H1123 0.960 . S
C1116 C1114 1.381 . S
C1116 C1117 1.394 . S
C1116 H1124 0.930 . S
C1117 C1116 1.394 . S
C1117 C1118 1.383 . S
C1117 H1125 0.929 . S
C1118 C1117 1.383 . S
C1118 C1119 1.377 . S
C1119 H1103 0.930 . S
C1119 C1118 1.377 . S
C1119 C1120 1.379 . S
C1120 H1104 0.931 . S
C1120 C1114 1.383 . S
C1120 C1119 1.379 . S
H1121 C1115 0.959 . S
H1122 C1115 0.961 . S
H1123 C1115 0.960 . S
H1124 C1116 0.930 . S
H1125 C1117 0.929 . S
H1126 C1134 0.929 . S
H1127 C1136 0.930 . S
H1128 C1138 0.930 . S
H1129 C1141 0.929 . S
H1130 C1144 0.930 . S
H1131 C1146 0.960 . S
H1132 C1146 0.960 . S
H1133 C1146 0.960 . S
C1134 H1126 0.929 . S
C1134 C1135 1.377 . S
C1134 C1136 1.384 . S
C1135 C1134 1.377 . S
C1135 C1141 1.390 . S
C1136 H1127 0.930 . S
C1136 C1134 1.384 . S
C1136 C1137 1.372 . S
C1137 C1136 1.372 . S
C1137 C1138 1.400 . S
C1137 C1142 1.490 . S
C1138 H1128 0.930 . S
C1138 C1137 1.400 . S
C1138 C1141 1.386 . S
H1139 C1155 0.930 . S
H1140 C1156 0.931 . S
C1141 H1129 0.929 . S
C1141 C1135 1.390 . S
C1141 C1138 1.386 . S
C1142 C1137 1.490 . S
C1142 C1144 1.395 . S
C1142 C1145 1.403 . S
H1143 C1149 0.930 . S
C1144 H1130 0.930 . S
C1144 C1142 1.395 . S
C1144 C1147 1.403 . S
C1145 C1142 1.403 . S
C1145 C1146 1.524 . S
C1145 C1149 1.400 . S
C1146 H1131 0.960 . S
C1146 H1132 0.960 . S
C1146 H1133 0.960 . S
C1146 C1145 1.524 . S
C1147 C1144 1.403 . S
C1147 C1148 1.392 . S
C1147 C1151 1.495 . S
C1148 C1147 1.392 . S
C1148 C1149 1.385 . S
C1148 C1150 1.478 . S
C1149 H1143 0.930 . S
C1149 C1145 1.400 . S
C1149 C1148 1.385 . S
C1150 C1148 1.478 . S
C1150 C1152 1.381 . S
C1150 C1156 1.383 . S
C1151 C1147 1.495 . S
C1151 H1157 0.959 . S
C1151 H1158 0.961 . S
C1151 H1159 0.960 . S
C1152 C1150 1.381 . S
C1152 C1153 1.394 . S
C1152 H1160 0.930 . S
C1153 C1152 1.394 . S
C1153 C1154 1.383 . S
C1153 H1161 0.929 . S
C1154 C1153 1.383 . S
C1154 C1155 1.377 . S
C1155 H1139 0.930 . S
C1155 C1154 1.377 . S
C1155 C1156 1.379 . S
C1156 H1140 0.931 . S
C1156 C1150 1.383 . S
C1156 C1155 1.379 . S
H1157 C1151 0.959 . S
H1158 C1151 0.961 . S
H1159 C1151 0.960 . S
H1160 C1152 0.930 . S
H1161 C1153 0.929 . S
H1162 C1170 0.929 . S
H1163 C1172 0.930 . S
H1164 C1174 0.930 . S
H1165 C1177 0.929 . S
H1166 C1180 0.930 . S
H1167 C1182 0.960 . S
H1168 C1182 0.960 . S
H1169 C1182 0.960 . S
C1170 H1162 0.929 . S
C1170 C1171 1.377 . S
C1170 C1172 1.384 . S
C1171 C1170 1.377 . S
C1171 C1177 1.390 . S
C1172 H1163 0.930 . S
C1172 C1170 1.384 . S
C1172 C1173 1.372 . S
C1173 C1172 1.372 . S
C1173 C1174 1.400 . S
C1173 C1178 1.490 . S
C1174 H1164 0.930 . S
C1174 C1173 1.400 . S
C1174 C1177 1.386 . S
H1175 C1191 0.930 . S
H1176 C1192 0.931 . S
C1177 H1165 0.929 . S
C1177 C1171 1.390 . S
C1177 C1174 1.386 . S
C1178 C1173 1.490 . S
C1178 C1180 1.395 . S
C1178 C1181 1.403 . S
H1179 C1185 0.890 1_554 S
C1180 H1166 0.930 . S
C1180 C1178 1.395 . S
C1180 C1183 1.403 . S
C1181 C1178 1.403 . S
C1181 C1182 1.524 . S
C1181 C1185 1.400 . S
C1182 H1167 0.960 . S
C1182 H1168 0.960 . S
C1182 H1169 0.960 . S
C1182 C1181 1.524 . S
C1183 C1180 1.403 . S
C1183 C1184 1.392 . S
C1183 C1187 1.495 . S
C1184 C1183 1.392 . S
C1184 C1185 1.385 . S
C1184 C1186 1.478 1_556 S
C1185 H1179 0.890 1_556 S
C1185 C1181 1.400 . S
C1185 C1184 1.385 . S
C1186 C1184 1.478 1_554 S
C1186 C1188 1.381 . S
C1186 C1192 1.383 . S
C1187 C1183 1.495 . S
C1187 H1193 0.959 . S
C1187 H1194 0.961 . S
C1187 H1195 0.960 . S
C1188 C1186 1.381 . S
C1188 C1189 1.394 . S
C1188 H1196 0.930 1_554 S
C1189 C1188 1.394 . S
C1189 C1190 1.383 . S
C1189 H1197 0.929 . S
C1190 C1189 1.383 . S
C1190 C1191 1.377 . S
C1191 H1175 0.930 . S
C1191 C1190 1.377 . S
C1191 C1192 1.379 . S
C1192 H1176 0.931 . S
C1192 C1186 1.383 . S
C1192 C1191 1.379 . S
H1193 C1187 0.959 . S
H1194 C1187 0.961 . S
H1195 C1187 0.960 . S
H1196 C1188 0.930 1_556 S
H1197 C1189 0.929 . S
H1198 C1206 0.929 . S
H1199 C1208 0.930 . S
H1200 C1210 0.930 . S
H1201 C1213 0.929 . S
H1202 C1216 0.930 . S
H1203 C1218 0.960 . S
H1204 C1218 0.960 . S
H1205 C1218 0.960 . S
C1206 H1198 0.929 . S
C1206 C1207 1.377 . S
C1206 C1208 1.384 . S
C1207 C1206 1.377 . S
C1207 C1213 1.390 . S
C1208 H1199 0.930 . S
C1208 C1206 1.384 . S
C1208 C1209 1.372 . S
C1209 C1208 1.372 . S
C1209 C1210 1.400 . S
C1209 C1214 1.490 . S
C1210 H1200 0.930 . S
C1210 C1209 1.400 . S
C1210 C1213 1.386 . S
H1211 C1227 0.930 . S
H1212 C1228 0.931 . S
C1213 H1201 0.929 . S
C1213 C1207 1.390 . S
C1213 C1210 1.386 . S
C1214 C1209 1.490 . S
C1214 C1216 1.395 . S
C1214 C1217 1.403 . S
H1215 C1221 0.930 . S
C1216 H1202 0.930 . S
C1216 C1214 1.395 . S
C1216 C1219 1.403 . S
C1217 C1214 1.403 . S
C1217 C1218 1.524 . S
C1217 C1221 1.400 . S
C1218 H1203 0.960 . S
C1218 H1204 0.960 . S
C1218 H1205 0.960 . S
C1218 C1217 1.524 . S
C1219 C1216 1.403 . S
C1219 C1220 1.392 . S
C1219 C1223 1.495 . S
C1220 C1219 1.392 . S
C1220 C1221 1.385 . S
C1220 C1222 1.478 . S
C1221 H1215 0.930 . S
C1221 C1217 1.400 . S
C1221 C1220 1.385 . S
C1222 C1220 1.478 . S
C1222 C1224 1.381 . S
C1222 C1228 1.383 . S
C1223 C1219 1.495 . S
C1223 H1229 0.959 . S
C1223 H1230 0.961 . S
C1223 H1231 0.960 . S
C1224 C1222 1.381 . S
C1224 C1225 1.394 . S
C1224 H1232 0.930 . S
C1225 C1224 1.394 . S
C1225 C1226 1.383 . S
C1225 H1233 0.929 . S
C1226 C1225 1.383 . S
C1226 C1227 1.377 . S
C1227 H1211 0.930 . S
C1227 C1226 1.377 . S
C1227 C1228 1.379 . S
C1228 H1212 0.931 . S
C1228 C1222 1.383 . S
C1228 C1227 1.379 . S
H1229 C1223 0.959 . S
H1230 C1223 0.961 . S
H1231 C1223 0.960 . S
H1232 C1224 0.930 . S
H1233 C1225 0.929 . S
H1234 C1242 0.929 . S
H1235 C1244 0.930 . S
H1236 C1246 0.930 . S
H1237 C1249 0.929 . S
H1238 C1252 0.930 . S
H1239 C1254 0.960 . S
H1240 C1254 0.960 . S
H1241 C1254 0.960 . S
C1242 H1234 0.929 . S
C1242 C1243 1.377 . S
C1242 C1244 1.384 . S
C1243 C1242 1.377 . S
C1243 C1249 1.390 . S
C1244 H1235 0.930 . S
C1244 C1242 1.384 . S
C1244 C1245 1.372 . S
C1245 C1244 1.372 . S
C1245 C1246 1.400 . S
C1245 C1250 1.490 . S
C1246 H1236 0.930 . S
C1246 C1245 1.400 . S
C1246 C1249 1.386 . S
H1247 C1263 0.930 . S
H1248 C1264 0.931 . S
C1249 H1237 0.929 . S
C1249 C1243 1.390 . S
C1249 C1246 1.386 . S
C1250 C1245 1.490 . S
C1250 C1252 1.395 . S
C1250 C1253 1.403 . S
H1251 C1257 0.930 . S
C1252 H1238 0.930 . S
C1252 C1250 1.395 . S
C1252 C1255 1.403 . S
C1253 C1250 1.403 . S
C1253 C1254 1.524 . S
C1253 C1257 1.400 . S
C1254 H1239 0.960 . S
C1254 H1240 0.960 . S
C1254 H1241 0.960 . S
C1254 C1253 1.524 . S
C1255 C1252 1.403 . S
C1255 C1256 1.392 . S
C1255 C1259 1.495 . S
C1256 C1255 1.392 . S
C1256 C1257 1.385 . S
C1256 C1258 1.478 . S
C1257 H1251 0.930 . S
C1257 C1253 1.400 . S
C1257 C1256 1.385 . S
C1258 C1256 1.478 . S
C1258 C1260 1.381 . S
C1258 C1264 1.383 . S
C1259 C1255 1.495 . S
C1259 H1265 0.959 . S
C1259 H1266 0.961 . S
C1259 H1267 0.960 . S
C1260 C1258 1.381 . S
C1260 C1261 1.394 . S
C1260 H1268 0.930 . S
C1261 C1260 1.394 . S
C1261 C1262 1.383 . S
C1261 H1269 0.929 . S
C1262 C1261 1.383 . S
C1262 C1263 1.377 . S
C1263 H1247 0.930 . S
C1263 C1262 1.377 . S
C1263 C1264 1.379 . S
C1264 H1248 0.931 . S
C1264 C1258 1.383 . S
C1264 C1263 1.379 . S
H1265 C1259 0.959 . S
H1266 C1259 0.961 . S
H1267 C1259 0.960 . S
H1268 C1260 0.930 . S
H1269 C1261 0.929 . S
C434 C110 1.679 . S
C415 C10 1.688 . S
C470 C179 1.418 . S
C451 C15 1.408 . S
C506 C117 1.673 . S
C487 C26 1.676 . S
C542 C180 1.449 . S
C523 C37 1.445 . S
C578 C233 1.812 . S
C559 C4 1.821 . S
C614 C269 1.444 . S
C595 C16 1.430 . S
C631 C27 1.782 . S
C650 C329 1.786 . S
C686 C392 1.488 . S
C667 C43 1.491 . S
C722 C232 1.596 . S
C703 C21 1.580 . S
C739 C32 1.414 . S
C758 C276 1.410 . S
C794 C322 1.769 . S
C775 C38 1.765 . S
C830 C391 1.719 . S
C811 C5 1.727 . S
C847 C49 1.478 . S
C866 C170 1.495 . S
C902 C127 1.766 1_655 S
C883 C60 1.779 . S
C919 C76 1.501 . S
C938 C163 1.499 . S
C955 C81 1.747 . S
C974 C126 1.748 . S
C1010 C338 1.498 . S
C991 C54 1.501 . S
C1046 C382 1.728 . S
C1027 C59 1.739 . S
C1082 C216 1.582 . S
C1063 C70 1.592 . S
C1099 C87 1.653 . S
C1118 C285 1.640 . S
C1154 C339 1.652 . S
C1135 C65 1.670 . S
C1190 C375 1.778 . S
C1171 C71 1.761 . S
C1226 C223 1.586 . S
C1207 C82 1.569 . S
C1243 C48 1.552 . S
C1262 C286 1.555 . S
