# Generated by pormake.
# Topology tbo, (3,4)-cn, num edge types: 1
# Building blocks:
#     Node 0, Type 0, BuildingBlock: OLANEW_clean_sbu_2, # of connection points: 3
#     Node 1, Type 0, BuildingBlock: OLANEW_clean_sbu_2, # of connection points: 3
#     Node 2, Type 0, BuildingBlock: OLANEW_clean_sbu_2, # of connection points: 3
#     Node 3, Type 0, BuildingBlock: OLANEW_clean_sbu_2, # of connection points: 3
#     Node 4, Type 0, BuildingBlock: OLANEW_clean_sbu_2, # of connection points: 3
#     Node 5, Type 0, BuildingBlock: OLANEW_clean_sbu_2, # of connection points: 3
#     Node 6, Type 0, BuildingBlock: OLANEW_clean_sbu_2, # of connection points: 3
#     Node 7, Type 0, BuildingBlock: OLANEW_clean_sbu_2, # of connection points: 3
#     Node 8, Type 0, BuildingBlock: OLANEW_clean_sbu_2, # of connection points: 3
#     Node 9, Type 0, BuildingBlock: OLANEW_clean_sbu_2, # of connection points: 3
#     Node 10, Type 0, BuildingBlock: OLANEW_clean_sbu_2, # of connection points: 3
#     Node 11, Type 0, BuildingBlock: OLANEW_clean_sbu_2, # of connection points: 3
#     Node 12, Type 0, BuildingBlock: OLANEW_clean_sbu_2, # of connection points: 3
#     Node 13, Type 0, BuildingBlock: OLANEW_clean_sbu_2, # of connection points: 3
#     Node 14, Type 0, BuildingBlock: OLANEW_clean_sbu_2, # of connection points: 3
#     Node 15, Type 0, BuildingBlock: OLANEW_clean_sbu_2, # of connection points: 3
#     Node 16, Type 0, BuildingBlock: OLANEW_clean_sbu_2, # of connection points: 3
#     Node 17, Type 0, BuildingBlock: OLANEW_clean_sbu_2, # of connection points: 3
#     Node 18, Type 0, BuildingBlock: OLANEW_clean_sbu_2, # of connection points: 3
#     Node 19, Type 0, BuildingBlock: OLANEW_clean_sbu_2, # of connection points: 3
#     Node 20, Type 0, BuildingBlock: OLANEW_clean_sbu_2, # of connection points: 3
#     Node 21, Type 0, BuildingBlock: OLANEW_clean_sbu_2, # of connection points: 3
#     Node 22, Type 0, BuildingBlock: OLANEW_clean_sbu_2, # of connection points: 3
#     Node 23, Type 0, BuildingBlock: OLANEW_clean_sbu_2, # of connection points: 3
#     Node 24, Type 0, BuildingBlock: OLANEW_clean_sbu_2, # of connection points: 3
#     Node 25, Type 0, BuildingBlock: OLANEW_clean_sbu_2, # of connection points: 3
#     Node 26, Type 0, BuildingBlock: OLANEW_clean_sbu_2, # of connection points: 3
#     Node 27, Type 0, BuildingBlock: OLANEW_clean_sbu_2, # of connection points: 3
#     Node 28, Type 0, BuildingBlock: OLANEW_clean_sbu_2, # of connection points: 3
#     Node 29, Type 0, BuildingBlock: OLANEW_clean_sbu_2, # of connection points: 3
#     Node 30, Type 0, BuildingBlock: OLANEW_clean_sbu_2, # of connection points: 3
#     Node 31, Type 0, BuildingBlock: OLANEW_clean_sbu_2, # of connection points: 3
#     Node 32, Type 1, BuildingBlock: NAWXER_clean_linker_0, # of connection points: 4
#     Node 33, Type 1, BuildingBlock: NAWXER_clean_linker_0, # of connection points: 4
#     Node 34, Type 1, BuildingBlock: NAWXER_clean_linker_0, # of connection points: 4
#     Node 35, Type 1, BuildingBlock: NAWXER_clean_linker_0, # of connection points: 4
#     Node 36, Type 1, BuildingBlock: NAWXER_clean_linker_0, # of connection points: 4
#     Node 37, Type 1, BuildingBlock: NAWXER_clean_linker_0, # of connection points: 4
#     Node 38, Type 1, BuildingBlock: NAWXER_clean_linker_0, # of connection points: 4
#     Node 39, Type 1, BuildingBlock: NAWXER_clean_linker_0, # of connection points: 4
#     Node 40, Type 1, BuildingBlock: NAWXER_clean_linker_0, # of connection points: 4
#     Node 41, Type 1, BuildingBlock: NAWXER_clean_linker_0, # of connection points: 4
#     Node 42, Type 1, BuildingBlock: NAWXER_clean_linker_0, # of connection points: 4
#     Node 43, Type 1, BuildingBlock: NAWXER_clean_linker_0, # of connection points: 4
#     Node 44, Type 1, BuildingBlock: NAWXER_clean_linker_0, # of connection points: 4
#     Node 45, Type 1, BuildingBlock: NAWXER_clean_linker_0, # of connection points: 4
#     Node 46, Type 1, BuildingBlock: NAWXER_clean_linker_0, # of connection points: 4
#     Node 47, Type 1, BuildingBlock: NAWXER_clean_linker_0, # of connection points: 4
#     Node 48, Type 1, BuildingBlock: NAWXER_clean_linker_0, # of connection points: 4
#     Node 49, Type 1, BuildingBlock: NAWXER_clean_linker_0, # of connection points: 4
#     Node 50, Type 1, BuildingBlock: NAWXER_clean_linker_0, # of connection points: 4
#     Node 51, Type 1, BuildingBlock: NAWXER_clean_linker_0, # of connection points: 4
#     Node 52, Type 1, BuildingBlock: NAWXER_clean_linker_0, # of connection points: 4
#     Node 53, Type 1, BuildingBlock: NAWXER_clean_linker_0, # of connection points: 4
#     Node 54, Type 1, BuildingBlock: NAWXER_clean_linker_0, # of connection points: 4
#     Node 55, Type 1, BuildingBlock: NAWXER_clean_linker_0, # of connection points: 4
#     Edge 56, Type (0, 1), BuildingBlock: ZUJKAS_clean_linker_0, # of connection points: 2
#     Edge 57, Type (0, 1), BuildingBlock: ZUJKAS_clean_linker_0, # of connection points: 2
#     Edge 58, Type (0, 1), BuildingBlock: ZUJKAS_clean_linker_0, # of connection points: 2
#     Edge 59, Type (0, 1), BuildingBlock: ZUJKAS_clean_linker_0, # of connection points: 2
#     Edge 60, Type (0, 1), BuildingBlock: ZUJKAS_clean_linker_0, # of connection points: 2
#     Edge 61, Type (0, 1), BuildingBlock: ZUJKAS_clean_linker_0, # of connection points: 2
#     Edge 62, Type (0, 1), BuildingBlock: ZUJKAS_clean_linker_0, # of connection points: 2
#     Edge 63, Type (0, 1), BuildingBlock: ZUJKAS_clean_linker_0, # of connection points: 2
#     Edge 64, Type (0, 1), BuildingBlock: ZUJKAS_clean_linker_0, # of connection points: 2
#     Edge 65, Type (0, 1), BuildingBlock: ZUJKAS_clean_linker_0, # of connection points: 2
#     Edge 66, Type (0, 1), BuildingBlock: ZUJKAS_clean_linker_0, # of connection points: 2
#     Edge 67, Type (0, 1), BuildingBlock: ZUJKAS_clean_linker_0, # of connection points: 2
#     Edge 68, Type (0, 1), BuildingBlock: ZUJKAS_clean_linker_0, # of connection points: 2
#     Edge 69, Type (0, 1), BuildingBlock: ZUJKAS_clean_linker_0, # of connection points: 2
#     Edge 70, Type (0, 1), BuildingBlock: ZUJKAS_clean_linker_0, # of connection points: 2
#     Edge 71, Type (0, 1), BuildingBlock: ZUJKAS_clean_linker_0, # of connection points: 2
#     Edge 72, Type (0, 1), BuildingBlock: ZUJKAS_clean_linker_0, # of connection points: 2
#     Edge 73, Type (0, 1), BuildingBlock: ZUJKAS_clean_linker_0, # of connection points: 2
#     Edge 74, Type (0, 1), BuildingBlock: ZUJKAS_clean_linker_0, # of connection points: 2
#     Edge 75, Type (0, 1), BuildingBlock: ZUJKAS_clean_linker_0, # of connection points: 2
#     Edge 76, Type (0, 1), BuildingBlock: ZUJKAS_clean_linker_0, # of connection points: 2
#     Edge 77, Type (0, 1), BuildingBlock: ZUJKAS_clean_linker_0, # of connection points: 2
#     Edge 78, Type (0, 1), BuildingBlock: ZUJKAS_clean_linker_0, # of connection points: 2
#     Edge 79, Type (0, 1), BuildingBlock: ZUJKAS_clean_linker_0, # of connection points: 2
#     Edge 80, Type (0, 1), BuildingBlock: ZUJKAS_clean_linker_0, # of connection points: 2
#     Edge 81, Type (0, 1), BuildingBlock: ZUJKAS_clean_linker_0, # of connection points: 2
#     Edge 82, Type (0, 1), BuildingBlock: ZUJKAS_clean_linker_0, # of connection points: 2
#     Edge 83, Type (0, 1), BuildingBlock: ZUJKAS_clean_linker_0, # of connection points: 2
#     Edge 84, Type (0, 1), BuildingBlock: ZUJKAS_clean_linker_0, # of connection points: 2
#     Edge 85, Type (0, 1), BuildingBlock: ZUJKAS_clean_linker_0, # of connection points: 2
#     Edge 86, Type (0, 1), BuildingBlock: ZUJKAS_clean_linker_0, # of connection points: 2
#     Edge 87, Type (0, 1), BuildingBlock: ZUJKAS_clean_linker_0, # of connection points: 2
#     Edge 88, Type (0, 1), BuildingBlock: ZUJKAS_clean_linker_0, # of connection points: 2
#     Edge 89, Type (0, 1), BuildingBlock: ZUJKAS_clean_linker_0, # of connection points: 2
#     Edge 90, Type (0, 1), BuildingBlock: ZUJKAS_clean_linker_0, # of connection points: 2
#     Edge 91, Type (0, 1), BuildingBlock: ZUJKAS_clean_linker_0, # of connection points: 2
#     Edge 92, Type (0, 1), BuildingBlock: ZUJKAS_clean_linker_0, # of connection points: 2
#     Edge 93, Type (0, 1), BuildingBlock: ZUJKAS_clean_linker_0, # of connection points: 2
#     Edge 94, Type (0, 1), BuildingBlock: ZUJKAS_clean_linker_0, # of connection points: 2
#     Edge 95, Type (0, 1), BuildingBlock: ZUJKAS_clean_linker_0, # of connection points: 2
#     Edge 96, Type (0, 1), BuildingBlock: ZUJKAS_clean_linker_0, # of connection points: 2
#     Edge 97, Type (0, 1), BuildingBlock: ZUJKAS_clean_linker_0, # of connection points: 2
#     Edge 98, Type (0, 1), BuildingBlock: ZUJKAS_clean_linker_0, # of connection points: 2
#     Edge 99, Type (0, 1), BuildingBlock: ZUJKAS_clean_linker_0, # of connection points: 2
#     Edge 100, Type (0, 1), BuildingBlock: ZUJKAS_clean_linker_0, # of connection points: 2
#     Edge 101, Type (0, 1), BuildingBlock: ZUJKAS_clean_linker_0, # of connection points: 2
#     Edge 102, Type (0, 1), BuildingBlock: ZUJKAS_clean_linker_0, # of connection points: 2
#     Edge 103, Type (0, 1), BuildingBlock: ZUJKAS_clean_linker_0, # of connection points: 2
#     Edge 104, Type (0, 1), BuildingBlock: ZUJKAS_clean_linker_0, # of connection points: 2
#     Edge 105, Type (0, 1), BuildingBlock: ZUJKAS_clean_linker_0, # of connection points: 2
#     Edge 106, Type (0, 1), BuildingBlock: ZUJKAS_clean_linker_0, # of connection points: 2
#     Edge 107, Type (0, 1), BuildingBlock: ZUJKAS_clean_linker_0, # of connection points: 2
#     Edge 108, Type (0, 1), BuildingBlock: ZUJKAS_clean_linker_0, # of connection points: 2
#     Edge 109, Type (0, 1), BuildingBlock: ZUJKAS_clean_linker_0, # of connection points: 2
#     Edge 110, Type (0, 1), BuildingBlock: ZUJKAS_clean_linker_0, # of connection points: 2
#     Edge 111, Type (0, 1), BuildingBlock: ZUJKAS_clean_linker_0, # of connection points: 2
#     Edge 112, Type (0, 1), BuildingBlock: ZUJKAS_clean_linker_0, # of connection points: 2
#     Edge 113, Type (0, 1), BuildingBlock: ZUJKAS_clean_linker_0, # of connection points: 2
#     Edge 114, Type (0, 1), BuildingBlock: ZUJKAS_clean_linker_0, # of connection points: 2
#     Edge 115, Type (0, 1), BuildingBlock: ZUJKAS_clean_linker_0, # of connection points: 2
#     Edge 116, Type (0, 1), BuildingBlock: ZUJKAS_clean_linker_0, # of connection points: 2
#     Edge 117, Type (0, 1), BuildingBlock: ZUJKAS_clean_linker_0, # of connection points: 2
#     Edge 118, Type (0, 1), BuildingBlock: ZUJKAS_clean_linker_0, # of connection points: 2
#     Edge 119, Type (0, 1), BuildingBlock: ZUJKAS_clean_linker_0, # of connection points: 2
#     Edge 120, Type (0, 1), BuildingBlock: ZUJKAS_clean_linker_0, # of connection points: 2
#     Edge 121, Type (0, 1), BuildingBlock: ZUJKAS_clean_linker_0, # of connection points: 2
#     Edge 122, Type (0, 1), BuildingBlock: ZUJKAS_clean_linker_0, # of connection points: 2
#     Edge 123, Type (0, 1), BuildingBlock: ZUJKAS_clean_linker_0, # of connection points: 2
#     Edge 124, Type (0, 1), BuildingBlock: ZUJKAS_clean_linker_0, # of connection points: 2
#     Edge 125, Type (0, 1), BuildingBlock: ZUJKAS_clean_linker_0, # of connection points: 2
#     Edge 126, Type (0, 1), BuildingBlock: ZUJKAS_clean_linker_0, # of connection points: 2
#     Edge 127, Type (0, 1), BuildingBlock: ZUJKAS_clean_linker_0, # of connection points: 2
#     Edge 128, Type (0, 1), BuildingBlock: ZUJKAS_clean_linker_0, # of connection points: 2
#     Edge 129, Type (0, 1), BuildingBlock: ZUJKAS_clean_linker_0, # of connection points: 2
#     Edge 130, Type (0, 1), BuildingBlock: ZUJKAS_clean_linker_0, # of connection points: 2
#     Edge 131, Type (0, 1), BuildingBlock: ZUJKAS_clean_linker_0, # of connection points: 2
#     Edge 132, Type (0, 1), BuildingBlock: ZUJKAS_clean_linker_0, # of connection points: 2
#     Edge 133, Type (0, 1), BuildingBlock: ZUJKAS_clean_linker_0, # of connection points: 2
#     Edge 134, Type (0, 1), BuildingBlock: ZUJKAS_clean_linker_0, # of connection points: 2
#     Edge 135, Type (0, 1), BuildingBlock: ZUJKAS_clean_linker_0, # of connection points: 2
#     Edge 136, Type (0, 1), BuildingBlock: ZUJKAS_clean_linker_0, # of connection points: 2
#     Edge 137, Type (0, 1), BuildingBlock: ZUJKAS_clean_linker_0, # of connection points: 2
#     Edge 138, Type (0, 1), BuildingBlock: ZUJKAS_clean_linker_0, # of connection points: 2
#     Edge 139, Type (0, 1), BuildingBlock: ZUJKAS_clean_linker_0, # of connection points: 2
#     Edge 140, Type (0, 1), BuildingBlock: ZUJKAS_clean_linker_0, # of connection points: 2
#     Edge 141, Type (0, 1), BuildingBlock: ZUJKAS_clean_linker_0, # of connection points: 2
#     Edge 142, Type (0, 1), BuildingBlock: ZUJKAS_clean_linker_0, # of connection points: 2
#     Edge 143, Type (0, 1), BuildingBlock: ZUJKAS_clean_linker_0, # of connection points: 2
#     Edge 144, Type (0, 1), BuildingBlock: ZUJKAS_clean_linker_0, # of connection points: 2
#     Edge 145, Type (0, 1), BuildingBlock: ZUJKAS_clean_linker_0, # of connection points: 2
#     Edge 146, Type (0, 1), BuildingBlock: ZUJKAS_clean_linker_0, # of connection points: 2
#     Edge 147, Type (0, 1), BuildingBlock: ZUJKAS_clean_linker_0, # of connection points: 2
#     Edge 148, Type (0, 1), BuildingBlock: ZUJKAS_clean_linker_0, # of connection points: 2
#     Edge 149, Type (0, 1), BuildingBlock: ZUJKAS_clean_linker_0, # of connection points: 2
#     Edge 150, Type (0, 1), BuildingBlock: ZUJKAS_clean_linker_0, # of connection points: 2
#     Edge 151, Type (0, 1), BuildingBlock: ZUJKAS_clean_linker_0, # of connection points: 2
# Relax obj value: 0.022
# Max RMSD: 0.137
# Mean RMSD: 0.095
data_MOF--net-tbo--node1-OLANEW_clean_sbu_2--node2-NAWXER_clean_linker_0--edge1-ZUJKAS_clean_linker_0
_symmetry_space_group_name_H-M    P1
_symmetry_Int_Tables_number       1
_symmetry_cell_setting            triclinic
loop_
_symmetry_equiv_pos_as_xyz
'x, y, z'
_cell_length_a     111.31117
_cell_length_b     114.75806
_cell_length_c     111.54855
_cell_angle_alpha  95.570745
_cell_angle_beta   88.267599
_cell_angle_gamma 96.951156
loop_
_atom_site_label
_atom_site_type_symbol
_atom_site_fract_x
_atom_site_fract_y
_atom_site_fract_z
_atom_type_partial_charge
O0 O 0.20823 0.1689 0.17252 0.0
Cd1 Cd 0.19671 0.1588 0.18836 0.0
O2 O 0.19955 0.1853 0.1751 0.0
Cd3 Cd 0.18578 0.18071 0.18886 0.0
O4 O 0.16892 0.18466 0.19831 0.0
C5 C 0.16464 0.1937 0.19522 0.0
O6 O 0.17052 0.19969 0.18697 0.0
C7 C 0.20731 0.17924 0.16973 0.0
C8 C 0.20833 0.14033 0.19557 0.0
O9 O 0.2011 0.13867 0.18668 0.0
O10 O 0.21008 0.15072 0.20106 0.0
O11 O 0.85639 0.19143 0.17326 0.0
Cd12 Cd 0.83825 0.17897 0.16574 0.0
O13 O 0.86838 0.17826 0.1665 0.0
Cd14 Cd 0.85335 0.16445 0.16264 0.0
O15 O 0.84095 0.14923 0.16726 0.0
C16 C 0.83423 0.15049 0.1766 0.0
O17 O 0.83455 0.16096 0.18259 0.0
C18 C 0.867 0.18845 0.17155 0.0
C19 C 0.83079 0.18561 0.14399 0.0
O20 O 0.82634 0.18961 0.15408 0.0
O21 O 0.83877 0.17846 0.14419 0.0
O22 O 0.86526 0.8357 0.17897 0.0
Cd23 Cd 0.87132 0.84955 0.19637 0.0
O24 O 0.86827 0.84933 0.16629 0.0
Cd25 Cd 0.87131 0.86381 0.18047 0.0
O26 O 0.86746 0.87945 0.192 0.0
C27 C 0.86077 0.87837 0.20136 0.0
O28 O 0.85684 0.86775 0.20431 0.0
C29 C 0.86545 0.8386 0.16824 0.0
C30 C 0.89215 0.84373 0.20642 0.0
O31 O 0.8816 0.83962 0.2101 0.0
O32 O 0.89283 0.85069 0.19805 0.0
O33 O 0.22574 0.84092 0.18573 0.0
Cd34 Cd 0.21321 0.822 0.18187 0.0
O35 O 0.23956 0.83459 0.19633 0.0
Cd36 Cd 0.22825 0.8178 0.19706 0.0
O37 O 0.21065 0.81014 0.20351 0.0
C38 C 0.20422 0.81785 0.20826 0.0
O39 O 0.20871 0.82901 0.20879 0.0
C40 C 0.23565 0.84289 0.19138 0.0
C41 C 0.21923 0.81077 0.15964 0.0
O42 O 0.21154 0.81829 0.16051 0.0
O43 O 0.22401 0.80848 0.16932 0.0
O44 O 0.20965 0.86151 0.84842 0.0
Cd45 Cd 0.19696 0.84313 0.85184 0.0
O46 O 0.19538 0.87243 0.85483 0.0
Cd47 Cd 0.18184 0.85726 0.85671 0.0
O48 O 0.16678 0.84416 0.85085 0.0
C49 C 0.16375 0.84435 0.83998 0.0
O50 O 0.16984 0.85205 0.83342 0.0
C51 C 0.20609 0.87163 0.85078 0.0
C52 C 0.2062 0.83057 0.86892 0.0
O53 O 0.20863 0.82845 0.85767 0.0
O54 O 0.19948 0.8387 0.87209 0.0
O55 O 0.2037 0.18441 0.86459 0.0
Cd56 Cd 0.19324 0.17911 0.84553 0.0
O57 O 0.18703 0.18236 0.87568 0.0
Cd58 Cd 0.17521 0.17981 0.86018 0.0
O59 O 0.16174 0.18433 0.84818 0.0
C60 C 0.15892 0.19475 0.85022 0.0
O61 O 0.1643 0.20174 0.859 0.0
C62 C 0.19849 0.18453 0.8749 0.0
C63 C 0.20115 0.15867 0.83406 0.0
O64 O 0.2065 0.16887 0.83216 0.0
O65 O 0.19194 0.15814 0.84125 0.0
O66 O 0.81981 0.25184 0.82376 0.0
Cd67 Cd 0.82732 0.25857 0.80455 0.0
O68 O 0.82586 0.23462 0.81822 0.0
Cd69 Cd 0.82717 0.216 0.81993 0.0
O70 O 0.82663 0.19689 0.81929 0.0
C71 C 0.81945 0.19103 0.82618 0.0
O72 O 0.81257 0.19668 0.83394 0.0
C73 C 0.82097 0.24142 0.8261 0.0
C74 C 0.85213 0.25736 0.80199 0.0
O75 O 0.84804 0.26662 0.80708 0.0
O76 O 0.84446 0.24869 0.79803 0.0
O77 O 0.87325 0.85252 0.83456 0.0
Cd78 Cd 0.85759 0.86197 0.84649 0.0
O79 O 0.8722 0.83721 0.84525 0.0
Cd80 Cd 0.85862 0.84156 0.85905 0.0
O81 O 0.8491 0.83661 0.87567 0.0
C82 C 0.84736 0.82561 0.87681 0.0
O83 O 0.85088 0.81826 0.86799 0.0
C84 C 0.87676 0.84273 0.83651 0.0
C85 C 0.85071 0.88169 0.83658 0.0
O86 O 0.85938 0.88276 0.84407 0.0
O87 O 0.84537 0.8713 0.83369 0.0
O88 O 0.20932 0.67329 0.67626 0.0
Cd89 Cd 0.19785 0.66437 0.69284 0.0
O90 O 0.19748 0.68714 0.67469 0.0
Cd91 Cd 0.18417 0.68337 0.68911 0.0
O92 O 0.16801 0.68735 0.69978 0.0
C93 C 0.15795 0.6864 0.69444 0.0
O94 O 0.15754 0.68246 0.68298 0.0
C95 C 0.2067 0.68209 0.67116 0.0
C96 C 0.20946 0.64673 0.70179 0.0
O97 O 0.20241 0.64439 0.69278 0.0
O98 O 0.21105 0.6574 0.70658 0.0
O99 O 0.85435 0.69399 0.67641 0.0
Cd100 Cd 0.83613 0.68188 0.66864 0.0
O101 O 0.86632 0.68114 0.66877 0.0
Cd102 Cd 0.85131 0.66739 0.66462 0.0
O103 O 0.83941 0.65174 0.66896 0.0
C104 C 0.83321 0.65248 0.6787 0.0
O105 O 0.83371 0.66271 0.68521 0.0
C106 C 0.86495 0.69113 0.67432 0.0
C107 C 0.8269 0.69158 0.64937 0.0
O108 O 0.82301 0.69388 0.66017 0.0
O109 O 0.83512 0.68464 0.64768 0.0
O110 O 0.86974 0.33583 0.67959 0.0
Cd111 Cd 0.87593 0.3491 0.69738 0.0
O112 O 0.87412 0.3495 0.6671 0.0
Cd113 Cd 0.87702 0.36352 0.68173 0.0
O114 O 0.87098 0.3775 0.6943 0.0
C115 C 0.85958 0.37761 0.69495 0.0
O116 O 0.85268 0.36942 0.68843 0.0
C117 C 0.87059 0.33884 0.66889 0.0
C118 C 0.89596 0.34176 0.70759 0.0
O119 O 0.88517 0.33819 0.71104 0.0
O120 O 0.89728 0.34894 0.6994 0.0
O121 O 0.21987 0.34993 0.70424 0.0
Cd122 Cd 0.20804 0.33052 0.70154 0.0
O123 O 0.23472 0.34408 0.71384 0.0
Cd124 Cd 0.22452 0.32676 0.715 0.0
O125 O 0.20836 0.3157 0.72053 0.0
C126 C 0.2007 0.32138 0.72652 0.0
O127 O 0.20326 0.33285 0.72887 0.0
C128 C 0.23014 0.35219 0.7092 0.0
C129 C 0.21146 0.31993 0.67837 0.0
O130 O 0.20268 0.32609 0.68085 0.0
O131 O 0.21853 0.31869 0.6869 0.0
O132 O 0.20728 0.36136 0.34368 0.0
Cd133 Cd 0.19502 0.34327 0.34877 0.0
O134 O 0.19547 0.37301 0.35384 0.0
Cd135 Cd 0.18168 0.3583 0.35675 0.0
O136 O 0.16624 0.34556 0.35108 0.0
C137 C 0.16228 0.34678 0.34076 0.0
O138 O 0.16766 0.35527 0.33469 0.0
C139 C 0.205 0.37169 0.34751 0.0
C140 C 0.20346 0.33506 0.36931 0.0
O141 O 0.20716 0.33144 0.35876 0.0
O142 O 0.19574 0.34255 0.37013 0.0
O143 O 0.20168 0.68077 0.36535 0.0
Cd144 Cd 0.1917 0.67591 0.34598 0.0
O145 O 0.1872 0.69062 0.37339 0.0
Cd146 Cd 0.17654 0.68893 0.35711 0.0
O147 O 0.164 0.69419 0.34458 0.0
C148 C 0.16107 0.70454 0.34699 0.0
O149 O 0.1658 0.71102 0.35644 0.0
C150 C 0.19728 0.68665 0.37431 0.0
C151 C 0.20016 0.65598 0.33392 0.0
O152 O 0.20537 0.66635 0.33247 0.0
O153 O 0.19084 0.65506 0.34095 0.0
O154 O 0.8389 0.71572 0.34548 0.0
Cd155 Cd 0.84412 0.70459 0.32661 0.0
O156 O 0.84936 0.70593 0.35664 0.0
Cd157 Cd 0.85257 0.69278 0.34187 0.0
O158 O 0.84927 0.67625 0.33048 0.0
C159 C 0.84024 0.66931 0.33372 0.0
O160 O 0.8339 0.67262 0.34331 0.0
C161 C 0.84288 0.71418 0.35571 0.0
C162 C 0.8669 0.71359 0.31825 0.0
O163 O 0.85731 0.71751 0.31503 0.0
O164 O 0.8657 0.70532 0.32528 0.0
O165 O 0.86854 0.34522 0.32967 0.0
Cd166 Cd 0.85106 0.35337 0.33969 0.0
O167 O 0.86868 0.33094 0.34155 0.0
Cd168 Cd 0.85409 0.33461 0.35446 0.0
O169 O 0.84482 0.32977 0.37125 0.0
C170 C 0.84938 0.32188 0.37628 0.0
O171 O 0.85889 0.31757 0.37116 0.0
C172 C 0.87302 0.33623 0.33259 0.0
C173 C 0.8444 0.37267 0.32889 0.0
O174 O 0.85156 0.37417 0.33784 0.0
O175 O 0.84044 0.36206 0.325 0.0
O176 O 0.71048 0.17461 0.6777 0.0
Cd177 Cd 0.70023 0.16726 0.69572 0.0
O178 O 0.69792 0.18768 0.67542 0.0
Cd179 Cd 0.68518 0.18446 0.69044 0.0
O180 O 0.66893 0.18833 0.70104 0.0
C181 C 0.65959 0.18951 0.69518 0.0
O182 O 0.66006 0.18784 0.68336 0.0
C183 C 0.70725 0.18276 0.67199 0.0
C184 C 0.71134 0.14915 0.7044 0.0
O185 O 0.70263 0.14683 0.69696 0.0
O186 O 0.71484 0.16001 0.70769 0.0
O187 O 0.35346 0.19689 0.67667 0.0
Cd188 Cd 0.33406 0.18577 0.67075 0.0
O189 O 0.36396 0.18229 0.67058 0.0
Cd190 Cd 0.34789 0.16947 0.66783 0.0
O191 O 0.336 0.15424 0.67324 0.0
C192 C 0.34132 0.14606 0.67683 0.0
O193 O 0.35321 0.14713 0.67645 0.0
C194 C 0.36362 0.19291 0.67492 0.0
C195 C 0.32535 0.19398 0.65033 0.0
O196 O 0.32283 0.1985 0.66093 0.0
O197 O 0.33195 0.1855 0.64938 0.0
O198 O 0.37525 0.84595 0.66797 0.0
Cd199 Cd 0.38343 0.86076 0.68381 0.0
O200 O 0.36059 0.8383 0.67952 0.0
Cd201 Cd 0.36412 0.85206 0.6943 0.0
O202 O 0.35916 0.86741 0.70559 0.0
C203 C 0.34821 0.86926 0.70466 0.0
O204 O 0.34114 0.86192 0.69743 0.0
C205 C 0.36627 0.83822 0.66946 0.0
C206 C 0.40193 0.85248 0.69564 0.0
O207 O 0.39096 0.851 0.69955 0.0
O208 O 0.40416 0.85799 0.68621 0.0
O209 O 0.72365 0.8521 0.70469 0.0
Cd210 Cd 0.71038 0.83357 0.70108 0.0
O211 O 0.7361 0.84539 0.71659 0.0
Cd212 Cd 0.7249 0.82841 0.71597 0.0
O213 O 0.70801 0.8175 0.71962 0.0
C214 C 0.70241 0.82091 0.72917 0.0
O215 O 0.70741 0.83006 0.73605 0.0
C216 C 0.73304 0.85378 0.71114 0.0
C217 C 0.71445 0.82269 0.67816 0.0
O218 O 0.70678 0.83019 0.67995 0.0
O219 O 0.72013 0.82028 0.68726 0.0
O220 O 0.708 0.85935 0.3422 0.0
Cd221 Cd 0.69646 0.84095 0.34745 0.0
O222 O 0.695 0.87051 0.35112 0.0
Cd223 Cd 0.68189 0.8554 0.35454 0.0
O224 O 0.66636 0.84206 0.35097 0.0
C225 C 0.66574 0.83663 0.34048 0.0
O226 O 0.6746 0.83894 0.3327 0.0
C227 C 0.70491 0.86954 0.34534 0.0
C228 C 0.7052 0.833 0.36798 0.0
O229 O 0.70924 0.82977 0.35746 0.0
O230 O 0.69702 0.84002 0.36879 0.0
O231 O 0.70241 0.18151 0.3676 0.0
Cd232 Cd 0.69096 0.17597 0.34914 0.0
O233 O 0.6885 0.19181 0.37615 0.0
Cd234 Cd 0.67685 0.18979 0.36055 0.0
O235 O 0.66356 0.19447 0.34844 0.0
C236 C 0.65972 0.20438 0.35128 0.0
O237 O 0.66397 0.21082 0.36096 0.0
C238 C 0.69859 0.18776 0.37663 0.0
C239 C 0.69896 0.15604 0.33662 0.0
O240 O 0.70339 0.16642 0.33427 0.0
O241 O 0.69065 0.15509 0.3448 0.0
O242 O 0.33169 0.22246 0.34032 0.0
Cd243 Cd 0.33689 0.21237 0.32087 0.0
O244 O 0.34103 0.21107 0.35076 0.0
Cd245 Cd 0.34382 0.19848 0.33534 0.0
O246 O 0.34097 0.18188 0.32397 0.0
C247 C 0.33173 0.17498 0.3268 0.0
O248 O 0.32483 0.17841 0.33591 0.0
C249 C 0.3352 0.21989 0.35039 0.0
C250 C 0.3606 0.22009 0.31394 0.0
O251 O 0.35173 0.22532 0.31099 0.0
O252 O 0.35822 0.21116 0.32004 0.0
O253 O 0.36905 0.84576 0.33076 0.0
Cd254 Cd 0.35152 0.85416 0.3404 0.0
O255 O 0.36862 0.83124 0.34244 0.0
Cd256 Cd 0.35364 0.83488 0.3549 0.0
O257 O 0.34274 0.83004 0.37081 0.0
C258 C 0.34791 0.83121 0.38094 0.0
O259 O 0.35926 0.83594 0.38157 0.0
C260 C 0.3733 0.83664 0.33367 0.0
C261 C 0.34548 0.87359 0.32939 0.0
O262 O 0.35243 0.875 0.3385 0.0
O263 O 0.34144 0.86302 0.32544 0.0
O264 O 0.70965 0.67086 0.17466 0.0
Cd265 Cd 0.69959 0.6624 0.19223 0.0
O266 O 0.69628 0.6831 0.17213 0.0
Cd267 Cd 0.68372 0.67969 0.18724 0.0
O268 O 0.66791 0.68409 0.19827 0.0
C269 C 0.65797 0.68406 0.19292 0.0
O270 O 0.65752 0.6808 0.1813 0.0
C271 C 0.70598 0.67874 0.16886 0.0
C272 C 0.71061 0.64331 0.19884 0.0
O273 O 0.70189 0.64174 0.19139 0.0
O274 O 0.71414 0.65389 0.20315 0.0
O275 O 0.35785 0.69043 0.17192 0.0
Cd276 Cd 0.3397 0.67797 0.16447 0.0
O277 O 0.36986 0.67704 0.16594 0.0
Cd278 Cd 0.35484 0.66328 0.16187 0.0
O279 O 0.34241 0.64793 0.1661 0.0
C280 C 0.33545 0.64905 0.17528 0.0
O281 O 0.33554 0.65948 0.18132 0.0
C282 C 0.36845 0.68735 0.17063 0.0
C283 C 0.33199 0.68478 0.14289 0.0
O284 O 0.32795 0.68901 0.15308 0.0
O285 O 0.33968 0.67733 0.1429 0.0
O286 O 0.36054 0.33339 0.18311 0.0
Cd287 Cd 0.36635 0.34504 0.20202 0.0
O288 O 0.36955 0.34642 0.17155 0.0
Cd289 Cd 0.37315 0.35954 0.18688 0.0
O290 O 0.36775 0.37367 0.19964 0.0
C291 C 0.35638 0.37377 0.20093 0.0
O292 O 0.34916 0.3654 0.195 0.0
C293 C 0.3636 0.33639 0.17267 0.0
C294 C 0.38775 0.33845 0.21012 0.0
O295 O 0.37743 0.33305 0.21288 0.0
O296 O 0.38795 0.34711 0.20364 0.0
O297 O 0.72058 0.34047 0.18501 0.0
Cd298 Cd 0.70898 0.32109 0.18094 0.0
O299 O 0.73538 0.33429 0.19439 0.0
Cd300 Cd 0.72509 0.31691 0.19467 0.0
O301 O 0.70815 0.30722 0.20036 0.0
C302 C 0.70326 0.31213 0.20964 0.0
O303 O 0.70898 0.32181 0.21506 0.0
C304 C 0.73075 0.34261 0.19017 0.0
C305 C 0.71621 0.31015 0.15897 0.0
O306 O 0.70767 0.31675 0.15959 0.0
O307 O 0.72125 0.30863 0.16878 0.0
O308 O 0.71205 0.35924 0.84396 0.0
Cd309 Cd 0.70018 0.34052 0.8477 0.0
O310 O 0.69668 0.36933 0.8485 0.0
Cd311 Cd 0.68367 0.35396 0.85128 0.0
O312 O 0.66705 0.34189 0.84856 0.0
C313 C 0.66693 0.33244 0.84159 0.0
O314 O 0.67715 0.32962 0.83657 0.0
C315 C 0.70769 0.36904 0.84524 0.0
C316 C 0.70937 0.32941 0.86598 0.0
O317 O 0.71289 0.32745 0.855 0.0
O318 O 0.70157 0.33672 0.86833 0.0
O319 O 0.6975 0.67755 0.86819 0.0
Cd320 Cd 0.68472 0.66969 0.85114 0.0
O321 O 0.68622 0.69166 0.87381 0.0
Cd322 Cd 0.67356 0.68788 0.85901 0.0
O323 O 0.65895 0.69186 0.84804 0.0
C324 C 0.65354 0.7005 0.85239 0.0
O325 O 0.657 0.70599 0.86284 0.0
C326 C 0.6953 0.68629 0.87546 0.0
C327 C 0.69409 0.65058 0.8384 0.0
O328 O 0.6965 0.661 0.83507 0.0
O329 O 0.68717 0.64919 0.84767 0.0
O330 O 0.31807 0.74913 0.82248 0.0
Cd331 Cd 0.32458 0.75464 0.80253 0.0
O332 O 0.32384 0.73171 0.81743 0.0
Cd333 Cd 0.32531 0.71322 0.81963 0.0
O334 O 0.32499 0.69413 0.81896 0.0
C335 C 0.31785 0.68817 0.82581 0.0
O336 O 0.31088 0.69371 0.83357 0.0
C337 C 0.31935 0.73887 0.82524 0.0
C338 C 0.34949 0.7545 0.79946 0.0
O339 O 0.34501 0.76382 0.80385 0.0
O340 O 0.34215 0.74526 0.79643 0.0
O341 O 0.37035 0.34988 0.83275 0.0
Cd342 Cd 0.35424 0.35914 0.84417 0.0
O343 O 0.36946 0.33494 0.84393 0.0
Cd344 Cd 0.35537 0.33928 0.85717 0.0
O345 O 0.34517 0.33458 0.87351 0.0
C346 C 0.35133 0.3327 0.8824 0.0
O347 O 0.3632 0.33429 0.88147 0.0
C348 C 0.37407 0.3403 0.83511 0.0
C349 C 0.34751 0.37885 0.83416 0.0
O350 O 0.35594 0.37995 0.84192 0.0
O351 O 0.34236 0.36844 0.83104 0.0
C352 C 0.28066 0.22967 0.06493 0.0
C353 C 0.26805 0.22761 0.06669 0.0
C354 C 0.28556 0.23492 0.05478 0.0
C355 C 0.27795 0.23847 0.04633 0.0
C356 C 0.26046 0.2309 0.05808 0.0
C357 C 0.26536 0.23625 0.04801 0.0
C358 C 0.28288 0.24408 0.03548 0.0
C359 C 0.29703 0.269 0.06704 0.0
C360 C 0.30969 0.27005 0.06799 0.0
C361 C 0.29141 0.26344 0.05662 0.0
C362 C 0.29834 0.2588 0.047 0.0
C363 C 0.3166 0.26541 0.05833 0.0
C364 C 0.31098 0.25992 0.04788 0.0
C365 C 0.29256 0.25329 0.03576 0.0
C366 C 0.29072 0.27074 0.98688 0.0
C367 C 0.30313 0.27293 0.98403 0.0
C368 C 0.28678 0.26455 -0.00326 0.0
C369 C 0.29517 0.26031 0.0039 0.0
C370 C 0.31151 0.26883 0.99132 0.0
C371 C 0.30756 0.26265 0.0012 0.0
C372 C 0.29111 0.25395 0.01453 0.0
C373 C 0.2769 0.23089 0.98205 0.0
C374 C 0.26422 0.22849 0.98175 0.0
C375 C 0.28261 0.23604 0.99258 0.0
C376 C 0.27573 0.23912 0.00293 0.0
C377 C 0.25738 0.23131 0.99219 0.0
C378 C 0.26309 0.23654 0.00269 0.0
C379 C 0.28161 0.24455 0.01419 0.0
H380 H 0.28673 0.22704 0.07131 0.0
H381 H 0.2953 0.2361 0.0535 0.0
H382 H 0.25071 0.22951 0.05922 0.0
H383 H 0.25928 0.2388 0.04159 0.0
H384 H 0.29147 0.27245 0.07436 0.0
H385 H 0.28165 0.26288 0.05603 0.0
H386 H 0.32638 0.26623 0.05874 0.0
H387 H 0.3165 0.25652 0.04049 0.0
H388 H 0.28402 0.27373 0.98142 0.0
H389 H 0.27718 0.26315 -0.00118 0.0
H390 H 0.32114 0.27054 0.98951 0.0
H391 H 0.31421 0.25962 0.00669 0.0
H392 H 0.28241 0.22862 0.9742 0.0
H393 H 0.2924 0.23752 0.99265 0.0
H394 H 0.24759 0.22963 0.9922 0.0
H395 H 0.2576 0.23873 0.01058 0.0
N396 N 0.2778 0.24009 0.0247 0.0
N397 N 0.2963 0.25784 0.02528 0.0
C398 C 0.77112 0.22895 0.95123 0.0
C399 C 0.78342 0.22959 0.94781 0.0
C400 C 0.76771 0.23164 0.96322 0.0
C401 C 0.77654 0.23518 0.972 0.0
C402 C 0.79223 0.23238 0.95675 0.0
C403 C 0.7888 0.23512 0.96876 0.0
C404 C 0.77302 0.23958 0.98435 0.0
C405 C 0.76509 0.26613 0.95962 0.0
C406 C 0.75272 0.26738 0.95892 0.0
C407 C 0.76921 0.26007 0.96864 0.0
C408 C 0.76103 0.25496 0.97703 0.0
C409 C 0.74459 0.26248 0.96749 0.0
C410 C 0.74873 0.25637 0.97649 0.0
C411 C 0.76531 0.24849 0.98663 0.0
C412 C 0.76797 0.2604 0.04009 0.0
C413 C 0.75568 0.2611 0.04301 0.0
C414 C 0.77145 0.25578 0.02863 0.0
C415 C 0.7627 0.25163 0.01993 0.0
C416 C 0.74696 0.25707 0.03422 0.0
C417 C 0.75045 0.25244 0.02278 0.0
C418 C 0.76623 0.2469 0.0077 0.0
C419 C 0.77588 0.22284 0.03394 0.0
C420 C 0.78837 0.22202 0.03442 0.0
C421 C 0.77114 0.22767 0.02436 0.0
C422 C 0.77881 0.23208 0.01519 0.0
C423 C 0.79593 0.22589 0.02489 0.0
C424 C 0.79118 0.23085 0.01537 0.0
C425 C 0.77404 0.23805 0.00546 0.0
H426 H 0.76413 0.22658 0.94459 0.0
H427 H 0.75817 0.23133 0.96559 0.0
H428 H 0.80178 0.23299 0.95438 0.0
H429 H 0.79575 0.23774 0.97542 0.0
H430 H 0.77161 0.27001 0.95331 0.0
H431 H 0.77881 0.25944 0.96912 0.0
H432 H 0.73501 0.26322 0.96715 0.0
H433 H 0.74228 0.2526 0.98294 0.0
H434 H 0.77492 0.26363 0.04658 0.0
H435 H 0.78099 0.25556 0.02653 0.0
H436 H 0.73742 0.25737 0.03621 0.0
H437 H 0.74356 0.24937 0.01617 0.0
H438 H 0.76978 0.22003 0.04112 0.0
H439 H 0.76149 0.22815 0.02423 0.0
H440 H 0.80553 0.22514 0.02479 0.0
H441 H 0.79725 0.234 0.00829 0.0
N442 N 0.7772 0.23477 0.99385 0.0
N443 N 0.76212 0.25172 -0.0018 0.0
C444 C 0.79772 0.76653 0.06725 0.0
C445 C 0.81041 0.76764 0.06789 0.0
C446 C 0.79188 0.76149 0.05676 0.0
C447 C 0.7986 0.75731 0.04674 0.0
C448 C 0.81712 0.76351 0.05781 0.0
C449 C 0.81127 0.75846 0.04731 0.0
C450 C 0.79256 0.75233 0.03544 0.0
C451 C 0.78011 0.72753 0.06349 0.0
C452 C 0.76757 0.72663 0.06595 0.0
C453 C 0.78505 0.73296 0.05346 0.0
C454 C 0.77756 0.7377 0.04574 0.0
C455 C 0.7601 0.73125 0.0581 0.0
C456 C 0.76504 0.73665 0.04808 0.0
C457 C 0.78256 0.74345 0.03503 0.0
C458 C 0.77586 0.73131 0.98168 0.0
C459 C 0.76315 0.72984 0.98129 0.0
C460 C 0.78177 0.73608 0.99224 0.0
C461 C 0.77508 0.73958 0.00257 0.0
C462 C 0.75649 0.73314 0.99172 0.0
C463 C 0.7624 0.73791 0.00226 0.0
C464 C 0.78118 0.74454 0.01386 0.0
C465 C 0.79102 0.77079 0.98689 0.0
C466 C 0.80343 0.77267 0.98396 0.0
C467 C 0.78697 0.76464 -0.00325 0.0
C468 C 0.79523 0.76007 0.00378 0.0
C469 C 0.81171 0.76832 0.99119 0.0
C470 C 0.80764 0.76214 0.00103 0.0
C471 C 0.79102 0.75359 0.01431 0.0
H472 H 0.79229 0.76958 0.07488 0.0
H473 H 0.78211 0.76099 0.05644 0.0
H474 H 0.82692 0.76441 0.05793 0.0
H475 H 0.81664 0.75544 0.03963 0.0
H476 H 0.7861 0.72388 0.06922 0.0
H477 H 0.7947 0.73336 0.05167 0.0
H478 H 0.75044 0.73086 0.05979 0.0
H479 H 0.75908 0.74019 0.04222 0.0
H480 H 0.78125 0.72889 0.97379 0.0
H481 H 0.79157 0.73698 0.99234 0.0
H482 H 0.74668 0.73192 0.99179 0.0
H483 H 0.75705 0.74039 0.01017 0.0
H484 H 0.78443 0.77423 0.98168 0.0
H485 H 0.77738 0.76355 -0.00107 0.0
H486 H 0.82132 0.76955 0.98913 0.0
H487 H 0.81419 0.75882 0.0064 0.0
N488 N 0.79641 0.75703 0.02506 0.0
N489 N 0.77726 0.73993 0.02426 0.0
C490 C 0.27057 0.72781 0.95116 0.0
C491 C 0.28288 0.72913 0.94775 0.0
C492 C 0.26702 0.7304 0.96313 0.0
C493 C 0.2757 0.73447 0.97191 0.0
C494 C 0.2916 0.73255 0.9567 0.0
C495 C 0.28802 0.73515 0.9687 0.0
C496 C 0.2719 0.73857 0.98427 0.0
C497 C 0.26294 0.7653 0.96017 0.0
C498 C 0.25044 0.76533 0.95876 0.0
C499 C 0.26722 0.7593 0.96917 0.0
C500 C 0.25907 0.75318 0.97689 0.0
C501 C 0.24231 0.75928 0.96657 0.0
C502 C 0.2466 0.75334 0.97562 0.0
C503 C 0.26357 0.74693 0.98651 0.0
C504 C 0.26638 0.75978 0.03953 0.0
C505 C 0.25409 0.75913 0.04298 0.0
C506 C 0.26981 0.75523 0.02804 0.0
C507 C 0.26101 0.74997 0.01981 0.0
C508 C 0.2453 0.75387 0.03472 0.0
C509 C 0.24873 0.74943 0.02318 0.0
C510 C 0.26456 0.74538 0.00756 0.0
C511 C 0.27508 0.72187 0.03373 0.0
C512 C 0.28767 0.72226 0.03485 0.0
C513 C 0.27027 0.72632 0.02395 0.0
C514 C 0.27796 0.73142 0.01518 0.0
C515 C 0.29533 0.72685 0.02574 0.0
C516 C 0.2905 0.73136 0.01597 0.0
C517 C 0.27295 0.73706 0.00535 0.0
H518 H 0.26365 0.72494 0.94454 0.0
H519 H 0.25745 0.72951 0.96548 0.0
H520 H 0.30115 0.7337 0.95435 0.0
H521 H 0.29486 0.73821 0.97536 0.0
H522 H 0.26941 0.76984 0.95426 0.0
H523 H 0.27689 0.75949 0.97014 0.0
H524 H 0.23263 0.75928 0.96578 0.0
H525 H 0.24018 0.74878 0.98158 0.0
H526 H 0.27334 0.76376 0.04574 0.0
H527 H 0.27933 0.75591 0.02554 0.0
H528 H 0.23576 0.75338 0.03712 0.0
H529 H 0.24181 0.7455 0.01691 0.0
H530 H 0.26894 0.71814 0.04045 0.0
H531 H 0.26054 0.72592 0.02334 0.0
H532 H 0.30507 0.7273 0.02636 0.0
H533 H 0.29659 0.73517 0.00924 0.0
N534 N 0.27638 0.734 0.99377 0.0
N535 N 0.26014 0.74995 -0.00194 0.0
C536 C 0.97202 0.24693 0.24535 0.0
C537 C 0.97224 0.24607 0.23268 0.0
C538 C 0.9825 0.25109 0.25179 0.0
C539 C 0.99334 0.25471 0.2457 0.0
C540 C 0.98317 0.24944 0.2266 0.0
C541 C 0.99361 0.2537 0.23305 0.0
C542 C 0.00455 0.25914 0.25236 0.0
C543 C 0.97752 0.28457 0.2633 0.0
C544 C 0.97433 0.28515 0.27563 0.0
C545 C 0.98751 0.27899 0.25895 0.0
C546 C 0.99441 0.27376 0.26682 0.0
C547 C 0.98147 0.28018 0.28351 0.0
C548 C 0.99143 0.2746 0.27916 0.0
C549 C 0.00496 0.26772 0.26239 0.0
C550 C 0.05831 0.27978 0.27042 0.0
C551 C 0.05843 0.28118 0.28309 0.0
C552 C 0.04782 0.27487 0.26436 0.0
C553 C 0.03729 0.27104 0.27083 0.0
C554 C 0.04783 0.27744 0.28954 0.0
C555 C 0.03736 0.27247 0.28346 0.0
C556 C 0.02599 0.26622 0.26451 0.0
C557 C 0.05319 0.241 0.25413 0.0
C558 C 0.05631 0.24002 0.24179 0.0
C559 C 0.04316 0.24658 0.25831 0.0
C560 C 0.03612 0.25144 0.25026 0.0
C561 C 0.04903 0.24461 0.23372 0.0
C562 C 0.03902 0.2502 0.23791 0.0
C563 C 0.02557 0.25755 0.25456 0.0
H564 H 0.96379 0.24417 0.25027 0.0
H565 H 0.98213 0.25138 0.26152 0.0
H566 H 0.9836 0.24891 0.21686 0.0
H567 H 0.0019 0.25632 0.22815 0.0
H568 H 0.97221 0.28827 0.25697 0.0
H569 H 0.98981 0.27876 0.24944 0.0
H570 H 0.97942 0.28067 0.29309 0.0
H571 H 0.99673 0.2708 0.28543 0.0
H572 H 0.06632 0.28249 0.26517 0.0
H573 H 0.04792 0.27421 0.25461 0.0
H574 H 0.04754 0.27857 0.29929 0.0
H575 H 0.02929 0.26975 0.28864 0.0
H576 H 0.0586 0.23762 0.26061 0.0
H577 H 0.04092 0.24712 0.26785 0.0
H578 H 0.05102 0.2438 0.22413 0.0
H579 H 0.03363 0.25371 0.2315 0.0
N580 N 0.01489 0.25444 0.24882 0.0
N581 N 0.01565 0.27087 0.26809 0.0
C582 C 0.75878 0.97144 0.27942 0.0
C583 C 0.75852 0.97246 0.29208 0.0
C584 C 0.76227 0.9813 0.27316 0.0
C585 C 0.76579 0.99235 0.27942 0.0
C586 C 0.76178 0.98358 0.29835 0.0
C587 C 0.76535 0.99343 0.29207 0.0
C588 C 0.76944 0.00287 0.27287 0.0
C589 C 0.79757 0.97837 0.26327 0.0
C590 C 0.79858 0.97471 0.25092 0.0
C591 C 0.79072 0.98749 0.26722 0.0
C592 C 0.78455 0.99294 0.25892 0.0
C593 C 0.79253 0.98028 0.24263 0.0
C594 C 0.78561 0.98933 0.24659 0.0
C595 C 0.77757 0.00287 0.26289 0.0
C596 C 0.78551 0.05337 0.25199 0.0
C597 C 0.78462 0.05193 0.23936 0.0
C598 C 0.78203 0.0439 0.25883 0.0
C599 C 0.7775 0.03284 0.25318 0.0
C600 C 0.78007 0.04082 0.23376 0.0
C601 C 0.77663 0.03137 0.24059 0.0
C602 C 0.77425 0.02259 0.26018 0.0
C603 C 0.74816 0.04872 0.27113 0.0
C604 C 0.74826 0.05263 0.28347 0.0
C605 C 0.75387 0.0389 0.26682 0.0
C606 C 0.76004 0.03299 0.27474 0.0
C607 C 0.75411 0.04648 0.29141 0.0
C608 C 0.75992 0.03674 0.28709 0.0
C609 C 0.76636 0.02272 0.27035 0.0
H610 H 0.75605 0.96305 0.27434 0.0
H611 H 0.7621 0.9803 0.26341 0.0
H612 H 0.7617 0.98464 0.3081 0.0
H613 H 0.7679 0.00189 0.29709 0.0
H614 H 0.8023 0.97437 0.26984 0.0
H615 H 0.79042 0.99038 0.27675 0.0
H616 H 0.79306 0.97758 0.23307 0.0
H617 H 0.78103 0.99347 0.24001 0.0
H618 H 0.78918 0.06173 0.25658 0.0
H619 H 0.78307 0.04516 0.26851 0.0
H620 H 0.77913 0.03944 0.22407 0.0
H621 H 0.77323 0.02289 0.23605 0.0
H622 H 0.74353 0.05316 0.26484 0.0
H623 H 0.75343 0.03593 0.25732 0.0
H624 H 0.75439 0.04933 0.30096 0.0
H625 H 0.7645 0.03225 0.29338 0.0
N626 N 0.76427 0.01285 0.2763 0.0
N627 N 0.77953 0.01268 0.25686 0.0
C628 C 0.0799 0.7925 0.26573 0.0
C629 C 0.08256 0.79213 0.25331 0.0
C630 C 0.06803 0.7898 0.26988 0.0
C631 C 0.05862 0.7865 0.26168 0.0
C632 C 0.07303 0.78932 0.24514 0.0
C633 C 0.06116 0.78656 0.2493 0.0
C634 C 0.04616 0.78277 0.26591 0.0
C635 C 0.06964 0.75597 0.27524 0.0
C636 C 0.07087 0.75586 0.28773 0.0
C637 C 0.06064 0.76173 0.27073 0.0
C638 C 0.05277 0.76757 0.27863 0.0
C639 C 0.06275 0.76142 0.2956 0.0
C640 C 0.05374 0.76716 0.29108 0.0
C641 C 0.04347 0.77405 0.27402 0.0
C642 C 0.9894 0.76417 0.27152 0.0
C643 C 0.98638 0.7628 0.28366 0.0
C644 C 0.00114 0.76856 0.26817 0.0
C645 C 0.01003 0.77187 0.27692 0.0
C646 C 0.99535 0.76592 0.29239 0.0
C647 C 0.00708 0.77038 0.28903 0.0
C648 C 0.02254 0.77637 0.27343 0.0
C649 C 0.99837 0.80256 0.26527 0.0
C650 C 0.99717 0.80335 0.25288 0.0
C651 C 0.0077 0.79699 0.26943 0.0
C652 C 0.01591 0.79197 0.26126 0.0
C653 C 0.00575 0.7988 0.24477 0.0
C654 C 0.01507 0.7932 0.24894 0.0
C655 C 0.02525 0.78529 0.26552 0.0
H656 H 0.08701 0.79488 0.27225 0.0
H657 H 0.06622 0.79015 0.2795 0.0
H658 H 0.0748 0.78892 0.23551 0.0
H659 H 0.05401 0.78413 0.24282 0.0
H660 H 0.07578 0.75179 0.26896 0.0
H661 H 0.05987 0.76172 0.26107 0.0
H662 H 0.06334 0.76131 0.30526 0.0
H663 H 0.04766 0.77149 0.29732 0.0
H664 H 0.98276 0.76161 0.26456 0.0
H665 H 0.00329 0.76925 0.25871 0.0
H666 H 0.99327 0.76502 0.30183 0.0
H667 H 0.01384 0.77276 0.29592 0.0
H668 H 0.99207 0.8062 0.27176 0.0
H669 H 0.0084 0.79647 0.27902 0.0
H670 H 0.00503 0.79923 0.23516 0.0
H671 H 0.02138 0.78949 0.2425 0.0
N672 N 0.03694 0.78805 0.26193 0.0
N673 N 0.03178 0.7712 0.2775 0.0
C674 C 0.28787 0.96707 0.23476 0.0
C675 C 0.27572 0.96262 0.23264 0.0
C676 C 0.29084 0.97847 0.24027 0.0
C677 C 0.28171 0.98556 0.24396 0.0
C678 C 0.26662 0.96986 0.23602 0.0
C679 C 0.2696 0.98125 0.24159 0.0
C680 C 0.2848 -0.00242 0.24997 0.0
C681 C 0.294 0.97258 0.27562 0.0
C682 C 0.30652 0.97238 0.27675 0.0
C683 C 0.28962 0.98163 0.27014 0.0
C684 C 0.29767 0.99066 0.26567 0.0
C685 C 0.31455 0.98154 0.27245 0.0
C686 C 0.31015 0.99067 0.26707 0.0
C687 C 0.293 7e-05 0.25957 0.0
C688 C 0.28989 0.05155 0.27421 0.0
C689 C 0.30222 0.056 0.27481 0.0
C690 C 0.28634 0.03998 0.26945 0.0
C691 C 0.29504 0.03268 0.26504 0.0
C692 C 0.31092 0.04852 0.27073 0.0
C693 C 0.30736 0.03695 0.26594 0.0
C694 C 0.29138 0.02058 0.25951 0.0
C695 C 0.2786 0.04584 0.2357 0.0
C696 C 0.26591 0.04528 0.23565 0.0
C697 C 0.28416 0.03694 0.24025 0.0
C698 C 0.27713 0.02732 0.24487 0.0
C699 C 0.25891 0.03549 0.24001 0.0
C700 C 0.26447 0.02655 0.24449 0.0
C701 C 0.28286 0.01806 0.25018 0.0
H702 H 0.2951 0.9618 0.23203 0.0
H703 H 0.30029 0.98174 0.2416 0.0
H704 H 0.25718 0.96664 0.23457 0.0
H705 H 0.26243 0.98661 0.24425 0.0
H706 H 0.28759 0.96562 0.27878 0.0
H707 H 0.27994 0.98154 0.26934 0.0
H708 H 0.32424 0.98168 0.27332 0.0
H709 H 0.3165 -0.00239 0.26377 0.0
H710 H 0.28294 0.05708 0.2772 0.0
H711 H 0.27678 0.03678 0.26913 0.0
H712 H 0.3205 0.0516 0.27128 0.0
H713 H 0.31422 0.0314 0.26274 0.0
H714 H 0.28425 0.05328 0.23244 0.0
H715 H 0.29395 0.03761 0.24026 0.0
H716 H 0.24911 0.03471 0.23992 0.0
H717 H 0.25887 0.01916 0.24791 0.0
N718 N 0.27989 0.00664 0.24576 0.0
N719 N 0.29613 0.01149 0.26386 0.0
C720 C 0.97105 0.74982 0.746 0.0
C721 C 0.97125 0.74911 0.73334 0.0
C722 C 0.98157 0.75376 0.75244 0.0
C723 C 0.99245 0.75728 0.74636 0.0
C724 C 0.9822 0.75243 0.72727 0.0
C725 C 0.9927 0.75644 0.73373 0.0
C726 C 0.00372 0.76136 0.75304 0.0
C727 C 0.97754 0.78762 0.76422 0.0
C728 C 0.9744 0.78825 0.77656 0.0
C729 C 0.98728 0.78171 0.7598 0.0
C730 C 0.99398 0.7762 0.7676 0.0
C731 C 0.98131 0.78294 0.78437 0.0
C732 C 0.99103 0.77703 0.77994 0.0
C733 C 0.00434 0.76989 0.76312 0.0
C734 C 0.05787 0.78002 0.77131 0.0
C735 C 0.05794 0.78149 0.78397 0.0
C736 C 0.04729 0.77551 0.76521 0.0
C737 C 0.03659 0.77214 0.77164 0.0
C738 C 0.04718 0.77821 0.79039 0.0
C739 C 0.03661 0.77363 0.78428 0.0
C740 C 0.02521 0.76771 0.76528 0.0
C741 C 0.05111 0.74119 0.75536 0.0
C742 C 0.05462 0.7403 0.74311 0.0
C743 C 0.04129 0.74717 0.75933 0.0
C744 C 0.03484 0.75251 0.75117 0.0
C745 C 0.04794 0.74541 0.73492 0.0
C746 C 0.03811 0.75139 0.73891 0.0
C747 C 0.02455 0.75906 0.75532 0.0
H748 H 0.96281 0.74709 0.75091 0.0
H749 H 0.98123 0.75392 0.76217 0.0
H750 H 0.98262 0.75203 0.71753 0.0
H751 H 0.00101 0.759 0.72884 0.0
H752 H 0.9724 0.79158 0.75796 0.0
H753 H 0.98957 0.78147 0.75028 0.0
H754 H 0.97929 0.78344 0.79395 0.0
H755 H 0.99617 0.773 0.78616 0.0
H756 H 0.066 0.78237 0.76607 0.0
H757 H 0.04745 0.77481 0.75546 0.0
H758 H 0.04684 0.77942 0.80014 0.0
H759 H 0.02842 0.77126 0.78943 0.0
H760 H 0.05586 0.73714 0.76188 0.0
H761 H 0.03873 0.7476 0.7688 0.0
H762 H 0.05044 0.745 0.72545 0.0
H763 H 0.03321 0.75535 0.73243 0.0
N764 N 0.01387 0.75632 0.74951 0.0
N765 N 0.01505 0.77269 0.76885 0.0
C766 C 0.25855 0.97219 0.78375 0.0
C767 C 0.2595 0.97311 0.79635 0.0
C768 C 0.2622 0.98189 0.77731 0.0
C769 C 0.267 0.99269 0.78333 0.0
C770 C 0.26418 0.98398 0.80238 0.0
C771 C 0.26781 -0.0063 0.79593 0.0
C772 C 0.27079 0.00301 0.77654 0.0
C773 C 0.29704 0.97694 0.76635 0.0
C774 C 0.29646 0.97221 0.75425 0.0
C775 C 0.2912 0.98677 0.77025 0.0
C776 C 0.28459 0.99201 0.76215 0.0
C777 C 0.29002 0.97762 0.74611 0.0
C778 C 0.28421 0.98747 0.75001 0.0
C779 C 0.27839 0.00244 0.76618 0.0
C780 C 0.28729 0.05279 0.75443 0.0
C781 C 0.28615 0.0512 0.74184 0.0
C782 C 0.28389 0.04344 0.76144 0.0
C783 C 0.27915 0.03236 0.75601 0.0
C784 C 0.28151 0.04005 0.73642 0.0
C785 C 0.2781 0.03071 0.74344 0.0
C786 C 0.2758 0.02228 0.76327 0.0
C787 C 0.25038 0.04901 0.77446 0.0
C788 C 0.25169 0.0538 0.7865 0.0
C789 C 0.25571 0.03892 0.77029 0.0
C790 C 0.26253 0.03351 0.77806 0.0
C791 C 0.25828 0.04819 0.79432 0.0
C792 C 0.26359 0.0381 0.79015 0.0
C793 C 0.26837 0.02293 0.77376 0.0
H794 H 0.25505 0.96393 0.77883 0.0
H795 H 0.26121 0.98096 0.76763 0.0
H796 H 0.26486 0.985 0.8121 0.0
H797 H 0.27135 0.002 0.80076 0.0
H798 H 0.30189 0.97295 0.77284 0.0
H799 H 0.29189 0.99031 0.7796 0.0
H800 H 0.28957 0.97429 0.73669 0.0
H801 H 0.27929 0.99147 0.74358 0.0
H802 H 0.29107 0.06119 0.75886 0.0
H803 H 0.28515 0.04484 0.77109 0.0
H804 H 0.28043 0.03855 0.72676 0.0
H805 H 0.27455 0.0222 0.73906 0.0
H806 H 0.24539 0.05315 0.7682 0.0
H807 H 0.25452 0.03537 0.76099 0.0
H808 H 0.25927 0.05155 0.8037 0.0
H809 H 0.26868 0.03396 0.79634 0.0
N810 N 0.26617 0.01327 0.78001 0.0
N811 N 0.2805 0.01205 0.75987 0.0
C812 C 0.07619 0.27811 0.77173 0.0
C813 C 0.07952 0.27825 0.75948 0.0
C814 C 0.06408 0.27549 0.77518 0.0
C815 C 0.05509 0.27274 0.76644 0.0
C816 C 0.07046 0.27586 0.75077 0.0
C817 C 0.05835 0.27316 0.75423 0.0
C818 C 0.04227 0.26961 0.76997 0.0
C819 C 0.06338 0.24159 0.78033 0.0
C820 C 0.06422 0.24161 0.79288 0.0
C821 C 0.05482 0.24765 0.77545 0.0
C822 C 0.04704 0.25391 0.78304 0.0
C823 C 0.05609 0.2475 0.80043 0.0
C824 C 0.04752 0.25354 0.79554 0.0
C825 C 0.03854 0.26104 0.77804 0.0
C826 C 0.98446 0.25619 0.7737 0.0
C827 C 0.98047 0.25745 0.78578 0.0
C828 C 0.99675 0.25827 0.77076 0.0
C829 C 0.00528 0.26169 0.77983 0.0
C830 C 0.98907 0.26045 0.79488 0.0
C831 C 0.0014 0.26246 0.79193 0.0
C832 C 0.01814 0.26493 0.77664 0.0
C833 C 0.99686 0.29295 0.76732 0.0
C834 C 0.99587 0.29335 0.75484 0.0
C835 C 0.00556 0.28686 0.77184 0.0
C836 C 0.01334 0.28088 0.76397 0.0
C837 C 0.00407 0.28785 0.747 0.0
C838 C 0.01276 0.2817 0.75154 0.0
C839 C 0.02187 0.27358 0.76868 0.0
H840 H 0.08294 0.28017 0.77865 0.0
H841 H 0.06174 0.27562 0.78468 0.0
H842 H 0.07276 0.27587 0.74127 0.0
H843 H 0.05154 0.27118 0.74735 0.0
H844 H 0.06954 0.23717 0.77428 0.0
H845 H 0.05443 0.24762 0.76576 0.0
H846 H 0.0564 0.24751 0.81012 0.0
H847 H 0.0415 0.25821 0.80154 0.0
H848 H 0.97805 0.25397 0.76648 0.0
H849 H -0.00041 0.25746 0.76137 0.0
H850 H 0.98626 0.26134 0.80427 0.0
H851 H 0.00787 0.26502 0.79905 0.0
H852 H 0.99085 0.29732 0.7736 0.0
H853 H 0.0061 0.28666 0.7815 0.0
H854 H 0.00351 0.28796 0.73734 0.0
H855 H 0.01876 0.27723 0.74533 0.0
N856 N 0.03378 0.27552 0.76553 0.0
N857 N 0.02662 0.25905 0.78114 0.0
C858 C 0.78789 0.97859 0.75063 0.0
C859 C 0.77569 0.97376 0.74994 0.0
C860 C 0.79102 0.99006 0.7559 0.0
C861 C 0.78199 -0.0031 0.76053 0.0
C862 C 0.76666 0.98075 0.75427 0.0
C863 C 0.76979 0.99226 0.75943 0.0
C864 C 0.7852 0.00878 0.76674 0.0
C865 C 0.79488 0.98224 0.79026 0.0
C866 C 0.80742 0.98232 0.79151 0.0
C867 C 0.79024 0.99163 0.78565 0.0
C868 C 0.79805 0.00128 0.78206 0.0
C869 C 0.8152 0.9922 0.78832 0.0
C870 C 0.81054 0.00162 0.78369 0.0
C871 C 0.79317 0.01094 0.77655 0.0
C872 C 0.78737 0.06129 0.79396 0.0
C873 C 0.79948 0.06632 0.79524 0.0
C874 C 0.78462 0.04985 0.78847 0.0
C875 C 0.79392 0.04326 0.78404 0.0
C876 C 0.80877 0.05952 0.79123 0.0
C877 C 0.80601 0.04806 0.78574 0.0
C878 C 0.79106 0.03145 0.77752 0.0
C879 C 0.77927 0.05798 0.75462 0.0
C880 C 0.7668 0.05654 0.75227 0.0
C881 C 0.78463 0.04912 0.75949 0.0
C882 C 0.77759 0.03872 0.76237 0.0
C883 C 0.75986 0.04595 0.75485 0.0
C884 C 0.7652 0.03715 0.75981 0.0
C885 C 0.78307 0.02927 0.7677 0.0
H886 H 0.79503 0.97338 0.74739 0.0
H887 H 0.80049 0.99356 0.7565 0.0
H888 H 0.75718 0.97729 0.75369 0.0
H889 H 0.76269 -0.00257 0.76286 0.0
H890 H 0.7886 0.97492 0.7929 0.0
H891 H 0.78054 0.99133 0.78483 0.0
H892 H 0.82491 0.99254 0.78913 0.0
H893 H 0.81672 0.00902 0.78107 0.0
H894 H 0.78 0.0663 0.79689 0.0
H895 H 0.77522 0.04622 0.7875 0.0
H896 H 0.81819 0.06308 0.79226 0.0
H897 H 0.81331 0.04306 0.78252 0.0
H898 H 0.78491 0.06601 0.75282 0.0
H899 H 0.79428 0.05043 0.761 0.0
H900 H 0.75029 0.0444 0.75293 0.0
H901 H 0.75961 0.02913 0.76177 0.0
N902 N 0.78039 0.01799 0.76275 0.0
N903 N 0.79588 0.02221 0.78152 0.0
C904 C 0.28035 0.72926 0.56488 0.0
C905 C 0.26784 0.72826 0.56753 0.0
C906 C 0.28499 0.73418 0.55445 0.0
C907 C 0.27723 0.73829 0.54652 0.0
C908 C 0.26009 0.73208 0.55938 0.0
C909 C 0.26473 0.73698 0.54898 0.0
C910 C 0.28193 0.74377 0.53555 0.0
C911 C 0.29715 0.76783 0.56712 0.0
C912 C 0.30987 0.76967 0.56735 0.0
C913 C 0.29119 0.76238 0.55684 0.0
C914 C 0.29783 0.75841 0.54666 0.0
C915 C 0.31648 0.76583 0.55707 0.0
C916 C 0.31051 0.7603 0.54683 0.0
C917 C 0.29167 0.75292 0.53558 0.0
C918 C 0.28883 0.76995 0.4866 0.0
C919 C 0.30118 0.77193 0.48338 0.0
C920 C 0.28509 0.76393 0.49663 0.0
C921 C 0.2936 0.75964 0.5036 0.0
C922 C 0.30969 0.76777 0.4905 0.0
C923 C 0.30593 0.76176 0.50054 0.0
C924 C 0.28974 0.75342 0.51437 0.0
C925 C 0.2748 0.73009 0.4824 0.0
C926 C 0.26209 0.72795 0.48224 0.0
C927 C 0.28072 0.73529 0.49279 0.0
C928 C 0.27405 0.73864 0.50319 0.0
C929 C 0.25546 0.73104 0.49277 0.0
C930 C 0.26138 0.7363 0.50313 0.0
C931 C 0.28017 0.74412 0.51431 0.0
H932 H 0.28657 0.72643 0.57096 0.0
H933 H 0.29464 0.73481 0.5526 0.0
H934 H 0.25039 0.73121 0.56101 0.0
H935 H 0.25855 0.73994 0.54292 0.0
H936 H 0.29176 0.7706 0.57489 0.0
H937 H 0.28139 0.76138 0.55683 0.0
H938 H 0.32628 0.76731 0.55683 0.0
H939 H 0.31582 0.75749 0.53901 0.0
H940 H 0.28206 0.77325 0.4815 0.0
H941 H 0.27555 0.76274 0.49902 0.0
H942 H 0.31926 0.76903 0.48823 0.0
H943 H 0.31267 0.75863 0.50584 0.0
H944 H 0.28019 0.72787 0.47444 0.0
H945 H 0.29052 0.73665 0.49271 0.0
H946 H 0.24568 0.7293 0.49304 0.0
H947 H 0.25605 0.73863 0.5111 0.0
N948 N 0.27656 0.73976 0.52491 0.0
N949 N 0.2952 0.75735 0.52499 0.0
C950 C 0.78477 0.75842 0.5509 0.0
C951 C 0.78402 0.74607 0.55053 0.0
C952 C 0.78053 0.76373 0.54136 0.0
C953 C 0.77545 0.75678 0.53129 0.0
C954 C 0.77912 0.73916 0.54034 0.0
C955 C 0.77498 0.74447 0.53076 0.0
C956 C 0.77068 0.76226 0.52126 0.0
C957 C 0.74671 0.76769 0.55362 0.0
C958 C 0.74668 0.77963 0.55787 0.0
C959 C 0.75133 0.76454 0.54213 0.0
C960 C 0.75619 0.77328 0.53478 0.0
C961 C 0.75108 0.78834 0.55028 0.0
C962 C 0.75577 0.78518 0.53882 0.0
C963 C 0.76181 0.77012 0.5229 0.0
C964 C 0.74929 0.77494 0.47156 0.0
C965 C 0.74832 0.78708 0.47207 0.0
C966 C 0.75378 0.77014 0.4813 0.0
C967 C 0.75758 0.77741 0.49169 0.0
C968 C 0.75175 0.79427 0.48264 0.0
C969 C 0.7563 0.78946 0.49238 0.0
C970 C 0.76275 0.77243 0.50187 0.0
C971 C 0.78909 0.76938 0.47098 0.0
C972 C 0.7906 0.75773 0.46662 0.0
C973 C 0.78308 0.77172 0.48195 0.0
C974 C 0.77828 0.76245 0.48868 0.0
C975 C 0.78604 0.74849 0.47351 0.0
C976 C 0.77998 0.75084 0.48446 0.0
C977 C 0.77188 0.76483 0.50031 0.0
H978 H 0.78846 0.76397 0.55865 0.0
H979 H 0.78116 0.77326 0.54185 0.0
H980 H 0.77858 0.72963 0.53975 0.0
H981 H 0.77119 0.73897 0.52302 0.0
H982 H 0.74316 0.76078 0.55917 0.0
H983 H 0.75119 0.75528 0.53905 0.0
H984 H 0.75124 0.79761 0.55332 0.0
H985 H 0.75938 0.79206 0.53325 0.0
H986 H 0.74647 0.76911 0.46366 0.0
H987 H 0.75431 0.76074 0.4807 0.0
H988 H 0.75117 0.80367 0.4833 0.0
H989 H 0.75906 0.79521 0.50035 0.0
H990 H 0.79271 0.7767 0.46599 0.0
H991 H 0.78225 0.7808 0.48522 0.0
H992 H 0.78698 0.73942 0.47034 0.0
H993 H 0.77645 0.74356 0.48956 0.0
N994 N 0.77537 0.7599 0.51003 0.0
N995 N 0.75818 0.77493 0.51314 0.0
C996 C 0.80429 0.25824 0.48406 0.0
C997 C 0.80437 0.27049 0.48392 0.0
C998 C 0.80051 0.25269 0.49438 0.0
C999 C 0.7966 0.25926 0.50474 0.0
C1000 C 0.80066 0.27707 0.49439 0.0
C1001 C 0.79689 0.27152 0.5047 0.0
C1002 C 0.79248 0.25352 0.51574 0.0
C1003 C 0.76533 0.23984 0.48728 0.0
C1004 C 0.76507 0.22769 0.48385 0.0
C1005 C 0.77143 0.24498 0.49759 0.0
C1006 C 0.77745 0.23809 0.50462 0.0
C1007 C 0.771 0.22079 0.49099 0.0
C1008 C 0.77706 0.22594 0.50134 0.0
C1009 C 0.78383 0.24343 0.51561 0.0
C1010 C 0.77137 0.24085 0.56806 0.0
C1011 C 0.77 0.22858 0.56871 0.0
C1012 C 0.77649 0.2457 0.55779 0.0
C1013 C 0.7805 0.23842 0.54801 0.0
C1014 C 0.77395 0.22129 0.55887 0.0
C1015 C 0.77907 0.22616 0.54859 0.0
C1016 C 0.7855 0.24346 0.5369 0.0
C1017 C 0.81187 0.25713 0.56606 0.0
C1018 C 0.81333 0.26946 0.5686 0.0
C1019 C 0.80573 0.25186 0.55581 0.0
C1020 C 0.80077 0.25882 0.54798 0.0
C1021 C 0.80858 0.27639 0.5606 0.0
C1022 C 0.8024 0.27112 0.55038 0.0
C1023 C 0.79436 0.25341 0.53699 0.0
H1024 H 0.80705 0.2529 0.47614 0.0
H1025 H 0.80066 0.24326 0.49426 0.0
H1026 H 0.80081 0.28655 0.49466 0.0
H1027 H 0.79405 0.27679 0.51264 0.0
H1028 H 0.76091 0.2454 0.48193 0.0
H1029 H 0.77138 0.25433 0.50011 0.0
H1030 H 0.7708 0.21139 0.48867 0.0
H1031 H 0.78153 0.22045 0.50673 0.0
H1032 H 0.76851 0.24673 0.5755 0.0
H1033 H 0.77715 0.25516 0.55746 0.0
H1034 H 0.77285 0.21179 0.55899 0.0
H1035 H 0.78193 0.22035 0.54109 0.0
H1036 H 0.81538 0.25152 0.57205 0.0
H1037 H 0.80492 0.24236 0.55398 0.0
H1038 H 0.80975 0.28592 0.56215 0.0
H1039 H 0.79882 0.27668 0.54438 0.0
N1040 N 0.79739 0.25812 0.52643 0.0
N1041 N 0.78069 0.23878 0.52618 0.0
C1042 C 0.26008 0.2924 0.47613 0.0
C1043 C 0.24769 0.29019 0.47351 0.0
C1044 C 0.26474 0.28728 0.48557 0.0
C1045 C 0.25711 0.2798 0.49252 0.0
C1046 C 0.24002 0.28297 0.48071 0.0
C1047 C 0.24468 0.27789 0.49019 0.0
C1048 C 0.26203 0.27386 0.50215 0.0
C1049 C 0.27565 0.25838 0.46671 0.0
C1050 C 0.28829 0.26036 0.46525 0.0
C1051 C 0.27022 0.26032 0.47806 0.0
C1052 C 0.27732 0.26449 0.48812 0.0
C1053 C 0.2954 0.2642 0.4754 0.0
C1054 C 0.28996 0.26621 0.48674 0.0
C1055 C 0.27167 0.26691 0.50014 0.0
C1056 C 0.27175 0.24416 0.54649 0.0
C1057 C 0.28423 0.24506 0.54858 0.0
C1058 C 0.26741 0.25006 0.53744 0.0
C1059 C 0.27546 0.25702 0.53036 0.0
C1060 C 0.29229 0.25183 0.54131 0.0
C1061 C 0.28795 0.25769 0.53221 0.0
C1062 C 0.27093 0.26344 0.52088 0.0
C1063 C 0.25939 0.28103 0.55615 0.0
C1064 C 0.2468 0.28053 0.55808 0.0
C1065 C 0.26416 0.27782 0.54477 0.0
C1066 C 0.25646 0.27381 0.53511 0.0
C1067 C 0.2391 0.27667 0.54835 0.0
C1068 C 0.2439 0.27339 0.53696 0.0
C1069 C 0.26148 0.27064 0.52295 0.0
H1070 H 0.26622 0.29789 0.47072 0.0
H1071 H 0.27434 0.28904 0.48736 0.0
H1072 H 0.23041 0.28125 0.47901 0.0
H1073 H 0.23863 0.27224 0.49553 0.0
H1074 H 0.26995 0.25516 0.4591 0.0
H1075 H 0.26047 0.25854 0.47896 0.0
H1076 H 0.30517 0.26583 0.47455 0.0
H1077 H 0.29561 0.26933 0.49441 0.0
H1078 H 0.2653 0.23906 0.55197 0.0
H1079 H 0.25775 0.2492 0.53599 0.0
H1080 H 0.30197 0.25255 0.54259 0.0
H1081 H 0.29432 0.2629 0.52676 0.0
H1082 H 0.26558 0.28387 0.56345 0.0
H1083 H 0.2739 0.27859 0.54351 0.0
H1084 H 0.22938 0.27638 0.54948 0.0
H1085 H 0.23779 0.2705 0.5296 0.0
N1086 N 0.25728 0.27545 0.51347 0.0
N1087 N 0.27577 0.26198 0.50958 0.0
C1088 C 0.76053 0.47119 0.77938 0.0
C1089 C 0.76102 0.47195 0.79201 0.0
C1090 C 0.76428 0.48104 0.77318 0.0
C1091 C 0.7687 0.49182 0.77949 0.0
C1092 C 0.76539 0.48277 0.79831 0.0
C1093 C 0.7691 0.49264 0.7921 0.0
C1094 C 0.77238 0.50235 0.77298 0.0
C1095 C 0.79986 0.47742 0.76267 0.0
C1096 C 0.79967 0.47302 0.75046 0.0
C1097 C 0.79349 0.48686 0.76673 0.0
C1098 C 0.78678 0.49203 0.75866 0.0
C1099 C 0.79303 0.47829 0.74239 0.0
C1100 C 0.78672 0.48777 0.74644 0.0
C1101 C 0.78023 0.5022 0.76279 0.0
C1102 C 0.78839 0.55287 0.75215 0.0
C1103 C 0.78718 0.55154 0.73955 0.0
C1104 C 0.78516 0.54332 0.75894 0.0
C1105 C 0.78054 0.53229 0.75327 0.0
C1106 C 0.78268 0.54044 0.73392 0.0
C1107 C 0.77946 0.5309 0.74071 0.0
C1108 C 0.77725 0.52203 0.76027 0.0
C1109 C 0.75148 0.54842 0.77155 0.0
C1110 C 0.75135 0.55215 0.78394 0.0
C1111 C 0.75722 0.53865 0.76716 0.0
C1112 C 0.76326 0.53258 0.77503 0.0
C1113 C 0.75705 0.54578 0.79183 0.0
C1114 C 0.76294 0.53613 0.78742 0.0
C1115 C 0.76952 0.52227 0.77057 0.0
H1116 H 0.75728 0.46297 0.77426 0.0
H1117 H 0.7636 0.48025 0.76347 0.0
H1118 H 0.76571 0.48366 0.80806 0.0
H1119 H 0.77235 0.50092 0.79715 0.0
H1120 H 0.80487 0.47351 0.7691 0.0
H1121 H 0.79391 0.49018 0.77615 0.0
H1122 H 0.79286 0.4752 0.7329 0.0
H1123 H 0.78171 0.49172 0.74005 0.0
H1124 H 0.79206 0.56123 0.75675 0.0
H1125 H 0.78637 0.54451 0.7686 0.0
H1126 H 0.78152 0.53914 0.72426 0.0
H1127 H 0.776 0.52245 0.73615 0.0
H1128 H 0.74724 0.5531 0.76517 0.0
H1129 H 0.7569 0.53585 0.75762 0.0
H1130 H 0.75689 0.54817 0.80146 0.0
H1131 H 0.76733 0.53146 0.7937 0.0
N1132 N 0.76742 0.51241 0.77654 0.0
N1133 N 0.78226 0.512 0.75677 0.0
C1134 C 0.286 0.4765 0.74768 0.0
C1135 C 0.27384 0.47217 0.74545 0.0
C1136 C 0.28903 0.48775 0.75354 0.0
C1137 C 0.27993 0.4948 0.75747 0.0
C1138 C 0.26479 0.47942 0.74901 0.0
C1139 C 0.26782 0.49064 0.75492 0.0
C1140 C 0.28296 0.50654 0.76411 0.0
C1141 C 0.29209 0.47951 0.78736 0.0
C1142 C 0.30458 0.47967 0.78908 0.0
C1143 C 0.28759 0.48897 0.78274 0.0
C1144 C 0.29547 0.49875 0.77958 0.0
C1145 C 0.31242 0.48967 0.78632 0.0
C1146 C 0.30789 0.49914 0.78167 0.0
C1147 C 0.29077 0.50851 0.77407 0.0
C1148 C 0.2855 0.55891 0.79186 0.0
C1149 C 0.29764 0.5638 0.7932 0.0
C1150 C 0.28263 0.54754 0.78626 0.0
C1151 C 0.29183 0.54086 0.7818 0.0
C1152 C 0.30685 0.55692 0.78911 0.0
C1153 C 0.30396 0.54552 0.78352 0.0
C1154 C 0.28884 0.52907 0.77527 0.0
C1155 C 0.27766 0.5555 0.75175 0.0
C1156 C 0.26504 0.55474 0.75051 0.0
C1157 C 0.28284 0.54654 0.7566 0.0
C1158 C 0.27552 0.53664 0.76031 0.0
C1159 C 0.25775 0.54476 0.75412 0.0
C1160 C 0.26295 0.53575 0.75887 0.0
C1161 C 0.28088 0.52705 0.76544 0.0
H1162 H 0.29319 0.47122 0.74484 0.0
H1163 H 0.29848 0.49091 0.75506 0.0
H1164 H 0.25533 0.4763 0.7475 0.0
H1165 H 0.26067 0.49597 0.75777 0.0
H1166 H 0.28576 0.47209 0.78967 0.0
H1167 H 0.27792 0.4886 0.78156 0.0
H1168 H 0.32209 0.49007 0.78748 0.0
H1169 H 0.31413 0.50664 0.77939 0.0
H1170 H 0.27819 0.56399 0.79484 0.0
H1171 H 0.27319 0.54401 0.78529 0.0
H1172 H 0.31629 0.56037 0.79018 0.0
H1173 H 0.3112 0.54044 0.78027 0.0
H1174 H 0.2835 0.5631 0.74908 0.0
H1175 H 0.29259 0.54731 0.75741 0.0
H1176 H 0.24802 0.54385 0.75312 0.0
H1177 H 0.25714 0.52814 0.76156 0.0
N1178 N 0.27822 0.51586 0.76027 0.0
N1179 N 0.29353 0.51973 0.77919 0.0
C1180 C 0.2615 0.47173 0.28133 0.0
C1181 C 0.26175 0.47304 0.29398 0.0
C1182 C 0.26494 0.48135 0.27473 0.0
C1183 C 0.26893 0.49247 0.28064 0.0
C1184 C 0.26548 0.48422 0.2999 0.0
C1185 C 0.26901 0.49385 0.29327 0.0
C1186 C 0.27248 0.50274 0.27368 0.0
C1187 C 0.29997 0.47775 0.26406 0.0
C1188 C 0.29945 0.47272 0.25206 0.0
C1189 C 0.29369 0.48734 0.26776 0.0
C1190 C 0.28672 0.49204 0.25953 0.0
C1191 C 0.29261 0.47755 0.24381 0.0
C1192 C 0.28638 0.48718 0.2475 0.0
C1193 C 0.28012 0.50224 0.26334 0.0
C1194 C 0.28818 0.55229 0.25086 0.0
C1195 C 0.28674 0.55057 0.2383 0.0
C1196 C 0.28495 0.54302 0.25802 0.0
C1197 C 0.2801 0.5319 0.25278 0.0
C1198 C 0.28193 0.53939 0.23309 0.0
C1199 C 0.27872 0.53013 0.24026 0.0
C1200 C 0.27702 0.5219 0.26017 0.0
C1201 C 0.25142 0.54846 0.27156 0.0
C1202 C 0.25274 0.55322 0.28362 0.0
C1203 C 0.25684 0.53844 0.26733 0.0
C1204 C 0.26376 0.53306 0.27504 0.0
C1205 C 0.25946 0.54765 0.29137 0.0
C1206 C 0.26485 0.53763 0.28713 0.0
C1207 C 0.26966 0.52253 0.27071 0.0
H1208 H 0.25838 0.4633 0.27652 0.0
H1209 H 0.26433 0.48013 0.26501 0.0
H1210 H 0.26579 0.4855 0.30964 0.0
H1211 H 0.27192 0.50237 0.29803 0.0
H1212 H 0.30513 0.4742 0.27062 0.0
H1213 H 0.29431 0.49112 0.27703 0.0
H1214 H 0.29219 0.47397 0.23446 0.0
H1215 H 0.28118 0.49077 0.24098 0.0
H1216 H 0.29209 0.56071 0.25514 0.0
H1217 H 0.28643 0.54451 0.26763 0.0
H1218 H 0.28059 0.53779 0.22347 0.0
H1219 H 0.27508 0.52159 0.23603 0.0
H1220 H 0.24633 0.55256 0.26536 0.0
H1221 H 0.25561 0.5349 0.25803 0.0
H1222 H 0.26045 0.55097 0.30076 0.0
H1223 H 0.27002 0.53353 0.29327 0.0
N1224 N 0.26767 0.51292 0.27706 0.0
N1225 N 0.28197 0.51177 0.2569 0.0
C1226 C 0.78506 0.46622 0.23317 0.0
C1227 C 0.77276 0.46211 0.2314 0.0
C1228 C 0.78849 0.4775 0.23875 0.0
C1229 C 0.7797 0.48484 0.24283 0.0
C1230 C 0.764 0.46961 0.23517 0.0
C1231 C 0.76745 0.4809 0.24079 0.0
C1232 C 0.78328 0.49671 0.24898 0.0
C1233 C 0.79229 0.47095 0.2741 0.0
C1234 C 0.80478 0.47063 0.27526 0.0
C1235 C 0.78802 0.48006 0.26864 0.0
C1236 C 0.79616 0.48906 0.26422 0.0
C1237 C 0.81291 0.4797 0.27093 0.0
C1238 C 0.80863 0.4889 0.26558 0.0
C1239 C 0.79165 0.49875 0.25845 0.0
C1240 C 0.7903 0.55013 0.27468 0.0
C1241 C 0.80274 0.55411 0.27541 0.0
C1242 C 0.78634 0.53881 0.26947 0.0
C1243 C 0.79474 0.5313 0.26474 0.0
C1244 C 0.81112 0.54644 0.27096 0.0
C1245 C 0.80715 0.53512 0.26573 0.0
C1246 C 0.79068 0.51942 0.2589 0.0
C1247 C 0.77877 0.54609 0.23642 0.0
C1248 C 0.76611 0.54564 0.23582 0.0
C1249 C 0.78401 0.53682 0.24064 0.0
C1250 C 0.77669 0.52699 0.24453 0.0
C1251 C 0.75884 0.53559 0.23931 0.0
C1252 C 0.76409 0.52634 0.24357 0.0
C1253 C 0.78207 0.51737 0.24962 0.0
H1254 H 0.79204 0.46075 0.23013 0.0
H1255 H 0.79804 0.48049 0.23984 0.0
H1256 H 0.75445 0.46667 0.23401 0.0
H1257 H 0.76052 0.48646 0.24377 0.0
H1258 H 0.7858 0.46406 0.2773 0.0
H1259 H 0.77835 0.48012 0.2679 0.0
H1260 H 0.82258 0.47975 0.27183 0.0
H1261 H 0.81506 0.4958 0.26234 0.0
H1262 H 0.7836 0.55583 0.27797 0.0
H1263 H 0.77671 0.53595 0.26908 0.0
H1264 H 0.82076 0.54915 0.27159 0.0
H1265 H 0.81378 0.5294 0.26228 0.0
H1266 H 0.78465 0.55358 0.23357 0.0
H1267 H 0.79378 0.53737 0.24093 0.0
H1268 H 0.74906 0.53498 0.23903 0.0
H1269 H 0.75826 0.51881 0.24642 0.0
N1270 N 0.77869 0.50607 0.24503 0.0
N1271 N 0.79515 0.51004 0.26295 0.0
C1272 C 0.5561 0.25385 0.74575 0.0
C1273 C 0.55548 0.24147 0.74434 0.0
C1274 C 0.54596 0.25936 0.74966 0.0
C1275 C 0.53501 0.25262 0.75243 0.0
C1276 C 0.54442 0.23476 0.74687 0.0
C1277 C 0.53428 0.24028 0.75081 0.0
C1278 C 0.52421 0.25836 0.75668 0.0
C1279 C 0.55229 0.26784 0.78513 0.0
C1280 C 0.556 0.28 0.78728 0.0
C1281 C 0.542 0.26375 0.77836 0.0
C1282 C 0.53539 0.27174 0.77339 0.0
C1283 C 0.54916 0.28797 0.78259 0.0
C1284 C 0.53894 0.28388 0.77574 0.0
C1285 C 0.52453 0.26759 0.76609 0.0
C1286 C 0.47197 0.27416 0.7743 0.0
C1287 C 0.47288 0.28654 0.77613 0.0
C1288 C 0.48192 0.26853 0.76999 0.0
C1289 C 0.49295 0.27515 0.76726 0.0
C1290 C 0.48397 0.29314 0.77349 0.0
C1291 C 0.49391 0.2875 0.76917 0.0
C1292 C 0.5037 0.26931 0.76304 0.0
C1293 C 0.47601 0.25998 0.73418 0.0
C1294 C 0.47184 0.24788 0.73249 0.0
C1295 C 0.48627 0.26398 0.74101 0.0
C1296 C 0.4925 0.25596 0.74638 0.0
C1297 C 0.47825 0.23987 0.73769 0.0
C1298 C 0.48851 0.24387 0.74451 0.0
C1299 C 0.50336 0.26005 0.75367 0.0
H1300 H 0.56448 0.2593 0.74394 0.0
H1301 H 0.54668 0.2689 0.75053 0.0
H1302 H 0.54355 0.22522 0.74568 0.0
H1303 H 0.52588 0.2349 0.75272 0.0
H1304 H 0.55726 0.2615 0.78881 0.0
H1305 H 0.53921 0.25435 0.77706 0.0
H1306 H 0.55184 0.29739 0.78402 0.0
H1307 H 0.53392 0.29021 0.77211 0.0
H1308 H 0.46356 0.26881 0.77617 0.0
H1309 H 0.48101 0.25898 0.76893 0.0
H1310 H 0.48506 0.30267 0.77499 0.0
H1311 H 0.50237 0.29279 0.76729 0.0
H1312 H 0.47143 0.26637 0.7301 0.0
H1313 H 0.48939 0.27333 0.74203 0.0
H1314 H 0.47522 0.2305 0.73668 0.0
H1315 H 0.49323 0.23752 0.7485 0.0
N1316 N 0.5136 0.25489 0.75091 0.0
N1317 N 0.51429 0.27275 0.76882 0.0
C1318 C 0.49346 0.78474 0.74589 0.0
C1319 C 0.49479 0.79714 0.74695 0.0
C1320 C 0.50178 0.77869 0.75112 0.0
C1321 C 0.51154 0.78492 0.75758 0.0
C1322 C 0.50478 0.80335 0.75312 0.0
C1323 C 0.51314 0.79728 0.75832 0.0
C1324 C 0.51998 0.77859 0.76374 0.0
C1325 C 0.48435 0.77512 0.78275 0.0
C1326 C 0.47824 0.76364 0.78122 0.0
C1327 C 0.49671 0.77719 0.78009 0.0
C1328 C 0.50316 0.76784 0.7757 0.0
C1329 C 0.48485 0.75421 0.77739 0.0
C1330 C 0.49724 0.7563 0.77469 0.0
C1331 C 0.51599 0.77016 0.77187 0.0
C1332 C 0.56262 0.7613 0.79301 0.0
C1333 C 0.56124 0.74893 0.79263 0.0
C1334 C 0.55445 0.76705 0.7872 0.0
C1335 C 0.54482 0.76054 0.78076 0.0
C1336 C 0.55141 0.74244 0.78643 0.0
C1337 C 0.54322 0.74822 0.78061 0.0
C1338 C 0.53637 0.76658 0.77429 0.0
C1339 C 0.57246 0.77152 0.75539 0.0
C1340 C 0.5778 0.78331 0.75621 0.0
C1341 C 0.56026 0.76879 0.7585 0.0
C1342 C 0.55321 0.77778 0.76258 0.0
C1343 C 0.57062 0.79231 0.76001 0.0
C1344 C 0.55842 0.78957 0.7631 0.0
C1345 C 0.54035 0.77503 0.76616 0.0
H1346 H 0.48582 0.77971 0.74125 0.0
H1347 H 0.5005 0.76914 0.75026 0.0
H1348 H 0.50613 0.81289 0.75394 0.0
H1349 H 0.52068 0.80223 0.76317 0.0
H1350 H 0.47957 0.78253 0.78595 0.0
H1351 H 0.50119 0.78614 0.78129 0.0
H1352 H 0.48038 0.74527 0.7761 0.0
H1353 H 0.50209 0.74896 0.77141 0.0
H1354 H 0.57014 0.76655 0.79763 0.0
H1355 H 0.5557 0.77659 0.78767 0.0
H1356 H 0.55 0.73292 0.78614 0.0
H1357 H 0.53576 0.74305 0.77582 0.0
H1358 H 0.57776 0.7644 0.75253 0.0
H1359 H 0.55635 0.75964 0.75774 0.0
H1360 H 0.57441 0.80149 0.76052 0.0
H1361 H 0.55311 0.79665 0.76609 0.0
N1362 N 0.53201 0.78078 0.76126 0.0
N1363 N 0.52432 0.76439 0.77678 0.0
C1364 C 0.47753 0.78419 0.26461 0.0
C1365 C 0.4741 0.78443 0.27687 0.0
C1366 C 0.48747 0.77855 0.26023 0.0
C1367 C 0.49408 0.77291 0.268 0.0
C1368 C 0.48095 0.77902 0.28466 0.0
C1369 C 0.49085 0.77337 0.28028 0.0
C1370 C 0.50462 0.76685 0.26356 0.0
C1371 C 0.47202 0.74689 0.24504 0.0
C1372 C 0.47259 0.74645 0.2324 0.0
C1373 C 0.48231 0.75084 0.25184 0.0
C1374 C 0.49333 0.75466 0.24614 0.0
C1375 C 0.48367 0.75007 0.22671 0.0
C1376 C 0.49394 0.75411 0.23352 0.0
C1377 C 0.50438 0.75869 0.25319 0.0
C1378 C 0.55194 0.73891 0.25562 0.0
C1379 C 0.55556 0.73833 0.2434 0.0
C1380 C 0.54209 0.74481 0.25968 0.0
C1381 C 0.53571 0.75037 0.25164 0.0
C1382 C 0.54902 0.74375 0.23535 0.0
C1383 C 0.53916 0.74964 0.23942 0.0
C1384 C 0.52521 0.75661 0.25583 0.0
C1385 C 0.5577 0.7777 0.27342 0.0
C1386 C 0.5575 0.77826 0.28607 0.0
C1387 C 0.54735 0.77325 0.26691 0.0
C1388 C 0.53663 0.76913 0.27291 0.0
C1389 C 0.54673 0.77418 0.29206 0.0
C1390 C 0.53638 0.76973 0.28553 0.0
C1391 C 0.52547 0.76484 0.26613 0.0
H1392 H 0.47245 0.78824 0.25835 0.0
H1393 H 0.48997 0.77862 0.25078 0.0
H1394 H 0.47872 0.77924 0.29419 0.0
H1395 H 0.49593 0.76925 0.28648 0.0
H1396 H 0.46367 0.74393 0.24967 0.0
H1397 H 0.48169 0.75076 0.26154 0.0
H1398 H 0.48438 0.74988 0.21699 0.0
H1399 H 0.50235 0.75689 0.22892 0.0
H1400 H 0.5566 0.73463 0.26203 0.0
H1401 H 0.53938 0.74492 0.2691 0.0
H1402 H 0.55161 0.74359 0.2259 0.0
H1403 H 0.53433 0.75378 0.23303 0.0
H1404 H 0.56586 0.78071 0.26853 0.0
H1405 H 0.5477 0.77318 0.25719 0.0
H1406 H 0.54623 0.77466 0.3018 0.0
H1407 H 0.52816 0.76675 0.29036 0.0
N1408 N 0.51515 0.76956 0.26964 0.0
N1409 N 0.5147 0.75394 0.24971 0.0
C1410 C 0.49372 0.2809 0.24645 0.0
C1411 C 0.49472 0.29321 0.24622 0.0
C1412 C 0.50303 0.27558 0.25098 0.0
C1413 C 0.51342 0.28247 0.25565 0.0
C1414 C 0.50541 0.30004 0.25037 0.0
C1415 C 0.51469 0.2947 0.25501 0.0
C1416 C 0.52294 0.27701 0.26129 0.0
C1417 C 0.48901 0.27163 0.28366 0.0
C1418 C 0.48422 0.2597 0.28353 0.0
C1419 C 0.50086 0.27474 0.27961 0.0
C1420 C 0.50807 0.26598 0.2752 0.0
C1421 C 0.49163 0.25096 0.27951 0.0
C1422 C 0.50346 0.25408 0.27544 0.0
C1423 C 0.52038 0.26909 0.27024 0.0
C1424 C 0.57009 0.26359 0.28689 0.0
C1425 C 0.56889 0.2514 0.28801 0.0
C1426 C 0.5611 0.26859 0.2814 0.0
C1427 C 0.55082 0.26148 0.27675 0.0
C1428 C 0.55846 0.24435 0.28357 0.0
C1429 C 0.54948 0.24936 0.27805 0.0
C1430 C 0.5413 0.26668 0.27083 0.0
C1431 C 0.57456 0.27026 0.24762 0.0
C1432 C 0.57981 0.28198 0.24714 0.0
C1433 C 0.56279 0.26779 0.25214 0.0
C1434 C 0.55609 0.277 0.2564 0.0
C1435 C 0.57291 0.29118 0.25104 0.0
C1436 C 0.56113 0.28871 0.25556 0.0
C1437 C 0.54384 0.27446 0.26175 0.0
H1438 H 0.4856 0.27535 0.24342 0.0
H1439 H 0.50199 0.26608 0.25105 0.0
H1440 H 0.50661 0.30951 0.25008 0.0
H1441 H 0.52272 0.30017 0.25838 0.0
H1442 H 0.4836 0.27856 0.28692 0.0
H1443 H 0.50435 0.28398 0.27982 0.0
H1444 H 0.48819 0.2417 0.27921 0.0
H1445 H 0.50891 0.24719 0.27215 0.0
H1446 H 0.57803 0.26927 0.29015 0.0
H1447 H 0.5622 0.27803 0.2808 0.0
H1448 H 0.55716 0.23497 0.28448 0.0
H1449 H 0.54154 0.24374 0.27467 0.0
H1450 H 0.57964 0.26297 0.24474 0.0
H1451 H 0.55897 0.25868 0.25242 0.0
H1452 H 0.57662 0.3003 0.25058 0.0
H1453 H 0.55605 0.29594 0.25866 0.0
N1454 N 0.53459 0.27944 0.25742 0.0
N1455 N 0.52965 0.2642 0.27463 0.0
H1456 H 0.22144 0.1677 0.15307 0.0
H1457 H 0.23282 0.17576 0.13602 0.0
H1458 H 0.22198 0.21006 0.14715 0.0
H1459 H 0.21033 0.20202 0.16397 0.0
H1460 H 0.21846 0.20435 0.12376 0.0
H1461 H 0.26482 0.19618 0.13449 0.0
H1462 H 0.25418 0.18309 0.13373 0.0
H1463 H 0.2524 0.1949 0.14524 0.0
C1464 C 0.22159 0.17698 0.15196 0.0
C1465 C 0.21496 0.18421 0.15989 0.0
C1466 C 0.22817 0.1816 0.14224 0.0
C1467 C 0.22841 0.19356 0.14038 0.0
C1468 C 0.22196 0.20081 0.14841 0.0
H1469 H 0.27495 0.23269 0.09015 0.0
H1470 H 0.26547 0.2243 0.108 0.0
C1471 C 0.2153 0.1962 0.15804 0.0
C1472 C 0.23473 0.19842 0.12969 0.0
H1473 H 0.26206 0.20194 0.11488 0.0
C1474 C 0.22801 0.20386 0.12186 0.0
C1475 C 0.24723 0.19792 0.12727 0.0
C1476 C 0.25511 0.19282 0.13569 0.0
C1477 C 0.23338 0.20871 0.11164 0.0
C1478 C 0.24576 0.2078 0.10895 0.0
C1479 C 0.25254 0.2025 0.11686 0.0
C1480 C 0.25184 0.21246 0.09807 0.0
C1481 C 0.22577 0.21498 0.10396 0.0
C1482 C 0.24751 0.20841 0.08654 0.0
C1483 C 0.25286 0.21324 0.07635 0.0
C1484 C 0.26276 0.2221 0.07747 0.0
C1485 C 0.26736 0.22585 0.08899 0.0
C1486 C 0.26194 0.22108 0.0992 0.0
H1487 H 0.21773 0.21787 0.10904 0.0
H1488 H 0.23111 0.22283 0.10055 0.0
H1489 H 0.22246 0.20887 0.09612 0.0
H1490 H 0.23995 0.20154 0.08541 0.0
H1491 H 0.24925 0.21001 0.06758 0.0
H1492 H 0.84097 0.18159 0.12157 0.0
H1493 H 0.8346 0.18776 0.1026 0.0
H1494 H 0.80509 0.20334 0.12126 0.0
H1495 H 0.81162 0.19754 0.14031 0.0
H1496 H 0.81409 0.18215 0.09042 0.0
H1497 H 0.82027 0.23028 0.10335 0.0
H1498 H 0.82593 0.2199 0.11227 0.0
H1499 H 0.81028 0.22247 0.11356 0.0
C1500 C 0.83315 0.18638 0.12165 0.0
C1501 C 0.82685 0.18916 0.13246 0.0
C1502 C 0.82952 0.18989 0.11079 0.0
C1503 C 0.81951 0.19621 0.11053 0.0
C1504 C 0.81305 0.19877 0.12128 0.0
H1505 H 0.77843 0.20404 0.04755 0.0
H1506 H 0.7863 0.19766 0.0657 0.0
C1507 C 0.81675 0.19538 0.13216 0.0
C1508 C 0.81567 0.19991 0.09898 0.0
H1509 H 0.80922 0.22379 0.08546 0.0
C1510 C 0.8131 0.19127 0.0893 0.0
C1511 C 0.81459 0.21183 0.09745 0.0
C1512 C 0.81804 0.22167 0.10717 0.0
C1513 C 0.80923 0.19419 0.07823 0.0
C1514 C 0.80755 0.20603 0.07691 0.0
C1515 C 0.81037 0.2147 0.08651 0.0
C1516 C 0.80288 0.20967 0.06569 0.0
C1517 C 0.80717 0.18458 0.06801 0.0
C1518 C 0.8094 0.21877 0.0598 0.0
C1519 C 0.80478 0.22266 0.04959 0.0
C1520 C 0.79352 0.2175 0.045 0.0
C1521 C 0.78706 0.2083 0.05087 0.0
C1522 C 0.79165 0.20451 0.06116 0.0
H1523 H 0.81242 0.17714 0.06917 0.0
H1524 H 0.79744 0.18106 0.06783 0.0
H1525 H 0.80976 0.18798 0.05919 0.0
H1526 H 0.81805 0.22295 0.06318 0.0
H1527 H 0.80991 0.22991 0.04547 0.0
H1528 H 0.85832 0.81498 0.16912 0.0
H1529 H 0.85075 0.80066 0.15256 0.0
H1530 H 0.85631 0.82775 0.12807 0.0
H1531 H 0.86405 0.84205 0.14445 0.0
H1532 H 0.83076 0.80176 0.13933 0.0
H1533 H 0.87111 0.80078 0.1092 0.0
H1534 H 0.87199 0.8069 0.12474 0.0
H1535 H 0.86758 0.81551 0.11331 0.0
C1536 C 0.8581 0.81785 0.16017 0.0
C1537 C 0.86179 0.82967 0.15812 0.0
C1538 C 0.85377 0.80966 0.15073 0.0
C1539 C 0.85312 0.8131 0.13906 0.0
C1540 C 0.85699 0.82483 0.13694 0.0
H1541 H 0.80525 0.78753 0.08159 0.0
H1542 H 0.81571 0.79728 0.09943 0.0
C1543 C 0.86134 0.83302 0.14636 0.0
C1544 C 0.8475 0.80474 0.12927 0.0
H1545 H 0.85194 0.79357 0.1002 0.0
C1546 C 0.83545 0.79983 0.13083 0.0
C1547 C 0.85367 0.8021 0.11825 0.0
C1548 C 0.86684 0.8065 0.1163 0.0
C1549 C 0.82921 0.7928 0.12147 0.0
C1550 C 0.83513 0.79082 0.11019 0.0
C1551 C 0.84736 0.79524 0.10881 0.0
C1552 C 0.82864 0.78464 0.09956 0.0
C1553 C 0.81631 0.78764 0.12372 0.0
C1554 C 0.8326 0.77444 0.09356 0.0
C1555 C 0.82664 0.76885 0.08332 0.0
C1556 C 0.81664 0.7734 0.07889 0.0
C1557 C 0.81275 0.78366 0.08491 0.0
C1558 C 0.81872 0.78924 0.09512 0.0
H1559 H 0.81441 0.78691 0.13348 0.0
H1560 H 0.81008 0.79349 0.12056 0.0
H1561 H 0.81431 0.77877 0.11878 0.0
H1562 H 0.84028 0.77079 0.09682 0.0
H1563 H 0.8298 0.76091 0.07894 0.0
H1564 H 0.23197 0.79185 0.15502 0.0
H1565 H 0.2377 0.78258 0.13534 0.0
H1566 H 0.22018 0.80768 0.1178 0.0
H1567 H 0.21406 0.81673 0.13742 0.0
H1568 H 0.21491 0.78598 0.10706 0.0
H1569 H 0.26449 0.79498 0.11335 0.0
H1570 H 0.25691 0.78668 0.12476 0.0
H1571 H 0.25377 0.80154 0.12355 0.0
C1572 C 0.22935 0.7954 0.14697 0.0
C1573 C 0.22261 0.80506 0.14777 0.0
C1574 C 0.2327 0.79014 0.13573 0.0
C1575 C 0.22959 0.79459 0.1251 0.0
C1576 C 0.22273 0.80414 0.12589 0.0
H1577 H 0.26195 0.78069 0.05435 0.0
H1578 H 0.25568 0.78911 0.07423 0.0
C1579 C 0.21925 0.8093 0.13711 0.0
C1580 C 0.2333 0.78923 0.11313 0.0
H1581 H 0.25789 0.78228 0.0961 0.0
C1582 C 0.22432 0.7852 0.10464 0.0
C1583 C 0.24559 0.78837 0.10993 0.0
C1584 C 0.25576 0.79323 0.11833 0.0
C1585 C 0.22726 0.78029 0.09307 0.0
C1586 C 0.2395 0.77904 0.09003 0.0
C1587 C 0.2485 0.78313 0.09849 0.0
C1588 C 0.24324 0.77383 0.078 0.0
C1589 C 0.21724 0.77679 0.08414 0.0
C1590 C 0.23845 0.76239 0.07357 0.0
C1591 C 0.24193 0.75762 0.06217 0.0
C1592 C 0.25044 0.76412 0.0551 0.0
C1593 C 0.25543 0.77546 0.05965 0.0
C1594 C 0.25183 0.78028 0.07098 0.0
H1595 H 0.20919 0.78143 0.08662 0.0
H1596 H 0.22031 0.77875 0.07491 0.0
H1597 H 0.21436 0.76718 0.08401 0.0
H1598 H 0.23207 0.75712 0.07896 0.0
H1599 H 0.23809 0.74879 0.05894 0.0
H1600 H 0.21781 0.81084 0.86486 0.0
H1601 H 0.225 0.79923 0.87985 0.0
H1602 H 0.21273 0.82338 0.90837 0.0
H1603 H 0.2052 0.83484 0.89346 0.0
H1604 H 0.24175 0.805 0.89687 0.0
H1605 H 0.19733 0.79219 0.91857 0.0
H1606 H 0.19872 0.79885 0.90452 0.0
H1607 H 0.20084 0.80786 0.9186 0.0
C1608 C 0.21661 0.81366 0.87433 0.0
C1609 C 0.21086 0.82371 0.87797 0.0
C1610 C 0.22072 0.80702 0.88288 0.0
C1611 C 0.21919 0.8103 0.89524 0.0
C1612 C 0.2137 0.82049 0.8989 0.0
H1613 H 0.25852 0.78755 0.953 0.0
H1614 H 0.25104 0.79819 0.93734 0.0
C1615 C 0.20948 0.82708 0.89035 0.0
C1616 C 0.2236 0.80322 0.90428 0.0
H1617 H 0.21477 0.78852 0.92884 0.0
C1618 C 0.23584 0.80134 0.90382 0.0
C1619 C 0.21583 0.79827 0.91322 0.0
C1620 C 0.20243 0.79928 0.91371 0.0
C1621 C 0.24058 0.79485 0.91221 0.0
C1622 C 0.23294 0.79039 0.9215 0.0
C1623 C 0.22065 0.79206 0.92181 0.0
C1624 C 0.2375 0.78394 0.931 0.0
C1625 C 0.25368 0.79267 0.91089 0.0
C1626 C 0.23213 0.77254 0.93291 0.0
C1627 C 0.23629 0.76651 0.94195 0.0
C1628 C 0.24593 0.77176 0.94924 0.0
C1629 C 0.25123 0.78321 0.94738 0.0
C1630 C 0.24699 0.78928 0.93841 0.0
H1631 H 0.25713 0.79345 0.90152 0.0
H1632 H 0.25925 0.79935 0.9169 0.0
H1633 H 0.25496 0.78378 0.91343 0.0
H1634 H 0.22476 0.76828 0.92733 0.0
H1635 H 0.23208 0.75766 0.94313 0.0
H1636 H 0.22318 0.18807 0.87679 0.0
H1637 H 0.23489 0.19445 0.89499 0.0
H1638 H 0.20184 0.19464 0.91614 0.0
H1639 H 0.19003 0.18825 0.89805 0.0
H1640 H 0.21904 0.21617 0.91871 0.0
H1641 H 0.23968 0.17531 0.92452 0.0
H1642 H 0.24071 0.1803 0.90967 0.0
H1643 H 0.22619 0.17521 0.91588 0.0
C1644 C 0.21839 0.18936 0.88533 0.0
C1645 C 0.20566 0.18766 0.88596 0.0
C1646 C 0.2251 0.19296 0.89571 0.0
C1647 C 0.2192 0.19493 0.90688 0.0
C1648 C 0.20653 0.19312 0.90758 0.0
H1649 H 0.24578 0.21045 0.97943 0.0
H1650 H 0.23516 0.20219 0.96102 0.0
C1651 C 0.19982 0.18945 0.89723 0.0
C1652 C 0.22619 0.19949 0.91775 0.0
H1653 H 0.24617 0.19224 0.93763 0.0
C1654 C 0.22498 0.21096 0.92285 0.0
C1655 C 0.23386 0.19261 0.92312 0.0
C1656 C 0.23518 0.18013 0.91811 0.0
C1657 C 0.23133 0.21578 0.93319 0.0
C1658 C 0.23911 0.20896 0.93848 0.0
C1659 C 0.24025 0.19745 0.93345 0.0
C1660 C 0.24591 0.21361 0.94943 0.0
C1661 C 0.22959 0.22808 0.93849 0.0
C1662 C 0.25555 0.22263 0.94892 0.0
C1663 C 0.26163 0.22735 0.95939 0.0
C1664 C 0.25812 0.22315 0.97055 0.0
C1665 C 0.24858 0.21396 0.97098 0.0
C1666 C 0.24256 0.20919 0.96049 0.0
H1667 H 0.2218 0.23143 0.9345 0.0
H1668 H 0.22812 0.22829 0.9484 0.0
H1669 H 0.23788 0.23415 0.93678 0.0
H1670 H 0.25827 0.2261 0.94043 0.0
H1671 H 0.26889 0.23448 0.9588 0.0
H1672 H 0.83083 0.22637 0.83953 0.0
H1673 H 0.82415 0.22079 0.85953 0.0
H1674 H 0.79523 0.24263 0.85952 0.0
H1675 H 0.80169 0.24802 0.83942 0.0
H1676 H 0.82277 0.23727 0.88014 0.0
H1677 H 0.77829 0.2112 0.87045 0.0
H1678 H 0.7898 0.21388 0.85894 0.0
H1679 H 0.78038 0.2251 0.86406 0.0
C1680 C 0.82281 0.22966 0.84361 0.0
C1681 C 0.8166 0.23741 0.83781 0.0
C1682 C 0.81909 0.22657 0.85509 0.0
C1683 C 0.80907 0.23113 0.86089 0.0
C1684 C 0.80282 0.23881 0.85507 0.0
H1685 H 0.77371 0.2387 0.92915 0.0
H1686 H 0.78032 0.23749 0.90805 0.0
C1687 C 0.80657 0.24195 0.84365 0.0
C1688 C 0.8057 0.22871 0.87341 0.0
H1689 H 0.78202 0.21825 0.89105 0.0
C1690 C 0.81394 0.23294 0.88254 0.0
C1691 C 0.79417 0.22308 0.87647 0.0
C1692 C 0.78517 0.21795 0.86696 0.0
C1693 C 0.81073 0.23224 0.89474 0.0
C1694 C 0.79905 0.22694 0.89783 0.0
C1695 C 0.79096 0.22233 0.88866 0.0
C1696 C 0.79472 0.22691 0.91052 0.0
C1697 C 0.81965 0.23772 0.90421 0.0
C1698 C 0.80049 0.22116 0.91886 0.0
C1699 C 0.79672 0.22184 0.93097 0.0
C1700 C 0.78704 0.22817 0.93488 0.0
C1701 C 0.78108 0.23362 0.9264 0.0
C1702 C 0.78488 0.23298 0.91435 0.0
H1703 H 0.82715 0.24361 0.90038 0.0
H1704 H 0.81507 0.24289 0.91153 0.0
H1705 H 0.82365 0.23063 0.90823 0.0
H1706 H 0.80795 0.21623 0.91603 0.0
H1707 H 0.80138 0.21744 0.93726 0.0
H1708 H 0.8405 0.83822 0.8976 0.0
H1709 H 0.83301 0.83043 0.91652 0.0
H1710 H 0.83485 0.79498 0.90037 0.0
H1711 H 0.84241 0.80263 0.88156 0.0
H1712 H 0.81247 0.81452 0.92144 0.0
H1713 H 0.85495 0.79663 0.93084 0.0
H1714 H 0.85418 0.807 0.91979 0.0
H1715 H 0.84911 0.79161 0.91617 0.0
C1716 C 0.83928 0.82876 0.89807 0.0
C1717 C 0.84216 0.82105 0.88809 0.0
C1718 C 0.835 0.82433 0.90888 0.0
C1719 C 0.8336 0.81214 0.90991 0.0
C1720 C 0.83612 0.80443 0.89986 0.0
H1721 H 0.79344 0.77062 0.96161 0.0
H1722 H 0.80061 0.78105 0.94418 0.0
C1723 C 0.84039 0.80883 0.88908 0.0
C1724 C 0.8295 0.80739 0.92145 0.0
H1725 H 0.83759 0.79038 0.94265 0.0
C1726 C 0.81799 0.80931 0.92614 0.0
C1727 C 0.83678 0.80076 0.92766 0.0
C1728 C 0.84949 0.79896 0.92344 0.0
C1729 C 0.8134 0.80444 0.93668 0.0
C1730 C 0.82046 0.79732 0.94255 0.0
C1731 C 0.83213 0.79573 0.93807 0.0
C1732 C 0.81588 0.79128 0.95326 0.0
C1733 C 0.80109 0.80703 0.94146 0.0
C1734 C 0.82223 0.79335 0.96409 0.0
C1735 C 0.81818 0.78736 0.97407 0.0
C1736 C 0.80772 0.77913 0.97339 0.0
C1737 C 0.8014 0.77705 0.96251 0.0
C1738 C 0.80547 0.78303 0.95254 0.0
H1739 H 0.79846 0.81515 0.93811 0.0
H1740 H 0.79424 0.79958 0.93837 0.0
H1741 H 0.80083 0.80807 0.95146 0.0
H1742 H 0.83032 0.79964 0.96483 0.0
H1743 H 0.82319 0.78926 0.98234 0.0
H1744 H 0.15355 0.21252 0.19019 0.0
H1745 H 0.1348 0.2189 0.19891 0.0
H1746 H 0.13092 0.18988 0.2211 0.0
H1747 H 0.14985 0.18346 0.21248 0.0
H1748 H 0.11164 0.2062 0.19843 0.0
H1749 H 0.12711 0.21864 0.2454 0.0
H1750 H 0.13753 0.21635 0.23291 0.0
H1751 H 0.12916 0.20394 0.23922 0.0
C1752 C 0.14877 0.20749 0.19696 0.0
C1753 C 0.15324 0.19749 0.20067 0.0
C1754 C 0.13803 0.21116 0.20193 0.0
C1755 C 0.13153 0.20495 0.21074 0.0
C1756 C 0.1359 0.19492 0.21445 0.0
H1757 H 0.06438 0.22015 0.24902 0.0
H1758 H 0.08225 0.21093 0.24159 0.0
C1759 C 0.14669 0.19123 0.20947 0.0
C1760 C 0.12005 0.20894 0.21577 0.0
H1761 H 0.10677 0.22058 0.24149 0.0
C1762 C 0.11056 0.2093 0.20786 0.0
C1763 C 0.11864 0.21294 0.22808 0.0
C1764 C 0.12866 0.21306 0.23692 0.0
C1765 C 0.09974 0.21364 0.21188 0.0
C1766 C 0.09845 0.21794 0.22412 0.0
C1767 C 0.1078 0.2173 0.23211 0.0
C1768 C 0.08765 0.22355 0.22867 0.0
C1769 C 0.08975 0.21354 0.20301 0.0
C1770 C 0.08487 0.23381 0.22401 0.0
C1771 C 0.07472 0.23913 0.22826 0.0
C1772 C 0.06715 0.23434 0.23733 0.0
C1773 C 0.07006 0.22413 0.2421 0.0
C1774 C 0.08023 0.21882 0.23784 0.0
H1775 H 0.09072 0.20704 0.19508 0.0
H1776 H 0.08072 0.21143 0.2073 0.0
H1777 H 0.09014 0.22239 0.1997 0.0
H1778 H 0.09063 0.23778 0.21714 0.0
H1779 H 0.07291 0.24711 0.22457 0.0
H1780 H 0.83379 0.12722 0.16813 0.0
H1781 H 0.82375 0.11009 0.17745 0.0
H1782 H 0.80899 0.13314 0.20546 0.0
H1783 H 0.8189 0.15031 0.19619 0.0
H1784 H 0.82832 0.1053 0.20115 0.0
H1785 H 0.77965 0.10914 0.19532 0.0
H1786 H 0.79151 0.11666 0.18651 0.0
H1787 H 0.78833 0.1224 0.20169 0.0
C1788 C 0.82824 0.12866 0.17616 0.0
C1789 C 0.82717 0.14014 0.18143 0.0
C1790 C 0.82253 0.11886 0.18148 0.0
C1791 C 0.81554 0.12036 0.19207 0.0
C1792 C 0.81417 0.13179 0.19716 0.0
H1793 H 0.78139 0.07525 0.24423 0.0
H1794 H 0.78892 0.09164 0.23248 0.0
C1795 C 0.8199 0.1416 0.19188 0.0
C1796 C 0.81055 0.11001 0.19836 0.0
H1797 H 0.78429 0.09549 0.20877 0.0
C1798 C 0.81869 0.10307 0.20272 0.0
C1799 C 0.79799 0.10722 0.20048 0.0
C1800 C 0.78883 0.11417 0.19567 0.0
C1801 C 0.81464 0.09356 0.2094 0.0
C1802 C 0.80207 0.09077 0.21153 0.0
C1803 C 0.79391 0.09766 0.20711 0.0
C1804 C 0.79726 0.08078 0.21844 0.0
C1805 C 0.82388 0.08682 0.2144 0.0
C1806 C 0.79929 0.06922 0.21434 0.0
C1807 C 0.79514 0.05987 0.22109 0.0
C1808 C 0.78874 0.06186 0.23203 0.0
C1809 C 0.78646 0.07343 0.23596 0.0
C1810 C 0.79067 0.08279 0.22921 0.0
H1811 H 0.83302 0.09193 0.2147 0.0
H1812 H 0.82123 0.0845 0.22363 0.0
H1813 H 0.82449 0.07851 0.20855 0.0
H1814 H 0.80418 0.06745 0.20595 0.0
H1815 H 0.79714 0.0511 0.21784 0.0
H1816 H 0.91572 0.85006 0.19975 0.0
H1817 H 0.93389 0.84372 0.20768 0.0
H1818 H 0.91179 0.82358 0.23263 0.0
H1819 H 0.89358 0.82971 0.22466 0.0
H1820 H 0.94284 0.84658 0.23112 0.0
H1821 H 0.93181 0.79925 0.21522 0.0
H1822 H 0.92408 0.81065 0.2099 0.0
H1823 H 0.92006 0.8053 0.22429 0.0
C1824 C 0.91472 0.84429 0.20693 0.0
C1825 C 0.90319 0.84032 0.21151 0.0
C1826 C 0.92511 0.84068 0.21145 0.0
C1827 C 0.92416 0.83302 0.22058 0.0
C1828 C 0.9127 0.82929 0.22539 0.0
H1829 H 0.97356 0.79976 0.26035 0.0
H1830 H 0.9562 0.80769 0.25265 0.0
C1831 C 0.90231 0.83286 0.22086 0.0
C1832 C 0.93514 0.82893 0.22511 0.0
H1833 H 0.94834 0.80413 0.22847 0.0
C1834 C 0.9441 0.83731 0.23048 0.0
C1835 C 0.93675 0.81683 0.22422 0.0
C1836 C 0.92773 0.80748 0.21799 0.0
C1837 C 0.9545 0.83388 0.23529 0.0
C1838 C 0.956 0.82177 0.23455 0.0
C1839 C 0.94711 0.81341 0.22907 0.0
C1840 C 0.96667 0.81752 0.23952 0.0
C1841 C 0.96364 0.84318 0.2414 0.0
C1842 C 0.9783 0.82042 0.23464 0.0
C1843 C 0.98826 0.81595 0.23906 0.0
C1844 C 0.98673 0.80848 0.24841 0.0
C1845 C 0.97506 0.80564 0.25329 0.0
C1846 C 0.96513 0.81009 0.24885 0.0
H1847 H 0.95988 0.85169 0.24358 0.0
H1848 H 0.96679 0.84023 0.24983 0.0
H1849 H 0.97162 0.84473 0.2353 0.0
H1850 H 0.97964 0.826 0.2273 0.0
H1851 H 0.99714 0.81833 0.23517 0.0
H1852 H 0.22977 0.86242 0.18181 0.0
H1853 H 0.23826 0.88288 0.18684 0.0
H1854 H 0.26391 0.87149 0.21009 0.0
H1855 H 0.25554 0.85095 0.20504 0.0
H1856 H 0.23794 0.89347 0.21051 0.0
H1857 H 0.28476 0.89613 0.19146 0.0
H1858 H 0.27307 0.88444 0.18661 0.0
H1859 H 0.28066 0.8841 0.20054 0.0
C1860 C 0.23737 0.86422 0.18782 0.0
C1861 C 0.24193 0.85505 0.19308 0.0
C1862 C 0.24221 0.87593 0.19068 0.0
C1863 C 0.25175 0.87868 0.19877 0.0
C1864 C 0.25668 0.86953 0.20366 0.0
H1865 H 0.28504 0.9427 0.23767 0.0
H1866 H 0.27937 0.92246 0.2289 0.0
C1867 C 0.25184 0.8578 0.20081 0.0
C1868 C 0.25565 0.89114 0.20304 0.0
H1869 H 0.27994 0.91241 0.20487 0.0
C1870 C 0.24709 0.89765 0.20919 0.0
C1871 C 0.26762 0.8965 0.20139 0.0
C1872 C 0.27705 0.88998 0.19455 0.0
C1873 C 0.25023 0.90935 0.21393 0.0
C1874 C 0.2622 0.91474 0.21226 0.0
C1875 C 0.27077 0.90824 0.20609 0.0
C1876 C 0.26601 0.92707 0.21706 0.0
C1877 C 0.2408 0.91572 0.22098 0.0
C1878 C 0.26052 0.93637 0.21314 0.0
C1879 C 0.26372 0.94793 0.21814 0.0
C1880 C 0.27256 0.9504 0.22706 0.0
C1881 C 0.27826 0.94109 0.23074 0.0
C1882 C 0.27502 0.92953 0.22577 0.0
H1883 H 0.23313 0.90949 0.22401 0.0
H1884 H 0.24479 0.92112 0.22901 0.0
H1885 H 0.23711 0.9217 0.21517 0.0
H1886 H 0.25371 0.93468 0.20625 0.0
H1887 H 0.25932 0.95495 0.21497 0.0
H1888 H 0.1493 0.82707 0.85078 0.0
H1889 H 0.13187 0.81424 0.84211 0.0
H1890 H 0.13714 0.83098 0.80905 0.0
H1891 H 0.1546 0.84363 0.81751 0.0
H1892 H 0.11079 0.82064 0.83384 0.0
H1893 H 0.13442 0.79634 0.79684 0.0
H1894 H 0.14238 0.80494 0.8092 0.0
H1895 H 0.13774 0.81201 0.79667 0.0
C1896 C 0.1468 0.82794 0.84162 0.0
C1897 C 0.15337 0.83634 0.83481 0.0
C1898 C 0.13685 0.82061 0.83669 0.0
C1899 C 0.13335 0.8215 0.82486 0.0
C1900 C 0.13987 0.82992 0.81809 0.0
H1901 H 0.07438 0.79977 0.77783 0.0
H1902 H 0.09269 0.80839 0.78844 0.0
C1903 C 0.14981 0.83721 0.82298 0.0
C1904 C 0.12254 0.81411 0.81971 0.0
H1905 H 0.11288 0.79573 0.79508 0.0
C1906 C 0.11125 0.81504 0.82547 0.0
C1907 C 0.12318 0.80678 0.80881 0.0
C1908 C 0.1351 0.80485 0.80259 0.0
C1909 C 0.10053 0.80927 0.8203 0.0
C1910 C 0.10116 0.80236 0.80915 0.0
C1911 C 0.11246 0.80111 0.8036 0.0
C1912 C 0.09013 0.79688 0.80277 0.0
C1913 C 0.08856 0.81099 0.82651 0.0
C1914 C 0.08271 0.78747 0.80729 0.0
C1915 C 0.07228 0.78242 0.80117 0.0
C1916 C 0.0691 0.78671 0.79044 0.0
C1917 C 0.07664 0.79612 0.78595 0.0
C1918 C 0.08707 0.80111 0.79203 0.0
H1919 H 0.08951 0.81797 0.83417 0.0
H1920 H 0.08208 0.81335 0.82002 0.0
H1921 H 0.08462 0.80261 0.83002 0.0
H1922 H 0.08504 0.784 0.81549 0.0
H1923 H 0.06679 0.77508 0.80478 0.0
H1924 H 0.19157 0.13581 0.836 0.0
H1925 H 0.19967 0.11788 0.82734 0.0
H1926 H 0.22916 0.13897 0.81084 0.0
H1927 H 0.22105 0.15694 0.8193 0.0
H1928 H 0.21885 0.12003 0.79545 0.0
H1929 H 0.22971 0.10576 0.83963 0.0
H1930 H 0.21423 0.1083 0.83829 0.0
H1931 H 0.22606 0.12041 0.83796 0.0
C1932 C 0.19976 0.13664 0.8305 0.0
C1933 C 0.20571 0.1478 0.8284 0.0
C1934 C 0.20441 0.12639 0.82561 0.0
C1935 C 0.21512 0.12712 0.81863 0.0
C1936 C 0.22091 0.13823 0.81626 0.0
H1937 H 0.26189 0.07269 0.8011 0.0
H1938 H 0.25287 0.09048 0.80851 0.0
C1939 C 0.21626 0.14849 0.82112 0.0
C1940 C 0.22038 0.1163 0.81385 0.0
H1941 H 0.23213 0.09234 0.82245 0.0
C1942 C 0.22176 0.11396 0.80134 0.0
C1943 C 0.22431 0.10851 0.82158 0.0
C1944 C 0.22363 0.11089 0.83511 0.0
C1945 C 0.22687 0.10395 0.79632 0.0
C1946 C 0.23051 0.096 0.80404 0.0
C1947 C 0.22923 0.0984 0.81655 0.0
C1948 C 0.23593 0.08525 0.79935 0.0
C1949 C 0.22857 0.10211 0.78282 0.0
C1950 C 0.22935 0.07638 0.79182 0.0
C1951 C 0.23448 0.06619 0.78759 0.0
C1952 C 0.24624 0.06465 0.7909 0.0
C1953 C 0.25277 0.07354 0.7985 0.0
C1954 C 0.24765 0.08373 0.8027 0.0
H1955 H 0.22821 0.11039 0.77851 0.0
H1956 H 0.23736 0.09875 0.78039 0.0
H1957 H 0.22122 0.09549 0.77905 0.0
H1958 H 0.22019 0.07726 0.78935 0.0
H1959 H 0.22915 0.05942 0.7819 0.0
H1960 H 0.87049 0.27364 0.81077 0.0
H1961 H 0.89229 0.27258 0.80853 0.0
H1962 H 0.88539 0.23858 0.78829 0.0
H1963 H 0.86357 0.23954 0.79044 0.0
H1964 H 0.90585 0.25412 0.81562 0.0
H1965 H 0.90869 0.2591 0.76646 0.0
H1966 H 0.89604 0.26313 0.77583 0.0
H1967 H 0.89731 0.2479 0.77121 0.0
C1968 C 0.8736 0.26594 0.80582 0.0
C1969 C 0.8653 0.2567 0.80073 0.0
C1970 C 0.88605 0.26535 0.80458 0.0
C1971 C 0.89041 0.25556 0.79815 0.0
C1972 C 0.88217 0.24627 0.79315 0.0
H1973 H 0.96299 0.24035 0.77664 0.0
H1974 H 0.94111 0.23919 0.78038 0.0
C1975 C 0.86972 0.24683 0.79443 0.0
C1976 C 0.90359 0.2551 0.79666 0.0
H1977 H 0.92652 0.25554 0.77566 0.0
C1978 C 0.9104 0.25443 0.8069 0.0
C1979 C 0.90943 0.25547 0.78526 0.0
C1980 C 0.90255 0.25653 0.77404 0.0
C1981 C 0.92295 0.25399 0.80601 0.0
C1982 C 0.92883 0.25452 0.79462 0.0
C1983 C 0.92198 0.25511 0.78438 0.0
C1984 C 0.94213 0.25475 0.7931 0.0
C1985 C 0.92974 0.25278 0.81724 0.0
C1986 C 0.94995 0.26387 0.79903 0.0
C1987 C 0.96244 0.26452 0.79694 0.0
C1988 C 0.96732 0.25616 0.78875 0.0
C1989 C 0.95948 0.24696 0.78293 0.0
C1990 C 0.947 0.24627 0.78508 0.0
H1991 H 0.92362 0.24901 0.82431 0.0
H1992 H 0.93708 0.24709 0.81525 0.0
H1993 H 0.93388 0.26163 0.82095 0.0
H1994 H 0.94638 0.27068 0.80501 0.0
H1995 H 0.96824 0.27183 0.80139 0.0
H1996 H 0.83268 0.88222 0.82055 0.0
H1997 H 0.82603 0.89951 0.81269 0.0
H1998 H 0.85303 0.92211 0.83366 0.0
H1999 H 0.85986 0.90487 0.84143 0.0
H2000 H 0.81694 0.91855 0.82555 0.0
H2001 H 0.85875 0.93347 0.80017 0.0
H2002 H 0.85601 0.919 0.80548 0.0
H2003 H 0.86112 0.9316 0.81569 0.0
C2004 C 0.83728 0.89085 0.82343 0.0
C2005 C 0.84685 0.89214 0.83159 0.0
C2006 C 0.83345 0.90073 0.81893 0.0
C2007 C 0.83914 0.91209 0.82245 0.0
C2008 C 0.84867 0.91342 0.83061 0.0
H2009 H 0.82599 0.98254 0.80726 0.0
H2010 H 0.83369 0.96558 0.81483 0.0
C2011 C 0.85252 0.90354 0.83511 0.0
C2012 C 0.83479 0.92256 0.81791 0.0
H2013 H 0.8435 0.94634 0.8021 0.0
C2014 C 0.82273 0.9246 0.82038 0.0
C2015 C 0.84237 0.93048 0.81121 0.0
C2016 C 0.85525 0.9285 0.80787 0.0
C2017 C 0.81809 0.9344 0.81646 0.0
C2018 C 0.82565 0.94228 0.80971 0.0
C2019 C 0.83773 0.94029 0.80729 0.0
C2020 C 0.82113 0.95254 0.80493 0.0
C2021 C 0.8052 0.93636 0.81978 0.0
C2022 C 0.81168 0.95083 0.79667 0.0
C2023 C 0.80729 0.96048 0.79229 0.0
C2024 C 0.81232 0.97207 0.79603 0.0
C2025 C 0.82196 0.97374 0.80413 0.0
C2026 C 0.82634 0.96406 0.80851 0.0
H2027 H 0.80172 0.93145 0.82752 0.0
H2028 H 0.80441 0.94587 0.82208 0.0
H2029 H 0.79933 0.93318 0.81198 0.0
H2030 H 0.80771 0.94201 0.79356 0.0
H2031 H 0.80004 0.95885 0.78587 0.0
H2032 H 0.22205 0.14041 0.21555 0.0
H2033 H 0.23192 0.12418 0.22192 0.0
H2034 H 0.21856 0.10198 0.19057 0.0
H2035 H 0.20838 0.11806 0.1843 0.0
H2036 H 0.21546 0.09046 0.21044 0.0
H2037 H 0.26261 0.1122 0.20848 0.0
H2038 H 0.25291 0.1206 0.21805 0.0
H2039 H 0.25017 0.11808 0.20214 0.0
C2040 C 0.22125 0.13209 0.20998 0.0
C2041 C 0.21446 0.13055 0.19938 0.0
C2042 C 0.22697 0.12284 0.21359 0.0
C2043 C 0.22619 0.11192 0.20661 0.0
C2044 C 0.21935 0.11034 0.19607 0.0
H2045 H 0.27167 0.05665 0.21538 0.0
H2046 H 0.26183 0.07252 0.20808 0.0
C2047 C 0.21354 0.11955 0.1925 0.0
C2048 C 0.2322 0.10203 0.21044 0.0
H2049 H 0.25949 0.09442 0.21815 0.0
C2050 C 0.2251 0.09131 0.21207 0.0
C2051 C 0.24482 0.10307 0.21239 0.0
C2052 C 0.2531 0.11406 0.21006 0.0
C2053 C 0.23021 0.08167 0.21579 0.0
C2054 C 0.24273 0.08288 0.21825 0.0
C2055 C 0.24987 0.09353 0.2164 0.0
C2056 C 0.24861 0.07319 0.22269 0.0
C2057 C 0.22216 0.07023 0.21683 0.0
C2058 C 0.24457 0.06839 0.23341 0.0
C2059 C 0.25013 0.0593 0.23756 0.0
C2060 C 0.25998 0.05492 0.23117 0.0
C2061 C 0.26415 0.05988 0.22054 0.0
C2062 C 0.25852 0.06892 0.21635 0.0
H2063 H 0.21396 0.06965 0.21127 0.0
H2064 H 0.22706 0.06252 0.21399 0.0
H2065 H 0.21914 0.0697 0.22635 0.0
H2066 H 0.23718 0.07177 0.23865 0.0
H2067 H 0.24685 0.05582 0.2459 0.0
H2068 H 0.22944 0.87336 0.84196 0.0
H2069 H 0.2414 0.89081 0.83497 0.0
H2070 H 0.21229 0.91151 0.84546 0.0
H2071 H 0.20042 0.89426 0.85271 0.0
H2072 H 0.23536 0.90257 0.81693 0.0
H2073 H 0.24101 0.93356 0.85804 0.0
H2074 H 0.23616 0.91802 0.85857 0.0
H2075 H 0.22543 0.92794 0.85575 0.0
C2076 C 0.22568 0.88168 0.84301 0.0
C2077 C 0.21396 0.8824 0.84788 0.0
C2078 C 0.23253 0.89165 0.839 0.0
C2079 C 0.22781 0.90251 0.83982 0.0
C2080 C 0.21626 0.90332 0.845 0.0
H2081 H 0.23899 0.9576 0.7931 0.0
H2082 H 0.23255 0.94032 0.80389 0.0
C2083 C 0.20944 0.89339 0.84907 0.0
C2084 C 0.23436 0.91269 0.83417 0.0
H2085 H 0.24342 0.94224 0.83911 0.0
C2086 C 0.23729 0.9112 0.82183 0.0
C2087 C 0.23703 0.92393 0.84058 0.0
C2088 C 0.23486 0.92593 0.854 0.0
C2089 C 0.2423 0.92074 0.81562 0.0
C2090 C 0.24416 0.93213 0.82185 0.0
C2091 C 0.2418 0.93353 0.8343 0.0
C2092 C 0.24808 0.94273 0.81548 0.0
C2093 C 0.24546 0.91854 0.8024 0.0
C2094 C 0.25875 0.95005 0.81869 0.0
C2095 C 0.26243 0.95999 0.81256 0.0
C2096 C 0.25548 0.96278 0.80314 0.0
C2097 C 0.24467 0.95555 0.80014 0.0
C2098 C 0.24099 0.94566 0.80629 0.0
H2099 H 0.24705 0.90922 0.79997 0.0
H2100 H 0.23781 0.92034 0.79698 0.0
H2101 H 0.25366 0.92438 0.7999 0.0
H2102 H 0.2643 0.94798 0.82582 0.0
H2103 H 0.27083 0.96536 0.81504 0.0
H2104 H 0.14589 0.18268 0.83146 0.0
H2105 H 0.13021 0.18977 0.82003 0.0
H2106 H 0.13499 0.22319 0.84165 0.0
H2107 H 0.15072 0.2163 0.85296 0.0
H2108 H 0.10853 0.19752 0.82868 0.0
H2109 H 0.13724 0.23303 0.80745 0.0
H2110 H 0.1435 0.22158 0.81439 0.0
H2111 H 0.13874 0.23408 0.8235 0.0
C2112 C 0.14366 0.19157 0.83372 0.0
C2113 C 0.14959 0.19895 0.84308 0.0
C2114 C 0.1347 0.19559 0.82719 0.0
C2115 C 0.13159 0.20706 0.82987 0.0
C2116 C 0.13745 0.2144 0.83925 0.0
H2117 H 0.0786 0.25021 0.81187 0.0
H2118 H 0.09474 0.24098 0.82025 0.0
C2119 C 0.14639 0.21041 0.84576 0.0
C2120 C 0.12189 0.21128 0.82324 0.0
H2121 H 0.11584 0.23368 0.80719 0.0
C2122 C 0.11014 0.20533 0.82383 0.0
C2123 C 0.12404 0.22146 0.81691 0.0
C2124 C 0.13659 0.22785 0.81541 0.0
C2125 C 0.10036 0.20959 0.8187 0.0
C2126 C 0.10247 0.21998 0.81273 0.0
C2127 C 0.11427 0.22575 0.81185 0.0
C2128 C 0.09249 0.22529 0.80773 0.0
C2129 C 0.08779 0.20322 0.82007 0.0
C2130 C 0.08593 0.21952 0.79788 0.0
C2131 C 0.07667 0.22476 0.7931 0.0
C2132 C 0.07383 0.23585 0.79809 0.0
C2133 C 0.08044 0.24158 0.80795 0.0
C2134 C 0.08971 0.23637 0.81269 0.0
H2135 H 0.0874 0.19663 0.82679 0.0
H2136 H 0.08124 0.20958 0.82286 0.0
H2137 H 0.0849 0.19853 0.81128 0.0
H2138 H 0.08806 0.21103 0.79384 0.0
H2139 H 0.07169 0.22011 0.78553 0.0
H2140 H 0.80413 0.17575 0.83857 0.0
H2141 H 0.80152 0.15419 0.83559 0.0
H2142 H 0.82938 0.15524 0.80788 0.0
H2143 H 0.83216 0.17675 0.81086 0.0
H2144 H 0.79472 0.14074 0.81424 0.0
H2145 H 0.83925 0.13072 0.82873 0.0
H2146 H 0.8339 0.14489 0.83244 0.0
H2147 H 0.84036 0.14129 0.81777 0.0
C2148 C 0.80981 0.1714 0.83194 0.0
C2149 C 0.81835 0.17798 0.82495 0.0
C2150 C 0.8083 0.15908 0.83026 0.0
C2151 C 0.81537 0.15312 0.82163 0.0
C2152 C 0.82401 0.15965 0.81476 0.0
H2153 H 0.81653 0.08308 0.78711 0.0
H2154 H 0.82035 0.10391 0.79457 0.0
C2155 C 0.82552 0.17196 0.81643 0.0
C2156 C 0.81316 0.14012 0.8192 0.0
H2157 H 0.82698 0.11501 0.81766 0.0
C2158 C 0.80172 0.13508 0.81513 0.0
C2159 C 0.82232 0.1328 0.82034 0.0
C2160 C 0.83462 0.13767 0.82517 0.0
C2161 C 0.79931 0.12294 0.81174 0.0
C2162 C 0.80855 0.11564 0.81267 0.0
C2163 C 0.81993 0.12065 0.81695 0.0
C2164 C 0.8067 0.10285 0.80876 0.0
C2165 C 0.78706 0.1181 0.80677 0.0
C2166 C 0.79794 0.09531 0.81446 0.0
C2167 C 0.79575 0.08339 0.81024 0.0
C2168 C 0.80235 0.07878 0.80029 0.0
C2169 C 0.81138 0.08631 0.79486 0.0
C2170 C 0.81354 0.09823 0.79908 0.0
H2171 H 0.78199 0.12519 0.80413 0.0
H2172 H 0.78798 0.11166 0.79879 0.0
H2173 H 0.78162 0.11347 0.81376 0.0
H2174 H 0.79273 0.09867 0.82211 0.0
H2175 H 0.78887 0.07778 0.81474 0.0
H2176 H 0.89006 0.85247 0.81797 0.0
H2177 H 0.90606 0.84397 0.80564 0.0
H2178 H 0.9011 0.81319 0.82536 0.0
H2179 H 0.88514 0.82148 0.83759 0.0
H2180 H 0.92781 0.83708 0.81369 0.0
H2181 H 0.89961 0.79914 0.79014 0.0
H2182 H 0.89323 0.81162 0.79782 0.0
H2183 H 0.89745 0.80017 0.8062 0.0
C2184 C 0.89231 0.84385 0.81961 0.0
C2185 C 0.88627 0.83765 0.82875 0.0
C2186 C 0.90146 0.83902 0.81257 0.0
C2187 C 0.90462 0.82786 0.81446 0.0
C2188 C 0.89863 0.82169 0.82357 0.0
H2189 H 0.95734 0.7812 0.79338 0.0
H2190 H 0.94057 0.79154 0.80169 0.0
C2191 C 0.88954 0.8265 0.83061 0.0
C2192 C 0.91453 0.82279 0.80732 0.0
H2193 H 0.92099 0.79823 0.78967 0.0
C2194 C 0.92632 0.82867 0.80828 0.0
C2195 C 0.91255 0.81182 0.80028 0.0
C2196 C 0.90001 0.80536 0.79843 0.0
C2197 C 0.93627 0.82361 0.80286 0.0
C2198 C 0.93432 0.81245 0.79614 0.0
C2199 C 0.92248 0.80675 0.79487 0.0
C2200 C 0.94448 0.80626 0.79088 0.0
C2201 C 0.94883 0.82998 0.80481 0.0
C2202 C 0.95217 0.81103 0.78193 0.0
C2203 C 0.96183 0.80516 0.77721 0.0
C2204 C 0.96396 0.7944 0.78133 0.0
C2205 C 0.95609 0.78956 0.79015 0.0
C2206 C 0.94645 0.79542 0.79485 0.0
H2207 H 0.94899 0.83718 0.81224 0.0
H2208 H 0.95522 0.82377 0.8069 0.0
H2209 H 0.95212 0.83393 0.79645 0.0
H2210 H 0.95069 0.81928 0.7786 0.0
H2211 H 0.96775 0.80916 0.77047 0.0
H2212 H 0.86482 0.90126 0.1959 0.0
H2213 H 0.85568 0.91816 0.20566 0.0
H2214 H 0.83745 0.89616 0.23144 0.0
H2215 H 0.84654 0.87919 0.22178 0.0
H2216 H 0.82986 0.91824 0.20782 0.0
H2217 H 0.85227 0.92629 0.25223 0.0
H2218 H 0.85866 0.91818 0.23938 0.0
H2219 H 0.84626 0.91127 0.24783 0.0
C2220 C 0.85902 0.90004 0.20376 0.0
C2221 C 0.85637 0.88886 0.20804 0.0
C2222 C 0.85381 0.90971 0.20931 0.0
C2223 C 0.84598 0.90841 0.21931 0.0
C2224 C 0.84362 0.89737 0.22384 0.0
H2225 H 0.79921 0.9536 0.26022 0.0
H2226 H 0.81096 0.9376 0.25264 0.0
C2227 C 0.84878 0.88767 0.21827 0.0
C2228 C 0.83946 0.91834 0.2243 0.0
H2229 H 0.8357 0.93692 0.24957 0.0
C2230 C 0.83118 0.92239 0.21692 0.0
C2231 C 0.84114 0.9236 0.2362 0.0
C2232 C 0.85012 0.91971 0.24438 0.0
C2233 C 0.82437 0.93149 0.22119 0.0
C2234 C 0.82614 0.93687 0.23306 0.0
C2235 C 0.83441 0.9328 0.24046 0.0
C2236 C 0.81945 0.94674 0.23794 0.0
C2237 C 0.81514 0.93503 0.21303 0.0
C2238 C 0.82053 0.95726 0.23233 0.0
C2239 C 0.81381 0.96636 0.2366 0.0
C2240 C 0.80599 0.96517 0.24666 0.0
C2241 C 0.8052 0.95477 0.25249 0.0
C2242 C 0.81188 0.94563 0.24816 0.0
H2243 H 0.81254 0.92799 0.2057 0.0
H2244 H 0.80684 0.9371 0.21818 0.0
H2245 H 0.81905 0.94303 0.20879 0.0
H2246 H 0.82656 0.95841 0.22462 0.0
H2247 H 0.81479 0.97437 0.23208 0.0
H2248 H 0.19217 0.79561 0.20923 0.0
H2249 H 0.17163 0.79036 0.2171 0.0
H2250 H 0.16782 0.82721 0.22567 0.0
H2251 H 0.18831 0.83253 0.21805 0.0
H2252 H 0.16023 0.81356 0.24423 0.0
H2253 H 0.13999 0.79412 0.20077 0.0
H2254 H 0.15312 0.78786 0.20493 0.0
H2255 H 0.15455 0.80298 0.2016 0.0
C2256 C 0.18694 0.80259 0.21278 0.0
C2257 C 0.19185 0.81449 0.21298 0.0
C2258 C 0.1752 0.79957 0.21721 0.0
C2259 C 0.16816 0.80841 0.22181 0.0
C2260 C 0.17309 0.82026 0.22212 0.0
H2261 H 0.09113 0.80538 0.23509 0.0
H2262 H 0.11206 0.80901 0.22772 0.0
C2263 C 0.18481 0.82328 0.21774 0.0
C2264 C 0.1557 0.8054 0.22649 0.0
H2265 H 0.12742 0.79289 0.21819 0.0
C2266 C 0.15305 0.80901 0.23856 0.0
C2267 C 0.14635 0.7996 0.219 0.0
C2268 C 0.14857 0.79599 0.20583 0.0
C2269 C 0.14128 0.80699 0.24337 0.0
C2270 C 0.13196 0.80102 0.23594 0.0
C2271 C 0.13461 0.7974 0.22387 0.0
C2272 C 0.11933 0.79874 0.24044 0.0
C2273 C 0.13885 0.81156 0.25625 0.0
C2274 C 0.1165 0.79167 0.24994 0.0
C2275 C 0.10456 0.7896 0.25418 0.0
C2276 C 0.09524 0.79447 0.2489 0.0
C2277 C 0.0981 0.80144 0.23928 0.0
C2278 C 0.11005 0.80354 0.23508 0.0
H2279 H 0.14616 0.81841 0.25971 0.0
H2280 H 0.13011 0.81535 0.25714 0.0
H2281 H 0.13832 0.80416 0.26203 0.0
H2282 H 0.1235 0.78767 0.25402 0.0
H2283 H 0.1026 0.78401 0.26145 0.0
H2284 H 0.86725 0.20893 0.1864 0.0
H2285 H 0.88486 0.22078 0.19583 0.0
H2286 H 0.9084 0.19772 0.1769 0.0
H2287 H 0.8909 0.18582 0.16745 0.0
H2288 H 0.90134 0.21093 0.21053 0.0
H2289 H 0.92472 0.23153 0.17181 0.0
H2290 H 0.90887 0.22577 0.17166 0.0
H2291 H 0.92026 0.21592 0.16926 0.0
C2292 C 0.87619 0.20649 0.18408 0.0
C2293 C 0.87766 0.19641 0.17619 0.0
C2294 C 0.88623 0.21326 0.18949 0.0
C2295 C 0.89792 0.21017 0.18697 0.0
C2296 C 0.89946 0.20035 0.17882 0.0
H2297 H 0.97021 0.22998 0.2129 0.0
H2298 H 0.95185 0.22199 0.20197 0.0
C2299 C 0.88944 0.19352 0.17348 0.0
C2300 C 0.90841 0.21658 0.1936 0.0
H2301 H 0.93588 0.23268 0.18982 0.0
C2302 C 0.90884 0.21581 0.20605 0.0
C2303 C 0.91819 0.22283 0.18769 0.0
C2304 C 0.918 0.22418 0.17438 0.0
C2305 C 0.919 0.2208 0.21271 0.0
C2306 C 0.92886 0.22699 0.20678 0.0
C2307 C 0.92832 0.22793 0.19435 0.0
C2308 C 0.93999 0.2322 0.21324 0.0
C2309 C 0.91927 0.21897 0.22592 0.0
C2310 C 0.93946 0.24074 0.22309 0.0
C2311 C 0.94993 0.24526 0.22939 0.0
C2312 C 0.96116 0.24146 0.22585 0.0
C2313 C 0.96171 0.23314 0.21579 0.0
C2314 C 0.95122 0.22855 0.20956 0.0
H2315 H 0.91257 0.21152 0.22827 0.0
H2316 H 0.9284 0.21722 0.22849 0.0
H2317 H 0.91701 0.22706 0.23136 0.0
H2318 H 0.93094 0.2439 0.22591 0.0
H2319 H 0.94927 0.25181 0.23698 0.0
H2320 H 0.20401 0.70108 0.65891 0.0
H2321 H 0.21609 0.70813 0.64188 0.0
H2322 H 0.23868 0.68033 0.64324 0.0
H2323 H 0.22655 0.67309 0.66029 0.0
H2324 H 0.24127 0.71569 0.64067 0.0
H2325 H 0.2279 0.67694 0.60783 0.0
H2326 H 0.21965 0.67973 0.6218 0.0
H2327 H 0.23385 0.6738 0.62182 0.0
C2328 C 0.21153 0.69642 0.65561 0.0
C2329 C 0.21426 0.68646 0.66096 0.0
C2330 C 0.21844 0.70049 0.64587 0.0
C2331 C 0.22818 0.69468 0.64121 0.0
C2332 C 0.23106 0.68483 0.64658 0.0
H2333 H 0.27419 0.70915 0.57784 0.0
H2334 H 0.2657 0.70103 0.59623 0.0
C2335 C 0.22416 0.68074 0.65637 0.0
C2336 C 0.23529 0.69906 0.63075 0.0
H2337 H 0.24177 0.69215 0.60097 0.0
C2338 C 0.24143 0.71053 0.632 0.0
C2339 C 0.23553 0.69228 0.61947 0.0
C2340 C 0.22882 0.68003 0.61755 0.0
C2341 C 0.24771 0.71545 0.62224 0.0
C2342 C 0.24765 0.70881 0.61086 0.0
C2343 C 0.24179 0.69722 0.60969 0.0
C2344 C 0.25309 0.71393 0.59994 0.0
C2345 C 0.25439 0.72771 0.62421 0.0
C2346 C 0.24875 0.7238 0.59588 0.0
C2347 C 0.25361 0.72848 0.58543 0.0
C2348 C 0.26286 0.72334 0.57876 0.0
C2349 C 0.26718 0.71342 0.58285 0.0
C2350 C 0.2623 0.70872 0.59331 0.0
H2351 H 0.25661 0.73012 0.63384 0.0
H2352 H 0.2629 0.72853 0.61874 0.0
H2353 H 0.24856 0.73415 0.62147 0.0
H2354 H 0.24149 0.72782 0.60072 0.0
H2355 H 0.25014 0.73619 0.58262 0.0
H2356 H 0.80736 0.70391 0.64949 0.0
H2357 H 0.79953 0.71266 0.63263 0.0
H2358 H 0.82807 0.70037 0.60951 0.0
H2359 H 0.83573 0.6913 0.62622 0.0
H2360 H 0.80988 0.72966 0.6197 0.0
H2361 H 0.7989 0.68884 0.58936 0.0
H2362 H 0.80255 0.68859 0.60498 0.0
H2363 H 0.81442 0.69096 0.59383 0.0
C2364 C 0.81192 0.703 0.6408 0.0
C2365 C 0.82212 0.69684 0.63917 0.0
C2366 C 0.80744 0.70801 0.63117 0.0
C2367 C 0.81308 0.707 0.61975 0.0
C2368 C 0.82336 0.70099 0.61815 0.0
H2369 H 0.80515 0.7519 0.56272 0.0
H2370 H 0.81208 0.7425 0.5796 0.0
C2371 C 0.82778 0.69587 0.62774 0.0
C2372 C 0.80844 0.71257 0.60964 0.0
H2373 H 0.79871 0.707 0.58068 0.0
C2374 C 0.80737 0.72469 0.61119 0.0
C2375 C 0.80499 0.70605 0.5986 0.0
C2376 C 0.80515 0.69287 0.59661 0.0
C2377 C 0.80314 0.73052 0.60195 0.0
C2378 C 0.80022 0.7241 0.59072 0.0
C2379 C 0.80109 0.71194 0.58924 0.0
C2380 C 0.7961 0.72979 0.58044 0.0
C2381 C 0.80163 0.74343 0.60441 0.0
C2382 C 0.785 0.72553 0.57503 0.0
C2383 C 0.7811 0.73079 0.56529 0.0
C2384 C 0.78823 0.74042 0.56078 0.0
C2385 C 0.79939 0.74461 0.56613 0.0
C2386 C 0.80333 0.73928 0.57581 0.0
H2387 H 0.80072 0.74606 0.61422 0.0
H2388 H 0.80974 0.74878 0.60096 0.0
H2389 H 0.79356 0.7456 0.59986 0.0
H2390 H 0.77929 0.7182 0.57843 0.0
H2391 H 0.77243 0.72742 0.56139 0.0
H2392 H 0.86361 0.31514 0.66921 0.0
H2393 H 0.85577 0.3012 0.65248 0.0
H2394 H 0.86063 0.329 0.62876 0.0
H2395 H 0.86871 0.3429 0.64532 0.0
H2396 H 0.83566 0.30216 0.6401 0.0
H2397 H 0.87489 0.30287 0.60846 0.0
H2398 H 0.87624 0.30877 0.62403 0.0
H2399 H 0.87114 0.31744 0.61299 0.0
C2400 C 0.86319 0.31825 0.66039 0.0
C2401 C 0.8668 0.33014 0.65861 0.0
C2402 C 0.8587 0.31027 0.65084 0.0
C2403 C 0.85777 0.31401 0.63933 0.0
C2404 C 0.86155 0.32583 0.63749 0.0
H2405 H 0.8075 0.28825 0.58373 0.0
H2406 H 0.81857 0.29799 0.6012 0.0
C2407 C 0.8661 0.3338 0.647 0.0
C2408 C 0.85194 0.30586 0.62949 0.0
H2409 H 0.85546 0.29568 0.59996 0.0
C2410 C 0.84006 0.30061 0.63137 0.0
C2411 C 0.85772 0.30369 0.61816 0.0
C2412 C 0.87075 0.30839 0.61582 0.0
C2413 C 0.83362 0.29368 0.62208 0.0
C2414 C 0.83912 0.29219 0.61052 0.0
C2415 C 0.85119 0.29698 0.60878 0.0
C2416 C 0.83235 0.28611 0.6 0.0
C2417 C 0.82097 0.28806 0.62473 0.0
C2418 C 0.8366 0.27639 0.59332 0.0
C2419 C 0.83039 0.27091 0.58318 0.0
C2420 C 0.81984 0.2751 0.57951 0.0
C2421 C 0.81564 0.28486 0.58624 0.0
C2422 C 0.82187 0.29034 0.59633 0.0
H2423 H 0.81962 0.28685 0.63447 0.0
H2424 H 0.81435 0.29389 0.62229 0.0
H2425 H 0.81898 0.27936 0.61946 0.0
H2426 H 0.84474 0.27306 0.59594 0.0
H2427 H 0.83398 0.26353 0.5781 0.0
H2428 H 0.19697 0.31925 0.65888 0.0
H2429 H 0.20089 0.3112 0.63821 0.0
H2430 H 0.23474 0.3011 0.64904 0.0
H2431 H 0.23076 0.30884 0.66976 0.0
H2432 H 0.21913 0.31819 0.62332 0.0
H2433 H 0.22044 0.27122 0.63002 0.0
H2434 H 0.21461 0.28146 0.6414 0.0
H2435 H 0.23066 0.28082 0.6397 0.0
C2436 C 0.20519 0.31519 0.65689 0.0
C2437 C 0.21354 0.31464 0.66597 0.0
C2438 C 0.20741 0.3106 0.64507 0.0
C2439 C 0.21801 0.30538 0.64211 0.0
C2440 C 0.22635 0.3048 0.65117 0.0
H2441 H 0.2555 0.29915 0.57391 0.0
H2442 H 0.24762 0.30486 0.59398 0.0
C2443 C 0.2241 0.30931 0.663 0.0
C2444 C 0.22074 0.30121 0.62943 0.0
H2445 H 0.22911 0.27764 0.61146 0.0
C2446 C 0.22118 0.30928 0.6207 0.0
C2447 C 0.22322 0.28954 0.62598 0.0
C2448 C 0.22208 0.28023 0.63475 0.0
C2449 C 0.22448 0.30613 0.60869 0.0
C2450 C 0.2277 0.29468 0.60541 0.0
C2451 C 0.2268 0.28646 0.61403 0.0
C2452 C 0.2324 0.29117 0.59319 0.0
C2453 C 0.22444 0.31509 0.59965 0.0
C2454 C 0.22666 0.28135 0.5862 0.0
C2455 C 0.23129 0.27792 0.57478 0.0
C2456 C 0.24177 0.28421 0.57016 0.0
C2457 C 0.24749 0.29402 0.57723 0.0
C2458 C 0.2429 0.29741 0.58865 0.0
H2459 H 0.21825 0.32177 0.60257 0.0
H2460 H 0.2337 0.3198 0.5988 0.0
H2461 H 0.22167 0.31081 0.59064 0.0
H2462 H 0.21861 0.27635 0.58959 0.0
H2463 H 0.22676 0.27022 0.56966 0.0
H2464 H 0.19901 0.34262 0.39285 0.0
H2465 H 0.20672 0.33564 0.41084 0.0
H2466 H 0.22553 0.31062 0.38847 0.0
H2467 H 0.2181 0.31772 0.37044 0.0
H2468 H 0.20339 0.31393 0.41893 0.0
H2469 H 0.25223 0.32687 0.41018 0.0
H2470 H 0.24055 0.332 0.4019 0.0
H2471 H 0.245 0.31754 0.39799 0.0
C2472 C 0.20483 0.33567 0.39176 0.0
C2473 C 0.20801 0.33077 0.38021 0.0
C2474 C 0.20922 0.33169 0.40205 0.0
C2475 C 0.21687 0.32276 0.401 0.0
C2476 C 0.21989 0.31773 0.38949 0.0
H2477 H 0.23195 0.27904 0.45659 0.0
H2478 H 0.22425 0.28722 0.43931 0.0
C2479 C 0.21557 0.32175 0.37919 0.0
C2480 C 0.22142 0.31851 0.41195 0.0
H2481 H 0.24725 0.3143 0.42585 0.0
C2482 C 0.21298 0.31407 0.42048 0.0
C2483 C 0.23394 0.31886 0.41405 0.0
C2484 C 0.24346 0.32418 0.40561 0.0
C2485 C 0.21671 0.30975 0.43094 0.0
C2486 C 0.22922 0.30963 0.43277 0.0
C2487 C 0.23766 0.31429 0.42437 0.0
C2488 C 0.23375 0.3047 0.44334 0.0
C2489 C 0.20722 0.30554 0.44 0.0
C2490 C 0.24191 0.31172 0.45117 0.0
C2491 C 0.24641 0.30704 0.461 0.0
C2492 C 0.24282 0.29524 0.46318 0.0
C2493 C 0.23469 0.28822 0.45528 0.0
C2494 C 0.23027 0.29289 0.44542 0.0
H2495 H 0.19864 0.30939 0.43907 0.0
H2496 H 0.2052 0.29581 0.43847 0.0
H2497 H 0.21042 0.30783 0.44936 0.0
H2498 H 0.24476 0.32084 0.44971 0.0
H2499 H 0.2526 0.31268 0.46697 0.0
H2500 H 0.21877 0.67919 0.37984 0.0
H2501 H 0.23008 0.68415 0.39852 0.0
H2502 H 0.20246 0.70514 0.41302 0.0
H2503 H 0.19103 0.70009 0.39457 0.0
H2504 H 0.23941 0.7061 0.40828 0.0
H2505 H 0.20658 0.68523 0.44035 0.0
H2506 H 0.20543 0.68195 0.42424 0.0
H2507 H 0.19993 0.695 0.43159 0.0
C2508 C 0.21505 0.68476 0.38706 0.0
C2509 C 0.20397 0.68921 0.38573 0.0
C2510 C 0.22152 0.68759 0.39771 0.0
C2511 C 0.21701 0.69485 0.40723 0.0
C2512 C 0.20597 0.69928 0.40592 0.0
H2513 H 0.24125 0.73369 0.47313 0.0
H2514 H 0.2308 0.72479 0.45492 0.0
C2515 C 0.19948 0.69644 0.39531 0.0
C2516 C 0.22412 0.69838 0.41828 0.0
H2517 H 0.22222 0.69955 0.44897 0.0
C2518 C 0.23574 0.70453 0.41718 0.0
C2519 C 0.2193 0.69629 0.42986 0.0
C2520 C 0.20717 0.68915 0.4316 0.0
C2521 C 0.24246 0.70907 0.42738 0.0
C2522 C 0.23745 0.70732 0.43895 0.0
C2523 C 0.22598 0.70092 0.44006 0.0
C2524 C 0.24378 0.71248 0.45003 0.0
C2525 C 0.25467 0.71608 0.42577 0.0
C2526 C 0.25446 0.7084 0.45335 0.0
C2527 C 0.26041 0.71339 0.46381 0.0
C2528 C 0.25576 0.72255 0.47115 0.0
C2529 C 0.24499 0.72655 0.46779 0.0
C2530 C 0.23904 0.72152 0.45736 0.0
H2531 H 0.25636 0.71828 0.41633 0.0
H2532 H 0.25543 0.72439 0.43183 0.0
H2533 H 0.26186 0.71086 0.42818 0.0
H2534 H 0.25815 0.7013 0.44787 0.0
H2535 H 0.26856 0.70996 0.46624 0.0
H2536 H 0.82865 0.73217 0.35727 0.0
H2537 H 0.82119 0.74269 0.3756 0.0
H2538 H 0.84124 0.72281 0.39718 0.0
H2539 H 0.84889 0.71243 0.37898 0.0
H2540 H 0.80721 0.73216 0.39295 0.0
H2541 H 0.84903 0.75598 0.41326 0.0
H2542 H 0.84845 0.74984 0.39772 0.0
H2543 H 0.85016 0.74058 0.40954 0.0
C2544 C 0.83164 0.73019 0.36591 0.0
C2545 C 0.83934 0.72144 0.36666 0.0
C2546 C 0.82737 0.73621 0.37637 0.0
C2547 C 0.83079 0.73364 0.38774 0.0
C2548 C 0.83872 0.72514 0.3885 0.0
H2549 H 0.8074 0.7424 0.46128 0.0
H2550 H 0.81714 0.73768 0.44174 0.0
C2551 C 0.84301 0.71914 0.37807 0.0
C2552 C 0.82517 0.73896 0.39883 0.0
H2553 H 0.83168 0.75337 0.42653 0.0
C2554 C 0.81253 0.73697 0.40022 0.0
C2555 C 0.83215 0.7452 0.4083 0.0
C2556 C 0.84569 0.74813 0.4071 0.0
C2557 C 0.80673 0.74061 0.41102 0.0
C2558 C 0.81375 0.74651 0.42062 0.0
C2559 C 0.82635 0.74879 0.41914 0.0
C2560 C 0.80821 0.74983 0.43247 0.0
C2561 C 0.79318 0.73768 0.41228 0.0
C2562 C 0.80009 0.75834 0.43372 0.0
C2563 C 0.79447 0.76101 0.44485 0.0
C2564 C 0.79688 0.75521 0.4549 0.0
C2565 C 0.80522 0.74688 0.45365 0.0
C2566 C 0.81085 0.74424 0.44254 0.0
H2567 H 0.78943 0.73119 0.40489 0.0
H2568 H 0.79074 0.73406 0.42103 0.0
H2569 H 0.78881 0.74584 0.41205 0.0
H2570 H 0.79804 0.76283 0.42606 0.0
H2571 H 0.78804 0.76742 0.44551 0.0
H2572 H 0.82955 0.32846 0.38939 0.0
H2573 H 0.82129 0.32103 0.40823 0.0
H2574 H 0.84912 0.29789 0.40753 0.0
H2575 H 0.85747 0.30529 0.3889 0.0
H2576 H 0.81264 0.29768 0.41273 0.0
H2577 H 0.8518 0.31512 0.44137 0.0
H2578 H 0.84969 0.32023 0.42686 0.0
H2579 H 0.85594 0.30662 0.42785 0.0
C2580 C 0.83394 0.32183 0.39329 0.0
C2581 C 0.84422 0.31753 0.38767 0.0
C2582 C 0.8292 0.31759 0.40404 0.0
C2583 C 0.83472 0.30906 0.40939 0.0
C2584 C 0.84488 0.30467 0.40371 0.0
H2585 H 0.82363 0.26643 0.46888 0.0
H2586 H 0.83025 0.27615 0.45084 0.0
C2587 C 0.8496 0.30887 0.393 0.0
C2588 C 0.82975 0.30444 0.42072 0.0
H2589 H 0.83748 0.30049 0.44933 0.0
C2590 C 0.818 0.29841 0.42079 0.0
C2591 C 0.83676 0.30542 0.43122 0.0
C2592 C 0.84921 0.3123 0.4319 0.0
C2593 C 0.81326 0.29291 0.43093 0.0
C2594 C 0.82042 0.29362 0.44131 0.0
C2595 C 0.83205 0.2999 0.44133 0.0
C2596 C 0.81615 0.28766 0.45214 0.0
C2597 C 0.80083 0.28602 0.43031 0.0
C2598 C 0.80608 0.29097 0.45892 0.0
C2599 C 0.80223 0.28539 0.46921 0.0
C2600 C 0.80841 0.27641 0.47294 0.0
C2601 C 0.81855 0.27318 0.46616 0.0
C2602 C 0.8224 0.27878 0.45589 0.0
H2603 H 0.79764 0.28416 0.42089 0.0
H2604 H 0.80076 0.27752 0.43432 0.0
H2605 H 0.7943 0.2912 0.43551 0.0
H2606 H 0.80124 0.29793 0.45629 0.0
H2607 H 0.79434 0.28804 0.47418 0.0
H2608 H 0.15619 0.69756 0.71722 0.0
H2609 H 0.1385 0.70569 0.72676 0.0
H2610 H 0.11757 0.69312 0.69522 0.0
H2611 H 0.13511 0.6849 0.68566 0.0
H2612 H 0.12609 0.72288 0.7177 0.0
H2613 H 0.09534 0.6818 0.72287 0.0
H2614 H 0.11143 0.68188 0.72016 0.0
H2615 H 0.10157 0.6829 0.70792 0.0
C2616 C 0.14778 0.69638 0.71238 0.0
C2617 C 0.14707 0.69056 0.70067 0.0
C2618 C 0.13769 0.70106 0.71784 0.0
C2619 C 0.12668 0.69989 0.71176 0.0
C2620 C 0.1259 0.69393 0.70017 0.0
H2621 H 0.057 0.72567 0.72242 0.0
H2622 H 0.0747 0.7161 0.71528 0.0
C2623 C 0.13597 0.68929 0.69469 0.0
C2624 C 0.11622 0.70552 0.7172 0.0
H2625 H 0.08652 0.6998 0.72572 0.0
C2626 C 0.11747 0.71784 0.71958 0.0
C2627 C 0.10497 0.69892 0.71956 0.0
C2628 C 0.10323 0.68563 0.71761 0.0
C2629 C 0.10766 0.72377 0.72393 0.0
C2630 C 0.09637 0.71718 0.7262 0.0
C2631 C 0.09517 0.70484 0.72396 0.0
C2632 C 0.08563 0.72294 0.73068 0.0
C2633 C 0.10939 0.73707 0.72566 0.0
C2634 C 0.08583 0.72985 0.74178 0.0
C2635 C 0.07578 0.73544 0.74583 0.0
C2636 C 0.06525 0.73415 0.73891 0.0
C2637 C 0.06501 0.72703 0.72789 0.0
C2638 C 0.07509 0.72147 0.72384 0.0
H2639 H 0.11747 0.74083 0.72062 0.0
H2640 H 0.10133 0.74077 0.72268 0.0
H2641 H 0.11068 0.73997 0.73536 0.0
H2642 H 0.09379 0.73093 0.74733 0.0
H2643 H 0.07632 0.74092 0.75431 0.0
H2644 H 0.81929 0.65118 0.69922 0.0
H2645 H 0.81022 0.6334 0.70803 0.0
H2646 H 0.82309 0.61186 0.67765 0.0
H2647 H 0.8323 0.62959 0.66878 0.0
H2648 H 0.79303 0.614 0.69864 0.0
H2649 H 0.83803 0.60046 0.70747 0.0
H2650 H 0.83618 0.61514 0.7039 0.0
H2651 H 0.83553 0.60318 0.6922 0.0
C2652 C 0.82011 0.64267 0.69435 0.0
C2653 C 0.82662 0.6418 0.68335 0.0
C2654 C 0.8149 0.63253 0.69939 0.0
C2655 C 0.81616 0.62134 0.69358 0.0
C2656 C 0.8222 0.62043 0.68236 0.0
H2657 H 0.79921 0.55132 0.71777 0.0
H2658 H 0.80532 0.56796 0.70593 0.0
C2659 C 0.8274 0.63057 0.67729 0.0
C2660 C 0.81158 0.61066 0.69953 0.0
H2661 H 0.82086 0.58769 0.71262 0.0
C2662 C 0.79908 0.60821 0.70168 0.0
C2663 C 0.81953 0.60316 0.70347 0.0
C2664 C 0.83308 0.60562 0.70176 0.0
C2665 C 0.79431 0.59839 0.70762 0.0
C2666 C 0.80229 0.59099 0.71173 0.0
C2667 C 0.81477 0.59337 0.70945 0.0
C2668 C 0.79796 0.58084 0.71863 0.0
C2669 C 0.78077 0.59593 0.7093 0.0
C2670 C 0.79185 0.58258 0.72974 0.0
C2671 C 0.78825 0.57307 0.73648 0.0
C2672 C 0.79079 0.56164 0.73229 0.0
C2673 C 0.79694 0.55996 0.72117 0.0
C2674 C 0.80051 0.56947 0.71442 0.0
H2675 H 0.77588 0.60023 0.70274 0.0
H2676 H 0.77775 0.58631 0.7083 0.0
H2677 H 0.77817 0.5995 0.71849 0.0
H2678 H 0.79003 0.59133 0.73329 0.0
H2679 H 0.78345 0.57466 0.74495 0.0
H2680 H 0.91981 0.3465 0.70104 0.0
H2681 H 0.93718 0.33865 0.7089 0.0
H2682 H 0.91351 0.31975 0.73363 0.0
H2683 H 0.89608 0.32736 0.7257 0.0
H2684 H 0.94612 0.34063 0.73212 0.0
H2685 H 0.93145 0.29388 0.71629 0.0
H2686 H 0.92468 0.30595 0.71107 0.0
H2687 H 0.92028 0.30078 0.72546 0.0
C2688 C 0.9183 0.34067 0.70816 0.0
C2689 C 0.90655 0.33748 0.71268 0.0
C2690 C 0.92823 0.33621 0.71264 0.0
C2691 C 0.92659 0.32846 0.72168 0.0
C2692 C 0.91493 0.32551 0.72645 0.0
H2693 H 0.97217 0.29167 0.76215 0.0
H2694 H 0.9558 0.30081 0.75408 0.0
C2695 C 0.90499 0.32992 0.72195 0.0
C2696 C 0.93708 0.32347 0.72618 0.0
H2697 H 0.94801 0.29748 0.72965 0.0
C2698 C 0.94659 0.3312 0.73151 0.0
C2699 C 0.93767 0.31117 0.72533 0.0
C2700 C 0.92803 0.30246 0.71913 0.0
C2701 C 0.95654 0.32693 0.73632 0.0
C2702 C 0.957 0.31463 0.73564 0.0
C2703 C 0.94757 0.30691 0.73019 0.0
C2704 C 0.9671 0.30954 0.74072 0.0
C2705 C 0.96631 0.33558 0.74237 0.0
C2706 C 0.97886 0.31139 0.73582 0.0
C2707 C 0.98826 0.30621 0.74044 0.0
C2708 C 0.98603 0.29909 0.75003 0.0
C2709 C 0.97422 0.29727 0.7549 0.0
C2710 C 0.96484 0.30241 0.75025 0.0
H2711 H 0.96338 0.34449 0.74437 0.0
H2712 H 0.969 0.33245 0.75091 0.0
H2713 H 0.97442 0.33635 0.73634 0.0
H2714 H 0.98073 0.31673 0.72834 0.0
H2715 H 0.99727 0.30782 0.73655 0.0
H2716 H 0.22307 0.37144 0.69995 0.0
H2717 H 0.23197 0.39195 0.70361 0.0
H2718 H 0.25974 0.38128 0.72486 0.0
H2719 H 0.25102 0.3607 0.72112 0.0
H2720 H 0.23389 0.40385 0.72629 0.0
H2721 H 0.27909 0.40443 0.70386 0.0
H2722 H 0.26702 0.39262 0.70065 0.0
H2723 H 0.27587 0.39313 0.71395 0.0
C2724 C 0.2312 0.37341 0.70524 0.0
C2725 C 0.23631 0.36442 0.71029 0.0
C2726 C 0.23627 0.38515 0.70731 0.0
C2727 C 0.24657 0.38812 0.7144 0.0
C2728 C 0.25193 0.37915 0.71915 0.0
H2729 H 0.28304 0.45208 0.75011 0.0
H2730 H 0.27666 0.43186 0.74166 0.0
C2731 C 0.24688 0.36739 0.71707 0.0
C2732 C 0.25098 0.40067 0.71782 0.0
H2733 H 0.27583 0.42125 0.71739 0.0
C2734 C 0.24302 0.40769 0.72423 0.0
C2735 C 0.26291 0.40562 0.71518 0.0
C2736 C 0.2717 0.3986 0.70794 0.0
C2737 C 0.24675 0.41947 0.72835 0.0
C2738 C 0.2587 0.4244 0.7258 0.0
C2739 C 0.26666 0.41742 0.7193 0.0
C2740 C 0.26316 0.43672 0.73013 0.0
C2741 C 0.23797 0.42641 0.73573 0.0
C2742 C 0.25787 0.44614 0.72622 0.0
C2743 C 0.26149 0.45769 0.73102 0.0
C2744 C 0.27054 0.46002 0.73975 0.0
C2745 C 0.27612 0.45058 0.74333 0.0
C2746 C 0.27247 0.43903 0.73854 0.0
H2747 H 0.23021 0.42059 0.73923 0.0
H2748 H 0.24255 0.43178 0.74347 0.0
H2749 H 0.23432 0.43249 0.73001 0.0
H2750 H 0.25083 0.44454 0.71956 0.0
H2751 H 0.25718 0.46479 0.72793 0.0
H2752 H 0.15143 0.34799 0.31942 0.0
H2753 H 0.13404 0.33529 0.31084 0.0
H2754 H 0.13204 0.31496 0.34154 0.0
H2755 H 0.1494 0.3278 0.35035 0.0
H2756 H 0.13161 0.31107 0.3046 0.0
H2757 H 0.09743 0.32328 0.33953 0.0
H2758 H 0.11207 0.33177 0.3382 0.0
H2759 H 0.11065 0.3181 0.34501 0.0
C2760 C 0.14729 0.34085 0.3244 0.0
C2761 C 0.15178 0.33894 0.33561 0.0
C2762 C 0.13736 0.33358 0.31945 0.0
C2763 C 0.13166 0.32428 0.32561 0.0
C2764 C 0.13617 0.32224 0.33674 0.0
H2765 H 0.06783 0.27504 0.30376 0.0
H2766 H 0.08586 0.28461 0.31442 0.0
C2767 C 0.14612 0.32954 0.34173 0.0
C2768 C 0.12112 0.31669 0.32017 0.0
H2769 H 0.09071 0.30896 0.32379 0.0
C2770 C 0.12268 0.31056 0.30882 0.0
C2771 C 0.10949 0.31601 0.32573 0.0
C2772 C 0.10722 0.3227 0.33775 0.0
C2773 C 0.11288 0.30391 0.30279 0.0
C2774 C 0.1012 0.30351 0.30818 0.0
C2775 C 0.09969 0.30932 0.31969 0.0
C2776 C 0.09036 0.29763 0.30173 0.0
C2777 C 0.11509 0.2974 0.29066 0.0
C2778 C 0.08685 0.30191 0.29117 0.0
C2779 C 0.07652 0.29655 0.28513 0.0
C2780 C 0.06947 0.2868 0.28953 0.0
C2781 C 0.07299 0.28259 0.30018 0.0
C2782 C 0.08331 0.288 0.30625 0.0
H2783 H 0.12476 0.29599 0.28928 0.0
H2784 H 0.10945 0.2887 0.28966 0.0
H2785 H 0.11263 0.30266 0.28347 0.0
H2786 H 0.09202 0.3095 0.28769 0.0
H2787 H 0.07395 0.30019 0.27711 0.0
H2788 H 0.191 0.63289 0.33506 0.0
H2789 H 0.19949 0.61538 0.32584 0.0
H2790 H 0.22869 0.63752 0.31017 0.0
H2791 H 0.22019 0.65509 0.31921 0.0
H2792 H 0.21863 0.61878 0.29417 0.0
H2793 H 0.22993 0.60353 0.33776 0.0
H2794 H 0.21436 0.60588 0.33654 0.0
H2795 H 0.22602 0.61817 0.33652 0.0
C2796 C 0.19921 0.63404 0.32962 0.0
C2797 C 0.20496 0.64538 0.32793 0.0
C2798 C 0.20407 0.62403 0.32441 0.0
C2799 C 0.21482 0.62517 0.3175 0.0
C2800 C 0.22041 0.63647 0.31553 0.0
H2801 H 0.26276 0.57209 0.29834 0.0
H2802 H 0.25343 0.5896 0.30612 0.0
C2803 C 0.21555 0.64649 0.32072 0.0
C2804 C 0.22031 0.6146 0.3124 0.0
H2805 H 0.23262 0.59065 0.32023 0.0
C2806 C 0.22169 0.61262 0.29985 0.0
C2807 C 0.22444 0.60669 0.31986 0.0
C2808 C 0.22373 0.60869 0.33343 0.0
C2809 C 0.227 0.60283 0.29453 0.0
C2810 C 0.23085 0.59476 0.30199 0.0
C2811 C 0.22957 0.59681 0.31454 0.0
C2812 C 0.23649 0.58424 0.29699 0.0
C2813 C 0.22868 0.60136 0.28102 0.0
C2814 C 0.23003 0.57539 0.28935 0.0
C2815 C 0.23532 0.56536 0.2849 0.0
C2816 C 0.24715 0.56396 0.28813 0.0
C2817 C 0.25358 0.57284 0.29581 0.0
C2818 C 0.24829 0.58287 0.30021 0.0
H2819 H 0.22809 0.60972 0.27694 0.0
H2820 H 0.23756 0.59826 0.27846 0.0
H2821 H 0.22146 0.59467 0.27713 0.0
H2822 H 0.22081 0.57615 0.28696 0.0
H2823 H 0.23007 0.55858 0.27915 0.0
H2824 H 0.88882 0.70781 0.32447 0.0
H2825 H 0.9089 0.71651 0.31825 0.0
H2826 H 0.89259 0.73918 0.29648 0.0
H2827 H 0.87245 0.73066 0.3028 0.0
H2828 H 0.91916 0.71723 0.29528 0.0
H2829 H 0.91604 0.76241 0.31712 0.0
H2830 H 0.90553 0.74987 0.32055 0.0
H2831 H 0.90396 0.75685 0.30703 0.0
C2832 C 0.88949 0.71466 0.31837 0.0
C2833 C 0.87904 0.7186 0.31418 0.0
C2834 C 0.90098 0.71961 0.31482 0.0
C2835 C 0.90222 0.72862 0.30707 0.0
C2836 C 0.89182 0.73242 0.30268 0.0
H2837 H 0.96492 0.76826 0.27571 0.0
H2838 H 0.94444 0.75976 0.2811 0.0
C2839 C 0.88032 0.72749 0.30625 0.0
C2840 C 0.91444 0.73389 0.30346 0.0
H2841 H 0.9333 0.75975 0.30465 0.0
C2842 C 0.92227 0.72652 0.29735 0.0
C2843 C 0.91845 0.74601 0.30618 0.0
C2844 C 0.91061 0.75424 0.31317 0.0
C2845 C 0.93398 0.73097 0.29377 0.0
C2846 C 0.938 0.74308 0.29652 0.0
C2847 C 0.93016 0.75047 0.30255 0.0
C2848 C 0.95038 0.7482 0.29334 0.0
C2849 C 0.94191 0.72274 0.28691 0.0
C2850 C 0.96045 0.74462 0.29858 0.0
C2851 C 0.97214 0.74942 0.29551 0.0
C2852 C 0.97395 0.75792 0.28716 0.0
C2853 C 0.96382 0.76161 0.28205 0.0
C2854 C 0.95212 0.75682 0.28516 0.0
H2855 H 0.93657 0.7145 0.28304 0.0
H2856 H 0.94699 0.72708 0.27951 0.0
H2857 H 0.94859 0.72029 0.29313 0.0
H2858 H 0.95926 0.7381 0.30505 0.0
H2859 H 0.97977 0.74634 0.29954 0.0
H2860 H 0.84805 0.396 0.33732 0.0
H2861 H 0.8413 0.41272 0.32845 0.0
H2862 H 0.82599 0.38921 0.29881 0.0
H2863 H 0.83235 0.37242 0.30783 0.0
H2864 H 0.84674 0.4218 0.30764 0.0
H2865 H 0.79763 0.40652 0.30906 0.0
H2866 H 0.80852 0.3996 0.3167 0.0
H2867 H 0.80614 0.39599 0.30081 0.0
C2868 C 0.84321 0.39438 0.32893 0.0
C2869 C 0.84065 0.38286 0.32334 0.0
C2870 C 0.83936 0.40395 0.32386 0.0
C2871 C 0.83292 0.40222 0.31308 0.0
C2872 C 0.83063 0.39076 0.30731 0.0
H2873 H 0.82298 0.45766 0.26727 0.0
H2874 H 0.83001 0.44125 0.27648 0.0
C2875 C 0.83435 0.38116 0.31244 0.0
C2876 C 0.82877 0.41243 0.30779 0.0
H2877 H 0.80379 0.42276 0.29763 0.0
C2878 C 0.83733 0.42203 0.3055 0.0
C2879 C 0.81646 0.41284 0.30518 0.0
C2880 C 0.80664 0.40325 0.30818 0.0
C2881 C 0.83398 0.43193 0.30053 0.0
C2882 C 0.82177 0.43211 0.29743 0.0
C2883 C 0.81317 0.42258 0.29987 0.0
C2884 C 0.81763 0.44214 0.29182 0.0
C2885 C 0.84353 0.4422 0.29893 0.0
C2886 C 0.80808 0.4479 0.29714 0.0
C2887 C 0.80393 0.45715 0.29178 0.0
C2888 C 0.80928 0.46087 0.281 0.0
C2889 C 0.81883 0.4551 0.27567 0.0
C2890 C 0.82288 0.44576 0.28096 0.0
H2891 H 0.85127 0.44224 0.30501 0.0
H2892 H 0.8471 0.4415 0.28952 0.0
H2893 H 0.83976 0.45074 0.30071 0.0
H2894 H 0.80385 0.44526 0.30548 0.0
H2895 H 0.79661 0.46147 0.29614 0.0
H2896 H 0.22201 0.64807 0.7227 0.0
H2897 H 0.23164 0.63249 0.73073 0.0
H2898 H 0.22045 0.60871 0.69967 0.0
H2899 H 0.21047 0.62413 0.69178 0.0
H2900 H 0.21627 0.59808 0.71977 0.0
H2901 H 0.26317 0.62061 0.72043 0.0
H2902 H 0.25278 0.62911 0.72893 0.0
H2903 H 0.25115 0.62601 0.71289 0.0
C2904 C 0.22165 0.63954 0.71755 0.0
C2905 C 0.21551 0.63737 0.70657 0.0
C2906 C 0.22724 0.63066 0.72211 0.0
C2907 C 0.22699 0.61948 0.7157 0.0
C2908 C 0.22082 0.61728 0.70476 0.0
H2909 H 0.27244 0.56604 0.73059 0.0
H2910 H 0.26305 0.5815 0.72199 0.0
C2911 C 0.21513 0.62611 0.70025 0.0
C2912 C 0.23282 0.60996 0.72054 0.0
H2913 H 0.25954 0.60331 0.73086 0.0
C2914 C 0.22575 0.59921 0.72213 0.0
C2915 C 0.24524 0.61134 0.72347 0.0
C2916 C 0.25356 0.62235 0.72123 0.0
C2917 C 0.23069 0.58988 0.72672 0.0
C2918 C 0.24297 0.59146 0.73015 0.0
C2919 C 0.25009 0.60214 0.72838 0.0
C2920 C 0.24865 0.5821 0.73545 0.0
C2921 C 0.22273 0.57836 0.7276 0.0
C2922 C 0.2438 0.57741 0.74597 0.0
C2923 C 0.2491 0.56852 0.75084 0.0
C2924 C 0.25949 0.56428 0.7454 0.0
C2925 C 0.26449 0.56917 0.73502 0.0
C2926 C 0.25911 0.57798 0.73009 0.0
H2927 H 0.21501 0.57741 0.72136 0.0
H2928 H 0.22794 0.57072 0.72552 0.0
H2929 H 0.21896 0.57807 0.7369 0.0
H2930 H 0.23596 0.58067 0.75048 0.0
H2931 H 0.24517 0.56507 0.75896 0.0
H2932 H 0.20258 0.39498 0.35373 0.0
H2933 H 0.21424 0.41212 0.34582 0.0
H2934 H 0.23689 0.38933 0.32516 0.0
H2935 H 0.22525 0.3721 0.33293 0.0
H2936 H 0.24004 0.42036 0.34584 0.0
H2937 H 0.22183 0.40742 0.29994 0.0
H2938 H 0.21513 0.40113 0.31315 0.0
H2939 H 0.22882 0.39632 0.30657 0.0
C2940 C 0.21012 0.3936 0.3476 0.0
C2941 C 0.21289 0.38214 0.34386 0.0
C2942 C 0.21678 0.40341 0.34312 0.0
C2943 C 0.22629 0.40195 0.33479 0.0
C2944 C 0.22946 0.3906 0.33146 0.0
H2945 H 0.26743 0.45051 0.28945 0.0
H2946 H 0.25984 0.43334 0.30006 0.0
C2947 C 0.22281 0.38078 0.33594 0.0
C2948 C 0.23246 0.41224 0.32911 0.0
H2949 H 0.23621 0.42426 0.30225 0.0
C2950 C 0.23924 0.42123 0.33631 0.0
C2951 C 0.23137 0.41332 0.31668 0.0
C2952 C 0.22382 0.4041 0.30862 0.0
C2953 C 0.24508 0.43127 0.33137 0.0
C2954 C 0.24387 0.43241 0.31895 0.0
C2955 C 0.23716 0.42335 0.31176 0.0
C2956 C 0.24922 0.44301 0.31322 0.0
C2957 C 0.25263 0.44047 0.33943 0.0
C2958 C 0.24577 0.45416 0.31711 0.0
C2959 C 0.25009 0.46398 0.31106 0.0
C2960 C 0.25782 0.4628 0.30092 0.0
C2961 C 0.26138 0.45166 0.29715 0.0
C2962 C 0.2571 0.44186 0.30324 0.0
H2963 H 0.25551 0.43677 0.34758 0.0
H2964 H 0.26081 0.44427 0.33457 0.0
H2965 H 0.24716 0.44772 0.34246 0.0
H2966 H 0.23945 0.4552 0.3246 0.0
H2967 H 0.24705 0.47241 0.31407 0.0
H2968 H 0.15278 0.72603 0.35034 0.0
H2969 H 0.13792 0.73363 0.33848 0.0
H2970 H 0.13478 0.70142 0.31483 0.0
H2971 H 0.14956 0.69363 0.32678 0.0
H2972 H 0.13876 0.73721 0.31396 0.0
H2973 H 0.09958 0.70493 0.32519 0.0
H2974 H 0.11347 0.70695 0.33348 0.0
H2975 H 0.11271 0.6987 0.31894 0.0
C2976 C 0.14893 0.72053 0.34263 0.0
C2977 C 0.1523 0.70919 0.33955 0.0
C2978 C 0.14046 0.72491 0.33585 0.0
C2979 C 0.13515 0.71803 0.32588 0.0
C2980 C 0.13862 0.70678 0.32263 0.0
H2981 H 0.07834 0.73451 0.27983 0.0
H2982 H 0.09453 0.72506 0.28798 0.0
C2983 C 0.14711 0.70237 0.32943 0.0
C2984 C 0.12601 0.72275 0.31895 0.0
H2985 H 0.09606 0.7189 0.31192 0.0
C2986 C 0.12943 0.73318 0.31346 0.0
C2987 C 0.11386 0.71744 0.31829 0.0
C2988 C 0.10961 0.70644 0.32436 0.0
C2989 C 0.121 0.73853 0.30744 0.0
C2990 C 0.1088 0.73339 0.30707 0.0
C2991 C 0.10543 0.72279 0.31225 0.0
C2992 C 0.09928 0.73921 0.3019 0.0
C2993 C 0.12521 0.74964 0.30155 0.0
C2994 C 0.09654 0.75022 0.30712 0.0
C2995 C 0.08735 0.75563 0.30249 0.0
C2996 C 0.08067 0.75009 0.29258 0.0
C2997 C 0.08342 0.73904 0.28738 0.0
C2998 C 0.09261 0.73362 0.29205 0.0
H2999 H 0.13513 0.75058 0.29975 0.0
H3000 H 0.1205 0.74977 0.29293 0.0
H3001 H 0.12312 0.75739 0.30765 0.0
H3002 H 0.10146 0.75459 0.31485 0.0
H3003 H 0.08552 0.76419 0.30662 0.0
H3004 H 0.82178 0.65256 0.33883 0.0
H3005 H 0.81623 0.63332 0.32781 0.0
H3006 H 0.84532 0.64053 0.30217 0.0
H3007 H 0.85107 0.65981 0.31325 0.0
H3008 H 0.80935 0.62834 0.30372 0.0
H3009 H 0.85085 0.60829 0.31269 0.0
H3010 H 0.84694 0.62161 0.32108 0.0
H3011 H 0.85337 0.6221 0.30615 0.0
C3012 C 0.82704 0.65007 0.33087 0.0
C3013 C 0.8369 0.6577 0.32694 0.0
C3014 C 0.82384 0.63907 0.32458 0.0
C3015 C 0.83045 0.63546 0.31427 0.0
C3016 C 0.84024 0.64308 0.31023 0.0
H3017 H 0.8212 0.56963 0.26742 0.0
H3018 H 0.82803 0.58961 0.27629 0.0
C3019 C 0.84347 0.6541 0.31654 0.0
C3020 C 0.8269 0.62377 0.30771 0.0
H3021 H 0.83642 0.59681 0.30002 0.0
C3022 C 0.81527 0.62144 0.30289 0.0
C3023 C 0.83468 0.61483 0.30662 0.0
C3024 C 0.84713 0.61674 0.31198 0.0
C3025 C 0.81116 0.61037 0.29703 0.0
C3026 C 0.81884 0.60137 0.29615 0.0
C3027 C 0.83056 0.60375 0.30074 0.0
C3028 C 0.81471 0.58929 0.29081 0.0
C3029 C 0.79867 0.60843 0.29176 0.0
C3030 C 0.80509 0.58247 0.29617 0.0
C3031 C 0.80121 0.57104 0.29119 0.0
C3032 C 0.80694 0.56621 0.28078 0.0
C3033 C 0.81668 0.57304 0.27551 0.0
C3034 C 0.82056 0.58447 0.28052 0.0
H3035 H 0.79526 0.6169 0.29037 0.0
H3036 H 0.79861 0.60291 0.28301 0.0
H3037 H 0.7923 0.60377 0.29805 0.0
H3038 H 0.80064 0.58595 0.30428 0.0
H3039 H 0.79384 0.56594 0.29559 0.0
H3040 H 0.88377 0.31664 0.33583 0.0
H3041 H 0.9007 0.30911 0.32447 0.0
H3042 H 0.90262 0.33782 0.30201 0.0
H3043 H 0.88563 0.34554 0.31342 0.0
H3044 H 0.90207 0.30232 0.29915 0.0
H3045 H 0.93772 0.33872 0.31405 0.0
H3046 H 0.92334 0.33635 0.32192 0.0
H3047 H 0.92429 0.3429 0.3079 0.0
C3048 C 0.88778 0.32141 0.32851 0.0
C3049 C 0.88334 0.33174 0.32558 0.0
C3050 C 0.89746 0.31706 0.32201 0.0
C3051 C 0.90299 0.32296 0.31249 0.0
C3052 C 0.89859 0.33324 0.30945 0.0
H3053 H 0.96675 0.3056 0.26933 0.0
H3054 H 0.94903 0.31488 0.27711 0.0
C3055 C 0.88884 0.3376 0.31595 0.0
C3056 C 0.91325 0.31815 0.30571 0.0
H3057 H 0.94376 0.32326 0.30066 0.0
C3058 C 0.91118 0.30692 0.29942 0.0
C3059 C 0.92509 0.32421 0.30603 0.0
C3060 C 0.92784 0.33618 0.31289 0.0
C3061 C 0.92067 0.30151 0.29354 0.0
C3062 C 0.9326 0.30738 0.29421 0.0
C3063 C 0.93462 0.31877 0.3002 0.0
C3064 C 0.94317 0.30163 0.28925 0.0
C3065 C 0.91783 0.28955 0.28666 0.0
C3066 C 0.94582 0.29116 0.29358 0.0
C3067 C 0.95587 0.2858 0.28911 0.0
C3068 C 0.96357 0.29085 0.28027 0.0
C3069 C 0.96092 0.30139 0.276 0.0
C3070 C 0.95085 0.30675 0.28049 0.0
H3071 H 0.9082 0.28794 0.28394 0.0
H3072 H 0.92368 0.28865 0.27846 0.0
H3073 H 0.91944 0.28262 0.2925 0.0
H3074 H 0.94016 0.28717 0.30051 0.0
H3075 H 0.95757 0.27765 0.29252 0.0
H3076 H 0.87102 0.39578 0.70981 0.0
H3077 H 0.86179 0.41172 0.72149 0.0
H3078 H 0.82667 0.39686 0.70831 0.0
H3079 H 0.83572 0.38085 0.69686 0.0
H3080 H 0.84929 0.42814 0.71292 0.0
H3081 H 0.8198 0.40228 0.7441 0.0
H3082 H 0.83186 0.39623 0.7353 0.0
H3083 H 0.81743 0.3968 0.72864 0.0
C3084 C 0.86132 0.39584 0.70951 0.0
C3085 C 0.8541 0.38702 0.70244 0.0
C3086 C 0.85606 0.40495 0.71618 0.0
C3087 C 0.84352 0.40536 0.71594 0.0
C3088 C 0.83632 0.39656 0.70889 0.0
H3089 H 0.79194 0.45376 0.73509 0.0
H3090 H 0.80334 0.43753 0.72748 0.0
C3091 C 0.84154 0.38745 0.70227 0.0
C3092 C 0.83798 0.41533 0.72241 0.0
H3093 H 0.81508 0.42187 0.74205 0.0
C3094 C 0.84194 0.4268 0.71943 0.0
C3095 C 0.82839 0.41356 0.73091 0.0
C3096 C 0.8242 0.40156 0.73502 0.0
C3097 C 0.83622 0.43647 0.72434 0.0
C3098 C 0.82637 0.43461 0.73249 0.0
C3099 C 0.82261 0.42322 0.73573 0.0
C3100 C 0.81952 0.44433 0.73736 0.0
C3101 C 0.84044 0.44855 0.72046 0.0
C3102 C 0.82483 0.45342 0.74552 0.0
C3103 C 0.81835 0.4627 0.74988 0.0
C3104 C 0.80646 0.46303 0.74611 0.0
C3105 C 0.80113 0.45381 0.73803 0.0
C3106 C 0.80759 0.44452 0.73374 0.0
H3107 H 0.84691 0.44819 0.71268 0.0
H3108 H 0.8326 0.45289 0.71797 0.0
H3109 H 0.84502 0.45412 0.72807 0.0
H3110 H 0.834 0.45335 0.74848 0.0
H3111 H 0.82271 0.46971 0.75603 0.0
H3112 H 0.18235 0.33147 0.73855 0.0
H3113 H 0.16262 0.32189 0.74447 0.0
H3114 H 0.17249 0.28824 0.72939 0.0
H3115 H 0.1923 0.29782 0.72321 0.0
H3116 H 0.14994 0.29223 0.72254 0.0
H3117 H 0.15418 0.30142 0.77194 0.0
H3118 H 0.15737 0.31453 0.7643 0.0
H3119 H 0.16704 0.30301 0.76172 0.0
C3120 C 0.18039 0.32201 0.73656 0.0
C3121 C 0.18892 0.3154 0.73044 0.0
C3122 C 0.16912 0.31654 0.74002 0.0
C3123 C 0.16618 0.30433 0.73757 0.0
C3124 C 0.17464 0.29767 0.73145 0.0
H3125 H 0.09926 0.26996 0.76813 0.0
H3126 H 0.12055 0.2749 0.76243 0.0
C3127 C 0.18594 0.30316 0.72794 0.0
C3128 C 0.15402 0.29869 0.74092 0.0
H3129 H 0.13401 0.29621 0.76457 0.0
C3130 C 0.1465 0.29296 0.73175 0.0
C3131 C 0.14962 0.29948 0.75297 0.0
C3132 C 0.15752 0.30483 0.76331 0.0
C3133 C 0.13448 0.28846 0.73423 0.0
C3134 C 0.12983 0.28997 0.74615 0.0
C3135 C 0.13753 0.29521 0.7554 0.0
C3136 C 0.11691 0.28655 0.74919 0.0
C3137 C 0.12689 0.28217 0.72405 0.0
C3138 C 0.10782 0.29155 0.74372 0.0
C3139 C 0.09567 0.28874 0.74695 0.0
C3140 C 0.0924 0.281 0.75583 0.0
C3141 C 0.10152 0.27604 0.76133 0.0
C3142 C 0.11367 0.2788 0.75805 0.0
H3143 H 0.13262 0.27851 0.71663 0.0
H3144 H 0.12046 0.27488 0.7272 0.0
H3145 H 0.12159 0.28853 0.72031 0.0
H3146 H 0.11014 0.29781 0.73711 0.0
H3147 H 0.08887 0.29285 0.7427 0.0
H3148 H 0.88883 0.68827 0.67037 0.0
H3149 H 0.90639 0.70019 0.6797 0.0
H3150 H 0.88301 0.72363 0.69825 0.0
H3151 H 0.86533 0.71176 0.68898 0.0
H3152 H 0.91452 0.72566 0.6799 0.0
H3153 H 0.90194 0.71087 0.72518 0.0
H3154 H 0.89563 0.70316 0.71148 0.0
H3155 H 0.89045 0.71681 0.71745 0.0
C3156 C 0.88741 0.69602 0.67634 0.0
C3157 C 0.87566 0.699 0.67901 0.0
C3158 C 0.89746 0.70283 0.68165 0.0
C3159 C 0.89596 0.71268 0.68977 0.0
C3160 C 0.88431 0.71596 0.69211 0.0
H3161 H 0.94824 0.75468 0.73807 0.0
H3162 H 0.92983 0.74689 0.72707 0.0
C3163 C 0.87424 0.70919 0.68677 0.0
C3164 C 0.90655 0.71918 0.69615 0.0
H3165 H 0.91961 0.72417 0.72374 0.0
C3166 C 0.91564 0.7254 0.68949 0.0
C3167 C 0.90792 0.71882 0.70866 0.0
C3168 C 0.89853 0.712 0.71615 0.0
C3169 C 0.92612 0.73128 0.69504 0.0
C3170 C 0.92765 0.73067 0.70751 0.0
C3171 C 0.91843 0.72463 0.71419 0.0
C3172 C 0.9389 0.73585 0.71376 0.0
C3173 C 0.9354 0.73819 0.68752 0.0
C3174 C 0.95009 0.73215 0.70999 0.0
C3175 C 0.96061 0.73659 0.71624 0.0
C3176 C 0.96012 0.7447 0.72649 0.0
C3177 C 0.94889 0.74837 0.73026 0.0
C3178 C 0.93838 0.74397 0.72396 0.0
H3179 H 0.93129 0.74083 0.67939 0.0
H3180 H 0.9397 0.74624 0.69279 0.0
H3181 H 0.94257 0.73259 0.68444 0.0
H3182 H 0.95066 0.72564 0.70236 0.0
H3183 H 0.96909 0.73344 0.71323 0.0
H3184 H 0.70304 0.20022 0.65821 0.0
H3185 H 0.7148 0.20702 0.64089 0.0
H3186 H 0.73949 0.1814 0.64433 0.0
H3187 H 0.72769 0.17441 0.66169 0.0
H3188 H 0.7395 0.21627 0.64031 0.0
H3189 H 0.73009 0.17595 0.60851 0.0
H3190 H 0.72115 0.17857 0.62207 0.0
H3191 H 0.73585 0.1738 0.62292 0.0
C3192 C 0.71093 0.19596 0.65528 0.0
C3193 C 0.71439 0.18673 0.66135 0.0
C3194 C 0.71766 0.19989 0.64537 0.0
C3195 C 0.72794 0.19464 0.64124 0.0
C3196 C 0.73146 0.18544 0.64725 0.0
H3197 H 0.77668 0.21032 0.58021 0.0
H3198 H 0.76715 0.20196 0.59806 0.0
C3199 C 0.72474 0.1815 0.65721 0.0
C3200 C 0.73508 0.1991 0.63084 0.0
H3201 H 0.74334 0.19165 0.60161 0.0
C3202 C 0.74037 0.21088 0.63185 0.0
C3203 C 0.73625 0.19203 0.61985 0.0
C3204 C 0.73047 0.1794 0.61817 0.0
C3205 C 0.74674 0.21582 0.62216 0.0
C3206 C 0.74765 0.20885 0.61106 0.0
C3207 C 0.7426 0.19698 0.61012 0.0
C3208 C 0.7534 0.21385 0.60021 0.0
C3209 C 0.75253 0.22844 0.62391 0.0
C3210 C 0.74871 0.22316 0.59538 0.0
C3211 C 0.75409 0.22792 0.58519 0.0
C3212 C 0.76426 0.22342 0.57954 0.0
C3213 C 0.76882 0.21395 0.58429 0.0
C3214 C 0.76342 0.20919 0.59451 0.0
H3215 H 0.75404 0.23139 0.63359 0.0
H3216 H 0.76133 0.22961 0.61896 0.0
H3217 H 0.74644 0.23425 0.62041 0.0
H3218 H 0.74079 0.2267 0.59945 0.0
H3219 H 0.75018 0.23503 0.58162 0.0
H3220 H 0.31273 0.21286 0.64941 0.0
H3221 H 0.30567 0.22052 0.63154 0.0
H3222 H 0.32064 0.19298 0.60892 0.0
H3223 H 0.32796 0.18538 0.62675 0.0
H3224 H 0.3263 0.21454 0.60053 0.0
H3225 H 0.27712 0.20691 0.61078 0.0
H3226 H 0.28549 0.21548 0.62276 0.0
H3227 H 0.28816 0.20043 0.6187 0.0
C3228 C 0.31447 0.20838 0.64065 0.0
C3229 C 0.32086 0.19848 0.63951 0.0
C3230 C 0.31036 0.21274 0.63044 0.0
C3231 C 0.31244 0.2072 0.61891 0.0
C3232 C 0.31888 0.19735 0.61774 0.0
H3233 H 0.27711 0.22264 0.55453 0.0
H3234 H 0.28432 0.21296 0.57108 0.0
C3235 C 0.32304 0.19301 0.62794 0.0
C3236 C 0.30824 0.21192 0.60806 0.0
H3237 H 0.28314 0.21928 0.59512 0.0
C3238 C 0.31685 0.21551 0.59929 0.0
C3239 C 0.29589 0.213 0.60638 0.0
C3240 C 0.28611 0.20864 0.61509 0.0
C3241 C 0.31349 0.22043 0.58904 0.0
C3242 C 0.30122 0.22204 0.58766 0.0
C3243 C 0.29256 0.21817 0.59627 0.0
C3244 C 0.29716 0.22781 0.57742 0.0
C3245 C 0.3231 0.22374 0.57973 0.0
C3246 C 0.30191 0.23941 0.57555 0.0
C3247 C 0.29783 0.24494 0.56609 0.0
C3248 C 0.2888 0.23904 0.55841 0.0
C3249 C 0.28401 0.22745 0.56035 0.0
C3250 C 0.28815 0.2219 0.56977 0.0
H3251 H 0.33104 0.21882 0.58027 0.0
H3252 H 0.31948 0.22199 0.57048 0.0
H3253 H 0.3263 0.23329 0.58134 0.0
H3254 H 0.30864 0.24425 0.58153 0.0
H3255 H 0.30154 0.25395 0.56496 0.0
H3256 H 0.37708 0.83428 0.64727 0.0
H3257 H 0.36885 0.82139 0.62995 0.0
H3258 H 0.33726 0.81018 0.65114 0.0
H3259 H 0.34552 0.82279 0.66857 0.0
H3260 H 0.34524 0.79185 0.63681 0.0
H3261 H 0.34154 0.82979 0.61035 0.0
H3262 H 0.35658 0.82884 0.61522 0.0
H3263 H 0.34485 0.83163 0.62619 0.0
C3264 C 0.36843 0.829 0.64828 0.0
C3265 C 0.3619 0.82966 0.65927 0.0
C3266 C 0.36371 0.82168 0.63835 0.0
C3267 C 0.35233 0.81503 0.63919 0.0
C3268 C 0.34603 0.8153 0.65028 0.0
H3269 H 0.30342 0.78865 0.58184 0.0
H3270 H 0.3139 0.7989 0.59943 0.0
C3271 C 0.35077 0.82253 0.66023 0.0
C3272 C 0.34671 0.80811 0.62844 0.0
H3273 H 0.3364 0.81078 0.60045 0.0
C3274 C 0.34333 0.79596 0.62883 0.0
C3275 C 0.34406 0.81355 0.61814 0.0
C3276 C 0.34683 0.82668 0.61744 0.0
C3277 C 0.33735 0.7891 0.61919 0.0
C3278 C 0.33492 0.79451 0.60879 0.0
C3279 C 0.33835 0.80664 0.6084 0.0
C3280 C 0.32843 0.78788 0.59837 0.0
C3281 C 0.33335 0.77621 0.62039 0.0
C3282 C 0.33312 0.77828 0.59191 0.0
C3283 C 0.32705 0.77227 0.58193 0.0
C3284 C 0.31622 0.77584 0.57814 0.0
C3285 C 0.3116 0.78551 0.58462 0.0
C3286 C 0.31764 0.79145 0.59462 0.0
H3287 H 0.33302 0.77421 0.62995 0.0
H3288 H 0.32427 0.77347 0.61648 0.0
H3289 H 0.33989 0.77084 0.61546 0.0
H3290 H 0.34156 0.77551 0.59449 0.0
H3291 H 0.33081 0.76481 0.57721 0.0
H3292 H 0.70537 0.82748 0.65693 0.0
H3293 H 0.71003 0.81896 0.63664 0.0
H3294 H 0.73349 0.79688 0.65136 0.0
H3295 H 0.72908 0.80553 0.67169 0.0
H3296 H 0.74411 0.80822 0.6327 0.0
H3297 H 0.69837 0.78685 0.61983 0.0
H3298 H 0.69869 0.80223 0.62483 0.0
H3299 H 0.70216 0.79208 0.63519 0.0
C3300 C 0.71144 0.82073 0.65587 0.0
C3301 C 0.71684 0.81716 0.66592 0.0
C3302 C 0.71403 0.81582 0.64426 0.0
C3303 C 0.72194 0.80714 0.6425 0.0
C3304 C 0.7273 0.80352 0.65253 0.0
H3305 H 0.75165 0.77028 0.57851 0.0
H3306 H 0.74537 0.77645 0.59915 0.0
C3307 C 0.72476 0.80847 0.66414 0.0
C3308 C 0.72516 0.80234 0.63017 0.0
H3309 H 0.7132 0.78846 0.60397 0.0
C3310 C 0.73737 0.8038 0.62646 0.0
C3311 C 0.71634 0.79659 0.62204 0.0
C3312 C 0.70317 0.79423 0.6257 0.0
C3313 C 0.74096 0.79993 0.61473 0.0
C3314 C 0.73212 0.79434 0.60657 0.0
C3315 C 0.71993 0.79278 0.61028 0.0
C3316 C 0.73539 0.7902 0.59407 0.0
C3317 C 0.75415 0.80208 0.61106 0.0
C3318 C 0.73159 0.79571 0.58441 0.0
C3319 C 0.73512 0.79219 0.57262 0.0
C3320 C 0.74242 0.78301 0.5703 0.0
C3321 C 0.74595 0.77731 0.58 0.0
C3322 C 0.74246 0.78088 0.59179 0.0
H3323 H 0.75939 0.80852 0.61759 0.0
H3324 H 0.75816 0.79365 0.61057 0.0
H3325 H 0.75513 0.8054 0.60201 0.0
H3326 H 0.72607 0.80288 0.58602 0.0
H3327 H 0.73214 0.79664 0.56531 0.0
H3328 H 0.69873 0.83858 0.39151 0.0
H3329 H 0.70633 0.8314 0.40946 0.0
H3330 H 0.72938 0.81037 0.38704 0.0
H3331 H 0.72198 0.81762 0.36908 0.0
H3332 H 0.70513 0.80831 0.41539 0.0
H3333 H 0.75288 0.82831 0.41168 0.0
H3334 H 0.74091 0.83274 0.40321 0.0
H3335 H 0.74748 0.81947 0.39833 0.0
C3336 C 0.70547 0.83248 0.3904 0.0
C3337 C 0.7098 0.82872 0.37887 0.0
C3338 C 0.70979 0.82838 0.40066 0.0
C3339 C 0.71856 0.8205 0.39959 0.0
C3340 C 0.72281 0.81665 0.38809 0.0
H3341 H 0.75406 0.78214 0.44827 0.0
H3342 H 0.74646 0.79033 0.43093 0.0
C3343 C 0.71852 0.82075 0.37783 0.0
C3344 C 0.72298 0.81604 0.41047 0.0
H3345 H 0.74853 0.81432 0.42608 0.0
C3346 C 0.7146 0.80969 0.41779 0.0
C3347 C 0.73534 0.81785 0.41356 0.0
C3348 C 0.74467 0.82506 0.40636 0.0
C3349 C 0.7183 0.80486 0.42796 0.0
C3350 C 0.73068 0.80659 0.43098 0.0
C3351 C 0.73905 0.813 0.42372 0.0
C3352 C 0.73517 0.80166 0.44154 0.0
C3353 C 0.709 0.79769 0.43522 0.0
C3354 C 0.73143 0.80542 0.45326 0.0
C3355 C 0.73571 0.80072 0.46319 0.0
C3356 C 0.74383 0.79219 0.46157 0.0
C3357 C 0.74766 0.78855 0.44981 0.0
C3358 C 0.7434 0.79328 0.4399 0.0
H3359 H 0.70051 0.79493 0.43018 0.0
H3360 H 0.71259 0.7897 0.43783 0.0
H3361 H 0.70673 0.80309 0.44359 0.0
H3362 H 0.72523 0.81203 0.45472 0.0
H3363 H 0.73254 0.80366 0.47212 0.0
H3364 H 0.6933 0.20143 0.39707 0.0
H3365 H 0.7055 0.20644 0.41505 0.0
H3366 H 0.73247 0.18529 0.39937 0.0
H3367 H 0.72039 0.18032 0.38118 0.0
H3368 H 0.71338 0.19157 0.4308 0.0
H3369 H 0.75213 0.21726 0.40889 0.0
H3370 H 0.7377 0.21325 0.40172 0.0
H3371 H 0.74809 0.20249 0.40218 0.0
C3372 C 0.70183 0.19783 0.3974 0.0
C3373 C 0.7059 0.19052 0.38764 0.0
C3374 C 0.70878 0.2007 0.40771 0.0
C3375 C 0.71995 0.19636 0.40847 0.0
C3376 C 0.72398 0.1889 0.39886 0.0
H3377 H 0.77259 0.21155 0.46641 0.0
H3378 H 0.76179 0.20278 0.44826 0.0
C3379 C 0.71703 0.18603 0.3885 0.0
C3380 C 0.72727 0.19969 0.4194 0.0
H3381 H 0.75374 0.21515 0.42958 0.0
C3382 C 0.72223 0.19668 0.43053 0.0
C3383 C 0.73883 0.20632 0.419 0.0
C3384 C 0.74451 0.21012 0.40734 0.0
C3385 C 0.72837 0.20024 0.44131 0.0
C3386 C 0.73977 0.20714 0.44094 0.0
C3387 C 0.74498 0.20987 0.4298 0.0
C3388 C 0.74615 0.21212 0.45207 0.0
C3389 C 0.72261 0.19663 0.45301 0.0
C3390 C 0.74096 0.22034 0.46013 0.0
C3391 C 0.74707 0.22534 0.47047 0.0
C3392 C 0.75853 0.22224 0.47293 0.0
C3393 C 0.76371 0.214 0.46483 0.0
C3394 C 0.7576 0.20903 0.45444 0.0
H3395 H 0.71565 0.18886 0.4515 0.0
H3396 H 0.72952 0.1945 0.45917 0.0
H3397 H 0.71811 0.20403 0.45753 0.0
H3398 H 0.73221 0.22297 0.45835 0.0
H3399 H 0.7428 0.23159 0.47658 0.0
H3400 H 0.34214 0.21736 0.37319 0.0
H3401 H 0.33491 0.22695 0.39209 0.0
H3402 H 0.31348 0.24718 0.37235 0.0
H3403 H 0.3206 0.23759 0.35333 0.0
H3404 H 0.33542 0.25187 0.40082 0.0
H3405 H 0.28896 0.2283 0.39449 0.0
H3406 H 0.3019 0.22373 0.38596 0.0
H3407 H 0.29528 0.23642 0.38233 0.0
C3408 C 0.33597 0.22393 0.37283 0.0
C3409 C 0.33184 0.22662 0.36174 0.0
C3410 C 0.33188 0.22941 0.38365 0.0
C3411 C 0.32355 0.23763 0.38358 0.0
C3412 C 0.3198 0.24074 0.37255 0.0
H3413 H 0.28119 0.26677 0.44383 0.0
H3414 H 0.29021 0.26263 0.42381 0.0
C3415 C 0.32391 0.23528 0.36171 0.0
C3416 C 0.31835 0.24244 0.39509 0.0
H3417 H 0.29236 0.24104 0.41216 0.0
C3418 C 0.32599 0.24959 0.4033 0.0
C3419 C 0.30605 0.23942 0.39824 0.0
C3420 C 0.29754 0.23148 0.38987 0.0
C3421 C 0.32165 0.25378 0.41466 0.0
C3422 C 0.30942 0.25048 0.41794 0.0
C3423 C 0.30173 0.24355 0.40961 0.0
C3424 C 0.30449 0.25368 0.43014 0.0
C3425 C 0.33017 0.26173 0.42298 0.0
C3426 C 0.30949 0.24995 0.44032 0.0
C3427 C 0.30436 0.2523 0.45174 0.0
C3428 C 0.29403 0.25828 0.45318 0.0
C3429 C 0.28907 0.26204 0.44298 0.0
C3430 C 0.29425 0.25974 0.43156 0.0
H3431 H 0.33779 0.26629 0.41791 0.0
H3432 H 0.32538 0.26847 0.42837 0.0
H3433 H 0.33407 0.25635 0.42929 0.0
H3434 H 0.31718 0.24497 0.43939 0.0
H3435 H 0.30826 0.24913 0.45941 0.0
H3436 H 0.32563 0.81815 0.38221 0.0
H3437 H 0.31625 0.80891 0.39964 0.0
H3438 H 0.34683 0.82381 0.42122 0.0
H3439 H 0.35622 0.83312 0.40393 0.0
H3440 H 0.32648 0.79248 0.41235 0.0
H3441 H 0.31771 0.83199 0.44256 0.0
H3442 H 0.32068 0.83247 0.42659 0.0
H3443 H 0.33295 0.83248 0.4367 0.0
C3444 C 0.33028 0.8196 0.3907 0.0
C3445 C 0.34168 0.8264 0.39167 0.0
C3446 C 0.32492 0.81429 0.40065 0.0
C3447 C 0.33078 0.81578 0.41176 0.0
C3448 C 0.34204 0.82272 0.4128 0.0
H3449 H 0.32102 0.78832 0.48118 0.0
H3450 H 0.32773 0.79862 0.46354 0.0
C3451 C 0.34743 0.82799 0.40287 0.0
C3452 C 0.32553 0.8095 0.42207 0.0
H3453 H 0.31608 0.81378 0.45141 0.0
C3454 C 0.32408 0.79712 0.42086 0.0
C3455 C 0.32247 0.81558 0.43317 0.0
C3456 C 0.32342 0.82886 0.43485 0.0
C3457 C 0.32001 0.79066 0.43057 0.0
C3458 C 0.31707 0.79674 0.44172 0.0
C3459 C 0.31836 0.80913 0.44287 0.0
C3460 C 0.31289 0.79044 0.45238 0.0
C3461 C 0.31931 0.77738 0.42892 0.0
C3462 C 0.30224 0.7825 0.45203 0.0
C3463 C 0.29845 0.77649 0.46206 0.0
C3464 C 0.30518 0.77837 0.47271 0.0
C3465 C 0.31574 0.78648 0.47308 0.0
C3466 C 0.31953 0.79246 0.46303 0.0
H3467 H 0.32478 0.77431 0.421 0.0
H3468 H 0.32249 0.77388 0.43704 0.0
H3469 H 0.30976 0.77359 0.42743 0.0
H3470 H 0.29684 0.78096 0.44399 0.0
H3471 H 0.29033 0.77025 0.46141 0.0
H3472 H 0.6561 0.19578 0.71932 0.0
H3473 H 0.63827 0.20337 0.72919 0.0
H3474 H 0.62059 0.20005 0.69495 0.0
H3475 H 0.63824 0.19237 0.68506 0.0
H3476 H 0.6284 0.22359 0.72456 0.0
H3477 H 0.59462 0.18417 0.71663 0.0
H3478 H 0.61072 0.18348 0.71498 0.0
H3479 H 0.60249 0.18835 0.70314 0.0
C3480 C 0.64836 0.19653 0.71391 0.0
C3481 C 0.6486 0.19344 0.7014 0.0
C3482 C 0.63819 0.20089 0.71957 0.0
C3483 C 0.62804 0.20213 0.71283 0.0
C3484 C 0.62822 0.19894 0.70037 0.0
H3485 H 0.57216 0.24771 0.72681 0.0
H3486 H 0.58996 0.23813 0.7201 0.0
C3487 C 0.63836 0.19462 0.69472 0.0
C3488 C 0.6175 0.20736 0.71865 0.0
H3489 H 0.58681 0.20244 0.72253 0.0
C3490 C 0.61932 0.21892 0.72423 0.0
C3491 C 0.60568 0.20122 0.71834 0.0
C3492 C 0.60324 0.18857 0.71306 0.0
C3493 C 0.60958 0.22466 0.72911 0.0
C3494 C 0.59769 0.21873 0.72824 0.0
C3495 C 0.59592 0.20702 0.72306 0.0
C3496 C 0.58694 0.22461 0.73245 0.0
C3497 C 0.61212 0.23702 0.73518 0.0
C3498 C 0.57917 0.22003 0.74143 0.0
C3499 C 0.56897 0.22549 0.7453 0.0
C3500 C 0.5663 0.23561 0.74021 0.0
C3501 C 0.57406 0.24008 0.73111 0.0
C3502 C 0.58425 0.23462 0.72725 0.0
H3503 H 0.62168 0.23901 0.73806 0.0
H3504 H 0.61048 0.24341 0.72873 0.0
H3505 H 0.60608 0.23836 0.74317 0.0
H3506 H 0.58106 0.21228 0.74553 0.0
H3507 H 0.56327 0.22188 0.75241 0.0
H3508 H 0.31673 0.14169 0.68039 0.0
H3509 H 0.3057 0.12575 0.69091 0.0
H3510 H 0.33921 0.11173 0.69602 0.0
H3511 H 0.3503 0.12758 0.68564 0.0
H3512 H 0.30477 0.10043 0.68621 0.0
H3513 H 0.32464 0.11741 0.73046 0.0
H3514 H 0.32521 0.12625 0.71788 0.0
H3515 H 0.33561 0.11551 0.7185 0.0
C3516 C 0.32174 0.13517 0.68369 0.0
C3517 C 0.33441 0.13597 0.68228 0.0
C3518 C 0.31542 0.12608 0.68968 0.0
C3519 C 0.32168 0.1177 0.6944 0.0
C3520 C 0.33425 0.11824 0.69263 0.0
H3521 H 0.29881 0.05028 0.72042 0.0
H3522 H 0.30611 0.06663 0.7086 0.0
C3523 C 0.34056 0.12729 0.68665 0.0
C3524 C 0.31518 0.10851 0.70142 0.0
H3525 H 0.3139 0.09813 0.72913 0.0
C3526 C 0.30667 0.09995 0.69561 0.0
C3527 C 0.31757 0.10804 0.71373 0.0
C3528 C 0.32617 0.11735 0.72057 0.0
C3529 C 0.30079 0.09067 0.70172 0.0
C3530 C 0.30362 0.08989 0.71388 0.0
C3531 C 0.31182 0.09869 0.71978 0.0
C3532 C 0.29846 0.07988 0.72061 0.0
C3533 C 0.29158 0.0818 0.69513 0.0
C3534 C 0.29188 0.08193 0.73138 0.0
C3535 C 0.28771 0.0726 0.73818 0.0
C3536 C 0.29011 0.06105 0.73436 0.0
C3537 C 0.29662 0.05903 0.72351 0.0
C3538 C 0.30079 0.06836 0.71672 0.0
H3539 H 0.28797 0.08541 0.68727 0.0
H3540 H 0.29595 0.07389 0.69174 0.0
H3541 H 0.28391 0.07898 0.7012 0.0
H3542 H 0.29003 0.09077 0.73456 0.0
H3543 H 0.2826 0.07443 0.74643 0.0
H3544 H 0.4004 0.84189 0.71665 0.0
H3545 H 0.41645 0.83356 0.72627 0.0
H3546 H 0.44142 0.84363 0.69772 0.0
H3547 H 0.42553 0.85222 0.6882 0.0
H3548 H 0.4288 0.81564 0.71737 0.0
H3549 H 0.4608 0.85608 0.72735 0.0
H3550 H 0.44536 0.85652 0.72308 0.0
H3551 H 0.45677 0.8536 0.71178 0.0
C3552 C 0.40934 0.84244 0.71248 0.0
C3553 C 0.41171 0.84777 0.70169 0.0
C3554 C 0.41849 0.83767 0.71798 0.0
C3555 C 0.43018 0.83813 0.71281 0.0
C3556 C 0.43256 0.84343 0.70203 0.0
H3557 H 0.48429 0.79253 0.72489 0.0
H3558 H 0.46857 0.8026 0.71685 0.0
C3559 C 0.42343 0.84827 0.69656 0.0
C3560 C 0.43969 0.83254 0.71836 0.0
H3561 H 0.46844 0.83776 0.72907 0.0
C3562 C 0.43744 0.82049 0.72001 0.0
C3563 C 0.45089 0.83892 0.72194 0.0
C3564 C 0.45357 0.85202 0.72107 0.0
C3565 C 0.44618 0.81459 0.72489 0.0
C3566 C 0.45759 0.82084 0.72795 0.0
C3567 C 0.45975 0.83295 0.72657 0.0
C3568 C 0.46737 0.81498 0.73265 0.0
C3569 C 0.44305 0.80174 0.72687 0.0
C3570 C 0.4722 0.81887 0.74402 0.0
C3571 C 0.48124 0.81318 0.74859 0.0
C3572 C 0.48562 0.80352 0.74186 0.0
C3573 C 0.48094 0.79982 0.73037 0.0
C3574 C 0.47195 0.80555 0.72578 0.0
H3575 H 0.4331 0.79922 0.72732 0.0
H3576 H 0.44675 0.79623 0.71924 0.0
H3577 H 0.44702 0.79968 0.73532 0.0
H3578 H 0.46882 0.82617 0.74944 0.0
H3579 H 0.48459 0.81617 0.75751 0.0
H3580 H 0.74926 0.86217 0.72876 0.0
H3581 H 0.75792 0.88263 0.73369 0.0
H3582 H 0.74088 0.89284 0.70275 0.0
H3583 H 0.73186 0.87248 0.69798 0.0
H3584 H 0.77265 0.89899 0.72234 0.0
H3585 H 0.72688 0.9132 0.72996 0.0
H3586 H 0.72932 0.89789 0.72779 0.0
H3587 H 0.72928 0.90639 0.71505 0.0
C3588 C 0.74747 0.86874 0.72292 0.0
C3589 C 0.73972 0.86574 0.71309 0.0
C3590 C 0.75243 0.88043 0.72575 0.0
C3591 C 0.74979 0.8893 0.71876 0.0
C3592 C 0.74274 0.88619 0.70847 0.0
H3593 H 0.78392 0.96249 0.7291 0.0
H3594 H 0.77812 0.94201 0.72101 0.0
C3595 C 0.73765 0.87454 0.70572 0.0
C3596 C 0.75387 0.90184 0.72265 0.0
H3597 H 0.74342 0.92819 0.73131 0.0
C3598 C 0.76628 0.9054 0.72429 0.0
C3599 C 0.74551 0.91013 0.72538 0.0
C3600 C 0.732 0.90671 0.72458 0.0
C3601 C 0.77055 0.91703 0.72859 0.0
C3602 C 0.76221 0.92537 0.73104 0.0
C3603 C 0.74982 0.92181 0.72934 0.0
C3604 C 0.76598 0.93772 0.73589 0.0
C3605 C 0.78391 0.92015 0.73084 0.0
C3606 C 0.76085 0.94219 0.74678 0.0
C3607 C 0.76399 0.9539 0.75129 0.0
C3608 C 0.77237 0.96136 0.74504 0.0
C3609 C 0.77754 0.95688 0.73416 0.0
C3610 C 0.77429 0.94518 0.72957 0.0
H3611 H 0.78848 0.91218 0.73164 0.0
H3612 H 0.78821 0.92467 0.72317 0.0
H3613 H 0.78548 0.92619 0.73919 0.0
H3614 H 0.75442 0.9366 0.7518 0.0
H3615 H 0.75997 0.95709 0.75976 0.0
H3616 H 0.64497 0.83121 0.35367 0.0
H3617 H 0.62627 0.81938 0.34665 0.0
H3618 H 0.64287 0.81254 0.31164 0.0
H3619 H 0.66159 0.82418 0.31859 0.0
H3620 H 0.61245 0.82423 0.3282 0.0
H3621 H 0.62717 0.77986 0.3184 0.0
H3622 H 0.63588 0.79158 0.32753 0.0
H3623 H 0.63683 0.791 0.31135 0.0
C3624 C 0.6447 0.82703 0.34454 0.0
C3625 C 0.65477 0.82865 0.33669 0.0
C3626 C 0.63401 0.82028 0.34054 0.0
C3627 C 0.63323 0.81495 0.32867 0.0
C3628 C 0.64335 0.81635 0.32091 0.0
H3629 H 0.5729 0.79796 0.28201 0.0
H3630 H 0.59083 0.80642 0.29334 0.0
C3631 C 0.65403 0.82309 0.32489 0.0
C3632 C 0.62158 0.80878 0.32404 0.0
H3633 H 0.60877 0.78308 0.30916 0.0
C3634 C 0.61159 0.81518 0.32419 0.0
C3635 C 0.62043 0.79693 0.31894 0.0
C3636 C 0.63062 0.7894 0.31914 0.0
C3637 C 0.60065 0.81022 0.31888 0.0
C3638 C 0.59975 0.79863 0.31311 0.0
C3639 C 0.60954 0.79203 0.31345 0.0
C3640 C 0.5889 0.79339 0.30627 0.0
C3641 C 0.59018 0.81748 0.31941 0.0
C3642 C 0.58206 0.78308 0.30959 0.0
C3643 C 0.57185 0.77815 0.30305 0.0
C3644 C 0.56839 0.78339 0.293 0.0
C3645 C 0.57538 0.79365 0.28964 0.0
C3646 C 0.58554 0.79857 0.29618 0.0
H3647 H 0.59109 0.82461 0.32693 0.0
H3648 H 0.58997 0.82167 0.31087 0.0
H3649 H 0.58143 0.81189 0.32052 0.0
H3650 H 0.58457 0.77889 0.31729 0.0
H3651 H 0.56674 0.77016 0.30578 0.0
H3652 H 0.69352 0.13313 0.34161 0.0
H3653 H 0.70168 0.11575 0.33167 0.0
H3654 H 0.72245 0.13752 0.30716 0.0
H3655 H 0.71458 0.15499 0.31725 0.0
H3656 H 0.70032 0.10585 0.30849 0.0
H3657 H 0.74826 0.12047 0.32015 0.0
H3658 H 0.73591 0.12775 0.32693 0.0
H3659 H 0.7415 0.13073 0.3121 0.0
C3660 C 0.69983 0.13422 0.33411 0.0
C3661 C 0.70349 0.14545 0.33028 0.0
C3662 C 0.70448 0.12428 0.32843 0.0
C3663 C 0.71285 0.12537 0.31882 0.0
C3664 C 0.71625 0.13652 0.31476 0.0
H3665 H 0.7499 0.07386 0.274 0.0
H3666 H 0.74078 0.09149 0.28201 0.0
C3667 C 0.71168 0.14648 0.32049 0.0
C3668 C 0.71796 0.11481 0.31306 0.0
H3669 H 0.7445 0.10311 0.30679 0.0
C3670 C 0.70998 0.10524 0.30814 0.0
C3671 C 0.73057 0.11403 0.31264 0.0
C3672 C 0.73956 0.12374 0.31834 0.0
C3673 C 0.71428 0.09495 0.30272 0.0
C3674 C 0.72686 0.09421 0.30228 0.0
C3675 C 0.73485 0.10378 0.3071 0.0
C3676 C 0.73191 0.08342 0.29718 0.0
C3677 C 0.70537 0.08496 0.29741 0.0
C3678 C 0.72994 0.07311 0.30311 0.0
C3679 C 0.73516 0.06307 0.29859 0.0
C3680 C 0.74241 0.06317 0.28805 0.0
C3681 C 0.74425 0.07349 0.28206 0.0
C3682 C 0.73911 0.08357 0.28665 0.0
H3683 H 0.69631 0.0878 0.29629 0.0
H3684 H 0.70871 0.08131 0.28851 0.0
H3685 H 0.70436 0.07778 0.30348 0.0
H3686 H 0.72452 0.07289 0.31133 0.0
H3687 H 0.73352 0.05521 0.30334 0.0
H3688 H 0.36861 0.23877 0.30111 0.0
H3689 H 0.38956 0.24575 0.29574 0.0
H3690 H 0.40204 0.21811 0.31393 0.0
H3691 H 0.38116 0.21098 0.31921 0.0
H3692 H 0.40898 0.2535 0.31125 0.0
H3693 H 0.41838 0.21446 0.28059 0.0
H3694 H 0.40323 0.2172 0.28528 0.0
H3695 H 0.41265 0.21099 0.2952 0.0
C3696 C 0.3758 0.23413 0.30391 0.0
C3697 C 0.37322 0.22428 0.31053 0.0
C3698 C 0.38776 0.23815 0.30085 0.0
C3699 C 0.39732 0.23234 0.30429 0.0
C3700 C 0.39477 0.22257 0.31098 0.0
H3701 H 0.47533 0.24194 0.29723 0.0
H3702 H 0.45416 0.23581 0.30249 0.0
C3703 C 0.38283 0.21854 0.31404 0.0
C3704 C 0.40998 0.23666 0.30116 0.0
H3705 H 0.43526 0.22845 0.28619 0.0
C3706 C 0.41472 0.24807 0.3057 0.0
C3707 C 0.41742 0.22953 0.29393 0.0
C3708 C 0.41265 0.2174 0.28837 0.0
C3709 C 0.42683 0.25245 0.30345 0.0
C3710 C 0.43429 0.24527 0.29632 0.0
C3711 C 0.42952 0.2339 0.2917 0.0
C3712 C 0.4471 0.24936 0.29352 0.0
C3713 C 0.43161 0.26459 0.30895 0.0
C3714 C 0.45011 0.25899 0.28671 0.0
C3715 C 0.46219 0.26248 0.28365 0.0
C3716 C 0.47146 0.25635 0.28729 0.0
C3717 C 0.46839 0.24676 0.29418 0.0
C3718 C 0.45632 0.24328 0.29724 0.0
H3719 H 0.42569 0.26776 0.31647 0.0
H3720 H 0.44089 0.26469 0.31238 0.0
H3721 H 0.43203 0.27089 0.30197 0.0
H3722 H 0.4431 0.26364 0.28355 0.0
H3723 H 0.46424 0.26978 0.27816 0.0
H3724 H 0.33392 0.87347 0.30807 0.0
H3725 H 0.32819 0.89038 0.29876 0.0
H3726 H 0.34312 0.91373 0.32868 0.0
H3727 H 0.34924 0.89692 0.33784 0.0
H3728 H 0.31299 0.90562 0.3063 0.0
H3729 H 0.35848 0.93023 0.30105 0.0
H3730 H 0.35633 0.91524 0.30499 0.0
H3731 H 0.35505 0.92731 0.31636 0.0
C3732 C 0.33608 0.88222 0.31263 0.0
C3733 C 0.34211 0.88385 0.32367 0.0
C3734 C 0.33278 0.89188 0.30729 0.0
C3735 C 0.3354 0.90338 0.31289 0.0
C3736 C 0.3413 0.90501 0.324 0.0
H3737 H 0.29854 0.96283 0.29748 0.0
H3738 H 0.30564 0.9462 0.30621 0.0
C3739 C 0.34472 0.89536 0.32927 0.0
C3740 C 0.33153 0.91357 0.30734 0.0
H3741 H 0.34166 0.94067 0.29819 0.0
C3742 C 0.31928 0.91325 0.30446 0.0
C3743 C 0.33975 0.92347 0.30476 0.0
C3744 C 0.35315 0.92405 0.30683 0.0
C3745 C 0.315 0.9226 0.29928 0.0
C3746 C 0.32312 0.93274 0.29723 0.0
C3747 C 0.3354 0.93298 0.2999 0.0
C3748 C 0.31908 0.94312 0.29218 0.0
C3749 C 0.30187 0.92138 0.29582 0.0
C3750 C 0.32459 0.94727 0.28166 0.0
C3751 C 0.32066 0.95689 0.27676 0.0
C3752 C 0.31111 0.96254 0.28227 0.0
C3753 C 0.30577 0.95853 0.29293 0.0
C3754 C 0.30979 0.94899 0.29789 0.0
H3755 H 0.29795 0.91198 0.29452 0.0
H3756 H 0.29661 0.9258 0.30314 0.0
H3757 H 0.30075 0.92552 0.28739 0.0
H3758 H 0.33181 0.94293 0.27712 0.0
H3759 H 0.3249 0.95974 0.2685 0.0
H3760 H 0.70434 0.12538 0.70112 0.0
H3761 H 0.71357 0.10966 0.70938 0.0
H3762 H 0.74077 0.13546 0.72633 0.0
H3763 H 0.73142 0.15124 0.71838 0.0
H3764 H 0.73583 0.10277 0.7061 0.0
H3765 H 0.72867 0.11727 0.75436 0.0
H3766 H 0.72149 0.12332 0.74248 0.0
H3767 H 0.73695 0.12851 0.74625 0.0
C3768 C 0.71226 0.12772 0.70664 0.0
C3769 C 0.71709 0.13958 0.70916 0.0
C3770 C 0.71754 0.11871 0.71135 0.0
C3771 C 0.72774 0.12138 0.71867 0.0
C3772 C 0.73272 0.1332 0.72098 0.0
H3773 H 0.77612 0.07107 0.73521 0.0
H3774 H 0.76674 0.08674 0.72713 0.0
C3775 C 0.7274 0.14221 0.71635 0.0
C3776 C 0.73326 0.11177 0.72368 0.0
H3777 H 0.74153 0.10223 0.74996 0.0
C3778 C 0.73703 0.10263 0.7157 0.0
C3779 C 0.73467 0.11148 0.73622 0.0
C3780 C 0.73012 0.1206 0.74534 0.0
C3781 C 0.74233 0.09331 0.71988 0.0
C3782 C 0.74418 0.09327 0.73238 0.0
C3783 C 0.74024 0.10232 0.74037 0.0
C3784 C 0.75 0.08384 0.73739 0.0
C3785 C 0.74565 0.08347 0.71088 0.0
C3786 C 0.7439 0.07724 0.74616 0.0
C3787 C 0.74935 0.06842 0.75099 0.0
C3788 C 0.76104 0.066 0.74716 0.0
C3789 C 0.76716 0.07272 0.73845 0.0
C3790 C 0.76173 0.0816 0.73368 0.0
H3791 H 0.74051 0.08302 0.70242 0.0
H3792 H 0.75543 0.08508 0.70853 0.0
H3793 H 0.74389 0.0748 0.71464 0.0
H3794 H 0.73489 0.07888 0.74924 0.0
H3795 H 0.74444 0.06361 0.75784 0.0
H3796 H 0.70115 0.89261 0.35077 0.0
H3797 H 0.71219 0.90998 0.3427 0.0
H3798 H 0.73647 0.88807 0.32322 0.0
H3799 H 0.72548 0.87061 0.33118 0.0
H3800 H 0.73786 0.91921 0.34337 0.0
H3801 H 0.72109 0.90502 0.29712 0.0
H3802 H 0.71425 0.89876 0.31029 0.0
H3803 H 0.72833 0.8944 0.30424 0.0
C3804 C 0.70891 0.89148 0.34486 0.0
C3805 C 0.71236 0.88019 0.34153 0.0
C3806 C 0.71521 0.90142 0.34028 0.0
C3807 C 0.72501 0.90026 0.33225 0.0
C3808 C 0.72881 0.8891 0.32929 0.0
H3809 H 0.76494 0.9502 0.28736 0.0
H3810 H 0.75776 0.93273 0.2977 0.0
C3811 C 0.72254 0.87915 0.33389 0.0
C3812 C 0.73089 0.91065 0.32655 0.0
H3813 H 0.73454 0.92251 0.2996 0.0
C3814 C 0.73718 0.91995 0.3338 0.0
C3815 C 0.72997 0.91155 0.31407 0.0
C3816 C 0.72298 0.90196 0.30594 0.0
C3817 C 0.74266 0.93013 0.32885 0.0
C3818 C 0.74157 0.93111 0.31639 0.0
C3819 C 0.73538 0.92174 0.30914 0.0
C3820 C 0.74649 0.94187 0.31067 0.0
C3821 C 0.74971 0.93966 0.33698 0.0
C3822 C 0.74249 0.95279 0.31451 0.0
C3823 C 0.74658 0.96278 0.30863 0.0
C3824 C 0.75462 0.96199 0.2987 0.0
C3825 C 0.75865 0.95105 0.29491 0.0
C3826 C 0.75461 0.94109 0.30084 0.0
H3827 H 0.75272 0.93615 0.34519 0.0
H3828 H 0.75778 0.94381 0.33222 0.0
H3829 H 0.74383 0.94659 0.33992 0.0
H3830 H 0.73597 0.95353 0.32187 0.0
H3831 H 0.74316 0.97103 0.31163 0.0
H3832 H 0.64974 0.22499 0.35531 0.0
H3833 H 0.63451 0.23202 0.34341 0.0
H3834 H 0.63391 0.20066 0.31868 0.0
H3835 H 0.64908 0.19344 0.33063 0.0
H3836 H 0.63595 0.23643 0.31907 0.0
H3837 H 0.59802 0.20193 0.32795 0.0
H3838 H 0.61157 0.20444 0.33679 0.0
H3839 H 0.61174 0.19657 0.32207 0.0
C3840 C 0.64636 0.21955 0.34736 0.0
C3841 C 0.65058 0.20862 0.34395 0.0
C3842 C 0.63767 0.2236 0.34057 0.0
C3843 C 0.63299 0.21679 0.33027 0.0
C3844 C 0.63726 0.20594 0.32673 0.0
H3845 H 0.57793 0.23057 0.28102 0.0
H3846 H 0.59379 0.22196 0.29068 0.0
C3847 C 0.64596 0.20186 0.33354 0.0
C3848 C 0.62377 0.22123 0.32319 0.0
H3849 H 0.59427 0.21581 0.31463 0.0
C3850 C 0.62684 0.23192 0.31807 0.0
C3851 C 0.61192 0.21529 0.32188 0.0
C3852 C 0.60803 0.20397 0.32753 0.0
C3853 C 0.61835 0.23686 0.31171 0.0
C3854 C 0.60644 0.23104 0.31062 0.0
C3855 C 0.60343 0.22023 0.31551 0.0
C3856 C 0.59686 0.23625 0.30479 0.0
C3857 C 0.62223 0.24823 0.30614 0.0
C3858 C 0.59322 0.24702 0.30966 0.0
C3859 C 0.58413 0.25193 0.30423 0.0
C3860 C 0.57846 0.24611 0.29385 0.0
C3861 C 0.58204 0.23522 0.28907 0.0
C3862 C 0.59113 0.23032 0.29453 0.0
H3863 H 0.63222 0.24982 0.30496 0.0
H3864 H 0.618 0.24818 0.29725 0.0
H3865 H 0.6193 0.25569 0.31215 0.0
H3866 H 0.59734 0.25159 0.31774 0.0
H3867 H 0.58143 0.2602 0.30827 0.0
H3868 H 0.34409 0.16496 0.3076 0.0
H3869 H 0.33947 0.14517 0.29719 0.0
H3870 H 0.30867 0.13849 0.32098 0.0
H3871 H 0.31307 0.15821 0.33129 0.0
H3872 H 0.3383 0.12362 0.30691 0.0
H3873 H 0.29417 0.12914 0.28783 0.0
H3874 H 0.30465 0.1415 0.29368 0.0
H3875 H 0.29487 0.13321 0.30376 0.0
C3876 C 0.33628 0.1593 0.31055 0.0
C3877 C 0.32892 0.16317 0.32024 0.0
C3878 C 0.33367 0.14801 0.3046 0.0
C3879 C 0.32362 0.14045 0.30819 0.0
C3880 C 0.3163 0.14428 0.31788 0.0
H3881 H 0.2927 0.06846 0.29425 0.0
H3882 H 0.29848 0.08907 0.30169 0.0
C3883 C 0.31888 0.15554 0.32381 0.0
C3884 C 0.32102 0.12835 0.30221 0.0
H3885 H 0.29876 0.10933 0.28805 0.0
C3886 C 0.32972 0.12052 0.30264 0.0
C3887 C 0.30982 0.12436 0.29664 0.0
C3888 C 0.30039 0.13252 0.29533 0.0
C3889 C 0.32733 0.10865 0.29808 0.0
C3890 C 0.316 0.10459 0.29285 0.0
C3891 C 0.30741 0.11248 0.29215 0.0
C3892 C 0.31272 0.0921 0.28834 0.0
C3893 C 0.33675 0.10044 0.29925 0.0
C3894 C 0.31878 0.08703 0.27831 0.0
C3895 C 0.31544 0.07528 0.27398 0.0
C3896 C 0.30596 0.06841 0.27958 0.0
C3897 C 0.29993 0.07355 0.28964 0.0
C3898 C 0.30326 0.0853 0.29394 0.0
H3899 H 0.34401 0.1044 0.30555 0.0
H3900 H 0.33253 0.09201 0.30248 0.0
H3901 H 0.341 0.09839 0.29029 0.0
H3902 H 0.32597 0.09222 0.27375 0.0
H3903 H 0.32013 0.07166 0.26609 0.0
H3904 H 0.38357 0.81675 0.33685 0.0
H3905 H 0.40051 0.80904 0.32565 0.0
H3906 H 0.40352 0.83821 0.3037 0.0
H3907 H 0.38652 0.8461 0.31493 0.0
H3908 H 0.40213 0.80267 0.30021 0.0
H3909 H 0.43832 0.83808 0.31622 0.0
H3910 H 0.42381 0.83585 0.32387 0.0
H3911 H 0.42514 0.84272 0.31003 0.0
C3912 C 0.38783 0.82159 0.32968 0.0
C3913 C 0.38368 0.83209 0.32683 0.0
C3914 C 0.39751 0.81714 0.32327 0.0
C3915 C 0.40334 0.82311 0.31393 0.0
C3916 C 0.39925 0.83356 0.311 0.0
H3917 H 0.46713 0.80533 0.27111 0.0
H3918 H 0.44957 0.81483 0.27897 0.0
C3919 C 0.3895 0.83802 0.3174 0.0
C3920 C 0.41355 0.81816 0.30721 0.0
H3921 H 0.44416 0.82272 0.30256 0.0
C3922 C 0.41131 0.80708 0.30066 0.0
C3923 C 0.42551 0.82397 0.30777 0.0
C3924 C 0.42843 0.83578 0.3149 0.0
C3925 C 0.42073 0.80156 0.29476 0.0
C3926 C 0.43275 0.80717 0.29566 0.0
C3927 C 0.43495 0.81842 0.30192 0.0
C3928 C 0.44321 0.80128 0.29063 0.0
C3929 C 0.41769 0.78978 0.28758 0.0
C3930 C 0.44553 0.79057 0.29466 0.0
C3931 C 0.45549 0.78509 0.29013 0.0
C3932 C 0.46342 0.79025 0.28155 0.0
C3933 C 0.46111 0.80103 0.27758 0.0
C3934 C 0.45113 0.80651 0.28212 0.0
H3935 H 0.4081 0.78846 0.28474 0.0
H3936 H 0.42362 0.78893 0.27944 0.0
H3937 H 0.41903 0.78264 0.29326 0.0
H3938 H 0.43969 0.78649 0.3014 0.0
H3939 H 0.45692 0.77675 0.29331 0.0
H3940 H 0.36038 0.88659 0.71998 0.0
H3941 H 0.35247 0.90399 0.73034 0.0
H3942 H 0.31768 0.89291 0.71432 0.0
H3943 H 0.3254 0.8755 0.70411 0.0
H3944 H 0.34291 0.92184 0.71993 0.0
H3945 H 0.30875 0.89949 0.74981 0.0
H3946 H 0.32068 0.8921 0.74222 0.0
H3947 H 0.30725 0.89382 0.73429 0.0
C3948 C 0.35102 0.88781 0.71876 0.0
C3949 C 0.34351 0.87963 0.71126 0.0
C3950 C 0.34652 0.89775 0.72467 0.0
C3951 C 0.33444 0.89962 0.72325 0.0
C3952 C 0.32695 0.89149 0.71576 0.0
H3953 H 0.28752 0.95306 0.7393 0.0
H3954 H 0.29754 0.93572 0.73236 0.0
C3955 C 0.33141 0.88157 0.70987 0.0
C3956 C 0.32973 0.91035 0.72907 0.0
H3957 H 0.30677 0.91962 0.74714 0.0
C3958 C 0.33512 0.92139 0.72602 0.0
C3959 C 0.31957 0.90971 0.73702 0.0
C3960 C 0.31379 0.89815 0.74113 0.0
C3961 C 0.33028 0.93179 0.73029 0.0
C3962 C 0.31989 0.9311 0.73791 0.0
C3963 C 0.3147 0.92009 0.74123 0.0
C3964 C 0.31397 0.94164 0.74217 0.0
C3965 C 0.33603 0.9434 0.72625 0.0
C3966 C 0.31988 0.95064 0.75005 0.0
C3967 C 0.3142 0.96058 0.75399 0.0
C3968 C 0.30251 0.96166 0.75012 0.0
C3969 C 0.2966 0.95256 0.74229 0.0
C3970 C 0.30227 0.94263 0.73839 0.0
H3971 H 0.34251 0.94216 0.7186 0.0
H3972 H 0.329 0.94865 0.72352 0.0
H3973 H 0.34102 0.94856 0.73386 0.0
H3974 H 0.32887 0.94996 0.75317 0.0
H3975 H 0.31902 0.96748 0.75996 0.0
H3976 H 0.68827 0.82651 0.74875 0.0
H3977 H 0.66735 0.81859 0.75281 0.0
H3978 H 0.66757 0.79515 0.72018 0.0
H3979 H 0.6886 0.80298 0.71605 0.0
H3980 H 0.64799 0.81951 0.73702 0.0
H3981 H 0.65312 0.77354 0.74605 0.0
H3982 H 0.66566 0.78515 0.74673 0.0
H3983 H 0.66019 0.77844 0.73241 0.0
C3984 C 0.68394 0.81958 0.74249 0.0
C3985 C 0.69009 0.81539 0.73206 0.0
C3986 C 0.67198 0.81507 0.74483 0.0
C3987 C 0.66596 0.80624 0.73685 0.0
C3988 C 0.67213 0.80184 0.72655 0.0
H3989 H 0.5908 0.77384 0.73721 0.0
H3990 H 0.6122 0.77913 0.73207 0.0
C3991 C 0.68412 0.80636 0.72418 0.0
C3992 C 0.653 0.80226 0.73897 0.0
H3993 H 0.63316 0.77859 0.74566 0.0
C3994 C 0.64474 0.81056 0.73891 0.0
C3995 C 0.64881 0.79056 0.74132 0.0
C3996 C 0.65739 0.78139 0.74174 0.0
C3997 C 0.63237 0.8075 0.74119 0.0
C3998 C 0.6282 0.79588 0.74384 0.0
C3999 C 0.63642 0.7875 0.74366 0.0
C4000 C 0.61539 0.7924 0.74714 0.0
C4001 C 0.62385 0.81671 0.74063 0.0
C4002 C 0.61019 0.79795 0.75745 0.0
C4003 C 0.59802 0.79494 0.76041 0.0
C4004 C 0.59081 0.78626 0.75317 0.0
C4005 C 0.59613 0.78051 0.74301 0.0
C4006 C 0.60833 0.78354 0.74003 0.0
H4007 H 0.62783 0.82397 0.7353 0.0
H4008 H 0.61511 0.81278 0.73659 0.0
H4009 H 0.62197 0.8206 0.74989 0.0
H4010 H 0.61557 0.80461 0.76321 0.0
H4011 H 0.59426 0.79936 0.76844 0.0
H4012 H 0.3661 0.21526 0.6864 0.0
H4013 H 0.3846 0.22657 0.69453 0.0
H4014 H 0.40517 0.19856 0.68058 0.0
H4015 H 0.38678 0.18724 0.67234 0.0
H4016 H 0.39881 0.21872 0.71165 0.0
H4017 H 0.42592 0.22811 0.67043 0.0
H4018 H 0.40979 0.22368 0.67019 0.0
H4019 H 0.4201 0.21286 0.67085 0.0
C4020 C 0.37458 0.21158 0.68488 0.0
C4021 C 0.37495 0.20032 0.67873 0.0
C4022 C 0.38514 0.21806 0.68955 0.0
C4023 C 0.39627 0.21345 0.68805 0.0
C4024 C 0.39672 0.20237 0.68164 0.0
H4025 H 0.46804 0.22833 0.71628 0.0
H4026 H 0.4495 0.22077 0.70549 0.0
C4027 C 0.38617 0.19588 0.67699 0.0
C4028 C 0.4072 0.21973 0.69408 0.0
H4029 H 0.43651 0.23104 0.689 0.0
C4030 C 0.40702 0.22155 0.70671 0.0
C4031 C 0.41789 0.22335 0.68759 0.0
C4032 C 0.41845 0.22201 0.67401 0.0
C4033 C 0.41737 0.22654 0.71306 0.0
C4034 C 0.42813 0.23 0.70658 0.0
C4035 C 0.42825 0.22837 0.69394 0.0
C4036 C 0.43946 0.23493 0.7128 0.0
C4037 C 0.41683 0.22763 0.72665 0.0
C4038 C 0.44002 0.2455 0.72033 0.0
C4039 C 0.45057 0.24978 0.72662 0.0
C4040 C 0.46078 0.24361 0.72542 0.0
C4041 C 0.46028 0.23319 0.71759 0.0
C4042 C 0.44972 0.22891 0.71133 0.0
H4043 H 0.40891 0.22203 0.73017 0.0
H4044 H 0.42519 0.2251 0.73036 0.0
H4045 H 0.41603 0.23692 0.73002 0.0
H4046 H 0.43227 0.25039 0.72143 0.0
H4047 H 0.45062 0.25779 0.73263 0.0
H4048 H 0.69986 0.69428 0.15368 0.0
H4049 H 0.7114 0.70154 0.13644 0.0
H4050 H 0.7397 0.68049 0.14293 0.0
H4051 H 0.72808 0.67298 0.16014 0.0
H4052 H 0.7339 0.71407 0.13588 0.0
H4053 H 0.73329 0.67163 0.10723 0.0
H4054 H 0.72359 0.67341 0.12037 0.0
H4055 H 0.73923 0.67152 0.12201 0.0
C4056 C 0.70851 0.69112 0.15144 0.0
C4057 C 0.71301 0.68299 0.15829 0.0
C4058 C 0.71511 0.69531 0.14157 0.0
C4059 C 0.72635 0.69146 0.1383 0.0
C4060 C 0.73093 0.6834 0.14514 0.0
H4061 H 0.77675 0.72834 0.08872 0.0
H4062 H 0.76762 0.71943 0.1064 0.0
C4063 C 0.7243 0.67916 0.15501 0.0
C4064 C 0.7333 0.69617 0.12789 0.0
H4065 H 0.745 0.68822 0.10003 0.0
C4066 C 0.73636 0.70842 0.12806 0.0
C4067 C 0.7364 0.68879 0.11763 0.0
C4068 C 0.73288 0.67562 0.11669 0.0
C4069 C 0.74235 0.7135 0.11823 0.0
C4070 C 0.7456 0.70612 0.10805 0.0
C4071 C 0.7426 0.69386 0.1079 0.0
C4072 C 0.75156 0.71098 0.09722 0.0
C4073 C 0.74478 0.72677 0.1187 0.0
C4074 C 0.74578 0.70885 0.08608 0.0
C4075 C 0.75105 0.71377 0.07592 0.0
C4076 C 0.76224 0.72095 0.07667 0.0
C4077 C 0.76816 0.72282 0.08779 0.0
C4078 C 0.76289 0.71785 0.09794 0.0
H4079 H 0.73913 0.73116 0.12574 0.0
H4080 H 0.75442 0.72958 0.12086 0.0
H4081 H 0.743 0.72989 0.10988 0.0
H4082 H 0.73707 0.7035 0.08528 0.0
H4083 H 0.74635 0.71195 0.06746 0.0
H4084 H 0.31492 0.69947 0.13997 0.0
H4085 H 0.30804 0.70536 0.1211 0.0
H4086 H 0.33299 0.68452 0.10113 0.0
H4087 H 0.33978 0.67839 0.11995 0.0
H4088 H 0.3212 0.71732 0.1038 0.0
H4089 H 0.30119 0.67312 0.08426 0.0
H4090 H 0.30525 0.67609 0.09989 0.0
H4091 H 0.31672 0.67386 0.08848 0.0
C4092 C 0.31891 0.69608 0.13157 0.0
C4093 C 0.32786 0.6884 0.13146 0.0
C4094 C 0.31497 0.69947 0.12079 0.0
C4095 C 0.31987 0.69524 0.1097 0.0
C4096 C 0.3289 0.68768 0.10956 0.0
H4097 H 0.30634 0.70885 0.03587 0.0
H4098 H 0.31478 0.70249 0.05389 0.0
C4099 C 0.33282 0.68425 0.12034 0.0
C4100 C 0.31569 0.69898 0.09833 0.0
H4101 H 0.30208 0.68872 0.07169 0.0
C4102 C 0.31701 0.71107 0.09679 0.0
C4103 C 0.31025 0.6908 0.08918 0.0
C4104 C 0.30815 0.67775 0.09054 0.0
C4105 C 0.31306 0.7152 0.08632 0.0
C4106 C 0.30752 0.70703 0.07724 0.0
C4107 C 0.30635 0.69494 0.07869 0.0
C4108 C 0.30251 0.71092 0.06636 0.0
C4109 C 0.31494 0.72826 0.08502 0.0
C4110 C 0.29274 0.71763 0.06742 0.0
C4111 C 0.28793 0.72127 0.05719 0.0
C4112 C 0.29277 0.71823 0.04567 0.0
C4113 C 0.30251 0.71143 0.04462 0.0
C4114 C 0.30729 0.70775 0.05489 0.0
H4115 H 0.32193 0.73296 0.09123 0.0
H4116 H 0.31767 0.72998 0.07563 0.0
H4117 H 0.30631 0.73202 0.08719 0.0
H4118 H 0.28881 0.72003 0.07619 0.0
H4119 H 0.2805 0.7266 0.0583 0.0
H4120 H 0.36519 0.34145 0.14917 0.0
H4121 H 0.35675 0.32918 0.13159 0.0
H4122 H 0.34471 0.30125 0.15395 0.0
H4123 H 0.35286 0.31357 0.17166 0.0
H4124 H 0.36084 0.30753 0.12085 0.0
H4125 H 0.31354 0.3064 0.13838 0.0
H4126 H 0.32586 0.31619 0.14524 0.0
H4127 H 0.32361 0.30094 0.14818 0.0
C4128 C 0.36081 0.33267 0.15035 0.0
C4129 C 0.35957 0.32854 0.16185 0.0
C4130 C 0.356 0.32567 0.14029 0.0
C4131 C 0.34988 0.3144 0.14151 0.0
C4132 C 0.34912 0.31004 0.15286 0.0
H4133 H 0.32785 0.26309 0.08061 0.0
H4134 H 0.33787 0.27348 0.0985 0.0
C4135 C 0.35385 0.31707 0.16296 0.0
C4136 C 0.34404 0.30739 0.13093 0.0
H4137 H 0.31668 0.29458 0.12023 0.0
C4138 C 0.35119 0.30468 0.1207 0.0
C4139 C 0.33141 0.30384 0.13072 0.0
C4140 C 0.32312 0.30708 0.14116 0.0
C4141 C 0.34606 0.29849 0.11024 0.0
C4142 C 0.33348 0.2947 0.11014 0.0
C4143 C 0.32634 0.29741 0.12037 0.0
C4144 C 0.32743 0.28828 0.09936 0.0
C4145 C 0.35411 0.29639 0.09931 0.0
C4146 C 0.31799 0.29298 0.09412 0.0
C4147 C 0.31218 0.28701 0.08399 0.0
C4148 C 0.3157 0.27623 0.07891 0.0
C4149 C 0.32508 0.27148 0.08423 0.0
C4150 C 0.33083 0.27741 0.09442 0.0
H4151 H 0.36267 0.30248 0.09979 0.0
H4152 H 0.35648 0.28724 0.09875 0.0
H4153 H 0.34943 0.29751 0.09091 0.0
H4154 H 0.31521 0.30134 0.0978 0.0
H4155 H 0.30506 0.29094 0.08002 0.0
H4156 H 0.70769 0.31223 0.13665 0.0
H4157 H 0.71471 0.30344 0.11724 0.0
H4158 H 0.74097 0.28697 0.13526 0.0
H4159 H 0.73396 0.29564 0.15474 0.0
H4160 H 0.73851 0.30665 0.10733 0.0
H4161 H 0.72337 0.25957 0.11333 0.0
H4162 H 0.71771 0.27154 0.12267 0.0
H4163 H 0.73244 0.26745 0.12524 0.0
C4164 C 0.71491 0.30668 0.1365 0.0
C4165 C 0.72024 0.3046 0.14724 0.0
C4166 C 0.71891 0.30168 0.1254 0.0
C4167 C 0.72825 0.29445 0.12484 0.0
C4168 C 0.7336 0.29235 0.13553 0.0
H4169 H 0.76436 0.25752 0.06491 0.0
H4170 H 0.75822 0.26596 0.08485 0.0
C4171 C 0.72962 0.29737 0.14664 0.0
C4172 C 0.73264 0.28944 0.11302 0.0
H4173 H 0.73522 0.26352 0.09588 0.0
C4174 C 0.73777 0.29722 0.1048 0.0
C4175 C 0.73171 0.27714 0.10981 0.0
C4176 C 0.72592 0.26841 0.11816 0.0
C4177 C 0.7421 0.29303 0.09345 0.0
C4178 C 0.74104 0.28073 0.09017 0.0
C4179 C 0.73601 0.27295 0.09844 0.0
C4180 C 0.74487 0.27579 0.0781 0.0
C4181 C 0.74795 0.30179 0.08515 0.0
C4182 C 0.73931 0.27843 0.06774 0.0
C4183 C 0.74285 0.2737 0.05636 0.0
C4184 C 0.75196 0.26615 0.05513 0.0
C4185 C 0.75744 0.26343 0.06555 0.0
C4186 C 0.75389 0.26818 0.07694 0.0
H4187 H 0.75104 0.31043 0.09016 0.0
H4188 H 0.75581 0.29843 0.08018 0.0
H4189 H 0.74125 0.30329 0.07847 0.0
H4190 H 0.73218 0.28411 0.06847 0.0
H4191 H 0.73852 0.27604 0.04852 0.0
H4192 H 0.72601 0.31361 0.86385 0.0
H4193 H 0.73331 0.30314 0.87975 0.0
H4194 H 0.71075 0.32094 0.90583 0.0
H4195 H 0.7033 0.33137 0.88999 0.0
H4196 H 0.74519 0.31258 0.90124 0.0
H4197 H 0.70149 0.28585 0.9106 0.0
H4198 H 0.70423 0.29343 0.89715 0.0
H4199 H 0.70078 0.30145 0.91123 0.0
C4200 C 0.72258 0.31529 0.87296 0.0
C4201 C 0.71402 0.32328 0.87564 0.0
C4202 C 0.72677 0.30931 0.88203 0.0
C4203 C 0.72243 0.31114 0.89392 0.0
C4204 C 0.71403 0.31924 0.89667 0.0
H4205 H 0.73609 0.28322 0.96107 0.0
H4206 H 0.72899 0.29393 0.94525 0.0
C4207 C 0.70984 0.32524 0.88761 0.0
C4208 C 0.72681 0.30469 0.90347 0.0
H4209 H 0.71752 0.28496 0.92385 0.0
C4210 C 0.73917 0.3065 0.90616 0.0
C4211 C 0.7189 0.29679 0.90987 0.0
C4212 C 0.70563 0.29415 0.90703 0.0
C4213 C 0.74381 0.30078 0.91525 0.0
C4214 C 0.73591 0.29286 0.92164 0.0
C4215 C 0.72355 0.29105 0.91894 0.0
C4216 C 0.74027 0.28636 0.93117 0.0
C4217 C 0.75708 0.30344 0.91811 0.0
C4218 C 0.74883 0.27842 0.92844 0.0
C4219 C 0.75288 0.27227 0.93745 0.0
C4220 C 0.74836 0.27386 0.94933 0.0
C4221 C 0.73966 0.28171 0.95198 0.0
C4222 C 0.73564 0.28788 0.94298 0.0
H4223 H 0.76114 0.31185 0.9147 0.0
H4224 H 0.75849 0.30399 0.92797 0.0
H4225 H 0.76199 0.29626 0.91374 0.0
H4226 H 0.75231 0.27691 0.91932 0.0
H4227 H 0.75943 0.26613 0.93507 0.0
H4228 H 0.69295 0.70461 0.89256 0.0
H4229 H 0.70552 0.71094 0.91008 0.0
H4230 H 0.72779 0.68321 0.89989 0.0
H4231 H 0.7153 0.67684 0.88219 0.0
H4232 H 0.70969 0.69723 0.9289 0.0
H4233 H 0.75247 0.71306 0.90532 0.0
H4234 H 0.73805 0.71057 0.89793 0.0
H4235 H 0.74589 0.6983 0.90058 0.0
C4236 C 0.70055 0.69987 0.89397 0.0
C4237 C 0.70313 0.69022 0.88595 0.0
C4238 C 0.70772 0.7035 0.90401 0.0
C4239 C 0.71765 0.69762 0.9062 0.0
C4240 C 0.72028 0.68799 0.89823 0.0
H4241 H 0.7686 0.71124 0.96556 0.0
H4242 H 0.75779 0.70281 0.94733 0.0
C4243 C 0.7131 0.68433 0.88817 0.0
C4244 C 0.72493 0.70142 0.91708 0.0
H4245 H 0.75289 0.71382 0.92654 0.0
C4246 C 0.71915 0.70083 0.9284 0.0
C4247 C 0.73727 0.70604 0.91637 0.0
C4248 C 0.74381 0.70714 0.90441 0.0
C4249 C 0.72535 0.70483 0.93904 0.0
C4250 C 0.7376 0.70975 0.93832 0.0
C4251 C 0.74348 0.71007 0.92703 0.0
C4252 C 0.7443 0.71498 0.94919 0.0
C4253 C 0.71876 0.70372 0.95097 0.0
C4254 C 0.74043 0.72474 0.95611 0.0
C4255 C 0.74659 0.7296 0.96647 0.0
C4256 C 0.75681 0.72482 0.97008 0.0
C4257 C 0.76082 0.71518 0.96298 0.0
C4258 C 0.75463 0.71032 0.9526 0.0
H4259 H 0.71071 0.69696 0.95017 0.0
H4260 H 0.72482 0.70136 0.95785 0.0
H4261 H 0.71559 0.7123 0.95421 0.0
H4262 H 0.73263 0.72864 0.95346 0.0
H4263 H 0.74342 0.73717 0.9716 0.0
H4264 H 0.30089 0.74643 0.83918 0.0
H4265 H 0.29514 0.7418 0.8597 0.0
H4266 H 0.32346 0.71922 0.85921 0.0
H4267 H 0.32947 0.72406 0.8388 0.0
H4268 H 0.2884 0.71859 0.86874 0.0
H4269 H 0.32989 0.74376 0.88928 0.0
H4270 H 0.32506 0.74594 0.87443 0.0
H4271 H 0.33199 0.73303 0.87676 0.0
C4272 C 0.30584 0.74042 0.84342 0.0
C4273 C 0.3155 0.73545 0.83732 0.0
C4274 C 0.30253 0.73776 0.85511 0.0
C4275 C 0.3089 0.73021 0.86095 0.0
C4276 C 0.31845 0.7251 0.85484 0.0
H4277 H 0.30187 0.71824 0.93751 0.0
H4278 H 0.30825 0.71676 0.91623 0.0
C4279 C 0.32175 0.72773 0.84312 0.0
C4280 C 0.30573 0.72806 0.87357 0.0
H4281 H 0.31541 0.73496 0.90241 0.0
C4282 C 0.29433 0.72207 0.87611 0.0
C4283 C 0.31354 0.73255 0.88312 0.0
C4284 C 0.32579 0.73925 0.88085 0.0
C4285 C 0.29043 0.72063 0.88801 0.0
C4286 C 0.29803 0.72557 0.89761 0.0
C4287 C 0.30961 0.73119 0.89504 0.0
C4288 C 0.29383 0.7258 0.91035 0.0
C4289 C 0.2782 0.71388 0.8902 0.0
C4290 C 0.28369 0.73147 0.9141 0.0
C4291 C 0.28005 0.73234 0.92619 0.0
C4292 C 0.28654 0.72765 0.93483 0.0
C4293 C 0.29671 0.72198 0.93107 0.0
C4294 C 0.30034 0.72109 0.91893 0.0
H4295 H 0.27539 0.70755 0.88232 0.0
H4296 H 0.27819 0.70896 0.89829 0.0
H4297 H 0.27134 0.72016 0.89164 0.0
H4298 H 0.27875 0.73549 0.9077 0.0
H4299 H 0.27235 0.73701 0.92883 0.0
H4300 H 0.36209 0.32831 0.90289 0.0
H4301 H 0.35263 0.31893 0.9201 0.0
H4302 H 0.31768 0.31674 0.90384 0.0
H4303 H 0.3271 0.32605 0.88645 0.0
H4304 H 0.33413 0.32553 0.93629 0.0
H4305 H 0.32088 0.28238 0.91009 0.0
H4306 H 0.33156 0.29371 0.90434 0.0
H4307 H 0.31563 0.29493 0.90435 0.0
C4308 C 0.35238 0.3259 0.90296 0.0
C4309 C 0.34537 0.32786 0.89323 0.0
C4310 C 0.34699 0.32054 0.91283 0.0
C4311 C 0.33449 0.31698 0.91317 0.0
C4312 C 0.32738 0.31924 0.90366 0.0
H4313 H 0.29474 0.29259 0.97678 0.0
H4314 H 0.30175 0.30343 0.95954 0.0
C4315 C 0.33277 0.32463 0.89377 0.0
C4316 C 0.32903 0.3107 0.92339 0.0
H4317 H 0.31503 0.28406 0.93063 0.0
C4318 C 0.32989 0.31649 0.93506 0.0
C4319 C 0.32365 0.29884 0.92176 0.0
C4320 C 0.32293 0.29203 0.90948 0.0
C4321 C 0.32553 0.31074 0.94517 0.0
C4322 C 0.32005 0.29893 0.94352 0.0
C4323 C 0.31917 0.29314 0.93185 0.0
C4324 C 0.31559 0.29227 0.95384 0.0
C4325 C 0.32714 0.31724 0.95754 0.0
C4326 C 0.32085 0.28223 0.95618 0.0
C4327 C 0.3168 0.27596 0.96596 0.0
C4328 C 0.30735 0.27955 0.97355 0.0
C4329 C 0.30198 0.28953 0.97107 0.0
C4330 C 0.30605 0.29581 0.9613 0.0
H4331 H 0.33387 0.32522 0.95746 0.0
H4332 H 0.31836 0.32008 0.96086 0.0
H4333 H 0.3301 0.31143 0.964 0.0
H4334 H 0.32817 0.2793 0.95049 0.0
H4335 H 0.32101 0.26822 0.9675 0.0
H4336 H 0.63539 0.68433 0.18409 0.0
H4337 H 0.61824 0.69287 0.19413 0.0
H4338 H 0.6391 0.70231 0.2263 0.0
H4339 H 0.6564 0.69384 0.2163 0.0
H4340 H 0.60551 0.68762 0.21596 0.0
H4341 H 0.62797 0.73378 0.21833 0.0
H4342 H 0.63359 0.72196 0.20874 0.0
H4343 H 0.63618 0.72335 0.22465 0.0
C4344 C 0.63635 0.68817 0.19332 0.0
C4345 C 0.64732 0.68847 0.19936 0.0
C4346 C 0.62652 0.69304 0.19905 0.0
C4347 C 0.62746 0.69838 0.21089 0.0
C4348 C 0.63826 0.69841 0.21708 0.0
H4349 H 0.5772 0.73838 0.25457 0.0
H4350 H 0.59444 0.72808 0.24742 0.0
C4351 C 0.64811 0.6935 0.21137 0.0
C4352 C 0.61716 0.70406 0.21661 0.0
H4353 H 0.6084 0.73079 0.22699 0.0
C4354 C 0.60613 0.69705 0.2184 0.0
C4355 C 0.61802 0.71636 0.21981 0.0
C4356 C 0.62953 0.72436 0.21772 0.0
C4357 C 0.59594 0.70202 0.22335 0.0
C4358 C 0.59672 0.71436 0.22631 0.0
C4359 C 0.60781 0.72134 0.2247 0.0
C4360 C 0.58608 0.72027 0.23081 0.0
C4361 C 0.58447 0.69398 0.22547 0.0
C4362 C 0.57568 0.7194 0.22381 0.0
C4363 C 0.56577 0.72519 0.22792 0.0
C4364 C 0.56608 0.73208 0.23908 0.0
C4365 C 0.57656 0.733 0.24603 0.0
C4366 C 0.58646 0.72719 0.24192 0.0
H4367 H 0.58635 0.68477 0.22616 0.0
H4368 H 0.57966 0.69707 0.23383 0.0
H4369 H 0.57836 0.69387 0.21777 0.0
H4370 H 0.57526 0.71433 0.21509 0.0
H4371 H 0.55782 0.72419 0.22237 0.0
H4372 H 0.33515 0.62588 0.16647 0.0
H4373 H 0.32511 0.60856 0.17548 0.0
H4374 H 0.31005 0.63117 0.20368 0.0
H4375 H 0.31993 0.64852 0.19472 0.0
H4376 H 0.32957 0.60331 0.19881 0.0
H4377 H 0.28088 0.60726 0.19346 0.0
H4378 H 0.29269 0.61507 0.18483 0.0
H4379 H 0.28944 0.62044 0.20012 0.0
C4380 C 0.32953 0.62718 0.17448 0.0
C4381 C 0.32837 0.63859 0.1799 0.0
C4382 C 0.32381 0.61727 0.17961 0.0
C4383 C 0.31674 0.61859 0.19017 0.0
C4384 C 0.31527 0.62996 0.1954 0.0
H4385 H 0.28367 0.57394 0.24291 0.0
H4386 H 0.29087 0.59009 0.23072 0.0
C4387 C 0.321 0.63987 0.1903 0.0
C4388 C 0.31178 0.60813 0.19632 0.0
H4389 H 0.28561 0.59365 0.20698 0.0
C4390 C 0.31995 0.60111 0.20048 0.0
C4391 C 0.29924 0.60535 0.19855 0.0
C4392 C 0.29003 0.61236 0.19392 0.0
C4393 C 0.31596 0.59156 0.20713 0.0
C4394 C 0.30342 0.58884 0.20946 0.0
C4395 C 0.29522 0.59578 0.20518 0.0
C4396 C 0.29869 0.57896 0.21655 0.0
C4397 C 0.32523 0.58474 0.21195 0.0
C4398 C 0.30052 0.56733 0.21252 0.0
C4399 C 0.29654 0.55811 0.21951 0.0
C4400 C 0.29055 0.56032 0.23064 0.0
C4401 C 0.28844 0.57196 0.23449 0.0
C4402 C 0.29245 0.58118 0.2275 0.0
H4403 H 0.33444 0.58972 0.21198 0.0
H4404 H 0.3228 0.58256 0.22127 0.0
H4405 H 0.32558 0.57636 0.20616 0.0
H4406 H 0.30513 0.56541 0.204 0.0
H4407 H 0.2984 0.54928 0.21631 0.0
H4408 H 0.41078 0.3497 0.20837 0.0
H4409 H 0.42953 0.34306 0.21456 0.0
H4410 H 0.40917 0.31182 0.22669 0.0
H4411 H 0.39038 0.31855 0.22086 0.0
H4412 H 0.42589 0.32145 0.24271 0.0
H4413 H 0.44701 0.31746 0.19704 0.0
H4414 H 0.443 0.33192 0.20164 0.0
H4415 H 0.43132 0.31966 0.19951 0.0
C4416 C 0.4103 0.34142 0.21236 0.0
C4417 C 0.3991 0.33462 0.21407 0.0
C4418 C 0.42103 0.33759 0.21582 0.0
C4419 C 0.42077 0.32683 0.22087 0.0
C4420 C 0.40958 0.32013 0.22275 0.0
H4421 H 0.47958 0.28539 0.22741 0.0
H4422 H 0.46184 0.29396 0.22158 0.0
C4423 C 0.39885 0.32399 0.21941 0.0
C4424 C 0.43211 0.32255 0.22435 0.0
H4425 H 0.45931 0.31486 0.21335 0.0
C4426 C 0.4332 0.32001 0.2363 0.0
C4427 C 0.44157 0.32052 0.21592 0.0
C4428 C 0.44065 0.32242 0.20279 0.0
C4429 C 0.44347 0.31549 0.24006 0.0
C4430 C 0.45308 0.31378 0.23171 0.0
C4431 C 0.45199 0.31631 0.21976 0.0
C4432 C 0.46411 0.30889 0.23508 0.0
C4433 C 0.44376 0.31227 0.25285 0.0
C4434 C 0.47142 0.31456 0.24444 0.0
C4435 C 0.48146 0.30958 0.24795 0.0
C4436 C 0.48449 0.2989 0.24202 0.0
C4437 C 0.47738 0.29348 0.23234 0.0
C4438 C 0.46729 0.29842 0.22892 0.0
H4439 H 0.43454 0.31108 0.25698 0.0
H4440 H 0.44796 0.30402 0.25324 0.0
H4441 H 0.4492 0.31946 0.25837 0.0
H4442 H 0.46929 0.32279 0.24914 0.0
H4443 H 0.48665 0.31395 0.25549 0.0
H4444 H 0.72346 0.36225 0.18198 0.0
H4445 H 0.73184 0.38276 0.18695 0.0
H4446 H 0.7595 0.37141 0.20785 0.0
H4447 H 0.75128 0.35084 0.20281 0.0
H4448 H 0.73319 0.39344 0.21033 0.0
H4449 H 0.77869 0.39607 0.18831 0.0
H4450 H 0.76683 0.38425 0.18432 0.0
H4451 H 0.7755 0.38412 0.19764 0.0
C4452 C 0.73145 0.36409 0.18747 0.0
C4453 C 0.73667 0.3549 0.19203 0.0
C4454 C 0.73622 0.37582 0.1903 0.0
C4455 C 0.74634 0.37859 0.19768 0.0
C4456 C 0.75182 0.36945 0.20194 0.0
H4457 H 0.78185 0.44186 0.23571 0.0
H4458 H 0.77548 0.42178 0.2269 0.0
C4459 C 0.74706 0.35769 0.1991 0.0
C4460 C 0.75045 0.39105 0.2018 0.0
H4461 H 0.77485 0.41219 0.20247 0.0
C4462 C 0.74226 0.39759 0.20852 0.0
C4463 C 0.7623 0.39638 0.19948 0.0
C4464 C 0.77132 0.38989 0.19195 0.0
C4465 C 0.74569 0.40925 0.21321 0.0
C4466 C 0.75756 0.41458 0.21095 0.0
C4467 C 0.76574 0.40807 0.20417 0.0
C4468 C 0.76172 0.42681 0.2158 0.0
C4469 C 0.73668 0.41566 0.22086 0.0
C4470 C 0.75622 0.43629 0.2123 0.0
C4471 C 0.75985 0.44777 0.21731 0.0
C4472 C 0.76911 0.44997 0.22582 0.0
C4473 C 0.77477 0.44047 0.22909 0.0
C4474 C 0.77112 0.42899 0.2241 0.0
H4475 H 0.72907 0.40949 0.22409 0.0
H4476 H 0.74112 0.42084 0.2288 0.0
H4477 H 0.73285 0.42188 0.21543 0.0
H4478 H 0.7491 0.4348 0.20573 0.0
H4479 H 0.75546 0.45494 0.21445 0.0
H4480 H 0.64411 0.33713 0.84855 0.0
H4481 H 0.6249 0.32686 0.841 0.0
H4482 H 0.64409 0.3019 0.81901 0.0
H4483 H 0.66337 0.31207 0.82654 0.0
H4484 H 0.61934 0.32421 0.81602 0.0
H4485 H 0.61639 0.28099 0.83516 0.0
H4486 H 0.62606 0.29384 0.8413 0.0
H4487 H 0.63052 0.28554 0.82776 0.0
C4488 C 0.64426 0.32934 0.84226 0.0
C4489 C 0.65528 0.32545 0.83811 0.0
C4490 C 0.63327 0.3235 0.83796 0.0
C4491 C 0.63308 0.31358 0.82953 0.0
C4492 C 0.64403 0.30942 0.82566 0.0
H4493 H 0.57805 0.27168 0.78527 0.0
H4494 H 0.59658 0.27969 0.79599 0.0
C4495 C 0.65504 0.31529 0.82993 0.0
C4496 C 0.62154 0.30827 0.82398 0.0
H4497 H 0.60203 0.28288 0.82035 0.0
C4498 C 0.6155 0.3152 0.81703 0.0
C4499 C 0.61665 0.29649 0.82524 0.0
C4500 C 0.62266 0.28877 0.83284 0.0
C4501 C 0.60477 0.31062 0.81112 0.0
C4502 C 0.5998 0.29886 0.81244 0.0
C4503 C 0.60585 0.29191 0.81939 0.0
C4504 C 0.5884 0.29361 0.80652 0.0
C4505 C 0.59906 0.31832 0.80324 0.0
C4506 C 0.57761 0.2986 0.80911 0.0
C4507 C 0.56704 0.29409 0.80298 0.0
C4508 C 0.56704 0.28439 0.79425 0.0
C4509 C 0.57776 0.27913 0.79199 0.0
C4510 C 0.58835 0.2837 0.79808 0.0
H4511 H 0.60562 0.32578 0.80061 0.0
H4512 H 0.59542 0.31316 0.79492 0.0
H4513 H 0.59145 0.32209 0.80826 0.0
H4514 H 0.57738 0.30607 0.81581 0.0
H4515 H 0.55887 0.29818 0.80507 0.0
H4516 H 0.705 0.64953 0.8161 0.0
H4517 H 0.7138 0.63282 0.80544 0.0
H4518 H 0.70432 0.61236 0.83554 0.0
H4519 H 0.6951 0.62883 0.84601 0.0
H4520 H 0.73219 0.6222 0.81086 0.0
H4521 H 0.69156 0.58927 0.80854 0.0
H4522 H 0.69075 0.60469 0.81301 0.0
H4523 H 0.69467 0.5951 0.82377 0.0
C4524 C 0.70469 0.64142 0.82039 0.0
C4525 C 0.69928 0.64046 0.83186 0.0
C4526 C 0.70973 0.63189 0.8143 0.0
C4527 C 0.70952 0.62124 0.81958 0.0
C4528 C 0.70426 0.62033 0.83111 0.0
H4529 H 0.75843 0.56881 0.80252 0.0
H4530 H 0.74815 0.58551 0.81061 0.0
C4531 C 0.69907 0.6298 0.83713 0.0
C4532 C 0.7153 0.61128 0.8133 0.0
H4533 H 0.71063 0.58171 0.80488 0.0
C4534 C 0.72743 0.61337 0.80944 0.0
C4535 C 0.70905 0.59979 0.81123 0.0
C4536 C 0.69575 0.5971 0.81424 0.0
C4537 C 0.73358 0.60425 0.8039 0.0
C4538 C 0.72755 0.59261 0.80255 0.0
C4539 C 0.71532 0.59059 0.80607 0.0
C4540 C 0.73378 0.5824 0.79763 0.0
C4541 C 0.74641 0.60723 0.79941 0.0
C4542 C 0.72888 0.57478 0.78793 0.0
C4543 C 0.73454 0.56497 0.7835 0.0
C4544 C 0.74527 0.56259 0.78865 0.0
C4545 C 0.75013 0.57025 0.79839 0.0
C4546 C 0.74437 0.57996 0.80291 0.0
H4547 H 0.74816 0.61659 0.79742 0.0
H4548 H 0.75277 0.60592 0.8065 0.0
H4549 H 0.74839 0.60153 0.79114 0.0
H4550 H 0.72064 0.57641 0.78378 0.0
H4551 H 0.73038 0.55916 0.77615 0.0
H4552 H 0.36168 0.7364 0.78973 0.0
H4553 H 0.38361 0.73641 0.78718 0.0
H4554 H 0.38913 0.7724 0.80302 0.0
H4555 H 0.36726 0.77247 0.8057 0.0
H4556 H 0.39958 0.75146 0.77395 0.0
H4557 H 0.41172 0.75549 0.82217 0.0
H4558 H 0.39643 0.75114 0.81711 0.0
H4559 H 0.40259 0.76642 0.81836 0.0
C4560 C 0.36756 0.74431 0.79273 0.0
C4561 C 0.36273 0.75443 0.79795 0.0
C4562 C 0.38007 0.74429 0.79126 0.0
C4563 C 0.38797 0.75434 0.79508 0.0
C4564 C 0.38319 0.76447 0.80024 0.0
H4565 H 0.46123 0.77661 0.77406 0.0
H4566 H 0.43933 0.77345 0.7774 0.0
C4567 C 0.37068 0.76451 0.80169 0.0
C4568 C 0.4012 0.75444 0.79322 0.0
H4569 H 0.42801 0.75879 0.80802 0.0
C4570 C 0.4058 0.75296 0.78139 0.0
C4571 C 0.40926 0.75624 0.80297 0.0
C4572 C 0.40477 0.7573 0.81588 0.0
C4573 C 0.4183 0.75366 0.77903 0.0
C4574 C 0.42638 0.75602 0.78874 0.0
C4575 C 0.42177 0.75708 0.80059 0.0
C4576 C 0.43965 0.75784 0.78675 0.0
C4577 C 0.42277 0.75188 0.76615 0.0
C4578 C 0.44709 0.75025 0.79115 0.0
C4579 C 0.45964 0.75208 0.78934 0.0
C4580 C 0.46494 0.76162 0.78322 0.0
C4581 C 0.45744 0.76925 0.77892 0.0
C4582 C 0.44491 0.76739 0.7807 0.0
H4583 H 0.41561 0.7471 0.76019 0.0
H4584 H 0.42554 0.76061 0.76278 0.0
H4585 H 0.43075 0.74689 0.76548 0.0
H4586 H 0.44317 0.74288 0.79593 0.0
H4587 H 0.4652 0.74612 0.79285 0.0
H4588 H 0.32999 0.37934 0.81756 0.0
H4589 H 0.32336 0.39663 0.80968 0.0
H4590 H 0.34941 0.41932 0.83171 0.0
H4591 H 0.35623 0.40208 0.83951 0.0
H4592 H 0.3136 0.41532 0.82241 0.0
H4593 H 0.35604 0.43125 0.7986 0.0
H4594 H 0.35334 0.41668 0.80366 0.0
H4595 H 0.35795 0.42921 0.81415 0.0
C4596 C 0.33439 0.388 0.82067 0.0
C4597 C 0.34368 0.38931 0.82914 0.0
C4598 C 0.33057 0.39787 0.81616 0.0
C4599 C 0.336 0.40926 0.81997 0.0
C4600 C 0.34527 0.41061 0.82844 0.0
H4601 H 0.32255 0.47976 0.80546 0.0
H4602 H 0.33014 0.46274 0.813 0.0
C4603 C 0.3491 0.40074 0.83295 0.0
C4604 C 0.33165 0.41973 0.81542 0.0
H4605 H 0.34058 0.4439 0.80026 0.0
C4606 C 0.31949 0.42154 0.81752 0.0
C4607 C 0.33935 0.42786 0.80908 0.0
C4608 C 0.35237 0.42613 0.80613 0.0
C4609 C 0.31485 0.43134 0.81359 0.0
C4610 C 0.32253 0.43945 0.80722 0.0
C4611 C 0.33471 0.43768 0.80516 0.0
C4612 C 0.31805 0.44975 0.80249 0.0
C4613 C 0.30181 0.43306 0.81652 0.0
C4614 C 0.30888 0.4481 0.79391 0.0
C4615 C 0.30457 0.4578 0.78954 0.0
C4616 C 0.30936 0.46937 0.79362 0.0
C4617 C 0.31871 0.47099 0.80206 0.0
C4618 C 0.32302 0.46127 0.80642 0.0
H4619 H 0.29813 0.42794 0.82405 0.0
H4620 H 0.30083 0.44251 0.81896 0.0
H4621 H 0.29625 0.42996 0.80849 0.0
H4622 H 0.30511 0.4393 0.79052 0.0
H4623 H 0.29755 0.45622 0.78286 0.0
H4624 H 0.72969 0.6439 0.2139 0.0
H4625 H 0.73923 0.62722 0.21973 0.0
H4626 H 0.71408 0.60319 0.19793 0.0
H4627 H 0.70461 0.61982 0.1919 0.0
H4628 H 0.72913 0.60828 0.23161 0.0
H4629 H 0.74653 0.59284 0.18643 0.0
H4630 H 0.74118 0.60708 0.18962 0.0
H4631 H 0.73058 0.59401 0.18697 0.0
C4632 C 0.72622 0.63507 0.21029 0.0
C4633 C 0.71642 0.63321 0.20238 0.0
C4634 C 0.73168 0.62555 0.21365 0.0
C4635 C 0.7275 0.61397 0.20912 0.0
C4636 C 0.71764 0.61206 0.20132 0.0
H4637 H 0.74679 0.54482 0.22094 0.0
H4638 H 0.73732 0.56141 0.21475 0.0
C4639 C 0.71219 0.62158 0.19794 0.0
C4640 C 0.73324 0.60389 0.21285 0.0
H4641 H 0.74788 0.58041 0.20204 0.0
C4642 C 0.73329 0.60222 0.22515 0.0
C4643 C 0.73864 0.59597 0.20441 0.0
C4644 C 0.73935 0.59759 0.19113 0.0
C4645 C 0.73841 0.59275 0.22923 0.0
C4646 C 0.74379 0.58483 0.22078 0.0
C4647 C 0.74373 0.58648 0.20848 0.0
C4648 C 0.74958 0.57482 0.22455 0.0
C4649 C 0.73779 0.59115 0.24251 0.0
C4650 C 0.75971 0.57685 0.23199 0.0
C4651 C 0.76511 0.5674 0.23559 0.0
C4652 C 0.76051 0.5557 0.23177 0.0
C4653 C 0.75045 0.55371 0.22418 0.0
C4654 C 0.74507 0.56318 0.22057 0.0
H4655 H 0.73081 0.59609 0.24731 0.0
H4656 H 0.73576 0.58168 0.24402 0.0
H4657 H 0.74668 0.59451 0.24655 0.0
H4658 H 0.76345 0.58577 0.23501 0.0
H4659 H 0.77277 0.56925 0.24151 0.0
H4660 H 0.70057 0.39103 0.84549 0.0
H4661 H 0.71183 0.40847 0.83792 0.0
H4662 H 0.74277 0.38952 0.83031 0.0
H4663 H 0.73147 0.37186 0.83765 0.0
H4664 H 0.73341 0.422 0.84408 0.0
H4665 H 0.73576 0.39998 0.79755 0.0
H4666 H 0.72624 0.39369 0.80922 0.0
H4667 H 0.74224 0.39269 0.80889 0.0
C4668 C 0.70981 0.39056 0.84231 0.0
C4669 C 0.71507 0.37998 0.84204 0.0
C4670 C 0.71624 0.40057 0.83801 0.0
C4671 C 0.72805 0.40022 0.83335 0.0
C4672 C 0.73357 0.38989 0.83363 0.0
H4673 H 0.77169 0.46387 0.81091 0.0
H4674 H 0.76459 0.44649 0.82146 0.0
C4675 C 0.72712 0.37983 0.83789 0.0
C4676 C 0.73425 0.41054 0.82769 0.0
H4677 H 0.74496 0.41957 0.80069 0.0
C4678 C 0.73603 0.42147 0.83462 0.0
C4679 C 0.73749 0.40983 0.8153 0.0
C4680 C 0.73526 0.39845 0.80725 0.0
C4681 C 0.74082 0.43176 0.82944 0.0
C4682 C 0.7441 0.43104 0.81707 0.0
C4683 C 0.7425 0.42007 0.81019 0.0
C4684 C 0.74849 0.44163 0.81085 0.0
C4685 C 0.74188 0.44338 0.83716 0.0
C4686 C 0.74192 0.44452 0.80124 0.0
C4687 C 0.74598 0.45438 0.79517 0.0
C4688 C 0.75672 0.46153 0.79857 0.0
C4689 C 0.7633 0.45861 0.8082 0.0
C4690 C 0.75926 0.4487 0.81424 0.0
H4691 H 0.73645 0.44282 0.84565 0.0
H4692 H 0.75149 0.446 0.83958 0.0
H4693 H 0.73888 0.45042 0.8322 0.0
H4694 H 0.73359 0.43919 0.79848 0.0
H4695 H 0.74063 0.45647 0.78789 0.0
H4696 H 0.64417 0.6914 0.8305 0.0
H4697 H 0.62838 0.69878 0.81946 0.0
H4698 H 0.62501 0.72611 0.84832 0.0
H4699 H 0.64077 0.71891 0.85934 0.0
H4700 H 0.60399 0.70188 0.82692 0.0
H4701 H 0.63105 0.74413 0.81805 0.0
H4702 H 0.6378 0.73178 0.82265 0.0
H4703 H 0.63047 0.74124 0.8336 0.0
C4704 C 0.64007 0.69898 0.83449 0.0
C4705 C 0.64378 0.70462 0.84577 0.0
C4706 C 0.63105 0.70317 0.82818 0.0
C4707 C 0.62569 0.71309 0.833 0.0
C4708 C 0.62921 0.71858 0.84434 0.0
H4709 H 0.57143 0.75515 0.81468 0.0
H4710 H 0.58686 0.74574 0.82402 0.0
C4711 C 0.63818 0.71441 0.85065 0.0
C4712 C 0.61636 0.71775 0.82628 0.0
H4713 H 0.60996 0.74249 0.81427 0.0
C4714 C 0.6053 0.71071 0.82404 0.0
C4715 C 0.61815 0.72927 0.82253 0.0
C4716 C 0.63005 0.73702 0.82422 0.0
C4717 C 0.5958 0.71505 0.81852 0.0
C4718 C 0.59752 0.72667 0.81502 0.0
C4719 C 0.60866 0.73361 0.81704 0.0
C4720 C 0.5878 0.73194 0.80948 0.0
C4721 C 0.58388 0.70734 0.81685 0.0
C4722 C 0.58324 0.7273 0.7982 0.0
C4723 C 0.57445 0.73268 0.79281 0.0
C4724 C 0.57014 0.74285 0.79858 0.0
C4725 C 0.57467 0.74741 0.80994 0.0
C4726 C 0.58344 0.74202 0.81531 0.0
H4727 H 0.58315 0.69976 0.82242 0.0
H4728 H 0.57618 0.7125 0.81921 0.0
H4729 H 0.58305 0.7038 0.80725 0.0
H4730 H 0.58667 0.71966 0.79345 0.0
H4731 H 0.57128 0.72907 0.78398 0.0
H4732 H 0.30258 0.67271 0.83803 0.0
H4733 H 0.30004 0.65115 0.83479 0.0
H4734 H 0.32799 0.6526 0.80717 0.0
H4735 H 0.3307 0.6741 0.81042 0.0
H4736 H 0.2933 0.63804 0.81326 0.0
H4737 H 0.33776 0.62768 0.82758 0.0
H4738 H 0.33242 0.64183 0.83151 0.0
H4739 H 0.3389 0.63843 0.81681 0.0
C4740 C 0.3083 0.66844 0.83137 0.0
C4741 C 0.31684 0.67513 0.82448 0.0
C4742 C 0.30683 0.65613 0.82954 0.0
C4743 C 0.31394 0.65028 0.82086 0.0
C4744 C 0.32259 0.65692 0.8141 0.0
H4745 H 0.31486 0.58056 0.78533 0.0
H4746 H 0.31883 0.60131 0.79308 0.0
C4747 C 0.32407 0.66922 0.81591 0.0
C4748 C 0.31171 0.63731 0.81822 0.0
H4749 H 0.32547 0.61214 0.81629 0.0
C4750 C 0.30027 0.63235 0.81406 0.0
C4751 C 0.32085 0.62993 0.81924 0.0
C4752 C 0.33314 0.63471 0.82414 0.0
C4753 C 0.29785 0.62025 0.81049 0.0
C4754 C 0.30706 0.61289 0.81131 0.0
C4755 C 0.31843 0.61781 0.81567 0.0
C4756 C 0.30516 0.60014 0.80725 0.0
C4757 C 0.2856 0.61551 0.80544 0.0
C4758 C 0.29636 0.59256 0.81285 0.0
C4759 C 0.29408 0.5807 0.80846 0.0
C4760 C 0.30063 0.57618 0.79844 0.0
C4761 C 0.30973 0.58373 0.79312 0.0
C4762 C 0.31198 0.59559 0.79751 0.0
H4763 H 0.28057 0.62267 0.80289 0.0
H4764 H 0.28652 0.60915 0.7974 0.0
H4765 H 0.28012 0.61081 0.81236 0.0
H4766 H 0.29116 0.59586 0.82054 0.0
H4767 H 0.28716 0.57506 0.81288 0.0
H4768 H 0.38711 0.3495 0.81612 0.0
H4769 H 0.40339 0.34098 0.80424 0.0
H4770 H 0.39953 0.31137 0.82563 0.0
H4771 H 0.38329 0.31967 0.83741 0.0
H4772 H 0.4255 0.33519 0.81252 0.0
H4773 H 0.39802 0.2956 0.79107 0.0
H4774 H 0.39135 0.30816 0.7982 0.0
H4775 H 0.39609 0.29738 0.80715 0.0
C4776 C 0.38968 0.34114 0.81824 0.0
C4777 C 0.38384 0.33525 0.8277 0.0
C4778 C 0.39899 0.33629 0.81145 0.0
C4779 C 0.40252 0.32545 0.81392 0.0
C4780 C 0.39677 0.31962 0.82339 0.0
H4781 H 0.45687 0.27996 0.79407 0.0
H4782 H 0.43982 0.28993 0.80233 0.0
C4783 C 0.38752 0.32443 0.83017 0.0
C4784 C 0.41253 0.32033 0.80697 0.0
H4785 H 0.41949 0.29535 0.79038 0.0
C4786 C 0.42418 0.32656 0.80753 0.0
C4787 C 0.41076 0.30906 0.80048 0.0
C4788 C 0.39836 0.3022 0.79907 0.0
C4789 C 0.43423 0.32158 0.80221 0.0
C4790 C 0.43251 0.31016 0.79602 0.0
C4791 C 0.42079 0.30408 0.79518 0.0
C4792 C 0.44279 0.30414 0.79077 0.0
C4793 C 0.44665 0.32838 0.80367 0.0
C4794 C 0.45002 0.30873 0.78141 0.0
C4795 C 0.45975 0.30301 0.77662 0.0
C4796 C 0.4624 0.29254 0.78105 0.0
C4797 C 0.45501 0.28791 0.79033 0.0
C4798 C 0.4453 0.29363 0.79511 0.0
H4799 H 0.44674 0.33584 0.81082 0.0
H4800 H 0.45334 0.32252 0.80591 0.0
H4801 H 0.4496 0.33204 0.79507 0.0
H4802 H 0.44809 0.31669 0.77776 0.0
H4803 H 0.46513 0.30671 0.76934 0.0
H4804 H 0.36858 0.39255 0.21439 0.0
H4805 H 0.35997 0.40918 0.2255 0.0
H4806 H 0.32417 0.39383 0.21474 0.0
H4807 H 0.33261 0.37714 0.20388 0.0
H4808 H 0.34729 0.42493 0.21623 0.0
H4809 H 0.3189 0.40203 0.25038 0.0
H4810 H 0.33046 0.39517 0.24157 0.0
H4811 H 0.31576 0.39547 0.23538 0.0
C4812 C 0.35886 0.39264 0.21453 0.0
C4813 C 0.35128 0.38351 0.20828 0.0
C4814 C 0.35396 0.40215 0.22087 0.0
C4815 C 0.34142 0.40265 0.22112 0.0
C4816 C 0.33384 0.39349 0.21495 0.0
H4817 H 0.29114 0.45275 0.23797 0.0
H4818 H 0.30213 0.43599 0.23121 0.0
C4819 C 0.33871 0.38398 0.20866 0.0
C4820 C 0.33625 0.41309 0.22706 0.0
H4821 H 0.31419 0.42133 0.24694 0.0
C4822 C 0.34019 0.42418 0.22309 0.0
C4823 C 0.32699 0.41209 0.23601 0.0
C4824 C 0.32287 0.40056 0.24117 0.0
C4825 C 0.33476 0.43421 0.22745 0.0
C4826 C 0.3252 0.4331 0.23605 0.0
C4827 C 0.32148 0.4221 0.24028 0.0
C4828 C 0.31862 0.44318 0.24037 0.0
C4829 C 0.33893 0.44585 0.22253 0.0
C4830 C 0.32426 0.45267 0.24784 0.0
C4831 C 0.31802 0.46225 0.25171 0.0
C4832 C 0.30604 0.46249 0.24814 0.0
C4833 C 0.3004 0.45289 0.24074 0.0
C4834 C 0.30663 0.44329 0.23694 0.0
H4835 H 0.34519 0.44486 0.21464 0.0
H4836 H 0.33105 0.45 0.21983 0.0
H4837 H 0.34373 0.45192 0.22966 0.0
H4838 H 0.3335 0.45267 0.25064 0.0
H4839 H 0.32261 0.46956 0.25734 0.0
H4840 H 0.6878 0.29376 0.1992 0.0
H4841 H 0.66673 0.2878 0.20515 0.0
H4842 H 0.66981 0.31457 0.23518 0.0
H4843 H 0.69075 0.32065 0.22929 0.0
H4844 H 0.65649 0.28034 0.22751 0.0
H4845 H 0.64075 0.32201 0.21631 0.0
H4846 H 0.65516 0.31754 0.21111 0.0
H4847 H 0.65336 0.32404 0.22628 0.0
C4848 C 0.68401 0.29832 0.20711 0.0
C4849 C 0.69091 0.30775 0.2137 0.0
C4850 C 0.67199 0.29491 0.21049 0.0
C4851 C 0.66668 0.3009 0.22046 0.0
C4852 C 0.67368 0.31 0.22731 0.0
H4853 H 0.59722 0.29888 0.25671 0.0
H4854 H 0.61824 0.30298 0.24982 0.0
C4855 C 0.68566 0.31342 0.22395 0.0
C4856 C 0.65377 0.29783 0.22364 0.0
H4857 H 0.62683 0.30927 0.22702 0.0
C4858 C 0.64996 0.28661 0.22732 0.0
C4859 C 0.64531 0.30605 0.22335 0.0
C4860 C 0.64879 0.31805 0.21895 0.0
C4861 C 0.63795 0.28351 0.2311 0.0
C4862 C 0.62954 0.2918 0.23099 0.0
C4863 C 0.63332 0.30296 0.22713 0.0
C4864 C 0.61681 0.28921 0.23508 0.0
C4865 C 0.63443 0.27153 0.23553 0.0
C4866 C 0.60902 0.28022 0.22894 0.0
C4867 C 0.59698 0.2779 0.23281 0.0
C4868 C 0.59251 0.28458 0.24284 0.0
C4869 C 0.60033 0.29367 0.24887 0.0
C4870 C 0.61236 0.29598 0.245 0.0
H4871 H 0.64248 0.26729 0.23764 0.0
H4872 H 0.62853 0.27218 0.24371 0.0
H4873 H 0.62931 0.26571 0.22843 0.0
H4874 H 0.61222 0.27507 0.2211 0.0
H4875 H 0.59113 0.27096 0.22786 0.0
H4876 H 0.39239 0.68426 0.16783 0.0
H4877 H 0.40966 0.69642 0.17745 0.0
H4878 H 0.38588 0.72063 0.19386 0.0
H4879 H 0.3685 0.70854 0.18427 0.0
H4880 H 0.41782 0.72237 0.17707 0.0
H4881 H 0.40362 0.70802 0.22219 0.0
H4882 H 0.3981 0.69992 0.20836 0.0
H4883 H 0.39241 0.71351 0.21364 0.0
C4884 C 0.39082 0.69223 0.17338 0.0
C4885 C 0.37904 0.69538 0.17536 0.0
C4886 C 0.40071 0.69918 0.17884 0.0
C4887 C 0.399 0.70933 0.18645 0.0
C4888 C 0.38734 0.71275 0.18809 0.0
H4889 H 0.44938 0.75167 0.23643 0.0
H4890 H 0.43139 0.74376 0.22482 0.0
C4891 C 0.37744 0.70585 0.18257 0.0
C4892 C 0.40934 0.71595 0.19312 0.0
H4893 H 0.42143 0.72118 0.22115 0.0
C4894 C 0.41862 0.72218 0.18672 0.0
C4895 C 0.41028 0.71568 0.2057 0.0
C4896 C 0.40064 0.70888 0.21293 0.0
C4897 C 0.42887 0.72819 0.19258 0.0
C4898 C 0.42999 0.72766 0.20513 0.0
C4899 C 0.42057 0.72158 0.21154 0.0
C4900 C 0.441 0.73295 0.21174 0.0
C4901 C 0.43833 0.73515 0.18531 0.0
C4902 C 0.45236 0.72945 0.2083 0.0
C4903 C 0.46264 0.73398 0.21489 0.0
C4904 C 0.46173 0.74197 0.22517 0.0
C4905 C 0.45034 0.74545 0.22861 0.0
C4906 C 0.44008 0.74098 0.22196 0.0
H4907 H 0.43445 0.73778 0.17705 0.0
H4908 H 0.44247 0.74322 0.19068 0.0
H4909 H 0.44559 0.7296 0.18243 0.0
H4910 H 0.45324 0.723 0.20067 0.0
H4911 H 0.47124 0.73097 0.21214 0.0
loop_
_geom_bond_atom_site_label_1
_geom_bond_atom_site_label_2
_geom_bond_distance
_geom_bond_site_symmetry_2
_ccdc_geom_bond_type
O0 Cd1 2.300 . S
O0 C7 1.275 . S
Cd1 O0 2.300 . S
Cd1 O9 2.381 . S
Cd1 O10 2.378 . S
O2 Cd3 2.385 . S
O2 C7 1.255 . S
Cd3 O2 2.385 . S
Cd3 O4 2.317 . S
O4 Cd3 2.317 . S
O4 C5 1.232 . S
C5 O4 1.232 . S
C5 O6 1.218 . S
O6 C5 1.218 . S
C7 O0 1.275 . S
C7 O2 1.255 . S
C8 O9 1.258 . S
C8 O10 1.256 . S
O9 Cd1 2.381 . S
O9 C8 1.258 . S
O10 Cd1 2.378 . S
O10 C8 1.256 . S
O11 Cd12 2.300 . S
O11 C18 1.275 . S
Cd12 O11 2.300 . S
Cd12 O20 2.381 . S
Cd12 O21 2.378 . S
O13 Cd14 2.385 . S
O13 C18 1.255 . S
Cd14 O13 2.385 . S
Cd14 O15 2.317 . S
O15 Cd14 2.317 . S
O15 C16 1.232 . S
C16 O15 1.232 . S
C16 O17 1.218 . S
O17 C16 1.218 . S
C18 O11 1.275 . S
C18 O13 1.255 . S
C19 O20 1.258 . S
C19 O21 1.256 . S
O20 Cd12 2.381 . S
O20 C19 1.258 . S
O21 Cd12 2.378 . S
O21 C19 1.256 . S
O22 Cd23 2.300 . S
O22 C29 1.275 . S
Cd23 O22 2.300 . S
Cd23 O31 2.381 . S
Cd23 O32 2.378 . S
O24 Cd25 2.385 . S
O24 C29 1.255 . S
Cd25 O24 2.385 . S
Cd25 O26 2.317 . S
O26 Cd25 2.317 . S
O26 C27 1.232 . S
C27 O26 1.232 . S
C27 O28 1.218 . S
O28 C27 1.218 . S
C29 O22 1.275 . S
C29 O24 1.255 . S
C30 O31 1.258 . S
C30 O32 1.256 . S
O31 Cd23 2.381 . S
O31 C30 1.258 . S
O32 Cd23 2.378 . S
O32 C30 1.256 . S
O33 Cd34 2.300 . S
O33 C40 1.275 . S
Cd34 O33 2.300 . S
Cd34 O42 2.381 . S
Cd34 O43 2.378 . S
O35 Cd36 2.385 . S
O35 C40 1.255 . S
Cd36 O35 2.385 . S
Cd36 O37 2.317 . S
O37 Cd36 2.317 . S
O37 C38 1.232 . S
C38 O37 1.232 . S
C38 O39 1.218 . S
O39 C38 1.218 . S
C40 O33 1.275 . S
C40 O35 1.255 . S
C41 O42 1.258 . S
C41 O43 1.256 . S
O42 Cd34 2.381 . S
O42 C41 1.258 . S
O43 Cd34 2.378 . S
O43 C41 1.256 . S
O44 Cd45 2.300 . S
O44 C51 1.275 . S
Cd45 O44 2.300 . S
Cd45 O53 2.381 . S
Cd45 O54 2.378 . S
O46 Cd47 2.385 . S
O46 C51 1.255 . S
Cd47 O46 2.385 . S
Cd47 O48 2.317 . S
O48 Cd47 2.317 . S
O48 C49 1.232 . S
C49 O48 1.232 . S
C49 O50 1.218 . S
O50 C49 1.218 . S
C51 O44 1.275 . S
C51 O46 1.255 . S
C52 O53 1.258 . S
C52 O54 1.256 . S
O53 Cd45 2.381 . S
O53 C52 1.258 . S
O54 Cd45 2.378 . S
O54 C52 1.256 . S
O55 Cd56 2.300 . S
O55 C62 1.275 . S
Cd56 O55 2.300 . S
Cd56 O64 2.381 . S
Cd56 O65 2.378 . S
O57 Cd58 2.385 . S
O57 C62 1.255 . S
Cd58 O57 2.385 . S
Cd58 O59 2.317 . S
O59 Cd58 2.317 . S
O59 C60 1.232 . S
C60 O59 1.232 . S
C60 O61 1.218 . S
O61 C60 1.218 . S
C62 O55 1.275 . S
C62 O57 1.255 . S
C63 O64 1.258 . S
C63 O65 1.256 . S
O64 Cd56 2.381 . S
O64 C63 1.258 . S
O65 Cd56 2.378 . S
O65 C63 1.256 . S
O66 Cd67 2.300 . S
O66 C73 1.275 . S
Cd67 O66 2.300 . S
Cd67 O75 2.381 . S
Cd67 O76 2.378 . S
O68 Cd69 2.385 . S
O68 C73 1.255 . S
Cd69 O68 2.385 . S
Cd69 O70 2.317 . S
O70 Cd69 2.317 . S
O70 C71 1.232 . S
C71 O70 1.232 . S
C71 O72 1.218 . S
O72 C71 1.218 . S
C73 O66 1.275 . S
C73 O68 1.255 . S
C74 O75 1.258 . S
C74 O76 1.256 . S
O75 Cd67 2.381 . S
O75 C74 1.258 . S
O76 Cd67 2.378 . S
O76 C74 1.256 . S
O77 Cd78 2.300 . S
O77 C84 1.275 . S
Cd78 O77 2.300 . S
Cd78 O86 2.381 . S
Cd78 O87 2.378 . S
O79 Cd80 2.385 . S
O79 C84 1.255 . S
Cd80 O79 2.385 . S
Cd80 O81 2.317 . S
O81 Cd80 2.317 . S
O81 C82 1.232 . S
C82 O81 1.232 . S
C82 O83 1.218 . S
O83 C82 1.218 . S
C84 O77 1.275 . S
C84 O79 1.255 . S
C85 O86 1.258 . S
C85 O87 1.256 . S
O86 Cd78 2.381 . S
O86 C85 1.258 . S
O87 Cd78 2.378 . S
O87 C85 1.256 . S
O88 Cd89 2.300 . S
O88 C95 1.275 . S
Cd89 O88 2.300 . S
Cd89 O97 2.381 . S
Cd89 O98 2.378 . S
O90 Cd91 2.385 . S
O90 C95 1.255 . S
Cd91 O90 2.385 . S
Cd91 O92 2.317 . S
O92 Cd91 2.317 . S
O92 C93 1.232 . S
C93 O92 1.232 . S
C93 O94 1.218 . S
O94 C93 1.218 . S
C95 O88 1.275 . S
C95 O90 1.255 . S
C96 O97 1.258 . S
C96 O98 1.256 . S
O97 Cd89 2.381 . S
O97 C96 1.258 . S
O98 Cd89 2.378 . S
O98 C96 1.256 . S
O99 Cd100 2.300 . S
O99 C106 1.275 . S
Cd100 O99 2.300 . S
Cd100 O108 2.381 . S
Cd100 O109 2.378 . S
O101 Cd102 2.385 . S
O101 C106 1.255 . S
Cd102 O101 2.385 . S
Cd102 O103 2.317 . S
O103 Cd102 2.317 . S
O103 C104 1.232 . S
C104 O103 1.232 . S
C104 O105 1.218 . S
O105 C104 1.218 . S
C106 O99 1.275 . S
C106 O101 1.255 . S
C107 O108 1.258 . S
C107 O109 1.256 . S
O108 Cd100 2.381 . S
O108 C107 1.258 . S
O109 Cd100 2.378 . S
O109 C107 1.256 . S
O110 Cd111 2.300 . S
O110 C117 1.275 . S
Cd111 O110 2.300 . S
Cd111 O119 2.381 . S
Cd111 O120 2.378 . S
O112 Cd113 2.385 . S
O112 C117 1.255 . S
Cd113 O112 2.385 . S
Cd113 O114 2.317 . S
O114 Cd113 2.317 . S
O114 C115 1.232 . S
C115 O114 1.232 . S
C115 O116 1.218 . S
O116 C115 1.218 . S
C117 O110 1.275 . S
C117 O112 1.255 . S
C118 O119 1.258 . S
C118 O120 1.256 . S
O119 Cd111 2.381 . S
O119 C118 1.258 . S
O120 Cd111 2.378 . S
O120 C118 1.256 . S
O121 Cd122 2.300 . S
O121 C128 1.275 . S
Cd122 O121 2.300 . S
Cd122 O130 2.381 . S
Cd122 O131 2.378 . S
O123 Cd124 2.385 . S
O123 C128 1.255 . S
Cd124 O123 2.385 . S
Cd124 O125 2.317 . S
O125 Cd124 2.317 . S
O125 C126 1.232 . S
C126 O125 1.232 . S
C126 O127 1.218 . S
O127 C126 1.218 . S
C128 O121 1.275 . S
C128 O123 1.255 . S
C129 O130 1.258 . S
C129 O131 1.256 . S
O130 Cd122 2.381 . S
O130 C129 1.258 . S
O131 Cd122 2.378 . S
O131 C129 1.256 . S
O132 Cd133 2.300 . S
O132 C139 1.275 . S
Cd133 O132 2.300 . S
Cd133 O141 2.381 . S
Cd133 O142 2.378 . S
O134 Cd135 2.385 . S
O134 C139 1.255 . S
Cd135 O134 2.385 . S
Cd135 O136 2.317 . S
O136 Cd135 2.317 . S
O136 C137 1.232 . S
C137 O136 1.232 . S
C137 O138 1.218 . S
O138 C137 1.218 . S
C139 O132 1.275 . S
C139 O134 1.255 . S
C140 O141 1.258 . S
C140 O142 1.256 . S
O141 Cd133 2.381 . S
O141 C140 1.258 . S
O142 Cd133 2.378 . S
O142 C140 1.256 . S
O143 Cd144 2.300 . S
O143 C150 1.275 . S
Cd144 O143 2.300 . S
Cd144 O152 2.381 . S
Cd144 O153 2.378 . S
O145 Cd146 2.385 . S
O145 C150 1.255 . S
Cd146 O145 2.385 . S
Cd146 O147 2.317 . S
O147 Cd146 2.317 . S
O147 C148 1.232 . S
C148 O147 1.232 . S
C148 O149 1.218 . S
O149 C148 1.218 . S
C150 O143 1.275 . S
C150 O145 1.255 . S
C151 O152 1.258 . S
C151 O153 1.256 . S
O152 Cd144 2.381 . S
O152 C151 1.258 . S
O153 Cd144 2.378 . S
O153 C151 1.256 . S
O154 Cd155 2.300 . S
O154 C161 1.275 . S
Cd155 O154 2.300 . S
Cd155 O163 2.381 . S
Cd155 O164 2.378 . S
O156 Cd157 2.385 . S
O156 C161 1.255 . S
Cd157 O156 2.385 . S
Cd157 O158 2.317 . S
O158 Cd157 2.317 . S
O158 C159 1.232 . S
C159 O158 1.232 . S
C159 O160 1.218 . S
O160 C159 1.218 . S
C161 O154 1.275 . S
C161 O156 1.255 . S
C162 O163 1.258 . S
C162 O164 1.256 . S
O163 Cd155 2.381 . S
O163 C162 1.258 . S
O164 Cd155 2.378 . S
O164 C162 1.256 . S
O165 Cd166 2.300 . S
O165 C172 1.275 . S
Cd166 O165 2.300 . S
Cd166 O174 2.381 . S
Cd166 O175 2.378 . S
O167 Cd168 2.385 . S
O167 C172 1.255 . S
Cd168 O167 2.385 . S
Cd168 O169 2.317 . S
O169 Cd168 2.317 . S
O169 C170 1.232 . S
C170 O169 1.232 . S
C170 O171 1.218 . S
O171 C170 1.218 . S
C172 O165 1.275 . S
C172 O167 1.255 . S
C173 O174 1.258 . S
C173 O175 1.256 . S
O174 Cd166 2.381 . S
O174 C173 1.258 . S
O175 Cd166 2.378 . S
O175 C173 1.256 . S
O176 Cd177 2.300 . S
O176 C183 1.275 . S
Cd177 O176 2.300 . S
Cd177 O185 2.381 . S
Cd177 O186 2.378 . S
O178 Cd179 2.385 . S
O178 C183 1.255 . S
Cd179 O178 2.385 . S
Cd179 O180 2.317 . S
O180 Cd179 2.317 . S
O180 C181 1.232 . S
C181 O180 1.232 . S
C181 O182 1.218 . S
O182 C181 1.218 . S
C183 O176 1.275 . S
C183 O178 1.255 . S
C184 O185 1.258 . S
C184 O186 1.256 . S
O185 Cd177 2.381 . S
O185 C184 1.258 . S
O186 Cd177 2.378 . S
O186 C184 1.256 . S
O187 Cd188 2.300 . S
O187 C194 1.275 . S
Cd188 O187 2.300 . S
Cd188 O196 2.381 . S
Cd188 O197 2.378 . S
O189 Cd190 2.385 . S
O189 C194 1.255 . S
Cd190 O189 2.385 . S
Cd190 O191 2.317 . S
O191 Cd190 2.317 . S
O191 C192 1.232 . S
C192 O191 1.232 . S
C192 O193 1.218 . S
O193 C192 1.218 . S
C194 O187 1.275 . S
C194 O189 1.255 . S
C195 O196 1.258 . S
C195 O197 1.256 . S
O196 Cd188 2.381 . S
O196 C195 1.258 . S
O197 Cd188 2.378 . S
O197 C195 1.256 . S
O198 Cd199 2.300 . S
O198 C205 1.275 . S
Cd199 O198 2.300 . S
Cd199 O207 2.381 . S
Cd199 O208 2.378 . S
O200 Cd201 2.385 . S
O200 C205 1.255 . S
Cd201 O200 2.385 . S
Cd201 O202 2.317 . S
O202 Cd201 2.317 . S
O202 C203 1.232 . S
C203 O202 1.232 . S
C203 O204 1.218 . S
O204 C203 1.218 . S
C205 O198 1.275 . S
C205 O200 1.255 . S
C206 O207 1.258 . S
C206 O208 1.256 . S
O207 Cd199 2.381 . S
O207 C206 1.258 . S
O208 Cd199 2.378 . S
O208 C206 1.256 . S
O209 Cd210 2.300 . S
O209 C216 1.275 . S
Cd210 O209 2.300 . S
Cd210 O218 2.381 . S
Cd210 O219 2.378 . S
O211 Cd212 2.385 . S
O211 C216 1.255 . S
Cd212 O211 2.385 . S
Cd212 O213 2.317 . S
O213 Cd212 2.317 . S
O213 C214 1.232 . S
C214 O213 1.232 . S
C214 O215 1.218 . S
O215 C214 1.218 . S
C216 O209 1.275 . S
C216 O211 1.255 . S
C217 O218 1.258 . S
C217 O219 1.256 . S
O218 Cd210 2.381 . S
O218 C217 1.258 . S
O219 Cd210 2.378 . S
O219 C217 1.256 . S
O220 Cd221 2.300 . S
O220 C227 1.275 . S
Cd221 O220 2.300 . S
Cd221 O229 2.381 . S
Cd221 O230 2.378 . S
O222 Cd223 2.385 . S
O222 C227 1.255 . S
Cd223 O222 2.385 . S
Cd223 O224 2.317 . S
O224 Cd223 2.317 . S
O224 C225 1.232 . S
C225 O224 1.232 . S
C225 O226 1.218 . S
O226 C225 1.218 . S
C227 O220 1.275 . S
C227 O222 1.255 . S
C228 O229 1.258 . S
C228 O230 1.256 . S
O229 Cd221 2.381 . S
O229 C228 1.258 . S
O230 Cd221 2.378 . S
O230 C228 1.256 . S
O231 Cd232 2.300 . S
O231 C238 1.275 . S
Cd232 O231 2.300 . S
Cd232 O240 2.381 . S
Cd232 O241 2.378 . S
O233 Cd234 2.385 . S
O233 C238 1.255 . S
Cd234 O233 2.385 . S
Cd234 O235 2.317 . S
O235 Cd234 2.317 . S
O235 C236 1.232 . S
C236 O235 1.232 . S
C236 O237 1.218 . S
O237 C236 1.218 . S
C238 O231 1.275 . S
C238 O233 1.255 . S
C239 O240 1.258 . S
C239 O241 1.256 . S
O240 Cd232 2.381 . S
O240 C239 1.258 . S
O241 Cd232 2.378 . S
O241 C239 1.256 . S
O242 Cd243 2.300 . S
O242 C249 1.275 . S
Cd243 O242 2.300 . S
Cd243 O251 2.381 . S
Cd243 O252 2.378 . S
O244 Cd245 2.385 . S
O244 C249 1.255 . S
Cd245 O244 2.385 . S
Cd245 O246 2.317 . S
O246 Cd245 2.317 . S
O246 C247 1.232 . S
C247 O246 1.232 . S
C247 O248 1.218 . S
O248 C247 1.218 . S
C249 O242 1.275 . S
C249 O244 1.255 . S
C250 O251 1.258 . S
C250 O252 1.256 . S
O251 Cd243 2.381 . S
O251 C250 1.258 . S
O252 Cd243 2.378 . S
O252 C250 1.256 . S
O253 Cd254 2.300 . S
O253 C260 1.275 . S
Cd254 O253 2.300 . S
Cd254 O262 2.381 . S
Cd254 O263 2.378 . S
O255 Cd256 2.385 . S
O255 C260 1.255 . S
Cd256 O255 2.385 . S
Cd256 O257 2.317 . S
O257 Cd256 2.317 . S
O257 C258 1.232 . S
C258 O257 1.232 . S
C258 O259 1.218 . S
O259 C258 1.218 . S
C260 O253 1.275 . S
C260 O255 1.255 . S
C261 O262 1.258 . S
C261 O263 1.256 . S
O262 Cd254 2.381 . S
O262 C261 1.258 . S
O263 Cd254 2.378 . S
O263 C261 1.256 . S
O264 Cd265 2.300 . S
O264 C271 1.275 . S
Cd265 O264 2.300 . S
Cd265 O273 2.381 . S
Cd265 O274 2.378 . S
O266 Cd267 2.385 . S
O266 C271 1.255 . S
Cd267 O266 2.385 . S
Cd267 O268 2.317 . S
O268 Cd267 2.317 . S
O268 C269 1.232 . S
C269 O268 1.232 . S
C269 O270 1.218 . S
O270 C269 1.218 . S
C271 O264 1.275 . S
C271 O266 1.255 . S
C272 O273 1.258 . S
C272 O274 1.256 . S
O273 Cd265 2.381 . S
O273 C272 1.258 . S
O274 Cd265 2.378 . S
O274 C272 1.256 . S
O275 Cd276 2.300 . S
O275 C282 1.275 . S
Cd276 O275 2.300 . S
Cd276 O284 2.381 . S
Cd276 O285 2.378 . S
O277 Cd278 2.385 . S
O277 C282 1.255 . S
Cd278 O277 2.385 . S
Cd278 O279 2.317 . S
O279 Cd278 2.317 . S
O279 C280 1.232 . S
C280 O279 1.232 . S
C280 O281 1.218 . S
O281 C280 1.218 . S
C282 O275 1.275 . S
C282 O277 1.255 . S
C283 O284 1.258 . S
C283 O285 1.256 . S
O284 Cd276 2.381 . S
O284 C283 1.258 . S
O285 Cd276 2.378 . S
O285 C283 1.256 . S
O286 Cd287 2.300 . S
O286 C293 1.275 . S
Cd287 O286 2.300 . S
Cd287 O295 2.381 . S
Cd287 O296 2.378 . S
O288 Cd289 2.385 . S
O288 C293 1.255 . S
Cd289 O288 2.385 . S
Cd289 O290 2.317 . S
O290 Cd289 2.317 . S
O290 C291 1.232 . S
C291 O290 1.232 . S
C291 O292 1.218 . S
O292 C291 1.218 . S
C293 O286 1.275 . S
C293 O288 1.255 . S
C294 O295 1.258 . S
C294 O296 1.256 . S
O295 Cd287 2.381 . S
O295 C294 1.258 . S
O296 Cd287 2.378 . S
O296 C294 1.256 . S
O297 Cd298 2.300 . S
O297 C304 1.275 . S
Cd298 O297 2.300 . S
Cd298 O306 2.381 . S
Cd298 O307 2.378 . S
O299 Cd300 2.385 . S
O299 C304 1.255 . S
Cd300 O299 2.385 . S
Cd300 O301 2.317 . S
O301 Cd300 2.317 . S
O301 C302 1.232 . S
C302 O301 1.232 . S
C302 O303 1.218 . S
O303 C302 1.218 . S
C304 O297 1.275 . S
C304 O299 1.255 . S
C305 O306 1.258 . S
C305 O307 1.256 . S
O306 Cd298 2.381 . S
O306 C305 1.258 . S
O307 Cd298 2.378 . S
O307 C305 1.256 . S
O308 Cd309 2.300 . S
O308 C315 1.275 . S
Cd309 O308 2.300 . S
Cd309 O317 2.381 . S
Cd309 O318 2.378 . S
O310 Cd311 2.385 . S
O310 C315 1.255 . S
Cd311 O310 2.385 . S
Cd311 O312 2.317 . S
O312 Cd311 2.317 . S
O312 C313 1.232 . S
C313 O312 1.232 . S
C313 O314 1.218 . S
O314 C313 1.218 . S
C315 O308 1.275 . S
C315 O310 1.255 . S
C316 O317 1.258 . S
C316 O318 1.256 . S
O317 Cd309 2.381 . S
O317 C316 1.258 . S
O318 Cd309 2.378 . S
O318 C316 1.256 . S
O319 Cd320 2.300 . S
O319 C326 1.275 . S
Cd320 O319 2.300 . S
Cd320 O328 2.381 . S
Cd320 O329 2.378 . S
O321 Cd322 2.385 . S
O321 C326 1.255 . S
Cd322 O321 2.385 . S
Cd322 O323 2.317 . S
O323 Cd322 2.317 . S
O323 C324 1.232 . S
C324 O323 1.232 . S
C324 O325 1.218 . S
O325 C324 1.218 . S
C326 O319 1.275 . S
C326 O321 1.255 . S
C327 O328 1.258 . S
C327 O329 1.256 . S
O328 Cd320 2.381 . S
O328 C327 1.258 . S
O329 Cd320 2.378 . S
O329 C327 1.256 . S
O330 Cd331 2.300 . S
O330 C337 1.275 . S
Cd331 O330 2.300 . S
Cd331 O339 2.381 . S
Cd331 O340 2.378 . S
O332 Cd333 2.385 . S
O332 C337 1.255 . S
Cd333 O332 2.385 . S
Cd333 O334 2.317 . S
O334 Cd333 2.317 . S
O334 C335 1.232 . S
C335 O334 1.232 . S
C335 O336 1.218 . S
O336 C335 1.218 . S
C337 O330 1.275 . S
C337 O332 1.255 . S
C338 O339 1.258 . S
C338 O340 1.256 . S
O339 Cd331 2.381 . S
O339 C338 1.258 . S
O340 Cd331 2.378 . S
O340 C338 1.256 . S
O341 Cd342 2.300 . S
O341 C348 1.275 . S
Cd342 O341 2.300 . S
Cd342 O350 2.381 . S
Cd342 O351 2.378 . S
O343 Cd344 2.385 . S
O343 C348 1.255 . S
Cd344 O343 2.385 . S
Cd344 O345 2.317 . S
O345 Cd344 2.317 . S
O345 C346 1.232 . S
C346 O345 1.232 . S
C346 O347 1.218 . S
O347 C346 1.218 . S
C348 O341 1.275 . S
C348 O343 1.255 . S
C349 O350 1.258 . S
C349 O351 1.256 . S
O350 Cd342 2.381 . S
O350 C349 1.258 . S
O351 Cd342 2.378 . S
O351 C349 1.256 . S
C352 C353 1.384 . S
C352 C354 1.384 . S
C352 H380 0.931 . S
C353 C352 1.384 . S
C353 C356 1.382 . S
C354 C352 1.384 . S
C354 C355 1.381 . S
C354 H381 0.930 . S
C355 C354 1.381 . S
C355 C357 1.381 . S
C355 C358 1.487 . S
C356 C353 1.382 . S
C356 C357 1.387 . S
C356 H382 0.930 . S
C357 C355 1.381 . S
C357 C356 1.387 . S
C357 H383 0.931 . S
C358 C355 1.487 . S
C358 C365 1.399 . S
C358 N396 1.343 . S
C359 C360 1.384 . S
C359 C361 1.384 . S
C359 H384 0.931 . S
C360 C359 1.384 . S
C360 C363 1.382 . S
C361 C359 1.384 . S
C361 C362 1.381 . S
C361 H385 0.930 . S
C362 C361 1.381 . S
C362 C364 1.381 . S
C362 C365 1.487 . S
C363 C360 1.382 . S
C363 C364 1.387 . S
C363 H386 0.930 . S
C364 C362 1.381 . S
C364 C363 1.387 . S
C364 H387 0.931 . S
C365 C358 1.399 . S
C365 C362 1.487 . S
C365 N397 1.343 . S
C366 C367 1.384 . S
C366 C368 1.384 1_556 S
C366 H388 0.931 . S
C367 C366 1.384 . S
C367 C370 1.382 1_556 S
C368 C366 1.384 1_554 S
C368 C369 1.381 . S
C368 H389 0.930 . S
C369 C368 1.381 . S
C369 C371 1.381 . S
C369 C372 1.487 . S
C370 C367 1.382 1_554 S
C370 C371 1.387 . S
C370 H390 0.930 . S
C371 C369 1.381 . S
C371 C370 1.387 . S
C371 H391 0.931 . S
C372 C369 1.487 . S
C372 C379 1.399 . S
C372 N397 1.343 . S
C373 C374 1.384 . S
C373 C375 1.384 1_556 S
C373 H392 0.931 . S
C374 C373 1.384 . S
C374 C377 1.382 1_556 S
C375 C373 1.384 1_554 S
C375 C376 1.381 . S
C375 H393 0.930 . S
C376 C375 1.381 . S
C376 C378 1.381 . S
C376 C379 1.487 . S
C377 C374 1.382 1_554 S
C377 C378 1.387 . S
C377 H394 0.930 . S
C378 C376 1.381 . S
C378 C377 1.387 . S
C378 H395 0.931 . S
C379 C372 1.399 . S
C379 C376 1.487 . S
C379 N396 1.343 . S
H380 C352 0.931 . S
H381 C354 0.930 . S
H382 C356 0.930 . S
H383 C357 0.931 . S
H384 C359 0.931 . S
H385 C361 0.930 . S
H386 C363 0.930 . S
H387 C364 0.931 . S
H388 C366 0.931 . S
H389 C368 0.930 . S
H390 C370 0.930 . S
H391 C371 0.931 . S
H392 C373 0.931 . S
H393 C375 0.930 . S
H394 C377 0.930 . S
H395 C378 0.931 . S
N396 C358 1.343 . S
N396 C379 1.343 . S
N397 C365 1.343 . S
N397 C372 1.343 . S
C398 C399 1.384 . S
C398 C400 1.384 . S
C398 H426 0.931 . S
C399 C398 1.384 . S
C399 C402 1.382 . S
C400 C398 1.384 . S
C400 C401 1.381 . S
C400 H427 0.930 . S
C401 C400 1.381 . S
C401 C403 1.381 . S
C401 C404 1.487 . S
C402 C399 1.382 . S
C402 C403 1.387 . S
C402 H428 0.930 . S
C403 C401 1.381 . S
C403 C402 1.387 . S
C403 H429 0.931 . S
C404 C401 1.487 . S
C404 C411 1.399 . S
C404 N442 1.343 . S
C405 C406 1.384 . S
C405 C407 1.384 . S
C405 H430 0.931 . S
C406 C405 1.384 . S
C406 C409 1.382 . S
C407 C405 1.384 . S
C407 C408 1.381 . S
C407 H431 0.930 . S
C408 C407 1.381 . S
C408 C410 1.381 . S
C408 C411 1.487 . S
C409 C406 1.382 . S
C409 C410 1.387 . S
C409 H432 0.930 . S
C410 C408 1.381 . S
C410 C409 1.387 . S
C410 H433 0.931 . S
C411 C404 1.399 . S
C411 C408 1.487 . S
C411 N443 1.343 1_556 S
C412 C413 1.384 . S
C412 C414 1.384 . S
C412 H434 0.931 . S
C413 C412 1.384 . S
C413 C416 1.382 . S
C414 C412 1.384 . S
C414 C415 1.381 . S
C414 H435 0.930 . S
C415 C414 1.381 . S
C415 C417 1.381 . S
C415 C418 1.487 . S
C416 C413 1.382 . S
C416 C417 1.387 . S
C416 H436 0.930 . S
C417 C415 1.381 . S
C417 C416 1.387 . S
C417 H437 0.931 . S
C418 C415 1.487 . S
C418 C425 1.399 . S
C418 N443 1.343 . S
C419 C420 1.384 . S
C419 C421 1.384 . S
C419 H438 0.931 . S
C420 C419 1.384 . S
C420 C423 1.382 . S
C421 C419 1.384 . S
C421 C422 1.381 . S
C421 H439 0.930 . S
C422 C421 1.381 . S
C422 C424 1.381 . S
C422 C425 1.487 . S
C423 C420 1.382 . S
C423 C424 1.387 . S
C423 H440 0.930 . S
C424 C422 1.381 . S
C424 C423 1.387 . S
C424 H441 0.931 . S
C425 C418 1.399 . S
C425 C422 1.487 . S
C425 N442 1.343 1_554 S
H426 C398 0.931 . S
H427 C400 0.930 . S
H428 C402 0.930 . S
H429 C403 0.931 . S
H430 C405 0.931 . S
H431 C407 0.930 . S
H432 C409 0.930 . S
H433 C410 0.931 . S
H434 C412 0.931 . S
H435 C414 0.930 . S
H436 C416 0.930 . S
H437 C417 0.931 . S
H438 C419 0.931 . S
H439 C421 0.930 . S
H440 C423 0.930 . S
H441 C424 0.931 . S
N442 C404 1.343 . S
N442 C425 1.343 1_556 S
N443 C411 1.343 1_554 S
N443 C418 1.343 . S
C444 C445 1.384 . S
C444 C446 1.384 . S
C444 H472 0.931 . S
C445 C444 1.384 . S
C445 C448 1.382 . S
C446 C444 1.384 . S
C446 C447 1.381 . S
C446 H473 0.930 . S
C447 C446 1.381 . S
C447 C449 1.381 . S
C447 C450 1.487 . S
C448 C445 1.382 . S
C448 C449 1.387 . S
C448 H474 0.930 . S
C449 C447 1.381 . S
C449 C448 1.387 . S
C449 H475 0.931 . S
C450 C447 1.487 . S
C450 C457 1.399 . S
C450 N488 1.343 . S
C451 C452 1.384 . S
C451 C453 1.384 . S
C451 H476 0.931 . S
C452 C451 1.384 . S
C452 C455 1.382 . S
C453 C451 1.384 . S
C453 C454 1.381 . S
C453 H477 0.930 . S
C454 C453 1.381 . S
C454 C456 1.381 . S
C454 C457 1.487 . S
C455 C452 1.382 . S
C455 C456 1.387 . S
C455 H478 0.930 . S
C456 C454 1.381 . S
C456 C455 1.387 . S
C456 H479 0.931 . S
C457 C450 1.399 . S
C457 C454 1.487 . S
C457 N489 1.343 . S
C458 C459 1.384 . S
C458 C460 1.384 1_556 S
C458 H480 0.931 . S
C459 C458 1.384 . S
C459 C462 1.382 1_556 S
C460 C458 1.384 1_554 S
C460 C461 1.381 . S
C460 H481 0.930 . S
C461 C460 1.381 . S
C461 C463 1.381 . S
C461 C464 1.487 . S
C462 C459 1.382 1_554 S
C462 C463 1.387 . S
C462 H482 0.930 . S
C463 C461 1.381 . S
C463 C462 1.387 . S
C463 H483 0.931 . S
C464 C461 1.487 . S
C464 C471 1.399 . S
C464 N489 1.343 . S
C465 C466 1.384 . S
C465 C467 1.384 1_556 S
C465 H484 0.931 . S
C466 C465 1.384 . S
C466 C469 1.382 1_556 S
C467 C465 1.384 1_554 S
C467 C468 1.381 . S
C467 H485 0.930 . S
C468 C467 1.381 . S
C468 C470 1.381 . S
C468 C471 1.487 . S
C469 C466 1.382 1_554 S
C469 C470 1.387 . S
C469 H486 0.930 . S
C470 C468 1.381 . S
C470 C469 1.387 . S
C470 H487 0.931 . S
C471 C464 1.399 . S
C471 C468 1.487 . S
C471 N488 1.343 . S
H472 C444 0.931 . S
H473 C446 0.930 . S
H474 C448 0.930 . S
H475 C449 0.931 . S
H476 C451 0.931 . S
H477 C453 0.930 . S
H478 C455 0.930 . S
H479 C456 0.931 . S
H480 C458 0.931 . S
H481 C460 0.930 . S
H482 C462 0.930 . S
H483 C463 0.931 . S
H484 C465 0.931 . S
H485 C467 0.930 . S
H486 C469 0.930 . S
H487 C470 0.931 . S
N488 C450 1.343 . S
N488 C471 1.343 . S
N489 C457 1.343 . S
N489 C464 1.343 . S
C490 C491 1.384 . S
C490 C492 1.384 . S
C490 H518 0.931 . S
C491 C490 1.384 . S
C491 C494 1.382 . S
C492 C490 1.384 . S
C492 C493 1.381 . S
C492 H519 0.930 . S
C493 C492 1.381 . S
C493 C495 1.381 . S
C493 C496 1.487 . S
C494 C491 1.382 . S
C494 C495 1.387 . S
C494 H520 0.930 . S
C495 C493 1.381 . S
C495 C494 1.387 . S
C495 H521 0.931 . S
C496 C493 1.487 . S
C496 C503 1.399 . S
C496 N534 1.343 . S
C497 C498 1.384 . S
C497 C499 1.384 . S
C497 H522 0.931 . S
C498 C497 1.384 . S
C498 C501 1.382 . S
C499 C497 1.384 . S
C499 C500 1.381 . S
C499 H523 0.930 . S
C500 C499 1.381 . S
C500 C502 1.381 . S
C500 C503 1.487 . S
C501 C498 1.382 . S
C501 C502 1.387 . S
C501 H524 0.930 . S
C502 C500 1.381 . S
C502 C501 1.387 . S
C502 H525 0.931 . S
C503 C496 1.399 . S
C503 C500 1.487 . S
C503 N535 1.343 1_556 S
C504 C505 1.384 . S
C504 C506 1.384 . S
C504 H526 0.931 . S
C505 C504 1.384 . S
C505 C508 1.382 . S
C506 C504 1.384 . S
C506 C507 1.381 . S
C506 H527 0.930 . S
C507 C506 1.381 . S
C507 C509 1.381 . S
C507 C510 1.487 . S
C508 C505 1.382 . S
C508 C509 1.387 . S
C508 H528 0.930 . S
C509 C507 1.381 . S
C509 C508 1.387 . S
C509 H529 0.931 . S
C510 C507 1.487 . S
C510 C517 1.399 . S
C510 N535 1.343 . S
C511 C512 1.384 . S
C511 C513 1.384 . S
C511 H530 0.931 . S
C512 C511 1.384 . S
C512 C515 1.382 . S
C513 C511 1.384 . S
C513 C514 1.381 . S
C513 H531 0.930 . S
C514 C513 1.381 . S
C514 C516 1.381 . S
C514 C517 1.487 . S
C515 C512 1.382 . S
C515 C516 1.387 . S
C515 H532 0.930 . S
C516 C514 1.381 . S
C516 C515 1.387 . S
C516 H533 0.931 . S
C517 C510 1.399 . S
C517 C514 1.487 . S
C517 N534 1.343 1_554 S
H518 C490 0.931 . S
H519 C492 0.930 . S
H520 C494 0.930 . S
H521 C495 0.931 . S
H522 C497 0.931 . S
H523 C499 0.930 . S
H524 C501 0.930 . S
H525 C502 0.931 . S
H526 C504 0.931 . S
H527 C506 0.930 . S
H528 C508 0.930 . S
H529 C509 0.931 . S
H530 C511 0.931 . S
H531 C513 0.930 . S
H532 C515 0.930 . S
H533 C516 0.931 . S
N534 C496 1.343 . S
N534 C517 1.343 1_556 S
N535 C503 1.343 1_554 S
N535 C510 1.343 . S
C536 C537 1.384 . S
C536 C538 1.384 . S
C536 H564 0.931 . S
C537 C536 1.384 . S
C537 C540 1.382 . S
C538 C536 1.384 . S
C538 C539 1.381 . S
C538 H565 0.930 . S
C539 C538 1.381 . S
C539 C541 1.381 . S
C539 C542 1.487 . S
C540 C537 1.382 . S
C540 C541 1.387 . S
C540 H566 0.930 . S
C541 C539 1.381 . S
C541 C540 1.387 . S
C541 H567 0.931 . S
C542 C539 1.487 . S
C542 C549 1.399 . S
C542 N580 1.343 1_655 S
C543 C544 1.384 . S
C543 C545 1.384 . S
C543 H568 0.931 . S
C544 C543 1.384 . S
C544 C547 1.382 . S
C545 C543 1.384 . S
C545 C546 1.381 . S
C545 H569 0.930 . S
C546 C545 1.381 . S
C546 C548 1.381 . S
C546 C549 1.487 . S
C547 C544 1.382 . S
C547 C548 1.387 . S
C547 H570 0.930 . S
C548 C546 1.381 . S
C548 C547 1.387 . S
C548 H571 0.931 . S
C549 C542 1.399 . S
C549 C546 1.487 . S
C549 N581 1.343 1_655 S
C550 C551 1.384 . S
C550 C552 1.384 . S
C550 H572 0.931 . S
C551 C550 1.384 . S
C551 C554 1.382 . S
C552 C550 1.384 . S
C552 C553 1.381 . S
C552 H573 0.930 . S
C553 C552 1.381 . S
C553 C555 1.381 . S
C553 C556 1.487 . S
C554 C551 1.382 . S
C554 C555 1.387 . S
C554 H574 0.930 . S
C555 C553 1.381 . S
C555 C554 1.387 . S
C555 H575 0.931 . S
C556 C553 1.487 . S
C556 C563 1.399 . S
C556 N581 1.343 . S
C557 C558 1.384 . S
C557 C559 1.384 . S
C557 H576 0.931 . S
C558 C557 1.384 . S
C558 C561 1.382 . S
C559 C557 1.384 . S
C559 C560 1.381 . S
C559 H577 0.930 . S
C560 C559 1.381 . S
C560 C562 1.381 . S
C560 C563 1.487 . S
C561 C558 1.382 . S
C561 C562 1.387 . S
C561 H578 0.930 . S
C562 C560 1.381 . S
C562 C561 1.387 . S
C562 H579 0.931 . S
C563 C556 1.399 . S
C563 C560 1.487 . S
C563 N580 1.343 . S
H564 C536 0.931 . S
H565 C538 0.930 . S
H566 C540 0.930 . S
H567 C541 0.931 . S
H568 C543 0.931 . S
H569 C545 0.930 . S
H570 C547 0.930 . S
H571 C548 0.931 . S
H572 C550 0.931 . S
H573 C552 0.930 . S
H574 C554 0.930 . S
H575 C555 0.931 . S
H576 C557 0.931 . S
H577 C559 0.930 . S
H578 C561 0.930 . S
H579 C562 0.931 . S
N580 C542 1.343 1_455 S
N580 C563 1.343 . S
N581 C549 1.343 1_455 S
N581 C556 1.343 . S
C582 C583 1.384 . S
C582 C584 1.384 . S
C582 H610 0.931 . S
C583 C582 1.384 . S
C583 C586 1.382 . S
C584 C582 1.384 . S
C584 C585 1.381 . S
C584 H611 0.930 . S
C585 C584 1.381 . S
C585 C587 1.381 . S
C585 C588 1.487 . S
C586 C583 1.382 . S
C586 C587 1.387 . S
C586 H612 0.930 . S
C587 C585 1.381 . S
C587 C586 1.387 . S
C587 H613 0.931 . S
C588 C585 1.487 . S
C588 C595 1.399 . S
C588 N626 1.343 1_565 S
C589 C590 1.384 . S
C589 C591 1.384 . S
C589 H614 0.931 . S
C590 C589 1.384 . S
C590 C593 1.382 . S
C591 C589 1.384 . S
C591 C592 1.381 . S
C591 H615 0.930 . S
C592 C591 1.381 . S
C592 C594 1.381 . S
C592 C595 1.487 . S
C593 C590 1.382 . S
C593 C594 1.387 . S
C593 H616 0.930 . S
C594 C592 1.381 . S
C594 C593 1.387 . S
C594 H617 0.931 . S
C595 C588 1.399 . S
C595 C592 1.487 . S
C595 N627 1.343 1_565 S
C596 C597 1.384 . S
C596 C598 1.384 . S
C596 H618 0.931 . S
C597 C596 1.384 . S
C597 C600 1.382 . S
C598 C596 1.384 . S
C598 C599 1.381 . S
C598 H619 0.930 . S
C599 C598 1.381 . S
C599 C601 1.381 . S
C599 C602 1.487 . S
C600 C597 1.382 . S
C600 C601 1.387 . S
C600 H620 0.930 . S
C601 C599 1.381 . S
C601 C600 1.387 . S
C601 H621 0.931 . S
C602 C599 1.487 . S
C602 C609 1.399 . S
C602 N627 1.343 . S
C603 C604 1.384 . S
C603 C605 1.384 . S
C603 H622 0.931 . S
C604 C603 1.384 . S
C604 C607 1.382 . S
C605 C603 1.384 . S
C605 C606 1.381 . S
C605 H623 0.930 . S
C606 C605 1.381 . S
C606 C608 1.381 . S
C606 C609 1.487 . S
C607 C604 1.382 . S
C607 C608 1.387 . S
C607 H624 0.930 . S
C608 C606 1.381 . S
C608 C607 1.387 . S
C608 H625 0.931 . S
C609 C602 1.399 . S
C609 C606 1.487 . S
C609 N626 1.343 . S
H610 C582 0.931 . S
H611 C584 0.930 . S
H612 C586 0.930 . S
H613 C587 0.931 . S
H614 C589 0.931 . S
H615 C591 0.930 . S
H616 C593 0.930 . S
H617 C594 0.931 . S
H618 C596 0.931 . S
H619 C598 0.930 . S
H620 C600 0.930 . S
H621 C601 0.931 . S
H622 C603 0.931 . S
H623 C605 0.930 . S
H624 C607 0.930 . S
H625 C608 0.931 . S
N626 C588 1.343 1_545 S
N626 C609 1.343 . S
N627 C595 1.343 1_545 S
N627 C602 1.343 . S
C628 C629 1.384 . S
C628 C630 1.384 . S
C628 H656 0.931 . S
C629 C628 1.384 . S
C629 C632 1.382 . S
C630 C628 1.384 . S
C630 C631 1.381 . S
C630 H657 0.930 . S
C631 C630 1.381 . S
C631 C633 1.381 . S
C631 C634 1.487 . S
C632 C629 1.382 . S
C632 C633 1.387 . S
C632 H658 0.930 . S
C633 C631 1.381 . S
C633 C632 1.387 . S
C633 H659 0.931 . S
C634 C631 1.487 . S
C634 C641 1.399 . S
C634 N672 1.343 . S
C635 C636 1.384 . S
C635 C637 1.384 . S
C635 H660 0.931 . S
C636 C635 1.384 . S
C636 C639 1.382 . S
C637 C635 1.384 . S
C637 C638 1.381 . S
C637 H661 0.930 . S
C638 C637 1.381 . S
C638 C640 1.381 . S
C638 C641 1.487 . S
C639 C636 1.382 . S
C639 C640 1.387 . S
C639 H662 0.930 . S
C640 C638 1.381 . S
C640 C639 1.387 . S
C640 H663 0.931 . S
C641 C634 1.399 . S
C641 C638 1.487 . S
C641 N673 1.343 . S
C642 C643 1.384 . S
C642 C644 1.384 . S
C642 H664 0.931 . S
C643 C642 1.384 . S
C643 C646 1.382 . S
C644 C642 1.384 . S
C644 C645 1.381 . S
C644 H665 0.930 . S
C645 C644 1.381 . S
C645 C647 1.381 . S
C645 C648 1.487 . S
C646 C643 1.382 . S
C646 C647 1.387 . S
C646 H666 0.930 . S
C647 C645 1.381 . S
C647 C646 1.387 . S
C647 H667 0.931 . S
C648 C645 1.487 . S
C648 C655 1.399 . S
C648 N673 1.343 . S
C649 C650 1.384 . S
C649 C651 1.384 . S
C649 H668 0.931 . S
C650 C649 1.384 . S
C650 C653 1.382 . S
C651 C649 1.384 . S
C651 C652 1.381 . S
C651 H669 0.930 . S
C652 C651 1.381 . S
C652 C654 1.381 . S
C652 C655 1.487 . S
C653 C650 1.382 . S
C653 C654 1.387 . S
C653 H670 0.930 . S
C654 C652 1.381 . S
C654 C653 1.387 . S
C654 H671 0.931 . S
C655 C648 1.399 . S
C655 C652 1.487 . S
C655 N672 1.343 . S
H656 C628 0.931 . S
H657 C630 0.930 . S
H658 C632 0.930 . S
H659 C633 0.931 . S
H660 C635 0.931 . S
H661 C637 0.930 . S
H662 C639 0.930 . S
H663 C640 0.931 . S
H664 C642 0.931 . S
H665 C644 0.930 . S
H666 C646 0.930 . S
H667 C647 0.931 . S
H668 C649 0.931 . S
H669 C651 0.930 . S
H670 C653 0.930 . S
H671 C654 0.931 . S
N672 C634 1.343 . S
N672 C655 1.343 . S
N673 C641 1.343 . S
N673 C648 1.343 . S
C674 C675 1.384 . S
C674 C676 1.384 . S
C674 H702 0.931 . S
C675 C674 1.384 . S
C675 C678 1.382 . S
C676 C674 1.384 . S
C676 C677 1.381 . S
C676 H703 0.930 . S
C677 C676 1.381 . S
C677 C679 1.381 . S
C677 C680 1.487 1_565 S
C678 C675 1.382 . S
C678 C679 1.387 . S
C678 H704 0.930 . S
C679 C677 1.381 . S
C679 C678 1.387 . S
C679 H705 0.931 . S
C680 C677 1.487 1_545 S
C680 C687 1.399 . S
C680 N718 1.343 . S
C681 C682 1.384 . S
C681 C683 1.384 . S
C681 H706 0.931 . S
C682 C681 1.384 . S
C682 C685 1.382 . S
C683 C681 1.384 . S
C683 C684 1.356 1_565 S
C683 H707 0.930 . S
C684 C683 1.356 1_545 S
C684 C686 1.380 . S
C684 C687 1.515 . S
C685 C682 1.382 . S
C685 C686 1.387 1_565 S
C685 H708 0.930 . S
C686 C684 1.380 . S
C686 C685 1.387 1_545 S
C686 H709 0.931 . S
C687 C680 1.399 . S
C687 C684 1.515 . S
C687 N719 1.343 . S
C688 C689 1.384 . S
C688 C690 1.384 . S
C688 H710 0.931 . S
C689 C688 1.384 . S
C689 C692 1.382 . S
C690 C688 1.384 . S
C690 C691 1.381 . S
C690 H711 0.930 . S
C691 C690 1.381 . S
C691 C693 1.381 . S
C691 C694 1.487 . S
C692 C689 1.382 . S
C692 C693 1.387 . S
C692 H712 0.930 . S
C693 C691 1.381 . S
C693 C692 1.387 . S
C693 H713 0.931 . S
C694 C691 1.487 . S
C694 C701 1.399 . S
C694 N719 1.343 . S
C695 C696 1.384 . S
C695 C697 1.384 . S
C695 H714 0.931 . S
C696 C695 1.384 . S
C696 C699 1.382 . S
C697 C695 1.384 . S
C697 C698 1.381 . S
C697 H715 0.930 . S
C698 C697 1.381 . S
C698 C700 1.381 . S
C698 C701 1.487 . S
C699 C696 1.382 . S
C699 C700 1.387 . S
C699 H716 0.930 . S
C700 C698 1.381 . S
C700 C699 1.387 . S
C700 H717 0.931 . S
C701 C694 1.399 . S
C701 C698 1.487 . S
C701 N718 1.343 . S
H702 C674 0.931 . S
H703 C676 0.930 . S
H704 C678 0.930 . S
H705 C679 0.931 . S
H706 C681 0.931 . S
H707 C683 0.930 . S
H708 C685 0.930 . S
H709 C686 0.931 . S
H710 C688 0.931 . S
H711 C690 0.930 . S
H712 C692 0.930 . S
H713 C693 0.931 . S
H714 C695 0.931 . S
H715 C697 0.930 . S
H716 C699 0.930 . S
H717 C700 0.931 . S
N718 C680 1.343 . S
N718 C701 1.343 . S
N719 C687 1.343 . S
N719 C694 1.343 . S
C720 C721 1.384 . S
C720 C722 1.384 . S
C720 H748 0.931 . S
C721 C720 1.384 . S
C721 C724 1.382 . S
C722 C720 1.384 . S
C722 C723 1.381 . S
C722 H749 0.930 . S
C723 C722 1.381 . S
C723 C725 1.381 . S
C723 C726 1.487 . S
C724 C721 1.382 . S
C724 C725 1.387 . S
C724 H750 0.930 . S
C725 C723 1.381 . S
C725 C724 1.387 . S
C725 H751 0.931 . S
C726 C723 1.487 . S
C726 C733 1.399 . S
C726 N764 1.343 1_655 S
C727 C728 1.384 . S
C727 C729 1.384 . S
C727 H752 0.931 . S
C728 C727 1.384 . S
C728 C731 1.382 . S
C729 C727 1.384 . S
C729 C730 1.381 . S
C729 H753 0.930 . S
C730 C729 1.381 . S
C730 C732 1.381 . S
C730 C733 1.487 . S
C731 C728 1.382 . S
C731 C732 1.387 . S
C731 H754 0.930 . S
C732 C730 1.381 . S
C732 C731 1.387 . S
C732 H755 0.931 . S
C733 C726 1.399 . S
C733 C730 1.487 . S
C733 N765 1.343 1_655 S
C734 C735 1.384 . S
C734 C736 1.384 . S
C734 H756 0.931 . S
C735 C734 1.384 . S
C735 C738 1.382 . S
C736 C734 1.384 . S
C736 C737 1.381 . S
C736 H757 0.930 . S
C737 C736 1.381 . S
C737 C739 1.381 . S
C737 C740 1.487 . S
C738 C735 1.382 . S
C738 C739 1.387 . S
C738 H758 0.930 . S
C739 C737 1.381 . S
C739 C738 1.387 . S
C739 H759 0.931 . S
C740 C737 1.487 . S
C740 C747 1.399 . S
C740 N765 1.343 . S
C741 C742 1.384 . S
C741 C743 1.384 . S
C741 H760 0.931 . S
C742 C741 1.384 . S
C742 C745 1.382 . S
C743 C741 1.384 . S
C743 C744 1.381 . S
C743 H761 0.930 . S
C744 C743 1.381 . S
C744 C746 1.381 . S
C744 C747 1.487 . S
C745 C742 1.382 . S
C745 C746 1.387 . S
C745 H762 0.930 . S
C746 C744 1.381 . S
C746 C745 1.387 . S
C746 H763 0.931 . S
C747 C740 1.399 . S
C747 C744 1.487 . S
C747 N764 1.343 . S
H748 C720 0.931 . S
H749 C722 0.930 . S
H750 C724 0.930 . S
H751 C725 0.931 . S
H752 C727 0.931 . S
H753 C729 0.930 . S
H754 C731 0.930 . S
H755 C732 0.931 . S
H756 C734 0.931 . S
H757 C736 0.930 . S
H758 C738 0.930 . S
H759 C739 0.931 . S
H760 C741 0.931 . S
H761 C743 0.930 . S
H762 C745 0.930 . S
H763 C746 0.931 . S
N764 C726 1.343 1_455 S
N764 C747 1.343 . S
N765 C733 1.343 1_455 S
N765 C740 1.343 . S
C766 C767 1.384 . S
C766 C768 1.384 . S
C766 H794 0.931 . S
C767 C766 1.384 . S
C767 C770 1.382 . S
C768 C766 1.384 . S
C768 C769 1.381 . S
C768 H795 0.930 . S
C769 C768 1.381 . S
C769 C771 1.381 . S
C769 C772 1.487 . S
C770 C767 1.382 . S
C770 C771 1.387 . S
C770 H796 0.930 . S
C771 C769 1.381 . S
C771 C770 1.387 . S
C771 H797 0.931 . S
C772 C769 1.487 . S
C772 C779 1.399 . S
C772 N810 1.343 1_565 S
C773 C774 1.384 . S
C773 C775 1.384 . S
C773 H798 0.931 . S
C774 C773 1.384 . S
C774 C777 1.382 . S
C775 C773 1.384 . S
C775 C776 1.381 . S
C775 H799 0.930 . S
C776 C775 1.381 . S
C776 C778 1.381 . S
C776 C779 1.487 . S
C777 C774 1.382 . S
C777 C778 1.387 . S
C777 H800 0.930 . S
C778 C776 1.381 . S
C778 C777 1.387 . S
C778 H801 0.931 . S
C779 C772 1.399 . S
C779 C776 1.487 . S
C779 N811 1.343 1_565 S
C780 C781 1.384 . S
C780 C782 1.384 . S
C780 H802 0.931 . S
C781 C780 1.384 . S
C781 C784 1.382 . S
C782 C780 1.384 . S
C782 C783 1.381 . S
C782 H803 0.930 . S
C783 C782 1.381 . S
C783 C785 1.381 . S
C783 C786 1.487 . S
C784 C781 1.382 . S
C784 C785 1.387 . S
C784 H804 0.930 . S
C785 C783 1.381 . S
C785 C784 1.387 . S
C785 H805 0.931 . S
C786 C783 1.487 . S
C786 C793 1.399 . S
C786 N811 1.343 . S
C787 C788 1.384 . S
C787 C789 1.384 . S
C787 H806 0.931 . S
C788 C787 1.384 . S
C788 C791 1.382 . S
C789 C787 1.384 . S
C789 C790 1.381 . S
C789 H807 0.930 . S
C790 C789 1.381 . S
C790 C792 1.381 . S
C790 C793 1.487 . S
C791 C788 1.382 . S
C791 C792 1.387 . S
C791 H808 0.930 . S
C792 C790 1.381 . S
C792 C791 1.387 . S
C792 H809 0.931 . S
C793 C786 1.399 . S
C793 C790 1.487 . S
C793 N810 1.343 . S
H794 C766 0.931 . S
H795 C768 0.930 . S
H796 C770 0.930 . S
H797 C771 0.931 . S
H798 C773 0.931 . S
H799 C775 0.930 . S
H800 C777 0.930 . S
H801 C778 0.931 . S
H802 C780 0.931 . S
H803 C782 0.930 . S
H804 C784 0.930 . S
H805 C785 0.931 . S
H806 C787 0.931 . S
H807 C789 0.930 . S
H808 C791 0.930 . S
H809 C792 0.931 . S
N810 C772 1.343 1_545 S
N810 C793 1.343 . S
N811 C779 1.343 1_545 S
N811 C786 1.343 . S
C812 C813 1.384 . S
C812 C814 1.384 . S
C812 H840 0.931 . S
C813 C812 1.384 . S
C813 C816 1.382 . S
C814 C812 1.384 . S
C814 C815 1.381 . S
C814 H841 0.930 . S
C815 C814 1.381 . S
C815 C817 1.381 . S
C815 C818 1.487 . S
C816 C813 1.382 . S
C816 C817 1.387 . S
C816 H842 0.930 . S
C817 C815 1.381 . S
C817 C816 1.387 . S
C817 H843 0.931 . S
C818 C815 1.487 . S
C818 C825 1.399 . S
C818 N856 1.343 . S
C819 C820 1.384 . S
C819 C821 1.384 . S
C819 H844 0.931 . S
C820 C819 1.384 . S
C820 C823 1.382 . S
C821 C819 1.384 . S
C821 C822 1.381 . S
C821 H845 0.930 . S
C822 C821 1.381 . S
C822 C824 1.381 . S
C822 C825 1.487 . S
C823 C820 1.382 . S
C823 C824 1.387 . S
C823 H846 0.930 . S
C824 C822 1.381 . S
C824 C823 1.387 . S
C824 H847 0.931 . S
C825 C818 1.399 . S
C825 C822 1.487 . S
C825 N857 1.343 . S
C826 C827 1.384 . S
C826 C828 1.384 . S
C826 H848 0.931 . S
C827 C826 1.384 . S
C827 C830 1.382 . S
C828 C826 1.384 . S
C828 C829 1.381 . S
C828 H849 0.930 . S
C829 C828 1.381 . S
C829 C831 1.381 . S
C829 C832 1.487 . S
C830 C827 1.382 . S
C830 C831 1.387 . S
C830 H850 0.930 . S
C831 C829 1.381 . S
C831 C830 1.387 . S
C831 H851 0.931 . S
C832 C829 1.487 . S
C832 C839 1.399 . S
C832 N857 1.343 . S
C833 C834 1.384 . S
C833 C835 1.384 . S
C833 H852 0.931 . S
C834 C833 1.384 . S
C834 C837 1.382 . S
C835 C833 1.384 . S
C835 C836 1.381 . S
C835 H853 0.930 . S
C836 C835 1.381 . S
C836 C838 1.381 . S
C836 C839 1.487 . S
C837 C834 1.382 . S
C837 C838 1.387 . S
C837 H854 0.930 . S
C838 C836 1.381 . S
C838 C837 1.387 . S
C838 H855 0.931 . S
C839 C832 1.399 . S
C839 C836 1.487 . S
C839 N856 1.343 . S
H840 C812 0.931 . S
H841 C814 0.930 . S
H842 C816 0.930 . S
H843 C817 0.931 . S
H844 C819 0.931 . S
H845 C821 0.930 . S
H846 C823 0.930 . S
H847 C824 0.931 . S
H848 C826 0.931 . S
H849 C828 0.930 . S
H850 C830 0.930 . S
H851 C831 0.931 . S
H852 C833 0.931 . S
H853 C835 0.930 . S
H854 C837 0.930 . S
H855 C838 0.931 . S
N856 C818 1.343 . S
N856 C839 1.343 . S
N857 C825 1.343 . S
N857 C832 1.343 . S
C858 C859 1.384 . S
C858 C860 1.384 . S
C858 H886 0.931 . S
C859 C858 1.384 . S
C859 C862 1.382 . S
C860 C858 1.384 . S
C860 C861 1.381 . S
C860 H887 0.930 . S
C861 C860 1.381 . S
C861 C863 1.381 . S
C861 C864 1.487 1_565 S
C862 C859 1.382 . S
C862 C863 1.387 . S
C862 H888 0.930 . S
C863 C861 1.381 . S
C863 C862 1.387 . S
C863 H889 0.931 . S
C864 C861 1.487 1_545 S
C864 C871 1.399 . S
C864 N902 1.343 . S
C865 C866 1.384 . S
C865 C867 1.384 . S
C865 H890 0.931 . S
C866 C865 1.384 . S
C866 C869 1.382 . S
C867 C865 1.384 . S
C867 C868 1.357 1_565 S
C867 H891 0.930 . S
C868 C867 1.357 1_545 S
C868 C870 1.380 . S
C868 C871 1.514 . S
C869 C866 1.382 . S
C869 C870 1.387 1_565 S
C869 H892 0.930 . S
C870 C868 1.380 . S
C870 C869 1.387 1_545 S
C870 H893 0.931 . S
C871 C864 1.399 . S
C871 C868 1.514 . S
C871 N903 1.343 . S
C872 C873 1.384 . S
C872 C874 1.384 . S
C872 H894 0.931 . S
C873 C872 1.384 . S
C873 C876 1.382 . S
C874 C872 1.384 . S
C874 C875 1.381 . S
C874 H895 0.930 . S
C875 C874 1.381 . S
C875 C877 1.381 . S
C875 C878 1.487 . S
C876 C873 1.382 . S
C876 C877 1.387 . S
C876 H896 0.930 . S
C877 C875 1.381 . S
C877 C876 1.387 . S
C877 H897 0.931 . S
C878 C875 1.487 . S
C878 C885 1.399 . S
C878 N903 1.343 . S
C879 C880 1.384 . S
C879 C881 1.384 . S
C879 H898 0.931 . S
C880 C879 1.384 . S
C880 C883 1.382 . S
C881 C879 1.384 . S
C881 C882 1.381 . S
C881 H899 0.930 . S
C882 C881 1.381 . S
C882 C884 1.381 . S
C882 C885 1.487 . S
C883 C880 1.382 . S
C883 C884 1.387 . S
C883 H900 0.930 . S
C884 C882 1.381 . S
C884 C883 1.387 . S
C884 H901 0.931 . S
C885 C878 1.399 . S
C885 C882 1.487 . S
C885 N902 1.343 . S
H886 C858 0.931 . S
H887 C860 0.930 . S
H888 C862 0.930 . S
H889 C863 0.931 . S
H890 C865 0.931 . S
H891 C867 0.930 . S
H892 C869 0.930 . S
H893 C870 0.931 . S
H894 C872 0.931 . S
H895 C874 0.930 . S
H896 C876 0.930 . S
H897 C877 0.931 . S
H898 C879 0.931 . S
H899 C881 0.930 . S
H900 C883 0.930 . S
H901 C884 0.931 . S
N902 C864 1.343 . S
N902 C885 1.343 . S
N903 C871 1.343 . S
N903 C878 1.343 . S
C904 C905 1.384 . S
C904 C906 1.384 . S
C904 H932 0.931 . S
C905 C904 1.384 . S
C905 C908 1.382 . S
C906 C904 1.384 . S
C906 C907 1.381 . S
C906 H933 0.930 . S
C907 C906 1.381 . S
C907 C909 1.381 . S
C907 C910 1.487 . S
C908 C905 1.382 . S
C908 C909 1.387 . S
C908 H934 0.930 . S
C909 C907 1.381 . S
C909 C908 1.387 . S
C909 H935 0.931 . S
C910 C907 1.487 . S
C910 C917 1.399 . S
C910 N948 1.343 . S
C911 C912 1.384 . S
C911 C913 1.384 . S
C911 H936 0.931 . S
C912 C911 1.384 . S
C912 C915 1.382 . S
C913 C911 1.384 . S
C913 C914 1.381 . S
C913 H937 0.930 . S
C914 C913 1.381 . S
C914 C916 1.381 . S
C914 C917 1.487 . S
C915 C912 1.382 . S
C915 C916 1.387 . S
C915 H938 0.930 . S
C916 C914 1.381 . S
C916 C915 1.387 . S
C916 H939 0.931 . S
C917 C910 1.399 . S
C917 C914 1.487 . S
C917 N949 1.343 . S
C918 C919 1.384 . S
C918 C920 1.384 . S
C918 H940 0.931 . S
C919 C918 1.384 . S
C919 C922 1.382 . S
C920 C918 1.384 . S
C920 C921 1.381 . S
C920 H941 0.930 . S
C921 C920 1.381 . S
C921 C923 1.381 . S
C921 C924 1.487 . S
C922 C919 1.382 . S
C922 C923 1.387 . S
C922 H942 0.930 . S
C923 C921 1.381 . S
C923 C922 1.387 . S
C923 H943 0.931 . S
C924 C921 1.487 . S
C924 C931 1.399 . S
C924 N949 1.343 . S
C925 C926 1.384 . S
C925 C927 1.384 . S
C925 H944 0.931 . S
C926 C925 1.384 . S
C926 C929 1.382 . S
C927 C925 1.384 . S
C927 C928 1.381 . S
C927 H945 0.930 . S
C928 C927 1.381 . S
C928 C930 1.381 . S
C928 C931 1.487 . S
C929 C926 1.382 . S
C929 C930 1.387 . S
C929 H946 0.930 . S
C930 C928 1.381 . S
C930 C929 1.387 . S
C930 H947 0.931 . S
C931 C924 1.399 . S
C931 C928 1.487 . S
C931 N948 1.343 . S
H932 C904 0.931 . S
H933 C906 0.930 . S
H934 C908 0.930 . S
H935 C909 0.931 . S
H936 C911 0.931 . S
H937 C913 0.930 . S
H938 C915 0.930 . S
H939 C916 0.931 . S
H940 C918 0.931 . S
H941 C920 0.930 . S
H942 C922 0.930 . S
H943 C923 0.931 . S
H944 C925 0.931 . S
H945 C927 0.930 . S
H946 C929 0.930 . S
H947 C930 0.931 . S
N948 C910 1.343 . S
N948 C931 1.343 . S
N949 C917 1.343 . S
N949 C924 1.343 . S
C950 C951 1.384 . S
C950 C952 1.384 . S
C950 H978 0.931 . S
C951 C950 1.384 . S
C951 C954 1.382 . S
C952 C950 1.384 . S
C952 C953 1.381 . S
C952 H979 0.930 . S
C953 C952 1.381 . S
C953 C955 1.381 . S
C953 C956 1.487 . S
C954 C951 1.382 . S
C954 C955 1.387 . S
C954 H980 0.930 . S
C955 C953 1.381 . S
C955 C954 1.387 . S
C955 H981 0.931 . S
C956 C953 1.487 . S
C956 C963 1.399 . S
C956 N994 1.343 . S
C957 C958 1.384 . S
C957 C959 1.384 . S
C957 H982 0.931 . S
C958 C957 1.384 . S
C958 C961 1.382 . S
C959 C957 1.384 . S
C959 C960 1.381 . S
C959 H983 0.930 . S
C960 C959 1.381 . S
C960 C962 1.381 . S
C960 C963 1.487 . S
C961 C958 1.382 . S
C961 C962 1.387 . S
C961 H984 0.930 . S
C962 C960 1.381 . S
C962 C961 1.387 . S
C962 H985 0.931 . S
C963 C956 1.399 . S
C963 C960 1.487 . S
C963 N995 1.343 . S
C964 C965 1.384 . S
C964 C966 1.384 . S
C964 H986 0.931 . S
C965 C964 1.384 . S
C965 C968 1.382 . S
C966 C964 1.384 . S
C966 C967 1.381 . S
C966 H987 0.930 . S
C967 C966 1.381 . S
C967 C969 1.381 . S
C967 C970 1.487 . S
C968 C965 1.382 . S
C968 C969 1.387 . S
C968 H988 0.930 . S
C969 C967 1.381 . S
C969 C968 1.387 . S
C969 H989 0.931 . S
C970 C967 1.487 . S
C970 C977 1.399 . S
C970 N995 1.343 . S
C971 C972 1.384 . S
C971 C973 1.384 . S
C971 H990 0.931 . S
C972 C971 1.384 . S
C972 C975 1.382 . S
C973 C971 1.384 . S
C973 C974 1.381 . S
C973 H991 0.930 . S
C974 C973 1.381 . S
C974 C976 1.381 . S
C974 C977 1.487 . S
C975 C972 1.382 . S
C975 C976 1.387 . S
C975 H992 0.930 . S
C976 C974 1.381 . S
C976 C975 1.387 . S
C976 H993 0.931 . S
C977 C970 1.399 . S
C977 C974 1.487 . S
C977 N994 1.343 . S
H978 C950 0.931 . S
H979 C952 0.930 . S
H980 C954 0.930 . S
H981 C955 0.931 . S
H982 C957 0.931 . S
H983 C959 0.930 . S
H984 C961 0.930 . S
H985 C962 0.931 . S
H986 C964 0.931 . S
H987 C966 0.930 . S
H988 C968 0.930 . S
H989 C969 0.931 . S
H990 C971 0.931 . S
H991 C973 0.930 . S
H992 C975 0.930 . S
H993 C976 0.931 . S
N994 C956 1.343 . S
N994 C977 1.343 . S
N995 C963 1.343 . S
N995 C970 1.343 . S
C996 C997 1.384 . S
C996 C998 1.384 . S
C996 H1024 0.931 . S
C997 C996 1.384 . S
C997 C1000 1.382 . S
C998 C996 1.384 . S
C998 C999 1.381 . S
C998 H1025 0.930 . S
C999 C998 1.381 . S
C999 C1001 1.381 . S
C999 C1002 1.487 . S
C1000 C997 1.382 . S
C1000 C1001 1.387 . S
C1000 H1026 0.930 . S
C1001 C999 1.381 . S
C1001 C1000 1.387 . S
C1001 H1027 0.931 . S
C1002 C999 1.487 . S
C1002 C1009 1.399 . S
C1002 N1040 1.343 . S
C1003 C1004 1.384 . S
C1003 C1005 1.384 . S
C1003 H1028 0.931 . S
C1004 C1003 1.384 . S
C1004 C1007 1.382 . S
C1005 C1003 1.384 . S
C1005 C1006 1.381 . S
C1005 H1029 0.930 . S
C1006 C1005 1.381 . S
C1006 C1008 1.381 . S
C1006 C1009 1.487 . S
C1007 C1004 1.382 . S
C1007 C1008 1.387 . S
C1007 H1030 0.930 . S
C1008 C1006 1.381 . S
C1008 C1007 1.387 . S
C1008 H1031 0.931 . S
C1009 C1002 1.399 . S
C1009 C1006 1.487 . S
C1009 N1041 1.343 . S
C1010 C1011 1.384 . S
C1010 C1012 1.384 . S
C1010 H1032 0.931 . S
C1011 C1010 1.384 . S
C1011 C1014 1.382 . S
C1012 C1010 1.384 . S
C1012 C1013 1.381 . S
C1012 H1033 0.930 . S
C1013 C1012 1.381 . S
C1013 C1015 1.381 . S
C1013 C1016 1.487 . S
C1014 C1011 1.382 . S
C1014 C1015 1.387 . S
C1014 H1034 0.930 . S
C1015 C1013 1.381 . S
C1015 C1014 1.387 . S
C1015 H1035 0.931 . S
C1016 C1013 1.487 . S
C1016 C1023 1.399 . S
C1016 N1041 1.343 . S
C1017 C1018 1.384 . S
C1017 C1019 1.384 . S
C1017 H1036 0.931 . S
C1018 C1017 1.384 . S
C1018 C1021 1.382 . S
C1019 C1017 1.384 . S
C1019 C1020 1.381 . S
C1019 H1037 0.930 . S
C1020 C1019 1.381 . S
C1020 C1022 1.381 . S
C1020 C1023 1.487 . S
C1021 C1018 1.382 . S
C1021 C1022 1.387 . S
C1021 H1038 0.930 . S
C1022 C1020 1.381 . S
C1022 C1021 1.387 . S
C1022 H1039 0.931 . S
C1023 C1016 1.399 . S
C1023 C1020 1.487 . S
C1023 N1040 1.343 . S
H1024 C996 0.931 . S
H1025 C998 0.930 . S
H1026 C1000 0.930 . S
H1027 C1001 0.931 . S
H1028 C1003 0.931 . S
H1029 C1005 0.930 . S
H1030 C1007 0.930 . S
H1031 C1008 0.931 . S
H1032 C1010 0.931 . S
H1033 C1012 0.930 . S
H1034 C1014 0.930 . S
H1035 C1015 0.931 . S
H1036 C1017 0.931 . S
H1037 C1019 0.930 . S
H1038 C1021 0.930 . S
H1039 C1022 0.931 . S
N1040 C1002 1.343 . S
N1040 C1023 1.343 . S
N1041 C1009 1.343 . S
N1041 C1016 1.343 . S
C1042 C1043 1.384 . S
C1042 C1044 1.384 . S
C1042 H1070 0.931 . S
C1043 C1042 1.384 . S
C1043 C1046 1.382 . S
C1044 C1042 1.384 . S
C1044 C1045 1.381 . S
C1044 H1071 0.930 . S
C1045 C1044 1.381 . S
C1045 C1047 1.381 . S
C1045 C1048 1.487 . S
C1046 C1043 1.382 . S
C1046 C1047 1.387 . S
C1046 H1072 0.930 . S
C1047 C1045 1.381 . S
C1047 C1046 1.387 . S
C1047 H1073 0.931 . S
C1048 C1045 1.487 . S
C1048 C1055 1.399 . S
C1048 N1086 1.343 . S
C1049 C1050 1.384 . S
C1049 C1051 1.384 . S
C1049 H1074 0.931 . S
C1050 C1049 1.384 . S
C1050 C1053 1.382 . S
C1051 C1049 1.384 . S
C1051 C1052 1.381 . S
C1051 H1075 0.930 . S
C1052 C1051 1.381 . S
C1052 C1054 1.381 . S
C1052 C1055 1.487 . S
C1053 C1050 1.382 . S
C1053 C1054 1.387 . S
C1053 H1076 0.930 . S
C1054 C1052 1.381 . S
C1054 C1053 1.387 . S
C1054 H1077 0.931 . S
C1055 C1048 1.399 . S
C1055 C1052 1.487 . S
C1055 N1087 1.343 . S
C1056 C1057 1.384 . S
C1056 C1058 1.384 . S
C1056 H1078 0.931 . S
C1057 C1056 1.384 . S
C1057 C1060 1.382 . S
C1058 C1056 1.384 . S
C1058 C1059 1.381 . S
C1058 H1079 0.930 . S
C1059 C1058 1.381 . S
C1059 C1061 1.381 . S
C1059 C1062 1.487 . S
C1060 C1057 1.382 . S
C1060 C1061 1.387 . S
C1060 H1080 0.930 . S
C1061 C1059 1.381 . S
C1061 C1060 1.387 . S
C1061 H1081 0.931 . S
C1062 C1059 1.487 . S
C1062 C1069 1.399 . S
C1062 N1087 1.343 . S
C1063 C1064 1.384 . S
C1063 C1065 1.384 . S
C1063 H1082 0.931 . S
C1064 C1063 1.384 . S
C1064 C1067 1.382 . S
C1065 C1063 1.384 . S
C1065 C1066 1.381 . S
C1065 H1083 0.930 . S
C1066 C1065 1.381 . S
C1066 C1068 1.381 . S
C1066 C1069 1.487 . S
C1067 C1064 1.382 . S
C1067 C1068 1.387 . S
C1067 H1084 0.930 . S
C1068 C1066 1.381 . S
C1068 C1067 1.387 . S
C1068 H1085 0.931 . S
C1069 C1062 1.399 . S
C1069 C1066 1.487 . S
C1069 N1086 1.343 . S
H1070 C1042 0.931 . S
H1071 C1044 0.930 . S
H1072 C1046 0.930 . S
H1073 C1047 0.931 . S
H1074 C1049 0.931 . S
H1075 C1051 0.930 . S
H1076 C1053 0.930 . S
H1077 C1054 0.931 . S
H1078 C1056 0.931 . S
H1079 C1058 0.930 . S
H1080 C1060 0.930 . S
H1081 C1061 0.931 . S
H1082 C1063 0.931 . S
H1083 C1065 0.930 . S
H1084 C1067 0.930 . S
H1085 C1068 0.931 . S
N1086 C1048 1.343 . S
N1086 C1069 1.343 . S
N1087 C1055 1.343 . S
N1087 C1062 1.343 . S
C1088 C1089 1.384 . S
C1088 C1090 1.384 . S
C1088 H1116 0.931 . S
C1089 C1088 1.384 . S
C1089 C1092 1.382 . S
C1090 C1088 1.384 . S
C1090 C1091 1.381 . S
C1090 H1117 0.930 . S
C1091 C1090 1.381 . S
C1091 C1093 1.381 . S
C1091 C1094 1.487 . S
C1092 C1089 1.382 . S
C1092 C1093 1.387 . S
C1092 H1118 0.930 . S
C1093 C1091 1.381 . S
C1093 C1092 1.387 . S
C1093 H1119 0.931 . S
C1094 C1091 1.487 . S
C1094 C1101 1.399 . S
C1094 N1132 1.343 . S
C1095 C1096 1.384 . S
C1095 C1097 1.384 . S
C1095 H1120 0.931 . S
C1096 C1095 1.384 . S
C1096 C1099 1.382 . S
C1097 C1095 1.384 . S
C1097 C1098 1.381 . S
C1097 H1121 0.930 . S
C1098 C1097 1.381 . S
C1098 C1100 1.381 . S
C1098 C1101 1.487 . S
C1099 C1096 1.382 . S
C1099 C1100 1.387 . S
C1099 H1122 0.930 . S
C1100 C1098 1.381 . S
C1100 C1099 1.387 . S
C1100 H1123 0.931 . S
C1101 C1094 1.399 . S
C1101 C1098 1.487 . S
C1101 N1133 1.343 . S
C1102 C1103 1.384 . S
C1102 C1104 1.384 . S
C1102 H1124 0.931 . S
C1103 C1102 1.384 . S
C1103 C1106 1.382 . S
C1104 C1102 1.384 . S
C1104 C1105 1.381 . S
C1104 H1125 0.930 . S
C1105 C1104 1.381 . S
C1105 C1107 1.381 . S
C1105 C1108 1.487 . S
C1106 C1103 1.382 . S
C1106 C1107 1.387 . S
C1106 H1126 0.930 . S
C1107 C1105 1.381 . S
C1107 C1106 1.387 . S
C1107 H1127 0.931 . S
C1108 C1105 1.487 . S
C1108 C1115 1.399 . S
C1108 N1133 1.343 . S
C1109 C1110 1.384 . S
C1109 C1111 1.384 . S
C1109 H1128 0.931 . S
C1110 C1109 1.384 . S
C1110 C1113 1.382 . S
C1111 C1109 1.384 . S
C1111 C1112 1.381 . S
C1111 H1129 0.930 . S
C1112 C1111 1.381 . S
C1112 C1114 1.381 . S
C1112 C1115 1.487 . S
C1113 C1110 1.382 . S
C1113 C1114 1.387 . S
C1113 H1130 0.930 . S
C1114 C1112 1.381 . S
C1114 C1113 1.387 . S
C1114 H1131 0.931 . S
C1115 C1108 1.399 . S
C1115 C1112 1.487 . S
C1115 N1132 1.343 . S
H1116 C1088 0.931 . S
H1117 C1090 0.930 . S
H1118 C1092 0.930 . S
H1119 C1093 0.931 . S
H1120 C1095 0.931 . S
H1121 C1097 0.930 . S
H1122 C1099 0.930 . S
H1123 C1100 0.931 . S
H1124 C1102 0.931 . S
H1125 C1104 0.930 . S
H1126 C1106 0.930 . S
H1127 C1107 0.931 . S
H1128 C1109 0.931 . S
H1129 C1111 0.930 . S
H1130 C1113 0.930 . S
H1131 C1114 0.931 . S
N1132 C1094 1.343 . S
N1132 C1115 1.343 . S
N1133 C1101 1.343 . S
N1133 C1108 1.343 . S
C1134 C1135 1.384 . S
C1134 C1136 1.384 . S
C1134 H1162 0.931 . S
C1135 C1134 1.384 . S
C1135 C1138 1.382 . S
C1136 C1134 1.384 . S
C1136 C1137 1.381 . S
C1136 H1163 0.930 . S
C1137 C1136 1.381 . S
C1137 C1139 1.381 . S
C1137 C1140 1.487 . S
C1138 C1135 1.382 . S
C1138 C1139 1.387 . S
C1138 H1164 0.930 . S
C1139 C1137 1.381 . S
C1139 C1138 1.387 . S
C1139 H1165 0.931 . S
C1140 C1137 1.487 . S
C1140 C1147 1.399 . S
C1140 N1178 1.343 . S
C1141 C1142 1.384 . S
C1141 C1143 1.384 . S
C1141 H1166 0.931 . S
C1142 C1141 1.384 . S
C1142 C1145 1.382 . S
C1143 C1141 1.384 . S
C1143 C1144 1.381 . S
C1143 H1167 0.930 . S
C1144 C1143 1.381 . S
C1144 C1146 1.381 . S
C1144 C1147 1.487 . S
C1145 C1142 1.382 . S
C1145 C1146 1.387 . S
C1145 H1168 0.930 . S
C1146 C1144 1.381 . S
C1146 C1145 1.387 . S
C1146 H1169 0.931 . S
C1147 C1140 1.399 . S
C1147 C1144 1.487 . S
C1147 N1179 1.343 . S
C1148 C1149 1.384 . S
C1148 C1150 1.384 . S
C1148 H1170 0.931 . S
C1149 C1148 1.384 . S
C1149 C1152 1.382 . S
C1150 C1148 1.384 . S
C1150 C1151 1.381 . S
C1150 H1171 0.930 . S
C1151 C1150 1.381 . S
C1151 C1153 1.381 . S
C1151 C1154 1.487 . S
C1152 C1149 1.382 . S
C1152 C1153 1.387 . S
C1152 H1172 0.930 . S
C1153 C1151 1.381 . S
C1153 C1152 1.387 . S
C1153 H1173 0.931 . S
C1154 C1151 1.487 . S
C1154 C1161 1.399 . S
C1154 N1179 1.343 . S
C1155 C1156 1.384 . S
C1155 C1157 1.384 . S
C1155 H1174 0.931 . S
C1156 C1155 1.384 . S
C1156 C1159 1.382 . S
C1157 C1155 1.384 . S
C1157 C1158 1.381 . S
C1157 H1175 0.930 . S
C1158 C1157 1.381 . S
C1158 C1160 1.381 . S
C1158 C1161 1.487 . S
C1159 C1156 1.382 . S
C1159 C1160 1.387 . S
C1159 H1176 0.930 . S
C1160 C1158 1.381 . S
C1160 C1159 1.387 . S
C1160 H1177 0.931 . S
C1161 C1154 1.399 . S
C1161 C1158 1.487 . S
C1161 N1178 1.343 . S
H1162 C1134 0.931 . S
H1163 C1136 0.930 . S
H1164 C1138 0.930 . S
H1165 C1139 0.931 . S
H1166 C1141 0.931 . S
H1167 C1143 0.930 . S
H1168 C1145 0.930 . S
H1169 C1146 0.931 . S
H1170 C1148 0.931 . S
H1171 C1150 0.930 . S
H1172 C1152 0.930 . S
H1173 C1153 0.931 . S
H1174 C1155 0.931 . S
H1175 C1157 0.930 . S
H1176 C1159 0.930 . S
H1177 C1160 0.931 . S
N1178 C1140 1.343 . S
N1178 C1161 1.343 . S
N1179 C1147 1.343 . S
N1179 C1154 1.343 . S
C1180 C1181 1.384 . S
C1180 C1182 1.384 . S
C1180 H1208 0.931 . S
C1181 C1180 1.384 . S
C1181 C1184 1.382 . S
C1182 C1180 1.384 . S
C1182 C1183 1.381 . S
C1182 H1209 0.930 . S
C1183 C1182 1.381 . S
C1183 C1185 1.381 . S
C1183 C1186 1.487 . S
C1184 C1181 1.382 . S
C1184 C1185 1.387 . S
C1184 H1210 0.930 . S
C1185 C1183 1.381 . S
C1185 C1184 1.387 . S
C1185 H1211 0.931 . S
C1186 C1183 1.487 . S
C1186 C1193 1.399 . S
C1186 N1224 1.343 . S
C1187 C1188 1.384 . S
C1187 C1189 1.384 . S
C1187 H1212 0.931 . S
C1188 C1187 1.384 . S
C1188 C1191 1.382 . S
C1189 C1187 1.384 . S
C1189 C1190 1.381 . S
C1189 H1213 0.930 . S
C1190 C1189 1.381 . S
C1190 C1192 1.381 . S
C1190 C1193 1.487 . S
C1191 C1188 1.382 . S
C1191 C1192 1.387 . S
C1191 H1214 0.930 . S
C1192 C1190 1.381 . S
C1192 C1191 1.387 . S
C1192 H1215 0.931 . S
C1193 C1186 1.399 . S
C1193 C1190 1.487 . S
C1193 N1225 1.343 . S
C1194 C1195 1.384 . S
C1194 C1196 1.384 . S
C1194 H1216 0.931 . S
C1195 C1194 1.384 . S
C1195 C1198 1.382 . S
C1196 C1194 1.384 . S
C1196 C1197 1.381 . S
C1196 H1217 0.930 . S
C1197 C1196 1.381 . S
C1197 C1199 1.381 . S
C1197 C1200 1.487 . S
C1198 C1195 1.382 . S
C1198 C1199 1.387 . S
C1198 H1218 0.930 . S
C1199 C1197 1.381 . S
C1199 C1198 1.387 . S
C1199 H1219 0.931 . S
C1200 C1197 1.487 . S
C1200 C1207 1.399 . S
C1200 N1225 1.343 . S
C1201 C1202 1.384 . S
C1201 C1203 1.384 . S
C1201 H1220 0.931 . S
C1202 C1201 1.384 . S
C1202 C1205 1.382 . S
C1203 C1201 1.384 . S
C1203 C1204 1.381 . S
C1203 H1221 0.930 . S
C1204 C1203 1.381 . S
C1204 C1206 1.381 . S
C1204 C1207 1.487 . S
C1205 C1202 1.382 . S
C1205 C1206 1.387 . S
C1205 H1222 0.930 . S
C1206 C1204 1.381 . S
C1206 C1205 1.387 . S
C1206 H1223 0.931 . S
C1207 C1200 1.399 . S
C1207 C1204 1.487 . S
C1207 N1224 1.343 . S
H1208 C1180 0.931 . S
H1209 C1182 0.930 . S
H1210 C1184 0.930 . S
H1211 C1185 0.931 . S
H1212 C1187 0.931 . S
H1213 C1189 0.930 . S
H1214 C1191 0.930 . S
H1215 C1192 0.931 . S
H1216 C1194 0.931 . S
H1217 C1196 0.930 . S
H1218 C1198 0.930 . S
H1219 C1199 0.931 . S
H1220 C1201 0.931 . S
H1221 C1203 0.930 . S
H1222 C1205 0.930 . S
H1223 C1206 0.931 . S
N1224 C1186 1.343 . S
N1224 C1207 1.343 . S
N1225 C1193 1.343 . S
N1225 C1200 1.343 . S
C1226 C1227 1.384 . S
C1226 C1228 1.384 . S
C1226 H1254 0.931 . S
C1227 C1226 1.384 . S
C1227 C1230 1.382 . S
C1228 C1226 1.384 . S
C1228 C1229 1.381 . S
C1228 H1255 0.930 . S
C1229 C1228 1.381 . S
C1229 C1231 1.381 . S
C1229 C1232 1.487 . S
C1230 C1227 1.382 . S
C1230 C1231 1.387 . S
C1230 H1256 0.930 . S
C1231 C1229 1.381 . S
C1231 C1230 1.387 . S
C1231 H1257 0.931 . S
C1232 C1229 1.487 . S
C1232 C1239 1.399 . S
C1232 N1270 1.343 . S
C1233 C1234 1.384 . S
C1233 C1235 1.384 . S
C1233 H1258 0.931 . S
C1234 C1233 1.384 . S
C1234 C1237 1.382 . S
C1235 C1233 1.384 . S
C1235 C1236 1.381 . S
C1235 H1259 0.930 . S
C1236 C1235 1.381 . S
C1236 C1238 1.381 . S
C1236 C1239 1.487 . S
C1237 C1234 1.382 . S
C1237 C1238 1.387 . S
C1237 H1260 0.930 . S
C1238 C1236 1.381 . S
C1238 C1237 1.387 . S
C1238 H1261 0.931 . S
C1239 C1232 1.399 . S
C1239 C1236 1.487 . S
C1239 N1271 1.343 . S
C1240 C1241 1.384 . S
C1240 C1242 1.384 . S
C1240 H1262 0.931 . S
C1241 C1240 1.384 . S
C1241 C1244 1.382 . S
C1242 C1240 1.384 . S
C1242 C1243 1.381 . S
C1242 H1263 0.930 . S
C1243 C1242 1.381 . S
C1243 C1245 1.381 . S
C1243 C1246 1.487 . S
C1244 C1241 1.382 . S
C1244 C1245 1.387 . S
C1244 H1264 0.930 . S
C1245 C1243 1.381 . S
C1245 C1244 1.387 . S
C1245 H1265 0.931 . S
C1246 C1243 1.487 . S
C1246 C1253 1.399 . S
C1246 N1271 1.343 . S
C1247 C1248 1.384 . S
C1247 C1249 1.384 . S
C1247 H1266 0.931 . S
C1248 C1247 1.384 . S
C1248 C1251 1.382 . S
C1249 C1247 1.384 . S
C1249 C1250 1.381 . S
C1249 H1267 0.930 . S
C1250 C1249 1.381 . S
C1250 C1252 1.381 . S
C1250 C1253 1.487 . S
C1251 C1248 1.382 . S
C1251 C1252 1.387 . S
C1251 H1268 0.930 . S
C1252 C1250 1.381 . S
C1252 C1251 1.387 . S
C1252 H1269 0.931 . S
C1253 C1246 1.399 . S
C1253 C1250 1.487 . S
C1253 N1270 1.343 . S
H1254 C1226 0.931 . S
H1255 C1228 0.930 . S
H1256 C1230 0.930 . S
H1257 C1231 0.931 . S
H1258 C1233 0.931 . S
H1259 C1235 0.930 . S
H1260 C1237 0.930 . S
H1261 C1238 0.931 . S
H1262 C1240 0.931 . S
H1263 C1242 0.930 . S
H1264 C1244 0.930 . S
H1265 C1245 0.931 . S
H1266 C1247 0.931 . S
H1267 C1249 0.930 . S
H1268 C1251 0.930 . S
H1269 C1252 0.931 . S
N1270 C1232 1.343 . S
N1270 C1253 1.343 . S
N1271 C1239 1.343 . S
N1271 C1246 1.343 . S
C1272 C1273 1.384 . S
C1272 C1274 1.384 . S
C1272 H1300 0.931 . S
C1273 C1272 1.384 . S
C1273 C1276 1.382 . S
C1274 C1272 1.384 . S
C1274 C1275 1.381 . S
C1274 H1301 0.930 . S
C1275 C1274 1.381 . S
C1275 C1277 1.381 . S
C1275 C1278 1.487 . S
C1276 C1273 1.382 . S
C1276 C1277 1.387 . S
C1276 H1302 0.930 . S
C1277 C1275 1.381 . S
C1277 C1276 1.387 . S
C1277 H1303 0.931 . S
C1278 C1275 1.487 . S
C1278 C1285 1.399 . S
C1278 N1316 1.343 . S
C1279 C1280 1.384 . S
C1279 C1281 1.384 . S
C1279 H1304 0.931 . S
C1280 C1279 1.384 . S
C1280 C1283 1.382 . S
C1281 C1279 1.384 . S
C1281 C1282 1.381 . S
C1281 H1305 0.930 . S
C1282 C1281 1.381 . S
C1282 C1284 1.381 . S
C1282 C1285 1.487 . S
C1283 C1280 1.382 . S
C1283 C1284 1.387 . S
C1283 H1306 0.930 . S
C1284 C1282 1.381 . S
C1284 C1283 1.387 . S
C1284 H1307 0.931 . S
C1285 C1278 1.399 . S
C1285 C1282 1.487 . S
C1285 N1317 1.343 . S
C1286 C1287 1.384 . S
C1286 C1288 1.384 . S
C1286 H1308 0.931 . S
C1287 C1286 1.384 . S
C1287 C1290 1.382 . S
C1288 C1286 1.384 . S
C1288 C1289 1.381 . S
C1288 H1309 0.930 . S
C1289 C1288 1.381 . S
C1289 C1291 1.381 . S
C1289 C1292 1.487 . S
C1290 C1287 1.382 . S
C1290 C1291 1.387 . S
C1290 H1310 0.930 . S
C1291 C1289 1.381 . S
C1291 C1290 1.387 . S
C1291 H1311 0.931 . S
C1292 C1289 1.487 . S
C1292 C1299 1.399 . S
C1292 N1317 1.343 . S
C1293 C1294 1.384 . S
C1293 C1295 1.384 . S
C1293 H1312 0.931 . S
C1294 C1293 1.384 . S
C1294 C1297 1.382 . S
C1295 C1293 1.384 . S
C1295 C1296 1.381 . S
C1295 H1313 0.930 . S
C1296 C1295 1.381 . S
C1296 C1298 1.381 . S
C1296 C1299 1.487 . S
C1297 C1294 1.382 . S
C1297 C1298 1.387 . S
C1297 H1314 0.930 . S
C1298 C1296 1.381 . S
C1298 C1297 1.387 . S
C1298 H1315 0.931 . S
C1299 C1292 1.399 . S
C1299 C1296 1.487 . S
C1299 N1316 1.343 . S
H1300 C1272 0.931 . S
H1301 C1274 0.930 . S
H1302 C1276 0.930 . S
H1303 C1277 0.931 . S
H1304 C1279 0.931 . S
H1305 C1281 0.930 . S
H1306 C1283 0.930 . S
H1307 C1284 0.931 . S
H1308 C1286 0.931 . S
H1309 C1288 0.930 . S
H1310 C1290 0.930 . S
H1311 C1291 0.931 . S
H1312 C1293 0.931 . S
H1313 C1295 0.930 . S
H1314 C1297 0.930 . S
H1315 C1298 0.931 . S
N1316 C1278 1.343 . S
N1316 C1299 1.343 . S
N1317 C1285 1.343 . S
N1317 C1292 1.343 . S
C1318 C1319 1.384 . S
C1318 C1320 1.384 . S
C1318 H1346 0.931 . S
C1319 C1318 1.384 . S
C1319 C1322 1.382 . S
C1320 C1318 1.384 . S
C1320 C1321 1.381 . S
C1320 H1347 0.930 . S
C1321 C1320 1.381 . S
C1321 C1323 1.381 . S
C1321 C1324 1.487 . S
C1322 C1319 1.382 . S
C1322 C1323 1.387 . S
C1322 H1348 0.930 . S
C1323 C1321 1.381 . S
C1323 C1322 1.387 . S
C1323 H1349 0.931 . S
C1324 C1321 1.487 . S
C1324 C1331 1.399 . S
C1324 N1362 1.343 . S
C1325 C1326 1.384 . S
C1325 C1327 1.384 . S
C1325 H1350 0.931 . S
C1326 C1325 1.384 . S
C1326 C1329 1.382 . S
C1327 C1325 1.384 . S
C1327 C1328 1.381 . S
C1327 H1351 0.930 . S
C1328 C1327 1.381 . S
C1328 C1330 1.381 . S
C1328 C1331 1.487 . S
C1329 C1326 1.382 . S
C1329 C1330 1.387 . S
C1329 H1352 0.930 . S
C1330 C1328 1.381 . S
C1330 C1329 1.387 . S
C1330 H1353 0.931 . S
C1331 C1324 1.399 . S
C1331 C1328 1.487 . S
C1331 N1363 1.343 . S
C1332 C1333 1.384 . S
C1332 C1334 1.384 . S
C1332 H1354 0.931 . S
C1333 C1332 1.384 . S
C1333 C1336 1.382 . S
C1334 C1332 1.384 . S
C1334 C1335 1.381 . S
C1334 H1355 0.930 . S
C1335 C1334 1.381 . S
C1335 C1337 1.381 . S
C1335 C1338 1.487 . S
C1336 C1333 1.382 . S
C1336 C1337 1.387 . S
C1336 H1356 0.930 . S
C1337 C1335 1.381 . S
C1337 C1336 1.387 . S
C1337 H1357 0.931 . S
C1338 C1335 1.487 . S
C1338 C1345 1.399 . S
C1338 N1363 1.343 . S
C1339 C1340 1.384 . S
C1339 C1341 1.384 . S
C1339 H1358 0.931 . S
C1340 C1339 1.384 . S
C1340 C1343 1.382 . S
C1341 C1339 1.384 . S
C1341 C1342 1.381 . S
C1341 H1359 0.930 . S
C1342 C1341 1.381 . S
C1342 C1344 1.381 . S
C1342 C1345 1.487 . S
C1343 C1340 1.382 . S
C1343 C1344 1.387 . S
C1343 H1360 0.930 . S
C1344 C1342 1.381 . S
C1344 C1343 1.387 . S
C1344 H1361 0.931 . S
C1345 C1338 1.399 . S
C1345 C1342 1.487 . S
C1345 N1362 1.343 . S
H1346 C1318 0.931 . S
H1347 C1320 0.930 . S
H1348 C1322 0.930 . S
H1349 C1323 0.931 . S
H1350 C1325 0.931 . S
H1351 C1327 0.930 . S
H1352 C1329 0.930 . S
H1353 C1330 0.931 . S
H1354 C1332 0.931 . S
H1355 C1334 0.930 . S
H1356 C1336 0.930 . S
H1357 C1337 0.931 . S
H1358 C1339 0.931 . S
H1359 C1341 0.930 . S
H1360 C1343 0.930 . S
H1361 C1344 0.931 . S
N1362 C1324 1.343 . S
N1362 C1345 1.343 . S
N1363 C1331 1.343 . S
N1363 C1338 1.343 . S
C1364 C1365 1.384 . S
C1364 C1366 1.384 . S
C1364 H1392 0.931 . S
C1365 C1364 1.384 . S
C1365 C1368 1.382 . S
C1366 C1364 1.384 . S
C1366 C1367 1.381 . S
C1366 H1393 0.930 . S
C1367 C1366 1.381 . S
C1367 C1369 1.381 . S
C1367 C1370 1.487 . S
C1368 C1365 1.382 . S
C1368 C1369 1.387 . S
C1368 H1394 0.930 . S
C1369 C1367 1.381 . S
C1369 C1368 1.387 . S
C1369 H1395 0.931 . S
C1370 C1367 1.487 . S
C1370 C1377 1.399 . S
C1370 N1408 1.343 . S
C1371 C1372 1.384 . S
C1371 C1373 1.384 . S
C1371 H1396 0.931 . S
C1372 C1371 1.384 . S
C1372 C1375 1.382 . S
C1373 C1371 1.384 . S
C1373 C1374 1.381 . S
C1373 H1397 0.930 . S
C1374 C1373 1.381 . S
C1374 C1376 1.381 . S
C1374 C1377 1.487 . S
C1375 C1372 1.382 . S
C1375 C1376 1.387 . S
C1375 H1398 0.930 . S
C1376 C1374 1.381 . S
C1376 C1375 1.387 . S
C1376 H1399 0.931 . S
C1377 C1370 1.399 . S
C1377 C1374 1.487 . S
C1377 N1409 1.343 . S
C1378 C1379 1.384 . S
C1378 C1380 1.384 . S
C1378 H1400 0.931 . S
C1379 C1378 1.384 . S
C1379 C1382 1.382 . S
C1380 C1378 1.384 . S
C1380 C1381 1.381 . S
C1380 H1401 0.930 . S
C1381 C1380 1.381 . S
C1381 C1383 1.381 . S
C1381 C1384 1.487 . S
C1382 C1379 1.382 . S
C1382 C1383 1.387 . S
C1382 H1402 0.930 . S
C1383 C1381 1.381 . S
C1383 C1382 1.387 . S
C1383 H1403 0.931 . S
C1384 C1381 1.487 . S
C1384 C1391 1.399 . S
C1384 N1409 1.343 . S
C1385 C1386 1.384 . S
C1385 C1387 1.384 . S
C1385 H1404 0.931 . S
C1386 C1385 1.384 . S
C1386 C1389 1.382 . S
C1387 C1385 1.384 . S
C1387 C1388 1.381 . S
C1387 H1405 0.930 . S
C1388 C1387 1.381 . S
C1388 C1390 1.381 . S
C1388 C1391 1.487 . S
C1389 C1386 1.382 . S
C1389 C1390 1.387 . S
C1389 H1406 0.930 . S
C1390 C1388 1.381 . S
C1390 C1389 1.387 . S
C1390 H1407 0.931 . S
C1391 C1384 1.399 . S
C1391 C1388 1.487 . S
C1391 N1408 1.343 . S
H1392 C1364 0.931 . S
H1393 C1366 0.930 . S
H1394 C1368 0.930 . S
H1395 C1369 0.931 . S
H1396 C1371 0.931 . S
H1397 C1373 0.930 . S
H1398 C1375 0.930 . S
H1399 C1376 0.931 . S
H1400 C1378 0.931 . S
H1401 C1380 0.930 . S
H1402 C1382 0.930 . S
H1403 C1383 0.931 . S
H1404 C1385 0.931 . S
H1405 C1387 0.930 . S
H1406 C1389 0.930 . S
H1407 C1390 0.931 . S
N1408 C1370 1.343 . S
N1408 C1391 1.343 . S
N1409 C1377 1.343 . S
N1409 C1384 1.343 . S
C1410 C1411 1.384 . S
C1410 C1412 1.384 . S
C1410 H1438 0.931 . S
C1411 C1410 1.384 . S
C1411 C1414 1.382 . S
C1412 C1410 1.384 . S
C1412 C1413 1.381 . S
C1412 H1439 0.930 . S
C1413 C1412 1.381 . S
C1413 C1415 1.381 . S
C1413 C1416 1.487 . S
C1414 C1411 1.382 . S
C1414 C1415 1.387 . S
C1414 H1440 0.930 . S
C1415 C1413 1.381 . S
C1415 C1414 1.387 . S
C1415 H1441 0.931 . S
C1416 C1413 1.487 . S
C1416 C1423 1.399 . S
C1416 N1454 1.343 . S
C1417 C1418 1.384 . S
C1417 C1419 1.384 . S
C1417 H1442 0.931 . S
C1418 C1417 1.384 . S
C1418 C1421 1.382 . S
C1419 C1417 1.384 . S
C1419 C1420 1.381 . S
C1419 H1443 0.930 . S
C1420 C1419 1.381 . S
C1420 C1422 1.381 . S
C1420 C1423 1.487 . S
C1421 C1418 1.382 . S
C1421 C1422 1.387 . S
C1421 H1444 0.930 . S
C1422 C1420 1.381 . S
C1422 C1421 1.387 . S
C1422 H1445 0.931 . S
C1423 C1416 1.399 . S
C1423 C1420 1.487 . S
C1423 N1455 1.343 . S
C1424 C1425 1.384 . S
C1424 C1426 1.384 . S
C1424 H1446 0.931 . S
C1425 C1424 1.384 . S
C1425 C1428 1.382 . S
C1426 C1424 1.384 . S
C1426 C1427 1.381 . S
C1426 H1447 0.930 . S
C1427 C1426 1.381 . S
C1427 C1429 1.381 . S
C1427 C1430 1.487 . S
C1428 C1425 1.382 . S
C1428 C1429 1.387 . S
C1428 H1448 0.930 . S
C1429 C1427 1.381 . S
C1429 C1428 1.387 . S
C1429 H1449 0.931 . S
C1430 C1427 1.487 . S
C1430 C1437 1.399 . S
C1430 N1455 1.343 . S
C1431 C1432 1.384 . S
C1431 C1433 1.384 . S
C1431 H1450 0.931 . S
C1432 C1431 1.384 . S
C1432 C1435 1.382 . S
C1433 C1431 1.384 . S
C1433 C1434 1.381 . S
C1433 H1451 0.930 . S
C1434 C1433 1.381 . S
C1434 C1436 1.381 . S
C1434 C1437 1.487 . S
C1435 C1432 1.382 . S
C1435 C1436 1.387 . S
C1435 H1452 0.930 . S
C1436 C1434 1.381 . S
C1436 C1435 1.387 . S
C1436 H1453 0.931 . S
C1437 C1430 1.399 . S
C1437 C1434 1.487 . S
C1437 N1454 1.343 . S
H1438 C1410 0.931 . S
H1439 C1412 0.930 . S
H1440 C1414 0.930 . S
H1441 C1415 0.931 . S
H1442 C1417 0.931 . S
H1443 C1419 0.930 . S
H1444 C1421 0.930 . S
H1445 C1422 0.931 . S
H1446 C1424 0.931 . S
H1447 C1426 0.930 . S
H1448 C1428 0.930 . S
H1449 C1429 0.931 . S
H1450 C1431 0.931 . S
H1451 C1433 0.930 . S
H1452 C1435 0.930 . S
H1453 C1436 0.931 . S
N1454 C1416 1.343 . S
N1454 C1437 1.343 . S
N1455 C1423 1.343 . S
N1455 C1430 1.343 . S
H1456 C1464 0.929 . S
H1457 C1466 0.930 . S
H1458 C1468 0.930 . S
H1459 C1471 0.929 . S
H1460 C1474 0.930 . S
H1461 C1476 0.960 . S
H1462 C1476 0.960 . S
H1463 C1476 0.960 . S
C1464 H1456 0.929 . S
C1464 C1465 1.377 . S
C1464 C1466 1.384 . S
C1465 C1464 1.377 . S
C1465 C1471 1.390 . S
C1466 H1457 0.930 . S
C1466 C1464 1.384 . S
C1466 C1467 1.372 . S
C1467 C1466 1.372 . S
C1467 C1468 1.400 . S
C1467 C1472 1.490 . S
C1468 H1458 0.930 . S
C1468 C1467 1.400 . S
C1468 C1471 1.386 . S
H1469 C1485 0.930 . S
H1470 C1486 0.931 . S
C1471 H1459 0.929 . S
C1471 C1465 1.390 . S
C1471 C1468 1.386 . S
C1472 C1467 1.490 . S
C1472 C1474 1.395 . S
C1472 C1475 1.403 . S
H1473 C1479 0.930 . S
C1474 H1460 0.930 . S
C1474 C1472 1.395 . S
C1474 C1477 1.403 . S
C1475 C1472 1.403 . S
C1475 C1476 1.524 . S
C1475 C1479 1.400 . S
C1476 H1461 0.960 . S
C1476 H1462 0.960 . S
C1476 H1463 0.960 . S
C1476 C1475 1.524 . S
C1477 C1474 1.403 . S
C1477 C1478 1.392 . S
C1477 C1481 1.495 . S
C1478 C1477 1.392 . S
C1478 C1479 1.385 . S
C1478 C1480 1.478 . S
C1479 H1473 0.930 . S
C1479 C1475 1.400 . S
C1479 C1478 1.385 . S
C1480 C1478 1.478 . S
C1480 C1482 1.381 . S
C1480 C1486 1.383 . S
C1481 C1477 1.495 . S
C1481 H1487 0.959 . S
C1481 H1488 0.961 . S
C1481 H1489 0.960 . S
C1482 C1480 1.381 . S
C1482 C1483 1.394 . S
C1482 H1490 0.930 . S
C1483 C1482 1.394 . S
C1483 C1484 1.383 . S
C1483 H1491 0.929 . S
C1484 C1483 1.383 . S
C1484 C1485 1.377 . S
C1485 H1469 0.930 . S
C1485 C1484 1.377 . S
C1485 C1486 1.379 . S
C1486 H1470 0.931 . S
C1486 C1480 1.383 . S
C1486 C1485 1.379 . S
H1487 C1481 0.959 . S
H1488 C1481 0.961 . S
H1489 C1481 0.960 . S
H1490 C1482 0.930 . S
H1491 C1483 0.929 . S
H1492 C1500 0.929 . S
H1493 C1502 0.930 . S
H1494 C1504 0.930 . S
H1495 C1507 0.929 . S
H1496 C1510 0.930 . S
H1497 C1512 0.960 . S
H1498 C1512 0.960 . S
H1499 C1512 0.960 . S
C1500 H1492 0.929 . S
C1500 C1501 1.377 . S
C1500 C1502 1.384 . S
C1501 C1500 1.377 . S
C1501 C1507 1.390 . S
C1502 H1493 0.930 . S
C1502 C1500 1.384 . S
C1502 C1503 1.372 . S
C1503 C1502 1.372 . S
C1503 C1504 1.400 . S
C1503 C1508 1.490 . S
C1504 H1494 0.930 . S
C1504 C1503 1.400 . S
C1504 C1507 1.386 . S
H1505 C1521 0.930 . S
H1506 C1522 0.931 . S
C1507 H1495 0.929 . S
C1507 C1501 1.390 . S
C1507 C1504 1.386 . S
C1508 C1503 1.490 . S
C1508 C1510 1.395 . S
C1508 C1511 1.403 . S
H1509 C1515 0.930 . S
C1510 H1496 0.930 . S
C1510 C1508 1.395 . S
C1510 C1513 1.403 . S
C1511 C1508 1.403 . S
C1511 C1512 1.524 . S
C1511 C1515 1.400 . S
C1512 H1497 0.960 . S
C1512 H1498 0.960 . S
C1512 H1499 0.960 . S
C1512 C1511 1.524 . S
C1513 C1510 1.403 . S
C1513 C1514 1.392 . S
C1513 C1517 1.495 . S
C1514 C1513 1.392 . S
C1514 C1515 1.385 . S
C1514 C1516 1.478 . S
C1515 H1509 0.930 . S
C1515 C1511 1.400 . S
C1515 C1514 1.385 . S
C1516 C1514 1.478 . S
C1516 C1518 1.381 . S
C1516 C1522 1.383 . S
C1517 C1513 1.495 . S
C1517 H1523 0.959 . S
C1517 H1524 0.961 . S
C1517 H1525 0.960 . S
C1518 C1516 1.381 . S
C1518 C1519 1.394 . S
C1518 H1526 0.930 . S
C1519 C1518 1.394 . S
C1519 C1520 1.383 . S
C1519 H1527 0.929 . S
C1520 C1519 1.383 . S
C1520 C1521 1.377 . S
C1521 H1505 0.930 . S
C1521 C1520 1.377 . S
C1521 C1522 1.379 . S
C1522 H1506 0.931 . S
C1522 C1516 1.383 . S
C1522 C1521 1.379 . S
H1523 C1517 0.959 . S
H1524 C1517 0.961 . S
H1525 C1517 0.960 . S
H1526 C1518 0.930 . S
H1527 C1519 0.929 . S
H1528 C1536 0.929 . S
H1529 C1538 0.930 . S
H1530 C1540 0.930 . S
H1531 C1543 0.929 . S
H1532 C1546 0.930 . S
H1533 C1548 0.960 . S
H1534 C1548 0.960 . S
H1535 C1548 0.960 . S
C1536 H1528 0.929 . S
C1536 C1537 1.377 . S
C1536 C1538 1.384 . S
C1537 C1536 1.377 . S
C1537 C1543 1.390 . S
C1538 H1529 0.930 . S
C1538 C1536 1.384 . S
C1538 C1539 1.372 . S
C1539 C1538 1.372 . S
C1539 C1540 1.400 . S
C1539 C1544 1.490 . S
C1540 H1530 0.930 . S
C1540 C1539 1.400 . S
C1540 C1543 1.386 . S
H1541 C1557 0.930 . S
H1542 C1558 0.931 . S
C1543 H1531 0.929 . S
C1543 C1537 1.390 . S
C1543 C1540 1.386 . S
C1544 C1539 1.490 . S
C1544 C1546 1.395 . S
C1544 C1547 1.403 . S
H1545 C1551 0.930 . S
C1546 H1532 0.930 . S
C1546 C1544 1.395 . S
C1546 C1549 1.403 . S
C1547 C1544 1.403 . S
C1547 C1548 1.524 . S
C1547 C1551 1.400 . S
C1548 H1533 0.960 . S
C1548 H1534 0.960 . S
C1548 H1535 0.960 . S
C1548 C1547 1.524 . S
C1549 C1546 1.403 . S
C1549 C1550 1.392 . S
C1549 C1553 1.495 . S
C1550 C1549 1.392 . S
C1550 C1551 1.385 . S
C1550 C1552 1.478 . S
C1551 H1545 0.930 . S
C1551 C1547 1.400 . S
C1551 C1550 1.385 . S
C1552 C1550 1.478 . S
C1552 C1554 1.381 . S
C1552 C1558 1.383 . S
C1553 C1549 1.495 . S
C1553 H1559 0.959 . S
C1553 H1560 0.961 . S
C1553 H1561 0.960 . S
C1554 C1552 1.381 . S
C1554 C1555 1.394 . S
C1554 H1562 0.930 . S
C1555 C1554 1.394 . S
C1555 C1556 1.383 . S
C1555 H1563 0.929 . S
C1556 C1555 1.383 . S
C1556 C1557 1.377 . S
C1557 H1541 0.930 . S
C1557 C1556 1.377 . S
C1557 C1558 1.379 . S
C1558 H1542 0.931 . S
C1558 C1552 1.383 . S
C1558 C1557 1.379 . S
H1559 C1553 0.959 . S
H1560 C1553 0.961 . S
H1561 C1553 0.960 . S
H1562 C1554 0.930 . S
H1563 C1555 0.929 . S
H1564 C1572 0.929 . S
H1565 C1574 0.930 . S
H1566 C1576 0.930 . S
H1567 C1579 0.929 . S
H1568 C1582 0.930 . S
H1569 C1584 0.960 . S
H1570 C1584 0.960 . S
H1571 C1584 0.960 . S
C1572 H1564 0.929 . S
C1572 C1573 1.377 . S
C1572 C1574 1.384 . S
C1573 C1572 1.377 . S
C1573 C1579 1.390 . S
C1574 H1565 0.930 . S
C1574 C1572 1.384 . S
C1574 C1575 1.372 . S
C1575 C1574 1.372 . S
C1575 C1576 1.400 . S
C1575 C1580 1.490 . S
C1576 H1566 0.930 . S
C1576 C1575 1.400 . S
C1576 C1579 1.386 . S
H1577 C1593 0.930 . S
H1578 C1594 0.931 . S
C1579 H1567 0.929 . S
C1579 C1573 1.390 . S
C1579 C1576 1.386 . S
C1580 C1575 1.490 . S
C1580 C1582 1.395 . S
C1580 C1583 1.403 . S
H1581 C1587 0.930 . S
C1582 H1568 0.930 . S
C1582 C1580 1.395 . S
C1582 C1585 1.403 . S
C1583 C1580 1.403 . S
C1583 C1584 1.524 . S
C1583 C1587 1.400 . S
C1584 H1569 0.960 . S
C1584 H1570 0.960 . S
C1584 H1571 0.960 . S
C1584 C1583 1.524 . S
C1585 C1582 1.403 . S
C1585 C1586 1.392 . S
C1585 C1589 1.495 . S
C1586 C1585 1.392 . S
C1586 C1587 1.385 . S
C1586 C1588 1.478 . S
C1587 H1581 0.930 . S
C1587 C1583 1.400 . S
C1587 C1586 1.385 . S
C1588 C1586 1.478 . S
C1588 C1590 1.381 . S
C1588 C1594 1.383 . S
C1589 C1585 1.495 . S
C1589 H1595 0.959 . S
C1589 H1596 0.961 . S
C1589 H1597 0.960 . S
C1590 C1588 1.381 . S
C1590 C1591 1.394 . S
C1590 H1598 0.930 . S
C1591 C1590 1.394 . S
C1591 C1592 1.383 . S
C1591 H1599 0.929 . S
C1592 C1591 1.383 . S
C1592 C1593 1.377 . S
C1593 H1577 0.930 . S
C1593 C1592 1.377 . S
C1593 C1594 1.379 . S
C1594 H1578 0.931 . S
C1594 C1588 1.383 . S
C1594 C1593 1.379 . S
H1595 C1589 0.959 . S
H1596 C1589 0.961 . S
H1597 C1589 0.960 . S
H1598 C1590 0.930 . S
H1599 C1591 0.929 . S
H1600 C1608 0.929 . S
H1601 C1610 0.930 . S
H1602 C1612 0.930 . S
H1603 C1615 0.929 . S
H1604 C1618 0.930 . S
H1605 C1620 0.960 . S
H1606 C1620 0.960 . S
H1607 C1620 0.960 . S
C1608 H1600 0.929 . S
C1608 C1609 1.377 . S
C1608 C1610 1.384 . S
C1609 C1608 1.377 . S
C1609 C1615 1.390 . S
C1610 H1601 0.930 . S
C1610 C1608 1.384 . S
C1610 C1611 1.372 . S
C1611 C1610 1.372 . S
C1611 C1612 1.400 . S
C1611 C1616 1.490 . S
C1612 H1602 0.930 . S
C1612 C1611 1.400 . S
C1612 C1615 1.386 . S
H1613 C1629 0.930 . S
H1614 C1630 0.931 . S
C1615 H1603 0.929 . S
C1615 C1609 1.390 . S
C1615 C1612 1.386 . S
C1616 C1611 1.490 . S
C1616 C1618 1.395 . S
C1616 C1619 1.403 . S
H1617 C1623 0.930 . S
C1618 H1604 0.930 . S
C1618 C1616 1.395 . S
C1618 C1621 1.403 . S
C1619 C1616 1.403 . S
C1619 C1620 1.524 . S
C1619 C1623 1.400 . S
C1620 H1605 0.960 . S
C1620 H1606 0.960 . S
C1620 H1607 0.960 . S
C1620 C1619 1.524 . S
C1621 C1618 1.403 . S
C1621 C1622 1.392 . S
C1621 C1625 1.495 . S
C1622 C1621 1.392 . S
C1622 C1623 1.385 . S
C1622 C1624 1.478 . S
C1623 H1617 0.930 . S
C1623 C1619 1.400 . S
C1623 C1622 1.385 . S
C1624 C1622 1.478 . S
C1624 C1626 1.381 . S
C1624 C1630 1.383 . S
C1625 C1621 1.495 . S
C1625 H1631 0.959 . S
C1625 H1632 0.961 . S
C1625 H1633 0.960 . S
C1626 C1624 1.381 . S
C1626 C1627 1.394 . S
C1626 H1634 0.930 . S
C1627 C1626 1.394 . S
C1627 C1628 1.383 . S
C1627 H1635 0.929 . S
C1628 C1627 1.383 . S
C1628 C1629 1.377 . S
C1629 H1613 0.930 . S
C1629 C1628 1.377 . S
C1629 C1630 1.379 . S
C1630 H1614 0.931 . S
C1630 C1624 1.383 . S
C1630 C1629 1.379 . S
H1631 C1625 0.959 . S
H1632 C1625 0.961 . S
H1633 C1625 0.960 . S
H1634 C1626 0.930 . S
H1635 C1627 0.929 . S
H1636 C1644 0.929 . S
H1637 C1646 0.930 . S
H1638 C1648 0.930 . S
H1639 C1651 0.929 . S
H1640 C1654 0.930 . S
H1641 C1656 0.960 . S
H1642 C1656 0.960 . S
H1643 C1656 0.960 . S
C1644 H1636 0.929 . S
C1644 C1645 1.377 . S
C1644 C1646 1.384 . S
C1645 C1644 1.377 . S
C1645 C1651 1.390 . S
C1646 H1637 0.930 . S
C1646 C1644 1.384 . S
C1646 C1647 1.372 . S
C1647 C1646 1.372 . S
C1647 C1648 1.400 . S
C1647 C1652 1.490 . S
C1648 H1638 0.930 . S
C1648 C1647 1.400 . S
C1648 C1651 1.386 . S
H1649 C1665 0.930 . S
H1650 C1666 0.931 . S
C1651 H1639 0.929 . S
C1651 C1645 1.390 . S
C1651 C1648 1.386 . S
C1652 C1647 1.490 . S
C1652 C1654 1.395 . S
C1652 C1655 1.403 . S
H1653 C1659 0.930 . S
C1654 H1640 0.930 . S
C1654 C1652 1.395 . S
C1654 C1657 1.403 . S
C1655 C1652 1.403 . S
C1655 C1656 1.524 . S
C1655 C1659 1.400 . S
C1656 H1641 0.960 . S
C1656 H1642 0.960 . S
C1656 H1643 0.960 . S
C1656 C1655 1.524 . S
C1657 C1654 1.403 . S
C1657 C1658 1.392 . S
C1657 C1661 1.495 . S
C1658 C1657 1.392 . S
C1658 C1659 1.385 . S
C1658 C1660 1.478 . S
C1659 H1653 0.930 . S
C1659 C1655 1.400 . S
C1659 C1658 1.385 . S
C1660 C1658 1.478 . S
C1660 C1662 1.381 . S
C1660 C1666 1.383 . S
C1661 C1657 1.495 . S
C1661 H1667 0.959 . S
C1661 H1668 0.961 . S
C1661 H1669 0.960 . S
C1662 C1660 1.381 . S
C1662 C1663 1.394 . S
C1662 H1670 0.930 . S
C1663 C1662 1.394 . S
C1663 C1664 1.383 . S
C1663 H1671 0.929 . S
C1664 C1663 1.383 . S
C1664 C1665 1.377 . S
C1665 H1649 0.930 . S
C1665 C1664 1.377 . S
C1665 C1666 1.379 . S
C1666 H1650 0.931 . S
C1666 C1660 1.383 . S
C1666 C1665 1.379 . S
H1667 C1661 0.959 . S
H1668 C1661 0.961 . S
H1669 C1661 0.960 . S
H1670 C1662 0.930 . S
H1671 C1663 0.929 . S
H1672 C1680 0.929 . S
H1673 C1682 0.930 . S
H1674 C1684 0.930 . S
H1675 C1687 0.929 . S
H1676 C1690 0.930 . S
H1677 C1692 0.960 . S
H1678 C1692 0.960 . S
H1679 C1692 0.960 . S
C1680 H1672 0.929 . S
C1680 C1681 1.377 . S
C1680 C1682 1.384 . S
C1681 C1680 1.377 . S
C1681 C1687 1.390 . S
C1682 H1673 0.930 . S
C1682 C1680 1.384 . S
C1682 C1683 1.372 . S
C1683 C1682 1.372 . S
C1683 C1684 1.400 . S
C1683 C1688 1.490 . S
C1684 H1674 0.930 . S
C1684 C1683 1.400 . S
C1684 C1687 1.386 . S
H1685 C1701 0.930 . S
H1686 C1702 0.931 . S
C1687 H1675 0.929 . S
C1687 C1681 1.390 . S
C1687 C1684 1.386 . S
C1688 C1683 1.490 . S
C1688 C1690 1.395 . S
C1688 C1691 1.403 . S
H1689 C1695 0.930 . S
C1690 H1676 0.930 . S
C1690 C1688 1.395 . S
C1690 C1693 1.403 . S
C1691 C1688 1.403 . S
C1691 C1692 1.524 . S
C1691 C1695 1.400 . S
C1692 H1677 0.960 . S
C1692 H1678 0.960 . S
C1692 H1679 0.960 . S
C1692 C1691 1.524 . S
C1693 C1690 1.403 . S
C1693 C1694 1.392 . S
C1693 C1697 1.495 . S
C1694 C1693 1.392 . S
C1694 C1695 1.385 . S
C1694 C1696 1.478 . S
C1695 H1689 0.930 . S
C1695 C1691 1.400 . S
C1695 C1694 1.385 . S
C1696 C1694 1.478 . S
C1696 C1698 1.381 . S
C1696 C1702 1.383 . S
C1697 C1693 1.495 . S
C1697 H1703 0.959 . S
C1697 H1704 0.961 . S
C1697 H1705 0.960 . S
C1698 C1696 1.381 . S
C1698 C1699 1.394 . S
C1698 H1706 0.930 . S
C1699 C1698 1.394 . S
C1699 C1700 1.383 . S
C1699 H1707 0.929 . S
C1700 C1699 1.383 . S
C1700 C1701 1.377 . S
C1701 H1685 0.930 . S
C1701 C1700 1.377 . S
C1701 C1702 1.379 . S
C1702 H1686 0.931 . S
C1702 C1696 1.383 . S
C1702 C1701 1.379 . S
H1703 C1697 0.959 . S
H1704 C1697 0.961 . S
H1705 C1697 0.960 . S
H1706 C1698 0.930 . S
H1707 C1699 0.929 . S
H1708 C1716 0.929 . S
H1709 C1718 0.930 . S
H1710 C1720 0.930 . S
H1711 C1723 0.929 . S
H1712 C1726 0.930 . S
H1713 C1728 0.960 . S
H1714 C1728 0.960 . S
H1715 C1728 0.960 . S
C1716 H1708 0.929 . S
C1716 C1717 1.377 . S
C1716 C1718 1.384 . S
C1717 C1716 1.377 . S
C1717 C1723 1.390 . S
C1718 H1709 0.930 . S
C1718 C1716 1.384 . S
C1718 C1719 1.372 . S
C1719 C1718 1.372 . S
C1719 C1720 1.400 . S
C1719 C1724 1.490 . S
C1720 H1710 0.930 . S
C1720 C1719 1.400 . S
C1720 C1723 1.386 . S
H1721 C1737 0.930 . S
H1722 C1738 0.931 . S
C1723 H1711 0.929 . S
C1723 C1717 1.390 . S
C1723 C1720 1.386 . S
C1724 C1719 1.490 . S
C1724 C1726 1.395 . S
C1724 C1727 1.403 . S
H1725 C1731 0.930 . S
C1726 H1712 0.930 . S
C1726 C1724 1.395 . S
C1726 C1729 1.403 . S
C1727 C1724 1.403 . S
C1727 C1728 1.524 . S
C1727 C1731 1.400 . S
C1728 H1713 0.960 . S
C1728 H1714 0.960 . S
C1728 H1715 0.960 . S
C1728 C1727 1.524 . S
C1729 C1726 1.403 . S
C1729 C1730 1.392 . S
C1729 C1733 1.495 . S
C1730 C1729 1.392 . S
C1730 C1731 1.385 . S
C1730 C1732 1.478 . S
C1731 H1725 0.930 . S
C1731 C1727 1.400 . S
C1731 C1730 1.385 . S
C1732 C1730 1.478 . S
C1732 C1734 1.381 . S
C1732 C1738 1.383 . S
C1733 C1729 1.495 . S
C1733 H1739 0.959 . S
C1733 H1740 0.961 . S
C1733 H1741 0.960 . S
C1734 C1732 1.381 . S
C1734 C1735 1.394 . S
C1734 H1742 0.930 . S
C1735 C1734 1.394 . S
C1735 C1736 1.383 . S
C1735 H1743 0.929 . S
C1736 C1735 1.383 . S
C1736 C1737 1.377 . S
C1737 H1721 0.930 . S
C1737 C1736 1.377 . S
C1737 C1738 1.379 . S
C1738 H1722 0.931 . S
C1738 C1732 1.383 . S
C1738 C1737 1.379 . S
H1739 C1733 0.959 . S
H1740 C1733 0.961 . S
H1741 C1733 0.960 . S
H1742 C1734 0.930 . S
H1743 C1735 0.929 . S
H1744 C1752 0.929 . S
H1745 C1754 0.930 . S
H1746 C1756 0.930 . S
H1747 C1759 0.929 . S
H1748 C1762 0.930 . S
H1749 C1764 0.960 . S
H1750 C1764 0.960 . S
H1751 C1764 0.960 . S
C1752 H1744 0.929 . S
C1752 C1753 1.377 . S
C1752 C1754 1.384 . S
C1753 C1752 1.377 . S
C1753 C1759 1.390 . S
C1754 H1745 0.930 . S
C1754 C1752 1.384 . S
C1754 C1755 1.372 . S
C1755 C1754 1.372 . S
C1755 C1756 1.400 . S
C1755 C1760 1.490 . S
C1756 H1746 0.930 . S
C1756 C1755 1.400 . S
C1756 C1759 1.386 . S
H1757 C1773 0.930 . S
H1758 C1774 0.931 . S
C1759 H1747 0.929 . S
C1759 C1753 1.390 . S
C1759 C1756 1.386 . S
C1760 C1755 1.490 . S
C1760 C1762 1.395 . S
C1760 C1763 1.403 . S
H1761 C1767 0.930 . S
C1762 H1748 0.930 . S
C1762 C1760 1.395 . S
C1762 C1765 1.403 . S
C1763 C1760 1.403 . S
C1763 C1764 1.524 . S
C1763 C1767 1.400 . S
C1764 H1749 0.960 . S
C1764 H1750 0.960 . S
C1764 H1751 0.960 . S
C1764 C1763 1.524 . S
C1765 C1762 1.403 . S
C1765 C1766 1.392 . S
C1765 C1769 1.495 . S
C1766 C1765 1.392 . S
C1766 C1767 1.385 . S
C1766 C1768 1.478 . S
C1767 H1761 0.930 . S
C1767 C1763 1.400 . S
C1767 C1766 1.385 . S
C1768 C1766 1.478 . S
C1768 C1770 1.381 . S
C1768 C1774 1.383 . S
C1769 C1765 1.495 . S
C1769 H1775 0.959 . S
C1769 H1776 0.961 . S
C1769 H1777 0.960 . S
C1770 C1768 1.381 . S
C1770 C1771 1.394 . S
C1770 H1778 0.930 . S
C1771 C1770 1.394 . S
C1771 C1772 1.383 . S
C1771 H1779 0.929 . S
C1772 C1771 1.383 . S
C1772 C1773 1.377 . S
C1773 H1757 0.930 . S
C1773 C1772 1.377 . S
C1773 C1774 1.379 . S
C1774 H1758 0.931 . S
C1774 C1768 1.383 . S
C1774 C1773 1.379 . S
H1775 C1769 0.959 . S
H1776 C1769 0.961 . S
H1777 C1769 0.960 . S
H1778 C1770 0.930 . S
H1779 C1771 0.929 . S
H1780 C1788 0.929 . S
H1781 C1790 0.930 . S
H1782 C1792 0.930 . S
H1783 C1795 0.929 . S
H1784 C1798 0.930 . S
H1785 C1800 0.960 . S
H1786 C1800 0.960 . S
H1787 C1800 0.960 . S
C1788 H1780 0.929 . S
C1788 C1789 1.377 . S
C1788 C1790 1.384 . S
C1789 C1788 1.377 . S
C1789 C1795 1.390 . S
C1790 H1781 0.930 . S
C1790 C1788 1.384 . S
C1790 C1791 1.372 . S
C1791 C1790 1.372 . S
C1791 C1792 1.400 . S
C1791 C1796 1.490 . S
C1792 H1782 0.930 . S
C1792 C1791 1.400 . S
C1792 C1795 1.386 . S
H1793 C1809 0.930 . S
H1794 C1810 0.931 . S
C1795 H1783 0.929 . S
C1795 C1789 1.390 . S
C1795 C1792 1.386 . S
C1796 C1791 1.490 . S
C1796 C1798 1.395 . S
C1796 C1799 1.403 . S
H1797 C1803 0.930 . S
C1798 H1784 0.930 . S
C1798 C1796 1.395 . S
C1798 C1801 1.403 . S
C1799 C1796 1.403 . S
C1799 C1800 1.524 . S
C1799 C1803 1.400 . S
C1800 H1785 0.960 . S
C1800 H1786 0.960 . S
C1800 H1787 0.960 . S
C1800 C1799 1.524 . S
C1801 C1798 1.403 . S
C1801 C1802 1.392 . S
C1801 C1805 1.495 . S
C1802 C1801 1.392 . S
C1802 C1803 1.385 . S
C1802 C1804 1.478 . S
C1803 H1797 0.930 . S
C1803 C1799 1.400 . S
C1803 C1802 1.385 . S
C1804 C1802 1.478 . S
C1804 C1806 1.381 . S
C1804 C1810 1.383 . S
C1805 C1801 1.495 . S
C1805 H1811 0.959 . S
C1805 H1812 0.961 . S
C1805 H1813 0.960 . S
C1806 C1804 1.381 . S
C1806 C1807 1.394 . S
C1806 H1814 0.930 . S
C1807 C1806 1.394 . S
C1807 C1808 1.383 . S
C1807 H1815 0.929 . S
C1808 C1807 1.383 . S
C1808 C1809 1.377 . S
C1809 H1793 0.930 . S
C1809 C1808 1.377 . S
C1809 C1810 1.379 . S
C1810 H1794 0.931 . S
C1810 C1804 1.383 . S
C1810 C1809 1.379 . S
H1811 C1805 0.959 . S
H1812 C1805 0.961 . S
H1813 C1805 0.960 . S
H1814 C1806 0.930 . S
H1815 C1807 0.929 . S
H1816 C1824 0.929 . S
H1817 C1826 0.930 . S
H1818 C1828 0.930 . S
H1819 C1831 0.929 . S
H1820 C1834 0.930 . S
H1821 C1836 0.960 . S
H1822 C1836 0.960 . S
H1823 C1836 0.960 . S
C1824 H1816 0.929 . S
C1824 C1825 1.377 . S
C1824 C1826 1.384 . S
C1825 C1824 1.377 . S
C1825 C1831 1.390 . S
C1826 H1817 0.930 . S
C1826 C1824 1.384 . S
C1826 C1827 1.372 . S
C1827 C1826 1.372 . S
C1827 C1828 1.400 . S
C1827 C1832 1.490 . S
C1828 H1818 0.930 . S
C1828 C1827 1.400 . S
C1828 C1831 1.386 . S
H1829 C1845 0.930 . S
H1830 C1846 0.931 . S
C1831 H1819 0.929 . S
C1831 C1825 1.390 . S
C1831 C1828 1.386 . S
C1832 C1827 1.490 . S
C1832 C1834 1.395 . S
C1832 C1835 1.403 . S
H1833 C1839 0.930 . S
C1834 H1820 0.930 . S
C1834 C1832 1.395 . S
C1834 C1837 1.403 . S
C1835 C1832 1.403 . S
C1835 C1836 1.524 . S
C1835 C1839 1.400 . S
C1836 H1821 0.960 . S
C1836 H1822 0.960 . S
C1836 H1823 0.960 . S
C1836 C1835 1.524 . S
C1837 C1834 1.403 . S
C1837 C1838 1.392 . S
C1837 C1841 1.495 . S
C1838 C1837 1.392 . S
C1838 C1839 1.385 . S
C1838 C1840 1.478 . S
C1839 H1833 0.930 . S
C1839 C1835 1.400 . S
C1839 C1838 1.385 . S
C1840 C1838 1.478 . S
C1840 C1842 1.381 . S
C1840 C1846 1.383 . S
C1841 C1837 1.495 . S
C1841 H1847 0.959 . S
C1841 H1848 0.961 . S
C1841 H1849 0.960 . S
C1842 C1840 1.381 . S
C1842 C1843 1.394 1_655 S
C1842 H1850 0.930 . S
C1843 C1842 1.394 1_455 S
C1843 C1844 1.383 . S
C1843 H1851 0.929 . S
C1844 C1843 1.383 . S
C1844 C1845 1.377 1_455 S
C1845 H1829 0.930 . S
C1845 C1844 1.377 1_655 S
C1845 C1846 1.379 . S
C1846 H1830 0.931 . S
C1846 C1840 1.383 . S
C1846 C1845 1.379 . S
H1847 C1841 0.959 . S
H1848 C1841 0.961 . S
H1849 C1841 0.960 . S
H1850 C1842 0.930 . S
H1851 C1843 0.929 . S
H1852 C1860 0.929 . S
H1853 C1862 0.930 . S
H1854 C1864 0.930 . S
H1855 C1867 0.929 . S
H1856 C1870 0.930 . S
H1857 C1872 0.960 . S
H1858 C1872 0.960 . S
H1859 C1872 0.960 . S
C1860 H1852 0.929 . S
C1860 C1861 1.377 . S
C1860 C1862 1.384 . S
C1861 C1860 1.377 . S
C1861 C1867 1.390 . S
C1862 H1853 0.930 . S
C1862 C1860 1.384 . S
C1862 C1863 1.372 . S
C1863 C1862 1.372 . S
C1863 C1864 1.400 . S
C1863 C1868 1.490 . S
C1864 H1854 0.930 . S
C1864 C1863 1.400 . S
C1864 C1867 1.386 . S
H1865 C1881 0.930 . S
H1866 C1882 0.931 . S
C1867 H1855 0.929 . S
C1867 C1861 1.390 . S
C1867 C1864 1.386 . S
C1868 C1863 1.490 . S
C1868 C1870 1.395 . S
C1868 C1871 1.403 . S
H1869 C1875 0.930 . S
C1870 H1856 0.930 . S
C1870 C1868 1.395 . S
C1870 C1873 1.403 . S
C1871 C1868 1.403 . S
C1871 C1872 1.524 . S
C1871 C1875 1.400 . S
C1872 H1857 0.960 . S
C1872 H1858 0.960 . S
C1872 H1859 0.960 . S
C1872 C1871 1.524 . S
C1873 C1870 1.403 . S
C1873 C1874 1.392 . S
C1873 C1877 1.495 . S
C1874 C1873 1.392 . S
C1874 C1875 1.385 . S
C1874 C1876 1.478 . S
C1875 H1869 0.930 . S
C1875 C1871 1.400 . S
C1875 C1874 1.385 . S
C1876 C1874 1.478 . S
C1876 C1878 1.381 . S
C1876 C1882 1.383 . S
C1877 C1873 1.495 . S
C1877 H1883 0.959 . S
C1877 H1884 0.961 . S
C1877 H1885 0.960 . S
C1878 C1876 1.381 . S
C1878 C1879 1.394 . S
C1878 H1886 0.930 . S
C1879 C1878 1.394 . S
C1879 C1880 1.383 . S
C1879 H1887 0.929 . S
C1880 C1879 1.383 . S
C1880 C1881 1.377 . S
C1881 H1865 0.930 . S
C1881 C1880 1.377 . S
C1881 C1882 1.379 . S
C1882 H1866 0.931 . S
C1882 C1876 1.383 . S
C1882 C1881 1.379 . S
H1883 C1877 0.959 . S
H1884 C1877 0.961 . S
H1885 C1877 0.960 . S
H1886 C1878 0.930 . S
H1887 C1879 0.929 . S
H1888 C1896 0.929 . S
H1889 C1898 0.930 . S
H1890 C1900 0.930 . S
H1891 C1903 0.929 . S
H1892 C1906 0.930 . S
H1893 C1908 0.960 . S
H1894 C1908 0.960 . S
H1895 C1908 0.960 . S
C1896 H1888 0.929 . S
C1896 C1897 1.377 . S
C1896 C1898 1.384 . S
C1897 C1896 1.377 . S
C1897 C1903 1.390 . S
C1898 H1889 0.930 . S
C1898 C1896 1.384 . S
C1898 C1899 1.372 . S
C1899 C1898 1.372 . S
C1899 C1900 1.400 . S
C1899 C1904 1.490 . S
C1900 H1890 0.930 . S
C1900 C1899 1.400 . S
C1900 C1903 1.386 . S
H1901 C1917 0.930 . S
H1902 C1918 0.931 . S
C1903 H1891 0.929 . S
C1903 C1897 1.390 . S
C1903 C1900 1.386 . S
C1904 C1899 1.490 . S
C1904 C1906 1.395 . S
C1904 C1907 1.403 . S
H1905 C1911 0.930 . S
C1906 H1892 0.930 . S
C1906 C1904 1.395 . S
C1906 C1909 1.403 . S
C1907 C1904 1.403 . S
C1907 C1908 1.524 . S
C1907 C1911 1.400 . S
C1908 H1893 0.960 . S
C1908 H1894 0.960 . S
C1908 H1895 0.960 . S
C1908 C1907 1.524 . S
C1909 C1906 1.403 . S
C1909 C1910 1.392 . S
C1909 C1913 1.495 . S
C1910 C1909 1.392 . S
C1910 C1911 1.385 . S
C1910 C1912 1.478 . S
C1911 H1905 0.930 . S
C1911 C1907 1.400 . S
C1911 C1910 1.385 . S
C1912 C1910 1.478 . S
C1912 C1914 1.381 . S
C1912 C1918 1.383 . S
C1913 C1909 1.495 . S
C1913 H1919 0.959 . S
C1913 H1920 0.961 . S
C1913 H1921 0.960 . S
C1914 C1912 1.381 . S
C1914 C1915 1.394 . S
C1914 H1922 0.930 . S
C1915 C1914 1.394 . S
C1915 C1916 1.383 . S
C1915 H1923 0.929 . S
C1916 C1915 1.383 . S
C1916 C1917 1.377 . S
C1917 H1901 0.930 . S
C1917 C1916 1.377 . S
C1917 C1918 1.379 . S
C1918 H1902 0.931 . S
C1918 C1912 1.383 . S
C1918 C1917 1.379 . S
H1919 C1913 0.959 . S
H1920 C1913 0.961 . S
H1921 C1913 0.960 . S
H1922 C1914 0.930 . S
H1923 C1915 0.929 . S
H1924 C1932 0.929 . S
H1925 C1934 0.930 . S
H1926 C1936 0.930 . S
H1927 C1939 0.929 . S
H1928 C1942 0.930 . S
H1929 C1944 0.960 . S
H1930 C1944 0.960 . S
H1931 C1944 0.960 . S
C1932 H1924 0.929 . S
C1932 C1933 1.377 . S
C1932 C1934 1.384 . S
C1933 C1932 1.377 . S
C1933 C1939 1.390 . S
C1934 H1925 0.930 . S
C1934 C1932 1.384 . S
C1934 C1935 1.372 . S
C1935 C1934 1.372 . S
C1935 C1936 1.400 . S
C1935 C1940 1.490 . S
C1936 H1926 0.930 . S
C1936 C1935 1.400 . S
C1936 C1939 1.386 . S
H1937 C1953 0.930 . S
H1938 C1954 0.931 . S
C1939 H1927 0.929 . S
C1939 C1933 1.390 . S
C1939 C1936 1.386 . S
C1940 C1935 1.490 . S
C1940 C1942 1.395 . S
C1940 C1943 1.403 . S
H1941 C1947 0.930 . S
C1942 H1928 0.930 . S
C1942 C1940 1.395 . S
C1942 C1945 1.403 . S
C1943 C1940 1.403 . S
C1943 C1944 1.524 . S
C1943 C1947 1.400 . S
C1944 H1929 0.960 . S
C1944 H1930 0.960 . S
C1944 H1931 0.960 . S
C1944 C1943 1.524 . S
C1945 C1942 1.403 . S
C1945 C1946 1.392 . S
C1945 C1949 1.495 . S
C1946 C1945 1.392 . S
C1946 C1947 1.385 . S
C1946 C1948 1.478 . S
C1947 H1941 0.930 . S
C1947 C1943 1.400 . S
C1947 C1946 1.385 . S
C1948 C1946 1.478 . S
C1948 C1950 1.381 . S
C1948 C1954 1.383 . S
C1949 C1945 1.495 . S
C1949 H1955 0.959 . S
C1949 H1956 0.961 . S
C1949 H1957 0.960 . S
C1950 C1948 1.381 . S
C1950 C1951 1.394 . S
C1950 H1958 0.930 . S
C1951 C1950 1.394 . S
C1951 C1952 1.383 . S
C1951 H1959 0.929 . S
C1952 C1951 1.383 . S
C1952 C1953 1.377 . S
C1953 H1937 0.930 . S
C1953 C1952 1.377 . S
C1953 C1954 1.379 . S
C1954 H1938 0.931 . S
C1954 C1948 1.383 . S
C1954 C1953 1.379 . S
H1955 C1949 0.959 . S
H1956 C1949 0.961 . S
H1957 C1949 0.960 . S
H1958 C1950 0.930 . S
H1959 C1951 0.929 . S
H1960 C1968 0.929 . S
H1961 C1970 0.930 . S
H1962 C1972 0.930 . S
H1963 C1975 0.929 . S
H1964 C1978 0.930 . S
H1965 C1980 0.960 . S
H1966 C1980 0.960 . S
H1967 C1980 0.960 . S
C1968 H1960 0.929 . S
C1968 C1969 1.377 . S
C1968 C1970 1.384 . S
C1969 C1968 1.377 . S
C1969 C1975 1.390 . S
C1970 H1961 0.930 . S
C1970 C1968 1.384 . S
C1970 C1971 1.372 . S
C1971 C1970 1.372 . S
C1971 C1972 1.400 . S
C1971 C1976 1.490 . S
C1972 H1962 0.930 . S
C1972 C1971 1.400 . S
C1972 C1975 1.386 . S
H1973 C1989 0.930 1_455 S
H1974 C1990 0.931 . S
C1975 H1963 0.929 . S
C1975 C1969 1.390 . S
C1975 C1972 1.386 . S
C1976 C1971 1.490 . S
C1976 C1978 1.395 . S
C1976 C1979 1.403 . S
H1977 C1983 0.930 . S
C1978 H1964 0.930 . S
C1978 C1976 1.395 . S
C1978 C1981 1.403 . S
C1979 C1976 1.403 . S
C1979 C1980 1.524 . S
C1979 C1983 1.400 . S
C1980 H1965 0.960 . S
C1980 H1966 0.960 . S
C1980 H1967 0.960 . S
C1980 C1979 1.524 . S
C1981 C1978 1.403 . S
C1981 C1982 1.392 . S
C1981 C1985 1.495 . S
C1982 C1981 1.392 . S
C1982 C1983 1.385 . S
C1982 C1984 1.478 . S
C1983 H1977 0.930 . S
C1983 C1979 1.400 . S
C1983 C1982 1.385 . S
C1984 C1982 1.478 . S
C1984 C1986 1.381 . S
C1984 C1990 1.383 . S
C1985 C1981 1.495 . S
C1985 H1991 0.959 . S
C1985 H1992 0.961 . S
C1985 H1993 0.960 . S
C1986 C1984 1.381 . S
C1986 C1987 1.394 . S
C1986 H1994 0.930 . S
C1987 C1986 1.394 . S
C1987 C1988 1.332 1_655 S
C1987 H1995 0.929 . S
C1988 C1987 1.332 1_455 S
C1988 C1989 1.371 1_455 S
C1989 H1973 0.930 1_655 S
C1989 C1988 1.371 1_655 S
C1989 C1990 1.379 . S
C1990 H1974 0.931 . S
C1990 C1984 1.383 . S
C1990 C1989 1.379 . S
H1991 C1985 0.959 . S
H1992 C1985 0.961 . S
H1993 C1985 0.960 . S
H1994 C1986 0.930 . S
H1995 C1987 0.929 . S
H1996 C2004 0.929 . S
H1997 C2006 0.930 . S
H1998 C2008 0.930 . S
H1999 C2011 0.929 . S
H2000 C2014 0.930 . S
H2001 C2016 0.960 . S
H2002 C2016 0.960 . S
H2003 C2016 0.960 . S
C2004 H1996 0.929 . S
C2004 C2005 1.377 . S
C2004 C2006 1.384 . S
C2005 C2004 1.377 . S
C2005 C2011 1.390 . S
C2006 H1997 0.930 . S
C2006 C2004 1.384 . S
C2006 C2007 1.372 . S
C2007 C2006 1.372 . S
C2007 C2008 1.400 . S
C2007 C2012 1.490 . S
C2008 H1998 0.930 . S
C2008 C2007 1.400 . S
C2008 C2011 1.386 . S
H2009 C2025 0.930 . S
H2010 C2026 0.931 . S
C2011 H1999 0.929 . S
C2011 C2005 1.390 . S
C2011 C2008 1.386 . S
C2012 C2007 1.490 . S
C2012 C2014 1.395 . S
C2012 C2015 1.403 . S
H2013 C2019 0.930 . S
C2014 H2000 0.930 . S
C2014 C2012 1.395 . S
C2014 C2017 1.403 . S
C2015 C2012 1.403 . S
C2015 C2016 1.524 . S
C2015 C2019 1.400 . S
C2016 H2001 0.960 . S
C2016 H2002 0.960 . S
C2016 H2003 0.960 . S
C2016 C2015 1.524 . S
C2017 C2014 1.403 . S
C2017 C2018 1.392 . S
C2017 C2021 1.495 . S
C2018 C2017 1.392 . S
C2018 C2019 1.385 . S
C2018 C2020 1.478 . S
C2019 H2013 0.930 . S
C2019 C2015 1.400 . S
C2019 C2018 1.385 . S
C2020 C2018 1.478 . S
C2020 C2022 1.381 . S
C2020 C2026 1.383 . S
C2021 C2017 1.495 . S
C2021 H2027 0.959 . S
C2021 H2028 0.961 . S
C2021 H2029 0.960 . S
C2022 C2020 1.381 . S
C2022 C2023 1.394 . S
C2022 H2030 0.930 . S
C2023 C2022 1.394 . S
C2023 C2024 1.383 . S
C2023 H2031 0.929 . S
C2024 C2023 1.383 . S
C2024 C2025 1.377 . S
C2025 H2009 0.930 . S
C2025 C2024 1.377 . S
C2025 C2026 1.379 . S
C2026 H2010 0.931 . S
C2026 C2020 1.383 . S
C2026 C2025 1.379 . S
H2027 C2021 0.959 . S
H2028 C2021 0.961 . S
H2029 C2021 0.960 . S
H2030 C2022 0.930 . S
H2031 C2023 0.929 . S
H2032 C2040 0.929 . S
H2033 C2042 0.930 . S
H2034 C2044 0.930 . S
H2035 C2047 0.929 . S
H2036 C2050 0.930 . S
H2037 C2052 0.960 . S
H2038 C2052 0.960 . S
H2039 C2052 0.960 . S
C2040 H2032 0.929 . S
C2040 C2041 1.377 . S
C2040 C2042 1.384 . S
C2041 C2040 1.377 . S
C2041 C2047 1.390 . S
C2042 H2033 0.930 . S
C2042 C2040 1.384 . S
C2042 C2043 1.372 . S
C2043 C2042 1.372 . S
C2043 C2044 1.400 . S
C2043 C2048 1.490 . S
C2044 H2034 0.930 . S
C2044 C2043 1.400 . S
C2044 C2047 1.386 . S
H2045 C2061 0.930 . S
H2046 C2062 0.931 . S
C2047 H2035 0.929 . S
C2047 C2041 1.390 . S
C2047 C2044 1.386 . S
C2048 C2043 1.490 . S
C2048 C2050 1.395 . S
C2048 C2051 1.403 . S
H2049 C2055 0.930 . S
C2050 H2036 0.930 . S
C2050 C2048 1.395 . S
C2050 C2053 1.403 . S
C2051 C2048 1.403 . S
C2051 C2052 1.524 . S
C2051 C2055 1.400 . S
C2052 H2037 0.960 . S
C2052 H2038 0.960 . S
C2052 H2039 0.960 . S
C2052 C2051 1.524 . S
C2053 C2050 1.403 . S
C2053 C2054 1.392 . S
C2053 C2057 1.495 . S
C2054 C2053 1.392 . S
C2054 C2055 1.385 . S
C2054 C2056 1.478 . S
C2055 H2049 0.930 . S
C2055 C2051 1.400 . S
C2055 C2054 1.385 . S
C2056 C2054 1.478 . S
C2056 C2058 1.381 . S
C2056 C2062 1.383 . S
C2057 C2053 1.495 . S
C2057 H2063 0.959 . S
C2057 H2064 0.961 . S
C2057 H2065 0.960 . S
C2058 C2056 1.381 . S
C2058 C2059 1.394 . S
C2058 H2066 0.930 . S
C2059 C2058 1.394 . S
C2059 C2060 1.383 . S
C2059 H2067 0.929 . S
C2060 C2059 1.383 . S
C2060 C2061 1.377 . S
C2061 H2045 0.930 . S
C2061 C2060 1.377 . S
C2061 C2062 1.379 . S
C2062 H2046 0.931 . S
C2062 C2056 1.383 . S
C2062 C2061 1.379 . S
H2063 C2057 0.959 . S
H2064 C2057 0.961 . S
H2065 C2057 0.960 . S
H2066 C2058 0.930 . S
H2067 C2059 0.929 . S
H2068 C2076 0.929 . S
H2069 C2078 0.930 . S
H2070 C2080 0.930 . S
H2071 C2083 0.929 . S
H2072 C2086 0.930 . S
H2073 C2088 0.960 . S
H2074 C2088 0.960 . S
H2075 C2088 0.960 . S
C2076 H2068 0.929 . S
C2076 C2077 1.377 . S
C2076 C2078 1.384 . S
C2077 C2076 1.377 . S
C2077 C2083 1.390 . S
C2078 H2069 0.930 . S
C2078 C2076 1.384 . S
C2078 C2079 1.372 . S
C2079 C2078 1.372 . S
C2079 C2080 1.400 . S
C2079 C2084 1.490 . S
C2080 H2070 0.930 . S
C2080 C2079 1.400 . S
C2080 C2083 1.386 . S
H2081 C2097 0.930 . S
H2082 C2098 0.931 . S
C2083 H2071 0.929 . S
C2083 C2077 1.390 . S
C2083 C2080 1.386 . S
C2084 C2079 1.490 . S
C2084 C2086 1.395 . S
C2084 C2087 1.403 . S
H2085 C2091 0.930 . S
C2086 H2072 0.930 . S
C2086 C2084 1.395 . S
C2086 C2089 1.403 . S
C2087 C2084 1.403 . S
C2087 C2088 1.524 . S
C2087 C2091 1.400 . S
C2088 H2073 0.960 . S
C2088 H2074 0.960 . S
C2088 H2075 0.960 . S
C2088 C2087 1.524 . S
C2089 C2086 1.403 . S
C2089 C2090 1.392 . S
C2089 C2093 1.495 . S
C2090 C2089 1.392 . S
C2090 C2091 1.385 . S
C2090 C2092 1.478 . S
C2091 H2085 0.930 . S
C2091 C2087 1.400 . S
C2091 C2090 1.385 . S
C2092 C2090 1.478 . S
C2092 C2094 1.381 . S
C2092 C2098 1.383 . S
C2093 C2089 1.495 . S
C2093 H2099 0.959 . S
C2093 H2100 0.961 . S
C2093 H2101 0.960 . S
C2094 C2092 1.381 . S
C2094 C2095 1.394 . S
C2094 H2102 0.930 . S
C2095 C2094 1.394 . S
C2095 C2096 1.383 . S
C2095 H2103 0.929 . S
C2096 C2095 1.383 . S
C2096 C2097 1.377 . S
C2097 H2081 0.930 . S
C2097 C2096 1.377 . S
C2097 C2098 1.379 . S
C2098 H2082 0.931 . S
C2098 C2092 1.383 . S
C2098 C2097 1.379 . S
H2099 C2093 0.959 . S
H2100 C2093 0.961 . S
H2101 C2093 0.960 . S
H2102 C2094 0.930 . S
H2103 C2095 0.929 . S
H2104 C2112 0.929 . S
H2105 C2114 0.930 . S
H2106 C2116 0.930 . S
H2107 C2119 0.929 . S
H2108 C2122 0.930 . S
H2109 C2124 0.960 . S
H2110 C2124 0.960 . S
H2111 C2124 0.960 . S
C2112 H2104 0.929 . S
C2112 C2113 1.377 . S
C2112 C2114 1.384 . S
C2113 C2112 1.377 . S
C2113 C2119 1.390 . S
C2114 H2105 0.930 . S
C2114 C2112 1.384 . S
C2114 C2115 1.372 . S
C2115 C2114 1.372 . S
C2115 C2116 1.400 . S
C2115 C2120 1.490 . S
C2116 H2106 0.930 . S
C2116 C2115 1.400 . S
C2116 C2119 1.386 . S
H2117 C2133 0.930 . S
H2118 C2134 0.931 . S
C2119 H2107 0.929 . S
C2119 C2113 1.390 . S
C2119 C2116 1.386 . S
C2120 C2115 1.490 . S
C2120 C2122 1.395 . S
C2120 C2123 1.403 . S
H2121 C2127 0.930 . S
C2122 H2108 0.930 . S
C2122 C2120 1.395 . S
C2122 C2125 1.403 . S
C2123 C2120 1.403 . S
C2123 C2124 1.524 . S
C2123 C2127 1.400 . S
C2124 H2109 0.960 . S
C2124 H2110 0.960 . S
C2124 H2111 0.960 . S
C2124 C2123 1.524 . S
C2125 C2122 1.403 . S
C2125 C2126 1.392 . S
C2125 C2129 1.495 . S
C2126 C2125 1.392 . S
C2126 C2127 1.385 . S
C2126 C2128 1.478 . S
C2127 H2121 0.930 . S
C2127 C2123 1.400 . S
C2127 C2126 1.385 . S
C2128 C2126 1.478 . S
C2128 C2130 1.381 . S
C2128 C2134 1.383 . S
C2129 C2125 1.495 . S
C2129 H2135 0.959 . S
C2129 H2136 0.961 . S
C2129 H2137 0.960 . S
C2130 C2128 1.381 . S
C2130 C2131 1.394 . S
C2130 H2138 0.930 . S
C2131 C2130 1.394 . S
C2131 C2132 1.383 . S
C2131 H2139 0.929 . S
C2132 C2131 1.383 . S
C2132 C2133 1.377 . S
C2133 H2117 0.930 . S
C2133 C2132 1.377 . S
C2133 C2134 1.379 . S
C2134 H2118 0.931 . S
C2134 C2128 1.383 . S
C2134 C2133 1.379 . S
H2135 C2129 0.959 . S
H2136 C2129 0.961 . S
H2137 C2129 0.960 . S
H2138 C2130 0.930 . S
H2139 C2131 0.929 . S
H2140 C2148 0.929 . S
H2141 C2150 0.930 . S
H2142 C2152 0.930 . S
H2143 C2155 0.929 . S
H2144 C2158 0.930 . S
H2145 C2160 0.960 . S
H2146 C2160 0.960 . S
H2147 C2160 0.960 . S
C2148 H2140 0.929 . S
C2148 C2149 1.377 . S
C2148 C2150 1.384 . S
C2149 C2148 1.377 . S
C2149 C2155 1.390 . S
C2150 H2141 0.930 . S
C2150 C2148 1.384 . S
C2150 C2151 1.372 . S
C2151 C2150 1.372 . S
C2151 C2152 1.400 . S
C2151 C2156 1.490 . S
C2152 H2142 0.930 . S
C2152 C2151 1.400 . S
C2152 C2155 1.386 . S
H2153 C2169 0.930 . S
H2154 C2170 0.931 . S
C2155 H2143 0.929 . S
C2155 C2149 1.390 . S
C2155 C2152 1.386 . S
C2156 C2151 1.490 . S
C2156 C2158 1.395 . S
C2156 C2159 1.403 . S
H2157 C2163 0.930 . S
C2158 H2144 0.930 . S
C2158 C2156 1.395 . S
C2158 C2161 1.403 . S
C2159 C2156 1.403 . S
C2159 C2160 1.524 . S
C2159 C2163 1.400 . S
C2160 H2145 0.960 . S
C2160 H2146 0.960 . S
C2160 H2147 0.960 . S
C2160 C2159 1.524 . S
C2161 C2158 1.403 . S
C2161 C2162 1.392 . S
C2161 C2165 1.495 . S
C2162 C2161 1.392 . S
C2162 C2163 1.385 . S
C2162 C2164 1.478 . S
C2163 H2157 0.930 . S
C2163 C2159 1.400 . S
C2163 C2162 1.385 . S
C2164 C2162 1.478 . S
C2164 C2166 1.381 . S
C2164 C2170 1.383 . S
C2165 C2161 1.495 . S
C2165 H2171 0.959 . S
C2165 H2172 0.961 . S
C2165 H2173 0.960 . S
C2166 C2164 1.381 . S
C2166 C2167 1.394 . S
C2166 H2174 0.930 . S
C2167 C2166 1.394 . S
C2167 C2168 1.383 . S
C2167 H2175 0.929 . S
C2168 C2167 1.383 . S
C2168 C2169 1.377 . S
C2169 H2153 0.930 . S
C2169 C2168 1.377 . S
C2169 C2170 1.379 . S
C2170 H2154 0.931 . S
C2170 C2164 1.383 . S
C2170 C2169 1.379 . S
H2171 C2165 0.959 . S
H2172 C2165 0.961 . S
H2173 C2165 0.960 . S
H2174 C2166 0.930 . S
H2175 C2167 0.929 . S
H2176 C2184 0.929 . S
H2177 C2186 0.930 . S
H2178 C2188 0.930 . S
H2179 C2191 0.929 . S
H2180 C2194 0.930 . S
H2181 C2196 0.960 . S
H2182 C2196 0.960 . S
H2183 C2196 0.960 . S
C2184 H2176 0.929 . S
C2184 C2185 1.377 . S
C2184 C2186 1.384 . S
C2185 C2184 1.377 . S
C2185 C2191 1.390 . S
C2186 H2177 0.930 . S
C2186 C2184 1.384 . S
C2186 C2187 1.372 . S
C2187 C2186 1.372 . S
C2187 C2188 1.400 . S
C2187 C2192 1.490 . S
C2188 H2178 0.930 . S
C2188 C2187 1.400 . S
C2188 C2191 1.386 . S
H2189 C2205 0.930 . S
H2190 C2206 0.931 . S
C2191 H2179 0.929 . S
C2191 C2185 1.390 . S
C2191 C2188 1.386 . S
C2192 C2187 1.490 . S
C2192 C2194 1.395 . S
C2192 C2195 1.403 . S
H2193 C2199 0.930 . S
C2194 H2180 0.930 . S
C2194 C2192 1.395 . S
C2194 C2197 1.403 . S
C2195 C2192 1.403 . S
C2195 C2196 1.524 . S
C2195 C2199 1.400 . S
C2196 H2181 0.960 . S
C2196 H2182 0.960 . S
C2196 H2183 0.960 . S
C2196 C2195 1.524 . S
C2197 C2194 1.403 . S
C2197 C2198 1.392 . S
C2197 C2201 1.495 . S
C2198 C2197 1.392 . S
C2198 C2199 1.385 . S
C2198 C2200 1.478 . S
C2199 H2193 0.930 . S
C2199 C2195 1.400 . S
C2199 C2198 1.385 . S
C2200 C2198 1.478 . S
C2200 C2202 1.381 . S
C2200 C2206 1.383 . S
C2201 C2197 1.495 . S
C2201 H2207 0.959 . S
C2201 H2208 0.961 . S
C2201 H2209 0.960 . S
C2202 C2200 1.381 . S
C2202 C2203 1.394 . S
C2202 H2210 0.930 . S
C2203 C2202 1.394 . S
C2203 C2204 1.383 . S
C2203 H2211 0.929 . S
C2204 C2203 1.383 . S
C2204 C2205 1.377 . S
C2205 H2189 0.930 . S
C2205 C2204 1.377 . S
C2205 C2206 1.379 . S
C2206 H2190 0.931 . S
C2206 C2200 1.383 . S
C2206 C2205 1.379 . S
H2207 C2201 0.959 . S
H2208 C2201 0.961 . S
H2209 C2201 0.960 . S
H2210 C2202 0.930 . S
H2211 C2203 0.929 . S
H2212 C2220 0.929 . S
H2213 C2222 0.930 . S
H2214 C2224 0.930 . S
H2215 C2227 0.929 . S
H2216 C2230 0.930 . S
H2217 C2232 0.960 . S
H2218 C2232 0.960 . S
H2219 C2232 0.960 . S
C2220 H2212 0.929 . S
C2220 C2221 1.377 . S
C2220 C2222 1.384 . S
C2221 C2220 1.377 . S
C2221 C2227 1.390 . S
C2222 H2213 0.930 . S
C2222 C2220 1.384 . S
C2222 C2223 1.372 . S
C2223 C2222 1.372 . S
C2223 C2224 1.400 . S
C2223 C2228 1.490 . S
C2224 H2214 0.930 . S
C2224 C2223 1.400 . S
C2224 C2227 1.386 . S
H2225 C2241 0.930 . S
H2226 C2242 0.931 . S
C2227 H2215 0.929 . S
C2227 C2221 1.390 . S
C2227 C2224 1.386 . S
C2228 C2223 1.490 . S
C2228 C2230 1.395 . S
C2228 C2231 1.403 . S
H2229 C2235 0.930 . S
C2230 H2216 0.930 . S
C2230 C2228 1.395 . S
C2230 C2233 1.403 . S
C2231 C2228 1.403 . S
C2231 C2232 1.524 . S
C2231 C2235 1.400 . S
C2232 H2217 0.960 . S
C2232 H2218 0.960 . S
C2232 H2219 0.960 . S
C2232 C2231 1.524 . S
C2233 C2230 1.403 . S
C2233 C2234 1.392 . S
C2233 C2237 1.495 . S
C2234 C2233 1.392 . S
C2234 C2235 1.385 . S
C2234 C2236 1.478 . S
C2235 H2229 0.930 . S
C2235 C2231 1.400 . S
C2235 C2234 1.385 . S
C2236 C2234 1.478 . S
C2236 C2238 1.381 . S
C2236 C2242 1.383 . S
C2237 C2233 1.495 . S
C2237 H2243 0.959 . S
C2237 H2244 0.961 . S
C2237 H2245 0.960 . S
C2238 C2236 1.381 . S
C2238 C2239 1.394 . S
C2238 H2246 0.930 . S
C2239 C2238 1.394 . S
C2239 C2240 1.383 . S
C2239 H2247 0.929 . S
C2240 C2239 1.383 . S
C2240 C2241 1.377 . S
C2241 H2225 0.930 . S
C2241 C2240 1.377 . S
C2241 C2242 1.379 . S
C2242 H2226 0.931 . S
C2242 C2236 1.383 . S
C2242 C2241 1.379 . S
H2243 C2237 0.959 . S
H2244 C2237 0.961 . S
H2245 C2237 0.960 . S
H2246 C2238 0.930 . S
H2247 C2239 0.929 . S
H2248 C2256 0.929 . S
H2249 C2258 0.930 . S
H2250 C2260 0.930 . S
H2251 C2263 0.929 . S
H2252 C2266 0.930 . S
H2253 C2268 0.960 . S
H2254 C2268 0.960 . S
H2255 C2268 0.960 . S
C2256 H2248 0.929 . S
C2256 C2257 1.377 . S
C2256 C2258 1.384 . S
C2257 C2256 1.377 . S
C2257 C2263 1.390 . S
C2258 H2249 0.930 . S
C2258 C2256 1.384 . S
C2258 C2259 1.372 . S
C2259 C2258 1.372 . S
C2259 C2260 1.400 . S
C2259 C2264 1.490 . S
C2260 H2250 0.930 . S
C2260 C2259 1.400 . S
C2260 C2263 1.386 . S
H2261 C2277 0.930 . S
H2262 C2278 0.931 . S
C2263 H2251 0.929 . S
C2263 C2257 1.390 . S
C2263 C2260 1.386 . S
C2264 C2259 1.490 . S
C2264 C2266 1.395 . S
C2264 C2267 1.403 . S
H2265 C2271 0.930 . S
C2266 H2252 0.930 . S
C2266 C2264 1.395 . S
C2266 C2269 1.403 . S
C2267 C2264 1.403 . S
C2267 C2268 1.524 . S
C2267 C2271 1.400 . S
C2268 H2253 0.960 . S
C2268 H2254 0.960 . S
C2268 H2255 0.960 . S
C2268 C2267 1.524 . S
C2269 C2266 1.403 . S
C2269 C2270 1.392 . S
C2269 C2273 1.495 . S
C2270 C2269 1.392 . S
C2270 C2271 1.385 . S
C2270 C2272 1.478 . S
C2271 H2265 0.930 . S
C2271 C2267 1.400 . S
C2271 C2270 1.385 . S
C2272 C2270 1.478 . S
C2272 C2274 1.381 . S
C2272 C2278 1.383 . S
C2273 C2269 1.495 . S
C2273 H2279 0.959 . S
C2273 H2280 0.961 . S
C2273 H2281 0.960 . S
C2274 C2272 1.381 . S
C2274 C2275 1.394 . S
C2274 H2282 0.930 . S
C2275 C2274 1.394 . S
C2275 C2276 1.383 . S
C2275 H2283 0.929 . S
C2276 C2275 1.383 . S
C2276 C2277 1.377 . S
C2277 H2261 0.930 . S
C2277 C2276 1.377 . S
C2277 C2278 1.379 . S
C2278 H2262 0.931 . S
C2278 C2272 1.383 . S
C2278 C2277 1.379 . S
H2279 C2273 0.959 . S
H2280 C2273 0.961 . S
H2281 C2273 0.960 . S
H2282 C2274 0.930 . S
H2283 C2275 0.929 . S
H2284 C2292 0.929 . S
H2285 C2294 0.930 . S
H2286 C2296 0.930 . S
H2287 C2299 0.929 . S
H2288 C2302 0.930 . S
H2289 C2304 0.960 . S
H2290 C2304 0.960 . S
H2291 C2304 0.960 . S
C2292 H2284 0.929 . S
C2292 C2293 1.377 . S
C2292 C2294 1.384 . S
C2293 C2292 1.377 . S
C2293 C2299 1.390 . S
C2294 H2285 0.930 . S
C2294 C2292 1.384 . S
C2294 C2295 1.372 . S
C2295 C2294 1.372 . S
C2295 C2296 1.400 . S
C2295 C2300 1.490 . S
C2296 H2286 0.930 . S
C2296 C2295 1.400 . S
C2296 C2299 1.386 . S
H2297 C2313 0.930 . S
H2298 C2314 0.931 . S
C2299 H2287 0.929 . S
C2299 C2293 1.390 . S
C2299 C2296 1.386 . S
C2300 C2295 1.490 . S
C2300 C2302 1.395 . S
C2300 C2303 1.403 . S
H2301 C2307 0.930 . S
C2302 H2288 0.930 . S
C2302 C2300 1.395 . S
C2302 C2305 1.403 . S
C2303 C2300 1.403 . S
C2303 C2304 1.524 . S
C2303 C2307 1.400 . S
C2304 H2289 0.960 . S
C2304 H2290 0.960 . S
C2304 H2291 0.960 . S
C2304 C2303 1.524 . S
C2305 C2302 1.403 . S
C2305 C2306 1.392 . S
C2305 C2309 1.495 . S
C2306 C2305 1.392 . S
C2306 C2307 1.385 . S
C2306 C2308 1.478 . S
C2307 H2301 0.930 . S
C2307 C2303 1.400 . S
C2307 C2306 1.385 . S
C2308 C2306 1.478 . S
C2308 C2310 1.381 . S
C2308 C2314 1.383 . S
C2309 C2305 1.495 . S
C2309 H2315 0.959 . S
C2309 H2316 0.961 . S
C2309 H2317 0.960 . S
C2310 C2308 1.381 . S
C2310 C2311 1.394 . S
C2310 H2318 0.930 . S
C2311 C2310 1.394 . S
C2311 C2312 1.383 . S
C2311 H2319 0.929 . S
C2312 C2311 1.383 . S
C2312 C2313 1.377 . S
C2313 H2297 0.930 . S
C2313 C2312 1.377 . S
C2313 C2314 1.379 . S
C2314 H2298 0.931 . S
C2314 C2308 1.383 . S
C2314 C2313 1.379 . S
H2315 C2309 0.959 . S
H2316 C2309 0.961 . S
H2317 C2309 0.960 . S
H2318 C2310 0.930 . S
H2319 C2311 0.929 . S
H2320 C2328 0.929 . S
H2321 C2330 0.930 . S
H2322 C2332 0.930 . S
H2323 C2335 0.929 . S
H2324 C2338 0.930 . S
H2325 C2340 0.960 . S
H2326 C2340 0.960 . S
H2327 C2340 0.960 . S
C2328 H2320 0.929 . S
C2328 C2329 1.377 . S
C2328 C2330 1.384 . S
C2329 C2328 1.377 . S
C2329 C2335 1.390 . S
C2330 H2321 0.930 . S
C2330 C2328 1.384 . S
C2330 C2331 1.372 . S
C2331 C2330 1.372 . S
C2331 C2332 1.400 . S
C2331 C2336 1.490 . S
C2332 H2322 0.930 . S
C2332 C2331 1.400 . S
C2332 C2335 1.386 . S
H2333 C2349 0.930 . S
H2334 C2350 0.931 . S
C2335 H2323 0.929 . S
C2335 C2329 1.390 . S
C2335 C2332 1.386 . S
C2336 C2331 1.490 . S
C2336 C2338 1.395 . S
C2336 C2339 1.403 . S
H2337 C2343 0.930 . S
C2338 H2324 0.930 . S
C2338 C2336 1.395 . S
C2338 C2341 1.403 . S
C2339 C2336 1.403 . S
C2339 C2340 1.524 . S
C2339 C2343 1.400 . S
C2340 H2325 0.960 . S
C2340 H2326 0.960 . S
C2340 H2327 0.960 . S
C2340 C2339 1.524 . S
C2341 C2338 1.403 . S
C2341 C2342 1.392 . S
C2341 C2345 1.495 . S
C2342 C2341 1.392 . S
C2342 C2343 1.385 . S
C2342 C2344 1.478 . S
C2343 H2337 0.930 . S
C2343 C2339 1.400 . S
C2343 C2342 1.385 . S
C2344 C2342 1.478 . S
C2344 C2346 1.381 . S
C2344 C2350 1.383 . S
C2345 C2341 1.495 . S
C2345 H2351 0.959 . S
C2345 H2352 0.961 . S
C2345 H2353 0.960 . S
C2346 C2344 1.381 . S
C2346 C2347 1.394 . S
C2346 H2354 0.930 . S
C2347 C2346 1.394 . S
C2347 C2348 1.383 . S
C2347 H2355 0.929 . S
C2348 C2347 1.383 . S
C2348 C2349 1.377 . S
C2349 H2333 0.930 . S
C2349 C2348 1.377 . S
C2349 C2350 1.379 . S
C2350 H2334 0.931 . S
C2350 C2344 1.383 . S
C2350 C2349 1.379 . S
H2351 C2345 0.959 . S
H2352 C2345 0.961 . S
H2353 C2345 0.960 . S
H2354 C2346 0.930 . S
H2355 C2347 0.929 . S
H2356 C2364 0.929 . S
H2357 C2366 0.930 . S
H2358 C2368 0.930 . S
H2359 C2371 0.929 . S
H2360 C2374 0.930 . S
H2361 C2376 0.960 . S
H2362 C2376 0.960 . S
H2363 C2376 0.960 . S
C2364 H2356 0.929 . S
C2364 C2365 1.377 . S
C2364 C2366 1.384 . S
C2365 C2364 1.377 . S
C2365 C2371 1.390 . S
C2366 H2357 0.930 . S
C2366 C2364 1.384 . S
C2366 C2367 1.372 . S
C2367 C2366 1.372 . S
C2367 C2368 1.400 . S
C2367 C2372 1.490 . S
C2368 H2358 0.930 . S
C2368 C2367 1.400 . S
C2368 C2371 1.386 . S
H2369 C2385 0.930 . S
H2370 C2386 0.931 . S
C2371 H2359 0.929 . S
C2371 C2365 1.390 . S
C2371 C2368 1.386 . S
C2372 C2367 1.490 . S
C2372 C2374 1.395 . S
C2372 C2375 1.403 . S
H2373 C2379 0.930 . S
C2374 H2360 0.930 . S
C2374 C2372 1.395 . S
C2374 C2377 1.403 . S
C2375 C2372 1.403 . S
C2375 C2376 1.524 . S
C2375 C2379 1.400 . S
C2376 H2361 0.960 . S
C2376 H2362 0.960 . S
C2376 H2363 0.960 . S
C2376 C2375 1.524 . S
C2377 C2374 1.403 . S
C2377 C2378 1.392 . S
C2377 C2381 1.495 . S
C2378 C2377 1.392 . S
C2378 C2379 1.385 . S
C2378 C2380 1.478 . S
C2379 H2373 0.930 . S
C2379 C2375 1.400 . S
C2379 C2378 1.385 . S
C2380 C2378 1.478 . S
C2380 C2382 1.381 . S
C2380 C2386 1.383 . S
C2381 C2377 1.495 . S
C2381 H2387 0.959 . S
C2381 H2388 0.961 . S
C2381 H2389 0.960 . S
C2382 C2380 1.381 . S
C2382 C2383 1.394 . S
C2382 H2390 0.930 . S
C2383 C2382 1.394 . S
C2383 C2384 1.383 . S
C2383 H2391 0.929 . S
C2384 C2383 1.383 . S
C2384 C2385 1.377 . S
C2385 H2369 0.930 . S
C2385 C2384 1.377 . S
C2385 C2386 1.379 . S
C2386 H2370 0.931 . S
C2386 C2380 1.383 . S
C2386 C2385 1.379 . S
H2387 C2381 0.959 . S
H2388 C2381 0.961 . S
H2389 C2381 0.960 . S
H2390 C2382 0.930 . S
H2391 C2383 0.929 . S
H2392 C2400 0.929 . S
H2393 C2402 0.930 . S
H2394 C2404 0.930 . S
H2395 C2407 0.929 . S
H2396 C2410 0.930 . S
H2397 C2412 0.960 . S
H2398 C2412 0.960 . S
H2399 C2412 0.960 . S
C2400 H2392 0.929 . S
C2400 C2401 1.377 . S
C2400 C2402 1.384 . S
C2401 C2400 1.377 . S
C2401 C2407 1.390 . S
C2402 H2393 0.930 . S
C2402 C2400 1.384 . S
C2402 C2403 1.372 . S
C2403 C2402 1.372 . S
C2403 C2404 1.400 . S
C2403 C2408 1.490 . S
C2404 H2394 0.930 . S
C2404 C2403 1.400 . S
C2404 C2407 1.386 . S
H2405 C2421 0.930 . S
H2406 C2422 0.931 . S
C2407 H2395 0.929 . S
C2407 C2401 1.390 . S
C2407 C2404 1.386 . S
C2408 C2403 1.490 . S
C2408 C2410 1.395 . S
C2408 C2411 1.403 . S
H2409 C2415 0.930 . S
C2410 H2396 0.930 . S
C2410 C2408 1.395 . S
C2410 C2413 1.403 . S
C2411 C2408 1.403 . S
C2411 C2412 1.524 . S
C2411 C2415 1.400 . S
C2412 H2397 0.960 . S
C2412 H2398 0.960 . S
C2412 H2399 0.960 . S
C2412 C2411 1.524 . S
C2413 C2410 1.403 . S
C2413 C2414 1.392 . S
C2413 C2417 1.495 . S
C2414 C2413 1.392 . S
C2414 C2415 1.385 . S
C2414 C2416 1.478 . S
C2415 H2409 0.930 . S
C2415 C2411 1.400 . S
C2415 C2414 1.385 . S
C2416 C2414 1.478 . S
C2416 C2418 1.381 . S
C2416 C2422 1.383 . S
C2417 C2413 1.495 . S
C2417 H2423 0.959 . S
C2417 H2424 0.961 . S
C2417 H2425 0.960 . S
C2418 C2416 1.381 . S
C2418 C2419 1.394 . S
C2418 H2426 0.930 . S
C2419 C2418 1.394 . S
C2419 C2420 1.383 . S
C2419 H2427 0.929 . S
C2420 C2419 1.383 . S
C2420 C2421 1.377 . S
C2421 H2405 0.930 . S
C2421 C2420 1.377 . S
C2421 C2422 1.379 . S
C2422 H2406 0.931 . S
C2422 C2416 1.383 . S
C2422 C2421 1.379 . S
H2423 C2417 0.959 . S
H2424 C2417 0.961 . S
H2425 C2417 0.960 . S
H2426 C2418 0.930 . S
H2427 C2419 0.929 . S
H2428 C2436 0.929 . S
H2429 C2438 0.930 . S
H2430 C2440 0.930 . S
H2431 C2443 0.929 . S
H2432 C2446 0.930 . S
H2433 C2448 0.960 . S
H2434 C2448 0.960 . S
H2435 C2448 0.960 . S
C2436 H2428 0.929 . S
C2436 C2437 1.377 . S
C2436 C2438 1.384 . S
C2437 C2436 1.377 . S
C2437 C2443 1.390 . S
C2438 H2429 0.930 . S
C2438 C2436 1.384 . S
C2438 C2439 1.372 . S
C2439 C2438 1.372 . S
C2439 C2440 1.400 . S
C2439 C2444 1.490 . S
C2440 H2430 0.930 . S
C2440 C2439 1.400 . S
C2440 C2443 1.386 . S
H2441 C2457 0.930 . S
H2442 C2458 0.931 . S
C2443 H2431 0.929 . S
C2443 C2437 1.390 . S
C2443 C2440 1.386 . S
C2444 C2439 1.490 . S
C2444 C2446 1.395 . S
C2444 C2447 1.403 . S
H2445 C2451 0.930 . S
C2446 H2432 0.930 . S
C2446 C2444 1.395 . S
C2446 C2449 1.403 . S
C2447 C2444 1.403 . S
C2447 C2448 1.524 . S
C2447 C2451 1.400 . S
C2448 H2433 0.960 . S
C2448 H2434 0.960 . S
C2448 H2435 0.960 . S
C2448 C2447 1.524 . S
C2449 C2446 1.403 . S
C2449 C2450 1.392 . S
C2449 C2453 1.495 . S
C2450 C2449 1.392 . S
C2450 C2451 1.385 . S
C2450 C2452 1.478 . S
C2451 H2445 0.930 . S
C2451 C2447 1.400 . S
C2451 C2450 1.385 . S
C2452 C2450 1.478 . S
C2452 C2454 1.381 . S
C2452 C2458 1.383 . S
C2453 C2449 1.495 . S
C2453 H2459 0.959 . S
C2453 H2460 0.961 . S
C2453 H2461 0.960 . S
C2454 C2452 1.381 . S
C2454 C2455 1.394 . S
C2454 H2462 0.930 . S
C2455 C2454 1.394 . S
C2455 C2456 1.383 . S
C2455 H2463 0.929 . S
C2456 C2455 1.383 . S
C2456 C2457 1.377 . S
C2457 H2441 0.930 . S
C2457 C2456 1.377 . S
C2457 C2458 1.379 . S
C2458 H2442 0.931 . S
C2458 C2452 1.383 . S
C2458 C2457 1.379 . S
H2459 C2453 0.959 . S
H2460 C2453 0.961 . S
H2461 C2453 0.960 . S
H2462 C2454 0.930 . S
H2463 C2455 0.929 . S
H2464 C2472 0.929 . S
H2465 C2474 0.930 . S
H2466 C2476 0.930 . S
H2467 C2479 0.929 . S
H2468 C2482 0.930 . S
H2469 C2484 0.960 . S
H2470 C2484 0.960 . S
H2471 C2484 0.960 . S
C2472 H2464 0.929 . S
C2472 C2473 1.377 . S
C2472 C2474 1.384 . S
C2473 C2472 1.377 . S
C2473 C2479 1.390 . S
C2474 H2465 0.930 . S
C2474 C2472 1.384 . S
C2474 C2475 1.372 . S
C2475 C2474 1.372 . S
C2475 C2476 1.400 . S
C2475 C2480 1.490 . S
C2476 H2466 0.930 . S
C2476 C2475 1.400 . S
C2476 C2479 1.386 . S
H2477 C2493 0.930 . S
H2478 C2494 0.931 . S
C2479 H2467 0.929 . S
C2479 C2473 1.390 . S
C2479 C2476 1.386 . S
C2480 C2475 1.490 . S
C2480 C2482 1.395 . S
C2480 C2483 1.403 . S
H2481 C2487 0.930 . S
C2482 H2468 0.930 . S
C2482 C2480 1.395 . S
C2482 C2485 1.403 . S
C2483 C2480 1.403 . S
C2483 C2484 1.524 . S
C2483 C2487 1.400 . S
C2484 H2469 0.960 . S
C2484 H2470 0.960 . S
C2484 H2471 0.960 . S
C2484 C2483 1.524 . S
C2485 C2482 1.403 . S
C2485 C2486 1.392 . S
C2485 C2489 1.495 . S
C2486 C2485 1.392 . S
C2486 C2487 1.385 . S
C2486 C2488 1.478 . S
C2487 H2481 0.930 . S
C2487 C2483 1.400 . S
C2487 C2486 1.385 . S
C2488 C2486 1.478 . S
C2488 C2490 1.381 . S
C2488 C2494 1.383 . S
C2489 C2485 1.495 . S
C2489 H2495 0.959 . S
C2489 H2496 0.961 . S
C2489 H2497 0.960 . S
C2490 C2488 1.381 . S
C2490 C2491 1.394 . S
C2490 H2498 0.930 . S
C2491 C2490 1.394 . S
C2491 C2492 1.383 . S
C2491 H2499 0.929 . S
C2492 C2491 1.383 . S
C2492 C2493 1.377 . S
C2493 H2477 0.930 . S
C2493 C2492 1.377 . S
C2493 C2494 1.379 . S
C2494 H2478 0.931 . S
C2494 C2488 1.383 . S
C2494 C2493 1.379 . S
H2495 C2489 0.959 . S
H2496 C2489 0.961 . S
H2497 C2489 0.960 . S
H2498 C2490 0.930 . S
H2499 C2491 0.929 . S
H2500 C2508 0.929 . S
H2501 C2510 0.930 . S
H2502 C2512 0.930 . S
H2503 C2515 0.929 . S
H2504 C2518 0.930 . S
H2505 C2520 0.960 . S
H2506 C2520 0.960 . S
H2507 C2520 0.960 . S
C2508 H2500 0.929 . S
C2508 C2509 1.377 . S
C2508 C2510 1.384 . S
C2509 C2508 1.377 . S
C2509 C2515 1.390 . S
C2510 H2501 0.930 . S
C2510 C2508 1.384 . S
C2510 C2511 1.372 . S
C2511 C2510 1.372 . S
C2511 C2512 1.400 . S
C2511 C2516 1.490 . S
C2512 H2502 0.930 . S
C2512 C2511 1.400 . S
C2512 C2515 1.386 . S
H2513 C2529 0.930 . S
H2514 C2530 0.931 . S
C2515 H2503 0.929 . S
C2515 C2509 1.390 . S
C2515 C2512 1.386 . S
C2516 C2511 1.490 . S
C2516 C2518 1.395 . S
C2516 C2519 1.403 . S
H2517 C2523 0.930 . S
C2518 H2504 0.930 . S
C2518 C2516 1.395 . S
C2518 C2521 1.403 . S
C2519 C2516 1.403 . S
C2519 C2520 1.524 . S
C2519 C2523 1.400 . S
C2520 H2505 0.960 . S
C2520 H2506 0.960 . S
C2520 H2507 0.960 . S
C2520 C2519 1.524 . S
C2521 C2518 1.403 . S
C2521 C2522 1.392 . S
C2521 C2525 1.495 . S
C2522 C2521 1.392 . S
C2522 C2523 1.385 . S
C2522 C2524 1.478 . S
C2523 H2517 0.930 . S
C2523 C2519 1.400 . S
C2523 C2522 1.385 . S
C2524 C2522 1.478 . S
C2524 C2526 1.381 . S
C2524 C2530 1.383 . S
C2525 C2521 1.495 . S
C2525 H2531 0.959 . S
C2525 H2532 0.961 . S
C2525 H2533 0.960 . S
C2526 C2524 1.381 . S
C2526 C2527 1.394 . S
C2526 H2534 0.930 . S
C2527 C2526 1.394 . S
C2527 C2528 1.383 . S
C2527 H2535 0.929 . S
C2528 C2527 1.383 . S
C2528 C2529 1.377 . S
C2529 H2513 0.930 . S
C2529 C2528 1.377 . S
C2529 C2530 1.379 . S
C2530 H2514 0.931 . S
C2530 C2524 1.383 . S
C2530 C2529 1.379 . S
H2531 C2525 0.959 . S
H2532 C2525 0.961 . S
H2533 C2525 0.960 . S
H2534 C2526 0.930 . S
H2535 C2527 0.929 . S
H2536 C2544 0.929 . S
H2537 C2546 0.930 . S
H2538 C2548 0.930 . S
H2539 C2551 0.929 . S
H2540 C2554 0.930 . S
H2541 C2556 0.960 . S
H2542 C2556 0.960 . S
H2543 C2556 0.960 . S
C2544 H2536 0.929 . S
C2544 C2545 1.377 . S
C2544 C2546 1.384 . S
C2545 C2544 1.377 . S
C2545 C2551 1.390 . S
C2546 H2537 0.930 . S
C2546 C2544 1.384 . S
C2546 C2547 1.372 . S
C2547 C2546 1.372 . S
C2547 C2548 1.400 . S
C2547 C2552 1.490 . S
C2548 H2538 0.930 . S
C2548 C2547 1.400 . S
C2548 C2551 1.386 . S
H2549 C2565 0.930 . S
H2550 C2566 0.931 . S
C2551 H2539 0.929 . S
C2551 C2545 1.390 . S
C2551 C2548 1.386 . S
C2552 C2547 1.490 . S
C2552 C2554 1.395 . S
C2552 C2555 1.403 . S
H2553 C2559 0.930 . S
C2554 H2540 0.930 . S
C2554 C2552 1.395 . S
C2554 C2557 1.403 . S
C2555 C2552 1.403 . S
C2555 C2556 1.524 . S
C2555 C2559 1.400 . S
C2556 H2541 0.960 . S
C2556 H2542 0.960 . S
C2556 H2543 0.960 . S
C2556 C2555 1.524 . S
C2557 C2554 1.403 . S
C2557 C2558 1.392 . S
C2557 C2561 1.495 . S
C2558 C2557 1.392 . S
C2558 C2559 1.385 . S
C2558 C2560 1.478 . S
C2559 H2553 0.930 . S
C2559 C2555 1.400 . S
C2559 C2558 1.385 . S
C2560 C2558 1.478 . S
C2560 C2562 1.381 . S
C2560 C2566 1.383 . S
C2561 C2557 1.495 . S
C2561 H2567 0.959 . S
C2561 H2568 0.961 . S
C2561 H2569 0.960 . S
C2562 C2560 1.381 . S
C2562 C2563 1.394 . S
C2562 H2570 0.930 . S
C2563 C2562 1.394 . S
C2563 C2564 1.383 . S
C2563 H2571 0.929 . S
C2564 C2563 1.383 . S
C2564 C2565 1.377 . S
C2565 H2549 0.930 . S
C2565 C2564 1.377 . S
C2565 C2566 1.379 . S
C2566 H2550 0.931 . S
C2566 C2560 1.383 . S
C2566 C2565 1.379 . S
H2567 C2561 0.959 . S
H2568 C2561 0.961 . S
H2569 C2561 0.960 . S
H2570 C2562 0.930 . S
H2571 C2563 0.929 . S
H2572 C2580 0.929 . S
H2573 C2582 0.930 . S
H2574 C2584 0.930 . S
H2575 C2587 0.929 . S
H2576 C2590 0.930 . S
H2577 C2592 0.960 . S
H2578 C2592 0.960 . S
H2579 C2592 0.960 . S
C2580 H2572 0.929 . S
C2580 C2581 1.377 . S
C2580 C2582 1.384 . S
C2581 C2580 1.377 . S
C2581 C2587 1.390 . S
C2582 H2573 0.930 . S
C2582 C2580 1.384 . S
C2582 C2583 1.372 . S
C2583 C2582 1.372 . S
C2583 C2584 1.400 . S
C2583 C2588 1.490 . S
C2584 H2574 0.930 . S
C2584 C2583 1.400 . S
C2584 C2587 1.386 . S
H2585 C2601 0.930 . S
H2586 C2602 0.931 . S
C2587 H2575 0.929 . S
C2587 C2581 1.390 . S
C2587 C2584 1.386 . S
C2588 C2583 1.490 . S
C2588 C2590 1.395 . S
C2588 C2591 1.403 . S
H2589 C2595 0.930 . S
C2590 H2576 0.930 . S
C2590 C2588 1.395 . S
C2590 C2593 1.403 . S
C2591 C2588 1.403 . S
C2591 C2592 1.524 . S
C2591 C2595 1.400 . S
C2592 H2577 0.960 . S
C2592 H2578 0.960 . S
C2592 H2579 0.960 . S
C2592 C2591 1.524 . S
C2593 C2590 1.403 . S
C2593 C2594 1.392 . S
C2593 C2597 1.495 . S
C2594 C2593 1.392 . S
C2594 C2595 1.385 . S
C2594 C2596 1.478 . S
C2595 H2589 0.930 . S
C2595 C2591 1.400 . S
C2595 C2594 1.385 . S
C2596 C2594 1.478 . S
C2596 C2598 1.381 . S
C2596 C2602 1.383 . S
C2597 C2593 1.495 . S
C2597 H2603 0.959 . S
C2597 H2604 0.961 . S
C2597 H2605 0.960 . S
C2598 C2596 1.381 . S
C2598 C2599 1.394 . S
C2598 H2606 0.930 . S
C2599 C2598 1.394 . S
C2599 C2600 1.383 . S
C2599 H2607 0.929 . S
C2600 C2599 1.383 . S
C2600 C2601 1.377 . S
C2601 H2585 0.930 . S
C2601 C2600 1.377 . S
C2601 C2602 1.379 . S
C2602 H2586 0.931 . S
C2602 C2596 1.383 . S
C2602 C2601 1.379 . S
H2603 C2597 0.959 . S
H2604 C2597 0.961 . S
H2605 C2597 0.960 . S
H2606 C2598 0.930 . S
H2607 C2599 0.929 . S
H2608 C2616 0.929 . S
H2609 C2618 0.930 . S
H2610 C2620 0.930 . S
H2611 C2623 0.929 . S
H2612 C2626 0.930 . S
H2613 C2628 0.960 . S
H2614 C2628 0.960 . S
H2615 C2628 0.960 . S
C2616 H2608 0.929 . S
C2616 C2617 1.377 . S
C2616 C2618 1.384 . S
C2617 C2616 1.377 . S
C2617 C2623 1.390 . S
C2618 H2609 0.930 . S
C2618 C2616 1.384 . S
C2618 C2619 1.372 . S
C2619 C2618 1.372 . S
C2619 C2620 1.400 . S
C2619 C2624 1.490 . S
C2620 H2610 0.930 . S
C2620 C2619 1.400 . S
C2620 C2623 1.386 . S
H2621 C2637 0.930 . S
H2622 C2638 0.931 . S
C2623 H2611 0.929 . S
C2623 C2617 1.390 . S
C2623 C2620 1.386 . S
C2624 C2619 1.490 . S
C2624 C2626 1.395 . S
C2624 C2627 1.403 . S
H2625 C2631 0.930 . S
C2626 H2612 0.930 . S
C2626 C2624 1.395 . S
C2626 C2629 1.403 . S
C2627 C2624 1.403 . S
C2627 C2628 1.524 . S
C2627 C2631 1.400 . S
C2628 H2613 0.960 . S
C2628 H2614 0.960 . S
C2628 H2615 0.960 . S
C2628 C2627 1.524 . S
C2629 C2626 1.403 . S
C2629 C2630 1.392 . S
C2629 C2633 1.495 . S
C2630 C2629 1.392 . S
C2630 C2631 1.385 . S
C2630 C2632 1.478 . S
C2631 H2625 0.930 . S
C2631 C2627 1.400 . S
C2631 C2630 1.385 . S
C2632 C2630 1.478 . S
C2632 C2634 1.381 . S
C2632 C2638 1.383 . S
C2633 C2629 1.495 . S
C2633 H2639 0.959 . S
C2633 H2640 0.961 . S
C2633 H2641 0.960 . S
C2634 C2632 1.381 . S
C2634 C2635 1.394 . S
C2634 H2642 0.930 . S
C2635 C2634 1.394 . S
C2635 C2636 1.383 . S
C2635 H2643 0.929 . S
C2636 C2635 1.383 . S
C2636 C2637 1.377 . S
C2637 H2621 0.930 . S
C2637 C2636 1.377 . S
C2637 C2638 1.379 . S
C2638 H2622 0.931 . S
C2638 C2632 1.383 . S
C2638 C2637 1.379 . S
H2639 C2633 0.959 . S
H2640 C2633 0.961 . S
H2641 C2633 0.960 . S
H2642 C2634 0.930 . S
H2643 C2635 0.929 . S
H2644 C2652 0.929 . S
H2645 C2654 0.930 . S
H2646 C2656 0.930 . S
H2647 C2659 0.929 . S
H2648 C2662 0.930 . S
H2649 C2664 0.960 . S
H2650 C2664 0.960 . S
H2651 C2664 0.960 . S
C2652 H2644 0.929 . S
C2652 C2653 1.377 . S
C2652 C2654 1.384 . S
C2653 C2652 1.377 . S
C2653 C2659 1.390 . S
C2654 H2645 0.930 . S
C2654 C2652 1.384 . S
C2654 C2655 1.372 . S
C2655 C2654 1.372 . S
C2655 C2656 1.400 . S
C2655 C2660 1.490 . S
C2656 H2646 0.930 . S
C2656 C2655 1.400 . S
C2656 C2659 1.386 . S
H2657 C2673 0.930 . S
H2658 C2674 0.931 . S
C2659 H2647 0.929 . S
C2659 C2653 1.390 . S
C2659 C2656 1.386 . S
C2660 C2655 1.490 . S
C2660 C2662 1.395 . S
C2660 C2663 1.403 . S
H2661 C2667 0.930 . S
C2662 H2648 0.930 . S
C2662 C2660 1.395 . S
C2662 C2665 1.403 . S
C2663 C2660 1.403 . S
C2663 C2664 1.524 . S
C2663 C2667 1.400 . S
C2664 H2649 0.960 . S
C2664 H2650 0.960 . S
C2664 H2651 0.960 . S
C2664 C2663 1.524 . S
C2665 C2662 1.403 . S
C2665 C2666 1.392 . S
C2665 C2669 1.495 . S
C2666 C2665 1.392 . S
C2666 C2667 1.385 . S
C2666 C2668 1.478 . S
C2667 H2661 0.930 . S
C2667 C2663 1.400 . S
C2667 C2666 1.385 . S
C2668 C2666 1.478 . S
C2668 C2670 1.381 . S
C2668 C2674 1.383 . S
C2669 C2665 1.495 . S
C2669 H2675 0.959 . S
C2669 H2676 0.961 . S
C2669 H2677 0.960 . S
C2670 C2668 1.381 . S
C2670 C2671 1.394 . S
C2670 H2678 0.930 . S
C2671 C2670 1.394 . S
C2671 C2672 1.383 . S
C2671 H2679 0.929 . S
C2672 C2671 1.383 . S
C2672 C2673 1.377 . S
C2673 H2657 0.930 . S
C2673 C2672 1.377 . S
C2673 C2674 1.379 . S
C2674 H2658 0.931 . S
C2674 C2668 1.383 . S
C2674 C2673 1.379 . S
H2675 C2669 0.959 . S
H2676 C2669 0.961 . S
H2677 C2669 0.960 . S
H2678 C2670 0.930 . S
H2679 C2671 0.929 . S
H2680 C2688 0.929 . S
H2681 C2690 0.930 . S
H2682 C2692 0.930 . S
H2683 C2695 0.929 . S
H2684 C2698 0.930 . S
H2685 C2700 0.960 . S
H2686 C2700 0.960 . S
H2687 C2700 0.960 . S
C2688 H2680 0.929 . S
C2688 C2689 1.377 . S
C2688 C2690 1.384 . S
C2689 C2688 1.377 . S
C2689 C2695 1.390 . S
C2690 H2681 0.930 . S
C2690 C2688 1.384 . S
C2690 C2691 1.372 . S
C2691 C2690 1.372 . S
C2691 C2692 1.400 . S
C2691 C2696 1.490 . S
C2692 H2682 0.930 . S
C2692 C2691 1.400 . S
C2692 C2695 1.386 . S
H2693 C2709 0.930 . S
H2694 C2710 0.931 . S
C2695 H2683 0.929 . S
C2695 C2689 1.390 . S
C2695 C2692 1.386 . S
C2696 C2691 1.490 . S
C2696 C2698 1.395 . S
C2696 C2699 1.403 . S
H2697 C2703 0.930 . S
C2698 H2684 0.930 . S
C2698 C2696 1.395 . S
C2698 C2701 1.403 . S
C2699 C2696 1.403 . S
C2699 C2700 1.524 . S
C2699 C2703 1.400 . S
C2700 H2685 0.960 . S
C2700 H2686 0.960 . S
C2700 H2687 0.960 . S
C2700 C2699 1.524 . S
C2701 C2698 1.403 . S
C2701 C2702 1.392 . S
C2701 C2705 1.495 . S
C2702 C2701 1.392 . S
C2702 C2703 1.385 . S
C2702 C2704 1.478 . S
C2703 H2697 0.930 . S
C2703 C2699 1.400 . S
C2703 C2702 1.385 . S
C2704 C2702 1.478 . S
C2704 C2706 1.381 . S
C2704 C2710 1.383 . S
C2705 C2701 1.495 . S
C2705 H2711 0.959 . S
C2705 H2712 0.961 . S
C2705 H2713 0.960 . S
C2706 C2704 1.381 . S
C2706 C2707 1.394 1_655 S
C2706 H2714 0.930 . S
C2707 C2706 1.394 1_455 S
C2707 C2708 1.383 . S
C2707 H2715 0.929 . S
C2708 C2707 1.383 . S
C2708 C2709 1.377 1_455 S
C2709 H2693 0.930 . S
C2709 C2708 1.377 1_655 S
C2709 C2710 1.379 . S
C2710 H2694 0.931 . S
C2710 C2704 1.383 . S
C2710 C2709 1.379 . S
H2711 C2705 0.959 . S
H2712 C2705 0.961 . S
H2713 C2705 0.960 . S
H2714 C2706 0.930 . S
H2715 C2707 0.929 . S
H2716 C2724 0.929 . S
H2717 C2726 0.930 . S
H2718 C2728 0.930 . S
H2719 C2731 0.929 . S
H2720 C2734 0.930 . S
H2721 C2736 0.960 . S
H2722 C2736 0.960 . S
H2723 C2736 0.960 . S
C2724 H2716 0.929 . S
C2724 C2725 1.377 . S
C2724 C2726 1.384 . S
C2725 C2724 1.377 . S
C2725 C2731 1.390 . S
C2726 H2717 0.930 . S
C2726 C2724 1.384 . S
C2726 C2727 1.372 . S
C2727 C2726 1.372 . S
C2727 C2728 1.400 . S
C2727 C2732 1.490 . S
C2728 H2718 0.930 . S
C2728 C2727 1.400 . S
C2728 C2731 1.386 . S
H2729 C2745 0.930 . S
H2730 C2746 0.931 . S
C2731 H2719 0.929 . S
C2731 C2725 1.390 . S
C2731 C2728 1.386 . S
C2732 C2727 1.490 . S
C2732 C2734 1.395 . S
C2732 C2735 1.403 . S
H2733 C2739 0.930 . S
C2734 H2720 0.930 . S
C2734 C2732 1.395 . S
C2734 C2737 1.403 . S
C2735 C2732 1.403 . S
C2735 C2736 1.524 . S
C2735 C2739 1.400 . S
C2736 H2721 0.960 . S
C2736 H2722 0.960 . S
C2736 H2723 0.960 . S
C2736 C2735 1.524 . S
C2737 C2734 1.403 . S
C2737 C2738 1.392 . S
C2737 C2741 1.495 . S
C2738 C2737 1.392 . S
C2738 C2739 1.385 . S
C2738 C2740 1.478 . S
C2739 H2733 0.930 . S
C2739 C2735 1.400 . S
C2739 C2738 1.385 . S
C2740 C2738 1.478 . S
C2740 C2742 1.381 . S
C2740 C2746 1.383 . S
C2741 C2737 1.495 . S
C2741 H2747 0.959 . S
C2741 H2748 0.961 . S
C2741 H2749 0.960 . S
C2742 C2740 1.381 . S
C2742 C2743 1.394 . S
C2742 H2750 0.930 . S
C2743 C2742 1.394 . S
C2743 C2744 1.383 . S
C2743 H2751 0.929 . S
C2744 C2743 1.383 . S
C2744 C2745 1.377 . S
C2745 H2729 0.930 . S
C2745 C2744 1.377 . S
C2745 C2746 1.379 . S
C2746 H2730 0.931 . S
C2746 C2740 1.383 . S
C2746 C2745 1.379 . S
H2747 C2741 0.959 . S
H2748 C2741 0.961 . S
H2749 C2741 0.960 . S
H2750 C2742 0.930 . S
H2751 C2743 0.929 . S
H2752 C2760 0.929 . S
H2753 C2762 0.930 . S
H2754 C2764 0.930 . S
H2755 C2767 0.929 . S
H2756 C2770 0.930 . S
H2757 C2772 0.960 . S
H2758 C2772 0.960 . S
H2759 C2772 0.960 . S
C2760 H2752 0.929 . S
C2760 C2761 1.377 . S
C2760 C2762 1.384 . S
C2761 C2760 1.377 . S
C2761 C2767 1.390 . S
C2762 H2753 0.930 . S
C2762 C2760 1.384 . S
C2762 C2763 1.372 . S
C2763 C2762 1.372 . S
C2763 C2764 1.400 . S
C2763 C2768 1.490 . S
C2764 H2754 0.930 . S
C2764 C2763 1.400 . S
C2764 C2767 1.386 . S
H2765 C2781 0.930 . S
H2766 C2782 0.931 . S
C2767 H2755 0.929 . S
C2767 C2761 1.390 . S
C2767 C2764 1.386 . S
C2768 C2763 1.490 . S
C2768 C2770 1.395 . S
C2768 C2771 1.403 . S
H2769 C2775 0.930 . S
C2770 H2756 0.930 . S
C2770 C2768 1.395 . S
C2770 C2773 1.403 . S
C2771 C2768 1.403 . S
C2771 C2772 1.524 . S
C2771 C2775 1.400 . S
C2772 H2757 0.960 . S
C2772 H2758 0.960 . S
C2772 H2759 0.960 . S
C2772 C2771 1.524 . S
C2773 C2770 1.403 . S
C2773 C2774 1.392 . S
C2773 C2777 1.495 . S
C2774 C2773 1.392 . S
C2774 C2775 1.385 . S
C2774 C2776 1.478 . S
C2775 H2769 0.930 . S
C2775 C2771 1.400 . S
C2775 C2774 1.385 . S
C2776 C2774 1.478 . S
C2776 C2778 1.381 . S
C2776 C2782 1.383 . S
C2777 C2773 1.495 . S
C2777 H2783 0.959 . S
C2777 H2784 0.961 . S
C2777 H2785 0.960 . S
C2778 C2776 1.381 . S
C2778 C2779 1.394 . S
C2778 H2786 0.930 . S
C2779 C2778 1.394 . S
C2779 C2780 1.383 . S
C2779 H2787 0.929 . S
C2780 C2779 1.383 . S
C2780 C2781 1.377 . S
C2781 H2765 0.930 . S
C2781 C2780 1.377 . S
C2781 C2782 1.379 . S
C2782 H2766 0.931 . S
C2782 C2776 1.383 . S
C2782 C2781 1.379 . S
H2783 C2777 0.959 . S
H2784 C2777 0.961 . S
H2785 C2777 0.960 . S
H2786 C2778 0.930 . S
H2787 C2779 0.929 . S
H2788 C2796 0.929 . S
H2789 C2798 0.930 . S
H2790 C2800 0.930 . S
H2791 C2803 0.929 . S
H2792 C2806 0.930 . S
H2793 C2808 0.960 . S
H2794 C2808 0.960 . S
H2795 C2808 0.960 . S
C2796 H2788 0.929 . S
C2796 C2797 1.377 . S
C2796 C2798 1.384 . S
C2797 C2796 1.377 . S
C2797 C2803 1.390 . S
C2798 H2789 0.930 . S
C2798 C2796 1.384 . S
C2798 C2799 1.372 . S
C2799 C2798 1.372 . S
C2799 C2800 1.400 . S
C2799 C2804 1.490 . S
C2800 H2790 0.930 . S
C2800 C2799 1.400 . S
C2800 C2803 1.386 . S
H2801 C2817 0.930 . S
H2802 C2818 0.931 . S
C2803 H2791 0.929 . S
C2803 C2797 1.390 . S
C2803 C2800 1.386 . S
C2804 C2799 1.490 . S
C2804 C2806 1.395 . S
C2804 C2807 1.403 . S
H2805 C2811 0.930 . S
C2806 H2792 0.930 . S
C2806 C2804 1.395 . S
C2806 C2809 1.403 . S
C2807 C2804 1.403 . S
C2807 C2808 1.524 . S
C2807 C2811 1.400 . S
C2808 H2793 0.960 . S
C2808 H2794 0.960 . S
C2808 H2795 0.960 . S
C2808 C2807 1.524 . S
C2809 C2806 1.403 . S
C2809 C2810 1.392 . S
C2809 C2813 1.495 . S
C2810 C2809 1.392 . S
C2810 C2811 1.385 . S
C2810 C2812 1.478 . S
C2811 H2805 0.930 . S
C2811 C2807 1.400 . S
C2811 C2810 1.385 . S
C2812 C2810 1.478 . S
C2812 C2814 1.381 . S
C2812 C2818 1.383 . S
C2813 C2809 1.495 . S
C2813 H2819 0.959 . S
C2813 H2820 0.961 . S
C2813 H2821 0.960 . S
C2814 C2812 1.381 . S
C2814 C2815 1.394 . S
C2814 H2822 0.930 . S
C2815 C2814 1.394 . S
C2815 C2816 1.383 . S
C2815 H2823 0.929 . S
C2816 C2815 1.383 . S
C2816 C2817 1.377 . S
C2817 H2801 0.930 . S
C2817 C2816 1.377 . S
C2817 C2818 1.379 . S
C2818 H2802 0.931 . S
C2818 C2812 1.383 . S
C2818 C2817 1.379 . S
H2819 C2813 0.959 . S
H2820 C2813 0.961 . S
H2821 C2813 0.960 . S
H2822 C2814 0.930 . S
H2823 C2815 0.929 . S
H2824 C2832 0.929 . S
H2825 C2834 0.930 . S
H2826 C2836 0.930 . S
H2827 C2839 0.929 . S
H2828 C2842 0.930 . S
H2829 C2844 0.960 . S
H2830 C2844 0.960 . S
H2831 C2844 0.960 . S
C2832 H2824 0.929 . S
C2832 C2833 1.377 . S
C2832 C2834 1.384 . S
C2833 C2832 1.377 . S
C2833 C2839 1.390 . S
C2834 H2825 0.930 . S
C2834 C2832 1.384 . S
C2834 C2835 1.372 . S
C2835 C2834 1.372 . S
C2835 C2836 1.400 . S
C2835 C2840 1.490 . S
C2836 H2826 0.930 . S
C2836 C2835 1.400 . S
C2836 C2839 1.386 . S
H2837 C2853 0.930 . S
H2838 C2854 0.931 . S
C2839 H2827 0.929 . S
C2839 C2833 1.390 . S
C2839 C2836 1.386 . S
C2840 C2835 1.490 . S
C2840 C2842 1.395 . S
C2840 C2843 1.403 . S
H2841 C2847 0.930 . S
C2842 H2828 0.930 . S
C2842 C2840 1.395 . S
C2842 C2845 1.403 . S
C2843 C2840 1.403 . S
C2843 C2844 1.524 . S
C2843 C2847 1.400 . S
C2844 H2829 0.960 . S
C2844 H2830 0.960 . S
C2844 H2831 0.960 . S
C2844 C2843 1.524 . S
C2845 C2842 1.403 . S
C2845 C2846 1.392 . S
C2845 C2849 1.495 . S
C2846 C2845 1.392 . S
C2846 C2847 1.385 . S
C2846 C2848 1.478 . S
C2847 H2841 0.930 . S
C2847 C2843 1.400 . S
C2847 C2846 1.385 . S
C2848 C2846 1.478 . S
C2848 C2850 1.381 . S
C2848 C2854 1.383 . S
C2849 C2845 1.495 . S
C2849 H2855 0.959 . S
C2849 H2856 0.961 . S
C2849 H2857 0.960 . S
C2850 C2848 1.381 . S
C2850 C2851 1.399 . S
C2850 H2858 0.930 . S
C2851 C2850 1.399 . S
C2851 C2852 1.391 1_655 S
C2851 H2859 0.924 1_655 S
C2852 C2851 1.391 1_455 S
C2852 C2853 1.309 1_455 S
C2853 H2837 0.930 . S
C2853 C2852 1.309 1_655 S
C2853 C2854 1.379 . S
C2854 H2838 0.931 . S
C2854 C2848 1.383 . S
C2854 C2853 1.379 . S
H2855 C2849 0.959 . S
H2856 C2849 0.961 . S
H2857 C2849 0.960 . S
H2858 C2850 0.930 . S
H2859 C2851 0.924 1_455 S
H2860 C2868 0.929 . S
H2861 C2870 0.930 . S
H2862 C2872 0.930 . S
H2863 C2875 0.929 . S
H2864 C2878 0.930 . S
H2865 C2880 0.960 . S
H2866 C2880 0.960 . S
H2867 C2880 0.960 . S
C2868 H2860 0.929 . S
C2868 C2869 1.377 . S
C2868 C2870 1.384 . S
C2869 C2868 1.377 . S
C2869 C2875 1.390 . S
C2870 H2861 0.930 . S
C2870 C2868 1.384 . S
C2870 C2871 1.372 . S
C2871 C2870 1.372 . S
C2871 C2872 1.400 . S
C2871 C2876 1.490 . S
C2872 H2862 0.930 . S
C2872 C2871 1.400 . S
C2872 C2875 1.386 . S
H2873 C2889 0.930 . S
H2874 C2890 0.931 . S
C2875 H2863 0.929 . S
C2875 C2869 1.390 . S
C2875 C2872 1.386 . S
C2876 C2871 1.490 . S
C2876 C2878 1.395 . S
C2876 C2879 1.403 . S
H2877 C2883 0.930 . S
C2878 H2864 0.930 . S
C2878 C2876 1.395 . S
C2878 C2881 1.403 . S
C2879 C2876 1.403 . S
C2879 C2880 1.524 . S
C2879 C2883 1.400 . S
C2880 H2865 0.960 . S
C2880 H2866 0.960 . S
C2880 H2867 0.960 . S
C2880 C2879 1.524 . S
C2881 C2878 1.403 . S
C2881 C2882 1.392 . S
C2881 C2885 1.495 . S
C2882 C2881 1.392 . S
C2882 C2883 1.385 . S
C2882 C2884 1.478 . S
C2883 H2877 0.930 . S
C2883 C2879 1.400 . S
C2883 C2882 1.385 . S
C2884 C2882 1.478 . S
C2884 C2886 1.381 . S
C2884 C2890 1.383 . S
C2885 C2881 1.495 . S
C2885 H2891 0.959 . S
C2885 H2892 0.961 . S
C2885 H2893 0.960 . S
C2886 C2884 1.381 . S
C2886 C2887 1.394 . S
C2886 H2894 0.930 . S
C2887 C2886 1.394 . S
C2887 C2888 1.383 . S
C2887 H2895 0.929 . S
C2888 C2887 1.383 . S
C2888 C2889 1.377 . S
C2889 H2873 0.930 . S
C2889 C2888 1.377 . S
C2889 C2890 1.379 . S
C2890 H2874 0.931 . S
C2890 C2884 1.383 . S
C2890 C2889 1.379 . S
H2891 C2885 0.959 . S
H2892 C2885 0.961 . S
H2893 C2885 0.960 . S
H2894 C2886 0.930 . S
H2895 C2887 0.929 . S
H2896 C2904 0.929 . S
H2897 C2906 0.930 . S
H2898 C2908 0.930 . S
H2899 C2911 0.929 . S
H2900 C2914 0.930 . S
H2901 C2916 0.960 . S
H2902 C2916 0.960 . S
H2903 C2916 0.960 . S
C2904 H2896 0.929 . S
C2904 C2905 1.377 . S
C2904 C2906 1.384 . S
C2905 C2904 1.377 . S
C2905 C2911 1.390 . S
C2906 H2897 0.930 . S
C2906 C2904 1.384 . S
C2906 C2907 1.372 . S
C2907 C2906 1.372 . S
C2907 C2908 1.400 . S
C2907 C2912 1.490 . S
C2908 H2898 0.930 . S
C2908 C2907 1.400 . S
C2908 C2911 1.386 . S
H2909 C2925 0.930 . S
H2910 C2926 0.931 . S
C2911 H2899 0.929 . S
C2911 C2905 1.390 . S
C2911 C2908 1.386 . S
C2912 C2907 1.490 . S
C2912 C2914 1.395 . S
C2912 C2915 1.403 . S
H2913 C2919 0.930 . S
C2914 H2900 0.930 . S
C2914 C2912 1.395 . S
C2914 C2917 1.403 . S
C2915 C2912 1.403 . S
C2915 C2916 1.524 . S
C2915 C2919 1.400 . S
C2916 H2901 0.960 . S
C2916 H2902 0.960 . S
C2916 H2903 0.960 . S
C2916 C2915 1.524 . S
C2917 C2914 1.403 . S
C2917 C2918 1.392 . S
C2917 C2921 1.495 . S
C2918 C2917 1.392 . S
C2918 C2919 1.385 . S
C2918 C2920 1.478 . S
C2919 H2913 0.930 . S
C2919 C2915 1.400 . S
C2919 C2918 1.385 . S
C2920 C2918 1.478 . S
C2920 C2922 1.381 . S
C2920 C2926 1.383 . S
C2921 C2917 1.495 . S
C2921 H2927 0.959 . S
C2921 H2928 0.961 . S
C2921 H2929 0.960 . S
C2922 C2920 1.381 . S
C2922 C2923 1.394 . S
C2922 H2930 0.930 . S
C2923 C2922 1.394 . S
C2923 C2924 1.383 . S
C2923 H2931 0.929 . S
C2924 C2923 1.383 . S
C2924 C2925 1.377 . S
C2925 H2909 0.930 . S
C2925 C2924 1.377 . S
C2925 C2926 1.379 . S
C2926 H2910 0.931 . S
C2926 C2920 1.383 . S
C2926 C2925 1.379 . S
H2927 C2921 0.959 . S
H2928 C2921 0.961 . S
H2929 C2921 0.960 . S
H2930 C2922 0.930 . S
H2931 C2923 0.929 . S
H2932 C2940 0.929 . S
H2933 C2942 0.930 . S
H2934 C2944 0.930 . S
H2935 C2947 0.929 . S
H2936 C2950 0.930 . S
H2937 C2952 0.960 . S
H2938 C2952 0.960 . S
H2939 C2952 0.960 . S
C2940 H2932 0.929 . S
C2940 C2941 1.377 . S
C2940 C2942 1.384 . S
C2941 C2940 1.377 . S
C2941 C2947 1.390 . S
C2942 H2933 0.930 . S
C2942 C2940 1.384 . S
C2942 C2943 1.372 . S
C2943 C2942 1.372 . S
C2943 C2944 1.400 . S
C2943 C2948 1.490 . S
C2944 H2934 0.930 . S
C2944 C2943 1.400 . S
C2944 C2947 1.386 . S
H2945 C2961 0.930 . S
H2946 C2962 0.931 . S
C2947 H2935 0.929 . S
C2947 C2941 1.390 . S
C2947 C2944 1.386 . S
C2948 C2943 1.490 . S
C2948 C2950 1.395 . S
C2948 C2951 1.403 . S
H2949 C2955 0.930 . S
C2950 H2936 0.930 . S
C2950 C2948 1.395 . S
C2950 C2953 1.403 . S
C2951 C2948 1.403 . S
C2951 C2952 1.524 . S
C2951 C2955 1.400 . S
C2952 H2937 0.960 . S
C2952 H2938 0.960 . S
C2952 H2939 0.960 . S
C2952 C2951 1.524 . S
C2953 C2950 1.403 . S
C2953 C2954 1.392 . S
C2953 C2957 1.495 . S
C2954 C2953 1.392 . S
C2954 C2955 1.385 . S
C2954 C2956 1.478 . S
C2955 H2949 0.930 . S
C2955 C2951 1.400 . S
C2955 C2954 1.385 . S
C2956 C2954 1.478 . S
C2956 C2958 1.381 . S
C2956 C2962 1.383 . S
C2957 C2953 1.495 . S
C2957 H2963 0.959 . S
C2957 H2964 0.961 . S
C2957 H2965 0.960 . S
C2958 C2956 1.381 . S
C2958 C2959 1.394 . S
C2958 H2966 0.930 . S
C2959 C2958 1.394 . S
C2959 C2960 1.383 . S
C2959 H2967 0.929 . S
C2960 C2959 1.383 . S
C2960 C2961 1.377 . S
C2961 H2945 0.930 . S
C2961 C2960 1.377 . S
C2961 C2962 1.379 . S
C2962 H2946 0.931 . S
C2962 C2956 1.383 . S
C2962 C2961 1.379 . S
H2963 C2957 0.959 . S
H2964 C2957 0.961 . S
H2965 C2957 0.960 . S
H2966 C2958 0.930 . S
H2967 C2959 0.929 . S
H2968 C2976 0.929 . S
H2969 C2978 0.930 . S
H2970 C2980 0.930 . S
H2971 C2983 0.929 . S
H2972 C2986 0.930 . S
H2973 C2988 0.960 . S
H2974 C2988 0.960 . S
H2975 C2988 0.960 . S
C2976 H2968 0.929 . S
C2976 C2977 1.377 . S
C2976 C2978 1.384 . S
C2977 C2976 1.377 . S
C2977 C2983 1.390 . S
C2978 H2969 0.930 . S
C2978 C2976 1.384 . S
C2978 C2979 1.372 . S
C2979 C2978 1.372 . S
C2979 C2980 1.400 . S
C2979 C2984 1.490 . S
C2980 H2970 0.930 . S
C2980 C2979 1.400 . S
C2980 C2983 1.386 . S
H2981 C2997 0.930 . S
H2982 C2998 0.931 . S
C2983 H2971 0.929 . S
C2983 C2977 1.390 . S
C2983 C2980 1.386 . S
C2984 C2979 1.490 . S
C2984 C2986 1.395 . S
C2984 C2987 1.403 . S
H2985 C2991 0.930 . S
C2986 H2972 0.930 . S
C2986 C2984 1.395 . S
C2986 C2989 1.403 . S
C2987 C2984 1.403 . S
C2987 C2988 1.524 . S
C2987 C2991 1.400 . S
C2988 H2973 0.960 . S
C2988 H2974 0.960 . S
C2988 H2975 0.960 . S
C2988 C2987 1.524 . S
C2989 C2986 1.403 . S
C2989 C2990 1.392 . S
C2989 C2993 1.495 . S
C2990 C2989 1.392 . S
C2990 C2991 1.385 . S
C2990 C2992 1.478 . S
C2991 H2985 0.930 . S
C2991 C2987 1.400 . S
C2991 C2990 1.385 . S
C2992 C2990 1.478 . S
C2992 C2994 1.381 . S
C2992 C2998 1.383 . S
C2993 C2989 1.495 . S
C2993 H2999 0.959 . S
C2993 H3000 0.961 . S
C2993 H3001 0.960 . S
C2994 C2992 1.381 . S
C2994 C2995 1.394 . S
C2994 H3002 0.930 . S
C2995 C2994 1.394 . S
C2995 C2996 1.383 . S
C2995 H3003 0.929 . S
C2996 C2995 1.383 . S
C2996 C2997 1.377 . S
C2997 H2981 0.930 . S
C2997 C2996 1.377 . S
C2997 C2998 1.379 . S
C2998 H2982 0.931 . S
C2998 C2992 1.383 . S
C2998 C2997 1.379 . S
H2999 C2993 0.959 . S
H3000 C2993 0.961 . S
H3001 C2993 0.960 . S
H3002 C2994 0.930 . S
H3003 C2995 0.929 . S
H3004 C3012 0.929 . S
H3005 C3014 0.930 . S
H3006 C3016 0.930 . S
H3007 C3019 0.929 . S
H3008 C3022 0.930 . S
H3009 C3024 0.960 . S
H3010 C3024 0.960 . S
H3011 C3024 0.960 . S
C3012 H3004 0.929 . S
C3012 C3013 1.377 . S
C3012 C3014 1.384 . S
C3013 C3012 1.377 . S
C3013 C3019 1.390 . S
C3014 H3005 0.930 . S
C3014 C3012 1.384 . S
C3014 C3015 1.372 . S
C3015 C3014 1.372 . S
C3015 C3016 1.400 . S
C3015 C3020 1.490 . S
C3016 H3006 0.930 . S
C3016 C3015 1.400 . S
C3016 C3019 1.386 . S
H3017 C3033 0.930 . S
H3018 C3034 0.931 . S
C3019 H3007 0.929 . S
C3019 C3013 1.390 . S
C3019 C3016 1.386 . S
C3020 C3015 1.490 . S
C3020 C3022 1.395 . S
C3020 C3023 1.403 . S
H3021 C3027 0.930 . S
C3022 H3008 0.930 . S
C3022 C3020 1.395 . S
C3022 C3025 1.403 . S
C3023 C3020 1.403 . S
C3023 C3024 1.524 . S
C3023 C3027 1.400 . S
C3024 H3009 0.960 . S
C3024 H3010 0.960 . S
C3024 H3011 0.960 . S
C3024 C3023 1.524 . S
C3025 C3022 1.403 . S
C3025 C3026 1.392 . S
C3025 C3029 1.495 . S
C3026 C3025 1.392 . S
C3026 C3027 1.385 . S
C3026 C3028 1.478 . S
C3027 H3021 0.930 . S
C3027 C3023 1.400 . S
C3027 C3026 1.385 . S
C3028 C3026 1.478 . S
C3028 C3030 1.381 . S
C3028 C3034 1.383 . S
C3029 C3025 1.495 . S
C3029 H3035 0.959 . S
C3029 H3036 0.961 . S
C3029 H3037 0.960 . S
C3030 C3028 1.381 . S
C3030 C3031 1.394 . S
C3030 H3038 0.930 . S
C3031 C3030 1.394 . S
C3031 C3032 1.383 . S
C3031 H3039 0.929 . S
C3032 C3031 1.383 . S
C3032 C3033 1.377 . S
C3033 H3017 0.930 . S
C3033 C3032 1.377 . S
C3033 C3034 1.379 . S
C3034 H3018 0.931 . S
C3034 C3028 1.383 . S
C3034 C3033 1.379 . S
H3035 C3029 0.959 . S
H3036 C3029 0.961 . S
H3037 C3029 0.960 . S
H3038 C3030 0.930 . S
H3039 C3031 0.929 . S
H3040 C3048 0.929 . S
H3041 C3050 0.930 . S
H3042 C3052 0.930 . S
H3043 C3055 0.929 . S
H3044 C3058 0.930 . S
H3045 C3060 0.960 . S
H3046 C3060 0.960 . S
H3047 C3060 0.960 . S
C3048 H3040 0.929 . S
C3048 C3049 1.377 . S
C3048 C3050 1.384 . S
C3049 C3048 1.377 . S
C3049 C3055 1.390 . S
C3050 H3041 0.930 . S
C3050 C3048 1.384 . S
C3050 C3051 1.372 . S
C3051 C3050 1.372 . S
C3051 C3052 1.400 . S
C3051 C3056 1.490 . S
C3052 H3042 0.930 . S
C3052 C3051 1.400 . S
C3052 C3055 1.386 . S
H3053 C3069 0.930 . S
H3054 C3070 0.931 . S
C3055 H3043 0.929 . S
C3055 C3049 1.390 . S
C3055 C3052 1.386 . S
C3056 C3051 1.490 . S
C3056 C3058 1.395 . S
C3056 C3059 1.403 . S
H3057 C3063 0.930 . S
C3058 H3044 0.930 . S
C3058 C3056 1.395 . S
C3058 C3061 1.403 . S
C3059 C3056 1.403 . S
C3059 C3060 1.524 . S
C3059 C3063 1.400 . S
C3060 H3045 0.960 . S
C3060 H3046 0.960 . S
C3060 H3047 0.960 . S
C3060 C3059 1.524 . S
C3061 C3058 1.403 . S
C3061 C3062 1.392 . S
C3061 C3065 1.495 . S
C3062 C3061 1.392 . S
C3062 C3063 1.385 . S
C3062 C3064 1.478 . S
C3063 H3057 0.930 . S
C3063 C3059 1.400 . S
C3063 C3062 1.385 . S
C3064 C3062 1.478 . S
C3064 C3066 1.381 . S
C3064 C3070 1.383 . S
C3065 C3061 1.495 . S
C3065 H3071 0.959 . S
C3065 H3072 0.961 . S
C3065 H3073 0.960 . S
C3066 C3064 1.381 . S
C3066 C3067 1.394 . S
C3066 H3074 0.930 . S
C3067 C3066 1.394 . S
C3067 C3068 1.383 . S
C3067 H3075 0.929 . S
C3068 C3067 1.383 . S
C3068 C3069 1.377 . S
C3069 H3053 0.930 . S
C3069 C3068 1.377 . S
C3069 C3070 1.379 . S
C3070 H3054 0.931 . S
C3070 C3064 1.383 . S
C3070 C3069 1.379 . S
H3071 C3065 0.959 . S
H3072 C3065 0.961 . S
H3073 C3065 0.960 . S
H3074 C3066 0.930 . S
H3075 C3067 0.929 . S
H3076 C3084 0.929 . S
H3077 C3086 0.930 . S
H3078 C3088 0.930 . S
H3079 C3091 0.929 . S
H3080 C3094 0.930 . S
H3081 C3096 0.960 . S
H3082 C3096 0.960 . S
H3083 C3096 0.960 . S
C3084 H3076 0.929 . S
C3084 C3085 1.377 . S
C3084 C3086 1.384 . S
C3085 C3084 1.377 . S
C3085 C3091 1.390 . S
C3086 H3077 0.930 . S
C3086 C3084 1.384 . S
C3086 C3087 1.372 . S
C3087 C3086 1.372 . S
C3087 C3088 1.400 . S
C3087 C3092 1.490 . S
C3088 H3078 0.930 . S
C3088 C3087 1.400 . S
C3088 C3091 1.386 . S
H3089 C3105 0.930 . S
H3090 C3106 0.931 . S
C3091 H3079 0.929 . S
C3091 C3085 1.390 . S
C3091 C3088 1.386 . S
C3092 C3087 1.490 . S
C3092 C3094 1.395 . S
C3092 C3095 1.403 . S
H3093 C3099 0.930 . S
C3094 H3080 0.930 . S
C3094 C3092 1.395 . S
C3094 C3097 1.403 . S
C3095 C3092 1.403 . S
C3095 C3096 1.524 . S
C3095 C3099 1.400 . S
C3096 H3081 0.960 . S
C3096 H3082 0.960 . S
C3096 H3083 0.960 . S
C3096 C3095 1.524 . S
C3097 C3094 1.403 . S
C3097 C3098 1.392 . S
C3097 C3101 1.495 . S
C3098 C3097 1.392 . S
C3098 C3099 1.385 . S
C3098 C3100 1.478 . S
C3099 H3093 0.930 . S
C3099 C3095 1.400 . S
C3099 C3098 1.385 . S
C3100 C3098 1.478 . S
C3100 C3102 1.381 . S
C3100 C3106 1.383 . S
C3101 C3097 1.495 . S
C3101 H3107 0.959 . S
C3101 H3108 0.961 . S
C3101 H3109 0.960 . S
C3102 C3100 1.381 . S
C3102 C3103 1.394 . S
C3102 H3110 0.930 . S
C3103 C3102 1.394 . S
C3103 C3104 1.383 . S
C3103 H3111 0.929 . S
C3104 C3103 1.383 . S
C3104 C3105 1.377 . S
C3105 H3089 0.930 . S
C3105 C3104 1.377 . S
C3105 C3106 1.379 . S
C3106 H3090 0.931 . S
C3106 C3100 1.383 . S
C3106 C3105 1.379 . S
H3107 C3101 0.959 . S
H3108 C3101 0.961 . S
H3109 C3101 0.960 . S
H3110 C3102 0.930 . S
H3111 C3103 0.929 . S
H3112 C3120 0.929 . S
H3113 C3122 0.930 . S
H3114 C3124 0.930 . S
H3115 C3127 0.929 . S
H3116 C3130 0.930 . S
H3117 C3132 0.960 . S
H3118 C3132 0.960 . S
H3119 C3132 0.960 . S
C3120 H3112 0.929 . S
C3120 C3121 1.377 . S
C3120 C3122 1.384 . S
C3121 C3120 1.377 . S
C3121 C3127 1.390 . S
C3122 H3113 0.930 . S
C3122 C3120 1.384 . S
C3122 C3123 1.372 . S
C3123 C3122 1.372 . S
C3123 C3124 1.400 . S
C3123 C3128 1.490 . S
C3124 H3114 0.930 . S
C3124 C3123 1.400 . S
C3124 C3127 1.386 . S
H3125 C3141 0.930 . S
H3126 C3142 0.931 . S
C3127 H3115 0.929 . S
C3127 C3121 1.390 . S
C3127 C3124 1.386 . S
C3128 C3123 1.490 . S
C3128 C3130 1.395 . S
C3128 C3131 1.403 . S
H3129 C3135 0.930 . S
C3130 H3116 0.930 . S
C3130 C3128 1.395 . S
C3130 C3133 1.403 . S
C3131 C3128 1.403 . S
C3131 C3132 1.524 . S
C3131 C3135 1.400 . S
C3132 H3117 0.960 . S
C3132 H3118 0.960 . S
C3132 H3119 0.960 . S
C3132 C3131 1.524 . S
C3133 C3130 1.403 . S
C3133 C3134 1.392 . S
C3133 C3137 1.495 . S
C3134 C3133 1.392 . S
C3134 C3135 1.385 . S
C3134 C3136 1.478 . S
C3135 H3129 0.930 . S
C3135 C3131 1.400 . S
C3135 C3134 1.385 . S
C3136 C3134 1.478 . S
C3136 C3138 1.381 . S
C3136 C3142 1.383 . S
C3137 C3133 1.495 . S
C3137 H3143 0.959 . S
C3137 H3144 0.961 . S
C3137 H3145 0.960 . S
C3138 C3136 1.381 . S
C3138 C3139 1.394 . S
C3138 H3146 0.930 . S
C3139 C3138 1.394 . S
C3139 C3140 1.383 . S
C3139 H3147 0.929 . S
C3140 C3139 1.383 . S
C3140 C3141 1.377 . S
C3141 H3125 0.930 . S
C3141 C3140 1.377 . S
C3141 C3142 1.379 . S
C3142 H3126 0.931 . S
C3142 C3136 1.383 . S
C3142 C3141 1.379 . S
H3143 C3137 0.959 . S
H3144 C3137 0.961 . S
H3145 C3137 0.960 . S
H3146 C3138 0.930 . S
H3147 C3139 0.929 . S
H3148 C3156 0.929 . S
H3149 C3158 0.930 . S
H3150 C3160 0.930 . S
H3151 C3163 0.929 . S
H3152 C3166 0.930 . S
H3153 C3168 0.960 . S
H3154 C3168 0.960 . S
H3155 C3168 0.960 . S
C3156 H3148 0.929 . S
C3156 C3157 1.377 . S
C3156 C3158 1.384 . S
C3157 C3156 1.377 . S
C3157 C3163 1.390 . S
C3158 H3149 0.930 . S
C3158 C3156 1.384 . S
C3158 C3159 1.372 . S
C3159 C3158 1.372 . S
C3159 C3160 1.400 . S
C3159 C3164 1.490 . S
C3160 H3150 0.930 . S
C3160 C3159 1.400 . S
C3160 C3163 1.386 . S
H3161 C3177 0.930 . S
H3162 C3178 0.931 . S
C3163 H3151 0.929 . S
C3163 C3157 1.390 . S
C3163 C3160 1.386 . S
C3164 C3159 1.490 . S
C3164 C3166 1.395 . S
C3164 C3167 1.403 . S
H3165 C3171 0.930 . S
C3166 H3152 0.930 . S
C3166 C3164 1.395 . S
C3166 C3169 1.403 . S
C3167 C3164 1.403 . S
C3167 C3168 1.524 . S
C3167 C3171 1.400 . S
C3168 H3153 0.960 . S
C3168 H3154 0.960 . S
C3168 H3155 0.960 . S
C3168 C3167 1.524 . S
C3169 C3166 1.403 . S
C3169 C3170 1.392 . S
C3169 C3173 1.495 . S
C3170 C3169 1.392 . S
C3170 C3171 1.385 . S
C3170 C3172 1.478 . S
C3171 H3165 0.930 . S
C3171 C3167 1.400 . S
C3171 C3170 1.385 . S
C3172 C3170 1.478 . S
C3172 C3174 1.381 . S
C3172 C3178 1.383 . S
C3173 C3169 1.495 . S
C3173 H3179 0.959 . S
C3173 H3180 0.961 . S
C3173 H3181 0.960 . S
C3174 C3172 1.381 . S
C3174 C3175 1.394 . S
C3174 H3182 0.930 . S
C3175 C3174 1.394 . S
C3175 C3176 1.383 . S
C3175 H3183 0.929 . S
C3176 C3175 1.383 . S
C3176 C3177 1.377 . S
C3177 H3161 0.930 . S
C3177 C3176 1.377 . S
C3177 C3178 1.379 . S
C3178 H3162 0.931 . S
C3178 C3172 1.383 . S
C3178 C3177 1.379 . S
H3179 C3173 0.959 . S
H3180 C3173 0.961 . S
H3181 C3173 0.960 . S
H3182 C3174 0.930 . S
H3183 C3175 0.929 . S
H3184 C3192 0.929 . S
H3185 C3194 0.930 . S
H3186 C3196 0.930 . S
H3187 C3199 0.929 . S
H3188 C3202 0.930 . S
H3189 C3204 0.960 . S
H3190 C3204 0.960 . S
H3191 C3204 0.960 . S
C3192 H3184 0.929 . S
C3192 C3193 1.377 . S
C3192 C3194 1.384 . S
C3193 C3192 1.377 . S
C3193 C3199 1.390 . S
C3194 H3185 0.930 . S
C3194 C3192 1.384 . S
C3194 C3195 1.372 . S
C3195 C3194 1.372 . S
C3195 C3196 1.400 . S
C3195 C3200 1.490 . S
C3196 H3186 0.930 . S
C3196 C3195 1.400 . S
C3196 C3199 1.386 . S
H3197 C3213 0.930 . S
H3198 C3214 0.931 . S
C3199 H3187 0.929 . S
C3199 C3193 1.390 . S
C3199 C3196 1.386 . S
C3200 C3195 1.490 . S
C3200 C3202 1.395 . S
C3200 C3203 1.403 . S
H3201 C3207 0.930 . S
C3202 H3188 0.930 . S
C3202 C3200 1.395 . S
C3202 C3205 1.403 . S
C3203 C3200 1.403 . S
C3203 C3204 1.524 . S
C3203 C3207 1.400 . S
C3204 H3189 0.960 . S
C3204 H3190 0.960 . S
C3204 H3191 0.960 . S
C3204 C3203 1.524 . S
C3205 C3202 1.403 . S
C3205 C3206 1.392 . S
C3205 C3209 1.495 . S
C3206 C3205 1.392 . S
C3206 C3207 1.385 . S
C3206 C3208 1.478 . S
C3207 H3201 0.930 . S
C3207 C3203 1.400 . S
C3207 C3206 1.385 . S
C3208 C3206 1.478 . S
C3208 C3210 1.381 . S
C3208 C3214 1.383 . S
C3209 C3205 1.495 . S
C3209 H3215 0.959 . S
C3209 H3216 0.961 . S
C3209 H3217 0.960 . S
C3210 C3208 1.381 . S
C3210 C3211 1.394 . S
C3210 H3218 0.930 . S
C3211 C3210 1.394 . S
C3211 C3212 1.383 . S
C3211 H3219 0.929 . S
C3212 C3211 1.383 . S
C3212 C3213 1.377 . S
C3213 H3197 0.930 . S
C3213 C3212 1.377 . S
C3213 C3214 1.379 . S
C3214 H3198 0.931 . S
C3214 C3208 1.383 . S
C3214 C3213 1.379 . S
H3215 C3209 0.959 . S
H3216 C3209 0.961 . S
H3217 C3209 0.960 . S
H3218 C3210 0.930 . S
H3219 C3211 0.929 . S
H3220 C3228 0.929 . S
H3221 C3230 0.930 . S
H3222 C3232 0.930 . S
H3223 C3235 0.929 . S
H3224 C3238 0.930 . S
H3225 C3240 0.960 . S
H3226 C3240 0.960 . S
H3227 C3240 0.960 . S
C3228 H3220 0.929 . S
C3228 C3229 1.377 . S
C3228 C3230 1.384 . S
C3229 C3228 1.377 . S
C3229 C3235 1.390 . S
C3230 H3221 0.930 . S
C3230 C3228 1.384 . S
C3230 C3231 1.372 . S
C3231 C3230 1.372 . S
C3231 C3232 1.400 . S
C3231 C3236 1.490 . S
C3232 H3222 0.930 . S
C3232 C3231 1.400 . S
C3232 C3235 1.386 . S
H3233 C3249 0.930 . S
H3234 C3250 0.931 . S
C3235 H3223 0.929 . S
C3235 C3229 1.390 . S
C3235 C3232 1.386 . S
C3236 C3231 1.490 . S
C3236 C3238 1.395 . S
C3236 C3239 1.403 . S
H3237 C3243 0.930 . S
C3238 H3224 0.930 . S
C3238 C3236 1.395 . S
C3238 C3241 1.403 . S
C3239 C3236 1.403 . S
C3239 C3240 1.524 . S
C3239 C3243 1.400 . S
C3240 H3225 0.960 . S
C3240 H3226 0.960 . S
C3240 H3227 0.960 . S
C3240 C3239 1.524 . S
C3241 C3238 1.403 . S
C3241 C3242 1.392 . S
C3241 C3245 1.495 . S
C3242 C3241 1.392 . S
C3242 C3243 1.385 . S
C3242 C3244 1.478 . S
C3243 H3237 0.930 . S
C3243 C3239 1.400 . S
C3243 C3242 1.385 . S
C3244 C3242 1.478 . S
C3244 C3246 1.381 . S
C3244 C3250 1.383 . S
C3245 C3241 1.495 . S
C3245 H3251 0.959 . S
C3245 H3252 0.961 . S
C3245 H3253 0.960 . S
C3246 C3244 1.381 . S
C3246 C3247 1.394 . S
C3246 H3254 0.930 . S
C3247 C3246 1.394 . S
C3247 C3248 1.383 . S
C3247 H3255 0.929 . S
C3248 C3247 1.383 . S
C3248 C3249 1.377 . S
C3249 H3233 0.930 . S
C3249 C3248 1.377 . S
C3249 C3250 1.379 . S
C3250 H3234 0.931 . S
C3250 C3244 1.383 . S
C3250 C3249 1.379 . S
H3251 C3245 0.959 . S
H3252 C3245 0.961 . S
H3253 C3245 0.960 . S
H3254 C3246 0.930 . S
H3255 C3247 0.929 . S
H3256 C3264 0.929 . S
H3257 C3266 0.930 . S
H3258 C3268 0.930 . S
H3259 C3271 0.929 . S
H3260 C3274 0.930 . S
H3261 C3276 0.960 . S
H3262 C3276 0.960 . S
H3263 C3276 0.960 . S
C3264 H3256 0.929 . S
C3264 C3265 1.377 . S
C3264 C3266 1.384 . S
C3265 C3264 1.377 . S
C3265 C3271 1.390 . S
C3266 H3257 0.930 . S
C3266 C3264 1.384 . S
C3266 C3267 1.372 . S
C3267 C3266 1.372 . S
C3267 C3268 1.400 . S
C3267 C3272 1.490 . S
C3268 H3258 0.930 . S
C3268 C3267 1.400 . S
C3268 C3271 1.386 . S
H3269 C3285 0.930 . S
H3270 C3286 0.931 . S
C3271 H3259 0.929 . S
C3271 C3265 1.390 . S
C3271 C3268 1.386 . S
C3272 C3267 1.490 . S
C3272 C3274 1.395 . S
C3272 C3275 1.403 . S
H3273 C3279 0.930 . S
C3274 H3260 0.930 . S
C3274 C3272 1.395 . S
C3274 C3277 1.403 . S
C3275 C3272 1.403 . S
C3275 C3276 1.524 . S
C3275 C3279 1.400 . S
C3276 H3261 0.960 . S
C3276 H3262 0.960 . S
C3276 H3263 0.960 . S
C3276 C3275 1.524 . S
C3277 C3274 1.403 . S
C3277 C3278 1.392 . S
C3277 C3281 1.495 . S
C3278 C3277 1.392 . S
C3278 C3279 1.385 . S
C3278 C3280 1.478 . S
C3279 H3273 0.930 . S
C3279 C3275 1.400 . S
C3279 C3278 1.385 . S
C3280 C3278 1.478 . S
C3280 C3282 1.381 . S
C3280 C3286 1.383 . S
C3281 C3277 1.495 . S
C3281 H3287 0.959 . S
C3281 H3288 0.961 . S
C3281 H3289 0.960 . S
C3282 C3280 1.381 . S
C3282 C3283 1.394 . S
C3282 H3290 0.930 . S
C3283 C3282 1.394 . S
C3283 C3284 1.383 . S
C3283 H3291 0.929 . S
C3284 C3283 1.383 . S
C3284 C3285 1.377 . S
C3285 H3269 0.930 . S
C3285 C3284 1.377 . S
C3285 C3286 1.379 . S
C3286 H3270 0.931 . S
C3286 C3280 1.383 . S
C3286 C3285 1.379 . S
H3287 C3281 0.959 . S
H3288 C3281 0.961 . S
H3289 C3281 0.960 . S
H3290 C3282 0.930 . S
H3291 C3283 0.929 . S
H3292 C3300 0.929 . S
H3293 C3302 0.930 . S
H3294 C3304 0.930 . S
H3295 C3307 0.929 . S
H3296 C3310 0.930 . S
H3297 C3312 0.960 . S
H3298 C3312 0.960 . S
H3299 C3312 0.960 . S
C3300 H3292 0.929 . S
C3300 C3301 1.377 . S
C3300 C3302 1.384 . S
C3301 C3300 1.377 . S
C3301 C3307 1.390 . S
C3302 H3293 0.930 . S
C3302 C3300 1.384 . S
C3302 C3303 1.372 . S
C3303 C3302 1.372 . S
C3303 C3304 1.400 . S
C3303 C3308 1.490 . S
C3304 H3294 0.930 . S
C3304 C3303 1.400 . S
C3304 C3307 1.386 . S
H3305 C3321 0.930 . S
H3306 C3322 0.931 . S
C3307 H3295 0.929 . S
C3307 C3301 1.390 . S
C3307 C3304 1.386 . S
C3308 C3303 1.490 . S
C3308 C3310 1.395 . S
C3308 C3311 1.403 . S
H3309 C3315 0.930 . S
C3310 H3296 0.930 . S
C3310 C3308 1.395 . S
C3310 C3313 1.403 . S
C3311 C3308 1.403 . S
C3311 C3312 1.524 . S
C3311 C3315 1.400 . S
C3312 H3297 0.960 . S
C3312 H3298 0.960 . S
C3312 H3299 0.960 . S
C3312 C3311 1.524 . S
C3313 C3310 1.403 . S
C3313 C3314 1.392 . S
C3313 C3317 1.495 . S
C3314 C3313 1.392 . S
C3314 C3315 1.385 . S
C3314 C3316 1.478 . S
C3315 H3309 0.930 . S
C3315 C3311 1.400 . S
C3315 C3314 1.385 . S
C3316 C3314 1.478 . S
C3316 C3318 1.381 . S
C3316 C3322 1.383 . S
C3317 C3313 1.495 . S
C3317 H3323 0.959 . S
C3317 H3324 0.961 . S
C3317 H3325 0.960 . S
C3318 C3316 1.381 . S
C3318 C3319 1.394 . S
C3318 H3326 0.930 . S
C3319 C3318 1.394 . S
C3319 C3320 1.383 . S
C3319 H3327 0.929 . S
C3320 C3319 1.383 . S
C3320 C3321 1.377 . S
C3321 H3305 0.930 . S
C3321 C3320 1.377 . S
C3321 C3322 1.379 . S
C3322 H3306 0.931 . S
C3322 C3316 1.383 . S
C3322 C3321 1.379 . S
H3323 C3317 0.959 . S
H3324 C3317 0.961 . S
H3325 C3317 0.960 . S
H3326 C3318 0.930 . S
H3327 C3319 0.929 . S
H3328 C3336 0.929 . S
H3329 C3338 0.930 . S
H3330 C3340 0.930 . S
H3331 C3343 0.929 . S
H3332 C3346 0.930 . S
H3333 C3348 0.960 . S
H3334 C3348 0.960 . S
H3335 C3348 0.960 . S
C3336 H3328 0.929 . S
C3336 C3337 1.377 . S
C3336 C3338 1.384 . S
C3337 C3336 1.377 . S
C3337 C3343 1.390 . S
C3338 H3329 0.930 . S
C3338 C3336 1.384 . S
C3338 C3339 1.372 . S
C3339 C3338 1.372 . S
C3339 C3340 1.400 . S
C3339 C3344 1.490 . S
C3340 H3330 0.930 . S
C3340 C3339 1.400 . S
C3340 C3343 1.386 . S
H3341 C3357 0.930 . S
H3342 C3358 0.931 . S
C3343 H3331 0.929 . S
C3343 C3337 1.390 . S
C3343 C3340 1.386 . S
C3344 C3339 1.490 . S
C3344 C3346 1.395 . S
C3344 C3347 1.403 . S
H3345 C3351 0.930 . S
C3346 H3332 0.930 . S
C3346 C3344 1.395 . S
C3346 C3349 1.403 . S
C3347 C3344 1.403 . S
C3347 C3348 1.524 . S
C3347 C3351 1.400 . S
C3348 H3333 0.960 . S
C3348 H3334 0.960 . S
C3348 H3335 0.960 . S
C3348 C3347 1.524 . S
C3349 C3346 1.403 . S
C3349 C3350 1.392 . S
C3349 C3353 1.495 . S
C3350 C3349 1.392 . S
C3350 C3351 1.385 . S
C3350 C3352 1.478 . S
C3351 H3345 0.930 . S
C3351 C3347 1.400 . S
C3351 C3350 1.385 . S
C3352 C3350 1.478 . S
C3352 C3354 1.381 . S
C3352 C3358 1.383 . S
C3353 C3349 1.495 . S
C3353 H3359 0.959 . S
C3353 H3360 0.961 . S
C3353 H3361 0.960 . S
C3354 C3352 1.381 . S
C3354 C3355 1.394 . S
C3354 H3362 0.930 . S
C3355 C3354 1.394 . S
C3355 C3356 1.383 . S
C3355 H3363 0.929 . S
C3356 C3355 1.383 . S
C3356 C3357 1.377 . S
C3357 H3341 0.930 . S
C3357 C3356 1.377 . S
C3357 C3358 1.379 . S
C3358 H3342 0.931 . S
C3358 C3352 1.383 . S
C3358 C3357 1.379 . S
H3359 C3353 0.959 . S
H3360 C3353 0.961 . S
H3361 C3353 0.960 . S
H3362 C3354 0.930 . S
H3363 C3355 0.929 . S
H3364 C3372 0.929 . S
H3365 C3374 0.930 . S
H3366 C3376 0.930 . S
H3367 C3379 0.929 . S
H3368 C3382 0.930 . S
H3369 C3384 0.960 . S
H3370 C3384 0.960 . S
H3371 C3384 0.960 . S
C3372 H3364 0.929 . S
C3372 C3373 1.377 . S
C3372 C3374 1.384 . S
C3373 C3372 1.377 . S
C3373 C3379 1.390 . S
C3374 H3365 0.930 . S
C3374 C3372 1.384 . S
C3374 C3375 1.372 . S
C3375 C3374 1.372 . S
C3375 C3376 1.400 . S
C3375 C3380 1.490 . S
C3376 H3366 0.930 . S
C3376 C3375 1.400 . S
C3376 C3379 1.386 . S
H3377 C3393 0.930 . S
H3378 C3394 0.931 . S
C3379 H3367 0.929 . S
C3379 C3373 1.390 . S
C3379 C3376 1.386 . S
C3380 C3375 1.490 . S
C3380 C3382 1.395 . S
C3380 C3383 1.403 . S
H3381 C3387 0.930 . S
C3382 H3368 0.930 . S
C3382 C3380 1.395 . S
C3382 C3385 1.403 . S
C3383 C3380 1.403 . S
C3383 C3384 1.524 . S
C3383 C3387 1.400 . S
C3384 H3369 0.960 . S
C3384 H3370 0.960 . S
C3384 H3371 0.960 . S
C3384 C3383 1.524 . S
C3385 C3382 1.403 . S
C3385 C3386 1.392 . S
C3385 C3389 1.495 . S
C3386 C3385 1.392 . S
C3386 C3387 1.385 . S
C3386 C3388 1.478 . S
C3387 H3381 0.930 . S
C3387 C3383 1.400 . S
C3387 C3386 1.385 . S
C3388 C3386 1.478 . S
C3388 C3390 1.381 . S
C3388 C3394 1.383 . S
C3389 C3385 1.495 . S
C3389 H3395 0.959 . S
C3389 H3396 0.961 . S
C3389 H3397 0.960 . S
C3390 C3388 1.381 . S
C3390 C3391 1.394 . S
C3390 H3398 0.930 . S
C3391 C3390 1.394 . S
C3391 C3392 1.383 . S
C3391 H3399 0.929 . S
C3392 C3391 1.383 . S
C3392 C3393 1.377 . S
C3393 H3377 0.930 . S
C3393 C3392 1.377 . S
C3393 C3394 1.379 . S
C3394 H3378 0.931 . S
C3394 C3388 1.383 . S
C3394 C3393 1.379 . S
H3395 C3389 0.959 . S
H3396 C3389 0.961 . S
H3397 C3389 0.960 . S
H3398 C3390 0.930 . S
H3399 C3391 0.929 . S
H3400 C3408 0.929 . S
H3401 C3410 0.930 . S
H3402 C3412 0.930 . S
H3403 C3415 0.929 . S
H3404 C3418 0.930 . S
H3405 C3420 0.960 . S
H3406 C3420 0.960 . S
H3407 C3420 0.960 . S
C3408 H3400 0.929 . S
C3408 C3409 1.377 . S
C3408 C3410 1.384 . S
C3409 C3408 1.377 . S
C3409 C3415 1.390 . S
C3410 H3401 0.930 . S
C3410 C3408 1.384 . S
C3410 C3411 1.372 . S
C3411 C3410 1.372 . S
C3411 C3412 1.400 . S
C3411 C3416 1.490 . S
C3412 H3402 0.930 . S
C3412 C3411 1.400 . S
C3412 C3415 1.386 . S
H3413 C3429 0.930 . S
H3414 C3430 0.931 . S
C3415 H3403 0.929 . S
C3415 C3409 1.390 . S
C3415 C3412 1.386 . S
C3416 C3411 1.490 . S
C3416 C3418 1.395 . S
C3416 C3419 1.403 . S
H3417 C3423 0.930 . S
C3418 H3404 0.930 . S
C3418 C3416 1.395 . S
C3418 C3421 1.403 . S
C3419 C3416 1.403 . S
C3419 C3420 1.524 . S
C3419 C3423 1.400 . S
C3420 H3405 0.960 . S
C3420 H3406 0.960 . S
C3420 H3407 0.960 . S
C3420 C3419 1.524 . S
C3421 C3418 1.403 . S
C3421 C3422 1.392 . S
C3421 C3425 1.495 . S
C3422 C3421 1.392 . S
C3422 C3423 1.385 . S
C3422 C3424 1.478 . S
C3423 H3417 0.930 . S
C3423 C3419 1.400 . S
C3423 C3422 1.385 . S
C3424 C3422 1.478 . S
C3424 C3426 1.381 . S
C3424 C3430 1.383 . S
C3425 C3421 1.495 . S
C3425 H3431 0.959 . S
C3425 H3432 0.961 . S
C3425 H3433 0.960 . S
C3426 C3424 1.381 . S
C3426 C3427 1.394 . S
C3426 H3434 0.930 . S
C3427 C3426 1.394 . S
C3427 C3428 1.383 . S
C3427 H3435 0.929 . S
C3428 C3427 1.383 . S
C3428 C3429 1.377 . S
C3429 H3413 0.930 . S
C3429 C3428 1.377 . S
C3429 C3430 1.379 . S
C3430 H3414 0.931 . S
C3430 C3424 1.383 . S
C3430 C3429 1.379 . S
H3431 C3425 0.959 . S
H3432 C3425 0.961 . S
H3433 C3425 0.960 . S
H3434 C3426 0.930 . S
H3435 C3427 0.929 . S
H3436 C3444 0.929 . S
H3437 C3446 0.930 . S
H3438 C3448 0.930 . S
H3439 C3451 0.929 . S
H3440 C3454 0.930 . S
H3441 C3456 0.960 . S
H3442 C3456 0.960 . S
H3443 C3456 0.960 . S
C3444 H3436 0.929 . S
C3444 C3445 1.377 . S
C3444 C3446 1.384 . S
C3445 C3444 1.377 . S
C3445 C3451 1.390 . S
C3446 H3437 0.930 . S
C3446 C3444 1.384 . S
C3446 C3447 1.372 . S
C3447 C3446 1.372 . S
C3447 C3448 1.400 . S
C3447 C3452 1.490 . S
C3448 H3438 0.930 . S
C3448 C3447 1.400 . S
C3448 C3451 1.386 . S
H3449 C3465 0.930 . S
H3450 C3466 0.931 . S
C3451 H3439 0.929 . S
C3451 C3445 1.390 . S
C3451 C3448 1.386 . S
C3452 C3447 1.490 . S
C3452 C3454 1.395 . S
C3452 C3455 1.403 . S
H3453 C3459 0.930 . S
C3454 H3440 0.930 . S
C3454 C3452 1.395 . S
C3454 C3457 1.403 . S
C3455 C3452 1.403 . S
C3455 C3456 1.524 . S
C3455 C3459 1.400 . S
C3456 H3441 0.960 . S
C3456 H3442 0.960 . S
C3456 H3443 0.960 . S
C3456 C3455 1.524 . S
C3457 C3454 1.403 . S
C3457 C3458 1.392 . S
C3457 C3461 1.495 . S
C3458 C3457 1.392 . S
C3458 C3459 1.385 . S
C3458 C3460 1.478 . S
C3459 H3453 0.930 . S
C3459 C3455 1.400 . S
C3459 C3458 1.385 . S
C3460 C3458 1.478 . S
C3460 C3462 1.381 . S
C3460 C3466 1.383 . S
C3461 C3457 1.495 . S
C3461 H3467 0.959 . S
C3461 H3468 0.961 . S
C3461 H3469 0.960 . S
C3462 C3460 1.381 . S
C3462 C3463 1.394 . S
C3462 H3470 0.930 . S
C3463 C3462 1.394 . S
C3463 C3464 1.383 . S
C3463 H3471 0.929 . S
C3464 C3463 1.383 . S
C3464 C3465 1.377 . S
C3465 H3449 0.930 . S
C3465 C3464 1.377 . S
C3465 C3466 1.379 . S
C3466 H3450 0.931 . S
C3466 C3460 1.383 . S
C3466 C3465 1.379 . S
H3467 C3461 0.959 . S
H3468 C3461 0.961 . S
H3469 C3461 0.960 . S
H3470 C3462 0.930 . S
H3471 C3463 0.929 . S
H3472 C3480 0.929 . S
H3473 C3482 0.930 . S
H3474 C3484 0.930 . S
H3475 C3487 0.929 . S
H3476 C3490 0.930 . S
H3477 C3492 0.960 . S
H3478 C3492 0.960 . S
H3479 C3492 0.960 . S
C3480 H3472 0.929 . S
C3480 C3481 1.377 . S
C3480 C3482 1.384 . S
C3481 C3480 1.377 . S
C3481 C3487 1.390 . S
C3482 H3473 0.930 . S
C3482 C3480 1.384 . S
C3482 C3483 1.372 . S
C3483 C3482 1.372 . S
C3483 C3484 1.400 . S
C3483 C3488 1.490 . S
C3484 H3474 0.930 . S
C3484 C3483 1.400 . S
C3484 C3487 1.386 . S
H3485 C3501 0.930 . S
H3486 C3502 0.931 . S
C3487 H3475 0.929 . S
C3487 C3481 1.390 . S
C3487 C3484 1.386 . S
C3488 C3483 1.490 . S
C3488 C3490 1.395 . S
C3488 C3491 1.403 . S
H3489 C3495 0.930 . S
C3490 H3476 0.930 . S
C3490 C3488 1.395 . S
C3490 C3493 1.403 . S
C3491 C3488 1.403 . S
C3491 C3492 1.524 . S
C3491 C3495 1.400 . S
C3492 H3477 0.960 . S
C3492 H3478 0.960 . S
C3492 H3479 0.960 . S
C3492 C3491 1.524 . S
C3493 C3490 1.403 . S
C3493 C3494 1.392 . S
C3493 C3497 1.495 . S
C3494 C3493 1.392 . S
C3494 C3495 1.385 . S
C3494 C3496 1.478 . S
C3495 H3489 0.930 . S
C3495 C3491 1.400 . S
C3495 C3494 1.385 . S
C3496 C3494 1.478 . S
C3496 C3498 1.381 . S
C3496 C3502 1.383 . S
C3497 C3493 1.495 . S
C3497 H3503 0.959 . S
C3497 H3504 0.961 . S
C3497 H3505 0.960 . S
C3498 C3496 1.381 . S
C3498 C3499 1.394 . S
C3498 H3506 0.930 . S
C3499 C3498 1.394 . S
C3499 C3500 1.383 . S
C3499 H3507 0.929 . S
C3500 C3499 1.383 . S
C3500 C3501 1.377 . S
C3501 H3485 0.930 . S
C3501 C3500 1.377 . S
C3501 C3502 1.379 . S
C3502 H3486 0.931 . S
C3502 C3496 1.383 . S
C3502 C3501 1.379 . S
H3503 C3497 0.959 . S
H3504 C3497 0.961 . S
H3505 C3497 0.960 . S
H3506 C3498 0.930 . S
H3507 C3499 0.929 . S
H3508 C3516 0.929 . S
H3509 C3518 0.930 . S
H3510 C3520 0.930 . S
H3511 C3523 0.929 . S
H3512 C3526 0.930 . S
H3513 C3528 0.960 . S
H3514 C3528 0.960 . S
H3515 C3528 0.960 . S
C3516 H3508 0.929 . S
C3516 C3517 1.377 . S
C3516 C3518 1.384 . S
C3517 C3516 1.377 . S
C3517 C3523 1.390 . S
C3518 H3509 0.930 . S
C3518 C3516 1.384 . S
C3518 C3519 1.372 . S
C3519 C3518 1.372 . S
C3519 C3520 1.400 . S
C3519 C3524 1.490 . S
C3520 H3510 0.930 . S
C3520 C3519 1.400 . S
C3520 C3523 1.386 . S
H3521 C3537 0.930 . S
H3522 C3538 0.931 . S
C3523 H3511 0.929 . S
C3523 C3517 1.390 . S
C3523 C3520 1.386 . S
C3524 C3519 1.490 . S
C3524 C3526 1.395 . S
C3524 C3527 1.403 . S
H3525 C3531 0.930 . S
C3526 H3512 0.930 . S
C3526 C3524 1.395 . S
C3526 C3529 1.403 . S
C3527 C3524 1.403 . S
C3527 C3528 1.524 . S
C3527 C3531 1.400 . S
C3528 H3513 0.960 . S
C3528 H3514 0.960 . S
C3528 H3515 0.960 . S
C3528 C3527 1.524 . S
C3529 C3526 1.403 . S
C3529 C3530 1.392 . S
C3529 C3533 1.495 . S
C3530 C3529 1.392 . S
C3530 C3531 1.385 . S
C3530 C3532 1.478 . S
C3531 H3525 0.930 . S
C3531 C3527 1.400 . S
C3531 C3530 1.385 . S
C3532 C3530 1.478 . S
C3532 C3534 1.381 . S
C3532 C3538 1.383 . S
C3533 C3529 1.495 . S
C3533 H3539 0.959 . S
C3533 H3540 0.961 . S
C3533 H3541 0.960 . S
C3534 C3532 1.381 . S
C3534 C3535 1.394 . S
C3534 H3542 0.930 . S
C3535 C3534 1.394 . S
C3535 C3536 1.383 . S
C3535 H3543 0.929 . S
C3536 C3535 1.383 . S
C3536 C3537 1.377 . S
C3537 H3521 0.930 . S
C3537 C3536 1.377 . S
C3537 C3538 1.379 . S
C3538 H3522 0.931 . S
C3538 C3532 1.383 . S
C3538 C3537 1.379 . S
H3539 C3533 0.959 . S
H3540 C3533 0.961 . S
H3541 C3533 0.960 . S
H3542 C3534 0.930 . S
H3543 C3535 0.929 . S
H3544 C3552 0.929 . S
H3545 C3554 0.930 . S
H3546 C3556 0.930 . S
H3547 C3559 0.929 . S
H3548 C3562 0.930 . S
H3549 C3564 0.960 . S
H3550 C3564 0.960 . S
H3551 C3564 0.960 . S
C3552 H3544 0.929 . S
C3552 C3553 1.377 . S
C3552 C3554 1.384 . S
C3553 C3552 1.377 . S
C3553 C3559 1.390 . S
C3554 H3545 0.930 . S
C3554 C3552 1.384 . S
C3554 C3555 1.372 . S
C3555 C3554 1.372 . S
C3555 C3556 1.400 . S
C3555 C3560 1.490 . S
C3556 H3546 0.930 . S
C3556 C3555 1.400 . S
C3556 C3559 1.386 . S
H3557 C3573 0.930 . S
H3558 C3574 0.931 . S
C3559 H3547 0.929 . S
C3559 C3553 1.390 . S
C3559 C3556 1.386 . S
C3560 C3555 1.490 . S
C3560 C3562 1.395 . S
C3560 C3563 1.403 . S
H3561 C3567 0.930 . S
C3562 H3548 0.930 . S
C3562 C3560 1.395 . S
C3562 C3565 1.403 . S
C3563 C3560 1.403 . S
C3563 C3564 1.524 . S
C3563 C3567 1.400 . S
C3564 H3549 0.960 . S
C3564 H3550 0.960 . S
C3564 H3551 0.960 . S
C3564 C3563 1.524 . S
C3565 C3562 1.403 . S
C3565 C3566 1.392 . S
C3565 C3569 1.495 . S
C3566 C3565 1.392 . S
C3566 C3567 1.385 . S
C3566 C3568 1.478 . S
C3567 H3561 0.930 . S
C3567 C3563 1.400 . S
C3567 C3566 1.385 . S
C3568 C3566 1.478 . S
C3568 C3570 1.381 . S
C3568 C3574 1.383 . S
C3569 C3565 1.495 . S
C3569 H3575 0.959 . S
C3569 H3576 0.961 . S
C3569 H3577 0.960 . S
C3570 C3568 1.381 . S
C3570 C3571 1.394 . S
C3570 H3578 0.930 . S
C3571 C3570 1.394 . S
C3571 C3572 1.383 . S
C3571 H3579 0.929 . S
C3572 C3571 1.383 . S
C3572 C3573 1.377 . S
C3573 H3557 0.930 . S
C3573 C3572 1.377 . S
C3573 C3574 1.379 . S
C3574 H3558 0.931 . S
C3574 C3568 1.383 . S
C3574 C3573 1.379 . S
H3575 C3569 0.959 . S
H3576 C3569 0.961 . S
H3577 C3569 0.960 . S
H3578 C3570 0.930 . S
H3579 C3571 0.929 . S
H3580 C3588 0.929 . S
H3581 C3590 0.930 . S
H3582 C3592 0.930 . S
H3583 C3595 0.929 . S
H3584 C3598 0.930 . S
H3585 C3600 0.960 . S
H3586 C3600 0.960 . S
H3587 C3600 0.960 . S
C3588 H3580 0.929 . S
C3588 C3589 1.377 . S
C3588 C3590 1.384 . S
C3589 C3588 1.377 . S
C3589 C3595 1.390 . S
C3590 H3581 0.930 . S
C3590 C3588 1.384 . S
C3590 C3591 1.372 . S
C3591 C3590 1.372 . S
C3591 C3592 1.400 . S
C3591 C3596 1.490 . S
C3592 H3582 0.930 . S
C3592 C3591 1.400 . S
C3592 C3595 1.386 . S
H3593 C3609 0.930 . S
H3594 C3610 0.931 . S
C3595 H3583 0.929 . S
C3595 C3589 1.390 . S
C3595 C3592 1.386 . S
C3596 C3591 1.490 . S
C3596 C3598 1.395 . S
C3596 C3599 1.403 . S
H3597 C3603 0.930 . S
C3598 H3584 0.930 . S
C3598 C3596 1.395 . S
C3598 C3601 1.403 . S
C3599 C3596 1.403 . S
C3599 C3600 1.524 . S
C3599 C3603 1.400 . S
C3600 H3585 0.960 . S
C3600 H3586 0.960 . S
C3600 H3587 0.960 . S
C3600 C3599 1.524 . S
C3601 C3598 1.403 . S
C3601 C3602 1.392 . S
C3601 C3605 1.495 . S
C3602 C3601 1.392 . S
C3602 C3603 1.385 . S
C3602 C3604 1.478 . S
C3603 H3597 0.930 . S
C3603 C3599 1.400 . S
C3603 C3602 1.385 . S
C3604 C3602 1.478 . S
C3604 C3606 1.381 . S
C3604 C3610 1.383 . S
C3605 C3601 1.495 . S
C3605 H3611 0.959 . S
C3605 H3612 0.961 . S
C3605 H3613 0.960 . S
C3606 C3604 1.381 . S
C3606 C3607 1.394 . S
C3606 H3614 0.930 . S
C3607 C3606 1.394 . S
C3607 C3608 1.383 . S
C3607 H3615 0.929 . S
C3608 C3607 1.383 . S
C3608 C3609 1.377 . S
C3609 H3593 0.930 . S
C3609 C3608 1.377 . S
C3609 C3610 1.379 . S
C3610 H3594 0.931 . S
C3610 C3604 1.383 . S
C3610 C3609 1.379 . S
H3611 C3605 0.959 . S
H3612 C3605 0.961 . S
H3613 C3605 0.960 . S
H3614 C3606 0.930 . S
H3615 C3607 0.929 . S
H3616 C3624 0.929 . S
H3617 C3626 0.930 . S
H3618 C3628 0.930 . S
H3619 C3631 0.929 . S
H3620 C3634 0.930 . S
H3621 C3636 0.960 . S
H3622 C3636 0.960 . S
H3623 C3636 0.960 . S
C3624 H3616 0.929 . S
C3624 C3625 1.377 . S
C3624 C3626 1.384 . S
C3625 C3624 1.377 . S
C3625 C3631 1.390 . S
C3626 H3617 0.930 . S
C3626 C3624 1.384 . S
C3626 C3627 1.372 . S
C3627 C3626 1.372 . S
C3627 C3628 1.400 . S
C3627 C3632 1.490 . S
C3628 H3618 0.930 . S
C3628 C3627 1.400 . S
C3628 C3631 1.386 . S
H3629 C3645 0.930 . S
H3630 C3646 0.931 . S
C3631 H3619 0.929 . S
C3631 C3625 1.390 . S
C3631 C3628 1.386 . S
C3632 C3627 1.490 . S
C3632 C3634 1.395 . S
C3632 C3635 1.403 . S
H3633 C3639 0.930 . S
C3634 H3620 0.930 . S
C3634 C3632 1.395 . S
C3634 C3637 1.403 . S
C3635 C3632 1.403 . S
C3635 C3636 1.524 . S
C3635 C3639 1.400 . S
C3636 H3621 0.960 . S
C3636 H3622 0.960 . S
C3636 H3623 0.960 . S
C3636 C3635 1.524 . S
C3637 C3634 1.403 . S
C3637 C3638 1.392 . S
C3637 C3641 1.495 . S
C3638 C3637 1.392 . S
C3638 C3639 1.385 . S
C3638 C3640 1.478 . S
C3639 H3633 0.930 . S
C3639 C3635 1.400 . S
C3639 C3638 1.385 . S
C3640 C3638 1.478 . S
C3640 C3642 1.381 . S
C3640 C3646 1.383 . S
C3641 C3637 1.495 . S
C3641 H3647 0.959 . S
C3641 H3648 0.961 . S
C3641 H3649 0.960 . S
C3642 C3640 1.381 . S
C3642 C3643 1.394 . S
C3642 H3650 0.930 . S
C3643 C3642 1.394 . S
C3643 C3644 1.383 . S
C3643 H3651 0.929 . S
C3644 C3643 1.383 . S
C3644 C3645 1.377 . S
C3645 H3629 0.930 . S
C3645 C3644 1.377 . S
C3645 C3646 1.379 . S
C3646 H3630 0.931 . S
C3646 C3640 1.383 . S
C3646 C3645 1.379 . S
H3647 C3641 0.959 . S
H3648 C3641 0.961 . S
H3649 C3641 0.960 . S
H3650 C3642 0.930 . S
H3651 C3643 0.929 . S
H3652 C3660 0.929 . S
H3653 C3662 0.930 . S
H3654 C3664 0.930 . S
H3655 C3667 0.929 . S
H3656 C3670 0.930 . S
H3657 C3672 0.960 . S
H3658 C3672 0.960 . S
H3659 C3672 0.960 . S
C3660 H3652 0.929 . S
C3660 C3661 1.377 . S
C3660 C3662 1.384 . S
C3661 C3660 1.377 . S
C3661 C3667 1.390 . S
C3662 H3653 0.930 . S
C3662 C3660 1.384 . S
C3662 C3663 1.372 . S
C3663 C3662 1.372 . S
C3663 C3664 1.400 . S
C3663 C3668 1.490 . S
C3664 H3654 0.930 . S
C3664 C3663 1.400 . S
C3664 C3667 1.386 . S
H3665 C3681 0.930 . S
H3666 C3682 0.931 . S
C3667 H3655 0.929 . S
C3667 C3661 1.390 . S
C3667 C3664 1.386 . S
C3668 C3663 1.490 . S
C3668 C3670 1.395 . S
C3668 C3671 1.403 . S
H3669 C3675 0.930 . S
C3670 H3656 0.930 . S
C3670 C3668 1.395 . S
C3670 C3673 1.403 . S
C3671 C3668 1.403 . S
C3671 C3672 1.524 . S
C3671 C3675 1.400 . S
C3672 H3657 0.960 . S
C3672 H3658 0.960 . S
C3672 H3659 0.960 . S
C3672 C3671 1.524 . S
C3673 C3670 1.403 . S
C3673 C3674 1.392 . S
C3673 C3677 1.495 . S
C3674 C3673 1.392 . S
C3674 C3675 1.385 . S
C3674 C3676 1.478 . S
C3675 H3669 0.930 . S
C3675 C3671 1.400 . S
C3675 C3674 1.385 . S
C3676 C3674 1.478 . S
C3676 C3678 1.381 . S
C3676 C3682 1.383 . S
C3677 C3673 1.495 . S
C3677 H3683 0.959 . S
C3677 H3684 0.961 . S
C3677 H3685 0.960 . S
C3678 C3676 1.381 . S
C3678 C3679 1.394 . S
C3678 H3686 0.930 . S
C3679 C3678 1.394 . S
C3679 C3680 1.383 . S
C3679 H3687 0.929 . S
C3680 C3679 1.383 . S
C3680 C3681 1.377 . S
C3681 H3665 0.930 . S
C3681 C3680 1.377 . S
C3681 C3682 1.379 . S
C3682 H3666 0.931 . S
C3682 C3676 1.383 . S
C3682 C3681 1.379 . S
H3683 C3677 0.959 . S
H3684 C3677 0.961 . S
H3685 C3677 0.960 . S
H3686 C3678 0.930 . S
H3687 C3679 0.929 . S
H3688 C3696 0.929 . S
H3689 C3698 0.930 . S
H3690 C3700 0.930 . S
H3691 C3703 0.929 . S
H3692 C3706 0.930 . S
H3693 C3708 0.960 . S
H3694 C3708 0.960 . S
H3695 C3708 0.960 . S
C3696 H3688 0.929 . S
C3696 C3697 1.377 . S
C3696 C3698 1.384 . S
C3697 C3696 1.377 . S
C3697 C3703 1.390 . S
C3698 H3689 0.930 . S
C3698 C3696 1.384 . S
C3698 C3699 1.372 . S
C3699 C3698 1.372 . S
C3699 C3700 1.400 . S
C3699 C3704 1.490 . S
C3700 H3690 0.930 . S
C3700 C3699 1.400 . S
C3700 C3703 1.386 . S
H3701 C3717 0.930 . S
H3702 C3718 0.931 . S
C3703 H3691 0.929 . S
C3703 C3697 1.390 . S
C3703 C3700 1.386 . S
C3704 C3699 1.490 . S
C3704 C3706 1.395 . S
C3704 C3707 1.403 . S
H3705 C3711 0.930 . S
C3706 H3692 0.930 . S
C3706 C3704 1.395 . S
C3706 C3709 1.403 . S
C3707 C3704 1.403 . S
C3707 C3708 1.524 . S
C3707 C3711 1.400 . S
C3708 H3693 0.960 . S
C3708 H3694 0.960 . S
C3708 H3695 0.960 . S
C3708 C3707 1.524 . S
C3709 C3706 1.403 . S
C3709 C3710 1.392 . S
C3709 C3713 1.495 . S
C3710 C3709 1.392 . S
C3710 C3711 1.385 . S
C3710 C3712 1.478 . S
C3711 H3705 0.930 . S
C3711 C3707 1.400 . S
C3711 C3710 1.385 . S
C3712 C3710 1.478 . S
C3712 C3714 1.381 . S
C3712 C3718 1.383 . S
C3713 C3709 1.495 . S
C3713 H3719 0.959 . S
C3713 H3720 0.961 . S
C3713 H3721 0.960 . S
C3714 C3712 1.381 . S
C3714 C3715 1.394 . S
C3714 H3722 0.930 . S
C3715 C3714 1.394 . S
C3715 C3716 1.383 . S
C3715 H3723 0.929 . S
C3716 C3715 1.383 . S
C3716 C3717 1.377 . S
C3717 H3701 0.930 . S
C3717 C3716 1.377 . S
C3717 C3718 1.379 . S
C3718 H3702 0.931 . S
C3718 C3712 1.383 . S
C3718 C3717 1.379 . S
H3719 C3713 0.959 . S
H3720 C3713 0.961 . S
H3721 C3713 0.960 . S
H3722 C3714 0.930 . S
H3723 C3715 0.929 . S
H3724 C3732 0.929 . S
H3725 C3734 0.930 . S
H3726 C3736 0.930 . S
H3727 C3739 0.929 . S
H3728 C3742 0.930 . S
H3729 C3744 0.960 . S
H3730 C3744 0.960 . S
H3731 C3744 0.960 . S
C3732 H3724 0.929 . S
C3732 C3733 1.377 . S
C3732 C3734 1.384 . S
C3733 C3732 1.377 . S
C3733 C3739 1.390 . S
C3734 H3725 0.930 . S
C3734 C3732 1.384 . S
C3734 C3735 1.372 . S
C3735 C3734 1.372 . S
C3735 C3736 1.400 . S
C3735 C3740 1.490 . S
C3736 H3726 0.930 . S
C3736 C3735 1.400 . S
C3736 C3739 1.386 . S
H3737 C3753 0.930 . S
H3738 C3754 0.931 . S
C3739 H3727 0.929 . S
C3739 C3733 1.390 . S
C3739 C3736 1.386 . S
C3740 C3735 1.490 . S
C3740 C3742 1.395 . S
C3740 C3743 1.403 . S
H3741 C3747 0.930 . S
C3742 H3728 0.930 . S
C3742 C3740 1.395 . S
C3742 C3745 1.403 . S
C3743 C3740 1.403 . S
C3743 C3744 1.524 . S
C3743 C3747 1.400 . S
C3744 H3729 0.960 . S
C3744 H3730 0.960 . S
C3744 H3731 0.960 . S
C3744 C3743 1.524 . S
C3745 C3742 1.403 . S
C3745 C3746 1.392 . S
C3745 C3749 1.495 . S
C3746 C3745 1.392 . S
C3746 C3747 1.385 . S
C3746 C3748 1.478 . S
C3747 H3741 0.930 . S
C3747 C3743 1.400 . S
C3747 C3746 1.385 . S
C3748 C3746 1.478 . S
C3748 C3750 1.381 . S
C3748 C3754 1.383 . S
C3749 C3745 1.495 . S
C3749 H3755 0.959 . S
C3749 H3756 0.961 . S
C3749 H3757 0.960 . S
C3750 C3748 1.381 . S
C3750 C3751 1.394 . S
C3750 H3758 0.930 . S
C3751 C3750 1.394 . S
C3751 C3752 1.383 . S
C3751 H3759 0.929 . S
C3752 C3751 1.383 . S
C3752 C3753 1.377 . S
C3753 H3737 0.930 . S
C3753 C3752 1.377 . S
C3753 C3754 1.379 . S
C3754 H3738 0.931 . S
C3754 C3748 1.383 . S
C3754 C3753 1.379 . S
H3755 C3749 0.959 . S
H3756 C3749 0.961 . S
H3757 C3749 0.960 . S
H3758 C3750 0.930 . S
H3759 C3751 0.929 . S
H3760 C3768 0.929 . S
H3761 C3770 0.930 . S
H3762 C3772 0.930 . S
H3763 C3775 0.929 . S
H3764 C3778 0.930 . S
H3765 C3780 0.960 . S
H3766 C3780 0.960 . S
H3767 C3780 0.960 . S
C3768 H3760 0.929 . S
C3768 C3769 1.377 . S
C3768 C3770 1.384 . S
C3769 C3768 1.377 . S
C3769 C3775 1.390 . S
C3770 H3761 0.930 . S
C3770 C3768 1.384 . S
C3770 C3771 1.372 . S
C3771 C3770 1.372 . S
C3771 C3772 1.400 . S
C3771 C3776 1.490 . S
C3772 H3762 0.930 . S
C3772 C3771 1.400 . S
C3772 C3775 1.386 . S
H3773 C3789 0.930 . S
H3774 C3790 0.931 . S
C3775 H3763 0.929 . S
C3775 C3769 1.390 . S
C3775 C3772 1.386 . S
C3776 C3771 1.490 . S
C3776 C3778 1.395 . S
C3776 C3779 1.403 . S
H3777 C3783 0.930 . S
C3778 H3764 0.930 . S
C3778 C3776 1.395 . S
C3778 C3781 1.403 . S
C3779 C3776 1.403 . S
C3779 C3780 1.524 . S
C3779 C3783 1.400 . S
C3780 H3765 0.960 . S
C3780 H3766 0.960 . S
C3780 H3767 0.960 . S
C3780 C3779 1.524 . S
C3781 C3778 1.403 . S
C3781 C3782 1.392 . S
C3781 C3785 1.495 . S
C3782 C3781 1.392 . S
C3782 C3783 1.385 . S
C3782 C3784 1.478 . S
C3783 H3777 0.930 . S
C3783 C3779 1.400 . S
C3783 C3782 1.385 . S
C3784 C3782 1.478 . S
C3784 C3786 1.381 . S
C3784 C3790 1.383 . S
C3785 C3781 1.495 . S
C3785 H3791 0.959 . S
C3785 H3792 0.961 . S
C3785 H3793 0.960 . S
C3786 C3784 1.381 . S
C3786 C3787 1.394 . S
C3786 H3794 0.930 . S
C3787 C3786 1.394 . S
C3787 C3788 1.383 . S
C3787 H3795 0.929 . S
C3788 C3787 1.383 . S
C3788 C3789 1.377 . S
C3789 H3773 0.930 . S
C3789 C3788 1.377 . S
C3789 C3790 1.379 . S
C3790 H3774 0.931 . S
C3790 C3784 1.383 . S
C3790 C3789 1.379 . S
H3791 C3785 0.959 . S
H3792 C3785 0.961 . S
H3793 C3785 0.960 . S
H3794 C3786 0.930 . S
H3795 C3787 0.929 . S
H3796 C3804 0.929 . S
H3797 C3806 0.930 . S
H3798 C3808 0.930 . S
H3799 C3811 0.929 . S
H3800 C3814 0.930 . S
H3801 C3816 0.960 . S
H3802 C3816 0.960 . S
H3803 C3816 0.960 . S
C3804 H3796 0.929 . S
C3804 C3805 1.377 . S
C3804 C3806 1.384 . S
C3805 C3804 1.377 . S
C3805 C3811 1.390 . S
C3806 H3797 0.930 . S
C3806 C3804 1.384 . S
C3806 C3807 1.372 . S
C3807 C3806 1.372 . S
C3807 C3808 1.400 . S
C3807 C3812 1.490 . S
C3808 H3798 0.930 . S
C3808 C3807 1.400 . S
C3808 C3811 1.386 . S
H3809 C3825 0.930 . S
H3810 C3826 0.931 . S
C3811 H3799 0.929 . S
C3811 C3805 1.390 . S
C3811 C3808 1.386 . S
C3812 C3807 1.490 . S
C3812 C3814 1.395 . S
C3812 C3815 1.403 . S
H3813 C3819 0.930 . S
C3814 H3800 0.930 . S
C3814 C3812 1.395 . S
C3814 C3817 1.403 . S
C3815 C3812 1.403 . S
C3815 C3816 1.524 . S
C3815 C3819 1.400 . S
C3816 H3801 0.960 . S
C3816 H3802 0.960 . S
C3816 H3803 0.960 . S
C3816 C3815 1.524 . S
C3817 C3814 1.403 . S
C3817 C3818 1.392 . S
C3817 C3821 1.495 . S
C3818 C3817 1.392 . S
C3818 C3819 1.385 . S
C3818 C3820 1.478 . S
C3819 H3813 0.930 . S
C3819 C3815 1.400 . S
C3819 C3818 1.385 . S
C3820 C3818 1.478 . S
C3820 C3822 1.381 . S
C3820 C3826 1.383 . S
C3821 C3817 1.495 . S
C3821 H3827 0.959 . S
C3821 H3828 0.961 . S
C3821 H3829 0.960 . S
C3822 C3820 1.381 . S
C3822 C3823 1.394 . S
C3822 H3830 0.930 . S
C3823 C3822 1.394 . S
C3823 C3824 1.383 . S
C3823 H3831 0.929 . S
C3824 C3823 1.383 . S
C3824 C3825 1.377 . S
C3825 H3809 0.930 . S
C3825 C3824 1.377 . S
C3825 C3826 1.379 . S
C3826 H3810 0.931 . S
C3826 C3820 1.383 . S
C3826 C3825 1.379 . S
H3827 C3821 0.959 . S
H3828 C3821 0.961 . S
H3829 C3821 0.960 . S
H3830 C3822 0.930 . S
H3831 C3823 0.929 . S
H3832 C3840 0.929 . S
H3833 C3842 0.930 . S
H3834 C3844 0.930 . S
H3835 C3847 0.929 . S
H3836 C3850 0.930 . S
H3837 C3852 0.960 . S
H3838 C3852 0.960 . S
H3839 C3852 0.960 . S
C3840 H3832 0.929 . S
C3840 C3841 1.377 . S
C3840 C3842 1.384 . S
C3841 C3840 1.377 . S
C3841 C3847 1.390 . S
C3842 H3833 0.930 . S
C3842 C3840 1.384 . S
C3842 C3843 1.372 . S
C3843 C3842 1.372 . S
C3843 C3844 1.400 . S
C3843 C3848 1.490 . S
C3844 H3834 0.930 . S
C3844 C3843 1.400 . S
C3844 C3847 1.386 . S
H3845 C3861 0.930 . S
H3846 C3862 0.931 . S
C3847 H3835 0.929 . S
C3847 C3841 1.390 . S
C3847 C3844 1.386 . S
C3848 C3843 1.490 . S
C3848 C3850 1.395 . S
C3848 C3851 1.403 . S
H3849 C3855 0.930 . S
C3850 H3836 0.930 . S
C3850 C3848 1.395 . S
C3850 C3853 1.403 . S
C3851 C3848 1.403 . S
C3851 C3852 1.524 . S
C3851 C3855 1.400 . S
C3852 H3837 0.960 . S
C3852 H3838 0.960 . S
C3852 H3839 0.960 . S
C3852 C3851 1.524 . S
C3853 C3850 1.403 . S
C3853 C3854 1.392 . S
C3853 C3857 1.495 . S
C3854 C3853 1.392 . S
C3854 C3855 1.385 . S
C3854 C3856 1.478 . S
C3855 H3849 0.930 . S
C3855 C3851 1.400 . S
C3855 C3854 1.385 . S
C3856 C3854 1.478 . S
C3856 C3858 1.381 . S
C3856 C3862 1.383 . S
C3857 C3853 1.495 . S
C3857 H3863 0.959 . S
C3857 H3864 0.961 . S
C3857 H3865 0.960 . S
C3858 C3856 1.381 . S
C3858 C3859 1.394 . S
C3858 H3866 0.930 . S
C3859 C3858 1.394 . S
C3859 C3860 1.383 . S
C3859 H3867 0.929 . S
C3860 C3859 1.383 . S
C3860 C3861 1.377 . S
C3861 H3845 0.930 . S
C3861 C3860 1.377 . S
C3861 C3862 1.379 . S
C3862 H3846 0.931 . S
C3862 C3856 1.383 . S
C3862 C3861 1.379 . S
H3863 C3857 0.959 . S
H3864 C3857 0.961 . S
H3865 C3857 0.960 . S
H3866 C3858 0.930 . S
H3867 C3859 0.929 . S
H3868 C3876 0.929 . S
H3869 C3878 0.930 . S
H3870 C3880 0.930 . S
H3871 C3883 0.929 . S
H3872 C3886 0.930 . S
H3873 C3888 0.960 . S
H3874 C3888 0.960 . S
H3875 C3888 0.960 . S
C3876 H3868 0.929 . S
C3876 C3877 1.377 . S
C3876 C3878 1.384 . S
C3877 C3876 1.377 . S
C3877 C3883 1.390 . S
C3878 H3869 0.930 . S
C3878 C3876 1.384 . S
C3878 C3879 1.372 . S
C3879 C3878 1.372 . S
C3879 C3880 1.400 . S
C3879 C3884 1.490 . S
C3880 H3870 0.930 . S
C3880 C3879 1.400 . S
C3880 C3883 1.386 . S
H3881 C3897 0.930 . S
H3882 C3898 0.931 . S
C3883 H3871 0.929 . S
C3883 C3877 1.390 . S
C3883 C3880 1.386 . S
C3884 C3879 1.490 . S
C3884 C3886 1.395 . S
C3884 C3887 1.403 . S
H3885 C3891 0.930 . S
C3886 H3872 0.930 . S
C3886 C3884 1.395 . S
C3886 C3889 1.403 . S
C3887 C3884 1.403 . S
C3887 C3888 1.524 . S
C3887 C3891 1.400 . S
C3888 H3873 0.960 . S
C3888 H3874 0.960 . S
C3888 H3875 0.960 . S
C3888 C3887 1.524 . S
C3889 C3886 1.403 . S
C3889 C3890 1.392 . S
C3889 C3893 1.495 . S
C3890 C3889 1.392 . S
C3890 C3891 1.385 . S
C3890 C3892 1.478 . S
C3891 H3885 0.930 . S
C3891 C3887 1.400 . S
C3891 C3890 1.385 . S
C3892 C3890 1.478 . S
C3892 C3894 1.381 . S
C3892 C3898 1.383 . S
C3893 C3889 1.495 . S
C3893 H3899 0.959 . S
C3893 H3900 0.961 . S
C3893 H3901 0.960 . S
C3894 C3892 1.381 . S
C3894 C3895 1.394 . S
C3894 H3902 0.930 . S
C3895 C3894 1.394 . S
C3895 C3896 1.383 . S
C3895 H3903 0.929 . S
C3896 C3895 1.383 . S
C3896 C3897 1.377 . S
C3897 H3881 0.930 . S
C3897 C3896 1.377 . S
C3897 C3898 1.379 . S
C3898 H3882 0.931 . S
C3898 C3892 1.383 . S
C3898 C3897 1.379 . S
H3899 C3893 0.959 . S
H3900 C3893 0.961 . S
H3901 C3893 0.960 . S
H3902 C3894 0.930 . S
H3903 C3895 0.929 . S
H3904 C3912 0.929 . S
H3905 C3914 0.930 . S
H3906 C3916 0.930 . S
H3907 C3919 0.929 . S
H3908 C3922 0.930 . S
H3909 C3924 0.960 . S
H3910 C3924 0.960 . S
H3911 C3924 0.960 . S
C3912 H3904 0.929 . S
C3912 C3913 1.377 . S
C3912 C3914 1.384 . S
C3913 C3912 1.377 . S
C3913 C3919 1.390 . S
C3914 H3905 0.930 . S
C3914 C3912 1.384 . S
C3914 C3915 1.372 . S
C3915 C3914 1.372 . S
C3915 C3916 1.400 . S
C3915 C3920 1.490 . S
C3916 H3906 0.930 . S
C3916 C3915 1.400 . S
C3916 C3919 1.386 . S
H3917 C3933 0.930 . S
H3918 C3934 0.931 . S
C3919 H3907 0.929 . S
C3919 C3913 1.390 . S
C3919 C3916 1.386 . S
C3920 C3915 1.490 . S
C3920 C3922 1.395 . S
C3920 C3923 1.403 . S
H3921 C3927 0.930 . S
C3922 H3908 0.930 . S
C3922 C3920 1.395 . S
C3922 C3925 1.403 . S
C3923 C3920 1.403 . S
C3923 C3924 1.524 . S
C3923 C3927 1.400 . S
C3924 H3909 0.960 . S
C3924 H3910 0.960 . S
C3924 H3911 0.960 . S
C3924 C3923 1.524 . S
C3925 C3922 1.403 . S
C3925 C3926 1.392 . S
C3925 C3929 1.495 . S
C3926 C3925 1.392 . S
C3926 C3927 1.385 . S
C3926 C3928 1.478 . S
C3927 H3921 0.930 . S
C3927 C3923 1.400 . S
C3927 C3926 1.385 . S
C3928 C3926 1.478 . S
C3928 C3930 1.381 . S
C3928 C3934 1.383 . S
C3929 C3925 1.495 . S
C3929 H3935 0.959 . S
C3929 H3936 0.961 . S
C3929 H3937 0.960 . S
C3930 C3928 1.381 . S
C3930 C3931 1.394 . S
C3930 H3938 0.930 . S
C3931 C3930 1.394 . S
C3931 C3932 1.383 . S
C3931 H3939 0.929 . S
C3932 C3931 1.383 . S
C3932 C3933 1.377 . S
C3933 H3917 0.930 . S
C3933 C3932 1.377 . S
C3933 C3934 1.379 . S
C3934 H3918 0.931 . S
C3934 C3928 1.383 . S
C3934 C3933 1.379 . S
H3935 C3929 0.959 . S
H3936 C3929 0.961 . S
H3937 C3929 0.960 . S
H3938 C3930 0.930 . S
H3939 C3931 0.929 . S
H3940 C3948 0.929 . S
H3941 C3950 0.930 . S
H3942 C3952 0.930 . S
H3943 C3955 0.929 . S
H3944 C3958 0.930 . S
H3945 C3960 0.960 . S
H3946 C3960 0.960 . S
H3947 C3960 0.960 . S
C3948 H3940 0.929 . S
C3948 C3949 1.377 . S
C3948 C3950 1.384 . S
C3949 C3948 1.377 . S
C3949 C3955 1.390 . S
C3950 H3941 0.930 . S
C3950 C3948 1.384 . S
C3950 C3951 1.372 . S
C3951 C3950 1.372 . S
C3951 C3952 1.400 . S
C3951 C3956 1.490 . S
C3952 H3942 0.930 . S
C3952 C3951 1.400 . S
C3952 C3955 1.386 . S
H3953 C3969 0.930 . S
H3954 C3970 0.931 . S
C3955 H3943 0.929 . S
C3955 C3949 1.390 . S
C3955 C3952 1.386 . S
C3956 C3951 1.490 . S
C3956 C3958 1.395 . S
C3956 C3959 1.403 . S
H3957 C3963 0.930 . S
C3958 H3944 0.930 . S
C3958 C3956 1.395 . S
C3958 C3961 1.403 . S
C3959 C3956 1.403 . S
C3959 C3960 1.524 . S
C3959 C3963 1.400 . S
C3960 H3945 0.960 . S
C3960 H3946 0.960 . S
C3960 H3947 0.960 . S
C3960 C3959 1.524 . S
C3961 C3958 1.403 . S
C3961 C3962 1.392 . S
C3961 C3965 1.495 . S
C3962 C3961 1.392 . S
C3962 C3963 1.385 . S
C3962 C3964 1.478 . S
C3963 H3957 0.930 . S
C3963 C3959 1.400 . S
C3963 C3962 1.385 . S
C3964 C3962 1.478 . S
C3964 C3966 1.381 . S
C3964 C3970 1.383 . S
C3965 C3961 1.495 . S
C3965 H3971 0.959 . S
C3965 H3972 0.961 . S
C3965 H3973 0.960 . S
C3966 C3964 1.381 . S
C3966 C3967 1.394 . S
C3966 H3974 0.930 . S
C3967 C3966 1.394 . S
C3967 C3968 1.383 . S
C3967 H3975 0.929 . S
C3968 C3967 1.383 . S
C3968 C3969 1.377 . S
C3969 H3953 0.930 . S
C3969 C3968 1.377 . S
C3969 C3970 1.379 . S
C3970 H3954 0.931 . S
C3970 C3964 1.383 . S
C3970 C3969 1.379 . S
H3971 C3965 0.959 . S
H3972 C3965 0.961 . S
H3973 C3965 0.960 . S
H3974 C3966 0.930 . S
H3975 C3967 0.929 . S
H3976 C3984 0.929 . S
H3977 C3986 0.930 . S
H3978 C3988 0.930 . S
H3979 C3991 0.929 . S
H3980 C3994 0.930 . S
H3981 C3996 0.960 . S
H3982 C3996 0.960 . S
H3983 C3996 0.960 . S
C3984 H3976 0.929 . S
C3984 C3985 1.377 . S
C3984 C3986 1.384 . S
C3985 C3984 1.377 . S
C3985 C3991 1.390 . S
C3986 H3977 0.930 . S
C3986 C3984 1.384 . S
C3986 C3987 1.372 . S
C3987 C3986 1.372 . S
C3987 C3988 1.400 . S
C3987 C3992 1.490 . S
C3988 H3978 0.930 . S
C3988 C3987 1.400 . S
C3988 C3991 1.386 . S
H3989 C4005 0.930 . S
H3990 C4006 0.931 . S
C3991 H3979 0.929 . S
C3991 C3985 1.390 . S
C3991 C3988 1.386 . S
C3992 C3987 1.490 . S
C3992 C3994 1.395 . S
C3992 C3995 1.403 . S
H3993 C3999 0.930 . S
C3994 H3980 0.930 . S
C3994 C3992 1.395 . S
C3994 C3997 1.403 . S
C3995 C3992 1.403 . S
C3995 C3996 1.524 . S
C3995 C3999 1.400 . S
C3996 H3981 0.960 . S
C3996 H3982 0.960 . S
C3996 H3983 0.960 . S
C3996 C3995 1.524 . S
C3997 C3994 1.403 . S
C3997 C3998 1.392 . S
C3997 C4001 1.495 . S
C3998 C3997 1.392 . S
C3998 C3999 1.385 . S
C3998 C4000 1.478 . S
C3999 H3993 0.930 . S
C3999 C3995 1.400 . S
C3999 C3998 1.385 . S
C4000 C3998 1.478 . S
C4000 C4002 1.381 . S
C4000 C4006 1.383 . S
C4001 C3997 1.495 . S
C4001 H4007 0.959 . S
C4001 H4008 0.961 . S
C4001 H4009 0.960 . S
C4002 C4000 1.381 . S
C4002 C4003 1.394 . S
C4002 H4010 0.930 . S
C4003 C4002 1.394 . S
C4003 C4004 1.383 . S
C4003 H4011 0.929 . S
C4004 C4003 1.383 . S
C4004 C4005 1.377 . S
C4005 H3989 0.930 . S
C4005 C4004 1.377 . S
C4005 C4006 1.379 . S
C4006 H3990 0.931 . S
C4006 C4000 1.383 . S
C4006 C4005 1.379 . S
H4007 C4001 0.959 . S
H4008 C4001 0.961 . S
H4009 C4001 0.960 . S
H4010 C4002 0.930 . S
H4011 C4003 0.929 . S
H4012 C4020 0.929 . S
H4013 C4022 0.930 . S
H4014 C4024 0.930 . S
H4015 C4027 0.929 . S
H4016 C4030 0.930 . S
H4017 C4032 0.960 . S
H4018 C4032 0.960 . S
H4019 C4032 0.960 . S
C4020 H4012 0.929 . S
C4020 C4021 1.377 . S
C4020 C4022 1.384 . S
C4021 C4020 1.377 . S
C4021 C4027 1.390 . S
C4022 H4013 0.930 . S
C4022 C4020 1.384 . S
C4022 C4023 1.372 . S
C4023 C4022 1.372 . S
C4023 C4024 1.400 . S
C4023 C4028 1.490 . S
C4024 H4014 0.930 . S
C4024 C4023 1.400 . S
C4024 C4027 1.386 . S
H4025 C4041 0.930 . S
H4026 C4042 0.931 . S
C4027 H4015 0.929 . S
C4027 C4021 1.390 . S
C4027 C4024 1.386 . S
C4028 C4023 1.490 . S
C4028 C4030 1.395 . S
C4028 C4031 1.403 . S
H4029 C4035 0.930 . S
C4030 H4016 0.930 . S
C4030 C4028 1.395 . S
C4030 C4033 1.403 . S
C4031 C4028 1.403 . S
C4031 C4032 1.524 . S
C4031 C4035 1.400 . S
C4032 H4017 0.960 . S
C4032 H4018 0.960 . S
C4032 H4019 0.960 . S
C4032 C4031 1.524 . S
C4033 C4030 1.403 . S
C4033 C4034 1.392 . S
C4033 C4037 1.495 . S
C4034 C4033 1.392 . S
C4034 C4035 1.385 . S
C4034 C4036 1.478 . S
C4035 H4029 0.930 . S
C4035 C4031 1.400 . S
C4035 C4034 1.385 . S
C4036 C4034 1.478 . S
C4036 C4038 1.381 . S
C4036 C4042 1.383 . S
C4037 C4033 1.495 . S
C4037 H4043 0.959 . S
C4037 H4044 0.961 . S
C4037 H4045 0.960 . S
C4038 C4036 1.381 . S
C4038 C4039 1.394 . S
C4038 H4046 0.930 . S
C4039 C4038 1.394 . S
C4039 C4040 1.383 . S
C4039 H4047 0.929 . S
C4040 C4039 1.383 . S
C4040 C4041 1.377 . S
C4041 H4025 0.930 . S
C4041 C4040 1.377 . S
C4041 C4042 1.379 . S
C4042 H4026 0.931 . S
C4042 C4036 1.383 . S
C4042 C4041 1.379 . S
H4043 C4037 0.959 . S
H4044 C4037 0.961 . S
H4045 C4037 0.960 . S
H4046 C4038 0.930 . S
H4047 C4039 0.929 . S
H4048 C4056 0.929 . S
H4049 C4058 0.930 . S
H4050 C4060 0.930 . S
H4051 C4063 0.929 . S
H4052 C4066 0.930 . S
H4053 C4068 0.960 . S
H4054 C4068 0.960 . S
H4055 C4068 0.960 . S
C4056 H4048 0.929 . S
C4056 C4057 1.377 . S
C4056 C4058 1.384 . S
C4057 C4056 1.377 . S
C4057 C4063 1.390 . S
C4058 H4049 0.930 . S
C4058 C4056 1.384 . S
C4058 C4059 1.372 . S
C4059 C4058 1.372 . S
C4059 C4060 1.400 . S
C4059 C4064 1.490 . S
C4060 H4050 0.930 . S
C4060 C4059 1.400 . S
C4060 C4063 1.386 . S
H4061 C4077 0.930 . S
H4062 C4078 0.931 . S
C4063 H4051 0.929 . S
C4063 C4057 1.390 . S
C4063 C4060 1.386 . S
C4064 C4059 1.490 . S
C4064 C4066 1.395 . S
C4064 C4067 1.403 . S
H4065 C4071 0.930 . S
C4066 H4052 0.930 . S
C4066 C4064 1.395 . S
C4066 C4069 1.403 . S
C4067 C4064 1.403 . S
C4067 C4068 1.524 . S
C4067 C4071 1.400 . S
C4068 H4053 0.960 . S
C4068 H4054 0.960 . S
C4068 H4055 0.960 . S
C4068 C4067 1.524 . S
C4069 C4066 1.403 . S
C4069 C4070 1.392 . S
C4069 C4073 1.495 . S
C4070 C4069 1.392 . S
C4070 C4071 1.385 . S
C4070 C4072 1.478 . S
C4071 H4065 0.930 . S
C4071 C4067 1.400 . S
C4071 C4070 1.385 . S
C4072 C4070 1.478 . S
C4072 C4074 1.381 . S
C4072 C4078 1.383 . S
C4073 C4069 1.495 . S
C4073 H4079 0.959 . S
C4073 H4080 0.961 . S
C4073 H4081 0.960 . S
C4074 C4072 1.381 . S
C4074 C4075 1.394 . S
C4074 H4082 0.930 . S
C4075 C4074 1.394 . S
C4075 C4076 1.383 . S
C4075 H4083 0.929 . S
C4076 C4075 1.383 . S
C4076 C4077 1.377 . S
C4077 H4061 0.930 . S
C4077 C4076 1.377 . S
C4077 C4078 1.379 . S
C4078 H4062 0.931 . S
C4078 C4072 1.383 . S
C4078 C4077 1.379 . S
H4079 C4073 0.959 . S
H4080 C4073 0.961 . S
H4081 C4073 0.960 . S
H4082 C4074 0.930 . S
H4083 C4075 0.929 . S
H4084 C4092 0.929 . S
H4085 C4094 0.930 . S
H4086 C4096 0.930 . S
H4087 C4099 0.929 . S
H4088 C4102 0.930 . S
H4089 C4104 0.960 . S
H4090 C4104 0.960 . S
H4091 C4104 0.960 . S
C4092 H4084 0.929 . S
C4092 C4093 1.377 . S
C4092 C4094 1.384 . S
C4093 C4092 1.377 . S
C4093 C4099 1.390 . S
C4094 H4085 0.930 . S
C4094 C4092 1.384 . S
C4094 C4095 1.372 . S
C4095 C4094 1.372 . S
C4095 C4096 1.400 . S
C4095 C4100 1.490 . S
C4096 H4086 0.930 . S
C4096 C4095 1.400 . S
C4096 C4099 1.386 . S
H4097 C4113 0.930 . S
H4098 C4114 0.931 . S
C4099 H4087 0.929 . S
C4099 C4093 1.390 . S
C4099 C4096 1.386 . S
C4100 C4095 1.490 . S
C4100 C4102 1.395 . S
C4100 C4103 1.403 . S
H4101 C4107 0.930 . S
C4102 H4088 0.930 . S
C4102 C4100 1.395 . S
C4102 C4105 1.403 . S
C4103 C4100 1.403 . S
C4103 C4104 1.524 . S
C4103 C4107 1.400 . S
C4104 H4089 0.960 . S
C4104 H4090 0.960 . S
C4104 H4091 0.960 . S
C4104 C4103 1.524 . S
C4105 C4102 1.403 . S
C4105 C4106 1.392 . S
C4105 C4109 1.495 . S
C4106 C4105 1.392 . S
C4106 C4107 1.385 . S
C4106 C4108 1.478 . S
C4107 H4101 0.930 . S
C4107 C4103 1.400 . S
C4107 C4106 1.385 . S
C4108 C4106 1.478 . S
C4108 C4110 1.381 . S
C4108 C4114 1.383 . S
C4109 C4105 1.495 . S
C4109 H4115 0.959 . S
C4109 H4116 0.961 . S
C4109 H4117 0.960 . S
C4110 C4108 1.381 . S
C4110 C4111 1.394 . S
C4110 H4118 0.930 . S
C4111 C4110 1.394 . S
C4111 C4112 1.383 . S
C4111 H4119 0.929 . S
C4112 C4111 1.383 . S
C4112 C4113 1.377 . S
C4113 H4097 0.930 . S
C4113 C4112 1.377 . S
C4113 C4114 1.379 . S
C4114 H4098 0.931 . S
C4114 C4108 1.383 . S
C4114 C4113 1.379 . S
H4115 C4109 0.959 . S
H4116 C4109 0.961 . S
H4117 C4109 0.960 . S
H4118 C4110 0.930 . S
H4119 C4111 0.929 . S
H4120 C4128 0.929 . S
H4121 C4130 0.930 . S
H4122 C4132 0.930 . S
H4123 C4135 0.929 . S
H4124 C4138 0.930 . S
H4125 C4140 0.960 . S
H4126 C4140 0.960 . S
H4127 C4140 0.960 . S
C4128 H4120 0.929 . S
C4128 C4129 1.377 . S
C4128 C4130 1.384 . S
C4129 C4128 1.377 . S
C4129 C4135 1.390 . S
C4130 H4121 0.930 . S
C4130 C4128 1.384 . S
C4130 C4131 1.372 . S
C4131 C4130 1.372 . S
C4131 C4132 1.400 . S
C4131 C4136 1.490 . S
C4132 H4122 0.930 . S
C4132 C4131 1.400 . S
C4132 C4135 1.386 . S
H4133 C4149 0.930 . S
H4134 C4150 0.931 . S
C4135 H4123 0.929 . S
C4135 C4129 1.390 . S
C4135 C4132 1.386 . S
C4136 C4131 1.490 . S
C4136 C4138 1.395 . S
C4136 C4139 1.403 . S
H4137 C4143 0.930 . S
C4138 H4124 0.930 . S
C4138 C4136 1.395 . S
C4138 C4141 1.403 . S
C4139 C4136 1.403 . S
C4139 C4140 1.524 . S
C4139 C4143 1.400 . S
C4140 H4125 0.960 . S
C4140 H4126 0.960 . S
C4140 H4127 0.960 . S
C4140 C4139 1.524 . S
C4141 C4138 1.403 . S
C4141 C4142 1.392 . S
C4141 C4145 1.495 . S
C4142 C4141 1.392 . S
C4142 C4143 1.385 . S
C4142 C4144 1.478 . S
C4143 H4137 0.930 . S
C4143 C4139 1.400 . S
C4143 C4142 1.385 . S
C4144 C4142 1.478 . S
C4144 C4146 1.381 . S
C4144 C4150 1.383 . S
C4145 C4141 1.495 . S
C4145 H4151 0.959 . S
C4145 H4152 0.961 . S
C4145 H4153 0.960 . S
C4146 C4144 1.381 . S
C4146 C4147 1.394 . S
C4146 H4154 0.930 . S
C4147 C4146 1.394 . S
C4147 C4148 1.383 . S
C4147 H4155 0.929 . S
C4148 C4147 1.383 . S
C4148 C4149 1.377 . S
C4149 H4133 0.930 . S
C4149 C4148 1.377 . S
C4149 C4150 1.379 . S
C4150 H4134 0.931 . S
C4150 C4144 1.383 . S
C4150 C4149 1.379 . S
H4151 C4145 0.959 . S
H4152 C4145 0.961 . S
H4153 C4145 0.960 . S
H4154 C4146 0.930 . S
H4155 C4147 0.929 . S
H4156 C4164 0.929 . S
H4157 C4166 0.930 . S
H4158 C4168 0.930 . S
H4159 C4171 0.929 . S
H4160 C4174 0.930 . S
H4161 C4176 0.960 . S
H4162 C4176 0.960 . S
H4163 C4176 0.960 . S
C4164 H4156 0.929 . S
C4164 C4165 1.377 . S
C4164 C4166 1.384 . S
C4165 C4164 1.377 . S
C4165 C4171 1.390 . S
C4166 H4157 0.930 . S
C4166 C4164 1.384 . S
C4166 C4167 1.372 . S
C4167 C4166 1.372 . S
C4167 C4168 1.400 . S
C4167 C4172 1.490 . S
C4168 H4158 0.930 . S
C4168 C4167 1.400 . S
C4168 C4171 1.386 . S
H4169 C4185 0.930 . S
H4170 C4186 0.931 . S
C4171 H4159 0.929 . S
C4171 C4165 1.390 . S
C4171 C4168 1.386 . S
C4172 C4167 1.490 . S
C4172 C4174 1.395 . S
C4172 C4175 1.403 . S
H4173 C4179 0.930 . S
C4174 H4160 0.930 . S
C4174 C4172 1.395 . S
C4174 C4177 1.403 . S
C4175 C4172 1.403 . S
C4175 C4176 1.524 . S
C4175 C4179 1.400 . S
C4176 H4161 0.960 . S
C4176 H4162 0.960 . S
C4176 H4163 0.960 . S
C4176 C4175 1.524 . S
C4177 C4174 1.403 . S
C4177 C4178 1.392 . S
C4177 C4181 1.495 . S
C4178 C4177 1.392 . S
C4178 C4179 1.385 . S
C4178 C4180 1.478 . S
C4179 H4173 0.930 . S
C4179 C4175 1.400 . S
C4179 C4178 1.385 . S
C4180 C4178 1.478 . S
C4180 C4182 1.381 . S
C4180 C4186 1.383 . S
C4181 C4177 1.495 . S
C4181 H4187 0.959 . S
C4181 H4188 0.961 . S
C4181 H4189 0.960 . S
C4182 C4180 1.381 . S
C4182 C4183 1.394 . S
C4182 H4190 0.930 . S
C4183 C4182 1.394 . S
C4183 C4184 1.383 . S
C4183 H4191 0.929 . S
C4184 C4183 1.383 . S
C4184 C4185 1.377 . S
C4185 H4169 0.930 . S
C4185 C4184 1.377 . S
C4185 C4186 1.379 . S
C4186 H4170 0.931 . S
C4186 C4180 1.383 . S
C4186 C4185 1.379 . S
H4187 C4181 0.959 . S
H4188 C4181 0.961 . S
H4189 C4181 0.960 . S
H4190 C4182 0.930 . S
H4191 C4183 0.929 . S
H4192 C4200 0.929 . S
H4193 C4202 0.930 . S
H4194 C4204 0.930 . S
H4195 C4207 0.929 . S
H4196 C4210 0.930 . S
H4197 C4212 0.960 . S
H4198 C4212 0.960 . S
H4199 C4212 0.960 . S
C4200 H4192 0.929 . S
C4200 C4201 1.377 . S
C4200 C4202 1.384 . S
C4201 C4200 1.377 . S
C4201 C4207 1.390 . S
C4202 H4193 0.930 . S
C4202 C4200 1.384 . S
C4202 C4203 1.372 . S
C4203 C4202 1.372 . S
C4203 C4204 1.400 . S
C4203 C4208 1.490 . S
C4204 H4194 0.930 . S
C4204 C4203 1.400 . S
C4204 C4207 1.386 . S
H4205 C4221 0.930 . S
H4206 C4222 0.931 . S
C4207 H4195 0.929 . S
C4207 C4201 1.390 . S
C4207 C4204 1.386 . S
C4208 C4203 1.490 . S
C4208 C4210 1.395 . S
C4208 C4211 1.403 . S
H4209 C4215 0.930 . S
C4210 H4196 0.930 . S
C4210 C4208 1.395 . S
C4210 C4213 1.403 . S
C4211 C4208 1.403 . S
C4211 C4212 1.524 . S
C4211 C4215 1.400 . S
C4212 H4197 0.960 . S
C4212 H4198 0.960 . S
C4212 H4199 0.960 . S
C4212 C4211 1.524 . S
C4213 C4210 1.403 . S
C4213 C4214 1.392 . S
C4213 C4217 1.495 . S
C4214 C4213 1.392 . S
C4214 C4215 1.385 . S
C4214 C4216 1.478 . S
C4215 H4209 0.930 . S
C4215 C4211 1.400 . S
C4215 C4214 1.385 . S
C4216 C4214 1.478 . S
C4216 C4218 1.381 . S
C4216 C4222 1.383 . S
C4217 C4213 1.495 . S
C4217 H4223 0.959 . S
C4217 H4224 0.961 . S
C4217 H4225 0.960 . S
C4218 C4216 1.381 . S
C4218 C4219 1.394 . S
C4218 H4226 0.930 . S
C4219 C4218 1.394 . S
C4219 C4220 1.383 . S
C4219 H4227 0.929 . S
C4220 C4219 1.383 . S
C4220 C4221 1.377 . S
C4221 H4205 0.930 . S
C4221 C4220 1.377 . S
C4221 C4222 1.379 . S
C4222 H4206 0.931 . S
C4222 C4216 1.383 . S
C4222 C4221 1.379 . S
H4223 C4217 0.959 . S
H4224 C4217 0.961 . S
H4225 C4217 0.960 . S
H4226 C4218 0.930 . S
H4227 C4219 0.929 . S
H4228 C4236 0.929 . S
H4229 C4238 0.930 . S
H4230 C4240 0.930 . S
H4231 C4243 0.929 . S
H4232 C4246 0.930 . S
H4233 C4248 0.960 . S
H4234 C4248 0.960 . S
H4235 C4248 0.960 . S
C4236 H4228 0.929 . S
C4236 C4237 1.377 . S
C4236 C4238 1.384 . S
C4237 C4236 1.377 . S
C4237 C4243 1.390 . S
C4238 H4229 0.930 . S
C4238 C4236 1.384 . S
C4238 C4239 1.372 . S
C4239 C4238 1.372 . S
C4239 C4240 1.400 . S
C4239 C4244 1.490 . S
C4240 H4230 0.930 . S
C4240 C4239 1.400 . S
C4240 C4243 1.386 . S
H4241 C4257 0.930 . S
H4242 C4258 0.931 . S
C4243 H4231 0.929 . S
C4243 C4237 1.390 . S
C4243 C4240 1.386 . S
C4244 C4239 1.490 . S
C4244 C4246 1.395 . S
C4244 C4247 1.403 . S
H4245 C4251 0.930 . S
C4246 H4232 0.930 . S
C4246 C4244 1.395 . S
C4246 C4249 1.403 . S
C4247 C4244 1.403 . S
C4247 C4248 1.524 . S
C4247 C4251 1.400 . S
C4248 H4233 0.960 . S
C4248 H4234 0.960 . S
C4248 H4235 0.960 . S
C4248 C4247 1.524 . S
C4249 C4246 1.403 . S
C4249 C4250 1.392 . S
C4249 C4253 1.495 . S
C4250 C4249 1.392 . S
C4250 C4251 1.385 . S
C4250 C4252 1.478 . S
C4251 H4245 0.930 . S
C4251 C4247 1.400 . S
C4251 C4250 1.385 . S
C4252 C4250 1.478 . S
C4252 C4254 1.381 . S
C4252 C4258 1.383 . S
C4253 C4249 1.495 . S
C4253 H4259 0.959 . S
C4253 H4260 0.961 . S
C4253 H4261 0.960 . S
C4254 C4252 1.381 . S
C4254 C4255 1.394 . S
C4254 H4262 0.930 . S
C4255 C4254 1.394 . S
C4255 C4256 1.383 . S
C4255 H4263 0.929 . S
C4256 C4255 1.383 . S
C4256 C4257 1.377 . S
C4257 H4241 0.930 . S
C4257 C4256 1.377 . S
C4257 C4258 1.379 . S
C4258 H4242 0.931 . S
C4258 C4252 1.383 . S
C4258 C4257 1.379 . S
H4259 C4253 0.959 . S
H4260 C4253 0.961 . S
H4261 C4253 0.960 . S
H4262 C4254 0.930 . S
H4263 C4255 0.929 . S
H4264 C4272 0.929 . S
H4265 C4274 0.930 . S
H4266 C4276 0.930 . S
H4267 C4279 0.929 . S
H4268 C4282 0.930 . S
H4269 C4284 0.960 . S
H4270 C4284 0.960 . S
H4271 C4284 0.960 . S
C4272 H4264 0.929 . S
C4272 C4273 1.377 . S
C4272 C4274 1.384 . S
C4273 C4272 1.377 . S
C4273 C4279 1.390 . S
C4274 H4265 0.930 . S
C4274 C4272 1.384 . S
C4274 C4275 1.372 . S
C4275 C4274 1.372 . S
C4275 C4276 1.400 . S
C4275 C4280 1.490 . S
C4276 H4266 0.930 . S
C4276 C4275 1.400 . S
C4276 C4279 1.386 . S
H4277 C4293 0.930 . S
H4278 C4294 0.931 . S
C4279 H4267 0.929 . S
C4279 C4273 1.390 . S
C4279 C4276 1.386 . S
C4280 C4275 1.490 . S
C4280 C4282 1.395 . S
C4280 C4283 1.403 . S
H4281 C4287 0.930 . S
C4282 H4268 0.930 . S
C4282 C4280 1.395 . S
C4282 C4285 1.403 . S
C4283 C4280 1.403 . S
C4283 C4284 1.524 . S
C4283 C4287 1.400 . S
C4284 H4269 0.960 . S
C4284 H4270 0.960 . S
C4284 H4271 0.960 . S
C4284 C4283 1.524 . S
C4285 C4282 1.403 . S
C4285 C4286 1.392 . S
C4285 C4289 1.495 . S
C4286 C4285 1.392 . S
C4286 C4287 1.385 . S
C4286 C4288 1.478 . S
C4287 H4281 0.930 . S
C4287 C4283 1.400 . S
C4287 C4286 1.385 . S
C4288 C4286 1.478 . S
C4288 C4290 1.381 . S
C4288 C4294 1.383 . S
C4289 C4285 1.495 . S
C4289 H4295 0.959 . S
C4289 H4296 0.961 . S
C4289 H4297 0.960 . S
C4290 C4288 1.381 . S
C4290 C4291 1.394 . S
C4290 H4298 0.930 . S
C4291 C4290 1.394 . S
C4291 C4292 1.383 . S
C4291 H4299 0.929 . S
C4292 C4291 1.383 . S
C4292 C4293 1.377 . S
C4293 H4277 0.930 . S
C4293 C4292 1.377 . S
C4293 C4294 1.379 . S
C4294 H4278 0.931 . S
C4294 C4288 1.383 . S
C4294 C4293 1.379 . S
H4295 C4289 0.959 . S
H4296 C4289 0.961 . S
H4297 C4289 0.960 . S
H4298 C4290 0.930 . S
H4299 C4291 0.929 . S
H4300 C4308 0.929 . S
H4301 C4310 0.930 . S
H4302 C4312 0.930 . S
H4303 C4315 0.929 . S
H4304 C4318 0.930 . S
H4305 C4320 0.960 . S
H4306 C4320 0.960 . S
H4307 C4320 0.960 . S
C4308 H4300 0.929 . S
C4308 C4309 1.377 . S
C4308 C4310 1.384 . S
C4309 C4308 1.377 . S
C4309 C4315 1.390 . S
C4310 H4301 0.930 . S
C4310 C4308 1.384 . S
C4310 C4311 1.372 . S
C4311 C4310 1.372 . S
C4311 C4312 1.400 . S
C4311 C4316 1.490 . S
C4312 H4302 0.930 . S
C4312 C4311 1.400 . S
C4312 C4315 1.386 . S
H4313 C4329 0.930 . S
H4314 C4330 0.931 . S
C4315 H4303 0.929 . S
C4315 C4309 1.390 . S
C4315 C4312 1.386 . S
C4316 C4311 1.490 . S
C4316 C4318 1.395 . S
C4316 C4319 1.403 . S
H4317 C4323 0.930 . S
C4318 H4304 0.930 . S
C4318 C4316 1.395 . S
C4318 C4321 1.403 . S
C4319 C4316 1.403 . S
C4319 C4320 1.524 . S
C4319 C4323 1.400 . S
C4320 H4305 0.960 . S
C4320 H4306 0.960 . S
C4320 H4307 0.960 . S
C4320 C4319 1.524 . S
C4321 C4318 1.403 . S
C4321 C4322 1.392 . S
C4321 C4325 1.495 . S
C4322 C4321 1.392 . S
C4322 C4323 1.385 . S
C4322 C4324 1.478 . S
C4323 H4317 0.930 . S
C4323 C4319 1.400 . S
C4323 C4322 1.385 . S
C4324 C4322 1.478 . S
C4324 C4326 1.381 . S
C4324 C4330 1.383 . S
C4325 C4321 1.495 . S
C4325 H4331 0.959 . S
C4325 H4332 0.961 . S
C4325 H4333 0.960 . S
C4326 C4324 1.381 . S
C4326 C4327 1.394 . S
C4326 H4334 0.930 . S
C4327 C4326 1.394 . S
C4327 C4328 1.383 . S
C4327 H4335 0.929 . S
C4328 C4327 1.383 . S
C4328 C4329 1.377 . S
C4329 H4313 0.930 . S
C4329 C4328 1.377 . S
C4329 C4330 1.379 . S
C4330 H4314 0.931 . S
C4330 C4324 1.383 . S
C4330 C4329 1.379 . S
H4331 C4325 0.959 . S
H4332 C4325 0.961 . S
H4333 C4325 0.960 . S
H4334 C4326 0.930 . S
H4335 C4327 0.929 . S
H4336 C4344 0.929 . S
H4337 C4346 0.930 . S
H4338 C4348 0.930 . S
H4339 C4351 0.929 . S
H4340 C4354 0.930 . S
H4341 C4356 0.960 . S
H4342 C4356 0.960 . S
H4343 C4356 0.960 . S
C4344 H4336 0.929 . S
C4344 C4345 1.377 . S
C4344 C4346 1.384 . S
C4345 C4344 1.377 . S
C4345 C4351 1.390 . S
C4346 H4337 0.930 . S
C4346 C4344 1.384 . S
C4346 C4347 1.372 . S
C4347 C4346 1.372 . S
C4347 C4348 1.400 . S
C4347 C4352 1.490 . S
C4348 H4338 0.930 . S
C4348 C4347 1.400 . S
C4348 C4351 1.386 . S
H4349 C4365 0.930 . S
H4350 C4366 0.931 . S
C4351 H4339 0.929 . S
C4351 C4345 1.390 . S
C4351 C4348 1.386 . S
C4352 C4347 1.490 . S
C4352 C4354 1.395 . S
C4352 C4355 1.403 . S
H4353 C4359 0.930 . S
C4354 H4340 0.930 . S
C4354 C4352 1.395 . S
C4354 C4357 1.403 . S
C4355 C4352 1.403 . S
C4355 C4356 1.524 . S
C4355 C4359 1.400 . S
C4356 H4341 0.960 . S
C4356 H4342 0.960 . S
C4356 H4343 0.960 . S
C4356 C4355 1.524 . S
C4357 C4354 1.403 . S
C4357 C4358 1.392 . S
C4357 C4361 1.495 . S
C4358 C4357 1.392 . S
C4358 C4359 1.385 . S
C4358 C4360 1.478 . S
C4359 H4353 0.930 . S
C4359 C4355 1.400 . S
C4359 C4358 1.385 . S
C4360 C4358 1.478 . S
C4360 C4362 1.381 . S
C4360 C4366 1.383 . S
C4361 C4357 1.495 . S
C4361 H4367 0.959 . S
C4361 H4368 0.961 . S
C4361 H4369 0.960 . S
C4362 C4360 1.381 . S
C4362 C4363 1.394 . S
C4362 H4370 0.930 . S
C4363 C4362 1.394 . S
C4363 C4364 1.383 . S
C4363 H4371 0.929 . S
C4364 C4363 1.383 . S
C4364 C4365 1.377 . S
C4365 H4349 0.930 . S
C4365 C4364 1.377 . S
C4365 C4366 1.379 . S
C4366 H4350 0.931 . S
C4366 C4360 1.383 . S
C4366 C4365 1.379 . S
H4367 C4361 0.959 . S
H4368 C4361 0.961 . S
H4369 C4361 0.960 . S
H4370 C4362 0.930 . S
H4371 C4363 0.929 . S
H4372 C4380 0.929 . S
H4373 C4382 0.930 . S
H4374 C4384 0.930 . S
H4375 C4387 0.929 . S
H4376 C4390 0.930 . S
H4377 C4392 0.960 . S
H4378 C4392 0.960 . S
H4379 C4392 0.960 . S
C4380 H4372 0.929 . S
C4380 C4381 1.377 . S
C4380 C4382 1.384 . S
C4381 C4380 1.377 . S
C4381 C4387 1.390 . S
C4382 H4373 0.930 . S
C4382 C4380 1.384 . S
C4382 C4383 1.372 . S
C4383 C4382 1.372 . S
C4383 C4384 1.400 . S
C4383 C4388 1.490 . S
C4384 H4374 0.930 . S
C4384 C4383 1.400 . S
C4384 C4387 1.386 . S
H4385 C4401 0.930 . S
H4386 C4402 0.931 . S
C4387 H4375 0.929 . S
C4387 C4381 1.390 . S
C4387 C4384 1.386 . S
C4388 C4383 1.490 . S
C4388 C4390 1.395 . S
C4388 C4391 1.403 . S
H4389 C4395 0.930 . S
C4390 H4376 0.930 . S
C4390 C4388 1.395 . S
C4390 C4393 1.403 . S
C4391 C4388 1.403 . S
C4391 C4392 1.524 . S
C4391 C4395 1.400 . S
C4392 H4377 0.960 . S
C4392 H4378 0.960 . S
C4392 H4379 0.960 . S
C4392 C4391 1.524 . S
C4393 C4390 1.403 . S
C4393 C4394 1.392 . S
C4393 C4397 1.495 . S
C4394 C4393 1.392 . S
C4394 C4395 1.385 . S
C4394 C4396 1.478 . S
C4395 H4389 0.930 . S
C4395 C4391 1.400 . S
C4395 C4394 1.385 . S
C4396 C4394 1.478 . S
C4396 C4398 1.381 . S
C4396 C4402 1.383 . S
C4397 C4393 1.495 . S
C4397 H4403 0.959 . S
C4397 H4404 0.961 . S
C4397 H4405 0.960 . S
C4398 C4396 1.381 . S
C4398 C4399 1.394 . S
C4398 H4406 0.930 . S
C4399 C4398 1.394 . S
C4399 C4400 1.383 . S
C4399 H4407 0.929 . S
C4400 C4399 1.383 . S
C4400 C4401 1.377 . S
C4401 H4385 0.930 . S
C4401 C4400 1.377 . S
C4401 C4402 1.379 . S
C4402 H4386 0.931 . S
C4402 C4396 1.383 . S
C4402 C4401 1.379 . S
H4403 C4397 0.959 . S
H4404 C4397 0.961 . S
H4405 C4397 0.960 . S
H4406 C4398 0.930 . S
H4407 C4399 0.929 . S
H4408 C4416 0.929 . S
H4409 C4418 0.930 . S
H4410 C4420 0.930 . S
H4411 C4423 0.929 . S
H4412 C4426 0.930 . S
H4413 C4428 0.960 . S
H4414 C4428 0.960 . S
H4415 C4428 0.960 . S
C4416 H4408 0.929 . S
C4416 C4417 1.377 . S
C4416 C4418 1.384 . S
C4417 C4416 1.377 . S
C4417 C4423 1.390 . S
C4418 H4409 0.930 . S
C4418 C4416 1.384 . S
C4418 C4419 1.372 . S
C4419 C4418 1.372 . S
C4419 C4420 1.400 . S
C4419 C4424 1.490 . S
C4420 H4410 0.930 . S
C4420 C4419 1.400 . S
C4420 C4423 1.386 . S
H4421 C4437 0.930 . S
H4422 C4438 0.931 . S
C4423 H4411 0.929 . S
C4423 C4417 1.390 . S
C4423 C4420 1.386 . S
C4424 C4419 1.490 . S
C4424 C4426 1.395 . S
C4424 C4427 1.403 . S
H4425 C4431 0.930 . S
C4426 H4412 0.930 . S
C4426 C4424 1.395 . S
C4426 C4429 1.403 . S
C4427 C4424 1.403 . S
C4427 C4428 1.524 . S
C4427 C4431 1.400 . S
C4428 H4413 0.960 . S
C4428 H4414 0.960 . S
C4428 H4415 0.960 . S
C4428 C4427 1.524 . S
C4429 C4426 1.403 . S
C4429 C4430 1.392 . S
C4429 C4433 1.495 . S
C4430 C4429 1.392 . S
C4430 C4431 1.385 . S
C4430 C4432 1.478 . S
C4431 H4425 0.930 . S
C4431 C4427 1.400 . S
C4431 C4430 1.385 . S
C4432 C4430 1.478 . S
C4432 C4434 1.381 . S
C4432 C4438 1.383 . S
C4433 C4429 1.495 . S
C4433 H4439 0.959 . S
C4433 H4440 0.961 . S
C4433 H4441 0.960 . S
C4434 C4432 1.381 . S
C4434 C4435 1.394 . S
C4434 H4442 0.930 . S
C4435 C4434 1.394 . S
C4435 C4436 1.383 . S
C4435 H4443 0.929 . S
C4436 C4435 1.383 . S
C4436 C4437 1.377 . S
C4437 H4421 0.930 . S
C4437 C4436 1.377 . S
C4437 C4438 1.379 . S
C4438 H4422 0.931 . S
C4438 C4432 1.383 . S
C4438 C4437 1.379 . S
H4439 C4433 0.959 . S
H4440 C4433 0.961 . S
H4441 C4433 0.960 . S
H4442 C4434 0.930 . S
H4443 C4435 0.929 . S
H4444 C4452 0.929 . S
H4445 C4454 0.930 . S
H4446 C4456 0.930 . S
H4447 C4459 0.929 . S
H4448 C4462 0.930 . S
H4449 C4464 0.960 . S
H4450 C4464 0.960 . S
H4451 C4464 0.960 . S
C4452 H4444 0.929 . S
C4452 C4453 1.377 . S
C4452 C4454 1.384 . S
C4453 C4452 1.377 . S
C4453 C4459 1.390 . S
C4454 H4445 0.930 . S
C4454 C4452 1.384 . S
C4454 C4455 1.372 . S
C4455 C4454 1.372 . S
C4455 C4456 1.400 . S
C4455 C4460 1.490 . S
C4456 H4446 0.930 . S
C4456 C4455 1.400 . S
C4456 C4459 1.386 . S
H4457 C4473 0.930 . S
H4458 C4474 0.931 . S
C4459 H4447 0.929 . S
C4459 C4453 1.390 . S
C4459 C4456 1.386 . S
C4460 C4455 1.490 . S
C4460 C4462 1.395 . S
C4460 C4463 1.403 . S
H4461 C4467 0.930 . S
C4462 H4448 0.930 . S
C4462 C4460 1.395 . S
C4462 C4465 1.403 . S
C4463 C4460 1.403 . S
C4463 C4464 1.524 . S
C4463 C4467 1.400 . S
C4464 H4449 0.960 . S
C4464 H4450 0.960 . S
C4464 H4451 0.960 . S
C4464 C4463 1.524 . S
C4465 C4462 1.403 . S
C4465 C4466 1.392 . S
C4465 C4469 1.495 . S
C4466 C4465 1.392 . S
C4466 C4467 1.385 . S
C4466 C4468 1.478 . S
C4467 H4461 0.930 . S
C4467 C4463 1.400 . S
C4467 C4466 1.385 . S
C4468 C4466 1.478 . S
C4468 C4470 1.381 . S
C4468 C4474 1.383 . S
C4469 C4465 1.495 . S
C4469 H4475 0.959 . S
C4469 H4476 0.961 . S
C4469 H4477 0.960 . S
C4470 C4468 1.381 . S
C4470 C4471 1.394 . S
C4470 H4478 0.930 . S
C4471 C4470 1.394 . S
C4471 C4472 1.383 . S
C4471 H4479 0.929 . S
C4472 C4471 1.383 . S
C4472 C4473 1.377 . S
C4473 H4457 0.930 . S
C4473 C4472 1.377 . S
C4473 C4474 1.379 . S
C4474 H4458 0.931 . S
C4474 C4468 1.383 . S
C4474 C4473 1.379 . S
H4475 C4469 0.959 . S
H4476 C4469 0.961 . S
H4477 C4469 0.960 . S
H4478 C4470 0.930 . S
H4479 C4471 0.929 . S
H4480 C4488 0.929 . S
H4481 C4490 0.930 . S
H4482 C4492 0.930 . S
H4483 C4495 0.929 . S
H4484 C4498 0.930 . S
H4485 C4500 0.960 . S
H4486 C4500 0.960 . S
H4487 C4500 0.960 . S
C4488 H4480 0.929 . S
C4488 C4489 1.377 . S
C4488 C4490 1.384 . S
C4489 C4488 1.377 . S
C4489 C4495 1.390 . S
C4490 H4481 0.930 . S
C4490 C4488 1.384 . S
C4490 C4491 1.372 . S
C4491 C4490 1.372 . S
C4491 C4492 1.400 . S
C4491 C4496 1.490 . S
C4492 H4482 0.930 . S
C4492 C4491 1.400 . S
C4492 C4495 1.386 . S
H4493 C4509 0.930 . S
H4494 C4510 0.931 . S
C4495 H4483 0.929 . S
C4495 C4489 1.390 . S
C4495 C4492 1.386 . S
C4496 C4491 1.490 . S
C4496 C4498 1.395 . S
C4496 C4499 1.403 . S
H4497 C4503 0.930 . S
C4498 H4484 0.930 . S
C4498 C4496 1.395 . S
C4498 C4501 1.403 . S
C4499 C4496 1.403 . S
C4499 C4500 1.524 . S
C4499 C4503 1.400 . S
C4500 H4485 0.960 . S
C4500 H4486 0.960 . S
C4500 H4487 0.960 . S
C4500 C4499 1.524 . S
C4501 C4498 1.403 . S
C4501 C4502 1.392 . S
C4501 C4505 1.495 . S
C4502 C4501 1.392 . S
C4502 C4503 1.385 . S
C4502 C4504 1.478 . S
C4503 H4497 0.930 . S
C4503 C4499 1.400 . S
C4503 C4502 1.385 . S
C4504 C4502 1.478 . S
C4504 C4506 1.381 . S
C4504 C4510 1.383 . S
C4505 C4501 1.495 . S
C4505 H4511 0.959 . S
C4505 H4512 0.961 . S
C4505 H4513 0.960 . S
C4506 C4504 1.381 . S
C4506 C4507 1.394 . S
C4506 H4514 0.930 . S
C4507 C4506 1.394 . S
C4507 C4508 1.383 . S
C4507 H4515 0.929 . S
C4508 C4507 1.383 . S
C4508 C4509 1.377 . S
C4509 H4493 0.930 . S
C4509 C4508 1.377 . S
C4509 C4510 1.379 . S
C4510 H4494 0.931 . S
C4510 C4504 1.383 . S
C4510 C4509 1.379 . S
H4511 C4505 0.959 . S
H4512 C4505 0.961 . S
H4513 C4505 0.960 . S
H4514 C4506 0.930 . S
H4515 C4507 0.929 . S
H4516 C4524 0.929 . S
H4517 C4526 0.930 . S
H4518 C4528 0.930 . S
H4519 C4531 0.929 . S
H4520 C4534 0.930 . S
H4521 C4536 0.960 . S
H4522 C4536 0.960 . S
H4523 C4536 0.960 . S
C4524 H4516 0.929 . S
C4524 C4525 1.377 . S
C4524 C4526 1.384 . S
C4525 C4524 1.377 . S
C4525 C4531 1.390 . S
C4526 H4517 0.930 . S
C4526 C4524 1.384 . S
C4526 C4527 1.372 . S
C4527 C4526 1.372 . S
C4527 C4528 1.400 . S
C4527 C4532 1.490 . S
C4528 H4518 0.930 . S
C4528 C4527 1.400 . S
C4528 C4531 1.386 . S
H4529 C4545 0.930 . S
H4530 C4546 0.931 . S
C4531 H4519 0.929 . S
C4531 C4525 1.390 . S
C4531 C4528 1.386 . S
C4532 C4527 1.490 . S
C4532 C4534 1.395 . S
C4532 C4535 1.403 . S
H4533 C4539 0.930 . S
C4534 H4520 0.930 . S
C4534 C4532 1.395 . S
C4534 C4537 1.403 . S
C4535 C4532 1.403 . S
C4535 C4536 1.524 . S
C4535 C4539 1.400 . S
C4536 H4521 0.960 . S
C4536 H4522 0.960 . S
C4536 H4523 0.960 . S
C4536 C4535 1.524 . S
C4537 C4534 1.403 . S
C4537 C4538 1.392 . S
C4537 C4541 1.495 . S
C4538 C4537 1.392 . S
C4538 C4539 1.385 . S
C4538 C4540 1.478 . S
C4539 H4533 0.930 . S
C4539 C4535 1.400 . S
C4539 C4538 1.385 . S
C4540 C4538 1.478 . S
C4540 C4542 1.381 . S
C4540 C4546 1.383 . S
C4541 C4537 1.495 . S
C4541 H4547 0.959 . S
C4541 H4548 0.961 . S
C4541 H4549 0.960 . S
C4542 C4540 1.381 . S
C4542 C4543 1.394 . S
C4542 H4550 0.930 . S
C4543 C4542 1.394 . S
C4543 C4544 1.383 . S
C4543 H4551 0.929 . S
C4544 C4543 1.383 . S
C4544 C4545 1.377 . S
C4545 H4529 0.930 . S
C4545 C4544 1.377 . S
C4545 C4546 1.379 . S
C4546 H4530 0.931 . S
C4546 C4540 1.383 . S
C4546 C4545 1.379 . S
H4547 C4541 0.959 . S
H4548 C4541 0.961 . S
H4549 C4541 0.960 . S
H4550 C4542 0.930 . S
H4551 C4543 0.929 . S
H4552 C4560 0.929 . S
H4553 C4562 0.930 . S
H4554 C4564 0.930 . S
H4555 C4567 0.929 . S
H4556 C4570 0.930 . S
H4557 C4572 0.960 . S
H4558 C4572 0.960 . S
H4559 C4572 0.960 . S
C4560 H4552 0.929 . S
C4560 C4561 1.377 . S
C4560 C4562 1.384 . S
C4561 C4560 1.377 . S
C4561 C4567 1.390 . S
C4562 H4553 0.930 . S
C4562 C4560 1.384 . S
C4562 C4563 1.372 . S
C4563 C4562 1.372 . S
C4563 C4564 1.400 . S
C4563 C4568 1.490 . S
C4564 H4554 0.930 . S
C4564 C4563 1.400 . S
C4564 C4567 1.386 . S
H4565 C4581 0.930 . S
H4566 C4582 0.931 . S
C4567 H4555 0.929 . S
C4567 C4561 1.390 . S
C4567 C4564 1.386 . S
C4568 C4563 1.490 . S
C4568 C4570 1.395 . S
C4568 C4571 1.403 . S
H4569 C4575 0.930 . S
C4570 H4556 0.930 . S
C4570 C4568 1.395 . S
C4570 C4573 1.403 . S
C4571 C4568 1.403 . S
C4571 C4572 1.524 . S
C4571 C4575 1.400 . S
C4572 H4557 0.960 . S
C4572 H4558 0.960 . S
C4572 H4559 0.960 . S
C4572 C4571 1.524 . S
C4573 C4570 1.403 . S
C4573 C4574 1.392 . S
C4573 C4577 1.495 . S
C4574 C4573 1.392 . S
C4574 C4575 1.385 . S
C4574 C4576 1.478 . S
C4575 H4569 0.930 . S
C4575 C4571 1.400 . S
C4575 C4574 1.385 . S
C4576 C4574 1.478 . S
C4576 C4578 1.381 . S
C4576 C4582 1.383 . S
C4577 C4573 1.495 . S
C4577 H4583 0.959 . S
C4577 H4584 0.961 . S
C4577 H4585 0.960 . S
C4578 C4576 1.381 . S
C4578 C4579 1.394 . S
C4578 H4586 0.930 . S
C4579 C4578 1.394 . S
C4579 C4580 1.383 . S
C4579 H4587 0.929 . S
C4580 C4579 1.383 . S
C4580 C4581 1.377 . S
C4581 H4565 0.930 . S
C4581 C4580 1.377 . S
C4581 C4582 1.379 . S
C4582 H4566 0.931 . S
C4582 C4576 1.383 . S
C4582 C4581 1.379 . S
H4583 C4577 0.959 . S
H4584 C4577 0.961 . S
H4585 C4577 0.960 . S
H4586 C4578 0.930 . S
H4587 C4579 0.929 . S
H4588 C4596 0.929 . S
H4589 C4598 0.930 . S
H4590 C4600 0.930 . S
H4591 C4603 0.929 . S
H4592 C4606 0.930 . S
H4593 C4608 0.960 . S
H4594 C4608 0.960 . S
H4595 C4608 0.960 . S
C4596 H4588 0.929 . S
C4596 C4597 1.377 . S
C4596 C4598 1.384 . S
C4597 C4596 1.377 . S
C4597 C4603 1.390 . S
C4598 H4589 0.930 . S
C4598 C4596 1.384 . S
C4598 C4599 1.372 . S
C4599 C4598 1.372 . S
C4599 C4600 1.400 . S
C4599 C4604 1.490 . S
C4600 H4590 0.930 . S
C4600 C4599 1.400 . S
C4600 C4603 1.386 . S
H4601 C4617 0.930 . S
H4602 C4618 0.931 . S
C4603 H4591 0.929 . S
C4603 C4597 1.390 . S
C4603 C4600 1.386 . S
C4604 C4599 1.490 . S
C4604 C4606 1.395 . S
C4604 C4607 1.403 . S
H4605 C4611 0.930 . S
C4606 H4592 0.930 . S
C4606 C4604 1.395 . S
C4606 C4609 1.403 . S
C4607 C4604 1.403 . S
C4607 C4608 1.524 . S
C4607 C4611 1.400 . S
C4608 H4593 0.960 . S
C4608 H4594 0.960 . S
C4608 H4595 0.960 . S
C4608 C4607 1.524 . S
C4609 C4606 1.403 . S
C4609 C4610 1.392 . S
C4609 C4613 1.495 . S
C4610 C4609 1.392 . S
C4610 C4611 1.385 . S
C4610 C4612 1.478 . S
C4611 H4605 0.930 . S
C4611 C4607 1.400 . S
C4611 C4610 1.385 . S
C4612 C4610 1.478 . S
C4612 C4614 1.381 . S
C4612 C4618 1.383 . S
C4613 C4609 1.495 . S
C4613 H4619 0.959 . S
C4613 H4620 0.961 . S
C4613 H4621 0.960 . S
C4614 C4612 1.381 . S
C4614 C4615 1.394 . S
C4614 H4622 0.930 . S
C4615 C4614 1.394 . S
C4615 C4616 1.383 . S
C4615 H4623 0.929 . S
C4616 C4615 1.383 . S
C4616 C4617 1.377 . S
C4617 H4601 0.930 . S
C4617 C4616 1.377 . S
C4617 C4618 1.379 . S
C4618 H4602 0.931 . S
C4618 C4612 1.383 . S
C4618 C4617 1.379 . S
H4619 C4613 0.959 . S
H4620 C4613 0.961 . S
H4621 C4613 0.960 . S
H4622 C4614 0.930 . S
H4623 C4615 0.929 . S
H4624 C4632 0.929 . S
H4625 C4634 0.930 . S
H4626 C4636 0.930 . S
H4627 C4639 0.929 . S
H4628 C4642 0.930 . S
H4629 C4644 0.960 . S
H4630 C4644 0.960 . S
H4631 C4644 0.960 . S
C4632 H4624 0.929 . S
C4632 C4633 1.377 . S
C4632 C4634 1.384 . S
C4633 C4632 1.377 . S
C4633 C4639 1.390 . S
C4634 H4625 0.930 . S
C4634 C4632 1.384 . S
C4634 C4635 1.372 . S
C4635 C4634 1.372 . S
C4635 C4636 1.400 . S
C4635 C4640 1.490 . S
C4636 H4626 0.930 . S
C4636 C4635 1.400 . S
C4636 C4639 1.386 . S
H4637 C4653 0.930 . S
H4638 C4654 0.931 . S
C4639 H4627 0.929 . S
C4639 C4633 1.390 . S
C4639 C4636 1.386 . S
C4640 C4635 1.490 . S
C4640 C4642 1.395 . S
C4640 C4643 1.403 . S
H4641 C4647 0.930 . S
C4642 H4628 0.930 . S
C4642 C4640 1.395 . S
C4642 C4645 1.403 . S
C4643 C4640 1.403 . S
C4643 C4644 1.524 . S
C4643 C4647 1.400 . S
C4644 H4629 0.960 . S
C4644 H4630 0.960 . S
C4644 H4631 0.960 . S
C4644 C4643 1.524 . S
C4645 C4642 1.403 . S
C4645 C4646 1.392 . S
C4645 C4649 1.495 . S
C4646 C4645 1.392 . S
C4646 C4647 1.385 . S
C4646 C4648 1.478 . S
C4647 H4641 0.930 . S
C4647 C4643 1.400 . S
C4647 C4646 1.385 . S
C4648 C4646 1.478 . S
C4648 C4650 1.381 . S
C4648 C4654 1.383 . S
C4649 C4645 1.495 . S
C4649 H4655 0.959 . S
C4649 H4656 0.961 . S
C4649 H4657 0.960 . S
C4650 C4648 1.381 . S
C4650 C4651 1.394 . S
C4650 H4658 0.930 . S
C4651 C4650 1.394 . S
C4651 C4652 1.383 . S
C4651 H4659 0.929 . S
C4652 C4651 1.383 . S
C4652 C4653 1.377 . S
C4653 H4637 0.930 . S
C4653 C4652 1.377 . S
C4653 C4654 1.379 . S
C4654 H4638 0.931 . S
C4654 C4648 1.383 . S
C4654 C4653 1.379 . S
H4655 C4649 0.959 . S
H4656 C4649 0.961 . S
H4657 C4649 0.960 . S
H4658 C4650 0.930 . S
H4659 C4651 0.929 . S
H4660 C4668 0.929 . S
H4661 C4670 0.930 . S
H4662 C4672 0.930 . S
H4663 C4675 0.929 . S
H4664 C4678 0.930 . S
H4665 C4680 0.960 . S
H4666 C4680 0.960 . S
H4667 C4680 0.960 . S
C4668 H4660 0.929 . S
C4668 C4669 1.377 . S
C4668 C4670 1.384 . S
C4669 C4668 1.377 . S
C4669 C4675 1.390 . S
C4670 H4661 0.930 . S
C4670 C4668 1.384 . S
C4670 C4671 1.372 . S
C4671 C4670 1.372 . S
C4671 C4672 1.400 . S
C4671 C4676 1.490 . S
C4672 H4662 0.930 . S
C4672 C4671 1.400 . S
C4672 C4675 1.386 . S
H4673 C4689 0.930 . S
H4674 C4690 0.931 . S
C4675 H4663 0.929 . S
C4675 C4669 1.390 . S
C4675 C4672 1.386 . S
C4676 C4671 1.490 . S
C4676 C4678 1.395 . S
C4676 C4679 1.403 . S
H4677 C4683 0.930 . S
C4678 H4664 0.930 . S
C4678 C4676 1.395 . S
C4678 C4681 1.403 . S
C4679 C4676 1.403 . S
C4679 C4680 1.524 . S
C4679 C4683 1.400 . S
C4680 H4665 0.960 . S
C4680 H4666 0.960 . S
C4680 H4667 0.960 . S
C4680 C4679 1.524 . S
C4681 C4678 1.403 . S
C4681 C4682 1.392 . S
C4681 C4685 1.495 . S
C4682 C4681 1.392 . S
C4682 C4683 1.385 . S
C4682 C4684 1.478 . S
C4683 H4677 0.930 . S
C4683 C4679 1.400 . S
C4683 C4682 1.385 . S
C4684 C4682 1.478 . S
C4684 C4686 1.381 . S
C4684 C4690 1.383 . S
C4685 C4681 1.495 . S
C4685 H4691 0.959 . S
C4685 H4692 0.961 . S
C4685 H4693 0.960 . S
C4686 C4684 1.381 . S
C4686 C4687 1.394 . S
C4686 H4694 0.930 . S
C4687 C4686 1.394 . S
C4687 C4688 1.383 . S
C4687 H4695 0.929 . S
C4688 C4687 1.383 . S
C4688 C4689 1.377 . S
C4689 H4673 0.930 . S
C4689 C4688 1.377 . S
C4689 C4690 1.379 . S
C4690 H4674 0.931 . S
C4690 C4684 1.383 . S
C4690 C4689 1.379 . S
H4691 C4685 0.959 . S
H4692 C4685 0.961 . S
H4693 C4685 0.960 . S
H4694 C4686 0.930 . S
H4695 C4687 0.929 . S
H4696 C4704 0.929 . S
H4697 C4706 0.930 . S
H4698 C4708 0.930 . S
H4699 C4711 0.929 . S
H4700 C4714 0.930 . S
H4701 C4716 0.960 . S
H4702 C4716 0.960 . S
H4703 C4716 0.960 . S
C4704 H4696 0.929 . S
C4704 C4705 1.377 . S
C4704 C4706 1.384 . S
C4705 C4704 1.377 . S
C4705 C4711 1.390 . S
C4706 H4697 0.930 . S
C4706 C4704 1.384 . S
C4706 C4707 1.372 . S
C4707 C4706 1.372 . S
C4707 C4708 1.400 . S
C4707 C4712 1.490 . S
C4708 H4698 0.930 . S
C4708 C4707 1.400 . S
C4708 C4711 1.386 . S
H4709 C4725 0.930 . S
H4710 C4726 0.931 . S
C4711 H4699 0.929 . S
C4711 C4705 1.390 . S
C4711 C4708 1.386 . S
C4712 C4707 1.490 . S
C4712 C4714 1.395 . S
C4712 C4715 1.403 . S
H4713 C4719 0.930 . S
C4714 H4700 0.930 . S
C4714 C4712 1.395 . S
C4714 C4717 1.403 . S
C4715 C4712 1.403 . S
C4715 C4716 1.524 . S
C4715 C4719 1.400 . S
C4716 H4701 0.960 . S
C4716 H4702 0.960 . S
C4716 H4703 0.960 . S
C4716 C4715 1.524 . S
C4717 C4714 1.403 . S
C4717 C4718 1.392 . S
C4717 C4721 1.495 . S
C4718 C4717 1.392 . S
C4718 C4719 1.385 . S
C4718 C4720 1.478 . S
C4719 H4713 0.930 . S
C4719 C4715 1.400 . S
C4719 C4718 1.385 . S
C4720 C4718 1.478 . S
C4720 C4722 1.381 . S
C4720 C4726 1.383 . S
C4721 C4717 1.495 . S
C4721 H4727 0.959 . S
C4721 H4728 0.961 . S
C4721 H4729 0.960 . S
C4722 C4720 1.381 . S
C4722 C4723 1.394 . S
C4722 H4730 0.930 . S
C4723 C4722 1.394 . S
C4723 C4724 1.383 . S
C4723 H4731 0.929 . S
C4724 C4723 1.383 . S
C4724 C4725 1.377 . S
C4725 H4709 0.930 . S
C4725 C4724 1.377 . S
C4725 C4726 1.379 . S
C4726 H4710 0.931 . S
C4726 C4720 1.383 . S
C4726 C4725 1.379 . S
H4727 C4721 0.959 . S
H4728 C4721 0.961 . S
H4729 C4721 0.960 . S
H4730 C4722 0.930 . S
H4731 C4723 0.929 . S
H4732 C4740 0.929 . S
H4733 C4742 0.930 . S
H4734 C4744 0.930 . S
H4735 C4747 0.929 . S
H4736 C4750 0.930 . S
H4737 C4752 0.960 . S
H4738 C4752 0.960 . S
H4739 C4752 0.960 . S
C4740 H4732 0.929 . S
C4740 C4741 1.377 . S
C4740 C4742 1.384 . S
C4741 C4740 1.377 . S
C4741 C4747 1.390 . S
C4742 H4733 0.930 . S
C4742 C4740 1.384 . S
C4742 C4743 1.372 . S
C4743 C4742 1.372 . S
C4743 C4744 1.400 . S
C4743 C4748 1.490 . S
C4744 H4734 0.930 . S
C4744 C4743 1.400 . S
C4744 C4747 1.386 . S
H4745 C4761 0.930 . S
H4746 C4762 0.931 . S
C4747 H4735 0.929 . S
C4747 C4741 1.390 . S
C4747 C4744 1.386 . S
C4748 C4743 1.490 . S
C4748 C4750 1.395 . S
C4748 C4751 1.403 . S
H4749 C4755 0.930 . S
C4750 H4736 0.930 . S
C4750 C4748 1.395 . S
C4750 C4753 1.403 . S
C4751 C4748 1.403 . S
C4751 C4752 1.524 . S
C4751 C4755 1.400 . S
C4752 H4737 0.960 . S
C4752 H4738 0.960 . S
C4752 H4739 0.960 . S
C4752 C4751 1.524 . S
C4753 C4750 1.403 . S
C4753 C4754 1.392 . S
C4753 C4757 1.495 . S
C4754 C4753 1.392 . S
C4754 C4755 1.385 . S
C4754 C4756 1.478 . S
C4755 H4749 0.930 . S
C4755 C4751 1.400 . S
C4755 C4754 1.385 . S
C4756 C4754 1.478 . S
C4756 C4758 1.381 . S
C4756 C4762 1.383 . S
C4757 C4753 1.495 . S
C4757 H4763 0.959 . S
C4757 H4764 0.961 . S
C4757 H4765 0.960 . S
C4758 C4756 1.381 . S
C4758 C4759 1.394 . S
C4758 H4766 0.930 . S
C4759 C4758 1.394 . S
C4759 C4760 1.383 . S
C4759 H4767 0.929 . S
C4760 C4759 1.383 . S
C4760 C4761 1.377 . S
C4761 H4745 0.930 . S
C4761 C4760 1.377 . S
C4761 C4762 1.379 . S
C4762 H4746 0.931 . S
C4762 C4756 1.383 . S
C4762 C4761 1.379 . S
H4763 C4757 0.959 . S
H4764 C4757 0.961 . S
H4765 C4757 0.960 . S
H4766 C4758 0.930 . S
H4767 C4759 0.929 . S
H4768 C4776 0.929 . S
H4769 C4778 0.930 . S
H4770 C4780 0.930 . S
H4771 C4783 0.929 . S
H4772 C4786 0.930 . S
H4773 C4788 0.960 . S
H4774 C4788 0.960 . S
H4775 C4788 0.960 . S
C4776 H4768 0.929 . S
C4776 C4777 1.377 . S
C4776 C4778 1.384 . S
C4777 C4776 1.377 . S
C4777 C4783 1.390 . S
C4778 H4769 0.930 . S
C4778 C4776 1.384 . S
C4778 C4779 1.372 . S
C4779 C4778 1.372 . S
C4779 C4780 1.400 . S
C4779 C4784 1.490 . S
C4780 H4770 0.930 . S
C4780 C4779 1.400 . S
C4780 C4783 1.386 . S
H4781 C4797 0.930 . S
H4782 C4798 0.931 . S
C4783 H4771 0.929 . S
C4783 C4777 1.390 . S
C4783 C4780 1.386 . S
C4784 C4779 1.490 . S
C4784 C4786 1.395 . S
C4784 C4787 1.403 . S
H4785 C4791 0.930 . S
C4786 H4772 0.930 . S
C4786 C4784 1.395 . S
C4786 C4789 1.403 . S
C4787 C4784 1.403 . S
C4787 C4788 1.524 . S
C4787 C4791 1.400 . S
C4788 H4773 0.960 . S
C4788 H4774 0.960 . S
C4788 H4775 0.960 . S
C4788 C4787 1.524 . S
C4789 C4786 1.403 . S
C4789 C4790 1.392 . S
C4789 C4793 1.495 . S
C4790 C4789 1.392 . S
C4790 C4791 1.385 . S
C4790 C4792 1.478 . S
C4791 H4785 0.930 . S
C4791 C4787 1.400 . S
C4791 C4790 1.385 . S
C4792 C4790 1.478 . S
C4792 C4794 1.381 . S
C4792 C4798 1.383 . S
C4793 C4789 1.495 . S
C4793 H4799 0.959 . S
C4793 H4800 0.961 . S
C4793 H4801 0.960 . S
C4794 C4792 1.381 . S
C4794 C4795 1.394 . S
C4794 H4802 0.930 . S
C4795 C4794 1.394 . S
C4795 C4796 1.383 . S
C4795 H4803 0.929 . S
C4796 C4795 1.383 . S
C4796 C4797 1.377 . S
C4797 H4781 0.930 . S
C4797 C4796 1.377 . S
C4797 C4798 1.379 . S
C4798 H4782 0.931 . S
C4798 C4792 1.383 . S
C4798 C4797 1.379 . S
H4799 C4793 0.959 . S
H4800 C4793 0.961 . S
H4801 C4793 0.960 . S
H4802 C4794 0.930 . S
H4803 C4795 0.929 . S
H4804 C4812 0.929 . S
H4805 C4814 0.930 . S
H4806 C4816 0.930 . S
H4807 C4819 0.929 . S
H4808 C4822 0.930 . S
H4809 C4824 0.960 . S
H4810 C4824 0.960 . S
H4811 C4824 0.960 . S
C4812 H4804 0.929 . S
C4812 C4813 1.377 . S
C4812 C4814 1.384 . S
C4813 C4812 1.377 . S
C4813 C4819 1.390 . S
C4814 H4805 0.930 . S
C4814 C4812 1.384 . S
C4814 C4815 1.372 . S
C4815 C4814 1.372 . S
C4815 C4816 1.400 . S
C4815 C4820 1.490 . S
C4816 H4806 0.930 . S
C4816 C4815 1.400 . S
C4816 C4819 1.386 . S
H4817 C4833 0.930 . S
H4818 C4834 0.931 . S
C4819 H4807 0.929 . S
C4819 C4813 1.390 . S
C4819 C4816 1.386 . S
C4820 C4815 1.490 . S
C4820 C4822 1.395 . S
C4820 C4823 1.403 . S
H4821 C4827 0.930 . S
C4822 H4808 0.930 . S
C4822 C4820 1.395 . S
C4822 C4825 1.403 . S
C4823 C4820 1.403 . S
C4823 C4824 1.524 . S
C4823 C4827 1.400 . S
C4824 H4809 0.960 . S
C4824 H4810 0.960 . S
C4824 H4811 0.960 . S
C4824 C4823 1.524 . S
C4825 C4822 1.403 . S
C4825 C4826 1.392 . S
C4825 C4829 1.495 . S
C4826 C4825 1.392 . S
C4826 C4827 1.385 . S
C4826 C4828 1.478 . S
C4827 H4821 0.930 . S
C4827 C4823 1.400 . S
C4827 C4826 1.385 . S
C4828 C4826 1.478 . S
C4828 C4830 1.381 . S
C4828 C4834 1.383 . S
C4829 C4825 1.495 . S
C4829 H4835 0.959 . S
C4829 H4836 0.961 . S
C4829 H4837 0.960 . S
C4830 C4828 1.381 . S
C4830 C4831 1.394 . S
C4830 H4838 0.930 . S
C4831 C4830 1.394 . S
C4831 C4832 1.383 . S
C4831 H4839 0.929 . S
C4832 C4831 1.383 . S
C4832 C4833 1.377 . S
C4833 H4817 0.930 . S
C4833 C4832 1.377 . S
C4833 C4834 1.379 . S
C4834 H4818 0.931 . S
C4834 C4828 1.383 . S
C4834 C4833 1.379 . S
H4835 C4829 0.959 . S
H4836 C4829 0.961 . S
H4837 C4829 0.960 . S
H4838 C4830 0.930 . S
H4839 C4831 0.929 . S
H4840 C4848 0.929 . S
H4841 C4850 0.930 . S
H4842 C4852 0.930 . S
H4843 C4855 0.929 . S
H4844 C4858 0.930 . S
H4845 C4860 0.960 . S
H4846 C4860 0.960 . S
H4847 C4860 0.960 . S
C4848 H4840 0.929 . S
C4848 C4849 1.377 . S
C4848 C4850 1.384 . S
C4849 C4848 1.377 . S
C4849 C4855 1.390 . S
C4850 H4841 0.930 . S
C4850 C4848 1.384 . S
C4850 C4851 1.372 . S
C4851 C4850 1.372 . S
C4851 C4852 1.400 . S
C4851 C4856 1.490 . S
C4852 H4842 0.930 . S
C4852 C4851 1.400 . S
C4852 C4855 1.386 . S
H4853 C4869 0.930 . S
H4854 C4870 0.931 . S
C4855 H4843 0.929 . S
C4855 C4849 1.390 . S
C4855 C4852 1.386 . S
C4856 C4851 1.490 . S
C4856 C4858 1.395 . S
C4856 C4859 1.403 . S
H4857 C4863 0.930 . S
C4858 H4844 0.930 . S
C4858 C4856 1.395 . S
C4858 C4861 1.403 . S
C4859 C4856 1.403 . S
C4859 C4860 1.524 . S
C4859 C4863 1.400 . S
C4860 H4845 0.960 . S
C4860 H4846 0.960 . S
C4860 H4847 0.960 . S
C4860 C4859 1.524 . S
C4861 C4858 1.403 . S
C4861 C4862 1.392 . S
C4861 C4865 1.495 . S
C4862 C4861 1.392 . S
C4862 C4863 1.385 . S
C4862 C4864 1.478 . S
C4863 H4857 0.930 . S
C4863 C4859 1.400 . S
C4863 C4862 1.385 . S
C4864 C4862 1.478 . S
C4864 C4866 1.381 . S
C4864 C4870 1.383 . S
C4865 C4861 1.495 . S
C4865 H4871 0.959 . S
C4865 H4872 0.961 . S
C4865 H4873 0.960 . S
C4866 C4864 1.381 . S
C4866 C4867 1.394 . S
C4866 H4874 0.930 . S
C4867 C4866 1.394 . S
C4867 C4868 1.383 . S
C4867 H4875 0.929 . S
C4868 C4867 1.383 . S
C4868 C4869 1.377 . S
C4869 H4853 0.930 . S
C4869 C4868 1.377 . S
C4869 C4870 1.379 . S
C4870 H4854 0.931 . S
C4870 C4864 1.383 . S
C4870 C4869 1.379 . S
H4871 C4865 0.959 . S
H4872 C4865 0.961 . S
H4873 C4865 0.960 . S
H4874 C4866 0.930 . S
H4875 C4867 0.929 . S
H4876 C4884 0.929 . S
H4877 C4886 0.930 . S
H4878 C4888 0.930 . S
H4879 C4891 0.929 . S
H4880 C4894 0.930 . S
H4881 C4896 0.960 . S
H4882 C4896 0.960 . S
H4883 C4896 0.960 . S
C4884 H4876 0.929 . S
C4884 C4885 1.377 . S
C4884 C4886 1.384 . S
C4885 C4884 1.377 . S
C4885 C4891 1.390 . S
C4886 H4877 0.930 . S
C4886 C4884 1.384 . S
C4886 C4887 1.372 . S
C4887 C4886 1.372 . S
C4887 C4888 1.400 . S
C4887 C4892 1.490 . S
C4888 H4878 0.930 . S
C4888 C4887 1.400 . S
C4888 C4891 1.386 . S
H4889 C4905 0.930 . S
H4890 C4906 0.931 . S
C4891 H4879 0.929 . S
C4891 C4885 1.390 . S
C4891 C4888 1.386 . S
C4892 C4887 1.490 . S
C4892 C4894 1.395 . S
C4892 C4895 1.403 . S
H4893 C4899 0.930 . S
C4894 H4880 0.930 . S
C4894 C4892 1.395 . S
C4894 C4897 1.403 . S
C4895 C4892 1.403 . S
C4895 C4896 1.524 . S
C4895 C4899 1.400 . S
C4896 H4881 0.960 . S
C4896 H4882 0.960 . S
C4896 H4883 0.960 . S
C4896 C4895 1.524 . S
C4897 C4894 1.403 . S
C4897 C4898 1.392 . S
C4897 C4901 1.495 . S
C4898 C4897 1.392 . S
C4898 C4899 1.385 . S
C4898 C4900 1.478 . S
C4899 H4893 0.930 . S
C4899 C4895 1.400 . S
C4899 C4898 1.385 . S
C4900 C4898 1.478 . S
C4900 C4902 1.381 . S
C4900 C4906 1.383 . S
C4901 C4897 1.495 . S
C4901 H4907 0.959 . S
C4901 H4908 0.961 . S
C4901 H4909 0.960 . S
C4902 C4900 1.381 . S
C4902 C4903 1.394 . S
C4902 H4910 0.930 . S
C4903 C4902 1.394 . S
C4903 C4904 1.383 . S
C4903 H4911 0.929 . S
C4904 C4903 1.383 . S
C4904 C4905 1.377 . S
C4905 H4889 0.930 . S
C4905 C4904 1.377 . S
C4905 C4906 1.379 . S
C4906 H4890 0.931 . S
C4906 C4900 1.383 . S
C4906 C4905 1.379 . S
H4907 C4901 0.959 . S
H4908 C4901 0.961 . S
H4909 C4901 0.960 . S
H4910 C4902 0.930 . S
H4911 C4903 0.929 . S
C1484 C353 2.117 . S
C1465 C7 2.029 . S
C1520 C420 1.272 . S
C1501 C19 1.261 . S
C1537 C29 1.896 . S
C1556 C445 1.919 . S
C1592 C505 1.018 . S
C1573 C41 1.009 . S
C1609 C52 1.389 . S
C1628 C498 1.390 . S
C1645 C62 1.637 . S
C1664 C374 1.683 . S
C1681 C73 1.026 . S
C1700 C399 1.058 . S
C1736 C466 1.894 . S
C1717 C82 1.656 . S
C1772 C558 1.949 . S
C1753 C5 1.686 . S
C1789 C16 1.431 . S
C1808 C597 1.627 . S
C1825 C30 1.789 . S
C1844 C650 1.780 . S
C1880 C675 1.121 . S
C1861 C40 1.105 . S
C1897 C49 1.238 . S
C1916 C735 1.383 . S
C1952 C788 1.491 . S
C1933 C63 1.501 . S
C1969 C74 0.976 . S
C1988 C827 1.059 . S
C2024 C866 1.636 . S
C2005 C85 1.625 . S
C2041 C8 1.681 . S
C2060 C696 1.695 . S
C2077 C51 1.613 . S
C2096 C767 1.658 . S
C2132 C820 1.895 . S
C2113 C60 1.716 . S
C2149 C71 1.034 . S
C2168 C873 1.218 . S
C2204 C728 2.204 . S
C2185 C84 2.114 . S
C2240 C590 1.544 . S
C2221 C27 1.361 . S
C2257 C38 1.092 . S
C2276 C629 1.229 . S
C2312 C537 1.705 . S
C2293 C18 1.647 . S
C2348 C905 2.118 . S
C2329 C95 2.036 . S
C2365 C107 1.262 . S
C2384 C951 1.250 . S
C2401 C117 1.896 . S
C2420 C1018 1.924 . S
C2456 C1064 1.017 . S
C2437 C129 1.009 . S
C2473 C140 1.390 . S
C2492 C1043 1.383 . S
C2509 C150 1.634 . S
C2528 C926 1.681 . S
C2545 C161 1.030 . S
C2564 C972 1.070 . S
C2581 C170 1.656 . S
C2600 C997 1.888 . S
C2636 C742 1.943 . S
C2617 C93 1.691 . S
C2653 C104 1.443 . S
C2672 C1103 1.622 . S
C2708 C834 1.783 . S
C2689 C118 1.790 . S
C2725 C128 1.107 . S
C2744 C1135 1.116 . S
C2761 C137 1.220 . S
C2780 C551 1.376 . S
C2816 C1202 1.492 . S
C2797 C151 1.501 . S
C2833 C162 0.966 . S
C2852 C643 1.012 . S
C2888 C1234 1.642 . S
C2869 C173 1.625 . S
C2905 C96 1.682 . S
C2924 C1156 1.698 . S
C2960 C1181 1.661 . S
C2941 C139 1.620 . S
C2977 C148 1.701 . S
C2996 C636 1.906 . S
C3032 C1241 1.235 . S
C3013 C159 1.028 . S
C3049 C172 2.122 . S
C3068 C544 2.206 . S
C3085 C115 1.372 . S
C3104 C1096 1.537 . S
C3121 C126 1.092 . S
C3140 C813 1.188 . S
C3157 C106 1.652 . S
C3176 C721 1.704 . S
C3193 C183 2.037 . S
C3212 C1011 2.127 . S
C3248 C1057 1.274 . S
C3229 C195 1.264 . S
C3265 C205 1.896 . S
C3284 C912 1.920 . S
C3301 C217 1.011 . S
C3320 C958 0.986 . S
C3337 C228 1.390 . S
C3356 C965 1.388 . S
C3373 C238 1.643 . S
C3392 C1004 1.690 . S
C3428 C1050 1.058 . S
C3409 C249 1.026 . S
C3445 C258 1.643 . S
C3464 C919 1.894 . S
C3500 C1273 1.939 . S
C3481 C181 1.695 . S
C3517 C192 1.445 . S
C3536 C781 1.623 . S
C3572 C1319 1.774 . S
C3553 C206 1.788 . S
C3589 C216 1.110 . S
C3608 C859 1.090 . S
C3625 C225 1.231 . S
C3644 C1386 1.390 . S
C3661 C239 1.502 . S
C3680 C604 1.505 . S
C3716 C1418 0.988 . S
C3697 C250 0.979 . S
C3733 C261 1.627 . S
C3752 C682 1.634 . S
C3788 C880 1.701 . S
C3769 C184 1.684 . S
C3824 C583 1.659 . S
C3805 C227 1.616 . S
C3841 C236 1.701 . S
C3860 C1425 1.900 . S
C3877 C247 1.055 . S
C3896 C689 1.230 . S
C3932 C1365 2.212 . S
C3913 C260 2.120 . S
C3968 C774 1.539 . S
C3949 C203 1.370 . S
C4004 C1340 1.229 . S
C3985 C214 1.080 . S
C4040 C1294 1.700 . S
C4021 C194 1.645 . S
C4057 C271 2.034 . S
C4076 C452 2.116 . S
C4093 C283 1.264 . S
C4112 C512 1.258 . S
C4148 C360 1.921 . S
C4129 C293 1.902 . S
C4184 C413 1.010 . S
C4165 C305 1.009 . S
C4220 C406 1.393 . S
C4201 C316 1.391 . S
C4256 C459 1.688 . S
C4237 C326 1.643 . S
C4292 C491 1.077 . S
C4273 C337 1.033 . S
C4309 C346 1.644 . S
C4328 C367 1.899 . S
C4345 C269 1.690 . S
C4364 C1379 1.948 . S
C4400 C1195 1.627 . S
C4381 C280 1.431 . S
C4436 C1411 1.776 . S
C4417 C294 1.788 . S
C4472 C1227 1.120 . S
C4453 C304 1.106 . S
C4489 C313 1.226 . S
C4508 C1280 1.386 . S
C4544 C1110 1.482 . S
C4525 C327 1.502 . S
C4580 C1326 0.965 . S
C4561 C338 0.968 . S
C4597 C349 1.624 . S
C4616 C1142 1.640 . S
C4652 C1248 1.693 . S
C4633 C272 1.681 . S
C4688 C1089 1.662 . S
C4669 C315 1.622 . S
C4724 C1333 1.891 . S
C4705 C324 1.715 . S
C4741 C335 1.031 . S
C4760 C1149 1.221 . S
C4777 C348 2.113 . S
C4796 C1287 2.212 . S
C4813 C291 1.373 . S
C4832 C1188 1.535 . S
C4849 C302 1.104 . S
C4868 C1432 1.205 . S
C4904 C1372 1.705 . S
C4885 C282 1.652 . S
