# Generated by pormake.
# Topology ctn, (3,4)-cn, num edge types: 1
# Building blocks:
#     Node 0, Type 0, BuildingBlock: VETTIZ_charged_linker_0, # of connection points: 3
#     Node 1, Type 0, BuildingBlock: VETTIZ_charged_linker_0, # of connection points: 3
#     Node 2, Type 0, BuildingBlock: VETTIZ_charged_linker_0, # of connection points: 3
#     Node 3, Type 0, BuildingBlock: VETTIZ_charged_linker_0, # of connection points: 3
#     Node 4, Type 0, BuildingBlock: VETTIZ_charged_linker_0, # of connection points: 3
#     Node 5, Type 0, BuildingBlock: VETTIZ_charged_linker_0, # of connection points: 3
#     Node 6, Type 0, BuildingBlock: VETTIZ_charged_linker_0, # of connection points: 3
#     Node 7, Type 0, BuildingBlock: VETTIZ_charged_linker_0, # of connection points: 3
#     Node 8, Type 0, BuildingBlock: VETTIZ_charged_linker_0, # of connection points: 3
#     Node 9, Type 0, BuildingBlock: VETTIZ_charged_linker_0, # of connection points: 3
#     Node 10, Type 0, BuildingBlock: VETTIZ_charged_linker_0, # of connection points: 3
#     Node 11, Type 0, BuildingBlock: VETTIZ_charged_linker_0, # of connection points: 3
#     Node 12, Type 0, BuildingBlock: VETTIZ_charged_linker_0, # of connection points: 3
#     Node 13, Type 0, BuildingBlock: VETTIZ_charged_linker_0, # of connection points: 3
#     Node 14, Type 0, BuildingBlock: VETTIZ_charged_linker_0, # of connection points: 3
#     Node 15, Type 0, BuildingBlock: VETTIZ_charged_linker_0, # of connection points: 3
#     Node 16, Type 1, BuildingBlock: AZAVOO_clean_sbu_0, # of connection points: 4
#     Node 17, Type 1, BuildingBlock: AZAVOO_clean_sbu_0, # of connection points: 4
#     Node 18, Type 1, BuildingBlock: AZAVOO_clean_sbu_0, # of connection points: 4
#     Node 19, Type 1, BuildingBlock: AZAVOO_clean_sbu_0, # of connection points: 4
#     Node 20, Type 1, BuildingBlock: AZAVOO_clean_sbu_0, # of connection points: 4
#     Node 21, Type 1, BuildingBlock: AZAVOO_clean_sbu_0, # of connection points: 4
#     Node 22, Type 1, BuildingBlock: AZAVOO_clean_sbu_0, # of connection points: 4
#     Node 23, Type 1, BuildingBlock: AZAVOO_clean_sbu_0, # of connection points: 4
#     Node 24, Type 1, BuildingBlock: AZAVOO_clean_sbu_0, # of connection points: 4
#     Node 25, Type 1, BuildingBlock: AZAVOO_clean_sbu_0, # of connection points: 4
#     Node 26, Type 1, BuildingBlock: AZAVOO_clean_sbu_0, # of connection points: 4
#     Node 27, Type 1, BuildingBlock: AZAVOO_clean_sbu_0, # of connection points: 4
#     Edge 28, Type (0, 1), BuildingBlock: XIVTED_clean_linker_0, # of connection points: 2
#     Edge 29, Type (0, 1), BuildingBlock: XIVTED_clean_linker_0, # of connection points: 2
#     Edge 30, Type (0, 1), BuildingBlock: XIVTED_clean_linker_0, # of connection points: 2
#     Edge 31, Type (0, 1), BuildingBlock: XIVTED_clean_linker_0, # of connection points: 2
#     Edge 32, Type (0, 1), BuildingBlock: XIVTED_clean_linker_0, # of connection points: 2
#     Edge 33, Type (0, 1), BuildingBlock: XIVTED_clean_linker_0, # of connection points: 2
#     Edge 34, Type (0, 1), BuildingBlock: XIVTED_clean_linker_0, # of connection points: 2
#     Edge 35, Type (0, 1), BuildingBlock: XIVTED_clean_linker_0, # of connection points: 2
#     Edge 36, Type (0, 1), BuildingBlock: XIVTED_clean_linker_0, # of connection points: 2
#     Edge 37, Type (0, 1), BuildingBlock: XIVTED_clean_linker_0, # of connection points: 2
#     Edge 38, Type (0, 1), BuildingBlock: XIVTED_clean_linker_0, # of connection points: 2
#     Edge 39, Type (0, 1), BuildingBlock: XIVTED_clean_linker_0, # of connection points: 2
#     Edge 40, Type (0, 1), BuildingBlock: XIVTED_clean_linker_0, # of connection points: 2
#     Edge 41, Type (0, 1), BuildingBlock: XIVTED_clean_linker_0, # of connection points: 2
#     Edge 42, Type (0, 1), BuildingBlock: XIVTED_clean_linker_0, # of connection points: 2
#     Edge 43, Type (0, 1), BuildingBlock: XIVTED_clean_linker_0, # of connection points: 2
#     Edge 44, Type (0, 1), BuildingBlock: XIVTED_clean_linker_0, # of connection points: 2
#     Edge 45, Type (0, 1), BuildingBlock: XIVTED_clean_linker_0, # of connection points: 2
#     Edge 46, Type (0, 1), BuildingBlock: XIVTED_clean_linker_0, # of connection points: 2
#     Edge 47, Type (0, 1), BuildingBlock: XIVTED_clean_linker_0, # of connection points: 2
#     Edge 48, Type (0, 1), BuildingBlock: XIVTED_clean_linker_0, # of connection points: 2
#     Edge 49, Type (0, 1), BuildingBlock: XIVTED_clean_linker_0, # of connection points: 2
#     Edge 50, Type (0, 1), BuildingBlock: XIVTED_clean_linker_0, # of connection points: 2
#     Edge 51, Type (0, 1), BuildingBlock: XIVTED_clean_linker_0, # of connection points: 2
#     Edge 52, Type (0, 1), BuildingBlock: XIVTED_clean_linker_0, # of connection points: 2
#     Edge 53, Type (0, 1), BuildingBlock: XIVTED_clean_linker_0, # of connection points: 2
#     Edge 54, Type (0, 1), BuildingBlock: XIVTED_clean_linker_0, # of connection points: 2
#     Edge 55, Type (0, 1), BuildingBlock: XIVTED_clean_linker_0, # of connection points: 2
#     Edge 56, Type (0, 1), BuildingBlock: XIVTED_clean_linker_0, # of connection points: 2
#     Edge 57, Type (0, 1), BuildingBlock: XIVTED_clean_linker_0, # of connection points: 2
#     Edge 58, Type (0, 1), BuildingBlock: XIVTED_clean_linker_0, # of connection points: 2
#     Edge 59, Type (0, 1), BuildingBlock: XIVTED_clean_linker_0, # of connection points: 2
#     Edge 60, Type (0, 1), BuildingBlock: XIVTED_clean_linker_0, # of connection points: 2
#     Edge 61, Type (0, 1), BuildingBlock: XIVTED_clean_linker_0, # of connection points: 2
#     Edge 62, Type (0, 1), BuildingBlock: XIVTED_clean_linker_0, # of connection points: 2
#     Edge 63, Type (0, 1), BuildingBlock: XIVTED_clean_linker_0, # of connection points: 2
#     Edge 64, Type (0, 1), BuildingBlock: XIVTED_clean_linker_0, # of connection points: 2
#     Edge 65, Type (0, 1), BuildingBlock: XIVTED_clean_linker_0, # of connection points: 2
#     Edge 66, Type (0, 1), BuildingBlock: XIVTED_clean_linker_0, # of connection points: 2
#     Edge 67, Type (0, 1), BuildingBlock: XIVTED_clean_linker_0, # of connection points: 2
#     Edge 68, Type (0, 1), BuildingBlock: XIVTED_clean_linker_0, # of connection points: 2
#     Edge 69, Type (0, 1), BuildingBlock: XIVTED_clean_linker_0, # of connection points: 2
#     Edge 70, Type (0, 1), BuildingBlock: XIVTED_clean_linker_0, # of connection points: 2
#     Edge 71, Type (0, 1), BuildingBlock: XIVTED_clean_linker_0, # of connection points: 2
#     Edge 72, Type (0, 1), BuildingBlock: XIVTED_clean_linker_0, # of connection points: 2
#     Edge 73, Type (0, 1), BuildingBlock: XIVTED_clean_linker_0, # of connection points: 2
#     Edge 74, Type (0, 1), BuildingBlock: XIVTED_clean_linker_0, # of connection points: 2
#     Edge 75, Type (0, 1), BuildingBlock: XIVTED_clean_linker_0, # of connection points: 2
# Relax obj value: 0.002
# Max RMSD: 0.044
# Mean RMSD: 0.024
data_MOF--net-ctn--node1-AZAVOO_clean_sbu_0--node2-VETTIZ_charged_linker_0--edge1-XIVTED_clean_linker_0
_symmetry_space_group_name_H-M    P1
_symmetry_Int_Tables_number       1
_symmetry_cell_setting            triclinic
loop_
_symmetry_equiv_pos_as_xyz
'x, y, z'
_cell_length_a     66.424498
_cell_length_b     67.42816
_cell_length_c     67.439405
_cell_angle_alpha  90.063918
_cell_angle_beta   92.647152
_cell_angle_gamma 92.861331
loop_
_atom_site_label
_atom_site_type_symbol
_atom_site_fract_x
_atom_site_fract_y
_atom_site_fract_z
_atom_type_partial_charge
C0 C 0.0338 0.07204 0.96473 0.0
C1 C 0.01835 0.08542 0.96644 0.0
C2 C 0.00198 0.08013 0.97828 0.0
C3 C 0.01815 0.05037 0.98895 0.0
C4 C 0.03333 0.05458 0.97605 0.0
C5 C 0.04887 0.03904 0.97676 0.0
H6 H 0.08553 0.957 0.02038 0.0
C7 C 0.02333 0.03257 0.00043 0.0
C8 C 0.04115 0.02564 0.99318 0.0
H9 H 0.10718 0.98814 0.96893 0.0
H10 H 0.08098 0.01152 0.97121 0.0
H11 H 0.0793 0.99469 0.04517 0.0
H12 H 0.03664 0.959 0.00877 0.0
H13 H 0.02637 0.96341 0.032 0.0
H14 H 0.04929 0.95042 0.03104 0.0
H15 H 0.06715 0.97252 0.05453 0.0
H16 H 0.05595 0.99632 0.05603 0.0
C17 C 0.06968 0.04927 0.98264 0.0
C18 C 0.04794 0.02825 0.95639 0.0
C19 C 0.98432 0.01482 0.06132 0.0
C20 C 0.98816 0.00234 0.07765 0.0
C21 C 0.00395 0.98913 0.07663 0.0
C22 C 0.01607 0.98898 0.06011 0.0
C23 C 0.01268 0.0024 0.04451 0.0
C24 C 0.99694 0.01496 0.0453 0.0
C25 C 0.99664 0.02954 0.02846 0.0
C26 C 0.01483 0.02368 0.0174 0.0
C27 C 0.02401 0.00762 0.02671 0.0
C28 C 0.99957 0.05073 0.03752 0.0
C29 C 0.97672 0.02573 0.01586 0.0
C30 C 0.08447 0.96874 0.00948 0.0
C31 C 0.09834 0.97066 0.99437 0.0
C32 C 0.09676 0.98642 0.98077 0.0
C33 C 0.08144 -0.00012 0.98203 0.0
C34 C 0.06763 0.99769 0.99714 0.0
C35 C 0.06932 0.98234 0.01059 0.0
C36 C 0.05358 0.9826 0.02594 0.0
C37 C 0.04157 2e-05 0.01887 0.0
C38 C 0.05 0.00891 0.00212 0.0
C39 C 0.06442 0.9866 0.04654 0.0
C40 C 0.04077 0.9628 0.02454 0.0
H41 H 0.98919 0.05982 0.99863 0.0
H42 H 0.04648 0.0755 0.9556 0.0
H43 H 0.03264 0.02857 0.94898 0.0
H44 H 0.0508 0.01228 0.95777 0.0
H45 H 0.0588 0.03534 0.94619 0.0
H46 H 0.06827 0.06017 0.99483 0.0
H47 H 0.07605 0.05739 0.96985 0.0
H48 H 0.0808 0.03882 0.98833 0.0
H49 H 0.97213 0.0249 0.06119 0.0
H50 H 0.00756 0.97943 0.08892 0.0
H51 H 0.02801 0.97883 0.06038 0.0
H52 H 0.0103 0.05087 0.0507 0.0
H53 H 0.98506 0.0561 0.04243 0.0
H54 H 0.00625 0.06176 0.0274 0.0
H55 H 0.97179 0.00971 0.01588 0.0
H56 H 0.97832 0.02941 1e-05 0.0
H57 H 0.96435 0.03417 0.02174 0.0
H58 H 0.98952 0.08979 0.97934 0.0
C59 C 0.00178 0.06269 0.98948 0.0
C60 C 0.26735 0.67147 0.2501 0.0
C61 C 0.25027 0.66736 0.23741 0.0
C62 C 0.24531 0.68105 0.22242 0.0
C63 C 0.27479 0.70203 0.23234 0.0
C64 C 0.27926 0.68886 0.24738 0.0
C65 C 0.2978 0.6955 0.25972 0.0
H66 H 0.37642 0.76178 0.27728 0.0
C67 C 0.29052 0.71836 0.23331 0.0
C68 C 0.30389 0.71474 0.24943 0.0
H69 H 0.36034 0.70866 0.3101 0.0
H70 H 0.33142 0.70209 0.28801 0.0
H71 H 0.3317 0.77686 0.27132 0.0
H72 H 0.36598 0.74163 0.23286 0.0
H73 H 0.35435 0.76009 0.21863 0.0
H74 H 0.37255 0.7673 0.23824 0.0
H75 H 0.35236 0.78749 0.25798 0.0
H76 H 0.32714 0.78491 0.24682 0.0
C77 C 0.2915 0.69909 0.28125 0.0
C78 C 0.3137 0.67963 0.25772 0.0
C79 C 0.29149 0.77021 0.17916 0.0
C80 C 0.30447 0.78667 0.17533 0.0
C81 C 0.32012 0.79222 0.18932 0.0
C82 C 0.32336 0.78085 0.20653 0.0
C83 C 0.31071 0.76387 0.20973 0.0
C84 C 0.29481 0.75912 0.19635 0.0
C85 C 0.28256 0.74094 0.2022 0.0
C86 C 0.29406 0.73511 0.22103 0.0
C87 C 0.31063 0.74846 0.22535 0.0
C88 C 0.26095 0.7471 0.2063 0.0
C89 C 0.28355 0.72518 0.18557 0.0
C90 C 0.36672 0.74866 0.27955 0.0
C91 C 0.37061 0.73581 0.29556 0.0
C92 C 0.35752 0.71899 0.29811 0.0
C93 C 0.34074 0.71512 0.28518 0.0
C94 C 0.33692 0.72814 0.26939 0.0
C95 C 0.34978 0.74458 0.26672 0.0
C96 C 0.34311 0.75674 0.2491 0.0
C97 C 0.3241 0.74492 0.24181 0.0
C98 C 0.32068 0.72815 0.25375 0.0
C99 C 0.33843 0.77768 0.25652 0.0
C100 C 0.35983 0.75664 0.23385 0.0
H101 H 0.2531 0.70806 0.20796 0.0
H102 H 0.27132 0.66138 0.26198 0.0
H103 H 0.3132 0.67355 0.24235 0.0
H104 H 0.32936 0.68561 0.26039 0.0
H105 H 0.31086 0.66701 0.26796 0.0
H106 H 0.27574 0.70394 0.28144 0.0
H107 H 0.29231 0.68535 0.29026 0.0
H108 H 0.30067 0.7112 0.28887 0.0
H109 H 0.27912 0.76586 0.16877 0.0
H110 H 0.33022 0.80494 0.1866 0.0
H111 H 0.33575 0.78551 0.2165 0.0
H112 H 0.26098 0.76281 0.21138 0.0
H113 H 0.25085 0.74564 0.19273 0.0
H114 H 0.25414 0.73844 0.21844 0.0
H115 H 0.29906 0.72499 0.18004 0.0
H116 H 0.28003 0.70989 0.19059 0.0
H117 H 0.27313 0.72845 0.17276 0.0
H118 H 0.23224 0.67815 0.21244 0.0
C119 C 0.25749 0.69835 0.2198 0.0
C120 C 0.99865 0.4283 0.00499 0.0
C121 C 0.98545 0.42273 0.98889 0.0
C122 C 0.96938 0.4348 0.98358 0.0
C123 C 0.97877 0.45661 0.01156 0.0
C124 C 0.99512 0.44524 0.01599 0.0
C125 C 0.0076 0.45286 0.03376 0.0
H126 H 0.02105 0.51634 0.11131 0.0
C127 C 0.97866 0.47231 0.02692 0.0
C128 C 0.99562 0.47025 0.03982 0.0
H129 H 0.06028 0.47118 0.09281 0.0
H130 H 0.03742 0.46267 0.06513 0.0
H131 H 0.97911 0.4904 0.10278 0.0
H132 H 0.01147 0.53322 0.0673 0.0
H133 H 0.98568 0.53784 0.06462 0.0
H134 H 0.9984 0.54012 0.08878 0.0
H135 H 0.97984 0.51653 0.10803 0.0
H136 H 0.9612 0.50508 0.09075 0.0
C137 C 0.00763 0.43632 0.04971 0.0
C138 C 0.02882 0.45964 0.02683 0.0
C139 C 0.91997 0.51786 0.0284 0.0
C140 C 0.91486 0.53255 0.04185 0.0
C141 C 0.92813 0.53725 0.0583 0.0
C142 C 0.9461 0.52744 0.0614 0.0
C143 C 0.95088 0.51262 0.04799 0.0
C144 C 0.93792 0.50805 0.03182 0.0
C145 C 0.94518 0.49146 0.01948 0.0
C146 C 0.96468 0.48695 0.03083 0.0
C147 C 0.96796 0.49942 0.04752 0.0
C148 C 0.9293 0.47385 0.01995 0.0
C149 C 0.94904 0.49954 0.99844 0.0
C150 C 0.02458 0.50455 0.10132 0.0
C151 C 0.04252 0.49446 0.1042 0.0
C152 C 0.04669 0.47934 0.09077 0.0
C153 C 0.03335 0.47437 0.0747 0.0
C154 C 0.01556 0.48461 0.0719 0.0
C155 C 0.01143 0.4995 0.08499 0.0
C156 C 0.99199 0.50905 0.07918 0.0
C157 C 0.98532 0.49751 0.0604 0.0
C158 C 0.99911 0.48311 0.05641 0.0
C159 C 0.97719 0.50528 0.09603 0.0
C160 C 0.99695 0.53127 0.07484 0.0
H161 H 0.9532 0.46013 0.99043 0.0
H162 H 0.01131 0.4194 0.00915 0.0
H163 H 0.02833 0.46383 0.01087 0.0
H164 H 0.0351 0.47317 0.03466 0.0
H165 H 0.03962 0.44766 0.02878 0.0
H166 H 0.99242 0.42871 0.05032 0.0
H167 H 0.01848 0.42491 0.04631 0.0
H168 H 0.01121 0.44198 0.06488 0.0
H169 H 0.90999 0.51375 0.01575 0.0
H170 H 0.92465 0.54867 0.06874 0.0
H171 H 0.95552 0.53171 0.07419 0.0
H172 H 0.92322 0.47222 0.03499 0.0
H173 H 0.9164 0.47618 0.00927 0.0
H174 H 0.93555 0.4594 0.01677 0.0
H175 H 0.955 0.51526 0.99915 0.0
H176 H 0.96064 0.49151 0.99093 0.0
H177 H 0.93491 0.499 0.98895 0.0
H178 H 0.95906 0.43072 0.97117 0.0
C179 C 0.96594 0.45173 0.99488 0.0
C180 C 0.66685 0.81981 0.26492 0.0
C181 C 0.65371 0.80281 0.26515 0.0
C182 C 0.65464 0.78834 0.25019 0.0
C183 C 0.68238 0.80709 0.23589 0.0
C184 C 0.68113 0.82157 0.25025 0.0
C185 C 0.69726 0.83792 0.24859 0.0
H186 H 0.78106 0.87343 0.20411 0.0
C187 C 0.6995 0.81275 0.22354 0.0
C188 C 0.70827 0.83088 0.23083 0.0
H189 H 0.75287 0.89881 0.25406 0.0
H190 H 0.72601 0.87313 0.25145 0.0
H191 H 0.74124 0.86445 0.17799 0.0
H192 H 0.77582 0.8285 0.21805 0.0
H193 H 0.76932 0.81408 0.19679 0.0
H194 H 0.78435 0.83682 0.19445 0.0
H195 H 0.76359 0.85314 0.17058 0.0
H196 H 0.73902 0.84039 0.16792 0.0
C197 C 0.68684 0.85757 0.24423 0.0
C198 C 0.71083 0.83822 0.26791 0.0
C199 C 0.71833 0.76678 0.1681 0.0
C200 C 0.73304 0.76858 0.15379 0.0
C201 C 0.74611 0.78567 0.15375 0.0
C202 C 0.74468 0.80075 0.16778 0.0
C203 C 0.72996 0.7988 0.18204 0.0
C204 C 0.71692 0.78216 0.18191 0.0
C205 C 0.70165 0.7832 0.19764 0.0
C206 C 0.70785 0.8031 0.20731 0.0
C207 C 0.72459 0.81197 0.19826 0.0
C208 C 0.68035 0.78327 0.18723 0.0
C209 C 0.70478 0.76566 0.2121 0.0
C210 C 0.76917 0.87342 0.21457 0.0
C211 C 0.76925 0.88798 0.22949 0.0
C212 C 0.75316 0.88775 0.24244 0.0
C213 C 0.73768 0.87274 0.24099 0.0
C214 C 0.73832 0.85781 0.22645 0.0
C215 C 0.75375 0.85856 0.21338 0.0
C216 C 0.75221 0.84161 0.19887 0.0
C217 C 0.73353 0.83022 0.20561 0.0
C218 C 0.72541 0.8397 0.22178 0.0
C219 C 0.74899 0.8502 0.17769 0.0
C220 C 0.77141 0.82959 0.20198 0.0
H221 H 0.66889 0.77877 0.22471 0.0
H222 H 0.66663 0.83103 0.2764 0.0
H223 H 0.71286 0.82287 0.27346 0.0
H224 H 0.72626 0.84441 0.26581 0.0
H225 H 0.70404 0.8467 0.27982 0.0
H226 H 0.67349 0.855 0.2338 0.0
H227 H 0.68152 0.86411 0.25806 0.0
H228 H 0.69669 0.86871 0.23689 0.0
H229 H 0.70789 0.75392 0.16824 0.0
H230 H 0.75759 0.78729 0.14288 0.0
H231 H 0.75515 0.81331 0.16699 0.0
H232 H 0.68087 0.79069 0.17252 0.0
H233 H 0.67388 0.76791 0.18472 0.0
H234 H 0.6697 0.79179 0.19553 0.0
H235 H 0.72113 0.76321 0.21475 0.0
H236 H 0.69914 0.76829 0.22696 0.0
H237 H 0.69745 0.75167 0.20594 0.0
H238 H 0.64454 0.77521 0.25002 0.0
C239 C 0.66881 0.79042 0.23553 0.0
C240 C 0.0408 0.92716 0.52588 0.0
C241 C 0.02437 0.91326 0.52329 0.0
C242 C 0.00901 0.91691 0.50881 0.0
C243 C 0.02695 0.94735 0.49926 0.0
C244 C 0.04172 0.94407 0.51384 0.0
C245 C 0.0581 0.96034 0.51467 0.0
H246 H 0.09687 0.04693 0.47825 0.0
C247 C 0.03269 0.96598 0.48895 0.0
C248 C 0.05084 0.97377 0.49804 0.0
H249 H 0.12084 0.01254 0.52717 0.0
H250 H 0.09317 0.98811 0.52237 0.0
H251 H 0.05081 0.04272 0.48956 0.0
H252 H 0.08534 0.00962 0.44975 0.0
H253 H 0.06161 0.01248 0.43787 0.0
H254 H 0.07759 0.03419 0.44419 0.0
H255 H 0.05858 0.05252 0.46623 0.0
H256 H 0.03535 0.03773 0.46811 0.0
C257 C 0.05808 0.97061 0.53523 0.0
C258 C 0.07827 0.95108 0.51009 0.0
C259 C 0.99125 0.98731 0.42806 0.0
C260 C 0.99341 0.00337 0.41489 0.0
C261 C 0.00881 0.01816 0.41899 0.0
C262 C 0.02226 0.01662 0.43549 0.0
C263 C 0.02038 0.0001 0.44808 0.0
C264 C 0.00484 0.98598 0.44448 0.0
C265 C 0.00508 0.96953 0.45955 0.0
C266 C 0.02368 0.97582 0.47243 0.0
C267 C 0.03262 0.99368 0.46558 0.0
C268 C 0.9855 0.96997 0.47117 0.0
C269 C 0.00776 0.94977 0.44847 0.0
C270 C 0.09609 0.03422 0.48804 0.0
C271 C 0.11102 0.03174 0.5032 0.0
C272 C 0.10963 0.01474 0.51531 0.0
C273 C 0.09346 0.00064 0.51257 0.0
C274 C 0.07854 0.00348 0.4975 0.0
C275 C 0.0801 0.02001 0.48547 0.0
C276 C 0.0631 0.02049 0.47 0.0
C277 C 0.05083 0.00171 0.47493 0.0
C278 C 0.05993 0.99178 0.49102 0.0
C279 C 0.05132 0.03937 0.47343 0.0
C280 C 0.07222 0.01928 0.4493 0.0
H281 H 0.99819 0.93562 0.48588 0.0
H282 H 0.05271 0.92492 0.53706 0.0
H283 H 0.07582 0.93929 0.49854 0.0
H284 H 0.08934 0.96186 0.50394 0.0
H285 H 0.08517 0.9442 0.52356 0.0
H286 H 0.04245 0.97124 0.54039 0.0
H287 H 0.067 0.96242 0.54658 0.0
H288 H 0.06387 0.98624 0.535 0.0
H289 H 0.9794 0.97585 0.42551 0.0
H290 H 0.01094 0.0306 0.40903 0.0
H291 H 0.03386 0.02818 0.43757 0.0
H292 H 0.98009 0.98529 0.47203 0.0
H293 H 0.97316 0.96043 0.46392 0.0
H294 H 0.98776 0.96538 0.48682 0.0
H295 H 0.01902 0.95191 0.43685 0.0
H296 H 0.01356 0.93802 0.45819 0.0
H297 H 0.99331 0.94417 0.44104 0.0
H298 H 0.99629 0.90637 0.50638 0.0
C299 C 0.01021 0.93385 0.49681 0.0
C300 C 0.26996 0.66787 0.77079 0.0
C301 C 0.2705 0.65505 0.75443 0.0
C302 C 0.25448 0.65477 0.73992 0.0
C303 C 0.23815 0.68018 0.75804 0.0
C304 C 0.25375 0.68014 0.77232 0.0
C305 C 0.25087 0.69415 0.78913 0.0
H306 H 0.19429 0.75993 0.83387 0.0
C307 C 0.22368 0.69477 0.76428 0.0
C308 C 0.23108 0.70287 0.78253 0.0
H309 H 0.25081 0.73642 0.85476 0.0
H310 H 0.25236 0.71773 0.82465 0.0
H311 H 0.17464 0.71902 0.81596 0.0
H312 H 0.2077 0.76724 0.78834 0.0
H313 H 0.18829 0.75898 0.77131 0.0
H314 H 0.18199 0.76909 0.79491 0.0
H315 H 0.16444 0.7429 0.81176 0.0
H316 H 0.16227 0.7238 0.79297 0.0
C317 C 0.24902 0.68174 0.80841 0.0
C318 C 0.26861 0.71003 0.78969 0.0
C319 C 0.16139 0.70828 0.72056 0.0
C320 C 0.1456 0.72126 0.72238 0.0
C321 C 0.14552 0.73336 0.73945 0.0
C322 C 0.16086 0.73262 0.75437 0.0
C323 C 0.17654 0.71964 0.75229 0.0
C324 C 0.17664 0.70775 0.73559 0.0
C325 C 0.1946 0.69496 0.73588 0.0
C326 C 0.20534 0.70128 0.7554 0.0
C327 C 0.19463 0.7157 0.76498 0.0
C328 C 0.18684 0.67292 0.73618 0.0
C329 C 0.20729 0.70063 0.71787 0.0
C330 C 0.20704 0.75086 0.83178 0.0
C331 C 0.22231 0.7494 0.84681 0.0
C332 C 0.23867 0.73746 0.84357 0.0
C333 C 0.23957 0.72663 0.82602 0.0
C334 C 0.22392 0.72763 0.81141 0.0
C335 C 0.20811 0.73975 0.81425 0.0
C336 C 0.19288 0.73871 0.79697 0.0
C337 C 0.20201 0.72368 0.7836 0.0
C338 C 0.22018 0.71732 0.79221 0.0
C339 C 0.17238 0.73084 0.80468 0.0
C340 C 0.19247 0.75955 0.78735 0.0
H341 H 0.22668 0.66653 0.73004 0.0
H342 H 0.2818 0.66816 0.7824 0.0
H343 H 0.27313 0.71384 0.77441 0.0
H344 H 0.26468 0.72429 0.79619 0.0
H345 H 0.28207 0.70458 0.79798 0.0
H346 H 0.24235 0.66654 0.80515 0.0
H347 H 0.26401 0.6801 0.81606 0.0
H348 H 0.23873 0.68802 0.81891 0.0
H349 H 0.16183 0.6986 0.70778 0.0
H350 H 0.13375 0.7437 0.74114 0.0
H351 H 0.15995 0.74226 0.76692 0.0
H352 H 0.17317 0.67103 0.74506 0.0
H353 H 0.18275 0.66737 0.72093 0.0
H354 H 0.19783 0.66311 0.74332 0.0
H355 H 0.20802 0.717 0.71565 0.0
H356 H 0.22313 0.69656 0.71979 0.0
H357 H 0.20055 0.69364 0.70402 0.0
H358 H 0.2546 0.64504 0.72714 0.0
C359 C 0.23835 0.66731 0.7416 0.0
C360 C 0.90824 0.47613 0.47189 0.0
C361 C 0.90316 0.4591 0.4603 0.0
C362 C 0.91427 0.45553 0.44345 0.0
C363 C 0.93521 0.48547 0.45008 0.0
C364 C 0.92429 0.489 0.46658 0.0
C365 C 0.93199 0.50749 0.47755 0.0
H366 H 0.99881 0.58661 0.48534 0.0
C367 C 0.951 0.50158 0.44876 0.0
C368 C 0.94921 0.51453 0.46484 0.0
H369 H 0.95034 0.57062 0.52391 0.0
H370 H 0.94129 0.54166 0.5039 0.0
H371 H 0.97361 0.57897 0.44592 0.0
H372 H 0.01361 0.54167 0.47895 0.0
H373 H 0.01896 0.53986 0.45372 0.0
H374 H 0.02202 0.56361 0.46603 0.0
H375 H 0.00048 0.58192 0.44447 0.0
H376 H 0.98547 0.56511 0.42822 0.0
C377 C 0.91486 0.52228 0.47717 0.0
C378 C 0.9396 0.50143 0.49865 0.0
C379 C 0.99878 0.50248 0.39184 0.0
C380 C 0.0141 0.51618 0.38621 0.0
C381 C 0.01879 0.53316 0.39806 0.0
C382 C 0.0084 0.5365 0.41524 0.0
C383 C 0.99301 0.52279 0.42063 0.0
C384 C 0.98833 0.50618 0.40895 0.0
C385 C 0.97098 0.49368 0.41664 0.0
C386 C 0.96614 0.5055 0.43488 0.0
C387 C 0.97922 0.52242 0.4372 0.0
C388 C 0.95345 0.49321 0.40062 0.0
C389 C 0.97873 0.47303 0.4222 0.0
C390 C 0.98618 0.57695 0.48945 0.0
C391 C 0.97537 0.58097 0.50634 0.0
C392 C 0.95918 0.56777 0.51121 0.0
C393 C 0.95382 0.55101 0.49945 0.0
C394 C 0.96468 0.54733 0.48255 0.0
C395 C 0.98056 0.56019 0.47782 0.0
C396 C 0.99018 0.55415 0.45914 0.0
C397 C 0.97755 0.53544 0.45353 0.0
C398 C 0.96265 0.5315 0.46729 0.0
C399 C 0.98751 0.57086 0.44358 0.0
C400 C 0.01242 0.54967 0.46455 0.0
H401 H 0.93807 0.46502 0.4253 0.0
H402 H 0.90018 0.47916 0.48508 0.0
H403 H 0.94661 0.48678 0.49834 0.0
H404 H 0.95158 0.51176 0.50508 0.0
H405 H 0.927 0.50017 0.50892 0.0
H406 H 0.90601 0.52144 0.46275 0.0
H407 H 0.90424 0.51894 0.48911 0.0
H408 H 0.9205 0.53793 0.47849 0.0
H409 H 0.99473 0.48941 0.38288 0.0
H410 H 0.03067 0.54382 0.39409 0.0
H411 H 0.01275 0.54967 0.42363 0.0
H412 H 0.95305 0.50756 0.39251 0.0
H413 H 0.95515 0.48131 0.38951 0.0
H414 H 0.93844 0.49126 0.40693 0.0
H415 H 0.99438 0.47445 0.42885 0.0
H416 H 0.96981 0.46536 0.43358 0.0
H417 H 0.97891 0.46332 0.4089 0.0
H418 H 0.91053 0.44264 0.43415 0.0
C419 C 0.93022 0.4686 0.43828 0.0
C420 C 0.78177 0.72475 0.82999 0.0
C421 C 0.76316 0.72382 0.83931 0.0
C422 C 0.74714 0.73451 0.83088 0.0
C423 C 0.76901 0.7489 0.80651 0.0
C424 C 0.78423 0.73716 0.81349 0.0
C425 C 0.80268 0.73962 0.80135 0.0
H426 H 0.84919 0.7846 0.7248 0.0
C427 C 0.77676 0.7613 0.7903 0.0
C428 C 0.79634 0.75568 0.78685 0.0
H429 H 0.86937 0.73564 0.76065 0.0
H430 H 0.84021 0.73737 0.78051 0.0
H431 H 0.83518 0.81032 0.76189 0.0
H432 H 0.80282 0.77047 0.72042 0.0
H433 H 0.78886 0.79183 0.72286 0.0
H434 H 0.81384 0.79422 0.71361 0.0
H435 H 0.82768 0.81809 0.73734 0.0
H436 H 0.81118 0.81967 0.75778 0.0
C437 C 0.82075 0.74694 0.81522 0.0
C438 C 0.80569 0.71961 0.79076 0.0
C439 C 0.73663 0.81911 0.76533 0.0
C440 C 0.74092 0.83484 0.75226 0.0
C441 C 0.75883 0.83478 0.74176 0.0
C442 C 0.77241 0.81966 0.74463 0.0
C443 C 0.76819 0.80443 0.75825 0.0
C444 C 0.75047 0.80426 0.76821 0.0
C445 C 0.74872 0.78727 0.78253 0.0
C446 C 0.7686 0.77759 0.77992 0.0
C447 C 0.77988 0.78763 0.76561 0.0
C448 C 0.74737 0.79609 0.80363 0.0
C449 C 0.73032 0.77344 0.77569 0.0
C450 C 0.8475 0.77447 0.73712 0.0
C451 C 0.86153 0.75983 0.74102 0.0
C452 C 0.85863 0.74682 0.75712 0.0
C453 C 0.84166 0.74781 0.76862 0.0
C454 C 0.82735 0.76193 0.76398 0.0
C455 C 0.83054 0.77517 0.74868 0.0
C456 C 0.81364 0.78913 0.74591 0.0
C457 C 0.79933 0.78134 0.76135 0.0
C458 C 0.80752 0.7655 0.77198 0.0
C459 C 0.82224 0.81047 0.75082 0.0
C460 C 0.80427 0.78647 0.72457 0.0
H461 H 0.73735 0.75511 0.80933 0.0
H462 H 0.79435 0.71653 0.8357 0.0
H463 H 0.79127 0.71054 0.78884 0.0
H464 H 0.81086 0.72167 0.7755 0.0
H465 H 0.81654 0.71056 0.79935 0.0
H466 H 0.81623 0.7589 0.82523 0.0
H467 H 0.82626 0.73465 0.82464 0.0
H468 H 0.83351 0.75343 0.80708 0.0
H469 H 0.72289 0.81847 0.7734 0.0
H470 H 0.76272 0.84678 0.73176 0.0
H471 H 0.78585 0.8206 0.73637 0.0
H472 H 0.75893 0.80846 0.80619 0.0
H473 H 0.73231 0.80209 0.80557 0.0
H474 H 0.75021 0.78535 0.81559 0.0
H475 H 0.72637 0.77518 0.75959 0.0
H476 H 0.7334 0.75752 0.77741 0.0
H477 H 0.71674 0.77667 0.7839 0.0
H478 H 0.73233 0.73342 0.83697 0.0
C479 C 0.75 0.74706 0.81468 0.0
C480 C 0.28839 0.22667 0.33185 0.0
C481 C 0.27188 0.22735 0.34415 0.0
C482 C 0.25766 0.24195 0.34057 0.0
C483 C 0.27651 0.25494 0.31318 0.0
C484 C 0.29038 0.24056 0.3165 0.0
C485 C 0.30702 0.24205 0.30208 0.0
H486 H 0.34872 0.28841 0.22363 0.0
C487 C 0.28311 0.26736 0.29644 0.0
C488 C 0.301 0.25992 0.28985 0.0
H489 H 0.36861 0.23624 0.25451 0.0
H490 H 0.34168 0.23835 0.27715 0.0
H491 H 0.33867 0.31329 0.26327 0.0
H492 H 0.30254 0.27573 0.22245 0.0
H493 H 0.28828 0.29614 0.2278 0.0
H494 H 0.31191 0.30019 0.21595 0.0
H495 H 0.33144 0.32118 0.23867 0.0
H496 H 0.31548 0.3244 0.25927 0.0
C497 C 0.32727 0.24619 0.31403 0.0
C498 C 0.30599 0.22273 0.28952 0.0
C499 C 0.24216 0.32575 0.27424 0.0
C500 C 0.24488 0.34045 0.25968 0.0
C501 C 0.26176 0.33987 0.24775 0.0
C502 C 0.27565 0.32501 0.25029 0.0
C503 C 0.27277 0.31052 0.26497 0.0
C504 C 0.25626 0.31106 0.27665 0.0
C505 C 0.25589 0.2947 0.29178 0.0
C506 C 0.27487 0.28425 0.28721 0.0
C507 C 0.28466 0.29355 0.27146 0.0
C508 C 0.25742 0.30436 0.31272 0.0
C509 C 0.23658 0.28124 0.28746 0.0
C510 C 0.34748 0.27767 0.2355 0.0
C511 C 0.36081 0.26216 0.23732 0.0
C512 C 0.35843 0.24824 0.25273 0.0
C513 C 0.34278 0.24949 0.26585 0.0
C514 C 0.32921 0.26474 0.26349 0.0
C515 C 0.33178 0.27859 0.24859 0.0
C516 C 0.31557 0.29339 0.24791 0.0
C517 C 0.30273 0.28602 0.2647 0.0
C518 C 0.31084 0.2693 0.27383 0.0
C519 C 0.32567 0.31423 0.25236 0.0
C520 C 0.30395 0.29149 0.22746 0.0
H521 H 0.24858 0.26644 0.32339 0.0
H522 H 0.2995 0.21557 0.33408 0.0
H523 H 0.29014 0.21675 0.28716 0.0
H524 H 0.31138 0.22507 0.27441 0.0
H525 H 0.31472 0.21102 0.29699 0.0
H526 H 0.32537 0.25672 0.32645 0.0
H527 H 0.33296 0.2323 0.32054 0.0
H528 H 0.3391 0.25334 0.30511 0.0
H529 H 0.22933 0.32561 0.28359 0.0
H530 H 0.26452 0.35118 0.23668 0.0
H531 H 0.28819 0.3255 0.24081 0.0
H532 H 0.26687 0.31846 0.31277 0.0
H533 H 0.2423 0.30788 0.31772 0.0
H534 H 0.26492 0.29506 0.32403 0.0
H535 H 0.23311 0.27986 0.2712 0.0
H536 H 0.23811 0.26584 0.29264 0.0
H537 H 0.2233 0.28745 0.29422 0.0
H538 H 0.245 0.2431 0.35 0.0
C539 C 0.25986 0.25567 0.32519 0.0
C540 C 0.49617 0.92847 0.50612 0.0
C541 C 0.48327 0.92272 0.48988 0.0
C542 C 0.4675 0.93491 0.48392 0.0
C543 C 0.47686 0.95748 0.51133 0.0
C544 C 0.49276 0.94579 0.51651 0.0
C545 C 0.50508 0.95359 0.53428 0.0
H546 H 0.52045 0.02013 0.6089 0.0
C547 C 0.47711 0.97391 0.52598 0.0
C548 C 0.49371 0.9717 0.53932 0.0
H549 H 0.5569 0.97144 0.59383 0.0
H550 H 0.53413 0.96278 0.56615 0.0
H551 H 0.47601 0.99628 0.59946 0.0
H552 H 0.51395 0.03534 0.56513 0.0
H553 H 0.48893 0.04078 0.55876 0.0
H554 H 0.49866 0.04458 0.58399 0.0
H555 H 0.48035 0.02226 0.60489 0.0
H556 H 0.4607 0.01348 0.58726 0.0
C557 C 0.50398 0.93764 0.55082 0.0
C558 C 0.5267 0.95923 0.52767 0.0
C559 C 0.42204 0.02384 0.52293 0.0
C560 C 0.4187 0.0407 0.53439 0.0
C561 C 0.43209 0.0457 0.55065 0.0
C562 C 0.44859 0.03417 0.55542 0.0
C563 C 0.45188 0.01749 0.54374 0.0
C564 C 0.43876 0.01257 0.52777 0.0
C565 C 0.44504 0.99465 0.51671 0.0
C566 C 0.46401 0.98962 0.52873 0.0
C567 C 0.46785 0.003 0.54463 0.0
C568 C 0.42811 0.97815 0.51799 0.0
C569 C 0.44969 0.00099 0.49526 0.0
C570 C 0.52332 0.00752 0.59967 0.0
C571 C 0.54047 0.99644 0.60347 0.0
C572 C 0.5439 0.98029 0.59103 0.0
C573 C 0.53061 0.97526 0.57496 0.0
C574 C 0.51367 0.98653 0.57113 0.0
C575 C 0.51023 0.0024 0.5833 0.0
C576 C 0.49178 0.01303 0.57629 0.0
C577 C 0.48476 0.0008 0.55804 0.0
C578 C 0.4976 0.98527 0.55527 0.0
C579 C 0.47634 0.01138 0.59279 0.0
C580 C 0.49849 0.03461 0.57085 0.0
H581 H 0.45169 0.96081 0.48968 0.0
H582 H 0.50859 0.91948 0.51082 0.0
H583 H 0.52668 0.96322 0.51166 0.0
H584 H 0.53354 0.97257 0.53542 0.0
H585 H 0.53681 0.94672 0.52994 0.0
H586 H 0.48864 0.93021 0.55086 0.0
H587 H 0.5149 0.92599 0.54854 0.0
H588 H 0.50666 0.94385 0.56591 0.0
H589 H 0.41214 0.01979 0.51019 0.0
H590 H 0.42973 0.05853 0.55978 0.0
H591 H 0.4582 0.03878 0.56797 0.0
H592 H 0.42223 0.97754 0.53317 0.0
H593 H 0.41528 0.98096 0.50739 0.0
H594 H 0.43332 0.96317 0.51519 0.0
H595 H 0.45644 0.01642 0.49499 0.0
H596 H 0.46096 0.99182 0.48862 0.0
H597 H 0.43575 0.00049 0.48549 0.0
H598 H 0.45739 0.93067 0.47139 0.0
C599 C 0.46416 0.95228 0.49463 0.0
C600 C 0.17084 0.32754 0.76912 0.0
C601 C 0.15607 0.31187 0.7696 0.0
C602 C 0.15601 0.29669 0.75518 0.0
C603 C 0.18533 0.3126 0.74064 0.0
C604 C 0.18525 0.32758 0.75463 0.0
C605 C 0.20226 0.34288 0.75243 0.0
H606 H 0.28595 0.37385 0.70551 0.0
C607 C 0.20256 0.31689 0.72794 0.0
C608 C 0.21249 0.33467 0.73476 0.0
H609 H 0.25992 0.40123 0.75569 0.0
H610 H 0.23253 0.37623 0.75443 0.0
H611 H 0.24551 0.36566 0.68066 0.0
H612 H 0.27927 0.32881 0.72054 0.0
H613 H 0.27169 0.31438 0.69953 0.0
H614 H 0.28764 0.33647 0.69667 0.0
H615 H 0.26708 0.35323 0.67293 0.0
H616 H 0.24201 0.34149 0.67102 0.0
C617 C 0.19305 0.3631 0.74771 0.0
C618 C 0.21602 0.34279 0.77163 0.0
C619 C 0.2168 0.2695 0.67195 0.0
C620 C 0.23113 0.27037 0.65723 0.0
C621 C 0.24537 0.28655 0.65701 0.0
C622 C 0.2454 0.30167 0.67122 0.0
C623 C 0.23097 0.30072 0.6858 0.0
C624 C 0.21686 0.28494 0.68593 0.0
C625 C 0.20213 0.28704 0.70203 0.0
C626 C 0.20989 0.30656 0.71159 0.0
C627 C 0.2269 0.31433 0.70212 0.0
C628 C 0.18075 0.28851 0.6921 0.0
C629 C 0.2043 0.26933 0.71644 0.0
C630 C 0.27443 0.3744 0.71633 0.0
C631 C 0.27522 0.38943 0.73083 0.0
C632 C 0.25962 0.38986 0.7443 0.0
C633 C 0.24381 0.37524 0.74364 0.0
C634 C 0.24357 0.35999 0.72936 0.0
C635 C 0.25861 0.35991 0.71589 0.0
C636 C 0.25595 0.34271 0.70168 0.0
C637 C 0.23701 0.33222 0.70905 0.0
C638 C 0.22983 0.34237 0.72526 0.0
C639 C 0.25259 0.35105 0.68041 0.0
C640 C 0.2746 0.32988 0.70453 0.0
H641 H 0.16977 0.2849 0.73031 0.0
H642 H 0.17122 0.33957 0.77982 0.0
H643 H 0.21692 0.32748 0.77766 0.0
H644 H 0.23181 0.34768 0.76917 0.0
H645 H 0.21013 0.35221 0.78334 0.0
H646 H 0.17914 0.36104 0.73794 0.0
H647 H 0.18892 0.37064 0.76149 0.0
H648 H 0.20318 0.37322 0.73943 0.0
H649 H 0.20552 0.25735 0.67226 0.0
H650 H 0.25662 0.28742 0.64587 0.0
H651 H 0.25668 0.31353 0.67024 0.0
H652 H 0.18143 0.29632 0.67759 0.0
H653 H 0.17342 0.27354 0.68927 0.0
H654 H 0.17078 0.29735 0.70088 0.0
H655 H 0.22044 0.26588 0.71887 0.0
H656 H 0.19903 0.27236 0.73136 0.0
H657 H 0.19604 0.25576 0.71036 0.0
H658 H 0.14501 0.28429 0.75534 0.0
C659 C 0.17052 0.29698 0.74072 0.0
C660 C 0.7685 0.16832 0.74679 0.0
C661 C 0.75195 0.16367 0.73361 0.0
C662 C 0.74738 0.17683 0.71803 0.0
C663 C 0.7766 0.19813 0.72807 0.0
C664 C 0.78051 0.18559 0.74381 0.0
C665 C 0.79877 0.19255 0.75637 0.0
H666 H 0.88225 0.25322 0.76855 0.0
C667 C 0.79264 0.21415 0.72861 0.0
C668 C 0.80554 0.2111 0.74525 0.0
H669 H 0.86033 0.20655 0.80731 0.0
H670 H 0.83066 0.20121 0.78614 0.0
H671 H 0.83912 0.273 0.76367 0.0
H672 H 0.86764 0.23212 0.72592 0.0
H673 H 0.85829 0.25177 0.71153 0.0
H674 H 0.87743 0.25707 0.73076 0.0
H675 H 0.85901 0.28113 0.74799 0.0
H676 H 0.83295 0.2793 0.73894 0.0
C677 C 0.79193 0.19743 0.77746 0.0
C678 C 0.81438 0.17625 0.75578 0.0
C679 C 0.79592 0.26305 0.67184 0.0
C680 C 0.80927 0.27905 0.66747 0.0
C681 C 0.82526 0.28448 0.68116 0.0
C682 C 0.82828 0.27357 0.69871 0.0
C683 C 0.81505 0.2572 0.7026 0.0
C684 C 0.79899 0.25248 0.6894 0.0
C685 C 0.78606 0.23507 0.69604 0.0
C686 C 0.7971 0.22991 0.71535 0.0
C687 C 0.81422 0.24273 0.71906 0.0
C688 C 0.76464 0.24219 0.69944 0.0
C689 C 0.78675 0.21838 0.68029 0.0
C690 C 0.87103 0.24191 0.77253 0.0
C691 C 0.8741 0.2299 0.78941 0.0
C692 C 0.85888 0.21552 0.79406 0.0
C693 C 0.84146 0.21253 0.78182 0.0
C694 C 0.83898 0.22406 0.76469 0.0
C695 C 0.85332 0.23882 0.7605 0.0
C696 C 0.84731 0.25034 0.74219 0.0
C697 C 0.82732 0.23962 0.73591 0.0
C698 C 0.82277 0.22408 0.74904 0.0
C699 C 0.84455 0.27214 0.74834 0.0
C700 C 0.8635 0.24787 0.72672 0.0
H701 H 0.75562 0.20329 0.70284 0.0
H702 H 0.77209 0.15866 0.75914 0.0
H703 H 0.81526 0.17042 0.74042 0.0
H704 H 0.82987 0.18164 0.76021 0.0
H705 H 0.81008 0.16357 0.76547 0.0
H706 H 0.77571 0.20089 0.77725 0.0
H707 H 0.79399 0.18476 0.78774 0.0
H708 H 0.80001 0.21088 0.78389 0.0
H709 H 0.78327 0.25882 0.66173 0.0
H710 H 0.83566 0.29685 0.67804 0.0
H711 H 0.84089 0.27813 0.70845 0.0
H712 H 0.76522 0.25806 0.70409 0.0
H713 H 0.75482 0.24075 0.68567 0.0
H714 H 0.75721 0.23415 0.7116 0.0
H715 H 0.80224 0.21754 0.67484 0.0
H716 H 0.78297 0.20345 0.68612 0.0
H717 H 0.77642 0.22117 0.66728 0.0
H718 H 0.73467 0.1735 0.70772 0.0
C719 C 0.75964 0.19403 0.71518 0.0
C720 C 0.53438 0.57011 0.46342 0.0
C721 C 0.51852 0.58303 0.46516 0.0
C722 C 0.50214 0.57713 0.47674 0.0
C723 C 0.5191 0.54778 0.48728 0.0
C724 C 0.53429 0.55253 0.47454 0.0
C725 C 0.55027 0.5374 0.47526 0.0
H726 H 0.58874 0.45615 0.51894 0.0
C727 C 0.52475 0.53015 0.49877 0.0
C728 C 0.54284 0.52375 0.49162 0.0
H729 H 0.60974 0.48762 0.46742 0.0
H730 H 0.58313 0.51058 0.46977 0.0
H731 H 0.58204 0.4937 0.54368 0.0
H732 H 0.53976 0.45724 0.50766 0.0
H733 H 0.52971 0.46143 0.53107 0.0
H734 H 0.55291 0.44898 0.52979 0.0
H735 H 0.57001 0.47162 0.55335 0.0
H736 H 0.55865 0.49537 0.55447 0.0
C737 C 0.57082 0.54811 0.48124 0.0
C738 C 0.54971 0.5267 0.45487 0.0
C739 C 0.48635 0.51194 0.55984 0.0
C740 C 0.49081 0.50004 0.57645 0.0
C741 C 0.50696 0.48724 0.57557 0.0
C742 C 0.5189 0.48704 0.55892 0.0
C743 C 0.51497 0.50004 0.54308 0.0
C744 C 0.49884 0.51212 0.54372 0.0
C745 C 0.49808 0.52652 0.52675 0.0
C746 C 0.51647 0.52111 0.51576 0.0
C747 C 0.52613 0.50541 0.52521 0.0
C748 C 0.50033 0.54783 0.5356 0.0
C749 C 0.47827 0.52198 0.51416 0.0
C750 C 0.58746 0.46787 0.50805 0.0
C751 C 0.60123 0.46999 0.49286 0.0
C752 C 0.59937 0.48574 0.47928 0.0
C753 C 0.58383 0.49895 0.48058 0.0
C754 C 0.57007 0.4965 0.49572 0.0
C755 C 0.57208 0.48122 0.5092 0.0
C756 C 0.55638 0.4812 0.5246 0.0
C757 C 0.54393 0.49828 0.51744 0.0
C758 C 0.55215 0.50732 0.50066 0.0
C759 C 0.5672 0.48556 0.54515 0.0
C760 C 0.54401 0.46114 0.52339 0.0
H761 H 0.48971 0.55626 0.49675 0.0
H762 H 0.54707 0.57405 0.45445 0.0
H763 H 0.53443 0.52668 0.44738 0.0
H764 H 0.55297 0.51082 0.45622 0.0
H765 H 0.56046 0.53408 0.44475 0.0
H766 H 0.5691 0.55879 0.49357 0.0
H767 H 0.57695 0.55657 0.46855 0.0
H768 H 0.58225 0.5379 0.48677 0.0
H769 H 0.47386 0.52167 0.5596 0.0
H770 H 0.51099 0.47795 0.58807 0.0
H771 H 0.53116 0.47725 0.55929 0.0
H772 H 0.5108 0.54837 0.54898 0.0
H773 H 0.48557 0.55293 0.54014 0.0
H774 H 0.50699 0.55891 0.52551 0.0
H775 H 0.4739 0.50583 0.51429 0.0
H776 H 0.47974 0.52563 0.49829 0.0
H777 H 0.46558 0.53 0.52 0.0
H778 H 0.48939 0.58643 0.47779 0.0
C779 C 0.50232 0.55958 0.48774 0.0
C780 C 0.54296 0.42325 0.02128 0.0
C781 C 0.52696 0.40934 0.01659 0.0
C782 C 0.51321 0.41332 0.00072 0.0
C783 C 0.53168 0.44438 0.99425 0.0
C784 C 0.54494 0.44065 0.01005 0.0
C785 C 0.5609 0.45713 0.01323 0.0
H786 H 0.60537 0.54315 0.98147 0.0
C787 C 0.53803 0.46367 0.98553 0.0
C788 C 0.55503 0.47133 0.99672 0.0
H789 H 0.62245 0.50883 0.03297 0.0
H790 H 0.59384 0.48568 0.02623 0.0
H791 H 0.56072 0.54329 0.99026 0.0
H792 H 0.59076 0.50542 0.95101 0.0
H793 H 0.56953 0.51519 0.93842 0.0
H794 H 0.58937 0.53184 0.94834 0.0
H795 H 0.56492 0.55043 0.96514 0.0
H796 H 0.54251 0.536 0.97162 0.0
C797 C 0.55868 0.46629 0.03406 0.0
C798 C 0.58168 0.44844 0.01018 0.0
C799 C 0.50186 0.48807 0.92268 0.0
C800 C 0.50363 0.50584 0.91167 0.0
C801 C 0.51773 0.52092 0.91876 0.0
C802 C 0.53033 0.51804 0.93563 0.0
C803 C 0.52874 0.50002 0.94594 0.0
C804 C 0.51424 0.48568 0.93983 0.0
C805 C 0.5135 0.46823 0.95375 0.0
C806 C 0.53045 0.47425 0.96881 0.0
C807 C 0.53959 0.49269 0.96388 0.0
C808 C 0.49261 0.46707 0.96318 0.0
C809 C 0.51824 0.44944 0.94196 0.0
C810 C 0.60298 0.53049 0.99111 0.0
C811 C 0.61622 0.52746 0.00752 0.0
C812 C 0.61243 0.51125 0.02017 0.0
C813 C 0.59586 0.49787 0.01619 0.0
C814 C 0.58286 0.50089 0.99952 0.0
C815 C 0.58632 0.51721 0.98753 0.0
C816 C 0.57022 0.51883 0.97127 0.0
C817 C 0.55694 0.50034 0.97499 0.0
C818 C 0.56453 0.48979 0.99142 0.0
C819 C 0.55903 0.53815 0.97455 0.0
C820 C 0.58038 0.51786 0.95112 0.0
H821 H 0.50469 0.43275 0.97748 0.0
H822 H 0.55363 0.42072 0.03355 0.0
H823 H 0.58082 0.43822 0.99716 0.0
H824 H 0.59356 0.45982 0.00698 0.0
H825 H 0.58672 0.43985 0.02339 0.0
H826 H 0.54269 0.46525 0.03837 0.0
H827 H 0.56777 0.45851 0.0456 0.0
H828 H 0.56295 0.48235 0.03465 0.0
H829 H 0.49135 0.47603 0.91802 0.0
H830 H 0.51908 0.53512 0.91136 0.0
H831 H 0.54088 0.52997 0.93997 0.0
H832 H 0.48595 0.48188 0.96354 0.0
H833 H 0.48174 0.45687 0.95468 0.0
H834 H 0.49352 0.46236 0.97889 0.0
H835 H 0.53115 0.45265 0.93233 0.0
H836 H 0.52275 0.43705 0.95158 0.0
H837 H 0.50505 0.44425 0.93226 0.0
H838 H 0.50088 0.40275 0.9967 0.0
C839 C 0.5155 0.43071 0.98951 0.0
C840 C 0.75858 0.1581 0.26997 0.0
C841 C 0.75852 0.14584 0.25311 0.0
C842 C 0.74288 0.14722 0.23837 0.0
C843 C 0.72796 0.17288 0.25731 0.0
C844 C 0.74332 0.17148 0.2717 0.0
C845 C 0.74181 0.18612 0.28829 0.0
H846 H 0.69551 0.26258 0.32835 0.0
C847 C 0.71471 0.18853 0.26359 0.0
C848 C 0.72281 0.19634 0.2817 0.0
H849 H 0.74961 0.23469 0.34968 0.0
H850 H 0.74624 0.21145 0.3227 0.0
H851 H 0.67025 0.22205 0.31836 0.0
H852 H 0.70483 0.26109 0.28083 0.0
H853 H 0.68107 0.25508 0.26897 0.0
H854 H 0.68233 0.26798 0.29235 0.0
H855 H 0.66029 0.24446 0.30859 0.0
H856 H 0.6578 0.22139 0.29482 0.0
C857 C 0.73904 0.17431 0.30777 0.0
C858 C 0.76082 0.20051 0.28849 0.0
C859 C 0.65298 0.20497 0.22055 0.0
C860 C 0.63714 0.21779 0.223 0.0
C861 C 0.63744 0.22943 0.24046 0.0
C862 C 0.65323 0.22853 0.25494 0.0
C863 C 0.6689 0.21572 0.25215 0.0
C864 C 0.66842 0.20398 0.23532 0.0
C865 C 0.68572 0.19041 0.23534 0.0
C866 C 0.69678 0.19608 0.25486 0.0
C867 C 0.68703 0.21113 0.26452 0.0
C868 C 0.67695 0.16868 0.2354 0.0
C869 C 0.69856 0.19575 0.21732 0.0
C870 C 0.70655 0.25139 0.32719 0.0
C871 C 0.72308 0.25076 0.34098 0.0
C872 C 0.73705 0.23588 0.339 0.0
C873 C 0.735 0.22227 0.32334 0.0
C874 C 0.7188 0.2234 0.30937 0.0
C875 C 0.70476 0.23762 0.31147 0.0
C876 C 0.68845 0.23626 0.29515 0.0
C877 C 0.69543 0.21928 0.28271 0.0
C878 C 0.7132 0.21185 0.29119 0.0
C879 C 0.66805 0.2309 0.30459 0.0
C880 C 0.689 0.25614 0.28368 0.0
H881 H 0.71615 0.161 0.22866 0.0
H882 H 0.7706 0.15772 0.28137 0.0
H883 H 0.76667 0.20233 0.27337 0.0
H884 H 0.75775 0.21575 0.29311 0.0
H885 H 0.7732 0.19492 0.29827 0.0
H886 H 0.72941 0.16052 0.30496 0.0
H887 H 0.75378 0.16987 0.31433 0.0
H888 H 0.73118 0.18255 0.319 0.0
H889 H 0.65357 0.19592 0.20735 0.0
H890 H 0.62533 0.23911 0.24315 0.0
H891 H 0.65258 0.23778 0.26782 0.0
H892 H 0.66324 0.16731 0.24429 0.0
H893 H 0.67259 0.16344 0.22011 0.0
H894 H 0.68742 0.15827 0.24242 0.0
H895 H 0.69953 0.21209 0.21494 0.0
H896 H 0.71436 0.19153 0.2194 0.0
H897 H 0.69183 0.1887 0.20351 0.0
H898 H 0.74246 0.13787 0.22527 0.0
C899 C 0.72759 0.16061 0.2404 0.0
C900 C 0.40542 0.97175 0.9706 0.0
C901 C 0.40038 0.95498 0.95864 0.0
C902 C 0.4124 0.95109 0.9425 0.0
C903 C 0.43413 0.98019 0.95065 0.0
C904 C 0.4223 0.98404 0.96641 0.0
C905 C 0.42995 0.00218 0.97797 0.0
H906 H 0.49896 0.07898 0.99042 0.0
C907 C 0.45074 0.99562 0.9506 0.0
C908 C 0.4484 0.0085 0.96666 0.0
H909 H 0.44644 0.06564 0.02458 0.0
H910 H 0.43836 0.03627 0.00479 0.0
H911 H 0.47688 0.07119 0.94926 0.0
H912 H 0.51286 0.03416 0.98688 0.0
H913 H 0.51951 0.02956 0.96247 0.0
H914 H 0.52353 0.05425 0.97273 0.0
H915 H 0.50389 0.07404 0.95115 0.0
H916 H 0.49091 0.0574 0.93329 0.0
C917 C 0.41353 0.01772 0.97639 0.0
C918 C 0.43566 0.99574 0.99947 0.0
C919 C 0.50201 0.99625 0.8965 0.0
C920 C 0.51857 0.00929 0.89263 0.0
C921 C 0.52394 0.02488 0.9061 0.0
C922 C 0.51277 0.02786 0.92279 0.0
C923 C 0.49591 0.01517 0.92617 0.0
C924 C 0.49085 -0.00046 0.9133 0.0
C925 C 0.47238 0.98765 0.9195 0.0
C926 C 0.4671 0.99899 0.93794 0.0
C927 C 0.48098 0.01507 0.94169 0.0
C928 C 0.45583 0.98879 0.90265 0.0
C929 C 0.47859 0.96633 0.9245 0.0
C930 C 0.48566 0.06982 0.99363 0.0
C931 C 0.47334 0.07476 0.00913 0.0
C932 C 0.45637 0.06212 0.01293 0.0
C933 C 0.45158 0.04514 0.00127 0.0
C934 C 0.46381 0.0407 0.98556 0.0
C935 C 0.48057 0.05293 0.98205 0.0
C936 C 0.49158 0.04629 0.96445 0.0
C937 C 0.47865 0.02805 0.95791 0.0
C938 C 0.46245 0.0248 0.97033 0.0
C939 C 0.49101 0.06304 0.94868 0.0
C940 C 0.51306 0.04088 0.97183 0.0
H941 H 0.43773 0.95981 0.92598 0.0
H942 H 0.3967 0.97502 0.98328 0.0
H943 H 0.44255 0.98103 -0.00045 0.0
H944 H 0.44713 0.0059 0.00699 0.0
H945 H 0.42215 0.99444 0.00857 0.0
H946 H 0.40542 0.017 0.96157 0.0
H947 H 0.40216 0.01511 0.98778 0.0
H948 H 0.41982 0.03317 0.97768 0.0
H949 H 0.49754 0.98412 0.88644 0.0
H950 H 0.5369 0.03485 0.90372 0.0
H951 H 0.51764 0.04008 0.93231 0.0
H952 H 0.45592 0.00393 0.8961 0.0
H953 H 0.45832 0.97813 0.89054 0.0
H954 H 0.44043 0.98604 0.90782 0.0
H955 H 0.49416 0.9665 0.93135 0.0
H956 H 0.46904 0.95896 0.93558 0.0
H957 H 0.47828 0.95695 0.91093 0.0
H958 H 0.40874 0.93838 0.93293 0.0
C959 C 0.4292 0.96359 0.93845 0.0
Mg960 Mg 0.24174 0.85035 0.01247 0.0
O961 O 0.2715 0.8653 0.00227 0.0
O962 O 0.29419 0.84185 0.00428 0.0
Mg963 Mg 0.28004 0.81317 0.01662 0.0
C964 C 0.28931 0.8595 7e-05 0.0
C965 C 0.20434 0.87015 0.99781 0.0
O966 O 0.19871 0.85143 0.00057 0.0
O967 O 0.23771 0.83326 0.98302 0.0
O968 O 0.25978 0.80963 0.98833 0.0
O969 O 0.24979 0.8588 0.04425 0.0
O970 O 0.25773 0.83092 0.03017 0.0
C971 C 0.24588 0.81746 0.97771 0.0
C972 C 0.25883 0.84224 0.04556 0.0
O973 O 0.2229 0.87541 0.00057 0.0
Mg974 Mg 0.15491 0.506 0.26728 0.0
O975 O 0.13885 0.50722 0.23631 0.0
O976 O 0.16263 0.5114 0.21411 0.0
Mg977 Mg 0.19354 0.5122 0.23038 0.0
C978 C 0.14413 0.5094 0.21843 0.0
C979 C 0.11077 0.50735 0.27881 0.0
O980 O 0.11276 0.52275 0.26701 0.0
O981 O 0.16369 0.47421 0.26143 0.0
O982 O 0.18763 0.47967 0.23949 0.0
O983 O 0.15545 0.53909 0.26958 0.0
O984 O 0.17976 0.52239 0.25721 0.0
C985 C 0.17699 0.46795 0.25016 0.0
C986 C 0.17251 0.53924 0.26105 0.0
O987 O 0.12544 0.49605 0.28122 0.0
Mg988 Mg 0.77221 0.6531 0.01742 0.0
O989 O 0.7435 0.63259 0.01893 0.0
O990 O 0.71707 0.65192 0.01885 0.0
Mg991 Mg 0.72831 0.6842 0.01543 0.0
C992 C 0.72456 0.63485 0.01959 0.0
C993 C 0.79337 0.6143 0.02724 0.0
O994 O 0.78258 0.61648 0.04288 0.0
O995 O 0.76585 0.65723 0.98399 0.0
O996 O 0.73979 0.67693 0.98484 0.0
O997 O 0.77333 0.65798 0.05058 0.0
O998 O 0.75744 0.67675 0.02888 0.0
C999 C 0.7525 0.66757 0.97523 0.0
C1000 C 0.76209 0.67283 0.04709 0.0
O1001 O 0.79164 0.62656 0.01303 0.0
Mg1002 Mg 0.9088 0.03063 0.23983 0.0
O1003 O 0.88798 0.00233 0.23761 0.0
O1004 O 0.90741 0.97673 0.2332 0.0
Mg1005 Mg 0.94026 0.98824 0.2328 0.0
C1006 C 0.89013 0.98378 0.23519 0.0
C1007 C 0.87869 0.06316 0.23912 0.0
O1008 O 0.89045 0.06753 0.22445 0.0
O1009 O 0.91901 0.02238 0.27154 0.0
O1010 O 0.93865 0.99724 0.26557 0.0
O1011 O 0.90673 0.03409 0.20698 0.0
O1012 O 0.9301 0.01721 0.22276 0.0
C1013 C 0.93082 0.00902 0.27757 0.0
C1014 C 0.92198 0.02297 0.20617 0.0
O1015 O 0.88253 0.04826 0.24996 0.0
Mg1016 Mg 0.26918 0.15491 0.52139 0.0
O1017 O 0.23904 0.13599 0.51961 0.0
O1018 O 0.21478 0.15774 0.51607 0.0
Mg1019 Mg 0.22839 0.18933 0.51515 0.0
C1020 C 0.2204 0.13995 0.51767 0.0
C1021 C 0.30623 0.13312 0.51369 0.0
O1022 O 0.31086 0.15209 0.51108 0.0
O1023 O 0.26678 0.16017 0.48789 0.0
O1024 O 0.24224 0.18174 0.48568 0.0
O1025 O 0.26727 0.15868 0.55435 0.0
O1026 O 0.25474 0.17905 0.53197 0.0
C1027 C 0.25531 0.17138 0.47772 0.0
C1028 C 0.25726 0.1743 0.55034 0.0
O1029 O 0.28821 0.12797 0.51774 0.0
Mg1030 Mg 0.41366 0.53304 0.73851 0.0
O1031 O 0.39329 0.5044 0.73714 0.0
O1032 O 0.41304 0.4789 0.73344 0.0
Mg1033 Mg 0.44569 0.49086 0.73308 0.0
C1034 C 0.39566 0.48582 0.73516 0.0
C1035 C 0.38947 0.56931 0.74815 0.0
O1036 O 0.40718 0.57756 0.74424 0.0
O1037 O 0.42422 0.52616 0.77033 0.0
O1038 O 0.44378 0.50059 0.76571 0.0
O1039 O 0.41132 0.53556 0.70575 0.0
O1040 O 0.43506 0.51939 0.72195 0.0
C1041 C 0.43586 0.51295 0.77702 0.0
C1042 C 0.42668 0.52452 0.70523 0.0
O1043 O 0.38723 0.55049 0.74816 0.0
Mg1044 Mg 0.74478 0.34902 0.50756 0.0
O1045 O 0.77475 0.36582 0.50024 0.0
O1046 O 0.79836 0.34326 0.50176 0.0
Mg1047 Mg 0.78422 0.31294 0.50933 0.0
C1048 C 0.79303 0.361 0.49887 0.0
C1049 C 0.70739 0.36961 0.49418 0.0
O1050 O 0.70179 0.35071 0.49562 0.0
O1051 O 0.74255 0.33523 0.47651 0.0
O1052 O 0.76672 0.3133 0.47916 0.0
O1053 O 0.75134 0.35443 0.54002 0.0
O1054 O 0.76052 0.3282 0.52374 0.0
C1055 C 0.75267 0.32161 0.46918 0.0
C1056 C 0.76085 0.33813 0.54006 0.0
O1057 O 0.72591 0.37477 0.49748 0.0
Mg1058 Mg 0.65611 0.00287 0.76448 0.0
O1059 O 0.63886 0.00478 0.73412 0.0
O1060 O 0.66207 0.00953 0.7114 0.0
Mg1061 Mg 0.69351 0.0096 0.7264 0.0
C1062 C 0.6437 0.00751 0.71616 0.0
C1063 C 0.62512 0.00453 0.79461 0.0
O1064 O 0.63949 0.01808 0.79915 0.0
O1065 O 0.66436 0.97104 0.7577 0.0
O1066 O 0.68742 0.97697 0.73496 0.0
O1067 O 0.65676 0.03596 0.76693 0.0
O1068 O 0.68072 0.01942 0.7538 0.0
C1069 C 0.67713 0.96501 0.7457 0.0
C1070 C 0.67353 0.03621 0.75794 0.0
O1071 O 0.62714 0.99326 0.77978 0.0
Mg1072 Mg 0.03584 0.26071 0.90485 0.0
O1073 O 0.00605 0.25383 0.88701 0.0
O1074 O 0.98398 0.24049 0.90792 0.0
Mg1075 Mg 0.99892 0.24042 0.9391 0.0
C1076 C 0.98863 0.24617 0.89059 0.0
C1077 C 0.06513 0.28757 0.88182 0.0
O1078 O 0.0729 0.28905 0.90007 0.0
O1079 O 0.02257 0.28844 0.91747 0.0
O1080 O 0.00142 0.27453 0.93891 0.0
O1081 O 0.04497 0.22953 0.90026 0.0
O1082 O 0.02822 0.23928 0.92574 0.0
C1083 C 0.00971 0.28984 0.93087 0.0
C1084 C 0.03565 0.22504 0.91621 0.0
O1085 O 0.04862 0.27749 0.87867 0.0
Mg1086 Mg 0.5357 0.75965 0.4072 0.0
O1087 O 0.50484 0.75415 0.39049 0.0
O1088 O 0.48375 0.74259 0.41321 0.0
Mg1089 Mg 0.50026 0.74047 0.44342 0.0
C1090 C 0.4873 0.74784 0.39546 0.0
C1091 C 0.56757 0.77133 0.38025 0.0
O1092 O 0.57493 0.75979 0.39421 0.0
O1093 O 0.52413 0.7879 0.42074 0.0
O1094 O 0.50421 0.77442 0.44351 0.0
O1095 O 0.54339 0.72823 0.4016 0.0
O1096 O 0.52813 0.73803 0.42797 0.0
C1097 C 0.51233 0.78956 0.43504 0.0
C1098 C 0.5346 0.7237 0.41781 0.0
O1099 O 0.54931 0.77599 0.38101 0.0
Mg1100 Mg 0.9881 0.73993 0.60203 0.0
O1101 O 0.01832 0.73591 0.61939 0.0
O1102 O 0.04136 0.7304 0.59715 0.0
Mg1103 Mg 0.02637 0.73132 0.566 0.0
C1104 C 0.03636 0.73243 0.61507 0.0
C1105 C 0.9575 0.74026 0.63347 0.0
O1106 O 0.95152 0.72591 0.62105 0.0
O1107 O 0.99868 0.77127 0.59295 0.0
O1108 O 0.02116 0.76453 0.57048 0.0
O1109 O 0.98151 0.7072 0.60238 0.0
O1110 O 0.99723 0.72283 0.57841 0.0
C1111 C 0.01142 0.7769 0.58021 0.0
C1112 C 0.99058 0.70634 0.58587 0.0
O1113 O 0.97347 0.75063 0.62998 0.0
Mg1114 Mg 0.48432 0.23846 0.09691 0.0
O1115 O 0.5135 0.2344 0.11596 0.0
O1116 O 0.53719 0.22583 0.0955 0.0
Mg1117 Mg 0.524 0.22657 0.06362 0.0
C1118 C 0.53139 0.22938 0.11287 0.0
C1119 C 0.45146 0.2421 0.12507 0.0
O1120 O 0.44501 0.22908 0.11142 0.0
O1121 O 0.49644 0.26891 0.08698 0.0
O1122 O 0.52002 0.26032 0.06638 0.0
O1123 O 0.47645 0.20605 0.0986 0.0
O1124 O 0.49389 0.21984 0.07471 0.0
C1125 C 0.51016 0.27349 0.07487 0.0
C1126 C 0.48627 0.20399 0.08267 0.0
O1127 O 0.46878 0.25073 0.12351 0.0
H1128 H 0.21395 0.78828 0.85432 0.0
H1129 H 0.25025 0.77893 0.96801 0.0
H1130 H 0.22829 0.73349 0.88341 0.0
H1131 H 0.22614 0.83285 0.94461 0.0
H1132 H 0.24108 0.76234 0.93679 0.0
H1133 H 0.21657 0.80515 0.88682 0.0
C1134 C 0.21737 0.77978 0.86756 0.0
C1135 C 0.22128 0.75956 0.86619 0.0
C1136 C 0.23764 0.77777 0.93839 0.0
C1137 C 0.2244 0.77863 0.90314 0.0
C1138 C 0.24299 0.78732 0.95626 0.0
C1139 C 0.23915 0.80739 0.95888 0.0
C1140 C 0.22857 0.78835 0.92276 0.0
C1141 C 0.22942 0.81737 0.94317 0.0
C1142 C 0.21893 0.7894 0.88605 0.0
C1143 C 0.22563 0.7492 0.88375 0.0
N1144 N 0.22464 0.80779 0.92563 0.0
N1145 N 0.22724 0.75887 0.9014 0.0
H1146 H 0.02154 0.54274 0.35672 0.0
H1147 H 0.10238 0.47854 0.3065 0.0
H1148 H 0.03199 0.48258 0.37453 0.0
H1149 H 0.07937 0.53184 0.28049 0.0
H1150 H 0.07607 0.47874 0.33077 0.0
H1151 H 0.04224 0.53844 0.32817 0.0
C1152 C 0.02816 0.52858 0.35452 0.0
C1153 C 0.02523 0.51305 0.36804 0.0
C1154 C 0.07663 0.49023 0.31957 0.0
C1155 C 0.04903 0.508 0.33547 0.0
C1156 C 0.09164 0.49012 0.3057 0.0
C1157 C 0.09325 0.50534 0.29158 0.0
C1158 C 0.06331 0.50577 0.31943 0.0
C1159 C 0.07885 0.51991 0.2912 0.0
C1160 C 0.03988 0.52608 0.33818 0.0
C1161 C 0.0339 0.49491 0.3644 0.0
N1162 N 0.06468 0.5199 0.30508 0.0
N1163 N 0.04564 0.49295 0.34857 0.0
H1164 H 0.74034 0.73379 0.87023 0.0
H1165 H 0.78163 0.65838 0.94911 0.0
H1166 H 0.7805 0.68919 0.8524 0.0
H1167 H 0.72357 0.68418 0.9517 0.0
H1168 H 0.78337 0.66945 0.91444 0.0
H1169 H 0.73616 0.71653 0.90126 0.0
C1170 C 0.74805 0.72017 0.87258 0.0
C1171 C 0.76056 0.71286 0.85831 0.0
C1172 C 0.77015 0.67235 0.9226 0.0
C1173 C 0.75632 0.69327 0.8946 0.0
C1174 C 0.76912 0.66602 0.94234 0.0
C1175 C 0.75259 0.67068 0.95348 0.0
C1176 C 0.75466 0.68352 0.91416 0.0
C1177 C 0.7368 0.68057 0.9439 0.0
C1178 C 0.74573 0.71036 0.89049 0.0
C1179 C 0.7708 0.69552 0.86292 0.0
N1180 N 0.73838 0.68689 0.92495 0.0
N1181 N 0.76857 0.68637 0.88076 0.0
H1182 H 0.97595 0.03558 0.39741 0.0
H1183 H 0.94599 0.97712 0.2968 0.0
H1184 H 0.98215 0.97268 0.38959 0.0
H1185 H 0.92869 0.03699 0.30713 0.0
H1186 H 0.95833 0.97525 0.33125 0.0
H1187 H 0.95781 0.03657 0.36497 0.0
C1188 C 0.97339 0.02197 0.38893 0.0
C1189 C 0.98067 0.00403 0.39621 0.0
C1190 C 0.95169 0.98876 0.32609 0.0
C1191 C 0.95996 0.00507 0.3591 0.0
C1192 C 0.94467 0.98987 0.30636 0.0
C1193 C 0.93643 0.00731 0.29899 0.0
C1194 C 0.95076 0.00531 0.33861 0.0
C1195 C 0.93494 0.02326 0.31218 0.0
C1196 C 0.96295 0.02253 0.37047 0.0
C1197 C 0.97668 0.98681 0.3847 0.0
N1198 N 0.94227 0.02196 0.33131 0.0
N1199 N 0.96679 0.9878 0.36668 0.0
H1200 H 0.23125 0.23 0.66216 0.0
H1201 H 0.23959 0.20974 0.54599 0.0
H1202 H 0.23147 0.27549 0.61728 0.0
H1203 H 0.25756 0.16741 0.59058 0.0
H1204 H 0.22987 0.23179 0.57204 0.0
H1205 H 0.23457 0.20489 0.63613 0.0
C1206 C 0.23174 0.23462 0.6468 0.0
C1207 C 0.23127 0.25479 0.64179 0.0
C1208 C 0.23579 0.21762 0.57616 0.0
C1209 C 0.23495 0.22637 0.61215 0.0
C1210 C 0.24124 0.20492 0.56126 0.0
C1211 C 0.24948 0.18669 0.56609 0.0
C1212 C 0.23856 0.21213 0.59611 0.0
C1213 C 0.25136 0.18138 0.5862 0.0
C1214 C 0.23373 0.22036 0.63203 0.0
C1215 C 0.23204 0.2601 0.62175 0.0
N1216 N 0.24604 0.19411 0.60053 0.0
N1217 N 0.23387 0.24599 0.60768 0.0
H1218 H 0.47505 0.53383 0.59085 0.0
H1219 H 0.45322 0.49551 0.69787 0.0
H1220 H 0.48183 0.47194 0.6052 0.0
H1221 H 0.41797 0.54005 0.66881 0.0
H1222 H 0.46736 0.48785 0.66593 0.0
H1223 H 0.45759 0.53784 0.62124 0.0
C1224 C 0.47262 0.52091 0.60011 0.0
C1225 C 0.47977 0.50236 0.59505 0.0
C1226 C 0.45636 0.49913 0.6666 0.0
C1227 C 0.46039 0.50731 0.63062 0.0
C1228 C 0.44833 0.50357 0.68481 0.0
C1229 C 0.43441 0.51848 0.68603 0.0
C1230 C 0.45078 0.51004 0.6497 0.0
C1231 C 0.42864 0.52843 0.66858 0.0
C1232 C 0.46276 0.52334 0.61763 0.0
C1233 C 0.47682 0.48656 0.60842 0.0
N1234 N 0.43705 0.52422 0.6512 0.0
N1235 N 0.46749 0.48943 0.6257 0.0
H1236 H 0.80666 0.31906 0.66099 0.0
H1237 H 0.77911 0.30303 0.54508 0.0
H1238 H 0.80527 0.26263 0.63069 0.0
H1239 H 0.76709 0.35682 0.57624 0.0
H1240 H 0.79465 0.29017 0.57545 0.0
H1241 H 0.79795 0.33516 0.6292 0.0
C1242 C 0.80482 0.31016 0.64758 0.0
C1243 C 0.80647 0.28952 0.64838 0.0
C1244 C 0.78876 0.30486 0.57565 0.0
C1245 C 0.79657 0.30765 0.61225 0.0
C1246 C 0.77995 0.31227 0.55825 0.0
C1247 C 0.77171 0.33102 0.55811 0.0
C1248 C 0.78932 0.3162 0.59315 0.0
C1249 C 0.77315 0.34223 0.57573 0.0
C1250 C 0.79975 0.31929 0.62953 0.0
C1251 C 0.80388 0.27857 0.63069 0.0
N1252 N 0.78168 0.3346 0.59261 0.0
N1253 N 0.79898 0.28775 0.61339 0.0
H1254 H 0.58113 0.00167 0.60173 0.0
H1255 H 0.60238 0.00434 0.71925 0.0
H1256 H 0.53328 0.00258 0.64274 0.0
H1257 H 0.64847 0.01223 0.6764 0.0
H1258 H 0.57661 0.00433 0.692 0.0
H1259 H 0.60585 0.00648 0.62936 0.0
C1260 C 0.57587 0.00302 0.61661 0.0
C1261 C 0.5552 0.00159 0.62003 0.0
C1262 C 0.59238 0.00618 0.68864 0.0
C1263 C 0.5834 0.00693 0.65186 0.0
C1264 C 0.6071 0.00614 0.70417 0.0
C1265 C 0.62768 0.00814 0.70015 0.0
C1266 C 0.59829 0.00815 0.66897 0.0
C1267 C 0.63286 0.01052 0.6803 0.0
C1268 C 0.58996 0.0058 0.6324 0.0
C1269 C 0.54913 0.00366 0.63954 0.0
N1270 N 0.6183 0.01035 0.66552 0.0
N1271 N 0.5632 0.00601 0.65481 0.0
H1272 H 0.89446 0.20058 0.80857 0.0
H1273 H 0.98422 0.26899 0.85719 0.0
H1274 H 0.89701 0.26409 0.79954 0.0
H1275 H 0.95796 0.21791 0.88679 0.0
H1276 H 0.95743 0.26515 0.83082 0.0
H1277 H 0.92326 0.2045 0.83216 0.0
C1278 C 0.90097 0.21538 0.81155 0.0
C1279 C 0.89289 0.23209 0.80231 0.0
C1280 C 0.95766 0.25481 0.8431 0.0
C1281 C 0.92641 0.23649 0.82889 0.0
C1282 C 0.97292 0.25691 0.85805 0.0
C1283 C 0.9732 0.24378 0.8742 0.0
C1284 C 0.94299 0.23919 0.84414 0.0
C1285 C 0.95819 0.22844 0.87467 0.0
C1286 C 0.91751 0.21755 0.82494 0.0
C1287 C 0.90266 0.25077 0.80624 0.0
N1288 N 0.94376 0.22648 0.8598 0.0
N1289 N 0.91891 0.25249 0.8193 0.0
H1290 H 0.48768 0.91461 0.45034 0.0
H1291 H 0.49485 0.79827 0.46947 0.0
H1292 H 0.48481 0.88696 0.50781 0.0
H1293 H 0.51867 0.82615 0.41728 0.0
H1294 H 0.48644 0.83058 0.48157 0.0
H1295 H 0.49443 0.88213 0.4358 0.0
C1296 C 0.48828 0.90166 0.4598 0.0
C1297 C 0.4858 0.90335 0.48027 0.0
C1298 C 0.49353 0.82969 0.46748 0.0
C1299 C 0.49337 0.86652 0.46392 0.0
C1300 C 0.49832 0.8112 0.46049 0.0
C1301 C 0.50757 0.80945 0.44232 0.0
C1302 C 0.49784 0.84672 0.45621 0.0
C1303 C 0.51168 0.82683 0.43143 0.0
C1304 C 0.49226 0.88325 0.45157 0.0
C1305 C 0.48681 0.88626 0.49198 0.0
N1306 N 0.50673 0.8448 0.43853 0.0
N1307 N 0.49048 0.86859 0.48365 0.0
H1308 H 0.11576 0.30034 0.76651 0.0
H1309 H 0.10159 0.30837 0.8834 0.0
H1310 H 0.1627 0.32121 0.809 0.0
H1311 H 0.05564 0.28347 0.84193 0.0
H1312 H 0.12271 0.31684 0.85569 0.0
H1313 H 0.09231 0.29718 0.79337 0.0
C1314 C 0.12114 0.30427 0.78148 0.0
C1315 C 0.14128 0.31095 0.7855 0.0
C1316 C 0.10794 0.30966 0.85262 0.0
C1317 C 0.11445 0.30756 0.81629 0.0
C1318 C 0.09583 0.30486 0.86845 0.0
C1319 C 0.07688 0.29501 0.86501 0.0
C1320 C 0.10111 0.30453 0.83318 0.0
C1321 C 0.0702 0.29095 0.8453 0.0
C1322 C 0.10771 0.30257 0.79678 0.0
C1323 C 0.14729 0.31619 0.80513 0.0
N1324 N 0.08237 0.29557 0.83013 0.0
N1325 N 0.13397 0.31428 0.81978 0.0
H1326 H 0.53227 0.59509 0.42882 0.0
H1327 H 0.51916 0.71006 0.45232 0.0
H1328 H 0.50819 0.61742 0.4824 0.0
H1329 H 0.54283 0.6898 0.39772 0.0
H1330 H 0.51418 0.67577 0.46278 0.0
H1331 H 0.53564 0.62926 0.41642 0.0
C1332 C 0.52763 0.60713 0.43794 0.0
C1333 C 0.51979 0.60334 0.45663 0.0
C1334 C 0.52039 0.67875 0.44846 0.0
C1335 C 0.52358 0.64234 0.44257 0.0
C1336 C 0.52316 0.69839 0.44243 0.0
C1337 C 0.53129 0.70283 0.42405 0.0
C1338 C 0.52587 0.66333 0.4361 0.0
C1339 C 0.53649 0.68703 0.41202 0.0
C1340 C 0.52949 0.6266 0.43083 0.0
C1341 C 0.51392 0.61951 0.46775 0.0
N1342 N 0.53372 0.66794 0.41827 0.0
N1343 N 0.51598 0.63823 0.46057 0.0
H1344 H 0.87418 0.72494 0.72674 0.0
H1345 H 0.95775 0.77362 0.65731 0.0
H1346 H 0.88641 0.78832 0.72394 0.0
H1347 H 0.93025 0.71458 0.64972 0.0
H1348 H 0.9361 0.77876 0.68539 0.0
H1349 H 0.89958 0.72034 0.70248 0.0
C1350 C 0.88243 0.7379 0.72124 0.0
C1351 C 0.87813 0.75705 0.7274 0.0
C1352 C 0.93494 0.76469 0.67756 0.0
C1353 C 0.90712 0.75189 0.69925 0.0
C1354 C 0.9473 0.76173 0.66163 0.0
C1355 C 0.94568 0.74371 0.65109 0.0
C1356 C 0.92119 0.74938 0.68309 0.0
C1357 C 0.93189 0.72879 0.65727 0.0
C1358 C 0.89682 0.73527 0.70723 0.0
C1359 C 0.8891 0.77331 0.71944 0.0
N1360 N 0.92024 0.73196 0.67283 0.0
N1361 N 0.90309 0.77037 0.70572 0.0
H1362 H 0.05505 0.88858 0.53163 0.0
H1363 H 0.98643 0.80717 0.58739 0.0
H1364 H 0.99198 0.89531 0.54124 0.0
H1365 H 0.04324 0.79533 0.56226 0.0
H1366 H 0.99038 0.8417 0.57621 0.0
H1367 H 0.05302 0.85658 0.54859 0.0
C1368 C 0.04083 0.88344 0.53754 0.0
C1369 C 0.02362 0.89457 0.53492 0.0
C1370 C 0.00203 0.83154 0.5733 0.0
C1371 C 0.02116 0.85788 0.55423 0.0
C1372 C 0.99984 0.81187 0.57977 0.0
C1373 C 0.01444 0.79828 0.57559 0.0
C1374 C 0.01904 0.83768 0.56283 0.0
C1375 C 0.03149 0.80521 0.56561 0.0
C1376 C 0.03965 0.86511 0.54711 0.0
C1377 C 0.00554 0.88707 0.54271 0.0
N1378 N 0.03328 0.82438 0.55954 0.0
N1379 N 0.00476 0.86915 0.55197 0.0
H1380 H 0.14938 0.72019 0.68205 0.0
H1381 H 0.03217 0.73457 0.65543 0.0
H1382 H 0.10496 0.72514 0.72631 0.0
H1383 H 0.07651 0.72623 0.61169 0.0
H1384 H 0.05854 0.73158 0.68165 0.0
H1385 H 0.12276 0.72253 0.65612 0.0
C1386 C 0.13401 0.72161 0.68634 0.0
C1387 C 0.12944 0.72244 0.70644 0.0
C1388 C 0.06247 0.73039 0.66631 0.0
C1389 C 0.09883 0.72542 0.67672 0.0
C1390 C 0.04742 0.73212 0.65131 0.0
C1391 C 0.05207 0.73066 0.63126 0.0
C1392 C 0.08235 0.72722 0.66126 0.0
C1393 C 0.07214 0.72745 0.62689 0.0
C1394 C 0.1188 0.72308 0.6715 0.0
C1395 C 0.10925 0.72469 0.71104 0.0
N1396 N 0.08649 0.72587 0.64173 0.0
N1397 N 0.09471 0.7261 0.69631 0.0
H1398 H 0.98719 0.61821 0.49352 0.0
H1399 H 0.98147 0.66903 0.59971 0.0
H1400 H 0.97528 0.58519 0.5469 0.0
H1401 H 0.00313 0.7001 0.54836 0.0
H1402 H 0.98037 0.63794 0.58098 0.0
H1403 H 0.99427 0.64808 0.51356 0.0
C1404 C 0.98629 0.61715 0.50947 0.0
C1405 C 0.98053 0.5991 0.51849 0.0
C1406 C 0.98557 0.65152 0.57386 0.0
C1407 C 0.98831 0.63345 0.54154 0.0
C1408 C 0.98622 0.66928 0.58456 0.0
C1409 C 0.99229 0.6872 0.57554 0.0
C1410 C 0.99083 0.65169 0.55393 0.0
C1411 C 0.99833 0.68663 0.55589 0.0
C1412 C 0.99025 0.63428 0.52091 0.0
C1413 C 0.97928 0.59881 0.53923 0.0
N1414 N 0.99724 0.66919 0.54567 0.0
N1415 N 0.98301 0.61574 0.55002 0.0
H1416 H 0.76891 0.92823 0.2366 0.0
H1417 H 0.88891 0.94342 0.2308 0.0
H1418 H 0.80917 0.88102 0.22789 0.0
H1419 H 0.8503 0.99218 0.23905 0.0
H1420 H 0.8595 0.92051 0.23056 0.0
H1421 H 0.79819 0.95202 0.2388 0.0
C1422 C 0.7839 0.92287 0.23528 0.0
C1423 C 0.7866 0.90265 0.23184 0.0
C1424 C 0.8574 0.93621 0.23243 0.0
C1425 C 0.82003 0.92968 0.23423 0.0
C1426 C 0.87424 0.94936 0.23255 0.0
C1427 C 0.87214 0.96983 0.23491 0.0
C1428 C 0.83818 0.94347 0.23467 0.0
C1429 C 0.85266 0.97654 0.23715 0.0
C1430 C 0.80057 0.93644 0.23643 0.0
C1431 C 0.80633 0.89651 0.23015 0.0
N1432 N 0.83641 0.96339 0.23696 0.0
N1433 N 0.82222 0.90994 0.23131 0.0
H1434 H 0.77934 0.13974 0.21977 0.0
H1435 H 0.85253 0.06113 0.2697 0.0
H1436 H 0.77586 0.12141 0.28084 0.0
H1437 H 0.86372 0.0916 0.21472 0.0
H1438 H 0.82244 0.08037 0.27308 0.0
H1439 H 0.80808 0.11894 0.21643 0.0
C1440 C 0.78449 0.13116 0.23242 0.0
C1441 C 0.77521 0.13233 0.25061 0.0
C1442 C 0.83154 0.08282 0.26031 0.0
C1443 C 0.80826 0.10862 0.24698 0.0
C1444 C 0.84869 0.07186 0.25837 0.0
C1445 C 0.8607 0.07479 0.24193 0.0
C1446 C 0.82628 0.09663 0.2456 0.0
C1447 C 0.85499 0.08887 0.22769 0.0
C1448 C 0.80101 0.11942 0.23056 0.0
C1449 C 0.78272 0.12109 0.2666 0.0
N1450 N 0.83819 0.09919 0.22982 0.0
N1451 N 0.7988 0.10969 0.26442 0.0
H1452 H 0.3628 0.96434 0.97001 0.0
H1453 H 0.32702 0.85122 0.98884 0.0
H1454 H 0.39861 0.91435 0.95822 0.0
H1455 H 0.28771 0.89987 0.99433 0.0
H1456 H 0.35331 0.87441 0.97769 0.0
H1457 H 0.33511 0.9413 0.97914 0.0
C1458 C 0.36484 0.94852 0.96934 0.0
C1459 C 0.38308 0.94126 0.96336 0.0
C1460 C 0.33893 0.88005 0.98126 0.0
C1461 C 0.35144 0.91483 0.97372 0.0
C1462 C 0.32386 0.8668 0.98769 0.0
C1463 C 0.30508 0.87358 0.99263 0.0
C1464 C 0.33534 0.90035 0.97983 0.0
C1465 C 0.30194 0.89396 0.99069 0.0
C1466 C 0.34899 0.93539 0.97445 0.0
C1467 C 0.38477 0.92062 0.96252 0.0
N1468 N 0.31696 0.90664 0.98454 0.0
N1469 N 0.36922 0.90816 0.96773 0.0
H1470 H 0.23116 0.35788 0.22518 0.0
H1471 H 0.17132 0.44067 0.27987 0.0
H1472 H 0.2261 0.36027 0.28875 0.0
H1473 H 0.19358 0.44707 0.22099 0.0
H1474 H 0.18426 0.4072 0.28155 0.0
H1475 H 0.21059 0.38681 0.22188 0.0
C1476 C 0.22571 0.36444 0.23846 0.0
C1477 C 0.23069 0.35677 0.25731 0.0
C1478 C 0.18606 0.41588 0.26819 0.0
C1479 C 0.20679 0.38973 0.25356 0.0
C1480 C 0.17857 0.4349 0.26717 0.0
C1481 C 0.1816 0.44673 0.25035 0.0
C1482 C 0.19638 0.40863 0.25218 0.0
C1483 C 0.19116 0.43855 0.23434 0.0
C1484 C 0.21386 0.38088 0.23654 0.0
C1485 C 0.22264 0.36558 0.27391 0.0
N1486 N 0.19829 0.42007 0.23569 0.0
N1487 N 0.21122 0.38169 0.27166 0.0
H1488 H 0.15143 0.02647 0.51121 0.0
H1489 H 0.17959 0.14329 0.51475 0.0
H1490 H 0.10848 0.07202 0.5029 0.0
H1491 H 0.22479 0.09939 0.51866 0.0
H1492 H 0.15347 0.11687 0.51229 0.0
H1493 H 0.17851 0.05241 0.51589 0.0
C1494 C 0.14768 0.04191 0.51048 0.0
C1495 C 0.12767 0.04709 0.50653 0.0
C1496 C 0.16908 0.11293 0.5137 0.0
C1497 C 0.15852 0.07676 0.51179 0.0
C1498 C 0.18409 0.12807 0.51513 0.0
C1499 C 0.20453 0.12363 0.51684 0.0
C1500 C 0.17437 0.09305 0.51397 0.0
C1501 C 0.20926 0.10354 0.51733 0.0
C1502 C 0.16315 0.05669 0.51306 0.0
C1503 C 0.1237 0.06732 0.50558 0.0
N1504 N 0.19428 0.08897 0.51585 0.0
N1505 N 0.13895 0.08136 0.50818 0.0
H1506 H 0.76609 0.12678 0.73887 0.0
H1507 H 0.65921 0.07362 0.75836 0.0
H1508 H 0.71079 0.15763 0.73319 0.0
H1509 H 0.71174 0.04172 0.74509 0.0
H1510 H 0.67778 0.10484 0.75096 0.0
H1511 H 0.74645 0.09563 0.74325 0.0
C1512 C 0.74978 0.12696 0.73859 0.0
C1513 C 0.74001 0.14476 0.73578 0.0
C1514 C 0.68515 0.09098 0.74952 0.0
C1515 C 0.71744 0.10922 0.74075 0.0
C1516 C 0.67459 0.07318 0.75378 0.0
C1517 C 0.68397 0.05507 0.75236 0.0
C1518 C 0.70528 0.09064 0.74409 0.0
C1519 C 0.7039 0.05533 0.74632 0.0
C1520 C 0.73858 0.10918 0.74096 0.0
C1521 C 0.71885 0.14417 0.73526 0.0
N1522 N 0.71395 0.07285 0.74257 0.0
N1523 N 0.70823 0.12667 0.7379 0.0
H1524 H 0.37899 0.0293 0.52563 0.0
H1525 H 0.34624 0.14076 0.5082 0.0
H1526 H 0.41972 0.08104 0.53141 0.0
H1527 H 0.30305 0.09262 0.51967 0.0
H1528 H 0.37326 0.11774 0.51132 0.0
H1529 H 0.35097 0.05109 0.51844 0.0
C1530 C 0.38203 0.04523 0.52525 0.0
C1531 C 0.40165 0.05342 0.52926 0.0
C1532 C 0.35788 0.11216 0.51309 0.0
C1533 C 0.36985 0.0783 0.52097 0.0
C1534 C 0.34238 0.1253 0.51124 0.0
C1535 C 0.32232 0.11866 0.51385 0.0
C1536 C 0.35338 0.09214 0.51748 0.0
C1537 C 0.31832 0.0984 0.51766 0.0
C1538 C 0.36606 0.05762 0.52125 0.0
C1539 C 0.40479 0.07413 0.52867 0.0
N1540 N 0.33374 0.08583 0.51943 0.0
N1541 N 0.38908 0.08583 0.52459 0.0
H1542 H 0.64133 0.47767 0.48616 0.0
H1543 H 0.6667 0.36286 0.48869 0.0
H1544 H 0.59749 0.42959 0.49542 0.0
H1545 H 0.71283 0.41033 0.49247 0.0
H1546 H 0.64102 0.38739 0.48649 0.0
H1547 H 0.66754 0.45345 0.48414 0.0
C1548 C 0.63722 0.46202 0.48764 0.0
C1549 C 0.61725 0.45562 0.49109 0.0
C1550 C 0.65675 0.39248 0.48772 0.0
C1551 C 0.64705 0.42791 0.48876 0.0
C1552 C 0.67147 0.37846 0.48891 0.0
C1553 C 0.69198 0.38453 0.49094 0.0
C1554 C 0.66251 0.41279 0.4885 0.0
C1555 C 0.69719 0.40498 0.49103 0.0
C1556 C 0.65217 0.44823 0.48657 0.0
C1557 C 0.61275 0.43518 0.49302 0.0
N1558 N 0.68253 0.4184 0.48993 0.0
N1559 N 0.62752 0.42208 0.49182 0.0
H1560 H 0.69483 0.2651 0.3653 0.0
H1561 H 0.77859 0.30616 0.44408 0.0
H1562 H 0.75838 0.26971 0.35427 0.0
H1563 H 0.71657 0.32157 0.4474 0.0
H1564 H 0.77085 0.29238 0.41109 0.0
H1565 H 0.70152 0.28589 0.39505 0.0
C1566 C 0.71012 0.27071 0.36895 0.0
C1567 C 0.72614 0.26533 0.35751 0.0
C1568 C 0.75892 0.29893 0.41889 0.0
C1569 C 0.73387 0.28881 0.39151 0.0
C1570 C 0.76333 0.30672 0.43779 0.0
C1571 C 0.74816 0.31488 0.44853 0.0
C1572 C 0.73909 0.29891 0.41073 0.0
C1573 C 0.72868 0.3154 0.43957 0.0
C1574 C 0.71392 0.28252 0.38594 0.0
C1575 C 0.74564 0.273 0.36295 0.0
N1576 N 0.7246 0.30723 0.42124 0.0
N1577 N 0.74898 0.28411 0.37965 0.0
H1578 H 0.53054 0.03862 0.86754 0.0
H1579 H 0.59861 0.97256 0.8014 0.0
H1580 H 0.53313 0.97546 0.87662 0.0
H1581 H 0.60975 0.03503 0.8138 0.0
H1582 H 0.56937 0.97245 0.82279 0.0
H1583 H 0.5538 0.03645 0.84084 0.0
C1584 C 0.53595 0.02425 0.86382 0.0
C1585 C 0.53028 0.00727 0.87461 0.0
C1586 C 0.57821 0.98614 0.82062 0.0
C1587 C 0.55691 0.00465 0.84394 0.0
C1588 C 0.59477 0.98623 0.80843 0.0
C1589 C 0.60667 0.00379 0.80602 0.0
C1590 C 0.5734 0.00384 0.82996 0.0
C1591 C 0.60115 0.02111 0.81543 0.0
C1592 C 0.5492 0.02301 0.84856 0.0
C1593 C 0.53728 0.98892 0.86875 0.0
N1594 N 0.58495 0.02069 0.82692 0.0
N1595 N 0.55049 0.9881 0.85391 0.0
H1596 H 0.23729 0.20865 0.35688 0.0
H1597 H 0.28952 0.16762 0.45691 0.0
H1598 H 0.30147 0.21469 0.37035 0.0
H1599 H 0.22668 0.18064 0.44961 0.0
H1600 H 0.29396 0.17672 0.42203 0.0
H1601 H 0.23325 0.19017 0.38765 0.0
C1602 C 0.25056 0.20599 0.36625 0.0
C1603 C 0.2697 0.21361 0.36122 0.0
C1604 C 0.27917 0.17729 0.42805 0.0
C1605 C 0.26518 0.19224 0.39639 0.0
C1606 C 0.2766 0.172 0.44787 0.0
C1607 C 0.25776 0.17363 0.45617 0.0
C1608 C 0.2627 0.18392 0.41649 0.0
C1609 C 0.24152 0.17945 0.44385 0.0
C1610 C 0.24824 0.19536 0.38377 0.0
C1611 C 0.28643 0.20915 0.37365 0.0
N1612 N 0.24439 0.18447 0.42469 0.0
N1613 N 0.28376 0.19895 0.3908 0.0
H1614 H 0.51314 0.52876 0.87907 0.0
H1615 H 0.43821 0.48069 0.80113 0.0
H1616 H 0.46583 0.48888 0.90036 0.0
H1617 H 0.44752 0.54443 0.80095 0.0
H1618 H 0.45216 0.48015 0.83555 0.0
H1619 H 0.49338 0.53216 0.84812 0.0
C1620 C 0.49856 0.52091 0.87757 0.0
C1621 C 0.49133 0.5085 0.89275 0.0
C1622 C 0.45083 0.49423 0.82801 0.0
C1623 C 0.46911 0.51176 0.85663 0.0
C1624 C 0.44296 0.49456 0.80847 0.0
C1625 C 0.44168 0.51265 0.79835 0.0
C1626 C 0.45814 0.51202 0.83712 0.0
C1627 C 0.44812 0.53023 0.80838 0.0
C1628 C 0.48737 0.52281 0.85973 0.0
C1629 C 0.47248 0.49824 0.88915 0.0
N1630 N 0.45651 0.52946 0.82713 0.0
N1631 N 0.46219 0.49984 0.87135 0.0
H1632 H 0.73582 0.72846 0.15916 0.0
H1633 H 0.74299 0.70743 0.04314 0.0
H1634 H 0.73402 0.77352 0.11387 0.0
H1635 H 0.76518 0.66685 0.08755 0.0
H1636 H 0.73343 0.72937 0.06929 0.0
H1637 H 0.7408 0.70348 0.1334 0.0
C1638 C 0.73627 0.73301 0.14378 0.0
C1639 C 0.73465 0.75303 0.13856 0.0
C1640 C 0.74028 0.71562 0.07336 0.0
C1641 C 0.74018 0.72475 0.10926 0.0
C1642 C 0.74563 0.70297 0.05841 0.0
C1643 C 0.75493 0.68525 0.06314 0.0
C1644 C 0.74417 0.71058 0.09329 0.0
C1645 C 0.75812 0.68042 0.08326 0.0
C1646 C 0.73921 0.71882 0.12916 0.0
C1647 C 0.73543 0.75825 0.1185 0.0
N1648 N 0.75279 0.69308 0.09766 0.0
N1649 N 0.73812 0.74421 0.10459 0.0
H1650 H 0.97263 0.03592 0.09287 0.0
H1651 H 0.94803 0.99378 0.19794 0.0
H1652 H 0.97799 0.97341 0.10519 0.0
H1653 H 0.9143 0.04026 0.17035 0.0
H1654 H 0.96261 0.98724 0.16598 0.0
H1655 H 0.95463 0.03917 0.12309 0.0
C1656 C 0.9698 0.02273 0.10165 0.0
C1657 C 0.97675 0.00424 0.09609 0.0
C1658 C 0.95185 0.99871 0.16696 0.0
C1659 C 0.95672 0.00826 0.13145 0.0
C1660 C 0.94356 0.0025 0.18519 0.0
C1661 C 0.92993 0.01762 0.18685 0.0
C1662 C 0.94684 0.01044 0.15047 0.0
C1663 C 0.92472 0.02844 0.16977 0.0
C1664 C 0.95962 0.02471 0.11906 0.0
C1665 C 0.9732 0.98802 0.10882 0.0
N1666 N 0.93338 0.02483 0.15237 0.0
N1667 N 0.96359 0.99044 0.126 0.0
H1668 H 0.30019 0.82649 0.16854 0.0
H1669 H 0.27795 0.8079 0.05227 0.0
H1670 H 0.30312 0.77021 0.13869 0.0
H1671 H 0.26407 0.8624 0.08114 0.0
H1672 H 0.29299 0.79636 0.08326 0.0
H1673 H 0.29238 0.84215 0.13625 0.0
C1674 C 0.29947 0.81755 0.15515 0.0
C1675 C 0.30205 0.79705 0.15616 0.0
C1676 C 0.28683 0.81093 0.08287 0.0
C1677 C 0.29326 0.81466 0.11952 0.0
C1678 C 0.27831 0.81762 0.06505 0.0
C1679 C 0.26968 0.83617 0.06404 0.0
C1680 C 0.2866 0.82273 0.09999 0.0
C1681 C 0.27048 0.84796 0.08128 0.0
C1682 C 0.29494 0.82642 0.13681 0.0
C1683 C 0.30095 0.78603 0.13851 0.0
N1684 N 0.27864 0.84096 0.09865 0.0
N1685 N 0.29656 0.79495 0.12096 0.0
H1686 H 0.08333 0.50023 0.10295 0.0
H1687 H 0.10277 0.50607 0.22077 0.0
H1688 H 0.03496 0.50004 0.14348 0.0
H1689 H 0.14966 0.51243 0.17859 0.0
H1690 H 0.0775 0.50463 0.1931 0.0
H1691 H 0.10766 0.50564 0.13083 0.0
C1692 C 0.07784 0.50138 0.11777 0.0
C1693 C 0.05712 0.49951 0.12095 0.0
C1694 C 0.09333 0.50645 0.18995 0.0
C1695 C 0.08493 0.50568 0.15306 0.0
C1696 C 0.10778 0.50723 0.20574 0.0
C1697 C 0.12843 0.50925 0.20205 0.0
C1698 C 0.09958 0.50761 0.17035 0.0
C1699 C 0.13397 0.51077 0.18223 0.0
C1700 C 0.09173 0.50454 0.13369 0.0
C1701 C 0.05082 0.50145 0.14041 0.0
N1702 N 0.11966 0.50982 0.16719 0.0
N1703 N 0.06469 0.50425 0.15579 0.0
H1704 H 0.40964 0.74792 0.28779 0.0
H1705 H 0.44783 0.73737 0.40137 0.0
H1706 H 0.37115 0.73269 0.33588 0.0
H1707 H 0.4877 0.7562 0.3554 0.0
H1708 H 0.41972 0.736 0.37709 0.0
H1709 H 0.43844 0.752 0.31186 0.0
C1710 C 0.40722 0.74562 0.30341 0.0
C1711 C 0.38802 0.73975 0.30983 0.0
C1712 C 0.43458 0.74047 0.37224 0.0
C1713 C 0.4208 0.7442 0.33733 0.0
C1714 C 0.45073 0.74121 0.38614 0.0
C1715 C 0.47025 0.74687 0.38046 0.0
C1716 C 0.43783 0.74535 0.35238 0.0
C1717 C 0.47292 0.75173 0.36046 0.0
C1718 C 0.42366 0.74784 0.31711 0.0
C1719 C 0.38574 0.73684 0.33021 0.0
N1720 N 0.45688 0.75082 0.3471 0.0
N1721 N 0.40192 0.73901 0.34317 0.0
H1722 H 0.98873 0.41539 0.94907 0.0
H1723 H 0.98976 0.29821 0.96402 0.0
H1724 H 0.98728 0.3866 0.00607 0.0
H1725 H 0.01802 0.32664 0.91433 0.0
H1726 H 0.9826 0.33067 0.9769 0.0
H1727 H 0.99377 0.38297 0.93349 0.0
C1728 C 0.98935 0.40222 0.95822 0.0
C1729 C 0.98772 0.40355 0.97884 0.0
C1730 C 0.99034 0.32982 0.96315 0.0
C1731 C 0.99317 0.36679 0.9613 0.0
C1732 C 0.99438 0.31127 0.95571 0.0
C1733 C 0.00464 0.30965 0.93809 0.0
C1734 C 0.99637 0.34699 0.95287 0.0
C1735 C 0.01021 0.3272 0.92804 0.0
C1736 C 0.99232 0.38384 0.94939 0.0
C1737 C 0.98866 0.38617 0.99014 0.0
N1738 N 0.00598 0.34521 0.93557 0.0
N1739 N 0.99123 0.36852 0.98122 0.0
H1740 H 0.62734 0.82813 0.28092 0.0
H1741 H 0.60312 0.75633 0.37105 0.0
H1742 H 0.64968 0.7694 0.2873 0.0
H1743 H 0.56078 0.7995 0.35125 0.0
H1744 H 0.6236 0.76475 0.34305 0.0
H1745 H 0.60566 0.82138 0.3091 0.0
C1746 C 0.62765 0.81385 0.28825 0.0
C1747 C 0.64019 0.79923 0.28177 0.0
C1748 C 0.60983 0.7724 0.3448 0.0
C1749 C 0.61585 0.7916 0.31388 0.0
C1750 C 0.59814 0.76768 0.36085 0.0
C1751 C 0.58014 0.77719 0.36348 0.0
C1752 C 0.60371 0.78694 0.33129 0.0
C1753 C 0.57451 0.79176 0.34971 0.0
C1754 C 0.61526 0.81 0.30419 0.0
C1755 C 0.64006 0.78097 0.29168 0.0
N1756 N 0.58633 0.79628 0.33417 0.0
N1757 N 0.6282 0.77774 0.3073 0.0
H1758 H 0.03215 0.09647 0.92979 0.0
H1759 H 0.02005 0.21207 0.95078 0.0
H1760 H 0.00893 0.12043 0.98307 0.0
H1761 H 0.04459 0.1907 0.89705 0.0
H1762 H 0.01499 0.17807 0.96194 0.0
H1763 H 0.03616 0.13033 0.91671 0.0
C1764 C 0.02785 0.1088 0.9387 0.0
C1765 C 0.02004 0.10554 0.95751 0.0
C1766 C 0.02143 0.18072 0.94766 0.0
C1767 C 0.02455 0.14421 0.94265 0.0
C1768 C 0.02425 0.2002 0.94122 0.0
C1769 C 0.03261 0.20427 0.92287 0.0
C1770 C 0.02708 0.16503 0.93574 0.0
C1771 C 0.03807 0.18822 0.91131 0.0
C1772 C 0.03008 0.1281 0.9312 0.0
C1773 C 0.0146 0.12208 0.96834 0.0
N1774 N 0.03522 0.16926 0.91794 0.0
N1775 N 0.01699 0.14061 0.96078 0.0
H1776 H 0.38683 0.2905 0.22188 0.0
H1777 H 0.41956 0.219 0.13674 0.0
H1778 H 0.36922 0.22809 0.21832 0.0
H1779 H 0.455 0.27254 0.15264 0.0
H1780 H 0.39889 0.22393 0.16497 0.0
H1781 H 0.41019 0.28595 0.19518 0.0
C1782 C 0.38797 0.27585 0.21555 0.0
C1783 C 0.37611 0.25963 0.22231 0.0
C1784 C 0.41122 0.2346 0.16237 0.0
C1785 C 0.4025 0.25442 0.1918 0.0
C1786 C 0.42299 0.23186 0.14616 0.0
C1787 C 0.43903 0.24541 0.14229 0.0
C1788 C 0.41526 0.25117 0.17476 0.0
C1789 C 0.44279 0.26173 0.15513 0.0
C1790 C 0.40133 0.27326 0.20042 0.0
C1791 C 0.37822 0.24095 0.21371 0.0
N1792 N 0.43086 0.26426 0.17076 0.0
N1793 N 0.391 0.2389 0.1988 0.0
H1794 H 0.49272 0.39179 0.03136 0.0
H1795 H 0.54344 0.29027 0.05783 0.0
H1796 H 0.55643 0.38393 0.02712 0.0
H1797 H 0.48562 0.30468 0.0791 0.0
H1798 H 0.54823 0.32426 0.04585 0.0
H1799 H 0.48934 0.35961 0.04805 0.0
C1800 C 0.506 0.38329 0.034 0.0
C1801 C 0.52487 0.39047 0.02779 0.0
C1802 C 0.53458 0.32006 0.05331 0.0
C1803 C 0.52112 0.35368 0.04678 0.0
C1804 C 0.5318 0.30063 0.06011 0.0
C1805 C 0.51404 0.29457 0.0694 0.0
C1806 C 0.51936 0.3335 0.05549 0.0
C1807 C 0.49955 0.30869 0.07205 0.0
C1808 C 0.50409 0.36501 0.04362 0.0
C1809 C 0.54163 0.37899 0.03177 0.0
N1810 N 0.50242 0.32744 0.06491 0.0
N1811 N 0.53932 0.36108 0.04084 0.0
H1812 H 0.62062 0.18807 0.19821 0.0
H1813 H 0.53296 0.24936 0.1484 0.0
H1814 H 0.61514 0.25013 0.21216 0.0
H1815 H 0.56296 0.20506 0.11609 0.0
H1816 H 0.55813 0.24643 0.17602 0.0
H1817 H 0.59457 0.19078 0.17182 0.0
C1818 C 0.61412 0.20231 0.19575 0.0
C1819 C 0.62045 0.21896 0.20746 0.0
C1820 C 0.5591 0.23737 0.16286 0.0
C1821 C 0.58994 0.22182 0.1776 0.0
C1822 C 0.54474 0.23894 0.14719 0.0
C1823 C 0.54596 0.22749 0.12993 0.0
C1824 C 0.5744 0.22388 0.16142 0.0
C1825 C 0.56157 0.21428 0.12907 0.0
C1826 C 0.59911 0.20375 0.18074 0.0
C1827 C 0.61073 0.23678 0.20382 0.0
N1828 N 0.5751 0.21272 0.14465 0.0
N1829 N 0.59593 0.23772 0.18926 0.0
H1830 H 0.48723 0.11102 0.99556 0.0
H1831 H 0.47451 0.16777 0.09765 0.0
H1832 H 0.46932 0.08119 0.04906 0.0
H1833 H 0.50119 0.19524 0.04669 0.0
H1834 H 0.47356 0.1357 0.08063 0.0
H1835 H 0.49339 0.14171 0.01441 0.0
C1836 C 0.48481 0.11082 0.01133 0.0
C1837 C 0.47773 0.0934 0.0207 0.0
C1838 C 0.47981 0.1487 0.07324 0.0
C1839 C 0.48442 0.12878 0.04237 0.0
C1840 C 0.48037 0.16702 0.08296 0.0
C1841 C 0.48784 0.18423 0.07353 0.0
C1842 C 0.48658 0.1476 0.05387 0.0
C1843 C 0.49528 0.18237 0.05452 0.0
C1844 C 0.48824 0.12843 0.02208 0.0
C1845 C 0.47448 0.09428 0.04112 0.0
N1846 N 0.49429 0.16442 0.04524 0.0
N1847 N 0.47775 0.11169 0.05124 0.0
H1848 H 0.27501 0.4297 0.73747 0.0
H1849 H 0.39479 0.44547 0.73072 0.0
H1850 H 0.31508 0.38262 0.72744 0.0
H1851 H 0.35578 0.49389 0.73899 0.0
H1852 H 0.36551 0.42235 0.73023 0.0
H1853 H 0.30417 0.45352 0.73907 0.0
C1854 C 0.28993 0.42437 0.7357 0.0
C1855 C 0.2926 0.40416 0.73219 0.0
C1856 C 0.3633 0.43802 0.73216 0.0
C1857 C 0.32595 0.43128 0.73388 0.0
C1858 C 0.38007 0.45129 0.73244 0.0
C1859 C 0.3778 0.47172 0.73488 0.0
C1860 C 0.34402 0.44514 0.73434 0.0
C1861 C 0.35827 0.47828 0.73705 0.0
C1862 C 0.30655 0.43797 0.73651 0.0
C1863 C 0.31226 0.39809 0.72983 0.0
N1864 N 0.34212 0.46503 0.73672 0.0
N1865 N 0.32813 0.41157 0.73071 0.0
H1866 H 0.26972 0.61548 0.74452 0.0
H1867 H 0.38989 0.6096 0.75269 0.0
H1868 H 0.31062 0.66519 0.76067 0.0
H1869 H 0.34926 0.55762 0.74845 0.0
H1870 H 0.36092 0.63036 0.75396 0.0
H1871 H 0.29859 0.59423 0.74358 0.0
C1872 C 0.28478 0.62194 0.74771 0.0
C1873 C 0.28778 0.64211 0.75274 0.0
C1874 C 0.35832 0.61441 0.75285 0.0
C1875 C 0.3208 0.61793 0.75183 0.0
C1876 C 0.37487 0.60253 0.75214 0.0
C1877 C 0.37202 0.58183 0.75046 0.0
C1878 C 0.33869 0.60558 0.75168 0.0
C1879 C 0.35218 0.57351 0.74981 0.0
C1880 C 0.30122 0.60979 0.74733 0.0
C1881 C 0.30759 0.64967 0.75694 0.0
N1882 N 0.33626 0.58542 0.7503 0.0
N1883 N 0.32332 0.6376 0.75636 0.0
H1884 H 0.90334 0.41862 0.46056 0.0
H1885 H 0.78983 0.40144 0.4945 0.0
H1886 H 0.86567 0.46699 0.47311 0.0
H1887 H 0.83218 0.35515 0.49073 0.0
H1888 H 0.81642 0.42577 0.48517 0.0
H1889 H 0.87632 0.39514 0.46982 0.0
C1890 C 0.88931 0.4243 0.46515 0.0
C1891 C 0.88673 0.44479 0.46599 0.0
C1892 C 0.81983 0.41028 0.48644 0.0
C1893 C 0.85569 0.41795 0.47682 0.0
C1894 C 0.80466 0.39638 0.49173 0.0
C1895 C 0.80873 0.37618 0.49343 0.0
C1896 C 0.83913 0.40389 0.4827 0.0
C1897 C 0.82827 0.37052 0.48967 0.0
C1898 C 0.87391 0.41089 0.47057 0.0
C1899 C 0.86833 0.45131 0.4724 0.0
N1900 N 0.84265 0.38426 0.48446 0.0
N1901 N 0.85347 0.43792 0.47751 0.0
H1902 H 0.72067 0.85253 0.78161 0.0
H1903 H 0.69288 0.9452 0.71529 0.0
H1904 H 0.73052 0.85606 0.71883 0.0
H1905 H 0.67173 0.93648 0.77434 0.0
H1906 H 0.70485 0.91164 0.71578 0.0
H1907 H 0.70093 0.88203 0.77888 0.0
C1908 C 0.71844 0.85929 0.76716 0.0
C1909 C 0.72746 0.85181 0.75043 0.0
C1910 C 0.69737 0.91692 0.72856 0.0
C1911 C 0.70512 0.88593 0.74733 0.0
C1912 C 0.69055 0.93612 0.7283 0.0
C1913 C 0.68148 0.94373 0.74489 0.0
C1914 C 0.69544 0.90527 0.74566 0.0
C1915 C 0.67867 0.93121 0.76125 0.0
C1916 C 0.70722 0.87622 0.76566 0.0
C1917 C 0.72425 0.86148 0.73222 0.0
N1918 N 0.68592 0.91267 0.76135 0.0
N1919 N 0.71352 0.87812 0.7312 0.0
H1920 H 0.62445 0.55086 0.04016 0.0
H1921 H 0.72894 0.59793 0.00391 0.0
H1922 H 0.64754 0.53572 0.98372 0.0
H1923 H 0.68822 0.63176 0.03687 0.0
H1924 H 0.7037 0.56997 0.00257 0.0
H1925 H 0.65251 0.57586 0.04523 0.0
C1926 C 0.63561 0.55267 0.029 0.0
C1927 C 0.63378 0.54141 0.01148 0.0
C1928 C 0.70046 0.58348 0.01024 0.0
C1929 C 0.6658 0.56949 0.01726 0.0
C1930 C 0.71483 0.59935 0.01111 0.0
C1931 C 0.71055 0.61719 0.02039 0.0
C1932 C 0.68195 0.58535 0.01913 0.0
C1933 C 0.69201 0.61831 0.02941 0.0
C1934 C 0.65149 0.56691 0.03184 0.0
C1935 C 0.64848 0.54427 0.99736 0.0
N1936 N 0.67839 0.60258 0.0286 0.0
N1937 N 0.66396 0.55802 0.00057 0.0
H1938 H 0.20907 0.66218 0.23773 0.0
H1939 H 0.21085 0.5442 0.24847 0.0
H1940 H 0.26362 0.63 0.24191 0.0
H1941 H 0.15884 0.57697 0.26157 0.0
H1942 H 0.22925 0.57537 0.24132 0.0
H1943 H 0.18931 0.63086 0.24201 0.0
C1944 C 0.21685 0.6485 0.23944 0.0
C1945 C 0.23799 0.64864 0.23958 0.0
C1946 C 0.2138 0.57575 0.2457 0.0
C1947 C 0.21559 0.61292 0.24439 0.0
C1948 C 0.20323 0.55795 0.24968 0.0
C1949 C 0.18329 0.558 0.25566 0.0
C1950 C 0.20434 0.59377 0.24758 0.0
C1951 C 0.17423 0.57629 0.25709 0.0
C1952 C 0.2056 0.63069 0.24197 0.0
C1953 C 0.24736 0.63056 0.24197 0.0
N1954 N 0.18484 0.59348 0.25308 0.0
N1955 N 0.2361 0.61343 0.24423 0.0
H1956 H 0.88775 0.54035 0.06975 0.0
H1957 H 0.81945 0.60629 0.99809 0.0
H1958 H 0.89824 0.54788 0.00749 0.0
H1959 H 0.80371 0.58903 0.05725 0.0
H1960 H 0.84798 0.58464 0.00072 0.0
H1961 H 0.85679 0.55819 0.0652 0.0
C1962 C 0.88354 0.54581 0.05511 0.0
C1963 C 0.89566 0.54276 0.03901 0.0
C1964 C 0.83816 0.58547 0.01304 0.0
C1965 C 0.86014 0.56316 0.03363 0.0
C1966 C 0.82185 0.5978 0.01154 0.0
C1967 C 0.80924 0.59961 0.02753 0.0
C1968 C 0.84197 0.57499 0.03071 0.0
C1969 C 0.81307 0.58821 0.04458 0.0
C1970 C 0.86578 0.55588 0.05248 0.0
C1971 C 0.88928 0.54985 0.02029 0.0
N1972 N 0.82917 0.57656 0.04578 0.0
N1973 N 0.87204 0.55987 0.01814 0.0
H1974 H 0.13847 0.97806 0.98761 0.0
H1975 H 0.16363 0.86325 0.99263 0.0
H1976 H 0.09444 0.93026 0.99734 0.0
H1977 H 0.20976 0.91075 0.99441 0.0
H1978 H 0.13793 0.88773 0.98978 0.0
H1979 H 0.16456 0.95372 0.98585 0.0
C1980 C 0.13427 0.96244 0.98923 0.0
C1981 C 0.11428 0.95617 0.99274 0.0
C1982 C 0.15367 0.89283 0.99069 0.0
C1983 C 0.14399 0.92831 0.99075 0.0
C1984 C 0.16839 0.87884 0.99226 0.0
C1985 C 0.18891 0.88495 0.99394 0.0
C1986 C 0.15942 0.91315 0.99077 0.0
C1987 C 0.19411 0.90538 0.99325 0.0
C1988 C 0.14917 0.94858 0.98832 0.0
C1989 C 0.10971 0.93577 0.9949 0.0
N1990 N 0.17945 0.91877 0.99183 0.0
N1991 N 0.12443 0.9226 0.99387 0.0
loop_
_geom_bond_atom_site_label_1
_geom_bond_atom_site_label_2
_geom_bond_distance
_geom_bond_site_symmetry_2
_ccdc_geom_bond_type
C0 C1 1.391 . S
C0 C4 1.391 . S
C0 H42 0.948 . S
C1 C0 1.391 . S
C1 C2 1.391 . S
C2 C1 1.391 . S
C2 H58 0.947 1_455 S
C2 C59 1.392 1_556 S
C3 C4 1.391 1_554 S
C3 C7 1.397 . S
C3 C59 1.419 . S
C4 C0 1.391 . S
C4 C3 1.391 1_556 S
C4 C5 1.399 . S
C5 C4 1.399 . S
C5 C8 1.396 1_556 S
C5 C17 1.453 . S
C5 C18 1.684 . S
H6 C30 0.948 . S
C7 C3 1.397 . S
C7 C8 1.394 . S
C7 C26 1.723 . S
C8 C5 1.396 1_554 S
C8 C7 1.394 . S
C8 C38 1.723 . S
H9 C32 0.949 . S
H10 C33 0.958 . S
H11 C39 1.019 . S
H12 C40 0.979 . S
H13 C40 0.980 . S
H14 C40 0.983 . S
H15 C39 0.938 1_565 S
H16 C39 0.985 . S
C17 C5 1.453 . S
C17 H46 0.982 1_556 S
C17 H47 0.979 . S
C17 H48 0.977 . S
C18 C5 1.684 . S
C18 H43 0.979 . S
C18 H44 0.980 . S
C18 H45 0.983 . S
C19 C20 1.391 . S
C19 C24 1.391 . S
C19 H49 0.948 . S
C20 C19 1.391 . S
C20 C21 1.391 . S
C21 C20 1.391 . S
C21 C22 1.392 1_655 S
C21 H50 0.948 1_545 S
C22 C21 1.392 1_455 S
C22 C23 1.419 . S
C22 H51 0.915 1_545 S
C23 C22 1.419 . S
C23 C24 1.391 1_455 S
C23 C27 1.397 . S
C24 C19 1.391 . S
C24 C23 1.391 1_655 S
C24 C25 1.399 . S
C25 C24 1.399 . S
C25 C26 1.396 1_655 S
C25 C28 1.453 1_655 S
C25 C29 1.684 . S
C26 C7 1.723 . S
C26 C25 1.396 1_455 S
C26 C27 1.394 . S
C27 C23 1.397 . S
C27 C26 1.394 . S
C27 C37 1.723 . S
C28 C25 1.453 1_455 S
C28 H52 0.982 . S
C28 H53 0.979 1_455 S
C28 H54 0.977 . S
C29 C25 1.684 . S
C29 H55 0.979 . S
C29 H56 0.980 . S
C29 H57 0.983 . S
C30 H6 0.948 . S
C30 C31 1.391 . S
C30 C35 1.391 . S
C31 C30 1.391 . S
C31 C32 1.371 1_564 S
C32 H9 0.949 . S
C32 C31 1.371 1_546 S
C32 C33 1.412 . S
C33 H10 0.958 . S
C33 C32 1.412 . S
C33 C34 1.408 1_556 S
C34 C33 1.408 1_554 S
C34 C35 1.391 1_545 S
C34 C38 1.397 . S
C35 C30 1.391 . S
C35 C34 1.391 1_565 S
C35 C36 1.401 . S
C36 C35 1.401 . S
C36 C37 1.385 1_565 S
C36 C39 1.452 1_565 S
C36 C40 1.694 . S
C37 C27 1.723 . S
C37 C36 1.385 1_545 S
C37 C38 1.394 . S
C38 C8 1.723 . S
C38 C34 1.397 . S
C38 C37 1.394 . S
C39 H11 1.019 . S
C39 H15 0.938 1_545 S
C39 H16 0.985 . S
C39 C36 1.452 1_545 S
C40 H12 0.979 . S
C40 H13 0.980 . S
C40 H14 0.983 . S
C40 C36 1.694 . S
H41 C59 0.948 1_655 S
H42 C0 0.948 . S
H43 C18 0.979 . S
H44 C18 0.980 . S
H45 C18 0.983 . S
H46 C17 0.982 1_554 S
H47 C17 0.979 . S
H48 C17 0.977 . S
H49 C19 0.948 . S
H50 C21 0.948 1_565 S
H51 C22 0.915 1_565 S
H52 C28 0.982 . S
H53 C28 0.979 1_655 S
H54 C28 0.977 . S
H55 C29 0.979 . S
H56 C29 0.980 . S
H57 C29 0.983 . S
H58 C2 0.947 1_655 S
C59 C2 1.392 1_554 S
C59 C3 1.419 . S
C59 H41 0.948 1_455 S
C60 C61 1.391 . S
C60 C64 1.391 . S
C60 H102 0.948 . S
C61 C60 1.391 . S
C61 C62 1.391 . S
C62 C61 1.391 . S
C62 H118 0.947 . S
C62 C119 1.392 . S
C63 C64 1.391 . S
C63 C67 1.397 . S
C63 C119 1.419 . S
C64 C60 1.391 . S
C64 C63 1.391 . S
C64 C65 1.399 . S
C65 C64 1.399 . S
C65 C68 1.396 . S
C65 C77 1.453 . S
C65 C78 1.684 . S
H66 C90 0.948 . S
C67 C63 1.397 . S
C67 C68 1.394 . S
C67 C86 1.723 . S
C68 C65 1.396 . S
C68 C67 1.394 . S
C68 C98 1.723 . S
H69 C92 0.947 . S
H70 C93 0.948 . S
H71 C99 0.982 . S
H72 C100 0.979 . S
H73 C100 0.980 . S
H74 C100 0.983 . S
H75 C99 0.979 . S
H76 C99 0.977 . S
C77 C65 1.453 . S
C77 H106 0.982 . S
C77 H107 0.979 . S
C77 H108 0.977 . S
C78 C65 1.684 . S
C78 H103 0.979 . S
C78 H104 0.980 . S
C78 H105 0.983 . S
C79 C80 1.391 . S
C79 C84 1.391 . S
C79 H109 0.948 . S
C80 C79 1.391 . S
C80 C81 1.391 . S
C81 C80 1.391 . S
C81 C82 1.392 . S
C81 H110 0.947 . S
C82 C81 1.392 . S
C82 C83 1.419 . S
C82 H111 0.948 . S
C83 C82 1.419 . S
C83 C84 1.391 . S
C83 C87 1.397 . S
C84 C79 1.391 . S
C84 C83 1.391 . S
C84 C85 1.399 . S
C85 C84 1.399 . S
C85 C86 1.396 . S
C85 C88 1.453 . S
C85 C89 1.684 . S
C86 C67 1.723 . S
C86 C85 1.396 . S
C86 C87 1.394 . S
C87 C83 1.397 . S
C87 C86 1.394 . S
C87 C97 1.723 . S
C88 C85 1.453 . S
C88 H112 0.982 . S
C88 H113 0.979 . S
C88 H114 0.977 . S
C89 C85 1.684 . S
C89 H115 0.979 . S
C89 H116 0.980 . S
C89 H117 0.983 . S
C90 H66 0.948 . S
C90 C91 1.391 . S
C90 C95 1.391 . S
C91 C90 1.391 . S
C91 C92 1.391 . S
C92 H69 0.947 . S
C92 C91 1.391 . S
C92 C93 1.392 . S
C93 H70 0.948 . S
C93 C92 1.392 . S
C93 C94 1.419 . S
C94 C93 1.419 . S
C94 C95 1.391 . S
C94 C98 1.397 . S
C95 C90 1.391 . S
C95 C94 1.391 . S
C95 C96 1.399 . S
C96 C95 1.399 . S
C96 C97 1.396 . S
C96 C99 1.453 . S
C96 C100 1.684 . S
C97 C87 1.723 . S
C97 C96 1.396 . S
C97 C98 1.394 . S
C98 C68 1.723 . S
C98 C94 1.397 . S
C98 C97 1.394 . S
C99 H71 0.982 . S
C99 H75 0.979 . S
C99 H76 0.977 . S
C99 C96 1.453 . S
C100 H72 0.979 . S
C100 H73 0.980 . S
C100 H74 0.983 . S
C100 C96 1.684 . S
H101 C119 0.948 . S
H102 C60 0.948 . S
H103 C78 0.979 . S
H104 C78 0.980 . S
H105 C78 0.983 . S
H106 C77 0.982 . S
H107 C77 0.979 . S
H108 C77 0.977 . S
H109 C79 0.948 . S
H110 C81 0.947 . S
H111 C82 0.948 . S
H112 C88 0.982 . S
H113 C88 0.979 . S
H114 C88 0.977 . S
H115 C89 0.979 . S
H116 C89 0.980 . S
H117 C89 0.983 . S
H118 C62 0.947 . S
C119 C62 1.392 . S
C119 C63 1.419 . S
C119 H101 0.948 . S
C120 C121 1.391 1_454 S
C120 C124 1.391 1_455 S
C120 H162 0.948 . S
C121 C120 1.391 1_656 S
C121 C122 1.391 . S
C122 C121 1.391 . S
C122 H178 0.947 . S
C122 C179 1.392 . S
C123 C124 1.391 . S
C123 C127 1.397 . S
C123 C179 1.419 1_554 S
C124 C120 1.391 1_655 S
C124 C123 1.391 . S
C124 C125 1.399 1_655 S
C125 C124 1.399 1_455 S
C125 C128 1.396 1_455 S
C125 C137 1.453 . S
C125 C138 1.684 . S
H126 C150 0.948 . S
C127 C123 1.397 . S
C127 C128 1.394 . S
C127 C146 1.723 . S
C128 C125 1.396 1_655 S
C128 C127 1.394 . S
C128 C158 1.723 . S
H129 C152 0.947 . S
H130 C153 0.948 . S
H131 C159 0.982 . S
H132 C160 0.959 1_455 S
H133 C160 0.980 . S
H134 C160 0.983 . S
H135 C159 0.979 . S
H136 C159 0.977 . S
C137 C125 1.453 . S
C137 H166 0.982 1_455 S
C137 H167 0.979 . S
C137 H168 0.977 . S
C138 C125 1.684 . S
C138 H163 0.979 . S
C138 H164 0.980 . S
C138 H165 0.983 . S
C139 C140 1.391 . S
C139 C144 1.391 . S
C139 H169 0.948 . S
C140 C139 1.391 . S
C140 C141 1.391 . S
C141 C140 1.391 . S
C141 C142 1.392 . S
C141 H170 0.947 . S
C142 C141 1.392 . S
C142 C143 1.419 . S
C142 H171 0.948 . S
C143 C142 1.419 . S
C143 C144 1.391 . S
C143 C147 1.397 . S
C144 C139 1.391 . S
C144 C143 1.391 . S
C144 C145 1.399 . S
C145 C144 1.399 . S
C145 C146 1.396 . S
C145 C148 1.453 . S
C145 C149 1.684 1_554 S
C146 C127 1.723 . S
C146 C145 1.396 . S
C146 C147 1.394 . S
C147 C143 1.397 . S
C147 C146 1.394 . S
C147 C157 1.723 . S
C148 C145 1.453 . S
C148 H172 0.982 . S
C148 H173 0.979 . S
C148 H174 0.977 . S
C149 C145 1.684 1_556 S
C149 H175 0.979 . S
C149 H176 0.980 . S
C149 H177 0.983 . S
C150 H126 0.948 . S
C150 C151 1.391 . S
C150 C155 1.391 . S
C151 C150 1.391 . S
C151 C152 1.391 . S
C152 H129 0.947 . S
C152 C151 1.391 . S
C152 C153 1.392 . S
C153 H130 0.948 . S
C153 C152 1.392 . S
C153 C154 1.419 . S
C154 C153 1.419 . S
C154 C155 1.391 . S
C154 C158 1.397 1_455 S
C155 C150 1.391 . S
C155 C154 1.391 . S
C155 C156 1.399 1_455 S
C156 C155 1.399 1_655 S
C156 C157 1.396 . S
C156 C159 1.453 . S
C156 C160 1.684 . S
C157 C147 1.723 . S
C157 C156 1.396 . S
C157 C158 1.394 . S
C158 C128 1.723 . S
C158 C154 1.397 1_655 S
C158 C157 1.394 . S
C159 H131 0.982 . S
C159 H135 0.979 . S
C159 H136 0.977 . S
C159 C156 1.453 . S
C160 H132 0.959 1_655 S
C160 H133 0.980 . S
C160 H134 0.983 . S
C160 C156 1.684 . S
H161 C179 0.948 . S
H162 C120 0.948 . S
H163 C138 0.979 . S
H164 C138 0.980 . S
H165 C138 0.983 . S
H166 C137 0.982 1_655 S
H167 C137 0.979 . S
H168 C137 0.977 . S
H169 C139 0.948 . S
H170 C141 0.947 . S
H171 C142 0.948 . S
H172 C148 0.982 . S
H173 C148 0.979 . S
H174 C148 0.977 . S
H175 C149 0.979 . S
H176 C149 0.980 . S
H177 C149 0.983 . S
H178 C122 0.947 . S
C179 C122 1.392 . S
C179 C123 1.419 1_556 S
C179 H161 0.948 . S
C180 C181 1.391 . S
C180 C184 1.391 . S
C180 H222 0.948 . S
C181 C180 1.391 . S
C181 C182 1.391 . S
C182 C181 1.391 . S
C182 H238 0.947 . S
C182 C239 1.392 . S
C183 C184 1.391 . S
C183 C187 1.397 . S
C183 C239 1.419 . S
C184 C180 1.391 . S
C184 C183 1.391 . S
C184 C185 1.399 . S
C185 C184 1.399 . S
C185 C188 1.396 . S
C185 C197 1.453 . S
C185 C198 1.684 . S
H186 C210 0.948 . S
C187 C183 1.397 . S
C187 C188 1.394 . S
C187 C206 1.723 . S
C188 C185 1.396 . S
C188 C187 1.394 . S
C188 C218 1.723 . S
H189 C212 0.947 . S
H190 C213 0.948 . S
H191 C219 0.982 . S
H192 C220 0.979 . S
H193 C220 0.980 . S
H194 C220 0.983 . S
H195 C219 0.979 . S
H196 C219 0.977 . S
C197 C185 1.453 . S
C197 H226 0.982 . S
C197 H227 0.979 . S
C197 H228 0.977 . S
C198 C185 1.684 . S
C198 H223 0.979 . S
C198 H224 0.980 . S
C198 H225 0.983 . S
C199 C200 1.391 . S
C199 C204 1.391 . S
C199 H229 0.948 . S
C200 C199 1.391 . S
C200 C201 1.391 . S
C201 C200 1.391 . S
C201 C202 1.392 . S
C201 H230 0.947 . S
C202 C201 1.392 . S
C202 C203 1.419 . S
C202 H231 0.948 . S
C203 C202 1.419 . S
C203 C204 1.391 . S
C203 C207 1.397 . S
C204 C199 1.391 . S
C204 C203 1.391 . S
C204 C205 1.399 . S
C205 C204 1.399 . S
C205 C206 1.396 . S
C205 C208 1.453 . S
C205 C209 1.684 . S
C206 C187 1.723 . S
C206 C205 1.396 . S
C206 C207 1.394 . S
C207 C203 1.397 . S
C207 C206 1.394 . S
C207 C217 1.723 . S
C208 C205 1.453 . S
C208 H232 0.982 . S
C208 H233 0.979 . S
C208 H234 0.977 . S
C209 C205 1.684 . S
C209 H235 0.979 . S
C209 H236 0.980 . S
C209 H237 0.983 . S
C210 H186 0.948 . S
C210 C211 1.391 . S
C210 C215 1.391 . S
C211 C210 1.391 . S
C211 C212 1.391 . S
C212 H189 0.947 . S
C212 C211 1.391 . S
C212 C213 1.392 . S
C213 H190 0.948 . S
C213 C212 1.392 . S
C213 C214 1.419 . S
C214 C213 1.419 . S
C214 C215 1.391 . S
C214 C218 1.397 . S
C215 C210 1.391 . S
C215 C214 1.391 . S
C215 C216 1.399 . S
C216 C215 1.399 . S
C216 C217 1.396 . S
C216 C219 1.453 . S
C216 C220 1.684 . S
C217 C207 1.723 . S
C217 C216 1.396 . S
C217 C218 1.394 . S
C218 C188 1.723 . S
C218 C214 1.397 . S
C218 C217 1.394 . S
C219 H191 0.982 . S
C219 H195 0.979 . S
C219 H196 0.977 . S
C219 C216 1.453 . S
C220 H192 0.979 . S
C220 H193 0.980 . S
C220 H194 0.983 . S
C220 C216 1.684 . S
H221 C239 0.948 . S
H222 C180 0.948 . S
H223 C198 0.979 . S
H224 C198 0.980 . S
H225 C198 0.983 . S
H226 C197 0.982 . S
H227 C197 0.979 . S
H228 C197 0.977 . S
H229 C199 0.948 . S
H230 C201 0.947 . S
H231 C202 0.948 . S
H232 C208 0.982 . S
H233 C208 0.979 . S
H234 C208 0.977 . S
H235 C209 0.979 . S
H236 C209 0.980 . S
H237 C209 0.983 . S
H238 C182 0.947 . S
C239 C182 1.392 . S
C239 C183 1.419 . S
C239 H221 0.948 . S
C240 C241 1.391 . S
C240 C244 1.391 . S
C240 H282 0.948 . S
C241 C240 1.391 . S
C241 C242 1.391 . S
C242 C241 1.391 . S
C242 H298 0.947 . S
C242 C299 1.392 . S
C243 C244 1.391 . S
C243 C247 1.397 . S
C243 C299 1.419 . S
C244 C240 1.391 . S
C244 C243 1.391 . S
C244 C245 1.399 . S
C245 C244 1.399 . S
C245 C248 1.396 . S
C245 C257 1.453 . S
C245 C258 1.684 . S
H246 C270 0.948 . S
C247 C243 1.397 . S
C247 C248 1.394 . S
C247 C266 1.723 . S
C248 C245 1.396 . S
C248 C247 1.394 . S
C248 C278 1.723 . S
H249 C272 0.947 . S
H250 C273 0.948 . S
H251 C279 0.982 . S
H252 C280 0.991 . S
H253 C280 0.980 . S
H254 C280 0.983 . S
H255 C279 0.979 . S
H256 C279 0.977 . S
C257 C245 1.453 . S
C257 H286 0.982 . S
C257 H287 0.979 . S
C257 H288 0.977 . S
C258 C245 1.684 . S
C258 H283 0.979 . S
C258 H284 0.980 . S
C258 H285 0.983 . S
C259 C260 1.395 . S
C259 C264 1.413 . S
C259 H289 0.924 1_455 S
C260 C259 1.395 . S
C260 C261 1.391 1_565 S
C261 C260 1.391 1_545 S
C261 C262 1.392 1_545 S
C261 H290 0.947 . S
C262 C261 1.392 1_565 S
C262 C263 1.419 . S
C262 H291 0.948 1_565 S
C263 C262 1.419 . S
C263 C264 1.391 . S
C263 C267 1.397 . S
C264 C259 1.413 . S
C264 C263 1.391 . S
C264 C265 1.399 . S
C265 C264 1.399 . S
C265 C266 1.396 . S
C265 C268 1.453 1_455 S
C265 C269 1.684 . S
C266 C247 1.723 . S
C266 C265 1.396 . S
C266 C267 1.394 . S
C267 C263 1.397 . S
C267 C266 1.394 . S
C267 C277 1.723 . S
C268 C265 1.453 1_655 S
C268 H292 0.982 . S
C268 H293 0.979 . S
C268 H294 0.973 1_655 S
C269 C265 1.684 . S
C269 H295 0.979 . S
C269 H296 0.980 . S
C269 H297 0.983 1_455 S
C270 H246 0.948 . S
C270 C271 1.391 . S
C270 C275 1.391 . S
C271 C270 1.391 . S
C271 C272 1.391 . S
C272 H249 0.947 . S
C272 C271 1.391 . S
C272 C273 1.392 1_545 S
C273 H250 0.948 . S
C273 C272 1.392 1_565 S
C273 C274 1.419 . S
C274 C273 1.419 . S
C274 C275 1.391 1_565 S
C274 C278 1.397 . S
C275 C270 1.391 . S
C275 C274 1.391 1_545 S
C275 C276 1.399 . S
C276 C275 1.399 . S
C276 C277 1.396 1_545 S
C276 C279 1.453 . S
C276 C280 1.684 . S
C277 C267 1.723 . S
C277 C276 1.396 1_565 S
C277 C278 1.394 . S
C278 C248 1.723 . S
C278 C274 1.397 . S
C278 C277 1.394 . S
C279 H251 0.982 . S
C279 H255 0.979 . S
C279 H256 0.977 . S
C279 C276 1.453 . S
C280 H252 0.991 . S
C280 H253 0.980 . S
C280 H254 0.983 . S
C280 C276 1.684 . S
H281 C299 0.948 . S
H282 C240 0.948 . S
H283 C258 0.979 . S
H284 C258 0.980 . S
H285 C258 0.983 . S
H286 C257 0.982 . S
H287 C257 0.979 . S
H288 C257 0.977 . S
H289 C259 0.924 1_655 S
H290 C261 0.947 . S
H291 C262 0.948 1_545 S
H292 C268 0.982 . S
H293 C268 0.979 . S
H294 C268 0.973 1_455 S
H295 C269 0.979 . S
H296 C269 0.980 . S
H297 C269 0.983 1_655 S
H298 C242 0.947 . S
C299 C242 1.392 . S
C299 C243 1.419 . S
C299 H281 0.948 . S
C300 C301 1.391 . S
C300 C304 1.391 . S
C300 H342 0.948 . S
C301 C300 1.391 . S
C301 C302 1.391 . S
C302 C301 1.391 . S
C302 H358 0.947 . S
C302 C359 1.392 . S
C303 C304 1.391 . S
C303 C307 1.397 . S
C303 C359 1.419 . S
C304 C300 1.391 . S
C304 C303 1.391 . S
C304 C305 1.399 . S
C305 C304 1.399 . S
C305 C308 1.396 . S
C305 C317 1.453 . S
C305 C318 1.684 . S
H306 C330 0.948 . S
C307 C303 1.397 . S
C307 C308 1.394 . S
C307 C326 1.723 . S
C308 C305 1.396 . S
C308 C307 1.394 . S
C308 C338 1.723 . S
H309 C332 0.947 . S
H310 C333 0.948 . S
H311 C339 0.982 . S
H312 C340 0.979 . S
H313 C340 0.980 . S
H314 C340 0.983 . S
H315 C339 0.979 . S
H316 C339 0.977 . S
C317 C305 1.453 . S
C317 H346 0.982 . S
C317 H347 0.979 . S
C317 H348 0.977 . S
C318 C305 1.684 . S
C318 H343 0.979 . S
C318 H344 0.980 . S
C318 H345 0.983 . S
C319 C320 1.391 . S
C319 C324 1.391 . S
C319 H349 0.948 . S
C320 C319 1.391 . S
C320 C321 1.391 . S
C321 C320 1.391 . S
C321 C322 1.392 . S
C321 H350 0.947 . S
C322 C321 1.392 . S
C322 C323 1.419 . S
C322 H351 0.948 . S
C323 C322 1.419 . S
C323 C324 1.391 . S
C323 C327 1.397 . S
C324 C319 1.391 . S
C324 C323 1.391 . S
C324 C325 1.399 . S
C325 C324 1.399 . S
C325 C326 1.396 . S
C325 C328 1.453 . S
C325 C329 1.684 . S
C326 C307 1.723 . S
C326 C325 1.396 . S
C326 C327 1.394 . S
C327 C323 1.397 . S
C327 C326 1.394 . S
C327 C337 1.723 . S
C328 C325 1.453 . S
C328 H352 0.982 . S
C328 H353 0.979 . S
C328 H354 0.977 . S
C329 C325 1.684 . S
C329 H355 0.979 . S
C329 H356 0.980 . S
C329 H357 0.983 . S
C330 H306 0.948 . S
C330 C331 1.391 . S
C330 C335 1.391 . S
C331 C330 1.391 . S
C331 C332 1.391 . S
C332 H309 0.947 . S
C332 C331 1.391 . S
C332 C333 1.392 . S
C333 H310 0.948 . S
C333 C332 1.392 . S
C333 C334 1.419 . S
C334 C333 1.419 . S
C334 C335 1.391 . S
C334 C338 1.397 . S
C335 C330 1.391 . S
C335 C334 1.391 . S
C335 C336 1.399 . S
C336 C335 1.399 . S
C336 C337 1.396 . S
C336 C339 1.453 . S
C336 C340 1.684 . S
C337 C327 1.723 . S
C337 C336 1.396 . S
C337 C338 1.394 . S
C338 C308 1.723 . S
C338 C334 1.397 . S
C338 C337 1.394 . S
C339 H311 0.982 . S
C339 H315 0.979 . S
C339 H316 0.977 . S
C339 C336 1.453 . S
C340 H312 0.979 . S
C340 H313 0.980 . S
C340 H314 0.983 . S
C340 C336 1.684 . S
H341 C359 0.948 . S
H342 C300 0.948 . S
H343 C318 0.979 . S
H344 C318 0.980 . S
H345 C318 0.983 . S
H346 C317 0.982 . S
H347 C317 0.979 . S
H348 C317 0.977 . S
H349 C319 0.948 . S
H350 C321 0.947 . S
H351 C322 0.948 . S
H352 C328 0.982 . S
H353 C328 0.979 . S
H354 C328 0.977 . S
H355 C329 0.979 . S
H356 C329 0.980 . S
H357 C329 0.983 . S
H358 C302 0.947 . S
C359 C302 1.392 . S
C359 C303 1.419 . S
C359 H341 0.948 . S
C360 C361 1.391 . S
C360 C364 1.391 . S
C360 H402 0.948 . S
C361 C360 1.391 . S
C361 C362 1.391 . S
C362 C361 1.391 . S
C362 H418 0.947 . S
C362 C419 1.392 . S
C363 C364 1.391 . S
C363 C367 1.397 . S
C363 C419 1.419 . S
C364 C360 1.391 . S
C364 C363 1.391 . S
C364 C365 1.399 . S
C365 C364 1.399 . S
C365 C368 1.396 . S
C365 C377 1.453 . S
C365 C378 1.684 . S
H366 C390 0.948 1_455 S
C367 C363 1.397 . S
C367 C368 1.394 . S
C367 C386 1.723 . S
C368 C365 1.396 . S
C368 C367 1.394 . S
C368 C398 1.723 . S
H369 C392 0.947 . S
H370 C393 0.948 . S
H371 C399 0.982 . S
H372 C400 0.979 . S
H373 C400 0.980 . S
H374 C400 0.983 . S
H375 C399 0.979 1_455 S
H376 C399 0.977 1_455 S
C377 C365 1.453 . S
C377 H406 0.982 . S
C377 H407 0.979 . S
C377 H408 0.977 . S
C378 C365 1.684 . S
C378 H403 0.979 . S
C378 H404 0.980 . S
C378 H405 0.983 . S
C379 C380 1.391 . S
C379 C384 1.391 1_455 S
C379 H409 0.948 . S
C380 C379 1.391 . S
C380 C381 1.391 . S
C381 C380 1.391 . S
C381 C382 1.392 . S
C381 H410 0.947 . S
C382 C381 1.392 . S
C382 C383 1.419 1_455 S
C382 H411 0.948 . S
C383 C382 1.419 1_655 S
C383 C384 1.391 . S
C383 C387 1.397 . S
C384 C379 1.391 1_655 S
C384 C383 1.391 . S
C384 C385 1.399 . S
C385 C384 1.399 . S
C385 C386 1.396 . S
C385 C388 1.453 . S
C385 C389 1.684 . S
C386 C367 1.723 . S
C386 C385 1.396 . S
C386 C387 1.394 . S
C387 C383 1.397 . S
C387 C386 1.394 . S
C387 C397 1.723 . S
C388 C385 1.453 . S
C388 H412 0.982 . S
C388 H413 0.979 . S
C388 H414 0.977 . S
C389 C385 1.684 . S
C389 H415 0.979 . S
C389 H416 0.980 . S
C389 H417 0.983 . S
C390 H366 0.948 1_655 S
C390 C391 1.391 . S
C390 C395 1.391 . S
C391 C390 1.391 . S
C391 C392 1.391 . S
C392 H369 0.947 . S
C392 C391 1.391 . S
C392 C393 1.392 . S
C393 H370 0.948 . S
C393 C392 1.392 . S
C393 C394 1.419 . S
C394 C393 1.419 . S
C394 C395 1.391 . S
C394 C398 1.397 . S
C395 C390 1.391 . S
C395 C394 1.391 . S
C395 C396 1.399 . S
C396 C395 1.399 . S
C396 C397 1.396 . S
C396 C399 1.453 . S
C396 C400 1.684 1_655 S
C397 C387 1.723 . S
C397 C396 1.396 . S
C397 C398 1.394 . S
C398 C368 1.723 . S
C398 C394 1.397 . S
C398 C397 1.394 . S
C399 H371 0.982 . S
C399 H375 0.979 1_655 S
C399 H376 0.977 1_655 S
C399 C396 1.453 . S
C400 H372 0.979 . S
C400 H373 0.980 . S
C400 H374 0.983 . S
C400 C396 1.684 1_455 S
H401 C419 0.948 . S
H402 C360 0.948 . S
H403 C378 0.979 . S
H404 C378 0.980 . S
H405 C378 0.983 . S
H406 C377 0.982 . S
H407 C377 0.979 . S
H408 C377 0.977 . S
H409 C379 0.948 . S
H410 C381 0.947 . S
H411 C382 0.948 . S
H412 C388 0.982 . S
H413 C388 0.979 . S
H414 C388 0.977 . S
H415 C389 0.979 . S
H416 C389 0.980 . S
H417 C389 0.983 . S
H418 C362 0.947 . S
C419 C362 1.392 . S
C419 C363 1.419 . S
C419 H401 0.948 . S
C420 C421 1.391 . S
C420 C424 1.391 . S
C420 H462 0.948 . S
C421 C420 1.391 . S
C421 C422 1.391 . S
C422 C421 1.391 . S
C422 H478 0.947 . S
C422 C479 1.392 . S
C423 C424 1.391 . S
C423 C427 1.397 . S
C423 C479 1.419 . S
C424 C420 1.391 . S
C424 C423 1.391 . S
C424 C425 1.399 . S
C425 C424 1.399 . S
C425 C428 1.396 . S
C425 C437 1.453 . S
C425 C438 1.684 . S
H426 C450 0.948 . S
C427 C423 1.397 . S
C427 C428 1.394 . S
C427 C446 1.723 . S
C428 C425 1.396 . S
C428 C427 1.394 . S
C428 C458 1.723 . S
H429 C452 0.947 . S
H430 C453 0.948 . S
H431 C459 0.982 . S
H432 C460 0.979 . S
H433 C460 0.980 . S
H434 C460 0.983 . S
H435 C459 0.979 . S
H436 C459 0.977 . S
C437 C425 1.453 . S
C437 H466 0.982 . S
C437 H467 0.979 . S
C437 H468 0.977 . S
C438 C425 1.684 . S
C438 H463 0.979 . S
C438 H464 0.980 . S
C438 H465 0.983 . S
C439 C440 1.391 . S
C439 C444 1.391 . S
C439 H469 0.948 . S
C440 C439 1.391 . S
C440 C441 1.391 . S
C441 C440 1.391 . S
C441 C442 1.392 . S
C441 H470 0.947 . S
C442 C441 1.392 . S
C442 C443 1.419 . S
C442 H471 0.948 . S
C443 C442 1.419 . S
C443 C444 1.391 . S
C443 C447 1.397 . S
C444 C439 1.391 . S
C444 C443 1.391 . S
C444 C445 1.399 . S
C445 C444 1.399 . S
C445 C446 1.396 . S
C445 C448 1.453 . S
C445 C449 1.684 . S
C446 C427 1.723 . S
C446 C445 1.396 . S
C446 C447 1.394 . S
C447 C443 1.397 . S
C447 C446 1.394 . S
C447 C457 1.723 . S
C448 C445 1.453 . S
C448 H472 0.982 . S
C448 H473 0.979 . S
C448 H474 0.977 . S
C449 C445 1.684 . S
C449 H475 0.979 . S
C449 H476 0.980 . S
C449 H477 0.983 . S
C450 H426 0.948 . S
C450 C451 1.391 . S
C450 C455 1.391 . S
C451 C450 1.391 . S
C451 C452 1.391 . S
C452 H429 0.947 . S
C452 C451 1.391 . S
C452 C453 1.392 . S
C453 H430 0.948 . S
C453 C452 1.392 . S
C453 C454 1.419 . S
C454 C453 1.419 . S
C454 C455 1.391 . S
C454 C458 1.397 . S
C455 C450 1.391 . S
C455 C454 1.391 . S
C455 C456 1.399 . S
C456 C455 1.399 . S
C456 C457 1.396 . S
C456 C459 1.453 . S
C456 C460 1.684 . S
C457 C447 1.723 . S
C457 C456 1.396 . S
C457 C458 1.394 . S
C458 C428 1.723 . S
C458 C454 1.397 . S
C458 C457 1.394 . S
C459 H431 0.982 . S
C459 H435 0.979 . S
C459 H436 0.977 . S
C459 C456 1.453 . S
C460 H432 0.979 . S
C460 H433 0.980 . S
C460 H434 0.983 . S
C460 C456 1.684 . S
H461 C479 0.948 . S
H462 C420 0.948 . S
H463 C438 0.979 . S
H464 C438 0.980 . S
H465 C438 0.983 . S
H466 C437 0.982 . S
H467 C437 0.979 . S
H468 C437 0.977 . S
H469 C439 0.948 . S
H470 C441 0.947 . S
H471 C442 0.948 . S
H472 C448 0.982 . S
H473 C448 0.979 . S
H474 C448 0.977 . S
H475 C449 0.979 . S
H476 C449 0.980 . S
H477 C449 0.983 . S
H478 C422 0.947 . S
C479 C422 1.392 . S
C479 C423 1.419 . S
C479 H461 0.948 . S
C480 C481 1.391 . S
C480 C484 1.391 . S
C480 H522 0.948 . S
C481 C480 1.391 . S
C481 C482 1.391 . S
C482 C481 1.391 . S
C482 H538 0.947 . S
C482 C539 1.392 . S
C483 C484 1.391 . S
C483 C487 1.397 . S
C483 C539 1.419 . S
C484 C480 1.391 . S
C484 C483 1.391 . S
C484 C485 1.399 . S
C485 C484 1.399 . S
C485 C488 1.396 . S
C485 C497 1.453 . S
C485 C498 1.684 . S
H486 C510 0.948 . S
C487 C483 1.397 . S
C487 C488 1.394 . S
C487 C506 1.723 . S
C488 C485 1.396 . S
C488 C487 1.394 . S
C488 C518 1.723 . S
H489 C512 0.947 . S
H490 C513 0.948 . S
H491 C519 0.982 . S
H492 C520 0.979 . S
H493 C520 0.980 . S
H494 C520 0.983 . S
H495 C519 0.979 . S
H496 C519 0.977 . S
C497 C485 1.453 . S
C497 H526 0.982 . S
C497 H527 0.979 . S
C497 H528 0.977 . S
C498 C485 1.684 . S
C498 H523 0.979 . S
C498 H524 0.980 . S
C498 H525 0.983 . S
C499 C500 1.391 . S
C499 C504 1.391 . S
C499 H529 0.948 . S
C500 C499 1.391 . S
C500 C501 1.391 . S
C501 C500 1.391 . S
C501 C502 1.392 . S
C501 H530 0.947 . S
C502 C501 1.392 . S
C502 C503 1.419 . S
C502 H531 0.948 . S
C503 C502 1.419 . S
C503 C504 1.391 . S
C503 C507 1.397 . S
C504 C499 1.391 . S
C504 C503 1.391 . S
C504 C505 1.399 . S
C505 C504 1.399 . S
C505 C506 1.396 . S
C505 C508 1.453 . S
C505 C509 1.684 . S
C506 C487 1.723 . S
C506 C505 1.396 . S
C506 C507 1.394 . S
C507 C503 1.397 . S
C507 C506 1.394 . S
C507 C517 1.723 . S
C508 C505 1.453 . S
C508 H532 0.982 . S
C508 H533 0.979 . S
C508 H534 0.977 . S
C509 C505 1.684 . S
C509 H535 0.979 . S
C509 H536 0.980 . S
C509 H537 0.983 . S
C510 H486 0.948 . S
C510 C511 1.391 . S
C510 C515 1.391 . S
C511 C510 1.391 . S
C511 C512 1.391 . S
C512 H489 0.947 . S
C512 C511 1.391 . S
C512 C513 1.392 . S
C513 H490 0.948 . S
C513 C512 1.392 . S
C513 C514 1.419 . S
C514 C513 1.419 . S
C514 C515 1.391 . S
C514 C518 1.397 . S
C515 C510 1.391 . S
C515 C514 1.391 . S
C515 C516 1.399 . S
C516 C515 1.399 . S
C516 C517 1.396 . S
C516 C519 1.453 . S
C516 C520 1.684 . S
C517 C507 1.723 . S
C517 C516 1.396 . S
C517 C518 1.394 . S
C518 C488 1.723 . S
C518 C514 1.397 . S
C518 C517 1.394 . S
C519 H491 0.982 . S
C519 H495 0.979 . S
C519 H496 0.977 . S
C519 C516 1.453 . S
C520 H492 0.979 . S
C520 H493 0.980 . S
C520 H494 0.983 . S
C520 C516 1.684 . S
H521 C539 0.948 . S
H522 C480 0.948 . S
H523 C498 0.979 . S
H524 C498 0.980 . S
H525 C498 0.983 . S
H526 C497 0.982 . S
H527 C497 0.979 . S
H528 C497 0.977 . S
H529 C499 0.948 . S
H530 C501 0.947 . S
H531 C502 0.948 . S
H532 C508 0.982 . S
H533 C508 0.979 . S
H534 C508 0.977 . S
H535 C509 0.979 . S
H536 C509 0.980 . S
H537 C509 0.983 . S
H538 C482 0.947 . S
C539 C482 1.392 . S
C539 C483 1.419 . S
C539 H521 0.948 . S
C540 C541 1.391 . S
C540 C544 1.391 . S
C540 H582 0.948 . S
C541 C540 1.391 . S
C541 C542 1.391 . S
C542 C541 1.391 . S
C542 H598 0.947 . S
C542 C599 1.392 . S
C543 C544 1.391 . S
C543 C547 1.397 . S
C543 C599 1.419 . S
C544 C540 1.391 . S
C544 C543 1.391 . S
C544 C545 1.399 . S
C545 C544 1.399 . S
C545 C548 1.396 . S
C545 C557 1.453 . S
C545 C558 1.684 . S
H546 C570 0.948 . S
C547 C543 1.397 . S
C547 C548 1.394 . S
C547 C566 1.723 . S
C548 C545 1.396 . S
C548 C547 1.394 . S
C548 C578 1.723 . S
H549 C572 0.947 . S
H550 C573 0.948 . S
H551 C579 0.982 . S
H552 C580 0.979 . S
H553 C580 0.980 . S
H554 C580 0.983 . S
H555 C579 0.979 1_545 S
H556 C579 0.951 1_545 S
C557 C545 1.453 . S
C557 H586 0.982 . S
C557 H587 0.979 . S
C557 H588 0.977 . S
C558 C545 1.684 . S
C558 H583 0.979 . S
C558 H584 0.980 . S
C558 H585 0.983 . S
C559 C560 1.391 . S
C559 C564 1.391 1_545 S
C559 H589 0.948 . S
C560 C559 1.391 . S
C560 C561 1.391 . S
C561 C560 1.391 . S
C561 C562 1.392 . S
C561 H590 0.947 . S
C562 C561 1.392 . S
C562 C563 1.419 1_545 S
C562 H591 0.948 . S
C563 C562 1.419 1_565 S
C563 C564 1.391 . S
C563 C567 1.397 . S
C564 C559 1.391 1_565 S
C564 C563 1.391 . S
C564 C565 1.399 . S
C565 C564 1.399 . S
C565 C566 1.396 . S
C565 C568 1.453 . S
C565 C569 1.684 . S
C566 C547 1.723 . S
C566 C565 1.396 . S
C566 C567 1.394 . S
C567 C563 1.397 . S
C567 C566 1.394 . S
C567 C577 1.723 . S
C568 C565 1.453 . S
C568 H592 0.982 . S
C568 H593 0.979 . S
C568 H594 0.977 . S
C569 C565 1.684 . S
C569 H595 0.979 . S
C569 H596 0.980 . S
C569 H597 0.983 . S
C570 H546 0.948 . S
C570 C571 1.391 . S
C570 C575 1.391 . S
C571 C570 1.391 . S
C571 C572 1.391 . S
C572 H549 0.947 . S
C572 C571 1.391 . S
C572 C573 1.392 . S
C573 H550 0.948 . S
C573 C572 1.392 . S
C573 C574 1.419 . S
C574 C573 1.419 . S
C574 C575 1.391 . S
C574 C578 1.397 . S
C575 C570 1.391 . S
C575 C574 1.391 . S
C575 C576 1.399 . S
C576 C575 1.399 . S
C576 C577 1.396 . S
C576 C579 1.453 . S
C576 C580 1.684 1_565 S
C577 C567 1.723 . S
C577 C576 1.396 . S
C577 C578 1.394 . S
C578 C548 1.723 . S
C578 C574 1.397 . S
C578 C577 1.394 . S
C579 H551 0.982 . S
C579 H555 0.979 1_565 S
C579 H556 0.951 1_565 S
C579 C576 1.453 . S
C580 H552 0.979 . S
C580 H553 0.980 . S
C580 H554 0.983 . S
C580 C576 1.684 1_545 S
H581 C599 0.948 . S
H582 C540 0.948 . S
H583 C558 0.979 . S
H584 C558 0.980 . S
H585 C558 0.983 . S
H586 C557 0.982 . S
H587 C557 0.979 . S
H588 C557 0.977 . S
H589 C559 0.948 . S
H590 C561 0.947 . S
H591 C562 0.948 . S
H592 C568 0.982 . S
H593 C568 0.979 . S
H594 C568 0.977 . S
H595 C569 0.979 . S
H596 C569 0.980 . S
H597 C569 0.983 . S
H598 C542 0.947 . S
C599 C542 1.392 . S
C599 C543 1.419 . S
C599 H581 0.948 . S
C600 C601 1.391 . S
C600 C604 1.391 . S
C600 H642 0.948 . S
C601 C600 1.391 . S
C601 C602 1.391 . S
C602 C601 1.391 . S
C602 H658 0.947 . S
C602 C659 1.392 . S
C603 C604 1.391 . S
C603 C607 1.397 . S
C603 C659 1.419 . S
C604 C600 1.391 . S
C604 C603 1.391 . S
C604 C605 1.399 . S
C605 C604 1.399 . S
C605 C608 1.396 . S
C605 C617 1.453 . S
C605 C618 1.684 . S
H606 C630 0.948 . S
C607 C603 1.397 . S
C607 C608 1.394 . S
C607 C626 1.723 . S
C608 C605 1.396 . S
C608 C607 1.394 . S
C608 C638 1.723 . S
H609 C632 0.947 . S
H610 C633 0.948 . S
H611 C639 0.982 . S
H612 C640 0.979 . S
H613 C640 0.980 . S
H614 C640 0.983 . S
H615 C639 0.979 . S
H616 C639 0.977 . S
C617 C605 1.453 . S
C617 H646 0.982 . S
C617 H647 0.979 . S
C617 H648 0.977 . S
C618 C605 1.684 . S
C618 H643 0.979 . S
C618 H644 0.980 . S
C618 H645 0.983 . S
C619 C620 1.391 . S
C619 C624 1.391 . S
C619 H649 0.948 . S
C620 C619 1.391 . S
C620 C621 1.391 . S
C621 C620 1.391 . S
C621 C622 1.392 . S
C621 H650 0.947 . S
C622 C621 1.392 . S
C622 C623 1.419 . S
C622 H651 0.948 . S
C623 C622 1.419 . S
C623 C624 1.391 . S
C623 C627 1.397 . S
C624 C619 1.391 . S
C624 C623 1.391 . S
C624 C625 1.399 . S
C625 C624 1.399 . S
C625 C626 1.396 . S
C625 C628 1.453 . S
C625 C629 1.684 . S
C626 C607 1.723 . S
C626 C625 1.396 . S
C626 C627 1.394 . S
C627 C623 1.397 . S
C627 C626 1.394 . S
C627 C637 1.723 . S
C628 C625 1.453 . S
C628 H652 0.982 . S
C628 H653 0.979 . S
C628 H654 0.977 . S
C629 C625 1.684 . S
C629 H655 0.979 . S
C629 H656 0.980 . S
C629 H657 0.983 . S
C630 H606 0.948 . S
C630 C631 1.391 . S
C630 C635 1.391 . S
C631 C630 1.391 . S
C631 C632 1.391 . S
C632 H609 0.947 . S
C632 C631 1.391 . S
C632 C633 1.392 . S
C633 H610 0.948 . S
C633 C632 1.392 . S
C633 C634 1.419 . S
C634 C633 1.419 . S
C634 C635 1.391 . S
C634 C638 1.397 . S
C635 C630 1.391 . S
C635 C634 1.391 . S
C635 C636 1.399 . S
C636 C635 1.399 . S
C636 C637 1.396 . S
C636 C639 1.453 . S
C636 C640 1.684 . S
C637 C627 1.723 . S
C637 C636 1.396 . S
C637 C638 1.394 . S
C638 C608 1.723 . S
C638 C634 1.397 . S
C638 C637 1.394 . S
C639 H611 0.982 . S
C639 H615 0.979 . S
C639 H616 0.977 . S
C639 C636 1.453 . S
C640 H612 0.979 . S
C640 H613 0.980 . S
C640 H614 0.983 . S
C640 C636 1.684 . S
H641 C659 0.948 . S
H642 C600 0.948 . S
H643 C618 0.979 . S
H644 C618 0.980 . S
H645 C618 0.983 . S
H646 C617 0.982 . S
H647 C617 0.979 . S
H648 C617 0.977 . S
H649 C619 0.948 . S
H650 C621 0.947 . S
H651 C622 0.948 . S
H652 C628 0.982 . S
H653 C628 0.979 . S
H654 C628 0.977 . S
H655 C629 0.979 . S
H656 C629 0.980 . S
H657 C629 0.983 . S
H658 C602 0.947 . S
C659 C602 1.392 . S
C659 C603 1.419 . S
C659 H641 0.948 . S
C660 C661 1.391 . S
C660 C664 1.391 . S
C660 H702 0.948 . S
C661 C660 1.391 . S
C661 C662 1.391 . S
C662 C661 1.391 . S
C662 H718 0.947 . S
C662 C719 1.392 . S
C663 C664 1.391 . S
C663 C667 1.397 . S
C663 C719 1.419 . S
C664 C660 1.391 . S
C664 C663 1.391 . S
C664 C665 1.399 . S
C665 C664 1.399 . S
C665 C668 1.396 . S
C665 C677 1.453 . S
C665 C678 1.684 . S
H666 C690 0.948 . S
C667 C663 1.397 . S
C667 C668 1.394 . S
C667 C686 1.723 . S
C668 C665 1.396 . S
C668 C667 1.394 . S
C668 C698 1.723 . S
H669 C692 0.947 . S
H670 C693 0.948 . S
H671 C699 0.982 . S
H672 C700 0.979 . S
H673 C700 0.980 . S
H674 C700 0.983 . S
H675 C699 0.979 . S
H676 C699 0.977 . S
C677 C665 1.453 . S
C677 H706 0.982 . S
C677 H707 0.979 . S
C677 H708 0.977 . S
C678 C665 1.684 . S
C678 H703 0.979 . S
C678 H704 0.980 . S
C678 H705 0.983 . S
C679 C680 1.391 . S
C679 C684 1.391 . S
C679 H709 0.948 . S
C680 C679 1.391 . S
C680 C681 1.391 . S
C681 C680 1.391 . S
C681 C682 1.392 . S
C681 H710 0.947 . S
C682 C681 1.392 . S
C682 C683 1.419 . S
C682 H711 0.948 . S
C683 C682 1.419 . S
C683 C684 1.391 . S
C683 C687 1.397 . S
C684 C679 1.391 . S
C684 C683 1.391 . S
C684 C685 1.399 . S
C685 C684 1.399 . S
C685 C686 1.396 . S
C685 C688 1.453 . S
C685 C689 1.684 . S
C686 C667 1.723 . S
C686 C685 1.396 . S
C686 C687 1.394 . S
C687 C683 1.397 . S
C687 C686 1.394 . S
C687 C697 1.723 . S
C688 C685 1.453 . S
C688 H712 0.982 . S
C688 H713 0.979 . S
C688 H714 0.977 . S
C689 C685 1.684 . S
C689 H715 0.979 . S
C689 H716 0.980 . S
C689 H717 0.983 . S
C690 H666 0.948 . S
C690 C691 1.391 . S
C690 C695 1.391 . S
C691 C690 1.391 . S
C691 C692 1.391 . S
C692 H669 0.947 . S
C692 C691 1.391 . S
C692 C693 1.392 . S
C693 H670 0.948 . S
C693 C692 1.392 . S
C693 C694 1.419 . S
C694 C693 1.419 . S
C694 C695 1.391 . S
C694 C698 1.397 . S
C695 C690 1.391 . S
C695 C694 1.391 . S
C695 C696 1.399 . S
C696 C695 1.399 . S
C696 C697 1.396 . S
C696 C699 1.453 . S
C696 C700 1.684 . S
C697 C687 1.723 . S
C697 C696 1.396 . S
C697 C698 1.394 . S
C698 C668 1.723 . S
C698 C694 1.397 . S
C698 C697 1.394 . S
C699 H671 0.982 . S
C699 H675 0.979 . S
C699 H676 0.977 . S
C699 C696 1.453 . S
C700 H672 0.979 . S
C700 H673 0.980 . S
C700 H674 0.983 . S
C700 C696 1.684 . S
H701 C719 0.948 . S
H702 C660 0.948 . S
H703 C678 0.979 . S
H704 C678 0.980 . S
H705 C678 0.983 . S
H706 C677 0.982 . S
H707 C677 0.979 . S
H708 C677 0.977 . S
H709 C679 0.948 . S
H710 C681 0.947 . S
H711 C682 0.948 . S
H712 C688 0.982 . S
H713 C688 0.979 . S
H714 C688 0.977 . S
H715 C689 0.979 . S
H716 C689 0.980 . S
H717 C689 0.983 . S
H718 C662 0.947 . S
C719 C662 1.392 . S
C719 C663 1.419 . S
C719 H701 0.948 . S
C720 C721 1.391 . S
C720 C724 1.391 . S
C720 H762 0.948 . S
C721 C720 1.391 . S
C721 C722 1.391 . S
C722 C721 1.391 . S
C722 H778 0.947 . S
C722 C779 1.392 . S
C723 C724 1.391 . S
C723 C727 1.397 . S
C723 C779 1.419 . S
C724 C720 1.391 . S
C724 C723 1.391 . S
C724 C725 1.399 . S
C725 C724 1.399 . S
C725 C728 1.396 . S
C725 C737 1.453 . S
C725 C738 1.684 . S
H726 C750 0.948 . S
C727 C723 1.397 . S
C727 C728 1.394 . S
C727 C746 1.723 . S
C728 C725 1.396 . S
C728 C727 1.394 . S
C728 C758 1.723 . S
H729 C752 0.947 . S
H730 C753 0.948 . S
H731 C759 0.982 . S
H732 C760 0.979 . S
H733 C760 0.980 . S
H734 C760 0.983 . S
H735 C759 0.979 . S
H736 C759 0.977 . S
C737 C725 1.453 . S
C737 H766 0.982 . S
C737 H767 0.979 . S
C737 H768 0.977 . S
C738 C725 1.684 . S
C738 H763 0.979 . S
C738 H764 0.980 . S
C738 H765 0.983 . S
C739 C740 1.391 . S
C739 C744 1.391 . S
C739 H769 0.948 . S
C740 C739 1.391 . S
C740 C741 1.391 . S
C741 C740 1.391 . S
C741 C742 1.392 . S
C741 H770 0.947 . S
C742 C741 1.392 . S
C742 C743 1.419 . S
C742 H771 0.948 . S
C743 C742 1.419 . S
C743 C744 1.391 . S
C743 C747 1.397 . S
C744 C739 1.391 . S
C744 C743 1.391 . S
C744 C745 1.399 . S
C745 C744 1.399 . S
C745 C746 1.396 . S
C745 C748 1.453 . S
C745 C749 1.684 . S
C746 C727 1.723 . S
C746 C745 1.396 . S
C746 C747 1.394 . S
C747 C743 1.397 . S
C747 C746 1.394 . S
C747 C757 1.723 . S
C748 C745 1.453 . S
C748 H772 0.982 . S
C748 H773 0.979 . S
C748 H774 0.977 . S
C749 C745 1.684 . S
C749 H775 0.979 . S
C749 H776 0.980 . S
C749 H777 0.983 . S
C750 H726 0.948 . S
C750 C751 1.391 . S
C750 C755 1.391 . S
C751 C750 1.391 . S
C751 C752 1.391 . S
C752 H729 0.947 . S
C752 C751 1.391 . S
C752 C753 1.392 . S
C753 H730 0.948 . S
C753 C752 1.392 . S
C753 C754 1.419 . S
C754 C753 1.419 . S
C754 C755 1.391 . S
C754 C758 1.397 . S
C755 C750 1.391 . S
C755 C754 1.391 . S
C755 C756 1.399 . S
C756 C755 1.399 . S
C756 C757 1.396 . S
C756 C759 1.453 . S
C756 C760 1.684 . S
C757 C747 1.723 . S
C757 C756 1.396 . S
C757 C758 1.394 . S
C758 C728 1.723 . S
C758 C754 1.397 . S
C758 C757 1.394 . S
C759 H731 0.982 . S
C759 H735 0.979 . S
C759 H736 0.977 . S
C759 C756 1.453 . S
C760 H732 0.979 . S
C760 H733 0.980 . S
C760 H734 0.983 . S
C760 C756 1.684 . S
H761 C779 0.948 . S
H762 C720 0.948 . S
H763 C738 0.979 . S
H764 C738 0.980 . S
H765 C738 0.983 . S
H766 C737 0.982 . S
H767 C737 0.979 . S
H768 C737 0.977 . S
H769 C739 0.948 . S
H770 C741 0.947 . S
H771 C742 0.948 . S
H772 C748 0.982 . S
H773 C748 0.979 . S
H774 C748 0.977 . S
H775 C749 0.979 . S
H776 C749 0.980 . S
H777 C749 0.983 . S
H778 C722 0.947 . S
C779 C722 1.392 . S
C779 C723 1.419 . S
C779 H761 0.948 . S
C780 C781 1.391 . S
C780 C784 1.360 1_554 S
C780 H822 0.948 . S
C781 C780 1.391 . S
C781 C782 1.391 1_554 S
C782 C781 1.391 1_556 S
C782 H838 0.947 . S
C782 C839 1.392 . S
C783 C784 1.424 . S
C783 C787 1.397 . S
C783 C839 1.419 . S
C784 C780 1.360 1_556 S
C784 C783 1.424 . S
C784 C785 1.403 . S
C785 C784 1.403 . S
C785 C788 1.396 . S
C785 C797 1.453 1_556 S
C785 C798 1.684 1_556 S
H786 C810 0.948 . S
C787 C783 1.397 . S
C787 C788 1.394 . S
C787 C806 1.723 . S
C788 C785 1.396 . S
C788 C787 1.394 . S
C788 C818 1.723 . S
H789 C812 0.947 1_554 S
H790 C813 0.974 . S
H791 C819 0.982 . S
H792 C820 0.979 . S
H793 C820 0.980 . S
H794 C820 0.983 . S
H795 C819 0.979 . S
H796 C819 0.977 . S
C797 C785 1.453 1_554 S
C797 H826 0.982 . S
C797 H827 0.979 . S
C797 H828 0.977 . S
C798 C785 1.684 1_554 S
C798 H823 0.979 1_554 S
C798 H824 0.980 . S
C798 H825 0.983 . S
C799 C800 1.391 . S
C799 C804 1.391 . S
C799 H829 0.948 . S
C800 C799 1.391 . S
C800 C801 1.391 . S
C801 C800 1.391 . S
C801 C802 1.392 . S
C801 H830 0.947 . S
C802 C801 1.392 . S
C802 C803 1.419 . S
C802 H831 0.948 . S
C803 C802 1.419 . S
C803 C804 1.391 . S
C803 C807 1.397 . S
C804 C799 1.391 . S
C804 C803 1.391 . S
C804 C805 1.399 . S
C805 C804 1.399 . S
C805 C806 1.396 . S
C805 C808 1.453 . S
C805 C809 1.684 . S
C806 C787 1.723 . S
C806 C805 1.396 . S
C806 C807 1.394 . S
C807 C803 1.397 . S
C807 C806 1.394 . S
C807 C817 1.723 . S
C808 C805 1.453 . S
C808 H832 0.982 . S
C808 H833 0.979 . S
C808 H834 0.977 . S
C809 C805 1.684 . S
C809 H835 0.979 . S
C809 H836 0.980 . S
C809 H837 0.983 . S
C810 H786 0.948 . S
C810 C811 1.391 . S
C810 C815 1.391 . S
C811 C810 1.391 . S
C811 C812 1.391 . S
C812 H789 0.947 1_556 S
C812 C811 1.391 . S
C812 C813 1.392 . S
C813 H790 0.974 . S
C813 C812 1.392 . S
C813 C814 1.419 . S
C814 C813 1.419 . S
C814 C815 1.391 . S
C814 C818 1.397 . S
C815 C810 1.391 . S
C815 C814 1.391 . S
C815 C816 1.399 . S
C816 C815 1.399 . S
C816 C817 1.396 . S
C816 C819 1.453 . S
C816 C820 1.684 . S
C817 C807 1.723 . S
C817 C816 1.396 . S
C817 C818 1.394 . S
C818 C788 1.723 . S
C818 C814 1.397 . S
C818 C817 1.394 . S
C819 H791 0.982 . S
C819 H795 0.979 . S
C819 H796 0.977 . S
C819 C816 1.453 . S
C820 H792 0.979 . S
C820 H793 0.980 . S
C820 H794 0.983 . S
C820 C816 1.684 . S
H821 C839 0.948 . S
H822 C780 0.948 . S
H823 C798 0.979 1_556 S
H824 C798 0.980 . S
H825 C798 0.983 . S
H826 C797 0.982 . S
H827 C797 0.979 . S
H828 C797 0.977 . S
H829 C799 0.948 . S
H830 C801 0.947 . S
H831 C802 0.948 . S
H832 C808 0.982 . S
H833 C808 0.979 . S
H834 C808 0.977 . S
H835 C809 0.979 . S
H836 C809 0.980 . S
H837 C809 0.983 . S
H838 C782 0.947 . S
C839 C782 1.392 . S
C839 C783 1.419 . S
C839 H821 0.948 . S
C840 C841 1.391 . S
C840 C844 1.391 . S
C840 H882 0.948 . S
C841 C840 1.391 . S
C841 C842 1.391 . S
C842 C841 1.391 . S
C842 H898 0.947 . S
C842 C899 1.392 . S
C843 C844 1.391 . S
C843 C847 1.397 . S
C843 C899 1.419 . S
C844 C840 1.391 . S
C844 C843 1.391 . S
C844 C845 1.399 . S
C845 C844 1.399 . S
C845 C848 1.396 . S
C845 C857 1.453 . S
C845 C858 1.684 . S
H846 C870 0.948 . S
C847 C843 1.397 . S
C847 C848 1.394 . S
C847 C866 1.723 . S
C848 C845 1.396 . S
C848 C847 1.394 . S
C848 C878 1.723 . S
H849 C872 0.947 . S
H850 C873 0.948 . S
H851 C879 0.982 . S
H852 C880 0.979 . S
H853 C880 0.980 . S
H854 C880 0.983 . S
H855 C879 0.979 . S
H856 C879 0.977 . S
C857 C845 1.453 . S
C857 H886 0.982 . S
C857 H887 0.979 . S
C857 H888 0.977 . S
C858 C845 1.684 . S
C858 H883 0.979 . S
C858 H884 0.980 . S
C858 H885 0.983 . S
C859 C860 1.391 . S
C859 C864 1.391 . S
C859 H889 0.948 . S
C860 C859 1.391 . S
C860 C861 1.391 . S
C861 C860 1.391 . S
C861 C862 1.392 . S
C861 H890 0.947 . S
C862 C861 1.392 . S
C862 C863 1.419 . S
C862 H891 0.948 . S
C863 C862 1.419 . S
C863 C864 1.391 . S
C863 C867 1.397 . S
C864 C859 1.391 . S
C864 C863 1.391 . S
C864 C865 1.399 . S
C865 C864 1.399 . S
C865 C866 1.396 . S
C865 C868 1.453 . S
C865 C869 1.684 . S
C866 C847 1.723 . S
C866 C865 1.396 . S
C866 C867 1.394 . S
C867 C863 1.397 . S
C867 C866 1.394 . S
C867 C877 1.723 . S
C868 C865 1.453 . S
C868 H892 0.982 . S
C868 H893 0.979 . S
C868 H894 0.977 . S
C869 C865 1.684 . S
C869 H895 0.979 . S
C869 H896 0.980 . S
C869 H897 0.983 . S
C870 H846 0.948 . S
C870 C871 1.391 . S
C870 C875 1.391 . S
C871 C870 1.391 . S
C871 C872 1.391 . S
C872 H849 0.947 . S
C872 C871 1.391 . S
C872 C873 1.392 . S
C873 H850 0.948 . S
C873 C872 1.392 . S
C873 C874 1.419 . S
C874 C873 1.419 . S
C874 C875 1.391 . S
C874 C878 1.397 . S
C875 C870 1.391 . S
C875 C874 1.391 . S
C875 C876 1.399 . S
C876 C875 1.399 . S
C876 C877 1.396 . S
C876 C879 1.453 . S
C876 C880 1.684 . S
C877 C867 1.723 . S
C877 C876 1.396 . S
C877 C878 1.394 . S
C878 C848 1.723 . S
C878 C874 1.397 . S
C878 C877 1.394 . S
C879 H851 0.982 . S
C879 H855 0.979 . S
C879 H856 0.977 . S
C879 C876 1.453 . S
C880 H852 0.979 . S
C880 H853 0.980 . S
C880 H854 0.983 . S
C880 C876 1.684 . S
H881 C899 0.948 . S
H882 C840 0.948 . S
H883 C858 0.979 . S
H884 C858 0.980 . S
H885 C858 0.983 . S
H886 C857 0.982 . S
H887 C857 0.979 . S
H888 C857 0.977 . S
H889 C859 0.948 . S
H890 C861 0.947 . S
H891 C862 0.948 . S
H892 C868 0.982 . S
H893 C868 0.979 . S
H894 C868 0.977 . S
H895 C869 0.979 . S
H896 C869 0.980 . S
H897 C869 0.983 . S
H898 C842 0.947 . S
C899 C842 1.392 . S
C899 C843 1.419 . S
C899 H881 0.948 . S
C900 C901 1.391 . S
C900 C904 1.391 1_565 S
C900 H942 0.948 1_556 S
C901 C900 1.391 . S
C901 C902 1.391 . S
C902 C901 1.391 . S
C902 H958 0.947 . S
C902 C959 1.392 . S
C903 C904 1.391 . S
C903 C907 1.397 . S
C903 C959 1.419 1_545 S
C904 C900 1.391 1_545 S
C904 C903 1.391 . S
C904 C905 1.399 . S
C905 C904 1.399 . S
C905 C908 1.396 . S
C905 C917 1.453 . S
C905 C918 1.684 1_556 S
H906 C930 0.948 . S
C907 C903 1.397 . S
C907 C908 1.394 . S
C907 C926 1.723 . S
C908 C905 1.396 . S
C908 C907 1.394 . S
C908 C938 1.723 . S
H909 C932 0.947 . S
H910 C933 0.948 . S
H911 C939 0.982 . S
H912 C940 0.979 . S
H913 C940 0.980 . S
H914 C940 0.983 . S
H915 C939 0.979 . S
H916 C939 0.977 . S
C917 C905 1.453 . S
C917 H946 0.982 . S
C917 H947 0.979 1_556 S
C917 H948 0.977 1_556 S
C918 C905 1.684 1_554 S
C918 H943 0.979 . S
C918 H944 0.980 . S
C918 H945 0.983 . S
C919 C920 1.391 . S
C919 C924 1.391 . S
C919 H949 0.948 1_545 S
C920 C919 1.391 . S
C920 C921 1.391 . S
C921 C920 1.391 . S
C921 C922 1.392 . S
C921 H950 0.947 . S
C922 C921 1.392 . S
C922 C923 1.419 . S
C922 H951 0.948 . S
C923 C922 1.419 . S
C923 C924 1.391 . S
C923 C927 1.397 . S
C924 C919 1.391 . S
C924 C923 1.391 . S
C924 C925 1.399 . S
C925 C924 1.399 . S
C925 C926 1.396 . S
C925 C928 1.451 1_545 S
C925 C929 1.684 1_545 S
C926 C907 1.723 . S
C926 C925 1.396 . S
C926 C927 1.394 . S
C927 C923 1.397 . S
C927 C926 1.394 . S
C927 C937 1.723 . S
C928 C925 1.451 1_565 S
C928 H952 0.969 1_565 S
C928 H953 0.988 . S
C928 H954 0.983 . S
C929 C925 1.684 1_565 S
C929 H955 0.979 . S
C929 H956 0.980 . S
C929 H957 0.983 . S
C930 H906 0.948 . S
C930 C931 1.391 . S
C930 C935 1.391 1_554 S
C931 C930 1.391 . S
C931 C932 1.391 . S
C932 H909 0.947 . S
C932 C931 1.391 . S
C932 C933 1.392 . S
C933 H910 0.948 . S
C933 C932 1.392 . S
C933 C934 1.422 1_554 S
C934 C933 1.422 1_556 S
C934 C935 1.391 . S
C934 C938 1.394 . S
C935 C930 1.391 1_556 S
C935 C934 1.391 . S
C935 C936 1.399 . S
C936 C935 1.399 . S
C936 C937 1.396 . S
C936 C939 1.453 . S
C936 C940 1.684 . S
C937 C927 1.723 . S
C937 C936 1.396 . S
C937 C938 1.394 . S
C938 C908 1.723 . S
C938 C934 1.394 . S
C938 C937 1.394 . S
C939 H911 0.982 . S
C939 H915 0.979 . S
C939 H916 0.977 . S
C939 C936 1.453 . S
C940 H912 0.979 . S
C940 H913 0.980 . S
C940 H914 0.983 . S
C940 C936 1.684 . S
H941 C959 0.948 . S
H942 C900 0.948 1_554 S
H943 C918 0.979 . S
H944 C918 0.980 . S
H945 C918 0.983 . S
H946 C917 0.982 . S
H947 C917 0.979 1_554 S
H948 C917 0.977 1_554 S
H949 C919 0.948 1_565 S
H950 C921 0.947 . S
H951 C922 0.948 . S
H952 C928 0.969 1_545 S
H953 C928 0.988 . S
H954 C928 0.983 . S
H955 C929 0.979 . S
H956 C929 0.980 . S
H957 C929 0.983 . S
H958 C902 0.947 . S
C959 C902 1.392 . S
C959 C903 1.419 1_565 S
C959 H941 0.948 . S
Mg960 O961 2.030 . S
Mg960 O967 1.986 1_554 S
Mg960 O969 2.114 . S
Mg960 O970 2.251 . S
Mg960 O973 2.010 . S
O961 Mg960 2.030 . S
O961 C964 1.249 1_554 S
O962 Mg963 2.028 . S
O962 C964 1.248 . S
Mg963 O962 2.028 . S
Mg963 O968 2.032 . S
Mg963 O970 2.079 1_556 S
C964 O961 1.249 1_556 S
C964 O962 1.248 . S
C965 O966 1.264 . S
C965 O973 1.249 . S
O966 C965 1.264 . S
O967 Mg960 1.986 1_556 S
O967 C971 1.246 . S
O968 Mg963 2.032 . S
O968 C971 1.259 . S
O969 Mg960 2.114 . S
O969 C972 1.252 . S
O970 Mg960 2.251 . S
O970 Mg963 2.079 1_554 S
O970 C972 1.273 . S
C971 O967 1.246 . S
C971 O968 1.259 . S
C972 O969 1.252 . S
C972 O970 1.273 . S
O973 Mg960 2.010 . S
O973 C965 1.249 . S
Mg974 O975 2.028 . S
Mg974 O981 1.986 . S
Mg974 O983 2.114 . S
Mg974 O984 2.251 . S
Mg974 O987 2.010 . S
O975 Mg974 2.028 . S
O975 C978 1.250 . S
O976 Mg977 2.028 . S
O976 C978 1.248 . S
Mg977 O976 2.028 . S
Mg977 O982 2.032 . S
Mg977 O984 2.079 . S
C978 O975 1.250 . S
C978 O976 1.248 . S
C979 O980 1.264 . S
C979 O987 1.249 . S
O980 C979 1.264 . S
O981 Mg974 1.986 . S
O981 C985 1.246 . S
O982 Mg977 2.032 . S
O982 C985 1.259 . S
O983 Mg974 2.114 . S
O983 C986 1.252 . S
O984 Mg974 2.251 . S
O984 Mg977 2.079 . S
O984 C986 1.273 . S
C985 O981 1.246 . S
C985 O982 1.259 . S
C986 O983 1.252 . S
C986 O984 1.273 . S
O987 Mg974 2.010 . S
O987 C979 1.249 . S
Mg988 O989 2.028 . S
Mg988 O995 1.986 1_554 S
Mg988 O997 2.114 . S
Mg988 O998 2.251 . S
Mg988 O1001 2.010 . S
O989 Mg988 2.028 . S
O989 C992 1.252 . S
O990 Mg991 2.028 . S
O990 C992 1.247 1_556 S
Mg991 O990 2.028 . S
Mg991 O996 2.032 . S
Mg991 O998 2.079 1_556 S
C992 O989 1.252 . S
C992 O990 1.247 1_554 S
C993 O994 1.264 . S
C993 O1001 1.249 . S
O994 C993 1.264 . S
O995 Mg988 1.986 1_556 S
O995 C999 1.246 . S
O996 Mg991 2.032 . S
O996 C999 1.259 . S
O997 Mg988 2.114 . S
O997 C1000 1.252 . S
O998 Mg988 2.251 . S
O998 Mg991 2.079 1_554 S
O998 C1000 1.273 . S
C999 O995 1.246 . S
C999 O996 1.259 . S
C1000 O997 1.252 . S
C1000 O998 1.273 . S
O1001 Mg988 2.010 . S
O1001 C993 1.249 . S
Mg1002 O1003 2.028 . S
Mg1002 O1009 1.986 . S
Mg1002 O1011 2.114 . S
Mg1002 O1012 2.251 . S
Mg1002 O1015 2.010 . S
O1003 Mg1002 2.028 . S
O1003 C1006 1.250 1_545 S
O1004 Mg1005 2.028 . S
O1004 C1006 1.248 . S
Mg1005 O1004 2.028 . S
Mg1005 O1010 2.032 . S
Mg1005 O1012 2.079 1_565 S
C1006 O1003 1.250 1_565 S
C1006 O1004 1.248 . S
C1007 O1008 1.264 . S
C1007 O1015 1.249 . S
O1008 C1007 1.264 . S
O1009 Mg1002 1.986 . S
O1009 C1013 1.246 . S
O1010 Mg1005 2.032 . S
O1010 C1013 1.259 1_565 S
O1011 Mg1002 2.114 . S
O1011 C1014 1.252 . S
O1012 Mg1002 2.251 . S
O1012 Mg1005 2.079 1_545 S
O1012 C1014 1.273 . S
C1013 O1009 1.246 . S
C1013 O1010 1.259 1_545 S
C1014 O1011 1.252 . S
C1014 O1012 1.273 . S
O1015 Mg1002 2.010 . S
O1015 C1007 1.249 . S
Mg1016 O1017 2.028 . S
Mg1016 O1023 1.986 . S
Mg1016 O1025 2.114 . S
Mg1016 O1026 2.251 . S
Mg1016 O1029 2.010 . S
O1017 Mg1016 2.028 . S
O1017 C1020 1.250 . S
O1018 Mg1019 2.028 . S
O1018 C1020 1.248 . S
Mg1019 O1018 2.028 . S
Mg1019 O1024 2.032 . S
Mg1019 O1026 2.079 . S
C1020 O1017 1.250 . S
C1020 O1018 1.248 . S
C1021 O1022 1.264 . S
C1021 O1029 1.249 . S
O1022 C1021 1.264 . S
O1023 Mg1016 1.986 . S
O1023 C1027 1.246 . S
O1024 Mg1019 2.032 . S
O1024 C1027 1.259 . S
O1025 Mg1016 2.114 . S
O1025 C1028 1.252 . S
O1026 Mg1016 2.251 . S
O1026 Mg1019 2.079 . S
O1026 C1028 1.273 . S
C1027 O1023 1.246 . S
C1027 O1024 1.259 . S
C1028 O1025 1.252 . S
C1028 O1026 1.273 . S
O1029 Mg1016 2.010 . S
O1029 C1021 1.249 . S
Mg1030 O1031 2.028 . S
Mg1030 O1037 1.986 . S
Mg1030 O1039 2.114 . S
Mg1030 O1040 2.251 . S
Mg1030 O1043 2.010 . S
O1031 Mg1030 2.028 . S
O1031 C1034 1.250 . S
O1032 Mg1033 2.028 . S
O1032 C1034 1.248 . S
Mg1033 O1032 2.028 . S
Mg1033 O1038 2.032 . S
Mg1033 O1040 2.079 . S
C1034 O1031 1.250 . S
C1034 O1032 1.248 . S
C1035 O1036 1.264 . S
C1035 O1043 1.249 . S
O1036 C1035 1.264 . S
O1037 Mg1030 1.986 . S
O1037 C1041 1.246 . S
O1038 Mg1033 2.032 . S
O1038 C1041 1.259 . S
O1039 Mg1030 2.114 . S
O1039 C1042 1.252 . S
O1040 Mg1030 2.251 . S
O1040 Mg1033 2.079 . S
O1040 C1042 1.273 . S
C1041 O1037 1.246 . S
C1041 O1038 1.259 . S
C1042 O1039 1.252 . S
C1042 O1040 1.273 . S
O1043 Mg1030 2.010 . S
O1043 C1035 1.249 . S
Mg1044 O1045 2.028 . S
Mg1044 O1051 1.986 . S
Mg1044 O1053 2.114 . S
Mg1044 O1054 2.251 . S
Mg1044 O1057 2.010 . S
O1045 Mg1044 2.028 . S
O1045 C1048 1.250 . S
O1046 Mg1047 2.028 . S
O1046 C1048 1.248 . S
Mg1047 O1046 2.028 . S
Mg1047 O1052 2.032 . S
Mg1047 O1054 2.079 . S
C1048 O1045 1.250 . S
C1048 O1046 1.248 . S
C1049 O1050 1.264 . S
C1049 O1057 1.249 . S
O1050 C1049 1.264 . S
O1051 Mg1044 1.986 . S
O1051 C1055 1.246 . S
O1052 Mg1047 2.032 . S
O1052 C1055 1.259 . S
O1053 Mg1044 2.114 . S
O1053 C1056 1.252 . S
O1054 Mg1044 2.251 . S
O1054 Mg1047 2.079 . S
O1054 C1056 1.273 . S
C1055 O1051 1.246 . S
C1055 O1052 1.259 . S
C1056 O1053 1.252 . S
C1056 O1054 1.273 . S
O1057 Mg1044 2.010 . S
O1057 C1049 1.249 . S
Mg1058 O1059 2.028 1_545 S
Mg1058 O1065 1.986 1_545 S
Mg1058 O1067 2.114 . S
Mg1058 O1068 2.251 . S
Mg1058 O1071 2.010 . S
O1059 Mg1058 2.028 1_565 S
O1059 C1062 1.250 . S
O1060 Mg1061 2.028 . S
O1060 C1062 1.248 . S
Mg1061 O1060 2.028 . S
Mg1061 O1066 2.032 . S
Mg1061 O1068 2.079 1_565 S
C1062 O1059 1.250 . S
C1062 O1060 1.248 . S
C1063 O1064 1.264 . S
C1063 O1071 1.249 . S
O1064 C1063 1.264 . S
O1065 Mg1058 1.986 1_565 S
O1065 C1069 1.246 . S
O1066 Mg1061 2.032 . S
O1066 C1069 1.259 . S
O1067 Mg1058 2.114 . S
O1067 C1070 1.252 . S
O1068 Mg1058 2.251 . S
O1068 Mg1061 2.079 1_545 S
O1068 C1070 1.273 . S
C1069 O1065 1.246 . S
C1069 O1066 1.259 . S
C1070 O1067 1.252 . S
C1070 O1068 1.273 . S
O1071 Mg1058 2.010 . S
O1071 C1063 1.249 . S
Mg1072 O1073 2.028 . S
Mg1072 O1079 1.986 . S
Mg1072 O1081 2.114 . S
Mg1072 O1082 2.251 . S
Mg1072 O1085 2.010 . S
O1073 Mg1072 2.028 . S
O1073 C1076 1.250 1_455 S
O1074 Mg1075 2.028 . S
O1074 C1076 1.248 . S
Mg1075 O1074 2.028 . S
Mg1075 O1080 2.032 . S
Mg1075 O1082 2.079 1_655 S
C1076 O1073 1.250 1_655 S
C1076 O1074 1.248 . S
C1077 O1078 1.264 . S
C1077 O1085 1.249 . S
O1078 C1077 1.264 . S
O1079 Mg1072 1.986 . S
O1079 C1083 1.246 . S
O1080 Mg1075 2.032 . S
O1080 C1083 1.259 1_655 S
O1081 Mg1072 2.114 . S
O1081 C1084 1.252 . S
O1082 Mg1072 2.251 . S
O1082 Mg1075 2.079 1_455 S
O1082 C1084 1.273 . S
C1083 O1079 1.246 . S
C1083 O1080 1.259 1_455 S
C1084 O1081 1.252 . S
C1084 O1082 1.273 . S
O1085 Mg1072 2.010 . S
O1085 C1077 1.249 . S
Mg1086 O1087 2.028 . S
Mg1086 O1093 1.986 . S
Mg1086 O1095 2.114 . S
Mg1086 O1096 2.251 . S
Mg1086 O1099 2.010 . S
O1087 Mg1086 2.028 . S
O1087 C1090 1.250 . S
O1088 Mg1089 2.028 . S
O1088 C1090 1.248 . S
Mg1089 O1088 2.028 . S
Mg1089 O1094 2.032 . S
Mg1089 O1096 2.079 . S
C1090 O1087 1.250 . S
C1090 O1088 1.248 . S
C1091 O1092 1.264 . S
C1091 O1099 1.249 . S
O1092 C1091 1.264 . S
O1093 Mg1086 1.986 . S
O1093 C1097 1.246 . S
O1094 Mg1089 2.032 . S
O1094 C1097 1.259 . S
O1095 Mg1086 2.114 . S
O1095 C1098 1.252 . S
O1096 Mg1086 2.251 . S
O1096 Mg1089 2.079 . S
O1096 C1098 1.273 . S
C1097 O1093 1.246 . S
C1097 O1094 1.259 . S
C1098 O1095 1.252 . S
C1098 O1096 1.273 . S
O1099 Mg1086 2.010 . S
O1099 C1091 1.249 . S
Mg1100 O1101 2.028 1_655 S
Mg1100 O1107 2.000 . S
Mg1100 O1109 2.114 . S
Mg1100 O1110 2.251 1_655 S
Mg1100 O1113 2.010 . S
O1101 Mg1100 2.028 1_455 S
O1101 C1104 1.250 . S
O1102 Mg1103 2.028 . S
O1102 C1104 1.248 . S
Mg1103 O1102 2.028 . S
Mg1103 O1108 2.032 . S
Mg1103 O1110 2.079 . S
C1104 O1101 1.250 . S
C1104 O1102 1.248 . S
C1105 O1106 1.264 . S
C1105 O1113 1.249 . S
O1106 C1105 1.264 . S
O1107 Mg1100 2.000 . S
O1107 C1111 1.208 1_655 S
O1108 Mg1103 2.032 . S
O1108 C1111 1.259 . S
O1109 Mg1100 2.114 . S
O1109 C1112 1.252 . S
O1110 Mg1100 2.251 1_455 S
O1110 Mg1103 2.079 . S
O1110 C1112 1.273 1_455 S
C1111 O1107 1.208 1_455 S
C1111 O1108 1.259 . S
C1112 O1109 1.252 . S
C1112 O1110 1.273 1_655 S
O1113 Mg1100 2.010 . S
O1113 C1105 1.249 . S
Mg1114 O1115 2.028 . S
Mg1114 O1121 1.986 . S
Mg1114 O1123 2.114 . S
Mg1114 O1124 2.251 . S
Mg1114 O1127 2.010 . S
O1115 Mg1114 2.028 . S
O1115 C1118 1.250 . S
O1116 Mg1117 2.028 . S
O1116 C1118 1.248 . S
Mg1117 O1116 2.028 . S
Mg1117 O1122 2.032 . S
Mg1117 O1124 2.079 . S
C1118 O1115 1.250 . S
C1118 O1116 1.248 . S
C1119 O1120 1.264 . S
C1119 O1127 1.249 . S
O1120 C1119 1.264 . S
O1121 Mg1114 1.986 . S
O1121 C1125 1.246 . S
O1122 Mg1117 2.032 . S
O1122 C1125 1.259 . S
O1123 Mg1114 2.114 . S
O1123 C1126 1.252 . S
O1124 Mg1114 2.251 . S
O1124 Mg1117 2.079 . S
O1124 C1126 1.273 . S
C1125 O1121 1.246 . S
C1125 O1122 1.259 . S
C1126 O1123 1.252 . S
C1126 O1124 1.273 . S
O1127 Mg1114 2.010 . S
O1127 C1119 1.249 . S
H1128 C1134 0.930 . S
H1129 C1138 0.930 . S
H1130 C1143 0.929 . S
H1131 C1141 0.929 . S
H1132 C1136 0.929 . S
H1133 C1142 0.929 . S
C1134 H1128 0.930 . S
C1134 C1135 1.367 . S
C1134 C1142 1.378 . S
C1135 C1134 1.367 . S
C1135 C1143 1.433 . S
C1136 H1132 0.929 . S
C1136 C1138 1.378 . S
C1136 C1140 1.350 . S
C1137 C1140 1.463 . S
C1137 C1142 1.350 . S
C1137 N1145 1.427 . S
C1138 H1129 0.930 . S
C1138 C1136 1.378 . S
C1138 C1139 1.367 . S
C1139 C1138 1.367 . S
C1139 C1141 1.433 . S
C1140 C1136 1.350 . S
C1140 C1137 1.463 . S
C1140 N1144 1.427 . S
C1141 H1131 0.929 . S
C1141 C1139 1.433 . S
C1141 N1144 1.384 . S
C1142 H1133 0.929 . S
C1142 C1134 1.378 . S
C1142 C1137 1.350 . S
C1143 H1130 0.929 . S
C1143 C1135 1.433 . S
C1143 N1145 1.384 . S
N1144 C1140 1.427 . S
N1144 C1141 1.384 . S
N1145 C1137 1.427 . S
N1145 C1143 1.384 . S
H1146 C1152 0.930 . S
H1147 C1156 0.930 . S
H1148 C1161 0.929 . S
H1149 C1159 0.929 . S
H1150 C1154 0.929 . S
H1151 C1160 0.929 . S
C1152 H1146 0.930 . S
C1152 C1153 1.367 . S
C1152 C1160 1.378 . S
C1153 C1152 1.367 . S
C1153 C1161 1.433 . S
C1154 H1150 0.929 . S
C1154 C1156 1.378 . S
C1154 C1158 1.350 . S
C1155 C1158 1.463 . S
C1155 C1160 1.350 . S
C1155 N1163 1.427 . S
C1156 H1147 0.930 . S
C1156 C1154 1.378 . S
C1156 C1157 1.367 . S
C1157 C1156 1.367 . S
C1157 C1159 1.433 . S
C1158 C1154 1.350 . S
C1158 C1155 1.463 . S
C1158 N1162 1.427 . S
C1159 H1149 0.929 . S
C1159 C1157 1.433 . S
C1159 N1162 1.384 . S
C1160 H1151 0.929 . S
C1160 C1152 1.378 . S
C1160 C1155 1.350 . S
C1161 H1148 0.929 . S
C1161 C1153 1.433 . S
C1161 N1163 1.384 . S
N1162 C1158 1.427 . S
N1162 C1159 1.384 . S
N1163 C1155 1.427 . S
N1163 C1161 1.384 . S
H1164 C1170 0.930 . S
H1165 C1174 0.930 . S
H1166 C1179 0.929 . S
H1167 C1177 0.929 . S
H1168 C1172 0.929 . S
H1169 C1178 0.929 . S
C1170 H1164 0.930 . S
C1170 C1171 1.367 . S
C1170 C1178 1.378 . S
C1171 C1170 1.367 . S
C1171 C1179 1.433 . S
C1172 H1168 0.929 . S
C1172 C1174 1.378 . S
C1172 C1176 1.350 . S
C1173 C1176 1.463 . S
C1173 C1178 1.350 . S
C1173 N1181 1.427 . S
C1174 H1165 0.930 . S
C1174 C1172 1.378 . S
C1174 C1175 1.367 . S
C1175 C1174 1.367 . S
C1175 C1177 1.433 . S
C1176 C1172 1.350 . S
C1176 C1173 1.463 . S
C1176 N1180 1.427 . S
C1177 H1167 0.929 . S
C1177 C1175 1.433 . S
C1177 N1180 1.384 . S
C1178 H1169 0.929 . S
C1178 C1170 1.378 . S
C1178 C1173 1.350 . S
C1179 H1166 0.929 . S
C1179 C1171 1.433 . S
C1179 N1181 1.384 . S
N1180 C1176 1.427 . S
N1180 C1177 1.384 . S
N1181 C1173 1.427 . S
N1181 C1179 1.384 . S
H1182 C1188 0.930 . S
H1183 C1192 0.930 . S
H1184 C1197 0.929 . S
H1185 C1195 0.929 . S
H1186 C1190 0.929 . S
H1187 C1196 0.929 . S
C1188 H1182 0.930 . S
C1188 C1189 1.367 1_545 S
C1188 C1196 1.378 . S
C1189 C1188 1.367 1_565 S
C1189 C1197 1.433 . S
C1190 H1186 0.929 . S
C1190 C1192 1.378 . S
C1190 C1194 1.350 . S
C1191 C1194 1.463 . S
C1191 C1196 1.350 1_565 S
C1191 N1199 1.427 . S
C1192 H1183 0.930 . S
C1192 C1190 1.378 . S
C1192 C1193 1.367 1_565 S
C1193 C1192 1.367 1_545 S
C1193 C1195 1.433 . S
C1194 C1190 1.350 . S
C1194 C1191 1.463 . S
C1194 N1198 1.427 1_565 S
C1195 H1185 0.929 . S
C1195 C1193 1.433 . S
C1195 N1198 1.384 . S
C1196 H1187 0.929 . S
C1196 C1188 1.378 . S
C1196 C1191 1.350 1_545 S
C1197 H1184 0.929 . S
C1197 C1189 1.433 . S
C1197 N1199 1.384 . S
N1198 C1194 1.427 1_545 S
N1198 C1195 1.384 . S
N1199 C1191 1.427 . S
N1199 C1197 1.384 . S
H1200 C1206 0.930 . S
H1201 C1210 0.930 . S
H1202 C1215 0.929 . S
H1203 C1213 0.929 . S
H1204 C1208 0.929 . S
H1205 C1214 0.929 . S
C1206 H1200 0.930 . S
C1206 C1207 1.367 . S
C1206 C1214 1.378 . S
C1207 C1206 1.367 . S
C1207 C1215 1.433 . S
C1208 H1204 0.929 . S
C1208 C1210 1.378 . S
C1208 C1212 1.350 . S
C1209 C1212 1.463 . S
C1209 C1214 1.350 . S
C1209 N1217 1.427 . S
C1210 H1201 0.930 . S
C1210 C1208 1.378 . S
C1210 C1211 1.367 . S
C1211 C1210 1.367 . S
C1211 C1213 1.433 . S
C1212 C1208 1.350 . S
C1212 C1209 1.463 . S
C1212 N1216 1.427 . S
C1213 H1203 0.929 . S
C1213 C1211 1.433 . S
C1213 N1216 1.384 . S
C1214 H1205 0.929 . S
C1214 C1206 1.378 . S
C1214 C1209 1.350 . S
C1215 H1202 0.929 . S
C1215 C1207 1.433 . S
C1215 N1217 1.384 . S
N1216 C1212 1.427 . S
N1216 C1213 1.384 . S
N1217 C1209 1.427 . S
N1217 C1215 1.384 . S
H1218 C1224 0.930 . S
H1219 C1228 0.930 . S
H1220 C1233 0.929 . S
H1221 C1231 0.929 . S
H1222 C1226 0.929 . S
H1223 C1232 0.929 . S
C1224 H1218 0.930 . S
C1224 C1225 1.367 . S
C1224 C1232 1.378 . S
C1225 C1224 1.367 . S
C1225 C1233 1.433 . S
C1226 H1222 0.929 . S
C1226 C1228 1.378 . S
C1226 C1230 1.350 . S
C1227 C1230 1.463 . S
C1227 C1232 1.350 . S
C1227 N1235 1.427 . S
C1228 H1219 0.930 . S
C1228 C1226 1.378 . S
C1228 C1229 1.367 . S
C1229 C1228 1.367 . S
C1229 C1231 1.433 . S
C1230 C1226 1.350 . S
C1230 C1227 1.463 . S
C1230 N1234 1.427 . S
C1231 H1221 0.929 . S
C1231 C1229 1.433 . S
C1231 N1234 1.384 . S
C1232 H1223 0.929 . S
C1232 C1224 1.378 . S
C1232 C1227 1.350 . S
C1233 H1220 0.929 . S
C1233 C1225 1.433 . S
C1233 N1235 1.384 . S
N1234 C1230 1.427 . S
N1234 C1231 1.384 . S
N1235 C1227 1.427 . S
N1235 C1233 1.384 . S
H1236 C1242 0.930 . S
H1237 C1246 0.930 . S
H1238 C1251 0.929 . S
H1239 C1249 0.929 . S
H1240 C1244 0.929 . S
H1241 C1250 0.929 . S
C1242 H1236 0.930 . S
C1242 C1243 1.367 . S
C1242 C1250 1.378 . S
C1243 C1242 1.367 . S
C1243 C1251 1.433 . S
C1244 H1240 0.929 . S
C1244 C1246 1.378 . S
C1244 C1248 1.350 . S
C1245 C1248 1.463 . S
C1245 C1250 1.350 . S
C1245 N1253 1.427 . S
C1246 H1237 0.930 . S
C1246 C1244 1.378 . S
C1246 C1247 1.367 . S
C1247 C1246 1.367 . S
C1247 C1249 1.433 . S
C1248 C1244 1.350 . S
C1248 C1245 1.463 . S
C1248 N1252 1.427 . S
C1249 H1239 0.929 . S
C1249 C1247 1.433 . S
C1249 N1252 1.384 . S
C1250 H1241 0.929 . S
C1250 C1242 1.378 . S
C1250 C1245 1.350 . S
C1251 H1238 0.929 . S
C1251 C1243 1.433 . S
C1251 N1253 1.384 . S
N1252 C1248 1.427 . S
N1252 C1249 1.384 . S
N1253 C1245 1.427 . S
N1253 C1251 1.384 . S
H1254 C1260 0.930 . S
H1255 C1264 0.930 . S
H1256 C1269 0.929 . S
H1257 C1267 0.929 . S
H1258 C1262 0.929 . S
H1259 C1268 0.929 . S
C1260 H1254 0.930 . S
C1260 C1261 1.367 . S
C1260 C1268 1.378 . S
C1261 C1260 1.367 . S
C1261 C1269 1.433 . S
C1262 H1258 0.929 . S
C1262 C1264 1.378 . S
C1262 C1266 1.350 . S
C1263 C1266 1.463 . S
C1263 C1268 1.350 . S
C1263 N1271 1.427 . S
C1264 H1255 0.930 . S
C1264 C1262 1.378 . S
C1264 C1265 1.367 . S
C1265 C1264 1.367 . S
C1265 C1267 1.433 . S
C1266 C1262 1.350 . S
C1266 C1263 1.463 . S
C1266 N1270 1.427 . S
C1267 H1257 0.929 . S
C1267 C1265 1.433 . S
C1267 N1270 1.384 . S
C1268 H1259 0.929 . S
C1268 C1260 1.378 . S
C1268 C1263 1.350 . S
C1269 H1256 0.929 . S
C1269 C1261 1.433 . S
C1269 N1271 1.384 . S
N1270 C1266 1.427 . S
N1270 C1267 1.384 . S
N1271 C1263 1.427 . S
N1271 C1269 1.384 . S
H1272 C1278 0.930 . S
H1273 C1282 0.930 . S
H1274 C1287 0.929 . S
H1275 C1285 0.929 . S
H1276 C1280 0.929 . S
H1277 C1286 0.929 . S
C1278 H1272 0.930 . S
C1278 C1279 1.367 . S
C1278 C1286 1.378 . S
C1279 C1278 1.367 . S
C1279 C1287 1.433 . S
C1280 H1276 0.929 . S
C1280 C1282 1.378 . S
C1280 C1284 1.350 . S
C1281 C1284 1.463 . S
C1281 C1286 1.350 . S
C1281 N1289 1.427 . S
C1282 H1273 0.930 . S
C1282 C1280 1.378 . S
C1282 C1283 1.367 . S
C1283 C1282 1.367 . S
C1283 C1285 1.433 . S
C1284 C1280 1.350 . S
C1284 C1281 1.463 . S
C1284 N1288 1.427 . S
C1285 H1275 0.929 . S
C1285 C1283 1.433 . S
C1285 N1288 1.384 . S
C1286 H1277 0.929 . S
C1286 C1278 1.378 . S
C1286 C1281 1.350 . S
C1287 H1274 0.929 . S
C1287 C1279 1.433 . S
C1287 N1289 1.384 . S
N1288 C1284 1.427 . S
N1288 C1285 1.384 . S
N1289 C1281 1.427 . S
N1289 C1287 1.384 . S
H1290 C1296 0.930 . S
H1291 C1300 0.930 . S
H1292 C1305 0.929 . S
H1293 C1303 0.929 . S
H1294 C1298 0.929 . S
H1295 C1304 0.929 . S
C1296 H1290 0.930 . S
C1296 C1297 1.367 . S
C1296 C1304 1.378 . S
C1297 C1296 1.367 . S
C1297 C1305 1.433 . S
C1298 H1294 0.929 . S
C1298 C1300 1.378 . S
C1298 C1302 1.350 . S
C1299 C1302 1.463 . S
C1299 C1304 1.350 . S
C1299 N1307 1.427 . S
C1300 H1291 0.930 . S
C1300 C1298 1.378 . S
C1300 C1301 1.367 . S
C1301 C1300 1.367 . S
C1301 C1303 1.433 . S
C1302 C1298 1.350 . S
C1302 C1299 1.463 . S
C1302 N1306 1.427 . S
C1303 H1293 0.929 . S
C1303 C1301 1.433 . S
C1303 N1306 1.384 . S
C1304 H1295 0.929 . S
C1304 C1296 1.378 . S
C1304 C1299 1.350 . S
C1305 H1292 0.929 . S
C1305 C1297 1.433 . S
C1305 N1307 1.384 . S
N1306 C1302 1.427 . S
N1306 C1303 1.384 . S
N1307 C1299 1.427 . S
N1307 C1305 1.384 . S
H1308 C1314 0.930 . S
H1309 C1318 0.930 . S
H1310 C1323 0.929 . S
H1311 C1321 0.929 . S
H1312 C1316 0.929 . S
H1313 C1322 0.929 . S
C1314 H1308 0.930 . S
C1314 C1315 1.367 . S
C1314 C1322 1.378 . S
C1315 C1314 1.367 . S
C1315 C1323 1.433 . S
C1316 H1312 0.929 . S
C1316 C1318 1.378 . S
C1316 C1320 1.350 . S
C1317 C1320 1.463 . S
C1317 C1322 1.350 . S
C1317 N1325 1.427 . S
C1318 H1309 0.930 . S
C1318 C1316 1.378 . S
C1318 C1319 1.367 . S
C1319 C1318 1.367 . S
C1319 C1321 1.433 . S
C1320 C1316 1.350 . S
C1320 C1317 1.463 . S
C1320 N1324 1.427 . S
C1321 H1311 0.929 . S
C1321 C1319 1.433 . S
C1321 N1324 1.384 . S
C1322 H1313 0.929 . S
C1322 C1314 1.378 . S
C1322 C1317 1.350 . S
C1323 H1310 0.929 . S
C1323 C1315 1.433 . S
C1323 N1325 1.384 . S
N1324 C1320 1.427 . S
N1324 C1321 1.384 . S
N1325 C1317 1.427 . S
N1325 C1323 1.384 . S
H1326 C1332 0.930 . S
H1327 C1336 0.930 . S
H1328 C1341 0.929 . S
H1329 C1339 0.929 . S
H1330 C1334 0.929 . S
H1331 C1340 0.929 . S
C1332 H1326 0.930 . S
C1332 C1333 1.367 . S
C1332 C1340 1.378 . S
C1333 C1332 1.367 . S
C1333 C1341 1.433 . S
C1334 H1330 0.929 . S
C1334 C1336 1.378 . S
C1334 C1338 1.350 . S
C1335 C1338 1.463 . S
C1335 C1340 1.350 . S
C1335 N1343 1.427 . S
C1336 H1327 0.930 . S
C1336 C1334 1.378 . S
C1336 C1337 1.367 . S
C1337 C1336 1.367 . S
C1337 C1339 1.433 . S
C1338 C1334 1.350 . S
C1338 C1335 1.463 . S
C1338 N1342 1.427 . S
C1339 H1329 0.929 . S
C1339 C1337 1.433 . S
C1339 N1342 1.384 . S
C1340 H1331 0.929 . S
C1340 C1332 1.378 . S
C1340 C1335 1.350 . S
C1341 H1328 0.929 . S
C1341 C1333 1.433 . S
C1341 N1343 1.384 . S
N1342 C1338 1.427 . S
N1342 C1339 1.384 . S
N1343 C1335 1.427 . S
N1343 C1341 1.384 . S
H1344 C1350 0.930 . S
H1345 C1354 0.930 . S
H1346 C1359 0.929 . S
H1347 C1357 0.929 . S
H1348 C1352 0.929 . S
H1349 C1358 0.929 . S
C1350 H1344 0.930 . S
C1350 C1351 1.367 . S
C1350 C1358 1.378 . S
C1351 C1350 1.367 . S
C1351 C1359 1.433 . S
C1352 H1348 0.929 . S
C1352 C1354 1.378 . S
C1352 C1356 1.350 . S
C1353 C1356 1.463 . S
C1353 C1358 1.350 . S
C1353 N1361 1.427 . S
C1354 H1345 0.930 . S
C1354 C1352 1.378 . S
C1354 C1355 1.367 . S
C1355 C1354 1.367 . S
C1355 C1357 1.433 . S
C1356 C1352 1.350 . S
C1356 C1353 1.463 . S
C1356 N1360 1.427 . S
C1357 H1347 0.929 . S
C1357 C1355 1.433 . S
C1357 N1360 1.384 . S
C1358 H1349 0.929 . S
C1358 C1350 1.378 . S
C1358 C1353 1.350 . S
C1359 H1346 0.929 . S
C1359 C1351 1.433 . S
C1359 N1361 1.384 . S
N1360 C1356 1.427 . S
N1360 C1357 1.384 . S
N1361 C1353 1.427 . S
N1361 C1359 1.384 . S
H1362 C1368 0.930 . S
H1363 C1372 0.890 1_655 S
H1364 C1377 0.929 . S
H1365 C1375 0.929 . S
H1366 C1370 0.929 1_655 S
H1367 C1376 0.929 . S
C1368 H1362 0.930 . S
C1368 C1369 1.367 . S
C1368 C1376 1.378 . S
C1369 C1368 1.367 . S
C1369 C1377 1.433 . S
C1370 H1366 0.929 1_455 S
C1370 C1372 1.387 . S
C1370 C1374 1.350 . S
C1371 C1374 1.463 . S
C1371 C1376 1.350 . S
C1371 N1379 1.427 . S
C1372 H1363 0.890 1_455 S
C1372 C1370 1.387 . S
C1372 C1373 1.400 . S
C1373 C1372 1.400 . S
C1373 C1375 1.433 . S
C1374 C1370 1.350 . S
C1374 C1371 1.463 . S
C1374 N1378 1.427 . S
C1375 H1365 0.929 . S
C1375 C1373 1.433 . S
C1375 N1378 1.384 . S
C1376 H1367 0.929 . S
C1376 C1368 1.378 . S
C1376 C1371 1.350 . S
C1377 H1364 0.929 . S
C1377 C1369 1.433 . S
C1377 N1379 1.384 . S
N1378 C1374 1.427 . S
N1378 C1375 1.384 . S
N1379 C1371 1.427 . S
N1379 C1377 1.384 . S
H1380 C1386 0.930 . S
H1381 C1390 0.930 . S
H1382 C1395 0.929 . S
H1383 C1393 0.929 . S
H1384 C1388 0.929 . S
H1385 C1394 0.929 . S
C1386 H1380 0.930 . S
C1386 C1387 1.367 . S
C1386 C1394 1.378 . S
C1387 C1386 1.367 . S
C1387 C1395 1.433 . S
C1388 H1384 0.929 . S
C1388 C1390 1.378 . S
C1388 C1392 1.350 . S
C1389 C1392 1.463 . S
C1389 C1394 1.350 . S
C1389 N1397 1.427 . S
C1390 H1381 0.930 . S
C1390 C1388 1.378 . S
C1390 C1391 1.367 . S
C1391 C1390 1.367 . S
C1391 C1393 1.433 . S
C1392 C1388 1.350 . S
C1392 C1389 1.463 . S
C1392 N1396 1.427 . S
C1393 H1383 0.929 . S
C1393 C1391 1.433 . S
C1393 N1396 1.384 . S
C1394 H1385 0.929 . S
C1394 C1386 1.378 . S
C1394 C1389 1.350 . S
C1395 H1382 0.929 . S
C1395 C1387 1.433 . S
C1395 N1397 1.384 . S
N1396 C1392 1.427 . S
N1396 C1393 1.384 . S
N1397 C1389 1.427 . S
N1397 C1395 1.384 . S
H1398 C1404 0.930 . S
H1399 C1408 0.926 1_455 S
H1400 C1413 0.929 . S
H1401 C1411 0.929 . S
H1402 C1406 0.929 . S
H1403 C1412 0.929 . S
C1404 H1398 0.930 . S
C1404 C1405 1.367 . S
C1404 C1412 1.378 . S
C1405 C1404 1.367 . S
C1405 C1413 1.433 . S
C1406 H1402 0.929 . S
C1406 C1408 1.378 . S
C1406 C1410 1.350 . S
C1407 C1410 1.463 . S
C1407 C1412 1.350 . S
C1407 N1415 1.427 . S
C1408 H1399 0.926 1_655 S
C1408 C1406 1.378 . S
C1408 C1409 1.367 . S
C1409 C1408 1.367 . S
C1409 C1411 1.433 . S
C1410 C1406 1.350 . S
C1410 C1407 1.463 . S
C1410 N1414 1.427 . S
C1411 H1401 0.929 . S
C1411 C1409 1.433 . S
C1411 N1414 1.384 . S
C1412 H1403 0.929 . S
C1412 C1404 1.378 . S
C1412 C1407 1.350 . S
C1413 H1400 0.929 . S
C1413 C1405 1.433 . S
C1413 N1415 1.384 . S
N1414 C1410 1.427 . S
N1414 C1411 1.384 . S
N1415 C1407 1.427 . S
N1415 C1413 1.384 . S
H1416 C1422 0.930 . S
H1417 C1426 0.930 . S
H1418 C1431 0.929 . S
H1419 C1429 0.929 . S
H1420 C1424 0.929 . S
H1421 C1430 0.929 . S
C1422 H1416 0.930 . S
C1422 C1423 1.367 . S
C1422 C1430 1.378 . S
C1423 C1422 1.367 . S
C1423 C1431 1.433 . S
C1424 H1420 0.929 . S
C1424 C1426 1.378 . S
C1424 C1428 1.350 . S
C1425 C1428 1.463 . S
C1425 C1430 1.350 . S
C1425 N1433 1.427 . S
C1426 H1417 0.930 . S
C1426 C1424 1.378 . S
C1426 C1427 1.367 . S
C1427 C1426 1.367 . S
C1427 C1429 1.433 . S
C1428 C1424 1.350 . S
C1428 C1425 1.463 . S
C1428 N1432 1.427 . S
C1429 H1419 0.929 . S
C1429 C1427 1.433 . S
C1429 N1432 1.384 . S
C1430 H1421 0.929 . S
C1430 C1422 1.378 . S
C1430 C1425 1.350 . S
C1431 H1418 0.929 . S
C1431 C1423 1.433 . S
C1431 N1433 1.384 . S
N1432 C1428 1.427 . S
N1432 C1429 1.384 . S
N1433 C1425 1.427 . S
N1433 C1431 1.384 . S
H1434 C1440 0.930 . S
H1435 C1444 0.930 . S
H1436 C1449 0.929 . S
H1437 C1447 0.929 . S
H1438 C1442 0.929 . S
H1439 C1448 0.929 . S
C1440 H1434 0.930 . S
C1440 C1441 1.367 . S
C1440 C1448 1.378 . S
C1441 C1440 1.367 . S
C1441 C1449 1.433 . S
C1442 H1438 0.929 . S
C1442 C1444 1.378 . S
C1442 C1446 1.350 . S
C1443 C1446 1.463 . S
C1443 C1448 1.350 . S
C1443 N1451 1.427 . S
C1444 H1435 0.930 . S
C1444 C1442 1.378 . S
C1444 C1445 1.367 . S
C1445 C1444 1.367 . S
C1445 C1447 1.433 . S
C1446 C1442 1.350 . S
C1446 C1443 1.463 . S
C1446 N1450 1.427 . S
C1447 H1437 0.929 . S
C1447 C1445 1.433 . S
C1447 N1450 1.384 . S
C1448 H1439 0.929 . S
C1448 C1440 1.378 . S
C1448 C1443 1.350 . S
C1449 H1436 0.929 . S
C1449 C1441 1.433 . S
C1449 N1451 1.384 . S
N1450 C1446 1.427 . S
N1450 C1447 1.384 . S
N1451 C1443 1.427 . S
N1451 C1449 1.384 . S
H1452 C1458 0.930 1_554 S
H1453 C1462 0.930 . S
H1454 C1467 0.929 . S
H1455 C1465 0.929 . S
H1456 C1460 0.929 . S
H1457 C1466 0.902 1_554 S
C1458 H1452 0.930 1_556 S
C1458 C1459 1.367 . S
C1458 C1466 1.385 . S
C1459 C1458 1.367 . S
C1459 C1467 1.433 . S
C1460 H1456 0.929 . S
C1460 C1462 1.378 . S
C1460 C1464 1.350 . S
C1461 C1464 1.463 . S
C1461 C1466 1.372 . S
C1461 N1469 1.427 . S
C1462 H1453 0.930 . S
C1462 C1460 1.378 . S
C1462 C1463 1.367 . S
C1463 C1462 1.367 . S
C1463 C1465 1.433 1_556 S
C1464 C1460 1.350 . S
C1464 C1461 1.463 . S
C1464 N1468 1.427 1_556 S
C1465 H1455 0.929 . S
C1465 C1463 1.433 1_554 S
C1465 N1468 1.384 . S
C1466 H1457 0.902 1_556 S
C1466 C1458 1.385 . S
C1466 C1461 1.372 . S
C1467 H1454 0.929 . S
C1467 C1459 1.433 . S
C1467 N1469 1.384 . S
N1468 C1464 1.427 1_554 S
N1468 C1465 1.384 . S
N1469 C1461 1.427 . S
N1469 C1467 1.384 . S
H1470 C1476 0.930 . S
H1471 C1480 0.930 . S
H1472 C1485 0.929 . S
H1473 C1483 0.929 . S
H1474 C1478 0.929 . S
H1475 C1484 0.929 . S
C1476 H1470 0.930 . S
C1476 C1477 1.367 . S
C1476 C1484 1.378 . S
C1477 C1476 1.367 . S
C1477 C1485 1.433 . S
C1478 H1474 0.929 . S
C1478 C1480 1.378 . S
C1478 C1482 1.350 . S
C1479 C1482 1.463 . S
C1479 C1484 1.350 . S
C1479 N1487 1.427 . S
C1480 H1471 0.930 . S
C1480 C1478 1.378 . S
C1480 C1481 1.367 . S
C1481 C1480 1.367 . S
C1481 C1483 1.433 . S
C1482 C1478 1.350 . S
C1482 C1479 1.463 . S
C1482 N1486 1.427 . S
C1483 H1473 0.929 . S
C1483 C1481 1.433 . S
C1483 N1486 1.384 . S
C1484 H1475 0.929 . S
C1484 C1476 1.378 . S
C1484 C1479 1.350 . S
C1485 H1472 0.929 . S
C1485 C1477 1.433 . S
C1485 N1487 1.384 . S
N1486 C1482 1.427 . S
N1486 C1483 1.384 . S
N1487 C1479 1.427 . S
N1487 C1485 1.384 . S
H1488 C1494 0.930 . S
H1489 C1498 0.930 . S
H1490 C1503 0.929 . S
H1491 C1501 0.929 . S
H1492 C1496 0.929 . S
H1493 C1502 0.929 . S
C1494 H1488 0.930 . S
C1494 C1495 1.367 . S
C1494 C1502 1.378 . S
C1495 C1494 1.367 . S
C1495 C1503 1.433 . S
C1496 H1492 0.929 . S
C1496 C1498 1.378 . S
C1496 C1500 1.350 . S
C1497 C1500 1.463 . S
C1497 C1502 1.350 . S
C1497 N1505 1.427 . S
C1498 H1489 0.930 . S
C1498 C1496 1.378 . S
C1498 C1499 1.367 . S
C1499 C1498 1.367 . S
C1499 C1501 1.433 . S
C1500 C1496 1.350 . S
C1500 C1497 1.463 . S
C1500 N1504 1.427 . S
C1501 H1491 0.929 . S
C1501 C1499 1.433 . S
C1501 N1504 1.384 . S
C1502 H1493 0.929 . S
C1502 C1494 1.378 . S
C1502 C1497 1.350 . S
C1503 H1490 0.929 . S
C1503 C1495 1.433 . S
C1503 N1505 1.384 . S
N1504 C1500 1.427 . S
N1504 C1501 1.384 . S
N1505 C1497 1.427 . S
N1505 C1503 1.384 . S
H1506 C1512 0.930 . S
H1507 C1516 0.930 . S
H1508 C1521 0.929 . S
H1509 C1519 0.929 . S
H1510 C1514 0.929 . S
H1511 C1520 0.929 . S
C1512 H1506 0.930 . S
C1512 C1513 1.367 . S
C1512 C1520 1.378 . S
C1513 C1512 1.367 . S
C1513 C1521 1.433 . S
C1514 H1510 0.929 . S
C1514 C1516 1.378 . S
C1514 C1518 1.350 . S
C1515 C1518 1.463 . S
C1515 C1520 1.350 . S
C1515 N1523 1.427 . S
C1516 H1507 0.930 . S
C1516 C1514 1.378 . S
C1516 C1517 1.367 . S
C1517 C1516 1.367 . S
C1517 C1519 1.433 . S
C1518 C1514 1.350 . S
C1518 C1515 1.463 . S
C1518 N1522 1.427 . S
C1519 H1509 0.929 . S
C1519 C1517 1.433 . S
C1519 N1522 1.384 . S
C1520 H1511 0.929 . S
C1520 C1512 1.378 . S
C1520 C1515 1.350 . S
C1521 H1508 0.929 . S
C1521 C1513 1.433 . S
C1521 N1523 1.384 . S
N1522 C1518 1.427 . S
N1522 C1519 1.384 . S
N1523 C1515 1.427 . S
N1523 C1521 1.384 . S
H1524 C1530 0.930 . S
H1525 C1534 0.930 . S
H1526 C1539 0.929 . S
H1527 C1537 0.929 . S
H1528 C1532 0.929 . S
H1529 C1538 0.929 . S
C1530 H1524 0.930 . S
C1530 C1531 1.367 . S
C1530 C1538 1.378 . S
C1531 C1530 1.367 . S
C1531 C1539 1.433 . S
C1532 H1528 0.929 . S
C1532 C1534 1.378 . S
C1532 C1536 1.350 . S
C1533 C1536 1.463 . S
C1533 C1538 1.350 . S
C1533 N1541 1.427 . S
C1534 H1525 0.930 . S
C1534 C1532 1.378 . S
C1534 C1535 1.367 . S
C1535 C1534 1.367 . S
C1535 C1537 1.433 . S
C1536 C1532 1.350 . S
C1536 C1533 1.463 . S
C1536 N1540 1.427 . S
C1537 H1527 0.929 . S
C1537 C1535 1.433 . S
C1537 N1540 1.384 . S
C1538 H1529 0.929 . S
C1538 C1530 1.378 . S
C1538 C1533 1.350 . S
C1539 H1526 0.929 . S
C1539 C1531 1.433 . S
C1539 N1541 1.384 . S
N1540 C1536 1.427 . S
N1540 C1537 1.384 . S
N1541 C1533 1.427 . S
N1541 C1539 1.384 . S
H1542 C1548 0.930 . S
H1543 C1552 0.930 . S
H1544 C1557 0.929 . S
H1545 C1555 0.929 . S
H1546 C1550 0.929 . S
H1547 C1556 0.929 . S
C1548 H1542 0.930 . S
C1548 C1549 1.367 . S
C1548 C1556 1.378 . S
C1549 C1548 1.367 . S
C1549 C1557 1.433 . S
C1550 H1546 0.929 . S
C1550 C1552 1.378 . S
C1550 C1554 1.350 . S
C1551 C1554 1.463 . S
C1551 C1556 1.350 . S
C1551 N1559 1.427 . S
C1552 H1543 0.930 . S
C1552 C1550 1.378 . S
C1552 C1553 1.367 . S
C1553 C1552 1.367 . S
C1553 C1555 1.433 . S
C1554 C1550 1.350 . S
C1554 C1551 1.463 . S
C1554 N1558 1.427 . S
C1555 H1545 0.929 . S
C1555 C1553 1.433 . S
C1555 N1558 1.384 . S
C1556 H1547 0.929 . S
C1556 C1548 1.378 . S
C1556 C1551 1.350 . S
C1557 H1544 0.929 . S
C1557 C1549 1.433 . S
C1557 N1559 1.384 . S
N1558 C1554 1.427 . S
N1558 C1555 1.384 . S
N1559 C1551 1.427 . S
N1559 C1557 1.384 . S
H1560 C1566 0.930 . S
H1561 C1570 0.930 . S
H1562 C1575 0.929 . S
H1563 C1573 0.929 . S
H1564 C1568 0.929 . S
H1565 C1574 0.929 . S
C1566 H1560 0.930 . S
C1566 C1567 1.367 . S
C1566 C1574 1.378 . S
C1567 C1566 1.367 . S
C1567 C1575 1.433 . S
C1568 H1564 0.929 . S
C1568 C1570 1.378 . S
C1568 C1572 1.350 . S
C1569 C1572 1.463 . S
C1569 C1574 1.350 . S
C1569 N1577 1.427 . S
C1570 H1561 0.930 . S
C1570 C1568 1.378 . S
C1570 C1571 1.367 . S
C1571 C1570 1.367 . S
C1571 C1573 1.433 . S
C1572 C1568 1.350 . S
C1572 C1569 1.463 . S
C1572 N1576 1.427 . S
C1573 H1563 0.929 . S
C1573 C1571 1.433 . S
C1573 N1576 1.384 . S
C1574 H1565 0.929 . S
C1574 C1566 1.378 . S
C1574 C1569 1.350 . S
C1575 H1562 0.929 . S
C1575 C1567 1.433 . S
C1575 N1577 1.384 . S
N1576 C1572 1.427 . S
N1576 C1573 1.384 . S
N1577 C1569 1.427 . S
N1577 C1575 1.384 . S
H1578 C1584 0.930 . S
H1579 C1588 0.930 . S
H1580 C1593 0.929 . S
H1581 C1591 0.929 . S
H1582 C1586 0.929 . S
H1583 C1592 0.929 . S
C1584 H1578 0.930 . S
C1584 C1585 1.367 . S
C1584 C1592 1.378 . S
C1585 C1584 1.367 . S
C1585 C1593 1.433 1_545 S
C1586 H1582 0.929 . S
C1586 C1588 1.378 . S
C1586 C1590 1.350 1_565 S
C1587 C1590 1.463 . S
C1587 C1592 1.350 . S
C1587 N1595 1.427 1_545 S
C1588 H1579 0.930 . S
C1588 C1586 1.378 . S
C1588 C1589 1.367 1_565 S
C1589 C1588 1.367 1_545 S
C1589 C1591 1.433 . S
C1590 C1586 1.350 1_545 S
C1590 C1587 1.463 . S
C1590 N1594 1.427 . S
C1591 H1581 0.929 . S
C1591 C1589 1.433 . S
C1591 N1594 1.384 . S
C1592 H1583 0.929 . S
C1592 C1584 1.378 . S
C1592 C1587 1.350 . S
C1593 H1580 0.929 . S
C1593 C1585 1.433 1_565 S
C1593 N1595 1.384 . S
N1594 C1590 1.427 . S
N1594 C1591 1.384 . S
N1595 C1587 1.427 1_565 S
N1595 C1593 1.384 . S
H1596 C1602 0.930 . S
H1597 C1606 0.930 . S
H1598 C1611 0.929 . S
H1599 C1609 0.929 . S
H1600 C1604 0.929 . S
H1601 C1610 0.929 . S
C1602 H1596 0.930 . S
C1602 C1603 1.367 . S
C1602 C1610 1.378 . S
C1603 C1602 1.367 . S
C1603 C1611 1.433 . S
C1604 H1600 0.929 . S
C1604 C1606 1.378 . S
C1604 C1608 1.350 . S
C1605 C1608 1.463 . S
C1605 C1610 1.350 . S
C1605 N1613 1.427 . S
C1606 H1597 0.930 . S
C1606 C1604 1.378 . S
C1606 C1607 1.367 . S
C1607 C1606 1.367 . S
C1607 C1609 1.433 . S
C1608 C1604 1.350 . S
C1608 C1605 1.463 . S
C1608 N1612 1.427 . S
C1609 H1599 0.929 . S
C1609 C1607 1.433 . S
C1609 N1612 1.384 . S
C1610 H1601 0.929 . S
C1610 C1602 1.378 . S
C1610 C1605 1.350 . S
C1611 H1598 0.929 . S
C1611 C1603 1.433 . S
C1611 N1613 1.384 . S
N1612 C1608 1.427 . S
N1612 C1609 1.384 . S
N1613 C1605 1.427 . S
N1613 C1611 1.384 . S
H1614 C1620 0.930 . S
H1615 C1624 0.930 . S
H1616 C1629 0.929 . S
H1617 C1627 0.929 . S
H1618 C1622 0.929 . S
H1619 C1628 0.929 . S
C1620 H1614 0.930 . S
C1620 C1621 1.367 . S
C1620 C1628 1.378 . S
C1621 C1620 1.367 . S
C1621 C1629 1.433 . S
C1622 H1618 0.929 . S
C1622 C1624 1.378 . S
C1622 C1626 1.350 . S
C1623 C1626 1.463 . S
C1623 C1628 1.350 . S
C1623 N1631 1.427 . S
C1624 H1615 0.930 . S
C1624 C1622 1.378 . S
C1624 C1625 1.367 . S
C1625 C1624 1.367 . S
C1625 C1627 1.433 . S
C1626 C1622 1.350 . S
C1626 C1623 1.463 . S
C1626 N1630 1.427 . S
C1627 H1617 0.929 . S
C1627 C1625 1.433 . S
C1627 N1630 1.384 . S
C1628 H1619 0.929 . S
C1628 C1620 1.378 . S
C1628 C1623 1.350 . S
C1629 H1616 0.929 . S
C1629 C1621 1.433 . S
C1629 N1631 1.384 . S
N1630 C1626 1.427 . S
N1630 C1627 1.384 . S
N1631 C1623 1.427 . S
N1631 C1629 1.384 . S
H1632 C1638 0.930 . S
H1633 C1642 0.930 . S
H1634 C1647 0.929 . S
H1635 C1645 0.929 . S
H1636 C1640 0.929 . S
H1637 C1646 0.929 . S
C1638 H1632 0.930 . S
C1638 C1639 1.367 . S
C1638 C1646 1.378 . S
C1639 C1638 1.367 . S
C1639 C1647 1.433 . S
C1640 H1636 0.929 . S
C1640 C1642 1.378 . S
C1640 C1644 1.350 . S
C1641 C1644 1.463 . S
C1641 C1646 1.350 . S
C1641 N1649 1.427 . S
C1642 H1633 0.930 . S
C1642 C1640 1.378 . S
C1642 C1643 1.367 . S
C1643 C1642 1.367 . S
C1643 C1645 1.433 . S
C1644 C1640 1.350 . S
C1644 C1641 1.463 . S
C1644 N1648 1.427 . S
C1645 H1635 0.929 . S
C1645 C1643 1.433 . S
C1645 N1648 1.384 . S
C1646 H1637 0.929 . S
C1646 C1638 1.378 . S
C1646 C1641 1.350 . S
C1647 H1634 0.929 . S
C1647 C1639 1.433 . S
C1647 N1649 1.384 . S
N1648 C1644 1.427 . S
N1648 C1645 1.384 . S
N1649 C1641 1.427 . S
N1649 C1647 1.384 . S
H1650 C1656 0.930 . S
H1651 C1660 0.930 1_565 S
H1652 C1665 0.929 1_565 S
H1653 C1663 0.929 . S
H1654 C1658 0.929 1_565 S
H1655 C1664 0.929 . S
C1656 H1650 0.930 . S
C1656 C1657 1.367 . S
C1656 C1664 1.378 . S
C1657 C1656 1.367 . S
C1657 C1665 1.433 . S
C1658 H1654 0.929 1_545 S
C1658 C1660 1.378 . S
C1658 C1662 1.350 . S
C1659 C1662 1.463 . S
C1659 C1664 1.350 . S
C1659 N1667 1.427 . S
C1660 H1651 0.930 1_545 S
C1660 C1658 1.378 . S
C1660 C1661 1.367 . S
C1661 C1660 1.367 . S
C1661 C1663 1.433 . S
C1662 C1658 1.350 . S
C1662 C1659 1.463 . S
C1662 N1666 1.427 . S
C1663 H1653 0.929 . S
C1663 C1661 1.433 . S
C1663 N1666 1.384 . S
C1664 H1655 0.929 . S
C1664 C1656 1.378 . S
C1664 C1659 1.350 . S
C1665 H1652 0.929 1_545 S
C1665 C1657 1.433 . S
C1665 N1667 1.384 . S
N1666 C1662 1.427 . S
N1666 C1663 1.384 . S
N1667 C1659 1.427 . S
N1667 C1665 1.384 . S
H1668 C1674 0.930 . S
H1669 C1678 0.930 . S
H1670 C1683 0.929 . S
H1671 C1681 0.929 . S
H1672 C1676 0.929 . S
H1673 C1682 0.929 . S
C1674 H1668 0.930 . S
C1674 C1675 1.367 . S
C1674 C1682 1.378 . S
C1675 C1674 1.367 . S
C1675 C1683 1.433 . S
C1676 H1672 0.929 . S
C1676 C1678 1.378 . S
C1676 C1680 1.350 . S
C1677 C1680 1.463 . S
C1677 C1682 1.350 . S
C1677 N1685 1.427 . S
C1678 H1669 0.930 . S
C1678 C1676 1.378 . S
C1678 C1679 1.367 . S
C1679 C1678 1.367 . S
C1679 C1681 1.433 . S
C1680 C1676 1.350 . S
C1680 C1677 1.463 . S
C1680 N1684 1.427 . S
C1681 H1671 0.929 . S
C1681 C1679 1.433 . S
C1681 N1684 1.384 . S
C1682 H1673 0.929 . S
C1682 C1674 1.378 . S
C1682 C1677 1.350 . S
C1683 H1670 0.929 . S
C1683 C1675 1.433 . S
C1683 N1685 1.384 . S
N1684 C1680 1.427 . S
N1684 C1681 1.384 . S
N1685 C1677 1.427 . S
N1685 C1683 1.384 . S
H1686 C1692 0.930 . S
H1687 C1696 0.930 . S
H1688 C1701 0.929 . S
H1689 C1699 0.929 . S
H1690 C1694 0.929 . S
H1691 C1700 0.929 . S
C1692 H1686 0.930 . S
C1692 C1693 1.367 . S
C1692 C1700 1.378 . S
C1693 C1692 1.367 . S
C1693 C1701 1.433 . S
C1694 H1690 0.929 . S
C1694 C1696 1.378 . S
C1694 C1698 1.350 . S
C1695 C1698 1.463 . S
C1695 C1700 1.350 . S
C1695 N1703 1.427 . S
C1696 H1687 0.930 . S
C1696 C1694 1.378 . S
C1696 C1697 1.367 . S
C1697 C1696 1.367 . S
C1697 C1699 1.433 . S
C1698 C1694 1.350 . S
C1698 C1695 1.463 . S
C1698 N1702 1.427 . S
C1699 H1689 0.929 . S
C1699 C1697 1.433 . S
C1699 N1702 1.384 . S
C1700 H1691 0.929 . S
C1700 C1692 1.378 . S
C1700 C1695 1.350 . S
C1701 H1688 0.929 . S
C1701 C1693 1.433 . S
C1701 N1703 1.384 . S
N1702 C1698 1.427 . S
N1702 C1699 1.384 . S
N1703 C1695 1.427 . S
N1703 C1701 1.384 . S
H1704 C1710 0.930 . S
H1705 C1714 0.930 . S
H1706 C1719 0.929 . S
H1707 C1717 0.929 . S
H1708 C1712 0.929 . S
H1709 C1718 0.929 . S
C1710 H1704 0.930 . S
C1710 C1711 1.367 . S
C1710 C1718 1.378 . S
C1711 C1710 1.367 . S
C1711 C1719 1.433 . S
C1712 H1708 0.929 . S
C1712 C1714 1.378 . S
C1712 C1716 1.350 . S
C1713 C1716 1.463 . S
C1713 C1718 1.350 . S
C1713 N1721 1.427 . S
C1714 H1705 0.930 . S
C1714 C1712 1.378 . S
C1714 C1715 1.367 . S
C1715 C1714 1.367 . S
C1715 C1717 1.433 . S
C1716 C1712 1.350 . S
C1716 C1713 1.463 . S
C1716 N1720 1.427 . S
C1717 H1707 0.929 . S
C1717 C1715 1.433 . S
C1717 N1720 1.384 . S
C1718 H1709 0.929 . S
C1718 C1710 1.378 . S
C1718 C1713 1.350 . S
C1719 H1706 0.929 . S
C1719 C1711 1.433 . S
C1719 N1721 1.384 . S
N1720 C1716 1.427 . S
N1720 C1717 1.384 . S
N1721 C1713 1.427 . S
N1721 C1719 1.384 . S
H1722 C1728 0.930 1_455 S
H1723 C1732 0.930 . S
H1724 C1737 0.979 . S
H1725 C1735 0.929 . S
H1726 C1730 0.925 1_655 S
H1727 C1736 0.929 . S
C1728 H1722 0.930 1_655 S
C1728 C1729 1.370 . S
C1728 C1736 1.375 1_655 S
C1729 C1728 1.370 . S
C1729 C1737 1.433 . S
C1730 H1726 0.925 1_455 S
C1730 C1732 1.380 . S
C1730 C1734 1.351 . S
C1731 C1734 1.462 . S
C1731 C1736 1.350 . S
C1731 N1739 1.428 1_455 S
C1732 H1723 0.930 . S
C1732 C1730 1.380 . S
C1732 C1733 1.367 . S
C1733 C1732 1.367 . S
C1733 C1735 1.433 . S
C1734 C1730 1.351 . S
C1734 C1731 1.462 . S
C1734 N1738 1.427 . S
C1735 H1725 0.929 . S
C1735 C1733 1.433 . S
C1735 N1738 1.384 . S
C1736 H1727 0.929 . S
C1736 C1728 1.375 1_455 S
C1736 C1731 1.350 . S
C1737 H1724 0.979 . S
C1737 C1729 1.433 . S
C1737 N1739 1.384 . S
N1738 C1734 1.427 . S
N1738 C1735 1.384 . S
N1739 C1731 1.428 1_655 S
N1739 C1737 1.384 . S
H1740 C1746 0.930 . S
H1741 C1750 0.930 . S
H1742 C1755 0.929 . S
H1743 C1753 0.929 . S
H1744 C1748 0.929 . S
H1745 C1754 0.929 . S
C1746 H1740 0.930 . S
C1746 C1747 1.367 . S
C1746 C1754 1.378 . S
C1747 C1746 1.367 . S
C1747 C1755 1.433 . S
C1748 H1744 0.929 . S
C1748 C1750 1.378 . S
C1748 C1752 1.350 . S
C1749 C1752 1.463 . S
C1749 C1754 1.350 . S
C1749 N1757 1.427 . S
C1750 H1741 0.930 . S
C1750 C1748 1.378 . S
C1750 C1751 1.367 . S
C1751 C1750 1.367 . S
C1751 C1753 1.433 . S
C1752 C1748 1.350 . S
C1752 C1749 1.463 . S
C1752 N1756 1.427 . S
C1753 H1743 0.929 . S
C1753 C1751 1.433 . S
C1753 N1756 1.384 . S
C1754 H1745 0.929 . S
C1754 C1746 1.378 . S
C1754 C1749 1.350 . S
C1755 H1742 0.929 . S
C1755 C1747 1.433 . S
C1755 N1757 1.384 . S
N1756 C1752 1.427 . S
N1756 C1753 1.384 . S
N1757 C1749 1.427 . S
N1757 C1755 1.384 . S
H1758 C1764 0.930 . S
H1759 C1768 0.892 1_655 S
H1760 C1773 0.929 . S
H1761 C1771 0.929 . S
H1762 C1766 0.933 . S
H1763 C1772 0.929 . S
C1764 H1758 0.930 . S
C1764 C1765 1.367 . S
C1764 C1772 1.378 . S
C1765 C1764 1.367 . S
C1765 C1773 1.433 . S
C1766 H1762 0.933 . S
C1766 C1768 1.378 . S
C1766 C1770 1.350 . S
C1767 C1770 1.463 . S
C1767 C1772 1.350 . S
C1767 N1775 1.427 . S
C1768 H1759 0.892 1_455 S
C1768 C1766 1.378 . S
C1768 C1769 1.367 . S
C1769 C1768 1.367 . S
C1769 C1771 1.433 . S
C1770 C1766 1.350 . S
C1770 C1767 1.463 . S
C1770 N1774 1.427 . S
C1771 H1761 0.929 . S
C1771 C1769 1.433 . S
C1771 N1774 1.384 . S
C1772 H1763 0.929 . S
C1772 C1764 1.378 . S
C1772 C1767 1.350 . S
C1773 H1760 0.929 . S
C1773 C1765 1.433 . S
C1773 N1775 1.384 . S
N1774 C1770 1.427 . S
N1774 C1771 1.384 . S
N1775 C1767 1.427 . S
N1775 C1773 1.384 . S
H1776 C1782 0.930 . S
H1777 C1786 0.930 . S
H1778 C1791 0.929 . S
H1779 C1789 0.929 . S
H1780 C1784 0.929 . S
H1781 C1790 0.929 . S
C1782 H1776 0.930 . S
C1782 C1783 1.367 . S
C1782 C1790 1.378 . S
C1783 C1782 1.367 . S
C1783 C1791 1.433 . S
C1784 H1780 0.929 . S
C1784 C1786 1.378 . S
C1784 C1788 1.350 . S
C1785 C1788 1.463 . S
C1785 C1790 1.350 . S
C1785 N1793 1.427 . S
C1786 H1777 0.930 . S
C1786 C1784 1.378 . S
C1786 C1787 1.367 . S
C1787 C1786 1.367 . S
C1787 C1789 1.433 . S
C1788 C1784 1.350 . S
C1788 C1785 1.463 . S
C1788 N1792 1.427 . S
C1789 H1779 0.929 . S
C1789 C1787 1.433 . S
C1789 N1792 1.384 . S
C1790 H1781 0.929 . S
C1790 C1782 1.378 . S
C1790 C1785 1.350 . S
C1791 H1778 0.929 . S
C1791 C1783 1.433 . S
C1791 N1793 1.384 . S
N1792 C1788 1.427 . S
N1792 C1789 1.384 . S
N1793 C1785 1.427 . S
N1793 C1791 1.384 . S
H1794 C1800 0.930 . S
H1795 C1804 0.930 . S
H1796 C1809 0.929 . S
H1797 C1807 0.929 . S
H1798 C1802 0.929 . S
H1799 C1808 0.929 . S
C1800 H1794 0.930 . S
C1800 C1801 1.367 . S
C1800 C1808 1.378 . S
C1801 C1800 1.367 . S
C1801 C1809 1.433 . S
C1802 H1798 0.929 . S
C1802 C1804 1.378 . S
C1802 C1806 1.350 . S
C1803 C1806 1.463 . S
C1803 C1808 1.350 . S
C1803 N1811 1.427 . S
C1804 H1795 0.930 . S
C1804 C1802 1.378 . S
C1804 C1805 1.367 . S
C1805 C1804 1.367 . S
C1805 C1807 1.433 . S
C1806 C1802 1.350 . S
C1806 C1803 1.463 . S
C1806 N1810 1.427 . S
C1807 H1797 0.929 . S
C1807 C1805 1.433 . S
C1807 N1810 1.384 . S
C1808 H1799 0.929 . S
C1808 C1800 1.378 . S
C1808 C1803 1.350 . S
C1809 H1796 0.929 . S
C1809 C1801 1.433 . S
C1809 N1811 1.384 . S
N1810 C1806 1.427 . S
N1810 C1807 1.384 . S
N1811 C1803 1.427 . S
N1811 C1809 1.384 . S
H1812 C1818 0.930 . S
H1813 C1822 0.930 . S
H1814 C1827 0.929 . S
H1815 C1825 0.929 . S
H1816 C1820 0.929 . S
H1817 C1826 0.929 . S
C1818 H1812 0.930 . S
C1818 C1819 1.367 . S
C1818 C1826 1.378 . S
C1819 C1818 1.367 . S
C1819 C1827 1.433 . S
C1820 H1816 0.929 . S
C1820 C1822 1.378 . S
C1820 C1824 1.350 . S
C1821 C1824 1.463 . S
C1821 C1826 1.350 . S
C1821 N1829 1.427 . S
C1822 H1813 0.930 . S
C1822 C1820 1.378 . S
C1822 C1823 1.367 . S
C1823 C1822 1.367 . S
C1823 C1825 1.433 . S
C1824 C1820 1.350 . S
C1824 C1821 1.463 . S
C1824 N1828 1.427 . S
C1825 H1815 0.929 . S
C1825 C1823 1.433 . S
C1825 N1828 1.384 . S
C1826 H1817 0.929 . S
C1826 C1818 1.378 . S
C1826 C1821 1.350 . S
C1827 H1814 0.929 . S
C1827 C1819 1.433 . S
C1827 N1829 1.384 . S
N1828 C1824 1.427 . S
N1828 C1825 1.384 . S
N1829 C1821 1.427 . S
N1829 C1827 1.384 . S
H1830 C1836 0.930 . S
H1831 C1840 0.930 . S
H1832 C1845 0.929 . S
H1833 C1843 0.929 . S
H1834 C1838 0.929 . S
H1835 C1844 0.929 . S
C1836 H1830 0.930 . S
C1836 C1837 1.367 . S
C1836 C1844 1.378 . S
C1837 C1836 1.367 . S
C1837 C1845 1.433 . S
C1838 H1834 0.929 . S
C1838 C1840 1.378 . S
C1838 C1842 1.350 . S
C1839 C1842 1.463 . S
C1839 C1844 1.350 . S
C1839 N1847 1.427 . S
C1840 H1831 0.930 . S
C1840 C1838 1.378 . S
C1840 C1841 1.367 . S
C1841 C1840 1.367 . S
C1841 C1843 1.433 . S
C1842 C1838 1.350 . S
C1842 C1839 1.463 . S
C1842 N1846 1.427 . S
C1843 H1833 0.929 . S
C1843 C1841 1.433 . S
C1843 N1846 1.384 . S
C1844 H1835 0.929 . S
C1844 C1836 1.378 . S
C1844 C1839 1.350 . S
C1845 H1832 0.929 . S
C1845 C1837 1.433 . S
C1845 N1847 1.384 . S
N1846 C1842 1.427 . S
N1846 C1843 1.384 . S
N1847 C1839 1.427 . S
N1847 C1845 1.384 . S
H1848 C1854 0.930 . S
H1849 C1858 0.930 . S
H1850 C1863 0.929 . S
H1851 C1861 0.929 . S
H1852 C1856 0.929 . S
H1853 C1862 0.929 . S
C1854 H1848 0.930 . S
C1854 C1855 1.367 . S
C1854 C1862 1.378 . S
C1855 C1854 1.367 . S
C1855 C1863 1.433 . S
C1856 H1852 0.929 . S
C1856 C1858 1.378 . S
C1856 C1860 1.350 . S
C1857 C1860 1.463 . S
C1857 C1862 1.350 . S
C1857 N1865 1.427 . S
C1858 H1849 0.930 . S
C1858 C1856 1.378 . S
C1858 C1859 1.367 . S
C1859 C1858 1.367 . S
C1859 C1861 1.433 . S
C1860 C1856 1.350 . S
C1860 C1857 1.463 . S
C1860 N1864 1.427 . S
C1861 H1851 0.929 . S
C1861 C1859 1.433 . S
C1861 N1864 1.384 . S
C1862 H1853 0.929 . S
C1862 C1854 1.378 . S
C1862 C1857 1.350 . S
C1863 H1850 0.929 . S
C1863 C1855 1.433 . S
C1863 N1865 1.384 . S
N1864 C1860 1.427 . S
N1864 C1861 1.384 . S
N1865 C1857 1.427 . S
N1865 C1863 1.384 . S
H1866 C1872 0.930 . S
H1867 C1876 0.930 . S
H1868 C1881 0.929 . S
H1869 C1879 0.929 . S
H1870 C1874 0.929 . S
H1871 C1880 0.929 . S
C1872 H1866 0.930 . S
C1872 C1873 1.367 . S
C1872 C1880 1.378 . S
C1873 C1872 1.367 . S
C1873 C1881 1.433 . S
C1874 H1870 0.929 . S
C1874 C1876 1.378 . S
C1874 C1878 1.350 . S
C1875 C1878 1.463 . S
C1875 C1880 1.350 . S
C1875 N1883 1.427 . S
C1876 H1867 0.930 . S
C1876 C1874 1.378 . S
C1876 C1877 1.367 . S
C1877 C1876 1.367 . S
C1877 C1879 1.433 . S
C1878 C1874 1.350 . S
C1878 C1875 1.463 . S
C1878 N1882 1.427 . S
C1879 H1869 0.929 . S
C1879 C1877 1.433 . S
C1879 N1882 1.384 . S
C1880 H1871 0.929 . S
C1880 C1872 1.378 . S
C1880 C1875 1.350 . S
C1881 H1868 0.929 . S
C1881 C1873 1.433 . S
C1881 N1883 1.384 . S
N1882 C1878 1.427 . S
N1882 C1879 1.384 . S
N1883 C1875 1.427 . S
N1883 C1881 1.384 . S
H1884 C1890 0.930 . S
H1885 C1894 0.930 . S
H1886 C1899 0.929 . S
H1887 C1897 0.929 . S
H1888 C1892 0.929 . S
H1889 C1898 0.929 . S
C1890 H1884 0.930 . S
C1890 C1891 1.367 . S
C1890 C1898 1.378 . S
C1891 C1890 1.367 . S
C1891 C1899 1.433 . S
C1892 H1888 0.929 . S
C1892 C1894 1.378 . S
C1892 C1896 1.350 . S
C1893 C1896 1.463 . S
C1893 C1898 1.350 . S
C1893 N1901 1.427 . S
C1894 H1885 0.930 . S
C1894 C1892 1.378 . S
C1894 C1895 1.367 . S
C1895 C1894 1.367 . S
C1895 C1897 1.433 . S
C1896 C1892 1.350 . S
C1896 C1893 1.463 . S
C1896 N1900 1.427 . S
C1897 H1887 0.929 . S
C1897 C1895 1.433 . S
C1897 N1900 1.384 . S
C1898 H1889 0.929 . S
C1898 C1890 1.378 . S
C1898 C1893 1.350 . S
C1899 H1886 0.929 . S
C1899 C1891 1.433 . S
C1899 N1901 1.384 . S
N1900 C1896 1.427 . S
N1900 C1897 1.384 . S
N1901 C1893 1.427 . S
N1901 C1899 1.384 . S
H1902 C1908 0.930 . S
H1903 C1912 0.930 . S
H1904 C1917 0.929 . S
H1905 C1915 0.929 . S
H1906 C1910 0.929 . S
H1907 C1916 0.929 . S
C1908 H1902 0.930 . S
C1908 C1909 1.367 . S
C1908 C1916 1.378 . S
C1909 C1908 1.367 . S
C1909 C1917 1.433 . S
C1910 H1906 0.929 . S
C1910 C1912 1.378 . S
C1910 C1914 1.350 . S
C1911 C1914 1.463 . S
C1911 C1916 1.350 . S
C1911 N1919 1.427 . S
C1912 H1903 0.930 . S
C1912 C1910 1.378 . S
C1912 C1913 1.367 . S
C1913 C1912 1.367 . S
C1913 C1915 1.433 . S
C1914 C1910 1.350 . S
C1914 C1911 1.463 . S
C1914 N1918 1.427 . S
C1915 H1905 0.929 . S
C1915 C1913 1.433 . S
C1915 N1918 1.384 . S
C1916 H1907 0.929 . S
C1916 C1908 1.378 . S
C1916 C1911 1.350 . S
C1917 H1904 0.929 . S
C1917 C1909 1.433 . S
C1917 N1919 1.384 . S
N1918 C1914 1.427 . S
N1918 C1915 1.384 . S
N1919 C1911 1.427 . S
N1919 C1917 1.384 . S
H1920 C1926 0.930 . S
H1921 C1930 0.930 . S
H1922 C1935 0.929 . S
H1923 C1933 0.929 . S
H1924 C1928 0.929 . S
H1925 C1934 0.929 . S
C1926 H1920 0.930 . S
C1926 C1927 1.367 1_554 S
C1926 C1934 1.378 . S
C1927 C1926 1.367 1_556 S
C1927 C1935 1.433 . S
C1928 H1924 0.929 . S
C1928 C1930 1.378 . S
C1928 C1932 1.350 . S
C1929 C1932 1.463 . S
C1929 C1934 1.350 1_556 S
C1929 N1937 1.427 . S
C1930 H1921 0.930 . S
C1930 C1928 1.378 . S
C1930 C1931 1.367 . S
C1931 C1930 1.367 . S
C1931 C1933 1.433 1_556 S
C1932 C1928 1.350 . S
C1932 C1929 1.463 . S
C1932 N1936 1.427 1_556 S
C1933 H1923 0.929 . S
C1933 C1931 1.433 1_554 S
C1933 N1936 1.384 . S
C1934 H1925 0.929 . S
C1934 C1926 1.378 . S
C1934 C1929 1.350 1_554 S
C1935 H1922 0.929 . S
C1935 C1927 1.433 . S
C1935 N1937 1.384 . S
N1936 C1932 1.427 1_554 S
N1936 C1933 1.384 . S
N1937 C1929 1.427 . S
N1937 C1935 1.384 . S
H1938 C1944 0.930 . S
H1939 C1948 0.930 . S
H1940 C1953 0.929 . S
H1941 C1951 0.929 . S
H1942 C1946 0.929 . S
H1943 C1952 0.929 . S
C1944 H1938 0.930 . S
C1944 C1945 1.367 . S
C1944 C1952 1.378 . S
C1945 C1944 1.367 . S
C1945 C1953 1.433 . S
C1946 H1942 0.929 . S
C1946 C1948 1.378 . S
C1946 C1950 1.350 . S
C1947 C1950 1.463 . S
C1947 C1952 1.350 . S
C1947 N1955 1.427 . S
C1948 H1939 0.930 . S
C1948 C1946 1.378 . S
C1948 C1949 1.367 . S
C1949 C1948 1.367 . S
C1949 C1951 1.433 . S
C1950 C1946 1.350 . S
C1950 C1947 1.463 . S
C1950 N1954 1.427 . S
C1951 H1941 0.929 . S
C1951 C1949 1.433 . S
C1951 N1954 1.384 . S
C1952 H1943 0.929 . S
C1952 C1944 1.378 . S
C1952 C1947 1.350 . S
C1953 H1940 0.929 . S
C1953 C1945 1.433 . S
C1953 N1955 1.384 . S
N1954 C1950 1.427 . S
N1954 C1951 1.384 . S
N1955 C1947 1.427 . S
N1955 C1953 1.384 . S
H1956 C1962 0.930 . S
H1957 C1966 0.930 1_556 S
H1958 C1971 0.929 . S
H1959 C1969 0.929 . S
H1960 C1964 0.929 1_556 S
H1961 C1970 0.929 . S
C1962 H1956 0.930 . S
C1962 C1963 1.367 . S
C1962 C1970 1.378 . S
C1963 C1962 1.367 . S
C1963 C1971 1.433 . S
C1964 H1960 0.929 1_554 S
C1964 C1966 1.378 . S
C1964 C1968 1.350 . S
C1965 C1968 1.463 . S
C1965 C1970 1.350 . S
C1965 N1973 1.427 . S
C1966 H1957 0.930 1_554 S
C1966 C1964 1.378 . S
C1966 C1967 1.367 . S
C1967 C1966 1.367 . S
C1967 C1969 1.433 . S
C1968 C1964 1.350 . S
C1968 C1965 1.463 . S
C1968 N1972 1.427 . S
C1969 H1959 0.929 . S
C1969 C1967 1.433 . S
C1969 N1972 1.384 . S
C1970 H1961 0.929 . S
C1970 C1962 1.378 . S
C1970 C1965 1.350 . S
C1971 H1958 0.929 . S
C1971 C1963 1.433 . S
C1971 N1973 1.384 . S
N1972 C1968 1.427 . S
N1972 C1969 1.384 . S
N1973 C1965 1.427 . S
N1973 C1971 1.384 . S
H1974 C1980 0.930 1_556 S
H1975 C1984 0.930 . S
H1976 C1989 0.929 . S
H1977 C1987 0.929 . S
H1978 C1982 0.929 . S
H1979 C1988 0.925 . S
C1980 H1974 0.930 1_554 S
C1980 C1981 1.367 . S
C1980 C1988 1.378 1_554 S
C1981 C1980 1.367 . S
C1981 C1989 1.433 . S
C1982 H1978 0.929 . S
C1982 C1984 1.378 . S
C1982 C1986 1.350 . S
C1983 C1986 1.463 . S
C1983 C1988 1.353 1_554 S
C1983 N1991 1.427 . S
C1984 H1975 0.930 . S
C1984 C1982 1.378 . S
C1984 C1985 1.367 . S
C1985 C1984 1.367 . S
C1985 C1987 1.433 1_554 S
C1986 C1982 1.350 . S
C1986 C1983 1.463 . S
C1986 N1990 1.427 1_554 S
C1987 H1977 0.929 . S
C1987 C1985 1.433 1_556 S
C1987 N1990 1.384 . S
C1988 H1979 0.925 . S
C1988 C1980 1.378 1_556 S
C1988 C1983 1.353 1_556 S
C1989 H1976 0.929 . S
C1989 C1981 1.433 . S
C1989 N1991 1.384 . S
N1990 C1986 1.427 1_556 S
N1990 C1987 1.384 . S
N1991 C1983 1.427 . S
N1991 C1989 1.384 . S
C1139 C971 1.442 . S
C1135 C331 1.451 . S
C1157 C979 1.285 . S
C1153 C380 1.521 . S
C1171 C421 1.416 . S
C1175 C999 1.420 . S
C1193 C1013 1.498 . S
C1189 C260 1.498 1_655 S
C1211 C1028 1.528 . S
C1207 C620 1.504 . S
C1229 C1042 1.516 . S
C1225 C740 1.502 . S
C1243 C680 1.538 . S
C1247 C1056 1.567 . S
C1265 C1062 1.446 . S
C1261 C571 1.460 . S
C1279 C691 1.486 . S
C1283 C1076 1.487 . S
C1301 C1097 1.528 . S
C1297 C541 1.528 . S
C1315 C601 1.451 . S
C1319 C1077 1.220 . S
C1337 C1098 1.539 . S
C1333 C721 1.520 . S
C1351 C451 1.462 . S
C1355 C1105 1.236 . S
C1369 C241 1.481 . S
C1373 C1111 1.498 . S
C1387 C320 1.481 . S
C1391 C1104 1.471 . S
C1405 C391 1.469 . S
C1409 C1112 1.482 . S
C1423 C211 1.475 . S
C1427 C1006 1.452 . S
C1441 C841 1.477 . S
C1445 C1007 1.259 . S
C1463 C964 1.508 . S
C1459 C901 1.551 . S
C1481 C985 1.444 . S
C1477 C500 1.446 . S
C1495 C271 1.464 . S
C1499 C1020 1.448 . S
C1517 C1070 1.530 . S
C1513 C661 1.507 . S
C1535 C1021 1.199 . S
C1531 C560 1.433 . S
C1553 C1049 1.265 . S
C1549 C751 1.540 . S
C1571 C1055 1.440 . S
C1567 C871 1.452 . S
C1585 C920 1.520 . S
C1589 C1063 1.289 . S
C1603 C481 1.417 . S
C1607 C1027 1.419 . S
C1625 C1041 1.501 . S
C1621 C800 1.491 . S
C1639 C200 1.509 . S
C1643 C1000 1.528 . S
C1661 C1014 1.517 . S
C1657 C20 1.503 . S
C1679 C972 1.567 . S
C1675 C80 1.543 . S
C1697 C978 1.446 . S
C1693 C151 1.460 . S
C1711 C91 1.497 . S
C1715 C1090 1.483 . S
C1729 C121 1.529 . S
C1733 C1083 1.527 . S
C1747 C181 1.456 . S
C1751 C1091 1.229 . S
C1765 C1 1.524 . S
C1769 C1084 1.540 . S
C1787 C1119 1.221 . S
C1783 C511 1.468 . S
C1805 C1125 1.489 . S
C1801 C781 1.482 . S
C1823 C1118 1.470 . S
C1819 C860 1.487 . S
C1837 C931 1.468 . S
C1841 C1126 1.482 . S
C1855 C631 1.474 . S
C1859 C1034 1.451 . S
C1877 C1035 1.236 . S
C1873 C301 1.480 . S
C1895 C1048 1.520 . S
C1891 C361 1.543 . S
C1913 C1069 1.434 . S
C1909 C440 1.455 . S
C1927 C811 1.468 . S
C1931 C992 1.452 1_556 S
C1949 C986 1.531 . S
C1945 C61 1.508 . S
C1963 C140 1.423 . S
C1967 C993 1.225 . S
C1985 C965 1.268 . S
C1981 C31 1.538 . S
