# Generated by pormake.
# Topology pyr, (3,6)-cn, num edge types: 1
# Building blocks:
#     Node 0, Type 0, BuildingBlock: VETTIZ_charged_linker_0, # of connection points: 3
#     Node 1, Type 0, BuildingBlock: VETTIZ_charged_linker_0, # of connection points: 3
#     Node 2, Type 0, BuildingBlock: VETTIZ_charged_linker_0, # of connection points: 3
#     Node 3, Type 0, BuildingBlock: VETTIZ_charged_linker_0, # of connection points: 3
#     Node 4, Type 0, BuildingBlock: VETTIZ_charged_linker_0, # of connection points: 3
#     Node 5, Type 0, BuildingBlock: VETTIZ_charged_linker_0, # of connection points: 3
#     Node 6, Type 0, BuildingBlock: VETTIZ_charged_linker_0, # of connection points: 3
#     Node 7, Type 0, BuildingBlock: VETTIZ_charged_linker_0, # of connection points: 3
#     Node 8, Type 1, BuildingBlock: BETFAJ_clean_sbu_0, # of connection points: 6
#     Node 9, Type 1, BuildingBlock: BETFAJ_clean_sbu_0, # of connection points: 6
#     Node 10, Type 1, BuildingBlock: BETFAJ_clean_sbu_0, # of connection points: 6
#     Node 11, Type 1, BuildingBlock: BETFAJ_clean_sbu_0, # of connection points: 6
#     Edge 12, Type (0, 1), BuildingBlock: EZIPEK_clean_linker_0, # of connection points: 2
#     Edge 13, Type (0, 1), BuildingBlock: EZIPEK_clean_linker_0, # of connection points: 2
#     Edge 14, Type (0, 1), BuildingBlock: EZIPEK_clean_linker_0, # of connection points: 2
#     Edge 15, Type (0, 1), BuildingBlock: EZIPEK_clean_linker_0, # of connection points: 2
#     Edge 16, Type (0, 1), BuildingBlock: EZIPEK_clean_linker_0, # of connection points: 2
#     Edge 17, Type (0, 1), BuildingBlock: EZIPEK_clean_linker_0, # of connection points: 2
#     Edge 18, Type (0, 1), BuildingBlock: EZIPEK_clean_linker_0, # of connection points: 2
#     Edge 19, Type (0, 1), BuildingBlock: EZIPEK_clean_linker_0, # of connection points: 2
#     Edge 20, Type (0, 1), BuildingBlock: EZIPEK_clean_linker_0, # of connection points: 2
#     Edge 21, Type (0, 1), BuildingBlock: EZIPEK_clean_linker_0, # of connection points: 2
#     Edge 22, Type (0, 1), BuildingBlock: EZIPEK_clean_linker_0, # of connection points: 2
#     Edge 23, Type (0, 1), BuildingBlock: EZIPEK_clean_linker_0, # of connection points: 2
#     Edge 24, Type (0, 1), BuildingBlock: EZIPEK_clean_linker_0, # of connection points: 2
#     Edge 25, Type (0, 1), BuildingBlock: EZIPEK_clean_linker_0, # of connection points: 2
#     Edge 26, Type (0, 1), BuildingBlock: EZIPEK_clean_linker_0, # of connection points: 2
#     Edge 27, Type (0, 1), BuildingBlock: EZIPEK_clean_linker_0, # of connection points: 2
#     Edge 28, Type (0, 1), BuildingBlock: EZIPEK_clean_linker_0, # of connection points: 2
#     Edge 29, Type (0, 1), BuildingBlock: EZIPEK_clean_linker_0, # of connection points: 2
#     Edge 30, Type (0, 1), BuildingBlock: EZIPEK_clean_linker_0, # of connection points: 2
#     Edge 31, Type (0, 1), BuildingBlock: EZIPEK_clean_linker_0, # of connection points: 2
#     Edge 32, Type (0, 1), BuildingBlock: EZIPEK_clean_linker_0, # of connection points: 2
#     Edge 33, Type (0, 1), BuildingBlock: EZIPEK_clean_linker_0, # of connection points: 2
#     Edge 34, Type (0, 1), BuildingBlock: EZIPEK_clean_linker_0, # of connection points: 2
#     Edge 35, Type (0, 1), BuildingBlock: EZIPEK_clean_linker_0, # of connection points: 2
# Relax obj value: 0.136
# Max RMSD: 0.130
# Mean RMSD: 0.065
data_MOF--net-pyr--node1-BETFAJ_clean_sbu_0--node2-VETTIZ_charged_linker_0--edge1-EZIPEK_clean_linker_0
_symmetry_space_group_name_H-M    P1
_symmetry_Int_Tables_number       1
_symmetry_cell_setting            triclinic
loop_
_symmetry_equiv_pos_as_xyz
'x, y, z'
_cell_length_a     35.809731
_cell_length_b     38.646658
_cell_length_c     35.756645
_cell_angle_alpha  91.273642
_cell_angle_beta   88.900308
_cell_angle_gamma 100.86217
loop_
_atom_site_label
_atom_site_type_symbol
_atom_site_fract_x
_atom_site_fract_y
_atom_site_fract_z
_atom_type_partial_charge
C0 C 0.30483 0.24677 0.34412 0.0
C1 C 0.27793 0.26459 0.36094 0.0
C2 C 0.28002 0.30063 0.35406 0.0
C3 C 0.32589 0.29672 0.30457 0.0
C4 C 0.32911 0.26367 0.31616 0.0
C5 C 0.35749 0.24835 0.29253 0.0
H6 H 0.43096 0.22979 0.12211 0.0
C7 C 0.34534 0.30275 0.26808 0.0
C8 C 0.36557 0.27542 0.26148 0.0
H9 H 0.45158 0.17836 0.22375 0.0
H10 H 0.42174 0.21955 0.26015 0.0
H11 H 0.44671 0.31375 0.15811 0.0
H12 H 0.34581 0.23384 0.14316 0.0
H13 H 0.3356 0.27457 0.13038 0.0
H14 H 0.3711 0.25646 0.10429 0.0
H15 H 0.42886 0.29915 0.11268 0.0
H16 H 0.41044 0.33281 0.13892 0.0
C17 C 0.39304 0.24763 0.31651 0.0
C18 C 0.3382 0.21152 0.27755 0.0
C19 C 0.28218 0.37208 0.17869 0.0
C20 C 0.28151 0.37314 0.13965 0.0
C21 C 0.30875 0.35887 0.11841 0.0
C22 C 0.33446 0.34134 0.13614 0.0
C23 C 0.33236 0.33766 0.1753 0.0
C24 C 0.30711 0.35377 0.19586 0.0
C25 C 0.30855 0.34776 0.23706 0.0
C26 C 0.33705 0.32312 0.2378 0.0
C27 C 0.35117 0.3174 0.20158 0.0
C28 C 0.32457 0.38361 0.25628 0.0
C29 C 0.2681 0.33044 0.25159 0.0
C30 C 0.42946 0.22786 0.1523 0.0
C31 C 0.4432 0.20071 0.17022 0.0
C32 C 0.44094 0.19889 0.20947 0.0
C33 C 0.42328 0.22239 0.23046 0.0
C34 C 0.40646 0.24702 0.21197 0.0
C35 C 0.41097 0.25064 0.17376 0.0
C36 C 0.39081 0.27858 0.15946 0.0
C37 C 0.3746 0.29169 0.19569 0.0
C38 C 0.38291 0.27201 0.22597 0.0
C39 C 0.42056 0.30765 0.14103 0.0
C40 C 0.35927 0.26026 0.13271 0.0
H41 H 0.30416 0.34401 0.32027 0.0
H42 H 0.30464 0.21948 0.35047 0.0
H43 H 0.31111 0.21306 0.26354 0.0
H44 H 0.35603 0.20016 0.25701 0.0
H45 H 0.33175 0.19249 0.30066 0.0
H46 H 0.3915 0.26068 0.3444 0.0
H47 H 0.39651 0.2202 0.32179 0.0
H48 H 0.41944 0.26195 0.30291 0.0
H49 H 0.26204 0.38367 0.19551 0.0
H50 H 0.30902 0.36008 0.08818 0.0
H51 H 0.35411 0.33028 0.11867 0.0
H52 H 0.34796 0.39903 0.23919 0.0
H53 H 0.30204 0.39965 0.2601 0.0
H54 H 0.33725 0.38056 0.28366 0.0
H55 H 0.24531 0.33163 0.23132 0.0
H56 H 0.26606 0.30198 0.25707 0.0
H57 H 0.25972 0.3438 0.2773 0.0
H58 H 0.26042 0.31507 0.36798 0.0
C59 C 0.30431 0.31694 0.32585 0.0
C60 C 0.23067 0.93918 0.57764 0.0
C61 C 0.21199 0.96026 0.60116 0.0
C62 C 0.2207 0.96366 0.63943 0.0
C63 C 0.26249 0.92164 0.63136 0.0
C64 C 0.25622 0.92047 0.59327 0.0
C65 C 0.27943 0.89732 0.57256 0.0
H66 H 0.39972 0.7823 0.58135 0.0
C67 C 0.28734 0.89649 0.63925 0.0
C68 C 0.29769 0.88235 0.60496 0.0
H69 H 0.3669 0.83051 0.48254 0.0
H70 H 0.32531 0.86095 0.52056 0.0
H71 H 0.41314 0.85234 0.63109 0.0
H72 H 0.3186 0.76576 0.62129 0.0
H73 H 0.31905 0.77979 0.66836 0.0
H74 H 0.35913 0.76284 0.6489 0.0
H75 H 0.41435 0.8084 0.64568 0.0
H76 H 0.39734 0.83953 0.67647 0.0
C77 C 0.30921 0.92095 0.54747 0.0
C78 C 0.25229 0.86825 0.55078 0.0
C79 C 0.31868 0.87439 0.77325 0.0
C80 C 0.33941 0.85118 0.78909 0.0
C81 C 0.35147 0.82496 0.76658 0.0
C82 C 0.34562 0.82383 0.72788 0.0
C83 C 0.32731 0.84902 0.71192 0.0
C84 C 0.31276 0.87272 0.73474 0.0
C85 C 0.29228 0.89618 0.71318 0.0
C86 C 0.29862 0.88386 0.6734 0.0
C87 C 0.31961 0.85669 0.67288 0.0
C88 C 0.31207 0.93502 0.72014 0.0
C89 C 0.24977 0.88776 0.72521 0.0
C90 C 0.38331 0.79931 0.56798 0.0
C91 C 0.38629 0.80441 0.52934 0.0
C92 C 0.36484 0.82657 0.51246 0.0
C93 C 0.34109 0.8442 0.53454 0.0
C94 C 0.33941 0.83966 0.57361 0.0
C95 C 0.36026 0.81734 0.58953 0.0
C96 C 0.35711 0.81696 0.63139 0.0
C97 C 0.33161 0.84354 0.63832 0.0
C98 C 0.32096 0.85647 0.60449 0.0
C99 C 0.39747 0.82975 0.64731 0.0
C100 C 0.33773 0.77943 0.64339 0.0
H101 H 0.25037 0.94714 0.68425 0.0
H102 H 0.22492 0.93689 0.54796 0.0
H103 H 0.22817 0.85599 0.5691 0.0
H104 H 0.26632 0.84663 0.5407 0.0
H105 H 0.24032 0.87934 0.5263 0.0
H106 H 0.31474 0.94889 0.55752 0.0
H107 H 0.29949 0.92066 0.51813 0.0
H108 H 0.33737 0.91307 0.54774 0.0
H109 H 0.30866 0.89439 0.79034 0.0
H110 H 0.36711 0.80666 0.7787 0.0
H111 H 0.35666 0.80418 0.71176 0.0
H112 H 0.34319 0.93705 0.72393 0.0
H113 H 0.30047 0.94629 0.74569 0.0
H114 H 0.30981 0.95209 0.69622 0.0
H115 H 0.24034 0.85907 0.73007 0.0
H116 H 0.2305 0.89394 0.70368 0.0
H117 H 0.24481 0.90199 0.75163 0.0
H118 H 0.20688 0.9803 0.65771 0.0
C119 C 0.24565 0.94423 0.65473 0.0
C120 C 0.61523 0.25334 0.92493 0.0
C121 C 0.58411 0.22859 0.91082 0.0
C122 C 0.56759 0.23833 0.87763 0.0
C123 C 0.61216 0.29541 0.87442 0.0
C124 C 0.62889 0.28561 0.90628 0.0
C125 C 0.6631 0.31277 0.91722 0.0
H126 H 0.79106 0.46446 0.89015 0.0
C127 C 0.63408 0.33124 0.86198 0.0
C128 C 0.6644 0.34067 0.88737 0.0
H129 H 0.78803 0.38849 0.97734 0.0
H130 H 0.73049 0.35398 0.9522 0.0
H131 H 0.69649 0.46312 0.89367 0.0
H132 H 0.76455 0.40789 0.82132 0.0
H133 H 0.7312 0.42413 0.79435 0.0
H134 H 0.76718 0.45468 0.81897 0.0
H135 H 0.73008 0.48556 0.86022 0.0
H136 H 0.68253 0.46538 0.84696 0.0
C137 C 0.65519 0.32745 0.95669 0.0
C138 C 0.69841 0.2949 0.91461 0.0
C139 C 0.59253 0.40145 0.75082 0.0
C140 C 0.60861 0.43422 0.73357 0.0
C141 C 0.64368 0.45204 0.74821 0.0
C142 C 0.66138 0.43915 0.77874 0.0
C143 C 0.64486 0.40718 0.79584 0.0
C144 C 0.61121 0.38837 0.78144 0.0
C145 C 0.59947 0.35353 0.80208 0.0
C146 C 0.6301 0.35548 0.83227 0.0
C147 C 0.65695 0.38741 0.8283 0.0
C148 C 0.55963 0.35204 0.81969 0.0
C149 C 0.60102 0.32309 0.77385 0.0
C150 C 0.77784 0.44039 0.90377 0.0
C151 C 0.7947 0.42929 0.93606 0.0
C152 C 0.77611 0.39781 0.95271 0.0
C153 C 0.74249 0.37767 0.93785 0.0
C154 C 0.72619 0.38865 0.90556 0.0
C155 C 0.74358 0.41985 0.88926 0.0
C156 C 0.72117 0.42764 0.85567 0.0
C157 C 0.68813 0.39581 0.85406 0.0
C158 C 0.6915 0.37288 0.88345 0.0
C159 C 0.70688 0.46236 0.86419 0.0
C160 C 0.74726 0.42896 0.82059 0.0
H161 H 0.56647 0.27673 0.8353 0.0
H162 H 0.62913 0.24751 0.95004 0.0
H163 H 0.69567 0.27505 0.89131 0.0
H164 H 0.72501 0.31352 0.90816 0.0
H165 H 0.70199 0.28106 0.94083 0.0
H166 H 0.62465 0.32917 0.96028 0.0
H167 H 0.66224 0.31022 0.97892 0.0
H168 H 0.67073 0.35463 0.96172 0.0
H169 H 0.56599 0.38632 0.74066 0.0
H170 H 0.65753 0.47666 0.73603 0.0
H171 H 0.68772 0.45477 0.78792 0.0
H172 H 0.55886 0.37626 0.83684 0.0
H173 H 0.53781 0.35009 0.79768 0.0
H174 H 0.55152 0.32939 0.83834 0.0
H175 H 0.62818 0.32813 0.7575 0.0
H176 H 0.59986 0.29769 0.78767 0.0
H177 H 0.57722 0.3203 0.75383 0.0
H178 H 0.54387 0.22037 0.86542 0.0
C179 C 0.58092 0.27124 0.8599 0.0
C180 C 0.94298 0.80602 0.39746 0.0
C181 C 0.92778 0.82688 0.42539 0.0
C182 C 0.89009 0.81416 0.43777 0.0
C183 C 0.88485 0.76078 0.39872 0.0
C184 C 0.92061 0.77356 0.38391 0.0
C185 C 0.92998 0.74901 0.35234 0.0
H186 H 0.87517 0.59548 0.24591 0.0
C187 C 0.86918 0.7258 0.3806 0.0
C188 C 0.89509 0.7187 0.35245 0.0
H189 H 0.97725 0.67353 0.2311 0.0
H190 H 0.95924 0.70731 0.2846 0.0
H191 H 0.88179 0.59585 0.33814 0.0
H192 H 0.8155 0.64981 0.26738 0.0
H193 H 0.78678 0.62782 0.30361 0.0
H194 H 0.8082 0.60256 0.26938 0.0
H195 H 0.84182 0.57248 0.31258 0.0
H196 H 0.83584 0.59306 0.35753 0.0
C197 C 0.96663 0.73595 0.3621 0.0
C198 C 0.93341 0.76953 0.31553 0.0
C199 C 0.74581 0.65411 0.4353 0.0
C200 C 0.72398 0.62038 0.42775 0.0
C201 C 0.73631 0.60037 0.39795 0.0
C202 C 0.76942 0.61356 0.37637 0.0
C203 C 0.79113 0.6473 0.38445 0.0
C204 C 0.77897 0.66681 0.41368 0.0
C205 C 0.80507 0.70201 0.41873 0.0
C206 C 0.83555 0.70037 0.3886 0.0
C207 C 0.82734 0.66838 0.36798 0.0
C208 C 0.82151 0.70348 0.45861 0.0
C209 C 0.78202 0.73128 0.41101 0.0
C210 C 0.89352 0.62001 0.25389 0.0
C211 C 0.9277 0.63173 0.23329 0.0
C212 C 0.95073 0.66372 0.24571 0.0
C213 C 0.94007 0.68352 0.27685 0.0
C214 C 0.9057 0.67171 0.29672 0.0
C215 C 0.88331 0.64004 0.28523 0.0
C216 C 0.84866 0.63034 0.31059 0.0
C217 C 0.85265 0.66181 0.33794 0.0
C218 C 0.88644 0.6865 0.33002 0.0
C219 C 0.85178 0.596 0.33072 0.0
C220 C 0.8127 0.62721 0.28664 0.0
H221 H 0.8412 0.77383 0.4371 0.0
H222 H 0.97145 0.81479 0.3864 0.0
H223 H 0.90931 0.78374 0.31311 0.0
H224 H 0.93231 0.75219 0.29055 0.0
H225 H 0.96027 0.78934 0.31454 0.0
H226 H 0.96471 0.72605 0.39118 0.0
H227 H 0.99178 0.75764 0.36008 0.0
H228 H 0.97161 0.71392 0.3437 0.0
H229 H 0.73723 0.67032 0.45776 0.0
H230 H 0.72014 0.57444 0.39128 0.0
H231 H 0.77686 0.59696 0.35405 0.0
H232 H 0.83031 0.67816 0.46502 0.0
H233 H 0.79995 0.70806 0.47999 0.0
H234 H 0.84722 0.72391 0.4623 0.0
H235 H 0.75732 0.72146 0.39272 0.0
H236 H 0.79898 0.75357 0.39557 0.0
H237 H 0.77075 0.74142 0.43738 0.0
H238 H 0.87684 0.82933 0.45819 0.0
C239 C 0.86914 0.78162 0.42526 0.0
C240 C 0.7322 0.71569 0.92069 0.0
C241 C 0.75854 0.69641 0.9048 0.0
C242 C 0.75952 0.691 0.8658 0.0
C243 C 0.71453 0.72948 0.8584 0.0
C244 C 0.71034 0.73205 0.89674 0.0
C245 C 0.68248 0.75561 0.90756 0.0
H246 H 0.5804 0.87717 0.85338 0.0
C247 C 0.69232 0.7529 0.84095 0.0
C248 C 0.67199 0.76739 0.86928 0.0
H249 H 0.59469 0.84332 0.96546 0.0
H250 H 0.62863 0.79862 0.94122 0.0
H251 H 0.5684 0.79611 0.81015 0.0
H252 H 0.6517 0.88723 0.82913 0.0
H253 H 0.67654 0.86488 0.79683 0.0
H254 H 0.63313 0.87836 0.78344 0.0
H255 H 0.57236 0.839 0.7903 0.0
H256 H 0.59504 0.80576 0.76825 0.0
C257 C 0.648 0.73307 0.92768 0.0
C258 C 0.70378 0.78673 0.93152 0.0
C259 C 0.73767 0.80478 0.71703 0.0
C260 C 0.72867 0.83384 0.69897 0.0
C261 C 0.69288 0.84306 0.7054 0.0
C262 C 0.66907 0.82703 0.73419 0.0
C263 C 0.68183 0.80236 0.75668 0.0
C264 C 0.71405 0.78957 0.74619 0.0
C265 C 0.72312 0.76319 0.77323 0.0
C266 C 0.69363 0.76571 0.804 0.0
C267 C 0.67016 0.78929 0.79441 0.0
C268 C 0.71661 0.7264 0.75346 0.0
C269 C 0.76441 0.77593 0.78692 0.0
C270 C 0.59036 0.85965 0.87251 0.0
C271 C 0.58527 0.86368 0.9112 0.0
C272 C 0.59866 0.84067 0.93549 0.0
C273 C 0.61851 0.81499 0.92138 0.0
C274 C 0.62573 0.81287 0.88266 0.0
C275 C 0.61128 0.83476 0.85896 0.0
C276 C 0.6238 0.83094 0.81904 0.0
C277 C 0.64779 0.80267 0.82247 0.0
C278 C 0.64887 0.79206 0.8598 0.0
C279 C 0.58809 0.81742 0.79542 0.0
C280 C 0.64736 0.867 0.80623 0.0
H281 H 0.73937 0.70239 0.81313 0.0
H282 H 0.73022 0.71934 0.95073 0.0
H283 H 0.73265 0.79656 0.91956 0.0
H284 H 0.68968 0.80973 0.93249 0.0
H285 H 0.70722 0.77847 0.96062 0.0
H286 H 0.64092 0.7063 0.91458 0.0
H287 H 0.65408 0.72988 0.95763 0.0
H288 H 0.62184 0.74411 0.92566 0.0
H289 H 0.76472 0.79691 0.71139 0.0
H290 H 0.68525 0.86498 0.69091 0.0
H291 H 0.64301 0.83615 0.73961 0.0
H292 H 0.70314 0.72645 0.72567 0.0
H293 H 0.74384 0.71708 0.74856 0.0
H294 H 0.69706 0.70641 0.76991 0.0
H295 H 0.76864 0.80399 0.79643 0.0
H296 H 0.77195 0.76099 0.81052 0.0
H297 H 0.7854 0.77364 0.76419 0.0
H298 H 0.77882 0.67547 0.85316 0.0
C299 C 0.73704 0.70686 0.84261 0.0
C300 C 0.84138 0.14184 0.47015 0.0
C301 C 0.8629 0.12032 0.45071 0.0
C302 C 0.86539 0.12124 0.4114 0.0
C303 C 0.82671 0.16637 0.41169 0.0
C304 C 0.82452 0.16528 0.45028 0.0
C305 C 0.80585 0.19371 0.46718 0.0
H306 H 0.7065 0.32248 0.44221 0.0
C307 C 0.80847 0.19538 0.39991 0.0
C308 C 0.79707 0.21203 0.43231 0.0
H309 H 0.74066 0.28568 0.54697 0.0
H310 H 0.77581 0.24638 0.51338 0.0
H311 H 0.69008 0.24572 0.39767 0.0
H312 H 0.78413 0.33288 0.40421 0.0
H313 H 0.78859 0.31338 0.35988 0.0
H314 H 0.74708 0.3322 0.37108 0.0
H315 H 0.68937 0.28963 0.38257 0.0
H316 H 0.70589 0.25826 0.35208 0.0
C317 C 0.76934 0.17568 0.48808 0.0
C318 C 0.83502 0.21812 0.49224 0.0
C319 C 0.77366 0.20471 0.26452 0.0
C320 C 0.75309 0.22717 0.24705 0.0
C321 C 0.74766 0.25844 0.26532 0.0
C322 C 0.75848 0.26502 0.30258 0.0
C323 C 0.77458 0.23995 0.32136 0.0
C324 C 0.78432 0.21167 0.30176 0.0
C325 C 0.80355 0.18914 0.32604 0.0
C326 C 0.80022 0.20675 0.36407 0.0
C327 C 0.78251 0.23599 0.36111 0.0
C328 C 0.78066 0.15092 0.3247 0.0
C329 C 0.84554 0.19255 0.3127 0.0
C330 C 0.72157 0.3058 0.4578 0.0
C331 C 0.72032 0.30617 0.49697 0.0
C332 C 0.74085 0.28503 0.51667 0.0
C333 C 0.76116 0.26245 0.4971 0.0
C334 C 0.76114 0.26162 0.45766 0.0
C335 C 0.74229 0.28375 0.43881 0.0
C336 C 0.74631 0.28065 0.39711 0.0
C337 C 0.77049 0.25247 0.39379 0.0
C338 C 0.77829 0.24091 0.42924 0.0
C339 C 0.70594 0.26804 0.38121 0.0
C340 C 0.76738 0.31657 0.38205 0.0
H341 H 0.85013 0.14407 0.36183 0.0
H342 H 0.83997 0.1421 0.50046 0.0
H343 H 0.86477 0.21791 0.4828 0.0
H344 H 0.83229 0.24612 0.49098 0.0
H345 H 0.83233 0.20971 0.52183 0.0
H346 H 0.75328 0.1538 0.47072 0.0
H347 H 0.77646 0.16438 0.51474 0.0
H348 H 0.7493 0.19353 0.49433 0.0
H349 H 0.77869 0.1809 0.25037 0.0
H350 H 0.73222 0.27613 0.25181 0.0
H351 H 0.75176 0.28821 0.31597 0.0
H352 H 0.74984 0.15077 0.32946 0.0
H353 H 0.78415 0.13816 0.29705 0.0
H354 H 0.78913 0.13413 0.3463 0.0
H355 H 0.86542 0.19557 0.33644 0.0
H356 H 0.8497 0.16945 0.29515 0.0
H357 H 0.85507 0.21647 0.29572 0.0
H358 H 0.88236 0.10504 0.39616 0.0
C359 C 0.8471 0.14406 0.39171 0.0
C360 C 0.43517 0.66915 0.32359 0.0
C361 C 0.41779 0.63817 0.3435 0.0
C362 C 0.38109 0.62185 0.33131 0.0
C363 C 0.38126 0.66396 0.28061 0.0
C364 C 0.41607 0.68196 0.29312 0.0
C365 C 0.42802 0.71618 0.27138 0.0
H366 H 0.39545 0.81959 0.12208 0.0
C367 C 0.36909 0.68289 0.24762 0.0
C368 C 0.39652 0.71417 0.24208 0.0
H369 H 0.48252 0.8483 0.20468 0.0
H370 H 0.46092 0.79227 0.23587 0.0
H371 H 0.3297 0.79235 0.18195 0.0
H372 H 0.40093 0.73854 0.11294 0.0
H373 H 0.35564 0.7116 0.11326 0.0
H374 H 0.36181 0.75534 0.09446 0.0
H375 H 0.32384 0.78652 0.13235 0.0
H376 H 0.30052 0.75393 0.1647 0.0
C377 C 0.42803 0.74737 0.29903 0.0
C378 C 0.46717 0.71655 0.2527 0.0
C379 C 0.2483 0.62756 0.17342 0.0
C380 C 0.23169 0.63749 0.14044 0.0
C381 C 0.25026 0.66836 0.12269 0.0
C382 C 0.28375 0.68906 0.13714 0.0
C383 C 0.29986 0.67923 0.17009 0.0
C384 C 0.28244 0.64862 0.18748 0.0
C385 C 0.30446 0.64221 0.22186 0.0
C386 C 0.33767 0.6739 0.22227 0.0
C387 C 0.33444 0.69575 0.1919 0.0
C388 C 0.27812 0.64263 0.2566 0.0
C389 C 0.31845 0.60705 0.21548 0.0
C390 C 0.40989 0.81424 0.14704 0.0
C391 C 0.44113 0.8393 0.16029 0.0
C392 C 0.45854 0.83012 0.19322 0.0
C393 C 0.44574 0.79746 0.21164 0.0
C394 C 0.41413 0.7731 0.19815 0.0
C395 C 0.39675 0.78228 0.16639 0.0
C396 C 0.36255 0.75481 0.15626 0.0
C397 C 0.36164 0.72768 0.18683 0.0
C398 C 0.39235 0.73762 0.21168 0.0
C399 C 0.32717 0.77259 0.15857 0.0
C400 C 0.37021 0.73928 0.11711 0.0
H401 H 0.33591 0.61933 0.29293 0.0
H402 H 0.46288 0.68336 0.3318 0.0
H403 H 0.46678 0.69205 0.2357 0.0
H404 H 0.47528 0.73899 0.23375 0.0
H405 H 0.48958 0.71821 0.27408 0.0
H406 H 0.40144 0.74317 0.31628 0.0
H407 H 0.45248 0.75019 0.31827 0.0
H408 H 0.42918 0.77251 0.2847 0.0
H409 H 0.23496 0.60404 0.18793 0.0
H410 H 0.23842 0.67679 0.09755 0.0
H411 H 0.29574 0.71227 0.12198 0.0
H412 H 0.25945 0.66235 0.25358 0.0
H413 H 0.25951 0.61649 0.26058 0.0
H414 H 0.29405 0.65064 0.2825 0.0
H415 H 0.33091 0.6058 0.18685 0.0
H416 H 0.34106 0.60369 0.23479 0.0
H417 H 0.29456 0.58426 0.2183 0.0
H418 H 0.36588 0.59898 0.34577 0.0
C419 C 0.3634 0.63391 0.3003 0.0
C420 C 0.09778 0.25595 0.6875 0.0
C421 C 0.1115 0.23774 0.65647 0.0
C422 C 0.14513 0.25453 0.63844 0.0
C423 C 0.15073 0.30603 0.68058 0.0
C424 C 0.11792 0.29005 0.69909 0.0
C425 C 0.10832 0.31384 0.73127 0.0
H426 H 0.15316 0.47247 0.83113 0.0
C427 C 0.16504 0.34147 0.69849 0.0
C428 C 0.14033 0.34658 0.72859 0.0
H429 H 0.05877 0.38777 0.85274 0.0
H430 H 0.07859 0.35382 0.80023 0.0
H431 H 0.1463 0.46836 0.73905 0.0
H432 H 0.21657 0.42157 0.81261 0.0
H433 H 0.24426 0.44153 0.77485 0.0
H434 H 0.22254 0.46842 0.80724 0.0
H435 H 0.18412 0.49456 0.76528 0.0
H436 H 0.1931 0.47442 0.72088 0.0
C437 C 0.06904 0.32302 0.72407 0.0
C438 C 0.10982 0.29443 0.76826 0.0
C439 C 0.28554 0.41726 0.64289 0.0
C440 C 0.3066 0.4512 0.65098 0.0
C441 C 0.29364 0.47052 0.68098 0.0
C442 C 0.26076 0.45641 0.7024 0.0
C443 C 0.23996 0.42236 0.694 0.0
C444 C 0.25264 0.40359 0.66444 0.0
C445 C 0.22716 0.36815 0.65878 0.0
C446 C 0.19716 0.36832 0.68968 0.0
C447 C 0.20456 0.40014 0.71065 0.0
C448 C 0.20974 0.36734 0.61931 0.0
C449 C 0.25124 0.3394 0.66497 0.0
C450 C 0.13673 0.4466 0.82467 0.0
C451 C 0.1041 0.43313 0.84679 0.0
C452 C 0.0839 0.39911 0.83673 0.0
C453 C 0.09553 0.37931 0.80604 0.0
C454 C 0.12811 0.39312 0.78432 0.0
C455 C 0.14809 0.42642 0.79402 0.0
C456 C 0.18204 0.4373 0.76808 0.0
C457 C 0.17961 0.40542 0.74146 0.0
C458 C 0.14767 0.37905 0.75074 0.0
C459 C 0.17649 0.47056 0.74726 0.0
C460 C 0.21844 0.44278 0.79174 0.0
H461 H 0.18982 0.29874 0.63458 0.0
H462 H 0.072 0.24402 0.70215 0.0
H463 H 0.1362 0.28322 0.76922 0.0
H464 H 0.11035 0.31206 0.79299 0.0
H465 H 0.0851 0.2724 0.77102 0.0
H466 H 0.06757 0.33178 0.6948 0.0
H467 H 0.04605 0.29971 0.72831 0.0
H468 H 0.06311 0.3448 0.74229 0.0
H469 H 0.29449 0.40164 0.62008 0.0
H470 H 0.30915 0.49665 0.68795 0.0
H471 H 0.25272 0.47261 0.7248 0.0
H472 H 0.20494 0.3939 0.61168 0.0
H473 H 0.22886 0.35882 0.59758 0.0
H474 H 0.18137 0.35026 0.61749 0.0
H475 H 0.27276 0.34786 0.68701 0.0
H476 H 0.23416 0.31449 0.67523 0.0
H477 H 0.26673 0.3339 0.63896 0.0
H478 H 0.15642 0.24161 0.61476 0.0
C479 C 0.16455 0.28803 0.65011 0.0
Sm480 Sm 0.03602 0.04686 0.5045 0.0
Sm481 Sm 1.00671 1.01655 0.57556 0.0
C482 C 0.05531 0.08605 0.44525 0.0
C483 C 0.0862 0.11561 0.43627 0.0
C484 C 0.09712 0.1439 0.46167 0.0
C485 C 0.12797 0.17071 0.45323 0.0
C486 C 0.14848 0.16919 0.41962 0.0
C487 C 0.13754 0.14098 0.39434 0.0
C488 C 0.10657 0.11442 0.40258 0.0
C489 C 0.0884 1.01715 0.54164 0.0
C490 C 0.04942 0.0994 0.5816 0.0
C491 C 0.9818 0.97485 0.63185 0.0
C492 C 0.94358 0.95425 0.63789 0.0
C493 C 0.93603 0.93025 0.66703 0.0
C494 C 0.89923 0.91104 0.67243 0.0
C495 C 0.86986 0.91563 0.64859 0.0
C496 C 0.8776 0.93924 0.61908 0.0
C497 C 0.9143 0.95844 0.61376 0.0
C498 C 0.95448 0.04637 0.53903 0.0
C499 C 0.99551 0.96489 0.49894 0.0
O500 O 0.02966 0.09222 0.46987 0.0
O501 O 0.06577 0.05577 0.44966 0.0
O502 O 0.0672 1.03615 0.5567 0.0
O503 O 0.08278 1.01356 0.50594 0.0
O504 O 0.04914 0.09698 0.54445 0.0
O505 O 0.03832 0.07027 0.6011 0.0
O506 O 1.00014 0.96463 0.60304 0.0
O507 O 0.98424 1.00897 0.63366 0.0
O508 O 0.97616 1.02803 0.52385 0.0
O509 O 0.95699 0.04648 0.57493 0.0
O510 O 1.00389 0.96686 0.53504 0.0
O511 O 0.9996 0.99478 0.48062 0.0
H512 H 0.08204 0.14522 0.48806 0.0
H513 H 0.13593 0.19251 0.47284 0.0
H514 H 0.15297 0.13964 0.36814 0.0
H515 H 0.09874 0.09272 0.3828 0.0
H516 H 0.9584 0.92666 0.68572 0.0
H517 H 0.89344 0.89306 0.69554 0.0
H518 H 0.85513 0.94325 0.60073 0.0
H519 H 0.91983 0.97677 0.59093 0.0
Sm520 Sm 0.54383 1.03611 0.04742 0.0
Sm521 Sm 0.47698 1.03099 1.02088 0.0
C522 C 0.61161 0.05384 0.07848 0.0
C523 C 0.63625 0.0857 0.09265 0.0
C524 C 0.6307 0.11933 0.08274 0.0
C525 C 0.65133 0.14934 0.10047 0.0
C526 C 0.67682 0.14565 0.12878 0.0
C527 C 0.68355 0.11214 0.13725 0.0
C528 C 0.66343 0.08232 0.1192 0.0
C529 C 0.50028 0.97268 0.07578 0.0
C530 C 0.48883 0.08382 0.08694 0.0
C531 C 0.40915 1.01211 0.99023 0.0
C532 C 0.3905 0.97899 0.97247 0.0
C533 C 0.3988 0.94659 0.98359 0.0
C534 C 0.38819 0.91635 0.96122 0.0
C535 C 0.37019 0.91863 0.92714 0.0
C536 C 0.35958 0.95037 0.91746 0.0
C537 C 0.36961 0.98038 0.94006 0.0
C538 C 0.52146 0.09432 0.99267 0.0
C539 C 0.53025 0.98118 0.98154 0.0
O540 O 0.60669 0.05132 0.04244 0.0
O541 O 0.58021 0.04375 0.09753 0.0
O542 O 0.4893 1.00228 0.07426 0.0
O543 O 0.5332 0.97616 0.05946 0.0
O544 O 0.52383 0.08499 0.07458 0.0
O545 O 0.46297 0.05761 0.07536 0.0
O546 O 0.41449 1.01176 1.02612 0.0
O547 O 0.43901 1.02835 0.97219 0.0
O548 O 0.53197 0.06448 0.99404 0.0
O549 O 0.4884 0.09109 1.00878 0.0
O550 O 0.49499 0.98355 0.98971 0.0
O551 O 0.55765 1.00402 0.9967 0.0
H552 H 0.60939 0.12227 0.06258 0.0
H553 H 0.64576 0.17509 0.09388 0.0
H554 H 0.70313 0.109 0.15911 0.0
H555 H 0.66786 0.05652 0.12716 0.0
H556 H 0.41548 0.94508 1.00822 0.0
H557 H 0.39653 0.89198 0.96898 0.0
H558 H 0.34551 0.95239 0.89125 0.0
H559 H 0.36329 1.00518 0.93093 0.0
Sm560 Sm 0.51174 0.50904 0.51928 0.0
Sm561 Sm 0.51831 0.56859 0.56142 0.0
C562 C 0.52662 0.45151 0.48513 0.0
C563 C 0.55542 0.43066 0.49386 0.0
C564 C 0.58594 0.44543 0.51679 0.0
C565 C 0.61295 0.42587 0.52658 0.0
C566 C 0.61141 0.392 0.51134 0.0
C567 C 0.58096 0.37705 0.48825 0.0
C568 C 0.55277 0.39617 0.47993 0.0
C569 C 0.44434 0.50757 0.56039 0.0
C570 C 0.54666 0.5063 0.60524 0.0
C571 C 0.50917 0.62775 0.59587 0.0
C572 C 0.50408 0.66186 0.58168 0.0
C573 C 0.4744 0.67712 0.59652 0.0
C574 C 0.46278 0.70449 0.57794 0.0
C575 C 0.48071 0.71692 0.54431 0.0
C576 C 0.51225 0.70355 0.53089 0.0
C577 C 0.52391 0.67608 0.5495 0.0
C578 C 0.5857 0.56893 0.51997 0.0
C579 C 0.48075 0.5709 0.47524 0.0
O580 O 0.54014 0.48329 0.47377 0.0
O581 O 0.49938 0.45082 0.50993 0.0
O582 O 0.47777 0.5169 0.57287 0.0
O583 O 0.44592 0.50053 0.52473 0.0
O584 O 0.54942 0.49628 0.56975 0.0
O585 O 0.52978 0.53353 0.61125 0.0
O586 O 0.48109 0.60178 0.5886 0.0
O587 O 0.54245 0.61913 0.59048 0.0
O588 O 0.55209 0.56072 0.50781 0.0
O589 O 0.58427 0.57576 0.5556 0.0
O590 O 0.48495 0.58555 0.50936 0.0
O591 O 0.49128 0.54006 0.47042 0.0
H592 H 0.58955 0.47243 0.52641 0.0
H593 H 0.63621 0.43782 0.54438 0.0
H594 H 0.57934 0.3508 0.47632 0.0
H595 H 0.52942 0.38437 0.46218 0.0
H596 H 0.45865 0.66639 0.62114 0.0
H597 H 0.43841 0.71469 0.58868 0.0
H598 H 0.52658 0.71324 0.5052 0.0
H599 H 0.54689 0.66462 0.5375 0.0
Sm600 Sm 1.01351 0.50362 0.06025 0.0
Sm601 Sm 1.01362 0.56155 1.01738 0.0
C602 C 0.03464 0.44993 0.09426 0.0
C603 C 0.07186 0.43908 0.09668 0.0
C604 C 0.10298 0.45558 0.07486 0.0
C605 C 0.1385 0.44592 0.07766 0.0
C606 C 0.14374 0.42016 0.10302 0.0
C607 C 0.11269 0.4037 0.12497 0.0
C608 C 0.07696 0.41306 0.12175 0.0
C609 C 0.9755 0.55029 0.10121 0.0
C610 C 0.08911 0.56784 0.06617 0.0
C611 C 0.99437 0.6161 0.98333 0.0
C612 C 0.9578 0.62636 0.97517 0.0
C613 C 0.92417 0.61048 0.99373 0.0
C614 C 0.88975 0.62103 0.98676 0.0
C615 C 0.88814 0.64677 0.96009 0.0
C616 C 0.92166 0.66217 0.94098 0.0
C617 C 0.95628 0.65218 0.94865 0.0
C618 C 0.05219 0.51481 0.97699 0.0
C619 C 0.93779 0.4975 1.01109 0.0
O620 O 1.01921 0.44718 0.06138 0.0
O621 O 0.03208 0.47959 0.11107 0.0
O622 O 1.00574 0.55878 0.08141 0.0
O623 O 0.96399 0.51636 0.09826 0.0
O624 O 0.07645 0.53354 0.06795 0.0
O625 O 0.06824 0.58713 0.0491 0.0
O626 O 1.00328 0.61652 1.01851 0.0
O627 O 1.00157 0.58829 0.96553 0.0
O628 O 0.02147 0.50642 0.99616 0.0
O629 O 0.06432 0.54859 0.98107 0.0
O630 O 0.95095 0.53164 1.00824 0.0
O631 O 0.9582 0.47832 1.0291 0.0
H632 H 0.09999 0.47608 0.05575 0.0
H633 H 0.16203 0.45886 0.06045 0.0
H634 H 0.11619 0.38367 0.14464 0.0
H635 H 0.05344 0.40021 0.13902 0.0
H636 H 0.92441 0.58992 1.01361 0.0
H637 H 0.86428 0.60881 1.00179 0.0
H638 H 0.921 0.6821 0.9203 0.0
H639 H 0.98183 0.66459 0.93387 0.0
C640 C 0.2474 0.2266 0.41352 0.0
C641 C 0.24384 0.24399 0.37964 0.0
C642 C 0.17566 0.21957 0.37925 0.0
C643 C 0.18044 0.19782 0.40939 0.0
N644 N 0.22139 0.17796 0.45377 0.0
N645 N 0.20567 0.25145 0.32616 0.0
C646 C 0.2164 0.20081 0.42649 0.0
C647 C 0.20818 0.2393 0.3615 0.0
N648 N 0.28024 0.23495 0.43329 0.0
N649 N 0.13995 0.22133 0.36756 0.0
H650 H 0.22894 0.26455 0.31089 0.0
H651 H 0.18108 0.24529 0.31035 0.0
H652 H 0.11538 0.20728 0.38021 0.0
H653 H 0.13471 0.2394 0.34805 0.0
H654 H 0.28333 0.22558 0.45991 0.0
H655 H 0.30333 0.25382 0.42438 0.0
H656 H 0.2479 0.17628 0.46428 0.0
H657 H 0.19932 0.15886 0.46411 0.0
C658 C 0.32289 0.85098 0.85713 0.0
C659 C 0.35111 0.85723 0.82851 0.0
C660 C 0.39658 0.88911 0.87318 0.0
C661 C 0.36608 0.88978 0.8988 0.0
N662 N 0.30121 0.86913 0.91803 0.0
N663 N 0.41521 0.88232 0.80851 0.0
C664 C 0.32962 0.86935 0.89194 0.0
C665 C 0.38846 0.87543 0.83653 0.0
N666 N 0.28965 0.82799 0.85049 0.0
N667 N 0.43307 0.90256 0.88355 0.0
H668 H 0.41072 0.87279 0.78118 0.0
H669 H 0.44117 0.89944 0.81167 0.0
H670 H 0.4399 0.91359 0.90996 0.0
H671 H 0.45683 0.89971 0.86736 0.0
H672 H 0.26875 0.82028 0.87084 0.0
H673 H 0.28449 0.81429 0.82505 0.0
H674 H 0.27282 0.85816 0.91332 0.0
H675 H 0.30619 0.88111 0.94438 0.0
C676 C 0.58062 0.43349 0.66593 0.0
C677 C 0.59002 0.45114 0.70105 0.0
C678 C 0.57645 0.5056 0.67147 0.0
C679 C 0.56216 0.48702 0.63804 0.0
N680 N 0.54308 0.42906 0.60947 0.0
N681 N 0.58607 0.50307 0.73841 0.0
C682 C 0.56221 0.44978 0.637 0.0
C683 C 0.58461 0.48687 0.70402 0.0
N684 N 0.59056 0.40151 0.65915 0.0
N685 N 0.58477 0.54156 0.67193 0.0
H686 H 0.59006 0.49018 0.76292 0.0
H687 H 0.57887 0.52775 0.74294 0.0
H688 H 0.58297 0.55649 0.64837 0.0
H689 H 0.59834 0.55629 0.69422 0.0
H690 H 0.58843 0.38914 0.63286 0.0
H691 H 0.60456 0.38911 0.67866 0.0
H692 H 0.53924 0.40165 0.60925 0.0
H693 H 0.52713 0.43858 0.58943 0.0
C694 C 0.93785 0.62291 0.16194 0.0
C695 C 0.93985 0.6108 0.19923 0.0
C696 C 0.96956 0.56189 0.17257 0.0
C697 C 0.96466 0.57221 0.1351 0.0
N698 N 0.9415 0.61179 0.09454 0.0
N699 N 0.95466 0.56612 0.2392 0.0
C700 C 0.94831 0.60272 0.13009 0.0
C701 C 0.95473 0.57944 0.20412 0.0
N702 N 0.92605 0.65408 0.15685 0.0
N703 N 0.9906 0.53649 0.17832 0.0
H704 H 0.94652 0.579 0.26306 0.0
H705 H 0.96023 0.54122 0.2445 0.0
H706 H 1.00305 0.52415 0.15651 0.0
H707 H 0.99907 0.53011 0.20457 0.0
H708 H 0.92812 0.66701 0.13147 0.0
H709 H 0.91585 0.66821 0.1787 0.0
H710 H 0.92575 0.63082 0.08804 0.0
H711 H 0.94993 0.59849 0.0712 0.0
C712 C 0.49285 0.16438 0.1522 0.0
C713 C 0.45578 0.1717 0.14811 0.0
C714 C 0.44278 0.12516 0.10016 0.0
C715 C 0.47764 0.11418 0.10811 0.0
N716 N 0.53192 0.11971 0.14867 0.0
N717 N 0.39192 0.15185 0.12559 0.0
C718 C 0.50174 0.13285 0.13602 0.0
C719 C 0.42967 0.14996 0.12433 0.0
N720 N 0.51982 0.18779 0.17086 0.0
N721 N 0.42286 0.11378 0.06858 0.0
H722 H 0.38047 0.16853 0.14399 0.0
H723 H 0.37139 0.13395 0.11129 0.0
H724 H 0.43201 0.09778 0.04801 0.0
H725 H 0.3994 0.12401 0.06043 0.0
H726 H 0.54829 0.18534 0.17153 0.0
H727 H 0.51448 0.21142 0.18246 0.0
H728 H 0.54801 0.13068 0.17145 0.0
H729 H 0.5382 0.09564 0.1395 0.0
C730 C 0.1893 1.00359 0.55949 0.0
C731 C 0.18125 0.97683 0.5866 0.0
C732 C 0.1158 0.986 0.59195 0.0
C733 C 0.12166 1.00762 0.56015 0.0
N734 N 0.16473 0.03921 0.51435 0.0
N735 N 0.13455 0.9374 0.62294 0.0
C736 C 0.15868 1.01696 0.54394 0.0
C737 C 0.14385 0.96659 0.6013 0.0
N738 N 0.2262 1.01723 0.54987 0.0
N739 N 0.0841 0.98466 0.614 0.0
H740 H 0.15382 0.92128 0.62919 0.0
H741 H 0.10668 0.92707 0.6312 0.0
H742 H 0.06463 1.001 0.61008 0.0
H743 H 0.08009 0.97118 0.63913 0.0
H744 H 0.23418 0.03911 0.53305 0.0
H745 H 0.24928 1.00855 0.56133 0.0
H746 H 0.18958 0.04321 0.49814 0.0
H747 H 0.14443 0.05321 0.50542 0.0
C748 C 0.86642 0.43585 0.94681 0.0
C749 C 0.83211 0.44905 0.95263 0.0
C750 C 0.86633 0.49282 0.99841 0.0
C751 C 0.90106 0.48056 0.99134 0.0
N752 N 0.93527 0.44532 0.95197 0.0
N753 N 0.80121 0.49382 0.98006 0.0
C754 C 0.90129 0.45331 0.96376 0.0
C755 C 0.83278 0.47879 0.97714 0.0
N756 N 0.86573 0.40616 0.92514 0.0
N757 N 0.86482 0.51674 1.02688 0.0
H758 H 0.77604 0.48365 0.9662 0.0
H759 H 0.80076 0.51778 0.99378 0.0
H760 H 0.88817 0.52695 0.04338 0.0
H761 H 0.83984 0.5243 0.03635 0.0
H762 H 0.88796 0.39225 0.92374 0.0
H763 H 0.84192 0.39414 0.91013 0.0
H764 H 0.93813 0.42882 0.92911 0.0
H765 H 0.96135 0.45778 0.96266 0.0
C766 C 0.65399 0.61894 0.44491 0.0
C767 C 0.68822 0.6063 0.45076 0.0
C768 C 0.65441 0.56704 0.4998 0.0
C769 C 0.62101 0.58164 0.49581 0.0
N770 N 0.59286 0.62759 0.47003 0.0
N771 N 0.72234 0.57144 0.48747 0.0
C772 C 0.62183 0.60912 0.46965 0.0
C773 C 0.68868 0.58109 0.47919 0.0
N774 N 0.65184 0.63996 0.4151 0.0
N775 N 0.65315 0.53902 0.52275 0.0
H776 H 0.74762 0.58071 0.47288 0.0
H777 H 0.72596 0.5564 0.51045 0.0
H778 H 0.62934 0.52893 0.53911 0.0
H779 H 0.67455 0.5242 0.5237 0.0
H780 H 0.62659 0.64684 0.40665 0.0
H781 H 0.67468 0.64805 0.39677 0.0
H782 H 0.5933 0.65017 0.45455 0.0
H783 H 0.57021 0.62264 0.48903 0.0
C784 C 0.21877 0.3628 0.10659 0.0
C785 C 0.24989 0.38675 0.12214 0.0
C786 C 0.2124 0.43376 0.12288 0.0
C787 C 0.18161 0.40997 0.10657 0.0
N788 N 0.15942 0.3553 0.07324 0.0
N789 N 0.27991 0.44656 0.13622 0.0
C790 C 0.18614 0.37559 0.09524 0.0
C791 C 0.24785 0.42284 0.1272 0.0
N792 N 0.21924 0.32751 0.10478 0.0
N793 N 0.20724 0.466 0.13617 0.0
H794 H 0.30622 0.43914 0.13936 0.0
H795 H 0.28124 0.47372 0.13698 0.0
H796 H 0.18163 0.47487 0.13409 0.0
H797 H 0.22736 0.48289 0.15193 0.0
H798 H 0.19548 0.30853 0.09803 0.0
H799 H 0.24239 0.31677 0.11277 0.0
H800 H 0.16303 0.3314 0.06103 0.0
H801 H 0.13533 0.36401 0.06411 0.0
C802 C 0.59283 0.16916 0.9402 0.0
C803 C 0.56867 0.19322 0.93072 0.0
C804 C 0.51424 0.14798 0.95301 0.0
C805 C 0.53862 0.12673 0.96855 0.0
N806 N 0.60359 0.12175 0.97999 0.0
N807 N 0.5059 0.20694 0.93817 0.0
C808 C 0.57863 0.13865 0.96287 0.0
C809 C 0.52929 0.18295 0.94007 0.0
N810 N 0.62913 0.17432 0.92617 0.0
N811 N 0.47661 0.13422 0.94813 0.0
H812 H 0.51568 0.23314 0.93107 0.0
H813 H 0.47782 0.20179 0.94797 0.0
H814 H 0.465 0.10778 0.95249 0.0
H815 H 0.45836 0.1476 0.93438 0.0
H816 H 0.6469 0.15609 0.9289 0.0
H817 H 0.64002 0.19485 0.90828 0.0
H818 H 0.63277 0.1315 0.98056 0.0
H819 H 0.59488 0.09974 0.9964 0.0
C820 C 0.96741 0.89095 0.42205 0.0
C821 C 0.9497 0.86134 0.44334 0.0
C822 C 0.95808 0.9006 0.49975 0.0
C823 C 0.98022 0.92902 0.47952 0.0
N824 N 1.01441 0.94518 0.42149 0.0
N825 N 0.9408 0.83724 0.50531 0.0
C826 C 0.98735 0.92243 0.44066 0.0
C827 C 0.94919 0.86599 0.48305 0.0
N828 N 0.96401 0.89009 0.38409 0.0
N829 N 0.9429 0.9066 0.53405 0.0
H830 H 0.93629 0.8115 0.49452 0.0
H831 H 0.94294 0.83905 0.53437 0.0
H832 H 0.94425 0.93174 0.54559 0.0
H833 H 0.92428 0.88717 0.54842 0.0
H834 H 0.97317 0.91214 0.3677 0.0
H835 H 0.94857 0.86863 0.36949 0.0
H836 H 0.02278 0.94006 0.39416 0.0
H837 H 0.03189 0.96663 0.43421 0.0
C838 C 0.45237 0.80079 0.51405 0.0
C839 C 0.41354 0.78667 0.50854 0.0
C840 C 0.42713 0.72727 0.50561 0.0
C841 C 0.46293 0.74089 0.52178 0.0
N842 N 0.51285 0.79021 0.53618 0.0
N843 N 0.36482 0.73872 0.48954 0.0
C844 C 0.47713 0.77766 0.52321 0.0
C845 C 0.40158 0.75056 0.49987 0.0
N846 N 0.46428 0.83642 0.513 0.0
N847 N 0.41733 0.69199 0.49776 0.0
H848 H 0.34654 0.7562 0.4847 0.0
H849 H 0.35244 0.71231 0.48594 0.0
H850 H 0.43594 0.67471 0.50206 0.0
H851 H 0.39235 0.6802 0.48465 0.0
H852 H 0.49257 0.84897 0.51505 0.0
H853 H 0.44548 0.8531 0.50692 0.0
H854 H 0.5236 0.81675 0.54155 0.0
H855 H 0.53161 0.77366 0.54257 0.0
C856 C 0.77658 0.8492 0.64714 0.0
C857 C 0.76021 0.85875 0.68132 0.0
C858 C 0.8108 0.91072 0.68731 0.0
C859 C 0.83036 0.89791 0.65685 0.0
N860 N 0.83334 0.85468 0.60778 0.0
N861 N 0.76467 0.89605 0.73714 0.0
C862 C 0.81347 0.86727 0.63636 0.0
C863 C 0.77775 0.88913 0.70207 0.0
N864 N 0.75677 0.82286 0.62525 0.0
N865 N 0.82389 0.9436 0.70214 0.0
H866 H 0.74099 0.8808 0.74993 0.0
H867 H 0.77935 0.91527 0.7551 0.0
H868 H 0.84828 0.96015 0.69209 0.0
H869 H 0.80855 0.95576 0.72183 0.0
H870 H 0.76555 0.81647 0.59848 0.0
H871 H 0.7297 0.80934 0.63276 0.0
H872 H 0.82439 0.83043 0.59437 0.0
H873 H 0.86015 0.86763 0.59884 0.0
C874 C 0.75055 0.21318 0.17834 0.0
C875 C 0.73134 0.21426 0.21322 0.0
C876 C 0.67239 0.18244 0.18575 0.0
C877 C 0.69334 0.17565 0.15333 0.0
N878 N 0.75138 0.1851 0.1169 0.0
N879 N 0.67458 0.19772 0.2516 0.0
C880 C 0.73209 0.1917 0.14881 0.0
C881 C 0.69217 0.19898 0.21719 0.0
N882 N 0.78637 0.23254 0.1738 0.0
N883 N 0.6337 0.17225 0.18679 0.0
H884 H 0.6878 0.2091 0.27578 0.0
H885 H 0.64764 0.18295 0.25696 0.0
H886 H 0.6183 0.15912 0.16459 0.0
H887 H 0.61651 0.17974 0.20814 0.0
H888 H 0.801 0.23518 0.14828 0.0
H889 H 0.80031 0.24838 0.19523 0.0
H890 H 0.78068 0.19254 0.11336 0.0
H891 H 0.73788 0.17085 0.09421 0.0
C892 C 0.4531 0.6425 0.40801 0.0
C893 C 0.43625 0.62199 0.37677 0.0
C894 C 0.44314 0.56865 0.41285 0.0
C895 C 0.46457 0.58904 0.44185 0.0
N896 N 0.49787 0.64755 0.45877 0.0
N897 N 0.42766 0.56443 0.3469 0.0
C898 C 0.47171 0.62658 0.43705 0.0
C899 C 0.43499 0.58477 0.37856 0.0
N900 N 0.45021 0.67715 0.41129 0.0
N901 N 0.4285 0.53387 0.41832 0.0
H902 H 0.42451 0.57506 0.32085 0.0
H903 H 0.42959 0.53784 0.34575 0.0
H904 H 0.43037 0.52156 0.44366 0.0
H905 H 0.41014 0.51864 0.39945 0.0
H906 H 0.45998 0.69296 0.43436 0.0
H907 H 0.43451 0.68915 0.393 0.0
H908 H 0.50781 0.67405 0.45313 0.0
H909 H 0.51293 0.63777 0.47927 0.0
C910 C 0.07445 0.48466 0.8742 0.0
C911 C 0.09076 0.45427 0.88009 0.0
C912 C 0.07668 0.46068 0.94838 0.0
C913 C 0.06381 0.49304 0.94314 0.0
N914 N 0.05134 0.53598 0.89937 0.0
N915 N 0.11214 0.41663 0.92439 0.0
C916 C 0.06325 0.50507 0.90553 0.0
C917 C 0.09295 0.4432 0.91767 0.0
N918 N 0.0677 0.49308 0.83833 0.0
N919 N 0.07276 0.44607 0.9829 0.0
H920 H 0.12448 0.40348 0.9031 0.0
H921 H 0.11882 0.4097 0.95108 0.0
H922 H 0.06148 0.45814 1.00553 0.0
H923 H 0.0774 0.42088 0.98835 0.0
H924 H 0.05198 0.51204 0.8315 0.0
H925 H 0.07525 0.47907 0.81502 0.0
H926 H 0.05555 0.54924 0.87418 0.0
H927 H 0.03815 0.54916 0.9199 0.0
C928 C 0.5882 0.92885 0.92119 0.0
C929 C 0.56861 0.89372 0.92631 0.0
C930 C 0.5216 0.91542 0.96662 0.0
C931 C 0.5398 0.95084 0.95934 0.0
N932 N 0.58328 0.99037 0.9203 0.0
N933 N 0.51122 0.85444 0.94528 0.0
C934 C 0.57085 0.95724 0.9336 0.0
C935 C 0.53349 0.8873 0.9462 0.0
N936 N 0.62416 0.93526 0.90612 0.0
N937 N 0.49494 0.90801 0.99462 0.0
H938 H 0.51904 0.83327 0.93049 0.0
H939 H 0.48349 0.8492 0.95597 0.0
H940 H 0.48588 0.92695 1.01172 0.0
H941 H 0.48434 0.88246 1.00343 0.0
H942 H 0.64102 0.96036 0.90536 0.0
H943 H 0.63866 0.91531 0.89781 0.0
H944 H 0.60363 0.99583 0.89895 0.0
H945 H 0.57012 1.01155 0.9275 0.0
C946 C 0.87936 0.06301 0.47109 0.0
C947 C 0.8864 0.10038 0.47225 0.0
C948 C 0.93103 0.10101 0.52304 0.0
C949 C 0.92838 0.06411 0.51839 0.0
N950 N 0.90066 1.00937 0.48728 0.0
N951 N 0.9261 0.15492 0.49262 0.0
C952 C 0.90294 0.0449 0.49192 0.0
C953 C 0.91426 0.11937 0.49634 0.0
N954 N 0.84913 0.04487 0.45163 0.0
N955 N 0.94904 0.11882 0.55301 0.0
H956 H 0.91586 0.16935 0.47211 0.0
H957 H 0.94912 0.16931 0.50709 0.0
H958 H 0.96325 0.10735 0.57301 0.0
H959 H 0.94723 0.14488 0.55961 0.0
H960 H 0.84011 1.01769 0.45288 0.0
H961 H 0.83099 0.0573 0.43651 0.0
H962 H 0.88651 0.99483 0.46519 0.0
H963 H 0.91409 0.99445 0.50479 0.0
C964 C 0.15989 0.62989 0.13037 0.0
C965 C 0.19442 0.61717 0.12434 0.0
C966 C 0.16062 0.57304 0.07878 0.0
C967 C 0.12567 0.58481 0.08606 0.0
N968 N 0.09097 0.61917 0.12605 0.0
N969 N 0.22586 0.57268 0.09715 0.0
C970 C 0.12512 0.61189 0.11378 0.0
C971 C 0.19408 0.58741 0.09997 0.0
N972 N 0.16028 0.65968 0.15181 0.0
N973 N 0.16246 0.54932 0.05019 0.0
H974 H 0.2509 0.58304 0.11114 0.0
H975 H 0.22655 0.54873 0.0835 0.0
H976 H 0.13921 0.53896 0.03363 0.0
H977 H 0.18761 0.54212 0.04067 0.0
H978 H 0.1377 0.67317 0.15332 0.0
H979 H 0.18416 0.67223 0.1664 0.0
H980 H 0.08807 0.63559 0.14897 0.0
H981 H 0.06493 0.60611 0.11582 0.0
C982 C 0.37731 0.45557 0.63509 0.0
C983 C 0.3422 0.46634 0.62829 0.0
C984 C 0.37506 0.5067 0.57979 0.0
C985 C 0.40938 0.49376 0.58446 0.0
N986 N 0.44025 0.45025 0.61189 0.0
N987 N 0.30658 0.49896 0.59051 0.0
C988 C 0.40974 0.46679 0.61102 0.0
C989 C 0.34087 0.49109 0.59962 0.0
N990 N 0.37997 0.43502 0.66517 0.0
N991 N 0.37539 0.53482 0.55718 0.0
H992 H 0.28131 0.48861 0.60462 0.0
H993 H 0.30258 0.51352 0.56726 0.0
H994 H 0.39953 0.54672 0.54219 0.0
H995 H 0.35285 0.5482 0.55555 0.0
H996 H 0.40562 0.42958 0.67442 0.0
H997 H 0.35694 0.42581 0.68291 0.0
H998 H 0.44071 0.42799 0.62762 0.0
H999 H 0.46375 0.45643 0.59401 0.0
C1000 C 0.78704 0.64646 0.92725 0.0
C1001 C 0.78714 0.68316 0.92751 0.0
C1002 C 0.84831 0.69372 0.95947 0.0
C1003 C 0.85159 0.65816 0.95221 0.0
N1004 N 0.82511 0.60093 0.92558 0.0
N1005 N 0.82029 0.74265 0.94055 0.0
C1006 C 0.821 0.63436 0.9356 0.0
C1007 C 0.81816 0.7071 0.94323 0.0
N1008 N 0.75444 0.62327 0.91874 0.0
N1009 N 0.87382 0.7146 0.98219 0.0
H1010 H 0.79925 0.75389 0.92855 0.0
H1011 H 0.84448 0.76102 0.94755 0.0
H1012 H 0.89588 0.70541 0.99507 0.0
H1013 H 0.87072 0.73972 0.99129 0.0
H1014 H 0.75155 0.59608 0.92127 0.0
H1015 H 0.72912 0.63157 0.91283 0.0
H1016 H 0.80519 0.58379 0.90984 0.0
H1017 H 0.84986 0.59121 0.93004 0.0
C1018 C 0.43098 0.89809 0.13062 0.0
C1019 C 0.45571 0.87444 0.13973 0.0
C1020 C 0.50913 0.91978 0.11582 0.0
C1021 C 0.48405 0.94053 0.1006 0.0
N1022 N 0.41859 0.94477 0.09072 0.0
N1023 N 0.51855 0.86121 0.13093 0.0
C1024 C 0.44425 0.92834 0.10733 0.0
C1025 C 0.4948 0.88491 0.12936 0.0
N1026 N 0.39505 0.89281 0.14559 0.0
N1027 N 0.54676 0.93397 0.11992 0.0
H1028 H 0.50924 0.83508 0.13852 0.0
H1029 H 0.54637 0.8665 0.12043 0.0
H1030 H 0.55791 0.96047 0.11536 0.0
H1031 H 0.56552 0.92093 0.13336 0.0
H1032 H 0.37698 0.91082 0.14312 0.0
H1033 H 0.38485 0.8725 0.16396 0.0
H1034 H 0.38946 0.93474 0.09088 0.0
H1035 H 0.42664 0.96672 0.07411 0.0
C1036 C 0.06548 0.19986 0.61108 0.0
C1037 C 0.09157 0.20177 0.64087 0.0
C1038 C 0.09077 0.13748 0.63155 0.0
C1039 C 0.06422 0.13514 0.60168 0.0
N1040 N 0.03161 0.16715 0.55933 0.0
N1041 N 0.12389 0.17118 0.6837 0.0
C1042 C 0.05299 0.1672 0.59058 0.0
C1043 C 0.10255 0.17013 0.65228 0.0
N1044 N 0.05135 0.22936 0.60324 0.0
N1045 N 0.10775 0.10933 0.63795 0.0
H1046 H 0.13332 0.19443 0.69893 0.0
H1047 H 0.1294 0.14885 0.69664 0.0
H1048 H 0.10265 0.08614 0.62191 0.0
H1049 H 0.13011 0.11008 0.65627 0.0
H1050 H 0.02873 0.22958 0.58549 0.0
H1051 H 0.06011 0.25346 0.61714 0.0
H1052 H 0.02719 0.18986 0.54642 0.0
H1053 H 1.01998 0.14461 0.54428 0.0
C1054 C 0.7087 0.36617 0.50864 0.0
C1055 C 0.69772 0.32989 0.5158 0.0
C1056 C 0.63445 0.33928 0.53464 0.0
C1057 C 0.6427 0.37276 0.51774 0.0
N1058 N 0.68789 0.41716 0.48511 0.0
N1059 N 0.65007 0.2811 0.53664 0.0
C1060 C 0.68016 0.3865 0.50455 0.0
C1061 C 0.66079 0.31626 0.53002 0.0
N1062 N 0.7463 0.38042 0.50368 0.0
N1063 N 0.60151 0.32961 0.55483 0.0
H1064 H 0.66887 0.26358 0.53433 0.0
H1065 H 0.62209 0.2691 0.54257 0.0
H1066 H 0.58205 0.34636 0.5591 0.0
H1067 H 0.59547 0.30665 0.57031 0.0
H1068 H 0.75638 0.40738 0.50105 0.0
H1069 H 0.76747 0.36538 0.5062 0.0
H1070 H 0.71395 0.42612 0.47181 0.0
H1071 H 0.66744 0.43199 0.47891 0.0
loop_
_geom_bond_atom_site_label_1
_geom_bond_atom_site_label_2
_geom_bond_distance
_geom_bond_site_symmetry_2
_ccdc_geom_bond_type
C0 C1 1.391 . S
C0 C4 1.391 . S
C0 H42 0.948 . S
C1 C0 1.391 . S
C1 C2 1.391 . S
C2 C1 1.391 . S
C2 H58 0.947 . S
C2 C59 1.392 . S
C3 C4 1.391 . S
C3 C7 1.397 . S
C3 C59 1.419 . S
C4 C0 1.391 . S
C4 C3 1.391 . S
C4 C5 1.399 . S
C5 C4 1.399 . S
C5 C8 1.396 . S
C5 C17 1.453 . S
C5 C18 1.684 . S
H6 C30 0.948 . S
C7 C3 1.397 . S
C7 C8 1.394 . S
C7 C26 1.723 . S
C8 C5 1.396 . S
C8 C7 1.394 . S
C8 C38 1.723 . S
H9 C32 0.947 . S
H10 C33 0.948 . S
H11 C39 0.982 . S
H12 C40 0.979 . S
H13 C40 0.980 . S
H14 C40 0.983 . S
H15 C39 0.979 . S
H16 C39 0.977 . S
C17 C5 1.453 . S
C17 H46 0.982 . S
C17 H47 0.979 . S
C17 H48 0.977 . S
C18 C5 1.684 . S
C18 H43 0.979 . S
C18 H44 0.980 . S
C18 H45 0.983 . S
C19 C20 1.391 . S
C19 C24 1.391 . S
C19 H49 0.948 . S
C20 C19 1.391 . S
C20 C21 1.391 . S
C21 C20 1.391 . S
C21 C22 1.392 . S
C21 H50 0.947 . S
C22 C21 1.392 . S
C22 C23 1.419 . S
C22 H51 0.948 . S
C23 C22 1.419 . S
C23 C24 1.391 . S
C23 C27 1.397 . S
C24 C19 1.391 . S
C24 C23 1.391 . S
C24 C25 1.399 . S
C25 C24 1.399 . S
C25 C26 1.396 . S
C25 C28 1.453 . S
C25 C29 1.684 . S
C26 C7 1.723 . S
C26 C25 1.396 . S
C26 C27 1.394 . S
C27 C23 1.397 . S
C27 C26 1.394 . S
C27 C37 1.723 . S
C28 C25 1.453 . S
C28 H52 0.982 . S
C28 H53 0.979 . S
C28 H54 0.977 . S
C29 C25 1.684 . S
C29 H55 0.979 . S
C29 H56 0.980 . S
C29 H57 0.983 . S
C30 H6 0.948 . S
C30 C31 1.391 . S
C30 C35 1.391 . S
C31 C30 1.391 . S
C31 C32 1.391 . S
C32 H9 0.947 . S
C32 C31 1.391 . S
C32 C33 1.392 . S
C33 H10 0.948 . S
C33 C32 1.392 . S
C33 C34 1.419 . S
C34 C33 1.419 . S
C34 C35 1.391 . S
C34 C38 1.397 . S
C35 C30 1.391 . S
C35 C34 1.391 . S
C35 C36 1.399 . S
C36 C35 1.399 . S
C36 C37 1.396 . S
C36 C39 1.453 . S
C36 C40 1.684 . S
C37 C27 1.723 . S
C37 C36 1.396 . S
C37 C38 1.394 . S
C38 C8 1.723 . S
C38 C34 1.397 . S
C38 C37 1.394 . S
C39 H11 0.982 . S
C39 H15 0.979 . S
C39 H16 0.977 . S
C39 C36 1.453 . S
C40 H12 0.979 . S
C40 H13 0.980 . S
C40 H14 0.983 . S
C40 C36 1.684 . S
H41 C59 0.948 . S
H42 C0 0.948 . S
H43 C18 0.979 . S
H44 C18 0.980 . S
H45 C18 0.983 . S
H46 C17 0.982 . S
H47 C17 0.979 . S
H48 C17 0.977 . S
H49 C19 0.948 . S
H50 C21 0.947 . S
H51 C22 0.948 . S
H52 C28 0.982 . S
H53 C28 0.979 . S
H54 C28 0.977 . S
H55 C29 0.979 . S
H56 C29 0.980 . S
H57 C29 0.983 . S
H58 C2 0.947 . S
C59 C2 1.392 . S
C59 C3 1.419 . S
C59 H41 0.948 . S
C60 C61 1.391 . S
C60 C64 1.391 . S
C60 H102 0.948 . S
C61 C60 1.391 . S
C61 C62 1.391 . S
C62 C61 1.391 . S
C62 H118 0.947 . S
C62 C119 1.392 . S
C63 C64 1.391 . S
C63 C67 1.397 . S
C63 C119 1.419 . S
C64 C60 1.391 . S
C64 C63 1.391 . S
C64 C65 1.399 . S
C65 C64 1.399 . S
C65 C68 1.396 . S
C65 C77 1.453 . S
C65 C78 1.684 . S
H66 C90 0.948 . S
C67 C63 1.397 . S
C67 C68 1.394 . S
C67 C86 1.723 . S
C68 C65 1.396 . S
C68 C67 1.394 . S
C68 C98 1.723 . S
H69 C92 0.947 . S
H70 C93 0.948 . S
H71 C99 0.982 . S
H72 C100 0.979 . S
H73 C100 0.980 . S
H74 C100 0.983 . S
H75 C99 0.979 . S
H76 C99 0.977 . S
C77 C65 1.453 . S
C77 H106 0.982 . S
C77 H107 0.979 . S
C77 H108 0.977 . S
C78 C65 1.684 . S
C78 H103 0.979 . S
C78 H104 0.980 . S
C78 H105 0.983 . S
C79 C80 1.391 . S
C79 C84 1.391 . S
C79 H109 0.948 . S
C80 C79 1.391 . S
C80 C81 1.391 . S
C81 C80 1.391 . S
C81 C82 1.392 . S
C81 H110 0.947 . S
C82 C81 1.392 . S
C82 C83 1.419 . S
C82 H111 0.948 . S
C83 C82 1.419 . S
C83 C84 1.391 . S
C83 C87 1.397 . S
C84 C79 1.391 . S
C84 C83 1.391 . S
C84 C85 1.399 . S
C85 C84 1.399 . S
C85 C86 1.396 . S
C85 C88 1.453 . S
C85 C89 1.684 . S
C86 C67 1.723 . S
C86 C85 1.396 . S
C86 C87 1.394 . S
C87 C83 1.397 . S
C87 C86 1.394 . S
C87 C97 1.723 . S
C88 C85 1.453 . S
C88 H112 0.982 . S
C88 H113 0.979 . S
C88 H114 0.977 . S
C89 C85 1.684 . S
C89 H115 0.979 . S
C89 H116 0.980 . S
C89 H117 0.983 . S
C90 H66 0.948 . S
C90 C91 1.391 . S
C90 C95 1.391 . S
C91 C90 1.391 . S
C91 C92 1.391 . S
C92 H69 0.947 . S
C92 C91 1.391 . S
C92 C93 1.392 . S
C93 H70 0.948 . S
C93 C92 1.392 . S
C93 C94 1.419 . S
C94 C93 1.419 . S
C94 C95 1.391 . S
C94 C98 1.397 . S
C95 C90 1.391 . S
C95 C94 1.391 . S
C95 C96 1.399 . S
C96 C95 1.399 . S
C96 C97 1.396 . S
C96 C99 1.453 . S
C96 C100 1.684 . S
C97 C87 1.723 . S
C97 C96 1.396 . S
C97 C98 1.394 . S
C98 C68 1.723 . S
C98 C94 1.397 . S
C98 C97 1.394 . S
C99 H71 0.982 . S
C99 H75 0.979 . S
C99 H76 0.977 . S
C99 C96 1.453 . S
C100 H72 0.979 . S
C100 H73 0.980 . S
C100 H74 0.983 . S
C100 C96 1.684 . S
H101 C119 0.948 . S
H102 C60 0.948 . S
H103 C78 0.979 . S
H104 C78 0.980 . S
H105 C78 0.983 . S
H106 C77 0.982 . S
H107 C77 0.979 . S
H108 C77 0.977 . S
H109 C79 0.948 . S
H110 C81 0.947 . S
H111 C82 0.948 . S
H112 C88 0.982 . S
H113 C88 0.979 . S
H114 C88 0.977 . S
H115 C89 0.979 . S
H116 C89 0.980 . S
H117 C89 0.983 . S
H118 C62 0.947 . S
C119 C62 1.392 . S
C119 C63 1.419 . S
C119 H101 0.948 . S
C120 C121 1.391 . S
C120 C124 1.391 . S
C120 H162 0.948 . S
C121 C120 1.391 . S
C121 C122 1.391 . S
C122 C121 1.391 . S
C122 H178 0.947 . S
C122 C179 1.392 . S
C123 C124 1.391 . S
C123 C127 1.397 . S
C123 C179 1.419 . S
C124 C120 1.391 . S
C124 C123 1.391 . S
C124 C125 1.399 . S
C125 C124 1.399 . S
C125 C128 1.396 . S
C125 C137 1.453 . S
C125 C138 1.684 . S
H126 C150 0.948 . S
C127 C123 1.397 . S
C127 C128 1.394 . S
C127 C146 1.723 . S
C128 C125 1.396 . S
C128 C127 1.394 . S
C128 C158 1.723 . S
H129 C152 0.947 . S
H130 C153 0.948 . S
H131 C159 0.982 . S
H132 C160 0.979 . S
H133 C160 0.980 . S
H134 C160 0.983 . S
H135 C159 0.979 . S
H136 C159 0.977 . S
C137 C125 1.453 . S
C137 H166 0.982 . S
C137 H167 0.979 . S
C137 H168 0.977 . S
C138 C125 1.684 . S
C138 H163 0.979 . S
C138 H164 0.980 . S
C138 H165 0.983 . S
C139 C140 1.391 . S
C139 C144 1.391 . S
C139 H169 0.948 . S
C140 C139 1.391 . S
C140 C141 1.391 . S
C141 C140 1.391 . S
C141 C142 1.392 . S
C141 H170 0.947 . S
C142 C141 1.392 . S
C142 C143 1.419 . S
C142 H171 0.948 . S
C143 C142 1.419 . S
C143 C144 1.391 . S
C143 C147 1.397 . S
C144 C139 1.391 . S
C144 C143 1.391 . S
C144 C145 1.399 . S
C145 C144 1.399 . S
C145 C146 1.396 . S
C145 C148 1.453 . S
C145 C149 1.684 . S
C146 C127 1.723 . S
C146 C145 1.396 . S
C146 C147 1.394 . S
C147 C143 1.397 . S
C147 C146 1.394 . S
C147 C157 1.723 . S
C148 C145 1.453 . S
C148 H172 0.982 . S
C148 H173 0.979 . S
C148 H174 0.977 . S
C149 C145 1.684 . S
C149 H175 0.979 . S
C149 H176 0.980 . S
C149 H177 0.983 . S
C150 H126 0.948 . S
C150 C151 1.391 . S
C150 C155 1.391 . S
C151 C150 1.391 . S
C151 C152 1.391 . S
C152 H129 0.947 . S
C152 C151 1.391 . S
C152 C153 1.392 . S
C153 H130 0.948 . S
C153 C152 1.392 . S
C153 C154 1.419 . S
C154 C153 1.419 . S
C154 C155 1.391 . S
C154 C158 1.397 . S
C155 C150 1.391 . S
C155 C154 1.391 . S
C155 C156 1.399 . S
C156 C155 1.399 . S
C156 C157 1.396 . S
C156 C159 1.453 . S
C156 C160 1.684 . S
C157 C147 1.723 . S
C157 C156 1.396 . S
C157 C158 1.394 . S
C158 C128 1.723 . S
C158 C154 1.397 . S
C158 C157 1.394 . S
C159 H131 0.982 . S
C159 H135 0.979 . S
C159 H136 0.977 . S
C159 C156 1.453 . S
C160 H132 0.979 . S
C160 H133 0.980 . S
C160 H134 0.983 . S
C160 C156 1.684 . S
H161 C179 0.948 . S
H162 C120 0.948 . S
H163 C138 0.979 . S
H164 C138 0.980 . S
H165 C138 0.983 . S
H166 C137 0.982 . S
H167 C137 0.979 . S
H168 C137 0.977 . S
H169 C139 0.948 . S
H170 C141 0.947 . S
H171 C142 0.948 . S
H172 C148 0.982 . S
H173 C148 0.979 . S
H174 C148 0.977 . S
H175 C149 0.979 . S
H176 C149 0.980 . S
H177 C149 0.983 . S
H178 C122 0.947 . S
C179 C122 1.392 . S
C179 C123 1.419 . S
C179 H161 0.948 . S
C180 C181 1.391 . S
C180 C184 1.391 . S
C180 H222 0.948 . S
C181 C180 1.391 . S
C181 C182 1.391 . S
C182 C181 1.391 . S
C182 H238 0.947 . S
C182 C239 1.392 . S
C183 C184 1.391 . S
C183 C187 1.397 . S
C183 C239 1.419 . S
C184 C180 1.391 . S
C184 C183 1.391 . S
C184 C185 1.399 . S
C185 C184 1.399 . S
C185 C188 1.396 . S
C185 C197 1.453 . S
C185 C198 1.684 . S
H186 C210 0.948 . S
C187 C183 1.397 . S
C187 C188 1.394 . S
C187 C206 1.723 . S
C188 C185 1.396 . S
C188 C187 1.394 . S
C188 C218 1.723 . S
H189 C212 0.947 . S
H190 C213 0.948 . S
H191 C219 0.982 . S
H192 C220 0.979 . S
H193 C220 0.980 . S
H194 C220 0.983 . S
H195 C219 0.979 . S
H196 C219 0.977 . S
C197 C185 1.453 . S
C197 H226 0.982 . S
C197 H227 0.979 . S
C197 H228 0.977 . S
C198 C185 1.684 . S
C198 H223 0.979 . S
C198 H224 0.980 . S
C198 H225 0.983 . S
C199 C200 1.391 . S
C199 C204 1.391 . S
C199 H229 0.948 . S
C200 C199 1.391 . S
C200 C201 1.391 . S
C201 C200 1.391 . S
C201 C202 1.392 . S
C201 H230 0.947 . S
C202 C201 1.392 . S
C202 C203 1.419 . S
C202 H231 0.948 . S
C203 C202 1.419 . S
C203 C204 1.391 . S
C203 C207 1.397 . S
C204 C199 1.391 . S
C204 C203 1.391 . S
C204 C205 1.399 . S
C205 C204 1.399 . S
C205 C206 1.396 . S
C205 C208 1.453 . S
C205 C209 1.684 . S
C206 C187 1.723 . S
C206 C205 1.396 . S
C206 C207 1.394 . S
C207 C203 1.397 . S
C207 C206 1.394 . S
C207 C217 1.723 . S
C208 C205 1.453 . S
C208 H232 0.982 . S
C208 H233 0.979 . S
C208 H234 0.977 . S
C209 C205 1.684 . S
C209 H235 0.979 . S
C209 H236 0.980 . S
C209 H237 0.983 . S
C210 H186 0.948 . S
C210 C211 1.391 . S
C210 C215 1.391 . S
C211 C210 1.391 . S
C211 C212 1.391 . S
C212 H189 0.947 . S
C212 C211 1.391 . S
C212 C213 1.392 . S
C213 H190 0.948 . S
C213 C212 1.392 . S
C213 C214 1.419 . S
C214 C213 1.419 . S
C214 C215 1.391 . S
C214 C218 1.397 . S
C215 C210 1.391 . S
C215 C214 1.391 . S
C215 C216 1.399 . S
C216 C215 1.399 . S
C216 C217 1.396 . S
C216 C219 1.453 . S
C216 C220 1.684 . S
C217 C207 1.723 . S
C217 C216 1.396 . S
C217 C218 1.394 . S
C218 C188 1.723 . S
C218 C214 1.397 . S
C218 C217 1.394 . S
C219 H191 0.982 . S
C219 H195 0.979 . S
C219 H196 0.977 . S
C219 C216 1.453 . S
C220 H192 0.979 . S
C220 H193 0.980 . S
C220 H194 0.983 . S
C220 C216 1.684 . S
H221 C239 0.948 . S
H222 C180 0.948 . S
H223 C198 0.979 . S
H224 C198 0.980 . S
H225 C198 0.983 . S
H226 C197 0.982 . S
H227 C197 0.979 . S
H228 C197 0.977 . S
H229 C199 0.948 . S
H230 C201 0.947 . S
H231 C202 0.948 . S
H232 C208 0.982 . S
H233 C208 0.979 . S
H234 C208 0.977 . S
H235 C209 0.979 . S
H236 C209 0.980 . S
H237 C209 0.983 . S
H238 C182 0.947 . S
C239 C182 1.392 . S
C239 C183 1.419 . S
C239 H221 0.948 . S
C240 C241 1.391 . S
C240 C244 1.391 . S
C240 H282 0.948 . S
C241 C240 1.391 . S
C241 C242 1.391 . S
C242 C241 1.391 . S
C242 H298 0.947 . S
C242 C299 1.392 . S
C243 C244 1.391 . S
C243 C247 1.397 . S
C243 C299 1.419 . S
C244 C240 1.391 . S
C244 C243 1.391 . S
C244 C245 1.399 . S
C245 C244 1.399 . S
C245 C248 1.396 . S
C245 C257 1.453 . S
C245 C258 1.684 . S
H246 C270 0.948 . S
C247 C243 1.397 . S
C247 C248 1.394 . S
C247 C266 1.723 . S
C248 C245 1.396 . S
C248 C247 1.394 . S
C248 C278 1.723 . S
H249 C272 0.947 . S
H250 C273 0.948 . S
H251 C279 0.982 . S
H252 C280 0.979 . S
H253 C280 0.980 . S
H254 C280 0.983 . S
H255 C279 0.979 . S
H256 C279 0.977 . S
C257 C245 1.453 . S
C257 H286 0.982 . S
C257 H287 0.979 . S
C257 H288 0.977 . S
C258 C245 1.684 . S
C258 H283 0.979 . S
C258 H284 0.980 . S
C258 H285 0.983 . S
C259 C260 1.391 . S
C259 C264 1.391 . S
C259 H289 0.948 . S
C260 C259 1.391 . S
C260 C261 1.391 . S
C261 C260 1.391 . S
C261 C262 1.392 . S
C261 H290 0.947 . S
C262 C261 1.392 . S
C262 C263 1.419 . S
C262 H291 0.948 . S
C263 C262 1.419 . S
C263 C264 1.391 . S
C263 C267 1.397 . S
C264 C259 1.391 . S
C264 C263 1.391 . S
C264 C265 1.399 . S
C265 C264 1.399 . S
C265 C266 1.396 . S
C265 C268 1.453 . S
C265 C269 1.684 . S
C266 C247 1.723 . S
C266 C265 1.396 . S
C266 C267 1.394 . S
C267 C263 1.397 . S
C267 C266 1.394 . S
C267 C277 1.723 . S
C268 C265 1.453 . S
C268 H292 0.982 . S
C268 H293 0.979 . S
C268 H294 0.977 . S
C269 C265 1.684 . S
C269 H295 0.979 . S
C269 H296 0.980 . S
C269 H297 0.983 . S
C270 H246 0.948 . S
C270 C271 1.391 . S
C270 C275 1.391 . S
C271 C270 1.391 . S
C271 C272 1.391 . S
C272 H249 0.947 . S
C272 C271 1.391 . S
C272 C273 1.392 . S
C273 H250 0.948 . S
C273 C272 1.392 . S
C273 C274 1.419 . S
C274 C273 1.419 . S
C274 C275 1.391 . S
C274 C278 1.397 . S
C275 C270 1.391 . S
C275 C274 1.391 . S
C275 C276 1.399 . S
C276 C275 1.399 . S
C276 C277 1.396 . S
C276 C279 1.453 . S
C276 C280 1.684 . S
C277 C267 1.723 . S
C277 C276 1.396 . S
C277 C278 1.394 . S
C278 C248 1.723 . S
C278 C274 1.397 . S
C278 C277 1.394 . S
C279 H251 0.982 . S
C279 H255 0.979 . S
C279 H256 0.977 . S
C279 C276 1.453 . S
C280 H252 0.979 . S
C280 H253 0.980 . S
C280 H254 0.983 . S
C280 C276 1.684 . S
H281 C299 0.948 . S
H282 C240 0.948 . S
H283 C258 0.979 . S
H284 C258 0.980 . S
H285 C258 0.983 . S
H286 C257 0.982 . S
H287 C257 0.979 . S
H288 C257 0.977 . S
H289 C259 0.948 . S
H290 C261 0.947 . S
H291 C262 0.948 . S
H292 C268 0.982 . S
H293 C268 0.979 . S
H294 C268 0.977 . S
H295 C269 0.979 . S
H296 C269 0.980 . S
H297 C269 0.983 . S
H298 C242 0.947 . S
C299 C242 1.392 . S
C299 C243 1.419 . S
C299 H281 0.948 . S
C300 C301 1.391 . S
C300 C304 1.391 . S
C300 H342 0.948 . S
C301 C300 1.391 . S
C301 C302 1.391 . S
C302 C301 1.391 . S
C302 H358 0.947 . S
C302 C359 1.392 . S
C303 C304 1.391 . S
C303 C307 1.397 . S
C303 C359 1.419 . S
C304 C300 1.391 . S
C304 C303 1.391 . S
C304 C305 1.399 . S
C305 C304 1.399 . S
C305 C308 1.396 . S
C305 C317 1.453 . S
C305 C318 1.684 . S
H306 C330 0.948 . S
C307 C303 1.397 . S
C307 C308 1.394 . S
C307 C326 1.723 . S
C308 C305 1.396 . S
C308 C307 1.394 . S
C308 C338 1.723 . S
H309 C332 0.947 . S
H310 C333 0.948 . S
H311 C339 0.982 . S
H312 C340 0.979 . S
H313 C340 0.980 . S
H314 C340 0.983 . S
H315 C339 0.979 . S
H316 C339 0.977 . S
C317 C305 1.453 . S
C317 H346 0.982 . S
C317 H347 0.979 . S
C317 H348 0.977 . S
C318 C305 1.684 . S
C318 H343 0.979 . S
C318 H344 0.980 . S
C318 H345 0.983 . S
C319 C320 1.391 . S
C319 C324 1.391 . S
C319 H349 0.948 . S
C320 C319 1.391 . S
C320 C321 1.391 . S
C321 C320 1.391 . S
C321 C322 1.392 . S
C321 H350 0.947 . S
C322 C321 1.392 . S
C322 C323 1.419 . S
C322 H351 0.948 . S
C323 C322 1.419 . S
C323 C324 1.391 . S
C323 C327 1.397 . S
C324 C319 1.391 . S
C324 C323 1.391 . S
C324 C325 1.399 . S
C325 C324 1.399 . S
C325 C326 1.396 . S
C325 C328 1.453 . S
C325 C329 1.684 . S
C326 C307 1.723 . S
C326 C325 1.396 . S
C326 C327 1.394 . S
C327 C323 1.397 . S
C327 C326 1.394 . S
C327 C337 1.723 . S
C328 C325 1.453 . S
C328 H352 0.982 . S
C328 H353 0.979 . S
C328 H354 0.977 . S
C329 C325 1.684 . S
C329 H355 0.979 . S
C329 H356 0.980 . S
C329 H357 0.983 . S
C330 H306 0.948 . S
C330 C331 1.391 . S
C330 C335 1.391 . S
C331 C330 1.391 . S
C331 C332 1.391 . S
C332 H309 0.947 . S
C332 C331 1.391 . S
C332 C333 1.392 . S
C333 H310 0.948 . S
C333 C332 1.392 . S
C333 C334 1.419 . S
C334 C333 1.419 . S
C334 C335 1.391 . S
C334 C338 1.397 . S
C335 C330 1.391 . S
C335 C334 1.391 . S
C335 C336 1.399 . S
C336 C335 1.399 . S
C336 C337 1.396 . S
C336 C339 1.453 . S
C336 C340 1.684 . S
C337 C327 1.723 . S
C337 C336 1.396 . S
C337 C338 1.394 . S
C338 C308 1.723 . S
C338 C334 1.397 . S
C338 C337 1.394 . S
C339 H311 0.982 . S
C339 H315 0.979 . S
C339 H316 0.977 . S
C339 C336 1.453 . S
C340 H312 0.979 . S
C340 H313 0.980 . S
C340 H314 0.983 . S
C340 C336 1.684 . S
H341 C359 0.948 . S
H342 C300 0.948 . S
H343 C318 0.979 . S
H344 C318 0.980 . S
H345 C318 0.983 . S
H346 C317 0.982 . S
H347 C317 0.979 . S
H348 C317 0.977 . S
H349 C319 0.948 . S
H350 C321 0.947 . S
H351 C322 0.948 . S
H352 C328 0.982 . S
H353 C328 0.979 . S
H354 C328 0.977 . S
H355 C329 0.979 . S
H356 C329 0.980 . S
H357 C329 0.983 . S
H358 C302 0.947 . S
C359 C302 1.392 . S
C359 C303 1.419 . S
C359 H341 0.948 . S
C360 C361 1.391 . S
C360 C364 1.391 . S
C360 H402 0.948 . S
C361 C360 1.391 . S
C361 C362 1.391 . S
C362 C361 1.391 . S
C362 H418 0.947 . S
C362 C419 1.392 . S
C363 C364 1.391 . S
C363 C367 1.397 . S
C363 C419 1.419 . S
C364 C360 1.391 . S
C364 C363 1.391 . S
C364 C365 1.399 . S
C365 C364 1.399 . S
C365 C368 1.396 . S
C365 C377 1.453 . S
C365 C378 1.684 . S
H366 C390 0.948 . S
C367 C363 1.397 . S
C367 C368 1.394 . S
C367 C386 1.723 . S
C368 C365 1.396 . S
C368 C367 1.394 . S
C368 C398 1.723 . S
H369 C392 0.947 . S
H370 C393 0.948 . S
H371 C399 0.982 . S
H372 C400 0.979 . S
H373 C400 0.980 . S
H374 C400 0.983 . S
H375 C399 0.979 . S
H376 C399 0.977 . S
C377 C365 1.453 . S
C377 H406 0.982 . S
C377 H407 0.979 . S
C377 H408 0.977 . S
C378 C365 1.684 . S
C378 H403 0.979 . S
C378 H404 0.980 . S
C378 H405 0.983 . S
C379 C380 1.391 . S
C379 C384 1.391 . S
C379 H409 0.948 . S
C380 C379 1.391 . S
C380 C381 1.391 . S
C381 C380 1.391 . S
C381 C382 1.392 . S
C381 H410 0.947 . S
C382 C381 1.392 . S
C382 C383 1.419 . S
C382 H411 0.948 . S
C383 C382 1.419 . S
C383 C384 1.391 . S
C383 C387 1.397 . S
C384 C379 1.391 . S
C384 C383 1.391 . S
C384 C385 1.399 . S
C385 C384 1.399 . S
C385 C386 1.396 . S
C385 C388 1.453 . S
C385 C389 1.684 . S
C386 C367 1.723 . S
C386 C385 1.396 . S
C386 C387 1.394 . S
C387 C383 1.397 . S
C387 C386 1.394 . S
C387 C397 1.723 . S
C388 C385 1.453 . S
C388 H412 0.982 . S
C388 H413 0.979 . S
C388 H414 0.977 . S
C389 C385 1.684 . S
C389 H415 0.979 . S
C389 H416 0.980 . S
C389 H417 0.983 . S
C390 H366 0.948 . S
C390 C391 1.391 . S
C390 C395 1.391 . S
C391 C390 1.391 . S
C391 C392 1.391 . S
C392 H369 0.947 . S
C392 C391 1.391 . S
C392 C393 1.392 . S
C393 H370 0.948 . S
C393 C392 1.392 . S
C393 C394 1.419 . S
C394 C393 1.419 . S
C394 C395 1.391 . S
C394 C398 1.397 . S
C395 C390 1.391 . S
C395 C394 1.391 . S
C395 C396 1.399 . S
C396 C395 1.399 . S
C396 C397 1.396 . S
C396 C399 1.453 . S
C396 C400 1.684 . S
C397 C387 1.723 . S
C397 C396 1.396 . S
C397 C398 1.394 . S
C398 C368 1.723 . S
C398 C394 1.397 . S
C398 C397 1.394 . S
C399 H371 0.982 . S
C399 H375 0.979 . S
C399 H376 0.977 . S
C399 C396 1.453 . S
C400 H372 0.979 . S
C400 H373 0.980 . S
C400 H374 0.983 . S
C400 C396 1.684 . S
H401 C419 0.948 . S
H402 C360 0.948 . S
H403 C378 0.979 . S
H404 C378 0.980 . S
H405 C378 0.983 . S
H406 C377 0.982 . S
H407 C377 0.979 . S
H408 C377 0.977 . S
H409 C379 0.948 . S
H410 C381 0.947 . S
H411 C382 0.948 . S
H412 C388 0.982 . S
H413 C388 0.979 . S
H414 C388 0.977 . S
H415 C389 0.979 . S
H416 C389 0.980 . S
H417 C389 0.983 . S
H418 C362 0.947 . S
C419 C362 1.392 . S
C419 C363 1.419 . S
C419 H401 0.948 . S
C420 C421 1.391 . S
C420 C424 1.391 . S
C420 H462 0.948 . S
C421 C420 1.391 . S
C421 C422 1.391 . S
C422 C421 1.391 . S
C422 H478 0.947 . S
C422 C479 1.392 . S
C423 C424 1.391 . S
C423 C427 1.397 . S
C423 C479 1.419 . S
C424 C420 1.391 . S
C424 C423 1.391 . S
C424 C425 1.399 . S
C425 C424 1.399 . S
C425 C428 1.396 . S
C425 C437 1.453 . S
C425 C438 1.684 . S
H426 C450 0.948 . S
C427 C423 1.397 . S
C427 C428 1.394 . S
C427 C446 1.723 . S
C428 C425 1.396 . S
C428 C427 1.394 . S
C428 C458 1.723 . S
H429 C452 0.947 . S
H430 C453 0.948 . S
H431 C459 0.982 . S
H432 C460 0.979 . S
H433 C460 0.980 . S
H434 C460 0.983 . S
H435 C459 0.979 . S
H436 C459 0.977 . S
C437 C425 1.453 . S
C437 H466 0.982 . S
C437 H467 0.979 . S
C437 H468 0.977 . S
C438 C425 1.684 . S
C438 H463 0.979 . S
C438 H464 0.980 . S
C438 H465 0.983 . S
C439 C440 1.391 . S
C439 C444 1.391 . S
C439 H469 0.948 . S
C440 C439 1.391 . S
C440 C441 1.391 . S
C441 C440 1.391 . S
C441 C442 1.392 . S
C441 H470 0.947 . S
C442 C441 1.392 . S
C442 C443 1.419 . S
C442 H471 0.948 . S
C443 C442 1.419 . S
C443 C444 1.391 . S
C443 C447 1.397 . S
C444 C439 1.391 . S
C444 C443 1.391 . S
C444 C445 1.399 . S
C445 C444 1.399 . S
C445 C446 1.396 . S
C445 C448 1.453 . S
C445 C449 1.684 . S
C446 C427 1.723 . S
C446 C445 1.396 . S
C446 C447 1.394 . S
C447 C443 1.397 . S
C447 C446 1.394 . S
C447 C457 1.723 . S
C448 C445 1.453 . S
C448 H472 0.982 . S
C448 H473 0.979 . S
C448 H474 0.977 . S
C449 C445 1.684 . S
C449 H475 0.979 . S
C449 H476 0.980 . S
C449 H477 0.983 . S
C450 H426 0.948 . S
C450 C451 1.391 . S
C450 C455 1.391 . S
C451 C450 1.391 . S
C451 C452 1.391 . S
C452 H429 0.947 . S
C452 C451 1.391 . S
C452 C453 1.392 . S
C453 H430 0.948 . S
C453 C452 1.392 . S
C453 C454 1.419 . S
C454 C453 1.419 . S
C454 C455 1.391 . S
C454 C458 1.397 . S
C455 C450 1.391 . S
C455 C454 1.391 . S
C455 C456 1.399 . S
C456 C455 1.399 . S
C456 C457 1.396 . S
C456 C459 1.453 . S
C456 C460 1.684 . S
C457 C447 1.723 . S
C457 C456 1.396 . S
C457 C458 1.394 . S
C458 C428 1.723 . S
C458 C454 1.397 . S
C458 C457 1.394 . S
C459 H431 0.982 . S
C459 H435 0.979 . S
C459 H436 0.977 . S
C459 C456 1.453 . S
C460 H432 0.979 . S
C460 H433 0.980 . S
C460 H434 0.983 . S
C460 C456 1.684 . S
H461 C479 0.948 . S
H462 C420 0.948 . S
H463 C438 0.979 . S
H464 C438 0.980 . S
H465 C438 0.983 . S
H466 C437 0.982 . S
H467 C437 0.979 . S
H468 C437 0.977 . S
H469 C439 0.948 . S
H470 C441 0.947 . S
H471 C442 0.948 . S
H472 C448 0.982 . S
H473 C448 0.979 . S
H474 C448 0.977 . S
H475 C449 0.979 . S
H476 C449 0.980 . S
H477 C449 0.983 . S
H478 C422 0.947 . S
C479 C422 1.392 . S
C479 C423 1.419 . S
C479 H461 0.948 . S
Sm480 C482 2.846 . S
Sm480 O500 2.543 . S
Sm480 O501 2.450 . S
Sm480 O502 2.681 1_545 S
Sm480 O503 2.464 1_545 S
Sm480 O504 2.396 . S
Sm480 O508 2.386 1_455 S
Sm480 O511 2.408 1_445 S
Sm481 C491 2.846 . S
Sm481 O502 2.386 1_655 S
Sm481 O505 2.408 1_665 S
Sm481 O506 2.543 . S
Sm481 O507 2.450 . S
Sm481 O508 2.681 1_565 S
Sm481 O509 2.464 1_565 S
Sm481 O510 2.396 . S
C482 Sm480 2.846 . S
C482 C483 1.506 . S
C482 O500 1.261 . S
C482 O501 1.242 . S
C483 C482 1.506 . S
C483 C484 1.358 . S
C483 C488 1.382 . S
C484 C483 1.358 . S
C484 C485 1.385 . S
C484 H512 0.930 . S
C485 C484 1.385 . S
C485 C486 1.395 . S
C485 H513 0.929 . S
C486 C485 1.395 . S
C486 C487 1.335 . S
C487 C486 1.335 . S
C487 C488 1.398 . S
C487 H514 0.930 . S
C488 C483 1.382 . S
C488 C487 1.398 . S
C488 H515 0.929 . S
C489 O502 1.271 . S
C489 O503 1.251 . S
C490 O504 1.252 . S
C490 O505 1.272 . S
C491 Sm481 2.846 . S
C491 C492 1.506 . S
C491 O506 1.261 . S
C491 O507 1.242 . S
C492 C491 1.506 . S
C492 C493 1.358 . S
C492 C497 1.382 . S
C493 C492 1.358 . S
C493 C494 1.385 . S
C493 H516 0.930 . S
C494 C493 1.385 . S
C494 C495 1.395 . S
C494 H517 0.929 . S
C495 C494 1.395 . S
C495 C496 1.335 . S
C496 C495 1.335 . S
C496 C497 1.398 . S
C496 H518 0.930 . S
C497 C492 1.382 . S
C497 C496 1.398 . S
C497 H519 0.929 . S
C498 O508 1.271 . S
C498 O509 1.251 . S
C499 O510 1.252 . S
C499 O511 1.272 . S
O500 Sm480 2.543 . S
O500 C482 1.261 . S
O501 Sm480 2.450 . S
O501 C482 1.242 . S
O502 Sm480 2.681 1_565 S
O502 Sm481 2.386 1_455 S
O502 C489 1.271 . S
O503 Sm480 2.464 1_565 S
O503 C489 1.251 . S
O504 Sm480 2.396 . S
O504 C490 1.252 . S
O505 Sm481 2.408 1_445 S
O505 C490 1.272 . S
O506 Sm481 2.543 . S
O506 C491 1.261 . S
O507 Sm481 2.450 . S
O507 C491 1.242 . S
O508 Sm480 2.386 1_655 S
O508 Sm481 2.681 1_545 S
O508 C498 1.271 . S
O509 Sm481 2.464 1_545 S
O509 C498 1.251 . S
O510 Sm481 2.396 . S
O510 C499 1.252 . S
O511 Sm480 2.408 1_665 S
O511 C499 1.272 . S
H512 C484 0.930 . S
H513 C485 0.929 . S
H514 C487 0.930 . S
H515 C488 0.929 . S
H516 C493 0.930 . S
H517 C494 0.929 . S
H518 C496 0.930 . S
H519 C497 0.929 . S
Sm520 C522 2.846 1_565 S
Sm520 O540 2.543 1_565 S
Sm520 O541 2.450 1_565 S
Sm520 O542 2.681 . S
Sm520 O543 2.464 . S
Sm520 O544 2.396 1_565 S
Sm520 O548 2.386 1_564 S
Sm520 O551 2.408 1_554 S
Sm521 C531 2.846 1_545 S
Sm521 O542 2.386 1_546 S
Sm521 O545 2.408 1_556 S
Sm521 O546 2.543 1_545 S
Sm521 O547 2.450 1_545 S
Sm521 O548 2.681 . S
Sm521 O549 2.464 . S
Sm521 O550 2.396 1_545 S
C522 Sm520 2.846 1_545 S
C522 C523 1.506 . S
C522 O540 1.261 . S
C522 O541 1.242 . S
C523 C522 1.506 . S
C523 C524 1.358 . S
C523 C528 1.382 . S
C524 C523 1.358 . S
C524 C525 1.385 . S
C524 H552 0.930 . S
C525 C524 1.385 . S
C525 C526 1.395 . S
C525 H553 0.929 . S
C526 C525 1.395 . S
C526 C527 1.335 . S
C527 C526 1.335 . S
C527 C528 1.398 . S
C527 H554 0.930 . S
C528 C523 1.382 . S
C528 C527 1.398 . S
C528 H555 0.929 . S
C529 O542 1.271 . S
C529 O543 1.251 . S
C530 O544 1.252 . S
C530 O545 1.272 . S
C531 Sm521 2.846 1_565 S
C531 C532 1.506 . S
C531 O546 1.261 . S
C531 O547 1.242 . S
C532 C531 1.506 . S
C532 C533 1.358 . S
C532 C537 1.382 . S
C533 C532 1.358 . S
C533 C534 1.385 . S
C533 H556 0.930 . S
C534 C533 1.385 . S
C534 C535 1.395 . S
C534 H557 0.929 . S
C535 C534 1.395 . S
C535 C536 1.335 . S
C536 C535 1.335 . S
C536 C537 1.398 . S
C536 H558 0.930 . S
C537 C532 1.382 . S
C537 C536 1.398 . S
C537 H559 0.929 . S
C538 O548 1.271 . S
C538 O549 1.251 . S
C539 O550 1.252 . S
C539 O551 1.272 . S
O540 Sm520 2.543 1_545 S
O540 C522 1.261 . S
O541 Sm520 2.450 1_545 S
O541 C522 1.242 . S
O542 Sm520 2.681 . S
O542 Sm521 2.386 1_564 S
O542 C529 1.271 . S
O543 Sm520 2.464 . S
O543 C529 1.251 . S
O544 Sm520 2.396 1_545 S
O544 C530 1.252 . S
O545 Sm521 2.408 1_554 S
O545 C530 1.272 . S
O546 Sm521 2.543 1_565 S
O546 C531 1.261 . S
O547 Sm521 2.450 1_565 S
O547 C531 1.242 . S
O548 Sm520 2.386 1_546 S
O548 Sm521 2.681 . S
O548 C538 1.271 . S
O549 Sm521 2.464 . S
O549 C538 1.251 . S
O550 Sm521 2.396 1_565 S
O550 C539 1.252 . S
O551 Sm520 2.408 1_556 S
O551 C539 1.272 . S
H552 C524 0.930 . S
H553 C525 0.929 . S
H554 C527 0.930 . S
H555 C528 0.929 . S
H556 C533 0.930 . S
H557 C534 0.929 . S
H558 C536 0.930 . S
H559 C537 0.929 . S
Sm560 C562 2.846 . S
Sm560 O580 2.543 . S
Sm560 O581 2.450 . S
Sm560 O582 2.681 . S
Sm560 O583 2.464 . S
Sm560 O584 2.396 . S
Sm560 O588 2.386 . S
Sm560 O591 2.408 . S
Sm561 C571 2.846 . S
Sm561 O582 2.386 . S
Sm561 O585 2.408 . S
Sm561 O586 2.543 . S
Sm561 O587 2.450 . S
Sm561 O588 2.681 . S
Sm561 O589 2.464 . S
Sm561 O590 2.396 . S
C562 Sm560 2.846 . S
C562 C563 1.506 . S
C562 O580 1.261 . S
C562 O581 1.242 . S
C563 C562 1.506 . S
C563 C564 1.358 . S
C563 C568 1.382 . S
C564 C563 1.358 . S
C564 C565 1.385 . S
C564 H592 0.930 . S
C565 C564 1.385 . S
C565 C566 1.395 . S
C565 H593 0.929 . S
C566 C565 1.395 . S
C566 C567 1.335 . S
C567 C566 1.335 . S
C567 C568 1.398 . S
C567 H594 0.930 . S
C568 C563 1.382 . S
C568 C567 1.398 . S
C568 H595 0.929 . S
C569 O582 1.271 . S
C569 O583 1.251 . S
C570 O584 1.252 . S
C570 O585 1.272 . S
C571 Sm561 2.846 . S
C571 C572 1.506 . S
C571 O586 1.261 . S
C571 O587 1.242 . S
C572 C571 1.506 . S
C572 C573 1.358 . S
C572 C577 1.382 . S
C573 C572 1.358 . S
C573 C574 1.385 . S
C573 H596 0.930 . S
C574 C573 1.385 . S
C574 C575 1.395 . S
C574 H597 0.929 . S
C575 C574 1.395 . S
C575 C576 1.335 . S
C576 C575 1.335 . S
C576 C577 1.398 . S
C576 H598 0.930 . S
C577 C572 1.382 . S
C577 C576 1.398 . S
C577 H599 0.929 . S
C578 O588 1.271 . S
C578 O589 1.251 . S
C579 O590 1.252 . S
C579 O591 1.272 . S
O580 Sm560 2.543 . S
O580 C562 1.261 . S
O581 Sm560 2.450 . S
O581 C562 1.242 . S
O582 Sm560 2.681 . S
O582 Sm561 2.386 . S
O582 C569 1.271 . S
O583 Sm560 2.464 . S
O583 C569 1.251 . S
O584 Sm560 2.396 . S
O584 C570 1.252 . S
O585 Sm561 2.408 . S
O585 C570 1.272 . S
O586 Sm561 2.543 . S
O586 C571 1.261 . S
O587 Sm561 2.450 . S
O587 C571 1.242 . S
O588 Sm560 2.386 . S
O588 Sm561 2.681 . S
O588 C578 1.271 . S
O589 Sm561 2.464 . S
O589 C578 1.251 . S
O590 Sm561 2.396 . S
O590 C579 1.252 . S
O591 Sm560 2.408 . S
O591 C579 1.272 . S
H592 C564 0.930 . S
H593 C565 0.929 . S
H594 C567 0.930 . S
H595 C568 0.929 . S
H596 C573 0.930 . S
H597 C574 0.929 . S
H598 C576 0.930 . S
H599 C577 0.929 . S
Sm600 C602 2.846 . S
Sm600 O620 2.543 . S
Sm600 O621 2.450 . S
Sm600 O622 2.681 1_455 S
Sm600 O623 2.464 1_455 S
Sm600 O624 2.396 . S
Sm600 O628 2.386 1_554 S
Sm600 O631 2.408 1_454 S
Sm601 C611 2.846 . S
Sm601 O622 2.386 1_556 S
Sm601 O625 2.408 1_656 S
Sm601 O626 2.543 . S
Sm601 O627 2.450 . S
Sm601 O628 2.681 1_655 S
Sm601 O629 2.464 1_655 S
Sm601 O630 2.396 . S
C602 Sm600 2.846 . S
C602 C603 1.506 . S
C602 O620 1.261 . S
C602 O621 1.242 . S
C603 C602 1.506 . S
C603 C604 1.358 . S
C603 C608 1.382 . S
C604 C603 1.358 . S
C604 C605 1.385 . S
C604 H632 0.930 . S
C605 C604 1.385 . S
C605 C606 1.395 . S
C605 H633 0.929 . S
C606 C605 1.395 . S
C606 C607 1.335 . S
C607 C606 1.335 . S
C607 C608 1.398 . S
C607 H634 0.930 . S
C608 C603 1.382 . S
C608 C607 1.398 . S
C608 H635 0.929 . S
C609 O622 1.271 . S
C609 O623 1.251 . S
C610 O624 1.252 . S
C610 O625 1.272 . S
C611 Sm601 2.846 . S
C611 C612 1.506 . S
C611 O626 1.261 . S
C611 O627 1.242 . S
C612 C611 1.506 . S
C612 C613 1.358 . S
C612 C617 1.382 . S
C613 C612 1.358 . S
C613 C614 1.385 . S
C613 H636 0.930 . S
C614 C613 1.385 . S
C614 C615 1.395 . S
C614 H637 0.929 . S
C615 C614 1.395 . S
C615 C616 1.335 . S
C616 C615 1.335 . S
C616 C617 1.398 . S
C616 H638 0.930 . S
C617 C612 1.382 . S
C617 C616 1.398 . S
C617 H639 0.929 . S
C618 O628 1.271 . S
C618 O629 1.251 . S
C619 O630 1.252 . S
C619 O631 1.272 . S
O620 Sm600 2.543 . S
O620 C602 1.261 . S
O621 Sm600 2.450 . S
O621 C602 1.242 . S
O622 Sm600 2.681 1_655 S
O622 Sm601 2.386 1_554 S
O622 C609 1.271 . S
O623 Sm600 2.464 1_655 S
O623 C609 1.251 . S
O624 Sm600 2.396 . S
O624 C610 1.252 . S
O625 Sm601 2.408 1_454 S
O625 C610 1.272 . S
O626 Sm601 2.543 . S
O626 C611 1.261 . S
O627 Sm601 2.450 . S
O627 C611 1.242 . S
O628 Sm600 2.386 1_556 S
O628 Sm601 2.681 1_455 S
O628 C618 1.271 . S
O629 Sm601 2.464 1_455 S
O629 C618 1.251 . S
O630 Sm601 2.396 . S
O630 C619 1.252 . S
O631 Sm600 2.408 1_656 S
O631 C619 1.272 . S
H632 C604 0.930 . S
H633 C605 0.929 . S
H634 C607 0.930 . S
H635 C608 0.929 . S
H636 C613 0.930 . S
H637 C614 0.929 . S
H638 C616 0.930 . S
H639 C617 0.929 . S
C640 C641 1.363 . S
C640 C646 1.379 . S
C640 N648 1.356 . S
C641 C640 1.363 . S
C641 C647 1.363 . S
C642 C643 1.363 . S
C642 C647 1.379 . S
C642 N649 1.356 . S
C643 C642 1.363 . S
C643 C646 1.363 . S
N644 C646 1.356 . S
N644 H656 0.984 . S
N644 H657 0.985 . S
N645 C647 1.356 . S
N645 H650 0.984 . S
N645 H651 0.985 . S
C646 C640 1.379 . S
C646 C643 1.363 . S
C646 N644 1.356 . S
C647 C641 1.363 . S
C647 C642 1.379 . S
C647 N645 1.356 . S
N648 C640 1.356 . S
N648 H654 0.984 . S
N648 H655 0.984 . S
N649 C642 1.356 . S
N649 H652 0.984 . S
N649 H653 0.985 . S
H650 N645 0.984 . S
H651 N645 0.985 . S
H652 N649 0.984 . S
H653 N649 0.985 . S
H654 N648 0.984 . S
H655 N648 0.984 . S
H656 N644 0.984 . S
H657 N644 0.985 . S
C658 C659 1.363 . S
C658 C664 1.379 . S
C658 N666 1.356 . S
C659 C658 1.363 . S
C659 C665 1.363 . S
C660 C661 1.363 . S
C660 C665 1.379 . S
C660 N667 1.356 . S
C661 C660 1.363 . S
C661 C664 1.363 . S
N662 C664 1.356 . S
N662 H674 0.984 . S
N662 H675 0.985 . S
N663 C665 1.356 . S
N663 H668 0.984 . S
N663 H669 0.985 . S
C664 C658 1.379 . S
C664 C661 1.363 . S
C664 N662 1.356 . S
C665 C659 1.363 . S
C665 C660 1.379 . S
C665 N663 1.356 . S
N666 C658 1.356 . S
N666 H672 0.984 . S
N666 H673 0.984 . S
N667 C660 1.356 . S
N667 H670 0.984 . S
N667 H671 0.985 . S
H668 N663 0.984 . S
H669 N663 0.985 . S
H670 N667 0.984 . S
H671 N667 0.985 . S
H672 N666 0.984 . S
H673 N666 0.984 . S
H674 N662 0.984 . S
H675 N662 0.985 . S
C676 C677 1.363 . S
C676 C682 1.379 . S
C676 N684 1.356 . S
C677 C676 1.363 . S
C677 C683 1.363 . S
C678 C679 1.363 . S
C678 C683 1.379 . S
C678 N685 1.356 . S
C679 C678 1.363 . S
C679 C682 1.363 . S
N680 C682 1.356 . S
N680 H692 0.984 . S
N680 H693 0.985 . S
N681 C683 1.356 . S
N681 H686 0.984 . S
N681 H687 0.985 . S
C682 C676 1.379 . S
C682 C679 1.363 . S
C682 N680 1.356 . S
C683 C677 1.363 . S
C683 C678 1.379 . S
C683 N681 1.356 . S
N684 C676 1.356 . S
N684 H690 0.984 . S
N684 H691 0.984 . S
N685 C678 1.356 . S
N685 H688 0.984 . S
N685 H689 0.985 . S
H686 N681 0.984 . S
H687 N681 0.985 . S
H688 N685 0.984 . S
H689 N685 0.985 . S
H690 N684 0.984 . S
H691 N684 0.984 . S
H692 N680 0.984 . S
H693 N680 0.985 . S
C694 C695 1.363 . S
C694 C700 1.379 . S
C694 N702 1.356 . S
C695 C694 1.363 . S
C695 C701 1.363 . S
C696 C697 1.363 . S
C696 C701 1.379 . S
C696 N703 1.356 . S
C697 C696 1.363 . S
C697 C700 1.363 . S
N698 C700 1.356 . S
N698 H710 0.984 . S
N698 H711 0.985 . S
N699 C701 1.356 . S
N699 H704 0.984 . S
N699 H705 0.985 . S
C700 C694 1.379 . S
C700 C697 1.363 . S
C700 N698 1.356 . S
C701 C695 1.363 . S
C701 C696 1.379 . S
C701 N699 1.356 . S
N702 C694 1.356 . S
N702 H708 0.984 . S
N702 H709 0.984 . S
N703 C696 1.356 . S
N703 H706 0.984 . S
N703 H707 0.985 . S
H704 N699 0.984 . S
H705 N699 0.985 . S
H706 N703 0.984 . S
H707 N703 0.985 . S
H708 N702 0.984 . S
H709 N702 0.984 . S
H710 N698 0.984 . S
H711 N698 0.985 . S
C712 C713 1.363 . S
C712 C718 1.379 . S
C712 N720 1.356 . S
C713 C712 1.363 . S
C713 C719 1.363 . S
C714 C715 1.363 . S
C714 C719 1.379 . S
C714 N721 1.356 . S
C715 C714 1.363 . S
C715 C718 1.363 . S
N716 C718 1.356 . S
N716 H728 0.984 . S
N716 H729 0.985 . S
N717 C719 1.356 . S
N717 H722 0.984 . S
N717 H723 0.985 . S
C718 C712 1.379 . S
C718 C715 1.363 . S
C718 N716 1.356 . S
C719 C713 1.363 . S
C719 C714 1.379 . S
C719 N717 1.356 . S
N720 C712 1.356 . S
N720 H726 0.984 . S
N720 H727 0.984 . S
N721 C714 1.356 . S
N721 H724 0.984 . S
N721 H725 0.985 . S
H722 N717 0.984 . S
H723 N717 0.985 . S
H724 N721 0.984 . S
H725 N721 0.985 . S
H726 N720 0.984 . S
H727 N720 0.984 . S
H728 N716 0.984 . S
H729 N716 0.985 . S
C730 C731 1.363 . S
C730 C736 1.379 . S
C730 N738 1.356 . S
C731 C730 1.363 . S
C731 C737 1.363 . S
C732 C733 1.363 . S
C732 C737 1.379 . S
C732 N739 1.356 . S
C733 C732 1.363 . S
C733 C736 1.363 . S
N734 C736 1.356 . S
N734 H746 0.984 . S
N734 H747 0.985 . S
N735 C737 1.356 . S
N735 H740 0.984 . S
N735 H741 0.985 . S
C736 C730 1.379 . S
C736 C733 1.363 . S
C736 N734 1.356 . S
C737 C731 1.363 . S
C737 C732 1.379 . S
C737 N735 1.356 . S
N738 C730 1.356 . S
N738 H744 0.984 . S
N738 H745 0.984 . S
N739 C732 1.356 . S
N739 H742 0.984 . S
N739 H743 0.985 . S
H740 N735 0.984 . S
H741 N735 0.985 . S
H742 N739 0.984 . S
H743 N739 0.985 . S
H744 N738 0.984 . S
H745 N738 0.984 . S
H746 N734 0.984 . S
H747 N734 0.985 . S
C748 C749 1.363 . S
C748 C754 1.379 . S
C748 N756 1.356 . S
C749 C748 1.363 . S
C749 C755 1.363 . S
C750 C751 1.363 . S
C750 C755 1.379 . S
C750 N757 1.359 . S
C751 C750 1.363 . S
C751 C754 1.363 . S
N752 C754 1.356 . S
N752 H764 0.984 . S
N752 H765 0.985 . S
N753 C755 1.356 . S
N753 H758 0.984 . S
N753 H759 0.985 . S
C754 C748 1.379 . S
C754 C751 1.363 . S
C754 N752 1.356 . S
C755 C749 1.363 . S
C755 C750 1.379 . S
C755 N753 1.356 . S
N756 C748 1.356 . S
N756 H762 0.984 . S
N756 H763 0.984 . S
N757 C750 1.359 . S
N757 H760 0.984 1_556 S
N757 H761 0.982 1_556 S
H758 N753 0.984 . S
H759 N753 0.985 . S
H760 N757 0.984 1_554 S
H761 N757 0.982 1_554 S
H762 N756 0.984 . S
H763 N756 0.984 . S
H764 N752 0.984 . S
H765 N752 0.985 . S
C766 C767 1.363 . S
C766 C772 1.379 . S
C766 N774 1.356 . S
C767 C766 1.363 . S
C767 C773 1.363 . S
C768 C769 1.363 . S
C768 C773 1.379 . S
C768 N775 1.356 . S
C769 C768 1.363 . S
C769 C772 1.363 . S
N770 C772 1.356 . S
N770 H782 0.984 . S
N770 H783 0.985 . S
N771 C773 1.356 . S
N771 H776 0.984 . S
N771 H777 0.985 . S
C772 C766 1.379 . S
C772 C769 1.363 . S
C772 N770 1.356 . S
C773 C767 1.363 . S
C773 C768 1.379 . S
C773 N771 1.356 . S
N774 C766 1.356 . S
N774 H780 0.984 . S
N774 H781 0.984 . S
N775 C768 1.356 . S
N775 H778 0.984 . S
N775 H779 0.985 . S
H776 N771 0.984 . S
H777 N771 0.985 . S
H778 N775 0.984 . S
H779 N775 0.985 . S
H780 N774 0.984 . S
H781 N774 0.984 . S
H782 N770 0.984 . S
H783 N770 0.985 . S
C784 C785 1.363 . S
C784 C790 1.379 . S
C784 N792 1.356 . S
C785 C784 1.363 . S
C785 C791 1.363 . S
C786 C787 1.363 . S
C786 C791 1.379 . S
C786 N793 1.356 . S
C787 C786 1.363 . S
C787 C790 1.363 . S
N788 C790 1.356 . S
N788 H800 0.984 . S
N788 H801 0.985 . S
N789 C791 1.356 . S
N789 H794 0.984 . S
N789 H795 0.985 . S
C790 C784 1.379 . S
C790 C787 1.363 . S
C790 N788 1.356 . S
C791 C785 1.363 . S
C791 C786 1.379 . S
C791 N789 1.356 . S
N792 C784 1.356 . S
N792 H798 0.984 . S
N792 H799 0.984 . S
N793 C786 1.356 . S
N793 H796 0.984 . S
N793 H797 0.985 . S
H794 N789 0.984 . S
H795 N789 0.985 . S
H796 N793 0.984 . S
H797 N793 0.985 . S
H798 N792 0.984 . S
H799 N792 0.984 . S
H800 N788 0.984 . S
H801 N788 0.985 . S
C802 C803 1.363 . S
C802 C808 1.379 . S
C802 N810 1.356 . S
C803 C802 1.363 . S
C803 C809 1.363 . S
C804 C805 1.363 . S
C804 C809 1.379 . S
C804 N811 1.356 . S
C805 C804 1.363 . S
C805 C808 1.363 . S
N806 C808 1.356 . S
N806 H818 0.984 . S
N806 H819 0.985 . S
N807 C809 1.356 . S
N807 H812 0.984 . S
N807 H813 0.985 . S
C808 C802 1.379 . S
C808 C805 1.363 . S
C808 N806 1.356 . S
C809 C803 1.363 . S
C809 C804 1.379 . S
C809 N807 1.356 . S
N810 C802 1.356 . S
N810 H816 0.984 . S
N810 H817 0.984 . S
N811 C804 1.356 . S
N811 H814 0.984 . S
N811 H815 0.985 . S
H812 N807 0.984 . S
H813 N807 0.985 . S
H814 N811 0.984 . S
H815 N811 0.985 . S
H816 N810 0.984 . S
H817 N810 0.984 . S
H818 N806 0.984 . S
H819 N806 0.985 . S
C820 C821 1.363 . S
C820 C826 1.379 . S
C820 N828 1.356 . S
C821 C820 1.363 . S
C821 C827 1.363 . S
C822 C823 1.363 . S
C822 C827 1.379 . S
C822 N829 1.356 . S
C823 C822 1.363 . S
C823 C826 1.363 . S
N824 C826 1.356 . S
N824 H836 0.966 1_655 S
N824 H837 0.985 . S
N825 C827 1.356 . S
N825 H830 0.984 . S
N825 H831 0.985 . S
C826 C820 1.379 . S
C826 C823 1.363 . S
C826 N824 1.356 . S
C827 C821 1.363 . S
C827 C822 1.379 . S
C827 N825 1.356 . S
N828 C820 1.356 . S
N828 H834 0.984 . S
N828 H835 0.984 . S
N829 C822 1.356 . S
N829 H832 0.984 . S
N829 H833 0.985 . S
H830 N825 0.984 . S
H831 N825 0.985 . S
H832 N829 0.984 . S
H833 N829 0.985 . S
H834 N828 0.984 . S
H835 N828 0.984 . S
H836 N824 0.966 1_455 S
H837 N824 0.985 . S
C838 C839 1.363 . S
C838 C844 1.379 . S
C838 N846 1.356 . S
C839 C838 1.363 . S
C839 C845 1.363 . S
C840 C841 1.363 . S
C840 C845 1.379 . S
C840 N847 1.356 . S
C841 C840 1.363 . S
C841 C844 1.363 . S
N842 C844 1.356 . S
N842 H854 0.984 . S
N842 H855 0.985 . S
N843 C845 1.356 . S
N843 H848 0.984 . S
N843 H849 0.985 . S
C844 C838 1.379 . S
C844 C841 1.363 . S
C844 N842 1.356 . S
C845 C839 1.363 . S
C845 C840 1.379 . S
C845 N843 1.356 . S
N846 C838 1.356 . S
N846 H852 0.984 . S
N846 H853 0.984 . S
N847 C840 1.356 . S
N847 H850 0.984 . S
N847 H851 0.985 . S
H848 N843 0.984 . S
H849 N843 0.985 . S
H850 N847 0.984 . S
H851 N847 0.985 . S
H852 N846 0.984 . S
H853 N846 0.984 . S
H854 N842 0.984 . S
H855 N842 0.985 . S
C856 C857 1.363 . S
C856 C862 1.379 . S
C856 N864 1.356 . S
C857 C856 1.363 . S
C857 C863 1.363 . S
C858 C859 1.363 . S
C858 C863 1.379 . S
C858 N865 1.356 . S
C859 C858 1.363 . S
C859 C862 1.363 . S
N860 C862 1.356 . S
N860 H872 0.984 . S
N860 H873 0.985 . S
N861 C863 1.356 . S
N861 H866 0.984 . S
N861 H867 0.985 . S
C862 C856 1.379 . S
C862 C859 1.363 . S
C862 N860 1.356 . S
C863 C857 1.363 . S
C863 C858 1.379 . S
C863 N861 1.356 . S
N864 C856 1.356 . S
N864 H870 0.984 . S
N864 H871 0.984 . S
N865 C858 1.356 . S
N865 H868 0.984 . S
N865 H869 0.985 . S
H866 N861 0.984 . S
H867 N861 0.985 . S
H868 N865 0.984 . S
H869 N865 0.985 . S
H870 N864 0.984 . S
H871 N864 0.984 . S
H872 N860 0.984 . S
H873 N860 0.985 . S
C874 C875 1.363 . S
C874 C880 1.379 . S
C874 N882 1.356 . S
C875 C874 1.363 . S
C875 C881 1.363 . S
C876 C877 1.363 . S
C876 C881 1.379 . S
C876 N883 1.356 . S
C877 C876 1.363 . S
C877 C880 1.363 . S
N878 C880 1.356 . S
N878 H890 0.984 . S
N878 H891 0.985 . S
N879 C881 1.356 . S
N879 H884 0.984 . S
N879 H885 0.985 . S
C880 C874 1.379 . S
C880 C877 1.363 . S
C880 N878 1.356 . S
C881 C875 1.363 . S
C881 C876 1.379 . S
C881 N879 1.356 . S
N882 C874 1.356 . S
N882 H888 0.984 . S
N882 H889 0.984 . S
N883 C876 1.356 . S
N883 H886 0.984 . S
N883 H887 0.985 . S
H884 N879 0.984 . S
H885 N879 0.985 . S
H886 N883 0.984 . S
H887 N883 0.985 . S
H888 N882 0.984 . S
H889 N882 0.984 . S
H890 N878 0.984 . S
H891 N878 0.985 . S
C892 C893 1.363 . S
C892 C898 1.379 . S
C892 N900 1.356 . S
C893 C892 1.363 . S
C893 C899 1.363 . S
C894 C895 1.363 . S
C894 C899 1.379 . S
C894 N901 1.356 . S
C895 C894 1.363 . S
C895 C898 1.363 . S
N896 C898 1.356 . S
N896 H908 0.984 . S
N896 H909 0.985 . S
N897 C899 1.356 . S
N897 H902 0.984 . S
N897 H903 0.985 . S
C898 C892 1.379 . S
C898 C895 1.363 . S
C898 N896 1.356 . S
C899 C893 1.363 . S
C899 C894 1.379 . S
C899 N897 1.356 . S
N900 C892 1.356 . S
N900 H906 0.984 . S
N900 H907 0.984 . S
N901 C894 1.356 . S
N901 H904 0.984 . S
N901 H905 0.985 . S
H902 N897 0.984 . S
H903 N897 0.985 . S
H904 N901 0.984 . S
H905 N901 0.985 . S
H906 N900 0.984 . S
H907 N900 0.984 . S
H908 N896 0.984 . S
H909 N896 0.985 . S
C910 C911 1.363 . S
C910 C916 1.379 . S
C910 N918 1.356 . S
C911 C910 1.363 . S
C911 C917 1.363 . S
C912 C913 1.363 . S
C912 C917 1.379 . S
C912 N919 1.356 . S
C913 C912 1.363 . S
C913 C916 1.363 . S
N914 C916 1.356 . S
N914 H926 0.984 . S
N914 H927 0.985 . S
N915 C917 1.356 . S
N915 H920 0.984 . S
N915 H921 0.985 . S
C916 C910 1.379 . S
C916 C913 1.363 . S
C916 N914 1.356 . S
C917 C911 1.363 . S
C917 C912 1.379 . S
C917 N915 1.356 . S
N918 C910 1.356 . S
N918 H924 0.984 . S
N918 H925 0.984 . S
N919 C912 1.356 . S
N919 H922 0.984 . S
N919 H923 0.985 . S
H920 N915 0.984 . S
H921 N915 0.985 . S
H922 N919 0.984 . S
H923 N919 0.985 . S
H924 N918 0.984 . S
H925 N918 0.984 . S
H926 N914 0.984 . S
H927 N914 0.985 . S
C928 C929 1.363 . S
C928 C934 1.379 . S
C928 N936 1.356 . S
C929 C928 1.363 . S
C929 C935 1.363 . S
C930 C931 1.363 . S
C930 C935 1.379 . S
C930 N937 1.356 . S
C931 C930 1.363 . S
C931 C934 1.363 . S
N932 C934 1.356 . S
N932 H944 0.984 . S
N932 H945 0.985 . S
N933 C935 1.356 . S
N933 H938 0.984 . S
N933 H939 0.985 . S
C934 C928 1.379 . S
C934 C931 1.363 . S
C934 N932 1.356 . S
C935 C929 1.363 . S
C935 C930 1.379 . S
C935 N933 1.356 . S
N936 C928 1.356 . S
N936 H942 0.984 . S
N936 H943 0.984 . S
N937 C930 1.356 . S
N937 H940 0.984 . S
N937 H941 0.985 . S
H938 N933 0.984 . S
H939 N933 0.985 . S
H940 N937 0.984 . S
H941 N937 0.985 . S
H942 N936 0.984 . S
H943 N936 0.984 . S
H944 N932 0.984 . S
H945 N932 0.985 . S
C946 C947 1.363 . S
C946 C952 1.379 . S
C946 N954 1.356 . S
C947 C946 1.363 . S
C947 C953 1.363 . S
C948 C949 1.363 . S
C948 C953 1.379 . S
C948 N955 1.356 . S
C949 C948 1.363 . S
C949 C952 1.363 . S
N950 C952 1.356 . S
N950 H962 0.984 . S
N950 H963 0.985 . S
N951 C953 1.356 . S
N951 H956 0.984 . S
N951 H957 0.985 . S
C952 C946 1.379 . S
C952 C949 1.363 . S
C952 N950 1.356 . S
C953 C947 1.363 . S
C953 C948 1.379 . S
C953 N951 1.356 . S
N954 C946 1.356 . S
N954 H960 0.984 . S
N954 H961 0.984 . S
N955 C948 1.356 . S
N955 H958 0.984 . S
N955 H959 0.985 . S
H956 N951 0.984 . S
H957 N951 0.985 . S
H958 N955 0.984 . S
H959 N955 0.985 . S
H960 N954 0.984 . S
H961 N954 0.984 . S
H962 N950 0.984 . S
H963 N950 0.985 . S
C964 C965 1.363 . S
C964 C970 1.379 . S
C964 N972 1.356 . S
C965 C964 1.363 . S
C965 C971 1.363 . S
C966 C967 1.363 . S
C966 C971 1.379 . S
C966 N973 1.356 . S
C967 C966 1.363 . S
C967 C970 1.363 . S
N968 C970 1.356 . S
N968 H980 0.984 . S
N968 H981 0.985 . S
N969 C971 1.356 . S
N969 H974 0.984 . S
N969 H975 0.985 . S
C970 C964 1.379 . S
C970 C967 1.363 . S
C970 N968 1.356 . S
C971 C965 1.363 . S
C971 C966 1.379 . S
C971 N969 1.356 . S
N972 C964 1.356 . S
N972 H978 0.984 . S
N972 H979 0.984 . S
N973 C966 1.356 . S
N973 H976 0.984 1_554 S
N973 H977 0.985 1_554 S
H974 N969 0.984 . S
H975 N969 0.985 . S
H976 N973 0.984 1_556 S
H977 N973 0.985 1_556 S
H978 N972 0.984 . S
H979 N972 0.984 . S
H980 N968 0.984 . S
H981 N968 0.985 . S
C982 C983 1.363 . S
C982 C988 1.379 . S
C982 N990 1.356 . S
C983 C982 1.363 . S
C983 C989 1.363 . S
C984 C985 1.363 . S
C984 C989 1.379 . S
C984 N991 1.356 . S
C985 C984 1.363 . S
C985 C988 1.363 . S
N986 C988 1.356 . S
N986 H998 0.984 . S
N986 H999 0.985 . S
N987 C989 1.356 . S
N987 H992 0.984 . S
N987 H993 0.985 . S
C988 C982 1.379 . S
C988 C985 1.363 . S
C988 N986 1.356 . S
C989 C983 1.363 . S
C989 C984 1.379 . S
C989 N987 1.356 . S
N990 C982 1.356 . S
N990 H996 0.984 . S
N990 H997 0.984 . S
N991 C984 1.356 . S
N991 H994 0.984 . S
N991 H995 0.985 . S
H992 N987 0.984 . S
H993 N987 0.985 . S
H994 N991 0.984 . S
H995 N991 0.985 . S
H996 N990 0.984 . S
H997 N990 0.984 . S
H998 N986 0.984 . S
H999 N986 0.985 . S
C1000 C1001 1.363 . S
C1000 C1006 1.379 . S
C1000 N1008 1.356 . S
C1001 C1000 1.363 . S
C1001 C1007 1.363 . S
C1002 C1003 1.363 . S
C1002 C1007 1.379 . S
C1002 N1009 1.356 . S
C1003 C1002 1.363 . S
C1003 C1006 1.363 . S
N1004 C1006 1.356 . S
N1004 H1016 0.984 . S
N1004 H1017 0.985 . S
N1005 C1007 1.356 . S
N1005 H1010 0.984 . S
N1005 H1011 0.985 . S
C1006 C1000 1.379 . S
C1006 C1003 1.363 . S
C1006 N1004 1.356 . S
C1007 C1001 1.363 . S
C1007 C1002 1.379 . S
C1007 N1005 1.356 . S
N1008 C1000 1.356 . S
N1008 H1014 0.984 . S
N1008 H1015 0.984 . S
N1009 C1002 1.356 . S
N1009 H1012 0.984 . S
N1009 H1013 0.985 . S
H1010 N1005 0.984 . S
H1011 N1005 0.985 . S
H1012 N1009 0.984 . S
H1013 N1009 0.985 . S
H1014 N1008 0.984 . S
H1015 N1008 0.984 . S
H1016 N1004 0.984 . S
H1017 N1004 0.985 . S
C1018 C1019 1.363 . S
C1018 C1024 1.379 . S
C1018 N1026 1.356 . S
C1019 C1018 1.363 . S
C1019 C1025 1.363 . S
C1020 C1021 1.363 . S
C1020 C1025 1.379 . S
C1020 N1027 1.356 . S
C1021 C1020 1.363 . S
C1021 C1024 1.363 . S
N1022 C1024 1.356 . S
N1022 H1034 0.984 . S
N1022 H1035 0.985 . S
N1023 C1025 1.356 . S
N1023 H1028 0.984 . S
N1023 H1029 0.985 . S
C1024 C1018 1.379 . S
C1024 C1021 1.363 . S
C1024 N1022 1.356 . S
C1025 C1019 1.363 . S
C1025 C1020 1.379 . S
C1025 N1023 1.356 . S
N1026 C1018 1.356 . S
N1026 H1032 0.984 . S
N1026 H1033 0.984 . S
N1027 C1020 1.356 . S
N1027 H1030 0.984 . S
N1027 H1031 0.985 . S
H1028 N1023 0.984 . S
H1029 N1023 0.985 . S
H1030 N1027 0.984 . S
H1031 N1027 0.985 . S
H1032 N1026 0.984 . S
H1033 N1026 0.984 . S
H1034 N1022 0.984 . S
H1035 N1022 0.985 . S
C1036 C1037 1.363 . S
C1036 C1042 1.379 . S
C1036 N1044 1.356 . S
C1037 C1036 1.363 . S
C1037 C1043 1.363 . S
C1038 C1039 1.363 . S
C1038 C1043 1.379 . S
C1038 N1045 1.356 . S
C1039 C1038 1.363 . S
C1039 C1042 1.363 . S
N1040 C1042 1.356 . S
N1040 H1052 0.984 . S
N1040 H1053 0.985 . S
N1041 C1043 1.356 . S
N1041 H1046 0.984 . S
N1041 H1047 0.985 . S
C1042 C1036 1.379 . S
C1042 C1039 1.363 . S
C1042 N1040 1.356 . S
C1043 C1037 1.363 . S
C1043 C1038 1.379 . S
C1043 N1041 1.356 . S
N1044 C1036 1.356 . S
N1044 H1050 0.984 . S
N1044 H1051 0.984 . S
N1045 C1038 1.356 . S
N1045 H1048 0.984 . S
N1045 H1049 0.985 . S
H1046 N1041 0.984 . S
H1047 N1041 0.985 . S
H1048 N1045 0.984 . S
H1049 N1045 0.985 . S
H1050 N1044 0.984 . S
H1051 N1044 0.984 . S
H1052 N1040 0.984 . S
H1053 N1040 0.985 . S
C1054 C1055 1.363 . S
C1054 C1060 1.379 . S
C1054 N1062 1.356 . S
C1055 C1054 1.363 . S
C1055 C1061 1.363 . S
C1056 C1057 1.363 . S
C1056 C1061 1.379 . S
C1056 N1063 1.356 . S
C1057 C1056 1.363 . S
C1057 C1060 1.363 . S
N1058 C1060 1.356 . S
N1058 H1070 0.984 . S
N1058 H1071 0.985 . S
N1059 C1061 1.356 . S
N1059 H1064 0.984 . S
N1059 H1065 0.985 . S
C1060 C1054 1.379 . S
C1060 C1057 1.363 . S
C1060 N1058 1.356 . S
C1061 C1055 1.363 . S
C1061 C1056 1.379 . S
C1061 N1059 1.356 . S
N1062 C1054 1.356 . S
N1062 H1068 0.984 . S
N1062 H1069 0.984 . S
N1063 C1056 1.356 . S
N1063 H1066 0.984 . S
N1063 H1067 0.985 . S
H1064 N1059 0.984 . S
H1065 N1059 0.985 . S
H1066 N1063 0.984 . S
H1067 N1063 0.985 . S
H1068 N1062 0.984 . S
H1069 N1062 0.984 . S
H1070 N1058 0.984 . S
H1071 N1058 0.985 . S
C641 C1 1.194 . S
C643 C486 1.407 . S
C659 C80 1.019 . S
C661 C535 1.089 . S
C679 C570 2.501 . S
C677 C140 2.496 . S
C695 C211 2.438 . S
C697 C609 2.408 . S
C715 C530 2.619 . S
C713 C31 2.233 . S
C733 C489 0.841 . S
C731 C61 0.835 . S
C751 C619 1.930 . S
C749 C151 1.961 . S
C769 C578 1.716 . S
C767 C200 1.718 . S
C785 C20 1.684 . S
C787 C606 1.823 . S
C805 C538 2.336 . S
C803 C121 2.435 . S
C821 C181 2.305 . S
C823 C499 2.354 . S
C839 C91 1.140 . S
C841 C575 1.123 . S
C859 C495 1.407 . S
C857 C260 1.292 . S
C875 C320 1.019 . S
C877 C526 1.087 . S
C893 C361 2.498 . S
C895 C579 2.501 . S
C911 C451 2.438 . S
C913 C618 2.410 . S
C929 C271 2.331 . S
C931 C539 2.620 . S
C949 C498 0.841 . S
C947 C301 0.835 . S
C967 C610 1.930 . S
C965 C380 1.932 . S
C985 C569 1.716 . S
C983 C440 1.718 . S
C1001 C241 1.551 . S
C1003 C615 1.824 . S
C1021 C529 2.336 . S
C1019 C391 2.431 . S
C1039 C490 2.354 . S
C1037 C421 2.305 . S
C1055 C331 1.140 . S
C1057 C566 1.123 . S
