# Generated by pormake.
# Topology anh, (6,3)-cn, num edge types: 1
# Building blocks:
#     Node 0, Type 0, BuildingBlock: GEDQOX_clean_sbu_0, # of connection points: 6
#     Node 1, Type 0, BuildingBlock: GEDQOX_clean_sbu_0, # of connection points: 6
#     Node 2, Type 0, BuildingBlock: GEDQOX_clean_sbu_0, # of connection points: 6
#     Node 3, Type 1, BuildingBlock: PAMTOO_clean_linker_0, # of connection points: 3
#     Node 4, Type 1, BuildingBlock: PAMTOO_clean_linker_0, # of connection points: 3
#     Node 5, Type 1, BuildingBlock: PAMTOO_clean_linker_0, # of connection points: 3
#     Node 6, Type 1, BuildingBlock: PAMTOO_clean_linker_0, # of connection points: 3
#     Node 7, Type 1, BuildingBlock: PAMTOO_clean_linker_0, # of connection points: 3
#     Node 8, Type 1, BuildingBlock: PAMTOO_clean_linker_0, # of connection points: 3
#     Edge 9, Type (0, 1), BuildingBlock: ZUJKAS_clean_linker_0, # of connection points: 2
#     Edge 10, Type (0, 1), BuildingBlock: ZUJKAS_clean_linker_0, # of connection points: 2
#     Edge 11, Type (0, 1), BuildingBlock: ZUJKAS_clean_linker_0, # of connection points: 2
#     Edge 12, Type (0, 1), BuildingBlock: ZUJKAS_clean_linker_0, # of connection points: 2
#     Edge 13, Type (0, 1), BuildingBlock: ZUJKAS_clean_linker_0, # of connection points: 2
#     Edge 14, Type (0, 1), BuildingBlock: ZUJKAS_clean_linker_0, # of connection points: 2
#     Edge 15, Type (0, 1), BuildingBlock: ZUJKAS_clean_linker_0, # of connection points: 2
#     Edge 16, Type (0, 1), BuildingBlock: ZUJKAS_clean_linker_0, # of connection points: 2
#     Edge 17, Type (0, 1), BuildingBlock: ZUJKAS_clean_linker_0, # of connection points: 2
#     Edge 18, Type (0, 1), BuildingBlock: ZUJKAS_clean_linker_0, # of connection points: 2
#     Edge 19, Type (0, 1), BuildingBlock: ZUJKAS_clean_linker_0, # of connection points: 2
#     Edge 20, Type (0, 1), BuildingBlock: ZUJKAS_clean_linker_0, # of connection points: 2
#     Edge 21, Type (0, 1), BuildingBlock: ZUJKAS_clean_linker_0, # of connection points: 2
#     Edge 22, Type (0, 1), BuildingBlock: ZUJKAS_clean_linker_0, # of connection points: 2
#     Edge 23, Type (0, 1), BuildingBlock: ZUJKAS_clean_linker_0, # of connection points: 2
#     Edge 24, Type (0, 1), BuildingBlock: ZUJKAS_clean_linker_0, # of connection points: 2
#     Edge 25, Type (0, 1), BuildingBlock: ZUJKAS_clean_linker_0, # of connection points: 2
#     Edge 26, Type (0, 1), BuildingBlock: ZUJKAS_clean_linker_0, # of connection points: 2
# Relax obj value: 0.135
# Max RMSD: 0.176
# Mean RMSD: 0.124
data_MOF--net-anh--node1-GEDQOX_clean_sbu_0--node2-PAMTOO_clean_linker_0--edge1-ZUJKAS_clean_linker_0
_symmetry_space_group_name_H-M    P1
_symmetry_Int_Tables_number       1
_symmetry_cell_setting            triclinic
loop_
_symmetry_equiv_pos_as_xyz
'x, y, z'
_cell_length_a     39.465024
_cell_length_b     38.345918
_cell_length_c     64.257849
_cell_angle_alpha  90.004419
_cell_angle_beta   91.40141
_cell_angle_gamma 105.93685
loop_
_atom_site_label
_atom_site_type_symbol
_atom_site_fract_x
_atom_site_fract_y
_atom_site_fract_z
_atom_type_partial_charge
Nd0 Nd 0.11825 0.54855 0.14107 0.0
Nd1 Nd 0.09502 0.46235 0.14882 0.0
C2 C 0.14359 0.61271 0.12414 0.0
C3 C 0.17523 0.64285 0.12868 0.0
C4 C 0.20492 0.63624 0.1386 0.0
C5 C 0.23452 0.66491 0.14358 0.0
C6 C 0.23495 0.70091 0.13896 0.0
C7 C 0.20511 0.70736 0.12893 0.0
C8 C 0.17553 0.67856 0.12384 0.0
C9 C 0.12052 0.53408 0.18316 0.0
C10 C 0.17952 0.50276 0.14715 0.0
C11 C 1.06659 0.39501 0.16109 0.0
C12 C 1.03161 0.37136 0.16607 0.0
C13 C 1.02912 0.34041 0.17815 0.0
C14 C 0.99618 0.3166 0.18219 0.0
C15 C 0.96506 0.32334 0.17419 0.0
C16 C 0.9677 0.35481 0.16234 0.0
C17 C 1.0007 0.37862 0.15832 0.0
C18 C 0.10895 0.48589 0.10893 0.0
C19 C 1.03297 0.50738 0.14365 0.0
O20 O 0.14935 0.58296 0.11679 0.0
O21 O 0.11936 0.60651 0.13834 0.0
O22 O 0.12783 0.56667 0.17573 0.0
O23 O 0.11242 0.51187 0.16831 0.0
O24 O 0.1708 0.53163 0.13966 0.0
O25 O 0.15537 0.47411 0.15426 0.0
O26 O 0.08046 0.42175 0.17406 0.0
O27 O 0.07139 0.40431 0.14155 0.0
O28 O 0.11737 0.45779 0.11641 0.0
O29 O 0.09271 0.49909 0.12206 0.0
O30 O 1.04144 0.47743 0.1495 0.0
O31 O 1.05738 0.53714 0.13806 0.0
H32 H 0.20516 0.60887 0.14262 0.0
H33 H 0.25713 0.65879 0.15099 0.0
H34 H 0.20428 0.73472 0.12539 0.0
H35 H 0.15274 0.68421 0.11635 0.0
H36 H 1.05272 0.33432 0.18419 0.0
H37 H 0.99517 0.29244 0.19115 0.0
H38 H 0.94428 0.36107 0.15618 0.0
H39 H 1.0021 0.40244 0.14897 0.0
Nd40 Nd 0.56844 0.99837 0.51664 0.0
Nd41 Nd 0.64415 0.01847 0.50491 0.0
C42 C 0.50552 0.96874 0.532 0.0
C43 C 0.47754 0.93515 0.52751 0.0
C44 C 0.45303 0.92002 0.54269 0.0
C45 C 0.42638 0.88807 0.53845 0.0
C46 C 0.42372 0.87074 0.5189 0.0
C47 C 0.44864 0.88603 0.5038 0.0
C48 C 0.47537 0.9178 0.5081 0.0
C49 C 0.57858 1.00468 0.4745 0.0
C50 C 0.60819 0.93397 0.50965 0.0
C51 C 0.70654 0.04603 0.48841 0.0
C52 C 0.73394 0.08102 0.48724 0.0
C53 C 0.72648 0.11216 0.47901 0.0
C54 C 0.75332 0.14453 0.47732 0.0
C55 C 0.78801 0.14644 0.48397 0.0
C56 C 0.79521 0.11544 0.49254 0.0
C57 C 0.76847 0.08304 0.49407 0.0
C58 C 0.63367 0.0105 0.54695 0.0
C59 C 0.60555 0.08316 0.51365 0.0
O60 O 0.53467 0.96464 0.54042 0.0
O61 O 0.51122 0.9931 0.51732 0.0
O62 O 0.55463 0.0155 0.4839 0.0
O63 O 0.59503 0.98964 0.48701 0.0
O64 O 0.58363 0.94433 0.51959 0.0
O65 O 0.63244 0.95748 0.4992 0.0
O66 O 0.67666 0.04299 0.47829 0.0
O67 O 0.70244 0.03029 0.50658 0.0
O68 O 0.65706 0.99909 0.53727 0.0
O69 O 0.61764 0.02657 0.53474 0.0
O70 O 0.62993 0.07324 0.50324 0.0
O71 O 0.58118 0.05902 0.5237 0.0
H72 H 0.45453 0.93288 0.55782 0.0
H73 H 0.40805 0.8768 0.55057 0.0
H74 H 0.44721 0.87384 0.48849 0.0
H75 H 0.49423 0.92897 0.49621 0.0
H76 H 0.70004 0.11151 0.47373 0.0
H77 H 0.74695 0.16809 0.47083 0.0
H78 H 0.82174 0.11597 0.49758 0.0
H79 H 0.77487 0.05936 0.50039 0.0
Nd80 Nd 0.55477 0.46463 0.82505 0.0
Nd81 Nd 0.6344 0.4952 0.84411 0.0
C82 C 0.49675 0.44924 0.8016 0.0
C83 C 0.48184 0.46848 0.78567 0.0
C84 C 0.4503 0.45087 0.77519 0.0
C85 C 0.43301 0.47065 0.76258 0.0
C86 C 0.44675 0.5085 0.76065 0.0
C87 C 0.48004 0.5253 0.76978 0.0
C88 C 0.49749 0.50537 0.78209 0.0
C89 C 0.56369 0.46001 0.86751 0.0
C90 C 0.58909 0.55265 0.83248 0.0
C91 C 0.69123 0.51844 0.86814 0.0
C92 C 0.72933 0.53241 0.86462 0.0
C93 C 0.7482 0.51144 0.85453 0.0
C94 C 0.78373 0.52632 0.85008 0.0
C95 C 0.80099 0.56252 0.85548 0.0
C96 C 0.78202 0.58326 0.86574 0.0
C97 C 0.74667 0.56827 0.87037 0.0
C98 C 0.63367 0.49397 0.80101 0.0
C99 C 0.60028 0.40774 0.83484 0.0
O100 O 0.52509 0.44006 0.79652 0.0
O101 O 0.49861 0.46258 0.82054 0.0
O102 O 0.53921 0.43673 0.85685 0.0
O103 O 0.57975 0.48539 0.85604 0.0
O104 O 0.56577 0.52672 0.82199 0.0
O105 O 0.61465 0.54609 0.84422 0.0
O106 O 0.67632 0.4839 0.86442 0.0
O107 O 0.67207 0.53937 0.86157 0.0
O108 O 0.66262 0.50487 0.8121 0.0
O109 O 0.60858 0.48439 0.81312 0.0
O110 O 0.62201 0.43272 0.84685 0.0
O111 O 0.57568 0.41506 0.82264 0.0
H112 H 0.43818 0.42221 0.77753 0.0
H113 H 0.40784 0.45669 0.75538 0.0
H114 H 0.49146 0.55434 0.76884 0.0
H115 H 0.52222 0.5192 0.78977 0.0
H116 H 0.7355 0.4837 0.84984 0.0
H117 H 0.79768 0.50936 0.84251 0.0
H118 H 0.79426 0.61135 0.86987 0.0
H119 H 0.7326 0.58502 0.87806 0.0
H120 H 0.65818 0.06896 0.25496 0.0
H121 H 0.56286 0.98293 0.24413 0.0
H122 H 0.61884 0.03959 0.19244 0.0
H123 H 0.54213 0.01693 0.1827 0.0
C124 C 0.53464 0.99956 0.19663 0.0
O125 O 0.56339 0.98865 0.20373 0.0
H126 H 0.52621 0.01618 0.20866 0.0
C127 C 0.63868 0.05217 0.24435 0.0
C128 C 0.64225 0.05765 0.22278 0.0
C129 C 0.61026 0.02528 0.25236 0.0
C130 C 0.58493 1.00397 0.23842 0.0
C131 C 0.58809 1.00924 0.21692 0.0
C132 C 0.61683 0.03572 0.20911 0.0
H133 H 0.61684 0.58209 0.58185 0.0
H134 H 0.61847 0.47215 0.56993 0.0
H135 H 0.623 0.54522 0.51901 0.0
H136 H 0.58655 0.46447 0.50547 0.0
C137 C 0.5919 0.45491 0.52122 0.0
O138 O 0.62181 0.47893 0.52969 0.0
H139 H 0.5684 0.45386 0.53074 0.0
C140 C 0.61796 0.56089 0.57097 0.0
C141 C 0.62 0.56835 0.5495 0.0
C142 C 0.61764 0.52645 0.57863 0.0
C143 C 0.61899 0.49901 0.56446 0.0
C144 C 0.62046 0.50575 0.54306 0.0
C145 C 0.62111 0.5403 0.53559 0.0
H146 H 0.13507 0.65383 0.90646 0.0
H147 H 0.24341 0.65124 0.90628 0.0
H148 H 0.19569 0.68157 0.85112 0.0
H149 H 0.23112 0.61928 0.8532 0.0
C150 C 0.25688 0.63784 0.85855 0.0
O151 O 0.25234 0.6691 0.86723 0.0
H152 H 0.26818 0.62325 0.87066 0.0
C153 C 0.15988 0.65848 0.89861 0.0
C154 C 0.16178 0.66909 0.87763 0.0
C155 C 0.18896 0.65163 0.9092 0.0
C156 C 0.22088 0.65738 0.89877 0.0
C157 C 0.22309 0.66818 0.87789 0.0
C158 C 0.19375 0.67419 0.86741 0.0
H159 H 1.06631 0.43513 0.40207 0.0
H160 H 0.15114 0.53219 0.41214 0.0
H161 H 0.09646 0.47584 0.46429 0.0
H162 H 0.1151 0.55617 0.4696 0.0
C163 C 0.13574 0.5634 0.45764 0.0
O164 O 0.14561 0.53268 0.45248 0.0
H165 H 0.12452 0.57404 0.44374 0.0
C166 C 0.08354 0.45453 0.41261 0.0
C167 C 0.07839 0.45122 0.43419 0.0
C168 C 0.10968 0.48351 0.40439 0.0
C169 C 0.13075 0.50962 0.41807 0.0
C170 C 0.12563 0.50693 0.43955 0.0
C171 C 0.09973 0.47774 0.4476 0.0
H172 H 0.59937 0.91286 0.76431 0.0
H173 H 0.60892 0.02501 0.77857 0.0
H174 H 0.59959 0.94815 0.82794 0.0
H175 H 0.56963 0.01419 0.83959 0.0
C176 C 0.57935 0.02809 0.82483 0.0
O177 O 0.60797 0.01671 0.81869 0.0
H178 H 0.55748 0.02067 0.81296 0.0
C179 C 0.59998 0.93413 0.77552 0.0
C180 C 0.59817 0.92573 0.79686 0.0
C181 C 0.60375 0.96976 0.76857 0.0
C182 C 0.6064 0.99738 0.78341 0.0
C183 C 0.60502 0.98957 0.80471 0.0
C184 C 0.60093 0.95386 0.81143 0.0
H185 H 0.67523 0.4937 0.08806 0.0
H186 H 0.56535 0.48439 0.09664 0.0
H187 H 0.63688 0.50191 0.14968 0.0
H188 H 0.56177 0.54068 0.12521 0.0
C189 C 0.5557 0.52261 0.13898 0.0
O190 O 0.56924 0.49289 0.13658 0.0
H191 H 0.56938 0.53863 0.15265 0.0
C192 C 0.65386 0.49404 0.09828 0.0
C193 C 0.66086 0.49867 0.11984 0.0
C194 C 0.61965 0.48863 0.08976 0.0
C195 C 0.59178 0.48815 0.10303 0.0
C196 C 0.59756 0.49351 0.12451 0.0
C197 C 0.63226 0.49832 0.13304 0.0
H198 H 0.23758 0.55745 0.13569 0.0
H199 H 0.29926 0.55678 0.1347 0.0
H200 H 0.27091 0.4466 0.15659 0.0
H201 H 0.20909 0.44739 0.15811 0.0
H202 H 0.33021 0.48286 0.17572 0.0
H203 H 0.34716 0.51314 0.09198 0.0
H204 H 0.33334 0.54753 0.10553 0.0
H205 H 0.30453 0.50211 0.10373 0.0
C206 C 0.24426 0.53294 0.14029 0.0
C207 C 0.21777 0.5024 0.1469 0.0
C208 C 0.27983 0.53248 0.13952 0.0
C209 C 0.29032 0.50134 0.14507 0.0
C210 C 0.264 0.47102 0.15203 0.0
H211 H 0.50199 0.47952 0.1137 0.0
H212 H 0.43799 0.47137 0.11552 0.0
C213 C 0.22838 0.47149 0.15289 0.0
C214 C 0.32856 0.50065 0.14404 0.0
H215 H 0.39989 0.51807 0.11216 0.0
C216 C 0.34526 0.49042 0.16173 0.0
C217 C 0.34869 0.50972 0.12578 0.0
C218 C 0.33244 0.51836 0.10562 0.0
C219 C 0.38108 0.48999 0.16188 0.0
C220 C 0.40172 0.50088 0.14395 0.0
C221 C 0.38474 0.5101 0.12607 0.0
C222 C 0.44085 0.50361 0.14353 0.0
C223 C 0.39616 0.47709 0.18126 0.0
C224 C 0.46455 0.52432 0.15856 0.0
C225 C 0.50109 0.52853 0.15765 0.0
C226 C 0.51551 0.51233 0.14164 0.0
C227 C 0.49192 0.49156 0.12657 0.0
C228 C 0.4552 0.48723 0.12752 0.0
H229 H 0.37519 0.45851 0.19037 0.0
H230 H 0.41617 0.46277 0.17745 0.0
H231 H 0.40885 0.50079 0.19134 0.0
H232 H 0.45497 0.5384 0.17072 0.0
H233 H 0.51831 0.54565 0.16919 0.0
H234 H 0.8013 0.1897 0.4497 0.0
H235 H 0.85109 0.24304 0.44445 0.0
H236 H 0.88954 0.23311 0.50697 0.0
H237 H 0.84007 0.1793 0.51219 0.0
H238 H 0.87276 0.3082 0.46395 0.0
H239 H 0.97502 0.2344 0.47334 0.0
H240 H 0.92867 0.2113 0.4708 0.0
H241 H 0.94721 0.231 0.49536 0.0
C242 C 0.8202 0.19907 0.46239 0.0
C243 C 0.81694 0.18018 0.48131 0.0
C244 C 0.84869 0.22948 0.45935 0.0
C245 C 0.87442 0.24167 0.47517 0.0
C246 C 0.87054 0.22363 0.49435 0.0
H247 H 1.0333 0.45229 0.466 0.0
H248 H 0.98492 0.40221 0.47801 0.0
C249 C 0.84222 0.19298 0.49733 0.0
C250 C 0.90539 0.273 0.47139 0.0
H251 H 0.99525 0.29798 0.46941 0.0
C252 C 0.89957 0.30604 0.46519 0.0
C253 C 0.94033 0.26997 0.47279 0.0
C254 C 0.94829 0.23469 0.47824 0.0
C255 C 0.92766 0.33602 0.46017 0.0
C256 C 0.96263 0.33316 0.46191 0.0
C257 C 0.96846 0.30024 0.4683 0.0
C258 C 0.99337 0.36315 0.45581 0.0
C259 C 0.91947 0.36999 0.45232 0.0
C260 C 1.0152 0.35744 0.44 0.0
C261 C 1.04328 0.38575 0.43341 0.0
C262 C 1.05012 0.42051 0.44242 0.0
C263 C 1.0289 0.42587 0.45875 0.0
C264 C 1.0009 0.39739 0.46545 0.0
H265 H 0.89151 0.36466 0.44698 0.0
H266 H 0.92424 0.39034 0.4651 0.0
H267 H 0.93663 0.38191 0.43923 0.0
H268 H 1.0101 0.33116 0.43247 0.0
H269 H 1.05952 0.38041 0.42112 0.0
H270 H 0.62843 0.61218 0.85411 0.0
H271 H 0.62666 0.67504 0.85069 0.0
H272 H 0.54431 0.64288 0.8035 0.0
H273 H 0.54533 0.57972 0.80711 0.0
H274 H 0.64057 0.71768 0.81668 0.0
H275 H 0.50397 0.7055 0.84091 0.0
H276 H 0.52525 0.66995 0.84524 0.0
H277 H 0.50639 0.67523 0.82005 0.0
C278 C 0.60966 0.6183 0.84312 0.0
C279 C 0.58696 0.5907 0.83091 0.0
C280 C 0.60871 0.65435 0.84119 0.0
C281 C 0.58502 0.66373 0.82706 0.0
C282 C 0.56224 0.63628 0.81488 0.0
H283 H 0.55432 0.86389 0.77975 0.0
H284 H 0.55122 0.80104 0.78841 0.0
C285 C 0.56304 0.60012 0.81687 0.0
C286 C 0.58565 0.70245 0.82432 0.0
H287 H 0.53449 0.76135 0.8253 0.0
C288 C 0.61744 0.72727 0.81876 0.0
C289 C 0.55545 0.715 0.82697 0.0
C290 C 0.52092 0.69011 0.83381 0.0
C291 C 0.61968 0.76401 0.81528 0.0
C292 C 0.58943 0.77649 0.81777 0.0
C293 C 0.55768 0.75177 0.82346 0.0
C294 C 0.58994 0.81478 0.81364 0.0
C295 C 0.65415 0.7889 0.80833 0.0
C296 C 0.61209 0.84346 0.8253 0.0
C297 C 0.61408 0.87954 0.8203 0.0
C298 C 0.5939 0.88758 0.80356 0.0
C299 C 0.57071 0.85868 0.79249 0.0
C300 C 0.56872 0.82271 0.7975 0.0
H301 H 0.67221 0.77355 0.80256 0.0
H302 H 0.64965 0.80719 0.7958 0.0
H303 H 0.6675 0.80594 0.82169 0.0
H304 H 0.62824 0.83795 0.83807 0.0
H305 H 0.63224 0.90111 0.82912 0.0
H306 H 0.97495 0.45482 0.15761 0.0
H307 H 0.9126 0.45412 0.15567 0.0
H308 H 0.94063 0.55863 0.12618 0.0
H309 H 1.00295 0.55952 0.128 0.0
H310 H 0.87603 0.50204 0.17199 0.0
H311 H 0.86489 0.4986 0.08585 0.0
H312 H 0.90155 0.48915 0.09985 0.0
H313 H 0.90003 0.53519 0.09625 0.0
C314 C 0.96801 0.47771 0.15064 0.0
C315 C 0.99452 0.50715 0.14284 0.0
C316 C 0.93209 0.4773 0.1496 0.0
C317 C 0.9213 0.50606 0.1405 0.0
C318 C 0.94775 0.53568 0.13295 0.0
H319 H 0.72001 0.55014 0.10814 0.0
H320 H 0.7818 0.55215 0.11482 0.0
C321 C 0.98367 0.53624 0.13412 0.0
C322 C 0.88266 0.50513 0.13886 0.0
H323 H 0.81628 0.50737 0.10381 0.0
C324 C 0.86297 0.50307 0.15705 0.0
C325 C 0.8651 0.50646 0.11946 0.0
C326 C 0.88379 0.50714 0.0992 0.0
C327 C 0.82705 0.50339 0.15642 0.0
C328 C 0.80946 0.5048 0.13698 0.0
C329 C 0.8292 0.50646 0.11881 0.0
C330 C 0.77108 0.50526 0.13489 0.0
C331 C 0.80881 0.50355 0.17675 0.0
C332 C 0.74347 0.47877 0.1442 0.0
C333 C 0.70772 0.47808 0.14068 0.0
C334 C 0.69841 0.5035 0.12748 0.0
C335 C 0.72603 0.53037 0.11859 0.0
C336 C 0.76159 0.53131 0.12228 0.0
H337 H 0.82804 0.51389 0.18975 0.0
H338 H 0.79009 0.52048 0.17582 0.0
H339 H 0.79388 0.47539 0.18056 0.0
H340 H 0.74934 0.45759 0.15354 0.0
H341 H 0.68729 0.45643 0.14736 0.0
H342 H 0.35471 0.85437 0.53056 0.0
H343 H 0.30722 0.79995 0.52208 0.0
H344 H 0.37902 0.75782 0.48683 0.0
H345 H 0.42709 0.81117 0.49615 0.0
H346 H 0.27964 0.7758 0.48444 0.0
H347 H 0.33338 0.67117 0.52158 0.0
H348 H 0.35181 0.719 0.52669 0.0
H349 H 0.36298 0.69869 0.50351 0.0
C350 C 0.36065 0.8332 0.52139 0.0
C351 C 0.39487 0.8372 0.51413 0.0
C352 C 0.33336 0.80221 0.5164 0.0
C353 C 0.33962 0.77451 0.50407 0.0
C354 C 0.37367 0.77841 0.49676 0.0
H355 H 0.20256 0.58446 0.44213 0.0
H356 H 0.25227 0.63523 0.45387 0.0
C357 C 0.40105 0.80926 0.50185 0.0
C358 C 0.31013 0.74244 0.49804 0.0
H359 H 0.28356 0.64973 0.49855 0.0
C360 C 0.28042 0.74827 0.48768 0.0
C361 C 0.31114 0.70646 0.50225 0.0
C362 C 0.34138 0.69839 0.5143 0.0
C363 C 0.252 0.71915 0.48114 0.0
C364 C 0.25327 0.6833 0.48512 0.0
C365 C 0.28285 0.67733 0.49547 0.0
C366 C 0.22387 0.65168 0.47871 0.0
C367 C 0.22098 0.7268 0.46972 0.0
C368 C 0.19171 0.64405 0.48896 0.0
C369 C 0.16351 0.61494 0.48244 0.0
C370 C 0.1671 0.59283 0.46566 0.0
C371 C 0.19937 0.60059 0.4554 0.0
C372 C 0.22766 0.62957 0.46203 0.0
H373 H 0.22653 0.75561 0.46491 0.0
H374 H 0.21361 0.7092 0.45568 0.0
H375 H 0.19796 0.72058 0.48004 0.0
H376 H 0.18835 0.66085 0.50188 0.0
H377 H 0.13874 0.60996 0.49036 0.0
H378 H 0.65338 0.38169 0.85165 0.0
H379 H 0.65768 0.31903 0.85056 0.0
H380 H 0.55694 0.28549 0.8181 0.0
H381 H 0.55283 0.34762 0.81864 0.0
H382 H 0.61669 0.25637 0.86609 0.0
H383 H 0.61662 0.24466 0.78042 0.0
H384 H 0.62276 0.28761 0.79357 0.0
H385 H 0.57908 0.25812 0.78883 0.0
C386 C 0.63221 0.36096 0.84423 0.0
C387 C 0.60296 0.36984 0.83502 0.0
C388 C 0.63471 0.32516 0.84361 0.0
C389 C 0.60803 0.29766 0.83379 0.0
C390 C 0.5784 0.30636 0.82518 0.0
H391 H 0.54799 0.06647 0.84998 0.0
H392 H 0.55898 0.13225 0.85296 0.0
C393 C 0.57601 0.342 0.82563 0.0
C394 C 0.61043 0.25962 0.83282 0.0
H395 H 0.60203 0.18855 0.79923 0.0
C396 C 0.61395 0.24164 0.85145 0.0
C397 C 0.60765 0.24052 0.81371 0.0
C398 C 0.60672 0.25886 0.793 0.0
C399 C 0.61304 0.20471 0.85155 0.0
C400 C 0.60753 0.18494 0.83255 0.0
C401 C 0.60571 0.2034 0.81386 0.0
C402 C 0.6023 0.14495 0.83166 0.0
C403 C 0.61815 0.18738 0.87204 0.0
C404 C 0.62214 0.1299 0.81819 0.0
C405 C 0.61546 0.09223 0.81621 0.0
C406 C 0.58912 0.06879 0.82793 0.0
C407 C 0.56915 0.08388 0.84126 0.0
C408 C 0.57558 0.12151 0.84307 0.0
H409 H 0.63392 0.20777 0.88332 0.0
H410 H 0.59205 0.17526 0.8789 0.0
H411 H 0.63155 0.1657 0.87001 0.0
H412 H 0.64254 0.14734 0.80897 0.0
H413 H 0.63064 0.0815 0.80533 0.0
H414 H 0.57441 0.88264 0.53712 0.0
H415 H 0.57769 0.82021 0.54022 0.0
H416 H 0.64511 0.83515 0.48721 0.0
H417 H 0.64313 0.89826 0.48457 0.0
H418 H 0.55826 0.76318 0.51563 0.0
H419 H 0.70318 0.79689 0.52826 0.0
H420 H 0.67958 0.83099 0.52828 0.0
H421 H 0.6904 0.81351 0.50407 0.0
C422 C 0.58997 0.87269 0.52611 0.0
C423 C 0.60878 0.89554 0.51071 0.0
C424 C 0.5918 0.83692 0.52789 0.0
C425 C 0.61221 0.82305 0.51422 0.0
C426 C 0.63004 0.84545 0.49835 0.0
H427 H 0.58863 0.58742 0.51409 0.0
H428 H 0.58806 0.64831 0.50303 0.0
C429 C 0.62869 0.88148 0.49676 0.0
C430 C 0.61468 0.7852 0.51677 0.0
H431 H 0.67285 0.7347 0.52493 0.0
C432 C 0.58334 0.75694 0.51763 0.0
C433 C 0.64739 0.77704 0.51961 0.0
C434 C 0.68203 0.80622 0.52022 0.0
C435 C 0.5837 0.721 0.52161 0.0
C436 C 0.61642 0.71275 0.52408 0.0
C437 C 0.64778 0.74091 0.52284 0.0
C438 C 0.6188 0.67574 0.5296 0.0
C439 C 0.54895 0.69263 0.52404 0.0
C440 C 0.63785 0.67091 0.54759 0.0
C441 C 0.63909 0.63629 0.55361 0.0
C442 C 0.62096 0.60544 0.54194 0.0
C443 C 0.6029 0.61044 0.52349 0.0
C444 C 0.60209 0.64526 0.5173 0.0
H445 H 0.52725 0.70504 0.52725 0.0
H446 H 0.54199 0.6767 0.50939 0.0
H447 H 0.55054 0.67373 0.53688 0.0
H448 H 0.65132 0.69395 0.55724 0.0
H449 H 0.65416 0.63376 0.56757 0.0
H450 H 0.85166 0.60927 0.87953 0.0
H451 H 0.91372 0.63481 0.87201 0.0
H452 H 0.8987 0.57678 0.81355 0.0
H453 H 0.83592 0.55194 0.82054 0.0
H454 H 0.95434 0.56675 0.84156 0.0
H455 H 0.96361 0.71172 0.82825 0.0
H456 H 0.93846 0.69305 0.85055 0.0
H457 H 0.92286 0.67612 0.82497 0.0
C458 C 0.8612 0.60255 0.86482 0.0
C459 C 0.83868 0.57859 0.85062 0.0
C460 C 0.89672 0.61722 0.86055 0.0
C461 C 0.91053 0.60815 0.84207 0.0
C462 C 0.88832 0.58435 0.8278 0.0
H463 H 0.13954 0.64185 0.8387 0.0
H464 H 0.08037 0.63176 0.82323 0.0
C465 C 0.85259 0.5699 0.83195 0.0
C466 C 0.94888 0.62084 0.83899 0.0
H467 H 1.01727 0.69783 0.83914 0.0
C468 C 0.96827 0.5953 0.84046 0.0
C469 C 0.96666 0.65808 0.83753 0.0
C470 C 0.94684 0.68635 0.83503 0.0
C471 C 1.00514 0.60625 0.84242 0.0
C472 C 1.02297 0.64377 0.8423 0.0
C473 C 1.00357 0.66913 0.83924 0.0
C474 C 1.06066 0.65714 0.84858 0.0
C475 C 1.02431 0.57767 0.84632 0.0
C476 C 0.06988 0.67729 0.86708 0.0
C477 C 0.10381 0.68384 0.87571 0.0
C478 C 0.12906 0.67009 0.86607 0.0
C479 C 0.1207 0.6528 0.84654 0.0
C480 C 0.08677 0.6466 0.83779 0.0
H481 H 1.00595 0.55069 0.84957 0.0
H482 H 1.03937 0.57488 0.83236 0.0
H483 H 1.04323 0.5855 0.85971 0.0
H484 H 1.05021 0.686 0.87557 0.0
H485 H 0.10971 0.69795 0.89053 0.0
H486 H 0.27636 0.70859 0.17451 0.0
H487 H 0.32784 0.7585 0.18408 0.0
H488 H 0.31564 0.81291 0.12685 0.0
H489 H 0.26454 0.76269 0.11684 0.0
H490 H 0.39177 0.7862 0.16107 0.0
H491 H 0.31874 0.88915 0.17375 0.0
H492 H 0.29726 0.84105 0.17297 0.0
H493 H 0.30993 0.86532 0.14924 0.0
C494 C 0.28477 0.73094 0.16381 0.0
C495 C 0.26619 0.73153 0.14487 0.0
C496 C 0.31411 0.75955 0.16939 0.0
C497 C 0.32532 0.78952 0.15628 0.0
C498 C 0.30706 0.79025 0.13734 0.0
H499 H 0.5241 0.95938 0.16065 0.0
H500 H 0.47408 0.90734 0.15102 0.0
C501 C 0.27778 0.76156 0.13169 0.0
C502 C 0.3563 0.81987 0.1624 0.0
H503 H 0.38103 0.90971 0.17571 0.0
C504 C 0.38948 0.81322 0.16427 0.0
C505 C 0.35309 0.85495 0.16679 0.0
C506 C 0.31784 0.86318 0.16578 0.0
C507 C 0.4197 0.84092 0.17016 0.0
C508 C 0.41661 0.87618 0.17413 0.0
C509 C 0.38334 0.88269 0.17253 0.0
C510 C 0.44753 0.90671 0.18015 0.0
C511 C 0.45459 0.83213 0.1724 0.0
C512 C 0.44906 0.92369 0.19964 0.0
C513 C 0.47751 0.95335 0.20511 0.0
C514 C 0.50458 0.9669 0.19103 0.0
C515 C 0.50334 0.94954 0.17167 0.0
C516 C 0.47495 0.91978 0.16622 0.0
H517 H 0.45118 0.80245 0.17349 0.0
H518 H 0.47061 0.84228 0.15859 0.0
H519 H 0.46954 0.84557 0.18643 0.0
H520 H 0.4282 0.91398 0.21062 0.0
H521 H 0.47813 0.96603 0.22024 0.0
H522 H 0.55762 0.11306 0.53145 0.0
H523 H 0.55797 0.17691 0.53216 0.0
H524 H 0.65463 0.20519 0.49835 0.0
H525 H 0.65466 0.14135 0.49759 0.0
H526 H 0.65376 0.25086 0.53374 0.0
H527 H 0.53636 0.23465 0.48133 0.0
H528 H 0.52997 0.2041 0.503 0.0
H529 H 0.56044 0.20091 0.48324 0.0
C530 C 0.57899 0.13279 0.52414 0.0
C531 C 0.60603 0.12199 0.51437 0.0
C532 C 0.57904 0.16928 0.5245 0.0
C533 C 0.60607 0.19571 0.51508 0.0
C534 C 0.63343 0.18518 0.50562 0.0
H535 H 0.60214 0.41697 0.48672 0.0
H536 H 0.60797 0.35492 0.48513 0.0
C537 C 0.63334 0.14865 0.50517 0.0
C538 C 0.6058 0.23435 0.5152 0.0
H539 H 0.55823 0.29158 0.4984 0.0
C540 C 0.63297 0.25984 0.52596 0.0
C541 C 0.57888 0.24604 0.50482 0.0
C542 C 0.54988 0.22012 0.49227 0.0
C543 C 0.63346 0.29661 0.52702 0.0
C544 C 0.60591 0.30807 0.5172 0.0
C545 C 0.5792 0.2827 0.50605 0.0
C546 C 0.60411 0.3462 0.51836 0.0
C547 C 0.66363 0.32296 0.53846 0.0
C548 C 0.59998 0.36186 0.53756 0.0
C549 C 0.59654 0.3972 0.53847 0.0
C550 C 0.59695 0.41738 0.52019 0.0
C551 C 0.60158 0.40189 0.50102 0.0
C552 C 0.6049 0.36651 0.50011 0.0
H553 H 0.68673 0.31191 0.54054 0.0
H554 H 0.672 0.34909 0.53003 0.0
H555 H 0.65497 0.32852 0.55411 0.0
H556 H 0.59871 0.3465 0.5518 0.0
H557 H 0.59297 0.4086 0.55341 0.0
H558 H 0.37657 0.49699 0.76659 0.0
H559 H 0.3439 0.54128 0.7645 0.0
H560 H 0.43195 0.61737 0.73621 0.0
H561 H 0.46545 0.57231 0.73831 0.0
H562 H 0.41839 0.64568 0.76941 0.0
H563 H 0.28964 0.59422 0.73163 0.0
H564 H 0.2952 0.5568 0.74656 0.0
H565 H 0.32527 0.5748 0.72589 0.0
C566 C 0.38862 0.52231 0.75888 0.0
C567 C 0.42399 0.53117 0.75296 0.0
C568 C 0.36959 0.54788 0.75756 0.0
C569 C 0.38523 0.5829 0.7501 0.0
C570 C 0.41925 0.59058 0.74204 0.0
H571 H 0.24323 0.66603 0.82115 0.0
H572 H 0.27755 0.67138 0.78928 0.0
C573 C 0.43846 0.56486 0.74339 0.0
C574 C 0.36946 0.61245 0.75588 0.0
H575 H 0.28814 0.61796 0.76902 0.0
C576 C 0.38998 0.64065 0.76857 0.0
C577 C 0.33268 0.60774 0.75418 0.0
C578 C 0.30969 0.58194 0.73856 0.0
C579 C 0.37406 0.65912 0.78244 0.0
C580 C 0.33696 0.64826 0.78401 0.0
C581 C 0.31668 0.62524 0.76859 0.0
C582 C 0.3197 0.65298 0.80367 0.0
C583 C 0.39727 0.68782 0.79651 0.0
C584 C 0.33215 0.6414 0.82241 0.0
C585 C 0.31278 0.63852 0.84047 0.0
C586 C 0.28026 0.64662 0.84011 0.0
C587 C 0.26838 0.65975 0.8217 0.0
C588 C 0.28793 0.66283 0.80357 0.0
H589 H 0.41973 0.70476 0.78773 0.0
H590 H 0.38251 0.70568 0.80336 0.0
H591 H 0.40856 0.67463 0.80927 0.0
H592 H 0.35584 0.63233 0.82285 0.0
H593 H 0.32237 0.62815 0.85444 0.0
H594 H 0.94157 0.28733 0.21016 0.0
H595 H 0.88525 0.24226 0.21563 0.0
H596 H 0.85307 0.25498 0.15212 0.0
H597 H 0.90947 0.29998 0.14646 0.0
H598 H 0.80055 0.25393 0.18065 0.0
H599 H 0.85733 0.13812 0.19298 0.0
H600 H 0.87664 0.17625 0.20972 0.0
H601 H 0.88209 0.18059 0.18205 0.0
C602 C 0.92264 0.28036 0.19729 0.0
C603 C 0.93017 0.29711 0.17782 0.0
C604 C 0.89046 0.25457 0.20045 0.0
C605 C 0.86523 0.24478 0.18417 0.0
C606 C 0.87225 0.26202 0.16487 0.0
H607 H 0.68402 0.05296 0.18999 0.0
H608 H 0.73638 0.09893 0.17836 0.0
C609 C 0.90443 0.28787 0.16169 0.0
C610 C 0.83144 0.21674 0.18739 0.0
H611 H 0.79713 0.12855 0.20172 0.0
C612 C 0.79975 0.22644 0.18511 0.0
C613 C 0.8304 0.18072 0.19285 0.0
C614 C 0.86339 0.16811 0.19435 0.0
C615 C 0.76712 0.20139 0.18886 0.0
C616 C 0.76625 0.16589 0.19534 0.0
C617 C 0.79784 0.15587 0.19692 0.0
C618 C 0.73307 0.13909 0.20131 0.0
C619 C 0.73387 0.21314 0.18578 0.0
C620 C 0.7138 0.14642 0.21803 0.0
C621 C 0.68386 0.12033 0.22463 0.0
C622 C 0.67268 0.08619 0.21475 0.0
C623 C 0.69171 0.0791 0.19778 0.0
C624 C 0.72174 0.10525 0.1912 0.0
H625 H 0.73792 0.23663 0.17509 0.0
H626 H 0.71195 0.19062 0.17943 0.0
H627 H 0.72589 0.22155 0.20101 0.0
H628 H 0.72238 0.17206 0.22631 0.0
H629 H 0.66961 0.12681 0.2376 0.0
H630 H 0.08483 0.53693 0.08879 0.0
H631 H 0.1035 0.56496 0.05525 0.0
H632 H 0.17891 0.50252 0.05077 0.0
H633 H 0.15929 0.47338 0.08397 0.0
H634 H 0.16533 0.60631 0.04277 0.0
H635 H 0.1278 0.47962 -0.00436 0.0
H636 H 0.11496 0.48121 0.02227 0.0
H637 H 0.15867 0.47886 0.01647 0.0
C638 C 0.10521 0.52902 0.08054 0.0
C639 C 0.12037 0.50274 0.08877 0.0
C640 C 0.11596 0.54513 0.06145 0.0
C641 C 0.1422 0.53541 0.05031 0.0
C642 C 0.15796 0.50973 0.05879 0.0
H643 H 0.23643 0.6651 0.94239 0.0
H644 H 0.22888 0.63687 0.9768 0.0
C645 C 0.14686 0.49322 0.07778 0.0
C646 C 0.15288 0.55232 0.02986 0.0
H647 H 0.15802 0.5331 0.97836 0.0
C648 C 0.16379 0.59033 0.02867 0.0
C649 C 0.15056 0.5314 0.01146 0.0
C650 C 0.13705 0.49055 0.01142 0.0
C651 C 0.17183 0.60805 0.00955 0.0
C652 C 0.16996 0.58712 0.9912 0.0
C653 C 0.15973 0.54911 0.99247 0.0
C654 C 0.17564 0.60385 0.97029 0.0
C655 C 0.18078 0.64892 0.00913 0.0
C656 C 0.14879 0.59373 0.95497 0.0
C657 C 0.15333 0.60908 0.93523 0.0
C658 C 0.18473 0.63533 0.93034 0.0
C659 C 0.21189 0.64508 0.94563 0.0
C660 C 0.20745 0.62929 0.96539 0.0
H661 H 0.17237 0.66012 0.02345 0.0
H662 H 0.20975 0.6602 0.00808 0.0
H663 H 0.16811 0.65836 -0.00456 0.0
H664 H 0.12413 0.57392 0.95831 0.0
H665 H 0.13223 0.59996 0.92372 0.0
H666 H 0.62055 0.97391 0.45178 0.0
H667 H 0.62726 0.97587 0.41387 0.0
H668 H 0.554 0.04079 0.40822 0.0
H669 H 0.54693 0.03872 0.44603 0.0
H670 H 0.5669 0.95344 0.38176 0.0
H671 H 0.64802 0.097 0.37761 0.0
H672 H 0.64533 0.07046 0.40106 0.0
H673 H 0.60934 0.08805 0.39322 0.0
C674 C 0.60592 0.98861 0.44243 0.0
C675 C 0.58318 1.00614 0.45178 0.0
C676 C 0.60974 0.98966 0.42083 0.0
C677 C 0.59125 1.00862 0.40835 0.0
C678 C 0.56865 0.02624 0.41766 0.0
H679 H 0.55046 0.01142 0.27546 0.0
H680 H 0.54604 1.00492 0.31328 0.0
C681 C 0.56459 0.02496 0.43921 0.0
C682 C 0.59521 1.00976 0.38552 0.0
H683 H 0.62827 0.06676 0.34563 0.0
C684 C 0.5804 0.97813 0.37382 0.0
C685 C 0.61303 0.04199 0.37534 0.0
C686 C 0.63012 0.07635 0.38737 0.0
C687 C 0.58239 0.9781 0.35202 0.0
C688 C 0.59954 0.01056 0.34179 0.0
C689 C 0.61496 0.04199 0.35356 0.0
C690 C 0.60188 0.01251 0.31885 0.0
C691 C 0.56641 0.94339 0.34006 0.0
C692 C 0.63473 0.01898 0.30953 0.0
C693 C 0.63734 0.02237 0.28794 0.0
C694 C 0.60714 0.01983 0.27525 0.0
C695 C 0.57417 0.01302 0.2847 0.0
C696 C 0.57158 1.0094 0.30631 0.0
H697 H 0.56033 0.91935 0.3504 0.0
H698 H 0.5415 0.94497 0.33223 0.0
H699 H 0.58448 0.93947 0.32785 0.0
H700 H 0.6584 0.02142 0.31898 0.0
H701 H 0.66306 0.02696 0.28119 0.0
H702 H 0.57407 0.48326 0.77669 0.0
H703 H 0.56981 0.48544 0.73863 0.0
H704 H 0.68302 0.51055 0.73572 0.0
H705 H 0.6873 0.5079 0.7738 0.0
H706 H 0.65025 0.55729 0.712 0.0
H707 H 0.58868 0.41067 0.69601 0.0
H708 H 0.56788 0.43123 0.71529 0.0
H709 H 0.61156 0.42712 0.72028 0.0
C710 C 0.59791 0.48848 0.7679 0.0
C711 C 0.63091 0.49473 0.77811 0.0
C712 C 0.59549 0.48986 0.74619 0.0
C713 C 0.62608 0.49762 0.7344 0.0
C714 C 0.65911 0.50425 0.74458 0.0
H715 H 0.65449 0.48783 0.60136 0.0
H716 H 0.65526 0.47966 0.63915 0.0
C717 C 0.66151 0.50273 0.76628 0.0
C718 C 0.6238 0.50016 0.71146 0.0
H719 H 0.59444 0.45043 0.66726 0.0
C720 C 0.63808 0.53396 0.7022 0.0
C721 C 0.60812 0.46957 0.69878 0.0
C722 C 0.59338 0.43247 0.708 0.0
C723 C 0.6367 0.53809 0.68053 0.0
C724 C 0.6205 0.50764 0.66787 0.0
C725 C 0.60661 0.47372 0.67709 0.0
C726 C 0.61817 0.51063 0.64497 0.0
C727 C 0.65291 0.57488 0.67126 0.0
C728 C 0.59643 0.53004 0.6358 0.0
C729 C 0.59562 0.53446 0.61423 0.0
C730 C 0.61667 0.51962 0.60143 0.0
C731 C 0.63771 0.49933 0.61071 0.0
C732 C 0.63834 0.49477 0.63229 0.0
H733 H 0.66996 0.59389 0.68274 0.0
H734 H 0.66885 0.57243 0.6576 0.0
H735 H 0.63162 0.58676 0.66581 0.0
H736 H 0.5803 0.54203 0.64536 0.0
H737 H 0.57856 0.54959 0.60758 0.0
H738 H 0.59906 0.04794 0.57078 0.0
H739 H 0.59426 0.04652 0.60875 0.0
H740 H 0.65241 0.96629 0.61207 0.0
H741 H 0.65857 0.96887 0.57429 0.0
H742 H 0.56416 0.99529 0.63454 0.0
H743 H 0.70669 0.03739 0.65423 0.0
H744 H 0.68985 0.03983 0.62809 0.0
H745 H 0.69557 0.99774 0.63794 0.0
C746 C 0.61098 0.03019 0.57968 0.0
C747 C 0.62956 1.00883 0.56969 0.0
C748 C 0.60822 0.02938 0.60134 0.0
C749 C 0.62372 1.00696 0.61336 0.0
C750 C 0.64129 0.98475 0.60326 0.0
H751 H 0.56679 0.9275 0.73657 0.0
H752 H 0.57147 0.93904 0.69937 0.0
C753 C 0.64455 0.98599 0.58165 0.0
C754 C 0.62068 1.00597 0.63637 0.0
H755 H 0.66853 1.00993 0.68172 0.0
C756 C 0.58703 0.99888 0.64486 0.0
C757 C 0.65054 0.01151 0.64994 0.0
C758 C 0.68769 0.02245 0.64208 0.0
C759 C 0.58232 0.99587 0.66644 0.0
C760 C 0.61195 0.99874 0.67988 0.0
C761 C 0.64571 1.00715 0.67145 0.0
C762 C 0.6086 0.99218 0.70264 0.0
C763 C 0.54562 0.99007 0.67455 0.0
C764 C 0.62885 0.0176 0.71697 0.0
C765 C 0.62715 0.01053 0.73833 0.0
C766 C 0.60502 0.9779 0.74585 0.0
C767 C 0.58453 0.95269 0.73142 0.0
C768 C 0.58665 0.95956 0.71008 0.0
H769 H 0.52897 1.00128 0.6637 0.0
H770 H 0.53294 0.96055 0.67592 0.0
H771 H 0.5461 1.00293 0.69008 0.0
H772 H 0.64624 0.04285 0.71161 0.0
H773 H 0.64378 0.03035 0.74888 0.0
H774 H 0.52539 0.41282 0.89583 0.0
H775 H 0.53326 0.41557 0.93392 0.0
H776 H 0.62314 0.5089 0.92843 0.0
H777 H 0.615 0.50673 0.8906 0.0
H778 H 0.5901 0.41234 0.95972 0.0
H779 H 0.56148 0.54522 0.9682 0.0
H780 H 0.55199 0.51893 0.94442 0.0
H781 H 0.59607 0.54625 0.9504 0.0
C782 C 0.54683 0.43384 0.9028 0.0
C783 C 0.56936 0.45977 0.89031 0.0
C784 C 0.5513 0.43539 0.92452 0.0
C785 C 0.57832 0.46293 0.93403 0.0
C786 C 0.60156 0.48801 0.92148 0.0
H787 H 0.65877 0.52691 0.05848 0.0
H788 H 0.64795 0.51873 0.02088 0.0
C789 C 0.59702 0.48658 0.89985 0.0
C790 C 0.58237 0.46561 0.95707 0.0
H791 H 0.58599 0.52338 -0.00193 0.0
C792 C 0.5889 0.43647 0.96815 0.0
C793 C 0.58068 0.4971 0.96804 0.0
C794 C 0.57183 0.52852 0.9572 0.0
C795 C 0.59491 0.43844 0.98983 0.0
C796 C 0.59395 0.47023 0.0007 0.0
C797 C 0.58692 0.49913 0.98967 0.0
C798 C 0.60067 0.47434 0.0235 0.0
C799 C 0.60323 0.40696 0.00088 0.0
C800 C 0.57749 0.45228 0.03744 0.0
C801 C 0.58363 0.45686 0.05894 0.0
C802 C 0.61307 0.48361 0.0669 0.0
C803 C 0.63615 0.50574 0.05286 0.0
C804 C 0.6299 0.50124 0.03138 0.0
H805 H 0.61034 0.38797 0.98984 0.0
H806 H 0.62529 0.41672 0.01238 0.0
H807 H 0.57975 0.39169 0.00944 0.0
H808 H 0.55449 0.43172 0.03168 0.0
H809 H 0.56548 0.43924 0.06933 0.0
H810 H 0.11285 0.46801 0.20177 0.0
H811 H 0.11053 0.4552 0.2393 0.0
H812 H 0.1258 0.56888 0.25234 0.0
H813 H 0.12755 0.58159 0.2151 0.0
H814 H 0.16273 0.48573 0.27147 0.0
H815 H 1.03604 0.51797 0.28404 0.0
H816 H 1.0501 0.50896 0.25855 0.0
H817 H 0.06776 0.55271 0.27061 0.0
C818 C 0.11528 0.49006 0.21267 0.0
C819 C 0.11978 0.52562 0.20556 0.0
C820 C 0.11419 0.48281 0.23406 0.0
C821 C 0.11737 0.51104 0.24854 0.0
C822 C 0.12259 0.54663 0.24141 0.0
H823 H 0.11979 0.54486 0.38088 0.0
H824 H 0.12337 0.54976 0.34298 0.0
C825 C 0.12375 0.55385 0.22013 0.0
C826 C 0.11569 0.50381 0.27117 0.0
H827 H 0.07034 0.5133 0.31439 0.0
C828 C 0.14235 0.49133 0.28088 0.0
C829 C 0.08906 0.51121 0.28333 0.0
C830 C 1.05891 0.52314 0.27361 0.0
C831 C 0.14382 0.48736 0.3026 0.0
C832 C 0.11762 0.4956 0.31479 0.0
C833 C 0.09055 0.50729 0.30501 0.0
C834 C 0.11784 0.4927 0.33778 0.0
C835 C 0.17399 0.47559 0.31238 0.0
C836 C 0.11368 0.459 0.3474 0.0
C837 C 0.11183 0.45615 0.36906 0.0
C838 C 0.11392 0.48693 0.38149 0.0
C839 C 0.11857 0.52073 0.37179 0.0
C840 C 0.12037 0.52354 0.35014 0.0
H841 H 0.19606 0.47855 0.30151 0.0
H842 H 0.18415 0.49158 0.32673 0.0
H843 H 0.16456 0.4466 0.31676 0.0
H844 H 0.11111 0.43478 0.33814 0.0
H845 H 0.10852 0.42978 0.37607 0.0
loop_
_geom_bond_atom_site_label_1
_geom_bond_atom_site_label_2
_geom_bond_distance
_geom_bond_site_symmetry_2
_ccdc_geom_bond_type
Nd0 C2 2.836 . S
Nd0 O20 2.500 . S
Nd0 O21 2.492 . S
Nd0 O22 2.487 . S
Nd0 O23 2.687 . S
Nd0 O24 2.410 . S
Nd0 O29 2.414 . S
Nd0 O31 2.424 1_455 S
Nd1 C11 2.836 . S
Nd1 O23 2.418 1_655 S
Nd1 O25 2.424 1_655 S
Nd1 O26 2.500 . S
Nd1 O27 2.492 . S
Nd1 O28 2.487 . S
Nd1 O29 2.682 1_655 S
Nd1 O30 2.410 . S
C2 Nd0 2.836 . S
C2 C3 1.498 . S
C2 O20 1.258 . S
C2 O21 1.239 . S
C3 C2 1.498 . S
C3 C4 1.366 . S
C3 C8 1.407 . S
C4 C3 1.366 . S
C4 C5 1.392 . S
C4 H32 0.930 . S
C5 C4 1.392 . S
C5 C6 1.398 . S
C5 H33 0.929 . S
C6 C5 1.398 . S
C6 C7 1.352 . S
C7 C6 1.352 . S
C7 C8 1.384 . S
C7 H34 0.930 . S
C8 C3 1.407 . S
C8 C7 1.384 . S
C8 H35 0.929 . S
C9 O22 1.241 . S
C9 O23 1.276 . S
C10 O24 1.251 . S
C10 O25 1.268 . S
C11 Nd1 2.836 . S
C11 C12 1.498 . S
C11 O26 1.258 . S
C11 O27 1.239 . S
C12 C11 1.498 . S
C12 C13 1.366 . S
C12 C17 1.407 . S
C13 C12 1.366 . S
C13 C14 1.392 . S
C13 H36 0.930 . S
C14 C13 1.392 . S
C14 C15 1.398 . S
C14 H37 0.929 . S
C15 C14 1.398 . S
C15 C16 1.352 . S
C16 C15 1.352 . S
C16 C17 1.384 . S
C16 H38 0.930 . S
C17 C12 1.407 . S
C17 C16 1.384 . S
C17 H39 0.929 . S
C18 O28 1.241 1_455 S
C18 O29 1.273 . S
C19 O30 1.251 . S
C19 O31 1.268 . S
O20 Nd0 2.500 . S
O20 C2 1.258 . S
O21 Nd0 2.492 . S
O21 C2 1.239 . S
O22 Nd0 2.487 . S
O22 C9 1.241 . S
O23 Nd0 2.687 . S
O23 Nd1 2.418 1_455 S
O23 C9 1.276 . S
O24 Nd0 2.410 . S
O24 C10 1.251 . S
O25 Nd1 2.424 1_455 S
O25 C10 1.268 . S
O26 Nd1 2.500 . S
O26 C11 1.258 . S
O27 Nd1 2.492 . S
O27 C11 1.239 . S
O28 Nd1 2.487 . S
O28 C18 1.241 1_655 S
O29 Nd0 2.414 . S
O29 Nd1 2.682 1_455 S
O29 C18 1.273 . S
O30 Nd1 2.410 . S
O30 C19 1.251 . S
O31 Nd0 2.424 1_655 S
O31 C19 1.268 . S
H32 C4 0.930 . S
H33 C5 0.929 . S
H34 C7 0.930 . S
H35 C8 0.929 . S
H36 C13 0.930 . S
H37 C14 0.929 . S
H38 C16 0.930 . S
H39 C17 0.929 . S
Nd40 C42 2.836 . S
Nd40 O60 2.500 . S
Nd40 O61 2.492 . S
Nd40 O62 2.487 . S
Nd40 O63 2.682 1_565 S
Nd40 O64 2.410 . S
Nd40 O69 2.414 . S
Nd40 O71 2.424 1_565 S
Nd41 C51 2.836 . S
Nd41 O63 2.414 . S
Nd41 O65 2.424 1_545 S
Nd41 O66 2.500 . S
Nd41 O67 2.492 . S
Nd41 O68 2.487 . S
Nd41 O69 2.682 1_545 S
Nd41 O70 2.410 . S
C42 Nd40 2.836 . S
C42 C43 1.498 . S
C42 O60 1.258 . S
C42 O61 1.239 . S
C43 C42 1.498 . S
C43 C44 1.366 . S
C43 C48 1.407 . S
C44 C43 1.366 . S
C44 C45 1.392 . S
C44 H72 0.930 . S
C45 C44 1.392 . S
C45 C46 1.398 . S
C45 H73 0.929 . S
C46 C45 1.398 . S
C46 C47 1.352 . S
C47 C46 1.352 . S
C47 C48 1.384 . S
C47 H74 0.930 . S
C48 C43 1.407 . S
C48 C47 1.384 . S
C48 H75 0.929 . S
C49 O62 1.241 1_545 S
C49 O63 1.273 . S
C50 O64 1.251 . S
C50 O65 1.268 . S
C51 Nd41 2.836 . S
C51 C52 1.498 . S
C51 O66 1.258 . S
C51 O67 1.239 . S
C52 C51 1.498 . S
C52 C53 1.366 . S
C52 C57 1.407 . S
C53 C52 1.366 . S
C53 C54 1.392 . S
C53 H76 0.930 . S
C54 C53 1.392 . S
C54 C55 1.398 . S
C54 H77 0.929 . S
C55 C54 1.398 . S
C55 C56 1.352 . S
C56 C55 1.352 . S
C56 C57 1.384 . S
C56 H78 0.930 . S
C57 C52 1.407 . S
C57 C56 1.384 . S
C57 H79 0.929 . S
C58 O68 1.241 . S
C58 O69 1.273 1_545 S
C59 O70 1.251 . S
C59 O71 1.268 . S
O60 Nd40 2.500 . S
O60 C42 1.258 . S
O61 Nd40 2.492 . S
O61 C42 1.239 . S
O62 Nd40 2.487 . S
O62 C49 1.241 1_565 S
O63 Nd40 2.682 1_545 S
O63 Nd41 2.414 . S
O63 C49 1.273 . S
O64 Nd40 2.410 . S
O64 C50 1.251 . S
O65 Nd41 2.424 1_565 S
O65 C50 1.268 . S
O66 Nd41 2.500 . S
O66 C51 1.258 . S
O67 Nd41 2.492 . S
O67 C51 1.239 . S
O68 Nd41 2.487 . S
O68 C58 1.241 . S
O69 Nd40 2.414 . S
O69 Nd41 2.682 1_565 S
O69 C58 1.273 1_565 S
O70 Nd41 2.410 . S
O70 C59 1.251 . S
O71 Nd40 2.424 1_545 S
O71 C59 1.268 . S
H72 C44 0.930 . S
H73 C45 0.929 . S
H74 C47 0.930 . S
H75 C48 0.929 . S
H76 C53 0.930 . S
H77 C54 0.929 . S
H78 C56 0.930 . S
H79 C57 0.929 . S
Nd80 C82 2.836 . S
Nd80 O100 2.500 . S
Nd80 O101 2.492 . S
Nd80 O102 2.487 . S
Nd80 O103 2.682 . S
Nd80 O104 2.410 . S
Nd80 O109 2.414 . S
Nd80 O111 2.424 . S
Nd81 C91 2.836 . S
Nd81 O103 2.414 . S
Nd81 O105 2.424 . S
Nd81 O106 2.500 . S
Nd81 O107 2.492 . S
Nd81 O108 2.487 . S
Nd81 O109 2.682 . S
Nd81 O110 2.410 . S
C82 Nd80 2.836 . S
C82 C83 1.498 . S
C82 O100 1.258 . S
C82 O101 1.239 . S
C83 C82 1.498 . S
C83 C84 1.366 . S
C83 C88 1.407 . S
C84 C83 1.366 . S
C84 C85 1.392 . S
C84 H112 0.930 . S
C85 C84 1.392 . S
C85 C86 1.398 . S
C85 H113 0.929 . S
C86 C85 1.398 . S
C86 C87 1.352 . S
C87 C86 1.352 . S
C87 C88 1.384 . S
C87 H114 0.930 . S
C88 C83 1.407 . S
C88 C87 1.384 . S
C88 H115 0.929 . S
C89 O102 1.241 . S
C89 O103 1.273 . S
C90 O104 1.251 . S
C90 O105 1.268 . S
C91 Nd81 2.836 . S
C91 C92 1.498 . S
C91 O106 1.258 . S
C91 O107 1.239 . S
C92 C91 1.498 . S
C92 C93 1.366 . S
C92 C97 1.407 . S
C93 C92 1.366 . S
C93 C94 1.392 . S
C93 H116 0.930 . S
C94 C93 1.392 . S
C94 C95 1.398 . S
C94 H117 0.929 . S
C95 C94 1.398 . S
C95 C96 1.352 . S
C96 C95 1.352 . S
C96 C97 1.384 . S
C96 H118 0.930 . S
C97 C92 1.407 . S
C97 C96 1.384 . S
C97 H119 0.929 . S
C98 O108 1.241 . S
C98 O109 1.273 . S
C99 O110 1.251 . S
C99 O111 1.268 . S
O100 Nd80 2.500 . S
O100 C82 1.258 . S
O101 Nd80 2.492 . S
O101 C82 1.239 . S
O102 Nd80 2.487 . S
O102 C89 1.241 . S
O103 Nd80 2.682 . S
O103 Nd81 2.414 . S
O103 C89 1.273 . S
O104 Nd80 2.410 . S
O104 C90 1.251 . S
O105 Nd81 2.424 . S
O105 C90 1.268 . S
O106 Nd81 2.500 . S
O106 C91 1.258 . S
O107 Nd81 2.492 . S
O107 C91 1.239 . S
O108 Nd81 2.487 . S
O108 C98 1.241 . S
O109 Nd80 2.414 . S
O109 Nd81 2.682 . S
O109 C98 1.273 . S
O110 Nd81 2.410 . S
O110 C99 1.251 . S
O111 Nd80 2.424 . S
O111 C99 1.268 . S
H112 C84 0.930 . S
H113 C85 0.929 . S
H114 C87 0.930 . S
H115 C88 0.929 . S
H116 C93 0.930 . S
H117 C94 0.929 . S
H118 C96 0.930 . S
H119 C97 0.929 . S
H120 C127 0.929 . S
H121 C130 0.930 . S
H122 C132 0.929 . S
H123 C124 0.969 . S
C124 H123 0.969 . S
C124 O125 1.550 . S
C124 H126 0.973 . S
O125 C124 1.550 . S
O125 C131 1.412 . S
H126 C124 0.973 . S
C127 H120 0.929 . S
C127 C128 1.400 . S
C127 C129 1.364 . S
C128 C127 1.400 . S
C128 C132 1.377 . S
C129 C127 1.364 . S
C129 C130 1.374 1_545 S
C130 H121 0.930 . S
C130 C129 1.374 1_565 S
C130 C131 1.383 . S
C131 O125 1.412 . S
C131 C130 1.383 . S
C131 C132 1.394 1_565 S
C132 H122 0.929 . S
C132 C128 1.377 . S
C132 C131 1.394 1_545 S
H133 C140 0.929 . S
H134 C143 0.930 . S
H135 C145 0.929 . S
H136 C137 0.969 . S
C137 H136 0.969 . S
C137 O138 1.550 . S
C137 H139 0.973 . S
O138 C137 1.550 . S
O138 C144 1.412 . S
H139 C137 0.973 . S
C140 H133 0.929 . S
C140 C141 1.400 . S
C140 C142 1.364 . S
C141 C140 1.400 . S
C141 C145 1.377 . S
C142 C140 1.364 . S
C142 C143 1.374 . S
C143 H134 0.930 . S
C143 C142 1.374 . S
C143 C144 1.383 . S
C144 O138 1.412 . S
C144 C143 1.383 . S
C144 C145 1.394 . S
C145 H135 0.929 . S
C145 C141 1.377 . S
C145 C144 1.394 . S
H146 C153 0.929 . S
H147 C156 0.930 . S
H148 C158 0.929 . S
H149 C150 0.969 . S
C150 H149 0.969 . S
C150 O151 1.550 . S
C150 H152 0.973 . S
O151 C150 1.550 . S
O151 C157 1.412 . S
H152 C150 0.973 . S
C153 H146 0.929 . S
C153 C154 1.400 . S
C153 C155 1.364 . S
C154 C153 1.400 . S
C154 C158 1.377 . S
C155 C153 1.364 . S
C155 C156 1.374 . S
C156 H147 0.930 . S
C156 C155 1.374 . S
C156 C157 1.383 . S
C157 O151 1.412 . S
C157 C156 1.383 . S
C157 C158 1.394 . S
C158 H148 0.929 . S
C158 C154 1.377 . S
C158 C157 1.394 . S
H159 C166 0.927 1_655 S
H160 C169 0.930 . S
H161 C171 0.929 . S
H162 C163 0.969 . S
C163 H162 0.969 . S
C163 O164 1.550 . S
C163 H165 0.973 . S
O164 C163 1.550 . S
O164 C170 1.412 . S
H165 C163 0.973 . S
C166 H159 0.927 1_455 S
C166 C167 1.399 1_455 S
C166 C168 1.366 . S
C167 C166 1.399 1_655 S
C167 C171 1.377 1_655 S
C168 C166 1.366 . S
C168 C169 1.374 . S
C169 H160 0.930 . S
C169 C168 1.374 . S
C169 C170 1.383 . S
C170 O164 1.412 . S
C170 C169 1.383 . S
C170 C171 1.394 . S
C171 H161 0.929 . S
C171 C167 1.377 1_455 S
C171 C170 1.394 . S
H172 C179 0.929 . S
H173 C182 0.930 . S
H174 C184 0.929 . S
H175 C176 0.969 . S
C176 H175 0.969 . S
C176 O177 1.550 . S
C176 H178 0.973 . S
O177 C176 1.550 . S
O177 C183 1.412 . S
H178 C176 0.973 . S
C179 H172 0.929 . S
C179 C180 1.400 . S
C179 C181 1.364 1_565 S
C180 C179 1.400 . S
C180 C184 1.377 . S
C181 C179 1.364 1_545 S
C181 C182 1.374 . S
C182 H173 0.930 . S
C182 C181 1.374 . S
C182 C183 1.383 . S
C183 O177 1.412 . S
C183 C182 1.383 . S
C183 C184 1.394 1_545 S
C184 H174 0.929 . S
C184 C180 1.377 . S
C184 C183 1.394 1_565 S
H185 C192 0.929 . S
H186 C195 0.930 . S
H187 C197 0.929 . S
H188 C189 0.969 . S
C189 H188 0.969 . S
C189 O190 1.550 . S
C189 H191 0.973 . S
O190 C189 1.550 . S
O190 C196 1.412 . S
H191 C189 0.973 . S
C192 H185 0.929 . S
C192 C193 1.400 . S
C192 C194 1.364 . S
C193 C192 1.400 . S
C193 C197 1.377 . S
C194 C192 1.364 . S
C194 C195 1.374 . S
C195 H186 0.930 . S
C195 C194 1.374 . S
C195 C196 1.383 . S
C196 O190 1.412 . S
C196 C195 1.383 . S
C196 C197 1.394 . S
C197 H187 0.929 . S
C197 C193 1.377 . S
C197 C196 1.394 . S
H198 C206 0.929 . S
H199 C208 0.930 . S
H200 C210 0.930 . S
H201 C213 0.929 . S
H202 C216 0.930 . S
H203 C218 0.960 . S
H204 C218 0.960 . S
H205 C218 0.960 . S
C206 H198 0.929 . S
C206 C207 1.377 . S
C206 C208 1.384 . S
C207 C206 1.377 . S
C207 C213 1.390 . S
C208 H199 0.930 . S
C208 C206 1.384 . S
C208 C209 1.372 . S
C209 C208 1.372 . S
C209 C210 1.400 . S
C209 C214 1.490 . S
C210 H200 0.930 . S
C210 C209 1.400 . S
C210 C213 1.386 . S
H211 C227 0.930 . S
H212 C228 0.931 . S
C213 H201 0.929 . S
C213 C207 1.390 . S
C213 C210 1.386 . S
C214 C209 1.490 . S
C214 C216 1.395 . S
C214 C217 1.403 . S
H215 C221 0.930 . S
C216 H202 0.930 . S
C216 C214 1.395 . S
C216 C219 1.403 . S
C217 C214 1.403 . S
C217 C218 1.524 . S
C217 C221 1.400 . S
C218 H203 0.960 . S
C218 H204 0.960 . S
C218 H205 0.960 . S
C218 C217 1.524 . S
C219 C216 1.403 . S
C219 C220 1.392 . S
C219 C223 1.495 . S
C220 C219 1.392 . S
C220 C221 1.385 . S
C220 C222 1.478 . S
C221 H215 0.930 . S
C221 C217 1.400 . S
C221 C220 1.385 . S
C222 C220 1.478 . S
C222 C224 1.381 . S
C222 C228 1.383 . S
C223 C219 1.495 . S
C223 H229 0.959 . S
C223 H230 0.961 . S
C223 H231 0.960 . S
C224 C222 1.381 . S
C224 C225 1.394 . S
C224 H232 0.930 . S
C225 C224 1.394 . S
C225 C226 1.383 . S
C225 H233 0.929 . S
C226 C225 1.383 . S
C226 C227 1.377 . S
C227 H211 0.930 . S
C227 C226 1.377 . S
C227 C228 1.379 . S
C228 H212 0.931 . S
C228 C222 1.383 . S
C228 C227 1.379 . S
H229 C223 0.959 . S
H230 C223 0.961 . S
H231 C223 0.960 . S
H232 C224 0.930 . S
H233 C225 0.929 . S
H234 C242 0.929 . S
H235 C244 0.930 . S
H236 C246 0.930 . S
H237 C249 0.929 . S
H238 C252 0.930 . S
H239 C254 0.960 . S
H240 C254 0.960 . S
H241 C254 0.960 . S
C242 H234 0.929 . S
C242 C243 1.377 . S
C242 C244 1.384 . S
C243 C242 1.377 . S
C243 C249 1.390 . S
C244 H235 0.930 . S
C244 C242 1.384 . S
C244 C245 1.372 . S
C245 C244 1.372 . S
C245 C246 1.400 . S
C245 C250 1.490 . S
C246 H236 0.930 . S
C246 C245 1.400 . S
C246 C249 1.386 . S
H247 C263 0.930 . S
H248 C264 0.931 . S
C249 H237 0.929 . S
C249 C243 1.390 . S
C249 C246 1.386 . S
C250 C245 1.490 . S
C250 C252 1.395 . S
C250 C253 1.403 . S
H251 C257 0.930 . S
C252 H238 0.930 . S
C252 C250 1.395 . S
C252 C255 1.403 . S
C253 C250 1.403 . S
C253 C254 1.524 . S
C253 C257 1.400 . S
C254 H239 0.960 . S
C254 H240 0.960 . S
C254 H241 0.960 . S
C254 C253 1.524 . S
C255 C252 1.403 . S
C255 C256 1.392 . S
C255 C259 1.495 . S
C256 C255 1.392 . S
C256 C257 1.385 . S
C256 C258 1.478 . S
C257 H251 0.930 . S
C257 C253 1.400 . S
C257 C256 1.385 . S
C258 C256 1.478 . S
C258 C260 1.381 . S
C258 C264 1.383 . S
C259 C255 1.495 . S
C259 H265 0.959 . S
C259 H266 0.961 . S
C259 H267 0.960 . S
C260 C258 1.381 . S
C260 C261 1.394 . S
C260 H268 0.930 . S
C261 C260 1.394 . S
C261 C262 1.383 . S
C261 H269 0.929 . S
C262 C261 1.383 . S
C262 C263 1.377 . S
C263 H247 0.930 . S
C263 C262 1.377 . S
C263 C264 1.379 . S
C264 H248 0.931 . S
C264 C258 1.383 . S
C264 C263 1.379 . S
H265 C259 0.959 . S
H266 C259 0.961 . S
H267 C259 0.960 . S
H268 C260 0.930 . S
H269 C261 0.929 . S
H270 C278 0.929 . S
H271 C280 0.930 . S
H272 C282 0.930 . S
H273 C285 0.929 . S
H274 C288 0.930 . S
H275 C290 0.960 . S
H276 C290 0.960 . S
H277 C290 0.960 . S
C278 H270 0.929 . S
C278 C279 1.377 . S
C278 C280 1.384 . S
C279 C278 1.377 . S
C279 C285 1.390 . S
C280 H271 0.930 . S
C280 C278 1.384 . S
C280 C281 1.372 . S
C281 C280 1.372 . S
C281 C282 1.400 . S
C281 C286 1.490 . S
C282 H272 0.930 . S
C282 C281 1.400 . S
C282 C285 1.386 . S
H283 C299 0.930 . S
H284 C300 0.931 . S
C285 H273 0.929 . S
C285 C279 1.390 . S
C285 C282 1.386 . S
C286 C281 1.490 . S
C286 C288 1.395 . S
C286 C289 1.403 . S
H287 C293 0.930 . S
C288 H274 0.930 . S
C288 C286 1.395 . S
C288 C291 1.403 . S
C289 C286 1.403 . S
C289 C290 1.524 . S
C289 C293 1.400 . S
C290 H275 0.960 . S
C290 H276 0.960 . S
C290 H277 0.960 . S
C290 C289 1.524 . S
C291 C288 1.403 . S
C291 C292 1.392 . S
C291 C295 1.495 . S
C292 C291 1.392 . S
C292 C293 1.385 . S
C292 C294 1.478 . S
C293 H287 0.930 . S
C293 C289 1.400 . S
C293 C292 1.385 . S
C294 C292 1.478 . S
C294 C296 1.381 . S
C294 C300 1.383 . S
C295 C291 1.495 . S
C295 H301 0.959 . S
C295 H302 0.961 . S
C295 H303 0.960 . S
C296 C294 1.381 . S
C296 C297 1.394 . S
C296 H304 0.930 . S
C297 C296 1.394 . S
C297 C298 1.383 . S
C297 H305 0.929 . S
C298 C297 1.383 . S
C298 C299 1.377 . S
C299 H283 0.930 . S
C299 C298 1.377 . S
C299 C300 1.379 . S
C300 H284 0.931 . S
C300 C294 1.383 . S
C300 C299 1.379 . S
H301 C295 0.959 . S
H302 C295 0.961 . S
H303 C295 0.960 . S
H304 C296 0.930 . S
H305 C297 0.929 . S
H306 C314 0.929 . S
H307 C316 0.930 . S
H308 C318 0.930 . S
H309 C321 0.929 . S
H310 C324 0.930 . S
H311 C326 0.960 . S
H312 C326 0.960 . S
H313 C326 0.960 . S
C314 H306 0.929 . S
C314 C315 1.377 . S
C314 C316 1.384 . S
C315 C314 1.377 . S
C315 C321 1.390 . S
C316 H307 0.930 . S
C316 C314 1.384 . S
C316 C317 1.372 . S
C317 C316 1.372 . S
C317 C318 1.400 . S
C317 C322 1.490 . S
C318 H308 0.930 . S
C318 C317 1.400 . S
C318 C321 1.386 . S
H319 C335 0.930 . S
H320 C336 0.931 . S
C321 H309 0.929 . S
C321 C315 1.390 . S
C321 C318 1.386 . S
C322 C317 1.490 . S
C322 C324 1.395 . S
C322 C325 1.403 . S
H323 C329 0.930 . S
C324 H310 0.930 . S
C324 C322 1.395 . S
C324 C327 1.403 . S
C325 C322 1.403 . S
C325 C326 1.524 . S
C325 C329 1.400 . S
C326 H311 0.960 . S
C326 H312 0.960 . S
C326 H313 0.960 . S
C326 C325 1.524 . S
C327 C324 1.403 . S
C327 C328 1.392 . S
C327 C331 1.495 . S
C328 C327 1.392 . S
C328 C329 1.385 . S
C328 C330 1.478 . S
C329 H323 0.930 . S
C329 C325 1.400 . S
C329 C328 1.385 . S
C330 C328 1.478 . S
C330 C332 1.381 . S
C330 C336 1.383 . S
C331 C327 1.495 . S
C331 H337 0.959 . S
C331 H338 0.961 . S
C331 H339 0.960 . S
C332 C330 1.381 . S
C332 C333 1.394 . S
C332 H340 0.930 . S
C333 C332 1.394 . S
C333 C334 1.383 . S
C333 H341 0.929 . S
C334 C333 1.383 . S
C334 C335 1.377 . S
C335 H319 0.930 . S
C335 C334 1.377 . S
C335 C336 1.379 . S
C336 H320 0.931 . S
C336 C330 1.383 . S
C336 C335 1.379 . S
H337 C331 0.959 . S
H338 C331 0.961 . S
H339 C331 0.960 . S
H340 C332 0.930 . S
H341 C333 0.929 . S
H342 C350 0.929 . S
H343 C352 0.930 . S
H344 C354 0.930 . S
H345 C357 0.929 . S
H346 C360 0.930 . S
H347 C362 0.960 . S
H348 C362 0.960 . S
H349 C362 0.960 . S
C350 H342 0.929 . S
C350 C351 1.377 . S
C350 C352 1.384 . S
C351 C350 1.377 . S
C351 C357 1.390 . S
C352 H343 0.930 . S
C352 C350 1.384 . S
C352 C353 1.372 . S
C353 C352 1.372 . S
C353 C354 1.400 . S
C353 C358 1.490 . S
C354 H344 0.930 . S
C354 C353 1.400 . S
C354 C357 1.386 . S
H355 C371 0.930 . S
H356 C372 0.931 . S
C357 H345 0.929 . S
C357 C351 1.390 . S
C357 C354 1.386 . S
C358 C353 1.490 . S
C358 C360 1.395 . S
C358 C361 1.403 . S
H359 C365 0.930 . S
C360 H346 0.930 . S
C360 C358 1.395 . S
C360 C363 1.403 . S
C361 C358 1.403 . S
C361 C362 1.524 . S
C361 C365 1.400 . S
C362 H347 0.960 . S
C362 H348 0.960 . S
C362 H349 0.960 . S
C362 C361 1.524 . S
C363 C360 1.403 . S
C363 C364 1.392 . S
C363 C367 1.495 . S
C364 C363 1.392 . S
C364 C365 1.385 . S
C364 C366 1.478 . S
C365 H359 0.930 . S
C365 C361 1.400 . S
C365 C364 1.385 . S
C366 C364 1.478 . S
C366 C368 1.381 . S
C366 C372 1.383 . S
C367 C363 1.495 . S
C367 H373 0.959 . S
C367 H374 0.961 . S
C367 H375 0.960 . S
C368 C366 1.381 . S
C368 C369 1.394 . S
C368 H376 0.930 . S
C369 C368 1.394 . S
C369 C370 1.383 . S
C369 H377 0.929 . S
C370 C369 1.383 . S
C370 C371 1.377 . S
C371 H355 0.930 . S
C371 C370 1.377 . S
C371 C372 1.379 . S
C372 H356 0.931 . S
C372 C366 1.383 . S
C372 C371 1.379 . S
H373 C367 0.959 . S
H374 C367 0.961 . S
H375 C367 0.960 . S
H376 C368 0.930 . S
H377 C369 0.929 . S
H378 C386 0.929 . S
H379 C388 0.930 . S
H380 C390 0.930 . S
H381 C393 0.929 . S
H382 C396 0.930 . S
H383 C398 0.960 . S
H384 C398 0.960 . S
H385 C398 0.960 . S
C386 H378 0.929 . S
C386 C387 1.377 . S
C386 C388 1.384 . S
C387 C386 1.377 . S
C387 C393 1.390 . S
C388 H379 0.930 . S
C388 C386 1.384 . S
C388 C389 1.372 . S
C389 C388 1.372 . S
C389 C390 1.400 . S
C389 C394 1.490 . S
C390 H380 0.930 . S
C390 C389 1.400 . S
C390 C393 1.386 . S
H391 C407 0.930 . S
H392 C408 0.931 . S
C393 H381 0.929 . S
C393 C387 1.390 . S
C393 C390 1.386 . S
C394 C389 1.490 . S
C394 C396 1.395 . S
C394 C397 1.403 . S
H395 C401 0.930 . S
C396 H382 0.930 . S
C396 C394 1.395 . S
C396 C399 1.403 . S
C397 C394 1.403 . S
C397 C398 1.524 . S
C397 C401 1.400 . S
C398 H383 0.960 . S
C398 H384 0.960 . S
C398 H385 0.960 . S
C398 C397 1.524 . S
C399 C396 1.403 . S
C399 C400 1.392 . S
C399 C403 1.495 . S
C400 C399 1.392 . S
C400 C401 1.385 . S
C400 C402 1.478 . S
C401 H395 0.930 . S
C401 C397 1.400 . S
C401 C400 1.385 . S
C402 C400 1.478 . S
C402 C404 1.381 . S
C402 C408 1.383 . S
C403 C399 1.495 . S
C403 H409 0.959 . S
C403 H410 0.961 . S
C403 H411 0.960 . S
C404 C402 1.381 . S
C404 C405 1.394 . S
C404 H412 0.930 . S
C405 C404 1.394 . S
C405 C406 1.383 . S
C405 H413 0.929 . S
C406 C405 1.383 . S
C406 C407 1.377 . S
C407 H391 0.930 . S
C407 C406 1.377 . S
C407 C408 1.379 . S
C408 H392 0.931 . S
C408 C402 1.383 . S
C408 C407 1.379 . S
H409 C403 0.959 . S
H410 C403 0.961 . S
H411 C403 0.960 . S
H412 C404 0.930 . S
H413 C405 0.929 . S
H414 C422 0.929 . S
H415 C424 0.930 . S
H416 C426 0.930 . S
H417 C429 0.929 . S
H418 C432 0.930 . S
H419 C434 0.960 . S
H420 C434 0.960 . S
H421 C434 0.960 . S
C422 H414 0.929 . S
C422 C423 1.377 . S
C422 C424 1.384 . S
C423 C422 1.377 . S
C423 C429 1.390 . S
C424 H415 0.930 . S
C424 C422 1.384 . S
C424 C425 1.372 . S
C425 C424 1.372 . S
C425 C426 1.400 . S
C425 C430 1.490 . S
C426 H416 0.930 . S
C426 C425 1.400 . S
C426 C429 1.386 . S
H427 C443 0.930 . S
H428 C444 0.931 . S
C429 H417 0.929 . S
C429 C423 1.390 . S
C429 C426 1.386 . S
C430 C425 1.490 . S
C430 C432 1.395 . S
C430 C433 1.403 . S
H431 C437 0.930 . S
C432 H418 0.930 . S
C432 C430 1.395 . S
C432 C435 1.403 . S
C433 C430 1.403 . S
C433 C434 1.524 . S
C433 C437 1.400 . S
C434 H419 0.960 . S
C434 H420 0.960 . S
C434 H421 0.960 . S
C434 C433 1.524 . S
C435 C432 1.403 . S
C435 C436 1.392 . S
C435 C439 1.495 . S
C436 C435 1.392 . S
C436 C437 1.385 . S
C436 C438 1.478 . S
C437 H431 0.930 . S
C437 C433 1.400 . S
C437 C436 1.385 . S
C438 C436 1.478 . S
C438 C440 1.381 . S
C438 C444 1.383 . S
C439 C435 1.495 . S
C439 H445 0.959 . S
C439 H446 0.961 . S
C439 H447 0.960 . S
C440 C438 1.381 . S
C440 C441 1.394 . S
C440 H448 0.930 . S
C441 C440 1.394 . S
C441 C442 1.383 . S
C441 H449 0.929 . S
C442 C441 1.383 . S
C442 C443 1.377 . S
C443 H427 0.930 . S
C443 C442 1.377 . S
C443 C444 1.379 . S
C444 H428 0.931 . S
C444 C438 1.383 . S
C444 C443 1.379 . S
H445 C439 0.959 . S
H446 C439 0.961 . S
H447 C439 0.960 . S
H448 C440 0.930 . S
H449 C441 0.929 . S
H450 C458 0.929 . S
H451 C460 0.930 . S
H452 C462 0.930 . S
H453 C465 0.929 . S
H454 C468 0.930 . S
H455 C470 0.960 . S
H456 C470 0.960 . S
H457 C470 0.960 . S
C458 H450 0.929 . S
C458 C459 1.377 . S
C458 C460 1.384 . S
C459 C458 1.377 . S
C459 C465 1.390 . S
C460 H451 0.930 . S
C460 C458 1.384 . S
C460 C461 1.372 . S
C461 C460 1.372 . S
C461 C462 1.400 . S
C461 C466 1.490 . S
C462 H452 0.930 . S
C462 C461 1.400 . S
C462 C465 1.386 . S
H463 C479 0.917 1_455 S
H464 C480 0.931 . S
C465 H453 0.929 . S
C465 C459 1.390 . S
C465 C462 1.386 . S
C466 C461 1.490 . S
C466 C468 1.395 . S
C466 C469 1.403 . S
H467 C473 0.930 . S
C468 H454 0.930 . S
C468 C466 1.395 . S
C468 C471 1.403 . S
C469 C466 1.403 . S
C469 C470 1.524 . S
C469 C473 1.400 . S
C470 H455 0.960 . S
C470 H456 0.960 . S
C470 H457 0.960 . S
C470 C469 1.524 . S
C471 C468 1.403 . S
C471 C472 1.392 . S
C471 C475 1.495 . S
C472 C471 1.392 . S
C472 C473 1.385 . S
C472 C474 1.478 . S
C473 H467 0.930 . S
C473 C469 1.400 . S
C473 C472 1.385 . S
C474 C472 1.478 . S
C474 C476 1.381 . S
C474 C480 1.383 . S
C475 C471 1.495 . S
C475 H481 0.959 . S
C475 H482 0.961 . S
C475 H483 0.960 . S
C476 C474 1.381 . S
C476 C477 1.394 1_655 S
C476 H484 0.930 . S
C477 C476 1.394 1_455 S
C477 C478 1.383 . S
C477 H485 0.929 . S
C478 C477 1.383 . S
C478 C479 1.377 1_455 S
C479 H463 0.917 1_655 S
C479 C478 1.377 1_655 S
C479 C480 1.379 . S
C480 H464 0.931 . S
C480 C474 1.383 . S
C480 C479 1.379 . S
H481 C475 0.959 . S
H482 C475 0.961 . S
H483 C475 0.960 . S
H484 C476 0.930 . S
H485 C477 0.929 . S
H486 C494 0.929 . S
H487 C496 0.930 . S
H488 C498 0.930 . S
H489 C501 0.929 . S
H490 C504 0.930 . S
H491 C506 0.960 . S
H492 C506 0.960 . S
H493 C506 0.960 . S
C494 H486 0.929 . S
C494 C495 1.377 . S
C494 C496 1.384 . S
C495 C494 1.377 . S
C495 C501 1.390 . S
C496 H487 0.930 . S
C496 C494 1.384 . S
C496 C497 1.372 . S
C497 C496 1.372 . S
C497 C498 1.400 . S
C497 C502 1.490 . S
C498 H488 0.930 . S
C498 C497 1.400 . S
C498 C501 1.386 . S
H499 C515 0.930 . S
H500 C516 0.931 . S
C501 H489 0.929 . S
C501 C495 1.390 . S
C501 C498 1.386 . S
C502 C497 1.490 . S
C502 C504 1.395 . S
C502 C505 1.403 . S
H503 C509 0.930 . S
C504 H490 0.930 . S
C504 C502 1.395 . S
C504 C507 1.403 . S
C505 C502 1.403 . S
C505 C506 1.524 . S
C505 C509 1.400 . S
C506 H491 0.960 . S
C506 H492 0.960 . S
C506 H493 0.960 . S
C506 C505 1.524 . S
C507 C504 1.403 . S
C507 C508 1.392 . S
C507 C511 1.495 . S
C508 C507 1.392 . S
C508 C509 1.385 . S
C508 C510 1.478 . S
C509 H503 0.930 . S
C509 C505 1.400 . S
C509 C508 1.385 . S
C510 C508 1.478 . S
C510 C512 1.381 . S
C510 C516 1.383 . S
C511 C507 1.495 . S
C511 H517 0.959 . S
C511 H518 0.961 . S
C511 H519 0.960 . S
C512 C510 1.381 . S
C512 C513 1.394 . S
C512 H520 0.930 . S
C513 C512 1.394 . S
C513 C514 1.383 . S
C513 H521 0.929 . S
C514 C513 1.383 . S
C514 C515 1.377 . S
C515 H499 0.930 . S
C515 C514 1.377 . S
C515 C516 1.379 . S
C516 H500 0.931 . S
C516 C510 1.383 . S
C516 C515 1.379 . S
H517 C511 0.959 . S
H518 C511 0.961 . S
H519 C511 0.960 . S
H520 C512 0.930 . S
H521 C513 0.929 . S
H522 C530 0.929 . S
H523 C532 0.930 . S
H524 C534 0.930 . S
H525 C537 0.929 . S
H526 C540 0.930 . S
H527 C542 0.960 . S
H528 C542 0.960 . S
H529 C542 0.960 . S
C530 H522 0.929 . S
C530 C531 1.377 . S
C530 C532 1.384 . S
C531 C530 1.377 . S
C531 C537 1.390 . S
C532 H523 0.930 . S
C532 C530 1.384 . S
C532 C533 1.372 . S
C533 C532 1.372 . S
C533 C534 1.400 . S
C533 C538 1.490 . S
C534 H524 0.930 . S
C534 C533 1.400 . S
C534 C537 1.386 . S
H535 C551 0.930 . S
H536 C552 0.931 . S
C537 H525 0.929 . S
C537 C531 1.390 . S
C537 C534 1.386 . S
C538 C533 1.490 . S
C538 C540 1.395 . S
C538 C541 1.403 . S
H539 C545 0.930 . S
C540 H526 0.930 . S
C540 C538 1.395 . S
C540 C543 1.403 . S
C541 C538 1.403 . S
C541 C542 1.524 . S
C541 C545 1.400 . S
C542 H527 0.960 . S
C542 H528 0.960 . S
C542 H529 0.960 . S
C542 C541 1.524 . S
C543 C540 1.403 . S
C543 C544 1.392 . S
C543 C547 1.495 . S
C544 C543 1.392 . S
C544 C545 1.385 . S
C544 C546 1.478 . S
C545 H539 0.930 . S
C545 C541 1.400 . S
C545 C544 1.385 . S
C546 C544 1.478 . S
C546 C548 1.381 . S
C546 C552 1.383 . S
C547 C543 1.495 . S
C547 H553 0.959 . S
C547 H554 0.961 . S
C547 H555 0.960 . S
C548 C546 1.381 . S
C548 C549 1.394 . S
C548 H556 0.930 . S
C549 C548 1.394 . S
C549 C550 1.383 . S
C549 H557 0.929 . S
C550 C549 1.383 . S
C550 C551 1.377 . S
C551 H535 0.930 . S
C551 C550 1.377 . S
C551 C552 1.379 . S
C552 H536 0.931 . S
C552 C546 1.383 . S
C552 C551 1.379 . S
H553 C547 0.959 . S
H554 C547 0.961 . S
H555 C547 0.960 . S
H556 C548 0.930 . S
H557 C549 0.929 . S
H558 C566 0.929 . S
H559 C568 0.930 . S
H560 C570 0.930 . S
H561 C573 0.929 . S
H562 C576 0.930 . S
H563 C578 0.960 . S
H564 C578 0.960 . S
H565 C578 0.960 . S
C566 H558 0.929 . S
C566 C567 1.377 . S
C566 C568 1.384 . S
C567 C566 1.377 . S
C567 C573 1.390 . S
C568 H559 0.930 . S
C568 C566 1.384 . S
C568 C569 1.372 . S
C569 C568 1.372 . S
C569 C570 1.400 . S
C569 C574 1.490 . S
C570 H560 0.930 . S
C570 C569 1.400 . S
C570 C573 1.386 . S
H571 C587 0.930 . S
H572 C588 0.931 . S
C573 H561 0.929 . S
C573 C567 1.390 . S
C573 C570 1.386 . S
C574 C569 1.490 . S
C574 C576 1.395 . S
C574 C577 1.403 . S
H575 C581 0.930 . S
C576 H562 0.930 . S
C576 C574 1.395 . S
C576 C579 1.403 . S
C577 C574 1.403 . S
C577 C578 1.524 . S
C577 C581 1.400 . S
C578 H563 0.960 . S
C578 H564 0.960 . S
C578 H565 0.960 . S
C578 C577 1.524 . S
C579 C576 1.403 . S
C579 C580 1.392 . S
C579 C583 1.495 . S
C580 C579 1.392 . S
C580 C581 1.385 . S
C580 C582 1.478 . S
C581 H575 0.930 . S
C581 C577 1.400 . S
C581 C580 1.385 . S
C582 C580 1.478 . S
C582 C584 1.381 . S
C582 C588 1.383 . S
C583 C579 1.495 . S
C583 H589 0.959 . S
C583 H590 0.961 . S
C583 H591 0.960 . S
C584 C582 1.381 . S
C584 C585 1.394 . S
C584 H592 0.930 . S
C585 C584 1.394 . S
C585 C586 1.383 . S
C585 H593 0.929 . S
C586 C585 1.383 . S
C586 C587 1.377 . S
C587 H571 0.930 . S
C587 C586 1.377 . S
C587 C588 1.379 . S
C588 H572 0.931 . S
C588 C582 1.383 . S
C588 C587 1.379 . S
H589 C583 0.959 . S
H590 C583 0.961 . S
H591 C583 0.960 . S
H592 C584 0.930 . S
H593 C585 0.929 . S
H594 C602 0.929 . S
H595 C604 0.930 . S
H596 C606 0.930 . S
H597 C609 0.929 . S
H598 C612 0.930 . S
H599 C614 0.960 . S
H600 C614 0.960 . S
H601 C614 0.960 . S
C602 H594 0.929 . S
C602 C603 1.377 . S
C602 C604 1.384 . S
C603 C602 1.377 . S
C603 C609 1.390 . S
C604 H595 0.930 . S
C604 C602 1.384 . S
C604 C605 1.372 . S
C605 C604 1.372 . S
C605 C606 1.400 . S
C605 C610 1.490 . S
C606 H596 0.930 . S
C606 C605 1.400 . S
C606 C609 1.386 . S
H607 C623 0.930 . S
H608 C624 0.931 . S
C609 H597 0.929 . S
C609 C603 1.390 . S
C609 C606 1.386 . S
C610 C605 1.490 . S
C610 C612 1.395 . S
C610 C613 1.403 . S
H611 C617 0.930 . S
C612 H598 0.930 . S
C612 C610 1.395 . S
C612 C615 1.403 . S
C613 C610 1.403 . S
C613 C614 1.524 . S
C613 C617 1.400 . S
C614 H599 0.960 . S
C614 H600 0.960 . S
C614 H601 0.960 . S
C614 C613 1.524 . S
C615 C612 1.403 . S
C615 C616 1.392 . S
C615 C619 1.495 . S
C616 C615 1.392 . S
C616 C617 1.385 . S
C616 C618 1.478 . S
C617 H611 0.930 . S
C617 C613 1.400 . S
C617 C616 1.385 . S
C618 C616 1.478 . S
C618 C620 1.381 . S
C618 C624 1.383 . S
C619 C615 1.495 . S
C619 H625 0.959 . S
C619 H626 0.961 . S
C619 H627 0.960 . S
C620 C618 1.381 . S
C620 C621 1.394 . S
C620 H628 0.930 . S
C621 C620 1.394 . S
C621 C622 1.383 . S
C621 H629 0.929 . S
C622 C621 1.383 . S
C622 C623 1.377 . S
C623 H607 0.930 . S
C623 C622 1.377 . S
C623 C624 1.379 . S
C624 H608 0.931 . S
C624 C618 1.383 . S
C624 C623 1.379 . S
H625 C619 0.959 . S
H626 C619 0.961 . S
H627 C619 0.960 . S
H628 C620 0.930 . S
H629 C621 0.929 . S
H630 C638 0.929 . S
H631 C640 0.930 . S
H632 C642 0.930 . S
H633 C645 0.929 . S
H634 C648 0.930 1_655 S
H635 C650 0.960 . S
H636 C650 0.960 . S
H637 C650 0.960 . S
C638 H630 0.929 . S
C638 C639 1.377 1_655 S
C638 C640 1.384 . S
C639 C638 1.377 1_455 S
C639 C645 1.390 . S
C640 H631 0.930 . S
C640 C638 1.384 . S
C640 C641 1.372 1_655 S
C641 C640 1.372 1_455 S
C641 C642 1.400 . S
C641 C646 1.490 . S
C642 H632 0.930 . S
C642 C641 1.400 . S
C642 C645 1.386 . S
H643 C659 0.930 . S
H644 C660 0.931 . S
C645 H633 0.929 . S
C645 C639 1.390 . S
C645 C642 1.386 . S
C646 C641 1.490 . S
C646 C648 1.395 . S
C646 C649 1.403 . S
H647 C653 0.930 1_556 S
C648 H634 0.930 1_455 S
C648 C646 1.395 . S
C648 C651 1.403 . S
C649 C646 1.403 . S
C649 C650 1.524 . S
C649 C653 1.400 . S
C650 H635 0.960 . S
C650 H636 0.960 . S
C650 H637 0.960 . S
C650 C649 1.524 . S
C651 C648 1.403 . S
C651 C652 1.392 1_554 S
C651 C655 1.495 1_454 S
C652 C651 1.392 1_556 S
C652 C653 1.385 1_556 S
C652 C654 1.478 . S
C653 H647 0.930 1_554 S
C653 C649 1.400 . S
C653 C652 1.385 1_554 S
C654 C652 1.478 . S
C654 C656 1.381 . S
C654 C660 1.383 . S
C655 C651 1.495 1_656 S
C655 H661 0.989 . S
C655 H662 0.968 . S
C655 H663 0.960 . S
C656 C654 1.381 . S
C656 C657 1.394 . S
C656 H664 0.930 1_455 S
C657 C656 1.394 . S
C657 C658 1.383 . S
C657 H665 0.929 . S
C658 C657 1.383 . S
C658 C659 1.377 . S
C659 H643 0.930 . S
C659 C658 1.377 . S
C659 C660 1.379 . S
C660 H644 0.931 . S
C660 C654 1.383 . S
C660 C659 1.379 . S
H661 C655 0.989 . S
H662 C655 0.968 . S
H663 C655 0.960 . S
H664 C656 0.930 1_655 S
H665 C657 0.929 . S
H666 C674 0.912 1_565 S
H667 C676 0.930 1_565 S
H668 C678 0.930 . S
H669 C681 0.929 . S
H670 C684 0.930 . S
H671 C686 0.960 . S
H672 C686 0.960 . S
H673 C686 0.960 . S
C674 H666 0.912 1_545 S
C674 C675 1.377 . S
C674 C676 1.384 . S
C675 C674 1.377 . S
C675 C681 1.390 . S
C676 H667 0.930 1_545 S
C676 C674 1.384 . S
C676 C677 1.372 . S
C677 C676 1.372 . S
C677 C678 1.400 . S
C677 C682 1.490 . S
C678 H668 0.930 . S
C678 C677 1.400 . S
C678 C681 1.386 . S
H679 C695 0.930 . S
H680 C696 0.931 . S
C681 H669 0.929 . S
C681 C675 1.390 . S
C681 C678 1.386 . S
C682 C677 1.490 . S
C682 C684 1.395 1_545 S
C682 C685 1.403 . S
H683 C689 0.930 . S
C684 H670 0.930 . S
C684 C682 1.395 1_565 S
C684 C687 1.403 . S
C685 C682 1.403 . S
C685 C686 1.524 . S
C685 C689 1.400 . S
C686 H671 0.960 . S
C686 H672 0.960 . S
C686 H673 0.960 . S
C686 C685 1.524 . S
C687 C684 1.403 . S
C687 C688 1.392 1_565 S
C687 C691 1.495 . S
C688 C687 1.392 1_545 S
C688 C689 1.385 . S
C688 C690 1.478 . S
C689 H683 0.930 . S
C689 C685 1.400 . S
C689 C688 1.385 . S
C690 C688 1.478 . S
C690 C692 1.390 . S
C690 C696 1.383 . S
C691 C687 1.495 . S
C691 H697 0.959 . S
C691 H698 0.961 . S
C691 H699 0.960 . S
C692 C690 1.390 . S
C692 C693 1.396 . S
C692 H700 0.919 1_545 S
C693 C692 1.396 . S
C693 C694 1.383 . S
C693 H701 0.926 1_545 S
C694 C693 1.383 . S
C694 C695 1.377 . S
C695 H679 0.930 . S
C695 C694 1.377 . S
C695 C696 1.379 . S
C696 H680 0.931 . S
C696 C690 1.383 . S
C696 C695 1.379 . S
H697 C691 0.959 . S
H698 C691 0.961 . S
H699 C691 0.960 . S
H700 C692 0.919 1_565 S
H701 C693 0.926 1_565 S
H702 C710 0.929 . S
H703 C712 0.930 . S
H704 C714 0.930 . S
H705 C717 0.929 . S
H706 C720 0.930 . S
H707 C722 0.960 . S
H708 C722 0.960 . S
H709 C722 0.960 . S
C710 H702 0.929 . S
C710 C711 1.377 . S
C710 C712 1.384 . S
C711 C710 1.377 . S
C711 C717 1.390 . S
C712 H703 0.930 . S
C712 C710 1.384 . S
C712 C713 1.372 . S
C713 C712 1.372 . S
C713 C714 1.400 . S
C713 C718 1.490 . S
C714 H704 0.930 . S
C714 C713 1.400 . S
C714 C717 1.386 . S
H715 C731 0.930 . S
H716 C732 0.931 . S
C717 H705 0.929 . S
C717 C711 1.390 . S
C717 C714 1.386 . S
C718 C713 1.490 . S
C718 C720 1.395 . S
C718 C721 1.403 . S
H719 C725 0.930 . S
C720 H706 0.930 . S
C720 C718 1.395 . S
C720 C723 1.403 . S
C721 C718 1.403 . S
C721 C722 1.524 . S
C721 C725 1.400 . S
C722 H707 0.960 . S
C722 H708 0.960 . S
C722 H709 0.960 . S
C722 C721 1.524 . S
C723 C720 1.403 . S
C723 C724 1.392 . S
C723 C727 1.495 . S
C724 C723 1.392 . S
C724 C725 1.385 . S
C724 C726 1.478 . S
C725 H719 0.930 . S
C725 C721 1.400 . S
C725 C724 1.385 . S
C726 C724 1.478 . S
C726 C728 1.381 . S
C726 C732 1.383 . S
C727 C723 1.495 . S
C727 H733 0.959 . S
C727 H734 0.961 . S
C727 H735 0.960 . S
C728 C726 1.381 . S
C728 C729 1.394 . S
C728 H736 0.930 . S
C729 C728 1.394 . S
C729 C730 1.383 . S
C729 H737 0.929 . S
C730 C729 1.383 . S
C730 C731 1.377 . S
C731 H715 0.930 . S
C731 C730 1.377 . S
C731 C732 1.379 . S
C732 H716 0.931 . S
C732 C726 1.383 . S
C732 C731 1.379 . S
H733 C727 0.959 . S
H734 C727 0.961 . S
H735 C727 0.960 . S
H736 C728 0.930 . S
H737 C729 0.929 . S
H738 C746 0.929 . S
H739 C748 0.930 . S
H740 C750 0.930 . S
H741 C753 0.929 . S
H742 C756 0.930 . S
H743 C758 0.960 . S
H744 C758 0.960 1_545 S
H745 C758 0.960 . S
C746 H738 0.929 . S
C746 C747 1.377 . S
C746 C748 1.384 . S
C747 C746 1.377 . S
C747 C753 1.390 1_545 S
C748 H739 0.930 . S
C748 C746 1.384 . S
C748 C749 1.372 . S
C749 C748 1.372 . S
C749 C750 1.400 1_545 S
C749 C754 1.490 . S
C750 H740 0.930 . S
C750 C749 1.400 1_565 S
C750 C753 1.386 . S
H751 C767 0.930 . S
H752 C768 0.931 . S
C753 H741 0.929 . S
C753 C747 1.390 1_565 S
C753 C750 1.386 . S
C754 C749 1.490 . S
C754 C756 1.395 . S
C754 C757 1.404 . S
H755 C761 0.921 1_565 S
C756 H742 0.930 . S
C756 C754 1.395 . S
C756 C759 1.403 . S
C757 C754 1.404 . S
C757 C758 1.523 1_545 S
C757 C761 1.398 . S
C758 H743 0.960 . S
C758 H744 0.960 1_565 S
C758 H745 0.960 . S
C758 C757 1.523 1_565 S
C759 C756 1.403 . S
C759 C760 1.392 . S
C759 C763 1.495 . S
C760 C759 1.392 . S
C760 C761 1.397 . S
C760 C762 1.478 . S
C761 H755 0.921 1_545 S
C761 C757 1.398 . S
C761 C760 1.397 . S
C762 C760 1.478 . S
C762 C764 1.381 . S
C762 C768 1.383 1_545 S
C763 C759 1.495 . S
C763 H769 0.959 . S
C763 H770 0.961 1_545 S
C763 H771 0.960 . S
C764 C762 1.381 . S
C764 C765 1.394 . S
C764 H772 0.930 . S
C765 C764 1.394 . S
C765 C766 1.383 . S
C765 H773 0.929 . S
C766 C765 1.383 . S
C766 C767 1.377 1_545 S
C767 H751 0.930 . S
C767 C766 1.377 1_565 S
C767 C768 1.379 . S
C768 H752 0.931 . S
C768 C762 1.383 1_565 S
C768 C767 1.379 . S
H769 C763 0.959 . S
H770 C763 0.961 1_565 S
H771 C763 0.960 . S
H772 C764 0.930 . S
H773 C765 0.929 . S
H774 C782 0.929 . S
H775 C784 0.930 . S
H776 C786 0.930 . S
H777 C789 0.929 . S
H778 C792 0.930 . S
H779 C794 0.960 . S
H780 C794 0.960 . S
H781 C794 0.960 . S
C782 H774 0.929 . S
C782 C783 1.377 . S
C782 C784 1.384 . S
C783 C782 1.377 . S
C783 C789 1.390 . S
C784 H775 0.930 . S
C784 C782 1.384 . S
C784 C785 1.372 . S
C785 C784 1.372 . S
C785 C786 1.400 . S
C785 C790 1.490 . S
C786 H776 0.930 . S
C786 C785 1.400 . S
C786 C789 1.386 . S
H787 C803 0.930 . S
H788 C804 0.931 . S
C789 H777 0.929 . S
C789 C783 1.390 . S
C789 C786 1.386 . S
C790 C785 1.490 . S
C790 C792 1.395 . S
C790 C793 1.403 . S
H791 C797 0.930 1_554 S
C792 H778 0.930 . S
C792 C790 1.395 . S
C792 C795 1.403 . S
C793 C790 1.403 . S
C793 C794 1.524 . S
C793 C797 1.400 . S
C794 H779 0.960 . S
C794 H780 0.960 . S
C794 H781 0.960 . S
C794 C793 1.524 . S
C795 C792 1.403 . S
C795 C796 1.392 1_556 S
C795 C799 1.495 1_556 S
C796 C795 1.392 1_554 S
C796 C797 1.385 1_554 S
C796 C798 1.478 . S
C797 H791 0.930 1_556 S
C797 C793 1.400 . S
C797 C796 1.385 1_556 S
C798 C796 1.478 . S
C798 C800 1.381 . S
C798 C804 1.383 . S
C799 C795 1.495 1_554 S
C799 H805 0.959 1_554 S
C799 H806 0.961 . S
C799 H807 0.960 . S
C800 C798 1.381 . S
C800 C801 1.394 . S
C800 H808 0.930 . S
C801 C800 1.394 . S
C801 C802 1.383 . S
C801 H809 0.929 . S
C802 C801 1.383 . S
C802 C803 1.377 . S
C803 H787 0.930 . S
C803 C802 1.377 . S
C803 C804 1.379 . S
C804 H788 0.931 . S
C804 C798 1.383 . S
C804 C803 1.379 . S
H805 C799 0.959 1_556 S
H806 C799 0.961 . S
H807 C799 0.960 . S
H808 C800 0.930 . S
H809 C801 0.929 . S
H810 C818 0.929 . S
H811 C820 0.930 . S
H812 C822 0.930 . S
H813 C825 0.929 . S
H814 C828 0.930 . S
H815 C830 0.960 . S
H816 C830 0.960 . S
H817 C830 0.960 . S
C818 H810 0.929 . S
C818 C819 1.377 1_655 S
C818 C820 1.384 . S
C819 C818 1.377 1_455 S
C819 C825 1.390 . S
C820 H811 0.930 . S
C820 C818 1.384 . S
C820 C821 1.372 1_655 S
C821 C820 1.372 1_455 S
C821 C822 1.400 . S
C821 C826 1.490 . S
C822 H812 0.930 . S
C822 C821 1.400 . S
C822 C825 1.386 . S
H823 C839 0.930 . S
H824 C840 0.931 . S
C825 H813 0.929 . S
C825 C819 1.390 . S
C825 C822 1.386 . S
C826 C821 1.490 . S
C826 C828 1.395 . S
C826 C829 1.403 1_455 S
H827 C833 0.942 . S
C828 H814 0.930 . S
C828 C826 1.395 . S
C828 C831 1.403 . S
C829 C826 1.403 1_655 S
C829 C830 1.524 . S
C829 C833 1.402 . S
C830 H815 0.960 . S
C830 H816 0.960 . S
C830 H817 0.960 . S
C830 C829 1.524 . S
C831 C828 1.403 . S
C831 C832 1.392 . S
C831 C835 1.495 . S
C832 C831 1.392 . S
C832 C833 1.372 1_455 S
C832 C834 1.478 . S
C833 H827 0.942 . S
C833 C829 1.402 . S
C833 C832 1.372 1_655 S
C834 C832 1.478 . S
C834 C836 1.381 . S
C834 C840 1.383 . S
C835 C831 1.495 . S
C835 H841 0.959 . S
C835 H842 0.961 . S
C835 H843 0.960 . S
C836 C834 1.381 . S
C836 C837 1.394 . S
C836 H844 0.930 . S
C837 C836 1.394 . S
C837 C838 1.383 . S
C837 H845 0.929 . S
C838 C837 1.383 . S
C838 C839 1.377 . S
C839 H823 0.930 . S
C839 C838 1.377 . S
C839 C840 1.379 . S
C840 H824 0.931 . S
C840 C834 1.383 . S
C840 C839 1.379 . S
H841 C835 0.959 . S
H842 C835 0.961 . S
H843 C835 0.960 . S
H844 C836 0.930 . S
H845 C837 0.929 . S
C207 C10 3.159 . S
C226 C189 2.970 . S
C243 C55 1.048 . S
C262 C167 1.038 . S
C279 C90 1.796 . S
C298 C180 1.765 . S
C315 C19 2.863 . S
C334 C193 2.848 . S
C370 C163 1.278 . S
C351 C46 1.367 . S
C406 C176 1.918 . S
C387 C99 2.024 . S
C423 C50 1.799 . S
C442 C141 1.766 . S
C459 C95 0.299 . S
C478 C154 0.284 . S
C495 C6 1.290 . S
C514 C124 1.252 . S
C550 C137 1.876 . S
C531 C59 2.009 . S
C586 C150 0.404 . S
C567 C86 0.457 . S
C603 C15 1.089 . S
C622 C128 1.092 . S
C658 C155 1.283 . S
C639 C18 1.267 . S
C675 C49 1.485 . S
C694 C129 1.553 . S
C711 C98 1.472 . S
C730 C142 1.496 . S
C766 C181 1.504 . S
C747 C58 1.459 . S
C802 C194 1.738 . S
C783 C89 1.650 . S
C819 C9 1.507 . S
C838 C168 1.575 . S
