# Generated by pormake.
# Topology pyr, (3,6)-cn, num edge types: 1
# Building blocks:
#     Node 0, Type 0, BuildingBlock: QEWDON_clean_linker_0, # of connection points: 3
#     Node 1, Type 0, BuildingBlock: QEWDON_clean_linker_0, # of connection points: 3
#     Node 2, Type 0, BuildingBlock: QEWDON_clean_linker_0, # of connection points: 3
#     Node 3, Type 0, BuildingBlock: QEWDON_clean_linker_0, # of connection points: 3
#     Node 4, Type 0, BuildingBlock: QEWDON_clean_linker_0, # of connection points: 3
#     Node 5, Type 0, BuildingBlock: QEWDON_clean_linker_0, # of connection points: 3
#     Node 6, Type 0, BuildingBlock: QEWDON_clean_linker_0, # of connection points: 3
#     Node 7, Type 0, BuildingBlock: QEWDON_clean_linker_0, # of connection points: 3
#     Node 8, Type 1, BuildingBlock: BETDAH_clean_sbu_0, # of connection points: 6
#     Node 9, Type 1, BuildingBlock: BETDAH_clean_sbu_0, # of connection points: 6
#     Node 10, Type 1, BuildingBlock: BETDAH_clean_sbu_0, # of connection points: 6
#     Node 11, Type 1, BuildingBlock: BETDAH_clean_sbu_0, # of connection points: 6
#     Edge 12, Type (0, 1), BuildingBlock: AJUNOK_clean_linker_0, # of connection points: 2
#     Edge 13, Type (0, 1), BuildingBlock: AJUNOK_clean_linker_0, # of connection points: 2
#     Edge 14, Type (0, 1), BuildingBlock: AJUNOK_clean_linker_0, # of connection points: 2
#     Edge 15, Type (0, 1), BuildingBlock: AJUNOK_clean_linker_0, # of connection points: 2
#     Edge 16, Type (0, 1), BuildingBlock: AJUNOK_clean_linker_0, # of connection points: 2
#     Edge 17, Type (0, 1), BuildingBlock: AJUNOK_clean_linker_0, # of connection points: 2
#     Edge 18, Type (0, 1), BuildingBlock: AJUNOK_clean_linker_0, # of connection points: 2
#     Edge 19, Type (0, 1), BuildingBlock: AJUNOK_clean_linker_0, # of connection points: 2
#     Edge 20, Type (0, 1), BuildingBlock: AJUNOK_clean_linker_0, # of connection points: 2
#     Edge 21, Type (0, 1), BuildingBlock: AJUNOK_clean_linker_0, # of connection points: 2
#     Edge 22, Type (0, 1), BuildingBlock: AJUNOK_clean_linker_0, # of connection points: 2
#     Edge 23, Type (0, 1), BuildingBlock: AJUNOK_clean_linker_0, # of connection points: 2
#     Edge 24, Type (0, 1), BuildingBlock: AJUNOK_clean_linker_0, # of connection points: 2
#     Edge 25, Type (0, 1), BuildingBlock: AJUNOK_clean_linker_0, # of connection points: 2
#     Edge 26, Type (0, 1), BuildingBlock: AJUNOK_clean_linker_0, # of connection points: 2
#     Edge 27, Type (0, 1), BuildingBlock: AJUNOK_clean_linker_0, # of connection points: 2
#     Edge 28, Type (0, 1), BuildingBlock: AJUNOK_clean_linker_0, # of connection points: 2
#     Edge 29, Type (0, 1), BuildingBlock: AJUNOK_clean_linker_0, # of connection points: 2
#     Edge 30, Type (0, 1), BuildingBlock: AJUNOK_clean_linker_0, # of connection points: 2
#     Edge 31, Type (0, 1), BuildingBlock: AJUNOK_clean_linker_0, # of connection points: 2
#     Edge 32, Type (0, 1), BuildingBlock: AJUNOK_clean_linker_0, # of connection points: 2
#     Edge 33, Type (0, 1), BuildingBlock: AJUNOK_clean_linker_0, # of connection points: 2
#     Edge 34, Type (0, 1), BuildingBlock: AJUNOK_clean_linker_0, # of connection points: 2
#     Edge 35, Type (0, 1), BuildingBlock: AJUNOK_clean_linker_0, # of connection points: 2
# Relax obj value: 0.223
# Max RMSD: 0.265
# Mean RMSD: 0.197
data_MOF--net-pyr--node1-BETDAH_clean_sbu_0--node2-QEWDON_clean_linker_0--edge1-AJUNOK_clean_linker_0
_symmetry_space_group_name_H-M    P1
_symmetry_Int_Tables_number       1
_symmetry_cell_setting            triclinic
loop_
_symmetry_equiv_pos_as_xyz
'x, y, z'
_cell_length_a     28.595984
_cell_length_b     31.118289
_cell_length_c     29.128756
_cell_angle_alpha  91.949576
_cell_angle_beta   89.432828
_cell_angle_gamma 112.64095
loop_
_atom_site_label
_atom_site_type_symbol
_atom_site_fract_x
_atom_site_fract_y
_atom_site_fract_z
_atom_type_partial_charge
H0 H 0.49547 0.37599 0.19649 0.0
C1 C 0.48086 0.37562 0.23101 0.0
C2 C 0.47821 0.33957 0.26006 0.0
C3 C 0.46047 0.40854 0.24476 0.0
H4 H 0.45097 0.30786 0.32474 0.0
C5 C 0.45552 0.33703 0.30334 0.0
C6 C 0.43524 0.36978 0.31763 0.0
C7 C 0.43886 0.40592 0.28865 0.0
C8 C 0.45617 0.44218 0.21169 0.0
H9 H 0.42258 0.4308 0.2996 0.0
C10 C 0.41089 0.44983 0.20914 0.0
C11 C 0.40552 0.48113 0.17808 0.0
C12 C 0.496 0.46568 0.18176 0.0
H13 H 0.53134 0.46056 0.18292 0.0
C14 C 0.49058 0.49637 0.15021 0.0
H15 H 0.37908 0.43051 0.23064 0.0
C16 C 0.44558 0.50407 0.14826 0.0
H17 H 0.44225 0.52824 0.12384 0.0
H18 H 0.52144 0.51437 0.12729 0.0
H19 H 0.14971 0.87425 0.804 0.0
C20 C 0.17538 0.85796 0.79259 0.0
C21 C 0.21258 0.85649 0.82269 0.0
C22 C 0.17271 0.84083 0.74714 0.0
H23 H 0.27762 0.83831 0.82928 0.0
C24 C 0.24674 0.83684 0.80713 0.0
C25 C 0.24456 0.81957 0.76173 0.0
C26 C 0.20673 0.8208 0.73204 0.0
C27 C 0.1385 0.84926 0.71432 0.0
H28 H 0.20549 0.80852 0.69662 0.0
C29 C 0.14024 0.89468 0.71008 0.0
C30 C 0.10775 0.90353 0.6796 0.0
C31 C 0.10457 0.81272 0.68708 0.0
H32 H 0.10294 0.77753 0.68973 0.0
C33 C 0.07193 0.82142 0.65672 0.0
H34 H 0.16704 0.92325 0.73041 0.0
C35 C 0.07331 0.86657 0.65305 0.0
H36 H 0.04812 0.87281 0.629 0.0
H37 H 0.04557 0.79313 0.63593 0.0
H38 H 0.74618 0.51852 0.95254 0.0
C39 C 0.72805 0.48173 0.95919 0.0
C40 C 0.75175 0.46094 0.9891 0.0
C41 C 0.67894 0.45644 0.94109 0.0
H42 H 0.74348 0.39606 1.02036 0.0
C43 C 0.72585 0.41318 0.99873 0.0
C44 C 0.67608 0.38761 0.9829 0.0
C45 C 0.65328 0.40969 0.95407 0.0
C46 C 0.649 0.48124 0.91946 0.0
H47 H 0.61435 0.39094 0.94311 0.0
C48 C 0.65706 0.49956 0.87425 0.0
C49 C 0.62588 0.52215 0.85709 0.0
C50 C 0.61 0.48598 0.94616 0.0
H51 H 0.60289 0.47258 0.98051 0.0
C52 C 0.57987 0.50803 0.92949 0.0
H53 H 0.68678 0.49622 0.85292 0.0
C54 C 0.58767 0.52589 0.88566 0.0
H55 H 0.56329 0.54265 0.87377 0.0
H56 H 0.55008 0.51128 0.95078 0.0
H57 H 0.93687 0.87017 0.41628 0.0
C58 C 0.90788 0.84442 0.43611 0.0
C59 C 0.8952 0.85738 0.48024 0.0
C60 C 0.88155 0.79935 0.41581 0.0
H61 H 0.84661 0.83148 0.53868 0.0
C62 C 0.85604 0.82324 0.50435 0.0
C63 C 0.8274 0.77881 0.48462 0.0
C64 C 0.84061 0.76719 0.44021 0.0
C65 C 0.88964 0.79074 0.36552 0.0
H66 H 0.81803 0.7338 0.42407 0.0
C67 C 0.91088 0.75861 0.34788 0.0
C68 C 0.91965 0.75517 0.29956 0.0
C69 C 0.87633 0.81746 0.3342 0.0
H70 H 0.85996 0.84192 0.34628 0.0
C71 C 0.88369 0.81327 0.28721 0.0
H72 H 0.92178 0.73783 0.37134 0.0
C73 C 0.90517 0.78275 0.27012 0.0
H74 H 0.91058 0.78067 0.23335 0.0
H75 H 0.87295 0.83417 0.26377 0.0
H76 H 0.65508 0.79353 1.04244 0.0
C77 C 0.68039 0.81578 1.0174 0.0
C78 C 0.73037 0.81798 1.0131 0.0
C79 C 0.66386 0.84332 0.98927 0.0
H80 H 0.80095 0.84761 0.97658 0.0
C81 C 0.76271 0.84654 0.98043 0.0
C82 C 0.74608 0.87282 0.95192 0.0
C83 C 0.69687 0.87127 0.95639 0.0
C84 C 0.6122 0.84329 0.99196 0.0
H85 H 0.68417 0.89183 0.93402 0.0
C86 C 0.6061 0.88597 0.99681 0.0
C87 C 0.55891 0.88888 0.98873 0.0
C88 C 0.56988 0.80239 0.98235 0.0
H89 H 0.57389 0.76926 0.97798 0.0
C90 C 0.52251 0.80448 0.97567 0.0
H91 H 0.63877 0.91685 1.0065 0.0
C92 C 0.51712 0.84732 0.97801 0.0
H93 H 0.48022 0.84778 0.97097 0.0
H94 H 0.49006 0.77291 0.96734 0.0
H95 H 0.85125 0.25097 0.59103 0.0
C96 C 0.8402 0.24915 0.5553 0.0
C97 C 0.87133 0.24188 0.52088 0.0
C98 C 0.79392 0.25212 0.54404 0.0
H99 H 0.87996 0.23188 0.44835 0.0
C100 C 0.8563 0.23816 0.47495 0.0
C101 C 0.81014 0.24067 0.46311 0.0
C102 C 0.77923 0.24809 0.49764 0.0
C103 C 0.75979 0.25698 0.58079 0.0
H104 H 0.74262 0.24824 0.48858 0.0
C105 C 0.73443 0.28726 0.57579 0.0
C106 C 0.70176 0.29188 0.6102 0.0
C107 C 0.75197 0.23113 0.62087 0.0
H108 H 0.77037 0.20697 0.62544 0.0
C109 C 0.71938 0.23549 0.65509 0.0
H110 H 0.7409 0.30802 0.54545 0.0
C111 C 0.69427 0.26561 0.64985 0.0
H112 H 0.66859 0.26798 0.67648 0.0
H113 H 0.7133 0.21519 0.68564 0.0
H114 H 0.47118 0.88724 0.28584 0.0
C115 C 0.43274 0.86499 0.27622 0.0
C116 C 0.4052 0.88245 0.24716 0.0
C117 C 0.41273 0.8182 0.29088 0.0
H118 H 0.33188 0.86605 0.21642 0.0
C119 C 0.35529 0.85238 0.23515 0.0
C120 C 0.33507 0.80466 0.24581 0.0
C121 C 0.36424 0.78818 0.27447 0.0
C122 C 0.44742 0.7995 0.31503 0.0
H123 H 0.35106 0.75153 0.28168 0.0
C124 C 0.43609 0.77497 0.35724 0.0
C125 C 0.47251 0.76007 0.37777 0.0
C126 C 0.49453 0.80745 0.29428 0.0
H127 H 0.50435 0.82516 0.26206 0.0
C128 C 0.5296 0.79268 0.31413 0.0
H129 H 0.40005 0.7681 0.37394 0.0
C130 C 0.51886 0.76948 0.35529 0.0
H131 H 0.54715 0.75855 0.36975 0.0
H132 H 0.56557 0.7993 0.29738 0.0
H133 H 0.28281 0.52961 0.80739 0.0
C134 C 0.26135 0.49707 0.78924 0.0
C135 C 0.27979 0.486 0.74669 0.0
C136 C 0.21779 0.46409 0.81029 0.0
H137 H 0.26834 0.43282 0.69379 0.0
C138 C 0.2534 0.44191 0.72531 0.0
C139 C 0.20981 0.40857 0.74463 0.0
C140 C 0.19226 0.42044 0.78682 0.0
C141 C 0.205 0.46871 0.86055 0.0
H142 H 0.15952 0.39462 0.80274 0.0
C143 C 0.19113 0.50484 0.8811 0.0
C144 C 0.17683 0.5035 0.92881 0.0
C145 C 0.2051 0.43289 0.88864 0.0
H146 H 0.21612 0.40536 0.87489 0.0
C147 C 0.19025 0.43098 0.93429 0.0
H148 H 0.19102 0.53304 0.8604 0.0
C149 C 0.17559 0.46515 0.95382 0.0
H150 H 0.16261 0.46106 0.98907 0.0
H151 H 0.18957 0.40231 0.9547 0.0
Ho152 Ho 0.0979 0.14237 0.57267 0.0
Ho153 Ho 0.03074 0.11927 0.65424 0.0
C154 C 0.12276 0.21814 0.65968 0.0
C155 C 0.15457 0.17835 0.50307 0.0
C156 C 0.20105 0.21832 0.49133 0.0
C157 C 0.20113 0.26297 0.48509 0.0
C158 C 0.24411 0.29819 0.4675 0.0
C159 C 0.28751 0.28927 0.45605 0.0
C160 C 0.28796 0.24529 0.46449 0.0
C161 C 0.24526 0.21028 0.48184 0.0
C162 C 0.1126 0.08023 0.62667 0.0
C163 C 1.003 1.04598 0.56497 0.0
C164 C 0.97588 0.08925 0.72619 0.0
C165 C 0.94287 0.04848 0.75133 0.0
C166 C 0.96352 1.02772 0.7832 0.0
C167 C 0.93199 0.99492 0.81297 0.0
C168 C 0.87946 0.98348 0.81238 0.0
C169 C 0.85862 1.00251 0.77908 0.0
C170 C 0.89005 1.03475 0.74882 0.0
C171 C 1.01546 0.17909 0.59725 0.0
O172 O 0.13062 0.21002 0.61586 0.0
O173 O 0.09001 0.1851 0.68424 0.0
O174 O 0.16091 0.14779 0.5292 0.0
O175 O 0.11345 0.18568 0.51303 0.0
O176 O 0.11723 0.08041 0.5826 0.0
O177 O 0.10442 0.11548 0.64128 0.0
O178 O 0.99681 0.05243 0.60959 0.0
O179 O 0.03601 0.0794 0.54077 0.0
O180 O 0.95837 0.09861 0.68813 0.0
O181 O 1.02442 0.09792 0.72453 0.0
O182 O 1.01533 0.18286 0.64151 0.0
O183 O 1.02229 0.14268 0.58505 0.0
H184 H 0.16754 0.27018 0.49201 0.0
H185 H 0.24269 0.33174 0.46099 0.0
H186 H 0.32011 0.23679 0.45473 0.0
H187 H 0.2461 0.17607 0.48573 0.0
H188 H 1.00412 1.03784 0.78621 0.0
H189 H 0.94886 0.97976 0.83754 0.0
H190 H 0.81823 0.99436 0.77799 0.0
H191 H 0.87311 0.05071 0.72511 0.0
Ho192 Ho 0.58238 0.13743 0.11937 0.0
Ho193 Ho 0.48168 0.12173 0.08695 0.0
C194 C 0.52085 0.18832 0.17295 0.0
C195 C 0.6763 0.1604 0.1405 0.0
C196 C 0.70144 0.17029 0.18563 0.0
C197 C 0.74136 0.21334 0.19448 0.0
C198 C 0.76076 0.2259 0.23896 0.0
C199 C 0.74057 0.19541 0.275 0.0
C200 C 0.70182 0.15176 0.26584 0.0
C201 C 0.68218 0.13938 0.2216 0.0
C202 C 0.50764 0.06914 0.16691 0.0
C203 C 0.54186 0.06467 1.03638 0.0
C204 C 0.38922 0.09329 0.05805 0.0
C205 C 0.35232 0.05056 1.03686 0.0
C206 C 0.36659 1.01361 1.02382 0.0
C207 C 0.33405 0.9761 0.99731 0.0
C208 C 0.28663 0.97501 0.98352 0.0
C209 C 0.27126 1.01082 0.999 0.0
C210 C 0.304 0.04841 1.02552 0.0
C211 C 0.55242 0.20593 0.06149 0.0
O212 O 0.56612 0.19361 0.15777 0.0
O213 O 0.48064 0.15333 0.15706 0.0
O214 O 0.64541 0.11733 0.13177 0.0
O215 O 0.65758 0.1906 0.12837 0.0
O216 O 0.5477 0.10084 0.18528 0.0
O217 O 0.50953 0.07573 0.12432 0.0
O218 O 0.49734 0.06654 1.04517 0.0
O219 O 0.58319 0.09444 0.05641 0.0
O220 O 0.42864 0.11534 1.03263 0.0
O221 O 0.40125 0.09089 0.10086 0.0
O222 O 0.50735 0.19869 0.07602 0.0
O223 O 0.55831 0.16748 0.06041 0.0
H224 H 0.75644 0.23778 0.16728 0.0
H225 H 0.79119 0.2595 0.24529 0.0
H226 H 0.6857 0.1278 0.29323 0.0
H227 H 0.65091 0.10618 0.216 0.0
H228 H 0.40383 1.01485 1.03209 0.0
H229 H 0.34748 0.94965 0.98505 0.0
H230 H 0.23494 1.01079 0.98874 0.0
H231 H 0.29249 0.07678 1.03536 0.0
Ho232 Ho 0.5407 0.59582 0.5864 0.0
Ho233 Ho 0.56051 0.67951 0.64096 0.0
C234 C 0.59296 0.60366 0.6879 0.0
C235 C 0.54699 0.52462 0.54259 0.0
C236 C 0.56813 0.49013 0.55449 0.0
C237 C 0.61624 0.50419 0.57496 0.0
C238 C 0.63583 0.47122 0.58625 0.0
C239 C 0.60737 0.4235 0.5781 0.0
C240 C 0.55905 0.40946 0.55798 0.0
C241 C 0.53963 0.44255 0.54621 0.0
C242 C 0.45823 0.59314 0.63741 0.0
C243 C 0.50591 0.66915 0.54001 0.0
C244 C 0.5514 0.7478 0.68819 0.0
C245 C 0.50941 0.76353 0.69437 0.0
C246 C 0.47497 0.75858 0.65856 0.0
C247 C 0.4312 0.76731 0.66683 0.0
C248 C 0.4212 0.78099 0.71104 0.0
C249 C 0.45619 0.78681 0.74657 0.0
C250 C 0.49999 0.77818 0.73826 0.0
C251 C 0.64406 0.68313 0.59262 0.0
O252 O 0.58233 0.58169 0.64721 0.0
O253 O 0.58564 0.64272 0.69504 0.0
O254 O 0.50681 0.52275 0.56541 0.0
O255 O 0.57957 0.5673 0.53798 0.0
O256 O 0.45663 0.57779 0.59522 0.0
O257 O 0.50402 0.6086 0.65018 0.0
O258 O 0.51165 0.68796 0.58226 0.0
O259 O 0.5195 0.63377 0.5312 0.0
O260 O 0.5727 0.75269 0.64778 0.0
O261 O 0.54276 0.70711 0.70474 0.0
O262 O 0.64445 0.6987 0.6345 0.0
O263 O 0.59877 0.6672 0.57783 0.0
H264 H 0.63896 0.5407 0.58203 0.0
H265 H 0.67368 0.48323 0.60059 0.0
H266 H 0.53627 0.37288 0.55143 0.0
H267 H 0.50232 0.431 0.53073 0.0
H268 H 0.48104 0.74674 0.62455 0.0
H269 H 0.40446 0.76201 0.63905 0.0
H270 H 0.44937 0.7976 0.78089 0.0
H271 H 0.52579 0.7816 0.76642 0.0
Ho272 Ho 0.04534 0.58408 0.14223 0.0
Ho273 Ho 0.04783 0.67364 0.08504 0.0
C274 C 0.14197 0.68555 0.15382 0.0
C275 C 0.06819 0.51456 0.16206 0.0
C276 C 0.11719 0.50967 0.16659 0.0
C277 C 0.12372 0.47065 0.14681 0.0
C278 C 0.17075 0.46672 0.14916 0.0
C279 C 0.21192 0.50169 0.17156 0.0
C280 C 0.20533 0.54083 0.19119 0.0
C281 C 0.15847 0.54484 0.18866 0.0
C282 C 0.99933 0.63508 0.18984 0.0
C283 C 0.94936 0.57277 0.07706 0.0
C284 C 1.02409 0.74211 0.06313 0.0
C285 C 0.97535 0.74845 0.06449 0.0
C286 C 0.94966 0.74854 0.10604 0.0
C287 C 0.90216 0.75188 0.10589 0.0
C288 C 0.8792 0.75436 0.06421 0.0
C289 C 0.90516 0.75477 1.0229 0.0
C290 C 0.9527 0.75198 1.02306 0.0
C291 C 0.09459 0.62302 1.03777 0.0
O292 O 0.12189 0.64007 0.16142 0.0
O293 O 0.1205 0.70642 0.12654 0.0
O294 O 0.05834 0.54126 0.19325 0.0
O295 O 0.05607 0.52129 0.12038 0.0
O296 O 1.00102 0.59643 0.20398 0.0
O297 O 1.01983 0.64135 0.15053 0.0
O298 O 0.9695 0.61826 0.0696 0.0
O299 O 0.97201 0.55143 0.10223 0.0
O300 O 1.02645 0.71068 1.03313 0.0
O301 O 0.04506 0.74072 0.10255 0.0
O302 O 0.09008 0.65998 1.02233 0.0
O303 O 0.07481 0.61739 0.07736 0.0
H304 H 0.09253 0.4434 0.12922 0.0
H305 H 0.17492 0.43625 0.13368 0.0
H306 H 0.23672 0.56882 0.20769 0.0
H307 H 0.15479 0.57576 0.20351 0.0
H308 H 0.96597 0.74573 0.13861 0.0
H309 H 0.88321 0.75221 0.13821 0.0
H310 H 0.88901 0.75809 0.99036 0.0
H311 H 0.97166 0.7522 0.99062 0.0
C312 C 0.35164 0.35692 0.35309 0.0
C313 C 0.40195 0.36077 0.35842 0.0
C314 C 0.31553 0.33775 0.3872 0.0
C315 C 0.32851 0.32181 0.42787 0.0
H316 H 0.33907 0.36536 0.32088 0.0
H317 H 0.27642 0.33183 0.3799 0.0
S318 S 0.45755 0.33388 0.46258 0.0
N319 N 0.46477 0.35418 0.41018 0.0
N320 N 0.39683 0.31847 0.47484 0.0
C321 C 0.37976 0.32989 0.43554 0.0
C322 C 0.41651 0.34921 0.40064 0.0
C323 C 0.22629 0.92945 0.86815 0.0
C324 C 0.22171 0.88279 0.8672 0.0
C325 C 0.24399 0.95815 0.90733 0.0
C326 C 0.25779 0.94128 0.947 0.0
H327 H 0.21925 0.94482 0.83749 0.0
H328 H 0.25004 0.99462 0.90538 0.0
S329 S 0.24474 0.81974 0.9646 0.0
N330 N 0.22641 0.8194 0.91092 0.0
N331 N 0.25979 0.87362 0.98497 0.0
C332 C 0.24999 0.89386 0.94764 0.0
C333 C 0.23194 0.86456 0.90763 0.0
C334 C 0.64194 0.591 0.80723 0.0
C335 C 0.63042 0.5428 0.81024 0.0
C336 C 0.63206 0.61043 0.76708 0.0
C337 C 0.60996 0.58275 0.72756 0.0
H338 H 0.65608 0.61367 0.83731 0.0
H339 H 0.64011 0.64742 0.76777 0.0
S340 S 0.57287 0.45442 0.71688 0.0
N341 N 0.59626 0.46793 0.76947 0.0
N342 N 0.57838 0.50402 0.69407 0.0
C343 C 0.60039 0.53469 0.72932 0.0
C344 C 0.61032 0.5149 0.77048 0.0
C345 C 0.9198 0.67549 0.27577 0.0
C346 C 0.94425 0.72446 0.27731 0.0
C347 C 0.9377 0.64715 0.24728 0.0
C348 C 0.98027 0.66639 0.21835 0.0
H349 H 0.88556 0.65902 0.29546 0.0
H350 H 0.9173 0.60973 0.24721 0.0
S351 S 0.06197 0.79201 0.2143 0.0
N352 N 1.01607 0.7904 0.24993 0.0
N353 N 0.04972 0.7374 0.19793 0.0
C354 C 1.00618 0.71503 0.22116 0.0
C355 C 0.98815 0.74384 0.25009 0.0
C356 C 0.45725 0.25476 0.24373 0.0
C357 C 0.49268 0.30104 0.24268 0.0
C358 C 0.46761 0.2181 0.22298 0.0
C359 C 0.51404 0.22626 0.2008 0.0
H360 H 0.4203 0.24702 0.25901 0.0
H361 H 0.43842 0.18333 0.22318 0.0
S362 S 0.62103 0.34108 0.19167 0.0
N363 N 0.57695 0.35287 0.22013 0.0
N364 N 0.59693 0.28423 0.18123 0.0
C365 C 0.55073 0.27223 0.20138 0.0
C366 C 0.53989 0.30957 0.22216 0.0
C367 C 0.15592 0.98609 0.65879 0.0
C368 C 0.11093 0.95164 0.67446 0.0
C369 C 0.15755 1.03014 0.6477 0.0
C370 C 0.11482 1.04167 0.65336 0.0
H371 H 0.18908 0.97798 0.65236 0.0
H372 H 0.19157 0.05442 0.63206 0.0
S373 S 0.98951 0.96449 0.69749 0.0
N374 N 1.0238 0.9323 0.6977 0.0
N375 N 1.02754 1.01581 0.67919 0.0
C376 C 0.07089 1.00853 0.67231 0.0
C377 C 0.06873 0.96323 0.68226 0.0
C378 C 0.8408 0.5247 0.98897 0.0
C379 C 0.80194 0.48963 1.01253 0.0
C380 C 0.88779 0.55166 1.01013 0.0
C381 C 0.89876 0.54437 0.05564 0.0
H382 H 0.83524 0.53112 0.95354 0.0
H383 H 0.91622 0.57789 0.99028 0.0
S384 S 0.80927 0.46154 0.13497 0.0
N385 N 0.777 0.45329 0.08656 0.0
N386 N 0.86577 0.5017 0.12459 0.0
C387 C 0.86036 0.51012 0.07988 0.0
C388 C 0.81206 0.48343 0.05887 0.0
C389 C 0.73278 0.72991 0.48973 0.0
C390 C 0.78149 0.74691 0.51004 0.0
C391 C 0.6884 0.70711 0.51574 0.0
C392 C 0.69085 0.70049 0.56324 0.0
H393 H 0.7287 0.73633 0.45397 0.0
H394 H 0.65188 0.69659 0.49895 0.0
S395 S 0.80916 0.73212 0.63144 0.0
N396 N 0.82915 0.7505 0.57957 0.0
N397 N 0.74671 0.7086 0.62807 0.0
C398 C 0.73944 0.71487 0.58315 0.0
C399 C 0.78436 0.73778 0.55677 0.0
C400 C 0.33125 0.4837 0.13498 0.0
C401 C 0.35753 0.48891 0.1767 0.0
C402 C 0.28411 0.4878 0.1336 0.0
C403 C 0.2619 0.49772 0.17379 0.0
H404 H 0.3467 0.47539 0.10339 0.0
H405 H 0.26496 0.48335 0.10079 0.0
S406 S 0.31623 0.51597 0.2914 0.0
N407 N 0.35875 0.50589 0.25887 0.0
N408 N 0.26997 0.51302 0.25636 0.0
C409 C 0.2882 0.50372 0.21558 0.0
C410 C 0.33602 0.49939 0.21699 0.0
C411 C 0.59979 0.33265 1.02462 0.0
C412 C 0.64559 0.34016 1.00146 0.0
C413 C 0.57103 0.28957 1.04407 0.0
C414 C 0.58608 0.25132 1.04106 0.0
H415 H 0.58632 0.3607 1.02842 0.0
H416 H 0.53636 0.28633 0.06172 0.0
S417 S 0.70255 0.25192 0.98322 0.0
N418 N 0.70465 0.30517 0.97648 0.0
N419 N 0.65025 0.22415 1.01235 0.0
C420 C 0.63183 0.25819 1.01795 0.0
C421 C 0.66155 0.30246 0.99842 0.0
C422 C 0.97391 0.93223 0.49369 0.0
C423 C 0.92161 0.90661 0.50079 0.0
C424 C 0.99947 0.97743 0.5135 0.0
C425 C 0.97441 0.99907 0.54225 0.0
H426 H 0.99579 0.91698 0.4733 0.0
H427 H 0.03969 0.99507 0.50725 0.0
S428 S 0.83719 0.95094 0.56866 0.0
N429 N 0.84503 0.9102 0.53543 0.0
N430 N 0.89396 0.99275 0.57485 0.0
C431 C 0.92233 0.97453 0.54932 0.0
C432 C 0.89583 0.92915 0.52813 0.0
C433 C 0.30005 0.77487 0.76963 0.0
C434 C 0.28588 0.80581 0.74462 0.0
C435 C 0.34326 0.76619 0.75783 0.0
C436 C 0.37384 0.78824 0.72065 0.0
H437 H 0.27814 0.75803 0.79918 0.0
H438 H 0.35321 0.74253 0.7783 0.0
S439 S 0.35372 0.87281 0.64471 0.0
N440 N 0.30596 0.85875 0.68117 0.0
N441 N 0.38713 0.84218 0.65887 0.0
C442 C 0.35948 0.81839 0.6947 0.0
C443 C 0.3155 0.82727 0.7067 0.0
C444 C 0.76726 0.89267 0.87026 0.0
C445 C 0.78029 0.90143 0.91695 0.0
C446 C 0.80004 0.91876 0.83645 0.0
C447 C 0.84667 0.95459 0.8484 0.0
H448 H 0.73178 0.86514 0.85985 0.0
H449 H 0.7889 0.9108 0.80073 0.0
S450 S 0.89593 0.99295 0.96661 0.0
N451 N 0.84141 0.94883 0.97388 0.0
N452 N 0.9027 0.99899 0.91054 0.0
C453 C 0.85965 0.96394 0.8952 0.0
C454 C 0.82649 0.93709 0.92947 0.0
C455 C 0.79203 0.1898 0.39248 0.0
C456 C 0.79238 0.23061 0.41506 0.0
C457 C 0.77561 0.17899 0.347 0.0
C458 C 0.75935 0.20873 0.32242 0.0
H459 H 0.80405 0.16581 0.4103 0.0
H460 H 0.77572 0.14709 0.33087 0.0
S461 S 0.75241 0.31945 0.36603 0.0
N462 N 0.77491 0.30078 0.40977 0.0
N463 N 0.74367 0.28023 0.32386 0.0
C464 C 0.75949 0.24969 0.34448 0.0
C465 C 0.77595 0.26055 0.39101 0.0
C466 C 0.48155 0.75832 0.46432 0.0
C467 C 0.46545 0.73395 0.42184 0.0
C468 C 0.49148 0.73659 0.50313 0.0
C469 C 0.487 0.68965 0.50108 0.0
H470 H 0.48965 0.79531 0.46679 0.0
H471 H 0.50577 0.75766 0.53411 0.0
S472 S 0.44228 0.60938 0.39891 0.0
N473 N 0.44248 0.65936 0.38137 0.0
N474 N 0.46115 0.61883 0.45305 0.0
C475 C 0.46849 0.66444 0.45937 0.0
C476 C 0.45788 0.68643 0.42025 0.0
C477 C 0.12426 0.55422 0.93656 0.0
C478 C 0.1609 0.53923 0.95447 0.0
C479 C 0.103 0.5809 0.96377 0.0
C480 C 0.11615 0.59279 1.01058 0.0
H481 H 0.11068 0.54407 0.90171 0.0
H482 H 0.07505 0.5915 0.94821 0.0
S483 S 0.21596 0.56942 0.07236 0.0
N484 N 0.21424 0.54475 1.02099 0.0
N485 N 0.17207 0.5917 0.07187 0.0
C486 C 0.1538 0.57955 1.02844 0.0
C487 C 0.17664 0.55378 1.00053 0.0
C488 C 0.50812 0.93645 1.01216 0.0
C489 C 0.55286 0.93464 0.99315 0.0
C490 C 0.50331 0.97896 1.0216 0.0
C491 C 0.54357 1.02168 1.01429 0.0
H492 H 0.47719 0.90497 1.02203 0.0
H493 H 0.46883 0.9782 1.03762 0.0
S494 S 0.66464 1.03718 0.95639 0.0
N495 N 0.63461 0.98015 0.95898 0.0
N496 N 0.62698 0.06001 0.98124 0.0
C497 C 0.58722 1.02074 0.99264 0.0
C498 C 0.59153 0.97732 0.98115 0.0
C499 C 0.92007 0.19059 0.51641 0.0
C500 C 0.91596 0.23192 0.53341 0.0
C501 C 0.95613 0.17545 0.53424 0.0
C502 C 0.98876 0.20107 0.56976 0.0
H503 H 0.89307 0.16821 0.49143 0.0
H504 H 0.9557 0.14182 0.52265 0.0
S505 S 1.00026 0.31601 0.61923 0.0
N506 N 0.95275 0.30166 0.58232 0.0
N507 N 1.02024 0.27276 0.61641 0.0
C508 C 0.98816 0.24441 0.58402 0.0
C509 C 0.95165 0.2599 0.56576 0.0
C510 C 0.2734 0.78078 0.17815 0.0
C511 C 0.28547 0.77253 0.22329 0.0
C512 C 0.22726 0.75305 0.15631 0.0
C513 C 0.19105 0.71458 0.17769 0.0
H514 H 0.30005 0.80891 0.15896 0.0
H515 H 0.22032 0.76149 0.12191 0.0
S516 S 0.20176 0.67709 0.29557 0.0
N517 N 0.25495 0.72287 0.2888 0.0
N518 N 0.17002 0.6697 0.24693 0.0
C519 C 0.20255 0.70515 0.22236 0.0
C520 C 0.24914 0.73413 0.24517 0.0
C521 C 0.36396 0.49836 0.70931 0.0
C522 C 0.32876 0.51741 0.72483 0.0
C523 C 0.40612 0.52359 0.68228 0.0
C524 C 0.41558 0.56934 0.66954 0.0
H525 H 0.35814 0.46288 0.71715 0.0
H526 H 0.43099 0.50668 0.67035 0.0
S527 S 0.33867 0.63767 0.70363 0.0
N528 N 0.3087 0.58663 0.72706 0.0
N529 N 0.38833 0.63408 0.67679 0.0
C530 C 0.38242 0.58988 0.68634 0.0
C531 C 0.33913 0.56406 0.71394 0.0
C532 C 0.78711 0.81417 0.07482 0.0
C533 C 0.75133 0.79055 1.04047 0.0
C534 C 0.82592 0.79924 0.08615 0.0
C535 C 0.8303 0.76054 0.06306 0.0
H536 H 0.78845 0.84718 0.08928 0.0
H537 H 0.85539 0.82079 0.10966 0.0
S538 S 0.74022 0.68185 0.97721 0.0
N539 N 0.71816 0.72291 0.98872 0.0
N540 N 0.79083 0.69453 1.0101 0.0
C541 C 0.79134 0.73368 1.03264 0.0
C542 C 0.75177 0.74873 1.02139 0.0
C543 C 0.46455 0.96898 0.25232 0.0
C544 C 0.42939 0.93077 0.22695 0.0
C545 C 0.48861 1.01356 0.23334 0.0
C546 C 0.4786 1.02259 0.18805 0.0
H547 H 0.47374 0.96458 0.28735 0.0
H548 H 0.51581 1.0411 0.25431 0.0
S549 S 0.38967 0.93593 0.10643 0.0
N550 N 0.3874 0.90609 0.15265 0.0
N551 N 0.4294 0.98963 0.11903 0.0
C552 C 0.44278 0.98525 0.16269 0.0
C553 C 0.41912 0.93968 0.1815 0.0
C554 C 0.17163 0.31995 0.74892 0.0
C555 C 0.18581 0.36015 0.72236 0.0
C556 C 0.15217 0.27451 0.72857 0.0
C557 C 0.14656 0.26682 0.68051 0.0
H558 H 0.17637 0.32352 0.78588 0.0
H559 H 0.14176 0.24509 0.7508 0.0
S560 S 0.1729 0.35943 0.59531 0.0
N561 N 0.18852 0.38834 0.64509 0.0
N562 N 0.15393 0.30381 0.60718 0.0
C563 C 0.15989 0.3066 0.65357 0.0
C564 C 0.17894 0.35281 0.6743 0.0
C565 C 0.64975 0.32246 0.5629 0.0
C566 C 0.67557 0.32413 0.60418 0.0
C567 C 0.62679 0.35401 0.55526 0.0
C568 C 0.62908 0.38862 0.58853 0.0
H569 H 0.64757 0.2967 0.53613 0.0
H570 H 0.60827 0.35204 0.52254 0.0
S571 S 0.69094 0.40688 0.70298 0.0
N572 N 0.70154 0.36263 0.67903 0.0
N573 N 0.65772 0.42159 0.66501 0.0
C574 C 0.65401 0.39011 0.63032 0.0
C575 C 0.6773 0.35789 0.63813 0.0
loop_
_geom_bond_atom_site_label_1
_geom_bond_atom_site_label_2
_geom_bond_distance
_geom_bond_site_symmetry_2
_ccdc_geom_bond_type
H0 C1 0.949 . S
C1 H0 0.949 . S
C1 C2 1.395 . S
C1 C3 1.391 . S
C2 C1 1.395 . S
C2 C5 1.390 . S
C3 C1 1.391 . S
C3 C7 1.387 . S
C3 C8 1.491 . S
H4 C5 0.950 . S
C5 C2 1.390 . S
C5 H4 0.950 . S
C5 C6 1.378 . S
C6 C5 1.378 . S
C6 C7 1.409 . S
C7 C3 1.387 . S
C7 C6 1.409 . S
C7 H9 0.951 . S
C8 C3 1.491 . S
C8 C10 1.382 . S
C8 C12 1.404 . S
H9 C7 0.951 . S
C10 C8 1.382 . S
C10 C11 1.390 . S
C10 H15 0.949 . S
C11 C10 1.390 . S
C11 C16 1.399 . S
C12 C8 1.404 . S
C12 H13 0.950 . S
C12 C14 1.375 . S
H13 C12 0.950 . S
C14 C12 1.375 . S
C14 C16 1.382 . S
C14 H18 0.950 . S
H15 C10 0.949 . S
C16 C11 1.399 . S
C16 C14 1.382 . S
C16 H17 0.952 . S
H17 C16 0.952 . S
H18 C14 0.950 . S
H19 C20 0.949 . S
C20 H19 0.949 . S
C20 C21 1.395 . S
C20 C22 1.391 . S
C21 C20 1.395 . S
C21 C24 1.390 . S
C22 C20 1.391 . S
C22 C26 1.387 . S
C22 C27 1.491 . S
H23 C24 0.950 . S
C24 C21 1.390 . S
C24 H23 0.950 . S
C24 C25 1.378 . S
C25 C24 1.378 . S
C25 C26 1.409 . S
C26 C22 1.387 . S
C26 C25 1.409 . S
C26 H28 0.951 . S
C27 C22 1.491 . S
C27 C29 1.382 . S
C27 C31 1.404 . S
H28 C26 0.951 . S
C29 C27 1.382 . S
C29 C30 1.390 . S
C29 H34 0.949 . S
C30 C29 1.390 . S
C30 C35 1.399 . S
C31 C27 1.404 . S
C31 H32 0.950 . S
C31 C33 1.375 . S
H32 C31 0.950 . S
C33 C31 1.375 . S
C33 C35 1.382 . S
C33 H37 0.950 . S
H34 C29 0.949 . S
C35 C30 1.399 . S
C35 C33 1.382 . S
C35 H36 0.952 . S
H36 C35 0.952 . S
H37 C33 0.950 . S
H38 C39 0.949 . S
C39 H38 0.949 . S
C39 C40 1.395 . S
C39 C41 1.391 . S
C40 C39 1.395 . S
C40 C43 1.390 . S
C41 C39 1.391 . S
C41 C45 1.387 . S
C41 C46 1.491 . S
H42 C43 0.950 . S
C43 C40 1.390 . S
C43 H42 0.950 . S
C43 C44 1.378 . S
C44 C43 1.378 . S
C44 C45 1.409 . S
C45 C41 1.387 . S
C45 C44 1.409 . S
C45 H47 0.951 . S
C46 C41 1.491 . S
C46 C48 1.382 . S
C46 C50 1.404 . S
H47 C45 0.951 . S
C48 C46 1.382 . S
C48 C49 1.390 . S
C48 H53 0.949 . S
C49 C48 1.390 . S
C49 C54 1.399 . S
C50 C46 1.404 . S
C50 H51 0.950 . S
C50 C52 1.375 . S
H51 C50 0.950 . S
C52 C50 1.375 . S
C52 C54 1.382 . S
C52 H56 0.950 . S
H53 C48 0.949 . S
C54 C49 1.399 . S
C54 C52 1.382 . S
C54 H55 0.952 . S
H55 C54 0.952 . S
H56 C52 0.950 . S
H57 C58 0.949 . S
C58 H57 0.949 . S
C58 C59 1.395 . S
C58 C60 1.391 . S
C59 C58 1.395 . S
C59 C62 1.390 . S
C60 C58 1.391 . S
C60 C64 1.387 . S
C60 C65 1.491 . S
H61 C62 0.950 . S
C62 C59 1.390 . S
C62 H61 0.950 . S
C62 C63 1.378 . S
C63 C62 1.378 . S
C63 C64 1.409 . S
C64 C60 1.387 . S
C64 C63 1.409 . S
C64 H66 0.951 . S
C65 C60 1.491 . S
C65 C67 1.382 . S
C65 C69 1.404 . S
H66 C64 0.951 . S
C67 C65 1.382 . S
C67 C68 1.390 . S
C67 H72 0.949 . S
C68 C67 1.390 . S
C68 C73 1.399 . S
C69 C65 1.404 . S
C69 H70 0.950 . S
C69 C71 1.375 . S
H70 C69 0.950 . S
C71 C69 1.375 . S
C71 C73 1.382 . S
C71 H75 0.950 . S
H72 C67 0.949 . S
C73 C68 1.399 . S
C73 C71 1.382 . S
C73 H74 0.952 . S
H74 C73 0.952 . S
H75 C71 0.950 . S
H76 C77 0.949 . S
C77 H76 0.949 . S
C77 C78 1.395 . S
C77 C79 1.391 . S
C78 C77 1.395 . S
C78 C81 1.390 . S
C79 C77 1.391 . S
C79 C83 1.387 . S
C79 C84 1.491 . S
H80 C81 0.950 . S
C81 C78 1.390 . S
C81 H80 0.950 . S
C81 C82 1.378 . S
C82 C81 1.378 . S
C82 C83 1.409 . S
C83 C79 1.387 . S
C83 C82 1.409 . S
C83 H85 0.951 . S
C84 C79 1.491 . S
C84 C86 1.382 . S
C84 C88 1.404 . S
H85 C83 0.951 . S
C86 C84 1.382 . S
C86 C87 1.390 . S
C86 H91 0.949 . S
C87 C86 1.390 . S
C87 C92 1.399 . S
C88 C84 1.404 . S
C88 H89 0.950 . S
C88 C90 1.375 . S
H89 C88 0.950 . S
C90 C88 1.375 . S
C90 C92 1.382 . S
C90 H94 0.950 . S
H91 C86 0.949 . S
C92 C87 1.399 . S
C92 C90 1.382 . S
C92 H93 0.952 . S
H93 C92 0.952 . S
H94 C90 0.950 . S
H95 C96 0.949 . S
C96 H95 0.949 . S
C96 C97 1.395 . S
C96 C98 1.391 . S
C97 C96 1.395 . S
C97 C100 1.390 . S
C98 C96 1.391 . S
C98 C102 1.387 . S
C98 C103 1.491 . S
H99 C100 0.950 . S
C100 C97 1.390 . S
C100 H99 0.950 . S
C100 C101 1.378 . S
C101 C100 1.378 . S
C101 C102 1.409 . S
C102 C98 1.387 . S
C102 C101 1.409 . S
C102 H104 0.951 . S
C103 C98 1.491 . S
C103 C105 1.382 . S
C103 C107 1.404 . S
H104 C102 0.951 . S
C105 C103 1.382 . S
C105 C106 1.390 . S
C105 H110 0.949 . S
C106 C105 1.390 . S
C106 C111 1.399 . S
C107 C103 1.404 . S
C107 H108 0.950 . S
C107 C109 1.375 . S
H108 C107 0.950 . S
C109 C107 1.375 . S
C109 C111 1.382 . S
C109 H113 0.950 . S
H110 C105 0.949 . S
C111 C106 1.399 . S
C111 C109 1.382 . S
C111 H112 0.952 . S
H112 C111 0.952 . S
H113 C109 0.950 . S
H114 C115 0.949 . S
C115 H114 0.949 . S
C115 C116 1.395 . S
C115 C117 1.391 . S
C116 C115 1.395 . S
C116 C119 1.390 . S
C117 C115 1.391 . S
C117 C121 1.387 . S
C117 C122 1.491 . S
H118 C119 0.950 . S
C119 C116 1.390 . S
C119 H118 0.950 . S
C119 C120 1.378 . S
C120 C119 1.378 . S
C120 C121 1.409 . S
C121 C117 1.387 . S
C121 C120 1.409 . S
C121 H123 0.951 . S
C122 C117 1.491 . S
C122 C124 1.382 . S
C122 C126 1.404 . S
H123 C121 0.951 . S
C124 C122 1.382 . S
C124 C125 1.390 . S
C124 H129 0.949 . S
C125 C124 1.390 . S
C125 C130 1.399 . S
C126 C122 1.404 . S
C126 H127 0.950 . S
C126 C128 1.375 . S
H127 C126 0.950 . S
C128 C126 1.375 . S
C128 C130 1.382 . S
C128 H132 0.950 . S
H129 C124 0.949 . S
C130 C125 1.399 . S
C130 C128 1.382 . S
C130 H131 0.952 . S
H131 C130 0.952 . S
H132 C128 0.950 . S
H133 C134 0.949 . S
C134 H133 0.949 . S
C134 C135 1.395 . S
C134 C136 1.391 . S
C135 C134 1.395 . S
C135 C138 1.390 . S
C136 C134 1.391 . S
C136 C140 1.387 . S
C136 C141 1.491 . S
H137 C138 0.950 . S
C138 C135 1.390 . S
C138 H137 0.950 . S
C138 C139 1.378 . S
C139 C138 1.378 . S
C139 C140 1.409 . S
C140 C136 1.387 . S
C140 C139 1.409 . S
C140 H142 0.951 . S
C141 C136 1.491 . S
C141 C143 1.382 . S
C141 C145 1.404 . S
H142 C140 0.951 . S
C143 C141 1.382 . S
C143 C144 1.390 . S
C143 H148 0.949 . S
C144 C143 1.390 . S
C144 C149 1.399 . S
C145 C141 1.404 . S
C145 H146 0.950 . S
C145 C147 1.375 . S
H146 C145 0.950 . S
C147 C145 1.375 . S
C147 C149 1.382 . S
C147 H151 0.950 . S
H148 C143 0.949 . S
C149 C144 1.399 . S
C149 C147 1.382 . S
C149 H150 0.952 . S
H150 C149 0.952 . S
H151 C147 0.950 . S
Ho152 C155 2.811 . S
Ho152 O172 2.322 . S
Ho152 O174 2.378 . S
Ho152 O175 2.524 . S
Ho152 O176 2.381 . S
Ho152 O177 2.669 . S
Ho152 O179 2.346 1_445 S
Ho152 O183 2.305 1_455 S
Ho153 C164 2.811 1_545 S
Ho153 O173 2.346 1_655 S
Ho153 O177 2.305 1_655 S
Ho153 O178 2.322 1_545 S
Ho153 O180 2.378 1_545 S
Ho153 O181 2.524 1_545 S
Ho153 O182 2.381 . S
Ho153 O183 2.669 . S
C154 O172 1.259 . S
C154 O173 1.268 . S
C155 Ho152 2.811 . S
C155 C156 1.488 . S
C155 O174 1.215 . S
C155 O175 1.289 . S
C156 C155 1.488 . S
C156 C157 1.348 . S
C156 C161 1.413 . S
C157 C156 1.348 . S
C157 C158 1.442 . S
C157 H184 0.930 . S
C158 C157 1.442 . S
C158 C159 1.381 . S
C158 H185 0.931 . S
C159 C158 1.381 . S
C159 C160 1.321 . S
C160 C159 1.321 . S
C160 C161 1.403 . S
C160 H186 0.934 . S
C161 C156 1.413 . S
C161 C160 1.403 . S
C161 H187 0.930 . S
C162 O176 1.275 . S
C162 O177 1.256 . S
C163 O178 1.259 . S
C163 O179 1.268 . S
C164 Ho153 2.811 1_565 S
C164 C165 1.488 . S
C164 O180 1.215 . S
C164 O181 1.289 . S
C165 C164 1.488 . S
C165 C166 1.348 . S
C165 C170 1.413 . S
C166 C165 1.348 . S
C166 C167 1.442 . S
C166 H188 0.930 . S
C167 C166 1.442 . S
C167 C168 1.381 . S
C167 H189 0.931 . S
C168 C167 1.381 . S
C168 C169 1.321 . S
C169 C168 1.321 . S
C169 C170 1.403 . S
C169 H190 0.934 . S
C170 C165 1.413 . S
C170 C169 1.403 . S
C170 H191 0.930 . S
C171 O182 1.275 . S
C171 O183 1.256 . S
O172 Ho152 2.322 . S
O172 C154 1.259 . S
O173 Ho153 2.346 1_455 S
O173 C154 1.268 . S
O174 Ho152 2.378 . S
O174 C155 1.215 . S
O175 Ho152 2.524 . S
O175 C155 1.289 . S
O176 Ho152 2.381 . S
O176 C162 1.275 . S
O177 Ho152 2.669 . S
O177 Ho153 2.305 1_455 S
O177 C162 1.256 . S
O178 Ho153 2.322 1_565 S
O178 C163 1.259 . S
O179 Ho152 2.346 1_665 S
O179 C163 1.268 . S
O180 Ho153 2.378 1_565 S
O180 C164 1.215 . S
O181 Ho153 2.524 1_565 S
O181 C164 1.289 . S
O182 Ho153 2.381 . S
O182 C171 1.275 . S
O183 Ho152 2.305 1_655 S
O183 Ho153 2.669 . S
O183 C171 1.256 . S
H184 C157 0.930 . S
H185 C158 0.931 . S
H186 C160 0.934 . S
H187 C161 0.930 . S
H188 C166 0.930 . S
H189 C167 0.931 . S
H190 C169 0.934 . S
H191 C170 0.930 . S
Ho192 C195 2.811 . S
Ho192 O212 2.322 . S
Ho192 O214 2.378 . S
Ho192 O215 2.524 . S
Ho192 O216 2.381 1_545 S
Ho192 O217 2.668 1_545 S
Ho192 O219 2.346 . S
Ho192 O223 2.305 . S
Ho193 C204 2.811 1_544 S
Ho193 O213 2.346 . S
Ho193 O217 2.302 1_545 S
Ho193 O218 2.322 . S
Ho193 O220 2.378 1_554 S
Ho193 O221 2.524 1_545 S
Ho193 O222 2.381 . S
Ho193 O223 2.669 . S
C194 O212 1.259 . S
C194 O213 1.268 . S
C195 Ho192 2.811 . S
C195 C196 1.488 . S
C195 O214 1.215 . S
C195 O215 1.289 . S
C196 C195 1.488 . S
C196 C197 1.348 . S
C196 C201 1.413 . S
C197 C196 1.348 . S
C197 C198 1.442 . S
C197 H224 0.930 . S
C198 C197 1.442 . S
C198 C199 1.381 . S
C198 H225 0.931 . S
C199 C198 1.381 . S
C199 C200 1.321 . S
C200 C199 1.321 . S
C200 C201 1.403 . S
C200 H226 0.934 . S
C201 C196 1.413 . S
C201 C200 1.403 . S
C201 H227 0.930 . S
C202 O216 1.275 . S
C202 O217 1.259 . S
C203 O218 1.259 1_565 S
C203 O219 1.268 1_565 S
C204 Ho193 2.811 1_566 S
C204 C205 1.488 . S
C204 O220 1.215 1_565 S
C204 O221 1.289 1_556 S
C205 C204 1.488 . S
C205 C206 1.348 . S
C205 C210 1.413 . S
C206 C205 1.348 . S
C206 C207 1.442 . S
C206 H228 0.930 . S
C207 C206 1.442 . S
C207 C208 1.381 . S
C207 H229 0.931 . S
C208 C207 1.381 . S
C208 C209 1.321 . S
C209 C208 1.321 . S
C209 C210 1.403 . S
C209 H230 0.934 . S
C210 C205 1.413 . S
C210 C209 1.403 . S
C210 H231 0.930 1_565 S
C211 O222 1.275 . S
C211 O223 1.256 . S
O212 Ho192 2.322 . S
O212 C194 1.259 . S
O213 Ho193 2.346 . S
O213 C194 1.268 . S
O214 Ho192 2.378 . S
O214 C195 1.215 . S
O215 Ho192 2.524 . S
O215 C195 1.289 . S
O216 Ho192 2.381 1_565 S
O216 C202 1.275 . S
O217 Ho192 2.668 1_565 S
O217 Ho193 2.302 1_565 S
O217 C202 1.259 . S
O218 Ho193 2.322 . S
O218 C203 1.259 1_545 S
O219 Ho192 2.346 . S
O219 C203 1.268 1_545 S
O220 Ho193 2.378 1_556 S
O220 C204 1.215 1_545 S
O221 Ho193 2.524 1_565 S
O221 C204 1.289 1_554 S
O222 Ho193 2.381 . S
O222 C211 1.275 . S
O223 Ho192 2.305 . S
O223 Ho193 2.669 . S
O223 C211 1.256 . S
H224 C197 0.930 . S
H225 C198 0.931 . S
H226 C200 0.934 . S
H227 C201 0.930 . S
H228 C206 0.930 . S
H229 C207 0.931 . S
H230 C209 0.934 . S
H231 C210 0.930 1_545 S
Ho232 C235 2.811 . S
Ho232 O252 2.322 . S
Ho232 O254 2.378 . S
Ho232 O255 2.524 . S
Ho232 O256 2.381 . S
Ho232 O257 2.669 . S
Ho232 O259 2.346 . S
Ho232 O263 2.305 . S
Ho233 C244 2.811 . S
Ho233 O253 2.346 . S
Ho233 O257 2.305 . S
Ho233 O258 2.322 . S
Ho233 O260 2.378 . S
Ho233 O261 2.524 . S
Ho233 O262 2.381 . S
Ho233 O263 2.669 . S
C234 O252 1.259 . S
C234 O253 1.268 . S
C235 Ho232 2.811 . S
C235 C236 1.488 . S
C235 O254 1.215 . S
C235 O255 1.289 . S
C236 C235 1.488 . S
C236 C237 1.348 . S
C236 C241 1.413 . S
C237 C236 1.348 . S
C237 C238 1.442 . S
C237 H264 0.930 . S
C238 C237 1.442 . S
C238 C239 1.381 . S
C238 H265 0.931 . S
C239 C238 1.381 . S
C239 C240 1.321 . S
C240 C239 1.321 . S
C240 C241 1.403 . S
C240 H266 0.934 . S
C241 C236 1.413 . S
C241 C240 1.403 . S
C241 H267 0.930 . S
C242 O256 1.275 . S
C242 O257 1.256 . S
C243 O258 1.259 . S
C243 O259 1.268 . S
C244 Ho233 2.811 . S
C244 C245 1.488 . S
C244 O260 1.215 . S
C244 O261 1.289 . S
C245 C244 1.488 . S
C245 C246 1.348 . S
C245 C250 1.413 . S
C246 C245 1.348 . S
C246 C247 1.442 . S
C246 H268 0.930 . S
C247 C246 1.442 . S
C247 C248 1.381 . S
C247 H269 0.931 . S
C248 C247 1.381 . S
C248 C249 1.321 . S
C249 C248 1.321 . S
C249 C250 1.403 . S
C249 H270 0.934 . S
C250 C245 1.413 . S
C250 C249 1.403 . S
C250 H271 0.930 . S
C251 O262 1.275 . S
C251 O263 1.256 . S
O252 Ho232 2.322 . S
O252 C234 1.259 . S
O253 Ho233 2.346 . S
O253 C234 1.268 . S
O254 Ho232 2.378 . S
O254 C235 1.215 . S
O255 Ho232 2.524 . S
O255 C235 1.289 . S
O256 Ho232 2.381 . S
O256 C242 1.275 . S
O257 Ho232 2.669 . S
O257 Ho233 2.305 . S
O257 C242 1.256 . S
O258 Ho233 2.322 . S
O258 C243 1.259 . S
O259 Ho232 2.346 . S
O259 C243 1.268 . S
O260 Ho233 2.378 . S
O260 C244 1.215 . S
O261 Ho233 2.524 . S
O261 C244 1.289 . S
O262 Ho233 2.381 . S
O262 C251 1.275 . S
O263 Ho232 2.305 . S
O263 Ho233 2.669 . S
O263 C251 1.256 . S
H264 C237 0.930 . S
H265 C238 0.931 . S
H266 C240 0.934 . S
H267 C241 0.930 . S
H268 C246 0.930 . S
H269 C247 0.931 . S
H270 C249 0.934 . S
H271 C250 0.930 . S
Ho272 C275 2.811 . S
Ho272 O292 2.322 . S
Ho272 O294 2.378 . S
Ho272 O295 2.524 . S
Ho272 O296 2.381 . S
Ho272 O297 2.669 . S
Ho272 O299 2.346 1_455 S
Ho272 O303 2.308 . S
Ho273 C284 2.811 1_454 S
Ho273 O293 2.346 . S
Ho273 O297 2.305 . S
Ho273 O298 2.322 1_454 S
Ho273 O300 2.378 1_554 S
Ho273 O301 2.524 1_455 S
Ho273 O302 2.381 1_554 S
Ho273 O303 2.669 . S
C274 O292 1.259 . S
C274 O293 1.268 . S
C275 Ho272 2.811 . S
C275 C276 1.488 . S
C275 O294 1.215 . S
C275 O295 1.289 . S
C276 C275 1.488 . S
C276 C277 1.348 . S
C276 C281 1.413 . S
C277 C276 1.348 . S
C277 C278 1.442 . S
C277 H304 0.930 . S
C278 C277 1.442 . S
C278 C279 1.381 . S
C278 H305 0.931 . S
C279 C278 1.381 . S
C279 C280 1.321 . S
C280 C279 1.321 . S
C280 C281 1.403 . S
C280 H306 0.934 . S
C281 C276 1.413 . S
C281 C280 1.403 . S
C281 H307 0.930 . S
C282 O296 1.275 1_655 S
C282 O297 1.256 1_655 S
C283 O298 1.259 . S
C283 O299 1.268 1_556 S
C284 Ho273 2.811 1_656 S
C284 C285 1.488 . S
C284 O300 1.215 1_655 S
C284 O301 1.289 1_556 S
C285 C284 1.488 . S
C285 C286 1.348 . S
C285 C290 1.413 . S
C286 C285 1.348 . S
C286 C287 1.442 . S
C286 H308 0.930 . S
C287 C286 1.442 . S
C287 C288 1.381 . S
C287 H309 0.931 . S
C288 C287 1.381 . S
C288 C289 1.321 . S
C289 C288 1.321 . S
C289 C290 1.403 . S
C289 H310 0.934 . S
C290 C285 1.413 . S
C290 C289 1.403 . S
C290 H311 0.930 . S
C291 O302 1.275 . S
C291 O303 1.252 1_556 S
O292 Ho272 2.322 . S
O292 C274 1.259 . S
O293 Ho273 2.346 . S
O293 C274 1.268 . S
O294 Ho272 2.378 . S
O294 C275 1.215 . S
O295 Ho272 2.524 . S
O295 C275 1.289 . S
O296 Ho272 2.381 . S
O296 C282 1.275 1_455 S
O297 Ho272 2.669 . S
O297 Ho273 2.305 . S
O297 C282 1.256 1_455 S
O298 Ho273 2.322 1_656 S
O298 C283 1.259 . S
O299 Ho272 2.346 1_655 S
O299 C283 1.268 1_554 S
O300 Ho273 2.378 1_556 S
O300 C284 1.215 1_455 S
O301 Ho273 2.524 1_655 S
O301 C284 1.289 1_554 S
O302 Ho273 2.381 1_556 S
O302 C291 1.275 . S
O303 Ho272 2.308 . S
O303 Ho273 2.669 . S
O303 C291 1.252 1_554 S
H304 C277 0.930 . S
H305 C278 0.931 . S
H306 C280 0.934 . S
H307 C281 0.930 . S
H308 C286 0.930 . S
H309 C287 0.931 . S
H310 C289 0.934 . S
H311 C290 0.930 . S
C312 C313 1.369 . S
C312 C314 1.419 . S
C312 H316 0.930 . S
C313 C312 1.369 . S
C313 C322 1.429 . S
C314 C312 1.419 . S
C314 C315 1.363 . S
C314 H317 0.929 . S
C315 C314 1.363 . S
C315 C321 1.428 . S
H316 C312 0.930 . S
H317 C314 0.929 . S
S318 N319 1.613 . S
S318 N320 1.610 . S
N319 S318 1.613 . S
N319 C322 1.350 . S
N320 S318 1.610 . S
N320 C321 1.351 . S
C321 C315 1.428 . S
C321 N320 1.351 . S
C321 C322 1.434 . S
C322 C313 1.429 . S
C322 N319 1.350 . S
C322 C321 1.434 . S
C323 C324 1.369 . S
C323 C325 1.419 . S
C323 H327 0.930 . S
C324 C323 1.369 . S
C324 C333 1.429 . S
C325 C323 1.419 . S
C325 C326 1.363 . S
C325 H328 0.929 . S
C326 C325 1.363 . S
C326 C332 1.428 . S
H327 C323 0.930 . S
H328 C325 0.929 . S
S329 N330 1.613 . S
S329 N331 1.610 . S
N330 S329 1.613 . S
N330 C333 1.350 . S
N331 S329 1.610 . S
N331 C332 1.351 . S
C332 C326 1.428 . S
C332 N331 1.351 . S
C332 C333 1.434 . S
C333 C324 1.429 . S
C333 N330 1.350 . S
C333 C332 1.434 . S
C334 C335 1.369 . S
C334 C336 1.419 . S
C334 H338 0.930 . S
C335 C334 1.369 . S
C335 C344 1.429 . S
C336 C334 1.419 . S
C336 C337 1.363 . S
C336 H339 0.929 . S
C337 C336 1.363 . S
C337 C343 1.428 . S
H338 C334 0.930 . S
H339 C336 0.929 . S
S340 N341 1.613 . S
S340 N342 1.610 . S
N341 S340 1.613 . S
N341 C344 1.350 . S
N342 S340 1.610 . S
N342 C343 1.351 . S
C343 C337 1.428 . S
C343 N342 1.351 . S
C343 C344 1.434 . S
C344 C335 1.429 . S
C344 N341 1.350 . S
C344 C343 1.434 . S
C345 C346 1.369 . S
C345 C347 1.419 . S
C345 H349 0.930 . S
C346 C345 1.369 . S
C346 C355 1.429 . S
C347 C345 1.419 . S
C347 C348 1.363 . S
C347 H350 0.929 . S
C348 C347 1.363 . S
C348 C354 1.428 . S
H349 C345 0.930 . S
H350 C347 0.929 . S
S351 N352 1.613 1_455 S
S351 N353 1.610 . S
N352 S351 1.613 1_655 S
N352 C355 1.350 . S
N353 S351 1.610 . S
N353 C354 1.351 1_455 S
C354 C348 1.428 . S
C354 N353 1.351 1_655 S
C354 C355 1.434 . S
C355 C346 1.429 . S
C355 N352 1.350 . S
C355 C354 1.434 . S
C356 C357 1.369 . S
C356 C358 1.419 . S
C356 H360 0.930 . S
C357 C356 1.369 . S
C357 C366 1.429 . S
C358 C356 1.419 . S
C358 C359 1.363 . S
C358 H361 0.929 . S
C359 C358 1.363 . S
C359 C365 1.428 . S
H360 C356 0.930 . S
H361 C358 0.929 . S
S362 N363 1.613 . S
S362 N364 1.610 . S
N363 S362 1.613 . S
N363 C366 1.350 . S
N364 S362 1.610 . S
N364 C365 1.351 . S
C365 C359 1.428 . S
C365 N364 1.351 . S
C365 C366 1.434 . S
C366 C357 1.429 . S
C366 N363 1.350 . S
C366 C365 1.434 . S
C367 C368 1.369 . S
C367 C369 1.419 . S
C367 H371 0.930 . S
C368 C367 1.369 . S
C368 C377 1.429 . S
C369 C367 1.419 . S
C369 C370 1.363 1_565 S
C369 H372 0.929 1_565 S
C370 C369 1.363 1_545 S
C370 C376 1.428 1_545 S
H371 C367 0.930 . S
H372 C369 0.929 1_545 S
S373 N374 1.613 . S
S373 N375 1.610 . S
N374 S373 1.613 . S
N374 C377 1.350 1_655 S
N375 S373 1.610 . S
N375 C376 1.351 1_655 S
C376 C370 1.428 1_565 S
C376 N375 1.351 1_455 S
C376 C377 1.434 . S
C377 C368 1.429 . S
C377 N374 1.350 1_455 S
C377 C376 1.434 . S
C378 C379 1.369 . S
C378 C380 1.419 . S
C378 H382 0.930 . S
C379 C378 1.369 . S
C379 C388 1.429 . S
C380 C378 1.419 . S
C380 C381 1.363 . S
C380 H383 0.929 . S
C381 C380 1.363 . S
C381 C387 1.428 1_556 S
H382 C378 0.930 . S
H383 C380 0.929 . S
S384 N385 1.613 . S
S384 N386 1.610 . S
N385 S384 1.613 . S
N385 C388 1.350 1_554 S
N386 S384 1.610 . S
N386 C387 1.351 . S
C387 C381 1.428 1_554 S
C387 N386 1.351 . S
C387 C388 1.434 1_554 S
C388 C379 1.429 . S
C388 N385 1.350 1_556 S
C388 C387 1.434 1_556 S
C389 C390 1.369 . S
C389 C391 1.419 . S
C389 H393 0.930 . S
C390 C389 1.369 . S
C390 C399 1.429 . S
C391 C389 1.419 . S
C391 C392 1.363 . S
C391 H394 0.929 . S
C392 C391 1.363 . S
C392 C398 1.428 . S
H393 C389 0.930 . S
H394 C391 0.929 . S
S395 N396 1.613 . S
S395 N397 1.610 . S
N396 S395 1.613 . S
N396 C399 1.350 . S
N397 S395 1.610 . S
N397 C398 1.351 . S
C398 C392 1.428 . S
C398 N397 1.351 . S
C398 C399 1.434 . S
C399 C390 1.429 . S
C399 N396 1.350 . S
C399 C398 1.434 . S
C400 C401 1.369 . S
C400 C402 1.419 . S
C400 H404 0.930 . S
C401 C400 1.369 . S
C401 C410 1.429 . S
C402 C400 1.419 . S
C402 C403 1.363 . S
C402 H405 0.929 . S
C403 C402 1.363 . S
C403 C409 1.428 . S
H404 C400 0.930 . S
H405 C402 0.929 . S
S406 N407 1.613 . S
S406 N408 1.610 . S
N407 S406 1.613 . S
N407 C410 1.350 . S
N408 S406 1.610 . S
N408 C409 1.351 . S
C409 C403 1.428 . S
C409 N408 1.351 . S
C409 C410 1.434 . S
C410 C401 1.429 . S
C410 N407 1.350 . S
C410 C409 1.434 . S
C411 C412 1.369 1_554 S
C411 C413 1.419 . S
C411 H415 0.930 . S
C412 C411 1.369 1_556 S
C412 C421 1.429 . S
C413 C411 1.419 . S
C413 C414 1.363 . S
C413 H416 0.929 . S
C414 C413 1.363 . S
C414 C420 1.428 1_554 S
H415 C411 0.930 . S
H416 C413 0.929 . S
S417 N418 1.613 . S
S417 N419 1.610 . S
N418 S417 1.613 . S
N418 C421 1.350 . S
N419 S417 1.610 . S
N419 C420 1.351 . S
C420 C414 1.428 1_556 S
C420 N419 1.351 . S
C420 C421 1.434 . S
C421 C412 1.429 . S
C421 N418 1.350 . S
C421 C420 1.434 . S
C422 C423 1.369 . S
C422 C424 1.419 . S
C422 H426 0.930 . S
C423 C422 1.369 . S
C423 C432 1.429 . S
C424 C422 1.419 . S
C424 C425 1.363 . S
C424 H427 0.929 . S
C425 C424 1.363 . S
C425 C431 1.428 . S
H426 C422 0.930 . S
H427 C424 0.929 . S
S428 N429 1.613 . S
S428 N430 1.610 . S
N429 S428 1.613 . S
N429 C432 1.350 . S
N430 S428 1.610 . S
N430 C431 1.351 . S
C431 C425 1.428 . S
C431 N430 1.351 . S
C431 C432 1.434 . S
C432 C423 1.429 . S
C432 N429 1.350 . S
C432 C431 1.434 . S
C433 C434 1.369 . S
C433 C435 1.419 . S
C433 H437 0.930 . S
C434 C433 1.369 . S
C434 C443 1.429 . S
C435 C433 1.419 . S
C435 C436 1.363 . S
C435 H438 0.929 . S
C436 C435 1.363 . S
C436 C442 1.428 . S
H437 C433 0.930 . S
H438 C435 0.929 . S
S439 N440 1.613 . S
S439 N441 1.610 . S
N440 S439 1.613 . S
N440 C443 1.350 . S
N441 S439 1.610 . S
N441 C442 1.351 . S
C442 C436 1.428 . S
C442 N441 1.351 . S
C442 C443 1.434 . S
C443 C434 1.429 . S
C443 N440 1.350 . S
C443 C442 1.434 . S
C444 C445 1.369 . S
C444 C446 1.419 . S
C444 H448 0.930 . S
C445 C444 1.369 . S
C445 C454 1.429 . S
C446 C444 1.419 . S
C446 C447 1.363 . S
C446 H449 0.929 . S
C447 C446 1.363 . S
C447 C453 1.428 . S
H448 C444 0.930 . S
H449 C446 0.929 . S
S450 N451 1.613 . S
S450 N452 1.610 . S
N451 S450 1.613 . S
N451 C454 1.350 . S
N452 S450 1.610 . S
N452 C453 1.351 . S
C453 C447 1.428 . S
C453 N452 1.351 . S
C453 C454 1.434 . S
C454 C445 1.429 . S
C454 N451 1.350 . S
C454 C453 1.434 . S
C455 C456 1.369 . S
C455 C457 1.419 . S
C455 H459 0.930 . S
C456 C455 1.369 . S
C456 C465 1.429 . S
C457 C455 1.419 . S
C457 C458 1.363 . S
C457 H460 0.929 . S
C458 C457 1.363 . S
C458 C464 1.428 . S
H459 C455 0.930 . S
H460 C457 0.929 . S
S461 N462 1.613 . S
S461 N463 1.610 . S
N462 S461 1.613 . S
N462 C465 1.350 . S
N463 S461 1.610 . S
N463 C464 1.351 . S
C464 C458 1.428 . S
C464 N463 1.351 . S
C464 C465 1.434 . S
C465 C456 1.429 . S
C465 N462 1.350 . S
C465 C464 1.434 . S
C466 C467 1.369 . S
C466 C468 1.419 . S
C466 H470 0.930 . S
C467 C466 1.369 . S
C467 C476 1.429 . S
C468 C466 1.419 . S
C468 C469 1.363 . S
C468 H471 0.929 . S
C469 C468 1.363 . S
C469 C475 1.428 . S
H470 C466 0.930 . S
H471 C468 0.929 . S
S472 N473 1.613 . S
S472 N474 1.610 . S
N473 S472 1.613 . S
N473 C476 1.350 . S
N474 S472 1.610 . S
N474 C475 1.351 . S
C475 C469 1.428 . S
C475 N474 1.351 . S
C475 C476 1.434 . S
C476 C467 1.429 . S
C476 N473 1.350 . S
C476 C475 1.434 . S
C477 C478 1.369 . S
C477 C479 1.419 . S
C477 H481 0.930 . S
C478 C477 1.369 . S
C478 C487 1.429 . S
C479 C477 1.419 . S
C479 C480 1.363 . S
C479 H482 0.929 . S
C480 C479 1.363 . S
C480 C486 1.428 . S
H481 C477 0.930 . S
H482 C479 0.929 . S
S483 N484 1.613 . S
S483 N485 1.610 . S
N484 S483 1.613 . S
N484 C487 1.350 . S
N485 S483 1.610 . S
N485 C486 1.351 . S
C486 C480 1.428 . S
C486 N485 1.351 . S
C486 C487 1.434 . S
C487 C478 1.429 . S
C487 N484 1.350 . S
C487 C486 1.434 . S
C488 C489 1.369 . S
C488 C490 1.419 . S
C488 H492 0.930 . S
C489 C488 1.369 . S
C489 C498 1.429 . S
C490 C488 1.419 . S
C490 C491 1.355 1_556 S
C490 H493 0.929 . S
C491 C490 1.355 1_554 S
C491 C497 1.425 1_554 S
H492 C488 0.930 . S
H493 C490 0.929 . S
S494 N495 1.613 . S
S494 N496 1.610 1_556 S
N495 S494 1.613 . S
N495 C498 1.350 . S
N496 S494 1.610 1_554 S
N496 C497 1.351 1_554 S
C497 C491 1.425 1_556 S
C497 N496 1.351 1_556 S
C497 C498 1.434 . S
C498 C489 1.429 . S
C498 N495 1.350 . S
C498 C497 1.434 . S
C499 C500 1.369 . S
C499 C501 1.419 . S
C499 H503 0.930 . S
C500 C499 1.369 . S
C500 C509 1.429 . S
C501 C499 1.419 . S
C501 C502 1.363 . S
C501 H504 0.929 . S
C502 C501 1.363 . S
C502 C508 1.428 . S
H503 C499 0.930 . S
H504 C501 0.929 . S
S505 N506 1.613 . S
S505 N507 1.610 . S
N506 S505 1.613 . S
N506 C509 1.350 . S
N507 S505 1.610 . S
N507 C508 1.351 . S
C508 C502 1.428 . S
C508 N507 1.351 . S
C508 C509 1.434 . S
C509 C500 1.429 . S
C509 N506 1.350 . S
C509 C508 1.434 . S
C510 C511 1.369 . S
C510 C512 1.419 . S
C510 H514 0.930 . S
C511 C510 1.369 . S
C511 C520 1.429 . S
C512 C510 1.419 . S
C512 C513 1.363 . S
C512 H515 0.929 . S
C513 C512 1.363 . S
C513 C519 1.428 . S
H514 C510 0.930 . S
H515 C512 0.929 . S
S516 N517 1.613 . S
S516 N518 1.610 . S
N517 S516 1.613 . S
N517 C520 1.350 . S
N518 S516 1.610 . S
N518 C519 1.351 . S
C519 C513 1.428 . S
C519 N518 1.351 . S
C519 C520 1.434 . S
C520 C511 1.429 . S
C520 N517 1.350 . S
C520 C519 1.434 . S
C521 C522 1.369 . S
C521 C523 1.419 . S
C521 H525 0.930 . S
C522 C521 1.369 . S
C522 C531 1.429 . S
C523 C521 1.419 . S
C523 C524 1.363 . S
C523 H526 0.929 . S
C524 C523 1.363 . S
C524 C530 1.428 . S
H525 C521 0.930 . S
H526 C523 0.929 . S
S527 N528 1.613 . S
S527 N529 1.610 . S
N528 S527 1.613 . S
N528 C531 1.350 . S
N529 S527 1.610 . S
N529 C530 1.351 . S
C530 C524 1.428 . S
C530 N529 1.351 . S
C530 C531 1.434 . S
C531 C522 1.429 . S
C531 N528 1.350 . S
C531 C530 1.434 . S
C532 C533 1.369 . S
C532 C534 1.419 . S
C532 H536 0.930 . S
C533 C532 1.369 . S
C533 C542 1.429 . S
C534 C532 1.419 . S
C534 C535 1.363 . S
C534 H537 0.929 . S
C535 C534 1.363 . S
C535 C541 1.428 . S
H536 C532 0.930 . S
H537 C534 0.929 . S
S538 N539 1.613 . S
S538 N540 1.610 . S
N539 S538 1.613 . S
N539 C542 1.350 . S
N540 S538 1.610 . S
N540 C541 1.351 . S
C541 C535 1.428 . S
C541 N540 1.351 . S
C541 C542 1.434 . S
C542 C533 1.429 . S
C542 N539 1.350 . S
C542 C541 1.434 . S
C543 C544 1.369 . S
C543 C545 1.419 . S
C543 H547 0.930 . S
C544 C543 1.369 . S
C544 C553 1.429 . S
C545 C543 1.419 . S
C545 C546 1.363 . S
C545 H548 0.929 . S
C546 C545 1.363 . S
C546 C552 1.428 . S
H547 C543 0.930 . S
H548 C545 0.929 . S
S549 N550 1.613 . S
S549 N551 1.610 . S
N550 S549 1.613 . S
N550 C553 1.350 . S
N551 S549 1.610 . S
N551 C552 1.351 . S
C552 C546 1.428 . S
C552 N551 1.351 . S
C552 C553 1.434 . S
C553 C544 1.429 . S
C553 N550 1.350 . S
C553 C552 1.434 . S
C554 C555 1.369 . S
C554 C556 1.419 . S
C554 H558 0.930 . S
C555 C554 1.369 . S
C555 C564 1.429 . S
C556 C554 1.419 . S
C556 C557 1.363 . S
C556 H559 0.929 . S
C557 C556 1.363 . S
C557 C563 1.428 . S
H558 C554 0.930 . S
H559 C556 0.929 . S
S560 N561 1.613 . S
S560 N562 1.610 . S
N561 S560 1.613 . S
N561 C564 1.350 . S
N562 S560 1.610 . S
N562 C563 1.351 . S
C563 C557 1.428 . S
C563 N562 1.351 . S
C563 C564 1.434 . S
C564 C555 1.429 . S
C564 N561 1.350 . S
C564 C563 1.434 . S
C565 C566 1.369 . S
C565 C567 1.419 . S
C565 H569 0.930 . S
C566 C565 1.369 . S
C566 C575 1.429 . S
C567 C565 1.419 . S
C567 C568 1.363 . S
C567 H570 0.929 . S
C568 C567 1.363 . S
C568 C574 1.428 . S
H569 C565 0.930 . S
H570 C567 0.929 . S
S571 N572 1.613 . S
S571 N573 1.610 . S
N572 S571 1.613 . S
N572 C575 1.350 . S
N573 S571 1.610 . S
N573 C574 1.351 . S
C574 C568 1.428 . S
C574 N573 1.351 . S
C574 C575 1.434 . S
C575 C566 1.429 . S
C575 N572 1.350 . S
C575 C574 1.434 . S
C313 C6 1.245 . S
C315 C159 1.265 . S
C324 C21 1.450 . S
C326 C208 1.470 . S
C337 C234 2.017 . S
C335 C49 2.049 . S
C346 C68 2.182 . S
C348 C282 2.240 . S
C359 C194 2.843 . S
C357 C2 2.686 . S
C370 C162 0.513 . S
C368 C30 0.483 . S
C381 C283 2.015 . S
C379 C40 2.078 . S
C392 C251 1.728 . S
C390 C63 1.722 . S
C401 C11 1.369 . S
C403 C279 1.579 . S
C414 C211 2.617 . S
C412 C44 2.687 . S
C423 C59 2.035 . S
C425 C163 2.041 . S
C434 C25 1.601 . S
C436 C248 1.568 . S
C447 C168 1.365 . S
C445 C82 1.363 . S
C456 C101 1.359 . S
C458 C199 1.383 . S
C467 C125 2.297 . S
C469 C243 2.406 . S
C478 C144 1.992 . S
C480 C291 2.070 . S
C489 C87 1.978 . S
C491 C203 2.166 . S
C502 C171 1.621 . S
C500 C97 1.649 . S
C513 C274 1.771 . S
C511 C120 1.864 . S
C524 C242 1.753 . S
C522 C135 1.859 . S
C533 C78 1.890 . S
C535 C288 2.051 . S
C546 C202 1.971 . S
C544 C116 2.020 . S
C557 C154 2.640 . S
C555 C139 2.635 . S
C566 C106 0.896 . S
C568 C239 1.143 . S
