# Generated by pormake.
# Topology zzz, (3,6)-cn, num edge types: 1
# Building blocks:
#     Node 0, Type 0, BuildingBlock: BETDIP_clean_linker_0, # of connection points: 3
#     Node 1, Type 0, BuildingBlock: BETDIP_clean_linker_0, # of connection points: 3
#     Node 2, Type 0, BuildingBlock: BETDIP_clean_linker_0, # of connection points: 3
#     Node 3, Type 0, BuildingBlock: BETDIP_clean_linker_0, # of connection points: 3
#     Node 4, Type 0, BuildingBlock: BETDIP_clean_linker_0, # of connection points: 3
#     Node 5, Type 0, BuildingBlock: BETDIP_clean_linker_0, # of connection points: 3
#     Node 6, Type 0, BuildingBlock: BETDIP_clean_linker_0, # of connection points: 3
#     Node 7, Type 0, BuildingBlock: BETDIP_clean_linker_0, # of connection points: 3
#     Node 8, Type 1, BuildingBlock: HISSIN_clean_sbu_0, # of connection points: 6
#     Node 9, Type 1, BuildingBlock: HISSIN_clean_sbu_0, # of connection points: 6
#     Node 10, Type 1, BuildingBlock: HISSIN_clean_sbu_0, # of connection points: 6
#     Node 11, Type 1, BuildingBlock: HISSIN_clean_sbu_0, # of connection points: 6
#     Edge 12, Type (0, 1), BuildingBlock: TEMPAE_clean_linker_10, # of connection points: 2
#     Edge 13, Type (0, 1), BuildingBlock: TEMPAE_clean_linker_10, # of connection points: 2
#     Edge 14, Type (0, 1), BuildingBlock: TEMPAE_clean_linker_10, # of connection points: 2
#     Edge 15, Type (0, 1), BuildingBlock: TEMPAE_clean_linker_10, # of connection points: 2
#     Edge 16, Type (0, 1), BuildingBlock: TEMPAE_clean_linker_10, # of connection points: 2
#     Edge 17, Type (0, 1), BuildingBlock: TEMPAE_clean_linker_10, # of connection points: 2
#     Edge 18, Type (0, 1), BuildingBlock: TEMPAE_clean_linker_10, # of connection points: 2
#     Edge 19, Type (0, 1), BuildingBlock: TEMPAE_clean_linker_10, # of connection points: 2
#     Edge 20, Type (0, 1), BuildingBlock: TEMPAE_clean_linker_10, # of connection points: 2
#     Edge 21, Type (0, 1), BuildingBlock: TEMPAE_clean_linker_10, # of connection points: 2
#     Edge 22, Type (0, 1), BuildingBlock: TEMPAE_clean_linker_10, # of connection points: 2
#     Edge 23, Type (0, 1), BuildingBlock: TEMPAE_clean_linker_10, # of connection points: 2
#     Edge 24, Type (0, 1), BuildingBlock: TEMPAE_clean_linker_10, # of connection points: 2
#     Edge 25, Type (0, 1), BuildingBlock: TEMPAE_clean_linker_10, # of connection points: 2
#     Edge 26, Type (0, 1), BuildingBlock: TEMPAE_clean_linker_10, # of connection points: 2
#     Edge 27, Type (0, 1), BuildingBlock: TEMPAE_clean_linker_10, # of connection points: 2
#     Edge 28, Type (0, 1), BuildingBlock: TEMPAE_clean_linker_10, # of connection points: 2
#     Edge 29, Type (0, 1), BuildingBlock: TEMPAE_clean_linker_10, # of connection points: 2
#     Edge 30, Type (0, 1), BuildingBlock: TEMPAE_clean_linker_10, # of connection points: 2
#     Edge 31, Type (0, 1), BuildingBlock: TEMPAE_clean_linker_10, # of connection points: 2
#     Edge 32, Type (0, 1), BuildingBlock: TEMPAE_clean_linker_10, # of connection points: 2
#     Edge 33, Type (0, 1), BuildingBlock: TEMPAE_clean_linker_10, # of connection points: 2
#     Edge 34, Type (0, 1), BuildingBlock: TEMPAE_clean_linker_10, # of connection points: 2
#     Edge 35, Type (0, 1), BuildingBlock: TEMPAE_clean_linker_10, # of connection points: 2
# Relax obj value: 0.267
# Max RMSD: 0.186
# Mean RMSD: 0.096
data_MOF--net-zzz--node1-HISSIN_clean_sbu_0--node2-BETDIP_clean_linker_0--edge1-TEMPAE_clean_linker_10
_symmetry_space_group_name_H-M    P1
_symmetry_Int_Tables_number       1
_symmetry_cell_setting            triclinic
loop_
_symmetry_equiv_pos_as_xyz
'x, y, z'
_cell_length_a     50.854349
_cell_length_b     50.87893
_cell_length_c     16.632346
_cell_angle_alpha  89.590222
_cell_angle_beta   91.760704
_cell_angle_gamma 90.30602
loop_
_atom_site_label
_atom_site_type_symbol
_atom_site_fract_x
_atom_site_fract_y
_atom_site_fract_z
_atom_type_partial_charge
H0 H 0.76855 0.54241 0.38895 0.0
H1 H 0.75522 0.55644 0.13461 0.0
H2 H 0.83364 0.54576 0.22943 0.0
H3 H 0.72387 0.59015 0.22088 0.0
C4 C 0.71527 0.57067 0.22786 0.0
C5 C 0.77617 0.54544 0.3295 0.0
C6 C 0.80366 0.54377 0.31757 0.0
C7 C 0.75856 0.55075 0.26322 0.0
C8 C 0.76859 0.55368 0.18597 0.0
C9 C 0.79549 0.55173 0.17359 0.0
C10 C 0.81275 0.54752 0.23956 0.0
N11 N 0.73069 0.55165 0.27172 0.0
H12 H 0.03103 0.76398 0.34857 0.0
H13 H 0.97186 0.75961 0.15686 0.0
H14 H 0.97515 0.82629 0.31238 0.0
H15 H 0.97291 0.71561 0.19445 0.0
C16 C 0.99399 0.71329 0.18836 0.0
C17 C 1.0138 0.77187 0.31728 0.0
C18 C 1.00369 0.79674 0.33997 0.0
C19 C 1.0013 0.75731 0.25347 0.0
C20 C 0.98007 0.76901 0.21024 0.0
C21 C 0.97075 0.79391 0.23036 0.0
C22 C 0.98179 0.80672 0.2976 0.0
N23 N 1.011 0.73215 0.22818 0.0
H24 H 0.78825 0.02098 0.34338 0.0
H25 H 0.79558 0.96115 0.16234 0.0
H26 H 0.72742 0.96296 0.30678 0.0
H27 H 0.83911 0.96403 0.20197 0.0
C28 C 0.84097 0.98514 0.1931 0.0
C29 C 0.781 1.00338 0.31375 0.0
C30 C 0.75607 0.99251 0.33474 0.0
C31 C 0.79646 0.99112 0.25387 0.0
C32 C 0.78554 0.96932 0.2128 0.0
C33 C 0.76052 0.9595 0.22987 0.0
C34 C 0.74695 0.9702 0.2939 0.0
N35 N 0.82157 1.00158 0.22936 0.0
H36 H 0.5512 0.77928 0.36224 0.0
H37 H 0.5005 0.80119 0.16008 0.0
H38 H 0.48399 0.73139 0.29411 0.0
H39 H 0.55726 0.80333 0.12676 0.0
C40 C 0.55223 0.82036 0.1622 0.0
C41 C 0.53383 0.77567 0.32458 0.0
C42 C 0.5178 0.75315 0.33893 0.0
C43 C 0.52752 0.79319 0.25957 0.0
C44 C 0.50521 0.78819 0.21036 0.0
C45 C 0.48916 0.76644 0.22454 0.0
C46 C 0.49561 0.74919 0.28796 0.0
N47 N 0.5433 0.81575 0.24193 0.0
H48 H 0.29022 0.52042 0.99915 0.0
H49 H 0.29884 0.55217 0.23845 0.0
H50 H 0.22546 0.55979 0.10691 0.0
H51 H 0.34008 0.56754 0.15164 0.0
C52 C 0.34429 0.54666 0.15752 0.0
C53 C 0.282 0.53063 0.04939 0.0
C54 C 0.25566 0.53974 0.04413 0.0
C55 C 0.29802 0.53605 0.11888 0.0
C56 C 0.28701 0.54904 0.18401 0.0
C57 C 0.2608 0.55719 0.18062 0.0
C58 C 0.24561 0.5529 0.11023 0.0
N59 N 0.32513 0.52871 0.12466 0.0
H60 H 0.04331 0.27675 0.0275 0.0
H61 H 1.01095 0.28572 0.26257 0.0
H62 H 1.00307 0.21215 0.1406 0.0
H63 H 0.99566 0.3262 0.17074 0.0
C64 C 0.01647 0.33097 0.1784 0.0
C65 C 0.03298 0.26857 0.07792 0.0
C66 C 0.0237 0.24205 0.07516 0.0
C67 C 0.02749 0.28481 0.14509 0.0
C68 C 1.0142 0.27383 0.21004 0.0
C69 C 1.00561 0.24773 0.20906 0.0
C70 C 1.01022 0.23226 0.14159 0.0
N71 N 0.03472 0.31213 0.14893 0.0
H72 H 0.28189 0.03441 0.0506 0.0
H73 H 0.27426 0.98969 0.27054 0.0
H74 H 0.34342 0.98168 0.13299 0.0
H75 H 0.23007 0.98462 0.19171 0.0
C76 C 0.22806 1.00544 0.20458 0.0
C77 C 0.28972 0.02033 0.09404 0.0
C78 C 0.31492 1.00867 0.08217 0.0
C79 C 0.27429 1.01259 0.16121 0.0
C80 C 0.28507 0.99461 0.21729 0.0
C81 C 0.30993 0.98377 0.20783 0.0
C82 C 0.32429 0.99053 0.14012 0.0
N83 N 0.24828 0.0226 0.17481 0.0
H84 H 0.52262 0.27187 0.03281 0.0
H85 H 0.55746 0.2635 0.2713 0.0
H86 H 0.56737 0.33547 0.14004 0.0
H87 H 0.56957 0.22116 0.18368 0.0
C88 C 0.54863 0.21772 0.19057 0.0
C89 C 0.53408 0.27996 0.08279 0.0
C90 C 0.54457 0.30589 0.07731 0.0
C91 C 0.53968 0.26415 0.15221 0.0
C92 C 0.55425 0.27505 0.21693 0.0
C93 C 0.56391 0.30079 0.21345 0.0
C94 C 0.55938 0.3157 0.14324 0.0
N95 N 0.53103 0.23737 0.1586 0.0
Eu96 Eu 1.01271 0.03151 0.62565 0.0
Eu97 Eu 0.05248 1.01085 0.76591 0.0
C98 C 0.03746 0.0739 0.75392 0.0
C99 C 0.95937 0.07031 0.52184 0.0
C100 C 0.94991 0.08117 0.44939 0.0
C101 C 0.94201 0.10737 0.59417 0.0
C102 C 0.93769 0.10561 0.44874 0.0
C103 C 0.9544 0.08292 0.59462 0.0
C104 C 0.93482 0.11967 0.52081 0.0
C105 C 0.97767 0.04825 0.52029 0.0
O106 O 1.01144 0.99972 0.80666 0.0
O107 O 0.9893 0.03222 0.74054 0.0
C108 C 0.9906 0.01478 0.7991 0.0
O109 O 1.01228 0.98724 0.6059 0.0
O110 O 0.06422 0.01331 0.89292 0.0
O111 O 0.08363 0.98567 0.81704 0.0
O112 O 0.0463 0.97413 0.69006 0.0
C113 C 0.02855 0.96894 0.63305 0.0
O114 O 0.05188 0.02677 0.56292 0.0
O115 O 0.0809 0.02512 0.67143 0.0
O116 O 0.04761 0.05412 0.7956 0.0
O117 O 1.00247 0.055 0.51943 0.0
O118 O 0.97329 0.02913 0.57083 0.0
O119 O 0.0257 0.07013 0.68327 0.0
C120 C 0.06522 0.96999 0.93714 0.0
C121 C 0.05341 0.9488 0.89551 0.0
C122 C 0.03928 0.95901 0.05331 0.0
C123 C 0.03391 0.93383 0.93078 0.0
C124 C 0.05869 0.97436 0.01746 0.0
C125 C 0.02603 0.93942 0.00871 0.0
C126 C 0.07717 0.99134 0.8903 0.0
C127 C 0.07626 0.02687 0.593 0.0
H128 H 0.9537 0.07168 0.39278 0.0
H129 H 0.93984 0.11745 0.65069 0.0
H130 H 0.93286 0.11443 0.39077 0.0
H131 H 0.96162 0.07471 0.65133 0.0
H132 H 0.05773 0.94493 0.83336 0.0
H133 H 0.0337 0.96329 0.11415 0.0
H134 H 0.02444 0.91825 0.89625 0.0
H135 H 0.06714 0.99084 0.05027 0.0
Eu136 Eu 0.54282 0.04168 0.75182 0.0
Eu137 Eu 0.51997 1.00161 0.61886 0.0
C138 C 0.53925 0.98073 0.79332 0.0
C139 C 0.58713 0.05824 0.91431 0.0
C140 C 0.5845 0.05118 0.9955 0.0
C141 C 0.62446 0.02894 0.90667 0.0
C142 C 0.60103 0.03221 0.03086 0.0
C143 C 0.60822 0.04799 0.87173 0.0
C144 C 0.62023 0.0201 0.98514 0.0
C145 C 0.56409 0.06833 0.86856 0.0
O146 O 0.48216 0.01548 0.67671 0.0
O147 O 0.50066 0.03427 0.78989 0.0
C148 C 0.47983 0.02544 0.74921 0.0
O149 O 0.52516 0.06878 0.6559 0.0
O150 O 0.52299 0.96226 0.56961 0.0
O151 O 0.49417 0.98951 0.51868 0.0
O152 O 0.52469 0.0401 0.5502 0.0
C153 C 0.52368 0.06427 0.57799 0.0
O154 O 0.57877 0.03542 0.67532 0.0
O155 O 0.56415 1.00154 0.59558 0.0
O156 O 0.52022 0.97992 0.73848 0.0
O157 O 0.56765 0.07447 0.79327 0.0
O158 O 0.54303 0.05402 0.87706 0.0
O159 O 0.55528 1.00101 0.79509 0.0
C160 C 0.48216 0.94507 0.52612 0.0
C161 C 0.47264 0.93305 0.45586 0.0
C162 C 0.4476 0.92395 0.60114 0.0
C163 C 0.44997 0.91758 0.45728 0.0
C164 C 0.47028 0.93957 0.59948 0.0
C165 C 0.43628 0.91402 0.5292 0.0
C166 C 0.50261 0.96529 0.52097 0.0
C167 C 0.58309 0.01771 0.61989 0.0
H168 H 0.56821 0.05852 0.0292 0.0
H169 H 0.63972 0.02036 0.87127 0.0
H170 H 0.59778 0.02587 0.09208 0.0
H171 H 0.61086 0.05291 0.80903 0.0
H172 H 0.48172 0.93701 0.39889 0.0
H173 H 0.43789 0.9213 0.6577 0.0
H174 H 0.44196 0.91061 0.40024 0.0
H175 H 0.47763 0.94859 0.65462 0.0
Eu176 Eu 0.50761 0.53381 0.74978 0.0
Eu177 Eu 0.55348 0.51656 0.62902 0.0
C178 C 0.56778 0.53578 0.81302 0.0
C179 C 0.4604 0.57035 0.87998 0.0
C180 C 0.47985 0.58819 0.90602 0.0
C181 C 0.4267 0.59912 0.92967 0.0
C182 C 0.47282 0.61119 0.94432 0.0
C183 C 0.4338 0.57587 0.89172 0.0
C184 C 0.44623 0.61684 0.95665 0.0
C185 C 0.46778 0.54681 0.83639 0.0
O186 O 0.53795 0.47768 0.6786 0.0
O187 O 0.51922 0.49298 0.79242 0.0
C188 C 0.52844 0.47348 0.75041 0.0
O189 O 0.48812 0.51336 0.64266 0.0
O190 O 0.5946 0.51889 0.5957 0.0
O191 O 0.5672 0.49406 0.52801 0.0
O192 O 0.51769 0.524 0.5482 0.0
C193 C 0.49359 0.51788 0.56721 0.0
O194 O 0.51809 0.57274 0.68955 0.0
O195 O 0.55007 0.5602 0.60236 0.0
O196 O 0.5732 0.52035 0.75268 0.0
O197 O 0.46801 0.5495 0.75848 0.0
O198 O 0.48833 0.53419 0.86497 0.0
O199 O 0.54462 0.54701 0.81742 0.0
C200 C 0.60977 0.47826 0.54902 0.0
C201 C 0.62106 0.46851 0.47995 0.0
C202 C 0.62381 0.43925 0.62315 0.0
C203 C 0.63246 0.44366 0.48119 0.0
C204 C 0.61219 0.46409 0.6216 0.0
C205 C 0.63269 0.42808 0.55178 0.0
C206 C 0.59179 0.50057 0.54155 0.0
C207 C 0.53484 0.57822 0.63272 0.0
H208 H 0.50045 0.58446 0.896 0.0
H209 H 0.4061 0.60317 0.93844 0.0
H210 H 0.48821 0.62482 0.96321 0.0
H211 H 0.41857 0.56235 0.87089 0.0
H212 H 0.61922 0.47918 0.42343 0.0
H213 H 0.62401 0.42803 0.67875 0.0
H214 H 0.63867 0.43582 0.42453 0.0
H215 H 0.60349 0.47142 0.67567 0.0
Eu216 Eu 0.04009 0.54744 0.6082 0.0
Eu217 Eu 0.02366 0.50398 0.7399 0.0
C218 C 0.0845 0.52286 0.73238 0.0
C219 C 0.07918 0.60018 0.508 0.0
C220 C 0.08862 0.60931 0.43495 0.0
C221 C 0.11959 0.6146 0.57614 0.0
C222 C 0.11389 0.61994 0.43172 0.0
C223 C 0.09433 0.60377 0.57914 0.0
C224 C 0.13018 0.62159 0.50177 0.0
C225 C 0.05577 0.58332 0.50771 0.0
O226 O 1.01325 0.54304 0.79709 0.0
O227 O 0.04151 0.569 0.72745 0.0
C228 C 0.02624 0.56534 0.78895 0.0
O229 O 0.99556 0.54824 0.59782 0.0
O230 O 0.01611 0.49042 0.86196 0.0
O231 O 1.013 0.46313 0.76326 0.0
O232 O 0.9854 0.51086 0.66853 0.0
C233 C 0.97837 0.53049 0.62072 0.0
O234 O 0.0314 0.51004 0.53743 0.0
O235 O 0.04284 0.48195 0.639 0.0
O236 O 0.06565 0.51371 0.77731 0.0
O237 O 0.06054 0.55832 0.49974 0.0
O238 O 0.0389 0.58783 0.5634 0.0
O239 O 0.07931 0.53259 0.66003 0.0
C240 C 0.97966 0.46208 0.85853 0.0
C241 C 0.96028 0.45786 0.79764 0.0
C242 C 0.94537 0.46967 0.95335 0.0
C243 C 0.93375 0.46088 0.81373 0.0
C244 C 0.97191 0.46645 0.9374 0.0
C245 C 0.9262 0.46833 0.89063 0.0
C246 C 1.00701 0.46775 0.83741 0.0
C247 C 0.03796 0.48628 0.56204 0.0
H248 H 0.07723 0.6065 0.37951 0.0
H249 H 0.13142 0.61587 0.63125 0.0
H250 H 0.12134 0.62461 0.37301 0.0
H251 H 0.0873 0.59668 0.63625 0.0
H252 H 0.96557 0.45427 0.73611 0.0
H253 H 0.9402 0.47549 0.01333 0.0
H254 H 0.91931 0.45913 0.76482 0.0
H255 H 0.98649 0.46977 0.98521 0.0
C256 C 0.20146 0.03795 0.28865 0.0
C257 C 0.20601 1.01254 0.25955 0.0
C258 C 0.18079 0.04286 0.34261 0.0
C259 C 0.16425 0.02195 0.36888 0.0
C260 C 0.1689 0.9964 0.33914 0.0
C261 C 0.1894 0.99214 0.28545 0.0
C262 C 0.17668 0.07046 0.37186 0.0
C263 C 0.15228 0.97329 0.36461 0.0
C264 C 0.12524 0.02406 0.56468 0.0
C265 C 0.09912 0.02784 0.53637 0.0
C266 C 0.14657 0.02314 0.51165 0.0
C267 C 0.14213 0.02625 0.42729 0.0
C268 C 0.11593 0.0309 0.39862 0.0
C269 C 0.09494 0.03152 0.45289 0.0
C270 C 0.17385 0.01788 0.54596 0.0
C271 C 0.10988 0.03448 0.30986 0.0
H272 H 0.21406 0.05393 0.26975 0.0
H273 H 0.19263 0.97238 0.26393 0.0
H274 H 0.15628 0.07682 0.35668 0.0
H275 H 0.1792 0.07102 0.43832 0.0
H276 H 0.19063 0.0847 0.34519 0.0
H277 H 0.15838 0.95462 0.33659 0.0
H278 H 0.15365 0.97088 0.43096 0.0
H279 H 0.13131 0.97688 0.34788 0.0
H280 H 0.12904 0.02113 0.62856 0.0
H281 H 0.07507 0.03457 0.42941 0.0
H282 H 0.18787 0.03289 0.52403 0.0
H283 H 0.18066 0.99847 0.52513 0.0
H284 H 0.17458 0.0179 0.61278 0.0
H285 H 0.12309 0.04961 0.28433 0.0
H286 H 0.08915 0.04039 0.29737 0.0
H287 H 0.11351 0.01582 0.27807 0.0
C288 C 0.56119 0.17865 0.27404 0.0
C289 C 0.54104 0.1949 0.24284 0.0
C290 C 0.55608 0.15766 0.32701 0.0
C291 C 0.52998 0.15235 0.35001 0.0
C292 C 0.50935 0.16846 0.31787 0.0
C293 C 0.5151 0.18958 0.26489 0.0
C294 C 0.57884 0.14135 0.35929 0.0
C295 C 0.48123 0.1635 0.34011 0.0
C296 C 0.51998 0.08295 0.43634 0.0
C297 C 0.52242 0.08708 0.51982 0.0
C298 C 0.52103 0.10406 0.38073 0.0
C299 C 0.5248 0.13016 0.40851 0.0
C300 C 0.52637 0.13455 0.49272 0.0
C301 C 0.5251 0.1131 0.54701 0.0
C302 C 0.51908 0.09826 0.29189 0.0
C303 C 0.53056 0.16186 0.52566 0.0
H304 H 0.58132 0.18259 0.25764 0.0
H305 H 0.49938 0.20202 0.24148 0.0
H306 H 0.58007 0.14255 0.42588 0.0
H307 H 0.57568 0.12039 0.34358 0.0
H308 H 0.59797 0.14787 0.33527 0.0
H309 H 0.46731 0.17707 0.30829 0.0
H310 H 0.47551 0.14296 0.32553 0.0
H311 H 0.47925 0.16591 0.40588 0.0
H312 H 0.51779 0.06308 0.41404 0.0
H313 H 0.527 0.11675 0.61104 0.0
H314 H 0.53835 0.10217 0.26451 0.0
H315 H 0.50445 0.11136 0.2615 0.0
H316 H 0.51341 0.07751 0.27983 0.0
H317 H 0.55033 0.16916 0.5096 0.0
H318 H 0.52909 0.16242 0.59213 0.0
H319 H 0.51589 0.17559 0.49839 0.0
C320 C 0.37385 0.5128 0.2283 0.0
C321 C 0.367 0.53901 0.21184 0.0
C322 C 0.39486 0.50662 0.283 0.0
C323 C 0.4091 0.52709 0.32289 0.0
C324 C 0.40226 0.55353 0.30556 0.0
C325 C 0.38154 0.55909 0.25026 0.0
C326 C 0.40169 0.47819 0.29866 0.0
C327 C 0.41653 0.57608 0.34666 0.0
C328 C 0.44551 0.51661 0.52526 0.0
C329 C 0.47202 0.51736 0.50376 0.0
C330 C 0.42489 0.51869 0.4669 0.0
C331 C 0.43071 0.52128 0.38434 0.0
C332 C 0.4574 0.52091 0.36193 0.0
C333 C 0.47766 0.51917 0.42169 0.0
C334 C 0.39686 0.51936 0.49413 0.0
C335 C 0.46463 0.52329 0.27484 0.0
H336 H 0.36277 0.49715 0.19891 0.0
H337 H 0.37635 0.5794 0.23801 0.0
H338 H 0.4228 0.47488 0.28735 0.0
H339 H 0.39856 0.47321 0.36271 0.0
H340 H 0.38967 0.46462 0.26038 0.0
H341 H 0.4089 0.59553 0.3264 0.0
H342 H 0.41451 0.57445 0.41275 0.0
H343 H 0.43784 0.57528 0.33455 0.0
H344 H 0.44079 0.51532 0.58827 0.0
H345 H 0.498 0.51966 0.40402 0.0
H346 H 0.38464 0.5048 0.46036 0.0
H347 H 0.38837 0.53905 0.48123 0.0
H348 H 0.39543 0.5152 0.55952 0.0
H349 H 0.45302 0.50911 0.23764 0.0
H350 H 0.4859 0.51974 0.2663 0.0
H351 H 0.4598 0.54329 0.25207 0.0
C352 C 0.04898 0.36287 0.2485 0.0
C353 C 0.02319 0.35415 0.23111 0.0
C354 C 0.05393 0.38465 0.30007 0.0
C355 C 0.03269 0.39785 0.33606 0.0
C356 C 1.00672 0.38894 0.31836 0.0
C357 C 1.00237 0.36753 0.26625 0.0
C358 C 0.08191 0.39353 0.31619 0.0
C359 C 0.98334 0.40185 0.3553 0.0
C360 C 0.04104 0.4377 0.53095 0.0
C361 C 0.03886 0.46384 0.5034 0.0
C362 C 0.04008 0.41623 0.47731 0.0
C363 C 0.03714 0.42068 0.39314 0.0
C364 C 0.03586 0.44706 0.36474 0.0
C365 C 0.03655 0.46818 0.41984 0.0
C366 C 0.04115 0.38865 0.51121 0.0
C367 C 0.033 0.45301 0.27591 0.0
H368 H 0.06524 0.35277 0.22189 0.0
H369 H 0.98236 0.36097 0.25361 0.0
H370 H 0.08406 0.41457 0.2995 0.0
H371 H 0.08694 0.39176 0.38137 0.0
H372 H 0.09621 0.38187 0.28224 0.0
H373 H 0.9644 0.39251 0.33609 0.0
H374 H 0.98526 0.40076 0.42188 0.0
H375 H 0.98266 0.42296 0.33828 0.0
H376 H 0.04277 0.43387 0.59507 0.0
H377 H 0.03497 0.48816 0.39726 0.0
H378 H 0.0565 0.37715 0.48145 0.0
H379 H 0.02204 0.37859 0.49893 0.0
H380 H 0.04532 0.38836 0.57717 0.0
H381 H 0.04805 0.44223 0.24247 0.0
H382 H 0.03494 0.47435 0.2626 0.0
H383 H 1.01342 0.44622 0.25295 0.0
C384 C 0.86777 0.9754 0.07321 0.0
C385 C 0.86111 0.99351 0.13276 0.0
C386 C 0.8882 0.98023 0.01928 0.0
C387 C 0.90339 1.00364 0.02514 0.0
C388 C 0.89671 0.02224 0.08494 0.0
C389 C 0.87552 0.01714 0.13725 0.0
C390 C 0.89357 0.96008 0.95574 0.0
C391 C 0.91256 0.04715 0.09548 0.0
C392 C 0.97202 0.99921 0.93206 0.0
C393 C 0.96847 1.01238 0.85777 0.0
C394 C 0.95155 0.99723 0.98798 0.0
C395 C 0.92632 1.00806 0.96937 0.0
C396 C 0.92263 0.02131 0.89435 0.0
C397 C 0.94364 0.02357 0.84043 0.0
C398 C 0.9569 0.98319 0.06697 0.0
C399 C 0.89618 0.03256 0.86983 0.0
H400 H 0.85687 0.95706 0.06894 0.0
H401 H 0.871 0.03112 0.18361 0.0
H402 H 0.89003 0.9689 0.89518 0.0
H403 H 0.91447 0.95401 0.95968 0.0
H404 H 0.88097 0.94229 0.96117 0.0
H405 H 0.90478 0.05992 0.14305 0.0
H406 H 0.93329 0.04217 0.11159 0.0
H407 H 0.91268 0.0584 0.03812 0.0
H408 H 0.991 0.99057 0.94709 0.0
H409 H 0.9404 0.03376 0.78356 0.0
H410 H 0.94541 0.96461 0.06855 0.0
H411 H 0.95049 0.99546 0.11762 0.0
H412 H 0.97806 0.97845 0.07667 0.0
H413 H 0.88134 0.01651 0.86558 0.0
H414 H 0.89654 0.04301 0.81099 0.0
H415 H 0.88958 0.04645 0.91607 0.0
C416 C 0.56749 0.84955 0.05144 0.0
C417 C 0.55275 0.84667 0.12101 0.0
C418 C 0.56647 0.87268 0.00428 0.0
C419 C 0.54974 0.89354 0.02555 0.0
C420 C 0.53533 0.89109 0.09724 0.0
C421 C 0.53712 0.8678 0.14438 0.0
C422 C 0.58278 0.87445 0.9301 0.0
C423 C 0.51733 0.91277 0.12266 0.0
C424 C 0.56047 0.96 0.91878 0.0
C425 C 0.54187 0.95889 0.85443 0.0
C426 C 0.56267 0.93945 0.97646 0.0
C427 C 0.54618 0.9169 0.96959 0.0
C428 C 0.52715 0.91591 0.90546 0.0
C429 C 0.52522 0.93676 0.8492 0.0
C430 C 0.58316 0.94171 0.04362 0.0
C431 C 0.50897 0.89253 0.89537 0.0
H432 H 0.57962 0.83335 0.03291 0.0
H433 H 0.52547 0.86572 0.19754 0.0
H434 H 0.56966 0.87575 0.87567 0.0
H435 H 0.59506 0.89255 0.93195 0.0
H436 H 0.59588 0.85722 0.92403 0.0
H437 H 0.50879 0.90875 0.18221 0.0
H438 H 0.52821 0.93173 0.12544 0.0
H439 H 0.50103 0.91511 0.07732 0.0
H440 H 0.57337 0.97697 0.92424 0.0
H441 H 0.51066 0.93555 0.80037 0.0
H442 H 0.60071 0.93019 0.02795 0.0
H443 H 0.57583 0.93364 0.10091 0.0
H444 H 0.5893 0.96244 0.05349 0.0
H445 H 0.52063 0.8747 0.8832 0.0
H446 H 0.49426 0.89531 0.8453 0.0
H447 H 0.49838 0.88884 0.95172 0.0
C448 C 0.68315 0.58308 0.11809 0.0
C449 C 0.69214 0.56404 0.17379 0.0
C450 C 0.66235 0.57788 0.06262 0.0
C451 C 0.64965 0.55304 0.06302 0.0
C452 C 0.65823 0.53382 0.12041 0.0
C453 C 0.67951 0.53945 0.17467 0.0
C454 C 0.65438 0.5989 1.0022 0.0
C455 C 0.64506 0.50722 0.12398 0.0
C456 C 0.58219 0.55047 0.95298 0.0
C457 C 0.58841 0.53984 0.8782 0.0
C458 C 0.60164 0.55397 0.0146 0.0
C459 C 0.62818 0.54713 1.00114 0.0
C460 C 0.63451 0.5363 0.92589 0.0
C461 C 0.61464 0.53262 0.86596 0.0
C462 C 0.59383 0.56525 0.09401 0.0
C463 C 0.66248 0.52915 0.90776 0.0
H464 H 0.69283 0.60212 0.11679 0.0
H465 H 0.68625 0.52462 0.21751 0.0
H466 H 0.65705 0.5916 0.94028 0.0
H467 H 0.63325 0.60362 0.0076 0.0
H468 H 0.66604 0.61728 0.01018 0.0
H469 H 0.65289 0.495 0.17479 0.0
H470 H 0.62354 0.50958 0.13033 0.0
H471 H 0.64799 0.49657 0.06702 0.0
H472 H 0.56202 0.55592 0.96369 0.0
H473 H 0.61983 0.52443 0.80864 0.0
H474 H 0.60348 0.58464 0.10323 0.0
H475 H 0.60064 0.55222 0.14414 0.0
H476 H 0.57221 0.56781 0.09734 0.0
H477 H 0.67508 0.54702 0.91032 0.0
H478 H 0.6641 0.52014 0.84749 0.0
H479 H 0.67041 0.51518 0.95378 0.0
C480 C 0.98323 0.68335 0.07367 0.0
C481 C 1.00221 0.69261 0.12998 0.0
C482 C 0.98864 0.66311 0.01923 0.0
C483 C 1.01363 0.65089 0.02152 0.0
C484 C 0.03305 0.66013 0.07829 0.0
C485 C 0.02725 0.68106 0.13114 0.0
C486 C 0.96738 0.65473 0.95922 0.0
C487 C 0.05979 0.64749 0.08438 0.0
C488 C 1.01384 0.58199 0.92654 0.0
C489 C 0.02387 0.58693 0.85 0.0
C490 C 1.01157 0.60225 0.98393 0.0
C491 C 0.01895 0.62848 0.96451 0.0
C492 C 0.02927 0.63352 0.88751 0.0
C493 C 0.03184 0.6128 0.83198 0.0
C494 C 1.00089 0.59561 0.06527 0.0
C495 C 0.03683 0.66104 0.86256 0.0
H496 H 0.96383 0.69212 0.07197 0.0
H497 H 0.04201 0.68781 0.17473 0.0
H498 H 0.97479 0.65603 0.89725 0.0
H499 H 0.96183 0.63394 0.97027 0.0
H500 H 0.94943 0.66699 0.96241 0.0
H501 H 0.07283 0.65688 0.13079 0.0
H502 H 0.05761 0.62633 0.09956 0.0
H503 H 0.06944 0.64869 0.02557 0.0
H504 H 1.00783 0.56216 0.94196 0.0
H505 H 0.03959 0.61707 0.77331 0.0
H506 H 0.98154 0.60518 0.07183 0.0
H507 H 1.01428 0.60329 0.11365 0.0
H508 H 0.99836 0.57409 0.07419 0.0
H509 H 0.01914 0.67373 0.86095 0.0
H510 H 0.04572 0.66165 0.80237 0.0
H511 H 0.05104 0.66959 0.90716 0.0
C512 C 0.97244 0.25063 0.31817 0.0
C513 C 0.99158 0.2363 0.27822 0.0
C514 C 0.95771 0.23892 0.37908 0.0
C515 C 0.96171 0.21208 0.39835 0.0
C516 C 0.9818 0.19791 0.36036 0.0
C517 C 0.99674 0.21038 0.30216 0.0
C518 C 0.93748 0.25529 0.42001 0.0
C519 C 0.98706 0.16919 0.37867 0.0
C520 C 0.94758 0.16528 0.56046 0.0
C521 C 0.93058 0.14854 0.51614 0.0
C522 C 0.95416 0.19011 0.52989 0.0
C523 C 0.94418 0.1975 0.4529 0.0
C524 C 0.92257 0.18353 0.41841 0.0
C525 C 0.91563 0.15918 0.45162 0.0
C526 C 0.97523 0.20609 0.57282 0.0
C527 C 0.91004 0.1918 0.33894 0.0
H528 H 0.96835 0.27078 0.30038 0.0
H529 H 1.01218 0.19952 0.27379 0.0
H530 H 0.93164 0.24675 0.47842 0.0
H531 H 0.94515 0.2755 0.43042 0.0
H532 H 0.91971 0.25703 0.37999 0.0
H533 H 1.00248 0.1609 0.34046 0.0
H534 H 0.99362 0.16674 0.44246 0.0
H535 H 0.96883 0.15743 0.369 0.0
H536 H 0.95858 0.1579 0.61261 0.0
H537 H 0.90123 0.14694 0.42009 0.0
H538 H 0.97451 0.20314 0.63896 0.0
H539 H 0.97309 0.22734 0.55862 0.0
H540 H 0.99485 0.19967 0.55335 0.0
H541 H 0.90651 0.21328 0.3378 0.0
H542 H 0.89108 0.18141 0.32676 0.0
H543 H 0.92355 0.1872 0.28982 0.0
C544 C 0.34828 0.96965 0.2934 0.0
C545 C 0.32178 0.96631 0.2708 0.0
C546 C 0.36047 0.95326 0.35066 0.0
C547 C 0.34557 0.93328 0.38862 0.0
C548 C 0.31852 0.93022 0.36802 0.0
C549 C 0.30698 0.94663 0.30851 0.0
C550 C 0.38947 0.9575 0.36992 0.0
C551 C 0.30172 0.90948 0.40685 0.0
C552 C 0.39881 0.89014 0.46103 0.0
C553 C 0.40796 0.90643 0.52383 0.0
C554 C 0.37445 0.89518 0.42237 0.0
C555 C 0.35916 0.91628 0.44954 0.0
C556 C 0.36494 0.92703 0.52615 0.0
C557 C 0.38965 0.92218 0.56261 0.0
C558 C 0.36772 0.8816 0.34418 0.0
C559 C 0.34766 0.94775 0.56114 0.0
H560 H 0.35962 0.9853 0.26628 0.0
H561 H 0.28645 0.94384 0.29098 0.0
H562 H 0.39247 0.963 0.43395 0.0
H563 H 0.40048 0.93914 0.35973 0.0
H564 H 0.39818 0.97327 0.33245 0.0
H565 H 0.2811 0.91632 0.41118 0.0
H566 H 0.30136 0.89165 0.36881 0.0
H567 H 0.30927 0.9039 0.46785 0.0
H568 H 0.41222 0.87649 0.43414 0.0
H569 H 0.39577 0.934 0.61383 0.0
H570 H 0.37428 0.89408 0.29347 0.0
H571 H 0.34617 0.87862 0.33682 0.0
H572 H 0.37768 0.86227 0.34069 0.0
H573 H 0.3531 0.96727 0.53621 0.0
H574 H 0.35033 0.94854 0.62764 0.0
H575 H 0.32662 0.94397 0.54537 0.0
C576 C 0.57369 0.33894 0.30277 0.0
C577 C 0.57825 0.31264 0.28359 0.0
C578 C 0.58815 0.35141 0.36427 0.0
C579 C 0.60712 0.33696 0.4104 0.0
C580 C 0.61086 0.30996 0.39459 0.0
C581 C 0.59663 0.29819 0.33041 0.0
C582 C 0.58329 0.38032 0.37851 0.0
C583 C 0.63016 0.29345 0.44328 0.0
C584 C 0.65215 0.38906 0.48542 0.0
C585 C 0.63601 0.39915 0.54468 0.0
C586 C 0.64568 0.36524 0.44768 0.0
C587 C 0.62321 0.35119 0.47224 0.0
C588 C 0.6114 0.35795 0.54496 0.0
C589 C 0.61763 0.38224 0.58004 0.0
C590 C 0.65994 0.3577 0.37322 0.0
C591 C 0.58902 0.34196 0.57759 0.0
H592 H 0.55887 0.34998 0.26892 0.0
H593 H 0.60033 0.27782 0.3161 0.0
H594 H 0.57547 0.38311 0.43936 0.0
H595 H 0.60196 0.3916 0.37524 0.0
H596 H 0.56898 0.38887 0.33393 0.0
H597 H 0.62264 0.27302 0.44975 0.0
H598 H 0.64891 0.2924 0.41113 0.0
H599 H 0.63432 0.30157 0.50411 0.0
H600 H 0.66752 0.40134 0.46109 0.0
H601 H 0.60555 0.38916 0.62799 0.0
H602 H 0.64795 0.36354 0.31916 0.0
H603 H 0.66279 0.33613 0.37122 0.0
H604 H 0.67943 0.36758 0.37033 0.0
H605 H 0.57019 0.34884 0.54952 0.0
H606 H 0.58788 0.34437 0.64372 0.0
H607 H 0.59126 0.32079 0.56377 0.0
C608 C 0.26221 0.58915 0.29586 0.0
C609 C 0.24873 0.56987 0.25051 0.0
C610 C 0.2497 0.6026 0.35747 0.0
C611 C 0.22295 0.59708 0.37208 0.0
C612 C 0.20968 0.57684 0.32855 0.0
C613 C 0.22291 0.56324 0.26961 0.0
C614 C 0.26505 0.62318 0.4042 0.0
C615 C 0.18113 0.56999 0.34191 0.0
C616 C 0.17638 0.60774 0.53436 0.0
C617 C 0.15903 0.62499 0.49332 0.0
C618 C 0.20094 0.602 0.50293 0.0
C619 C 0.20754 0.61306 0.428 0.0
C620 C 0.19267 0.63433 0.39607 0.0
C621 C 0.1686 0.64036 0.43013 0.0
C622 C 0.21765 0.581 0.54294 0.0
C623 C 0.19983 0.64769 0.31848 0.0
H624 H 0.28227 0.59431 0.28179 0.0
H625 H 0.21271 0.54769 0.23687 0.0
H626 H 0.26501 0.64181 0.36915 0.0
H627 H 0.25666 0.627 0.46378 0.0
H628 H 0.28589 0.61711 0.41329 0.0
H629 H 0.17356 0.55459 0.30007 0.0
H630 H 0.17879 0.56272 0.40431 0.0
H631 H 0.16867 0.58769 0.33356 0.0
H632 H 0.16976 0.59623 0.585 0.0
H633 H 0.15588 0.65481 0.40095 0.0
H634 H 0.23875 0.58375 0.52962 0.0
H635 H 0.21125 0.56144 0.52032 0.0
H636 H 0.21537 0.58107 0.60915 0.0
H637 H 0.22123 0.65193 0.31815 0.0
H638 H 0.18891 0.66635 0.30873 0.0
H639 H 0.19501 0.63441 0.26736 0.0
C640 C 0.96591 0.81274 0.09404 0.0
C641 C 0.95557 0.8101 0.17083 0.0
C642 C 0.96603 0.83729 0.05572 0.0
C643 C 0.95508 0.85905 0.09521 0.0
C644 C 0.9385 0.8546 0.16054 0.0
C645 C 0.93877 0.82979 0.19793 0.0
C646 C 0.98249 0.8408 0.98232 0.0
C647 C 0.9243 0.87688 0.19922 0.0
C648 C 1.00919 0.90931 0.11292 0.0
C649 C 1.00448 0.92394 0.04282 0.0
C650 C 0.99161 0.88956 0.13543 0.0
C651 C 0.96857 0.88479 0.0869 0.0
C652 C 0.96222 0.90177 0.02168 0.0
C653 C 0.98049 0.92109 0.99973 0.0
C654 C 0.99915 0.87225 0.20667 0.0
C655 C 0.9368 0.89883 0.97325 0.0
H656 H 0.97797 0.79725 0.07049 0.0
H657 H 0.92947 0.82731 0.25533 0.0
H658 H 0.97297 0.85452 0.93852 0.0
H659 H 1.00193 0.84925 1.00068 0.0
H660 H 0.98586 0.8218 0.95185 0.0
H661 H 0.93754 0.88629 0.24495 0.0
H662 H 0.91836 0.89205 0.15403 0.0
H663 H 0.90658 0.86961 0.23007 0.0
H664 H 0.02766 0.91184 0.14638 0.0
H665 H 0.9766 0.9332 0.94682 0.0
H666 H 1.0027 0.8519 0.18621 0.0
H667 H 0.98299 0.87155 0.24984 0.0
H668 H 0.01722 0.8793 0.23911 0.0
H669 H 0.93321 0.87807 0.95602 0.0
H670 H 0.93653 0.91117 0.91786 0.0
H671 H 0.92023 0.90484 0.01077 0.0
C672 C 0.74424 0.95444 0.08972 0.0
C673 C 0.74506 0.94435 0.16848 0.0
C674 C 0.72038 0.95525 0.04578 0.0
C675 C 0.69752 0.94517 0.08166 0.0
C676 C 0.7002 0.92833 0.14922 0.0
C677 C 0.72433 0.92799 0.19252 0.0
C678 C 0.71882 0.97176 0.96996 0.0
C679 C 0.6767 0.91466 0.18365 0.0
C680 C 0.65026 1.00147 0.09042 0.0
C681 C 0.63603 0.99821 0.01825 0.0
C682 C 0.66886 0.98285 0.1159 0.0
C683 C 0.67283 0.96014 0.06833 0.0
C684 C 0.65629 0.95541 1.00009 0.0
C685 C 0.63832 0.97482 0.9749 0.0
C686 C 0.68562 0.98877 0.19029 0.0
C687 C 0.65785 0.93021 0.95316 0.0
H688 H 0.76059 0.96596 0.06811 0.0
H689 H 0.72542 0.91862 0.25129 0.0
H690 H 0.70534 0.96272 0.92431 0.0
H691 H 0.71103 0.99148 0.98423 0.0
H692 H 0.73845 0.97441 0.94338 0.0
H693 H 0.68272 0.89656 0.21693 0.0
H694 H 0.66714 0.92792 0.22654 0.0
H695 H 0.66201 0.90949 0.13553 0.0
H696 H 0.64811 0.01947 0.1241 0.0
H697 H 0.62638 0.97199 0.92048 0.0
H698 H 0.70646 0.99127 0.17393 0.0
H699 H 0.68446 0.97231 0.23402 0.0
H700 H 0.67938 1.00696 0.22078 0.0
H701 H 0.67851 0.92497 0.94142 0.0
H702 H 0.64659 0.93135 0.89493 0.0
H703 H 0.64948 0.91396 0.98935 0.0
C704 C 0.47551 0.75306 0.08705 0.0
C705 C 0.46837 0.75843 0.16579 0.0
C706 C 0.46156 0.73424 0.04171 0.0
C707 C 0.44019 0.72091 0.07672 0.0
C708 C 0.4296 0.73066 0.14807 0.0
C709 C 0.44414 0.74921 0.19296 0.0
C710 C 0.47261 0.72541 0.96327 0.0
C711 C 0.40543 0.71849 0.18339 0.0
C712 C 0.42176 0.65938 0.96081 0.0
C713 C 0.43952 0.64154 0.99685 0.0
C714 C 0.41971 0.68505 0.99045 0.0
C715 C 0.43612 0.69284 0.05643 0.0
C716 C 0.4522 0.67398 0.09729 0.0
C717 C 0.45349 0.64852 0.06715 0.0
C718 C 0.40128 0.70397 0.94753 0.0
C719 C 0.46976 0.68104 0.16917 0.0
H720 H 0.49397 0.76066 0.06528 0.0
H721 H 0.43819 0.75407 0.2531 0.0
H722 H 0.48354 0.70677 0.9732 0.0
H723 H 0.45655 0.72165 0.91821 0.0
H724 H 0.48631 0.74024 0.93833 0.0
H725 H 0.39542 0.73264 0.22263 0.0
H726 H 0.39139 0.71177 0.1353 0.0
H727 H 0.41121 0.70116 0.22063 0.0
H728 H 0.41069 0.65383 0.90677 0.0
H729 H 0.46665 0.63438 0.09602 0.0
H730 H 0.41063 0.71148 0.89246 0.0
H731 H 0.39626 0.72094 0.98558 0.0
H732 H 0.38282 0.69374 0.92815 0.0
H733 H 0.4843 0.69624 0.15185 0.0
H734 H 0.48072 0.66383 0.19407 0.0
H735 H 0.45789 0.68924 0.21772 0.0
C736 C 0.83026 0.56046 0.07499 0.0
C737 C 0.80573 0.54942 0.09173 0.0
C738 C 0.84586 0.54941 0.01645 0.0
C739 C 0.83615 0.52741 0.97301 0.0
C740 C 0.80944 0.52006 0.97791 0.0
C741 C 0.79446 0.53093 0.03856 0.0
C742 C 0.87396 0.55872 0.00996 0.0
C743 C 0.79785 0.49834 0.92667 0.0
C744 C 0.88864 0.49711 0.84779 0.0
C745 C 0.8996 0.4789 0.903 0.0
C746 C 0.86649 0.51185 0.86658 0.0
C747 C 0.85533 0.50839 0.9427 0.0
C748 C 0.8652 0.48868 0.99626 0.0
C749 C 0.88705 0.47398 0.97519 0.0
C750 C 0.85585 0.53163 0.80588 0.0
C751 C 0.85407 0.48447 0.07873 0.0
H752 H 0.83851 0.57554 0.11417 0.0
H753 H 0.77518 0.52276 0.04976 0.0
H754 H 0.88735 0.54408 0.03911 0.0
H755 H 0.87929 0.56054 0.94599 0.0
H756 H 0.87733 0.57799 0.03966 0.0
H757 H 0.77603 0.4995 0.92262 0.0
H758 H 0.80569 0.49922 0.86513 0.0
H759 H 0.8033 0.47903 0.9536 0.0
H760 H 0.89842 0.50119 0.79211 0.0
H761 H 0.89526 0.45961 0.01724 0.0
H762 H 0.84703 0.54895 0.83459 0.0
H763 H 0.84024 0.52202 0.7682 0.0
H764 H 0.87147 0.53859 0.7655 0.0
H765 H 0.86392 0.46816 0.11244 0.0
H766 H 0.83275 0.47995 0.07331 0.0
H767 H 0.85641 0.50269 0.11469 0.0
C768 C 0.05158 0.21689 0.97636 0.0
C769 C 0.02682 0.22338 0.00561 0.0
C770 C 0.05485 0.19469 0.92617 0.0
C771 C 0.03301 0.17813 0.90574 0.0
C772 C 1.00781 0.18561 0.93133 0.0
C773 C 1.00503 0.20814 0.97926 0.0
C774 C 0.08198 0.18822 0.89836 0.0
C775 C 0.98385 0.16876 0.91306 0.0
C776 C 0.03273 0.12377 0.74454 0.0
C777 C 0.03811 0.10099 0.79062 0.0
C778 C 0.03217 0.14904 0.78013 0.0
C779 C 0.03648 0.15185 0.86453 0.0
C780 C 0.0421 0.12893 0.91103 0.0
C781 C 0.04314 0.10408 0.87372 0.0
C782 C 0.02673 0.17274 0.72733 0.0
C783 C 0.04609 0.13046 1.00121 0.0
H784 H 0.06863 0.22824 0.99624 0.0
H785 H 0.98572 0.21297 1.00061 0.0
H786 H 0.08972 0.17099 0.9326 0.0
H787 H 0.08124 0.1829 0.83373 0.0
H788 H 0.09592 0.2049 0.90741 0.0
H789 H 0.96544 0.17793 0.93331 0.0
H790 H 0.98178 0.165 0.8476 0.0
H791 H 0.98617 0.14941 0.94367 0.0
H792 H 0.02888 0.12188 0.68039 0.0
H793 H 0.04712 0.08682 0.9106 0.0
H794 H 0.0428 0.1874 0.73568 0.0
H795 H 1.00826 0.18231 0.74499 0.0
H796 H 0.02489 0.16759 0.66259 0.0
H797 H 0.06234 0.14431 0.01674 0.0
H798 H 0.05071 0.11103 0.02894 0.0
H799 H 0.02802 0.13816 0.02831 0.0
C800 C 0.34248 0.03936 0.99445 0.0
C801 C 0.33285 0.01406 0.01222 0.0
C802 C 0.36439 0.04314 0.94404 0.0
C803 C 0.37765 0.02116 0.91156 0.0
C804 C 0.36702 0.99578 0.92593 0.0
C805 C 0.3448 0.99266 0.97428 0.0
C806 C 0.3741 0.07069 0.92853 0.0
C807 C 0.38025 0.97153 0.89492 0.0
C808 C 0.42937 0.0251 0.7448 0.0
C809 C 0.4534 0.02555 0.78924 0.0
C810 C 0.40473 0.0249 0.78319 0.0
C811 C 0.40368 0.02417 0.86867 0.0
C812 C 0.42792 0.02449 0.91354 0.0
C813 C 0.45217 0.02558 0.87374 0.0
C814 C 0.37975 0.02531 0.73193 0.0
C815 C 0.42835 0.02283 0.00422 0.0
H816 H 0.33384 0.05611 0.02338 0.0
H817 H 0.33767 0.97298 0.9868 0.0
H818 H 0.39269 0.07414 0.96356 0.0
H819 H 0.37837 0.07342 0.86395 0.0
H820 H 0.35958 0.08568 0.94606 0.0
H821 H 0.36909 0.95326 0.90827 0.0
H822 H 0.38254 0.97302 0.82899 0.0
H823 H 0.40026 0.96984 0.92295 0.0
H824 H 0.42978 0.02517 0.6797 0.0
H825 H 0.47038 0.02566 0.90937 0.0
H826 H 0.36593 0.04012 0.75476 0.0
H827 H 0.36984 1.00588 0.73502 0.0
H828 H 0.38358 0.02982 0.66789 0.0
H829 H 0.41725 0.03945 0.02908 0.0
H830 H 0.44867 0.02319 0.03075 0.0
H831 H 0.41851 1.00441 0.02355 0.0
C832 C 0.56279 0.33795 0.9774 0.0
C833 C 0.5409 0.32399 0.00566 0.0
C834 C 0.55994 0.36027 0.92729 0.0
C835 C 0.5345 0.36882 0.9021 0.0
C836 C 0.5124 0.35341 0.92426 0.0
C837 C 0.51581 0.33136 0.97624 0.0
C838 C 0.58419 0.37588 0.90666 0.0
C839 C 0.48495 0.36111 0.89689 0.0
C840 C 0.52627 0.44313 0.87067 0.0
C841 C 0.52889 0.44636 0.78724 0.0
C842 C 0.52766 0.41815 0.90795 0.0
C843 C 0.53117 0.39531 0.86104 0.0
C844 C 0.53327 0.39831 0.77643 0.0
C845 C 0.53238 0.42371 0.74078 0.0
C846 C 0.52614 0.41634 0.99837 0.0
C847 C 0.5364 0.37466 0.72344 0.0
H848 H 0.58231 0.33236 0.99907 0.0
H849 H 0.49873 0.32093 0.99768 0.0
H850 H 0.58456 0.3798 0.84104 0.0
H851 H 0.58382 0.3952 0.9372 0.0
H852 H 0.60264 0.36564 0.92547 0.0
H853 H 0.47049 0.34509 0.90732 0.0
H854 H 0.47882 0.37871 0.93039 0.0
H855 H 0.48441 0.36633 0.83196 0.0
H856 H 0.52379 0.46033 0.90768 0.0
H857 H 0.53428 0.42579 0.67633 0.0
H858 H 0.54451 0.40757 0.02413 0.0
H859 H 0.50964 0.40327 0.01507 0.0
H860 H 0.52331 0.43583 0.02643 0.0
H861 H 0.55383 0.3631 0.74366 0.0
H862 H 0.53859 0.38019 0.65924 0.0
H863 H 0.51897 0.36161 0.72846 0.0
C864 C 0.22301 0.55797 0.94307 0.0
C865 C 0.2374 0.5362 0.97238 0.0
C866 C 0.20016 0.55491 0.89408 0.0
C867 C 0.19156 0.5294 0.87153 0.0
C868 C 0.20746 0.50751 0.89423 0.0
C869 C 0.23005 0.51111 0.94498 0.0
C870 C 0.18402 0.57892 0.8725 0.0
C871 C 0.19964 0.48005 0.8694 0.0
C872 C 0.117 0.52014 0.84936 0.0
C873 C 0.1122 0.52309 0.76614 0.0
C874 C 0.14264 0.52166 0.88365 0.0
C875 C 0.16445 0.5257 0.83377 0.0
C876 C 0.15987 0.52804 0.74937 0.0
C877 C 0.13386 0.52696 0.71673 0.0
C878 C 0.14625 0.51983 0.97401 0.0
C879 C 0.18245 0.53172 0.69352 0.0
H880 H 0.2286 0.57745 0.9636 0.0
H881 H 0.24087 0.49416 0.96748 0.0
H882 H 0.17884 0.5793 0.80726 0.0
H883 H 0.16532 0.57822 0.9052 0.0
H884 H 0.1945 0.59748 0.88829 0.0
H885 H 0.21604 0.46593 0.87918 0.0
H886 H 0.18279 0.47332 0.90515 0.0
H887 H 0.19322 0.4797 0.80504 0.0
H888 H 0.10054 0.51735 0.88846 0.0
H889 H 0.13051 0.52911 0.65236 0.0
H890 H 0.15531 0.53826 0.99737 0.0
H891 H 0.1598 0.50353 0.99054 0.0
H892 H 0.12736 0.5165 0.00447 0.0
H893 H 0.19443 0.5491 0.71152 0.0
H894 H 0.17565 0.5343 0.62983 0.0
H895 H 0.19554 0.51436 0.69794 0.0
C896 C 1.00263 0.82025 0.4718 0.0
C897 C 0.01599 0.81514 0.40085 0.0
C898 C 1.00659 0.84388 0.51504 0.0
C899 C 0.02421 0.86338 0.48677 0.0
C900 C 0.03893 0.85763 0.41783 0.0
C901 C 0.0346 0.83378 0.37582 0.0
C902 C 0.99031 0.8488 0.58769 0.0
C903 C 0.05804 0.87748 0.3851 0.0
C904 C 1.00939 0.9359 0.53287 0.0
C905 C 0.0272 0.94173 0.59685 0.0
C906 C 1.00831 0.91075 0.49694 0.0
C907 C 0.02545 0.89046 0.52491 0.0
C908 C 0.04344 0.89616 0.58955 0.0
C909 C 0.0441 0.92151 0.62448 0.0
C910 C 0.98885 0.90597 0.42814 0.0
C911 C 0.06212 0.87542 0.62181 0.0
H912 H 0.9875 0.80656 0.49011 0.0
H913 H 0.04426 0.83064 0.31949 0.0
H914 H 1.00291 0.85607 0.63851 0.0
H915 H 0.97556 0.86425 0.57306 0.0
H916 H 0.97976 0.83082 0.60748 0.0
H917 H 0.06947 0.86943 0.3351 0.0
H918 H 0.04717 0.89503 0.36259 0.0
H919 H 0.07196 0.88416 0.43352 0.0
H920 H 0.99626 0.95113 0.51019 0.0
H921 H 0.05802 0.92549 0.67357 0.0
H922 H 0.97636 0.8886 0.4412 0.0
H923 H 0.99958 0.90165 0.37277 0.0
H924 H 0.97589 0.92315 0.41603 0.0
H925 H 0.05088 0.85813 0.64323 0.0
H926 H 0.07493 0.88276 0.67219 0.0
H927 H 0.07477 0.86855 0.57308 0.0
C928 C 0.73113 0.99041 0.46333 0.0
C929 C 0.73682 1.00416 0.3921 0.0
C930 C 0.70734 0.99424 0.5041 0.0
C931 C 0.68809 1.0121 0.47316 0.0
C932 C 0.69427 0.02697 0.40333 0.0
C933 C 0.71829 0.02277 0.36383 0.0
C934 C 0.70211 0.97777 0.57773 0.0
C935 C 0.67476 0.04624 0.36716 0.0
C936 C 0.61505 0.99852 0.5202 0.0
C937 C 0.61005 0.01619 0.58279 0.0
C938 C 0.63998 0.99718 0.48414 0.0
C939 C 0.66103 0.01385 0.51056 0.0
C940 C 0.65613 0.03175 0.57358 0.0
C941 C 0.63098 0.03271 0.60854 0.0
C942 C 0.64381 0.97778 0.41732 0.0
C943 C 0.67756 0.05003 0.60428 0.0
H944 H 0.74461 0.97524 0.4843 0.0
H945 H 0.72171 0.03272 0.30724 0.0
H946 H 0.69554 0.99035 0.62739 0.0
H947 H 0.68603 0.96355 0.56373 0.0
H948 H 0.71977 0.96665 0.59894 0.0
H949 H 0.68331 0.05821 0.31823 0.0
H950 H 0.65741 0.03542 0.34206 0.0
H951 H 0.66763 0.05962 0.41407 0.0
H952 H 0.59934 0.98564 0.49884 0.0
H953 H 0.62776 0.04655 0.65641 0.0
H954 H 0.65996 0.96405 0.4343 0.0
H955 H 0.64966 0.9883 0.36197 0.0
H956 H 0.62573 0.96613 0.40329 0.0
H957 H 0.69461 0.03845 0.62761 0.0
H958 H 0.67082 0.06298 0.65294 0.0
H959 H 0.6846 0.06249 0.55425 0.0
C960 C 0.54918 0.72148 0.41301 0.0
C961 C 0.52385 0.73208 0.40149 0.0
C962 C 0.55335 0.69795 0.45801 0.0
C963 C 0.53167 0.68414 0.49061 0.0
C964 C 0.50637 0.69557 0.48266 0.0
C965 C 0.50297 0.71949 0.44052 0.0
C966 C 0.58088 0.6873 0.46769 0.0
C967 C 0.48241 0.68164 0.51395 0.0
C968 C 0.53447 0.60898 0.51365 0.0
C969 C 0.53549 0.6054 0.59747 0.0
C970 C 0.53349 0.63433 0.47841 0.0
C971 C 0.53475 0.65701 0.52778 0.0
C972 C 0.53688 0.65344 0.6126 0.0
C973 C 0.53656 0.6278 0.64636 0.0
C974 C 0.53009 0.63679 0.38818 0.0
C975 C 0.53938 0.67676 0.66787 0.0
H976 H 0.56555 0.73078 0.38363 0.0
H977 H 0.48337 0.72767 0.43425 0.0
H978 H 0.58478 0.68047 0.53044 0.0
H979 H 0.58309 0.67015 0.42775 0.0
H980 H 0.59593 0.70225 0.45207 0.0
H981 H 0.46415 0.69328 0.50425 0.0
H982 H 0.47978 0.66249 0.48308 0.0
H983 H 0.48503 0.67743 0.57916 0.0
H984 H 0.53339 0.59181 0.47541 0.0
H985 H 0.53756 0.62524 0.71114 0.0
H986 H 0.54662 0.64825 0.36342 0.0
H987 H 0.51171 0.64764 0.37276 0.0
H988 H 0.52916 0.61736 0.35816 0.0
H989 H 0.55485 0.69042 0.64679 0.0
H990 H 0.54429 0.6708 0.73092 0.0
H991 H 0.52062 0.68777 0.6671 0.0
C992 C 0.84325 0.5183 0.36576 0.0
C993 C 0.82401 0.53716 0.3821 0.0
C994 C 0.86685 0.51644 0.41184 0.0
C995 C 0.87127 0.53318 0.47865 0.0
C996 C 0.85086 0.55057 0.50022 0.0
C997 C 0.82762 0.55259 0.45125 0.0
C998 C 0.88784 0.4978 0.38515 0.0
C999 C 0.85419 0.5681 0.57251 0.0
C1000 C 0.93068 0.51513 0.61647 0.0
C1001 C 0.9504 0.53219 0.58879 0.0
C1002 C 0.90471 0.51575 0.58327 0.0
C1003 C 0.89803 0.53385 0.52069 0.0
C1004 C 0.91773 0.55136 0.49352 0.0
C1005 C 0.94344 0.55042 0.52795 0.0
C1006 C 0.88445 0.49678 0.61441 0.0
C1007 C 0.91193 0.57054 0.42566 0.0
H1008 H 0.84058 0.50606 0.31299 0.0
H1009 H 0.81303 0.56727 0.46447 0.0
H1010 H 0.90508 0.50923 0.36483 0.0
H1011 H 0.89471 0.48513 0.43599 0.0
H1012 H 0.88079 0.485 0.33501 0.0
H1013 H 0.8353 0.57714 0.58917 0.0
H1014 H 0.86232 0.55683 0.62484 0.0
H1015 H 0.86838 0.58407 0.55924 0.0
H1016 H 0.93556 0.50104 0.66368 0.0
H1017 H 0.9583 0.56368 0.50551 0.0
H1018 H 0.87499 0.48564 0.56419 0.0
H1019 H 0.86869 0.5079 0.64353 0.0
H1020 H 0.89305 0.4825 0.65839 0.0
H1021 H 0.90614 0.55962 0.37029 0.0
H1022 H 0.92912 0.58326 0.4125 0.0
H1023 H 0.89516 0.58326 0.44066 0.0
loop_
_geom_bond_atom_site_label_1
_geom_bond_atom_site_label_2
_geom_bond_distance
_geom_bond_site_symmetry_2
_ccdc_geom_bond_type
H0 C5 0.930 . S
H1 C8 0.930 . S
H2 C10 0.930 . S
H3 C4 1.016 . S
C4 H3 1.016 . S
C4 N11 1.286 . S
C5 H0 0.930 . S
C5 C6 1.397 . S
C5 C7 1.361 . S
C6 C5 1.397 . S
C6 C10 1.390 . S
C7 C5 1.361 . S
C7 C8 1.393 . S
C7 N11 1.413 . S
C8 H1 0.930 . S
C8 C7 1.393 . S
C8 C9 1.399 . S
C9 C8 1.399 . S
C9 C10 1.381 . S
C10 H2 0.930 . S
C10 C6 1.390 . S
C10 C9 1.381 . S
N11 C4 1.286 . S
N11 C7 1.413 . S
H12 C17 0.930 . S
H13 C20 0.930 . S
H14 C22 0.930 . S
H15 C16 1.016 . S
C16 H15 1.016 . S
C16 N23 1.286 . S
C17 H12 0.930 . S
C17 C18 1.397 . S
C17 C19 1.361 . S
C18 C17 1.397 . S
C18 C22 1.390 . S
C19 C17 1.361 . S
C19 C20 1.393 . S
C19 N23 1.413 . S
C20 H13 0.930 . S
C20 C19 1.393 . S
C20 C21 1.399 . S
C21 C20 1.399 . S
C21 C22 1.381 . S
C22 H14 0.930 . S
C22 C18 1.390 . S
C22 C21 1.381 . S
N23 C16 1.286 . S
N23 C19 1.413 . S
H24 C29 0.930 . S
H25 C32 0.930 . S
H26 C34 0.930 . S
H27 C28 1.016 . S
C28 H27 1.016 . S
C28 N35 1.286 . S
C29 H24 0.930 . S
C29 C30 1.397 . S
C29 C31 1.361 . S
C30 C29 1.397 . S
C30 C34 1.390 . S
C31 C29 1.361 . S
C31 C32 1.393 . S
C31 N35 1.413 . S
C32 H25 0.930 . S
C32 C31 1.393 . S
C32 C33 1.399 . S
C33 C32 1.399 . S
C33 C34 1.381 . S
C34 H26 0.930 . S
C34 C30 1.390 . S
C34 C33 1.381 . S
N35 C28 1.286 . S
N35 C31 1.413 . S
H36 C41 0.930 . S
H37 C44 0.930 . S
H38 C46 0.930 . S
H39 C40 1.016 . S
C40 H39 1.016 . S
C40 N47 1.286 . S
C41 H36 0.930 . S
C41 C42 1.397 . S
C41 C43 1.361 . S
C42 C41 1.397 . S
C42 C46 1.390 . S
C43 C41 1.361 . S
C43 C44 1.393 . S
C43 N47 1.413 . S
C44 H37 0.930 . S
C44 C43 1.393 . S
C44 C45 1.399 . S
C45 C44 1.399 . S
C45 C46 1.381 . S
C46 H38 0.930 . S
C46 C42 1.390 . S
C46 C45 1.381 . S
N47 C40 1.286 . S
N47 C43 1.413 . S
H48 C53 0.930 1_556 S
H49 C56 0.930 . S
H50 C58 0.930 . S
H51 C52 1.016 . S
C52 H51 1.016 . S
C52 N59 1.286 . S
C53 H48 0.930 1_554 S
C53 C54 1.397 . S
C53 C55 1.361 . S
C54 C53 1.397 . S
C54 C58 1.393 . S
C55 C53 1.361 . S
C55 C56 1.393 . S
C55 N59 1.413 . S
C56 H49 0.930 . S
C56 C55 1.393 . S
C56 C57 1.399 . S
C57 C56 1.399 . S
C57 C58 1.381 . S
C58 H50 0.930 . S
C58 C54 1.393 . S
C58 C57 1.381 . S
N59 C52 1.286 . S
N59 C55 1.413 . S
H60 C65 0.930 . S
H61 C68 0.930 . S
H62 C70 0.930 . S
H63 C64 1.016 . S
C64 H63 1.016 . S
C64 N71 1.286 . S
C65 H60 0.930 . S
C65 C66 1.397 . S
C65 C67 1.361 1_556 S
C66 C65 1.397 . S
C66 C70 1.390 1_556 S
C67 C65 1.361 1_554 S
C67 C68 1.393 . S
C67 N71 1.413 . S
C68 H61 0.930 . S
C68 C67 1.393 . S
C68 C69 1.399 . S
C69 C68 1.399 . S
C69 C70 1.381 . S
C70 H62 0.930 . S
C70 C66 1.390 1_554 S
C70 C69 1.381 . S
N71 C64 1.286 . S
N71 C67 1.413 . S
H72 C77 0.930 . S
H73 C80 0.930 . S
H74 C82 0.930 1_556 S
H75 C76 1.016 . S
C76 H75 1.016 . S
C76 N83 1.286 . S
C77 H72 0.930 . S
C77 C78 1.397 . S
C77 C79 1.361 1_556 S
C78 C77 1.397 . S
C78 C82 1.390 1_556 S
C79 C77 1.361 1_554 S
C79 C80 1.393 . S
C79 N83 1.413 . S
C80 H73 0.930 . S
C80 C79 1.393 . S
C80 C81 1.399 . S
C81 C80 1.399 . S
C81 C82 1.381 . S
C82 H74 0.930 1_554 S
C82 C78 1.390 1_554 S
C82 C81 1.381 . S
N83 C76 1.286 . S
N83 C79 1.413 . S
H84 C89 0.930 1_556 S
H85 C92 0.930 . S
H86 C94 0.930 . S
H87 C88 1.016 . S
C88 H87 1.016 . S
C88 N95 1.286 . S
C89 H84 0.930 1_554 S
C89 C90 1.397 1_554 S
C89 C91 1.361 . S
C90 C89 1.397 1_556 S
C90 C94 1.390 1_556 S
C91 C89 1.361 . S
C91 C92 1.393 . S
C91 N95 1.413 . S
C92 H85 0.930 . S
C92 C91 1.393 . S
C92 C93 1.399 . S
C93 C92 1.399 . S
C93 C94 1.381 . S
C94 H86 0.930 . S
C94 C90 1.390 1_554 S
C94 C93 1.381 . S
N95 C88 1.286 . S
N95 C91 1.413 . S
Eu96 C105 2.828 . S
Eu96 O107 2.392 . S
Eu96 O109 2.418 1_545 S
Eu96 O114 2.373 1_655 S
Eu96 O117 2.488 . S
Eu96 O118 2.476 . S
Eu96 O119 2.349 1_655 S
Eu97 O106 2.373 1_455 S
Eu97 O110 2.488 . S
Eu97 O111 2.471 . S
Eu97 O112 2.349 . S
Eu97 O115 2.392 1_565 S
Eu97 O116 2.418 1_565 S
Eu97 C126 2.828 . S
C98 O116 1.244 . S
C98 O119 1.265 . S
C99 C100 1.379 1_655 S
C99 C103 1.373 . S
C99 C105 1.505 . S
C100 C99 1.379 1_455 S
C100 C102 1.369 . S
C100 H128 0.930 . S
C101 C103 1.383 . S
C101 C104 1.382 1_655 S
C101 H129 0.930 . S
C102 C100 1.369 . S
C102 C104 1.392 . S
C102 H130 0.930 . S
C103 C99 1.373 . S
C103 C101 1.383 . S
C103 H131 0.931 . S
C104 C101 1.382 1_455 S
C104 C102 1.392 . S
C105 Eu96 2.828 . S
C105 C99 1.505 . S
C105 O117 1.249 . S
C105 O118 1.248 . S
O106 Eu97 2.373 1_655 S
O106 C108 1.258 1_565 S
O107 Eu96 2.392 . S
O107 C108 1.242 . S
C108 O106 1.258 1_545 S
C108 O107 1.242 . S
O109 Eu96 2.418 1_565 S
O109 C113 1.244 . S
O110 Eu97 2.488 . S
O110 C126 1.249 . S
O111 Eu97 2.471 . S
O111 C126 1.244 . S
O112 Eu97 2.349 . S
O112 C113 1.265 1_455 S
C113 O109 1.244 . S
C113 O112 1.265 1_655 S
O114 Eu96 2.373 1_455 S
O114 C127 1.258 . S
O115 Eu97 2.392 1_545 S
O115 C127 1.242 . S
O116 Eu97 2.418 1_545 S
O116 C98 1.244 . S
O117 Eu96 2.488 . S
O117 C105 1.249 . S
O118 Eu96 2.476 . S
O118 C105 1.248 . S
O119 Eu96 2.349 1_455 S
O119 C98 1.265 . S
C120 C121 1.379 . S
C120 C124 1.373 1_556 S
C120 C126 1.505 . S
C121 C120 1.379 . S
C121 C123 1.379 1_556 S
C121 H132 0.930 1_455 S
C122 C124 1.383 . S
C122 C125 1.382 . S
C122 H133 0.930 . S
C123 C121 1.379 1_554 S
C123 C125 1.409 . S
C123 H134 0.905 1_455 S
C124 C120 1.373 1_554 S
C124 C122 1.383 . S
C124 H135 0.931 . S
C125 C122 1.382 . S
C125 C123 1.409 . S
C126 Eu97 2.828 . S
C126 O110 1.249 . S
C126 O111 1.244 . S
C126 C120 1.505 . S
C127 O114 1.258 . S
C127 O115 1.242 . S
H128 C100 0.930 . S
H129 C101 0.930 . S
H130 C102 0.930 . S
H131 C103 0.931 . S
H132 C121 0.930 1_655 S
H133 C122 0.930 . S
H134 C123 0.905 1_655 S
H135 C124 0.931 . S
Eu136 C145 2.828 . S
Eu136 O147 2.392 . S
Eu136 O149 2.418 . S
Eu136 O154 2.373 . S
Eu136 O157 2.488 . S
Eu136 O158 2.471 . S
Eu136 O159 2.349 1_545 S
Eu137 O146 2.373 1_565 S
Eu137 O150 2.488 . S
Eu137 O151 2.471 1_565 S
Eu137 O152 2.349 1_565 S
Eu137 O155 2.392 . S
Eu137 O156 2.418 . S
Eu137 C166 2.828 . S
C138 O156 1.244 . S
C138 O159 1.265 . S
C139 C140 1.379 . S
C139 C143 1.373 . S
C139 C145 1.505 . S
C140 C139 1.379 . S
C140 C142 1.369 . S
C140 H168 0.930 1_545 S
C141 C143 1.383 . S
C141 C144 1.382 . S
C141 H169 0.930 . S
C142 C140 1.369 . S
C142 C144 1.392 . S
C142 H170 0.930 1_545 S
C143 C139 1.373 . S
C143 C141 1.383 . S
C143 H171 0.931 . S
C144 C141 1.382 . S
C144 C142 1.392 . S
C145 Eu136 2.828 . S
C145 C139 1.505 . S
C145 O157 1.249 . S
C145 O158 1.244 . S
O146 Eu137 2.373 1_545 S
O146 C148 1.258 . S
O147 Eu136 2.392 . S
O147 C148 1.242 . S
C148 O146 1.258 . S
C148 O147 1.242 . S
O149 Eu136 2.418 . S
O149 C153 1.244 . S
O150 Eu137 2.488 . S
O150 C166 1.249 . S
O151 Eu137 2.471 1_545 S
O151 C166 1.244 1_545 S
O152 Eu137 2.349 1_545 S
O152 C153 1.265 . S
C153 O149 1.244 . S
C153 O152 1.265 . S
O154 Eu136 2.373 . S
O154 C167 1.258 1_545 S
O155 Eu137 2.392 . S
O155 C167 1.242 . S
O156 Eu137 2.418 . S
O156 C138 1.244 . S
O157 Eu136 2.488 . S
O157 C145 1.249 . S
O158 Eu136 2.471 . S
O158 C145 1.244 . S
O159 Eu136 2.349 1_565 S
O159 C138 1.265 . S
C160 C161 1.379 1_565 S
C160 C164 1.373 . S
C160 C166 1.505 . S
C161 C160 1.379 1_545 S
C161 C163 1.369 . S
C161 H172 0.930 . S
C162 C164 1.383 . S
C162 C165 1.382 . S
C162 H173 0.930 . S
C163 C161 1.369 . S
C163 C165 1.392 1_545 S
C163 H174 0.930 . S
C164 C160 1.373 . S
C164 C162 1.383 . S
C164 H175 0.931 . S
C165 C162 1.382 . S
C165 C163 1.392 1_565 S
C166 Eu137 2.828 . S
C166 O150 1.249 . S
C166 O151 1.244 1_565 S
C166 C160 1.505 . S
C167 O154 1.258 1_565 S
C167 O155 1.242 . S
H168 C140 0.930 1_565 S
H169 C141 0.930 . S
H170 C142 0.930 1_565 S
H171 C143 0.931 . S
H172 C161 0.930 . S
H173 C162 0.930 . S
H174 C163 0.930 . S
H175 C164 0.931 . S
Eu176 C185 2.828 . S
Eu176 O187 2.392 . S
Eu176 O189 2.418 . S
Eu176 O194 2.373 . S
Eu176 O197 2.488 . S
Eu176 O198 2.471 . S
Eu176 O199 2.349 . S
Eu177 O186 2.373 . S
Eu177 O190 2.488 . S
Eu177 O191 2.471 . S
Eu177 O192 2.349 . S
Eu177 O195 2.392 . S
Eu177 O196 2.418 . S
Eu177 C206 2.828 . S
C178 O196 1.244 . S
C178 O199 1.265 . S
C179 C180 1.379 . S
C179 C183 1.373 . S
C179 C185 1.505 . S
C180 C179 1.379 . S
C180 C182 1.369 . S
C180 H208 0.930 . S
C181 C183 1.383 . S
C181 C184 1.382 . S
C181 H209 0.930 . S
C182 C180 1.369 . S
C182 C184 1.392 . S
C182 H210 0.930 . S
C183 C179 1.373 . S
C183 C181 1.383 . S
C183 H211 0.931 . S
C184 C181 1.382 . S
C184 C182 1.392 . S
C185 Eu176 2.828 . S
C185 C179 1.505 . S
C185 O197 1.249 . S
C185 O198 1.244 . S
O186 Eu177 2.373 . S
O186 C188 1.258 . S
O187 Eu176 2.392 . S
O187 C188 1.242 . S
C188 O186 1.258 . S
C188 O187 1.242 . S
O189 Eu176 2.418 . S
O189 C193 1.244 . S
O190 Eu177 2.488 . S
O190 C206 1.249 . S
O191 Eu177 2.471 . S
O191 C206 1.244 . S
O192 Eu177 2.349 . S
O192 C193 1.265 . S
C193 O189 1.244 . S
C193 O192 1.265 . S
O194 Eu176 2.373 . S
O194 C207 1.258 . S
O195 Eu177 2.392 . S
O195 C207 1.242 . S
O196 Eu177 2.418 . S
O196 C178 1.244 . S
O197 Eu176 2.488 . S
O197 C185 1.249 . S
O198 Eu176 2.471 . S
O198 C185 1.244 . S
O199 Eu176 2.349 . S
O199 C178 1.265 . S
C200 C201 1.379 . S
C200 C204 1.373 . S
C200 C206 1.505 . S
C201 C200 1.379 . S
C201 C203 1.369 . S
C201 H212 0.930 . S
C202 C204 1.383 . S
C202 C205 1.382 . S
C202 H213 0.930 . S
C203 C201 1.369 . S
C203 C205 1.392 . S
C203 H214 0.930 . S
C204 C200 1.373 . S
C204 C202 1.383 . S
C204 H215 0.931 . S
C205 C202 1.382 . S
C205 C203 1.392 . S
C206 Eu177 2.828 . S
C206 O190 1.249 . S
C206 O191 1.244 . S
C206 C200 1.505 . S
C207 O194 1.258 . S
C207 O195 1.242 . S
H208 C180 0.930 . S
H209 C181 0.930 . S
H210 C182 0.930 . S
H211 C183 0.931 . S
H212 C201 0.930 . S
H213 C202 0.930 . S
H214 C203 0.930 . S
H215 C204 0.931 . S
Eu216 C225 2.828 . S
Eu216 O227 2.392 . S
Eu216 O229 2.418 1_455 S
Eu216 O234 2.373 . S
Eu216 O237 2.488 . S
Eu216 O238 2.471 . S
Eu216 O239 2.349 . S
Eu217 O226 2.373 . S
Eu217 O230 2.488 . S
Eu217 O231 2.471 . S
Eu217 O232 2.349 . S
Eu217 O235 2.392 1_655 S
Eu217 O236 2.418 1_655 S
Eu217 C246 2.828 . S
C218 O236 1.244 . S
C218 O239 1.265 . S
C219 C220 1.379 . S
C219 C223 1.373 . S
C219 C225 1.505 . S
C220 C219 1.379 . S
C220 C222 1.369 . S
C220 H248 0.930 . S
C221 C223 1.383 . S
C221 C224 1.382 . S
C221 H249 0.930 . S
C222 C220 1.369 . S
C222 C224 1.392 . S
C222 H250 0.930 . S
C223 C219 1.373 . S
C223 C221 1.383 . S
C223 H251 0.931 . S
C224 C221 1.382 . S
C224 C222 1.392 . S
C225 Eu216 2.828 . S
C225 C219 1.505 . S
C225 O237 1.249 . S
C225 O238 1.244 . S
O226 Eu217 2.373 . S
O226 C228 1.258 1_655 S
O227 Eu216 2.392 . S
O227 C228 1.242 . S
C228 O226 1.258 1_455 S
C228 O227 1.242 . S
O229 Eu216 2.418 1_655 S
O229 C233 1.244 . S
O230 Eu217 2.488 . S
O230 C246 1.249 . S
O231 Eu217 2.471 . S
O231 C246 1.244 . S
O232 Eu217 2.349 . S
O232 C233 1.265 . S
C233 O229 1.244 . S
C233 O232 1.265 . S
O234 Eu216 2.373 . S
O234 C247 1.258 . S
O235 Eu217 2.392 1_455 S
O235 C247 1.242 . S
O236 Eu217 2.418 1_455 S
O236 C218 1.244 . S
O237 Eu216 2.488 . S
O237 C225 1.249 . S
O238 Eu216 2.471 . S
O238 C225 1.244 . S
O239 Eu216 2.349 . S
O239 C218 1.265 . S
C240 C241 1.379 . S
C240 C244 1.373 1_556 S
C240 C246 1.505 . S
C241 C240 1.379 . S
C241 C243 1.369 . S
C241 H252 0.930 . S
C242 C244 1.383 . S
C242 C245 1.382 . S
C242 H253 0.930 . S
C243 C241 1.369 . S
C243 C245 1.392 1_556 S
C243 H254 0.930 . S
C244 C240 1.373 1_554 S
C244 C242 1.383 . S
C244 H255 0.931 . S
C245 C242 1.382 . S
C245 C243 1.392 1_554 S
C246 Eu217 2.828 . S
C246 O230 1.249 . S
C246 O231 1.244 . S
C246 C240 1.505 . S
C247 O234 1.258 . S
C247 O235 1.242 . S
H248 C220 0.930 . S
H249 C221 0.930 . S
H250 C222 0.930 . S
H251 C223 0.931 . S
H252 C241 0.930 . S
H253 C242 0.930 . S
H254 C243 0.930 . S
H255 C244 0.931 . S
C256 C257 1.391 . S
C256 C258 1.394 . S
C256 H272 0.931 . S
C257 C256 1.391 . S
C257 C261 1.376 . S
C258 C256 1.394 . S
C258 C259 1.369 . S
C258 C262 1.531 . S
C259 C258 1.369 . S
C259 C260 1.410 . S
C259 C267 1.503 . S
C260 C259 1.410 . S
C260 C261 1.392 . S
C260 C263 1.511 . S
C261 C257 1.376 . S
C261 C260 1.392 . S
C261 H273 0.929 . S
C262 C258 1.531 . S
C262 H274 0.960 . S
C262 H275 0.962 . S
C262 H276 0.960 . S
C263 C260 1.511 . S
C263 H277 0.961 . S
C263 H278 0.961 . S
C263 H279 0.961 . S
C264 C265 1.370 . S
C264 C266 1.363 . S
C264 H280 0.931 1_545 S
C265 C264 1.370 . S
C265 C269 1.408 . S
C266 C264 1.363 . S
C266 C267 1.370 . S
C266 C270 1.524 1_545 S
C267 C259 1.503 . S
C267 C266 1.370 . S
C267 C268 1.403 . S
C268 C267 1.403 . S
C268 C269 1.404 . S
C268 C271 1.539 . S
C269 C265 1.408 . S
C269 C268 1.404 . S
C269 H281 0.930 . S
C270 C266 1.524 1_565 S
C270 H282 0.956 . S
C270 H283 0.961 . S
C270 H284 0.961 . S
C271 C268 1.539 . S
C271 H285 0.958 . S
C271 H286 0.961 . S
C271 H287 0.960 . S
H272 C256 0.931 . S
H273 C261 0.929 . S
H274 C262 0.960 . S
H275 C262 0.962 . S
H276 C262 0.960 . S
H277 C263 0.961 . S
H278 C263 0.961 . S
H279 C263 0.961 . S
H280 C264 0.931 1_565 S
H281 C269 0.930 . S
H282 C270 0.956 . S
H283 C270 0.961 . S
H284 C270 0.961 . S
H285 C271 0.958 . S
H286 C271 0.961 . S
H287 C271 0.960 . S
C288 C289 1.391 . S
C288 C290 1.394 . S
C288 H304 0.931 . S
C289 C288 1.391 . S
C289 C293 1.376 . S
C290 C288 1.394 . S
C290 C291 1.369 . S
C290 C294 1.531 . S
C291 C290 1.369 . S
C291 C292 1.410 . S
C291 C299 1.503 . S
C292 C291 1.410 . S
C292 C293 1.392 . S
C292 C295 1.511 . S
C293 C289 1.376 . S
C293 C292 1.392 . S
C293 H305 0.929 . S
C294 C290 1.531 . S
C294 H306 0.960 . S
C294 H307 0.962 . S
C294 H308 0.960 . S
C295 C292 1.511 . S
C295 H309 0.961 . S
C295 H310 0.961 . S
C295 H311 0.961 . S
C296 C297 1.370 . S
C296 C298 1.363 . S
C296 H312 0.931 . S
C297 C296 1.370 . S
C297 C301 1.408 . S
C298 C296 1.363 . S
C298 C299 1.370 . S
C298 C302 1.524 . S
C299 C291 1.503 . S
C299 C298 1.370 . S
C299 C300 1.403 . S
C300 C299 1.403 . S
C300 C301 1.404 . S
C300 C303 1.539 . S
C301 C297 1.408 . S
C301 C300 1.404 . S
C301 H313 0.930 . S
C302 C298 1.524 . S
C302 H314 0.956 . S
C302 H315 0.961 . S
C302 H316 0.961 . S
C303 C300 1.539 . S
C303 H317 0.958 . S
C303 H318 0.961 . S
C303 H319 0.960 . S
H304 C288 0.931 . S
H305 C293 0.929 . S
H306 C294 0.960 . S
H307 C294 0.962 . S
H308 C294 0.960 . S
H309 C295 0.961 . S
H310 C295 0.961 . S
H311 C295 0.961 . S
H312 C296 0.931 . S
H313 C301 0.930 . S
H314 C302 0.956 . S
H315 C302 0.961 . S
H316 C302 0.961 . S
H317 C303 0.958 . S
H318 C303 0.961 . S
H319 C303 0.960 . S
C320 C321 1.391 . S
C320 C322 1.394 . S
C320 H336 0.931 . S
C321 C320 1.391 . S
C321 C325 1.376 . S
C322 C320 1.394 . S
C322 C323 1.369 . S
C322 C326 1.531 . S
C323 C322 1.369 . S
C323 C324 1.410 . S
C323 C331 1.503 . S
C324 C323 1.410 . S
C324 C325 1.392 . S
C324 C327 1.511 . S
C325 C321 1.376 . S
C325 C324 1.392 . S
C325 H337 0.929 . S
C326 C322 1.531 . S
C326 H338 0.960 . S
C326 H339 0.962 . S
C326 H340 0.960 . S
C327 C324 1.511 . S
C327 H341 0.961 . S
C327 H342 0.961 . S
C327 H343 0.961 . S
C328 C329 1.370 . S
C328 C330 1.363 . S
C328 H344 0.931 . S
C329 C328 1.370 . S
C329 C333 1.408 . S
C330 C328 1.363 . S
C330 C331 1.370 . S
C330 C334 1.524 . S
C331 C323 1.503 . S
C331 C330 1.370 . S
C331 C332 1.403 . S
C332 C331 1.403 . S
C332 C333 1.404 . S
C332 C335 1.539 . S
C333 C329 1.408 . S
C333 C332 1.404 . S
C333 H345 0.930 . S
C334 C330 1.524 . S
C334 H346 0.956 . S
C334 H347 0.961 . S
C334 H348 0.961 . S
C335 C332 1.539 . S
C335 H349 0.958 . S
C335 H350 0.961 . S
C335 H351 0.960 . S
H336 C320 0.931 . S
H337 C325 0.929 . S
H338 C326 0.960 . S
H339 C326 0.962 . S
H340 C326 0.960 . S
H341 C327 0.961 . S
H342 C327 0.961 . S
H343 C327 0.961 . S
H344 C328 0.931 . S
H345 C333 0.930 . S
H346 C334 0.956 . S
H347 C334 0.961 . S
H348 C334 0.961 . S
H349 C335 0.958 . S
H350 C335 0.961 . S
H351 C335 0.960 . S
C352 C353 1.391 . S
C352 C354 1.394 . S
C352 H368 0.931 . S
C353 C352 1.391 . S
C353 C357 1.376 . S
C354 C352 1.394 . S
C354 C355 1.369 . S
C354 C358 1.531 . S
C355 C354 1.369 . S
C355 C356 1.410 . S
C355 C363 1.503 . S
C356 C355 1.410 . S
C356 C357 1.392 . S
C356 C359 1.511 1_455 S
C357 C353 1.376 . S
C357 C356 1.392 . S
C357 H369 0.929 . S
C358 C354 1.531 . S
C358 H370 0.960 . S
C358 H371 0.962 . S
C358 H372 0.960 . S
C359 C356 1.511 1_655 S
C359 H373 0.961 . S
C359 H374 0.961 . S
C359 H375 0.961 . S
C360 C361 1.370 . S
C360 C362 1.363 . S
C360 H376 0.931 . S
C361 C360 1.370 . S
C361 C365 1.408 . S
C362 C360 1.363 . S
C362 C363 1.370 . S
C362 C366 1.524 . S
C363 C355 1.503 . S
C363 C362 1.370 . S
C363 C364 1.403 . S
C364 C363 1.403 . S
C364 C365 1.404 . S
C364 C367 1.539 . S
C365 C361 1.408 . S
C365 C364 1.404 . S
C365 H377 0.930 . S
C366 C362 1.524 . S
C366 H378 0.956 . S
C366 H379 0.961 . S
C366 H380 0.961 . S
C367 C364 1.539 . S
C367 H381 0.958 . S
C367 H382 0.961 1_455 S
C367 H383 0.960 . S
H368 C352 0.931 . S
H369 C357 0.929 . S
H370 C358 0.960 . S
H371 C358 0.962 . S
H372 C358 0.960 . S
H373 C359 0.961 . S
H374 C359 0.961 . S
H375 C359 0.961 . S
H376 C360 0.931 . S
H377 C365 0.930 . S
H378 C366 0.956 . S
H379 C366 0.961 . S
H380 C366 0.961 . S
H381 C367 0.958 . S
H382 C367 0.961 1_655 S
H383 C367 0.960 . S
C384 C385 1.391 . S
C384 C386 1.394 . S
C384 H400 0.931 . S
C385 C384 1.391 . S
C385 C389 1.376 1_565 S
C386 C384 1.394 . S
C386 C387 1.369 . S
C386 C390 1.531 . S
C387 C386 1.369 . S
C387 C388 1.410 1_565 S
C387 C395 1.503 . S
C388 C387 1.410 1_545 S
C388 C389 1.392 . S
C388 C391 1.511 . S
C389 C385 1.376 1_545 S
C389 C388 1.392 . S
C389 H401 0.929 . S
C390 C386 1.531 . S
C390 H402 0.960 . S
C390 H403 0.962 . S
C390 H404 0.960 . S
C391 C388 1.511 . S
C391 H405 0.961 . S
C391 H406 0.961 . S
C391 H407 0.961 . S
C392 C393 1.375 . S
C392 C394 1.366 1_556 S
C392 H408 0.924 1_565 S
C393 C392 1.375 . S
C393 C397 1.408 . S
C394 C392 1.366 1_554 S
C394 C395 1.370 . S
C394 C398 1.524 1_565 S
C395 C387 1.503 . S
C395 C394 1.370 . S
C395 C396 1.403 1_554 S
C396 C395 1.403 1_556 S
C396 C397 1.404 . S
C396 C399 1.539 . S
C397 C393 1.408 . S
C397 C396 1.404 . S
C397 H409 0.930 . S
C398 C394 1.524 1_545 S
C398 H410 0.956 1_545 S
C398 H411 0.961 . S
C398 H412 0.961 . S
C399 C396 1.539 . S
C399 H413 0.958 . S
C399 H414 0.961 . S
C399 H415 0.960 . S
H400 C384 0.931 . S
H401 C389 0.929 . S
H402 C390 0.960 . S
H403 C390 0.962 . S
H404 C390 0.960 . S
H405 C391 0.961 . S
H406 C391 0.961 . S
H407 C391 0.961 . S
H408 C392 0.924 1_545 S
H409 C397 0.930 . S
H410 C398 0.956 1_565 S
H411 C398 0.961 . S
H412 C398 0.961 . S
H413 C399 0.958 . S
H414 C399 0.961 . S
H415 C399 0.960 . S
C416 C417 1.391 . S
C416 C418 1.394 . S
C416 H432 0.931 . S
C417 C416 1.391 . S
C417 C421 1.376 . S
C418 C416 1.394 . S
C418 C419 1.369 . S
C418 C422 1.531 . S
C419 C418 1.369 . S
C419 C420 1.410 . S
C419 C427 1.503 1_554 S
C420 C419 1.410 . S
C420 C421 1.392 . S
C420 C423 1.511 . S
C421 C417 1.376 . S
C421 C420 1.392 . S
C421 H433 0.929 . S
C422 C418 1.531 . S
C422 H434 0.960 . S
C422 H435 0.962 . S
C422 H436 0.960 . S
C423 C420 1.511 . S
C423 H437 0.961 . S
C423 H438 0.961 . S
C423 H439 0.961 1_554 S
C424 C425 1.370 . S
C424 C426 1.363 . S
C424 H440 0.931 . S
C425 C424 1.370 . S
C425 C429 1.408 . S
C426 C424 1.363 . S
C426 C427 1.370 . S
C426 C430 1.524 1_556 S
C427 C419 1.503 1_556 S
C427 C426 1.370 . S
C427 C428 1.403 . S
C428 C427 1.403 . S
C428 C429 1.404 . S
C428 C431 1.539 . S
C429 C425 1.408 . S
C429 C428 1.404 . S
C429 H441 0.930 . S
C430 C426 1.524 1_554 S
C430 H442 0.956 . S
C430 H443 0.961 . S
C430 H444 0.961 . S
C431 C428 1.539 . S
C431 H445 0.958 . S
C431 H446 0.961 . S
C431 H447 0.960 . S
H432 C416 0.931 . S
H433 C421 0.929 . S
H434 C422 0.960 . S
H435 C422 0.962 . S
H436 C422 0.960 . S
H437 C423 0.961 . S
H438 C423 0.961 . S
H439 C423 0.961 1_556 S
H440 C424 0.931 . S
H441 C429 0.930 . S
H442 C430 0.956 . S
H443 C430 0.961 . S
H444 C430 0.961 . S
H445 C431 0.958 . S
H446 C431 0.961 . S
H447 C431 0.960 . S
C448 C449 1.391 . S
C448 C450 1.394 . S
C448 H464 0.931 . S
C449 C448 1.391 . S
C449 C453 1.376 . S
C450 C448 1.394 . S
C450 C451 1.369 . S
C450 C454 1.531 . S
C451 C450 1.369 . S
C451 C452 1.410 . S
C451 C459 1.503 1_554 S
C452 C451 1.410 . S
C452 C453 1.392 . S
C452 C455 1.505 1_554 S
C453 C449 1.376 . S
C453 C452 1.392 . S
C453 H465 0.929 . S
C454 C450 1.531 . S
C454 H466 0.960 . S
C454 H467 0.962 . S
C454 H468 0.960 . S
C455 C452 1.505 1_556 S
C455 H469 0.957 1_556 S
C455 H470 0.965 . S
C455 H471 0.967 . S
C456 C457 1.370 . S
C456 C458 1.363 . S
C456 H472 0.931 . S
C457 C456 1.370 . S
C457 C461 1.408 . S
C458 C456 1.363 . S
C458 C459 1.370 . S
C458 C462 1.524 1_556 S
C459 C451 1.503 1_556 S
C459 C458 1.370 . S
C459 C460 1.403 . S
C460 C459 1.403 . S
C460 C461 1.404 . S
C460 C463 1.539 . S
C461 C457 1.408 . S
C461 C460 1.404 . S
C461 H473 0.930 . S
C462 C458 1.524 1_554 S
C462 H474 0.956 . S
C462 H475 0.961 . S
C462 H476 0.961 . S
C463 C460 1.539 . S
C463 H477 0.958 . S
C463 H478 0.961 . S
C463 H479 0.960 . S
H464 C448 0.931 . S
H465 C453 0.929 . S
H466 C454 0.960 . S
H467 C454 0.962 . S
H468 C454 0.960 . S
H469 C455 0.957 1_554 S
H470 C455 0.965 . S
H471 C455 0.967 . S
H472 C456 0.931 . S
H473 C461 0.930 . S
H474 C462 0.956 . S
H475 C462 0.961 . S
H476 C462 0.961 . S
H477 C463 0.958 . S
H478 C463 0.961 . S
H479 C463 0.960 . S
C480 C481 1.391 . S
C480 C482 1.394 . S
C480 H496 0.931 . S
C481 C480 1.391 . S
C481 C485 1.376 . S
C482 C480 1.394 . S
C482 C483 1.369 . S
C482 C486 1.531 . S
C483 C482 1.369 . S
C483 C484 1.410 1_655 S
C483 C491 1.503 . S
C484 C483 1.410 1_455 S
C484 C485 1.392 1_455 S
C484 C487 1.511 . S
C485 C481 1.376 . S
C485 C484 1.392 1_655 S
C485 H497 0.929 1_655 S
C486 C482 1.531 . S
C486 H498 0.960 1_554 S
C486 H499 0.962 . S
C486 H500 0.960 . S
C487 C484 1.511 . S
C487 H501 0.961 . S
C487 H502 0.961 . S
C487 H503 0.961 . S
C488 C489 1.370 . S
C488 C490 1.363 1_556 S
C488 H504 0.931 . S
C489 C488 1.370 . S
C489 C493 1.408 1_655 S
C490 C488 1.363 1_554 S
C490 C491 1.370 . S
C490 C494 1.524 . S
C491 C483 1.503 . S
C491 C490 1.370 . S
C491 C492 1.403 1_554 S
C492 C491 1.403 1_556 S
C492 C493 1.404 1_655 S
C492 C495 1.539 1_655 S
C493 C489 1.408 1_455 S
C493 C492 1.404 1_455 S
C493 H505 0.930 . S
C494 C490 1.524 . S
C494 H506 0.956 . S
C494 H507 0.961 . S
C494 H508 0.961 . S
C495 C492 1.539 1_455 S
C495 H509 0.958 1_455 S
C495 H510 0.961 . S
C495 H511 0.960 . S
H496 C480 0.931 . S
H497 C485 0.929 1_455 S
H498 C486 0.960 1_556 S
H499 C486 0.962 . S
H500 C486 0.960 . S
H501 C487 0.961 . S
H502 C487 0.961 . S
H503 C487 0.961 . S
H504 C488 0.931 . S
H505 C493 0.930 . S
H506 C494 0.956 . S
H507 C494 0.961 . S
H508 C494 0.961 . S
H509 C495 0.958 1_655 S
H510 C495 0.961 . S
H511 C495 0.960 . S
C512 C513 1.391 . S
C512 C514 1.394 . S
C512 H528 0.931 . S
C513 C512 1.391 . S
C513 C517 1.376 . S
C514 C512 1.394 . S
C514 C515 1.369 . S
C514 C518 1.531 1_455 S
C515 C514 1.369 . S
C515 C516 1.410 . S
C515 C523 1.503 . S
C516 C515 1.410 . S
C516 C517 1.392 . S
C516 C519 1.511 . S
C517 C513 1.376 . S
C517 C516 1.392 . S
C517 H529 0.929 . S
C518 C514 1.531 1_655 S
C518 H530 0.960 . S
C518 H531 0.962 . S
C518 H532 0.960 . S
C519 C516 1.511 . S
C519 H533 0.961 . S
C519 H534 0.961 . S
C519 H535 0.961 . S
C520 C521 1.370 . S
C520 C522 1.363 . S
C520 H536 0.931 . S
C521 C520 1.370 . S
C521 C525 1.408 . S
C522 C520 1.363 . S
C522 C523 1.370 . S
C522 C526 1.524 . S
C523 C515 1.503 . S
C523 C522 1.370 . S
C523 C524 1.403 . S
C524 C523 1.403 . S
C524 C525 1.404 . S
C524 C527 1.539 . S
C525 C521 1.408 . S
C525 C524 1.404 . S
C525 H537 0.930 1_455 S
C526 C522 1.524 . S
C526 H538 0.956 . S
C526 H539 0.961 . S
C526 H540 0.961 . S
C527 C524 1.539 . S
C527 H541 0.958 1_455 S
C527 H542 0.961 . S
C527 H543 0.960 . S
H528 C512 0.931 . S
H529 C517 0.929 . S
H530 C518 0.960 . S
H531 C518 0.962 . S
H532 C518 0.960 . S
H533 C519 0.961 . S
H534 C519 0.961 . S
H535 C519 0.961 . S
H536 C520 0.931 . S
H537 C525 0.930 1_655 S
H538 C526 0.956 . S
H539 C526 0.961 . S
H540 C526 0.961 . S
H541 C527 0.958 1_655 S
H542 C527 0.961 . S
H543 C527 0.960 . S
C544 C545 1.391 . S
C544 C546 1.394 . S
C544 H560 0.931 . S
C545 C544 1.391 . S
C545 C549 1.376 . S
C546 C544 1.394 . S
C546 C547 1.369 . S
C546 C550 1.531 . S
C547 C546 1.369 . S
C547 C548 1.410 . S
C547 C555 1.503 . S
C548 C547 1.410 . S
C548 C549 1.392 . S
C548 C551 1.511 1_545 S
C549 C545 1.376 . S
C549 C548 1.392 . S
C549 H561 0.929 . S
C550 C546 1.531 . S
C550 H562 0.960 . S
C550 H563 0.962 . S
C550 H564 0.960 . S
C551 C548 1.511 1_565 S
C551 H565 0.961 . S
C551 H566 0.961 . S
C551 H567 0.961 . S
C552 C553 1.370 . S
C552 C554 1.363 1_565 S
C552 H568 0.931 . S
C553 C552 1.370 . S
C553 C557 1.408 . S
C554 C552 1.363 1_545 S
C554 C555 1.370 . S
C554 C558 1.524 . S
C555 C547 1.503 . S
C555 C554 1.370 . S
C555 C556 1.403 . S
C556 C555 1.403 . S
C556 C557 1.404 1_545 S
C556 C559 1.539 . S
C557 C553 1.408 . S
C557 C556 1.404 1_565 S
C557 H569 0.930 . S
C558 C554 1.524 . S
C558 H570 0.956 . S
C558 H571 0.961 . S
C558 H572 0.961 . S
C559 C556 1.539 . S
C559 H573 0.958 . S
C559 H574 0.961 1_545 S
C559 H575 0.960 . S
H560 C544 0.931 . S
H561 C549 0.929 . S
H562 C550 0.960 . S
H563 C550 0.962 . S
H564 C550 0.960 . S
H565 C551 0.961 . S
H566 C551 0.961 . S
H567 C551 0.961 . S
H568 C552 0.931 . S
H569 C557 0.930 . S
H570 C558 0.956 . S
H571 C558 0.961 . S
H572 C558 0.961 . S
H573 C559 0.958 . S
H574 C559 0.961 1_565 S
H575 C559 0.960 . S
C576 C577 1.391 . S
C576 C578 1.394 . S
C576 H592 0.931 . S
C577 C576 1.391 . S
C577 C581 1.376 . S
C578 C576 1.394 . S
C578 C579 1.369 . S
C578 C582 1.531 . S
C579 C578 1.369 . S
C579 C580 1.410 . S
C579 C587 1.503 . S
C580 C579 1.410 . S
C580 C581 1.392 . S
C580 C583 1.511 . S
C581 C577 1.376 . S
C581 C580 1.392 . S
C581 H593 0.929 . S
C582 C578 1.531 . S
C582 H594 0.960 . S
C582 H595 0.962 . S
C582 H596 0.960 . S
C583 C580 1.511 . S
C583 H597 0.961 . S
C583 H598 0.961 . S
C583 H599 0.961 . S
C584 C585 1.370 . S
C584 C586 1.363 . S
C584 H600 0.931 . S
C585 C584 1.370 . S
C585 C589 1.408 . S
C586 C584 1.363 . S
C586 C587 1.370 . S
C586 C590 1.524 . S
C587 C579 1.503 . S
C587 C586 1.370 . S
C587 C588 1.403 . S
C588 C587 1.403 . S
C588 C589 1.404 . S
C588 C591 1.539 . S
C589 C585 1.408 . S
C589 C588 1.404 . S
C589 H601 0.930 . S
C590 C586 1.524 . S
C590 H602 0.956 . S
C590 H603 0.961 . S
C590 H604 0.961 . S
C591 C588 1.539 . S
C591 H605 0.958 . S
C591 H606 0.961 . S
C591 H607 0.960 . S
H592 C576 0.931 . S
H593 C581 0.929 . S
H594 C582 0.960 . S
H595 C582 0.962 . S
H596 C582 0.960 . S
H597 C583 0.961 . S
H598 C583 0.961 . S
H599 C583 0.961 . S
H600 C584 0.931 . S
H601 C589 0.930 . S
H602 C590 0.956 . S
H603 C590 0.961 . S
H604 C590 0.961 . S
H605 C591 0.958 . S
H606 C591 0.961 . S
H607 C591 0.960 . S
C608 C609 1.391 . S
C608 C610 1.394 . S
C608 H624 0.931 . S
C609 C608 1.391 . S
C609 C613 1.376 . S
C610 C608 1.394 . S
C610 C611 1.369 . S
C610 C614 1.531 . S
C611 C610 1.369 . S
C611 C612 1.410 . S
C611 C619 1.503 . S
C612 C611 1.410 . S
C612 C613 1.392 . S
C612 C615 1.511 . S
C613 C609 1.376 . S
C613 C612 1.392 . S
C613 H625 0.929 . S
C614 C610 1.531 . S
C614 H626 0.960 . S
C614 H627 0.962 . S
C614 H628 0.960 . S
C615 C612 1.511 . S
C615 H629 0.961 . S
C615 H630 0.961 . S
C615 H631 0.961 . S
C616 C617 1.370 . S
C616 C618 1.363 . S
C616 H632 0.931 . S
C617 C616 1.370 . S
C617 C621 1.408 . S
C618 C616 1.363 . S
C618 C619 1.370 . S
C618 C622 1.524 . S
C619 C611 1.503 . S
C619 C618 1.370 . S
C619 C620 1.403 . S
C620 C619 1.403 . S
C620 C621 1.404 . S
C620 C623 1.539 . S
C621 C617 1.408 . S
C621 C620 1.404 . S
C621 H633 0.930 . S
C622 C618 1.524 . S
C622 H634 0.956 . S
C622 H635 0.961 . S
C622 H636 0.961 . S
C623 C620 1.539 . S
C623 H637 0.958 . S
C623 H638 0.961 . S
C623 H639 0.960 . S
H624 C608 0.931 . S
H625 C613 0.929 . S
H626 C614 0.960 . S
H627 C614 0.962 . S
H628 C614 0.960 . S
H629 C615 0.961 . S
H630 C615 0.961 . S
H631 C615 0.961 . S
H632 C616 0.931 . S
H633 C621 0.930 . S
H634 C622 0.956 . S
H635 C622 0.961 . S
H636 C622 0.961 . S
H637 C623 0.958 . S
H638 C623 0.961 . S
H639 C623 0.960 . S
C640 C641 1.391 . S
C640 C642 1.394 . S
C640 H656 0.931 . S
C641 C640 1.391 . S
C641 C645 1.376 . S
C642 C640 1.394 . S
C642 C643 1.369 . S
C642 C646 1.531 . S
C643 C642 1.369 . S
C643 C644 1.410 . S
C643 C651 1.503 . S
C644 C643 1.410 . S
C644 C645 1.392 . S
C644 C647 1.511 . S
C645 C641 1.376 . S
C645 C644 1.392 . S
C645 H657 0.929 . S
C646 C642 1.531 . S
C646 H658 0.960 . S
C646 H659 0.962 1_655 S
C646 H660 0.960 . S
C647 C644 1.511 . S
C647 H661 0.961 . S
C647 H662 0.961 . S
C647 H663 0.961 . S
C648 C649 1.370 . S
C648 C650 1.363 . S
C648 H664 0.931 . S
C649 C648 1.370 . S
C649 C653 1.408 1_455 S
C650 C648 1.363 . S
C650 C651 1.370 1_455 S
C650 C654 1.524 . S
C651 C643 1.503 . S
C651 C650 1.370 1_655 S
C651 C652 1.403 . S
C652 C651 1.403 . S
C652 C653 1.404 . S
C652 C655 1.539 . S
C653 C649 1.408 1_655 S
C653 C652 1.404 . S
C653 H665 0.930 . S
C654 C650 1.524 . S
C654 H666 0.956 . S
C654 H667 0.961 . S
C654 H668 0.961 . S
C655 C652 1.539 . S
C655 H669 0.958 . S
C655 H670 0.961 . S
C655 H671 0.960 . S
H656 C640 0.931 . S
H657 C645 0.929 . S
H658 C646 0.960 . S
H659 C646 0.962 1_455 S
H660 C646 0.960 . S
H661 C647 0.961 . S
H662 C647 0.961 . S
H663 C647 0.961 . S
H664 C648 0.931 . S
H665 C653 0.930 . S
H666 C654 0.956 . S
H667 C654 0.961 . S
H668 C654 0.961 . S
H669 C655 0.958 . S
H670 C655 0.961 . S
H671 C655 0.960 . S
C672 C673 1.391 . S
C672 C674 1.394 . S
C672 H688 0.931 . S
C673 C672 1.391 . S
C673 C677 1.376 . S
C674 C672 1.394 . S
C674 C675 1.369 . S
C674 C678 1.531 . S
C675 C674 1.369 . S
C675 C676 1.410 . S
C675 C683 1.503 1_565 S
C676 C675 1.410 . S
C676 C677 1.392 . S
C676 C679 1.511 . S
C677 C673 1.376 . S
C677 C676 1.392 . S
C677 H689 0.929 . S
C678 C674 1.531 . S
C678 H690 0.960 . S
C678 H691 0.962 1_565 S
C678 H692 0.960 . S
C679 C676 1.511 . S
C679 H693 0.961 . S
C679 H694 0.989 . S
C679 H695 0.961 . S
C680 C681 1.370 . S
C680 C682 1.363 . S
C680 H696 0.931 . S
C681 C680 1.370 . S
C681 C685 1.408 1_545 S
C682 C680 1.363 . S
C682 C683 1.370 . S
C682 C686 1.524 . S
C683 C675 1.503 1_545 S
C683 C682 1.370 . S
C683 C684 1.403 1_545 S
C684 C683 1.403 1_565 S
C684 C685 1.404 . S
C684 C687 1.539 . S
C685 C681 1.408 1_565 S
C685 C684 1.404 . S
C685 H697 0.930 1_554 S
C686 C682 1.524 . S
C686 H698 0.956 . S
C686 H699 0.961 . S
C686 H700 0.961 . S
C687 C684 1.539 . S
C687 H701 0.958 . S
C687 H702 0.961 . S
C687 H703 0.960 . S
H688 C672 0.931 . S
H689 C677 0.929 . S
H690 C678 0.960 . S
H691 C678 0.962 1_545 S
H692 C678 0.960 . S
H693 C679 0.961 . S
H694 C679 0.989 . S
H695 C679 0.961 . S
H696 C680 0.931 . S
H697 C685 0.930 1_556 S
H698 C686 0.956 . S
H699 C686 0.961 . S
H700 C686 0.961 . S
H701 C687 0.958 . S
H702 C687 0.961 . S
H703 C687 0.960 . S
C704 C705 1.391 . S
C704 C706 1.394 . S
C704 H720 0.931 . S
C705 C704 1.391 . S
C705 C709 1.376 . S
C706 C704 1.394 . S
C706 C707 1.369 . S
C706 C710 1.531 . S
C707 C706 1.369 . S
C707 C708 1.410 . S
C707 C715 1.503 . S
C708 C707 1.410 . S
C708 C709 1.392 . S
C708 C711 1.511 . S
C709 C705 1.376 . S
C709 C708 1.392 . S
C709 H721 0.929 . S
C710 C706 1.531 . S
C710 H722 0.960 . S
C710 H723 0.962 . S
C710 H724 0.960 . S
C711 C708 1.511 . S
C711 H725 0.961 . S
C711 H726 0.961 . S
C711 H727 0.961 . S
C712 C713 1.370 . S
C712 C714 1.363 1_556 S
C712 H728 0.931 . S
C713 C712 1.370 . S
C713 C717 1.408 1_556 S
C714 C712 1.363 1_554 S
C714 C715 1.370 . S
C714 C718 1.524 . S
C715 C707 1.503 . S
C715 C714 1.370 . S
C715 C716 1.403 . S
C716 C715 1.403 . S
C716 C717 1.404 . S
C716 C719 1.539 . S
C717 C713 1.408 1_554 S
C717 C716 1.404 . S
C717 H729 0.930 . S
C718 C714 1.524 . S
C718 H730 0.956 . S
C718 H731 0.961 . S
C718 H732 0.961 1_554 S
C719 C716 1.539 . S
C719 H733 0.958 . S
C719 H734 0.961 . S
C719 H735 0.960 . S
H720 C704 0.931 . S
H721 C709 0.929 . S
H722 C710 0.960 . S
H723 C710 0.962 . S
H724 C710 0.960 . S
H725 C711 0.961 . S
H726 C711 0.961 . S
H727 C711 0.961 . S
H728 C712 0.931 . S
H729 C717 0.930 . S
H730 C718 0.956 . S
H731 C718 0.961 . S
H732 C718 0.961 1_556 S
H733 C719 0.958 . S
H734 C719 0.961 . S
H735 C719 0.960 . S
C736 C737 1.391 . S
C736 C738 1.394 . S
C736 H752 0.931 . S
C737 C736 1.391 . S
C737 C741 1.376 . S
C738 C736 1.394 . S
C738 C739 1.369 . S
C738 C742 1.531 . S
C739 C738 1.369 . S
C739 C740 1.410 . S
C739 C747 1.503 . S
C740 C739 1.410 . S
C740 C741 1.392 . S
C740 C743 1.511 . S
C741 C737 1.376 . S
C741 C740 1.392 . S
C741 H753 0.929 . S
C742 C738 1.531 . S
C742 H754 0.960 . S
C742 H755 0.962 . S
C742 H756 0.960 . S
C743 C740 1.511 . S
C743 H757 0.961 . S
C743 H758 0.961 . S
C743 H759 0.961 . S
C744 C745 1.370 . S
C744 C746 1.363 . S
C744 H760 0.931 . S
C745 C744 1.370 . S
C745 C749 1.408 . S
C746 C744 1.363 . S
C746 C747 1.370 . S
C746 C750 1.524 . S
C747 C739 1.503 . S
C747 C746 1.370 . S
C747 C748 1.403 . S
C748 C747 1.403 . S
C748 C749 1.404 . S
C748 C751 1.539 . S
C749 C745 1.408 . S
C749 C748 1.404 . S
C749 H761 0.930 . S
C750 C746 1.524 . S
C750 H762 0.956 . S
C750 H763 0.961 . S
C750 H764 0.961 . S
C751 C748 1.539 . S
C751 H765 0.958 . S
C751 H766 0.961 . S
C751 H767 0.960 . S
H752 C736 0.931 . S
H753 C741 0.929 . S
H754 C742 0.960 . S
H755 C742 0.962 . S
H756 C742 0.960 . S
H757 C743 0.961 . S
H758 C743 0.961 . S
H759 C743 0.961 . S
H760 C744 0.931 . S
H761 C749 0.930 . S
H762 C750 0.956 . S
H763 C750 0.961 . S
H764 C750 0.961 . S
H765 C751 0.958 . S
H766 C751 0.961 . S
H767 C751 0.960 . S
C768 C769 1.391 . S
C768 C770 1.394 . S
C768 H784 0.931 . S
C769 C768 1.391 . S
C769 C773 1.376 . S
C770 C768 1.394 . S
C770 C771 1.369 . S
C770 C774 1.531 . S
C771 C770 1.369 . S
C771 C772 1.410 . S
C771 C779 1.503 . S
C772 C771 1.410 . S
C772 C773 1.392 . S
C772 C775 1.511 1_455 S
C773 C769 1.376 . S
C773 C772 1.392 . S
C773 H785 0.929 . S
C774 C770 1.531 . S
C774 H786 0.960 . S
C774 H787 0.962 . S
C774 H788 0.960 . S
C775 C772 1.511 1_655 S
C775 H789 0.961 . S
C775 H790 0.961 . S
C775 H791 0.961 . S
C776 C777 1.370 . S
C776 C778 1.363 . S
C776 H792 0.931 . S
C777 C776 1.370 . S
C777 C781 1.408 . S
C778 C776 1.363 . S
C778 C779 1.370 . S
C778 C782 1.524 . S
C779 C771 1.503 . S
C779 C778 1.370 . S
C779 C780 1.403 . S
C780 C779 1.403 . S
C780 C781 1.404 . S
C780 C783 1.539 1_556 S
C781 C777 1.408 . S
C781 C780 1.404 . S
C781 H793 0.930 . S
C782 C778 1.524 . S
C782 H794 0.956 . S
C782 H795 0.961 . S
C782 H796 0.961 . S
C783 C780 1.539 1_554 S
C783 H797 0.958 . S
C783 H798 0.961 . S
C783 H799 0.960 . S
H784 C768 0.931 . S
H785 C773 0.929 . S
H786 C774 0.960 . S
H787 C774 0.962 . S
H788 C774 0.960 . S
H789 C775 0.961 . S
H790 C775 0.961 . S
H791 C775 0.961 . S
H792 C776 0.931 . S
H793 C781 0.930 . S
H794 C782 0.956 . S
H795 C782 0.961 . S
H796 C782 0.961 . S
H797 C783 0.958 . S
H798 C783 0.961 . S
H799 C783 0.960 . S
C800 C801 1.391 . S
C800 C802 1.394 . S
C800 H816 0.931 . S
C801 C800 1.391 . S
C801 C805 1.376 . S
C802 C800 1.394 . S
C802 C803 1.369 . S
C802 C806 1.531 . S
C803 C802 1.369 . S
C803 C804 1.410 . S
C803 C811 1.503 . S
C804 C803 1.410 . S
C804 C805 1.392 . S
C804 C807 1.511 1_545 S
C805 C801 1.376 . S
C805 C804 1.392 . S
C805 H817 0.929 . S
C806 C802 1.531 . S
C806 H818 0.960 . S
C806 H819 0.962 . S
C806 H820 0.960 . S
C807 C804 1.511 1_565 S
C807 H821 0.961 . S
C807 H822 0.961 . S
C807 H823 0.961 . S
C808 C809 1.370 . S
C808 C810 1.363 . S
C808 H824 0.931 . S
C809 C808 1.370 . S
C809 C813 1.408 . S
C810 C808 1.363 . S
C810 C811 1.370 . S
C810 C814 1.524 . S
C811 C803 1.503 . S
C811 C810 1.370 . S
C811 C812 1.403 . S
C812 C811 1.403 . S
C812 C813 1.404 . S
C812 C815 1.539 . S
C813 C809 1.408 . S
C813 C812 1.404 . S
C813 H825 0.930 . S
C814 C810 1.524 . S
C814 H826 0.956 . S
C814 H827 0.961 . S
C814 H828 0.961 . S
C815 C812 1.539 . S
C815 H829 0.958 . S
C815 H830 0.961 1_545 S
C815 H831 0.960 1_545 S
H816 C800 0.931 . S
H817 C805 0.929 . S
H818 C806 0.960 . S
H819 C806 0.962 . S
H820 C806 0.960 . S
H821 C807 0.961 . S
H822 C807 0.961 . S
H823 C807 0.961 . S
H824 C808 0.931 . S
H825 C813 0.930 . S
H826 C814 0.956 . S
H827 C814 0.961 . S
H828 C814 0.961 . S
H829 C815 0.958 . S
H830 C815 0.961 1_565 S
H831 C815 0.960 1_565 S
C832 C833 1.391 . S
C832 C834 1.394 . S
C832 H848 0.931 1_556 S
C833 C832 1.391 . S
C833 C837 1.376 . S
C834 C832 1.394 . S
C834 C835 1.369 . S
C834 C838 1.531 . S
C835 C834 1.369 . S
C835 C836 1.410 . S
C835 C843 1.503 . S
C836 C835 1.410 . S
C836 C837 1.392 . S
C836 C839 1.511 . S
C837 C833 1.376 . S
C837 C836 1.392 . S
C837 H849 0.929 . S
C838 C834 1.531 . S
C838 H850 0.960 . S
C838 H851 0.962 1_556 S
C838 H852 0.960 1_556 S
C839 C836 1.511 . S
C839 H853 0.961 . S
C839 H854 0.961 . S
C839 H855 0.961 . S
C840 C841 1.370 . S
C840 C842 1.363 . S
C840 H856 0.931 . S
C841 C840 1.370 . S
C841 C845 1.408 . S
C842 C840 1.363 . S
C842 C843 1.370 . S
C842 C846 1.524 . S
C843 C835 1.503 . S
C843 C842 1.370 . S
C843 C844 1.403 . S
C844 C843 1.403 . S
C844 C845 1.404 . S
C844 C847 1.539 . S
C845 C841 1.408 . S
C845 C844 1.404 . S
C845 H857 0.930 . S
C846 C842 1.524 . S
C846 H858 0.956 . S
C846 H859 0.961 . S
C846 H860 0.961 . S
C847 C844 1.539 . S
C847 H861 0.958 . S
C847 H862 0.961 . S
C847 H863 0.960 . S
H848 C832 0.931 1_554 S
H849 C837 0.929 . S
H850 C838 0.960 . S
H851 C838 0.962 1_554 S
H852 C838 0.960 1_554 S
H853 C839 0.961 . S
H854 C839 0.961 . S
H855 C839 0.961 . S
H856 C840 0.931 . S
H857 C845 0.930 . S
H858 C846 0.956 . S
H859 C846 0.961 . S
H860 C846 0.961 . S
H861 C847 0.958 . S
H862 C847 0.961 . S
H863 C847 0.960 . S
C864 C865 1.391 . S
C864 C866 1.394 . S
C864 H880 0.931 . S
C865 C864 1.391 . S
C865 C869 1.376 . S
C866 C864 1.394 . S
C866 C867 1.369 . S
C866 C870 1.531 . S
C867 C866 1.369 . S
C867 C868 1.410 . S
C867 C875 1.503 . S
C868 C867 1.410 . S
C868 C869 1.392 . S
C868 C871 1.511 . S
C869 C865 1.376 . S
C869 C868 1.392 . S
C869 H881 0.929 . S
C870 C866 1.531 . S
C870 H882 0.960 . S
C870 H883 0.962 . S
C870 H884 0.960 . S
C871 C868 1.511 . S
C871 H885 0.961 . S
C871 H886 0.961 . S
C871 H887 0.961 . S
C872 C873 1.370 . S
C872 C874 1.363 . S
C872 H888 0.931 . S
C873 C872 1.370 . S
C873 C877 1.408 . S
C874 C872 1.363 . S
C874 C875 1.370 . S
C874 C878 1.524 1_556 S
C875 C867 1.503 . S
C875 C874 1.370 . S
C875 C876 1.403 . S
C876 C875 1.403 . S
C876 C877 1.404 . S
C876 C879 1.539 . S
C877 C873 1.408 . S
C877 C876 1.404 . S
C877 H889 0.930 . S
C878 C874 1.524 1_554 S
C878 H890 0.956 . S
C878 H891 0.961 1_554 S
C878 H892 0.961 . S
C879 C876 1.539 . S
C879 H893 0.958 . S
C879 H894 0.961 . S
C879 H895 0.960 . S
H880 C864 0.931 . S
H881 C869 0.929 . S
H882 C870 0.960 . S
H883 C870 0.962 . S
H884 C870 0.960 . S
H885 C871 0.961 . S
H886 C871 0.961 . S
H887 C871 0.961 . S
H888 C872 0.931 . S
H889 C877 0.930 . S
H890 C878 0.956 . S
H891 C878 0.961 1_556 S
H892 C878 0.961 . S
H893 C879 0.958 . S
H894 C879 0.961 . S
H895 C879 0.960 . S
C896 C897 1.391 . S
C896 C898 1.394 . S
C896 H912 0.931 . S
C897 C896 1.391 . S
C897 C901 1.376 . S
C898 C896 1.394 . S
C898 C899 1.369 . S
C898 C902 1.531 . S
C899 C898 1.369 . S
C899 C900 1.410 . S
C899 C907 1.503 . S
C900 C899 1.410 . S
C900 C901 1.392 . S
C900 C903 1.511 1_655 S
C901 C897 1.376 . S
C901 C900 1.392 . S
C901 H913 0.929 1_655 S
C902 C898 1.531 . S
C902 H914 0.960 . S
C902 H915 0.962 . S
C902 H916 0.960 . S
C903 C900 1.511 1_455 S
C903 H917 0.961 . S
C903 H918 0.961 . S
C903 H919 0.961 . S
C904 C905 1.370 . S
C904 C906 1.363 . S
C904 H920 0.946 . S
C905 C904 1.370 . S
C905 C909 1.408 . S
C906 C904 1.363 . S
C906 C907 1.370 . S
C906 C910 1.524 . S
C907 C899 1.503 . S
C907 C906 1.370 . S
C907 C908 1.403 . S
C908 C907 1.403 . S
C908 C909 1.404 . S
C908 C911 1.539 . S
C909 C905 1.408 . S
C909 C908 1.404 . S
C909 H921 0.930 . S
C910 C906 1.524 . S
C910 H922 0.956 . S
C910 H923 0.961 1_655 S
C910 H924 0.961 1_655 S
C911 C908 1.539 . S
C911 H925 0.958 . S
C911 H926 0.961 . S
C911 H927 0.960 . S
H912 C896 0.931 . S
H913 C901 0.929 1_455 S
H914 C902 0.960 . S
H915 C902 0.962 . S
H916 C902 0.960 . S
H917 C903 0.961 . S
H918 C903 0.961 . S
H919 C903 0.961 . S
H920 C904 0.946 . S
H921 C909 0.930 . S
H922 C910 0.956 . S
H923 C910 0.961 1_455 S
H924 C910 0.961 1_455 S
H925 C911 0.958 . S
H926 C911 0.961 . S
H927 C911 0.960 . S
C928 C929 1.391 . S
C928 C930 1.394 . S
C928 H944 0.931 . S
C929 C928 1.391 . S
C929 C933 1.376 . S
C930 C928 1.394 . S
C930 C931 1.369 . S
C930 C934 1.531 . S
C931 C930 1.369 . S
C931 C932 1.410 . S
C931 C939 1.503 . S
C932 C931 1.410 . S
C932 C933 1.392 . S
C932 C935 1.511 1_565 S
C933 C929 1.376 . S
C933 C932 1.392 . S
C933 H945 0.929 1_565 S
C934 C930 1.531 . S
C934 H946 0.960 . S
C934 H947 0.962 . S
C934 H948 0.960 . S
C935 C932 1.511 1_545 S
C935 H949 0.961 . S
C935 H950 0.961 . S
C935 H951 0.961 . S
C936 C937 1.353 1_545 S
C936 C938 1.360 1_545 S
C936 H952 0.954 . S
C937 C936 1.353 1_565 S
C937 C941 1.408 . S
C938 C936 1.360 1_565 S
C938 C939 1.370 . S
C938 C942 1.524 1_565 S
C939 C931 1.503 . S
C939 C938 1.370 . S
C939 C940 1.403 . S
C940 C939 1.403 . S
C940 C941 1.404 . S
C940 C943 1.539 . S
C941 C937 1.408 . S
C941 C940 1.404 . S
C941 H953 0.930 . S
C942 C938 1.524 1_545 S
C942 H954 0.956 . S
C942 H955 0.961 . S
C942 H956 0.961 . S
C943 C940 1.539 . S
C943 H957 0.958 . S
C943 H958 0.961 . S
C943 H959 0.960 . S
H944 C928 0.931 . S
H945 C933 0.929 1_545 S
H946 C934 0.960 . S
H947 C934 0.962 . S
H948 C934 0.960 . S
H949 C935 0.961 . S
H950 C935 0.961 . S
H951 C935 0.961 . S
H952 C936 0.954 . S
H953 C941 0.930 . S
H954 C942 0.956 . S
H955 C942 0.961 . S
H956 C942 0.961 . S
H957 C943 0.958 . S
H958 C943 0.961 . S
H959 C943 0.960 . S
C960 C961 1.391 . S
C960 C962 1.394 . S
C960 H976 0.931 . S
C961 C960 1.391 . S
C961 C965 1.376 . S
C962 C960 1.394 . S
C962 C963 1.369 . S
C962 C966 1.531 . S
C963 C962 1.369 . S
C963 C964 1.410 . S
C963 C971 1.503 . S
C964 C963 1.410 . S
C964 C965 1.392 . S
C964 C967 1.511 . S
C965 C961 1.376 . S
C965 C964 1.392 . S
C965 H977 0.929 . S
C966 C962 1.531 . S
C966 H978 0.960 . S
C966 H979 0.962 . S
C966 H980 0.960 . S
C967 C964 1.511 . S
C967 H981 0.961 . S
C967 H982 0.961 . S
C967 H983 0.961 . S
C968 C969 1.370 . S
C968 C970 1.363 . S
C968 H984 0.931 . S
C969 C968 1.370 . S
C969 C973 1.408 . S
C970 C968 1.363 . S
C970 C971 1.370 . S
C970 C974 1.524 . S
C971 C963 1.503 . S
C971 C970 1.370 . S
C971 C972 1.403 . S
C972 C971 1.403 . S
C972 C973 1.404 . S
C972 C975 1.539 . S
C973 C969 1.408 . S
C973 C972 1.404 . S
C973 H985 0.930 . S
C974 C970 1.524 . S
C974 H986 0.956 . S
C974 H987 0.961 . S
C974 H988 0.961 . S
C975 C972 1.539 . S
C975 H989 0.958 . S
C975 H990 0.961 . S
C975 H991 0.960 . S
H976 C960 0.931 . S
H977 C965 0.929 . S
H978 C966 0.960 . S
H979 C966 0.962 . S
H980 C966 0.960 . S
H981 C967 0.961 . S
H982 C967 0.961 . S
H983 C967 0.961 . S
H984 C968 0.931 . S
H985 C973 0.930 . S
H986 C974 0.956 . S
H987 C974 0.961 . S
H988 C974 0.961 . S
H989 C975 0.958 . S
H990 C975 0.961 . S
H991 C975 0.960 . S
C992 C993 1.391 . S
C992 C994 1.394 . S
C992 H1008 0.931 . S
C993 C992 1.391 . S
C993 C997 1.376 . S
C994 C992 1.394 . S
C994 C995 1.369 . S
C994 C998 1.531 . S
C995 C994 1.369 . S
C995 C996 1.410 . S
C995 C1003 1.503 . S
C996 C995 1.410 . S
C996 C997 1.392 . S
C996 C999 1.511 . S
C997 C993 1.376 . S
C997 C996 1.392 . S
C997 H1009 0.929 . S
C998 C994 1.531 . S
C998 H1010 0.960 . S
C998 H1011 0.962 . S
C998 H1012 0.960 . S
C999 C996 1.511 . S
C999 H1013 0.961 . S
C999 H1014 0.961 . S
C999 H1015 0.961 . S
C1000 C1001 1.370 . S
C1000 C1002 1.363 . S
C1000 H1016 0.931 . S
C1001 C1000 1.370 . S
C1001 C1005 1.408 . S
C1002 C1000 1.363 . S
C1002 C1003 1.370 . S
C1002 C1006 1.524 . S
C1003 C995 1.503 . S
C1003 C1002 1.370 . S
C1003 C1004 1.403 . S
C1004 C1003 1.403 . S
C1004 C1005 1.404 . S
C1004 C1007 1.539 . S
C1005 C1001 1.408 . S
C1005 C1004 1.404 . S
C1005 H1017 0.930 . S
C1006 C1002 1.524 . S
C1006 H1018 0.956 . S
C1006 H1019 0.961 . S
C1006 H1020 0.961 . S
C1007 C1004 1.539 . S
C1007 H1021 0.958 . S
C1007 H1022 0.961 . S
C1007 H1023 0.960 . S
H1008 C992 0.931 . S
H1009 C997 0.929 . S
H1010 C998 0.960 . S
H1011 C998 0.962 . S
H1012 C998 0.960 . S
H1013 C999 0.961 . S
H1014 C999 0.961 . S
H1015 C999 0.961 . S
H1016 C1000 0.931 . S
H1017 C1005 0.930 . S
H1018 C1006 0.956 . S
H1019 C1006 0.961 . S
H1020 C1006 0.961 . S
H1021 C1007 0.958 . S
H1022 C1007 0.961 . S
H1023 C1007 0.960 . S
C257 C76 2.147 . S
C265 C127 2.336 . S
C297 C153 1.894 . S
C289 C88 1.689 . S
C329 C193 1.961 . S
C321 C52 1.824 . S
C361 C247 2.377 . S
C353 C64 2.219 . S
C393 C108 2.342 1_565 S
C385 C28 2.107 . S
C417 C40 1.661 . S
C425 C138 1.889 . S
C449 C4 1.775 . S
C457 C178 1.959 . S
C481 C16 2.177 . S
C489 C228 2.383 1_655 S
C521 C104 0.542 . S
C513 C69 0.443 . S
C553 C165 0.677 . S
C545 C81 0.676 . S
C585 C205 0.564 . S
C577 C93 0.563 . S
C609 C57 0.473 . S
C617 C224 0.424 . S
C641 C21 0.619 . S
C649 C125 0.499 . S
C681 C144 0.640 1_554 S
C673 C33 0.712 . S
C713 C184 0.519 . S
C705 C45 0.536 . S
C737 C9 0.417 . S
C745 C245 0.424 . S
C769 C66 1.868 . S
C777 C98 2.127 . S
C801 C78 2.366 . S
C809 C148 2.605 . S
C841 C188 2.388 . S
C833 C90 2.209 . S
C873 C218 1.889 . S
C865 C54 1.739 1_556 S
C897 C18 1.932 . S
C905 C113 2.126 . S
C937 C167 2.608 . S
C929 C30 2.409 . S
C969 C207 2.391 . S
C961 C42 2.231 . S
C993 C6 1.658 . S
C1001 C233 1.887 . S
