# Generated by pormake.
# Topology anh, (6,3)-cn, num edge types: 1
# Building blocks:
#     Node 0, Type 0, BuildingBlock: PAMTUU_clean_sbu_0, # of connection points: 6
#     Node 1, Type 0, BuildingBlock: PAMTUU_clean_sbu_0, # of connection points: 6
#     Node 2, Type 0, BuildingBlock: PAMTUU_clean_sbu_0, # of connection points: 6
#     Node 3, Type 1, BuildingBlock: BETDAH_clean_linker_0, # of connection points: 3
#     Node 4, Type 1, BuildingBlock: BETDAH_clean_linker_0, # of connection points: 3
#     Node 5, Type 1, BuildingBlock: BETDAH_clean_linker_0, # of connection points: 3
#     Node 6, Type 1, BuildingBlock: BETDAH_clean_linker_0, # of connection points: 3
#     Node 7, Type 1, BuildingBlock: BETDAH_clean_linker_0, # of connection points: 3
#     Node 8, Type 1, BuildingBlock: BETDAH_clean_linker_0, # of connection points: 3
#     Edge 9, Type (0, 1), BuildingBlock: XIVTED_clean_linker_0, # of connection points: 2
#     Edge 10, Type (0, 1), BuildingBlock: XIVTED_clean_linker_0, # of connection points: 2
#     Edge 11, Type (0, 1), BuildingBlock: XIVTED_clean_linker_0, # of connection points: 2
#     Edge 12, Type (0, 1), BuildingBlock: XIVTED_clean_linker_0, # of connection points: 2
#     Edge 13, Type (0, 1), BuildingBlock: XIVTED_clean_linker_0, # of connection points: 2
#     Edge 14, Type (0, 1), BuildingBlock: XIVTED_clean_linker_0, # of connection points: 2
#     Edge 15, Type (0, 1), BuildingBlock: XIVTED_clean_linker_0, # of connection points: 2
#     Edge 16, Type (0, 1), BuildingBlock: XIVTED_clean_linker_0, # of connection points: 2
#     Edge 17, Type (0, 1), BuildingBlock: XIVTED_clean_linker_0, # of connection points: 2
#     Edge 18, Type (0, 1), BuildingBlock: XIVTED_clean_linker_0, # of connection points: 2
#     Edge 19, Type (0, 1), BuildingBlock: XIVTED_clean_linker_0, # of connection points: 2
#     Edge 20, Type (0, 1), BuildingBlock: XIVTED_clean_linker_0, # of connection points: 2
#     Edge 21, Type (0, 1), BuildingBlock: XIVTED_clean_linker_0, # of connection points: 2
#     Edge 22, Type (0, 1), BuildingBlock: XIVTED_clean_linker_0, # of connection points: 2
#     Edge 23, Type (0, 1), BuildingBlock: XIVTED_clean_linker_0, # of connection points: 2
#     Edge 24, Type (0, 1), BuildingBlock: XIVTED_clean_linker_0, # of connection points: 2
#     Edge 25, Type (0, 1), BuildingBlock: XIVTED_clean_linker_0, # of connection points: 2
#     Edge 26, Type (0, 1), BuildingBlock: XIVTED_clean_linker_0, # of connection points: 2
# Relax obj value: 0.240
# Max RMSD: 0.145
# Mean RMSD: 0.101
data_MOF--net-anh--node1-PAMTUU_clean_sbu_0--node2-BETDAH_clean_linker_0--edge1-XIVTED_clean_linker_0
_symmetry_space_group_name_H-M    P1
_symmetry_Int_Tables_number       1
_symmetry_cell_setting            triclinic
loop_
_symmetry_equiv_pos_as_xyz
'x, y, z'
_cell_length_a     30.404487
_cell_length_b     30.154767
_cell_length_c     50.003632
_cell_angle_alpha  93.72098
_cell_angle_beta   93.13228
_cell_angle_gamma 119.80959
loop_
_atom_site_label
_atom_site_type_symbol
_atom_site_fract_x
_atom_site_fract_y
_atom_site_fract_z
_atom_type_partial_charge
Tb0 Tb 0.22008 0.7388 0.1587 0.0
Tb1 Tb 0.28342 0.67962 0.14623 0.0
C2 C 0.2407 0.7168 0.09941 0.0
C3 C 1.11782 0.76027 0.17906 0.0
C4 C 1.01378 0.70567 0.18707 0.0
C5 C 1.03351 0.74999 0.17333 0.0
C6 C 1.08512 0.77703 0.16939 0.0
C7 C 1.09923 0.71843 0.19449 0.0
C8 C 1.04771 0.69165 0.19868 0.0
C9 C 0.16815 0.78074 0.16917 0.0
O10 O 0.16165 0.6578 0.14935 0.0
O11 O 0.2096 0.6199 0.15809 0.0
O12 O 0.29472 0.69931 0.18932 0.0
O13 O 0.22275 0.70367 0.19499 0.0
O14 O 0.35131 0.67747 0.15219 0.0
O15 O 0.28708 0.61884 0.12574 0.0
O16 O 0.33636 0.76102 0.14161 0.0
O17 O 0.30031 0.79759 0.16741 0.0
O18 O 0.23575 0.74842 0.11668 0.0
O19 O 0.25106 0.6821 0.10716 0.0
C20 C 0.16487 0.61729 0.1548 0.0
O21 O 0.2046 0.7844 0.18582 0.0
O22 O 0.16751 0.76031 0.1453 0.0
C23 C 0.26077 0.69843 0.20461 0.0
C24 C 0.34204 0.59454 0.14767 0.0
C25 C 0.36437 0.51702 0.1589 0.0
C26 C 0.3135 0.50571 0.15502 0.0
C27 C 0.30238 0.54418 0.14947 0.0
C28 C 0.39261 0.60648 0.15327 0.0
C29 C 0.40372 0.56822 0.15889 0.0
C30 C 0.33249 0.63386 0.13722 0.0
C31 C 0.33951 0.80123 0.15568 0.0
H32 H 1.00862 0.76164 0.16375 0.0
H33 H 1.09876 0.80892 0.15721 0.0
H34 H 1.12385 0.70461 0.20198 0.0
H35 H 1.03401 0.65827 0.20973 0.0
H36 H 0.28237 0.46674 0.15518 0.0
H37 H 0.26293 0.534 0.14545 0.0
H38 H 0.42377 0.64501 0.15191 0.0
H39 H 0.44332 0.57828 0.16137 0.0
Tb40 Tb 0.5705 0.16622 0.47012 0.0
Tb41 Tb 0.68855 0.21378 0.49489 0.0
C42 C 0.66167 0.21086 0.43286 0.0
C43 C 0.43277 1.08391 0.46491 0.0
C44 C 0.36002 0.99286 0.48437 0.0
C45 C 0.35713 0.99964 0.45683 0.0
C46 C 0.39328 1.04483 0.4472 0.0
C47 C 0.43326 1.07911 0.49267 0.0
C48 C 0.39697 1.03415 0.50235 0.0
C49 C 0.47725 0.12505 0.45411 0.0
O50 O 0.5768 0.10047 0.48246 0.0
O51 O 0.6613 0.13509 0.47778 0.0
O52 O 0.64051 0.17112 0.52544 0.0
O53 O 0.57238 0.18007 0.5133 0.0
O54 O 0.75576 0.21057 0.49578 0.0
O55 O 0.74741 0.26042 0.52549 0.0
O56 O 0.67211 0.27677 0.50075 0.0
O57 O 0.60477 0.24893 0.46834 0.0
O58 O 0.61383 0.1772 0.43553 0.0
O59 O 0.69599 0.23532 0.45376 0.0
C60 C 0.61699 0.09509 0.48067 0.0
O61 O 0.50251 0.16844 0.46948 0.0
O62 O 0.50761 0.11094 0.44402 0.0
C63 C 0.59799 0.16922 0.53093 0.0
C64 C 0.83121 0.27966 0.51787 0.0
C65 C 0.9368 0.33949 0.51585 0.0
C66 C 0.9169 0.29929 0.5323 0.0
C67 C 0.86452 0.26972 0.53333 0.0
C68 C 0.8507 0.32072 0.502 0.0
C69 C 0.90342 0.3508 0.50114 0.0
C70 C 0.77668 0.24338 0.51717 0.0
C71 C 0.64042 0.28529 0.48584 0.0
H72 H 0.32967 0.96852 0.44229 0.0
H73 H 0.39247 1.04772 0.42571 0.0
H74 H 0.46354 0.10875 0.50672 0.0
H75 H 0.39989 1.03049 0.52369 0.0
H76 H 0.94186 0.29015 0.544 0.0
H77 H 0.84988 0.23796 0.54562 0.0
H78 H 0.82524 0.32848 0.48978 0.0
H79 H 0.91795 0.38144 0.48816 0.0
Tb80 Tb 0.64699 0.60131 0.812 0.0
Tb81 Tb 0.71179 0.7237 0.83011 0.0
C82 C 0.67364 0.67933 0.76917 0.0
C83 C 0.60012 0.4601 0.80926 0.0
C84 C 0.59014 0.36671 0.82342 0.0
C85 C 0.61633 0.38947 0.80132 0.0
C86 C 0.62105 0.43549 0.79427 0.0
C87 C 0.57614 0.43883 0.8322 0.0
C88 C 0.57118 0.3925 0.8392 0.0
C89 C 0.60031 0.50532 0.79945 0.0
O90 O 0.72432 0.61898 0.82666 0.0
O91 O 0.76924 0.70396 0.81941 0.0
O92 O 0.71675 0.68613 0.8653 0.0
O93 O 0.64096 0.61185 0.85438 0.0
O94 O 0.76003 0.79997 0.82202 0.0
O95 O 0.73199 0.78324 0.86084 0.0
O96 O 0.63236 0.69959 0.83567 0.0
O97 O 0.59118 0.62685 0.80591 0.0
O98 O 0.67042 0.63638 0.77527 0.0
O99 O 0.68181 0.71584 0.788 0.0
C100 C 0.76785 0.66062 0.8236 0.0
O101 O 0.58303 0.5289 0.81454 0.0
O102 O 0.64106 0.53757 0.78894 0.0
C103 C 0.67817 0.64409 0.87222 0.0
C104 C 0.72192 0.84576 0.84033 0.0
C105 C 0.63642 0.85688 0.82914 0.0
C106 C 0.65282 0.85637 0.85585 0.0
C107 C 0.69547 0.85109 0.86142 0.0
C108 C 0.70957 0.85367 0.81423 0.0
C109 C 0.66707 0.85893 0.80869 0.0
C110 C 0.75014 0.81789 0.84398 0.0
C111 C 0.59074 0.66401 0.82112 0.0
H112 H 0.63051 0.37018 0.78839 0.0
H113 H 0.63938 0.45078 0.7764 0.0
H114 H 0.55967 0.45694 0.84423 0.0
H115 H 0.55098 0.37596 0.85638 0.0
H116 H 0.63021 0.85534 0.87205 0.0
H117 H 0.70439 0.84574 0.88181 0.0
H118 H 0.72957 0.85077 0.79753 0.0
H119 H 0.65615 0.86104 0.78803 0.0
H120 H 0.64656 0.13743 0.23926 0.0
H121 H 0.79353 0.26804 0.2314 0.0
H122 H 0.70921 0.15518 0.16311 0.0
C123 C 0.67668 0.15922 0.22679 0.0
C124 C 0.67166 0.14052 0.19969 0.0
C125 C 0.72008 0.20484 0.23844 0.0
C126 C 0.76017 0.23275 0.22258 0.0
C127 C 0.75641 0.2152 0.19518 0.0
C128 C 0.71228 0.16868 0.18411 0.0
N129 N 0.79538 0.24265 0.17793 0.0
C130 C 0.8399 0.29108 0.18352 0.0
H131 H 0.64523 0.60612 0.57262 0.0
H132 H 0.62896 0.73676 0.55852 0.0
H133 H 0.63175 0.64064 0.49156 0.0
C134 C 0.64138 0.6303 0.55865 0.0
C135 C 0.6399 0.61816 0.5309 0.0
C136 C 0.63711 0.67251 0.56882 0.0
C137 C 0.63233 0.7043 0.55079 0.0
C138 C 0.62995 0.6927 0.52275 0.0
C139 C 0.63338 0.6494 0.51307 0.0
N140 N 0.62329 0.72261 0.50353 0.0
C141 C 0.62199 0.76827 0.5086 0.0
H142 H 1.09752 0.68539 0.9021 0.0
H143 H 0.23381 0.68113 0.88654 0.0
H144 H 0.12913 0.66809 0.82082 0.0
C145 C 1.12162 0.68112 0.88823 0.0
C146 C 1.10669 0.67459 0.86052 0.0
C147 C 0.16728 0.68364 0.89818 0.0
C148 C 0.19911 0.6803 0.87947 0.0
C149 C 0.18597 0.6753 0.85152 0.0
C150 C 0.13975 0.67269 0.84229 0.0
N151 N 0.21767 0.67249 0.83205 0.0
C152 C 0.2635 0.67208 0.83682 0.0
H153 H 0.26412 0.68702 0.40772 0.0
H154 H 0.30493 0.57075 0.39202 0.0
H155 H 0.30282 0.62411 0.47352 0.0
C156 C 0.27445 0.65999 0.415 0.0
C157 C 0.28139 0.65855 0.4428 0.0
C158 C 0.28324 0.62897 0.39648 0.0
C159 C 0.29919 0.59591 0.40605 0.0
C160 C 0.30477 0.59298 0.43378 0.0
C161 C 0.29697 0.62523 0.45209 0.0
N162 N 0.31393 0.55461 0.44303 0.0
C163 C 0.2831 0.52358 0.46132 0.0
H164 H 0.49754 1.081 0.71753 0.0
H165 H 0.38001 0.93386 0.67923 0.0
H166 H 0.39327 0.96833 0.76514 0.0
C167 C 0.46593 1.04274 0.71899 0.0
C168 C 0.44866 1.02854 0.74419 0.0
C169 C 0.44139 1.0092 0.69543 0.0
C170 C 0.39879 0.96055 0.69719 0.0
C171 C 0.38231 0.94512 0.7224 0.0
C172 C 0.40678 0.97964 0.74576 0.0
N173 N 0.34365 0.89378 0.72436 0.0
C174 C 0.35082 0.86689 0.74402 0.0
H175 H 0.72043 0.54817 0.06631 0.0
H176 H 0.59079 0.41063 0.02618 0.0
H177 H 0.63823 0.41635 0.10935 0.0
C178 C 0.68976 0.50899 0.06664 0.0
C179 C 0.68389 0.48522 0.09048 0.0
C180 C 0.65644 0.48271 0.04327 0.0
C181 C 0.61704 0.43169 0.04394 0.0
C182 C 0.61006 0.4081 0.06779 0.0
C183 C 0.64366 0.43483 0.09096 0.0
N184 N 0.56723 0.35873 0.06879 0.0
C185 C 0.53365 0.35189 0.08793 0.0
H186 H 0.44128 0.51476 0.18935 0.0
H187 H 0.4313 0.30633 0.08048 0.0
H188 H 0.31724 0.42485 0.12743 0.0
H189 H 0.56204 0.40747 0.13639 0.0
H190 H 0.37905 0.33059 0.10651 0.0
H191 H 0.47509 0.45763 0.17945 0.0
C192 C 0.42055 0.48236 0.17408 0.0
C193 C 0.37708 0.4754 0.15873 0.0
C194 C 0.41886 0.34652 0.11354 0.0
C195 C 0.41564 0.41006 0.14722 0.0
C196 C 0.44848 0.33243 0.09877 0.0
C197 C 0.50065 0.35518 0.10646 0.0
C198 C 0.44211 0.38424 0.13576 0.0
C199 C 0.52169 0.38921 0.12999 0.0
C200 C 0.43983 0.44971 0.16846 0.0
C201 C 0.35105 0.43201 0.13967 0.0
N202 N 0.49248 0.40343 0.14363 0.0
N203 N 0.37131 0.40164 0.13407 0.0
H204 H 1.00168 0.44335 0.51873 0.0
H205 H 0.22373 0.42039 0.4574 0.0
H206 H 0.99667 0.298 0.50583 0.0
H207 H 0.24755 0.56113 0.49936 0.0
H208 H 0.14127 0.3736 0.4758 0.0
H209 H 1.0922 0.48751 0.51147 0.0
C210 C 1.0198 0.42087 0.51448 0.0
C211 C 0.9919 0.36712 0.5128 0.0
C212 C 0.16507 0.41456 0.48147 0.0
C213 C 1.09485 0.41696 0.50442 0.0
C214 C 0.2121 0.44104 0.47114 0.0
C215 C 0.24197 0.49432 0.47704 0.0
C216 C 0.14779 0.4421 0.49718 0.0
C217 C 0.2253 0.51991 0.4944 0.0
C218 C 1.07141 0.44597 0.51057 0.0
C219 C 1.01706 0.3396 0.50745 0.0
N220 N 0.17879 0.49366 0.50356 0.0
N221 N 1.06703 0.3648 0.50313 0.0
H222 H 0.5887 0.90347 0.85374 0.0
H223 H 0.36277 0.78468 0.73562 0.0
H224 H 0.56604 0.79008 0.78904 0.0
H225 H 0.39039 0.90787 0.79512 0.0
H226 H 0.42295 0.76981 0.76259 0.0
H227 H 0.50457 0.89139 0.83942 0.0
C228 C 0.5659 0.87589 0.83664 0.0
C229 C 0.58494 0.84899 0.82199 0.0
C230 C 0.41507 0.79937 0.77012 0.0
C231 C 0.48886 0.83447 0.80576 0.0
C232 C 0.38035 0.80741 0.75486 0.0
C233 C 0.37227 0.84765 0.76323 0.0
C234 C 0.44252 0.83276 0.79347 0.0
C235 C 0.39615 0.87663 0.78803 0.0
C236 C 0.5179 0.86886 0.82854 0.0
C237 C 0.5536 0.81309 0.80026 0.0
N238 N 0.43112 0.86932 0.8021 0.0
N239 N 0.50739 0.80725 0.79266 0.0
H240 H 0.93721 0.72943 0.18894 0.0
H241 H 0.73137 0.44839 0.12256 0.0
H242 H 0.96221 0.60037 0.18019 0.0
H243 H 0.72177 0.58445 0.11252 0.0
H244 H 0.80379 0.49846 0.15663 0.0
H245 H 0.847 0.67131 0.17396 0.0
C246 C 0.92369 0.68884 0.18439 0.0
C247 C 0.95779 0.67014 0.18521 0.0
C248 C 0.78525 0.51713 0.14731 0.0
C249 C 0.85466 0.60353 0.16832 0.0
C250 C 0.7438 0.48855 0.12797 0.0
C251 C 0.72134 0.51266 0.11434 0.0
C252 C 0.80425 0.57012 0.15301 0.0
C253 C 0.73894 0.56477 0.12211 0.0
C254 C 0.87217 0.6557 0.17592 0.0
C255 C 0.93769 0.61685 0.17985 0.0
N256 N 0.77985 0.59199 0.14068 0.0
N257 N 0.88765 0.58561 0.1712 0.0
H258 H 0.39487 0.949 0.51976 0.0
H259 H 0.20424 0.68059 0.44159 0.0
H260 H 0.26127 0.91618 0.46822 0.0
H261 H 0.34601 0.71962 0.48668 0.0
H262 H 0.20774 0.75634 0.46473 0.0
H263 H 0.35971 0.85757 0.52222 0.0
C264 C 0.35727 0.92281 0.50968 0.0
C265 C 0.33174 0.94036 0.49297 0.0
C266 C 0.23745 0.74768 0.47009 0.0
C267 C 0.29215 0.83517 0.49502 0.0
C268 C 0.23553 0.70456 0.45683 0.0
C269 C 0.27576 0.69491 0.46165 0.0
C270 C 0.28024 0.78163 0.48799 0.0
C271 C 0.31462 0.72616 0.48208 0.0
C272 C 0.33739 0.87032 0.51092 0.0
C273 C 0.28314 0.90423 0.48051 0.0
N274 N 0.31655 0.7689 0.49405 0.0
N275 N 0.2655 0.8532 0.48119 0.0
H276 H 0.65002 0.32238 0.8201 0.0
H277 H 0.40158 1.05245 0.783 0.0
H278 H 0.49813 0.28829 0.8343 0.0
H279 H 0.55032 0.09166 0.75997 0.0
H280 H 0.44109 0.12887 0.8157 0.0
H281 H 0.61905 0.23026 0.81244 0.0
C282 C 0.61042 0.29549 0.82225 0.0
C283 C 0.57629 0.31302 0.82704 0.0
C284 C 0.46523 0.12016 0.80394 0.0
C285 C 0.54054 0.20779 0.81809 0.0
C286 C 0.4427 1.07638 0.78536 0.0
C287 C 0.47267 1.06664 0.76826 0.0
C288 C 0.51796 0.15445 0.80521 0.0
C289 C 0.52575 0.09877 0.77224 0.0
C290 C 0.59276 0.24292 0.8179 0.0
C291 C 0.52572 0.27658 0.83035 0.0
N292 N 0.54665 0.14184 0.78993 0.0
N293 N 0.50909 0.22566 0.82517 0.0
H294 H 0.53444 1.00163 0.49028 0.0
H295 H 0.70228 0.86334 0.50582 0.0
H296 H 0.69466 1.07361 0.47999 0.0
H297 H 0.53965 0.78213 0.5082 0.0
H298 H 0.69993 0.94206 0.49914 0.0
H299 H 0.53467 0.92213 0.4987 0.0
C300 C 0.56956 1.0008 0.48959 0.0
C301 C 0.61453 1.04479 0.48425 0.0
C302 C 0.66466 0.90725 0.50132 0.0
C303 C 0.61522 0.95369 0.4943 0.0
C304 C 0.66612 0.86235 0.50535 0.0
C305 C 0.62123 0.81636 0.50791 0.0
C306 C 0.61782 0.90641 0.4997 0.0
C307 C 0.57525 0.81702 0.50664 0.0
C308 C 0.56971 0.95534 0.49451 0.0
C309 C 0.65889 1.04104 0.48389 0.0
N310 N 0.57468 0.86121 0.50261 0.0
N311 N 0.65807 0.99674 0.48887 0.0
H312 H 0.78521 0.58736 0.84415 0.0
H313 H 1.08402 0.72614 0.82305 0.0
H314 H 0.86312 0.73202 0.81045 0.0
H315 H 1.01354 0.61126 0.87774 0.0
H316 H 1.00154 0.72154 0.81237 0.0
H317 H 0.86623 0.58845 0.8509 0.0
C318 C 0.81918 0.61925 0.83798 0.0
C319 C 0.8169 0.65974 0.82676 0.0
C320 C 1.00411 0.69714 0.8266 0.0
C321 C 0.91059 0.66104 0.83434 0.0
C322 C 1.05115 0.69949 0.83254 0.0
C323 C 1.05601 0.66919 0.85142 0.0
C324 C 0.96118 0.6636 0.83925 0.0
C325 C 1.01191 0.63567 0.86324 0.0
C326 C 0.86564 0.61992 0.84194 0.0
C327 C 0.86273 0.70002 0.81929 0.0
N328 N 0.9667 0.63374 0.85696 0.0
N329 N 0.9074 0.69957 0.82313 0.0
H330 H 0.3566 0.89333 0.1801 0.0
H331 H 0.65855 1.0553 0.16714 0.0
H332 H 0.43495 0.82654 0.13957 0.0
H333 H 0.57326 0.11438 0.20704 0.0
H334 H 0.5784 0.97329 0.15416 0.0
H335 H 0.43598 0.97526 0.18776 0.0
C336 C 0.39043 0.89571 0.17267 0.0
C337 C 0.38847 0.85225 0.15916 0.0
C338 C 0.57728 1.00436 0.16563 0.0
C339 C 0.48115 0.94762 0.16811 0.0
C340 C 0.62307 1.05141 0.17289 0.0
C341 C 0.62314 0.09207 0.1885 0.0
C342 C 0.53095 0.99779 0.17386 0.0
C343 C 0.57566 1.08422 0.19543 0.0
C344 C 0.4361 0.94291 0.1771 0.0
C345 C 0.43422 0.85867 0.15007 0.0
N346 N 0.53206 1.03841 0.18823 0.0
N347 N 0.47854 0.90518 0.15479 0.0
H348 H 0.581 0.31809 0.45963 0.0
H349 H 0.70607 0.58896 0.55164 0.0
H350 H 0.70608 0.37005 0.52136 0.0
H351 H 0.58457 0.54225 0.48846 0.0
H352 H 0.70835 0.51051 0.53929 0.0
H353 H 0.58337 0.40027 0.46833 0.0
C354 C 0.60923 0.34676 0.4749 0.0
C355 C 0.64337 0.33659 0.48977 0.0
C356 C 0.68127 0.51732 0.52798 0.0
C357 C 0.64606 0.43146 0.49996 0.0
C358 C 0.67982 0.56226 0.53508 0.0
C359 C 0.64471 0.57245 0.52129 0.0
C360 C 0.64722 0.48144 0.50686 0.0
C361 C 0.61243 0.53643 0.49966 0.0
C362 C 0.61049 0.39384 0.47988 0.0
C363 C 0.67892 0.37569 0.50932 0.0
N364 N 0.61418 0.49252 0.49329 0.0
N365 N 0.67915 0.42096 0.51387 0.0
H366 H 0.57896 0.74163 0.84523 0.0
H367 H 0.27276 0.5907 0.81861 0.0
H368 H 0.49155 0.59095 0.8013 0.0
H369 H 0.3616 0.74878 0.85237 0.0
H370 H 0.35185 0.58858 0.8141 0.0
H371 H 0.50031 0.74386 0.84949 0.0
C372 C 0.54328 0.70888 0.83642 0.0
C373 C 0.5424 0.66594 0.82286 0.0
C374 C 0.35423 0.62372 0.82264 0.0
C375 C 0.45105 0.66817 0.82799 0.0
C376 C 0.30899 0.62483 0.82538 0.0
C377 C 0.31053 0.66974 0.83625 0.0
C378 C 0.40177 0.66795 0.83081 0.0
C379 C 0.3586 0.71311 0.84424 0.0
C380 C 0.49816 0.71025 0.83891 0.0
C381 C 0.49454 0.62496 0.81188 0.0
N382 N 0.40214 0.71112 0.84143 0.0
N383 N 0.45105 0.627 0.81479 0.0
H384 H 1.06686 0.6005 0.15345 0.0
H385 H 0.93661 0.30738 0.18967 0.0
H386 H 0.15185 0.52303 0.16697 0.0
H387 H 0.85269 0.38497 0.17447 0.0
H388 H 1.01596 0.38632 0.18322 0.0
H389 H 0.9892 0.52311 0.16217 0.0
C390 C 1.0694 0.5672 0.15808 0.0
C391 C 1.11663 0.5688 0.15921 0.0
C392 C 0.98035 0.3864 0.18152 0.0
C393 C 1.02646 0.47891 0.16958 0.0
C394 C 0.935 0.34134 0.18541 0.0
C395 C 0.88796 0.33972 0.183 0.0
C396 C 0.9789 0.43045 0.17497 0.0
C397 C 0.88813 0.38464 0.17688 0.0
C398 C 1.02471 0.5228 0.16318 0.0
C399 C 1.11669 0.524 0.16567 0.0
N400 N 0.93263 0.42789 0.17306 0.0
N401 N 1.0726 0.48121 0.17055 0.0
H402 H 0.17008 0.73227 0.07163 0.0
H403 H 0.26324 0.73252 0.92683 0.0
H404 H 0.2946 0.70495 0.06057 0.0
H405 H 1.10309 0.64909 0.93865 0.0
H406 H 0.28362 0.74392 0.97576 0.0
H407 H 0.15359 0.72583 0.02233 0.0
C408 C 0.19444 0.72584 0.05884 0.0
C409 C 0.23364 0.719 0.07009 0.0
C410 C 0.2441 0.72342 0.96742 0.0
C411 C 0.21557 0.71241 0.01406 0.0
C412 C 0.23224 0.71636 0.93943 0.0
C413 C 0.18112 0.69006 0.92809 0.0
C414 C 0.20473 0.70533 0.98434 0.0
C415 C 0.14303 0.6711 0.94601 0.0
C416 C 0.18481 0.7218 0.03082 0.0
C417 C 0.26382 0.71019 0.05263 0.0
N418 N 0.15559 0.67961 0.97311 0.0
N419 N 0.2544 0.70746 0.02546 0.0
H420 H 0.59951 0.19858 0.3885 0.0
H421 H 0.79373 0.22897 0.2806 0.0
H422 H 0.75585 0.24513 0.41335 0.0
H423 H 0.64809 0.21744 0.26208 0.0
H424 H 0.7848 0.23937 0.32903 0.0
H425 H 0.61947 0.20792 0.34212 0.0
C426 C 0.63825 0.21097 0.38421 0.0
C427 C 0.67594 0.22071 0.40494 0.0
C428 C 0.75526 0.23543 0.31432 0.0
C429 C 0.69929 0.23125 0.35124 0.0
C430 C 0.76053 0.22987 0.28671 0.0
C431 C 0.72138 0.22189 0.26731 0.0
C432 C 0.71045 0.23276 0.32244 0.0
C433 C 0.67893 0.22288 0.27633 0.0
C434 C 0.64974 0.21654 0.3576 0.0
C435 C 0.72561 0.23723 0.39801 0.0
N436 N 0.6744 0.22755 0.30309 0.0
N437 N 0.73576 0.24136 0.37168 0.0
H438 H 0.61603 0.60072 0.73075 0.0
H439 H 0.69529 0.7609 0.60388 0.0
H440 H 0.708 0.76614 0.7415 0.0
H441 H 0.5767 0.6025 0.60117 0.0
H442 H 0.70066 0.76739 0.65359 0.0
H443 H 0.60221 0.60354 0.68293 0.0
C444 C 0.63345 0.63788 0.72302 0.0
C445 C 0.66371 0.68325 0.74023 0.0
C446 C 0.67303 0.73152 0.64204 0.0
C447 C 0.64801 0.68683 0.68472 0.0
C448 C 0.66979 0.72787 0.61372 0.0
C449 C 0.63596 0.68087 0.59841 0.0
C450 C 0.64222 0.68778 0.65495 0.0
C451 C 0.60392 0.63922 0.61215 0.0
C452 C 0.62526 0.63949 0.69557 0.0
C453 C 0.6845 0.73024 0.72893 0.0
N454 N 0.60821 0.64355 0.63946 0.0
N455 N 0.67682 0.73084 0.70175 0.0
H456 H 0.5102 0.15932 0.54867 0.0
H457 H 0.38763 1.00429 0.64841 0.0
H458 H 0.63211 0.12946 0.56944 0.0
H459 H 0.53972 1.05304 0.68319 0.0
H460 H 0.42273 1.04167 0.60716 0.0
H461 H 0.46765 0.11576 0.58676 0.0
C462 C 0.52794 0.14334 0.56114 0.0
C463 C 0.57454 0.14749 0.55557 0.0
C464 C 0.44848 1.04465 0.6239 0.0
C465 C 0.52551 0.09682 0.59915 0.0
C466 C 0.42835 1.02257 0.64724 0.0
C467 C 0.46092 1.0262 0.66928 0.0
C468 C 0.50154 1.07034 0.62267 0.0
C469 C 0.51342 1.05021 0.66677 0.0
C470 C 0.50327 0.11796 0.58277 0.0
C471 C 0.59617 0.12705 0.57288 0.0
N472 N 0.53211 1.0714 0.64391 0.0
N473 N 0.57153 0.10274 0.59395 0.0
H474 H 0.59399 0.58515 0.89667 0.0
H475 H 0.74415 0.54821 0.02128 0.0
H476 H 0.75807 0.66795 0.91023 0.0
H477 H 0.58061 0.47912 0.00947 0.0
H478 H 0.75126 0.59427 0.9817 0.0
H479 H 0.58957 0.54918 0.93918 0.0
C480 C 0.6292 0.59621 0.90882 0.0
C481 C 0.6765 0.62938 0.89987 0.0
C482 C 0.71387 0.56911 0.98783 0.0
C483 C 0.67177 0.58752 0.94862 0.0
C484 C 0.70973 0.54282 0.01043 0.0
C485 C 0.66163 0.5095 0.01868 0.0
C486 C 0.66959 0.562 0.97334 0.0
C487 C 0.6184 0.50361 0.00364 0.0
C488 C 0.62665 0.57554 0.93312 0.0
C489 C 0.72085 0.64267 0.9165 0.0
N490 N 0.62344 0.52951 0.98175 0.0
N491 N 0.71745 0.62117 0.94002 0.0
H492 H 0.33412 0.68549 0.23092 0.0
H493 H 0.20449 0.63139 0.36894 0.0
H494 H 0.19431 0.68546 0.24246 0.0
H495 H 0.34572 0.6346 0.35775 0.0
H496 H 0.19777 0.64671 0.32196 0.0
H497 H 0.33727 0.66383 0.27676 0.0
C498 C 0.3041 0.68112 0.2431 0.0
C499 C 0.26391 0.68748 0.2328 0.0
C500 C 0.23011 0.64381 0.32969 0.0
C501 C 0.26726 0.66229 0.28541 0.0
C502 C 0.23401 0.63513 0.35651 0.0
C503 C 0.27603 0.63225 0.3673 0.0
C504 C 0.26855 0.64975 0.3135 0.0
C505 C 0.31265 0.63639 0.35021 0.0
C506 C 0.3059 0.66857 0.2693 0.0
C507 C 0.22611 0.68114 0.24957 0.0
N508 N 0.30826 0.64534 0.32418 0.0
N509 N 0.22873 0.66888 0.27507 0.0
loop_
_geom_bond_atom_site_label_1
_geom_bond_atom_site_label_2
_geom_bond_distance
_geom_bond_site_symmetry_2
_ccdc_geom_bond_type
Tb0 C9 2.764 1_455 S
Tb0 O10 2.325 1_455 S
Tb0 O13 2.303 . S
Tb0 O17 2.322 . S
Tb0 O18 2.349 . S
Tb0 O21 2.415 1_455 S
Tb0 O22 2.399 1_455 S
Tb1 O11 2.322 . S
Tb1 O12 2.349 . S
Tb1 O14 2.415 . S
Tb1 O15 2.399 . S
Tb1 O16 2.325 . S
Tb1 O19 2.303 . S
Tb1 C30 2.764 . S
C2 O18 1.261 . S
C2 O19 1.257 . S
C3 C6 1.358 . S
C3 C7 1.332 . S
C3 C9 1.504 . S
C4 C5 1.373 . S
C4 C8 1.308 . S
C5 C4 1.373 . S
C5 C6 1.429 . S
C5 H32 0.932 . S
C6 C3 1.358 . S
C6 C5 1.429 . S
C6 H33 0.930 . S
C7 C3 1.332 . S
C7 C8 1.394 . S
C7 H34 0.932 . S
C8 C4 1.308 . S
C8 C7 1.394 . S
C8 H35 0.929 . S
C9 Tb0 2.764 1_655 S
C9 C3 1.504 . S
C9 O21 1.239 . S
C9 O22 1.263 . S
O10 Tb0 2.325 1_655 S
O10 C20 1.236 . S
O11 Tb1 2.322 . S
O11 C20 1.257 1_455 S
O12 Tb1 2.349 . S
O12 C23 1.261 . S
O13 Tb0 2.303 . S
O13 C23 1.257 . S
O14 Tb1 2.415 . S
O14 C30 1.239 . S
O15 Tb1 2.399 . S
O15 C30 1.263 . S
O16 Tb1 2.325 . S
O16 C31 1.236 . S
O17 Tb0 2.322 . S
O17 C31 1.257 . S
O18 Tb0 2.349 . S
O18 C2 1.261 . S
O19 Tb1 2.303 . S
O19 C2 1.257 . S
C20 O10 1.236 . S
C20 O11 1.257 1_655 S
O21 Tb0 2.415 1_655 S
O21 C9 1.239 . S
O22 Tb0 2.399 1_655 S
O22 C9 1.263 . S
C23 O12 1.261 . S
C23 O13 1.257 . S
C24 C27 1.358 . S
C24 C28 1.332 . S
C24 C30 1.504 . S
C25 C26 1.373 . S
C25 C29 1.308 . S
C26 C25 1.373 . S
C26 C27 1.429 . S
C26 H36 0.932 . S
C27 C24 1.358 . S
C27 C26 1.429 . S
C27 H37 0.930 . S
C28 C24 1.332 . S
C28 C29 1.394 . S
C28 H38 0.932 . S
C29 C25 1.308 . S
C29 C28 1.394 . S
C29 H39 0.929 . S
C30 Tb1 2.764 . S
C30 O14 1.239 . S
C30 O15 1.263 . S
C30 C24 1.504 . S
C31 O16 1.236 . S
C31 O17 1.257 . S
H32 C5 0.932 . S
H33 C6 0.930 . S
H34 C7 0.932 . S
H35 C8 0.929 . S
H36 C26 0.932 . S
H37 C27 0.930 . S
H38 C28 0.932 . S
H39 C29 0.929 . S
Tb40 C49 2.764 1_545 S
Tb40 O50 2.325 1_545 S
Tb40 O53 2.303 . S
Tb40 O57 2.322 . S
Tb40 O58 2.349 . S
Tb40 O61 2.415 1_545 S
Tb40 O62 2.399 1_545 S
Tb41 O51 2.322 . S
Tb41 O52 2.349 . S
Tb41 O54 2.415 . S
Tb41 O55 2.399 . S
Tb41 O56 2.325 . S
Tb41 O59 2.303 . S
Tb41 C70 2.764 . S
C42 O58 1.261 . S
C42 O59 1.257 . S
C43 C46 1.358 . S
C43 C47 1.332 . S
C43 C49 1.504 . S
C44 C45 1.373 . S
C44 C48 1.308 . S
C45 C44 1.373 . S
C45 C46 1.429 . S
C45 H72 0.932 . S
C46 C43 1.358 . S
C46 C45 1.429 . S
C46 H73 0.930 . S
C47 C43 1.332 . S
C47 C48 1.394 . S
C47 H74 0.932 . S
C48 C44 1.308 . S
C48 C47 1.394 . S
C48 H75 0.929 . S
C49 Tb40 2.764 1_565 S
C49 C43 1.504 . S
C49 O61 1.239 . S
C49 O62 1.263 . S
O50 Tb40 2.325 1_565 S
O50 C60 1.236 . S
O51 Tb41 2.322 . S
O51 C60 1.257 1_545 S
O52 Tb41 2.349 . S
O52 C63 1.261 . S
O53 Tb40 2.303 . S
O53 C63 1.257 . S
O54 Tb41 2.415 . S
O54 C70 1.239 . S
O55 Tb41 2.399 . S
O55 C70 1.263 . S
O56 Tb41 2.325 . S
O56 C71 1.236 . S
O57 Tb40 2.322 . S
O57 C71 1.257 . S
O58 Tb40 2.349 . S
O58 C42 1.261 . S
O59 Tb41 2.303 . S
O59 C42 1.257 . S
C60 O50 1.236 . S
C60 O51 1.257 1_565 S
O61 Tb40 2.415 1_565 S
O61 C49 1.239 . S
O62 Tb40 2.399 1_565 S
O62 C49 1.263 . S
C63 O52 1.261 . S
C63 O53 1.257 . S
C64 C67 1.358 . S
C64 C68 1.332 . S
C64 C70 1.504 . S
C65 C66 1.373 . S
C65 C69 1.308 . S
C66 C65 1.373 . S
C66 C67 1.429 . S
C66 H76 0.932 . S
C67 C64 1.358 . S
C67 C66 1.429 . S
C67 H77 0.930 . S
C68 C64 1.332 . S
C68 C69 1.394 . S
C68 H78 0.932 . S
C69 C65 1.308 . S
C69 C68 1.394 . S
C69 H79 0.929 . S
C70 Tb41 2.764 . S
C70 O54 1.239 . S
C70 O55 1.263 . S
C70 C64 1.504 . S
C71 O56 1.236 . S
C71 O57 1.257 . S
H72 C45 0.932 . S
H73 C46 0.930 . S
H74 C47 0.932 . S
H75 C48 0.929 . S
H76 C66 0.932 . S
H77 C67 0.930 . S
H78 C68 0.932 . S
H79 C69 0.929 . S
Tb80 C89 2.764 . S
Tb80 O90 2.325 . S
Tb80 O93 2.303 . S
Tb80 O97 2.322 . S
Tb80 O98 2.349 . S
Tb80 O101 2.415 . S
Tb80 O102 2.399 . S
Tb81 O91 2.322 . S
Tb81 O92 2.349 . S
Tb81 O94 2.415 . S
Tb81 O95 2.399 . S
Tb81 O96 2.325 . S
Tb81 O99 2.303 . S
Tb81 C110 2.764 . S
C82 O98 1.261 . S
C82 O99 1.257 . S
C83 C86 1.358 . S
C83 C87 1.332 . S
C83 C89 1.504 . S
C84 C85 1.373 . S
C84 C88 1.308 . S
C85 C84 1.373 . S
C85 C86 1.429 . S
C85 H112 0.932 . S
C86 C83 1.358 . S
C86 C85 1.429 . S
C86 H113 0.930 . S
C87 C83 1.332 . S
C87 C88 1.394 . S
C87 H114 0.932 . S
C88 C84 1.308 . S
C88 C87 1.394 . S
C88 H115 0.929 . S
C89 Tb80 2.764 . S
C89 C83 1.504 . S
C89 O101 1.239 . S
C89 O102 1.263 . S
O90 Tb80 2.325 . S
O90 C100 1.236 . S
O91 Tb81 2.322 . S
O91 C100 1.257 . S
O92 Tb81 2.349 . S
O92 C103 1.261 . S
O93 Tb80 2.303 . S
O93 C103 1.257 . S
O94 Tb81 2.415 . S
O94 C110 1.239 . S
O95 Tb81 2.399 . S
O95 C110 1.263 . S
O96 Tb81 2.325 . S
O96 C111 1.236 . S
O97 Tb80 2.322 . S
O97 C111 1.257 . S
O98 Tb80 2.349 . S
O98 C82 1.261 . S
O99 Tb81 2.303 . S
O99 C82 1.257 . S
C100 O90 1.236 . S
C100 O91 1.257 . S
O101 Tb80 2.415 . S
O101 C89 1.239 . S
O102 Tb80 2.399 . S
O102 C89 1.263 . S
C103 O92 1.261 . S
C103 O93 1.257 . S
C104 C107 1.358 . S
C104 C108 1.332 . S
C104 C110 1.504 . S
C105 C106 1.373 . S
C105 C109 1.308 . S
C106 C105 1.373 . S
C106 C107 1.429 . S
C106 H116 0.932 . S
C107 C104 1.358 . S
C107 C106 1.429 . S
C107 H117 0.930 . S
C108 C104 1.332 . S
C108 C109 1.394 . S
C108 H118 0.932 . S
C109 C105 1.308 . S
C109 C108 1.394 . S
C109 H119 0.929 . S
C110 Tb81 2.764 . S
C110 O94 1.239 . S
C110 O95 1.263 . S
C110 C104 1.504 . S
C111 O96 1.236 . S
C111 O97 1.257 . S
H112 C85 0.932 . S
H113 C86 0.930 . S
H114 C87 0.932 . S
H115 C88 0.929 . S
H116 C106 0.932 . S
H117 C107 0.930 . S
H118 C108 0.932 . S
H119 C109 0.929 . S
H120 C123 0.929 . S
H121 C126 0.929 . S
H122 C128 0.930 . S
C123 H120 0.929 . S
C123 C124 1.398 . S
C123 C125 1.396 . S
C124 C123 1.398 . S
C124 C128 1.407 . S
C125 C123 1.396 . S
C125 C126 1.394 . S
C126 H121 0.929 . S
C126 C125 1.394 . S
C126 C127 1.382 . S
C127 C126 1.382 . S
C127 C128 1.392 . S
C127 N129 1.420 . S
C128 H122 0.930 . S
C128 C124 1.407 . S
C128 C127 1.392 . S
N129 C127 1.420 . S
N129 C130 1.244 . S
C130 N129 1.244 . S
H131 C134 0.929 . S
H132 C137 0.929 . S
H133 C139 0.930 . S
C134 H131 0.929 . S
C134 C135 1.398 . S
C134 C136 1.396 . S
C135 C134 1.398 . S
C135 C139 1.407 . S
C136 C134 1.396 . S
C136 C137 1.394 . S
C137 H132 0.929 . S
C137 C136 1.394 . S
C137 C138 1.382 . S
C138 C137 1.382 . S
C138 C139 1.392 . S
C138 N140 1.420 . S
C139 H133 0.930 . S
C139 C135 1.407 . S
C139 C138 1.392 . S
N140 C138 1.420 . S
N140 C141 1.244 . S
C141 N140 1.244 . S
H142 C145 0.929 . S
H143 C148 0.929 . S
H144 C150 0.930 . S
C145 H142 0.929 . S
C145 C146 1.398 . S
C145 C147 1.396 . S
C146 C145 1.398 . S
C146 C150 1.407 . S
C147 C145 1.396 . S
C147 C148 1.394 . S
C148 H143 0.929 . S
C148 C147 1.394 . S
C148 C149 1.382 . S
C149 C148 1.382 . S
C149 C150 1.392 . S
C149 N151 1.420 . S
C150 H144 0.930 . S
C150 C146 1.407 . S
C150 C149 1.392 . S
N151 C149 1.420 . S
N151 C152 1.244 . S
C152 N151 1.244 . S
H153 C156 0.929 . S
H154 C159 0.929 . S
H155 C161 0.930 . S
C156 H153 0.929 . S
C156 C157 1.398 . S
C156 C158 1.396 . S
C157 C156 1.398 . S
C157 C161 1.407 . S
C158 C156 1.396 . S
C158 C159 1.394 1_455 S
C159 H154 0.929 . S
C159 C158 1.394 1_655 S
C159 C160 1.382 . S
C160 C159 1.382 . S
C160 C161 1.392 1_655 S
C160 N162 1.420 . S
C161 H155 0.930 . S
C161 C157 1.407 . S
C161 C160 1.392 1_455 S
N162 C160 1.420 . S
N162 C163 1.244 . S
C163 N162 1.244 . S
H164 C167 0.929 . S
H165 C170 0.929 1_565 S
H166 C172 0.930 . S
C167 H164 0.929 . S
C167 C168 1.398 . S
C167 C169 1.396 . S
C168 C167 1.398 . S
C168 C172 1.407 . S
C169 C167 1.396 . S
C169 C170 1.394 . S
C170 H165 0.929 1_545 S
C170 C169 1.394 . S
C170 C171 1.382 . S
C171 C170 1.382 . S
C171 C172 1.392 . S
C171 N173 1.420 1_545 S
C172 H166 0.930 . S
C172 C168 1.407 . S
C172 C171 1.392 . S
N173 C171 1.420 1_565 S
N173 C174 1.244 . S
C174 N173 1.244 . S
H175 C178 0.929 . S
H176 C181 0.929 . S
H177 C183 0.930 . S
C178 H175 0.929 . S
C178 C179 1.398 . S
C178 C180 1.396 . S
C179 C178 1.398 . S
C179 C183 1.407 . S
C180 C178 1.396 . S
C180 C181 1.394 . S
C181 H176 0.929 . S
C181 C180 1.394 . S
C181 C182 1.382 . S
C182 C181 1.382 . S
C182 C183 1.392 . S
C182 N184 1.420 . S
C183 H177 0.930 . S
C183 C179 1.407 . S
C183 C182 1.392 . S
N184 C182 1.420 . S
N184 C185 1.244 . S
C185 N184 1.244 . S
H186 C192 0.930 . S
H187 C196 0.930 . S
H188 C201 0.929 . S
H189 C199 0.929 . S
H190 C194 0.929 . S
H191 C200 0.929 . S
C192 H186 0.930 . S
C192 C193 1.367 . S
C192 C200 1.378 . S
C193 C192 1.367 . S
C193 C201 1.433 . S
C194 H190 0.929 . S
C194 C196 1.378 . S
C194 C198 1.350 . S
C195 C198 1.463 . S
C195 C200 1.350 . S
C195 N203 1.427 . S
C196 H187 0.930 . S
C196 C194 1.378 . S
C196 C197 1.367 . S
C197 C196 1.367 . S
C197 C199 1.433 . S
C198 C194 1.350 . S
C198 C195 1.463 . S
C198 N202 1.427 . S
C199 H189 0.929 . S
C199 C197 1.433 . S
C199 N202 1.384 . S
C200 H191 0.929 . S
C200 C192 1.378 . S
C200 C195 1.350 . S
C201 H188 0.929 . S
C201 C193 1.433 . S
C201 N203 1.384 . S
N202 C198 1.427 . S
N202 C199 1.384 . S
N203 C195 1.427 . S
N203 C201 1.384 . S
H204 C210 0.930 . S
H205 C214 0.930 . S
H206 C219 0.929 . S
H207 C217 0.929 . S
H208 C212 0.929 . S
H209 C218 0.929 . S
C210 H204 0.930 . S
C210 C211 1.367 . S
C210 C218 1.378 . S
C211 C210 1.367 . S
C211 C219 1.433 . S
C212 H208 0.929 . S
C212 C214 1.378 . S
C212 C216 1.350 . S
C213 C216 1.463 . S
C213 C218 1.350 . S
C213 N221 1.427 . S
C214 H205 0.930 . S
C214 C212 1.378 . S
C214 C215 1.367 . S
C215 C214 1.367 . S
C215 C217 1.433 . S
C216 C212 1.350 . S
C216 C213 1.463 . S
C216 N220 1.427 . S
C217 H207 0.929 . S
C217 C215 1.433 . S
C217 N220 1.384 . S
C218 H209 0.929 . S
C218 C210 1.378 . S
C218 C213 1.350 . S
C219 H206 0.929 . S
C219 C211 1.433 . S
C219 N221 1.384 . S
N220 C216 1.427 . S
N220 C217 1.384 . S
N221 C213 1.427 . S
N221 C219 1.384 . S
H222 C228 0.930 . S
H223 C232 0.930 . S
H224 C237 0.929 . S
H225 C235 0.929 . S
H226 C230 0.929 . S
H227 C236 0.929 . S
C228 H222 0.930 . S
C228 C229 1.367 . S
C228 C236 1.378 . S
C229 C228 1.367 . S
C229 C237 1.433 . S
C230 H226 0.929 . S
C230 C232 1.378 . S
C230 C234 1.350 . S
C231 C234 1.463 . S
C231 C236 1.350 . S
C231 N239 1.427 . S
C232 H223 0.930 . S
C232 C230 1.378 . S
C232 C233 1.367 . S
C233 C232 1.367 . S
C233 C235 1.433 . S
C234 C230 1.350 . S
C234 C231 1.463 . S
C234 N238 1.427 . S
C235 H225 0.929 . S
C235 C233 1.433 . S
C235 N238 1.384 . S
C236 H227 0.929 . S
C236 C228 1.378 . S
C236 C231 1.350 . S
C237 H224 0.929 . S
C237 C229 1.433 . S
C237 N239 1.384 . S
N238 C234 1.427 . S
N238 C235 1.384 . S
N239 C231 1.427 . S
N239 C237 1.384 . S
H240 C246 0.930 . S
H241 C250 0.930 . S
H242 C255 0.929 . S
H243 C253 0.929 . S
H244 C248 0.929 . S
H245 C254 0.929 . S
C246 H240 0.930 . S
C246 C247 1.367 . S
C246 C254 1.378 . S
C247 C246 1.367 . S
C247 C255 1.433 . S
C248 H244 0.929 . S
C248 C250 1.378 . S
C248 C252 1.350 . S
C249 C252 1.463 . S
C249 C254 1.350 . S
C249 N257 1.427 . S
C250 H241 0.930 . S
C250 C248 1.378 . S
C250 C251 1.367 . S
C251 C250 1.367 . S
C251 C253 1.433 . S
C252 C248 1.350 . S
C252 C249 1.463 . S
C252 N256 1.427 . S
C253 H243 0.929 . S
C253 C251 1.433 . S
C253 N256 1.384 . S
C254 H245 0.929 . S
C254 C246 1.378 . S
C254 C249 1.350 . S
C255 H242 0.929 . S
C255 C247 1.433 . S
C255 N257 1.384 . S
N256 C252 1.427 . S
N256 C253 1.384 . S
N257 C249 1.427 . S
N257 C255 1.384 . S
H258 C264 0.930 . S
H259 C268 0.930 . S
H260 C273 0.929 . S
H261 C271 0.929 . S
H262 C266 0.929 . S
H263 C272 0.929 . S
C264 H258 0.930 . S
C264 C265 1.367 . S
C264 C272 1.378 . S
C265 C264 1.367 . S
C265 C273 1.433 . S
C266 H262 0.929 . S
C266 C268 1.378 . S
C266 C270 1.350 . S
C267 C270 1.463 . S
C267 C272 1.350 . S
C267 N275 1.427 . S
C268 H259 0.930 . S
C268 C266 1.378 . S
C268 C269 1.367 . S
C269 C268 1.367 . S
C269 C271 1.433 . S
C270 C266 1.350 . S
C270 C267 1.463 . S
C270 N274 1.427 . S
C271 H261 0.929 . S
C271 C269 1.433 . S
C271 N274 1.384 . S
C272 H263 0.929 . S
C272 C264 1.378 . S
C272 C267 1.350 . S
C273 H260 0.929 . S
C273 C265 1.433 . S
C273 N275 1.384 . S
N274 C270 1.427 . S
N274 C271 1.384 . S
N275 C267 1.427 . S
N275 C273 1.384 . S
H276 C282 0.930 . S
H277 C286 0.930 . S
H278 C291 0.929 . S
H279 C289 0.929 . S
H280 C284 0.929 . S
H281 C290 0.929 . S
C282 H276 0.930 . S
C282 C283 1.367 . S
C282 C290 1.378 . S
C283 C282 1.367 . S
C283 C291 1.433 . S
C284 H280 0.929 . S
C284 C286 1.378 . S
C284 C288 1.350 . S
C285 C288 1.463 . S
C285 C290 1.350 . S
C285 N293 1.427 . S
C286 H277 0.930 . S
C286 C284 1.378 . S
C286 C287 1.367 . S
C287 C286 1.367 . S
C287 C289 1.433 . S
C288 C284 1.350 . S
C288 C285 1.463 . S
C288 N292 1.427 . S
C289 H279 0.929 . S
C289 C287 1.433 . S
C289 N292 1.384 . S
C290 H281 0.929 . S
C290 C282 1.378 . S
C290 C285 1.350 . S
C291 H278 0.929 . S
C291 C283 1.433 . S
C291 N293 1.384 . S
N292 C288 1.427 . S
N292 C289 1.384 . S
N293 C285 1.427 . S
N293 C291 1.384 . S
H294 C300 0.930 . S
H295 C304 0.930 . S
H296 C309 0.929 . S
H297 C307 0.929 . S
H298 C302 0.929 . S
H299 C308 0.929 . S
C300 H294 0.930 . S
C300 C301 1.367 . S
C300 C308 1.378 . S
C301 C300 1.367 . S
C301 C309 1.433 . S
C302 H298 0.929 . S
C302 C304 1.378 . S
C302 C306 1.350 . S
C303 C306 1.463 . S
C303 C308 1.350 . S
C303 N311 1.427 . S
C304 H295 0.930 . S
C304 C302 1.378 . S
C304 C305 1.367 . S
C305 C304 1.367 . S
C305 C307 1.433 . S
C306 C302 1.350 . S
C306 C303 1.463 . S
C306 N310 1.427 . S
C307 H297 0.929 . S
C307 C305 1.433 . S
C307 N310 1.384 . S
C308 H299 0.929 . S
C308 C300 1.378 . S
C308 C303 1.350 . S
C309 H296 0.929 . S
C309 C301 1.433 . S
C309 N311 1.384 . S
N310 C306 1.427 . S
N310 C307 1.384 . S
N311 C303 1.427 . S
N311 C309 1.384 . S
H312 C318 0.930 . S
H313 C322 0.930 . S
H314 C327 0.929 . S
H315 C325 0.929 . S
H316 C320 0.929 . S
H317 C326 0.929 . S
C318 H312 0.930 . S
C318 C319 1.367 . S
C318 C326 1.378 . S
C319 C318 1.367 . S
C319 C327 1.433 . S
C320 H316 0.929 . S
C320 C322 1.378 . S
C320 C324 1.350 . S
C321 C324 1.463 . S
C321 C326 1.350 . S
C321 N329 1.427 . S
C322 H313 0.930 . S
C322 C320 1.378 . S
C322 C323 1.367 . S
C323 C322 1.367 . S
C323 C325 1.433 . S
C324 C320 1.350 . S
C324 C321 1.463 . S
C324 N328 1.427 . S
C325 H315 0.929 . S
C325 C323 1.433 . S
C325 N328 1.384 . S
C326 H317 0.929 . S
C326 C318 1.378 . S
C326 C321 1.350 . S
C327 H314 0.929 . S
C327 C319 1.433 . S
C327 N329 1.384 . S
N328 C324 1.427 . S
N328 C325 1.384 . S
N329 C321 1.427 . S
N329 C327 1.384 . S
H330 C336 0.930 . S
H331 C340 0.930 . S
H332 C345 0.929 . S
H333 C343 0.929 . S
H334 C338 0.929 . S
H335 C344 0.929 . S
C336 H330 0.930 . S
C336 C337 1.367 . S
C336 C344 1.378 . S
C337 C336 1.367 . S
C337 C345 1.433 . S
C338 H334 0.929 . S
C338 C340 1.378 . S
C338 C342 1.350 . S
C339 C342 1.463 . S
C339 C344 1.350 . S
C339 N347 1.427 . S
C340 H331 0.930 . S
C340 C338 1.378 . S
C340 C341 1.367 . S
C341 C340 1.367 . S
C341 C343 1.433 . S
C342 C338 1.350 . S
C342 C339 1.463 . S
C342 N346 1.427 . S
C343 H333 0.929 . S
C343 C341 1.433 . S
C343 N346 1.384 . S
C344 H335 0.929 . S
C344 C336 1.378 . S
C344 C339 1.350 . S
C345 H332 0.929 . S
C345 C337 1.433 . S
C345 N347 1.384 . S
N346 C342 1.427 . S
N346 C343 1.384 . S
N347 C339 1.427 . S
N347 C345 1.384 . S
H348 C354 0.930 . S
H349 C358 0.930 . S
H350 C363 0.929 . S
H351 C361 0.929 . S
H352 C356 0.929 . S
H353 C362 0.929 . S
C354 H348 0.930 . S
C354 C355 1.367 . S
C354 C362 1.378 . S
C355 C354 1.367 . S
C355 C363 1.433 . S
C356 H352 0.929 . S
C356 C358 1.378 . S
C356 C360 1.350 . S
C357 C360 1.463 . S
C357 C362 1.350 . S
C357 N365 1.427 . S
C358 H349 0.930 . S
C358 C356 1.378 . S
C358 C359 1.367 . S
C359 C358 1.367 . S
C359 C361 1.433 . S
C360 C356 1.350 . S
C360 C357 1.463 . S
C360 N364 1.427 . S
C361 H351 0.929 . S
C361 C359 1.433 . S
C361 N364 1.384 . S
C362 H353 0.929 . S
C362 C354 1.378 . S
C362 C357 1.350 . S
C363 H350 0.929 . S
C363 C355 1.433 . S
C363 N365 1.384 . S
N364 C360 1.427 . S
N364 C361 1.384 . S
N365 C357 1.427 . S
N365 C363 1.384 . S
H366 C372 0.930 . S
H367 C376 0.930 . S
H368 C381 0.929 . S
H369 C379 0.929 . S
H370 C374 0.929 . S
H371 C380 0.929 . S
C372 H366 0.930 . S
C372 C373 1.367 . S
C372 C380 1.378 . S
C373 C372 1.367 . S
C373 C381 1.433 . S
C374 H370 0.929 . S
C374 C376 1.378 . S
C374 C378 1.350 . S
C375 C378 1.463 . S
C375 C380 1.350 . S
C375 N383 1.427 . S
C376 H367 0.930 . S
C376 C374 1.378 . S
C376 C377 1.367 . S
C377 C376 1.367 . S
C377 C379 1.433 . S
C378 C374 1.350 . S
C378 C375 1.463 . S
C378 N382 1.427 . S
C379 H369 0.929 . S
C379 C377 1.433 . S
C379 N382 1.384 . S
C380 H371 0.929 . S
C380 C372 1.378 . S
C380 C375 1.350 . S
C381 H368 0.929 . S
C381 C373 1.433 . S
C381 N383 1.384 . S
N382 C378 1.427 . S
N382 C379 1.384 . S
N383 C375 1.427 . S
N383 C381 1.384 . S
H384 C390 0.930 . S
H385 C394 0.930 . S
H386 C399 0.929 . S
H387 C397 0.929 . S
H388 C392 0.929 . S
H389 C398 0.929 . S
C390 H384 0.930 . S
C390 C391 1.367 . S
C390 C398 1.378 . S
C391 C390 1.367 . S
C391 C399 1.433 . S
C392 H388 0.929 . S
C392 C394 1.378 . S
C392 C396 1.350 . S
C393 C396 1.463 . S
C393 C398 1.350 . S
C393 N401 1.427 . S
C394 H385 0.930 . S
C394 C392 1.378 . S
C394 C395 1.367 . S
C395 C394 1.367 . S
C395 C397 1.433 . S
C396 C392 1.350 . S
C396 C393 1.463 . S
C396 N400 1.427 . S
C397 H387 0.929 . S
C397 C395 1.433 . S
C397 N400 1.384 . S
C398 H389 0.929 . S
C398 C390 1.378 . S
C398 C393 1.350 . S
C399 H386 0.929 . S
C399 C391 1.433 . S
C399 N401 1.384 . S
N400 C396 1.427 . S
N400 C397 1.384 . S
N401 C393 1.427 . S
N401 C399 1.384 . S
H402 C408 0.930 1_655 S
H403 C412 0.930 . S
H404 C417 0.929 . S
H405 C415 0.929 1_655 S
H406 C410 0.929 1_554 S
H407 C416 0.929 1_655 S
C408 H402 0.930 1_455 S
C408 C409 1.367 . S
C408 C416 1.378 . S
C409 C408 1.367 . S
C409 C417 1.433 . S
C410 H406 0.929 1_556 S
C410 C412 1.378 . S
C410 C414 1.350 . S
C411 C414 1.463 1_554 S
C411 C416 1.350 . S
C411 N419 1.427 . S
C412 H403 0.930 . S
C412 C410 1.378 . S
C412 C413 1.367 . S
C413 C412 1.367 . S
C413 C415 1.433 . S
C414 C410 1.350 . S
C414 C411 1.463 1_556 S
C414 N418 1.427 . S
C415 H405 0.929 1_455 S
C415 C413 1.433 . S
C415 N418 1.384 . S
C416 H407 0.929 1_455 S
C416 C408 1.378 . S
C416 C411 1.350 . S
C417 H404 0.929 . S
C417 C409 1.433 . S
C417 N419 1.384 . S
N418 C414 1.427 . S
N418 C415 1.384 . S
N419 C411 1.427 . S
N419 C417 1.384 . S
H420 C426 0.930 . S
H421 C430 0.930 . S
H422 C435 0.929 . S
H423 C433 0.929 . S
H424 C428 0.929 . S
H425 C434 0.929 . S
C426 H420 0.930 . S
C426 C427 1.367 . S
C426 C434 1.378 . S
C427 C426 1.367 . S
C427 C435 1.433 . S
C428 H424 0.929 . S
C428 C430 1.378 . S
C428 C432 1.350 . S
C429 C432 1.463 . S
C429 C434 1.350 . S
C429 N437 1.427 . S
C430 H421 0.930 . S
C430 C428 1.378 . S
C430 C431 1.367 . S
C431 C430 1.367 . S
C431 C433 1.433 . S
C432 C428 1.350 . S
C432 C429 1.463 . S
C432 N436 1.427 . S
C433 H423 0.929 . S
C433 C431 1.433 . S
C433 N436 1.384 . S
C434 H425 0.929 . S
C434 C426 1.378 . S
C434 C429 1.350 . S
C435 H422 0.929 . S
C435 C427 1.433 . S
C435 N437 1.384 . S
N436 C432 1.427 . S
N436 C433 1.384 . S
N437 C429 1.427 . S
N437 C435 1.384 . S
H438 C444 0.930 . S
H439 C448 0.930 . S
H440 C453 0.929 . S
H441 C451 0.929 . S
H442 C446 0.929 . S
H443 C452 0.929 . S
C444 H438 0.930 . S
C444 C445 1.367 . S
C444 C452 1.378 . S
C445 C444 1.367 . S
C445 C453 1.433 . S
C446 H442 0.929 . S
C446 C448 1.378 . S
C446 C450 1.350 . S
C447 C450 1.463 . S
C447 C452 1.350 . S
C447 N455 1.427 . S
C448 H439 0.930 . S
C448 C446 1.378 . S
C448 C449 1.367 . S
C449 C448 1.367 . S
C449 C451 1.433 . S
C450 C446 1.350 . S
C450 C447 1.463 . S
C450 N454 1.427 . S
C451 H441 0.929 . S
C451 C449 1.433 . S
C451 N454 1.384 . S
C452 H443 0.929 . S
C452 C444 1.378 . S
C452 C447 1.350 . S
C453 H440 0.929 . S
C453 C445 1.433 . S
C453 N455 1.384 . S
N454 C450 1.427 . S
N454 C451 1.384 . S
N455 C447 1.427 . S
N455 C453 1.384 . S
H456 C462 0.930 . S
H457 C466 0.931 1_565 S
H458 C471 0.934 . S
H459 C469 0.929 . S
H460 C464 0.929 1_565 S
H461 C470 0.929 . S
C462 H456 0.930 . S
C462 C463 1.367 . S
C462 C470 1.378 . S
C463 C462 1.367 . S
C463 C471 1.433 . S
C464 H460 0.929 1_545 S
C464 C466 1.378 . S
C464 C468 1.350 . S
C465 C468 1.463 . S
C465 C470 1.350 . S
C465 N473 1.427 . S
C466 H457 0.931 1_545 S
C466 C464 1.378 . S
C466 C467 1.366 . S
C467 C466 1.366 . S
C467 C469 1.433 . S
C468 C464 1.350 . S
C468 C465 1.463 . S
C468 N472 1.427 . S
C469 H459 0.929 . S
C469 C467 1.433 . S
C469 N472 1.384 . S
C470 H461 0.929 . S
C470 C462 1.378 . S
C470 C465 1.350 . S
C471 H458 0.934 . S
C471 C463 1.433 . S
C471 N473 1.384 . S
N472 C468 1.427 . S
N472 C469 1.384 . S
N473 C465 1.427 . S
N473 C471 1.384 . S
H474 C480 0.930 . S
H475 C484 0.930 . S
H476 C489 0.929 . S
H477 C487 0.929 . S
H478 C482 0.929 1_556 S
H479 C488 0.929 . S
C480 H474 0.930 . S
C480 C481 1.367 . S
C480 C488 1.378 . S
C481 C480 1.367 . S
C481 C489 1.433 . S
C482 H478 0.929 1_554 S
C482 C484 1.378 . S
C482 C486 1.350 1_554 S
C483 C486 1.463 . S
C483 C488 1.350 . S
C483 N491 1.427 . S
C484 H475 0.930 . S
C484 C482 1.378 . S
C484 C485 1.367 . S
C485 C484 1.367 . S
C485 C487 1.433 . S
C486 C482 1.350 1_556 S
C486 C483 1.463 . S
C486 N490 1.427 1_556 S
C487 H477 0.929 . S
C487 C485 1.433 . S
C487 N490 1.384 . S
C488 H479 0.929 . S
C488 C480 1.378 . S
C488 C483 1.350 . S
C489 H476 0.929 . S
C489 C481 1.433 . S
C489 N491 1.384 . S
N490 C486 1.427 1_554 S
N490 C487 1.384 . S
N491 C483 1.427 . S
N491 C489 1.384 . S
H492 C498 0.930 . S
H493 C502 0.928 . S
H494 C507 0.929 . S
H495 C505 0.929 . S
H496 C500 0.929 . S
H497 C506 0.929 . S
C498 H492 0.930 . S
C498 C499 1.367 . S
C498 C506 1.378 . S
C499 C498 1.367 . S
C499 C507 1.433 . S
C500 H496 0.929 . S
C500 C502 1.378 . S
C500 C504 1.350 . S
C501 C504 1.463 . S
C501 C506 1.350 . S
C501 N509 1.427 . S
C502 H493 0.928 . S
C502 C500 1.378 . S
C502 C503 1.367 . S
C503 C502 1.367 . S
C503 C505 1.433 . S
C504 C500 1.350 . S
C504 C501 1.463 . S
C504 N508 1.427 . S
C505 H495 0.929 . S
C505 C503 1.433 . S
C505 N508 1.384 . S
C506 H497 0.929 . S
C506 C498 1.378 . S
C506 C501 1.350 . S
C507 H494 0.929 . S
C507 C499 1.433 . S
C507 N509 1.384 . S
N508 C504 1.427 . S
N508 C505 1.384 . S
N509 C501 1.427 . S
N509 C507 1.384 . S
C193 C25 0.518 . S
C197 C185 0.536 . S
C211 C65 0.329 . S
C215 C163 0.261 . S
C229 C105 0.426 . S
C233 C174 0.284 . S
C247 C4 0.441 . S
C251 C179 0.317 . S
C269 C157 0.188 . S
C265 C44 0.263 . S
C287 C168 0.264 . S
C283 C84 0.261 . S
C301 C60 3.029 . S
C305 C141 2.963 . S
C319 C100 3.020 . S
C323 C146 2.969 1_655 S
C337 C31 2.996 . S
C341 C124 2.941 1_565 S
C359 C135 2.947 . S
C355 C71 2.994 . S
C377 C152 2.949 . S
C373 C111 2.991 . S
C391 C20 3.032 . S
C395 C130 2.973 . S
C413 C147 1.749 . S
C409 C2 1.713 . S
C427 C42 1.749 . S
C431 C125 1.761 . S
C445 C82 1.730 . S
C449 C136 1.761 . S
C467 C169 1.181 . S
C463 C63 1.159 . S
C485 C180 1.243 . S
C481 C103 1.220 . S
C499 C23 1.134 . S
C503 C158 1.158 . S
