# Generated by pormake.
# Topology anh, (6,3)-cn, num edge types: 1
# Building blocks:
#     Node 0, Type 0, BuildingBlock: PAMTUU_clean_sbu_0, # of connection points: 6
#     Node 1, Type 0, BuildingBlock: PAMTUU_clean_sbu_0, # of connection points: 6
#     Node 2, Type 0, BuildingBlock: PAMTUU_clean_sbu_0, # of connection points: 6
#     Node 3, Type 1, BuildingBlock: CUQRIR_clean_linker_1, # of connection points: 3
#     Node 4, Type 1, BuildingBlock: CUQRIR_clean_linker_1, # of connection points: 3
#     Node 5, Type 1, BuildingBlock: CUQRIR_clean_linker_1, # of connection points: 3
#     Node 6, Type 1, BuildingBlock: CUQRIR_clean_linker_1, # of connection points: 3
#     Node 7, Type 1, BuildingBlock: CUQRIR_clean_linker_1, # of connection points: 3
#     Node 8, Type 1, BuildingBlock: CUQRIR_clean_linker_1, # of connection points: 3
#     Edge 9, Type (0, 1), BuildingBlock: OJICUG_clean_linker_0, # of connection points: 2
#     Edge 10, Type (0, 1), BuildingBlock: OJICUG_clean_linker_0, # of connection points: 2
#     Edge 11, Type (0, 1), BuildingBlock: OJICUG_clean_linker_0, # of connection points: 2
#     Edge 12, Type (0, 1), BuildingBlock: OJICUG_clean_linker_0, # of connection points: 2
#     Edge 13, Type (0, 1), BuildingBlock: OJICUG_clean_linker_0, # of connection points: 2
#     Edge 14, Type (0, 1), BuildingBlock: OJICUG_clean_linker_0, # of connection points: 2
#     Edge 15, Type (0, 1), BuildingBlock: OJICUG_clean_linker_0, # of connection points: 2
#     Edge 16, Type (0, 1), BuildingBlock: OJICUG_clean_linker_0, # of connection points: 2
#     Edge 17, Type (0, 1), BuildingBlock: OJICUG_clean_linker_0, # of connection points: 2
#     Edge 18, Type (0, 1), BuildingBlock: OJICUG_clean_linker_0, # of connection points: 2
#     Edge 19, Type (0, 1), BuildingBlock: OJICUG_clean_linker_0, # of connection points: 2
#     Edge 20, Type (0, 1), BuildingBlock: OJICUG_clean_linker_0, # of connection points: 2
#     Edge 21, Type (0, 1), BuildingBlock: OJICUG_clean_linker_0, # of connection points: 2
#     Edge 22, Type (0, 1), BuildingBlock: OJICUG_clean_linker_0, # of connection points: 2
#     Edge 23, Type (0, 1), BuildingBlock: OJICUG_clean_linker_0, # of connection points: 2
#     Edge 24, Type (0, 1), BuildingBlock: OJICUG_clean_linker_0, # of connection points: 2
#     Edge 25, Type (0, 1), BuildingBlock: OJICUG_clean_linker_0, # of connection points: 2
#     Edge 26, Type (0, 1), BuildingBlock: OJICUG_clean_linker_0, # of connection points: 2
# Relax obj value: 0.484
# Max RMSD: 0.231
# Mean RMSD: 0.176
data_MOF--net-anh--node1-PAMTUU_clean_sbu_0--node2-CUQRIR_clean_linker_1--edge1-OJICUG_clean_linker_0
_symmetry_space_group_name_H-M    P1
_symmetry_Int_Tables_number       1
_symmetry_cell_setting            triclinic
loop_
_symmetry_equiv_pos_as_xyz
'x, y, z'
_cell_length_a     19.579653
_cell_length_b     19.554747
_cell_length_c     33.413783
_cell_angle_alpha  89.846852
_cell_angle_beta   90.201599
_cell_angle_gamma 119.89741
loop_
_atom_site_label
_atom_site_type_symbol
_atom_site_fract_x
_atom_site_fract_y
_atom_site_fract_z
_atom_type_partial_charge
Tb0 Tb 0.26758 0.77847 0.15351 0.0
Tb1 Tb 0.34063 0.68939 0.1891 0.0
C2 C 0.33268 0.70556 0.09871 0.0
C3 C 1.1292 0.8238 0.10748 0.0
C4 C 0.97503 0.71482 0.08808 0.0
C5 C 1.02714 0.76007 0.05777 0.0
C6 C 1.10413 0.81563 0.06756 0.0
C7 C 1.07472 0.78411 0.13811 0.0
C8 C 0.99763 0.72981 0.12838 0.0
C9 C 1.21077 0.84723 0.11445 0.0
O10 O 1.16212 0.65192 0.15949 0.0
O11 O 0.21833 0.59919 0.19971 0.0
O12 O 0.32538 0.75304 0.23877 0.0
O13 O 0.21961 0.75492 0.21241 0.0
O14 O 0.42805 0.65845 0.18349 0.0
O15 O 0.34627 0.61926 0.23491 0.0
O16 O 0.44444 0.80901 0.18252 0.0
O17 O 0.379 0.87733 0.17789 0.0
O18 O 0.34973 0.77445 0.11181 0.0
O19 O 0.30753 0.65024 0.12604 0.0
C20 C 1.15464 0.5925 0.18301 0.0
O21 O 0.23682 0.86691 0.1511 0.0
O22 O 0.22886 0.79711 0.0989 0.0
C23 C 0.26131 0.75753 0.24331 0.0
C24 C 0.44458 0.58035 0.23417 0.0
C25 C 0.50751 0.48153 0.24193 0.0
C26 C 0.43149 0.45707 0.25643 0.0
C27 C 0.39971 0.50644 0.25222 0.0
C28 C 0.52406 0.60989 0.22607 0.0
C29 C 0.55578 0.56104 0.2302 0.0
C30 C 0.40629 0.62059 0.21754 0.0
C31 C 0.4459 0.87717 0.18285 0.0
H32 H 1.00982 0.74868 0.02658 0.0
H33 H 1.14626 0.84471 0.04368 0.0
H34 H 1.09329 0.78804 0.16903 0.0
H35 H 0.95779 0.69445 0.15205 0.0
H36 H 0.3937 0.39699 0.26643 0.0
H37 H 0.33806 0.48378 0.25911 0.0
H38 H 0.55946 0.6678 0.21278 0.0
H39 H 0.61479 0.58318 0.2188 0.0
Tb40 Tb 0.73222 0.17974 0.49776 0.0
Tb41 Tb 0.91055 0.25958 0.52116 0.0
C42 C 0.85669 0.2566 0.42952 0.0
C43 C 0.51802 1.06157 0.50692 0.0
C44 C 0.37398 0.94884 0.53975 0.0
C45 C 0.4172 0.92585 0.51487 0.0
C46 C 0.4885 0.98176 0.4986 0.0
C47 C 0.47898 1.08416 0.5346 0.0
C48 C 0.40785 1.02801 0.55127 0.0
C49 C 0.58785 1.12191 0.48627 0.0
O50 O 0.75341 1.07574 0.50031 0.0
O51 O 0.86579 1.13457 0.53757 0.0
O52 O 0.8531 0.24664 0.57851 0.0
O53 O 0.73186 0.14765 0.55895 0.0
O54 O 1.00319 0.23556 0.52752 0.0
O55 O 1.02094 0.35134 0.53965 0.0
O56 O 0.89463 0.36503 0.52184 0.0
O57 O 0.76059 0.30062 0.51529 0.0
O58 O 0.78579 0.23523 0.44179 0.0
O59 O 0.90966 0.25774 0.45447 0.0
C60 C 0.8069 1.06964 0.52256 0.0
O61 O 0.63038 0.18493 0.50742 0.0
O62 O 0.63064 1.0994 0.46631 0.0
C63 C 0.78244 0.1887 0.58677 0.0
C64 C 1.11381 0.34338 0.49997 0.0
C65 C 1.16266 0.44318 0.43412 0.0
C66 C 1.1992 0.47116 0.47167 0.0
C67 C 1.17445 0.42113 0.50465 0.0
C68 C 1.09223 0.31157 0.46115 0.0
C69 C 1.11633 0.36173 0.42816 0.0
C70 C 1.05472 0.3099 0.53161 0.0
C71 C 0.8277 0.36664 0.52125 0.0
H72 H 0.39308 0.86564 0.50468 0.0
H73 H 0.51808 0.96267 0.47787 0.0
H74 H 0.50151 0.14567 0.542 0.0
H75 H 0.37653 1.0473 0.57066 0.0
H76 H 0.23621 0.53367 0.47737 0.0
H77 H 1.19245 0.44643 0.53428 0.0
H78 H 1.04686 0.25075 0.45659 0.0
H79 H 1.08906 0.33854 0.39936 0.0
Tb80 Tb 0.68672 0.60185 0.82842 0.0
Tb81 Tb 0.77786 0.77003 0.86371 0.0
C82 C 0.75687 0.74089 0.76923 0.0
C83 C 0.5911 0.38885 0.82587 0.0
C84 C 0.57045 0.24947 0.86082 0.0
C85 C 0.64494 0.30707 0.84631 0.0
C86 C 0.65525 0.37636 0.82927 0.0
C87 C 0.51844 0.33465 0.84282 0.0
C88 C 0.50846 0.26596 0.86069 0.0
C89 C 0.60031 0.46133 0.80844 0.0
O90 O 0.81058 0.62022 0.83033 0.0
O91 O 0.8689 0.73508 0.86604 0.0
O92 O 0.71404 0.68998 0.91362 0.0
O93 O 0.72484 0.59068 0.88668 0.0
O94 O 0.86527 0.84399 0.90473 0.0
O95 O 0.80147 0.88625 0.86929 0.0
O96 O 0.65786 0.75495 0.8577 0.0
O97 O 0.59336 0.6212 0.85524 0.0
O98 O 0.69417 0.6743 0.77796 0.0
O99 O 0.80629 0.78239 0.79829 0.0
C100 C 0.87335 0.67625 0.84966 0.0
O101 O 0.5784 0.49893 0.83244 0.0
O102 O 0.66653 0.50842 0.79017 0.0
C103 C 0.71098 0.62181 0.91757 0.0
C104 C 0.93596 0.96784 0.87391 0.0
C105 C 0.96625 1.05235 0.80388 0.0
C106 C 0.96489 1.08796 0.84038 0.0
C107 C 0.94767 1.04423 0.87563 0.0
C108 C 0.96622 0.94664 0.84105 0.0
C109 C 0.98326 0.99054 0.80577 0.0
C110 C 0.86332 0.90572 0.89165 0.0
C111 C 0.59106 0.68711 0.85965 0.0
H112 H 0.69437 0.29681 0.84529 0.0
H113 H 0.71277 0.41884 0.81778 0.0
H114 H 0.46902 0.34505 0.84174 0.0
H115 H 0.451 0.22372 0.87227 0.0
H116 H 0.95793 1.1395 0.84089 0.0
H117 H 0.92775 1.06309 0.90136 0.0
H118 H 0.96085 0.88881 0.83963 0.0
H119 H 0.99032 0.96491 0.77847 0.0
C120 C 0.8024 0.23532 0.19878 0.0
N121 N 0.85957 0.28875 0.22467 0.0
N122 N 0.74496 0.16974 0.2182 0.0
C123 C 0.8067 0.24122 0.15412 0.0
C124 C 0.76993 0.18377 0.25662 0.0
N125 N 0.83814 0.25403 0.26087 0.0
C126 C 0.72695 1.12719 0.29049 0.0
H127 H 0.77304 0.2693 0.1441 0.0
H128 H 0.77862 0.18161 0.14045 0.0
H129 H 0.86841 0.2764 0.14365 0.0
H130 H 0.75161 1.08734 0.29438 0.0
H131 H 0.66308 1.09056 0.28395 0.0
H132 H 0.73392 0.15821 0.31919 0.0
C133 C 0.80649 0.71517 0.53877 0.0
N134 N 0.80351 0.76884 0.56478 0.0
N135 N 0.81389 0.6571 0.55848 0.0
C136 C 0.80711 0.72155 0.49401 0.0
C137 C 0.81545 0.67758 0.59734 0.0
N138 N 0.80985 0.74404 0.60147 0.0
C139 C 0.81854 0.62989 0.63217 0.0
H140 H 0.74562 0.69578 0.48306 0.0
H141 H 0.83344 0.6885 0.48019 0.0
H142 H 0.84056 0.78425 0.48455 0.0
H143 H 0.81135 0.57236 0.62278 0.0
H144 H 0.77148 0.61861 0.65398 0.0
H145 H 0.87592 0.66425 0.64777 0.0
C146 C 0.23228 0.67446 0.86917 0.0
N147 N 0.28632 0.67315 0.89537 0.0
N148 N 1.16767 0.66918 0.88858 0.0
C149 C 0.24409 0.68329 0.82478 0.0
C150 C 1.18545 0.66473 0.9276 0.0
N151 N 0.25554 0.66618 0.93181 0.0
C152 C 1.13562 0.66285 0.96232 0.0
H153 H 0.29324 0.7434 0.81801 0.0
H154 H 1.19016 0.67414 0.8091 0.0
H155 H 0.26122 0.64055 0.81364 0.0
H156 H 1.07312 0.63821 0.95336 0.0
H157 H 1.15839 0.72395 0.97334 0.0
H158 H 1.13858 0.6272 0.98739 0.0
C159 C 1.0812 0.69018 0.45151 0.0
N160 N 1.09556 0.67927 0.41323 0.0
N161 N 1.11708 0.76798 0.46094 0.0
C162 C 1.04196 0.6242 0.48142 0.0
C163 C 1.14848 0.80408 0.42538 0.0
N164 N 1.13482 0.75019 0.3968 0.0
C165 C 1.20356 0.89139 0.41998 0.0
H166 H 0.98344 0.57945 0.46974 0.0
H167 H 1.03475 0.64653 0.51061 0.0
H168 H 1.07717 0.59444 0.48561 0.0
H169 H 0.25949 0.90917 0.43625 0.0
H170 H 1.17674 0.92507 0.43229 0.0
H171 H 0.21696 0.90763 0.38799 0.0
C172 C 0.6416 0.9949 0.79371 0.0
N173 N 0.68236 1.01383 0.75906 0.0
N174 N 0.58941 1.02145 0.79398 0.0
C175 C 0.66184 0.96169 0.82956 0.0
C176 C 0.5992 1.05581 0.75737 0.0
N177 N 0.65585 1.0515 0.73673 0.0
C178 C 0.56185 1.10349 0.74398 0.0
H179 H 0.61774 0.94584 0.85373 0.0
H180 H 0.72098 1.00569 0.84098 0.0
H181 H 0.66506 0.90882 0.82056 0.0
H182 H 0.5844 0.15729 0.76274 0.0
H183 H 0.49707 1.06856 0.74755 0.0
H184 H 0.57426 1.12122 0.71212 0.0
C185 C 0.66619 0.38788 0.10535 0.0
N186 N 0.68857 0.43 0.07127 0.0
N187 N 0.59356 0.37236 0.11692 0.0
C188 C 0.72218 0.37411 0.13029 0.0
C189 C 0.56887 0.39885 0.08531 0.0
N190 N 0.62582 0.43094 0.05733 0.0
C191 C 0.49647 0.40712 0.08493 0.0
H192 H 0.69068 0.32947 0.15398 0.0
H193 H 0.76791 0.4301 0.14394 0.0
H194 H 0.75416 0.35507 0.11 0.0
H195 H 0.50071 0.44766 0.10924 0.0
H196 H 0.44344 0.34891 0.09023 0.0
H197 H 0.48909 0.43044 0.05594 0.0
C198 C 0.47023 0.35971 0.20331 0.0
C199 C 0.52723 0.42287 0.22638 0.0
H200 H 0.44846 0.29069 0.15014 0.0
C201 C 0.60673 0.44702 0.22046 0.0
H202 H 0.40789 0.33766 0.20752 0.0
C203 C 0.6292 0.42753 0.185 0.0
C204 C 0.57228 0.37397 0.15798 0.0
H205 H 0.65188 0.49333 0.23874 0.0
H206 H 0.69052 0.46221 0.17713 0.0
C207 C 0.49314 0.33428 0.16958 0.0
C208 C 1.07102 0.47966 0.40191 0.0
C209 C 1.14947 0.49771 0.40901 0.0
H210 H 0.99188 0.52577 0.3978 0.0
C211 C 1.21014 0.57604 0.40595 0.0
H212 H 1.02266 0.41967 0.40412 0.0
C213 C 1.19179 0.6359 0.40471 0.0
C214 C 1.11296 0.61832 0.4031 0.0
H215 H 0.27083 0.59143 0.41109 0.0
H216 H 0.23883 0.69566 0.40959 0.0
C217 C 1.05288 0.54008 0.39899 0.0
C218 C 0.89998 1.11408 0.76686 0.0
C219 C 0.91005 1.04849 0.77265 0.0
H220 H 0.81599 0.15294 0.76083 0.0
C221 C 0.84773 0.97325 0.7615 0.0
H222 H 0.94703 0.17291 0.77406 0.0
C223 C 0.77299 0.96206 0.75351 0.0
C224 C 0.76054 1.02614 0.7555 0.0
H225 H 0.853 0.92115 0.76459 0.0
H226 H 0.72372 0.9029 0.74959 0.0
C227 C 0.825 1.10271 0.75945 0.0
C228 C 0.89823 0.58412 0.05561 0.0
C229 C 0.90029 0.64571 0.07827 0.0
H230 H 0.82647 0.46393 0.0358 0.0
C231 C 0.83241 0.63647 0.0966 0.0
H232 H 0.95133 0.59054 0.04206 0.0
C233 C 0.76344 0.56537 0.09356 0.0
C234 C 0.76119 0.50283 0.07193 0.0
H235 H 0.83359 0.68325 0.11446 0.0
H236 H 0.71147 0.55799 0.10884 0.0
C237 C 0.82818 0.51222 0.05241 0.0
C238 C 0.23733 0.92336 0.5324 0.0
C239 C 0.28826 0.89517 0.5437 0.0
H240 H 1.13539 0.89962 0.49798 0.0
C241 C 0.25987 0.81387 0.54244 0.0
H242 H 0.2558 0.98548 0.53421 0.0
C243 C 1.1955 0.76716 0.51829 0.0
C244 C 1.15418 0.79979 0.49896 0.0
H245 H 0.2962 0.7899 0.55279 0.0
H246 H 1.18659 0.70982 0.51032 0.0
C247 C 1.16899 0.87465 0.51076 0.0
C248 C 0.61649 0.15499 0.87619 0.0
C249 C 0.5541 0.16756 0.86599 0.0
H250 H 0.68048 1.09973 0.85767 0.0
C251 C 0.48781 1.10658 0.84652 0.0
H252 H 0.66647 0.1988 0.89312 0.0
C253 C 0.49331 1.04524 0.82861 0.0
C254 C 0.56576 1.04723 0.82881 0.0
H255 H 0.43706 1.1124 0.83917 0.0
H256 H 0.44633 1.00499 0.809 0.0
C257 C 0.62396 1.09685 0.85627 0.0
C258 C 0.75269 0.91728 0.51364 0.0
C259 C 0.8019 0.98966 0.53348 0.0
H260 H 0.71322 0.7927 0.5076 0.0
C261 C 0.84932 0.98544 0.56469 0.0
H262 H 0.7148 0.91588 0.4896 0.0
C263 C 0.84851 0.91417 0.57516 0.0
C264 C 0.80066 0.84218 0.55493 0.0
H265 H 0.88815 1.03817 0.58141 0.0
H266 H 0.88746 0.91625 0.59875 0.0
C267 C 0.75232 0.84573 0.52395 0.0
C268 C 1.01338 0.73457 0.87897 0.0
C269 C 0.95113 0.6744 0.85616 0.0
H270 H 1.12839 0.7811 0.90605 0.0
C271 C 0.96544 0.61437 0.84176 0.0
H272 H 1.00691 0.78225 0.8912 0.0
C273 C 1.0374 0.61434 0.8504 0.0
C274 C 1.09847 0.67425 0.87383 0.0
H275 H 0.9204 0.56636 0.82435 0.0
H276 H 1.04419 0.56583 0.83977 0.0
C277 C 1.08445 0.73441 0.88754 0.0
C278 C 0.59285 0.95255 0.20158 0.0
C279 C 0.52442 0.95406 0.18921 0.0
H280 H 0.71495 1.01801 0.21971 0.0
C281 C 0.53298 1.02982 0.18338 0.0
H282 H 0.5901 0.89654 0.20676 0.0
C283 C 0.60616 1.10041 0.19025 0.0
C284 C 0.67384 1.09835 0.20347 0.0
H285 H 0.48268 1.03475 0.17388 0.0
H286 H 0.60903 0.15682 0.18666 0.0
C287 C 0.66538 1.02277 0.20876 0.0
C288 C 0.89146 0.51298 0.54359 0.0
C289 C 0.826 0.44409 0.52816 0.0
H290 H 0.93941 0.63303 0.5646 0.0
C291 C 0.75749 0.44982 0.52053 0.0
H292 H 0.94519 0.51239 0.55055 0.0
C293 C 0.75473 0.52035 0.52804 0.0
C294 C 0.82018 0.58876 0.54381 0.0
H295 H 0.70492 0.399 0.5091 0.0
H296 H 0.70013 0.52038 0.52286 0.0
C297 C 0.88841 0.58311 0.55142 0.0
C298 C 0.50153 0.74997 0.86369 0.0
C299 C 0.51202 0.6838 0.86865 0.0
H300 H 0.42371 0.7989 0.8673 0.0
C301 C 0.44519 0.61393 0.88254 0.0
H302 H 0.55002 0.80467 0.85298 0.0
C303 C 0.37255 0.61091 0.89155 0.0
C304 C 0.36225 0.67696 0.88621 0.0
H305 H 0.44915 0.56115 0.887 0.0
H306 H 0.32371 0.55619 0.90242 0.0
C307 C 0.42833 0.74653 0.87184 0.0
C308 C 1.07435 0.46229 0.22279 0.0
C309 C 1.07553 0.51552 0.19314 0.0
H310 H 1.01008 0.35277 0.25536 0.0
C311 C 1.00153 0.49185 0.17483 0.0
H312 H 1.12823 0.47588 0.23837 0.0
C313 C 0.93163 0.41925 0.1853 0.0
C314 C 0.93139 0.36606 0.21475 0.0
H315 H 0.99741 0.52916 0.15207 0.0
H316 H 0.87721 0.40507 0.17023 0.0
C317 C 1.00501 0.39042 0.23322 0.0
C318 C 0.35801 0.7574 0.02794 0.0
C319 C 0.32694 0.69189 0.05415 0.0
H320 H 0.36124 0.80005 0.96813 0.0
C321 C 0.2836 0.6162 0.0371 0.0
H322 H 0.39167 0.81678 0.03964 0.0
C323 C 0.26715 0.60705 0.99558 0.0
C324 C 0.29382 0.67312 0.97013 0.0
H325 H 0.2582 0.5644 0.05607 0.0
H326 H 0.22849 0.54864 0.98376 0.0
C327 C 0.34162 0.74811 0.98669 0.0
C328 C 0.83692 0.31349 0.36568 0.0
C329 C 0.8732 0.27633 0.38577 0.0
H330 H 0.8021 0.34029 0.30936 0.0
C331 C 0.91474 0.24932 0.36251 0.0
H332 H 0.80387 0.33462 0.38245 0.0
C333 C 0.9131 0.25239 0.32024 0.0
C334 C 0.87186 0.28447 0.30009 0.0
H335 H 0.94248 0.21953 0.37675 0.0
H336 H 0.93753 0.22271 0.30315 0.0
C337 C 0.83725 0.31845 0.32364 0.0
C338 C 0.70889 0.7296 0.69787 0.0
C339 C 0.7724 0.76208 0.72533 0.0
H340 H 0.67134 0.70205 0.63653 0.0
C341 C 0.84907 0.80384 0.70938 0.0
H342 H 0.64888 0.69631 0.70864 0.0
C343 C 0.86155 0.80704 0.66752 0.0
C344 C 0.79793 0.77002 0.64034 0.0
H345 H 0.89958 0.8287 0.72924 0.0
H346 H 0.92124 0.83265 0.65646 0.0
C347 C 0.72145 0.73401 0.65623 0.0
C348 C 0.72707 1.07619 0.63252 0.0
C349 C 0.76155 0.15799 0.62722 0.0
H350 H 0.66514 0.97855 0.6723 0.0
C351 C 0.76497 0.20592 0.65908 0.0
H352 H 0.72497 1.03851 0.60824 0.0
C353 C 0.72929 0.17105 0.69539 0.0
C354 C 0.69078 1.0886 0.69963 0.0
H355 H 0.79171 0.26916 0.65531 0.0
H356 H 0.73111 0.20779 0.72002 0.0
C357 C 0.69233 1.04186 0.66863 0.0
C358 C 0.66214 0.5978 0.98916 0.0
C359 C 0.68368 0.57328 0.95424 0.0
H360 H 0.62394 0.56919 0.05041 0.0
C361 C 0.67654 0.49803 0.95339 0.0
H362 H 0.66732 0.65552 0.99071 0.0
C363 C 0.64989 0.44901 0.98648 0.0
C364 C 0.62982 0.47328 0.02148 0.0
H365 H 0.69279 0.47672 0.92725 0.0
H366 H 0.64898 0.39317 0.98565 0.0
C367 C 0.6357 0.54802 0.02283 0.0
C368 C 0.28217 0.79704 0.31544 0.0
C369 C 0.23144 0.75987 0.28302 0.0
H370 H 0.29025 0.8263 0.37781 0.0
C371 C 1.14965 0.72424 0.28826 0.0
H372 H 0.34541 0.82405 0.31202 0.0
C373 C 1.11875 0.7252 0.32539 0.0
C374 C 1.16882 0.763 0.35768 0.0
H375 H 1.10927 0.69362 0.26386 0.0
H376 H 1.05546 0.69443 0.32941 0.0
C377 C 0.25091 0.79955 0.3526 0.0
loop_
_geom_bond_atom_site_label_1
_geom_bond_atom_site_label_2
_geom_bond_distance
_geom_bond_site_symmetry_2
_ccdc_geom_bond_type
Tb0 C9 2.764 . S
Tb0 O10 2.325 . S
Tb0 O13 2.303 . S
Tb0 O17 2.322 1_655 S
Tb0 O18 2.349 . S
Tb0 O21 2.415 . S
Tb0 O22 2.399 . S
Tb1 O11 2.322 1_455 S
Tb1 O12 2.349 . S
Tb1 O14 2.415 . S
Tb1 O15 2.399 . S
Tb1 O16 2.325 . S
Tb1 O19 2.303 . S
Tb1 C30 2.764 . S
C2 O18 1.261 1_455 S
C2 O19 1.257 . S
C3 C6 1.358 . S
C3 C7 1.332 . S
C3 C9 1.504 . S
C4 C5 1.373 . S
C4 C8 1.308 . S
C5 C4 1.373 . S
C5 C6 1.429 . S
C5 H32 0.932 . S
C6 C3 1.358 . S
C6 C5 1.429 . S
C6 H33 0.930 . S
C7 C3 1.332 . S
C7 C8 1.394 . S
C7 H34 0.932 . S
C8 C4 1.308 . S
C8 C7 1.394 . S
C8 H35 0.929 . S
C9 Tb0 2.764 . S
C9 C3 1.504 . S
C9 O21 1.239 . S
C9 O22 1.263 . S
O10 Tb0 2.325 . S
O10 C20 1.236 . S
O11 Tb1 2.322 1_655 S
O11 C20 1.257 . S
O12 Tb1 2.349 . S
O12 C23 1.261 . S
O13 Tb0 2.303 . S
O13 C23 1.257 1_655 S
O14 Tb1 2.415 . S
O14 C30 1.239 . S
O15 Tb1 2.399 . S
O15 C30 1.263 . S
O16 Tb1 2.325 . S
O16 C31 1.236 . S
O17 Tb0 2.322 1_455 S
O17 C31 1.257 . S
O18 Tb0 2.349 . S
O18 C2 1.261 1_655 S
O19 Tb1 2.303 . S
O19 C2 1.257 . S
C20 O10 1.236 . S
C20 O11 1.257 . S
O21 Tb0 2.415 . S
O21 C9 1.239 . S
O22 Tb0 2.399 . S
O22 C9 1.263 . S
C23 O12 1.261 . S
C23 O13 1.257 1_455 S
C24 C27 1.358 . S
C24 C28 1.332 . S
C24 C30 1.504 . S
C25 C26 1.373 . S
C25 C29 1.308 . S
C26 C25 1.373 . S
C26 C27 1.429 . S
C26 H36 0.932 . S
C27 C24 1.358 . S
C27 C26 1.429 . S
C27 H37 0.930 . S
C28 C24 1.332 . S
C28 C29 1.394 . S
C28 H38 0.932 . S
C29 C25 1.308 . S
C29 C28 1.394 . S
C29 H39 0.929 . S
C30 Tb1 2.764 . S
C30 O14 1.239 . S
C30 O15 1.263 . S
C30 C24 1.504 . S
C31 O16 1.236 . S
C31 O17 1.257 . S
H32 C5 0.932 . S
H33 C6 0.930 . S
H34 C7 0.932 . S
H35 C8 0.929 . S
H36 C26 0.932 . S
H37 C27 0.930 . S
H38 C28 0.932 . S
H39 C29 0.929 . S
Tb40 C49 2.764 . S
Tb40 O50 2.325 . S
Tb40 O53 2.303 1_565 S
Tb40 O57 2.322 1_565 S
Tb40 O58 2.349 . S
Tb40 O61 2.415 . S
Tb40 O62 2.399 . S
Tb41 O51 2.322 1_545 S
Tb41 O52 2.349 . S
Tb41 O54 2.415 . S
Tb41 O55 2.399 . S
Tb41 O56 2.325 . S
Tb41 O59 2.303 . S
Tb41 C70 2.764 . S
C42 O58 1.261 1_545 S
C42 O59 1.257 . S
C43 C46 1.358 . S
C43 C47 1.332 . S
C43 C49 1.504 . S
C44 C45 1.373 . S
C44 C48 1.308 . S
C45 C44 1.373 . S
C45 C46 1.429 . S
C45 H72 0.932 . S
C46 C43 1.358 . S
C46 C45 1.429 . S
C46 H73 0.930 . S
C47 C43 1.332 . S
C47 C48 1.394 . S
C47 H74 0.932 . S
C48 C44 1.308 . S
C48 C47 1.394 . S
C48 H75 0.929 . S
C49 Tb40 2.764 . S
C49 C43 1.504 . S
C49 O61 1.239 . S
C49 O62 1.263 . S
O50 Tb40 2.325 . S
O50 C60 1.236 . S
O51 Tb41 2.322 1_565 S
O51 C60 1.257 . S
O52 Tb41 2.349 . S
O52 C63 1.261 . S
O53 Tb40 2.303 1_545 S
O53 C63 1.257 . S
O54 Tb41 2.415 . S
O54 C70 1.239 . S
O55 Tb41 2.399 . S
O55 C70 1.263 . S
O56 Tb41 2.325 . S
O56 C71 1.236 . S
O57 Tb40 2.322 1_545 S
O57 C71 1.257 . S
O58 Tb40 2.349 . S
O58 C42 1.261 1_565 S
O59 Tb41 2.303 . S
O59 C42 1.257 . S
C60 O50 1.236 . S
C60 O51 1.257 . S
O61 Tb40 2.415 . S
O61 C49 1.239 . S
O62 Tb40 2.399 . S
O62 C49 1.263 . S
C63 O52 1.261 . S
C63 O53 1.257 . S
C64 C67 1.358 . S
C64 C68 1.332 . S
C64 C70 1.504 . S
C65 C66 1.373 . S
C65 C69 1.308 . S
C66 C65 1.373 . S
C66 C67 1.429 . S
C66 H76 0.932 . S
C67 C64 1.358 . S
C67 C66 1.429 . S
C67 H77 0.930 . S
C68 C64 1.332 . S
C68 C69 1.394 . S
C68 H78 0.932 . S
C69 C65 1.308 . S
C69 C68 1.394 . S
C69 H79 0.929 . S
C70 Tb41 2.764 . S
C70 O54 1.239 . S
C70 O55 1.263 . S
C70 C64 1.504 . S
C71 O56 1.236 . S
C71 O57 1.257 . S
H72 C45 0.932 . S
H73 C46 0.930 . S
H74 C47 0.932 . S
H75 C48 0.929 . S
H76 C66 0.932 . S
H77 C67 0.930 . S
H78 C68 0.932 . S
H79 C69 0.929 . S
Tb80 C89 2.764 . S
Tb80 O90 2.325 . S
Tb80 O93 2.303 . S
Tb80 O97 2.322 . S
Tb80 O98 2.349 . S
Tb80 O101 2.415 . S
Tb80 O102 2.399 . S
Tb81 O91 2.322 . S
Tb81 O92 2.349 . S
Tb81 O94 2.415 . S
Tb81 O95 2.399 . S
Tb81 O96 2.325 . S
Tb81 O99 2.303 . S
Tb81 C110 2.764 . S
C82 O98 1.261 . S
C82 O99 1.257 . S
C83 C86 1.358 . S
C83 C87 1.332 . S
C83 C89 1.504 . S
C84 C85 1.373 . S
C84 C88 1.308 . S
C85 C84 1.373 . S
C85 C86 1.429 . S
C85 H112 0.932 . S
C86 C83 1.358 . S
C86 C85 1.429 . S
C86 H113 0.930 . S
C87 C83 1.332 . S
C87 C88 1.394 . S
C87 H114 0.932 . S
C88 C84 1.308 . S
C88 C87 1.394 . S
C88 H115 0.929 . S
C89 Tb80 2.764 . S
C89 C83 1.504 . S
C89 O101 1.239 . S
C89 O102 1.263 . S
O90 Tb80 2.325 . S
O90 C100 1.236 . S
O91 Tb81 2.322 . S
O91 C100 1.257 . S
O92 Tb81 2.349 . S
O92 C103 1.261 . S
O93 Tb80 2.303 . S
O93 C103 1.257 . S
O94 Tb81 2.415 . S
O94 C110 1.239 . S
O95 Tb81 2.399 . S
O95 C110 1.263 . S
O96 Tb81 2.325 . S
O96 C111 1.236 . S
O97 Tb80 2.322 . S
O97 C111 1.257 . S
O98 Tb80 2.349 . S
O98 C82 1.261 . S
O99 Tb81 2.303 . S
O99 C82 1.257 . S
C100 O90 1.236 . S
C100 O91 1.257 . S
O101 Tb80 2.415 . S
O101 C89 1.239 . S
O102 Tb80 2.399 . S
O102 C89 1.263 . S
C103 O92 1.261 . S
C103 O93 1.257 . S
C104 C107 1.358 . S
C104 C108 1.332 . S
C104 C110 1.504 . S
C105 C106 1.373 . S
C105 C109 1.308 . S
C106 C105 1.373 . S
C106 C107 1.429 . S
C106 H116 0.932 . S
C107 C104 1.358 . S
C107 C106 1.429 . S
C107 H117 0.930 . S
C108 C104 1.332 . S
C108 C109 1.394 . S
C108 H118 0.932 . S
C109 C105 1.308 . S
C109 C108 1.394 . S
C109 H119 0.929 . S
C110 Tb81 2.764 . S
C110 O94 1.239 . S
C110 O95 1.263 . S
C110 C104 1.504 . S
C111 O96 1.236 . S
C111 O97 1.257 . S
H112 C85 0.932 . S
H113 C86 0.930 . S
H114 C87 0.932 . S
H115 C88 0.929 . S
H116 C106 0.932 . S
H117 C107 0.930 . S
H118 C108 0.932 . S
H119 C109 0.929 . S
C120 N121 1.317 1_565 S
C120 N122 1.348 . S
C120 C123 1.485 1_565 S
N121 C120 1.317 1_545 S
N121 N125 1.370 . S
N122 C120 1.348 . S
N122 C124 1.346 . S
C123 C120 1.485 1_545 S
C123 H127 0.960 . S
C123 H128 0.961 1_545 S
C123 H129 0.960 . S
C124 N122 1.346 . S
C124 N125 1.307 1_565 S
C124 C126 1.486 . S
N125 N121 1.370 . S
N125 C124 1.307 1_545 S
C126 C124 1.486 . S
C126 H130 0.960 . S
C126 H131 0.960 . S
C126 H132 0.959 . S
H127 C123 0.960 . S
H128 C123 0.961 1_565 S
H129 C123 0.960 . S
H130 C126 0.960 . S
H131 C126 0.960 . S
H132 C126 0.959 . S
C133 N134 1.317 . S
C133 N135 1.348 . S
C133 C136 1.485 . S
N134 C133 1.317 . S
N134 N138 1.370 . S
N135 C133 1.348 . S
N135 C137 1.346 . S
C136 C133 1.485 . S
C136 H140 0.960 . S
C136 H141 0.961 . S
C136 H142 0.960 . S
C137 N135 1.346 . S
C137 N138 1.307 . S
C137 C139 1.486 . S
N138 N134 1.370 . S
N138 C137 1.307 . S
C139 C137 1.486 . S
C139 H143 0.960 . S
C139 H144 0.960 . S
C139 H145 0.959 . S
H140 C136 0.960 . S
H141 C136 0.961 . S
H142 C136 0.960 . S
H143 C139 0.960 . S
H144 C139 0.960 . S
H145 C139 0.959 . S
C146 N147 1.317 . S
C146 N148 1.348 . S
C146 C149 1.485 . S
N147 C146 1.317 . S
N147 N151 1.370 . S
N148 C146 1.348 . S
N148 C150 1.346 . S
C149 C146 1.485 . S
C149 H153 0.960 . S
C149 H154 0.961 . S
C149 H155 0.960 . S
C150 N148 1.346 . S
C150 N151 1.307 . S
C150 C152 1.486 1_455 S
N151 N147 1.370 . S
N151 C150 1.307 . S
C152 C150 1.486 1_655 S
C152 H156 0.960 . S
C152 H157 0.960 . S
C152 H158 0.959 . S
H153 C149 0.960 . S
H154 C149 0.961 . S
H155 C149 0.960 . S
H156 C152 0.960 . S
H157 C152 0.960 . S
H158 C152 0.959 . S
C159 N160 1.317 1_455 S
C159 N161 1.348 . S
C159 C162 1.485 . S
N160 C159 1.317 1_655 S
N160 N164 1.370 . S
N161 C159 1.348 . S
N161 C163 1.346 . S
C162 C159 1.485 . S
C162 H166 0.960 1_455 S
C162 H167 0.961 . S
C162 H168 0.960 1_455 S
C163 N161 1.346 . S
C163 N164 1.307 1_455 S
C163 C165 1.486 . S
N164 N160 1.370 . S
N164 C163 1.307 1_655 S
C165 C163 1.486 . S
C165 H169 0.960 . S
C165 H170 0.960 . S
C165 H171 0.959 . S
H166 C162 0.960 1_655 S
H167 C162 0.961 . S
H168 C162 0.960 1_655 S
H169 C165 0.960 . S
H170 C165 0.960 . S
H171 C165 0.959 . S
C172 N173 1.317 1_545 S
C172 N174 1.348 . S
C172 C175 1.485 . S
N173 C172 1.317 1_565 S
N173 N177 1.370 1_565 S
N174 C172 1.348 . S
N174 C176 1.346 . S
C175 C172 1.485 . S
C175 H179 0.960 1_545 S
C175 H180 0.961 . S
C175 H181 0.960 1_545 S
C176 N174 1.346 . S
C176 N177 1.307 . S
C176 C178 1.486 . S
N177 N173 1.370 1_545 S
N177 C176 1.307 . S
C178 C176 1.486 . S
C178 H182 0.960 . S
C178 H183 0.960 . S
C178 H184 0.959 . S
H179 C175 0.960 1_565 S
H180 C175 0.961 . S
H181 C175 0.960 1_565 S
H182 C178 0.960 . S
H183 C178 0.960 . S
H184 C178 0.959 . S
C185 N186 1.317 . S
C185 N187 1.348 . S
C185 C188 1.485 . S
N186 C185 1.317 . S
N186 N190 1.370 . S
N187 C185 1.348 . S
N187 C189 1.346 . S
C188 C185 1.485 . S
C188 H192 0.960 . S
C188 H193 0.961 . S
C188 H194 0.960 . S
C189 N187 1.346 . S
C189 N190 1.307 . S
C189 C191 1.486 . S
N190 N186 1.370 . S
N190 C189 1.307 . S
C191 C189 1.486 . S
C191 H195 0.960 . S
C191 H196 0.960 . S
C191 H197 0.959 . S
H192 C188 0.960 . S
H193 C188 0.961 . S
H194 C188 0.960 . S
H195 C191 0.960 . S
H196 C191 0.960 . S
H197 C191 0.959 . S
C198 C199 1.387 . S
C198 H202 0.950 . S
C198 C207 1.390 . S
C199 C198 1.387 . S
C199 C201 1.387 . S
H200 C207 0.950 . S
C201 C199 1.387 . S
C201 C203 1.390 . S
C201 H205 0.950 . S
H202 C198 0.950 . S
C203 C201 1.390 . S
C203 C204 1.387 . S
C203 H206 0.950 . S
C204 C203 1.387 . S
C204 C207 1.387 . S
H205 C201 0.950 . S
H206 C203 0.950 . S
C207 C198 1.390 . S
C207 H200 0.950 . S
C207 C204 1.387 . S
C208 C209 1.387 . S
C208 H212 0.950 . S
C208 C217 1.390 . S
C209 C208 1.387 . S
C209 C211 1.387 . S
H210 C217 0.950 . S
C211 C209 1.387 . S
C211 C213 1.390 . S
C211 H215 0.950 . S
H212 C208 0.950 . S
C213 C211 1.390 . S
C213 C214 1.387 . S
C213 H216 0.950 . S
C214 C213 1.387 . S
C214 C217 1.387 . S
H215 C211 0.950 . S
H216 C213 0.950 . S
C217 C208 1.390 . S
C217 H210 0.950 . S
C217 C214 1.387 . S
C218 C219 1.387 1_545 S
C218 H222 0.950 . S
C218 C227 1.390 . S
C219 C218 1.387 1_565 S
C219 C221 1.387 . S
H220 C227 0.950 . S
C221 C219 1.387 . S
C221 C223 1.390 . S
C221 H225 0.950 . S
H222 C218 0.950 . S
C223 C221 1.390 . S
C223 C224 1.387 . S
C223 H226 0.950 . S
C224 C223 1.387 . S
C224 C227 1.387 1_565 S
H225 C221 0.950 . S
H226 C223 0.950 . S
C227 C218 1.390 . S
C227 H220 0.950 . S
C227 C224 1.387 1_545 S
C228 C229 1.387 . S
C228 H232 0.950 . S
C228 C237 1.390 . S
C229 C228 1.387 . S
C229 C231 1.387 . S
H230 C237 0.950 . S
C231 C229 1.387 . S
C231 C233 1.390 . S
C231 H235 0.950 . S
H232 C228 0.950 . S
C233 C231 1.390 . S
C233 C234 1.387 . S
C233 H236 0.950 . S
C234 C233 1.387 . S
C234 C237 1.387 . S
H235 C231 0.950 . S
H236 C233 0.950 . S
C237 C228 1.390 . S
C237 H230 0.950 . S
C237 C234 1.387 . S
C238 C239 1.387 . S
C238 H242 0.950 . S
C238 C247 1.390 . S
C239 C238 1.387 . S
C239 C241 1.387 . S
H240 C247 0.950 . S
C241 C239 1.387 . S
C241 C243 1.390 . S
C241 H245 0.950 . S
H242 C238 0.950 . S
C243 C241 1.390 . S
C243 C244 1.387 . S
C243 H246 0.950 . S
C244 C243 1.387 . S
C244 C247 1.387 . S
H245 C241 0.950 . S
H246 C243 0.950 . S
C247 C238 1.390 . S
C247 H240 0.950 . S
C247 C244 1.387 . S
C248 C249 1.387 . S
C248 H252 0.950 . S
C248 C257 1.390 . S
C249 C248 1.387 . S
C249 C251 1.387 . S
H250 C257 0.950 . S
C251 C249 1.387 . S
C251 C253 1.390 . S
C251 H255 0.950 . S
H252 C248 0.950 . S
C253 C251 1.390 . S
C253 C254 1.387 . S
C253 H256 0.950 . S
C254 C253 1.387 . S
C254 C257 1.387 . S
H255 C251 0.950 . S
H256 C253 0.950 . S
C257 C248 1.390 . S
C257 H250 0.950 . S
C257 C254 1.387 . S
C258 C259 1.387 . S
C258 H262 0.950 . S
C258 C267 1.390 . S
C259 C258 1.387 . S
C259 C261 1.387 . S
H260 C267 0.950 . S
C261 C259 1.387 . S
C261 C263 1.390 . S
C261 H265 0.950 . S
H262 C258 0.950 . S
C263 C261 1.390 . S
C263 C264 1.387 . S
C263 H266 0.950 . S
C264 C263 1.387 . S
C264 C267 1.387 . S
H265 C261 0.950 . S
H266 C263 0.950 . S
C267 C258 1.390 . S
C267 H260 0.950 . S
C267 C264 1.387 . S
C268 C269 1.387 . S
C268 H272 0.950 . S
C268 C277 1.390 . S
C269 C268 1.387 . S
C269 C271 1.387 . S
H270 C277 0.950 . S
C271 C269 1.387 . S
C271 C273 1.390 . S
C271 H275 0.950 . S
H272 C268 0.950 . S
C273 C271 1.390 . S
C273 C274 1.387 . S
C273 H276 0.950 . S
C274 C273 1.387 . S
C274 C277 1.387 . S
H275 C271 0.950 . S
H276 C273 0.950 . S
C277 C268 1.390 . S
C277 H270 0.950 . S
C277 C274 1.387 . S
C278 C279 1.387 . S
C278 H282 0.950 . S
C278 C287 1.390 . S
C279 C278 1.387 . S
C279 C281 1.387 . S
H280 C287 0.950 . S
C281 C279 1.387 . S
C281 C283 1.390 . S
C281 H285 0.950 . S
H282 C278 0.950 . S
C283 C281 1.390 . S
C283 C284 1.387 . S
C283 H286 0.950 . S
C284 C283 1.387 . S
C284 C287 1.387 . S
H285 C281 0.950 . S
H286 C283 0.950 . S
C287 C278 1.390 . S
C287 H280 0.950 . S
C287 C284 1.387 . S
C288 C289 1.387 . S
C288 H292 0.950 . S
C288 C297 1.390 . S
C289 C288 1.387 . S
C289 C291 1.387 . S
H290 C297 0.950 . S
C291 C289 1.387 . S
C291 C293 1.390 . S
C291 H295 0.950 . S
H292 C288 0.950 . S
C293 C291 1.390 . S
C293 C294 1.387 . S
C293 H296 0.950 . S
C294 C293 1.387 . S
C294 C297 1.387 . S
H295 C291 0.950 . S
H296 C293 0.950 . S
C297 C288 1.390 . S
C297 H290 0.950 . S
C297 C294 1.387 . S
C298 C299 1.387 . S
C298 H302 0.950 . S
C298 C307 1.390 . S
C299 C298 1.387 . S
C299 C301 1.387 . S
H300 C307 0.950 . S
C301 C299 1.387 . S
C301 C303 1.390 . S
C301 H305 0.950 . S
H302 C298 0.950 . S
C303 C301 1.390 . S
C303 C304 1.387 . S
C303 H306 0.950 . S
C304 C303 1.387 . S
C304 C307 1.387 . S
H305 C301 0.950 . S
H306 C303 0.950 . S
C307 C298 1.390 . S
C307 H300 0.950 . S
C307 C304 1.387 . S
C308 C309 1.387 . S
C308 H312 0.950 . S
C308 C317 1.390 . S
C309 C308 1.387 . S
C309 C311 1.387 . S
H310 C317 0.950 . S
C311 C309 1.387 . S
C311 C313 1.390 . S
C311 H315 0.950 . S
H312 C308 0.950 . S
C313 C311 1.390 . S
C313 C314 1.387 . S
C313 H316 0.950 . S
C314 C313 1.387 . S
C314 C317 1.387 . S
H315 C311 0.950 . S
H316 C313 0.950 . S
C317 C308 1.390 . S
C317 H310 0.950 . S
C317 C314 1.387 . S
C318 C319 1.387 . S
C318 H322 0.950 . S
C318 C327 1.390 1_554 S
C319 C318 1.387 . S
C319 C321 1.387 . S
H320 C327 0.950 . S
C321 C319 1.387 . S
C321 C323 1.390 1_554 S
C321 H325 0.950 . S
H322 C318 0.950 . S
C323 C321 1.390 1_556 S
C323 C324 1.387 . S
C323 H326 0.950 . S
C324 C323 1.387 . S
C324 C327 1.387 . S
H325 C321 0.950 . S
H326 C323 0.950 . S
C327 C318 1.390 1_556 S
C327 H320 0.950 . S
C327 C324 1.387 . S
C328 C329 1.387 . S
C328 H332 0.950 . S
C328 C337 1.390 . S
C329 C328 1.387 . S
C329 C331 1.387 1_545 S
H330 C337 0.950 . S
C331 C329 1.387 1_565 S
C331 C333 1.390 . S
C331 H335 0.950 . S
H332 C328 0.950 . S
C333 C331 1.390 . S
C333 C334 1.387 1_565 S
C333 H336 0.950 . S
C334 C333 1.387 1_545 S
C334 C337 1.387 . S
H335 C331 0.950 . S
H336 C333 0.950 . S
C337 C328 1.390 . S
C337 H330 0.950 . S
C337 C334 1.387 . S
C338 C339 1.387 . S
C338 H342 0.950 . S
C338 C347 1.390 . S
C339 C338 1.387 . S
C339 C341 1.387 . S
H340 C347 0.950 . S
C341 C339 1.387 . S
C341 C343 1.390 . S
C341 H345 0.950 . S
H342 C338 0.950 . S
C343 C341 1.390 . S
C343 C344 1.387 . S
C343 H346 0.950 . S
C344 C343 1.387 . S
C344 C347 1.387 . S
H345 C341 0.950 . S
H346 C343 0.950 . S
C347 C338 1.390 . S
C347 H340 0.950 . S
C347 C344 1.387 . S
C348 C349 1.387 1_565 S
C348 H352 0.950 . S
C348 C357 1.390 . S
C349 C348 1.387 1_545 S
C349 C351 1.387 . S
H350 C357 0.950 . S
C351 C349 1.387 . S
C351 C353 1.390 . S
C351 H355 0.950 . S
H352 C348 0.950 . S
C353 C351 1.390 . S
C353 C354 1.387 1_545 S
C353 H356 0.950 . S
C354 C353 1.387 1_565 S
C354 C357 1.387 . S
H355 C351 0.950 . S
H356 C353 0.950 . S
C357 C348 1.390 . S
C357 H350 0.950 . S
C357 C354 1.387 . S
C358 C359 1.387 . S
C358 H362 0.950 . S
C358 C367 1.390 1_556 S
C359 C358 1.387 . S
C359 C361 1.387 . S
H360 C367 0.950 . S
C361 C359 1.387 . S
C361 C363 1.390 1_556 S
C361 H365 0.950 . S
H362 C358 0.950 . S
C363 C361 1.390 1_554 S
C363 C364 1.387 . S
C363 H366 0.950 . S
C364 C363 1.387 . S
C364 C367 1.387 . S
H365 C361 0.950 . S
H366 C363 0.950 . S
C367 C358 1.390 1_554 S
C367 H360 0.950 . S
C367 C364 1.387 . S
C368 C369 1.387 1_455 S
C368 H372 0.950 . S
C368 C377 1.390 . S
C369 C368 1.387 1_655 S
C369 C371 1.387 . S
H370 C377 0.950 . S
C371 C369 1.387 . S
C371 C373 1.390 . S
C371 H375 0.950 . S
H372 C368 0.950 . S
C373 C371 1.390 . S
C373 C374 1.387 . S
C373 H376 0.950 . S
C374 C373 1.387 . S
C374 C377 1.387 1_655 S
H375 C371 0.950 . S
H376 C373 0.950 . S
C377 C368 1.390 . S
C377 H370 0.950 . S
C377 C374 1.387 1_455 S
C199 C25 0.667 . S
C204 N187 0.602 . S
C209 C65 0.797 . S
C214 N160 0.804 . S
C219 C105 0.832 . S
C224 N173 0.845 . S
C229 C4 0.907 . S
C234 N186 0.925 . S
C244 N161 0.974 . S
C239 C44 0.923 . S
C254 N174 0.949 . S
C249 C84 0.904 . S
C259 C60 2.958 . S
C264 N134 2.954 . S
C269 C100 2.923 . S
C274 N148 2.863 1_655 S
C279 C31 3.141 . S
C284 N122 3.113 . S
C294 N135 3.140 . S
C289 C71 3.154 . S
C304 N147 3.263 . S
C299 C111 3.225 . S
C309 C20 2.969 . S
C314 N121 2.964 . S
C324 N151 1.810 . S
C319 C2 1.805 . S
C329 C42 1.738 . S
C334 N125 1.819 . S
C339 C82 1.743 . S
C344 N138 1.835 . S
C354 N177 1.151 1_565 S
C349 C63 1.178 . S
C364 N190 1.120 . S
C359 C103 1.143 . S
C369 C23 1.140 1_655 S
C374 N164 1.130 . S
