# Generated by pormake.
# Topology ant, (3,6)-cn, num edge types: 1
# Building blocks:
#     Node 0, Type 0, BuildingBlock: QEWDON_clean_linker_0, # of connection points: 3
#     Node 1, Type 0, BuildingBlock: QEWDON_clean_linker_0, # of connection points: 3
#     Node 2, Type 0, BuildingBlock: QEWDON_clean_linker_0, # of connection points: 3
#     Node 3, Type 0, BuildingBlock: QEWDON_clean_linker_0, # of connection points: 3
#     Node 4, Type 0, BuildingBlock: QEWDON_clean_linker_0, # of connection points: 3
#     Node 5, Type 0, BuildingBlock: QEWDON_clean_linker_0, # of connection points: 3
#     Node 6, Type 0, BuildingBlock: QEWDON_clean_linker_0, # of connection points: 3
#     Node 7, Type 0, BuildingBlock: QEWDON_clean_linker_0, # of connection points: 3
#     Node 8, Type 1, BuildingBlock: MIDCAF_clean_sbu_0, # of connection points: 6
#     Node 9, Type 1, BuildingBlock: MIDCAF_clean_sbu_0, # of connection points: 6
#     Node 10, Type 1, BuildingBlock: MIDCAF_clean_sbu_0, # of connection points: 6
#     Node 11, Type 1, BuildingBlock: MIDCAF_clean_sbu_0, # of connection points: 6
#     Edge 12, Type (0, 1), BuildingBlock: UVAHIK_clean_linker_0, # of connection points: 2
#     Edge 13, Type (0, 1), BuildingBlock: UVAHIK_clean_linker_0, # of connection points: 2
#     Edge 14, Type (0, 1), BuildingBlock: UVAHIK_clean_linker_0, # of connection points: 2
#     Edge 15, Type (0, 1), BuildingBlock: UVAHIK_clean_linker_0, # of connection points: 2
#     Edge 16, Type (0, 1), BuildingBlock: UVAHIK_clean_linker_0, # of connection points: 2
#     Edge 17, Type (0, 1), BuildingBlock: UVAHIK_clean_linker_0, # of connection points: 2
#     Edge 18, Type (0, 1), BuildingBlock: UVAHIK_clean_linker_0, # of connection points: 2
#     Edge 19, Type (0, 1), BuildingBlock: UVAHIK_clean_linker_0, # of connection points: 2
#     Edge 20, Type (0, 1), BuildingBlock: UVAHIK_clean_linker_0, # of connection points: 2
#     Edge 21, Type (0, 1), BuildingBlock: UVAHIK_clean_linker_0, # of connection points: 2
#     Edge 22, Type (0, 1), BuildingBlock: UVAHIK_clean_linker_0, # of connection points: 2
#     Edge 23, Type (0, 1), BuildingBlock: UVAHIK_clean_linker_0, # of connection points: 2
#     Edge 24, Type (0, 1), BuildingBlock: UVAHIK_clean_linker_0, # of connection points: 2
#     Edge 25, Type (0, 1), BuildingBlock: UVAHIK_clean_linker_0, # of connection points: 2
#     Edge 26, Type (0, 1), BuildingBlock: UVAHIK_clean_linker_0, # of connection points: 2
#     Edge 27, Type (0, 1), BuildingBlock: UVAHIK_clean_linker_0, # of connection points: 2
#     Edge 28, Type (0, 1), BuildingBlock: UVAHIK_clean_linker_0, # of connection points: 2
#     Edge 29, Type (0, 1), BuildingBlock: UVAHIK_clean_linker_0, # of connection points: 2
#     Edge 30, Type (0, 1), BuildingBlock: UVAHIK_clean_linker_0, # of connection points: 2
#     Edge 31, Type (0, 1), BuildingBlock: UVAHIK_clean_linker_0, # of connection points: 2
#     Edge 32, Type (0, 1), BuildingBlock: UVAHIK_clean_linker_0, # of connection points: 2
#     Edge 33, Type (0, 1), BuildingBlock: UVAHIK_clean_linker_0, # of connection points: 2
#     Edge 34, Type (0, 1), BuildingBlock: UVAHIK_clean_linker_0, # of connection points: 2
#     Edge 35, Type (0, 1), BuildingBlock: UVAHIK_clean_linker_0, # of connection points: 2
# Relax obj value: 0.063
# Max RMSD: 0.161
# Mean RMSD: 0.132
data_MOF--net-ant--node1-MIDCAF_clean_sbu_0--node2-QEWDON_clean_linker_0--edge1-UVAHIK_clean_linker_0
_symmetry_space_group_name_H-M    P1
_symmetry_Int_Tables_number       1
_symmetry_cell_setting            triclinic
loop_
_symmetry_equiv_pos_as_xyz
'x, y, z'
_cell_length_a     39.174834
_cell_length_b     38.849916
_cell_length_c     89.680119
_cell_angle_alpha  96.327395
_cell_angle_beta   100.41142
_cell_angle_gamma 89.310735
loop_
_atom_site_label
_atom_site_type_symbol
_atom_site_fract_x
_atom_site_fract_y
_atom_site_fract_z
_atom_type_partial_charge
H0 H 0.14648 0.20331 0.07165 0.0
C1 C 0.1492 0.23122 0.07357 0.0
C2 C 0.14355 0.25025 0.06093 0.0
C3 C 0.15665 0.24807 0.08855 0.0
H4 H 0.1419 0.30097 0.05343 0.0
C5 C 0.14531 0.28658 0.06326 0.0
C6 C 0.1518 0.30437 0.07802 0.0
C7 C 0.15811 0.28475 0.09056 0.0
C8 C 0.16151 0.22765 0.10207 0.0
H9 H 0.16371 0.29818 0.10194 0.0
C10 C 0.17515 0.19363 0.10139 0.0
C11 C 0.17957 0.17498 0.11424 0.0
C12 C 0.15191 0.24201 0.11585 0.0
H13 H 0.13991 0.26718 0.11682 0.0
C14 C 0.15691 0.22383 0.12862 0.0
H15 H 0.18288 0.18166 0.09104 0.0
C16 C 0.17076 0.19066 0.12787 0.0
H17 H 0.17365 0.17679 0.13786 0.0
H18 H 0.14948 0.23534 0.1391 0.0
H19 H 0.05949 0.77573 0.32351 0.0
C20 C 0.08655 0.77228 0.32839 0.0
C21 C 0.10964 0.75999 0.3188 0.0
C22 C 0.09834 0.78105 0.34411 0.0
H23 H 0.16273 0.74735 0.31756 0.0
C24 C 0.14485 0.7565 0.32502 0.0
C25 C 0.15747 0.7659 0.34062 0.0
C26 C 0.13391 0.77767 0.35014 0.0
C27 C 0.07378 0.79592 0.35393 0.0
H28 H 0.14339 0.78501 0.36217 0.0
C29 C 0.03984 0.7824 0.35216 0.0
C30 C 0.01584 0.79821 0.36063 0.0
C31 C 0.08359 0.82496 0.36462 0.0
H32 H 0.10926 0.83631 0.36611 0.0
C33 C 0.05997 0.84044 0.37317 0.0
H34 H 0.03188 0.75995 0.34401 0.0
C35 C 0.02624 0.82736 0.37114 0.0
H36 H 0.0083 0.83986 0.37786 0.0
H37 H 0.06772 0.86292 0.38129 0.0
H38 H 0.60772 0.73161 0.56028 0.0
C39 C 0.61184 0.7594 0.56197 0.0
C40 C 0.6012 0.77892 0.54966 0.0
C41 C 0.62639 0.77583 0.57648 0.0
H42 H 0.59724 0.83002 0.54228 0.0
C43 C 0.60513 0.8151 0.55184 0.0
C44 C 0.62057 0.83194 0.56606 0.0
C45 C 0.6314 0.81208 0.57823 0.0
C46 C 0.63489 0.75585 0.59001 0.0
H47 H 0.64335 0.82513 0.5892 0.0
C48 C 0.64811 0.72174 0.58887 0.0
C49 C 0.6563 0.70385 0.60194 0.0
C50 C 0.62924 0.77111 0.60435 0.0
H51 H 0.61799 0.79661 0.60566 0.0
C52 C 0.63739 0.75353 0.61723 0.0
H53 H 0.65271 0.70937 0.57799 0.0
C54 C 0.65091 0.72027 0.61608 0.0
H55 H 0.65641 0.70701 0.62625 0.0
H56 H 0.63287 0.76565 0.62815 0.0
H57 H 0.5585 0.31597 0.81514 0.0
C58 C 0.58623 0.31531 0.81929 0.0
C59 C 0.60893 0.31234 0.80877 0.0
C60 C 0.59934 0.31895 0.83509 0.0
H61 H 0.66235 0.3102 0.80587 0.0
C62 C 0.6449 0.31285 0.81403 0.0
C63 C 0.6585 0.31524 0.82968 0.0
C64 C 0.6356 0.31799 0.84012 0.0
C65 C 0.57562 0.32549 0.84636 0.0
H66 H 0.64617 0.31983 0.85222 0.0
C67 C 0.54296 0.30877 0.84418 0.0
C68 C 0.52116 0.31519 0.85508 0.0
C69 C 0.58562 0.34923 0.85943 0.0
H70 H 0.60999 0.36329 0.86128 0.0
C71 C 0.56407 0.3557 0.87017 0.0
H72 H 0.53484 0.29019 0.83427 0.0
C73 C 0.53215 0.33878 0.86807 0.0
H74 H 0.51575 0.34458 0.87653 0.0
H75 H 0.57207 0.37409 0.88014 0.0
H76 H 0.03518 0.75175 0.93543 0.0
C77 C 0.03291 0.72641 0.92892 0.0
C78 C 0.04249 0.69688 0.93644 0.0
C79 C 0.01894 0.72325 0.91322 0.0
H80 H 0.04433 0.64108 0.93391 0.0
C81 C 0.03805 0.66404 0.92811 0.0
C82 C 0.02429 0.66028 0.91248 0.0
C83 C 0.01532 0.68991 0.90501 0.0
C84 C 0.00466 0.75423 0.90583 0.0
H85 H 0.00438 0.68687 0.89294 0.0
C86 C 0.02219 0.78657 0.90893 0.0
C87 C 0.00683 0.8161 0.90269 0.0
C88 C 0.97194 0.7519 0.89622 0.0
H89 H 0.95748 0.72773 0.89383 0.0
C90 C 0.95689 0.78095 0.88996 0.0
H91 H 0.04744 0.78888 0.91627 0.0
C92 C 0.97405 0.81284 0.8932 0.0
H93 H 0.96183 0.83498 0.88812 0.0
H94 H 0.93164 0.77881 0.88264 0.0
H95 H 0.68027 0.83226 0.19572 0.0
C96 C 0.65266 0.83125 0.19131 0.0
C97 C 0.6298 0.8359 0.20174 0.0
C98 C 0.64001 0.82593 0.17546 0.0
H99 H 0.57653 0.84066 0.20441 0.0
C100 C 0.59396 0.83647 0.1963 0.0
C101 C 0.58038 0.83055 0.18063 0.0
C102 C 0.60361 0.82489 0.17034 0.0
C103 C 0.66449 0.82152 0.16427 0.0
H104 H 0.59307 0.81872 0.15834 0.0
C105 C 0.69841 0.80822 0.16824 0.0
C106 C 0.721 0.80453 0.15759 0.0
C107 C 0.65419 0.83126 0.14943 0.0
H108 H 0.62923 0.84296 0.14596 0.0
C109 C 0.67624 0.8268 0.13879 0.0
H110 H 0.7074 0.80022 0.17945 0.0
C111 C 0.70935 0.81343 0.1428 0.0
H112 H 0.72632 0.81104 0.13445 0.0
H113 H 0.66782 0.83432 0.12745 0.0
H114 H 0.61012 0.2144 0.42138 0.0
C115 C 0.61789 0.18814 0.41817 0.0
C116 C 0.63334 0.16769 0.42953 0.0
C117 C 0.61076 0.17425 0.40277 0.0
H118 H 0.65406 0.11755 0.434 0.0
C119 C 0.64251 0.13346 0.42525 0.0
C120 C 0.63506 0.11887 0.40997 0.0
C121 C 0.61959 0.13965 0.39878 0.0
C122 C 0.59108 0.1946 0.39101 0.0
H123 H 0.61316 0.12855 0.38699 0.0
C124 C 0.6002 0.22918 0.39 0.0
C125 C 0.58141 0.24789 0.37862 0.0
C126 C 0.56255 0.17925 0.38073 0.0
H127 H 0.55455 0.15296 0.38141 0.0
C128 C 0.54362 0.1978 0.36963 0.0
H129 H 0.62239 0.24109 0.39776 0.0
C130 C 0.55291 0.2318 0.36855 0.0
H131 H 0.53747 0.24568 0.35989 0.0
H132 H 0.52154 0.18579 0.36185 0.0
H133 H 0.17688 0.32725 0.69028 0.0
C134 C 0.14952 0.32924 0.68564 0.0
C135 C 0.12543 0.32529 0.69517 0.0
C136 C 0.13848 0.33692 0.67052 0.0
H137 H 0.0715 0.32604 0.69706 0.0
C138 C 0.08997 0.32956 0.68969 0.0
C139 C 0.07806 0.33706 0.67467 0.0
C140 C 0.10243 0.34002 0.6651 0.0
C141 C 0.16442 0.34276 0.66059 0.0
H142 H 0.09313 0.34514 0.65345 0.0
C143 C 0.19716 0.32626 0.66239 0.0
C144 C 0.2212 0.33231 0.653 0.0
C145 C 0.15682 0.36574 0.64932 0.0
H146 H 0.13287 0.38015 0.64788 0.0
C147 C 0.18038 0.37119 0.63986 0.0
H148 H 0.20398 0.30828 0.67083 0.0
C149 C 0.21228 0.35452 0.64162 0.0
H150 H 0.23042 0.35962 0.63431 0.0
H151 H 0.17405 0.38883 0.63124 0.0
Zn152 Zn 0.18279 0.70346 0.14738 0.0
Zn153 Zn 0.09549 0.78828 0.11901 0.0
Zn154 Zn 0.14035 0.7456 0.13217 0.0
C155 C 0.10108 0.73028 0.09762 0.0
C156 C 0.15815 0.82424 0.12635 0.0
O157 O 0.12091 0.73649 0.1532 0.0
O158 O 0.15688 0.6985 0.16412 0.0
C159 C 0.16033 0.66762 0.11881 0.0
O160 O 0.1231 0.72025 0.10875 0.0
O161 O 0.08534 0.7586 0.09934 0.0
O162 O 0.12673 0.82843 0.12066 0.0
O163 O 0.16852 0.79508 0.13116 0.0
O164 O 0.18157 0.66481 0.13098 0.0
O165 O 0.14251 0.69558 0.11717 0.0
O166 O 0.19212 0.77219 0.13858 0.0
O167 O 0.22352 0.73481 0.1521 0.0
C168 C 0.22106 0.76345 0.14659 0.0
O169 O 0.09438 0.7538 0.14412 0.0
O170 O 0.05983 0.79115 0.13192 0.0
C171 C 0.1306 0.71762 0.16417 0.0
C172 C 0.06616 0.77167 0.1424 0.0
Zn173 Zn 0.56311 0.66266 0.34046 0.0
Zn174 Zn 0.63191 0.68063 0.3878 0.0
Zn175 Zn 0.59419 0.68441 0.36562 0.0
C176 C 0.62985 0.75018 0.38141 0.0
C177 C 0.67263 0.68402 0.3667 0.0
O178 O 0.6066 0.63085 0.3655 0.0
O179 O 0.57603 0.61252 0.34309 0.0
C180 C 0.51591 0.6982 0.35843 0.0
O181 O 0.62458 0.73262 0.36809 0.0
O182 O 0.63043 0.73393 0.39295 0.0
O183 O 0.67156 0.66322 0.3766 0.0
O184 O 0.64533 0.70177 0.36241 0.0
O185 O 0.51776 0.68253 0.34544 0.0
O186 O 0.54309 0.70162 0.36883 0.0
O187 O 0.61517 0.71831 0.35109 0.0
O188 O 0.58949 0.69146 0.32888 0.0
C189 C 0.60909 0.71544 0.33637 0.0
O190 O 0.56659 0.69541 0.38449 0.0
O191 O 0.59602 0.65414 0.39588 0.0
C192 C 0.59569 0.60606 0.3553 0.0
C193 C 0.57077 0.67504 0.39504 0.0
Zn194 Zn 0.5893 0.30504 0.60565 0.0
Zn195 Zn 0.68157 0.23715 0.63998 0.0
Zn196 Zn 0.63691 0.27297 0.62176 0.0
C197 C 0.71578 0.2978 0.63563 0.0
C198 C 0.66264 0.19466 0.61241 0.0
O199 O 0.58873 0.27795 0.63245 0.0
O200 O 0.54834 0.29463 0.61417 0.0
C201 C 0.64373 0.35219 0.61638 0.0
O202 O 0.68606 0.30383 0.62753 0.0
O203 O 0.72044 0.27074 0.64233 0.0
O204 O 0.68157 0.19504 0.62542 0.0
O205 O 0.6445 0.22151 0.60885 0.0
O206 O 0.61152 0.3515 0.61123 0.0
O207 O 0.65964 0.32422 0.61998 0.0
O208 O 0.62687 0.24347 0.59874 0.0
O209 O 0.59274 0.27969 0.58573 0.0
C210 C 0.61006 0.2521 0.58599 0.0
O211 O 0.61647 0.2668 0.64287 0.0
O212 O 0.65538 0.23624 0.65694 0.0
C213 C 0.55665 0.28439 0.62717 0.0
C214 C 0.62705 0.25236 0.65516 0.0
Zn215 Zn 0.06756 0.18451 0.85146 0.0
Zn216 Zn 0.13289 0.27226 0.89043 0.0
Zn217 Zn 0.09895 0.23144 0.8717 0.0
C218 C 0.10878 0.22613 0.90685 0.0
C219 C 0.0814 0.3107 0.87595 0.0
O220 O 0.12557 0.22828 0.85188 0.0
O221 O 0.08973 0.19539 0.83421 0.0
C222 C 0.09246 0.15003 0.87621 0.0
O223 O 0.10634 0.20868 0.89363 0.0
O224 O 0.11551 0.25814 0.9084 0.0
O225 O 0.11316 0.31466 0.88168 0.0
O226 O 0.06817 0.27994 0.87307 0.0
O227 O 0.08351 0.14325 0.86196 0.0
O228 O 0.09645 0.1818 0.88224 0.0
O229 O 0.04677 0.25262 0.86514 0.0
O230 O 0.0206 0.20433 0.85348 0.0
C231 C 0.01888 0.23561 0.85896 0.0
O232 O 0.15003 0.24 0.86463 0.0
O233 O 0.18017 0.25769 0.88732 0.0
C234 C 0.11608 0.21497 0.83793 0.0
C235 C 0.17954 0.24709 0.87345 0.0
C236 C 0.17193 0.36244 0.09274 0.0
C237 C 0.15088 0.34329 0.08022 0.0
C238 C 0.17017 0.39868 0.09487 0.0
C239 C 0.15601 0.47533 0.07608 0.0
H240 H 0.12457 0.51999 0.112 0.0
C241 C 0.18223 0.61792 0.1034 0.0
C242 C 0.15385 0.63645 0.10766 0.0
C243 C 0.17828 0.5834 0.09695 0.0
C244 C 0.13308 0.50784 0.10184 0.0
H245 H 0.111 0.34833 0.06027 0.0
H246 H 0.10975 0.4114 0.06362 0.0
H247 H 0.1266 0.45655 0.1078 0.0
H248 H 0.09883 0.6341 0.10793 0.0
H249 H 0.09206 0.57315 0.09703 0.0
H250 H 0.16418 0.52671 0.07053 0.0
C251 C 0.12732 0.39801 0.07178 0.0
C252 C 0.1345 0.47165 0.09953 0.0
C253 C 0.12838 0.36177 0.06983 0.0
C254 C 0.12095 0.62056 0.10447 0.0
C255 C 0.11718 0.58565 0.09841 0.0
C256 C 0.15544 0.5116 0.0786 0.0
C257 C 0.14798 0.41675 0.08437 0.0
C258 C 0.14605 0.45508 0.08665 0.0
C259 C 0.14607 0.56647 0.09506 0.0
C260 C 0.14394 0.52819 0.09151 0.0
H261 H 0.1901 0.34959 0.10086 0.0
H262 H 0.18652 0.41268 0.10464 0.0
H263 H 0.16504 0.46307 0.06607 0.0
H264 H 0.20795 0.62947 0.10597 0.0
H265 H 0.20099 0.56919 0.09455 0.0
C266 C 0.95162 0.80734 0.35599 0.0
C267 C 0.97981 0.78476 0.35848 0.0
C268 C 0.91765 0.79522 0.35467 0.0
C269 C 0.86398 0.71419 0.34953 0.0
H270 H 0.80003 0.77572 0.36744 0.0
C271 C 0.73507 0.67074 0.36564 0.0
C272 C 0.70602 0.69198 0.36223 0.0
C273 C 0.76758 0.68056 0.36306 0.0
C274 C 0.81745 0.75838 0.36222 0.0
H275 H 0.9947 0.73176 0.36138 0.0
H276 H 0.9355 0.71065 0.35966 0.0
H277 H 0.8585 0.79578 0.36737 0.0
H278 H 0.68817 0.73965 0.35294 0.0
H279 H 0.74489 0.75682 0.34856 0.0
H280 H 0.82289 0.67632 0.34503 0.0
C281 C 0.93937 0.73758 0.35829 0.0
C282 C 0.85104 0.7699 0.36212 0.0
C283 C 0.97336 0.74965 0.35937 0.0
C284 C 0.70993 0.7226 0.35565 0.0
C285 C 0.74248 0.7326 0.35324 0.0
C286 C 0.83046 0.7025 0.34984 0.0
C287 C 0.91101 0.76028 0.35608 0.0
C288 C 0.87486 0.748 0.35578 0.0
C289 C 0.77176 0.71202 0.35719 0.0
C290 C 0.80687 0.7245 0.3562 0.0
H291 H 0.95588 0.83446 0.35504 0.0
H292 H 0.8966 0.81337 0.35256 0.0
H293 H 0.88128 0.69672 0.34431 0.0
H294 H 0.73288 0.64697 0.3707 0.0
H295 H 0.78974 0.66428 0.36627 0.0
C296 C 0.6967 0.65814 0.61228 0.0
C297 C 0.66918 0.66761 0.60114 0.0
C298 C 0.70475 0.62331 0.61351 0.0
C299 C 0.69378 0.5515 0.62183 0.0
H300 H 0.68402 0.47811 0.58832 0.0
C301 C 0.64758 0.41441 0.62589 0.0
C302 C 0.66175 0.38586 0.61822 0.0
C303 C 0.65831 0.448 0.62483 0.0
C304 C 0.68747 0.49831 0.59781 0.0
H305 H 0.63002 0.64803 0.58192 0.0
H306 H 0.64386 0.587 0.58411 0.0
H307 H 0.68461 0.53864 0.58309 0.0
H308 H 0.69909 0.36964 0.60384 0.0
H309 H 0.71772 0.429 0.60171 0.0
H310 H 0.69545 0.51135 0.6365 0.0
C311 C 0.65945 0.60655 0.59183 0.0
C312 C 0.68739 0.533 0.5948 0.0
C313 C 0.65147 0.64153 0.59056 0.0
C314 C 0.68819 0.39132 0.61003 0.0
C315 C 0.69851 0.4252 0.60869 0.0
C316 C 0.69364 0.51695 0.62481 0.0
C317 C 0.6854 0.59699 0.60367 0.0
C318 C 0.68977 0.56005 0.60676 0.0
C319 C 0.68302 0.45391 0.6158 0.0
C320 C 0.6896 0.48997 0.61283 0.0
H321 H 0.71117 0.67772 0.62044 0.0
H322 H 0.72541 0.61696 0.62253 0.0
H323 H 0.69531 0.57154 0.63133 0.0
H324 H 0.62686 0.41079 0.63212 0.0
H325 H 0.6456 0.46946 0.63031 0.0
C326 C 0.71893 0.33547 0.82931 0.0
C327 C 0.69664 0.31425 0.835 0.0
C328 C 0.75496 0.33324 0.83369 0.0
C329 C 0.82401 0.29547 0.86184 0.0
H330 H 0.88009 0.3033 0.83086 0.0
C331 C 0.95708 0.23147 0.86161 0.0
C332 C 0.98433 0.25138 0.85869 0.0
C333 C 0.92362 0.24483 0.86052 0.0
C334 C 0.86483 0.3016 0.8397 0.0
H335 H 0.6945 0.27416 0.84976 0.0
H336 H 0.75719 0.26918 0.85699 0.0
H337 H 0.81813 0.31521 0.82532 0.0
H338 H 0.99811 0.30076 0.85229 0.0
H339 H 0.93887 0.3241 0.84998 0.0
H340 H 0.87068 0.27974 0.87582 0.0
C341 C 0.74711 0.28844 0.84952 0.0
C342 C 0.82924 0.3085 0.83657 0.0
C343 C 0.71108 0.29109 0.84532 0.0
C344 C 0.97758 0.28514 0.85479 0.0
C345 C 0.94377 0.29833 0.85338 0.0
C346 C 0.85945 0.28801 0.86485 0.0
C347 C 0.76965 0.3093 0.84368 0.0
C348 C 0.80815 0.30494 0.8475 0.0
C349 C 0.91646 0.27816 0.85618 0.0
C350 C 0.88009 0.29048 0.85373 0.0
H351 H 0.70843 0.35384 0.82145 0.0
H352 H 0.77125 0.35028 0.82918 0.0
H353 H 0.80899 0.29329 0.87071 0.0
H354 H 0.96164 0.20535 0.86464 0.0
H355 H 0.90303 0.22861 0.86259 0.0
C356 C 0.99628 0.60205 0.9097 0.0
C357 C 0.01757 0.62499 0.90441 0.0
C358 C 0.99298 0.56742 0.90347 0.0
C359 C 0.01456 0.5044 0.87176 0.0
H360 H 0.01715 0.43945 0.90182 0.0
C361 C 0.07479 0.36912 0.86724 0.0
C362 C 0.06055 0.34203 0.87334 0.0
C363 C 0.05996 0.40196 0.86784 0.0
C364 C 0.01562 0.4571 0.89318 0.0
H365 H 0.05114 0.63031 0.88813 0.0
H366 H 0.04654 0.56944 0.8775 0.0
H367 H 0.01028 0.50074 0.90921 0.0
H368 H 0.01873 0.32731 0.88419 0.0
H369 H 0.9927 0.38522 0.88543 0.0
H370 H 0.02206 0.46047 0.856 0.0
C371 C 0.0316 0.5782 0.88622 0.0
C372 C 0.01168 0.49243 0.89742 0.0
C373 C 0.03444 0.61308 0.89233 0.0
C374 C 0.02992 0.34774 0.87926 0.0
C375 C 0.01527 0.38089 0.88007 0.0
C376 C 0.01887 0.46902 0.86757 0.0
C377 C 0.01144 0.55468 0.89196 0.0
C378 C 0.01181 0.51673 0.88686 0.0
C379 C 0.03085 0.40861 0.87481 0.0
C380 C 0.02018 0.44506 0.87833 0.0
H381 H 0.98273 0.61081 0.91893 0.0
H382 H 0.9765 0.55048 0.90793 0.0
H383 H 0.01407 0.52214 0.86323 0.0
H384 H 0.09856 0.36533 0.8627 0.0
H385 H 0.07282 0.42271 0.86382 0.0
C386 C 0.77124 0.76683 0.15291 0.0
C387 C 0.75754 0.79353 0.16193 0.0
C388 C 0.8069 0.76023 0.15542 0.0
C389 C 0.88744 0.80719 0.16685 0.0
H390 H 0.93142 0.71731 0.16717 0.0
C391 C 0.03007 0.79685 0.16091 0.0
C392 C 0.03917 0.76809 0.15162 0.0
C393 C 0.99903 0.79691 0.16654 0.0
C394 C 0.91964 0.74262 0.16694 0.0
H395 H 0.7701 0.83342 0.18095 0.0
H396 H 0.83273 0.82244 0.18511 0.0
H397 H 0.86973 0.72226 0.16846 0.0
H398 H 0.02391 0.71646 0.14124 0.0
H399 H 0.96883 0.71696 0.15024 0.0
H400 H 0.93583 0.82757 0.16413 0.0
C401 C 0.81576 0.80636 0.17624 0.0
C402 C 0.88429 0.74541 0.16781 0.0
C403 C 0.77998 0.81251 0.17393 0.0
C404 C 0.01763 0.73869 0.14864 0.0
C405 C 0.98598 0.7391 0.15386 0.0
C406 C 0.92245 0.80436 0.16564 0.0
C407 C 0.82965 0.78066 0.1668 0.0
C408 C 0.86778 0.7777 0.1676 0.0
C409 C 0.97553 0.76879 0.1624 0.0
C410 C 0.93912 0.77196 0.16546 0.0
H411 H 0.75446 0.75189 0.14357 0.0
H412 H 0.81691 0.74045 0.14789 0.0
H413 H 0.87527 0.83234 0.16641 0.0
H414 H 0.04632 0.81989 0.16328 0.0
H415 H 0.99281 0.81979 0.17354 0.0
C416 C 0.59943 0.3088 0.38986 0.0
C417 C 0.59102 0.28409 0.37704 0.0
C418 C 0.60489 0.3436 0.38806 0.0
C419 C 0.57948 0.40529 0.35997 0.0
H420 H 0.65219 0.46463 0.38446 0.0
C421 C 0.59695 0.54319 0.34585 0.0
C422 C 0.60326 0.56962 0.35805 0.0
C423 C 0.59973 0.50844 0.3485 0.0
C424 C 0.63154 0.44847 0.37762 0.0
H425 H 0.58431 0.27612 0.35236 0.0
H426 H 0.59355 0.33653 0.34923 0.0
H427 H 0.64914 0.40364 0.38878 0.0
H428 H 0.6189 0.58031 0.38257 0.0
H429 H 0.62301 0.51949 0.38725 0.0
H430 H 0.56122 0.44975 0.34903 0.0
C431 C 0.5952 0.32925 0.36066 0.0
C432 C 0.62985 0.41355 0.3801 0.0
C433 C 0.58987 0.29463 0.36246 0.0
C434 C 0.61395 0.56052 0.37292 0.0
C435 C 0.61638 0.52563 0.3756 0.0
C436 C 0.58101 0.44005 0.35758 0.0
C437 C 0.60197 0.35429 0.3734 0.0
C438 C 0.60395 0.39153 0.37118 0.0
C439 C 0.60845 0.49915 0.36344 0.0
C440 C 0.60723 0.4621 0.36625 0.0
H441 H 0.60037 0.30153 0.40125 0.0
H442 H 0.60996 0.36233 0.39809 0.0
H443 H 0.55872 0.38922 0.35315 0.0
H444 H 0.58908 0.54932 0.33424 0.0
H445 H 0.59439 0.48881 0.33881 0.0
C446 C 0.02382 0.3277 0.65452 0.0
C447 C 0.04014 0.34179 0.66917 0.0
C448 C 0.98783 0.33056 0.64984 0.0
C449 C 0.90798 0.34127 0.66602 0.0
H450 H 0.86413 0.35823 0.62518 0.0
C451 C 0.76016 0.33913 0.65048 0.0
C452 C 0.74623 0.32021 0.63653 0.0
C453 C 0.79484 0.35017 0.65348 0.0
C454 C 0.87591 0.3533 0.63662 0.0
H455 H 0.03142 0.3716 0.69005 0.0
H456 H 0.96892 0.37624 0.68198 0.0
H457 H 0.92746 0.35974 0.63224 0.0
H458 H 0.75673 0.29933 0.61449 0.0
H459 H 0.81739 0.31793 0.61969 0.0
H460 H 0.85706 0.33344 0.67036 0.0
C461 C 0.98382 0.36247 0.67419 0.0
C462 C 0.91225 0.35416 0.64066 0.0
C463 C 0.01969 0.35972 0.67882 0.0
C464 C 0.76673 0.31464 0.6252 0.0
C465 C 0.80162 0.3252 0.62826 0.0
C466 C 0.87183 0.34016 0.66198 0.0
C467 C 0.96732 0.34749 0.65973 0.0
C468 C 0.92872 0.34798 0.6554 0.0
C469 C 0.81661 0.34165 0.64272 0.0
C470 C 0.85516 0.34598 0.6472 0.0
H471 H 0.03866 0.31347 0.64683 0.0
H472 H 0.97592 0.31845 0.63869 0.0
H473 H 0.91975 0.33574 0.67739 0.0
H474 H 0.74494 0.34322 0.65948 0.0
H475 H 0.80508 0.36363 0.66458 0.0
C476 C 0.26754 0.29718 0.64288 0.0
C477 C 0.25622 0.31669 0.65517 0.0
C478 C 0.30211 0.28672 0.64408 0.0
C479 C 0.38839 0.31605 0.66226 0.0
H480 H 0.41643 0.22641 0.64517 0.0
C481 C 0.52743 0.2953 0.64999 0.0
C482 C 0.52844 0.27818 0.63547 0.0
C483 C 0.4972 0.29418 0.65631 0.0
C484 C 0.40912 0.25163 0.64997 0.0
H485 H 0.27172 0.33988 0.67846 0.0
H486 H 0.33271 0.3222 0.68047 0.0
H487 H 0.35649 0.23522 0.6487 0.0
H488 H 0.49941 0.24579 0.61632 0.0
H489 H 0.44694 0.24413 0.62702 0.0
H490 H 0.44021 0.33328 0.6626 0.0
C491 C 0.31466 0.31467 0.66999 0.0
C492 C 0.37478 0.25659 0.65204 0.0
C493 C 0.27982 0.32457 0.66888 0.0
C494 C 0.4994 0.25887 0.62764 0.0
C495 C 0.46933 0.25776 0.63386 0.0
C496 C 0.42266 0.31125 0.66 0.0
C497 C 0.32627 0.29612 0.6575 0.0
C498 C 0.36379 0.28912 0.65778 0.0
C499 C 0.46738 0.27614 0.64811 0.0
C500 C 0.4332 0.27929 0.65333 0.0
H501 H 0.24983 0.29095 0.63217 0.0
H502 H 0.31032 0.27277 0.63421 0.0
H503 H 0.38063 0.3415 0.66662 0.0
H504 H 0.54904 0.31135 0.65598 0.0
H505 H 0.49679 0.30848 0.66734 0.0
C506 C 0.52003 0.81539 0.18385 0.0
C507 C 0.54193 0.82956 0.17523 0.0
C508 C 0.484 0.81636 0.17952 0.0
C509 C 0.41293 0.81905 0.14753 0.0
H510 H 0.36017 0.84943 0.17917 0.0
C511 C 0.26308 0.80198 0.13785 0.0
C512 C 0.25245 0.78566 0.14948 0.0
C513 C 0.29665 0.81634 0.14004 0.0
C514 C 0.37443 0.8409 0.17017 0.0
H515 H 0.54256 0.85486 0.15487 0.0
H516 H 0.47925 0.85532 0.147 0.0
H517 H 0.42323 0.85498 0.18449 0.0
H518 H 0.2674 0.77346 0.17274 0.0
H519 H 0.3251 0.79839 0.17661 0.0
H520 H 0.36422 0.8031 0.13347 0.0
C521 C 0.49037 0.84398 0.15728 0.0
C522 C 0.41056 0.84411 0.17323 0.0
C523 C 0.52661 0.84352 0.16176 0.0
C524 C 0.27491 0.78595 0.16359 0.0
C525 C 0.30802 0.80046 0.16582 0.0
C526 C 0.37665 0.81547 0.14449 0.0
C527 C 0.46874 0.83095 0.16628 0.0
C528 C 0.43028 0.83221 0.16212 0.0
C529 C 0.31981 0.81495 0.15396 0.0
C530 C 0.35708 0.82526 0.15597 0.0
H531 H 0.53067 0.80342 0.19402 0.0
H532 H 0.46799 0.80537 0.18649 0.0
H533 H 0.42752 0.80966 0.13875 0.0
H534 H 0.2464 0.80166 0.1268 0.0
H535 H 0.30484 0.82752 0.13071 0.0
C536 C 0.46264 0.29769 0.83948 0.0
C537 C 0.48679 0.29782 0.85314 0.0
C538 C 0.42876 0.28516 0.83848 0.0
C539 C 0.37431 0.23314 0.85787 0.0
H540 H 0.30003 0.29387 0.84251 0.0
C541 C 0.24352 0.23809 0.87803 0.0
C542 C 0.21287 0.24393 0.86781 0.0
C543 C 0.27574 0.23841 0.87348 0.0
C544 C 0.32033 0.2762 0.84656 0.0
H545 H 0.49508 0.28321 0.87614 0.0
H546 H 0.43636 0.26149 0.87445 0.0
H547 H 0.35927 0.30539 0.83934 0.0
H548 H 0.19219 0.25458 0.8448 0.0
H549 H 0.24858 0.25489 0.83667 0.0
H550 H 0.33563 0.20466 0.86555 0.0
C551 C 0.44333 0.27095 0.86447 0.0
C552 C 0.35433 0.28281 0.84474 0.0
C553 C 0.47694 0.28369 0.8655 0.0
C554 C 0.21516 0.2493 0.85279 0.0
C555 C 0.24755 0.24992 0.84823 0.0
C556 C 0.34038 0.22654 0.85968 0.0
C557 C 0.41858 0.27213 0.85107 0.0
C558 C 0.38189 0.26196 0.85079 0.0
C559 C 0.27829 0.24486 0.85859 0.0
C560 C 0.31313 0.2486 0.85447 0.0
H561 H 0.46949 0.30858 0.82979 0.0
H562 H 0.41039 0.28618 0.82796 0.0
H563 H 0.39481 0.21616 0.86239 0.0
H564 H 0.24268 0.23391 0.8897 0.0
H565 H 0.29882 0.23495 0.88185 0.0
C566 C 0.20875 0.75241 0.36057 0.0
C567 C 0.1955 0.76509 0.34659 0.0
C568 C 0.24471 0.75044 0.36563 0.0
C569 C 0.32937 0.78215 0.35838 0.0
H570 H 0.36613 0.69713 0.37369 0.0
C571 C 0.45927 0.72454 0.34881 0.0
C572 C 0.48215 0.71263 0.36106 0.0
C573 C 0.42626 0.73608 0.35054 0.0
C574 C 0.35625 0.72131 0.36973 0.0
H575 H 0.20971 0.78716 0.32735 0.0
H576 H 0.27176 0.78278 0.33583 0.0
H577 H 0.30363 0.70764 0.37013 0.0
H578 H 0.48863 0.70379 0.38484 0.0
H579 H 0.42975 0.72305 0.38775 0.0
H580 H 0.38177 0.79467 0.35704 0.0
C581 C 0.25469 0.77466 0.34305 0.0
C582 C 0.32044 0.72739 0.36769 0.0
C583 C 0.21896 0.77665 0.33804 0.0
C584 C 0.47152 0.71302 0.37524 0.0
C585 C 0.43791 0.72386 0.37688 0.0
C586 C 0.36498 0.77587 0.36025 0.0
C587 C 0.26815 0.76132 0.35686 0.0
C588 C 0.30643 0.75736 0.36148 0.0
C589 C 0.41499 0.73539 0.3645 0.0
C590 C 0.37864 0.74494 0.36549 0.0
H591 H 0.19137 0.74326 0.36742 0.0
H592 H 0.25413 0.74029 0.37638 0.0
H593 H 0.31967 0.80595 0.35398 0.0
H594 H 0.46682 0.72466 0.33777 0.0
H595 H 0.40903 0.7445 0.34077 0.0
C596 C 0.59847 0.89227 0.5626 0.0
C597 C 0.62538 0.87026 0.56825 0.0
C598 C 0.60262 0.92834 0.56526 0.0
C599 C 0.65586 0.9955 0.59165 0.0
H600 H 0.61727 0.05768 0.56203 0.0
C601 C 0.68832 0.13901 0.60362 0.0
C602 C 0.66014 0.16184 0.60216 0.0
C603 C 0.68439 0.10474 0.59706 0.0
C604 C 0.62802 0.04061 0.57043 0.0
H605 H 0.67829 0.86892 0.5805 0.0
H606 H 0.68579 0.93156 0.58495 0.0
H607 H 0.60989 0.99489 0.55552 0.0
H608 H 0.60642 0.16746 0.59157 0.0
H609 H 0.59937 0.10699 0.58005 0.0
H610 H 0.67396 0.04081 0.60655 0.0
C611 C 0.66106 0.92111 0.57882 0.0
C612 C 0.62375 0.00464 0.56673 0.0
C613 C 0.65683 0.88514 0.57626 0.0
C614 C 0.62861 0.15044 0.59286 0.0
C615 C 0.62457 0.1158 0.58631 0.0
C616 C 0.66026 0.0312 0.59528 0.0
C617 C 0.63386 0.94326 0.57357 0.0
C618 C 0.63786 0.98161 0.57729 0.0
C619 C 0.65207 0.09224 0.58894 0.0
C620 C 0.64669 0.05425 0.5847 0.0
H621 H 0.57383 0.88159 0.55648 0.0
H622 H 0.58098 0.9445 0.56118 0.0
H623 H 0.66625 0.97878 0.60025 0.0
H624 H 0.7131 0.14718 0.61054 0.0
H625 H 0.70636 0.08755 0.59893 0.0
C626 C 0.21843 0.12825 0.12472 0.0
C627 C 0.19149 0.13846 0.11353 0.0
C628 C 0.22592 0.09316 0.12568 0.0
C629 C 0.20427 1.00352 0.10579 0.0
H630 H 0.22473 0.97846 0.1471 0.0
C631 C 0.19953 0.86049 0.11666 0.0
C632 C 0.18125 0.85458 0.12823 0.0
C633 C 0.21145 0.8939 0.1156 0.0
C634 C 0.21896 0.98488 0.13547 0.0
H635 H 0.15207 0.12012 0.09424 0.0
H636 H 0.16412 0.05887 0.09613 0.0
H637 H 0.22338 0.03902 0.14284 0.0
H638 H 0.16216 0.87817 0.14805 0.0
H639 H 0.18251 0.93614 0.1463 0.0
H640 H 0.19725 0.94938 0.09851 0.0
C641 C 0.18029 0.07777 0.10398 0.0
C642 C 0.21869 0.01982 0.13298 0.0
C643 C 0.17322 0.11295 0.10287 0.0
C644 C 0.17701 0.88198 0.13926 0.0
C645 C 0.18867 0.91531 0.13819 0.0
C646 C 0.20411 0.96855 0.10829 0.0
C647 C 0.20617 0.06728 0.11566 0.0
C648 C 0.21054 0.02979 0.11811 0.0
C649 C 0.20478 0.92211 0.12597 0.0
C650 C 0.21058 0.95874 0.1232 0.0
H651 H 0.23308 0.14746 0.13302 0.0
H652 H 0.24667 0.08637 0.13456 0.0
H653 H 0.19862 0.00992 0.09415 0.0
H654 H 0.20241 0.83985 0.10782 0.0
H655 H 0.22431 0.89791 0.1062 0.0
C656 C 0.65185 0.06865 0.39239 0.0
C657 C 0.64056 0.0812 0.406 0.0
C658 C 0.656 0.03303 0.38868 0.0
C659 C 0.66962 0.95145 0.4061 0.0
H660 H 0.62404 0.90659 0.36691 0.0
C661 C 0.63514 0.80725 0.39736 0.0
C662 C 0.63718 0.78779 0.38341 0.0
C663 C 0.64052 0.84299 0.39926 0.0
C664 C 0.6375 0.91874 0.37779 0.0
H665 H 0.62372 0.06573 0.4261 0.0
H666 H 0.63196 0.00422 0.41986 0.0
H667 H 0.62479 0.96983 0.37168 0.0
H668 H 0.6478 0.79033 0.36069 0.0
H669 H 0.65716 0.85311 0.36395 0.0
H670 H 0.68199 0.90067 0.41237 0.0
C671 C 0.63805 0.02191 0.41216 0.0
C672 C 0.63788 0.95494 0.38052 0.0
C673 C 0.6335 0.05727 0.41576 0.0
C674 C 0.6454 0.80478 0.37146 0.0
C675 C 0.65082 0.84069 0.37335 0.0
C676 C 0.66946 0.9154 0.40336 0.0
C677 C 0.64933 0.00938 0.3986 0.0
C678 C 0.65308 0.97155 0.39486 0.0
C679 C 0.6483 0.86022 0.38728 0.0
C680 C 0.65249 0.89855 0.38934 0.0
H681 H 0.65771 0.08633 0.38465 0.0
H682 H 0.66478 0.02401 0.37816 0.0
H683 H 0.68206 0.96363 0.41717 0.0
H684 H 0.62863 0.79496 0.40677 0.0
H685 H 0.63769 0.85724 0.41004 0.0
C686 C 0.00645 0.88028 0.90997 0.0
C687 C 0.02459 0.85045 0.90566 0.0
C688 C 0.021 0.91325 0.91064 0.0
C689 C 0.07969 0.95803 0.89208 0.0
H690 H 0.07096 0.03533 0.92239 0.0
C691 C 0.11866 0.09353 0.88196 0.0
C692 C 0.0967 0.12076 0.88552 0.0
C693 C 0.11684 0.0618 0.88776 0.0
C694 C 0.07339 0.01415 0.91375 0.0
H695 H 0.07278 0.83168 0.89932 0.0
H696 H 0.0982 0.88946 0.9003 0.0
H697 H 0.05443 0.97701 0.92642 0.0
H698 H 0.05676 0.13706 0.89847 0.0
H699 H 0.05227 0.08118 0.90817 0.0
H700 H 0.09652 0.9947 0.87891 0.0
C701 C 0.07269 0.88726 0.90319 0.0
C702 C 0.06408 0.98067 0.91612 0.0
C703 C 0.05829 0.8542 0.90273 0.0
C704 C 0.07425 0.11648 0.89573 0.0
C705 C 0.07175 0.08434 0.90126 0.0
C706 C 0.08849 0.99142 0.8896 0.0
C707 C 0.05388 0.91719 0.90683 0.0
C708 C 0.06684 0.95227 0.90523 0.0
C709 C 0.09208 0.05606 0.89685 0.0
C710 C 0.08524 0.02014 0.90032 0.0
H711 H 0.98047 0.87813 0.91237 0.0
H712 H 0.00574 0.93572 0.91338 0.0
H713 H 0.08149 0.93688 0.88332 0.0
H714 H 0.13621 0.0963 0.87411 0.0
H715 H 0.13388 0.04128 0.88453 0.0
C716 C 0.15426 0.20428 0.04021 0.0
C717 C 0.1348 0.23253 0.04515 0.0
C718 C 0.14756 0.18977 0.02494 0.0
C719 C 0.08249 0.18824 0.98891 0.0
H720 H 0.16285 0.1813 0.9691 0.0
C721 C 0.08309 0.22778 0.93011 0.0
C722 C 0.10318 0.21007 0.92033 0.0
C723 C 0.08238 0.21713 0.94437 0.0
C724 C 0.14014 0.18212 0.97446 0.0
H725 H 0.09187 0.26641 0.03823 0.0
H726 H 0.08047 0.24162 0.01172 0.0
H727 H 0.17097 0.18807 0.99689 0.0
H728 H 0.13696 0.16635 0.91732 0.0
H729 H 0.13665 0.14808 0.94276 0.0
H730 H 0.05179 0.18473 0.96645 0.0
C731 C 0.10078 0.23039 0.01954 0.0
C732 C 0.14478 0.18608 0.99041 0.0
C733 C 0.1076 0.24495 0.03471 0.0
C734 C 0.12115 0.18025 0.92469 0.0
C735 C 0.12108 0.16996 0.93921 0.0
C736 C 0.07789 0.18444 0.97299 0.0
C737 C 0.12101 0.20301 0.01438 0.0
C738 C 0.11603 0.19082 0.99779 0.0
C739 C 0.10231 0.18889 0.94932 0.0
C740 C 0.1067 0.18294 0.96562 0.0
H741 H 0.17541 0.1942 0.04802 0.0
H742 H 0.1635 0.16859 0.02133 0.0
H743 H 0.05978 0.19098 0.99425 0.0
H744 H 0.06904 0.25087 0.92696 0.0
H745 H 0.06801 0.23253 0.95193 0.0
C746 C 0.07881 0.77815 0.29394 0.0
C747 C 0.09781 0.75311 0.30207 0.0
C748 C 0.07157 0.77371 0.27799 0.0
C749 C 0.06927 0.70977 0.24405 0.0
H750 H 0.10089 0.78654 0.22575 0.0
C751 C 0.11543 0.69232 0.18654 0.0
C752 C 0.11307 0.71987 0.17752 0.0
C753 C 0.10387 0.69609 0.20047 0.0
C754 C 0.09104 0.76509 0.23052 0.0
H755 H 0.12242 0.70303 0.30001 0.0
H756 H 0.10959 0.69511 0.27215 0.0
H757 H 0.0977 0.7934 0.25271 0.0
H758 H 0.0965 0.77289 0.17598 0.0
H759 H 0.07432 0.77896 0.19983 0.0
H760 H 0.06312 0.68122 0.22191 0.0
C761 C 0.10031 0.71816 0.27807 0.0
C762 C 0.08934 0.76904 0.24603 0.0
C763 C 0.10789 0.72279 0.294 0.0
C764 C 0.09754 0.75081 0.1824 0.0
C765 C 0.08555 0.7545 0.19627 0.0
C766 C 0.07058 0.70591 0.22847 0.0
C767 C 0.08283 0.74396 0.26989 0.0
C768 C 0.0794 0.74113 0.25305 0.0
C769 C 0.08956 0.72754 0.20572 0.0
C770 C 0.08253 0.7332 0.22159 0.0
H771 H 0.07093 0.80188 0.29988 0.0
H772 H 0.05791 0.79392 0.27197 0.0
H773 H 0.06107 0.68796 0.24914 0.0
H774 H 0.12749 0.6682 0.18312 0.0
H775 H 0.10796 0.6749 0.20747 0.0
C776 C 0.60706 0.73756 0.52694 0.0
C777 C 0.587 0.7617 0.53428 0.0
C778 C 0.59557 0.72421 0.51177 0.0
C779 C 0.56334 0.68971 0.48088 0.0
H780 H 0.51276 0.75168 0.45392 0.0
C781 C 0.54784 0.65406 0.41662 0.0
C782 C 0.55297 0.68132 0.40821 0.0
C783 C 0.54037 0.66092 0.43132 0.0
C784 C 0.52713 0.73403 0.46122 0.0
H785 H 0.53858 0.78965 0.53193 0.0
H786 H 0.51739 0.76494 0.50569 0.0
H787 H 0.52489 0.76888 0.48114 0.0
H788 H 0.5519 0.73698 0.40804 0.0
H789 H 0.54093 0.74923 0.43382 0.0
H790 H 0.56863 0.65636 0.46098 0.0
C791 C 0.54265 0.75721 0.51134 0.0
C792 C 0.53359 0.74369 0.47698 0.0
C793 C 0.55456 0.77116 0.52643 0.0
C794 C 0.54778 0.71544 0.41424 0.0
C795 C 0.54139 0.7224 0.42912 0.0
C796 C 0.55768 0.68046 0.46513 0.0
C797 C 0.56333 0.73411 0.50365 0.0
C798 C 0.5526 0.72204 0.48704 0.0
C799 C 0.53919 0.69527 0.43816 0.0
C800 C 0.54022 0.70285 0.45498 0.0
H801 H 0.63236 0.73021 0.53274 0.0
H802 H 0.61277 0.70718 0.50628 0.0
H803 H 0.57711 0.67174 0.48818 0.0
H804 H 0.55146 0.62747 0.41213 0.0
H805 H 0.53741 0.63919 0.43757 0.0
C806 C 0.57604 0.27867 0.78533 0.0
C807 C 0.59558 0.30814 0.79218 0.0
C808 C 0.56804 0.27203 0.76943 0.0
C809 C 0.56212 0.31025 0.73334 0.0
H810 H 0.60159 0.22408 0.71845 0.0
C811 C 0.6062 0.29112 0.67538 0.0
C812 C 0.60844 0.25768 0.66803 0.0
C813 C 0.59464 0.29612 0.68931 0.0
C814 C 0.58945 0.24784 0.72223 0.0
H815 H 0.62051 0.35467 0.78804 0.0
H816 H 0.60567 0.34363 0.76021 0.0
H817 H 0.59816 0.23554 0.7453 0.0
H818 H 0.59933 0.20326 0.66892 0.0
H819 H 0.57739 0.21182 0.69291 0.0
H820 H 0.55342 0.32276 0.71033 0.0
C821 C 0.59672 0.32558 0.76708 0.0
C822 C 0.58767 0.25443 0.7377 0.0
C823 C 0.60533 0.33184 0.78295 0.0
C824 C 0.59752 0.22933 0.67441 0.0
C825 C 0.58535 0.2343 0.68822 0.0
C826 C 0.56325 0.30341 0.71779 0.0
C827 C 0.57883 0.29517 0.76017 0.0
C828 C 0.57498 0.2861 0.74347 0.0
C829 C 0.58491 0.26768 0.69615 0.0
C830 C 0.57806 0.27259 0.7121 0.0
H831 H 0.56851 0.25996 0.79227 0.0
H832 H 0.55425 0.24839 0.76434 0.0
H833 H 0.55194 0.33478 0.73753 0.0
H834 H 0.61516 0.31327 0.67075 0.0
H835 H 0.59535 0.32215 0.69507 0.0
C836 C 0.08213 0.6798 0.9597 0.0
C837 C 0.05421 0.69967 0.95322 0.0
C838 C 0.09099 0.67992 0.97554 0.0
C839 C 0.07687 0.72908 0.01188 0.0
H840 H 0.09999 0.64238 0.02898 0.0
C841 C 0.06399 0.71544 0.07237 0.0
C842 C 0.09575 0.71148 0.08215 0.0
C843 C 0.06119 0.70783 0.05667 0.0
C844 C 0.09388 0.66673 0.02431 0.0
H845 H 0.01372 0.73518 0.95824 0.0
H846 H 0.02874 0.73517 0.98575 0.0
H847 H 0.09172 0.64395 0.00127 0.0
H848 H 0.14845 0.69288 0.08337 0.0
H849 H 0.14333 0.67907 0.05559 0.0
H850 H 0.07763 0.75147 0.03482 0.0
C851 C 0.04444 0.72008 0.9787 0.0
C852 C 0.08928 0.66777 0.00849 0.0
C853 C 0.03577 0.72014 0.9629 0.0
C854 C 0.12365 0.69606 0.07607 0.0
C855 C 0.12079 0.68834 0.06022 0.0
C856 C 0.08102 0.72791 0.02758 0.0
C857 C 0.072 0.69978 0.98524 0.0
C858 C 0.08005 0.69888 0.00207 0.0
C859 C 0.09004 0.69594 0.05042 0.0
C860 C 0.08891 0.69667 0.0339 0.0
H861 H 0.09694 0.66393 0.9525 0.0
H862 H 0.11267 0.6644 0.98017 0.0
H863 H 0.07074 0.75366 0.00744 0.0
H864 H 0.04195 0.72691 0.07677 0.0
H865 H 0.03708 0.7134 0.04932 0.0
C866 C 0.63003 0.86189 0.22863 0.0
C867 C 0.64264 0.8371 0.2184 0.0
C868 C 0.63661 0.85884 0.24428 0.0
C869 C 0.68513 0.80675 0.2741 0.0
H870 H 0.60098 0.81949 0.29106 0.0
C871 C 0.64541 0.7234 0.31707 0.0
C872 C 0.62632 0.73818 0.32791 0.0
C873 C 0.65633 0.74361 0.30685 0.0
C874 C 0.62503 0.81652 0.2867 0.0
H875 H 0.67367 0.79088 0.21653 0.0
H876 H 0.68444 0.78487 0.24369 0.0
H877 H 0.60384 0.84071 0.26689 0.0
H878 H 0.60443 0.78554 0.33704 0.0
H879 H 0.62343 0.8212 0.31905 0.0
H880 H 0.70523 0.78038 0.29359 0.0
C881 C 0.6701 0.80718 0.23981 0.0
C882 C 0.62674 0.82877 0.27279 0.0
C883 C 0.66387 0.81052 0.22419 0.0
C884 C 0.6197 0.77382 0.32892 0.0
C885 C 0.63028 0.79406 0.31856 0.0
C886 C 0.68326 0.79419 0.28798 0.0
C887 C 0.6555 0.8306 0.25001 0.0
C888 C 0.65639 0.82309 0.26604 0.0
C889 C 0.64779 0.77889 0.30711 0.0
C890 C 0.65278 0.79802 0.29419 0.0
H891 H 0.6139 0.88288 0.22446 0.0
H892 H 0.62568 0.87787 0.25181 0.0
H893 H 0.70866 0.80256 0.26944 0.0
H894 H 0.65055 0.69585 0.31607 0.0
H895 H 0.66937 0.73102 0.29807 0.0
C896 C 0.66526 0.17218 0.45667 0.0
C897 C 0.63606 0.18005 0.44599 0.0
C898 C 0.66548 0.1792 0.47233 0.0
C899 C 0.62008 0.22941 0.50039 0.0
H900 H 0.65324 0.15785 0.52632 0.0
C901 C 0.64384 0.21709 0.56847 0.0
C902 C 0.61248 0.23217 0.57124 0.0
C903 C 0.64836 0.20682 0.55345 0.0
C904 C 0.64417 0.17812 0.51923 0.0
H905 H 0.58452 0.20214 0.4434 0.0
H906 H 0.58492 0.21454 0.47059 0.0
H907 H 0.65955 0.15068 0.49946 0.0
H908 H 0.56018 0.24479 0.56082 0.0
H909 H 0.56779 0.22635 0.53485 0.0
H910 H 0.60416 0.25656 0.51998 0.0
C911 C 0.60788 0.20333 0.46693 0.0
C912 C 0.6479 0.17415 0.50388 0.0
C913 C 0.60767 0.19634 0.4513 0.0
C914 C 0.58479 0.2337 0.55898 0.0
C915 C 0.58923 0.22339 0.5441 0.0
C916 C 0.61621 0.23325 0.51563 0.0
C917 C 0.63652 0.19429 0.47764 0.0
C918 C 0.63537 0.19955 0.49423 0.0
C919 C 0.62153 0.21149 0.5411 0.0
C920 C 0.62762 0.20741 0.52515 0.0
H921 H 0.68767 0.1599 0.45291 0.0
H922 H 0.68818 0.17247 0.48027 0.0
H923 H 0.61088 0.24983 0.4934 0.0
H924 H 0.66563 0.21575 0.57773 0.0
H925 H 0.67349 0.19749 0.55144 0.0
C926 C 0.15642 0.2859 0.71336 0.0
C927 C 0.13696 0.31599 0.71086 0.0
C928 C 0.1638 0.27492 0.72794 0.0
C929 C 0.16961 0.30207 0.76881 0.0
H930 H 0.13282 0.21085 0.77075 0.0
C931 C 0.13373 0.26113 0.82379 0.0
C932 C 0.13264 0.22589 0.82575 0.0
C933 C 0.14292 0.27154 0.81061 0.0
C934 C 0.14419 0.236 0.77053 0.0
H935 H 0.11147 0.35914 0.7216 0.0
H936 H 0.12511 0.34039 0.7472 0.0
H937 H 0.13409 0.23065 0.7461 0.0
H938 H 0.14168 0.17391 0.81602 0.0
H939 H 0.15978 0.19196 0.79337 0.0
H940 H 0.17997 0.30756 0.7932 0.0
C941 C 0.13441 0.3252 0.73789 0.0
C942 C 0.14469 0.24739 0.75633 0.0
C943 C 0.12644 0.3358 0.72328 0.0
C944 C 0.14254 0.20127 0.81473 0.0
C945 C 0.15247 0.21169 0.80169 0.0
C946 C 0.16979 0.29044 0.78305 0.0
C947 C 0.15247 0.29426 0.74029 0.0
C948 C 0.15657 0.28082 0.75533 0.0
C949 C 0.15155 0.2469 0.79915 0.0
C950 C 0.15616 0.25758 0.78412 0.0
H951 H 0.16463 0.27014 0.70393 0.0
H952 H 0.17777 0.25098 0.72952 0.0
H953 H 0.17919 0.32789 0.76832 0.0
H954 H 0.12558 0.28049 0.83206 0.0
H955 H 0.14128 0.2988 0.80908 0.0
loop_
_geom_bond_atom_site_label_1
_geom_bond_atom_site_label_2
_geom_bond_distance
_geom_bond_site_symmetry_2
_ccdc_geom_bond_type
H0 C1 0.949 . S
C1 H0 0.949 . S
C1 C2 1.395 . S
C1 C3 1.391 . S
C2 C1 1.395 . S
C2 C5 1.390 . S
C3 C1 1.391 . S
C3 C7 1.387 . S
C3 C8 1.491 . S
H4 C5 0.950 . S
C5 C2 1.390 . S
C5 H4 0.950 . S
C5 C6 1.378 . S
C6 C5 1.378 . S
C6 C7 1.409 . S
C7 C3 1.387 . S
C7 C6 1.409 . S
C7 H9 0.951 . S
C8 C3 1.491 . S
C8 C10 1.382 . S
C8 C12 1.404 . S
H9 C7 0.951 . S
C10 C8 1.382 . S
C10 C11 1.390 . S
C10 H15 0.949 . S
C11 C10 1.390 . S
C11 C16 1.399 . S
C12 C8 1.404 . S
C12 H13 0.950 . S
C12 C14 1.375 . S
H13 C12 0.950 . S
C14 C12 1.375 . S
C14 C16 1.382 . S
C14 H18 0.950 . S
H15 C10 0.949 . S
C16 C11 1.399 . S
C16 C14 1.382 . S
C16 H17 0.952 . S
H17 C16 0.952 . S
H18 C14 0.950 . S
H19 C20 0.949 . S
C20 H19 0.949 . S
C20 C21 1.395 . S
C20 C22 1.391 . S
C21 C20 1.395 . S
C21 C24 1.390 . S
C22 C20 1.391 . S
C22 C26 1.387 . S
C22 C27 1.491 . S
H23 C24 0.950 . S
C24 C21 1.390 . S
C24 H23 0.950 . S
C24 C25 1.378 . S
C25 C24 1.378 . S
C25 C26 1.409 . S
C26 C22 1.387 . S
C26 C25 1.409 . S
C26 H28 0.951 . S
C27 C22 1.491 . S
C27 C29 1.382 . S
C27 C31 1.404 . S
H28 C26 0.951 . S
C29 C27 1.382 . S
C29 C30 1.390 1_455 S
C29 H34 0.949 . S
C30 C29 1.390 1_655 S
C30 C35 1.399 1_655 S
C31 C27 1.404 . S
C31 H32 0.950 . S
C31 C33 1.375 . S
H32 C31 0.950 . S
C33 C31 1.375 . S
C33 C35 1.397 . S
C33 H37 0.950 . S
H34 C29 0.949 . S
C35 C30 1.399 1_455 S
C35 C33 1.397 . S
C35 H36 0.937 1_455 S
H36 C35 0.937 1_655 S
H37 C33 0.950 . S
H38 C39 0.949 . S
C39 H38 0.949 . S
C39 C40 1.395 . S
C39 C41 1.391 . S
C40 C39 1.395 . S
C40 C43 1.390 . S
C41 C39 1.391 . S
C41 C45 1.387 . S
C41 C46 1.491 . S
H42 C43 0.950 . S
C43 C40 1.390 . S
C43 H42 0.950 . S
C43 C44 1.378 . S
C44 C43 1.378 . S
C44 C45 1.409 . S
C45 C41 1.387 . S
C45 C44 1.409 . S
C45 H47 0.951 . S
C46 C41 1.491 . S
C46 C48 1.382 . S
C46 C50 1.404 . S
H47 C45 0.951 . S
C48 C46 1.382 . S
C48 C49 1.390 . S
C48 H53 0.949 . S
C49 C48 1.390 . S
C49 C54 1.399 . S
C50 C46 1.404 . S
C50 H51 0.950 . S
C50 C52 1.375 . S
H51 C50 0.950 . S
C52 C50 1.375 . S
C52 C54 1.382 . S
C52 H56 0.950 . S
H53 C48 0.949 . S
C54 C49 1.399 . S
C54 C52 1.382 . S
C54 H55 0.952 . S
H55 C54 0.952 . S
H56 C52 0.950 . S
H57 C58 0.949 . S
C58 H57 0.949 . S
C58 C59 1.395 . S
C58 C60 1.391 . S
C59 C58 1.395 . S
C59 C62 1.390 . S
C60 C58 1.391 . S
C60 C64 1.387 . S
C60 C65 1.491 . S
H61 C62 0.950 . S
C62 C59 1.390 . S
C62 H61 0.950 . S
C62 C63 1.378 . S
C63 C62 1.378 . S
C63 C64 1.409 . S
C64 C60 1.387 . S
C64 C63 1.409 . S
C64 H66 0.951 . S
C65 C60 1.491 . S
C65 C67 1.382 . S
C65 C69 1.404 . S
H66 C64 0.951 . S
C67 C65 1.382 . S
C67 C68 1.390 . S
C67 H72 0.949 . S
C68 C67 1.390 . S
C68 C73 1.399 . S
C69 C65 1.404 . S
C69 H70 0.950 . S
C69 C71 1.375 . S
H70 C69 0.950 . S
C71 C69 1.375 . S
C71 C73 1.382 . S
C71 H75 0.950 . S
H72 C67 0.949 . S
C73 C68 1.399 . S
C73 C71 1.382 . S
C73 H74 0.952 . S
H74 C73 0.952 . S
H75 C71 0.950 . S
H76 C77 0.949 . S
C77 H76 0.949 . S
C77 C78 1.395 . S
C77 C79 1.391 . S
C78 C77 1.395 . S
C78 C81 1.390 . S
C79 C77 1.391 . S
C79 C83 1.387 . S
C79 C84 1.491 . S
H80 C81 0.950 . S
C81 C78 1.390 . S
C81 H80 0.950 . S
C81 C82 1.378 . S
C82 C81 1.378 . S
C82 C83 1.409 . S
C83 C79 1.387 . S
C83 C82 1.409 . S
C83 H85 0.951 . S
C84 C79 1.491 . S
C84 C86 1.382 . S
C84 C88 1.404 1_455 S
H85 C83 0.951 . S
C86 C84 1.382 . S
C86 C87 1.390 . S
C86 H91 0.949 . S
C87 C86 1.390 . S
C87 C92 1.399 1_455 S
C88 C84 1.404 1_655 S
C88 H89 0.950 . S
C88 C90 1.375 . S
H89 C88 0.950 . S
C90 C88 1.375 . S
C90 C92 1.382 . S
C90 H94 0.950 . S
H91 C86 0.949 . S
C92 C87 1.399 1_655 S
C92 C90 1.382 . S
C92 H93 0.952 . S
H93 C92 0.952 . S
H94 C90 0.950 . S
H95 C96 0.949 . S
C96 H95 0.949 . S
C96 C97 1.395 . S
C96 C98 1.391 . S
C97 C96 1.395 . S
C97 C100 1.390 . S
C98 C96 1.391 . S
C98 C102 1.387 . S
C98 C103 1.491 . S
H99 C100 0.950 . S
C100 C97 1.390 . S
C100 H99 0.950 . S
C100 C101 1.378 . S
C101 C100 1.378 . S
C101 C102 1.409 . S
C102 C98 1.387 . S
C102 C101 1.409 . S
C102 H104 0.951 . S
C103 C98 1.491 . S
C103 C105 1.382 . S
C103 C107 1.404 . S
H104 C102 0.951 . S
C105 C103 1.382 . S
C105 C106 1.390 . S
C105 H110 0.949 . S
C106 C105 1.390 . S
C106 C111 1.399 . S
C107 C103 1.404 . S
C107 H108 0.950 . S
C107 C109 1.375 . S
H108 C107 0.950 . S
C109 C107 1.375 . S
C109 C111 1.382 . S
C109 H113 0.950 . S
H110 C105 0.949 . S
C111 C106 1.399 . S
C111 C109 1.382 . S
C111 H112 0.952 . S
H112 C111 0.952 . S
H113 C109 0.950 . S
H114 C115 0.949 . S
C115 H114 0.949 . S
C115 C116 1.395 . S
C115 C117 1.391 . S
C116 C115 1.395 . S
C116 C119 1.390 . S
C117 C115 1.391 . S
C117 C121 1.387 . S
C117 C122 1.491 . S
H118 C119 0.950 . S
C119 C116 1.390 . S
C119 H118 0.950 . S
C119 C120 1.378 . S
C120 C119 1.378 . S
C120 C121 1.409 . S
C121 C117 1.387 . S
C121 C120 1.409 . S
C121 H123 0.951 . S
C122 C117 1.491 . S
C122 C124 1.382 . S
C122 C126 1.404 . S
H123 C121 0.951 . S
C124 C122 1.382 . S
C124 C125 1.390 . S
C124 H129 0.949 . S
C125 C124 1.390 . S
C125 C130 1.399 . S
C126 C122 1.404 . S
C126 H127 0.950 . S
C126 C128 1.375 . S
H127 C126 0.950 . S
C128 C126 1.375 . S
C128 C130 1.382 . S
C128 H132 0.950 . S
H129 C124 0.949 . S
C130 C125 1.399 . S
C130 C128 1.382 . S
C130 H131 0.952 . S
H131 C130 0.952 . S
H132 C128 0.950 . S
H133 C134 0.949 . S
C134 H133 0.949 . S
C134 C135 1.395 . S
C134 C136 1.391 . S
C135 C134 1.395 . S
C135 C138 1.390 . S
C136 C134 1.391 . S
C136 C140 1.387 . S
C136 C141 1.491 . S
H137 C138 0.950 . S
C138 C135 1.390 . S
C138 H137 0.950 . S
C138 C139 1.378 . S
C139 C138 1.378 . S
C139 C140 1.409 . S
C140 C136 1.387 . S
C140 C139 1.409 . S
C140 H142 0.951 . S
C141 C136 1.491 . S
C141 C143 1.382 . S
C141 C145 1.404 . S
H142 C140 0.951 . S
C143 C141 1.382 . S
C143 C144 1.390 . S
C143 H148 0.949 . S
C144 C143 1.390 . S
C144 C149 1.399 . S
C145 C141 1.404 . S
C145 H146 0.950 . S
C145 C147 1.375 . S
H146 C145 0.950 . S
C147 C145 1.375 . S
C147 C149 1.382 . S
C147 H151 0.950 . S
H148 C143 0.949 . S
C149 C144 1.399 . S
C149 C147 1.382 . S
C149 H150 0.952 . S
H150 C149 0.952 . S
H151 C147 0.950 . S
Zn152 O158 1.920 . S
Zn152 O164 1.898 . S
Zn152 O167 1.905 . S
Zn153 O161 1.905 . S
Zn153 O162 1.898 . S
Zn153 O170 1.920 . S
Zn154 O157 2.080 . S
Zn154 O160 2.114 . S
Zn154 O163 2.120 . S
Zn154 O165 2.120 . S
Zn154 O166 2.114 . S
Zn154 O169 2.080 . S
C155 O160 1.166 . S
C155 O161 1.182 . S
C156 O162 1.167 . S
C156 O163 1.299 . S
O157 Zn154 2.080 . S
O157 C171 1.305 . S
O158 Zn152 1.920 . S
O158 C171 1.234 . S
C159 O164 1.167 . S
C159 O165 1.299 . S
O160 Zn154 2.114 . S
O160 C155 1.166 . S
O161 Zn153 1.905 . S
O161 C155 1.182 . S
O162 Zn153 1.898 . S
O162 C156 1.167 . S
O163 Zn154 2.120 . S
O163 C156 1.299 . S
O164 Zn152 1.898 . S
O164 C159 1.167 . S
O165 Zn154 2.120 . S
O165 C159 1.299 . S
O166 Zn154 2.114 . S
O166 C168 1.166 . S
O167 Zn152 1.905 . S
O167 C168 1.182 . S
C168 O166 1.166 . S
C168 O167 1.182 . S
O169 Zn154 2.080 . S
O169 C172 1.305 . S
O170 Zn153 1.920 . S
O170 C172 1.234 . S
C171 O157 1.305 . S
C171 O158 1.234 . S
C172 O169 1.305 . S
C172 O170 1.234 . S
Zn173 O179 1.920 . S
Zn173 O185 1.898 . S
Zn173 O188 1.905 . S
Zn174 O182 1.905 . S
Zn174 O183 1.898 . S
Zn174 O191 1.920 . S
Zn175 O178 2.080 . S
Zn175 O181 2.114 . S
Zn175 O184 2.120 . S
Zn175 O186 2.120 . S
Zn175 O187 2.114 . S
Zn175 O190 2.080 . S
C176 O181 1.166 . S
C176 O182 1.182 . S
C177 O183 1.167 . S
C177 O184 1.299 . S
O178 Zn175 2.080 . S
O178 C192 1.305 . S
O179 Zn173 1.920 . S
O179 C192 1.234 . S
C180 O185 1.167 . S
C180 O186 1.299 . S
O181 Zn175 2.114 . S
O181 C176 1.166 . S
O182 Zn174 1.905 . S
O182 C176 1.182 . S
O183 Zn174 1.898 . S
O183 C177 1.167 . S
O184 Zn175 2.120 . S
O184 C177 1.299 . S
O185 Zn173 1.898 . S
O185 C180 1.167 . S
O186 Zn175 2.120 . S
O186 C180 1.299 . S
O187 Zn175 2.114 . S
O187 C189 1.166 . S
O188 Zn173 1.905 . S
O188 C189 1.182 . S
C189 O187 1.166 . S
C189 O188 1.182 . S
O190 Zn175 2.080 . S
O190 C193 1.305 . S
O191 Zn174 1.920 . S
O191 C193 1.234 . S
C192 O178 1.305 . S
C192 O179 1.234 . S
C193 O190 1.305 . S
C193 O191 1.234 . S
Zn194 O200 1.920 . S
Zn194 O206 1.898 . S
Zn194 O209 1.905 . S
Zn195 O203 1.905 . S
Zn195 O204 1.898 . S
Zn195 O212 1.920 . S
Zn196 O199 2.080 . S
Zn196 O202 2.114 . S
Zn196 O205 2.120 . S
Zn196 O207 2.120 . S
Zn196 O208 2.114 . S
Zn196 O211 2.080 . S
C197 O202 1.166 . S
C197 O203 1.182 . S
C198 O204 1.167 . S
C198 O205 1.299 . S
O199 Zn196 2.080 . S
O199 C213 1.305 . S
O200 Zn194 1.920 . S
O200 C213 1.234 . S
C201 O206 1.167 . S
C201 O207 1.299 . S
O202 Zn196 2.114 . S
O202 C197 1.166 . S
O203 Zn195 1.905 . S
O203 C197 1.182 . S
O204 Zn195 1.898 . S
O204 C198 1.167 . S
O205 Zn196 2.120 . S
O205 C198 1.299 . S
O206 Zn194 1.898 . S
O206 C201 1.167 . S
O207 Zn196 2.120 . S
O207 C201 1.299 . S
O208 Zn196 2.114 . S
O208 C210 1.166 . S
O209 Zn194 1.905 . S
O209 C210 1.182 . S
C210 O208 1.166 . S
C210 O209 1.182 . S
O211 Zn196 2.080 . S
O211 C214 1.305 . S
O212 Zn195 1.920 . S
O212 C214 1.234 . S
C213 O199 1.305 . S
C213 O200 1.234 . S
C214 O211 1.305 . S
C214 O212 1.234 . S
Zn215 O221 1.920 . S
Zn215 O227 1.898 . S
Zn215 O230 1.905 1_455 S
Zn216 O224 1.905 . S
Zn216 O225 1.898 . S
Zn216 O233 1.920 . S
Zn217 O220 2.080 . S
Zn217 O223 2.114 . S
Zn217 O226 2.120 . S
Zn217 O228 2.120 . S
Zn217 O229 2.114 . S
Zn217 O232 2.080 . S
C218 O223 1.166 . S
C218 O224 1.182 . S
C219 O225 1.167 . S
C219 O226 1.299 . S
O220 Zn217 2.080 . S
O220 C234 1.305 . S
O221 Zn215 1.920 . S
O221 C234 1.234 . S
C222 O227 1.167 . S
C222 O228 1.299 . S
O223 Zn217 2.114 . S
O223 C218 1.166 . S
O224 Zn216 1.905 . S
O224 C218 1.182 . S
O225 Zn216 1.898 . S
O225 C219 1.167 . S
O226 Zn217 2.120 . S
O226 C219 1.299 . S
O227 Zn215 1.898 . S
O227 C222 1.167 . S
O228 Zn217 2.120 . S
O228 C222 1.299 . S
O229 Zn217 2.114 . S
O229 C231 1.166 . S
O230 Zn215 1.905 1_655 S
O230 C231 1.182 1_655 S
C231 O229 1.166 . S
C231 O230 1.182 1_455 S
O232 Zn217 2.080 . S
O232 C235 1.305 . S
O233 Zn216 1.920 . S
O233 C235 1.234 . S
C234 O220 1.305 . S
C234 O221 1.234 . S
C235 O232 1.305 . S
C235 O233 1.234 . S
C236 C237 1.349 . S
C236 C238 1.327 . S
C236 H261 0.950 . S
C237 C236 1.349 . S
C237 C253 1.349 . S
C238 C236 1.327 . S
C238 C257 1.429 . S
C238 H262 0.950 . S
C239 C256 1.574 . S
C239 C258 1.368 . S
C239 H263 0.949 . S
H240 C244 0.949 . S
C241 C242 1.349 . S
C241 C243 1.327 . S
C241 H264 0.950 . S
C242 C241 1.349 . S
C242 C254 1.349 . S
C243 C241 1.327 . S
C243 C259 1.429 . S
C243 H265 0.950 . S
C244 H240 0.949 . S
C244 C252 1.574 . S
C244 C260 1.368 . S
H245 C253 0.950 . S
H246 C251 0.950 . S
H247 C252 0.949 . S
H248 C254 0.950 . S
H249 C255 0.950 . S
H250 C256 0.949 . S
C251 H246 0.950 . S
C251 C253 1.327 . S
C251 C257 1.429 . S
C252 C244 1.574 . S
C252 H247 0.949 . S
C252 C258 1.368 . S
C253 C237 1.349 . S
C253 H245 0.950 . S
C253 C251 1.327 . S
C254 C242 1.349 . S
C254 H248 0.950 . S
C254 C255 1.327 . S
C255 H249 0.950 . S
C255 C254 1.327 . S
C255 C259 1.429 . S
C256 C239 1.574 . S
C256 H250 0.949 . S
C256 C260 1.368 . S
C257 C238 1.429 . S
C257 C251 1.429 . S
C257 C258 1.523 . S
C258 C239 1.368 . S
C258 C252 1.368 . S
C258 C257 1.523 . S
C259 C243 1.429 . S
C259 C255 1.429 . S
C259 C260 1.523 . S
C260 C244 1.368 . S
C260 C256 1.368 . S
C260 C259 1.523 . S
H261 C236 0.950 . S
H262 C238 0.950 . S
H263 C239 0.949 . S
H264 C241 0.950 . S
H265 C243 0.950 . S
C266 C267 1.349 . S
C266 C268 1.327 . S
C266 H291 0.950 . S
C267 C266 1.349 . S
C267 C283 1.349 . S
C268 C266 1.327 . S
C268 C287 1.429 . S
C268 H292 0.950 . S
C269 C286 1.574 . S
C269 C288 1.368 . S
C269 H293 0.949 . S
H270 C274 0.949 . S
C271 C272 1.349 . S
C271 C273 1.327 . S
C271 H294 0.950 . S
C272 C271 1.349 . S
C272 C284 1.349 . S
C273 C271 1.327 . S
C273 C289 1.429 . S
C273 H295 0.950 . S
C274 H270 0.949 . S
C274 C282 1.574 . S
C274 C290 1.368 . S
H275 C283 0.950 . S
H276 C281 0.950 . S
H277 C282 0.949 . S
H278 C284 0.950 . S
H279 C285 0.950 . S
H280 C286 0.949 . S
C281 H276 0.950 . S
C281 C283 1.327 . S
C281 C287 1.429 . S
C282 C274 1.574 . S
C282 H277 0.949 . S
C282 C288 1.368 . S
C283 C267 1.349 . S
C283 H275 0.950 . S
C283 C281 1.327 . S
C284 C272 1.349 . S
C284 H278 0.950 . S
C284 C285 1.327 . S
C285 H279 0.950 . S
C285 C284 1.327 . S
C285 C289 1.429 . S
C286 C269 1.574 . S
C286 H280 0.949 . S
C286 C290 1.368 . S
C287 C268 1.429 . S
C287 C281 1.429 . S
C287 C288 1.523 . S
C288 C269 1.368 . S
C288 C282 1.368 . S
C288 C287 1.523 . S
C289 C273 1.429 . S
C289 C285 1.429 . S
C289 C290 1.523 . S
C290 C274 1.368 . S
C290 C286 1.368 . S
C290 C289 1.523 . S
H291 C266 0.950 . S
H292 C268 0.950 . S
H293 C269 0.949 . S
H294 C271 0.950 . S
H295 C273 0.950 . S
C296 C297 1.349 . S
C296 C298 1.327 . S
C296 H321 0.950 . S
C297 C296 1.349 . S
C297 C313 1.349 . S
C298 C296 1.327 . S
C298 C317 1.429 . S
C298 H322 0.950 . S
C299 C316 1.574 . S
C299 C318 1.368 . S
C299 H323 0.949 . S
H300 C304 0.949 . S
C301 C302 1.349 . S
C301 C303 1.327 . S
C301 H324 0.950 . S
C302 C301 1.349 . S
C302 C314 1.349 . S
C303 C301 1.327 . S
C303 C319 1.429 . S
C303 H325 0.950 . S
C304 H300 0.949 . S
C304 C312 1.574 . S
C304 C320 1.368 . S
H305 C313 0.950 . S
H306 C311 0.950 . S
H307 C312 0.949 . S
H308 C314 0.950 . S
H309 C315 0.950 . S
H310 C316 0.949 . S
C311 H306 0.950 . S
C311 C313 1.327 . S
C311 C317 1.429 . S
C312 C304 1.574 . S
C312 H307 0.949 . S
C312 C318 1.368 . S
C313 C297 1.349 . S
C313 H305 0.950 . S
C313 C311 1.327 . S
C314 C302 1.349 . S
C314 H308 0.950 . S
C314 C315 1.327 . S
C315 H309 0.950 . S
C315 C314 1.327 . S
C315 C319 1.429 . S
C316 C299 1.574 . S
C316 H310 0.949 . S
C316 C320 1.368 . S
C317 C298 1.429 . S
C317 C311 1.429 . S
C317 C318 1.523 . S
C318 C299 1.368 . S
C318 C312 1.368 . S
C318 C317 1.523 . S
C319 C303 1.429 . S
C319 C315 1.429 . S
C319 C320 1.523 . S
C320 C304 1.368 . S
C320 C316 1.368 . S
C320 C319 1.523 . S
H321 C296 0.950 . S
H322 C298 0.950 . S
H323 C299 0.949 . S
H324 C301 0.950 . S
H325 C303 0.950 . S
C326 C327 1.349 . S
C326 C328 1.327 . S
C326 H351 0.950 . S
C327 C326 1.349 . S
C327 C343 1.349 . S
C328 C326 1.327 . S
C328 C347 1.429 . S
C328 H352 0.950 . S
C329 C346 1.574 . S
C329 C348 1.368 . S
C329 H353 0.949 . S
H330 C334 0.949 . S
C331 C332 1.349 . S
C331 C333 1.327 . S
C331 H354 0.950 . S
C332 C331 1.349 . S
C332 C344 1.349 . S
C333 C331 1.327 . S
C333 C349 1.429 . S
C333 H355 0.950 . S
C334 H330 0.949 . S
C334 C342 1.574 . S
C334 C350 1.368 . S
H335 C343 0.950 . S
H336 C341 0.950 . S
H337 C342 0.949 . S
H338 C344 0.950 . S
H339 C345 0.950 . S
H340 C346 0.949 . S
C341 H336 0.950 . S
C341 C343 1.327 . S
C341 C347 1.429 . S
C342 C334 1.574 . S
C342 H337 0.949 . S
C342 C348 1.368 . S
C343 C327 1.349 . S
C343 H335 0.950 . S
C343 C341 1.327 . S
C344 C332 1.349 . S
C344 H338 0.950 . S
C344 C345 1.327 . S
C345 H339 0.950 . S
C345 C344 1.327 . S
C345 C349 1.429 . S
C346 C329 1.574 . S
C346 H340 0.949 . S
C346 C350 1.368 . S
C347 C328 1.429 . S
C347 C341 1.429 . S
C347 C348 1.523 . S
C348 C329 1.368 . S
C348 C342 1.368 . S
C348 C347 1.523 . S
C349 C333 1.429 . S
C349 C345 1.429 . S
C349 C350 1.523 . S
C350 C334 1.368 . S
C350 C346 1.368 . S
C350 C349 1.523 . S
H351 C326 0.950 . S
H352 C328 0.950 . S
H353 C329 0.949 . S
H354 C331 0.950 . S
H355 C333 0.950 . S
C356 C357 1.349 . S
C356 C358 1.327 . S
C356 H381 0.950 . S
C357 C356 1.349 . S
C357 C373 1.349 . S
C358 C356 1.327 . S
C358 C377 1.429 . S
C358 H382 0.950 . S
C359 C376 1.574 . S
C359 C378 1.368 . S
C359 H383 0.949 . S
H360 C364 0.949 . S
C361 C362 1.349 . S
C361 C363 1.327 . S
C361 H384 0.950 . S
C362 C361 1.349 . S
C362 C374 1.349 . S
C363 C361 1.327 . S
C363 C379 1.429 . S
C363 H385 0.950 . S
C364 H360 0.949 . S
C364 C372 1.574 . S
C364 C380 1.368 . S
H365 C373 0.950 . S
H366 C371 0.950 . S
H367 C372 0.949 . S
H368 C374 0.950 . S
H369 C375 0.950 . S
H370 C376 0.949 . S
C371 H366 0.950 . S
C371 C373 1.327 . S
C371 C377 1.429 . S
C372 C364 1.574 . S
C372 H367 0.949 . S
C372 C378 1.368 . S
C373 C357 1.349 . S
C373 H365 0.950 . S
C373 C371 1.327 . S
C374 C362 1.349 . S
C374 H368 0.950 . S
C374 C375 1.327 . S
C375 H369 0.950 . S
C375 C374 1.327 . S
C375 C379 1.429 . S
C376 C359 1.574 . S
C376 H370 0.949 . S
C376 C380 1.368 . S
C377 C358 1.429 . S
C377 C371 1.429 . S
C377 C378 1.523 . S
C378 C359 1.368 . S
C378 C372 1.368 . S
C378 C377 1.523 . S
C379 C363 1.429 . S
C379 C375 1.429 . S
C379 C380 1.523 . S
C380 C364 1.368 . S
C380 C376 1.368 . S
C380 C379 1.523 . S
H381 C356 0.950 . S
H382 C358 0.950 . S
H383 C359 0.949 . S
H384 C361 0.950 . S
H385 C363 0.950 . S
C386 C387 1.349 . S
C386 C388 1.327 . S
C386 H411 0.950 . S
C387 C386 1.349 . S
C387 C403 1.349 . S
C388 C386 1.327 . S
C388 C407 1.429 . S
C388 H412 0.950 . S
C389 C406 1.574 . S
C389 C408 1.368 . S
C389 H413 0.949 . S
H390 C394 0.949 . S
C391 C392 1.349 . S
C391 C393 1.327 . S
C391 H414 0.950 . S
C392 C391 1.349 . S
C392 C404 1.349 . S
C393 C391 1.327 . S
C393 C409 1.429 1_455 S
C393 H415 0.950 1_455 S
C394 H390 0.949 . S
C394 C402 1.574 . S
C394 C410 1.368 . S
H395 C403 0.950 . S
H396 C401 0.950 . S
H397 C402 0.949 . S
H398 C404 0.950 . S
H399 C405 0.950 . S
H400 C406 0.949 . S
C401 H396 0.950 . S
C401 C403 1.327 . S
C401 C407 1.429 . S
C402 C394 1.574 . S
C402 H397 0.949 . S
C402 C408 1.368 . S
C403 C387 1.349 . S
C403 H395 0.950 . S
C403 C401 1.327 . S
C404 C392 1.349 . S
C404 H398 0.950 . S
C404 C405 1.327 1_455 S
C405 H399 0.950 . S
C405 C404 1.327 1_655 S
C405 C409 1.429 . S
C406 C389 1.574 . S
C406 H400 0.949 . S
C406 C410 1.368 . S
C407 C388 1.429 . S
C407 C401 1.429 . S
C407 C408 1.523 . S
C408 C389 1.368 . S
C408 C402 1.368 . S
C408 C407 1.523 . S
C409 C393 1.429 1_655 S
C409 C405 1.429 . S
C409 C410 1.523 . S
C410 C394 1.368 . S
C410 C406 1.368 . S
C410 C409 1.523 . S
H411 C386 0.950 . S
H412 C388 0.950 . S
H413 C389 0.949 . S
H414 C391 0.950 . S
H415 C393 0.950 1_655 S
C416 C417 1.349 . S
C416 C418 1.327 . S
C416 H441 0.950 . S
C417 C416 1.349 . S
C417 C433 1.349 . S
C418 C416 1.327 . S
C418 C437 1.429 . S
C418 H442 0.950 . S
C419 C436 1.574 . S
C419 C438 1.368 . S
C419 H443 0.949 . S
H420 C424 0.949 . S
C421 C422 1.349 . S
C421 C423 1.327 . S
C421 H444 0.950 . S
C422 C421 1.349 . S
C422 C434 1.349 . S
C423 C421 1.327 . S
C423 C439 1.429 . S
C423 H445 0.950 . S
C424 H420 0.949 . S
C424 C432 1.574 . S
C424 C440 1.368 . S
H425 C433 0.950 . S
H426 C431 0.950 . S
H427 C432 0.949 . S
H428 C434 0.950 . S
H429 C435 0.950 . S
H430 C436 0.949 . S
C431 H426 0.950 . S
C431 C433 1.327 . S
C431 C437 1.429 . S
C432 C424 1.574 . S
C432 H427 0.949 . S
C432 C438 1.368 . S
C433 C417 1.349 . S
C433 H425 0.950 . S
C433 C431 1.327 . S
C434 C422 1.349 . S
C434 H428 0.950 . S
C434 C435 1.327 . S
C435 H429 0.950 . S
C435 C434 1.327 . S
C435 C439 1.429 . S
C436 C419 1.574 . S
C436 H430 0.949 . S
C436 C440 1.368 . S
C437 C418 1.429 . S
C437 C431 1.429 . S
C437 C438 1.523 . S
C438 C419 1.368 . S
C438 C432 1.368 . S
C438 C437 1.523 . S
C439 C423 1.429 . S
C439 C435 1.429 . S
C439 C440 1.523 . S
C440 C424 1.368 . S
C440 C436 1.368 . S
C440 C439 1.523 . S
H441 C416 0.950 . S
H442 C418 0.950 . S
H443 C419 0.949 . S
H444 C421 0.950 . S
H445 C423 0.950 . S
C446 C447 1.349 . S
C446 C448 1.327 . S
C446 H471 0.950 . S
C447 C446 1.349 . S
C447 C463 1.349 . S
C448 C446 1.327 . S
C448 C467 1.429 1_455 S
C448 H472 0.950 1_455 S
C449 C466 1.574 . S
C449 C468 1.368 . S
C449 H473 0.949 . S
H450 C454 0.949 . S
C451 C452 1.349 . S
C451 C453 1.327 . S
C451 H474 0.950 . S
C452 C451 1.349 . S
C452 C464 1.349 . S
C453 C451 1.327 . S
C453 C469 1.429 . S
C453 H475 0.950 . S
C454 H450 0.949 . S
C454 C462 1.574 . S
C454 C470 1.368 . S
H455 C463 0.950 . S
H456 C461 0.950 1_655 S
H457 C462 0.949 . S
H458 C464 0.950 . S
H459 C465 0.950 . S
H460 C466 0.949 . S
C461 H456 0.950 1_455 S
C461 C463 1.327 . S
C461 C467 1.429 1_455 S
C462 C454 1.574 . S
C462 H457 0.949 . S
C462 C468 1.368 . S
C463 C447 1.349 . S
C463 H455 0.950 . S
C463 C461 1.327 . S
C464 C452 1.349 . S
C464 H458 0.950 . S
C464 C465 1.327 . S
C465 H459 0.950 . S
C465 C464 1.327 . S
C465 C469 1.429 . S
C466 C449 1.574 . S
C466 H460 0.949 . S
C466 C470 1.368 . S
C467 C448 1.429 1_655 S
C467 C461 1.429 1_655 S
C467 C468 1.523 . S
C468 C449 1.368 . S
C468 C462 1.368 . S
C468 C467 1.523 . S
C469 C453 1.429 . S
C469 C465 1.429 . S
C469 C470 1.523 . S
C470 C454 1.368 . S
C470 C466 1.368 . S
C470 C469 1.523 . S
H471 C446 0.950 . S
H472 C448 0.950 1_655 S
H473 C449 0.949 . S
H474 C451 0.950 . S
H475 C453 0.950 . S
C476 C477 1.349 . S
C476 C478 1.327 . S
C476 H501 0.950 . S
C477 C476 1.349 . S
C477 C493 1.349 . S
C478 C476 1.327 . S
C478 C497 1.429 . S
C478 H502 0.950 . S
C479 C496 1.574 . S
C479 C498 1.368 . S
C479 H503 0.949 . S
H480 C484 0.949 . S
C481 C482 1.349 . S
C481 C483 1.327 . S
C481 H504 0.950 . S
C482 C481 1.349 . S
C482 C494 1.349 . S
C483 C481 1.327 . S
C483 C499 1.429 . S
C483 H505 0.950 . S
C484 H480 0.949 . S
C484 C492 1.574 . S
C484 C500 1.368 . S
H485 C493 0.950 . S
H486 C491 0.950 . S
H487 C492 0.949 . S
H488 C494 0.950 . S
H489 C495 0.950 . S
H490 C496 0.949 . S
C491 H486 0.950 . S
C491 C493 1.327 . S
C491 C497 1.429 . S
C492 C484 1.574 . S
C492 H487 0.949 . S
C492 C498 1.368 . S
C493 C477 1.349 . S
C493 H485 0.950 . S
C493 C491 1.327 . S
C494 C482 1.349 . S
C494 H488 0.950 . S
C494 C495 1.327 . S
C495 H489 0.950 . S
C495 C494 1.327 . S
C495 C499 1.429 . S
C496 C479 1.574 . S
C496 H490 0.949 . S
C496 C500 1.368 . S
C497 C478 1.429 . S
C497 C491 1.429 . S
C497 C498 1.523 . S
C498 C479 1.368 . S
C498 C492 1.368 . S
C498 C497 1.523 . S
C499 C483 1.429 . S
C499 C495 1.429 . S
C499 C500 1.523 . S
C500 C484 1.368 . S
C500 C496 1.368 . S
C500 C499 1.523 . S
H501 C476 0.950 . S
H502 C478 0.950 . S
H503 C479 0.949 . S
H504 C481 0.950 . S
H505 C483 0.950 . S
C506 C507 1.349 . S
C506 C508 1.327 . S
C506 H531 0.950 . S
C507 C506 1.349 . S
C507 C523 1.349 . S
C508 C506 1.327 . S
C508 C527 1.429 . S
C508 H532 0.950 . S
C509 C526 1.574 . S
C509 C528 1.368 . S
C509 H533 0.949 . S
H510 C514 0.949 . S
C511 C512 1.349 . S
C511 C513 1.327 . S
C511 H534 0.950 . S
C512 C511 1.349 . S
C512 C524 1.349 . S
C513 C511 1.327 . S
C513 C529 1.429 . S
C513 H535 0.950 . S
C514 H510 0.949 . S
C514 C522 1.574 . S
C514 C530 1.368 . S
H515 C523 0.950 . S
H516 C521 0.950 . S
H517 C522 0.949 . S
H518 C524 0.950 . S
H519 C525 0.950 . S
H520 C526 0.949 . S
C521 H516 0.950 . S
C521 C523 1.327 . S
C521 C527 1.429 . S
C522 C514 1.574 . S
C522 H517 0.949 . S
C522 C528 1.368 . S
C523 C507 1.349 . S
C523 H515 0.950 . S
C523 C521 1.327 . S
C524 C512 1.349 . S
C524 H518 0.950 . S
C524 C525 1.327 . S
C525 H519 0.950 . S
C525 C524 1.327 . S
C525 C529 1.429 . S
C526 C509 1.574 . S
C526 H520 0.949 . S
C526 C530 1.368 . S
C527 C508 1.429 . S
C527 C521 1.429 . S
C527 C528 1.523 . S
C528 C509 1.368 . S
C528 C522 1.368 . S
C528 C527 1.523 . S
C529 C513 1.429 . S
C529 C525 1.429 . S
C529 C530 1.523 . S
C530 C514 1.368 . S
C530 C526 1.368 . S
C530 C529 1.523 . S
H531 C506 0.950 . S
H532 C508 0.950 . S
H533 C509 0.949 . S
H534 C511 0.950 . S
H535 C513 0.950 . S
C536 C537 1.349 . S
C536 C538 1.327 . S
C536 H561 0.950 . S
C537 C536 1.349 . S
C537 C553 1.349 . S
C538 C536 1.327 . S
C538 C557 1.429 . S
C538 H562 0.950 . S
C539 C556 1.574 . S
C539 C558 1.368 . S
C539 H563 0.949 . S
H540 C544 0.949 . S
C541 C542 1.349 . S
C541 C543 1.327 . S
C541 H564 0.950 . S
C542 C541 1.349 . S
C542 C554 1.349 . S
C543 C541 1.327 . S
C543 C559 1.429 . S
C543 H565 0.950 . S
C544 H540 0.949 . S
C544 C552 1.574 . S
C544 C560 1.368 . S
H545 C553 0.950 . S
H546 C551 0.950 . S
H547 C552 0.949 . S
H548 C554 0.950 . S
H549 C555 0.950 . S
H550 C556 0.949 . S
C551 H546 0.950 . S
C551 C553 1.327 . S
C551 C557 1.429 . S
C552 C544 1.574 . S
C552 H547 0.949 . S
C552 C558 1.368 . S
C553 C537 1.349 . S
C553 H545 0.950 . S
C553 C551 1.327 . S
C554 C542 1.349 . S
C554 H548 0.950 . S
C554 C555 1.327 . S
C555 H549 0.950 . S
C555 C554 1.327 . S
C555 C559 1.429 . S
C556 C539 1.574 . S
C556 H550 0.949 . S
C556 C560 1.368 . S
C557 C538 1.429 . S
C557 C551 1.429 . S
C557 C558 1.523 . S
C558 C539 1.368 . S
C558 C552 1.368 . S
C558 C557 1.523 . S
C559 C543 1.429 . S
C559 C555 1.429 . S
C559 C560 1.523 . S
C560 C544 1.368 . S
C560 C556 1.368 . S
C560 C559 1.523 . S
H561 C536 0.950 . S
H562 C538 0.950 . S
H563 C539 0.949 . S
H564 C541 0.950 . S
H565 C543 0.950 . S
C566 C567 1.349 . S
C566 C568 1.327 . S
C566 H591 0.950 . S
C567 C566 1.349 . S
C567 C583 1.349 . S
C568 C566 1.327 . S
C568 C587 1.429 . S
C568 H592 0.950 . S
C569 C586 1.574 . S
C569 C588 1.368 . S
C569 H593 0.949 . S
H570 C574 0.949 . S
C571 C572 1.349 . S
C571 C573 1.327 . S
C571 H594 0.950 . S
C572 C571 1.349 . S
C572 C584 1.349 . S
C573 C571 1.327 . S
C573 C589 1.429 . S
C573 H595 0.950 . S
C574 H570 0.949 . S
C574 C582 1.574 . S
C574 C590 1.368 . S
H575 C583 0.950 . S
H576 C581 0.950 . S
H577 C582 0.949 . S
H578 C584 0.950 . S
H579 C585 0.950 . S
H580 C586 0.949 . S
C581 H576 0.950 . S
C581 C583 1.327 . S
C581 C587 1.429 . S
C582 C574 1.574 . S
C582 H577 0.949 . S
C582 C588 1.368 . S
C583 C567 1.349 . S
C583 H575 0.950 . S
C583 C581 1.327 . S
C584 C572 1.349 . S
C584 H578 0.950 . S
C584 C585 1.327 . S
C585 H579 0.950 . S
C585 C584 1.327 . S
C585 C589 1.429 . S
C586 C569 1.574 . S
C586 H580 0.949 . S
C586 C590 1.368 . S
C587 C568 1.429 . S
C587 C581 1.429 . S
C587 C588 1.523 . S
C588 C569 1.368 . S
C588 C582 1.368 . S
C588 C587 1.523 . S
C589 C573 1.429 . S
C589 C585 1.429 . S
C589 C590 1.523 . S
C590 C574 1.368 . S
C590 C586 1.368 . S
C590 C589 1.523 . S
H591 C566 0.950 . S
H592 C568 0.950 . S
H593 C569 0.949 . S
H594 C571 0.950 . S
H595 C573 0.950 . S
C596 C597 1.349 . S
C596 C598 1.327 . S
C596 H621 0.950 . S
C597 C596 1.349 . S
C597 C613 1.349 . S
C598 C596 1.327 . S
C598 C617 1.429 . S
C598 H622 0.950 . S
C599 C616 1.574 . S
C599 C618 1.368 . S
C599 H623 0.949 . S
H600 C604 0.949 . S
C601 C602 1.349 . S
C601 C603 1.327 . S
C601 H624 0.950 . S
C602 C601 1.349 . S
C602 C614 1.349 . S
C603 C601 1.327 . S
C603 C619 1.429 . S
C603 H625 0.950 . S
C604 H600 0.949 . S
C604 C612 1.574 . S
C604 C620 1.368 . S
H605 C613 0.950 . S
H606 C611 0.950 . S
H607 C612 0.949 . S
H608 C614 0.950 . S
H609 C615 0.950 . S
H610 C616 0.949 . S
C611 H606 0.950 . S
C611 C613 1.327 . S
C611 C617 1.429 . S
C612 C604 1.574 . S
C612 H607 0.949 . S
C612 C618 1.368 . S
C613 C597 1.349 . S
C613 H605 0.950 . S
C613 C611 1.327 . S
C614 C602 1.349 . S
C614 H608 0.950 . S
C614 C615 1.327 . S
C615 H609 0.950 . S
C615 C614 1.327 . S
C615 C619 1.429 . S
C616 C599 1.574 . S
C616 H610 0.949 . S
C616 C620 1.368 . S
C617 C598 1.429 . S
C617 C611 1.429 . S
C617 C618 1.523 . S
C618 C599 1.368 . S
C618 C612 1.368 . S
C618 C617 1.523 . S
C619 C603 1.429 . S
C619 C615 1.429 . S
C619 C620 1.523 1_545 S
C620 C604 1.368 . S
C620 C616 1.368 . S
C620 C619 1.523 1_565 S
H621 C596 0.950 . S
H622 C598 0.950 . S
H623 C599 0.949 . S
H624 C601 0.950 . S
H625 C603 0.950 . S
C626 C627 1.349 . S
C626 C628 1.327 . S
C626 H651 0.950 . S
C627 C626 1.349 . S
C627 C643 1.349 . S
C628 C626 1.327 . S
C628 C647 1.429 . S
C628 H652 0.950 . S
C629 C646 1.574 . S
C629 C648 1.368 . S
C629 H653 0.949 . S
H630 C634 0.949 . S
C631 C632 1.349 . S
C631 C633 1.327 . S
C631 H654 0.950 . S
C632 C631 1.349 . S
C632 C644 1.349 . S
C633 C631 1.327 . S
C633 C649 1.429 . S
C633 H655 0.950 . S
C634 H630 0.949 . S
C634 C642 1.574 . S
C634 C650 1.368 . S
H635 C643 0.950 . S
H636 C641 0.950 . S
H637 C642 0.949 1_545 S
H638 C644 0.950 . S
H639 C645 0.950 . S
H640 C646 0.949 . S
C641 H636 0.950 . S
C641 C643 1.327 . S
C641 C647 1.429 . S
C642 C634 1.574 . S
C642 H637 0.949 1_565 S
C642 C648 1.368 . S
C643 C627 1.349 . S
C643 H635 0.950 . S
C643 C641 1.327 . S
C644 C632 1.349 . S
C644 H638 0.950 . S
C644 C645 1.327 . S
C645 H639 0.950 . S
C645 C644 1.327 . S
C645 C649 1.429 . S
C646 C629 1.574 . S
C646 H640 0.949 . S
C646 C650 1.368 . S
C647 C628 1.429 . S
C647 C641 1.429 . S
C647 C648 1.523 1_545 S
C648 C629 1.368 . S
C648 C642 1.368 . S
C648 C647 1.523 1_565 S
C649 C633 1.429 . S
C649 C645 1.429 . S
C649 C650 1.523 . S
C650 C634 1.368 . S
C650 C646 1.368 . S
C650 C649 1.523 . S
H651 C626 0.950 . S
H652 C628 0.950 . S
H653 C629 0.949 . S
H654 C631 0.950 . S
H655 C633 0.950 . S
C656 C657 1.349 . S
C656 C658 1.327 . S
C656 H681 0.950 . S
C657 C656 1.349 . S
C657 C673 1.349 . S
C658 C656 1.327 . S
C658 C677 1.429 . S
C658 H682 0.950 . S
C659 C676 1.574 1_545 S
C659 C678 1.368 . S
C659 H683 0.949 . S
H660 C664 0.949 1_565 S
C661 C662 1.349 . S
C661 C663 1.327 . S
C661 H684 0.950 . S
C662 C661 1.349 . S
C662 C674 1.349 . S
C663 C661 1.327 . S
C663 C679 1.429 . S
C663 H685 0.950 . S
C664 H660 0.949 1_545 S
C664 C672 1.574 . S
C664 C680 1.368 1_545 S
H665 C673 0.950 . S
H666 C671 0.950 . S
H667 C672 0.949 . S
H668 C674 0.950 . S
H669 C675 0.950 . S
H670 C676 0.949 . S
C671 H666 0.950 . S
C671 C673 1.327 . S
C671 C677 1.429 . S
C672 C664 1.574 . S
C672 H667 0.949 . S
C672 C678 1.368 . S
C673 C657 1.349 . S
C673 H665 0.950 . S
C673 C671 1.327 . S
C674 C662 1.349 . S
C674 H668 0.950 . S
C674 C675 1.327 . S
C675 H669 0.950 . S
C675 C674 1.327 . S
C675 C679 1.429 . S
C676 C659 1.574 1_565 S
C676 H670 0.949 . S
C676 C680 1.368 . S
C677 C658 1.429 . S
C677 C671 1.429 . S
C677 C678 1.523 . S
C678 C659 1.368 . S
C678 C672 1.368 . S
C678 C677 1.523 . S
C679 C663 1.429 . S
C679 C675 1.429 . S
C679 C680 1.523 . S
C680 C664 1.368 1_565 S
C680 C676 1.368 . S
C680 C679 1.523 . S
H681 C656 0.950 . S
H682 C658 0.950 . S
H683 C659 0.949 . S
H684 C661 0.950 . S
H685 C663 0.950 . S
C686 C687 1.349 . S
C686 C688 1.327 . S
C686 H711 0.950 . S
C687 C686 1.349 . S
C687 C703 1.349 . S
C688 C686 1.327 . S
C688 C707 1.429 . S
C688 H712 0.950 . S
C689 C706 1.580 . S
C689 C708 1.366 1_545 S
C689 H713 0.945 1_545 S
H690 C694 0.949 . S
C691 C692 1.349 . S
C691 C693 1.327 . S
C691 H714 0.950 . S
C692 C691 1.349 . S
C692 C704 1.349 . S
C693 C691 1.327 . S
C693 C709 1.429 . S
C693 H715 0.950 . S
C694 H690 0.949 . S
C694 C702 1.574 . S
C694 C710 1.368 . S
H695 C703 0.950 1_655 S
H696 C701 0.950 . S
H697 C702 0.949 . S
H698 C704 0.950 . S
H699 C705 0.950 . S
H700 C706 0.949 . S
C701 H696 0.950 . S
C701 C703 1.327 . S
C701 C707 1.429 . S
C702 C694 1.574 . S
C702 H697 0.949 . S
C702 C708 1.368 1_545 S
C703 C687 1.349 . S
C703 H695 0.950 1_455 S
C703 C701 1.327 . S
C704 C692 1.349 . S
C704 H698 0.950 . S
C704 C705 1.327 . S
C705 H699 0.950 . S
C705 C704 1.327 . S
C705 C709 1.429 . S
C706 C689 1.580 . S
C706 H700 0.949 . S
C706 C710 1.368 . S
C707 C688 1.429 . S
C707 C701 1.429 . S
C707 C708 1.523 . S
C708 C689 1.366 1_565 S
C708 C702 1.368 1_565 S
C708 C707 1.523 . S
C709 C693 1.429 . S
C709 C705 1.429 . S
C709 C710 1.523 . S
C710 C694 1.368 . S
C710 C706 1.368 . S
C710 C709 1.523 . S
H711 C686 0.950 . S
H712 C688 0.950 . S
H713 C689 0.945 1_565 S
H714 C691 0.950 . S
H715 C693 0.950 . S
C716 C717 1.349 . S
C716 C718 1.327 . S
C716 H741 0.950 . S
C717 C716 1.349 . S
C717 C733 1.349 . S
C718 C716 1.327 . S
C718 C737 1.429 . S
C718 H742 0.950 . S
C719 C736 1.574 . S
C719 C738 1.368 . S
C719 H743 0.949 . S
H720 C724 0.949 . S
C721 C722 1.349 . S
C721 C723 1.327 . S
C721 H744 0.950 . S
C722 C721 1.349 . S
C722 C734 1.349 . S
C723 C721 1.327 . S
C723 C739 1.429 . S
C723 H745 0.950 . S
C724 H720 0.949 . S
C724 C732 1.574 . S
C724 C740 1.368 . S
H725 C733 0.950 . S
H726 C731 0.950 . S
H727 C732 0.949 1_554 S
H728 C734 0.950 . S
H729 C735 0.950 . S
H730 C736 0.949 . S
C731 H726 0.950 . S
C731 C733 1.327 . S
C731 C737 1.429 . S
C732 C724 1.574 . S
C732 H727 0.949 1_556 S
C732 C738 1.368 . S
C733 C717 1.349 . S
C733 H725 0.950 . S
C733 C731 1.327 . S
C734 C722 1.349 . S
C734 H728 0.950 . S
C734 C735 1.327 . S
C735 H729 0.950 . S
C735 C734 1.327 . S
C735 C739 1.429 . S
C736 C719 1.574 . S
C736 H730 0.949 . S
C736 C740 1.368 . S
C737 C718 1.429 . S
C737 C731 1.429 . S
C737 C738 1.523 1_554 S
C738 C719 1.368 . S
C738 C732 1.368 . S
C738 C737 1.523 1_556 S
C739 C723 1.429 . S
C739 C735 1.429 . S
C739 C740 1.523 . S
C740 C724 1.368 . S
C740 C736 1.368 . S
C740 C739 1.523 . S
H741 C716 0.950 . S
H742 C718 0.950 . S
H743 C719 0.949 . S
H744 C721 0.950 . S
H745 C723 0.950 . S
C746 C747 1.349 . S
C746 C748 1.327 . S
C746 H771 0.950 . S
C747 C746 1.349 . S
C747 C763 1.349 . S
C748 C746 1.327 . S
C748 C767 1.429 . S
C748 H772 0.950 . S
C749 C766 1.574 . S
C749 C768 1.368 . S
C749 H773 0.949 . S
H750 C754 0.949 . S
C751 C752 1.349 . S
C751 C753 1.327 . S
C751 H774 0.950 . S
C752 C751 1.349 . S
C752 C764 1.349 . S
C753 C751 1.327 . S
C753 C769 1.429 . S
C753 H775 0.950 . S
C754 H750 0.949 . S
C754 C762 1.574 . S
C754 C770 1.368 . S
H755 C763 0.950 . S
H756 C761 0.950 . S
H757 C762 0.949 . S
H758 C764 0.950 . S
H759 C765 0.950 . S
H760 C766 0.949 . S
C761 H756 0.950 . S
C761 C763 1.327 . S
C761 C767 1.429 . S
C762 C754 1.574 . S
C762 H757 0.949 . S
C762 C768 1.368 . S
C763 C747 1.349 . S
C763 H755 0.950 . S
C763 C761 1.327 . S
C764 C752 1.349 . S
C764 H758 0.950 . S
C764 C765 1.327 . S
C765 H759 0.950 . S
C765 C764 1.327 . S
C765 C769 1.429 . S
C766 C749 1.574 . S
C766 H760 0.949 . S
C766 C770 1.368 . S
C767 C748 1.429 . S
C767 C761 1.429 . S
C767 C768 1.523 . S
C768 C749 1.368 . S
C768 C762 1.368 . S
C768 C767 1.523 . S
C769 C753 1.429 . S
C769 C765 1.429 . S
C769 C770 1.523 . S
C770 C754 1.368 . S
C770 C766 1.368 . S
C770 C769 1.523 . S
H771 C746 0.950 . S
H772 C748 0.950 . S
H773 C749 0.949 . S
H774 C751 0.950 . S
H775 C753 0.950 . S
C776 C777 1.349 . S
C776 C778 1.327 . S
C776 H801 0.950 . S
C777 C776 1.349 . S
C777 C793 1.349 . S
C778 C776 1.327 . S
C778 C797 1.429 . S
C778 H802 0.950 . S
C779 C796 1.574 . S
C779 C798 1.368 . S
C779 H803 0.949 . S
H780 C784 0.949 . S
C781 C782 1.349 . S
C781 C783 1.327 . S
C781 H804 0.950 . S
C782 C781 1.349 . S
C782 C794 1.349 . S
C783 C781 1.327 . S
C783 C799 1.429 . S
C783 H805 0.950 . S
C784 H780 0.949 . S
C784 C792 1.574 . S
C784 C800 1.368 . S
H785 C793 0.950 . S
H786 C791 0.950 . S
H787 C792 0.949 . S
H788 C794 0.950 . S
H789 C795 0.950 . S
H790 C796 0.949 . S
C791 H786 0.950 . S
C791 C793 1.327 . S
C791 C797 1.429 . S
C792 C784 1.574 . S
C792 H787 0.949 . S
C792 C798 1.368 . S
C793 C777 1.349 . S
C793 H785 0.950 . S
C793 C791 1.327 . S
C794 C782 1.349 . S
C794 H788 0.950 . S
C794 C795 1.327 . S
C795 H789 0.950 . S
C795 C794 1.327 . S
C795 C799 1.429 . S
C796 C779 1.574 . S
C796 H790 0.949 . S
C796 C800 1.368 . S
C797 C778 1.429 . S
C797 C791 1.429 . S
C797 C798 1.523 . S
C798 C779 1.368 . S
C798 C792 1.368 . S
C798 C797 1.523 . S
C799 C783 1.429 . S
C799 C795 1.429 . S
C799 C800 1.523 . S
C800 C784 1.368 . S
C800 C796 1.368 . S
C800 C799 1.523 . S
H801 C776 0.950 . S
H802 C778 0.950 . S
H803 C779 0.949 . S
H804 C781 0.950 . S
H805 C783 0.950 . S
C806 C807 1.349 . S
C806 C808 1.327 . S
C806 H831 0.950 . S
C807 C806 1.349 . S
C807 C823 1.349 . S
C808 C806 1.327 . S
C808 C827 1.429 . S
C808 H832 0.950 . S
C809 C826 1.574 . S
C809 C828 1.368 . S
C809 H833 0.949 . S
H810 C814 0.949 . S
C811 C812 1.349 . S
C811 C813 1.327 . S
C811 H834 0.950 . S
C812 C811 1.349 . S
C812 C824 1.349 . S
C813 C811 1.327 . S
C813 C829 1.429 . S
C813 H835 0.950 . S
C814 H810 0.949 . S
C814 C822 1.574 . S
C814 C830 1.368 . S
H815 C823 0.950 . S
H816 C821 0.950 . S
H817 C822 0.949 . S
H818 C824 0.950 . S
H819 C825 0.950 . S
H820 C826 0.949 . S
C821 H816 0.950 . S
C821 C823 1.327 . S
C821 C827 1.429 . S
C822 C814 1.574 . S
C822 H817 0.949 . S
C822 C828 1.368 . S
C823 C807 1.349 . S
C823 H815 0.950 . S
C823 C821 1.327 . S
C824 C812 1.349 . S
C824 H818 0.950 . S
C824 C825 1.327 . S
C825 H819 0.950 . S
C825 C824 1.327 . S
C825 C829 1.429 . S
C826 C809 1.574 . S
C826 H820 0.949 . S
C826 C830 1.368 . S
C827 C808 1.429 . S
C827 C821 1.429 . S
C827 C828 1.523 . S
C828 C809 1.368 . S
C828 C822 1.368 . S
C828 C827 1.523 . S
C829 C813 1.429 . S
C829 C825 1.429 . S
C829 C830 1.523 . S
C830 C814 1.368 . S
C830 C826 1.368 . S
C830 C829 1.523 . S
H831 C806 0.950 . S
H832 C808 0.950 . S
H833 C809 0.949 . S
H834 C811 0.950 . S
H835 C813 0.950 . S
C836 C837 1.349 . S
C836 C838 1.327 . S
C836 H861 0.950 . S
C837 C836 1.349 . S
C837 C853 1.349 . S
C838 C836 1.327 . S
C838 C857 1.429 . S
C838 H862 0.950 . S
C839 C856 1.574 . S
C839 C858 1.338 1_554 S
C839 H863 0.949 . S
H840 C844 0.949 . S
C841 C842 1.349 . S
C841 C843 1.327 . S
C841 H864 0.950 . S
C842 C841 1.349 . S
C842 C854 1.349 . S
C843 C841 1.327 . S
C843 C859 1.429 . S
C843 H865 0.950 . S
C844 H840 0.949 . S
C844 C852 1.574 . S
C844 C860 1.368 . S
H845 C853 0.950 . S
H846 C851 0.950 . S
H847 C852 0.949 1_556 S
H848 C854 0.950 . S
H849 C855 0.950 . S
H850 C856 0.949 . S
C851 H846 0.950 . S
C851 C853 1.327 . S
C851 C857 1.429 . S
C852 C844 1.574 . S
C852 H847 0.949 1_554 S
C852 C858 1.365 1_554 S
C853 C837 1.349 . S
C853 H845 0.950 . S
C853 C851 1.327 . S
C854 C842 1.349 . S
C854 H848 0.950 . S
C854 C855 1.327 . S
C855 H849 0.950 . S
C855 C854 1.327 . S
C855 C859 1.429 . S
C856 C839 1.574 . S
C856 H850 0.949 . S
C856 C860 1.368 . S
C857 C838 1.429 . S
C857 C851 1.429 . S
C857 C858 1.568 . S
C858 C839 1.338 1_556 S
C858 C852 1.365 1_556 S
C858 C857 1.568 . S
C859 C843 1.429 . S
C859 C855 1.429 . S
C859 C860 1.523 . S
C860 C844 1.368 . S
C860 C856 1.368 . S
C860 C859 1.523 . S
H861 C836 0.950 . S
H862 C838 0.950 . S
H863 C839 0.949 . S
H864 C841 0.950 . S
H865 C843 0.950 . S
C866 C867 1.349 . S
C866 C868 1.327 . S
C866 H891 0.950 . S
C867 C866 1.349 . S
C867 C883 1.349 . S
C868 C866 1.327 . S
C868 C887 1.429 . S
C868 H892 0.950 . S
C869 C886 1.574 . S
C869 C888 1.368 . S
C869 H893 0.949 . S
H870 C874 0.949 . S
C871 C872 1.349 . S
C871 C873 1.327 . S
C871 H894 0.950 . S
C872 C871 1.349 . S
C872 C884 1.349 . S
C873 C871 1.327 . S
C873 C889 1.429 . S
C873 H895 0.950 . S
C874 H870 0.949 . S
C874 C882 1.574 . S
C874 C890 1.368 . S
H875 C883 0.950 . S
H876 C881 0.950 . S
H877 C882 0.949 . S
H878 C884 0.950 . S
H879 C885 0.950 . S
H880 C886 0.949 . S
C881 H876 0.950 . S
C881 C883 1.327 . S
C881 C887 1.429 . S
C882 C874 1.574 . S
C882 H877 0.949 . S
C882 C888 1.368 . S
C883 C867 1.349 . S
C883 H875 0.950 . S
C883 C881 1.327 . S
C884 C872 1.349 . S
C884 H878 0.950 . S
C884 C885 1.327 . S
C885 H879 0.950 . S
C885 C884 1.327 . S
C885 C889 1.429 . S
C886 C869 1.574 . S
C886 H880 0.949 . S
C886 C890 1.368 . S
C887 C868 1.429 . S
C887 C881 1.429 . S
C887 C888 1.523 . S
C888 C869 1.368 . S
C888 C882 1.368 . S
C888 C887 1.523 . S
C889 C873 1.429 . S
C889 C885 1.429 . S
C889 C890 1.523 . S
C890 C874 1.368 . S
C890 C886 1.368 . S
C890 C889 1.523 . S
H891 C866 0.950 . S
H892 C868 0.950 . S
H893 C869 0.949 . S
H894 C871 0.950 . S
H895 C873 0.950 . S
C896 C897 1.349 . S
C896 C898 1.327 . S
C896 H921 0.950 . S
C897 C896 1.349 . S
C897 C913 1.349 . S
C898 C896 1.327 . S
C898 C917 1.429 . S
C898 H922 0.950 . S
C899 C916 1.574 . S
C899 C918 1.368 . S
C899 H923 0.949 . S
H900 C904 0.949 . S
C901 C902 1.349 . S
C901 C903 1.327 . S
C901 H924 0.950 . S
C902 C901 1.349 . S
C902 C914 1.349 . S
C903 C901 1.327 . S
C903 C919 1.429 . S
C903 H925 0.950 . S
C904 H900 0.949 . S
C904 C912 1.574 . S
C904 C920 1.368 . S
H905 C913 0.950 . S
H906 C911 0.950 . S
H907 C912 0.949 . S
H908 C914 0.950 . S
H909 C915 0.950 . S
H910 C916 0.949 . S
C911 H906 0.950 . S
C911 C913 1.327 . S
C911 C917 1.429 . S
C912 C904 1.574 . S
C912 H907 0.949 . S
C912 C918 1.368 . S
C913 C897 1.349 . S
C913 H905 0.950 . S
C913 C911 1.327 . S
C914 C902 1.349 . S
C914 H908 0.950 . S
C914 C915 1.327 . S
C915 H909 0.950 . S
C915 C914 1.327 . S
C915 C919 1.429 . S
C916 C899 1.574 . S
C916 H910 0.949 . S
C916 C920 1.368 . S
C917 C898 1.429 . S
C917 C911 1.429 . S
C917 C918 1.523 . S
C918 C899 1.368 . S
C918 C912 1.368 . S
C918 C917 1.523 . S
C919 C903 1.429 . S
C919 C915 1.429 . S
C919 C920 1.523 . S
C920 C904 1.368 . S
C920 C916 1.368 . S
C920 C919 1.523 . S
H921 C896 0.950 . S
H922 C898 0.950 . S
H923 C899 0.949 . S
H924 C901 0.950 . S
H925 C903 0.950 . S
C926 C927 1.349 . S
C926 C928 1.327 . S
C926 H951 0.950 . S
C927 C926 1.349 . S
C927 C943 1.349 . S
C928 C926 1.327 . S
C928 C947 1.429 . S
C928 H952 0.950 . S
C929 C946 1.574 . S
C929 C948 1.368 . S
C929 H953 0.949 . S
H930 C934 0.949 . S
C931 C932 1.349 . S
C931 C933 1.327 . S
C931 H954 0.950 . S
C932 C931 1.349 . S
C932 C944 1.349 . S
C933 C931 1.327 . S
C933 C949 1.429 . S
C933 H955 0.950 . S
C934 H930 0.949 . S
C934 C942 1.574 . S
C934 C950 1.368 . S
H935 C943 0.950 . S
H936 C941 0.950 . S
H937 C942 0.949 . S
H938 C944 0.950 . S
H939 C945 0.950 . S
H940 C946 0.949 . S
C941 H936 0.950 . S
C941 C943 1.327 . S
C941 C947 1.429 . S
C942 C934 1.574 . S
C942 H937 0.949 . S
C942 C948 1.368 . S
C943 C927 1.349 . S
C943 H935 0.950 . S
C943 C941 1.327 . S
C944 C932 1.349 . S
C944 H938 0.950 . S
C944 C945 1.327 . S
C945 H939 0.950 . S
C945 C944 1.327 . S
C945 C949 1.429 . S
C946 C929 1.574 . S
C946 H940 0.949 . S
C946 C950 1.368 . S
C947 C928 1.429 . S
C947 C941 1.429 . S
C947 C948 1.523 . S
C948 C929 1.368 . S
C948 C942 1.368 . S
C948 C947 1.523 . S
C949 C933 1.429 . S
C949 C945 1.429 . S
C949 C950 1.523 . S
C950 C934 1.368 . S
C950 C946 1.368 . S
C950 C949 1.523 . S
H951 C926 0.950 . S
H952 C928 0.950 . S
H953 C929 0.949 . S
H954 C931 0.950 . S
H955 C933 0.950 . S
C242 C159 1.460 . S
C237 C6 1.600 . S
C272 C177 1.375 . S
C267 C30 1.410 . S
C297 C49 1.313 . S
C302 C201 1.272 . S
C332 C231 1.274 1_655 S
C327 C63 1.409 . S
C362 C219 1.215 . S
C357 C82 1.313 . S
C387 C106 1.425 . S
C392 C172 1.395 . S
C417 C125 1.639 . S
C422 C192 1.556 . S
C447 C139 1.423 . S
C452 C197 1.303 . S
C477 C144 1.416 . S
C482 C213 1.385 . S
C507 C101 1.422 . S
C512 C168 1.299 . S
C542 C235 1.390 . S
C537 C68 1.415 . S
C572 C180 1.273 . S
C567 C25 1.416 . S
C597 C44 1.597 . S
C602 C198 1.458 . S
C627 C11 1.324 . S
C632 C156 1.282 . S
C662 C176 1.204 . S
C657 C120 1.295 . S
C692 C222 1.553 . S
C687 C87 1.645 . S
C722 C218 1.450 . S
C717 C2 1.565 . S
C752 C171 1.530 . S
C747 C21 1.567 . S
C777 C40 1.544 . S
C782 C193 1.425 . S
C807 C59 1.586 . S
C812 C214 1.546 . S
C842 C155 1.406 . S
C837 C78 1.651 . S
C867 C97 1.541 . S
C872 C189 1.490 . S
C902 C210 1.421 . S
C897 C116 1.667 . S
C932 C234 1.462 . S
C927 C135 1.515 . S
