# Generated by pormake.
# Topology csq, (4,8)-cn, num edge types: 1
# Building blocks:
#     Node 0, Type 0, BuildingBlock: GIZVER_clean_linker_0, # of connection points: 4
#     Node 1, Type 0, BuildingBlock: GIZVER_clean_linker_0, # of connection points: 4
#     Node 2, Type 0, BuildingBlock: GIZVER_clean_linker_0, # of connection points: 4
#     Node 3, Type 0, BuildingBlock: GIZVER_clean_linker_0, # of connection points: 4
#     Node 4, Type 0, BuildingBlock: GIZVER_clean_linker_0, # of connection points: 4
#     Node 5, Type 0, BuildingBlock: GIZVER_clean_linker_0, # of connection points: 4
#     Node 6, Type 1, BuildingBlock: TAGTUT_clean_sbu_1, # of connection points: 8
#     Node 7, Type 1, BuildingBlock: TAGTUT_clean_sbu_1, # of connection points: 8
#     Node 8, Type 1, BuildingBlock: TAGTUT_clean_sbu_1, # of connection points: 8
#     Edge 9, Type (0, 1), BuildingBlock: KIFKEQ_clean_linker_1, # of connection points: 2
#     Edge 10, Type (0, 1), BuildingBlock: KIFKEQ_clean_linker_1, # of connection points: 2
#     Edge 11, Type (0, 1), BuildingBlock: KIFKEQ_clean_linker_1, # of connection points: 2
#     Edge 12, Type (0, 1), BuildingBlock: KIFKEQ_clean_linker_1, # of connection points: 2
#     Edge 13, Type (0, 1), BuildingBlock: KIFKEQ_clean_linker_1, # of connection points: 2
#     Edge 14, Type (0, 1), BuildingBlock: KIFKEQ_clean_linker_1, # of connection points: 2
#     Edge 15, Type (0, 1), BuildingBlock: KIFKEQ_clean_linker_1, # of connection points: 2
#     Edge 16, Type (0, 1), BuildingBlock: KIFKEQ_clean_linker_1, # of connection points: 2
#     Edge 17, Type (0, 1), BuildingBlock: KIFKEQ_clean_linker_1, # of connection points: 2
#     Edge 18, Type (0, 1), BuildingBlock: KIFKEQ_clean_linker_1, # of connection points: 2
#     Edge 19, Type (0, 1), BuildingBlock: KIFKEQ_clean_linker_1, # of connection points: 2
#     Edge 20, Type (0, 1), BuildingBlock: KIFKEQ_clean_linker_1, # of connection points: 2
#     Edge 21, Type (0, 1), BuildingBlock: KIFKEQ_clean_linker_1, # of connection points: 2
#     Edge 22, Type (0, 1), BuildingBlock: KIFKEQ_clean_linker_1, # of connection points: 2
#     Edge 23, Type (0, 1), BuildingBlock: KIFKEQ_clean_linker_1, # of connection points: 2
#     Edge 24, Type (0, 1), BuildingBlock: KIFKEQ_clean_linker_1, # of connection points: 2
#     Edge 25, Type (0, 1), BuildingBlock: KIFKEQ_clean_linker_1, # of connection points: 2
#     Edge 26, Type (0, 1), BuildingBlock: KIFKEQ_clean_linker_1, # of connection points: 2
#     Edge 27, Type (0, 1), BuildingBlock: KIFKEQ_clean_linker_1, # of connection points: 2
#     Edge 28, Type (0, 1), BuildingBlock: KIFKEQ_clean_linker_1, # of connection points: 2
#     Edge 29, Type (0, 1), BuildingBlock: KIFKEQ_clean_linker_1, # of connection points: 2
#     Edge 30, Type (0, 1), BuildingBlock: KIFKEQ_clean_linker_1, # of connection points: 2
#     Edge 31, Type (0, 1), BuildingBlock: KIFKEQ_clean_linker_1, # of connection points: 2
#     Edge 32, Type (0, 1), BuildingBlock: KIFKEQ_clean_linker_1, # of connection points: 2
# Relax obj value: 0.046
# Max RMSD: 0.134
# Mean RMSD: 0.097
data_MOF--net-csq--node1-TAGTUT_clean_sbu_1--node2-GIZVER_clean_linker_0--edge1-KIFKEQ_clean_linker_1
_symmetry_space_group_name_H-M    P1
_symmetry_Int_Tables_number       1
_symmetry_cell_setting            triclinic
loop_
_symmetry_equiv_pos_as_xyz
'x, y, z'
_cell_length_a     55.217488
_cell_length_b     54.861485
_cell_length_c     18.736221
_cell_angle_alpha  93.123494
_cell_angle_beta   91.704757
_cell_angle_gamma 119.88013
loop_
_atom_site_label
_atom_site_type_symbol
_atom_site_fract_x
_atom_site_fract_y
_atom_site_fract_z
_atom_type_partial_charge
H0 H 0.25132 0.51672 0.03131 0.0
H1 H 0.24432 0.52303 0.25871 0.0
H2 H 0.17016 0.48208 0.11595 0.0
H3 H 0.28978 0.55482 0.11283 0.0
H4 H 0.28839 0.55328 0.20737 0.0
H5 H 0.30358 0.52568 0.04009 0.0
H6 H 0.34629 0.49108 0.15572 0.0
H7 H 0.29745 0.52003 0.2679 0.0
C8 C 0.23838 0.5118 0.07667 0.0
C9 C 0.20914 0.49764 0.06516 0.0
C10 C 0.25119 0.52104 0.14613 0.0
C11 C 0.23444 0.5154 0.20513 0.0
C12 C 0.20505 0.5008 0.19489 0.0
C13 C 0.19268 0.49185 0.12464 0.0
C14 C 0.28253 0.53997 0.15583 0.0
C15 C 0.29774 0.52347 0.15375 0.0
C16 C 0.30789 0.51866 0.08936 0.0
C17 C 0.32562 0.5071 0.08982 0.0
C18 C 0.33197 0.4992 0.15475 0.0
C19 C 0.32211 0.50393 0.21929 0.0
C20 C 0.30458 0.51562 0.21811 0.0
H21 H 0.82555 0.24149 0.02411 0.0
H22 H 0.80724 0.26557 0.22963 0.0
H23 H 0.86207 0.32874 0.09527 0.0
H24 H 0.79742 0.2055 0.09787 0.0
H25 H 0.80654 0.21676 0.19054 0.0
H26 H 0.75377 0.20351 0.04068 0.0
H27 H 0.68691 0.17829 0.18296 0.0
H28 H 0.77136 0.21181 0.26892 0.0
C29 C 0.82678 0.25758 0.0627 0.0
C30 C 0.84445 0.28605 0.05193 0.0
C31 C 0.81237 0.24998 0.12589 0.0
C32 C 0.81648 0.27128 0.17861 0.0
C33 C 0.83417 0.29988 0.16758 0.0
C34 C 0.84708 0.30689 0.10284 0.0
C35 C 0.79633 0.21937 0.14175 0.0
C36 C 0.76602 0.2096 0.15349 0.0
C37 C 0.74659 0.20168 0.0944 0.0
C38 C 0.71792 0.1904 0.10434 0.0
C39 C 0.70906 0.18803 0.17451 0.0
C40 C 0.72817 0.19566 0.23398 0.0
C41 C 0.75664 0.2065 0.22319 0.0
H42 H 0.56091 0.81162 0.94398 0.0
H43 H 0.58468 0.82056 0.16935 0.0
H44 H 0.53656 0.85651 0.09288 0.0
H45 H 0.59524 0.79953 0.98457 0.0
H46 H 0.6097 0.80921 0.07485 0.0
H47 H 0.5627 0.75136 0.94743 0.0
H48 H 0.54038 0.6891 0.09998 0.0
H49 H 0.58528 0.77666 0.17277 0.0
C50 C 0.55956 0.81815 -0.00135 0.0
C51 C 0.54615 0.83391 0.0119 0.0
C52 C 0.57271 0.81234 0.05576 0.0
C53 C 0.57292 0.82306 0.12586 0.0
C54 C 0.55934 0.83845 0.13929 0.0
C55 C 0.54534 0.84292 0.08262 0.0
C56 C 0.58962 0.79806 0.04135 0.0
C57 C 0.57413 0.76755 0.0585 0.0
C58 C 0.5616 0.74597 0.0025 0.0
C59 C 0.54944 0.71752 0.01709 0.0
C60 C 0.54845 0.71088 0.08832 0.0
C61 C 0.56123 0.73192 0.1445 0.0
C62 C 0.57426 0.76034 0.12966 0.0
H63 H 0.768 0.5562 0.94016 0.0
H64 H 0.77407 0.56743 0.17081 0.0
H65 H 0.69364 0.51754 0.05607 0.0
H66 H 0.81137 0.59208 0.00273 0.0
H67 H 0.81392 0.59863 0.09794 0.0
H68 H 0.82606 0.56037 0.94876 0.0
H69 H 0.85909 0.5224 0.08785 0.0
H70 H 0.81973 0.56653 0.17711 0.0
C71 C 0.75819 0.55167 0.99076 0.0
C72 C 0.72904 0.53517 0.99097 0.0
C73 C 0.77467 0.56297 0.05542 0.0
C74 C 0.76154 0.55802 0.12086 0.0
C75 C 0.73224 0.54122 0.12172 0.0
C76 C 0.71629 0.52954 0.05638 0.0
C77 C 0.806 0.58159 0.05372 0.0
C78 C 0.82056 0.5647 0.06185 0.0
C79 C 0.82955 0.55536 0.00188 0.0
C80 C 0.84337 0.53987 0.01069 0.0
C81 C 0.84772 0.53354 0.07998 0.0
C82 C 0.83942 0.54329 0.1399 0.0
C83 C 0.82581 0.55872 0.13059 0.0
H84 H 0.29533 0.76783 0.00242 0.0
H85 H 0.30623 0.78095 0.2325 0.0
H86 H 0.34412 0.8518 0.10417 0.0
H87 H 0.28935 0.72931 0.08128 0.0
H88 H 0.28863 0.73432 0.17592 0.0
H89 H 0.24768 0.7126 0.00451 0.0
H90 H 0.17061 0.69173 0.09868 0.0
H91 H 0.24793 0.73585 0.2285 0.0
C92 C 0.30352 0.78205 0.05059 0.0
C93 C 0.31963 0.8113 0.04512 0.0
C94 C 0.29842 0.77101 0.11814 0.0
C95 C 0.30971 0.78945 0.1805 0.0
C96 C 0.32608 0.81868 0.17603 0.0
C97 C 0.33056 0.82937 0.10816 0.0
C98 C 0.28295 0.73953 0.12373 0.0
C99 C 0.25166 0.72746 0.11619 0.0
C100 C 0.23676 0.71418 0.0501 0.0
C101 C 0.20756 0.70157 0.04402 0.0
C102 C 0.19334 0.7029 0.10308 0.0
C103 C 0.20754 0.71474 0.16998 0.0
C104 C 0.23685 0.72734 0.17641 0.0
H105 H 0.50468 0.26443 0.01943 0.0
H106 H 0.52122 0.28836 0.24663 0.0
H107 H 0.47635 0.31726 0.11896 0.0
H108 H 0.53743 0.25579 0.08867 0.0
H109 H 0.54726 0.2694 0.18026 0.0
H110 H 0.48515 0.21325 0.06399 0.0
H111 H 0.46974 0.14966 0.2091 0.0
H112 H 0.53451 0.23475 0.26433 0.0
C113 C 0.50175 0.27434 0.06743 0.0
C114 C 0.48804 0.29001 0.06187 0.0
C115 C 0.51276 0.27261 0.13485 0.0
C116 C 0.51109 0.28783 0.19566 0.0
C117 C 0.49787 0.30381 0.18939 0.0
C118 C 0.48545 0.30378 0.12354 0.0
C119 C 0.52898 0.25725 0.1409 0.0
C120 C 0.51083 0.22773 0.16323 0.0
C121 C 0.4892 0.20728 0.11523 0.0
C122 C 0.4741 0.17892 0.13117 0.0
C123 C 0.4801 0.17159 0.19712 0.0
C124 C 0.50165 0.19145 0.24503 0.0
C125 C 0.51715 0.21958 0.22824 0.0
C126 C 0.99139 0.42196 0.76624 0.0
C127 C 0.07424 0.47829 0.69496 0.0
C128 C 0.04846 0.55904 0.71975 0.0
Mg129 Mg 0.0154 0.4456 0.62211 0.0
O130 O 1.00595 0.47223 0.65898 0.0
Mg131 Mg 0.02481 0.49278 0.75333 0.0
Mg132 Mg 0.01614 0.50491 0.60184 0.0
O133 O 0.02682 0.53748 0.54404 0.0
Mg134 Mg 0.01985 0.56643 0.57681 0.0
Mg135 Mg 0.00901 0.51685 0.44885 0.0
C136 C 0.98418 0.45116 0.48251 0.0
C137 C 0.05903 0.5039 0.48495 0.0
O138 O 1.00183 0.44732 0.79556 0.0
O139 O 0.9942 0.41676 0.70047 0.0
O140 O 0.06398 0.48945 0.73676 0.0
O141 O 0.05977 0.46115 0.64147 0.0
O142 O 0.99421 0.43794 0.5161 0.0
O143 O 0.98795 0.47523 0.50707 0.0
C144 C 0.9726 0.50335 0.72034 0.0
O145 O 0.97945 0.50798 0.65522 0.0
O146 O 0.98638 0.49705 0.7645 0.0
O147 O 0.03492 0.5616 0.40613 0.0
O148 O 0.04346 0.59406 0.49713 0.0
O149 O 0.97128 0.5226 0.46217 0.0
C150 C 0.04666 0.5874 0.43286 0.0
O151 O 0.9758 0.55226 0.55431 0.0
O152 O 0.03998 0.57328 0.68471 0.0
C153 C 0.96128 0.53473 0.50141 0.0
O154 O 0.04383 0.5346 0.6956 0.0
O155 O 0.0529 0.50157 0.55078 0.0
O156 O 0.04555 0.50972 0.43887 0.0
C157 C 0.44799 0.02358 0.81803 0.0
C158 C 0.43164 0.94501 0.71132 0.0
C159 C 0.54075 0.98264 0.74563 0.0
Mg160 Mg 0.45322 0.00449 0.66296 0.0
O161 O 0.48943 0.01758 0.70585 0.0
Mg162 Mg 0.49249 0.99863 0.79085 0.0
Mg163 Mg 0.51512 0.01227 0.64425 0.0
O164 O 0.54035 0.0067 0.5813 0.0
Mg165 Mg 0.57679 0.0174 0.61742 0.0
Mg166 Mg 0.53658 0.02494 0.49544 0.0
C167 C 0.49078 0.04284 0.54186 0.0
C168 C 0.4757 0.96957 0.50797 0.0
O169 O 0.46527 0.01619 0.84285 0.0
O170 O 0.44082 0.02083 0.75114 0.0
O171 O 0.45255 0.95692 0.75723 0.0
O172 O 0.4279 0.95874 0.66338 0.0
O173 O 0.46678 0.02966 0.56905 0.0
O174 O 0.51173 0.04058 0.56435 0.0
C175 C 0.55254 0.05597 0.78131 0.0
O176 O 0.55144 0.05014 0.71348 0.0
O177 O 0.53278 0.04002 0.81979 0.0
O178 O 0.55991 0.00405 0.44036 0.0
O179 O 0.58451 0.9972 0.52737 0.0
O180 O 0.57826 0.0654 0.52428 0.0
C181 C 0.57564 0.99434 0.46176 0.0
O182 O 0.60427 0.06248 0.61272 0.0
O183 O 0.56405 0.99472 0.71488 0.0
C184 C 0.60034 0.0766 0.56632 0.0
O185 O 0.51941 0.98456 0.72426 0.0
O186 O 0.47822 0.97434 0.57635 0.0
O187 O 0.495 0.98548 0.46865 0.0
C188 C 0.56707 0.59096 0.43347 0.0
C189 C 0.59778 0.53346 0.47492 0.0
C190 C 0.4894 0.45448 0.48677 0.0
Mg191 Mg 0.57847 0.56738 0.56991 0.0
O192 O 0.54066 0.54073 0.54534 0.0
Mg193 Mg 0.53076 0.52033 0.44835 0.0
Mg194 Mg 0.52049 0.50847 0.60495 0.0
O195 O 0.49998 0.47622 0.66427 0.0
Mg196 Mg 0.46195 0.44997 0.63873 0.0
Mg197 Mg 0.50924 0.49737 0.7603 0.0
C198 C 0.55153 0.56289 0.72209 0.0
C199 C 0.56631 0.5022 0.70314 0.0
O200 O 0.55015 0.56552 0.40696 0.0
O201 O 0.58005 0.59642 0.49527 0.0
O202 O 0.57347 0.52225 0.4425 0.0
O203 O 0.60433 0.55048 0.53089 0.0
O204 O 0.57229 0.57559 0.68239 0.0
O205 O 0.52994 0.53895 0.70154 0.0
C206 C 0.4735 0.51378 0.50938 0.0
O207 O 0.48013 0.50878 0.5707 0.0
O208 O 0.48921 0.51882 0.45704 0.0
O209 O 0.48909 0.45243 0.80313 0.0
O210 O 0.45968 0.42104 0.71486 0.0
O211 O 0.46735 0.49692 0.7613 0.0
C212 C 0.47241 0.42687 0.77714 0.0
O213 O 0.43633 0.4678 0.67418 0.0
O214 O 0.46866 0.44175 0.52655 0.0
C215 C 0.44332 0.48599 0.7277 0.0
O216 O 0.51101 0.4784 0.50735 0.0
O217 O 0.56072 0.50753 0.64084 0.0
O218 O 0.55011 0.49797 0.7541 0.0
H219 H 0.21259 0.5399 0.30427 0.0
H220 H 0.15624 0.45382 0.22219 0.0
H221 H 0.1784 0.53671 0.38891 0.0
H222 H 0.1222 0.45061 0.30677 0.0
H223 H 0.0571 0.47796 0.35732 0.0
H224 H 0.09411 0.47393 0.30175 0.0
H225 H 0.14833 0.51382 0.49368 0.0
H226 H 0.11047 0.51773 0.55036 0.0
C227 C 0.19328 0.52003 0.30573 0.0
C228 C 0.18696 0.49724 0.25565 0.0
C229 C 0.17369 0.51819 0.35438 0.0
C230 C 0.14739 0.49354 0.35393 0.0
C231 C 0.14206 0.47008 0.30766 0.0
C232 C 0.16155 0.47192 0.25912 0.0
C233 C 0.07676 0.48553 0.38831 0.0
C234 C 0.08096 0.49839 0.45797 0.0
C235 C 0.09797 0.48301 0.35655 0.0
C236 C 0.12424 0.49352 0.39314 0.0
C237 C 0.12832 0.50561 0.46401 0.0
C238 C 0.10668 0.50771 0.49659 0.0
H239 H 0.69675 0.21326 0.30626 0.0
H240 H 0.73468 0.16139 0.32206 0.0
H241 H 0.67155 0.19428 0.41293 0.0
H242 H 0.70836 0.14091 0.42553 0.0
H243 H 0.65683 0.10085 0.60165 0.0
H244 H 0.69415 0.13902 0.54208 0.0
H245 H 0.63242 0.15212 0.43005 0.0
H246 H 0.59592 0.11546 0.49185 0.0
C247 C 0.69998 0.1981 0.33351 0.0
C248 C 0.71744 0.18861 0.30594 0.0
C249 C 0.68539 0.18698 0.39427 0.0
C250 C 0.68727 0.16547 0.42747 0.0
C251 C 0.70642 0.15757 0.40248 0.0
C252 C 0.72147 0.16918 0.3427 0.0
C253 C 0.65147 0.11272 0.56649 0.0
C254 C 0.62334 0.10466 0.55019 0.0
C255 C 0.67283 0.13438 0.53142 0.0
C256 C 0.66642 0.14826 0.47924 0.0
C257 C 0.63853 0.14219 0.46955 0.0
C258 C 0.61735 0.12083 0.50488 0.0
H259 H 0.52041 0.69956 0.23006 0.0
H260 H 0.6096 0.74105 0.2112 0.0
H261 H 0.52344 0.66739 0.31015 0.0
H262 H 0.61276 0.70876 0.29096 0.0
H263 H 0.53331 0.58928 0.32123 0.0
H264 H 0.5333 0.62902 0.26941 0.0
H265 H 0.60501 0.687 0.40984 0.0
H266 H 0.60521 0.6472 0.46187 0.0
C267 C 0.54085 0.70269 0.24616 0.0
C268 C 0.56477 0.72272 0.21471 0.0
C269 C 0.54254 0.68397 0.2908 0.0
C270 C 0.56821 0.68505 0.30491 0.0
C271 C 0.59267 0.70735 0.28071 0.0
C272 C 0.59095 0.72608 0.23579 0.0
C273 C 0.5493 0.61045 0.34063 0.0
C274 C 0.56924 0.61498 0.39574 0.0
C275 C 0.54903 0.63325 0.31167 0.0
C276 C 0.56881 0.66113 0.3367 0.0
C277 C 0.5894 0.66575 0.38991 0.0
C278 C 0.58952 0.64292 0.41944 0.0
H279 H 0.82266 0.49448 0.20409 0.0
H280 H 0.87556 0.58467 0.23757 0.0
H281 H 0.84242 0.48882 0.31618 0.0
H282 H 0.89696 0.57936 0.34648 0.0
H283 H 0.93897 0.56895 0.53165 0.0
H284 H 0.9002 0.56818 0.463 0.0
H285 H 0.88402 0.49102 0.34452 0.0
H286 H 0.92116 0.49111 0.41507 0.0
C287 C 0.83833 0.51307 0.23621 0.0
C288 C 0.84787 0.53995 0.21246 0.0
C289 C 0.84984 0.50992 0.30014 0.0
C290 C 0.87184 0.53356 0.34015 0.0
C291 C 0.87993 0.5606 0.31819 0.0
C292 C 0.86788 0.56373 0.25528 0.0
C293 C 0.92635 0.55132 0.49279 0.0
C294 C 0.9336 0.53052 0.47735 0.0
C295 C 0.90433 0.55102 0.4527 0.0
C296 C 0.88938 0.53003 0.39631 0.0
C297 C 0.89478 0.5076 0.38709 0.0
C298 C 0.91645 0.50777 0.42738 0.0
H299 H 0.3313 0.87014 0.21148 0.0
H300 H 0.35477 0.8113 0.28677 0.0
H301 H 0.36296 0.90566 0.30466 0.0
H302 H 0.38648 0.84691 0.38013 0.0
H303 H 0.43612 0.91939 0.55877 0.0
H304 H 0.39429 0.88093 0.4909 0.0
H305 H 0.41492 0.93013 0.30689 0.0
H306 H 0.45596 0.96783 0.37328 0.0
C307 C 0.34286 0.86464 0.24871 0.0
C308 C 0.34088 0.83808 0.24098 0.0
C309 C 0.36093 0.88494 0.30215 0.0
C310 C 0.3775 0.87919 0.34903 0.0
C311 C 0.37387 0.8519 0.34509 0.0
C312 C 0.35573 0.83153 0.2915 0.0
C313 C 0.43143 0.92193 0.50407 0.0
C314 C 0.44947 0.9465 0.47117 0.0
C315 C 0.4076 0.89997 0.46526 0.0
C316 C 0.40122 0.90262 0.39373 0.0
C317 C 0.41893 0.92755 0.36214 0.0
C318 C 0.44271 0.94908 0.40012 0.0
H319 H 0.46327 0.29857 0.29521 0.0
H320 H 0.53886 0.35776 0.20205 0.0
H321 H 0.46233 0.33757 0.36238 0.0
H322 H 0.5373 0.39688 0.26483 0.0
H323 H 0.53729 0.45966 0.43614 0.0
H324 H 0.54166 0.4229 0.37065 0.0
H325 H 0.45148 0.37271 0.33823 0.0
H326 H 0.44718 0.40903 0.4077 0.0
C327 C 0.4801 0.31996 0.29105 0.0
C328 C 0.50147 0.32536 0.24522 0.0
C329 C 0.47927 0.34235 0.32786 0.0
C330 C 0.4994 0.37051 0.31783 0.0
C331 C 0.52158 0.37562 0.27456 0.0
C332 C 0.52265 0.35323 0.23896 0.0
C333 C 0.51839 0.44115 0.41331 0.0
C334 C 0.49185 0.4371 0.42773 0.0
C335 C 0.52089 0.41988 0.37598 0.0
C336 C 0.4969 0.39436 0.35091 0.0
C337 C 0.47041 0.39157 0.3593 0.0
C338 C 0.4679 0.41263 0.39782 0.0
H339 H 0.49844 0.83718 0.99481 0.0
H340 H 0.57715 0.86135 0.90206 0.0
H341 H 0.49431 0.87288 0.93189 0.0
H342 H 0.57255 0.89622 0.83693 0.0
H343 H 0.58129 0.98171 0.82909 0.0
H344 H 0.5785 0.94115 0.88301 0.0
H345 H 0.48991 0.89291 0.82234 0.0
H346 H 0.49267 0.93395 0.76932 0.0
C347 C 0.51429 0.84936 0.95863 0.0
C348 C 0.53833 0.84674 0.9542 0.0
C349 C 0.51198 0.8699 0.92279 0.0
C350 C 0.53359 0.88808 0.8814 0.0
C351 C 0.55598 0.88317 0.87041 0.0
C352 C 0.55835 0.86274 0.90649 0.0
C353 C 0.56108 0.96266 0.82869 0.0
C354 C 0.53725 0.96102 0.79468 0.0
C355 C 0.55955 0.93922 0.85848 0.0
C356 C 0.53417 0.91344 0.85473 0.0
C357 C 0.50984 0.91236 0.82551 0.0
C358 C 0.51136 0.93598 0.79583 0.0
H359 H 0.69072 0.48194 0.93732 0.0
H360 H 0.72694 0.56934 0.89489 0.0
H361 H 0.65441 0.46887 0.84158 0.0
H362 H 0.68984 0.55681 0.80225 0.0
H363 H 0.61787 0.53108 0.64617 0.0
H364 H 0.66164 0.53482 0.69341 0.0
H365 H 0.61547 0.47466 0.84668 0.0
H366 H 0.57253 0.47041 0.79835 0.0
C367 C 0.69115 0.49823 0.90627 0.0
C368 C 0.71129 0.5266 0.92356 0.0
C369 C 0.67031 0.49086 0.85181 0.0
C370 C 0.66868 0.51185 0.81531 0.0
C371 C 0.6904 0.54001 0.82867 0.0
C372 C 0.71161 0.54728 0.88209 0.0
C373 C 0.61718 0.5181 0.6884 0.0
C374 C 0.59193 0.50087 0.71947 0.0
C375 C 0.64222 0.52037 0.71592 0.0
C376 C 0.64226 0.50529 0.77453 0.0
C377 C 0.61651 0.4864 0.80115 0.0
C378 C 0.59175 0.48422 0.77395 0.0
H379 H 0.19895 0.6493 0.01152 0.0
H380 H 0.17594 0.70929 0.94421 0.0
H381 H 0.15921 0.61155 0.93866 0.0
H382 H 0.13701 0.67207 0.86794 0.0
H383 H 0.0516 0.59985 0.81497 0.0
H384 H 0.09281 0.63422 0.8893 0.0
H385 H 0.13593 0.58959 0.82638 0.0
H386 H 0.09409 0.55451 0.75502 0.0
C387 C 0.18609 0.65454 0.97816 0.0
C388 C 0.19054 0.6821 0.98233 0.0
C389 C 0.16316 0.63291 0.93692 0.0
C390 C 0.14443 0.63858 0.89875 0.0
C391 C 0.15044 0.66674 0.89851 0.0
C392 C 0.17308 0.68823 0.94067 0.0
C393 C 0.06962 0.59697 0.81894 0.0
C394 C 0.06969 0.57458 0.77929 0.0
C395 C 0.09346 0.61695 0.86034 0.0
C396 C 0.11811 0.61529 0.86185 0.0
C397 C 0.11742 0.59166 0.82637 0.0
C398 C 0.09334 0.57137 0.78588 0.0
H399 H 0.48289 0.17597 0.98882 0.0
H400 H 0.42581 0.12894 0.1475 0.0
H401 H 0.46477 0.13295 0.91073 0.0
H402 H 0.40931 0.08545 0.07057 0.0
H403 H 0.4188 0.04936 0.77898 0.0
H404 H 0.41404 0.08493 0.8503 0.0
H405 H 0.45132 0.06992 0.03591 0.0
H406 H 0.45709 0.03471 0.96435 0.0
C407 C 0.46572 0.15679 0.00609 0.0
C408 C 0.45638 0.15584 0.07544 0.0
C409 C 0.45551 0.13207 0.96142 0.0
C410 C 0.43615 0.10604 0.98572 0.0
C411 C 0.42449 0.10536 0.05138 0.0
C412 C 0.43407 0.13023 0.09525 0.0
C413 C 0.4254 0.05298 0.83542 0.0
C414 C 0.43891 0.03953 0.86567 0.0
C415 C 0.4225 0.07331 0.87605 0.0
C416 C 0.43232 0.08 0.94806 0.0
C417 C 0.44336 0.06478 0.98033 0.0
C418 C 0.4468 0.04477 0.93932 0.0
H419 H 0.30441 0.48624 0.9506 0.0
H420 H 0.38133 0.52733 0.08445 0.0
H421 H 0.33037 0.48382 0.84832 0.0
H422 H 0.40684 0.52444 0.98452 0.0
H423 H 0.45368 0.5355 0.79593 0.0
H424 H 0.42289 0.54333 0.87194 0.0
H425 H 0.35565 0.45878 0.80959 0.0
H426 H 0.3865 0.45132 0.7311 0.0
C427 C 0.32682 0.49489 0.95797 0.0
C428 C 0.34078 0.50666 0.02572 0.0
C429 C 0.34165 0.49338 0.89967 0.0
C430 C 0.37076 0.50407 0.90792 0.0
C431 C 0.38459 0.51642 0.97548 0.0
C432 C 0.36987 0.51774 0.03328 0.0
C433 C 0.43212 0.51883 0.79686 0.0
C434 C 0.42264 0.49267 0.75825 0.0
C435 C 0.41448 0.52323 0.84091 0.0
C436 C 0.38698 0.50141 0.84857 0.0
C437 C 0.3767 0.47604 0.80509 0.0
C438 C 0.39436 0.47175 0.76003 0.0
H439 H 0.89762 0.29757 0.0687 0.0
H440 H 0.83787 0.2977 0.91552 0.0
H441 H 0.93593 0.3278 -0.00382 0.0
H442 H 0.87617 0.32744 0.84164 0.0
H443 H 0.95434 0.36849 0.71099 0.0
H444 H 0.91917 0.32978 0.773 0.0
H445 H 0.95022 0.381 0.97346 0.0
H446 H 0.98533 0.42031 0.91138 0.0
C447 C 0.89269 0.30303 0.01768 0.0
C448 C 0.86494 0.2951 -0.00327 0.0
C449 C 0.91455 0.32056 0.97686 0.0
C450 C 0.90892 0.33007 0.91397 0.0
C451 C 0.88096 0.3202 0.88988 0.0
C452 C 0.85907 0.30303 0.93152 0.0
C453 C 0.95407 0.37151 0.76851 0.0
C454 C 0.97267 0.39762 0.80631 0.0
C455 C 0.9338 0.3493 0.80373 0.0
C456 C 0.93206 0.35248 0.87768 0.0
C457 C 0.95136 0.37803 0.91627 0.0
C458 C 0.97136 0.40052 0.8808 0.0
H459 H 0.87803 0.57381 0.91286 0.0
H460 H 0.83646 0.48807 0.97216 0.0
H461 H 0.90527 0.5627 0.82977 0.0
H462 H 0.86279 0.47662 0.88784 0.0
H463 H 0.94562 0.53044 0.66626 0.0
H464 H 0.9095 0.53715 0.7227 0.0
H465 H 0.91038 0.48836 0.89511 0.0
H466 H 0.94539 0.48133 0.83897 0.0
C467 C 0.87409 0.55237 0.9064 0.0
C468 C 0.85537 0.53188 0.94961 0.0
C469 C 0.88968 0.54597 0.85869 0.0
C470 C 0.8867 0.51888 0.85294 0.0
C471 C 0.86625 0.4979 0.89212 0.0
C472 C 0.85098 0.50437 0.94019 0.0
C473 C 0.93771 0.52083 0.71555 0.0
C474 C 0.94864 0.50552 0.74811 0.0
C475 C 0.91714 0.52482 0.74822 0.0
C476 C 0.90685 0.51324 0.81357 0.0
C477 C 0.91725 0.49722 0.84435 0.0
C478 C 0.93771 0.49341 0.81224 0.0
H479 H 0.31808 0.85669 -0.00253 0.0
H480 H 0.3397 0.79349 0.93411 0.0
H481 H 0.33933 0.88184 0.89288 0.0
H482 H 0.36073 0.81849 0.82848 0.0
H483 H 0.43835 0.90288 0.7597 0.0
H484 H 0.40438 0.86369 0.8224 0.0
H485 H 0.34065 0.88372 0.76116 0.0
H486 H 0.37498 0.92322 0.6982 0.0
C487 C 0.32681 0.84783 0.96016 0.0
C488 C 0.32748 0.82328 0.97445 0.0
C489 C 0.33876 0.86209 0.89973 0.0
C490 C 0.35189 0.85228 0.85232 0.0
C491 C 0.35096 0.82671 0.86418 0.0
C492 C 0.33876 0.81229 0.92443 0.0
C493 C 0.41681 0.8982 0.75706 0.0
C494 C 0.40938 0.91625 0.72456 0.0
C495 C 0.39726 0.87567 0.79306 0.0
C496 C 0.36988 0.87085 0.79799 0.0
C497 C 0.3617 0.88715 0.7592 0.0
C498 C 0.38126 0.90956 0.72233 0.0
H499 H 0.43759 0.28075 0.0078 0.0
H500 H 0.52501 0.32023 0.96626 0.0
H501 H 0.43172 0.31178 0.92897 0.0
H502 H 0.51927 0.35137 0.88768 0.0
H503 H 0.50839 0.4297 0.88477 0.0
H504 H 0.51023 0.39062 0.93514 0.0
H505 H 0.43587 0.33126 0.805 0.0
H506 H 0.43398 0.37044 0.75383 0.0
C507 C 0.45515 0.29501 0.9786 0.0
C508 C 0.48173 0.2981 0.99283 0.0
C509 C 0.45189 0.31299 0.93414 0.0
C510 C 0.47522 0.33444 0.90386 0.0
C511 C 0.50106 0.33532 0.91153 0.0
C512 C 0.50424 0.31715 0.95535 0.0
C513 C 0.49217 0.40837 0.86745 0.0
C514 C 0.47099 0.40326 0.81534 0.0
C515 C 0.49351 0.38596 0.89547 0.0
C516 C 0.47353 0.3579 0.87276 0.0
C517 C 0.45167 0.35268 0.82291 0.0
C518 C 0.45055 0.37513 0.79401 0.0
H519 H 0.22648 0.53253 0.956 0.0
H520 H 0.16128 0.45064 0.00797 0.0
H521 H 0.20057 0.52724 0.84327 0.0
H522 H 0.13492 0.44577 0.89617 0.0
H523 H 0.09126 0.4393 0.68957 0.0
H524 H 0.13031 0.44238 0.763 0.0
H525 H 0.15756 0.52947 0.82808 0.0
H526 H 0.11885 0.52629 0.75517 0.0
C527 C 0.20698 0.51305 0.94257 0.0
C528 C 0.19578 0.49211 0.99143 0.0
C529 C 0.19204 0.51013 0.87811 0.0
C530 C 0.16557 0.48623 0.86102 0.0
C531 C 0.15535 0.46436 0.90735 0.0
C532 C 0.17028 0.46729 0.9719 0.0
C533 C 0.10635 0.45939 0.71717 0.0
C534 C 0.10197 0.48251 0.71735 0.0
C535 C 0.1285 0.46107 0.75981 0.0
C536 C 0.14677 0.48602 0.80225 0.0
C537 C 0.14402 0.50996 0.79592 0.0
C538 C 0.12176 0.50816 0.75421 0.0
H539 H 0.67101 0.19474 0.08205 0.0
H540 H 0.71638 0.15718 0.98777 0.0
H541 H 0.63195 0.16709 0.99353 0.0
H542 H 0.67735 0.12955 0.89935 0.0
H543 H 0.55701 0.07912 0.91665 0.0
H544 H 0.5984 0.11652 0.98313 0.0
H545 H 0.64623 0.12756 0.79726 0.0
H546 H 0.60439 0.08966 0.73008 0.0
C547 C 0.67282 0.1809 0.04175 0.0
C548 C 0.69667 0.17791 0.04257 0.0
C549 C 0.65044 0.16505 0.99108 0.0
C550 C 0.65136 0.1458 0.94002 0.0
C551 C 0.67602 0.14432 0.93757 0.0
C552 C 0.69844 0.16019 0.98833 0.0
C553 C 0.57622 0.08962 0.88936 0.0
C554 C 0.57739 0.08103 0.81804 0.0
C555 C 0.59997 0.11133 0.92749 0.0
C556 C 0.62567 0.12507 0.89561 0.0
C557 C 0.62677 0.11722 0.82351 0.0
C558 C 0.60279 0.09556 0.78493 0.0
H559 H 0.50499 0.6635 0.00343 0.0
H560 H 0.58074 0.71995 0.90508 0.0
H561 H 0.50434 0.62326 0.93997 0.0
H562 H 0.57906 0.67995 0.83778 0.0
H563 H 0.59362 0.6079 0.80246 0.0
H564 H 0.58959 0.64486 0.86949 0.0
H565 H 0.4995 0.59599 0.83355 0.0
H566 H 0.5036 0.55864 0.76953 0.0
C567 C 0.52095 0.66734 0.96624 0.0
C568 C 0.54322 0.69487 0.96038 0.0
C569 C 0.5206 0.64425 0.92987 0.0
C570 C 0.54224 0.64829 0.88575 0.0
C571 C 0.5627 0.67602 0.87367 0.0
C572 C 0.56327 0.69906 0.91085 0.0
C573 C 0.57295 0.60471 0.81102 0.0
C574 C 0.54896 0.58045 0.78048 0.0
C575 C 0.57061 0.62611 0.84813 0.0
C576 C 0.54426 0.6239 0.85458 0.0
C577 C 0.52014 0.59855 0.82934 0.0
C578 C 0.52248 0.57695 0.79312 0.0
H579 H 0.475 0.176 0.36751 0.0
H580 H 0.54327 0.17909 0.25501 0.0
H581 H 0.47528 0.14111 0.44255 0.0
H582 H 0.54318 0.14351 0.32826 0.0
H583 H 0.54087 0.08575 0.50314 0.0
H584 H 0.54855 0.12711 0.44274 0.0
H585 H 0.45911 0.0919 0.4113 0.0
H586 H 0.45144 0.05098 0.47264 0.0
C587 C 0.49089 0.17009 0.36119 0.0
C588 C 0.50938 0.18045 0.30647 0.0
C589 C 0.49068 0.14965 0.40291 0.0
C590 C 0.5087 0.13888 0.38995 0.0
C591 C 0.529 0.15128 0.33967 0.0
C592 C 0.52931 0.1719 0.29822 0.0
C593 C 0.52283 0.08659 0.48221 0.0
C594 C 0.4955 0.06505 0.49316 0.0
C595 C 0.52727 0.11043 0.44797 0.0
C596 C 0.50447 0.11321 0.42387 0.0
C597 C 0.47719 0.09093 0.43139 0.0
C598 C 0.47276 0.06722 0.46568 0.0
H599 H 0.34445 0.5426 0.33456 0.0
H600 H 0.32878 0.46005 0.25766 0.0
H601 H 0.37613 0.54443 0.43091 0.0
H602 H 0.3608 0.46207 0.35362 0.0
H603 H 0.46666 0.55375 0.45046 0.0
H604 H 0.423 0.5495 0.40386 0.0
H605 H 0.37668 0.46778 0.48733 0.0
H606 H 0.42086 0.47243 0.53533 0.0
C607 C 0.34688 0.52436 0.33988 0.0
C608 C 0.33444 0.50133 0.28797 0.0
C609 C 0.36517 0.52551 0.39484 0.0
C610 C 0.37122 0.50358 0.39913 0.0
C611 C 0.35647 0.47924 0.35186 0.0
C612 C 0.3383 0.47817 0.29658 0.0
C613 C 0.44707 0.53532 0.46091 0.0
C614 C 0.44696 0.51345 0.49644 0.0
C615 C 0.42205 0.53292 0.43462 0.0
C616 C 0.3964 0.50829 0.44198 0.0
C617 C 0.39616 0.487 0.48112 0.0
C618 C 0.42133 0.48971 0.5089 0.0
H619 H 0.85378 0.29744 0.2999 0.0
H620 H 0.84185 0.3533 0.16829 0.0
H621 H 0.88904 0.33789 0.3756 0.0
H622 H 0.87782 0.39402 0.24357 0.0
H623 H 0.97898 0.40706 0.39714 0.0
H624 H 0.93673 0.37127 0.32913 0.0
H625 H 0.89701 0.42089 0.37027 0.0
H626 H 0.93958 0.45702 0.43916 0.0
C627 C 0.8577 0.31825 0.28903 0.0
C628 C 0.8454 0.32223 0.22746 0.0
C629 C 0.87829 0.34147 0.33163 0.0
C630 C 0.88682 0.36902 0.3136 0.0
C631 C 0.87188 0.37299 0.25797 0.0
C632 C 0.85121 0.3497 0.21522 0.0
C633 C 0.96151 0.41071 0.39041 0.0
C634 C 0.96248 0.43467 0.42428 0.0
C635 C 0.93718 0.39004 0.35232 0.0
C636 C 0.9133 0.39288 0.34696 0.0
C637 C 0.91503 0.41804 0.37475 0.0
C638 C 0.93949 0.43883 0.41335 0.0
H639 H 0.52001 0.83918 0.2214 0.0
H640 H 0.60927 0.87688 0.2072 0.0
H641 H 0.52749 0.8787 0.30379 0.0
H642 H 0.61682 0.9165 0.2899 0.0
H643 H 0.54768 0.96948 0.33223 0.0
H644 H 0.54558 0.92891 0.26648 0.0
H645 H 0.60897 0.93294 0.41501 0.0
H646 H 0.61129 0.97374 0.48128 0.0
C647 C 0.54125 0.85536 0.23841 0.0
C648 C 0.56406 0.85518 0.20785 0.0
C649 C 0.54553 0.87813 0.28454 0.0
C650 C 0.57268 0.90095 0.30114 0.0
C651 C 0.59569 0.89922 0.27733 0.0
C652 C 0.59138 0.87642 0.23076 0.0
C653 C 0.56167 0.96222 0.35011 0.0
C654 C 0.57941 0.97467 0.41252 0.0
C655 C 0.56015 0.93872 0.31305 0.0
C656 C 0.57652 0.92738 0.33716 0.0
C657 C 0.5959 0.94111 0.39601 0.0
C658 C 0.59726 0.96451 0.43361 0.0
H659 H 0.69152 0.4923 0.17028 0.0
H660 H 0.73911 0.58209 0.22409 0.0
H661 H 0.66183 0.4871 0.26881 0.0
H662 H 0.70884 0.57724 0.32114 0.0
H663 H 0.65487 0.56204 0.50691 0.0
H664 H 0.69059 0.56152 0.43382 0.0
H665 H 0.62558 0.49663 0.28766 0.0
H666 H 0.59029 0.49648 0.36138 0.0
C667 C 0.69581 0.51091 0.20387 0.0
C668 C 0.71753 0.53762 0.18915 0.0
C669 C 0.67866 0.50799 0.26012 0.0
C670 C 0.68246 0.53179 0.30259 0.0
C671 C 0.7053 0.55835 0.29034 0.0
C672 C 0.72269 0.56119 0.2345 0.0
C673 C 0.64825 0.54718 0.46014 0.0
C674 C 0.61961 0.52953 0.43981 0.0
C675 C 0.66877 0.54709 0.41768 0.0
C676 C 0.66116 0.52931 0.35396 0.0
C677 C 0.6325 0.51047 0.33642 0.0
C678 C 0.6121 0.51051 0.37875 0.0
H679 H 0.2077 0.68286 0.27457 0.0
H680 H 0.16692 0.72743 0.20129 0.0
H681 H 0.16769 0.65433 0.344 0.0
H682 H 0.12695 0.69911 0.27183 0.0
H683 H 0.06836 0.64459 0.45443 0.0
H684 H 0.11053 0.68154 0.405 0.0
H685 H 0.11758 0.61796 0.27657 0.0
H686 H 0.07542 0.58113 0.3244 0.0
C687 C 0.19087 0.6876 0.27647 0.0
C688 C 0.19036 0.70734 0.23279 0.0
C689 C 0.1678 0.67098 0.3152 0.0
C690 C 0.1441 0.67421 0.31179 0.0
C691 C 0.14497 0.69621 0.27502 0.0
C692 C 0.1679 0.71257 0.23534 0.0
C693 C 0.07861 0.63855 0.41456 0.0
C694 C 0.0685 0.60989 0.39333 0.0
C695 C 0.10278 0.65968 0.38675 0.0
C696 C 0.11755 0.65245 0.33848 0.0
C697 C 0.10682 0.62398 0.31494 0.0
C698 C 0.08244 0.60294 0.34158 0.0
loop_
_geom_bond_atom_site_label_1
_geom_bond_atom_site_label_2
_geom_bond_distance
_geom_bond_site_symmetry_2
_ccdc_geom_bond_type
H0 C8 0.930 . S
H1 C11 0.930 . S
H2 C13 0.930 . S
H3 C14 0.970 . S
H4 C14 0.970 . S
H5 C16 0.930 . S
H6 C18 0.930 . S
H7 C20 0.930 . S
C8 H0 0.930 . S
C8 C9 1.382 . S
C8 C10 1.426 . S
C9 C8 1.382 . S
C9 C13 1.389 . S
C10 C8 1.426 . S
C10 C11 1.375 . S
C10 C14 1.532 . S
C11 H1 0.930 . S
C11 C10 1.375 . S
C11 C12 1.416 . S
C12 C11 1.416 . S
C12 C13 1.371 . S
C13 H2 0.930 . S
C13 C9 1.389 . S
C13 C12 1.371 . S
C14 H3 0.970 . S
C14 H4 0.970 . S
C14 C10 1.532 . S
C14 C15 1.499 . S
C15 C14 1.499 . S
C15 C16 1.370 . S
C15 C20 1.415 . S
C16 H5 0.930 . S
C16 C15 1.370 . S
C16 C17 1.407 . S
C17 C16 1.407 . S
C17 C18 1.365 . S
C18 H6 0.930 . S
C18 C17 1.365 . S
C18 C19 1.393 . S
C19 C18 1.393 . S
C19 C20 1.387 . S
C20 H7 0.930 . S
C20 C15 1.415 . S
C20 C19 1.387 . S
H21 C29 0.930 . S
H22 C32 0.930 . S
H23 C34 0.930 . S
H24 C35 0.970 . S
H25 C35 0.970 . S
H26 C37 0.930 . S
H27 C39 0.930 . S
H28 C41 0.930 . S
C29 H21 0.930 . S
C29 C30 1.382 . S
C29 C31 1.426 . S
C30 C29 1.382 . S
C30 C34 1.389 . S
C31 C29 1.426 . S
C31 C32 1.375 . S
C31 C35 1.532 . S
C32 H22 0.930 . S
C32 C31 1.375 . S
C32 C33 1.416 . S
C33 C32 1.416 . S
C33 C34 1.371 . S
C34 H23 0.930 . S
C34 C30 1.389 . S
C34 C33 1.371 . S
C35 H24 0.970 . S
C35 H25 0.970 . S
C35 C31 1.532 . S
C35 C36 1.499 . S
C36 C35 1.499 . S
C36 C37 1.370 . S
C36 C41 1.415 . S
C37 H26 0.930 . S
C37 C36 1.370 . S
C37 C38 1.407 . S
C38 C37 1.407 . S
C38 C39 1.365 . S
C39 H27 0.930 . S
C39 C38 1.365 . S
C39 C40 1.393 . S
C40 C39 1.393 . S
C40 C41 1.387 . S
C41 H28 0.930 . S
C41 C36 1.415 . S
C41 C40 1.387 . S
H42 C50 0.930 . S
H43 C53 0.930 . S
H44 C55 0.930 . S
H45 C56 0.970 1_556 S
H46 C56 0.970 . S
H47 C58 0.930 . S
H48 C60 0.930 . S
H49 C62 0.930 . S
C50 H42 0.930 . S
C50 C51 1.382 . S
C50 C52 1.426 1_556 S
C51 C50 1.382 . S
C51 C55 1.389 1_556 S
C52 C50 1.426 1_554 S
C52 C53 1.375 . S
C52 C56 1.532 . S
C53 H43 0.930 . S
C53 C52 1.375 . S
C53 C54 1.416 . S
C54 C53 1.416 . S
C54 C55 1.371 . S
C55 H44 0.930 . S
C55 C51 1.389 1_554 S
C55 C54 1.371 . S
C56 H45 0.970 1_554 S
C56 H46 0.970 . S
C56 C52 1.532 . S
C56 C57 1.499 . S
C57 C56 1.499 . S
C57 C58 1.370 1_554 S
C57 C62 1.415 . S
C58 H47 0.930 . S
C58 C57 1.370 1_556 S
C58 C59 1.407 . S
C59 C58 1.407 . S
C59 C60 1.365 1_556 S
C60 H48 0.930 . S
C60 C59 1.365 1_554 S
C60 C61 1.393 . S
C61 C60 1.393 . S
C61 C62 1.387 . S
C62 H49 0.930 . S
C62 C57 1.415 . S
C62 C61 1.387 . S
H63 C71 0.930 1_556 S
H64 C74 0.930 . S
H65 C76 0.930 . S
H66 C77 0.970 . S
H67 C77 0.970 . S
H68 C79 0.930 1_556 S
H69 C81 0.930 . S
H70 C83 0.930 . S
C71 H63 0.930 1_554 S
C71 C72 1.382 1_554 S
C71 C73 1.426 . S
C72 C71 1.382 1_556 S
C72 C76 1.389 1_556 S
C73 C71 1.426 . S
C73 C74 1.375 . S
C73 C77 1.532 . S
C74 H64 0.930 . S
C74 C73 1.375 . S
C74 C75 1.416 . S
C75 C74 1.416 . S
C75 C76 1.371 . S
C76 H65 0.930 . S
C76 C72 1.389 1_554 S
C76 C75 1.371 . S
C77 H66 0.970 . S
C77 H67 0.970 . S
C77 C73 1.532 . S
C77 C78 1.499 . S
C78 C77 1.499 . S
C78 C79 1.370 . S
C78 C83 1.415 . S
C79 H68 0.930 1_554 S
C79 C78 1.370 . S
C79 C80 1.407 . S
C80 C79 1.407 . S
C80 C81 1.365 . S
C81 H69 0.930 . S
C81 C80 1.365 . S
C81 C82 1.393 . S
C82 C81 1.393 . S
C82 C83 1.387 . S
C83 H70 0.930 . S
C83 C78 1.415 . S
C83 C82 1.387 . S
H84 C92 0.930 1_556 S
H85 C95 0.930 . S
H86 C97 0.930 . S
H87 C98 0.970 . S
H88 C98 0.970 . S
H89 C100 0.930 1_556 S
H90 C102 0.930 . S
H91 C104 0.930 . S
C92 H84 0.930 1_554 S
C92 C93 1.382 . S
C92 C94 1.426 . S
C93 C92 1.382 . S
C93 C97 1.389 . S
C94 C92 1.426 . S
C94 C95 1.375 . S
C94 C98 1.532 . S
C95 H85 0.930 . S
C95 C94 1.375 . S
C95 C96 1.416 . S
C96 C95 1.416 . S
C96 C97 1.371 . S
C97 H86 0.930 . S
C97 C93 1.389 . S
C97 C96 1.371 . S
C98 H87 0.970 . S
C98 H88 0.970 . S
C98 C94 1.532 . S
C98 C99 1.499 . S
C99 C98 1.499 . S
C99 C100 1.370 . S
C99 C104 1.415 . S
C100 H89 0.930 1_554 S
C100 C99 1.370 . S
C100 C101 1.407 . S
C101 C100 1.407 . S
C101 C102 1.365 . S
C102 H90 0.930 . S
C102 C101 1.365 . S
C102 C103 1.393 . S
C103 C102 1.393 . S
C103 C104 1.387 . S
C104 H91 0.930 . S
C104 C99 1.415 . S
C104 C103 1.387 . S
H105 C113 0.930 . S
H106 C116 0.930 . S
H107 C118 0.930 . S
H108 C119 0.970 . S
H109 C119 0.970 . S
H110 C121 0.930 . S
H111 C123 0.930 . S
H112 C125 0.930 . S
C113 H105 0.930 . S
C113 C114 1.382 . S
C113 C115 1.426 . S
C114 C113 1.382 . S
C114 C118 1.389 . S
C115 C113 1.426 . S
C115 C116 1.375 . S
C115 C119 1.532 . S
C116 H106 0.930 . S
C116 C115 1.375 . S
C116 C117 1.416 . S
C117 C116 1.416 . S
C117 C118 1.371 . S
C118 H107 0.930 . S
C118 C114 1.389 . S
C118 C117 1.371 . S
C119 H108 0.970 . S
C119 H109 0.970 . S
C119 C115 1.532 . S
C119 C120 1.499 . S
C120 C119 1.499 . S
C120 C121 1.370 . S
C120 C125 1.415 . S
C121 H110 0.930 . S
C121 C120 1.370 . S
C121 C122 1.407 . S
C122 C121 1.407 . S
C122 C123 1.365 . S
C123 H111 0.930 . S
C123 C122 1.365 . S
C123 C124 1.393 . S
C124 C123 1.393 . S
C124 C125 1.387 . S
C125 H112 0.930 . S
C125 C120 1.415 . S
C125 C124 1.387 . S
C126 O138 1.241 . S
C126 O139 1.280 . S
C127 O140 1.277 . S
C127 O141 1.245 . S
C128 O152 1.247 . S
C128 O154 1.289 . S
Mg129 O130 1.939 1_655 S
Mg129 O139 2.001 . S
Mg129 O141 1.963 1_655 S
Mg129 O142 2.075 . S
O130 Mg129 1.939 1_455 S
O130 Mg131 1.986 . S
O130 Mg132 1.917 . S
Mg131 O130 1.986 . S
Mg131 O138 2.042 1_455 S
Mg131 O140 2.041 . S
Mg131 O146 2.038 1_455 S
Mg131 O154 2.238 . S
Mg132 O130 1.917 . S
Mg132 O133 1.917 . S
Mg132 O143 2.106 1_455 S
Mg132 O145 2.079 1_455 S
Mg132 O154 2.106 . S
Mg132 O155 2.079 . S
O133 Mg132 1.917 . S
O133 Mg134 1.926 . S
O133 Mg135 1.986 . S
Mg134 O133 1.926 . S
Mg134 O148 1.984 . S
Mg134 O151 1.988 1_455 S
Mg134 O152 2.061 . S
Mg135 O133 1.986 . S
Mg135 O143 2.238 1_455 S
Mg135 O147 2.042 . S
Mg135 O149 2.041 1_455 S
Mg135 O156 2.038 . S
C136 O142 1.247 . S
C136 O143 1.289 . S
C137 O155 1.245 . S
C137 O156 1.274 . S
O138 C126 1.241 . S
O138 Mg131 2.042 1_655 S
O139 C126 1.280 . S
O139 Mg129 2.001 . S
O140 C127 1.277 . S
O140 Mg131 2.041 . S
O141 C127 1.245 . S
O141 Mg129 1.963 1_455 S
O142 Mg129 2.075 . S
O142 C136 1.247 . S
O143 Mg132 2.106 1_655 S
O143 Mg135 2.238 1_655 S
O143 C136 1.289 . S
C144 O145 1.245 . S
C144 O146 1.274 . S
O145 Mg132 2.079 1_655 S
O145 C144 1.245 . S
O146 Mg131 2.038 1_655 S
O146 C144 1.274 . S
O147 Mg135 2.042 . S
O147 C150 1.241 . S
O148 Mg134 1.984 . S
O148 C150 1.280 . S
O149 Mg135 2.041 1_655 S
O149 C153 1.277 . S
C150 O147 1.241 . S
C150 O148 1.280 . S
O151 Mg134 1.988 1_655 S
O151 C153 1.245 . S
O152 C128 1.247 . S
O152 Mg134 2.061 . S
C153 O149 1.277 . S
C153 O151 1.245 . S
O154 C128 1.289 . S
O154 Mg131 2.238 . S
O154 Mg132 2.106 . S
O155 Mg132 2.079 . S
O155 C137 1.245 . S
O156 Mg135 2.038 . S
O156 C137 1.274 . S
C157 O169 1.241 . S
C157 O170 1.280 . S
C158 O171 1.277 . S
C158 O172 1.245 . S
C159 O183 1.247 . S
C159 O185 1.289 . S
Mg160 O161 1.926 . S
Mg160 O170 1.984 . S
Mg160 O172 1.988 1_545 S
Mg160 O173 2.061 . S
O161 Mg160 1.926 . S
O161 Mg162 1.986 . S
O161 Mg163 1.917 . S
Mg162 O161 1.986 . S
Mg162 O169 2.042 . S
Mg162 O171 2.041 1_545 S
Mg162 O177 2.038 . S
Mg162 O185 2.238 1_545 S
Mg163 O161 1.917 . S
Mg163 O164 1.917 1_545 S
Mg163 O174 2.106 . S
Mg163 O176 2.079 . S
Mg163 O185 2.106 1_545 S
Mg163 O186 2.079 1_545 S
O164 Mg163 1.917 1_565 S
O164 Mg165 1.926 . S
O164 Mg166 1.986 1_565 S
Mg165 O164 1.926 . S
Mg165 O179 1.984 . S
Mg165 O182 1.988 1_565 S
Mg165 O183 2.061 . S
Mg166 O164 1.986 1_545 S
Mg166 O174 2.238 . S
Mg166 O178 2.042 1_545 S
Mg166 O180 2.041 . S
Mg166 O187 2.038 1_545 S
C167 O173 1.247 . S
C167 O174 1.289 . S
C168 O186 1.245 . S
C168 O187 1.274 . S
O169 C157 1.241 . S
O169 Mg162 2.042 . S
O170 C157 1.280 . S
O170 Mg160 1.984 . S
O171 C158 1.277 . S
O171 Mg162 2.041 1_565 S
O172 C158 1.245 . S
O172 Mg160 1.988 1_565 S
O173 Mg160 2.061 . S
O173 C167 1.247 . S
O174 Mg163 2.106 . S
O174 Mg166 2.238 . S
O174 C167 1.289 . S
C175 O176 1.245 . S
C175 O177 1.274 . S
O176 Mg163 2.079 . S
O176 C175 1.245 . S
O177 Mg162 2.038 . S
O177 C175 1.274 . S
O178 Mg166 2.042 1_565 S
O178 C181 1.241 . S
O179 Mg165 1.984 . S
O179 C181 1.280 . S
O180 Mg166 2.041 . S
O180 C184 1.277 . S
C181 O178 1.241 . S
C181 O179 1.280 . S
O182 Mg165 1.988 1_545 S
O182 C184 1.245 . S
O183 C159 1.247 . S
O183 Mg165 2.061 . S
C184 O180 1.277 . S
C184 O182 1.245 . S
O185 C159 1.289 . S
O185 Mg162 2.238 1_565 S
O185 Mg163 2.106 1_565 S
O186 Mg163 2.079 1_565 S
O186 C168 1.245 . S
O187 Mg166 2.038 1_565 S
O187 C168 1.274 . S
C188 O200 1.241 . S
C188 O201 1.280 . S
C189 O202 1.277 . S
C189 O203 1.245 . S
C190 O214 1.247 . S
C190 O216 1.289 . S
Mg191 O192 1.926 . S
Mg191 O201 1.984 . S
Mg191 O203 1.988 . S
Mg191 O204 2.061 . S
O192 Mg191 1.926 . S
O192 Mg193 1.986 . S
O192 Mg194 1.917 . S
Mg193 O192 1.986 . S
Mg193 O200 2.042 . S
Mg193 O202 2.041 . S
Mg193 O208 2.038 . S
Mg193 O216 2.238 . S
Mg194 O192 1.917 . S
Mg194 O195 1.917 . S
Mg194 O205 2.106 . S
Mg194 O207 2.079 . S
Mg194 O216 2.106 . S
Mg194 O217 2.079 . S
O195 Mg194 1.917 . S
O195 Mg196 1.926 . S
O195 Mg197 1.986 . S
Mg196 O195 1.926 . S
Mg196 O210 1.984 . S
Mg196 O213 1.988 . S
Mg196 O214 2.061 . S
Mg197 O195 1.986 . S
Mg197 O205 2.238 . S
Mg197 O209 2.042 . S
Mg197 O211 2.041 . S
Mg197 O218 2.038 . S
C198 O204 1.247 . S
C198 O205 1.289 . S
C199 O217 1.245 . S
C199 O218 1.274 . S
O200 C188 1.241 . S
O200 Mg193 2.042 . S
O201 C188 1.280 . S
O201 Mg191 1.984 . S
O202 C189 1.277 . S
O202 Mg193 2.041 . S
O203 C189 1.245 . S
O203 Mg191 1.988 . S
O204 Mg191 2.061 . S
O204 C198 1.247 . S
O205 Mg194 2.106 . S
O205 Mg197 2.238 . S
O205 C198 1.289 . S
C206 O207 1.245 . S
C206 O208 1.274 . S
O207 Mg194 2.079 . S
O207 C206 1.245 . S
O208 Mg193 2.038 . S
O208 C206 1.274 . S
O209 Mg197 2.042 . S
O209 C212 1.241 . S
O210 Mg196 1.984 . S
O210 C212 1.280 . S
O211 Mg197 2.041 . S
O211 C215 1.277 . S
C212 O209 1.241 . S
C212 O210 1.280 . S
O213 Mg196 1.988 . S
O213 C215 1.245 . S
O214 C190 1.247 . S
O214 Mg196 2.061 . S
C215 O211 1.277 . S
C215 O213 1.245 . S
O216 C190 1.289 . S
O216 Mg193 2.238 . S
O216 Mg194 2.106 . S
O217 Mg194 2.079 . S
O217 C199 1.245 . S
O218 Mg197 2.038 . S
O218 C199 1.274 . S
H219 C227 0.950 . S
H220 C232 0.950 . S
H221 C229 0.950 . S
H222 C231 0.950 . S
H223 C233 0.950 . S
H224 C235 0.950 . S
H225 C237 0.950 . S
H226 C238 0.950 . S
C227 H219 0.950 . S
C227 C228 1.386 . S
C227 C229 1.391 . S
C228 C227 1.386 . S
C228 C232 1.393 . S
C229 H221 0.950 . S
C229 C227 1.391 . S
C229 C230 1.400 . S
C230 C229 1.400 . S
C230 C231 1.398 . S
C230 C236 1.491 . S
C231 H222 0.950 . S
C231 C230 1.398 . S
C231 C232 1.391 . S
C232 H220 0.950 . S
C232 C228 1.393 . S
C232 C231 1.391 . S
C233 H223 0.950 . S
C233 C234 1.386 . S
C233 C235 1.391 . S
C234 C233 1.386 . S
C234 C238 1.393 . S
C235 H224 0.950 . S
C235 C233 1.391 . S
C235 C236 1.400 . S
C236 C230 1.491 . S
C236 C235 1.400 . S
C236 C237 1.398 . S
C237 H225 0.950 . S
C237 C236 1.398 . S
C237 C238 1.391 . S
C238 H226 0.950 . S
C238 C234 1.393 . S
C238 C237 1.391 . S
H239 C247 0.950 . S
H240 C252 0.950 . S
H241 C249 0.950 . S
H242 C251 0.950 . S
H243 C253 0.950 . S
H244 C255 0.950 . S
H245 C257 0.950 . S
H246 C258 0.950 . S
C247 H239 0.950 . S
C247 C248 1.386 . S
C247 C249 1.391 . S
C248 C247 1.386 . S
C248 C252 1.393 . S
C249 H241 0.950 . S
C249 C247 1.391 . S
C249 C250 1.400 . S
C250 C249 1.400 . S
C250 C251 1.398 . S
C250 C256 1.491 . S
C251 H242 0.950 . S
C251 C250 1.398 . S
C251 C252 1.391 . S
C252 H240 0.950 . S
C252 C248 1.393 . S
C252 C251 1.391 . S
C253 H243 0.950 . S
C253 C254 1.386 . S
C253 C255 1.391 . S
C254 C253 1.386 . S
C254 C258 1.393 . S
C255 H244 0.950 . S
C255 C253 1.391 . S
C255 C256 1.400 . S
C256 C250 1.491 . S
C256 C255 1.400 . S
C256 C257 1.398 . S
C257 H245 0.950 . S
C257 C256 1.398 . S
C257 C258 1.391 . S
C258 H246 0.950 . S
C258 C254 1.393 . S
C258 C257 1.391 . S
H259 C267 0.950 . S
H260 C272 0.950 . S
H261 C269 0.950 . S
H262 C271 0.950 . S
H263 C273 0.950 . S
H264 C275 0.950 . S
H265 C277 0.950 . S
H266 C278 0.950 . S
C267 H259 0.950 . S
C267 C268 1.386 . S
C267 C269 1.391 . S
C268 C267 1.386 . S
C268 C272 1.393 . S
C269 H261 0.950 . S
C269 C267 1.391 . S
C269 C270 1.400 . S
C270 C269 1.400 . S
C270 C271 1.398 . S
C270 C276 1.491 . S
C271 H262 0.950 . S
C271 C270 1.398 . S
C271 C272 1.391 . S
C272 H260 0.950 . S
C272 C268 1.393 . S
C272 C271 1.391 . S
C273 H263 0.950 . S
C273 C274 1.386 . S
C273 C275 1.391 . S
C274 C273 1.386 . S
C274 C278 1.393 . S
C275 H264 0.950 . S
C275 C273 1.391 . S
C275 C276 1.400 . S
C276 C270 1.491 . S
C276 C275 1.400 . S
C276 C277 1.398 . S
C277 H265 0.950 . S
C277 C276 1.398 . S
C277 C278 1.391 . S
C278 H266 0.950 . S
C278 C274 1.393 . S
C278 C277 1.391 . S
H279 C287 0.950 . S
H280 C292 0.950 . S
H281 C289 0.950 . S
H282 C291 0.950 . S
H283 C293 0.950 . S
H284 C295 0.950 . S
H285 C297 0.950 . S
H286 C298 0.950 . S
C287 H279 0.950 . S
C287 C288 1.386 . S
C287 C289 1.391 . S
C288 C287 1.386 . S
C288 C292 1.393 . S
C289 H281 0.950 . S
C289 C287 1.391 . S
C289 C290 1.400 . S
C290 C289 1.400 . S
C290 C291 1.398 . S
C290 C296 1.491 . S
C291 H282 0.950 . S
C291 C290 1.398 . S
C291 C292 1.391 . S
C292 H280 0.950 . S
C292 C288 1.393 . S
C292 C291 1.391 . S
C293 H283 0.950 . S
C293 C294 1.386 . S
C293 C295 1.391 . S
C294 C293 1.386 . S
C294 C298 1.393 . S
C295 H284 0.950 . S
C295 C293 1.391 . S
C295 C296 1.400 . S
C296 C290 1.491 . S
C296 C295 1.400 . S
C296 C297 1.398 . S
C297 H285 0.950 . S
C297 C296 1.398 . S
C297 C298 1.391 . S
C298 H286 0.950 . S
C298 C294 1.393 . S
C298 C297 1.391 . S
H299 C307 0.950 . S
H300 C312 0.950 . S
H301 C309 0.950 . S
H302 C311 0.950 . S
H303 C313 0.950 . S
H304 C315 0.950 . S
H305 C317 0.950 . S
H306 C318 0.950 . S
C307 H299 0.950 . S
C307 C308 1.386 . S
C307 C309 1.391 . S
C308 C307 1.386 . S
C308 C312 1.393 . S
C309 H301 0.950 . S
C309 C307 1.391 . S
C309 C310 1.400 . S
C310 C309 1.400 . S
C310 C311 1.398 . S
C310 C316 1.491 . S
C311 H302 0.950 . S
C311 C310 1.398 . S
C311 C312 1.391 . S
C312 H300 0.950 . S
C312 C308 1.393 . S
C312 C311 1.391 . S
C313 H303 0.950 . S
C313 C314 1.386 . S
C313 C315 1.391 . S
C314 C313 1.386 . S
C314 C318 1.393 . S
C315 H304 0.950 . S
C315 C313 1.391 . S
C315 C316 1.400 . S
C316 C310 1.491 . S
C316 C315 1.400 . S
C316 C317 1.398 . S
C317 H305 0.950 . S
C317 C316 1.398 . S
C317 C318 1.391 . S
C318 H306 0.950 . S
C318 C314 1.393 . S
C318 C317 1.391 . S
H319 C327 0.950 . S
H320 C332 0.950 . S
H321 C329 0.950 . S
H322 C331 0.950 . S
H323 C333 0.950 . S
H324 C335 0.950 . S
H325 C337 0.950 . S
H326 C338 0.950 . S
C327 H319 0.950 . S
C327 C328 1.386 . S
C327 C329 1.391 . S
C328 C327 1.386 . S
C328 C332 1.393 . S
C329 H321 0.950 . S
C329 C327 1.391 . S
C329 C330 1.400 . S
C330 C329 1.400 . S
C330 C331 1.398 . S
C330 C336 1.491 . S
C331 H322 0.950 . S
C331 C330 1.398 . S
C331 C332 1.391 . S
C332 H320 0.950 . S
C332 C328 1.393 . S
C332 C331 1.391 . S
C333 H323 0.950 . S
C333 C334 1.386 . S
C333 C335 1.391 . S
C334 C333 1.386 . S
C334 C338 1.393 . S
C335 H324 0.950 . S
C335 C333 1.391 . S
C335 C336 1.400 . S
C336 C330 1.491 . S
C336 C335 1.400 . S
C336 C337 1.398 . S
C337 H325 0.950 . S
C337 C336 1.398 . S
C337 C338 1.391 . S
C338 H326 0.950 . S
C338 C334 1.393 . S
C338 C337 1.391 . S
H339 C347 0.950 . S
H340 C352 0.950 . S
H341 C349 0.950 . S
H342 C351 0.950 . S
H343 C353 0.950 . S
H344 C355 0.950 . S
H345 C357 0.950 . S
H346 C358 0.950 . S
C347 H339 0.950 . S
C347 C348 1.386 . S
C347 C349 1.391 . S
C348 C347 1.386 . S
C348 C352 1.393 . S
C349 H341 0.950 . S
C349 C347 1.391 . S
C349 C350 1.400 . S
C350 C349 1.400 . S
C350 C351 1.398 . S
C350 C356 1.491 . S
C351 H342 0.950 . S
C351 C350 1.398 . S
C351 C352 1.391 . S
C352 H340 0.950 . S
C352 C348 1.393 . S
C352 C351 1.391 . S
C353 H343 0.950 . S
C353 C354 1.386 . S
C353 C355 1.391 . S
C354 C353 1.386 . S
C354 C358 1.393 . S
C355 H344 0.950 . S
C355 C353 1.391 . S
C355 C356 1.400 . S
C356 C350 1.491 . S
C356 C355 1.400 . S
C356 C357 1.398 . S
C357 H345 0.950 . S
C357 C356 1.398 . S
C357 C358 1.391 . S
C358 H346 0.950 . S
C358 C354 1.393 . S
C358 C357 1.391 . S
H359 C367 0.950 . S
H360 C372 0.950 . S
H361 C369 0.950 . S
H362 C371 0.950 . S
H363 C373 0.950 . S
H364 C375 0.950 . S
H365 C377 0.950 . S
H366 C378 0.950 . S
C367 H359 0.950 . S
C367 C368 1.386 . S
C367 C369 1.391 . S
C368 C367 1.386 . S
C368 C372 1.393 . S
C369 H361 0.950 . S
C369 C367 1.391 . S
C369 C370 1.400 . S
C370 C369 1.400 . S
C370 C371 1.398 . S
C370 C376 1.491 . S
C371 H362 0.950 . S
C371 C370 1.398 . S
C371 C372 1.391 . S
C372 H360 0.950 . S
C372 C368 1.393 . S
C372 C371 1.391 . S
C373 H363 0.950 . S
C373 C374 1.386 . S
C373 C375 1.391 . S
C374 C373 1.386 . S
C374 C378 1.393 . S
C375 H364 0.950 . S
C375 C373 1.391 . S
C375 C376 1.400 . S
C376 C370 1.491 . S
C376 C375 1.400 . S
C376 C377 1.398 . S
C377 H365 0.950 . S
C377 C376 1.398 . S
C377 C378 1.391 . S
C378 H366 0.950 . S
C378 C374 1.393 . S
C378 C377 1.391 . S
H379 C387 0.950 . S
H380 C392 0.950 1_554 S
H381 C389 0.950 . S
H382 C391 0.950 . S
H383 C393 0.950 . S
H384 C395 0.950 . S
H385 C397 0.950 . S
H386 C398 0.950 . S
C387 H379 0.950 . S
C387 C388 1.386 . S
C387 C389 1.391 . S
C388 C387 1.386 . S
C388 C392 1.393 . S
C389 H381 0.950 . S
C389 C387 1.391 . S
C389 C390 1.400 . S
C390 C389 1.400 . S
C390 C391 1.398 . S
C390 C396 1.491 . S
C391 H382 0.950 . S
C391 C390 1.398 . S
C391 C392 1.391 . S
C392 H380 0.950 1_556 S
C392 C388 1.393 . S
C392 C391 1.391 . S
C393 H383 0.950 . S
C393 C394 1.386 . S
C393 C395 1.391 . S
C394 C393 1.386 . S
C394 C398 1.393 . S
C395 H384 0.950 . S
C395 C393 1.391 . S
C395 C396 1.400 . S
C396 C390 1.491 . S
C396 C395 1.400 . S
C396 C397 1.398 . S
C397 H385 0.950 . S
C397 C396 1.398 . S
C397 C398 1.391 . S
C398 H386 0.950 . S
C398 C394 1.393 . S
C398 C397 1.391 . S
H399 C407 0.950 . S
H400 C412 0.950 . S
H401 C409 0.950 . S
H402 C411 0.950 . S
H403 C413 0.950 . S
H404 C415 0.950 . S
H405 C417 0.950 1_554 S
H406 C418 0.950 . S
C407 H399 0.950 . S
C407 C408 1.386 . S
C407 C409 1.391 . S
C408 C407 1.386 . S
C408 C412 1.393 . S
C409 H401 0.950 . S
C409 C407 1.391 . S
C409 C410 1.400 . S
C410 C409 1.400 . S
C410 C411 1.398 1_554 S
C410 C416 1.491 1_554 S
C411 H402 0.950 . S
C411 C410 1.398 1_556 S
C411 C412 1.391 1_556 S
C412 H400 0.950 . S
C412 C408 1.393 . S
C412 C411 1.391 1_554 S
C413 H403 0.950 . S
C413 C414 1.386 . S
C413 C415 1.391 . S
C414 C413 1.386 . S
C414 C418 1.393 . S
C415 H404 0.950 . S
C415 C413 1.391 . S
C415 C416 1.400 . S
C416 C410 1.491 1_556 S
C416 C415 1.400 . S
C416 C417 1.398 . S
C417 H405 0.950 1_556 S
C417 C416 1.398 . S
C417 C418 1.391 . S
C418 H406 0.950 . S
C418 C414 1.393 . S
C418 C417 1.391 . S
H419 C427 0.950 . S
H420 C432 0.950 . S
H421 C429 0.950 . S
H422 C431 0.950 . S
H423 C433 0.950 . S
H424 C435 0.950 . S
H425 C437 0.950 . S
H426 C438 0.950 . S
C427 H419 0.950 . S
C427 C428 1.386 1_556 S
C427 C429 1.391 . S
C428 C427 1.386 1_554 S
C428 C432 1.393 . S
C429 H421 0.950 . S
C429 C427 1.391 . S
C429 C430 1.400 . S
C430 C429 1.400 . S
C430 C431 1.398 1_556 S
C430 C436 1.491 . S
C431 H422 0.950 . S
C431 C430 1.398 1_554 S
C431 C432 1.391 . S
C432 H420 0.950 . S
C432 C428 1.393 . S
C432 C431 1.391 . S
C433 H423 0.950 . S
C433 C434 1.386 . S
C433 C435 1.391 . S
C434 C433 1.386 . S
C434 C438 1.393 . S
C435 H424 0.950 . S
C435 C433 1.391 . S
C435 C436 1.400 . S
C436 C430 1.491 . S
C436 C435 1.400 . S
C436 C437 1.398 . S
C437 H425 0.950 . S
C437 C436 1.398 . S
C437 C438 1.391 . S
C438 H426 0.950 . S
C438 C434 1.393 . S
C438 C437 1.391 . S
H439 C447 0.950 . S
H440 C452 0.950 . S
H441 C449 0.950 . S
H442 C451 0.950 . S
H443 C453 0.950 . S
H444 C455 0.950 . S
H445 C457 0.950 1_554 S
H446 C458 0.950 . S
C447 H439 0.950 . S
C447 C448 1.386 . S
C447 C449 1.391 . S
C448 C447 1.386 . S
C448 C452 1.393 1_554 S
C449 H441 0.950 . S
C449 C447 1.391 . S
C449 C450 1.400 1_554 S
C450 C449 1.400 1_556 S
C450 C451 1.398 . S
C450 C456 1.491 . S
C451 H442 0.950 . S
C451 C450 1.398 . S
C451 C452 1.391 . S
C452 H440 0.950 . S
C452 C448 1.393 1_556 S
C452 C451 1.391 . S
C453 H443 0.950 . S
C453 C454 1.386 . S
C453 C455 1.391 . S
C454 C453 1.386 . S
C454 C458 1.393 . S
C455 H444 0.950 . S
C455 C453 1.391 . S
C455 C456 1.400 . S
C456 C450 1.491 . S
C456 C455 1.400 . S
C456 C457 1.398 . S
C457 H445 0.950 1_556 S
C457 C456 1.398 . S
C457 C458 1.391 . S
C458 H446 0.950 . S
C458 C454 1.393 . S
C458 C457 1.391 . S
H459 C467 0.950 1_554 S
H460 C472 0.950 . S
H461 C469 0.950 . S
H462 C471 0.950 . S
H463 C473 0.950 . S
H464 C475 0.950 . S
H465 C477 0.950 . S
H466 C478 0.950 . S
C467 H459 0.950 1_556 S
C467 C468 1.386 . S
C467 C469 1.391 . S
C468 C467 1.386 . S
C468 C472 1.393 . S
C469 H461 0.950 . S
C469 C467 1.391 . S
C469 C470 1.400 . S
C470 C469 1.400 . S
C470 C471 1.398 . S
C470 C476 1.491 . S
C471 H462 0.950 . S
C471 C470 1.398 . S
C471 C472 1.391 . S
C472 H460 0.950 . S
C472 C468 1.393 . S
C472 C471 1.391 . S
C473 H463 0.950 . S
C473 C474 1.386 . S
C473 C475 1.391 . S
C474 C473 1.386 . S
C474 C478 1.393 . S
C475 H464 0.950 . S
C475 C473 1.391 . S
C475 C476 1.400 . S
C476 C470 1.491 . S
C476 C475 1.400 . S
C476 C477 1.398 . S
C477 H465 0.950 . S
C477 C476 1.398 . S
C477 C478 1.391 . S
C478 H466 0.950 . S
C478 C474 1.393 . S
C478 C477 1.391 . S
H479 C487 0.950 . S
H480 C492 0.950 1_554 S
H481 C489 0.950 . S
H482 C491 0.950 . S
H483 C493 0.950 . S
H484 C495 0.950 . S
H485 C497 0.950 . S
H486 C498 0.950 . S
C487 H479 0.950 . S
C487 C488 1.386 . S
C487 C489 1.391 . S
C488 C487 1.386 . S
C488 C492 1.393 . S
C489 H481 0.950 . S
C489 C487 1.391 . S
C489 C490 1.400 . S
C490 C489 1.400 . S
C490 C491 1.398 . S
C490 C496 1.491 . S
C491 H482 0.950 . S
C491 C490 1.398 . S
C491 C492 1.391 . S
C492 H480 0.950 1_556 S
C492 C488 1.393 . S
C492 C491 1.391 . S
C493 H483 0.950 . S
C493 C494 1.386 . S
C493 C495 1.391 . S
C494 C493 1.386 . S
C494 C498 1.393 . S
C495 H484 0.950 . S
C495 C493 1.391 . S
C495 C496 1.400 . S
C496 C490 1.491 . S
C496 C495 1.400 . S
C496 C497 1.398 . S
C497 H485 0.950 . S
C497 C496 1.398 . S
C497 C498 1.391 . S
C498 H486 0.950 . S
C498 C494 1.393 . S
C498 C497 1.391 . S
H499 C507 0.950 . S
H500 C512 0.950 . S
H501 C509 0.950 1_556 S
H502 C511 0.950 . S
H503 C513 0.950 . S
H504 C515 0.950 . S
H505 C517 0.950 . S
H506 C518 0.950 . S
C507 H499 0.950 . S
C507 C508 1.386 . S
C507 C509 1.391 . S
C508 C507 1.386 . S
C508 C512 1.393 . S
C509 H501 0.950 1_554 S
C509 C507 1.391 . S
C509 C510 1.400 . S
C510 C509 1.400 . S
C510 C511 1.398 . S
C510 C516 1.491 1_554 S
C511 H502 0.950 . S
C511 C510 1.398 . S
C511 C512 1.391 . S
C512 H500 0.950 . S
C512 C508 1.393 . S
C512 C511 1.391 . S
C513 H503 0.950 . S
C513 C514 1.386 . S
C513 C515 1.391 . S
C514 C513 1.386 . S
C514 C518 1.393 . S
C515 H504 0.950 . S
C515 C513 1.391 . S
C515 C516 1.400 . S
C516 C510 1.491 1_556 S
C516 C515 1.400 . S
C516 C517 1.398 . S
C517 H505 0.950 . S
C517 C516 1.398 . S
C517 C518 1.391 . S
C518 H506 0.950 . S
C518 C514 1.393 . S
C518 C517 1.391 . S
H519 C527 0.950 . S
H520 C532 0.950 . S
H521 C529 0.950 . S
H522 C531 0.950 . S
H523 C533 0.950 . S
H524 C535 0.950 . S
H525 C537 0.950 . S
H526 C538 0.950 . S
C527 H519 0.950 . S
C527 C528 1.386 . S
C527 C529 1.391 . S
C528 C527 1.386 . S
C528 C532 1.393 1_554 S
C529 H521 0.950 . S
C529 C527 1.391 . S
C529 C530 1.400 1_554 S
C530 C529 1.400 1_556 S
C530 C531 1.398 . S
C530 C536 1.491 . S
C531 H522 0.950 . S
C531 C530 1.398 . S
C531 C532 1.391 . S
C532 H520 0.950 . S
C532 C528 1.393 1_556 S
C532 C531 1.391 . S
C533 H523 0.950 . S
C533 C534 1.386 . S
C533 C535 1.391 . S
C534 C533 1.386 . S
C534 C538 1.393 . S
C535 H524 0.950 . S
C535 C533 1.391 . S
C535 C536 1.400 . S
C536 C530 1.491 . S
C536 C535 1.400 . S
C536 C537 1.398 . S
C537 H525 0.950 . S
C537 C536 1.398 . S
C537 C538 1.391 . S
C538 H526 0.950 . S
C538 C534 1.393 . S
C538 C537 1.391 . S
H539 C547 0.950 . S
H540 C552 0.950 1_554 S
H541 C549 0.950 . S
H542 C551 0.950 . S
H543 C553 0.950 . S
H544 C555 0.950 . S
H545 C557 0.950 . S
H546 C558 0.950 . S
C547 H539 0.950 . S
C547 C548 1.386 1_556 S
C547 C549 1.391 . S
C548 C547 1.386 1_554 S
C548 C552 1.393 1_554 S
C549 H541 0.950 . S
C549 C547 1.391 . S
C549 C550 1.400 . S
C550 C549 1.400 . S
C550 C551 1.398 . S
C550 C556 1.491 . S
C551 H542 0.950 . S
C551 C550 1.398 . S
C551 C552 1.391 . S
C552 H540 0.950 1_556 S
C552 C548 1.393 1_556 S
C552 C551 1.391 . S
C553 H543 0.950 . S
C553 C554 1.386 . S
C553 C555 1.391 . S
C554 C553 1.386 . S
C554 C558 1.393 . S
C555 H544 0.950 . S
C555 C553 1.391 . S
C555 C556 1.400 . S
C556 C550 1.491 . S
C556 C555 1.400 . S
C556 C557 1.398 . S
C557 H545 0.950 . S
C557 C556 1.398 . S
C557 C558 1.391 . S
C558 H546 0.950 . S
C558 C554 1.393 . S
C558 C557 1.391 . S
H559 C567 0.950 . S
H560 C572 0.950 . S
H561 C569 0.950 . S
H562 C571 0.950 . S
H563 C573 0.950 . S
H564 C575 0.950 . S
H565 C577 0.950 . S
H566 C578 0.950 . S
C567 H559 0.950 . S
C567 C568 1.386 . S
C567 C569 1.391 . S
C568 C567 1.386 . S
C568 C572 1.393 . S
C569 H561 0.950 . S
C569 C567 1.391 . S
C569 C570 1.400 . S
C570 C569 1.400 . S
C570 C571 1.398 . S
C570 C576 1.491 . S
C571 H562 0.950 . S
C571 C570 1.398 . S
C571 C572 1.391 . S
C572 H560 0.950 . S
C572 C568 1.393 . S
C572 C571 1.391 . S
C573 H563 0.950 . S
C573 C574 1.386 . S
C573 C575 1.391 . S
C574 C573 1.386 . S
C574 C578 1.393 . S
C575 H564 0.950 . S
C575 C573 1.391 . S
C575 C576 1.400 . S
C576 C570 1.491 . S
C576 C575 1.400 . S
C576 C577 1.398 . S
C577 H565 0.950 . S
C577 C576 1.398 . S
C577 C578 1.391 . S
C578 H566 0.950 . S
C578 C574 1.393 . S
C578 C577 1.391 . S
H579 C587 0.950 . S
H580 C592 0.950 . S
H581 C589 0.950 . S
H582 C591 0.950 . S
H583 C593 0.950 . S
H584 C595 0.950 . S
H585 C597 0.950 . S
H586 C598 0.950 . S
C587 H579 0.950 . S
C587 C588 1.386 . S
C587 C589 1.391 . S
C588 C587 1.386 . S
C588 C592 1.393 . S
C589 H581 0.950 . S
C589 C587 1.391 . S
C589 C590 1.400 . S
C590 C589 1.400 . S
C590 C591 1.398 . S
C590 C596 1.491 . S
C591 H582 0.950 . S
C591 C590 1.398 . S
C591 C592 1.391 . S
C592 H580 0.950 . S
C592 C588 1.393 . S
C592 C591 1.391 . S
C593 H583 0.950 . S
C593 C594 1.386 . S
C593 C595 1.391 . S
C594 C593 1.386 . S
C594 C598 1.393 . S
C595 H584 0.950 . S
C595 C593 1.391 . S
C595 C596 1.400 . S
C596 C590 1.491 . S
C596 C595 1.400 . S
C596 C597 1.398 . S
C597 H585 0.950 . S
C597 C596 1.398 . S
C597 C598 1.391 . S
C598 H586 0.950 . S
C598 C594 1.393 . S
C598 C597 1.391 . S
H599 C607 0.950 . S
H600 C612 0.950 . S
H601 C609 0.950 . S
H602 C611 0.950 . S
H603 C613 0.950 . S
H604 C615 0.950 . S
H605 C617 0.950 . S
H606 C618 0.950 . S
C607 H599 0.950 . S
C607 C608 1.386 . S
C607 C609 1.391 . S
C608 C607 1.386 . S
C608 C612 1.393 . S
C609 H601 0.950 . S
C609 C607 1.391 . S
C609 C610 1.400 . S
C610 C609 1.400 . S
C610 C611 1.398 . S
C610 C616 1.491 . S
C611 H602 0.950 . S
C611 C610 1.398 . S
C611 C612 1.391 . S
C612 H600 0.950 . S
C612 C608 1.393 . S
C612 C611 1.391 . S
C613 H603 0.950 . S
C613 C614 1.386 . S
C613 C615 1.391 . S
C614 C613 1.386 . S
C614 C618 1.393 . S
C615 H604 0.950 . S
C615 C613 1.391 . S
C615 C616 1.400 . S
C616 C610 1.491 . S
C616 C615 1.400 . S
C616 C617 1.398 . S
C617 H605 0.950 . S
C617 C616 1.398 . S
C617 C618 1.391 . S
C618 H606 0.950 . S
C618 C614 1.393 . S
C618 C617 1.391 . S
H619 C627 0.950 . S
H620 C632 0.950 . S
H621 C629 0.950 . S
H622 C631 0.950 . S
H623 C633 0.950 . S
H624 C635 0.950 . S
H625 C637 0.950 . S
H626 C638 0.950 . S
C627 H619 0.950 . S
C627 C628 1.386 . S
C627 C629 1.391 . S
C628 C627 1.386 . S
C628 C632 1.393 . S
C629 H621 0.950 . S
C629 C627 1.391 . S
C629 C630 1.400 . S
C630 C629 1.400 . S
C630 C631 1.398 . S
C630 C636 1.491 . S
C631 H622 0.950 . S
C631 C630 1.398 . S
C631 C632 1.391 . S
C632 H620 0.950 . S
C632 C628 1.393 . S
C632 C631 1.391 . S
C633 H623 0.950 . S
C633 C634 1.386 . S
C633 C635 1.391 . S
C634 C633 1.386 . S
C634 C638 1.393 . S
C635 H624 0.950 . S
C635 C633 1.391 . S
C635 C636 1.400 . S
C636 C630 1.491 . S
C636 C635 1.400 . S
C636 C637 1.398 . S
C637 H625 0.950 . S
C637 C636 1.398 . S
C637 C638 1.391 . S
C638 H626 0.950 . S
C638 C634 1.393 . S
C638 C637 1.391 . S
H639 C647 0.950 . S
H640 C652 0.950 . S
H641 C649 0.950 . S
H642 C651 0.950 . S
H643 C653 0.950 . S
H644 C655 0.950 . S
H645 C657 0.950 . S
H646 C658 0.950 . S
C647 H639 0.950 . S
C647 C648 1.386 . S
C647 C649 1.391 . S
C648 C647 1.386 . S
C648 C652 1.393 . S
C649 H641 0.950 . S
C649 C647 1.391 . S
C649 C650 1.400 . S
C650 C649 1.400 . S
C650 C651 1.398 . S
C650 C656 1.491 . S
C651 H642 0.950 . S
C651 C650 1.398 . S
C651 C652 1.391 . S
C652 H640 0.950 . S
C652 C648 1.393 . S
C652 C651 1.391 . S
C653 H643 0.950 . S
C653 C654 1.386 . S
C653 C655 1.391 . S
C654 C653 1.386 . S
C654 C658 1.393 . S
C655 H644 0.950 . S
C655 C653 1.391 . S
C655 C656 1.400 . S
C656 C650 1.491 . S
C656 C655 1.400 . S
C656 C657 1.398 . S
C657 H645 0.950 . S
C657 C656 1.398 . S
C657 C658 1.391 . S
C658 H646 0.950 . S
C658 C654 1.393 . S
C658 C657 1.391 . S
H659 C667 0.950 . S
H660 C672 0.950 . S
H661 C669 0.950 . S
H662 C671 0.950 . S
H663 C673 0.950 . S
H664 C675 0.950 . S
H665 C677 0.950 . S
H666 C678 0.950 . S
C667 H659 0.950 . S
C667 C668 1.386 . S
C667 C669 1.391 . S
C668 C667 1.386 . S
C668 C672 1.393 . S
C669 H661 0.950 . S
C669 C667 1.391 . S
C669 C670 1.400 . S
C670 C669 1.400 . S
C670 C671 1.398 . S
C670 C676 1.491 . S
C671 H662 0.950 . S
C671 C670 1.398 . S
C671 C672 1.391 . S
C672 H660 0.950 . S
C672 C668 1.393 . S
C672 C671 1.391 . S
C673 H663 0.950 . S
C673 C674 1.386 . S
C673 C675 1.391 . S
C674 C673 1.386 . S
C674 C678 1.393 . S
C675 H664 0.950 . S
C675 C673 1.391 . S
C675 C676 1.400 . S
C676 C670 1.491 . S
C676 C675 1.400 . S
C676 C677 1.398 . S
C677 H665 0.950 . S
C677 C676 1.398 . S
C677 C678 1.391 . S
C678 H666 0.950 . S
C678 C674 1.393 . S
C678 C677 1.391 . S
H679 C687 0.950 . S
H680 C692 0.950 . S
H681 C689 0.950 . S
H682 C691 0.950 . S
H683 C693 0.950 . S
H684 C695 0.950 . S
H685 C697 0.950 . S
H686 C698 0.950 . S
C687 H679 0.950 . S
C687 C688 1.386 . S
C687 C689 1.391 . S
C688 C687 1.386 . S
C688 C692 1.393 . S
C689 H681 0.950 . S
C689 C687 1.391 . S
C689 C690 1.400 . S
C690 C689 1.400 . S
C690 C691 1.398 . S
C690 C696 1.491 . S
C691 H682 0.950 . S
C691 C690 1.398 . S
C691 C692 1.391 . S
C692 H680 0.950 . S
C692 C688 1.393 . S
C692 C691 1.391 . S
C693 H683 0.950 . S
C693 C694 1.386 . S
C693 C695 1.391 . S
C694 C693 1.386 . S
C694 C698 1.393 . S
C695 H684 0.950 . S
C695 C693 1.391 . S
C695 C696 1.400 . S
C696 C690 1.491 . S
C696 C695 1.400 . S
C696 C697 1.398 . S
C697 H685 0.950 . S
C697 C696 1.398 . S
C697 C698 1.391 . S
C698 H686 0.950 . S
C698 C694 1.393 . S
C698 C697 1.391 . S
C228 C12 1.731 . S
C234 C137 1.860 . S
C248 C40 1.588 . S
C254 C184 1.627 . S
C274 C188 1.793 . S
C268 C61 1.835 . S
C294 C153 1.526 . S
C288 C82 1.516 . S
C308 C96 1.701 . S
C314 C168 1.759 . S
C334 C190 1.151 . S
C328 C117 1.085 . S
C354 C159 1.528 . S
C348 C51 1.526 . S
C368 C72 1.427 . S
C374 C199 1.458 . S
C394 C128 1.406 . S
C388 C101 1.342 1_556 S
C408 C122 1.416 . S
C414 C157 1.470 . S
C428 C17 1.842 . S
C434 C215 1.906 . S
C454 C126 1.554 . S
C448 C30 1.531 . S
C474 C144 1.832 . S
C468 C80 1.837 1_556 S
C494 C158 1.625 . S
C488 C93 1.535 1_556 S
C514 C212 1.803 . S
C508 C114 1.759 . S
C534 C127 1.503 . S
C528 C9 1.468 . S
C554 C175 1.732 . S
C548 C38 1.775 . S
C568 C59 1.111 . S
C574 C198 1.138 . S
C594 C167 1.508 . S
C588 C124 1.447 . S
C614 C206 1.418 . S
C608 C19 1.357 . S
C634 C136 1.398 . S
C628 C33 1.387 . S
C654 C181 1.452 . S
C648 C54 1.427 . S
C668 C75 1.886 . S
C674 C189 1.882 . S
C688 C103 1.463 . S
C694 C150 1.502 . S
