# Generated by pormake.
# Topology pto, (3,4)-cn, num edge types: 1
# Building blocks:
#     Node 0, Type 0, BuildingBlock: CUQRIR_clean_linker_1, # of connection points: 3
#     Node 1, Type 0, BuildingBlock: CUQRIR_clean_linker_1, # of connection points: 3
#     Node 2, Type 0, BuildingBlock: CUQRIR_clean_linker_1, # of connection points: 3
#     Node 3, Type 0, BuildingBlock: CUQRIR_clean_linker_1, # of connection points: 3
#     Node 4, Type 0, BuildingBlock: CUQRIR_clean_linker_1, # of connection points: 3
#     Node 5, Type 0, BuildingBlock: CUQRIR_clean_linker_1, # of connection points: 3
#     Node 6, Type 0, BuildingBlock: CUQRIR_clean_linker_1, # of connection points: 3
#     Node 7, Type 0, BuildingBlock: CUQRIR_clean_linker_1, # of connection points: 3
#     Node 8, Type 1, BuildingBlock: NAWXER_clean_sbu_0, # of connection points: 4
#     Node 9, Type 1, BuildingBlock: NAWXER_clean_sbu_0, # of connection points: 4
#     Node 10, Type 1, BuildingBlock: NAWXER_clean_sbu_0, # of connection points: 4
#     Node 11, Type 1, BuildingBlock: NAWXER_clean_sbu_0, # of connection points: 4
#     Node 12, Type 1, BuildingBlock: NAWXER_clean_sbu_0, # of connection points: 4
#     Node 13, Type 1, BuildingBlock: NAWXER_clean_sbu_0, # of connection points: 4
#     Edge 14, Type (0, 1), BuildingBlock: XIVTED_clean_linker_0, # of connection points: 2
#     Edge 15, Type (0, 1), BuildingBlock: XIVTED_clean_linker_0, # of connection points: 2
#     Edge 16, Type (0, 1), BuildingBlock: XIVTED_clean_linker_0, # of connection points: 2
#     Edge 17, Type (0, 1), BuildingBlock: XIVTED_clean_linker_0, # of connection points: 2
#     Edge 18, Type (0, 1), BuildingBlock: XIVTED_clean_linker_0, # of connection points: 2
#     Edge 19, Type (0, 1), BuildingBlock: XIVTED_clean_linker_0, # of connection points: 2
#     Edge 20, Type (0, 1), BuildingBlock: XIVTED_clean_linker_0, # of connection points: 2
#     Edge 21, Type (0, 1), BuildingBlock: XIVTED_clean_linker_0, # of connection points: 2
#     Edge 22, Type (0, 1), BuildingBlock: XIVTED_clean_linker_0, # of connection points: 2
#     Edge 23, Type (0, 1), BuildingBlock: XIVTED_clean_linker_0, # of connection points: 2
#     Edge 24, Type (0, 1), BuildingBlock: XIVTED_clean_linker_0, # of connection points: 2
#     Edge 25, Type (0, 1), BuildingBlock: XIVTED_clean_linker_0, # of connection points: 2
#     Edge 26, Type (0, 1), BuildingBlock: XIVTED_clean_linker_0, # of connection points: 2
#     Edge 27, Type (0, 1), BuildingBlock: XIVTED_clean_linker_0, # of connection points: 2
#     Edge 28, Type (0, 1), BuildingBlock: XIVTED_clean_linker_0, # of connection points: 2
#     Edge 29, Type (0, 1), BuildingBlock: XIVTED_clean_linker_0, # of connection points: 2
#     Edge 30, Type (0, 1), BuildingBlock: XIVTED_clean_linker_0, # of connection points: 2
#     Edge 31, Type (0, 1), BuildingBlock: XIVTED_clean_linker_0, # of connection points: 2
#     Edge 32, Type (0, 1), BuildingBlock: XIVTED_clean_linker_0, # of connection points: 2
#     Edge 33, Type (0, 1), BuildingBlock: XIVTED_clean_linker_0, # of connection points: 2
#     Edge 34, Type (0, 1), BuildingBlock: XIVTED_clean_linker_0, # of connection points: 2
#     Edge 35, Type (0, 1), BuildingBlock: XIVTED_clean_linker_0, # of connection points: 2
#     Edge 36, Type (0, 1), BuildingBlock: XIVTED_clean_linker_0, # of connection points: 2
#     Edge 37, Type (0, 1), BuildingBlock: XIVTED_clean_linker_0, # of connection points: 2
# Relax obj value: 0.020
# Max RMSD: 0.156
# Mean RMSD: 0.074
data_MOF--net-pto--node1-NAWXER_clean_sbu_0--node2-CUQRIR_clean_linker_1--edge1-XIVTED_clean_linker_0
_symmetry_space_group_name_H-M    P1
_symmetry_Int_Tables_number       1
_symmetry_cell_setting            triclinic
loop_
_symmetry_equiv_pos_as_xyz
'x, y, z'
_cell_length_a     40.072673
_cell_length_b     36.93862
_cell_length_c     34.699392
_cell_angle_alpha  78.381125
_cell_angle_beta   95.606297
_cell_angle_gamma 95.450659
loop_
_atom_site_label
_atom_site_type_symbol
_atom_site_fract_x
_atom_site_fract_y
_atom_site_fract_z
_atom_type_partial_charge
C0 C 0.28295 0.31492 0.25336 0.0
N1 N 0.31208 0.29941 0.25235 0.0
N2 N 0.27912 0.34397 0.22285 0.0
C3 C 0.25897 0.3027 0.28506 0.0
C4 C 0.30704 0.34567 0.20332 0.0
N5 N 0.32726 0.31886 0.22151 0.0
C6 C 0.31239 0.37029 0.16378 0.0
H7 H 0.2402 0.28113 0.27633 0.0
H8 H 0.24541 0.32632 0.28915 0.0
H9 H 0.27256 0.29062 0.31346 0.0
H10 H 0.32798 0.39574 0.16848 0.0
H11 H 0.28817 0.37849 0.14761 0.0
H12 H 0.32571 0.3562 0.14515 0.0
C13 C 0.29022 0.74959 0.76299 0.0
N14 N 0.3215 0.76448 0.77186 0.0
N15 N 0.28402 0.71645 0.78728 0.0
C16 C 0.26645 0.76642 0.72935 0.0
C17 C 0.31281 0.7116 0.81098 0.0
N18 N 0.33564 0.74071 0.80135 0.0
C19 C 0.31929 0.67777 0.84225 0.0
H20 H 0.26782 0.79697 0.72631 0.0
H21 H 0.24016 0.75495 0.73359 0.0
H22 H 0.27388 0.76021 0.70154 0.0
H23 H 0.33227 0.65833 0.82939 0.0
H24 H 0.29571 0.66311 0.85335 0.0
H25 H 0.33579 0.68542 0.86743 0.0
C26 C 0.88067 0.79345 0.28742 0.0
N27 N 0.86822 0.77362 0.25958 0.0
N28 N 0.85926 0.81883 0.29051 0.0
C29 C 0.91454 0.78943 0.31001 0.0
C30 C 0.83335 0.81371 0.26359 0.0
N31 N 0.83905 0.78673 0.24438 0.0
C32 C 0.80074 0.83206 0.25917 0.0
H33 H 0.91202 0.76772 0.337 0.0
H34 H 0.92454 0.81583 0.31895 0.0
H35 H 0.93267 0.78087 0.29197 0.0
H36 H 0.80266 0.85786 0.23646 0.0
H37 H 0.79539 0.8393 0.28733 0.0
H38 H 0.77924 0.81383 0.24959 0.0
C39 C 0.74291 0.24336 0.73413 0.0
N40 N 0.77546 0.24526 0.72586 0.0
N41 N 0.73943 0.26453 0.76088 0.0
C42 C 0.71486 0.2193 0.71765 0.0
C43 C 0.77101 0.27876 0.76927 0.0
N44 N 0.79301 0.26664 0.74842 0.0
C45 C 0.78056 0.30367 0.79869 0.0
H46 H 0.70858 0.23139 0.68613 0.0
H47 H 0.69172 0.21719 0.73326 0.0
H48 H 0.72309 0.19114 0.71929 0.0
H49 H 0.79066 0.28682 0.82684 0.0
H50 H 0.75878 0.31734 0.80483 0.0
H51 H 0.80042 0.3253 0.78782 0.0
C52 C 0.80052 0.6694 0.81921 0.0
N53 N 0.82133 0.6886 0.79234 0.0
N54 N 0.78381 0.6929 0.83434 0.0
C55 C 0.79858 0.62803 0.83302 0.0
C56 C 0.79535 0.72703 0.81578 0.0
N57 N 0.81841 0.72442 0.79068 0.0
C58 C 0.78236 0.7628 0.82013 0.0
H59 H 0.77999 0.61514 0.81297 0.0
H60 H 0.79042 0.62004 0.86343 0.0
H61 H 0.82328 0.61705 0.83223 0.0
H62 H 0.79903 0.77477 0.84261 0.0
H63 H 0.75645 0.75814 0.82979 0.0
H64 H 0.78242 0.78317 0.79187 0.0
C65 C 0.79763 0.21516 0.25729 0.0
N66 N 0.82561 0.23292 0.27205 0.0
N67 N 0.78347 0.23701 0.22479 0.0
C68 C 0.78506 0.17594 0.27365 0.0
C69 C 0.80408 0.26871 0.22047 0.0
N70 N 0.82978 0.26616 0.24911 0.0
C71 C 0.79762 0.30321 0.1902 0.0
H72 H 0.7724 0.1623 0.24984 0.0
H73 H 0.76661 0.17631 0.29539 0.0
H74 H 0.80593 0.15951 0.28899 0.0
H75 H 0.77029 0.30492 0.18182 0.0
H76 H 0.81035 0.30255 0.16339 0.0
H77 H 0.80776 0.32838 0.20161 0.0
C78 C 0.26306 0.27365 0.74877 0.0
N79 N 0.28081 0.24401 0.74939 0.0
N80 N 0.23595 0.27393 0.72221 0.0
C81 C 0.27108 0.30119 0.77556 0.0
C82 C 0.23764 0.24335 0.70685 0.0
N83 N 0.26472 0.22489 0.72363 0.0
C84 C 0.21478 0.23368 0.67266 0.0
H85 H 0.24797 0.31318 0.78081 0.0
H86 H 0.28852 0.32405 0.76137 0.0
H87 H 0.28348 0.28801 0.80429 0.0
H88 H 0.20228 0.25817 0.6557 0.0
H89 H 0.19514 0.21204 0.68416 0.0
H90 H 0.22904 0.22253 0.65239 0.0
C91 C 0.31746 0.7287 0.32885 0.0
N92 N 0.32454 0.70709 0.3039 0.0
N93 N 0.34038 0.75817 0.32809 0.0
C94 C 0.28723 0.72181 0.35269 0.0
C95 C 0.36178 0.75371 0.30179 0.0
N96 N 0.35194 0.72286 0.28668 0.0
C97 C 0.39191 0.77999 0.29069 0.0
H98 H 0.26453 0.72962 0.33285 0.0
H99 H 0.28999 0.73799 0.37663 0.0
H100 H 0.28331 0.69204 0.36618 0.0
H101 H 0.41206 0.77542 0.31506 0.0
H102 H 0.38531 0.80908 0.28686 0.0
H103 H 0.40204 0.77594 0.26344 0.0
C104 C 0.01091 0.47125 0.25573 0.0
C105 C 0.10934 0.56023 0.26363 0.0
O106 O 0.02879 0.47604 0.28697 0.0
Zn107 Zn 0.0581 0.51748 0.26224 0.0
O108 O 0.01654 0.4929 0.22275 0.0
Zn109 Zn 0.0504 0.53951 0.20019 0.0
O110 O 0.0725 0.51975 0.16213 0.0
O111 O 0.08263 0.4915 0.22428 0.0
O112 O 0.09378 0.56371 0.22919 0.0
O113 O 0.09703 0.5373 0.29217 0.0
O114 O 0.02518 0.56122 0.24744 0.0
O115 O 0.02117 0.57999 0.18284 0.0
C116 C 0.0865 0.4947 0.18754 0.0
C117 C 0.01288 0.58259 0.21656 0.0
C118 C 0.9935 0.43884 0.75437 0.0
C119 C 0.08654 0.53335 0.76547 0.0
O120 O 0.00932 0.44473 0.78646 0.0
Zn121 Zn 0.03898 0.4867 0.76292 0.0
O122 O 1.00017 0.46022 0.7217 0.0
Zn123 Zn 0.03288 0.50689 0.69964 0.0
O124 O 0.05813 0.4861 0.66484 0.0
O125 O 0.06632 0.46044 0.72811 0.0
O126 O 0.07275 0.5344 0.7304 0.0
O127 O 0.07491 0.50983 0.79405 0.0
O128 O 0.0062 0.52991 0.74474 0.0
O129 O 1.00151 0.54525 0.67965 0.0
C130 C 0.07176 0.46219 0.69203 0.0
C131 C 0.99374 0.54975 0.71297 0.0
C132 C 0.38157 0.97861 0.57234 0.0
C133 C 0.36543 0.07557 0.45387 0.0
O134 O 0.35103 0.98164 0.55828 0.0
Zn135 Zn 0.32239 0.01257 0.51028 0.0
O136 O 0.40529 0.99879 0.55485 0.0
Zn137 Zn 0.376 0.02649 0.51264 0.0
O138 O 0.34842 0.05452 0.54617 0.0
O139 O 0.29446 0.03619 0.53912 0.0
O140 O 0.39348 0.06767 0.47279 0.0
O141 O 0.33838 0.05691 0.46532 0.0
O142 O 0.30327 0.97481 0.48107 0.0
O143 O 0.35839 0.98424 0.4798 0.0
C144 C 0.31806 0.05578 0.5543 0.0
C145 C 0.33059 0.96686 0.47008 0.0
C146 C 0.6196 0.74334 0.10149 0.0
C147 C 0.53137 0.7431 0.99534 0.0
O148 O 0.60683 0.71043 0.09988 0.0
Zn149 Zn 0.56648 0.685 0.06622 0.0
O150 O 0.60606 0.771 0.07998 0.0
Zn151 Zn 0.57259 0.74408 0.05108 0.0
O152 O 0.53461 0.72384 0.09051 0.0
O153 O 0.53334 0.66294 0.10447 0.0
O154 O 0.54739 0.7712 0.00622 0.0
O155 O 0.53615 0.71045 0.01514 0.0
O156 O 0.59236 0.6544 0.04153 0.0
O157 O 0.60417 0.71481 0.0235 0.0
C158 C 0.5218 0.69272 0.10862 0.0
C159 C 0.60964 0.68151 0.02207 0.0
C160 C 0.87898 0.95658 0.60391 0.0
C161 C 0.90208 0.06948 0.50544 0.0
O162 O 0.85299 0.96863 0.58243 0.0
Zn163 Zn 0.83989 0.01417 0.53689 0.0
O164 O 0.90732 0.97514 0.60031 0.0
Zn165 Zn 0.89252 0.01417 0.5567 0.0
O166 O 0.86398 0.04627 0.58458 0.0
O167 O 0.81111 0.04141 0.56022 0.0
O168 O 0.92425 0.05243 0.52922 0.0
O169 O 0.87111 0.05765 0.50628 0.0
O170 O 0.82204 0.98945 0.49438 0.0
O171 O 0.87617 0.98305 0.51136 0.0
C172 C 0.83353 0.05476 0.58314 0.0
C173 C 0.84923 0.97599 0.49013 0.0
C174 C 0.57283 0.21488 0.05123 0.0
C175 C 0.47319 0.22175 0.95511 0.0
O176 O 0.55261 0.1874 0.04535 0.0
Zn177 Zn 0.52087 0.21571 0.00642 0.0
O178 O 0.56643 0.2477 0.0337 0.0
Zn179 Zn 0.52936 0.2754 0.99328 0.0
O180 O 0.50887 0.30381 0.0245 0.0
O181 O 0.4966 0.24362 0.04224 0.0
O182 O 0.48827 0.25304 0.95934 0.0
O183 O 0.48296 0.19215 0.97727 0.0
O184 O 0.55239 0.23891 0.9597 0.0
O185 O 0.55692 0.30013 0.95164 0.0
C186 C 0.49398 0.27677 0.04672 0.0
C187 C 0.56411 0.27065 0.9416 0.0
H188 H 0.27936 0.41859 0.20452 0.0
H189 H 0.08311 0.41993 0.20409 0.0
H190 H 0.21393 0.31832 0.21373 0.0
H191 H 0.14417 0.51581 0.1508 0.0
H192 H 0.12988 0.38159 0.20551 0.0
H193 H 0.23023 0.45498 0.18416 0.0
C194 C 0.25457 0.40436 0.2021 0.0
C195 C 0.25045 0.36557 0.21122 0.0
C196 C 0.13286 0.41081 0.1925 0.0
C197 C 0.19434 0.40665 0.18825 0.0
C198 C 0.10609 0.43257 0.19138 0.0
C199 C 0.10985 0.47082 0.17683 0.0
C200 C 0.16391 0.42772 0.18017 0.0
C201 C 0.14026 0.48623 0.16159 0.0
C202 C 0.22663 0.42501 0.19033 0.0
C203 C 0.21794 0.34823 0.2078 0.0
N204 N 0.16648 0.46472 0.1644 0.0
N205 N 0.19106 0.36889 0.19695 0.0
H206 H 0.26346 0.68367 0.72581 0.0
H207 H 0.11605 0.55255 0.83473 0.0
H208 H 0.24027 0.68965 0.84273 0.0
H209 H 0.12476 0.57333 0.70899 0.0
H210 H 0.16478 0.59745 0.84127 0.0
H211 H 0.21548 0.63788 0.72162 0.0
C212 C 0.24803 0.67523 0.7505 0.0
C213 C 0.25557 0.69006 0.78462 0.0
C214 C 0.15587 0.59207 0.81232 0.0
C215 C 0.20103 0.63768 0.78053 0.0
C216 C 0.12822 0.5664 0.80862 0.0
C217 C 0.11623 0.5593 0.77127 0.0
C218 C 0.17174 0.61022 0.7785 0.0
C219 C 0.1329 0.57806 0.73837 0.0
C220 C 0.22078 0.64915 0.74826 0.0
C221 C 0.23517 0.67835 0.81611 0.0
N222 N 0.15976 0.60249 0.74279 0.0
N223 N 0.2088 0.65265 0.81343 0.0
H224 H 0.88565 0.76692 0.188 0.0
H225 H 0.98549 0.58833 0.28369 0.0
H226 H 0.8848 0.71112 0.30934 0.0
H227 H 0.98473 0.63743 0.15972 0.0
H228 H 0.94629 0.63189 0.29186 0.0
H229 H 0.91856 0.7182 0.17475 0.0
C230 C 0.89198 0.74399 0.21158 0.0
C231 C 0.88297 0.74291 0.24983 0.0
C232 C 0.95453 0.63323 0.26277 0.0
C233 C 0.92064 0.68773 0.23538 0.0
C234 C 0.97711 0.60834 0.25807 0.0
C235 C 0.98869 0.60928 0.22096 0.0
C236 C 0.94334 0.65969 0.23021 0.0
C237 C 0.97658 0.63577 0.1889 0.0
C238 C 0.91088 0.71641 0.20418 0.0
C239 C 0.89175 0.71297 0.27961 0.0
N240 N 0.95468 0.66009 0.19429 0.0
N241 N 0.91028 0.68677 0.27185 0.0
H242 H 0.84065 0.25892 0.80949 0.0
H243 H 0.96101 0.41719 0.68924 0.0
H244 H 0.82426 0.30335 0.68533 0.0
H245 H 0.96846 0.3877 0.81655 0.0
H246 H 0.91799 0.36673 0.68638 0.0
H247 H 0.89498 0.29566 0.81113 0.0
C248 C 0.8491 0.27576 0.7824 0.0
C249 C 0.82808 0.27882 0.74734 0.0
C250 C 0.92908 0.3711 0.71498 0.0
C251 C 0.88953 0.32094 0.74886 0.0
C252 C 0.95363 0.40008 0.71673 0.0
C253 C 0.96808 0.40716 0.75331 0.0
C254 C 0.91859 0.34884 0.75002 0.0
C255 C 0.95776 0.38354 0.78776 0.0
C256 C 0.87986 0.29685 0.78335 0.0
C257 C 0.83992 0.30049 0.71284 0.0
N258 N 0.93338 0.35557 0.78529 0.0
N259 N 0.86969 0.32125 0.71455 0.0
H260 H 0.27746 0.23279 0.26369 0.0
H261 H 0.41038 0.13646 0.43233 0.0
H262 H 0.37134 0.28959 0.29679 0.0
H263 H 0.31365 0.08574 0.39739 0.0
H264 H 0.40042 0.19061 0.37925 0.0
H265 H 0.29381 0.17648 0.30888 0.0
C266 C 0.30156 0.2332 0.28074 0.0
C267 C 0.32287 0.26574 0.27727 0.0
C268 C 0.38159 0.1674 0.38309 0.0
C269 C 0.34211 0.20146 0.32908 0.0
C270 C 0.38734 0.13647 0.41322 0.0
C271 C 0.36267 0.1067 0.41957 0.0
C272 C 0.3511 0.16828 0.35917 0.0
C273 C 0.33323 0.10821 0.39401 0.0
C274 C 0.31104 0.2011 0.30641 0.0
C275 C 0.35424 0.26489 0.2991 0.0
N276 N 0.32825 0.13843 0.36524 0.0
N277 N 0.36287 0.23328 0.32448 0.0
H278 H 0.38614 0.69588 0.80935 0.0
H279 H 0.50005 0.80527 0.95809 0.0
H280 H 0.35966 0.79758 0.83655 0.0
H281 H 0.5074 0.69054 0.95289 0.0
H282 H 0.45616 0.80924 0.90313 0.0
H283 H 0.43891 0.70034 0.85087 0.0
C284 C 0.3918 0.71932 0.82389 0.0
C285 C 0.36865 0.74605 0.82043 0.0
C286 C 0.46767 0.78335 0.91388 0.0
C287 C 0.4285 0.75157 0.86762 0.0
C288 C 0.49269 0.78108 0.94512 0.0
C289 C 0.507 0.74738 0.96035 0.0
C290 C 0.45734 0.75182 0.89762 0.0
C291 C 0.49666 0.71691 0.94245 0.0
C292 C 0.42176 0.72194 0.84747 0.0
C293 C 0.37708 0.77644 0.8389 0.0
N294 N 0.4724 0.71983 0.91215 0.0
N295 N 0.40626 0.77822 0.8622 0.0
H296 H 0.84899 0.89173 0.27542 0.0
H297 H 0.88936 0.9197 0.49575 0.0
H298 H 0.87314 0.80038 0.36957 0.0
H299 H 0.81244 0.97818 0.4189 0.0
H300 H 0.89348 0.88152 0.44658 0.0
H301 H 0.84567 0.93049 0.32457 0.0
C302 C 0.85386 0.88004 0.30645 0.0
C303 C 0.86123 0.84291 0.31863 0.0
C304 C 0.87567 0.90265 0.4406 0.0
C305 C 0.85813 0.8869 0.37454 0.0
C306 C 0.87334 0.92446 0.46848 0.0
C307 C 0.85047 0.95201 0.46126 0.0
C308 C 0.85561 0.9091 0.40487 0.0
C309 C 0.8302 0.95701 0.4256 0.0
C310 C 0.85188 0.90201 0.33433 0.0
C311 C 0.86784 0.82902 0.35906 0.0
N312 N 0.8335 0.93596 0.39841 0.0
N313 N 0.86623 0.85109 0.38567 0.0
H314 H 0.71124 0.20766 0.81069 0.0
H315 H 0.59602 0.33159 0.89597 0.0
H316 H 0.70362 0.32309 0.75983 0.0
H317 H 0.58362 0.21196 0.91564 0.0
H318 H 0.63633 0.33073 0.84718 0.0
H319 H 0.66508 0.2097 0.85124 0.0
C320 C 0.69933 0.23328 0.80793 0.0
C321 C 0.71072 0.26517 0.78217 0.0
C322 C 0.62445 0.30479 0.86204 0.0
C323 C 0.65872 0.26827 0.82861 0.0
C324 C 0.60157 0.30526 0.88988 0.0
C325 C 0.5867 0.27181 0.91019 0.0
C326 C 0.63256 0.27065 0.85494 0.0
C327 C 0.59464 0.23847 0.90104 0.0
C328 C 0.67316 0.23459 0.83097 0.0
C329 C 0.69516 0.29805 0.77959 0.0
N330 N 0.61718 0.23876 0.87439 0.0
N331 N 0.67001 0.29893 0.80291 0.0
H332 H 0.30922 0.83475 0.77149 0.0
H333 H 0.41601 0.91593 0.587 0.0
H334 H 0.37143 0.76859 0.72409 0.0
H335 H 0.35726 0.98073 0.64113 0.0
H336 H 0.40871 0.86406 0.64321 0.0
H337 H 0.33402 0.89069 0.73014 0.0
C338 C 0.32839 0.83233 0.75242 0.0
C339 C 0.33815 0.7975 0.75045 0.0
C340 C 0.39822 0.88999 0.64333 0.0
C341 C 0.36654 0.86078 0.70288 0.0
C342 C 0.40277 0.91966 0.61152 0.0
C343 C 0.38736 0.95248 0.60983 0.0
C344 C 0.37792 0.8934 0.67315 0.0
C345 C 0.36966 0.95579 0.64164 0.0
C346 C 0.34264 0.86407 0.72891 0.0
C347 C 0.36328 0.79527 0.72586 0.0
N348 N 0.36506 0.9265 0.67172 0.0
N349 N 0.37635 0.8265 0.7025 0.0
H350 H 0.80312 0.7206 0.25604 0.0
H351 H 0.66156 0.80659 0.09706 0.0
H352 H 0.81907 0.82202 0.17193 0.0
H353 H 0.65376 0.69133 0.15446 0.0
H354 H 0.71909 0.81256 0.12651 0.0
H355 H 0.7494 0.707 0.21893 0.0
C356 C 0.79585 0.7391 0.22873 0.0
C357 C 0.81525 0.77227 0.21661 0.0
C358 C 0.70482 0.78593 0.13268 0.0
C359 C 0.75374 0.75816 0.17532 0.0
C360 C 0.67177 0.78263 0.11629 0.0
C361 C 0.6527 0.74846 0.12344 0.0
C362 C 0.71892 0.75494 0.1568 0.0
C363 C 0.66751 0.71826 0.14826 0.0
C364 C 0.76507 0.73174 0.20794 0.0
C365 C 0.80467 0.79604 0.18174 0.0
N366 N 0.69973 0.72223 0.16417 0.0
N367 N 0.7743 0.78891 0.16268 0.0
H368 H 0.75751 0.24256 0.64945 0.0
H369 H 0.87064 0.07679 0.64592 0.0
H370 H 0.82362 0.19729 0.74921 0.0
H371 H 0.77912 0.09651 0.57093 0.0
H372 H 0.85977 0.12642 0.67926 0.0
H373 H 0.7724 0.19594 0.6141 0.0
C374 C 0.77547 0.22294 0.66362 0.0
C375 C 0.78906 0.22319 0.70231 0.0
C376 C 0.84203 0.11975 0.65561 0.0
C377 C 0.80635 0.17013 0.66234 0.0
C378 C 0.84815 0.09141 0.63662 0.0
C379 C 0.82565 0.08239 0.6057 0.0
C380 C 0.81352 0.13965 0.64316 0.0
C381 C 0.79697 0.10232 0.59482 0.0
C382 C 0.78386 0.19635 0.64361 0.0
C383 C 0.81276 0.19787 0.7193 0.0
N384 N 0.79185 0.13019 0.61336 0.0
N385 N 0.82055 0.1721 0.69929 0.0
H386 H 0.33666 0.25352 0.20243 0.0
H387 H 0.48578 0.34203 0.07019 0.0
H388 H 0.38316 0.36324 0.20368 0.0
H389 H 0.4552 0.22489 0.09379 0.0
H390 H 0.44951 0.35053 0.12007 0.0
H391 H 0.38178 0.24159 0.16507 0.0
C392 C 0.35699 0.27467 0.19571 0.0
C393 C 0.35651 0.30929 0.20606 0.0
C394 C 0.45102 0.32294 0.11451 0.0
C395 C 0.40737 0.29665 0.16217 0.0
C396 C 0.47157 0.31812 0.08591 0.0
C397 C 0.47331 0.28278 0.07754 0.0
C398 C 0.43189 0.29224 0.13451 0.0
C399 C 0.45452 0.25271 0.09904 0.0
C400 C 0.38254 0.2681 0.17407 0.0
C401 C 0.38286 0.33626 0.19592 0.0
N402 N 0.43442 0.25819 0.12625 0.0
N403 N 0.40705 0.3296 0.17398 0.0
H404 H 0.8104 0.63898 0.74385 0.0
H405 H 1.00088 0.59548 0.76535 0.0
H406 H 0.88829 0.70432 0.79908 0.0
H407 H 0.93362 0.56564 0.67007 0.0
H408 H 0.95932 0.63452 0.77889 0.0
H409 H 0.85379 0.6102 0.71707 0.0
C410 C 0.83669 0.64738 0.74992 0.0
C411 C 0.84607 0.67375 0.77369 0.0
C412 C 0.95374 0.61994 0.75461 0.0
C413 C 0.8955 0.64113 0.74379 0.0
C414 C 0.97744 0.59765 0.7469 0.0
C415 C 0.97061 0.57746 0.71652 0.0
C416 C 0.92247 0.62131 0.73251 0.0
C417 C 0.93986 0.58108 0.69354 0.0
C418 C 0.86135 0.63122 0.73457 0.0
C419 C 0.88028 0.68409 0.78076 0.0
N420 N 0.91657 0.60211 0.70246 0.0
N421 N 0.9038 0.66741 0.76633 0.0
H422 H 0.85066 0.29718 0.31282 0.0
H423 H 0.97911 0.44549 0.19252 0.0
H424 H 0.87173 0.29735 0.19353 0.0
H425 H 0.98289 0.42571 0.31974 0.0
H426 H 0.93648 0.39407 0.19245 0.0
H427 H 0.89645 0.34599 0.31666 0.0
C428 C 0.86532 0.30715 0.28771 0.0
C429 C 0.85764 0.2933 0.25284 0.0
C430 C 0.94662 0.40083 0.22045 0.0
C431 C 0.90917 0.34954 0.25649 0.0
C432 C 0.9709 0.4304 0.22054 0.0
C433 C 0.98462 0.44008 0.25622 0.0
C434 C 0.93548 0.38077 0.25628 0.0
C435 C 0.97303 0.41921 0.29156 0.0
C436 C 0.89122 0.33512 0.28977 0.0
C437 C 0.87675 0.30767 0.22074 0.0
N438 N 0.94895 0.39062 0.2907 0.0
N439 N 0.90145 0.33514 0.22322 0.0
H440 H 0.16903 0.26016 0.72474 0.0
H441 H 0.13037 0.4738 0.65488 0.0
H442 H 0.24649 0.34796 0.69651 0.0
H443 H 0.06139 0.38824 0.713 0.0
H444 H 0.17056 0.42679 0.65651 0.0
H445 H 0.12662 0.30569 0.7081 0.0
C446 C 0.17692 0.28915 0.71486 0.0
C447 C 0.21105 0.30061 0.71224 0.0
C448 C 0.14634 0.41828 0.66819 0.0
C449 C 0.16304 0.35282 0.69303 0.0
C450 C 0.12336 0.44495 0.6668 0.0
C451 C 0.09265 0.43458 0.68361 0.0
C452 C 0.13819 0.38123 0.68625 0.0
C453 C 0.08486 0.39714 0.6996 0.0
C454 C 0.15286 0.3151 0.70537 0.0
C455 C 0.22032 0.33836 0.69931 0.0
N456 N 0.10751 0.37185 0.70069 0.0
N457 N 0.19642 0.36325 0.69023 0.0
H458 H 0.31002 0.63842 0.34533 0.0
H459 H 0.13871 0.61533 0.20988 0.0
H460 H 0.28478 0.71281 0.23639 0.0
H461 H 0.15672 0.5512 0.32745 0.0
H462 H 0.19509 0.64593 0.21533 0.0
H463 H 0.25828 0.59921 0.33422 0.0
C464 C 0.29406 0.64559 0.31832 0.0
C465 C 0.30147 0.67856 0.29158 0.0
C466 C 0.18678 0.6252 0.23999 0.0
C467 C 0.24196 0.63491 0.27913 0.0
C468 C 0.15445 0.60777 0.23701 0.0
C469 C 0.14274 0.58075 0.2684 0.0
C470 C 0.20789 0.61556 0.27456 0.0
C471 C 0.1645 0.57208 0.30266 0.0
C472 C 0.26434 0.62365 0.31226 0.0
C473 C 0.27994 0.6873 0.25735 0.0
N474 N 0.19602 0.58942 0.30482 0.0
N475 N 0.25091 0.66587 0.2523 0.0
H476 H 0.85796 0.78285 0.80943 0.0
H477 H 0.83543 0.89851 0.59248 0.0
H478 H 0.81409 0.73463 0.71144 0.0
H479 H 0.91408 0.93135 0.67547 0.0
H480 H 0.82612 0.8392 0.63708 0.0
H481 H 0.87841 0.83813 0.76281 0.0
C482 C 0.85311 0.7839 0.77799 0.0
C483 C 0.83426 0.7546 0.76393 0.0
C484 C 0.84563 0.85915 0.64552 0.0
C485 C 0.85694 0.81733 0.71079 0.0
C486 C 0.85082 0.89315 0.62018 0.0
C487 C 0.87538 0.91999 0.63049 0.0
C488 C 0.86462 0.852 0.68199 0.0
C489 C 0.89487 0.91137 0.6665 0.0
C490 C 0.86479 0.81522 0.75149 0.0
C491 C 0.82859 0.75681 0.72315 0.0
N492 N 0.88873 0.87823 0.69135 0.0
N493 N 0.83945 0.7879 0.69796 0.0
H494 H 0.77874 0.2451 0.14542 0.0
H495 H 0.58486 0.16972 0.12425 0.0
H496 H 0.7215 0.20879 0.24687 0.0
H497 H 0.63315 0.25081 0.03531 0.0
H498 H 0.63757 0.17048 0.16766 0.0
H499 H 0.72804 0.23423 0.10249 0.0
C500 C 0.75543 0.23481 0.15858 0.0
C501 C 0.75414 0.22831 0.19963 0.0
C502 C 0.63656 0.18774 0.13844 0.0
C503 C 0.6962 0.2149 0.15088 0.0
C504 C 0.6067 0.18708 0.11366 0.0
C505 C 0.60476 0.21032 0.07629 0.0
C506 C 0.66465 0.21116 0.1252 0.0
C507 C 0.63358 0.23264 0.06402 0.0
C508 C 0.72658 0.22841 0.13417 0.0
C509 C 0.7235 0.21402 0.21534 0.0
N510 N 0.66226 0.23246 0.08831 0.0
N511 N 0.69565 0.20786 0.19094 0.0
H512 H 0.23152 0.15843 0.72105 0.0
H513 H 0.36186 0.10641 0.58405 0.0
H514 H 0.32423 0.22325 0.69408 0.0
H515 H 0.25984 0.05737 0.58989 0.0
H516 H 0.35199 0.14304 0.63234 0.0
H517 H 0.24581 0.11365 0.68289 0.0
C518 C 0.25532 0.16255 0.70784 0.0
C519 C 0.27675 0.19438 0.71041 0.0
C520 C 0.33176 0.12426 0.62313 0.0
C521 C 0.29307 0.14402 0.66637 0.0
C522 C 0.33731 0.10334 0.59544 0.0
C523 C 0.31153 0.0789 0.58263 0.0
C524 C 0.30025 0.12066 0.63846 0.0
C525 C 0.28033 0.07608 0.59863 0.0
C526 C 0.26332 0.13732 0.68582 0.0
C527 C 0.30727 0.19882 0.69291 0.0
N528 N 0.27556 0.09672 0.62573 0.0
N529 N 0.3144 0.17411 0.67122 0.0
H530 H 0.3898 0.66432 0.29874 0.0
H531 H 0.47926 0.74702 0.10231 0.0
H532 H 0.35299 0.75312 0.20947 0.0
H533 H 0.49812 0.63814 0.1692 0.0
H534 H 0.43299 0.74877 0.14217 0.0
H535 H 0.42846 0.65186 0.2526 0.0
C536 C 0.38927 0.68039 0.26895 0.0
C537 C 0.36838 0.7097 0.2576 0.0
C538 C 0.44699 0.72431 0.14811 0.0
C539 C 0.41285 0.6966 0.20528 0.0
C540 C 0.47367 0.72338 0.12546 0.0
C541 C 0.49287 0.69248 0.13255 0.0
C542 C 0.4395 0.69439 0.1788 0.0
C543 C 0.48404 0.66254 0.16274 0.0
C544 C 0.41143 0.67354 0.24278 0.0
C545 C 0.36875 0.73023 0.21904 0.0
N546 N 0.45824 0.66441 0.18512 0.0
N547 N 0.39099 0.7237 0.19449 0.0
H548 H 0.88098 0.19648 0.27311 0.0
H549 H 0.88915 0.13898 0.50818 0.0
H550 H 0.81811 0.23505 0.34746 0.0
H551 H 0.92875 0.07465 0.4351 0.0
H552 H 0.87949 0.18799 0.45031 0.0
H553 H 0.91286 0.16402 0.33251 0.0
C554 C 0.87455 0.19865 0.3021 0.0
C555 C 0.84725 0.21829 0.30595 0.0
C556 C 0.8913 0.16372 0.44703 0.0
C557 C 0.8831 0.18182 0.37338 0.0
C558 C 0.89732 0.13605 0.48017 0.0
C559 C 0.91015 0.10311 0.47632 0.0
C560 C 0.89761 0.15804 0.40967 0.0
C561 C 0.91936 0.10002 0.43924 0.0
C562 C 0.89255 0.18022 0.33582 0.0
C563 C 0.83923 0.22021 0.34373 0.0
N564 N 0.91233 0.12689 0.40707 0.0
N565 N 0.85699 0.20208 0.37605 0.0
H566 H 0.29155 0.18122 0.80338 0.0
H567 H 0.4596 0.27795 0.89379 0.0
H568 H 0.33876 0.28684 0.7513 0.0
H569 H 0.42525 0.16497 0.94168 0.0
H570 H 0.41562 0.27949 0.84071 0.0
H571 H 0.34052 0.17172 0.85242 0.0
C572 C 0.31261 0.20197 0.80192 0.0
C573 C 0.31128 0.23497 0.77373 0.0
C574 C 0.41754 0.25419 0.86261 0.0
C575 C 0.36672 0.22481 0.82951 0.0
C576 C 0.44269 0.25333 0.89328 0.0
C577 C 0.44607 0.22135 0.92267 0.0
C578 C 0.39497 0.22298 0.86103 0.0
C579 C 0.42351 0.19026 0.91977 0.0
C580 C 0.34036 0.19672 0.82992 0.0
C581 C 0.33886 0.26124 0.77293 0.0
N582 N 0.39866 0.19193 0.88964 0.0
N583 N 0.36523 0.25577 0.80057 0.0
H584 H 0.38979 0.78469 0.37616 0.0
H585 H 0.27726 0.93052 0.43346 0.0
H586 H 0.28944 0.80224 0.32334 0.0
H587 H 0.38534 0.9347 0.45536 0.0
H588 H 0.2797 0.88023 0.39735 0.0
H589 H 0.38757 0.83685 0.40968 0.0
C590 C 0.36742 0.7998 0.37149 0.0
C591 C 0.33974 0.78929 0.34719 0.0
C592 C 0.30285 0.89232 0.40997 0.0
C593 C 0.33662 0.84835 0.38573 0.0
C594 C 0.30146 0.92093 0.43066 0.0
C595 C 0.33112 0.93692 0.44743 0.0
C596 C 0.33407 0.87929 0.40652 0.0
C597 C 0.36181 0.92337 0.44282 0.0
C598 C 0.36604 0.8294 0.39066 0.0
C599 C 0.31109 0.80935 0.34232 0.0
N600 N 0.36246 0.89527 0.42304 0.0
N601 N 0.31015 0.83779 0.36162 0.0
H602 H 0.7264 0.64737 0.83651 0.0
H603 H 0.66881 0.72245 0.01695 0.0
H604 H 0.78922 0.71899 0.90186 0.0
H605 H 0.61422 0.62938 0.97574 0.0
H606 H 0.71324 0.71999 0.9749 0.0
H607 H 0.68518 0.63823 0.88667 0.0
C608 C 0.73159 0.66073 0.86173 0.0
C609 C 0.76089 0.68429 0.86505 0.0
C610 C 0.6918 0.69977 0.97513 0.0
C611 C 0.71417 0.6744 0.92198 0.0
C612 C 0.66634 0.70123 0.99912 0.0
C613 C 0.63773 0.67621 0.99963 0.0
C614 C 0.68859 0.67349 0.95062 0.0
C615 C 0.63597 0.6491 0.97622 0.0
C616 C 0.70816 0.6556 0.89024 0.0
C617 C 0.76662 0.70113 0.89804 0.0
N618 N 0.6609 0.64877 0.95211 0.0
N619 N 0.74338 0.69614 0.92496 0.0
loop_
_geom_bond_atom_site_label_1
_geom_bond_atom_site_label_2
_geom_bond_distance
_geom_bond_site_symmetry_2
_ccdc_geom_bond_type
C0 N1 1.317 . S
C0 N2 1.348 . S
C0 C3 1.485 . S
N1 C0 1.317 . S
N1 N5 1.370 . S
N2 C0 1.348 . S
N2 C4 1.346 . S
C3 C0 1.485 . S
C3 H7 0.960 . S
C3 H8 0.961 . S
C3 H9 0.960 . S
C4 N2 1.346 . S
C4 N5 1.307 . S
C4 C6 1.486 . S
N5 N1 1.370 . S
N5 C4 1.307 . S
C6 C4 1.486 . S
C6 H10 0.960 . S
C6 H11 0.960 . S
C6 H12 0.959 . S
H7 C3 0.960 . S
H8 C3 0.961 . S
H9 C3 0.960 . S
H10 C6 0.960 . S
H11 C6 0.960 . S
H12 C6 0.959 . S
C13 N14 1.317 . S
C13 N15 1.348 . S
C13 C16 1.485 . S
N14 C13 1.317 . S
N14 N18 1.370 . S
N15 C13 1.348 . S
N15 C17 1.346 . S
C16 C13 1.485 . S
C16 H20 0.960 . S
C16 H21 0.961 . S
C16 H22 0.960 . S
C17 N15 1.346 . S
C17 N18 1.307 . S
C17 C19 1.486 . S
N18 N14 1.370 . S
N18 C17 1.307 . S
C19 C17 1.486 . S
C19 H23 0.960 . S
C19 H24 0.960 . S
C19 H25 0.959 . S
H20 C16 0.960 . S
H21 C16 0.961 . S
H22 C16 0.960 . S
H23 C19 0.960 . S
H24 C19 0.960 . S
H25 C19 0.959 . S
C26 N27 1.317 . S
C26 N28 1.348 . S
C26 C29 1.485 . S
N27 C26 1.317 . S
N27 N31 1.370 . S
N28 C26 1.348 . S
N28 C30 1.346 . S
C29 C26 1.485 . S
C29 H33 0.960 . S
C29 H34 0.961 . S
C29 H35 0.960 . S
C30 N28 1.346 . S
C30 N31 1.307 . S
C30 C32 1.486 . S
N31 N27 1.370 . S
N31 C30 1.307 . S
C32 C30 1.486 . S
C32 H36 0.960 . S
C32 H37 0.960 . S
C32 H38 0.959 . S
H33 C29 0.960 . S
H34 C29 0.961 . S
H35 C29 0.960 . S
H36 C32 0.960 . S
H37 C32 0.960 . S
H38 C32 0.959 . S
C39 N40 1.317 . S
C39 N41 1.348 . S
C39 C42 1.485 . S
N40 C39 1.317 . S
N40 N44 1.370 . S
N41 C39 1.348 . S
N41 C43 1.346 . S
C42 C39 1.485 . S
C42 H46 0.960 . S
C42 H47 0.961 . S
C42 H48 0.960 . S
C43 N41 1.346 . S
C43 N44 1.307 . S
C43 C45 1.486 . S
N44 N40 1.370 . S
N44 C43 1.307 . S
C45 C43 1.486 . S
C45 H49 0.960 . S
C45 H50 0.960 . S
C45 H51 0.959 . S
H46 C42 0.960 . S
H47 C42 0.961 . S
H48 C42 0.960 . S
H49 C45 0.960 . S
H50 C45 0.960 . S
H51 C45 0.959 . S
C52 N53 1.317 . S
C52 N54 1.348 . S
C52 C55 1.485 . S
N53 C52 1.317 . S
N53 N57 1.370 . S
N54 C52 1.348 . S
N54 C56 1.346 . S
C55 C52 1.485 . S
C55 H59 0.960 . S
C55 H60 0.961 . S
C55 H61 0.960 . S
C56 N54 1.346 . S
C56 N57 1.307 . S
C56 C58 1.486 . S
N57 N53 1.370 . S
N57 C56 1.307 . S
C58 C56 1.486 . S
C58 H62 0.960 . S
C58 H63 0.960 . S
C58 H64 0.959 . S
H59 C55 0.960 . S
H60 C55 0.961 . S
H61 C55 0.960 . S
H62 C58 0.960 . S
H63 C58 0.960 . S
H64 C58 0.959 . S
C65 N66 1.317 . S
C65 N67 1.348 . S
C65 C68 1.485 . S
N66 C65 1.317 . S
N66 N70 1.370 . S
N67 C65 1.348 . S
N67 C69 1.346 . S
C68 C65 1.485 . S
C68 H72 0.960 . S
C68 H73 0.961 . S
C68 H74 0.960 . S
C69 N67 1.346 . S
C69 N70 1.307 . S
C69 C71 1.486 . S
N70 N66 1.370 . S
N70 C69 1.307 . S
C71 C69 1.486 . S
C71 H75 0.960 . S
C71 H76 0.960 . S
C71 H77 0.959 . S
H72 C68 0.960 . S
H73 C68 0.961 . S
H74 C68 0.960 . S
H75 C71 0.960 . S
H76 C71 0.960 . S
H77 C71 0.959 . S
C78 N79 1.317 . S
C78 N80 1.348 . S
C78 C81 1.485 . S
N79 C78 1.317 . S
N79 N83 1.370 . S
N80 C78 1.348 . S
N80 C82 1.346 . S
C81 C78 1.485 . S
C81 H85 0.960 . S
C81 H86 0.961 . S
C81 H87 0.960 . S
C82 N80 1.346 . S
C82 N83 1.307 . S
C82 C84 1.486 . S
N83 N79 1.370 . S
N83 C82 1.307 . S
C84 C82 1.486 . S
C84 H88 0.960 . S
C84 H89 0.960 . S
C84 H90 0.959 . S
H85 C81 0.960 . S
H86 C81 0.961 . S
H87 C81 0.960 . S
H88 C84 0.960 . S
H89 C84 0.960 . S
H90 C84 0.959 . S
C91 N92 1.317 . S
C91 N93 1.348 . S
C91 C94 1.485 . S
N92 C91 1.317 . S
N92 N96 1.370 . S
N93 C91 1.348 . S
N93 C95 1.346 . S
C94 C91 1.485 . S
C94 H98 0.960 . S
C94 H99 0.961 . S
C94 H100 0.960 . S
C95 N93 1.346 . S
C95 N96 1.307 . S
C95 C97 1.486 . S
N96 N92 1.370 . S
N96 C95 1.307 . S
C97 C95 1.486 . S
C97 H101 0.960 . S
C97 H102 0.960 . S
C97 H103 0.959 . S
H98 C94 0.960 . S
H99 C94 0.961 . S
H100 C94 0.960 . S
H101 C97 0.960 . S
H102 C97 0.960 . S
H103 C97 0.959 . S
C104 O106 1.247 . S
C104 O108 1.258 . S
C105 O112 1.247 . S
C105 O113 1.258 . S
O106 C104 1.247 . S
O106 Zn107 2.028 . S
Zn107 O106 2.028 . S
Zn107 O111 2.035 . S
Zn107 O113 2.035 . S
Zn107 O114 2.028 . S
O108 C104 1.258 . S
O108 Zn109 2.035 . S
Zn109 O108 2.035 . S
Zn109 O110 2.028 . S
Zn109 O112 2.028 . S
Zn109 O115 2.035 . S
O110 Zn109 2.028 . S
O110 C116 1.247 . S
O111 Zn107 2.035 . S
O111 C116 1.258 . S
O112 C105 1.247 . S
O112 Zn109 2.028 . S
O113 C105 1.258 . S
O113 Zn107 2.035 . S
O114 Zn107 2.028 . S
O114 C117 1.247 . S
O115 Zn109 2.035 . S
O115 C117 1.258 . S
C116 O110 1.247 . S
C116 O111 1.258 . S
C117 O114 1.247 . S
C117 O115 1.258 . S
C118 O120 1.247 . S
C118 O122 1.258 . S
C119 O126 1.247 . S
C119 O127 1.258 . S
O120 C118 1.247 . S
O120 Zn121 2.028 1_655 S
Zn121 O120 2.028 1_455 S
Zn121 O125 2.035 . S
Zn121 O127 2.035 . S
Zn121 O128 2.028 1_455 S
O122 C118 1.258 . S
O122 Zn123 2.035 1_655 S
Zn123 O122 2.035 1_455 S
Zn123 O124 2.028 . S
Zn123 O126 2.028 . S
Zn123 O129 2.035 1_455 S
O124 Zn123 2.028 . S
O124 C130 1.247 . S
O125 Zn121 2.035 . S
O125 C130 1.258 . S
O126 C119 1.247 . S
O126 Zn123 2.028 . S
O127 C119 1.258 . S
O127 Zn121 2.035 . S
O128 Zn121 2.028 1_655 S
O128 C131 1.247 . S
O129 Zn123 2.035 1_655 S
O129 C131 1.258 . S
C130 O124 1.247 . S
C130 O125 1.258 . S
C131 O128 1.247 . S
C131 O129 1.258 . S
C132 O134 1.247 . S
C132 O136 1.258 . S
C133 O140 1.247 . S
C133 O141 1.258 . S
O134 C132 1.247 . S
O134 Zn135 2.028 1_565 S
Zn135 O134 2.028 1_545 S
Zn135 O139 2.035 . S
Zn135 O141 2.035 . S
Zn135 O142 2.028 1_545 S
O136 C132 1.258 . S
O136 Zn137 2.035 1_565 S
Zn137 O136 2.035 1_545 S
Zn137 O138 2.028 . S
Zn137 O140 2.028 . S
Zn137 O143 2.035 1_545 S
O138 Zn137 2.028 . S
O138 C144 1.247 . S
O139 Zn135 2.035 . S
O139 C144 1.258 . S
O140 C133 1.247 . S
O140 Zn137 2.028 . S
O141 C133 1.258 . S
O141 Zn135 2.035 . S
O142 Zn135 2.028 1_565 S
O142 C145 1.247 . S
O143 Zn137 2.035 1_565 S
O143 C145 1.258 . S
C144 O138 1.247 . S
C144 O139 1.258 . S
C145 O142 1.247 . S
C145 O143 1.258 . S
C146 O148 1.247 . S
C146 O150 1.258 . S
C147 O154 1.247 . S
C147 O155 1.258 . S
O148 C146 1.247 . S
O148 Zn149 2.028 . S
Zn149 O148 2.028 . S
Zn149 O153 2.035 . S
Zn149 O155 2.035 . S
Zn149 O156 2.028 . S
O150 C146 1.258 . S
O150 Zn151 2.035 . S
Zn151 O150 2.035 . S
Zn151 O152 2.028 . S
Zn151 O154 2.028 . S
Zn151 O157 2.035 . S
O152 Zn151 2.028 . S
O152 C158 1.247 . S
O153 Zn149 2.035 . S
O153 C158 1.258 . S
O154 C147 1.247 . S
O154 Zn151 2.028 . S
O155 C147 1.258 . S
O155 Zn149 2.035 . S
O156 Zn149 2.028 . S
O156 C159 1.247 . S
O157 Zn151 2.035 . S
O157 C159 1.258 . S
C158 O152 1.247 . S
C158 O153 1.258 . S
C159 O156 1.247 . S
C159 O157 1.258 . S
C160 O162 1.247 . S
C160 O164 1.258 . S
C161 O168 1.247 . S
C161 O169 1.258 . S
O162 C160 1.247 . S
O162 Zn163 2.028 1_565 S
Zn163 O162 2.028 1_545 S
Zn163 O167 2.035 . S
Zn163 O169 2.035 . S
Zn163 O170 2.028 1_545 S
O164 C160 1.258 . S
O164 Zn165 2.035 1_565 S
Zn165 O164 2.035 1_545 S
Zn165 O166 2.028 . S
Zn165 O168 2.028 . S
Zn165 O171 2.043 . S
O166 Zn165 2.028 . S
O166 C172 1.247 . S
O167 Zn163 2.035 . S
O167 C172 1.258 . S
O168 C161 1.247 . S
O168 Zn165 2.028 . S
O169 C161 1.258 . S
O169 Zn163 2.035 . S
O170 Zn163 2.028 1_565 S
O170 C173 1.247 . S
O171 Zn165 2.043 . S
O171 C173 1.254 1_545 S
C172 O166 1.247 . S
C172 O167 1.258 . S
C173 O170 1.247 . S
C173 O171 1.254 1_565 S
C174 O176 1.247 . S
C174 O178 1.258 . S
C175 O182 1.247 . S
C175 O183 1.258 . S
O176 C174 1.247 . S
O176 Zn177 2.028 . S
Zn177 O176 2.028 . S
Zn177 O181 2.035 . S
Zn177 O183 2.035 1_554 S
Zn177 O184 2.028 1_554 S
O178 C174 1.258 . S
O178 Zn179 2.035 1_554 S
Zn179 O178 2.035 1_556 S
Zn179 O180 2.028 1_556 S
Zn179 O182 2.028 . S
Zn179 O185 2.035 . S
O180 Zn179 2.028 1_554 S
O180 C186 1.247 . S
O181 Zn177 2.035 . S
O181 C186 1.258 . S
O182 C175 1.247 . S
O182 Zn179 2.028 . S
O183 C175 1.258 . S
O183 Zn177 2.035 1_556 S
O184 Zn177 2.028 1_556 S
O184 C187 1.247 . S
O185 Zn179 2.035 . S
O185 C187 1.258 . S
C186 O180 1.247 . S
C186 O181 1.258 . S
C187 O184 1.247 . S
C187 O185 1.258 . S
H188 C194 0.930 . S
H189 C198 0.930 . S
H190 C203 0.929 . S
H191 C201 0.929 . S
H192 C196 0.929 . S
H193 C202 0.929 . S
C194 H188 0.930 . S
C194 C195 1.367 . S
C194 C202 1.378 . S
C195 C194 1.367 . S
C195 C203 1.433 . S
C196 H192 0.929 . S
C196 C198 1.378 . S
C196 C200 1.350 . S
C197 C200 1.463 . S
C197 C202 1.350 . S
C197 N205 1.427 . S
C198 H189 0.930 . S
C198 C196 1.378 . S
C198 C199 1.367 . S
C199 C198 1.367 . S
C199 C201 1.433 . S
C200 C196 1.350 . S
C200 C197 1.463 . S
C200 N204 1.427 . S
C201 H191 0.929 . S
C201 C199 1.433 . S
C201 N204 1.384 . S
C202 H193 0.929 . S
C202 C194 1.378 . S
C202 C197 1.350 . S
C203 H190 0.929 . S
C203 C195 1.433 . S
C203 N205 1.384 . S
N204 C200 1.427 . S
N204 C201 1.384 . S
N205 C197 1.427 . S
N205 C203 1.384 . S
H206 C212 0.930 . S
H207 C216 0.930 . S
H208 C221 0.929 . S
H209 C219 0.929 . S
H210 C214 0.929 . S
H211 C220 0.929 . S
C212 H206 0.930 . S
C212 C213 1.367 . S
C212 C220 1.378 . S
C213 C212 1.367 . S
C213 C221 1.433 . S
C214 H210 0.929 . S
C214 C216 1.378 . S
C214 C218 1.350 . S
C215 C218 1.463 . S
C215 C220 1.350 . S
C215 N223 1.427 . S
C216 H207 0.930 . S
C216 C214 1.378 . S
C216 C217 1.367 . S
C217 C216 1.367 . S
C217 C219 1.433 . S
C218 C214 1.350 . S
C218 C215 1.463 . S
C218 N222 1.427 . S
C219 H209 0.929 . S
C219 C217 1.433 . S
C219 N222 1.384 . S
C220 H211 0.929 . S
C220 C212 1.378 . S
C220 C215 1.350 . S
C221 H208 0.929 . S
C221 C213 1.433 . S
C221 N223 1.384 . S
N222 C218 1.427 . S
N222 C219 1.384 . S
N223 C215 1.427 . S
N223 C221 1.384 . S
H224 C230 0.930 . S
H225 C234 0.930 . S
H226 C239 0.929 . S
H227 C237 0.929 . S
H228 C232 0.929 . S
H229 C238 0.929 . S
C230 H224 0.930 . S
C230 C231 1.367 . S
C230 C238 1.378 . S
C231 C230 1.367 . S
C231 C239 1.433 . S
C232 H228 0.929 . S
C232 C234 1.378 . S
C232 C236 1.350 . S
C233 C236 1.463 . S
C233 C238 1.350 . S
C233 N241 1.427 . S
C234 H225 0.930 . S
C234 C232 1.378 . S
C234 C235 1.367 . S
C235 C234 1.367 . S
C235 C237 1.433 . S
C236 C232 1.350 . S
C236 C233 1.463 . S
C236 N240 1.427 . S
C237 H227 0.929 . S
C237 C235 1.433 . S
C237 N240 1.384 . S
C238 H229 0.929 . S
C238 C230 1.378 . S
C238 C233 1.350 . S
C239 H226 0.929 . S
C239 C231 1.433 . S
C239 N241 1.384 . S
N240 C236 1.427 . S
N240 C237 1.384 . S
N241 C233 1.427 . S
N241 C239 1.384 . S
H242 C248 0.930 . S
H243 C252 0.930 . S
H244 C257 0.929 . S
H245 C255 0.929 . S
H246 C250 0.929 . S
H247 C256 0.929 . S
C248 H242 0.930 . S
C248 C249 1.367 . S
C248 C256 1.378 . S
C249 C248 1.367 . S
C249 C257 1.433 . S
C250 H246 0.929 . S
C250 C252 1.378 . S
C250 C254 1.350 . S
C251 C254 1.463 . S
C251 C256 1.350 . S
C251 N259 1.427 . S
C252 H243 0.930 . S
C252 C250 1.378 . S
C252 C253 1.367 . S
C253 C252 1.367 . S
C253 C255 1.433 . S
C254 C250 1.350 . S
C254 C251 1.463 . S
C254 N258 1.427 . S
C255 H245 0.929 . S
C255 C253 1.433 . S
C255 N258 1.384 . S
C256 H247 0.929 . S
C256 C248 1.378 . S
C256 C251 1.350 . S
C257 H244 0.929 . S
C257 C249 1.433 . S
C257 N259 1.384 . S
N258 C254 1.427 . S
N258 C255 1.384 . S
N259 C251 1.427 . S
N259 C257 1.384 . S
H260 C266 0.930 . S
H261 C270 0.930 . S
H262 C275 0.929 . S
H263 C273 0.929 . S
H264 C268 0.929 . S
H265 C274 0.929 . S
C266 H260 0.930 . S
C266 C267 1.367 . S
C266 C274 1.378 . S
C267 C266 1.367 . S
C267 C275 1.433 . S
C268 H264 0.929 . S
C268 C270 1.378 . S
C268 C272 1.350 . S
C269 C272 1.463 . S
C269 C274 1.350 . S
C269 N277 1.427 . S
C270 H261 0.930 . S
C270 C268 1.378 . S
C270 C271 1.367 . S
C271 C270 1.367 . S
C271 C273 1.433 . S
C272 C268 1.350 . S
C272 C269 1.463 . S
C272 N276 1.427 . S
C273 H263 0.929 . S
C273 C271 1.433 . S
C273 N276 1.384 . S
C274 H265 0.929 . S
C274 C266 1.378 . S
C274 C269 1.350 . S
C275 H262 0.929 . S
C275 C267 1.433 . S
C275 N277 1.384 . S
N276 C272 1.427 . S
N276 C273 1.384 . S
N277 C269 1.427 . S
N277 C275 1.384 . S
H278 C284 0.930 . S
H279 C288 0.930 1_554 S
H280 C293 0.929 . S
H281 C291 0.929 . S
H282 C286 0.929 . S
H283 C292 0.929 . S
C284 H278 0.930 . S
C284 C285 1.367 . S
C284 C292 1.378 . S
C285 C284 1.367 . S
C285 C293 1.433 . S
C286 H282 0.929 . S
C286 C288 1.378 . S
C286 C290 1.350 . S
C287 C290 1.463 . S
C287 C292 1.350 . S
C287 N295 1.427 . S
C288 H279 0.930 1_556 S
C288 C286 1.378 . S
C288 C289 1.367 . S
C289 C288 1.367 . S
C289 C291 1.433 . S
C290 C286 1.350 . S
C290 C287 1.463 . S
C290 N294 1.427 . S
C291 H281 0.929 . S
C291 C289 1.433 . S
C291 N294 1.384 . S
C292 H283 0.929 . S
C292 C284 1.378 . S
C292 C287 1.350 . S
C293 H280 0.929 . S
C293 C285 1.433 . S
C293 N295 1.384 . S
N294 C290 1.427 . S
N294 C291 1.384 . S
N295 C287 1.427 . S
N295 C293 1.384 . S
H296 C302 0.930 . S
H297 C306 0.930 . S
H298 C311 0.929 . S
H299 C309 0.929 . S
H300 C304 0.929 . S
H301 C310 0.929 . S
C302 H296 0.930 . S
C302 C303 1.367 . S
C302 C310 1.378 . S
C303 C302 1.367 . S
C303 C311 1.433 . S
C304 H300 0.929 . S
C304 C306 1.378 . S
C304 C308 1.350 . S
C305 C308 1.463 . S
C305 C310 1.350 . S
C305 N313 1.427 . S
C306 H297 0.930 . S
C306 C304 1.378 . S
C306 C307 1.367 . S
C307 C306 1.367 . S
C307 C309 1.433 . S
C308 C304 1.350 . S
C308 C305 1.463 . S
C308 N312 1.427 . S
C309 H299 0.929 . S
C309 C307 1.433 . S
C309 N312 1.384 . S
C310 H301 0.929 . S
C310 C302 1.378 . S
C310 C305 1.350 . S
C311 H298 0.929 . S
C311 C303 1.433 . S
C311 N313 1.384 . S
N312 C308 1.427 . S
N312 C309 1.384 . S
N313 C305 1.427 . S
N313 C311 1.384 . S
H314 C320 0.930 . S
H315 C324 0.930 . S
H316 C329 0.929 . S
H317 C327 0.929 . S
H318 C322 0.929 . S
H319 C328 0.929 . S
C320 H314 0.930 . S
C320 C321 1.367 . S
C320 C328 1.378 . S
C321 C320 1.367 . S
C321 C329 1.433 . S
C322 H318 0.929 . S
C322 C324 1.378 . S
C322 C326 1.350 . S
C323 C326 1.463 . S
C323 C328 1.350 . S
C323 N331 1.427 . S
C324 H315 0.930 . S
C324 C322 1.378 . S
C324 C325 1.367 . S
C325 C324 1.367 . S
C325 C327 1.433 . S
C326 C322 1.350 . S
C326 C323 1.463 . S
C326 N330 1.427 . S
C327 H317 0.929 . S
C327 C325 1.433 . S
C327 N330 1.384 . S
C328 H319 0.929 . S
C328 C320 1.378 . S
C328 C323 1.350 . S
C329 H316 0.929 . S
C329 C321 1.433 . S
C329 N331 1.384 . S
N330 C326 1.427 . S
N330 C327 1.384 . S
N331 C323 1.427 . S
N331 C329 1.384 . S
H332 C338 0.930 . S
H333 C342 0.930 . S
H334 C347 0.929 . S
H335 C345 0.929 . S
H336 C340 0.929 . S
H337 C346 0.929 . S
C338 H332 0.930 . S
C338 C339 1.367 . S
C338 C346 1.378 . S
C339 C338 1.367 . S
C339 C347 1.433 . S
C340 H336 0.929 . S
C340 C342 1.378 . S
C340 C344 1.350 . S
C341 C344 1.463 . S
C341 C346 1.350 . S
C341 N349 1.427 . S
C342 H333 0.930 . S
C342 C340 1.378 . S
C342 C343 1.367 . S
C343 C342 1.367 . S
C343 C345 1.433 . S
C344 C340 1.350 . S
C344 C341 1.463 . S
C344 N348 1.427 . S
C345 H335 0.929 . S
C345 C343 1.433 . S
C345 N348 1.384 . S
C346 H337 0.929 . S
C346 C338 1.378 . S
C346 C341 1.350 . S
C347 H334 0.929 . S
C347 C339 1.433 . S
C347 N349 1.384 . S
N348 C344 1.427 . S
N348 C345 1.384 . S
N349 C341 1.427 . S
N349 C347 1.384 . S
H350 C356 0.930 . S
H351 C360 0.930 . S
H352 C365 0.929 . S
H353 C363 0.929 . S
H354 C358 0.929 . S
H355 C364 0.929 . S
C356 H350 0.930 . S
C356 C357 1.367 . S
C356 C364 1.378 . S
C357 C356 1.367 . S
C357 C365 1.433 . S
C358 H354 0.929 . S
C358 C360 1.378 . S
C358 C362 1.350 . S
C359 C362 1.463 . S
C359 C364 1.350 . S
C359 N367 1.427 . S
C360 H351 0.930 . S
C360 C358 1.378 . S
C360 C361 1.367 . S
C361 C360 1.367 . S
C361 C363 1.433 . S
C362 C358 1.350 . S
C362 C359 1.463 . S
C362 N366 1.427 . S
C363 H353 0.929 . S
C363 C361 1.433 . S
C363 N366 1.384 . S
C364 H355 0.929 . S
C364 C356 1.378 . S
C364 C359 1.350 . S
C365 H352 0.929 . S
C365 C357 1.433 . S
C365 N367 1.384 . S
N366 C362 1.427 . S
N366 C363 1.384 . S
N367 C359 1.427 . S
N367 C365 1.384 . S
H368 C374 0.930 . S
H369 C378 0.930 . S
H370 C383 0.929 . S
H371 C381 0.929 . S
H372 C376 0.929 . S
H373 C382 0.929 . S
C374 H368 0.930 . S
C374 C375 1.367 . S
C374 C382 1.378 . S
C375 C374 1.367 . S
C375 C383 1.433 . S
C376 H372 0.929 . S
C376 C378 1.378 . S
C376 C380 1.350 . S
C377 C380 1.463 . S
C377 C382 1.350 . S
C377 N385 1.427 . S
C378 H369 0.930 . S
C378 C376 1.378 . S
C378 C379 1.367 . S
C379 C378 1.367 . S
C379 C381 1.433 . S
C380 C376 1.350 . S
C380 C377 1.463 . S
C380 N384 1.427 . S
C381 H371 0.929 . S
C381 C379 1.433 . S
C381 N384 1.384 . S
C382 H373 0.929 . S
C382 C374 1.378 . S
C382 C377 1.350 . S
C383 H370 0.929 . S
C383 C375 1.433 . S
C383 N385 1.384 . S
N384 C380 1.427 . S
N384 C381 1.384 . S
N385 C377 1.427 . S
N385 C383 1.384 . S
H386 C392 0.930 . S
H387 C396 0.930 . S
H388 C401 0.929 . S
H389 C399 0.929 . S
H390 C394 0.929 . S
H391 C400 0.929 . S
C392 H386 0.930 . S
C392 C393 1.367 . S
C392 C400 1.378 . S
C393 C392 1.367 . S
C393 C401 1.433 . S
C394 H390 0.929 . S
C394 C396 1.378 . S
C394 C398 1.350 . S
C395 C398 1.463 . S
C395 C400 1.350 . S
C395 N403 1.427 . S
C396 H387 0.930 . S
C396 C394 1.378 . S
C396 C397 1.367 . S
C397 C396 1.367 . S
C397 C399 1.433 . S
C398 C394 1.350 . S
C398 C395 1.463 . S
C398 N402 1.427 . S
C399 H389 0.929 . S
C399 C397 1.433 . S
C399 N402 1.384 . S
C400 H391 0.929 . S
C400 C392 1.378 . S
C400 C395 1.350 . S
C401 H388 0.929 . S
C401 C393 1.433 . S
C401 N403 1.384 . S
N402 C398 1.427 . S
N402 C399 1.384 . S
N403 C395 1.427 . S
N403 C401 1.384 . S
H404 C410 0.930 . S
H405 C414 0.930 . S
H406 C419 0.929 . S
H407 C417 0.929 . S
H408 C412 0.929 . S
H409 C418 0.929 . S
C410 H404 0.930 . S
C410 C411 1.367 . S
C410 C418 1.378 . S
C411 C410 1.367 . S
C411 C419 1.433 . S
C412 H408 0.929 . S
C412 C414 1.378 . S
C412 C416 1.350 . S
C413 C416 1.463 . S
C413 C418 1.350 . S
C413 N421 1.427 . S
C414 H405 0.930 . S
C414 C412 1.378 . S
C414 C415 1.367 . S
C415 C414 1.367 . S
C415 C417 1.433 . S
C416 C412 1.350 . S
C416 C413 1.463 . S
C416 N420 1.427 . S
C417 H407 0.929 . S
C417 C415 1.433 . S
C417 N420 1.384 . S
C418 H409 0.929 . S
C418 C410 1.378 . S
C418 C413 1.350 . S
C419 H406 0.929 . S
C419 C411 1.433 . S
C419 N421 1.384 . S
N420 C416 1.427 . S
N420 C417 1.384 . S
N421 C413 1.427 . S
N421 C419 1.384 . S
H422 C428 0.930 . S
H423 C432 0.930 . S
H424 C437 0.929 . S
H425 C435 0.929 . S
H426 C430 0.929 . S
H427 C436 0.929 . S
C428 H422 0.930 . S
C428 C429 1.367 . S
C428 C436 1.378 . S
C429 C428 1.367 . S
C429 C437 1.433 . S
C430 H426 0.929 . S
C430 C432 1.378 . S
C430 C434 1.350 . S
C431 C434 1.463 . S
C431 C436 1.350 . S
C431 N439 1.427 . S
C432 H423 0.930 . S
C432 C430 1.378 . S
C432 C433 1.367 . S
C433 C432 1.367 . S
C433 C435 1.433 . S
C434 C430 1.350 . S
C434 C431 1.463 . S
C434 N438 1.427 . S
C435 H425 0.929 . S
C435 C433 1.433 . S
C435 N438 1.384 . S
C436 H427 0.929 . S
C436 C428 1.378 . S
C436 C431 1.350 . S
C437 H424 0.929 . S
C437 C429 1.433 . S
C437 N439 1.384 . S
N438 C434 1.427 . S
N438 C435 1.384 . S
N439 C431 1.427 . S
N439 C437 1.384 . S
H440 C446 0.930 . S
H441 C450 0.930 . S
H442 C455 0.929 . S
H443 C453 0.929 . S
H444 C448 0.929 . S
H445 C454 0.929 . S
C446 H440 0.930 . S
C446 C447 1.367 . S
C446 C454 1.378 . S
C447 C446 1.367 . S
C447 C455 1.433 . S
C448 H444 0.929 . S
C448 C450 1.378 . S
C448 C452 1.350 . S
C449 C452 1.463 . S
C449 C454 1.350 . S
C449 N457 1.427 . S
C450 H441 0.930 . S
C450 C448 1.378 . S
C450 C451 1.367 . S
C451 C450 1.367 . S
C451 C453 1.433 . S
C452 C448 1.350 . S
C452 C449 1.463 . S
C452 N456 1.427 . S
C453 H443 0.929 . S
C453 C451 1.433 . S
C453 N456 1.384 . S
C454 H445 0.929 . S
C454 C446 1.378 . S
C454 C449 1.350 . S
C455 H442 0.929 . S
C455 C447 1.433 . S
C455 N457 1.384 . S
N456 C452 1.427 . S
N456 C453 1.384 . S
N457 C449 1.427 . S
N457 C455 1.384 . S
H458 C464 0.930 . S
H459 C468 0.930 . S
H460 C473 0.929 . S
H461 C471 0.929 . S
H462 C466 0.929 . S
H463 C472 0.929 . S
C464 H458 0.930 . S
C464 C465 1.367 . S
C464 C472 1.378 . S
C465 C464 1.367 . S
C465 C473 1.433 . S
C466 H462 0.929 . S
C466 C468 1.378 . S
C466 C470 1.350 . S
C467 C470 1.463 . S
C467 C472 1.350 . S
C467 N475 1.427 . S
C468 H459 0.930 . S
C468 C466 1.378 . S
C468 C469 1.367 . S
C469 C468 1.367 . S
C469 C471 1.433 . S
C470 C466 1.350 . S
C470 C467 1.463 . S
C470 N474 1.427 . S
C471 H461 0.929 . S
C471 C469 1.433 . S
C471 N474 1.384 . S
C472 H463 0.929 . S
C472 C464 1.378 . S
C472 C467 1.350 . S
C473 H460 0.929 . S
C473 C465 1.433 . S
C473 N475 1.384 . S
N474 C470 1.427 . S
N474 C471 1.384 . S
N475 C467 1.427 . S
N475 C473 1.384 . S
H476 C482 0.930 . S
H477 C486 0.930 . S
H478 C491 0.929 . S
H479 C489 0.929 . S
H480 C484 0.929 . S
H481 C490 0.929 . S
C482 H476 0.930 . S
C482 C483 1.367 . S
C482 C490 1.378 . S
C483 C482 1.367 . S
C483 C491 1.433 . S
C484 H480 0.929 . S
C484 C486 1.378 . S
C484 C488 1.350 . S
C485 C488 1.463 . S
C485 C490 1.350 . S
C485 N493 1.427 . S
C486 H477 0.930 . S
C486 C484 1.378 . S
C486 C487 1.367 . S
C487 C486 1.367 . S
C487 C489 1.433 . S
C488 C484 1.350 . S
C488 C485 1.463 . S
C488 N492 1.427 . S
C489 H479 0.929 . S
C489 C487 1.433 . S
C489 N492 1.384 . S
C490 H481 0.929 . S
C490 C482 1.378 . S
C490 C485 1.350 . S
C491 H478 0.929 . S
C491 C483 1.433 . S
C491 N493 1.384 . S
N492 C488 1.427 . S
N492 C489 1.384 . S
N493 C485 1.427 . S
N493 C491 1.384 . S
H494 C500 0.930 . S
H495 C504 0.930 . S
H496 C509 0.929 . S
H497 C507 0.929 . S
H498 C502 0.929 . S
H499 C508 0.929 . S
C500 H494 0.930 . S
C500 C501 1.367 . S
C500 C508 1.378 . S
C501 C500 1.367 . S
C501 C509 1.433 . S
C502 H498 0.929 . S
C502 C504 1.378 . S
C502 C506 1.350 . S
C503 C506 1.463 . S
C503 C508 1.350 . S
C503 N511 1.427 . S
C504 H495 0.930 . S
C504 C502 1.378 . S
C504 C505 1.367 . S
C505 C504 1.367 . S
C505 C507 1.433 . S
C506 C502 1.350 . S
C506 C503 1.463 . S
C506 N510 1.427 . S
C507 H497 0.929 . S
C507 C505 1.433 . S
C507 N510 1.384 . S
C508 H499 0.929 . S
C508 C500 1.378 . S
C508 C503 1.350 . S
C509 H496 0.929 . S
C509 C501 1.433 . S
C509 N511 1.384 . S
N510 C506 1.427 . S
N510 C507 1.384 . S
N511 C503 1.427 . S
N511 C509 1.384 . S
H512 C518 0.930 . S
H513 C522 0.930 . S
H514 C527 0.929 . S
H515 C525 0.929 . S
H516 C520 0.929 . S
H517 C526 0.929 . S
C518 H512 0.930 . S
C518 C519 1.367 . S
C518 C526 1.378 . S
C519 C518 1.367 . S
C519 C527 1.433 . S
C520 H516 0.929 . S
C520 C522 1.378 . S
C520 C524 1.350 . S
C521 C524 1.463 . S
C521 C526 1.350 . S
C521 N529 1.427 . S
C522 H513 0.930 . S
C522 C520 1.378 . S
C522 C523 1.367 . S
C523 C522 1.367 . S
C523 C525 1.433 . S
C524 C520 1.350 . S
C524 C521 1.463 . S
C524 N528 1.427 . S
C525 H515 0.929 . S
C525 C523 1.433 . S
C525 N528 1.384 . S
C526 H517 0.929 . S
C526 C518 1.378 . S
C526 C521 1.350 . S
C527 H514 0.929 . S
C527 C519 1.433 . S
C527 N529 1.384 . S
N528 C524 1.427 . S
N528 C525 1.384 . S
N529 C521 1.427 . S
N529 C527 1.384 . S
H530 C536 0.930 . S
H531 C540 0.930 . S
H532 C545 0.929 . S
H533 C543 0.929 . S
H534 C538 0.929 . S
H535 C544 0.929 . S
C536 H530 0.930 . S
C536 C537 1.367 . S
C536 C544 1.378 . S
C537 C536 1.367 . S
C537 C545 1.433 . S
C538 H534 0.929 . S
C538 C540 1.378 . S
C538 C542 1.350 . S
C539 C542 1.463 . S
C539 C544 1.350 . S
C539 N547 1.427 . S
C540 H531 0.930 . S
C540 C538 1.378 . S
C540 C541 1.367 . S
C541 C540 1.367 . S
C541 C543 1.433 . S
C542 C538 1.350 . S
C542 C539 1.463 . S
C542 N546 1.427 . S
C543 H533 0.929 . S
C543 C541 1.433 . S
C543 N546 1.384 . S
C544 H535 0.929 . S
C544 C536 1.378 . S
C544 C539 1.350 . S
C545 H532 0.929 . S
C545 C537 1.433 . S
C545 N547 1.384 . S
N546 C542 1.427 . S
N546 C543 1.384 . S
N547 C539 1.427 . S
N547 C545 1.384 . S
H548 C554 0.930 . S
H549 C558 0.930 . S
H550 C563 0.929 . S
H551 C561 0.929 . S
H552 C556 0.929 . S
H553 C562 0.929 . S
C554 H548 0.930 . S
C554 C555 1.367 . S
C554 C562 1.378 . S
C555 C554 1.367 . S
C555 C563 1.433 . S
C556 H552 0.929 . S
C556 C558 1.378 . S
C556 C560 1.350 . S
C557 C560 1.463 . S
C557 C562 1.350 . S
C557 N565 1.427 . S
C558 H549 0.930 . S
C558 C556 1.378 . S
C558 C559 1.367 . S
C559 C558 1.367 . S
C559 C561 1.433 . S
C560 C556 1.350 . S
C560 C557 1.463 . S
C560 N564 1.427 . S
C561 H551 0.929 . S
C561 C559 1.433 . S
C561 N564 1.384 . S
C562 H553 0.929 . S
C562 C554 1.378 . S
C562 C557 1.350 . S
C563 H550 0.929 . S
C563 C555 1.433 . S
C563 N565 1.384 . S
N564 C560 1.427 . S
N564 C561 1.384 . S
N565 C557 1.427 . S
N565 C563 1.384 . S
H566 C572 0.930 . S
H567 C576 0.930 . S
H568 C581 0.929 . S
H569 C579 0.929 . S
H570 C574 0.929 . S
H571 C580 0.929 . S
C572 H566 0.930 . S
C572 C573 1.367 . S
C572 C580 1.378 . S
C573 C572 1.367 . S
C573 C581 1.433 . S
C574 H570 0.929 . S
C574 C576 1.378 . S
C574 C578 1.350 . S
C575 C578 1.463 . S
C575 C580 1.350 . S
C575 N583 1.427 . S
C576 H567 0.930 . S
C576 C574 1.378 . S
C576 C577 1.367 . S
C577 C576 1.367 . S
C577 C579 1.433 . S
C578 C574 1.350 . S
C578 C575 1.463 . S
C578 N582 1.427 . S
C579 H569 0.929 . S
C579 C577 1.433 . S
C579 N582 1.384 . S
C580 H571 0.929 . S
C580 C572 1.378 . S
C580 C575 1.350 . S
C581 H568 0.929 . S
C581 C573 1.433 . S
C581 N583 1.384 . S
N582 C578 1.427 . S
N582 C579 1.384 . S
N583 C575 1.427 . S
N583 C581 1.384 . S
H584 C590 0.930 . S
H585 C594 0.930 . S
H586 C599 0.929 . S
H587 C597 0.929 . S
H588 C592 0.929 . S
H589 C598 0.929 . S
C590 H584 0.930 . S
C590 C591 1.367 . S
C590 C598 1.378 . S
C591 C590 1.367 . S
C591 C599 1.433 . S
C592 H588 0.929 . S
C592 C594 1.378 . S
C592 C596 1.350 . S
C593 C596 1.463 . S
C593 C598 1.350 . S
C593 N601 1.427 . S
C594 H585 0.930 . S
C594 C592 1.378 . S
C594 C595 1.367 . S
C595 C594 1.367 . S
C595 C597 1.433 . S
C596 C592 1.350 . S
C596 C593 1.463 . S
C596 N600 1.427 . S
C597 H587 0.929 . S
C597 C595 1.433 . S
C597 N600 1.384 . S
C598 H589 0.929 . S
C598 C590 1.378 . S
C598 C593 1.350 . S
C599 H586 0.929 . S
C599 C591 1.433 . S
C599 N601 1.384 . S
N600 C596 1.427 . S
N600 C597 1.384 . S
N601 C593 1.427 . S
N601 C599 1.384 . S
H602 C608 0.930 . S
H603 C612 0.930 . S
H604 C617 0.929 . S
H605 C615 0.929 . S
H606 C610 0.929 . S
H607 C616 0.929 . S
C608 H602 0.930 . S
C608 C609 1.367 . S
C608 C616 1.378 . S
C609 C608 1.367 . S
C609 C617 1.433 . S
C610 H606 0.929 . S
C610 C612 1.378 . S
C610 C614 1.350 . S
C611 C614 1.463 . S
C611 C616 1.350 . S
C611 N619 1.427 . S
C612 H603 0.930 . S
C612 C610 1.378 . S
C612 C613 1.367 . S
C613 C612 1.367 . S
C613 C615 1.433 . S
C614 C610 1.350 . S
C614 C611 1.463 . S
C614 N618 1.427 . S
C615 H605 0.929 . S
C615 C613 1.433 . S
C615 N618 1.384 . S
C616 H607 0.929 . S
C616 C608 1.378 . S
C616 C611 1.350 . S
C617 H604 0.929 . S
C617 C609 1.433 . S
C617 N619 1.384 . S
N618 C614 1.427 . S
N618 C615 1.384 . S
N619 C611 1.427 . S
N619 C617 1.384 . S
C199 C116 1.431 . S
C195 N2 1.438 . S
C217 C119 1.459 . S
C213 N15 1.461 . S
C235 C117 1.680 1_655 S
C231 N27 1.676 . S
C253 C118 1.482 . S
C249 N44 1.486 . S
C271 C133 1.666 . S
C267 N1 1.682 . S
C289 C147 1.681 1_556 S
C285 N18 1.677 . S
C303 N28 1.694 . S
C307 C173 1.668 . S
C325 C187 1.506 . S
C321 N41 1.509 . S
C343 C132 1.627 . S
C339 N14 1.632 . S
C357 N31 1.793 . S
C361 C146 1.787 . S
C379 C172 1.737 . S
C375 N40 1.756 . S
C397 C186 1.585 . S
C393 N5 1.599 . S
C411 N53 1.669 . S
C415 C131 1.649 . S
C433 C104 1.648 1_655 S
C429 N70 1.645 . S
C447 N80 1.515 . S
C451 C130 1.509 . S
C465 N92 1.763 . S
C469 C105 1.767 . S
C487 C160 1.715 . S
C483 N57 1.740 . S
C505 C174 1.434 . S
C501 N67 1.438 . S
C523 C144 1.679 . S
C519 N83 1.705 . S
C537 N96 1.712 . S
C541 C158 1.707 . S
C559 C161 1.641 . S
C555 N66 1.665 . S
C577 C175 1.426 . S
C573 N79 1.433 . S
C595 C145 1.642 . S
C591 N93 1.673 . S
C609 N54 1.485 . S
C613 C159 1.473 1_556 S
