# Generated by pormake.
# Topology anh, (6,3)-cn, num edge types: 1
# Building blocks:
#     Node 0, Type 0, BuildingBlock: INOVEN_clean_sbu_0, # of connection points: 6
#     Node 1, Type 0, BuildingBlock: INOVEN_clean_sbu_0, # of connection points: 6
#     Node 2, Type 0, BuildingBlock: INOVEN_clean_sbu_0, # of connection points: 6
#     Node 3, Type 1, BuildingBlock: VETTIZ_charged_linker_0, # of connection points: 3
#     Node 4, Type 1, BuildingBlock: VETTIZ_charged_linker_0, # of connection points: 3
#     Node 5, Type 1, BuildingBlock: VETTIZ_charged_linker_0, # of connection points: 3
#     Node 6, Type 1, BuildingBlock: VETTIZ_charged_linker_0, # of connection points: 3
#     Node 7, Type 1, BuildingBlock: VETTIZ_charged_linker_0, # of connection points: 3
#     Node 8, Type 1, BuildingBlock: VETTIZ_charged_linker_0, # of connection points: 3
#     Edge 9, Type (0, 1), BuildingBlock: EZIPEK_clean_linker_0, # of connection points: 2
#     Edge 10, Type (0, 1), BuildingBlock: EZIPEK_clean_linker_0, # of connection points: 2
#     Edge 11, Type (0, 1), BuildingBlock: EZIPEK_clean_linker_0, # of connection points: 2
#     Edge 12, Type (0, 1), BuildingBlock: EZIPEK_clean_linker_0, # of connection points: 2
#     Edge 13, Type (0, 1), BuildingBlock: EZIPEK_clean_linker_0, # of connection points: 2
#     Edge 14, Type (0, 1), BuildingBlock: EZIPEK_clean_linker_0, # of connection points: 2
#     Edge 15, Type (0, 1), BuildingBlock: EZIPEK_clean_linker_0, # of connection points: 2
#     Edge 16, Type (0, 1), BuildingBlock: EZIPEK_clean_linker_0, # of connection points: 2
#     Edge 17, Type (0, 1), BuildingBlock: EZIPEK_clean_linker_0, # of connection points: 2
#     Edge 18, Type (0, 1), BuildingBlock: EZIPEK_clean_linker_0, # of connection points: 2
#     Edge 19, Type (0, 1), BuildingBlock: EZIPEK_clean_linker_0, # of connection points: 2
#     Edge 20, Type (0, 1), BuildingBlock: EZIPEK_clean_linker_0, # of connection points: 2
#     Edge 21, Type (0, 1), BuildingBlock: EZIPEK_clean_linker_0, # of connection points: 2
#     Edge 22, Type (0, 1), BuildingBlock: EZIPEK_clean_linker_0, # of connection points: 2
#     Edge 23, Type (0, 1), BuildingBlock: EZIPEK_clean_linker_0, # of connection points: 2
#     Edge 24, Type (0, 1), BuildingBlock: EZIPEK_clean_linker_0, # of connection points: 2
#     Edge 25, Type (0, 1), BuildingBlock: EZIPEK_clean_linker_0, # of connection points: 2
#     Edge 26, Type (0, 1), BuildingBlock: EZIPEK_clean_linker_0, # of connection points: 2
# Relax obj value: 0.213
# Max RMSD: 0.231
# Mean RMSD: 0.169
data_MOF--net-anh--node1-INOVEN_clean_sbu_0--node2-VETTIZ_charged_linker_0--edge1-EZIPEK_clean_linker_0
_symmetry_space_group_name_H-M    P1
_symmetry_Int_Tables_number       1
_symmetry_cell_setting            triclinic
loop_
_symmetry_equiv_pos_as_xyz
'x, y, z'
_cell_length_a     30.153552
_cell_length_b     35.35074
_cell_length_c     52.508
_cell_angle_alpha  92.661738
_cell_angle_beta   89.44813
_cell_angle_gamma 130.88977
loop_
_atom_site_label
_atom_site_type_symbol
_atom_site_fract_x
_atom_site_fract_y
_atom_site_fract_z
_atom_type_partial_charge
Gd0 Gd 0.12494 0.5111 0.14063 0.0
Gd1 Gd 1.04919 0.53352 0.14996 0.0
C2 C 0.18764 0.62951 0.14817 0.0
C3 C 0.20761 0.51134 0.12665 0.0
C4 C 0.2681 0.54127 0.13639 0.0
C5 C 0.29012 0.57836 0.15611 0.0
C6 C 0.30197 0.52936 0.12795 0.0
C7 C 0.3767 0.5879 0.16041 0.0
C8 C 0.35609 0.55264 0.13988 0.0
C9 C 0.34421 0.60162 0.1681 0.0
C10 C 0.09718 0.50628 0.1903 0.0
C11 C 0.98823 0.41668 0.14307 0.0
C12 C 0.98282 0.54877 0.16848 0.0
C13 C 0.91836 0.51098 0.16874 0.0
C14 C 0.88501 0.5215 0.15846 0.0
C15 C 0.89051 0.46124 0.17421 0.0
C16 C 0.80011 0.43239 0.15485 0.0
C17 C 0.83191 0.42217 0.1671 0.0
C18 C 0.82605 0.48237 0.15164 0.0
C19 C 1.04655 0.50715 0.10012 0.0
O20 O 0.19423 0.59597 0.14881 0.0
O21 O 0.13415 0.61427 0.14681 0.0
O22 O 0.16755 0.48039 0.14263 0.0
O23 O 0.19538 0.53547 0.11502 0.0
O24 O 0.1009 0.47557 0.17857 0.0
O25 O 0.1109 0.53933 0.17551 0.0
O26 O 0.98693 0.44931 0.15556 0.0
O27 O 1.03616 0.43365 0.13054 0.0
O28 O 1.00487 0.56257 0.14576 0.0
O29 O 1.01038 0.54016 0.18278 0.0
O30 O 1.00118 0.49392 0.11232 0.0
O31 O 0.0913 0.53481 0.1147 0.0
H32 H 0.26455 0.58783 0.16306 0.0
H33 H 0.28557 0.50068 0.11289 0.0
H34 H 0.38082 0.54157 0.13385 0.0
H35 H 0.35939 0.62845 0.18402 0.0
H36 H 0.90557 0.55937 0.15391 0.0
H37 H 0.91487 0.45181 0.18218 0.0
H38 H 0.81267 0.38388 0.16961 0.0
H39 H 0.80188 0.49073 0.14206 0.0
Gd40 Gd 0.65394 0.05122 0.47774 0.0
Gd41 Gd 0.57719 0.07463 0.46898 0.0
C42 C 0.51094 0.95684 0.46972 0.0
C43 C 0.70062 0.01808 0.49665 0.0
C44 C 0.68669 0.96974 0.49696 0.0
C45 C 0.67332 0.94058 0.47439 0.0
C46 C 0.68597 0.95214 0.52047 0.0
C47 C 0.65967 0.87745 0.49902 0.0
C48 C 0.67239 0.90624 0.5215 0.0
C49 C 0.66026 0.89475 0.47542 0.0
C50 C 0.64012 0.0591 0.42817 0.0
C51 C 0.72099 0.16778 0.47433 0.0
C52 C 0.52943 0.10889 0.45275 0.0
C53 C 0.53951 0.1551 0.4585 0.0
C54 C 0.55382 0.17655 0.4835 0.0
C55 C 0.53543 0.17839 0.43888 0.0
C56 C 0.55673 0.24245 0.46943 0.0
C57 C 0.54434 0.22209 0.44429 0.0
C58 C 0.56191 0.21972 0.48894 0.0
C59 C 0.59411 0.06964 0.51874 0.0
O60 O 0.56302 0.97214 0.47648 0.0
O61 O 0.50639 0.99015 0.46355 0.0
O62 O 0.71595 0.03972 0.47486 0.0
O63 O 0.66535 0.02105 0.5094 0.0
O64 O 0.68803 0.07247 0.43813 0.0
O65 O 0.6 0.03799 0.44431 0.0
O66 O 0.66936 0.15201 0.46629 0.0
O67 O 0.72466 0.1356 0.48347 0.0
O68 O 0.50831 0.07804 0.47119 0.0
O69 O 0.57119 0.11416 0.44073 0.0
O70 O 0.54602 0.05656 0.5094 0.0
O71 O 0.63223 0.08892 0.50186 0.0
H72 H 0.67306 0.95315 0.45601 0.0
H73 H 0.69593 0.97397 0.53806 0.0
H74 H 0.67228 0.89331 0.53983 0.0
H75 H 0.65065 0.87282 0.45793 0.0
H76 H 0.55826 0.15973 0.49887 0.0
H77 H 0.52506 0.16263 0.41946 0.0
H78 H 0.54056 0.23951 0.42903 0.0
H79 H 0.57195 0.23534 0.50839 0.0
Gd80 Gd 0.60193 0.57008 0.83323 0.0
Gd81 Gd 0.52075 0.46065 0.83005 0.0
C82 C 0.45647 0.5121 0.83226 0.0
C83 C 0.67095 0.66336 0.82263 0.0
C84 C 0.66415 0.70107 0.82003 0.0
C85 C 0.70171 0.74776 0.83365 0.0
C86 C 0.6221 0.69183 0.80278 0.0
C87 C 0.65804 0.77611 0.81149 0.0
C88 C 0.61937 0.72899 0.79848 0.0
C89 C 0.69837 0.78484 0.82958 0.0
C90 C 0.5529 0.52872 0.87819 0.0
C91 C 0.66725 0.5195 0.83337 0.0
C92 C 0.46892 0.36683 0.83338 0.0
C93 C 0.48909 0.33823 0.83223 0.0
C94 C 0.52983 0.34837 0.81405 0.0
C95 C 0.46587 0.29907 0.84856 0.0
C96 C 0.52071 0.27868 0.82739 0.0
C97 C 0.48171 0.26959 0.84623 0.0
C98 C 0.5454 0.31885 0.81164 0.0
C99 C 0.54158 0.50159 0.78471 0.0
O100 O 0.51194 0.55374 0.82764 0.0
O101 O 0.45011 0.47114 0.83613 0.0
O102 O 0.66912 0.64916 0.84556 0.0
O103 O 0.64282 0.62614 0.80536 0.0
O104 O 0.56426 0.56869 0.87083 0.0
O105 O 0.57165 0.51474 0.86226 0.0
O106 O 0.61107 0.47642 0.82978 0.0
O107 O 0.67457 0.56165 0.83621 0.0
O108 O 0.47245 0.38657 0.81226 0.0
O109 O 0.48518 0.39706 0.85342 0.0
O110 O 0.49006 0.46284 0.79167 0.0
O111 O 0.57896 0.51645 0.8021 0.0
H112 H 0.73441 0.75589 0.84706 0.0
H113 H 0.592 0.6562 0.79207 0.0
H114 H 0.58767 0.72127 0.78458 0.0
H115 H 0.72836 0.82085 0.83996 0.0
H116 H 0.54857 0.37836 0.80122 0.0
H117 H 0.43455 0.29063 0.86274 0.0
H118 H 0.46231 0.23879 0.85859 0.0
H119 H 0.57568 0.32658 0.79705 0.0
C120 C 0.73422 0.16385 0.15383 0.0
C121 C 0.78318 0.21049 0.16628 0.0
C122 C 0.78684 0.21327 0.19301 0.0
C123 C 0.69648 0.1265 0.19505 0.0
C124 C 0.69104 0.12201 0.16875 0.0
C125 C 0.63518 0.0687 0.16009 0.0
H126 H 0.39364 0.83201 0.20063 0.0
C127 C 0.64618 0.0782 0.20571 0.0
C128 C 0.60887 0.04301 0.18552 0.0
H129 H 0.42843 0.87117 0.12218 0.0
H130 H 0.51776 0.95713 0.13564 0.0
H131 H 0.52254 0.88705 0.21935 0.0
H132 H 0.41456 0.92596 0.21898 0.0
H133 H 0.4574 0.95565 0.24709 0.0
H134 H 0.40821 0.88814 0.24284 0.0
H135 H 0.46154 0.86062 0.23984 0.0
H136 H 0.53444 0.91704 0.24923 0.0
C137 C 0.65251 0.04316 0.14371 0.0
C138 C 0.59377 0.07186 0.14552 0.0
C139 C 0.63976 0.06746 0.30238 0.0
C140 C 0.5981 0.02978 0.31865 0.0
C141 C 0.54619 0.98448 0.30804 0.0
C142 C 0.53657 0.97618 0.28157 0.0
C143 C 0.57883 0.01393 0.26538 0.0
C144 C 0.62876 0.05893 0.27592 0.0
C145 C 0.66705 0.09566 0.25595 0.0
C146 C 0.63263 0.06481 0.23153 0.0
C147 C 0.58161 0.01692 0.23722 0.0
C148 C 0.72713 0.10866 0.25762 0.0
C149 C 0.6699 0.141 0.2605 0.0
C150 C 0.42029 0.85861 0.18614 0.0
C151 C 0.40358 0.84396 0.16037 0.0
C152 C 0.44008 0.88086 0.14229 0.0
C153 C 0.49179 0.93074 0.15008 0.0
C154 C 0.50723 0.94451 0.17629 0.0
C155 C 0.47052 0.90793 0.19351 0.0
C156 C 0.48909 0.92713 0.22054 0.0
C157 C 0.54414 0.98081 0.21734 0.0
C158 C 0.55641 0.99258 0.19138 0.0
C159 C 0.50233 0.89642 0.23313 0.0
C160 C 0.43992 0.92388 0.23323 0.0
H161 H 0.7514 0.17815 0.22747 0.0
H162 H 0.72991 0.1602 0.13323 0.0
H163 H 0.58525 0.09344 0.15724 0.0
H164 H 0.55095 0.03431 0.14088 0.0
H165 H 0.61351 0.09094 0.12742 0.0
H166 H 0.68516 0.0442 0.15422 0.0
H167 H 0.67233 0.06257 0.1257 0.0
H168 H 0.61423 1.00345 0.13878 0.0
H169 H 0.67978 0.10289 0.31012 0.0
H170 H 0.51346 0.95517 0.32032 0.0
H171 H 0.49668 0.94037 0.27484 0.0
H172 H 0.72142 0.07552 0.26273 0.0
H173 H 0.7566 0.13909 0.27241 0.0
H174 H 0.74981 0.11941 0.23929 0.0
H175 H 0.63046 0.13014 0.27036 0.0
H176 H 0.67012 0.15624 0.24251 0.0
H177 H 0.70891 0.1715 0.27249 0.0
H178 H 0.82325 0.24791 0.20309 0.0
C179 C 0.74452 0.17226 0.20724 0.0
C180 C 0.61266 0.6663 0.51741 0.0
C181 C 0.61947 0.70563 0.53019 0.0
C182 C 0.61928 0.70848 0.55697 0.0
C183 C 0.60654 0.63358 0.55819 0.0
C184 C 0.6068 0.63094 0.53183 0.0
C185 C 0.60164 0.58772 0.52159 0.0
H186 H 0.578 0.38823 0.54462 0.0
C187 C 0.60025 0.59161 0.56746 0.0
C188 C 0.59768 0.56469 0.54615 0.0
H189 H 0.5863 0.4437 0.47169 0.0
H190 H 0.59331 0.5101 0.4927 0.0
H191 H 0.67714 0.4985 0.5749 0.0
H192 H 0.48883 0.39509 0.56759 0.0
H193 H 0.50607 0.4234 0.59841 0.0
H194 H 0.52613 0.38638 0.58967 0.0
H195 H 0.63027 0.43799 0.58823 0.0
H196 H 0.64877 0.49215 0.60539 0.0
C197 C 0.65829 0.60918 0.50713 0.0
C198 C 0.54437 0.55196 0.50509 0.0
C199 C 0.58732 0.56611 0.66255 0.0
C200 C 0.5775 0.52853 0.67659 0.0
C201 C 0.57254 0.48994 0.66385 0.0
C202 C 0.57683 0.48847 0.63732 0.0
C203 C 0.58581 0.52585 0.62337 0.0
C204 C 0.59065 0.56369 0.63598 0.0
C205 C 0.59786 0.59902 0.61791 0.0
C206 C 0.59639 0.57605 0.59242 0.0
C207 C 0.58993 0.53356 0.59577 0.0
C208 C 0.65836 0.65176 0.62378 0.0
C209 C 0.5446 0.59633 0.6207 0.0
C210 C 0.58196 0.41518 0.53335 0.0
C211 C 0.58232 0.41168 0.50667 0.0
C212 C 0.58645 0.44644 0.49233 0.0
C213 C 0.59037 0.48468 0.50457 0.0
C214 C 0.58973 0.48777 0.53138 0.0
C215 C 0.58544 0.45326 0.54528 0.0
C216 C 0.58337 0.46114 0.57348 0.0
C217 C 0.58823 0.50668 0.5743 0.0
C218 C 0.59205 0.52215 0.54962 0.0
C219 C 0.63738 0.47279 0.58639 0.0
C220 C 0.52333 0.41414 0.583 0.0
H221 H 0.61309 0.67685 0.59143 0.0
H222 H 0.61299 0.66379 0.49678 0.0
H223 H 0.50887 0.54986 0.51354 0.0
H224 H 0.52653 0.51291 0.50392 0.0
H225 H 0.55115 0.56514 0.48549 0.0
H226 H 0.69722 0.64516 0.51655 0.0
H227 H 0.65526 0.61661 0.48717 0.0
H228 H 0.66879 0.58456 0.50697 0.0
H229 H 0.59126 0.59611 0.67204 0.0
H230 H 0.56515 0.46082 0.67451 0.0
H231 H 0.57263 0.45812 0.62871 0.0
H232 H 0.69134 0.64904 0.62998 0.0
H233 H 0.65548 0.67246 0.63929 0.0
H234 H 0.67739 0.6747 0.60689 0.0
H235 H 0.50401 0.55764 0.62455 0.0
H236 H 0.53391 0.60528 0.60316 0.0
H237 H 0.55195 0.62163 0.63675 0.0
H238 H 0.62446 0.73875 0.56694 0.0
C239 C 0.61275 0.6726 0.57106 0.0
C240 C 0.20534 0.51466 0.82994 0.0
C241 C 0.24698 0.51417 0.84497 0.0
C242 C 0.23995 0.51573 0.8714 0.0
C243 C 0.15743 0.51607 0.86831 0.0
C244 C 0.1606 0.51569 0.84218 0.0
C245 C 0.11066 0.51618 0.83201 0.0
H246 H 0.87869 0.52038 0.88032 0.0
C247 C 0.10868 0.51619 0.87701 0.0
C248 C 0.07818 0.51656 0.8562 0.0
H249 H 0.90017 0.51705 0.79973 0.0
H250 H 0.98143 0.516 0.8073 0.0
H251 H 0.88328 0.43879 0.89029 0.0
H252 H 1.01017 0.59907 0.89478 0.0
H253 H 1.02643 0.58243 0.9217 0.0
H254 H 0.9548 0.56369 0.91804 0.0
H255 H 0.88569 0.47537 0.91595 0.0
H256 H 0.92482 0.45295 0.91773 0.0
C257 C 0.06624 0.4691 0.81472 0.0
C258 C 0.13937 0.56343 0.81726 0.0
C259 C 0.08409 0.51036 0.97338 0.0
C260 C 1.04752 0.51116 0.98965 0.0
C261 C 1.00732 0.51409 0.97914 0.0
C262 C 1.00326 0.51588 0.95273 0.0
C263 C 1.03995 0.51491 0.93628 0.0
C264 C 0.07966 0.51259 0.94693 0.0
C265 C 0.1166 0.51379 0.9272 0.0
C266 C 0.09166 0.5155 0.9025 0.0
C267 C 1.04664 0.5162 0.90787 0.0
C268 C 0.10534 0.46421 0.92854 0.0
C269 C 0.181 0.56303 0.93287 0.0
C270 C 0.89984 0.5197 0.86374 0.0
C271 C 0.8793 0.5192 0.83939 0.0
C272 C 0.91178 0.51759 0.81926 0.0
C273 C 0.96005 0.51708 0.82363 0.0
C274 C 0.97952 0.51782 0.8487 0.0
C275 C 0.94698 0.51889 0.86763 0.0
C276 C 0.96644 0.51833 0.89325 0.0
C277 C 1.01546 0.51719 0.88803 0.0
C278 C 1.02791 0.51711 0.86155 0.0
C279 C 0.91258 0.46926 0.90517 0.0
C280 C 0.99031 0.56804 0.90792 0.0
H281 H 0.19834 0.5168 0.9028 0.0
H282 H 0.20699 0.51367 0.80936 0.0
H283 H 0.17166 0.5975 0.82979 0.0
H284 H 0.10571 0.5648 0.8104 0.0
H285 H 0.16272 0.56407 0.80055 0.0
H286 H 1.04565 0.4349 0.82541 0.0
H287 H 0.0882 0.46799 0.79795 0.0
H288 H 1.03099 0.46844 0.80782 0.0
H289 H 0.11583 0.50858 0.98111 0.0
H290 H 0.97888 0.5149 0.99146 0.0
H291 H 0.97136 0.51799 0.94644 0.0
H292 H 0.06039 0.43318 0.93512 0.0
H293 H 0.13692 0.46875 0.94198 0.0
H294 H 0.10698 0.44984 0.9097 0.0
H295 H 0.18293 0.59261 0.94283 0.0
H296 H 0.20581 0.58052 0.91531 0.0
H297 H 0.20497 0.55656 0.9452 0.0
H298 H 0.26811 0.51595 0.88421 0.0
C299 C 0.19764 0.51644 0.88255 0.0
C300 C 0.97128 0.42143 0.46462 0.0
C301 C 0.92379 0.37425 0.45218 0.0
C302 C 0.92019 0.37088 0.42546 0.0
C303 C 1.0099 0.4576 0.4233 0.0
C304 C 1.01401 0.46309 0.44961 0.0
C305 C 0.06782 0.51723 0.45817 0.0
H306 H 0.31879 0.74807 0.41752 0.0
C307 C 0.06064 0.50531 0.41257 0.0
C308 C 0.09587 0.54161 0.43267 0.0
H309 H 0.26277 0.71918 0.49524 0.0
H310 H 0.17722 0.63158 0.48211 0.0
H311 H 0.28689 0.64477 0.40124 0.0
H312 H 0.19956 0.70297 0.39674 0.0
H313 H 0.17569 0.66385 0.36913 0.0
H314 H 0.25287 0.71744 0.37404 0.0
H315 H 0.30725 0.69173 0.37985 0.0
H316 H 0.25328 0.62588 0.37077 0.0
C317 C 0.10923 0.51706 0.47492 0.0
C318 C 1.04646 0.54166 0.47226 0.0
C319 C 0.08128 0.50726 0.31624 0.0
C320 C 0.12195 0.54507 0.29986 0.0
C321 C 0.16883 0.59334 0.31023 0.0
C322 C 0.17558 0.60368 0.33665 0.0
C323 C 0.13437 0.56558 0.35294 0.0
C324 C 0.08795 0.51857 0.34257 0.0
C325 C 1.04715 0.48341 0.36254 0.0
C326 C 0.07724 0.51682 0.38679 0.0
C327 C 0.12835 0.56455 0.38103 0.0
C328 C 1.04698 0.43934 0.36153 0.0
C329 C 0.98641 0.46811 0.35738 0.0
C330 C 0.28871 0.72315 0.43195 0.0
C331 C 0.29841 0.74105 0.4574 0.0
C332 C 0.25696 0.70668 0.47538 0.0
C333 C 0.20714 0.65602 0.46775 0.0
C334 C 0.19759 0.63954 0.44176 0.0
C335 C 0.23858 0.67392 0.42462 0.0
C336 C 0.22152 0.65402 0.39763 0.0
C337 C 0.16438 0.60148 0.40082 0.0
C338 C 0.14914 0.59136 0.42672 0.0
C339 C 0.26963 0.65426 0.38655 0.0
C340 C 0.21223 0.68617 0.38345 0.0
H341 H 0.95623 0.40507 0.39093 0.0
H342 H 0.97521 0.42543 0.48522 0.0
H343 H 1.01294 0.53744 0.46042 0.0
H344 H 0.08257 0.58215 0.47644 0.0
H345 H 1.0263 0.52369 0.49055 0.0
H346 H 0.12104 0.4966 0.46469 0.0
H347 H 0.08787 0.49835 0.49293 0.0
H348 H 0.15042 0.55554 0.47989 0.0
H349 H 1.04459 0.4699 0.30863 0.0
H350 H 0.20046 0.62292 0.29781 0.0
H351 H 0.21278 0.64103 0.34325 0.0
H352 H 0.0911 0.45256 0.35685 0.0
H353 H 1.01532 0.41007 0.34671 0.0
H354 H 1.0372 0.42184 0.37997 0.0
H355 H 0.99057 0.49686 0.34683 0.0
H356 H 0.96445 0.46509 0.37517 0.0
H357 H 0.95679 0.43219 0.34582 0.0
H358 H 0.88465 0.33571 0.41546 0.0
C359 C 0.96233 0.41163 0.41116 0.0
C360 C 0.63357 0.94848 0.78599 0.0
C361 C 0.64036 0.91689 0.77292 0.0
C362 C 0.64156 0.91592 0.74611 0.0
C363 C 0.6295 0.9773 0.74555 0.0
C364 C 0.62784 0.97809 0.77191 0.0
C365 C 0.61878 1.01301 0.78244 0.0
H366 H 0.57783 0.17658 0.75937 0.0
C367 C 0.62284 1.01247 0.73658 0.0
C368 C 0.61645 0.03362 0.75814 0.0
H369 H 0.57953 0.12673 0.83245 0.0
H370 H 0.59968 0.07622 0.81203 0.0
H371 H 0.68873 0.19388 0.73761 0.0
H372 H 0.50281 0.07161 0.7302 0.0
H373 H 0.53113 0.0762 0.70007 0.0
H374 H 0.53974 0.12841 0.71389 0.0
H375 H 0.64253 0.19493 0.71697 0.0
H376 H 0.67564 0.16935 0.70611 0.0
C377 C 0.67245 0.05439 0.79976 0.0
C378 C 0.55962 0.98146 0.79622 0.0
C379 C 0.62424 0.03632 0.64128 0.0
C380 C 0.61839 0.06623 0.62762 0.0
C381 C 0.61306 0.09839 0.641 0.0
C382 C 0.61236 0.10024 0.66765 0.0
C383 C 0.61693 0.06947 0.68119 0.0
C384 C 0.62334 0.03855 0.66806 0.0
C385 C 0.62769 1.00874 0.68584 0.0
C386 C 0.62243 0.0267 0.71171 0.0
C387 C 0.61591 0.06205 0.70875 0.0
C388 C 0.68871 0.02413 0.68272 0.0
C389 C 0.5751 0.95236 0.67975 0.0
C390 C 0.583 0.155 0.77091 0.0
C391 C 0.57736 0.15543 0.7974 0.0
C392 C 0.58398 0.12683 0.81196 0.0
C393 C 0.59538 0.0975 0.80004 0.0
C394 C 0.59991 0.09672 0.77331 0.0
C395 C 0.59413 0.1256 0.75934 0.0
C396 C 0.59946 0.12028 0.73125 0.0
C397 C 0.60882 0.08304 0.7304 0.0
C398 C 0.60914 0.06914 0.75502 0.0
C399 C 0.65405 0.17217 0.72228 0.0
C400 C 0.54062 0.09834 0.71794 0.0
H401 H 0.63766 0.9434 0.71201 0.0
H402 H 0.63249 0.94982 0.80661 0.0
H403 H 0.52614 0.94485 0.78561 0.0
H404 H 0.54042 0.99938 0.79742 0.0
H405 H 0.56455 0.97361 0.81575 0.0
H406 H 0.71379 0.06731 0.79098 0.0
H407 H 0.66965 0.04027 0.81869 0.0
H408 H 0.67763 0.08823 0.80258 0.0
H409 H 0.62842 1.01132 0.6313 0.0
H410 H 0.60857 0.12163 0.6307 0.0
H411 H 0.60757 0.1252 0.67664 0.0
H412 H 0.72281 0.06486 0.67955 0.0
H413 H 0.6885 1.00335 0.66613 0.0
H414 H 0.70429 0.01859 0.69991 0.0
H415 H 0.53526 0.94627 0.67415 0.0
H416 H 0.56191 0.92927 0.69636 0.0
H417 H 0.58481 0.93729 0.66375 0.0
H418 H 0.64682 0.89187 0.73577 0.0
C419 C 0.6363 0.94591 0.73239 0.0
C420 C 0.60108 0.38674 0.12346 0.0
C421 C 0.5975 0.35114 0.10811 0.0
C422 C 0.5616 0.33007 0.08582 0.0
C423 C 0.54829 0.39047 0.09102 0.0
C424 C 0.57522 0.40508 0.1148 0.0
C425 C 0.57577 0.44358 0.12855 0.0
H426 H 0.495 0.58158 0.12863 0.0
C427 C 0.53421 0.42215 0.08604 0.0
C428 C 0.54786 0.45185 0.10832 0.0
H429 H 0.57987 0.57091 0.19021 0.0
H430 H 0.58733 0.51829 0.16275 0.0
H431 H 0.58478 0.60812 0.09039 0.0
H432 H 0.41345 0.47043 0.10267 0.0
H433 H 0.42261 0.48027 0.06952 0.0
H434 H 0.43243 0.5264 0.09113 0.0
H435 H 0.52421 0.58807 0.07067 0.0
H436 H 0.56902 0.57273 0.06186 0.0
C437 C 0.64036 0.49132 0.13475 0.0
C438 C 0.53704 0.41955 0.15219 0.0
C439 C 0.51766 0.4529 -0.00493 0.0
C440 C 0.51101 0.48485 0.98471 0.0
C441 C 0.49599 0.50796 0.00055 0.0
C442 C 0.4917 0.50206 0.02688 0.0
C443 C 0.50247 0.47275 0.03725 0.0
C444 C 0.51263 0.44696 0.02137 0.0
C445 C 0.51995 0.4155 0.03587 0.0
C446 C 0.51899 0.43136 0.06316 0.0
C447 C 0.5093 0.46516 0.06374 0.0
C448 C 0.57989 0.43085 0.02948 0.0
C449 C 0.46705 0.35928 0.0293 0.0
C450 C 0.51571 0.56828 0.13618 0.0
C451 C 0.53424 0.57816 0.16194 0.0
C452 C 0.56264 0.56163 0.1708 0.0
C453 C 0.56695 0.53124 0.15482 0.0
C454 C 0.54428 0.51885 0.1296 0.0
C455 C 0.52193 0.53943 0.12035 0.0
C456 C 0.50596 0.52701 0.09236 0.0
C457 C 0.51739 0.4916 0.08688 0.0
C458 C 0.53873 0.48635 0.10883 0.0
C459 C 0.54776 0.57627 0.07799 0.0
C460 C 0.44012 0.49973 0.08856 0.0
H461 H 0.51298 0.33523 0.05921 0.0
H462 H 0.62657 0.40231 0.14121 0.0
H463 H 0.4976 0.37965 0.14766 0.0
H464 H 0.51955 0.43746 0.15889 0.0
H465 H 0.56168 0.42049 0.16817 0.0
H466 H 0.66973 0.49711 0.11942 0.0
H467 H 0.65637 0.48848 0.15291 0.0
H468 H 0.64687 0.52595 0.13584 0.0
H469 H 0.52757 0.43381 0.98291 0.0
H470 H 0.48957 0.53185 0.99259 0.0
H471 H 0.48116 0.52109 0.03824 0.0
H472 H 0.61605 0.47178 0.03346 0.0
H473 H 0.58098 0.42196 0.00904 0.0
H474 H 0.58962 0.41126 0.04062 0.0
H475 H 0.4321 0.35368 0.01786 0.0
H476 H 0.44536 0.33827 0.04673 0.0
H477 H 0.48066 0.34115 0.01802 0.0
H478 H 0.55546 0.30047 0.07451 0.0
C479 C 0.53742 0.35023 0.07696 0.0
C480 C 0.42181 0.57153 0.19193 0.0
C481 C 0.42902 0.60519 0.17514 0.0
C482 C 0.53157 0.64534 0.17048 0.0
C483 C 0.51739 0.60135 0.17902 0.0
N484 N 0.45881 0.53214 0.20633 0.0
N485 N 0.49289 0.68187 0.15351 0.0
C486 C 0.46641 0.56856 0.19344 0.0
C487 C 0.4854 0.64584 0.16676 0.0
N488 N 0.37112 0.54112 0.20506 0.0
N489 N 0.58757 0.68325 0.16344 0.0
H490 H 0.45904 0.68252 0.15116 0.0
H491 H 0.5317 0.71035 0.14478 0.0
H492 H 0.62009 0.68083 0.16543 0.0
H493 H 0.6022 0.71738 0.15749 0.0
H494 H 0.36309 0.51657 0.21841 0.0
H495 H 0.33844 0.54343 0.20374 0.0
H496 H 0.42008 0.50331 0.21494 0.0
H497 H 0.49247 0.53144 0.20875 0.0
C498 C 0.77595 0.26213 0.47957 0.0
C499 C 0.77617 0.22267 0.47257 0.0
C500 C 0.8814 0.28761 0.46272 0.0
C501 C 0.87807 0.32582 0.46528 0.0
N502 N 0.81981 0.34861 0.47458 0.0
N503 N 0.82912 0.19992 0.45257 0.0
C504 C 0.82472 0.31283 0.47348 0.0
C505 C 0.82921 0.23601 0.46319 0.0
N506 N 0.73009 0.25163 0.4928 0.0
N507 N 0.93481 0.30079 0.45921 0.0
H508 H 0.79165 0.16227 0.45041 0.0
H509 H 0.86481 0.20808 0.4431 0.0
H510 H 0.97346 0.33814 0.45867 0.0
H511 H 0.9414 0.27534 0.4596 0.0
H512 H 0.72965 0.27916 0.50033 0.0
H513 H 0.69516 0.21589 0.4986 0.0
H514 H 0.78018 0.34059 0.47726 0.0
H515 H 0.85515 0.38611 0.47136 0.0
C516 C 0.70449 0.85878 0.7923 0.0
C517 C 0.65698 0.81636 0.80517 0.0
C518 C 0.59907 0.84168 0.7987 0.0
C519 C 0.64751 0.88511 0.78678 0.0
N520 N 0.75086 0.94162 0.77841 0.0
N521 N 0.56492 0.77418 0.82607 0.0
C522 C 0.70174 0.89578 0.78564 0.0
C523 C 0.60611 0.81003 0.81013 0.0
N524 N 0.75075 0.86241 0.785 0.0
N525 N 0.54554 0.82918 0.798 0.0
H526 H 0.56916 0.75086 0.83498 0.0
H527 H 0.52967 0.7708 0.83238 0.0
H528 H 0.53849 0.85126 0.78986 0.0
H529 H 0.50715 0.79505 0.80373 0.0
H530 H 0.78321 0.88955 0.77308 0.0
H531 H 0.75421 0.83579 0.78891 0.0
H532 H 0.7928 0.95345 0.77961 0.0
H533 H 0.75043 0.96973 0.77366 0.0
C534 C 0.74374 0.39019 0.11412 0.0
C535 C 0.74418 0.39175 0.14111 0.0
C536 C 0.63731 0.33093 0.14003 0.0
C537 C 0.6383 0.34292 0.11461 0.0
N538 N 0.69071 0.3754 0.07539 0.0
N539 N 0.69194 0.35848 0.1802 0.0
C540 C 0.69064 0.36819 0.10072 0.0
C541 C 0.69105 0.35924 0.15425 0.0
N542 N 0.79447 0.41103 0.10155 0.0
N543 N 0.58445 0.29558 0.15073 0.0
H544 H 0.73084 0.37896 0.19104 0.0
H545 H 0.65442 0.33932 0.19105 0.0
H546 H 0.54526 0.27623 0.14013 0.0
H547 H 0.57986 0.28279 0.16885 0.0
H548 H 0.79618 0.40725 0.08187 0.0
H549 H 0.83426 0.42833 0.11114 0.0
H550 H 0.72876 0.4003 0.06526 0.0
H551 H 0.65249 0.35685 0.0644 0.0
C552 C 0.41197 0.88238 0.44865 0.0
C553 C 0.45661 0.90088 0.46754 0.0
C554 C 0.39795 0.8128 0.48005 0.0
C555 C 0.35035 0.79644 0.46365 0.0
N556 N 0.30822 0.82099 0.43767 0.0
N557 N 0.48364 0.88161 0.50514 0.0
C558 C 0.3562 0.83308 0.44981 0.0
C559 C 0.44725 0.86552 0.48438 0.0
N560 N 0.42371 0.91001 0.42823 0.0
N561 N 0.39772 0.77822 0.49076 0.0
H562 H 0.51896 0.91908 0.50991 0.0
H563 H 0.47501 0.85789 0.51922 0.0
H564 H 0.3632 0.73973 0.48801 0.0
H565 H 0.43413 0.78772 0.5004 0.0
H566 H 0.39388 0.89626 0.41303 0.0
H567 H 0.46561 0.94322 0.42453 0.0
H568 H 0.30914 0.8475 0.42907 0.0
H569 H 0.26634 0.78596 0.43873 0.0
C570 C 0.59042 0.26231 0.8287 0.0
C571 C 0.53349 0.24467 0.82293 0.0
C572 C 0.50273 0.16413 0.80664 0.0
C573 C 0.56148 0.18418 0.8092 0.0
N574 N 0.66276 0.25336 0.82088 0.0
N575 N 0.43723 0.18113 0.80335 0.0
C576 C 0.60574 0.23346 0.81996 0.0
C577 C 0.48986 0.19597 0.81131 0.0
N578 N 0.62944 0.30629 0.84286 0.0
N579 N 0.45916 0.11443 0.79983 0.0
H580 H 0.42603 0.20334 0.8061 0.0
H581 H 0.40647 0.14856 0.79211 0.0
H582 H 0.46719 0.09015 0.79611 0.0
H583 H 0.41469 0.09629 0.80017 0.0
H584 H 0.66964 0.31903 0.84979 0.0
H585 H 0.61949 0.32818 0.84956 0.0
H586 H 0.6981 0.29094 0.82563 0.0
H587 H 0.67523 0.23283 0.81533 0.0
C588 C 0.69583 0.83143 0.50296 0.0
C589 C 0.64786 0.82992 0.50065 0.0
C590 C 0.57927 0.74236 0.51211 0.0
C591 C 0.62767 0.7449 0.51599 0.0
N592 N 0.72939 0.78616 0.50996 0.0
N593 N 0.54376 0.78281 0.49734 0.0
C594 C 0.68517 0.78761 0.50954 0.0
C595 C 0.58933 0.78474 0.50323 0.0
N596 N 0.75171 0.87552 0.49998 0.0
N597 N 0.52417 0.70003 0.51795 0.0
H598 H 0.55003 0.81364 0.49124 0.0
H599 H 0.49987 0.75017 0.49673 0.0
H600 H 0.51516 0.66755 0.52324 0.0
H601 H 0.48763 0.69724 0.51843 0.0
H602 H 0.78936 0.88129 0.50439 0.0
H603 H 0.76073 0.90758 0.49389 0.0
H604 H 0.77121 0.81416 0.50327 0.0
H605 H 0.72323 0.75502 0.51534 0.0
C606 C 0.77481 0.55466 0.8505 0.0
C607 C 0.72262 0.52002 0.83428 0.0
C608 C 0.77125 0.48257 0.82228 0.0
C609 C 0.82576 0.52042 0.83638 0.0
N610 N 0.87878 0.59932 0.8602 0.0
N611 N 0.68234 0.4558 0.80052 0.0
C612 C 0.82666 0.55803 0.84937 0.0
C613 C 0.72441 0.48539 0.81921 0.0
N614 N 0.77441 0.58337 0.86861 0.0
N615 N 0.76213 0.44154 0.81238 0.0
H616 H 0.64966 0.45715 0.79675 0.0
H617 H 0.68361 0.43407 0.78698 0.0
H618 H 0.79347 0.43775 0.81398 0.0
H619 H 0.72169 0.40942 0.8049 0.0
H620 H 0.80668 0.60493 0.88295 0.0
H621 H 0.73848 0.58113 0.87122 0.0
H622 H 0.88583 0.63092 0.86734 0.0
H623 H 0.91683 0.60423 0.85946 0.0
C624 C 0.29255 0.70412 0.13508 0.0
C625 C 0.24186 0.68542 0.14947 0.0
C626 C 0.29313 0.77315 0.16454 0.0
C627 C 0.34673 0.79045 0.15366 0.0
N628 N 0.39831 0.76858 0.13162 0.0
N629 N 0.20095 0.70371 0.18249 0.0
C630 C 0.34658 0.75486 0.13968 0.0
C631 C 0.24393 0.72046 0.16531 0.0
N632 N 0.28877 0.67425 0.11613 0.0
N633 N 0.28877 0.80724 0.17395 0.0
H634 H 0.16645 0.66586 0.18518 0.0
H635 H 0.20335 0.72734 0.19618 0.0
H636 H 0.32301 0.84583 0.17313 0.0
H637 H 0.24937 0.79719 0.17991 0.0
H638 H 0.32251 0.68719 0.10356 0.0
H639 H 0.24971 0.63839 0.111 0.0
H640 H 0.40183 0.74292 0.12397 0.0
H641 H 0.43852 0.80477 0.13462 0.0
C642 C 0.62036 0.33482 0.4795 0.0
C643 C 0.56333 0.28721 0.47573 0.0
C644 C 0.51868 0.32234 0.49013 0.0
C645 C 0.57568 0.36992 0.49392 0.0
N646 N 0.68022 0.42434 0.4888 0.0
N647 N 0.45818 0.23606 0.47352 0.0
C648 C 0.62642 0.37706 0.48745 0.0
C649 C 0.51243 0.28119 0.47973 0.0
N650 N 0.66855 0.33914 0.47615 0.0
N651 N 0.47073 0.3163 0.49736 0.0
H652 H 0.45162 0.20438 0.46696 0.0
H653 H 0.41974 0.23044 0.47324 0.0
H654 H 0.47335 0.34606 0.50388 0.0
H655 H 0.42858 0.2817 0.49817 0.0
H656 H 0.71117 0.37112 0.48142 0.0
H657 H 0.66578 0.30957 0.46907 0.0
H658 H 0.71841 0.43318 0.48204 0.0
H659 H 0.68628 0.45587 0.49522 0.0
C660 C 0.34798 0.47613 0.84754 0.0
C661 C 0.40098 0.51169 0.83348 0.0
C662 C 0.35199 0.54932 0.82504 0.0
C663 C 0.29715 0.51059 0.83684 0.0
N664 N 0.24314 0.42957 0.85387 0.0
N665 N 0.44172 0.57761 0.80407 0.0
C666 C 0.29586 0.47205 0.84623 0.0
C667 C 0.39922 0.54687 0.82101 0.0
N668 N 0.34784 0.44766 0.86422 0.0
N669 N 0.36063 0.59039 0.81817 0.0
H670 H 0.47475 0.57688 0.79954 0.0
H671 H 0.44048 0.59992 0.79239 0.0
H672 H 0.32807 0.59285 0.81994 0.0
H673 H 0.40108 0.62309 0.81267 0.0
H674 H 0.3143 0.42519 0.87696 0.0
H675 H 0.38451 0.45174 0.86796 0.0
H676 H 0.23615 0.3976 0.85824 0.0
H677 H 0.2049 0.42439 0.85291 0.0
C678 C 0.9411 0.3259 0.15185 0.0
C679 C 0.9351 0.36054 0.14399 0.0
C680 C 0.82654 0.29238 0.14556 0.0
C681 C 0.83277 0.25791 0.15308 0.0
N682 N 0.89555 0.23896 0.15694 0.0
N683 N 0.87032 0.37113 0.12662 0.0
C684 C 0.89004 0.2739 0.15395 0.0
C685 C 0.87721 0.34197 0.13883 0.0
N686 N 0.9951 0.34295 0.15912 0.0
N687 N 0.77232 0.27853 0.14587 0.0
H688 H 0.90568 0.40677 0.12095 0.0
H689 H 0.82988 0.35797 0.11977 0.0
H690 H 0.73439 0.24238 0.14972 0.0
H691 H 0.76533 0.30344 0.14371 0.0
H692 H 1.00147 0.32095 0.1679 0.0
H693 H 1.03336 0.38023 0.15847 0.0
H694 H 0.93511 0.24654 0.15527 0.0
H695 H 0.85919 0.20103 0.15851 0.0
C696 C 1.0121 0.46214 0.05672 0.0
C697 C 1.04863 0.50796 0.07175 0.0
C698 C 0.09112 0.5546 0.03276 0.0
C699 C 1.05093 0.50936 0.01779 0.0
N700 N 0.96949 0.42035 0.01498 0.0
N701 N 0.11274 0.59845 0.07371 0.0
C702 C 1.01043 0.46315 0.02964 0.0
C703 C 0.08586 0.55444 0.05972 0.0
N704 N 0.98005 0.41759 0.06829 0.0
N705 N 0.13429 0.59791 0.0212 0.0
H706 H 0.10689 0.60028 0.09316 0.0
H707 H 0.1355 0.63291 0.06559 0.0
H708 H 0.13833 0.59993 0.00145 0.0
H709 H 0.16901 0.6308 0.03121 0.0
H710 H 0.95786 0.38307 0.05845 0.0
H711 H 0.97877 0.4152 0.08801 0.0
H712 H 0.93407 0.3866 0.02241 0.0
H713 H 0.9689 0.41919 -0.00491 0.0
C714 C 0.61659 1.00936 0.38715 0.0
C715 C 0.62852 0.05125 0.40027 0.0
C716 C 0.61435 0.07595 0.36044 0.0
C717 C 0.60875 0.03731 0.34682 0.0
N718 N 0.61712 0.97384 0.34673 0.0
N719 N 0.65219 0.13073 0.39856 0.0
C720 C 0.61323 1.00569 0.36004 0.0
C721 C 0.6313 0.08643 0.38669 0.0
N722 N 0.60784 0.97279 0.40053 0.0
N723 N 0.60144 0.10147 0.3486 0.0
H724 H 0.66676 0.14027 0.41756 0.0
H725 H 0.66054 0.15985 0.38894 0.0
H726 H 0.58726 0.09401 0.32957 0.0
H727 H 0.59918 0.12651 0.35835 0.0
H728 H 0.5927 0.93881 0.39206 0.0
H729 H 0.61095 0.97455 0.42039 0.0
H730 H 0.62637 0.95365 0.35534 0.0
H731 H 0.61704 0.97131 0.32686 0.0
C732 C 0.51815 0.5172 0.74288 0.0
C733 C 0.55534 0.51462 0.75759 0.0
C734 C 0.61539 0.53536 0.72015 0.0
C735 C 0.57252 0.52899 0.70472 0.0
N736 N 0.47855 0.50759 0.70087 0.0
N737 N 0.63257 0.51036 0.758 0.0
C738 C 0.52279 0.51859 0.71592 0.0
C739 C 0.60268 0.52135 0.74579 0.0
N740 N 0.47911 0.51926 0.75464 0.0
N741 N 0.66824 0.55464 0.71029 0.0
H742 H 0.62161 0.49511 0.77576 0.0
H743 H 0.66353 0.51027 0.7491 0.0
H744 H 0.6791 0.56564 0.69155 0.0
H745 H 0.7032 0.56454 0.72145 0.0
H746 H 0.45527 0.52635 0.74509 0.0
H747 H 0.47479 0.51885 0.77435 0.0
H748 H 0.43843 0.49426 0.70796 0.0
H749 H 0.47978 0.50766 0.68102 0.0
C750 C 0.55947 0.02277 0.55897 0.0
C751 C 0.60372 0.067 0.54617 0.0
C752 C 0.66344 0.10428 0.58587 0.0
C753 C 0.61565 0.06341 0.59926 0.0
N754 N 0.51521 0.98587 0.59921 0.0
N755 N 0.69396 0.15371 0.54892 0.0
C756 C 0.56296 0.02302 0.58597 0.0
C757 C 0.65513 0.10868 0.55989 0.0
N758 N 0.51482 0.97994 0.54532 0.0
N759 N 0.71685 0.13893 0.59804 0.0
H760 H 0.68815 0.16003 0.53058 0.0
H761 H 0.72881 0.18647 0.55896 0.0
H762 H 0.72419 0.13674 0.61709 0.0
H763 H 0.75492 0.16678 0.58863 0.0
H764 H 0.48516 0.94525 0.55334 0.0
H765 H 0.51062 0.97773 0.52554 0.0
H766 H 0.47351 0.95888 0.59086 0.0
H767 H 0.51606 0.98411 0.61895 0.0
C768 C 0.4897 0.46947 0.91255 0.0
C769 C 0.54348 0.5156 0.90527 0.0
C770 C 0.57576 0.54158 0.95012 0.0
C771 C 0.52193 0.49545 0.95735 0.0
N772 N 0.43001 0.41314 0.94622 0.0
N773 N 0.6428 0.59029 0.91617 0.0
C774 C 0.47961 0.45862 0.93875 0.0
C775 C 0.58795 0.55032 0.92381 0.0
N776 N 0.44764 0.4366 0.89438 0.0
N777 N 0.61514 0.57715 0.96846 0.0
H778 H 0.65382 0.59714 0.89705 0.0
H779 H 0.67904 0.61422 0.92852 0.0
H780 H 0.61 0.57097 0.98791 0.0
H781 H 0.65143 0.61384 0.96464 0.0
H782 H 0.40472 0.40524 0.89817 0.0
H783 H 0.4553 0.44184 0.87505 0.0
H784 H 0.4006 0.38225 0.93379 0.0
H785 H 0.41909 0.40511 0.96527 0.0
C786 C 0.15571 0.53348 0.23124 0.0
C787 C 0.1029 0.51442 0.21843 0.0
C788 C 0.06513 0.51987 0.25858 0.0
C789 C 0.11536 0.53431 0.27181 0.0
N790 N 0.20236 0.54389 0.27137 0.0
N791 N 1.00151 0.47631 0.22122 0.0
C792 C 0.15904 0.53803 0.25833 0.0
C793 C 1.05586 0.50381 0.23247 0.0
N794 N 0.20314 0.54831 0.2176 0.0
N795 N 1.02724 0.52308 0.27065 0.0
H796 H 0.99267 0.46149 0.20255 0.0
H797 H 0.9643 0.46357 0.2312 0.0
H798 H 1.03327 0.53605 0.28962 0.0
H799 H 0.99318 0.51764 0.26109 0.0
H800 H 0.24468 0.56761 0.22585 0.0
H801 H 0.20226 0.54498 0.19777 0.0
H802 H 0.2318 0.54173 0.26256 0.0
H803 H 0.20537 0.54593 0.29124 0.0
loop_
_geom_bond_atom_site_label_1
_geom_bond_atom_site_label_2
_geom_bond_distance
_geom_bond_site_symmetry_2
_ccdc_geom_bond_type
Gd0 C3 2.818 . S
Gd0 O20 2.377 . S
Gd0 O22 2.448 . S
Gd0 O23 2.506 . S
Gd0 O24 2.435 . S
Gd0 O25 2.717 . S
Gd0 O27 2.395 1_455 S
Gd0 O31 2.327 . S
Gd1 C12 2.818 . S
Gd1 O21 2.395 1_655 S
Gd1 O25 2.327 1_655 S
Gd1 O26 2.377 . S
Gd1 O28 2.448 . S
Gd1 O29 2.506 . S
Gd1 O30 2.435 1_655 S
Gd1 O31 2.717 1_655 S
C2 O20 1.240 . S
C2 O21 1.240 . S
C3 Gd0 2.818 . S
C3 C4 1.510 . S
C3 O22 1.249 . S
C3 O23 1.252 . S
C4 C3 1.510 . S
C4 C5 1.404 . S
C4 C6 1.352 . S
C5 C4 1.404 . S
C5 C9 1.389 . S
C5 H32 0.930 . S
C6 C4 1.352 . S
C6 C8 1.374 . S
C6 H33 0.931 . S
C7 C8 1.359 . S
C7 C9 1.364 . S
C8 C6 1.374 . S
C8 C7 1.359 . S
C8 H34 0.931 . S
C9 C5 1.389 . S
C9 C7 1.364 . S
C9 H35 0.931 . S
C10 O24 1.256 . S
C10 O25 1.257 . S
C11 O26 1.240 . S
C11 O27 1.240 . S
C12 Gd1 2.818 . S
C12 C13 1.510 . S
C12 O28 1.249 . S
C12 O29 1.252 . S
C13 C12 1.510 . S
C13 C14 1.404 . S
C13 C15 1.352 . S
C14 C13 1.404 . S
C14 C18 1.389 . S
C14 H36 0.930 . S
C15 C13 1.352 . S
C15 C17 1.374 . S
C15 H37 0.931 . S
C16 C17 1.359 . S
C16 C18 1.364 . S
C17 C15 1.374 . S
C17 C16 1.359 . S
C17 H38 0.931 . S
C18 C14 1.389 . S
C18 C16 1.364 . S
C18 H39 0.931 . S
C19 O30 1.256 . S
C19 O31 1.257 . S
O20 Gd0 2.377 . S
O20 C2 1.240 . S
O21 Gd1 2.395 1_455 S
O21 C2 1.240 . S
O22 Gd0 2.448 . S
O22 C3 1.249 . S
O23 Gd0 2.506 . S
O23 C3 1.252 . S
O24 Gd0 2.435 . S
O24 C10 1.256 . S
O25 Gd0 2.717 . S
O25 Gd1 2.327 1_455 S
O25 C10 1.257 . S
O26 Gd1 2.377 . S
O26 C11 1.240 . S
O27 Gd0 2.395 1_655 S
O27 C11 1.240 . S
O28 Gd1 2.448 . S
O28 C12 1.249 . S
O29 Gd1 2.506 . S
O29 C12 1.252 . S
O30 Gd1 2.435 1_455 S
O30 C19 1.256 . S
O31 Gd0 2.327 . S
O31 Gd1 2.717 1_455 S
O31 C19 1.257 . S
H32 C5 0.930 . S
H33 C6 0.931 . S
H34 C8 0.931 . S
H35 C9 0.931 . S
H36 C14 0.930 . S
H37 C15 0.931 . S
H38 C17 0.931 . S
H39 C18 0.931 . S
Gd40 C43 2.818 . S
Gd40 O60 2.377 . S
Gd40 O62 2.448 . S
Gd40 O63 2.506 . S
Gd40 O64 2.435 . S
Gd40 O65 2.717 1_565 S
Gd40 O67 2.395 1_565 S
Gd40 O71 2.311 1_565 S
Gd41 C52 2.818 . S
Gd41 O61 2.395 1_545 S
Gd41 O65 2.327 . S
Gd41 O66 2.377 . S
Gd41 O68 2.448 . S
Gd41 O69 2.506 . S
Gd41 O70 2.435 . S
Gd41 O71 2.743 . S
C42 O60 1.240 . S
C42 O61 1.240 . S
C43 Gd40 2.818 . S
C43 C44 1.510 . S
C43 O62 1.249 . S
C43 O63 1.252 . S
C44 C43 1.510 . S
C44 C45 1.404 . S
C44 C46 1.352 . S
C45 C44 1.404 . S
C45 C49 1.389 . S
C45 H72 0.930 . S
C46 C44 1.352 . S
C46 C48 1.374 . S
C46 H73 0.931 . S
C47 C48 1.359 . S
C47 C49 1.364 . S
C48 C46 1.374 . S
C48 C47 1.359 . S
C48 H74 0.931 . S
C49 C45 1.389 . S
C49 C47 1.364 . S
C49 H75 0.931 . S
C50 O64 1.256 1_545 S
C50 O65 1.257 . S
C51 O66 1.240 . S
C51 O67 1.240 . S
C52 Gd41 2.818 . S
C52 C53 1.510 . S
C52 O68 1.249 . S
C52 O69 1.252 . S
C53 C52 1.510 . S
C53 C54 1.404 . S
C53 C55 1.352 . S
C54 C53 1.404 . S
C54 C58 1.389 . S
C54 H76 0.930 . S
C55 C53 1.352 . S
C55 C57 1.374 . S
C55 H77 0.931 . S
C56 C57 1.359 . S
C56 C58 1.364 . S
C57 C55 1.374 . S
C57 C56 1.359 . S
C57 H78 0.931 . S
C58 C54 1.389 . S
C58 C56 1.364 . S
C58 H79 0.931 . S
C59 O70 1.256 . S
C59 O71 1.272 . S
O60 Gd40 2.377 . S
O60 C42 1.240 . S
O61 Gd41 2.395 1_565 S
O61 C42 1.240 . S
O62 Gd40 2.448 . S
O62 C43 1.249 . S
O63 Gd40 2.506 . S
O63 C43 1.252 . S
O64 Gd40 2.435 . S
O64 C50 1.256 1_565 S
O65 Gd40 2.717 1_545 S
O65 Gd41 2.327 . S
O65 C50 1.257 . S
O66 Gd41 2.377 . S
O66 C51 1.240 . S
O67 Gd40 2.395 1_545 S
O67 C51 1.240 . S
O68 Gd41 2.448 . S
O68 C52 1.249 . S
O69 Gd41 2.506 . S
O69 C52 1.252 . S
O70 Gd41 2.435 . S
O70 C59 1.256 . S
O71 Gd40 2.311 1_545 S
O71 Gd41 2.743 . S
O71 C59 1.272 . S
H72 C45 0.930 . S
H73 C46 0.931 . S
H74 C48 0.931 . S
H75 C49 0.931 . S
H76 C54 0.930 . S
H77 C55 0.931 . S
H78 C57 0.931 . S
H79 C58 0.931 . S
Gd80 C83 2.818 . S
Gd80 O100 2.377 . S
Gd80 O102 2.448 . S
Gd80 O103 2.506 . S
Gd80 O104 2.435 . S
Gd80 O105 2.717 . S
Gd80 O107 2.395 . S
Gd80 O111 2.327 . S
Gd81 C92 2.818 . S
Gd81 O101 2.395 . S
Gd81 O105 2.327 . S
Gd81 O106 2.377 . S
Gd81 O108 2.448 . S
Gd81 O109 2.506 . S
Gd81 O110 2.435 . S
Gd81 O111 2.717 . S
C82 O100 1.240 . S
C82 O101 1.240 . S
C83 Gd80 2.818 . S
C83 C84 1.510 . S
C83 O102 1.249 . S
C83 O103 1.252 . S
C84 C83 1.510 . S
C84 C85 1.404 . S
C84 C86 1.352 . S
C85 C84 1.404 . S
C85 C89 1.389 . S
C85 H112 0.930 . S
C86 C84 1.352 . S
C86 C88 1.374 . S
C86 H113 0.931 . S
C87 C88 1.359 . S
C87 C89 1.364 . S
C88 C86 1.374 . S
C88 C87 1.359 . S
C88 H114 0.931 . S
C89 C85 1.389 . S
C89 C87 1.364 . S
C89 H115 0.931 . S
C90 O104 1.256 . S
C90 O105 1.257 . S
C91 O106 1.240 . S
C91 O107 1.240 . S
C92 Gd81 2.818 . S
C92 C93 1.510 . S
C92 O108 1.249 . S
C92 O109 1.252 . S
C93 C92 1.510 . S
C93 C94 1.404 . S
C93 C95 1.352 . S
C94 C93 1.404 . S
C94 C98 1.389 . S
C94 H116 0.930 . S
C95 C93 1.352 . S
C95 C97 1.374 . S
C95 H117 0.931 . S
C96 C97 1.359 . S
C96 C98 1.364 . S
C97 C95 1.374 . S
C97 C96 1.359 . S
C97 H118 0.931 . S
C98 C94 1.389 . S
C98 C96 1.364 . S
C98 H119 0.931 . S
C99 O110 1.256 . S
C99 O111 1.257 . S
O100 Gd80 2.377 . S
O100 C82 1.240 . S
O101 Gd81 2.395 . S
O101 C82 1.240 . S
O102 Gd80 2.448 . S
O102 C83 1.249 . S
O103 Gd80 2.506 . S
O103 C83 1.252 . S
O104 Gd80 2.435 . S
O104 C90 1.256 . S
O105 Gd80 2.717 . S
O105 Gd81 2.327 . S
O105 C90 1.257 . S
O106 Gd81 2.377 . S
O106 C91 1.240 . S
O107 Gd80 2.395 . S
O107 C91 1.240 . S
O108 Gd81 2.448 . S
O108 C92 1.249 . S
O109 Gd81 2.506 . S
O109 C92 1.252 . S
O110 Gd81 2.435 . S
O110 C99 1.256 . S
O111 Gd80 2.327 . S
O111 Gd81 2.717 . S
O111 C99 1.257 . S
H112 C85 0.930 . S
H113 C86 0.931 . S
H114 C88 0.931 . S
H115 C89 0.931 . S
H116 C94 0.930 . S
H117 C95 0.931 . S
H118 C97 0.931 . S
H119 C98 0.931 . S
C120 C121 1.391 . S
C120 C124 1.391 . S
C120 H162 0.948 . S
C121 C120 1.391 . S
C121 C122 1.391 . S
C122 C121 1.391 . S
C122 H178 0.947 . S
C122 C179 1.392 . S
C123 C124 1.391 . S
C123 C127 1.397 . S
C123 C179 1.419 . S
C124 C120 1.391 . S
C124 C123 1.391 . S
C124 C125 1.399 . S
C125 C124 1.399 . S
C125 C128 1.396 . S
C125 C137 1.453 . S
C125 C138 1.684 . S
H126 C150 0.948 . S
C127 C123 1.397 . S
C127 C128 1.394 . S
C127 C146 1.723 . S
C128 C125 1.396 . S
C128 C127 1.394 . S
C128 C158 1.723 1_545 S
H129 C152 0.947 . S
H130 C153 0.948 . S
H131 C159 0.982 . S
H132 C160 0.979 . S
H133 C160 0.980 . S
H134 C160 0.983 . S
H135 C159 0.979 . S
H136 C159 0.977 . S
C137 C125 1.453 . S
C137 H166 0.982 . S
C137 H167 0.979 . S
C137 H168 0.977 . S
C138 C125 1.684 . S
C138 H163 0.979 . S
C138 H164 0.980 . S
C138 H165 0.983 . S
C139 C140 1.391 . S
C139 C144 1.391 . S
C139 H169 0.948 . S
C140 C139 1.391 . S
C140 C141 1.391 1_545 S
C141 C140 1.391 1_565 S
C141 C142 1.392 . S
C141 H170 0.947 . S
C142 C141 1.392 . S
C142 C143 1.419 1_565 S
C142 H171 0.948 . S
C143 C142 1.419 1_545 S
C143 C144 1.391 . S
C143 C147 1.397 . S
C144 C139 1.391 . S
C144 C143 1.391 . S
C144 C145 1.399 . S
C145 C144 1.399 . S
C145 C146 1.396 . S
C145 C148 1.453 . S
C145 C149 1.684 . S
C146 C127 1.723 . S
C146 C145 1.396 . S
C146 C147 1.394 . S
C147 C143 1.397 . S
C147 C146 1.394 . S
C147 C157 1.723 1_545 S
C148 C145 1.453 . S
C148 H172 0.982 . S
C148 H173 0.979 . S
C148 H174 0.977 . S
C149 C145 1.684 . S
C149 H175 0.979 . S
C149 H176 0.980 . S
C149 H177 0.983 . S
C150 H126 0.948 . S
C150 C151 1.391 . S
C150 C155 1.391 . S
C151 C150 1.391 . S
C151 C152 1.391 . S
C152 H129 0.947 . S
C152 C151 1.391 . S
C152 C153 1.392 . S
C153 H130 0.948 . S
C153 C152 1.392 . S
C153 C154 1.419 . S
C154 C153 1.419 . S
C154 C155 1.391 . S
C154 C158 1.397 . S
C155 C150 1.391 . S
C155 C154 1.391 . S
C155 C156 1.399 . S
C156 C155 1.399 . S
C156 C157 1.396 . S
C156 C159 1.453 . S
C156 C160 1.684 . S
C157 C147 1.723 1_565 S
C157 C156 1.396 . S
C157 C158 1.394 . S
C158 C128 1.723 1_565 S
C158 C154 1.397 . S
C158 C157 1.394 . S
C159 H131 0.982 . S
C159 H135 0.979 . S
C159 H136 0.977 . S
C159 C156 1.453 . S
C160 H132 0.979 . S
C160 H133 0.980 . S
C160 H134 0.983 . S
C160 C156 1.684 . S
H161 C179 0.948 . S
H162 C120 0.948 . S
H163 C138 0.979 . S
H164 C138 0.980 . S
H165 C138 0.983 . S
H166 C137 0.982 . S
H167 C137 0.979 . S
H168 C137 0.977 . S
H169 C139 0.948 . S
H170 C141 0.947 . S
H171 C142 0.948 . S
H172 C148 0.982 . S
H173 C148 0.979 . S
H174 C148 0.977 . S
H175 C149 0.979 . S
H176 C149 0.980 . S
H177 C149 0.983 . S
H178 C122 0.947 . S
C179 C122 1.392 . S
C179 C123 1.419 . S
C179 H161 0.948 . S
C180 C181 1.391 . S
C180 C184 1.391 . S
C180 H222 0.948 . S
C181 C180 1.391 . S
C181 C182 1.391 . S
C182 C181 1.391 . S
C182 H238 0.947 . S
C182 C239 1.392 . S
C183 C184 1.391 . S
C183 C187 1.397 . S
C183 C239 1.419 . S
C184 C180 1.391 . S
C184 C183 1.391 . S
C184 C185 1.399 . S
C185 C184 1.399 . S
C185 C188 1.396 . S
C185 C197 1.453 . S
C185 C198 1.684 . S
H186 C210 0.948 . S
C187 C183 1.397 . S
C187 C188 1.394 . S
C187 C206 1.723 . S
C188 C185 1.396 . S
C188 C187 1.394 . S
C188 C218 1.723 . S
H189 C212 0.947 . S
H190 C213 0.948 . S
H191 C219 0.982 . S
H192 C220 0.979 . S
H193 C220 0.980 . S
H194 C220 0.983 . S
H195 C219 0.979 . S
H196 C219 0.977 . S
C197 C185 1.453 . S
C197 H226 0.982 . S
C197 H227 0.979 . S
C197 H228 0.977 . S
C198 C185 1.684 . S
C198 H223 0.979 . S
C198 H224 0.980 . S
C198 H225 0.983 . S
C199 C200 1.391 . S
C199 C204 1.391 . S
C199 H229 0.948 . S
C200 C199 1.391 . S
C200 C201 1.391 . S
C201 C200 1.391 . S
C201 C202 1.392 . S
C201 H230 0.947 . S
C202 C201 1.392 . S
C202 C203 1.419 . S
C202 H231 0.948 . S
C203 C202 1.419 . S
C203 C204 1.391 . S
C203 C207 1.397 . S
C204 C199 1.391 . S
C204 C203 1.391 . S
C204 C205 1.399 . S
C205 C204 1.399 . S
C205 C206 1.396 . S
C205 C208 1.453 . S
C205 C209 1.684 . S
C206 C187 1.723 . S
C206 C205 1.396 . S
C206 C207 1.394 . S
C207 C203 1.397 . S
C207 C206 1.394 . S
C207 C217 1.723 . S
C208 C205 1.453 . S
C208 H232 0.982 . S
C208 H233 0.979 . S
C208 H234 0.977 . S
C209 C205 1.684 . S
C209 H235 0.979 . S
C209 H236 0.980 . S
C209 H237 0.983 . S
C210 H186 0.948 . S
C210 C211 1.391 . S
C210 C215 1.391 . S
C211 C210 1.391 . S
C211 C212 1.391 . S
C212 H189 0.947 . S
C212 C211 1.391 . S
C212 C213 1.392 . S
C213 H190 0.948 . S
C213 C212 1.392 . S
C213 C214 1.419 . S
C214 C213 1.419 . S
C214 C215 1.391 . S
C214 C218 1.397 . S
C215 C210 1.391 . S
C215 C214 1.391 . S
C215 C216 1.399 . S
C216 C215 1.399 . S
C216 C217 1.396 . S
C216 C219 1.453 . S
C216 C220 1.684 . S
C217 C207 1.723 . S
C217 C216 1.396 . S
C217 C218 1.394 . S
C218 C188 1.723 . S
C218 C214 1.397 . S
C218 C217 1.394 . S
C219 H191 0.982 . S
C219 H195 0.979 . S
C219 H196 0.977 . S
C219 C216 1.453 . S
C220 H192 0.979 . S
C220 H193 0.980 . S
C220 H194 0.983 . S
C220 C216 1.684 . S
H221 C239 0.948 . S
H222 C180 0.948 . S
H223 C198 0.979 . S
H224 C198 0.980 . S
H225 C198 0.983 . S
H226 C197 0.982 . S
H227 C197 0.979 . S
H228 C197 0.977 . S
H229 C199 0.948 . S
H230 C201 0.947 . S
H231 C202 0.948 . S
H232 C208 0.982 . S
H233 C208 0.979 . S
H234 C208 0.977 . S
H235 C209 0.979 . S
H236 C209 0.980 . S
H237 C209 0.983 . S
H238 C182 0.947 . S
C239 C182 1.392 . S
C239 C183 1.419 . S
C239 H221 0.948 . S
C240 C241 1.391 . S
C240 C244 1.391 . S
C240 H282 0.948 . S
C241 C240 1.391 . S
C241 C242 1.391 . S
C242 C241 1.391 . S
C242 H298 0.947 . S
C242 C299 1.392 . S
C243 C244 1.391 . S
C243 C247 1.397 . S
C243 C299 1.419 . S
C244 C240 1.391 . S
C244 C243 1.391 . S
C244 C245 1.399 . S
C245 C244 1.399 . S
C245 C248 1.396 . S
C245 C257 1.453 . S
C245 C258 1.684 . S
H246 C270 0.948 . S
C247 C243 1.397 . S
C247 C248 1.394 . S
C247 C266 1.723 . S
C248 C245 1.396 . S
C248 C247 1.394 . S
C248 C278 1.723 . S
H249 C272 0.947 . S
H250 C273 0.948 . S
H251 C279 0.982 . S
H252 C280 0.979 1_455 S
H253 C280 0.980 . S
H254 C280 0.983 . S
H255 C279 0.979 . S
H256 C279 0.977 . S
C257 C245 1.453 . S
C257 H286 0.982 . S
C257 H287 0.979 . S
C257 H288 0.977 . S
C258 C245 1.684 . S
C258 H283 0.979 . S
C258 H284 0.980 . S
C258 H285 0.983 . S
C259 C260 1.374 1_556 S
C259 C264 1.391 . S
C259 H289 0.948 . S
C260 C259 1.374 1_554 S
C260 C261 1.378 1_554 S
C261 C260 1.378 1_556 S
C261 C262 1.392 . S
C261 H290 0.962 1_455 S
C262 C261 1.392 . S
C262 C263 1.419 . S
C262 H291 0.948 1_455 S
C263 C262 1.419 . S
C263 C264 1.391 . S
C263 C267 1.397 . S
C264 C259 1.391 . S
C264 C263 1.391 . S
C264 C265 1.399 . S
C265 C264 1.399 . S
C265 C266 1.396 . S
C265 C268 1.453 . S
C265 C269 1.684 . S
C266 C247 1.723 . S
C266 C265 1.396 . S
C266 C267 1.394 . S
C267 C263 1.397 . S
C267 C266 1.394 . S
C267 C277 1.723 . S
C268 C265 1.453 . S
C268 H292 0.982 . S
C268 H293 0.979 . S
C268 H294 0.977 . S
C269 C265 1.684 . S
C269 H295 0.979 . S
C269 H296 0.980 . S
C269 H297 0.983 . S
C270 H246 0.948 . S
C270 C271 1.391 . S
C270 C275 1.391 . S
C271 C270 1.391 . S
C271 C272 1.391 . S
C272 H249 0.947 . S
C272 C271 1.391 . S
C272 C273 1.392 1_655 S
C273 H250 0.948 . S
C273 C272 1.392 1_455 S
C273 C274 1.419 . S
C274 C273 1.419 . S
C274 C275 1.391 1_455 S
C274 C278 1.397 . S
C275 C270 1.391 . S
C275 C274 1.391 1_655 S
C275 C276 1.399 . S
C276 C275 1.399 . S
C276 C277 1.396 1_655 S
C276 C279 1.453 . S
C276 C280 1.684 . S
C277 C267 1.723 . S
C277 C276 1.396 1_455 S
C277 C278 1.394 . S
C278 C248 1.723 . S
C278 C274 1.397 . S
C278 C277 1.394 . S
C279 H251 0.982 . S
C279 H255 0.979 . S
C279 H256 0.977 . S
C279 C276 1.453 . S
C280 H252 0.979 1_655 S
C280 H253 0.980 . S
C280 H254 0.983 . S
C280 C276 1.684 . S
H281 C299 0.948 . S
H282 C240 0.948 . S
H283 C258 0.979 . S
H284 C258 0.980 . S
H285 C258 0.983 . S
H286 C257 0.982 . S
H287 C257 0.979 . S
H288 C257 0.977 . S
H289 C259 0.948 . S
H290 C261 0.962 1_655 S
H291 C262 0.948 1_655 S
H292 C268 0.982 . S
H293 C268 0.979 . S
H294 C268 0.977 . S
H295 C269 0.979 . S
H296 C269 0.980 . S
H297 C269 0.983 . S
H298 C242 0.947 . S
C299 C242 1.392 . S
C299 C243 1.419 . S
C299 H281 0.948 . S
C300 C301 1.391 . S
C300 C304 1.391 . S
C300 H342 0.948 . S
C301 C300 1.391 . S
C301 C302 1.391 . S
C302 C301 1.391 . S
C302 H358 0.947 . S
C302 C359 1.392 . S
C303 C304 1.391 . S
C303 C307 1.397 . S
C303 C359 1.419 . S
C304 C300 1.391 . S
C304 C303 1.391 . S
C304 C305 1.399 . S
C305 C304 1.399 . S
C305 C308 1.396 . S
C305 C317 1.453 . S
C305 C318 1.684 . S
H306 C330 0.948 . S
C307 C303 1.397 . S
C307 C308 1.394 . S
C307 C326 1.723 . S
C308 C305 1.396 . S
C308 C307 1.394 . S
C308 C338 1.723 1_655 S
H309 C332 0.947 . S
H310 C333 0.948 . S
H311 C339 0.982 . S
H312 C340 0.979 . S
H313 C340 0.980 . S
H314 C340 0.983 . S
H315 C339 0.979 . S
H316 C339 0.977 . S
C317 C305 1.453 . S
C317 H346 0.982 1_655 S
C317 H347 0.979 . S
C317 H348 0.977 1_655 S
C318 C305 1.684 . S
C318 H343 0.979 . S
C318 H344 0.980 . S
C318 H345 0.983 . S
C319 C320 1.391 1_655 S
C319 C324 1.391 . S
C319 H349 0.948 . S
C320 C319 1.391 1_455 S
C320 C321 1.391 . S
C321 C320 1.391 . S
C321 C322 1.392 . S
C321 H350 0.947 . S
C322 C321 1.392 . S
C322 C323 1.419 . S
C322 H351 0.948 . S
C323 C322 1.419 . S
C323 C324 1.391 1_455 S
C323 C327 1.397 . S
C324 C319 1.391 . S
C324 C323 1.391 1_655 S
C324 C325 1.399 . S
C325 C324 1.399 . S
C325 C326 1.396 . S
C325 C328 1.453 . S
C325 C329 1.684 . S
C326 C307 1.723 . S
C326 C325 1.396 . S
C326 C327 1.394 1_655 S
C327 C323 1.397 . S
C327 C326 1.394 1_455 S
C327 C337 1.723 . S
C328 C325 1.453 . S
C328 H352 0.982 . S
C328 H353 0.979 . S
C328 H354 0.977 . S
C329 C325 1.684 . S
C329 H355 0.979 . S
C329 H356 0.980 . S
C329 H357 0.983 . S
C330 H306 0.948 . S
C330 C331 1.391 . S
C330 C335 1.391 . S
C331 C330 1.391 . S
C331 C332 1.391 . S
C332 H309 0.947 . S
C332 C331 1.391 . S
C332 C333 1.392 . S
C333 H310 0.948 . S
C333 C332 1.392 . S
C333 C334 1.419 . S
C334 C333 1.419 . S
C334 C335 1.391 . S
C334 C338 1.397 . S
C335 C330 1.391 . S
C335 C334 1.391 . S
C335 C336 1.399 . S
C336 C335 1.399 . S
C336 C337 1.396 . S
C336 C339 1.453 . S
C336 C340 1.684 . S
C337 C327 1.723 . S
C337 C336 1.396 . S
C337 C338 1.394 . S
C338 C308 1.723 1_455 S
C338 C334 1.397 . S
C338 C337 1.394 . S
C339 H311 0.982 . S
C339 H315 0.979 . S
C339 H316 0.977 . S
C339 C336 1.453 . S
C340 H312 0.979 . S
C340 H313 0.980 . S
C340 H314 0.983 . S
C340 C336 1.684 . S
H341 C359 0.948 . S
H342 C300 0.948 . S
H343 C318 0.979 . S
H344 C318 0.980 . S
H345 C318 0.983 . S
H346 C317 0.982 1_455 S
H347 C317 0.979 . S
H348 C317 0.977 1_455 S
H349 C319 0.948 . S
H350 C321 0.947 . S
H351 C322 0.948 . S
H352 C328 0.982 . S
H353 C328 0.979 . S
H354 C328 0.977 . S
H355 C329 0.979 . S
H356 C329 0.980 . S
H357 C329 0.983 . S
H358 C302 0.947 . S
C359 C302 1.392 . S
C359 C303 1.419 . S
C359 H341 0.948 . S
C360 C361 1.391 . S
C360 C364 1.391 . S
C360 H402 0.948 . S
C361 C360 1.391 . S
C361 C362 1.391 . S
C362 C361 1.391 . S
C362 H418 0.947 . S
C362 C419 1.392 . S
C363 C364 1.391 . S
C363 C367 1.397 . S
C363 C419 1.419 . S
C364 C360 1.391 . S
C364 C363 1.391 . S
C364 C365 1.399 . S
C365 C364 1.399 . S
C365 C368 1.396 . S
C365 C377 1.453 1_565 S
C365 C378 1.684 . S
H366 C390 0.948 . S
C367 C363 1.397 . S
C367 C368 1.394 . S
C367 C386 1.723 . S
C368 C365 1.396 . S
C368 C367 1.394 . S
C368 C398 1.723 1_565 S
H369 C392 0.947 . S
H370 C393 0.948 . S
H371 C399 0.982 . S
H372 C400 0.979 . S
H373 C400 0.980 . S
H374 C400 0.983 . S
H375 C399 0.979 . S
H376 C399 0.977 . S
C377 C365 1.453 1_545 S
C377 H406 0.982 . S
C377 H407 0.971 1_545 S
C377 H408 0.977 . S
C378 C365 1.684 . S
C378 H403 0.979 . S
C378 H404 0.980 . S
C378 H405 0.983 . S
C379 C380 1.391 . S
C379 C384 1.391 . S
C379 H409 0.948 . S
C380 C379 1.391 . S
C380 C381 1.391 1_565 S
C381 C380 1.391 1_545 S
C381 C382 1.392 . S
C381 H410 0.947 . S
C382 C381 1.392 . S
C382 C383 1.419 . S
C382 H411 0.948 . S
C383 C382 1.419 . S
C383 C384 1.391 1_545 S
C383 C387 1.397 . S
C384 C379 1.391 . S
C384 C383 1.391 1_565 S
C384 C385 1.399 . S
C385 C384 1.399 . S
C385 C386 1.396 . S
C385 C388 1.453 . S
C385 C389 1.684 . S
C386 C367 1.723 . S
C386 C385 1.396 . S
C386 C387 1.394 1_565 S
C387 C383 1.397 . S
C387 C386 1.394 1_545 S
C387 C397 1.723 . S
C388 C385 1.453 . S
C388 H412 0.982 . S
C388 H413 0.979 . S
C388 H414 0.977 . S
C389 C385 1.684 . S
C389 H415 0.979 . S
C389 H416 0.980 . S
C389 H417 0.983 . S
C390 H366 0.948 . S
C390 C391 1.391 . S
C390 C395 1.391 . S
C391 C390 1.391 . S
C391 C392 1.391 . S
C392 H369 0.947 . S
C392 C391 1.391 . S
C392 C393 1.392 . S
C393 H370 0.948 . S
C393 C392 1.392 . S
C393 C394 1.419 . S
C394 C393 1.419 . S
C394 C395 1.391 . S
C394 C398 1.397 . S
C395 C390 1.391 . S
C395 C394 1.391 . S
C395 C396 1.399 . S
C396 C395 1.399 . S
C396 C397 1.396 . S
C396 C399 1.453 . S
C396 C400 1.684 . S
C397 C387 1.723 . S
C397 C396 1.396 . S
C397 C398 1.394 . S
C398 C368 1.723 1_545 S
C398 C394 1.397 . S
C398 C397 1.394 . S
C399 H371 0.982 . S
C399 H375 0.979 . S
C399 H376 0.977 . S
C399 C396 1.453 . S
C400 H372 0.979 . S
C400 H373 0.980 . S
C400 H374 0.983 . S
C400 C396 1.684 . S
H401 C419 0.948 . S
H402 C360 0.948 . S
H403 C378 0.979 . S
H404 C378 0.980 . S
H405 C378 0.983 . S
H406 C377 0.982 . S
H407 C377 0.971 1_565 S
H408 C377 0.977 . S
H409 C379 0.948 . S
H410 C381 0.947 . S
H411 C382 0.948 . S
H412 C388 0.982 . S
H413 C388 0.979 . S
H414 C388 0.977 . S
H415 C389 0.979 . S
H416 C389 0.980 . S
H417 C389 0.983 . S
H418 C362 0.947 . S
C419 C362 1.392 . S
C419 C363 1.419 . S
C419 H401 0.948 . S
C420 C421 1.391 . S
C420 C424 1.391 . S
C420 H462 0.948 . S
C421 C420 1.391 . S
C421 C422 1.391 . S
C422 C421 1.391 . S
C422 H478 0.947 . S
C422 C479 1.392 . S
C423 C424 1.391 . S
C423 C427 1.397 . S
C423 C479 1.419 . S
C424 C420 1.391 . S
C424 C423 1.391 . S
C424 C425 1.399 . S
C425 C424 1.399 . S
C425 C428 1.396 . S
C425 C437 1.453 . S
C425 C438 1.684 . S
H426 C450 0.948 . S
C427 C423 1.397 . S
C427 C428 1.394 . S
C427 C446 1.723 . S
C428 C425 1.396 . S
C428 C427 1.394 . S
C428 C458 1.723 . S
H429 C452 0.947 . S
H430 C453 0.948 . S
H431 C459 0.982 . S
H432 C460 0.979 . S
H433 C460 0.980 . S
H434 C460 0.983 . S
H435 C459 0.979 . S
H436 C459 0.977 . S
C437 C425 1.453 . S
C437 H466 0.982 . S
C437 H467 0.979 . S
C437 H468 0.977 . S
C438 C425 1.684 . S
C438 H463 0.979 . S
C438 H464 0.980 . S
C438 H465 0.983 . S
C439 C440 1.391 . S
C439 C444 1.391 1_556 S
C439 H469 0.948 . S
C440 C439 1.391 . S
C440 C441 1.391 . S
C441 C440 1.391 . S
C441 C442 1.392 1_556 S
C441 H470 0.947 . S
C442 C441 1.392 1_554 S
C442 C443 1.419 . S
C442 H471 0.948 . S
C443 C442 1.419 . S
C443 C444 1.391 . S
C443 C447 1.397 . S
C444 C439 1.391 1_554 S
C444 C443 1.391 . S
C444 C445 1.399 . S
C445 C444 1.399 . S
C445 C446 1.396 . S
C445 C448 1.453 . S
C445 C449 1.684 . S
C446 C427 1.723 . S
C446 C445 1.396 . S
C446 C447 1.394 . S
C447 C443 1.397 . S
C447 C446 1.394 . S
C447 C457 1.723 . S
C448 C445 1.453 . S
C448 H472 0.982 . S
C448 H473 0.979 . S
C448 H474 0.977 . S
C449 C445 1.684 . S
C449 H475 0.979 . S
C449 H476 0.980 . S
C449 H477 0.983 . S
C450 H426 0.948 . S
C450 C451 1.391 . S
C450 C455 1.391 . S
C451 C450 1.391 . S
C451 C452 1.391 . S
C452 H429 0.947 . S
C452 C451 1.391 . S
C452 C453 1.392 . S
C453 H430 0.948 . S
C453 C452 1.392 . S
C453 C454 1.419 . S
C454 C453 1.419 . S
C454 C455 1.391 . S
C454 C458 1.397 . S
C455 C450 1.391 . S
C455 C454 1.391 . S
C455 C456 1.399 . S
C456 C455 1.399 . S
C456 C457 1.396 . S
C456 C459 1.453 . S
C456 C460 1.684 . S
C457 C447 1.723 . S
C457 C456 1.396 . S
C457 C458 1.394 . S
C458 C428 1.723 . S
C458 C454 1.397 . S
C458 C457 1.394 . S
C459 H431 0.982 . S
C459 H435 0.979 . S
C459 H436 0.977 . S
C459 C456 1.453 . S
C460 H432 0.979 . S
C460 H433 0.980 . S
C460 H434 0.983 . S
C460 C456 1.684 . S
H461 C479 0.948 . S
H462 C420 0.948 . S
H463 C438 0.979 . S
H464 C438 0.980 . S
H465 C438 0.983 . S
H466 C437 0.982 . S
H467 C437 0.979 . S
H468 C437 0.977 . S
H469 C439 0.948 . S
H470 C441 0.947 . S
H471 C442 0.948 . S
H472 C448 0.982 . S
H473 C448 0.979 . S
H474 C448 0.977 . S
H475 C449 0.979 . S
H476 C449 0.980 . S
H477 C449 0.983 . S
H478 C422 0.947 . S
C479 C422 1.392 . S
C479 C423 1.419 . S
C479 H461 0.948 . S
C480 C481 1.363 . S
C480 C486 1.379 . S
C480 N488 1.356 . S
C481 C480 1.363 . S
C481 C487 1.363 . S
C482 C483 1.363 . S
C482 C487 1.379 . S
C482 N489 1.356 . S
C483 C482 1.363 . S
C483 C486 1.363 . S
N484 C486 1.356 . S
N484 H496 0.984 . S
N484 H497 0.985 . S
N485 C487 1.356 . S
N485 H490 0.984 . S
N485 H491 0.985 . S
C486 C480 1.379 . S
C486 C483 1.363 . S
C486 N484 1.356 . S
C487 C481 1.363 . S
C487 C482 1.379 . S
C487 N485 1.356 . S
N488 C480 1.356 . S
N488 H494 0.984 . S
N488 H495 0.984 . S
N489 C482 1.356 . S
N489 H492 0.984 . S
N489 H493 0.985 . S
H490 N485 0.984 . S
H491 N485 0.985 . S
H492 N489 0.984 . S
H493 N489 0.985 . S
H494 N488 0.984 . S
H495 N488 0.984 . S
H496 N484 0.984 . S
H497 N484 0.985 . S
C498 C499 1.363 . S
C498 C504 1.379 . S
C498 N506 1.356 . S
C499 C498 1.363 . S
C499 C505 1.363 . S
C500 C501 1.363 . S
C500 C505 1.379 . S
C500 N507 1.356 . S
C501 C500 1.363 . S
C501 C504 1.363 . S
N502 C504 1.356 . S
N502 H514 0.984 . S
N502 H515 0.985 . S
N503 C505 1.356 . S
N503 H508 0.984 . S
N503 H509 0.985 . S
C504 C498 1.379 . S
C504 C501 1.363 . S
C504 N502 1.356 . S
C505 C499 1.363 . S
C505 C500 1.379 . S
C505 N503 1.356 . S
N506 C498 1.356 . S
N506 H512 0.984 . S
N506 H513 0.984 . S
N507 C500 1.356 . S
N507 H510 0.984 . S
N507 H511 0.985 . S
H508 N503 0.984 . S
H509 N503 0.985 . S
H510 N507 0.984 . S
H511 N507 0.985 . S
H512 N506 0.984 . S
H513 N506 0.984 . S
H514 N502 0.984 . S
H515 N502 0.985 . S
C516 C517 1.363 . S
C516 C522 1.379 . S
C516 N524 1.356 . S
C517 C516 1.363 . S
C517 C523 1.363 . S
C518 C519 1.363 . S
C518 C523 1.379 . S
C518 N525 1.356 . S
C519 C518 1.363 . S
C519 C522 1.363 . S
N520 C522 1.356 . S
N520 H532 0.984 . S
N520 H533 0.985 . S
N521 C523 1.356 . S
N521 H526 0.984 . S
N521 H527 0.985 . S
C522 C516 1.379 . S
C522 C519 1.363 . S
C522 N520 1.356 . S
C523 C517 1.363 . S
C523 C518 1.379 . S
C523 N521 1.356 . S
N524 C516 1.356 . S
N524 H530 0.984 . S
N524 H531 0.984 . S
N525 C518 1.356 . S
N525 H528 0.984 . S
N525 H529 0.985 . S
H526 N521 0.984 . S
H527 N521 0.985 . S
H528 N525 0.984 . S
H529 N525 0.985 . S
H530 N524 0.984 . S
H531 N524 0.984 . S
H532 N520 0.984 . S
H533 N520 0.985 . S
C534 C535 1.363 . S
C534 C540 1.379 . S
C534 N542 1.356 . S
C535 C534 1.363 . S
C535 C541 1.363 . S
C536 C537 1.363 . S
C536 C541 1.379 . S
C536 N543 1.356 . S
C537 C536 1.363 . S
C537 C540 1.363 . S
N538 C540 1.356 . S
N538 H550 0.984 . S
N538 H551 0.985 . S
N539 C541 1.356 . S
N539 H544 0.984 . S
N539 H545 0.985 . S
C540 C534 1.379 . S
C540 C537 1.363 . S
C540 N538 1.356 . S
C541 C535 1.363 . S
C541 C536 1.379 . S
C541 N539 1.356 . S
N542 C534 1.356 . S
N542 H548 0.984 . S
N542 H549 0.984 . S
N543 C536 1.356 . S
N543 H546 0.984 . S
N543 H547 0.985 . S
H544 N539 0.984 . S
H545 N539 0.985 . S
H546 N543 0.984 . S
H547 N543 0.985 . S
H548 N542 0.984 . S
H549 N542 0.984 . S
H550 N538 0.984 . S
H551 N538 0.985 . S
C552 C553 1.363 . S
C552 C558 1.379 . S
C552 N560 1.356 . S
C553 C552 1.363 . S
C553 C559 1.363 . S
C554 C555 1.363 . S
C554 C559 1.379 . S
C554 N561 1.356 . S
C555 C554 1.363 . S
C555 C558 1.363 . S
N556 C558 1.356 . S
N556 H568 0.984 . S
N556 H569 0.985 . S
N557 C559 1.356 . S
N557 H562 0.984 . S
N557 H563 0.985 . S
C558 C552 1.379 . S
C558 C555 1.363 . S
C558 N556 1.356 . S
C559 C553 1.363 . S
C559 C554 1.379 . S
C559 N557 1.356 . S
N560 C552 1.356 . S
N560 H566 0.984 . S
N560 H567 0.984 . S
N561 C554 1.356 . S
N561 H564 0.984 . S
N561 H565 0.985 . S
H562 N557 0.984 . S
H563 N557 0.985 . S
H564 N561 0.984 . S
H565 N561 0.985 . S
H566 N560 0.984 . S
H567 N560 0.984 . S
H568 N556 0.984 . S
H569 N556 0.985 . S
C570 C571 1.363 . S
C570 C576 1.379 . S
C570 N578 1.356 . S
C571 C570 1.363 . S
C571 C577 1.363 . S
C572 C573 1.363 . S
C572 C577 1.379 . S
C572 N579 1.356 . S
C573 C572 1.363 . S
C573 C576 1.363 . S
N574 C576 1.356 . S
N574 H586 0.984 . S
N574 H587 0.985 . S
N575 C577 1.356 . S
N575 H580 0.984 . S
N575 H581 0.985 . S
C576 C570 1.379 . S
C576 C573 1.363 . S
C576 N574 1.356 . S
C577 C571 1.363 . S
C577 C572 1.379 . S
C577 N575 1.356 . S
N578 C570 1.356 . S
N578 H584 0.984 . S
N578 H585 0.984 . S
N579 C572 1.356 . S
N579 H582 0.984 . S
N579 H583 0.985 . S
H580 N575 0.984 . S
H581 N575 0.985 . S
H582 N579 0.984 . S
H583 N579 0.985 . S
H584 N578 0.984 . S
H585 N578 0.984 . S
H586 N574 0.984 . S
H587 N574 0.985 . S
C588 C589 1.363 . S
C588 C594 1.379 . S
C588 N596 1.356 . S
C589 C588 1.363 . S
C589 C595 1.363 . S
C590 C591 1.363 . S
C590 C595 1.379 . S
C590 N597 1.356 . S
C591 C590 1.363 . S
C591 C594 1.363 . S
N592 C594 1.356 . S
N592 H604 0.984 . S
N592 H605 0.985 . S
N593 C595 1.356 . S
N593 H598 0.984 . S
N593 H599 0.985 . S
C594 C588 1.379 . S
C594 C591 1.363 . S
C594 N592 1.356 . S
C595 C589 1.363 . S
C595 C590 1.379 . S
C595 N593 1.356 . S
N596 C588 1.356 . S
N596 H602 0.984 . S
N596 H603 0.984 . S
N597 C590 1.356 . S
N597 H600 0.984 . S
N597 H601 0.985 . S
H598 N593 0.984 . S
H599 N593 0.985 . S
H600 N597 0.984 . S
H601 N597 0.985 . S
H602 N596 0.984 . S
H603 N596 0.984 . S
H604 N592 0.984 . S
H605 N592 0.985 . S
C606 C607 1.363 . S
C606 C612 1.379 . S
C606 N614 1.356 . S
C607 C606 1.363 . S
C607 C613 1.363 . S
C608 C609 1.363 . S
C608 C613 1.379 . S
C608 N615 1.356 . S
C609 C608 1.363 . S
C609 C612 1.363 . S
N610 C612 1.356 . S
N610 H622 0.984 . S
N610 H623 0.985 . S
N611 C613 1.356 . S
N611 H616 0.984 . S
N611 H617 0.985 . S
C612 C606 1.379 . S
C612 C609 1.363 . S
C612 N610 1.356 . S
C613 C607 1.363 . S
C613 C608 1.379 . S
C613 N611 1.356 . S
N614 C606 1.356 . S
N614 H620 0.984 . S
N614 H621 0.984 . S
N615 C608 1.356 . S
N615 H618 0.984 . S
N615 H619 0.985 . S
H616 N611 0.984 . S
H617 N611 0.985 . S
H618 N615 0.984 . S
H619 N615 0.985 . S
H620 N614 0.984 . S
H621 N614 0.984 . S
H622 N610 0.984 . S
H623 N610 0.985 . S
C624 C625 1.363 . S
C624 C630 1.379 . S
C624 N632 1.356 . S
C625 C624 1.363 . S
C625 C631 1.363 . S
C626 C627 1.363 . S
C626 C631 1.379 . S
C626 N633 1.356 . S
C627 C626 1.363 . S
C627 C630 1.363 . S
N628 C630 1.356 . S
N628 H640 0.984 . S
N628 H641 0.985 . S
N629 C631 1.356 . S
N629 H634 0.984 . S
N629 H635 0.985 . S
C630 C624 1.379 . S
C630 C627 1.363 . S
C630 N628 1.356 . S
C631 C625 1.363 . S
C631 C626 1.379 . S
C631 N629 1.356 . S
N632 C624 1.356 . S
N632 H638 0.984 . S
N632 H639 0.984 . S
N633 C626 1.356 . S
N633 H636 0.984 . S
N633 H637 0.985 . S
H634 N629 0.984 . S
H635 N629 0.985 . S
H636 N633 0.984 . S
H637 N633 0.985 . S
H638 N632 0.984 . S
H639 N632 0.984 . S
H640 N628 0.984 . S
H641 N628 0.985 . S
C642 C643 1.363 . S
C642 C648 1.379 . S
C642 N650 1.356 . S
C643 C642 1.363 . S
C643 C649 1.363 . S
C644 C645 1.363 . S
C644 C649 1.379 . S
C644 N651 1.356 . S
C645 C644 1.363 . S
C645 C648 1.363 . S
N646 C648 1.356 . S
N646 H658 0.984 . S
N646 H659 0.985 . S
N647 C649 1.356 . S
N647 H652 0.984 . S
N647 H653 0.985 . S
C648 C642 1.379 . S
C648 C645 1.363 . S
C648 N646 1.356 . S
C649 C643 1.363 . S
C649 C644 1.379 . S
C649 N647 1.356 . S
N650 C642 1.356 . S
N650 H656 0.984 . S
N650 H657 0.984 . S
N651 C644 1.356 . S
N651 H654 0.984 . S
N651 H655 0.985 . S
H652 N647 0.984 . S
H653 N647 0.985 . S
H654 N651 0.984 . S
H655 N651 0.985 . S
H656 N650 0.984 . S
H657 N650 0.984 . S
H658 N646 0.984 . S
H659 N646 0.985 . S
C660 C661 1.363 . S
C660 C666 1.379 . S
C660 N668 1.356 . S
C661 C660 1.363 . S
C661 C667 1.363 . S
C662 C663 1.363 . S
C662 C667 1.379 . S
C662 N669 1.356 . S
C663 C662 1.363 . S
C663 C666 1.363 . S
N664 C666 1.356 . S
N664 H676 0.984 . S
N664 H677 0.985 . S
N665 C667 1.356 . S
N665 H670 0.984 . S
N665 H671 0.985 . S
C666 C660 1.379 . S
C666 C663 1.363 . S
C666 N664 1.356 . S
C667 C661 1.363 . S
C667 C662 1.379 . S
C667 N665 1.356 . S
N668 C660 1.356 . S
N668 H674 0.984 . S
N668 H675 0.984 . S
N669 C662 1.356 . S
N669 H672 0.984 . S
N669 H673 0.985 . S
H670 N665 0.984 . S
H671 N665 0.985 . S
H672 N669 0.984 . S
H673 N669 0.985 . S
H674 N668 0.984 . S
H675 N668 0.984 . S
H676 N664 0.984 . S
H677 N664 0.985 . S
C678 C679 1.363 . S
C678 C684 1.379 . S
C678 N686 1.356 . S
C679 C678 1.363 . S
C679 C685 1.363 . S
C680 C681 1.363 . S
C680 C685 1.379 . S
C680 N687 1.356 . S
C681 C680 1.363 . S
C681 C684 1.363 . S
N682 C684 1.356 . S
N682 H694 0.984 . S
N682 H695 0.985 . S
N683 C685 1.356 . S
N683 H688 0.984 . S
N683 H689 0.985 . S
C684 C678 1.379 . S
C684 C681 1.363 . S
C684 N682 1.356 . S
C685 C679 1.363 . S
C685 C680 1.379 . S
C685 N683 1.356 . S
N686 C678 1.356 . S
N686 H692 0.984 . S
N686 H693 0.984 . S
N687 C680 1.356 . S
N687 H690 0.984 . S
N687 H691 0.985 . S
H688 N683 0.984 . S
H689 N683 0.985 . S
H690 N687 0.984 . S
H691 N687 0.985 . S
H692 N686 0.984 . S
H693 N686 0.984 . S
H694 N682 0.984 . S
H695 N682 0.985 . S
C696 C697 1.363 . S
C696 C702 1.379 . S
C696 N704 1.356 . S
C697 C696 1.363 . S
C697 C703 1.363 . S
C698 C699 1.363 . S
C698 C703 1.379 . S
C698 N705 1.356 . S
C699 C698 1.363 . S
C699 C702 1.363 . S
N700 C702 1.356 . S
N700 H712 0.984 . S
N700 H713 0.985 . S
N701 C703 1.356 . S
N701 H706 0.984 . S
N701 H707 0.985 . S
C702 C696 1.379 . S
C702 C699 1.363 . S
C702 N700 1.356 . S
C703 C697 1.363 . S
C703 C698 1.379 . S
C703 N701 1.356 . S
N704 C696 1.356 . S
N704 H710 0.984 . S
N704 H711 0.984 . S
N705 C698 1.356 . S
N705 H708 0.984 . S
N705 H709 0.985 . S
H706 N701 0.984 . S
H707 N701 0.985 . S
H708 N705 0.984 . S
H709 N705 0.985 . S
H710 N704 0.984 . S
H711 N704 0.984 . S
H712 N700 0.984 . S
H713 N700 0.985 . S
C714 C715 1.363 1_565 S
C714 C720 1.379 . S
C714 N722 1.356 . S
C715 C714 1.363 1_545 S
C715 C721 1.363 . S
C716 C717 1.363 . S
C716 C721 1.379 . S
C716 N723 1.356 . S
C717 C716 1.363 . S
C717 C720 1.363 1_545 S
N718 C720 1.356 . S
N718 H730 0.984 . S
N718 H731 0.985 . S
N719 C721 1.356 . S
N719 H724 0.984 . S
N719 H725 0.985 . S
C720 C714 1.379 . S
C720 C717 1.363 1_565 S
C720 N718 1.356 . S
C721 C715 1.363 . S
C721 C716 1.379 . S
C721 N719 1.356 . S
N722 C714 1.356 . S
N722 H728 0.984 . S
N722 H729 0.984 . S
N723 C716 1.356 . S
N723 H726 0.984 . S
N723 H727 0.985 . S
H724 N719 0.984 . S
H725 N719 0.985 . S
H726 N723 0.984 . S
H727 N723 0.985 . S
H728 N722 0.984 . S
H729 N722 0.984 . S
H730 N718 0.984 . S
H731 N718 0.985 . S
C732 C733 1.363 . S
C732 C738 1.379 . S
C732 N740 1.356 . S
C733 C732 1.363 . S
C733 C739 1.363 . S
C734 C735 1.363 . S
C734 C739 1.379 . S
C734 N741 1.356 . S
C735 C734 1.363 . S
C735 C738 1.363 . S
N736 C738 1.356 . S
N736 H748 0.984 . S
N736 H749 0.985 . S
N737 C739 1.356 . S
N737 H742 0.984 . S
N737 H743 0.985 . S
C738 C732 1.379 . S
C738 C735 1.363 . S
C738 N736 1.356 . S
C739 C733 1.363 . S
C739 C734 1.379 . S
C739 N737 1.356 . S
N740 C732 1.356 . S
N740 H746 0.984 . S
N740 H747 0.984 . S
N741 C734 1.356 . S
N741 H744 0.984 . S
N741 H745 0.985 . S
H742 N737 0.984 . S
H743 N737 0.985 . S
H744 N741 0.984 . S
H745 N741 0.985 . S
H746 N740 0.984 . S
H747 N740 0.984 . S
H748 N736 0.984 . S
H749 N736 0.985 . S
C750 C751 1.363 1_565 S
C750 C756 1.379 . S
C750 N758 1.356 . S
C751 C750 1.363 1_545 S
C751 C757 1.363 . S
C752 C753 1.363 1_545 S
C752 C757 1.379 . S
C752 N759 1.356 . S
C753 C752 1.363 1_565 S
C753 C756 1.363 . S
N754 C756 1.356 . S
N754 H766 0.984 . S
N754 H767 0.985 . S
N755 C757 1.356 . S
N755 H760 0.984 . S
N755 H761 0.985 . S
C756 C750 1.379 . S
C756 C753 1.363 . S
C756 N754 1.356 . S
C757 C751 1.363 . S
C757 C752 1.379 . S
C757 N755 1.356 . S
N758 C750 1.356 . S
N758 H764 0.984 . S
N758 H765 0.984 . S
N759 C752 1.356 . S
N759 H762 0.984 . S
N759 H763 0.985 . S
H760 N755 0.984 . S
H761 N755 0.985 . S
H762 N759 0.984 . S
H763 N759 0.985 . S
H764 N758 0.984 . S
H765 N758 0.984 . S
H766 N754 0.984 . S
H767 N754 0.985 . S
C768 C769 1.363 . S
C768 C774 1.379 . S
C768 N776 1.356 . S
C769 C768 1.363 . S
C769 C775 1.363 . S
C770 C771 1.363 . S
C770 C775 1.379 . S
C770 N777 1.356 . S
C771 C770 1.363 . S
C771 C774 1.363 . S
N772 C774 1.356 . S
N772 H784 0.984 . S
N772 H785 0.985 . S
N773 C775 1.356 . S
N773 H778 0.984 . S
N773 H779 0.985 . S
C774 C768 1.379 . S
C774 C771 1.363 . S
C774 N772 1.356 . S
C775 C769 1.363 . S
C775 C770 1.379 . S
C775 N773 1.356 . S
N776 C768 1.356 . S
N776 H782 0.984 . S
N776 H783 0.984 . S
N777 C770 1.356 . S
N777 H780 0.984 . S
N777 H781 0.985 . S
H778 N773 0.984 . S
H779 N773 0.985 . S
H780 N777 0.984 . S
H781 N777 0.985 . S
H782 N776 0.984 . S
H783 N776 0.984 . S
H784 N772 0.984 . S
H785 N772 0.985 . S
C786 C787 1.363 . S
C786 C792 1.379 . S
C786 N794 1.356 . S
C787 C786 1.363 . S
C787 C793 1.363 1_455 S
C788 C789 1.363 1_655 S
C788 C793 1.379 . S
C788 N795 1.356 . S
C789 C788 1.363 1_455 S
C789 C792 1.363 . S
N790 C792 1.356 . S
N790 H802 0.984 . S
N790 H803 0.985 . S
N791 C793 1.356 . S
N791 H796 0.984 . S
N791 H797 0.985 . S
C792 C786 1.379 . S
C792 C789 1.363 . S
C792 N790 1.356 . S
C793 C787 1.363 1_655 S
C793 C788 1.379 . S
C793 N791 1.356 . S
N794 C786 1.356 . S
N794 H800 0.984 . S
N794 H801 0.984 . S
N795 C788 1.356 . S
N795 H798 0.984 . S
N795 H799 0.985 . S
H796 N791 0.984 . S
H797 N791 0.985 . S
H798 N795 0.984 . S
H799 N795 0.985 . S
H800 N794 0.984 . S
H801 N794 0.984 . S
H802 N790 0.984 . S
H803 N790 0.985 . S
C481 C7 0.981 . S
C483 C451 1.091 . S
C499 C51 2.013 . S
C501 C301 1.831 . S
C517 C87 1.369 . S
C519 C361 1.419 . S
C535 C16 0.663 . S
C537 C421 0.604 . S
C555 C331 2.154 . S
C553 C42 2.181 . S
C573 C391 1.417 . S
C571 C96 1.399 . S
C589 C47 1.280 . S
C591 C181 1.275 . S
C607 C91 3.191 . S
C609 C271 3.175 . S
C625 C2 2.218 . S
C627 C151 2.221 . S
C645 C211 1.414 . S
C643 C56 1.388 . S
C663 C241 2.912 . S
C661 C82 3.100 . S
C679 C11 2.008 . S
C681 C121 1.833 . S
C699 C260 1.799 . S
C697 C19 1.725 . S
C715 C50 1.336 . S
C717 C140 1.341 . S
C733 C99 1.462 . S
C735 C200 1.478 . S
C753 C380 1.464 . S
C751 C59 1.459 . S
C771 C440 1.130 . S
C769 C90 1.134 . S
C787 C10 1.329 . S
C789 C320 1.329 . S
