# Generated by pormake.
# Topology zzz, (3,6)-cn, num edge types: 1
# Building blocks:
#     Node 0, Type 0, BuildingBlock: PAMTOO_clean_linker_0, # of connection points: 3
#     Node 1, Type 0, BuildingBlock: PAMTOO_clean_linker_0, # of connection points: 3
#     Node 2, Type 0, BuildingBlock: PAMTOO_clean_linker_0, # of connection points: 3
#     Node 3, Type 0, BuildingBlock: PAMTOO_clean_linker_0, # of connection points: 3
#     Node 4, Type 0, BuildingBlock: PAMTOO_clean_linker_0, # of connection points: 3
#     Node 5, Type 0, BuildingBlock: PAMTOO_clean_linker_0, # of connection points: 3
#     Node 6, Type 0, BuildingBlock: PAMTOO_clean_linker_0, # of connection points: 3
#     Node 7, Type 0, BuildingBlock: PAMTOO_clean_linker_0, # of connection points: 3
#     Node 8, Type 1, BuildingBlock: NUHQIS_clean_sbu_0, # of connection points: 6
#     Node 9, Type 1, BuildingBlock: NUHQIS_clean_sbu_0, # of connection points: 6
#     Node 10, Type 1, BuildingBlock: NUHQIS_clean_sbu_0, # of connection points: 6
#     Node 11, Type 1, BuildingBlock: NUHQIS_clean_sbu_0, # of connection points: 6
#     Edge 12, Type (0, 1), BuildingBlock: OJICUG_clean_linker_0, # of connection points: 2
#     Edge 13, Type (0, 1), BuildingBlock: OJICUG_clean_linker_0, # of connection points: 2
#     Edge 14, Type (0, 1), BuildingBlock: OJICUG_clean_linker_0, # of connection points: 2
#     Edge 15, Type (0, 1), BuildingBlock: OJICUG_clean_linker_0, # of connection points: 2
#     Edge 16, Type (0, 1), BuildingBlock: OJICUG_clean_linker_0, # of connection points: 2
#     Edge 17, Type (0, 1), BuildingBlock: OJICUG_clean_linker_0, # of connection points: 2
#     Edge 18, Type (0, 1), BuildingBlock: OJICUG_clean_linker_0, # of connection points: 2
#     Edge 19, Type (0, 1), BuildingBlock: OJICUG_clean_linker_0, # of connection points: 2
#     Edge 20, Type (0, 1), BuildingBlock: OJICUG_clean_linker_0, # of connection points: 2
#     Edge 21, Type (0, 1), BuildingBlock: OJICUG_clean_linker_0, # of connection points: 2
#     Edge 22, Type (0, 1), BuildingBlock: OJICUG_clean_linker_0, # of connection points: 2
#     Edge 23, Type (0, 1), BuildingBlock: OJICUG_clean_linker_0, # of connection points: 2
#     Edge 24, Type (0, 1), BuildingBlock: OJICUG_clean_linker_0, # of connection points: 2
#     Edge 25, Type (0, 1), BuildingBlock: OJICUG_clean_linker_0, # of connection points: 2
#     Edge 26, Type (0, 1), BuildingBlock: OJICUG_clean_linker_0, # of connection points: 2
#     Edge 27, Type (0, 1), BuildingBlock: OJICUG_clean_linker_0, # of connection points: 2
#     Edge 28, Type (0, 1), BuildingBlock: OJICUG_clean_linker_0, # of connection points: 2
#     Edge 29, Type (0, 1), BuildingBlock: OJICUG_clean_linker_0, # of connection points: 2
#     Edge 30, Type (0, 1), BuildingBlock: OJICUG_clean_linker_0, # of connection points: 2
#     Edge 31, Type (0, 1), BuildingBlock: OJICUG_clean_linker_0, # of connection points: 2
#     Edge 32, Type (0, 1), BuildingBlock: OJICUG_clean_linker_0, # of connection points: 2
#     Edge 33, Type (0, 1), BuildingBlock: OJICUG_clean_linker_0, # of connection points: 2
#     Edge 34, Type (0, 1), BuildingBlock: OJICUG_clean_linker_0, # of connection points: 2
#     Edge 35, Type (0, 1), BuildingBlock: OJICUG_clean_linker_0, # of connection points: 2
# Relax obj value: 0.341
# Max RMSD: 0.179
# Mean RMSD: 0.137
data_MOF--net-zzz--node1-NUHQIS_clean_sbu_0--node2-PAMTOO_clean_linker_0--edge1-OJICUG_clean_linker_0
_symmetry_space_group_name_H-M    P1
_symmetry_Int_Tables_number       1
_symmetry_cell_setting            triclinic
loop_
_symmetry_equiv_pos_as_xyz
'x, y, z'
_cell_length_a     37.082815
_cell_length_b     37.312706
_cell_length_c     10.33133
_cell_angle_alpha  90.075632
_cell_angle_beta   89.662831
_cell_angle_gamma 90.45035
loop_
_atom_site_label
_atom_site_type_symbol
_atom_site_fract_x
_atom_site_fract_y
_atom_site_fract_z
_atom_type_partial_charge
H0 H 0.85191 0.44599 0.47328 0.0
H1 H 0.75788 0.46294 0.24167 0.0
H2 H 0.79469 0.54548 0.50247 0.0
H3 H 0.70558 0.54675 0.44822 0.0
C4 C 0.70907 0.52507 0.37549 0.0
O5 O 0.74427 0.52686 0.32874 0.0
H6 H 0.70416 0.49919 0.42618 0.0
C7 C 0.82857 0.46207 0.45012 0.0
C8 C 0.82597 0.49647 0.50382 0.0
C9 C 0.80463 0.44989 0.35457 0.0
C10 C 0.77588 0.47171 0.31783 0.0
C11 C 0.77139 0.50574 0.37311 0.0
C12 C 0.79697 0.51852 0.46461 0.0
H13 H 0.1104 0.84196 0.45745 0.0
H14 H 0.0935 0.74607 0.23561 0.0
H15 H 1.01058 0.78334 0.49577 0.0
H16 H 1.0109 0.69302 0.44661 0.0
C17 C 1.03236 0.69726 0.37254 0.0
O18 O 1.0294 0.73203 0.32575 0.0
H19 H 0.05872 0.69354 0.42159 0.0
C20 C 0.09423 0.81828 0.43691 0.0
C21 C 0.05971 0.81552 0.49211 0.0
C22 C 0.10652 0.79372 0.3437 0.0
C23 C 0.08462 0.76449 0.31013 0.0
C24 C 0.05049 0.75987 0.36689 0.0
C25 C 0.03762 0.78586 0.45654 0.0
H26 H 0.71813 0.10277 0.48562 0.0
H27 H 0.8114 0.08603 0.24569 0.0
H28 H 0.77412 1.00238 0.50171 0.0
H29 H 0.86311 1.00107 0.44165 0.0
C30 C 0.85955 1.0229 0.36988 0.0
O31 O 0.82424 1.02142 0.3259 0.0
H32 H 0.86488 0.04869 0.42082 0.0
C33 C 0.74115 0.0865 0.45909 0.0
C34 C 0.74345 0.05173 0.50962 0.0
C35 C 0.76514 0.09902 0.36326 0.0
C36 C 0.79339 0.077 0.32209 0.0
C37 C 0.79747 0.04257 0.37376 0.0
C38 C 0.77202 1.02957 0.46618 0.0
H39 H 0.45667 0.70264 0.45998 0.0
H40 H 0.47343 0.79656 0.22684 0.0
H41 H 0.55589 0.76246 0.49049 0.0
H42 H 0.55348 0.85033 0.44451 0.0
C43 C 0.53346 0.84676 0.36578 0.0
O44 O 0.53688 0.81222 0.31724 0.0
H45 H 0.50619 0.85068 0.40902 0.0
C46 C 0.47272 0.7262 0.43625 0.0
C47 C 0.50712 0.72982 0.4905 0.0
C48 C 0.46041 0.74976 0.34059 0.0
C49 C 0.48223 0.77878 0.30305 0.0
C50 C 0.51615 0.78422 0.35925 0.0
C51 C 0.52902 0.75925 0.45145 0.0
H52 H 0.22168 0.59545 0.15344 0.0
H53 H 0.32499 0.58712 0.33765 0.0
H54 H 0.28604 0.50157 0.09303 0.0
H55 H 0.34803 0.47443 0.30141 0.0
C56 C 0.34678 0.50225 0.33945 0.0
O57 O 0.34157 0.52539 0.23612 0.0
H58 H 0.32329 0.5029 0.4072 0.0
C59 C 0.24689 0.58132 0.16645 0.0
C60 C 0.25061 0.5474 0.11068 0.0
C61 C 0.27318 0.59569 0.24934 0.0
C62 C 0.30486 0.57652 0.27192 0.0
C63 C 0.31008 0.54291 0.21412 0.0
C64 C 0.28259 0.52797 0.13463 0.0
H65 H 0.96293 0.20859 0.15238 0.0
H66 H 0.97113 0.3119 0.33556 0.0
H67 H 0.05759 0.27375 0.09172 0.0
H68 H 0.08451 0.3365 0.30083 0.0
C69 C 0.05639 0.33496 0.33825 0.0
O70 O 1.03344 0.32901 0.23446 0.0
H71 H 0.05554 0.31183 0.40642 0.0
C72 C 0.97719 0.23386 0.16536 0.0
C73 C 1.0114 0.23789 0.10962 0.0
C74 C 0.9626 0.26005 0.24771 0.0
C75 C 0.98191 0.29184 0.27024 0.0
C76 C 1.01585 0.29736 0.21269 0.0
C77 C 1.03097 0.27003 0.13338 0.0
H78 H 0.35453 0.09934 0.16993 0.0
H79 H 0.25126 0.09112 0.36139 0.0
H80 H 0.28015 1.01673 0.0605 0.0
H81 H 0.24307 1.00646 0.36496 0.0
C82 C 0.21876 1.013 0.30684 0.0
O83 O 0.22686 0.03965 0.21718 0.0
H84 H 0.21134 0.98822 0.25336 0.0
C85 C 0.32771 0.0878 0.17829 0.0
C86 C 0.32054 0.05738 0.10392 0.0
C87 C 0.30461 0.09818 0.28015 0.0
C88 C 0.26979 0.0832 0.28524 0.0
C89 C 0.26025 0.05468 0.20356 0.0
C90 C 0.28624 0.04069 0.11565 0.0
H91 H 0.58519 0.31816 0.1615 0.0
H92 H 0.59956 0.2399 0.38632 0.0
H93 H 0.51399 0.2808 0.14865 0.0
H94 H 0.48634 0.22649 0.39053 0.0
C95 C 0.5154 0.22533 0.41536 0.0
O96 O 0.53552 0.22741 0.30174 0.0
H97 H 0.52132 0.24879 0.47889 0.0
C98 C 0.60474 0.31514 0.19912 0.0
C99 C 0.56543 0.31391 0.1436 0.0
C100 C 0.61443 0.2883 0.28604 0.0
C101 C 0.5908 0.25975 0.31696 0.0
C102 C 0.5556 0.25654 0.26708 0.0
C103 C 0.5414 0.28293 0.18364 0.0
Tb104 Tb 0.05974 1.01557 0.92956 0.0
Eu105 Eu 1.00582 0.03536 0.69226 0.0
C106 C 0.09236 1.02911 0.64514 0.0
C107 C 0.03559 0.0971 0.88804 0.0
C108 C 0.12903 0.96987 0.12028 0.0
C109 C 0.1545 0.92313 0.25221 0.0
C110 C 0.13587 0.95519 0.24185 0.0
C111 C 0.1435 0.95357 1.00908 0.0
C112 C 0.16175 0.921 1.0191 0.0
C113 C 0.16555 0.90437 0.14039 0.0
C114 C 0.10158 0.99775 0.10976 0.0
O115 O 1.00509 1.00393 1.0021 0.0
O116 O 0.97294 0.04196 0.87565 0.0
O117 O 1.00749 0.97445 0.69539 0.0
O118 O 0.05947 0.96676 0.81091 0.0
C119 C 0.97554 1.02214 0.97975 0.0
O120 O 0.95222 1.02996 0.60782 0.0
O121 O 0.99374 0.0606 0.50782 0.0
O122 O 0.06005 1.028 0.5932 0.0
O123 O 0.09691 1.02901 0.77141 0.0
O124 O 0.04586 0.07174 0.96839 0.0
O125 O 1.02407 0.08938 0.77077 0.0
C126 C 1.03396 0.95397 0.73507 0.0
O127 O 0.10829 1.02398 0.03001 0.0
O128 O 0.06884 0.98552 0.09718 0.0
C129 C 0.93497 0.08231 0.49665 0.0
C130 C 0.90289 0.14967 0.46195 0.0
C131 C 0.90551 0.13479 0.58657 0.0
C132 C 0.92157 0.10133 0.60387 0.0
C133 C 0.92939 0.09552 0.37205 0.0
C134 C 0.91304 0.1286 0.35449 0.0
C135 C 0.95957 0.05214 0.51359 0.0
H136 H 0.15624 0.91113 0.34735 0.0
H137 H 0.1242 0.96684 0.32836 0.0
H138 H 0.13814 0.96442 0.91394 0.0
H139 H 0.16985 0.90726 0.93133 0.0
H140 H 0.89797 0.15028 0.6711 0.0
H141 H 0.92588 0.09163 0.70131 0.0
H142 H 0.94019 0.08156 0.28862 0.0
H143 H 0.91215 0.1392 0.25704 0.0
Tb144 Tb 0.54569 0.0518 0.97156 0.0
Eu145 Eu 0.52462 1.00488 0.72072 0.0
C146 C 0.53084 0.09114 0.70525 0.0
C147 C 0.46508 0.03277 0.91814 0.0
C148 C 0.58945 0.12182 0.16644 0.0
C149 C 0.63672 0.15674 0.0611 0.0
C150 C 0.60461 0.13688 0.05389 0.0
C151 C 0.60405 0.13043 0.28686 0.0
C152 C 0.63573 0.15056 0.2944 0.0
C153 C 0.65415 0.16128 0.18079 0.0
C154 C 0.56388 0.09177 0.15756 0.0
O155 O 0.55233 0.99715 0.04285 0.0
O156 O 0.52675 0.9633 0.88058 0.0
O157 O 0.58508 0.99928 0.73076 0.0
O158 O 0.59419 0.05099 0.84649 0.0
C159 C 0.54044 0.96626 0.99748 0.0
O160 O 0.48731 0.96645 0.63295 0.0
O161 O 0.52886 0.99118 0.51476 0.0
O162 O 0.53537 0.06074 0.64372 0.0
O163 O 0.52795 0.09193 0.83195 0.0
O164 O 0.49035 0.03263 1.00676 0.0
O165 O 0.47438 0.03257 0.79567 0.0
C166 C 0.60656 1.02516 0.7709 0.0
O167 O 0.53514 0.09684 0.08834 0.0
O168 O 0.57883 0.06109 0.13168 0.0
C169 C 0.468 0.99901 0.45426 0.0
C170 C 0.41329 0.05148 0.46473 0.0
C171 C 0.40482 1.01457 0.475 0.0
C172 C 0.43186 0.98872 0.4706 0.0
C173 C 0.47573 0.03503 0.42423 0.0
C174 C 0.44899 0.06105 0.43265 0.0
C175 C 0.49626 0.97754 0.51718 0.0
H176 H 0.64987 0.165 0.97202 0.0
H177 H 0.59361 0.13045 0.95965 0.0
H178 H 0.59318 0.11855 0.3744 0.0
H179 H 0.64805 0.15322 0.38871 0.0
H180 H 0.37743 1.00531 0.49024 0.0
H181 H 0.42489 0.96111 0.4925 0.0
H182 H 0.50322 0.04378 0.40729 0.0
H183 H 0.4571 0.08869 0.42019 0.0
Tb184 Tb 0.50791 0.53269 0.94012 0.0
Eu185 Eu 0.5635 0.5131 0.70243 0.0
C186 C 0.47731 0.51946 0.65257 0.0
C187 C 0.53292 0.45171 0.89695 0.0
C188 C 0.43393 0.57406 0.12444 0.0
C189 C 0.40227 0.62283 0.02064 0.0
C190 C 0.42135 0.59072 1.01179 0.0
C191 C 0.4233 0.58711 0.24539 0.0
C192 C 0.40417 0.61899 0.25442 0.0
C193 C 0.39635 0.63895 0.14217 0.0
C194 C 0.46361 0.54841 0.11744 0.0
O195 O 0.56209 0.5436 1.01766 0.0
O196 O 0.59539 0.50703 0.88679 0.0
O197 O 0.561 0.57381 0.70421 0.0
O198 O 0.50911 0.58169 0.82323 0.0
C199 C 0.59209 0.52611 0.99279 0.0
O200 O 0.61751 0.51871 0.61934 0.0
O201 O 0.57705 0.48683 0.52026 0.0
O202 O 0.50988 0.52001 0.60132 0.0
O203 O 0.47202 0.51997 0.77872 0.0
O204 O 0.52254 0.47693 0.97797 0.0
O205 O 0.54454 0.45937 0.77958 0.0
C206 C 0.53451 0.59424 0.74538 0.0
O207 O 0.45945 0.52129 0.03937 0.0
O208 O 0.4954 0.5631 0.10475 0.0
C209 C 0.63612 0.46544 0.51562 0.0
C210 C 0.67018 0.39852 0.49188 0.0
C211 C 0.666 0.4146 0.61425 0.0
C212 C 0.649 0.44782 0.62607 0.0
C213 C 0.64295 0.45097 0.39324 0.0
C214 C 0.66025 0.41812 0.38114 0.0
C215 C 0.61111 0.49559 0.52726 0.0
H216 H 0.39592 0.637 0.93233 0.0
H217 H 0.42921 0.58084 0.91716 0.0
H218 H 0.43297 0.57482 0.33332 0.0
H219 H 0.40014 0.63009 0.35023 0.0
H220 H 0.67328 0.40026 0.70123 0.0
H221 H 0.64372 0.45847 0.72188 0.0
H222 H 0.63263 0.46383 0.30731 0.0
H223 H 0.66227 0.40653 0.28524 0.0
Tb224 Tb 1.02691 0.49625 0.93859 0.0
Eu225 Eu 0.04668 0.55125 0.70095 0.0
C226 C 0.0395 0.4653 0.65079 0.0
C227 C 0.10891 0.52192 0.89311 0.0
C228 C 0.98322 0.42406 0.12548 0.0
C229 C 0.9322 0.39405 0.02508 0.0
C230 C 0.96529 0.41208 1.014 0.0
C231 C 0.97015 0.41401 0.2473 0.0
C232 C 0.93726 0.39594 0.25855 0.0
C233 C 0.9164 0.38846 0.14776 0.0
C234 C 1.01048 0.45266 0.11674 0.0
O235 O 1.0157 0.55008 1.01534 0.0
O236 O 0.05289 0.5834 0.88519 0.0
O237 O 0.98554 0.5486 0.70586 0.0
O238 O 0.97714 0.49716 0.82446 0.0
C239 C 1.03335 0.5801 0.99074 0.0
O240 O 0.04153 0.60494 0.61958 0.0
O241 O 0.07166 0.56442 0.51559 0.0
O242 O 0.03954 0.49762 0.59989 0.0
O243 O 0.0387 0.46022 0.77684 0.0
O244 O 0.0835 0.511 0.97417 0.0
O245 O 0.10104 0.5337 0.77661 0.0
C246 C 0.96464 0.52237 0.74783 0.0
O247 O 0.03693 0.44774 0.0354 0.0
O248 O 0.99722 0.48473 0.10687 0.0
C249 C 0.09411 0.623 0.50632 0.0
C250 C 0.16256 0.65454 0.46931 0.0
C251 C 0.14788 0.65125 0.59469 0.0
C252 C 0.11391 0.63542 0.61313 0.0
C253 C 0.10707 0.62944 0.38126 0.0
C254 C 0.14072 0.64549 0.36262 0.0
C255 C 0.06352 0.59829 0.52365 0.0
H256 H 0.91727 0.38803 0.9378 0.0
H257 H 0.97512 0.41954 0.91871 0.0
H258 H 0.98339 0.42327 0.33438 0.0
H259 H 0.92634 0.39227 0.35508 0.0
H260 H 0.1639 0.65804 0.67871 0.0
H261 H 0.10439 0.63047 0.71089 0.0
H262 H 0.09251 0.61942 0.29804 0.0
H263 H 0.15108 0.64696 0.26453 0.0
C264 C 0.15508 0.03701 0.3492 0.0
C265 C 0.18746 1.02277 0.3968 0.0
H266 H 0.09949 0.04972 0.38851 0.0
C267 C 0.18856 1.01263 0.52784 0.0
H268 H 0.15319 0.04473 0.24854 0.0
C269 C 0.15816 1.01593 0.60836 0.0
C270 C 0.12526 1.02869 0.55988 0.0
H271 H 0.2128 1.00107 0.56757 0.0
H272 H 0.16013 1.00708 0.70788 0.0
C273 C 0.12425 0.03965 0.42937 0.0
C274 C 0.52444 0.1908 0.62452 0.0
C275 C 0.52222 0.19062 0.48853 0.0
H276 H 0.52899 0.16007 0.7989 0.0
C277 C 0.52281 0.1574 0.42431 0.0
H278 H 0.52334 0.21586 0.67736 0.0
C279 C 0.52622 0.1253 0.49409 0.0
C280 C 0.52826 0.12538 0.63027 0.0
H281 H 0.52043 0.15623 0.31995 0.0
H282 H 0.52711 0.1004 0.44079 0.0
C283 C 0.52746 0.1587 0.69434 0.0
C284 C 0.38 0.52643 0.5365 0.0
C285 C 0.38145 0.51059 0.413 0.0
H286 H 0.40865 0.54128 0.70838 0.0
C287 C 0.41527 0.49967 0.36507 0.0
H288 H 0.35446 0.53521 0.57626 0.0
C289 C 0.44665 0.50351 0.44048 0.0
C290 C 0.44486 0.51784 0.56666 0.0
H291 H 0.41727 0.48736 0.27034 0.0
H292 H 0.47209 0.49422 0.40147 0.0
C293 C 0.41113 0.52971 0.61256 0.0
C294 C 1.03182 0.36826 0.53478 0.0
C295 C 0.04783 0.36956 0.41109 0.0
H296 H 1.01697 0.39699 0.70673 0.0
C297 C 0.05894 0.40319 0.36279 0.0
H298 H 1.02289 0.34288 0.57489 0.0
C299 C 0.05527 0.43452 0.43821 0.0
C300 C 0.04083 0.4329 0.56464 0.0
H301 H 0.07138 0.40509 0.26793 0.0
H302 H 0.0648 0.4598 0.399 0.0
C303 C 1.02865 0.39936 0.61072 0.0
C304 C 0.9187 0.9993 0.27928 0.0
C305 C 0.8872 1.01945 0.26036 0.0
H306 H 0.97081 0.9842 0.20749 0.0
C307 C 0.88467 0.0399 0.14643 0.0
H308 H 0.92199 0.9839 0.36716 0.0
C309 C 0.91288 0.04025 0.05444 0.0
C310 C 0.94465 1.02045 0.07439 0.0
H311 H 0.86128 0.0564 0.12995 0.0
H312 H 0.91006 0.0567 0.96889 0.0
C313 C 0.9469 0.9997 0.18778 0.0
C314 C 0.55647 0.90779 0.29445 0.0
C315 C 0.53896 0.87544 0.26215 0.0
H316 H 0.57107 0.96112 0.23771 0.0
C317 C 0.52281 0.8727 0.13944 0.0
H318 H 0.56845 0.9112 0.3891 0.0
C319 C 0.52424 0.90158 0.05158 0.0
C320 C 0.54135 0.93418 0.08499 0.0
H321 H 0.50833 0.84854 0.11257 0.0
H322 H 0.511 0.89867 0.95898 0.0
C323 C 0.55778 0.93659 0.20738 0.0
C324 C 0.64926 0.54826 0.29077 0.0
C325 C 0.68095 0.52852 0.26845 0.0
H326 H 0.59679 0.56313 0.22344 0.0
C327 C 0.68333 0.50843 0.15339 0.0
H328 H 0.64607 0.56338 0.37962 0.0
C329 C 0.6549 0.50814 0.0635 0.0
C330 C 0.62297 0.5276 0.08656 0.0
H331 H 0.70684 0.49222 0.13422 0.0
H332 H 0.65774 0.49202 0.97685 0.0
C333 C 0.62079 0.5479 0.20132 0.0
C334 C 0.04935 0.6718 0.14998 0.0
C335 C 1.02932 0.66897 0.26572 0.0
H336 H 0.06625 0.64652 0.97311 0.0
C337 C 1.01013 0.63684 0.28876 0.0
H338 H 0.0651 0.6957 0.13005 0.0
C339 C 1.011 0.60837 0.19943 0.0
C340 C 1.03131 0.61098 0.08415 0.0
H341 H 0.99509 0.63333 0.37809 0.0
H342 H 0.99619 0.58403 0.22213 0.0
C343 C 0.05018 0.64334 0.06027 0.0
C344 C 0.90181 0.23265 0.27037 0.0
C345 C 0.9316 0.24928 0.32952 0.0
H346 H 0.86696 0.18671 0.2721 0.0
C347 C 0.93882 0.24155 0.45957 0.0
H348 H 0.89521 0.23881 0.17087 0.0
C349 C 0.92315 0.21131 0.51686 0.0
C350 C 0.90008 0.18905 0.44397 0.0
H351 H 0.9612 0.2545 0.50836 0.0
H352 H 0.93405 0.20233 0.60818 0.0
C353 C 0.88586 0.20258 0.32813 0.0
C354 C 0.32006 0.08823 0.50499 0.0
C355 C 0.32186 0.11225 0.40042 0.0
H356 H 0.34904 0.04765 0.60488 0.0
C357 C 0.35478 0.13076 0.38473 0.0
H358 H 0.29447 0.0768 0.5357 0.0
C359 C 0.38655 0.11246 0.41443 0.0
C360 C 0.38438 0.07908 0.47867 0.0
H361 H 0.35661 0.1528 0.31677 0.0
H362 H 0.41139 0.12237 0.37219 0.0
C363 C 0.35147 0.07046 0.5408 0.0
C364 C 0.63783 0.30545 0.49862 0.0
C365 C 0.64565 0.29732 0.36874 0.0
H366 H 0.64035 0.34596 0.64359 0.0
C367 C 0.67587 0.3139 0.31065 0.0
H368 H 0.61548 0.29237 0.54794 0.0
C369 C 0.69044 0.34497 0.366 0.0
C370 C 0.67478 0.35911 0.47922 0.0
H371 H 0.68339 0.30724 0.21204 0.0
H372 H 0.70926 0.36093 0.30935 0.0
C373 C 0.65215 0.33663 0.55362 0.0
C374 C 0.25454 0.61854 0.46201 0.0
C375 C 0.26243 0.62616 0.33197 0.0
H376 H 0.21522 0.62272 0.61193 0.0
C377 C 0.24601 0.65585 0.27389 0.0
H378 H 0.26733 0.59621 0.50997 0.0
C379 C 0.21596 0.67144 0.33289 0.0
C380 C 0.20223 0.65699 0.449 0.0
H381 H 0.25229 0.66276 0.17441 0.0
H382 H 0.20028 0.69042 0.2779 0.0
C383 C 0.22433 0.63385 0.52053 0.0
C384 C 0.16795 0.82022 0.3201 0.0
C385 C 0.13747 0.80473 0.26144 0.0
H386 H 0.20359 0.86553 0.32042 0.0
C387 C 0.13021 0.81317 0.13189 0.0
H388 H 0.17483 0.81331 0.4187 0.0
C389 C 0.1464 0.84333 0.07602 0.0
C390 C 0.16974 0.8649 0.15031 0.0
H391 H 0.10749 0.80096 0.08265 0.0
H392 H 0.13539 0.85302 0.98583 0.0
C393 C 0.18437 0.85025 0.26372 0.0
C394 C 0.74467 0.12487 0.15731 0.0
C395 C 0.75421 0.13067 0.28692 0.0
H396 H 0.70406 0.1322 1.01588 0.0
C397 C 0.74006 0.16068 0.35144 0.0
H398 H 0.75586 0.10258 0.10349 0.0
C399 C 0.71017 0.17821 0.30021 0.0
C400 C 0.69412 0.16496 0.18653 0.0
H401 H 0.7479 0.16652 0.45016 0.0
H402 H 0.69597 0.19722 0.36086 0.0
C403 C 0.71463 0.14212 0.10675 0.0
C404 C 0.43595 0.72899 0.13205 0.0
C405 C 0.42926 0.73806 0.2617 0.0
H406 H 0.42889 0.68936 0.98669 0.0
C407 C 0.39863 0.72349 0.32346 0.0
H408 H 0.45884 0.74043 0.08065 0.0
C409 C 0.38082 0.69407 0.26848 0.0
C410 C 0.39445 0.67871 0.1539 0.0
H411 H 0.3922 0.7309 0.42232 0.0
H412 H 0.36089 0.67985 0.32628 0.0
C413 C 0.4185 0.69935 0.07788 0.0
C414 C 0.82542 0.42654 0.14408 0.0
C415 C 0.81626 0.41928 0.2734 0.0
H416 H 0.8655 0.42105 0.99796 0.0
C417 C 0.83123 0.38902 0.33295 0.0
H418 H 0.81372 0.44914 0.09424 0.0
C419 C 0.86118 0.37241 0.2769 0.0
C420 C 0.87643 0.38653 0.16258 0.0
H421 H 0.82378 0.38213 0.43144 0.0
H422 H 0.87568 0.35281 0.33329 0.0
C423 C 0.85551 0.41021 0.08861 0.0
C424 C 0.04598 0.18021 0.10446 0.0
C425 C 1.02592 0.20611 0.03785 0.0
H426 H 0.06475 0.12591 0.11068 0.0
C427 C 1.01151 0.19663 0.91661 0.0
H428 H 0.05635 0.18618 0.19997 0.0
C429 C 1.01611 0.16195 0.86518 0.0
C430 C 1.03464 0.13538 0.93478 0.0
H431 H 0.99488 0.2155 0.86483 0.0
H432 H 1.00348 0.15549 0.77372 0.0
C433 C 0.05027 0.14539 0.05383 0.0
C434 C 0.37878 1.02506 0.12002 0.0
C435 C 0.35281 0.04103 0.03994 0.0
H436 H 0.43424 1.01086 0.14673 0.0
C437 C 0.36352 0.05153 0.91464 0.0
H438 H 0.37171 1.01776 0.21842 0.0
C439 C 0.39953 0.04728 0.87256 0.0
C440 C 0.426 0.03365 0.95655 0.0
H441 H 0.34466 0.06516 0.85246 0.0
H442 H 0.40709 0.05666 0.77695 0.0
C443 C 0.41484 1.02177 0.07969 0.0
C444 C 0.52214 0.36878 0.11142 0.0
C445 C 0.54694 0.3451 0.05499 0.0
H446 H 0.49837 0.42112 0.10689 0.0
C447 C 0.56414 0.35536 0.93912 0.0
H448 H 0.50967 0.36214 0.20342 0.0
C449 C 0.55777 0.38899 0.88316 0.0
C450 C 0.53481 0.4138 0.94413 0.0
H451 H 0.58438 0.33815 0.89649 0.0
H452 H 0.57277 0.39639 0.79684 0.0
C453 C 0.51625 0.40282 0.05708 0.0
C454 C 0.2088 0.54801 0.9198 0.0
C455 C 0.21861 0.53289 0.03922 0.0
H456 H 0.16717 0.55619 0.77943 0.0
C457 C 0.19285 0.51174 0.10496 0.0
H458 H 0.22757 0.56543 0.86882 0.0
C459 C 0.15779 0.50706 0.05543 0.0
C460 C 0.14744 0.52337 0.93834 0.0
H461 H 0.19908 0.50074 0.19913 0.0
H462 H 0.13837 0.49171 0.11163 0.0
C463 C 0.1739 0.54302 0.86938 0.0
C464 C 0.06983 0.85949 0.67406 0.0
C465 C 0.04739 0.8465 0.57442 0.0
H466 H 0.08336 0.90274 0.80211 0.0
C467 C 1.01811 0.86787 0.53706 0.0
H468 H 0.09284 0.84398 0.70463 0.0
C469 C 1.01278 0.90209 0.59246 0.0
C470 C 0.0366 0.91592 0.68676 0.0
H471 H 1.00073 0.85917 0.45903 0.0
H472 H 0.99087 0.91833 0.55707 0.0
C473 C 0.06454 0.89351 0.72928 0.0
C474 C 0.70135 0.06116 0.69887 0.0
C475 C 0.71301 0.03923 0.5958 0.0
H476 H 0.6594 0.07402 0.83443 0.0
C477 C 0.69091 1.01 0.56054 0.0
H478 H 0.71752 0.08405 0.72829 0.0
C479 C 0.65712 1.00433 0.62115 0.0
C480 C 0.64449 1.02774 0.71873 0.0
H481 H 0.69863 0.99295 0.48028 0.0
H482 H 0.64017 0.98256 0.58706 0.0
C483 C 0.66774 0.05553 0.75929 0.0
C484 C 0.54956 0.67891 0.54061 0.0
C485 C 0.51972 0.69991 0.57591 0.0
H486 H 0.57769 0.62923 0.56526 0.0
C487 C 0.49729 0.68748 0.6772 0.0
H488 H 0.56698 0.68728 0.46157 0.0
C489 C 0.5031 0.65411 0.73588 0.0
C490 C 0.53154 0.63191 0.69504 0.0
H491 H 0.47391 0.70281 0.70634 0.0
H492 H 0.48426 0.64511 0.80971 0.0
C493 C 0.5554 0.64535 0.59934 0.0
C494 C 0.87873 0.53806 0.55001 0.0
C495 C 0.85679 0.50886 0.58727 0.0
H496 H 0.92974 0.56526 0.57018 0.0
C497 C 0.8692 0.48661 0.68765 0.0
H498 H 0.87046 0.55532 0.47155 0.0
C499 C 0.90334 0.49193 0.74324 0.0
C500 C 0.92637 0.51973 0.70037 0.0
H501 H 0.85321 0.46369 0.71828 0.0
H502 H 0.91221 0.47323 0.81636 0.0
C503 C 0.91302 0.54344 0.60577 0.0
loop_
_geom_bond_atom_site_label_1
_geom_bond_atom_site_label_2
_geom_bond_distance
_geom_bond_site_symmetry_2
_ccdc_geom_bond_type
H0 C7 0.929 . S
H1 C10 0.930 . S
H2 C12 0.929 . S
H3 C4 0.969 . S
C4 H3 0.969 . S
C4 O5 1.550 . S
C4 H6 0.973 . S
O5 C4 1.550 . S
O5 C11 1.412 . S
H6 C4 0.973 . S
C7 H0 0.929 . S
C7 C8 1.400 . S
C7 C9 1.364 . S
C8 C7 1.400 . S
C8 C12 1.377 . S
C9 C7 1.364 . S
C9 C10 1.374 . S
C10 H1 0.930 . S
C10 C9 1.374 . S
C10 C11 1.383 . S
C11 O5 1.412 . S
C11 C10 1.383 . S
C11 C12 1.394 . S
C12 H2 0.929 . S
C12 C8 1.377 . S
C12 C11 1.394 . S
H13 C20 0.928 1_655 S
H14 C23 0.931 . S
H15 C25 0.928 1_655 S
H16 C17 0.969 . S
C17 H16 0.969 . S
C17 O18 1.550 1_455 S
C17 H19 0.973 1_455 S
O18 C17 1.550 1_655 S
O18 C24 1.404 1_655 S
H19 C17 0.973 1_655 S
C20 H13 0.928 1_455 S
C20 C21 1.399 . S
C20 C22 1.364 . S
C21 C20 1.399 . S
C21 C25 1.377 . S
C22 C20 1.364 . S
C22 C23 1.374 1_455 S
C23 H14 0.931 . S
C23 C22 1.374 1_655 S
C23 C24 1.382 1_655 S
C24 O18 1.404 1_455 S
C24 C23 1.382 1_455 S
C24 C25 1.394 . S
C25 H15 0.928 1_455 S
C25 C21 1.377 . S
C25 C24 1.394 . S
H26 C33 0.928 1_565 S
H27 C36 0.931 . S
H28 C38 0.929 1_565 S
H29 C30 0.969 . S
C30 H29 0.969 . S
C30 O31 1.550 1_545 S
C30 H32 0.973 1_545 S
O31 C30 1.550 1_565 S
O31 C37 1.404 1_565 S
H32 C30 0.973 1_565 S
C33 H26 0.928 1_545 S
C33 C34 1.399 . S
C33 C35 1.364 . S
C34 C33 1.399 . S
C34 C38 1.377 . S
C35 C33 1.364 . S
C35 C36 1.374 1_545 S
C36 H27 0.931 . S
C36 C35 1.374 1_565 S
C36 C37 1.382 1_565 S
C37 O31 1.404 1_545 S
C37 C36 1.382 1_545 S
C37 C38 1.394 . S
C38 H28 0.929 1_545 S
C38 C34 1.377 . S
C38 C37 1.394 . S
H39 C46 0.929 . S
H40 C49 0.930 . S
H41 C51 0.929 . S
H42 C43 0.969 . S
C43 H42 0.969 . S
C43 O44 1.550 . S
C43 H45 0.973 . S
O44 C43 1.550 . S
O44 C50 1.412 . S
H45 C43 0.973 . S
C46 H39 0.929 . S
C46 C47 1.400 . S
C46 C48 1.364 . S
C47 C46 1.400 . S
C47 C51 1.377 . S
C48 C46 1.364 . S
C48 C49 1.374 . S
C49 H40 0.930 . S
C49 C48 1.374 . S
C49 C50 1.383 . S
C50 O44 1.412 . S
C50 C49 1.383 . S
C50 C51 1.394 . S
C51 H41 0.929 . S
C51 C47 1.377 . S
C51 C50 1.394 . S
H52 C59 0.929 . S
H53 C62 0.930 . S
H54 C64 0.929 . S
H55 C56 0.969 . S
C56 H55 0.969 . S
C56 O57 1.550 . S
C56 H58 0.973 . S
O57 C56 1.550 . S
O57 C63 1.412 . S
H58 C56 0.973 . S
C59 H52 0.929 . S
C59 C60 1.400 1_554 S
C59 C61 1.364 . S
C60 C59 1.400 1_556 S
C60 C64 1.377 . S
C61 C59 1.364 . S
C61 C62 1.374 . S
C62 H53 0.930 . S
C62 C61 1.374 . S
C62 C63 1.383 . S
C63 O57 1.412 . S
C63 C62 1.383 . S
C63 C64 1.394 1_554 S
C64 H54 0.929 . S
C64 C60 1.377 . S
C64 C63 1.394 1_556 S
H65 C72 0.928 1_655 S
H66 C75 0.930 . S
H67 C77 0.928 1_655 S
H68 C69 0.969 . S
C69 H68 0.969 . S
C69 O70 1.550 1_455 S
C69 H71 0.973 1_455 S
O70 C69 1.550 1_655 S
O70 C76 1.412 1_655 S
H71 C69 0.973 1_655 S
C72 H65 0.928 1_455 S
C72 C73 1.400 1_554 S
C72 C74 1.364 . S
C73 C72 1.400 1_556 S
C73 C77 1.377 . S
C74 C72 1.364 . S
C74 C75 1.374 1_455 S
C75 H66 0.930 . S
C75 C74 1.374 1_655 S
C75 C76 1.383 1_655 S
C76 O70 1.412 1_455 S
C76 C75 1.383 1_455 S
C76 C77 1.395 1_554 S
C77 H67 0.928 1_455 S
C77 C73 1.377 . S
C77 C76 1.395 1_556 S
H78 C85 0.928 1_565 S
H79 C88 0.930 . S
H80 C90 0.928 1_565 S
H81 C82 0.969 . S
C82 H81 0.969 . S
C82 O83 1.550 1_545 S
C82 H84 0.973 1_545 S
O83 C82 1.550 1_565 S
O83 C89 1.412 1_565 S
H84 C82 0.973 1_565 S
C85 H78 0.928 1_545 S
C85 C86 1.400 1_554 S
C85 C87 1.364 . S
C86 C85 1.400 1_556 S
C86 C90 1.377 . S
C87 C85 1.364 . S
C87 C88 1.374 1_545 S
C88 H79 0.930 . S
C88 C87 1.374 1_565 S
C88 C89 1.383 1_565 S
C89 O83 1.412 1_545 S
C89 C88 1.383 1_545 S
C89 C90 1.395 1_554 S
C90 H80 0.928 1_545 S
C90 C86 1.377 . S
C90 C89 1.395 1_556 S
H91 C98 0.929 . S
H92 C101 0.930 . S
H93 C103 0.929 . S
H94 C95 0.969 . S
C95 H94 0.969 . S
C95 O96 1.550 . S
C95 H97 0.973 . S
O96 C95 1.550 . S
O96 C102 1.412 . S
H97 C95 0.973 . S
C98 H91 0.929 . S
C98 C99 1.400 1_554 S
C98 C100 1.364 . S
C99 C98 1.400 1_556 S
C99 C103 1.377 . S
C100 C98 1.364 . S
C100 C101 1.374 . S
C101 H92 0.930 . S
C101 C100 1.374 . S
C101 C102 1.383 . S
C102 O96 1.412 . S
C102 C101 1.383 . S
C102 C103 1.394 1_554 S
C103 H93 0.929 . S
C103 C99 1.377 . S
C103 C102 1.394 1_556 S
Tb104 C114 2.825 1_556 S
Tb104 O115 2.347 1_455 S
Tb104 O118 2.366 . S
Tb104 O123 2.418 . S
Tb104 O124 2.384 1_565 S
Tb104 O127 2.479 1_556 S
Tb104 O128 2.471 1_556 S
Eu105 O116 2.418 . S
Eu105 O117 2.384 1_545 S
Eu105 O120 2.479 . S
Eu105 O121 2.471 . S
Eu105 O122 2.347 1_655 S
Eu105 O125 2.366 . S
Eu105 C135 2.825 . S
C106 O122 1.259 1_565 S
C106 O123 1.265 . S
C107 O124 1.255 . S
C107 O125 1.265 1_455 S
C108 C110 1.380 . S
C108 C111 1.374 . S
C108 C114 1.507 . S
C109 C110 1.384 . S
C109 C113 1.387 . S
C109 H136 0.930 . S
C110 C108 1.380 . S
C110 C109 1.384 . S
C110 H137 0.931 . S
C111 C108 1.374 . S
C111 C112 1.390 . S
C111 H138 0.930 1_455 S
C112 C111 1.390 . S
C112 C113 1.391 . S
C112 H139 0.930 1_455 S
C113 C109 1.387 . S
C113 C112 1.391 . S
C114 Tb104 2.825 1_554 S
C114 C108 1.507 . S
C114 O127 1.238 . S
C114 O128 1.247 . S
O115 Tb104 2.347 1_655 S
O115 C119 1.259 1_565 S
O116 Eu105 2.418 . S
O116 C119 1.265 . S
O117 Eu105 2.384 1_565 S
O117 C126 1.255 . S
O118 Tb104 2.366 . S
O118 C126 1.265 1_455 S
C119 O115 1.259 1_545 S
C119 O116 1.265 . S
O120 Eu105 2.479 . S
O120 C135 1.238 . S
O121 Eu105 2.471 . S
O121 C135 1.247 . S
O122 Eu105 2.347 1_455 S
O122 C106 1.259 1_545 S
O123 Tb104 2.418 . S
O123 C106 1.265 . S
O124 Tb104 2.384 1_545 S
O124 C107 1.255 . S
O125 Eu105 2.366 . S
O125 C107 1.265 1_655 S
C126 O117 1.255 . S
C126 O118 1.265 1_655 S
O127 Tb104 2.479 1_554 S
O127 C114 1.238 . S
O128 Tb104 2.471 1_554 S
O128 C114 1.247 . S
C129 C132 1.380 . S
C129 C133 1.374 . S
C129 C135 1.507 . S
C130 C131 1.387 . S
C130 C134 1.391 . S
C131 C130 1.387 . S
C131 C132 1.384 . S
C131 H140 0.930 . S
C132 C129 1.380 . S
C132 C131 1.384 . S
C132 H141 0.931 . S
C133 C129 1.374 . S
C133 C134 1.390 . S
C133 H142 0.930 1_655 S
C134 C130 1.391 . S
C134 C133 1.390 . S
C134 H143 0.930 1_655 S
C135 Eu105 2.825 . S
C135 O120 1.238 . S
C135 O121 1.247 . S
C135 C129 1.507 . S
H136 C109 0.930 . S
H137 C110 0.931 . S
H138 C111 0.930 1_655 S
H139 C112 0.930 1_655 S
H140 C131 0.930 . S
H141 C132 0.931 . S
H142 C133 0.930 1_455 S
H143 C134 0.930 1_455 S
Tb144 C154 2.825 1_556 S
Tb144 O155 2.347 1_545 S
Tb144 O158 2.366 . S
Tb144 O163 2.418 . S
Tb144 O164 2.384 . S
Tb144 O167 2.479 1_556 S
Tb144 O168 2.471 1_556 S
Eu145 O156 2.418 . S
Eu145 O157 2.384 . S
Eu145 O160 2.479 . S
Eu145 O161 2.471 . S
Eu145 O162 2.347 1_565 S
Eu145 O165 2.366 . S
Eu145 C175 2.825 . S
C146 O162 1.259 . S
C146 O163 1.265 . S
C147 O164 1.255 . S
C147 O165 1.265 1_545 S
C148 C150 1.380 . S
C148 C151 1.374 . S
C148 C154 1.507 . S
C149 C150 1.384 . S
C149 C153 1.387 . S
C149 H176 0.930 . S
C150 C148 1.380 . S
C150 C149 1.384 . S
C150 H177 0.931 . S
C151 C148 1.374 . S
C151 C152 1.390 . S
C151 H178 0.930 1_545 S
C152 C151 1.390 . S
C152 C153 1.391 . S
C152 H179 0.930 1_545 S
C153 C149 1.387 . S
C153 C152 1.391 . S
C154 Tb144 2.825 1_554 S
C154 C148 1.507 . S
C154 O167 1.238 . S
C154 O168 1.247 . S
O155 Tb144 2.347 1_565 S
O155 C159 1.259 . S
O156 Eu145 2.418 . S
O156 C159 1.265 . S
O157 Eu145 2.384 . S
O157 C166 1.255 . S
O158 Tb144 2.366 . S
O158 C166 1.265 1_545 S
C159 O155 1.259 . S
C159 O156 1.265 . S
O160 Eu145 2.479 . S
O160 C175 1.238 . S
O161 Eu145 2.471 . S
O161 C175 1.247 . S
O162 Eu145 2.347 1_545 S
O162 C146 1.259 . S
O163 Tb144 2.418 . S
O163 C146 1.265 . S
O164 Tb144 2.384 . S
O164 C147 1.255 . S
O165 Eu145 2.366 . S
O165 C147 1.265 1_565 S
C166 O157 1.255 . S
C166 O158 1.265 1_565 S
O167 Tb144 2.479 1_554 S
O167 C154 1.238 . S
O168 Tb144 2.471 1_554 S
O168 C154 1.247 . S
C169 C172 1.380 . S
C169 C173 1.374 . S
C169 C175 1.507 . S
C170 C171 1.387 . S
C170 C174 1.391 . S
C171 C170 1.387 . S
C171 C172 1.384 . S
C171 H180 0.930 . S
C172 C169 1.380 . S
C172 C171 1.384 . S
C172 H181 0.931 . S
C173 C169 1.374 . S
C173 C174 1.390 . S
C173 H182 0.930 1_565 S
C174 C170 1.391 . S
C174 C173 1.390 . S
C174 H183 0.930 1_565 S
C175 Eu145 2.825 . S
C175 O160 1.238 . S
C175 O161 1.247 . S
C175 C169 1.507 . S
H176 C149 0.930 . S
H177 C150 0.931 . S
H178 C151 0.930 1_565 S
H179 C152 0.930 1_565 S
H180 C171 0.930 . S
H181 C172 0.931 . S
H182 C173 0.930 1_545 S
H183 C174 0.930 1_545 S
Tb184 C194 2.825 1_556 S
Tb184 O195 2.347 . S
Tb184 O198 2.366 . S
Tb184 O203 2.418 . S
Tb184 O204 2.384 . S
Tb184 O207 2.479 1_556 S
Tb184 O208 2.471 1_556 S
Eu185 O196 2.418 . S
Eu185 O197 2.384 . S
Eu185 O200 2.479 . S
Eu185 O201 2.471 . S
Eu185 O202 2.347 . S
Eu185 O205 2.366 . S
Eu185 C215 2.825 . S
C186 O202 1.259 . S
C186 O203 1.265 . S
C187 O204 1.255 . S
C187 O205 1.265 . S
C188 C190 1.380 . S
C188 C191 1.374 . S
C188 C194 1.507 . S
C189 C190 1.384 . S
C189 C193 1.387 . S
C189 H216 0.930 . S
C190 C188 1.380 . S
C190 C189 1.384 . S
C190 H217 0.931 . S
C191 C188 1.374 . S
C191 C192 1.390 . S
C191 H218 0.930 . S
C192 C191 1.390 . S
C192 C193 1.391 . S
C192 H219 0.930 . S
C193 C189 1.387 . S
C193 C192 1.391 . S
C194 Tb184 2.825 1_554 S
C194 C188 1.507 . S
C194 O207 1.238 . S
C194 O208 1.247 . S
O195 Tb184 2.347 . S
O195 C199 1.259 . S
O196 Eu185 2.418 . S
O196 C199 1.265 . S
O197 Eu185 2.384 . S
O197 C206 1.255 . S
O198 Tb184 2.366 . S
O198 C206 1.265 . S
C199 O195 1.259 . S
C199 O196 1.265 . S
O200 Eu185 2.479 . S
O200 C215 1.238 . S
O201 Eu185 2.471 . S
O201 C215 1.247 . S
O202 Eu185 2.347 . S
O202 C186 1.259 . S
O203 Tb184 2.418 . S
O203 C186 1.265 . S
O204 Tb184 2.384 . S
O204 C187 1.255 . S
O205 Eu185 2.366 . S
O205 C187 1.265 . S
C206 O197 1.255 . S
C206 O198 1.265 . S
O207 Tb184 2.479 1_554 S
O207 C194 1.238 . S
O208 Tb184 2.471 1_554 S
O208 C194 1.247 . S
C209 C212 1.380 . S
C209 C213 1.374 . S
C209 C215 1.507 . S
C210 C211 1.387 . S
C210 C214 1.391 . S
C211 C210 1.387 . S
C211 C212 1.384 . S
C211 H220 0.930 . S
C212 C209 1.380 . S
C212 C211 1.384 . S
C212 H221 0.931 . S
C213 C209 1.374 . S
C213 C214 1.390 . S
C213 H222 0.930 . S
C214 C210 1.391 . S
C214 C213 1.390 . S
C214 H223 0.930 . S
C215 Eu185 2.825 . S
C215 O200 1.238 . S
C215 O201 1.247 . S
C215 C209 1.507 . S
H216 C189 0.930 . S
H217 C190 0.931 . S
H218 C191 0.930 . S
H219 C192 0.930 . S
H220 C211 0.930 . S
H221 C212 0.931 . S
H222 C213 0.930 . S
H223 C214 0.930 . S
Tb224 C234 2.825 1_556 S
Tb224 O235 2.347 . S
Tb224 O238 2.366 . S
Tb224 O243 2.418 . S
Tb224 O244 2.384 1_655 S
Tb224 O247 2.479 1_556 S
Tb224 O248 2.471 1_556 S
Eu225 O236 2.418 . S
Eu225 O237 2.384 1_455 S
Eu225 O240 2.479 . S
Eu225 O241 2.471 . S
Eu225 O242 2.347 . S
Eu225 O245 2.366 . S
Eu225 C255 2.825 . S
C226 O242 1.259 1_655 S
C226 O243 1.265 . S
C227 O244 1.255 . S
C227 O245 1.265 . S
C228 C230 1.380 . S
C228 C231 1.374 . S
C228 C234 1.507 . S
C229 C230 1.384 . S
C229 C233 1.387 . S
C229 H256 0.930 . S
C230 C228 1.380 . S
C230 C229 1.384 . S
C230 H257 0.931 . S
C231 C228 1.374 . S
C231 C232 1.390 . S
C231 H258 0.930 . S
C232 C231 1.390 . S
C232 C233 1.391 . S
C232 H259 0.930 . S
C233 C229 1.387 . S
C233 C232 1.391 . S
C234 Tb224 2.825 1_554 S
C234 C228 1.507 . S
C234 O247 1.238 . S
C234 O248 1.247 . S
O235 Tb224 2.347 . S
O235 C239 1.259 1_655 S
O236 Eu225 2.418 . S
O236 C239 1.265 . S
O237 Eu225 2.384 1_655 S
O237 C246 1.255 . S
O238 Tb224 2.366 . S
O238 C246 1.265 . S
C239 O235 1.259 1_455 S
C239 O236 1.265 . S
O240 Eu225 2.479 . S
O240 C255 1.238 . S
O241 Eu225 2.471 . S
O241 C255 1.247 . S
O242 Eu225 2.347 . S
O242 C226 1.259 1_455 S
O243 Tb224 2.418 . S
O243 C226 1.265 . S
O244 Tb224 2.384 1_455 S
O244 C227 1.255 . S
O245 Eu225 2.366 . S
O245 C227 1.265 . S
C246 O237 1.255 . S
C246 O238 1.265 . S
O247 Tb224 2.479 1_554 S
O247 C234 1.238 . S
O248 Tb224 2.471 1_554 S
O248 C234 1.247 . S
C249 C252 1.380 . S
C249 C253 1.374 . S
C249 C255 1.507 . S
C250 C251 1.387 . S
C250 C254 1.391 . S
C251 C250 1.387 . S
C251 C252 1.384 . S
C251 H260 0.930 . S
C252 C249 1.380 . S
C252 C251 1.384 . S
C252 H261 0.931 . S
C253 C249 1.374 . S
C253 C254 1.390 . S
C253 H262 0.930 . S
C254 C250 1.391 . S
C254 C253 1.390 . S
C254 H263 0.930 . S
C255 Eu225 2.825 . S
C255 O240 1.238 . S
C255 O241 1.247 . S
C255 C249 1.507 . S
H256 C229 0.930 . S
H257 C230 0.931 . S
H258 C231 0.930 . S
H259 C232 0.930 . S
H260 C251 0.930 . S
H261 C252 0.931 . S
H262 C253 0.930 . S
H263 C254 0.930 . S
C264 C265 1.389 1_545 S
C264 H268 0.950 . S
C264 C273 1.390 . S
C265 C264 1.389 1_565 S
C265 C267 1.386 . S
H266 C273 0.950 . S
C267 C265 1.386 . S
C267 C269 1.390 . S
C267 H271 0.950 . S
H268 C264 0.950 . S
C269 C267 1.390 . S
C269 C270 1.396 . S
C269 H272 0.950 . S
C270 C269 1.396 . S
C270 C273 1.379 1_565 S
H271 C267 0.950 . S
H272 C269 0.950 . S
C273 C264 1.390 . S
C273 H266 0.950 . S
C273 C270 1.379 1_545 S
C274 C275 1.387 . S
C274 H278 0.950 . S
C274 C283 1.390 . S
C275 C274 1.387 . S
C275 C277 1.387 . S
H276 C283 0.950 . S
C277 C275 1.387 . S
C277 C279 1.390 . S
C277 H281 0.950 . S
H278 C274 0.950 . S
C279 C277 1.390 . S
C279 C280 1.387 . S
C279 H282 0.950 . S
C280 C279 1.387 . S
C280 C283 1.387 . S
H281 C277 0.950 . S
H282 C279 0.950 . S
C283 C274 1.390 . S
C283 H276 0.950 . S
C283 C280 1.387 . S
C284 C285 1.387 . S
C284 H288 0.950 . S
C284 C293 1.390 . S
C285 C284 1.387 . S
C285 C287 1.387 . S
H286 C293 0.950 . S
C287 C285 1.387 . S
C287 C289 1.390 . S
C287 H291 0.950 . S
H288 C284 0.950 . S
C289 C287 1.390 . S
C289 C290 1.387 . S
C289 H292 0.950 . S
C290 C289 1.387 . S
C290 C293 1.387 . S
H291 C287 0.950 . S
H292 C289 0.950 . S
C293 C284 1.390 . S
C293 H286 0.950 . S
C293 C290 1.387 . S
C294 C295 1.377 1_655 S
C294 H298 0.950 . S
C294 C303 1.390 . S
C295 C294 1.377 1_455 S
C295 C297 1.399 . S
H296 C303 0.950 . S
C297 C295 1.399 . S
C297 C299 1.390 . S
C297 H301 0.950 . S
H298 C294 0.950 . S
C299 C297 1.390 . S
C299 C300 1.387 . S
C299 H302 0.950 . S
C300 C299 1.387 . S
C300 C303 1.387 1_455 S
H301 C297 0.950 . S
H302 C299 0.950 . S
C303 C294 1.390 . S
C303 H296 0.950 . S
C303 C300 1.387 1_655 S
C304 C305 1.382 1_565 S
C304 H308 0.950 . S
C304 C313 1.390 . S
C305 C304 1.382 1_545 S
C305 C307 1.393 . S
H306 C313 0.950 . S
C307 C305 1.393 . S
C307 C309 1.390 . S
C307 H311 0.950 . S
H308 C304 0.950 . S
C309 C307 1.390 . S
C309 C310 1.403 . S
C309 H312 0.950 . S
C310 C309 1.403 . S
C310 C313 1.372 1_545 S
H311 C307 0.950 . S
H312 C309 0.950 . S
C313 C304 1.390 . S
C313 H306 0.950 . S
C313 C310 1.372 1_565 S
C314 C315 1.387 . S
C314 H318 0.950 . S
C314 C323 1.390 . S
C315 C314 1.387 . S
C315 C317 1.387 . S
H316 C323 0.950 . S
C317 C315 1.387 . S
C317 C319 1.390 . S
C317 H321 0.950 . S
H318 C314 0.950 . S
C319 C317 1.390 . S
C319 C320 1.387 . S
C319 H322 0.950 . S
C320 C319 1.387 . S
C320 C323 1.387 . S
H321 C317 0.950 . S
H322 C319 0.950 . S
C323 C314 1.390 . S
C323 H316 0.950 . S
C323 C320 1.387 . S
C324 C325 1.387 . S
C324 H328 0.950 . S
C324 C333 1.390 . S
C325 C324 1.387 . S
C325 C327 1.387 . S
H326 C333 0.950 . S
C327 C325 1.387 . S
C327 C329 1.390 . S
C327 H331 0.950 . S
H328 C324 0.950 . S
C329 C327 1.390 . S
C329 C330 1.387 . S
C329 H332 0.950 . S
C330 C329 1.387 . S
C330 C333 1.387 . S
H331 C327 0.950 . S
H332 C329 0.950 . S
C333 C324 1.390 . S
C333 H326 0.950 . S
C333 C330 1.387 . S
C334 C335 1.400 . S
C334 H338 0.950 . S
C334 C343 1.390 . S
C335 C334 1.400 . S
C335 C337 1.375 1_655 S
H336 C343 0.950 . S
C337 C335 1.375 1_455 S
C337 C339 1.390 . S
C337 H341 0.950 . S
H338 C334 0.950 . S
C339 C337 1.390 . S
C339 C340 1.360 1_455 S
C339 H342 0.950 . S
C340 C339 1.360 1_655 S
C340 C343 1.415 . S
H341 C337 0.950 . S
H342 C339 0.950 . S
C343 C334 1.390 . S
C343 H336 0.950 . S
C343 C340 1.415 . S
C344 C345 1.397 . S
C344 H348 0.950 . S
C344 C353 1.390 . S
C345 C344 1.397 . S
C345 C347 1.388 . S
H346 C353 0.950 . S
C347 C345 1.388 . S
C347 C349 1.390 . S
C347 H351 0.950 1_655 S
H348 C344 0.950 . S
C349 C347 1.390 . S
C349 C350 1.387 . S
C349 H352 0.950 . S
C350 C349 1.387 . S
C350 C353 1.387 . S
H351 C347 0.950 1_455 S
H352 C349 0.950 . S
C353 C344 1.390 . S
C353 H346 0.950 . S
C353 C350 1.387 . S
C354 C355 1.398 . S
C354 H358 0.950 . S
C354 C363 1.390 . S
C355 C354 1.398 . S
C355 C357 1.385 1_565 S
H356 C363 0.950 . S
C357 C355 1.385 1_545 S
C357 C359 1.390 1_545 S
C357 H361 0.950 . S
H358 C354 0.950 . S
C359 C357 1.390 1_565 S
C359 C360 1.387 . S
C359 H362 0.950 . S
C360 C359 1.387 . S
C360 C363 1.387 . S
H361 C357 0.950 . S
H362 C359 0.950 . S
C363 C354 1.390 . S
C363 H356 0.950 . S
C363 C360 1.387 . S
C364 C365 1.387 . S
C364 H368 0.950 . S
C364 C373 1.390 . S
C365 C364 1.387 . S
C365 C367 1.387 . S
H366 C373 0.950 . S
C367 C365 1.387 . S
C367 C369 1.390 . S
C367 H371 0.950 . S
H368 C364 0.950 . S
C369 C367 1.390 . S
C369 C370 1.387 . S
C369 H372 0.950 . S
C370 C369 1.387 . S
C370 C373 1.387 . S
H371 C367 0.950 . S
H372 C369 0.950 . S
C373 C364 1.390 . S
C373 H366 0.950 . S
C373 C370 1.387 . S
C374 C375 1.387 . S
C374 H378 0.950 . S
C374 C383 1.390 . S
C375 C374 1.387 . S
C375 C377 1.387 . S
H376 C383 0.950 . S
C377 C375 1.387 . S
C377 C379 1.390 . S
C377 H381 0.950 . S
H378 C374 0.950 . S
C379 C377 1.390 . S
C379 C380 1.387 . S
C379 H382 0.950 . S
C380 C379 1.387 . S
C380 C383 1.387 . S
H381 C377 0.950 . S
H382 C379 0.950 . S
C383 C374 1.390 . S
C383 H376 0.950 . S
C383 C380 1.387 . S
C384 C385 1.402 . S
C384 H388 0.950 . S
C384 C393 1.390 . S
C385 C384 1.402 . S
C385 C387 1.387 . S
H386 C393 0.950 . S
C387 C385 1.387 . S
C387 C389 1.409 . S
C387 H391 0.931 1_455 S
H388 C384 0.950 . S
C389 C387 1.409 . S
C389 C390 1.387 . S
C389 H392 0.950 . S
C390 C389 1.387 . S
C390 C393 1.387 . S
H391 C387 0.931 1_655 S
H392 C389 0.950 . S
C393 C384 1.390 . S
C393 H386 0.950 . S
C393 C390 1.387 . S
C394 C395 1.379 1_565 S
C394 H398 0.950 . S
C394 C403 1.390 1_565 S
C395 C394 1.379 1_545 S
C395 C397 1.410 . S
H396 C403 0.950 . S
C397 C395 1.410 . S
C397 C399 1.390 . S
C397 H401 0.950 . S
H398 C394 0.950 . S
C399 C397 1.390 . S
C399 C400 1.387 . S
C399 H402 0.950 . S
C400 C399 1.387 . S
C400 C403 1.387 . S
H401 C397 0.950 . S
H402 C399 0.950 . S
C403 C394 1.390 1_545 S
C403 H396 0.950 . S
C403 C400 1.387 . S
C404 C405 1.387 . S
C404 H408 0.950 . S
C404 C413 1.390 . S
C405 C404 1.387 . S
C405 C407 1.387 . S
H406 C413 0.950 . S
C407 C405 1.387 . S
C407 C409 1.390 . S
C407 H411 0.950 . S
H408 C404 0.950 . S
C409 C407 1.390 . S
C409 C410 1.387 . S
C409 H412 0.950 . S
C410 C409 1.387 . S
C410 C413 1.387 . S
H411 C407 0.950 . S
H412 C409 0.950 . S
C413 C404 1.390 . S
C413 H406 0.950 . S
C413 C410 1.387 . S
C414 C415 1.387 . S
C414 H418 0.950 . S
C414 C423 1.390 . S
C415 C414 1.387 . S
C415 C417 1.387 . S
H416 C423 0.950 . S
C417 C415 1.387 . S
C417 C419 1.390 . S
C417 H421 0.950 . S
H418 C414 0.950 . S
C419 C417 1.390 . S
C419 C420 1.387 . S
C419 H422 0.950 . S
C420 C419 1.387 . S
C420 C423 1.387 . S
H421 C417 0.950 . S
H422 C419 0.950 . S
C423 C414 1.390 . S
C423 H416 0.950 . S
C423 C420 1.387 . S
C424 C425 1.387 . S
C424 H428 0.950 1_556 S
C424 C433 1.390 . S
C425 C424 1.387 . S
C425 C427 1.387 . S
H426 C433 0.950 1_554 S
C427 C425 1.387 . S
C427 C429 1.390 . S
C427 H431 0.950 . S
H428 C424 0.950 1_554 S
C429 C427 1.390 . S
C429 C430 1.387 . S
C429 H432 0.950 . S
C430 C429 1.387 . S
C430 C433 1.387 . S
H431 C427 0.950 . S
H432 C429 0.950 . S
C433 C424 1.390 . S
C433 H426 0.950 1_556 S
C433 C430 1.387 . S
C434 C435 1.387 1_565 S
C434 H438 0.950 1_556 S
C434 C443 1.390 . S
C435 C434 1.387 1_545 S
C435 C437 1.387 . S
H436 C443 0.950 1_554 S
C437 C435 1.387 . S
C437 C439 1.390 . S
C437 H441 0.950 . S
H438 C434 0.950 1_554 S
C439 C437 1.390 . S
C439 C440 1.387 . S
C439 H442 0.950 . S
C440 C439 1.387 . S
C440 C443 1.387 1_545 S
H441 C437 0.950 . S
H442 C439 0.950 . S
C443 C434 1.390 . S
C443 H436 0.950 1_556 S
C443 C440 1.387 1_565 S
C444 C445 1.387 . S
C444 H448 0.950 1_556 S
C444 C453 1.390 . S
C445 C444 1.387 . S
C445 C447 1.387 . S
H446 C453 0.950 1_554 S
C447 C445 1.387 . S
C447 C449 1.390 . S
C447 H451 0.950 . S
H448 C444 0.950 1_554 S
C449 C447 1.390 . S
C449 C450 1.387 . S
C449 H452 0.950 . S
C450 C449 1.387 . S
C450 C453 1.387 . S
H451 C447 0.950 . S
H452 C449 0.950 . S
C453 C444 1.390 . S
C453 H446 0.950 1_556 S
C453 C450 1.387 . S
C454 C455 1.387 . S
C454 H458 0.950 . S
C454 C463 1.390 . S
C455 C454 1.387 . S
C455 C457 1.387 . S
H456 C463 0.950 . S
C457 C455 1.387 . S
C457 C459 1.390 . S
C457 H461 0.950 1_556 S
H458 C454 0.950 . S
C459 C457 1.390 . S
C459 C460 1.387 . S
C459 H462 0.950 1_556 S
C460 C459 1.387 . S
C460 C463 1.387 . S
H461 C457 0.950 1_554 S
H462 C459 0.950 1_554 S
C463 C454 1.390 . S
C463 H456 0.950 . S
C463 C460 1.387 . S
C464 C465 1.387 1_455 S
C464 H468 0.950 . S
C464 C473 1.390 . S
C465 C464 1.387 1_655 S
C465 C467 1.387 . S
H466 C473 0.950 . S
C467 C465 1.387 . S
C467 C469 1.390 . S
C467 H471 0.950 . S
H468 C464 0.950 . S
C469 C467 1.390 . S
C469 C470 1.387 . S
C469 H472 0.950 . S
C470 C469 1.387 . S
C470 C473 1.387 1_655 S
H471 C467 0.950 . S
H472 C469 0.950 . S
C473 C464 1.390 . S
C473 H466 0.950 . S
C473 C470 1.387 1_455 S
C474 C475 1.387 1_545 S
C474 H478 0.950 . S
C474 C483 1.390 1_545 S
C475 C474 1.387 1_565 S
C475 C477 1.387 . S
H476 C483 0.950 1_545 S
C477 C475 1.387 . S
C477 C479 1.390 . S
C477 H481 0.950 . S
H478 C474 0.950 . S
C479 C477 1.390 . S
C479 C480 1.387 . S
C479 H482 0.950 . S
C480 C479 1.387 . S
C480 C483 1.387 . S
H481 C477 0.950 . S
H482 C479 0.950 . S
C483 C474 1.390 1_565 S
C483 H476 0.950 1_565 S
C483 C480 1.387 . S
C484 C485 1.387 . S
C484 H488 0.950 . S
C484 C493 1.390 . S
C485 C484 1.387 . S
C485 C487 1.387 . S
H486 C493 0.950 . S
C487 C485 1.387 . S
C487 C489 1.390 . S
C487 H491 0.950 . S
H488 C484 0.950 . S
C489 C487 1.390 . S
C489 C490 1.387 . S
C489 H492 0.950 . S
C490 C489 1.387 . S
C490 C493 1.387 . S
H491 C487 0.950 . S
H492 C489 0.950 . S
C493 C484 1.390 . S
C493 H486 0.950 . S
C493 C490 1.387 . S
C494 C495 1.387 . S
C494 H498 0.950 . S
C494 C503 1.390 . S
C495 C494 1.387 . S
C495 C497 1.387 . S
H496 C503 0.950 . S
C497 C495 1.387 . S
C497 C499 1.390 . S
C497 H501 0.950 . S
H498 C494 0.950 . S
C499 C497 1.390 . S
C499 C500 1.387 . S
C499 H502 0.950 . S
C500 C499 1.387 . S
C500 C503 1.387 . S
H501 C497 0.950 . S
H502 C499 0.950 . S
C503 C494 1.390 . S
C503 H496 0.950 . S
C503 C500 1.387 . S
C265 C82 1.760 1_565 S
C270 C106 2.194 . S
C280 C146 2.212 . S
C275 C95 1.762 . S
C290 C186 2.223 . S
C285 C56 1.780 . S
C300 C226 2.206 1_455 S
C295 C69 1.777 . S
C310 C119 2.197 1_554 S
C305 C30 1.765 . S
C315 C43 1.795 . S
C320 C159 2.214 1_554 S
C325 C4 1.810 . S
C330 C199 2.223 1_554 S
C335 C17 1.777 1_655 S
C340 C239 2.205 1_654 S
C350 C130 0.782 . S
C345 C74 0.780 1_655 S
C360 C170 0.780 . S
C355 C87 0.780 1_565 S
C370 C210 0.771 . S
C365 C100 0.770 . S
C375 C61 0.764 . S
C380 C250 0.763 . S
C385 C22 0.774 . S
C390 C113 0.779 . S
C400 C153 0.777 . S
C395 C35 0.778 . S
C410 C193 0.764 . S
C405 C48 0.764 . S
C415 C9 0.764 . S
C420 C233 0.766 . S
C425 C73 2.238 . S
C430 C107 2.563 . S
C435 C86 2.196 . S
C440 C147 2.525 . S
C450 C187 2.512 . S
C445 C99 2.179 . S
C460 C227 2.554 . S
C455 C60 2.218 . S
C465 C21 2.241 1_655 S
C470 C126 2.571 . S
C480 C166 2.526 . S
C475 C34 2.197 1_565 S
C490 C206 2.512 . S
C485 C47 2.185 . S
C495 C8 2.226 . S
C500 C246 2.557 . S
