# Generated by pormake.
# Topology nom, (4,4)-cn, num edge types: 1
# Building blocks:
#     Node 0, Type 0, BuildingBlock: AZAVOO_clean_linker_0, # of connection points: 4
#     Node 1, Type 0, BuildingBlock: AZAVOO_clean_linker_0, # of connection points: 4
#     Node 2, Type 0, BuildingBlock: AZAVOO_clean_linker_0, # of connection points: 4
#     Node 3, Type 0, BuildingBlock: AZAVOO_clean_linker_0, # of connection points: 4
#     Node 4, Type 0, BuildingBlock: AZAVOO_clean_linker_0, # of connection points: 4
#     Node 5, Type 0, BuildingBlock: AZAVOO_clean_linker_0, # of connection points: 4
#     Node 6, Type 1, BuildingBlock: QUQFOY_clean_sbu_1, # of connection points: 4
#     Node 7, Type 1, BuildingBlock: QUQFOY_clean_sbu_1, # of connection points: 4
#     Node 8, Type 1, BuildingBlock: QUQFOY_clean_sbu_1, # of connection points: 4
#     Node 9, Type 1, BuildingBlock: QUQFOY_clean_sbu_1, # of connection points: 4
#     Node 10, Type 1, BuildingBlock: QUQFOY_clean_sbu_1, # of connection points: 4
#     Node 11, Type 1, BuildingBlock: QUQFOY_clean_sbu_1, # of connection points: 4
#     Edge 12, Type (0, 1), BuildingBlock: KIFKEQ_clean_linker_1, # of connection points: 2
#     Edge 13, Type (0, 1), BuildingBlock: KIFKEQ_clean_linker_1, # of connection points: 2
#     Edge 14, Type (0, 1), BuildingBlock: KIFKEQ_clean_linker_1, # of connection points: 2
#     Edge 15, Type (0, 1), BuildingBlock: KIFKEQ_clean_linker_1, # of connection points: 2
#     Edge 16, Type (0, 1), BuildingBlock: KIFKEQ_clean_linker_1, # of connection points: 2
#     Edge 17, Type (0, 1), BuildingBlock: KIFKEQ_clean_linker_1, # of connection points: 2
#     Edge 18, Type (0, 1), BuildingBlock: KIFKEQ_clean_linker_1, # of connection points: 2
#     Edge 19, Type (0, 1), BuildingBlock: KIFKEQ_clean_linker_1, # of connection points: 2
#     Edge 20, Type (0, 1), BuildingBlock: KIFKEQ_clean_linker_1, # of connection points: 2
#     Edge 21, Type (0, 1), BuildingBlock: KIFKEQ_clean_linker_1, # of connection points: 2
#     Edge 22, Type (0, 1), BuildingBlock: KIFKEQ_clean_linker_1, # of connection points: 2
#     Edge 23, Type (0, 1), BuildingBlock: KIFKEQ_clean_linker_1, # of connection points: 2
#     Edge 24, Type (0, 1), BuildingBlock: KIFKEQ_clean_linker_1, # of connection points: 2
#     Edge 25, Type (0, 1), BuildingBlock: KIFKEQ_clean_linker_1, # of connection points: 2
#     Edge 26, Type (0, 1), BuildingBlock: KIFKEQ_clean_linker_1, # of connection points: 2
#     Edge 27, Type (0, 1), BuildingBlock: KIFKEQ_clean_linker_1, # of connection points: 2
#     Edge 28, Type (0, 1), BuildingBlock: KIFKEQ_clean_linker_1, # of connection points: 2
#     Edge 29, Type (0, 1), BuildingBlock: KIFKEQ_clean_linker_1, # of connection points: 2
#     Edge 30, Type (0, 1), BuildingBlock: KIFKEQ_clean_linker_1, # of connection points: 2
#     Edge 31, Type (0, 1), BuildingBlock: KIFKEQ_clean_linker_1, # of connection points: 2
#     Edge 32, Type (0, 1), BuildingBlock: KIFKEQ_clean_linker_1, # of connection points: 2
#     Edge 33, Type (0, 1), BuildingBlock: KIFKEQ_clean_linker_1, # of connection points: 2
#     Edge 34, Type (0, 1), BuildingBlock: KIFKEQ_clean_linker_1, # of connection points: 2
#     Edge 35, Type (0, 1), BuildingBlock: KIFKEQ_clean_linker_1, # of connection points: 2
# Relax obj value: 0.178
# Max RMSD: 0.248
# Mean RMSD: 0.188
data_MOF--net-nom--node1-QUQFOY_clean_sbu_1--node2-AZAVOO_clean_linker_0--edge1-KIFKEQ_clean_linker_1
_symmetry_space_group_name_H-M    P1
_symmetry_Int_Tables_number       1
_symmetry_cell_setting            triclinic
loop_
_symmetry_equiv_pos_as_xyz
'x, y, z'
_cell_length_a     50.430535
_cell_length_b     52.126456
_cell_length_c     58.211815
_cell_angle_alpha  90.155266
_cell_angle_beta   89.773222
_cell_angle_gamma 120.87734
loop_
_atom_site_label
_atom_site_type_symbol
_atom_site_fract_x
_atom_site_fract_y
_atom_site_fract_z
_atom_type_partial_charge
H0 H 0.05525 0.44399 0.17135 0.0
H1 H 0.21501 0.66936 0.3716 0.0
H2 H 0.99097 0.4431 0.283 0.0
H3 H 0.94889 0.41648 0.25547 0.0
H4 H 0.93931 0.49416 0.25064 0.0
H5 H 0.98053 0.51997 0.2787 0.0
H6 H 0.06685 0.47525 0.26888 0.0
H7 H 0.06607 0.45741 0.22981 0.0
H8 H 0.02521 0.50767 0.20545 0.0
H9 H 0.02663 0.52574 0.24449 0.0
H10 H 0.1285 0.53166 0.3017 0.0
H11 H 0.17904 0.56621 0.2854 0.0
H12 H 0.1363 0.59773 0.23771 0.0
H13 H 0.08692 0.56636 0.25641 0.0
H14 H 0.10635 0.52802 0.34938 0.0
H15 H 0.15199 0.56399 0.37105 0.0
H16 H 0.15461 0.63631 0.33285 0.0
H17 H 0.10859 0.60009 0.31159 0.0
H18 H 0.04155 0.49456 0.36568 0.0
H19 H 0.06313 0.51296 0.40365 0.0
H20 H 0.07676 0.59961 0.38639 0.0
H21 H 0.0564 0.58117 0.34801 0.0
H22 H 0.96818 0.45608 0.32967 0.0
H23 H 0.91793 0.44577 0.34426 0.0
H24 H 0.95269 0.54076 0.34691 0.0
H25 H 0.00177 0.5506 0.33113 0.0
O26 O 0.05553 0.45147 0.18664 0.0
O27 O 0.03422 0.47744 0.17505 0.0
O28 O 0.19458 0.61664 0.38239 0.0
O29 O 0.19732 0.65461 0.36295 0.0
C30 C 0.01816 0.50162 0.29528 0.0
C31 C 0.04646 0.51165 0.28346 0.0
C32 C 0.07476 0.5317 0.29424 0.0
C33 C 0.07475 0.53985 0.31742 0.0
C34 C 0.04652 0.52896 0.32943 0.0
C35 C 0.01814 0.5108 0.31816 0.0
C36 C 0.98878 0.48343 0.28271 0.0
C37 C 0.97906 0.45392 0.27646 0.0
C38 C 0.95528 0.43893 0.26056 0.0
C39 C 0.94103 0.45334 0.25053 0.0
C40 C 0.94949 0.48221 0.25813 0.0
C41 C 0.97309 0.49707 0.27416 0.0
C42 C 0.04649 0.5015 0.25957 0.0
C43 C 0.05783 0.48244 0.25506 0.0
C44 C 0.0573 0.47224 0.23274 0.0
C45 C 0.04544 0.48099 0.21452 0.0
C46 C 0.03437 0.50038 0.21909 0.0
C47 C 0.03502 0.51062 0.2414 0.0
C48 C 0.104 0.54689 0.28068 0.0
C49 C 0.13013 0.54606 0.28771 0.0
C50 C 0.15908 0.56564 0.27805 0.0
C51 C 0.16224 0.58564 0.2605 0.0
C52 C 0.13527 0.58377 0.25181 0.0
C53 C 0.10668 0.56521 0.26216 0.0
C54 C 0.10417 0.56148 0.32897 0.0
C55 C 0.11692 0.55164 0.34566 0.0
C56 C 0.14297 0.57223 0.35801 0.0
C57 C 0.15689 0.60306 0.35374 0.0
C58 C 0.14443 0.61275 0.3366 0.0
C59 C 0.11826 0.59213 0.32435 0.0
C60 C 0.0476 0.53656 0.35409 0.0
C61 C 0.04793 0.51711 0.37048 0.0
C62 C 0.06045 0.5278 0.3922 0.0
C63 C 0.07246 0.55806 0.39792 0.0
C64 C 0.06855 0.57644 0.38233 0.0
C65 C 0.05636 0.56581 0.36053 0.0
C66 C 0.98873 0.50411 0.32939 0.0
C67 C 0.96488 0.4746 0.33352 0.0
C68 C 0.93626 0.46878 0.342 0.0
C69 C 0.9311 0.49242 0.34657 0.0
C70 C 0.95553 0.52195 0.34315 0.0
C71 C 0.98386 0.52768 0.33447 0.0
C72 C 0.04468 0.46994 0.19086 0.0
C73 C 0.18407 0.62507 0.36724 0.0
H74 H 0.50876 0.07176 0.33945 0.0
H75 H 0.48778 0.21425 0.56333 0.0
H76 H 0.5017 0.02061 0.46001 0.0
H77 H 0.49741 0.9803 0.43599 0.0
H78 H 0.39787 0.93418 0.4421 0.0
H79 H 0.40251 0.97541 0.46571 0.0
H80 H 0.51973 0.08027 0.43958 0.0
H81 H 0.52458 0.08152 0.39769 0.0
H82 H 0.42501 0.03058 0.3918 0.0
H83 H 0.42051 0.02981 0.4337 0.0
H84 H 0.53464 0.12452 0.47734 0.0
H85 H 0.55871 0.17268 0.45767 0.0
H86 H 0.46963 0.15038 0.43053 0.0
H87 H 0.446 0.10172 0.44978 0.0
H88 H 0.5205 0.11119 0.52916 0.0
H89 H 0.53322 0.15518 0.55246 0.0
H90 H 0.45358 0.1551 0.52508 0.0
H91 H 0.44083 0.11078 0.50218 0.0
H92 H 0.49569 0.04444 0.54211 0.0
H93 H 0.50653 0.06106 0.58198 0.0
H94 H 0.43164 0.07872 0.58104 0.0
H95 H 0.42105 0.06209 0.54098 0.0
H96 H 0.47424 0.98914 0.50784 0.0
H97 H 0.44733 0.93884 0.52442 0.0
H98 H 0.36841 0.94786 0.53924 0.0
H99 H 0.39493 0.99743 0.52171 0.0
O100 O 0.50631 0.07104 0.35599 0.0
O101 O 0.45503 0.04463 0.35392 0.0
O102 O 0.52377 0.19574 0.56801 0.0
O103 O 0.48353 0.19712 0.55406 0.0
C104 C 0.45583 0.0272 0.47701 0.0
C105 C 0.46672 0.0544 0.46504 0.0
C106 C 0.47446 0.08074 0.47721 0.0
C107 C 0.47072 0.07979 0.50126 0.0
C108 C 0.45871 0.05233 0.51316 0.0
C109 C 0.45097 0.02591 0.50103 0.0
C110 C 0.45242 0.00096 0.46442 0.0
C111 C 0.47898 0.00164 0.45633 0.0
C112 C 0.47647 0.97844 0.44279 0.0
C113 C 0.44728 0.95398 0.43714 0.0
C114 C 0.42066 0.95286 0.44598 0.0
C115 C 0.42322 0.97624 0.45953 0.0
C116 C 0.46978 0.05514 0.43963 0.0
C117 C 0.49901 0.06958 0.42919 0.0
C118 C 0.5017 0.07016 0.40527 0.0
C119 C 0.47517 0.05619 0.39138 0.0
C120 C 0.4459 0.04159 0.40197 0.0
C121 C 0.44326 0.0411 0.42588 0.0
C122 C 0.48862 0.10979 0.46503 0.0
C123 C 0.52039 0.13008 0.4671 0.0
C124 C 0.53404 0.15763 0.45593 0.0
C125 C 0.5161 0.16553 0.4426 0.0
C126 C 0.48421 0.1449 0.44041 0.0
C127 C 0.47061 0.11721 0.4515 0.0
C128 C 0.47967 0.10776 0.5141 0.0
C129 C 0.50589 0.12077 0.5282 0.0
C130 C 0.51309 0.14588 0.54147 0.0
C131 C 0.49434 0.1586 0.54069 0.0
C132 C 0.46846 0.14584 0.52613 0.0
C133 C 0.46119 0.12062 0.51296 0.0
C134 C 0.45787 0.05245 0.53862 0.0
C135 C 0.48076 0.05064 0.55082 0.0
C136 C 0.48697 0.06024 0.57361 0.0
C137 C 0.47033 0.07178 0.58447 0.0
C138 C 0.4452 0.07046 0.57294 0.0
C139 C 0.43892 0.06072 0.55017 0.0
C140 C 0.43637 0.99678 0.51326 0.0
C141 C 0.45115 0.98021 0.5147 0.0
C142 C 0.43582 0.95158 0.52437 0.0
C143 C 0.40553 0.93913 0.53295 0.0
C144 C 0.39143 0.95645 0.53236 0.0
C145 C 0.40666 0.98491 0.52255 0.0
C146 C 0.47811 0.05687 0.36598 0.0
C147 C 0.50156 0.18494 0.55509 0.0
H148 H 0.59484 0.58482 0.79802 0.0
H149 H 0.58899 0.43923 0.56116 0.0
H150 H 0.57938 0.62797 0.68446 0.0
H151 H 0.56184 0.64541 0.71694 0.0
H152 H 0.46731 0.5782 0.70183 0.0
H153 H 0.48505 0.56053 0.66955 0.0
H154 H 0.60922 0.58858 0.69808 0.0
H155 H 0.61267 0.59158 0.74004 0.0
H156 H 0.51305 0.53793 0.74466 0.0
H157 H 0.50999 0.53467 0.70274 0.0
H158 H 0.62346 0.54842 0.66161 0.0
H159 H 0.63348 0.51027 0.67685 0.0
H160 H 0.53788 0.45723 0.69794 0.0
H161 H 0.52795 0.49473 0.68205 0.0
H162 H 0.62138 0.56626 0.61329 0.0
H163 H 0.63716 0.53891 0.5879 0.0
H164 H 0.54962 0.45784 0.60022 0.0
H165 H 0.5341 0.48556 0.62545 0.0
H166 H 0.59528 0.5991 0.59349 0.0
H167 H 0.60415 0.58566 0.55526 0.0
H168 H 0.51601 0.50306 0.55884 0.0
H169 H 0.50829 0.51601 0.59752 0.0
H170 H 0.55483 0.63301 0.63237 0.0
H171 H 0.52176 0.65024 0.61591 0.0
H172 H 0.45313 0.55896 0.5993 0.0
H173 H 0.48557 0.54199 0.61626 0.0
O174 O 0.59299 0.58291 0.78148 0.0
O175 O 0.54167 0.55586 0.78287 0.0
O176 O 0.62871 0.49248 0.56639 0.0
O177 O 0.58373 0.45037 0.57168 0.0
C178 C 0.54466 0.57668 0.66065 0.0
C179 C 0.55738 0.56134 0.67191 0.0
C180 C 0.56735 0.54492 0.65901 0.0
C181 C 0.56611 0.54508 0.63487 0.0
C182 C 0.55294 0.55995 0.62363 0.0
C183 C 0.54126 0.575 0.63651 0.0
C184 C 0.53349 0.59287 0.67482 0.0
C185 C 0.55482 0.61777 0.68764 0.0
C186 C 0.54482 0.62753 0.70624 0.0
C187 C 0.51332 0.61279 0.71201 0.0
C188 C 0.49171 0.58995 0.69765 0.0
C189 C 0.50177 0.57995 0.67917 0.0
C190 C 0.55937 0.56166 0.6974 0.0
C191 C 0.58821 0.57731 0.70821 0.0
C192 C 0.59009 0.57907 0.73217 0.0
C193 C 0.56312 0.56515 0.74571 0.0
C194 C 0.53426 0.54902 0.73476 0.0
C195 C 0.53244 0.54717 0.71082 0.0
C196 C 0.57497 0.52425 0.67069 0.0
C197 C 0.60484 0.52865 0.66973 0.0
C198 C 0.61053 0.50695 0.67851 0.0
C199 C 0.58636 0.48059 0.68833 0.0
C200 C 0.55683 0.47701 0.69008 0.0
C201 C 0.55118 0.49855 0.68126 0.0
C202 C 0.57664 0.52786 0.62114 0.0
C203 C 0.6058 0.54254 0.61062 0.0
C204 C 0.61469 0.52688 0.5961 0.0
C205 C 0.59459 0.49619 0.59197 0.0
C206 C 0.56563 0.48144 0.603 0.0
C207 C 0.55675 0.49716 0.61749 0.0
C208 C 0.5512 0.55853 0.59826 0.0
C209 C 0.5772 0.57885 0.58551 0.0
C210 C 0.58229 0.57099 0.56367 0.0
C211 C 0.56117 0.54286 0.5543 0.0
C212 C 0.53311 0.52452 0.56588 0.0
C213 C 0.52829 0.53218 0.5878 0.0
C214 C 0.52291 0.58627 0.62509 0.0
C215 C 0.53278 0.61684 0.62495 0.0
C216 C 0.51388 0.62661 0.61563 0.0
C217 C 0.48504 0.60597 0.60607 0.0
C218 C 0.47551 0.57547 0.60605 0.0
C219 C 0.4941 0.56573 0.61564 0.0
C220 C 0.56515 0.5676 0.77113 0.0
C221 C 0.60352 0.47966 0.57595 0.0
H222 H 0.00093 0.40821 0.96745 0.0
H223 H 0.21399 0.51822 0.74626 0.0
H224 H 0.96852 0.44494 0.83647 0.0
H225 H 0.92757 0.42885 0.86498 0.0
H226 H 0.92627 0.34584 0.87351 0.0
H227 H 0.96758 0.36236 0.84482 0.0
H228 H 0.01527 0.45498 0.87413 0.0
H229 H 0.00799 0.44229 0.91501 0.0
H230 H 0.02834 0.37236 0.90227 0.0
H231 H 0.0351 0.38505 0.86135 0.0
H232 H 0.08448 0.49696 0.85094 0.0
H233 H 0.13318 0.52127 0.87222 0.0
H234 H 0.1421 0.44404 0.8609 0.0
H235 H 0.09307 0.41978 0.83973 0.0
H236 H 0.09119 0.51055 0.79702 0.0
H237 H 0.14106 0.54002 0.77754 0.0
H238 H 0.14825 0.46103 0.77204 0.0
H239 H 0.09813 0.43178 0.79126 0.0
H240 H 0.02903 0.48858 0.77714 0.0
H241 H 0.05269 0.51684 0.74205 0.0
H242 H 0.07361 0.4497 0.72062 0.0
H243 H 0.04889 0.42108 0.75543 0.0
H244 H 0.97526 0.45616 0.79125 0.0
H245 H 0.92458 0.43585 0.77312 0.0
H246 H 0.91707 0.34962 0.76764 0.0
H247 H 0.96796 0.37037 0.78526 0.0
O248 O 0.00432 0.41311 0.95126 0.0
O249 O 0.01593 0.3781 0.94394 0.0
O250 O 0.18935 0.54702 0.75715 0.0
O251 O 0.1944 0.50719 0.75421 0.0
C252 C 0.00123 0.41846 0.82668 0.0
C253 C 0.0281 0.42735 0.83985 0.0
C254 C 0.0574 0.44361 0.8295 0.0
C255 C 0.06001 0.4509 0.806 0.0
C256 C 0.03319 0.44203 0.79276 0.0
C257 C 0.00375 0.42561 0.80307 0.0
C258 C 0.97096 0.4048 0.83858 0.0
C259 C 0.95847 0.42274 0.84374 0.0
C260 C 0.93511 0.41351 0.86014 0.0
C261 C 0.92394 0.38621 0.87173 0.0
C262 C 0.93475 0.36718 0.8651 0.0
C263 C 0.95808 0.37641 0.84859 0.0
C264 C 0.02559 0.42085 0.86484 0.0
C265 C 0.0182 0.43698 0.88024 0.0
C266 C 0.01405 0.42967 0.90357 0.0
C267 C 0.01749 0.40625 0.91191 0.0
C268 C 0.02547 0.39049 0.89641 0.0
C269 C 0.02946 0.39775 0.87307 0.0
C270 C 0.08549 0.45675 0.84384 0.0
C271 C 0.09683 0.48521 0.85331 0.0
C272 C 0.12462 0.49905 0.86534 0.0
C273 C 0.14145 0.48458 0.86809 0.0
C274 C 0.12944 0.45557 0.85921 0.0
C275 C 0.10162 0.44177 0.84706 0.0
C276 C 0.0911 0.46907 0.79543 0.0
C277 C 0.10364 0.49971 0.79163 0.0
C278 C 0.13211 0.51647 0.7805 0.0
C279 C 0.14862 0.50285 0.77318 0.0
C280 C 0.13613 0.4722 0.77742 0.0
C281 C 0.10759 0.45545 0.78846 0.0
C282 C 0.037 0.45266 0.76873 0.0
C283 C 0.03717 0.47915 0.76428 0.0
C284 C 0.05129 0.49558 0.74444 0.0
C285 C 0.06561 0.48582 0.72882 0.0
C286 C 0.0627 0.45778 0.73225 0.0
C287 C 0.04842 0.44128 0.75208 0.0
C288 C 0.97535 0.41479 0.7893 0.0
C289 C 0.96299 0.43313 0.78553 0.0
C290 C 0.93392 0.42139 0.77541 0.0
C291 C 0.91674 0.39109 0.76897 0.0
C292 C 0.92984 0.37314 0.77205 0.0
C293 C 0.95886 0.38489 0.78218 0.0
C294 C 0.01259 0.39824 0.93664 0.0
C295 C 0.17866 0.52045 0.76106 0.0
H296 H 0.38344 0.9897 0.84753 0.0
H297 H 0.41445 0.83509 0.05996 0.0
H298 H 0.43825 0.0605 0.96092 0.0
H299 H 0.46273 0.10379 0.93517 0.0
H300 H 0.54876 0.10462 0.94012 0.0
H301 H 0.52434 0.06223 0.96628 0.0
H302 H 0.39025 0.98354 0.94751 0.0
H303 H 0.37816 0.98258 0.90673 0.0
H304 H 0.47468 0.01981 0.88984 0.0
H305 H 0.48635 0.02019 0.93059 0.0
H306 H 0.38043 0.92161 0.97976 0.0
H307 H 0.37085 0.87382 0.96388 0.0
H308 H 0.46035 0.92005 0.93082 0.0
H309 H 0.47051 0.96675 0.94785 0.0
H310 H 0.39193 0.94643 0.03136 0.0
H311 H 0.37635 0.90085 0.05335 0.0
H312 H 0.45184 0.89547 0.02312 0.0
H313 H 0.46739 0.94129 0.00149 0.0
H314 H 0.42708 0.00704 0.05089 0.0
H315 H 0.43042 0.99393 0.09085 0.0
H316 H 0.50669 0.98246 0.07228 0.0
H317 H 0.5027 0.99476 0.03243 0.0
H318 H 0.46612 0.07913 0.01256 0.0
H319 H 0.50796 0.1283 0.0255 0.0
H320 H 0.56904 0.09319 0.02974 0.0
H321 H 0.52802 0.0452 0.01565 0.0
O322 O 0.38873 0.99027 0.86357 0.0
O323 O 0.43867 0.00968 0.85583 0.0
O324 O 0.38162 0.85692 0.0665 0.0
O325 O 0.41995 0.85301 0.05133 0.0
C326 C 0.46418 0.03008 0.97868 0.0
C327 C 0.44616 0.00269 0.9669 0.0
C328 C 0.43587 0.97538 0.97849 0.0
C329 C 0.44089 0.97546 0.00235 0.0
C330 C 0.45812 0.00282 0.01424 0.0
C331 C 0.47068 0.03014 0.00229 0.0
C332 C 0.47957 0.05837 0.96546 0.0
C333 C 0.46254 0.07054 0.95675 0.0
C334 C 0.47653 0.09508 0.94193 0.0
C335 C 0.50771 0.10762 0.93542 0.0
C336 C 0.52491 0.09596 0.945 0.0
C337 C 0.51098 0.07164 0.95992 0.0
C338 C 0.43922 0.00237 0.94206 0.0
C339 C 0.40874 0.99152 0.93497 0.0
C340 C 0.40191 0.99101 0.91167 0.0
C341 C 0.42548 0.00126 0.89502 0.0
C342 C 0.456 0.01191 0.90221 0.0
C343 C 0.46277 0.01234 0.9255 0.0
C344 C 0.42622 0.9477 0.96503 0.0
C345 C 0.39766 0.92137 0.96874 0.0
C346 C 0.39218 0.89417 0.9596 0.0
C347 C 0.41513 0.89315 0.94651 0.0
C348 C 0.44252 0.92 0.9413 0.0
C349 C 0.44816 0.94686 0.9507 0.0
C350 C 0.43062 0.94698 0.01476 0.0
C351 C 0.40496 0.93528 0.02946 0.0
C352 C 0.39615 0.90928 0.042 0.0
C353 C 0.41285 0.8945 0.03998 0.0
C354 C 0.43847 0.90626 0.02507 0.0
C355 C 0.44733 0.93234 0.01263 0.0
C356 C 0.46489 0.00219 0.0389 0.0
C357 C 0.44513 0.00266 0.05566 0.0
C358 C 0.44692 0.99499 0.07835 0.0
C359 C 0.46883 0.98724 0.08456 0.0
C360 C 0.48991 0.98876 0.06801 0.0
C361 C 0.48775 0.9959 0.04529 0.0
C362 C 0.49389 0.05844 0.01351 0.0
C363 C 0.48845 0.08207 0.01666 0.0
C364 C 0.51232 0.11006 0.02407 0.0
C365 C 0.54191 0.11473 0.0284 0.0
C366 C 0.54671 0.09054 0.02616 0.0
C367 C 0.52308 0.06285 0.01855 0.0
C368 C 0.41815 0.00071 0.87029 0.0
C369 C 0.40376 0.86703 0.05343 0.0
H370 H 0.64824 0.64188 0.98413 0.0
H371 H 0.75613 0.58069 0.22691 0.0
H372 H 0.5897 0.63661 0.121 0.0
H373 H 0.56008 0.64796 0.09447 0.0
H374 H 0.64413 0.72697 0.07199 0.0
H375 H 0.67381 0.71512 0.0988 0.0
H376 H 0.62026 0.62114 0.08225 0.0
H377 H 0.62281 0.62374 0.04029 0.0
H378 H 0.72061 0.68878 0.04406 0.0
H379 H 0.71762 0.68623 0.08606 0.0
H380 H 0.64468 0.58537 0.10298 0.0
H381 H 0.66112 0.55283 0.08583 0.0
H382 H 0.75613 0.61845 0.10129 0.0
H383 H 0.7394 0.65099 0.11852 0.0
H384 H 0.65239 0.57566 0.1533 0.0
H385 H 0.67107 0.54956 0.17712 0.0
H386 H 0.7496 0.63462 0.1973 0.0
H387 H 0.73072 0.66037 0.1733 0.0
H388 H 0.61168 0.59567 0.17443 0.0
H389 H 0.60482 0.571 0.21097 0.0
H390 H 0.68407 0.65111 0.23795 0.0
H391 H 0.69163 0.67502 0.20035 0.0
H392 H 0.58997 0.63296 0.16594 0.0
H393 H 0.56369 0.65527 0.18594 0.0
H394 H 0.64654 0.74226 0.18053 0.0
H395 H 0.67254 0.71978 0.16053 0.0
O396 O 0.64775 0.64124 0.00074 0.0
O397 O 0.698 0.67446 0.0036 0.0
O398 O 0.70819 0.54719 0.20566 0.0
O399 O 0.74868 0.59037 0.21687 0.0
C400 C 0.65151 0.66442 0.12484 0.0
C401 C 0.66706 0.65246 0.11263 0.0
C402 C 0.67995 0.63797 0.1246 0.0
C403 C 0.67765 0.63576 0.14872 0.0
C404 C 0.66123 0.6468 0.1608 0.0
C405 C 0.64884 0.66178 0.149 0.0
C406 C 0.63383 0.67518 0.11197 0.0
C407 C 0.60161 0.65698 0.11099 0.0
C408 C 0.58471 0.66352 0.09575 0.0
C409 C 0.59974 0.68839 0.08107 0.0
C410 C 0.63194 0.70752 0.08294 0.0
C411 C 0.64888 0.70095 0.09832 0.0
C412 C 0.66868 0.65376 0.08715 0.0
C413 C 0.64215 0.63609 0.07397 0.0
C414 C 0.64371 0.63754 0.05001 0.0
C415 C 0.6719 0.65653 0.03881 0.0
C416 C 0.69852 0.67398 0.05213 0.0
C417 C 0.6969 0.67256 0.0761 0.0
C418 C 0.6909 0.62052 0.11185 0.0
C419 C 0.6691 0.59294 0.10227 0.0
C420 C 0.67847 0.57434 0.09267 0.0
C421 C 0.70985 0.58312 0.09234 0.0
C422 C 0.73182 0.6113 0.10117 0.0
C423 C 0.72236 0.62983 0.11101 0.0
C424 C 0.69038 0.61984 0.16147 0.0
C425 C 0.67387 0.58855 0.16261 0.0
C426 C 0.68449 0.57374 0.17633 0.0
C427 C 0.7118 0.59003 0.18918 0.0
C428 C 0.7285 0.6214 0.18766 0.0
C429 C 0.71786 0.63616 0.1739 0.0
C430 C 0.65213 0.63703 0.18482 0.0
C431 C 0.62685 0.60826 0.18851 0.0
C432 C 0.623 0.59418 0.20956 0.0
C433 C 0.64417 0.60881 0.2275 0.0
C434 C 0.66777 0.63887 0.22437 0.0
C435 C 0.67187 0.65282 0.20306 0.0
C436 C 0.63314 0.67479 0.16188 0.0
C437 C 0.60244 0.65678 0.16925 0.0
C438 C 0.58746 0.66956 0.18052 0.0
C439 C 0.60311 0.70048 0.18482 0.0
C440 C 0.63404 0.71833 0.17769 0.0
C441 C 0.64886 0.70559 0.16621 0.0
C442 C 0.67347 0.65804 0.01335 0.0
C443 C 0.72269 0.57446 0.20433 0.0
O444 O 0.61416 0.44221 0.41467 0.0
Cd445 Cd 0.6208 0.42562 0.38473 0.0
Cd446 Cd 0.68002 0.46865 0.39081 0.0
O447 O 0.663 0.47628 0.42088 0.0
O448 O 0.58531 0.38399 0.38199 0.0
O449 O 0.63373 0.39524 0.38661 0.0
C450 C 0.60475 0.37516 0.38489 0.0
C451 C 0.72635 0.46859 0.39077 0.0
C452 C 0.63472 0.46317 0.42685 0.0
C453 C 0.6468 0.47329 0.34951 0.0
O454 O 0.67162 0.48453 0.36103 0.0
O455 O 0.62311 0.44884 0.35558 0.0
O456 O 0.72578 0.49281 0.39364 0.0
O457 O 0.70024 0.44383 0.38881 0.0
O458 O 0.23034 0.60837 0.59561 0.0
Cd459 Cd 0.25776 0.62716 0.56709 0.0
Cd460 Cd 0.2445 0.67003 0.57504 0.0
O461 O 0.22311 0.64552 0.60431 0.0
O462 O 0.28015 0.60516 0.56338 0.0
O463 O 0.30392 0.65358 0.57078 0.0
C464 C 0.30549 0.62987 0.56752 0.0
C465 C 0.27895 0.72154 0.57625 0.0
C466 C 0.21877 0.61973 0.60862 0.0
C467 C 0.21974 0.6345 0.53152 0.0
O468 O 0.22037 0.65423 0.54475 0.0
O469 O 0.23455 0.62161 0.53666 0.0
O470 O 0.24968 0.71026 0.57924 0.0
O471 O 0.28896 0.70334 0.57351 0.0
O472 O 0.61894 0.22557 0.78332 0.0
Cd473 Cd 0.63501 0.23886 0.75027 0.0
Cd474 Cd 0.59486 0.25814 0.75028 0.0
O475 O 0.58799 0.24377 0.78382 0.0
O476 O 0.67588 0.2419 0.74831 0.0
O477 O 0.6698 0.28089 0.74493 0.0
C478 C 0.68803 0.27031 0.74549 0.0
C479 C 0.5988 0.30387 0.74253 0.0
C480 C 0.59969 0.23028 0.79382 0.0
C481 C 0.58356 0.20979 0.71644 0.0
O482 O 0.57412 0.2261 0.7251 0.0
O483 O 0.60838 0.21188 0.72357 0.0
O484 O 0.57295 0.28059 0.74824 0.0
O485 O 0.623 0.30142 0.74152 0.0
O486 O 0.46866 0.67985 0.93262 0.0
Cd487 Cd 0.44079 0.67681 0.9055 0.0
Cd488 Cd 0.41614 0.61859 0.91433 0.0
O489 O 0.44326 0.63253 0.94316 0.0
O490 O 0.45334 0.71906 0.89996 0.0
O491 O 0.40647 0.68516 0.91168 0.0
C492 C 0.42601 0.71249 0.9061 0.0
C493 C 0.36291 0.59342 0.91641 0.0
C494 C 0.4647 0.65938 0.94649 0.0
C495 C 0.44496 0.63867 0.86853 0.0
O496 O 0.43528 0.61779 0.88323 0.0
O497 O 0.4469 0.66326 0.87368 0.0
O498 O 0.37764 0.57938 0.91903 0.0
O499 O 0.37874 0.62204 0.9134 0.0
O500 O 0.80905 0.35722 0.03452 0.0
Cd501 Cd 0.78463 0.35105 0.06444 0.0
Cd502 Cd 0.80621 0.41179 0.05819 0.0
O503 O 0.8223 0.40395 0.02789 0.0
O504 O 0.7596 0.30703 0.06749 0.0
O505 O 0.73888 0.33506 0.06226 0.0
C506 C 0.73528 0.30882 0.06466 0.0
C507 C 0.78526 0.4425 0.05677 0.0
C508 C 0.82173 0.38025 0.0218 0.0
C509 C 0.82397 0.39237 0.10174 0.0
O510 O 0.82676 0.41355 0.08922 0.0
O511 O 0.80772 0.36543 0.09514 0.0
O512 O 0.81457 0.45321 0.05506 0.0
O513 O 0.76746 0.41386 0.05861 0.0
O514 O 0.48194 0.86805 0.23048 0.0
Cd515 Cd 0.48238 0.84093 0.256 0.0
Cd516 Cd 0.41969 0.81514 0.25465 0.0
O517 O 0.43125 0.84713 0.22963 0.0
O518 O 0.52072 0.83948 0.25224 0.0
O519 O 0.4737 0.80006 0.2476 0.0
C520 C 0.50333 0.81152 0.24718 0.0
C521 C 0.37292 0.77016 0.24962 0.0
C522 C 0.45789 0.86662 0.22234 0.0
C523 C 0.45283 0.84333 0.29941 0.0
O524 O 0.42775 0.82883 0.28832 0.0
O525 O 0.47848 0.85109 0.2897 0.0
O526 O 0.37401 0.79473 0.25454 0.0
O527 O 0.39876 0.771 0.24684 0.0
H528 H 0.21792 0.58691 0.25882 0.0
H529 H 0.17801 0.64192 0.24628 0.0
H530 H 0.26933 0.6307 0.25405 0.0
H531 H 0.22861 0.68422 0.23913 0.0
H532 H 0.31796 0.76119 0.26442 0.0
H533 H 0.26823 0.71566 0.26385 0.0
H534 H 0.30886 0.66954 0.23066 0.0
H535 H 0.35967 0.71558 0.23226 0.0
C536 C 0.21987 0.60805 0.2547 0.0
C537 C 0.19342 0.61061 0.25338 0.0
C538 C 0.24945 0.63312 0.25159 0.0
C539 C 0.25321 0.66121 0.24671 0.0
C540 C 0.22672 0.66318 0.24358 0.0
C541 C 0.19737 0.63847 0.24722 0.0
C542 C 0.3164 0.74146 0.25685 0.0
C543 C 0.34273 0.74205 0.24825 0.0
C544 C 0.28769 0.71526 0.25634 0.0
C545 C 0.28427 0.68891 0.24682 0.0
C546 C 0.31066 0.68939 0.23819 0.0
C547 C 0.33971 0.71574 0.23899 0.0
H548 H 0.50409 0.17993 0.40003 0.0
H549 H 0.56071 0.21911 0.4603 0.0
H550 H 0.52705 0.22952 0.38269 0.0
H551 H 0.58394 0.2683 0.44278 0.0
H552 H 0.63803 0.35 0.39889 0.0
H553 H 0.6179 0.29811 0.41021 0.0
H554 H 0.52607 0.27615 0.3906 0.0
H555 H 0.54613 0.32787 0.37914 0.0
C556 C 0.52138 0.19905 0.40959 0.0
C557 C 0.53056 0.19548 0.43157 0.0
C558 C 0.53462 0.22742 0.3996 0.0
C559 C 0.55746 0.25276 0.4113 0.0
C560 C 0.56686 0.24914 0.43313 0.0
C561 C 0.55351 0.22089 0.44317 0.0
C562 C 0.61365 0.33399 0.39659 0.0
C563 C 0.59363 0.34309 0.38831 0.0
C564 C 0.6021 0.30433 0.40322 0.0
C565 C 0.57036 0.28316 0.40153 0.0
C566 C 0.55066 0.29191 0.392 0.0
C567 C 0.56216 0.32158 0.38553 0.0
H568 H 0.45319 0.58961 0.56574 0.0
H569 H 0.46896 0.64353 0.62628 0.0
H570 H 0.41311 0.59944 0.5534 0.0
H571 H 0.42837 0.65296 0.61422 0.0
H572 H 0.36242 0.6766 0.5803 0.0
H573 H 0.40965 0.67527 0.58676 0.0
H574 H 0.36168 0.58225 0.56674 0.0
H575 H 0.31512 0.58377 0.55987 0.0
C576 C 0.44821 0.60377 0.57631 0.0
C577 C 0.46396 0.61554 0.59709 0.0
C578 C 0.42518 0.60934 0.5693 0.0
C579 C 0.41714 0.62662 0.58299 0.0
C580 C 0.43409 0.63975 0.60316 0.0
C581 C 0.45734 0.63433 0.61011 0.0
C582 C 0.36216 0.65602 0.57699 0.0
C583 C 0.33498 0.63028 0.56962 0.0
C584 C 0.38915 0.65521 0.58083 0.0
C585 C 0.38951 0.62866 0.57727 0.0
C586 C 0.36249 0.60323 0.56931 0.0
C587 C 0.33563 0.60403 0.56551 0.0
H588 H 0.88808 0.35015 0.73443 0.0
H589 H 0.87189 0.40082 0.7856 0.0
H590 H 0.83323 0.32322 0.72473 0.0
H591 H 0.81725 0.37403 0.77588 0.0
H592 H 0.72175 0.33158 0.7451 0.0
H593 H 0.77798 0.36377 0.74667 0.0
H594 H 0.78701 0.28572 0.745 0.0
H595 H 0.73116 0.25374 0.7431 0.0
C596 C 0.87287 0.35571 0.74347 0.0
C597 C 0.88433 0.37749 0.7609 0.0
C598 C 0.84147 0.3403 0.73791 0.0
C599 C 0.82084 0.34633 0.74965 0.0
C600 C 0.83256 0.36909 0.7663 0.0
C601 C 0.86394 0.38448 0.77187 0.0
C602 C 0.73579 0.32136 0.74475 0.0
C603 C 0.72199 0.29011 0.74415 0.0
C604 C 0.76797 0.33978 0.74576 0.0
C605 C 0.78696 0.32731 0.74604 0.0
C606 C 0.77312 0.2961 0.74453 0.0
C607 C 0.74103 0.27773 0.74362 0.0
H608 H 0.45937 0.8787 0.95032 0.0
H609 H 0.36466 0.84223 0.92902 0.0
H610 H 0.45747 0.83336 0.93794 0.0
H611 H 0.36264 0.79594 0.9169 0.0
H612 H 0.37582 0.70999 0.92714 0.0
H613 H 0.36899 0.75244 0.9356 0.0
H614 H 0.45249 0.81082 0.89786 0.0
H615 H 0.45949 0.76896 0.88956 0.0
C616 C 0.43817 0.86105 0.94278 0.0
C617 C 0.41242 0.86436 0.94006 0.0
C618 C 0.43708 0.83504 0.93577 0.0
C619 C 0.41012 0.81148 0.92604 0.0
C620 C 0.38375 0.81397 0.92423 0.0
C621 C 0.38491 0.84034 0.93116 0.0
C622 C 0.39233 0.7318 0.92029 0.0
C623 C 0.4185 0.7363 0.90806 0.0
C624 C 0.38835 0.75599 0.92507 0.0
C625 C 0.41051 0.78487 0.91769 0.0
C626 C 0.43537 0.78883 0.90408 0.0
C627 C 0.43935 0.76484 0.89934 0.0
H628 H 0.68463 0.52471 0.10404 0.0
H629 H 0.75652 0.59423 0.06248 0.0
H630 H 0.70159 0.49048 0.09256 0.0
H631 H 0.77303 0.5597 0.05021 0.0
H632 H 0.81819 0.50318 0.05951 0.0
H633 H 0.79878 0.53664 0.06573 0.0
H634 H 0.70505 0.46161 0.06248 0.0
H635 H 0.7247 0.42784 0.05719 0.0
C636 C 0.70374 0.53245 0.09207 0.0
C637 C 0.71932 0.56209 0.08415 0.0
C638 C 0.71339 0.5128 0.08538 0.0
C639 C 0.73869 0.52225 0.07041 0.0
C640 C 0.75379 0.55178 0.06205 0.0
C641 C 0.74433 0.57156 0.06899 0.0
C642 C 0.79342 0.4938 0.05991 0.0
C643 C 0.77297 0.46281 0.05803 0.0
C644 C 0.78225 0.51307 0.06332 0.0
C645 C 0.75031 0.50189 0.06471 0.0
C646 C 0.72981 0.47095 0.06193 0.0
C647 C 0.74103 0.4516 0.05873 0.0
H648 H 0.42682 0.90948 0.5591 0.0
H649 H 0.34476 0.8975 0.5258 0.0
H650 H 0.3978 0.85758 0.57229 0.0
H651 H 0.31594 0.84612 0.53914 0.0
H652 H 0.26433 0.76459 0.58292 0.0
H653 H 0.29616 0.81777 0.57482 0.0
H654 H 0.37227 0.80607 0.55615 0.0
H655 H 0.34045 0.75267 0.5646 0.0
C656 C 0.40266 0.89582 0.55456 0.0
C657 C 0.38809 0.90778 0.54152 0.0
C658 C 0.38605 0.86611 0.56214 0.0
C659 C 0.3545 0.8478 0.55694 0.0
C660 C 0.34003 0.85979 0.5439 0.0
C661 C 0.35659 0.88933 0.53626 0.0
C662 C 0.28797 0.77336 0.57737 0.0
C663 C 0.29976 0.75432 0.5742 0.0
C664 C 0.30616 0.80384 0.5726 0.0
C665 C 0.3366 0.81608 0.56451 0.0
C666 C 0.34895 0.79735 0.56243 0.0
C667 C 0.33069 0.76674 0.56722 0.0
H668 H 0.63502 0.48458 0.71267 0.0
H669 H 0.54875 0.42115 0.68036 0.0
H670 H 0.64057 0.44317 0.72658 0.0
H671 H 0.55418 0.38018 0.69425 0.0
H672 H 0.55193 0.31505 0.74553 0.0
H673 H 0.55151 0.35911 0.73276 0.0
H674 H 0.64733 0.40044 0.71263 0.0
H675 H 0.64795 0.35605 0.72575 0.0
C676 C 0.61743 0.46187 0.70839 0.0
C677 C 0.59117 0.45607 0.69579 0.0
C678 C 0.62061 0.43823 0.71633 0.0
C679 C 0.59755 0.40847 0.71181 0.0
C680 C 0.57195 0.40285 0.6985 0.0
C681 C 0.56881 0.42633 0.69057 0.0
C682 C 0.57304 0.33354 0.73853 0.0
C683 C 0.5999 0.33193 0.73644 0.0
C684 C 0.57273 0.35875 0.73111 0.0
C685 C 0.59925 0.38301 0.72137 0.0
C686 C 0.62657 0.38204 0.72009 0.0
C687 C 0.62688 0.35663 0.72753 0.0
H688 H 0.16519 0.46353 0.90021 0.0
H689 H 0.18761 0.54155 0.85987 0.0
H690 H 0.21723 0.48977 0.9165 0.0
H691 H 0.23948 0.56748 0.87561 0.0
H692 H 0.32403 0.53315 0.91267 0.0
H693 H 0.26903 0.50671 0.90423 0.0
H694 H 0.26967 0.58982 0.90906 0.0
H695 H 0.32499 0.61641 0.91663 0.0
C696 C 0.18126 0.48628 0.89487 0.0
C697 C 0.17238 0.50056 0.87886 0.0
C698 C 0.21103 0.5013 0.90415 0.0
C699 C 0.23253 0.53079 0.89745 0.0
C700 C 0.22336 0.54507 0.88161 0.0
C701 C 0.19364 0.53017 0.87249 0.0
C702 C 0.31233 0.54571 0.91227 0.0
C703 C 0.32888 0.57691 0.91499 0.0
C704 C 0.28072 0.53051 0.90754 0.0
C705 C 0.26498 0.54619 0.90566 0.0
C706 C 0.28124 0.57716 0.90985 0.0
C707 C 0.3129 0.59239 0.91433 0.0
H708 H 0.60053 0.14065 0.01171 0.0
H709 H 0.54312 0.15731 0.05729 0.0
H710 H 0.64526 0.18815 0.02266 0.0
H711 H 0.58832 0.20571 0.06783 0.0
H712 H 0.6791 0.3035 0.05577 0.0
H713 H 0.63003 0.25714 0.04801 0.0
H714 H 0.67369 0.20594 0.06131 0.0
H715 H 0.72226 0.25167 0.06907 0.0
C716 C 0.59746 0.15439 0.02417 0.0
C717 C 0.56837 0.14487 0.03403 0.0
C718 C 0.62308 0.18166 0.03034 0.0
C719 C 0.62026 0.2003 0.04634 0.0
C720 C 0.59102 0.19163 0.05548 0.0
C721 C 0.56524 0.16402 0.04943 0.0
C722 C 0.67803 0.28229 0.05735 0.0
C723 C 0.70464 0.28127 0.06275 0.0
C724 C 0.64999 0.25584 0.05298 0.0
C725 C 0.64832 0.22812 0.05376 0.0
C726 C 0.67453 0.2271 0.06024 0.0
C727 C 0.70232 0.25333 0.06474 0.0
H728 H 0.54585 0.69114 0.17529 0.0
H729 H 0.62439 0.74119 0.21975 0.0
H730 H 0.52101 0.71651 0.19201 0.0
H731 H 0.59933 0.76607 0.23697 0.0
H732 H 0.56429 0.83126 0.24024 0.0
H733 H 0.58726 0.80291 0.22666 0.0
H734 H 0.49699 0.72263 0.22541 0.0
H735 H 0.47382 0.75139 0.23832 0.0
C736 C 0.55754 0.70721 0.18894 0.0
C737 C 0.58711 0.71433 0.19614 0.0
C738 C 0.54329 0.72171 0.19858 0.0
C739 C 0.55821 0.74349 0.21578 0.0
C740 C 0.58742 0.74989 0.22344 0.0
C741 C 0.60177 0.73559 0.21364 0.0
C742 C 0.54932 0.80752 0.23721 0.0
C743 C 0.5172 0.7936 0.2403 0.0
C744 C 0.56254 0.79118 0.22955 0.0
C745 C 0.54402 0.76042 0.22495 0.0
C746 C 0.51191 0.74636 0.22847 0.0
C747 C 0.49863 0.76279 0.236 0.0
H748 H 0.88976 0.44957 0.37664 0.0
H749 H 0.90206 0.52185 0.33295 0.0
H750 H 0.83973 0.44178 0.38937 0.0
H751 H 0.85291 0.51455 0.3461 0.0
H752 H 0.78394 0.51788 0.39313 0.0
H753 H 0.8329 0.52174 0.38387 0.0
H754 H 0.78596 0.42646 0.37257 0.0
H755 H 0.73648 0.42243 0.38191 0.0
C756 C 0.8818 0.46368 0.36967 0.0
C757 C 0.90021 0.48665 0.35402 0.0
C758 C 0.85322 0.45925 0.37701 0.0
C759 C 0.84269 0.47786 0.36898 0.0
C760 C 0.86076 0.50031 0.35299 0.0
C761 C 0.88903 0.50454 0.34552 0.0
C762 C 0.78396 0.49763 0.38895 0.0
C763 C 0.75623 0.46987 0.38804 0.0
C764 C 0.81204 0.4999 0.38354 0.0
C765 C 0.81317 0.47447 0.37719 0.0
C766 C 0.78573 0.44642 0.37743 0.0
C767 C 0.75744 0.44415 0.38272 0.0
H768 H 0.06556 0.53274 0.4406 0.0
H769 H 0.1255 0.61269 0.40163 0.0
H770 H 0.10222 0.55202 0.47243 0.0
H771 H 0.16117 0.63226 0.43385 0.0
H772 H 0.19709 0.66516 0.50907 0.0
H773 H 0.16063 0.64758 0.47702 0.0
H774 H 0.15982 0.5644 0.47617 0.0
H775 H 0.19662 0.58201 0.50793 0.0
C776 C 0.08632 0.55447 0.43885 0.0
C777 C 0.09243 0.57113 0.41851 0.0
C778 C 0.10725 0.56548 0.45708 0.0
C779 C 0.13448 0.59353 0.45548 0.0
C780 C 0.14017 0.61067 0.43555 0.0
C781 C 0.11952 0.5995 0.41719 0.0
C782 C 0.18934 0.64323 0.5019 0.0
C783 C 0.19974 0.62497 0.51099 0.0
C784 C 0.16853 0.63322 0.48359 0.0
C785 C 0.15729 0.60458 0.47435 0.0
C786 C 0.16793 0.58646 0.48321 0.0
C787 C 0.18918 0.59666 0.50122 0.0
H788 H 0.49176 0.05759 0.62277 0.0
H789 H 0.47683 0.1257 0.5945 0.0
H790 H 0.51745 0.08958 0.65598 0.0
H791 H 0.5024 0.15752 0.62746 0.0
H792 H 0.52863 0.19846 0.69842 0.0
H793 H 0.49817 0.16274 0.66854 0.0
H794 H 0.5663 0.13627 0.66309 0.0
H795 H 0.59658 0.17162 0.69336 0.0
C796 C 0.49367 0.07923 0.62378 0.0
C797 C 0.48208 0.08902 0.60611 0.0
C798 C 0.5085 0.0976 0.64271 0.0
C799 C 0.51207 0.12613 0.64431 0.0
C800 C 0.49962 0.13549 0.62695 0.0
C801 C 0.48482 0.11717 0.60808 0.0
C802 C 0.53714 0.18501 0.6909 0.0
C803 C 0.56515 0.18802 0.69823 0.0
C804 C 0.51969 0.16458 0.67372 0.0
C805 C 0.52981 0.14668 0.66343 0.0
C806 C 0.55764 0.14944 0.6709 0.0
C807 C 0.57513 0.16989 0.68812 0.0
H808 H 0.53773 0.61346 0.75349 0.0
H809 H 0.4664 0.62322 0.72128 0.0
H810 H 0.5203 0.61937 0.79123 0.0
H811 H 0.44884 0.62913 0.75925 0.0
H812 H 0.4547 0.67316 0.83064 0.0
H813 H 0.47067 0.66708 0.79238 0.0
H814 H 0.47176 0.589 0.8155 0.0
H815 H 0.45565 0.5949 0.85382 0.0
C816 C 0.51857 0.61729 0.75452 0.0
C817 C 0.50359 0.61827 0.73454 0.0
C818 C 0.50839 0.6203 0.7761 0.0
C819 C 0.48321 0.62461 0.7781 0.0
C820 C 0.46844 0.62599 0.75811 0.0
C821 C 0.47838 0.62257 0.73647 0.0
C822 C 0.45829 0.65466 0.82758 0.0
C823 C 0.45404 0.63456 0.84528 0.0
C824 C 0.46724 0.65111 0.80564 0.0
C825 C 0.47249 0.62764 0.80106 0.0
C826 C 0.4681 0.60744 0.81868 0.0
C827 C 0.45876 0.61075 0.84056 0.0
H828 H 0.92935 0.36409 0.91272 0.0
H829 H 0.87507 0.39472 0.87796 0.0
H830 H 0.90244 0.36029 0.94852 0.0
H831 H 0.84842 0.39129 0.91399 0.0
H832 H 0.84394 0.42234 0.98776 0.0
H833 H 0.86538 0.42017 0.95071 0.0
H834 H 0.85095 0.33335 0.96789 0.0
H835 H 0.82965 0.33549 0.00507 0.0
C836 C 0.9111 0.36926 0.91256 0.0
C837 C 0.90432 0.37969 0.89247 0.0
C838 C 0.8958 0.36722 0.93313 0.0
C839 C 0.87354 0.37575 0.93408 0.0
C840 C 0.86586 0.38503 0.91382 0.0
C841 C 0.88104 0.38692 0.89321 0.0
C842 C 0.84534 0.40278 0.98368 0.0
C843 C 0.83516 0.37913 -0.00058 0.0
C844 C 0.85737 0.40143 0.96236 0.0
C845 C 0.85966 0.37651 0.95637 0.0
C846 C 0.84959 0.3529 0.97211 0.0
C847 C 0.83734 0.35413 0.99337 0.0
H848 H 0.41843 0.94138 0.1049 0.0
H849 H 0.51604 0.00231 0.11472 0.0
H850 H 0.41656 0.91459 0.13954 0.0
H851 H 0.51417 0.97632 0.15014 0.0
H852 H 0.50662 0.89903 0.1933 0.0
H853 H 0.50958 0.93095 0.1617 0.0
H854 H 0.41887 0.91466 0.1796 0.0
H855 H 0.41541 0.88162 0.21037 0.0
C856 C 0.43932 0.94953 0.11492 0.0
C857 C 0.46734 0.97395 0.10727 0.0
C858 C 0.4383 0.93421 0.13482 0.0
C859 C 0.46524 0.9432 0.14772 0.0
C860 C 0.49309 0.96841 0.14044 0.0
C861 C 0.49417 0.98347 0.1203 0.0
C862 C 0.4874 0.90241 0.1905 0.0
C863 C 0.46066 0.88757 0.20413 0.0
C864 C 0.48916 0.92091 0.17248 0.0
C865 C 0.46439 0.92534 0.16794 0.0
C866 C 0.43811 0.91128 0.1822 0.0
C867 C 0.43617 0.89242 0.19994 0.0
H868 H 0.59376 0.56272 0.24932 0.0
H869 H 0.69357 0.61487 0.25186 0.0
H870 H 0.59364 0.52842 0.27718 0.0
H871 H 0.69327 0.58283 0.28189 0.0
H872 H 0.6898 0.50463 0.31662 0.0
H873 H 0.68828 0.53757 0.28777 0.0
H874 H 0.59883 0.51718 0.31363 0.0
H875 H 0.59952 0.48228 0.34083 0.0
C876 C 0.61571 0.56722 0.25609 0.0
C877 C 0.64368 0.59144 0.24793 0.0
C878 C 0.61564 0.54769 0.27247 0.0
C879 C 0.6435 0.55235 0.28177 0.0
C880 C 0.67134 0.57774 0.2747 0.0
C881 C 0.67147 0.59674 0.2578 0.0
C882 C 0.66963 0.50689 0.31568 0.0
C883 C 0.64464 0.49079 0.33065 0.0
C884 C 0.66888 0.52616 0.29943 0.0
C885 C 0.6436 0.53062 0.29839 0.0
C886 C 0.61848 0.51411 0.31341 0.0
C887 C 0.61882 0.49408 0.32911 0.0
H888 H 0.48325 0.92857 0.43459 0.0
H889 H 0.40645 0.92848 0.40183 0.0
H890 H 0.48394 0.89684 0.4039 0.0
H891 H 0.40693 0.89662 0.37148 0.0
H892 H 0.40183 0.82565 0.32612 0.0
H893 H 0.39873 0.84706 0.36248 0.0
H894 H 0.49796 0.90517 0.36254 0.0
H895 H 0.5012 0.88343 0.32619 0.0
C896 C 0.46633 0.92154 0.42098 0.0
C897 C 0.44491 0.93121 0.42057 0.0
C898 C 0.46675 0.90339 0.40344 0.0
C899 C 0.4456 0.89435 0.38525 0.0
C900 C 0.42327 0.90285 0.38544 0.0
C901 C 0.42294 0.92109 0.40288 0.0
C902 C 0.42308 0.84268 0.33402 0.0
C903 C 0.45176 0.85316 0.32308 0.0
C904 C 0.42125 0.85499 0.35483 0.0
C905 C 0.44803 0.87806 0.3652 0.0
C906 C 0.47691 0.88728 0.35502 0.0
C907 C 0.47877 0.87492 0.33415 0.0
H908 H 0.55098 0.48647 0.54977 0.0
H909 H 0.59367 0.572 0.51531 0.0
H910 H 0.56966 0.46712 0.51988 0.0
H911 H 0.61277 0.55247 0.48536 0.0
H912 H 0.66885 0.51524 0.451 0.0
H913 H 0.65074 0.53463 0.48174 0.0
H914 H 0.56044 0.45477 0.47835 0.0
H915 H 0.57841 0.4353 0.44788 0.0
C916 C 0.5638 0.50101 0.53557 0.0
C917 C 0.57046 0.53073 0.5348 0.0
C918 C 0.57471 0.48992 0.51852 0.0
C919 C 0.59268 0.50829 0.50033 0.0
C920 C 0.59927 0.53795 0.49938 0.0
C921 C 0.58822 0.54906 0.51645 0.0
C922 C 0.64526 0.50168 0.45702 0.0
C923 C 0.62506 0.47375 0.447 0.0
C924 C 0.63483 0.51292 0.47444 0.0
C925 C 0.60415 0.49629 0.48229 0.0
C926 C 0.58426 0.46801 0.47272 0.0
C927 C 0.59457 0.45691 0.45523 0.0
H928 H 0.10783 0.54531 0.73294 0.0
H929 H 0.07173 0.47247 0.6842 0.0
H930 H 0.14528 0.57844 0.70453 0.0
H931 H 0.10942 0.5057 0.65574 0.0
H932 H 0.20328 0.56334 0.62143 0.0
H933 H 0.16577 0.53166 0.65031 0.0
H934 H 0.14896 0.60277 0.66746 0.0
H935 H 0.18688 0.63478 0.63868 0.0
C936 C 0.10746 0.53651 0.71599 0.0
C937 C 0.0866 0.50629 0.71074 0.0
C938 C 0.12904 0.5555 0.69975 0.0
C939 C 0.13039 0.54468 0.67792 0.0
C940 C 0.10925 0.51458 0.67254 0.0
C941 C 0.0876 0.49558 0.68879 0.0
C942 C 0.19182 0.57239 0.63146 0.0
C943 C 0.19807 0.60163 0.62768 0.0
C944 C 0.17009 0.55408 0.64787 0.0
C945 C 0.15414 0.56458 0.66097 0.0
C946 C 0.16098 0.59409 0.65769 0.0
C947 C 0.18269 0.61241 0.64119 0.0
H948 H 0.56706 0.1557 0.93285 0.0
H949 H 0.48005 0.11194 0.89651 0.0
H950 H 0.59127 0.18969 0.90043 0.0
H951 H 0.50405 0.14651 0.86468 0.0
H952 H 0.5513 0.22677 0.81784 0.0
H953 H 0.5301 0.20157 0.85437 0.0
H954 H 0.60248 0.18081 0.85914 0.0
H955 H 0.62379 0.20595 0.82255 0.0
C956 C 0.55302 0.15347 0.91809 0.0
C957 C 0.52161 0.13093 0.91727 0.0
C958 C 0.56689 0.173 0.8996 0.0
C959 C 0.54953 0.17067 0.88008 0.0
C960 C 0.51789 0.14906 0.87966 0.0
C961 C 0.50411 0.12932 0.89798 0.0
C962 C 0.563 0.21722 0.8268 0.0
C963 C 0.58909 0.21812 0.81718 0.0
C964 C 0.55076 0.20271 0.84767 0.0
C965 C 0.56457 0.18914 0.85948 0.0
C966 C 0.59152 0.19129 0.85046 0.0
C967 C 0.60359 0.20552 0.82945 0.0
H968 H 0.54162 0.68022 0.08315 0.0
H969 H 0.61756 0.70382 0.03638 0.0
H970 H 0.50907 0.6763 0.05079 0.0
H971 H 0.5852 0.70073 0.00422 0.0
H972 H 0.5201 0.71062 0.95407 0.0
H973 H 0.55384 0.72283 0.98746 0.0
H974 H 0.48874 0.63781 0.01798 0.0
H975 H 0.45513 0.62542 0.98466 0.0
C976 C 0.55151 0.68503 0.06603 0.0
C977 C 0.58207 0.69199 0.06231 0.0
C978 C 0.53289 0.6828 0.04756 0.0
C979 C 0.54458 0.68788 0.02506 0.0
C980 C 0.57571 0.69687 0.02145 0.0
C981 C 0.59427 0.69879 0.0399 0.0
C982 C 0.51295 0.69458 0.96795 0.0
C983 C 0.48501 0.667 0.96672 0.0
C984 C 0.53228 0.70158 0.98699 0.0
C985 C 0.52374 0.68135 0.00529 0.0
C986 C 0.49564 0.65398 0.00421 0.0
C987 C 0.47655 0.64679 0.98505 0.0
H988 H 0.88896 0.45536 0.24038 0.0
H989 H 0.94578 0.42125 0.21516 0.0
H990 H 0.85871 0.43876 0.20504 0.0
H991 H 0.91483 0.40384 0.18037 0.0
H992 H 0.83412 0.35561 0.12906 0.0
H993 H 0.8595 0.36732 0.16655 0.0
H994 H 0.87322 0.45606 0.1632 0.0
H995 H 0.84812 0.4446 0.12576 0.0
C996 C 0.89484 0.4441 0.22745 0.0
C997 C 0.9199 0.43976 0.23063 0.0
C998 C 0.87747 0.43456 0.20727 0.0
C999 C 0.88456 0.42015 0.19 0.0
C1000 C 0.90868 0.41461 0.19354 0.0
C1001 C 0.92629 0.42447 0.21357 0.0
C1002 C 0.8425 0.3776 0.13635 0.0
C1003 C 0.83923 0.39923 0.12442 0.0
C1004 C 0.85704 0.38427 0.15775 0.0
C1005 C 0.86813 0.41251 0.16776 0.0
C1006 C 0.86453 0.43399 0.15597 0.0
C1007 C 0.85041 0.42749 0.13446 0.0
loop_
_geom_bond_atom_site_label_1
_geom_bond_atom_site_label_2
_geom_bond_distance
_geom_bond_site_symmetry_2
_ccdc_geom_bond_type
H0 O26 0.856 . S
H1 O29 0.854 . S
H2 C37 0.930 1_455 S
H3 C38 0.930 . S
H4 C40 0.930 . S
H5 C41 0.930 . S
H6 C43 0.931 . S
H7 C44 0.930 . S
H8 C46 0.930 . S
H9 C47 0.929 . S
H10 C49 0.930 . S
H11 C50 0.931 . S
H12 C52 0.930 . S
H13 C53 0.929 . S
H14 C55 0.931 . S
H15 C56 0.930 . S
H16 C58 0.930 . S
H17 C59 0.932 . S
H18 C61 0.930 . S
H19 C62 0.929 . S
H20 C64 0.931 . S
H21 C65 0.930 . S
H22 C67 0.929 . S
H23 C68 0.931 . S
H24 C70 0.930 . S
H25 C71 0.929 . S
O26 H0 0.856 . S
O26 C72 1.300 . S
O27 C72 1.209 . S
O28 C73 1.199 . S
O29 H1 0.854 . S
O29 C73 1.297 . S
C30 C31 1.404 . S
C30 C35 1.397 . S
C30 C36 1.492 . S
C31 C30 1.404 . S
C31 C32 1.396 . S
C31 C42 1.492 . S
C32 C31 1.396 . S
C32 C33 1.397 . S
C32 C48 1.509 . S
C33 C32 1.397 . S
C33 C34 1.412 . S
C33 C54 1.485 . S
C34 C33 1.412 . S
C34 C35 1.388 . S
C34 C60 1.490 . S
C35 C30 1.397 . S
C35 C34 1.388 . S
C35 C66 1.519 1_455 S
C36 C30 1.492 . S
C36 C37 1.363 1_455 S
C36 C41 1.390 1_455 S
C37 H2 0.930 1_655 S
C37 C36 1.363 1_655 S
C37 C38 1.372 . S
C38 H3 0.930 . S
C38 C37 1.372 . S
C38 C39 1.383 . S
C39 C38 1.383 . S
C39 C40 1.395 . S
C40 H4 0.930 . S
C40 C39 1.395 . S
C40 C41 1.362 . S
C41 H5 0.930 . S
C41 C36 1.390 1_655 S
C41 C40 1.362 . S
C42 C31 1.492 . S
C42 C43 1.377 . S
C42 C47 1.397 . S
C43 H6 0.931 . S
C43 C42 1.377 . S
C43 C44 1.376 . S
C44 H7 0.930 . S
C44 C43 1.376 . S
C44 C45 1.376 . S
C45 C44 1.376 . S
C45 C46 1.378 . S
C45 C72 1.486 . S
C46 H8 0.930 . S
C46 C45 1.378 . S
C46 C47 1.376 . S
C47 H9 0.929 . S
C47 C42 1.397 . S
C47 C46 1.376 . S
C48 C32 1.509 . S
C48 C49 1.391 . S
C48 C53 1.386 . S
C49 H10 0.930 . S
C49 C48 1.391 . S
C49 C50 1.375 . S
C50 H11 0.931 . S
C50 C49 1.375 . S
C50 C51 1.375 . S
C51 C50 1.375 . S
C51 C52 1.361 . S
C52 H12 0.930 . S
C52 C51 1.361 . S
C52 C53 1.399 . S
C53 H13 0.929 . S
C53 C48 1.386 . S
C53 C52 1.399 . S
C54 C33 1.485 . S
C54 C55 1.394 . S
C54 C59 1.360 . S
C55 H14 0.931 . S
C55 C54 1.394 . S
C55 C56 1.372 . S
C56 H15 0.930 . S
C56 C55 1.372 . S
C56 C57 1.397 . S
C57 C56 1.397 . S
C57 C58 1.390 . S
C57 C73 1.476 . S
C58 H16 0.930 . S
C58 C57 1.390 . S
C58 C59 1.366 . S
C59 H17 0.932 . S
C59 C54 1.360 . S
C59 C58 1.366 . S
C60 C34 1.490 . S
C60 C61 1.380 . S
C60 C65 1.386 . S
C61 H18 0.930 . S
C61 C60 1.380 . S
C61 C62 1.381 . S
C62 H19 0.929 . S
C62 C61 1.381 . S
C62 C63 1.371 . S
C63 C62 1.371 . S
C63 C64 1.380 . S
C64 H20 0.931 . S
C64 C63 1.380 . S
C64 C65 1.387 . S
C65 H21 0.930 . S
C65 C60 1.386 . S
C65 C64 1.387 . S
C66 C35 1.519 1_655 S
C66 C67 1.377 . S
C66 C71 1.361 . S
C67 H22 0.929 . S
C67 C66 1.377 . S
C67 C68 1.386 . S
C68 H23 0.931 . S
C68 C67 1.386 . S
C68 C69 1.363 . S
C69 C68 1.363 . S
C69 C70 1.385 . S
C70 H24 0.930 . S
C70 C69 1.385 . S
C70 C71 1.396 . S
C71 H25 0.929 . S
C71 C66 1.361 . S
C71 C70 1.396 . S
C72 O26 1.300 . S
C72 O27 1.209 . S
C72 C45 1.486 . S
C73 O28 1.199 . S
C73 O29 1.297 . S
C73 C57 1.476 . S
H74 O100 0.856 . S
H75 O103 0.854 . S
H76 C111 0.930 . S
H77 C112 0.930 . S
H78 C114 0.930 . S
H79 C115 0.930 . S
H80 C117 0.931 . S
H81 C118 0.930 . S
H82 C120 0.930 . S
H83 C121 0.929 . S
H84 C123 0.930 . S
H85 C124 0.931 . S
H86 C126 0.930 . S
H87 C127 0.929 . S
H88 C129 0.931 . S
H89 C130 0.930 . S
H90 C132 0.930 . S
H91 C133 0.932 . S
H92 C135 0.930 . S
H93 C136 0.929 . S
H94 C138 0.931 . S
H95 C139 0.930 . S
H96 C141 0.929 1_545 S
H97 C142 0.931 . S
H98 C144 0.930 . S
H99 C145 0.929 . S
O100 H74 0.856 . S
O100 C146 1.300 . S
O101 C146 1.209 . S
O102 C147 1.199 . S
O103 H75 0.854 . S
O103 C147 1.297 . S
C104 C105 1.404 . S
C104 C109 1.397 . S
C104 C110 1.492 . S
C105 C104 1.404 . S
C105 C106 1.396 . S
C105 C116 1.492 . S
C106 C105 1.396 . S
C106 C107 1.397 . S
C106 C122 1.509 . S
C107 C106 1.397 . S
C107 C108 1.412 . S
C107 C128 1.485 . S
C108 C107 1.412 . S
C108 C109 1.388 . S
C108 C134 1.490 . S
C109 C104 1.397 . S
C109 C108 1.388 . S
C109 C140 1.519 . S
C110 C104 1.492 . S
C110 C111 1.363 . S
C110 C115 1.390 . S
C111 H76 0.930 . S
C111 C110 1.363 . S
C111 C112 1.372 1_545 S
C112 H77 0.930 . S
C112 C111 1.372 1_565 S
C112 C113 1.383 . S
C113 C112 1.383 . S
C113 C114 1.395 . S
C114 H78 0.930 . S
C114 C113 1.395 . S
C114 C115 1.362 1_565 S
C115 H79 0.930 . S
C115 C110 1.390 . S
C115 C114 1.362 1_545 S
C116 C105 1.492 . S
C116 C117 1.377 . S
C116 C121 1.397 . S
C117 H80 0.931 . S
C117 C116 1.377 . S
C117 C118 1.376 . S
C118 H81 0.930 . S
C118 C117 1.376 . S
C118 C119 1.376 . S
C119 C118 1.376 . S
C119 C120 1.378 . S
C119 C146 1.486 . S
C120 H82 0.930 . S
C120 C119 1.378 . S
C120 C121 1.376 . S
C121 H83 0.929 . S
C121 C116 1.397 . S
C121 C120 1.376 . S
C122 C106 1.509 . S
C122 C123 1.391 . S
C122 C127 1.386 . S
C123 H84 0.930 . S
C123 C122 1.391 . S
C123 C124 1.375 . S
C124 H85 0.931 . S
C124 C123 1.375 . S
C124 C125 1.375 . S
C125 C124 1.375 . S
C125 C126 1.361 . S
C126 H86 0.930 . S
C126 C125 1.361 . S
C126 C127 1.399 . S
C127 H87 0.929 . S
C127 C122 1.386 . S
C127 C126 1.399 . S
C128 C107 1.485 . S
C128 C129 1.394 . S
C128 C133 1.360 . S
C129 H88 0.931 . S
C129 C128 1.394 . S
C129 C130 1.372 . S
C130 H89 0.930 . S
C130 C129 1.372 . S
C130 C131 1.397 . S
C131 C130 1.397 . S
C131 C132 1.390 . S
C131 C147 1.476 . S
C132 H90 0.930 . S
C132 C131 1.390 . S
C132 C133 1.366 . S
C133 H91 0.932 . S
C133 C128 1.360 . S
C133 C132 1.366 . S
C134 C108 1.490 . S
C134 C135 1.380 . S
C134 C139 1.386 . S
C135 H92 0.930 . S
C135 C134 1.380 . S
C135 C136 1.381 . S
C136 H93 0.929 . S
C136 C135 1.381 . S
C136 C137 1.371 . S
C137 C136 1.371 . S
C137 C138 1.380 . S
C138 H94 0.931 . S
C138 C137 1.380 . S
C138 C139 1.387 . S
C139 H95 0.930 . S
C139 C134 1.386 . S
C139 C138 1.387 . S
C140 C109 1.519 . S
C140 C141 1.377 1_545 S
C140 C145 1.361 . S
C141 H96 0.929 1_565 S
C141 C140 1.377 1_565 S
C141 C142 1.386 . S
C142 H97 0.931 . S
C142 C141 1.386 . S
C142 C143 1.363 . S
C143 C142 1.363 . S
C143 C144 1.385 . S
C144 H98 0.930 . S
C144 C143 1.385 . S
C144 C145 1.396 1_565 S
C145 H99 0.929 . S
C145 C140 1.361 . S
C145 C144 1.396 1_545 S
C146 O100 1.300 . S
C146 O101 1.209 . S
C146 C119 1.486 . S
C147 O102 1.199 . S
C147 O103 1.297 . S
C147 C131 1.476 . S
H148 O174 0.856 . S
H149 O177 0.854 . S
H150 C185 0.930 . S
H151 C186 0.930 . S
H152 C188 0.930 . S
H153 C189 0.930 . S
H154 C191 0.931 . S
H155 C192 0.930 . S
H156 C194 0.930 . S
H157 C195 0.929 . S
H158 C197 0.930 . S
H159 C198 0.931 . S
H160 C200 0.930 . S
H161 C201 0.929 . S
H162 C203 0.931 . S
H163 C204 0.930 . S
H164 C206 0.930 . S
H165 C207 0.932 . S
H166 C209 0.930 . S
H167 C210 0.929 . S
H168 C212 0.931 . S
H169 C213 0.930 . S
H170 C215 0.929 . S
H171 C216 0.931 . S
H172 C218 0.930 . S
H173 C219 0.929 . S
O174 H148 0.856 . S
O174 C220 1.300 . S
O175 C220 1.209 . S
O176 C221 1.199 . S
O177 H149 0.854 . S
O177 C221 1.297 . S
C178 C179 1.404 . S
C178 C183 1.397 . S
C178 C184 1.492 . S
C179 C178 1.404 . S
C179 C180 1.396 . S
C179 C190 1.492 . S
C180 C179 1.396 . S
C180 C181 1.397 . S
C180 C196 1.509 . S
C181 C180 1.397 . S
C181 C182 1.412 . S
C181 C202 1.485 . S
C182 C181 1.412 . S
C182 C183 1.388 . S
C182 C208 1.490 . S
C183 C178 1.397 . S
C183 C182 1.388 . S
C183 C214 1.519 . S
C184 C178 1.492 . S
C184 C185 1.363 . S
C184 C189 1.390 . S
C185 H150 0.930 . S
C185 C184 1.363 . S
C185 C186 1.372 . S
C186 H151 0.930 . S
C186 C185 1.372 . S
C186 C187 1.383 . S
C187 C186 1.383 . S
C187 C188 1.395 . S
C188 H152 0.930 . S
C188 C187 1.395 . S
C188 C189 1.362 . S
C189 H153 0.930 . S
C189 C184 1.390 . S
C189 C188 1.362 . S
C190 C179 1.492 . S
C190 C191 1.377 . S
C190 C195 1.397 . S
C191 H154 0.931 . S
C191 C190 1.377 . S
C191 C192 1.376 . S
C192 H155 0.930 . S
C192 C191 1.376 . S
C192 C193 1.376 . S
C193 C192 1.376 . S
C193 C194 1.378 . S
C193 C220 1.486 . S
C194 H156 0.930 . S
C194 C193 1.378 . S
C194 C195 1.376 . S
C195 H157 0.929 . S
C195 C190 1.397 . S
C195 C194 1.376 . S
C196 C180 1.509 . S
C196 C197 1.391 . S
C196 C201 1.386 . S
C197 H158 0.930 . S
C197 C196 1.391 . S
C197 C198 1.375 . S
C198 H159 0.931 . S
C198 C197 1.375 . S
C198 C199 1.375 . S
C199 C198 1.375 . S
C199 C200 1.361 . S
C200 H160 0.930 . S
C200 C199 1.361 . S
C200 C201 1.399 . S
C201 H161 0.929 . S
C201 C196 1.386 . S
C201 C200 1.399 . S
C202 C181 1.485 . S
C202 C203 1.394 . S
C202 C207 1.360 . S
C203 H162 0.931 . S
C203 C202 1.394 . S
C203 C204 1.372 . S
C204 H163 0.930 . S
C204 C203 1.372 . S
C204 C205 1.397 . S
C205 C204 1.397 . S
C205 C206 1.390 . S
C205 C221 1.476 . S
C206 H164 0.930 . S
C206 C205 1.390 . S
C206 C207 1.366 . S
C207 H165 0.932 . S
C207 C202 1.360 . S
C207 C206 1.366 . S
C208 C182 1.490 . S
C208 C209 1.380 . S
C208 C213 1.386 . S
C209 H166 0.930 . S
C209 C208 1.380 . S
C209 C210 1.381 . S
C210 H167 0.929 . S
C210 C209 1.381 . S
C210 C211 1.371 . S
C211 C210 1.371 . S
C211 C212 1.380 . S
C212 H168 0.931 . S
C212 C211 1.380 . S
C212 C213 1.387 . S
C213 H169 0.930 . S
C213 C208 1.386 . S
C213 C212 1.387 . S
C214 C183 1.519 . S
C214 C215 1.377 . S
C214 C219 1.361 . S
C215 H170 0.929 . S
C215 C214 1.377 . S
C215 C216 1.386 . S
C216 H171 0.931 . S
C216 C215 1.386 . S
C216 C217 1.363 . S
C217 C216 1.363 . S
C217 C218 1.385 . S
C218 H172 0.930 . S
C218 C217 1.385 . S
C218 C219 1.396 . S
C219 H173 0.929 . S
C219 C214 1.361 . S
C219 C218 1.396 . S
C220 O174 1.300 . S
C220 O175 1.209 . S
C220 C193 1.486 . S
C221 O176 1.199 . S
C221 O177 1.297 . S
C221 C205 1.476 . S
H222 O248 0.856 . S
H223 O251 0.854 . S
H224 C259 0.930 1_455 S
H225 C260 0.930 . S
H226 C262 0.930 . S
H227 C263 0.930 . S
H228 C265 0.931 . S
H229 C266 0.930 . S
H230 C268 0.930 . S
H231 C269 0.929 . S
H232 C271 0.930 . S
H233 C272 0.931 . S
H234 C274 0.930 . S
H235 C275 0.929 . S
H236 C277 0.931 . S
H237 C278 0.930 . S
H238 C280 0.930 . S
H239 C281 0.932 . S
H240 C283 0.930 . S
H241 C284 0.929 . S
H242 C286 0.931 . S
H243 C287 0.930 . S
H244 C289 0.929 . S
H245 C290 0.931 . S
H246 C292 0.930 . S
H247 C293 0.929 . S
O248 H222 0.856 . S
O248 C294 1.300 . S
O249 C294 1.209 . S
O250 C295 1.199 . S
O251 H223 0.854 . S
O251 C295 1.297 . S
C252 C253 1.404 . S
C252 C257 1.397 . S
C252 C258 1.492 1_455 S
C253 C252 1.404 . S
C253 C254 1.396 . S
C253 C264 1.492 . S
C254 C253 1.396 . S
C254 C255 1.397 . S
C254 C270 1.509 . S
C255 C254 1.397 . S
C255 C256 1.412 . S
C255 C276 1.485 . S
C256 C255 1.412 . S
C256 C257 1.388 . S
C256 C282 1.490 . S
C257 C252 1.397 . S
C257 C256 1.388 . S
C257 C288 1.519 1_455 S
C258 C252 1.492 1_655 S
C258 C259 1.363 . S
C258 C263 1.390 . S
C259 H224 0.930 1_655 S
C259 C258 1.363 . S
C259 C260 1.372 . S
C260 H225 0.930 . S
C260 C259 1.372 . S
C260 C261 1.383 . S
C261 C260 1.383 . S
C261 C262 1.395 . S
C262 H226 0.930 . S
C262 C261 1.395 . S
C262 C263 1.362 . S
C263 H227 0.930 . S
C263 C258 1.390 . S
C263 C262 1.362 . S
C264 C253 1.492 . S
C264 C265 1.377 . S
C264 C269 1.397 . S
C265 H228 0.931 . S
C265 C264 1.377 . S
C265 C266 1.376 . S
C266 H229 0.930 . S
C266 C265 1.376 . S
C266 C267 1.376 . S
C267 C266 1.376 . S
C267 C268 1.378 . S
C267 C294 1.486 . S
C268 H230 0.930 . S
C268 C267 1.378 . S
C268 C269 1.376 . S
C269 H231 0.929 . S
C269 C264 1.397 . S
C269 C268 1.376 . S
C270 C254 1.509 . S
C270 C271 1.391 . S
C270 C275 1.386 . S
C271 H232 0.930 . S
C271 C270 1.391 . S
C271 C272 1.375 . S
C272 H233 0.931 . S
C272 C271 1.375 . S
C272 C273 1.375 . S
C273 C272 1.375 . S
C273 C274 1.361 . S
C274 H234 0.930 . S
C274 C273 1.361 . S
C274 C275 1.399 . S
C275 H235 0.929 . S
C275 C270 1.386 . S
C275 C274 1.399 . S
C276 C255 1.485 . S
C276 C277 1.394 . S
C276 C281 1.360 . S
C277 H236 0.931 . S
C277 C276 1.394 . S
C277 C278 1.372 . S
C278 H237 0.930 . S
C278 C277 1.372 . S
C278 C279 1.397 . S
C279 C278 1.397 . S
C279 C280 1.390 . S
C279 C295 1.476 . S
C280 H238 0.930 . S
C280 C279 1.390 . S
C280 C281 1.366 . S
C281 H239 0.932 . S
C281 C276 1.360 . S
C281 C280 1.366 . S
C282 C256 1.490 . S
C282 C283 1.380 . S
C282 C287 1.386 . S
C283 H240 0.930 . S
C283 C282 1.380 . S
C283 C284 1.381 . S
C284 H241 0.929 . S
C284 C283 1.381 . S
C284 C285 1.371 . S
C285 C284 1.371 . S
C285 C286 1.380 . S
C286 H242 0.931 . S
C286 C285 1.380 . S
C286 C287 1.387 . S
C287 H243 0.930 . S
C287 C282 1.386 . S
C287 C286 1.387 . S
C288 C257 1.519 1_655 S
C288 C289 1.377 . S
C288 C293 1.361 . S
C289 H244 0.929 . S
C289 C288 1.377 . S
C289 C290 1.386 . S
C290 H245 0.931 . S
C290 C289 1.386 . S
C290 C291 1.363 . S
C291 C290 1.363 . S
C291 C292 1.385 . S
C292 H246 0.930 . S
C292 C291 1.385 . S
C292 C293 1.396 . S
C293 H247 0.929 . S
C293 C288 1.361 . S
C293 C292 1.396 . S
C294 O248 1.300 . S
C294 O249 1.209 . S
C294 C267 1.486 . S
C295 O250 1.199 . S
C295 O251 1.297 . S
C295 C279 1.476 . S
H296 O322 0.856 . S
H297 O325 0.854 . S
H298 C333 0.930 . S
H299 C334 0.930 . S
H300 C336 0.930 . S
H301 C337 0.930 . S
H302 C339 0.931 . S
H303 C340 0.930 . S
H304 C342 0.930 1_545 S
H305 C343 0.929 1_545 S
H306 C345 0.930 . S
H307 C346 0.931 . S
H308 C348 0.930 . S
H309 C349 0.929 . S
H310 C351 0.931 . S
H311 C352 0.930 . S
H312 C354 0.930 . S
H313 C355 0.932 . S
H314 C357 0.930 . S
H315 C358 0.929 . S
H316 C360 0.923 1_565 S
H317 C361 0.930 . S
H318 C363 0.929 1_556 S
H319 C364 0.931 . S
H320 C366 0.930 . S
H321 C367 0.929 . S
O322 H296 0.856 . S
O322 C368 1.300 . S
O323 C368 1.209 . S
O324 C369 1.199 . S
O325 H297 0.854 . S
O325 C369 1.297 . S
C326 C327 1.404 1_545 S
C326 C331 1.397 . S
C326 C332 1.492 . S
C327 C326 1.404 1_565 S
C327 C328 1.396 . S
C327 C338 1.492 . S
C328 C327 1.396 . S
C328 C329 1.397 . S
C328 C344 1.509 . S
C329 C328 1.397 . S
C329 C330 1.412 1_556 S
C329 C350 1.485 1_556 S
C330 C329 1.412 1_554 S
C330 C331 1.388 1_564 S
C330 C356 1.490 1_565 S
C331 C326 1.397 . S
C331 C330 1.388 1_546 S
C331 C362 1.519 1_556 S
C332 C326 1.492 . S
C332 C333 1.363 . S
C332 C337 1.390 . S
C333 H298 0.930 . S
C333 C332 1.363 . S
C333 C334 1.372 . S
C334 H299 0.930 . S
C334 C333 1.372 . S
C334 C335 1.383 . S
C335 C334 1.383 . S
C335 C336 1.395 . S
C336 H300 0.930 . S
C336 C335 1.395 . S
C336 C337 1.362 . S
C337 H301 0.930 . S
C337 C332 1.390 . S
C337 C336 1.362 . S
C338 C327 1.492 . S
C338 C339 1.377 . S
C338 C343 1.397 . S
C339 H302 0.931 . S
C339 C338 1.377 . S
C339 C340 1.376 . S
C340 H303 0.930 . S
C340 C339 1.376 . S
C340 C341 1.376 . S
C341 C340 1.376 . S
C341 C342 1.378 . S
C341 C368 1.486 . S
C342 H304 0.930 1_565 S
C342 C341 1.378 . S
C342 C343 1.376 . S
C343 H305 0.929 1_565 S
C343 C338 1.397 . S
C343 C342 1.376 . S
C344 C328 1.509 . S
C344 C345 1.391 . S
C344 C349 1.386 . S
C345 H306 0.930 . S
C345 C344 1.391 . S
C345 C346 1.375 . S
C346 H307 0.931 . S
C346 C345 1.375 . S
C346 C347 1.375 . S
C347 C346 1.375 . S
C347 C348 1.361 . S
C348 H308 0.930 . S
C348 C347 1.361 . S
C348 C349 1.399 . S
C349 H309 0.929 . S
C349 C344 1.386 . S
C349 C348 1.399 . S
C350 C329 1.485 1_554 S
C350 C351 1.394 . S
C350 C355 1.360 . S
C351 H310 0.931 . S
C351 C350 1.394 . S
C351 C352 1.372 . S
C352 H311 0.930 . S
C352 C351 1.372 . S
C352 C353 1.397 . S
C353 C352 1.397 . S
C353 C354 1.390 . S
C353 C369 1.476 . S
C354 H312 0.930 . S
C354 C353 1.390 . S
C354 C355 1.366 . S
C355 H313 0.932 . S
C355 C350 1.360 . S
C355 C354 1.366 . S
C356 C330 1.490 1_545 S
C356 C357 1.380 . S
C356 C361 1.386 1_545 S
C357 H314 0.930 . S
C357 C356 1.380 . S
C357 C358 1.381 . S
C358 H315 0.929 . S
C358 C357 1.381 . S
C358 C359 1.371 . S
C359 C358 1.371 . S
C359 C360 1.389 . S
C360 H316 0.923 1_545 S
C360 C359 1.389 . S
C360 C361 1.385 1_545 S
C361 H317 0.930 . S
C361 C356 1.386 1_565 S
C361 C360 1.385 1_565 S
C362 C331 1.519 1_554 S
C362 C363 1.377 . S
C362 C367 1.361 . S
C363 H318 0.929 1_554 S
C363 C362 1.377 . S
C363 C364 1.386 . S
C364 H319 0.931 . S
C364 C363 1.386 . S
C364 C365 1.363 . S
C365 C364 1.363 . S
C365 C366 1.385 . S
C366 H320 0.930 . S
C366 C365 1.385 . S
C366 C367 1.396 . S
C367 H321 0.929 . S
C367 C362 1.361 . S
C367 C366 1.396 . S
C368 O322 1.300 . S
C368 O323 1.209 . S
C368 C341 1.486 . S
C369 O324 1.199 . S
C369 O325 1.297 . S
C369 C353 1.476 . S
H370 O396 0.856 1_556 S
H371 O399 0.854 . S
H372 C407 0.930 . S
H373 C408 0.930 . S
H374 C410 0.930 . S
H375 C411 0.930 . S
H376 C413 0.931 . S
H377 C414 0.930 . S
H378 C416 0.930 . S
H379 C417 0.929 . S
H380 C419 0.930 . S
H381 C420 0.931 . S
H382 C422 0.930 . S
H383 C423 0.929 . S
H384 C425 0.931 . S
H385 C426 0.930 . S
H386 C428 0.930 . S
H387 C429 0.932 . S
H388 C431 0.930 . S
H389 C432 0.929 . S
H390 C434 0.931 . S
H391 C435 0.930 . S
H392 C437 0.929 . S
H393 C438 0.931 . S
H394 C440 0.930 . S
H395 C441 0.929 . S
O396 H370 0.856 1_554 S
O396 C442 1.300 . S
O397 C442 1.209 . S
O398 C443 1.199 . S
O399 H371 0.854 . S
O399 C443 1.297 . S
C400 C401 1.404 . S
C400 C405 1.397 . S
C400 C406 1.492 . S
C401 C400 1.404 . S
C401 C402 1.396 . S
C401 C412 1.492 . S
C402 C401 1.396 . S
C402 C403 1.397 . S
C402 C418 1.509 . S
C403 C402 1.397 . S
C403 C404 1.412 . S
C403 C424 1.485 . S
C404 C403 1.412 . S
C404 C405 1.388 . S
C404 C430 1.490 . S
C405 C400 1.397 . S
C405 C404 1.388 . S
C405 C436 1.519 . S
C406 C400 1.492 . S
C406 C407 1.363 . S
C406 C411 1.390 . S
C407 H372 0.930 . S
C407 C406 1.363 . S
C407 C408 1.372 . S
C408 H373 0.930 . S
C408 C407 1.372 . S
C408 C409 1.383 . S
C409 C408 1.383 . S
C409 C410 1.395 . S
C410 H374 0.930 . S
C410 C409 1.395 . S
C410 C411 1.362 . S
C411 H375 0.930 . S
C411 C406 1.390 . S
C411 C410 1.362 . S
C412 C401 1.492 . S
C412 C413 1.377 . S
C412 C417 1.397 . S
C413 H376 0.931 . S
C413 C412 1.377 . S
C413 C414 1.376 . S
C414 H377 0.930 . S
C414 C413 1.376 . S
C414 C415 1.376 . S
C415 C414 1.376 . S
C415 C416 1.378 . S
C415 C442 1.486 . S
C416 H378 0.930 . S
C416 C415 1.378 . S
C416 C417 1.376 . S
C417 H379 0.929 . S
C417 C412 1.397 . S
C417 C416 1.376 . S
C418 C402 1.509 . S
C418 C419 1.391 . S
C418 C423 1.386 . S
C419 H380 0.930 . S
C419 C418 1.391 . S
C419 C420 1.375 . S
C420 H381 0.931 . S
C420 C419 1.375 . S
C420 C421 1.375 . S
C421 C420 1.375 . S
C421 C422 1.361 . S
C422 H382 0.930 . S
C422 C421 1.361 . S
C422 C423 1.399 . S
C423 H383 0.929 . S
C423 C418 1.386 . S
C423 C422 1.399 . S
C424 C403 1.485 . S
C424 C425 1.394 . S
C424 C429 1.360 . S
C425 H384 0.931 . S
C425 C424 1.394 . S
C425 C426 1.372 . S
C426 H385 0.930 . S
C426 C425 1.372 . S
C426 C427 1.397 . S
C427 C426 1.397 . S
C427 C428 1.390 . S
C427 C443 1.476 . S
C428 H386 0.930 . S
C428 C427 1.390 . S
C428 C429 1.366 . S
C429 H387 0.932 . S
C429 C424 1.360 . S
C429 C428 1.366 . S
C430 C404 1.490 . S
C430 C431 1.380 . S
C430 C435 1.386 . S
C431 H388 0.930 . S
C431 C430 1.380 . S
C431 C432 1.381 . S
C432 H389 0.929 . S
C432 C431 1.381 . S
C432 C433 1.371 . S
C433 C432 1.371 . S
C433 C434 1.380 . S
C434 H390 0.931 . S
C434 C433 1.380 . S
C434 C435 1.387 . S
C435 H391 0.930 . S
C435 C430 1.386 . S
C435 C434 1.387 . S
C436 C405 1.519 . S
C436 C437 1.377 . S
C436 C441 1.361 . S
C437 H392 0.929 . S
C437 C436 1.377 . S
C437 C438 1.386 . S
C438 H393 0.931 . S
C438 C437 1.386 . S
C438 C439 1.363 . S
C439 C438 1.363 . S
C439 C440 1.385 . S
C440 H394 0.930 . S
C440 C439 1.385 . S
C440 C441 1.396 . S
C441 H395 0.929 . S
C441 C436 1.361 . S
C441 C440 1.396 . S
C442 O396 1.300 . S
C442 O397 1.209 . S
C442 C415 1.486 . S
C443 O398 1.199 . S
C443 O399 1.297 . S
C443 C427 1.476 . S
O444 Cd445 2.223 . S
O444 C452 1.315 . S
Cd445 O444 2.223 . S
Cd445 O448 2.297 . S
Cd445 O449 2.439 . S
Cd445 O455 2.240 . S
Cd446 O447 2.240 . S
Cd446 O454 2.223 . S
Cd446 O456 2.297 . S
Cd446 O457 2.439 . S
O447 Cd446 2.240 . S
O447 C452 1.279 . S
O448 Cd445 2.297 . S
O448 C450 1.247 . S
O449 Cd445 2.439 . S
O449 C450 1.208 . S
C450 O448 1.247 . S
C450 O449 1.208 . S
C451 O456 1.247 . S
C451 O457 1.208 . S
C452 O444 1.315 . S
C452 O447 1.279 . S
C453 O454 1.315 . S
C453 O455 1.279 . S
O454 Cd446 2.223 . S
O454 C453 1.315 . S
O455 Cd445 2.240 . S
O455 C453 1.279 . S
O456 Cd446 2.297 . S
O456 C451 1.247 . S
O457 Cd446 2.439 . S
O457 C451 1.208 . S
O458 Cd459 2.223 . S
O458 C466 1.315 . S
Cd459 O458 2.223 . S
Cd459 O462 2.297 . S
Cd459 O463 2.439 . S
Cd459 O469 2.240 . S
Cd460 O461 2.240 . S
Cd460 O468 2.223 . S
Cd460 O470 2.297 . S
Cd460 O471 2.439 . S
O461 Cd460 2.240 . S
O461 C466 1.279 . S
O462 Cd459 2.297 . S
O462 C464 1.247 . S
O463 Cd459 2.439 . S
O463 C464 1.208 . S
C464 O462 1.247 . S
C464 O463 1.208 . S
C465 O470 1.247 . S
C465 O471 1.208 . S
C466 O458 1.315 . S
C466 O461 1.279 . S
C467 O468 1.315 . S
C467 O469 1.279 . S
O468 Cd460 2.223 . S
O468 C467 1.315 . S
O469 Cd459 2.240 . S
O469 C467 1.279 . S
O470 Cd460 2.297 . S
O470 C465 1.247 . S
O471 Cd460 2.439 . S
O471 C465 1.208 . S
O472 Cd473 2.223 . S
O472 C480 1.315 . S
Cd473 O472 2.223 . S
Cd473 O476 2.297 . S
Cd473 O477 2.439 . S
Cd473 O483 2.240 . S
Cd474 O475 2.240 . S
Cd474 O482 2.223 . S
Cd474 O484 2.297 . S
Cd474 O485 2.439 . S
O475 Cd474 2.240 . S
O475 C480 1.279 . S
O476 Cd473 2.297 . S
O476 C478 1.247 . S
O477 Cd473 2.439 . S
O477 C478 1.208 . S
C478 O476 1.247 . S
C478 O477 1.208 . S
C479 O484 1.247 . S
C479 O485 1.208 . S
C480 O472 1.315 . S
C480 O475 1.279 . S
C481 O482 1.315 . S
C481 O483 1.279 . S
O482 Cd474 2.223 . S
O482 C481 1.315 . S
O483 Cd473 2.240 . S
O483 C481 1.279 . S
O484 Cd474 2.297 . S
O484 C479 1.247 . S
O485 Cd474 2.439 . S
O485 C479 1.208 . S
O486 Cd487 2.223 . S
O486 C494 1.315 . S
Cd487 O486 2.223 . S
Cd487 O490 2.297 . S
Cd487 O491 2.439 . S
Cd487 O497 2.240 . S
Cd488 O489 2.240 . S
Cd488 O496 2.223 . S
Cd488 O498 2.297 . S
Cd488 O499 2.439 . S
O489 Cd488 2.240 . S
O489 C494 1.279 . S
O490 Cd487 2.297 . S
O490 C492 1.247 . S
O491 Cd487 2.439 . S
O491 C492 1.208 . S
C492 O490 1.247 . S
C492 O491 1.208 . S
C493 O498 1.247 . S
C493 O499 1.208 . S
C494 O486 1.315 . S
C494 O489 1.279 . S
C495 O496 1.315 . S
C495 O497 1.279 . S
O496 Cd488 2.223 . S
O496 C495 1.315 . S
O497 Cd487 2.240 . S
O497 C495 1.279 . S
O498 Cd488 2.297 . S
O498 C493 1.247 . S
O499 Cd488 2.439 . S
O499 C493 1.208 . S
O500 Cd501 2.223 . S
O500 C508 1.315 . S
Cd501 O500 2.223 . S
Cd501 O504 2.297 . S
Cd501 O505 2.439 . S
Cd501 O511 2.240 . S
Cd502 O503 2.240 . S
Cd502 O510 2.223 . S
Cd502 O512 2.297 . S
Cd502 O513 2.439 . S
O503 Cd502 2.240 . S
O503 C508 1.279 . S
O504 Cd501 2.297 . S
O504 C506 1.247 . S
O505 Cd501 2.439 . S
O505 C506 1.208 . S
C506 O504 1.247 . S
C506 O505 1.208 . S
C507 O512 1.247 . S
C507 O513 1.208 . S
C508 O500 1.315 . S
C508 O503 1.279 . S
C509 O510 1.315 . S
C509 O511 1.279 . S
O510 Cd502 2.223 . S
O510 C509 1.315 . S
O511 Cd501 2.240 . S
O511 C509 1.279 . S
O512 Cd502 2.297 . S
O512 C507 1.247 . S
O513 Cd502 2.439 . S
O513 C507 1.208 . S
O514 Cd515 2.223 . S
O514 C522 1.315 . S
Cd515 O514 2.223 . S
Cd515 O518 2.297 . S
Cd515 O519 2.439 . S
Cd515 O525 2.240 . S
Cd516 O517 2.240 . S
Cd516 O524 2.223 . S
Cd516 O526 2.297 . S
Cd516 O527 2.439 . S
O517 Cd516 2.240 . S
O517 C522 1.279 . S
O518 Cd515 2.297 . S
O518 C520 1.247 . S
O519 Cd515 2.439 . S
O519 C520 1.208 . S
C520 O518 1.247 . S
C520 O519 1.208 . S
C521 O526 1.247 . S
C521 O527 1.208 . S
C522 O514 1.315 . S
C522 O517 1.279 . S
C523 O524 1.315 . S
C523 O525 1.279 . S
O524 Cd516 2.223 . S
O524 C523 1.315 . S
O525 Cd515 2.240 . S
O525 C523 1.279 . S
O526 Cd516 2.297 . S
O526 C521 1.247 . S
O527 Cd516 2.439 . S
O527 C521 1.208 . S
H528 C536 0.950 . S
H529 C541 0.950 . S
H530 C538 0.950 . S
H531 C540 0.950 . S
H532 C542 0.950 . S
H533 C544 0.950 . S
H534 C546 0.950 . S
H535 C547 0.950 . S
C536 H528 0.950 . S
C536 C537 1.386 . S
C536 C538 1.391 . S
C537 C536 1.386 . S
C537 C541 1.393 . S
C538 H530 0.950 . S
C538 C536 1.391 . S
C538 C539 1.400 . S
C539 C538 1.400 . S
C539 C540 1.398 . S
C539 C545 1.491 . S
C540 H531 0.950 . S
C540 C539 1.398 . S
C540 C541 1.391 . S
C541 H529 0.950 . S
C541 C537 1.393 . S
C541 C540 1.391 . S
C542 H532 0.950 . S
C542 C543 1.386 . S
C542 C544 1.391 . S
C543 C542 1.386 . S
C543 C547 1.393 . S
C544 H533 0.950 . S
C544 C542 1.391 . S
C544 C545 1.400 . S
C545 C539 1.491 . S
C545 C544 1.400 . S
C545 C546 1.398 . S
C546 H534 0.950 . S
C546 C545 1.398 . S
C546 C547 1.391 . S
C547 H535 0.950 . S
C547 C543 1.393 . S
C547 C546 1.391 . S
H548 C556 0.950 . S
H549 C561 0.950 . S
H550 C558 0.950 . S
H551 C560 0.950 . S
H552 C562 0.950 . S
H553 C564 0.950 . S
H554 C566 0.950 . S
H555 C567 0.950 . S
C556 H548 0.950 . S
C556 C557 1.386 . S
C556 C558 1.391 . S
C557 C556 1.386 . S
C557 C561 1.393 . S
C558 H550 0.950 . S
C558 C556 1.391 . S
C558 C559 1.400 . S
C559 C558 1.400 . S
C559 C560 1.398 . S
C559 C565 1.491 . S
C560 H551 0.950 . S
C560 C559 1.398 . S
C560 C561 1.391 . S
C561 H549 0.950 . S
C561 C557 1.393 . S
C561 C560 1.391 . S
C562 H552 0.950 . S
C562 C563 1.386 . S
C562 C564 1.391 . S
C563 C562 1.386 . S
C563 C567 1.393 . S
C564 H553 0.950 . S
C564 C562 1.391 . S
C564 C565 1.400 . S
C565 C559 1.491 . S
C565 C564 1.400 . S
C565 C566 1.398 . S
C566 H554 0.950 . S
C566 C565 1.398 . S
C566 C567 1.391 . S
C567 H555 0.950 . S
C567 C563 1.393 . S
C567 C566 1.391 . S
H568 C576 0.950 . S
H569 C581 0.950 . S
H570 C578 0.950 . S
H571 C580 0.950 . S
H572 C582 0.950 . S
H573 C584 0.950 . S
H574 C586 0.950 . S
H575 C587 0.950 . S
C576 H568 0.950 . S
C576 C577 1.386 . S
C576 C578 1.391 . S
C577 C576 1.386 . S
C577 C581 1.393 . S
C578 H570 0.950 . S
C578 C576 1.391 . S
C578 C579 1.400 . S
C579 C578 1.400 . S
C579 C580 1.398 . S
C579 C585 1.491 . S
C580 H571 0.950 . S
C580 C579 1.398 . S
C580 C581 1.391 . S
C581 H569 0.950 . S
C581 C577 1.393 . S
C581 C580 1.391 . S
C582 H572 0.950 . S
C582 C583 1.386 . S
C582 C584 1.391 . S
C583 C582 1.386 . S
C583 C587 1.393 . S
C584 H573 0.950 . S
C584 C582 1.391 . S
C584 C585 1.400 . S
C585 C579 1.491 . S
C585 C584 1.400 . S
C585 C586 1.398 . S
C586 H574 0.950 . S
C586 C585 1.398 . S
C586 C587 1.391 . S
C587 H575 0.950 . S
C587 C583 1.393 . S
C587 C586 1.391 . S
H588 C596 0.950 . S
H589 C601 0.950 . S
H590 C598 0.950 . S
H591 C600 0.950 . S
H592 C602 0.950 . S
H593 C604 0.950 . S
H594 C606 0.950 . S
H595 C607 0.950 . S
C596 H588 0.950 . S
C596 C597 1.386 . S
C596 C598 1.391 . S
C597 C596 1.386 . S
C597 C601 1.393 . S
C598 H590 0.950 . S
C598 C596 1.391 . S
C598 C599 1.400 . S
C599 C598 1.400 . S
C599 C600 1.398 . S
C599 C605 1.491 . S
C600 H591 0.950 . S
C600 C599 1.398 . S
C600 C601 1.391 . S
C601 H589 0.950 . S
C601 C597 1.393 . S
C601 C600 1.391 . S
C602 H592 0.950 . S
C602 C603 1.386 . S
C602 C604 1.391 . S
C603 C602 1.386 . S
C603 C607 1.393 . S
C604 H593 0.950 . S
C604 C602 1.391 . S
C604 C605 1.400 . S
C605 C599 1.491 . S
C605 C604 1.400 . S
C605 C606 1.398 . S
C606 H594 0.950 . S
C606 C605 1.398 . S
C606 C607 1.391 . S
C607 H595 0.950 . S
C607 C603 1.393 . S
C607 C606 1.391 . S
H608 C616 0.950 . S
H609 C621 0.950 . S
H610 C618 0.950 . S
H611 C620 0.950 . S
H612 C622 0.950 . S
H613 C624 0.950 . S
H614 C626 0.950 . S
H615 C627 0.950 . S
C616 H608 0.950 . S
C616 C617 1.386 . S
C616 C618 1.391 . S
C617 C616 1.386 . S
C617 C621 1.393 . S
C618 H610 0.950 . S
C618 C616 1.391 . S
C618 C619 1.400 . S
C619 C618 1.400 . S
C619 C620 1.398 . S
C619 C625 1.491 . S
C620 H611 0.950 . S
C620 C619 1.398 . S
C620 C621 1.391 . S
C621 H609 0.950 . S
C621 C617 1.393 . S
C621 C620 1.391 . S
C622 H612 0.950 . S
C622 C623 1.386 . S
C622 C624 1.391 . S
C623 C622 1.386 . S
C623 C627 1.393 . S
C624 H613 0.950 . S
C624 C622 1.391 . S
C624 C625 1.400 . S
C625 C619 1.491 . S
C625 C624 1.400 . S
C625 C626 1.398 . S
C626 H614 0.950 . S
C626 C625 1.398 . S
C626 C627 1.391 . S
C627 H615 0.950 . S
C627 C623 1.393 . S
C627 C626 1.391 . S
H628 C636 0.950 . S
H629 C641 0.950 . S
H630 C638 0.950 . S
H631 C640 0.950 . S
H632 C642 0.950 . S
H633 C644 0.950 . S
H634 C646 0.950 . S
H635 C647 0.950 . S
C636 H628 0.950 . S
C636 C637 1.386 . S
C636 C638 1.391 . S
C637 C636 1.386 . S
C637 C641 1.393 . S
C638 H630 0.950 . S
C638 C636 1.391 . S
C638 C639 1.400 . S
C639 C638 1.400 . S
C639 C640 1.398 . S
C639 C645 1.491 . S
C640 H631 0.950 . S
C640 C639 1.398 . S
C640 C641 1.391 . S
C641 H629 0.950 . S
C641 C637 1.393 . S
C641 C640 1.391 . S
C642 H632 0.950 . S
C642 C643 1.386 . S
C642 C644 1.391 . S
C643 C642 1.386 . S
C643 C647 1.393 . S
C644 H633 0.950 . S
C644 C642 1.391 . S
C644 C645 1.400 . S
C645 C639 1.491 . S
C645 C644 1.400 . S
C645 C646 1.398 . S
C646 H634 0.950 . S
C646 C645 1.398 . S
C646 C647 1.391 . S
C647 H635 0.950 . S
C647 C643 1.393 . S
C647 C646 1.391 . S
H648 C656 0.950 . S
H649 C661 0.950 . S
H650 C658 0.950 . S
H651 C660 0.950 . S
H652 C662 0.950 . S
H653 C664 0.950 . S
H654 C666 0.950 . S
H655 C667 0.950 . S
C656 H648 0.950 . S
C656 C657 1.386 . S
C656 C658 1.391 . S
C657 C656 1.386 . S
C657 C661 1.393 . S
C658 H650 0.950 . S
C658 C656 1.391 . S
C658 C659 1.400 . S
C659 C658 1.400 . S
C659 C660 1.398 . S
C659 C665 1.491 . S
C660 H651 0.950 . S
C660 C659 1.398 . S
C660 C661 1.391 . S
C661 H649 0.950 . S
C661 C657 1.393 . S
C661 C660 1.391 . S
C662 H652 0.950 . S
C662 C663 1.386 . S
C662 C664 1.391 . S
C663 C662 1.386 . S
C663 C667 1.393 . S
C664 H653 0.950 . S
C664 C662 1.391 . S
C664 C665 1.400 . S
C665 C659 1.491 . S
C665 C664 1.400 . S
C665 C666 1.398 . S
C666 H654 0.950 . S
C666 C665 1.398 . S
C666 C667 1.391 . S
C667 H655 0.950 . S
C667 C663 1.393 . S
C667 C666 1.391 . S
H668 C676 0.950 . S
H669 C681 0.950 . S
H670 C678 0.950 . S
H671 C680 0.950 . S
H672 C682 0.950 . S
H673 C684 0.950 . S
H674 C686 0.950 . S
H675 C687 0.950 . S
C676 H668 0.950 . S
C676 C677 1.386 . S
C676 C678 1.391 . S
C677 C676 1.386 . S
C677 C681 1.393 . S
C678 H670 0.950 . S
C678 C676 1.391 . S
C678 C679 1.400 . S
C679 C678 1.400 . S
C679 C680 1.398 . S
C679 C685 1.491 . S
C680 H671 0.950 . S
C680 C679 1.398 . S
C680 C681 1.391 . S
C681 H669 0.950 . S
C681 C677 1.393 . S
C681 C680 1.391 . S
C682 H672 0.950 . S
C682 C683 1.386 . S
C682 C684 1.391 . S
C683 C682 1.386 . S
C683 C687 1.393 . S
C684 H673 0.950 . S
C684 C682 1.391 . S
C684 C685 1.400 . S
C685 C679 1.491 . S
C685 C684 1.400 . S
C685 C686 1.398 . S
C686 H674 0.950 . S
C686 C685 1.398 . S
C686 C687 1.391 . S
C687 H675 0.950 . S
C687 C683 1.393 . S
C687 C686 1.391 . S
H688 C696 0.950 . S
H689 C701 0.950 . S
H690 C698 0.950 . S
H691 C700 0.950 . S
H692 C702 0.950 . S
H693 C704 0.950 . S
H694 C706 0.950 . S
H695 C707 0.950 . S
C696 H688 0.950 . S
C696 C697 1.386 . S
C696 C698 1.391 . S
C697 C696 1.386 . S
C697 C701 1.393 . S
C698 H690 0.950 . S
C698 C696 1.391 . S
C698 C699 1.400 . S
C699 C698 1.400 . S
C699 C700 1.398 . S
C699 C705 1.491 . S
C700 H691 0.950 . S
C700 C699 1.398 . S
C700 C701 1.391 . S
C701 H689 0.950 . S
C701 C697 1.393 . S
C701 C700 1.391 . S
C702 H692 0.950 . S
C702 C703 1.386 . S
C702 C704 1.391 . S
C703 C702 1.386 . S
C703 C707 1.393 . S
C704 H693 0.950 . S
C704 C702 1.391 . S
C704 C705 1.400 . S
C705 C699 1.491 . S
C705 C704 1.400 . S
C705 C706 1.398 . S
C706 H694 0.950 . S
C706 C705 1.398 . S
C706 C707 1.391 . S
C707 H695 0.950 . S
C707 C703 1.393 . S
C707 C706 1.391 . S
H708 C716 0.950 . S
H709 C721 0.950 . S
H710 C718 0.950 . S
H711 C720 0.950 . S
H712 C722 0.950 . S
H713 C724 0.950 . S
H714 C726 0.950 . S
H715 C727 0.950 . S
C716 H708 0.950 . S
C716 C717 1.386 . S
C716 C718 1.391 . S
C717 C716 1.386 . S
C717 C721 1.393 . S
C718 H710 0.950 . S
C718 C716 1.391 . S
C718 C719 1.400 . S
C719 C718 1.400 . S
C719 C720 1.398 . S
C719 C725 1.491 . S
C720 H711 0.950 . S
C720 C719 1.398 . S
C720 C721 1.391 . S
C721 H709 0.950 . S
C721 C717 1.393 . S
C721 C720 1.391 . S
C722 H712 0.950 . S
C722 C723 1.386 . S
C722 C724 1.391 . S
C723 C722 1.386 . S
C723 C727 1.393 . S
C724 H713 0.950 . S
C724 C722 1.391 . S
C724 C725 1.400 . S
C725 C719 1.491 . S
C725 C724 1.400 . S
C725 C726 1.398 . S
C726 H714 0.950 . S
C726 C725 1.398 . S
C726 C727 1.391 . S
C727 H715 0.950 . S
C727 C723 1.393 . S
C727 C726 1.391 . S
H728 C736 0.950 . S
H729 C741 0.950 . S
H730 C738 0.950 . S
H731 C740 0.950 . S
H732 C742 0.950 . S
H733 C744 0.950 . S
H734 C746 0.950 . S
H735 C747 0.950 . S
C736 H728 0.950 . S
C736 C737 1.386 . S
C736 C738 1.391 . S
C737 C736 1.386 . S
C737 C741 1.393 . S
C738 H730 0.950 . S
C738 C736 1.391 . S
C738 C739 1.400 . S
C739 C738 1.400 . S
C739 C740 1.398 . S
C739 C745 1.491 . S
C740 H731 0.950 . S
C740 C739 1.398 . S
C740 C741 1.391 . S
C741 H729 0.950 . S
C741 C737 1.393 . S
C741 C740 1.391 . S
C742 H732 0.950 . S
C742 C743 1.386 . S
C742 C744 1.391 . S
C743 C742 1.386 . S
C743 C747 1.393 . S
C744 H733 0.950 . S
C744 C742 1.391 . S
C744 C745 1.400 . S
C745 C739 1.491 . S
C745 C744 1.400 . S
C745 C746 1.398 . S
C746 H734 0.950 . S
C746 C745 1.398 . S
C746 C747 1.391 . S
C747 H735 0.950 . S
C747 C743 1.393 . S
C747 C746 1.391 . S
H748 C756 0.950 . S
H749 C761 0.950 . S
H750 C758 0.950 . S
H751 C760 0.950 . S
H752 C762 0.950 . S
H753 C764 0.950 . S
H754 C766 0.950 . S
H755 C767 0.950 . S
C756 H748 0.950 . S
C756 C757 1.386 . S
C756 C758 1.391 . S
C757 C756 1.386 . S
C757 C761 1.393 . S
C758 H750 0.950 . S
C758 C756 1.391 . S
C758 C759 1.400 . S
C759 C758 1.400 . S
C759 C760 1.398 . S
C759 C765 1.491 . S
C760 H751 0.950 . S
C760 C759 1.398 . S
C760 C761 1.391 . S
C761 H749 0.950 . S
C761 C757 1.393 . S
C761 C760 1.391 . S
C762 H752 0.950 . S
C762 C763 1.386 . S
C762 C764 1.391 . S
C763 C762 1.386 . S
C763 C767 1.393 . S
C764 H753 0.950 . S
C764 C762 1.391 . S
C764 C765 1.400 . S
C765 C759 1.491 . S
C765 C764 1.400 . S
C765 C766 1.398 . S
C766 H754 0.950 . S
C766 C765 1.398 . S
C766 C767 1.391 . S
C767 H755 0.950 . S
C767 C763 1.393 . S
C767 C766 1.391 . S
H768 C776 0.950 . S
H769 C781 0.950 . S
H770 C778 0.950 . S
H771 C780 0.950 . S
H772 C782 0.950 . S
H773 C784 0.950 . S
H774 C786 0.950 . S
H775 C787 0.950 . S
C776 H768 0.950 . S
C776 C777 1.386 . S
C776 C778 1.391 . S
C777 C776 1.386 . S
C777 C781 1.393 . S
C778 H770 0.950 . S
C778 C776 1.391 . S
C778 C779 1.400 . S
C779 C778 1.400 . S
C779 C780 1.398 . S
C779 C785 1.491 . S
C780 H771 0.950 . S
C780 C779 1.398 . S
C780 C781 1.391 . S
C781 H769 0.950 . S
C781 C777 1.393 . S
C781 C780 1.391 . S
C782 H772 0.950 . S
C782 C783 1.386 . S
C782 C784 1.391 . S
C783 C782 1.386 . S
C783 C787 1.393 . S
C784 H773 0.950 . S
C784 C782 1.391 . S
C784 C785 1.400 . S
C785 C779 1.491 . S
C785 C784 1.400 . S
C785 C786 1.398 . S
C786 H774 0.950 . S
C786 C785 1.398 . S
C786 C787 1.391 . S
C787 H775 0.950 . S
C787 C783 1.393 . S
C787 C786 1.391 . S
H788 C796 0.950 . S
H789 C801 0.950 . S
H790 C798 0.950 . S
H791 C800 0.950 . S
H792 C802 0.950 . S
H793 C804 0.950 . S
H794 C806 0.950 . S
H795 C807 0.950 . S
C796 H788 0.950 . S
C796 C797 1.386 . S
C796 C798 1.391 . S
C797 C796 1.386 . S
C797 C801 1.393 . S
C798 H790 0.950 . S
C798 C796 1.391 . S
C798 C799 1.400 . S
C799 C798 1.400 . S
C799 C800 1.398 . S
C799 C805 1.491 . S
C800 H791 0.950 . S
C800 C799 1.398 . S
C800 C801 1.391 . S
C801 H789 0.950 . S
C801 C797 1.393 . S
C801 C800 1.391 . S
C802 H792 0.950 . S
C802 C803 1.386 . S
C802 C804 1.391 . S
C803 C802 1.386 . S
C803 C807 1.393 . S
C804 H793 0.950 . S
C804 C802 1.391 . S
C804 C805 1.400 . S
C805 C799 1.491 . S
C805 C804 1.400 . S
C805 C806 1.398 . S
C806 H794 0.950 . S
C806 C805 1.398 . S
C806 C807 1.391 . S
C807 H795 0.950 . S
C807 C803 1.393 . S
C807 C806 1.391 . S
H808 C816 0.950 . S
H809 C821 0.950 . S
H810 C818 0.950 . S
H811 C820 0.950 . S
H812 C822 0.950 . S
H813 C824 0.950 . S
H814 C826 0.950 . S
H815 C827 0.950 . S
C816 H808 0.950 . S
C816 C817 1.386 . S
C816 C818 1.391 . S
C817 C816 1.386 . S
C817 C821 1.393 . S
C818 H810 0.950 . S
C818 C816 1.391 . S
C818 C819 1.400 . S
C819 C818 1.400 . S
C819 C820 1.398 . S
C819 C825 1.491 . S
C820 H811 0.950 . S
C820 C819 1.398 . S
C820 C821 1.391 . S
C821 H809 0.950 . S
C821 C817 1.393 . S
C821 C820 1.391 . S
C822 H812 0.950 . S
C822 C823 1.386 . S
C822 C824 1.391 . S
C823 C822 1.386 . S
C823 C827 1.393 . S
C824 H813 0.950 . S
C824 C822 1.391 . S
C824 C825 1.400 . S
C825 C819 1.491 . S
C825 C824 1.400 . S
C825 C826 1.398 . S
C826 H814 0.950 . S
C826 C825 1.398 . S
C826 C827 1.391 . S
C827 H815 0.950 . S
C827 C823 1.393 . S
C827 C826 1.391 . S
H828 C836 0.950 . S
H829 C841 0.950 . S
H830 C838 0.950 . S
H831 C840 0.950 . S
H832 C842 0.950 . S
H833 C844 0.950 . S
H834 C846 0.950 . S
H835 C847 0.950 . S
C836 H828 0.950 . S
C836 C837 1.386 . S
C836 C838 1.391 . S
C837 C836 1.386 . S
C837 C841 1.393 . S
C838 H830 0.950 . S
C838 C836 1.391 . S
C838 C839 1.400 . S
C839 C838 1.400 . S
C839 C840 1.398 . S
C839 C845 1.491 . S
C840 H831 0.950 . S
C840 C839 1.398 . S
C840 C841 1.391 . S
C841 H829 0.950 . S
C841 C837 1.393 . S
C841 C840 1.391 . S
C842 H832 0.950 . S
C842 C843 1.386 1_556 S
C842 C844 1.391 . S
C843 C842 1.386 1_554 S
C843 C847 1.393 . S
C844 H833 0.950 . S
C844 C842 1.391 . S
C844 C845 1.400 . S
C845 C839 1.491 . S
C845 C844 1.400 . S
C845 C846 1.398 . S
C846 H834 0.950 . S
C846 C845 1.398 . S
C846 C847 1.391 1_556 S
C847 H835 0.950 . S
C847 C843 1.393 . S
C847 C846 1.391 1_554 S
H848 C856 0.951 . S
H849 C861 0.950 . S
H850 C858 0.950 . S
H851 C860 0.950 . S
H852 C862 0.950 . S
H853 C864 0.950 . S
H854 C866 0.950 . S
H855 C867 0.950 . S
C856 H848 0.951 . S
C856 C857 1.384 . S
C856 C858 1.391 . S
C857 C856 1.384 . S
C857 C861 1.406 . S
C858 H850 0.950 . S
C858 C856 1.391 . S
C858 C859 1.400 . S
C859 C858 1.400 . S
C859 C860 1.398 . S
C859 C865 1.491 . S
C860 H851 0.950 . S
C860 C859 1.398 . S
C860 C861 1.391 . S
C861 H849 0.950 . S
C861 C857 1.406 . S
C861 C860 1.391 . S
C862 H852 0.950 . S
C862 C863 1.386 . S
C862 C864 1.391 . S
C863 C862 1.386 . S
C863 C867 1.393 . S
C864 H853 0.950 . S
C864 C862 1.391 . S
C864 C865 1.400 . S
C865 C859 1.491 . S
C865 C864 1.400 . S
C865 C866 1.398 . S
C866 H854 0.950 . S
C866 C865 1.398 . S
C866 C867 1.391 . S
C867 H855 0.950 . S
C867 C863 1.393 . S
C867 C866 1.391 . S
H868 C876 0.950 . S
H869 C881 0.950 . S
H870 C878 0.950 . S
H871 C880 0.950 . S
H872 C882 0.950 . S
H873 C884 0.950 . S
H874 C886 0.950 . S
H875 C887 0.950 . S
C876 H868 0.950 . S
C876 C877 1.386 . S
C876 C878 1.391 . S
C877 C876 1.386 . S
C877 C881 1.393 . S
C878 H870 0.950 . S
C878 C876 1.391 . S
C878 C879 1.400 . S
C879 C878 1.400 . S
C879 C880 1.398 . S
C879 C885 1.491 . S
C880 H871 0.950 . S
C880 C879 1.398 . S
C880 C881 1.391 . S
C881 H869 0.950 . S
C881 C877 1.393 . S
C881 C880 1.391 . S
C882 H872 0.950 . S
C882 C883 1.386 . S
C882 C884 1.391 . S
C883 C882 1.386 . S
C883 C887 1.393 . S
C884 H873 0.950 . S
C884 C882 1.391 . S
C884 C885 1.400 . S
C885 C879 1.491 . S
C885 C884 1.400 . S
C885 C886 1.398 . S
C886 H874 0.950 . S
C886 C885 1.398 . S
C886 C887 1.391 . S
C887 H875 0.950 . S
C887 C883 1.393 . S
C887 C886 1.391 . S
H888 C896 0.950 . S
H889 C901 0.950 . S
H890 C898 0.950 . S
H891 C900 0.950 . S
H892 C902 0.950 . S
H893 C904 0.950 . S
H894 C906 0.950 . S
H895 C907 0.950 . S
C896 H888 0.950 . S
C896 C897 1.386 . S
C896 C898 1.391 . S
C897 C896 1.386 . S
C897 C901 1.393 . S
C898 H890 0.950 . S
C898 C896 1.391 . S
C898 C899 1.400 . S
C899 C898 1.400 . S
C899 C900 1.398 . S
C899 C905 1.491 . S
C900 H891 0.950 . S
C900 C899 1.398 . S
C900 C901 1.391 . S
C901 H889 0.950 . S
C901 C897 1.393 . S
C901 C900 1.391 . S
C902 H892 0.950 . S
C902 C903 1.386 . S
C902 C904 1.391 . S
C903 C902 1.386 . S
C903 C907 1.393 . S
C904 H893 0.950 . S
C904 C902 1.391 . S
C904 C905 1.400 . S
C905 C899 1.491 . S
C905 C904 1.400 . S
C905 C906 1.398 . S
C906 H894 0.950 . S
C906 C905 1.398 . S
C906 C907 1.391 . S
C907 H895 0.950 . S
C907 C903 1.393 . S
C907 C906 1.391 . S
H908 C916 0.950 . S
H909 C921 0.950 . S
H910 C918 0.950 . S
H911 C920 0.950 . S
H912 C922 0.950 . S
H913 C924 0.950 . S
H914 C926 0.950 . S
H915 C927 0.950 . S
C916 H908 0.950 . S
C916 C917 1.386 . S
C916 C918 1.391 . S
C917 C916 1.386 . S
C917 C921 1.393 . S
C918 H910 0.950 . S
C918 C916 1.391 . S
C918 C919 1.400 . S
C919 C918 1.400 . S
C919 C920 1.398 . S
C919 C925 1.491 . S
C920 H911 0.950 . S
C920 C919 1.398 . S
C920 C921 1.391 . S
C921 H909 0.950 . S
C921 C917 1.393 . S
C921 C920 1.391 . S
C922 H912 0.950 . S
C922 C923 1.386 . S
C922 C924 1.391 . S
C923 C922 1.386 . S
C923 C927 1.393 . S
C924 H913 0.950 . S
C924 C922 1.391 . S
C924 C925 1.400 . S
C925 C919 1.491 . S
C925 C924 1.400 . S
C925 C926 1.398 . S
C926 H914 0.950 . S
C926 C925 1.398 . S
C926 C927 1.391 . S
C927 H915 0.950 . S
C927 C923 1.393 . S
C927 C926 1.391 . S
H928 C936 0.950 . S
H929 C941 0.950 . S
H930 C938 0.950 . S
H931 C940 0.950 . S
H932 C942 0.950 . S
H933 C944 0.950 . S
H934 C946 0.950 . S
H935 C947 0.950 . S
C936 H928 0.950 . S
C936 C937 1.386 . S
C936 C938 1.391 . S
C937 C936 1.386 . S
C937 C941 1.393 . S
C938 H930 0.950 . S
C938 C936 1.391 . S
C938 C939 1.400 . S
C939 C938 1.400 . S
C939 C940 1.398 . S
C939 C945 1.491 . S
C940 H931 0.950 . S
C940 C939 1.398 . S
C940 C941 1.391 . S
C941 H929 0.950 . S
C941 C937 1.393 . S
C941 C940 1.391 . S
C942 H932 0.950 . S
C942 C943 1.386 . S
C942 C944 1.391 . S
C943 C942 1.386 . S
C943 C947 1.393 . S
C944 H933 0.950 . S
C944 C942 1.391 . S
C944 C945 1.400 . S
C945 C939 1.491 . S
C945 C944 1.400 . S
C945 C946 1.398 . S
C946 H934 0.950 . S
C946 C945 1.398 . S
C946 C947 1.391 . S
C947 H935 0.950 . S
C947 C943 1.393 . S
C947 C946 1.391 . S
H948 C956 0.950 . S
H949 C961 0.950 . S
H950 C958 0.950 . S
H951 C960 0.950 . S
H952 C962 0.950 . S
H953 C964 0.950 . S
H954 C966 0.950 . S
H955 C967 0.950 . S
C956 H948 0.950 . S
C956 C957 1.386 . S
C956 C958 1.391 . S
C957 C956 1.386 . S
C957 C961 1.393 . S
C958 H950 0.950 . S
C958 C956 1.391 . S
C958 C959 1.400 . S
C959 C958 1.400 . S
C959 C960 1.398 . S
C959 C965 1.491 . S
C960 H951 0.950 . S
C960 C959 1.398 . S
C960 C961 1.391 . S
C961 H949 0.950 . S
C961 C957 1.393 . S
C961 C960 1.391 . S
C962 H952 0.950 . S
C962 C963 1.386 . S
C962 C964 1.391 . S
C963 C962 1.386 . S
C963 C967 1.393 . S
C964 H953 0.950 . S
C964 C962 1.391 . S
C964 C965 1.400 . S
C965 C959 1.491 . S
C965 C964 1.400 . S
C965 C966 1.398 . S
C966 H954 0.950 . S
C966 C965 1.398 . S
C966 C967 1.391 . S
C967 H955 0.950 . S
C967 C963 1.393 . S
C967 C966 1.391 . S
H968 C976 0.950 . S
H969 C981 0.950 . S
H970 C978 0.950 . S
H971 C980 0.983 . S
H972 C982 0.950 . S
H973 C984 0.950 . S
H974 C986 0.920 1_554 S
H975 C987 0.950 . S
C976 H968 0.950 . S
C976 C977 1.386 . S
C976 C978 1.391 . S
C977 C976 1.386 . S
C977 C981 1.393 . S
C978 H970 0.950 . S
C978 C976 1.391 . S
C978 C979 1.400 . S
C979 C978 1.400 . S
C979 C980 1.398 . S
C979 C985 1.491 1_554 S
C980 H971 0.983 . S
C980 C979 1.398 . S
C980 C981 1.391 . S
C981 H969 0.950 . S
C981 C977 1.393 . S
C981 C980 1.391 . S
C982 H972 0.950 . S
C982 C983 1.386 . S
C982 C984 1.391 . S
C983 C982 1.386 . S
C983 C987 1.393 . S
C984 H973 0.950 . S
C984 C982 1.391 . S
C984 C985 1.400 . S
C985 C979 1.491 1_556 S
C985 C984 1.400 . S
C985 C986 1.401 . S
C986 H974 0.920 1_556 S
C986 C985 1.401 . S
C986 C987 1.417 . S
C987 H975 0.950 . S
C987 C983 1.393 . S
C987 C986 1.417 . S
H988 C996 0.950 . S
H989 C1001 0.950 . S
H990 C998 0.950 . S
H991 C1000 0.950 . S
H992 C1002 0.950 . S
H993 C1004 0.950 . S
H994 C1006 0.950 . S
H995 C1007 0.950 . S
C996 H988 0.950 . S
C996 C997 1.386 . S
C996 C998 1.391 . S
C997 C996 1.386 . S
C997 C1001 1.393 . S
C998 H990 0.950 . S
C998 C996 1.391 . S
C998 C999 1.400 . S
C999 C998 1.400 . S
C999 C1000 1.398 . S
C999 C1005 1.491 . S
C1000 H991 0.950 . S
C1000 C999 1.398 . S
C1000 C1001 1.391 . S
C1001 H989 0.950 . S
C1001 C997 1.393 . S
C1001 C1000 1.391 . S
C1002 H992 0.950 . S
C1002 C1003 1.386 . S
C1002 C1004 1.391 . S
C1003 C1002 1.386 . S
C1003 C1007 1.393 . S
C1004 H993 0.950 . S
C1004 C1002 1.391 . S
C1004 C1005 1.400 . S
C1005 C999 1.491 . S
C1005 C1004 1.400 . S
C1005 C1006 1.398 . S
C1006 H994 0.950 . S
C1006 C1005 1.398 . S
C1006 C1007 1.391 . S
C1007 H995 0.950 . S
C1007 C1003 1.393 . S
C1007 C1006 1.391 . S
C543 C521 1.444 . S
C537 C51 1.433 . S
C557 C125 1.440 . S
C563 C450 1.436 . S
C577 C217 2.625 . S
C583 C464 2.636 . S
C597 C291 1.572 . S
C603 C478 1.552 . S
C623 C492 0.952 . S
C617 C347 0.954 . S
C637 C421 1.137 . S
C643 C507 1.111 . S
C657 C143 2.225 . S
C663 C465 2.212 . S
C677 C199 1.543 . S
C683 C479 1.562 . S
C697 C273 0.743 . S
C703 C493 0.747 . S
C723 C506 1.694 . S
C717 C365 1.689 . S
C743 C520 1.785 . S
C737 C439 1.793 . S
C763 C451 2.563 . S
C757 C69 2.523 . S
C777 C63 1.451 . S
C783 C467 1.569 . S
C797 C137 1.859 . S
C803 C481 1.938 . S
C823 C495 1.384 . S
C817 C187 1.359 . S
C837 C261 1.794 . S
C843 C508 1.793 . S
C863 C522 1.573 . S
C857 C359 1.409 1_565 S
C883 C453 1.467 . S
C877 C433 1.428 . S
C903 C523 1.911 . S
C897 C113 1.950 . S
C917 C211 1.345 . S
C923 C452 1.417 . S
C943 C466 1.930 . S
C937 C285 1.851 . S
C957 C335 1.342 . S
C963 C480 1.420 . S
C977 C409 1.661 . S
C983 C494 1.649 . S
C997 C39 1.592 . S
C1003 C509 1.612 . S
