# Generated by pormake.
# Topology pto, (3,4)-cn, num edge types: 1
# Building blocks:
#     Node 0, Type 0, BuildingBlock: OLANEW_clean_sbu_2, # of connection points: 3
#     Node 1, Type 0, BuildingBlock: OLANEW_clean_sbu_2, # of connection points: 3
#     Node 2, Type 0, BuildingBlock: OLANEW_clean_sbu_2, # of connection points: 3
#     Node 3, Type 0, BuildingBlock: OLANEW_clean_sbu_2, # of connection points: 3
#     Node 4, Type 0, BuildingBlock: OLANEW_clean_sbu_2, # of connection points: 3
#     Node 5, Type 0, BuildingBlock: OLANEW_clean_sbu_2, # of connection points: 3
#     Node 6, Type 0, BuildingBlock: OLANEW_clean_sbu_2, # of connection points: 3
#     Node 7, Type 0, BuildingBlock: OLANEW_clean_sbu_2, # of connection points: 3
#     Node 8, Type 1, BuildingBlock: MUDLON_clean_linker_0, # of connection points: 4
#     Node 9, Type 1, BuildingBlock: MUDLON_clean_linker_0, # of connection points: 4
#     Node 10, Type 1, BuildingBlock: MUDLON_clean_linker_0, # of connection points: 4
#     Node 11, Type 1, BuildingBlock: MUDLON_clean_linker_0, # of connection points: 4
#     Node 12, Type 1, BuildingBlock: MUDLON_clean_linker_0, # of connection points: 4
#     Node 13, Type 1, BuildingBlock: MUDLON_clean_linker_0, # of connection points: 4
#     Edge 14, Type (0, 1), BuildingBlock: MIFKUJ_clean_linker_0, # of connection points: 2
#     Edge 15, Type (0, 1), BuildingBlock: MIFKUJ_clean_linker_0, # of connection points: 2
#     Edge 16, Type (0, 1), BuildingBlock: MIFKUJ_clean_linker_0, # of connection points: 2
#     Edge 17, Type (0, 1), BuildingBlock: MIFKUJ_clean_linker_0, # of connection points: 2
#     Edge 18, Type (0, 1), BuildingBlock: MIFKUJ_clean_linker_0, # of connection points: 2
#     Edge 19, Type (0, 1), BuildingBlock: MIFKUJ_clean_linker_0, # of connection points: 2
#     Edge 20, Type (0, 1), BuildingBlock: MIFKUJ_clean_linker_0, # of connection points: 2
#     Edge 21, Type (0, 1), BuildingBlock: MIFKUJ_clean_linker_0, # of connection points: 2
#     Edge 22, Type (0, 1), BuildingBlock: MIFKUJ_clean_linker_0, # of connection points: 2
#     Edge 23, Type (0, 1), BuildingBlock: MIFKUJ_clean_linker_0, # of connection points: 2
#     Edge 24, Type (0, 1), BuildingBlock: MIFKUJ_clean_linker_0, # of connection points: 2
#     Edge 25, Type (0, 1), BuildingBlock: MIFKUJ_clean_linker_0, # of connection points: 2
#     Edge 26, Type (0, 1), BuildingBlock: MIFKUJ_clean_linker_0, # of connection points: 2
#     Edge 27, Type (0, 1), BuildingBlock: MIFKUJ_clean_linker_0, # of connection points: 2
#     Edge 28, Type (0, 1), BuildingBlock: MIFKUJ_clean_linker_0, # of connection points: 2
#     Edge 29, Type (0, 1), BuildingBlock: MIFKUJ_clean_linker_0, # of connection points: 2
#     Edge 30, Type (0, 1), BuildingBlock: MIFKUJ_clean_linker_0, # of connection points: 2
#     Edge 31, Type (0, 1), BuildingBlock: MIFKUJ_clean_linker_0, # of connection points: 2
#     Edge 32, Type (0, 1), BuildingBlock: MIFKUJ_clean_linker_0, # of connection points: 2
#     Edge 33, Type (0, 1), BuildingBlock: MIFKUJ_clean_linker_0, # of connection points: 2
#     Edge 34, Type (0, 1), BuildingBlock: MIFKUJ_clean_linker_0, # of connection points: 2
#     Edge 35, Type (0, 1), BuildingBlock: MIFKUJ_clean_linker_0, # of connection points: 2
#     Edge 36, Type (0, 1), BuildingBlock: MIFKUJ_clean_linker_0, # of connection points: 2
#     Edge 37, Type (0, 1), BuildingBlock: MIFKUJ_clean_linker_0, # of connection points: 2
# Relax obj value: 0.009
# Max RMSD: 0.129
# Mean RMSD: 0.067
data_MOF--net-pto--node1-OLANEW_clean_sbu_2--node2-MUDLON_clean_linker_0--edge1-MIFKUJ_clean_linker_0
_symmetry_space_group_name_H-M    P1
_symmetry_Int_Tables_number       1
_symmetry_cell_setting            triclinic
loop_
_symmetry_equiv_pos_as_xyz
'x, y, z'
_cell_length_a     48.524694
_cell_length_b     86.872523
_cell_length_c     67.892995
_cell_angle_alpha  92.693944
_cell_angle_beta   89.003183
_cell_angle_gamma 106.30419
loop_
_atom_site_label
_atom_site_type_symbol
_atom_site_fract_x
_atom_site_fract_y
_atom_site_fract_z
_atom_type_partial_charge
O0 O 0.3048 0.2992 0.31221 0.0
Cd1 Cd 0.28307 0.2934 0.34465 0.0
O2 O 0.31111 0.32419 0.32216 0.0
Cd3 Cd 0.32439 0.35039 0.32228 0.0
O4 O 0.31793 0.37399 0.32821 0.0
C5 C 0.3156 0.38286 0.31434 0.0
O6 O 0.31915 0.37813 0.29604 0.0
C7 C 0.31383 0.31402 0.3087 0.0
C8 C 0.30968 0.27525 0.36628 0.0
O9 O 0.28685 0.26855 0.3564 0.0
O10 O 0.32003 0.29052 0.36582 0.0
O11 O 0.21557 0.86257 0.77149 0.0
Cd12 Cd 0.18356 0.86881 0.74771 0.0
O13 O 0.21842 0.84265 0.75131 0.0
Cd14 Cd 0.22989 0.82064 0.74269 0.0
O15 O 0.22313 0.79627 0.73006 0.0
C16 C 0.20902 0.79318 0.71408 0.0
O17 O 0.20097 0.80476 0.70621 0.0
C18 C 0.22567 0.85079 0.76738 0.0
C19 C 0.21265 0.89412 0.72471 0.0
O20 O 0.19919 0.89665 0.74039 0.0
O21 O 0.21228 0.87962 0.7199 0.0
O22 O 0.76784 0.759 0.35458 0.0
Cd23 Cd 0.75092 0.73347 0.33579 0.0
O24 O 0.75487 0.76961 0.32913 0.0
Cd25 Cd 0.744 0.78649 0.30985 0.0
O26 O 0.72627 0.79493 0.28455 0.0
C27 C 0.74201 0.80075 0.27003 0.0
O28 O 0.76975 0.80245 0.27077 0.0
C29 C 0.76554 0.77142 0.34636 0.0
C30 C 0.78431 0.71286 0.34214 0.0
O31 O 0.79116 0.72334 0.3289 0.0
O32 O 0.76162 0.71215 0.35243 0.0
O33 O 0.7409 0.27873 0.63204 0.0
Cd34 Cd 0.70586 0.25273 0.63672 0.0
O35 O 0.73557 0.28298 0.66354 0.0
Cd36 Cd 0.73682 0.29389 0.69333 0.0
O37 O 0.72838 0.29793 0.7245 0.0
C38 C 0.72555 0.31127 0.73134 0.0
O39 O 0.72875 0.32315 0.71944 0.0
C40 C 0.74712 0.28812 0.64724 0.0
C41 C 0.72483 0.22625 0.62498 0.0
O42 O 0.71208 0.23281 0.61288 0.0
O43 O 0.72902 0.23238 0.6426 0.0
O44 O 0.69611 0.74985 0.62561 0.0
Cd45 Cd 0.68308 0.72249 0.63713 0.0
O46 O 0.71624 0.75727 0.65443 0.0
Cd47 Cd 0.73377 0.77498 0.6782 0.0
O48 O 0.73192 0.78939 0.70508 0.0
C49 C 0.70891 0.79352 0.70731 0.0
O50 O 0.68956 0.78951 0.69327 0.0
C51 C 0.70958 0.76097 0.63762 0.0
C52 C 0.72458 0.70648 0.62888 0.0
O53 O 0.7032 0.70474 0.61733 0.0
O54 O 0.72645 0.71589 0.64421 0.0
O55 O 0.84693 0.26202 0.31838 0.0
Cd56 Cd 0.83247 0.23458 0.30397 0.0
O57 O 0.81907 0.26694 0.29601 0.0
Cd58 Cd 0.80091 0.28193 0.27816 0.0
O59 O 0.77827 0.29447 0.26012 0.0
C60 C 0.78878 0.30019 0.24387 0.0
O61 O 0.81394 0.29871 0.23813 0.0
C62 C 0.83632 0.27196 0.31031 0.0
C63 C 0.83488 0.21074 0.32946 0.0
O64 O 0.85689 0.21791 0.31932 0.0
O65 O 0.81187 0.21506 0.32781 0.0
O66 O 0.19484 0.32988 0.7706 0.0
Cd67 Cd 0.15559 0.32363 0.74691 0.0
O68 O 0.21978 0.32003 0.74879 0.0
Cd69 Cd 0.25533 0.31076 0.73862 0.0
O70 O 0.28487 0.29808 0.72593 0.0
C71 C 0.27556 0.28293 0.72331 0.0
O72 O 0.24908 0.27571 0.72862 0.0
C73 C 0.21784 0.32637 0.76584 0.0
C74 C 0.15107 0.35042 0.72764 0.0
O75 O 0.13836 0.34662 0.74416 0.0
O76 O 0.16621 0.34159 0.72028 0.0
O77 O 0.44763 0.85119 0.32894 0.0
Cd78 Cd 0.45953 0.85322 0.36391 0.0
O79 O 0.41203 0.82967 0.33316 0.0
Cd80 Cd 0.37722 0.80791 0.32632 0.0
O81 O 0.34216 0.78588 0.32873 0.0
C82 C 0.34601 0.77223 0.32444 0.0
O83 O 0.37122 0.77151 0.31777 0.0
C84 C 0.42712 0.83993 0.32166 0.0
C85 C 0.45177 0.88091 0.3827 0.0
O86 O 0.4752 0.88117 0.37354 0.0
O87 O 0.43197 0.86756 0.3829 0.0
H88 H 0.02758 0.46491 0.36455 0.0
N89 N 0.03498 0.48277 0.33161 0.0
H90 H 0.99167 0.43922 0.36887 0.0
H91 H 0.99018 0.4692 0.30868 0.0
H92 H 0.95417 0.44339 0.31282 0.0
H93 H 0.06076 0.47053 0.30264 0.0
H94 H 0.1066 0.46413 0.30371 0.0
H95 H 0.0722 0.48905 0.36286 0.0
H96 H 0.1186 0.48338 0.36386 0.0
H97 H 0.01972 0.49159 0.36878 0.0
H98 H 0.04677 0.50901 0.31118 0.0
H99 H 0.01957 0.51855 0.38047 0.0
H100 H 0.04781 0.53617 0.3229 0.0
H101 H 0.00033 0.59594 0.40495 0.0
H102 H 0.96231 0.60899 0.40045 0.0
H103 H 0.99363 0.62058 0.34141 0.0
H104 H 0.03197 0.60828 0.34637 0.0
H105 H 0.07621 0.59802 0.34654 0.0
H106 H 0.11977 0.61962 0.34088 0.0
H107 H 0.11494 0.63847 0.40045 0.0
H108 H 0.07112 0.61678 0.40602 0.0
H109 H 0.05554 0.57195 0.39982 0.0
H110 H 0.0523 0.54431 0.38858 0.0
H111 H 0.01814 0.55263 0.33294 0.0
N112 N 0.04254 0.59456 0.37998 0.0
H113 H 0.02261 0.58015 0.34384 0.0
C114 C 0.01164 0.46894 0.33614 0.0
C115 C 0.01134 0.46048 0.35336 0.0
C116 C 0.99087 0.44573 0.35577 0.0
C117 C 0.97025 0.4392 0.3411 0.0
C118 C 0.9696 0.44815 0.32446 0.0
C119 C 0.99017 0.46286 0.32203 0.0
C120 C 0.06311 0.48032 0.33252 0.0
C121 C 0.07348 0.47347 0.31596 0.0
C122 C 0.09979 0.46995 0.31659 0.0
C123 C 0.11644 0.4733 0.33386 0.0
C124 C 0.10623 0.48047 0.35039 0.0
C125 C 0.07975 0.48386 0.34978 0.0
C126 C 0.03293 0.49825 0.33893 0.0
C127 C 0.02542 0.50117 0.35858 0.0
C128 C 0.02566 0.51668 0.36532 0.0
C129 C 0.03365 0.52957 0.35264 0.0
C130 C 0.041 0.52653 0.333 0.0
C131 C 0.04055 0.51104 0.32626 0.0
C132 C 0.01895 0.60106 0.37609 0.0
C133 C 0.99873 0.60121 0.39102 0.0
C134 C 0.97699 0.6086 0.38836 0.0
C135 C 0.97501 0.61595 0.3706 0.0
C136 C 0.99483 0.61535 0.35543 0.0
C137 C 0.01667 0.60812 0.35818 0.0
C138 C 0.07038 0.60573 0.37685 0.0
C139 C 0.08476 0.60655 0.35856 0.0
C140 C 0.10973 0.61893 0.35531 0.0
C141 C 0.12066 0.63079 0.37019 0.0
C142 C 0.10683 0.62961 0.38864 0.0
C143 C 0.08199 0.61718 0.39191 0.0
C144 C 0.03923 0.5782 0.37289 0.0
C145 C 0.0473 0.56774 0.38523 0.0
C146 C 0.04522 0.55193 0.37882 0.0
C147 C 0.03491 0.5462 0.35984 0.0
C148 C 0.02655 0.55667 0.34754 0.0
C149 C 0.02886 0.57249 0.3539 0.0
H150 H 0.98747 0.47381 0.63563 0.0
N151 N 0.00179 0.48489 0.59857 0.0
H152 H 0.94815 0.45072 0.64371 0.0
H153 H 0.95681 0.47059 0.57597 0.0
H154 H 0.91573 0.44817 0.5843 0.0
H155 H 0.02368 0.46245 0.5826 0.0
H156 H 0.05878 0.45114 0.59726 0.0
H157 H 0.03736 0.49873 0.62985 0.0
H158 H 0.07318 0.48799 0.64402 0.0
H159 H 0.98953 0.5029 0.63002 0.0
H160 H 0.01384 0.50421 0.56868 0.0
H161 H 0.99213 0.53137 0.63048 0.0
H162 H 0.01469 0.53242 0.5685 0.0
H163 H 0.97696 0.60566 0.62941 0.0
H164 H 0.93555 0.61637 0.63069 0.0
H165 H 0.93736 0.6182 0.56723 0.0
H166 H 0.9788 0.60717 0.56602 0.0
H167 H 0.04284 0.62577 0.5791 0.0
H168 H 0.0783 0.64851 0.595 0.0
H169 H 0.05978 0.62596 0.65097 0.0
H170 H 0.02485 0.60303 0.63474 0.0
H171 H 0.97208 0.57841 0.61988 0.0
H172 H 0.97026 0.55031 0.62045 0.0
H173 H 0.04086 0.55808 0.57885 0.0
N174 N 0.00746 0.60111 0.59636 0.0
H175 H 0.04118 0.58611 0.57735 0.0
C176 C 0.97551 0.47367 0.60496 0.0
C177 C 0.9718 0.46839 0.62436 0.0
C178 C 0.94897 0.45518 0.62903 0.0
C179 C 0.92887 0.44722 0.61456 0.0
C180 C 0.93126 0.45356 0.59567 0.0
C181 C 0.95449 0.46653 0.59091 0.0
C182 C 0.02748 0.48133 0.60504 0.0
C183 C 0.03503 0.46834 0.5957 0.0
C184 C 0.05521 0.46193 0.6041 0.0
C185 C 0.06853 0.46851 0.62202 0.0
C186 C 0.06285 0.48241 0.63045 0.0
C187 C 0.04239 0.48869 0.62217 0.0
C188 C 0.0019 0.50151 0.5993 0.0
C189 C 0.99522 0.50932 0.61659 0.0
C190 C 0.99649 0.52561 0.61676 0.0
C191 C 0.00382 0.53436 0.59955 0.0
C192 C 0.00973 0.5263 0.58219 0.0
C193 C 0.00898 0.51012 0.58216 0.0
C194 C 0.9808 0.6054 0.59751 0.0
C195 C 0.9681 0.60796 0.61572 0.0
C196 C 0.94439 0.61409 0.61645 0.0
C197 C 0.93328 0.6181 0.59906 0.0
C198 C 0.94559 0.61524 0.58086 0.0
C199 C 0.96905 0.60886 0.58012 0.0
C200 C 0.03114 0.61286 0.60573 0.0
C201 C 0.04696 0.62561 0.59471 0.0
C202 C 0.06699 0.63861 0.60385 0.0
C203 C 0.0715 0.63914 0.6243 0.0
C204 C 0.05685 0.62588 0.63518 0.0
C205 C 0.03679 0.61281 0.62597 0.0
C206 C 0.00657 0.58448 0.59822 0.0
C207 C 0.98711 0.5742 0.61075 0.0
C208 C 0.98627 0.55799 0.61123 0.0
C209 C 0.00523 0.55175 0.59957 0.0
C210 C 0.02534 0.56225 0.58764 0.0
C211 C 0.02579 0.57835 0.58689 0.0
H212 H 0.38673 0.16939 0.55659 0.0
N213 N 0.43872 0.163 0.55198 0.0
H214 H 0.37173 0.18406 0.58426 0.0
H215 H 0.46832 0.17512 0.58459 0.0
H216 H 0.45343 0.19018 0.61242 0.0
H217 H 0.46765 0.19148 0.53904 0.0
H218 H 0.45618 0.20508 0.51099 0.0
H219 H 0.39901 0.14929 0.5226 0.0
H220 H 0.38895 0.16229 0.4941 0.0
H221 H 0.38577 0.1423 0.56059 0.0
H222 H 0.47298 0.14428 0.54411 0.0
H223 H 0.37266 0.11326 0.55831 0.0
H224 H 0.45961 0.11478 0.54166 0.0
H225 H 0.32286 0.03531 0.55488 0.0
H226 H 0.30548 0.0189 0.58337 0.0
H227 H 0.39129 0.0155 0.593 0.0
H228 H 0.40848 0.03199 0.56472 0.0
H229 H 0.4309 0.04172 0.53482 0.0
H230 H 0.44747 0.02459 0.51053 0.0
H231 H 0.36247 0.00884 0.4854 0.0
H232 H 0.34593 0.02587 0.50998 0.0
H233 H 0.35203 0.06429 0.52535 0.0
H234 H 0.36855 0.0936 0.52934 0.0
H235 H 0.44105 0.09005 0.56303 0.0
N236 N 0.37545 0.04322 0.53975 0.0
H237 H 0.42418 0.0607 0.55911 0.0
C238 C 0.42867 0.17097 0.56863 0.0
C239 C 0.40131 0.17362 0.56882 0.0
C240 C 0.39272 0.18201 0.58466 0.0
C241 C 0.41137 0.18818 0.60051 0.0
C242 C 0.43868 0.18557 0.60035 0.0
C243 C 0.44714 0.17694 0.58457 0.0
C244 C 0.4343 0.16941 0.5333 0.0
C245 C 0.45068 0.18499 0.52911 0.0
C246 C 0.44415 0.19272 0.51296 0.0
C247 C 0.4213 0.18489 0.50034 0.0
C248 C 0.40613 0.1689 0.50379 0.0
C249 C 0.41221 0.16131 0.52017 0.0
C250 C 0.43064 0.14566 0.55256 0.0
C251 C 0.40235 0.1366 0.5568 0.0
C252 C 0.39469 0.11988 0.55529 0.0
C253 C 0.41504 0.11178 0.54963 0.0
C254 C 0.44352 0.12074 0.54613 0.0
C255 C 0.45116 0.13754 0.54748 0.0
C256 C 0.36677 0.03474 0.55754 0.0
C257 C 0.33791 0.03118 0.56333 0.0
C258 C 0.3281 0.02188 0.57961 0.0
C259 C 0.34704 0.01587 0.59031 0.0
C260 C 0.37618 0.01984 0.58486 0.0
C261 C 0.38604 0.0293 0.5687 0.0
C262 C 0.38699 0.03493 0.52429 0.0
C263 C 0.41586 0.03472 0.52403 0.0
C264 C 0.42533 0.02491 0.51014 0.0
C265 C 0.40623 0.01536 0.49614 0.0
C266 C 0.37774 0.01619 0.49589 0.0
C267 C 0.36824 0.02584 0.50991 0.0
C268 C 0.38684 0.06036 0.54182 0.0
C269 C 0.37154 0.06987 0.53351 0.0
C270 C 0.38092 0.08655 0.5359 0.0
C271 C 0.40599 0.09407 0.5466 0.0
C272 C 0.42175 0.08455 0.55461 0.0
C273 C 0.41214 0.06779 0.55236 0.0
H274 H 0.51181 0.78732 0.08918 0.0
N275 N 0.50541 0.81125 0.06864 0.0
H276 H 0.55263 0.78716 0.10952 0.0
H277 H 0.55888 0.83335 0.0679 0.0
H278 H 0.60012 0.83291 0.08724 0.0
H279 H 0.51771 0.84101 0.08746 0.0
H280 H 0.49203 0.84873 0.11536 0.0
H281 H 0.45493 0.79476 0.0827 0.0
H282 H 0.43027 0.80185 0.11194 0.0
H283 H 0.49105 0.79189 0.03686 0.0
H284 H 0.52168 0.84198 0.05496 0.0
H285 H 0.4938 0.79912 0.00237 0.0
H286 H 0.5265 0.84922 0.02095 0.0
H287 H 0.51852 0.81516 0.90665 0.0
H288 H 0.55166 0.80925 0.88188 0.0
H289 H 0.61292 0.85489 0.89644 0.0
H290 H 0.57945 0.86077 0.92127 0.0
H291 H 0.51728 0.86473 0.90345 0.0
H292 H 0.47455 0.86267 0.88357 0.0
H293 H 0.43192 0.81764 0.90937 0.0
H294 H 0.47495 0.81947 0.92876 0.0
H295 H 0.53159 0.8155 0.94276 0.0
H296 H 0.52583 0.80805 0.97685 0.0
H297 H 0.50323 0.85182 0.99258 0.0
N298 N 0.52566 0.84354 0.92793 0.0
H299 H 0.5112 0.85974 0.95852 0.0
C300 C 0.532 0.81024 0.07695 0.0
C301 C 0.5313 0.79712 0.08837 0.0
C302 C 0.55476 0.79706 0.09996 0.0
C303 C 0.5797 0.81012 0.10022 0.0
C304 C 0.58107 0.82281 0.08775 0.0
C305 C 0.55742 0.82297 0.0764 0.0
C306 C 0.48789 0.81734 0.0826 0.0
C307 C 0.49781 0.83268 0.09192 0.0
C308 C 0.48338 0.83695 0.10832 0.0
C309 C 0.45933 0.82582 0.11626 0.0
C310 C 0.4485 0.81083 0.10622 0.0
C311 C 0.4626 0.80671 0.0895 0.0
C312 C 0.50629 0.81626 0.0486 0.0
C313 C 0.49849 0.80443 0.03339 0.0
C314 C 0.5004 0.80861 0.01367 0.0
C315 C 0.51065 0.82479 0.0087 0.0
C316 C 0.51807 0.83665 0.02406 0.0
C317 C 0.51559 0.83247 0.04375 0.0
C318 C 0.54649 0.83853 0.9157 0.0
C319 C 0.53924 0.82379 0.90477 0.0
C320 C 0.55816 0.82044 0.89057 0.0
C321 C 0.58471 0.8317 0.8871 0.0
C322 C 0.59266 0.84597 0.89888 0.0
C323 C 0.57362 0.84935 0.91302 0.0
C324 C 0.49925 0.84243 0.91775 0.0
C325 C 0.49862 0.85449 0.90491 0.0
C326 C 0.47437 0.85326 0.89353 0.0
C327 C 0.45008 0.84 0.89501 0.0
C328 C 0.45037 0.82803 0.90813 0.0
C329 C 0.47489 0.82911 0.91924 0.0
C330 C 0.52239 0.83846 0.94802 0.0
C331 C 0.5258 0.82366 0.95347 0.0
C332 C 0.52205 0.81926 0.9731 0.0
C333 C 0.51412 0.82932 0.98767 0.0
C334 C 0.51004 0.8439 0.982 0.0
C335 C 0.5144 0.84844 0.96248 0.0
H336 H 0.79802 0.06234 0.51272 0.0
N337 N 0.8553 0.06414 0.51165 0.0
H338 H 0.77553 0.07895 0.53371 0.0
H339 H 0.87835 0.08252 0.54289 0.0
H340 H 0.85613 0.09949 0.56381 0.0
H341 H 0.89409 0.08975 0.49883 0.0
H342 H 0.8913 0.10446 0.46947 0.0
H343 H 0.81624 0.05375 0.4819 0.0
H344 H 0.81323 0.06836 0.45232 0.0
H345 H 0.81111 0.03982 0.52713 0.0
H346 H 0.89234 0.04952 0.49626 0.0
H347 H 0.80955 0.01179 0.52824 0.0
H348 H 0.89007 0.02115 0.49639 0.0
H349 H 0.79501 0.92955 0.51575 0.0
H350 H 0.7708 0.91004 0.53926 0.0
H351 H 0.84219 0.92768 0.57941 0.0
H352 H 0.86724 0.94642 0.55487 0.0
H353 H 0.88548 0.93005 0.51051 0.0
H354 H 0.88213 0.9102 0.48315 0.0
H355 H 0.81372 0.92556 0.45786 0.0
H356 H 0.81725 0.94532 0.48502 0.0
H357 H 0.80342 0.9592 0.51342 0.0
H358 H 0.80337 0.9871 0.51044 0.0
H359 H 0.89555 0.00216 0.51808 0.0
N360 N 0.85074 0.94833 0.51813 0.0
H361 H 0.89536 0.97414 0.51991 0.0
C362 C 0.83999 0.07119 0.52627 0.0
C363 C 0.81071 0.07012 0.52413 0.0
C364 C 0.79791 0.07972 0.53607 0.0
C365 C 0.81413 0.09071 0.55026 0.0
C366 C 0.84295 0.09107 0.55315 0.0
C367 C 0.8557 0.08139 0.54123 0.0
C368 C 0.85541 0.07077 0.49256 0.0
C369 C 0.8768 0.08485 0.48846 0.0
C370 C 0.87516 0.09319 0.47166 0.0
C371 C 0.85193 0.08762 0.45861 0.0
C372 C 0.83118 0.07305 0.46223 0.0
C373 C 0.83294 0.06466 0.47905 0.0
C374 C 0.85209 0.04705 0.5116 0.0
C375 C 0.8285 0.03603 0.52028 0.0
C376 C 0.82748 0.01979 0.52082 0.0
C377 C 0.84975 0.01411 0.51253 0.0
C378 C 0.87281 0.02507 0.50335 0.0
C379 C 0.87403 0.0413 0.50308 0.0
C380 C 0.83335 0.93922 0.53338 0.0
C381 C 0.80538 0.92937 0.52967 0.0
C382 C 0.79135 0.91824 0.54334 0.0
C383 C 0.80465 0.91698 0.56124 0.0
C384 C 0.83158 0.9279 0.56558 0.0
C385 C 0.84583 0.93879 0.5517 0.0
C386 C 0.85175 0.9392 0.49993 0.0
C387 C 0.87032 0.92941 0.49876 0.0
C388 C 0.86821 0.91802 0.48324 0.0
C389 C 0.84745 0.91623 0.46848 0.0
C390 C 0.83007 0.92674 0.46894 0.0
C391 C 0.83209 0.93808 0.48455 0.0
C392 C 0.84956 0.96462 0.51666 0.0
C393 C 0.82362 0.9685 0.51424 0.0
C394 C 0.82362 0.98452 0.51273 0.0
C395 C 0.84949 0.99698 0.5139 0.0
C396 C 0.87528 0.99295 0.51662 0.0
C397 C 0.87525 0.97695 0.51785 0.0
H398 H 0.53255 0.33531 0.1046 0.0
N399 N 0.53485 0.36303 0.08592 0.0
H400 H 0.57029 0.33009 0.12396 0.0
H401 H 0.58886 0.38144 0.09013 0.0
H402 H 0.62726 0.3761 0.10958 0.0
H403 H 0.52462 0.38384 0.11304 0.0
H404 H 0.48657 0.37875 0.13802 0.0
H405 H 0.4876 0.33668 0.08626 0.0
H406 H 0.44924 0.33166 0.11083 0.0
H407 H 0.54395 0.3355 0.06789 0.0
H408 H 0.51388 0.37677 0.05785 0.0
H409 H 0.53502 0.32649 0.03388 0.0
H410 H 0.50285 0.36709 0.02373 0.0
H411 H 0.50455 0.29682 0.92508 0.0
H412 H 0.54382 0.29549 0.90256 0.0
H413 H 0.58688 0.34523 0.91767 0.0
H414 H 0.54743 0.34656 0.93961 0.0
H415 H 0.50286 0.34922 0.9242 0.0
H416 H 0.46635 0.35412 0.90302 0.0
H417 H 0.40693 0.3095 0.91985 0.0
H418 H 0.44362 0.30477 0.94122 0.0
H419 H 0.49185 0.30511 0.97697 0.0
H420 H 0.49935 0.31472 0.01136 0.0
H421 H 0.52223 0.36372 0.99283 0.0
N422 N 0.49769 0.32236 0.94528 0.0
H423 H 0.51252 0.3539 0.95881 0.0
C424 C 0.5577 0.35896 0.09605 0.0
C425 C 0.55301 0.34437 0.10556 0.0
C426 C 0.57466 0.34137 0.11667 0.0
C427 C 0.60155 0.35279 0.11849 0.0
C428 C 0.6067 0.3671 0.10841 0.0
C429 C 0.58485 0.37016 0.09734 0.0
C430 C 0.50913 0.36072 0.09784 0.0
C431 C 0.50779 0.3726 0.11222 0.0
C432 C 0.48599 0.36967 0.12643 0.0
C433 C 0.46505 0.35473 0.12652 0.0
C434 C 0.46532 0.3432 0.11133 0.0
C435 C 0.48714 0.34613 0.09714 0.0
C436 C 0.52998 0.35711 0.0656 0.0
C437 C 0.53533 0.3427 0.0585 0.0
C438 C 0.52979 0.33735 0.03888 0.0
C439 C 0.51805 0.34597 0.0259 0.0
C440 C 0.51239 0.36025 0.03309 0.0
C441 C 0.5185 0.36577 0.05265 0.0
C442 C 0.5229 0.32169 0.93409 0.0
C443 C 0.52272 0.30734 0.92373 0.0
C444 C 0.54523 0.3066 0.91095 0.0
C445 C 0.56847 0.32029 0.90828 0.0
C446 C 0.56912 0.33454 0.91921 0.0
C447 C 0.54655 0.33526 0.93194 0.0
C448 C 0.47591 0.32653 0.93427 0.0
C449 C 0.4819 0.3406 0.9236 0.0
C450 C 0.46104 0.34334 0.91137 0.0
C451 C 0.43382 0.33215 0.90968 0.0
C452 C 0.42759 0.31843 0.92099 0.0
C453 C 0.44849 0.31567 0.93313 0.0
C454 C 0.50202 0.3287 0.96531 0.0
C455 C 0.49833 0.31791 0.98044 0.0
C456 C 0.50293 0.32348 7e-05 0.0
C457 C 0.51185 0.34006 0.005 0.0
C458 C 0.51513 0.35088 0.98974 0.0
C459 C 0.50995 0.34527 0.97013 0.0
H460 H 0.30249 0.39444 0.35037 0.0
H461 H 0.27645 0.41446 0.35692 0.0
H462 H 0.27712 0.42295 0.29483 0.0
H463 H 0.30332 0.40296 0.28807 0.0
H464 H 0.28339 0.45119 0.31966 0.0
H465 H 0.22183 0.39647 0.31224 0.0
H466 H 0.20588 0.36792 0.32032 0.0
H467 H 0.19107 0.38129 0.38043 0.0
H468 H 0.20734 0.40994 0.37274 0.0
H469 H 0.15723 0.47476 0.30495 0.0
H470 H 0.19806 0.46363 0.30521 0.0
H471 H 0.17873 0.45053 0.36548 0.0
H472 H 0.13682 0.46075 0.36494 0.0
H473 H 0.18526 0.42619 0.34506 0.0
H474 H 0.24031 0.48076 0.35211 0.0
H475 H 0.25662 0.50943 0.34476 0.0
H476 H 0.28433 0.49732 0.28715 0.0
H477 H 0.26781 0.46855 0.29404 0.0
C478 C 0.29763 0.40078 0.33811 0.0
C479 C 0.30453 0.3969 0.31864 0.0
C480 C 0.28278 0.41223 0.34191 0.0
C481 C 0.27452 0.41998 0.32633 0.0
C482 C 0.28328 0.41706 0.30705 0.0
C483 C 0.29812 0.40558 0.30322 0.0
C484 C 0.25391 0.42957 0.32979 0.0
C485 C 0.26187 0.44578 0.32512 0.0
C486 C 0.22613 0.42254 0.3374 0.0
C487 C 0.2161 0.40533 0.34197 0.0
C488 C 0.21538 0.39331 0.32721 0.0
C489 C 0.20625 0.37712 0.33171 0.0
C490 C 0.19755 0.37279 0.35089 0.0
C491 C 0.19787 0.38465 0.36559 0.0
C492 C 0.20703 0.40087 0.36117 0.0
C493 C 0.16166 0.46953 0.31828 0.0
C494 C 0.1435 0.46852 0.33485 0.0
C495 C 0.18534 0.46339 0.31852 0.0
C496 C 0.19168 0.45635 0.33543 0.0
C497 C 0.17431 0.45594 0.35227 0.0
C498 C 0.15046 0.46192 0.35198 0.0
C499 C 0.2145 0.44797 0.33486 0.0
C500 C 0.2069 0.43184 0.33994 0.0
C501 C 0.24261 0.45516 0.32779 0.0
C502 C 0.25261 0.47247 0.32355 0.0
C503 C 0.24967 0.48419 0.33781 0.0
C504 C 0.259 0.50047 0.33374 0.0
C505 C 0.27145 0.50519 0.31549 0.0
C506 C 0.27467 0.49365 0.30128 0.0
C507 C 0.26536 0.47735 0.30528 0.0
H508 H 0.27866 0.5178 0.31236 0.0
H509 H 0.19049 0.36025 0.35435 0.0
H510 H 0.17549 0.78278 0.68167 0.0
H511 H 0.15609 0.75527 0.66875 0.0
H512 H 0.20121 0.73841 0.71343 0.0
H513 H 0.22089 0.76608 0.7266 0.0
H514 H 0.20248 0.72318 0.67514 0.0
H515 H 0.1344 0.73391 0.72148 0.0
H516 H 0.10386 0.74944 0.73712 0.0
H517 H 0.05767 0.74609 0.68298 0.0
H518 H 0.08824 0.73074 0.66692 0.0
H519 H 0.11109 0.64233 0.65389 0.0
H520 H 0.13827 0.6673 0.67126 0.0
H521 H 0.09886 0.69447 0.6348 0.0
H522 H 0.07147 0.66976 0.61775 0.0
H523 H 0.09618 0.70267 0.6738 0.0
H524 H 0.16715 0.69405 0.62683 0.0
H525 H 0.19806 0.67881 0.611 0.0
H526 H 0.23865 0.67798 0.66649 0.0
H527 H 0.20767 0.69304 0.68271 0.0
C528 C 0.18156 0.77329 0.6887 0.0
C529 C 0.19953 0.77662 0.7053 0.0
C530 C 0.1704 0.75755 0.68129 0.0
C531 C 0.17693 0.74481 0.6903 0.0
C532 C 0.19587 0.7481 0.70633 0.0
C533 C 0.20699 0.7639 0.71385 0.0
C534 C 0.16263 0.72809 0.6834 0.0
C535 C 0.17926 0.71853 0.67517 0.0
C536 C 0.13235 0.72213 0.68333 0.0
C537 C 0.11377 0.73128 0.69296 0.0
C538 C 0.11787 0.73659 0.71286 0.0
C539 C 0.10053 0.74535 0.72181 0.0
C540 C 0.07887 0.74878 0.71104 0.0
C541 C 0.07447 0.74343 0.6913 0.0
C542 C 0.09178 0.73469 0.68227 0.0
C543 C 0.10831 0.65365 0.6496 0.0
C544 C 0.08929 0.65409 0.63436 0.0
C545 C 0.12395 0.66788 0.65944 0.0
C546 C 0.12064 0.68273 0.65425 0.0
C547 C 0.10176 0.68315 0.63902 0.0
C548 C 0.08631 0.66901 0.62916 0.0
C549 C 0.13593 0.69791 0.66494 0.0
C550 C 0.11942 0.70718 0.674 0.0
C551 C 0.16626 0.70353 0.66577 0.0
C552 C 0.18484 0.69448 0.65603 0.0
C553 C 0.18247 0.69048 0.6357 0.0
C554 C 0.20004 0.68191 0.62664 0.0
C555 C 0.22023 0.67738 0.63775 0.0
C556 C 0.22295 0.68146 0.65792 0.0
C557 C 0.2054 0.69002 0.66705 0.0
H558 H 0.23383 0.67076 0.63071 0.0
H559 H 0.06546 0.75556 0.71799 0.0
H560 H 0.77166 0.68666 0.36501 0.0
H561 H 0.80112 0.66852 0.37011 0.0
H562 H 0.86681 0.69642 0.33218 0.0
H563 H 0.83713 0.71429 0.32656 0.0
H564 H 0.85928 0.66585 0.32386 0.0
H565 H 0.87217 0.69917 0.38359 0.0
H566 H 0.85662 0.71164 0.41356 0.0
H567 H 0.81682 0.665 0.43551 0.0
H568 H 0.83184 0.65225 0.40553 0.0
H569 H 0.98179 0.6442 0.3524 0.0
H570 H 0.94599 0.65851 0.34768 0.0
H571 H 0.88327 0.62259 0.379 0.0
H572 H 0.91883 0.6078 0.38332 0.0
H573 H 0.88561 0.65467 0.39093 0.0
H574 H 0.87714 0.62174 0.33152 0.0
H575 H 0.89497 0.6101 0.30181 0.0
H576 H 0.92881 0.65716 0.27947 0.0
H577 H 0.91155 0.66911 0.3092 0.0
C578 C 0.7924 0.68893 0.35777 0.0
C579 C 0.80211 0.70193 0.34542 0.0
C580 C 0.80926 0.67859 0.36076 0.0
C581 C 0.83634 0.68122 0.35172 0.0
C582 C 0.84598 0.69414 0.3393 0.0
C583 C 0.82902 0.70438 0.33615 0.0
C584 C 0.8547 0.67049 0.35504 0.0
C585 C 0.86523 0.66354 0.33853 0.0
C586 C 0.86187 0.66712 0.37419 0.0
C587 C 0.85284 0.67476 0.39222 0.0
C588 C 0.8599 0.69157 0.39474 0.0
C589 C 0.85123 0.69869 0.41174 0.0
C590 C 0.83567 0.68912 0.42641 0.0
C591 C 0.82883 0.6724 0.42412 0.0
C592 C 0.83743 0.66522 0.40714 0.0
C593 C 0.96029 0.63915 0.35804 0.0
C594 C 0.95313 0.62473 0.36806 0.0
C595 C 0.9399 0.64741 0.35541 0.0
C596 C 0.91196 0.6415 0.36282 0.0
C597 C 0.90477 0.62731 0.37317 0.0
C598 C 0.92514 0.61893 0.37568 0.0
C599 C 0.89049 0.65034 0.35977 0.0
C600 C 0.87938 0.65689 0.3763 0.0
C601 C 0.88299 0.65349 0.34065 0.0
C602 C 0.89323 0.64633 0.32267 0.0
C603 C 0.88857 0.62962 0.32035 0.0
C604 C 0.89855 0.62297 0.30349 0.0
C605 C 0.91306 0.63289 0.28878 0.0
C606 C 0.91758 0.64949 0.29088 0.0
C607 C 0.90767 0.65621 0.30772 0.0
H608 H 0.92077 0.62771 0.27574 0.0
H609 H 0.82897 0.69465 0.43956 0.0
H610 H 0.76485 0.30353 0.61333 0.0
H611 H 0.79552 0.33079 0.60961 0.0
H612 H 0.80344 0.33769 0.67275 0.0
H613 H 0.77377 0.31024 0.67663 0.0
H614 H 0.78986 0.36349 0.65276 0.0
H615 H 0.85773 0.33234 0.64998 0.0
H616 H 0.87681 0.31011 0.63798 0.0
H617 H 0.88228 0.32698 0.5792 0.0
H618 H 0.86283 0.34919 0.5908 0.0
H619 H 0.90071 0.43748 0.64953 0.0
H620 H 0.87009 0.41088 0.65671 0.0
H621 H 0.87577 0.39527 0.59587 0.0
H622 H 0.90835 0.42124 0.58896 0.0
H623 H 0.88294 0.37363 0.61716 0.0
H624 H 0.81336 0.40366 0.61826 0.0
H625 H 0.79242 0.42552 0.62883 0.0
H626 H 0.78785 0.41073 0.68855 0.0
H627 H 0.8091 0.3889 0.67837 0.0
C628 C 0.77314 0.31077 0.62648 0.0
C629 C 0.76622 0.30467 0.64535 0.0
C630 C 0.79064 0.32638 0.6243 0.0
C631 C 0.8016 0.33625 0.64091 0.0
C632 C 0.79489 0.33029 0.65975 0.0
C633 C 0.77763 0.31458 0.66195 0.0
C634 C 0.82028 0.35276 0.63845 0.0
C635 C 0.81043 0.36578 0.64523 0.0
C636 C 0.84672 0.35564 0.62823 0.0
C637 C 0.85857 0.34234 0.62123 0.0
C638 C 0.86277 0.33123 0.63446 0.0
C639 C 0.8737 0.31865 0.62774 0.0
C640 C 0.88069 0.31711 0.60783 0.0
C641 C 0.87683 0.32818 0.59461 0.0
C642 C 0.86588 0.34077 0.60126 0.0
C643 C 0.89566 0.42839 0.63767 0.0
C644 C 0.90723 0.43166 0.61863 0.0
C645 C 0.87772 0.41319 0.64176 0.0
C646 C 0.87029 0.40103 0.6268 0.0
C647 C 0.88114 0.4044 0.6077 0.0
C648 C 0.89951 0.41945 0.6037 0.0
C649 C 0.85237 0.38457 0.63107 0.0
C650 C 0.86241 0.37147 0.62471 0.0
C651 C 0.82591 0.38165 0.64144 0.0
C652 C 0.8131 0.39475 0.64758 0.0
C653 C 0.80809 0.40515 0.63367 0.0
C654 C 0.79613 0.41752 0.63959 0.0
C655 C 0.78888 0.41954 0.65936 0.0
C656 C 0.79351 0.40916 0.67325 0.0
C657 C 0.80549 0.39678 0.66741 0.0
H658 H 0.77962 0.42912 0.66391 0.0
H659 H 0.88915 0.30736 0.60265 0.0
H660 H 0.36441 0.28376 0.38062 0.0
H661 H 0.38605 0.26822 0.40177 0.0
H662 H 0.30704 0.22995 0.40076 0.0
H663 H 0.28545 0.2452 0.37926 0.0
H664 H 0.3326 0.24277 0.44003 0.0
H665 H 0.35554 0.22242 0.37584 0.0
H666 H 0.37658 0.22539 0.34243 0.0
H667 H 0.4597 0.24846 0.36696 0.0
H668 H 0.43904 0.24583 0.40053 0.0
H669 H 0.36639 0.18173 0.48812 0.0
H670 H 0.35048 0.19686 0.46375 0.0
H671 H 0.43815 0.22427 0.45357 0.0
H672 H 0.45464 0.20823 0.47696 0.0
H673 H 0.41097 0.21879 0.42011 0.0
H674 H 0.39165 0.23931 0.48333 0.0
H675 H 0.3732 0.23853 0.51744 0.0
H676 H 0.28709 0.21854 0.49629 0.0
H677 H 0.30506 0.21899 0.46205 0.0
C678 C 0.35173 0.27198 0.38479 0.0
C679 C 0.32324 0.26569 0.37832 0.0
C680 C 0.36414 0.26313 0.3968 0.0
C681 C 0.34808 0.24798 0.40274 0.0
C682 C 0.31971 0.24163 0.39626 0.0
C683 C 0.30747 0.25033 0.38396 0.0
C684 C 0.36042 0.23899 0.41641 0.0
C685 C 0.34949 0.23734 0.43566 0.0
C686 C 0.38326 0.23257 0.41084 0.0
C687 C 0.39568 0.2341 0.39068 0.0
C688 C 0.37825 0.22827 0.3741 0.0
C689 C 0.39011 0.22986 0.35514 0.0
C690 C 0.41944 0.23716 0.35257 0.0
C691 C 0.43697 0.24284 0.36897 0.0
C692 C 0.4252 0.24129 0.38797 0.0
C693 C 0.3825 0.19066 0.48041 0.0
C694 C 0.4119 0.19371 0.48463 0.0
C695 C 0.37326 0.19953 0.46666 0.0
C696 C 0.39303 0.21199 0.45718 0.0
C697 C 0.42245 0.21481 0.46085 0.0
C698 C 0.43182 0.20573 0.4744 0.0
C699 C 0.38273 0.2222 0.44377 0.0
C700 C 0.39413 0.22421 0.42459 0.0
C701 C 0.3607 0.2293 0.44954 0.0
C702 C 0.34974 0.22906 0.47012 0.0
C703 C 0.3688 0.23464 0.48595 0.0
C704 C 0.35842 0.23427 0.50531 0.0
C705 C 0.329 0.22845 0.50903 0.0
C706 C 0.30988 0.22303 0.49339 0.0
C707 C 0.32014 0.22335 0.474 0.0
H708 H 0.321 0.22818 0.52403 0.0
H709 H 0.42859 0.23837 0.33788 0.0
H710 H 0.22363 0.85228 0.80742 0.0
H711 H 0.25851 0.84755 0.83028 0.0
H712 H 0.30853 0.8368 0.78101 0.0
H713 H 0.27292 0.84081 0.75821 0.0
H714 H 0.31065 0.81793 0.80834 0.0
H715 H 0.32499 0.87467 0.80696 0.0
H716 H 0.31156 0.90004 0.80958 0.0
H717 H 0.28724 0.89183 0.87013 0.0
H718 H 0.30019 0.86628 0.8678 0.0
H719 H 0.44877 0.84152 0.85516 0.0
H720 H 0.40714 0.84036 0.83456 0.0
H721 H 0.353 0.83469 0.88629 0.0
H722 H 0.39455 0.8355 0.90695 0.0
H723 H 0.35142 0.86064 0.85944 0.0
H724 H 0.34298 0.80397 0.85948 0.0
H725 H 0.361 0.78017 0.85501 0.0
H726 H 0.38 0.79054 0.79423 0.0
H727 H 0.36248 0.81455 0.79842 0.0
C728 C 0.24193 0.84873 0.80154 0.0
C729 C 0.24558 0.84683 0.78111 0.0
C730 C 0.26194 0.84612 0.81458 0.0
C731 C 0.28652 0.84214 0.80739 0.0
C732 C 0.28975 0.83984 0.78694 0.0
C733 C 0.26938 0.84209 0.77392 0.0
C734 C 0.30934 0.84093 0.82108 0.0
C735 C 0.31968 0.82735 0.81939 0.0
C736 C 0.32105 0.85313 0.83568 0.0
C737 C 0.31325 0.86848 0.83714 0.0
C738 C 0.31658 0.87822 0.82079 0.0
C739 C 0.30909 0.89264 0.82223 0.0
C740 C 0.29847 0.89752 0.83999 0.0
C741 C 0.29541 0.88801 0.85637 0.0
C742 C 0.30284 0.87357 0.85501 0.0
C743 C 0.42792 0.83992 0.86208 0.0
C744 C 0.42474 0.83863 0.88259 0.0
C745 C 0.40423 0.8392 0.85033 0.0
C746 C 0.3771 0.83739 0.85895 0.0
C747 C 0.37381 0.83603 0.87942 0.0
C748 C 0.39743 0.83645 0.89115 0.0
C749 C 0.35253 0.83772 0.8466 0.0
C750 C 0.34205 0.85118 0.8485 0.0
C751 C 0.34126 0.82563 0.83189 0.0
C752 C 0.35165 0.81115 0.82932 0.0
C753 C 0.35124 0.80126 0.84521 0.0
C754 C 0.36131 0.78771 0.84271 0.0
C755 C 0.3717 0.78387 0.82436 0.0
C756 C 0.37197 0.79354 0.80845 0.0
C757 C 0.36194 0.80711 0.81087 0.0
H758 H 0.37949 0.77337 0.82246 0.0
H759 H 0.29269 0.90869 0.84108 0.0
H760 H 0.77393 0.77703 0.38581 0.0
H761 H 0.78824 0.80275 0.40416 0.0
H762 H 0.79117 0.82746 0.35018 0.0
H763 H 0.7785 0.80172 0.33155 0.0
H764 H 0.83525 0.84246 0.37235 0.0
H765 H 0.7345 0.8235 0.38327 0.0
H766 H 0.68851 0.80425 0.392 0.0
H767 H 0.71924 0.80258 0.45056 0.0
H768 H 0.76559 0.82165 0.44211 0.0
H769 H 0.83811 0.91603 0.42865 0.0
H770 H 0.82489 0.89254 0.40555 0.0
H771 H 0.83038 0.86186 0.45259 0.0
H772 H 0.84332 0.88513 0.47566 0.0
H773 H 0.7793 0.85151 0.43147 0.0
H774 H 0.88159 0.86983 0.41878 0.0
H775 H 0.92654 0.88966 0.40936 0.0
H776 H 0.89065 0.89353 0.35306 0.0
H777 H 0.84531 0.87386 0.36226 0.0
C778 C 0.7776 0.78791 0.37778 0.0
C779 C 0.77419 0.78724 0.3572 0.0
C780 C 0.78559 0.80264 0.38834 0.0
C781 C 0.79003 0.81705 0.37864 0.0
C782 C 0.78742 0.81648 0.35803 0.0
C783 C 0.77966 0.80171 0.3474 0.0
C784 C 0.7977 0.83265 0.39012 0.0
C785 C 0.82272 0.84455 0.38507 0.0
C786 C 0.78151 0.83536 0.40681 0.0
C787 C 0.75361 0.82392 0.412 0.0
C788 C 0.73153 0.81894 0.39797 0.0
C789 C 0.70538 0.80807 0.40287 0.0
C790 C 0.70098 0.80217 0.42181 0.0
C791 C 0.72269 0.80715 0.43589 0.0
C792 C 0.74889 0.81801 0.43106 0.0
C793 C 0.83668 0.90428 0.43399 0.0
C794 C 0.8419 0.90242 0.45393 0.0
C795 C 0.82926 0.8909 0.42079 0.0
C796 C 0.82673 0.87549 0.42739 0.0
C797 C 0.83226 0.87366 0.44721 0.0
C798 C 0.8399 0.88699 0.46033 0.0
C799 C 0.81713 0.86108 0.41397 0.0
C800 C 0.79165 0.84944 0.41863 0.0
C801 C 0.83269 0.85873 0.39683 0.0
C802 C 0.85995 0.87052 0.3913 0.0
C803 C 0.88319 0.87502 0.40446 0.0
C804 C 0.90875 0.88621 0.39915 0.0
C805 C 0.91142 0.89289 0.38065 0.0
C806 C 0.88854 0.88836 0.3674 0.0
C807 C 0.86291 0.87719 0.37265 0.0
H808 H 0.93123 0.90155 0.37656 0.0
H809 H 0.68072 0.79376 0.42558 0.0
H810 H 0.71331 0.3372 0.75001 0.0
H811 H 0.69339 0.33873 0.7831 0.0
H812 H 0.6968 0.29054 0.79261 0.0
H813 H 0.71635 0.28882 0.75945 0.0
H814 H 0.64531 0.29384 0.80167 0.0
H815 H 0.74184 0.32279 0.81737 0.0
H816 H 0.78817 0.34337 0.8138 0.0
H817 H 0.74637 0.3806 0.8234 0.0
H818 H 0.69968 0.36023 0.82675 0.0
H819 H 0.59434 0.29641 0.89985 0.0
H820 H 0.62744 0.29493 0.87265 0.0
H821 H 0.62606 0.34185 0.85534 0.0
H822 H 0.59287 0.34337 0.88228 0.0
H823 H 0.68004 0.33788 0.85225 0.0
H824 H 0.58335 0.30887 0.83274 0.0
H825 H 0.53684 0.28836 0.83609 0.0
H826 H 0.5796 0.25122 0.83338 0.0
H827 H 0.62643 0.27155 0.8303 0.0
C828 C 0.71017 0.327 0.75922 0.0
C829 C 0.71625 0.31285 0.75204 0.0
C830 C 0.69892 0.32792 0.77819 0.0
C831 C 0.69376 0.31478 0.79038 0.0
C832 C 0.7006 0.30082 0.78345 0.0
C833 C 0.71181 0.29988 0.76449 0.0
C834 C 0.67913 0.31514 0.80969 0.0
C835 C 0.65326 0.30329 0.8129 0.0
C836 C 0.68916 0.32766 0.82417 0.0
C837 C 0.7172 0.33996 0.82215 0.0
C838 C 0.74247 0.33536 0.81856 0.0
C839 C 0.76882 0.34699 0.8166 0.0
C840 C 0.77021 0.36328 0.81833 0.0
C841 C 0.74526 0.36797 0.82205 0.0
C842 C 0.71885 0.35639 0.82401 0.0
C843 C 0.60119 0.30644 0.89029 0.0
C844 C 0.59082 0.31996 0.89316 0.0
C845 C 0.62017 0.3056 0.87482 0.0
C846 C 0.62894 0.31822 0.86187 0.0
C847 C 0.61963 0.33201 0.86521 0.0
C848 C 0.60069 0.33286 0.88066 0.0
C849 C 0.64622 0.31667 0.84406 0.0
C850 C 0.67244 0.32832 0.84112 0.0
C851 C 0.63655 0.30397 0.82978 0.0
C852 C 0.6084 0.29174 0.83153 0.0
C853 C 0.58284 0.29634 0.83302 0.0
C854 C 0.55643 0.28475 0.83485 0.0
C855 C 0.55527 0.2685 0.83501 0.0
C856 C 0.58053 0.26381 0.8333 0.0
C857 C 0.60702 0.27536 0.8315 0.0
H858 H 0.5348 0.25954 0.83642 0.0
H859 H 0.79062 0.37227 0.81681 0.0
H860 H 0.24983 0.89333 0.69424 0.0
H861 H 0.27469 0.91542 0.67366 0.0
H862 H 0.23499 0.94721 0.70661 0.0
H863 H 0.21015 0.9252 0.72737 0.0
H864 H 0.23116 0.94865 0.66562 0.0
H865 H 0.30306 0.95097 0.7143 0.0
H866 H 0.33453 0.94005 0.73428 0.0
H867 H 0.37485 0.92726 0.68164 0.0
H868 H 0.34332 0.9379 0.66132 0.0
H869 H 0.31087 0.01921 0.62052 0.0
H870 H 0.29007 0.99985 0.64557 0.0
H871 H 0.33685 0.96789 0.6209 0.0
H872 H 0.35818 0.98738 0.59618 0.0
H873 H 0.33727 0.96743 0.65937 0.0
H874 H 0.26481 0.96286 0.61049 0.0
H875 H 0.233 0.97258 0.58933 0.0
H876 H 0.19316 0.98797 0.64064 0.0
H877 H 0.22503 0.97854 0.66211 0.0
C878 C 0.24644 0.90503 0.69715 0.0
C879 C 0.22802 0.90752 0.71243 0.0
C880 C 0.26076 0.91765 0.68544 0.0
C881 C 0.2568 0.93296 0.68872 0.0
C882 C 0.23835 0.93548 0.70389 0.0
C883 C 0.22424 0.92291 0.71575 0.0
C884 C 0.27135 0.94621 0.67593 0.0
C885 C 0.25437 0.95297 0.66447 0.0
C886 C 0.30159 0.95147 0.67409 0.0
C887 C 0.32063 0.9451 0.68628 0.0
C888 C 0.31846 0.94571 0.70697 0.0
C889 C 0.33635 0.93959 0.71836 0.0
C890 C 0.35663 0.93293 0.70923 0.0
C891 C 0.35911 0.93241 0.68869 0.0
C892 C 0.34126 0.93849 0.67723 0.0
C893 C 0.31679 0.00808 0.62054 0.0
C894 C 0.33603 0.00475 0.60638 0.0
C895 C 0.30486 0.99701 0.63481 0.0
C896 C 0.3115 0.98228 0.6349 0.0
C897 C 0.3314 0.97917 0.62113 0.0
C898 C 0.3436 0.99032 0.60703 0.0
C899 C 0.29708 0.96987 0.64892 0.0
C900 C 0.31406 0.96322 0.66059 0.0
C901 C 0.26679 0.96454 0.65077 0.0
C902 C 0.24751 0.97015 0.6379 0.0
C903 C 0.24941 0.96843 0.61726 0.0
C904 C 0.23135 0.97387 0.60521 0.0
C905 C 0.21113 0.98093 0.61364 0.0
C906 C 0.20887 0.98253 0.63414 0.0
C907 C 0.22691 0.97713 0.64625 0.0
H908 H 0.19716 0.98514 0.60429 0.0
H909 H 0.37046 0.9282 0.71808 0.0
H910 H 0.76928 0.81475 0.237 0.0
H911 H 0.74717 0.81963 0.20664 0.0
H912 H 0.66312 0.7993 0.23158 0.0
H913 H 0.68494 0.79478 0.26203 0.0
H914 H 0.71462 0.79989 0.18053 0.0
H915 H 0.61534 0.81647 0.21496 0.0
H916 H 0.60311 0.83049 0.24484 0.0
H917 H 0.69159 0.85735 0.2517 0.0
H918 H 0.7043 0.84365 0.22172 0.0
H919 H 0.60002 0.78574 0.11294 0.0
H920 H 0.63314 0.7871 0.14 0.0
H921 H 0.64603 0.83826 0.14698 0.0
H922 H 0.61152 0.83685 0.12092 0.0
H923 H 0.63646 0.82643 0.18078 0.0
H924 H 0.69957 0.8213 0.12824 0.0
H925 H 0.71532 0.80986 0.09759 0.0
H926 H 0.70597 0.76521 0.12522 0.0
H927 H 0.68978 0.7763 0.15597 0.0
C928 C 0.74608 0.81146 0.23607 0.0
C929 C 0.72887 0.80444 0.25197 0.0
C930 C 0.73349 0.81421 0.21869 0.0
C931 C 0.70349 0.80999 0.21689 0.0
C932 C 0.68631 0.80296 0.23275 0.0
C933 C 0.69884 0.80033 0.25015 0.0
C934 C 0.68995 0.81246 0.1983 0.0
C935 C 0.69764 0.80578 0.18053 0.0
C936 C 0.6683 0.82049 0.19821 0.0
C937 C 0.66079 0.82893 0.21616 0.0
C938 C 0.63217 0.82542 0.22279 0.0
C939 C 0.62516 0.8333 0.23976 0.0
C940 C 0.64657 0.84477 0.25019 0.0
C941 C 0.67504 0.84842 0.24364 0.0
C942 C 0.68216 0.84059 0.22667 0.0
C943 C 0.6099 0.7973 0.1202 0.0
C944 C 0.6029 0.81116 0.11473 0.0
C945 C 0.62918 0.7981 0.13553 0.0
C946 C 0.64231 0.81282 0.14547 0.0
C947 C 0.6362 0.82676 0.13955 0.0
C948 C 0.61666 0.82595 0.12442 0.0
C949 C 0.66056 0.81348 0.16302 0.0
C950 C 0.65367 0.82071 0.18065 0.0
C951 C 0.68346 0.80634 0.16283 0.0
C952 C 0.69326 0.79961 0.14438 0.0
C953 C 0.70068 0.809 0.12775 0.0
C954 C 0.70972 0.80259 0.11036 0.0
C955 C 0.71159 0.78681 0.10945 0.0
C956 C 0.70449 0.77743 0.12594 0.0
C957 C 0.69542 0.78378 0.14337 0.0
H958 H 0.71859 0.78187 0.09597 0.0
H959 H 0.6411 0.85085 0.26333 0.0
H960 H 0.75193 0.20945 0.64725 0.0
H961 H 0.76567 0.18518 0.63727 0.0
H962 H 0.73199 0.18613 0.57909 0.0
H963 H 0.7179 0.21026 0.58899 0.0
H964 H 0.71516 0.15629 0.59315 0.0
H965 H 0.8039 0.19849 0.58772 0.0
H966 H 0.84298 0.22166 0.59986 0.0
H967 H 0.86309 0.19315 0.6445 0.0
H968 H 0.82386 0.16986 0.63277 0.0
H969 H 0.78091 0.1076 0.53453 0.0
H970 H 0.76378 0.12891 0.5504 0.0
H971 H 0.80325 0.12308 0.60496 0.0
H972 H 0.82054 0.10158 0.58908 0.0
H973 H 0.81599 0.15402 0.59645 0.0
H974 H 0.73007 0.11102 0.59991 0.0
H975 H 0.69124 0.08782 0.58759 0.0
H976 H 0.6656 0.11754 0.54692 0.0
H977 H 0.70455 0.14089 0.55879 0.0
C978 C 0.74752 0.20452 0.63231 0.0
C979 C 0.73388 0.21181 0.61889 0.0
C980 C 0.75544 0.19067 0.62662 0.0
C981 C 0.75002 0.18391 0.6074 0.0
C982 C 0.73633 0.19113 0.59401 0.0
C983 C 0.72841 0.20497 0.59967 0.0
C984 C 0.75847 0.16928 0.60114 0.0
C985 C 0.73724 0.15583 0.5937 0.0
C986 C 0.78713 0.16851 0.60248 0.0
C987 C 0.81074 0.18249 0.60951 0.0
C988 C 0.8165 0.1972 0.60023 0.0
C989 C 0.83871 0.21035 0.60701 0.0
C990 C 0.85545 0.20889 0.62298 0.0
C991 C 0.85007 0.19427 0.63216 0.0
C992 C 0.82787 0.18109 0.62544 0.0
C993 C 0.78543 0.11056 0.55003 0.0
C994 C 0.80191 0.10278 0.56058 0.0
C995 C 0.77566 0.1228 0.55909 0.0
C996 C 0.78191 0.12747 0.57895 0.0
C997 C 0.79812 0.11965 0.58963 0.0
C998 C 0.80801 0.10739 0.58053 0.0
C999 C 0.77275 0.1411 0.5881 0.0
C1000 C 0.79384 0.15438 0.5961 0.0
C1001 C 0.74393 0.1417 0.5873 0.0
C1002 C 0.72038 0.12769 0.58016 0.0
C1003 C 0.71629 0.11259 0.58824 0.0
C1004 C 0.69423 0.09941 0.58135 0.0
C1005 C 0.67599 0.1012 0.56646 0.0
C1006 C 0.67975 0.11618 0.55845 0.0
C1007 C 0.70179 0.12939 0.56527 0.0
H1008 H 0.65893 0.09098 0.56115 0.0
H1009 H 0.87264 0.21908 0.62821 0.0
H1010 H 0.34116 0.2974 0.28428 0.0
H1011 H 0.36457 0.30542 0.2528 0.0
H1012 H 0.34109 0.3498 0.25816 0.0
H1013 H 0.31635 0.34145 0.28923 0.0
H1014 H 0.33335 0.3373 0.22119 0.0
H1015 H 0.40953 0.34929 0.26793 0.0
H1016 H 0.4385 0.34411 0.29501 0.0
H1017 H 0.45903 0.30656 0.25953 0.0
H1018 H 0.42984 0.31136 0.23233 0.0
H1019 H 0.43537 0.37351 0.14615 0.0
H1020 H 0.40707 0.36747 0.17653 0.0
H1021 H 0.42164 0.32069 0.17571 0.0
H1022 H 0.45037 0.32674 0.14577 0.0
H1023 H 0.43461 0.33679 0.21112 0.0
H1024 H 0.3565 0.32473 0.16461 0.0
H1025 H 0.32792 0.33063 0.13778 0.0
H1026 H 0.31214 0.36961 0.17312 0.0
H1027 H 0.34097 0.36407 0.20008 0.0
C1028 C 0.34094 0.30887 0.27876 0.0
C1029 C 0.32768 0.31903 0.28957 0.0
C1030 C 0.35448 0.31348 0.26081 0.0
C1031 C 0.35518 0.32838 0.25335 0.0
C1032 C 0.34117 0.33835 0.26379 0.0
C1033 C 0.32748 0.3337 0.28174 0.0
C1034 C 0.37063 0.33347 0.23467 0.0
C1035 C 0.35563 0.33744 0.21907 0.0
C1036 C 0.39961 0.33349 0.23184 0.0
C1037 C 0.41729 0.3306 0.24815 0.0
C1038 C 0.42005 0.33984 0.26595 0.0
C1039 C 0.43654 0.33699 0.28132 0.0
C1040 C 0.45055 0.32499 0.279 0.0
C1041 C 0.44815 0.31584 0.2613 0.0
C1042 C 0.43165 0.31864 0.2459 0.0
C1043 C 0.43233 0.3619 0.15239 0.0
C1044 C 0.44507 0.3506 0.14353 0.0
C1045 C 0.41603 0.35843 0.16966 0.0
C1046 C 0.41223 0.34362 0.17833 0.0
C1047 C 0.4243 0.33219 0.16924 0.0
C1048 C 0.44048 0.33562 0.152 0.0
C1049 C 0.39717 0.34026 0.19751 0.0
C1050 C 0.41236 0.33672 0.21326 0.0
C1051 C 0.3685 0.34077 0.20047 0.0
C1052 C 0.35116 0.3441 0.18428 0.0
C1053 C 0.34715 0.33465 0.1666 0.0
C1054 C 0.33086 0.33791 0.15138 0.0
C1055 C 0.31829 0.35052 0.15372 0.0
C1056 C 0.32192 0.35987 0.17131 0.0
C1057 C 0.33822 0.35666 0.18657 0.0
H1058 H 0.30568 0.35302 0.14192 0.0
H1059 H 0.46331 0.3228 0.29092 0.0
H1060 H 0.77771 0.7124 0.64527 0.0
H1061 H 0.81336 0.69773 0.63874 0.0
H1062 H 0.75545 0.66552 0.59765 0.0
H1063 H 0.72024 0.68057 0.60351 0.0
H1064 H 0.8143 0.66922 0.64498 0.0
H1065 H 0.79141 0.65088 0.56214 0.0
H1066 H 0.7753 0.66144 0.53266 0.0
H1067 H 0.80604 0.70949 0.55757 0.0
H1068 H 0.82267 0.69925 0.58707 0.0
H1069 H 0.88272 0.60944 0.61957 0.0
H1070 H 0.84661 0.62421 0.62328 0.0
H1071 H 0.89674 0.66038 0.58544 0.0
H1072 H 0.93232 0.64535 0.58121 0.0
H1073 H 0.84351 0.65577 0.57743 0.0
H1074 H 0.89783 0.66541 0.63695 0.0
H1075 H 0.91958 0.65834 0.66655 0.0
H1076 H 0.83589 0.63408 0.68851 0.0
H1077 H 0.81365 0.64081 0.65889 0.0
C1078 C 0.77266 0.70225 0.63474 0.0
C1079 C 0.74625 0.69769 0.62481 0.0
C1080 C 0.79303 0.69384 0.63107 0.0
C1081 C 0.78729 0.6806 0.61754 0.0
C1082 C 0.76071 0.6759 0.60781 0.0
C1083 C 0.74053 0.68447 0.61124 0.0
C1084 C 0.80889 0.67156 0.61392 0.0
C1085 C 0.82066 0.66629 0.63019 0.0
C1086 C 0.81771 0.66797 0.59466 0.0
C1087 C 0.808 0.67427 0.5769 0.0
C1088 C 0.79482 0.6637 0.56129 0.0
C1089 C 0.78558 0.66963 0.54459 0.0
C1090 C 0.78956 0.68612 0.54328 0.0
C1091 C 0.80287 0.69672 0.55864 0.0
C1092 C 0.81217 0.69085 0.57537 0.0
C1093 C 0.88585 0.62048 0.61195 0.0
C1094 C 0.91029 0.62629 0.60014 0.0
C1095 C 0.8653 0.62895 0.61413 0.0
C1096 C 0.8692 0.64358 0.60494 0.0
C1097 C 0.89323 0.64913 0.59268 0.0
C1098 C 0.91353 0.64054 0.59025 0.0
C1099 C 0.8487 0.65333 0.60848 0.0
C1100 C 0.83709 0.65868 0.5922 0.0
C1101 C 0.84082 0.65751 0.62775 0.0
C1102 C 0.8541 0.65348 0.64561 0.0
C1103 C 0.88408 0.65847 0.64803 0.0
C1104 C 0.89649 0.65454 0.66481 0.0
C1105 C 0.87913 0.64573 0.67937 0.0
C1106 C 0.84931 0.64088 0.6772 0.0
C1107 C 0.83679 0.64475 0.66042 0.0
H1108 H 0.88878 0.6427 0.69236 0.0
H1109 H 0.78237 0.69069 0.53034 0.0
H1110 H 0.80466 0.29364 0.3106 0.0
H1111 H 0.82133 0.3225 0.31872 0.0
H1112 H 0.90452 0.31778 0.33371 0.0
H1113 H 0.8881 0.28898 0.32525 0.0
H1114 H 0.88631 0.33712 0.36037 0.0
H1115 H 0.89144 0.33107 0.28878 0.0
H1116 H 0.87193 0.32303 0.25537 0.0
H1117 H 0.81364 0.35189 0.26422 0.0
H1118 H 0.83252 0.35994 0.29782 0.0
H1119 H 0.98518 0.41275 0.35155 0.0
H1120 H 0.95581 0.38493 0.35013 0.0
H1121 H 0.88318 0.3999 0.33133 0.0
H1122 H 0.91281 0.4279 0.33245 0.0
H1123 H 0.88823 0.37595 0.30873 0.0
H1124 H 0.88553 0.38482 0.3779 0.0
H1125 H 0.90405 0.39375 0.41133 0.0
H1126 H 0.95451 0.36026 0.40812 0.0
H1127 H 0.93663 0.35127 0.37454 0.0
C1128 C 0.82666 0.29881 0.31524 0.0
C1129 C 0.84539 0.28916 0.31665 0.0
C1130 C 0.83606 0.31527 0.32008 0.0
C1131 C 0.86433 0.32235 0.32647 0.0
C1132 C 0.88265 0.31259 0.32871 0.0
C1133 C 0.87326 0.29615 0.32387 0.0
C1134 C 0.87526 0.33995 0.33045 0.0
C1135 C 0.88691 0.34563 0.34907 0.0
C1136 C 0.87489 0.35108 0.31595 0.0
C1137 C 0.86318 0.34596 0.2959 0.0
C1138 C 0.87425 0.33557 0.28369 0.0
C1139 C 0.86335 0.33104 0.2647 0.0
C1140 C 0.84157 0.33695 0.25769 0.0
C1141 C 0.83051 0.34733 0.26968 0.0
C1142 C 0.8413 0.35187 0.2887 0.0
C1143 C 0.96278 0.41018 0.34754 0.0
C1144 C 0.95128 0.42254 0.3422 0.0
C1145 C 0.94596 0.39424 0.34675 0.0
C1146 C 0.91711 0.39028 0.34088 0.0
C1147 C 0.90536 0.40264 0.33593 0.0
C1148 C 0.92229 0.41862 0.33656 0.0
C1149 C 0.90012 0.37316 0.33851 0.0
C1150 C 0.88725 0.36753 0.32021 0.0
C1151 C 0.89901 0.3621 0.35339 0.0
C1152 C 0.90985 0.36744 0.37362 0.0
C1153 C 0.90074 0.37943 0.38425 0.0
C1154 C 0.9111 0.3845 0.40325 0.0
C1155 C 0.93048 0.3776 0.41183 0.0
C1156 C 0.9395 0.3656 0.40145 0.0
C1157 C 0.92922 0.36049 0.38244 0.0
H1158 H 0.93848 0.38154 0.42654 0.0
H1159 H 0.83332 0.33355 0.24293 0.0
H1160 H 0.17051 0.35974 0.69075 0.0
H1161 H 0.16189 0.38166 0.67271 0.0
H1162 H 0.11557 0.39445 0.72277 0.0
H1163 H 0.12358 0.3724 0.74071 0.0
H1164 H 0.08594 0.39246 0.69 0.0
H1165 H 0.18365 0.41746 0.70991 0.0
H1166 H 0.2352 0.41963 0.71283 0.0
H1167 H 0.24335 0.41777 0.64975 0.0
H1168 H 0.19174 0.41538 0.64645 0.0
H1169 H 0.06726 0.46434 0.66166 0.0
H1170 H 0.08776 0.44649 0.6793 0.0
H1171 H 0.12589 0.43376 0.62536 0.0
H1172 H 0.10634 0.45222 0.60755 0.0
H1173 H 0.1608 0.43554 0.65846 0.0
H1174 H 0.06359 0.41047 0.63849 0.0
H1175 H 0.0122 0.40858 0.63527 0.0
H1176 H 0.00325 0.41026 0.6983 0.0
H1177 H 0.05473 0.41243 0.70191 0.0
C1178 C 0.1587 0.36731 0.69797 0.0
C1179 C 0.14763 0.3643 0.71714 0.0
C1180 C 0.15391 0.37989 0.68767 0.0
C1181 C 0.13825 0.38977 0.69644 0.0
C1182 C 0.12768 0.38696 0.7157 0.0
C1183 C 0.13232 0.37436 0.72596 0.0
C1184 C 0.13136 0.40246 0.68522 0.0
C1185 C 0.10239 0.402 0.68337 0.0
C1186 C 0.15273 0.41461 0.67597 0.0
C1187 C 0.18377 0.41608 0.67794 0.0
C1188 C 0.19639 0.41738 0.69666 0.0
C1189 C 0.22563 0.41868 0.69839 0.0
C1190 C 0.24252 0.41879 0.68149 0.0
C1191 C 0.23023 0.41765 0.66283 0.0
C1192 C 0.20099 0.41635 0.66102 0.0
C1193 C 0.08079 0.4582 0.65357 0.0
C1194 C 0.08497 0.45966 0.6331 0.0
C1195 C 0.09226 0.44786 0.66369 0.0
C1196 C 0.10785 0.43859 0.65355 0.0
C1197 C 0.11374 0.44075 0.63341 0.0
C1198 C 0.10235 0.45119 0.62324 0.0
C1199 C 0.11552 0.42565 0.66369 0.0
C1200 C 0.14448 0.426 0.66518 0.0
C1201 C 0.09417 0.41332 0.67259 0.0
C1202 C 0.06308 0.41175 0.67047 0.0
C1203 C 0.05071 0.41054 0.65167 0.0
C1204 C 0.02156 0.40941 0.64977 0.0
C1205 C 0.00448 0.40934 0.66657 0.0
C1206 C 0.01651 0.41034 0.6853 0.0
C1207 C 0.04567 0.41151 0.68728 0.0
H1208 H 0.98192 0.40847 0.66507 0.0
H1209 H 0.26516 0.41979 0.68285 0.0
H1210 H 0.29312 0.76957 0.34092 0.0
H1211 H 0.25609 0.74499 0.34846 0.0
H1212 H 0.3095 0.71662 0.32398 0.0
H1213 H 0.34668 0.74117 0.31626 0.0
H1214 H 0.25313 0.7048 0.31237 0.0
H1215 H 0.30501 0.72175 0.37291 0.0
H1216 H 0.32623 0.74084 0.40027 0.0
H1217 H 0.24283 0.74548 0.41627 0.0
H1218 H 0.22116 0.72658 0.38881 0.0
H1219 H 0.17111 0.63118 0.35115 0.0
H1220 H 0.21064 0.65469 0.3433 0.0
H1221 H 0.16483 0.68569 0.37165 0.0
H1222 H 0.12558 0.66227 0.37975 0.0
H1223 H 0.2192 0.69569 0.38136 0.0
H1224 H 0.16717 0.67998 0.32073 0.0
H1225 H 0.14499 0.66139 0.29315 0.0
H1226 H 0.22716 0.655 0.27702 0.0
H1227 H 0.24977 0.6734 0.30469 0.0
C1228 C 0.29699 0.75811 0.33704 0.0
C1229 C 0.32295 0.75734 0.32808 0.0
C1230 C 0.27583 0.74407 0.34144 0.0
C1231 C 0.28022 0.72899 0.33702 0.0
C1232 C 0.30574 0.72815 0.32758 0.0
C1233 C 0.32698 0.7422 0.32322 0.0
C1234 C 0.25826 0.71412 0.34245 0.0
C1235 C 0.24598 0.70267 0.32749 0.0
C1236 C 0.24853 0.71154 0.36211 0.0
C1237 C 0.2615 0.72286 0.37869 0.0
C1238 C 0.29122 0.72694 0.38216 0.0
C1239 C 0.30333 0.73771 0.39771 0.0
C1240 C 0.2859 0.7444 0.40997 0.0
C1241 C 0.25631 0.7403 0.40674 0.0
C1242 C 0.2441 0.72955 0.39121 0.0
C1243 C 0.16953 0.64302 0.35569 0.0
C1244 C 0.14527 0.64489 0.36607 0.0
C1245 C 0.19207 0.65644 0.35117 0.0
C1246 C 0.19055 0.67198 0.35666 0.0
C1247 C 0.16654 0.67383 0.3673 0.0
C1248 C 0.14414 0.66043 0.37196 0.0
C1249 C 0.2138 0.68638 0.35126 0.0
C1250 C 0.22638 0.69775 0.36624 0.0
C1251 C 0.22363 0.68894 0.33159 0.0
C1252 C 0.2101 0.67793 0.3149 0.0
C1253 C 0.18047 0.67452 0.31139 0.0
C1254 C 0.16783 0.66403 0.29573 0.0
C1255 C 0.18464 0.65699 0.28338 0.0
C1256 C 0.21416 0.66045 0.28663 0.0
C1257 C 0.2269 0.67091 0.30228 0.0
H1258 H 0.17482 0.64887 0.27126 0.0
H1259 H 0.29531 0.75274 0.422 0.0
H1260 H 0.75722 0.78535 0.64725 0.0
H1261 H 0.76863 0.81325 0.6379 0.0
H1262 H 0.68843 0.8027 0.60647 0.0
H1263 H 0.6773 0.77463 0.61549 0.0
H1264 H 0.72805 0.8194 0.58482 0.0
H1265 H 0.70034 0.82629 0.65136 0.0
H1266 H 0.69899 0.82339 0.68734 0.0
H1267 H 0.78906 0.84775 0.69085 0.0
H1268 H 0.79095 0.85082 0.65486 0.0
H1269 H 0.74736 0.90223 0.56856 0.0
H1270 H 0.72716 0.87706 0.58499 0.0
H1271 H 0.81219 0.87586 0.60054 0.0
H1272 H 0.83283 0.90038 0.5832 0.0
H1273 H 0.7651 0.86613 0.63149 0.0
H1274 H 0.79065 0.85626 0.56292 0.0
H1275 H 0.78866 0.85982 0.52719 0.0
H1276 H 0.69684 0.84104 0.52852 0.0
H1277 H 0.69828 0.83763 0.56436 0.0
C1278 C 0.74178 0.78907 0.6387 0.0
C1279 C 0.71617 0.77792 0.63237 0.0
C1280 C 0.74829 0.80503 0.63335 0.0
C1281 C 0.72913 0.81021 0.6218 0.0
C1282 C 0.70351 0.79904 0.61546 0.0
C1283 C 0.69717 0.78302 0.6206 0.0
C1284 C 0.7367 0.82703 0.61536 0.0
C1285 C 0.73556 0.82958 0.59515 0.0
C1286 C 0.74679 0.84041 0.62871 0.0
C1287 C 0.74582 0.83867 0.65038 0.0
C1288 C 0.7199 0.83094 0.65979 0.0
C1289 C 0.71902 0.8293 0.68019 0.0
C1290 C 0.74395 0.8353 0.69137 0.0
C1291 C 0.76977 0.84308 0.68217 0.0
C1292 C 0.77074 0.84483 0.66178 0.0
C1293 C 0.76186 0.89668 0.57547 0.0
C1294 C 0.79185 0.90335 0.57423 0.0
C1295 C 0.7502 0.88238 0.58505 0.0
C1296 C 0.76824 0.87464 0.59389 0.0
C1297 C 0.79795 0.88176 0.59391 0.0
C1298 C 0.80968 0.89588 0.58403 0.0
C1299 C 0.75656 0.85827 0.60112 0.0
C1300 C 0.75709 0.85586 0.62136 0.0
C1301 C 0.74537 0.84502 0.58789 0.0
C1302 C 0.74455 0.84688 0.56633 0.0
C1303 C 0.77002 0.85304 0.55562 0.0
C1304 C 0.769 0.855 0.53535 0.0
C1305 C 0.74263 0.85071 0.5256 0.0
C1306 C 0.71724 0.84439 0.5361 0.0
C1307 C 0.71815 0.84244 0.55638 0.0
H1308 H 0.74188 0.85223 0.50991 0.0
H1309 H 0.74324 0.83396 0.70715 0.0
H1310 H 0.80495 0.31402 0.20849 0.0
H1311 H 0.77595 0.32481 0.18667 0.0
H1312 H 0.70616 0.31403 0.22865 0.0
H1313 H 0.73481 0.30316 0.25045 0.0
H1314 H 0.68877 0.30301 0.19142 0.0
H1315 H 0.74615 0.35199 0.2232 0.0
H1316 H 0.79157 0.37157 0.23352 0.0
H1317 H 0.81687 0.37849 0.17292 0.0
H1318 H 0.7718 0.35871 0.16224 0.0
H1319 H 0.59429 0.34236 0.15583 0.0
H1320 H 0.62925 0.33531 0.17643 0.0
H1321 H 0.69364 0.34924 0.13103 0.0
H1322 H 0.65859 0.35655 0.11035 0.0
H1323 H 0.71614 0.35848 0.16772 0.0
H1324 H 0.65903 0.31015 0.13571 0.0
H1325 H 0.61423 0.29021 0.12497 0.0
H1326 H 0.58932 0.28162 0.18536 0.0
H1327 H 0.63378 0.30169 0.19648 0.0
C1328 C 0.78349 0.31404 0.21313 0.0
C1329 C 0.77212 0.30765 0.23116 0.0
C1330 C 0.76701 0.32027 0.20068 0.0
C1331 C 0.73894 0.32024 0.20607 0.0
C1332 C 0.72775 0.31411 0.22419 0.0
C1333 C 0.7442 0.30794 0.23665 0.0
C1334 C 0.72065 0.32598 0.19257 0.0
C1335 C 0.6946 0.3152 0.18643 0.0
C1336 C 0.72878 0.34171 0.18553 0.0
C1337 C 0.75573 0.35374 0.19193 0.0
C1338 C 0.7615 0.35758 0.21208 0.0
C1339 C 0.78717 0.36873 0.21799 0.0
C1340 C 0.80713 0.37624 0.20389 0.0
C1341 C 0.80141 0.37264 0.18383 0.0
C1342 C 0.7758 0.36147 0.17784 0.0
C1343 C 0.61591 0.34394 0.15024 0.0
C1344 C 0.62364 0.34977 0.13139 0.0
C1345 C 0.63587 0.33993 0.16202 0.0
C1346 C 0.66388 0.34144 0.15509 0.0
C1347 C 0.67209 0.34791 0.13661 0.0
C1348 C 0.6521 0.35208 0.12483 0.0
C1349 C 0.68398 0.33559 0.16693 0.0
C1350 C 0.71039 0.34629 0.17267 0.0
C1351 C 0.67631 0.31972 0.17355 0.0
C1352 C 0.64964 0.30753 0.16692 0.0
C1353 C 0.64391 0.30409 0.14671 0.0
C1354 C 0.61859 0.29275 0.14055 0.0
C1355 C 0.59892 0.28467 0.15448 0.0
C1356 C 0.60456 0.28789 0.17459 0.0
C1357 C 0.62984 0.29924 0.18083 0.0
H1358 H 0.57932 0.2759 0.14968 0.0
H1359 H 0.82699 0.38487 0.20849 0.0
H1360 H 0.33151 0.29392 0.71103 0.0
H1361 H 0.36032 0.27857 0.6935 0.0
H1362 H 0.28925 0.23569 0.69572 0.0
H1363 H 0.26055 0.25083 0.71354 0.0
H1364 H 0.33839 0.22908 0.70303 0.0
H1365 H 0.304 0.2578 0.65424 0.0
H1366 H 0.29728 0.28178 0.63917 0.0
H1367 H 0.38866 0.30145 0.6343 0.0
H1368 H 0.39592 0.27766 0.64958 0.0
H1369 H 0.36078 0.18071 0.62084 0.0
H1370 H 0.34405 0.19765 0.64533 0.0
H1371 H 0.42474 0.23432 0.64105 0.0
H1372 H 0.4416 0.21738 0.61643 0.0
H1373 H 0.3773 0.24577 0.63688 0.0
H1374 H 0.41063 0.21464 0.68198 0.0
H1375 H 0.41588 0.18994 0.69595 0.0
H1376 H 0.32507 0.17403 0.70684 0.0
H1377 H 0.3192 0.19853 0.69266 0.0
C1378 C 0.32207 0.2812 0.70789 0.0
C1379 C 0.29365 0.27362 0.71356 0.0
C1380 C 0.33855 0.27246 0.69783 0.0
C1381 C 0.32682 0.25602 0.69309 0.0
C1382 C 0.29875 0.24836 0.69922 0.0
C1383 C 0.28233 0.25706 0.70935 0.0
C1384 C 0.34325 0.24684 0.68116 0.0
C1385 C 0.34676 0.23268 0.68852 0.0
C1386 C 0.35482 0.25175 0.66243 0.0
C1387 C 0.3505 0.26606 0.65328 0.0
C1388 C 0.32266 0.26731 0.65011 0.0
C1389 C 0.31875 0.28085 0.6415 0.0
C1390 C 0.34253 0.29316 0.63585 0.0
C1391 C 0.37026 0.29193 0.63873 0.0
C1392 C 0.37429 0.27842 0.64736 0.0
C1393 C 0.37504 0.19232 0.62527 0.0
C1394 C 0.40245 0.19776 0.61674 0.0
C1395 C 0.36555 0.20194 0.63933 0.0
C1396 C 0.38324 0.21719 0.64507 0.0
C1397 C 0.41084 0.22255 0.63686 0.0
C1398 C 0.42048 0.21285 0.62291 0.0
C1399 C 0.37196 0.22788 0.65862 0.0
C1400 C 0.36937 0.24231 0.65153 0.0
C1401 C 0.36104 0.22314 0.67752 0.0
C1402 C 0.36446 0.20839 0.68611 0.0
C1403 C 0.39174 0.20582 0.6872 0.0
C1404 C 0.39484 0.19186 0.69519 0.0
C1405 C 0.37082 0.18041 0.70225 0.0
C1406 C 0.34366 0.18291 0.70136 0.0
C1407 C 0.34044 0.19684 0.69337 0.0
H1408 H 0.37326 0.16961 0.70843 0.0
H1409 H 0.33946 0.30362 0.62917 0.0
H1410 H 0.46629 0.85232 0.29358 0.0
H1411 H 0.45998 0.85077 0.25801 0.0
H1412 H 0.37142 0.82357 0.26489 0.0
H1413 H 0.37745 0.82536 0.3008 0.0
H1414 H 0.39915 0.81037 0.23572 0.0
H1415 H 0.38493 0.86114 0.25132 0.0
H1416 H 0.39409 0.88813 0.2674 0.0
H1417 H 0.47571 0.90301 0.23801 0.0
H1418 H 0.46727 0.87604 0.22197 0.0
H1419 H 0.40323 0.81664 0.12981 0.0
H1420 H 0.38632 0.81965 0.16365 0.0
H1421 H 0.47246 0.84545 0.18124 0.0
H1422 H 0.48971 0.842 0.14806 0.0
H1423 H 0.43098 0.85935 0.19699 0.0
H1424 H 0.44824 0.80651 0.18827 0.0
H1425 H 0.43928 0.77938 0.17257 0.0
H1426 H 0.35033 0.76865 0.18919 0.0
H1427 H 0.35873 0.79583 0.20477 0.0
C1428 C 0.44538 0.84605 0.28761 0.0
C1429 C 0.4225 0.83872 0.30007 0.0
C1430 C 0.44178 0.84523 0.26724 0.0
C1431 C 0.41515 0.8372 0.25881 0.0
C1432 C 0.39217 0.8298 0.27112 0.0
C1433 C 0.39575 0.83067 0.29164 0.0
C1434 C 0.41216 0.83623 0.23705 0.0
C1435 C 0.40531 0.82108 0.22721 0.0
C1436 C 0.42026 0.85021 0.22595 0.0
C1437 C 0.42548 0.86652 0.23548 0.0
C1438 C 0.40492 0.87013 0.24837 0.0
C1439 C 0.40998 0.88544 0.25747 0.0
C1440 C 0.43548 0.89727 0.25374 0.0
C1441 C 0.45596 0.89383 0.24087 0.0
C1442 C 0.45102 0.87854 0.23174 0.0
C1443 C 0.41857 0.82298 0.14087 0.0
C1444 C 0.44789 0.8291 0.13607 0.0
C1445 C 0.40882 0.82476 0.16016 0.0
C1446 C 0.42817 0.83277 0.17492 0.0
C1447 C 0.45712 0.83937 0.17002 0.0
C1448 C 0.46691 0.83747 0.15091 0.0
C1449 C 0.41924 0.83354 0.19583 0.0
C1450 C 0.42388 0.84867 0.20548 0.0
C1451 C 0.40899 0.81956 0.20673 0.0
C1452 C 0.40402 0.80325 0.19743 0.0
C1453 C 0.42673 0.79841 0.18842 0.0
C1454 C 0.42176 0.78302 0.17957 0.0
C1455 C 0.39423 0.77232 0.17982 0.0
C1456 C 0.37162 0.77697 0.18896 0.0
C1457 C 0.37647 0.79236 0.1978 0.0
H1458 H 0.39042 0.76041 0.17297 0.0
H1459 H 0.43935 0.90911 0.2608 0.0
H1460 H 0.79072 0.19169 0.35042 0.0
H1461 H 0.79205 0.16951 0.37088 0.0
H1462 H 0.88237 0.1779 0.3582 0.0
H1463 H 0.88108 0.1999 0.33739 0.0
H1464 H 0.85542 0.14659 0.3554 0.0
H1465 H 0.85855 0.18999 0.40272 0.0
H1466 H 0.84205 0.21184 0.41892 0.0
H1467 H 0.76183 0.17819 0.4336 0.0
H1468 H 0.77772 0.15616 0.41725 0.0
H1469 H 0.8931 0.10449 0.43352 0.0
H1470 H 0.88808 0.1239 0.40988 0.0
H1471 H 0.79762 0.11313 0.4233 0.0
H1472 H 0.80264 0.09405 0.44738 0.0
H1473 H 0.82273 0.14485 0.42511 0.0
H1474 H 0.82086 0.10116 0.37905 0.0
H1475 H 0.83798 0.07942 0.36317 0.0
H1476 H 0.91643 0.11365 0.34644 0.0
H1477 H 0.89995 0.13559 0.36246 0.0
C1478 C 0.8109 0.18886 0.35203 0.0
C1479 C 0.83583 0.1976 0.34233 0.0
C1480 C 0.81164 0.17619 0.36378 0.0
C1481 C 0.83738 0.17214 0.36624 0.0
C1482 C 0.86227 0.18081 0.35651 0.0
C1483 C 0.86152 0.19343 0.34468 0.0
C1484 C 0.83838 0.15882 0.37889 0.0
C1485 C 0.84859 0.1463 0.37072 0.0
C1486 C 0.82879 0.15823 0.39872 0.0
C1487 C 0.81921 0.17146 0.40858 0.0
C1488 C 0.8373 0.18727 0.40927 0.0
C1489 C 0.82807 0.19968 0.4185 0.0
C1490 C 0.80087 0.19641 0.42724 0.0
C1491 C 0.78287 0.18071 0.4268 0.0
C1492 C 0.79199 0.16826 0.41757 0.0
C1493 C 0.8721 0.10617 0.43132 0.0
C1494 C 0.84828 0.09775 0.44236 0.0
C1495 C 0.86921 0.11717 0.41769 0.0
C1496 C 0.84244 0.11991 0.41475 0.0
C1497 C 0.81847 0.11118 0.42532 0.0
C1498 C 0.82133 0.10016 0.43894 0.0
C1499 C 0.83986 0.13264 0.40166 0.0
C1500 C 0.8294 0.14508 0.40976 0.0
C1501 C 0.84931 0.13317 0.3818 0.0
C1502 C 0.85927 0.12 0.37212 0.0
C1503 C 0.84187 0.10404 0.37213 0.0
C1504 C 0.85144 0.09168 0.36307 0.0
C1505 C 0.8783 0.09514 0.35384 0.0
C1506 C 0.89563 0.11098 0.35361 0.0
C1507 C 0.88617 0.12338 0.36266 0.0
H1508 H 0.88567 0.08556 0.34684 0.0
H1509 H 0.79377 0.20604 0.43438 0.0
H1510 H 0.2124 0.32437 0.80559 0.0
H1511 H 0.25056 0.32769 0.8298 0.0
H1512 H 0.31398 0.3379 0.78327 0.0
H1513 H 0.27579 0.33456 0.759 0.0
H1514 H 0.32482 0.31718 0.80714 0.0
H1515 H 0.30423 0.36769 0.81567 0.0
H1516 H 0.27395 0.38604 0.82117 0.0
H1517 H 0.24771 0.36624 0.87753 0.0
H1518 H 0.27754 0.34761 0.87225 0.0
H1519 H 0.44363 0.34158 0.87177 0.0
H1520 H 0.40819 0.343 0.84727 0.0
H1521 H 0.34052 0.32835 0.89029 0.0
H1522 H 0.37596 0.32721 0.91503 0.0
H1523 H 0.33367 0.35266 0.86753 0.0
H1524 H 0.35289 0.30128 0.85772 0.0
H1525 H 0.38366 0.28322 0.85194 0.0
H1526 H 0.41322 0.3054 0.79735 0.0
H1527 H 0.38292 0.32376 0.80296 0.0
C1528 C 0.2345 0.3274 0.80055 0.0
C1529 C 0.24112 0.32888 0.78038 0.0
C1530 C 0.2563 0.32936 0.8144 0.0
C1531 C 0.28517 0.33315 0.80837 0.0
C1532 C 0.29184 0.33487 0.78824 0.0
C1533 C 0.27001 0.33281 0.77437 0.0
C1534 C 0.30828 0.33477 0.82302 0.0
C1535 C 0.32705 0.32516 0.82016 0.0
C1536 C 0.31086 0.34494 0.84022 0.0
C1537 C 0.29294 0.35615 0.84348 0.0
C1538 C 0.29184 0.36716 0.82917 0.0
C1539 C 0.27478 0.37763 0.83226 0.0
C1540 C 0.25887 0.37728 0.84967 0.0
C1541 C 0.26003 0.36649 0.86404 0.0
C1542 C 0.27704 0.35598 0.86102 0.0
C1543 C 0.42127 0.33894 0.87612 0.0
C1544 C 0.41256 0.33423 0.89532 0.0
C1545 C 0.40103 0.33963 0.86206 0.0
C1546 C 0.37172 0.33559 0.86691 0.0
C1547 C 0.36304 0.33146 0.88624 0.0
C1548 C 0.38326 0.33071 0.90031 0.0
C1549 C 0.34999 0.33504 0.85163 0.0
C1550 C 0.3315 0.3448 0.85441 0.0
C1551 C 0.34774 0.32508 0.83429 0.0
C1552 C 0.36588 0.31401 0.83087 0.0
C1553 C 0.36614 0.3024 0.84457 0.0
C1554 C 0.38346 0.29209 0.84131 0.0
C1555 C 0.40045 0.29319 0.82432 0.0
C1556 C 0.40009 0.30458 0.81052 0.0
C1557 C 0.38284 0.31493 0.81373 0.0
H1558 H 0.41384 0.2852 0.82182 0.0
H1559 H 0.24568 0.38539 0.85203 0.0
H1560 H 0.48406 0.91194 0.37885 0.0
H1561 H 0.47793 0.93602 0.39635 0.0
H1562 H 0.40523 0.9069 0.42779 0.0
H1563 H 0.41058 0.8829 0.40978 0.0
H1564 H 0.39337 0.93245 0.41798 0.0
H1565 H 0.47406 0.92196 0.44882 0.0
H1566 H 0.52167 0.91711 0.45021 0.0
H1567 H 0.56072 0.96321 0.42658 0.0
H1568 H 0.51326 0.96824 0.42482 0.0
H1569 H 0.43521 0.99419 0.50596 0.0
H1570 H 0.44508 0.97267 0.48506 0.0
H1571 H 0.40761 0.98854 0.4354 0.0
H1572 H 0.397 0.00986 0.45647 0.0
H1573 H 0.4751 0.97006 0.45377 0.0
H1574 H 0.37211 0.95645 0.40669 0.0
H1575 H 0.32293 0.95926 0.40925 0.0
H1576 H 0.32572 0.95758 0.47227 0.0
H1577 H 0.37473 0.95455 0.47006 0.0
C1578 C 0.46673 0.91069 0.38946 0.0
C1579 C 0.44787 0.89552 0.39301 0.0
C1580 C 0.46332 0.92445 0.39952 0.0
C1581 C 0.44138 0.92327 0.41363 0.0
C1582 C 0.42231 0.90814 0.41697 0.0
C1583 C 0.42544 0.89442 0.40671 0.0
C1584 C 0.43829 0.93772 0.42504 0.0
C1585 C 0.41129 0.94069 0.42574 0.0
C1586 C 0.46152 0.94839 0.43544 0.0
C1587 C 0.49008 0.9454 0.4365 0.0
C1588 C 0.49277 0.93101 0.44379 0.0
C1589 C 0.51974 0.92823 0.44467 0.0
C1590 C 0.5442 0.93982 0.43844 0.0
C1591 C 0.54175 0.95423 0.43137 0.0
C1592 C 0.51483 0.95706 0.43044 0.0
C1593 C 0.42949 0.99323 0.49051 0.0
C1594 C 0.41519 0.00361 0.48284 0.0
C1595 C 0.43511 0.98092 0.47858 0.0
C1596 C 0.42668 0.97881 0.45872 0.0
C1597 C 0.41374 0.98971 0.45078 0.0
C1598 C 0.40776 0.0019 0.46279 0.0
C1599 C 0.43019 0.96474 0.44672 0.0
C1600 C 0.45726 0.96188 0.44586 0.0
C1601 C 0.40681 0.95386 0.43672 0.0
C1602 C 0.37719 0.95546 0.4382 0.0
C1603 C 0.36217 0.95663 0.42108 0.0
C1604 C 0.33434 0.95827 0.42247 0.0
C1605 C 0.32125 0.95866 0.44091 0.0
C1606 C 0.33592 0.95734 0.458 0.0
C1607 C 0.36373 0.95568 0.45669 0.0
H1608 H 0.29972 0.95994 0.44196 0.0
H1609 H 0.56505 0.93766 0.43913 0.0
H1610 H 0.74355 0.80317 0.73975 0.0
H1611 H 0.73063 0.81351 0.77175 0.0
H1612 H 0.64688 0.81125 0.74927 0.0
H1613 H 0.65984 0.80139 0.71729 0.0
H1614 H 0.66556 0.8373 0.77191 0.0
H1615 H 0.66002 0.7809 0.77673 0.0
H1616 H 0.67948 0.75751 0.77509 0.0
H1617 H 0.74224 0.78039 0.81892 0.0
H1618 H 0.72334 0.80401 0.82063 0.0
H1619 H 0.56696 0.82222 0.84964 0.0
H1620 H 0.59624 0.81929 0.82088 0.0
H1621 H 0.67238 0.83295 0.85683 0.0
H1622 H 0.64299 0.83593 0.88591 0.0
H1623 H 0.66708 0.80511 0.83017 0.0
H1624 H 0.66507 0.85965 0.82895 0.0
H1625 H 0.64253 0.88182 0.8308 0.0
H1626 H 0.59125 0.8614 0.78008 0.0
H1627 H 0.61316 0.83896 0.77811 0.0
C1628 C 0.72251 0.80506 0.74159 0.0
C1629 C 0.70258 0.80126 0.72606 0.0
C1630 C 0.71512 0.81091 0.7599 0.0
C1631 C 0.6876 0.81289 0.76303 0.0
C1632 C 0.66822 0.80979 0.74725 0.0
C1633 C 0.67563 0.80408 0.72896 0.0
C1634 C 0.67809 0.81738 0.78285 0.0
C1635 C 0.66589 0.83025 0.78463 0.0
C1636 C 0.67921 0.80847 0.79963 0.0
C1637 C 0.69053 0.79429 0.79862 0.0
C1638 C 0.67812 0.78098 0.7859 0.0
C1639 C 0.68901 0.76768 0.78498 0.0
C1640 C 0.71215 0.76749 0.79684 0.0
C1641 C 0.72437 0.78058 0.8097 0.0
C1642 C 0.71358 0.79392 0.81066 0.0
C1643 C 0.58989 0.82442 0.85151 0.0
C1644 C 0.6027 0.82923 0.87003 0.0
C1645 C 0.6066 0.82288 0.83504 0.0
C1646 C 0.63645 0.82606 0.83674 0.0
C1647 C 0.64936 0.83052 0.85526 0.0
C1648 C 0.63261 0.83226 0.87178 0.0
C1649 C 0.65378 0.82465 0.81894 0.0
C1650 C 0.6674 0.81239 0.81756 0.0
C1651 C 0.65372 0.834 0.80246 0.0
C1652 C 0.64066 0.84757 0.80346 0.0
C1653 C 0.64884 0.85982 0.81827 0.0
C1654 C 0.6362 0.87245 0.81933 0.0
C1655 C 0.61544 0.87301 0.80558 0.0
C1656 C 0.60734 0.86096 0.79072 0.0
C1657 C 0.61989 0.84829 0.78961 0.0
H1658 H 0.60567 0.8828 0.80643 0.0
H1659 H 0.72055 0.75717 0.79611 0.0
loop_
_geom_bond_atom_site_label_1
_geom_bond_atom_site_label_2
_geom_bond_distance
_geom_bond_site_symmetry_2
_ccdc_geom_bond_type
O0 Cd1 2.300 . S
O0 C7 1.275 . S
Cd1 O0 2.300 . S
Cd1 O9 2.381 . S
Cd1 O10 2.378 . S
O2 Cd3 2.385 . S
O2 C7 1.255 . S
Cd3 O2 2.385 . S
Cd3 O4 2.317 . S
O4 Cd3 2.317 . S
O4 C5 1.232 . S
C5 O4 1.232 . S
C5 O6 1.218 . S
O6 C5 1.218 . S
C7 O0 1.275 . S
C7 O2 1.255 . S
C8 O9 1.258 . S
C8 O10 1.256 . S
O9 Cd1 2.381 . S
O9 C8 1.258 . S
O10 Cd1 2.378 . S
O10 C8 1.256 . S
O11 Cd12 2.300 . S
O11 C18 1.275 . S
Cd12 O11 2.300 . S
Cd12 O20 2.381 . S
Cd12 O21 2.378 . S
O13 Cd14 2.385 . S
O13 C18 1.255 . S
Cd14 O13 2.385 . S
Cd14 O15 2.317 . S
O15 Cd14 2.317 . S
O15 C16 1.232 . S
C16 O15 1.232 . S
C16 O17 1.218 . S
O17 C16 1.218 . S
C18 O11 1.275 . S
C18 O13 1.255 . S
C19 O20 1.258 . S
C19 O21 1.256 . S
O20 Cd12 2.381 . S
O20 C19 1.258 . S
O21 Cd12 2.378 . S
O21 C19 1.256 . S
O22 Cd23 2.300 . S
O22 C29 1.275 . S
Cd23 O22 2.300 . S
Cd23 O31 2.381 . S
Cd23 O32 2.378 . S
O24 Cd25 2.385 . S
O24 C29 1.255 . S
Cd25 O24 2.385 . S
Cd25 O26 2.317 . S
O26 Cd25 2.317 . S
O26 C27 1.232 . S
C27 O26 1.232 . S
C27 O28 1.218 . S
O28 C27 1.218 . S
C29 O22 1.275 . S
C29 O24 1.255 . S
C30 O31 1.258 . S
C30 O32 1.256 . S
O31 Cd23 2.381 . S
O31 C30 1.258 . S
O32 Cd23 2.378 . S
O32 C30 1.256 . S
O33 Cd34 2.300 . S
O33 C40 1.275 . S
Cd34 O33 2.300 . S
Cd34 O42 2.381 . S
Cd34 O43 2.378 . S
O35 Cd36 2.385 . S
O35 C40 1.255 . S
Cd36 O35 2.385 . S
Cd36 O37 2.317 . S
O37 Cd36 2.317 . S
O37 C38 1.232 . S
C38 O37 1.232 . S
C38 O39 1.218 . S
O39 C38 1.218 . S
C40 O33 1.275 . S
C40 O35 1.255 . S
C41 O42 1.258 . S
C41 O43 1.256 . S
O42 Cd34 2.381 . S
O42 C41 1.258 . S
O43 Cd34 2.378 . S
O43 C41 1.256 . S
O44 Cd45 2.300 . S
O44 C51 1.275 . S
Cd45 O44 2.300 . S
Cd45 O53 2.381 . S
Cd45 O54 2.378 . S
O46 Cd47 2.385 . S
O46 C51 1.255 . S
Cd47 O46 2.385 . S
Cd47 O48 2.317 . S
O48 Cd47 2.317 . S
O48 C49 1.232 . S
C49 O48 1.232 . S
C49 O50 1.218 . S
O50 C49 1.218 . S
C51 O44 1.275 . S
C51 O46 1.255 . S
C52 O53 1.258 . S
C52 O54 1.256 . S
O53 Cd45 2.381 . S
O53 C52 1.258 . S
O54 Cd45 2.378 . S
O54 C52 1.256 . S
O55 Cd56 2.300 . S
O55 C62 1.275 . S
Cd56 O55 2.300 . S
Cd56 O64 2.381 . S
Cd56 O65 2.378 . S
O57 Cd58 2.385 . S
O57 C62 1.255 . S
Cd58 O57 2.385 . S
Cd58 O59 2.317 . S
O59 Cd58 2.317 . S
O59 C60 1.232 . S
C60 O59 1.232 . S
C60 O61 1.218 . S
O61 C60 1.218 . S
C62 O55 1.275 . S
C62 O57 1.255 . S
C63 O64 1.258 . S
C63 O65 1.256 . S
O64 Cd56 2.381 . S
O64 C63 1.258 . S
O65 Cd56 2.378 . S
O65 C63 1.256 . S
O66 Cd67 2.300 . S
O66 C73 1.275 . S
Cd67 O66 2.300 . S
Cd67 O75 2.381 . S
Cd67 O76 2.378 . S
O68 Cd69 2.385 . S
O68 C73 1.255 . S
Cd69 O68 2.385 . S
Cd69 O70 2.317 . S
O70 Cd69 2.317 . S
O70 C71 1.232 . S
C71 O70 1.232 . S
C71 O72 1.218 . S
O72 C71 1.218 . S
C73 O66 1.275 . S
C73 O68 1.255 . S
C74 O75 1.258 . S
C74 O76 1.256 . S
O75 Cd67 2.381 . S
O75 C74 1.258 . S
O76 Cd67 2.378 . S
O76 C74 1.256 . S
O77 Cd78 2.300 . S
O77 C84 1.275 . S
Cd78 O77 2.300 . S
Cd78 O86 2.381 . S
Cd78 O87 2.378 . S
O79 Cd80 2.385 . S
O79 C84 1.255 . S
Cd80 O79 2.385 . S
Cd80 O81 2.317 . S
O81 Cd80 2.317 . S
O81 C82 1.232 . S
C82 O81 1.232 . S
C82 O83 1.218 . S
O83 C82 1.218 . S
C84 O77 1.275 . S
C84 O79 1.255 . S
C85 O86 1.258 . S
C85 O87 1.256 . S
O86 Cd78 2.381 . S
O86 C85 1.258 . S
O87 Cd78 2.378 . S
O87 C85 1.256 . S
H88 C115 0.929 . S
N89 C114 1.433 . S
N89 C120 1.435 . S
N89 C126 1.423 . S
H90 C116 0.930 . S
H91 C119 0.931 . S
H92 C118 0.929 . S
H93 C121 0.930 . S
H94 C122 0.932 . S
H95 C125 0.929 . S
H96 C124 0.931 . S
H97 C127 0.929 . S
H98 C131 0.932 . S
H99 C128 0.931 . S
H100 C130 0.929 . S
H101 C133 0.929 . S
H102 C134 0.930 . S
H103 C136 0.929 . S
H104 C137 0.931 . S
H105 C139 0.930 . S
H106 C140 0.932 . S
H107 C142 0.931 . S
H108 C143 0.929 . S
H109 C145 0.929 . S
H110 C146 0.931 . S
H111 C148 0.929 . S
N112 C132 1.433 . S
N112 C138 1.435 . S
N112 C144 1.423 . S
H113 C149 0.932 . S
C114 N89 1.433 . S
C114 C115 1.363 . S
C114 C119 1.370 . S
C115 H88 0.929 . S
C115 C114 1.363 . S
C115 C116 1.385 1_455 S
C116 H90 0.930 . S
C116 C115 1.385 1_655 S
C116 C117 1.357 . S
C117 C116 1.357 . S
C117 C118 1.406 . S
C118 H92 0.929 . S
C118 C117 1.406 . S
C118 C119 1.391 1_655 S
C119 H91 0.931 . S
C119 C114 1.370 . S
C119 C118 1.391 1_455 S
C120 N89 1.435 . S
C120 C121 1.358 . S
C120 C125 1.371 . S
C121 H93 0.930 . S
C121 C120 1.358 . S
C121 C122 1.405 . S
C122 H94 0.932 . S
C122 C121 1.405 . S
C122 C123 1.383 . S
C123 C122 1.383 . S
C123 C124 1.393 . S
C124 H96 0.931 . S
C124 C123 1.393 . S
C124 C125 1.382 . S
C125 H95 0.929 . S
C125 C120 1.371 . S
C125 C124 1.382 . S
C126 N89 1.423 . S
C126 C127 1.362 . S
C126 C131 1.388 . S
C127 H97 0.929 . S
C127 C126 1.362 . S
C127 C128 1.376 . S
C128 H99 0.931 . S
C128 C127 1.376 . S
C128 C129 1.396 . S
C129 C128 1.396 . S
C129 C130 1.348 . S
C129 C147 1.472 . S
C130 H100 0.929 . S
C130 C129 1.348 . S
C130 C131 1.443 . S
C131 H98 0.932 . S
C131 C126 1.388 . S
C131 C130 1.443 . S
C132 N112 1.433 . S
C132 C133 1.363 . S
C132 C137 1.370 . S
C133 H101 0.929 . S
C133 C132 1.363 . S
C133 C134 1.385 1_455 S
C134 H102 0.930 . S
C134 C133 1.385 1_655 S
C134 C135 1.357 . S
C135 C134 1.357 . S
C135 C136 1.406 . S
C136 H103 0.929 . S
C136 C135 1.406 . S
C136 C137 1.391 1_655 S
C137 H104 0.931 . S
C137 C132 1.370 . S
C137 C136 1.391 1_455 S
C138 N112 1.435 . S
C138 C139 1.358 . S
C138 C143 1.371 . S
C139 H105 0.930 . S
C139 C138 1.358 . S
C139 C140 1.405 . S
C140 H106 0.932 . S
C140 C139 1.405 . S
C140 C141 1.383 . S
C141 C140 1.383 . S
C141 C142 1.393 . S
C142 H107 0.931 . S
C142 C141 1.393 . S
C142 C143 1.382 . S
C143 H108 0.929 . S
C143 C138 1.371 . S
C143 C142 1.382 . S
C144 N112 1.423 . S
C144 C145 1.362 . S
C144 C149 1.388 . S
C145 H109 0.929 . S
C145 C144 1.362 . S
C145 C146 1.376 . S
C146 H110 0.931 . S
C146 C145 1.376 . S
C146 C147 1.396 . S
C147 C129 1.472 . S
C147 C146 1.396 . S
C147 C148 1.348 . S
C148 H111 0.929 . S
C148 C147 1.348 . S
C148 C149 1.443 . S
C149 H113 0.932 . S
C149 C144 1.388 . S
C149 C148 1.443 . S
H150 C177 0.929 . S
N151 C176 1.433 1_455 S
N151 C182 1.435 . S
N151 C188 1.423 . S
H152 C178 0.930 . S
H153 C181 0.931 . S
H154 C180 0.929 . S
H155 C183 0.930 . S
H156 C184 0.932 . S
H157 C187 0.929 . S
H158 C186 0.931 . S
H159 C189 0.929 . S
H160 C193 0.932 . S
H161 C190 0.931 . S
H162 C192 0.929 . S
H163 C195 0.929 . S
H164 C196 0.930 . S
H165 C198 0.929 . S
H166 C199 0.931 . S
H167 C201 0.930 . S
H168 C202 0.932 . S
H169 C204 0.931 . S
H170 C205 0.929 . S
H171 C207 0.929 . S
H172 C208 0.931 . S
H173 C210 0.929 . S
N174 C194 1.433 1_455 S
N174 C200 1.435 . S
N174 C206 1.423 . S
H175 C211 0.932 . S
C176 N151 1.433 1_655 S
C176 C177 1.363 . S
C176 C181 1.370 . S
C177 H150 0.929 . S
C177 C176 1.363 . S
C177 C178 1.385 . S
C178 H152 0.930 . S
C178 C177 1.385 . S
C178 C179 1.357 . S
C179 C178 1.357 . S
C179 C180 1.406 . S
C180 H154 0.929 . S
C180 C179 1.406 . S
C180 C181 1.391 . S
C181 H153 0.931 . S
C181 C176 1.370 . S
C181 C180 1.391 . S
C182 N151 1.435 . S
C182 C183 1.358 . S
C182 C187 1.371 . S
C183 H155 0.930 . S
C183 C182 1.358 . S
C183 C184 1.405 . S
C184 H156 0.932 . S
C184 C183 1.405 . S
C184 C185 1.383 . S
C185 C184 1.383 . S
C185 C186 1.393 . S
C186 H158 0.931 . S
C186 C185 1.393 . S
C186 C187 1.382 . S
C187 H157 0.929 . S
C187 C182 1.371 . S
C187 C186 1.382 . S
C188 N151 1.423 . S
C188 C189 1.362 1_455 S
C188 C193 1.388 . S
C189 H159 0.929 . S
C189 C188 1.362 1_655 S
C189 C190 1.376 . S
C190 H161 0.931 . S
C190 C189 1.376 . S
C190 C191 1.396 1_655 S
C191 C190 1.396 1_455 S
C191 C192 1.348 . S
C191 C209 1.472 . S
C192 H162 0.929 . S
C192 C191 1.348 . S
C192 C193 1.443 . S
C193 H160 0.932 . S
C193 C188 1.388 . S
C193 C192 1.443 . S
C194 N174 1.433 1_655 S
C194 C195 1.363 . S
C194 C199 1.370 . S
C195 H163 0.929 . S
C195 C194 1.363 . S
C195 C196 1.385 . S
C196 H164 0.930 . S
C196 C195 1.385 . S
C196 C197 1.357 . S
C197 C196 1.357 . S
C197 C198 1.406 . S
C198 H165 0.929 . S
C198 C197 1.406 . S
C198 C199 1.391 . S
C199 H166 0.931 . S
C199 C194 1.370 . S
C199 C198 1.391 . S
C200 N174 1.435 . S
C200 C201 1.358 . S
C200 C205 1.371 . S
C201 H167 0.930 . S
C201 C200 1.358 . S
C201 C202 1.405 . S
C202 H168 0.932 . S
C202 C201 1.405 . S
C202 C203 1.383 . S
C203 C202 1.383 . S
C203 C204 1.393 . S
C204 H169 0.931 . S
C204 C203 1.393 . S
C204 C205 1.382 . S
C205 H170 0.929 . S
C205 C200 1.371 . S
C205 C204 1.382 . S
C206 N174 1.423 . S
C206 C207 1.362 1_455 S
C206 C211 1.388 . S
C207 H171 0.929 . S
C207 C206 1.362 1_655 S
C207 C208 1.376 . S
C208 H172 0.931 . S
C208 C207 1.376 . S
C208 C209 1.396 1_655 S
C209 C191 1.472 . S
C209 C208 1.396 1_455 S
C209 C210 1.348 . S
C210 H173 0.929 . S
C210 C209 1.348 . S
C210 C211 1.443 . S
C211 H175 0.932 . S
C211 C206 1.388 . S
C211 C210 1.443 . S
H212 C239 0.929 . S
N213 C238 1.433 . S
N213 C244 1.435 . S
N213 C250 1.423 . S
H214 C240 0.930 . S
H215 C243 0.931 . S
H216 C242 0.929 . S
H217 C245 0.930 . S
H218 C246 0.932 . S
H219 C249 0.929 . S
H220 C248 0.931 . S
H221 C251 0.929 . S
H222 C255 0.932 . S
H223 C252 0.931 . S
H224 C254 0.929 . S
H225 C257 0.929 . S
H226 C258 0.930 . S
H227 C260 0.929 . S
H228 C261 0.931 . S
H229 C263 0.930 . S
H230 C264 0.932 . S
H231 C266 0.931 . S
H232 C267 0.929 . S
H233 C269 0.929 . S
H234 C270 0.931 . S
H235 C272 0.929 . S
N236 C256 1.433 . S
N236 C262 1.435 . S
N236 C268 1.423 . S
H237 C273 0.932 . S
C238 N213 1.433 . S
C238 C239 1.363 . S
C238 C243 1.370 . S
C239 H212 0.929 . S
C239 C238 1.363 . S
C239 C240 1.385 . S
C240 H214 0.930 . S
C240 C239 1.385 . S
C240 C241 1.357 . S
C241 C240 1.357 . S
C241 C242 1.406 . S
C242 H216 0.929 . S
C242 C241 1.406 . S
C242 C243 1.391 . S
C243 H215 0.931 . S
C243 C238 1.370 . S
C243 C242 1.391 . S
C244 N213 1.435 . S
C244 C245 1.358 . S
C244 C249 1.371 . S
C245 H217 0.930 . S
C245 C244 1.358 . S
C245 C246 1.405 . S
C246 H218 0.932 . S
C246 C245 1.405 . S
C246 C247 1.383 . S
C247 C246 1.383 . S
C247 C248 1.393 . S
C248 H220 0.931 . S
C248 C247 1.393 . S
C248 C249 1.382 . S
C249 H219 0.929 . S
C249 C244 1.371 . S
C249 C248 1.382 . S
C250 N213 1.423 . S
C250 C251 1.362 . S
C250 C255 1.388 . S
C251 H221 0.929 . S
C251 C250 1.362 . S
C251 C252 1.376 . S
C252 H223 0.931 . S
C252 C251 1.376 . S
C252 C253 1.396 . S
C253 C252 1.396 . S
C253 C254 1.348 . S
C253 C271 1.472 . S
C254 H224 0.929 . S
C254 C253 1.348 . S
C254 C255 1.443 . S
C255 H222 0.932 . S
C255 C250 1.388 . S
C255 C254 1.443 . S
C256 N236 1.433 . S
C256 C257 1.363 . S
C256 C261 1.370 . S
C257 H225 0.929 . S
C257 C256 1.363 . S
C257 C258 1.385 . S
C258 H226 0.930 . S
C258 C257 1.385 . S
C258 C259 1.357 . S
C259 C258 1.357 . S
C259 C260 1.406 . S
C260 H227 0.929 . S
C260 C259 1.406 . S
C260 C261 1.391 . S
C261 H228 0.931 . S
C261 C256 1.370 . S
C261 C260 1.391 . S
C262 N236 1.435 . S
C262 C263 1.358 . S
C262 C267 1.371 . S
C263 H229 0.930 . S
C263 C262 1.358 . S
C263 C264 1.405 . S
C264 H230 0.932 . S
C264 C263 1.405 . S
C264 C265 1.383 . S
C265 C264 1.383 . S
C265 C266 1.393 . S
C266 H231 0.931 . S
C266 C265 1.393 . S
C266 C267 1.382 . S
C267 H232 0.929 . S
C267 C262 1.371 . S
C267 C266 1.382 . S
C268 N236 1.423 . S
C268 C269 1.362 . S
C268 C273 1.388 . S
C269 H233 0.929 . S
C269 C268 1.362 . S
C269 C270 1.376 . S
C270 H234 0.931 . S
C270 C269 1.376 . S
C270 C271 1.396 . S
C271 C253 1.472 . S
C271 C270 1.396 . S
C271 C272 1.348 . S
C272 H235 0.929 . S
C272 C271 1.348 . S
C272 C273 1.443 . S
C273 H237 0.932 . S
C273 C268 1.388 . S
C273 C272 1.443 . S
H274 C301 0.929 . S
N275 C300 1.433 . S
N275 C306 1.435 . S
N275 C312 1.423 . S
H276 C302 0.930 . S
H277 C305 0.931 . S
H278 C304 0.929 . S
H279 C307 0.930 . S
H280 C308 0.932 . S
H281 C311 0.929 . S
H282 C310 0.931 . S
H283 C313 0.929 . S
H284 C317 0.932 . S
H285 C314 0.931 . S
H286 C316 0.929 . S
H287 C319 0.929 . S
H288 C320 0.930 . S
H289 C322 0.929 . S
H290 C323 0.931 . S
H291 C325 0.930 . S
H292 C326 0.932 . S
H293 C328 0.931 . S
H294 C329 0.929 . S
H295 C331 0.929 . S
H296 C332 0.931 . S
H297 C334 0.940 . S
N298 C318 1.433 . S
N298 C324 1.435 . S
N298 C330 1.423 . S
H299 C335 0.932 . S
C300 N275 1.433 . S
C300 C301 1.363 . S
C300 C305 1.370 . S
C301 H274 0.929 . S
C301 C300 1.363 . S
C301 C302 1.385 . S
C302 H276 0.930 . S
C302 C301 1.385 . S
C302 C303 1.357 . S
C303 C302 1.357 . S
C303 C304 1.406 . S
C304 H278 0.929 . S
C304 C303 1.406 . S
C304 C305 1.391 . S
C305 H277 0.931 . S
C305 C300 1.370 . S
C305 C304 1.391 . S
C306 N275 1.435 . S
C306 C307 1.358 . S
C306 C311 1.371 . S
C307 H279 0.930 . S
C307 C306 1.358 . S
C307 C308 1.405 . S
C308 H280 0.932 . S
C308 C307 1.405 . S
C308 C309 1.383 . S
C309 C308 1.383 . S
C309 C310 1.393 . S
C310 H282 0.931 . S
C310 C309 1.393 . S
C310 C311 1.382 . S
C311 H281 0.929 . S
C311 C306 1.371 . S
C311 C310 1.382 . S
C312 N275 1.423 . S
C312 C313 1.362 . S
C312 C317 1.388 . S
C313 H283 0.929 . S
C313 C312 1.362 . S
C313 C314 1.376 . S
C314 H285 0.931 . S
C314 C313 1.376 . S
C314 C315 1.396 . S
C315 C314 1.396 . S
C315 C316 1.348 . S
C315 C333 1.496 . S
C316 H286 0.929 . S
C316 C315 1.348 . S
C316 C317 1.443 . S
C317 H284 0.932 . S
C317 C312 1.388 . S
C317 C316 1.443 . S
C318 N298 1.433 . S
C318 C319 1.363 . S
C318 C323 1.370 . S
C319 H287 0.929 . S
C319 C318 1.363 . S
C319 C320 1.385 . S
C320 H288 0.930 . S
C320 C319 1.385 . S
C320 C321 1.357 . S
C321 C320 1.357 . S
C321 C322 1.406 . S
C322 H289 0.929 . S
C322 C321 1.406 . S
C322 C323 1.391 . S
C323 H290 0.931 . S
C323 C318 1.370 . S
C323 C322 1.391 . S
C324 N298 1.435 . S
C324 C325 1.358 . S
C324 C329 1.371 . S
C325 H291 0.930 . S
C325 C324 1.358 . S
C325 C326 1.405 . S
C326 H292 0.932 . S
C326 C325 1.405 . S
C326 C327 1.383 . S
C327 C326 1.383 . S
C327 C328 1.393 . S
C328 H293 0.931 . S
C328 C327 1.393 . S
C328 C329 1.382 . S
C329 H294 0.929 . S
C329 C324 1.371 . S
C329 C328 1.382 . S
C330 N298 1.423 . S
C330 C331 1.362 . S
C330 C335 1.388 . S
C331 H295 0.929 . S
C331 C330 1.362 . S
C331 C332 1.376 . S
C332 H296 0.931 . S
C332 C331 1.376 . S
C332 C333 1.382 1_556 S
C333 C315 1.496 . S
C333 C332 1.382 1_554 S
C333 C334 1.336 1_554 S
C334 H297 0.940 . S
C334 C333 1.336 1_556 S
C334 C335 1.443 . S
C335 H299 0.932 . S
C335 C330 1.388 . S
C335 C334 1.443 . S
H336 C363 0.929 . S
N337 C362 1.433 . S
N337 C368 1.435 . S
N337 C374 1.423 . S
H338 C364 0.930 . S
H339 C367 0.931 . S
H340 C366 0.929 . S
H341 C369 0.930 . S
H342 C370 0.932 . S
H343 C373 0.929 . S
H344 C372 0.931 . S
H345 C375 0.929 . S
H346 C379 0.932 . S
H347 C376 0.931 . S
H348 C378 0.929 . S
H349 C381 0.929 . S
H350 C382 0.930 . S
H351 C384 0.929 . S
H352 C385 0.931 . S
H353 C387 0.930 . S
H354 C388 0.932 . S
H355 C390 0.931 . S
H356 C391 0.929 . S
H357 C393 0.929 . S
H358 C394 0.931 . S
H359 C396 0.929 1_545 S
N360 C380 1.433 . S
N360 C386 1.435 . S
N360 C392 1.423 . S
H361 C397 0.932 . S
C362 N337 1.433 . S
C362 C363 1.363 . S
C362 C367 1.370 . S
C363 H336 0.929 . S
C363 C362 1.363 . S
C363 C364 1.385 . S
C364 H338 0.930 . S
C364 C363 1.385 . S
C364 C365 1.357 . S
C365 C364 1.357 . S
C365 C366 1.406 . S
C366 H340 0.929 . S
C366 C365 1.406 . S
C366 C367 1.391 . S
C367 H339 0.931 . S
C367 C362 1.370 . S
C367 C366 1.391 . S
C368 N337 1.435 . S
C368 C369 1.358 . S
C368 C373 1.371 . S
C369 H341 0.930 . S
C369 C368 1.358 . S
C369 C370 1.405 . S
C370 H342 0.932 . S
C370 C369 1.405 . S
C370 C371 1.383 . S
C371 C370 1.383 . S
C371 C372 1.393 . S
C372 H344 0.931 . S
C372 C371 1.393 . S
C372 C373 1.382 . S
C373 H343 0.929 . S
C373 C368 1.371 . S
C373 C372 1.382 . S
C374 N337 1.423 . S
C374 C375 1.362 . S
C374 C379 1.388 . S
C375 H345 0.929 . S
C375 C374 1.362 . S
C375 C376 1.376 . S
C376 H347 0.931 . S
C376 C375 1.376 . S
C376 C377 1.396 . S
C377 C376 1.396 . S
C377 C378 1.348 . S
C377 C395 1.472 . S
C378 H348 0.929 . S
C378 C377 1.348 . S
C378 C379 1.443 . S
C379 H346 0.932 . S
C379 C374 1.388 . S
C379 C378 1.443 . S
C380 N360 1.433 . S
C380 C381 1.363 . S
C380 C385 1.370 . S
C381 H349 0.929 . S
C381 C380 1.363 . S
C381 C382 1.385 . S
C382 H350 0.930 . S
C382 C381 1.385 . S
C382 C383 1.357 . S
C383 C382 1.357 . S
C383 C384 1.406 . S
C384 H351 0.929 . S
C384 C383 1.406 . S
C384 C385 1.391 . S
C385 H352 0.931 . S
C385 C380 1.370 . S
C385 C384 1.391 . S
C386 N360 1.435 . S
C386 C387 1.358 . S
C386 C391 1.371 . S
C387 H353 0.930 . S
C387 C386 1.358 . S
C387 C388 1.405 . S
C388 H354 0.932 . S
C388 C387 1.405 . S
C388 C389 1.383 . S
C389 C388 1.383 . S
C389 C390 1.393 . S
C390 H355 0.931 . S
C390 C389 1.393 . S
C390 C391 1.382 . S
C391 H356 0.929 . S
C391 C386 1.371 . S
C391 C390 1.382 . S
C392 N360 1.423 . S
C392 C393 1.362 . S
C392 C397 1.388 . S
C393 H357 0.929 . S
C393 C392 1.362 . S
C393 C394 1.376 . S
C394 H358 0.931 . S
C394 C393 1.376 . S
C394 C395 1.396 1_565 S
C395 C377 1.472 . S
C395 C394 1.396 1_545 S
C395 C396 1.348 1_545 S
C396 H359 0.929 1_565 S
C396 C395 1.348 1_565 S
C396 C397 1.443 . S
C397 H361 0.932 . S
C397 C392 1.388 . S
C397 C396 1.443 . S
H398 C425 0.929 . S
N399 C424 1.433 . S
N399 C430 1.435 . S
N399 C436 1.423 . S
H400 C426 0.930 . S
H401 C429 0.931 . S
H402 C428 0.929 . S
H403 C431 0.930 . S
H404 C432 0.932 . S
H405 C435 0.929 . S
H406 C434 0.931 . S
H407 C437 0.929 . S
H408 C441 0.932 . S
H409 C438 0.931 . S
H410 C440 0.929 . S
H411 C443 0.929 . S
H412 C444 0.930 . S
H413 C446 0.929 . S
H414 C447 0.931 . S
H415 C449 0.930 . S
H416 C450 0.932 . S
H417 C452 0.931 . S
H418 C453 0.929 . S
H419 C455 0.929 . S
H420 C456 0.931 . S
H421 C458 0.961 . S
N422 C442 1.433 . S
N422 C448 1.435 . S
N422 C454 1.423 . S
H423 C459 0.932 . S
C424 N399 1.433 . S
C424 C425 1.363 . S
C424 C429 1.370 . S
C425 H398 0.929 . S
C425 C424 1.363 . S
C425 C426 1.385 . S
C426 H400 0.930 . S
C426 C425 1.385 . S
C426 C427 1.357 . S
C427 C426 1.357 . S
C427 C428 1.406 . S
C428 H402 0.929 . S
C428 C427 1.406 . S
C428 C429 1.391 . S
C429 H401 0.931 . S
C429 C424 1.370 . S
C429 C428 1.391 . S
C430 N399 1.435 . S
C430 C431 1.358 . S
C430 C435 1.371 . S
C431 H403 0.930 . S
C431 C430 1.358 . S
C431 C432 1.405 . S
C432 H404 0.932 . S
C432 C431 1.405 . S
C432 C433 1.383 . S
C433 C432 1.383 . S
C433 C434 1.393 . S
C434 H406 0.931 . S
C434 C433 1.393 . S
C434 C435 1.382 . S
C435 H405 0.929 . S
C435 C430 1.371 . S
C435 C434 1.382 . S
C436 N399 1.423 . S
C436 C437 1.362 . S
C436 C441 1.388 . S
C437 H407 0.929 . S
C437 C436 1.362 . S
C437 C438 1.376 . S
C438 H409 0.931 . S
C438 C437 1.376 . S
C438 C439 1.396 . S
C439 C438 1.396 . S
C439 C440 1.348 . S
C439 C457 1.502 . S
C440 H410 0.929 . S
C440 C439 1.348 . S
C440 C441 1.443 . S
C441 H408 0.932 . S
C441 C436 1.388 . S
C441 C440 1.443 . S
C442 N422 1.433 . S
C442 C443 1.363 . S
C442 C447 1.370 . S
C443 H411 0.929 . S
C443 C442 1.363 . S
C443 C444 1.385 . S
C444 H412 0.930 . S
C444 C443 1.385 . S
C444 C445 1.357 . S
C445 C444 1.357 . S
C445 C446 1.406 . S
C446 H413 0.929 . S
C446 C445 1.406 . S
C446 C447 1.391 . S
C447 H414 0.931 . S
C447 C442 1.370 . S
C447 C446 1.391 . S
C448 N422 1.435 . S
C448 C449 1.358 . S
C448 C453 1.371 . S
C449 H415 0.930 . S
C449 C448 1.358 . S
C449 C450 1.405 . S
C450 H416 0.932 . S
C450 C449 1.405 . S
C450 C451 1.383 . S
C451 C450 1.383 . S
C451 C452 1.393 . S
C452 H417 0.931 . S
C452 C451 1.393 . S
C452 C453 1.382 . S
C453 H418 0.929 . S
C453 C448 1.371 . S
C453 C452 1.382 . S
C454 N422 1.423 . S
C454 C455 1.362 . S
C454 C459 1.388 . S
C455 H419 0.929 . S
C455 C454 1.362 . S
C455 C456 1.376 . S
C456 H420 0.931 . S
C456 C455 1.376 . S
C456 C457 1.379 1_556 S
C457 C439 1.502 . S
C457 C456 1.379 1_554 S
C457 C458 1.333 1_554 S
C458 H421 0.961 . S
C458 C457 1.333 1_556 S
C458 C459 1.443 . S
C459 H423 0.932 . S
C459 C454 1.388 . S
C459 C458 1.443 . S
H460 C478 0.951 . S
H461 C480 0.951 . S
H462 C482 0.950 . S
H463 C483 0.950 . S
H464 C485 0.950 . S
H465 C488 0.950 . S
H466 C489 0.950 . S
H467 C491 0.950 . S
H468 C492 0.950 . S
H469 C493 0.951 . S
H470 C495 0.951 . S
H471 C497 0.950 . S
H472 C498 0.950 . S
H473 C500 0.950 . S
H474 C503 0.950 . S
H475 C504 0.950 . S
H476 C506 0.950 . S
H477 C507 0.950 . S
C478 H460 0.951 . S
C478 C479 1.366 . S
C478 C480 1.388 . S
C479 C478 1.366 . S
C479 C483 1.385 . S
C480 H461 0.951 . S
C480 C478 1.388 . S
C480 C481 1.366 . S
C481 C480 1.366 . S
C481 C482 1.414 . S
C481 C484 1.499 . S
C482 H462 0.950 . S
C482 C481 1.414 . S
C482 C483 1.374 . S
C483 H463 0.950 . S
C483 C479 1.385 . S
C483 C482 1.374 . S
C484 C481 1.499 . S
C484 C485 1.373 . S
C484 C486 1.389 . S
C485 H464 0.950 . S
C485 C484 1.373 . S
C485 C501 1.377 . S
C486 C484 1.389 . S
C486 C487 1.524 . S
C486 C500 1.377 . S
C487 C486 1.524 . S
C487 C488 1.397 . S
C487 C492 1.363 . S
C488 H465 0.950 . S
C488 C487 1.397 . S
C488 C489 1.334 . S
C489 H466 0.950 . S
C489 C488 1.334 . S
C489 C490 1.287 . S
C490 C489 1.287 . S
C490 C491 1.524 . S
C490 H509 0.913 . S
C491 H467 0.950 . S
C491 C490 1.524 . S
C491 C492 1.415 . S
C492 H468 0.950 . S
C492 C487 1.363 . S
C492 C491 1.415 . S
C493 H469 0.951 . S
C493 C494 1.366 . S
C493 C495 1.388 . S
C494 C493 1.366 . S
C494 C498 1.385 . S
C495 H470 0.951 . S
C495 C493 1.388 . S
C495 C496 1.366 . S
C496 C495 1.366 . S
C496 C497 1.414 . S
C496 C499 1.499 . S
C497 H471 0.950 . S
C497 C496 1.414 . S
C497 C498 1.374 . S
C498 H472 0.950 . S
C498 C494 1.385 . S
C498 C497 1.374 . S
C499 C496 1.499 . S
C499 C500 1.373 . S
C499 C501 1.389 . S
C500 H473 0.950 . S
C500 C486 1.377 . S
C500 C499 1.373 . S
C501 C485 1.377 . S
C501 C499 1.389 . S
C501 C502 1.524 . S
C502 C501 1.524 . S
C502 C503 1.397 . S
C502 C507 1.363 . S
C503 H474 0.950 . S
C503 C502 1.397 . S
C503 C504 1.334 . S
C504 H475 0.950 . S
C504 C503 1.334 . S
C504 C505 1.287 . S
C505 C504 1.287 . S
C505 C506 1.524 . S
C505 H508 0.999 . S
C506 H476 0.950 . S
C506 C505 1.524 . S
C506 C507 1.415 . S
C507 H477 0.950 . S
C507 C502 1.363 . S
C507 C506 1.415 . S
H508 C505 0.999 . S
H509 C490 0.913 . S
H510 C528 0.951 . S
H511 C530 0.951 . S
H512 C532 0.950 . S
H513 C533 0.950 . S
H514 C535 0.950 . S
H515 C538 0.950 . S
H516 C539 0.950 . S
H517 C541 0.950 . S
H518 C542 0.950 . S
H519 C543 0.951 . S
H520 C545 0.951 . S
H521 C547 0.950 . S
H522 C548 0.950 . S
H523 C550 0.950 . S
H524 C553 0.950 . S
H525 C554 0.950 . S
H526 C556 0.950 . S
H527 C557 0.950 . S
C528 H510 0.951 . S
C528 C529 1.366 . S
C528 C530 1.388 . S
C529 C528 1.366 . S
C529 C533 1.385 . S
C530 H511 0.951 . S
C530 C528 1.388 . S
C530 C531 1.366 . S
C531 C530 1.366 . S
C531 C532 1.414 . S
C531 C534 1.499 . S
C532 H512 0.950 . S
C532 C531 1.414 . S
C532 C533 1.374 . S
C533 H513 0.950 . S
C533 C529 1.385 . S
C533 C532 1.374 . S
C534 C531 1.499 . S
C534 C535 1.373 . S
C534 C536 1.389 . S
C535 H514 0.950 . S
C535 C534 1.373 . S
C535 C551 1.377 . S
C536 C534 1.389 . S
C536 C537 1.524 . S
C536 C550 1.377 . S
C537 C536 1.524 . S
C537 C538 1.397 . S
C537 C542 1.363 . S
C538 H515 0.950 . S
C538 C537 1.397 . S
C538 C539 1.334 . S
C539 H516 0.950 . S
C539 C538 1.334 . S
C539 C540 1.287 . S
C540 C539 1.287 . S
C540 C541 1.524 . S
C540 H559 0.913 . S
C541 H517 0.950 . S
C541 C540 1.524 . S
C541 C542 1.415 . S
C542 H518 0.950 . S
C542 C537 1.363 . S
C542 C541 1.415 . S
C543 H519 0.951 . S
C543 C544 1.366 . S
C543 C545 1.388 . S
C544 C543 1.366 . S
C544 C548 1.385 . S
C545 H520 0.951 . S
C545 C543 1.388 . S
C545 C546 1.366 . S
C546 C545 1.366 . S
C546 C547 1.414 . S
C546 C549 1.499 . S
C547 H521 0.950 . S
C547 C546 1.414 . S
C547 C548 1.374 . S
C548 H522 0.950 . S
C548 C544 1.385 . S
C548 C547 1.374 . S
C549 C546 1.499 . S
C549 C550 1.373 . S
C549 C551 1.389 . S
C550 H523 0.950 . S
C550 C536 1.377 . S
C550 C549 1.373 . S
C551 C535 1.377 . S
C551 C549 1.389 . S
C551 C552 1.524 . S
C552 C551 1.524 . S
C552 C553 1.397 . S
C552 C557 1.363 . S
C553 H524 0.950 . S
C553 C552 1.397 . S
C553 C554 1.334 . S
C554 H525 0.950 . S
C554 C553 1.334 . S
C554 C555 1.287 . S
C555 C554 1.287 . S
C555 C556 1.524 . S
C555 H558 0.999 . S
C556 H526 0.950 . S
C556 C555 1.524 . S
C556 C557 1.415 . S
C557 H527 0.950 . S
C557 C552 1.363 . S
C557 C556 1.415 . S
H558 C555 0.999 . S
H559 C540 0.913 . S
H560 C578 0.951 . S
H561 C580 0.951 . S
H562 C582 0.950 . S
H563 C583 0.950 . S
H564 C585 0.950 . S
H565 C588 0.950 . S
H566 C589 0.950 . S
H567 C591 0.950 . S
H568 C592 0.950 . S
H569 C593 0.951 . S
H570 C595 0.951 . S
H571 C597 0.950 . S
H572 C598 0.950 . S
H573 C600 0.950 . S
H574 C603 0.950 . S
H575 C604 0.950 . S
H576 C606 0.950 . S
H577 C607 0.950 . S
C578 H560 0.951 . S
C578 C579 1.366 . S
C578 C580 1.388 . S
C579 C578 1.366 . S
C579 C583 1.385 . S
C580 H561 0.951 . S
C580 C578 1.388 . S
C580 C581 1.366 . S
C581 C580 1.366 . S
C581 C582 1.414 . S
C581 C584 1.499 . S
C582 H562 0.950 . S
C582 C581 1.414 . S
C582 C583 1.374 . S
C583 H563 0.950 . S
C583 C579 1.385 . S
C583 C582 1.374 . S
C584 C581 1.499 . S
C584 C585 1.373 . S
C584 C586 1.389 . S
C585 H564 0.950 . S
C585 C584 1.373 . S
C585 C601 1.377 . S
C586 C584 1.389 . S
C586 C587 1.524 . S
C586 C600 1.377 . S
C587 C586 1.524 . S
C587 C588 1.397 . S
C587 C592 1.363 . S
C588 H565 0.950 . S
C588 C587 1.397 . S
C588 C589 1.334 . S
C589 H566 0.950 . S
C589 C588 1.334 . S
C589 C590 1.287 . S
C590 C589 1.287 . S
C590 C591 1.524 . S
C590 H609 0.913 . S
C591 H567 0.950 . S
C591 C590 1.524 . S
C591 C592 1.415 . S
C592 H568 0.950 . S
C592 C587 1.363 . S
C592 C591 1.415 . S
C593 H569 0.951 . S
C593 C594 1.366 . S
C593 C595 1.388 . S
C594 C593 1.366 . S
C594 C598 1.385 . S
C595 H570 0.951 . S
C595 C593 1.388 . S
C595 C596 1.366 . S
C596 C595 1.366 . S
C596 C597 1.414 . S
C596 C599 1.499 . S
C597 H571 0.950 . S
C597 C596 1.414 . S
C597 C598 1.374 . S
C598 H572 0.950 . S
C598 C594 1.385 . S
C598 C597 1.374 . S
C599 C596 1.499 . S
C599 C600 1.373 . S
C599 C601 1.389 . S
C600 H573 0.950 . S
C600 C586 1.377 . S
C600 C599 1.373 . S
C601 C585 1.377 . S
C601 C599 1.389 . S
C601 C602 1.524 . S
C602 C601 1.524 . S
C602 C603 1.397 . S
C602 C607 1.363 . S
C603 H574 0.950 . S
C603 C602 1.397 . S
C603 C604 1.334 . S
C604 H575 0.950 . S
C604 C603 1.334 . S
C604 C605 1.287 . S
C605 C604 1.287 . S
C605 C606 1.524 . S
C605 H608 0.999 . S
C606 H576 0.950 . S
C606 C605 1.524 . S
C606 C607 1.415 . S
C607 H577 0.950 . S
C607 C602 1.363 . S
C607 C606 1.415 . S
H608 C605 0.999 . S
H609 C590 0.913 . S
H610 C628 0.951 . S
H611 C630 0.951 . S
H612 C632 0.950 . S
H613 C633 0.950 . S
H614 C635 0.950 . S
H615 C638 0.950 . S
H616 C639 0.950 . S
H617 C641 0.950 . S
H618 C642 0.950 . S
H619 C643 0.951 . S
H620 C645 0.951 . S
H621 C647 0.950 . S
H622 C648 0.950 . S
H623 C650 0.950 . S
H624 C653 0.950 . S
H625 C654 0.950 . S
H626 C656 0.950 . S
H627 C657 0.950 . S
C628 H610 0.951 . S
C628 C629 1.366 . S
C628 C630 1.388 . S
C629 C628 1.366 . S
C629 C633 1.385 . S
C630 H611 0.951 . S
C630 C628 1.388 . S
C630 C631 1.366 . S
C631 C630 1.366 . S
C631 C632 1.414 . S
C631 C634 1.499 . S
C632 H612 0.950 . S
C632 C631 1.414 . S
C632 C633 1.374 . S
C633 H613 0.950 . S
C633 C629 1.385 . S
C633 C632 1.374 . S
C634 C631 1.499 . S
C634 C635 1.373 . S
C634 C636 1.389 . S
C635 H614 0.950 . S
C635 C634 1.373 . S
C635 C651 1.377 . S
C636 C634 1.389 . S
C636 C637 1.524 . S
C636 C650 1.377 . S
C637 C636 1.524 . S
C637 C638 1.397 . S
C637 C642 1.363 . S
C638 H615 0.950 . S
C638 C637 1.397 . S
C638 C639 1.334 . S
C639 H616 0.950 . S
C639 C638 1.334 . S
C639 C640 1.287 . S
C640 C639 1.287 . S
C640 C641 1.524 . S
C640 H659 0.913 . S
C641 H617 0.950 . S
C641 C640 1.524 . S
C641 C642 1.415 . S
C642 H618 0.950 . S
C642 C637 1.363 . S
C642 C641 1.415 . S
C643 H619 0.951 . S
C643 C644 1.366 . S
C643 C645 1.388 . S
C644 C643 1.366 . S
C644 C648 1.385 . S
C645 H620 0.951 . S
C645 C643 1.388 . S
C645 C646 1.366 . S
C646 C645 1.366 . S
C646 C647 1.414 . S
C646 C649 1.499 . S
C647 H621 0.950 . S
C647 C646 1.414 . S
C647 C648 1.374 . S
C648 H622 0.950 . S
C648 C644 1.385 . S
C648 C647 1.374 . S
C649 C646 1.499 . S
C649 C650 1.373 . S
C649 C651 1.389 . S
C650 H623 0.950 . S
C650 C636 1.377 . S
C650 C649 1.373 . S
C651 C635 1.377 . S
C651 C649 1.389 . S
C651 C652 1.524 . S
C652 C651 1.524 . S
C652 C653 1.397 . S
C652 C657 1.363 . S
C653 H624 0.950 . S
C653 C652 1.397 . S
C653 C654 1.334 . S
C654 H625 0.950 . S
C654 C653 1.334 . S
C654 C655 1.287 . S
C655 C654 1.287 . S
C655 C656 1.524 . S
C655 H658 0.999 . S
C656 H626 0.950 . S
C656 C655 1.524 . S
C656 C657 1.415 . S
C657 H627 0.950 . S
C657 C652 1.363 . S
C657 C656 1.415 . S
H658 C655 0.999 . S
H659 C640 0.913 . S
H660 C678 0.951 . S
H661 C680 0.951 . S
H662 C682 0.950 . S
H663 C683 0.950 . S
H664 C685 0.950 . S
H665 C688 0.950 . S
H666 C689 0.950 . S
H667 C691 0.950 . S
H668 C692 0.950 . S
H669 C693 0.951 . S
H670 C695 0.951 . S
H671 C697 0.950 . S
H672 C698 0.950 . S
H673 C700 0.950 . S
H674 C703 0.950 . S
H675 C704 0.950 . S
H676 C706 0.950 . S
H677 C707 0.950 . S
C678 H660 0.951 . S
C678 C679 1.366 . S
C678 C680 1.388 . S
C679 C678 1.366 . S
C679 C683 1.385 . S
C680 H661 0.951 . S
C680 C678 1.388 . S
C680 C681 1.366 . S
C681 C680 1.366 . S
C681 C682 1.414 . S
C681 C684 1.499 . S
C682 H662 0.950 . S
C682 C681 1.414 . S
C682 C683 1.374 . S
C683 H663 0.950 . S
C683 C679 1.385 . S
C683 C682 1.374 . S
C684 C681 1.499 . S
C684 C685 1.373 . S
C684 C686 1.389 . S
C685 H664 0.950 . S
C685 C684 1.373 . S
C685 C701 1.377 . S
C686 C684 1.389 . S
C686 C687 1.524 . S
C686 C700 1.377 . S
C687 C686 1.524 . S
C687 C688 1.397 . S
C687 C692 1.363 . S
C688 H665 0.950 . S
C688 C687 1.397 . S
C688 C689 1.334 . S
C689 H666 0.950 . S
C689 C688 1.334 . S
C689 C690 1.287 . S
C690 C689 1.287 . S
C690 C691 1.524 . S
C690 H709 0.913 . S
C691 H667 0.950 . S
C691 C690 1.524 . S
C691 C692 1.415 . S
C692 H668 0.950 . S
C692 C687 1.363 . S
C692 C691 1.415 . S
C693 H669 0.951 . S
C693 C694 1.366 . S
C693 C695 1.388 . S
C694 C693 1.366 . S
C694 C698 1.385 . S
C695 H670 0.951 . S
C695 C693 1.388 . S
C695 C696 1.366 . S
C696 C695 1.366 . S
C696 C697 1.414 . S
C696 C699 1.499 . S
C697 H671 0.950 . S
C697 C696 1.414 . S
C697 C698 1.374 . S
C698 H672 0.950 . S
C698 C694 1.385 . S
C698 C697 1.374 . S
C699 C696 1.499 . S
C699 C700 1.373 . S
C699 C701 1.389 . S
C700 H673 0.950 . S
C700 C686 1.377 . S
C700 C699 1.373 . S
C701 C685 1.377 . S
C701 C699 1.389 . S
C701 C702 1.524 . S
C702 C701 1.524 . S
C702 C703 1.397 . S
C702 C707 1.363 . S
C703 H674 0.950 . S
C703 C702 1.397 . S
C703 C704 1.334 . S
C704 H675 0.950 . S
C704 C703 1.334 . S
C704 C705 1.287 . S
C705 C704 1.287 . S
C705 C706 1.524 . S
C705 H708 0.999 . S
C706 H676 0.950 . S
C706 C705 1.524 . S
C706 C707 1.415 . S
C707 H677 0.950 . S
C707 C702 1.363 . S
C707 C706 1.415 . S
H708 C705 0.999 . S
H709 C690 0.913 . S
H710 C728 0.951 . S
H711 C730 0.951 . S
H712 C732 0.950 . S
H713 C733 0.950 . S
H714 C735 0.950 . S
H715 C738 0.950 . S
H716 C739 0.950 . S
H717 C741 0.950 . S
H718 C742 0.950 . S
H719 C743 0.951 . S
H720 C745 0.951 . S
H721 C747 0.950 . S
H722 C748 0.950 . S
H723 C750 0.950 . S
H724 C753 0.950 . S
H725 C754 0.950 . S
H726 C756 0.950 . S
H727 C757 0.950 . S
C728 H710 0.951 . S
C728 C729 1.366 . S
C728 C730 1.388 . S
C729 C728 1.366 . S
C729 C733 1.385 . S
C730 H711 0.951 . S
C730 C728 1.388 . S
C730 C731 1.366 . S
C731 C730 1.366 . S
C731 C732 1.414 . S
C731 C734 1.499 . S
C732 H712 0.950 . S
C732 C731 1.414 . S
C732 C733 1.374 . S
C733 H713 0.950 . S
C733 C729 1.385 . S
C733 C732 1.374 . S
C734 C731 1.499 . S
C734 C735 1.373 . S
C734 C736 1.389 . S
C735 H714 0.950 . S
C735 C734 1.373 . S
C735 C751 1.377 . S
C736 C734 1.389 . S
C736 C737 1.524 . S
C736 C750 1.377 . S
C737 C736 1.524 . S
C737 C738 1.397 . S
C737 C742 1.363 . S
C738 H715 0.950 . S
C738 C737 1.397 . S
C738 C739 1.334 . S
C739 H716 0.950 . S
C739 C738 1.334 . S
C739 C740 1.287 . S
C740 C739 1.287 . S
C740 C741 1.524 . S
C740 H759 0.913 . S
C741 H717 0.950 . S
C741 C740 1.524 . S
C741 C742 1.415 . S
C742 H718 0.950 . S
C742 C737 1.363 . S
C742 C741 1.415 . S
C743 H719 0.951 . S
C743 C744 1.366 . S
C743 C745 1.388 . S
C744 C743 1.366 . S
C744 C748 1.385 . S
C745 H720 0.951 . S
C745 C743 1.388 . S
C745 C746 1.366 . S
C746 C745 1.366 . S
C746 C747 1.414 . S
C746 C749 1.499 . S
C747 H721 0.950 . S
C747 C746 1.414 . S
C747 C748 1.374 . S
C748 H722 0.950 . S
C748 C744 1.385 . S
C748 C747 1.374 . S
C749 C746 1.499 . S
C749 C750 1.373 . S
C749 C751 1.389 . S
C750 H723 0.950 . S
C750 C736 1.377 . S
C750 C749 1.373 . S
C751 C735 1.377 . S
C751 C749 1.389 . S
C751 C752 1.524 . S
C752 C751 1.524 . S
C752 C753 1.397 . S
C752 C757 1.363 . S
C753 H724 0.950 . S
C753 C752 1.397 . S
C753 C754 1.334 . S
C754 H725 0.950 . S
C754 C753 1.334 . S
C754 C755 1.287 . S
C755 C754 1.287 . S
C755 C756 1.524 . S
C755 H758 0.999 . S
C756 H726 0.950 . S
C756 C755 1.524 . S
C756 C757 1.415 . S
C757 H727 0.950 . S
C757 C752 1.363 . S
C757 C756 1.415 . S
H758 C755 0.999 . S
H759 C740 0.913 . S
H760 C778 0.951 . S
H761 C780 0.951 . S
H762 C782 0.950 . S
H763 C783 0.950 . S
H764 C785 0.950 . S
H765 C788 0.950 . S
H766 C789 0.950 . S
H767 C791 0.950 . S
H768 C792 0.950 . S
H769 C793 0.951 . S
H770 C795 0.951 . S
H771 C797 0.950 . S
H772 C798 0.950 . S
H773 C800 0.950 . S
H774 C803 0.950 . S
H775 C804 0.950 . S
H776 C806 0.950 . S
H777 C807 0.950 . S
C778 H760 0.951 . S
C778 C779 1.366 . S
C778 C780 1.388 . S
C779 C778 1.366 . S
C779 C783 1.385 . S
C780 H761 0.951 . S
C780 C778 1.388 . S
C780 C781 1.366 . S
C781 C780 1.366 . S
C781 C782 1.414 . S
C781 C784 1.499 . S
C782 H762 0.950 . S
C782 C781 1.414 . S
C782 C783 1.374 . S
C783 H763 0.950 . S
C783 C779 1.385 . S
C783 C782 1.374 . S
C784 C781 1.499 . S
C784 C785 1.373 . S
C784 C786 1.389 . S
C785 H764 0.950 . S
C785 C784 1.373 . S
C785 C801 1.377 . S
C786 C784 1.389 . S
C786 C787 1.524 . S
C786 C800 1.377 . S
C787 C786 1.524 . S
C787 C788 1.397 . S
C787 C792 1.363 . S
C788 H765 0.950 . S
C788 C787 1.397 . S
C788 C789 1.334 . S
C789 H766 0.950 . S
C789 C788 1.334 . S
C789 C790 1.287 . S
C790 C789 1.287 . S
C790 C791 1.524 . S
C790 H809 0.913 . S
C791 H767 0.950 . S
C791 C790 1.524 . S
C791 C792 1.415 . S
C792 H768 0.950 . S
C792 C787 1.363 . S
C792 C791 1.415 . S
C793 H769 0.951 . S
C793 C794 1.366 . S
C793 C795 1.388 . S
C794 C793 1.366 . S
C794 C798 1.385 . S
C795 H770 0.951 . S
C795 C793 1.388 . S
C795 C796 1.366 . S
C796 C795 1.366 . S
C796 C797 1.414 . S
C796 C799 1.499 . S
C797 H771 0.950 . S
C797 C796 1.414 . S
C797 C798 1.374 . S
C798 H772 0.950 . S
C798 C794 1.385 . S
C798 C797 1.374 . S
C799 C796 1.499 . S
C799 C800 1.373 . S
C799 C801 1.389 . S
C800 H773 0.950 . S
C800 C786 1.377 . S
C800 C799 1.373 . S
C801 C785 1.377 . S
C801 C799 1.389 . S
C801 C802 1.524 . S
C802 C801 1.524 . S
C802 C803 1.397 . S
C802 C807 1.363 . S
C803 H774 0.950 . S
C803 C802 1.397 . S
C803 C804 1.334 . S
C804 H775 0.950 . S
C804 C803 1.334 . S
C804 C805 1.287 . S
C805 C804 1.287 . S
C805 C806 1.524 . S
C805 H808 0.999 . S
C806 H776 0.950 . S
C806 C805 1.524 . S
C806 C807 1.415 . S
C807 H777 0.950 . S
C807 C802 1.363 . S
C807 C806 1.415 . S
H808 C805 0.999 . S
H809 C790 0.913 . S
H810 C828 0.951 . S
H811 C830 0.951 . S
H812 C832 0.950 . S
H813 C833 0.950 . S
H814 C835 0.950 . S
H815 C838 0.950 . S
H816 C839 0.950 . S
H817 C841 0.950 . S
H818 C842 0.950 . S
H819 C843 0.951 . S
H820 C845 0.951 . S
H821 C847 0.950 . S
H822 C848 0.950 . S
H823 C850 0.950 . S
H824 C853 0.950 . S
H825 C854 0.950 . S
H826 C856 0.950 . S
H827 C857 0.950 . S
C828 H810 0.951 . S
C828 C829 1.366 . S
C828 C830 1.388 . S
C829 C828 1.366 . S
C829 C833 1.385 . S
C830 H811 0.951 . S
C830 C828 1.388 . S
C830 C831 1.366 . S
C831 C830 1.366 . S
C831 C832 1.414 . S
C831 C834 1.499 . S
C832 H812 0.950 . S
C832 C831 1.414 . S
C832 C833 1.374 . S
C833 H813 0.950 . S
C833 C829 1.385 . S
C833 C832 1.374 . S
C834 C831 1.499 . S
C834 C835 1.373 . S
C834 C836 1.389 . S
C835 H814 0.950 . S
C835 C834 1.373 . S
C835 C851 1.377 . S
C836 C834 1.389 . S
C836 C837 1.524 . S
C836 C850 1.377 . S
C837 C836 1.524 . S
C837 C838 1.397 . S
C837 C842 1.363 . S
C838 H815 0.950 . S
C838 C837 1.397 . S
C838 C839 1.334 . S
C839 H816 0.950 . S
C839 C838 1.334 . S
C839 C840 1.287 . S
C840 C839 1.287 . S
C840 C841 1.524 . S
C840 H859 0.913 . S
C841 H817 0.950 . S
C841 C840 1.524 . S
C841 C842 1.415 . S
C842 H818 0.950 . S
C842 C837 1.363 . S
C842 C841 1.415 . S
C843 H819 0.951 . S
C843 C844 1.366 . S
C843 C845 1.388 . S
C844 C843 1.366 . S
C844 C848 1.385 . S
C845 H820 0.951 . S
C845 C843 1.388 . S
C845 C846 1.366 . S
C846 C845 1.366 . S
C846 C847 1.414 . S
C846 C849 1.499 . S
C847 H821 0.950 . S
C847 C846 1.414 . S
C847 C848 1.374 . S
C848 H822 0.950 . S
C848 C844 1.385 . S
C848 C847 1.374 . S
C849 C846 1.499 . S
C849 C850 1.373 . S
C849 C851 1.389 . S
C850 H823 0.950 . S
C850 C836 1.377 . S
C850 C849 1.373 . S
C851 C835 1.377 . S
C851 C849 1.389 . S
C851 C852 1.524 . S
C852 C851 1.524 . S
C852 C853 1.397 . S
C852 C857 1.363 . S
C853 H824 0.950 . S
C853 C852 1.397 . S
C853 C854 1.334 . S
C854 H825 0.950 . S
C854 C853 1.334 . S
C854 C855 1.287 . S
C855 C854 1.287 . S
C855 C856 1.524 . S
C855 H858 0.999 . S
C856 H826 0.950 . S
C856 C855 1.524 . S
C856 C857 1.415 . S
C857 H827 0.950 . S
C857 C852 1.363 . S
C857 C856 1.415 . S
H858 C855 0.999 . S
H859 C840 0.913 . S
H860 C878 0.951 . S
H861 C880 0.951 . S
H862 C882 0.950 . S
H863 C883 0.950 . S
H864 C885 0.950 . S
H865 C888 0.950 . S
H866 C889 0.950 . S
H867 C891 0.950 . S
H868 C892 0.950 . S
H869 C893 0.951 . S
H870 C895 0.951 . S
H871 C897 0.950 . S
H872 C898 0.950 . S
H873 C900 0.950 . S
H874 C903 0.950 . S
H875 C904 0.950 . S
H876 C906 0.950 . S
H877 C907 0.950 . S
C878 H860 0.951 . S
C878 C879 1.366 . S
C878 C880 1.388 . S
C879 C878 1.366 . S
C879 C883 1.385 . S
C880 H861 0.951 . S
C880 C878 1.388 . S
C880 C881 1.366 . S
C881 C880 1.366 . S
C881 C882 1.414 . S
C881 C884 1.499 . S
C882 H862 0.950 . S
C882 C881 1.414 . S
C882 C883 1.374 . S
C883 H863 0.950 . S
C883 C879 1.385 . S
C883 C882 1.374 . S
C884 C881 1.499 . S
C884 C885 1.373 . S
C884 C886 1.389 . S
C885 H864 0.950 . S
C885 C884 1.373 . S
C885 C901 1.377 . S
C886 C884 1.389 . S
C886 C887 1.524 . S
C886 C900 1.377 . S
C887 C886 1.524 . S
C887 C888 1.397 . S
C887 C892 1.363 . S
C888 H865 0.950 . S
C888 C887 1.397 . S
C888 C889 1.334 . S
C889 H866 0.950 . S
C889 C888 1.334 . S
C889 C890 1.287 . S
C890 C889 1.287 . S
C890 C891 1.524 . S
C890 H909 0.913 . S
C891 H867 0.950 . S
C891 C890 1.524 . S
C891 C892 1.415 . S
C892 H868 0.950 . S
C892 C887 1.363 . S
C892 C891 1.415 . S
C893 H869 0.951 . S
C893 C894 1.366 . S
C893 C895 1.368 1_545 S
C894 C893 1.366 . S
C894 C898 1.385 . S
C895 H870 0.951 . S
C895 C893 1.368 1_565 S
C895 C896 1.386 . S
C896 C895 1.386 . S
C896 C897 1.414 . S
C896 C899 1.499 . S
C897 H871 0.950 . S
C897 C896 1.414 . S
C897 C898 1.374 1_565 S
C898 H872 0.950 . S
C898 C894 1.385 . S
C898 C897 1.374 1_545 S
C899 C896 1.499 . S
C899 C900 1.373 . S
C899 C901 1.389 . S
C900 H873 0.950 . S
C900 C886 1.377 . S
C900 C899 1.373 . S
C901 C885 1.377 . S
C901 C899 1.389 . S
C901 C902 1.524 . S
C902 C901 1.524 . S
C902 C903 1.397 . S
C902 C907 1.363 . S
C903 H874 0.950 . S
C903 C902 1.397 . S
C903 C904 1.334 . S
C904 H875 0.950 . S
C904 C903 1.334 . S
C904 C905 1.287 . S
C905 C904 1.287 . S
C905 C906 1.524 . S
C905 H908 0.999 . S
C906 H876 0.950 . S
C906 C905 1.524 . S
C906 C907 1.415 . S
C907 H877 0.950 . S
C907 C902 1.363 . S
C907 C906 1.415 . S
H908 C905 0.999 . S
H909 C890 0.913 . S
H910 C928 0.951 . S
H911 C930 0.951 . S
H912 C932 0.950 . S
H913 C933 0.950 . S
H914 C935 0.950 . S
H915 C938 0.950 . S
H916 C939 0.950 . S
H917 C941 0.950 . S
H918 C942 0.950 . S
H919 C943 0.951 . S
H920 C945 0.951 . S
H921 C947 0.950 . S
H922 C948 0.950 . S
H923 C950 0.950 . S
H924 C953 0.950 . S
H925 C954 0.950 . S
H926 C956 0.950 . S
H927 C957 0.950 . S
C928 H910 0.951 . S
C928 C929 1.366 . S
C928 C930 1.388 . S
C929 C928 1.366 . S
C929 C933 1.385 . S
C930 H911 0.951 . S
C930 C928 1.388 . S
C930 C931 1.366 . S
C931 C930 1.366 . S
C931 C932 1.414 . S
C931 C934 1.499 . S
C932 H912 0.950 . S
C932 C931 1.414 . S
C932 C933 1.374 . S
C933 H913 0.950 . S
C933 C929 1.385 . S
C933 C932 1.374 . S
C934 C931 1.499 . S
C934 C935 1.373 . S
C934 C936 1.389 . S
C935 H914 0.950 . S
C935 C934 1.373 . S
C935 C951 1.377 . S
C936 C934 1.389 . S
C936 C937 1.524 . S
C936 C950 1.377 . S
C937 C936 1.524 . S
C937 C938 1.397 . S
C937 C942 1.363 . S
C938 H915 0.950 . S
C938 C937 1.397 . S
C938 C939 1.334 . S
C939 H916 0.950 . S
C939 C938 1.334 . S
C939 C940 1.287 . S
C940 C939 1.287 . S
C940 C941 1.524 . S
C940 H959 0.913 . S
C941 H917 0.950 . S
C941 C940 1.524 . S
C941 C942 1.415 . S
C942 H918 0.950 . S
C942 C937 1.363 . S
C942 C941 1.415 . S
C943 H919 0.951 . S
C943 C944 1.366 . S
C943 C945 1.388 . S
C944 C943 1.366 . S
C944 C948 1.385 . S
C945 H920 0.951 . S
C945 C943 1.388 . S
C945 C946 1.366 . S
C946 C945 1.366 . S
C946 C947 1.414 . S
C946 C949 1.499 . S
C947 H921 0.950 . S
C947 C946 1.414 . S
C947 C948 1.374 . S
C948 H922 0.950 . S
C948 C944 1.385 . S
C948 C947 1.374 . S
C949 C946 1.499 . S
C949 C950 1.373 . S
C949 C951 1.389 . S
C950 H923 0.950 . S
C950 C936 1.377 . S
C950 C949 1.373 . S
C951 C935 1.377 . S
C951 C949 1.389 . S
C951 C952 1.524 . S
C952 C951 1.524 . S
C952 C953 1.397 . S
C952 C957 1.363 . S
C953 H924 0.950 . S
C953 C952 1.397 . S
C953 C954 1.334 . S
C954 H925 0.950 . S
C954 C953 1.334 . S
C954 C955 1.287 . S
C955 C954 1.287 . S
C955 C956 1.524 . S
C955 H958 0.999 . S
C956 H926 0.950 . S
C956 C955 1.524 . S
C956 C957 1.415 . S
C957 H927 0.950 . S
C957 C952 1.363 . S
C957 C956 1.415 . S
H958 C955 0.999 . S
H959 C940 0.913 . S
H960 C978 0.951 . S
H961 C980 0.951 . S
H962 C982 0.950 . S
H963 C983 0.950 . S
H964 C985 0.950 . S
H965 C988 0.950 . S
H966 C989 0.950 . S
H967 C991 0.950 . S
H968 C992 0.950 . S
H969 C993 0.951 . S
H970 C995 0.951 . S
H971 C997 0.950 . S
H972 C998 0.950 . S
H973 C1000 0.950 . S
H974 C1003 0.950 . S
H975 C1004 0.950 . S
H976 C1006 0.950 . S
H977 C1007 0.950 . S
C978 H960 0.951 . S
C978 C979 1.366 . S
C978 C980 1.388 . S
C979 C978 1.366 . S
C979 C983 1.385 . S
C980 H961 0.951 . S
C980 C978 1.388 . S
C980 C981 1.366 . S
C981 C980 1.366 . S
C981 C982 1.414 . S
C981 C984 1.499 . S
C982 H962 0.950 . S
C982 C981 1.414 . S
C982 C983 1.374 . S
C983 H963 0.950 . S
C983 C979 1.385 . S
C983 C982 1.374 . S
C984 C981 1.499 . S
C984 C985 1.373 . S
C984 C986 1.389 . S
C985 H964 0.950 . S
C985 C984 1.373 . S
C985 C1001 1.377 . S
C986 C984 1.389 . S
C986 C987 1.524 . S
C986 C1000 1.377 . S
C987 C986 1.524 . S
C987 C988 1.397 . S
C987 C992 1.363 . S
C988 H965 0.950 . S
C988 C987 1.397 . S
C988 C989 1.334 . S
C989 H966 0.950 . S
C989 C988 1.334 . S
C989 C990 1.287 . S
C990 C989 1.287 . S
C990 C991 1.524 . S
C990 H1009 0.913 . S
C991 H967 0.950 . S
C991 C990 1.524 . S
C991 C992 1.415 . S
C992 H968 0.950 . S
C992 C987 1.363 . S
C992 C991 1.415 . S
C993 H969 0.951 . S
C993 C994 1.366 . S
C993 C995 1.388 . S
C994 C993 1.366 . S
C994 C998 1.385 . S
C995 H970 0.951 . S
C995 C993 1.388 . S
C995 C996 1.366 . S
C996 C995 1.366 . S
C996 C997 1.414 . S
C996 C999 1.499 . S
C997 H971 0.950 . S
C997 C996 1.414 . S
C997 C998 1.374 . S
C998 H972 0.950 . S
C998 C994 1.385 . S
C998 C997 1.374 . S
C999 C996 1.499 . S
C999 C1000 1.373 . S
C999 C1001 1.389 . S
C1000 H973 0.950 . S
C1000 C986 1.377 . S
C1000 C999 1.373 . S
C1001 C985 1.377 . S
C1001 C999 1.389 . S
C1001 C1002 1.524 . S
C1002 C1001 1.524 . S
C1002 C1003 1.397 . S
C1002 C1007 1.363 . S
C1003 H974 0.950 . S
C1003 C1002 1.397 . S
C1003 C1004 1.334 . S
C1004 H975 0.950 . S
C1004 C1003 1.334 . S
C1004 C1005 1.287 . S
C1005 C1004 1.287 . S
C1005 C1006 1.524 . S
C1005 H1008 0.999 . S
C1006 H976 0.950 . S
C1006 C1005 1.524 . S
C1006 C1007 1.415 . S
C1007 H977 0.950 . S
C1007 C1002 1.363 . S
C1007 C1006 1.415 . S
H1008 C1005 0.999 . S
H1009 C990 0.913 . S
H1010 C1028 0.951 . S
H1011 C1030 0.951 . S
H1012 C1032 0.950 . S
H1013 C1033 0.950 . S
H1014 C1035 0.950 . S
H1015 C1038 0.950 . S
H1016 C1039 0.950 . S
H1017 C1041 0.950 . S
H1018 C1042 0.950 . S
H1019 C1043 0.951 . S
H1020 C1045 0.951 . S
H1021 C1047 0.950 . S
H1022 C1048 0.950 . S
H1023 C1050 0.950 . S
H1024 C1053 0.950 . S
H1025 C1054 0.950 . S
H1026 C1056 0.950 . S
H1027 C1057 0.950 . S
C1028 H1010 0.951 . S
C1028 C1029 1.366 . S
C1028 C1030 1.388 . S
C1029 C1028 1.366 . S
C1029 C1033 1.385 . S
C1030 H1011 0.951 . S
C1030 C1028 1.388 . S
C1030 C1031 1.366 . S
C1031 C1030 1.366 . S
C1031 C1032 1.414 . S
C1031 C1034 1.499 . S
C1032 H1012 0.950 . S
C1032 C1031 1.414 . S
C1032 C1033 1.374 . S
C1033 H1013 0.950 . S
C1033 C1029 1.385 . S
C1033 C1032 1.374 . S
C1034 C1031 1.499 . S
C1034 C1035 1.373 . S
C1034 C1036 1.389 . S
C1035 H1014 0.950 . S
C1035 C1034 1.373 . S
C1035 C1051 1.377 . S
C1036 C1034 1.389 . S
C1036 C1037 1.524 . S
C1036 C1050 1.377 . S
C1037 C1036 1.524 . S
C1037 C1038 1.397 . S
C1037 C1042 1.363 . S
C1038 H1015 0.950 . S
C1038 C1037 1.397 . S
C1038 C1039 1.334 . S
C1039 H1016 0.950 . S
C1039 C1038 1.334 . S
C1039 C1040 1.287 . S
C1040 C1039 1.287 . S
C1040 C1041 1.524 . S
C1040 H1059 0.913 . S
C1041 H1017 0.950 . S
C1041 C1040 1.524 . S
C1041 C1042 1.415 . S
C1042 H1018 0.950 . S
C1042 C1037 1.363 . S
C1042 C1041 1.415 . S
C1043 H1019 0.951 . S
C1043 C1044 1.366 . S
C1043 C1045 1.388 . S
C1044 C1043 1.366 . S
C1044 C1048 1.385 . S
C1045 H1020 0.951 . S
C1045 C1043 1.388 . S
C1045 C1046 1.366 . S
C1046 C1045 1.366 . S
C1046 C1047 1.414 . S
C1046 C1049 1.499 . S
C1047 H1021 0.950 . S
C1047 C1046 1.414 . S
C1047 C1048 1.374 . S
C1048 H1022 0.950 . S
C1048 C1044 1.385 . S
C1048 C1047 1.374 . S
C1049 C1046 1.499 . S
C1049 C1050 1.373 . S
C1049 C1051 1.389 . S
C1050 H1023 0.950 . S
C1050 C1036 1.377 . S
C1050 C1049 1.373 . S
C1051 C1035 1.377 . S
C1051 C1049 1.389 . S
C1051 C1052 1.524 . S
C1052 C1051 1.524 . S
C1052 C1053 1.397 . S
C1052 C1057 1.363 . S
C1053 H1024 0.950 . S
C1053 C1052 1.397 . S
C1053 C1054 1.334 . S
C1054 H1025 0.950 . S
C1054 C1053 1.334 . S
C1054 C1055 1.287 . S
C1055 C1054 1.287 . S
C1055 C1056 1.524 . S
C1055 H1058 0.999 . S
C1056 H1026 0.950 . S
C1056 C1055 1.524 . S
C1056 C1057 1.415 . S
C1057 H1027 0.950 . S
C1057 C1052 1.363 . S
C1057 C1056 1.415 . S
H1058 C1055 0.999 . S
H1059 C1040 0.913 . S
H1060 C1078 0.951 . S
H1061 C1080 0.951 . S
H1062 C1082 0.950 . S
H1063 C1083 0.950 . S
H1064 C1085 0.950 . S
H1065 C1088 0.950 . S
H1066 C1089 0.950 . S
H1067 C1091 0.950 . S
H1068 C1092 0.950 . S
H1069 C1093 0.951 . S
H1070 C1095 0.951 . S
H1071 C1097 0.950 . S
H1072 C1098 0.950 . S
H1073 C1100 0.950 . S
H1074 C1103 0.950 . S
H1075 C1104 0.950 . S
H1076 C1106 0.950 . S
H1077 C1107 0.950 . S
C1078 H1060 0.951 . S
C1078 C1079 1.366 . S
C1078 C1080 1.388 . S
C1079 C1078 1.366 . S
C1079 C1083 1.385 . S
C1080 H1061 0.951 . S
C1080 C1078 1.388 . S
C1080 C1081 1.366 . S
C1081 C1080 1.366 . S
C1081 C1082 1.414 . S
C1081 C1084 1.499 . S
C1082 H1062 0.950 . S
C1082 C1081 1.414 . S
C1082 C1083 1.374 . S
C1083 H1063 0.950 . S
C1083 C1079 1.385 . S
C1083 C1082 1.374 . S
C1084 C1081 1.499 . S
C1084 C1085 1.373 . S
C1084 C1086 1.389 . S
C1085 H1064 0.950 . S
C1085 C1084 1.373 . S
C1085 C1101 1.377 . S
C1086 C1084 1.389 . S
C1086 C1087 1.524 . S
C1086 C1100 1.377 . S
C1087 C1086 1.524 . S
C1087 C1088 1.397 . S
C1087 C1092 1.363 . S
C1088 H1065 0.950 . S
C1088 C1087 1.397 . S
C1088 C1089 1.334 . S
C1089 H1066 0.950 . S
C1089 C1088 1.334 . S
C1089 C1090 1.287 . S
C1090 C1089 1.287 . S
C1090 C1091 1.524 . S
C1090 H1109 0.913 . S
C1091 H1067 0.950 . S
C1091 C1090 1.524 . S
C1091 C1092 1.415 . S
C1092 H1068 0.950 . S
C1092 C1087 1.363 . S
C1092 C1091 1.415 . S
C1093 H1069 0.951 . S
C1093 C1094 1.366 . S
C1093 C1095 1.388 . S
C1094 C1093 1.366 . S
C1094 C1098 1.385 . S
C1095 H1070 0.951 . S
C1095 C1093 1.388 . S
C1095 C1096 1.366 . S
C1096 C1095 1.366 . S
C1096 C1097 1.414 . S
C1096 C1099 1.499 . S
C1097 H1071 0.950 . S
C1097 C1096 1.414 . S
C1097 C1098 1.374 . S
C1098 H1072 0.950 . S
C1098 C1094 1.385 . S
C1098 C1097 1.374 . S
C1099 C1096 1.499 . S
C1099 C1100 1.373 . S
C1099 C1101 1.389 . S
C1100 H1073 0.950 . S
C1100 C1086 1.377 . S
C1100 C1099 1.373 . S
C1101 C1085 1.377 . S
C1101 C1099 1.389 . S
C1101 C1102 1.524 . S
C1102 C1101 1.524 . S
C1102 C1103 1.397 . S
C1102 C1107 1.363 . S
C1103 H1074 0.950 . S
C1103 C1102 1.397 . S
C1103 C1104 1.334 . S
C1104 H1075 0.950 . S
C1104 C1103 1.334 . S
C1104 C1105 1.287 . S
C1105 C1104 1.287 . S
C1105 C1106 1.524 . S
C1105 H1108 0.999 . S
C1106 H1076 0.950 . S
C1106 C1105 1.524 . S
C1106 C1107 1.415 . S
C1107 H1077 0.950 . S
C1107 C1102 1.363 . S
C1107 C1106 1.415 . S
H1108 C1105 0.999 . S
H1109 C1090 0.913 . S
H1110 C1128 0.951 . S
H1111 C1130 0.951 . S
H1112 C1132 0.950 . S
H1113 C1133 0.950 . S
H1114 C1135 0.950 . S
H1115 C1138 0.950 . S
H1116 C1139 0.950 . S
H1117 C1141 0.950 . S
H1118 C1142 0.950 . S
H1119 C1143 0.951 . S
H1120 C1145 0.951 . S
H1121 C1147 0.950 . S
H1122 C1148 0.950 . S
H1123 C1150 0.950 . S
H1124 C1153 0.950 . S
H1125 C1154 0.950 . S
H1126 C1156 0.950 . S
H1127 C1157 0.950 . S
C1128 H1110 0.951 . S
C1128 C1129 1.366 . S
C1128 C1130 1.388 . S
C1129 C1128 1.366 . S
C1129 C1133 1.385 . S
C1130 H1111 0.951 . S
C1130 C1128 1.388 . S
C1130 C1131 1.366 . S
C1131 C1130 1.366 . S
C1131 C1132 1.414 . S
C1131 C1134 1.499 . S
C1132 H1112 0.950 . S
C1132 C1131 1.414 . S
C1132 C1133 1.374 . S
C1133 H1113 0.950 . S
C1133 C1129 1.385 . S
C1133 C1132 1.374 . S
C1134 C1131 1.499 . S
C1134 C1135 1.373 . S
C1134 C1136 1.389 . S
C1135 H1114 0.950 . S
C1135 C1134 1.373 . S
C1135 C1151 1.377 . S
C1136 C1134 1.389 . S
C1136 C1137 1.524 . S
C1136 C1150 1.377 . S
C1137 C1136 1.524 . S
C1137 C1138 1.397 . S
C1137 C1142 1.363 . S
C1138 H1115 0.950 . S
C1138 C1137 1.397 . S
C1138 C1139 1.334 . S
C1139 H1116 0.950 . S
C1139 C1138 1.334 . S
C1139 C1140 1.287 . S
C1140 C1139 1.287 . S
C1140 C1141 1.524 . S
C1140 H1159 0.913 . S
C1141 H1117 0.950 . S
C1141 C1140 1.524 . S
C1141 C1142 1.415 . S
C1142 H1118 0.950 . S
C1142 C1137 1.363 . S
C1142 C1141 1.415 . S
C1143 H1119 0.951 . S
C1143 C1144 1.366 . S
C1143 C1145 1.388 . S
C1144 C1143 1.366 . S
C1144 C1148 1.385 . S
C1145 H1120 0.951 . S
C1145 C1143 1.388 . S
C1145 C1146 1.366 . S
C1146 C1145 1.366 . S
C1146 C1147 1.414 . S
C1146 C1149 1.499 . S
C1147 H1121 0.950 . S
C1147 C1146 1.414 . S
C1147 C1148 1.374 . S
C1148 H1122 0.950 . S
C1148 C1144 1.385 . S
C1148 C1147 1.374 . S
C1149 C1146 1.499 . S
C1149 C1150 1.373 . S
C1149 C1151 1.389 . S
C1150 H1123 0.950 . S
C1150 C1136 1.377 . S
C1150 C1149 1.373 . S
C1151 C1135 1.377 . S
C1151 C1149 1.389 . S
C1151 C1152 1.524 . S
C1152 C1151 1.524 . S
C1152 C1153 1.397 . S
C1152 C1157 1.363 . S
C1153 H1124 0.950 . S
C1153 C1152 1.397 . S
C1153 C1154 1.334 . S
C1154 H1125 0.950 . S
C1154 C1153 1.334 . S
C1154 C1155 1.287 . S
C1155 C1154 1.287 . S
C1155 C1156 1.524 . S
C1155 H1158 0.999 . S
C1156 H1126 0.950 . S
C1156 C1155 1.524 . S
C1156 C1157 1.415 . S
C1157 H1127 0.950 . S
C1157 C1152 1.363 . S
C1157 C1156 1.415 . S
H1158 C1155 0.999 . S
H1159 C1140 0.913 . S
H1160 C1178 0.951 . S
H1161 C1180 0.951 . S
H1162 C1182 0.950 . S
H1163 C1183 0.950 . S
H1164 C1185 0.950 . S
H1165 C1188 0.950 . S
H1166 C1189 0.950 . S
H1167 C1191 0.950 . S
H1168 C1192 0.950 . S
H1169 C1193 0.951 . S
H1170 C1195 0.951 . S
H1171 C1197 0.950 . S
H1172 C1198 0.950 . S
H1173 C1200 0.950 . S
H1174 C1203 0.950 . S
H1175 C1204 0.950 . S
H1176 C1206 0.950 . S
H1177 C1207 0.950 . S
C1178 H1160 0.951 . S
C1178 C1179 1.366 . S
C1178 C1180 1.388 . S
C1179 C1178 1.366 . S
C1179 C1183 1.385 . S
C1180 H1161 0.951 . S
C1180 C1178 1.388 . S
C1180 C1181 1.366 . S
C1181 C1180 1.366 . S
C1181 C1182 1.414 . S
C1181 C1184 1.499 . S
C1182 H1162 0.950 . S
C1182 C1181 1.414 . S
C1182 C1183 1.374 . S
C1183 H1163 0.950 . S
C1183 C1179 1.385 . S
C1183 C1182 1.374 . S
C1184 C1181 1.499 . S
C1184 C1185 1.373 . S
C1184 C1186 1.389 . S
C1185 H1164 0.950 . S
C1185 C1184 1.373 . S
C1185 C1201 1.377 . S
C1186 C1184 1.389 . S
C1186 C1187 1.524 . S
C1186 C1200 1.377 . S
C1187 C1186 1.524 . S
C1187 C1188 1.397 . S
C1187 C1192 1.363 . S
C1188 H1165 0.950 . S
C1188 C1187 1.397 . S
C1188 C1189 1.334 . S
C1189 H1166 0.950 . S
C1189 C1188 1.334 . S
C1189 C1190 1.287 . S
C1190 C1189 1.287 . S
C1190 C1191 1.524 . S
C1190 H1209 0.913 . S
C1191 H1167 0.950 . S
C1191 C1190 1.524 . S
C1191 C1192 1.415 . S
C1192 H1168 0.950 . S
C1192 C1187 1.363 . S
C1192 C1191 1.415 . S
C1193 H1169 0.951 . S
C1193 C1194 1.366 . S
C1193 C1195 1.388 . S
C1194 C1193 1.366 . S
C1194 C1198 1.385 . S
C1195 H1170 0.951 . S
C1195 C1193 1.388 . S
C1195 C1196 1.366 . S
C1196 C1195 1.366 . S
C1196 C1197 1.414 . S
C1196 C1199 1.499 . S
C1197 H1171 0.950 . S
C1197 C1196 1.414 . S
C1197 C1198 1.374 . S
C1198 H1172 0.950 . S
C1198 C1194 1.385 . S
C1198 C1197 1.374 . S
C1199 C1196 1.499 . S
C1199 C1200 1.373 . S
C1199 C1201 1.389 . S
C1200 H1173 0.950 . S
C1200 C1186 1.377 . S
C1200 C1199 1.373 . S
C1201 C1185 1.377 . S
C1201 C1199 1.389 . S
C1201 C1202 1.524 . S
C1202 C1201 1.524 . S
C1202 C1203 1.397 . S
C1202 C1207 1.363 . S
C1203 H1174 0.950 . S
C1203 C1202 1.397 . S
C1203 C1204 1.334 . S
C1204 H1175 0.950 . S
C1204 C1203 1.334 . S
C1204 C1205 1.287 . S
C1205 C1204 1.287 . S
C1205 C1206 1.524 . S
C1205 H1208 0.999 . S
C1206 H1176 0.950 . S
C1206 C1205 1.524 . S
C1206 C1207 1.415 . S
C1207 H1177 0.950 . S
C1207 C1202 1.363 . S
C1207 C1206 1.415 . S
H1208 C1205 0.999 . S
H1209 C1190 0.913 . S
H1210 C1228 0.951 . S
H1211 C1230 0.951 . S
H1212 C1232 0.950 . S
H1213 C1233 0.950 . S
H1214 C1235 0.950 . S
H1215 C1238 0.950 . S
H1216 C1239 0.950 . S
H1217 C1241 0.950 . S
H1218 C1242 0.950 . S
H1219 C1243 0.951 . S
H1220 C1245 0.951 . S
H1221 C1247 0.950 . S
H1222 C1248 0.950 . S
H1223 C1250 0.950 . S
H1224 C1253 0.950 . S
H1225 C1254 0.950 . S
H1226 C1256 0.950 . S
H1227 C1257 0.950 . S
C1228 H1210 0.951 . S
C1228 C1229 1.366 . S
C1228 C1230 1.388 . S
C1229 C1228 1.366 . S
C1229 C1233 1.385 . S
C1230 H1211 0.951 . S
C1230 C1228 1.388 . S
C1230 C1231 1.366 . S
C1231 C1230 1.366 . S
C1231 C1232 1.414 . S
C1231 C1234 1.499 . S
C1232 H1212 0.950 . S
C1232 C1231 1.414 . S
C1232 C1233 1.374 . S
C1233 H1213 0.950 . S
C1233 C1229 1.385 . S
C1233 C1232 1.374 . S
C1234 C1231 1.499 . S
C1234 C1235 1.373 . S
C1234 C1236 1.389 . S
C1235 H1214 0.950 . S
C1235 C1234 1.373 . S
C1235 C1251 1.377 . S
C1236 C1234 1.389 . S
C1236 C1237 1.524 . S
C1236 C1250 1.377 . S
C1237 C1236 1.524 . S
C1237 C1238 1.397 . S
C1237 C1242 1.363 . S
C1238 H1215 0.950 . S
C1238 C1237 1.397 . S
C1238 C1239 1.334 . S
C1239 H1216 0.950 . S
C1239 C1238 1.334 . S
C1239 C1240 1.287 . S
C1240 C1239 1.287 . S
C1240 C1241 1.524 . S
C1240 H1259 0.913 . S
C1241 H1217 0.950 . S
C1241 C1240 1.524 . S
C1241 C1242 1.415 . S
C1242 H1218 0.950 . S
C1242 C1237 1.363 . S
C1242 C1241 1.415 . S
C1243 H1219 0.951 . S
C1243 C1244 1.366 . S
C1243 C1245 1.388 . S
C1244 C1243 1.366 . S
C1244 C1248 1.385 . S
C1245 H1220 0.951 . S
C1245 C1243 1.388 . S
C1245 C1246 1.366 . S
C1246 C1245 1.366 . S
C1246 C1247 1.414 . S
C1246 C1249 1.499 . S
C1247 H1221 0.950 . S
C1247 C1246 1.414 . S
C1247 C1248 1.374 . S
C1248 H1222 0.950 . S
C1248 C1244 1.385 . S
C1248 C1247 1.374 . S
C1249 C1246 1.499 . S
C1249 C1250 1.373 . S
C1249 C1251 1.389 . S
C1250 H1223 0.950 . S
C1250 C1236 1.377 . S
C1250 C1249 1.373 . S
C1251 C1235 1.377 . S
C1251 C1249 1.389 . S
C1251 C1252 1.524 . S
C1252 C1251 1.524 . S
C1252 C1253 1.397 . S
C1252 C1257 1.363 . S
C1253 H1224 0.950 . S
C1253 C1252 1.397 . S
C1253 C1254 1.334 . S
C1254 H1225 0.950 . S
C1254 C1253 1.334 . S
C1254 C1255 1.287 . S
C1255 C1254 1.287 . S
C1255 C1256 1.524 . S
C1255 H1258 0.999 . S
C1256 H1226 0.950 . S
C1256 C1255 1.524 . S
C1256 C1257 1.415 . S
C1257 H1227 0.950 . S
C1257 C1252 1.363 . S
C1257 C1256 1.415 . S
H1258 C1255 0.999 . S
H1259 C1240 0.913 . S
H1260 C1278 0.951 . S
H1261 C1280 0.951 . S
H1262 C1282 0.950 . S
H1263 C1283 0.950 . S
H1264 C1285 0.950 . S
H1265 C1288 0.950 . S
H1266 C1289 0.950 . S
H1267 C1291 0.950 . S
H1268 C1292 0.950 . S
H1269 C1293 0.951 . S
H1270 C1295 0.951 . S
H1271 C1297 0.950 . S
H1272 C1298 0.950 . S
H1273 C1300 0.950 . S
H1274 C1303 0.950 . S
H1275 C1304 0.950 . S
H1276 C1306 0.950 . S
H1277 C1307 0.950 . S
C1278 H1260 0.951 . S
C1278 C1279 1.366 . S
C1278 C1280 1.388 . S
C1279 C1278 1.366 . S
C1279 C1283 1.385 . S
C1280 H1261 0.951 . S
C1280 C1278 1.388 . S
C1280 C1281 1.366 . S
C1281 C1280 1.366 . S
C1281 C1282 1.414 . S
C1281 C1284 1.499 . S
C1282 H1262 0.950 . S
C1282 C1281 1.414 . S
C1282 C1283 1.374 . S
C1283 H1263 0.950 . S
C1283 C1279 1.385 . S
C1283 C1282 1.374 . S
C1284 C1281 1.499 . S
C1284 C1285 1.373 . S
C1284 C1286 1.389 . S
C1285 H1264 0.950 . S
C1285 C1284 1.373 . S
C1285 C1301 1.377 . S
C1286 C1284 1.389 . S
C1286 C1287 1.524 . S
C1286 C1300 1.377 . S
C1287 C1286 1.524 . S
C1287 C1288 1.397 . S
C1287 C1292 1.363 . S
C1288 H1265 0.950 . S
C1288 C1287 1.397 . S
C1288 C1289 1.334 . S
C1289 H1266 0.950 . S
C1289 C1288 1.334 . S
C1289 C1290 1.287 . S
C1290 C1289 1.287 . S
C1290 C1291 1.524 . S
C1290 H1309 0.913 . S
C1291 H1267 0.950 . S
C1291 C1290 1.524 . S
C1291 C1292 1.415 . S
C1292 H1268 0.950 . S
C1292 C1287 1.363 . S
C1292 C1291 1.415 . S
C1293 H1269 0.951 . S
C1293 C1294 1.366 . S
C1293 C1295 1.388 . S
C1294 C1293 1.366 . S
C1294 C1298 1.385 . S
C1295 H1270 0.951 . S
C1295 C1293 1.388 . S
C1295 C1296 1.366 . S
C1296 C1295 1.366 . S
C1296 C1297 1.414 . S
C1296 C1299 1.499 . S
C1297 H1271 0.950 . S
C1297 C1296 1.414 . S
C1297 C1298 1.374 . S
C1298 H1272 0.950 . S
C1298 C1294 1.385 . S
C1298 C1297 1.374 . S
C1299 C1296 1.499 . S
C1299 C1300 1.373 . S
C1299 C1301 1.389 . S
C1300 H1273 0.950 . S
C1300 C1286 1.377 . S
C1300 C1299 1.373 . S
C1301 C1285 1.377 . S
C1301 C1299 1.389 . S
C1301 C1302 1.524 . S
C1302 C1301 1.524 . S
C1302 C1303 1.397 . S
C1302 C1307 1.363 . S
C1303 H1274 0.950 . S
C1303 C1302 1.397 . S
C1303 C1304 1.334 . S
C1304 H1275 0.950 . S
C1304 C1303 1.334 . S
C1304 C1305 1.287 . S
C1305 C1304 1.287 . S
C1305 C1306 1.524 . S
C1305 H1308 0.999 . S
C1306 H1276 0.950 . S
C1306 C1305 1.524 . S
C1306 C1307 1.415 . S
C1307 H1277 0.950 . S
C1307 C1302 1.363 . S
C1307 C1306 1.415 . S
H1308 C1305 0.999 . S
H1309 C1290 0.913 . S
H1310 C1328 0.951 . S
H1311 C1330 0.951 . S
H1312 C1332 0.950 . S
H1313 C1333 0.950 . S
H1314 C1335 0.950 . S
H1315 C1338 0.950 . S
H1316 C1339 0.950 . S
H1317 C1341 0.950 . S
H1318 C1342 0.950 . S
H1319 C1343 0.951 . S
H1320 C1345 0.951 . S
H1321 C1347 0.950 . S
H1322 C1348 0.950 . S
H1323 C1350 0.950 . S
H1324 C1353 0.950 . S
H1325 C1354 0.950 . S
H1326 C1356 0.950 . S
H1327 C1357 0.950 . S
C1328 H1310 0.951 . S
C1328 C1329 1.366 . S
C1328 C1330 1.388 . S
C1329 C1328 1.366 . S
C1329 C1333 1.385 . S
C1330 H1311 0.951 . S
C1330 C1328 1.388 . S
C1330 C1331 1.366 . S
C1331 C1330 1.366 . S
C1331 C1332 1.414 . S
C1331 C1334 1.499 . S
C1332 H1312 0.950 . S
C1332 C1331 1.414 . S
C1332 C1333 1.374 . S
C1333 H1313 0.950 . S
C1333 C1329 1.385 . S
C1333 C1332 1.374 . S
C1334 C1331 1.499 . S
C1334 C1335 1.373 . S
C1334 C1336 1.389 . S
C1335 H1314 0.950 . S
C1335 C1334 1.373 . S
C1335 C1351 1.377 . S
C1336 C1334 1.389 . S
C1336 C1337 1.524 . S
C1336 C1350 1.377 . S
C1337 C1336 1.524 . S
C1337 C1338 1.397 . S
C1337 C1342 1.363 . S
C1338 H1315 0.950 . S
C1338 C1337 1.397 . S
C1338 C1339 1.334 . S
C1339 H1316 0.950 . S
C1339 C1338 1.334 . S
C1339 C1340 1.287 . S
C1340 C1339 1.287 . S
C1340 C1341 1.524 . S
C1340 H1359 0.913 . S
C1341 H1317 0.950 . S
C1341 C1340 1.524 . S
C1341 C1342 1.415 . S
C1342 H1318 0.950 . S
C1342 C1337 1.363 . S
C1342 C1341 1.415 . S
C1343 H1319 0.951 . S
C1343 C1344 1.366 . S
C1343 C1345 1.388 . S
C1344 C1343 1.366 . S
C1344 C1348 1.385 . S
C1345 H1320 0.951 . S
C1345 C1343 1.388 . S
C1345 C1346 1.366 . S
C1346 C1345 1.366 . S
C1346 C1347 1.414 . S
C1346 C1349 1.499 . S
C1347 H1321 0.950 . S
C1347 C1346 1.414 . S
C1347 C1348 1.374 . S
C1348 H1322 0.950 . S
C1348 C1344 1.385 . S
C1348 C1347 1.374 . S
C1349 C1346 1.499 . S
C1349 C1350 1.373 . S
C1349 C1351 1.389 . S
C1350 H1323 0.950 . S
C1350 C1336 1.377 . S
C1350 C1349 1.373 . S
C1351 C1335 1.377 . S
C1351 C1349 1.389 . S
C1351 C1352 1.524 . S
C1352 C1351 1.524 . S
C1352 C1353 1.397 . S
C1352 C1357 1.363 . S
C1353 H1324 0.950 . S
C1353 C1352 1.397 . S
C1353 C1354 1.334 . S
C1354 H1325 0.950 . S
C1354 C1353 1.334 . S
C1354 C1355 1.287 . S
C1355 C1354 1.287 . S
C1355 C1356 1.524 . S
C1355 H1358 0.999 . S
C1356 H1326 0.950 . S
C1356 C1355 1.524 . S
C1356 C1357 1.415 . S
C1357 H1327 0.950 . S
C1357 C1352 1.363 . S
C1357 C1356 1.415 . S
H1358 C1355 0.999 . S
H1359 C1340 0.913 . S
H1360 C1378 0.951 . S
H1361 C1380 0.951 . S
H1362 C1382 0.950 . S
H1363 C1383 0.950 . S
H1364 C1385 0.950 . S
H1365 C1388 0.950 . S
H1366 C1389 0.950 . S
H1367 C1391 0.950 . S
H1368 C1392 0.950 . S
H1369 C1393 0.951 . S
H1370 C1395 0.951 . S
H1371 C1397 0.950 . S
H1372 C1398 0.950 . S
H1373 C1400 0.950 . S
H1374 C1403 0.950 . S
H1375 C1404 0.950 . S
H1376 C1406 0.950 . S
H1377 C1407 0.950 . S
C1378 H1360 0.951 . S
C1378 C1379 1.366 . S
C1378 C1380 1.388 . S
C1379 C1378 1.366 . S
C1379 C1383 1.385 . S
C1380 H1361 0.951 . S
C1380 C1378 1.388 . S
C1380 C1381 1.366 . S
C1381 C1380 1.366 . S
C1381 C1382 1.414 . S
C1381 C1384 1.499 . S
C1382 H1362 0.950 . S
C1382 C1381 1.414 . S
C1382 C1383 1.374 . S
C1383 H1363 0.950 . S
C1383 C1379 1.385 . S
C1383 C1382 1.374 . S
C1384 C1381 1.499 . S
C1384 C1385 1.373 . S
C1384 C1386 1.389 . S
C1385 H1364 0.950 . S
C1385 C1384 1.373 . S
C1385 C1401 1.377 . S
C1386 C1384 1.389 . S
C1386 C1387 1.524 . S
C1386 C1400 1.377 . S
C1387 C1386 1.524 . S
C1387 C1388 1.397 . S
C1387 C1392 1.363 . S
C1388 H1365 0.950 . S
C1388 C1387 1.397 . S
C1388 C1389 1.334 . S
C1389 H1366 0.950 . S
C1389 C1388 1.334 . S
C1389 C1390 1.287 . S
C1390 C1389 1.287 . S
C1390 C1391 1.524 . S
C1390 H1409 0.913 . S
C1391 H1367 0.950 . S
C1391 C1390 1.524 . S
C1391 C1392 1.415 . S
C1392 H1368 0.950 . S
C1392 C1387 1.363 . S
C1392 C1391 1.415 . S
C1393 H1369 0.951 . S
C1393 C1394 1.366 . S
C1393 C1395 1.388 . S
C1394 C1393 1.366 . S
C1394 C1398 1.385 . S
C1395 H1370 0.951 . S
C1395 C1393 1.388 . S
C1395 C1396 1.366 . S
C1396 C1395 1.366 . S
C1396 C1397 1.414 . S
C1396 C1399 1.499 . S
C1397 H1371 0.950 . S
C1397 C1396 1.414 . S
C1397 C1398 1.374 . S
C1398 H1372 0.950 . S
C1398 C1394 1.385 . S
C1398 C1397 1.374 . S
C1399 C1396 1.499 . S
C1399 C1400 1.373 . S
C1399 C1401 1.389 . S
C1400 H1373 0.950 . S
C1400 C1386 1.377 . S
C1400 C1399 1.373 . S
C1401 C1385 1.377 . S
C1401 C1399 1.389 . S
C1401 C1402 1.524 . S
C1402 C1401 1.524 . S
C1402 C1403 1.397 . S
C1402 C1407 1.363 . S
C1403 H1374 0.950 . S
C1403 C1402 1.397 . S
C1403 C1404 1.334 . S
C1404 H1375 0.950 . S
C1404 C1403 1.334 . S
C1404 C1405 1.287 . S
C1405 C1404 1.287 . S
C1405 C1406 1.524 . S
C1405 H1408 0.999 . S
C1406 H1376 0.950 . S
C1406 C1405 1.524 . S
C1406 C1407 1.415 . S
C1407 H1377 0.950 . S
C1407 C1402 1.363 . S
C1407 C1406 1.415 . S
H1408 C1405 0.999 . S
H1409 C1390 0.913 . S
H1410 C1428 0.951 . S
H1411 C1430 0.951 . S
H1412 C1432 0.950 . S
H1413 C1433 0.950 . S
H1414 C1435 0.950 . S
H1415 C1438 0.950 . S
H1416 C1439 0.950 . S
H1417 C1441 0.950 . S
H1418 C1442 0.950 . S
H1419 C1443 0.951 . S
H1420 C1445 0.951 . S
H1421 C1447 0.950 . S
H1422 C1448 0.950 . S
H1423 C1450 0.950 . S
H1424 C1453 0.950 . S
H1425 C1454 0.950 . S
H1426 C1456 0.950 . S
H1427 C1457 0.950 . S
C1428 H1410 0.951 . S
C1428 C1429 1.366 . S
C1428 C1430 1.388 . S
C1429 C1428 1.366 . S
C1429 C1433 1.385 . S
C1430 H1411 0.951 . S
C1430 C1428 1.388 . S
C1430 C1431 1.366 . S
C1431 C1430 1.366 . S
C1431 C1432 1.414 . S
C1431 C1434 1.499 . S
C1432 H1412 0.950 . S
C1432 C1431 1.414 . S
C1432 C1433 1.374 . S
C1433 H1413 0.950 . S
C1433 C1429 1.385 . S
C1433 C1432 1.374 . S
C1434 C1431 1.499 . S
C1434 C1435 1.373 . S
C1434 C1436 1.389 . S
C1435 H1414 0.950 . S
C1435 C1434 1.373 . S
C1435 C1451 1.377 . S
C1436 C1434 1.389 . S
C1436 C1437 1.524 . S
C1436 C1450 1.377 . S
C1437 C1436 1.524 . S
C1437 C1438 1.397 . S
C1437 C1442 1.363 . S
C1438 H1415 0.950 . S
C1438 C1437 1.397 . S
C1438 C1439 1.334 . S
C1439 H1416 0.950 . S
C1439 C1438 1.334 . S
C1439 C1440 1.287 . S
C1440 C1439 1.287 . S
C1440 C1441 1.524 . S
C1440 H1459 0.913 . S
C1441 H1417 0.950 . S
C1441 C1440 1.524 . S
C1441 C1442 1.415 . S
C1442 H1418 0.950 . S
C1442 C1437 1.363 . S
C1442 C1441 1.415 . S
C1443 H1419 0.951 . S
C1443 C1444 1.366 . S
C1443 C1445 1.388 . S
C1444 C1443 1.366 . S
C1444 C1448 1.385 . S
C1445 H1420 0.951 . S
C1445 C1443 1.388 . S
C1445 C1446 1.366 . S
C1446 C1445 1.366 . S
C1446 C1447 1.414 . S
C1446 C1449 1.499 . S
C1447 H1421 0.950 . S
C1447 C1446 1.414 . S
C1447 C1448 1.374 . S
C1448 H1422 0.950 . S
C1448 C1444 1.385 . S
C1448 C1447 1.374 . S
C1449 C1446 1.499 . S
C1449 C1450 1.373 . S
C1449 C1451 1.389 . S
C1450 H1423 0.950 . S
C1450 C1436 1.377 . S
C1450 C1449 1.373 . S
C1451 C1435 1.377 . S
C1451 C1449 1.389 . S
C1451 C1452 1.524 . S
C1452 C1451 1.524 . S
C1452 C1453 1.397 . S
C1452 C1457 1.363 . S
C1453 H1424 0.950 . S
C1453 C1452 1.397 . S
C1453 C1454 1.334 . S
C1454 H1425 0.950 . S
C1454 C1453 1.334 . S
C1454 C1455 1.287 . S
C1455 C1454 1.287 . S
C1455 C1456 1.524 . S
C1455 H1458 0.999 . S
C1456 H1426 0.950 . S
C1456 C1455 1.524 . S
C1456 C1457 1.415 . S
C1457 H1427 0.950 . S
C1457 C1452 1.363 . S
C1457 C1456 1.415 . S
H1458 C1455 0.999 . S
H1459 C1440 0.913 . S
H1460 C1478 0.951 . S
H1461 C1480 0.951 . S
H1462 C1482 0.950 . S
H1463 C1483 0.950 . S
H1464 C1485 0.950 . S
H1465 C1488 0.950 . S
H1466 C1489 0.950 . S
H1467 C1491 0.950 . S
H1468 C1492 0.950 . S
H1469 C1493 0.951 . S
H1470 C1495 0.951 . S
H1471 C1497 0.950 . S
H1472 C1498 0.950 . S
H1473 C1500 0.950 . S
H1474 C1503 0.950 . S
H1475 C1504 0.950 . S
H1476 C1506 0.950 . S
H1477 C1507 0.950 . S
C1478 H1460 0.951 . S
C1478 C1479 1.366 . S
C1478 C1480 1.388 . S
C1479 C1478 1.366 . S
C1479 C1483 1.385 . S
C1480 H1461 0.951 . S
C1480 C1478 1.388 . S
C1480 C1481 1.366 . S
C1481 C1480 1.366 . S
C1481 C1482 1.414 . S
C1481 C1484 1.499 . S
C1482 H1462 0.950 . S
C1482 C1481 1.414 . S
C1482 C1483 1.374 . S
C1483 H1463 0.950 . S
C1483 C1479 1.385 . S
C1483 C1482 1.374 . S
C1484 C1481 1.499 . S
C1484 C1485 1.373 . S
C1484 C1486 1.389 . S
C1485 H1464 0.950 . S
C1485 C1484 1.373 . S
C1485 C1501 1.377 . S
C1486 C1484 1.389 . S
C1486 C1487 1.524 . S
C1486 C1500 1.377 . S
C1487 C1486 1.524 . S
C1487 C1488 1.397 . S
C1487 C1492 1.363 . S
C1488 H1465 0.950 . S
C1488 C1487 1.397 . S
C1488 C1489 1.334 . S
C1489 H1466 0.950 . S
C1489 C1488 1.334 . S
C1489 C1490 1.287 . S
C1490 C1489 1.287 . S
C1490 C1491 1.524 . S
C1490 H1509 0.913 . S
C1491 H1467 0.950 . S
C1491 C1490 1.524 . S
C1491 C1492 1.415 . S
C1492 H1468 0.950 . S
C1492 C1487 1.363 . S
C1492 C1491 1.415 . S
C1493 H1469 0.951 . S
C1493 C1494 1.366 . S
C1493 C1495 1.388 . S
C1494 C1493 1.366 . S
C1494 C1498 1.385 . S
C1495 H1470 0.951 . S
C1495 C1493 1.388 . S
C1495 C1496 1.366 . S
C1496 C1495 1.366 . S
C1496 C1497 1.414 . S
C1496 C1499 1.499 . S
C1497 H1471 0.950 . S
C1497 C1496 1.414 . S
C1497 C1498 1.374 . S
C1498 H1472 0.950 . S
C1498 C1494 1.385 . S
C1498 C1497 1.374 . S
C1499 C1496 1.499 . S
C1499 C1500 1.373 . S
C1499 C1501 1.389 . S
C1500 H1473 0.950 . S
C1500 C1486 1.377 . S
C1500 C1499 1.373 . S
C1501 C1485 1.377 . S
C1501 C1499 1.389 . S
C1501 C1502 1.524 . S
C1502 C1501 1.524 . S
C1502 C1503 1.397 . S
C1502 C1507 1.363 . S
C1503 H1474 0.950 . S
C1503 C1502 1.397 . S
C1503 C1504 1.334 . S
C1504 H1475 0.950 . S
C1504 C1503 1.334 . S
C1504 C1505 1.287 . S
C1505 C1504 1.287 . S
C1505 C1506 1.524 . S
C1505 H1508 0.999 . S
C1506 H1476 0.950 . S
C1506 C1505 1.524 . S
C1506 C1507 1.415 . S
C1507 H1477 0.950 . S
C1507 C1502 1.363 . S
C1507 C1506 1.415 . S
H1508 C1505 0.999 . S
H1509 C1490 0.913 . S
H1510 C1528 0.951 . S
H1511 C1530 0.951 . S
H1512 C1532 0.950 . S
H1513 C1533 0.950 . S
H1514 C1535 0.950 . S
H1515 C1538 0.950 . S
H1516 C1539 0.950 . S
H1517 C1541 0.950 . S
H1518 C1542 0.950 . S
H1519 C1543 0.951 . S
H1520 C1545 0.951 . S
H1521 C1547 0.950 . S
H1522 C1548 0.950 . S
H1523 C1550 0.950 . S
H1524 C1553 0.950 . S
H1525 C1554 0.950 . S
H1526 C1556 0.950 . S
H1527 C1557 0.950 . S
C1528 H1510 0.951 . S
C1528 C1529 1.366 . S
C1528 C1530 1.388 . S
C1529 C1528 1.366 . S
C1529 C1533 1.385 . S
C1530 H1511 0.951 . S
C1530 C1528 1.388 . S
C1530 C1531 1.366 . S
C1531 C1530 1.366 . S
C1531 C1532 1.414 . S
C1531 C1534 1.499 . S
C1532 H1512 0.950 . S
C1532 C1531 1.414 . S
C1532 C1533 1.374 . S
C1533 H1513 0.950 . S
C1533 C1529 1.385 . S
C1533 C1532 1.374 . S
C1534 C1531 1.499 . S
C1534 C1535 1.373 . S
C1534 C1536 1.389 . S
C1535 H1514 0.950 . S
C1535 C1534 1.373 . S
C1535 C1551 1.377 . S
C1536 C1534 1.389 . S
C1536 C1537 1.524 . S
C1536 C1550 1.377 . S
C1537 C1536 1.524 . S
C1537 C1538 1.397 . S
C1537 C1542 1.363 . S
C1538 H1515 0.950 . S
C1538 C1537 1.397 . S
C1538 C1539 1.334 . S
C1539 H1516 0.950 . S
C1539 C1538 1.334 . S
C1539 C1540 1.287 . S
C1540 C1539 1.287 . S
C1540 C1541 1.524 . S
C1540 H1559 0.913 . S
C1541 H1517 0.950 . S
C1541 C1540 1.524 . S
C1541 C1542 1.415 . S
C1542 H1518 0.950 . S
C1542 C1537 1.363 . S
C1542 C1541 1.415 . S
C1543 H1519 0.951 . S
C1543 C1544 1.366 . S
C1543 C1545 1.388 . S
C1544 C1543 1.366 . S
C1544 C1548 1.385 . S
C1545 H1520 0.951 . S
C1545 C1543 1.388 . S
C1545 C1546 1.366 . S
C1546 C1545 1.366 . S
C1546 C1547 1.414 . S
C1546 C1549 1.499 . S
C1547 H1521 0.950 . S
C1547 C1546 1.414 . S
C1547 C1548 1.374 . S
C1548 H1522 0.950 . S
C1548 C1544 1.385 . S
C1548 C1547 1.374 . S
C1549 C1546 1.499 . S
C1549 C1550 1.373 . S
C1549 C1551 1.389 . S
C1550 H1523 0.950 . S
C1550 C1536 1.377 . S
C1550 C1549 1.373 . S
C1551 C1535 1.377 . S
C1551 C1549 1.389 . S
C1551 C1552 1.524 . S
C1552 C1551 1.524 . S
C1552 C1553 1.397 . S
C1552 C1557 1.363 . S
C1553 H1524 0.950 . S
C1553 C1552 1.397 . S
C1553 C1554 1.334 . S
C1554 H1525 0.950 . S
C1554 C1553 1.334 . S
C1554 C1555 1.287 . S
C1555 C1554 1.287 . S
C1555 C1556 1.524 . S
C1555 H1558 0.999 . S
C1556 H1526 0.950 . S
C1556 C1555 1.524 . S
C1556 C1557 1.415 . S
C1557 H1527 0.950 . S
C1557 C1552 1.363 . S
C1557 C1556 1.415 . S
H1558 C1555 0.999 . S
H1559 C1540 0.913 . S
H1560 C1578 0.951 . S
H1561 C1580 0.951 . S
H1562 C1582 0.950 . S
H1563 C1583 0.950 . S
H1564 C1585 0.950 . S
H1565 C1588 0.950 . S
H1566 C1589 0.950 . S
H1567 C1591 0.950 . S
H1568 C1592 0.950 . S
H1569 C1593 0.951 . S
H1570 C1595 0.951 . S
H1571 C1597 0.950 . S
H1572 C1598 0.950 . S
H1573 C1600 0.950 . S
H1574 C1603 0.950 . S
H1575 C1604 0.950 . S
H1576 C1606 0.950 . S
H1577 C1607 0.950 . S
C1578 H1560 0.951 . S
C1578 C1579 1.366 . S
C1578 C1580 1.388 . S
C1579 C1578 1.366 . S
C1579 C1583 1.385 . S
C1580 H1561 0.951 . S
C1580 C1578 1.388 . S
C1580 C1581 1.366 . S
C1581 C1580 1.366 . S
C1581 C1582 1.414 . S
C1581 C1584 1.499 . S
C1582 H1562 0.950 . S
C1582 C1581 1.414 . S
C1582 C1583 1.374 . S
C1583 H1563 0.950 . S
C1583 C1579 1.385 . S
C1583 C1582 1.374 . S
C1584 C1581 1.499 . S
C1584 C1585 1.373 . S
C1584 C1586 1.389 . S
C1585 H1564 0.950 . S
C1585 C1584 1.373 . S
C1585 C1601 1.377 . S
C1586 C1584 1.389 . S
C1586 C1587 1.524 . S
C1586 C1600 1.377 . S
C1587 C1586 1.524 . S
C1587 C1588 1.397 . S
C1587 C1592 1.363 . S
C1588 H1565 0.950 . S
C1588 C1587 1.397 . S
C1588 C1589 1.334 . S
C1589 H1566 0.950 . S
C1589 C1588 1.334 . S
C1589 C1590 1.287 . S
C1590 C1589 1.287 . S
C1590 C1591 1.524 . S
C1590 H1609 0.913 . S
C1591 H1567 0.950 . S
C1591 C1590 1.524 . S
C1591 C1592 1.415 . S
C1592 H1568 0.950 . S
C1592 C1587 1.363 . S
C1592 C1591 1.415 . S
C1593 H1569 0.951 . S
C1593 C1594 1.366 1_565 S
C1593 C1595 1.388 . S
C1594 C1593 1.366 1_545 S
C1594 C1598 1.385 . S
C1595 H1570 0.951 . S
C1595 C1593 1.388 . S
C1595 C1596 1.366 . S
C1596 C1595 1.366 . S
C1596 C1597 1.414 . S
C1596 C1599 1.499 . S
C1597 H1571 0.950 . S
C1597 C1596 1.414 . S
C1597 C1598 1.374 1_565 S
C1598 H1572 0.950 . S
C1598 C1594 1.385 . S
C1598 C1597 1.374 1_545 S
C1599 C1596 1.499 . S
C1599 C1600 1.373 . S
C1599 C1601 1.389 . S
C1600 H1573 0.950 . S
C1600 C1586 1.377 . S
C1600 C1599 1.373 . S
C1601 C1585 1.377 . S
C1601 C1599 1.389 . S
C1601 C1602 1.524 . S
C1602 C1601 1.524 . S
C1602 C1603 1.397 . S
C1602 C1607 1.363 . S
C1603 H1574 0.950 . S
C1603 C1602 1.397 . S
C1603 C1604 1.334 . S
C1604 H1575 0.950 . S
C1604 C1603 1.334 . S
C1604 C1605 1.287 . S
C1605 C1604 1.287 . S
C1605 C1606 1.524 . S
C1605 H1608 0.999 . S
C1606 H1576 0.950 . S
C1606 C1605 1.524 . S
C1606 C1607 1.415 . S
C1607 H1577 0.950 . S
C1607 C1602 1.363 . S
C1607 C1606 1.415 . S
H1608 C1605 0.999 . S
H1609 C1590 0.913 . S
H1610 C1628 0.951 . S
H1611 C1630 0.951 . S
H1612 C1632 0.950 . S
H1613 C1633 0.950 . S
H1614 C1635 0.950 . S
H1615 C1638 0.950 . S
H1616 C1639 0.950 . S
H1617 C1641 0.950 . S
H1618 C1642 0.950 . S
H1619 C1643 0.951 . S
H1620 C1645 0.951 . S
H1621 C1647 0.950 . S
H1622 C1648 0.950 . S
H1623 C1650 0.950 . S
H1624 C1653 0.950 . S
H1625 C1654 0.950 . S
H1626 C1656 0.950 . S
H1627 C1657 0.950 . S
C1628 H1610 0.951 . S
C1628 C1629 1.366 . S
C1628 C1630 1.388 . S
C1629 C1628 1.366 . S
C1629 C1633 1.385 . S
C1630 H1611 0.951 . S
C1630 C1628 1.388 . S
C1630 C1631 1.366 . S
C1631 C1630 1.366 . S
C1631 C1632 1.414 . S
C1631 C1634 1.499 . S
C1632 H1612 0.950 . S
C1632 C1631 1.414 . S
C1632 C1633 1.374 . S
C1633 H1613 0.950 . S
C1633 C1629 1.385 . S
C1633 C1632 1.374 . S
C1634 C1631 1.499 . S
C1634 C1635 1.373 . S
C1634 C1636 1.389 . S
C1635 H1614 0.950 . S
C1635 C1634 1.373 . S
C1635 C1651 1.377 . S
C1636 C1634 1.389 . S
C1636 C1637 1.524 . S
C1636 C1650 1.377 . S
C1637 C1636 1.524 . S
C1637 C1638 1.397 . S
C1637 C1642 1.363 . S
C1638 H1615 0.950 . S
C1638 C1637 1.397 . S
C1638 C1639 1.334 . S
C1639 H1616 0.950 . S
C1639 C1638 1.334 . S
C1639 C1640 1.287 . S
C1640 C1639 1.287 . S
C1640 C1641 1.524 . S
C1640 H1659 0.913 . S
C1641 H1617 0.950 . S
C1641 C1640 1.524 . S
C1641 C1642 1.415 . S
C1642 H1618 0.950 . S
C1642 C1637 1.363 . S
C1642 C1641 1.415 . S
C1643 H1619 0.951 . S
C1643 C1644 1.366 . S
C1643 C1645 1.388 . S
C1644 C1643 1.366 . S
C1644 C1648 1.385 . S
C1645 H1620 0.951 . S
C1645 C1643 1.388 . S
C1645 C1646 1.366 . S
C1646 C1645 1.366 . S
C1646 C1647 1.414 . S
C1646 C1649 1.499 . S
C1647 H1621 0.950 . S
C1647 C1646 1.414 . S
C1647 C1648 1.374 . S
C1648 H1622 0.950 . S
C1648 C1644 1.385 . S
C1648 C1647 1.374 . S
C1649 C1646 1.499 . S
C1649 C1650 1.373 . S
C1649 C1651 1.389 . S
C1650 H1623 0.950 . S
C1650 C1636 1.377 . S
C1650 C1649 1.373 . S
C1651 C1635 1.377 . S
C1651 C1649 1.389 . S
C1651 C1652 1.524 . S
C1652 C1651 1.524 . S
C1652 C1653 1.397 . S
C1652 C1657 1.363 . S
C1653 H1624 0.950 . S
C1653 C1652 1.397 . S
C1653 C1654 1.334 . S
C1654 H1625 0.950 . S
C1654 C1653 1.334 . S
C1654 C1655 1.287 . S
C1655 C1654 1.287 . S
C1655 C1656 1.524 . S
C1655 H1658 0.999 . S
C1656 H1626 0.950 . S
C1656 C1655 1.524 . S
C1656 C1657 1.415 . S
C1657 H1627 0.950 . S
C1657 C1652 1.363 . S
C1657 C1656 1.415 . S
H1658 C1655 0.999 . S
H1659 C1640 0.913 . S
C494 C123 1.373 . S
C479 C5 1.253 . S
C544 C203 1.607 . S
C529 C16 1.414 . S
C594 C135 1.697 . S
C579 C30 1.806 . S
C644 C179 1.866 . S
C629 C40 1.986 . S
C694 C247 1.179 . S
C679 C8 1.209 . S
C744 C327 1.411 . S
C729 C18 1.385 . S
C779 C29 1.873 . S
C794 C389 1.864 . S
C844 C445 1.598 . S
C829 C38 1.431 . S
C894 C259 1.251 . S
C879 C19 1.361 . S
C929 C27 1.536 . S
C944 C303 1.579 . S
C994 C365 1.801 . S
C979 C41 1.944 . S
C1044 C433 1.416 . S
C1029 C7 1.433 . S
C1079 C52 1.925 . S
C1094 C197 1.789 . S
C1144 C117 1.550 . S
C1129 C62 1.608 . S
C1179 C74 1.483 . S
C1194 C185 1.432 . S
C1229 C82 1.070 . S
C1244 C141 1.238 . S
C1294 C383 2.046 . S
C1279 C51 2.106 . S
C1344 C427 1.578 . S
C1329 C60 1.477 . S
C1394 C241 1.314 . S
C1379 C71 1.191 . S
C1429 C84 1.374 . S
C1444 C309 1.378 . S
C1494 C371 1.815 . S
C1479 C63 1.859 . S
C1544 C451 1.422 . S
C1529 C73 1.410 . S
C1594 C265 1.284 . S
C1579 C85 1.326 . S
C1629 C49 1.456 . S
C1644 C321 1.631 . S
