# Generated by pormake.
# Topology rtl, (3,6)-cn, num edge types: 1
# Building blocks:
#     Node 0, Type 0, BuildingBlock: BETDIP_clean_linker_0, # of connection points: 3
#     Node 1, Type 0, BuildingBlock: BETDIP_clean_linker_0, # of connection points: 3
#     Node 2, Type 0, BuildingBlock: BETDIP_clean_linker_0, # of connection points: 3
#     Node 3, Type 0, BuildingBlock: BETDIP_clean_linker_0, # of connection points: 3
#     Node 4, Type 1, BuildingBlock: FUNLAD_clean_sbu_0, # of connection points: 6
#     Node 5, Type 1, BuildingBlock: FUNLAD_clean_sbu_0, # of connection points: 6
#     Edge 6, Type (0, 1), BuildingBlock: XUDNAN_clean_linker_2, # of connection points: 2
#     Edge 7, Type (0, 1), BuildingBlock: XUDNAN_clean_linker_2, # of connection points: 2
#     Edge 8, Type (0, 1), BuildingBlock: XUDNAN_clean_linker_2, # of connection points: 2
#     Edge 9, Type (0, 1), BuildingBlock: XUDNAN_clean_linker_2, # of connection points: 2
#     Edge 10, Type (0, 1), BuildingBlock: XUDNAN_clean_linker_2, # of connection points: 2
#     Edge 11, Type (0, 1), BuildingBlock: XUDNAN_clean_linker_2, # of connection points: 2
#     Edge 12, Type (0, 1), BuildingBlock: XUDNAN_clean_linker_2, # of connection points: 2
#     Edge 13, Type (0, 1), BuildingBlock: XUDNAN_clean_linker_2, # of connection points: 2
#     Edge 14, Type (0, 1), BuildingBlock: XUDNAN_clean_linker_2, # of connection points: 2
#     Edge 15, Type (0, 1), BuildingBlock: XUDNAN_clean_linker_2, # of connection points: 2
#     Edge 16, Type (0, 1), BuildingBlock: XUDNAN_clean_linker_2, # of connection points: 2
#     Edge 17, Type (0, 1), BuildingBlock: XUDNAN_clean_linker_2, # of connection points: 2
# Relax obj value: 0.002
# Max RMSD: 0.040
# Mean RMSD: 0.027
data_MOF--net-rtl--node1-FUNLAD_clean_sbu_0--node2-BETDIP_clean_linker_0--edge1-XUDNAN_clean_linker_2
_symmetry_space_group_name_H-M    P1
_symmetry_Int_Tables_number       1
_symmetry_cell_setting            triclinic
loop_
_symmetry_equiv_pos_as_xyz
'x, y, z'
_cell_length_a     40.302296
_cell_length_b     40.348044
_cell_length_c     20.91051
_cell_angle_alpha  90.808363
_cell_angle_beta   92.07994
_cell_angle_gamma 89.539362
loop_
_atom_site_label
_atom_site_type_symbol
_atom_site_fract_x
_atom_site_fract_y
_atom_site_fract_z
_atom_type_partial_charge
H0 H 0.19146 0.81566 0.91465 0.0
H1 H 0.18931 0.83228 0.11872 0.0
H2 H 0.1289 0.89213 0.99302 0.0
H3 H 0.24196 0.81497 0.11379 0.0
C4 C 0.24135 0.79471 0.07904 0.0
C5 C 0.18186 0.82897 0.95548 0.0
C6 C 0.1587 0.85492 0.94606 0.0
C7 C 0.19389 0.8211 0.01738 0.0
C8 C 0.18127 0.83842 0.07037 0.0
C9 C 0.158 0.86399 0.06126 0.0
C10 C 0.14692 0.87221 -0.00057 0.0
N11 N 0.21895 0.79619 0.02493 0.0
H12 H 0.68014 0.68765 0.62908 0.0
H13 H 0.6957 0.67843 0.42688 0.0
H14 H 0.62126 0.61995 0.51318 0.0
H15 H 0.74498 0.7017 0.45202 0.0
C16 C 0.74131 0.71742 0.49375 0.0
C17 C 0.67392 0.67634 0.5829 0.0
C18 C 0.64881 0.6525 0.57749 0.0
C19 C 0.69163 0.6853 0.52943 0.0
C20 C 0.68329 0.6709 0.46925 0.0
C21 C 0.65761 0.64757 0.46309 0.0
C22 C 0.64085 0.63821 0.51755 0.0
N23 N 0.71662 0.70977 0.53801 0.0
H24 H 0.83234 0.18026 0.89371 0.0
H25 H 0.82692 0.19687 0.09731 0.0
H26 H 0.88698 0.1174 0.02468 0.0
H27 H 0.77579 0.21764 0.06685 0.0
C28 C 0.78008 0.23043 0.0226 0.0
C29 C 0.83988 0.17389 0.94233 0.0
C30 C 0.86121 0.14684 0.95347 0.0
C31 C 0.82672 0.1917 0.99376 0.0
C32 C 0.8362 0.183 0.05696 0.0
C33 C 0.85853 0.15663 0.06816 0.0
C34 C 0.87068 0.13855 0.01623 0.0
N35 N 0.80411 0.21808 0.98005 0.0
H36 H 0.32257 0.32838 0.38988 0.0
H37 H 0.30937 0.33202 0.593 0.0
H38 H 0.38294 0.39309 0.50966 0.0
H39 H 0.29352 0.27709 0.57111 0.0
C40 C 0.27786 0.2808 0.52837 0.0
C41 C 0.32931 0.33853 0.43681 0.0
C42 C 0.35446 0.36231 0.44347 0.0
C43 C 0.31314 0.32725 0.49038 0.0
C44 C 0.32208 0.34018 0.55136 0.0
C45 C 0.34707 0.36422 0.55872 0.0
C46 C 0.36288 0.3754 0.50434 0.0
N47 N 0.28758 0.30341 0.48113 0.0
C48 C 0.04071 0.9782 0.40438 0.0
N49 N 0.05663 0.06193 0.52221 0.0
C50 C 0.08987 0.05562 0.52198 0.0
C51 C 0.11247 0.08175 0.52112 0.0
C52 C 0.10064 0.11457 0.51959 0.0
C53 C 0.06633 0.12035 0.52189 0.0
C54 C 0.0447 0.09358 0.52355 0.0
Zn55 Zn 0.02321 0.02394 0.5133 0.0
C56 C 0.96664 0.04115 0.42351 0.0
N57 N 0.95346 0.94504 0.48952 0.0
C58 C 0.96216 0.91253 0.48262 0.0
C59 C 0.92128 0.95426 0.49719 0.0
C60 C 0.89665 0.93048 0.50117 0.0
C61 C 0.90502 0.89675 0.49706 0.0
C62 C 0.9381 0.88778 0.48592 0.0
Zn63 Zn 0.98801 0.98205 0.49755 0.0
O64 O 0.04988 0.00337 0.43751 0.0
C65 C 0.04398 0.96405 0.58713 0.0
O66 O 0.01386 0.96365 0.41718 0.0
H67 H 0.91476 0.98017 0.50255 0.0
H68 H 0.09884 0.0303 0.52055 0.0
H69 H 0.9879 0.90573 0.47681 0.0
O70 O 0.05177 0.99428 0.57993 0.0
O71 O 0.01848 0.95251 0.55739 0.0
H72 H 0.01823 0.09811 0.52411 0.0
O73 O 0.96333 1.00102 0.57847 0.0
O74 O 0.9959 0.04416 0.58904 0.0
O75 O 0.95771 0.01218 0.43772 0.0
O76 O 0.99402 0.05237 0.4463 0.0
C77 C 0.97108 0.028 0.60707 0.0
H78 H 0.13877 0.07632 0.519 0.0
H79 H 0.05629 0.14533 0.52152 0.0
H80 H 0.87134 0.93841 0.50882 0.0
H81 H 0.9455 0.86197 0.48268 0.0
C82 C 0.46184 0.47298 0.92161 0.0
N83 N 0.55884 0.45113 0.98843 0.0
C84 C 0.55201 0.4183 0.99354 0.0
C85 C 0.57721 0.39455 0.98749 0.0
C86 C 0.60961 0.40469 0.97529 0.0
C87 C 0.61582 0.43866 0.96944 0.0
C88 C 0.59004 0.46155 0.97658 0.0
Zn89 Zn 0.52261 0.48628 0.00167 0.0
C90 C 0.52882 0.54344 0.9151 0.0
N91 N 0.44827 0.56089 0.03157 0.0
C92 C 0.41526 0.55401 0.03255 0.0
C93 C 0.45948 0.59239 0.04074 0.0
C94 C 0.43743 0.61824 0.0533 0.0
C95 C 0.40335 0.61185 0.05559 0.0
C96 C 0.39216 0.57937 0.04405 0.0
Zn97 Zn 0.48331 0.52449 0.01755 0.0
O98 O 0.4903 0.46135 0.93736 0.0
C99 C 0.47685 0.46779 0.10455 0.0
O100 O 0.45218 0.50045 0.94559 0.0
H101 H 0.48571 0.59753 0.03891 0.0
H102 H 0.52705 0.41051 0.00285 0.0
H103 H 0.40685 0.52881 0.02513 0.0
O104 O 0.50306 0.45852 0.07701 0.0
O105 O 0.46278 0.49493 0.08873 0.0
H106 H 0.5951 0.48773 0.97344 0.0
O107 O 0.51526 0.5471 0.08892 0.0
O108 O 0.55471 0.51144 0.06702 0.0
O109 O 0.50451 0.55374 0.94704 0.0
O110 O 0.541 0.51483 0.92598 0.0
C111 C 0.54483 0.53659 0.09826 0.0
H112 H 0.5714 0.36853 0.99186 0.0
H113 H 0.64054 0.44752 0.96087 0.0
H114 H 0.44695 0.64305 0.06118 0.0
H115 H 0.36602 0.57354 0.04569 0.0
H116 H 0.26191 0.22533 0.59317 0.0
H117 H 0.22751 0.28847 0.43775 0.0
H118 H 0.1783 0.25302 0.4197 0.0
H119 H 0.23674 0.14816 0.51744 0.0
H120 H 0.22457 0.12958 0.59081 0.0
H121 H 0.25675 0.16034 0.59255 0.0
H122 H 0.22407 0.19555 0.67396 0.0
H123 H 0.19178 0.16491 0.67244 0.0
H124 H 0.18173 0.20746 0.6545 0.0
H125 H 0.13237 0.21154 0.41992 0.0
H126 H 0.09408 0.16498 0.43461 0.0
H127 H 0.15914 0.12728 0.58709 0.0
C128 C 0.24394 0.23163 0.55542 0.0
C129 C 0.24844 0.25958 0.51688 0.0
C130 C 0.2246 0.26708 0.46769 0.0
C131 C 0.19653 0.24715 0.45719 0.0
C132 C 0.19284 0.2197 0.49594 0.0
C133 C 0.21598 0.21175 0.54378 0.0
C134 C 0.20643 0.18044 0.57765 0.0
C135 C 0.23269 0.15301 0.56907 0.0
C136 C 0.20066 0.18753 0.64886 0.0
C137 C 0.17424 0.1721 0.54152 0.0
C138 C 0.16676 0.19523 0.49493 0.0
C139 C 0.138 0.19323 0.45613 0.0
C140 C 0.11634 0.16682 0.46503 0.0
C141 C 0.12367 0.14261 0.51198 0.0
C142 C 0.15308 0.14531 0.55052 0.0
H143 H 0.25132 0.73896 0.0023 0.0
H144 H 0.28831 0.79058 0.17354 0.0
H145 H 0.332 0.74794 0.18867 0.0
H146 H 0.26653 0.65507 0.06135 0.0
H147 H 0.27909 0.63901 0.985 0.0
H148 H 0.24978 0.67292 0.98839 0.0
H149 H 0.28767 0.70831 0.91931 0.0
H150 H 0.31704 0.67452 0.91563 0.0
H151 H 0.33036 0.71465 0.94505 0.0
H152 H 0.37309 0.70203 0.18284 0.0
H153 H 0.40923 0.65438 0.15708 0.0
H154 H 0.34566 0.63092 0.99104 0.0
C155 C 0.26851 0.74112 0.04312 0.0
C156 C 0.26655 0.76807 0.08686 0.0
C157 C 0.28948 0.7701 0.13959 0.0
C158 C 0.31431 0.74601 0.14862 0.0
C159 C 0.31578 0.71987 0.10466 0.0
C160 C 0.2935 0.7171 0.05306 0.0
C161 C 0.30124 0.68674 0.01235 0.0
C162 C 0.27244 0.66197 0.01176 0.0
C163 C 0.30958 0.69666 0.94405 0.0
C164 C 0.33159 0.67325 0.04872 0.0
C165 C 0.33943 0.69281 0.10185 0.0
C166 C 0.36709 0.68636 0.14168 0.0
C167 C 0.38751 0.65936 0.12658 0.0
C168 C 0.38014 0.63902 0.07229 0.0
C169 C 0.35156 0.64585 0.03331 0.0
H170 H 0.79391 0.73584 0.42391 0.0
H171 H 0.73908 0.76325 0.59183 0.0
H172 H 0.7761 0.81085 0.61172 0.0
H173 H 0.87548 0.758 0.49009 0.0
H174 H 0.88963 0.77393 0.41581 0.0
H175 H 0.85917 0.74146 0.41492 0.0
H176 H 0.81923 0.77742 0.34451 0.0
H177 H 0.84957 0.80996 0.34511 0.0
H178 H 0.80826 0.81856 0.37153 0.0
H179 H 0.8176 0.85609 0.61225 0.0
H180 H 0.86174 0.89646 0.5938 0.0
H181 H 0.89075 0.8401 0.42631 0.0
C182 C 0.78986 0.75185 0.46495 0.0
C183 C 0.76371 0.74583 0.50634 0.0
C184 C 0.759 0.76728 0.55951 0.0
C185 C 0.77992 0.79441 0.57126 0.0
C186 C 0.80546 0.79969 0.52958 0.0
C187 C 0.81062 0.77904 0.47755 0.0
C188 C 0.83974 0.79064 0.43989 0.0
C189 C 0.86766 0.76445 0.44023 0.0
C190 C 0.82852 0.79969 0.3712 0.0
C191 C 0.84993 0.82116 0.47869 0.0
C192 C 0.82976 0.82584 0.53018 0.0
C193 C 0.83361 0.85268 0.57221 0.0
C194 C 0.85863 0.87554 0.56114 0.0
C195 C 0.87953 0.87144 0.50852 0.0
C196 C 0.87529 0.84366 0.46718 0.0
H197 H 0.72513 0.25199 0.08316 0.0
H198 H 0.78496 0.27161 0.91971 0.0
H199 H 0.74729 0.31776 0.889 0.0
H200 H 0.64575 0.26859 0.00421 0.0
H201 H 0.62817 0.28773 0.07378 0.0
H202 H 0.65997 0.25637 0.08323 0.0
H203 H 0.6958 0.29689 0.15323 0.0
H204 H 0.66407 0.32832 0.14417 0.0
H205 H 0.70595 0.33686 0.12216 0.0
H206 H 0.70374 0.36244 0.87731 0.0
H207 H 0.65675 0.40194 0.88449 0.0
H208 H 0.62457 0.35248 0.05412 0.0
C209 C 0.73025 0.26606 0.04094 0.0
C210 C 0.75787 0.25827 0.0038 0.0
C211 C 0.76385 0.27709 0.94878 0.0
C212 C 0.74261 0.30336 0.93097 0.0
C213 C 0.71547 0.31033 0.96849 0.0
C214 C 0.70917 0.29219 0.02223 0.0
C215 C 0.67822 0.30469 0.05412 0.0
C216 C 0.65145 0.27773 0.05379 0.0
C217 C 0.68652 0.31745 0.12246 0.0
C218 C 0.66819 0.3328 0.01009 0.0
C219 C 0.69006 0.3357 0.9611 0.0
C220 C 0.68639 0.36034 0.91532 0.0
C221 C 0.65973 0.38271 0.9199 0.0
C222 C 0.637 0.38017 0.96968 0.0
C223 C 0.64128 0.35471 0.01502 0.0
H224 H 0.10372 0.8531 0.13249 0.0
H225 H 0.18604 0.91981 0.11015 0.0
H226 H 0.16488 0.95628 0.19609 0.0
H227 H 0.0422 0.91498 0.15962 0.0
H228 H 0.02089 0.89202 0.2188 0.0
H229 H 0.04321 0.8703 0.15781 0.0
H230 H 0.07779 0.83891 0.2449 0.0
H231 H 0.05537 0.86034 0.30618 0.0
H232 H 0.10005 0.86212 0.30676 0.0
H233 H 0.13408 0.98606 0.28054 0.0
H234 H 0.09662 0.0071 0.36229 0.0
H235 H 0.03356 0.9211 0.33094 0.0
C236 C 0.11737 0.87519 0.14663 0.0
C237 C 0.14656 0.88381 0.11583 0.0
C238 C 0.16379 0.91295 0.13417 0.0
C239 C 0.15191 0.93373 0.18258 0.0
C240 C 0.12283 0.92483 0.21187 0.0
C241 C 0.10585 0.89619 0.19504 0.0
C242 C 0.07495 0.89277 0.23362 0.0
C243 C 0.04346 0.89251 0.18983 0.0
C244 C 0.07719 0.86169 0.27535 0.0
C245 C 0.07702 0.92417 0.27417 0.0
C246 C 0.1049 0.9422 0.2608 0.0
C247 C 0.11224 0.97214 0.29167 0.0
C248 C 0.09072 0.98389 0.33799 0.0
C249 C 0.06209 0.96577 0.35309 0.0
C250 C 0.05514 0.93557 0.32036 0.0
H251 H 0.63913 0.5898 0.62014 0.0
H252 H 0.61688 0.69306 0.66125 0.0
H253 H 0.58313 0.67631 0.7519 0.0
H254 H 0.56015 0.5569 0.65555 0.0
H255 H 0.5768 0.5199 0.69235 0.0
H256 H 0.59938 0.54003 0.6313 0.0
H257 H 0.65096 0.54459 0.70856 0.0
H258 H 0.62861 0.52429 0.76973 0.0
H259 H 0.64692 0.56429 0.78584 0.0
H260 H 0.54947 0.64801 0.8337 0.0
H261 H 0.52247 0.61066 0.90813 0.0
H262 H 0.56914 0.52587 0.81697 0.0
C263 C 0.62719 0.60882 0.64847 0.0
C264 C 0.63038 0.64268 0.63395 0.0
C265 C 0.61477 0.66701 0.67212 0.0
C266 C 0.59548 0.65772 0.72332 0.0
C267 C 0.5925 0.62405 0.73597 0.0
C268 C 0.60829 0.6 0.70023 0.0
C269 C 0.6016 0.5656 0.72453 0.0
C270 C 0.5834 0.54437 0.67285 0.0
C271 C 0.63395 0.54871 0.7486 0.0
C272 C 0.57928 0.57401 0.7792 0.0
C273 C 0.5741 0.60783 0.78459 0.0
C274 C 0.55356 0.62151 0.8303 0.0
C275 C 0.53821 0.60008 0.87211 0.0
C276 C 0.54381 0.5654 0.8684 0.0
C277 C 0.56459 0.55229 0.8212 0.0
H278 H 0.92119 0.15068 0.12014 0.0
H279 H 0.81761 0.13759 0.16156 0.0
H280 H 0.83422 0.11055 0.26357 0.0
H281 H 0.94996 0.07544 0.17352 0.0
H282 H 0.98877 0.08991 0.20872 0.0
H283 H 0.96896 0.11219 0.14379 0.0
H284 H 0.96908 0.16603 0.2128 0.0
H285 H 0.98933 0.14401 0.27789 0.0
H286 H 0.95091 0.16594 0.29032 0.0
H287 H 0.86209 0.07664 0.34984 0.0
H288 H 0.8993 0.04422 0.42237 0.0
H289 H 0.98497 0.08302 0.32966 0.0
C290 C 0.90211 0.14296 0.15179 0.0
C291 C 0.86818 0.14626 0.1337 0.0
C292 C 0.84371 0.1356 0.17539 0.0
C293 C 0.85293 0.12013 0.2331 0.0
C294 C 0.88668 0.11625 0.2487 0.0
C295 C 0.9109 0.12805 0.20998 0.0
C296 C 0.94538 0.11928 0.23601 0.0
C297 C 0.96436 0.09794 0.18763 0.0
C298 C 0.96482 0.15069 0.25542 0.0
C299 C 0.93679 0.09953 0.29403 0.0
C300 C 0.90278 0.09802 0.30042 0.0
C301 C 0.88874 0.07837 0.34641 0.0
C302 C 0.91 0.05991 0.38702 0.0
C303 C 0.94485 0.06162 0.38189 0.0
C304 C 0.95839 0.082 0.33539 0.0
H305 H 0.36073 0.42812 0.59847 0.0
H306 H 0.36027 0.32657 0.66405 0.0
H307 H 0.38474 0.34477 0.76841 0.0
H308 H 0.43763 0.44974 0.66777 0.0
H309 H 0.42615 0.49146 0.69024 0.0
H310 H 0.40515 0.47125 0.62322 0.0
H311 H 0.34851 0.48167 0.67504 0.0
H312 H 0.36935 0.50206 0.74226 0.0
H313 H 0.34233 0.46759 0.75515 0.0
H314 H 0.41602 0.37214 0.85856 0.0
H315 H 0.44886 0.40802 0.93319 0.0
H316 H 0.42685 0.49276 0.81337 0.0
C317 C 0.36532 0.40984 0.63524 0.0
C318 C 0.35846 0.37594 0.62335 0.0
C319 C 0.36485 0.35271 0.67248 0.0
C320 C 0.37886 0.3628 0.7318 0.0
C321 C 0.38591 0.39627 0.74155 0.0
C322 C 0.37899 0.41956 0.69505 0.0
C323 C 0.39053 0.45373 0.71688 0.0
C324 C 0.4164 0.46733 0.67185 0.0
C325 C 0.36091 0.47768 0.72268 0.0
C326 C 0.40603 0.44577 0.78205 0.0
C327 C 0.403 0.41244 0.7952 0.0
C328 C 0.41789 0.39839 0.84959 0.0
C329 C 0.43655 0.41888 0.89147 0.0
C330 C 0.43977 0.45306 0.87921 0.0
C331 C 0.42392 0.46682 0.8244 0.0
H332 H 0.5949 0.64264 0.41039 0.0
H333 H 0.69783 0.61928 0.3745 0.0
H334 H 0.68034 0.59046 0.27357 0.0
H335 H 0.56113 0.56698 0.3564 0.0
H336 H 0.52397 0.58479 0.32016 0.0
H337 H 0.54479 0.60562 0.38667 0.0
H338 H 0.54939 0.65874 0.31936 0.0
H339 H 0.52839 0.63811 0.25265 0.0
H340 H 0.56853 0.65636 0.24281 0.0
H341 H 0.65102 0.55969 0.18274 0.0
H342 H 0.61252 0.53263 0.10404 0.0
H343 H 0.52882 0.57799 0.19766 0.0
C344 C 0.61375 0.63171 0.38089 0.0
C345 C 0.64769 0.63301 0.40001 0.0
C346 C 0.67173 0.61868 0.36022 0.0
C347 C 0.66201 0.60221 0.3031 0.0
C348 C 0.62824 0.60078 0.28628 0.0
C349 C 0.60452 0.61553 0.32359 0.0
C350 C 0.56981 0.60978 0.29575 0.0
C351 C 0.5487 0.59065 0.34253 0.0
C352 C 0.55305 0.64271 0.27649 0.0
C353 C 0.57761 0.58882 0.23761 0.0
C354 C 0.61144 0.58387 0.23303 0.0
C355 C 0.62453 0.56378 0.18531 0.0
C356 C 0.60246 0.5484 0.14106 0.0
C357 C 0.56773 0.5534 0.14461 0.0
C358 C 0.55527 0.57409 0.19329 0.0
H359 H 0.90569 0.16086 0.86191 0.0
H360 H 0.84115 0.08418 0.92816 0.0
H361 H 0.8612 0.04573 0.84449 0.0
H362 H 0.89875 0.13966 0.69101 0.0
H363 H 0.94183 0.14804 0.67792 0.0
H364 H 0.92056 0.17021 0.73983 0.0
H365 H 0.96556 0.15112 0.82332 0.0
H366 H 0.98682 0.1287 0.76178 0.0
H367 H 0.97424 0.10748 0.8321 0.0
H368 H 0.88901 0.01549 0.7563 0.0
H369 H 0.92371 0.99453 0.66959 0.0
H370 H 0.97232 0.09006 0.663 0.0
C371 C 0.89552 0.13612 0.85778 0.0
C372 C 0.8717 0.12531 0.90042 0.0
C373 C 0.85926 0.0927 0.89517 0.0
C374 C 0.87049 0.07081 0.848 0.0
C375 C 0.89435 0.08195 0.80699 0.0
C376 C 0.9068 0.11378 0.81136 0.0
C377 C 0.93349 0.11885 0.76329 0.0
C378 C 0.92302 0.14578 0.71515 0.0
C379 C 0.96701 0.12701 0.79717 0.0
C380 C 0.93418 0.08486 0.7316 0.0
C381 C 0.91121 0.06408 0.75723 0.0
C382 C 0.9071 0.0315 0.73577 0.0
C383 C 0.92695 0.01983 0.68655 0.0
C384 C 0.95082 0.0406 0.65975 0.0
C385 C 0.95445 0.07352 0.68283 0.0
H386 H 0.36483 0.42488 0.39957 0.0
H387 H 0.38731 0.32127 0.36265 0.0
H388 H 0.42214 0.33706 0.27301 0.0
H389 H 0.35839 0.44841 0.23265 0.0
H390 H 0.37651 0.48862 0.2473 0.0
H391 H 0.35379 0.46906 0.30886 0.0
H392 H 0.40488 0.4747 0.38709 0.0
H393 H 0.42782 0.49409 0.32563 0.0
H394 H 0.44432 0.45762 0.36458 0.0
H395 H 0.45675 0.36436 0.19153 0.0
H396 H 0.484 0.40082 0.11561 0.0
H397 H 0.43601 0.48648 0.20089 0.0
C398 C 0.37705 0.40561 0.37232 0.0
C399 C 0.37356 0.3719 0.38769 0.0
C400 C 0.38962 0.34722 0.35105 0.0
C401 C 0.40954 0.35596 0.30044 0.0
C402 C 0.41272 0.38946 0.28671 0.0
C403 C 0.39654 0.41388 0.32091 0.0
C404 C 0.40333 0.44796 0.29508 0.0
C405 C 0.37109 0.46448 0.26944 0.0
C406 C 0.42115 0.46988 0.34614 0.0
C407 C 0.42606 0.4389 0.24133 0.0
C408 C 0.43149 0.40507 0.23786 0.0
C409 C 0.45246 0.39086 0.19339 0.0
C410 C 0.46794 0.41176 0.15074 0.0
C411 C 0.46196 0.44639 0.15228 0.0
C412 C 0.44079 0.46005 0.19832 0.0
H413 H 0.15309 0.91746 0.898 0.0
H414 H 0.13597 0.8141 0.84856 0.0
H415 H 0.10891 0.83089 0.74574 0.0
H416 H 0.07706 0.94764 0.84106 0.0
H417 H 0.09261 0.9859 0.81074 0.0
H418 H 0.11434 0.96571 0.87617 0.0
H419 H 0.16829 0.9644 0.8124 0.0
H420 H 0.14677 0.98484 0.74678 0.0
H421 H 0.16782 0.94591 0.73339 0.0
H422 H 0.07738 0.85919 0.65612 0.0
H423 H 0.04678 0.89661 0.58221 0.0
H424 H 0.08563 0.98177 0.68867 0.0
C425 C 0.14411 0.89834 0.86501 0.0
C426 C 0.14654 0.86447 0.88108 0.0
C427 C 0.13464 0.84015 0.83677 0.0
C428 C 0.11915 0.84948 0.77847 0.0
C429 C 0.11626 0.88317 0.765 0.0
C430 C 0.12883 0.90722 0.80662 0.0
C431 C 0.12091 0.94175 0.78259 0.0
C432 C 0.09998 0.96139 0.83048 0.0
C433 C 0.15285 0.96031 0.76791 0.0
C434 C 0.10094 0.93344 0.72188 0.0
C435 C 0.09868 0.8995 0.7125 0.0
C436 C 0.07948 0.88577 0.66233 0.0
C437 C 0.06206 0.90724 0.62083 0.0
C438 C 0.06405 0.94208 0.62951 0.0
C439 C 0.08412 0.95527 0.68025 0.0
loop_
_geom_bond_atom_site_label_1
_geom_bond_atom_site_label_2
_geom_bond_distance
_geom_bond_site_symmetry_2
_ccdc_geom_bond_type
H0 C5 0.930 . S
H1 C8 0.930 . S
H2 C10 0.930 . S
H3 C4 1.016 . S
C4 H3 1.016 . S
C4 N11 1.286 1_554 S
C5 H0 0.930 . S
C5 C6 1.397 . S
C5 C7 1.361 1_556 S
C6 C5 1.397 . S
C6 C10 1.390 1_556 S
C7 C5 1.361 1_554 S
C7 C8 1.393 . S
C7 N11 1.413 1_554 S
C8 H1 0.930 . S
C8 C7 1.393 . S
C8 C9 1.399 . S
C9 C8 1.399 . S
C9 C10 1.381 . S
C10 H2 0.930 . S
C10 C6 1.390 1_554 S
C10 C9 1.381 . S
N11 C4 1.286 1_556 S
N11 C7 1.413 1_556 S
H12 C17 0.930 . S
H13 C20 0.930 . S
H14 C22 0.930 . S
H15 C16 1.016 . S
C16 H15 1.016 . S
C16 N23 1.286 . S
C17 H12 0.930 . S
C17 C18 1.397 . S
C17 C19 1.361 . S
C18 C17 1.397 . S
C18 C22 1.390 . S
C19 C17 1.361 . S
C19 C20 1.393 . S
C19 N23 1.413 . S
C20 H13 0.930 . S
C20 C19 1.393 . S
C20 C21 1.399 . S
C21 C20 1.399 . S
C21 C22 1.381 . S
C22 H14 0.930 . S
C22 C18 1.390 . S
C22 C21 1.381 . S
N23 C16 1.286 . S
N23 C19 1.413 . S
H24 C29 0.930 . S
H25 C32 0.930 . S
H26 C34 0.930 . S
H27 C28 1.016 . S
C28 H27 1.016 . S
C28 N35 1.286 1_554 S
C29 H24 0.930 . S
C29 C30 1.397 . S
C29 C31 1.361 . S
C30 C29 1.397 . S
C30 C34 1.390 1_556 S
C31 C29 1.361 . S
C31 C32 1.393 1_556 S
C31 N35 1.413 . S
C32 H25 0.930 . S
C32 C31 1.393 1_554 S
C32 C33 1.399 . S
C33 C32 1.399 . S
C33 C34 1.381 . S
C34 H26 0.930 . S
C34 C30 1.390 1_554 S
C34 C33 1.381 . S
N35 C28 1.286 1_556 S
N35 C31 1.413 . S
H36 C41 0.930 . S
H37 C44 0.930 . S
H38 C46 0.930 . S
H39 C40 1.016 . S
C40 H39 1.016 . S
C40 N47 1.286 . S
C41 H36 0.930 . S
C41 C42 1.397 . S
C41 C43 1.361 . S
C42 C41 1.397 . S
C42 C46 1.390 . S
C43 C41 1.361 . S
C43 C44 1.393 . S
C43 N47 1.413 . S
C44 H37 0.930 . S
C44 C43 1.393 . S
C44 C45 1.399 . S
C45 C44 1.399 . S
C45 C46 1.381 . S
C46 H38 0.930 . S
C46 C42 1.390 . S
C46 C45 1.381 . S
N47 C40 1.286 . S
N47 C43 1.413 . S
C48 O64 1.251 . S
C48 O66 1.254 . S
N49 C50 1.333 . S
N49 C54 1.307 . S
N49 Zn55 2.020 . S
C50 N49 1.333 . S
C50 C51 1.379 . S
C50 H68 0.952 . S
C51 C50 1.379 . S
C51 C52 1.390 . S
C51 H78 0.949 . S
C52 C51 1.390 . S
C52 C53 1.357 . S
C53 C52 1.357 . S
C53 C54 1.370 . S
C53 H79 0.950 . S
C54 N49 1.307 . S
C54 C53 1.370 . S
C54 H72 0.948 . S
Zn55 N49 2.020 . S
Zn55 O64 2.039 1_545 S
Zn55 O70 2.034 1_545 S
Zn55 O74 2.025 1_455 S
Zn55 O76 2.024 1_455 S
C56 O75 1.246 . S
C56 O76 1.249 . S
N57 C58 1.307 . S
N57 C59 1.333 . S
N57 Zn63 2.020 . S
C58 N57 1.307 . S
C58 C62 1.370 . S
C58 H69 0.948 . S
C59 N57 1.333 . S
C59 C60 1.379 . S
C59 H67 0.952 . S
C60 C59 1.379 . S
C60 C61 1.390 . S
C60 H80 0.949 . S
C61 C60 1.390 . S
C61 C62 1.357 . S
C62 C58 1.370 . S
C62 C61 1.357 . S
C62 H81 0.950 . S
Zn63 N57 2.020 . S
Zn63 O66 2.025 1_655 S
Zn63 O71 2.024 1_655 S
Zn63 O73 2.039 1_565 S
Zn63 O75 2.034 1_565 S
O64 C48 1.251 . S
O64 Zn55 2.039 1_565 S
C65 O70 1.246 . S
C65 O71 1.249 . S
O66 C48 1.254 . S
O66 Zn63 2.025 1_455 S
H67 C59 0.952 . S
H68 C50 0.952 . S
H69 C58 0.948 . S
O70 Zn55 2.034 1_565 S
O70 C65 1.246 . S
O71 Zn63 2.024 1_455 S
O71 C65 1.249 . S
H72 C54 0.948 . S
O73 Zn63 2.039 1_545 S
O73 C77 1.251 . S
O74 Zn55 2.025 1_655 S
O74 C77 1.254 . S
O75 C56 1.246 . S
O75 Zn63 2.034 1_545 S
O76 Zn55 2.024 1_655 S
O76 C56 1.249 . S
C77 O73 1.251 . S
C77 O74 1.254 . S
H78 C51 0.949 . S
H79 C53 0.950 . S
H80 C60 0.949 . S
H81 C62 0.950 . S
C82 O98 1.251 . S
C82 O100 1.254 . S
N83 C84 1.333 . S
N83 C88 1.307 . S
N83 Zn89 2.020 . S
C84 N83 1.333 . S
C84 C85 1.379 1_554 S
C84 H102 0.952 1_554 S
C85 C84 1.379 1_556 S
C85 C86 1.389 1_556 S
C85 H112 0.950 . S
C86 C85 1.389 1_554 S
C86 C87 1.357 . S
C87 C86 1.357 . S
C87 C88 1.370 . S
C87 H113 0.950 . S
C88 N83 1.307 . S
C88 C87 1.370 . S
C88 H106 0.948 . S
Zn89 N83 2.020 . S
Zn89 O98 2.039 1_554 S
Zn89 O104 2.034 . S
Zn89 O108 2.025 . S
Zn89 O110 2.024 1_554 S
C90 O109 1.246 . S
C90 O110 1.249 . S
N91 C92 1.307 . S
N91 C93 1.333 . S
N91 Zn97 2.020 . S
C92 N91 1.307 . S
C92 C96 1.370 . S
C92 H103 0.948 1_554 S
C93 N91 1.333 . S
C93 C94 1.379 . S
C93 H101 0.952 . S
C94 C93 1.379 . S
C94 C95 1.390 . S
C94 H114 0.949 . S
C95 C94 1.390 . S
C95 C96 1.357 . S
C96 C92 1.370 . S
C96 C95 1.357 . S
C96 H115 0.950 1_554 S
Zn97 N91 2.020 . S
Zn97 O100 2.025 1_554 S
Zn97 O105 2.024 . S
Zn97 O107 2.039 . S
Zn97 O109 2.034 1_554 S
O98 C82 1.251 . S
O98 Zn89 2.039 1_556 S
C99 O104 1.246 . S
C99 O105 1.249 . S
O100 C82 1.254 . S
O100 Zn97 2.025 1_556 S
H101 C93 0.952 . S
H102 C84 0.952 1_556 S
H103 C92 0.948 1_556 S
O104 Zn89 2.034 . S
O104 C99 1.246 . S
O105 Zn97 2.024 . S
O105 C99 1.249 . S
H106 C88 0.948 . S
O107 Zn97 2.039 . S
O107 C111 1.251 . S
O108 Zn89 2.025 . S
O108 C111 1.254 . S
O109 C90 1.246 . S
O109 Zn97 2.034 1_556 S
O110 Zn89 2.024 1_556 S
O110 C90 1.249 . S
C111 O107 1.251 . S
C111 O108 1.254 . S
H112 C85 0.950 . S
H113 C87 0.950 . S
H114 C94 0.949 . S
H115 C96 0.950 1_556 S
H116 C128 0.930 . S
H117 C130 0.930 . S
H118 C131 0.930 . S
H119 C135 0.959 . S
H120 C135 0.959 . S
H121 C135 0.961 . S
H122 C136 0.960 . S
H123 C136 0.961 . S
H124 C136 0.959 . S
H125 C139 0.929 . S
H126 C140 0.931 . S
H127 C142 0.930 . S
C128 H116 0.930 . S
C128 C129 1.399 . S
C128 C133 1.399 . S
C129 C128 1.399 . S
C129 C130 1.376 . S
C130 H117 0.930 . S
C130 C129 1.376 . S
C130 C131 1.388 . S
C131 H118 0.930 . S
C131 C130 1.388 . S
C131 C132 1.390 . S
C132 C131 1.390 . S
C132 C133 1.394 . S
C132 C138 1.465 . S
C133 C128 1.399 . S
C133 C132 1.394 . S
C133 C134 1.516 . S
C134 C133 1.516 . S
C134 C135 1.502 . S
C134 C136 1.561 . S
C134 C137 1.526 . S
C135 H119 0.959 . S
C135 H120 0.959 . S
C135 H121 0.961 . S
C135 C134 1.502 . S
C136 H122 0.960 . S
C136 H123 0.961 . S
C136 H124 0.959 . S
C136 C134 1.561 . S
C137 C134 1.526 . S
C137 C138 1.396 . S
C137 C142 1.390 . S
C138 C132 1.465 . S
C138 C137 1.396 . S
C138 C139 1.399 . S
C139 H125 0.929 . S
C139 C138 1.399 . S
C139 C140 1.385 . S
C140 H126 0.931 . S
C140 C139 1.385 . S
C140 C141 1.389 . S
C141 C140 1.389 . S
C141 C142 1.387 . S
C142 H127 0.930 . S
C142 C137 1.390 . S
C142 C141 1.387 . S
H143 C155 0.927 1_556 S
H144 C157 0.930 . S
H145 C158 0.930 . S
H146 C162 0.959 1_554 S
H147 C162 0.959 . S
H148 C162 0.961 . S
H149 C163 0.960 . S
H150 C163 0.961 . S
H151 C163 0.959 . S
H152 C166 0.929 . S
H153 C167 0.931 . S
H154 C169 0.930 . S
C155 H143 0.927 1_554 S
C155 C156 1.402 . S
C155 C160 1.399 . S
C156 C155 1.402 . S
C156 C157 1.376 . S
C157 H144 0.930 . S
C157 C156 1.376 . S
C157 C158 1.388 . S
C158 H145 0.930 . S
C158 C157 1.388 . S
C158 C159 1.390 . S
C159 C158 1.390 . S
C159 C160 1.394 . S
C159 C165 1.465 . S
C160 C155 1.399 . S
C160 C159 1.394 . S
C160 C161 1.516 1_554 S
C161 C160 1.516 1_556 S
C161 C162 1.502 . S
C161 C163 1.561 . S
C161 C164 1.526 1_556 S
C162 H146 0.959 1_556 S
C162 H147 0.959 . S
C162 H148 0.961 . S
C162 C161 1.502 . S
C163 H149 0.960 . S
C163 H150 0.961 . S
C163 H151 0.959 . S
C163 C161 1.561 . S
C164 C161 1.526 1_554 S
C164 C165 1.396 . S
C164 C169 1.390 1_554 S
C165 C159 1.465 . S
C165 C164 1.396 . S
C165 C166 1.399 . S
C166 H152 0.929 . S
C166 C165 1.399 . S
C166 C167 1.385 . S
C167 H153 0.931 . S
C167 C166 1.385 . S
C167 C168 1.389 . S
C168 C167 1.389 . S
C168 C169 1.387 1_554 S
C169 H154 0.930 . S
C169 C164 1.390 1_556 S
C169 C168 1.387 1_556 S
H170 C182 0.930 . S
H171 C184 0.930 . S
H172 C185 0.930 . S
H173 C189 0.959 . S
H174 C189 0.959 . S
H175 C189 0.961 . S
H176 C190 0.960 . S
H177 C190 0.961 . S
H178 C190 0.959 . S
H179 C193 0.929 . S
H180 C194 0.931 . S
H181 C196 0.930 . S
C182 H170 0.930 . S
C182 C183 1.399 . S
C182 C187 1.399 . S
C183 C182 1.399 . S
C183 C184 1.376 . S
C184 H171 0.930 . S
C184 C183 1.376 . S
C184 C185 1.388 . S
C185 H172 0.930 . S
C185 C184 1.388 . S
C185 C186 1.390 . S
C186 C185 1.390 . S
C186 C187 1.394 . S
C186 C192 1.465 . S
C187 C182 1.399 . S
C187 C186 1.394 . S
C187 C188 1.516 . S
C188 C187 1.516 . S
C188 C189 1.502 . S
C188 C190 1.561 . S
C188 C191 1.526 . S
C189 H173 0.959 . S
C189 H174 0.959 . S
C189 H175 0.961 . S
C189 C188 1.502 . S
C190 H176 0.960 . S
C190 H177 0.961 . S
C190 H178 0.959 . S
C190 C188 1.561 . S
C191 C188 1.526 . S
C191 C192 1.396 . S
C191 C196 1.390 . S
C192 C186 1.465 . S
C192 C191 1.396 . S
C192 C193 1.399 . S
C193 H179 0.929 . S
C193 C192 1.399 . S
C193 C194 1.385 . S
C194 H180 0.931 . S
C194 C193 1.385 . S
C194 C195 1.389 . S
C195 C194 1.389 . S
C195 C196 1.387 . S
C196 H181 0.930 . S
C196 C191 1.390 . S
C196 C195 1.387 . S
H197 C209 0.930 . S
H198 C211 0.930 . S
H199 C212 0.930 . S
H200 C216 0.959 . S
H201 C216 0.959 . S
H202 C216 0.961 . S
H203 C217 0.960 . S
H204 C217 0.961 . S
H205 C217 0.959 . S
H206 C220 0.929 . S
H207 C221 0.931 . S
H208 C223 0.930 . S
C209 H197 0.930 . S
C209 C210 1.399 . S
C209 C214 1.399 . S
C210 C209 1.399 . S
C210 C211 1.376 1_554 S
C211 H198 0.930 . S
C211 C210 1.376 1_556 S
C211 C212 1.388 . S
C212 H199 0.930 . S
C212 C211 1.388 . S
C212 C213 1.390 . S
C213 C212 1.390 . S
C213 C214 1.394 1_556 S
C213 C219 1.465 . S
C214 C209 1.399 . S
C214 C213 1.394 1_554 S
C214 C215 1.516 . S
C215 C214 1.516 . S
C215 C216 1.502 . S
C215 C217 1.561 . S
C215 C218 1.526 . S
C216 H200 0.959 . S
C216 H201 0.959 . S
C216 H202 0.961 . S
C216 C215 1.502 . S
C217 H203 0.960 . S
C217 H204 0.961 . S
C217 H205 0.959 . S
C217 C215 1.561 . S
C218 C215 1.526 . S
C218 C219 1.396 1_554 S
C218 C223 1.390 . S
C219 C213 1.465 . S
C219 C218 1.396 1_556 S
C219 C220 1.399 . S
C220 H206 0.929 . S
C220 C219 1.399 . S
C220 C221 1.385 . S
C221 H207 0.931 . S
C221 C220 1.385 . S
C221 C222 1.389 1_556 S
C222 C221 1.389 1_554 S
C222 C223 1.387 . S
C223 H208 0.930 . S
C223 C218 1.390 . S
C223 C222 1.387 . S
H224 C236 0.930 . S
H225 C238 0.930 . S
H226 C239 0.930 . S
H227 C243 0.959 . S
H228 C243 0.959 . S
H229 C243 0.961 . S
H230 C244 0.960 . S
H231 C244 0.961 . S
H232 C244 0.959 . S
H233 C247 0.929 . S
H234 C248 0.931 1_545 S
H235 C250 0.930 . S
C236 H224 0.930 . S
C236 C237 1.399 . S
C236 C241 1.399 . S
C237 C236 1.399 . S
C237 C238 1.376 . S
C238 H225 0.930 . S
C238 C237 1.376 . S
C238 C239 1.388 . S
C239 H226 0.930 . S
C239 C238 1.388 . S
C239 C240 1.390 . S
C240 C239 1.390 . S
C240 C241 1.394 . S
C240 C246 1.465 . S
C241 C236 1.399 . S
C241 C240 1.394 . S
C241 C242 1.516 . S
C242 C241 1.516 . S
C242 C243 1.502 . S
C242 C244 1.561 . S
C242 C245 1.526 . S
C243 H227 0.959 . S
C243 H228 0.959 . S
C243 H229 0.961 . S
C243 C242 1.502 . S
C244 H230 0.960 . S
C244 H231 0.961 . S
C244 H232 0.959 . S
C244 C242 1.561 . S
C245 C242 1.526 . S
C245 C246 1.396 . S
C245 C250 1.390 . S
C246 C240 1.465 . S
C246 C245 1.396 . S
C246 C247 1.399 . S
C247 H233 0.929 . S
C247 C246 1.399 . S
C247 C248 1.385 . S
C248 H234 0.931 1_565 S
C248 C247 1.385 . S
C248 C249 1.389 . S
C249 C248 1.389 . S
C249 C250 1.387 . S
C250 H235 0.930 . S
C250 C245 1.390 . S
C250 C249 1.387 . S
H251 C263 0.930 . S
H252 C265 0.930 . S
H253 C266 0.930 . S
H254 C270 0.959 . S
H255 C270 0.959 . S
H256 C270 0.961 . S
H257 C271 0.960 . S
H258 C271 0.961 . S
H259 C271 0.959 . S
H260 C274 0.929 . S
H261 C275 0.931 . S
H262 C277 0.930 . S
C263 H251 0.930 . S
C263 C264 1.399 . S
C263 C268 1.399 . S
C264 C263 1.399 . S
C264 C265 1.376 . S
C265 H252 0.930 . S
C265 C264 1.376 . S
C265 C266 1.388 . S
C266 H253 0.930 . S
C266 C265 1.388 . S
C266 C267 1.390 . S
C267 C266 1.390 . S
C267 C268 1.394 . S
C267 C273 1.465 . S
C268 C263 1.399 . S
C268 C267 1.394 . S
C268 C269 1.516 . S
C269 C268 1.516 . S
C269 C270 1.502 . S
C269 C271 1.561 . S
C269 C272 1.526 . S
C270 H254 0.959 . S
C270 H255 0.959 . S
C270 H256 0.961 . S
C270 C269 1.502 . S
C271 H257 0.960 . S
C271 H258 0.961 . S
C271 H259 0.959 . S
C271 C269 1.561 . S
C272 C269 1.526 . S
C272 C273 1.396 . S
C272 C277 1.390 . S
C273 C267 1.465 . S
C273 C272 1.396 . S
C273 C274 1.399 . S
C274 H260 0.929 . S
C274 C273 1.399 . S
C274 C275 1.385 . S
C275 H261 0.931 . S
C275 C274 1.385 . S
C275 C276 1.389 . S
C276 C275 1.389 . S
C276 C277 1.387 . S
C277 H262 0.930 . S
C277 C272 1.390 . S
C277 C276 1.387 . S
H278 C290 0.930 . S
H279 C292 0.930 . S
H280 C293 0.930 . S
H281 C297 0.959 . S
H282 C297 0.959 . S
H283 C297 0.961 . S
H284 C298 0.960 . S
H285 C298 0.961 . S
H286 C298 0.959 . S
H287 C301 0.929 . S
H288 C302 0.931 . S
H289 C304 0.930 . S
C290 H278 0.930 . S
C290 C291 1.399 . S
C290 C295 1.399 . S
C291 C290 1.399 . S
C291 C292 1.376 . S
C292 H279 0.930 . S
C292 C291 1.376 . S
C292 C293 1.388 . S
C293 H280 0.930 . S
C293 C292 1.388 . S
C293 C294 1.390 . S
C294 C293 1.390 . S
C294 C295 1.394 . S
C294 C300 1.465 . S
C295 C290 1.399 . S
C295 C294 1.394 . S
C295 C296 1.516 . S
C296 C295 1.516 . S
C296 C297 1.502 . S
C296 C298 1.561 . S
C296 C299 1.526 . S
C297 H281 0.959 . S
C297 H282 0.959 . S
C297 H283 0.961 . S
C297 C296 1.502 . S
C298 H284 0.960 . S
C298 H285 0.961 . S
C298 H286 0.959 . S
C298 C296 1.561 . S
C299 C296 1.526 . S
C299 C300 1.396 . S
C299 C304 1.390 . S
C300 C294 1.465 . S
C300 C299 1.396 . S
C300 C301 1.399 . S
C301 H287 0.929 . S
C301 C300 1.399 . S
C301 C302 1.385 . S
C302 H288 0.931 . S
C302 C301 1.385 . S
C302 C303 1.389 . S
C303 C302 1.389 . S
C303 C304 1.387 . S
C304 H289 0.930 . S
C304 C299 1.390 . S
C304 C303 1.387 . S
H305 C317 0.930 . S
H306 C319 0.930 . S
H307 C320 0.930 . S
H308 C324 0.959 . S
H309 C324 0.959 . S
H310 C324 0.961 . S
H311 C325 0.960 . S
H312 C325 0.961 . S
H313 C325 0.959 . S
H314 C328 0.929 . S
H315 C329 0.931 . S
H316 C331 0.930 . S
C317 H305 0.930 . S
C317 C318 1.399 . S
C317 C322 1.399 . S
C318 C317 1.399 . S
C318 C319 1.376 . S
C319 H306 0.930 . S
C319 C318 1.376 . S
C319 C320 1.388 . S
C320 H307 0.930 . S
C320 C319 1.388 . S
C320 C321 1.390 . S
C321 C320 1.390 . S
C321 C322 1.394 . S
C321 C327 1.465 . S
C322 C317 1.399 . S
C322 C321 1.394 . S
C322 C323 1.516 . S
C323 C322 1.516 . S
C323 C324 1.502 . S
C323 C325 1.561 . S
C323 C326 1.526 . S
C324 H308 0.959 . S
C324 H309 0.959 . S
C324 H310 0.961 . S
C324 C323 1.502 . S
C325 H311 0.960 . S
C325 H312 0.961 . S
C325 H313 0.959 . S
C325 C323 1.561 . S
C326 C323 1.526 . S
C326 C327 1.396 . S
C326 C331 1.390 . S
C327 C321 1.465 . S
C327 C326 1.396 . S
C327 C328 1.399 . S
C328 H314 0.929 . S
C328 C327 1.399 . S
C328 C329 1.385 . S
C329 H315 0.931 . S
C329 C328 1.385 . S
C329 C330 1.389 . S
C330 C329 1.389 . S
C330 C331 1.387 . S
C331 H316 0.930 . S
C331 C326 1.390 . S
C331 C330 1.387 . S
H332 C344 0.930 . S
H333 C346 0.930 . S
H334 C347 0.930 . S
H335 C351 0.959 . S
H336 C351 0.959 . S
H337 C351 0.961 . S
H338 C352 0.960 . S
H339 C352 0.961 . S
H340 C352 0.959 . S
H341 C355 0.929 . S
H342 C356 0.931 . S
H343 C358 0.930 . S
C344 H332 0.930 . S
C344 C345 1.399 . S
C344 C349 1.399 . S
C345 C344 1.399 . S
C345 C346 1.376 . S
C346 H333 0.930 . S
C346 C345 1.376 . S
C346 C347 1.388 . S
C347 H334 0.930 . S
C347 C346 1.388 . S
C347 C348 1.390 . S
C348 C347 1.390 . S
C348 C349 1.394 . S
C348 C354 1.465 . S
C349 C344 1.399 . S
C349 C348 1.394 . S
C349 C350 1.516 . S
C350 C349 1.516 . S
C350 C351 1.502 . S
C350 C352 1.561 . S
C350 C353 1.526 . S
C351 H335 0.959 . S
C351 H336 0.959 . S
C351 H337 0.961 . S
C351 C350 1.502 . S
C352 H338 0.960 . S
C352 H339 0.961 . S
C352 H340 0.959 . S
C352 C350 1.561 . S
C353 C350 1.526 . S
C353 C354 1.396 . S
C353 C358 1.390 . S
C354 C348 1.465 . S
C354 C353 1.396 . S
C354 C355 1.399 . S
C355 H341 0.929 . S
C355 C354 1.399 . S
C355 C356 1.385 . S
C356 H342 0.931 . S
C356 C355 1.385 . S
C356 C357 1.389 . S
C357 C356 1.389 . S
C357 C358 1.387 . S
C358 H343 0.930 . S
C358 C353 1.390 . S
C358 C357 1.387 . S
H359 C371 0.930 . S
H360 C373 0.930 . S
H361 C374 0.930 . S
H362 C378 0.959 . S
H363 C378 0.959 . S
H364 C378 0.961 . S
H365 C379 0.960 . S
H366 C379 0.961 . S
H367 C379 0.959 . S
H368 C382 0.929 . S
H369 C383 0.929 1_565 S
H370 C385 0.930 . S
C371 H359 0.930 . S
C371 C372 1.399 . S
C371 C376 1.399 . S
C372 C371 1.399 . S
C372 C373 1.376 . S
C373 H360 0.930 . S
C373 C372 1.376 . S
C373 C374 1.388 . S
C374 H361 0.930 . S
C374 C373 1.388 . S
C374 C375 1.390 . S
C375 C374 1.390 . S
C375 C376 1.394 . S
C375 C381 1.465 . S
C376 C371 1.399 . S
C376 C375 1.394 . S
C376 C377 1.516 . S
C377 C376 1.516 . S
C377 C378 1.502 . S
C377 C379 1.561 . S
C377 C380 1.526 . S
C378 H362 0.959 . S
C378 H363 0.959 . S
C378 H364 0.961 . S
C378 C377 1.502 . S
C379 H365 0.960 . S
C379 H366 0.961 . S
C379 H367 0.959 . S
C379 C377 1.561 . S
C380 C377 1.526 . S
C380 C381 1.396 . S
C380 C385 1.390 . S
C381 C375 1.465 . S
C381 C380 1.396 . S
C381 C382 1.399 . S
C382 H368 0.929 . S
C382 C381 1.399 . S
C382 C383 1.385 . S
C383 H369 0.929 1_545 S
C383 C382 1.385 . S
C383 C384 1.389 . S
C384 C383 1.389 . S
C384 C385 1.387 . S
C385 H370 0.930 . S
C385 C380 1.390 . S
C385 C384 1.387 . S
H386 C398 0.930 . S
H387 C400 0.930 . S
H388 C401 0.930 . S
H389 C405 0.959 . S
H390 C405 0.959 . S
H391 C405 0.961 . S
H392 C406 0.960 . S
H393 C406 0.961 . S
H394 C406 0.959 . S
H395 C409 0.929 . S
H396 C410 0.931 . S
H397 C412 0.930 . S
C398 H386 0.930 . S
C398 C399 1.399 . S
C398 C403 1.399 . S
C399 C398 1.399 . S
C399 C400 1.376 . S
C400 H387 0.930 . S
C400 C399 1.376 . S
C400 C401 1.388 . S
C401 H388 0.930 . S
C401 C400 1.388 . S
C401 C402 1.390 . S
C402 C401 1.390 . S
C402 C403 1.394 . S
C402 C408 1.465 . S
C403 C398 1.399 . S
C403 C402 1.394 . S
C403 C404 1.516 . S
C404 C403 1.516 . S
C404 C405 1.502 . S
C404 C406 1.561 . S
C404 C407 1.526 . S
C405 H389 0.959 . S
C405 H390 0.959 . S
C405 H391 0.961 . S
C405 C404 1.502 . S
C406 H392 0.960 . S
C406 H393 0.961 . S
C406 H394 0.959 . S
C406 C404 1.561 . S
C407 C404 1.526 . S
C407 C408 1.396 . S
C407 C412 1.390 . S
C408 C402 1.465 . S
C408 C407 1.396 . S
C408 C409 1.399 . S
C409 H395 0.929 . S
C409 C408 1.399 . S
C409 C410 1.385 . S
C410 H396 0.931 . S
C410 C409 1.385 . S
C410 C411 1.389 . S
C411 C410 1.389 . S
C411 C412 1.387 . S
C412 H397 0.930 . S
C412 C407 1.390 . S
C412 C411 1.387 . S
H413 C425 0.930 . S
H414 C427 0.930 . S
H415 C428 0.930 . S
H416 C432 0.959 . S
H417 C432 0.959 . S
H418 C432 0.961 . S
H419 C433 0.960 . S
H420 C433 0.959 . S
H421 C433 0.959 . S
H422 C436 0.929 . S
H423 C437 0.931 . S
H424 C439 0.930 . S
C425 H413 0.930 . S
C425 C426 1.399 . S
C425 C430 1.399 . S
C426 C425 1.399 . S
C426 C427 1.376 . S
C427 H414 0.930 . S
C427 C426 1.376 . S
C427 C428 1.388 . S
C428 H415 0.930 . S
C428 C427 1.388 . S
C428 C429 1.390 . S
C429 C428 1.390 . S
C429 C430 1.394 . S
C429 C435 1.465 . S
C430 C425 1.399 . S
C430 C429 1.394 . S
C430 C431 1.516 . S
C431 C430 1.516 . S
C431 C432 1.502 . S
C431 C433 1.561 . S
C431 C434 1.526 . S
C432 H416 0.959 . S
C432 H417 0.959 . S
C432 H418 0.961 . S
C432 C431 1.502 . S
C433 H419 0.960 . S
C433 H420 0.959 . S
C433 H421 0.959 . S
C433 C431 1.561 . S
C434 C431 1.526 . S
C434 C435 1.396 . S
C434 C439 1.390 . S
C435 C429 1.465 . S
C435 C434 1.396 . S
C435 C436 1.399 . S
C436 H422 0.929 . S
C436 C435 1.399 . S
C436 C437 1.385 . S
C437 H423 0.931 . S
C437 C436 1.385 . S
C437 C438 1.389 . S
C438 C437 1.389 . S
C438 C439 1.387 . S
C439 H424 0.930 . S
C439 C434 1.390 . S
C439 C438 1.387 . S
C141 C52 1.506 . S
C129 C40 1.509 . S
C156 C4 1.498 . S
C168 C95 1.510 . S
C183 C16 1.510 . S
C195 C61 1.508 . S
C210 C28 1.509 . S
C222 C86 1.506 . S
C249 C48 1.551 . S
C237 C9 1.525 . S
C276 C90 1.525 . S
C264 C18 1.540 . S
C291 C33 1.550 . S
C303 C56 1.541 . S
C318 C45 1.536 . S
C330 C82 1.531 . S
C357 C111 1.474 . S
C345 C21 1.472 . S
C384 C77 1.465 . S
C372 C30 1.449 . S
C411 C99 1.471 . S
C399 C42 1.483 . S
C426 C6 1.468 . S
C438 C65 1.453 . S
