# Generated by pormake.
# Topology ptr, (4,4)-cn, num edge types: 1
# Building blocks:
#     Node 0, Type 0, BuildingBlock: TATPOV_clean_sbu_0, # of connection points: 4
#     Node 1, Type 0, BuildingBlock: TATPOV_clean_sbu_0, # of connection points: 4
#     Node 2, Type 0, BuildingBlock: TATPOV_clean_sbu_0, # of connection points: 4
#     Node 3, Type 0, BuildingBlock: TATPOV_clean_sbu_0, # of connection points: 4
#     Node 4, Type 0, BuildingBlock: TATPOV_clean_sbu_0, # of connection points: 4
#     Node 5, Type 0, BuildingBlock: TATPOV_clean_sbu_0, # of connection points: 4
#     Node 6, Type 0, BuildingBlock: TATPOV_clean_sbu_0, # of connection points: 4
#     Node 7, Type 0, BuildingBlock: TATPOV_clean_sbu_0, # of connection points: 4
#     Node 8, Type 0, BuildingBlock: TATPOV_clean_sbu_0, # of connection points: 4
#     Node 9, Type 0, BuildingBlock: TATPOV_clean_sbu_0, # of connection points: 4
#     Node 10, Type 0, BuildingBlock: TATPOV_clean_sbu_0, # of connection points: 4
#     Node 11, Type 0, BuildingBlock: TATPOV_clean_sbu_0, # of connection points: 4
#     Node 12, Type 0, BuildingBlock: TATPOV_clean_sbu_0, # of connection points: 4
#     Node 13, Type 0, BuildingBlock: TATPOV_clean_sbu_0, # of connection points: 4
#     Node 14, Type 0, BuildingBlock: TATPOV_clean_sbu_0, # of connection points: 4
#     Node 15, Type 0, BuildingBlock: TATPOV_clean_sbu_0, # of connection points: 4
#     Node 16, Type 0, BuildingBlock: TATPOV_clean_sbu_0, # of connection points: 4
#     Node 17, Type 0, BuildingBlock: TATPOV_clean_sbu_0, # of connection points: 4
#     Node 18, Type 1, BuildingBlock: NAHDIM_clean_linker_0, # of connection points: 4
#     Node 19, Type 1, BuildingBlock: NAHDIM_clean_linker_0, # of connection points: 4
#     Node 20, Type 1, BuildingBlock: NAHDIM_clean_linker_0, # of connection points: 4
#     Node 21, Type 1, BuildingBlock: NAHDIM_clean_linker_0, # of connection points: 4
#     Node 22, Type 1, BuildingBlock: NAHDIM_clean_linker_0, # of connection points: 4
#     Node 23, Type 1, BuildingBlock: NAHDIM_clean_linker_0, # of connection points: 4
#     Node 24, Type 1, BuildingBlock: NAHDIM_clean_linker_0, # of connection points: 4
#     Node 25, Type 1, BuildingBlock: NAHDIM_clean_linker_0, # of connection points: 4
#     Node 26, Type 1, BuildingBlock: NAHDIM_clean_linker_0, # of connection points: 4
#     Node 27, Type 1, BuildingBlock: NAHDIM_clean_linker_0, # of connection points: 4
#     Node 28, Type 1, BuildingBlock: NAHDIM_clean_linker_0, # of connection points: 4
#     Node 29, Type 1, BuildingBlock: NAHDIM_clean_linker_0, # of connection points: 4
#     Node 30, Type 1, BuildingBlock: NAHDIM_clean_linker_0, # of connection points: 4
#     Node 31, Type 1, BuildingBlock: NAHDIM_clean_linker_0, # of connection points: 4
#     Node 32, Type 1, BuildingBlock: NAHDIM_clean_linker_0, # of connection points: 4
#     Node 33, Type 1, BuildingBlock: NAHDIM_clean_linker_0, # of connection points: 4
#     Node 34, Type 1, BuildingBlock: NAHDIM_clean_linker_0, # of connection points: 4
#     Node 35, Type 1, BuildingBlock: NAHDIM_clean_linker_0, # of connection points: 4
#     Edge 36, Type (0, 1), BuildingBlock: TEMPAE_clean_linker_10, # of connection points: 2
#     Edge 37, Type (0, 1), BuildingBlock: TEMPAE_clean_linker_10, # of connection points: 2
#     Edge 38, Type (0, 1), BuildingBlock: TEMPAE_clean_linker_10, # of connection points: 2
#     Edge 39, Type (0, 1), BuildingBlock: TEMPAE_clean_linker_10, # of connection points: 2
#     Edge 40, Type (0, 1), BuildingBlock: TEMPAE_clean_linker_10, # of connection points: 2
#     Edge 41, Type (0, 1), BuildingBlock: TEMPAE_clean_linker_10, # of connection points: 2
#     Edge 42, Type (0, 1), BuildingBlock: TEMPAE_clean_linker_10, # of connection points: 2
#     Edge 43, Type (0, 1), BuildingBlock: TEMPAE_clean_linker_10, # of connection points: 2
#     Edge 44, Type (0, 1), BuildingBlock: TEMPAE_clean_linker_10, # of connection points: 2
#     Edge 45, Type (0, 1), BuildingBlock: TEMPAE_clean_linker_10, # of connection points: 2
#     Edge 46, Type (0, 1), BuildingBlock: TEMPAE_clean_linker_10, # of connection points: 2
#     Edge 47, Type (0, 1), BuildingBlock: TEMPAE_clean_linker_10, # of connection points: 2
#     Edge 48, Type (0, 1), BuildingBlock: TEMPAE_clean_linker_10, # of connection points: 2
#     Edge 49, Type (0, 1), BuildingBlock: TEMPAE_clean_linker_10, # of connection points: 2
#     Edge 50, Type (0, 1), BuildingBlock: TEMPAE_clean_linker_10, # of connection points: 2
#     Edge 51, Type (0, 1), BuildingBlock: TEMPAE_clean_linker_10, # of connection points: 2
#     Edge 52, Type (0, 1), BuildingBlock: TEMPAE_clean_linker_10, # of connection points: 2
#     Edge 53, Type (0, 1), BuildingBlock: TEMPAE_clean_linker_10, # of connection points: 2
#     Edge 54, Type (0, 1), BuildingBlock: TEMPAE_clean_linker_10, # of connection points: 2
#     Edge 55, Type (0, 1), BuildingBlock: TEMPAE_clean_linker_10, # of connection points: 2
#     Edge 56, Type (0, 1), BuildingBlock: TEMPAE_clean_linker_10, # of connection points: 2
#     Edge 57, Type (0, 1), BuildingBlock: TEMPAE_clean_linker_10, # of connection points: 2
#     Edge 58, Type (0, 1), BuildingBlock: TEMPAE_clean_linker_10, # of connection points: 2
#     Edge 59, Type (0, 1), BuildingBlock: TEMPAE_clean_linker_10, # of connection points: 2
#     Edge 60, Type (0, 1), BuildingBlock: TEMPAE_clean_linker_10, # of connection points: 2
#     Edge 61, Type (0, 1), BuildingBlock: TEMPAE_clean_linker_10, # of connection points: 2
#     Edge 62, Type (0, 1), BuildingBlock: TEMPAE_clean_linker_10, # of connection points: 2
#     Edge 63, Type (0, 1), BuildingBlock: TEMPAE_clean_linker_10, # of connection points: 2
#     Edge 64, Type (0, 1), BuildingBlock: TEMPAE_clean_linker_10, # of connection points: 2
#     Edge 65, Type (0, 1), BuildingBlock: TEMPAE_clean_linker_10, # of connection points: 2
#     Edge 66, Type (0, 1), BuildingBlock: TEMPAE_clean_linker_10, # of connection points: 2
#     Edge 67, Type (0, 1), BuildingBlock: TEMPAE_clean_linker_10, # of connection points: 2
#     Edge 68, Type (0, 1), BuildingBlock: TEMPAE_clean_linker_10, # of connection points: 2
#     Edge 69, Type (0, 1), BuildingBlock: TEMPAE_clean_linker_10, # of connection points: 2
#     Edge 70, Type (0, 1), BuildingBlock: TEMPAE_clean_linker_10, # of connection points: 2
#     Edge 71, Type (0, 1), BuildingBlock: TEMPAE_clean_linker_10, # of connection points: 2
#     Edge 72, Type (0, 1), BuildingBlock: TEMPAE_clean_linker_10, # of connection points: 2
#     Edge 73, Type (0, 1), BuildingBlock: TEMPAE_clean_linker_10, # of connection points: 2
#     Edge 74, Type (0, 1), BuildingBlock: TEMPAE_clean_linker_10, # of connection points: 2
#     Edge 75, Type (0, 1), BuildingBlock: TEMPAE_clean_linker_10, # of connection points: 2
#     Edge 76, Type (0, 1), BuildingBlock: TEMPAE_clean_linker_10, # of connection points: 2
#     Edge 77, Type (0, 1), BuildingBlock: TEMPAE_clean_linker_10, # of connection points: 2
#     Edge 78, Type (0, 1), BuildingBlock: TEMPAE_clean_linker_10, # of connection points: 2
#     Edge 79, Type (0, 1), BuildingBlock: TEMPAE_clean_linker_10, # of connection points: 2
#     Edge 80, Type (0, 1), BuildingBlock: TEMPAE_clean_linker_10, # of connection points: 2
#     Edge 81, Type (0, 1), BuildingBlock: TEMPAE_clean_linker_10, # of connection points: 2
#     Edge 82, Type (0, 1), BuildingBlock: TEMPAE_clean_linker_10, # of connection points: 2
#     Edge 83, Type (0, 1), BuildingBlock: TEMPAE_clean_linker_10, # of connection points: 2
#     Edge 84, Type (0, 1), BuildingBlock: TEMPAE_clean_linker_10, # of connection points: 2
#     Edge 85, Type (0, 1), BuildingBlock: TEMPAE_clean_linker_10, # of connection points: 2
#     Edge 86, Type (0, 1), BuildingBlock: TEMPAE_clean_linker_10, # of connection points: 2
#     Edge 87, Type (0, 1), BuildingBlock: TEMPAE_clean_linker_10, # of connection points: 2
#     Edge 88, Type (0, 1), BuildingBlock: TEMPAE_clean_linker_10, # of connection points: 2
#     Edge 89, Type (0, 1), BuildingBlock: TEMPAE_clean_linker_10, # of connection points: 2
#     Edge 90, Type (0, 1), BuildingBlock: TEMPAE_clean_linker_10, # of connection points: 2
#     Edge 91, Type (0, 1), BuildingBlock: TEMPAE_clean_linker_10, # of connection points: 2
#     Edge 92, Type (0, 1), BuildingBlock: TEMPAE_clean_linker_10, # of connection points: 2
#     Edge 93, Type (0, 1), BuildingBlock: TEMPAE_clean_linker_10, # of connection points: 2
#     Edge 94, Type (0, 1), BuildingBlock: TEMPAE_clean_linker_10, # of connection points: 2
#     Edge 95, Type (0, 1), BuildingBlock: TEMPAE_clean_linker_10, # of connection points: 2
#     Edge 96, Type (0, 1), BuildingBlock: TEMPAE_clean_linker_10, # of connection points: 2
#     Edge 97, Type (0, 1), BuildingBlock: TEMPAE_clean_linker_10, # of connection points: 2
#     Edge 98, Type (0, 1), BuildingBlock: TEMPAE_clean_linker_10, # of connection points: 2
#     Edge 99, Type (0, 1), BuildingBlock: TEMPAE_clean_linker_10, # of connection points: 2
#     Edge 100, Type (0, 1), BuildingBlock: TEMPAE_clean_linker_10, # of connection points: 2
#     Edge 101, Type (0, 1), BuildingBlock: TEMPAE_clean_linker_10, # of connection points: 2
#     Edge 102, Type (0, 1), BuildingBlock: TEMPAE_clean_linker_10, # of connection points: 2
#     Edge 103, Type (0, 1), BuildingBlock: TEMPAE_clean_linker_10, # of connection points: 2
#     Edge 104, Type (0, 1), BuildingBlock: TEMPAE_clean_linker_10, # of connection points: 2
#     Edge 105, Type (0, 1), BuildingBlock: TEMPAE_clean_linker_10, # of connection points: 2
#     Edge 106, Type (0, 1), BuildingBlock: TEMPAE_clean_linker_10, # of connection points: 2
#     Edge 107, Type (0, 1), BuildingBlock: TEMPAE_clean_linker_10, # of connection points: 2
# Relax obj value: 0.077
# Max RMSD: 0.285
# Mean RMSD: 0.115
data_MOF--net-ptr--node1-TATPOV_clean_sbu_0--node2-NAHDIM_clean_linker_0--edge1-TEMPAE_clean_linker_10
_symmetry_space_group_name_H-M    P1
_symmetry_Int_Tables_number       1
_symmetry_cell_setting            triclinic
loop_
_symmetry_equiv_pos_as_xyz
'x, y, z'
_cell_length_a     94.510817
_cell_length_b     95.673523
_cell_length_c     79.782746
_cell_angle_alpha  90.595618
_cell_angle_beta   90.892299
_cell_angle_gamma 121.72939
loop_
_atom_site_label
_atom_site_type_symbol
_atom_site_fract_x
_atom_site_fract_y
_atom_site_fract_z
_atom_type_partial_charge
Zn0 Zn 0.96311 0.34264 0.01042 0.0
Zn1 Zn 0.99199 0.34398 0.01718 0.0
O2 O 0.97545 0.31982 0.01078 0.0
O3 O 0.95203 0.31841 0.00413 0.0
O4 O 0.01225 0.34352 0.0244 0.0
O5 O 0.96313 0.3507 0.03401 0.0
O6 O 0.98741 0.3532 0.03831 0.0
C7 C 0.96035 0.31154 0.00559 0.0
C8 C 0.99078 0.36465 0.98923 0.0
O9 O 0.99884 0.35941 0.99717 0.0
O10 O 0.97586 0.35967 0.99285 0.0
C11 C 0.01877 0.33765 0.01509 0.0
O12 O 0.01281 0.3327 0.99974 0.0
C13 C 0.97577 0.35505 0.04339 0.0
Zn14 Zn 0.65155 0.62154 0.99693 0.0
Zn15 Zn 0.65667 0.6485 0.01355 0.0
O16 O 0.67854 0.6568 0.00119 0.0
O17 O 0.67391 0.63533 0.98605 0.0
O18 O 0.66177 0.66812 0.02789 0.0
O19 O 0.6485 0.60962 0.01866 0.0
O20 O 0.65069 0.63115 0.03149 0.0
C21 C 0.68327 0.65031 0.99039 0.0
C22 C 0.62793 0.63121 0.98812 0.0
O23 O 0.63684 0.6435 0.99797 0.0
O24 O 0.63144 0.62022 0.9861 0.0
C25 C 0.66675 0.68233 0.02234 0.0
O26 O 0.66798 0.68458 0.00608 0.0
C27 C 0.64799 0.61664 0.03199 0.0
Zn28 Zn 0.34071 0.97417 0.00381 0.0
Zn29 Zn 0.34361 0.0038 0.00187 0.0
O30 O 0.31928 0.98765 0.0077 0.0
O31 O 0.31588 0.96306 0.00767 0.0
O32 O 0.34364 0.02445 0.99692 0.0
O33 O 0.34995 0.97613 0.9807 0.0
O34 O 0.35297 0.00052 0.98004 0.0
C35 C 0.30999 0.97219 0.00947 0.0
C36 C 0.36357 0.99942 0.02879 0.0
O37 O 0.35941 0.00877 0.02195 0.0
O38 O 0.35739 0.98475 0.02341 0.0
C39 C 0.33696 0.03023 0.00613 0.0
O40 O 0.33056 0.0232 0.02042 0.0
C41 C 0.35488 0.98952 0.97329 0.0
Zn42 Zn 0.03602 0.66129 0.0178 0.0
Zn43 Zn 0.00529 0.6557 0.00956 0.0
O44 O 0.02049 0.67999 0.01586 0.0
O45 O 0.04531 0.68543 0.02348 0.0
O46 O 0.9849 0.65604 0.00246 0.0
O47 O 0.03705 0.65401 0.99406 0.0
O48 O 0.01113 0.64703 0.98886 0.0
C49 C 0.03522 0.69018 0.02118 0.0
C50 C 0.00829 0.63711 0.0384 0.0
O51 O 0.99922 0.64057 0.02958 0.0
O52 O 0.02371 0.64391 0.03557 0.0
C53 C 0.98066 0.66374 0.01221 0.0
O54 O 0.98794 0.66853 0.02711 0.0
C55 C 0.02432 0.64765 0.98437 0.0
Zn56 Zn 0.34552 0.38207 0.03129 0.0
Zn57 Zn 0.34483 0.35653 0.01472 0.0
O58 O 0.32168 0.34713 0.02421 0.0
O59 O 0.32164 0.36678 0.03865 0.0
O60 O 0.34195 0.3364 0.00295 0.0
O61 O 0.35018 0.39348 0.00881 0.0
O62 O 0.35116 0.37338 0.99626 0.0
C63 C 0.31416 0.35198 0.03342 0.0
C64 C 0.36988 0.3744 0.04363 0.0
O65 O 0.36323 0.36299 0.03245 0.0
O66 O 0.36479 0.38422 0.04543 0.0
C67 C 0.33625 0.32352 0.01161 0.0
O68 O 0.33378 0.32445 0.02764 0.0
C69 C 0.35251 0.38734 0.99575 0.0
Zn70 Zn 0.666 0.03406 0.00967 0.0
Zn71 Zn 0.65899 0.00314 0.01539 0.0
O72 O 0.68355 0.01713 0.00941 0.0
O73 O 0.68975 0.04203 0.00343 0.0
O74 O 0.65788 0.98212 0.02122 0.0
O75 O 0.66034 0.03554 0.03377 0.0
O76 O 0.65172 0.00939 0.03686 0.0
C77 C 0.69405 0.0316 0.00476 0.0
C78 C 0.63967 0.00788 0.98783 0.0
O79 O 0.64299 0.99824 0.99543 0.0
O80 O 0.64734 0.02304 0.99189 0.0
C81 C 0.66501 0.97715 0.01157 0.0
O82 O 0.67056 0.98446 0.99721 0.0
C83 C 0.65356 0.02275 0.04254 0.0
Zn84 Zn 0.63531 0.68636 0.32178 0.0
Zn85 Zn 0.66071 0.68635 0.33777 0.0
O86 O 0.64671 0.66344 0.32666 0.0
O87 O 0.6245 0.66217 0.3158 0.0
O88 O 0.67874 0.68464 0.3495 0.0
O89 O 0.6301 0.69341 0.34369 0.0
O90 O 0.64957 0.69134 0.35685 0.0
C91 C 0.63269 0.65541 0.31893 0.0
C92 C 0.66791 0.71027 0.30946 0.0
O93 O 0.67308 0.70531 0.32149 0.0
O94 O 0.65243 0.70366 0.30653 0.0
C95 C 0.68705 0.68028 0.34091 0.0
O96 O 0.68415 0.67793 0.32465 0.0
C97 C 0.63786 0.69422 0.35712 0.0
Zn98 Zn 0.29318 0.94813 0.34837 0.0
Zn99 Zn 0.30673 0.97885 0.35926 0.0
O100 O 0.32607 0.9791 0.34715 0.0
O101 O 0.31418 0.9539 0.33676 0.0
O102 O 0.31731 0.00228 0.368 0.0
O103 O 0.28923 0.93985 0.37174 0.0
O104 O 0.29882 0.96511 0.38092 0.0
C105 C 0.32684 0.96827 0.33846 0.0
C106 C 0.27631 0.96317 0.33504 0.0
O107 O 0.2879 0.97579 0.34297 0.0
O108 O 0.27546 0.94955 0.33589 0.0
C109 C 0.33082 0.00869 0.37661 0.0
O110 O 0.33744 0.99983 0.37967 0.0
C111 C 0.29241 0.94986 0.38378 0.0
Zn112 Zn 0.02748 0.31193 0.36499 0.0
Zn113 Zn 0.02884 0.3364 0.34733 0.0
O114 O 0.0046 0.32311 0.35528 0.0
O115 O 0.00364 0.30375 0.37078 0.0
O116 O 0.02952 0.35461 0.33405 0.0
O117 O 0.03286 0.30375 0.34402 0.0
O118 O 0.03517 0.32452 0.33002 0.0
C119 C 0.99656 0.31076 0.36467 0.0
C120 C 0.05232 0.3441 0.37784 0.0
O121 O 0.04664 0.34883 0.36605 0.0
O122 O 0.04632 0.32889 0.37992 0.0
C123 C 0.02308 0.36247 0.33961 0.0
O124 O 0.01596 0.35866 0.35426 0.0
C125 C 0.03605 0.31168 0.33057 0.0
Zn126 Zn 0.69262 0.96675 0.36375 0.0
Zn127 Zn 0.66601 0.96614 0.3486 0.0
O128 O 0.67993 0.98917 0.3586 0.0
O129 O 0.70209 0.99098 0.37026 0.0
O130 O 0.64725 0.96703 0.33747 0.0
O131 O 0.69777 0.96066 0.34107 0.0
O132 O 0.67705 0.96158 0.3292 0.0
C133 C 0.69374 0.99748 0.3666 0.0
C134 C 0.66046 0.94282 0.37733 0.0
O135 O 0.65487 0.94826 0.36619 0.0
O136 O 0.67598 0.94863 0.37882 0.0
C137 C 0.63991 0.97254 0.34602 0.0
O138 O 0.64418 0.97644 0.36191 0.0
C139 C 0.6893 0.95958 0.3281 0.0
Zn140 Zn 0.0183 0.7226 0.37074 0.0
Zn141 Zn 0.01856 0.69723 0.35464 0.0
O142 O 0.99459 0.68659 0.36228 0.0
O143 O 0.99379 0.70643 0.3756 0.0
O144 O 0.01853 0.67849 0.3425 0.0
O145 O 0.02525 0.73512 0.34893 0.0
O146 O 0.02495 0.71435 0.33635 0.0
C147 C 0.98657 0.69158 0.3705 0.0
C148 C 0.04144 0.71509 0.38565 0.0
O149 O 0.03567 0.70403 0.37408 0.0
O150 O 0.03618 0.7248 0.38689 0.0
C151 C 0.03062 0.67623 0.34343 0.0
O152 O 0.04385 0.68641 0.35263 0.0
C153 C 0.02721 0.72869 0.3359 0.0
Zn154 Zn 0.31861 0.36799 0.32744 0.0
Zn155 Zn 0.31769 0.34195 0.34228 0.0
O156 O 0.34105 0.3557 0.33292 0.0
O157 O 0.34217 0.37635 0.31979 0.0
O158 O 0.31896 0.32387 0.35366 0.0
O159 O 0.31457 0.37481 0.35025 0.0
O160 O 0.3123 0.35278 0.3614 0.0
C161 C 0.34901 0.36855 0.32421 0.0
C162 C 0.29303 0.33585 0.31372 0.0
O163 O 0.29918 0.3304 0.32423 0.0
O164 O 0.29886 0.35117 0.31295 0.0
C165 C 0.32502 0.31662 0.34583 0.0
O166 O 0.32935 0.32046 0.33019 0.0
C167 C 0.31178 0.36578 0.36281 0.0
Zn168 Zn 0.30603 0.02457 0.65544 0.0
Zn169 Zn 0.33039 0.02272 0.67142 0.0
O170 O 0.3159 0.99973 0.66043 0.0
O171 O 0.29714 0.00172 0.64565 0.0
O172 O 0.34882 0.02162 0.68316 0.0
O173 O 0.29881 0.02837 0.67792 0.0
O174 O 0.31945 0.02793 0.69054 0.0
C175 C 0.30347 0.99349 0.65022 0.0
C176 C 0.33865 0.04905 0.64491 0.0
O177 O 0.3431 0.04173 0.65501 0.0
O178 O 0.32341 0.04423 0.64305 0.0
C179 C 0.35886 0.0196 0.67459 0.0
O180 O 0.35682 0.01805 0.6582 0.0
C181 C 0.30703 0.02973 0.69118 0.0
Zn182 Zn 0.9846 0.28616 0.65989 0.0
Zn183 Zn 0.9815 0.30903 0.67663 0.0
O184 O 0.00661 0.32136 0.67218 0.0
O185 O 0.0095 0.3022 0.66006 0.0
O186 O 0.97812 0.32599 0.68776 0.0
O187 O 0.97424 0.27111 0.67926 0.0
O188 O 0.97268 0.29008 0.69349 0.0
C189 C 0.0158 0.31674 0.66578 0.0
C190 C 0.96343 0.29442 0.64251 0.0
O191 O 0.96693 0.30371 0.65542 0.0
O192 O 0.96964 0.28554 0.64103 0.0
C193 C 0.98671 0.33553 0.69995 0.0
O194 O 0.99891 0.33445 0.70658 0.0
C195 C 0.97031 0.27568 0.69242 0.0
Zn196 Zn 0.68961 0.644 0.69181 0.0
Zn197 Zn 0.68967 0.66943 0.67779 0.0
O198 O 0.66584 0.65473 0.68656 0.0
O199 O 0.66534 0.6333 0.69713 0.0
O200 O 0.68866 0.68803 0.66723 0.0
O201 O 0.69597 0.63868 0.66993 0.0
O202 O 0.69649 0.65971 0.6583 0.0
C203 C 0.65803 0.64086 0.69365 0.0
C204 C 0.71328 0.67535 0.70751 0.0
O205 O 0.70751 0.68086 0.69663 0.0
O206 O 0.70769 0.66008 0.70805 0.0
C207 C 0.67647 0.68493 0.65756 0.0
O208 O 0.66492 0.66952 0.65421 0.0
C209 C 0.69837 0.64745 0.65726 0.0
Zn210 Zn 0.36634 0.3135 0.70657 0.0
Zn211 Zn 0.34117 0.31402 0.68957 0.0
O212 O 0.35544 0.33684 0.70014 0.0
O213 O 0.37608 0.33753 0.71401 0.0
O214 O 0.32498 0.31712 0.67588 0.0
O215 O 0.37297 0.30769 0.68452 0.0
O216 O 0.35261 0.30838 0.67154 0.0
C217 C 0.36859 0.34462 0.70928 0.0
C218 C 0.33257 0.28964 0.71765 0.0
O219 O 0.32781 0.29574 0.70637 0.0
O220 O 0.34794 0.29505 0.71995 0.0
C221 C 0.31263 0.31738 0.68154 0.0
O222 O 0.30877 0.31399 0.69734 0.0
C223 C 0.36482 0.30626 0.67117 0.0
Zn224 Zn 0.69132 0.06186 0.69801 0.0
Zn225 Zn 0.68474 0.0333 0.68262 0.0
O226 O 0.6628 0.02806 0.6927 0.0
O227 O 0.6673 0.05048 0.70569 0.0
O228 O 0.67758 0.0116 0.6711 0.0
O229 O 0.69781 0.07273 0.67528 0.0
O230 O 0.69279 0.04962 0.6634 0.0
C231 C 0.65751 0.03553 0.7014 0.0
C232 C 0.71135 0.04908 0.7107 0.0
O233 O 0.70297 0.03749 0.69995 0.0
O234 O 0.70874 0.06074 0.71218 0.0
C235 C 0.68582 0.0046 0.66988 0.0
O236 O 0.70096 0.01184 0.67641 0.0
C237 C 0.69748 0.06473 0.66236 0.0
Zn238 Zn 0.97815 0.7008 0.65738 0.0
Zn239 Zn 0.97404 0.67352 0.67284 0.0
O240 O 0.99787 0.68597 0.66439 0.0
O241 O 0.00168 0.70755 0.65088 0.0
O242 O 0.97325 0.65441 0.68427 0.0
O243 O 0.97433 0.70817 0.68007 0.0
O244 O 0.96894 0.68502 0.69148 0.0
C245 C 0.00715 0.69872 0.65597 0.0
C246 C 0.95136 0.66938 0.64314 0.0
O247 O 0.95626 0.66321 0.65418 0.0
O248 O 0.95833 0.68486 0.6422 0.0
C249 C 0.98557 0.6578 0.69387 0.0
O250 O 0.99737 0.67328 0.6964 0.0
C251 C 0.97003 0.69884 0.69259 0.0
C252 C 0.19209 0.25142 0.05209 0.0
C253 C 0.19562 0.2667 0.06207 0.0
C254 C 0.18568 0.26856 0.08931 0.0
C255 C 0.19143 0.28535 0.09056 0.0
C256 C 0.18378 0.29106 0.10125 0.0
C257 C 0.16977 0.27964 0.11043 0.0
C258 C 0.16395 0.26264 0.10908 0.0
C259 C 0.17234 0.25741 0.0989 0.0
C260 C 0.19057 0.30927 0.10252 0.0
C261 C 0.14863 0.24989 0.11799 0.0
C262 C 0.09423 0.29057 0.05168 0.0
C263 C 0.08789 0.29622 0.06625 0.0
C264 C 0.10979 0.3036 0.08781 0.0
C265 C 0.10467 0.28743 0.09222 0.0
C266 C 0.11435 0.28429 0.10324 0.0
C267 C 0.12959 0.29754 0.10983 0.0
C268 C 0.13469 0.31384 0.10564 0.0
C269 C 0.12461 0.31665 0.09482 0.0
C270 C 0.10844 0.26675 0.10758 0.0
C271 C 0.15096 0.32824 0.1123 0.0
C272 C 0.10565 0.30029 0.22 0.0
C273 C 0.09981 0.28536 0.21117 0.0
C274 C 0.11066 0.28269 0.20181 0.0
C275 C 0.12761 0.29536 0.20086 0.0
C276 C 0.13346 0.3105 0.20946 0.0
C277 C 0.1224 0.31272 0.21901 0.0
C278 C 0.10401 0.26626 0.19304 0.0
C279 C 0.15141 0.32431 0.20862 0.0
C280 C 0.20842 0.24556 0.22484 0.0
C281 C 0.20823 0.26143 0.22489 0.0
C282 C 0.18453 0.26447 0.21902 0.0
C283 C 0.16744 0.25476 0.21567 0.0
C284 C 0.15907 0.26092 0.2067 0.0
C285 C 0.16798 0.27744 0.20147 0.0
C286 C 0.18517 0.28761 0.20559 0.0
C287 C 0.19333 0.28095 0.21415 0.0
C288 C 0.14073 0.24967 0.20265 0.0
C289 C 0.19492 0.30546 0.20087 0.0
C290 C 0.16054 0.28533 0.12048 0.0
C291 C 0.15055 0.2897 0.11176 0.0
C292 C 0.14063 0.29417 0.12019 0.0
C293 C 0.14062 0.29436 0.13791 0.0
C294 C 0.13061 0.29856 0.1468 0.0
C295 C 0.13037 0.2983 0.16424 0.0
C296 C 0.13997 0.29361 0.17345 0.0
C297 C 0.13925 0.29259 0.19113 0.0
C298 C 0.14897 0.28789 0.19988 0.0
C299 C 0.15927 0.28387 0.19147 0.0
C300 C 0.16014 0.28478 0.17378 0.0
C301 C 0.17028 0.28075 0.16486 0.0
C302 C 0.1708 0.28137 0.14745 0.0
C303 C 0.16083 0.28558 0.13823 0.0
C304 C 0.15071 0.28997 0.14696 0.0
C305 C 0.15039 0.2896 0.16475 0.0
C306 C 0.07248 0.29649 0.24729 0.0
C307 C 0.07887 0.29212 0.23243 0.0
O308 O 0.19271 0.2628 0.07884 0.0
O309 O 0.19204 0.25756 0.22707 0.0
O310 O 0.09566 0.30309 0.22976 0.0
O311 O 0.10105 0.30718 0.07675 0.0
H312 H 0.18675 0.27016 0.05723 0.0
H313 H 0.17898 0.24134 0.05379 0.0
H314 H 0.20043 0.24721 0.05645 0.0
H315 H 0.19394 0.2541 0.03851 0.0
H316 H 0.20196 0.294 0.08331 0.0
H317 H 0.16807 0.24447 0.09781 0.0
H318 H 0.18205 0.31203 0.09564 0.0
H319 H 0.20311 0.31663 0.09708 0.0
H320 H 0.1913 0.3132 0.11582 0.0
H321 H 0.14385 0.23729 0.11289 0.0
H322 H 0.13855 0.25257 0.11694 0.0
H323 H 0.1517 0.25008 0.1315 0.0
H324 H 0.07885 0.28535 0.07345 0.0
H325 H 0.10352 0.30129 0.04446 0.0
H326 H 0.1002 0.284 0.05645 0.0
H327 H 0.08372 0.28202 0.04313 0.0
H328 H 0.09323 0.27711 0.08708 0.0
H329 H 0.12847 0.32908 0.09143 0.0
H330 H 0.10903 0.26562 0.12137 0.0
H331 H 0.11676 0.26317 0.10189 0.0
H332 H 0.0955 0.25799 0.10296 0.0
H333 H 0.15332 0.34015 0.10759 0.0
H334 H 0.16137 0.32673 0.10861 0.0
H335 H 0.15092 0.32862 0.12621 0.0
H336 H 0.07109 0.28889 0.22071 0.0
H337 H 0.08684 0.27567 0.21164 0.0
H338 H 0.1268 0.3242 0.22581 0.0
H339 H 0.10435 0.26784 0.17926 0.0
H340 H 0.091 0.25714 0.19645 0.0
H341 H 0.11195 0.26124 0.19622 0.0
H342 H 0.1537 0.33577 0.21488 0.0
H343 H 0.15511 0.32691 0.19533 0.0
H344 H 0.15948 0.32055 0.21477 0.0
H345 H 0.21263 0.26704 0.21239 0.0
H346 H 0.2212 0.24824 0.22272 0.0
H347 H 0.2001 0.23717 0.21458 0.0
H348 H 0.204 0.23921 0.23695 0.0
H349 H 0.16075 0.24213 0.2197 0.0
H350 H 0.2065 0.28866 0.21717 0.0
H351 H 0.1382 0.25008 0.18908 0.0
H352 H 0.13361 0.25392 0.20972 0.0
H353 H 0.13608 0.23673 0.20596 0.0
H354 H 0.2075 0.31223 0.20695 0.0
H355 H 0.18811 0.31155 0.20446 0.0
H356 H 0.19636 0.30634 0.18707 0.0
H357 H 0.15018 0.28923 0.09815 0.0
H358 H 0.12278 0.30204 0.14036 0.0
H359 H 0.12242 0.30165 0.17041 0.0
H360 H 0.14813 0.28687 0.21341 0.0
H361 H 0.17794 0.27703 0.17123 0.0
H362 H 0.17894 0.27826 0.14128 0.0
H363 H 0.06309 0.29921 0.24198 0.0
H364 H 0.08198 0.3097 0.25072 0.0
H365 H 0.066 0.27713 0.26371 0.0
C366 C 0.72632 0.91461 0.03946 0.0
C367 C 0.71403 0.91185 0.05317 0.0
C368 C 0.72172 0.90771 0.08098 0.0
C369 C 0.70635 0.89535 0.08694 0.0
C370 C 0.70553 0.88465 0.09932 0.0
C371 C 0.7204 0.88625 0.10566 0.0
C372 C 0.73596 0.89913 0.10007 0.0
C373 C 0.73641 0.9099 0.08796 0.0
C374 C 0.68874 0.87141 0.10535 0.0
C375 C 0.75207 0.9012 0.10652 0.0
C376 C 0.70349 0.76707 0.07224 0.0
C377 C 0.71168 0.78281 0.08208 0.0
C378 C 0.70527 0.80279 0.09322 0.0
C379 C 0.72124 0.81383 0.10009 0.0
C380 C 0.72457 0.82805 0.10897 0.0
C381 C 0.71155 0.831 0.1115 0.0
C382 C 0.69537 0.81963 0.10502 0.0
C383 C 0.69253 0.8058 0.09578 0.0
C384 C 0.74207 0.84006 0.11537 0.0
C385 C 0.68109 0.82219 0.10755 0.0
C386 C 0.71442 0.81697 0.22353 0.0
C387 C 0.72997 0.82696 0.21622 0.0
C388 C 0.73274 0.83981 0.20568 0.0
C389 C 0.71962 0.84251 0.20223 0.0
C390 C 0.70401 0.83249 0.20968 0.0
C391 C 0.7017 0.81997 0.22038 0.0
C392 C 0.74963 0.85046 0.19818 0.0
C393 C 0.68972 0.83496 0.20631 0.0
C394 C 0.73644 0.96599 0.2057 0.0
C395 C 0.72797 0.94909 0.21379 0.0
C396 C 0.73575 0.92863 0.20911 0.0
C397 C 0.74917 0.92719 0.20463 0.0
C398 C 0.74664 0.91233 0.19812 0.0
C399 C 0.73024 0.89858 0.19612 0.0
C400 C 0.71666 0.89972 0.20139 0.0
C401 C 0.71956 0.91468 0.20798 0.0
C402 C 0.76143 0.91142 0.19296 0.0
C403 C 0.69904 0.88518 0.1998 0.0
C404 C 0.71958 0.87378 0.11722 0.0
C405 C 0.71656 0.85901 0.11013 0.0
C406 C 0.71501 0.84638 0.12011 0.0
C407 C 0.71659 0.84851 0.13776 0.0
C408 C 0.71462 0.83592 0.14825 0.0
C409 C 0.7164 0.83822 0.16558 0.0
C410 C 0.72021 0.8532 0.17312 0.0
C411 C 0.7221 0.85569 0.19073 0.0
C412 C 0.72568 0.87067 0.19781 0.0
C413 C 0.7272 0.88326 0.18777 0.0
C414 C 0.72531 0.881 0.17014 0.0
C415 C 0.72651 0.89332 0.1597 0.0
C416 C 0.72456 0.89097 0.14238 0.0
C417 C 0.72146 0.87625 0.13482 0.0
C418 C 0.72005 0.86359 0.14511 0.0
C419 C 0.72193 0.86596 0.1628 0.0
C420 C 0.71266 0.78302 0.24709 0.0
C421 C 0.72061 0.79733 0.23585 0.0
O422 O 0.72265 0.91755 0.0684 0.0
O423 O 0.73895 0.94362 0.21434 0.0
O424 O 0.71113 0.80439 0.23372 0.0
O425 O 0.70167 0.7893 0.08388 0.0
H426 H 0.70486 0.89835 0.05348 0.0
H427 H 0.7326 0.90782 0.0424 0.0
H428 H 0.73596 0.92789 0.03857 0.0
H429 H 0.71969 0.91002 0.02713 0.0
H430 H 0.69501 0.89404 0.08183 0.0
H431 H 0.74822 0.91966 0.08338 0.0
H432 H 0.68591 0.8593 0.1004 0.0
H433 H 0.67863 0.87332 0.10112 0.0
H434 H 0.68885 0.87098 0.11925 0.0
H435 H 0.7631 0.91148 0.10046 0.0
H436 H 0.75198 0.88968 0.10424 0.0
H437 H 0.75333 0.90361 0.12026 0.0
H438 H 0.72457 0.79198 0.0782 0.0
H439 H 0.69256 0.76618 0.0653 0.0
H440 H 0.71122 0.76982 0.06074 0.0
H441 H 0.70088 0.74979 0.08978 0.0
H442 H 0.73124 0.81164 0.09831 0.0
H443 H 0.68025 0.7972 0.09048 0.0
H444 H 0.74243 0.84007 0.12928 0.0
H445 H 0.74609 0.8527 0.11147 0.0
H446 H 0.75113 0.83694 0.11073 0.0
H447 H 0.66886 0.81082 0.10475 0.0
H448 H 0.68245 0.83189 0.09902 0.0
H449 H 0.68119 0.82635 0.12062 0.0
H450 H 0.72517 0.79523 0.22384 0.0
H451 H 0.73999 0.82488 0.2188 0.0
H452 H 0.68979 0.81224 0.22618 0.0
H453 H 0.74856 0.84866 0.18435 0.0
H454 H 0.75887 0.84759 0.20308 0.0
H455 H 0.75432 0.86363 0.20089 0.0
H456 H 0.67794 0.82513 0.21174 0.0
H457 H 0.68774 0.83529 0.19259 0.0
H458 H 0.69279 0.84696 0.21183 0.0
H459 H 0.71705 0.94105 0.20538 0.0
H460 H 0.72824 0.97106 0.20609 0.0
H461 H 0.73894 0.96478 0.19237 0.0
H462 H 0.74852 0.97478 0.21208 0.0
H463 H 0.76165 0.93791 0.20584 0.0
H464 H 0.70912 0.91537 0.21217 0.0
H465 H 0.76088 0.90939 0.17918 0.0
H466 H 0.76105 0.90081 0.19897 0.0
H467 H 0.77343 0.92281 0.19641 0.0
H468 H 0.68977 0.88819 0.20402 0.0
H469 H 0.69779 0.87498 0.20743 0.0
H470 H 0.69608 0.88073 0.18655 0.0
H471 H 0.71525 0.85726 0.0966 0.0
H472 H 0.7117 0.82413 0.14316 0.0
H473 H 0.71478 0.82809 0.17301 0.0
H474 H 0.72698 0.87245 0.21133 0.0
H475 H 0.72895 0.90494 0.16478 0.0
H476 H 0.72557 0.90086 0.13497 0.0
H477 H 0.70986 0.77222 0.23881 0.0
H478 H 0.69925 0.77929 0.24812 0.0
H479 H 0.72902 0.79065 0.26784 0.0
C480 C 0.18632 0.90226 0.0545 0.0
C481 C 0.198 0.91845 0.06415 0.0
C482 C 0.18769 0.90794 0.09215 0.0
C483 C 0.17371 0.90948 0.09199 0.0
C484 C 0.16086 0.90083 0.10334 0.0
C485 C 0.16186 0.89018 0.11483 0.0
C486 C 0.17619 0.889 0.11531 0.0
C487 C 0.18907 0.8982 0.10417 0.0
C488 C 0.14599 0.90273 0.1027 0.0
C489 C 0.17764 0.87754 0.12709 0.0
C490 C 0.04367 0.79485 0.08173 0.0
C491 C 0.05982 0.796 0.0766 0.0
C492 C 0.08143 0.81111 0.09857 0.0
C493 C 0.09272 0.80984 0.10894 0.0
C494 C 0.10568 0.82363 0.11752 0.0
C495 C 0.10688 0.83897 0.11628 0.0
C496 C 0.09539 0.84033 0.1059 0.0
C497 C 0.08292 0.82644 0.09696 0.0
C498 C 0.11804 0.82173 0.12791 0.0
C499 C 0.09624 0.85646 0.10428 0.0
C500 C 0.0801 0.82073 0.22286 0.0
C501 C 0.09516 0.82156 0.22007 0.0
C502 C 0.10813 0.83489 0.21174 0.0
C503 C 0.10613 0.84782 0.20638 0.0
C504 C 0.09137 0.84749 0.21006 0.0
C505 C 0.07855 0.83395 0.21834 0.0
C506 C 0.12389 0.83505 0.20841 0.0
C507 C 0.08897 0.86122 0.2048 0.0
C508 C 0.20803 0.9676 0.22748 0.0
C509 C 0.20145 0.95336 0.23967 0.0
C510 C 0.18651 0.92734 0.22311 0.0
C511 C 0.18691 0.91338 0.21873 0.0
C512 C 0.17364 0.90014 0.20982 0.0
C513 C 0.15967 0.90101 0.20497 0.0
C514 C 0.15918 0.91515 0.20924 0.0
C515 C 0.17261 0.92819 0.21829 0.0
C516 C 0.17454 0.88522 0.20558 0.0
C517 C 0.14451 0.91648 0.20411 0.0
C518 C 0.14727 0.87905 0.12506 0.0
C519 C 0.13407 0.86515 0.11697 0.0
C520 C 0.1202 0.85359 0.12574 0.0
C521 C 0.11946 0.85578 0.14319 0.0
C522 C 0.10577 0.84431 0.15244 0.0
C523 C 0.10559 0.84606 0.16975 0.0
C524 C 0.11891 0.85957 0.17843 0.0
C525 C 0.1191 0.86112 0.19609 0.0
C526 C 0.13235 0.8749 0.2043 0.0
C527 C 0.14563 0.88715 0.19534 0.0
C528 C 0.14582 0.88564 0.17768 0.0
C529 C 0.1591 0.89758 0.16828 0.0
C530 C 0.1595 0.8956 0.15101 0.0
C531 C 0.14665 0.8816 0.14248 0.0
C532 C 0.13282 0.86975 0.15161 0.0
C533 C 0.13246 0.87173 0.16923 0.0
C534 C 0.0479 0.78342 0.21405 0.0
C535 C 0.06193 0.79121 0.22741 0.0
O536 O 0.19989 0.91532 0.08074 0.0
O537 O 0.1999 0.93964 0.23173 0.0
O538 O 0.06696 0.80756 0.23005 0.0
O539 O 0.0692 0.79721 0.09068 0.0
H540 H 0.19273 0.92645 0.0637 0.0
H541 H 0.17374 0.89584 0.05994 0.0
H542 H 0.19129 0.89401 0.05506 0.0
H543 H 0.18491 0.90463 0.04116 0.0
H544 H 0.17271 0.91732 0.083 0.0
H545 H 0.19999 0.89723 0.10427 0.0
H546 H 0.13539 0.89172 0.09639 0.0
H547 H 0.14854 0.91374 0.09563 0.0
H548 H 0.14219 0.90368 0.11556 0.0
H549 H 0.18877 0.8768 0.12466 0.0
H550 H 0.16638 0.86499 0.12589 0.0
H551 H 0.17852 0.88189 0.14023 0.0
H552 H 0.067 0.80702 0.06873 0.0
H553 H 0.03598 0.79341 0.07041 0.0
H554 H 0.04645 0.80618 0.08862 0.0
H555 H 0.03634 0.78425 0.09001 0.0
H556 H 0.09148 0.79796 0.11007 0.0
H557 H 0.07426 0.82762 0.089 0.0
H558 H 0.11555 0.82203 0.14141 0.0
H559 H 0.13094 0.83201 0.12571 0.0
H560 H 0.11723 0.80993 0.12506 0.0
H561 H 0.08507 0.85498 0.09769 0.0
H562 H 0.10738 0.86506 0.09711 0.0
H563 H 0.09749 0.86215 0.11686 0.0
H564 H 0.07208 0.78998 0.22224 0.0
H565 H 0.09694 0.81191 0.22444 0.0
H566 H 0.06704 0.83339 0.22089 0.0
H567 H 0.12577 0.83526 0.19468 0.0
H568 H 0.12362 0.82418 0.21359 0.0
H569 H 0.13474 0.84635 0.21404 0.0
H570 H 0.07719 0.85962 0.20943 0.0
H571 H 0.08884 0.86174 0.19091 0.0
H572 H 0.09956 0.87319 0.20962 0.0
H573 H 0.18914 0.95048 0.24422 0.0
H574 H 0.20947 0.97866 0.23388 0.0
H575 H 0.19919 0.96423 0.21669 0.0
H576 H 0.22026 0.97065 0.22259 0.0
H577 H 0.19771 0.91286 0.22245 0.0
H578 H 0.1722 0.93901 0.22134 0.0
H579 H 0.17426 0.8836 0.19176 0.0
H580 H 0.16354 0.87404 0.21052 0.0
H581 H 0.186 0.88621 0.21082 0.0
H582 H 0.14614 0.92842 0.20807 0.0
H583 H 0.13304 0.90638 0.20975 0.0
H584 H 0.14266 0.91506 0.19028 0.0
H585 H 0.1347 0.86317 0.10365 0.0
H586 H 0.09514 0.83369 0.14646 0.0
H587 H 0.09487 0.83664 0.17623 0.0
H588 H 0.13251 0.87592 0.21787 0.0
H589 H 0.16942 0.90852 0.17421 0.0
H590 H 0.17008 0.90509 0.14443 0.0
H591 H 0.04277 0.77 0.2128 0.0
H592 H 0.05286 0.78906 0.20174 0.0
H593 H 0.03772 0.7855 0.21712 0.0
C594 C 0.32882 0.09745 0.95747 0.0
C595 C 0.32799 0.11076 0.94891 0.0
C596 C 0.31023 0.11448 0.92907 0.0
C597 C 0.29418 0.10686 0.92202 0.0
C598 C 0.28872 0.11589 0.91324 0.0
C599 C 0.29991 0.13291 0.91082 0.0
C600 C 0.31629 0.14066 0.9177 0.0
C601 C 0.32119 0.13144 0.92697 0.0
C602 C 0.27094 0.1072 0.90671 0.0
C603 C 0.32867 0.15874 0.91541 0.0
C604 C 0.28143 0.19853 0.97977 0.0
C605 C 0.29187 0.20891 0.9652 0.0
C606 C 0.28274 0.19532 0.93802 0.0
C607 C 0.29786 0.20029 0.93035 0.0
C608 C 0.29894 0.19021 0.9182 0.0
C609 C 0.28461 0.17479 0.91382 0.0
C610 C 0.26916 0.17015 0.92096 0.0
C611 C 0.26839 0.18064 0.93286 0.0
C612 C 0.3155 0.1958 0.91044 0.0
C613 C 0.25365 0.15384 0.91651 0.0
C614 C 0.25589 0.18323 0.80603 0.0
C615 C 0.27267 0.19158 0.81129 0.0
C616 C 0.2792 0.18329 0.81971 0.0
C617 C 0.26859 0.16643 0.82339 0.0
C618 C 0.25168 0.15801 0.81796 0.0
C619 C 0.24566 0.16648 0.80906 0.0
C620 C 0.29747 0.19252 0.82456 0.0
C621 C 0.23992 0.14007 0.82159 0.0
C622 C 0.29092 0.07113 0.81189 0.0
C623 C 0.28465 0.07492 0.79577 0.0
C624 C 0.28949 0.10235 0.80269 0.0
C625 C 0.30118 0.11916 0.80164 0.0
C626 C 0.29942 0.13079 0.81069 0.0
C627 C 0.28534 0.12544 0.82073 0.0
C628 C 0.27307 0.10847 0.82131 0.0
C629 C 0.27539 0.09707 0.8125 0.0
C630 C 0.31276 0.14877 0.80977 0.0
C631 C 0.25756 0.10231 0.8314 0.0
C632 C 0.29438 0.14271 0.90155 0.0
C633 C 0.29135 0.1533 0.91083 0.0
C634 C 0.28624 0.163 0.90304 0.0
C635 C 0.28345 0.16174 0.88547 0.0
C636 C 0.27771 0.17084 0.87729 0.0
C637 C 0.27482 0.16935 0.86 0.0
C638 C 0.27794 0.159 0.85017 0.0
C639 C 0.27516 0.15746 0.83256 0.0
C640 C 0.278 0.1467 0.82332 0.0
C641 C 0.28368 0.13746 0.83111 0.0
C642 C 0.28699 0.13921 0.8486 0.0
C643 C 0.29334 0.13059 0.85673 0.0
C644 C 0.29596 0.13187 0.87402 0.0
C645 C 0.29229 0.14177 0.88388 0.0
C646 C 0.28652 0.1511 0.87586 0.0
C647 C 0.28387 0.14982 0.85819 0.0
C648 C 0.23755 0.20747 0.79967 0.0
C649 C 0.25343 0.20695 0.80041 0.0
O650 O 0.31461 0.10506 0.93768 0.0
O651 O 0.29239 0.0918 0.79405 0.0
O652 O 0.24921 0.19084 0.79776 0.0
O653 O 0.2819 0.2043 0.95078 0.0
H654 H 0.34007 0.12048 0.94376 0.0
H655 H 0.34077 0.09877 0.95325 0.0
H656 H 0.32056 0.08581 0.94991 0.0
H657 H 0.32461 0.10031 0.98259 0.0
H658 H 0.28577 0.09379 0.92374 0.0
H659 H 0.33367 0.13759 0.93233 0.0
H660 H 0.26534 0.11466 0.9094 0.0
H661 H 0.26312 0.09492 0.91229 0.0
H662 H 0.27067 0.10549 0.89291 0.0
H663 H 0.34163 0.1621 0.9184 0.0
H664 H 0.3256 0.16596 0.92392 0.0
H665 H 0.32808 0.16233 0.90235 0.0
H666 H 0.30202 0.20634 0.96369 0.0
H667 H 0.28919 0.20207 0.99148 0.0
H668 H 0.27646 0.18533 0.97695 0.0
H669 H 0.27077 0.20016 0.98182 0.0
H670 H 0.30884 0.21192 0.9341 0.0
H671 H 0.25673 0.17705 0.93877 0.0
H672 H 0.31403 0.19434 0.89658 0.0
H673 H 0.32021 0.188 0.9149 0.0
H674 H 0.32494 0.20883 0.91372 0.0
H675 H 0.24252 0.15221 0.92289 0.0
H676 H 0.25547 0.1437 0.92011 0.0
H677 H 0.25127 0.15281 0.90275 0.0
H678 H 0.25901 0.21125 0.81326 0.0
H679 H 0.28073 0.20448 0.80855 0.0
H680 H 0.23277 0.16013 0.80477 0.0
H681 H 0.29896 0.19446 0.83837 0.0
H682 H 0.30447 0.20472 0.81861 0.0
H683 H 0.30307 0.18527 0.82093 0.0
H684 H 0.22675 0.13599 0.81866 0.0
H685 H 0.24105 0.13769 0.83499 0.0
H686 H 0.24323 0.1325 0.81392 0.0
H687 H 0.27095 0.06924 0.7962 0.0
H688 H 0.2848 0.05764 0.81334 0.0
H689 H 0.28797 0.07616 0.82298 0.0
H690 H 0.30462 0.07672 0.81164 0.0
H691 H 0.31196 0.12313 0.79396 0.0
H692 H 0.2661 0.08414 0.81339 0.0
H693 H 0.31726 0.15404 0.82261 0.0
H694 H 0.30747 0.15555 0.80388 0.0
H695 H 0.32353 0.15081 0.80238 0.0
H696 H 0.248 0.08928 0.82827 0.0
H697 H 0.25207 0.10995 0.82922 0.0
H698 H 0.26084 0.10326 0.84495 0.0
H699 H 0.2932 0.15416 0.92435 0.0
H700 H 0.2752 0.17908 0.8842 0.0
H701 H 0.27014 0.17646 0.85443 0.0
H702 H 0.27551 0.14529 0.80989 0.0
H703 H 0.2963 0.1227 0.84983 0.0
H704 H 0.30083 0.12492 0.87958 0.0
H705 H 0.23129 0.20322 0.78713 0.0
H706 H 0.24046 0.22018 0.80221 0.0
H707 H 0.22883 0.19933 0.8093 0.0
C708 C 0.79948 0.03924 0.94493 0.0
C709 C 0.79804 0.0543 0.94761 0.0
C710 C 0.80759 0.07376 0.92463 0.0
C711 C 0.80195 0.08218 0.91524 0.0
C712 C 0.81311 0.09666 0.90704 0.0
C713 C 0.83032 0.1024 0.90765 0.0
C714 C 0.83609 0.09374 0.9169 0.0
C715 C 0.82466 0.07955 0.92544 0.0
C716 C 0.80646 0.1058 0.89779 0.0
C717 C 0.8543 0.09936 0.91762 0.0
C718 C 0.92181 0.22883 0.95394 0.0
C719 C 0.9162 0.21403 0.94306 0.0
C720 C 0.89057 0.1904 0.93143 0.0
C721 C 0.89804 0.18208 0.92516 0.0
C722 C 0.88888 0.16781 0.91509 0.0
C723 C 0.87201 0.16193 0.91096 0.0
C724 C 0.86444 0.17024 0.91733 0.0
C725 C 0.87381 0.18429 0.92765 0.0
C726 C 0.89721 0.15899 0.9089 0.0
C727 C 0.8465 0.16434 0.91317 0.0
C728 C 0.89996 0.19176 0.8027 0.0
C729 C 0.90538 0.1819 0.80976 0.0
C730 C 0.89439 0.16764 0.81839 0.0
C731 C 0.87769 0.16325 0.82025 0.0
C732 C 0.87226 0.17329 0.81347 0.0
C733 C 0.88349 0.18743 0.80475 0.0
C734 C 0.9006 0.1572 0.82548 0.0
C735 C 0.85459 0.16905 0.81543 0.0
C736 C 0.792 0.03013 0.78963 0.0
C737 C 0.79354 0.04677 0.79185 0.0
C738 C 0.81834 0.07371 0.79837 0.0
C739 C 0.83553 0.08128 0.80066 0.0
C740 C 0.84477 0.09592 0.81015 0.0
C741 C 0.83661 0.10344 0.81707 0.0
C742 C 0.8193 0.09627 0.81404 0.0
C743 C 0.8103 0.08135 0.8049 0.0
C744 C 0.86319 0.10318 0.813 0.0
C745 C 0.81028 0.10427 0.82057 0.0
C746 C 0.84219 0.11748 0.8986 0.0
C747 C 0.85165 0.13209 0.90795 0.0
C748 C 0.86221 0.14697 0.90015 0.0
C749 C 0.86319 0.14741 0.88246 0.0
C750 C 0.87322 0.16224 0.87414 0.0
C751 C 0.87415 0.16252 0.85674 0.0
C752 C 0.86501 0.14798 0.84698 0.0
C753 C 0.86598 0.14812 0.82932 0.0
C754 C 0.85639 0.13352 0.81995 0.0
C755 C 0.84612 0.11857 0.82778 0.0
C756 C 0.84538 0.11812 0.84549 0.0
C757 C 0.83571 0.10323 0.85386 0.0
C758 C 0.83477 0.10297 0.87125 0.0
C759 C 0.8435 0.11756 0.88096 0.0
C760 C 0.85382 0.13263 0.87285 0.0
C761 C 0.8547 0.13292 0.85509 0.0
C762 C 0.93207 0.22151 0.77436 0.0
C763 C 0.92607 0.21012 0.78875 0.0
O764 O 0.79614 0.05986 0.93227 0.0
O765 O 0.80999 0.05913 0.78975 0.0
O766 O 0.91011 0.20527 0.79361 0.0
O767 O 0.89905 0.20429 0.94115 0.0
H768 H 0.80955 0.06402 0.95432 0.0
H769 H 0.80082 0.0346 0.9572 0.0
H770 H 0.81062 0.0426 0.93748 0.0
H771 H 0.78832 0.02927 0.93808 0.0
H772 H 0.78872 0.07751 0.91465 0.0
H773 H 0.82902 0.07282 0.9324 0.0
H774 H 0.81421 0.11918 0.90078 0.0
H775 H 0.79336 0.10133 0.90094 0.0
H776 H 0.80697 0.1041 0.88409 0.0
H777 H 0.85654 0.0903 0.92376 0.0
H778 H 0.86136 0.1112 0.92476 0.0
H779 H 0.8593 0.10151 0.90477 0.0
H780 H 0.92275 0.21642 0.93093 0.0
H781 H 0.93331 0.22507 0.97446 0.0
H782 H 0.91079 0.23029 0.9552 0.0
H783 H 0.9287 0.23952 0.94535 0.0
H784 H 0.91096 0.18656 0.92822 0.0
H785 H 0.86814 0.19074 0.93261 0.0
H786 H 0.88959 0.14575 0.91193 0.0
H787 H 0.9099 0.16423 0.91449 0.0
H788 H 0.89818 0.15985 0.89506 0.0
H789 H 0.8429 0.17298 0.9179 0.0
H790 H 0.83831 0.15217 0.91883 0.0
H791 H 0.84426 0.16275 0.89938 0.0
H792 H 0.93501 0.21382 0.79959 0.0
H793 H 0.91816 0.1852 0.80851 0.0
H794 H 0.87942 0.19511 0.79934 0.0
H795 H 0.89956 0.15684 0.83933 0.0
H796 H 0.91376 0.16191 0.82236 0.0
H797 H 0.89276 0.14438 0.82055 0.0
H798 H 0.85243 0.1784 0.8099 0.0
H799 H 0.85158 0.16794 0.82894 0.0
H800 H 0.8459 0.15694 0.80925 0.0
H801 H 0.78984 0.04733 0.80493 0.0
H802 H 0.77896 0.01998 0.79156 0.0
H803 H 0.80017 0.02905 0.79899 0.0
H804 H 0.79577 0.02881 0.77687 0.0
H805 H 0.84164 0.07538 0.79537 0.0
H806 H 0.79704 0.07578 0.80276 0.0
H807 H 0.8665 0.10589 0.82656 0.0
H808 H 0.87021 0.11495 0.80631 0.0
H809 H 0.86725 0.09486 0.80843 0.0
H810 H 0.79759 0.09869 0.81486 0.0
H811 H 0.81743 0.11764 0.81802 0.0
H812 H 0.8091 0.10287 0.83435 0.0
H813 H 0.85065 0.13192 0.92149 0.0
H814 H 0.88047 0.17382 0.88099 0.0
H815 H 0.88208 0.1743 0.85103 0.0
H816 H 0.85716 0.13376 0.80639 0.0
H817 H 0.8287 0.09161 0.84706 0.0
H818 H 0.82708 0.09115 0.87698 0.0
H819 H 0.943 0.23333 0.7796 0.0
H820 H 0.92363 0.2265 0.77322 0.0
H821 H 0.93437 0.20773 0.75512 0.0
C822 C 0.77496 0.70792 0.95759 0.0
C823 C 0.7917 0.7187 0.95039 0.0
C824 C 0.8149 0.71598 0.9421 0.0
C825 C 0.825 0.73163 0.93538 0.0
C826 C 0.83855 0.73508 0.92539 0.0
C827 C 0.84154 0.72238 0.92145 0.0
C828 C 0.83123 0.70657 0.92818 0.0
C829 C 0.81831 0.70373 0.93874 0.0
C830 C 0.84968 0.75231 0.91919 0.0
C831 C 0.83386 0.69261 0.92441 0.0
C832 C 0.93051 0.7362 0.98204 0.0
C833 C 0.92517 0.72249 0.96886 0.0
C834 C 0.92011 0.7292 0.94125 0.0
C835 C 0.90678 0.71431 0.93482 0.0
C836 C 0.89515 0.7141 0.92351 0.0
C837 C 0.89679 0.72912 0.91885 0.0
C838 C 0.91073 0.7442 0.92474 0.0
C839 C 0.92239 0.74404 0.93573 0.0
C840 C 0.88081 0.69781 0.91701 0.0
C841 C 0.9129 0.76042 0.91998 0.0
C842 C 0.92134 0.74094 0.80739 0.0
C843 C 0.91001 0.72527 0.81339 0.0
C844 C 0.89687 0.72272 0.82355 0.0
C845 C 0.89529 0.73621 0.82801 0.0
C846 C 0.90672 0.752 0.82186 0.0
C847 C 0.91942 0.75407 0.81136 0.0
C848 C 0.88457 0.7056 0.82933 0.0
C849 C 0.90547 0.7667 0.82623 0.0
C850 C 0.79604 0.75215 0.80964 0.0
C851 C 0.80001 0.74199 0.79777 0.0
C852 C 0.81375 0.73055 0.81422 0.0
C853 C 0.81246 0.71581 0.81852 0.0
C854 C 0.82568 0.71569 0.82663 0.0
C855 C 0.8404 0.73077 0.83099 0.0
C856 C 0.84176 0.74576 0.82681 0.0
C857 C 0.8285 0.74551 0.81831 0.0
C858 C 0.82388 0.69945 0.83061 0.0
C859 C 0.8572 0.76209 0.83142 0.0
C860 C 0.85569 0.72564 0.91076 0.0
C861 C 0.86959 0.7268 0.91862 0.0
C862 C 0.88302 0.72893 0.90941 0.0
C863 C 0.88282 0.73028 0.89178 0.0
C864 C 0.89615 0.73254 0.88213 0.0
C865 C 0.89581 0.73383 0.86477 0.0
C866 C 0.88202 0.73268 0.85638 0.0
C867 C 0.88145 0.73378 0.83873 0.0
C868 C 0.86767 0.73291 0.83087 0.0
C869 C 0.85431 0.73091 0.84013 0.0
C870 C 0.85451 0.72947 0.85775 0.0
C871 C 0.84112 0.7271 0.86742 0.0
C872 C 0.84135 0.72556 0.88472 0.0
C873 C 0.85519 0.72685 0.89312 0.0
C874 C 0.86885 0.72925 0.88362 0.0
C875 C 0.86845 0.73044 0.8659 0.0
C876 C 0.96127 0.75347 0.80667 0.0
C877 C 0.94493 0.73856 0.79991 0.0
O878 O 0.80179 0.71224 0.95188 0.0
O879 O 0.8004 0.72971 0.80643 0.0
O880 O 0.93377 0.7436 0.7971 0.0
O881 O 0.9305 0.72941 0.95327 0.0
H882 H 0.79812 0.73195 0.95413 0.0
H883 H 0.77594 0.69908 0.96602 0.0
H884 H 0.75874 0.70018 0.93668 0.0
H885 H 0.77437 0.71542 0.96822 0.0
H886 H 0.82256 0.74125 0.93821 0.0
H887 H 0.81047 0.69173 0.9441 0.0
H888 H 0.86298 0.75621 0.92067 0.0
H889 H 0.8477 0.76132 0.92597 0.0
H890 H 0.84703 0.75265 0.90566 0.0
H891 H 0.82266 0.68048 0.92711 0.0
H892 H 0.84432 0.69417 0.93242 0.0
H893 H 0.8371 0.69258 0.9111 0.0
H894 H 0.9113 0.71473 0.96892 0.0
H895 H 0.92629 0.73091 0.99463 0.0
H896 H 0.9248 0.74349 0.9789 0.0
H897 H 0.94426 0.74458 0.98246 0.0
H898 H 0.90534 0.70288 0.93894 0.0
H899 H 0.93288 0.75547 0.94071 0.0
H900 H 0.87898 0.69823 0.90328 0.0
H901 H 0.86925 0.69522 0.92313 0.0
H902 H 0.88275 0.68754 0.91962 0.0
H903 H 0.9246 0.77107 0.92533 0.0
H904 H 0.90222 0.76111 0.92449 0.0
H905 H 0.91299 0.76138 0.90612 0.0
H906 H 0.94029 0.72887 0.80953 0.0
H907 H 0.91118 0.71499 0.80977 0.0
H908 H 0.92812 0.76606 0.80641 0.0
H909 H 0.88588 0.70507 0.84311 0.0
H910 H 0.88646 0.6962 0.82329 0.0
H911 H 0.87165 0.70244 0.8265 0.0
H912 H 0.91681 0.77845 0.82283 0.0
H913 H 0.90342 0.76711 0.83985 0.0
H914 H 0.89466 0.76563 0.81932 0.0
H915 H 0.81233 0.75042 0.7922 0.0
H916 H 0.79488 0.76141 0.80248 0.0
H917 H 0.7843 0.74417 0.8163 0.0
H918 H 0.80616 0.75878 0.81922 0.0
H919 H 0.80104 0.70433 0.81533 0.0
H920 H 0.82971 0.75705 0.81517 0.0
H921 H 0.82364 0.698 0.84441 0.0
H922 H 0.83473 0.69915 0.82596 0.0
H923 H 0.81231 0.68886 0.82498 0.0
H924 H 0.85572 0.77262 0.82873 0.0
H925 H 0.86781 0.76352 0.82421 0.0
H926 H 0.86038 0.76251 0.84495 0.0
H927 H 0.86984 0.72574 0.93214 0.0
H928 H 0.90703 0.73339 0.8879 0.0
H929 H 0.90649 0.73569 0.85801 0.0
H930 H 0.86738 0.73393 0.81735 0.0
H931 H 0.83023 0.72626 0.86171 0.0
H932 H 0.83057 0.72347 0.89144 0.0
H933 H 0.96699 0.76305 0.79699 0.0
H934 H 0.97026 0.74993 0.8106 0.0
H935 H 0.95881 0.75883 0.81784 0.0
C936 C 0.86103 0.5946 0.37999 0.0
C937 C 0.86489 0.6095 0.39087 0.0
C938 C 0.85322 0.60986 0.4176 0.0
C939 C 0.85892 0.6266 0.41952 0.0
C940 C 0.85074 0.63184 0.43002 0.0
C941 C 0.83626 0.62002 0.43836 0.0
C942 C 0.83049 0.60309 0.43636 0.0
C943 C 0.83939 0.59829 0.42637 0.0
C944 C 0.85746 0.65 0.43201 0.0
C945 C 0.81473 0.58997 0.44435 0.0
C946 C 0.75876 0.63071 0.38002 0.0
C947 C 0.75315 0.63672 0.39494 0.0
C948 C 0.77579 0.644 0.41554 0.0
C949 C 0.77064 0.62781 0.41993 0.0
C950 C 0.78053 0.62462 0.43057 0.0
C951 C 0.79597 0.63783 0.43683 0.0
C952 C 0.80115 0.65413 0.43258 0.0
C953 C 0.79089 0.657 0.42211 0.0
C954 C 0.77455 0.60708 0.43498 0.0
C955 C 0.81762 0.66846 0.43893 0.0
C956 C 0.77028 0.64129 0.5456 0.0
C957 C 0.76405 0.62655 0.53627 0.0
C958 C 0.77477 0.62324 0.52752 0.0
C959 C 0.79203 0.63517 0.52755 0.0
C960 C 0.79831 0.65015 0.53663 0.0
C961 C 0.78735 0.65294 0.54565 0.0
C962 C 0.76762 0.60693 0.51833 0.0
C963 C 0.8166 0.6632 0.53683 0.0
C964 C 0.8672 0.57928 0.55451 0.0
C965 C 0.86756 0.5954 0.55346 0.0
C966 C 0.84491 0.59984 0.54679 0.0
C967 C 0.82791 0.59091 0.54285 0.0
C968 C 0.82047 0.59798 0.5338 0.0
C969 C 0.83026 0.61463 0.52912 0.0
C970 C 0.84735 0.62401 0.53386 0.0
C971 C 0.85457 0.61644 0.54244 0.0
C972 C 0.8022 0.58755 0.52906 0.0
C973 C 0.858 0.64198 0.52976 0.0
C974 C 0.82655 0.62531 0.44817 0.0
C975 C 0.81691 0.62996 0.43919 0.0
C976 C 0.80685 0.63441 0.44736 0.0
C977 C 0.80644 0.63444 0.46506 0.0
C978 C 0.79653 0.63896 0.47368 0.0
C979 C 0.79587 0.63853 0.49108 0.0
C980 C 0.80479 0.6332 0.50052 0.0
C981 C 0.80349 0.63188 0.51815 0.0
C982 C 0.81243 0.62641 0.52713 0.0
C983 C 0.82257 0.622 0.51898 0.0
C984 C 0.82413 0.62337 0.50137 0.0
C985 C 0.83427 0.61914 0.49273 0.0
C986 C 0.8355 0.62026 0.47538 0.0
C987 C 0.82617 0.62507 0.4659 0.0
C988 C 0.816 0.62958 0.47435 0.0
C989 C 0.8151 0.62886 0.49211 0.0
C990 C 0.73676 0.63838 0.5716 0.0
C991 C 0.7433 0.63442 0.55654 0.0
O992 O 0.86074 0.60454 0.40725 0.0
O993 O 0.85148 0.59205 0.55489 0.0
O994 O 0.76038 0.6446 0.5549 0.0
O995 O 0.76677 0.64764 0.40497 0.0
H996 H 0.85695 0.61404 0.38593 0.0
H997 H 0.84761 0.58498 0.3807 0.0
H998 H 0.86847 0.58935 0.38436 0.0
H999 H 0.86386 0.59814 0.36667 0.0
H1000 H 0.86983 0.63555 0.4129 0.0
H1001 H 0.83515 0.58539 0.42479 0.0
H1002 H 0.84922 0.65304 0.42499 0.0
H1003 H 0.87024 0.6576 0.42714 0.0
H1004 H 0.85763 0.65336 0.44541 0.0
H1005 H 0.81023 0.57757 0.43882 0.0
H1006 H 0.80469 0.59266 0.44291 0.0
H1007 H 0.8171 0.58964 0.45795 0.0
H1008 H 0.74424 0.62602 0.40243 0.0
H1009 H 0.74788 0.6221 0.37188 0.0
H1010 H 0.7648 0.62409 0.38445 0.0
H1011 H 0.76781 0.64127 0.37246 0.0
H1012 H 0.75899 0.61754 0.4151 0.0
H1013 H 0.79478 0.66944 0.41872 0.0
H1014 H 0.783 0.60351 0.4296 0.0
H1015 H 0.7617 0.5983 0.43016 0.0
H1016 H 0.77488 0.60597 0.4488 0.0
H1017 H 0.82007 0.68037 0.43411 0.0
H1018 H 0.82785 0.66672 0.43512 0.0
H1019 H 0.8178 0.66902 0.45284 0.0
H1020 H 0.73626 0.63258 0.54454 0.0
H1021 H 0.75084 0.61748 0.53587 0.0
H1022 H 0.79207 0.66428 0.55284 0.0
H1023 H 0.76817 0.60887 0.50461 0.0
H1024 H 0.75446 0.59813 0.52153 0.0
H1025 H 0.77505 0.60131 0.52133 0.0
H1026 H 0.81929 0.67473 0.54326 0.0
H1027 H 0.82111 0.66602 0.5238 0.0
H1028 H 0.82371 0.65854 0.54338 0.0
H1029 H 0.87234 0.60052 0.54087 0.0
H1030 H 0.87989 0.5815 0.55296 0.0
H1031 H 0.85895 0.57064 0.54438 0.0
H1032 H 0.86241 0.57345 0.5668 0.0
H1033 H 0.82054 0.57817 0.54647 0.0
H1034 H 0.86768 0.62354 0.54587 0.0
H1035 H 0.80027 0.58848 0.51545 0.0
H1036 H 0.79528 0.59213 0.53598 0.0
H1037 H 0.79682 0.57441 0.53204 0.0
H1038 H 0.8703 0.64808 0.53641 0.0
H1039 H 0.85155 0.64849 0.53316 0.0
H1040 H 0.86009 0.64323 0.51607 0.0
H1041 H 0.81694 0.62974 0.42559 0.0
H1042 H 0.78916 0.64287 0.46705 0.0
H1043 H 0.78807 0.6422 0.49702 0.0
H1044 H 0.81109 0.62509 0.5406 0.0
H1045 H 0.84141 0.61491 0.49928 0.0
H1046 H 0.84364 0.61701 0.46945 0.0
H1047 H 0.72834 0.64241 0.56642 0.0
H1048 H 0.74676 0.65107 0.57611 0.0
H1049 H 0.72801 0.6175 0.58641 0.0
C1050 C 0.35875 0.23275 0.38602 0.0
C1051 C 0.35123 0.23742 0.40029 0.0
C1052 C 0.36559 0.23498 0.42455 0.0
C1053 C 0.3527 0.22101 0.43217 0.0
C1054 C 0.35617 0.21141 0.44262 0.0
C1055 C 0.37287 0.21583 0.4454 0.0
C1056 C 0.38592 0.23021 0.43814 0.0
C1057 C 0.3821 0.23976 0.428 0.0
C1058 C 0.34196 0.1964 0.45051 0.0
C1059 C 0.40386 0.23527 0.44078 0.0
C1060 C 0.36324 0.10113 0.40428 0.0
C1061 C 0.37055 0.1187 0.40932 0.0
C1062 C 0.36563 0.1354 0.42909 0.0
C1063 C 0.38118 0.14995 0.42718 0.0
C1064 C 0.38518 0.1645 0.43584 0.0
C1065 C 0.37338 0.16454 0.4465 0.0
C1066 C 0.35771 0.14992 0.44839 0.0
C1067 C 0.35411 0.13553 0.43973 0.0
C1068 C 0.40203 0.17984 0.43365 0.0
C1069 C 0.34473 0.14951 0.45952 0.0
C1070 C 0.39873 0.15378 0.55166 0.0
C1071 C 0.41304 0.16927 0.54906 0.0
C1072 C 0.41196 0.18143 0.54045 0.0
C1073 C 0.39621 0.1782 0.5348 0.0
C1074 C 0.38171 0.16289 0.53823 0.0
C1075 C 0.38324 0.15078 0.54625 0.0
C1076 C 0.42769 0.19761 0.53708 0.0
C1077 C 0.36457 0.15917 0.53322 0.0
C1078 C 0.39362 0.28973 0.54613 0.0
C1079 C 0.38823 0.27528 0.55787 0.0
C1080 C 0.3984 0.25719 0.55073 0.0
C1081 C 0.41237 0.25828 0.54366 0.0
C1082 C 0.41124 0.24473 0.5353 0.0
C1083 C 0.39574 0.22968 0.53417 0.0
C1084 C 0.38172 0.22826 0.542 0.0
C1085 C 0.38323 0.242 0.55032 0.0
C1086 C 0.42651 0.24654 0.52743 0.0
C1087 C 0.36512 0.21227 0.54138 0.0
C1088 C 0.37656 0.20495 0.45524 0.0
C1089 C 0.37457 0.19099 0.44708 0.0
C1090 C 0.37725 0.17986 0.45558 0.0
C1091 C 0.38246 0.18287 0.47264 0.0
C1092 C 0.38582 0.17223 0.48142 0.0
C1093 C 0.39027 0.17491 0.49837 0.0
C1094 C 0.39132 0.18821 0.50728 0.0
C1095 C 0.39487 0.19047 0.52475 0.0
C1096 C 0.39632 0.20411 0.53309 0.0
C1097 C 0.39411 0.21553 0.5245 0.0
C1098 C 0.39006 0.2132 0.50713 0.0
C1099 C 0.38722 0.22414 0.4982 0.0
C1100 C 0.38286 0.22151 0.4812 0.0
C1101 C 0.38127 0.20791 0.47244 0.0
C1102 C 0.38423 0.19681 0.48116 0.0
C1103 C 0.38863 0.19946 0.49852 0.0
C1104 C 0.42424 0.14052 0.55836 0.0
C1105 C 0.4117 0.14206 0.56896 0.0
O1106 O 0.36246 0.24398 0.41378 0.0
O1107 O 0.4001 0.27093 0.55798 0.0
O1108 O 0.39923 0.14122 0.55883 0.0
O1109 O 0.36123 0.12105 0.42098 0.0
H1110 H 0.33959 0.22612 0.40405 0.0
H1111 H 0.3613 0.22325 0.39023 0.0
H1112 H 0.37062 0.24368 0.38204 0.0
H1113 H 0.34994 0.22763 0.37507 0.0
H1114 H 0.33994 0.21764 0.43008 0.0
H1115 H 0.39196 0.25069 0.4222 0.0
H1116 H 0.34071 0.18518 0.44474 0.0
H1117 H 0.32994 0.19574 0.44879 0.0
H1118 H 0.34454 0.19638 0.46413 0.0
H1119 H 0.41249 0.24636 0.43362 0.0
H1120 H 0.40551 0.22504 0.4369 0.0
H1121 H 0.40734 0.2379 0.4543 0.0
H1122 H 0.37448 0.12743 0.39875 0.0
H1123 H 0.38081 0.0958 0.41319 0.0
H1124 H 0.35992 0.10047 0.39056 0.0
H1125 H 0.34994 0.09431 0.40842 0.0
H1126 H 0.39026 0.15003 0.41902 0.0
H1127 H 0.34217 0.12427 0.44114 0.0
H1128 H 0.40827 0.18475 0.44608 0.0
H1129 H 0.40047 0.18943 0.42777 0.0
H1130 H 0.41021 0.1776 0.4257 0.0
H1131 H 0.33272 0.13753 0.45863 0.0
H1132 H 0.34249 0.15942 0.45608 0.0
H1133 H 0.3493 0.15177 0.47276 0.0
H1134 H 0.41845 0.15405 0.57596 0.0
H1135 H 0.42511 0.17181 0.55329 0.0
H1136 H 0.37226 0.13884 0.54844 0.0
H1137 H 0.42826 0.20043 0.52355 0.0
H1138 H 0.43906 0.1976 0.5408 0.0
H1139 H 0.42763 0.20761 0.5442 0.0
H1140 H 0.35467 0.14852 0.54005 0.0
H1141 H 0.36236 0.15616 0.5196 0.0
H1142 H 0.36344 0.16998 0.53567 0.0
H1143 H 0.3761 0.26522 0.55255 0.0
H1144 H 0.3848 0.29407 0.54668 0.0
H1145 H 0.39367 0.2857 0.53303 0.0
H1146 H 0.40636 0.30012 0.54943 0.0
H1147 H 0.42411 0.26995 0.54435 0.0
H1148 H 0.37256 0.24077 0.55658 0.0
H1149 H 0.42442 0.24451 0.51366 0.0
H1150 H 0.42881 0.23705 0.53231 0.0
H1151 H 0.43778 0.25888 0.52995 0.0
H1152 H 0.35541 0.21313 0.54815 0.0
H1153 H 0.36642 0.20243 0.54703 0.0
H1154 H 0.36089 0.20856 0.52813 0.0
H1155 H 0.37054 0.18858 0.434 0.0
H1156 H 0.38498 0.16167 0.47528 0.0
H1157 H 0.3927 0.16629 0.50445 0.0
H1158 H 0.39897 0.20576 0.54649 0.0
H1159 H 0.3882 0.23479 0.50429 0.0
H1160 H 0.38066 0.23025 0.47502 0.0
H1161 H 0.43373 0.14037 0.56663 0.0
H1162 H 0.41794 0.12911 0.55047 0.0
H1163 H 0.43078 0.1511 0.54992 0.0
C1164 C 0.86461 0.26088 0.37779 0.0
C1165 C 0.87547 0.2618 0.39278 0.0
C1166 C 0.85823 0.23694 0.40928 0.0
C1167 C 0.84657 0.24083 0.41462 0.0
C1168 C 0.83381 0.23046 0.42545 0.0
C1169 C 0.83304 0.21621 0.43148 0.0
C1170 C 0.84499 0.21248 0.4264 0.0
C1171 C 0.85728 0.22279 0.41519 0.0
C1172 C 0.82104 0.23462 0.43026 0.0
C1173 C 0.84474 0.19753 0.43271 0.0
C1174 C 0.71527 0.1127 0.41384 0.0
C1175 C 0.73033 0.11255 0.40713 0.0
C1176 C 0.75478 0.13204 0.42463 0.0
C1177 C 0.76761 0.13319 0.43463 0.0
C1178 C 0.78072 0.14842 0.44071 0.0
C1179 C 0.78052 0.16283 0.43739 0.0
C1180 C 0.76772 0.16183 0.42701 0.0
C1181 C 0.75513 0.14646 0.42047 0.0
C1182 C 0.7946 0.14896 0.45093 0.0
C1183 C 0.76713 0.17692 0.42313 0.0
C1184 C 0.75831 0.1509 0.54514 0.0
C1185 C 0.77286 0.15113 0.54112 0.0
C1186 C 0.78534 0.16397 0.53184 0.0
C1187 C 0.78335 0.17694 0.52666 0.0
C1188 C 0.76913 0.17719 0.53143 0.0
C1189 C 0.75683 0.16418 0.54072 0.0
C1190 C 0.80057 0.16355 0.52733 0.0
C1191 C 0.76677 0.19097 0.52632 0.0
C1192 C 0.88196 0.29794 0.54673 0.0
C1193 C 0.87844 0.28231 0.55559 0.0
C1194 C 0.86414 0.25789 0.53704 0.0
C1195 C 0.86528 0.24461 0.53156 0.0
C1196 C 0.85152 0.23057 0.52416 0.0
C1197 C 0.83643 0.23011 0.52158 0.0
C1198 C 0.83522 0.24358 0.52698 0.0
C1199 C 0.84906 0.25729 0.53477 0.0
C1200 C 0.85318 0.21627 0.51903 0.0
C1201 C 0.81935 0.24354 0.52433 0.0
C1202 C 0.81946 0.20489 0.44267 0.0
C1203 C 0.80623 0.19031 0.43557 0.0
C1204 C 0.79333 0.17875 0.44538 0.0
C1205 C 0.79335 0.1819 0.46275 0.0
C1206 C 0.78029 0.17077 0.47289 0.0
C1207 C 0.78096 0.17338 0.49013 0.0
C1208 C 0.7946 0.18735 0.49788 0.0
C1209 C 0.79574 0.18971 0.51549 0.0
C1210 C 0.80936 0.20384 0.52279 0.0
C1211 C 0.82204 0.2157 0.51295 0.0
C1212 C 0.82121 0.21344 0.49532 0.0
C1213 C 0.83383 0.22502 0.48504 0.0
C1214 C 0.8333 0.22227 0.46781 0.0
C1215 C 0.81996 0.20801 0.46012 0.0
C1216 C 0.80687 0.19642 0.47019 0.0
C1217 C 0.8075 0.19914 0.48779 0.0
C1218 C 0.7274 0.1139 0.53737 0.0
C1219 C 0.74024 0.12178 0.55185 0.0
O1220 O 0.87037 0.24617 0.39825 0.0
O1221 O 0.87794 0.2711 0.54411 0.0
O1222 O 0.74563 0.13832 0.55349 0.0
O1223 O 0.74222 0.11677 0.41974 0.0
H1224 H 0.87438 0.2691 0.40308 0.0
H1225 H 0.86919 0.27341 0.37305 0.0
H1226 H 0.86473 0.25308 0.36747 0.0
H1227 H 0.85152 0.25554 0.38153 0.0
H1228 H 0.8471 0.25174 0.41021 0.0
H1229 H 0.86632 0.21988 0.41103 0.0
H1230 H 0.80829 0.22379 0.42803 0.0
H1231 H 0.82232 0.24512 0.42314 0.0
H1232 H 0.82245 0.23784 0.44384 0.0
H1233 H 0.85611 0.19755 0.42936 0.0
H1234 H 0.83376 0.18627 0.42717 0.0
H1235 H 0.84357 0.19689 0.44655 0.0
H1236 H 0.73571 0.12148 0.39679 0.0
H1237 H 0.7054 0.10837 0.40389 0.0
H1238 H 0.71881 0.1253 0.41779 0.0
H1239 H 0.71007 0.10469 0.42486 0.0
H1240 H 0.76734 0.12202 0.43761 0.0
H1241 H 0.74545 0.14583 0.4125 0.0
H1242 H 0.79257 0.14989 0.46445 0.0
H1243 H 0.80685 0.15984 0.44779 0.0
H1244 H 0.79506 0.13771 0.44888 0.0
H1245 H 0.75547 0.17385 0.4163 0.0
H1246 H 0.77785 0.18526 0.41531 0.0
H1247 H 0.76817 0.18372 0.43492 0.0
H1248 H 0.75056 0.12003 0.54852 0.0
H1249 H 0.77473 0.1415 0.54529 0.0
H1250 H 0.74574 0.1641 0.54418 0.0
H1251 H 0.80109 0.16264 0.5135 0.0
H1252 H 0.80065 0.15302 0.53296 0.0
H1253 H 0.81198 0.17514 0.53164 0.0
H1254 H 0.7553 0.18968 0.5315 0.0
H1255 H 0.76603 0.19122 0.51243 0.0
H1256 H 0.77766 0.20295 0.53068 0.0
H1257 H 0.86623 0.27708 0.56177 0.0
H1258 H 0.88366 0.30742 0.5561 0.0
H1259 H 0.87132 0.29517 0.53827 0.0
H1260 H 0.89324 0.30302 0.53903 0.0
H1261 H 0.87697 0.24521 0.53335 0.0
H1262 H 0.8481 0.2676 0.53873 0.0
H1263 H 0.85324 0.21545 0.50516 0.0
H1264 H 0.84241 0.20455 0.52341 0.0
H1265 H 0.86483 0.21756 0.52413 0.0
H1266 H 0.82078 0.25543 0.52814 0.0
H1267 H 0.80932 0.23363 0.53175 0.0
H1268 H 0.81533 0.24092 0.51092 0.0
H1269 H 0.80618 0.18775 0.42228 0.0
H1270 H 0.76948 0.15978 0.46765 0.0
H1271 H 0.77067 0.16423 0.4973 0.0
H1272 H 0.81026 0.20547 0.53633 0.0
H1273 H 0.8444 0.23624 0.49024 0.0
H1274 H 0.84354 0.23145 0.46061 0.0
H1275 H 0.71733 0.11652 0.53863 0.0
H1276 H 0.72188 0.10038 0.53688 0.0
H1277 H 0.73358 0.11899 0.52529 0.0
C1278 C 0.03711 0.45315 0.25407 0.0
C1279 C 0.0305 0.45461 0.27105 0.0
C1280 C 0.01249 0.46488 0.26222 0.0
C1281 C 0.99598 0.46027 0.25915 0.0
C1282 C 0.99205 0.47098 0.25147 0.0
C1283 C 0.00502 0.48673 0.24669 0.0
C1284 C 0.02176 0.49173 0.25026 0.0
C1285 C 0.02534 0.48081 0.25808 0.0
C1286 C 0.97404 0.46531 0.24807 0.0
C1287 C 0.03588 0.50847 0.24538 0.0
C1288 C 0.01797 0.60447 0.28162 0.0
C1289 C 0.01779 0.59257 0.26932 0.0
C1290 C 0.00303 0.56314 0.26272 0.0
C1291 C 0.01539 0.56427 0.2522 0.0
C1292 C 0.0134 0.5503 0.24399 0.0
C1293 C 0.9986 0.53487 0.24603 0.0
C1294 C 0.98613 0.53363 0.2566 0.0
C1295 C 0.98856 0.5478 0.26489 0.0
C1296 C 0.02716 0.55209 0.23309 0.0
C1297 C 0.97019 0.51737 0.25898 0.0
C1298 C 0.9633 0.53673 0.14078 0.0
C1299 C 0.98037 0.54466 0.14476 0.0
C1300 C 0.98691 0.53623 0.15288 0.0
C1301 C 0.97607 0.51966 0.15741 0.0
C1302 C 0.95894 0.51156 0.15297 0.0
C1303 C 0.95284 0.52016 0.14447 0.0
C1304 C 0.00536 0.54504 0.1567 0.0
C1305 C 0.94701 0.49387 0.15741 0.0
C1306 C 0.02073 0.4365 0.14937 0.0
C1307 C 0.00495 0.43413 0.14094 0.0
C1308 C 0.00333 0.4588 0.14136 0.0
C1309 C 0.0146 0.47575 0.14203 0.0
C1310 C 0.01045 0.48636 0.14966 0.0
C1311 C 0.99445 0.47979 0.15638 0.0
C1312 C 0.98258 0.46274 0.15468 0.0
C1313 C 0.98717 0.45238 0.14721 0.0
C1314 C 0.02334 0.5045 0.15105 0.0
C1315 C 0.96524 0.45543 0.1612 0.0
C1316 C 0.00106 0.49747 0.23696 0.0
C1317 C 0.00032 0.50991 0.24548 0.0
C1318 C 0.99636 0.52017 0.23695 0.0
C1319 C 0.99215 0.51742 0.21963 0.0
C1320 C 0.98677 0.52659 0.21095 0.0
C1321 C 0.98318 0.52415 0.19379 0.0
C1322 C 0.9854 0.51286 0.18454 0.0
C1323 C 0.9825 0.51078 0.16695 0.0
C1324 C 0.98536 0.4998 0.15814 0.0
C1325 C 0.99072 0.49055 0.16646 0.0
C1326 C 0.9931 0.49204 0.18408 0.0
C1327 C 0.99806 0.48258 0.19288 0.0
C1328 C 0.0004 0.48413 0.2102 0.0
C1329 C 0.99832 0.49552 0.21938 0.0
C1330 C 0.9936 0.50537 0.21073 0.0
C1331 C 0.99064 0.50338 0.19311 0.0
C1332 C 0.94526 0.56059 0.1412 0.0
C1333 C 0.9609 0.56066 0.13646 0.0
O1334 O 0.01534 0.45351 0.26889 0.0
O1335 O 0.00837 0.44907 0.13473 0.0
O1336 O 0.95656 0.54459 0.13317 0.0
O1337 O 0.00466 0.57648 0.27096 0.0
H1338 H 0.03965 0.46663 0.27716 0.0
H1339 H 0.03959 0.46346 0.2459 0.0
H1340 H 0.02794 0.44144 0.24747 0.0
H1341 H 0.04899 0.45352 0.25594 0.0
H1342 H 0.98613 0.44805 0.26251 0.0
H1343 H 0.0382 0.48476 0.26064 0.0
H1344 H 0.97146 0.47472 0.2527 0.0
H1345 H 0.96541 0.45344 0.25408 0.0
H1346 H 0.97144 0.46377 0.23434 0.0
H1347 H 0.04826 0.51043 0.24874 0.0
H1348 H 0.03467 0.51815 0.25174 0.0
H1349 H 0.03525 0.50996 0.23165 0.0
H1350 H 0.01968 0.5966 0.25603 0.0
H1351 H 0.03972 0.61234 0.29604 0.0
H1352 H 0.00522 0.59819 0.28718 0.0
H1353 H 0.01603 0.61311 0.27384 0.0
H1354 H 0.02669 0.57601 0.25037 0.0
H1355 H 0.97909 0.54699 0.27303 0.0
H1356 H 0.02291 0.54996 0.21975 0.0
H1357 H 0.03029 0.54275 0.23634 0.0
H1358 H 0.03863 0.56448 0.23438 0.0
H1359 H 0.96129 0.51861 0.26685 0.0
H1360 H 0.97304 0.50871 0.26503 0.0
H1361 H 0.96414 0.51191 0.24659 0.0
H1362 H 0.96972 0.56596 0.14743 0.0
H1363 H 0.98859 0.55735 0.14134 0.0
H1364 H 0.93974 0.51411 0.14107 0.0
H1365 H 0.00765 0.54731 0.17043 0.0
H1366 H 0.01235 0.55704 0.15036 0.0
H1367 H 0.01033 0.5373 0.15273 0.0
H1368 H 0.93387 0.48979 0.1543 0.0
H1369 H 0.94815 0.49218 0.17101 0.0
H1370 H 0.95021 0.48583 0.15045 0.0
H1371 H 0.99527 0.42965 0.15066 0.0
H1372 H 0.0183 0.42473 0.15459 0.0
H1373 H 0.02486 0.44568 0.15982 0.0
H1374 H 0.03093 0.44097 0.14024 0.0
H1375 H 0.02692 0.48059 0.13711 0.0
H1376 H 0.97814 0.43932 0.14593 0.0
H1377 H 0.02602 0.5084 0.16447 0.0
H1378 H 0.01844 0.51159 0.14507 0.0
H1379 H 0.03517 0.50768 0.14503 0.0
H1380 H 0.95693 0.44234 0.15723 0.0
H1381 H 0.95973 0.46254 0.15672 0.0
H1382 H 0.96581 0.45621 0.17511 0.0
H1383 H 0.00328 0.51191 0.25881 0.0
H1384 H 0.98514 0.53565 0.21737 0.0
H1385 H 0.97895 0.53146 0.18782 0.0
H1386 H 0.98341 0.49846 0.14464 0.0
H1387 H 1.00011 0.47377 0.18651 0.0
H1388 H 0.00415 0.47646 0.21626 0.0
H1389 H 0.94837 0.57328 0.14427 0.0
H1390 H 0.93971 0.55294 0.1524 0.0
H1391 H 0.93588 0.55543 0.13073 0.0
C1392 C 0.46862 0.38971 0.30154 0.0
C1393 C 0.4652 0.40107 0.29128 0.0
C1394 C 0.47482 0.41146 0.26363 0.0
C1395 C 0.46945 0.42245 0.2613 0.0
C1396 C 0.47778 0.43566 0.2504 0.0
C1397 C 0.49208 0.43818 0.24213 0.0
C1398 C 0.49747 0.427 0.24451 0.0
C1399 C 0.48843 0.4135 0.2549 0.0
C1400 C 0.47143 0.44707 0.24798 0.0
C1401 C 0.51303 0.42952 0.23657 0.0
C1402 C 0.5818 0.56216 0.28959 0.0
C1403 C 0.57263 0.54466 0.28383 0.0
C1404 C 0.55204 0.52701 0.2622 0.0
C1405 C 0.55623 0.51493 0.2619 0.0
C1406 C 0.54687 0.5005 0.2521 0.0
C1407 C 0.53274 0.49787 0.24285 0.0
C1408 C 0.52824 0.50983 0.24351 0.0
C1409 C 0.53818 0.5244 0.25291 0.0
C1410 C 0.55216 0.48811 0.25159 0.0
C1411 C 0.51292 0.50724 0.23435 0.0
C1412 C 0.56499 0.52365 0.1368 0.0
C1413 C 0.56938 0.51383 0.14572 0.0
C1414 C 0.55722 0.49949 0.1535 0.0
C1415 C 0.54039 0.49512 0.15277 0.0
C1416 C 0.53589 0.50482 0.14358 0.0
C1417 C 0.54825 0.51884 0.13551 0.0
C1418 C 0.56241 0.48907 0.16262 0.0
C1419 C 0.51809 0.50055 0.14254 0.0
C1420 C 0.45305 0.36239 0.12444 0.0
C1421 C 0.45445 0.37898 0.12645 0.0
C1422 C 0.47906 0.40599 0.13289 0.0
C1423 C 0.49604 0.41316 0.13631 0.0
C1424 C 0.50505 0.4279 0.14567 0.0
C1425 C 0.49693 0.43598 0.15117 0.0
C1426 C 0.47987 0.42918 0.14699 0.0
C1427 C 0.47103 0.41408 0.13813 0.0
C1428 C 0.5232 0.43471 0.14981 0.0
C1429 C 0.47097 0.43781 0.15189 0.0
C1430 C 0.50215 0.45316 0.23211 0.0
C1431 C 0.51193 0.46808 0.24089 0.0
C1432 C 0.52262 0.48257 0.23257 0.0
C1433 C 0.52376 0.48225 0.21494 0.0
C1434 C 0.53481 0.49649 0.20622 0.0
C1435 C 0.5359 0.49606 0.18889 0.0
C1436 C 0.52616 0.48131 0.1796 0.0
C1437 C 0.52765 0.48066 0.16204 0.0
C1438 C 0.51761 0.46587 0.15314 0.0
C1439 C 0.50633 0.45147 0.16134 0.0
C1440 C 0.5049 0.45182 0.17897 0.0
C1441 C 0.494 0.43754 0.18774 0.0
C1442 C 0.4928 0.438 0.20509 0.0
C1443 C 0.50275 0.45268 0.2144 0.0
C1444 C 0.51371 0.46727 0.20582 0.0
C1445 C 0.51483 0.46682 0.1881 0.0
C1446 C 0.59504 0.55844 0.14877 0.0
C1447 C 0.59309 0.54793 0.13328 0.0
O1448 O 0.46719 0.39895 0.27446 0.0
O1449 O 0.47089 0.39137 0.12438 0.0
O1450 O 0.57633 0.53763 0.12904 0.0
O1451 O 0.56106 0.54135 0.2711 0.0
H1452 H 0.4746 0.41392 0.29545 0.0
H1453 H 0.48146 0.39261 0.29934 0.0
H1454 H 0.45972 0.37663 0.29786 0.0
H1455 H 0.46749 0.39143 0.31514 0.0
H1456 H 0.45872 0.42063 0.26794 0.0
H1457 H 0.49239 0.40486 0.25683 0.0
H1458 H 0.47974 0.4588 0.25496 0.0
H1459 H 0.45861 0.44173 0.25264 0.0
H1460 H 0.47152 0.44995 0.23451 0.0
H1461 H 0.51715 0.42163 0.2422 0.0
H1462 H 0.52335 0.44256 0.23794 0.0
H1463 H 0.5106 0.42643 0.22299 0.0
H1464 H 0.56749 0.53542 0.29395 0.0
H1465 H 0.60644 0.57079 0.28328 0.0
H1466 H 0.5779 0.56181 0.30292 0.0
H1467 H 0.57466 0.56769 0.28456 0.0
H1468 H 0.56692 0.51677 0.26906 0.0
H1469 H 0.53502 0.53377 0.25328 0.0
H1470 H 0.54294 0.47688 0.25819 0.0
H1471 H 0.56458 0.49293 0.25766 0.0
H1472 H 0.55253 0.48447 0.23841 0.0
H1473 H 0.50971 0.51639 0.23831 0.0
H1474 H 0.50211 0.49471 0.23655 0.0
H1475 H 0.51509 0.50837 0.22067 0.0
H1476 H 0.59884 0.54062 0.13605 0.0
H1477 H 0.58216 0.51704 0.14653 0.0
H1478 H 0.54495 0.52638 0.12846 0.0
H1479 H 0.56154 0.4904 0.17634 0.0
H1480 H 0.57538 0.49269 0.15988 0.0
H1481 H 0.55395 0.47589 0.15911 0.0
H1482 H 0.51679 0.50992 0.13576 0.0
H1483 H 0.51321 0.49939 0.15536 0.0
H1484 H 0.51028 0.48849 0.13596 0.0
H1485 H 0.45067 0.37966 0.13946 0.0
H1486 H 0.44006 0.35218 0.12649 0.0
H1487 H 0.46133 0.3615 0.13383 0.0
H1488 H 0.45677 0.36097 0.11169 0.0
H1489 H 0.50213 0.40688 0.13202 0.0
H1490 H 0.45795 0.40877 0.13511 0.0
H1491 H 0.52585 0.43798 0.16338 0.0
H1492 H 0.53095 0.44609 0.1427 0.0
H1493 H 0.52703 0.42586 0.14658 0.0
H1494 H 0.45868 0.43242 0.14532 0.0
H1495 H 0.47865 0.45108 0.14901 0.0
H1496 H 0.46894 0.43681 0.16559 0.0
H1497 H 0.51141 0.46837 0.25446 0.0
H1498 H 0.5428 0.50815 0.2127 0.0
H1499 H 0.54457 0.50744 0.18289 0.0
H1500 H 0.5189 0.46546 0.13968 0.0
H1501 H 0.48625 0.4258 0.18131 0.0
H1502 H 0.48409 0.42666 0.21114 0.0
H1503 H 0.60842 0.56679 0.15223 0.0
H1504 H 0.58877 0.55042 0.15956 0.0
H1505 H 0.58939 0.56591 0.14632 0.0
C1506 C 0.41019 0.96966 0.25642 0.0
C1507 C 0.42098 0.97957 0.2718 0.0
C1508 C 0.44837 0.99803 0.2597 0.0
C1509 C 0.46014 0.01436 0.25611 0.0
C1510 C 0.47501 0.01861 0.24821 0.0
C1511 C 0.47795 0.00609 0.24339 0.0
C1512 C 0.46616 0.98953 0.24708 0.0
C1513 C 0.45164 0.98571 0.25542 0.0
C1514 C 0.48754 0.03646 0.24495 0.0
C1515 C 0.46887 0.97583 0.24226 0.0
C1516 C 0.55695 0.01003 0.30993 0.0
C1517 C 0.55942 0.00079 0.29562 0.0
C1518 C 0.55528 0.01139 0.26981 0.0
C1519 C 0.54283 0.99713 0.26141 0.0
C1520 C 0.53188 0.99783 0.24986 0.0
C1521 C 0.53342 0.01311 0.24677 0.0
C1522 C 0.54647 0.02762 0.2547 0.0
C1523 C 0.5574 0.02658 0.266 0.0
C1524 C 0.51846 0.9822 0.24123 0.0
C1525 C 0.54856 0.04412 0.25155 0.0
C1526 C 0.57437 0.03827 0.14451 0.0
C1527 C 0.56209 0.02171 0.14673 0.0
C1528 C 0.54659 0.01734 0.15322 0.0
C1529 C 0.5435 0.02983 0.15778 0.0
C1530 C 0.5557 0.04649 0.15495 0.0
C1531 C 0.5709 0.05045 0.14807 0.0
C1532 C 0.53363 0.99942 0.15544 0.0
C1533 C 0.55283 0.06015 0.15943 0.0
C1534 C 0.4435 0.04411 0.13961 0.0
C1535 C 0.44839 0.03764 0.12446 0.0
C1536 C 0.4624 0.02438 0.13686 0.0
C1537 C 0.46123 0.00934 0.1391 0.0
C1538 C 0.4738 0.00843 0.14769 0.0
C1539 C 0.48778 0.02296 0.15448 0.0
C1540 C 0.48918 0.03827 0.15208 0.0
C1541 C 0.47659 0.03886 0.14316 0.0
C1542 C 0.472 0.99193 0.1498 0.0
C1543 C 0.50388 0.05402 0.1592 0.0
C1544 C 0.49332 0.01022 0.2345 0.0
C1545 C 0.50619 0.01061 0.24377 0.0
C1546 C 0.52074 0.0137 0.23613 0.0
C1547 C 0.5227 0.01675 0.21876 0.0
C1548 C 0.53725 0.0201 0.21072 0.0
C1549 C 0.53906 0.02312 0.19364 0.0
C1550 C 0.52628 0.02264 0.18385 0.0
C1551 C 0.52798 0.02561 0.16644 0.0
C1552 C 0.51513 0.0253 0.15715 0.0
C1553 C 0.50053 0.02213 0.16481 0.0
C1554 C 0.49854 0.01895 0.18217 0.0
C1555 C 0.48398 0.01558 0.19025 0.0
C1556 C 0.48216 0.01254 0.20733 0.0
C1557 C 0.49495 0.01305 0.21708 0.0
C1558 C 0.50973 0.01639 0.2092 0.0
C1559 C 0.51149 0.01927 0.19171 0.0
C1560 C 0.61346 0.05035 0.15515 0.0
C1561 C 0.59955 0.03712 0.14374 0.0
O1562 O 0.43408 0.99478 0.26711 0.0
O1563 O 0.4495 0.02425 0.12884 0.0
O1564 O 0.58951 0.04287 0.13846 0.0
O1565 O 0.56527 0.01073 0.28175 0.0
H1566 H 0.42595 0.97257 0.27793 0.0
H1567 H 0.41737 0.96695 0.24752 0.0
H1568 H 0.40553 0.97659 0.24962 0.0
H1569 H 0.39938 0.95775 0.26038 0.0
H1570 H 0.45763 0.02383 0.25957 0.0
H1571 H 0.44291 0.97302 0.25836 0.0
H1572 H 0.50016 0.03968 0.24926 0.0
H1573 H 0.48438 0.04481 0.25134 0.0
H1574 H 0.48801 0.03859 0.23127 0.0
H1575 H 0.45748 0.96349 0.24366 0.0
H1576 H 0.47887 0.9766 0.25044 0.0
H1577 H 0.47293 0.97706 0.22909 0.0
H1578 H 0.54713 0.98948 0.29265 0.0
H1579 H 0.55232 0.00225 0.32118 0.0
H1580 H 0.54763 0.01316 0.30604 0.0
H1581 H 0.56884 0.0216 0.31327 0.0
H1582 H 0.54163 0.98546 0.26394 0.0
H1583 H 0.56726 0.03754 0.2724 0.0
H1584 H 0.51853 0.98395 0.22748 0.0
H1585 H 0.50613 0.97915 0.24574 0.0
H1586 H 0.51998 0.97165 0.24367 0.0
H1587 H 0.55943 0.05426 0.25858 0.0
H1588 H 0.53717 0.04388 0.25529 0.0
H1589 H 0.55016 0.04672 0.23796 0.0
H1590 H 0.59243 0.02578 0.15117 0.0
H1591 H 0.56454 0.01223 0.14325 0.0
H1592 H 0.58039 0.06316 0.14592 0.0
H1593 H 0.53228 0.99667 0.16901 0.0
H1594 H 0.53698 0.9912 0.14909 0.0
H1595 H 0.52135 0.99661 0.15042 0.0
H1596 H 0.56421 0.07251 0.15812 0.0
H1597 H 0.54855 0.05892 0.17252 0.0
H1598 H 0.54291 0.05927 0.15104 0.0
H1599 H 0.46065 0.04771 0.12007 0.0
H1600 H 0.44165 0.05418 0.13576 0.0
H1601 H 0.45343 0.0491 0.1495 0.0
H1602 H 0.43188 0.03418 0.14518 0.0
H1603 H 0.45032 0.99823 0.13415 0.0
H1604 H 0.47788 0.05066 0.14144 0.0
H1605 H 0.47035 0.9887 0.16325 0.0
H1606 H 0.48348 0.99249 0.14578 0.0
H1607 H 0.4612 0.98201 0.14249 0.0
H1608 H 0.50268 0.06481 0.15711 0.0
H1609 H 0.51541 0.05629 0.15323 0.0
H1610 H 0.50529 0.0529 0.17288 0.0
H1611 H 0.50477 0.00825 0.2571 0.0
H1612 H 0.54744 0.02051 0.21758 0.0
H1613 H 0.55063 0.02579 0.18821 0.0
H1614 H 0.51662 0.02782 0.14386 0.0
H1615 H 0.47377 0.01519 0.18345 0.0
H1616 H 0.47061 0.00987 0.2128 0.0
H1617 H 0.62135 0.04598 0.16048 0.0
H1618 H 0.60795 0.05335 0.16575 0.0
H1619 H 0.6214 0.06173 0.14805 0.0
C1620 C 0.52923 0.95442 0.71673 0.0
C1621 C 0.53532 0.96967 0.72798 0.0
C1622 C 0.52537 0.97134 0.75539 0.0
C1623 C 0.53188 0.98831 0.75643 0.0
C1624 C 0.52534 0.9948 0.76758 0.0
C1625 C 0.51171 0.98403 0.77757 0.0
C1626 C 0.50521 0.96689 0.77659 0.0
C1627 C 0.51246 0.96084 0.76581 0.0
C1628 C 0.53282 0.01315 0.76845 0.0
C1629 C 0.49035 0.95488 0.78655 0.0
C1630 C 0.43048 0.02458 0.73252 0.0
C1631 C 0.44497 0.02674 0.74249 0.0
C1632 C 0.45193 0.01129 0.76165 0.0
C1633 C 0.44569 0.99659 0.77018 0.0
C1634 C 0.45632 0.99303 0.77904 0.0
C1635 C 0.47366 0.00467 0.77963 0.0
C1636 C 0.48008 0.01965 0.77113 0.0
C1637 C 0.46918 0.02278 0.76213 0.0
C1638 C 0.44902 0.9768 0.78775 0.0
C1639 C 0.49848 0.03237 0.77157 0.0
C1640 C 0.46477 0.02486 0.88489 0.0
C1641 C 0.45642 0.0084 0.87932 0.0
C1642 C 0.46519 0.00184 0.87205 0.0
C1643 C 0.4826 0.01209 0.87002 0.0
C1644 C 0.49113 0.02843 0.87647 0.0
C1645 C 0.48208 0.03452 0.88407 0.0
C1646 C 0.45577 0.98413 0.86605 0.0
C1647 C 0.50968 0.03964 0.87474 0.0
C1648 C 0.55573 0.95477 0.88196 0.0
C1649 C 0.55848 0.97097 0.88896 0.0
C1650 C 0.53546 0.97555 0.88526 0.0
C1651 C 0.51822 0.96597 0.88281 0.0
C1652 C 0.50957 0.97216 0.8744 0.0
C1653 C 0.5184 0.98851 0.8687 0.0
C1654 C 0.53577 0.99853 0.87186 0.0
C1655 C 0.54415 0.99192 0.88008 0.0
C1656 C 0.49104 0.96113 0.87137 0.0
C1657 C 0.54546 0.01617 0.86644 0.0
C1658 C 0.5036 0.9906 0.78814 0.0
C1659 C 0.49324 0.99492 0.78004 0.0
C1660 C 0.48504 0.00107 0.78903 0.0
C1661 C 0.48723 0.00309 0.80665 0.0
C1662 C 0.47957 0.00971 0.81602 0.0
C1663 C 0.48125 0.01105 0.83339 0.0
C1664 C 0.49051 0.00566 0.84212 0.0
C1665 C 0.49158 0.00621 0.85985 0.0
C1666 C 0.50097 0.00083 0.86812 0.0
C1667 C 0.50943 0.99491 0.85913 0.0
C1668 C 0.50855 0.99433 0.84137 0.0
C1669 C 0.51698 0.98858 0.8319 0.0
C1670 C 0.51574 0.98775 0.81445 0.0
C1671 C 0.50565 0.99219 0.80582 0.0
C1672 C 0.4973 0.99832 0.81509 0.0
C1673 C 0.49886 0.99952 0.83287 0.0
C1674 C 0.4446 0.04615 0.87957 0.0
C1675 C 0.44173 0.02946 0.88444 0.0
O1676 O 0.53115 0.96474 0.74437 0.0
O1677 O 0.54319 0.96871 0.89304 0.0
O1678 O 0.45649 0.03175 0.89107 0.0
O1679 O 0.44095 0.01384 0.7531 0.0
H1680 H 0.52869 0.9758 0.72357 0.0
H1681 H 0.51554 0.94613 0.71773 0.0
H1682 H 0.53527 0.9476 0.72056 0.0
H1683 H 0.53206 0.95797 0.70342 0.0
H1684 H 0.54211 0.99648 0.74857 0.0
H1685 H 0.50761 0.94776 0.76494 0.0
H1686 H 0.52431 0.01614 0.76193 0.0
H1687 H 0.5451 0.01994 0.76237 0.0
H1688 H 0.53437 0.01752 0.78168 0.0
H1689 H 0.48518 0.94197 0.78226 0.0
H1690 H 0.48037 0.9577 0.78558 0.0
H1691 H 0.49408 0.95593 0.79998 0.0
H1692 H 0.45285 0.03906 0.74873 0.0
H1693 H 0.43622 0.02231 0.70776 0.0
H1694 H 0.42891 0.0349 0.7369 0.0
H1695 H 0.41897 0.01469 0.73875 0.0
H1696 H 0.43239 0.98779 0.76972 0.0
H1697 H 0.47422 0.03423 0.75558 0.0
H1698 H 0.45069 0.979 0.80152 0.0
H1699 H 0.45565 0.97055 0.78407 0.0
H1700 H 0.43553 0.96847 0.78476 0.0
H1701 H 0.50135 0.04403 0.76569 0.0
H1702 H 0.50517 0.02746 0.76479 0.0
H1703 H 0.50333 0.03506 0.78473 0.0
H1704 H 0.4379 0.02172 0.87275 0.0
H1705 H 0.44307 0.00073 0.88059 0.0
H1706 H 0.48841 0.04712 0.88873 0.0
H1707 H 0.45452 0.98362 0.85217 0.0
H1708 H 0.4431 0.97709 0.87127 0.0
H1709 H 0.46266 0.97807 0.86959 0.0
H1710 H 0.51438 0.05215 0.88005 0.0
H1711 H 0.5129 0.04068 0.8613 0.0
H1712 H 0.51618 0.03432 0.88127 0.0
H1713 H 0.5644 0.98018 0.87893 0.0
H1714 H 0.56777 0.95628 0.8784 0.0
H1715 H 0.54748 0.95087 0.8706 0.0
H1716 H 0.54979 0.94496 0.89139 0.0
H1717 H 0.51161 0.95344 0.88714 0.0
H1718 H 0.55742 0.9996 0.88262 0.0
H1719 H 0.48803 0.96038 0.85775 0.0
H1720 H 0.48454 0.96643 0.87783 0.0
H1721 H 0.48613 0.9485 0.87596 0.0
H1722 H 0.55864 0.02272 0.87095 0.0
H1723 H 0.53956 0.02281 0.87125 0.0
H1724 H 0.54519 0.01656 0.85254 0.0
H1725 H 0.49142 0.99333 0.76653 0.0
H1726 H 0.47211 0.01386 0.81002 0.0
H1727 H 0.47502 0.01622 0.83989 0.0
H1728 H 0.50155 0.00107 0.88172 0.0
H1729 H 0.52465 0.98466 0.83786 0.0
H1730 H 0.5226 0.98333 0.80783 0.0
H1731 H 0.43305 0.04468 0.87394 0.0
H1732 H 0.45454 0.05185 0.87017 0.0
H1733 H 0.44849 0.05454 0.89072 0.0
C1734 C 0.02383 0.5857 0.75371 0.0
C1735 C 0.00747 0.5743 0.74392 0.0
C1736 C 0.99456 0.54959 0.76128 0.0
C1737 C 0.98179 0.54037 0.7724 0.0
C1738 C 0.98044 0.52674 0.78041 0.0
C1739 C 0.99245 0.52247 0.77747 0.0
C1740 C 0.00519 0.53149 0.76592 0.0
C1741 C 0.00598 0.54481 0.75777 0.0
C1742 C 0.96635 0.5171 0.79223 0.0
C1743 C 0.01811 0.52719 0.76232 0.0
C1744 C 0.94284 0.41431 0.71995 0.0
C1745 C 0.95869 0.42061 0.73065 0.0
C1746 C 0.96302 0.43568 0.75707 0.0
C1747 C 0.98003 0.44753 0.75574 0.0
C1748 C 0.98751 0.46206 0.76556 0.0
C1749 C 0.97777 0.46473 0.77692 0.0
C1750 C 0.96078 0.45251 0.77872 0.0
C1751 C 0.95368 0.43803 0.76888 0.0
C1752 C 0.00577 0.47464 0.76368 0.0
C1753 C 0.95005 0.4549 0.79079 0.0
C1754 C 0.01418 0.4512 0.87763 0.0
C1755 C 0.02797 0.46444 0.87 0.0
C1756 C 0.0266 0.47672 0.86208 0.0
C1757 C 0.01122 0.47593 0.86202 0.0
C1758 C 0.99739 0.46278 0.86992 0.0
C1759 C 0.99903 0.45049 0.87745 0.0
C1760 C 0.04156 0.49047 0.85361 0.0
C1761 C 0.98087 0.46166 0.87028 0.0
C1762 C 0.04805 0.6012 0.87318 0.0
C1763 C 0.0335 0.58845 0.88349 0.0
C1764 C 0.03143 0.56211 0.88093 0.0
C1765 C 0.04288 0.55787 0.87627 0.0
C1766 C 0.03767 0.543 0.86768 0.0
C1767 C 0.02049 0.53189 0.86426 0.0
C1768 C 0.00876 0.53577 0.86987 0.0
C1769 C 0.0144 0.55098 0.87796 0.0
C1770 C 0.05059 0.53932 0.86211 0.0
C1771 C 0.99029 0.52396 0.8672 0.0
C1772 C 0.99201 0.50889 0.7868 0.0
C1773 C 0.98547 0.49368 0.77856 0.0
C1774 C 0.98516 0.48054 0.78645 0.0
C1775 C 0.99148 0.48253 0.80306 0.0
C1776 C 0.99175 0.46971 0.81121 0.0
C1777 C 0.99786 0.47176 0.82762 0.0
C1778 C 0.00366 0.48661 0.83661 0.0
C1779 C 0.00962 0.48873 0.85339 0.0
C1780 C 0.0148 0.50348 0.86211 0.0
C1781 C 0.01483 0.51652 0.85432 0.0
C1782 C 0.00964 0.51488 0.83729 0.0
C1783 C 0.01045 0.52806 0.82874 0.0
C1784 C 0.00491 0.5262 0.81215 0.0
C1785 C 0.99818 0.51106 0.8035 0.0
C1786 C 0.99775 0.49777 0.8117 0.0
C1787 C 0.00365 0.49974 0.82856 0.0
C1788 C 0.03376 0.43161 0.87414 0.0
C1789 C 0.0288 0.43821 0.8891 0.0
O1790 O 0.99545 0.56302 0.75448 0.0
O1791 O 0.03708 0.57683 0.88871 0.0
O1792 O 0.0148 0.43878 0.88504 0.0
O1793 O 0.95523 0.42186 0.74724 0.0
H1794 H 0.00975 0.56765 0.73384 0.0
H1795 H 0.0291 0.57868 0.75903 0.0
H1796 H 0.0218 0.5921 0.76423 0.0
H1797 H 0.0332 0.59504 0.74527 0.0
H1798 H 0.97291 0.544 0.7749 0.0
H1799 H 0.01572 0.55149 0.74889 0.0
H1800 H 0.96039 0.5037 0.78965 0.0
H1801 H 0.95673 0.52041 0.7912 0.0
H1802 H 0.97132 0.5196 0.80533 0.0
H1803 H 0.02817 0.5364 0.75435 0.0
H1804 H 0.01205 0.51504 0.75577 0.0
H1805 H 0.02377 0.52625 0.77423 0.0
H1806 H 0.96799 0.4329 0.72577 0.0
H1807 H 0.94528 0.41326 0.70655 0.0
H1808 H 0.93851 0.42306 0.72098 0.0
H1809 H 0.93277 0.4021 0.72421 0.0
H1810 H 0.98749 0.44543 0.7471 0.0
H1811 H 0.94063 0.42867 0.76999 0.0
H1812 H 0.00724 0.48599 0.75834 0.0
H1813 H 0.01193 0.47015 0.75536 0.0
H1814 H 0.01221 0.47798 0.77615 0.0
H1815 H 0.93695 0.44437 0.79043 0.0
H1816 H 0.9502 0.46628 0.78777 0.0
H1817 H 0.95518 0.45644 0.80376 0.0
H1818 H 0.03942 0.45077 0.89247 0.0
H1819 H 0.0398 0.46522 0.86995 0.0
H1820 H 0.98845 0.44025 0.88335 0.0
H1821 H 0.03832 0.4913 0.84037 0.0
H1822 H 0.05232 0.48878 0.85383 0.0
H1823 H 0.04536 0.50233 0.86001 0.0
H1824 H 0.97171 0.45138 0.87804 0.0
H1825 H 0.97565 0.45982 0.85732 0.0
H1826 H 0.98261 0.47335 0.87532 0.0
H1827 H 0.02206 0.58265 0.87533 0.0
H1828 H 0.04537 0.61031 0.86795 0.0
H1829 H 0.05012 0.59498 0.86251 0.0
H1830 H 0.05963 0.60775 0.88105 0.0
H1831 H 0.05599 0.56649 0.87896 0.0
H1832 H 0.00555 0.55412 0.88215 0.0
H1833 H 0.04823 0.53492 0.84883 0.0
H1834 H 0.04981 0.52941 0.8699 0.0
H1835 H 0.06342 0.55024 0.86341 0.0
H1836 H 0.98289 0.52731 0.87511 0.0
H1837 H 0.98684 0.51122 0.87006 0.0
H1838 H 0.98685 0.5241 0.85387 0.0
H1839 H 0.98062 0.49207 0.76581 0.0
H1840 H 0.98729 0.45796 0.80497 0.0
H1841 H 0.9978 0.46148 0.83323 0.0
H1842 H 0.01907 0.5049 0.87507 0.0
H1843 H 0.0154 0.53998 0.83475 0.0
H1844 H 0.00584 0.53679 0.80625 0.0
H1845 H 0.02323 0.41943 0.86971 0.0
H1846 H 0.04448 0.43042 0.87772 0.0
H1847 H 0.03751 0.44013 0.86351 0.0
C1848 C 0.5305 0.56751 0.7245 0.0
C1849 C 0.54047 0.58321 0.73549 0.0
C1850 C 0.52724 0.57037 0.76191 0.0
C1851 C 0.51323 0.57182 0.76076 0.0
C1852 C 0.49941 0.56233 0.77081 0.0
C1853 C 0.49947 0.5509 0.78191 0.0
C1854 C 0.51368 0.54956 0.78315 0.0
C1855 C 0.52753 0.55964 0.77342 0.0
C1856 C 0.48467 0.56439 0.76938 0.0
C1857 C 0.51414 0.53718 0.79438 0.0
C1858 C 0.39721 0.4658 0.71866 0.0
C1859 C 0.40798 0.46377 0.7317 0.0
C1860 C 0.41731 0.47864 0.7584 0.0
C1861 C 0.43134 0.47764 0.76178 0.0
C1862 C 0.44401 0.48894 0.77287 0.0
C1863 C 0.44275 0.50173 0.78037 0.0
C1864 C 0.42847 0.50262 0.77704 0.0
C1865 C 0.41572 0.49075 0.76642 0.0
C1866 C 0.4588 0.48731 0.7764 0.0
C1867 C 0.4268 0.51632 0.7843 0.0
C1868 C 0.41106 0.48206 0.88674 0.0
C1869 C 0.42433 0.47983 0.88357 0.0
C1870 C 0.43869 0.4921 0.87577 0.0
C1871 C 0.43976 0.50685 0.87108 0.0
C1872 C 0.42669 0.50938 0.87494 0.0
C1873 C 0.41258 0.49699 0.88292 0.0
C1874 C 0.45262 0.48922 0.87231 0.0
C1875 C 0.4275 0.52503 0.8703 0.0
C1876 C 0.53977 0.62505 0.89546 0.0
C1877 C 0.5363 0.61091 0.90699 0.0
C1878 C 0.52178 0.58528 0.88985 0.0
C1879 C 0.52299 0.5721 0.88418 0.0
C1880 C 0.50969 0.5586 0.87556 0.0
C1881 C 0.49494 0.55856 0.87206 0.0
C1882 C 0.49355 0.57182 0.87784 0.0
C1883 C 0.50692 0.58497 0.88684 0.0
C1884 C 0.5115 0.54448 0.87007 0.0
C1885 C 0.47803 0.5722 0.87433 0.0
C1886 C 0.48435 0.53965 0.79144 0.0
C1887 C 0.47096 0.52654 0.78263 0.0
C1888 C 0.45677 0.51474 0.79084 0.0
C1889 C 0.45603 0.51572 0.80848 0.0
C1890 C 0.44237 0.5036 0.81728 0.0
C1891 C 0.44168 0.50479 0.83461 0.0
C1892 C 0.45471 0.51807 0.84385 0.0
C1893 C 0.45418 0.51931 0.86149 0.0
C1894 C 0.46741 0.5326 0.87029 0.0
C1895 C 0.4812 0.54489 0.86192 0.0
C1896 C 0.48186 0.54394 0.84426 0.0
C1897 C 0.49538 0.55623 0.83539 0.0
C1898 C 0.49617 0.55492 0.81808 0.0
C1899 C 0.48343 0.54135 0.80896 0.0
C1900 C 0.46935 0.52917 0.81754 0.0
C1901 C 0.46864 0.53039 0.83523 0.0
C1902 C 0.37448 0.45028 0.87655 0.0
C1903 C 0.38821 0.4536 0.88943 0.0
O1904 O 0.54062 0.57891 0.75203 0.0
O1905 O 0.53533 0.59804 0.89781 0.0
O1906 O 0.3968 0.47021 0.89375 0.0
O1907 O 0.40519 0.46817 0.74735 0.0
H1908 H 0.53466 0.5907 0.73453 0.0
H1909 H 0.51758 0.55986 0.72895 0.0
H1910 H 0.53644 0.56012 0.72499 0.0
H1911 H 0.52963 0.57048 0.71127 0.0
H1912 H 0.51305 0.58037 0.75212 0.0
H1913 H 0.53846 0.5587 0.77424 0.0
H1914 H 0.47431 0.55361 0.76252 0.0
H1915 H 0.48767 0.57565 0.76254 0.0
H1916 H 0.48022 0.56498 0.78203 0.0
H1917 H 0.52489 0.53584 0.7918 0.0
H1918 H 0.5025 0.52496 0.79278 0.0
H1919 H 0.51514 0.54118 0.80768 0.0
H1920 H 0.42121 0.47224 0.72824 0.0
H1921 H 0.39947 0.46274 0.70589 0.0
H1922 H 0.40036 0.47874 0.71883 0.0
H1923 H 0.38379 0.45767 0.72141 0.0
H1924 H 0.43233 0.46798 0.75579 0.0
H1925 H 0.40474 0.4913 0.76375 0.0
H1926 H 0.46975 0.49709 0.7698 0.0
H1927 H 0.45653 0.47521 0.77207 0.0
H1928 H 0.46195 0.48891 0.79003 0.0
H1929 H 0.41635 0.51675 0.77831 0.0
H1930 H 0.43848 0.52839 0.78275 0.0
H1931 H 0.4245 0.51448 0.79792 0.0
H1932 H 0.3964 0.45012 0.88324 0.0
H1933 H 0.42357 0.46862 0.88729 0.0
H1934 H 0.4024 0.4987 0.88575 0.0
H1935 H 0.4537 0.48829 0.85856 0.0
H1936 H 0.45055 0.47778 0.87806 0.0
H1937 H 0.46463 0.49978 0.87719 0.0
H1938 H 0.4161 0.52491 0.87375 0.0
H1939 H 0.42924 0.52689 0.85659 0.0
H1940 H 0.4384 0.53566 0.87676 0.0
H1941 H 0.52434 0.60665 0.91337 0.0
H1942 H 0.54119 0.63558 0.90297 0.0
H1943 H 0.52932 0.62107 0.88631 0.0
H1944 H 0.55128 0.62925 0.88831 0.0
H1945 H 0.53447 0.5724 0.88661 0.0
H1946 H 0.50572 0.59504 0.89117 0.0
H1947 H 0.51272 0.5446 0.85625 0.0
H1948 H 0.50026 0.53257 0.87328 0.0
H1949 H 0.52261 0.54522 0.87595 0.0
H1950 H 0.47949 0.58409 0.87823 0.0
H1951 H 0.46752 0.5622 0.8812 0.0
H1952 H 0.47469 0.57002 0.86074 0.0
H1953 H 0.47162 0.52548 0.76915 0.0
H1954 H 0.43206 0.49303 0.81086 0.0
H1955 H 0.43079 0.49512 0.84067 0.0
H1956 H 0.46697 0.5334 0.88383 0.0
H1957 H 0.50557 0.56696 0.84173 0.0
H1958 H 0.50691 0.5647 0.81193 0.0
H1959 H 0.36489 0.45199 0.88241 0.0
H1960 H 0.36861 0.43766 0.87107 0.0
H1961 H 0.37995 0.45898 0.86608 0.0
C1962 C 0.67886 0.79404 0.62562 0.0
C1963 C 0.66359 0.77826 0.61857 0.0
C1964 C 0.65593 0.78701 0.59332 0.0
C1965 C 0.63977 0.78326 0.59656 0.0
C1966 C 0.63299 0.79131 0.5881 0.0
C1967 C 0.64266 0.80343 0.57628 0.0
C1968 C 0.65897 0.80719 0.57299 0.0
C1969 C 0.66526 0.79866 0.58134 0.0
C1970 C 0.61547 0.78679 0.59173 0.0
C1971 C 0.6698 0.82024 0.56071 0.0
C1972 C 0.61235 0.88999 0.60487 0.0
C1973 C 0.62811 0.89202 0.61315 0.0
C1974 C 0.63557 0.87665 0.59388 0.0
C1975 C 0.64705 0.87836 0.58201 0.0
C1976 C 0.64549 0.86462 0.57366 0.0
C1977 C 0.63192 0.84873 0.57715 0.0
C1978 C 0.62028 0.84684 0.58924 0.0
C1979 C 0.62226 0.8608 0.59757 0.0
C1980 C 0.65831 0.86712 0.56103 0.0
C1981 C 0.60568 0.83007 0.59324 0.0
C1982 C 0.58624 0.84437 0.47447 0.0
C1983 C 0.60337 0.85195 0.4779 0.0
C1984 C 0.60973 0.84347 0.48623 0.0
C1985 C 0.59864 0.8273 0.49179 0.0
C1986 C 0.58137 0.81964 0.48821 0.0
C1987 C 0.57546 0.8282 0.4793 0.0
C1988 C 0.62831 0.85179 0.48897 0.0
C1989 C 0.56911 0.80244 0.49385 0.0
C1990 C 0.6147 0.72786 0.47877 0.0
C1991 C 0.61056 0.73383 0.46274 0.0
C1992 C 0.61684 0.76145 0.4714 0.0
C1993 C 0.62896 0.77816 0.4708 0.0
C1994 C 0.62743 0.78988 0.4799 0.0
C1995 C 0.61321 0.78472 0.48968 0.0
C1996 C 0.60062 0.76786 0.49 0.0
C1997 C 0.6026 0.75634 0.48096 0.0
C1998 C 0.64112 0.80776 0.47927 0.0
C1999 C 0.58517 0.76202 0.50006 0.0
C2000 C 0.6357 0.81217 0.56736 0.0
C2001 C 0.63609 0.82529 0.57571 0.0
C2002 C 0.62993 0.83416 0.56802 0.0
C2003 C 0.62294 0.82974 0.55159 0.0
C2004 C 0.61607 0.838 0.5437 0.0
C2005 C 0.60984 0.83399 0.52728 0.0
C2006 C 0.61051 0.82178 0.518 0.0
C2007 C 0.60507 0.81823 0.50099 0.0
C2008 C 0.60588 0.80594 0.49223 0.0
C2009 C 0.61188 0.79697 0.49998 0.0
C2010 C 0.6173 0.80029 0.51697 0.0
C2011 C 0.62334 0.79143 0.52517 0.0
C2012 C 0.62899 0.79503 0.54178 0.0
C2013 C 0.62922 0.80789 0.55072 0.0
C2014 C 0.62291 0.81678 0.54279 0.0
C2015 C 0.61683 0.81289 0.52594 0.0
C2016 C 0.57049 0.87088 0.46718 0.0
C2017 C 0.58545 0.86879 0.4677 0.0
O2018 O 0.66266 0.77932 0.6013 0.0
O2019 O 0.61955 0.75086 0.46261 0.0
O2020 O 0.57972 0.85217 0.46631 0.0
O2021 O 0.63783 0.89061 0.60123 0.0
H2022 H 0.65235 0.77694 0.62442 0.0
H2023 H 0.67781 0.80479 0.62268 0.0
H2024 H 0.69041 0.79589 0.62004 0.0
H2025 H 0.67978 0.79347 0.63947 0.0
H2026 H 0.63234 0.77384 0.60546 0.0
H2027 H 0.67767 0.80133 0.57884 0.0
H2028 H 0.61578 0.79746 0.59774 0.0
H2029 H 0.60909 0.77614 0.60016 0.0
H2030 H 0.60807 0.78378 0.57984 0.0
H2031 H 0.68283 0.82315 0.56119 0.0
H2032 H 0.66983 0.83168 0.56331 0.0
H2033 H 0.66469 0.81594 0.54779 0.0
H2034 H 0.62451 0.88241 0.62272 0.0
H2035 H 0.60474 0.89142 0.61442 0.0
H2036 H 0.60461 0.87761 0.59892 0.0
H2037 H 0.61562 0.8993 0.59505 0.0
H2038 H 0.65729 0.89059 0.57927 0.0
H2039 H 0.61329 0.85918 0.6068 0.0
H2040 H 0.66317 0.85903 0.56383 0.0
H2041 H 0.66892 0.88006 0.5609 0.0
H2042 H 0.65242 0.86367 0.54831 0.0
H2043 H 0.59716 0.83071 0.60222 0.0
H2044 H 0.61027 0.82251 0.59872 0.0
H2045 H 0.59854 0.8237 0.58154 0.0
H2046 H 0.59187 0.87371 0.48012 0.0
H2047 H 0.6118 0.86435 0.4738 0.0
H2048 H 0.56227 0.82242 0.47641 0.0
H2049 H 0.63157 0.8557 0.50233 0.0
H2050 H 0.63528 0.86284 0.48116 0.0
H2051 H 0.63249 0.84317 0.48603 0.0
H2052 H 0.55601 0.79916 0.49216 0.0
H2053 H 0.57144 0.80114 0.50726 0.0
H2054 H 0.57074 0.79352 0.48644 0.0
H2055 H 0.59701 0.7291 0.46204 0.0
H2056 H 0.60759 0.71421 0.47886 0.0
H2057 H 0.61128 0.7323 0.48999 0.0
H2058 H 0.62823 0.73251 0.47965 0.0
H2059 H 0.63985 0.78198 0.46333 0.0
H2060 H 0.59303 0.74346 0.48152 0.0
H2061 H 0.64594 0.81262 0.49216 0.0
H2062 H 0.63606 0.81501 0.47401 0.0
H2063 H 0.65163 0.8097 0.4715 0.0
H2064 H 0.5759 0.74872 0.49795 0.0
H2065 H 0.57928 0.76911 0.49676 0.0
H2066 H 0.58861 0.76426 0.51362 0.0
H2067 H 0.64148 0.8288 0.5883 0.0
H2068 H 0.61548 0.84769 0.55013 0.0
H2069 H 0.60471 0.84077 0.52187 0.0
H2070 H 0.60194 0.80342 0.47913 0.0
H2071 H 0.62378 0.78161 0.51884 0.0
H2072 H 0.63342 0.78775 0.54743 0.0
H2073 H 0.56348 0.86613 0.45505 0.0
H2074 H 0.57463 0.88406 0.4688 0.0
H2075 H 0.56201 0.86397 0.47751 0.0
C2076 C 0.12652 0.71472 0.64895 0.0
C2077 C 0.12542 0.72777 0.63915 0.0
C2078 C 0.13887 0.74123 0.61345 0.0
C2079 C 0.13481 0.75335 0.61279 0.0
C2080 C 0.14416 0.76744 0.60323 0.0
C2081 C 0.15816 0.76966 0.59458 0.0
C2082 C 0.16227 0.7574 0.59528 0.0
C2083 C 0.15224 0.74311 0.60435 0.0
C2084 C 0.13916 0.78003 0.60257 0.0
C2085 C 0.17741 0.75949 0.58677 0.0
C2086 C 0.26117 0.8986 0.6272 0.0
C2087 C 0.25358 0.88108 0.62179 0.0
C2088 C 0.22571 0.85698 0.61698 0.0
C2089 C 0.23078 0.84769 0.60807 0.0
C2090 C 0.21918 0.83342 0.59902 0.0
C2091 C 0.20219 0.82854 0.59857 0.0
C2092 C 0.19699 0.83764 0.60791 0.0
C2093 C 0.20883 0.85165 0.61718 0.0
C2094 C 0.22515 0.82374 0.58968 0.0
C2095 C 0.179 0.8328 0.60778 0.0
C2096 C 0.22096 0.86582 0.49498 0.0
C2097 C 0.22751 0.85636 0.50035 0.0
C2098 C 0.21714 0.84072 0.50701 0.0
C2099 C 0.19992 0.8345 0.50851 0.0
C2100 C 0.19322 0.84376 0.50257 0.0
C2101 C 0.20383 0.85922 0.49569 0.0
C2102 C 0.22462 0.8309 0.51264 0.0
C2103 C 0.17492 0.83746 0.50381 0.0
C2104 C 0.11968 0.70215 0.47297 0.0
C2105 C 0.12041 0.71842 0.475 0.0
C2106 C 0.14428 0.74536 0.48346 0.0
C2107 C 0.16132 0.75312 0.48697 0.0
C2108 C 0.16964 0.76739 0.49712 0.0
C2109 C 0.16074 0.77434 0.5035 0.0
C2110 C 0.14361 0.76697 0.49932 0.0
C2111 C 0.13549 0.75242 0.48949 0.0
C2112 C 0.18793 0.77491 0.50119 0.0
C2113 C 0.13389 0.77441 0.50532 0.0
C2114 C 0.16892 0.78517 0.58557 0.0
C2115 C 0.17985 0.79921 0.59521 0.0
C2116 C 0.19008 0.81436 0.58774 0.0
C2117 C 0.18928 0.81567 0.57016 0.0
C2118 C 0.19879 0.83088 0.56233 0.0
C2119 C 0.19848 0.83197 0.54499 0.0
C2120 C 0.18881 0.81786 0.53477 0.0
C2121 C 0.18911 0.81875 0.51708 0.0
C2122 C 0.17947 0.80446 0.50728 0.0
C2123 C 0.16942 0.7892 0.51467 0.0
C2124 C 0.16875 0.78813 0.53236 0.0
C2125 C 0.15856 0.77307 0.54027 0.0
C2126 C 0.15818 0.77214 0.55769 0.0
C2127 C 0.16851 0.7861 0.56788 0.0
C2128 C 0.17877 0.80142 0.56017 0.0
C2129 C 0.17869 0.80248 0.54242 0.0
C2130 C 0.24721 0.90314 0.50782 0.0
C2131 C 0.24686 0.89288 0.49281 0.0
O2132 O 0.13014 0.72764 0.62281 0.0
O2133 O 0.13685 0.7312 0.47413 0.0
O2134 O 0.23049 0.88103 0.4885 0.0
O2135 O 0.23675 0.87133 0.62512 0.0
H2136 H 0.13439 0.73988 0.64531 0.0
H2137 H 0.13944 0.71733 0.64876 0.0
H2138 H 0.11801 0.70229 0.6433 0.0
H2139 H 0.12316 0.71481 0.66222 0.0
H2140 H 0.12426 0.75176 0.6196 0.0
H2141 H 0.1552 0.7336 0.60493 0.0
H2142 H 0.14812 0.79097 0.6103 0.0
H2143 H 0.12649 0.77521 0.60744 0.0
H2144 H 0.13952 0.7841 0.58951 0.0
H2145 H 0.18044 0.7503 0.59094 0.0
H2146 H 0.18839 0.772 0.58934 0.0
H2147 H 0.1751 0.758 0.57301 0.0
H2148 H 0.26076 0.87531 0.6255 0.0
H2149 H 0.27073 0.90074 0.63714 0.0
H2150 H 0.25234 0.89898 0.63626 0.0
H2151 H 0.26751 0.91126 0.60462 0.0
H2152 H 0.2438 0.85154 0.60809 0.0
H2153 H 0.20503 0.85885 0.62418 0.0
H2154 H 0.22483 0.82566 0.57601 0.0
H2155 H 0.21683 0.81038 0.59187 0.0
H2156 H 0.23807 0.82754 0.59346 0.0
H2157 H 0.17722 0.84198 0.61446 0.0
H2158 H 0.17145 0.82078 0.61392 0.0
H2159 H 0.17421 0.83131 0.59467 0.0
H2160 H 0.25403 0.88715 0.49637 0.0
H2161 H 0.2406 0.86089 0.49914 0.0
H2162 H 0.19884 0.86646 0.49119 0.0
H2163 H 0.2246 0.83041 0.52653 0.0
H2164 H 0.23763 0.83636 0.5085 0.0
H2165 H 0.21704 0.81807 0.50766 0.0
H2166 H 0.17175 0.84641 0.49914 0.0
H2167 H 0.17112 0.83473 0.51706 0.0
H2168 H 0.16758 0.82581 0.49641 0.0
H2169 H 0.11556 0.71844 0.48764 0.0
H2170 H 0.10667 0.69162 0.47401 0.0
H2171 H 0.1274 0.70118 0.48299 0.0
H2172 H 0.1245 0.70137 0.4606 0.0
H2173 H 0.16801 0.74767 0.48206 0.0
H2174 H 0.12237 0.7467 0.48639 0.0
H2175 H 0.19024 0.77677 0.51495 0.0
H2176 H 0.19515 0.78715 0.49537 0.0
H2177 H 0.19266 0.76717 0.49652 0.0
H2178 H 0.12123 0.7683 0.49945 0.0
H2179 H 0.14064 0.78771 0.50249 0.0
H2180 H 0.13266 0.7733 0.51913 0.0
H2181 H 0.18049 0.79832 0.60872 0.0
H2182 H 0.20663 0.84213 0.56952 0.0
H2183 H 0.2061 0.84402 0.53971 0.0
H2184 H 0.18004 0.80519 0.49372 0.0
H2185 H 0.15068 0.76182 0.5331 0.0
H2186 H 0.14993 0.76026 0.56306 0.0
H2187 H 0.24012 0.90914 0.50484 0.0
H2188 H 0.26025 0.91276 0.51135 0.0
H2189 H 0.2415 0.89512 0.51875 0.0
C2190 C 0.14321 0.37284 0.64159 0.0
C2191 C 0.13476 0.37975 0.63075 0.0
C2192 C 0.1478 0.37947 0.60433 0.0
C2193 C 0.16347 0.39383 0.60703 0.0
C2194 C 0.17693 0.39713 0.59698 0.0
C2195 C 0.17469 0.3857 0.5842 0.0
C2196 C 0.15883 0.37128 0.58142 0.0
C2197 C 0.14553 0.36858 0.59131 0.0
C2198 C 0.19358 0.41273 0.60014 0.0
C2199 C 0.15596 0.3585 0.56828 0.0
C2200 C 0.28281 0.3843 0.59979 0.0
C2201 C 0.2696 0.37622 0.61325 0.0
C2202 C 0.24448 0.37175 0.59821 0.0
C2203 C 0.22984 0.35994 0.58983 0.0
C2204 C 0.21957 0.36428 0.58148 0.0
C2205 C 0.22404 0.38091 0.58164 0.0
C2206 C 0.23875 0.39295 0.59023 0.0
C2207 C 0.24886 0.38828 0.59841 0.0
C2208 C 0.20396 0.35112 0.57243 0.0
C2209 C 0.24378 0.41076 0.59072 0.0
C2210 C 0.2591 0.4027 0.47706 0.0
C2211 C 0.24407 0.38767 0.47893 0.0
C2212 C 0.23074 0.38701 0.48723 0.0
C2213 C 0.23252 0.40168 0.49375 0.0
C2214 C 0.24736 0.41693 0.49112 0.0
C2215 C 0.26042 0.41724 0.48264 0.0
C2216 C 0.21488 0.37061 0.48933 0.0
C2217 C 0.24956 0.43282 0.49766 0.0
C2218 C 0.14469 0.43277 0.46802 0.0
C2219 C 0.14561 0.4189 0.45935 0.0
C2220 C 0.1568 0.40699 0.47871 0.0
C2221 C 0.1533 0.39188 0.48475 0.0
C2222 C 0.1656 0.39027 0.49291 0.0
C2223 C 0.18166 0.40438 0.49584 0.0
C2224 C 0.18528 0.41978 0.48986 0.0
C2225 C 0.17287 0.42089 0.48116 0.0
C2226 C 0.16132 0.37344 0.49839 0.0
C2227 C 0.20219 0.43512 0.4928 0.0
C2228 C 0.18905 0.38834 0.57428 0.0
C2229 C 0.20019 0.38477 0.58185 0.0
C2230 C 0.21322 0.38563 0.57293 0.0
C2231 C 0.21523 0.39012 0.55591 0.0
C2232 C 0.22813 0.39098 0.54652 0.0
C2233 C 0.22965 0.39484 0.52962 0.0
C2234 C 0.21822 0.39779 0.52139 0.0
C2235 C 0.21923 0.40101 0.50404 0.0
C2236 C 0.20732 0.40334 0.49615 0.0
C2237 C 0.19457 0.40296 0.50522 0.0
C2238 C 0.19376 0.40038 0.52271 0.0
C2239 C 0.18158 0.40064 0.53239 0.0
C2240 C 0.18022 0.39706 0.54937 0.0
C2241 C 0.19098 0.39305 0.55732 0.0
C2242 C 0.20394 0.39364 0.54802 0.0
C2243 C 0.20536 0.39737 0.53072 0.0
C2244 C 0.29125 0.40057 0.48711 0.0
C2245 C 0.27824 0.3932 0.47272 0.0
O2246 O 0.13457 0.37554 0.61401 0.0
O2247 O 0.14423 0.40761 0.47097 0.0
O2248 O 0.27246 0.40364 0.46976 0.0
O2249 O 0.25392 0.3666 0.6058 0.0
H2250 H 0.14161 0.39335 0.63229 0.0
H2251 H 0.15632 0.37811 0.63796 0.0
H2252 H 0.13651 0.35925 0.64006 0.0
H2253 H 0.14339 0.37603 0.65505 0.0
H2254 H 0.16524 0.40248 0.6169 0.0
H2255 H 0.13334 0.35759 0.58931 0.0
H2256 H 0.20243 0.40964 0.60566 0.0
H2257 H 0.19273 0.42137 0.60887 0.0
H2258 H 0.19876 0.41901 0.58814 0.0
H2259 H 0.14373 0.34691 0.56957 0.0
H2260 H 0.16591 0.35565 0.56911 0.0
H2261 H 0.1563 0.36334 0.55562 0.0
H2262 H 0.26991 0.38589 0.62139 0.0
H2263 H 0.29539 0.39193 0.60574 0.0
H2264 H 0.28048 0.39243 0.59194 0.0
H2265 H 0.28262 0.3748 0.5915 0.0
H2266 H 0.22653 0.34724 0.58975 0.0
H2267 H 0.2601 0.39763 0.60486 0.0
H2268 H 0.20434 0.35419 0.559 0.0
H2269 H 0.19293 0.35061 0.57782 0.0
H2270 H 0.20234 0.33878 0.5733 0.0
H2271 H 0.25554 0.41866 0.59803 0.0
H2272 H 0.23376 0.4119 0.59637 0.0
H2273 H 0.24541 0.41537 0.57774 0.0
H2274 H 0.26813 0.38101 0.47698 0.0
H2275 H 0.24264 0.37646 0.47384 0.0
H2276 H 0.27196 0.42881 0.4808 0.0
H2277 H 0.21326 0.36752 0.50281 0.0
H2278 H 0.21489 0.36055 0.48225 0.0
H2279 H 0.20402 0.37127 0.48502 0.0
H2280 H 0.26188 0.44366 0.4946 0.0
H2281 H 0.24824 0.43234 0.51148 0.0
H2282 H 0.23966 0.43447 0.4922 0.0
H2283 H 0.15779 0.42449 0.45304 0.0
H2284 H 0.14481 0.44127 0.45855 0.0
H2285 H 0.15556 0.43996 0.47668 0.0
H2286 H 0.13325 0.42782 0.47547 0.0
H2287 H 0.14087 0.38122 0.48278 0.0
H2288 H 0.17572 0.43269 0.47664 0.0
H2289 H 0.15928 0.37241 0.51209 0.0
H2290 H 0.17165 0.37145 0.4958 0.0
H2291 H 0.1498 0.3635 0.49198 0.0
H2292 H 0.20231 0.44643 0.4895 0.0
H2293 H 0.21142 0.43438 0.48503 0.0
H2294 H 0.20623 0.43615 0.50614 0.0
H2295 H 0.19848 0.38091 0.59479 0.0
H2296 H 0.23713 0.38858 0.55212 0.0
H2297 H 0.23979 0.39525 0.52304 0.0
H2298 H 0.2079 0.40529 0.48275 0.0
H2299 H 0.17283 0.40345 0.52691 0.0
H2300 H 0.1705 0.39726 0.55616 0.0
H2301 H 0.30187 0.41287 0.4838 0.0
H2302 H 0.29579 0.39227 0.49019 0.0
H2303 H 0.28552 0.40205 0.49851 0.0
C2304 C 0.96745 0.36977 0.0632 0.0
C2305 C 0.97788 0.36387 0.0595 0.0
C2306 C 0.97074 0.38017 0.07717 0.0
C2307 C 0.98468 0.38461 0.08779 0.0
C2308 C 0.9947 0.37795 0.08466 0.0
C2309 C 0.99123 0.36772 0.0705 0.0
C2310 C 0.95981 0.38709 0.08005 0.0
C2311 C 0.00954 0.38221 0.09585 0.0
C2312 C 0.00553 0.42588 0.11077 0.0
C2313 C 0.99909 0.42139 0.12688 0.0
C2314 C 0.00073 0.41403 0.09791 0.0
C2315 C 0.98955 0.39723 0.10133 0.0
C2316 C 0.98322 0.39258 0.11762 0.0
C2317 C 0.98807 0.40473 0.13021 0.0
C2318 C 0.00772 0.41949 0.08066 0.0
C2319 C 0.9715 0.37477 0.1218 0.0
H2320 H 0.9571 0.36687 0.05478 0.0
H2321 H 0.99929 0.36312 0.06781 0.0
H2322 H 0.95557 0.38516 0.09317 0.0
H2323 H 0.96708 0.40054 0.07808 0.0
H2324 H 0.94872 0.38142 0.07147 0.0
H2325 H 0.01499 0.3747 0.09273 0.0
H2326 H 0.01928 0.39537 0.09451 0.0
H2327 H 0.00596 0.38038 0.10919 0.0
H2328 H 0.01439 0.43869 0.10823 0.0
H2329 H 0.98339 0.40122 0.14276 0.0
H2330 H 0.99743 0.4152 0.07123 0.0
H2331 H 0.01502 0.4139 0.07715 0.0
H2332 H 0.01589 0.43306 0.07996 0.0
H2333 H 0.96023 0.36933 0.11351 0.0
H2334 H 0.9676 0.37322 0.13506 0.0
H2335 H 0.97759 0.36771 0.11951 0.0
C2336 C 0.63563 0.59034 0.04755 0.0
C2337 C 0.64263 0.60742 0.04778 0.0
C2338 C 0.62853 0.5811 0.06192 0.0
C2339 C 0.62861 0.58913 0.07695 0.0
C2340 C 0.63636 0.60645 0.07751 0.0
C2341 C 0.64319 0.61538 0.06288 0.0
C2342 C 0.6203 0.56264 0.06081 0.0
C2343 C 0.63694 0.61548 0.09338 0.0
C2344 C 0.59427 0.56382 0.10743 0.0
C2345 C 0.60227 0.55889 0.11874 0.0
C2346 C 0.60275 0.57375 0.09384 0.0
C2347 C 0.61976 0.57927 0.09177 0.0
C2348 C 0.62809 0.57494 0.10354 0.0
C2349 C 0.61923 0.56478 0.11687 0.0
C2350 C 0.59343 0.57809 0.08152 0.0
C2351 C 0.64629 0.58089 0.10196 0.0
H2352 H 0.6351 0.58407 0.03595 0.0
H2353 H 0.64866 0.62858 0.06321 0.0
H2354 H 0.6254 0.55837 0.07075 0.0
H2355 H 0.60676 0.55673 0.06289 0.0
H2356 H 0.62202 0.55835 0.04844 0.0
H2357 H 0.6448 0.62904 0.09218 0.0
H2358 H 0.62417 0.6122 0.09652 0.0
H2359 H 0.64184 0.61177 0.10404 0.0
H2360 H 0.5813 0.55973 0.10907 0.0
H2361 H 0.62554 0.56133 0.12584 0.0
H2362 H 0.59361 0.57337 0.06881 0.0
H2363 H 0.59962 0.59164 0.08078 0.0
H2364 H 0.58027 0.57292 0.08499 0.0
H2365 H 0.64822 0.57593 0.09016 0.0
H2366 H 0.65113 0.5771 0.11263 0.0
H2367 H 0.65374 0.59449 0.10128 0.0
C2368 C 0.37889 0.01897 0.05293 0.0
C2369 C 0.37599 0.00562 0.04278 0.0
C2370 C 0.39048 0.02462 0.06641 0.0
C2371 C 0.39962 0.01695 0.06952 0.0
C2372 C 0.39692 0.00366 0.05913 0.0
C2373 C 0.38503 0.99805 0.04601 0.0
C2374 C 0.3928 0.03862 0.07745 0.0
C2375 C 0.40665 0.99537 0.06181 0.0
C2376 C 0.44032 0.0401 0.0947 0.0
C2377 C 0.43563 0.03247 0.11027 0.0
C2378 C 0.4287 0.03528 0.08136 0.0
C2379 C 0.41193 0.02268 0.08373 0.0
C2380 C 0.40707 0.01505 0.09946 0.0
C2381 C 0.41902 0.01987 0.11246 0.0
C2382 C 0.43443 0.04344 0.06465 0.0
C2383 C 0.38928 0.00169 0.10253 0.0
H2384 H 0.37188 0.02481 0.05052 0.0
H2385 H 0.38296 0.98783 0.0381 0.0
H2386 H 0.39004 0.03458 0.09061 0.0
H2387 H 0.40593 0.04898 0.07727 0.0
H2388 H 0.38463 0.04316 0.07343 0.0
H2389 H 0.40345 0.98556 0.05225 0.0
H2390 H 0.42019 0.00458 0.06137 0.0
H2391 H 0.40417 0.98986 0.07439 0.0
H2392 H 0.45315 0.04975 0.09288 0.0
H2393 H 0.41538 0.01377 0.12438 0.0
H2394 H 0.42717 0.04904 0.06088 0.0
H2395 H 0.43216 0.03412 0.05486 0.0
H2396 H 0.44787 0.05315 0.06492 0.0
H2397 H 0.38079 0.00606 0.09933 0.0
H2398 H 0.38734 0.99771 0.11576 0.0
H2399 H 0.38568 0.99085 0.0943 0.0
C2400 C 0.37046 0.98299 0.95271 0.0
C2401 C 0.36479 0.99324 0.95791 0.0
C2402 C 0.38203 0.98767 0.9399 0.0
C2403 C 0.38795 0.00287 0.93198 0.0
C2404 C 0.38154 0.01281 0.93648 0.0
C2405 C 0.37009 0.00791 0.94944 0.0
C2406 C 0.38858 0.97674 0.93546 0.0
C2407 C 0.38736 0.02901 0.92815 0.0
C2408 C 0.43134 0.02515 0.91421 0.0
C2409 C 0.42795 0.02149 0.89701 0.0
C2410 C 0.41844 0.01885 0.92574 0.0
C2411 C 0.40171 0.00896 0.91989 0.0
C2412 C 0.39819 0.00525 0.90254 0.0
C2413 C 0.41136 0.01157 0.89132 0.0
C2414 C 0.4227 0.02302 0.94415 0.0
C2415 C 0.38052 0.99493 0.89581 0.0
H2416 H 0.36645 0.97163 0.95916 0.0
H2417 H 0.36571 0.01586 0.95329 0.0
H2418 H 0.3877 0.97448 0.92171 0.0
H2419 H 0.40193 0.98298 0.93925 0.0
H2420 H 0.38173 0.96472 0.94177 0.0
H2421 H 0.38002 0.0345 0.93193 0.0
H2422 H 0.40063 0.03782 0.93157 0.0
H2423 H 0.38647 0.02736 0.91431 0.0
H2424 H 0.4441 0.03312 0.91865 0.0
H2425 H 0.4087 0.00903 0.87799 0.0
H2426 H 0.41717 0.01159 0.95147 0.0
H2427 H 0.41734 0.0302 0.94876 0.0
H2428 H 0.43635 0.03028 0.94672 0.0
H2429 H 0.37397 0.98289 0.90206 0.0
H2430 H 0.37992 0.99273 0.88205 0.0
H2431 H 0.37367 0.00115 0.89864 0.0
C2432 C 0.0113 0.37716 0.96619 0.0
C2433 C 0.99853 0.37647 0.97557 0.0
C2434 C 0.0176 0.38742 0.95228 0.0
C2435 C 0.0112 0.3974 0.94794 0.0
C2436 C 0.99881 0.39723 0.95782 0.0
C2437 C 0.99252 0.38665 0.9714 0.0
C2438 C 0.03064 0.38711 0.94187 0.0
C2439 C 0.99188 0.40792 0.95382 0.0
C2440 C 0.03433 0.43362 0.91912 0.0
C2441 C 0.025 0.42731 0.90411 0.0
C2442 C 0.03029 0.4239 0.9334 0.0
C2443 C 0.0167 0.40742 0.93258 0.0
C2444 C 0.00752 0.40085 0.91734 0.0
C2445 C 0.01166 0.41092 0.90336 0.0
C2446 C 0.04019 0.43141 0.94951 0.0
C2447 C 0.99302 0.3833 0.91593 0.0
H2448 H 0.01592 0.36925 0.96935 0.0
H2449 H 0.98278 0.3863 0.97874 0.0
H2450 H 0.02545 0.38222 0.9291 0.0
H2451 H 0.04151 0.39976 0.94048 0.0
H2452 H 0.03499 0.37938 0.94745 0.0
H2453 H 0.98317 0.4072 0.96346 0.0
H2454 H 0.00214 0.42093 0.95283 0.0
H2455 H 0.98514 0.40408 0.94152 0.0
H2456 H 0.0446 0.4463 0.91979 0.0
H2457 H 0.00428 0.40604 0.89186 0.0
H2458 H 0.04479 0.42372 0.95452 0.0
H2459 H 0.03205 0.43187 0.95909 0.0
H2460 H 0.05098 0.44407 0.94781 0.0
H2461 H 0.99681 0.37478 0.92045 0.0
H2462 H 0.98807 0.37968 0.90285 0.0
H2463 H 0.98283 0.38172 0.92397 0.0
C2464 C 0.61265 0.64341 0.97488 0.0
C2465 C 0.61362 0.62962 0.97852 0.0
C2466 C 0.59992 0.64197 0.96423 0.0
C2467 C 0.58783 0.62636 0.9573 0.0
C2468 C 0.58834 0.61232 0.96162 0.0
C2469 C 0.60126 0.61415 0.97208 0.0
C2470 C 0.59981 0.65721 0.95981 0.0
C2471 C 0.57558 0.59542 0.9547 0.0
C2472 C 0.54694 0.61687 0.9372 0.0
C2473 C 0.55012 0.61664 0.92012 0.0
C2474 C 0.55935 0.6208 0.94951 0.0
C2475 C 0.57532 0.62465 0.94458 0.0
C2476 C 0.57881 0.62515 0.92732 0.0
C2477 C 0.56615 0.62105 0.91532 0.0
C2478 C 0.55514 0.62004 0.96778 0.0
C2479 C 0.59569 0.62927 0.92153 0.0
H2480 H 0.62219 0.65539 0.97981 0.0
H2481 H 0.60181 0.6034 0.97502 0.0
H2482 H 0.60269 0.65988 0.94637 0.0
H2483 H 0.58729 0.65525 0.96166 0.0
H2484 H 0.60908 0.66812 0.96743 0.0
H2485 H 0.57702 0.58563 0.96027 0.0
H2486 H 0.56282 0.59263 0.95708 0.0
H2487 H 0.57679 0.59504 0.94091 0.0
H2488 H 0.53458 0.61351 0.94097 0.0
H2489 H 0.56865 0.62084 0.90214 0.0
H2490 H 0.56474 0.63132 0.97464 0.0
H2491 H 0.55501 0.60948 0.97357 0.0
H2492 H 0.54279 0.61858 0.96952 0.0
H2493 H 0.60564 0.6408 0.92776 0.0
H2494 H 0.59687 0.63072 0.90774 0.0
H2495 H 0.59783 0.61934 0.9251 0.0
C2496 C 0.01006 0.62589 0.96201 0.0
C2497 C 0.02454 0.63995 0.96833 0.0
C2498 C 0.01053 0.61731 0.94786 0.0
C2499 C 0.02575 0.62324 0.93959 0.0
C2500 C 0.04022 0.63791 0.94544 0.0
C2501 C 0.03949 0.64595 0.95991 0.0
C2502 C 0.99494 0.60151 0.94224 0.0
C2503 C 0.05656 0.64489 0.93667 0.0
C2504 C 0.03394 0.59415 0.91494 0.0
C2505 C 0.03069 0.5967 0.89836 0.0
C2506 C 0.03182 0.60232 0.92848 0.0
C2507 C 0.02683 0.61367 0.92539 0.0
C2508 C 0.02344 0.61624 0.90875 0.0
C2509 C 0.02516 0.60753 0.89549 0.0
C2510 C 0.03515 0.59894 0.9461 0.0
C2511 C 0.01844 0.62851 0.90493 0.0
H2512 H 0.99851 0.62116 0.96861 0.0
H2513 H 0.05068 0.65689 0.96472 0.0
H2514 H 0.99222 0.60192 0.92875 0.0
H2515 H 0.99683 0.59108 0.9438 0.0
H2516 H 0.98393 0.59901 0.9495 0.0
H2517 H 0.06621 0.65717 0.94187 0.0
H2518 H 0.06122 0.63646 0.93797 0.0
H2519 H 0.05482 0.64601 0.92307 0.0
H2520 H 0.03818 0.58583 0.91744 0.0
H2521 H 0.02253 0.60946 0.88274 0.0
H2522 H 0.0243 0.59556 0.95403 0.0
H2523 H 0.046 0.6102 0.95177 0.0
H2524 H 0.03774 0.58888 0.94646 0.0
H2525 H 0.00709 0.62547 0.9118 0.0
H2526 H 0.01602 0.62889 0.89132 0.0
H2527 H 0.02847 0.64097 0.90927 0.0
C2528 C 0.35488 0.40989 0.97804 0.0
C2529 C 0.35717 0.39664 0.97998 0.0
C2530 C 0.35954 0.41903 0.96333 0.0
C2531 C 0.36687 0.41498 0.95033 0.0
C2532 C 0.36922 0.40162 0.9522 0.0
C2533 C 0.36422 0.39253 0.96695 0.0
C2534 C 0.35663 0.43305 0.9617 0.0
C2535 C 0.37716 0.39703 0.93868 0.0
C2536 C 0.36598 0.42932 0.90631 0.0
C2537 C 0.38199 0.44351 0.90528 0.0
C2538 C 0.36091 0.41999 0.9209 0.0
C2539 C 0.37211 0.42475 0.93477 0.0
C2540 C 0.38833 0.4388 0.93379 0.0
C2541 C 0.39308 0.4479 0.91904 0.0
C2542 C 0.34353 0.405 0.92147 0.0
C2543 C 0.40068 0.4442 0.94829 0.0
H2544 H 0.34935 0.41308 0.98801 0.0
H2545 H 0.36612 0.38238 0.9684 0.0
H2546 H 0.36865 0.44474 0.96002 0.0
H2547 H 0.34872 0.43104 0.95041 0.0
H2548 H 0.35051 0.43443 0.97282 0.0
H2549 H 0.37811 0.38633 0.94208 0.0
H2550 H 0.36982 0.39406 0.92677 0.0
H2551 H 0.38983 0.40762 0.93629 0.0
H2552 H 0.35726 0.42533 0.89581 0.0
H2553 H 0.4056 0.45852 0.91825 0.0
H2554 H 0.33676 0.40626 0.93205 0.0
H2555 H 0.34413 0.3939 0.92369 0.0
H2556 H 0.33623 0.40303 0.90968 0.0
H2557 H 0.39557 0.44668 0.95958 0.0
H2558 H 0.4128 0.45545 0.94553 0.0
H2559 H 0.4029 0.43422 0.95141 0.0
C2560 C 0.61994 0.01078 0.96918 0.0
C2561 C 0.62694 0.00161 0.97409 0.0
C2562 C 0.60829 0.00546 0.95585 0.0
C2563 C 0.60369 0.99072 0.94699 0.0
C2564 C 0.61056 0.98129 0.95197 0.0
C2565 C 0.62201 0.98679 0.96557 0.0
C2566 C 0.60105 0.01572 0.95111 0.0
C2567 C 0.60611 0.96561 0.94269 0.0
C2568 C 0.56389 0.97053 0.92021 0.0
C2569 C 0.57002 0.97653 0.90426 0.0
C2570 C 0.5747 0.97504 0.93424 0.0
C2571 C 0.59206 0.98549 0.93222 0.0
C2572 C 0.59833 0.99132 0.9161 0.0
C2573 C 0.58723 0.98676 0.90234 0.0
C2574 C 0.56753 0.96865 0.95123 0.0
C2575 C 0.61678 0.00234 0.9134 0.0
H2576 H 0.62357 0.02218 0.9758 0.0
H2577 H 0.62742 0.97967 0.96926 0.0
H2578 H 0.60465 0.02027 0.9382 0.0
H2579 H 0.58726 0.00811 0.95118 0.0
H2580 H 0.60534 0.02646 0.95976 0.0
H2581 H 0.6122 0.95948 0.94839 0.0
H2582 H 0.59244 0.95691 0.94253 0.0
H2583 H 0.60992 0.96833 0.92946 0.0
H2584 H 0.55063 0.96227 0.9217 0.0
H2585 H 0.59202 0.9911 0.88997 0.0
H2586 H 0.57112 0.9791 0.96005 0.0
H2587 H 0.57272 0.96153 0.95647 0.0
H2588 H 0.55374 0.96067 0.95069 0.0
H2589 H 0.6218 0.01392 0.92085 0.0
H2590 H 0.61966 0.00547 0.90001 0.0
H2591 H 0.62338 0.99626 0.91782 0.0
C2592 C 0.63172 0.00949 0.06406 0.0
C2593 C 0.64665 0.02317 0.05885 0.0
C2594 C 0.62379 0.01048 0.07836 0.0
C2595 C 0.63125 0.02536 0.08788 0.0
C2596 C 0.64684 0.03889 0.0832 0.0
C2597 C 0.65421 0.03771 0.06857 0.0
C2598 C 0.60699 0.99594 0.08271 0.0
C2599 C 0.65544 0.05479 0.09331 0.0
C2600 C 0.60494 0.0372 0.11244 0.0
C2601 C 0.60683 0.03317 0.12887 0.0
C2602 C 0.61233 0.03413 0.09894 0.0
C2603 C 0.62225 0.0273 0.10194 0.0
C2604 C 0.62408 0.02303 0.11841 0.0
C2605 C 0.61613 0.02578 0.13162 0.0
C2606 C 0.60973 0.03846 0.08147 0.0
C2607 C 0.63484 0.01605 0.12215 0.0
H2608 H 0.62579 0.99828 0.05646 0.0
H2609 H 0.66583 0.04826 0.0646 0.0
H2610 H 0.60687 0.99284 0.09608 0.0
H2611 H 0.59736 0.99912 0.08088 0.0
H2612 H 0.60349 0.98489 0.07483 0.0
H2613 H 0.66828 0.06343 0.08905 0.0
H2614 H 0.64823 0.06089 0.09219 0.0
H2615 H 0.65604 0.05234 0.10678 0.0
H2616 H 0.59777 0.04285 0.11002 0.0
H2617 H 0.61752 0.02252 0.14424 0.0
H2618 H 0.6053 0.02774 0.07279 0.0
H2619 H 0.62172 0.04857 0.07673 0.0
H2620 H 0.60059 0.04242 0.08106 0.0
H2621 H 0.63073 0.00485 0.11433 0.0
H2622 H 0.63456 0.0129 0.13556 0.0
H2623 H 0.64791 0.02513 0.11893 0.0
C2624 C 0.00952 0.61802 0.05871 0.0
C2625 C 0.00099 0.62518 0.05211 0.0
C2626 C 0.00303 0.60698 0.07194 0.0
C2627 C 0.98778 0.60319 0.07895 0.0
C2628 C 0.97905 0.61029 0.0723 0.0
C2629 C 0.98569 0.6211 0.05885 0.0
C2630 C 0.01258 0.59947 0.07851 0.0
C2631 C 0.96286 0.60673 0.0796 0.0
C2632 C 0.96373 0.56483 0.10496 0.0
C2633 C 0.96865 0.57131 0.12134 0.0
C2634 C 0.97004 0.57502 0.09102 0.0
C2635 C 0.98121 0.59214 0.09355 0.0
C2636 C 0.9861 0.59876 0.11005 0.0
C2637 C 0.97978 0.58826 0.12373 0.0
C2638 C 0.96466 0.5675 0.07361 0.0
C2639 C 0.99779 0.61698 0.11328 0.0
H2640 H 0.02128 0.621 0.05347 0.0
H2641 H 0.97908 0.62664 0.05386 0.0
H2642 H 0.01638 0.60328 0.09181 0.0
H2643 H 0.00452 0.58586 0.07808 0.0
H2644 H 0.02391 0.60315 0.07123 0.0
H2645 H 0.95751 0.61308 0.07286 0.0
H2646 H 0.95362 0.59331 0.0791 0.0
H2647 H 0.96487 0.6107 0.09299 0.0
H2648 H 0.95482 0.55181 0.10302 0.0
H2649 H 0.98331 0.59334 0.13638 0.0
H2650 H 0.97573 0.57064 0.06615 0.0
H2651 H 0.95799 0.57262 0.06707 0.0
H2652 H 0.95637 0.5539 0.07377 0.0
H2653 H 0.00979 0.62125 0.10709 0.0
H2654 H 0.00033 0.62016 0.12687 0.0
H2655 H 0.99241 0.62384 0.10779 0.0
C2656 C 0.39276 0.39016 0.06505 0.0
C2657 C 0.38336 0.37604 0.05484 0.0
C2658 C 0.40513 0.39163 0.0762 0.0
C2659 C 0.40804 0.37859 0.07732 0.0
C2660 C 0.39877 0.36441 0.06687 0.0
C2661 C 0.38661 0.36335 0.05568 0.0
C2662 C 0.41491 0.40702 0.08698 0.0
C2663 C 0.40141 0.35017 0.06782 0.0
C2664 C 0.44809 0.38581 0.09762 0.0
C2665 C 0.44293 0.3801 0.11386 0.0
C2666 C 0.43697 0.38573 0.08568 0.0
C2667 C 0.42021 0.37943 0.08997 0.0
C2668 C 0.41494 0.37359 0.10632 0.0
C2669 C 0.42637 0.37402 0.11805 0.0
C2670 C 0.44308 0.39218 0.06841 0.0
C2671 C 0.39713 0.3666 0.11133 0.0
H2672 H 0.39043 0.40009 0.06439 0.0
H2673 H 0.37939 0.35239 0.04787 0.0
H2674 H 0.41233 0.40393 0.1004 0.0
H2675 H 0.42845 0.41247 0.08537 0.0
H2676 H 0.41179 0.41642 0.08393 0.0
H2677 H 0.39356 0.34026 0.05847 0.0
H2678 H 0.41465 0.35447 0.06571 0.0
H2679 H 0.39842 0.34492 0.08053 0.0
H2680 H 0.4608 0.39021 0.09421 0.0
H2681 H 0.42229 0.36932 0.1305 0.0
H2682 H 0.44039 0.40185 0.06534 0.0
H2683 H 0.43638 0.38212 0.05891 0.0
H2684 H 0.45665 0.39738 0.06732 0.0
H2685 H 0.39358 0.37586 0.10957 0.0
H2686 H 0.39508 0.36272 0.12459 0.0
H2687 H 0.38868 0.3558 0.10316 0.0
C2688 C 0.62512 0.70749 0.3727 0.0
C2689 C 0.63354 0.69902 0.37303 0.0
C2690 C 0.62137 0.71265 0.38758 0.0
C2691 C 0.62583 0.70896 0.4032 0.0
C2692 C 0.63402 0.70011 0.40364 0.0
C2693 C 0.63794 0.69539 0.38852 0.0
C2694 C 0.61291 0.72233 0.38659 0.0
C2695 C 0.63866 0.69567 0.42006 0.0
C2696 C 0.63057 0.73626 0.44037 0.0
C2697 C 0.61481 0.72723 0.44752 0.0
C2698 C 0.63436 0.73037 0.42604 0.0
C2699 C 0.62233 0.71484 0.419 0.0
C2700 C 0.6067 0.70531 0.42662 0.0
C2701 C 0.60311 0.71165 0.44076 0.0
C2702 C 0.65111 0.74097 0.41818 0.0
C2703 C 0.5937 0.68852 0.41969 0.0
H2704 H 0.62178 0.71042 0.36077 0.0
H2705 H 0.64435 0.68875 0.38884 0.0
H2706 H 0.60101 0.71589 0.39332 0.0
H2707 H 0.62089 0.73455 0.39282 0.0
H2708 H 0.61028 0.72418 0.37345 0.0
H2709 H 0.64428 0.68809 0.41825 0.0
H2710 H 0.64767 0.70701 0.42724 0.0
H2711 H 0.62748 0.68878 0.42783 0.0
H2712 H 0.63987 0.7481 0.44581 0.0
H2713 H 0.59109 0.70448 0.44652 0.0
H2714 H 0.64937 0.74397 0.4052 0.0
H2715 H 0.65766 0.7342 0.41735 0.0
H2716 H 0.65918 0.75265 0.42536 0.0
H2717 H 0.58956 0.68967 0.40698 0.0
H2718 H 0.58265 0.68222 0.42774 0.0
H2719 H 0.59908 0.68068 0.41845 0.0
C2720 C 0.28055 0.92651 0.40351 0.0
C2721 C 0.2879 0.94343 0.40097 0.0
C2722 C 0.27507 0.91977 0.4193 0.0
C2723 C 0.27707 0.93018 0.43302 0.0
C2724 C 0.28495 0.94734 0.43075 0.0
C2725 C 0.29024 0.95378 0.4147 0.0
C2726 C 0.26672 0.9014 0.42118 0.0
C2727 C 0.28745 0.95882 0.44516 0.0
C2728 C 0.24609 0.90798 0.4672 0.0
C2729 C 0.2551 0.90381 0.47799 0.0
C2730 C 0.25334 0.91724 0.45288 0.0
C2731 C 0.27013 0.92277 0.44947 0.0
C2732 C 0.27963 0.91956 0.46092 0.0
C2733 C 0.27198 0.91009 0.47505 0.0
C2734 C 0.24278 0.92037 0.44096 0.0
C2735 C 0.29764 0.9255 0.45787 0.0
H2736 H 0.27874 0.91838 0.39303 0.0
H2737 H 0.29597 0.96686 0.41288 0.0
H2738 H 0.27325 0.89865 0.43105 0.0
H2739 H 0.25371 0.89616 0.42516 0.0
H2740 H 0.26652 0.89507 0.40934 0.0
H2741 H 0.29499 0.97194 0.44165 0.0
H2742 H 0.27519 0.95619 0.44946 0.0
H2743 H 0.2937 0.95683 0.45594 0.0
H2744 H 0.23318 0.90358 0.4697 0.0
H2745 H 0.2791 0.90727 0.48362 0.0
H2746 H 0.24091 0.91359 0.42895 0.0
H2747 H 0.24917 0.93362 0.43809 0.0
H2748 H 0.23039 0.9164 0.44609 0.0
H2749 H 0.29845 0.91862 0.44703 0.0
H2750 H 0.30381 0.92377 0.46893 0.0
H2751 H 0.3046 0.93871 0.4547 0.0
C2752 C 0.07095 0.37282 0.38946 0.0
C2753 C 0.06611 0.35621 0.38907 0.0
C2754 C 0.08388 0.38422 0.40031 0.0
C2755 C 0.09227 0.37889 0.41085 0.0
C2756 C 0.08756 0.3622 0.41034 0.0
C2757 C 0.0745 0.35107 0.39955 0.0
C2758 C 0.08844 0.40189 0.40067 0.0
C2759 C 0.0963 0.35604 0.42124 0.0
C2760 C 0.13531 0.4087 0.42957 0.0
C2761 C 0.13169 0.40987 0.44632 0.0
C2762 C 0.12256 0.39912 0.41771 0.0
C2763 C 0.10577 0.39059 0.4227 0.0
C2764 C 0.10201 0.39215 0.43946 0.0
C2765 C 0.115 0.4016 0.4511 0.0
C2766 C 0.12708 0.39757 0.40001 0.0
C2767 C 0.08427 0.38334 0.44526 0.0
H2768 H 0.0645 0.37689 0.38143 0.0
H2769 H 0.07094 0.33829 0.39927 0.0
H2770 H 0.08666 0.40535 0.41343 0.0
H2771 H 0.10178 0.41013 0.39779 0.0
H2772 H 0.08086 0.40411 0.39157 0.0
H2773 H 0.09146 0.34278 0.41896 0.0
H2774 H 0.10984 0.36313 0.41888 0.0
H2775 H 0.09474 0.35795 0.43466 0.0
H2776 H 0.14817 0.41493 0.42583 0.0
H2777 H 0.11212 0.40221 0.46408 0.0
H2778 H 0.12 0.40039 0.39088 0.0
H2779 H 0.12365 0.38472 0.39744 0.0
H2780 H 0.14059 0.40587 0.39783 0.0
H2781 H 0.07648 0.3858 0.43671 0.0
H2782 H 0.08335 0.38711 0.45822 0.0
H2783 H 0.07897 0.36988 0.44492 0.0
C2784 C 0.04691 0.3157 0.3013 0.0
C2785 C 0.04142 0.30623 0.31579 0.0
C2786 C 0.05284 0.31093 0.28768 0.0
C2787 C 0.05324 0.2964 0.2886 0.0
C2788 C 0.04745 0.28666 0.303 0.0
C2789 C 0.04163 0.29167 0.31642 0.0
C2790 C 0.05889 0.32151 0.27242 0.0
C2791 C 0.0476 0.271 0.30433 0.0
C2792 C 0.05279 0.26881 0.24312 0.0
C2793 C 0.0758 0.27887 0.24243 0.0
C2794 C 0.04565 0.27703 0.259 0.0
C2795 C 0.05994 0.29142 0.27479 0.0
C2796 C 0.08149 0.29729 0.27616 0.0
C2797 C 0.08986 0.28975 0.26088 0.0
C2798 C 0.02775 0.27176 0.2592 0.0
C2799 C 0.09242 0.30832 0.29015 0.0
H2800 H 0.04681 0.32696 0.30067 0.0
H2801 H 0.03738 0.28421 0.3275 0.0
H2802 H 0.0722 0.32587 0.27054 0.0
H2803 H 0.05179 0.31412 0.26111 0.0
H2804 H 0.05756 0.33235 0.2735 0.0
H2805 H 0.04231 0.26459 0.31625 0.0
H2806 H 0.04034 0.26252 0.29369 0.0
H2807 H 0.06056 0.27382 0.30354 0.0
H2808 H 0.04471 0.2613 0.23279 0.0
H2809 H 0.10298 0.29408 0.26081 0.0
H2810 H 0.0267 0.28277 0.25901 0.0
H2811 H 0.02227 0.26527 0.27101 0.0
H2812 H 0.02088 0.26353 0.24828 0.0
H2813 H 0.09183 0.3196 0.29053 0.0
H2814 H 0.10544 0.31157 0.28855 0.0
H2815 H 0.08774 0.30204 0.30223 0.0
C2816 C 0.67489 0.7265 0.28335 0.0
C2817 C 0.67982 0.72425 0.29925 0.0
C2818 C 0.6854 0.74041 0.27404 0.0
C2819 C 0.70111 0.75252 0.28089 0.0
C2820 C 0.70639 0.75012 0.29671 0.0
C2821 C 0.69574 0.7359 0.30566 0.0
C2822 C 0.67947 0.74231 0.25705 0.0
C2823 C 0.72296 0.76293 0.30451 0.0
C2824 C 0.74015 0.79007 0.24793 0.0
C2825 C 0.73237 0.80435 0.24914 0.0
C2826 C 0.7277 0.77102 0.25874 0.0
C2827 C 0.71127 0.76823 0.27229 0.0
C2828 C 0.7074 0.7845 0.27659 0.0
C2829 C 0.71914 0.80395 0.2664 0.0
C2830 C 0.73069 0.75735 0.2561 0.0
C2831 C 0.69433 0.7818 0.28861 0.0
H2832 H 0.66267 0.71743 0.27825 0.0
H2833 H 0.6996 0.73426 0.31797 0.0
H2834 H 0.6775 0.75276 0.25753 0.0
H2835 H 0.68902 0.745 0.2476 0.0
H2836 H 0.6676 0.7311 0.25287 0.0
H2837 H 0.72564 0.75885 0.31649 0.0
H2838 H 0.7331 0.76591 0.29571 0.0
H2839 H 0.72304 0.77442 0.30697 0.0
H2840 H 0.74893 0.79135 0.2386 0.0
H2841 H 0.71611 0.81333 0.26787 0.0
H2842 H 0.7188 0.74598 0.25238 0.0
H2843 H 0.7351 0.75496 0.26807 0.0
H2844 H 0.74009 0.76051 0.24634 0.0
H2845 H 0.68209 0.77152 0.28387 0.0
H2846 H 0.69387 0.7931 0.29018 0.0
H2847 H 0.69697 0.77817 0.30087 0.0
C2848 C 0.26835 0.97923 0.31664 0.0
C2849 C 0.26438 0.96428 0.32376 0.0
C2850 C 0.25819 0.97968 0.30384 0.0
C2851 C 0.24375 0.96486 0.29819 0.0
C2852 C 0.23916 0.94995 0.30614 0.0
C2853 C 0.24954 0.94985 0.31878 0.0
C2854 C 0.26343 0.99583 0.29573 0.0
C2855 C 0.22378 0.93389 0.30063 0.0
C2856 C 0.20962 0.96231 0.27012 0.0
C2857 C 0.21332 0.95809 0.2546 0.0
C2858 C 0.21994 0.9655 0.28432 0.0
C2859 C 0.23426 0.96442 0.28294 0.0
C2860 C 0.23853 0.96108 0.2671 0.0
C2861 C 0.22808 0.95807 0.25311 0.0
C2862 C 0.21512 0.96926 0.30094 0.0
C2863 C 0.2537 0.95983 0.26507 0.0
H2864 H 0.27981 0.99042 0.32045 0.0
H2865 H 0.24627 0.93829 0.32439 0.0
H2866 H 0.26814 0.99594 0.28305 0.0
H2867 H 0.25267 0.99741 0.29416 0.0
H2868 H 0.27341 0.00646 0.30313 0.0
H2869 H 0.22122 0.92367 0.30903 0.0
H2870 H 0.21275 0.93514 0.30031 0.0
H2871 H 0.22537 0.93055 0.28774 0.0
H2872 H 0.1984 0.96267 0.27124 0.0
H2873 H 0.23115 0.95515 0.24106 0.0
H2874 H 0.226 0.98004 0.30723 0.0
H2875 H 0.21089 0.95865 0.30931 0.0
H2876 H 0.20494 0.97176 0.29952 0.0
H2877 H 0.2649 0.97091 0.27053 0.0
H2878 H 0.25599 0.95844 0.25171 0.0
H2879 H 0.25203 0.94906 0.27195 0.0
C2880 C 0.69218 0.96409 0.29733 0.0
C2881 C 0.69417 0.95674 0.31152 0.0
C2882 C 0.69771 0.96242 0.28165 0.0
C2883 C 0.70489 0.95269 0.28005 0.0
C2884 C 0.70645 0.94481 0.29426 0.0
C2885 C 0.70134 0.94717 0.30992 0.0
C2886 C 0.69627 0.9714 0.2669 0.0
C2887 C 0.71352 0.93391 0.29293 0.0
C2888 C 0.70568 0.93855 0.2356 0.0
C2889 C 0.72223 0.9496 0.23132 0.0
C2890 C 0.70001 0.93901 0.25164 0.0
C2891 C 0.71106 0.95109 0.26353 0.0
C2892 C 0.72787 0.96207 0.25941 0.0
C2893 C 0.73334 0.96093 0.24349 0.0
C2894 C 0.68214 0.92672 0.25577 0.0
C2895 C 0.73997 0.97532 0.27163 0.0
H2896 H 0.68679 0.97162 0.2986 0.0
H2897 H 0.70278 0.9414 0.32089 0.0
H2898 H 0.70877 0.97981 0.2618 0.0
H2899 H 0.68855 0.96251 0.25672 0.0
H2900 H 0.69064 0.97869 0.27032 0.0
H2901 H 0.71289 0.92784 0.30494 0.0
H2902 H 0.70664 0.92428 0.28305 0.0
H2903 H 0.72671 0.94125 0.28922 0.0
H2904 H 0.69709 0.92959 0.22636 0.0
H2905 H 0.74626 0.96918 0.24044 0.0
H2906 H 0.67535 0.93314 0.25769 0.0
H2907 H 0.68159 0.9205 0.26762 0.0
H2908 H 0.67558 0.91722 0.24567 0.0
H2909 H 0.73537 0.98351 0.27497 0.0
H2910 H 0.75261 0.98291 0.26646 0.0
H2911 H 0.74092 0.96976 0.28339 0.0
C2912 C 0.02864 0.72971 0.3046 0.0
C2913 C 0.03229 0.73799 0.32015 0.0
C2914 C 0.03323 0.7384 0.28958 0.0
C2915 C 0.04205 0.7558 0.29017 0.0
C2916 C 0.04595 0.76423 0.30586 0.0
C2917 C 0.04084 0.75521 0.32065 0.0
C2918 C 0.02854 0.72897 0.27308 0.0
C2919 C 0.05567 0.78278 0.30703 0.0
C2920 C 0.0671 0.7779 0.252 0.0
C2921 C 0.05673 0.78226 0.24389 0.0
C2922 C 0.06258 0.76949 0.26717 0.0
C2923 C 0.04724 0.76519 0.27436 0.0
C2924 C 0.03686 0.76983 0.26644 0.0
C2925 C 0.04188 0.77859 0.25147 0.0
C2926 C 0.07421 0.76515 0.27548 0.0
C2927 C 0.02034 0.76536 0.27364 0.0
H2928 H 0.02194 0.71639 0.30415 0.0
H2929 H 0.0438 0.76168 0.33265 0.0
H2930 H 0.02102 0.73231 0.26522 0.0
H2931 H 0.03991 0.7323 0.26609 0.0
H2932 H 0.0213 0.71545 0.27477 0.0
H2933 H 0.05803 0.78746 0.32021 0.0
H2934 H 0.0678 0.78779 0.30086 0.0
H2935 H 0.04881 0.78761 0.30032 0.0
H2936 H 0.07878 0.78106 0.24643 0.0
H2937 H 0.03405 0.78237 0.24562 0.0
H2938 H 0.06801 0.75161 0.27624 0.0
H2939 H 0.0773 0.77022 0.2885 0.0
H2940 H 0.08596 0.76994 0.2686 0.0
H2941 H 0.01238 0.75182 0.27483 0.0
H2942 H 0.01358 0.7696 0.26577 0.0
H2943 H 0.02226 0.77085 0.2864 0.0
C2944 C 0.27575 0.30838 0.29916 0.0
C2945 C 0.27935 0.32444 0.30198 0.0
C2946 C 0.26356 0.29788 0.28721 0.0
C2947 C 0.25462 0.30351 0.27804 0.0
C2948 C 0.25781 0.3195 0.28125 0.0
C2949 C 0.2702 0.3298 0.29309 0.0
C2950 C 0.26061 0.28095 0.28402 0.0
C2951 C 0.24837 0.32587 0.27191 0.0
C2952 C 0.23657 0.28415 0.23515 0.0
C2953 C 0.21983 0.27303 0.23865 0.0
C2954 C 0.24799 0.29415 0.24785 0.0
C2955 C 0.24253 0.29301 0.26449 0.0
C2956 C 0.22561 0.28184 0.26812 0.0
C2957 C 0.21449 0.27185 0.25518 0.0
C2958 C 0.26596 0.30578 0.2435 0.0
C2959 C 0.21931 0.28035 0.28568 0.0
H2960 H 0.28278 0.30415 0.30595 0.0
H2961 H 0.2728 0.34214 0.2953 0.0
H2962 H 0.24726 0.27148 0.28541 0.0
H2963 H 0.26387 0.27994 0.27095 0.0
H2964 H 0.26809 0.27818 0.29269 0.0
H2965 H 0.25159 0.33819 0.27662 0.0
H2966 H 0.25116 0.3267 0.25837 0.0
H2967 H 0.23477 0.31721 0.27305 0.0
H2968 H 0.24078 0.28483 0.22245 0.0
H2969 H 0.20163 0.263 0.25801 0.0
H2970 H 0.27408 0.30284 0.25087 0.0
H2971 H 0.26977 0.3186 0.24686 0.0
H2972 H 0.26818 0.30516 0.22996 0.0
H2973 H 0.22581 0.27633 0.29422 0.0
H2974 H 0.2057 0.27145 0.28631 0.0
H2975 H 0.2221 0.29251 0.29041 0.0
C2976 C 0.30127 0.35888 0.39206 0.0
C2977 C 0.30756 0.37021 0.37905 0.0
C2978 C 0.29674 0.36275 0.4073 0.0
C2979 C 0.29868 0.37836 0.40965 0.0
C2980 C 0.30521 0.38992 0.39666 0.0
C2981 C 0.3095 0.38568 0.3815 0.0
C2982 C 0.28973 0.35006 0.42083 0.0
C2983 C 0.30759 0.40674 0.39876 0.0
C2984 C 0.27286 0.38277 0.4429 0.0
C2985 C 0.28433 0.39006 0.45637 0.0
C2986 C 0.27739 0.37906 0.42758 0.0
C2987 C 0.2938 0.38257 0.42568 0.0
C2988 C 0.3055 0.38996 0.43914 0.0
C2989 C 0.30069 0.39368 0.45428 0.0
C2990 C 0.26457 0.37128 0.41348 0.0
C2991 C 0.32311 0.39382 0.43758 0.0
H2992 H 0.29967 0.34688 0.39027 0.0
H2993 H 0.31442 0.39454 0.37155 0.0
H2994 H 0.29752 0.35508 0.43246 0.0
H2995 H 0.27703 0.34707 0.42389 0.0
H2996 H 0.28908 0.33853 0.41706 0.0
H2997 H 0.31304 0.4144 0.38754 0.0
H2998 H 0.29546 0.40552 0.40115 0.0
H2999 H 0.31589 0.41328 0.40978 0.0
H3000 H 0.26023 0.3799 0.44442 0.0
H3001 H 0.30984 0.39929 0.46439 0.0
H3002 H 0.26256 0.35909 0.41001 0.0
H3003 H 0.26912 0.37899 0.4022 0.0
H3004 H 0.25243 0.36963 0.41687 0.0
H3005 H 0.32299 0.38235 0.43489 0.0
H3006 H 0.33079 0.39974 0.44914 0.0
H3007 H 0.32917 0.4021 0.42693 0.0
C3008 C 0.63283 0.9272 0.3911 0.0
C3009 C 0.64895 0.93027 0.38917 0.0
C3010 C 0.62232 0.91636 0.40328 0.0
C3011 C 0.62796 0.90822 0.4136 0.0
C3012 C 0.64398 0.9108 0.41128 0.0
C3013 C 0.65432 0.92188 0.39918 0.0
C3014 C 0.6054 0.91409 0.4055 0.0
C3015 C 0.65034 0.90216 0.42186 0.0
C3016 C 0.60906 0.89517 0.45652 0.0
C3017 C 0.59718 0.87845 0.45377 0.0
C3018 C 0.61922 0.90494 0.44359 0.0
C3019 C 0.61752 0.8978 0.42748 0.0
C3020 C 0.60567 0.88087 0.42463 0.0
C3021 C 0.59548 0.87143 0.43776 0.0
C3022 C 0.63153 0.923 0.4471 0.0
C3023 C 0.60362 0.87279 0.40767 0.0
H3024 H 0.62861 0.93367 0.38347 0.0
H3025 H 0.66671 0.92408 0.39769 0.0
H3026 H 0.59557 0.90086 0.40466 0.0
H3027 H 0.60479 0.91867 0.41815 0.0
H3028 H 0.60257 0.92074 0.39598 0.0
H3029 H 0.66257 0.90455 0.41767 0.0
H3030 H 0.65172 0.90634 0.43514 0.0
H3031 H 0.64128 0.8887 0.42144 0.0
H3032 H 0.61016 0.90068 0.4688 0.0
H3033 H 0.58609 0.85859 0.43545 0.0
H3034 H 0.62867 0.93048 0.43881 0.0
H3035 H 0.6443 0.92606 0.44429 0.0
H3036 H 0.63137 0.92661 0.46034 0.0
H3037 H 0.59944 0.87838 0.39823 0.0
H3038 H 0.59444 0.85934 0.40774 0.0
H3039 H 0.61574 0.87489 0.40358 0.0
C3040 C 0.06265 0.73026 0.40867 0.0
C3041 C 0.05408 0.71644 0.3979 0.0
C3042 C 0.0742 0.73147 0.42077 0.0
C3043 C 0.07712 0.71847 0.42229 0.0
C3044 C 0.06871 0.70459 0.41131 0.0
C3045 C 0.05736 0.70379 0.39917 0.0
C3046 C 0.0831 0.74656 0.4321 0.0
C3047 C 0.07139 0.6904 0.41264 0.0
C3048 C 0.1159 0.72573 0.44565 0.0
C3049 C 0.10964 0.71963 0.46152 0.0
C3050 C 0.10553 0.7257 0.43282 0.0
C3051 C 0.08844 0.71907 0.43584 0.0
C3052 C 0.08206 0.71281 0.45181 0.0
C3053 C 0.09275 0.71319 0.46444 0.0
C3054 C 0.1128 0.73258 0.41599 0.0
C3055 C 0.06388 0.70546 0.45546 0.0
H3056 H 0.0603 0.74016 0.40769 0.0
H3057 H 0.05079 0.69306 0.39093 0.0
H3058 H 0.07959 0.74306 0.44529 0.0
H3059 H 0.09676 0.75216 0.43148 0.0
H3060 H 0.0801 0.75597 0.42871 0.0
H3061 H 0.0643 0.68076 0.4028 0.0
H3062 H 0.08479 0.69486 0.4116 0.0
H3063 H 0.06746 0.68475 0.42511 0.0
H3064 H 0.12887 0.73039 0.44321 0.0
H3065 H 0.08784 0.70817 0.47659 0.0
H3066 H 0.11028 0.7423 0.41258 0.0
H3067 H 0.10678 0.72276 0.40616 0.0
H3068 H 0.12645 0.73787 0.41588 0.0
H3069 H 0.06032 0.71466 0.45332 0.0
H3070 H 0.06092 0.70118 0.46855 0.0
H3071 H 0.05611 0.69488 0.44678 0.0
C3072 C 0.30958 0.03335 0.7225 0.0
C3073 C 0.30282 0.03452 0.70718 0.0
C3074 C 0.30644 0.03887 0.73756 0.0
C3075 C 0.29657 0.04601 0.73722 0.0
C3076 C 0.28951 0.04698 0.72184 0.0
C3077 C 0.29259 0.0411 0.70705 0.0
C3078 C 0.31391 0.03734 0.75378 0.0
C3079 C 0.27909 0.05469 0.72092 0.0
C3080 C 0.27709 0.05084 0.7764 0.0
C3081 C 0.28816 0.06744 0.78077 0.0
C3082 C 0.27993 0.04353 0.76256 0.0
C3083 C 0.29412 0.0531 0.75278 0.0
C3084 C 0.3056 0.06974 0.75738 0.0
C3085 C 0.30262 0.07663 0.77147 0.0
C3086 C 0.26762 0.02564 0.75827 0.0
C3087 C 0.32081 0.08038 0.74718 0.0
H3088 H 0.31742 0.0282 0.72271 0.0
H3089 H 0.28738 0.04213 0.69526 0.0
H3090 H 0.32307 0.04975 0.75902 0.0
H3091 H 0.30408 0.03101 0.76318 0.0
H3092 H 0.32027 0.03044 0.75208 0.0
H3093 H 0.27424 0.05422 0.70802 0.0
H3094 H 0.2684 0.04833 0.72939 0.0
H3095 H 0.28665 0.06774 0.72523 0.0
H3096 H 0.26612 0.0436 0.7838 0.0
H3097 H 0.3115 0.08933 0.77503 0.0
H3098 H 0.27417 0.01888 0.75714 0.0
H3099 H 0.26147 0.02454 0.74596 0.0
H3100 H 0.25788 0.01962 0.76783 0.0
H3101 H 0.32848 0.07477 0.7463 0.0
H3102 H 0.32866 0.09301 0.75261 0.0
H3103 H 0.31695 0.08125 0.73421 0.0
C3104 C 0.95937 0.26866 0.72169 0.0
C3105 C 0.96279 0.26395 0.70629 0.0
C3106 C 0.95237 0.25741 0.73477 0.0
C3107 C 0.94868 0.24116 0.73231 0.0
C3108 C 0.95194 0.23631 0.7168 0.0
C3109 C 0.95894 0.24773 0.704 0.0
C3110 C 0.949 0.26285 0.75125 0.0
C3111 C 0.9482 0.21906 0.71376 0.0
C3112 C 0.94916 0.21091 0.77386 0.0
C3113 C 0.92632 0.19933 0.77687 0.0
C3114 C 0.95648 0.22716 0.75899 0.0
C3115 C 0.94196 0.22925 0.74591 0.0
C3116 C 0.91979 0.21471 0.74624 0.0
C3117 C 0.91121 0.19799 0.76067 0.0
C3118 C 0.97471 0.2387 0.75714 0.0
C3119 C 0.9085 0.21641 0.73434 0.0
H3120 H 0.96227 0.28115 0.72358 0.0
H3121 H 0.96143 0.24388 0.69216 0.0
H3122 H 0.93566 0.25476 0.75425 0.0
H3123 H 0.95639 0.26161 0.76143 0.0
H3124 H 0.95217 0.2758 0.75109 0.0
H3125 H 0.95129 0.21717 0.70088 0.0
H3126 H 0.95539 0.21637 0.7229 0.0
H3127 H 0.9348 0.21004 0.71572 0.0
H3128 H 0.95762 0.21028 0.78267 0.0
H3129 H 0.89791 0.1899 0.76188 0.0
H3130 H 0.97771 0.25152 0.75863 0.0
H3131 H 0.97823 0.23729 0.74432 0.0
H3132 H 0.98183 0.23621 0.76655 0.0
H3133 H 0.89529 0.20768 0.73738 0.0
H3134 H 0.9108 0.21392 0.72138 0.0
H3135 H 0.91134 0.22923 0.73495 0.0
C3136 C 0.72895 0.70201 0.72387 0.0
C3137 C 0.72654 0.68662 0.71965 0.0
C3138 C 0.74093 0.71227 0.73612 0.0
C3139 C 0.75092 0.70713 0.74404 0.0
C3140 C 0.74887 0.69184 0.73941 0.0
C3141 C 0.73661 0.68172 0.72741 0.0
C3142 C 0.7426 0.72838 0.74093 0.0
C3143 C 0.75946 0.68603 0.74732 0.0
C3144 C 0.79152 0.73737 0.76696 0.0
C3145 C 0.78697 0.73401 0.78377 0.0
C3146 C 0.77979 0.72911 0.75385 0.0
C3147 C 0.76309 0.71732 0.75765 0.0
C3148 C 0.75832 0.71426 0.77459 0.0
C3149 C 0.77034 0.72249 0.78743 0.0
C3150 C 0.78541 0.73253 0.73594 0.0
C3151 C 0.74061 0.70189 0.77917 0.0
H3152 H 0.72115 0.70582 0.71795 0.0
H3153 H 0.73493 0.66991 0.72407 0.0
H3154 H 0.73942 0.7282 0.75429 0.0
H3155 H 0.75566 0.73866 0.73963 0.0
H3156 H 0.73437 0.7309 0.73315 0.0
H3157 H 0.75694 0.67426 0.74164 0.0
H3158 H 0.77285 0.69544 0.74597 0.0
H3159 H 0.75709 0.68429 0.76094 0.0
H3160 H 0.80436 0.74618 0.76405 0.0
H3161 H 0.7668 0.71968 0.80038 0.0
H3162 H 0.77734 0.73548 0.7285 0.0
H3163 H 0.78425 0.72137 0.73012 0.0
H3164 H 0.79853 0.74286 0.73507 0.0
H3165 H 0.73186 0.70434 0.7723 0.0
H3166 H 0.7386 0.70209 0.79284 0.0
H3167 H 0.73744 0.68935 0.77543 0.0
C3168 C 0.71013 0.65445 0.62828 0.0
C3169 C 0.70379 0.64341 0.64155 0.0
C3170 C 0.71626 0.65086 0.61394 0.0
C3171 C 0.71591 0.63592 0.61289 0.0
C3172 C 0.70915 0.6246 0.626 0.0
C3173 C 0.70321 0.62848 0.64015 0.0
C3174 C 0.72338 0.6631 0.60006 0.0
C3175 C 0.70838 0.60842 0.62521 0.0
C3176 C 0.71584 0.61156 0.56514 0.0
C3177 C 0.73865 0.62013 0.56547 0.0
C3178 C 0.70889 0.6195 0.58148 0.0
C3179 C 0.72287 0.63204 0.59844 0.0
C3180 C 0.74383 0.63624 0.60047 0.0
C3181 C 0.75197 0.62885 0.5848 0.0
C3182 C 0.69131 0.6153 0.58122 0.0
C3183 C 0.75437 0.64559 0.61543 0.0
H3184 H 0.71063 0.66601 0.62925 0.0
H3185 H 0.69821 0.61978 0.65024 0.0
H3186 H 0.73666 0.66719 0.59849 0.0
H3187 H 0.71671 0.65714 0.58805 0.0
H3188 H 0.72248 0.67404 0.60257 0.0
H3189 H 0.70224 0.60072 0.63624 0.0
H3190 H 0.70148 0.60139 0.61367 0.0
H3191 H 0.72116 0.61073 0.62458 0.0
H3192 H 0.70805 0.60516 0.55423 0.0
H3193 H 0.76485 0.63223 0.58521 0.0
H3194 H 0.6911 0.62676 0.58226 0.0
H3195 H 0.68492 0.60779 0.59226 0.0
H3196 H 0.68472 0.60839 0.56953 0.0
H3197 H 0.75431 0.65708 0.61713 0.0
H3198 H 0.76729 0.64846 0.61397 0.0
H3199 H 0.74899 0.63816 0.62677 0.0
C3200 C 0.34673 0.07362 0.62767 0.0
C3201 C 0.35114 0.06323 0.63526 0.0
C3202 C 0.35802 0.08677 0.61793 0.0
C3203 C 0.37409 0.08953 0.6155 0.0
C3204 C 0.37877 0.0793 0.62336 0.0
C3205 C 0.36725 0.0663 0.63326 0.0
C3206 C 0.35259 0.09752 0.60993 0.0
C3207 C 0.39575 0.0818 0.62093 0.0
C3208 C 0.39326 0.11193 0.57544 0.0
C3209 C 0.40357 0.12821 0.58131 0.0
C3210 C 0.38432 0.09908 0.58655 0.0
C3211 C 0.38552 0.10261 0.60397 0.0
C3212 C 0.39634 0.11892 0.61005 0.0
C3213 C 0.40528 0.13153 0.59863 0.0
C3214 C 0.37298 0.08185 0.57956 0.0
C3215 C 0.39785 0.12317 0.62853 0.0
H3216 H 0.33437 0.07145 0.62931 0.0
H3217 H 0.37072 0.05831 0.63908 0.0
H3218 H 0.36156 0.11062 0.6133 0.0
H3219 H 0.35245 0.09627 0.59608 0.0
H3220 H 0.34 0.09428 0.61382 0.0
H3221 H 0.39781 0.07341 0.62867 0.0
H3222 H 0.39717 0.07961 0.60754 0.0
H3223 H 0.4056 0.09468 0.62417 0.0
H3224 H 0.39178 0.10931 0.56206 0.0
H3225 H 0.4132 0.14409 0.60323 0.0
H3226 H 0.35982 0.07803 0.58142 0.0
H3227 H 0.37518 0.07306 0.58632 0.0
H3228 H 0.37476 0.08089 0.56596 0.0
H3229 H 0.38598 0.12155 0.63281 0.0
H3230 H 0.40802 0.13604 0.63138 0.0
H3231 H 0.40019 0.11476 0.63587 0.0
C3232 C 0.94792 0.30598 0.62871 0.0
C3233 C 0.95172 0.29366 0.62947 0.0
C3234 C 0.9365 0.30516 0.61668 0.0
C3235 C 0.92848 0.29155 0.60535 0.0
C3236 C 0.9323 0.2791 0.60603 0.0
C3237 C 0.94399 0.28038 0.61798 0.0
C3238 C 0.93295 0.31881 0.61613 0.0
C3239 C 0.92383 0.26428 0.5943 0.0
C3240 C 0.88704 0.28021 0.58516 0.0
C3241 C 0.89167 0.28593 0.56884 0.0
C3242 C 0.89893 0.28216 0.59725 0.0
C3243 C 0.91588 0.29014 0.59294 0.0
C3244 C 0.92069 0.29617 0.57657 0.0
C3245 C 0.9085 0.29377 0.56465 0.0
C3246 C 0.89329 0.2753 0.61449 0.0
C3247 C 0.93867 0.30489 0.57156 0.0
H3248 H 0.95394 0.31633 0.63749 0.0
H3249 H 0.94679 0.27077 0.61856 0.0
H3250 H 0.93533 0.32409 0.60342 0.0
H3251 H 0.91965 0.31385 0.61867 0.0
H3252 H 0.94068 0.32883 0.62542 0.0
H3253 H 0.9282 0.25569 0.59646 0.0
H3254 H 0.91017 0.25754 0.59597 0.0
H3255 H 0.92615 0.26823 0.58109 0.0
H3256 H 0.87403 0.27387 0.58839 0.0
H3257 H 0.91212 0.2978 0.55195 0.0
H3258 H 0.89999 0.28514 0.62419 0.0
H3259 H 0.89636 0.26577 0.61692 0.0
H3260 H 0.8797 0.26973 0.61594 0.0
H3261 H 0.94655 0.31517 0.58052 0.0
H3262 H 0.94048 0.30986 0.55872 0.0
H3263 H 0.94315 0.29626 0.57202 0.0
C3264 C 0.3653 0.30645 0.6399 0.0
C3265 C 0.36934 0.30198 0.65508 0.0
C3266 C 0.3692 0.30226 0.62448 0.0
C3267 C 0.37695 0.293 0.62423 0.0
C3268 C 0.38105 0.28842 0.63952 0.0
C3269 C 0.37738 0.29315 0.65479 0.0
C3270 C 0.36497 0.30771 0.60846 0.0
C3271 C 0.38897 0.27823 0.63975 0.0
C3272 C 0.37071 0.26928 0.58353 0.0
C3273 C 0.38582 0.27944 0.57559 0.0
C3274 C 0.36788 0.27325 0.59962 0.0
C3275 C 0.3804 0.28785 0.60789 0.0
C3276 C 0.39589 0.29789 0.60019 0.0
C3277 C 0.39851 0.29341 0.58425 0.0
C3278 C 0.35136 0.262 0.6076 0.0
C3279 C 0.40948 0.31364 0.60853 0.0
H3280 H 0.3592 0.3134 0.64007 0.0
H3281 H 0.38042 0.28957 0.6665 0.0
H3282 H 0.37628 0.31474 0.6009 0.0
H3283 H 0.35581 0.29681 0.60081 0.0
H3284 H 0.35969 0.31551 0.61086 0.0
H3285 H 0.39148 0.27578 0.6527 0.0
H3286 H 0.38068 0.2663 0.63311 0.0
H3287 H 0.40086 0.28458 0.63299 0.0
H3288 H 0.36099 0.25828 0.57706 0.0
H3289 H 0.41039 0.30106 0.57841 0.0
H3290 H 0.34448 0.26841 0.60894 0.0
H3291 H 0.35334 0.25875 0.62036 0.0
H3292 H 0.34347 0.25049 0.60011 0.0
H3293 H 0.40505 0.32223 0.61025 0.0
H3294 H 0.42098 0.31981 0.6011 0.0
H3295 H 0.41261 0.31114 0.62116 0.0
C3296 C 0.69969 0.064 0.63113 0.0
C3297 C 0.70296 0.07312 0.6461 0.0
C3298 C 0.70516 0.07185 0.61572 0.0
C3299 C 0.71434 0.08924 0.61531 0.0
C3300 C 0.71761 0.09852 0.63037 0.0
C3301 C 0.71178 0.09035 0.64556 0.0
C3302 C 0.70123 0.06154 0.59989 0.0
C3303 C 0.72756 0.11708 0.63048 0.0
C3304 C 0.74267 0.10909 0.57848 0.0
C3305 C 0.73334 0.11341 0.56837 0.0
C3306 C 0.73669 0.10135 0.59383 0.0
C3307 C 0.72093 0.09774 0.5992 0.0
C3308 C 0.71155 0.10231 0.58922 0.0
C3309 C 0.718 0.11037 0.57408 0.0
C3310 C 0.74725 0.09702 0.60431 0.0
C3311 C 0.69464 0.09857 0.59448 0.0
H3312 H 0.69281 0.05069 0.63142 0.0
H3313 H 0.71443 0.0975 0.65707 0.0
H3314 H 0.69462 0.06483 0.59063 0.0
H3315 H 0.71294 0.0641 0.59412 0.0
H3316 H 0.69341 0.04816 0.60225 0.0
H3317 H 0.72887 0.12248 0.64323 0.0
H3318 H 0.74016 0.12158 0.62566 0.0
H3319 H 0.72152 0.12167 0.62205 0.0
H3320 H 0.75471 0.11177 0.57436 0.0
H3321 H 0.71094 0.11414 0.56665 0.0
H3322 H 0.74055 0.08354 0.60598 0.0
H3323 H 0.7496 0.10284 0.61697 0.0
H3324 H 0.75941 0.10106 0.59855 0.0
H3325 H 0.68627 0.08515 0.59621 0.0
H3326 H 0.68877 0.10263 0.58513 0.0
H3327 H 0.69573 0.10473 0.6067 0.0
C3328 C 0.93298 0.64194 0.62897 0.0
C3329 C 0.93785 0.65848 0.63099 0.0
C3330 C 0.92092 0.63173 0.6168 0.0
C3331 C 0.91338 0.63815 0.60656 0.0
C3332 C 0.91787 0.65469 0.60889 0.0
C3333 C 0.93013 0.66469 0.62099 0.0
C3334 C 0.91659 0.6142 0.61458 0.0
C3335 C 0.90992 0.6619 0.59837 0.0
C3336 C 0.89604 0.61753 0.564 0.0
C3337 C 0.87904 0.60732 0.56709 0.0
C3338 C 0.9073 0.62775 0.57669 0.0
C3339 C 0.90141 0.62779 0.59289 0.0
C3340 C 0.88423 0.61763 0.59607 0.0
C3341 C 0.87326 0.60735 0.58318 0.0
C3342 C 0.92557 0.63824 0.57285 0.0
C3343 C 0.87747 0.61744 0.61315 0.0
H3344 H 0.9389 0.63705 0.63661 0.0
H3345 H 0.93373 0.67742 0.62256 0.0
H3346 H 0.90299 0.60558 0.61572 0.0
H3347 H 0.91994 0.61235 0.60183 0.0
H3348 H 0.92316 0.61093 0.62393 0.0
H3349 H 0.91403 0.67465 0.60244 0.0
H3350 H 0.91313 0.66201 0.58504 0.0
H3351 H 0.89617 0.65417 0.59906 0.0
H3352 H 0.90055 0.61728 0.55166 0.0
H3353 H 0.86018 0.59922 0.58573 0.0
H3354 H 0.93281 0.63475 0.58099 0.0
H3355 H 0.9302 0.65137 0.57562 0.0
H3356 H 0.92808 0.63695 0.55955 0.0
H3357 H 0.8828 0.61287 0.62252 0.0
H3358 H 0.86369 0.60952 0.61332 0.0
H3359 H 0.88123 0.6301 0.61716 0.0
C3360 C 0.95424 0.69236 0.71915 0.0
C3361 C 0.96614 0.70404 0.70849 0.0
C3362 C 0.95005 0.69722 0.734 0.0
C3363 C 0.95835 0.71413 0.73853 0.0
C3364 C 0.97064 0.72594 0.72796 0.0
C3365 C 0.97419 0.72077 0.71293 0.0
C3366 C 0.93654 0.6843 0.74469 0.0
C3367 C 0.98011 0.74403 0.73258 0.0
C3368 C 0.93938 0.73046 0.7687 0.0
C3369 C 0.94772 0.7316 0.78389 0.0
C3370 C 0.94236 0.72433 0.75397 0.0
C3371 C 0.95421 0.71954 0.75429 0.0
C3372 C 0.96244 0.72037 0.76957 0.0
C3373 C 0.95883 0.72604 0.78421 0.0
C3374 C 0.93293 0.72312 0.73802 0.0
C3375 C 0.97538 0.71566 0.77038 0.0
H3376 H 0.94791 0.67943 0.71566 0.0
H3377 H 0.98349 0.72981 0.70477 0.0
H3378 H 0.94159 0.68465 0.75743 0.0
H3379 H 0.92647 0.6869 0.74611 0.0
H3380 H 0.93107 0.67171 0.73924 0.0
H3381 H 0.98977 0.75156 0.72335 0.0
H3382 H 0.97139 0.74846 0.73336 0.0
H3383 H 0.98622 0.74609 0.74512 0.0
H3384 H 0.93051 0.73436 0.7682 0.0
H3385 H 0.96498 0.72642 0.79593 0.0
H3386 H 0.92683 0.7105 0.73252 0.0
H3387 H 0.94169 0.73162 0.72864 0.0
H3388 H 0.92328 0.72621 0.74012 0.0
H3389 H 0.96986 0.7027 0.76611 0.0
H3390 H 0.98074 0.7171 0.78323 0.0
H3391 H 0.98563 0.72342 0.76181 0.0
C3392 C 0.32514 0.26735 0.73816 0.0
C3393 C 0.32031 0.27637 0.72843 0.0
C3394 C 0.31407 0.2553 0.7491 0.0
C3395 C 0.2978 0.25229 0.75054 0.0
C3396 C 0.29271 0.2611 0.74053 0.0
C3397 C 0.304 0.27298 0.72951 0.0
C3398 C 0.31991 0.24603 0.75939 0.0
C3399 C 0.2755 0.25834 0.74183 0.0
C3400 C 0.26489 0.21285 0.77092 0.0
C3401 C 0.26547 0.2183 0.78747 0.0
C3402 C 0.2754 0.22375 0.75876 0.0
C3403 C 0.28645 0.24053 0.76317 0.0
C3404 C 0.28691 0.24611 0.77979 0.0
C3405 C 0.27644 0.23493 0.79172 0.0
C3406 C 0.27465 0.21732 0.74121 0.0
C3407 C 0.29838 0.26394 0.78496 0.0
H3408 H 0.33767 0.26977 0.7373 0.0
H3409 H 0.30018 0.2799 0.72206 0.0
H3410 H 0.32001 0.24893 0.77291 0.0
H3411 H 0.31119 0.23259 0.75757 0.0
H3412 H 0.3326 0.24912 0.75607 0.0
H3413 H 0.27322 0.26566 0.73268 0.0
H3414 H 0.26594 0.24514 0.7397 0.0
H3415 H 0.27382 0.26174 0.75466 0.0
H3416 H 0.25616 0.20009 0.76746 0.0
H3417 H 0.27664 0.23922 0.8044 0.0
H3418 H 0.2871 0.21984 0.73776 0.0
H3419 H 0.27116 0.22377 0.73212 0.0
H3420 H 0.26554 0.20389 0.73986 0.0
H3421 H 0.31151 0.26768 0.78304 0.0
H3422 H 0.297 0.26634 0.7983 0.0
H3423 H 0.29582 0.27184 0.777 0.0
C3424 C 0.72505 0.03488 0.72289 0.0
C3425 C 0.72412 0.049 0.72168 0.0
C3426 C 0.73669 0.03457 0.73381 0.0
C3427 C 0.74777 0.04876 0.7436 0.0
C3428 C 0.74715 0.06316 0.74213 0.0
C3429 C 0.7353 0.06307 0.73126 0.0
C3430 C 0.7369 0.01895 0.73514 0.0
C3431 C 0.75887 0.07859 0.75221 0.0
C3432 C 0.76608 0.04375 0.78415 0.0
C3433 C 0.78209 0.04813 0.77938 0.0
C3434 C 0.75479 0.04386 0.77261 0.0
C3435 C 0.75961 0.04842 0.75587 0.0
C3436 C 0.77575 0.05281 0.75094 0.0
C3437 C 0.78676 0.05249 0.76274 0.0
C3438 C 0.73766 0.039 0.77833 0.0
C3439 C 0.78135 0.05779 0.73322 0.0
H3440 H 0.71646 0.02395 0.71555 0.0
H3441 H 0.73478 0.07409 0.73031 0.0
H3442 H 0.74952 0.02143 0.73261 0.0
H3443 H 0.73387 0.0143 0.74809 0.0
H3444 H 0.72785 0.00916 0.72627 0.0
H3445 H 0.75729 0.08898 0.74905 0.0
H3446 H 0.75671 0.07619 0.76579 0.0
H3447 H 0.77196 0.08235 0.74999 0.0
H3448 H 0.76235 0.04008 0.79692 0.0
H3449 H 0.79901 0.05556 0.75893 0.0
H3450 H 0.72804 0.02839 0.77066 0.0
H3451 H 0.73561 0.04929 0.77648 0.0
H3452 H 0.73581 0.03564 0.79175 0.0
H3453 H 0.77306 0.04762 0.72432 0.0
H3454 H 0.79436 0.06101 0.73145 0.0
H3455 H 0.78045 0.06853 0.7299 0.0
C3456 C 0.03586 0.33749 0.03931 0.0
C3457 C 0.03145 0.33455 0.02218 0.0
C3458 C 0.0463 0.33281 0.04664 0.0
C3459 C 0.05257 0.32509 0.0366 0.0
C3460 C 0.04886 0.32284 0.01915 0.0
C3461 C 0.0383 0.32756 0.01216 0.0
C3462 C 0.04998 0.33542 0.06529 0.0
C3463 C 0.05543 0.31477 0.008 0.0
C3464 C 0.08768 0.32047 0.05379 0.0
C3465 C 0.07886 0.30424 0.0594 0.0
C3466 C 0.07931 0.32753 0.04647 0.0
C3467 C 0.06176 0.31805 0.04456 0.0
C3468 C 0.05283 0.30166 0.05014 0.0
C3469 C 0.06149 0.29495 0.05741 0.0
C3470 C 0.08925 0.34502 0.04061 0.0
C3471 C 0.0341 0.29112 0.04829 0.0
H3472 H 0.03068 0.34294 0.04717 0.0
H3473 H 0.03506 0.32534 0.9989 0.0
H3474 H 0.04399 0.32334 0.07146 0.0
H3475 H 0.06357 0.34167 0.06787 0.0
H3476 H 0.04536 0.34284 0.07107 0.0
H3477 H 0.05272 0.31535 0.9945 0.0
H3478 H 0.06907 0.32074 0.00992 0.0
H3479 H 0.04967 0.30168 0.01133 0.0
H3480 H 0.10114 0.32758 0.05498 0.0
H3481 H 0.05467 0.2823 0.06141 0.0
H3482 H 0.08488 0.35248 0.04676 0.0
H3483 H 0.08732 0.34531 0.0269 0.0
H3484 H 0.10279 0.35085 0.04336 0.0
H3485 H 0.02834 0.29715 0.05478 0.0
H3486 H 0.02902 0.27869 0.0535 0.0
H3487 H 0.03032 0.28973 0.03484 0.0
C3488 C 0.67365 0.69438 0.05147 0.0
C3489 C 0.67235 0.6964 0.03422 0.0
C3490 C 0.67994 0.70775 0.06281 0.0
C3491 C 0.68487 0.72348 0.05681 0.0
C3492 C 0.68327 0.72559 0.03952 0.0
C3493 C 0.67708 0.71203 0.02839 0.0
C3494 C 0.68177 0.70514 0.08115 0.0
C3495 C 0.68826 0.74219 0.03276 0.0
C3496 C 0.68713 0.75846 0.09574 0.0
C3497 C 0.71018 0.77255 0.09528 0.0
C3498 C 0.67866 0.7418 0.08049 0.0
C3499 C 0.69226 0.73771 0.06856 0.0
C3500 C 0.71455 0.74917 0.07212 0.0
C3501 C 0.72423 0.7661 0.08704 0.0
C3502 C 0.6603 0.73149 0.07754 0.0
C3503 C 0.72503 0.74449 0.06276 0.0
H3504 H 0.67009 0.68238 0.05612 0.0
H3505 H 0.67608 0.71371 0.0151 0.0
H3506 H 0.69507 0.71279 0.08517 0.0
H3507 H 0.67478 0.70914 0.08881 0.0
H3508 H 0.6772 0.69209 0.08386 0.0
H3509 H 0.68556 0.74167 0.01909 0.0
H3510 H 0.68155 0.74716 0.03942 0.0
H3511 H 0.70179 0.75088 0.0351 0.0
H3512 H 0.67927 0.76187 0.102 0.0
H3513 H 0.73763 0.7739 0.08827 0.0
H3514 H 0.65568 0.71889 0.08197 0.0
H3515 H 0.65745 0.73058 0.06389 0.0
H3516 H 0.65399 0.73681 0.0843 0.0
H3517 H 0.72068 0.73144 0.06514 0.0
H3518 H 0.73831 0.7525 0.06664 0.0
H3519 H 0.72348 0.74557 0.04912 0.0
C3520 C 0.28879 0.97465 0.02523 0.0
C3521 C 0.2928 0.9651 0.01529 0.0
C3522 C 0.2732 0.96764 0.03268 0.0
C3523 C 0.26118 0.95078 0.02971 0.0
C3524 C 0.26486 0.9413 0.01895 0.0
C3525 C 0.28074 0.94851 0.01208 0.0
C3526 C 0.26991 0.97808 0.04437 0.0
C3527 C 0.25219 0.92341 0.01507 0.0
C3528 C 0.22852 0.92721 0.06229 0.0
C3529 C 0.21476 0.92746 0.05576 0.0
C3530 C 0.24377 0.93507 0.0541 0.0
C3531 C 0.24517 0.94284 0.03868 0.0
C3532 C 0.23129 0.9429 0.03186 0.0
C3533 C 0.21633 0.93538 0.04058 0.0
C3534 C 0.25839 0.93502 0.06196 0.0
C3535 C 0.23216 0.95066 0.01522 0.0
H3536 H 0.29814 0.98745 0.02786 0.0
H3537 H 0.28377 0.94112 0.0043 0.0
H3538 H 0.25829 0.97749 0.0405 0.0
H3539 H 0.26815 0.97323 0.05725 0.0
H3540 H 0.28027 0.99115 0.04475 0.0
H3541 H 0.25637 0.91825 0.00514 0.0
H3542 H 0.24986 0.91613 0.02655 0.0
H3543 H 0.24017 0.92188 0.01096 0.0
H3544 H 0.22744 0.92089 0.07383 0.0
H3545 H 0.20567 0.93539 0.03538 0.0
H3546 H 0.2692 0.9478 0.06345 0.0
H3547 H 0.2622 0.92826 0.05365 0.0
H3548 H 0.2555 0.9292 0.07443 0.0
H3549 H 0.24203 0.96389 0.01576 0.0
H3550 H 0.22019 0.94948 0.01155 0.0
H3551 H 0.23552 0.94478 0.00529 0.0
C3552 C 0.33013 0.05197 0.01095 0.0
C3553 C 0.33526 0.04391 1.00012 0.0
C3554 C 0.32801 0.0646 0.00518 0.0
C3555 C 0.33079 0.06906 0.98816 0.0
C3556 C 0.33594 0.06098 0.97718 0.0
C3557 C 0.33823 0.04859 0.98331 0.0
C3558 C 0.32296 0.0733 0.01734 0.0
C3559 C 0.33884 0.06528 0.95891 0.0
C3560 C 0.30479 0.09369 0.96909 0.0
C3561 C 0.3243 0.11367 0.96508 0.0
C3562 C 0.30801 0.07768 0.97613 0.0
C3563 C 0.32864 0.08234 0.98199 0.0
C3564 C 0.34654 0.10307 0.98222 0.0
C3565 C 0.34464 0.11989 0.97535 0.0
C3566 C 0.29357 0.06044 0.97674 0.0
C3567 C 0.36302 0.10634 0.98832 0.0
H3568 H 0.32786 0.04848 0.02396 0.0
H3569 H 0.34209 0.04236 0.97481 0.0
H3570 H 0.33234 0.0867 0.01752 0.0
H3571 H 0.3109 0.07164 0.01318 0.0
H3572 H 0.32171 0.06869 0.03029 0.0
H3573 H 0.34226 0.05744 0.95187 0.0
H3574 H 0.32741 0.06383 0.95301 0.0
H3575 H 0.34898 0.07831 0.95777 0.0
H3576 H 0.29279 0.09089 0.96426 0.0
H3577 H 0.35547 0.1321 0.9741 0.0
H3578 H 0.29047 0.05701 0.99 0.0
H3579 H 0.29697 0.052 0.97108 0.0
H3580 H 0.28259 0.05923 0.97004 0.0
H3581 H 0.36176 0.10131 0.00104 0.0
H3582 H 0.3724 0.11973 0.98856 0.0
H3583 H 0.3671 0.09987 0.97994 0.0
C3584 C 0.95947 0.28494 0.00583 0.0
C3585 C 0.95303 0.29428 0.99989 0.0
C3586 C 0.95348 0.269 0.99946 0.0
C3587 C 0.94121 0.26251 0.98642 0.0
C3588 C 0.93443 0.27175 0.98062 0.0
C3589 C 0.94027 0.28744 0.98759 0.0
C3590 C 0.96042 0.25921 0.00659 0.0
C3591 C 0.92162 0.26547 0.96649 0.0
C3592 C 0.94479 0.22613 0.95418 0.0
C3593 C 0.92266 0.2094 0.95638 0.0
C3594 C 0.95039 0.24533 0.96438 0.0
C3595 C 0.93612 0.24652 0.97838 0.0
C3596 C 0.91639 0.22851 0.98368 0.0
C3597 C 0.9097 0.20878 0.97404 0.0
C3598 C 0.96671 0.26033 0.96059 0.0
C3599 C 0.90557 0.22971 0.99627 0.0
H3600 H 0.96925 0.29012 0.01544 0.0
H3601 H 0.93534 0.29466 0.98285 0.0
H3602 H 0.95033 0.24623 0.00836 0.0
H3603 H 0.96935 0.25925 0.99772 0.0
H3604 H 0.96707 0.26445 0.0188 0.0
H3605 H 0.91757 0.27418 0.9635 0.0
H3606 H 0.92689 0.26341 0.95507 0.0
H3607 H 0.91053 0.25355 0.96983 0.0
H3608 H 0.9525 0.22561 0.94462 0.0
H3609 H 0.89748 0.19816 0.97616 0.0
H3610 H 0.9767 0.26011 0.96783 0.0
H3611 H 0.96681 0.27165 0.96398 0.0
H3612 H 0.96927 0.26023 0.94708 0.0
H3613 H 0.91286 0.24083 0.00442 0.0
H3614 H 0.89957 0.2185 0.00393 0.0
H3615 H 0.89559 0.2304 0.98959 0.0
C3616 C 0.71345 0.67239 0.99074 0.0
C3617 C 0.69912 0.66055 0.98184 0.0
C3618 C 0.72855 0.68207 0.9825 0.0
C3619 C 0.72904 0.68032 0.96492 0.0
C3620 C 0.71441 0.66876 0.95584 0.0
C3621 C 0.69974 0.65871 0.96449 0.0
C3622 C 0.74401 0.69387 0.99266 0.0
C3623 C 0.71407 0.66707 0.93697 0.0
C3624 C 0.7701 0.72384 0.93952 0.0
C3625 C 0.78239 0.71416 0.93524 0.0
C3626 C 0.75178 0.71155 0.95163 0.0
C3627 C 0.74471 0.69033 0.95595 0.0
C3628 C 0.75481 0.68026 0.94737 0.0
C3629 C 0.77314 0.6915 0.93506 0.0
C3630 C 0.74228 0.71902 0.9576 0.0
C3631 C 0.74842 0.66263 0.95073 0.0
H3632 H 0.71293 0.67377 0.00419 0.0
H3633 H 0.68856 0.64972 0.95757 0.0
H3634 H 0.75401 0.69138 0.99012 0.0
H3635 H 0.74855 0.70665 0.98892 0.0
H3636 H 0.74177 0.69295 0.00634 0.0
H3637 H 0.70118 0.66086 0.93165 0.0
H3638 H 0.72159 0.67927 0.93113 0.0
H3639 H 0.71942 0.65958 0.93345 0.0
H3640 H 0.77523 0.73685 0.93798 0.0
H3641 H 0.77999 0.68597 0.93094 0.0
H3642 H 0.7486 0.72663 0.96903 0.0
H3643 H 0.72935 0.70939 0.96061 0.0
H3644 H 0.74226 0.72723 0.9479 0.0
H3645 H 0.73903 0.65795 0.96068 0.0
H3646 H 0.75897 0.66125 0.95448 0.0
H3647 H 0.74278 0.65528 0.93901 0.0
C3648 C 0.96296 0.66566 0.98967 0.0
C3649 C 0.9702 0.66997 0.00585 0.0
C3650 C 0.95476 0.67308 0.98284 0.0
C3651 C 0.95387 0.68514 0.99238 0.0
C3652 C 0.96074 0.68919 0.00889 0.0
C3653 C 0.96875 0.68152 0.01543 0.0
C3654 C 0.9475 0.66839 0.96523 0.0
C3655 C 0.9601 0.70204 0.01946 0.0
C3656 C 0.94914 0.71777 0.9709 0.0
C3657 C 0.9323 0.71203 0.97336 0.0
C3658 C 0.95621 0.70887 0.97657 0.0
C3659 C 0.94621 0.69394 0.98502 0.0
C3660 C 0.92913 0.68794 0.98726 0.0
C3661 C 0.92241 0.6971 0.98147 0.0
C3662 C 0.97449 0.71571 0.97399 0.0
C3663 C 0.91809 0.67212 0.99625 0.0
H3664 H 0.96404 0.65676 0.98217 0.0
H3665 H 0.97438 0.68501 0.02791 0.0
H3666 H 0.93422 0.66467 0.9651 0.0
H3667 H 0.95414 0.67917 0.95704 0.0
H3668 H 0.94842 0.65816 0.95981 0.0
H3669 H 0.96546 0.70331 0.03228 0.0
H3670 H 0.96713 0.71413 0.01336 0.0
H3671 H 0.94705 0.69887 0.02051 0.0
H3672 H 0.95688 0.72944 0.96487 0.0
H3673 H 0.90944 0.69275 0.98361 0.0
H3674 H 0.97625 0.70637 0.96767 0.0
H3675 H 0.98115 0.71874 0.98632 0.0
H3676 H 0.9803 0.72697 0.96637 0.0
H3677 H 0.91892 0.66197 0.99051 0.0
H3678 H 0.90485 0.66859 0.99597 0.0
H3679 H 0.92236 0.67348 0.00953 0.0
C3680 C 0.33255 0.30597 0.9863 0.0
C3681 C 0.33113 0.30742 0.00363 0.0
C3682 C 0.32679 0.29055 0.97858 0.0
C3683 C 0.31943 0.27629 0.98843 0.0
C3684 C 0.31818 0.27772 0.00594 0.0
C3685 C 0.32406 0.29324 0.01332 0.0
C3686 C 0.32838 0.2895 0.95988 0.0
C3687 C 0.31043 0.2628 0.01689 0.0
C3688 C 0.28946 0.23384 0.96955 0.0
C3689 C 0.29944 0.22701 0.9692 0.0
C3690 C 0.29598 0.25012 0.97516 0.0
C3691 C 0.31288 0.25977 0.98054 0.0
C3692 C 0.32316 0.25313 0.97961 0.0
C3693 C 0.31629 0.2368 0.97404 0.0
C3694 C 0.2846 0.25674 0.976 0.0
C3695 C 0.34124 0.26303 0.98516 0.0
H3696 H 0.33798 0.31685 0.97871 0.0
H3697 H 0.32289 0.29422 0.02671 0.0
H3698 H 0.33538 0.28342 0.95712 0.0
H3699 H 0.31585 0.28184 0.95388 0.0
H3700 H 0.33481 0.30178 0.95407 0.0
H3701 H 0.31057 0.26603 0.03033 0.0
H3702 H 0.29735 0.25411 0.01272 0.0
H3703 H 0.31719 0.25625 0.01567 0.0
H3704 H 0.2764 0.22626 0.96593 0.0
H3705 H 0.32401 0.23153 0.97388 0.0
H3706 H 0.29024 0.2687 0.96963 0.0
H3707 H 0.28292 0.25896 0.9893 0.0
H3708 H 0.27217 0.24815 0.97015 0.0
H3709 H 0.34766 0.27513 0.97902 0.0
H3710 H 0.34789 0.25661 0.98224 0.0
H3711 H 0.34217 0.26543 0.99889 0.0
C3712 C 0.72151 0.05055 0.99178 0.0
C3713 C 0.71075 0.03564 0.99956 0.0
C3714 C 0.73644 0.05364 0.98491 0.0
C3715 C 0.74077 0.04156 0.98595 0.0
C3716 C 0.7304 0.02686 0.99456 0.0
C3717 C 0.7155 0.02405 0.00122 0.0
C3718 C 0.74716 0.06946 0.97579 0.0
C3719 C 0.73467 0.01375 0.99607 0.0
C3720 C 0.76705 0.04123 0.95076 0.0
C3721 C 0.7831 0.05001 0.95806 0.0
C3722 C 0.75316 0.03814 0.95983 0.0
C3723 C 0.75531 0.04374 0.97672 0.0
C3724 C 0.77138 0.05197 0.9844 0.0
C3725 C 0.78511 0.05502 0.97496 0.0
C3726 C 0.73623 0.02931 0.95118 0.0
C3727 C 0.77409 0.05788 0.00245 0.0
H3728 H 0.71798 0.05959 0.99048 0.0
H3729 H 0.70733 0.01253 0.00732 0.0
H3730 H 0.76023 0.07568 0.98054 0.0
H3731 H 0.74716 0.06672 0.96224 0.0
H3732 H 0.74271 0.07809 0.97718 0.0
H3733 H 0.72624 0.00383 0.00461 0.0
H3734 H 0.73372 0.00817 0.98352 0.0
H3735 H 0.74768 0.01922 0.00076 0.0
H3736 H 0.76544 0.03713 0.93777 0.0
H3737 H 0.79748 0.0616 0.98069 0.0
H3738 H 0.73122 0.03752 0.95077 0.0
H3739 H 0.72739 0.01833 0.95832 0.0
H3740 H 0.73662 0.02534 0.93815 0.0
H3741 H 0.771 0.06751 0.00388 0.0
H3742 H 0.78715 0.06304 0.0069 0.0
H3743 H 0.7657 0.04763 0.01066 0.0
C3744 C 0.66518 0.9587 0.03362 0.0
C3745 C 0.66962 0.96542 0.01761 0.0
C3746 C 0.67122 0.9492 0.04021 0.0
C3747 C 0.68197 0.94638 0.03058 0.0
C3748 C 0.68606 0.95267 0.01421 0.0
C3749 C 0.67981 0.96207 0.00792 0.0
C3750 C 0.66655 0.94263 0.05769 0.0
C3751 C 0.69748 0.94994 0.00353 0.0
C3752 C 0.71274 0.93763 0.0517 0.0
C3753 C 0.705 0.92062 0.04898 0.0
C3754 C 0.70512 0.94608 0.04627 0.0
C3755 C 0.68946 0.93734 0.03774 0.0
C3756 C 0.68146 0.92013 0.03521 0.0
C3757 C 0.68936 0.91199 0.04081 0.0
C3758 C 0.71406 0.96445 0.0492 0.0
C3759 C 0.66482 0.91039 0.02609 0.0
H3760 H 0.65733 0.96122 0.04121 0.0
H3761 H 0.68336 0.96722 0.99556 0.0
H3762 H 0.66133 0.92918 0.05755 0.0
H3763 H 0.67783 0.94841 0.06598 0.0
H3764 H 0.6573 0.94507 0.06316 0.0
H3765 H 0.69882 0.95501 0.99079 0.0
H3766 H 0.71 0.95587 0.00967 0.0
H3767 H 0.69271 0.93661 0.00227 0.0
H3768 H 0.72496 0.94439 0.05775 0.0
H3769 H 0.68346 0.89888 0.03845 0.0
H3770 H 0.70581 0.96773 0.05557 0.0
H3771 H 0.71732 0.97073 0.03699 0.0
H3772 H 0.72565 0.96926 0.05692 0.0
H3773 H 0.65569 0.91278 0.03192 0.0
H3774 H 0.65976 0.89695 0.02614 0.0
H3775 H 0.66611 0.91434 0.01289 0.0
C3776 C 0.05556 0.71826 0.03319 0.0
C3777 C 0.03982 0.70707 0.02611 0.0
C3778 C 0.05924 0.7335 0.03981 0.0
C3779 C 0.04686 0.7376 0.03937 0.0
C3780 C 0.03123 0.72672 0.03149 0.0
C3781 C 0.02792 0.71161 0.02491 0.0
C3782 C 0.07611 0.74487 0.048 0.0
C3783 C 0.01768 0.73061 0.03077 0.0
C3784 C 0.04893 0.76562 0.07452 0.0
C3785 C 0.05594 0.7808 0.06661 0.0
C3786 C 0.04572 0.75146 0.06571 0.0
C3787 C 0.04971 0.7525 0.04856 0.0
C3788 C 0.05659 0.76773 0.04041 0.0
C3789 C 0.05958 0.78171 0.04953 0.0
C3790 C 0.03824 0.73542 0.07483 0.0
C3791 C 0.06099 0.76928 0.02213 0.0
H3792 H 0.06486 0.71491 0.03409 0.0
H3793 H 0.01573 0.70311 0.01936 0.0
H3794 H 0.08166 0.75747 0.04313 0.0
H3795 H 0.07472 0.74563 0.06171 0.0
H3796 H 0.08486 0.74063 0.04589 0.0
H3797 H 0.00681 0.72157 0.02287 0.0
H3798 H 0.01334 0.73059 0.04362 0.0
H3799 H 0.02254 0.74307 0.02576 0.0
H3800 H 0.04611 0.76488 0.08772 0.0
H3801 H 0.06496 0.79341 0.04336 0.0
H3802 H 0.04692 0.73092 0.0747 0.0
H3803 H 0.02653 0.72594 0.06836 0.0
H3804 H 0.03549 0.73663 0.08807 0.0
H3805 H 0.07052 0.76602 0.02021 0.0
H3806 H 0.06588 0.78191 0.01755 0.0
H3807 H 0.04988 0.76054 0.01437 0.0
C3808 C 0.28824 0.32408 0.03134 0.0
C3809 C 0.29678 0.34011 0.03822 0.0
C3810 C 0.27189 0.31256 0.03585 0.0
C3811 C 0.26388 0.3171 0.0476 0.0
C3812 C 0.27242 0.33322 0.05466 0.0
C3813 C 0.28876 0.34456 0.04984 0.0
C3814 C 0.26317 0.29552 0.02795 0.0
C3815 C 0.26429 0.33846 0.06732 0.0
C3816 C 0.21668 0.29165 0.04649 0.0
C3817 C 0.21335 0.28063 0.05945 0.0
C3818 C 0.23305 0.30384 0.04277 0.0
C3819 C 0.24644 0.30501 0.05223 0.0
C3820 C 0.24317 0.29408 0.06551 0.0
C3821 C 0.22665 0.2819 0.06887 0.0
C3822 C 0.23603 0.31515 0.0284 0.0
C3823 C 0.25712 0.29497 0.0759 0.0
H3824 H 0.29431 0.3205 0.02236 0.0
H3825 H 0.29528 0.35688 0.05528 0.0
H3826 H 0.25929 0.28619 0.03782 0.0
H3827 H 0.25173 0.29299 0.02109 0.0
H3828 H 0.27118 0.29392 0.01907 0.0
H3829 H 0.2727 0.35135 0.07183 0.0
H3830 H 0.25289 0.33727 0.06168 0.0
H3831 H 0.26041 0.33027 0.07825 0.0
H3832 H 0.20642 0.2905 0.03903 0.0
H3833 H 0.22413 0.27321 0.0787 0.0
H3834 H 0.24296 0.31319 0.01849 0.0
H3835 H 0.2438 0.32817 0.03273 0.0
H3836 H 0.22424 0.31311 0.02277 0.0
H3837 H 0.26474 0.29204 0.06788 0.0
H3838 H 0.25246 0.2863 0.08646 0.0
H3839 H 0.26545 0.30763 0.08104 0.0
C3840 C 0.70644 0.66995 0.33986 0.0
C3841 C 0.69862 0.67634 0.34927 0.0
C3842 C 0.71623 0.66474 0.3477 0.0
C3843 C 0.71831 0.66602 0.36537 0.0
C3844 C 0.71098 0.67304 0.37489 0.0
C3845 C 0.70119 0.67809 0.36673 0.0
C3846 C 0.72384 0.6573 0.3371 0.0
C3847 C 0.71301 0.67469 0.39375 0.0
C3848 C 0.72687 0.63548 0.38578 0.0
C3849 C 0.74416 0.64492 0.38852 0.0
C3850 C 0.7183 0.64231 0.37857 0.0
C3851 C 0.72723 0.65899 0.37391 0.0
C3852 C 0.74467 0.66866 0.37677 0.0
C3853 C 0.75297 0.66146 0.38388 0.0
C3854 C 0.69971 0.63154 0.37557 0.0
C3855 C 0.7546 0.6865 0.37198 0.0
H3856 H 0.70458 0.66858 0.32637 0.0
H3857 H 0.69526 0.68309 0.37409 0.0
H3858 H 0.7374 0.66359 0.33985 0.0
H3859 H 0.71826 0.64417 0.34021 0.0
H3860 H 0.72188 0.6581 0.32346 0.0
H3861 H 0.70759 0.68153 0.3992 0.0
H3862 H 0.70683 0.66231 0.39928 0.0
H3863 H 0.72639 0.68113 0.39748 0.0
H3864 H 0.72009 0.62261 0.38903 0.0
H3865 H 0.76638 0.66871 0.38562 0.0
H3866 H 0.69676 0.63057 0.36194 0.0
H3867 H 0.69333 0.63711 0.38171 0.0
H3868 H 0.69456 0.61895 0.3804 0.0
H3869 H 0.7539 0.68747 0.35819 0.0
H3870 H 0.7679 0.69258 0.37598 0.0
H3871 H 0.74927 0.69329 0.37773 0.0
C3872 C 0.33191 0.03537 0.38027 0.0
C3873 C 0.3391 0.02592 0.38303 0.0
C3874 C 0.33974 0.0517 0.3863 0.0
C3875 C 0.35507 0.05873 0.39526 0.0
C3876 C 0.36239 0.04931 0.39809 0.0
C3877 C 0.35433 0.03302 0.39197 0.0
C3878 C 0.33162 0.06144 0.38309 0.0
C3879 C 0.37877 0.05645 0.4076 0.0
C3880 C 0.39075 0.11297 0.3968 0.0
C3881 C 0.38296 0.11667 0.4166 0.0
C3882 C 0.37912 0.09201 0.38901 0.0
C3883 C 0.36352 0.07585 0.40169 0.0
C3884 C 0.35973 0.07963 0.4229 0.0
C3885 C 0.37072 0.10017 0.43184 0.0
C3886 C 0.38236 0.08801 0.37194 0.0
C3887 C 0.34749 0.06566 0.43315 0.0
H3888 H 0.32015 0.03001 0.37339 0.0
H3889 H 0.36001 0.02587 0.39417 0.0
H3890 H 0.32934 0.06565 0.3952 0.0
H3891 H 0.34011 0.07254 0.37589 0.0
H3892 H 0.31962 0.05419 0.37598 0.0
H3893 H 0.38283 0.04751 0.40879 0.0
H3894 H 0.38855 0.06746 0.40113 0.0
H3895 H 0.3777 0.06051 0.42035 0.0
H3896 H 0.39904 0.12293 0.38881 0.0
H3897 H 0.36772 0.10281 0.44404 0.0
H3898 H 0.37054 0.08161 0.36447 0.0
H3899 H 0.38691 0.07946 0.373 0.0
H3900 H 0.3917 0.09934 0.36559 0.0
H3901 H 0.33527 0.05905 0.42637 0.0
H3902 H 0.34623 0.07014 0.44559 0.0
H3903 H 0.35166 0.05686 0.43476 0.0
C3904 C 0.96972 0.30969 0.35953 0.0
C3905 C 0.97895 0.30453 0.3686 0.0
C3906 C 0.95291 0.30348 0.36297 0.0
C3907 C 0.94524 0.29202 0.37593 0.0
C3908 C 0.95458 0.28701 0.3853 0.0
C3909 C 0.97127 0.29324 0.38146 0.0
C3910 C 0.94328 0.30897 0.35259 0.0
C3911 C 0.94692 0.27496 0.39935 0.0
C3912 C 0.90563 0.28516 0.39536 0.0
C3913 C 0.89353 0.27011 0.38786 0.0
C3914 C 0.92249 0.29261 0.39138 0.0
C3915 C 0.92733 0.2849 0.37949 0.0
C3916 C 0.91512 0.26989 0.3716 0.0
C3917 C 0.8984 0.26262 0.37599 0.0
C3918 C 0.93518 0.30851 0.40019 0.0
C3919 C 0.91974 0.26135 0.35877 0.0
H3920 H 0.97555 0.3184 0.34956 0.0
H3921 H 0.97833 0.28927 0.38862 0.0
H3922 H 0.93267 0.2982 0.34597 0.0
H3923 H 0.938 0.31443 0.36083 0.0
H3924 H 0.95112 0.31815 0.34315 0.0
H3925 H 0.95605 0.27276 0.40582 0.0
H3926 H 0.94173 0.2796 0.40872 0.0
H3927 H 0.93647 0.26303 0.39433 0.0
H3928 H 0.90194 0.29099 0.40455 0.0
H3929 H 0.88911 0.25094 0.37024 0.0
H3930 H 0.94257 0.31802 0.39088 0.0
H3931 H 0.94399 0.30662 0.40771 0.0
H3932 H 0.92933 0.31323 0.40866 0.0
H3933 H 0.92696 0.26993 0.34866 0.0
H3934 H 0.90865 0.25031 0.35303 0.0
H3935 H 0.9278 0.2575 0.36475 0.0
C3936 C 0.01584 0.38396 0.33555 0.0
C3937 C 0.02361 0.3758 0.32974 0.0
C3938 C 0.01634 0.39667 0.32641 0.0
C3939 C 0.02485 0.40138 0.31109 0.0
C3940 C 0.03265 0.39314 0.30511 0.0
C3941 C 0.03192 0.38045 0.31448 0.0
C3942 C 0.00783 0.40512 0.33317 0.0
C3943 C 0.04185 0.39781 0.28883 0.0
C3944 C 0.01498 0.42473 0.27948 0.0
C3945 C 0.02833 0.44093 0.28224 0.0
C3946 C 0.01354 0.41177 0.28894 0.0
C3947 C 0.0258 0.41507 0.30141 0.0
C3948 C 0.03924 0.4314 0.30434 0.0
C3949 C 0.04039 0.44411 0.29466 0.0
C3950 C 0.99907 0.39451 0.28539 0.0
C3951 C 0.05256 0.43541 0.31752 0.0
H3952 H 0.00934 0.38042 0.34729 0.0
H3953 H 0.03795 0.37422 0.30988 0.0
H3954 H 0.01706 0.41841 0.33526 0.0
H3955 H 0.99844 0.40407 0.32388 0.0
H3956 H 0.00154 0.39985 0.34515 0.0
H3957 H 0.04708 0.39008 0.28582 0.0
H3958 H 0.03336 0.39657 0.27837 0.0
H3959 H 0.05217 0.41087 0.28952 0.0
H3960 H 0.00579 0.42218 0.2697 0.0
H3961 H 0.05086 0.45657 0.29666 0.0
H3962 H 0.99214 0.38913 0.29703 0.0
H3963 H 0.00374 0.38663 0.28107 0.0
H3964 H 0.99031 0.3941 0.27567 0.0
H3965 H 0.04685 0.43102 0.3299 0.0
H3966 H 0.06189 0.44881 0.31863 0.0
H3967 H 0.05911 0.42895 0.3144 0.0
C3968 C 0.60885 0.6273 0.31134 0.0
C3969 C 0.62606 0.63826 0.31334 0.0
C3970 C 0.60237 0.61105 0.30574 0.0
C3971 C 0.61338 0.60581 0.30156 0.0
C3972 C 0.63077 0.61683 0.30352 0.0
C3973 C 0.6369 0.63286 0.30968 0.0
C3974 C 0.58376 0.59947 0.3045 0.0
C3975 C 0.64291 0.61185 0.2987 0.0
C3976 C 0.59894 0.55322 0.29914 0.0
C3977 C 0.58838 0.5489 0.27817 0.0
C3978 C 0.60661 0.57363 0.3075 0.0
C3979 C 0.6068 0.58914 0.29451 0.0
C3980 C 0.60059 0.58534 0.27256 0.0
C3981 C 0.5927 0.56533 0.2631 0.0
C3982 C 0.61231 0.57736 0.32542 0.0
C3983 C 0.60228 0.59886 0.26198 0.0
H3984 H 0.60044 0.63139 0.31435 0.0
H3985 H 0.65022 0.64134 0.31114 0.0
H3986 H 0.57983 0.59573 0.29122 0.0
H3987 H 0.58011 0.5882 0.31162 0.0
H3988 H 0.57693 0.60511 0.30946 0.0
H3989 H 0.65599 0.6224 0.29916 0.0
H3990 H 0.64188 0.6024 0.30739 0.0
H3991 H 0.63991 0.60633 0.28584 0.0
H3992 H 0.59728 0.54345 0.30717 0.0
H3993 H 0.58785 0.56254 0.25033 0.0
H3994 H 0.61302 0.58872 0.32991 0.0
H3995 H 0.62478 0.57896 0.32666 0.0
H3996 H 0.60368 0.56682 0.3332 0.0
H3997 H 0.59085 0.59933 0.26292 0.0
H3998 H 0.60372 0.59649 0.24866 0.0
H3999 H 0.61305 0.61086 0.26643 0.0
C4000 C 0.35777 0.98592 0.33489 0.0
C4001 C 0.34225 0.97235 0.32982 0.0
C4002 C 0.37238 0.98937 0.32684 0.0
C4003 C 0.37131 0.97916 0.31327 0.0
C4004 C 0.35562 0.96568 0.30792 0.0
C4005 C 0.34134 0.96237 0.31634 0.0
C4006 C 0.38894 0.0037 0.33301 0.0
C4007 C 0.35389 0.95463 0.29332 0.0
C4008 C 0.40383 0.99168 0.28013 0.0
C4009 C 0.4104 0.98194 0.28419 0.0
C4010 C 0.39183 0.99181 0.29016 0.0
C4011 C 0.38646 0.98213 0.30468 0.0
C4012 C 0.394 0.97328 0.30951 0.0
C4013 C 0.40576 0.97315 0.29911 0.0
C4014 C 0.384 0.00128 0.28448 0.0
C4015 C 0.38881 0.96302 0.32505 0.0
H4016 H 0.35853 0.99364 0.34534 0.0
H4017 H 0.32937 0.95197 0.31222 0.0
H4018 H 0.39696 0.99919 0.33754 0.0
H4019 H 0.39547 0.01214 0.32259 0.0
H4020 H 0.3876 0.01076 0.34336 0.0
H4021 H 0.3407 0.94507 0.29033 0.0
H4022 H 0.35944 0.96204 0.282 0.0
H4023 H 0.36075 0.94842 0.29622 0.0
H4024 H 0.40746 0.99854 0.26864 0.0
H4025 H 0.41085 0.96566 0.30233 0.0
H4026 H 0.38315 0.00834 0.29512 0.0
H4027 H 0.37113 0.99254 0.27972 0.0
H4028 H 0.39107 0.00992 0.27434 0.0
H4029 H 0.38808 0.97 0.33584 0.0
H4030 H 0.39756 0.95899 0.32843 0.0
H4031 H 0.37625 0.95192 0.32289 0.0
C4032 C 0.62023 0.9825 0.34738 0.0
C4033 C 0.62761 0.97564 0.33797 0.0
C4034 C 0.60915 0.98627 0.33986 0.0
C4035 C 0.60535 0.9831 0.32248 0.0
C4036 C 0.6126 0.97603 0.31292 0.0
C4037 C 0.62365 0.97237 0.32078 0.0
C4038 C 0.60164 0.99378 0.35048 0.0
C4039 C 0.60882 0.97248 0.29437 0.0
C4040 C 0.56554 0.98005 0.30729 0.0
C4041 C 0.57155 0.99584 0.30113 0.0
C4042 C 0.57644 0.97559 0.31385 0.0
C4043 C 0.59377 0.98725 0.31438 0.0
C4044 C 0.59995 0.00313 0.30796 0.0
C4045 C 0.58875 0.00728 0.30151 0.0
C4046 C 0.56937 0.95857 0.32067 0.0
C4047 C 0.61834 0.0159 0.30832 0.0
H4048 H 0.62322 0.9851 0.36066 0.0
H4049 H 0.62932 0.96711 0.3134 0.0
H4050 H 0.60518 0.006 0.34563 0.0
H4051 H 0.58787 0.98596 0.34975 0.0
H4052 H 0.60575 0.99531 0.36385 0.0
H4053 H 0.61533 0.96676 0.28876 0.0
H4054 H 0.59523 0.96412 0.29212 0.0
H4055 H 0.61261 0.98404 0.28777 0.0
H4056 H 0.55224 0.97128 0.30727 0.0
H4057 H 0.59341 0.01958 0.29704 0.0
H4058 H 0.57207 0.95942 0.33435 0.0
H4059 H 0.57536 0.95249 0.31474 0.0
H4060 H 0.5557 0.95068 0.3185 0.0
H4061 H 0.62301 0.01908 0.3215 0.0
H4062 H 0.6212 0.02733 0.30193 0.0
H4063 H 0.62528 0.01091 0.30219 0.0
C4064 C 0.01692 0.65276 0.32249 0.0
C4065 C 0.03002 0.66249 0.33396 0.0
C4066 C 0.01665 0.64016 0.313 0.0
C4067 C 0.0297 0.63718 0.31511 0.0
C4068 C 0.04273 0.64666 0.32692 0.0
C4069 C 0.04277 0.65923 0.33618 0.0
C4070 C 0.0026 0.63025 0.30048 0.0
C4071 C 0.05678 0.64369 0.32957 0.0
C4072 C 0.02374 0.58934 0.29984 0.0
C4073 C 0.03212 0.59604 0.27847 0.0
C4074 C 0.02164 0.60422 0.3118 0.0
C4075 C 0.03036 0.62491 0.3044 0.0
C4076 C 0.04242 0.63191 0.28562 0.0
C4077 C 0.04522 0.618 0.27281 0.0
C4078 C 0.01276 0.59945 0.32796 0.0
C4079 C 0.05014 0.64937 0.28067 0.0
H4080 H 0.007 0.65516 0.32071 0.0
H4081 H 0.05289 0.66659 0.34508 0.0
H4082 H 0.00762 0.63237 0.28765 0.0
H4083 H 0.9967 0.61694 0.30294 0.0
H4084 H 0.99293 0.63351 0.3009 0.0
H4085 H 0.06556 0.65159 0.33982 0.0
H4086 H 0.0517 0.63062 0.33261 0.0
H4087 H 0.0638 0.64617 0.31783 0.0
H4088 H 0.01756 0.57661 0.30342 0.0
H4089 H 0.05117 0.62167 0.26082 0.0
H4090 H 0.00256 0.60197 0.32754 0.0
H4091 H 0.02151 0.60712 0.3383 0.0
H4092 H 0.00767 0.58625 0.33035 0.0
H4093 H 0.0404 0.65252 0.27988 0.0
H4094 H 0.05631 0.65142 0.26845 0.0
H4095 H 0.05937 0.65749 0.29048 0.0
C4096 C 0.37404 0.38629 0.30698 0.0
C4097 C 0.36612 0.37405 0.31896 0.0
C4098 C 0.39007 0.3912 0.30159 0.0
C4099 C 0.39842 0.38383 0.30849 0.0
C4100 C 0.39054 0.37157 0.32068 0.0
C4101 C 0.37448 0.36677 0.3257 0.0
C4102 C 0.39802 0.40421 0.28846 0.0
C4103 C 0.39911 0.36353 0.32846 0.0
C4104 C 0.43393 0.3847 0.28584 0.0
C4105 C 0.44785 0.39745 0.29454 0.0
C4106 C 0.41776 0.38049 0.28988 0.0
C4107 C 0.41548 0.38901 0.30315 0.0
C4108 C 0.4295 0.40197 0.31187 0.0
C4109 C 0.44551 0.40601 0.30747 0.0
C4110 C 0.40311 0.36665 0.28024 0.0
C4111 C 0.42758 0.41124 0.3262 0.0
H4112 H 0.36765 0.39191 0.30163 0.0
H4113 H 0.36848 0.35732 0.33499 0.0
H4114 H 0.40985 0.41488 0.29352 0.0
H4115 H 0.40114 0.39927 0.27743 0.0
H4116 H 0.3898 0.40861 0.2842 0.0
H4117 H 0.39131 0.35425 0.33785 0.0
H4118 H 0.40221 0.35739 0.31858 0.0
H4119 H 0.41099 0.37299 0.3347 0.0
H4120 H 0.43568 0.37785 0.27605 0.0
H4121 H 0.45625 0.41568 0.31438 0.0
H4122 H 0.3949 0.37081 0.27534 0.0
H4123 H 0.3956 0.3563 0.28872 0.0
H4124 H 0.40703 0.36201 0.26956 0.0
H4125 H 0.41999 0.41637 0.32207 0.0
H4126 H 0.43976 0.42146 0.33121 0.0
H4127 H 0.4209 0.40271 0.33652 0.0
C4128 C 0.32503 0.30178 0.37159 0.0
C4129 C 0.32815 0.3048 0.35445 0.0
C4130 C 0.32861 0.29111 0.37998 0.0
C4131 C 0.3354 0.28323 0.37102 0.0
C4132 C 0.33847 0.28614 0.35371 0.0
C4133 C 0.33483 0.2969 0.34565 0.0
C4134 C 0.32522 0.28834 0.39846 0.0
C4135 C 0.34565 0.27793 0.34369 0.0
C4136 C 0.35895 0.26653 0.39374 0.0
C4137 C 0.34688 0.24968 0.39414 0.0
C4138 C 0.35524 0.27768 0.38672 0.0
C4139 C 0.33918 0.27179 0.37964 0.0
C4140 C 0.32694 0.25481 0.38008 0.0
C4141 C 0.33095 0.24398 0.3873 0.0
C4142 C 0.36862 0.29569 0.38651 0.0
C4143 C 0.30973 0.24802 0.37252 0.0
H4144 H 0.31993 0.30787 0.37851 0.0
H4145 H 0.33731 0.29916 0.33242 0.0
H4146 H 0.31641 0.27509 0.40066 0.0
H4147 H 0.33692 0.29201 0.40551 0.0
H4148 H 0.31991 0.2954 0.40362 0.0
H4149 H 0.34719 0.28141 0.3303 0.0
H4150 H 0.35796 0.28131 0.34911 0.0
H4151 H 0.33743 0.26437 0.34434 0.0
H4152 H 0.37139 0.27095 0.39867 0.0
H4153 H 0.3217 0.23092 0.38728 0.0
H4154 H 0.36401 0.30317 0.39216 0.0
H4155 H 0.37183 0.29964 0.37337 0.0
H4156 H 0.38011 0.29843 0.39344 0.0
H4157 H 0.30395 0.25448 0.37801 0.0
H4158 H 0.30143 0.23462 0.37453 0.0
H4159 H 0.31059 0.25018 0.35883 0.0
C4160 C 0.71602 0.02517 0.37801 0.0
C4161 C 0.69971 0.01466 0.37182 0.0
C4162 C 0.72159 0.04139 0.38315 0.0
C4163 C 0.71051 0.04713 0.38227 0.0
C4164 C 0.69407 0.03661 0.37594 0.0
C4165 C 0.68891 0.02056 0.37071 0.0
C4166 C 0.73927 0.05234 0.38965 0.0
C4167 C 0.68182 0.04221 0.37501 0.0
C4168 C 0.7186 0.08227 0.41143 0.0
C4169 C 0.72508 0.09555 0.40051 0.0
C4170 C 0.71379 0.06646 0.40564 0.0
C4171 C 0.71585 0.06392 0.38857 0.0
C4172 C 0.72264 0.0773 0.37753 0.0
C4173 C 0.72709 0.09296 0.38361 0.0
C4174 C 0.7064 0.05247 0.41777 0.0
C4175 C 0.72521 0.07508 0.35929 0.0
H4176 H 0.72446 0.02073 0.37882 0.0
H4177 H 0.67626 0.01252 0.36598 0.0
H4178 H 0.74565 0.06385 0.38246 0.0
H4179 H 0.73929 0.05585 0.40295 0.0
H4180 H 0.74654 0.04627 0.3888 0.0
H4181 H 0.66959 0.03261 0.36947 0.0
H4182 H 0.67984 0.0455 0.38777 0.0
H4183 H 0.68688 0.0534 0.36737 0.0
H4184 H 0.71728 0.08427 0.42456 0.0
H4185 H 0.73224 0.10322 0.37517 0.0
H4186 H 0.71408 0.04683 0.41841 0.0
H4187 H 0.69375 0.04275 0.4133 0.0
H4188 H 0.70553 0.05651 0.43061 0.0
H4189 H 0.73317 0.06979 0.35824 0.0
H4190 H 0.73111 0.08683 0.35247 0.0
H4191 H 0.71309 0.06628 0.35302 0.0
C4192 C 0.96058 0.68434 0.38564 0.0
C4193 C 0.96882 0.67995 0.37423 0.0
C4194 C 0.94381 0.67335 0.38936 0.0
C4195 C 0.93503 0.65766 0.38134 0.0
C4196 C 0.94326 0.65316 0.36981 0.0
C4197 C 0.96006 0.66431 0.36646 0.0
C4198 C 0.93548 0.67852 0.40184 0.0
C4199 C 0.93427 0.6366 0.36088 0.0
C4200 C 0.89535 0.62263 0.39956 0.0
C4201 C 0.88309 0.62283 0.3896 0.0
C4202 C 0.91231 0.63422 0.39735 0.0
C4203 C 0.91711 0.64605 0.38468 0.0
C4204 C 0.90477 0.64635 0.37469 0.0
C4205 C 0.88792 0.63473 0.37726 0.0
C4206 C 0.92511 0.63356 0.40831 0.0
C4207 C 0.90937 0.65866 0.36094 0.0
H4208 H 0.96726 0.69635 0.39179 0.0
H4209 H 0.9663 0.66081 0.3576 0.0
H4210 H 0.92484 0.67845 0.39567 0.0
H4211 H 0.9304 0.66962 0.41217 0.0
H4212 H 0.94415 0.69099 0.4073 0.0
H4213 H 0.94248 0.63496 0.35233 0.0
H4214 H 0.92925 0.62664 0.37015 0.0
H4215 H 0.92354 0.63513 0.35344 0.0
H4216 H 0.89168 0.61326 0.40889 0.0
H4217 H 0.87847 0.63471 0.36937 0.0
H4218 H 0.93367 0.64578 0.41431 0.0
H4219 H 0.93276 0.63047 0.40052 0.0
H4220 H 0.91933 0.6243 0.41826 0.0
H4221 H 0.91742 0.67134 0.36611 0.0
H4222 H 0.89826 0.65764 0.3547 0.0
H4223 H 0.9166 0.65675 0.35134 0.0
C4224 C 0.37517 0.02109 0.70038 0.0
C4225 C 0.37296 0.0195 0.68287 0.0
C4226 C 0.38877 0.0215 0.70829 0.0
C4227 C 0.40043 0.02032 0.69847 0.0
C4228 C 0.3982 0.01852 0.68085 0.0
C4229 C 0.38448 0.0181 0.67325 0.0
C4230 C 0.39077 0.02335 0.72711 0.0
C4231 C 0.41046 0.01728 0.67001 0.0
C4232 C 0.45287 0.04362 0.71717 0.0
C4233 C 0.45006 0.02469 0.7267 0.0
C4234 C 0.4341 0.04149 0.7085 0.0
C4235 C 0.41521 0.0215 0.70644 0.0
C4236 C 0.41451 0.00283 0.71174 0.0
C4237 C 0.43264 0.00365 0.7205 0.0
C4238 C 0.43418 0.05636 0.70296 0.0
C4239 C 0.39881 0.98661 0.70894 0.0
H4240 H 0.36632 0.02214 0.70794 0.0
H4241 H 0.3829 0.01685 0.65972 0.0
H4242 H 0.39154 0.01305 0.73232 0.0
H4243 H 0.40255 0.03496 0.73055 0.0
H4244 H 0.38031 0.02354 0.73303 0.0
H4245 H 0.4068 0.01561 0.65649 0.0
H4246 H 0.42296 0.0286 0.67167 0.0
H4247 H 0.41154 0.00678 0.67396 0.0
H4248 H 0.46382 0.05561 0.71981 0.0
H4249 H 0.43206 0.99272 0.72493 0.0
H4250 H 0.4246 0.05732 0.70983 0.0
H4251 H 0.4308 0.05502 0.68941 0.0
H4252 H 0.44661 0.06759 0.70529 0.0
H4253 H 0.38853 0.98669 0.71541 0.0
H4254 H 0.40022 0.97654 0.71367 0.0
H4255 H 0.39557 0.98466 0.69535 0.0
C4256 C 0.97078 0.34964 0.69819 0.0
C4257 C 0.98326 0.34811 0.70608 0.0
C4258 C 0.96757 0.36173 0.70339 0.0
C4259 C 0.97702 0.37256 0.71688 0.0
C4260 C 0.98951 0.37099 0.72506 0.0
C4261 C 0.9925 0.35879 0.71954 0.0
C4262 C 0.95416 0.36301 0.69431 0.0
C4263 C 0.99978 0.38229 0.73953 0.0
C4264 C 0.97759 0.41251 0.71762 0.0
C4265 C 0.96497 0.40902 0.72889 0.0
C4266 C 0.98221 0.40104 0.71419 0.0
C4267 C 0.97388 0.38565 0.72213 0.0
C4268 C 0.96151 0.38227 0.73396 0.0
C4269 C 0.95714 0.39396 0.73713 0.0
C4270 C 0.99543 0.4051 0.70147 0.0
C4271 C 0.95235 0.366 0.74268 0.0
H4272 H 0.96356 0.34147 0.68778 0.0
H4273 H 0.00215 0.35768 0.72573 0.0
H4274 H 0.9447 0.36169 0.70329 0.0
H4275 H 0.95964 0.37532 0.6887 0.0
H4276 H 0.9478 0.35352 0.68419 0.0
H4277 H 0.00874 0.37923 0.74481 0.0
H4278 H 0.00681 0.3952 0.73533 0.0
H4279 H 0.99152 0.3816 0.74964 0.0
H4280 H 0.98353 0.42405 0.71109 0.0
H4281 H 0.94721 0.39114 0.74568 0.0
H4282 H 0.98972 0.39701 0.69019 0.0
H4283 H 0.00496 0.40279 0.70667 0.0
H4284 H 0.00172 0.4181 0.69754 0.0
H4285 H 0.94446 0.35606 0.73341 0.0
H4286 H 0.94427 0.36592 0.7527 0.0
H4287 H 0.9613 0.36311 0.7483 0.0
C4288 C 0.62978 0.61644 0.69796 0.0
C4289 C 0.64048 0.63356 0.69821 0.0
C4290 C 0.61333 0.60913 0.7032 0.0
C4291 C 0.60761 0.61918 0.70938 0.0
C4292 C 0.61831 0.63652 0.70946 0.0
C4293 C 0.63458 0.64352 0.70361 0.0
C4294 C 0.60217 0.59063 0.70243 0.0
C4295 C 0.61282 0.64762 0.7164 0.0
C4296 C 0.56089 0.59965 0.71289 0.0
C4297 C 0.5582 0.59366 0.72927 0.0
C4298 C 0.57691 0.60813 0.70626 0.0
C4299 C 0.59072 0.61141 0.7165 0.0
C4300 C 0.58827 0.60634 0.73335 0.0
C4301 C 0.57207 0.59733 0.73947 0.0
C4302 C 0.57896 0.613 0.6881 0.0
C4303 C 0.60276 0.61008 0.74485 0.0
H4304 H 0.63431 0.60873 0.69363 0.0
H4305 H 0.6429 0.65677 0.70392 0.0
H4306 H 0.59914 0.58582 0.71531 0.0
H4307 H 0.59027 0.58696 0.6958 0.0
H4308 H 0.60805 0.58469 0.69593 0.0
H4309 H 0.62233 0.66083 0.71481 0.0
H4310 H 0.60104 0.64486 0.71015 0.0
H4311 H 0.61036 0.64534 0.72996 0.0
H4312 H 0.55035 0.59728 0.70506 0.0
H4313 H 0.57039 0.59312 0.75224 0.0
H4314 H 0.58393 0.60647 0.68113 0.0
H4315 H 0.58808 0.62636 0.68704 0.0
H4316 H 0.56703 0.61004 0.68197 0.0
H4317 H 0.60842 0.60308 0.74053 0.0
H4318 H 0.59896 0.60682 0.75804 0.0
H4319 H 0.61253 0.62333 0.7445 0.0
C4320 C 0.68732 0.71492 0.65398 0.0
C4321 C 0.67486 0.69843 0.65078 0.0
C4322 C 0.68561 0.72778 0.64816 0.0
C4323 C 0.67107 0.72407 0.63893 0.0
C4324 C 0.65856 0.70747 0.63545 0.0
C4325 C 0.66061 0.69486 0.64139 0.0
C4326 C 0.69925 0.74533 0.65211 0.0
C4327 C 0.64288 0.70302 0.62567 0.0
C4328 C 0.65896 0.75618 0.63871 0.0
C4329 C 0.66475 0.76354 0.62317 0.0
C4330 C 0.66086 0.74328 0.64394 0.0
C4331 C 0.66874 0.73756 0.63336 0.0
C4332 C 0.67458 0.7449 0.61763 0.0
C4333 C 0.67271 0.75794 0.6128 0.0
C4334 C 0.65464 0.73594 0.6609 0.0
C4335 C 0.68296 0.73908 0.60596 0.0
H4336 H 0.69839 0.71781 0.66118 0.0
H4337 H 0.6509 0.68217 0.63885 0.0
H4338 H 0.70378 0.75227 0.64035 0.0
H4339 H 0.69428 0.75146 0.6598 0.0
H4340 H 0.70997 0.74615 0.65902 0.0
H4341 H 0.63456 0.68954 0.62357 0.0
H4342 H 0.63592 0.70761 0.6325 0.0
H4343 H 0.64607 0.70903 0.61332 0.0
H4344 H 0.65313 0.76072 0.6469 0.0
H4345 H 0.67758 0.76381 0.60095 0.0
H4346 H 0.66515 0.73752 0.66884 0.0
H4347 H 0.64551 0.72255 0.65948 0.0
H4348 H 0.64865 0.74168 0.66755 0.0
H4349 H 0.69446 0.74092 0.61207 0.0
H4350 H 0.68628 0.74568 0.59392 0.0
H4351 H 0.67465 0.72572 0.60323 0.0
C4352 C 0.29454 0.96401 0.65333 0.0
C4353 C 0.29661 0.97678 0.64319 0.0
C4354 C 0.28726 0.94792 0.64675 0.0
C4355 C 0.28264 0.94478 0.62953 0.0
C4356 C 0.28535 0.95782 0.61913 0.0
C4357 C 0.29191 0.97358 0.62619 0.0
C4358 C 0.2841 0.93424 0.65831 0.0
C4359 C 0.28149 0.95525 0.60052 0.0
C4360 C 0.27972 0.90028 0.60748 0.0
C4361 C 0.25662 0.88786 0.60574 0.0
C4362 C 0.28822 0.92012 0.6176 0.0
C4363 C 0.27498 0.928 0.62232 0.0
C4364 C 0.25317 0.91705 0.61604 0.0
C4365 C 0.24357 0.89717 0.60579 0.0
C4366 C 0.30644 0.93013 0.62156 0.0
C4367 C 0.2427 0.92412 0.61963 0.0
H4368 H 0.29811 0.96651 0.66651 0.0
H4369 H 0.2937 0.98353 0.6183 0.0
H4370 H 0.27076 0.9243 0.65745 0.0
H4371 H 0.29149 0.92888 0.65443 0.0
H4372 H 0.28739 0.93853 0.67159 0.0
H4373 H 0.2879 0.96704 0.59376 0.0
H4374 H 0.28521 0.94697 0.59504 0.0
H4375 H 0.2679 0.94946 0.59831 0.0
H4376 H 0.28718 0.89486 0.60579 0.0
H4377 H 0.2303 0.88994 0.60317 0.0
H4378 H 0.30897 0.92586 0.63346 0.0
H4379 H 0.31078 0.94335 0.62298 0.0
H4380 H 0.31333 0.92828 0.61154 0.0
H4381 H 0.2492 0.9348 0.62845 0.0
H4382 H 0.23076 0.91448 0.62492 0.0
H4383 H 0.23974 0.92799 0.60769 0.0
C4384 C 0.03974 0.34429 0.65831 0.0
C4385 C 0.03379 0.32841 0.66409 0.0
C4386 C 0.05648 0.35447 0.65394 0.0
C4387 C 0.0675 0.34874 0.65593 0.0
C4388 C 0.06174 0.33317 0.66298 0.0
C4389 C 0.04486 0.32306 0.66668 0.0
C4390 C 0.06203 0.3708 0.64609 0.0
C4391 C 0.07319 0.32682 0.66582 0.0
C4392 C 0.10323 0.36112 0.62672 0.0
C4393 C 0.11703 0.37282 0.63651 0.0
C4394 C 0.08701 0.35393 0.63261 0.0
C4395 C 0.08446 0.35801 0.64892 0.0
C4396 C 0.09822 0.36997 0.65878 0.0
C4397 C 0.1143 0.37742 0.65234 0.0
C4398 C 0.07262 0.34153 0.62151 0.0
C4399 C 0.09605 0.37434 0.67639 0.0
H4400 H 0.0311 0.34834 0.6562 0.0
H4401 H 0.04024 0.31081 0.67129 0.0
H4402 H 0.07393 0.38066 0.65192 0.0
H4403 H 0.06425 0.37008 0.63257 0.0
H4404 H 0.05259 0.37432 0.64725 0.0
H4405 H 0.06738 0.31558 0.6735 0.0
H4406 H 0.07648 0.32382 0.65358 0.0
H4407 H 0.08494 0.33636 0.67219 0.0
H4408 H 0.105 0.35734 0.61449 0.0
H4409 H 0.12488 0.38646 0.65993 0.0
H4410 H 0.06276 0.34452 0.62091 0.0
H4411 H 0.06706 0.32912 0.62686 0.0
H4412 H 0.0765 0.34107 0.60855 0.0
H4413 H 0.08635 0.37754 0.67658 0.0
H4414 H 0.10779 0.38478 0.68192 0.0
H4415 H 0.09178 0.36352 0.68447 0.0
C4416 C 0.31177 0.33221 0.65633 0.0
C4417 C 0.30424 0.32368 0.67096 0.0
C4418 C 0.30501 0.33975 0.647 0.0
C4419 C 0.29016 0.33852 0.65224 0.0
C4420 C 0.28211 0.32938 0.66661 0.0
C4421 C 0.28933 0.32219 0.6759 0.0
C4422 C 0.31412 0.34958 0.63189 0.0
C4423 C 0.26609 0.32755 0.67238 0.0
C4424 C 0.28393 0.37281 0.63841 0.0
C4425 C 0.27351 0.36574 0.62417 0.0
C4426 C 0.28905 0.36392 0.64793 0.0
C4427 C 0.28362 0.34753 0.64309 0.0
C4428 C 0.27286 0.3402 0.62891 0.0
C4429 C 0.2681 0.34945 0.61949 0.0
C4430 C 0.30074 0.37227 0.66282 0.0
C4431 C 0.26674 0.32274 0.62341 0.0
H4432 H 0.32334 0.33351 0.65244 0.0
H4433 H 0.2834 0.31556 0.68714 0.0
H4434 H 0.3057 0.3451 0.62066 0.0
H4435 H 0.3182 0.36267 0.63402 0.0
H4436 H 0.32522 0.34888 0.62915 0.0
H4437 H 0.26073 0.31902 0.68301 0.0
H4438 H 0.26837 0.33972 0.67639 0.0
H4439 H 0.25678 0.32291 0.66189 0.0
H4440 H 0.2884 0.38548 0.64186 0.0
H4441 H 0.26035 0.34403 0.60829 0.0
H4442 H 0.31275 0.37319 0.66056 0.0
H4443 H 0.29547 0.36488 0.6742 0.0
H4444 H 0.30323 0.38482 0.66533 0.0
H4445 H 0.27737 0.32185 0.61913 0.0
H4446 H 0.25731 0.31839 0.61302 0.0
H4447 H 0.26122 0.31436 0.63411 0.0
C4448 C 0.66177 0.98048 0.65488 0.0
C4449 C 0.67811 0.98822 0.66144 0.0
C4450 C 0.65412 0.96489 0.64708 0.0
C4451 C 0.663 0.95679 0.64576 0.0
C4452 C 0.67952 0.96452 0.65226 0.0
C4453 C 0.68688 0.98015 0.66004 0.0
C4454 C 0.63648 0.95706 0.6403 0.0
C4455 C 0.68938 0.95626 0.65106 0.0
C4456 C 0.63711 0.9104 0.63913 0.0
C4457 C 0.63807 0.90878 0.62176 0.0
C4458 C 0.64549 0.92593 0.64716 0.0
C4459 C 0.65492 0.94019 0.63757 0.0
C4460 C 0.65601 0.93864 0.62005 0.0
C4461 C 0.64752 0.92296 0.61234 0.0
C4462 C 0.64396 0.92709 0.66587 0.0
C4463 C 0.66585 0.95355 0.60937 0.0
H4464 H 0.65486 0.98658 0.6559 0.0
H4465 H 0.69951 0.98602 0.66505 0.0
H4466 H 0.63602 0.95438 0.62667 0.0
H4467 H 0.62834 0.94517 0.64648 0.0
H4468 H 0.63131 0.96501 0.64228 0.0
H4469 H 0.70212 0.96394 0.65665 0.0
H4470 H 0.68283 0.94435 0.65757 0.0
H4471 H 0.69039 0.95353 0.63773 0.0
H4472 H 0.62962 0.8995 0.64641 0.0
H4473 H 0.64807 0.92177 0.59888 0.0
H4474 H 0.6377 0.93392 0.66856 0.0
H4475 H 0.6565 0.93405 0.67199 0.0
H4476 H 0.63676 0.9148 0.67161 0.0
H4477 H 0.66039 0.96135 0.60994 0.0
H4478 H 0.66605 0.95019 0.59604 0.0
H4479 H 0.67886 0.96109 0.61427 0.0
C4480 C 0.03424 0.71601 0.64146 0.0
C4481 C 0.02437 0.70319 0.65232 0.0
C4482 C 0.05062 0.72038 0.63813 0.0
C4483 C 0.05731 0.71181 0.64595 0.0
C4484 C 0.04737 0.6988 0.65683 0.0
C4485 C 0.03103 0.69461 0.65983 0.0
C4486 C 0.06081 0.73425 0.62636 0.0
C4487 C 0.05409 0.68943 0.66552 0.0
C4488 C 0.09524 0.71292 0.62892 0.0
C4489 C 0.10792 0.72453 0.63977 0.0
C4490 C 0.07876 0.70903 0.63042 0.0
C4491 C 0.07488 0.71674 0.64325 0.0
C4492 C 0.08768 0.72859 0.6541 0.0
C4493 C 0.10403 0.73231 0.65225 0.0
C4494 C 0.06546 0.69637 0.61858 0.0
C4495 C 0.08403 0.737 0.66801 0.0
H4496 H 0.02918 0.72266 0.63555 0.0
H4497 H 0.02353 0.6847 0.66826 0.0
H4498 H 0.07189 0.74433 0.63317 0.0
H4499 H 0.06541 0.72991 0.61605 0.0
H4500 H 0.0536 0.73929 0.62082 0.0
H4501 H 0.04466 0.67947 0.6734 0.0
H4502 H 0.05837 0.68393 0.65611 0.0
H4503 H 0.06502 0.69796 0.6736 0.0
H4504 H 0.09817 0.7067 0.61943 0.0
H4505 H 0.11378 0.7411 0.66079 0.0
H4506 H 0.05843 0.7014 0.6126 0.0
H4507 H 0.05643 0.68544 0.62569 0.0
H4508 H 0.07069 0.69234 0.6086 0.0
H4509 H 0.07758 0.74296 0.66284 0.0
H4510 H 0.0955 0.74645 0.67489 0.0
H4511 H 0.07558 0.72775 0.67707 0.0
C4512 C 0.00253 0.64839 0.70848 0.0
C4513 C 0.98724 0.64461 0.70132 0.0
C4514 C 0.00466 0.6361 0.71514 0.0
C4515 C 0.9911 0.61961 0.71481 0.0
C4516 C 0.97556 0.61569 0.70775 0.0
C4517 C 0.97384 0.62825 0.70099 0.0
C4518 C 0.02148 0.64076 0.72242 0.0
C4519 C 0.96081 0.59826 0.70729 0.0
C4520 C 0.00328 0.58778 0.7188 0.0
C4521 C 0.00133 0.58453 0.73598 0.0
C4522 C 0.99926 0.5986 0.71157 0.0
C4523 C 0.99336 0.60655 0.72183 0.0
C4524 C 0.99092 0.60297 0.7391 0.0
C4525 C 0.99492 0.592 0.74596 0.0
C4526 C 0.00196 0.60204 0.6931 0.0
C4527 C 0.98476 0.61127 0.75046 0.0
H4528 H 0.013 0.66098 0.70867 0.0
H4529 H 0.96197 0.62525 0.6955 0.0
H4530 H 0.02031 0.63717 0.73574 0.0
H4531 H 0.02631 0.63402 0.7156 0.0
H4532 H 0.03074 0.65415 0.72171 0.0
H4533 H 0.94953 0.59728 0.70156 0.0
H4534 H 0.96382 0.59023 0.70004 0.0
H4535 H 0.95794 0.59347 0.7202 0.0
H4536 H 0.00835 0.58213 0.71107 0.0
H4537 H 0.99353 0.58961 0.75927 0.0
H4538 H 0.01221 0.61495 0.6914 0.0
H4539 H 0.99062 0.60056 0.68696 0.0
H4540 H 0.00519 0.59379 0.6866 0.0
H4541 H 0.99419 0.62462 0.75146 0.0
H4542 H 0.98228 0.60619 0.76328 0.0
H4543 H 0.97318 0.60991 0.74513 0.0
C4544 C 0.36858 0.37056 0.70611 0.0
C4545 C 0.37507 0.36202 0.71406 0.0
C4546 C 0.37457 0.38706 0.7102 0.0
C4547 C 0.38724 0.39525 0.7227 0.0
C4548 C 0.39372 0.38669 0.73095 0.0
C4549 C 0.38763 0.37018 0.72646 0.0
C4550 C 0.36744 0.39579 0.70095 0.0
C4551 C 0.40709 0.39498 0.74449 0.0
C4552 C 0.41217 0.44171 0.71999 0.0
C4553 C 0.40395 0.44621 0.73128 0.0
C4554 C 0.40731 0.42522 0.71758 0.0
C4555 C 0.39389 0.41289 0.72672 0.0
C4556 C 0.38592 0.4174 0.7386 0.0
C4557 C 0.3909 0.43399 0.74058 0.0
C4558 C 0.41598 0.42092 0.70463 0.0
C4559 C 0.37165 0.40462 0.74868 0.0
H4560 H 0.35891 0.36439 0.69648 0.0
H4561 H 0.39264 0.36365 0.73273 0.0
H4562 H 0.36205 0.40053 0.70997 0.0
H4563 H 0.37749 0.40653 0.69439 0.0
H4564 H 0.35762 0.38765 0.69158 0.0
H4565 H 0.41046 0.38648 0.75006 0.0
H4566 H 0.41843 0.40558 0.73927 0.0
H4567 H 0.40284 0.39986 0.75461 0.0
H4568 H 0.42207 0.45111 0.71259 0.0
H4569 H 0.3843 0.43734 0.74911 0.0
H4570 H 0.40715 0.41382 0.69411 0.0
H4571 H 0.42012 0.41302 0.71013 0.0
H4572 H 0.42695 0.43201 0.69949 0.0
H4573 H 0.36067 0.39702 0.74026 0.0
H4574 H 0.36805 0.41025 0.75867 0.0
H4575 H 0.375 0.39625 0.75454 0.0
C4576 C 0.62847 0.01115 0.69921 0.0
C4577 C 0.63987 0.02663 0.70642 0.0
C4578 C 0.6117 0.00252 0.70365 0.0
C4579 C 0.60618 0.00944 0.71573 0.0
C4580 C 0.61763 0.02498 0.72319 0.0
C4581 C 0.63433 0.03344 0.71838 0.0
C4582 C 0.59984 0.98606 0.69526 0.0
C4583 C 0.61222 0.03265 0.73624 0.0
C4584 C 0.55992 0.99325 0.71406 0.0
C4585 C 0.55393 0.98119 0.72634 0.0
C4586 C 0.57697 0.00292 0.71087 0.0
C4587 C 0.58832 0.00047 0.72019 0.0
C4588 C 0.58241 0.98862 0.73294 0.0
C4589 C 0.56526 0.97899 0.73574 0.0
C4590 C 0.58274 0.0153 0.69706 0.0
C4591 C 0.59415 0.98572 0.7432 0.0
H4592 H 0.6326 0.0058 0.68993 0.0
H4593 H 0.64308 0.04535 0.72407 0.0
H4594 H 0.59397 0.97642 0.70483 0.0
H4595 H 0.58971 0.98649 0.68855 0.0
H4596 H 0.60613 0.98237 0.68615 0.0
H4597 H 0.62274 0.04461 0.74117 0.0
H4598 H 0.60257 0.03464 0.73079 0.0
H4599 H 0.60654 0.02421 0.74686 0.0
H4600 H 0.55115 0.99477 0.7066 0.0
H4601 H 0.56066 0.96949 0.74505 0.0
H4602 H 0.58801 0.01158 0.68684 0.0
H4603 H 0.59276 0.02757 0.70184 0.0
H4604 H 0.57247 0.01642 0.69169 0.0
H4605 H 0.59968 0.98046 0.73504 0.0
H4606 H 0.58779 0.97716 0.75361 0.0
H4607 H 0.60454 0.99752 0.74854 0.0
loop_
_geom_bond_atom_site_label_1
_geom_bond_atom_site_label_2
_geom_bond_distance
_geom_bond_site_symmetry_2
_ccdc_geom_bond_type
Zn0 O3 2.031 1_554 S
Zn0 O5 2.049 . S
Zn0 O10 2.067 1_554 S
Zn1 O2 1.962 1_455 S
Zn1 O4 1.986 . S
Zn1 O6 1.996 1_455 S
Zn1 O9 1.943 1_554 S
O2 Zn1 1.962 1_655 S
O2 C7 1.254 1_554 S
O3 Zn0 2.031 1_556 S
O3 C7 1.269 . S
O4 Zn1 1.986 . S
O4 C11 1.262 . S
O5 Zn0 2.049 . S
O5 C13 1.260 . S
O6 Zn1 1.996 1_655 S
O6 C13 1.257 . S
C7 O2 1.254 1_556 S
C7 O3 1.269 . S
C8 O9 1.249 . S
C8 O10 1.270 1_455 S
O9 Zn1 1.943 1_556 S
O9 C8 1.249 . S
O10 Zn0 2.067 1_556 S
O10 C8 1.270 1_655 S
C11 O4 1.262 . S
C11 O12 1.232 . S
O12 C11 1.232 . S
C13 O5 1.260 . S
C13 O6 1.257 . S
Zn14 O17 2.031 1_554 S
Zn14 O19 2.049 . S
Zn14 O24 2.082 . S
Zn15 O16 1.962 . S
Zn15 O18 1.986 . S
Zn15 O20 1.996 . S
Zn15 O23 1.943 . S
O16 Zn15 1.962 . S
O16 C21 1.254 . S
O17 Zn14 2.031 1_556 S
O17 C21 1.269 1_556 S
O18 Zn15 1.986 . S
O18 C25 1.262 . S
O19 Zn14 2.049 . S
O19 C27 1.260 . S
O20 Zn15 1.996 . S
O20 C27 1.257 . S
C21 O16 1.254 . S
C21 O17 1.269 1_554 S
C22 O23 1.249 1_556 S
C22 O24 1.265 1_556 S
O23 Zn15 1.943 . S
O23 C22 1.249 1_554 S
O24 Zn14 2.082 . S
O24 C22 1.265 1_554 S
C25 O18 1.262 . S
C25 O26 1.232 . S
O26 C25 1.232 . S
C27 O19 1.260 . S
C27 O20 1.257 . S
Zn28 O31 2.031 . S
Zn28 O33 2.049 1_554 S
Zn28 O38 2.067 1_565 S
Zn29 O30 1.962 1_545 S
Zn29 O32 1.986 1_554 S
Zn29 O34 1.996 1_544 S
Zn29 O37 1.943 . S
O30 Zn29 1.962 1_565 S
O30 C35 1.254 . S
O31 Zn28 2.031 . S
O31 C35 1.269 . S
O32 Zn29 1.986 1_556 S
O32 C39 1.262 . S
O33 Zn28 2.049 1_556 S
O33 C41 1.260 . S
O34 Zn29 1.996 1_566 S
O34 C41 1.257 . S
C35 O30 1.254 . S
C35 O31 1.269 . S
C36 O37 1.249 . S
C36 O38 1.270 . S
O37 Zn29 1.943 . S
O37 C36 1.249 . S
O38 Zn28 2.067 1_545 S
O38 C36 1.270 . S
C39 O32 1.262 . S
C39 O40 1.232 1_556 S
O40 C39 1.232 1_554 S
C41 O33 1.260 . S
C41 O34 1.257 . S
Zn42 O45 2.031 . S
Zn42 O47 2.049 1_554 S
Zn42 O52 2.067 . S
Zn43 O44 1.962 1_655 S
Zn43 O46 1.986 1_554 S
Zn43 O48 1.996 1_654 S
Zn43 O51 1.943 . S
O44 Zn43 1.962 1_455 S
O44 C49 1.254 . S
O45 Zn42 2.031 . S
O45 C49 1.269 . S
O46 Zn43 1.986 1_556 S
O46 C53 1.262 . S
O47 Zn42 2.049 1_556 S
O47 C55 1.260 . S
O48 Zn43 1.996 1_456 S
O48 C55 1.257 . S
C49 O44 1.254 . S
C49 O45 1.269 . S
C50 O51 1.249 . S
C50 O52 1.270 1_655 S
O51 Zn43 1.943 . S
O51 C50 1.249 . S
O52 Zn42 2.067 . S
O52 C50 1.270 1_455 S
C53 O46 1.262 . S
C53 O54 1.232 1_556 S
O54 C53 1.232 1_554 S
C55 O47 1.260 . S
C55 O48 1.257 . S
Zn56 O59 2.031 . S
Zn56 O61 2.049 1_554 S
Zn56 O66 2.067 . S
Zn57 O58 1.954 1_556 S
Zn57 O60 2.002 . S
Zn57 O62 2.007 . S
Zn57 O65 1.929 1_556 S
O58 Zn57 1.954 1_554 S
O58 C63 1.254 . S
O59 Zn56 2.031 . S
O59 C63 1.269 . S
O60 Zn57 2.002 . S
O60 C67 1.262 . S
O61 Zn56 2.049 1_556 S
O61 C69 1.260 . S
O62 Zn57 2.007 . S
O62 C69 1.257 . S
C63 O58 1.254 . S
C63 O59 1.269 . S
C64 O65 1.249 . S
C64 O66 1.270 . S
O65 Zn57 1.929 1_554 S
O65 C64 1.249 . S
O66 Zn56 2.067 . S
O66 C64 1.270 . S
C67 O60 1.262 . S
C67 O68 1.232 1_556 S
O68 C67 1.232 1_554 S
C69 O61 1.260 . S
C69 O62 1.257 . S
Zn70 O73 2.031 1_554 S
Zn70 O75 2.049 . S
Zn70 O80 2.067 1_554 S
Zn71 O72 1.962 1_565 S
Zn71 O74 1.986 . S
Zn71 O76 1.996 1_565 S
Zn71 O79 1.943 . S
O72 Zn71 1.962 1_545 S
O72 C77 1.254 . S
O73 Zn70 2.031 1_556 S
O73 C77 1.269 1_556 S
O74 Zn71 1.986 . S
O74 C81 1.262 . S
O75 Zn70 2.049 . S
O75 C83 1.260 . S
O76 Zn71 1.996 1_545 S
O76 C83 1.257 . S
C77 O72 1.254 . S
C77 O73 1.269 1_554 S
C78 O79 1.249 1_556 S
C78 O80 1.270 1_565 S
O79 Zn71 1.943 . S
O79 C78 1.249 1_554 S
O80 Zn70 2.067 1_556 S
O80 C78 1.270 1_545 S
C81 O74 1.262 . S
C81 O82 1.232 . S
O82 C81 1.232 . S
C83 O75 1.260 . S
C83 O76 1.257 . S
Zn84 O87 2.031 . S
Zn84 O89 2.049 . S
Zn84 O94 2.067 . S
Zn85 O86 1.962 . S
Zn85 O88 1.986 . S
Zn85 O90 1.996 . S
Zn85 O93 1.943 . S
O86 Zn85 1.962 . S
O86 C91 1.254 . S
O87 Zn84 2.031 . S
O87 C91 1.269 . S
O88 Zn85 1.986 . S
O88 C95 1.262 . S
O89 Zn84 2.049 . S
O89 C97 1.260 . S
O90 Zn85 1.996 . S
O90 C97 1.257 . S
C91 O86 1.254 . S
C91 O87 1.269 . S
C92 O93 1.249 . S
C92 O94 1.270 . S
O93 Zn85 1.943 . S
O93 C92 1.249 . S
O94 Zn84 2.067 . S
O94 C92 1.270 . S
C95 O88 1.262 . S
C95 O96 1.232 . S
O96 C95 1.232 . S
C97 O89 1.260 . S
C97 O90 1.257 . S
Zn98 O101 2.031 . S
Zn98 O103 2.049 . S
Zn98 O108 2.067 . S
Zn99 O100 1.962 . S
Zn99 O102 1.986 1_565 S
Zn99 O104 1.996 . S
Zn99 O107 1.943 . S
O100 Zn99 1.962 . S
O100 C105 1.254 . S
O101 Zn98 2.031 . S
O101 C105 1.269 . S
O102 Zn99 1.986 1_545 S
O102 C109 1.262 . S
O103 Zn98 2.049 . S
O103 C111 1.260 . S
O104 Zn99 1.996 . S
O104 C111 1.257 . S
C105 O100 1.254 . S
C105 O101 1.269 . S
C106 O107 1.249 . S
C106 O108 1.270 . S
O107 Zn99 1.943 . S
O107 C106 1.249 . S
O108 Zn98 2.067 . S
O108 C106 1.270 . S
C109 O102 1.262 . S
C109 O110 1.232 . S
O110 C109 1.232 . S
C111 O103 1.260 . S
C111 O104 1.257 . S
Zn112 O115 2.031 . S
Zn112 O117 2.049 . S
Zn112 O122 2.067 . S
Zn113 O114 1.962 1_455 S
Zn113 O116 1.986 . S
Zn113 O118 1.996 . S
Zn113 O121 1.943 . S
O114 Zn113 1.962 1_655 S
O114 C119 1.254 . S
O115 Zn112 2.031 . S
O115 C119 1.269 1_455 S
O116 Zn113 1.986 . S
O116 C123 1.262 . S
O117 Zn112 2.049 . S
O117 C125 1.260 . S
O118 Zn113 1.996 . S
O118 C125 1.257 . S
C119 O114 1.254 . S
C119 O115 1.269 1_655 S
C120 O121 1.249 . S
C120 O122 1.270 . S
O121 Zn113 1.943 . S
O121 C120 1.249 . S
O122 Zn112 2.067 . S
O122 C120 1.270 . S
C123 O116 1.262 . S
C123 O124 1.232 . S
O124 C123 1.232 . S
C125 O117 1.260 . S
C125 O118 1.257 . S
Zn126 O129 2.031 . S
Zn126 O131 2.049 . S
Zn126 O136 2.067 . S
Zn127 O128 1.962 1_565 S
Zn127 O130 1.986 . S
Zn127 O132 1.996 . S
Zn127 O135 1.943 . S
O128 Zn127 1.962 1_545 S
O128 C133 1.254 . S
O129 Zn126 2.031 . S
O129 C133 1.269 1_565 S
O130 Zn127 1.986 . S
O130 C137 1.262 . S
O131 Zn126 2.049 . S
O131 C139 1.260 . S
O132 Zn127 1.996 . S
O132 C139 1.257 . S
C133 O128 1.254 . S
C133 O129 1.269 1_545 S
C134 O135 1.249 . S
C134 O136 1.270 . S
O135 Zn127 1.943 . S
O135 C134 1.249 . S
O136 Zn126 2.067 . S
O136 C134 1.270 . S
C137 O130 1.262 . S
C137 O138 1.232 . S
O138 C137 1.232 . S
C139 O131 1.260 . S
C139 O132 1.257 . S
Zn140 O143 2.031 . S
Zn140 O145 2.049 . S
Zn140 O150 2.067 . S
Zn141 O142 1.962 1_455 S
Zn141 O144 1.986 . S
Zn141 O146 1.996 . S
Zn141 O149 1.943 . S
O142 Zn141 1.962 1_655 S
O142 C147 1.254 . S
O143 Zn140 2.031 . S
O143 C147 1.269 1_455 S
O144 Zn141 1.986 . S
O144 C151 1.262 . S
O145 Zn140 2.049 . S
O145 C153 1.260 . S
O146 Zn141 1.996 . S
O146 C153 1.257 . S
C147 O142 1.254 . S
C147 O143 1.269 1_655 S
C148 O149 1.249 . S
C148 O150 1.270 . S
O149 Zn141 1.943 . S
O149 C148 1.249 . S
O150 Zn140 2.067 . S
O150 C148 1.270 . S
C151 O144 1.262 . S
C151 O152 1.232 . S
O152 C151 1.232 . S
C153 O145 1.260 . S
C153 O146 1.257 . S
Zn154 O157 2.031 . S
Zn154 O159 2.049 . S
Zn154 O164 2.067 . S
Zn155 O156 1.962 . S
Zn155 O158 1.986 . S
Zn155 O160 1.996 . S
Zn155 O163 1.943 . S
O156 Zn155 1.962 . S
O156 C161 1.254 . S
O157 Zn154 2.031 . S
O157 C161 1.269 . S
O158 Zn155 1.986 . S
O158 C165 1.262 . S
O159 Zn154 2.049 . S
O159 C167 1.260 . S
O160 Zn155 1.996 . S
O160 C167 1.257 . S
C161 O156 1.254 . S
C161 O157 1.269 . S
C162 O163 1.249 . S
C162 O164 1.270 . S
O163 Zn155 1.943 . S
O163 C162 1.249 . S
O164 Zn154 2.067 . S
O164 C162 1.270 . S
C165 O158 1.262 . S
C165 O166 1.232 . S
O166 C165 1.232 . S
C167 O159 1.260 . S
C167 O160 1.257 . S
Zn168 O171 2.031 . S
Zn168 O173 2.049 . S
Zn168 O178 2.067 . S
Zn169 O170 1.962 1_545 S
Zn169 O172 1.986 . S
Zn169 O174 1.996 . S
Zn169 O177 1.943 . S
O170 Zn169 1.962 1_565 S
O170 C175 1.254 . S
O171 Zn168 2.031 . S
O171 C175 1.269 1_545 S
O172 Zn169 1.986 . S
O172 C179 1.262 . S
O173 Zn168 2.049 . S
O173 C181 1.260 . S
O174 Zn169 1.996 . S
O174 C181 1.257 . S
C175 O170 1.254 . S
C175 O171 1.269 1_565 S
C176 O177 1.249 . S
C176 O178 1.270 . S
O177 Zn169 1.943 . S
O177 C176 1.249 . S
O178 Zn168 2.067 . S
O178 C176 1.270 . S
C179 O172 1.262 . S
C179 O180 1.232 . S
O180 C179 1.232 . S
C181 O173 1.260 . S
C181 O174 1.257 . S
Zn182 O185 2.031 . S
Zn182 O187 2.049 . S
Zn182 O192 2.067 . S
Zn183 O184 1.962 1_655 S
Zn183 O186 1.986 . S
Zn183 O188 1.996 . S
Zn183 O191 1.943 . S
O184 Zn183 1.962 1_455 S
O184 C189 1.254 . S
O185 Zn182 2.031 . S
O185 C189 1.269 1_655 S
O186 Zn183 1.986 . S
O186 C193 1.262 . S
O187 Zn182 2.049 . S
O187 C195 1.260 . S
O188 Zn183 1.996 . S
O188 C195 1.257 . S
C189 O184 1.254 . S
C189 O185 1.269 1_455 S
C190 O191 1.249 . S
C190 O192 1.270 . S
O191 Zn183 1.943 . S
O191 C190 1.249 . S
O192 Zn182 2.067 . S
O192 C190 1.270 . S
C193 O186 1.262 . S
C193 O194 1.232 . S
O194 C193 1.232 . S
C195 O187 1.260 . S
C195 O188 1.257 . S
Zn196 O199 2.031 . S
Zn196 O201 2.049 . S
Zn196 O206 2.067 . S
Zn197 O198 1.962 . S
Zn197 O200 1.986 . S
Zn197 O202 1.996 . S
Zn197 O205 1.943 . S
O198 Zn197 1.962 . S
O198 C203 1.254 . S
O199 Zn196 2.031 . S
O199 C203 1.269 . S
O200 Zn197 1.986 . S
O200 C207 1.262 . S
O201 Zn196 2.049 . S
O201 C209 1.260 . S
O202 Zn197 1.996 . S
O202 C209 1.257 . S
C203 O198 1.254 . S
C203 O199 1.269 . S
C204 O205 1.249 . S
C204 O206 1.270 . S
O205 Zn197 1.943 . S
O205 C204 1.249 . S
O206 Zn196 2.067 . S
O206 C204 1.270 . S
C207 O200 1.262 . S
C207 O208 1.232 . S
O208 C207 1.232 . S
C209 O201 1.260 . S
C209 O202 1.257 . S
Zn210 O213 2.031 . S
Zn210 O215 2.049 . S
Zn210 O220 2.067 . S
Zn211 O212 1.962 . S
Zn211 O214 1.986 . S
Zn211 O216 1.996 . S
Zn211 O219 1.943 . S
O212 Zn211 1.962 . S
O212 C217 1.254 . S
O213 Zn210 2.031 . S
O213 C217 1.269 . S
O214 Zn211 1.986 . S
O214 C221 1.262 . S
O215 Zn210 2.049 . S
O215 C223 1.260 . S
O216 Zn211 1.996 . S
O216 C223 1.257 . S
C217 O212 1.254 . S
C217 O213 1.269 . S
C218 O219 1.249 . S
C218 O220 1.270 . S
O219 Zn211 1.943 . S
O219 C218 1.249 . S
O220 Zn210 2.067 . S
O220 C218 1.270 . S
C221 O214 1.262 . S
C221 O222 1.232 . S
O222 C221 1.232 . S
C223 O215 1.260 . S
C223 O216 1.257 . S
Zn224 O227 2.031 . S
Zn224 O229 2.049 . S
Zn224 O234 2.067 . S
Zn225 O226 1.962 . S
Zn225 O228 1.957 1_545 S
Zn225 O230 1.996 . S
Zn225 O233 1.943 . S
O226 Zn225 1.962 . S
O226 C231 1.254 . S
O227 Zn224 2.031 . S
O227 C231 1.269 . S
O228 Zn225 1.957 1_565 S
O228 C235 1.298 . S
O229 Zn224 2.049 . S
O229 C237 1.260 . S
O230 Zn225 1.996 . S
O230 C237 1.257 . S
C231 O226 1.254 . S
C231 O227 1.269 . S
C232 O233 1.249 . S
C232 O234 1.270 . S
O233 Zn225 1.943 . S
O233 C232 1.249 . S
O234 Zn224 2.067 . S
O234 C232 1.270 . S
C235 O228 1.298 . S
C235 O236 1.232 . S
O236 C235 1.232 . S
C237 O229 1.260 . S
C237 O230 1.257 . S
Zn238 O241 2.031 . S
Zn238 O243 2.049 . S
Zn238 O248 2.067 . S
Zn239 O240 1.962 1_655 S
Zn239 O242 1.986 . S
Zn239 O244 1.996 . S
Zn239 O247 1.943 . S
O240 Zn239 1.962 1_455 S
O240 C245 1.254 . S
O241 Zn238 2.031 . S
O241 C245 1.269 1_655 S
O242 Zn239 1.986 . S
O242 C249 1.262 . S
O243 Zn238 2.049 . S
O243 C251 1.260 . S
O244 Zn239 1.996 . S
O244 C251 1.257 . S
C245 O240 1.254 . S
C245 O241 1.269 1_455 S
C246 O247 1.249 . S
C246 O248 1.270 . S
O247 Zn239 1.943 . S
O247 C246 1.249 . S
O248 Zn238 2.067 . S
O248 C246 1.270 . S
C249 O242 1.262 . S
C249 O250 1.232 . S
O250 C249 1.232 . S
C251 O243 1.260 . S
C251 O244 1.257 . S
C252 C253 1.560 . S
C252 H313 0.959 . S
C252 H314 0.959 . S
C252 H315 0.960 . S
C253 C252 1.560 . S
C253 O308 1.426 . S
C253 H312 0.980 . S
C254 C255 1.407 . S
C254 C259 1.418 . S
C254 O308 1.334 . S
C255 C254 1.407 . S
C255 C256 1.360 . S
C255 H316 0.929 . S
C256 C255 1.360 . S
C256 C257 1.401 . S
C256 C260 1.527 . S
C257 C256 1.401 . S
C257 C258 1.405 . S
C257 C290 1.587 . S
C258 C257 1.405 . S
C258 C259 1.332 . S
C258 C261 1.496 . S
C259 C254 1.418 . S
C259 C258 1.332 . S
C259 H317 0.929 . S
C260 C256 1.527 . S
C260 H318 0.959 . S
C260 H319 0.961 . S
C260 H320 0.961 . S
C261 C258 1.496 . S
C261 H321 0.960 . S
C261 H322 0.960 . S
C261 H323 0.961 . S
C262 C263 1.517 . S
C262 H325 0.961 . S
C262 H326 0.960 . S
C262 H327 0.959 . S
C263 C262 1.517 . S
C263 O311 1.468 . S
C263 H324 0.980 . S
C264 C265 1.349 . S
C264 C269 1.367 . S
C264 O311 1.408 . S
C265 C264 1.349 . S
C265 C266 1.407 . S
C265 H328 0.930 . S
C266 C265 1.407 . S
C266 C267 1.449 . S
C266 C270 1.535 . S
C267 C266 1.449 . S
C267 C268 1.384 . S
C267 C292 1.553 . S
C268 C267 1.384 . S
C268 C269 1.364 . S
C268 C271 1.450 . S
C269 C264 1.367 . S
C269 C268 1.364 . S
C269 H329 0.931 . S
C270 C266 1.535 . S
C270 H330 0.959 . S
C270 H331 0.961 . S
C270 H332 0.959 . S
C271 C268 1.450 . S
C271 H333 0.960 . S
C271 H334 0.960 . S
C271 H335 0.960 . S
C272 C273 1.309 . S
C272 C277 1.304 . S
C272 O310 1.435 . S
C273 C272 1.309 . S
C273 C274 1.476 . S
C273 H337 0.930 . S
C274 C273 1.476 . S
C274 C275 1.400 . S
C274 C278 1.567 . S
C275 C274 1.400 . S
C275 C276 1.373 . S
C275 C297 1.432 . S
C276 C275 1.373 . S
C276 C277 1.339 . S
C276 C279 1.530 . S
C277 C272 1.304 . S
C277 C276 1.339 . S
C277 H338 0.930 . S
C278 C274 1.567 . S
C278 H339 0.961 . S
C278 H340 0.960 . S
C278 H341 0.958 . S
C279 C276 1.530 . S
C279 H342 0.961 . S
C279 H343 0.960 . S
C279 H344 0.960 . S
C280 C281 1.530 . S
C280 H346 0.961 . S
C280 H347 0.961 . S
C280 H348 0.959 . S
C281 C280 1.530 . S
C281 O309 1.412 . S
C281 H345 0.980 . S
C282 C283 1.288 . S
C282 C287 1.377 . S
C282 O309 1.393 . S
C283 C282 1.288 . S
C283 C284 1.369 . S
C283 H349 0.932 . S
C284 C283 1.369 . S
C284 C285 1.398 . S
C284 C288 1.527 . S
C285 C284 1.398 . S
C285 C286 1.380 . S
C285 C299 1.497 . S
C286 C285 1.380 . S
C286 C287 1.383 . S
C286 C289 1.603 . S
C287 C282 1.377 . S
C287 C286 1.383 . S
C287 H350 0.929 . S
C288 C284 1.527 . S
C288 H351 0.961 . S
C288 H352 0.959 . S
C288 H353 0.959 . S
C289 C286 1.603 . S
C289 H354 0.960 . S
C289 H355 0.962 . S
C289 H356 0.961 . S
C290 C257 1.587 . S
C290 C291 1.360 . S
C290 C303 1.412 . S
C291 C290 1.360 . S
C291 C292 1.365 . S
C291 H357 0.929 . S
C292 C267 1.553 . S
C292 C291 1.365 . S
C292 C293 1.404 . S
C293 C292 1.404 . S
C293 C294 1.395 . S
C293 C304 1.451 . S
C294 C293 1.395 . S
C294 C295 1.322 . S
C294 H358 0.930 . S
C295 C294 1.322 . S
C295 C296 1.459 . S
C295 H359 0.929 . S
C296 C295 1.459 . S
C296 C297 1.445 . S
C296 C305 1.395 . S
C297 C275 1.432 . S
C297 C296 1.445 . S
C297 C298 1.370 . S
C298 C297 1.370 . S
C298 C299 1.438 . S
C298 H360 0.930 . S
C299 C285 1.497 . S
C299 C298 1.438 . S
C299 C300 1.360 . S
C300 C299 1.360 . S
C300 C301 1.401 . S
C300 C305 1.446 . S
C301 C300 1.401 . S
C301 C302 1.347 . S
C301 H361 0.929 . S
C302 C301 1.347 . S
C302 C303 1.455 . S
C302 H362 0.930 . S
C303 C290 1.412 . S
C303 C302 1.455 . S
C303 C304 1.331 . S
C304 C293 1.451 . S
C304 C303 1.331 . S
C304 C305 1.497 . S
C305 C296 1.395 . S
C305 C300 1.446 . S
C305 C304 1.497 . S
C306 C307 1.582 . S
C306 H363 0.962 . S
C306 H364 0.959 . S
C306 H365 0.958 . S
C307 C306 1.582 . S
C307 O310 1.458 . S
C307 H336 0.980 . S
O308 C253 1.426 . S
O308 C254 1.334 . S
O309 C281 1.412 . S
O309 C282 1.393 . S
O310 C272 1.435 . S
O310 C307 1.458 . S
O311 C263 1.468 . S
O311 C264 1.408 . S
H312 C253 0.980 . S
H313 C252 0.959 . S
H314 C252 0.959 . S
H315 C252 0.960 . S
H316 C255 0.929 . S
H317 C259 0.929 . S
H318 C260 0.959 . S
H319 C260 0.961 . S
H320 C260 0.961 . S
H321 C261 0.960 . S
H322 C261 0.960 . S
H323 C261 0.961 . S
H324 C263 0.980 . S
H325 C262 0.961 . S
H326 C262 0.960 . S
H327 C262 0.959 . S
H328 C265 0.930 . S
H329 C269 0.931 . S
H330 C270 0.959 . S
H331 C270 0.961 . S
H332 C270 0.959 . S
H333 C271 0.960 . S
H334 C271 0.960 . S
H335 C271 0.960 . S
H336 C307 0.980 . S
H337 C273 0.930 . S
H338 C277 0.930 . S
H339 C278 0.961 . S
H340 C278 0.960 . S
H341 C278 0.958 . S
H342 C279 0.961 . S
H343 C279 0.960 . S
H344 C279 0.960 . S
H345 C281 0.980 . S
H346 C280 0.961 . S
H347 C280 0.961 . S
H348 C280 0.959 . S
H349 C283 0.932 . S
H350 C287 0.929 . S
H351 C288 0.961 . S
H352 C288 0.959 . S
H353 C288 0.959 . S
H354 C289 0.960 . S
H355 C289 0.962 . S
H356 C289 0.961 . S
H357 C291 0.929 . S
H358 C294 0.930 . S
H359 C295 0.929 . S
H360 C298 0.930 . S
H361 C301 0.929 . S
H362 C302 0.930 . S
H363 C306 0.962 . S
H364 C306 0.959 . S
H365 C306 0.958 . S
C366 C367 1.560 . S
C366 H427 0.959 . S
C366 H428 0.959 . S
C366 H429 0.960 . S
C367 C366 1.560 . S
C367 O422 1.426 . S
C367 H426 0.980 . S
C368 C369 1.407 . S
C368 C373 1.418 . S
C368 O422 1.334 . S
C369 C368 1.407 . S
C369 C370 1.360 . S
C369 H430 0.929 . S
C370 C369 1.360 . S
C370 C371 1.401 . S
C370 C374 1.527 . S
C371 C370 1.401 . S
C371 C372 1.405 . S
C371 C404 1.587 . S
C372 C371 1.405 . S
C372 C373 1.332 . S
C372 C375 1.496 . S
C373 C368 1.418 . S
C373 C372 1.332 . S
C373 H431 0.929 . S
C374 C370 1.527 . S
C374 H432 0.959 . S
C374 H433 0.961 . S
C374 H434 0.961 . S
C375 C372 1.496 . S
C375 H435 0.960 . S
C375 H436 0.960 . S
C375 H437 0.961 . S
C376 C377 1.517 . S
C376 H439 0.961 . S
C376 H440 0.960 . S
C376 H441 0.959 . S
C377 C376 1.517 . S
C377 O425 1.468 . S
C377 H438 0.980 . S
C378 C379 1.349 . S
C378 C383 1.367 . S
C378 O425 1.408 . S
C379 C378 1.349 . S
C379 C380 1.407 . S
C379 H442 0.930 . S
C380 C379 1.407 . S
C380 C381 1.449 . S
C380 C384 1.535 . S
C381 C380 1.449 . S
C381 C382 1.384 . S
C381 C406 1.553 . S
C382 C381 1.384 . S
C382 C383 1.364 . S
C382 C385 1.450 . S
C383 C378 1.367 . S
C383 C382 1.364 . S
C383 H443 0.931 . S
C384 C380 1.535 . S
C384 H444 0.959 . S
C384 H445 0.961 . S
C384 H446 0.959 . S
C385 C382 1.450 . S
C385 H447 0.960 . S
C385 H448 0.960 . S
C385 H449 0.960 . S
C386 C387 1.309 . S
C386 C391 1.304 . S
C386 O424 1.435 . S
C387 C386 1.309 . S
C387 C388 1.476 . S
C387 H451 0.930 . S
C388 C387 1.476 . S
C388 C389 1.400 . S
C388 C392 1.567 . S
C389 C388 1.400 . S
C389 C390 1.373 . S
C389 C411 1.432 . S
C390 C389 1.373 . S
C390 C391 1.339 . S
C390 C393 1.530 . S
C391 C386 1.304 . S
C391 C390 1.339 . S
C391 H452 0.930 . S
C392 C388 1.567 . S
C392 H453 0.961 . S
C392 H454 0.960 . S
C392 H455 0.958 . S
C393 C390 1.530 . S
C393 H456 0.961 . S
C393 H457 0.960 . S
C393 H458 0.960 . S
C394 C395 1.530 . S
C394 H460 0.961 . S
C394 H461 0.961 . S
C394 H462 0.959 . S
C395 C394 1.530 . S
C395 O423 1.412 . S
C395 H459 0.980 . S
C396 C397 1.288 . S
C396 C401 1.377 . S
C396 O423 1.393 . S
C397 C396 1.288 . S
C397 C398 1.369 . S
C397 H463 0.932 . S
C398 C397 1.369 . S
C398 C399 1.398 . S
C398 C402 1.527 . S
C399 C398 1.398 . S
C399 C400 1.380 . S
C399 C413 1.497 . S
C400 C399 1.380 . S
C400 C401 1.383 . S
C400 C403 1.603 . S
C401 C396 1.377 . S
C401 C400 1.383 . S
C401 H464 0.929 . S
C402 C398 1.527 . S
C402 H465 0.961 . S
C402 H466 0.959 . S
C402 H467 0.959 . S
C403 C400 1.603 . S
C403 H468 0.960 . S
C403 H469 0.962 . S
C403 H470 0.961 . S
C404 C371 1.587 . S
C404 C405 1.360 . S
C404 C417 1.412 . S
C405 C404 1.360 . S
C405 C406 1.365 . S
C405 H471 0.929 . S
C406 C381 1.553 . S
C406 C405 1.365 . S
C406 C407 1.404 . S
C407 C406 1.404 . S
C407 C408 1.395 . S
C407 C418 1.451 . S
C408 C407 1.395 . S
C408 C409 1.322 . S
C408 H472 0.930 . S
C409 C408 1.322 . S
C409 C410 1.459 . S
C409 H473 0.929 . S
C410 C409 1.459 . S
C410 C411 1.445 . S
C410 C419 1.395 . S
C411 C389 1.432 . S
C411 C410 1.445 . S
C411 C412 1.370 . S
C412 C411 1.370 . S
C412 C413 1.438 . S
C412 H474 0.930 . S
C413 C399 1.497 . S
C413 C412 1.438 . S
C413 C414 1.360 . S
C414 C413 1.360 . S
C414 C415 1.401 . S
C414 C419 1.446 . S
C415 C414 1.401 . S
C415 C416 1.347 . S
C415 H475 0.929 . S
C416 C415 1.347 . S
C416 C417 1.455 . S
C416 H476 0.930 . S
C417 C404 1.412 . S
C417 C416 1.455 . S
C417 C418 1.331 . S
C418 C407 1.451 . S
C418 C417 1.331 . S
C418 C419 1.497 . S
C419 C410 1.395 . S
C419 C414 1.446 . S
C419 C418 1.497 . S
C420 C421 1.582 . S
C420 H477 0.962 . S
C420 H478 0.959 . S
C420 H479 0.958 . S
C421 C420 1.582 . S
C421 O424 1.458 . S
C421 H450 0.980 . S
O422 C367 1.426 . S
O422 C368 1.334 . S
O423 C395 1.412 . S
O423 C396 1.393 . S
O424 C386 1.435 . S
O424 C421 1.458 . S
O425 C377 1.468 . S
O425 C378 1.408 . S
H426 C367 0.980 . S
H427 C366 0.959 . S
H428 C366 0.959 . S
H429 C366 0.960 . S
H430 C369 0.929 . S
H431 C373 0.929 . S
H432 C374 0.959 . S
H433 C374 0.961 . S
H434 C374 0.961 . S
H435 C375 0.960 . S
H436 C375 0.960 . S
H437 C375 0.961 . S
H438 C377 0.980 . S
H439 C376 0.961 . S
H440 C376 0.960 . S
H441 C376 0.959 . S
H442 C379 0.930 . S
H443 C383 0.931 . S
H444 C384 0.959 . S
H445 C384 0.961 . S
H446 C384 0.959 . S
H447 C385 0.960 . S
H448 C385 0.960 . S
H449 C385 0.960 . S
H450 C421 0.980 . S
H451 C387 0.930 . S
H452 C391 0.930 . S
H453 C392 0.961 . S
H454 C392 0.960 . S
H455 C392 0.958 . S
H456 C393 0.961 . S
H457 C393 0.960 . S
H458 C393 0.960 . S
H459 C395 0.980 . S
H460 C394 0.961 . S
H461 C394 0.961 . S
H462 C394 0.959 . S
H463 C397 0.932 . S
H464 C401 0.929 . S
H465 C402 0.961 . S
H466 C402 0.959 . S
H467 C402 0.959 . S
H468 C403 0.960 . S
H469 C403 0.962 . S
H470 C403 0.961 . S
H471 C405 0.929 . S
H472 C408 0.930 . S
H473 C409 0.929 . S
H474 C412 0.930 . S
H475 C415 0.929 . S
H476 C416 0.930 . S
H477 C420 0.962 . S
H478 C420 0.959 . S
H479 C420 0.958 . S
C480 C481 1.560 . S
C480 H541 0.959 . S
C480 H542 0.959 . S
C480 H543 0.960 . S
C481 C480 1.560 . S
C481 O536 1.426 . S
C481 H540 0.980 . S
C482 C483 1.407 . S
C482 C487 1.418 . S
C482 O536 1.334 . S
C483 C482 1.407 . S
C483 C484 1.360 . S
C483 H544 0.929 . S
C484 C483 1.360 . S
C484 C485 1.401 . S
C484 C488 1.527 . S
C485 C484 1.401 . S
C485 C486 1.405 . S
C485 C518 1.587 . S
C486 C485 1.405 . S
C486 C487 1.332 . S
C486 C489 1.496 . S
C487 C482 1.418 . S
C487 C486 1.332 . S
C487 H545 0.929 . S
C488 C484 1.527 . S
C488 H546 0.959 . S
C488 H547 0.961 . S
C488 H548 0.961 . S
C489 C486 1.496 . S
C489 H549 0.960 . S
C489 H550 0.960 . S
C489 H551 0.961 . S
C490 C491 1.517 . S
C490 H553 0.961 . S
C490 H554 0.960 . S
C490 H555 0.959 . S
C491 C490 1.517 . S
C491 O539 1.468 . S
C491 H552 0.980 . S
C492 C493 1.349 . S
C492 C497 1.367 . S
C492 O539 1.408 . S
C493 C492 1.349 . S
C493 C494 1.407 . S
C493 H556 0.930 . S
C494 C493 1.407 . S
C494 C495 1.449 . S
C494 C498 1.535 . S
C495 C494 1.449 . S
C495 C496 1.384 . S
C495 C520 1.553 . S
C496 C495 1.384 . S
C496 C497 1.364 . S
C496 C499 1.450 . S
C497 C492 1.367 . S
C497 C496 1.364 . S
C497 H557 0.931 . S
C498 C494 1.535 . S
C498 H558 0.959 . S
C498 H559 0.961 . S
C498 H560 0.959 . S
C499 C496 1.450 . S
C499 H561 0.960 . S
C499 H562 0.960 . S
C499 H563 0.960 . S
C500 C501 1.309 . S
C500 C505 1.304 . S
C500 O538 1.435 . S
C501 C500 1.309 . S
C501 C502 1.476 . S
C501 H565 0.930 . S
C502 C501 1.476 . S
C502 C503 1.400 . S
C502 C506 1.567 . S
C503 C502 1.400 . S
C503 C504 1.373 . S
C503 C525 1.432 . S
C504 C503 1.373 . S
C504 C505 1.339 . S
C504 C507 1.530 . S
C505 C500 1.304 . S
C505 C504 1.339 . S
C505 H566 0.930 . S
C506 C502 1.567 . S
C506 H567 0.961 . S
C506 H568 0.960 . S
C506 H569 0.958 . S
C507 C504 1.530 . S
C507 H570 0.961 . S
C507 H571 0.960 . S
C507 H572 0.960 . S
C508 C509 1.530 . S
C508 H574 0.961 . S
C508 H575 0.961 . S
C508 H576 0.959 . S
C509 C508 1.530 . S
C509 O537 1.412 . S
C509 H573 0.980 . S
C510 C511 1.288 . S
C510 C515 1.377 . S
C510 O537 1.393 . S
C511 C510 1.288 . S
C511 C512 1.369 . S
C511 H577 0.932 . S
C512 C511 1.369 . S
C512 C513 1.398 . S
C512 C516 1.527 . S
C513 C512 1.398 . S
C513 C514 1.380 . S
C513 C527 1.497 . S
C514 C513 1.380 . S
C514 C515 1.383 . S
C514 C517 1.603 . S
C515 C510 1.377 . S
C515 C514 1.383 . S
C515 H578 0.929 . S
C516 C512 1.527 . S
C516 H579 0.961 . S
C516 H580 0.959 . S
C516 H581 0.959 . S
C517 C514 1.603 . S
C517 H582 0.960 . S
C517 H583 0.962 . S
C517 H584 0.961 . S
C518 C485 1.587 . S
C518 C519 1.360 . S
C518 C531 1.412 . S
C519 C518 1.360 . S
C519 C520 1.365 . S
C519 H585 0.929 . S
C520 C495 1.553 . S
C520 C519 1.365 . S
C520 C521 1.404 . S
C521 C520 1.404 . S
C521 C522 1.395 . S
C521 C532 1.451 . S
C522 C521 1.395 . S
C522 C523 1.322 . S
C522 H586 0.930 . S
C523 C522 1.322 . S
C523 C524 1.459 . S
C523 H587 0.929 . S
C524 C523 1.459 . S
C524 C525 1.445 . S
C524 C533 1.395 . S
C525 C503 1.432 . S
C525 C524 1.445 . S
C525 C526 1.370 . S
C526 C525 1.370 . S
C526 C527 1.438 . S
C526 H588 0.930 . S
C527 C513 1.497 . S
C527 C526 1.438 . S
C527 C528 1.360 . S
C528 C527 1.360 . S
C528 C529 1.401 . S
C528 C533 1.446 . S
C529 C528 1.401 . S
C529 C530 1.347 . S
C529 H589 0.929 . S
C530 C529 1.347 . S
C530 C531 1.455 . S
C530 H590 0.930 . S
C531 C518 1.412 . S
C531 C530 1.455 . S
C531 C532 1.331 . S
C532 C521 1.451 . S
C532 C531 1.331 . S
C532 C533 1.497 . S
C533 C524 1.395 . S
C533 C528 1.446 . S
C533 C532 1.497 . S
C534 C535 1.582 . S
C534 H591 0.962 . S
C534 H592 0.959 . S
C534 H593 0.958 . S
C535 C534 1.582 . S
C535 O538 1.458 . S
C535 H564 0.980 . S
O536 C481 1.426 . S
O536 C482 1.334 . S
O537 C509 1.412 . S
O537 C510 1.393 . S
O538 C500 1.435 . S
O538 C535 1.458 . S
O539 C491 1.468 . S
O539 C492 1.408 . S
H540 C481 0.980 . S
H541 C480 0.959 . S
H542 C480 0.959 . S
H543 C480 0.960 . S
H544 C483 0.929 . S
H545 C487 0.929 . S
H546 C488 0.959 . S
H547 C488 0.961 . S
H548 C488 0.961 . S
H549 C489 0.960 . S
H550 C489 0.960 . S
H551 C489 0.961 . S
H552 C491 0.980 . S
H553 C490 0.961 . S
H554 C490 0.960 . S
H555 C490 0.959 . S
H556 C493 0.930 . S
H557 C497 0.931 . S
H558 C498 0.959 . S
H559 C498 0.961 . S
H560 C498 0.959 . S
H561 C499 0.960 . S
H562 C499 0.960 . S
H563 C499 0.960 . S
H564 C535 0.980 . S
H565 C501 0.930 . S
H566 C505 0.930 . S
H567 C506 0.961 . S
H568 C506 0.960 . S
H569 C506 0.958 . S
H570 C507 0.961 . S
H571 C507 0.960 . S
H572 C507 0.960 . S
H573 C509 0.980 . S
H574 C508 0.961 . S
H575 C508 0.961 . S
H576 C508 0.959 . S
H577 C511 0.932 . S
H578 C515 0.929 . S
H579 C516 0.961 . S
H580 C516 0.959 . S
H581 C516 0.959 . S
H582 C517 0.960 . S
H583 C517 0.962 . S
H584 C517 0.961 . S
H585 C519 0.929 . S
H586 C522 0.930 . S
H587 C523 0.929 . S
H588 C526 0.930 . S
H589 C529 0.929 . S
H590 C530 0.930 . S
H591 C534 0.962 . S
H592 C534 0.959 . S
H593 C534 0.958 . S
C594 C595 1.560 . S
C594 H655 0.959 . S
C594 H656 0.959 . S
C594 H657 0.960 . S
C595 C594 1.560 . S
C595 O650 1.426 . S
C595 H654 0.980 . S
C596 C597 1.407 . S
C596 C601 1.418 . S
C596 O650 1.334 . S
C597 C596 1.407 . S
C597 C598 1.360 . S
C597 H658 0.929 . S
C598 C597 1.360 . S
C598 C599 1.401 . S
C598 C602 1.527 . S
C599 C598 1.401 . S
C599 C600 1.405 . S
C599 C632 1.587 . S
C600 C599 1.405 . S
C600 C601 1.332 . S
C600 C603 1.496 . S
C601 C596 1.418 . S
C601 C600 1.332 . S
C601 H659 0.929 . S
C602 C598 1.527 . S
C602 H660 0.959 . S
C602 H661 0.961 . S
C602 H662 0.961 . S
C603 C600 1.496 . S
C603 H663 0.960 . S
C603 H664 0.960 . S
C603 H665 0.961 . S
C604 C605 1.517 . S
C604 H667 0.961 . S
C604 H668 0.960 . S
C604 H669 0.959 . S
C605 C604 1.517 . S
C605 O653 1.468 . S
C605 H666 0.980 . S
C606 C607 1.349 . S
C606 C611 1.367 . S
C606 O653 1.408 . S
C607 C606 1.349 . S
C607 C608 1.407 . S
C607 H670 0.930 . S
C608 C607 1.407 . S
C608 C609 1.449 . S
C608 C612 1.535 . S
C609 C608 1.449 . S
C609 C610 1.384 . S
C609 C634 1.553 . S
C610 C609 1.384 . S
C610 C611 1.364 . S
C610 C613 1.450 . S
C611 C606 1.367 . S
C611 C610 1.364 . S
C611 H671 0.931 . S
C612 C608 1.535 . S
C612 H672 0.959 . S
C612 H673 0.961 . S
C612 H674 0.959 . S
C613 C610 1.450 . S
C613 H675 0.960 . S
C613 H676 0.960 . S
C613 H677 0.960 . S
C614 C615 1.309 . S
C614 C619 1.304 . S
C614 O652 1.435 . S
C615 C614 1.309 . S
C615 C616 1.476 . S
C615 H679 0.930 . S
C616 C615 1.476 . S
C616 C617 1.400 . S
C616 C620 1.567 . S
C617 C616 1.400 . S
C617 C618 1.373 . S
C617 C639 1.432 . S
C618 C617 1.373 . S
C618 C619 1.339 . S
C618 C621 1.530 . S
C619 C614 1.304 . S
C619 C618 1.339 . S
C619 H680 0.930 . S
C620 C616 1.567 . S
C620 H681 0.961 . S
C620 H682 0.960 . S
C620 H683 0.958 . S
C621 C618 1.530 . S
C621 H684 0.961 . S
C621 H685 0.960 . S
C621 H686 0.960 . S
C622 C623 1.530 . S
C622 H688 0.961 . S
C622 H689 0.961 . S
C622 H690 0.959 . S
C623 C622 1.530 . S
C623 O651 1.412 . S
C623 H687 0.980 . S
C624 C625 1.288 . S
C624 C629 1.377 . S
C624 O651 1.393 . S
C625 C624 1.288 . S
C625 C626 1.369 . S
C625 H691 0.932 . S
C626 C625 1.369 . S
C626 C627 1.398 . S
C626 C630 1.527 . S
C627 C626 1.398 . S
C627 C628 1.380 . S
C627 C641 1.497 . S
C628 C627 1.380 . S
C628 C629 1.383 . S
C628 C631 1.603 . S
C629 C624 1.377 . S
C629 C628 1.383 . S
C629 H692 0.929 . S
C630 C626 1.527 . S
C630 H693 0.961 . S
C630 H694 0.959 . S
C630 H695 0.959 . S
C631 C628 1.603 . S
C631 H696 0.960 . S
C631 H697 0.962 . S
C631 H698 0.961 . S
C632 C599 1.587 . S
C632 C633 1.360 . S
C632 C645 1.412 . S
C633 C632 1.360 . S
C633 C634 1.365 . S
C633 H699 0.929 . S
C634 C609 1.553 . S
C634 C633 1.365 . S
C634 C635 1.404 . S
C635 C634 1.404 . S
C635 C636 1.395 . S
C635 C646 1.451 . S
C636 C635 1.395 . S
C636 C637 1.322 . S
C636 H700 0.930 . S
C637 C636 1.322 . S
C637 C638 1.459 . S
C637 H701 0.929 . S
C638 C637 1.459 . S
C638 C639 1.445 . S
C638 C647 1.395 . S
C639 C617 1.432 . S
C639 C638 1.445 . S
C639 C640 1.370 . S
C640 C639 1.370 . S
C640 C641 1.438 . S
C640 H702 0.930 . S
C641 C627 1.497 . S
C641 C640 1.438 . S
C641 C642 1.360 . S
C642 C641 1.360 . S
C642 C643 1.401 . S
C642 C647 1.446 . S
C643 C642 1.401 . S
C643 C644 1.347 . S
C643 H703 0.929 . S
C644 C643 1.347 . S
C644 C645 1.455 . S
C644 H704 0.930 . S
C645 C632 1.412 . S
C645 C644 1.455 . S
C645 C646 1.331 . S
C646 C635 1.451 . S
C646 C645 1.331 . S
C646 C647 1.497 . S
C647 C638 1.395 . S
C647 C642 1.446 . S
C647 C646 1.497 . S
C648 C649 1.582 . S
C648 H705 0.962 . S
C648 H706 0.959 . S
C648 H707 0.958 . S
C649 C648 1.582 . S
C649 O652 1.458 . S
C649 H678 0.980 . S
O650 C595 1.426 . S
O650 C596 1.334 . S
O651 C623 1.412 . S
O651 C624 1.393 . S
O652 C614 1.435 . S
O652 C649 1.458 . S
O653 C605 1.468 . S
O653 C606 1.408 . S
H654 C595 0.980 . S
H655 C594 0.959 . S
H656 C594 0.959 . S
H657 C594 0.960 . S
H658 C597 0.929 . S
H659 C601 0.929 . S
H660 C602 0.959 . S
H661 C602 0.961 . S
H662 C602 0.961 . S
H663 C603 0.960 . S
H664 C603 0.960 . S
H665 C603 0.961 . S
H666 C605 0.980 . S
H667 C604 0.961 . S
H668 C604 0.960 . S
H669 C604 0.959 . S
H670 C607 0.930 . S
H671 C611 0.931 . S
H672 C612 0.959 . S
H673 C612 0.961 . S
H674 C612 0.959 . S
H675 C613 0.960 . S
H676 C613 0.960 . S
H677 C613 0.960 . S
H678 C649 0.980 . S
H679 C615 0.930 . S
H680 C619 0.930 . S
H681 C620 0.961 . S
H682 C620 0.960 . S
H683 C620 0.958 . S
H684 C621 0.961 . S
H685 C621 0.960 . S
H686 C621 0.960 . S
H687 C623 0.980 . S
H688 C622 0.961 . S
H689 C622 0.961 . S
H690 C622 0.959 . S
H691 C625 0.932 . S
H692 C629 0.929 . S
H693 C630 0.961 . S
H694 C630 0.959 . S
H695 C630 0.959 . S
H696 C631 0.960 . S
H697 C631 0.962 . S
H698 C631 0.961 . S
H699 C633 0.929 . S
H700 C636 0.930 . S
H701 C637 0.929 . S
H702 C640 0.930 . S
H703 C643 0.929 . S
H704 C644 0.930 . S
H705 C648 0.962 . S
H706 C648 0.959 . S
H707 C648 0.958 . S
C708 C709 1.560 . S
C708 H769 0.959 . S
C708 H770 0.959 . S
C708 H771 0.960 . S
C709 C708 1.560 . S
C709 O764 1.426 . S
C709 H768 0.980 . S
C710 C711 1.407 . S
C710 C715 1.418 . S
C710 O764 1.334 . S
C711 C710 1.407 . S
C711 C712 1.360 . S
C711 H772 0.929 . S
C712 C711 1.360 . S
C712 C713 1.401 . S
C712 C716 1.527 . S
C713 C712 1.401 . S
C713 C714 1.405 . S
C713 C746 1.587 . S
C714 C713 1.405 . S
C714 C715 1.332 . S
C714 C717 1.496 . S
C715 C710 1.418 . S
C715 C714 1.332 . S
C715 H773 0.929 . S
C716 C712 1.527 . S
C716 H774 0.959 . S
C716 H775 0.961 . S
C716 H776 0.961 . S
C717 C714 1.496 . S
C717 H777 0.960 . S
C717 H778 0.960 . S
C717 H779 0.961 . S
C718 C719 1.517 . S
C718 H781 0.961 . S
C718 H782 0.960 . S
C718 H783 0.959 . S
C719 C718 1.517 . S
C719 O767 1.468 . S
C719 H780 0.980 . S
C720 C721 1.349 . S
C720 C725 1.367 . S
C720 O767 1.408 . S
C721 C720 1.349 . S
C721 C722 1.407 . S
C721 H784 0.930 . S
C722 C721 1.407 . S
C722 C723 1.449 . S
C722 C726 1.535 . S
C723 C722 1.449 . S
C723 C724 1.384 . S
C723 C748 1.553 . S
C724 C723 1.384 . S
C724 C725 1.364 . S
C724 C727 1.450 . S
C725 C720 1.367 . S
C725 C724 1.364 . S
C725 H785 0.931 . S
C726 C722 1.535 . S
C726 H786 0.959 . S
C726 H787 0.961 . S
C726 H788 0.959 . S
C727 C724 1.450 . S
C727 H789 0.960 . S
C727 H790 0.960 . S
C727 H791 0.960 . S
C728 C729 1.309 . S
C728 C733 1.304 . S
C728 O766 1.435 . S
C729 C728 1.309 . S
C729 C730 1.476 . S
C729 H793 0.930 . S
C730 C729 1.476 . S
C730 C731 1.400 . S
C730 C734 1.567 . S
C731 C730 1.400 . S
C731 C732 1.373 . S
C731 C753 1.432 . S
C732 C731 1.373 . S
C732 C733 1.339 . S
C732 C735 1.530 . S
C733 C728 1.304 . S
C733 C732 1.339 . S
C733 H794 0.930 . S
C734 C730 1.567 . S
C734 H795 0.961 . S
C734 H796 0.960 . S
C734 H797 0.958 . S
C735 C732 1.530 . S
C735 H798 0.961 . S
C735 H799 0.960 . S
C735 H800 0.960 . S
C736 C737 1.530 . S
C736 H802 0.961 . S
C736 H803 0.961 . S
C736 H804 0.959 . S
C737 C736 1.530 . S
C737 O765 1.412 . S
C737 H801 0.980 . S
C738 C739 1.288 . S
C738 C743 1.377 . S
C738 O765 1.393 . S
C739 C738 1.288 . S
C739 C740 1.369 . S
C739 H805 0.932 . S
C740 C739 1.369 . S
C740 C741 1.398 . S
C740 C744 1.527 . S
C741 C740 1.398 . S
C741 C742 1.380 . S
C741 C755 1.497 . S
C742 C741 1.380 . S
C742 C743 1.383 . S
C742 C745 1.603 . S
C743 C738 1.377 . S
C743 C742 1.383 . S
C743 H806 0.929 . S
C744 C740 1.527 . S
C744 H807 0.961 . S
C744 H808 0.959 . S
C744 H809 0.959 . S
C745 C742 1.603 . S
C745 H810 0.960 . S
C745 H811 0.962 . S
C745 H812 0.961 . S
C746 C713 1.587 . S
C746 C747 1.360 . S
C746 C759 1.412 . S
C747 C746 1.360 . S
C747 C748 1.365 . S
C747 H813 0.929 . S
C748 C723 1.553 . S
C748 C747 1.365 . S
C748 C749 1.404 . S
C749 C748 1.404 . S
C749 C750 1.395 . S
C749 C760 1.451 . S
C750 C749 1.395 . S
C750 C751 1.322 . S
C750 H814 0.930 . S
C751 C750 1.322 . S
C751 C752 1.459 . S
C751 H815 0.929 . S
C752 C751 1.459 . S
C752 C753 1.445 . S
C752 C761 1.395 . S
C753 C731 1.432 . S
C753 C752 1.445 . S
C753 C754 1.370 . S
C754 C753 1.370 . S
C754 C755 1.438 . S
C754 H816 0.930 . S
C755 C741 1.497 . S
C755 C754 1.438 . S
C755 C756 1.360 . S
C756 C755 1.360 . S
C756 C757 1.401 . S
C756 C761 1.446 . S
C757 C756 1.401 . S
C757 C758 1.347 . S
C757 H817 0.929 . S
C758 C757 1.347 . S
C758 C759 1.455 . S
C758 H818 0.930 . S
C759 C746 1.412 . S
C759 C758 1.455 . S
C759 C760 1.331 . S
C760 C749 1.451 . S
C760 C759 1.331 . S
C760 C761 1.497 . S
C761 C752 1.395 . S
C761 C756 1.446 . S
C761 C760 1.497 . S
C762 C763 1.582 . S
C762 H819 0.962 . S
C762 H820 0.959 . S
C762 H821 0.958 . S
C763 C762 1.582 . S
C763 O766 1.458 . S
C763 H792 0.980 . S
O764 C709 1.426 . S
O764 C710 1.334 . S
O765 C737 1.412 . S
O765 C738 1.393 . S
O766 C728 1.435 . S
O766 C763 1.458 . S
O767 C719 1.468 . S
O767 C720 1.408 . S
H768 C709 0.980 . S
H769 C708 0.959 . S
H770 C708 0.959 . S
H771 C708 0.960 . S
H772 C711 0.929 . S
H773 C715 0.929 . S
H774 C716 0.959 . S
H775 C716 0.961 . S
H776 C716 0.961 . S
H777 C717 0.960 . S
H778 C717 0.960 . S
H779 C717 0.961 . S
H780 C719 0.980 . S
H781 C718 0.961 . S
H782 C718 0.960 . S
H783 C718 0.959 . S
H784 C721 0.930 . S
H785 C725 0.931 . S
H786 C726 0.959 . S
H787 C726 0.961 . S
H788 C726 0.959 . S
H789 C727 0.960 . S
H790 C727 0.960 . S
H791 C727 0.960 . S
H792 C763 0.980 . S
H793 C729 0.930 . S
H794 C733 0.930 . S
H795 C734 0.961 . S
H796 C734 0.960 . S
H797 C734 0.958 . S
H798 C735 0.961 . S
H799 C735 0.960 . S
H800 C735 0.960 . S
H801 C737 0.980 . S
H802 C736 0.961 . S
H803 C736 0.961 . S
H804 C736 0.959 . S
H805 C739 0.932 . S
H806 C743 0.929 . S
H807 C744 0.961 . S
H808 C744 0.959 . S
H809 C744 0.959 . S
H810 C745 0.960 . S
H811 C745 0.962 . S
H812 C745 0.961 . S
H813 C747 0.929 . S
H814 C750 0.930 . S
H815 C751 0.929 . S
H816 C754 0.930 . S
H817 C757 0.929 . S
H818 C758 0.930 . S
H819 C762 0.962 . S
H820 C762 0.959 . S
H821 C762 0.958 . S
C822 C823 1.560 . S
C822 H883 0.959 . S
C822 H884 0.959 . S
C822 H885 0.960 . S
C823 C822 1.560 . S
C823 O878 1.426 . S
C823 H882 0.980 . S
C824 C825 1.407 . S
C824 C829 1.418 . S
C824 O878 1.334 . S
C825 C824 1.407 . S
C825 C826 1.360 . S
C825 H886 0.929 . S
C826 C825 1.360 . S
C826 C827 1.401 . S
C826 C830 1.527 . S
C827 C826 1.401 . S
C827 C828 1.405 . S
C827 C860 1.587 . S
C828 C827 1.405 . S
C828 C829 1.332 . S
C828 C831 1.496 . S
C829 C824 1.418 . S
C829 C828 1.332 . S
C829 H887 0.929 . S
C830 C826 1.527 . S
C830 H888 0.959 . S
C830 H889 0.961 . S
C830 H890 0.961 . S
C831 C828 1.496 . S
C831 H891 0.960 . S
C831 H892 0.960 . S
C831 H893 0.961 . S
C832 C833 1.517 . S
C832 H895 0.961 . S
C832 H896 0.960 . S
C832 H897 0.959 . S
C833 C832 1.517 . S
C833 O881 1.468 . S
C833 H894 0.980 . S
C834 C835 1.349 . S
C834 C839 1.367 . S
C834 O881 1.408 . S
C835 C834 1.349 . S
C835 C836 1.407 . S
C835 H898 0.930 . S
C836 C835 1.407 . S
C836 C837 1.449 . S
C836 C840 1.535 . S
C837 C836 1.449 . S
C837 C838 1.384 . S
C837 C862 1.553 . S
C838 C837 1.384 . S
C838 C839 1.364 . S
C838 C841 1.450 . S
C839 C834 1.367 . S
C839 C838 1.364 . S
C839 H899 0.931 . S
C840 C836 1.535 . S
C840 H900 0.959 . S
C840 H901 0.961 . S
C840 H902 0.959 . S
C841 C838 1.450 . S
C841 H903 0.960 . S
C841 H904 0.960 . S
C841 H905 0.960 . S
C842 C843 1.309 . S
C842 C847 1.304 . S
C842 O880 1.435 . S
C843 C842 1.309 . S
C843 C844 1.476 . S
C843 H907 0.930 . S
C844 C843 1.476 . S
C844 C845 1.400 . S
C844 C848 1.567 . S
C845 C844 1.400 . S
C845 C846 1.373 . S
C845 C867 1.432 . S
C846 C845 1.373 . S
C846 C847 1.339 . S
C846 C849 1.530 . S
C847 C842 1.304 . S
C847 C846 1.339 . S
C847 H908 0.930 . S
C848 C844 1.567 . S
C848 H909 0.961 . S
C848 H910 0.960 . S
C848 H911 0.958 . S
C849 C846 1.530 . S
C849 H912 0.961 . S
C849 H913 0.960 . S
C849 H914 0.960 . S
C850 C851 1.530 . S
C850 H916 0.961 . S
C850 H917 0.961 . S
C850 H918 0.959 . S
C851 C850 1.530 . S
C851 O879 1.412 . S
C851 H915 0.980 . S
C852 C853 1.288 . S
C852 C857 1.377 . S
C852 O879 1.393 . S
C853 C852 1.288 . S
C853 C854 1.369 . S
C853 H919 0.932 . S
C854 C853 1.369 . S
C854 C855 1.398 . S
C854 C858 1.527 . S
C855 C854 1.398 . S
C855 C856 1.380 . S
C855 C869 1.497 . S
C856 C855 1.380 . S
C856 C857 1.383 . S
C856 C859 1.603 . S
C857 C852 1.377 . S
C857 C856 1.383 . S
C857 H920 0.929 . S
C858 C854 1.527 . S
C858 H921 0.961 . S
C858 H922 0.959 . S
C858 H923 0.959 . S
C859 C856 1.603 . S
C859 H924 0.960 . S
C859 H925 0.962 . S
C859 H926 0.961 . S
C860 C827 1.587 . S
C860 C861 1.360 . S
C860 C873 1.412 . S
C861 C860 1.360 . S
C861 C862 1.365 . S
C861 H927 0.929 . S
C862 C837 1.553 . S
C862 C861 1.365 . S
C862 C863 1.404 . S
C863 C862 1.404 . S
C863 C864 1.395 . S
C863 C874 1.451 . S
C864 C863 1.395 . S
C864 C865 1.322 . S
C864 H928 0.930 . S
C865 C864 1.322 . S
C865 C866 1.459 . S
C865 H929 0.929 . S
C866 C865 1.459 . S
C866 C867 1.445 . S
C866 C875 1.395 . S
C867 C845 1.432 . S
C867 C866 1.445 . S
C867 C868 1.370 . S
C868 C867 1.370 . S
C868 C869 1.438 . S
C868 H930 0.930 . S
C869 C855 1.497 . S
C869 C868 1.438 . S
C869 C870 1.360 . S
C870 C869 1.360 . S
C870 C871 1.401 . S
C870 C875 1.446 . S
C871 C870 1.401 . S
C871 C872 1.347 . S
C871 H931 0.929 . S
C872 C871 1.347 . S
C872 C873 1.455 . S
C872 H932 0.930 . S
C873 C860 1.412 . S
C873 C872 1.455 . S
C873 C874 1.331 . S
C874 C863 1.451 . S
C874 C873 1.331 . S
C874 C875 1.497 . S
C875 C866 1.395 . S
C875 C870 1.446 . S
C875 C874 1.497 . S
C876 C877 1.582 . S
C876 H933 0.962 . S
C876 H934 0.959 . S
C876 H935 0.958 . S
C877 C876 1.582 . S
C877 O880 1.458 . S
C877 H906 0.980 . S
O878 C823 1.426 . S
O878 C824 1.334 . S
O879 C851 1.412 . S
O879 C852 1.393 . S
O880 C842 1.435 . S
O880 C877 1.458 . S
O881 C833 1.468 . S
O881 C834 1.408 . S
H882 C823 0.980 . S
H883 C822 0.959 . S
H884 C822 0.959 . S
H885 C822 0.960 . S
H886 C825 0.929 . S
H887 C829 0.929 . S
H888 C830 0.959 . S
H889 C830 0.961 . S
H890 C830 0.961 . S
H891 C831 0.960 . S
H892 C831 0.960 . S
H893 C831 0.961 . S
H894 C833 0.980 . S
H895 C832 0.961 . S
H896 C832 0.960 . S
H897 C832 0.959 . S
H898 C835 0.930 . S
H899 C839 0.931 . S
H900 C840 0.959 . S
H901 C840 0.961 . S
H902 C840 0.959 . S
H903 C841 0.960 . S
H904 C841 0.960 . S
H905 C841 0.960 . S
H906 C877 0.980 . S
H907 C843 0.930 . S
H908 C847 0.930 . S
H909 C848 0.961 . S
H910 C848 0.960 . S
H911 C848 0.958 . S
H912 C849 0.961 . S
H913 C849 0.960 . S
H914 C849 0.960 . S
H915 C851 0.980 . S
H916 C850 0.961 . S
H917 C850 0.961 . S
H918 C850 0.959 . S
H919 C853 0.932 . S
H920 C857 0.929 . S
H921 C858 0.961 . S
H922 C858 0.959 . S
H923 C858 0.959 . S
H924 C859 0.960 . S
H925 C859 0.962 . S
H926 C859 0.961 . S
H927 C861 0.929 . S
H928 C864 0.930 . S
H929 C865 0.929 . S
H930 C868 0.930 . S
H931 C871 0.929 . S
H932 C872 0.930 . S
H933 C876 0.962 . S
H934 C876 0.959 . S
H935 C876 0.958 . S
C936 C937 1.560 . S
C936 H997 0.959 . S
C936 H998 0.959 . S
C936 H999 0.960 . S
C937 C936 1.560 . S
C937 O992 1.426 . S
C937 H996 0.980 . S
C938 C939 1.407 . S
C938 C943 1.418 . S
C938 O992 1.334 . S
C939 C938 1.407 . S
C939 C940 1.360 . S
C939 H1000 0.929 . S
C940 C939 1.360 . S
C940 C941 1.401 . S
C940 C944 1.527 . S
C941 C940 1.401 . S
C941 C942 1.405 . S
C941 C974 1.587 . S
C942 C941 1.405 . S
C942 C943 1.332 . S
C942 C945 1.496 . S
C943 C938 1.418 . S
C943 C942 1.332 . S
C943 H1001 0.929 . S
C944 C940 1.527 . S
C944 H1002 0.959 . S
C944 H1003 0.961 . S
C944 H1004 0.961 . S
C945 C942 1.496 . S
C945 H1005 0.960 . S
C945 H1006 0.960 . S
C945 H1007 0.961 . S
C946 C947 1.517 . S
C946 H1009 0.961 . S
C946 H1010 0.960 . S
C946 H1011 0.959 . S
C947 C946 1.517 . S
C947 O995 1.468 . S
C947 H1008 0.980 . S
C948 C949 1.349 . S
C948 C953 1.367 . S
C948 O995 1.408 . S
C949 C948 1.349 . S
C949 C950 1.407 . S
C949 H1012 0.930 . S
C950 C949 1.407 . S
C950 C951 1.449 . S
C950 C954 1.535 . S
C951 C950 1.449 . S
C951 C952 1.384 . S
C951 C976 1.553 . S
C952 C951 1.384 . S
C952 C953 1.364 . S
C952 C955 1.450 . S
C953 C948 1.367 . S
C953 C952 1.364 . S
C953 H1013 0.931 . S
C954 C950 1.535 . S
C954 H1014 0.959 . S
C954 H1015 0.961 . S
C954 H1016 0.959 . S
C955 C952 1.450 . S
C955 H1017 0.960 . S
C955 H1018 0.960 . S
C955 H1019 0.960 . S
C956 C957 1.309 . S
C956 C961 1.304 . S
C956 O994 1.435 . S
C957 C956 1.309 . S
C957 C958 1.476 . S
C957 H1021 0.930 . S
C958 C957 1.476 . S
C958 C959 1.400 . S
C958 C962 1.567 . S
C959 C958 1.400 . S
C959 C960 1.373 . S
C959 C981 1.432 . S
C960 C959 1.373 . S
C960 C961 1.339 . S
C960 C963 1.530 . S
C961 C956 1.304 . S
C961 C960 1.339 . S
C961 H1022 0.930 . S
C962 C958 1.567 . S
C962 H1023 0.961 . S
C962 H1024 0.960 . S
C962 H1025 0.958 . S
C963 C960 1.530 . S
C963 H1026 0.961 . S
C963 H1027 0.960 . S
C963 H1028 0.960 . S
C964 C965 1.530 . S
C964 H1030 0.961 . S
C964 H1031 0.961 . S
C964 H1032 0.959 . S
C965 C964 1.530 . S
C965 O993 1.412 . S
C965 H1029 0.980 . S
C966 C967 1.288 . S
C966 C971 1.377 . S
C966 O993 1.393 . S
C967 C966 1.288 . S
C967 C968 1.369 . S
C967 H1033 0.932 . S
C968 C967 1.369 . S
C968 C969 1.398 . S
C968 C972 1.527 . S
C969 C968 1.398 . S
C969 C970 1.380 . S
C969 C983 1.497 . S
C970 C969 1.380 . S
C970 C971 1.383 . S
C970 C973 1.603 . S
C971 C966 1.377 . S
C971 C970 1.383 . S
C971 H1034 0.929 . S
C972 C968 1.527 . S
C972 H1035 0.961 . S
C972 H1036 0.959 . S
C972 H1037 0.959 . S
C973 C970 1.603 . S
C973 H1038 0.960 . S
C973 H1039 0.962 . S
C973 H1040 0.961 . S
C974 C941 1.587 . S
C974 C975 1.360 . S
C974 C987 1.412 . S
C975 C974 1.360 . S
C975 C976 1.365 . S
C975 H1041 0.929 . S
C976 C951 1.553 . S
C976 C975 1.365 . S
C976 C977 1.404 . S
C977 C976 1.404 . S
C977 C978 1.395 . S
C977 C988 1.451 . S
C978 C977 1.395 . S
C978 C979 1.322 . S
C978 H1042 0.930 . S
C979 C978 1.322 . S
C979 C980 1.459 . S
C979 H1043 0.929 . S
C980 C979 1.459 . S
C980 C981 1.445 . S
C980 C989 1.395 . S
C981 C959 1.432 . S
C981 C980 1.445 . S
C981 C982 1.370 . S
C982 C981 1.370 . S
C982 C983 1.438 . S
C982 H1044 0.930 . S
C983 C969 1.497 . S
C983 C982 1.438 . S
C983 C984 1.360 . S
C984 C983 1.360 . S
C984 C985 1.401 . S
C984 C989 1.446 . S
C985 C984 1.401 . S
C985 C986 1.347 . S
C985 H1045 0.929 . S
C986 C985 1.347 . S
C986 C987 1.455 . S
C986 H1046 0.930 . S
C987 C974 1.412 . S
C987 C986 1.455 . S
C987 C988 1.331 . S
C988 C977 1.451 . S
C988 C987 1.331 . S
C988 C989 1.497 . S
C989 C980 1.395 . S
C989 C984 1.446 . S
C989 C988 1.497 . S
C990 C991 1.582 . S
C990 H1047 0.962 . S
C990 H1048 0.959 . S
C990 H1049 0.958 . S
C991 C990 1.582 . S
C991 O994 1.458 . S
C991 H1020 0.980 . S
O992 C937 1.426 . S
O992 C938 1.334 . S
O993 C965 1.412 . S
O993 C966 1.393 . S
O994 C956 1.435 . S
O994 C991 1.458 . S
O995 C947 1.468 . S
O995 C948 1.408 . S
H996 C937 0.980 . S
H997 C936 0.959 . S
H998 C936 0.959 . S
H999 C936 0.960 . S
H1000 C939 0.929 . S
H1001 C943 0.929 . S
H1002 C944 0.959 . S
H1003 C944 0.961 . S
H1004 C944 0.961 . S
H1005 C945 0.960 . S
H1006 C945 0.960 . S
H1007 C945 0.961 . S
H1008 C947 0.980 . S
H1009 C946 0.961 . S
H1010 C946 0.960 . S
H1011 C946 0.959 . S
H1012 C949 0.930 . S
H1013 C953 0.931 . S
H1014 C954 0.959 . S
H1015 C954 0.961 . S
H1016 C954 0.959 . S
H1017 C955 0.960 . S
H1018 C955 0.960 . S
H1019 C955 0.960 . S
H1020 C991 0.980 . S
H1021 C957 0.930 . S
H1022 C961 0.930 . S
H1023 C962 0.961 . S
H1024 C962 0.960 . S
H1025 C962 0.958 . S
H1026 C963 0.961 . S
H1027 C963 0.960 . S
H1028 C963 0.960 . S
H1029 C965 0.980 . S
H1030 C964 0.961 . S
H1031 C964 0.961 . S
H1032 C964 0.959 . S
H1033 C967 0.932 . S
H1034 C971 0.929 . S
H1035 C972 0.961 . S
H1036 C972 0.959 . S
H1037 C972 0.959 . S
H1038 C973 0.960 . S
H1039 C973 0.962 . S
H1040 C973 0.961 . S
H1041 C975 0.929 . S
H1042 C978 0.930 . S
H1043 C979 0.929 . S
H1044 C982 0.930 . S
H1045 C985 0.929 . S
H1046 C986 0.930 . S
H1047 C990 0.962 . S
H1048 C990 0.959 . S
H1049 C990 0.958 . S
C1050 C1051 1.560 . S
C1050 H1111 0.959 . S
C1050 H1112 0.959 . S
C1050 H1113 0.960 . S
C1051 C1050 1.560 . S
C1051 O1106 1.426 . S
C1051 H1110 0.980 . S
C1052 C1053 1.407 . S
C1052 C1057 1.418 . S
C1052 O1106 1.334 . S
C1053 C1052 1.407 . S
C1053 C1054 1.360 . S
C1053 H1114 0.929 . S
C1054 C1053 1.360 . S
C1054 C1055 1.401 . S
C1054 C1058 1.527 . S
C1055 C1054 1.401 . S
C1055 C1056 1.405 . S
C1055 C1088 1.587 . S
C1056 C1055 1.405 . S
C1056 C1057 1.332 . S
C1056 C1059 1.496 . S
C1057 C1052 1.418 . S
C1057 C1056 1.332 . S
C1057 H1115 0.929 . S
C1058 C1054 1.527 . S
C1058 H1116 0.959 . S
C1058 H1117 0.961 . S
C1058 H1118 0.961 . S
C1059 C1056 1.496 . S
C1059 H1119 0.960 . S
C1059 H1120 0.960 . S
C1059 H1121 0.961 . S
C1060 C1061 1.517 . S
C1060 H1123 0.961 . S
C1060 H1124 0.960 . S
C1060 H1125 0.959 . S
C1061 C1060 1.517 . S
C1061 O1109 1.468 . S
C1061 H1122 0.980 . S
C1062 C1063 1.349 . S
C1062 C1067 1.367 . S
C1062 O1109 1.408 . S
C1063 C1062 1.349 . S
C1063 C1064 1.407 . S
C1063 H1126 0.930 . S
C1064 C1063 1.407 . S
C1064 C1065 1.449 . S
C1064 C1068 1.535 . S
C1065 C1064 1.449 . S
C1065 C1066 1.384 . S
C1065 C1090 1.553 . S
C1066 C1065 1.384 . S
C1066 C1067 1.364 . S
C1066 C1069 1.450 . S
C1067 C1062 1.367 . S
C1067 C1066 1.364 . S
C1067 H1127 0.931 . S
C1068 C1064 1.535 . S
C1068 H1128 0.959 . S
C1068 H1129 0.961 . S
C1068 H1130 0.959 . S
C1069 C1066 1.450 . S
C1069 H1131 0.960 . S
C1069 H1132 0.960 . S
C1069 H1133 0.960 . S
C1070 C1071 1.309 . S
C1070 C1075 1.304 . S
C1070 O1108 1.435 . S
C1071 C1070 1.309 . S
C1071 C1072 1.476 . S
C1071 H1135 0.930 . S
C1072 C1071 1.476 . S
C1072 C1073 1.400 . S
C1072 C1076 1.567 . S
C1073 C1072 1.400 . S
C1073 C1074 1.373 . S
C1073 C1095 1.432 . S
C1074 C1073 1.373 . S
C1074 C1075 1.339 . S
C1074 C1077 1.530 . S
C1075 C1070 1.304 . S
C1075 C1074 1.339 . S
C1075 H1136 0.930 . S
C1076 C1072 1.567 . S
C1076 H1137 0.961 . S
C1076 H1138 0.960 . S
C1076 H1139 0.958 . S
C1077 C1074 1.530 . S
C1077 H1140 0.961 . S
C1077 H1141 0.960 . S
C1077 H1142 0.960 . S
C1078 C1079 1.530 . S
C1078 H1144 0.961 . S
C1078 H1145 0.961 . S
C1078 H1146 0.959 . S
C1079 C1078 1.530 . S
C1079 O1107 1.412 . S
C1079 H1143 0.980 . S
C1080 C1081 1.288 . S
C1080 C1085 1.377 . S
C1080 O1107 1.393 . S
C1081 C1080 1.288 . S
C1081 C1082 1.369 . S
C1081 H1147 0.932 . S
C1082 C1081 1.369 . S
C1082 C1083 1.398 . S
C1082 C1086 1.527 . S
C1083 C1082 1.398 . S
C1083 C1084 1.380 . S
C1083 C1097 1.497 . S
C1084 C1083 1.380 . S
C1084 C1085 1.383 . S
C1084 C1087 1.603 . S
C1085 C1080 1.377 . S
C1085 C1084 1.383 . S
C1085 H1148 0.929 . S
C1086 C1082 1.527 . S
C1086 H1149 0.961 . S
C1086 H1150 0.959 . S
C1086 H1151 0.959 . S
C1087 C1084 1.603 . S
C1087 H1152 0.960 . S
C1087 H1153 0.962 . S
C1087 H1154 0.961 . S
C1088 C1055 1.587 . S
C1088 C1089 1.360 . S
C1088 C1101 1.412 . S
C1089 C1088 1.360 . S
C1089 C1090 1.365 . S
C1089 H1155 0.929 . S
C1090 C1065 1.553 . S
C1090 C1089 1.365 . S
C1090 C1091 1.404 . S
C1091 C1090 1.404 . S
C1091 C1092 1.395 . S
C1091 C1102 1.451 . S
C1092 C1091 1.395 . S
C1092 C1093 1.322 . S
C1092 H1156 0.930 . S
C1093 C1092 1.322 . S
C1093 C1094 1.459 . S
C1093 H1157 0.929 . S
C1094 C1093 1.459 . S
C1094 C1095 1.445 . S
C1094 C1103 1.395 . S
C1095 C1073 1.432 . S
C1095 C1094 1.445 . S
C1095 C1096 1.370 . S
C1096 C1095 1.370 . S
C1096 C1097 1.438 . S
C1096 H1158 0.930 . S
C1097 C1083 1.497 . S
C1097 C1096 1.438 . S
C1097 C1098 1.360 . S
C1098 C1097 1.360 . S
C1098 C1099 1.401 . S
C1098 C1103 1.446 . S
C1099 C1098 1.401 . S
C1099 C1100 1.347 . S
C1099 H1159 0.929 . S
C1100 C1099 1.347 . S
C1100 C1101 1.455 . S
C1100 H1160 0.930 . S
C1101 C1088 1.412 . S
C1101 C1100 1.455 . S
C1101 C1102 1.331 . S
C1102 C1091 1.451 . S
C1102 C1101 1.331 . S
C1102 C1103 1.497 . S
C1103 C1094 1.395 . S
C1103 C1098 1.446 . S
C1103 C1102 1.497 . S
C1104 C1105 1.582 . S
C1104 H1161 0.962 . S
C1104 H1162 0.959 . S
C1104 H1163 0.958 . S
C1105 C1104 1.582 . S
C1105 O1108 1.458 . S
C1105 H1134 0.980 . S
O1106 C1051 1.426 . S
O1106 C1052 1.334 . S
O1107 C1079 1.412 . S
O1107 C1080 1.393 . S
O1108 C1070 1.435 . S
O1108 C1105 1.458 . S
O1109 C1061 1.468 . S
O1109 C1062 1.408 . S
H1110 C1051 0.980 . S
H1111 C1050 0.959 . S
H1112 C1050 0.959 . S
H1113 C1050 0.960 . S
H1114 C1053 0.929 . S
H1115 C1057 0.929 . S
H1116 C1058 0.959 . S
H1117 C1058 0.961 . S
H1118 C1058 0.961 . S
H1119 C1059 0.960 . S
H1120 C1059 0.960 . S
H1121 C1059 0.961 . S
H1122 C1061 0.980 . S
H1123 C1060 0.961 . S
H1124 C1060 0.960 . S
H1125 C1060 0.959 . S
H1126 C1063 0.930 . S
H1127 C1067 0.931 . S
H1128 C1068 0.959 . S
H1129 C1068 0.961 . S
H1130 C1068 0.959 . S
H1131 C1069 0.960 . S
H1132 C1069 0.960 . S
H1133 C1069 0.960 . S
H1134 C1105 0.980 . S
H1135 C1071 0.930 . S
H1136 C1075 0.930 . S
H1137 C1076 0.961 . S
H1138 C1076 0.960 . S
H1139 C1076 0.958 . S
H1140 C1077 0.961 . S
H1141 C1077 0.960 . S
H1142 C1077 0.960 . S
H1143 C1079 0.980 . S
H1144 C1078 0.961 . S
H1145 C1078 0.961 . S
H1146 C1078 0.959 . S
H1147 C1081 0.932 . S
H1148 C1085 0.929 . S
H1149 C1086 0.961 . S
H1150 C1086 0.959 . S
H1151 C1086 0.959 . S
H1152 C1087 0.960 . S
H1153 C1087 0.962 . S
H1154 C1087 0.961 . S
H1155 C1089 0.929 . S
H1156 C1092 0.930 . S
H1157 C1093 0.929 . S
H1158 C1096 0.930 . S
H1159 C1099 0.929 . S
H1160 C1100 0.930 . S
H1161 C1104 0.962 . S
H1162 C1104 0.959 . S
H1163 C1104 0.958 . S
C1164 C1165 1.560 . S
C1164 H1225 0.959 . S
C1164 H1226 0.959 . S
C1164 H1227 0.960 . S
C1165 C1164 1.560 . S
C1165 O1220 1.426 . S
C1165 H1224 0.980 . S
C1166 C1167 1.407 . S
C1166 C1171 1.418 . S
C1166 O1220 1.334 . S
C1167 C1166 1.407 . S
C1167 C1168 1.360 . S
C1167 H1228 0.929 . S
C1168 C1167 1.360 . S
C1168 C1169 1.401 . S
C1168 C1172 1.527 . S
C1169 C1168 1.401 . S
C1169 C1170 1.405 . S
C1169 C1202 1.587 . S
C1170 C1169 1.405 . S
C1170 C1171 1.332 . S
C1170 C1173 1.496 . S
C1171 C1166 1.418 . S
C1171 C1170 1.332 . S
C1171 H1229 0.929 . S
C1172 C1168 1.527 . S
C1172 H1230 0.959 . S
C1172 H1231 0.961 . S
C1172 H1232 0.961 . S
C1173 C1170 1.496 . S
C1173 H1233 0.960 . S
C1173 H1234 0.960 . S
C1173 H1235 0.961 . S
C1174 C1175 1.517 . S
C1174 H1237 0.961 . S
C1174 H1238 0.960 . S
C1174 H1239 0.959 . S
C1175 C1174 1.517 . S
C1175 O1223 1.468 . S
C1175 H1236 0.980 . S
C1176 C1177 1.349 . S
C1176 C1181 1.367 . S
C1176 O1223 1.408 . S
C1177 C1176 1.349 . S
C1177 C1178 1.407 . S
C1177 H1240 0.930 . S
C1178 C1177 1.407 . S
C1178 C1179 1.449 . S
C1178 C1182 1.535 . S
C1179 C1178 1.449 . S
C1179 C1180 1.384 . S
C1179 C1204 1.553 . S
C1180 C1179 1.384 . S
C1180 C1181 1.364 . S
C1180 C1183 1.450 . S
C1181 C1176 1.367 . S
C1181 C1180 1.364 . S
C1181 H1241 0.931 . S
C1182 C1178 1.535 . S
C1182 H1242 0.959 . S
C1182 H1243 0.961 . S
C1182 H1244 0.959 . S
C1183 C1180 1.450 . S
C1183 H1245 0.960 . S
C1183 H1246 0.960 . S
C1183 H1247 0.960 . S
C1184 C1185 1.309 . S
C1184 C1189 1.304 . S
C1184 O1222 1.435 . S
C1185 C1184 1.309 . S
C1185 C1186 1.476 . S
C1185 H1249 0.930 . S
C1186 C1185 1.476 . S
C1186 C1187 1.400 . S
C1186 C1190 1.567 . S
C1187 C1186 1.400 . S
C1187 C1188 1.373 . S
C1187 C1209 1.432 . S
C1188 C1187 1.373 . S
C1188 C1189 1.339 . S
C1188 C1191 1.530 . S
C1189 C1184 1.304 . S
C1189 C1188 1.339 . S
C1189 H1250 0.930 . S
C1190 C1186 1.567 . S
C1190 H1251 0.961 . S
C1190 H1252 0.960 . S
C1190 H1253 0.958 . S
C1191 C1188 1.530 . S
C1191 H1254 0.961 . S
C1191 H1255 0.960 . S
C1191 H1256 0.960 . S
C1192 C1193 1.530 . S
C1192 H1258 0.961 . S
C1192 H1259 0.961 . S
C1192 H1260 0.959 . S
C1193 C1192 1.530 . S
C1193 O1221 1.412 . S
C1193 H1257 0.980 . S
C1194 C1195 1.288 . S
C1194 C1199 1.377 . S
C1194 O1221 1.393 . S
C1195 C1194 1.288 . S
C1195 C1196 1.369 . S
C1195 H1261 0.932 . S
C1196 C1195 1.369 . S
C1196 C1197 1.398 . S
C1196 C1200 1.527 . S
C1197 C1196 1.398 . S
C1197 C1198 1.380 . S
C1197 C1211 1.497 . S
C1198 C1197 1.380 . S
C1198 C1199 1.383 . S
C1198 C1201 1.603 . S
C1199 C1194 1.377 . S
C1199 C1198 1.383 . S
C1199 H1262 0.929 . S
C1200 C1196 1.527 . S
C1200 H1263 0.961 . S
C1200 H1264 0.959 . S
C1200 H1265 0.959 . S
C1201 C1198 1.603 . S
C1201 H1266 0.960 . S
C1201 H1267 0.962 . S
C1201 H1268 0.961 . S
C1202 C1169 1.587 . S
C1202 C1203 1.360 . S
C1202 C1215 1.412 . S
C1203 C1202 1.360 . S
C1203 C1204 1.365 . S
C1203 H1269 0.929 . S
C1204 C1179 1.553 . S
C1204 C1203 1.365 . S
C1204 C1205 1.404 . S
C1205 C1204 1.404 . S
C1205 C1206 1.395 . S
C1205 C1216 1.451 . S
C1206 C1205 1.395 . S
C1206 C1207 1.322 . S
C1206 H1270 0.930 . S
C1207 C1206 1.322 . S
C1207 C1208 1.459 . S
C1207 H1271 0.929 . S
C1208 C1207 1.459 . S
C1208 C1209 1.445 . S
C1208 C1217 1.395 . S
C1209 C1187 1.432 . S
C1209 C1208 1.445 . S
C1209 C1210 1.370 . S
C1210 C1209 1.370 . S
C1210 C1211 1.438 . S
C1210 H1272 0.930 . S
C1211 C1197 1.497 . S
C1211 C1210 1.438 . S
C1211 C1212 1.360 . S
C1212 C1211 1.360 . S
C1212 C1213 1.401 . S
C1212 C1217 1.446 . S
C1213 C1212 1.401 . S
C1213 C1214 1.347 . S
C1213 H1273 0.929 . S
C1214 C1213 1.347 . S
C1214 C1215 1.455 . S
C1214 H1274 0.930 . S
C1215 C1202 1.412 . S
C1215 C1214 1.455 . S
C1215 C1216 1.331 . S
C1216 C1205 1.451 . S
C1216 C1215 1.331 . S
C1216 C1217 1.497 . S
C1217 C1208 1.395 . S
C1217 C1212 1.446 . S
C1217 C1216 1.497 . S
C1218 C1219 1.582 . S
C1218 H1275 0.962 . S
C1218 H1276 0.959 . S
C1218 H1277 0.958 . S
C1219 C1218 1.582 . S
C1219 O1222 1.458 . S
C1219 H1248 0.980 . S
O1220 C1165 1.426 . S
O1220 C1166 1.334 . S
O1221 C1193 1.412 . S
O1221 C1194 1.393 . S
O1222 C1184 1.435 . S
O1222 C1219 1.458 . S
O1223 C1175 1.468 . S
O1223 C1176 1.408 . S
H1224 C1165 0.980 . S
H1225 C1164 0.959 . S
H1226 C1164 0.959 . S
H1227 C1164 0.960 . S
H1228 C1167 0.929 . S
H1229 C1171 0.929 . S
H1230 C1172 0.959 . S
H1231 C1172 0.961 . S
H1232 C1172 0.961 . S
H1233 C1173 0.960 . S
H1234 C1173 0.960 . S
H1235 C1173 0.961 . S
H1236 C1175 0.980 . S
H1237 C1174 0.961 . S
H1238 C1174 0.960 . S
H1239 C1174 0.959 . S
H1240 C1177 0.930 . S
H1241 C1181 0.931 . S
H1242 C1182 0.959 . S
H1243 C1182 0.961 . S
H1244 C1182 0.959 . S
H1245 C1183 0.960 . S
H1246 C1183 0.960 . S
H1247 C1183 0.960 . S
H1248 C1219 0.980 . S
H1249 C1185 0.930 . S
H1250 C1189 0.930 . S
H1251 C1190 0.961 . S
H1252 C1190 0.960 . S
H1253 C1190 0.958 . S
H1254 C1191 0.961 . S
H1255 C1191 0.960 . S
H1256 C1191 0.960 . S
H1257 C1193 0.980 . S
H1258 C1192 0.961 . S
H1259 C1192 0.961 . S
H1260 C1192 0.959 . S
H1261 C1195 0.932 . S
H1262 C1199 0.929 . S
H1263 C1200 0.961 . S
H1264 C1200 0.959 . S
H1265 C1200 0.959 . S
H1266 C1201 0.960 . S
H1267 C1201 0.962 . S
H1268 C1201 0.961 . S
H1269 C1203 0.929 . S
H1270 C1206 0.930 . S
H1271 C1207 0.929 . S
H1272 C1210 0.930 . S
H1273 C1213 0.929 . S
H1274 C1214 0.930 . S
H1275 C1218 0.962 . S
H1276 C1218 0.959 . S
H1277 C1218 0.958 . S
C1278 C1279 1.560 . S
C1278 H1339 0.959 . S
C1278 H1340 0.959 . S
C1278 H1341 0.960 . S
C1279 C1278 1.560 . S
C1279 O1334 1.426 . S
C1279 H1338 0.980 . S
C1280 C1281 1.407 1_455 S
C1280 C1285 1.418 . S
C1280 O1334 1.334 . S
C1281 C1280 1.407 1_655 S
C1281 C1282 1.360 . S
C1281 H1342 0.929 . S
C1282 C1281 1.360 . S
C1282 C1283 1.401 1_655 S
C1282 C1286 1.527 . S
C1283 C1282 1.401 1_455 S
C1283 C1284 1.405 . S
C1283 C1316 1.587 1_455 S
C1284 C1283 1.405 . S
C1284 C1285 1.332 . S
C1284 C1287 1.496 . S
C1285 C1280 1.418 . S
C1285 C1284 1.332 . S
C1285 H1343 0.929 . S
C1286 C1282 1.527 . S
C1286 H1344 0.959 . S
C1286 H1345 0.961 . S
C1286 H1346 0.961 . S
C1287 C1284 1.496 . S
C1287 H1347 0.960 . S
C1287 H1348 0.960 . S
C1287 H1349 0.961 . S
C1288 C1289 1.517 . S
C1288 H1351 1.004 . S
C1288 H1352 0.960 . S
C1288 H1353 0.959 . S
C1289 C1288 1.517 . S
C1289 O1337 1.468 . S
C1289 H1350 0.980 1_655 S
C1290 C1291 1.349 . S
C1290 C1295 1.367 . S
C1290 O1337 1.408 . S
C1291 C1290 1.349 . S
C1291 C1292 1.372 1_655 S
C1291 H1354 0.930 1_655 S
C1292 C1291 1.372 1_455 S
C1292 C1293 1.421 1_455 S
C1292 C1296 1.594 . S
C1293 C1292 1.421 1_655 S
C1293 C1294 1.384 . S
C1293 C1318 1.553 . S
C1294 C1293 1.384 . S
C1294 C1295 1.364 . S
C1294 C1297 1.450 . S
C1295 C1290 1.367 . S
C1295 C1294 1.364 . S
C1295 H1355 0.931 . S
C1296 C1292 1.594 . S
C1296 H1356 0.959 . S
C1296 H1357 0.961 . S
C1296 H1358 0.959 . S
C1297 C1294 1.450 . S
C1297 H1359 0.960 . S
C1297 H1360 0.960 . S
C1297 H1361 0.960 . S
C1298 C1299 1.309 . S
C1298 C1303 1.304 . S
C1298 O1336 1.435 . S
C1299 C1298 1.309 . S
C1299 C1300 1.478 1_655 S
C1299 H1363 0.930 1_655 S
C1300 C1299 1.478 1_455 S
C1300 C1301 1.401 1_455 S
C1300 C1304 1.563 . S
C1301 C1300 1.401 1_655 S
C1301 C1302 1.373 . S
C1301 C1323 1.432 . S
C1302 C1301 1.373 . S
C1302 C1303 1.339 . S
C1302 C1305 1.530 . S
C1303 C1298 1.304 . S
C1303 C1302 1.339 . S
C1303 H1364 0.930 . S
C1304 C1300 1.563 . S
C1304 H1365 0.961 . S
C1304 H1366 0.960 . S
C1304 H1367 0.958 . S
C1305 C1302 1.530 . S
C1305 H1368 0.961 . S
C1305 H1369 0.960 . S
C1305 H1370 0.960 . S
C1306 C1307 1.539 . S
C1306 H1372 0.961 . S
C1306 H1373 0.961 . S
C1306 H1374 0.959 . S
C1307 C1306 1.539 . S
C1307 O1335 1.413 . S
C1307 H1371 0.978 1_455 S
C1308 C1309 1.288 . S
C1308 C1313 1.377 1_455 S
C1308 O1335 1.393 . S
C1309 C1308 1.288 . S
C1309 C1310 1.369 . S
C1309 H1375 0.932 . S
C1310 C1309 1.369 . S
C1310 C1311 1.398 1_455 S
C1310 C1314 1.527 . S
C1311 C1310 1.398 1_655 S
C1311 C1312 1.380 . S
C1311 C1325 1.497 . S
C1312 C1311 1.380 . S
C1312 C1313 1.383 . S
C1312 C1315 1.603 . S
C1313 C1308 1.377 1_655 S
C1313 C1312 1.383 . S
C1313 H1376 0.929 . S
C1314 C1310 1.527 . S
C1314 H1377 0.961 . S
C1314 H1378 0.959 . S
C1314 H1379 0.959 . S
C1315 C1312 1.603 . S
C1315 H1380 0.960 . S
C1315 H1381 0.962 . S
C1315 H1382 0.961 . S
C1316 C1283 1.587 1_655 S
C1316 C1317 1.360 . S
C1316 C1329 1.412 . S
C1317 C1316 1.360 . S
C1317 C1318 1.365 . S
C1317 H1383 0.929 . S
C1318 C1293 1.553 . S
C1318 C1317 1.365 . S
C1318 C1319 1.404 . S
C1319 C1318 1.404 . S
C1319 C1320 1.395 . S
C1319 C1330 1.451 . S
C1320 C1319 1.395 . S
C1320 C1321 1.322 . S
C1320 H1384 0.930 . S
C1321 C1320 1.322 . S
C1321 C1322 1.459 . S
C1321 H1385 0.929 . S
C1322 C1321 1.459 . S
C1322 C1323 1.445 . S
C1322 C1331 1.395 . S
C1323 C1301 1.432 . S
C1323 C1322 1.445 . S
C1323 C1324 1.370 . S
C1324 C1323 1.370 . S
C1324 C1325 1.438 . S
C1324 H1386 0.930 . S
C1325 C1311 1.497 . S
C1325 C1324 1.438 . S
C1325 C1326 1.360 . S
C1326 C1325 1.360 . S
C1326 C1327 1.401 . S
C1326 C1331 1.446 . S
C1327 C1326 1.401 . S
C1327 C1328 1.347 . S
C1327 H1387 0.929 . S
C1328 C1327 1.347 . S
C1328 C1329 1.455 . S
C1328 H1388 0.930 . S
C1329 C1316 1.412 . S
C1329 C1328 1.455 . S
C1329 C1330 1.331 . S
C1330 C1319 1.451 . S
C1330 C1329 1.331 . S
C1330 C1331 1.497 . S
C1331 C1322 1.395 . S
C1331 C1326 1.446 . S
C1331 C1330 1.497 . S
C1332 C1333 1.582 . S
C1332 H1389 0.962 . S
C1332 H1390 0.959 . S
C1332 H1391 0.958 . S
C1333 C1332 1.582 . S
C1333 O1336 1.458 . S
C1333 H1362 0.980 . S
O1334 C1279 1.426 . S
O1334 C1280 1.334 . S
O1335 C1307 1.413 . S
O1335 C1308 1.393 . S
O1336 C1298 1.435 . S
O1336 C1333 1.458 . S
O1337 C1289 1.468 . S
O1337 C1290 1.408 . S
H1338 C1279 0.980 . S
H1339 C1278 0.959 . S
H1340 C1278 0.959 . S
H1341 C1278 0.960 . S
H1342 C1281 0.929 . S
H1343 C1285 0.929 . S
H1344 C1286 0.959 . S
H1345 C1286 0.961 . S
H1346 C1286 0.961 . S
H1347 C1287 0.960 . S
H1348 C1287 0.960 . S
H1349 C1287 0.961 . S
H1350 C1289 0.980 1_455 S
H1351 C1288 1.004 . S
H1352 C1288 0.960 . S
H1353 C1288 0.959 . S
H1354 C1291 0.930 1_455 S
H1355 C1295 0.931 . S
H1356 C1296 0.959 . S
H1357 C1296 0.961 . S
H1358 C1296 0.959 . S
H1359 C1297 0.960 . S
H1360 C1297 0.960 . S
H1361 C1297 0.960 . S
H1362 C1333 0.980 . S
H1363 C1299 0.930 1_455 S
H1364 C1303 0.930 . S
H1365 C1304 0.961 . S
H1366 C1304 0.960 . S
H1367 C1304 0.958 . S
H1368 C1305 0.961 . S
H1369 C1305 0.960 . S
H1370 C1305 0.960 . S
H1371 C1307 0.978 1_655 S
H1372 C1306 0.961 . S
H1373 C1306 0.961 . S
H1374 C1306 0.959 . S
H1375 C1309 0.932 . S
H1376 C1313 0.929 . S
H1377 C1314 0.961 . S
H1378 C1314 0.959 . S
H1379 C1314 0.959 . S
H1380 C1315 0.960 . S
H1381 C1315 0.962 . S
H1382 C1315 0.961 . S
H1383 C1317 0.929 . S
H1384 C1320 0.930 . S
H1385 C1321 0.929 . S
H1386 C1324 0.930 . S
H1387 C1327 0.929 . S
H1388 C1328 0.930 . S
H1389 C1332 0.962 . S
H1390 C1332 0.959 . S
H1391 C1332 0.958 . S
C1392 C1393 1.560 . S
C1392 H1453 0.959 . S
C1392 H1454 0.959 . S
C1392 H1455 0.960 . S
C1393 C1392 1.560 . S
C1393 O1448 1.426 . S
C1393 H1452 0.980 . S
C1394 C1395 1.407 . S
C1394 C1399 1.418 . S
C1394 O1448 1.334 . S
C1395 C1394 1.407 . S
C1395 C1396 1.360 . S
C1395 H1456 0.929 . S
C1396 C1395 1.360 . S
C1396 C1397 1.401 . S
C1396 C1400 1.527 . S
C1397 C1396 1.401 . S
C1397 C1398 1.405 . S
C1397 C1430 1.587 . S
C1398 C1397 1.405 . S
C1398 C1399 1.332 . S
C1398 C1401 1.496 . S
C1399 C1394 1.418 . S
C1399 C1398 1.332 . S
C1399 H1457 0.929 . S
C1400 C1396 1.527 . S
C1400 H1458 0.959 . S
C1400 H1459 0.961 . S
C1400 H1460 0.961 . S
C1401 C1398 1.496 . S
C1401 H1461 0.960 . S
C1401 H1462 0.960 . S
C1401 H1463 0.961 . S
C1402 C1403 1.517 . S
C1402 H1465 0.961 . S
C1402 H1466 0.960 . S
C1402 H1467 0.959 . S
C1403 C1402 1.517 . S
C1403 O1451 1.468 . S
C1403 H1464 0.980 . S
C1404 C1405 1.349 . S
C1404 C1409 1.367 . S
C1404 O1451 1.408 . S
C1405 C1404 1.349 . S
C1405 C1406 1.407 . S
C1405 H1468 0.930 . S
C1406 C1405 1.407 . S
C1406 C1407 1.449 . S
C1406 C1410 1.535 . S
C1407 C1406 1.449 . S
C1407 C1408 1.384 . S
C1407 C1432 1.553 . S
C1408 C1407 1.384 . S
C1408 C1409 1.364 . S
C1408 C1411 1.450 . S
C1409 C1404 1.367 . S
C1409 C1408 1.364 . S
C1409 H1469 0.931 . S
C1410 C1406 1.535 . S
C1410 H1470 0.959 . S
C1410 H1471 0.961 . S
C1410 H1472 0.959 . S
C1411 C1408 1.450 . S
C1411 H1473 0.960 . S
C1411 H1474 0.960 . S
C1411 H1475 0.960 . S
C1412 C1413 1.309 . S
C1412 C1417 1.304 . S
C1412 O1450 1.435 . S
C1413 C1412 1.309 . S
C1413 C1414 1.476 . S
C1413 H1477 0.930 . S
C1414 C1413 1.476 . S
C1414 C1415 1.400 . S
C1414 C1418 1.567 . S
C1415 C1414 1.400 . S
C1415 C1416 1.373 . S
C1415 C1437 1.432 . S
C1416 C1415 1.373 . S
C1416 C1417 1.339 . S
C1416 C1419 1.530 . S
C1417 C1412 1.304 . S
C1417 C1416 1.339 . S
C1417 H1478 0.930 . S
C1418 C1414 1.567 . S
C1418 H1479 0.961 . S
C1418 H1480 0.960 . S
C1418 H1481 0.958 . S
C1419 C1416 1.530 . S
C1419 H1482 0.961 . S
C1419 H1483 0.960 . S
C1419 H1484 0.960 . S
C1420 C1421 1.530 . S
C1420 H1486 0.961 . S
C1420 H1487 0.961 . S
C1420 H1488 0.959 . S
C1421 C1420 1.530 . S
C1421 O1449 1.412 . S
C1421 H1485 0.980 . S
C1422 C1423 1.288 . S
C1422 C1427 1.377 . S
C1422 O1449 1.393 . S
C1423 C1422 1.288 . S
C1423 C1424 1.369 . S
C1423 H1489 0.932 . S
C1424 C1423 1.369 . S
C1424 C1425 1.398 . S
C1424 C1428 1.527 . S
C1425 C1424 1.398 . S
C1425 C1426 1.380 . S
C1425 C1439 1.497 . S
C1426 C1425 1.380 . S
C1426 C1427 1.383 . S
C1426 C1429 1.603 . S
C1427 C1422 1.377 . S
C1427 C1426 1.383 . S
C1427 H1490 0.929 . S
C1428 C1424 1.527 . S
C1428 H1491 0.961 . S
C1428 H1492 0.959 . S
C1428 H1493 0.959 . S
C1429 C1426 1.603 . S
C1429 H1494 0.960 . S
C1429 H1495 0.962 . S
C1429 H1496 0.961 . S
C1430 C1397 1.587 . S
C1430 C1431 1.360 . S
C1430 C1443 1.412 . S
C1431 C1430 1.360 . S
C1431 C1432 1.365 . S
C1431 H1497 0.929 . S
C1432 C1407 1.553 . S
C1432 C1431 1.365 . S
C1432 C1433 1.404 . S
C1433 C1432 1.404 . S
C1433 C1434 1.395 . S
C1433 C1444 1.451 . S
C1434 C1433 1.395 . S
C1434 C1435 1.322 . S
C1434 H1498 0.930 . S
C1435 C1434 1.322 . S
C1435 C1436 1.459 . S
C1435 H1499 0.929 . S
C1436 C1435 1.459 . S
C1436 C1437 1.445 . S
C1436 C1445 1.395 . S
C1437 C1415 1.432 . S
C1437 C1436 1.445 . S
C1437 C1438 1.370 . S
C1438 C1437 1.370 . S
C1438 C1439 1.438 . S
C1438 H1500 0.930 . S
C1439 C1425 1.497 . S
C1439 C1438 1.438 . S
C1439 C1440 1.360 . S
C1440 C1439 1.360 . S
C1440 C1441 1.401 . S
C1440 C1445 1.446 . S
C1441 C1440 1.401 . S
C1441 C1442 1.347 . S
C1441 H1501 0.929 . S
C1442 C1441 1.347 . S
C1442 C1443 1.455 . S
C1442 H1502 0.930 . S
C1443 C1430 1.412 . S
C1443 C1442 1.455 . S
C1443 C1444 1.331 . S
C1444 C1433 1.451 . S
C1444 C1443 1.331 . S
C1444 C1445 1.497 . S
C1445 C1436 1.395 . S
C1445 C1440 1.446 . S
C1445 C1444 1.497 . S
C1446 C1447 1.582 . S
C1446 H1503 0.962 . S
C1446 H1504 0.959 . S
C1446 H1505 0.958 . S
C1447 C1446 1.582 . S
C1447 O1450 1.458 . S
C1447 H1476 0.980 . S
O1448 C1393 1.426 . S
O1448 C1394 1.334 . S
O1449 C1421 1.412 . S
O1449 C1422 1.393 . S
O1450 C1412 1.435 . S
O1450 C1447 1.458 . S
O1451 C1403 1.468 . S
O1451 C1404 1.408 . S
H1452 C1393 0.980 . S
H1453 C1392 0.959 . S
H1454 C1392 0.959 . S
H1455 C1392 0.960 . S
H1456 C1395 0.929 . S
H1457 C1399 0.929 . S
H1458 C1400 0.959 . S
H1459 C1400 0.961 . S
H1460 C1400 0.961 . S
H1461 C1401 0.960 . S
H1462 C1401 0.960 . S
H1463 C1401 0.961 . S
H1464 C1403 0.980 . S
H1465 C1402 0.961 . S
H1466 C1402 0.960 . S
H1467 C1402 0.959 . S
H1468 C1405 0.930 . S
H1469 C1409 0.931 . S
H1470 C1410 0.959 . S
H1471 C1410 0.961 . S
H1472 C1410 0.959 . S
H1473 C1411 0.960 . S
H1474 C1411 0.960 . S
H1475 C1411 0.960 . S
H1476 C1447 0.980 . S
H1477 C1413 0.930 . S
H1478 C1417 0.930 . S
H1479 C1418 0.961 . S
H1480 C1418 0.960 . S
H1481 C1418 0.958 . S
H1482 C1419 0.961 . S
H1483 C1419 0.960 . S
H1484 C1419 0.960 . S
H1485 C1421 0.980 . S
H1486 C1420 0.961 . S
H1487 C1420 0.961 . S
H1488 C1420 0.959 . S
H1489 C1423 0.932 . S
H1490 C1427 0.929 . S
H1491 C1428 0.961 . S
H1492 C1428 0.959 . S
H1493 C1428 0.959 . S
H1494 C1429 0.960 . S
H1495 C1429 0.962 . S
H1496 C1429 0.961 . S
H1497 C1431 0.929 . S
H1498 C1434 0.930 . S
H1499 C1435 0.929 . S
H1500 C1438 0.930 . S
H1501 C1441 0.929 . S
H1502 C1442 0.930 . S
H1503 C1446 0.962 . S
H1504 C1446 0.959 . S
H1505 C1446 0.958 . S
C1506 C1507 1.560 . S
C1506 H1567 0.959 . S
C1506 H1568 0.959 . S
C1506 H1569 0.960 . S
C1507 C1506 1.560 . S
C1507 O1562 1.426 . S
C1507 H1566 0.980 . S
C1508 C1509 1.407 1_565 S
C1508 C1513 1.418 . S
C1508 O1562 1.334 . S
C1509 C1508 1.407 1_545 S
C1509 C1510 1.360 . S
C1509 H1570 0.929 . S
C1510 C1509 1.360 . S
C1510 C1511 1.328 1_545 S
C1510 C1514 1.527 . S
C1511 C1510 1.328 1_565 S
C1511 C1512 1.472 . S
C1511 C1544 1.601 1_565 S
C1512 C1511 1.472 . S
C1512 C1513 1.332 . S
C1512 C1515 1.496 . S
C1513 C1508 1.418 . S
C1513 C1512 1.332 . S
C1513 H1571 0.929 . S
C1514 C1510 1.527 . S
C1514 H1572 0.959 . S
C1514 H1573 0.961 . S
C1514 H1574 0.961 . S
C1515 C1512 1.496 . S
C1515 H1575 0.960 . S
C1515 H1576 0.960 . S
C1515 H1577 0.961 . S
C1516 C1517 1.517 . S
C1516 H1579 0.961 1_545 S
C1516 H1580 0.960 . S
C1516 H1581 0.959 . S
C1517 C1516 1.517 . S
C1517 O1565 1.468 . S
C1517 H1578 0.980 1_545 S
C1518 C1519 1.351 1_545 S
C1518 C1523 1.367 . S
C1518 O1565 1.408 . S
C1519 C1518 1.351 1_565 S
C1519 C1520 1.409 . S
C1519 H1582 0.927 . S
C1520 C1519 1.409 . S
C1520 C1521 1.449 1_565 S
C1520 C1524 1.535 . S
C1521 C1520 1.449 1_545 S
C1521 C1522 1.384 . S
C1521 C1546 1.553 . S
C1522 C1521 1.384 . S
C1522 C1523 1.364 . S
C1522 C1525 1.450 . S
C1523 C1518 1.367 . S
C1523 C1522 1.364 . S
C1523 H1583 0.931 . S
C1524 C1520 1.535 . S
C1524 H1584 0.959 . S
C1524 H1585 0.961 . S
C1524 H1586 0.959 . S
C1525 C1522 1.450 . S
C1525 H1587 0.960 . S
C1525 H1588 0.960 . S
C1525 H1589 0.960 . S
C1526 C1527 1.309 . S
C1526 C1531 1.304 . S
C1526 O1564 1.435 . S
C1527 C1526 1.309 . S
C1527 C1528 1.476 1_545 S
C1527 H1591 0.930 1_545 S
C1528 C1527 1.476 1_565 S
C1528 C1529 1.400 1_565 S
C1528 C1532 1.567 . S
C1529 C1528 1.400 1_545 S
C1529 C1530 1.373 . S
C1529 C1551 1.432 . S
C1530 C1529 1.373 . S
C1530 C1531 1.339 . S
C1530 C1533 1.530 . S
C1531 C1526 1.304 . S
C1531 C1530 1.339 . S
C1531 H1592 0.930 . S
C1532 C1528 1.567 . S
C1532 H1593 0.961 . S
C1532 H1594 0.960 . S
C1532 H1595 0.958 . S
C1533 C1530 1.530 . S
C1533 H1596 0.961 . S
C1533 H1597 0.960 . S
C1533 H1598 0.960 . S
C1534 C1535 1.530 1_565 S
C1534 H1600 0.961 . S
C1534 H1601 0.961 . S
C1534 H1602 0.959 . S
C1535 C1534 1.530 1_545 S
C1535 O1563 1.412 1_545 S
C1535 H1599 0.980 . S
C1536 C1537 1.288 . S
C1536 C1541 1.377 1_565 S
C1536 O1563 1.393 . S
C1537 C1536 1.288 . S
C1537 C1538 1.369 . S
C1537 H1603 0.932 . S
C1538 C1537 1.369 . S
C1538 C1539 1.398 1_565 S
C1538 C1542 1.527 . S
C1539 C1538 1.398 1_545 S
C1539 C1540 1.380 . S
C1539 C1553 1.497 . S
C1540 C1539 1.380 . S
C1540 C1541 1.383 . S
C1540 C1543 1.603 . S
C1541 C1536 1.377 1_545 S
C1541 C1540 1.383 . S
C1541 H1604 0.929 . S
C1542 C1538 1.527 . S
C1542 H1605 0.961 . S
C1542 H1606 0.959 . S
C1542 H1607 0.959 . S
C1543 C1540 1.603 . S
C1543 H1608 0.960 . S
C1543 H1609 0.962 . S
C1543 H1610 0.961 . S
C1544 C1511 1.601 1_545 S
C1544 C1545 1.360 . S
C1544 C1557 1.412 . S
C1545 C1544 1.360 . S
C1545 C1546 1.365 . S
C1545 H1611 0.929 . S
C1546 C1521 1.553 . S
C1546 C1545 1.365 . S
C1546 C1547 1.404 . S
C1547 C1546 1.404 . S
C1547 C1548 1.395 . S
C1547 C1558 1.451 . S
C1548 C1547 1.395 . S
C1548 C1549 1.322 . S
C1548 H1612 0.930 . S
C1549 C1548 1.322 . S
C1549 C1550 1.459 . S
C1549 H1613 0.929 . S
C1550 C1549 1.459 . S
C1550 C1551 1.445 . S
C1550 C1559 1.395 . S
C1551 C1529 1.432 . S
C1551 C1550 1.445 . S
C1551 C1552 1.370 . S
C1552 C1551 1.370 . S
C1552 C1553 1.438 . S
C1552 H1614 0.930 . S
C1553 C1539 1.497 . S
C1553 C1552 1.438 . S
C1553 C1554 1.360 . S
C1554 C1553 1.360 . S
C1554 C1555 1.401 . S
C1554 C1559 1.446 . S
C1555 C1554 1.401 . S
C1555 C1556 1.347 . S
C1555 H1615 0.929 . S
C1556 C1555 1.347 . S
C1556 C1557 1.455 . S
C1556 H1616 0.930 . S
C1557 C1544 1.412 . S
C1557 C1556 1.455 . S
C1557 C1558 1.331 . S
C1558 C1547 1.451 . S
C1558 C1557 1.331 . S
C1558 C1559 1.497 . S
C1559 C1550 1.395 . S
C1559 C1554 1.446 . S
C1559 C1558 1.497 . S
C1560 C1561 1.582 . S
C1560 H1617 0.962 . S
C1560 H1618 0.959 . S
C1560 H1619 0.958 . S
C1561 C1560 1.582 . S
C1561 O1564 1.458 . S
C1561 H1590 0.980 . S
O1562 C1507 1.426 . S
O1562 C1508 1.334 . S
O1563 C1535 1.412 1_565 S
O1563 C1536 1.393 . S
O1564 C1526 1.435 . S
O1564 C1561 1.458 . S
O1565 C1517 1.468 . S
O1565 C1518 1.408 . S
H1566 C1507 0.980 . S
H1567 C1506 0.959 . S
H1568 C1506 0.959 . S
H1569 C1506 0.960 . S
H1570 C1509 0.929 . S
H1571 C1513 0.929 . S
H1572 C1514 0.959 . S
H1573 C1514 0.961 . S
H1574 C1514 0.961 . S
H1575 C1515 0.960 . S
H1576 C1515 0.960 . S
H1577 C1515 0.961 . S
H1578 C1517 0.980 1_565 S
H1579 C1516 0.961 1_565 S
H1580 C1516 0.960 . S
H1581 C1516 0.959 . S
H1582 C1519 0.927 . S
H1583 C1523 0.931 . S
H1584 C1524 0.959 . S
H1585 C1524 0.961 . S
H1586 C1524 0.959 . S
H1587 C1525 0.960 . S
H1588 C1525 0.960 . S
H1589 C1525 0.960 . S
H1590 C1561 0.980 . S
H1591 C1527 0.930 1_565 S
H1592 C1531 0.930 . S
H1593 C1532 0.961 . S
H1594 C1532 0.960 . S
H1595 C1532 0.958 . S
H1596 C1533 0.961 . S
H1597 C1533 0.960 . S
H1598 C1533 0.960 . S
H1599 C1535 0.980 . S
H1600 C1534 0.961 . S
H1601 C1534 0.961 . S
H1602 C1534 0.959 . S
H1603 C1537 0.932 . S
H1604 C1541 0.929 . S
H1605 C1542 0.961 . S
H1606 C1542 0.959 . S
H1607 C1542 0.959 . S
H1608 C1543 0.960 . S
H1609 C1543 0.962 . S
H1610 C1543 0.961 . S
H1611 C1545 0.929 . S
H1612 C1548 0.930 . S
H1613 C1549 0.929 . S
H1614 C1552 0.930 . S
H1615 C1555 0.929 . S
H1616 C1556 0.930 . S
H1617 C1560 0.962 . S
H1618 C1560 0.959 . S
H1619 C1560 0.958 . S
C1620 C1621 1.560 . S
C1620 H1681 0.959 . S
C1620 H1682 0.959 . S
C1620 H1683 0.960 . S
C1621 C1620 1.560 . S
C1621 O1676 1.426 . S
C1621 H1680 0.980 1_565 S
C1622 C1623 1.407 1_565 S
C1622 C1627 1.418 . S
C1622 O1676 1.334 . S
C1623 C1622 1.407 1_545 S
C1623 C1624 1.360 . S
C1623 H1684 0.929 . S
C1624 C1623 1.360 . S
C1624 C1625 1.401 . S
C1624 C1628 1.527 . S
C1625 C1624 1.401 . S
C1625 C1626 1.405 1_545 S
C1625 C1658 1.587 . S
C1626 C1625 1.405 1_565 S
C1626 C1627 1.332 . S
C1626 C1629 1.496 . S
C1627 C1622 1.418 . S
C1627 C1626 1.332 . S
C1627 H1685 0.929 . S
C1628 C1624 1.527 . S
C1628 H1686 0.959 . S
C1628 H1687 0.961 . S
C1628 H1688 0.961 . S
C1629 C1626 1.496 . S
C1629 H1689 0.960 . S
C1629 H1690 0.960 . S
C1629 H1691 0.961 . S
C1630 C1631 1.517 . S
C1630 H1693 0.961 . S
C1630 H1694 0.960 . S
C1630 H1695 0.959 . S
C1631 C1630 1.517 . S
C1631 O1679 1.468 . S
C1631 H1692 0.980 . S
C1632 C1633 1.349 . S
C1632 C1637 1.367 . S
C1632 O1679 1.408 . S
C1633 C1632 1.349 . S
C1633 C1634 1.407 . S
C1633 H1696 0.940 . S
C1634 C1633 1.407 . S
C1634 C1635 1.449 . S
C1634 C1638 1.535 1_545 S
C1635 C1634 1.449 . S
C1635 C1636 1.384 . S
C1635 C1660 1.553 . S
C1636 C1635 1.384 . S
C1636 C1637 1.364 . S
C1636 C1639 1.450 . S
C1637 C1632 1.367 . S
C1637 C1636 1.364 . S
C1637 H1697 0.931 . S
C1638 C1634 1.535 1_565 S
C1638 H1698 0.959 . S
C1638 H1699 0.961 . S
C1638 H1700 0.959 . S
C1639 C1636 1.450 . S
C1639 H1701 0.960 . S
C1639 H1702 0.960 . S
C1639 H1703 0.960 . S
C1640 C1641 1.309 1_545 S
C1640 C1645 1.304 . S
C1640 O1678 1.435 . S
C1641 C1640 1.309 1_565 S
C1641 C1642 1.476 . S
C1641 H1705 0.930 . S
C1642 C1641 1.476 . S
C1642 C1643 1.400 1_565 S
C1642 C1646 1.567 . S
C1643 C1642 1.400 1_545 S
C1643 C1644 1.373 . S
C1643 C1665 1.432 . S
C1644 C1643 1.373 . S
C1644 C1645 1.339 . S
C1644 C1647 1.530 . S
C1645 C1640 1.304 . S
C1645 C1644 1.339 . S
C1645 H1706 0.930 . S
C1646 C1642 1.567 . S
C1646 H1707 0.961 . S
C1646 H1708 0.960 . S
C1646 H1709 0.958 . S
C1647 C1644 1.530 . S
C1647 H1710 0.961 . S
C1647 H1711 0.960 . S
C1647 H1712 0.960 . S
C1648 C1649 1.530 . S
C1648 H1714 0.961 . S
C1648 H1715 0.961 . S
C1648 H1716 0.959 . S
C1649 C1648 1.530 . S
C1649 O1677 1.412 . S
C1649 H1713 0.980 . S
C1650 C1651 1.288 . S
C1650 C1655 1.377 1_565 S
C1650 O1677 1.393 . S
C1651 C1650 1.288 . S
C1651 C1652 1.369 . S
C1651 H1717 0.932 . S
C1652 C1651 1.369 . S
C1652 C1653 1.398 . S
C1652 C1656 1.527 . S
C1653 C1652 1.398 . S
C1653 C1654 1.380 1_565 S
C1653 C1667 1.497 1_565 S
C1654 C1653 1.380 1_545 S
C1654 C1655 1.383 . S
C1654 C1657 1.603 . S
C1655 C1650 1.377 1_545 S
C1655 C1654 1.383 . S
C1655 H1718 0.929 . S
C1656 C1652 1.527 . S
C1656 H1719 0.961 . S
C1656 H1720 0.959 . S
C1656 H1721 0.959 . S
C1657 C1654 1.603 . S
C1657 H1722 0.960 . S
C1657 H1723 0.962 . S
C1657 H1724 0.961 . S
C1658 C1625 1.587 . S
C1658 C1659 1.360 . S
C1658 C1671 1.412 . S
C1659 C1658 1.360 . S
C1659 C1660 1.365 . S
C1659 H1725 0.929 . S
C1660 C1635 1.553 . S
C1660 C1659 1.365 . S
C1660 C1661 1.404 . S
C1661 C1660 1.404 . S
C1661 C1662 1.395 . S
C1661 C1672 1.451 . S
C1662 C1661 1.395 . S
C1662 C1663 1.322 . S
C1662 H1726 0.930 . S
C1663 C1662 1.322 . S
C1663 C1664 1.459 . S
C1663 H1727 0.929 . S
C1664 C1663 1.459 . S
C1664 C1665 1.445 . S
C1664 C1673 1.395 . S
C1665 C1643 1.432 . S
C1665 C1664 1.445 . S
C1665 C1666 1.370 . S
C1666 C1665 1.370 . S
C1666 C1667 1.438 . S
C1666 H1728 0.930 . S
C1667 C1653 1.497 1_545 S
C1667 C1666 1.438 . S
C1667 C1668 1.360 . S
C1668 C1667 1.360 . S
C1668 C1669 1.401 . S
C1668 C1673 1.446 . S
C1669 C1668 1.401 . S
C1669 C1670 1.347 . S
C1669 H1729 0.933 . S
C1670 C1669 1.347 . S
C1670 C1671 1.455 . S
C1670 H1730 0.930 . S
C1671 C1658 1.412 . S
C1671 C1670 1.455 . S
C1671 C1672 1.331 . S
C1672 C1661 1.451 . S
C1672 C1671 1.331 . S
C1672 C1673 1.497 . S
C1673 C1664 1.395 . S
C1673 C1668 1.446 . S
C1673 C1672 1.497 . S
C1674 C1675 1.582 . S
C1674 H1731 0.962 . S
C1674 H1732 0.959 . S
C1674 H1733 0.958 . S
C1675 C1674 1.582 . S
C1675 O1678 1.458 . S
C1675 H1704 0.980 1_545 S
O1676 C1621 1.426 . S
O1676 C1622 1.334 . S
O1677 C1649 1.412 . S
O1677 C1650 1.393 . S
O1678 C1640 1.435 . S
O1678 C1675 1.458 . S
O1679 C1631 1.468 . S
O1679 C1632 1.408 . S
H1680 C1621 0.980 1_545 S
H1681 C1620 0.959 . S
H1682 C1620 0.959 . S
H1683 C1620 0.960 . S
H1684 C1623 0.929 . S
H1685 C1627 0.929 . S
H1686 C1628 0.959 . S
H1687 C1628 0.961 . S
H1688 C1628 0.961 . S
H1689 C1629 0.960 . S
H1690 C1629 0.960 . S
H1691 C1629 0.961 . S
H1692 C1631 0.980 . S
H1693 C1630 0.961 . S
H1694 C1630 0.960 . S
H1695 C1630 0.959 . S
H1696 C1633 0.940 . S
H1697 C1637 0.931 . S
H1698 C1638 0.959 . S
H1699 C1638 0.961 . S
H1700 C1638 0.959 . S
H1701 C1639 0.960 . S
H1702 C1639 0.960 . S
H1703 C1639 0.960 . S
H1704 C1675 0.980 1_565 S
H1705 C1641 0.930 . S
H1706 C1645 0.930 . S
H1707 C1646 0.961 . S
H1708 C1646 0.960 . S
H1709 C1646 0.958 . S
H1710 C1647 0.961 . S
H1711 C1647 0.960 . S
H1712 C1647 0.960 . S
H1713 C1649 0.980 . S
H1714 C1648 0.961 . S
H1715 C1648 0.961 . S
H1716 C1648 0.959 . S
H1717 C1651 0.932 . S
H1718 C1655 0.929 . S
H1719 C1656 0.961 . S
H1720 C1656 0.959 . S
H1721 C1656 0.959 . S
H1722 C1657 0.960 . S
H1723 C1657 0.962 . S
H1724 C1657 0.961 . S
H1725 C1659 0.929 . S
H1726 C1662 0.930 . S
H1727 C1663 0.929 . S
H1728 C1666 0.930 . S
H1729 C1669 0.933 . S
H1730 C1670 0.930 . S
H1731 C1674 0.962 . S
H1732 C1674 0.959 . S
H1733 C1674 0.958 . S
C1734 C1735 1.560 . S
C1734 H1795 0.959 . S
C1734 H1796 0.959 . S
C1734 H1797 0.960 . S
C1735 C1734 1.560 . S
C1735 O1790 1.426 . S
C1735 H1794 0.980 1_455 S
C1736 C1737 1.407 1_455 S
C1736 C1741 1.418 . S
C1736 O1790 1.334 . S
C1737 C1736 1.407 1_655 S
C1737 C1738 1.360 . S
C1737 H1798 0.929 . S
C1738 C1737 1.360 . S
C1738 C1739 1.401 . S
C1738 C1742 1.527 . S
C1739 C1738 1.401 . S
C1739 C1740 1.405 1_655 S
C1739 C1772 1.587 . S
C1740 C1739 1.405 1_455 S
C1740 C1741 1.332 . S
C1740 C1743 1.496 . S
C1741 C1736 1.418 . S
C1741 C1740 1.332 . S
C1741 H1799 0.929 . S
C1742 C1738 1.527 . S
C1742 H1800 0.959 . S
C1742 H1801 0.961 . S
C1742 H1802 0.961 . S
C1743 C1740 1.496 . S
C1743 H1803 0.960 . S
C1743 H1804 0.960 . S
C1743 H1805 0.961 . S
C1744 C1745 1.517 . S
C1744 H1807 0.961 . S
C1744 H1808 0.960 . S
C1744 H1809 0.959 . S
C1745 C1744 1.517 . S
C1745 O1793 1.468 . S
C1745 H1806 0.980 . S
C1746 C1747 1.349 . S
C1746 C1751 1.367 . S
C1746 O1793 1.408 . S
C1747 C1746 1.349 . S
C1747 C1748 1.407 . S
C1747 H1810 0.915 1_655 S
C1748 C1747 1.407 . S
C1748 C1749 1.449 . S
C1748 C1752 1.535 1_655 S
C1749 C1748 1.449 . S
C1749 C1750 1.384 . S
C1749 C1774 1.553 . S
C1750 C1749 1.384 . S
C1750 C1751 1.364 . S
C1750 C1753 1.450 . S
C1751 C1746 1.367 . S
C1751 C1750 1.364 . S
C1751 H1811 0.931 . S
C1752 C1748 1.535 1_455 S
C1752 H1812 0.959 . S
C1752 H1813 0.961 . S
C1752 H1814 0.959 . S
C1753 C1750 1.450 . S
C1753 H1815 0.960 . S
C1753 H1816 0.960 . S
C1753 H1817 0.960 . S
C1754 C1755 1.309 1_655 S
C1754 C1759 1.304 . S
C1754 O1792 1.435 . S
C1755 C1754 1.309 1_455 S
C1755 C1756 1.476 . S
C1755 H1819 0.930 . S
C1756 C1755 1.476 . S
C1756 C1757 1.400 1_455 S
C1756 C1760 1.567 . S
C1757 C1756 1.400 1_655 S
C1757 C1758 1.373 . S
C1757 C1779 1.432 . S
C1758 C1757 1.373 . S
C1758 C1759 1.339 . S
C1758 C1761 1.530 . S
C1759 C1754 1.304 . S
C1759 C1758 1.339 . S
C1759 H1820 0.930 . S
C1760 C1756 1.567 . S
C1760 H1821 0.961 . S
C1760 H1822 0.960 . S
C1760 H1823 0.958 . S
C1761 C1758 1.530 . S
C1761 H1824 0.961 . S
C1761 H1825 0.960 . S
C1761 H1826 0.960 . S
C1762 C1763 1.530 . S
C1762 H1828 0.961 . S
C1762 H1829 0.961 . S
C1762 H1830 0.959 . S
C1763 C1762 1.530 . S
C1763 O1791 1.412 . S
C1763 H1827 0.980 1_455 S
C1764 C1765 1.288 . S
C1764 C1769 1.377 1_455 S
C1764 O1791 1.393 . S
C1765 C1764 1.288 . S
C1765 C1766 1.369 . S
C1765 H1831 0.932 . S
C1766 C1765 1.369 . S
C1766 C1767 1.398 . S
C1766 C1770 1.527 . S
C1767 C1766 1.398 . S
C1767 C1768 1.380 1_455 S
C1767 C1781 1.497 1_455 S
C1768 C1767 1.380 1_655 S
C1768 C1769 1.383 . S
C1768 C1771 1.603 . S
C1769 C1764 1.377 1_655 S
C1769 C1768 1.383 . S
C1769 H1832 0.929 . S
C1770 C1766 1.527 . S
C1770 H1833 0.961 . S
C1770 H1834 0.959 . S
C1770 H1835 0.959 . S
C1771 C1768 1.603 . S
C1771 H1836 0.960 . S
C1771 H1837 0.962 . S
C1771 H1838 0.961 . S
C1772 C1739 1.587 . S
C1772 C1773 1.360 . S
C1772 C1785 1.412 . S
C1773 C1772 1.360 . S
C1773 C1774 1.365 . S
C1773 H1839 0.929 . S
C1774 C1749 1.553 . S
C1774 C1773 1.365 . S
C1774 C1775 1.404 . S
C1775 C1774 1.404 . S
C1775 C1776 1.395 . S
C1775 C1786 1.451 . S
C1776 C1775 1.395 . S
C1776 C1777 1.322 . S
C1776 H1840 0.930 . S
C1777 C1776 1.322 . S
C1777 C1778 1.459 . S
C1777 H1841 0.929 . S
C1778 C1777 1.459 . S
C1778 C1779 1.445 . S
C1778 C1787 1.395 . S
C1779 C1757 1.432 . S
C1779 C1778 1.445 . S
C1779 C1780 1.370 . S
C1780 C1779 1.370 . S
C1780 C1781 1.438 . S
C1780 H1842 0.930 . S
C1781 C1767 1.497 1_655 S
C1781 C1780 1.438 . S
C1781 C1782 1.360 . S
C1782 C1781 1.360 . S
C1782 C1783 1.401 . S
C1782 C1787 1.446 . S
C1783 C1782 1.401 . S
C1783 C1784 1.347 . S
C1783 H1843 0.929 . S
C1784 C1783 1.347 . S
C1784 C1785 1.455 . S
C1784 H1844 0.930 . S
C1785 C1772 1.412 . S
C1785 C1784 1.455 . S
C1785 C1786 1.331 . S
C1786 C1775 1.451 . S
C1786 C1785 1.331 . S
C1786 C1787 1.497 . S
C1787 C1778 1.395 . S
C1787 C1782 1.446 . S
C1787 C1786 1.497 . S
C1788 C1789 1.582 1_655 S
C1788 H1845 0.919 1_655 S
C1788 H1846 0.959 . S
C1788 H1847 0.958 . S
C1789 C1788 1.582 1_455 S
C1789 O1792 1.458 1_455 S
C1789 H1818 0.980 . S
O1790 C1735 1.426 . S
O1790 C1736 1.334 . S
O1791 C1763 1.412 . S
O1791 C1764 1.393 . S
O1792 C1754 1.435 . S
O1792 C1789 1.458 1_655 S
O1793 C1745 1.468 . S
O1793 C1746 1.408 . S
H1794 C1735 0.980 1_655 S
H1795 C1734 0.959 . S
H1796 C1734 0.959 . S
H1797 C1734 0.960 . S
H1798 C1737 0.929 . S
H1799 C1741 0.929 . S
H1800 C1742 0.959 . S
H1801 C1742 0.961 . S
H1802 C1742 0.961 . S
H1803 C1743 0.960 . S
H1804 C1743 0.960 . S
H1805 C1743 0.961 . S
H1806 C1745 0.980 . S
H1807 C1744 0.961 . S
H1808 C1744 0.960 . S
H1809 C1744 0.959 . S
H1810 C1747 0.915 1_455 S
H1811 C1751 0.931 . S
H1812 C1752 0.959 . S
H1813 C1752 0.961 . S
H1814 C1752 0.959 . S
H1815 C1753 0.960 . S
H1816 C1753 0.960 . S
H1817 C1753 0.960 . S
H1818 C1789 0.980 . S
H1819 C1755 0.930 . S
H1820 C1759 0.930 . S
H1821 C1760 0.961 . S
H1822 C1760 0.960 . S
H1823 C1760 0.958 . S
H1824 C1761 0.961 . S
H1825 C1761 0.960 . S
H1826 C1761 0.960 . S
H1827 C1763 0.980 1_655 S
H1828 C1762 0.961 . S
H1829 C1762 0.961 . S
H1830 C1762 0.959 . S
H1831 C1765 0.932 . S
H1832 C1769 0.929 . S
H1833 C1770 0.961 . S
H1834 C1770 0.959 . S
H1835 C1770 0.959 . S
H1836 C1771 0.960 . S
H1837 C1771 0.962 . S
H1838 C1771 0.961 . S
H1839 C1773 0.929 . S
H1840 C1776 0.930 . S
H1841 C1777 0.929 . S
H1842 C1780 0.930 . S
H1843 C1783 0.929 . S
H1844 C1784 0.930 . S
H1845 C1788 0.919 1_455 S
H1846 C1788 0.959 . S
H1847 C1788 0.958 . S
C1848 C1849 1.560 . S
C1848 H1909 0.959 . S
C1848 H1910 0.959 . S
C1848 H1911 0.960 . S
C1849 C1848 1.560 . S
C1849 O1904 1.426 . S
C1849 H1908 0.980 . S
C1850 C1851 1.407 . S
C1850 C1855 1.418 . S
C1850 O1904 1.334 . S
C1851 C1850 1.407 . S
C1851 C1852 1.360 . S
C1851 H1912 0.929 . S
C1852 C1851 1.360 . S
C1852 C1853 1.401 . S
C1852 C1856 1.527 . S
C1853 C1852 1.401 . S
C1853 C1854 1.405 . S
C1853 C1886 1.587 . S
C1854 C1853 1.405 . S
C1854 C1855 1.332 . S
C1854 C1857 1.496 . S
C1855 C1850 1.418 . S
C1855 C1854 1.332 . S
C1855 H1913 0.929 . S
C1856 C1852 1.527 . S
C1856 H1914 0.959 . S
C1856 H1915 0.961 . S
C1856 H1916 0.961 . S
C1857 C1854 1.496 . S
C1857 H1917 0.960 . S
C1857 H1918 0.960 . S
C1857 H1919 0.961 . S
C1858 C1859 1.517 . S
C1858 H1921 0.961 . S
C1858 H1922 0.960 . S
C1858 H1923 0.959 . S
C1859 C1858 1.517 . S
C1859 O1907 1.468 . S
C1859 H1920 0.980 . S
C1860 C1861 1.349 . S
C1860 C1865 1.367 . S
C1860 O1907 1.408 . S
C1861 C1860 1.349 . S
C1861 C1862 1.407 . S
C1861 H1924 0.930 . S
C1862 C1861 1.407 . S
C1862 C1863 1.449 . S
C1862 C1866 1.535 . S
C1863 C1862 1.449 . S
C1863 C1864 1.384 . S
C1863 C1888 1.553 . S
C1864 C1863 1.384 . S
C1864 C1865 1.364 . S
C1864 C1867 1.450 . S
C1865 C1860 1.367 . S
C1865 C1864 1.364 . S
C1865 H1925 0.931 . S
C1866 C1862 1.535 . S
C1866 H1926 0.959 . S
C1866 H1927 0.961 . S
C1866 H1928 0.959 . S
C1867 C1864 1.450 . S
C1867 H1929 0.960 . S
C1867 H1930 0.960 . S
C1867 H1931 0.960 . S
C1868 C1869 1.309 . S
C1868 C1873 1.304 . S
C1868 O1906 1.435 . S
C1869 C1868 1.309 . S
C1869 C1870 1.476 . S
C1869 H1933 0.930 . S
C1870 C1869 1.476 . S
C1870 C1871 1.400 . S
C1870 C1874 1.567 . S
C1871 C1870 1.400 . S
C1871 C1872 1.373 . S
C1871 C1893 1.432 . S
C1872 C1871 1.373 . S
C1872 C1873 1.339 . S
C1872 C1875 1.530 . S
C1873 C1868 1.304 . S
C1873 C1872 1.339 . S
C1873 H1934 0.930 . S
C1874 C1870 1.567 . S
C1874 H1935 0.961 . S
C1874 H1936 0.960 . S
C1874 H1937 0.958 . S
C1875 C1872 1.530 . S
C1875 H1938 0.961 . S
C1875 H1939 0.960 . S
C1875 H1940 0.960 . S
C1876 C1877 1.530 . S
C1876 H1942 0.961 . S
C1876 H1943 0.961 . S
C1876 H1944 0.959 . S
C1877 C1876 1.530 . S
C1877 O1905 1.412 . S
C1877 H1941 0.980 . S
C1878 C1879 1.288 . S
C1878 C1883 1.377 . S
C1878 O1905 1.393 . S
C1879 C1878 1.288 . S
C1879 C1880 1.369 . S
C1879 H1945 0.932 . S
C1880 C1879 1.369 . S
C1880 C1881 1.398 . S
C1880 C1884 1.527 . S
C1881 C1880 1.398 . S
C1881 C1882 1.380 . S
C1881 C1895 1.497 . S
C1882 C1881 1.380 . S
C1882 C1883 1.383 . S
C1882 C1885 1.603 . S
C1883 C1878 1.377 . S
C1883 C1882 1.383 . S
C1883 H1946 0.929 . S
C1884 C1880 1.527 . S
C1884 H1947 0.961 . S
C1884 H1948 0.959 . S
C1884 H1949 0.959 . S
C1885 C1882 1.603 . S
C1885 H1950 0.960 . S
C1885 H1951 0.962 . S
C1885 H1952 0.961 . S
C1886 C1853 1.587 . S
C1886 C1887 1.360 . S
C1886 C1899 1.412 . S
C1887 C1886 1.360 . S
C1887 C1888 1.365 . S
C1887 H1953 0.929 . S
C1888 C1863 1.553 . S
C1888 C1887 1.365 . S
C1888 C1889 1.404 . S
C1889 C1888 1.404 . S
C1889 C1890 1.395 . S
C1889 C1900 1.451 . S
C1890 C1889 1.395 . S
C1890 C1891 1.322 . S
C1890 H1954 0.930 . S
C1891 C1890 1.322 . S
C1891 C1892 1.459 . S
C1891 H1955 0.929 . S
C1892 C1891 1.459 . S
C1892 C1893 1.445 . S
C1892 C1901 1.395 . S
C1893 C1871 1.432 . S
C1893 C1892 1.445 . S
C1893 C1894 1.370 . S
C1894 C1893 1.370 . S
C1894 C1895 1.438 . S
C1894 H1956 0.930 . S
C1895 C1881 1.497 . S
C1895 C1894 1.438 . S
C1895 C1896 1.360 . S
C1896 C1895 1.360 . S
C1896 C1897 1.401 . S
C1896 C1901 1.446 . S
C1897 C1896 1.401 . S
C1897 C1898 1.347 . S
C1897 H1957 0.929 . S
C1898 C1897 1.347 . S
C1898 C1899 1.455 . S
C1898 H1958 0.930 . S
C1899 C1886 1.412 . S
C1899 C1898 1.455 . S
C1899 C1900 1.331 . S
C1900 C1889 1.451 . S
C1900 C1899 1.331 . S
C1900 C1901 1.497 . S
C1901 C1892 1.395 . S
C1901 C1896 1.446 . S
C1901 C1900 1.497 . S
C1902 C1903 1.582 . S
C1902 H1959 0.962 . S
C1902 H1960 0.959 . S
C1902 H1961 0.958 . S
C1903 C1902 1.582 . S
C1903 O1906 1.458 . S
C1903 H1932 0.980 . S
O1904 C1849 1.426 . S
O1904 C1850 1.334 . S
O1905 C1877 1.412 . S
O1905 C1878 1.393 . S
O1906 C1868 1.435 . S
O1906 C1903 1.458 . S
O1907 C1859 1.468 . S
O1907 C1860 1.408 . S
H1908 C1849 0.980 . S
H1909 C1848 0.959 . S
H1910 C1848 0.959 . S
H1911 C1848 0.960 . S
H1912 C1851 0.929 . S
H1913 C1855 0.929 . S
H1914 C1856 0.959 . S
H1915 C1856 0.961 . S
H1916 C1856 0.961 . S
H1917 C1857 0.960 . S
H1918 C1857 0.960 . S
H1919 C1857 0.961 . S
H1920 C1859 0.980 . S
H1921 C1858 0.961 . S
H1922 C1858 0.960 . S
H1923 C1858 0.959 . S
H1924 C1861 0.930 . S
H1925 C1865 0.931 . S
H1926 C1866 0.959 . S
H1927 C1866 0.961 . S
H1928 C1866 0.959 . S
H1929 C1867 0.960 . S
H1930 C1867 0.960 . S
H1931 C1867 0.960 . S
H1932 C1903 0.980 . S
H1933 C1869 0.930 . S
H1934 C1873 0.930 . S
H1935 C1874 0.961 . S
H1936 C1874 0.960 . S
H1937 C1874 0.958 . S
H1938 C1875 0.961 . S
H1939 C1875 0.960 . S
H1940 C1875 0.960 . S
H1941 C1877 0.980 . S
H1942 C1876 0.961 . S
H1943 C1876 0.961 . S
H1944 C1876 0.959 . S
H1945 C1879 0.932 . S
H1946 C1883 0.929 . S
H1947 C1884 0.961 . S
H1948 C1884 0.959 . S
H1949 C1884 0.959 . S
H1950 C1885 0.960 . S
H1951 C1885 0.962 . S
H1952 C1885 0.961 . S
H1953 C1887 0.929 . S
H1954 C1890 0.930 . S
H1955 C1891 0.929 . S
H1956 C1894 0.930 . S
H1957 C1897 0.929 . S
H1958 C1898 0.930 . S
H1959 C1902 0.962 . S
H1960 C1902 0.959 . S
H1961 C1902 0.958 . S
C1962 C1963 1.560 . S
C1962 H2023 0.959 . S
C1962 H2024 0.959 . S
C1962 H2025 0.960 . S
C1963 C1962 1.560 . S
C1963 O2018 1.426 . S
C1963 H2022 0.980 . S
C1964 C1965 1.407 . S
C1964 C1969 1.418 . S
C1964 O2018 1.334 . S
C1965 C1964 1.407 . S
C1965 C1966 1.360 . S
C1965 H2026 0.929 . S
C1966 C1965 1.360 . S
C1966 C1967 1.401 . S
C1966 C1970 1.527 . S
C1967 C1966 1.401 . S
C1967 C1968 1.405 . S
C1967 C2000 1.587 . S
C1968 C1967 1.405 . S
C1968 C1969 1.332 . S
C1968 C1971 1.496 . S
C1969 C1964 1.418 . S
C1969 C1968 1.332 . S
C1969 H2027 0.929 . S
C1970 C1966 1.527 . S
C1970 H2028 0.959 . S
C1970 H2029 0.961 . S
C1970 H2030 0.961 . S
C1971 C1968 1.496 . S
C1971 H2031 0.960 . S
C1971 H2032 0.960 . S
C1971 H2033 0.961 . S
C1972 C1973 1.517 . S
C1972 H2035 0.961 . S
C1972 H2036 0.960 . S
C1972 H2037 0.959 . S
C1973 C1972 1.517 . S
C1973 O2021 1.468 . S
C1973 H2034 0.980 . S
C1974 C1975 1.349 . S
C1974 C1979 1.367 . S
C1974 O2021 1.408 . S
C1975 C1974 1.349 . S
C1975 C1976 1.407 . S
C1975 H2038 0.930 . S
C1976 C1975 1.407 . S
C1976 C1977 1.449 . S
C1976 C1980 1.535 . S
C1977 C1976 1.449 . S
C1977 C1978 1.384 . S
C1977 C2002 1.553 . S
C1978 C1977 1.384 . S
C1978 C1979 1.364 . S
C1978 C1981 1.450 . S
C1979 C1974 1.367 . S
C1979 C1978 1.364 . S
C1979 H2039 0.931 . S
C1980 C1976 1.535 . S
C1980 H2040 0.959 . S
C1980 H2041 0.961 . S
C1980 H2042 0.959 . S
C1981 C1978 1.450 . S
C1981 H2043 0.960 . S
C1981 H2044 0.960 . S
C1981 H2045 0.960 . S
C1982 C1983 1.309 . S
C1982 C1987 1.304 . S
C1982 O2020 1.435 . S
C1983 C1982 1.309 . S
C1983 C1984 1.476 . S
C1983 H2047 0.930 . S
C1984 C1983 1.476 . S
C1984 C1985 1.400 . S
C1984 C1988 1.567 . S
C1985 C1984 1.400 . S
C1985 C1986 1.373 . S
C1985 C2007 1.432 . S
C1986 C1985 1.373 . S
C1986 C1987 1.339 . S
C1986 C1989 1.530 . S
C1987 C1982 1.304 . S
C1987 C1986 1.339 . S
C1987 H2048 0.930 . S
C1988 C1984 1.567 . S
C1988 H2049 0.961 . S
C1988 H2050 0.960 . S
C1988 H2051 0.958 . S
C1989 C1986 1.530 . S
C1989 H2052 0.961 . S
C1989 H2053 0.960 . S
C1989 H2054 0.960 . S
C1990 C1991 1.530 . S
C1990 H2056 0.961 . S
C1990 H2057 0.961 . S
C1990 H2058 0.959 . S
C1991 C1990 1.530 . S
C1991 O2019 1.412 . S
C1991 H2055 0.980 . S
C1992 C1993 1.288 . S
C1992 C1997 1.377 . S
C1992 O2019 1.393 . S
C1993 C1992 1.288 . S
C1993 C1994 1.369 . S
C1993 H2059 0.932 . S
C1994 C1993 1.369 . S
C1994 C1995 1.398 . S
C1994 C1998 1.527 . S
C1995 C1994 1.398 . S
C1995 C1996 1.380 . S
C1995 C2009 1.497 . S
C1996 C1995 1.380 . S
C1996 C1997 1.383 . S
C1996 C1999 1.603 . S
C1997 C1992 1.377 . S
C1997 C1996 1.383 . S
C1997 H2060 0.929 . S
C1998 C1994 1.527 . S
C1998 H2061 0.961 . S
C1998 H2062 0.959 . S
C1998 H2063 0.959 . S
C1999 C1996 1.603 . S
C1999 H2064 0.960 . S
C1999 H2065 0.962 . S
C1999 H2066 0.961 . S
C2000 C1967 1.587 . S
C2000 C2001 1.360 . S
C2000 C2013 1.412 . S
C2001 C2000 1.360 . S
C2001 C2002 1.365 . S
C2001 H2067 0.929 . S
C2002 C1977 1.553 . S
C2002 C2001 1.365 . S
C2002 C2003 1.404 . S
C2003 C2002 1.404 . S
C2003 C2004 1.395 . S
C2003 C2014 1.451 . S
C2004 C2003 1.395 . S
C2004 C2005 1.322 . S
C2004 H2068 0.930 . S
C2005 C2004 1.322 . S
C2005 C2006 1.459 . S
C2005 H2069 0.929 . S
C2006 C2005 1.459 . S
C2006 C2007 1.445 . S
C2006 C2015 1.395 . S
C2007 C1985 1.432 . S
C2007 C2006 1.445 . S
C2007 C2008 1.370 . S
C2008 C2007 1.370 . S
C2008 C2009 1.438 . S
C2008 H2070 0.930 . S
C2009 C1995 1.497 . S
C2009 C2008 1.438 . S
C2009 C2010 1.360 . S
C2010 C2009 1.360 . S
C2010 C2011 1.401 . S
C2010 C2015 1.446 . S
C2011 C2010 1.401 . S
C2011 C2012 1.347 . S
C2011 H2071 0.929 . S
C2012 C2011 1.347 . S
C2012 C2013 1.455 . S
C2012 H2072 0.930 . S
C2013 C2000 1.412 . S
C2013 C2012 1.455 . S
C2013 C2014 1.331 . S
C2014 C2003 1.451 . S
C2014 C2013 1.331 . S
C2014 C2015 1.497 . S
C2015 C2006 1.395 . S
C2015 C2010 1.446 . S
C2015 C2014 1.497 . S
C2016 C2017 1.582 . S
C2016 H2073 0.962 . S
C2016 H2074 0.959 . S
C2016 H2075 0.958 . S
C2017 C2016 1.582 . S
C2017 O2020 1.458 . S
C2017 H2046 0.980 . S
O2018 C1963 1.426 . S
O2018 C1964 1.334 . S
O2019 C1991 1.412 . S
O2019 C1992 1.393 . S
O2020 C1982 1.435 . S
O2020 C2017 1.458 . S
O2021 C1973 1.468 . S
O2021 C1974 1.408 . S
H2022 C1963 0.980 . S
H2023 C1962 0.959 . S
H2024 C1962 0.959 . S
H2025 C1962 0.960 . S
H2026 C1965 0.929 . S
H2027 C1969 0.929 . S
H2028 C1970 0.959 . S
H2029 C1970 0.961 . S
H2030 C1970 0.961 . S
H2031 C1971 0.960 . S
H2032 C1971 0.960 . S
H2033 C1971 0.961 . S
H2034 C1973 0.980 . S
H2035 C1972 0.961 . S
H2036 C1972 0.960 . S
H2037 C1972 0.959 . S
H2038 C1975 0.930 . S
H2039 C1979 0.931 . S
H2040 C1980 0.959 . S
H2041 C1980 0.961 . S
H2042 C1980 0.959 . S
H2043 C1981 0.960 . S
H2044 C1981 0.960 . S
H2045 C1981 0.960 . S
H2046 C2017 0.980 . S
H2047 C1983 0.930 . S
H2048 C1987 0.930 . S
H2049 C1988 0.961 . S
H2050 C1988 0.960 . S
H2051 C1988 0.958 . S
H2052 C1989 0.961 . S
H2053 C1989 0.960 . S
H2054 C1989 0.960 . S
H2055 C1991 0.980 . S
H2056 C1990 0.961 . S
H2057 C1990 0.961 . S
H2058 C1990 0.959 . S
H2059 C1993 0.932 . S
H2060 C1997 0.929 . S
H2061 C1998 0.961 . S
H2062 C1998 0.959 . S
H2063 C1998 0.959 . S
H2064 C1999 0.960 . S
H2065 C1999 0.962 . S
H2066 C1999 0.961 . S
H2067 C2001 0.929 . S
H2068 C2004 0.930 . S
H2069 C2005 0.929 . S
H2070 C2008 0.930 . S
H2071 C2011 0.929 . S
H2072 C2012 0.930 . S
H2073 C2016 0.962 . S
H2074 C2016 0.959 . S
H2075 C2016 0.958 . S
C2076 C2077 1.560 . S
C2076 H2137 0.959 . S
C2076 H2138 0.959 . S
C2076 H2139 0.960 . S
C2077 C2076 1.560 . S
C2077 O2132 1.426 . S
C2077 H2136 0.980 . S
C2078 C2079 1.407 . S
C2078 C2083 1.418 . S
C2078 O2132 1.334 . S
C2079 C2078 1.407 . S
C2079 C2080 1.360 . S
C2079 H2140 0.929 . S
C2080 C2079 1.360 . S
C2080 C2081 1.401 . S
C2080 C2084 1.527 . S
C2081 C2080 1.401 . S
C2081 C2082 1.405 . S
C2081 C2114 1.587 . S
C2082 C2081 1.405 . S
C2082 C2083 1.332 . S
C2082 C2085 1.496 . S
C2083 C2078 1.418 . S
C2083 C2082 1.332 . S
C2083 H2141 0.929 . S
C2084 C2080 1.527 . S
C2084 H2142 0.959 . S
C2084 H2143 0.961 . S
C2084 H2144 0.961 . S
C2085 C2082 1.496 . S
C2085 H2145 0.960 . S
C2085 H2146 0.960 . S
C2085 H2147 0.961 . S
C2086 C2087 1.517 . S
C2086 H2149 0.961 . S
C2086 H2150 0.960 . S
C2086 H2151 0.959 . S
C2087 C2086 1.517 . S
C2087 O2135 1.468 . S
C2087 H2148 0.980 . S
C2088 C2089 1.349 . S
C2088 C2093 1.367 . S
C2088 O2135 1.408 . S
C2089 C2088 1.349 . S
C2089 C2090 1.407 . S
C2089 H2152 0.930 . S
C2090 C2089 1.407 . S
C2090 C2091 1.449 . S
C2090 C2094 1.535 . S
C2091 C2090 1.449 . S
C2091 C2092 1.384 . S
C2091 C2116 1.553 . S
C2092 C2091 1.384 . S
C2092 C2093 1.364 . S
C2092 C2095 1.450 . S
C2093 C2088 1.367 . S
C2093 C2092 1.364 . S
C2093 H2153 0.931 . S
C2094 C2090 1.535 . S
C2094 H2154 0.959 . S
C2094 H2155 0.961 . S
C2094 H2156 0.959 . S
C2095 C2092 1.450 . S
C2095 H2157 0.960 . S
C2095 H2158 0.960 . S
C2095 H2159 0.960 . S
C2096 C2097 1.309 . S
C2096 C2101 1.304 . S
C2096 O2134 1.435 . S
C2097 C2096 1.309 . S
C2097 C2098 1.476 . S
C2097 H2161 0.930 . S
C2098 C2097 1.476 . S
C2098 C2099 1.400 . S
C2098 C2102 1.567 . S
C2099 C2098 1.400 . S
C2099 C2100 1.373 . S
C2099 C2121 1.432 . S
C2100 C2099 1.373 . S
C2100 C2101 1.339 . S
C2100 C2103 1.530 . S
C2101 C2096 1.304 . S
C2101 C2100 1.339 . S
C2101 H2162 0.930 . S
C2102 C2098 1.567 . S
C2102 H2163 0.961 . S
C2102 H2164 0.960 . S
C2102 H2165 0.958 . S
C2103 C2100 1.530 . S
C2103 H2166 0.961 . S
C2103 H2167 0.960 . S
C2103 H2168 0.960 . S
C2104 C2105 1.530 . S
C2104 H2170 0.961 . S
C2104 H2171 0.961 . S
C2104 H2172 0.959 . S
C2105 C2104 1.530 . S
C2105 O2133 1.412 . S
C2105 H2169 0.980 . S
C2106 C2107 1.288 . S
C2106 C2111 1.377 . S
C2106 O2133 1.393 . S
C2107 C2106 1.288 . S
C2107 C2108 1.369 . S
C2107 H2173 0.932 . S
C2108 C2107 1.369 . S
C2108 C2109 1.398 . S
C2108 C2112 1.527 . S
C2109 C2108 1.398 . S
C2109 C2110 1.380 . S
C2109 C2123 1.497 . S
C2110 C2109 1.380 . S
C2110 C2111 1.383 . S
C2110 C2113 1.603 . S
C2111 C2106 1.377 . S
C2111 C2110 1.383 . S
C2111 H2174 0.929 . S
C2112 C2108 1.527 . S
C2112 H2175 0.961 . S
C2112 H2176 0.959 . S
C2112 H2177 0.959 . S
C2113 C2110 1.603 . S
C2113 H2178 0.960 . S
C2113 H2179 0.962 . S
C2113 H2180 0.961 . S
C2114 C2081 1.587 . S
C2114 C2115 1.360 . S
C2114 C2127 1.412 . S
C2115 C2114 1.360 . S
C2115 C2116 1.365 . S
C2115 H2181 0.929 . S
C2116 C2091 1.553 . S
C2116 C2115 1.365 . S
C2116 C2117 1.404 . S
C2117 C2116 1.404 . S
C2117 C2118 1.395 . S
C2117 C2128 1.451 . S
C2118 C2117 1.395 . S
C2118 C2119 1.322 . S
C2118 H2182 0.930 . S
C2119 C2118 1.322 . S
C2119 C2120 1.459 . S
C2119 H2183 0.929 . S
C2120 C2119 1.459 . S
C2120 C2121 1.445 . S
C2120 C2129 1.395 . S
C2121 C2099 1.432 . S
C2121 C2120 1.445 . S
C2121 C2122 1.370 . S
C2122 C2121 1.370 . S
C2122 C2123 1.438 . S
C2122 H2184 0.930 . S
C2123 C2109 1.497 . S
C2123 C2122 1.438 . S
C2123 C2124 1.360 . S
C2124 C2123 1.360 . S
C2124 C2125 1.401 . S
C2124 C2129 1.446 . S
C2125 C2124 1.401 . S
C2125 C2126 1.347 . S
C2125 H2185 0.929 . S
C2126 C2125 1.347 . S
C2126 C2127 1.455 . S
C2126 H2186 0.930 . S
C2127 C2114 1.412 . S
C2127 C2126 1.455 . S
C2127 C2128 1.331 . S
C2128 C2117 1.451 . S
C2128 C2127 1.331 . S
C2128 C2129 1.497 . S
C2129 C2120 1.395 . S
C2129 C2124 1.446 . S
C2129 C2128 1.497 . S
C2130 C2131 1.582 . S
C2130 H2187 0.962 . S
C2130 H2188 0.959 . S
C2130 H2189 0.958 . S
C2131 C2130 1.582 . S
C2131 O2134 1.458 . S
C2131 H2160 0.980 . S
O2132 C2077 1.426 . S
O2132 C2078 1.334 . S
O2133 C2105 1.412 . S
O2133 C2106 1.393 . S
O2134 C2096 1.435 . S
O2134 C2131 1.458 . S
O2135 C2087 1.468 . S
O2135 C2088 1.408 . S
H2136 C2077 0.980 . S
H2137 C2076 0.959 . S
H2138 C2076 0.959 . S
H2139 C2076 0.960 . S
H2140 C2079 0.929 . S
H2141 C2083 0.929 . S
H2142 C2084 0.959 . S
H2143 C2084 0.961 . S
H2144 C2084 0.961 . S
H2145 C2085 0.960 . S
H2146 C2085 0.960 . S
H2147 C2085 0.961 . S
H2148 C2087 0.980 . S
H2149 C2086 0.961 . S
H2150 C2086 0.960 . S
H2151 C2086 0.959 . S
H2152 C2089 0.930 . S
H2153 C2093 0.931 . S
H2154 C2094 0.959 . S
H2155 C2094 0.961 . S
H2156 C2094 0.959 . S
H2157 C2095 0.960 . S
H2158 C2095 0.960 . S
H2159 C2095 0.960 . S
H2160 C2131 0.980 . S
H2161 C2097 0.930 . S
H2162 C2101 0.930 . S
H2163 C2102 0.961 . S
H2164 C2102 0.960 . S
H2165 C2102 0.958 . S
H2166 C2103 0.961 . S
H2167 C2103 0.960 . S
H2168 C2103 0.960 . S
H2169 C2105 0.980 . S
H2170 C2104 0.961 . S
H2171 C2104 0.961 . S
H2172 C2104 0.959 . S
H2173 C2107 0.932 . S
H2174 C2111 0.929 . S
H2175 C2112 0.961 . S
H2176 C2112 0.959 . S
H2177 C2112 0.959 . S
H2178 C2113 0.960 . S
H2179 C2113 0.962 . S
H2180 C2113 0.961 . S
H2181 C2115 0.929 . S
H2182 C2118 0.930 . S
H2183 C2119 0.929 . S
H2184 C2122 0.930 . S
H2185 C2125 0.929 . S
H2186 C2126 0.930 . S
H2187 C2130 0.962 . S
H2188 C2130 0.959 . S
H2189 C2130 0.958 . S
C2190 C2191 1.560 . S
C2190 H2251 0.959 . S
C2190 H2252 0.959 . S
C2190 H2253 0.960 . S
C2191 C2190 1.560 . S
C2191 O2246 1.426 . S
C2191 H2250 0.980 . S
C2192 C2193 1.407 . S
C2192 C2197 1.418 . S
C2192 O2246 1.334 . S
C2193 C2192 1.407 . S
C2193 C2194 1.360 . S
C2193 H2254 0.929 . S
C2194 C2193 1.360 . S
C2194 C2195 1.401 . S
C2194 C2198 1.527 . S
C2195 C2194 1.401 . S
C2195 C2196 1.405 . S
C2195 C2228 1.587 . S
C2196 C2195 1.405 . S
C2196 C2197 1.332 . S
C2196 C2199 1.496 . S
C2197 C2192 1.418 . S
C2197 C2196 1.332 . S
C2197 H2255 0.929 . S
C2198 C2194 1.527 . S
C2198 H2256 0.959 . S
C2198 H2257 0.961 . S
C2198 H2258 0.961 . S
C2199 C2196 1.496 . S
C2199 H2259 0.960 . S
C2199 H2260 0.960 . S
C2199 H2261 0.961 . S
C2200 C2201 1.517 . S
C2200 H2263 0.961 . S
C2200 H2264 0.960 . S
C2200 H2265 0.959 . S
C2201 C2200 1.517 . S
C2201 O2249 1.468 . S
C2201 H2262 0.980 . S
C2202 C2203 1.349 . S
C2202 C2207 1.367 . S
C2202 O2249 1.408 . S
C2203 C2202 1.349 . S
C2203 C2204 1.407 . S
C2203 H2266 0.930 . S
C2204 C2203 1.407 . S
C2204 C2205 1.449 . S
C2204 C2208 1.535 . S
C2205 C2204 1.449 . S
C2205 C2206 1.384 . S
C2205 C2230 1.553 . S
C2206 C2205 1.384 . S
C2206 C2207 1.364 . S
C2206 C2209 1.450 . S
C2207 C2202 1.367 . S
C2207 C2206 1.364 . S
C2207 H2267 0.931 . S
C2208 C2204 1.535 . S
C2208 H2268 0.959 . S
C2208 H2269 0.961 . S
C2208 H2270 0.959 . S
C2209 C2206 1.450 . S
C2209 H2271 0.960 . S
C2209 H2272 0.960 . S
C2209 H2273 0.960 . S
C2210 C2211 1.309 . S
C2210 C2215 1.304 . S
C2210 O2248 1.435 . S
C2211 C2210 1.309 . S
C2211 C2212 1.476 . S
C2211 H2275 0.930 . S
C2212 C2211 1.476 . S
C2212 C2213 1.400 . S
C2212 C2216 1.567 . S
C2213 C2212 1.400 . S
C2213 C2214 1.373 . S
C2213 C2235 1.432 . S
C2214 C2213 1.373 . S
C2214 C2215 1.339 . S
C2214 C2217 1.530 . S
C2215 C2210 1.304 . S
C2215 C2214 1.339 . S
C2215 H2276 0.930 . S
C2216 C2212 1.567 . S
C2216 H2277 0.961 . S
C2216 H2278 0.960 . S
C2216 H2279 0.958 . S
C2217 C2214 1.530 . S
C2217 H2280 0.961 . S
C2217 H2281 0.960 . S
C2217 H2282 0.960 . S
C2218 C2219 1.530 . S
C2218 H2284 0.961 . S
C2218 H2285 0.961 . S
C2218 H2286 0.959 . S
C2219 C2218 1.530 . S
C2219 O2247 1.412 . S
C2219 H2283 0.980 . S
C2220 C2221 1.288 . S
C2220 C2225 1.377 . S
C2220 O2247 1.393 . S
C2221 C2220 1.288 . S
C2221 C2222 1.369 . S
C2221 H2287 0.932 . S
C2222 C2221 1.369 . S
C2222 C2223 1.398 . S
C2222 C2226 1.527 . S
C2223 C2222 1.398 . S
C2223 C2224 1.380 . S
C2223 C2237 1.497 . S
C2224 C2223 1.380 . S
C2224 C2225 1.383 . S
C2224 C2227 1.603 . S
C2225 C2220 1.377 . S
C2225 C2224 1.383 . S
C2225 H2288 0.929 . S
C2226 C2222 1.527 . S
C2226 H2289 0.961 . S
C2226 H2290 0.959 . S
C2226 H2291 0.959 . S
C2227 C2224 1.603 . S
C2227 H2292 0.960 . S
C2227 H2293 0.962 . S
C2227 H2294 0.961 . S
C2228 C2195 1.587 . S
C2228 C2229 1.360 . S
C2228 C2241 1.412 . S
C2229 C2228 1.360 . S
C2229 C2230 1.365 . S
C2229 H2295 0.929 . S
C2230 C2205 1.553 . S
C2230 C2229 1.365 . S
C2230 C2231 1.404 . S
C2231 C2230 1.404 . S
C2231 C2232 1.395 . S
C2231 C2242 1.451 . S
C2232 C2231 1.395 . S
C2232 C2233 1.322 . S
C2232 H2296 0.930 . S
C2233 C2232 1.322 . S
C2233 C2234 1.459 . S
C2233 H2297 0.929 . S
C2234 C2233 1.459 . S
C2234 C2235 1.445 . S
C2234 C2243 1.395 . S
C2235 C2213 1.432 . S
C2235 C2234 1.445 . S
C2235 C2236 1.370 . S
C2236 C2235 1.370 . S
C2236 C2237 1.438 . S
C2236 H2298 0.930 . S
C2237 C2223 1.497 . S
C2237 C2236 1.438 . S
C2237 C2238 1.360 . S
C2238 C2237 1.360 . S
C2238 C2239 1.401 . S
C2238 C2243 1.446 . S
C2239 C2238 1.401 . S
C2239 C2240 1.347 . S
C2239 H2299 0.929 . S
C2240 C2239 1.347 . S
C2240 C2241 1.455 . S
C2240 H2300 0.930 . S
C2241 C2228 1.412 . S
C2241 C2240 1.455 . S
C2241 C2242 1.331 . S
C2242 C2231 1.451 . S
C2242 C2241 1.331 . S
C2242 C2243 1.497 . S
C2243 C2234 1.395 . S
C2243 C2238 1.446 . S
C2243 C2242 1.497 . S
C2244 C2245 1.582 . S
C2244 H2301 0.962 . S
C2244 H2302 0.959 . S
C2244 H2303 0.958 . S
C2245 C2244 1.582 . S
C2245 O2248 1.458 . S
C2245 H2274 0.980 . S
O2246 C2191 1.426 . S
O2246 C2192 1.334 . S
O2247 C2219 1.412 . S
O2247 C2220 1.393 . S
O2248 C2210 1.435 . S
O2248 C2245 1.458 . S
O2249 C2201 1.468 . S
O2249 C2202 1.408 . S
H2250 C2191 0.980 . S
H2251 C2190 0.959 . S
H2252 C2190 0.959 . S
H2253 C2190 0.960 . S
H2254 C2193 0.929 . S
H2255 C2197 0.929 . S
H2256 C2198 0.959 . S
H2257 C2198 0.961 . S
H2258 C2198 0.961 . S
H2259 C2199 0.960 . S
H2260 C2199 0.960 . S
H2261 C2199 0.961 . S
H2262 C2201 0.980 . S
H2263 C2200 0.961 . S
H2264 C2200 0.960 . S
H2265 C2200 0.959 . S
H2266 C2203 0.930 . S
H2267 C2207 0.931 . S
H2268 C2208 0.959 . S
H2269 C2208 0.961 . S
H2270 C2208 0.959 . S
H2271 C2209 0.960 . S
H2272 C2209 0.960 . S
H2273 C2209 0.960 . S
H2274 C2245 0.980 . S
H2275 C2211 0.930 . S
H2276 C2215 0.930 . S
H2277 C2216 0.961 . S
H2278 C2216 0.960 . S
H2279 C2216 0.958 . S
H2280 C2217 0.961 . S
H2281 C2217 0.960 . S
H2282 C2217 0.960 . S
H2283 C2219 0.980 . S
H2284 C2218 0.961 . S
H2285 C2218 0.961 . S
H2286 C2218 0.959 . S
H2287 C2221 0.932 . S
H2288 C2225 0.929 . S
H2289 C2226 0.961 . S
H2290 C2226 0.959 . S
H2291 C2226 0.959 . S
H2292 C2227 0.960 . S
H2293 C2227 0.962 . S
H2294 C2227 0.961 . S
H2295 C2229 0.929 . S
H2296 C2232 0.930 . S
H2297 C2233 0.929 . S
H2298 C2236 0.930 . S
H2299 C2239 0.929 . S
H2300 C2240 0.930 . S
H2301 C2244 0.962 . S
H2302 C2244 0.959 . S
H2303 C2244 0.958 . S
C2304 C2305 1.391 . S
C2304 C2306 1.394 . S
C2304 H2320 0.931 . S
C2305 C2304 1.391 . S
C2305 C2309 1.376 1_655 S
C2306 C2304 1.394 . S
C2306 C2307 1.369 . S
C2306 C2310 1.531 . S
C2307 C2306 1.369 . S
C2307 C2308 1.410 1_655 S
C2307 C2315 1.503 . S
C2308 C2307 1.410 1_455 S
C2308 C2309 1.392 . S
C2308 C2311 1.511 . S
C2309 C2305 1.376 1_455 S
C2309 C2308 1.392 . S
C2309 H2321 0.929 . S
C2310 C2306 1.531 . S
C2310 H2322 0.960 . S
C2310 H2323 0.962 . S
C2310 H2324 0.960 . S
C2311 C2308 1.511 . S
C2311 H2325 0.961 . S
C2311 H2326 0.961 . S
C2311 H2327 0.961 . S
C2312 C2313 1.370 . S
C2312 C2314 1.363 . S
C2312 H2328 0.935 1_655 S
C2313 C2312 1.370 . S
C2313 C2317 1.408 . S
C2314 C2312 1.363 . S
C2314 C2315 1.370 . S
C2314 C2318 1.524 1_655 S
C2315 C2307 1.503 . S
C2315 C2314 1.370 . S
C2315 C2316 1.403 . S
C2316 C2315 1.403 . S
C2316 C2317 1.404 . S
C2316 C2319 1.539 . S
C2317 C2313 1.408 . S
C2317 C2316 1.404 . S
C2317 H2329 0.930 . S
C2318 C2314 1.524 1_455 S
C2318 H2330 0.956 1_455 S
C2318 H2331 0.961 . S
C2318 H2332 0.961 . S
C2319 C2316 1.539 . S
C2319 H2333 0.958 . S
C2319 H2334 0.961 . S
C2319 H2335 0.960 . S
H2320 C2304 0.931 . S
H2321 C2309 0.929 . S
H2322 C2310 0.960 . S
H2323 C2310 0.962 . S
H2324 C2310 0.960 . S
H2325 C2311 0.961 . S
H2326 C2311 0.961 . S
H2327 C2311 0.961 . S
H2328 C2312 0.935 1_455 S
H2329 C2317 0.930 . S
H2330 C2318 0.956 1_655 S
H2331 C2318 0.961 . S
H2332 C2318 0.961 . S
H2333 C2319 0.958 . S
H2334 C2319 0.961 . S
H2335 C2319 0.960 . S
C2336 C2337 1.391 . S
C2336 C2338 1.394 . S
C2336 H2352 0.931 . S
C2337 C2336 1.391 . S
C2337 C2341 1.376 . S
C2338 C2336 1.394 . S
C2338 C2339 1.369 . S
C2338 C2342 1.531 . S
C2339 C2338 1.369 . S
C2339 C2340 1.410 . S
C2339 C2347 1.503 . S
C2340 C2339 1.410 . S
C2340 C2341 1.392 . S
C2340 C2343 1.511 . S
C2341 C2337 1.376 . S
C2341 C2340 1.392 . S
C2341 H2353 0.929 . S
C2342 C2338 1.531 . S
C2342 H2354 0.960 . S
C2342 H2355 0.962 . S
C2342 H2356 0.960 . S
C2343 C2340 1.511 . S
C2343 H2357 0.961 . S
C2343 H2358 0.961 . S
C2343 H2359 0.961 . S
C2344 C2345 1.370 . S
C2344 C2346 1.363 . S
C2344 H2360 0.931 . S
C2345 C2344 1.370 . S
C2345 C2349 1.408 . S
C2346 C2344 1.363 . S
C2346 C2347 1.370 . S
C2346 C2350 1.524 . S
C2347 C2339 1.503 . S
C2347 C2346 1.370 . S
C2347 C2348 1.403 . S
C2348 C2347 1.403 . S
C2348 C2349 1.404 . S
C2348 C2351 1.539 . S
C2349 C2345 1.408 . S
C2349 C2348 1.404 . S
C2349 H2361 0.930 . S
C2350 C2346 1.524 . S
C2350 H2362 0.956 . S
C2350 H2363 0.961 . S
C2350 H2364 0.961 . S
C2351 C2348 1.539 . S
C2351 H2365 0.958 . S
C2351 H2366 0.961 . S
C2351 H2367 0.960 . S
H2352 C2336 0.931 . S
H2353 C2341 0.929 . S
H2354 C2342 0.960 . S
H2355 C2342 0.962 . S
H2356 C2342 0.960 . S
H2357 C2343 0.961 . S
H2358 C2343 0.961 . S
H2359 C2343 0.961 . S
H2360 C2344 0.931 . S
H2361 C2349 0.930 . S
H2362 C2350 0.956 . S
H2363 C2350 0.961 . S
H2364 C2350 0.961 . S
H2365 C2351 0.958 . S
H2366 C2351 0.961 . S
H2367 C2351 0.960 . S
C2368 C2369 1.391 . S
C2368 C2370 1.394 . S
C2368 H2384 0.931 . S
C2369 C2368 1.391 . S
C2369 C2373 1.376 . S
C2370 C2368 1.394 . S
C2370 C2371 1.369 . S
C2370 C2374 1.531 . S
C2371 C2370 1.369 . S
C2371 C2372 1.410 . S
C2371 C2379 1.503 . S
C2372 C2371 1.410 . S
C2372 C2373 1.392 . S
C2372 C2375 1.511 1_545 S
C2373 C2369 1.376 . S
C2373 C2372 1.392 . S
C2373 H2385 0.929 1_545 S
C2374 C2370 1.531 . S
C2374 H2386 0.960 . S
C2374 H2387 0.962 . S
C2374 H2388 0.960 . S
C2375 C2372 1.511 1_565 S
C2375 H2389 0.961 . S
C2375 H2390 0.961 . S
C2375 H2391 0.961 . S
C2376 C2377 1.370 . S
C2376 C2378 1.363 . S
C2376 H2392 0.931 . S
C2377 C2376 1.370 . S
C2377 C2381 1.408 . S
C2378 C2376 1.363 . S
C2378 C2379 1.370 . S
C2378 C2382 1.524 . S
C2379 C2371 1.503 . S
C2379 C2378 1.370 . S
C2379 C2380 1.403 . S
C2380 C2379 1.403 . S
C2380 C2381 1.404 . S
C2380 C2383 1.539 1_545 S
C2381 C2377 1.408 . S
C2381 C2380 1.404 . S
C2381 H2393 0.930 1_545 S
C2382 C2378 1.524 . S
C2382 H2394 0.956 . S
C2382 H2395 0.961 . S
C2382 H2396 0.961 . S
C2383 C2380 1.539 1_565 S
C2383 H2397 0.974 . S
C2383 H2398 0.961 . S
C2383 H2399 0.960 . S
H2384 C2368 0.931 . S
H2385 C2373 0.929 1_565 S
H2386 C2374 0.960 . S
H2387 C2374 0.962 . S
H2388 C2374 0.960 . S
H2389 C2375 0.961 . S
H2390 C2375 0.961 . S
H2391 C2375 0.961 . S
H2392 C2376 0.931 . S
H2393 C2381 0.930 1_565 S
H2394 C2382 0.956 . S
H2395 C2382 0.961 . S
H2396 C2382 0.961 . S
H2397 C2383 0.974 . S
H2398 C2383 0.961 . S
H2399 C2383 0.960 . S
C2400 C2401 1.391 . S
C2400 C2402 1.394 . S
C2400 H2416 0.931 . S
C2401 C2400 1.391 . S
C2401 C2405 1.376 1_565 S
C2402 C2400 1.394 . S
C2402 C2403 1.369 . S
C2402 C2406 1.531 . S
C2403 C2402 1.369 . S
C2403 C2404 1.410 1_565 S
C2403 C2411 1.503 . S
C2404 C2403 1.410 1_545 S
C2404 C2405 1.392 . S
C2404 C2407 1.511 . S
C2405 C2401 1.376 1_545 S
C2405 C2404 1.392 . S
C2405 H2417 0.929 . S
C2406 C2402 1.531 . S
C2406 H2418 0.960 . S
C2406 H2419 0.962 . S
C2406 H2420 0.960 . S
C2407 C2404 1.511 . S
C2407 H2421 0.961 . S
C2407 H2422 0.961 . S
C2407 H2423 0.961 . S
C2408 C2409 1.370 1_545 S
C2408 C2410 1.363 . S
C2408 H2424 0.931 . S
C2409 C2408 1.370 1_565 S
C2409 C2413 1.408 . S
C2410 C2408 1.363 . S
C2410 C2411 1.370 1_545 S
C2410 C2414 1.524 . S
C2411 C2403 1.503 . S
C2411 C2410 1.370 1_565 S
C2411 C2412 1.403 . S
C2412 C2411 1.403 . S
C2412 C2413 1.404 . S
C2412 C2415 1.539 . S
C2413 C2409 1.408 . S
C2413 C2412 1.404 . S
C2413 H2425 0.930 . S
C2414 C2410 1.524 . S
C2414 H2426 0.956 . S
C2414 H2427 0.961 . S
C2414 H2428 0.961 . S
C2415 C2412 1.539 . S
C2415 H2429 0.958 . S
C2415 H2430 0.961 . S
C2415 H2431 0.960 . S
H2416 C2400 0.931 . S
H2417 C2405 0.929 . S
H2418 C2406 0.960 . S
H2419 C2406 0.962 . S
H2420 C2406 0.960 . S
H2421 C2407 0.961 . S
H2422 C2407 0.961 . S
H2423 C2407 0.961 . S
H2424 C2408 0.931 . S
H2425 C2413 0.930 . S
H2426 C2414 0.956 . S
H2427 C2414 0.961 . S
H2428 C2414 0.961 . S
H2429 C2415 0.958 . S
H2430 C2415 0.961 . S
H2431 C2415 0.960 . S
C2432 C2433 1.391 . S
C2432 C2434 1.394 . S
C2432 H2448 0.931 . S
C2433 C2432 1.391 . S
C2433 C2437 1.376 . S
C2434 C2432 1.394 . S
C2434 C2435 1.369 . S
C2434 C2438 1.531 . S
C2435 C2434 1.369 . S
C2435 C2436 1.410 . S
C2435 C2443 1.503 . S
C2436 C2435 1.410 . S
C2436 C2437 1.392 . S
C2436 C2439 1.511 1_455 S
C2437 C2433 1.376 . S
C2437 C2436 1.392 . S
C2437 H2449 0.929 1_455 S
C2438 C2434 1.531 . S
C2438 H2450 0.960 . S
C2438 H2451 0.962 . S
C2438 H2452 0.960 . S
C2439 C2436 1.511 1_655 S
C2439 H2453 0.961 . S
C2439 H2454 0.961 . S
C2439 H2455 0.961 . S
C2440 C2441 1.370 . S
C2440 C2442 1.363 . S
C2440 H2456 0.931 . S
C2441 C2440 1.370 . S
C2441 C2445 1.408 1_455 S
C2442 C2440 1.363 . S
C2442 C2443 1.370 . S
C2442 C2446 1.524 . S
C2443 C2435 1.503 . S
C2443 C2442 1.370 . S
C2443 C2444 1.403 1_455 S
C2444 C2443 1.403 1_655 S
C2444 C2445 1.404 . S
C2444 C2447 1.539 . S
C2445 C2441 1.408 1_655 S
C2445 C2444 1.404 . S
C2445 H2457 0.930 . S
C2446 C2442 1.524 . S
C2446 H2458 0.956 . S
C2446 H2459 0.961 . S
C2446 H2460 0.961 . S
C2447 C2444 1.539 . S
C2447 H2461 0.958 . S
C2447 H2462 0.961 . S
C2447 H2463 0.960 . S
H2448 C2432 0.931 . S
H2449 C2437 0.929 1_655 S
H2450 C2438 0.960 . S
H2451 C2438 0.962 . S
H2452 C2438 0.960 . S
H2453 C2439 0.961 . S
H2454 C2439 0.961 . S
H2455 C2439 0.961 . S
H2456 C2440 0.931 . S
H2457 C2445 0.930 . S
H2458 C2446 0.956 . S
H2459 C2446 0.961 . S
H2460 C2446 0.961 . S
H2461 C2447 0.958 . S
H2462 C2447 0.961 . S
H2463 C2447 0.960 . S
C2464 C2465 1.391 . S
C2464 C2466 1.394 . S
C2464 H2480 0.931 . S
C2465 C2464 1.391 . S
C2465 C2469 1.376 . S
C2466 C2464 1.394 . S
C2466 C2467 1.369 . S
C2466 C2470 1.531 . S
C2467 C2466 1.369 . S
C2467 C2468 1.410 . S
C2467 C2475 1.503 . S
C2468 C2467 1.410 . S
C2468 C2469 1.392 . S
C2468 C2471 1.511 . S
C2469 C2465 1.376 . S
C2469 C2468 1.392 . S
C2469 H2481 0.929 . S
C2470 C2466 1.531 . S
C2470 H2482 0.960 . S
C2470 H2483 0.962 . S
C2470 H2484 0.960 . S
C2471 C2468 1.511 . S
C2471 H2485 0.961 . S
C2471 H2486 0.961 . S
C2471 H2487 0.961 . S
C2472 C2473 1.370 . S
C2472 C2474 1.363 . S
C2472 H2488 0.931 . S
C2473 C2472 1.370 . S
C2473 C2477 1.408 . S
C2474 C2472 1.363 . S
C2474 C2475 1.370 . S
C2474 C2478 1.524 . S
C2475 C2467 1.503 . S
C2475 C2474 1.370 . S
C2475 C2476 1.403 . S
C2476 C2475 1.403 . S
C2476 C2477 1.404 . S
C2476 C2479 1.539 . S
C2477 C2473 1.408 . S
C2477 C2476 1.404 . S
C2477 H2489 0.930 . S
C2478 C2474 1.524 . S
C2478 H2490 0.956 . S
C2478 H2491 0.961 . S
C2478 H2492 0.961 . S
C2479 C2476 1.539 . S
C2479 H2493 0.958 . S
C2479 H2494 0.961 . S
C2479 H2495 0.960 . S
H2480 C2464 0.931 . S
H2481 C2469 0.929 . S
H2482 C2470 0.960 . S
H2483 C2470 0.962 . S
H2484 C2470 0.960 . S
H2485 C2471 0.961 . S
H2486 C2471 0.961 . S
H2487 C2471 0.961 . S
H2488 C2472 0.931 . S
H2489 C2477 0.930 . S
H2490 C2478 0.956 . S
H2491 C2478 0.961 . S
H2492 C2478 0.961 . S
H2493 C2479 0.958 . S
H2494 C2479 0.961 . S
H2495 C2479 0.960 . S
C2496 C2497 1.391 1_655 S
C2496 C2498 1.394 . S
C2496 H2512 0.931 . S
C2497 C2496 1.391 1_455 S
C2497 C2501 1.376 . S
C2498 C2496 1.394 . S
C2498 C2499 1.369 1_655 S
C2498 C2502 1.531 . S
C2499 C2498 1.369 1_455 S
C2499 C2500 1.410 . S
C2499 C2507 1.503 . S
C2500 C2499 1.410 . S
C2500 C2501 1.392 . S
C2500 C2503 1.511 . S
C2501 C2497 1.376 . S
C2501 C2500 1.392 . S
C2501 H2513 0.929 . S
C2502 C2498 1.531 . S
C2502 H2514 0.960 . S
C2502 H2515 0.962 . S
C2502 H2516 0.960 . S
C2503 C2500 1.511 . S
C2503 H2517 0.961 . S
C2503 H2518 0.961 . S
C2503 H2519 0.961 . S
C2504 C2505 1.370 . S
C2504 C2506 1.363 . S
C2504 H2520 0.931 . S
C2505 C2504 1.370 . S
C2505 C2509 1.408 1_455 S
C2506 C2504 1.363 . S
C2506 C2507 1.370 . S
C2506 C2510 1.524 . S
C2507 C2499 1.503 . S
C2507 C2506 1.370 . S
C2507 C2508 1.403 1_455 S
C2508 C2507 1.403 1_655 S
C2508 C2509 1.404 . S
C2508 C2511 1.539 . S
C2509 C2505 1.408 1_655 S
C2509 C2508 1.404 . S
C2509 H2521 0.930 . S
C2510 C2506 1.524 . S
C2510 H2522 0.956 . S
C2510 H2523 0.961 . S
C2510 H2524 0.961 . S
C2511 C2508 1.539 . S
C2511 H2525 0.958 . S
C2511 H2526 0.961 . S
C2511 H2527 0.958 1_655 S
H2512 C2496 0.931 . S
H2513 C2501 0.929 . S
H2514 C2502 0.960 . S
H2515 C2502 0.962 . S
H2516 C2502 0.960 . S
H2517 C2503 0.961 . S
H2518 C2503 0.961 . S
H2519 C2503 0.961 . S
H2520 C2504 0.931 . S
H2521 C2509 0.930 . S
H2522 C2510 0.956 . S
H2523 C2510 0.961 . S
H2524 C2510 0.961 . S
H2525 C2511 0.958 . S
H2526 C2511 0.961 . S
H2527 C2511 0.958 1_455 S
C2528 C2529 1.391 . S
C2528 C2530 1.394 . S
C2528 H2544 0.931 . S
C2529 C2528 1.391 . S
C2529 C2533 1.376 . S
C2530 C2528 1.394 . S
C2530 C2531 1.369 . S
C2530 C2534 1.531 . S
C2531 C2530 1.369 . S
C2531 C2532 1.410 . S
C2531 C2539 1.503 . S
C2532 C2531 1.410 . S
C2532 C2533 1.392 . S
C2532 C2535 1.511 . S
C2533 C2529 1.376 . S
C2533 C2532 1.392 . S
C2533 H2545 0.929 . S
C2534 C2530 1.531 . S
C2534 H2546 0.960 . S
C2534 H2547 0.962 . S
C2534 H2548 0.960 . S
C2535 C2532 1.511 . S
C2535 H2549 0.961 . S
C2535 H2550 0.961 . S
C2535 H2551 0.961 . S
C2536 C2537 1.370 . S
C2536 C2538 1.363 . S
C2536 H2552 0.931 . S
C2537 C2536 1.370 . S
C2537 C2541 1.408 . S
C2538 C2536 1.363 . S
C2538 C2539 1.370 . S
C2538 C2542 1.524 . S
C2539 C2531 1.503 . S
C2539 C2538 1.370 . S
C2539 C2540 1.403 . S
C2540 C2539 1.403 . S
C2540 C2541 1.404 . S
C2540 C2543 1.539 . S
C2541 C2537 1.408 . S
C2541 C2540 1.404 . S
C2541 H2553 0.930 . S
C2542 C2538 1.524 . S
C2542 H2554 0.956 . S
C2542 H2555 0.961 . S
C2542 H2556 0.961 . S
C2543 C2540 1.539 . S
C2543 H2557 0.958 . S
C2543 H2558 0.961 . S
C2543 H2559 0.960 . S
H2544 C2528 0.931 . S
H2545 C2533 0.929 . S
H2546 C2534 0.960 . S
H2547 C2534 0.962 . S
H2548 C2534 0.960 . S
H2549 C2535 0.961 . S
H2550 C2535 0.961 . S
H2551 C2535 0.961 . S
H2552 C2536 0.931 . S
H2553 C2541 0.930 . S
H2554 C2542 0.956 . S
H2555 C2542 0.961 . S
H2556 C2542 0.961 . S
H2557 C2543 0.958 . S
H2558 C2543 0.961 . S
H2559 C2543 0.960 . S
C2560 C2561 1.391 . S
C2560 C2562 1.394 . S
C2560 H2576 0.931 . S
C2561 C2560 1.391 . S
C2561 C2565 1.355 1_565 S
C2562 C2560 1.394 . S
C2562 C2563 1.369 . S
C2562 C2566 1.531 . S
C2563 C2562 1.369 . S
C2563 C2564 1.410 1_565 S
C2563 C2571 1.503 . S
C2564 C2563 1.410 1_545 S
C2564 C2565 1.422 . S
C2564 C2567 1.511 . S
C2565 C2561 1.355 1_545 S
C2565 C2564 1.422 . S
C2565 H2577 0.922 . S
C2566 C2562 1.531 . S
C2566 H2578 0.960 . S
C2566 H2579 0.962 . S
C2566 H2580 0.960 . S
C2567 C2564 1.511 . S
C2567 H2581 0.961 . S
C2567 H2582 0.961 . S
C2567 H2583 0.961 . S
C2568 C2569 1.370 . S
C2568 C2570 1.363 . S
C2568 H2584 0.931 . S
C2569 C2568 1.370 . S
C2569 C2573 1.408 1_565 S
C2570 C2568 1.363 . S
C2570 C2571 1.370 . S
C2570 C2574 1.524 . S
C2571 C2563 1.503 . S
C2571 C2570 1.370 . S
C2571 C2572 1.403 1_565 S
C2572 C2571 1.403 1_545 S
C2572 C2573 1.404 . S
C2572 C2575 1.539 . S
C2573 C2569 1.408 1_545 S
C2573 C2572 1.404 . S
C2573 H2585 0.930 . S
C2574 C2570 1.524 . S
C2574 H2586 0.956 . S
C2574 H2587 0.961 . S
C2574 H2588 0.961 . S
C2575 C2572 1.539 . S
C2575 H2589 0.958 . S
C2575 H2590 0.961 . S
C2575 H2591 0.960 . S
H2576 C2560 0.931 . S
H2577 C2565 0.922 . S
H2578 C2566 0.960 . S
H2579 C2566 0.962 . S
H2580 C2566 0.960 . S
H2581 C2567 0.961 . S
H2582 C2567 0.961 . S
H2583 C2567 0.961 . S
H2584 C2568 0.931 . S
H2585 C2573 0.930 . S
H2586 C2574 0.956 . S
H2587 C2574 0.961 . S
H2588 C2574 0.961 . S
H2589 C2575 0.958 . S
H2590 C2575 0.961 . S
H2591 C2575 0.960 . S
C2592 C2593 1.395 . S
C2592 C2594 1.413 1_545 S
C2592 H2608 0.915 1_545 S
C2593 C2592 1.395 . S
C2593 C2597 1.376 . S
C2594 C2592 1.413 1_565 S
C2594 C2595 1.369 1_565 S
C2594 C2598 1.531 . S
C2595 C2594 1.369 1_545 S
C2595 C2596 1.410 . S
C2595 C2603 1.503 . S
C2596 C2595 1.410 . S
C2596 C2597 1.392 . S
C2596 C2599 1.511 . S
C2597 C2593 1.376 . S
C2597 C2596 1.392 . S
C2597 H2609 0.929 . S
C2598 C2594 1.531 . S
C2598 H2610 0.960 . S
C2598 H2611 0.962 . S
C2598 H2612 0.960 . S
C2599 C2596 1.511 . S
C2599 H2613 0.961 . S
C2599 H2614 0.961 . S
C2599 H2615 0.961 . S
C2600 C2601 1.396 . S
C2600 C2602 1.363 . S
C2600 H2616 0.931 . S
C2601 C2600 1.396 . S
C2601 C2605 1.367 1_545 S
C2602 C2600 1.363 . S
C2602 C2603 1.370 . S
C2602 C2606 1.524 . S
C2603 C2595 1.503 . S
C2603 C2602 1.370 . S
C2603 C2604 1.403 1_545 S
C2604 C2603 1.403 1_565 S
C2604 C2605 1.404 . S
C2604 C2607 1.539 . S
C2605 C2601 1.367 1_565 S
C2605 C2604 1.404 . S
C2605 H2617 0.930 . S
C2606 C2602 1.524 . S
C2606 H2618 0.956 . S
C2606 H2619 0.961 . S
C2606 H2620 0.961 . S
C2607 C2604 1.539 . S
C2607 H2621 0.958 . S
C2607 H2622 0.961 . S
C2607 H2623 0.960 . S
H2608 C2592 0.915 1_565 S
H2609 C2597 0.929 . S
H2610 C2598 0.960 . S
H2611 C2598 0.962 . S
H2612 C2598 0.960 . S
H2613 C2599 0.961 . S
H2614 C2599 0.961 . S
H2615 C2599 0.961 . S
H2616 C2600 0.931 . S
H2617 C2605 0.930 . S
H2618 C2606 0.956 . S
H2619 C2606 0.961 . S
H2620 C2606 0.961 . S
H2621 C2607 0.958 . S
H2622 C2607 0.961 . S
H2623 C2607 0.960 . S
C2624 C2625 1.391 . S
C2624 C2626 1.394 . S
C2624 H2640 0.931 . S
C2625 C2624 1.391 . S
C2625 C2629 1.376 1_655 S
C2626 C2624 1.394 . S
C2626 C2627 1.369 . S
C2626 C2630 1.531 . S
C2627 C2626 1.369 . S
C2627 C2628 1.410 1_655 S
C2627 C2635 1.503 . S
C2628 C2627 1.410 1_455 S
C2628 C2629 1.393 . S
C2628 C2631 1.511 . S
C2629 C2625 1.376 1_455 S
C2629 C2628 1.393 . S
C2629 H2641 0.929 . S
C2630 C2626 1.531 . S
C2630 H2642 0.960 . S
C2630 H2643 0.962 . S
C2630 H2644 0.960 . S
C2631 C2628 1.511 . S
C2631 H2645 0.961 . S
C2631 H2646 0.961 . S
C2631 H2647 0.961 . S
C2632 C2633 1.370 . S
C2632 C2634 1.363 . S
C2632 H2648 0.931 . S
C2633 C2632 1.370 . S
C2633 C2637 1.408 1_655 S
C2634 C2632 1.363 . S
C2634 C2635 1.370 . S
C2634 C2638 1.524 . S
C2635 C2627 1.503 . S
C2635 C2634 1.370 . S
C2635 C2636 1.403 1_655 S
C2636 C2635 1.403 1_455 S
C2636 C2637 1.404 . S
C2636 C2639 1.539 . S
C2637 C2633 1.408 1_455 S
C2637 C2636 1.404 . S
C2637 H2649 0.930 . S
C2638 C2634 1.524 . S
C2638 H2650 0.956 . S
C2638 H2651 0.961 . S
C2638 H2652 0.961 . S
C2639 C2636 1.539 . S
C2639 H2653 0.958 . S
C2639 H2654 0.961 . S
C2639 H2655 0.960 . S
H2640 C2624 0.931 . S
H2641 C2629 0.929 . S
H2642 C2630 0.960 . S
H2643 C2630 0.962 . S
H2644 C2630 0.960 . S
H2645 C2631 0.961 . S
H2646 C2631 0.961 . S
H2647 C2631 0.961 . S
H2648 C2632 0.931 . S
H2649 C2637 0.930 . S
H2650 C2638 0.956 . S
H2651 C2638 0.961 . S
H2652 C2638 0.961 . S
H2653 C2639 0.958 . S
H2654 C2639 0.961 . S
H2655 C2639 0.960 . S
C2656 C2657 1.391 . S
C2656 C2658 1.394 . S
C2656 H2672 0.931 . S
C2657 C2656 1.391 . S
C2657 C2661 1.376 . S
C2658 C2656 1.394 . S
C2658 C2659 1.369 . S
C2658 C2662 1.531 . S
C2659 C2658 1.369 . S
C2659 C2660 1.410 . S
C2659 C2667 1.503 . S
C2660 C2659 1.410 . S
C2660 C2661 1.392 . S
C2660 C2663 1.511 . S
C2661 C2657 1.376 . S
C2661 C2660 1.392 . S
C2661 H2673 0.929 . S
C2662 C2658 1.531 . S
C2662 H2674 0.960 . S
C2662 H2675 0.962 . S
C2662 H2676 0.960 . S
C2663 C2660 1.511 . S
C2663 H2677 0.961 . S
C2663 H2678 0.961 . S
C2663 H2679 0.961 . S
C2664 C2665 1.370 . S
C2664 C2666 1.363 . S
C2664 H2680 0.931 . S
C2665 C2664 1.370 . S
C2665 C2669 1.408 . S
C2666 C2664 1.363 . S
C2666 C2667 1.370 . S
C2666 C2670 1.524 . S
C2667 C2659 1.503 . S
C2667 C2666 1.370 . S
C2667 C2668 1.403 . S
C2668 C2667 1.403 . S
C2668 C2669 1.404 . S
C2668 C2671 1.539 . S
C2669 C2665 1.408 . S
C2669 C2668 1.404 . S
C2669 H2681 0.930 . S
C2670 C2666 1.524 . S
C2670 H2682 0.956 . S
C2670 H2683 0.961 . S
C2670 H2684 0.961 . S
C2671 C2668 1.539 . S
C2671 H2685 0.958 . S
C2671 H2686 0.961 . S
C2671 H2687 0.960 . S
H2672 C2656 0.931 . S
H2673 C2661 0.929 . S
H2674 C2662 0.960 . S
H2675 C2662 0.962 . S
H2676 C2662 0.960 . S
H2677 C2663 0.961 . S
H2678 C2663 0.961 . S
H2679 C2663 0.961 . S
H2680 C2664 0.931 . S
H2681 C2669 0.930 . S
H2682 C2670 0.956 . S
H2683 C2670 0.961 . S
H2684 C2670 0.961 . S
H2685 C2671 0.958 . S
H2686 C2671 0.961 . S
H2687 C2671 0.960 . S
C2688 C2689 1.391 . S
C2688 C2690 1.394 . S
C2688 H2704 0.931 . S
C2689 C2688 1.391 . S
C2689 C2693 1.376 . S
C2690 C2688 1.394 . S
C2690 C2691 1.369 . S
C2690 C2694 1.531 . S
C2691 C2690 1.369 . S
C2691 C2692 1.410 . S
C2691 C2699 1.503 . S
C2692 C2691 1.410 . S
C2692 C2693 1.392 . S
C2692 C2695 1.511 . S
C2693 C2689 1.376 . S
C2693 C2692 1.392 . S
C2693 H2705 0.929 . S
C2694 C2690 1.531 . S
C2694 H2706 0.960 . S
C2694 H2707 0.962 . S
C2694 H2708 0.960 . S
C2695 C2692 1.511 . S
C2695 H2709 0.961 . S
C2695 H2710 0.961 . S
C2695 H2711 0.961 . S
C2696 C2697 1.370 . S
C2696 C2698 1.363 . S
C2696 H2712 0.931 . S
C2697 C2696 1.370 . S
C2697 C2701 1.408 . S
C2698 C2696 1.363 . S
C2698 C2699 1.370 . S
C2698 C2702 1.524 . S
C2699 C2691 1.503 . S
C2699 C2698 1.370 . S
C2699 C2700 1.403 . S
C2700 C2699 1.403 . S
C2700 C2701 1.404 . S
C2700 C2703 1.539 . S
C2701 C2697 1.408 . S
C2701 C2700 1.404 . S
C2701 H2713 0.930 . S
C2702 C2698 1.524 . S
C2702 H2714 0.956 . S
C2702 H2715 0.961 . S
C2702 H2716 0.961 . S
C2703 C2700 1.539 . S
C2703 H2717 0.958 . S
C2703 H2718 0.961 . S
C2703 H2719 0.960 . S
H2704 C2688 0.931 . S
H2705 C2693 0.929 . S
H2706 C2694 0.960 . S
H2707 C2694 0.962 . S
H2708 C2694 0.960 . S
H2709 C2695 0.961 . S
H2710 C2695 0.961 . S
H2711 C2695 0.961 . S
H2712 C2696 0.931 . S
H2713 C2701 0.930 . S
H2714 C2702 0.956 . S
H2715 C2702 0.961 . S
H2716 C2702 0.961 . S
H2717 C2703 0.958 . S
H2718 C2703 0.961 . S
H2719 C2703 0.960 . S
C2720 C2721 1.391 . S
C2720 C2722 1.394 . S
C2720 H2736 0.931 . S
C2721 C2720 1.391 . S
C2721 C2725 1.376 . S
C2722 C2720 1.394 . S
C2722 C2723 1.369 . S
C2722 C2726 1.531 . S
C2723 C2722 1.369 . S
C2723 C2724 1.410 . S
C2723 C2731 1.503 . S
C2724 C2723 1.410 . S
C2724 C2725 1.392 . S
C2724 C2727 1.511 . S
C2725 C2721 1.376 . S
C2725 C2724 1.392 . S
C2725 H2737 0.929 . S
C2726 C2722 1.531 . S
C2726 H2738 0.960 . S
C2726 H2739 0.962 . S
C2726 H2740 0.960 . S
C2727 C2724 1.511 . S
C2727 H2741 0.961 . S
C2727 H2742 0.961 . S
C2727 H2743 0.961 . S
C2728 C2729 1.370 . S
C2728 C2730 1.363 . S
C2728 H2744 0.931 . S
C2729 C2728 1.370 . S
C2729 C2733 1.408 . S
C2730 C2728 1.363 . S
C2730 C2731 1.370 . S
C2730 C2734 1.524 . S
C2731 C2723 1.503 . S
C2731 C2730 1.370 . S
C2731 C2732 1.403 . S
C2732 C2731 1.403 . S
C2732 C2733 1.404 . S
C2732 C2735 1.539 . S
C2733 C2729 1.408 . S
C2733 C2732 1.404 . S
C2733 H2745 0.930 . S
C2734 C2730 1.524 . S
C2734 H2746 0.956 . S
C2734 H2747 0.961 . S
C2734 H2748 0.961 . S
C2735 C2732 1.539 . S
C2735 H2749 0.958 . S
C2735 H2750 0.961 . S
C2735 H2751 0.960 . S
H2736 C2720 0.931 . S
H2737 C2725 0.929 . S
H2738 C2726 0.960 . S
H2739 C2726 0.962 . S
H2740 C2726 0.960 . S
H2741 C2727 0.961 . S
H2742 C2727 0.961 . S
H2743 C2727 0.961 . S
H2744 C2728 0.931 . S
H2745 C2733 0.930 . S
H2746 C2734 0.956 . S
H2747 C2734 0.961 . S
H2748 C2734 0.961 . S
H2749 C2735 0.958 . S
H2750 C2735 0.961 . S
H2751 C2735 0.960 . S
C2752 C2753 1.391 . S
C2752 C2754 1.394 . S
C2752 H2768 0.931 . S
C2753 C2752 1.391 . S
C2753 C2757 1.376 . S
C2754 C2752 1.394 . S
C2754 C2755 1.369 . S
C2754 C2758 1.531 . S
C2755 C2754 1.369 . S
C2755 C2756 1.410 . S
C2755 C2763 1.503 . S
C2756 C2755 1.410 . S
C2756 C2757 1.392 . S
C2756 C2759 1.511 . S
C2757 C2753 1.376 . S
C2757 C2756 1.392 . S
C2757 H2769 0.929 . S
C2758 C2754 1.531 . S
C2758 H2770 0.960 . S
C2758 H2771 0.962 . S
C2758 H2772 0.960 . S
C2759 C2756 1.511 . S
C2759 H2773 0.961 . S
C2759 H2774 0.961 . S
C2759 H2775 0.961 . S
C2760 C2761 1.370 . S
C2760 C2762 1.363 . S
C2760 H2776 0.931 . S
C2761 C2760 1.370 . S
C2761 C2765 1.408 . S
C2762 C2760 1.363 . S
C2762 C2763 1.370 . S
C2762 C2766 1.524 . S
C2763 C2755 1.503 . S
C2763 C2762 1.370 . S
C2763 C2764 1.403 . S
C2764 C2763 1.403 . S
C2764 C2765 1.404 . S
C2764 C2767 1.539 . S
C2765 C2761 1.408 . S
C2765 C2764 1.404 . S
C2765 H2777 0.930 . S
C2766 C2762 1.524 . S
C2766 H2778 0.956 . S
C2766 H2779 0.961 . S
C2766 H2780 0.961 . S
C2767 C2764 1.539 . S
C2767 H2781 0.958 . S
C2767 H2782 0.961 . S
C2767 H2783 0.960 . S
H2768 C2752 0.931 . S
H2769 C2757 0.929 . S
H2770 C2758 0.960 . S
H2771 C2758 0.962 . S
H2772 C2758 0.960 . S
H2773 C2759 0.961 . S
H2774 C2759 0.961 . S
H2775 C2759 0.961 . S
H2776 C2760 0.931 . S
H2777 C2765 0.930 . S
H2778 C2766 0.956 . S
H2779 C2766 0.961 . S
H2780 C2766 0.961 . S
H2781 C2767 0.958 . S
H2782 C2767 0.961 . S
H2783 C2767 0.960 . S
C2784 C2785 1.391 . S
C2784 C2786 1.394 . S
C2784 H2800 0.931 . S
C2785 C2784 1.391 . S
C2785 C2789 1.376 . S
C2786 C2784 1.394 . S
C2786 C2787 1.369 . S
C2786 C2790 1.531 . S
C2787 C2786 1.369 . S
C2787 C2788 1.410 . S
C2787 C2795 1.503 . S
C2788 C2787 1.410 . S
C2788 C2789 1.392 . S
C2788 C2791 1.511 . S
C2789 C2785 1.376 . S
C2789 C2788 1.392 . S
C2789 H2801 0.929 . S
C2790 C2786 1.531 . S
C2790 H2802 0.960 . S
C2790 H2803 0.962 . S
C2790 H2804 0.960 . S
C2791 C2788 1.511 . S
C2791 H2805 0.961 . S
C2791 H2806 0.961 . S
C2791 H2807 0.961 . S
C2792 C2793 1.370 . S
C2792 C2794 1.363 . S
C2792 H2808 0.931 . S
C2793 C2792 1.370 . S
C2793 C2797 1.408 . S
C2794 C2792 1.363 . S
C2794 C2795 1.370 . S
C2794 C2798 1.524 . S
C2795 C2787 1.503 . S
C2795 C2794 1.370 . S
C2795 C2796 1.403 . S
C2796 C2795 1.403 . S
C2796 C2797 1.404 . S
C2796 C2799 1.539 . S
C2797 C2793 1.408 . S
C2797 C2796 1.404 . S
C2797 H2809 0.930 . S
C2798 C2794 1.524 . S
C2798 H2810 0.956 . S
C2798 H2811 0.961 . S
C2798 H2812 0.961 . S
C2799 C2796 1.539 . S
C2799 H2813 0.958 . S
C2799 H2814 0.961 . S
C2799 H2815 0.960 . S
H2800 C2784 0.931 . S
H2801 C2789 0.929 . S
H2802 C2790 0.960 . S
H2803 C2790 0.962 . S
H2804 C2790 0.960 . S
H2805 C2791 0.961 . S
H2806 C2791 0.961 . S
H2807 C2791 0.961 . S
H2808 C2792 0.931 . S
H2809 C2797 0.930 . S
H2810 C2798 0.956 . S
H2811 C2798 0.961 . S
H2812 C2798 0.961 . S
H2813 C2799 0.958 . S
H2814 C2799 0.961 . S
H2815 C2799 0.960 . S
C2816 C2817 1.391 . S
C2816 C2818 1.394 . S
C2816 H2832 0.931 . S
C2817 C2816 1.391 . S
C2817 C2821 1.376 . S
C2818 C2816 1.394 . S
C2818 C2819 1.369 . S
C2818 C2822 1.531 . S
C2819 C2818 1.369 . S
C2819 C2820 1.410 . S
C2819 C2827 1.503 . S
C2820 C2819 1.410 . S
C2820 C2821 1.392 . S
C2820 C2823 1.511 . S
C2821 C2817 1.376 . S
C2821 C2820 1.392 . S
C2821 H2833 0.929 . S
C2822 C2818 1.531 . S
C2822 H2834 0.960 . S
C2822 H2835 0.962 . S
C2822 H2836 0.960 . S
C2823 C2820 1.511 . S
C2823 H2837 0.961 . S
C2823 H2838 0.961 . S
C2823 H2839 0.961 . S
C2824 C2825 1.370 . S
C2824 C2826 1.363 . S
C2824 H2840 0.931 . S
C2825 C2824 1.370 . S
C2825 C2829 1.408 . S
C2826 C2824 1.363 . S
C2826 C2827 1.370 . S
C2826 C2830 1.524 . S
C2827 C2819 1.503 . S
C2827 C2826 1.370 . S
C2827 C2828 1.403 . S
C2828 C2827 1.403 . S
C2828 C2829 1.404 . S
C2828 C2831 1.539 . S
C2829 C2825 1.408 . S
C2829 C2828 1.404 . S
C2829 H2841 0.930 . S
C2830 C2826 1.524 . S
C2830 H2842 0.956 . S
C2830 H2843 0.961 . S
C2830 H2844 0.961 . S
C2831 C2828 1.539 . S
C2831 H2845 0.958 . S
C2831 H2846 0.961 . S
C2831 H2847 0.960 . S
H2832 C2816 0.931 . S
H2833 C2821 0.929 . S
H2834 C2822 0.960 . S
H2835 C2822 0.962 . S
H2836 C2822 0.960 . S
H2837 C2823 0.961 . S
H2838 C2823 0.961 . S
H2839 C2823 0.961 . S
H2840 C2824 0.931 . S
H2841 C2829 0.930 . S
H2842 C2830 0.956 . S
H2843 C2830 0.961 . S
H2844 C2830 0.961 . S
H2845 C2831 0.958 . S
H2846 C2831 0.961 . S
H2847 C2831 0.960 . S
C2848 C2849 1.391 . S
C2848 C2850 1.394 . S
C2848 H2864 0.931 . S
C2849 C2848 1.391 . S
C2849 C2853 1.376 . S
C2850 C2848 1.394 . S
C2850 C2851 1.369 . S
C2850 C2854 1.531 . S
C2851 C2850 1.369 . S
C2851 C2852 1.410 . S
C2851 C2859 1.503 . S
C2852 C2851 1.410 . S
C2852 C2853 1.392 . S
C2852 C2855 1.511 . S
C2853 C2849 1.376 . S
C2853 C2852 1.392 . S
C2853 H2865 0.929 . S
C2854 C2850 1.531 . S
C2854 H2866 0.960 . S
C2854 H2867 0.962 . S
C2854 H2868 0.960 . S
C2855 C2852 1.511 . S
C2855 H2869 0.961 . S
C2855 H2870 0.961 . S
C2855 H2871 0.961 . S
C2856 C2857 1.370 . S
C2856 C2858 1.363 . S
C2856 H2872 0.931 . S
C2857 C2856 1.370 . S
C2857 C2861 1.408 . S
C2858 C2856 1.363 . S
C2858 C2859 1.370 . S
C2858 C2862 1.524 . S
C2859 C2851 1.503 . S
C2859 C2858 1.370 . S
C2859 C2860 1.403 . S
C2860 C2859 1.403 . S
C2860 C2861 1.404 . S
C2860 C2863 1.539 . S
C2861 C2857 1.408 . S
C2861 C2860 1.404 . S
C2861 H2873 0.930 . S
C2862 C2858 1.524 . S
C2862 H2874 0.956 . S
C2862 H2875 0.961 . S
C2862 H2876 0.961 . S
C2863 C2860 1.539 . S
C2863 H2877 0.958 . S
C2863 H2878 0.961 . S
C2863 H2879 0.960 . S
H2864 C2848 0.931 . S
H2865 C2853 0.929 . S
H2866 C2854 0.960 . S
H2867 C2854 0.962 . S
H2868 C2854 0.960 . S
H2869 C2855 0.961 . S
H2870 C2855 0.961 . S
H2871 C2855 0.961 . S
H2872 C2856 0.931 . S
H2873 C2861 0.930 . S
H2874 C2862 0.956 . S
H2875 C2862 0.961 . S
H2876 C2862 0.961 . S
H2877 C2863 0.958 . S
H2878 C2863 0.961 . S
H2879 C2863 0.960 . S
C2880 C2881 1.391 . S
C2880 C2882 1.394 . S
C2880 H2896 0.931 . S
C2881 C2880 1.391 . S
C2881 C2885 1.376 . S
C2882 C2880 1.394 . S
C2882 C2883 1.369 . S
C2882 C2886 1.531 . S
C2883 C2882 1.369 . S
C2883 C2884 1.410 . S
C2883 C2891 1.503 . S
C2884 C2883 1.410 . S
C2884 C2885 1.392 . S
C2884 C2887 1.511 . S
C2885 C2881 1.376 . S
C2885 C2884 1.392 . S
C2885 H2897 0.929 . S
C2886 C2882 1.531 . S
C2886 H2898 0.960 . S
C2886 H2899 0.962 . S
C2886 H2900 0.960 . S
C2887 C2884 1.511 . S
C2887 H2901 0.961 . S
C2887 H2902 0.961 . S
C2887 H2903 0.961 . S
C2888 C2889 1.370 . S
C2888 C2890 1.363 . S
C2888 H2904 0.931 . S
C2889 C2888 1.370 . S
C2889 C2893 1.408 . S
C2890 C2888 1.363 . S
C2890 C2891 1.370 . S
C2890 C2894 1.524 . S
C2891 C2883 1.503 . S
C2891 C2890 1.370 . S
C2891 C2892 1.403 . S
C2892 C2891 1.403 . S
C2892 C2893 1.404 . S
C2892 C2895 1.539 . S
C2893 C2889 1.408 . S
C2893 C2892 1.404 . S
C2893 H2905 0.930 . S
C2894 C2890 1.524 . S
C2894 H2906 0.956 . S
C2894 H2907 0.961 . S
C2894 H2908 0.961 . S
C2895 C2892 1.539 . S
C2895 H2909 0.958 . S
C2895 H2910 0.961 . S
C2895 H2911 0.960 . S
H2896 C2880 0.931 . S
H2897 C2885 0.929 . S
H2898 C2886 0.960 . S
H2899 C2886 0.962 . S
H2900 C2886 0.960 . S
H2901 C2887 0.961 . S
H2902 C2887 0.961 . S
H2903 C2887 0.961 . S
H2904 C2888 0.931 . S
H2905 C2893 0.930 . S
H2906 C2894 0.956 . S
H2907 C2894 0.961 . S
H2908 C2894 0.961 . S
H2909 C2895 0.958 . S
H2910 C2895 0.961 . S
H2911 C2895 0.960 . S
C2912 C2913 1.391 . S
C2912 C2914 1.394 . S
C2912 H2928 0.931 . S
C2913 C2912 1.391 . S
C2913 C2917 1.376 . S
C2914 C2912 1.394 . S
C2914 C2915 1.369 . S
C2914 C2918 1.531 . S
C2915 C2914 1.369 . S
C2915 C2916 1.410 . S
C2915 C2923 1.503 . S
C2916 C2915 1.410 . S
C2916 C2917 1.392 . S
C2916 C2919 1.511 . S
C2917 C2913 1.376 . S
C2917 C2916 1.392 . S
C2917 H2929 0.929 . S
C2918 C2914 1.531 . S
C2918 H2930 0.960 . S
C2918 H2931 0.962 . S
C2918 H2932 0.960 . S
C2919 C2916 1.511 . S
C2919 H2933 0.961 . S
C2919 H2934 0.961 . S
C2919 H2935 0.961 . S
C2920 C2921 1.370 . S
C2920 C2922 1.363 . S
C2920 H2936 0.931 . S
C2921 C2920 1.370 . S
C2921 C2925 1.408 . S
C2922 C2920 1.363 . S
C2922 C2923 1.370 . S
C2922 C2926 1.524 . S
C2923 C2915 1.503 . S
C2923 C2922 1.370 . S
C2923 C2924 1.403 . S
C2924 C2923 1.403 . S
C2924 C2925 1.404 . S
C2924 C2927 1.539 . S
C2925 C2921 1.408 . S
C2925 C2924 1.404 . S
C2925 H2937 0.930 . S
C2926 C2922 1.524 . S
C2926 H2938 0.956 . S
C2926 H2939 0.961 . S
C2926 H2940 0.961 . S
C2927 C2924 1.539 . S
C2927 H2941 0.958 . S
C2927 H2942 0.961 . S
C2927 H2943 0.960 . S
H2928 C2912 0.931 . S
H2929 C2917 0.929 . S
H2930 C2918 0.960 . S
H2931 C2918 0.962 . S
H2932 C2918 0.960 . S
H2933 C2919 0.961 . S
H2934 C2919 0.961 . S
H2935 C2919 0.961 . S
H2936 C2920 0.931 . S
H2937 C2925 0.930 . S
H2938 C2926 0.956 . S
H2939 C2926 0.961 . S
H2940 C2926 0.961 . S
H2941 C2927 0.958 . S
H2942 C2927 0.961 . S
H2943 C2927 0.960 . S
C2944 C2945 1.391 . S
C2944 C2946 1.394 . S
C2944 H2960 0.931 . S
C2945 C2944 1.391 . S
C2945 C2949 1.376 . S
C2946 C2944 1.394 . S
C2946 C2947 1.369 . S
C2946 C2950 1.531 . S
C2947 C2946 1.369 . S
C2947 C2948 1.410 . S
C2947 C2955 1.503 . S
C2948 C2947 1.410 . S
C2948 C2949 1.392 . S
C2948 C2951 1.511 . S
C2949 C2945 1.376 . S
C2949 C2948 1.392 . S
C2949 H2961 0.929 . S
C2950 C2946 1.531 . S
C2950 H2962 0.960 . S
C2950 H2963 0.962 . S
C2950 H2964 0.960 . S
C2951 C2948 1.511 . S
C2951 H2965 0.961 . S
C2951 H2966 0.961 . S
C2951 H2967 0.961 . S
C2952 C2953 1.370 . S
C2952 C2954 1.363 . S
C2952 H2968 0.931 . S
C2953 C2952 1.370 . S
C2953 C2957 1.408 . S
C2954 C2952 1.363 . S
C2954 C2955 1.370 . S
C2954 C2958 1.524 . S
C2955 C2947 1.503 . S
C2955 C2954 1.370 . S
C2955 C2956 1.403 . S
C2956 C2955 1.403 . S
C2956 C2957 1.404 . S
C2956 C2959 1.539 . S
C2957 C2953 1.408 . S
C2957 C2956 1.404 . S
C2957 H2969 0.930 . S
C2958 C2954 1.524 . S
C2958 H2970 0.956 . S
C2958 H2971 0.961 . S
C2958 H2972 0.961 . S
C2959 C2956 1.539 . S
C2959 H2973 0.958 . S
C2959 H2974 0.961 . S
C2959 H2975 0.960 . S
H2960 C2944 0.931 . S
H2961 C2949 0.929 . S
H2962 C2950 0.960 . S
H2963 C2950 0.962 . S
H2964 C2950 0.960 . S
H2965 C2951 0.961 . S
H2966 C2951 0.961 . S
H2967 C2951 0.961 . S
H2968 C2952 0.931 . S
H2969 C2957 0.930 . S
H2970 C2958 0.956 . S
H2971 C2958 0.961 . S
H2972 C2958 0.961 . S
H2973 C2959 0.958 . S
H2974 C2959 0.961 . S
H2975 C2959 0.960 . S
C2976 C2977 1.391 . S
C2976 C2978 1.394 . S
C2976 H2992 0.931 . S
C2977 C2976 1.391 . S
C2977 C2981 1.376 . S
C2978 C2976 1.394 . S
C2978 C2979 1.369 . S
C2978 C2982 1.531 . S
C2979 C2978 1.369 . S
C2979 C2980 1.410 . S
C2979 C2987 1.503 . S
C2980 C2979 1.410 . S
C2980 C2981 1.392 . S
C2980 C2983 1.511 . S
C2981 C2977 1.376 . S
C2981 C2980 1.392 . S
C2981 H2993 0.929 . S
C2982 C2978 1.531 . S
C2982 H2994 0.960 . S
C2982 H2995 0.962 . S
C2982 H2996 0.960 . S
C2983 C2980 1.511 . S
C2983 H2997 0.961 . S
C2983 H2998 0.961 . S
C2983 H2999 0.961 . S
C2984 C2985 1.370 . S
C2984 C2986 1.363 . S
C2984 H3000 0.931 . S
C2985 C2984 1.370 . S
C2985 C2989 1.408 . S
C2986 C2984 1.363 . S
C2986 C2987 1.370 . S
C2986 C2990 1.524 . S
C2987 C2979 1.503 . S
C2987 C2986 1.370 . S
C2987 C2988 1.403 . S
C2988 C2987 1.403 . S
C2988 C2989 1.404 . S
C2988 C2991 1.539 . S
C2989 C2985 1.408 . S
C2989 C2988 1.404 . S
C2989 H3001 0.930 . S
C2990 C2986 1.524 . S
C2990 H3002 0.956 . S
C2990 H3003 0.961 . S
C2990 H3004 0.961 . S
C2991 C2988 1.539 . S
C2991 H3005 0.958 . S
C2991 H3006 0.961 . S
C2991 H3007 0.960 . S
H2992 C2976 0.931 . S
H2993 C2981 0.929 . S
H2994 C2982 0.960 . S
H2995 C2982 0.962 . S
H2996 C2982 0.960 . S
H2997 C2983 0.961 . S
H2998 C2983 0.961 . S
H2999 C2983 0.961 . S
H3000 C2984 0.931 . S
H3001 C2989 0.930 . S
H3002 C2990 0.956 . S
H3003 C2990 0.961 . S
H3004 C2990 0.961 . S
H3005 C2991 0.958 . S
H3006 C2991 0.961 . S
H3007 C2991 0.960 . S
C3008 C3009 1.391 . S
C3008 C3010 1.394 . S
C3008 H3024 0.931 . S
C3009 C3008 1.391 . S
C3009 C3013 1.376 . S
C3010 C3008 1.394 . S
C3010 C3011 1.369 . S
C3010 C3014 1.531 . S
C3011 C3010 1.369 . S
C3011 C3012 1.410 . S
C3011 C3019 1.503 . S
C3012 C3011 1.410 . S
C3012 C3013 1.392 . S
C3012 C3015 1.511 . S
C3013 C3009 1.376 . S
C3013 C3012 1.392 . S
C3013 H3025 0.929 . S
C3014 C3010 1.531 . S
C3014 H3026 0.960 . S
C3014 H3027 0.962 . S
C3014 H3028 0.960 . S
C3015 C3012 1.511 . S
C3015 H3029 0.961 . S
C3015 H3030 0.961 . S
C3015 H3031 0.961 . S
C3016 C3017 1.370 . S
C3016 C3018 1.363 . S
C3016 H3032 0.931 . S
C3017 C3016 1.370 . S
C3017 C3021 1.408 . S
C3018 C3016 1.363 . S
C3018 C3019 1.370 . S
C3018 C3022 1.524 . S
C3019 C3011 1.503 . S
C3019 C3018 1.370 . S
C3019 C3020 1.403 . S
C3020 C3019 1.403 . S
C3020 C3021 1.404 . S
C3020 C3023 1.539 . S
C3021 C3017 1.408 . S
C3021 C3020 1.404 . S
C3021 H3033 0.930 . S
C3022 C3018 1.524 . S
C3022 H3034 0.956 . S
C3022 H3035 0.961 . S
C3022 H3036 0.961 . S
C3023 C3020 1.539 . S
C3023 H3037 0.958 . S
C3023 H3038 0.961 . S
C3023 H3039 0.960 . S
H3024 C3008 0.931 . S
H3025 C3013 0.929 . S
H3026 C3014 0.960 . S
H3027 C3014 0.962 . S
H3028 C3014 0.960 . S
H3029 C3015 0.961 . S
H3030 C3015 0.961 . S
H3031 C3015 0.961 . S
H3032 C3016 0.931 . S
H3033 C3021 0.930 . S
H3034 C3022 0.956 . S
H3035 C3022 0.961 . S
H3036 C3022 0.961 . S
H3037 C3023 0.958 . S
H3038 C3023 0.961 . S
H3039 C3023 0.960 . S
C3040 C3041 1.391 . S
C3040 C3042 1.394 . S
C3040 H3056 0.931 . S
C3041 C3040 1.391 . S
C3041 C3045 1.376 . S
C3042 C3040 1.394 . S
C3042 C3043 1.369 . S
C3042 C3046 1.531 . S
C3043 C3042 1.369 . S
C3043 C3044 1.410 . S
C3043 C3051 1.503 . S
C3044 C3043 1.410 . S
C3044 C3045 1.392 . S
C3044 C3047 1.511 . S
C3045 C3041 1.376 . S
C3045 C3044 1.392 . S
C3045 H3057 0.929 . S
C3046 C3042 1.531 . S
C3046 H3058 0.960 . S
C3046 H3059 0.962 . S
C3046 H3060 0.960 . S
C3047 C3044 1.511 . S
C3047 H3061 0.961 . S
C3047 H3062 0.961 . S
C3047 H3063 0.961 . S
C3048 C3049 1.370 . S
C3048 C3050 1.363 . S
C3048 H3064 0.931 . S
C3049 C3048 1.370 . S
C3049 C3053 1.408 . S
C3050 C3048 1.363 . S
C3050 C3051 1.370 . S
C3050 C3054 1.524 . S
C3051 C3043 1.503 . S
C3051 C3050 1.370 . S
C3051 C3052 1.403 . S
C3052 C3051 1.403 . S
C3052 C3053 1.404 . S
C3052 C3055 1.539 . S
C3053 C3049 1.408 . S
C3053 C3052 1.404 . S
C3053 H3065 0.930 . S
C3054 C3050 1.524 . S
C3054 H3066 0.956 . S
C3054 H3067 0.961 . S
C3054 H3068 0.961 . S
C3055 C3052 1.539 . S
C3055 H3069 0.958 . S
C3055 H3070 0.961 . S
C3055 H3071 0.960 . S
H3056 C3040 0.931 . S
H3057 C3045 0.929 . S
H3058 C3046 0.960 . S
H3059 C3046 0.962 . S
H3060 C3046 0.960 . S
H3061 C3047 0.961 . S
H3062 C3047 0.961 . S
H3063 C3047 0.961 . S
H3064 C3048 0.931 . S
H3065 C3053 0.930 . S
H3066 C3054 0.956 . S
H3067 C3054 0.961 . S
H3068 C3054 0.961 . S
H3069 C3055 0.958 . S
H3070 C3055 0.961 . S
H3071 C3055 0.960 . S
C3072 C3073 1.391 . S
C3072 C3074 1.394 . S
C3072 H3088 0.931 . S
C3073 C3072 1.391 . S
C3073 C3077 1.376 . S
C3074 C3072 1.394 . S
C3074 C3075 1.369 . S
C3074 C3078 1.531 . S
C3075 C3074 1.369 . S
C3075 C3076 1.410 . S
C3075 C3083 1.503 . S
C3076 C3075 1.410 . S
C3076 C3077 1.392 . S
C3076 C3079 1.511 . S
C3077 C3073 1.376 . S
C3077 C3076 1.392 . S
C3077 H3089 0.929 . S
C3078 C3074 1.531 . S
C3078 H3090 0.960 . S
C3078 H3091 0.962 . S
C3078 H3092 0.960 . S
C3079 C3076 1.511 . S
C3079 H3093 0.961 . S
C3079 H3094 0.961 . S
C3079 H3095 0.961 . S
C3080 C3081 1.370 . S
C3080 C3082 1.363 . S
C3080 H3096 0.931 . S
C3081 C3080 1.370 . S
C3081 C3085 1.408 . S
C3082 C3080 1.363 . S
C3082 C3083 1.370 . S
C3082 C3086 1.524 . S
C3083 C3075 1.503 . S
C3083 C3082 1.370 . S
C3083 C3084 1.403 . S
C3084 C3083 1.403 . S
C3084 C3085 1.404 . S
C3084 C3087 1.539 . S
C3085 C3081 1.408 . S
C3085 C3084 1.404 . S
C3085 H3097 0.930 . S
C3086 C3082 1.524 . S
C3086 H3098 0.956 . S
C3086 H3099 0.961 . S
C3086 H3100 0.961 . S
C3087 C3084 1.539 . S
C3087 H3101 0.958 . S
C3087 H3102 0.961 . S
C3087 H3103 0.960 . S
H3088 C3072 0.931 . S
H3089 C3077 0.929 . S
H3090 C3078 0.960 . S
H3091 C3078 0.962 . S
H3092 C3078 0.960 . S
H3093 C3079 0.961 . S
H3094 C3079 0.961 . S
H3095 C3079 0.961 . S
H3096 C3080 0.931 . S
H3097 C3085 0.930 . S
H3098 C3086 0.956 . S
H3099 C3086 0.961 . S
H3100 C3086 0.961 . S
H3101 C3087 0.958 . S
H3102 C3087 0.961 . S
H3103 C3087 0.960 . S
C3104 C3105 1.391 . S
C3104 C3106 1.394 . S
C3104 H3120 0.931 . S
C3105 C3104 1.391 . S
C3105 C3109 1.376 . S
C3106 C3104 1.394 . S
C3106 C3107 1.369 . S
C3106 C3110 1.531 . S
C3107 C3106 1.369 . S
C3107 C3108 1.410 . S
C3107 C3115 1.503 . S
C3108 C3107 1.410 . S
C3108 C3109 1.392 . S
C3108 C3111 1.511 . S
C3109 C3105 1.376 . S
C3109 C3108 1.392 . S
C3109 H3121 0.929 . S
C3110 C3106 1.531 . S
C3110 H3122 0.960 . S
C3110 H3123 0.962 . S
C3110 H3124 0.960 . S
C3111 C3108 1.511 . S
C3111 H3125 0.961 . S
C3111 H3126 0.961 . S
C3111 H3127 0.961 . S
C3112 C3113 1.370 . S
C3112 C3114 1.363 . S
C3112 H3128 0.931 . S
C3113 C3112 1.370 . S
C3113 C3117 1.408 . S
C3114 C3112 1.363 . S
C3114 C3115 1.370 . S
C3114 C3118 1.524 . S
C3115 C3107 1.503 . S
C3115 C3114 1.370 . S
C3115 C3116 1.403 . S
C3116 C3115 1.403 . S
C3116 C3117 1.404 . S
C3116 C3119 1.539 . S
C3117 C3113 1.408 . S
C3117 C3116 1.404 . S
C3117 H3129 0.930 . S
C3118 C3114 1.524 . S
C3118 H3130 0.956 . S
C3118 H3131 0.961 . S
C3118 H3132 0.961 . S
C3119 C3116 1.539 . S
C3119 H3133 0.958 . S
C3119 H3134 0.961 . S
C3119 H3135 0.960 . S
H3120 C3104 0.931 . S
H3121 C3109 0.929 . S
H3122 C3110 0.960 . S
H3123 C3110 0.962 . S
H3124 C3110 0.960 . S
H3125 C3111 0.961 . S
H3126 C3111 0.961 . S
H3127 C3111 0.961 . S
H3128 C3112 0.931 . S
H3129 C3117 0.930 . S
H3130 C3118 0.956 . S
H3131 C3118 0.961 . S
H3132 C3118 0.961 . S
H3133 C3119 0.958 . S
H3134 C3119 0.961 . S
H3135 C3119 0.960 . S
C3136 C3137 1.391 . S
C3136 C3138 1.394 . S
C3136 H3152 0.931 . S
C3137 C3136 1.391 . S
C3137 C3141 1.376 . S
C3138 C3136 1.394 . S
C3138 C3139 1.369 . S
C3138 C3142 1.531 . S
C3139 C3138 1.369 . S
C3139 C3140 1.410 . S
C3139 C3147 1.503 . S
C3140 C3139 1.410 . S
C3140 C3141 1.392 . S
C3140 C3143 1.511 . S
C3141 C3137 1.376 . S
C3141 C3140 1.392 . S
C3141 H3153 0.929 . S
C3142 C3138 1.531 . S
C3142 H3154 0.960 . S
C3142 H3155 0.962 . S
C3142 H3156 0.960 . S
C3143 C3140 1.511 . S
C3143 H3157 0.961 . S
C3143 H3158 0.961 . S
C3143 H3159 0.961 . S
C3144 C3145 1.370 . S
C3144 C3146 1.363 . S
C3144 H3160 0.931 . S
C3145 C3144 1.370 . S
C3145 C3149 1.408 . S
C3146 C3144 1.363 . S
C3146 C3147 1.370 . S
C3146 C3150 1.524 . S
C3147 C3139 1.503 . S
C3147 C3146 1.370 . S
C3147 C3148 1.403 . S
C3148 C3147 1.403 . S
C3148 C3149 1.404 . S
C3148 C3151 1.539 . S
C3149 C3145 1.408 . S
C3149 C3148 1.404 . S
C3149 H3161 0.930 . S
C3150 C3146 1.524 . S
C3150 H3162 0.956 . S
C3150 H3163 0.961 . S
C3150 H3164 0.961 . S
C3151 C3148 1.539 . S
C3151 H3165 0.958 . S
C3151 H3166 0.961 . S
C3151 H3167 0.960 . S
H3152 C3136 0.931 . S
H3153 C3141 0.929 . S
H3154 C3142 0.960 . S
H3155 C3142 0.962 . S
H3156 C3142 0.960 . S
H3157 C3143 0.961 . S
H3158 C3143 0.961 . S
H3159 C3143 0.961 . S
H3160 C3144 0.931 . S
H3161 C3149 0.930 . S
H3162 C3150 0.956 . S
H3163 C3150 0.961 . S
H3164 C3150 0.961 . S
H3165 C3151 0.958 . S
H3166 C3151 0.961 . S
H3167 C3151 0.960 . S
C3168 C3169 1.391 . S
C3168 C3170 1.394 . S
C3168 H3184 0.931 . S
C3169 C3168 1.391 . S
C3169 C3173 1.376 . S
C3170 C3168 1.394 . S
C3170 C3171 1.369 . S
C3170 C3174 1.531 . S
C3171 C3170 1.369 . S
C3171 C3172 1.410 . S
C3171 C3179 1.503 . S
C3172 C3171 1.410 . S
C3172 C3173 1.392 . S
C3172 C3175 1.511 . S
C3173 C3169 1.376 . S
C3173 C3172 1.392 . S
C3173 H3185 0.929 . S
C3174 C3170 1.531 . S
C3174 H3186 0.960 . S
C3174 H3187 0.962 . S
C3174 H3188 0.960 . S
C3175 C3172 1.511 . S
C3175 H3189 0.961 . S
C3175 H3190 0.961 . S
C3175 H3191 0.961 . S
C3176 C3177 1.370 . S
C3176 C3178 1.363 . S
C3176 H3192 0.931 . S
C3177 C3176 1.370 . S
C3177 C3181 1.408 . S
C3178 C3176 1.363 . S
C3178 C3179 1.370 . S
C3178 C3182 1.524 . S
C3179 C3171 1.503 . S
C3179 C3178 1.370 . S
C3179 C3180 1.403 . S
C3180 C3179 1.403 . S
C3180 C3181 1.404 . S
C3180 C3183 1.539 . S
C3181 C3177 1.408 . S
C3181 C3180 1.404 . S
C3181 H3193 0.930 . S
C3182 C3178 1.524 . S
C3182 H3194 0.956 . S
C3182 H3195 0.961 . S
C3182 H3196 0.961 . S
C3183 C3180 1.539 . S
C3183 H3197 0.958 . S
C3183 H3198 0.961 . S
C3183 H3199 0.960 . S
H3184 C3168 0.931 . S
H3185 C3173 0.929 . S
H3186 C3174 0.960 . S
H3187 C3174 0.962 . S
H3188 C3174 0.960 . S
H3189 C3175 0.961 . S
H3190 C3175 0.961 . S
H3191 C3175 0.961 . S
H3192 C3176 0.931 . S
H3193 C3181 0.930 . S
H3194 C3182 0.956 . S
H3195 C3182 0.961 . S
H3196 C3182 0.961 . S
H3197 C3183 0.958 . S
H3198 C3183 0.961 . S
H3199 C3183 0.960 . S
C3200 C3201 1.391 . S
C3200 C3202 1.394 . S
C3200 H3216 0.931 . S
C3201 C3200 1.391 . S
C3201 C3205 1.376 . S
C3202 C3200 1.394 . S
C3202 C3203 1.369 . S
C3202 C3206 1.531 . S
C3203 C3202 1.369 . S
C3203 C3204 1.410 . S
C3203 C3211 1.503 . S
C3204 C3203 1.410 . S
C3204 C3205 1.392 . S
C3204 C3207 1.511 . S
C3205 C3201 1.376 . S
C3205 C3204 1.392 . S
C3205 H3217 0.929 . S
C3206 C3202 1.531 . S
C3206 H3218 0.960 . S
C3206 H3219 0.962 . S
C3206 H3220 0.960 . S
C3207 C3204 1.511 . S
C3207 H3221 0.961 . S
C3207 H3222 0.961 . S
C3207 H3223 0.961 . S
C3208 C3209 1.370 . S
C3208 C3210 1.363 . S
C3208 H3224 0.931 . S
C3209 C3208 1.370 . S
C3209 C3213 1.408 . S
C3210 C3208 1.363 . S
C3210 C3211 1.370 . S
C3210 C3214 1.524 . S
C3211 C3203 1.503 . S
C3211 C3210 1.370 . S
C3211 C3212 1.403 . S
C3212 C3211 1.403 . S
C3212 C3213 1.404 . S
C3212 C3215 1.539 . S
C3213 C3209 1.408 . S
C3213 C3212 1.404 . S
C3213 H3225 0.930 . S
C3214 C3210 1.524 . S
C3214 H3226 0.956 . S
C3214 H3227 0.961 . S
C3214 H3228 0.961 . S
C3215 C3212 1.539 . S
C3215 H3229 0.958 . S
C3215 H3230 0.961 . S
C3215 H3231 0.960 . S
H3216 C3200 0.931 . S
H3217 C3205 0.929 . S
H3218 C3206 0.960 . S
H3219 C3206 0.962 . S
H3220 C3206 0.960 . S
H3221 C3207 0.961 . S
H3222 C3207 0.961 . S
H3223 C3207 0.961 . S
H3224 C3208 0.931 . S
H3225 C3213 0.930 . S
H3226 C3214 0.956 . S
H3227 C3214 0.961 . S
H3228 C3214 0.961 . S
H3229 C3215 0.958 . S
H3230 C3215 0.961 . S
H3231 C3215 0.960 . S
C3232 C3233 1.391 . S
C3232 C3234 1.394 . S
C3232 H3248 0.931 . S
C3233 C3232 1.391 . S
C3233 C3237 1.376 . S
C3234 C3232 1.394 . S
C3234 C3235 1.369 . S
C3234 C3238 1.531 . S
C3235 C3234 1.369 . S
C3235 C3236 1.410 . S
C3235 C3243 1.503 . S
C3236 C3235 1.410 . S
C3236 C3237 1.392 . S
C3236 C3239 1.511 . S
C3237 C3233 1.376 . S
C3237 C3236 1.392 . S
C3237 H3249 0.929 . S
C3238 C3234 1.531 . S
C3238 H3250 0.960 . S
C3238 H3251 0.962 . S
C3238 H3252 0.960 . S
C3239 C3236 1.511 . S
C3239 H3253 0.961 . S
C3239 H3254 0.961 . S
C3239 H3255 0.961 . S
C3240 C3241 1.370 . S
C3240 C3242 1.363 . S
C3240 H3256 0.931 . S
C3241 C3240 1.370 . S
C3241 C3245 1.408 . S
C3242 C3240 1.363 . S
C3242 C3243 1.370 . S
C3242 C3246 1.524 . S
C3243 C3235 1.503 . S
C3243 C3242 1.370 . S
C3243 C3244 1.403 . S
C3244 C3243 1.403 . S
C3244 C3245 1.404 . S
C3244 C3247 1.539 . S
C3245 C3241 1.408 . S
C3245 C3244 1.404 . S
C3245 H3257 0.930 . S
C3246 C3242 1.524 . S
C3246 H3258 0.956 . S
C3246 H3259 0.961 . S
C3246 H3260 0.961 . S
C3247 C3244 1.539 . S
C3247 H3261 0.958 . S
C3247 H3262 0.961 . S
C3247 H3263 0.960 . S
H3248 C3232 0.931 . S
H3249 C3237 0.929 . S
H3250 C3238 0.960 . S
H3251 C3238 0.962 . S
H3252 C3238 0.960 . S
H3253 C3239 0.961 . S
H3254 C3239 0.961 . S
H3255 C3239 0.961 . S
H3256 C3240 0.931 . S
H3257 C3245 0.930 . S
H3258 C3246 0.956 . S
H3259 C3246 0.961 . S
H3260 C3246 0.961 . S
H3261 C3247 0.958 . S
H3262 C3247 0.961 . S
H3263 C3247 0.960 . S
C3264 C3265 1.391 . S
C3264 C3266 1.394 . S
C3264 H3280 0.931 . S
C3265 C3264 1.391 . S
C3265 C3269 1.376 . S
C3266 C3264 1.394 . S
C3266 C3267 1.369 . S
C3266 C3270 1.531 . S
C3267 C3266 1.369 . S
C3267 C3268 1.410 . S
C3267 C3275 1.503 . S
C3268 C3267 1.410 . S
C3268 C3269 1.392 . S
C3268 C3271 1.511 . S
C3269 C3265 1.376 . S
C3269 C3268 1.392 . S
C3269 H3281 0.929 . S
C3270 C3266 1.531 . S
C3270 H3282 0.960 . S
C3270 H3283 0.962 . S
C3270 H3284 0.960 . S
C3271 C3268 1.511 . S
C3271 H3285 0.961 . S
C3271 H3286 0.961 . S
C3271 H3287 0.961 . S
C3272 C3273 1.370 . S
C3272 C3274 1.363 . S
C3272 H3288 0.931 . S
C3273 C3272 1.370 . S
C3273 C3277 1.408 . S
C3274 C3272 1.363 . S
C3274 C3275 1.370 . S
C3274 C3278 1.524 . S
C3275 C3267 1.503 . S
C3275 C3274 1.370 . S
C3275 C3276 1.403 . S
C3276 C3275 1.403 . S
C3276 C3277 1.404 . S
C3276 C3279 1.539 . S
C3277 C3273 1.408 . S
C3277 C3276 1.404 . S
C3277 H3289 0.930 . S
C3278 C3274 1.524 . S
C3278 H3290 0.956 . S
C3278 H3291 0.961 . S
C3278 H3292 0.961 . S
C3279 C3276 1.539 . S
C3279 H3293 0.958 . S
C3279 H3294 0.961 . S
C3279 H3295 0.960 . S
H3280 C3264 0.931 . S
H3281 C3269 0.929 . S
H3282 C3270 0.960 . S
H3283 C3270 0.962 . S
H3284 C3270 0.960 . S
H3285 C3271 0.961 . S
H3286 C3271 0.961 . S
H3287 C3271 0.961 . S
H3288 C3272 0.931 . S
H3289 C3277 0.930 . S
H3290 C3278 0.956 . S
H3291 C3278 0.961 . S
H3292 C3278 0.961 . S
H3293 C3279 0.958 . S
H3294 C3279 0.961 . S
H3295 C3279 0.960 . S
C3296 C3297 1.391 . S
C3296 C3298 1.394 . S
C3296 H3312 0.931 . S
C3297 C3296 1.391 . S
C3297 C3301 1.376 . S
C3298 C3296 1.394 . S
C3298 C3299 1.369 . S
C3298 C3302 1.531 . S
C3299 C3298 1.369 . S
C3299 C3300 1.410 . S
C3299 C3307 1.503 . S
C3300 C3299 1.410 . S
C3300 C3301 1.392 . S
C3300 C3303 1.511 . S
C3301 C3297 1.376 . S
C3301 C3300 1.392 . S
C3301 H3313 0.929 . S
C3302 C3298 1.531 . S
C3302 H3314 0.960 . S
C3302 H3315 0.962 . S
C3302 H3316 0.960 . S
C3303 C3300 1.511 . S
C3303 H3317 0.961 . S
C3303 H3318 0.961 . S
C3303 H3319 0.961 . S
C3304 C3305 1.370 . S
C3304 C3306 1.363 . S
C3304 H3320 0.931 . S
C3305 C3304 1.370 . S
C3305 C3309 1.408 . S
C3306 C3304 1.363 . S
C3306 C3307 1.370 . S
C3306 C3310 1.524 . S
C3307 C3299 1.503 . S
C3307 C3306 1.370 . S
C3307 C3308 1.403 . S
C3308 C3307 1.403 . S
C3308 C3309 1.404 . S
C3308 C3311 1.539 . S
C3309 C3305 1.408 . S
C3309 C3308 1.404 . S
C3309 H3321 0.930 . S
C3310 C3306 1.524 . S
C3310 H3322 0.956 . S
C3310 H3323 0.961 . S
C3310 H3324 0.961 . S
C3311 C3308 1.539 . S
C3311 H3325 0.958 . S
C3311 H3326 0.961 . S
C3311 H3327 0.960 . S
H3312 C3296 0.931 . S
H3313 C3301 0.929 . S
H3314 C3302 0.960 . S
H3315 C3302 0.962 . S
H3316 C3302 0.960 . S
H3317 C3303 0.961 . S
H3318 C3303 0.961 . S
H3319 C3303 0.961 . S
H3320 C3304 0.931 . S
H3321 C3309 0.930 . S
H3322 C3310 0.956 . S
H3323 C3310 0.961 . S
H3324 C3310 0.961 . S
H3325 C3311 0.958 . S
H3326 C3311 0.961 . S
H3327 C3311 0.960 . S
C3328 C3329 1.391 . S
C3328 C3330 1.394 . S
C3328 H3344 0.931 . S
C3329 C3328 1.391 . S
C3329 C3333 1.376 . S
C3330 C3328 1.394 . S
C3330 C3331 1.369 . S
C3330 C3334 1.531 . S
C3331 C3330 1.369 . S
C3331 C3332 1.410 . S
C3331 C3339 1.503 . S
C3332 C3331 1.410 . S
C3332 C3333 1.392 . S
C3332 C3335 1.511 . S
C3333 C3329 1.376 . S
C3333 C3332 1.392 . S
C3333 H3345 0.929 . S
C3334 C3330 1.531 . S
C3334 H3346 0.960 . S
C3334 H3347 0.962 . S
C3334 H3348 0.960 . S
C3335 C3332 1.511 . S
C3335 H3349 0.961 . S
C3335 H3350 0.961 . S
C3335 H3351 0.961 . S
C3336 C3337 1.370 . S
C3336 C3338 1.363 . S
C3336 H3352 0.931 . S
C3337 C3336 1.370 . S
C3337 C3341 1.408 . S
C3338 C3336 1.363 . S
C3338 C3339 1.370 . S
C3338 C3342 1.524 . S
C3339 C3331 1.503 . S
C3339 C3338 1.370 . S
C3339 C3340 1.403 . S
C3340 C3339 1.403 . S
C3340 C3341 1.404 . S
C3340 C3343 1.539 . S
C3341 C3337 1.408 . S
C3341 C3340 1.404 . S
C3341 H3353 0.930 . S
C3342 C3338 1.524 . S
C3342 H3354 0.956 . S
C3342 H3355 0.961 . S
C3342 H3356 0.961 . S
C3343 C3340 1.539 . S
C3343 H3357 0.958 . S
C3343 H3358 0.961 . S
C3343 H3359 0.960 . S
H3344 C3328 0.931 . S
H3345 C3333 0.929 . S
H3346 C3334 0.960 . S
H3347 C3334 0.962 . S
H3348 C3334 0.960 . S
H3349 C3335 0.961 . S
H3350 C3335 0.961 . S
H3351 C3335 0.961 . S
H3352 C3336 0.931 . S
H3353 C3341 0.930 . S
H3354 C3342 0.956 . S
H3355 C3342 0.961 . S
H3356 C3342 0.961 . S
H3357 C3343 0.958 . S
H3358 C3343 0.961 . S
H3359 C3343 0.960 . S
C3360 C3361 1.391 . S
C3360 C3362 1.394 . S
C3360 H3376 0.931 . S
C3361 C3360 1.391 . S
C3361 C3365 1.376 . S
C3362 C3360 1.394 . S
C3362 C3363 1.369 . S
C3362 C3366 1.531 . S
C3363 C3362 1.369 . S
C3363 C3364 1.410 . S
C3363 C3371 1.503 . S
C3364 C3363 1.410 . S
C3364 C3365 1.392 . S
C3364 C3367 1.511 . S
C3365 C3361 1.376 . S
C3365 C3364 1.392 . S
C3365 H3377 0.929 . S
C3366 C3362 1.531 . S
C3366 H3378 0.960 . S
C3366 H3379 0.962 . S
C3366 H3380 0.960 . S
C3367 C3364 1.511 . S
C3367 H3381 0.961 . S
C3367 H3382 0.961 . S
C3367 H3383 0.961 . S
C3368 C3369 1.370 . S
C3368 C3370 1.363 . S
C3368 H3384 0.931 . S
C3369 C3368 1.370 . S
C3369 C3373 1.408 . S
C3370 C3368 1.363 . S
C3370 C3371 1.370 . S
C3370 C3374 1.524 . S
C3371 C3363 1.503 . S
C3371 C3370 1.370 . S
C3371 C3372 1.403 . S
C3372 C3371 1.403 . S
C3372 C3373 1.404 . S
C3372 C3375 1.539 . S
C3373 C3369 1.408 . S
C3373 C3372 1.404 . S
C3373 H3385 0.930 . S
C3374 C3370 1.524 . S
C3374 H3386 0.956 . S
C3374 H3387 0.961 . S
C3374 H3388 0.961 . S
C3375 C3372 1.539 . S
C3375 H3389 0.958 . S
C3375 H3390 0.961 . S
C3375 H3391 0.960 . S
H3376 C3360 0.931 . S
H3377 C3365 0.929 . S
H3378 C3366 0.960 . S
H3379 C3366 0.962 . S
H3380 C3366 0.960 . S
H3381 C3367 0.961 . S
H3382 C3367 0.961 . S
H3383 C3367 0.961 . S
H3384 C3368 0.931 . S
H3385 C3373 0.930 . S
H3386 C3374 0.956 . S
H3387 C3374 0.961 . S
H3388 C3374 0.961 . S
H3389 C3375 0.958 . S
H3390 C3375 0.961 . S
H3391 C3375 0.960 . S
C3392 C3393 1.391 . S
C3392 C3394 1.394 . S
C3392 H3408 0.931 . S
C3393 C3392 1.391 . S
C3393 C3397 1.376 . S
C3394 C3392 1.394 . S
C3394 C3395 1.369 . S
C3394 C3398 1.531 . S
C3395 C3394 1.369 . S
C3395 C3396 1.410 . S
C3395 C3403 1.503 . S
C3396 C3395 1.410 . S
C3396 C3397 1.392 . S
C3396 C3399 1.511 . S
C3397 C3393 1.376 . S
C3397 C3396 1.392 . S
C3397 H3409 0.929 . S
C3398 C3394 1.531 . S
C3398 H3410 0.960 . S
C3398 H3411 0.962 . S
C3398 H3412 0.960 . S
C3399 C3396 1.511 . S
C3399 H3413 0.961 . S
C3399 H3414 0.961 . S
C3399 H3415 0.961 . S
C3400 C3401 1.370 . S
C3400 C3402 1.363 . S
C3400 H3416 0.931 . S
C3401 C3400 1.370 . S
C3401 C3405 1.408 . S
C3402 C3400 1.363 . S
C3402 C3403 1.370 . S
C3402 C3406 1.524 . S
C3403 C3395 1.503 . S
C3403 C3402 1.370 . S
C3403 C3404 1.403 . S
C3404 C3403 1.403 . S
C3404 C3405 1.404 . S
C3404 C3407 1.539 . S
C3405 C3401 1.408 . S
C3405 C3404 1.404 . S
C3405 H3417 0.930 . S
C3406 C3402 1.524 . S
C3406 H3418 0.956 . S
C3406 H3419 0.961 . S
C3406 H3420 0.961 . S
C3407 C3404 1.539 . S
C3407 H3421 0.958 . S
C3407 H3422 0.961 . S
C3407 H3423 0.960 . S
H3408 C3392 0.931 . S
H3409 C3397 0.929 . S
H3410 C3398 0.960 . S
H3411 C3398 0.962 . S
H3412 C3398 0.960 . S
H3413 C3399 0.961 . S
H3414 C3399 0.961 . S
H3415 C3399 0.961 . S
H3416 C3400 0.931 . S
H3417 C3405 0.930 . S
H3418 C3406 0.956 . S
H3419 C3406 0.961 . S
H3420 C3406 0.961 . S
H3421 C3407 0.958 . S
H3422 C3407 0.961 . S
H3423 C3407 0.960 . S
C3424 C3425 1.391 . S
C3424 C3426 1.394 . S
C3424 H3440 0.931 . S
C3425 C3424 1.391 . S
C3425 C3429 1.376 . S
C3426 C3424 1.394 . S
C3426 C3427 1.369 . S
C3426 C3430 1.531 . S
C3427 C3426 1.369 . S
C3427 C3428 1.410 . S
C3427 C3435 1.503 . S
C3428 C3427 1.410 . S
C3428 C3429 1.392 . S
C3428 C3431 1.511 . S
C3429 C3425 1.376 . S
C3429 C3428 1.392 . S
C3429 H3441 0.929 . S
C3430 C3426 1.531 . S
C3430 H3442 0.960 . S
C3430 H3443 0.962 . S
C3430 H3444 0.960 . S
C3431 C3428 1.511 . S
C3431 H3445 0.961 . S
C3431 H3446 0.961 . S
C3431 H3447 0.961 . S
C3432 C3433 1.370 . S
C3432 C3434 1.363 . S
C3432 H3448 0.931 . S
C3433 C3432 1.370 . S
C3433 C3437 1.408 . S
C3434 C3432 1.363 . S
C3434 C3435 1.370 . S
C3434 C3438 1.524 . S
C3435 C3427 1.503 . S
C3435 C3434 1.370 . S
C3435 C3436 1.403 . S
C3436 C3435 1.403 . S
C3436 C3437 1.404 . S
C3436 C3439 1.539 . S
C3437 C3433 1.408 . S
C3437 C3436 1.404 . S
C3437 H3449 0.930 . S
C3438 C3434 1.524 . S
C3438 H3450 0.956 . S
C3438 H3451 0.961 . S
C3438 H3452 0.961 . S
C3439 C3436 1.539 . S
C3439 H3453 0.958 . S
C3439 H3454 0.961 . S
C3439 H3455 0.960 . S
H3440 C3424 0.931 . S
H3441 C3429 0.929 . S
H3442 C3430 0.960 . S
H3443 C3430 0.962 . S
H3444 C3430 0.960 . S
H3445 C3431 0.961 . S
H3446 C3431 0.961 . S
H3447 C3431 0.961 . S
H3448 C3432 0.931 . S
H3449 C3437 0.930 . S
H3450 C3438 0.956 . S
H3451 C3438 0.961 . S
H3452 C3438 0.961 . S
H3453 C3439 0.958 . S
H3454 C3439 0.961 . S
H3455 C3439 0.960 . S
C3456 C3457 1.391 . S
C3456 C3458 1.394 . S
C3456 H3472 0.931 . S
C3457 C3456 1.391 . S
C3457 C3461 1.376 . S
C3458 C3456 1.394 . S
C3458 C3459 1.369 . S
C3458 C3462 1.531 . S
C3459 C3458 1.369 . S
C3459 C3460 1.410 . S
C3459 C3467 1.503 . S
C3460 C3459 1.410 . S
C3460 C3461 1.392 . S
C3460 C3463 1.511 . S
C3461 C3457 1.376 . S
C3461 C3460 1.392 . S
C3461 H3473 0.929 . S
C3462 C3458 1.531 . S
C3462 H3474 0.960 . S
C3462 H3475 0.962 . S
C3462 H3476 0.960 . S
C3463 C3460 1.511 . S
C3463 H3477 0.961 . S
C3463 H3478 0.961 . S
C3463 H3479 0.961 . S
C3464 C3465 1.370 . S
C3464 C3466 1.363 . S
C3464 H3480 0.931 . S
C3465 C3464 1.370 . S
C3465 C3469 1.408 . S
C3466 C3464 1.363 . S
C3466 C3467 1.370 . S
C3466 C3470 1.524 . S
C3467 C3459 1.503 . S
C3467 C3466 1.370 . S
C3467 C3468 1.403 . S
C3468 C3467 1.403 . S
C3468 C3469 1.404 . S
C3468 C3471 1.539 . S
C3469 C3465 1.408 . S
C3469 C3468 1.404 . S
C3469 H3481 0.930 . S
C3470 C3466 1.524 . S
C3470 H3482 0.956 . S
C3470 H3483 0.961 . S
C3470 H3484 0.961 . S
C3471 C3468 1.539 . S
C3471 H3485 0.958 . S
C3471 H3486 0.961 . S
C3471 H3487 0.960 . S
H3472 C3456 0.931 . S
H3473 C3461 0.929 . S
H3474 C3462 0.960 . S
H3475 C3462 0.962 . S
H3476 C3462 0.960 . S
H3477 C3463 0.961 . S
H3478 C3463 0.961 . S
H3479 C3463 0.961 . S
H3480 C3464 0.931 . S
H3481 C3469 0.930 . S
H3482 C3470 0.956 . S
H3483 C3470 0.961 . S
H3484 C3470 0.961 . S
H3485 C3471 0.958 . S
H3486 C3471 0.961 . S
H3487 C3471 0.960 . S
C3488 C3489 1.391 . S
C3488 C3490 1.394 . S
C3488 H3504 0.931 . S
C3489 C3488 1.391 . S
C3489 C3493 1.376 . S
C3490 C3488 1.394 . S
C3490 C3491 1.369 . S
C3490 C3494 1.531 . S
C3491 C3490 1.369 . S
C3491 C3492 1.410 . S
C3491 C3499 1.503 . S
C3492 C3491 1.410 . S
C3492 C3493 1.392 . S
C3492 C3495 1.511 . S
C3493 C3489 1.376 . S
C3493 C3492 1.392 . S
C3493 H3505 0.929 . S
C3494 C3490 1.531 . S
C3494 H3506 0.960 . S
C3494 H3507 0.962 . S
C3494 H3508 0.960 . S
C3495 C3492 1.511 . S
C3495 H3509 0.961 . S
C3495 H3510 0.961 . S
C3495 H3511 0.961 . S
C3496 C3497 1.370 . S
C3496 C3498 1.363 . S
C3496 H3512 0.931 . S
C3497 C3496 1.370 . S
C3497 C3501 1.408 . S
C3498 C3496 1.363 . S
C3498 C3499 1.370 . S
C3498 C3502 1.524 . S
C3499 C3491 1.503 . S
C3499 C3498 1.370 . S
C3499 C3500 1.403 . S
C3500 C3499 1.403 . S
C3500 C3501 1.404 . S
C3500 C3503 1.539 . S
C3501 C3497 1.408 . S
C3501 C3500 1.404 . S
C3501 H3513 0.930 . S
C3502 C3498 1.524 . S
C3502 H3514 0.956 . S
C3502 H3515 0.961 . S
C3502 H3516 0.961 . S
C3503 C3500 1.539 . S
C3503 H3517 0.958 . S
C3503 H3518 0.961 . S
C3503 H3519 0.960 . S
H3504 C3488 0.931 . S
H3505 C3493 0.929 . S
H3506 C3494 0.960 . S
H3507 C3494 0.962 . S
H3508 C3494 0.960 . S
H3509 C3495 0.961 . S
H3510 C3495 0.961 . S
H3511 C3495 0.961 . S
H3512 C3496 0.931 . S
H3513 C3501 0.930 . S
H3514 C3502 0.956 . S
H3515 C3502 0.961 . S
H3516 C3502 0.961 . S
H3517 C3503 0.958 . S
H3518 C3503 0.961 . S
H3519 C3503 0.960 . S
C3520 C3521 1.391 . S
C3520 C3522 1.394 . S
C3520 H3536 0.931 . S
C3521 C3520 1.391 . S
C3521 C3525 1.376 . S
C3522 C3520 1.394 . S
C3522 C3523 1.369 . S
C3522 C3526 1.531 . S
C3523 C3522 1.369 . S
C3523 C3524 1.410 . S
C3523 C3531 1.503 . S
C3524 C3523 1.410 . S
C3524 C3525 1.392 . S
C3524 C3527 1.511 . S
C3525 C3521 1.376 . S
C3525 C3524 1.392 . S
C3525 H3537 0.929 . S
C3526 C3522 1.531 . S
C3526 H3538 0.960 . S
C3526 H3539 0.962 . S
C3526 H3540 0.940 1_565 S
C3527 C3524 1.511 . S
C3527 H3541 0.961 . S
C3527 H3542 0.961 . S
C3527 H3543 0.961 . S
C3528 C3529 1.370 . S
C3528 C3530 1.363 . S
C3528 H3544 0.931 . S
C3529 C3528 1.370 . S
C3529 C3533 1.408 . S
C3530 C3528 1.363 . S
C3530 C3531 1.370 . S
C3530 C3534 1.524 . S
C3531 C3523 1.503 . S
C3531 C3530 1.370 . S
C3531 C3532 1.403 . S
C3532 C3531 1.403 . S
C3532 C3533 1.404 . S
C3532 C3535 1.539 . S
C3533 C3529 1.408 . S
C3533 C3532 1.404 . S
C3533 H3545 0.930 . S
C3534 C3530 1.524 . S
C3534 H3546 0.956 . S
C3534 H3547 0.961 . S
C3534 H3548 0.961 . S
C3535 C3532 1.539 . S
C3535 H3549 0.958 . S
C3535 H3550 0.961 . S
C3535 H3551 0.960 . S
H3536 C3520 0.931 . S
H3537 C3525 0.929 . S
H3538 C3526 0.960 . S
H3539 C3526 0.962 . S
H3540 C3526 0.940 1_545 S
H3541 C3527 0.961 . S
H3542 C3527 0.961 . S
H3543 C3527 0.961 . S
H3544 C3528 0.931 . S
H3545 C3533 0.930 . S
H3546 C3534 0.956 . S
H3547 C3534 0.961 . S
H3548 C3534 0.961 . S
H3549 C3535 0.958 . S
H3550 C3535 0.961 . S
H3551 C3535 0.960 . S
C3552 C3553 1.391 . S
C3552 C3554 1.394 . S
C3552 H3568 0.931 1_556 S
C3553 C3552 1.391 . S
C3553 C3557 1.376 . S
C3554 C3552 1.394 . S
C3554 C3555 1.369 . S
C3554 C3558 1.531 . S
C3555 C3554 1.369 . S
C3555 C3556 1.410 . S
C3555 C3563 1.503 . S
C3556 C3555 1.410 . S
C3556 C3557 1.392 . S
C3556 C3559 1.511 . S
C3557 C3553 1.376 . S
C3557 C3556 1.392 . S
C3557 H3569 0.929 . S
C3558 C3554 1.531 . S
C3558 H3570 0.960 . S
C3558 H3571 0.962 . S
C3558 H3572 0.960 1_556 S
C3559 C3556 1.511 . S
C3559 H3573 0.961 . S
C3559 H3574 0.961 . S
C3559 H3575 0.961 . S
C3560 C3561 1.370 . S
C3560 C3562 1.363 . S
C3560 H3576 0.931 . S
C3561 C3560 1.370 . S
C3561 C3565 1.408 . S
C3562 C3560 1.363 . S
C3562 C3563 1.370 . S
C3562 C3566 1.524 . S
C3563 C3555 1.503 . S
C3563 C3562 1.370 . S
C3563 C3564 1.403 . S
C3564 C3563 1.403 . S
C3564 C3565 1.404 . S
C3564 C3567 1.539 . S
C3565 C3561 1.408 . S
C3565 C3564 1.404 . S
C3565 H3577 0.930 . S
C3566 C3562 1.524 . S
C3566 H3578 0.956 . S
C3566 H3579 0.961 . S
C3566 H3580 0.961 . S
C3567 C3564 1.539 . S
C3567 H3581 0.958 . S
C3567 H3582 0.961 . S
C3567 H3583 0.960 . S
H3568 C3552 0.931 1_554 S
H3569 C3557 0.929 . S
H3570 C3558 0.960 . S
H3571 C3558 0.962 . S
H3572 C3558 0.960 1_554 S
H3573 C3559 0.961 . S
H3574 C3559 0.961 . S
H3575 C3559 0.961 . S
H3576 C3560 0.931 . S
H3577 C3565 0.930 . S
H3578 C3566 0.956 . S
H3579 C3566 0.961 . S
H3580 C3566 0.961 . S
H3581 C3567 0.958 . S
H3582 C3567 0.961 . S
H3583 C3567 0.960 . S
C3584 C3585 1.391 . S
C3584 C3586 1.394 . S
C3584 H3600 0.931 . S
C3585 C3584 1.391 . S
C3585 C3589 1.376 . S
C3586 C3584 1.394 . S
C3586 C3587 1.369 . S
C3586 C3590 1.531 . S
C3587 C3586 1.369 . S
C3587 C3588 1.410 . S
C3587 C3595 1.503 . S
C3588 C3587 1.410 . S
C3588 C3589 1.392 . S
C3588 C3591 1.511 . S
C3589 C3585 1.376 . S
C3589 C3588 1.392 . S
C3589 H3601 0.929 . S
C3590 C3586 1.531 . S
C3590 H3602 0.960 . S
C3590 H3603 0.962 . S
C3590 H3604 0.960 . S
C3591 C3588 1.511 . S
C3591 H3605 0.961 . S
C3591 H3606 0.961 . S
C3591 H3607 0.961 . S
C3592 C3593 1.370 . S
C3592 C3594 1.363 . S
C3592 H3608 0.931 . S
C3593 C3592 1.370 . S
C3593 C3597 1.408 . S
C3594 C3592 1.363 . S
C3594 C3595 1.370 . S
C3594 C3598 1.524 . S
C3595 C3587 1.503 . S
C3595 C3594 1.370 . S
C3595 C3596 1.403 . S
C3596 C3595 1.403 . S
C3596 C3597 1.404 . S
C3596 C3599 1.539 . S
C3597 C3593 1.408 . S
C3597 C3596 1.404 . S
C3597 H3609 0.930 . S
C3598 C3594 1.524 . S
C3598 H3610 0.956 . S
C3598 H3611 0.961 . S
C3598 H3612 0.961 . S
C3599 C3596 1.539 . S
C3599 H3613 0.958 . S
C3599 H3614 0.961 . S
C3599 H3615 0.960 . S
H3600 C3584 0.931 . S
H3601 C3589 0.929 . S
H3602 C3590 0.960 . S
H3603 C3590 0.962 . S
H3604 C3590 0.960 . S
H3605 C3591 0.961 . S
H3606 C3591 0.961 . S
H3607 C3591 0.961 . S
H3608 C3592 0.931 . S
H3609 C3597 0.930 . S
H3610 C3598 0.956 . S
H3611 C3598 0.961 . S
H3612 C3598 0.961 . S
H3613 C3599 0.958 . S
H3614 C3599 0.961 . S
H3615 C3599 0.960 . S
C3616 C3617 1.391 1_554 S
C3616 C3618 1.394 1_554 S
C3616 H3632 0.931 . S
C3617 C3616 1.391 1_556 S
C3617 C3621 1.376 . S
C3618 C3616 1.394 1_556 S
C3618 C3619 1.369 . S
C3618 C3622 1.531 1_556 S
C3619 C3618 1.369 . S
C3619 C3620 1.410 . S
C3619 C3627 1.503 . S
C3620 C3619 1.410 . S
C3620 C3621 1.392 . S
C3620 C3623 1.511 . S
C3621 C3617 1.376 . S
C3621 C3620 1.392 . S
C3621 H3633 0.929 . S
C3622 C3618 1.531 1_554 S
C3622 H3634 0.960 1_554 S
C3622 H3635 0.962 . S
C3622 H3636 0.960 . S
C3623 C3620 1.511 . S
C3623 H3637 0.961 . S
C3623 H3638 0.961 . S
C3623 H3639 0.961 . S
C3624 C3625 1.370 . S
C3624 C3626 1.363 . S
C3624 H3640 0.931 . S
C3625 C3624 1.370 . S
C3625 C3629 1.408 . S
C3626 C3624 1.363 . S
C3626 C3627 1.370 . S
C3626 C3630 1.524 . S
C3627 C3619 1.503 . S
C3627 C3626 1.370 . S
C3627 C3628 1.403 . S
C3628 C3627 1.403 . S
C3628 C3629 1.404 . S
C3628 C3631 1.539 . S
C3629 C3625 1.408 . S
C3629 C3628 1.404 . S
C3629 H3641 0.930 . S
C3630 C3626 1.524 . S
C3630 H3642 0.956 . S
C3630 H3643 0.961 . S
C3630 H3644 0.961 . S
C3631 C3628 1.539 . S
C3631 H3645 0.958 . S
C3631 H3646 0.961 . S
C3631 H3647 0.960 . S
H3632 C3616 0.931 . S
H3633 C3621 0.929 . S
H3634 C3622 0.960 1_556 S
H3635 C3622 0.962 . S
H3636 C3622 0.960 . S
H3637 C3623 0.961 . S
H3638 C3623 0.961 . S
H3639 C3623 0.961 . S
H3640 C3624 0.931 . S
H3641 C3629 0.930 . S
H3642 C3630 0.956 . S
H3643 C3630 0.961 . S
H3644 C3630 0.961 . S
H3645 C3631 0.958 . S
H3646 C3631 0.961 . S
H3647 C3631 0.960 . S
C3648 C3649 1.391 . S
C3648 C3650 1.394 . S
C3648 H3664 0.931 . S
C3649 C3648 1.391 . S
C3649 C3653 1.376 . S
C3650 C3648 1.394 . S
C3650 C3651 1.369 . S
C3650 C3654 1.531 . S
C3651 C3650 1.369 . S
C3651 C3652 1.410 . S
C3651 C3659 1.503 . S
C3652 C3651 1.410 . S
C3652 C3653 1.392 . S
C3652 C3655 1.511 . S
C3653 C3649 1.376 . S
C3653 C3652 1.392 . S
C3653 H3665 0.929 1_556 S
C3654 C3650 1.531 . S
C3654 H3666 0.960 . S
C3654 H3667 0.962 . S
C3654 H3668 0.960 . S
C3655 C3652 1.511 . S
C3655 H3669 0.961 1_556 S
C3655 H3670 0.961 . S
C3655 H3671 0.961 1_556 S
C3656 C3657 1.370 . S
C3656 C3658 1.363 . S
C3656 H3672 0.931 . S
C3657 C3656 1.370 . S
C3657 C3661 1.408 . S
C3658 C3656 1.363 . S
C3658 C3659 1.370 . S
C3658 C3662 1.524 . S
C3659 C3651 1.503 . S
C3659 C3658 1.370 . S
C3659 C3660 1.403 . S
C3660 C3659 1.403 . S
C3660 C3661 1.404 . S
C3660 C3663 1.539 . S
C3661 C3657 1.408 . S
C3661 C3660 1.404 . S
C3661 H3673 0.930 . S
C3662 C3658 1.524 . S
C3662 H3674 0.956 . S
C3662 H3675 0.961 . S
C3662 H3676 0.961 . S
C3663 C3660 1.539 . S
C3663 H3677 0.958 . S
C3663 H3678 0.961 . S
C3663 H3679 0.960 . S
H3664 C3648 0.931 . S
H3665 C3653 0.929 1_554 S
H3666 C3654 0.960 . S
H3667 C3654 0.962 . S
H3668 C3654 0.960 . S
H3669 C3655 0.961 1_554 S
H3670 C3655 0.961 . S
H3671 C3655 0.961 1_554 S
H3672 C3656 0.931 . S
H3673 C3661 0.930 . S
H3674 C3662 0.956 . S
H3675 C3662 0.961 . S
H3676 C3662 0.961 . S
H3677 C3663 0.958 . S
H3678 C3663 0.961 . S
H3679 C3663 0.960 . S
C3680 C3681 1.391 . S
C3680 C3682 1.394 . S
C3680 H3696 0.931 . S
C3681 C3680 1.391 . S
C3681 C3685 1.376 . S
C3682 C3680 1.394 . S
C3682 C3683 1.369 . S
C3682 C3686 1.531 . S
C3683 C3682 1.369 . S
C3683 C3684 1.410 . S
C3683 C3691 1.503 . S
C3684 C3683 1.410 . S
C3684 C3685 1.392 . S
C3684 C3687 1.511 . S
C3685 C3681 1.376 . S
C3685 C3684 1.392 . S
C3685 H3697 0.929 . S
C3686 C3682 1.531 . S
C3686 H3698 0.960 . S
C3686 H3699 0.962 . S
C3686 H3700 0.960 . S
C3687 C3684 1.511 . S
C3687 H3701 0.961 . S
C3687 H3702 0.961 . S
C3687 H3703 0.961 . S
C3688 C3689 1.370 . S
C3688 C3690 1.363 . S
C3688 H3704 0.931 . S
C3689 C3688 1.370 . S
C3689 C3693 1.408 . S
C3690 C3688 1.363 . S
C3690 C3691 1.370 . S
C3690 C3694 1.524 . S
C3691 C3683 1.503 . S
C3691 C3690 1.370 . S
C3691 C3692 1.403 . S
C3692 C3691 1.403 . S
C3692 C3693 1.404 . S
C3692 C3695 1.539 . S
C3693 C3689 1.408 . S
C3693 C3692 1.404 . S
C3693 H3705 0.930 . S
C3694 C3690 1.524 . S
C3694 H3706 0.956 . S
C3694 H3707 0.961 . S
C3694 H3708 0.961 . S
C3695 C3692 1.539 . S
C3695 H3709 0.958 . S
C3695 H3710 0.961 . S
C3695 H3711 0.960 . S
H3696 C3680 0.931 . S
H3697 C3685 0.929 . S
H3698 C3686 0.960 . S
H3699 C3686 0.962 . S
H3700 C3686 0.960 . S
H3701 C3687 0.961 . S
H3702 C3687 0.961 . S
H3703 C3687 0.961 . S
H3704 C3688 0.931 . S
H3705 C3693 0.930 . S
H3706 C3694 0.956 . S
H3707 C3694 0.961 . S
H3708 C3694 0.961 . S
H3709 C3695 0.958 . S
H3710 C3695 0.961 . S
H3711 C3695 0.960 . S
C3712 C3713 1.391 . S
C3712 C3714 1.394 . S
C3712 H3728 0.931 1_556 S
C3713 C3712 1.391 . S
C3713 C3717 1.376 . S
C3714 C3712 1.394 . S
C3714 C3715 1.369 . S
C3714 C3718 1.531 . S
C3715 C3714 1.369 . S
C3715 C3716 1.410 . S
C3715 C3723 1.503 . S
C3716 C3715 1.410 . S
C3716 C3717 1.392 . S
C3716 C3719 1.511 . S
C3717 C3713 1.376 . S
C3717 C3716 1.392 . S
C3717 H3729 0.929 . S
C3718 C3714 1.531 . S
C3718 H3730 0.960 . S
C3718 H3731 0.962 . S
C3718 H3732 0.983 . S
C3719 C3716 1.511 . S
C3719 H3733 0.961 . S
C3719 H3734 0.961 . S
C3719 H3735 0.961 . S
C3720 C3721 1.370 . S
C3720 C3722 1.363 . S
C3720 H3736 0.931 . S
C3721 C3720 1.370 . S
C3721 C3725 1.408 . S
C3722 C3720 1.363 . S
C3722 C3723 1.370 . S
C3722 C3726 1.524 . S
C3723 C3715 1.503 . S
C3723 C3722 1.370 . S
C3723 C3724 1.403 . S
C3724 C3723 1.403 . S
C3724 C3725 1.404 . S
C3724 C3727 1.539 . S
C3725 C3721 1.408 . S
C3725 C3724 1.404 . S
C3725 H3737 0.930 . S
C3726 C3722 1.524 . S
C3726 H3738 0.956 . S
C3726 H3739 0.961 . S
C3726 H3740 0.961 . S
C3727 C3724 1.539 . S
C3727 H3741 0.958 . S
C3727 H3742 0.961 . S
C3727 H3743 0.960 . S
H3728 C3712 0.931 1_554 S
H3729 C3717 0.929 . S
H3730 C3718 0.960 . S
H3731 C3718 0.962 . S
H3732 C3718 0.983 . S
H3733 C3719 0.961 . S
H3734 C3719 0.961 . S
H3735 C3719 0.961 . S
H3736 C3720 0.931 . S
H3737 C3725 0.930 . S
H3738 C3726 0.956 . S
H3739 C3726 0.961 . S
H3740 C3726 0.961 . S
H3741 C3727 0.958 . S
H3742 C3727 0.961 . S
H3743 C3727 0.960 . S
C3744 C3745 1.391 . S
C3744 C3746 1.394 . S
C3744 H3760 0.931 . S
C3745 C3744 1.391 . S
C3745 C3749 1.376 . S
C3746 C3744 1.394 . S
C3746 C3747 1.369 . S
C3746 C3750 1.531 . S
C3747 C3746 1.369 . S
C3747 C3748 1.410 . S
C3747 C3755 1.503 . S
C3748 C3747 1.410 . S
C3748 C3749 1.392 . S
C3748 C3751 1.511 . S
C3749 C3745 1.376 . S
C3749 C3748 1.392 . S
C3749 H3761 0.929 . S
C3750 C3746 1.531 . S
C3750 H3762 0.960 . S
C3750 H3763 0.962 . S
C3750 H3764 0.960 . S
C3751 C3748 1.511 . S
C3751 H3765 0.961 . S
C3751 H3766 0.961 . S
C3751 H3767 0.961 . S
C3752 C3753 1.370 . S
C3752 C3754 1.363 . S
C3752 H3768 0.931 . S
C3753 C3752 1.370 . S
C3753 C3757 1.408 . S
C3754 C3752 1.363 . S
C3754 C3755 1.370 . S
C3754 C3758 1.524 . S
C3755 C3747 1.503 . S
C3755 C3754 1.370 . S
C3755 C3756 1.403 . S
C3756 C3755 1.403 . S
C3756 C3757 1.404 . S
C3756 C3759 1.539 . S
C3757 C3753 1.408 . S
C3757 C3756 1.404 . S
C3757 H3769 0.930 . S
C3758 C3754 1.524 . S
C3758 H3770 0.956 . S
C3758 H3771 0.961 . S
C3758 H3772 0.961 . S
C3759 C3756 1.539 . S
C3759 H3773 0.958 . S
C3759 H3774 0.961 . S
C3759 H3775 0.960 . S
H3760 C3744 0.931 . S
H3761 C3749 0.929 . S
H3762 C3750 0.960 . S
H3763 C3750 0.962 . S
H3764 C3750 0.960 . S
H3765 C3751 0.961 . S
H3766 C3751 0.961 . S
H3767 C3751 0.961 . S
H3768 C3752 0.931 . S
H3769 C3757 0.930 . S
H3770 C3758 0.956 . S
H3771 C3758 0.961 . S
H3772 C3758 0.961 . S
H3773 C3759 0.958 . S
H3774 C3759 0.961 . S
H3775 C3759 0.960 . S
C3776 C3777 1.391 . S
C3776 C3778 1.394 . S
C3776 H3792 0.931 . S
C3777 C3776 1.391 . S
C3777 C3781 1.376 . S
C3778 C3776 1.394 . S
C3778 C3779 1.369 . S
C3778 C3782 1.531 . S
C3779 C3778 1.369 . S
C3779 C3780 1.410 . S
C3779 C3787 1.503 . S
C3780 C3779 1.410 . S
C3780 C3781 1.392 . S
C3780 C3783 1.511 . S
C3781 C3777 1.376 . S
C3781 C3780 1.392 . S
C3781 H3793 0.929 . S
C3782 C3778 1.531 . S
C3782 H3794 0.960 . S
C3782 H3795 0.962 . S
C3782 H3796 0.960 . S
C3783 C3780 1.511 . S
C3783 H3797 0.961 . S
C3783 H3798 0.961 . S
C3783 H3799 0.961 . S
C3784 C3785 1.370 . S
C3784 C3786 1.363 . S
C3784 H3800 0.931 . S
C3785 C3784 1.370 . S
C3785 C3789 1.408 . S
C3786 C3784 1.363 . S
C3786 C3787 1.370 . S
C3786 C3790 1.524 . S
C3787 C3779 1.503 . S
C3787 C3786 1.370 . S
C3787 C3788 1.403 . S
C3788 C3787 1.403 . S
C3788 C3789 1.404 . S
C3788 C3791 1.539 . S
C3789 C3785 1.408 . S
C3789 C3788 1.404 . S
C3789 H3801 0.930 . S
C3790 C3786 1.524 . S
C3790 H3802 0.956 . S
C3790 H3803 0.961 . S
C3790 H3804 0.961 . S
C3791 C3788 1.539 . S
C3791 H3805 0.958 . S
C3791 H3806 0.961 . S
C3791 H3807 0.960 . S
H3792 C3776 0.931 . S
H3793 C3781 0.929 . S
H3794 C3782 0.960 . S
H3795 C3782 0.962 . S
H3796 C3782 0.960 . S
H3797 C3783 0.961 . S
H3798 C3783 0.961 . S
H3799 C3783 0.961 . S
H3800 C3784 0.931 . S
H3801 C3789 0.930 . S
H3802 C3790 0.956 . S
H3803 C3790 0.961 . S
H3804 C3790 0.961 . S
H3805 C3791 0.958 . S
H3806 C3791 0.961 . S
H3807 C3791 0.960 . S
C3808 C3809 1.391 . S
C3808 C3810 1.394 . S
C3808 H3824 0.931 . S
C3809 C3808 1.391 . S
C3809 C3813 1.376 . S
C3810 C3808 1.394 . S
C3810 C3811 1.369 . S
C3810 C3814 1.531 . S
C3811 C3810 1.369 . S
C3811 C3812 1.410 . S
C3811 C3819 1.503 . S
C3812 C3811 1.410 . S
C3812 C3813 1.392 . S
C3812 C3815 1.511 . S
C3813 C3809 1.376 . S
C3813 C3812 1.392 . S
C3813 H3825 0.929 . S
C3814 C3810 1.531 . S
C3814 H3826 0.960 . S
C3814 H3827 0.962 . S
C3814 H3828 0.960 . S
C3815 C3812 1.511 . S
C3815 H3829 0.961 . S
C3815 H3830 0.961 . S
C3815 H3831 0.961 . S
C3816 C3817 1.370 . S
C3816 C3818 1.363 . S
C3816 H3832 0.931 . S
C3817 C3816 1.370 . S
C3817 C3821 1.408 . S
C3818 C3816 1.363 . S
C3818 C3819 1.370 . S
C3818 C3822 1.524 . S
C3819 C3811 1.503 . S
C3819 C3818 1.370 . S
C3819 C3820 1.403 . S
C3820 C3819 1.403 . S
C3820 C3821 1.404 . S
C3820 C3823 1.539 . S
C3821 C3817 1.408 . S
C3821 C3820 1.404 . S
C3821 H3833 0.930 . S
C3822 C3818 1.524 . S
C3822 H3834 0.956 . S
C3822 H3835 0.961 . S
C3822 H3836 0.961 . S
C3823 C3820 1.539 . S
C3823 H3837 0.958 . S
C3823 H3838 0.961 . S
C3823 H3839 0.960 . S
H3824 C3808 0.931 . S
H3825 C3813 0.929 . S
H3826 C3814 0.960 . S
H3827 C3814 0.962 . S
H3828 C3814 0.960 . S
H3829 C3815 0.961 . S
H3830 C3815 0.961 . S
H3831 C3815 0.961 . S
H3832 C3816 0.931 . S
H3833 C3821 0.930 . S
H3834 C3822 0.956 . S
H3835 C3822 0.961 . S
H3836 C3822 0.961 . S
H3837 C3823 0.958 . S
H3838 C3823 0.961 . S
H3839 C3823 0.960 . S
C3840 C3841 1.391 . S
C3840 C3842 1.394 . S
C3840 H3856 0.931 . S
C3841 C3840 1.391 . S
C3841 C3845 1.376 . S
C3842 C3840 1.394 . S
C3842 C3843 1.369 . S
C3842 C3846 1.531 . S
C3843 C3842 1.369 . S
C3843 C3844 1.410 . S
C3843 C3851 1.503 . S
C3844 C3843 1.410 . S
C3844 C3845 1.392 . S
C3844 C3847 1.511 . S
C3845 C3841 1.376 . S
C3845 C3844 1.392 . S
C3845 H3857 0.929 . S
C3846 C3842 1.531 . S
C3846 H3858 0.960 . S
C3846 H3859 0.962 . S
C3846 H3860 0.960 . S
C3847 C3844 1.511 . S
C3847 H3861 0.961 . S
C3847 H3862 0.961 . S
C3847 H3863 0.961 . S
C3848 C3849 1.370 . S
C3848 C3850 1.363 . S
C3848 H3864 0.931 . S
C3849 C3848 1.370 . S
C3849 C3853 1.408 . S
C3850 C3848 1.363 . S
C3850 C3851 1.370 . S
C3850 C3854 1.524 . S
C3851 C3843 1.503 . S
C3851 C3850 1.370 . S
C3851 C3852 1.403 . S
C3852 C3851 1.403 . S
C3852 C3853 1.404 . S
C3852 C3855 1.539 . S
C3853 C3849 1.408 . S
C3853 C3852 1.404 . S
C3853 H3865 0.930 . S
C3854 C3850 1.524 . S
C3854 H3866 0.956 . S
C3854 H3867 0.961 . S
C3854 H3868 0.961 . S
C3855 C3852 1.539 . S
C3855 H3869 0.958 . S
C3855 H3870 0.961 . S
C3855 H3871 0.960 . S
H3856 C3840 0.931 . S
H3857 C3845 0.929 . S
H3858 C3846 0.960 . S
H3859 C3846 0.962 . S
H3860 C3846 0.960 . S
H3861 C3847 0.961 . S
H3862 C3847 0.961 . S
H3863 C3847 0.961 . S
H3864 C3848 0.931 . S
H3865 C3853 0.930 . S
H3866 C3854 0.956 . S
H3867 C3854 0.961 . S
H3868 C3854 0.961 . S
H3869 C3855 0.958 . S
H3870 C3855 0.961 . S
H3871 C3855 0.960 . S
C3872 C3873 1.391 . S
C3872 C3874 1.394 . S
C3872 H3888 0.931 . S
C3873 C3872 1.391 . S
C3873 C3877 1.376 . S
C3874 C3872 1.394 . S
C3874 C3875 1.369 . S
C3874 C3878 1.531 . S
C3875 C3874 1.369 . S
C3875 C3876 1.410 . S
C3875 C3883 1.503 . S
C3876 C3875 1.410 . S
C3876 C3877 1.392 . S
C3876 C3879 1.511 . S
C3877 C3873 1.376 . S
C3877 C3876 1.392 . S
C3877 H3889 0.929 . S
C3878 C3874 1.531 . S
C3878 H3890 0.960 . S
C3878 H3891 0.962 . S
C3878 H3892 0.960 . S
C3879 C3876 1.511 . S
C3879 H3893 0.961 . S
C3879 H3894 0.961 . S
C3879 H3895 0.961 . S
C3880 C3881 1.370 . S
C3880 C3882 1.363 . S
C3880 H3896 0.931 . S
C3881 C3880 1.370 . S
C3881 C3885 1.408 . S
C3882 C3880 1.363 . S
C3882 C3883 1.370 . S
C3882 C3886 1.524 . S
C3883 C3875 1.503 . S
C3883 C3882 1.370 . S
C3883 C3884 1.403 . S
C3884 C3883 1.403 . S
C3884 C3885 1.404 . S
C3884 C3887 1.539 . S
C3885 C3881 1.408 . S
C3885 C3884 1.404 . S
C3885 H3897 0.930 . S
C3886 C3882 1.524 . S
C3886 H3898 0.956 . S
C3886 H3899 0.961 . S
C3886 H3900 0.961 . S
C3887 C3884 1.539 . S
C3887 H3901 0.958 . S
C3887 H3902 0.961 . S
C3887 H3903 0.960 . S
H3888 C3872 0.931 . S
H3889 C3877 0.929 . S
H3890 C3878 0.960 . S
H3891 C3878 0.962 . S
H3892 C3878 0.960 . S
H3893 C3879 0.961 . S
H3894 C3879 0.961 . S
H3895 C3879 0.961 . S
H3896 C3880 0.931 . S
H3897 C3885 0.930 . S
H3898 C3886 0.956 . S
H3899 C3886 0.961 . S
H3900 C3886 0.961 . S
H3901 C3887 0.958 . S
H3902 C3887 0.961 . S
H3903 C3887 0.960 . S
C3904 C3905 1.391 . S
C3904 C3906 1.394 . S
C3904 H3920 0.931 . S
C3905 C3904 1.391 . S
C3905 C3909 1.376 . S
C3906 C3904 1.394 . S
C3906 C3907 1.369 . S
C3906 C3910 1.531 . S
C3907 C3906 1.369 . S
C3907 C3908 1.410 . S
C3907 C3915 1.503 . S
C3908 C3907 1.410 . S
C3908 C3909 1.392 . S
C3908 C3911 1.511 . S
C3909 C3905 1.376 . S
C3909 C3908 1.392 . S
C3909 H3921 0.929 . S
C3910 C3906 1.531 . S
C3910 H3922 0.960 . S
C3910 H3923 0.962 . S
C3910 H3924 0.960 . S
C3911 C3908 1.511 . S
C3911 H3925 0.961 . S
C3911 H3926 0.961 . S
C3911 H3927 0.961 . S
C3912 C3913 1.370 . S
C3912 C3914 1.363 . S
C3912 H3928 0.931 . S
C3913 C3912 1.370 . S
C3913 C3917 1.408 . S
C3914 C3912 1.363 . S
C3914 C3915 1.370 . S
C3914 C3918 1.524 . S
C3915 C3907 1.503 . S
C3915 C3914 1.370 . S
C3915 C3916 1.403 . S
C3916 C3915 1.403 . S
C3916 C3917 1.404 . S
C3916 C3919 1.539 . S
C3917 C3913 1.408 . S
C3917 C3916 1.404 . S
C3917 H3929 0.930 . S
C3918 C3914 1.524 . S
C3918 H3930 0.956 . S
C3918 H3931 0.961 . S
C3918 H3932 0.961 . S
C3919 C3916 1.539 . S
C3919 H3933 0.958 . S
C3919 H3934 0.961 . S
C3919 H3935 0.960 . S
H3920 C3904 0.931 . S
H3921 C3909 0.929 . S
H3922 C3910 0.960 . S
H3923 C3910 0.962 . S
H3924 C3910 0.960 . S
H3925 C3911 0.961 . S
H3926 C3911 0.961 . S
H3927 C3911 0.961 . S
H3928 C3912 0.931 . S
H3929 C3917 0.930 . S
H3930 C3918 0.956 . S
H3931 C3918 0.961 . S
H3932 C3918 0.961 . S
H3933 C3919 0.958 . S
H3934 C3919 0.961 . S
H3935 C3919 0.960 . S
C3936 C3937 1.391 . S
C3936 C3938 1.394 . S
C3936 H3952 0.931 1_455 S
C3937 C3936 1.391 . S
C3937 C3941 1.376 . S
C3938 C3936 1.394 . S
C3938 C3939 1.369 . S
C3938 C3942 1.531 1_455 S
C3939 C3938 1.369 . S
C3939 C3940 1.410 . S
C3939 C3947 1.503 . S
C3940 C3939 1.410 . S
C3940 C3941 1.392 . S
C3940 C3943 1.511 . S
C3941 C3937 1.376 . S
C3941 C3940 1.392 . S
C3941 H3953 0.929 . S
C3942 C3938 1.531 1_655 S
C3942 H3954 0.960 . S
C3942 H3955 0.962 . S
C3942 H3956 0.960 . S
C3943 C3940 1.511 . S
C3943 H3957 0.961 . S
C3943 H3958 0.961 . S
C3943 H3959 0.961 . S
C3944 C3945 1.370 . S
C3944 C3946 1.363 . S
C3944 H3960 0.952 . S
C3945 C3944 1.370 . S
C3945 C3949 1.408 . S
C3946 C3944 1.363 . S
C3946 C3947 1.370 . S
C3946 C3950 1.524 . S
C3947 C3939 1.503 . S
C3947 C3946 1.370 . S
C3947 C3948 1.403 . S
C3948 C3947 1.403 . S
C3948 C3949 1.404 . S
C3948 C3951 1.539 . S
C3949 C3945 1.408 . S
C3949 C3948 1.404 . S
C3949 H3961 0.930 . S
C3950 C3946 1.524 . S
C3950 H3962 0.956 1_455 S
C3950 H3963 0.961 . S
C3950 H3964 0.970 . S
C3951 C3948 1.539 . S
C3951 H3965 0.958 . S
C3951 H3966 0.961 . S
C3951 H3967 0.960 . S
H3952 C3936 0.931 1_655 S
H3953 C3941 0.929 . S
H3954 C3942 0.960 . S
H3955 C3942 0.962 . S
H3956 C3942 0.960 . S
H3957 C3943 0.961 . S
H3958 C3943 0.961 . S
H3959 C3943 0.961 . S
H3960 C3944 0.952 . S
H3961 C3949 0.930 . S
H3962 C3950 0.956 1_655 S
H3963 C3950 0.961 . S
H3964 C3950 0.970 . S
H3965 C3951 0.958 . S
H3966 C3951 0.961 . S
H3967 C3951 0.960 . S
C3968 C3969 1.391 . S
C3968 C3970 1.394 . S
C3968 H3984 0.931 . S
C3969 C3968 1.391 . S
C3969 C3973 1.376 . S
C3970 C3968 1.394 . S
C3970 C3971 1.369 . S
C3970 C3974 1.531 . S
C3971 C3970 1.369 . S
C3971 C3972 1.410 . S
C3971 C3979 1.503 . S
C3972 C3971 1.410 . S
C3972 C3973 1.392 . S
C3972 C3975 1.511 . S
C3973 C3969 1.376 . S
C3973 C3972 1.392 . S
C3973 H3985 0.929 . S
C3974 C3970 1.531 . S
C3974 H3986 0.960 . S
C3974 H3987 0.962 . S
C3974 H3988 0.960 . S
C3975 C3972 1.511 . S
C3975 H3989 0.961 . S
C3975 H3990 0.961 . S
C3975 H3991 0.961 . S
C3976 C3977 1.370 . S
C3976 C3978 1.363 . S
C3976 H3992 0.931 . S
C3977 C3976 1.370 . S
C3977 C3981 1.408 . S
C3978 C3976 1.363 . S
C3978 C3979 1.370 . S
C3978 C3982 1.524 . S
C3979 C3971 1.503 . S
C3979 C3978 1.370 . S
C3979 C3980 1.403 . S
C3980 C3979 1.403 . S
C3980 C3981 1.404 . S
C3980 C3983 1.539 . S
C3981 C3977 1.408 . S
C3981 C3980 1.404 . S
C3981 H3993 0.930 . S
C3982 C3978 1.524 . S
C3982 H3994 0.956 . S
C3982 H3995 0.961 . S
C3982 H3996 0.961 . S
C3983 C3980 1.539 . S
C3983 H3997 0.958 . S
C3983 H3998 0.961 . S
C3983 H3999 0.960 . S
H3984 C3968 0.931 . S
H3985 C3973 0.929 . S
H3986 C3974 0.960 . S
H3987 C3974 0.962 . S
H3988 C3974 0.960 . S
H3989 C3975 0.961 . S
H3990 C3975 0.961 . S
H3991 C3975 0.961 . S
H3992 C3976 0.931 . S
H3993 C3981 0.930 . S
H3994 C3982 0.956 . S
H3995 C3982 0.961 . S
H3996 C3982 0.961 . S
H3997 C3983 0.958 . S
H3998 C3983 0.961 . S
H3999 C3983 0.960 . S
C4000 C4001 1.391 . S
C4000 C4002 1.394 . S
C4000 H4016 0.931 1_565 S
C4001 C4000 1.391 . S
C4001 C4005 1.376 . S
C4002 C4000 1.394 . S
C4002 C4003 1.369 . S
C4002 C4006 1.531 1_565 S
C4003 C4002 1.369 . S
C4003 C4004 1.410 . S
C4003 C4011 1.503 . S
C4004 C4003 1.410 . S
C4004 C4005 1.392 . S
C4004 C4007 1.511 . S
C4005 C4001 1.376 . S
C4005 C4004 1.392 . S
C4005 H4017 0.929 . S
C4006 C4002 1.531 1_545 S
C4006 H4018 0.960 . S
C4006 H4019 0.962 . S
C4006 H4020 0.960 . S
C4007 C4004 1.511 . S
C4007 H4021 0.961 . S
C4007 H4022 0.961 . S
C4007 H4023 0.961 . S
C4008 C4009 1.370 1_545 S
C4008 C4010 1.343 . S
C4008 H4024 0.931 . S
C4009 C4008 1.370 1_565 S
C4009 C4013 1.408 . S
C4010 C4008 1.343 . S
C4010 C4011 1.325 1_545 S
C4010 C4014 1.593 . S
C4011 C4003 1.503 . S
C4011 C4010 1.325 1_565 S
C4011 C4012 1.403 . S
C4012 C4011 1.403 . S
C4012 C4013 1.404 . S
C4012 C4015 1.539 . S
C4013 C4009 1.408 . S
C4013 C4012 1.404 . S
C4013 H4025 0.930 . S
C4014 C4010 1.593 . S
C4014 H4026 0.956 . S
C4014 H4027 0.961 . S
C4014 H4028 0.961 . S
C4015 C4012 1.539 . S
C4015 H4029 0.958 . S
C4015 H4030 0.961 . S
C4015 H4031 0.960 . S
H4016 C4000 0.931 1_545 S
H4017 C4005 0.929 . S
H4018 C4006 0.960 . S
H4019 C4006 0.962 . S
H4020 C4006 0.960 . S
H4021 C4007 0.961 . S
H4022 C4007 0.961 . S
H4023 C4007 0.961 . S
H4024 C4008 0.931 . S
H4025 C4013 0.930 . S
H4026 C4014 0.956 . S
H4027 C4014 0.961 . S
H4028 C4014 0.961 . S
H4029 C4015 0.958 . S
H4030 C4015 0.961 . S
H4031 C4015 0.960 . S
C4032 C4033 1.391 . S
C4032 C4034 1.394 1_565 S
C4032 H4048 0.931 1_565 S
C4033 C4032 1.391 . S
C4033 C4037 1.376 . S
C4034 C4032 1.394 1_545 S
C4034 C4035 1.369 1_545 S
C4034 C4038 1.531 . S
C4035 C4034 1.369 1_565 S
C4035 C4036 1.410 . S
C4035 C4043 1.503 . S
C4036 C4035 1.410 . S
C4036 C4037 1.392 . S
C4036 C4039 1.511 . S
C4037 C4033 1.376 . S
C4037 C4036 1.392 . S
C4037 H4049 0.929 . S
C4038 C4034 1.531 . S
C4038 H4050 0.960 . S
C4038 H4051 0.962 . S
C4038 H4052 0.960 . S
C4039 C4036 1.511 . S
C4039 H4053 0.961 . S
C4039 H4054 0.961 . S
C4039 H4055 0.961 . S
C4040 C4041 1.370 . S
C4040 C4042 1.363 . S
C4040 H4056 0.931 . S
C4041 C4040 1.370 . S
C4041 C4045 1.408 1_565 S
C4042 C4040 1.363 . S
C4042 C4043 1.370 . S
C4042 C4046 1.524 . S
C4043 C4035 1.503 . S
C4043 C4042 1.370 . S
C4043 C4044 1.403 1_565 S
C4044 C4043 1.403 1_545 S
C4044 C4045 1.404 . S
C4044 C4047 1.539 . S
C4045 C4041 1.408 1_545 S
C4045 C4044 1.404 . S
C4045 H4057 0.930 . S
C4046 C4042 1.524 . S
C4046 H4058 0.956 . S
C4046 H4059 0.961 . S
C4046 H4060 0.961 . S
C4047 C4044 1.539 . S
C4047 H4061 0.958 . S
C4047 H4062 0.961 . S
C4047 H4063 0.960 . S
H4048 C4032 0.931 1_545 S
H4049 C4037 0.929 . S
H4050 C4038 0.960 . S
H4051 C4038 0.962 . S
H4052 C4038 0.960 . S
H4053 C4039 0.961 . S
H4054 C4039 0.961 . S
H4055 C4039 0.961 . S
H4056 C4040 0.931 . S
H4057 C4045 0.930 . S
H4058 C4046 0.956 . S
H4059 C4046 0.961 . S
H4060 C4046 0.961 . S
H4061 C4047 0.958 . S
H4062 C4047 0.961 . S
H4063 C4047 0.960 . S
C4064 C4065 1.391 . S
C4064 C4066 1.402 1_455 S
C4064 H4080 0.931 1_455 S
C4065 C4064 1.391 . S
C4065 C4069 1.376 . S
C4066 C4064 1.402 1_655 S
C4066 C4067 1.344 1_655 S
C4066 C4070 1.548 . S
C4067 C4066 1.344 1_455 S
C4067 C4068 1.410 . S
C4067 C4075 1.503 . S
C4068 C4067 1.410 . S
C4068 C4069 1.392 . S
C4068 C4071 1.511 . S
C4069 C4065 1.376 . S
C4069 C4068 1.392 . S
C4069 H4081 0.929 . S
C4070 C4066 1.548 . S
C4070 H4082 0.960 . S
C4070 H4083 0.962 . S
C4070 H4084 0.960 . S
C4071 C4068 1.511 . S
C4071 H4085 0.961 . S
C4071 H4086 0.961 . S
C4071 H4087 0.961 . S
C4072 C4073 1.343 1_655 S
C4072 C4074 1.363 . S
C4072 H4088 0.931 . S
C4073 C4072 1.343 1_455 S
C4073 C4077 1.418 . S
C4074 C4072 1.363 . S
C4074 C4075 1.370 1_655 S
C4074 C4078 1.524 . S
C4075 C4067 1.503 . S
C4075 C4074 1.370 1_455 S
C4075 C4076 1.403 . S
C4076 C4075 1.403 . S
C4076 C4077 1.404 . S
C4076 C4079 1.539 . S
C4077 C4073 1.418 . S
C4077 C4076 1.404 . S
C4077 H4089 0.930 . S
C4078 C4074 1.524 . S
C4078 H4090 0.956 . S
C4078 H4091 0.961 . S
C4078 H4092 0.961 . S
C4079 C4076 1.539 . S
C4079 H4093 0.958 . S
C4079 H4094 0.961 . S
C4079 H4095 0.960 . S
H4080 C4064 0.931 1_655 S
H4081 C4069 0.929 . S
H4082 C4070 0.960 . S
H4083 C4070 0.962 . S
H4084 C4070 0.960 . S
H4085 C4071 0.961 . S
H4086 C4071 0.961 . S
H4087 C4071 0.961 . S
H4088 C4072 0.931 . S
H4089 C4077 0.930 . S
H4090 C4078 0.956 . S
H4091 C4078 0.961 . S
H4092 C4078 0.961 . S
H4093 C4079 0.958 . S
H4094 C4079 0.961 . S
H4095 C4079 0.960 . S
C4096 C4097 1.391 . S
C4096 C4098 1.394 . S
C4096 H4112 0.931 . S
C4097 C4096 1.391 . S
C4097 C4101 1.376 . S
C4098 C4096 1.394 . S
C4098 C4099 1.369 . S
C4098 C4102 1.531 . S
C4099 C4098 1.369 . S
C4099 C4100 1.410 . S
C4099 C4107 1.503 . S
C4100 C4099 1.410 . S
C4100 C4101 1.392 . S
C4100 C4103 1.511 . S
C4101 C4097 1.376 . S
C4101 C4100 1.392 . S
C4101 H4113 0.929 . S
C4102 C4098 1.531 . S
C4102 H4114 0.960 . S
C4102 H4115 0.962 . S
C4102 H4116 0.960 . S
C4103 C4100 1.511 . S
C4103 H4117 0.961 . S
C4103 H4118 0.961 . S
C4103 H4119 0.961 . S
C4104 C4105 1.370 . S
C4104 C4106 1.363 . S
C4104 H4120 0.931 . S
C4105 C4104 1.370 . S
C4105 C4109 1.408 . S
C4106 C4104 1.363 . S
C4106 C4107 1.370 . S
C4106 C4110 1.524 . S
C4107 C4099 1.503 . S
C4107 C4106 1.370 . S
C4107 C4108 1.403 . S
C4108 C4107 1.403 . S
C4108 C4109 1.404 . S
C4108 C4111 1.539 . S
C4109 C4105 1.408 . S
C4109 C4108 1.404 . S
C4109 H4121 0.930 . S
C4110 C4106 1.524 . S
C4110 H4122 0.956 . S
C4110 H4123 0.961 . S
C4110 H4124 0.961 . S
C4111 C4108 1.539 . S
C4111 H4125 0.958 . S
C4111 H4126 0.961 . S
C4111 H4127 0.960 . S
H4112 C4096 0.931 . S
H4113 C4101 0.929 . S
H4114 C4102 0.960 . S
H4115 C4102 0.962 . S
H4116 C4102 0.960 . S
H4117 C4103 0.961 . S
H4118 C4103 0.961 . S
H4119 C4103 0.961 . S
H4120 C4104 0.931 . S
H4121 C4109 0.930 . S
H4122 C4110 0.956 . S
H4123 C4110 0.961 . S
H4124 C4110 0.961 . S
H4125 C4111 0.958 . S
H4126 C4111 0.961 . S
H4127 C4111 0.960 . S
C4128 C4129 1.391 . S
C4128 C4130 1.394 . S
C4128 H4144 0.931 . S
C4129 C4128 1.391 . S
C4129 C4133 1.376 . S
C4130 C4128 1.394 . S
C4130 C4131 1.369 . S
C4130 C4134 1.531 . S
C4131 C4130 1.369 . S
C4131 C4132 1.410 . S
C4131 C4139 1.503 . S
C4132 C4131 1.410 . S
C4132 C4133 1.392 . S
C4132 C4135 1.511 . S
C4133 C4129 1.376 . S
C4133 C4132 1.392 . S
C4133 H4145 0.929 . S
C4134 C4130 1.531 . S
C4134 H4146 0.960 . S
C4134 H4147 0.962 . S
C4134 H4148 0.960 . S
C4135 C4132 1.511 . S
C4135 H4149 0.961 . S
C4135 H4150 0.961 . S
C4135 H4151 0.961 . S
C4136 C4137 1.370 . S
C4136 C4138 1.363 . S
C4136 H4152 0.931 . S
C4137 C4136 1.370 . S
C4137 C4141 1.408 . S
C4138 C4136 1.363 . S
C4138 C4139 1.370 . S
C4138 C4142 1.524 . S
C4139 C4131 1.503 . S
C4139 C4138 1.370 . S
C4139 C4140 1.403 . S
C4140 C4139 1.403 . S
C4140 C4141 1.404 . S
C4140 C4143 1.539 . S
C4141 C4137 1.408 . S
C4141 C4140 1.404 . S
C4141 H4153 0.930 . S
C4142 C4138 1.524 . S
C4142 H4154 0.956 . S
C4142 H4155 0.961 . S
C4142 H4156 0.961 . S
C4143 C4140 1.539 . S
C4143 H4157 0.958 . S
C4143 H4158 0.961 . S
C4143 H4159 0.960 . S
H4144 C4128 0.931 . S
H4145 C4133 0.929 . S
H4146 C4134 0.960 . S
H4147 C4134 0.962 . S
H4148 C4134 0.960 . S
H4149 C4135 0.961 . S
H4150 C4135 0.961 . S
H4151 C4135 0.961 . S
H4152 C4136 0.931 . S
H4153 C4141 0.930 . S
H4154 C4142 0.956 . S
H4155 C4142 0.961 . S
H4156 C4142 0.961 . S
H4157 C4143 0.958 . S
H4158 C4143 0.961 . S
H4159 C4143 0.960 . S
C4160 C4161 1.391 . S
C4160 C4162 1.394 . S
C4160 H4176 0.931 . S
C4161 C4160 1.391 . S
C4161 C4165 1.376 . S
C4162 C4160 1.394 . S
C4162 C4163 1.369 . S
C4162 C4166 1.531 . S
C4163 C4162 1.369 . S
C4163 C4164 1.410 . S
C4163 C4171 1.503 . S
C4164 C4163 1.410 . S
C4164 C4165 1.392 . S
C4164 C4167 1.511 . S
C4165 C4161 1.376 . S
C4165 C4164 1.392 . S
C4165 H4177 0.929 . S
C4166 C4162 1.531 . S
C4166 H4178 0.960 . S
C4166 H4179 0.962 . S
C4166 H4180 0.960 . S
C4167 C4164 1.511 . S
C4167 H4181 0.961 . S
C4167 H4182 0.961 . S
C4167 H4183 0.961 . S
C4168 C4169 1.370 . S
C4168 C4170 1.363 . S
C4168 H4184 0.931 . S
C4169 C4168 1.370 . S
C4169 C4173 1.408 . S
C4170 C4168 1.363 . S
C4170 C4171 1.370 . S
C4170 C4174 1.524 . S
C4171 C4163 1.503 . S
C4171 C4170 1.370 . S
C4171 C4172 1.403 . S
C4172 C4171 1.403 . S
C4172 C4173 1.404 . S
C4172 C4175 1.539 . S
C4173 C4169 1.408 . S
C4173 C4172 1.404 . S
C4173 H4185 0.930 . S
C4174 C4170 1.524 . S
C4174 H4186 0.956 . S
C4174 H4187 0.961 . S
C4174 H4188 0.961 . S
C4175 C4172 1.539 . S
C4175 H4189 0.958 . S
C4175 H4190 0.961 . S
C4175 H4191 0.960 . S
H4176 C4160 0.931 . S
H4177 C4165 0.929 . S
H4178 C4166 0.960 . S
H4179 C4166 0.962 . S
H4180 C4166 0.960 . S
H4181 C4167 0.961 . S
H4182 C4167 0.961 . S
H4183 C4167 0.961 . S
H4184 C4168 0.931 . S
H4185 C4173 0.930 . S
H4186 C4174 0.956 . S
H4187 C4174 0.961 . S
H4188 C4174 0.961 . S
H4189 C4175 0.958 . S
H4190 C4175 0.961 . S
H4191 C4175 0.960 . S
C4192 C4193 1.391 . S
C4192 C4194 1.394 . S
C4192 H4208 0.931 . S
C4193 C4192 1.391 . S
C4193 C4197 1.376 . S
C4194 C4192 1.394 . S
C4194 C4195 1.369 . S
C4194 C4198 1.531 . S
C4195 C4194 1.369 . S
C4195 C4196 1.410 . S
C4195 C4203 1.503 . S
C4196 C4195 1.410 . S
C4196 C4197 1.392 . S
C4196 C4199 1.511 . S
C4197 C4193 1.376 . S
C4197 C4196 1.392 . S
C4197 H4209 0.929 . S
C4198 C4194 1.531 . S
C4198 H4210 0.960 . S
C4198 H4211 0.962 . S
C4198 H4212 0.960 . S
C4199 C4196 1.511 . S
C4199 H4213 0.961 . S
C4199 H4214 0.961 . S
C4199 H4215 0.961 . S
C4200 C4201 1.370 . S
C4200 C4202 1.363 . S
C4200 H4216 0.931 . S
C4201 C4200 1.370 . S
C4201 C4205 1.408 . S
C4202 C4200 1.363 . S
C4202 C4203 1.370 . S
C4202 C4206 1.524 . S
C4203 C4195 1.503 . S
C4203 C4202 1.370 . S
C4203 C4204 1.403 . S
C4204 C4203 1.403 . S
C4204 C4205 1.404 . S
C4204 C4207 1.539 . S
C4205 C4201 1.408 . S
C4205 C4204 1.404 . S
C4205 H4217 0.930 . S
C4206 C4202 1.524 . S
C4206 H4218 0.956 . S
C4206 H4219 0.961 . S
C4206 H4220 0.961 . S
C4207 C4204 1.539 . S
C4207 H4221 0.958 . S
C4207 H4222 0.961 . S
C4207 H4223 0.960 . S
H4208 C4192 0.931 . S
H4209 C4197 0.929 . S
H4210 C4198 0.960 . S
H4211 C4198 0.962 . S
H4212 C4198 0.960 . S
H4213 C4199 0.961 . S
H4214 C4199 0.961 . S
H4215 C4199 0.961 . S
H4216 C4200 0.931 . S
H4217 C4205 0.930 . S
H4218 C4206 0.956 . S
H4219 C4206 0.961 . S
H4220 C4206 0.961 . S
H4221 C4207 0.958 . S
H4222 C4207 0.961 . S
H4223 C4207 0.960 . S
C4224 C4225 1.391 . S
C4224 C4226 1.394 . S
C4224 H4240 0.931 . S
C4225 C4224 1.391 . S
C4225 C4229 1.376 . S
C4226 C4224 1.394 . S
C4226 C4227 1.369 . S
C4226 C4230 1.531 . S
C4227 C4226 1.369 . S
C4227 C4228 1.410 . S
C4227 C4235 1.503 . S
C4228 C4227 1.410 . S
C4228 C4229 1.392 . S
C4228 C4231 1.511 1_545 S
C4229 C4225 1.376 . S
C4229 C4228 1.392 . S
C4229 H4241 0.935 . S
C4230 C4226 1.531 . S
C4230 H4242 0.960 . S
C4230 H4243 0.962 . S
C4230 H4244 0.960 . S
C4231 C4228 1.511 1_565 S
C4231 H4245 0.961 . S
C4231 H4246 0.961 . S
C4231 H4247 0.961 . S
C4232 C4233 1.370 . S
C4232 C4234 1.363 . S
C4232 H4248 0.931 . S
C4233 C4232 1.370 . S
C4233 C4237 1.408 1_545 S
C4234 C4232 1.363 . S
C4234 C4235 1.370 . S
C4234 C4238 1.524 . S
C4235 C4227 1.503 . S
C4235 C4234 1.370 . S
C4235 C4236 1.358 1_545 S
C4236 C4235 1.358 1_565 S
C4236 C4237 1.445 . S
C4236 C4239 1.554 . S
C4237 C4233 1.408 1_565 S
C4237 C4236 1.445 . S
C4237 H4249 0.930 . S
C4238 C4234 1.524 . S
C4238 H4250 0.956 . S
C4238 H4251 0.961 . S
C4238 H4252 0.961 . S
C4239 C4236 1.554 . S
C4239 H4253 0.958 . S
C4239 H4254 0.961 . S
C4239 H4255 0.960 . S
H4240 C4224 0.931 . S
H4241 C4229 0.935 . S
H4242 C4230 0.960 . S
H4243 C4230 0.962 . S
H4244 C4230 0.960 . S
H4245 C4231 0.961 . S
H4246 C4231 0.961 . S
H4247 C4231 0.961 . S
H4248 C4232 0.931 . S
H4249 C4237 0.930 . S
H4250 C4238 0.956 . S
H4251 C4238 0.961 . S
H4252 C4238 0.961 . S
H4253 C4239 0.958 . S
H4254 C4239 0.961 . S
H4255 C4239 0.960 . S
C4256 C4257 1.391 . S
C4256 C4258 1.394 . S
C4256 H4272 0.931 . S
C4257 C4256 1.391 . S
C4257 C4261 1.376 1_655 S
C4258 C4256 1.394 . S
C4258 C4259 1.369 . S
C4258 C4262 1.531 . S
C4259 C4258 1.369 . S
C4259 C4260 1.410 1_655 S
C4259 C4267 1.503 . S
C4260 C4259 1.410 1_455 S
C4260 C4261 1.392 . S
C4260 C4263 1.511 . S
C4261 C4257 1.376 1_455 S
C4261 C4260 1.392 . S
C4261 H4273 0.929 . S
C4262 C4258 1.531 . S
C4262 H4274 0.960 . S
C4262 H4275 0.962 . S
C4262 H4276 0.960 . S
C4263 C4260 1.511 . S
C4263 H4277 0.961 . S
C4263 H4278 0.961 . S
C4263 H4279 0.961 . S
C4264 C4265 1.370 . S
C4264 C4266 1.363 . S
C4264 H4280 0.931 1_655 S
C4265 C4264 1.370 . S
C4265 C4269 1.408 . S
C4266 C4264 1.363 . S
C4266 C4267 1.370 . S
C4266 C4270 1.524 1_655 S
C4267 C4259 1.503 . S
C4267 C4266 1.370 . S
C4267 C4268 1.403 . S
C4268 C4267 1.403 . S
C4268 C4269 1.404 . S
C4268 C4271 1.539 . S
C4269 C4265 1.408 . S
C4269 C4268 1.404 . S
C4269 H4281 0.930 . S
C4270 C4266 1.524 1_455 S
C4270 H4282 0.956 1_455 S
C4270 H4283 0.961 . S
C4270 H4284 0.961 . S
C4271 C4268 1.539 . S
C4271 H4285 0.958 . S
C4271 H4286 0.961 . S
C4271 H4287 0.960 . S
H4272 C4256 0.931 . S
H4273 C4261 0.929 . S
H4274 C4262 0.960 . S
H4275 C4262 0.962 . S
H4276 C4262 0.960 . S
H4277 C4263 0.961 . S
H4278 C4263 0.961 . S
H4279 C4263 0.961 . S
H4280 C4264 0.931 1_455 S
H4281 C4269 0.930 . S
H4282 C4270 0.956 1_655 S
H4283 C4270 0.961 . S
H4284 C4270 0.961 . S
H4285 C4271 0.958 . S
H4286 C4271 0.961 . S
H4287 C4271 0.960 . S
C4288 C4289 1.391 . S
C4288 C4290 1.394 . S
C4288 H4304 0.931 . S
C4289 C4288 1.391 . S
C4289 C4293 1.376 . S
C4290 C4288 1.394 . S
C4290 C4291 1.369 . S
C4290 C4294 1.531 . S
C4291 C4290 1.369 . S
C4291 C4292 1.410 . S
C4291 C4299 1.503 . S
C4292 C4291 1.410 . S
C4292 C4293 1.392 . S
C4292 C4295 1.511 . S
C4293 C4289 1.376 . S
C4293 C4292 1.392 . S
C4293 H4305 0.929 . S
C4294 C4290 1.531 . S
C4294 H4306 0.960 . S
C4294 H4307 0.962 . S
C4294 H4308 0.960 . S
C4295 C4292 1.511 . S
C4295 H4309 0.961 . S
C4295 H4310 0.961 . S
C4295 H4311 0.961 . S
C4296 C4297 1.370 . S
C4296 C4298 1.363 . S
C4296 H4312 0.931 . S
C4297 C4296 1.370 . S
C4297 C4301 1.408 . S
C4298 C4296 1.363 . S
C4298 C4299 1.370 . S
C4298 C4302 1.524 . S
C4299 C4291 1.503 . S
C4299 C4298 1.370 . S
C4299 C4300 1.403 . S
C4300 C4299 1.403 . S
C4300 C4301 1.404 . S
C4300 C4303 1.539 . S
C4301 C4297 1.408 . S
C4301 C4300 1.404 . S
C4301 H4313 0.930 . S
C4302 C4298 1.524 . S
C4302 H4314 0.956 . S
C4302 H4315 0.961 . S
C4302 H4316 0.961 . S
C4303 C4300 1.539 . S
C4303 H4317 0.958 . S
C4303 H4318 0.961 . S
C4303 H4319 0.960 . S
H4304 C4288 0.931 . S
H4305 C4293 0.929 . S
H4306 C4294 0.960 . S
H4307 C4294 0.962 . S
H4308 C4294 0.960 . S
H4309 C4295 0.961 . S
H4310 C4295 0.961 . S
H4311 C4295 0.961 . S
H4312 C4296 0.931 . S
H4313 C4301 0.930 . S
H4314 C4302 0.956 . S
H4315 C4302 0.961 . S
H4316 C4302 0.961 . S
H4317 C4303 0.958 . S
H4318 C4303 0.961 . S
H4319 C4303 0.960 . S
C4320 C4321 1.391 . S
C4320 C4322 1.394 . S
C4320 H4336 0.931 . S
C4321 C4320 1.391 . S
C4321 C4325 1.376 . S
C4322 C4320 1.394 . S
C4322 C4323 1.369 . S
C4322 C4326 1.531 . S
C4323 C4322 1.369 . S
C4323 C4324 1.410 . S
C4323 C4331 1.503 . S
C4324 C4323 1.410 . S
C4324 C4325 1.392 . S
C4324 C4327 1.511 . S
C4325 C4321 1.376 . S
C4325 C4324 1.392 . S
C4325 H4337 0.929 . S
C4326 C4322 1.531 . S
C4326 H4338 0.960 . S
C4326 H4339 0.962 . S
C4326 H4340 0.960 . S
C4327 C4324 1.511 . S
C4327 H4341 0.961 . S
C4327 H4342 0.961 . S
C4327 H4343 0.961 . S
C4328 C4329 1.370 . S
C4328 C4330 1.363 . S
C4328 H4344 0.931 . S
C4329 C4328 1.370 . S
C4329 C4333 1.408 . S
C4330 C4328 1.363 . S
C4330 C4331 1.370 . S
C4330 C4334 1.524 . S
C4331 C4323 1.503 . S
C4331 C4330 1.370 . S
C4331 C4332 1.403 . S
C4332 C4331 1.403 . S
C4332 C4333 1.404 . S
C4332 C4335 1.539 . S
C4333 C4329 1.408 . S
C4333 C4332 1.404 . S
C4333 H4345 0.930 . S
C4334 C4330 1.524 . S
C4334 H4346 0.956 . S
C4334 H4347 0.961 . S
C4334 H4348 0.961 . S
C4335 C4332 1.539 . S
C4335 H4349 0.958 . S
C4335 H4350 0.961 . S
C4335 H4351 0.960 . S
H4336 C4320 0.931 . S
H4337 C4325 0.929 . S
H4338 C4326 0.960 . S
H4339 C4326 0.962 . S
H4340 C4326 0.960 . S
H4341 C4327 0.961 . S
H4342 C4327 0.961 . S
H4343 C4327 0.961 . S
H4344 C4328 0.931 . S
H4345 C4333 0.930 . S
H4346 C4334 0.956 . S
H4347 C4334 0.961 . S
H4348 C4334 0.961 . S
H4349 C4335 0.958 . S
H4350 C4335 0.961 . S
H4351 C4335 0.960 . S
C4352 C4353 1.391 . S
C4352 C4354 1.394 . S
C4352 H4368 0.931 . S
C4353 C4352 1.391 . S
C4353 C4357 1.376 . S
C4354 C4352 1.394 . S
C4354 C4355 1.369 . S
C4354 C4358 1.531 . S
C4355 C4354 1.369 . S
C4355 C4356 1.410 . S
C4355 C4363 1.503 . S
C4356 C4355 1.410 . S
C4356 C4357 1.392 . S
C4356 C4359 1.511 . S
C4357 C4353 1.376 . S
C4357 C4356 1.392 . S
C4357 H4369 0.929 . S
C4358 C4354 1.531 . S
C4358 H4370 0.960 . S
C4358 H4371 0.962 . S
C4358 H4372 0.960 . S
C4359 C4356 1.511 . S
C4359 H4373 0.961 . S
C4359 H4374 0.961 . S
C4359 H4375 0.961 . S
C4360 C4361 1.370 . S
C4360 C4362 1.363 . S
C4360 H4376 0.931 . S
C4361 C4360 1.370 . S
C4361 C4365 1.408 . S
C4362 C4360 1.363 . S
C4362 C4363 1.370 . S
C4362 C4366 1.524 . S
C4363 C4355 1.503 . S
C4363 C4362 1.370 . S
C4363 C4364 1.403 . S
C4364 C4363 1.403 . S
C4364 C4365 1.404 . S
C4364 C4367 1.539 . S
C4365 C4361 1.408 . S
C4365 C4364 1.404 . S
C4365 H4377 0.930 . S
C4366 C4362 1.524 . S
C4366 H4378 0.956 . S
C4366 H4379 0.961 . S
C4366 H4380 0.961 . S
C4367 C4364 1.539 . S
C4367 H4381 0.958 . S
C4367 H4382 0.961 . S
C4367 H4383 0.960 . S
H4368 C4352 0.931 . S
H4369 C4357 0.929 . S
H4370 C4358 0.960 . S
H4371 C4358 0.962 . S
H4372 C4358 0.960 . S
H4373 C4359 0.961 . S
H4374 C4359 0.961 . S
H4375 C4359 0.961 . S
H4376 C4360 0.931 . S
H4377 C4365 0.930 . S
H4378 C4366 0.956 . S
H4379 C4366 0.961 . S
H4380 C4366 0.961 . S
H4381 C4367 0.958 . S
H4382 C4367 0.961 . S
H4383 C4367 0.960 . S
C4384 C4385 1.391 . S
C4384 C4386 1.394 . S
C4384 H4400 0.931 . S
C4385 C4384 1.391 . S
C4385 C4389 1.376 . S
C4386 C4384 1.394 . S
C4386 C4387 1.369 . S
C4386 C4390 1.531 . S
C4387 C4386 1.369 . S
C4387 C4388 1.410 . S
C4387 C4395 1.503 . S
C4388 C4387 1.410 . S
C4388 C4389 1.392 . S
C4388 C4391 1.511 . S
C4389 C4385 1.376 . S
C4389 C4388 1.392 . S
C4389 H4401 0.929 . S
C4390 C4386 1.531 . S
C4390 H4402 0.960 . S
C4390 H4403 0.962 . S
C4390 H4404 0.960 . S
C4391 C4388 1.511 . S
C4391 H4405 0.961 . S
C4391 H4406 0.961 . S
C4391 H4407 0.961 . S
C4392 C4393 1.370 . S
C4392 C4394 1.363 . S
C4392 H4408 0.931 . S
C4393 C4392 1.370 . S
C4393 C4397 1.408 . S
C4394 C4392 1.363 . S
C4394 C4395 1.370 . S
C4394 C4398 1.524 . S
C4395 C4387 1.503 . S
C4395 C4394 1.370 . S
C4395 C4396 1.403 . S
C4396 C4395 1.403 . S
C4396 C4397 1.404 . S
C4396 C4399 1.539 . S
C4397 C4393 1.408 . S
C4397 C4396 1.404 . S
C4397 H4409 0.930 . S
C4398 C4394 1.524 . S
C4398 H4410 0.956 . S
C4398 H4411 0.961 . S
C4398 H4412 0.961 . S
C4399 C4396 1.539 . S
C4399 H4413 0.958 . S
C4399 H4414 0.961 . S
C4399 H4415 0.960 . S
H4400 C4384 0.931 . S
H4401 C4389 0.929 . S
H4402 C4390 0.960 . S
H4403 C4390 0.962 . S
H4404 C4390 0.960 . S
H4405 C4391 0.961 . S
H4406 C4391 0.961 . S
H4407 C4391 0.961 . S
H4408 C4392 0.931 . S
H4409 C4397 0.930 . S
H4410 C4398 0.956 . S
H4411 C4398 0.961 . S
H4412 C4398 0.961 . S
H4413 C4399 0.958 . S
H4414 C4399 0.961 . S
H4415 C4399 0.960 . S
C4416 C4417 1.391 . S
C4416 C4418 1.394 . S
C4416 H4432 0.931 . S
C4417 C4416 1.391 . S
C4417 C4421 1.376 . S
C4418 C4416 1.394 . S
C4418 C4419 1.369 . S
C4418 C4422 1.531 . S
C4419 C4418 1.369 . S
C4419 C4420 1.410 . S
C4419 C4427 1.503 . S
C4420 C4419 1.410 . S
C4420 C4421 1.392 . S
C4420 C4423 1.511 . S
C4421 C4417 1.376 . S
C4421 C4420 1.392 . S
C4421 H4433 0.929 . S
C4422 C4418 1.531 . S
C4422 H4434 0.960 . S
C4422 H4435 0.962 . S
C4422 H4436 0.960 . S
C4423 C4420 1.511 . S
C4423 H4437 0.961 . S
C4423 H4438 0.961 . S
C4423 H4439 0.961 . S
C4424 C4425 1.370 . S
C4424 C4426 1.363 . S
C4424 H4440 0.931 . S
C4425 C4424 1.370 . S
C4425 C4429 1.408 . S
C4426 C4424 1.363 . S
C4426 C4427 1.370 . S
C4426 C4430 1.524 . S
C4427 C4419 1.503 . S
C4427 C4426 1.370 . S
C4427 C4428 1.403 . S
C4428 C4427 1.403 . S
C4428 C4429 1.404 . S
C4428 C4431 1.539 . S
C4429 C4425 1.408 . S
C4429 C4428 1.404 . S
C4429 H4441 0.930 . S
C4430 C4426 1.524 . S
C4430 H4442 0.956 . S
C4430 H4443 0.961 . S
C4430 H4444 0.961 . S
C4431 C4428 1.539 . S
C4431 H4445 0.958 . S
C4431 H4446 0.961 . S
C4431 H4447 0.960 . S
H4432 C4416 0.931 . S
H4433 C4421 0.929 . S
H4434 C4422 0.960 . S
H4435 C4422 0.962 . S
H4436 C4422 0.960 . S
H4437 C4423 0.961 . S
H4438 C4423 0.961 . S
H4439 C4423 0.961 . S
H4440 C4424 0.931 . S
H4441 C4429 0.930 . S
H4442 C4430 0.956 . S
H4443 C4430 0.961 . S
H4444 C4430 0.961 . S
H4445 C4431 0.958 . S
H4446 C4431 0.961 . S
H4447 C4431 0.960 . S
C4448 C4449 1.391 . S
C4448 C4450 1.394 . S
C4448 H4464 0.931 . S
C4449 C4448 1.391 . S
C4449 C4453 1.376 . S
C4450 C4448 1.394 . S
C4450 C4451 1.369 . S
C4450 C4454 1.531 . S
C4451 C4450 1.369 . S
C4451 C4452 1.410 . S
C4451 C4459 1.503 . S
C4452 C4451 1.410 . S
C4452 C4453 1.392 . S
C4452 C4455 1.511 . S
C4453 C4449 1.376 . S
C4453 C4452 1.392 . S
C4453 H4465 0.929 . S
C4454 C4450 1.531 . S
C4454 H4466 0.960 . S
C4454 H4467 0.962 . S
C4454 H4468 0.960 . S
C4455 C4452 1.511 . S
C4455 H4469 0.961 . S
C4455 H4470 0.961 . S
C4455 H4471 0.961 . S
C4456 C4457 1.370 . S
C4456 C4458 1.363 . S
C4456 H4472 0.931 . S
C4457 C4456 1.370 . S
C4457 C4461 1.408 . S
C4458 C4456 1.363 . S
C4458 C4459 1.370 . S
C4458 C4462 1.524 . S
C4459 C4451 1.503 . S
C4459 C4458 1.370 . S
C4459 C4460 1.403 . S
C4460 C4459 1.403 . S
C4460 C4461 1.404 . S
C4460 C4463 1.539 . S
C4461 C4457 1.408 . S
C4461 C4460 1.404 . S
C4461 H4473 0.930 . S
C4462 C4458 1.524 . S
C4462 H4474 0.956 . S
C4462 H4475 0.961 . S
C4462 H4476 0.961 . S
C4463 C4460 1.539 . S
C4463 H4477 0.958 . S
C4463 H4478 0.961 . S
C4463 H4479 0.960 . S
H4464 C4448 0.931 . S
H4465 C4453 0.929 . S
H4466 C4454 0.960 . S
H4467 C4454 0.962 . S
H4468 C4454 0.960 . S
H4469 C4455 0.961 . S
H4470 C4455 0.961 . S
H4471 C4455 0.961 . S
H4472 C4456 0.931 . S
H4473 C4461 0.930 . S
H4474 C4462 0.956 . S
H4475 C4462 0.961 . S
H4476 C4462 0.961 . S
H4477 C4463 0.958 . S
H4478 C4463 0.961 . S
H4479 C4463 0.960 . S
C4480 C4481 1.391 . S
C4480 C4482 1.394 . S
C4480 H4496 0.931 . S
C4481 C4480 1.391 . S
C4481 C4485 1.376 . S
C4482 C4480 1.394 . S
C4482 C4483 1.369 . S
C4482 C4486 1.531 . S
C4483 C4482 1.369 . S
C4483 C4484 1.410 . S
C4483 C4491 1.503 . S
C4484 C4483 1.410 . S
C4484 C4485 1.392 . S
C4484 C4487 1.511 . S
C4485 C4481 1.376 . S
C4485 C4484 1.392 . S
C4485 H4497 0.929 . S
C4486 C4482 1.531 . S
C4486 H4498 0.960 . S
C4486 H4499 0.962 . S
C4486 H4500 0.960 . S
C4487 C4484 1.511 . S
C4487 H4501 0.961 . S
C4487 H4502 0.961 . S
C4487 H4503 0.961 . S
C4488 C4489 1.370 . S
C4488 C4490 1.363 . S
C4488 H4504 0.931 . S
C4489 C4488 1.370 . S
C4489 C4493 1.408 . S
C4490 C4488 1.363 . S
C4490 C4491 1.370 . S
C4490 C4494 1.524 . S
C4491 C4483 1.503 . S
C4491 C4490 1.370 . S
C4491 C4492 1.403 . S
C4492 C4491 1.403 . S
C4492 C4493 1.404 . S
C4492 C4495 1.539 . S
C4493 C4489 1.408 . S
C4493 C4492 1.404 . S
C4493 H4505 0.930 . S
C4494 C4490 1.524 . S
C4494 H4506 0.956 . S
C4494 H4507 0.961 . S
C4494 H4508 0.961 . S
C4495 C4492 1.539 . S
C4495 H4509 0.958 . S
C4495 H4510 0.961 . S
C4495 H4511 0.960 . S
H4496 C4480 0.931 . S
H4497 C4485 0.929 . S
H4498 C4486 0.960 . S
H4499 C4486 0.962 . S
H4500 C4486 0.960 . S
H4501 C4487 0.961 . S
H4502 C4487 0.961 . S
H4503 C4487 0.961 . S
H4504 C4488 0.931 . S
H4505 C4493 0.930 . S
H4506 C4494 0.956 . S
H4507 C4494 0.961 . S
H4508 C4494 0.961 . S
H4509 C4495 0.958 . S
H4510 C4495 0.961 . S
H4511 C4495 0.960 . S
C4512 C4513 1.391 . S
C4512 C4514 1.394 1_655 S
C4512 H4528 0.931 1_655 S
C4513 C4512 1.391 . S
C4513 C4517 1.376 . S
C4514 C4512 1.394 1_455 S
C4514 C4515 1.369 1_455 S
C4514 C4518 1.531 . S
C4515 C4514 1.369 1_655 S
C4515 C4516 1.410 . S
C4515 C4523 1.503 . S
C4516 C4515 1.410 . S
C4516 C4517 1.392 . S
C4516 C4519 1.511 . S
C4517 C4513 1.376 . S
C4517 C4516 1.392 . S
C4517 H4529 0.929 . S
C4518 C4514 1.531 . S
C4518 H4530 0.960 . S
C4518 H4531 0.962 . S
C4518 H4532 0.960 . S
C4519 C4516 1.511 . S
C4519 H4533 0.961 . S
C4519 H4534 0.961 . S
C4519 H4535 0.961 . S
C4520 C4521 1.370 . S
C4520 C4522 1.363 . S
C4520 H4536 0.931 . S
C4521 C4520 1.370 . S
C4521 C4525 1.408 . S
C4522 C4520 1.363 . S
C4522 C4523 1.370 . S
C4522 C4526 1.524 . S
C4523 C4515 1.503 . S
C4523 C4522 1.370 . S
C4523 C4524 1.403 . S
C4524 C4523 1.403 . S
C4524 C4525 1.404 . S
C4524 C4527 1.539 . S
C4525 C4521 1.408 . S
C4525 C4524 1.404 . S
C4525 H4537 0.930 . S
C4526 C4522 1.524 . S
C4526 H4538 0.956 . S
C4526 H4539 0.961 . S
C4526 H4540 0.961 . S
C4527 C4524 1.539 . S
C4527 H4541 0.958 1_655 S
C4527 H4542 0.961 . S
C4527 H4543 0.960 . S
H4528 C4512 0.931 1_455 S
H4529 C4517 0.929 . S
H4530 C4518 0.960 . S
H4531 C4518 0.962 . S
H4532 C4518 0.960 . S
H4533 C4519 0.961 . S
H4534 C4519 0.961 . S
H4535 C4519 0.961 . S
H4536 C4520 0.931 . S
H4537 C4525 0.930 . S
H4538 C4526 0.956 . S
H4539 C4526 0.961 . S
H4540 C4526 0.961 . S
H4541 C4527 0.958 1_455 S
H4542 C4527 0.961 . S
H4543 C4527 0.960 . S
C4544 C4545 1.391 . S
C4544 C4546 1.394 . S
C4544 H4560 0.931 . S
C4545 C4544 1.391 . S
C4545 C4549 1.376 . S
C4546 C4544 1.394 . S
C4546 C4547 1.369 . S
C4546 C4550 1.531 . S
C4547 C4546 1.369 . S
C4547 C4548 1.410 . S
C4547 C4555 1.503 . S
C4548 C4547 1.410 . S
C4548 C4549 1.392 . S
C4548 C4551 1.511 . S
C4549 C4545 1.376 . S
C4549 C4548 1.392 . S
C4549 H4561 0.929 . S
C4550 C4546 1.531 . S
C4550 H4562 0.960 . S
C4550 H4563 0.962 . S
C4550 H4564 0.960 . S
C4551 C4548 1.511 . S
C4551 H4565 0.961 . S
C4551 H4566 0.961 . S
C4551 H4567 0.961 . S
C4552 C4553 1.370 . S
C4552 C4554 1.363 . S
C4552 H4568 0.931 . S
C4553 C4552 1.370 . S
C4553 C4557 1.408 . S
C4554 C4552 1.363 . S
C4554 C4555 1.370 . S
C4554 C4558 1.524 . S
C4555 C4547 1.503 . S
C4555 C4554 1.370 . S
C4555 C4556 1.403 . S
C4556 C4555 1.403 . S
C4556 C4557 1.404 . S
C4556 C4559 1.539 . S
C4557 C4553 1.408 . S
C4557 C4556 1.404 . S
C4557 H4569 0.930 . S
C4558 C4554 1.524 . S
C4558 H4570 0.956 . S
C4558 H4571 0.961 . S
C4558 H4572 0.961 . S
C4559 C4556 1.539 . S
C4559 H4573 0.958 . S
C4559 H4574 0.961 . S
C4559 H4575 0.960 . S
H4560 C4544 0.931 . S
H4561 C4549 0.929 . S
H4562 C4550 0.960 . S
H4563 C4550 0.962 . S
H4564 C4550 0.960 . S
H4565 C4551 0.961 . S
H4566 C4551 0.961 . S
H4567 C4551 0.961 . S
H4568 C4552 0.931 . S
H4569 C4557 0.930 . S
H4570 C4558 0.956 . S
H4571 C4558 0.961 . S
H4572 C4558 0.961 . S
H4573 C4559 0.958 . S
H4574 C4559 0.961 . S
H4575 C4559 0.960 . S
C4576 C4577 1.391 . S
C4576 C4578 1.386 . S
C4576 H4592 0.942 . S
C4577 C4576 1.391 . S
C4577 C4581 1.376 . S
C4578 C4576 1.386 . S
C4578 C4579 1.380 . S
C4578 C4582 1.529 1_545 S
C4579 C4578 1.380 . S
C4579 C4580 1.410 . S
C4579 C4587 1.503 . S
C4580 C4579 1.410 . S
C4580 C4581 1.392 . S
C4580 C4583 1.511 . S
C4581 C4577 1.376 . S
C4581 C4580 1.392 . S
C4581 H4593 0.929 . S
C4582 C4578 1.529 1_565 S
C4582 H4594 0.960 . S
C4582 H4595 0.962 . S
C4582 H4596 0.960 . S
C4583 C4580 1.511 . S
C4583 H4597 0.961 . S
C4583 H4598 0.961 . S
C4583 H4599 0.961 . S
C4584 C4585 1.367 1_545 S
C4584 C4586 1.363 . S
C4584 H4600 0.931 . S
C4585 C4584 1.367 1_565 S
C4585 C4589 1.413 . S
C4586 C4584 1.363 . S
C4586 C4587 1.370 . S
C4586 C4590 1.524 . S
C4587 C4579 1.503 . S
C4587 C4586 1.370 . S
C4587 C4588 1.403 1_545 S
C4588 C4587 1.403 1_565 S
C4588 C4589 1.404 . S
C4588 C4591 1.539 . S
C4589 C4585 1.413 . S
C4589 C4588 1.404 . S
C4589 H4601 0.930 . S
C4590 C4586 1.524 . S
C4590 H4602 0.956 . S
C4590 H4603 0.961 . S
C4590 H4604 0.961 . S
C4591 C4588 1.539 . S
C4591 H4605 0.958 . S
C4591 H4606 0.961 . S
C4591 H4607 0.960 . S
H4592 C4576 0.942 . S
H4593 C4581 0.929 . S
H4594 C4582 0.960 . S
H4595 C4582 0.962 . S
H4596 C4582 0.960 . S
H4597 C4583 0.961 . S
H4598 C4583 0.961 . S
H4599 C4583 0.961 . S
H4600 C4584 0.931 . S
H4601 C4589 0.930 . S
H4602 C4590 0.956 . S
H4603 C4590 0.961 . S
H4604 C4590 0.961 . S
H4605 C4591 0.958 . S
H4606 C4591 0.961 . S
H4607 C4591 0.960 . S
C2305 C13 1.300 . S
C2313 C1307 1.063 1_655 S
C2337 C27 1.365 . S
C2345 C1447 1.000 . S
C2377 C1535 1.073 . S
C2369 C36 1.216 . S
C2401 C41 1.379 . S
C2409 C1675 1.061 1_565 S
C2433 C8 1.347 . S
C2441 C1789 1.060 . S
C2465 C22 1.548 . S
C2473 C1877 1.162 . S
C2497 C55 1.321 . S
C2505 C1763 1.037 . S
C2537 C1903 1.177 . S
C2529 C69 1.299 . S
C2569 C1649 1.136 . S
C2561 C78 1.186 . S
C2593 C83 1.405 . S
C2601 C1561 1.046 . S
C2633 C1333 1.125 . S
C2625 C50 1.319 . S
C2657 C64 1.475 . S
C2665 C1421 1.308 . S
C2689 C97 1.614 . S
C2697 C1991 1.305 . S
C2721 C111 1.527 . S
C2729 C2131 1.009 . S
C2761 C2219 1.228 . S
C2753 C120 1.651 . S
C2785 C125 1.645 . S
C2793 C307 1.068 . S
C2817 C92 1.873 . S
C2825 C421 1.213 . S
C2849 C106 1.622 . S
C2857 C509 1.271 . S
C2881 C139 1.389 . S
C2889 C395 1.377 . S
C2913 C153 1.381 . S
C2921 C535 1.243 . S
C2953 C281 1.456 . S
C2945 C162 1.559 . S
C2985 C2245 1.474 . S
C2977 C167 1.676 . S
C3017 C2017 1.533 . S
C3009 C134 1.707 . S
C3049 C2105 1.446 . S
C3041 C148 1.593 . S
C3073 C181 1.551 . S
C3081 C623 1.171 . S
C3105 C195 1.520 . S
C3113 C763 0.980 . S
C3137 C204 1.667 . S
C3145 C851 1.246 . S
C3169 C209 1.759 . S
C3177 C991 1.179 . S
C3209 C1105 1.253 . S
C3201 C176 1.847 . S
C3241 C1193 1.269 . S
C3233 C190 1.701 . S
C3273 C1079 1.508 . S
C3265 C223 1.523 . S
C3305 C1219 1.265 . S
C3297 C237 1.429 . S
C3329 C246 1.495 . S
C3337 C965 1.420 . S
C3369 C877 1.351 . S
C3361 C251 1.548 . S
C3393 C218 1.781 . S
C3401 C649 1.532 . S
C3433 C737 1.435 . S
C3425 C232 1.563 . S
C3465 C263 0.931 . S
C3457 C11 1.695 . S
C3489 C25 1.457 . S
C3497 C377 0.830 . S
C3529 C481 1.167 . S
C3521 C35 1.649 . S
C3561 C595 1.124 . S
C3553 C39 1.587 . S
C3593 C719 0.957 . S
C3585 C7 1.795 . S
C3625 C823 1.099 . S
C3617 C21 1.618 1_556 S
C3649 C53 1.839 . S
C3657 C833 1.428 . S
C3681 C67 1.599 . S
C3689 C605 1.279 . S
C3713 C77 1.748 1_556 S
C3721 C709 1.509 . S
C3745 C81 1.723 . S
C3753 C367 1.573 . S
C3785 C491 1.452 . S
C3777 C49 1.903 . S
C3809 C63 1.715 . S
C3817 C253 1.522 . S
C3849 C947 0.934 . S
C3841 C95 1.638 . S
C3873 C109 1.584 . S
C3881 C1061 0.916 . S
C3905 C119 1.677 . S
C3913 C1165 1.200 . S
C3945 C1279 0.891 . S
C3937 C123 1.114 . S
C3969 C91 1.644 . S
C3977 C1403 0.951 . S
C4001 C105 1.171 . S
C4009 C1507 0.922 . S
C4033 C137 1.329 . S
C4041 C1517 0.893 1_565 S
C4065 C151 1.093 . S
C4073 C1289 0.822 1_455 S
C4105 C1393 1.397 . S
C4097 C161 1.626 . S
C4129 C165 1.659 . S
C4137 C1051 1.512 . S
C4161 C133 1.883 . S
C4169 C1175 1.447 . S
C4201 C937 1.609 . S
C4193 C147 1.841 . S
C4233 C1631 0.892 . S
C4225 C179 1.336 . S
C4257 C193 1.060 . S
C4265 C1745 0.787 . S
C4289 C203 1.505 . S
C4297 C1849 1.118 . S
C4329 C1963 1.157 . S
C4321 C207 1.482 . S
C4361 C2087 1.026 . S
C4353 C175 1.792 . S
C4385 C189 1.726 . S
C4393 C2191 1.216 . S
C4417 C221 1.745 . S
C4425 C2201 1.388 . S
C4449 C235 1.704 . S
C4457 C1973 1.365 . S
C4489 C2077 1.545 . S
C4481 C245 1.764 . S
C4521 C1735 0.988 1_655 S
C4513 C249 1.102 . S
C4553 C1859 1.344 . S
C4545 C217 1.749 . S
C4577 C231 1.235 . S
C4585 C1621 1.023 . S
