# Generated by pormake.
# Topology pth, (4,4)-cn, num edge types: 1
# Building blocks:
#     Node 0, Type 0, BuildingBlock: QUQFOY_clean_sbu_3, # of connection points: 4
#     Node 1, Type 0, BuildingBlock: QUQFOY_clean_sbu_3, # of connection points: 4
#     Node 2, Type 0, BuildingBlock: QUQFOY_clean_sbu_3, # of connection points: 4
#     Node 3, Type 1, BuildingBlock: MUDLON_clean_linker_0, # of connection points: 4
#     Node 4, Type 1, BuildingBlock: MUDLON_clean_linker_0, # of connection points: 4
#     Node 5, Type 1, BuildingBlock: MUDLON_clean_linker_0, # of connection points: 4
#     Edge 6, Type (0, 1), BuildingBlock: FUNLAD_clean_linker_0, # of connection points: 2
#     Edge 7, Type (0, 1), BuildingBlock: FUNLAD_clean_linker_0, # of connection points: 2
#     Edge 8, Type (0, 1), BuildingBlock: FUNLAD_clean_linker_0, # of connection points: 2
#     Edge 9, Type (0, 1), BuildingBlock: FUNLAD_clean_linker_0, # of connection points: 2
#     Edge 10, Type (0, 1), BuildingBlock: FUNLAD_clean_linker_0, # of connection points: 2
#     Edge 11, Type (0, 1), BuildingBlock: FUNLAD_clean_linker_0, # of connection points: 2
#     Edge 12, Type (0, 1), BuildingBlock: FUNLAD_clean_linker_0, # of connection points: 2
#     Edge 13, Type (0, 1), BuildingBlock: FUNLAD_clean_linker_0, # of connection points: 2
#     Edge 14, Type (0, 1), BuildingBlock: FUNLAD_clean_linker_0, # of connection points: 2
#     Edge 15, Type (0, 1), BuildingBlock: FUNLAD_clean_linker_0, # of connection points: 2
#     Edge 16, Type (0, 1), BuildingBlock: FUNLAD_clean_linker_0, # of connection points: 2
#     Edge 17, Type (0, 1), BuildingBlock: FUNLAD_clean_linker_0, # of connection points: 2
# Relax obj value: 0.037
# Max RMSD: 0.098
# Mean RMSD: 0.090
data_MOF--net-pth--node1-QUQFOY_clean_sbu_3--node2-MUDLON_clean_linker_0--edge1-FUNLAD_clean_linker_0
_symmetry_space_group_name_H-M    P1
_symmetry_Int_Tables_number       1
_symmetry_cell_setting            triclinic
loop_
_symmetry_equiv_pos_as_xyz
'x, y, z'
_cell_length_a     37.924463
_cell_length_b     37.792083
_cell_length_c     79.041526
_cell_angle_alpha  90.107647
_cell_angle_beta   90.559158
_cell_angle_gamma 120.70878
loop_
_atom_site_label
_atom_site_type_symbol
_atom_site_fract_x
_atom_site_fract_y
_atom_site_fract_z
_atom_type_partial_charge
C0 C 0.99009 0.08308 0.05504 0.0
O1 O 0.96694 0.07927 0.0426 0.0
Cd2 Cd 0.95974 0.03831 0.01827 0.0
O3 O 0.008 0.0623 0.05555 0.0
Cd4 Cd 0.0114 0.00838 0.0389 0.0
C5 C 0.06256 0.07985 0.00938 0.0
O6 O 0.94124 0.97117 0.02788 0.0
O7 O 0.98436 0.95907 0.01538 0.0
O8 O 0.0006 0.97282 0.06545 0.0
C9 C 0.94751 0.9501 0.01714 0.0
O10 O 0.02753 0.07455 0.0054 0.0
C11 C 0.02868 0.96432 0.06366 0.0
O12 O 0.06667 0.06102 0.02191 0.0
O13 O 0.05014 0.9775 0.05038 0.0
C14 C 0.11592 0.05077 0.39234 0.0
O15 O 0.13389 0.06988 0.379 0.0
Cd16 Cd 0.09856 0.07748 0.35532 0.0
O17 O 0.07729 0.03489 0.39383 0.0
Cd18 Cd 0.018 0.02816 0.37739 0.0
C19 C 0.03264 0.97499 0.34645 0.0
O20 O 0.05339 0.09823 0.36664 0.0
O21 O 0.99362 0.05724 0.35577 0.0
O22 O 0.99234 0.0359 0.40441 0.0
C23 C 0.02438 0.09339 0.35698 0.0
O24 O 0.06314 0.00939 0.34206 0.0
C25 C 0.95593 0.00617 0.40213 0.0
O26 O 0.01187 0.9725 0.35942 0.0
O27 O 0.94841 0.98597 0.38838 0.0
C28 C 0.98057 0.09715 0.68291 0.0
O29 O 0.98776 0.11985 0.69587 0.0
Cd30 Cd 0.01733 0.11129 0.72121 0.0
O31 O 0.99246 0.0711 0.68245 0.0
Cd32 Cd 0.03248 0.04865 0.6999 0.0
C33 C 0.95261 0.00629 0.72647 0.0
O34 O 0.07957 0.11433 0.71359 0.0
O35 O 0.07709 0.06073 0.72442 0.0
O36 O 0.07216 0.05598 0.67489 0.0
C37 C 0.09386 0.09958 0.72419 0.0
O38 O 0.96485 0.04326 0.73091 0.0
C39 C 0.06915 0.02102 0.67585 0.0
O40 O 0.9709 -0.0015 0.7149 0.0
O41 O 0.04757 -0.00224 0.68778 0.0
H42 H 0.91005 0.63547 0.22322 0.0
N43 N 0.96228 0.61938 0.2078 0.0
H44 H 0.92376 0.68081 0.24761 0.0
H45 H 0.03236 0.65549 0.2273 0.0
H46 H 0.04599 0.6998 0.25198 0.0
H47 H 0.03294 0.69127 0.20015 0.0
H48 H 0.04251 0.7368 0.17672 0.0
H49 H 0.91061 0.605 0.18214 0.0
H50 H 0.92052 0.64984 0.15807 0.0
H51 H 0.93232 0.55148 0.22613 0.0
H52 H 0.02532 0.62173 0.18924 0.0
H53 H 0.95539 0.50207 0.22742 0.0
H54 H 0.04614 0.57116 0.18945 0.0
H55 H 0.98475 0.34027 0.2163 0.0
H56 H 0.97502 0.29876 0.2413 0.0
H57 H 0.09558 0.39016 0.25972 0.0
H58 H 0.10527 0.43149 0.23442 0.0
H59 H 0.10588 0.39341 0.19493 0.0
H60 H 0.09343 0.34669 0.1712 0.0
H61 H 0.97419 0.33304 0.16308 0.0
H62 H 0.98593 0.37774 0.18703 0.0
H63 H 0.97647 0.39848 0.21398 0.0
H64 H 0.95495 0.44876 0.21327 0.0
H65 H 0.08027 0.54494 0.20423 0.0
N66 N 0.0541 0.41287 0.2083 0.0
H67 H 0.10077 0.49329 0.2036 0.0
C68 C 0.96999 0.64209 0.22345 0.0
C69 C 0.93953 0.64898 0.22964 0.0
C70 C 0.9474 0.67472 0.24362 0.0
C71 C 0.98606 0.6941 0.25171 0.0
C72 C 0.0161 0.68583 0.24589 0.0
C73 C 0.00824 0.66022 0.23186 0.0
C74 C 0.97061 0.64485 0.19304 0.0
C75 C 0.00821 0.6819 0.19105 0.0
C76 C 0.01385 0.70776 0.17748 0.0
C77 C 0.98219 0.69714 0.16555 0.0
C78 C 0.94528 0.65928 0.1672 0.0
C79 C 0.93961 0.63349 0.18084 0.0
C80 C 0.97659 0.59043 0.20763 0.0
C81 C 0.95734 0.55599 0.21815 0.0
C82 C 0.9704 0.52754 0.21874 0.0
C83 C 0.00259 0.53226 0.20845 0.0
C84 C 0.02179 0.56672 0.19781 0.0
C85 C 0.00938 0.59572 0.19754 0.0
C86 C 0.04597 0.38905 0.22349 0.0
C87 C 0.0089 0.35172 0.22579 0.0
C88 C 0.00329 0.32804 0.24015 0.0
C89 C 0.03459 0.34114 0.25246 0.0
C90 C 0.07111 0.37904 0.25035 0.0
C91 C 0.07665 0.40275 0.236 0.0
C92 C 0.04725 0.38953 0.19287 0.0
C93 C 0.07731 0.3807 0.18785 0.0
C94 C 0.07014 0.35408 0.17426 0.0
C95 C 0.03265 0.33583 0.16528 0.0
C96 C 0.00309 0.34587 0.16992 0.0
C97 C 0.01009 0.3721 0.18362 0.0
C98 C 0.04031 0.44206 0.20851 0.0
C99 C -0.00069 0.43024 0.21165 0.0
C100 C 0.98709 0.45936 0.21146 0.0
C101 C 0.01575 0.50121 0.20867 0.0
C102 C 0.057 0.51299 0.206 0.0
C103 C 0.06895 0.48362 0.20578 0.0
H104 H 0.71141 0.09598 0.54082 0.0
N105 N 0.64154 0.02778 0.53306 0.0
H106 H 0.75901 0.10643 0.56407 0.0
H107 H 0.62659 0.97459 0.5594 0.0
H108 H 0.67337 0.985 0.58269 0.0
H109 H 0.64383 0.95636 0.53177 0.0
H110 H 0.67297 0.93553 0.5093 0.0
H111 H 0.66719 0.06307 0.50317 0.0
H112 H 0.6977 0.04304 0.48071 0.0
H113 H 0.60606 0.07252 0.53437 0.0
H114 H 0.57927 0.9472 0.53627 0.0
H115 H 0.53317 0.04852 0.53747 0.0
H116 H 0.50701 0.92309 0.54016 0.0
H117 H 0.3441 -0.00056 0.55386 0.0
H118 H 0.30445 0.00163 0.57725 0.0
H119 H 0.25744 0.8725 0.58649 0.0
H120 H 0.29698 0.87034 0.56252 0.0
H121 H 0.28074 0.88277 0.52044 0.0
H122 H 0.25677 0.90354 0.49552 0.0
H123 H 0.35471 0.02924 0.50313 0.0
H124 H 0.37875 0.0083 0.52779 0.0
H125 H 0.40608 -0.00181 0.55769 0.0
H126 H 0.47825 0.01968 0.5568 0.0
H127 H 0.44892 0.91452 0.52512 0.0
N128 N 0.34255 0.93079 0.54123 0.0
H129 H 0.37621 0.89216 0.52673 0.0
C130 C 0.66548 0.03471 0.5483 0.0
C131 C 0.70268 0.07201 0.55013 0.0
C132 C 0.72975 0.0779 0.56342 0.0
C133 C 0.72007 0.04638 0.57513 0.0
C134 C 0.68197 0.00962 0.57371 0.0
C135 C 0.65494 0.00377 0.56042 0.0
C136 C 0.65325 0.01145 0.51913 0.0
C137 C 0.65447 0.97497 0.52052 0.0
C138 C 0.67159 0.96326 0.5077 0.0
C139 C 0.68805 0.98781 0.49328 0.0
C140 C 0.68494 0.02317 0.49156 0.0
C141 C 0.66768 0.03478 0.50438 0.0
C142 C 0.59829 0.01193 0.53509 0.0
C143 C 0.58445 0.03987 0.53561 0.0
C144 C 0.54283 0.02606 0.53754 0.0
C145 C 0.51408 0.9838 0.53915 0.0
C146 C 0.52812 0.95578 0.53874 0.0
C147 C 0.56972 0.96964 0.53663 0.0
C148 C 0.32355 0.9345 0.55635 0.0
C149 C 0.32582 0.97161 0.56096 0.0
C150 C 0.30317 0.97291 0.57449 0.0
C151 C 0.27766 0.93722 0.58376 0.0
C152 C 0.27642 0.90044 0.57949 0.0
C153 C 0.29921 0.8992 0.56591 0.0
C154 C 0.3312 0.94382 0.52603 0.0
C155 C 0.29721 0.91467 0.51658 0.0
C156 C 0.28371 0.92655 0.50237 0.0
C157 C 0.30384 0.96802 0.49748 0.0
C158 C 0.33843 -0.00285 0.50675 0.0
C159 C 0.3522 0.98516 0.52083 0.0
C160 C 0.38533 0.94303 0.54238 0.0
C161 C 0.41478 0.97919 0.55081 0.0
C162 C 0.4564 0.99182 0.55012 0.0
C163 C 0.4696 0.96901 0.54081 0.0
C164 C 0.43997 0.93257 0.53264 0.0
C165 C 0.39838 0.91976 0.53348 0.0
H166 H 0.63802 0.76016 0.87415 0.0
N167 N 0.62049 0.68775 0.86153 0.0
H168 H 0.68496 0.79842 0.89771 0.0
H169 H 0.66047 0.66038 0.88218 0.0
H170 H 0.70653 0.69802 0.90571 0.0
H171 H 0.69224 0.69158 0.85284 0.0
H172 H 0.73272 0.72417 0.8278 0.0
H173 H 0.59909 0.71623 0.8351 0.0
H174 H 0.6393 0.74852 0.80971 0.0
H175 H 0.5439 0.65331 0.87213 0.0
H176 H 0.63286 0.62372 0.85416 0.0
H177 H 0.49441 0.57997 0.87593 0.0
H178 H 0.58436 0.55093 0.85833 0.0
H179 H 0.36061 0.40468 0.88662 0.0
H180 H 0.31242 0.37206 0.90961 0.0
H181 H 0.36975 0.30142 0.922 0.0
H182 H 0.41902 0.33579 0.89937 0.0
H183 H 0.40191 0.31589 0.86215 0.0
H184 H 0.35611 0.28042 0.83806 0.0
H185 H 0.33321 0.38086 0.83285 0.0
H186 H 0.37814 0.41543 0.85717 0.0
H187 H 0.43467 0.45162 0.8983 0.0
H188 H 0.48348 0.52371 0.89404 0.0
H189 H 0.52157 0.49469 0.84729 0.0
N190 N 0.41859 0.38668 0.87638 0.0
H191 H 0.47301 0.4219 0.85165 0.0
C192 C 0.64524 0.70732 0.87644 0.0
C193 C 0.65251 0.74627 0.88116 0.0
C194 C 0.67939 0.76809 0.89451 0.0
C195 C 0.69924 0.75106 0.90351 0.0
C196 C 0.6912 0.71159 0.89911 0.0
C197 C 0.66475 0.69003 0.88561 0.0
C198 C 0.64257 0.70171 0.84589 0.0
C199 C 0.68002 0.7032 0.84338 0.0
C200 C 0.70312 0.72172 0.82897 0.0
C201 C 0.68935 0.73918 0.81681 0.0
C202 C 0.65098 0.73583 0.81897 0.0
C203 C 0.62788 0.71724 0.83337 0.0
C204 C 0.59189 0.64414 0.86279 0.0
C205 C 0.55265 0.63096 0.86897 0.0
C206 C 0.52463 0.58914 0.87127 0.0
C207 C 0.53548 0.55957 0.86749 0.0
C208 C 0.57479 0.57282 0.86115 0.0
C209 C 0.6027 0.61463 0.85878 0.0
C210 C 0.3937 0.3728 0.89136 0.0
C211 C 0.3633 0.38278 0.8945 0.0
C212 C 0.33552 0.36379 0.90759 0.0
C213 C 0.33679 0.33366 0.91758 0.0
C214 C 0.36811 0.32483 0.91476 0.0
C215 C 0.39628 0.34433 0.90181 0.0
C216 C 0.39353 0.36816 0.86142 0.0
C217 C 0.38717 0.33025 0.85569 0.0
C218 C 0.36116 0.3102 0.8419 0.0
C219 C 0.34099 0.32782 0.83352 0.0
C220 C 0.3478 0.36617 0.83916 0.0
C221 C 0.37367 0.38609 0.85301 0.0
C222 C 0.44816 0.43046 0.87482 0.0
C223 C 0.45257 0.46008 0.88691 0.0
C224 C 0.48088 0.50183 0.88451 0.0
C225 C 0.50594 0.51511 0.87018 0.0
C226 C 0.50277 0.48559 0.85849 0.0
C227 C 0.47467 0.44389 0.8609 0.0
C228 C 0.97535 0.13356 0.06908 0.0
C229 C -0.00258 0.11293 0.06874 0.0
C230 C 0.9834 0.16296 0.08159 0.0
C231 C 0.0137 0.17234 0.09406 0.0
C232 C 0.03584 0.15187 0.09369 0.0
C233 C 0.02761 0.12224 0.08124 0.0
C234 C 0.02403 0.2044 0.10719 0.0
C235 C -0.00346 0.21374 0.11306 0.0
C236 C 0.00672 0.2455 0.12629 0.0
C237 C 0.97576 0.24104 0.13717 0.0
C238 C 0.98418 0.2703 0.14978 0.0
C239 C 0.02368 0.30517 0.15161 0.0
H240 H 0.07044 0.28558 0.11941 0.0
C241 C 0.05452 0.31003 0.14047 0.0
C242 C 0.04617 0.2805 0.12795 0.0
H243 H 0.08503 0.33689 0.14128 0.0
H244 H 0.9521 0.12734 0.05956 0.0
H245 H 0.96652 0.17895 0.08117 0.0
H246 H 0.05956 0.15877 0.10308 0.0
H247 H 0.04537 0.10712 0.08129 0.0
H248 H 0.05466 0.21926 0.11274 0.0
H249 H 0.9648 0.19597 0.10879 0.0
H250 H 0.94508 0.21445 0.13609 0.0
H251 H 0.95982 0.26514 0.15829 0.0
C252 C 0.88217 0.96867 0.41074 0.0
C253 C 0.92361 -0.00324 0.41463 0.0
C254 C 0.85149 0.96203 0.42218 0.0
C255 C 0.86177 0.98335 0.43775 0.0
C256 C 0.90327 0.01018 0.44184 0.0
C257 C 0.93385 0.01707 0.43038 0.0
C258 C 0.83036 0.97871 0.45004 0.0
C259 C 0.79204 0.96897 0.44552 0.0
C260 C 0.76297 0.9698 0.45775 0.0
C261 C 0.73408 0.97989 0.45199 0.0
C262 C 0.70877 0.98455 0.46342 0.0
C263 C 0.71156 0.97872 0.48084 0.0
H264 H 0.78521 0.95275 0.47991 0.0
C265 C 0.73905 0.96656 0.48647 0.0
C266 C 0.76433 0.96197 0.47506 0.0
H267 H 0.74215 0.96198 0.4998 0.0
H268 H 0.87336 0.95234 0.39874 0.0
H269 H 0.81991 0.94016 0.4188 0.0
H270 H 0.91207 0.02668 0.45381 0.0
H271 H 0.96552 0.03869 0.4338 0.0
H272 H 0.84057 0.98746 0.46306 0.0
H273 H 0.783 0.96423 0.43225 0.0
H274 H 0.732 0.98553 0.43869 0.0
H275 H 0.68744 0.99329 0.45865 0.0
C276 C 0.90668 0.93143 0.73346 0.0
C277 C 0.91591 0.97245 0.73462 0.0
C278 C 0.87215 0.89995 0.74152 0.0
C279 C 0.84608 0.909 0.75073 0.0
C280 C 0.85481 0.94977 0.75146 0.0
C281 C 0.88947 0.98117 0.74365 0.0
C282 C 0.80964 0.87724 0.75986 0.0
C283 C 0.80748 0.8438 0.76695 0.0
C284 C 0.7741 0.81577 0.77854 0.0
C285 C 0.76905 0.77709 0.78219 0.0
C286 C 0.74059 0.75145 0.79419 0.0
C287 C 0.71659 0.76404 0.80284 0.0
H288 H 0.7531 0.85797 0.78523 0.0
C289 C 0.72102 0.80234 0.79896 0.0
C290 C 0.7495 0.82799 0.78705 0.0
H291 H 0.70375 0.81342 0.80569 0.0
H292 H 0.92632 0.92372 0.72648 0.0
H293 H 0.86578 0.86868 0.74035 0.0
H294 H 0.83511 0.95753 0.75838 0.0
H295 H 0.89539 0.01234 0.74465 0.0
H296 H 0.78516 0.88365 0.76177 0.0
H297 H 0.83206 0.83754 0.76488 0.0
H298 H 0.7877 0.76693 0.77595 0.0
H299 H 0.73776 0.72201 0.79686 0.0
C300 C 0.01135 0.92675 0.09102 0.0
C301 C 0.03383 0.93789 0.07599 0.0
C302 C 0.01226 0.89824 0.10191 0.0
C303 C 0.03531 0.87978 0.09791 0.0
C304 C 0.05961 0.8926 0.08336 0.0
C305 C 0.05879 0.92132 0.07244 0.0
C306 C 0.0342 0.84704 0.10867 0.0
C307 C 0.00031 0.82043 0.11723 0.0
C308 C -0.00332 0.78748 0.12866 0.0
C309 C 0.95883 0.76238 0.1365 0.0
C310 C 0.95391 0.73247 0.1481 0.0
C311 C 0.98676 0.7267 0.15215 0.0
H312 H 0.05918 0.7995 0.12676 0.0
C313 C 0.02443 0.75104 0.14402 0.0
C314 C 0.02944 0.78116 0.13243 0.0
H315 H 0.05023 0.74702 0.14671 0.0
H316 H 0.99237 0.93949 0.09427 0.0
H317 H 0.99461 0.89058 0.1134 0.0
H318 H 0.07819 0.87937 0.08015 0.0
H319 H 0.07663 0.92951 0.06098 0.0
H320 H 0.06119 0.84415 0.10883 0.0
H321 H 0.97299 0.82266 0.11576 0.0
H322 H 0.933 0.76645 0.13392 0.0
H323 H 0.92465 0.71481 0.15431 0.0
C324 C 0.17984 0.05416 0.40318 0.0
C325 C 0.13988 0.04606 0.40609 0.0
C326 C 0.20191 0.04819 0.41597 0.0
C327 C 0.18452 0.03426 0.43198 0.0
C328 C 0.14514 0.02737 0.43504 0.0
C329 C 0.12283 0.03279 0.42219 0.0
C330 C 0.20683 0.02706 0.44576 0.0
C331 C 0.23271 0.01329 0.44285 0.0
C332 C 0.25257 0.00328 0.45675 0.0
C333 C 0.25965 0.97055 0.45463 0.0
C334 C 0.27664 0.95922 0.4678 0.0
C335 C 0.28766 0.98105 0.48321 0.0
H336 H 0.26042 0.05181 0.47391 0.0
C337 C 0.28196 0.01475 0.48512 0.0
C338 C 0.26448 0.02572 0.47204 0.0
H339 H 0.29014 0.03205 0.49689 0.0
H340 H 0.19393 0.06461 0.39094 0.0
H341 H 0.23267 0.05486 0.41334 0.0
H342 H 0.13127 0.017 0.44733 0.0
H343 H 0.09224 0.02661 0.42488 0.0
H344 H 0.19923 0.03013 0.45869 0.0
H345 H 0.23694 0.00597 0.43001 0.0
H346 H 0.25112 0.95309 0.44289 0.0
H347 H 0.28115 0.9334 0.46595 0.0
C348 C 0.14166 0.16867 0.73705 0.0
C349 C 0.12672 0.12617 0.73635 0.0
C350 C 0.17227 0.19372 0.74874 0.0
C351 C 0.18849 0.17668 0.76 0.0
C352 C 0.17418 0.13438 0.75901 0.0
C353 C 0.14342 0.10929 0.74739 0.0
C354 C 0.22077 0.20214 0.77269 0.0
C355 C 0.22503 0.23681 0.77951 0.0
C356 C 0.25583 0.26084 0.79291 0.0
C357 C 0.24736 0.28344 0.80459 0.0
C358 C 0.27509 0.30545 0.81768 0.0
C359 C 0.31221 0.30574 0.81923 0.0
H360 H 0.30162 0.24607 0.78505 0.0
C361 C 0.32122 0.28409 0.80722 0.0
C362 C 0.29339 0.26191 0.79419 0.0
H363 H 0.34997 0.28449 0.80782 0.0
H364 H 0.12965 0.18263 0.72859 0.0
H365 H 0.18345 0.22641 0.74875 0.0
H366 H 0.18644 0.12057 0.76743 0.0
H367 H 0.13273 0.07668 0.74707 0.0
H368 H 0.23973 0.19027 0.77738 0.0
H369 H 0.20339 0.24644 0.7761 0.0
H370 H 0.21877 0.28335 0.80381 0.0
H371 H 0.26699 0.32146 0.82679 0.0
C372 C 0.94142 0.06958 0.65566 0.0
C373 C 0.95597 0.09922 0.66871 0.0
C374 C 0.91511 0.06927 0.6431 0.0
C375 C 0.90278 0.09864 0.64332 0.0
C376 C 0.9189 0.12943 0.65586 0.0
C377 C 0.94497 0.12957 0.6685 0.0
C378 C 0.87309 0.09786 0.63074 0.0
C379 C 0.84243 0.06248 0.62406 0.0
C380 C 0.81115 0.05976 0.61177 0.0
C381 C 0.78683 0.02241 0.60306 0.0
C382 C 0.75703 0.01798 0.59137 0.0
C383 C 0.75062 0.05082 0.58813 0.0
H384 H 0.82132 0.12151 0.61544 0.0
C385 C 0.77447 0.08809 0.59697 0.0
C386 C 0.80431 0.09254 0.60872 0.0
H387 H 0.76981 0.11376 0.59492 0.0
H388 H 0.9496 0.046 0.65534 0.0
H389 H 0.90449 0.04598 0.63325 0.0
H390 H 0.91032 0.15272 0.65616 0.0
H391 H 0.95592 0.15308 0.67828 0.0
H392 H 0.87592 0.12709 0.6276 0.0
H393 H 0.83983 0.03358 0.62777 0.0
H394 H 0.79121 -0.00344 0.60517 0.0
H395 H 0.73959 0.98902 0.58459 0.0
C396 C 0.92382 0.90575 0.99116 0.0
C397 C 0.91442 0.92031 0.00579 0.0
C398 C 0.89275 0.87955 0.97988 0.0
C399 C 0.85164 0.86715 0.98309 0.0
C400 C 0.84207 0.88027 -0.00194 0.0
C401 C 0.87322 0.90698 0.00923 0.0
C402 C 0.81833 0.84083 0.97097 0.0
C403 C 0.82373 0.8449 0.95414 0.0
C404 C 0.79048 0.82057 0.94168 0.0
C405 C 0.79124 0.83817 0.92598 0.0
C406 C 0.76101 0.81588 0.91375 0.0
C407 C 0.72987 0.77521 0.91687 0.0
H408 H 0.75824 0.7651 0.95671 0.0
C409 C 0.72921 0.75738 0.93253 0.0
C410 C 0.75915 0.77991 0.94488 0.0
H411 H 0.70554 0.72602 0.93521 0.0
H412 H 0.95527 0.91523 0.98824 0.0
H413 H 0.90096 0.86899 0.96866 0.0
H414 H 0.81055 0.87075 0.00087 0.0
H415 H 0.86505 0.91742 0.0205 0.0
H416 H 0.78806 0.8201 0.97599 0.0
H417 H 0.85296 0.86882 0.94924 0.0
H418 H 0.81527 0.86931 0.92317 0.0
H419 H 0.76256 0.83012 0.90168 0.0
C420 C 0.04703 0.93967 0.32304 0.0
C421 C 0.02218 0.93748 0.33655 0.0
C422 C 0.03808 0.9044 0.31388 0.0
C423 C 0.0041 0.86595 0.31806 0.0
C424 C 0.97871 0.86382 0.3313 0.0
C425 C 0.98778 0.89917 0.34055 0.0
C426 C 0.99349 0.8281 0.3083 0.0
C427 C 0.02206 0.82278 0.30063 0.0
C428 C 0.0125 0.78771 0.28916 0.0
C429 C 0.04226 0.79273 0.27744 0.0
C430 C 0.03403 0.76195 0.2656 0.0
C431 C 0.99588 0.7251 0.2653 0.0
H432 H 0.95155 0.74443 0.29848 0.0
C433 C 0.96661 0.71929 0.27747 0.0
C434 C 0.97482 0.75021 0.28931 0.0
H435 H 0.93724 0.6909 0.27779 0.0
H436 H 0.07354 0.96869 0.3195 0.0
H437 H 0.05747 0.90765 0.30334 0.0
H438 H 0.95201 0.83468 0.33461 0.0
H439 H 0.96785 0.89642 0.35082 0.0
H440 H 0.96128 0.80464 0.30732 0.0
H441 H 0.0542 0.84635 0.30207 0.0
H442 H 0.07163 0.82116 0.27708 0.0
H443 H 0.05712 0.76772 0.25631 0.0
C444 C 0.09192 0.97244 0.66627 0.0
C445 C 0.09208 0.00947 0.66424 0.0
C446 C 0.11671 0.96364 0.65619 0.0
C447 C 0.14204 0.99174 0.64384 0.0
C448 C 0.14145 0.02827 0.64164 0.0
C449 C 0.11669 0.03699 0.65165 0.0
C450 C 0.17119 0.98558 0.6336 0.0
C451 C 0.16786 0.94883 0.63073 0.0
C452 C 0.19734 0.94469 0.61987 0.0
C453 C 0.18344 0.90924 0.60984 0.0
C454 C 0.20984 0.90612 0.59849 0.0
C455 C 0.25086 0.93824 0.59713 0.0
H456 H 0.25106 0.00287 0.62722 0.0
C457 C 0.26529 0.97265 0.60791 0.0
C458 C 0.23888 0.97584 0.61916 0.0
H459 H 0.29697 -0.00257 0.60751 0.0
H460 H 0.07349 0.95075 0.67595 0.0
H461 H 0.11688 0.93554 0.65854 0.0
H462 H 0.16067 0.05052 0.63227 0.0
H463 H 0.11761 0.06583 0.64976 0.0
H464 H 0.19568 0.01268 0.62753 0.0
H465 H 0.14147 0.92085 0.63529 0.0
H466 H 0.15169 0.8846 0.61029 0.0
H467 H 0.19762 0.87927 0.59032 0.0
C468 C 0.09381 0.12809 0.98515 0.0
C469 C 0.09885 0.10945 -0.00039 0.0
C470 C 0.12777 0.15725 0.9762 0.0
C471 C 0.16776 0.16893 0.98159 0.0
C472 C 0.17281 0.14953 -0.00422 0.0
C473 C 0.13873 0.12018 0.00474 0.0
C474 C 0.20458 0.19992 0.97232 0.0
C475 C 0.20472 0.22929 0.96263 0.0
C476 C 0.23971 0.25773 0.95193 0.0
C477 C 0.2314 0.27242 0.93705 0.0
C478 C 0.26294 0.29757 0.9261 0.0
C479 C 0.30382 0.30932 0.92993 0.0
H480 H 0.28833 0.26062 0.96773 0.0
C481 C 0.31235 0.29585 0.94519 0.0
C482 C 0.28063 0.27025 0.95608 0.0
H483 H 0.34354 0.30502 0.94873 0.0
H484 H 0.06356 0.12017 0.98068 0.0
H485 H 0.12225 0.16995 0.96491 0.0
H486 H 0.20321 0.15746 6e-05 0.0
H487 H 0.1437 0.10627 0.0158 0.0
H488 H 0.23209 0.19794 0.97341 0.0
H489 H 0.17733 0.23148 0.96166 0.0
H490 H 0.20016 0.26338 0.93359 0.0
H491 H 0.25496 0.30667 0.91437 0.0
C492 C -0.00334 0.12045 0.33494 0.0
C493 C 0.02785 0.12738 0.34655 0.0
C494 C 0.0007 0.15217 0.32456 0.0
C495 C 0.03596 0.19169 0.32571 0.0
C496 C 0.06692 0.19858 0.33744 0.0
C497 C 0.06289 0.16685 0.34779 0.0
C498 C 0.04289 0.22557 0.31416 0.0
C499 C 0.0126 0.22678 0.30562 0.0
C500 C 0.02007 0.25862 0.29285 0.0
C501 C 0.98777 0.26484 0.28829 0.0
C502 C 0.99268 0.29238 0.27548 0.0
C503 C 0.03004 0.31417 0.2669 0.0
H504 H 0.08285 0.27592 0.28697 0.0
C505 C 0.06253 0.30834 0.27158 0.0
C506 C 0.0576 0.28076 0.28434 0.0
H507 H 0.09138 0.32398 0.26494 0.0
H508 H 0.9694 0.09027 0.33361 0.0
H509 H 0.97666 0.14504 0.31535 0.0
H510 H 0.09454 0.22857 0.3385 0.0
H511 H 0.0875 0.17315 0.35661 0.0
H512 H 0.07431 0.25066 0.31288 0.0
H513 H 0.98087 0.20386 0.30811 0.0
H514 H 0.95846 0.24801 0.29454 0.0
H515 H 0.96716 0.29641 0.27221 0.0
loop_
_geom_bond_atom_site_label_1
_geom_bond_atom_site_label_2
_geom_bond_distance
_geom_bond_site_symmetry_2
_ccdc_geom_bond_type
C0 O1 1.306 1_455 S
C0 O3 1.160 . S
O1 C0 1.306 1_655 S
O1 Cd2 2.228 . S
Cd2 O1 2.228 . S
Cd2 O6 2.273 1_545 S
Cd2 O10 2.277 1_655 S
O3 C0 1.160 . S
O3 Cd4 2.203 . S
Cd4 O3 2.203 . S
Cd4 O6 2.411 1_445 S
Cd4 O7 2.333 1_445 S
Cd4 O8 2.354 1_545 S
Cd4 O12 2.277 . S
Cd4 O13 2.356 1_545 S
C5 O10 1.209 . S
C5 O12 1.226 . S
O6 Cd2 2.273 1_565 S
O6 Cd4 2.411 1_665 S
O6 C9 1.320 . S
O7 Cd4 2.333 1_665 S
O7 C9 1.214 . S
O8 Cd4 2.354 1_565 S
O8 C11 1.278 . S
C9 O6 1.320 . S
C9 O7 1.214 . S
O10 Cd2 2.277 1_455 S
O10 C5 1.209 . S
C11 O8 1.278 . S
C11 O13 1.282 . S
O12 Cd4 2.277 . S
O12 C5 1.226 . S
O13 Cd4 2.356 1_565 S
O13 C11 1.282 . S
C14 O15 1.306 . S
C14 O17 1.160 1_545 S
O15 C14 1.306 . S
O15 Cd16 2.228 . S
Cd16 O15 2.228 . S
Cd16 O20 2.273 . S
Cd16 O24 2.277 1_545 S
O17 C14 1.160 1_565 S
O17 Cd18 2.203 1_565 S
Cd18 O17 2.203 1_545 S
Cd18 O20 2.411 . S
Cd18 O21 2.333 1_455 S
Cd18 O22 2.352 1_455 S
Cd18 O26 2.277 1_445 S
Cd18 O27 2.356 1_445 S
C19 O24 1.209 . S
C19 O26 1.226 1_455 S
O20 Cd16 2.273 . S
O20 Cd18 2.411 . S
O20 C23 1.320 . S
O21 Cd18 2.333 1_655 S
O21 C23 1.214 1_655 S
O22 Cd18 2.352 1_655 S
O22 C25 1.258 . S
C23 O20 1.320 . S
C23 O21 1.214 1_455 S
O24 Cd16 2.277 1_565 S
O24 C19 1.209 . S
C25 O22 1.258 . S
C25 O27 1.282 1_545 S
O26 Cd18 2.277 1_665 S
O26 C19 1.226 1_655 S
O27 Cd18 2.356 1_665 S
O27 C25 1.282 1_565 S
C28 O29 1.306 . S
C28 O31 1.160 . S
O29 C28 1.306 . S
O29 Cd30 2.228 . S
Cd30 O29 2.228 . S
Cd30 O34 2.273 1_655 S
Cd30 O38 2.269 1_545 S
O31 C28 1.160 . S
O31 Cd32 2.203 1_655 S
Cd32 O31 2.203 1_455 S
Cd32 O34 2.411 . S
Cd32 O35 2.333 . S
Cd32 O36 2.352 . S
Cd32 O40 2.277 1_445 S
Cd32 O41 2.356 1_545 S
C33 O38 1.217 . S
C33 O40 1.226 . S
O34 Cd30 2.273 1_455 S
O34 Cd32 2.411 . S
O34 C37 1.320 . S
O35 Cd32 2.333 . S
O35 C37 1.214 . S
O36 Cd32 2.352 . S
O36 C39 1.258 . S
C37 O34 1.320 . S
C37 O35 1.214 . S
O38 Cd30 2.269 1_565 S
O38 C33 1.217 . S
C39 O36 1.258 . S
C39 O41 1.282 1_545 S
O40 Cd32 2.277 1_665 S
O40 C33 1.226 . S
O41 Cd32 2.356 1_565 S
O41 C39 1.282 1_565 S
H42 C69 0.929 1_655 S
N43 C68 1.433 . S
N43 C74 1.435 . S
N43 C80 1.423 . S
H44 C70 0.930 1_655 S
H45 C73 0.931 . S
H46 C72 0.929 . S
H47 C75 0.930 . S
H48 C76 0.932 . S
H49 C79 0.928 1_655 S
H50 C78 0.931 1_655 S
H51 C81 0.929 . S
H52 C85 0.932 . S
H53 C82 0.931 . S
H54 C84 0.929 . S
H55 C87 0.929 1_655 S
H56 C88 0.930 1_655 S
H57 C90 0.929 . S
H58 C91 0.931 . S
H59 C93 0.930 . S
H60 C94 0.932 . S
H61 C96 0.931 1_655 S
H62 C97 0.926 1_655 S
H63 C99 0.929 . S
H64 C100 0.931 . S
H65 C102 0.929 . S
N66 C86 1.433 . S
N66 C92 1.435 . S
N66 C98 1.423 . S
H67 C103 0.932 . S
C68 N43 1.433 . S
C68 C69 1.363 . S
C68 C73 1.370 . S
C69 H42 0.929 1_455 S
C69 C68 1.363 . S
C69 C70 1.385 . S
C70 H44 0.930 1_455 S
C70 C69 1.385 . S
C70 C71 1.357 . S
C71 C70 1.357 . S
C71 C72 1.406 . S
C72 H46 0.929 . S
C72 C71 1.406 . S
C72 C73 1.391 . S
C73 H45 0.931 . S
C73 C68 1.370 . S
C73 C72 1.391 . S
C74 N43 1.435 . S
C74 C75 1.358 . S
C74 C79 1.372 . S
C75 H47 0.930 . S
C75 C74 1.358 . S
C75 C76 1.405 . S
C76 H48 0.932 . S
C76 C75 1.405 . S
C76 C77 1.383 . S
C77 C76 1.383 . S
C77 C78 1.393 . S
C78 H50 0.931 1_455 S
C78 C77 1.393 . S
C78 C79 1.382 . S
C79 H49 0.928 1_455 S
C79 C74 1.372 . S
C79 C78 1.382 . S
C80 N43 1.423 . S
C80 C81 1.362 1_455 S
C80 C85 1.388 . S
C81 H51 0.929 . S
C81 C80 1.362 1_655 S
C81 C82 1.376 . S
C82 H53 0.931 . S
C82 C81 1.376 . S
C82 C83 1.396 1_655 S
C83 C82 1.396 1_455 S
C83 C84 1.348 . S
C83 C101 1.472 . S
C84 H54 0.929 . S
C84 C83 1.348 . S
C84 C85 1.443 . S
C85 H52 0.932 . S
C85 C80 1.388 . S
C85 C84 1.443 . S
C86 N66 1.433 . S
C86 C87 1.363 . S
C86 C91 1.370 . S
C87 H55 0.929 1_455 S
C87 C86 1.363 . S
C87 C88 1.385 . S
C88 H56 0.930 1_455 S
C88 C87 1.385 . S
C88 C89 1.357 . S
C89 C88 1.357 . S
C89 C90 1.406 . S
C90 H57 0.929 . S
C90 C89 1.406 . S
C90 C91 1.391 . S
C91 H58 0.931 . S
C91 C86 1.370 . S
C91 C90 1.391 . S
C92 N66 1.435 . S
C92 C93 1.358 . S
C92 C97 1.373 . S
C93 H59 0.930 . S
C93 C92 1.358 . S
C93 C94 1.405 . S
C94 H60 0.932 . S
C94 C93 1.405 . S
C94 C95 1.383 . S
C95 C94 1.383 . S
C95 C96 1.393 . S
C96 H61 0.931 1_455 S
C96 C95 1.393 . S
C96 C97 1.384 . S
C97 H62 0.926 1_455 S
C97 C92 1.373 . S
C97 C96 1.384 . S
C98 N66 1.423 . S
C98 C99 1.362 1_455 S
C98 C103 1.388 . S
C99 H63 0.929 . S
C99 C98 1.362 1_655 S
C99 C100 1.376 . S
C100 H64 0.931 . S
C100 C99 1.376 . S
C100 C101 1.396 1_655 S
C101 C83 1.472 . S
C101 C100 1.396 1_455 S
C101 C102 1.348 . S
C102 H65 0.929 . S
C102 C101 1.348 . S
C102 C103 1.443 . S
C103 H67 0.932 . S
C103 C98 1.388 . S
C103 C102 1.443 . S
H104 C131 0.929 . S
N105 C130 1.433 . S
N105 C136 1.435 . S
N105 C142 1.423 . S
H106 C132 0.930 . S
H107 C135 0.931 1_565 S
H108 C134 0.929 1_565 S
H109 C137 0.930 . S
H110 C138 0.932 . S
H111 C141 0.929 . S
H112 C140 0.931 . S
H113 C143 0.929 . S
H114 C147 0.909 1_565 S
H115 C144 0.931 . S
H116 C146 0.929 . S
H117 C149 0.929 . S
H118 C150 0.930 . S
H119 C152 0.929 1_565 S
H120 C153 0.931 1_565 S
H121 C155 0.930 . S
H122 C156 0.932 . S
H123 C158 0.931 . S
H124 C159 0.929 . S
H125 C161 0.929 . S
H126 C162 0.931 . S
H127 C164 0.929 . S
N128 C148 1.433 . S
N128 C154 1.435 . S
N128 C160 1.423 . S
H129 C165 0.924 1_565 S
C130 N105 1.433 . S
C130 C131 1.363 . S
C130 C135 1.370 . S
C131 H104 0.929 . S
C131 C130 1.363 . S
C131 C132 1.385 . S
C132 H106 0.930 . S
C132 C131 1.385 . S
C132 C133 1.357 . S
C133 C132 1.357 . S
C133 C134 1.406 . S
C134 H108 0.929 1_545 S
C134 C133 1.406 . S
C134 C135 1.391 . S
C135 H107 0.931 1_545 S
C135 C130 1.370 . S
C135 C134 1.391 . S
C136 N105 1.435 . S
C136 C137 1.358 1_545 S
C136 C141 1.371 . S
C137 H109 0.930 . S
C137 C136 1.358 1_565 S
C137 C138 1.405 . S
C138 H110 0.932 . S
C138 C137 1.405 . S
C138 C139 1.383 1_565 S
C139 C138 1.383 1_545 S
C139 C140 1.393 . S
C140 H112 0.931 . S
C140 C139 1.393 . S
C140 C141 1.382 . S
C141 H111 0.929 . S
C141 C136 1.371 . S
C141 C140 1.382 . S
C142 N105 1.423 . S
C142 C143 1.362 . S
C142 C147 1.388 . S
C143 H113 0.929 . S
C143 C142 1.362 . S
C143 C144 1.376 . S
C144 H115 0.931 . S
C144 C143 1.376 . S
C144 C145 1.396 . S
C145 C144 1.396 . S
C145 C146 1.348 . S
C145 C163 1.472 . S
C146 H116 0.929 . S
C146 C145 1.348 . S
C146 C147 1.443 . S
C147 H114 0.909 1_545 S
C147 C142 1.388 . S
C147 C146 1.443 . S
C148 N128 1.433 . S
C148 C149 1.363 . S
C148 C153 1.370 . S
C149 H117 0.929 . S
C149 C148 1.363 . S
C149 C150 1.385 . S
C150 H118 0.930 . S
C150 C149 1.385 . S
C150 C151 1.357 . S
C151 C150 1.357 . S
C151 C152 1.406 . S
C152 H119 0.929 1_545 S
C152 C151 1.406 . S
C152 C153 1.391 . S
C153 H120 0.931 1_545 S
C153 C148 1.370 . S
C153 C152 1.391 . S
C154 N128 1.435 . S
C154 C155 1.358 1_545 S
C154 C159 1.371 . S
C155 H121 0.930 . S
C155 C154 1.358 1_565 S
C155 C156 1.405 . S
C156 H122 0.932 . S
C156 C155 1.405 . S
C156 C157 1.383 1_565 S
C157 C156 1.383 1_545 S
C157 C158 1.393 . S
C158 H123 0.931 . S
C158 C157 1.393 . S
C158 C159 1.382 . S
C159 H124 0.929 . S
C159 C154 1.371 . S
C159 C158 1.382 . S
C160 N128 1.423 . S
C160 C161 1.362 . S
C160 C165 1.388 . S
C161 H125 0.929 . S
C161 C160 1.362 . S
C161 C162 1.376 . S
C162 H126 0.931 . S
C162 C161 1.376 . S
C162 C163 1.396 . S
C163 C145 1.472 . S
C163 C162 1.396 . S
C163 C164 1.348 . S
C164 H127 0.929 . S
C164 C163 1.348 . S
C164 C165 1.443 . S
C165 H129 0.924 1_545 S
C165 C160 1.388 . S
C165 C164 1.443 . S
H166 C193 0.929 . S
N167 C192 1.433 . S
N167 C198 1.435 . S
N167 C204 1.423 . S
H168 C194 0.930 . S
H169 C197 0.931 . S
H170 C196 0.929 . S
H171 C199 0.930 . S
H172 C200 0.932 . S
H173 C203 0.929 . S
H174 C202 0.931 . S
H175 C205 0.929 . S
H176 C209 0.932 . S
H177 C206 0.931 . S
H178 C208 0.929 . S
H179 C211 0.929 . S
H180 C212 0.930 . S
H181 C214 0.929 . S
H182 C215 0.931 . S
H183 C217 0.930 . S
H184 C218 0.932 . S
H185 C220 0.931 . S
H186 C221 0.929 . S
H187 C223 0.929 . S
H188 C224 0.931 . S
H189 C226 0.929 . S
N190 C210 1.433 . S
N190 C216 1.435 . S
N190 C222 1.423 . S
H191 C227 0.932 . S
C192 N167 1.433 . S
C192 C193 1.363 . S
C192 C197 1.370 . S
C193 H166 0.929 . S
C193 C192 1.363 . S
C193 C194 1.385 . S
C194 H168 0.930 . S
C194 C193 1.385 . S
C194 C195 1.357 . S
C195 C194 1.357 . S
C195 C196 1.406 . S
C196 H170 0.929 . S
C196 C195 1.406 . S
C196 C197 1.391 . S
C197 H169 0.931 . S
C197 C192 1.370 . S
C197 C196 1.391 . S
C198 N167 1.435 . S
C198 C199 1.358 . S
C198 C203 1.371 . S
C199 H171 0.930 . S
C199 C198 1.358 . S
C199 C200 1.405 . S
C200 H172 0.932 . S
C200 C199 1.405 . S
C200 C201 1.383 . S
C201 C200 1.383 . S
C201 C202 1.393 . S
C202 H174 0.931 . S
C202 C201 1.393 . S
C202 C203 1.382 . S
C203 H173 0.929 . S
C203 C198 1.371 . S
C203 C202 1.382 . S
C204 N167 1.423 . S
C204 C205 1.362 . S
C204 C209 1.388 . S
C205 H175 0.929 . S
C205 C204 1.362 . S
C205 C206 1.376 . S
C206 H177 0.931 . S
C206 C205 1.376 . S
C206 C207 1.396 . S
C207 C206 1.396 . S
C207 C208 1.348 . S
C207 C225 1.472 . S
C208 H178 0.929 . S
C208 C207 1.348 . S
C208 C209 1.443 . S
C209 H176 0.932 . S
C209 C204 1.388 . S
C209 C208 1.443 . S
C210 N190 1.433 . S
C210 C211 1.363 . S
C210 C215 1.370 . S
C211 H179 0.929 . S
C211 C210 1.363 . S
C211 C212 1.385 . S
C212 H180 0.930 . S
C212 C211 1.385 . S
C212 C213 1.357 . S
C213 C212 1.357 . S
C213 C214 1.406 . S
C214 H181 0.929 . S
C214 C213 1.406 . S
C214 C215 1.391 . S
C215 H182 0.931 . S
C215 C210 1.370 . S
C215 C214 1.391 . S
C216 N190 1.435 . S
C216 C217 1.358 . S
C216 C221 1.371 . S
C217 H183 0.930 . S
C217 C216 1.358 . S
C217 C218 1.405 . S
C218 H184 0.932 . S
C218 C217 1.405 . S
C218 C219 1.383 . S
C219 C218 1.383 . S
C219 C220 1.393 . S
C220 H185 0.931 . S
C220 C219 1.393 . S
C220 C221 1.382 . S
C221 H186 0.929 . S
C221 C216 1.371 . S
C221 C220 1.382 . S
C222 N190 1.423 . S
C222 C223 1.362 . S
C222 C227 1.388 . S
C223 H187 0.929 . S
C223 C222 1.362 . S
C223 C224 1.376 . S
C224 H188 0.931 . S
C224 C223 1.376 . S
C224 C225 1.396 . S
C225 C207 1.472 . S
C225 C224 1.396 . S
C225 C226 1.348 . S
C226 H189 0.929 . S
C226 C225 1.348 . S
C226 C227 1.443 . S
C227 H191 0.932 . S
C227 C222 1.388 . S
C227 C226 1.443 . S
C228 C229 1.386 1_655 S
C228 C230 1.378 . S
C228 H244 0.951 . S
C229 C228 1.386 1_455 S
C229 C233 1.383 . S
C230 C228 1.378 . S
C230 C231 1.390 1_655 S
C230 H245 0.966 . S
C231 C230 1.390 1_455 S
C231 C232 1.375 . S
C231 C234 1.481 . S
C232 C231 1.375 . S
C232 C233 1.367 . S
C232 H246 0.951 . S
C233 C229 1.383 . S
C233 C232 1.367 . S
C233 H247 0.950 . S
C234 C231 1.481 . S
C234 C235 1.297 . S
C234 H248 0.950 . S
C235 C234 1.297 . S
C235 C236 1.479 . S
C235 H249 0.950 1_455 S
C236 C235 1.479 . S
C236 C237 1.375 1_455 S
C236 C242 1.404 . S
C237 C236 1.375 1_655 S
C237 C238 1.369 1_655 S
C237 H250 0.950 . S
C238 C237 1.369 1_455 S
C238 C239 1.393 . S
C238 H251 0.949 1_455 S
C239 C238 1.393 . S
C239 C241 1.384 . S
H240 C242 0.949 . S
C241 C239 1.384 . S
C241 C242 1.385 . S
C241 H243 0.950 . S
C242 C236 1.404 . S
C242 H240 0.949 . S
C242 C241 1.385 . S
H243 C241 0.950 . S
H244 C228 0.951 . S
H245 C230 0.966 . S
H246 C232 0.951 . S
H247 C233 0.950 . S
H248 C234 0.950 . S
H249 C235 0.950 1_655 S
H250 C237 0.950 . S
H251 C238 0.949 1_655 S
C252 C253 1.386 1_565 S
C252 C254 1.383 . S
C252 H268 0.951 . S
C253 C252 1.386 1_545 S
C253 C257 1.383 . S
C254 C252 1.383 . S
C254 C255 1.402 1_565 S
C254 H269 0.951 . S
C255 C254 1.402 1_545 S
C255 C256 1.375 . S
C255 C258 1.481 . S
C256 C255 1.375 . S
C256 C257 1.367 . S
C256 H270 0.951 . S
C257 C253 1.383 . S
C257 C256 1.367 . S
C257 H271 0.950 . S
C258 C255 1.481 . S
C258 C259 1.297 1_545 S
C258 H272 0.950 . S
C259 C258 1.297 1_565 S
C259 C260 1.479 . S
C259 H273 0.950 . S
C260 C259 1.479 . S
C260 C261 1.375 . S
C260 C266 1.404 1_565 S
C261 C260 1.375 . S
C261 C262 1.369 . S
C261 H274 0.950 . S
C262 C261 1.369 . S
C262 C263 1.392 1_565 S
C262 H275 0.951 . S
C263 C262 1.392 1_545 S
C263 C265 1.384 . S
H264 C266 0.949 . S
C265 C263 1.384 . S
C265 C266 1.385 . S
C265 H267 0.950 . S
C266 C260 1.404 1_545 S
C266 H264 0.949 . S
C266 C265 1.385 . S
H267 C265 0.950 . S
H268 C252 0.951 . S
H269 C254 0.951 . S
H270 C256 0.951 . S
H271 C257 0.950 . S
H272 C258 0.950 . S
H273 C259 0.950 . S
H274 C261 0.950 . S
H275 C262 0.951 . S
C276 C277 1.386 . S
C276 C278 1.383 . S
C276 H292 0.951 . S
C277 C276 1.386 . S
C277 C281 1.383 . S
C278 C276 1.383 . S
C278 C279 1.402 . S
C278 H293 0.951 . S
C279 C278 1.402 . S
C279 C280 1.375 . S
C279 C282 1.481 . S
C280 C279 1.375 . S
C280 C281 1.367 . S
C280 H294 0.951 . S
C281 C277 1.383 . S
C281 C280 1.367 . S
C281 H295 0.950 . S
C282 C279 1.481 . S
C282 C283 1.297 . S
C282 H296 0.950 . S
C283 C282 1.297 . S
C283 C284 1.479 . S
C283 H297 0.950 . S
C284 C283 1.479 . S
C284 C285 1.375 . S
C284 C290 1.404 . S
C285 C284 1.375 . S
C285 C286 1.369 . S
C285 H298 0.950 . S
C286 C285 1.369 . S
C286 C287 1.392 . S
C286 H299 0.951 . S
C287 C286 1.392 . S
C287 C289 1.384 . S
H288 C290 0.949 . S
C289 C287 1.384 . S
C289 C290 1.385 . S
C289 H291 0.950 . S
C290 C284 1.404 . S
C290 H288 0.949 . S
C290 C289 1.385 . S
H291 C289 0.950 . S
H292 C276 0.951 . S
H293 C278 0.951 . S
H294 C280 0.951 . S
H295 C281 0.950 . S
H296 C282 0.950 . S
H297 C283 0.950 . S
H298 C285 0.950 . S
H299 C286 0.951 . S
C300 C301 1.378 1_655 S
C300 C302 1.373 1_655 S
C300 H316 0.968 . S
C301 C300 1.378 1_455 S
C301 C305 1.383 . S
C302 C300 1.373 1_455 S
C302 C303 1.402 . S
C302 H317 0.951 1_455 S
C303 C302 1.402 . S
C303 C304 1.375 . S
C303 C306 1.481 . S
C304 C303 1.375 . S
C304 C305 1.367 . S
C304 H318 0.951 . S
C305 C301 1.383 . S
C305 C304 1.367 . S
C305 H319 0.950 . S
C306 C303 1.481 . S
C306 C307 1.297 . S
C306 H320 0.950 . S
C307 C306 1.297 . S
C307 C308 1.479 . S
C307 H321 0.950 1_455 S
C308 C307 1.479 . S
C308 C309 1.375 1_455 S
C308 C314 1.404 . S
C309 C308 1.375 1_655 S
C309 C310 1.369 . S
C309 H322 0.950 . S
C310 C309 1.369 . S
C310 C311 1.392 1_655 S
C310 H323 0.951 . S
C311 C310 1.392 1_455 S
C311 C313 1.384 . S
H312 C314 0.949 . S
C313 C311 1.384 . S
C313 C314 1.385 . S
C313 H315 0.950 . S
C314 C308 1.404 . S
C314 H312 0.949 . S
C314 C313 1.385 . S
H315 C313 0.950 . S
H316 C300 0.968 . S
H317 C302 0.951 1_655 S
H318 C304 0.951 . S
H319 C305 0.950 . S
H320 C306 0.950 . S
H321 C307 0.950 1_655 S
H322 C309 0.950 . S
H323 C310 0.951 . S
C324 C325 1.386 1_565 S
C324 C326 1.383 1_565 S
C324 H340 0.951 . S
C325 C324 1.386 1_545 S
C325 C329 1.383 . S
C326 C324 1.383 1_545 S
C326 C327 1.402 . S
C326 H341 0.951 1_545 S
C327 C326 1.402 . S
C327 C328 1.375 . S
C327 C330 1.481 . S
C328 C327 1.375 . S
C328 C329 1.367 . S
C328 H342 0.951 . S
C329 C325 1.383 . S
C329 C328 1.367 . S
C329 H343 0.950 . S
C330 C327 1.481 . S
C330 C331 1.297 . S
C330 H344 0.950 . S
C331 C330 1.297 . S
C331 C332 1.479 . S
C331 H345 0.950 . S
C332 C331 1.479 . S
C332 C333 1.375 1_545 S
C332 C338 1.404 . S
C333 C332 1.375 1_565 S
C333 C334 1.369 . S
C333 H346 0.950 . S
C334 C333 1.369 . S
C334 C335 1.392 1_565 S
C334 H347 0.951 . S
C335 C334 1.392 1_545 S
C335 C337 1.384 . S
H336 C338 0.949 . S
C337 C335 1.384 . S
C337 C338 1.385 . S
C337 H339 0.950 . S
C338 C332 1.404 . S
C338 H336 0.949 . S
C338 C337 1.385 . S
H339 C337 0.950 . S
H340 C324 0.951 . S
H341 C326 0.951 1_565 S
H342 C328 0.951 . S
H343 C329 0.950 . S
H344 C330 0.950 . S
H345 C331 0.950 . S
H346 C333 0.950 . S
H347 C334 0.951 . S
C348 C349 1.386 . S
C348 C350 1.383 . S
C348 H364 0.951 . S
C349 C348 1.386 . S
C349 C353 1.383 . S
C350 C348 1.383 . S
C350 C351 1.402 . S
C350 H365 0.951 . S
C351 C350 1.402 . S
C351 C352 1.375 . S
C351 C354 1.481 . S
C352 C351 1.375 . S
C352 C353 1.367 . S
C352 H366 0.951 . S
C353 C349 1.383 . S
C353 C352 1.367 . S
C353 H367 0.950 . S
C354 C351 1.481 . S
C354 C355 1.297 . S
C354 H368 0.950 . S
C355 C354 1.297 . S
C355 C356 1.479 . S
C355 H369 0.950 . S
C356 C355 1.479 . S
C356 C357 1.375 . S
C356 C362 1.404 . S
C357 C356 1.375 . S
C357 C358 1.369 . S
C357 H370 0.950 . S
C358 C357 1.369 . S
C358 C359 1.392 . S
C358 H371 0.951 . S
C359 C358 1.392 . S
C359 C361 1.384 . S
H360 C362 0.949 . S
C361 C359 1.384 . S
C361 C362 1.385 . S
C361 H363 0.950 . S
C362 C356 1.404 . S
C362 H360 0.949 . S
C362 C361 1.385 . S
H363 C361 0.950 . S
H364 C348 0.951 . S
H365 C350 0.951 . S
H366 C352 0.951 . S
H367 C353 0.950 . S
H368 C354 0.950 . S
H369 C355 0.950 . S
H370 C357 0.950 . S
H371 C358 0.951 . S
C372 C373 1.386 1_565 S
C372 C374 1.383 . S
C372 H388 0.951 . S
C373 C372 1.386 1_545 S
C373 C377 1.383 . S
C374 C372 1.383 . S
C374 C375 1.402 1_565 S
C374 H389 0.951 . S
C375 C374 1.402 1_545 S
C375 C376 1.375 . S
C375 C378 1.481 . S
C376 C375 1.375 . S
C376 C377 1.367 . S
C376 H390 0.951 . S
C377 C373 1.383 . S
C377 C376 1.367 . S
C377 H391 0.950 . S
C378 C375 1.481 . S
C378 C379 1.297 1_545 S
C378 H392 0.950 . S
C379 C378 1.297 1_565 S
C379 C380 1.480 1_565 S
C379 H393 0.949 . S
C380 C379 1.480 1_545 S
C380 C381 1.375 1_545 S
C380 C386 1.404 . S
C381 C380 1.375 1_565 S
C381 C382 1.369 . S
C381 H394 0.950 . S
C382 C381 1.369 . S
C382 C383 1.392 1_565 S
C382 H395 0.951 . S
C383 C382 1.392 1_545 S
C383 C385 1.384 . S
H384 C386 0.949 . S
C385 C383 1.384 . S
C385 C386 1.385 . S
C385 H387 0.950 . S
C386 C380 1.404 . S
C386 H384 0.949 . S
C386 C385 1.385 . S
H387 C385 0.950 . S
H388 C372 0.951 . S
H389 C374 0.951 . S
H390 C376 0.951 . S
H391 C377 0.950 . S
H392 C378 0.950 . S
H393 C379 0.949 . S
H394 C381 0.950 . S
H395 C382 0.951 . S
C396 C397 1.386 1_556 S
C396 C398 1.383 . S
C396 H412 0.951 . S
C397 C396 1.386 1_554 S
C397 C401 1.383 . S
C398 C396 1.383 . S
C398 C399 1.402 . S
C398 H413 0.951 . S
C399 C398 1.402 . S
C399 C400 1.375 1_556 S
C399 C402 1.481 . S
C400 C399 1.375 1_554 S
C400 C401 1.367 . S
C400 H414 0.951 . S
C401 C397 1.383 . S
C401 C400 1.367 . S
C401 H415 0.950 . S
C402 C399 1.481 . S
C402 C403 1.297 . S
C402 H416 0.950 . S
C403 C402 1.297 . S
C403 C404 1.479 . S
C403 H417 0.950 . S
C404 C403 1.479 . S
C404 C405 1.375 . S
C404 C410 1.404 . S
C405 C404 1.375 . S
C405 C406 1.369 . S
C405 H418 0.950 . S
C406 C405 1.369 . S
C406 C407 1.392 . S
C406 H419 0.951 . S
C407 C406 1.392 . S
C407 C409 1.384 . S
H408 C410 0.949 . S
C409 C407 1.384 . S
C409 C410 1.385 . S
C409 H411 0.950 . S
C410 C404 1.404 . S
C410 H408 0.949 . S
C410 C409 1.385 . S
H411 C409 0.950 . S
H412 C396 0.951 . S
H413 C398 0.951 . S
H414 C400 0.951 . S
H415 C401 0.950 . S
H416 C402 0.950 . S
H417 C403 0.950 . S
H418 C405 0.950 . S
H419 C406 0.951 . S
C420 C421 1.386 . S
C420 C422 1.383 . S
C420 H436 0.951 . S
C421 C420 1.386 . S
C421 C425 1.383 1_455 S
C422 C420 1.383 . S
C422 C423 1.402 . S
C422 H437 0.951 . S
C423 C422 1.402 . S
C423 C424 1.375 1_455 S
C423 C426 1.481 . S
C424 C423 1.375 1_655 S
C424 C425 1.367 . S
C424 H438 0.951 . S
C425 C421 1.383 1_655 S
C425 C424 1.367 . S
C425 H439 0.950 . S
C426 C423 1.481 . S
C426 C427 1.297 . S
C426 H440 0.950 1_455 S
C427 C426 1.297 . S
C427 C428 1.479 . S
C427 H441 0.950 . S
C428 C427 1.479 . S
C428 C429 1.375 . S
C428 C434 1.404 1_455 S
C429 C428 1.375 . S
C429 C430 1.369 . S
C429 H442 0.950 . S
C430 C429 1.369 . S
C430 C431 1.392 . S
C430 H443 0.951 . S
C431 C430 1.392 . S
C431 C433 1.384 1_455 S
H432 C434 0.949 . S
C433 C431 1.384 1_655 S
C433 C434 1.385 . S
C433 H435 0.950 . S
C434 C428 1.404 1_655 S
C434 H432 0.949 . S
C434 C433 1.385 . S
H435 C433 0.950 . S
H436 C420 0.951 . S
H437 C422 0.951 . S
H438 C424 0.951 . S
H439 C425 0.950 . S
H440 C426 0.950 1_655 S
H441 C427 0.950 . S
H442 C429 0.950 . S
H443 C430 0.951 . S
C444 C445 1.386 1_565 S
C444 C446 1.383 . S
C444 H460 0.951 . S
C445 C444 1.386 1_545 S
C445 C449 1.383 . S
C446 C444 1.383 . S
C446 C447 1.402 1_565 S
C446 H461 0.951 . S
C447 C446 1.402 1_545 S
C447 C448 1.375 . S
C447 C450 1.481 . S
C448 C447 1.375 . S
C448 C449 1.367 . S
C448 H462 0.951 . S
C449 C445 1.383 . S
C449 C448 1.367 . S
C449 H463 0.950 . S
C450 C447 1.481 . S
C450 C451 1.297 . S
C450 H464 0.950 . S
C451 C450 1.297 . S
C451 C452 1.479 . S
C451 H465 0.950 1_545 S
C452 C451 1.479 . S
C452 C453 1.375 1_545 S
C452 C458 1.404 . S
C453 C452 1.375 1_565 S
C453 C454 1.369 . S
C453 H466 0.950 . S
C454 C453 1.369 . S
C454 C455 1.392 1_565 S
C454 H467 0.951 . S
C455 C454 1.392 1_545 S
C455 C457 1.384 . S
H456 C458 0.949 . S
C457 C455 1.384 . S
C457 C458 1.385 . S
C457 H459 0.950 . S
C458 C452 1.404 . S
C458 H456 0.949 . S
C458 C457 1.385 . S
H459 C457 0.950 . S
H460 C444 0.951 . S
H461 C446 0.951 . S
H462 C448 0.951 . S
H463 C449 0.950 . S
H464 C450 0.950 . S
H465 C451 0.950 1_565 S
H466 C453 0.950 . S
H467 C454 0.951 . S
C468 C469 1.386 1_556 S
C468 C470 1.383 . S
C468 H484 0.951 . S
C469 C468 1.386 1_554 S
C469 C473 1.383 . S
C470 C468 1.383 . S
C470 C471 1.402 . S
C470 H485 0.951 . S
C471 C470 1.402 . S
C471 C472 1.375 1_556 S
C471 C474 1.481 . S
C472 C471 1.375 1_554 S
C472 C473 1.367 . S
C472 H486 0.951 . S
C473 C469 1.383 . S
C473 C472 1.367 . S
C473 H487 0.950 . S
C474 C471 1.481 . S
C474 C475 1.297 . S
C474 H488 0.950 . S
C475 C474 1.297 . S
C475 C476 1.479 . S
C475 H489 0.950 . S
C476 C475 1.479 . S
C476 C477 1.375 . S
C476 C482 1.404 . S
C477 C476 1.375 . S
C477 C478 1.369 . S
C477 H490 0.950 . S
C478 C477 1.369 . S
C478 C479 1.392 . S
C478 H491 0.951 . S
C479 C478 1.392 . S
C479 C481 1.384 . S
H480 C482 0.949 . S
C481 C479 1.384 . S
C481 C482 1.385 . S
C481 H483 0.950 . S
C482 C476 1.404 . S
C482 H480 0.949 . S
C482 C481 1.385 . S
H483 C481 0.950 . S
H484 C468 0.951 . S
H485 C470 0.951 . S
H486 C472 0.951 . S
H487 C473 0.950 . S
H488 C474 0.950 . S
H489 C475 0.950 . S
H490 C477 0.950 . S
H491 C478 0.951 . S
C492 C493 1.386 1_655 S
C492 C494 1.383 . S
C492 H508 0.951 . S
C493 C492 1.386 1_455 S
C493 C497 1.383 . S
C494 C492 1.383 . S
C494 C495 1.402 1_655 S
C494 H509 0.951 . S
C495 C494 1.402 1_455 S
C495 C496 1.375 . S
C495 C498 1.481 . S
C496 C495 1.375 . S
C496 C497 1.367 . S
C496 H510 0.951 . S
C497 C493 1.383 . S
C497 C496 1.367 . S
C497 H511 0.950 . S
C498 C495 1.481 . S
C498 C499 1.297 . S
C498 H512 0.950 . S
C499 C498 1.297 . S
C499 C500 1.479 . S
C499 H513 0.950 1_455 S
C500 C499 1.479 . S
C500 C501 1.375 1_455 S
C500 C506 1.404 . S
C501 C500 1.375 1_655 S
C501 C502 1.369 . S
C501 H514 0.950 . S
C502 C501 1.369 . S
C502 C503 1.392 1_655 S
C502 H515 0.951 . S
C503 C502 1.392 1_455 S
C503 C505 1.384 . S
H504 C506 0.949 . S
C505 C503 1.384 . S
C505 C506 1.385 . S
C505 H507 0.950 . S
C506 C500 1.404 . S
C506 H504 0.949 . S
C506 C505 1.385 . S
H507 C505 0.950 . S
H508 C492 0.951 . S
H509 C494 0.951 . S
H510 C496 0.951 . S
H511 C497 0.950 . S
H512 C498 0.950 . S
H513 C499 0.950 1_655 S
H514 C501 0.950 . S
H515 C502 0.951 . S
C239 C95 1.290 . S
C229 C0 1.342 . S
C253 C25 1.392 . S
C263 C139 1.368 . S
C277 C33 1.413 . S
C287 C201 1.385 . S
C301 C11 1.345 . S
C311 C77 1.353 . S
C335 C157 1.370 . S
C325 C14 1.372 . S
C349 C37 1.425 . S
C359 C219 1.395 . S
C383 C133 1.647 . S
C373 C28 1.681 . S
C397 C9 1.735 . S
C407 C195 1.634 . S
C431 C71 1.721 . S
C421 C19 1.783 . S
C455 C151 1.557 . S
C445 C39 1.721 . S
C479 C213 1.657 . S
C469 C5 1.733 . S
C493 C23 1.782 . S
C503 C89 1.722 . S
