# Generated by pormake.
# Topology llj, (12,3)-cn, num edge types: 1
# Building blocks:
#     Node 0, Type 0, BuildingBlock: QEWDON_clean_sbu_0, # of connection points: 12
#     Node 1, Type 0, BuildingBlock: QEWDON_clean_sbu_0, # of connection points: 12
#     Node 2, Type 1, BuildingBlock: QEWDON_clean_linker_0, # of connection points: 3
#     Node 3, Type 1, BuildingBlock: QEWDON_clean_linker_0, # of connection points: 3
#     Node 4, Type 1, BuildingBlock: QEWDON_clean_linker_0, # of connection points: 3
#     Node 5, Type 1, BuildingBlock: QEWDON_clean_linker_0, # of connection points: 3
#     Node 6, Type 1, BuildingBlock: QEWDON_clean_linker_0, # of connection points: 3
#     Node 7, Type 1, BuildingBlock: QEWDON_clean_linker_0, # of connection points: 3
#     Node 8, Type 1, BuildingBlock: QEWDON_clean_linker_0, # of connection points: 3
#     Node 9, Type 1, BuildingBlock: QEWDON_clean_linker_0, # of connection points: 3
#     Edge 10, Type (0, 1), BuildingBlock: TEMPAE_clean_linker_10, # of connection points: 2
#     Edge 11, Type (0, 1), BuildingBlock: TEMPAE_clean_linker_10, # of connection points: 2
#     Edge 12, Type (0, 1), BuildingBlock: TEMPAE_clean_linker_10, # of connection points: 2
#     Edge 13, Type (0, 1), BuildingBlock: TEMPAE_clean_linker_10, # of connection points: 2
#     Edge 14, Type (0, 1), BuildingBlock: TEMPAE_clean_linker_10, # of connection points: 2
#     Edge 15, Type (0, 1), BuildingBlock: TEMPAE_clean_linker_10, # of connection points: 2
#     Edge 16, Type (0, 1), BuildingBlock: TEMPAE_clean_linker_10, # of connection points: 2
#     Edge 17, Type (0, 1), BuildingBlock: TEMPAE_clean_linker_10, # of connection points: 2
#     Edge 18, Type (0, 1), BuildingBlock: TEMPAE_clean_linker_10, # of connection points: 2
#     Edge 19, Type (0, 1), BuildingBlock: TEMPAE_clean_linker_10, # of connection points: 2
#     Edge 20, Type (0, 1), BuildingBlock: TEMPAE_clean_linker_10, # of connection points: 2
#     Edge 21, Type (0, 1), BuildingBlock: TEMPAE_clean_linker_10, # of connection points: 2
#     Edge 22, Type (0, 1), BuildingBlock: TEMPAE_clean_linker_10, # of connection points: 2
#     Edge 23, Type (0, 1), BuildingBlock: TEMPAE_clean_linker_10, # of connection points: 2
#     Edge 24, Type (0, 1), BuildingBlock: TEMPAE_clean_linker_10, # of connection points: 2
#     Edge 25, Type (0, 1), BuildingBlock: TEMPAE_clean_linker_10, # of connection points: 2
#     Edge 26, Type (0, 1), BuildingBlock: TEMPAE_clean_linker_10, # of connection points: 2
#     Edge 27, Type (0, 1), BuildingBlock: TEMPAE_clean_linker_10, # of connection points: 2
#     Edge 28, Type (0, 1), BuildingBlock: TEMPAE_clean_linker_10, # of connection points: 2
#     Edge 29, Type (0, 1), BuildingBlock: TEMPAE_clean_linker_10, # of connection points: 2
#     Edge 30, Type (0, 1), BuildingBlock: TEMPAE_clean_linker_10, # of connection points: 2
#     Edge 31, Type (0, 1), BuildingBlock: TEMPAE_clean_linker_10, # of connection points: 2
#     Edge 32, Type (0, 1), BuildingBlock: TEMPAE_clean_linker_10, # of connection points: 2
#     Edge 33, Type (0, 1), BuildingBlock: TEMPAE_clean_linker_10, # of connection points: 2
# Relax obj value: 0.027
# Max RMSD: 0.172
# Mean RMSD: 0.148
data_MOF--net-llj--node1-QEWDON_clean_sbu_0--node2-QEWDON_clean_linker_0--edge1-TEMPAE_clean_linker_10
_symmetry_space_group_name_H-M    P1
_symmetry_Int_Tables_number       1
_symmetry_cell_setting            triclinic
loop_
_symmetry_equiv_pos_as_xyz
'x, y, z'
_cell_length_a     42.065249
_cell_length_b     42.051145
_cell_length_c     24.684511
_cell_angle_alpha  91.313657
_cell_angle_beta   91.157635
_cell_angle_gamma 90.267587
loop_
_atom_site_label
_atom_site_type_symbol
_atom_site_fract_x
_atom_site_fract_y
_atom_site_fract_z
_atom_type_partial_charge
Zn0 Zn 0.95261 0.07497 0.94567 0.0
Zn1 Zn 0.95177 0.07328 0.07599 0.0
O2 O 0.97795 0.0618 0.01203 0.0
H3 H 0.99251 0.04417 0.011 0.0
C4 C 0.88258 0.02566 0.89196 0.0
O5 O 0.88638 0.03891 0.94039 0.0
Zn6 Zn 0.03741 0.9463 0.06892 0.0
Zn7 Zn 0.03122 0.93859 0.93971 0.0
O8 O 0.00974 0.9562 0.00543 0.0
H9 H 0.99394 0.97277 0.00463 0.0
Zn10 Zn 0.89954 0.96966 0.95259 0.0
O11 O 0.92847 0.98947 0.00931 0.0
Zn12 Zn 0.92471 0.96273 0.07451 0.0
H13 H 0.94529 0.0044 0.00208 0.0
Zn14 Zn 0.07173 0.04938 0.94328 0.0
O15 O 0.05479 0.02709 0.00775 0.0
H16 H 0.03866 0.01081 0.00409 0.0
Zn17 Zn 0.06399 0.0548 0.07293 0.0
C18 C 0.09187 0.99269 0.88501 0.0
O19 O 0.09538 0.98305 0.93503 0.0
O20 O 0.91707 0.10624 0.96408 0.0
O21 O 0.918 0.10564 0.05422 0.0
O22 O 0.07078 0.91227 0.95806 0.0
O23 O 0.07415 0.91769 0.04781 0.0
O24 O 0.87655 0.92892 0.9747 0.0
O25 O 0.89505 0.9242 0.05945 0.0
C26 C 0.01007 0.0873 0.13578 0.0
O27 O 0.10289 0.08535 0.96486 0.0
O28 O 0.09726 0.08857 0.05432 0.0
O29 O 0.00054 0.91802 0.8836 0.0
C30 C 0.90672 0.11602 0.0096 0.0
O31 O 0.97828 0.08454 0.87733 0.0
C32 C 0.98128 0.92744 0.12271 0.0
O33 O 0.88625 0.9958 0.88615 0.0
C34 C 0.08436 0.90614 0.00319 0.0
O35 O 0.08191 0.02071 0.87693 0.0
C36 C 0.91781 0.02049 0.1375 0.0
O37 O 0.98013 0.09139 0.13709 0.0
O38 O 0.02128 0.07276 0.09463 0.0
C39 C 0.87791 0.91402 0.01911 0.0
O40 O 0.01103 0.92276 0.12175 0.0
O41 O 0.96929 0.94795 0.09135 0.0
C42 C 0.07176 0.99893 0.13401 0.0
O43 O 0.90994 0.99124 0.13603 0.0
O44 O 0.93223 0.03151 0.09718 0.0
C45 C 0.11005 0.09789 0.01092 0.0
O46 O 0.08077 0.02777 0.13398 0.0
O47 O 0.05363 0.9889 0.09565 0.0
C48 C 0.97305 0.92904 0.87353 0.0
O49 O 0.96399 0.9555 0.89785 0.0
C50 C 0.00712 0.09286 0.88484 0.0
O51 O 0.01887 0.09447 0.93456 0.0
Zn52 Zn 0.44855 0.57663 0.44615 0.0
Zn53 Zn 0.4512 0.57105 0.57572 0.0
O54 O 0.47624 0.56273 0.5091 0.0
H55 H 0.49167 0.54589 0.50591 0.0
C56 C 0.39231 0.52209 0.37592 0.0
O57 O 0.39481 0.53423 0.42535 0.0
Zn58 Zn 0.53708 0.4525 0.57895 0.0
Zn59 Zn 0.53695 0.45197 0.45034 0.0
O60 O 0.50992 0.46265 0.51479 0.0
H61 H 0.49457 0.47963 0.51459 0.0
Zn62 Zn 0.40925 0.46563 0.43427 0.0
O63 O 0.43076 0.48802 0.49804 0.0
Zn64 Zn 0.42399 0.46127 0.56244 0.0
H65 H 0.44499 0.50597 0.4953 0.0
Zn66 Zn 0.57775 0.54848 0.44821 0.0
O67 O 0.55962 0.52808 0.51277 0.0
H68 H 0.54185 0.51373 0.50799 0.0
Zn69 Zn 0.56563 0.55913 0.57454 0.0
C70 C 0.59834 0.49032 0.39207 0.0
O71 O 0.6017 0.48035 0.4419 0.0
O72 O 0.41356 0.6069 0.47133 0.0
O73 O 0.41622 0.60356 0.5612 0.0
O74 O 0.57113 0.41886 0.46784 0.0
O75 O 0.57025 0.41936 0.55793 0.0
O76 O 0.38392 0.42543 0.45262 0.0
O77 O 0.39651 0.42237 0.54036 0.0
C78 C 0.51094 0.58738 0.62969 0.0
O79 O 0.60929 0.58368 0.46971 0.0
O80 O 0.59994 0.5919 0.55744 0.0
O81 O 0.51227 0.44505 0.37815 0.0
C82 C 0.40408 0.6153 0.51821 0.0
O83 O 0.47148 0.58816 0.37553 0.0
C84 C 0.47952 0.4385 0.63421 0.0
O85 O 0.39705 0.49251 0.36827 0.0
C86 C 0.58117 0.40866 0.51323 0.0
O87 O 0.58867 0.51843 0.38433 0.0
C88 C 0.4123 0.51735 0.62464 0.0
O89 O 0.481 0.58862 0.63523 0.0
O90 O 0.52182 0.57607 0.58586 0.0
C91 C 0.38227 0.41136 0.49766 0.0
O92 O 0.50961 0.43663 0.63879 0.0
O93 O 0.46771 0.44924 0.59046 0.0
C94 C 0.5702 0.50659 0.64357 0.0
O95 O 0.4034 0.48845 0.62007 0.0
O96 O 0.43266 0.52768 0.59191 0.0
C97 C 0.61524 0.5982 0.51467 0.0
O98 O 0.57814 0.53574 0.64251 0.0
O99 O 0.55664 0.49441 0.60164 0.0
C100 C 0.48362 0.43574 0.38123 0.0
O101 O 0.47143 0.432 0.42928 0.0
C102 C 0.50019 0.57954 0.3705 0.0
O103 O 0.51359 0.56285 0.40898 0.0
H104 H 0.36865 0.29474 0.08422 0.0
C105 C 0.36987 0.30735 0.04647 0.0
C106 C 0.38005 0.33915 0.04672 0.0
C107 C 0.3623 0.29126 -0.00235 0.0
H108 H 0.39186 0.37879 -0.00264 0.0
C109 C 0.3822 0.35485 -0.00261 0.0
C110 C 0.3748 0.33897 0.94793 0.0
C111 C 0.36437 0.30712 0.94852 0.0
C112 C 0.3559 0.25687 -0.0017 0.0
H113 H 0.35907 0.29425 0.91084 0.0
C114 C 0.32465 0.24511 0.99481 0.0
C115 C 0.31853 0.21239 0.00071 0.0
C116 C 0.38126 0.2359 0.00637 0.0
H117 H 0.40549 0.24475 0.0095 0.0
C118 C 0.3755 0.20345 0.01132 0.0
H119 H 0.30526 0.26156 0.98828 0.0
C120 C 0.34441 0.19175 0.00902 0.0
H121 H 0.34068 0.1666 0.015 0.0
H122 H 0.39516 0.18739 0.018 0.0
H123 H 0.71941 0.36473 0.0783 0.0
C124 C 0.70438 0.37173 0.04446 0.0
C125 C 0.6741 0.38442 0.05395 0.0
C126 C 0.71605 0.36981 0.9917 0.0
H127 H 0.63278 0.40606 0.01752 0.0
C128 C 0.65535 0.39462 0.00995 0.0
C129 C 0.66677 0.39278 0.95692 0.0
C130 C 0.69695 0.37976 0.94821 0.0
C131 C 0.74924 0.36031 0.982 0.0
H132 H 0.70605 0.37798 0.90747 0.0
C133 C 0.76094 0.33113 0.00024 0.0
C134 C 0.79226 0.32181 0.98885 0.0
C135 C 0.76923 0.38051 0.95336 0.0
H136 H 0.76071 0.40322 0.9393 0.0
C137 C 0.8004 0.37166 0.94279 0.0
H138 H 0.74552 0.31557 0.0224 0.0
C139 C 0.81185 0.34247 0.96009 0.0
H140 H 0.83584 0.33576 0.94976 0.0
H141 H 0.81563 0.3873 0.92052 0.0
H142 H 0.68679 0.66351 0.93413 0.0
C143 C 0.67172 0.65953 0.96847 0.0
C144 C 0.63948 0.65173 0.95989 0.0
C145 C 0.6847 0.66115 0.02138 0.0
H146 H 0.59564 0.63898 -0.00239 0.0
C147 C 0.6204 0.64558 0.00435 0.0
C148 C 0.6332 0.64654 0.05719 0.0
C149 C 0.66537 0.65465 0.06557 0.0
C150 C 0.71911 0.66648 0.03033 0.0
H151 H 0.67566 0.65482 0.10622 0.0
C152 C 0.73278 0.69674 0.02424 0.0
C153 C 0.7657 0.70138 0.03315 0.0
C154 C 0.7384 0.64093 0.04554 0.0
H155 H 0.72818 0.61751 0.05059 0.0
C156 C 0.77103 0.64537 0.05389 0.0
H157 H 0.71787 0.71653 0.01273 0.0
C158 C 0.78466 0.67535 0.04766 0.0
H159 H 0.80998 0.67832 0.05514 0.0
H160 H 0.78579 0.62553 0.06548 0.0
H161 H 0.26906 0.65272 0.07291 0.0
C162 C 0.28326 0.64627 0.03821 0.0
C163 C 0.31365 0.63313 0.04594 0.0
C164 C 0.27037 0.64939 0.98579 0.0
H165 H 0.35466 0.61366 0.00606 0.0
C166 C 0.33147 0.62435 0.00045 0.0
C167 C 0.31882 0.62751 0.94778 0.0
C168 C 0.28825 0.64013 0.94089 0.0
C169 C 0.23718 0.65964 0.97755 0.0
H170 H 0.27776 0.64169 0.90055 0.0
C171 C 0.22718 0.68969 0.99622 0.0
C172 C 0.19592 0.69996 0.98546 0.0
C173 C 0.2156 0.63949 0.94925 0.0
H174 H 0.22291 0.61618 0.93474 0.0
C175 C 0.18446 0.64924 0.93944 0.0
H176 H 0.24391 0.70518 0.01809 0.0
C177 C 0.17467 0.6793 0.95702 0.0
H178 H 0.15066 0.68665 0.94708 0.0
H179 H 0.16798 0.63363 0.91738 0.0
H180 H 0.87563 0.77762 0.57738 0.0
C181 C 0.87986 0.78935 0.53953 0.0
C182 C 0.88822 0.82175 0.53959 0.0
C183 C 0.87863 0.77146 0.49084 0.0
H184 H 0.89965 0.8614 0.48935 0.0
C185 C 0.89411 0.83621 0.49005 0.0
C186 C 0.89352 0.81843 0.44135 0.0
C187 C 0.88568 0.78603 0.44197 0.0
C188 C 0.87003 0.73745 0.49066 0.0
H189 H 0.88533 0.77203 0.40451 0.0
C190 C 0.84065 0.72794 0.51083 0.0
C191 C 0.83048 0.69608 0.50537 0.0
C192 C 0.89017 0.71472 0.46723 0.0
H193 H 0.91297 0.72169 0.45151 0.0
C194 C 0.88087 0.68287 0.46359 0.0
H195 H 0.82532 0.74566 0.52904 0.0
C196 C 0.85113 0.67358 0.48192 0.0
H197 H 0.84398 0.64897 0.47597 0.0
H198 H 0.89641 0.66544 0.44521 0.0
H199 H 0.21552 0.86524 0.57738 0.0
C200 C 0.2 0.86995 0.5429 0.0
C201 C 0.16916 0.88143 0.55136 0.0
C202 C 0.21148 0.86627 0.49019 0.0
H203 H 0.12598 0.89796 0.5131 0.0
C204 C 0.14953 0.88841 0.50655 0.0
C205 C 0.16084 0.8852 0.45357 0.0
C206 C 0.19176 0.8738 0.44582 0.0
C207 C 0.24485 0.857 0.48122 0.0
H208 H 0.20107 0.87198 0.40524 0.0
C209 C 0.2574 0.82933 0.50415 0.0
C210 C 0.28873 0.81977 0.49321 0.0
C211 C 0.2641 0.87565 0.44852 0.0
H212 H 0.255 0.89723 0.43089 0.0
C213 C 0.29529 0.86668 0.43836 0.0
H214 H 0.24255 0.81504 0.52956 0.0
C215 C 0.30749 0.83886 0.4601 0.0
H216 H 0.33141 0.83194 0.44975 0.0
H217 H 0.30992 0.88109 0.41285 0.0
H218 H 0.18856 0.15622 0.43378 0.0
C219 C 0.17549 0.15304 0.47069 0.0
C220 C 0.1437 0.14259 0.46784 0.0
C221 C 0.19096 0.15725 0.52141 0.0
H222 H 0.10283 0.12918 0.51368 0.0
C223 C 0.12734 0.13736 0.5157 0.0
C224 C 0.14233 0.14242 0.56618 0.0
C225 C 0.17414 0.15229 0.56907 0.0
C226 C 0.22549 0.16327 0.52516 0.0
H227 H 0.18607 0.15514 0.60826 0.0
C228 C 0.23831 0.19321 0.51357 0.0
C229 C 0.27122 0.19903 0.52051 0.0
C230 C 0.24563 0.13896 0.54286 0.0
H231 H 0.23605 0.1158 0.55216 0.0
C232 C 0.27822 0.14439 0.54892 0.0
H233 H 0.22264 0.21192 0.49997 0.0
C234 C 0.29097 0.17419 0.53812 0.0
H235 H 0.31624 0.17798 0.54481 0.0
H236 H 0.29361 0.12555 0.56278 0.0
H237 H 0.76921 0.15561 0.57821 0.0
C238 C 0.78434 0.15004 0.54428 0.0
C239 C 0.81427 0.13608 0.55322 0.0
C240 C 0.77297 0.15494 0.49142 0.0
H241 H 0.85532 0.11562 0.51493 0.0
C242 C 0.83306 0.12797 0.50846 0.0
C243 C 0.82199 0.13306 0.45527 0.0
C244 C 0.79208 0.14709 0.44737 0.0
C245 C 0.73965 0.16428 0.48136 0.0
H246 H 0.78304 0.15104 0.40665 0.0
C247 C 0.72806 0.19365 0.50039 0.0
C248 C 0.69645 0.20253 0.48864 0.0
C249 C 0.71939 0.14352 0.45144 0.0
H250 H 0.72792 0.12071 0.43664 0.0
C251 C 0.68797 0.15193 0.44053 0.0
H252 H 0.74373 0.20966 0.52346 0.0
C253 C 0.67656 0.18126 0.45871 0.0
H254 H 0.65232 0.1876 0.44813 0.0
H255 H 0.67252 0.13585 0.41731 0.0
C256 C 0.15704 0.12256 0.05865 0.0
C257 C 0.13596 0.12161 0.01401 0.0
C258 C 0.18511 0.14068 0.0577 0.0
C259 C 0.19174 0.15875 0.01147 0.0
C260 C 0.16926 0.15978 0.96812 0.0
C261 C 0.14177 0.14087 0.96965 0.0
C262 C 0.20868 0.13856 0.10441 0.0
C263 C 0.17499 0.17946 0.91883 0.0
C264 C 0.2608 0.21719 0.0245 0.0
C265 C 0.28538 0.19976 0.00031 0.0
C266 C 0.22988 0.20462 0.02697 0.0
C267 C 0.2236 0.1736 0.00598 0.0
C268 C 0.2481 0.15609 0.98079 0.0
C269 C 0.27851 0.16954 0.9776 0.0
C270 C 0.20412 0.22427 0.05293 0.0
C271 C 0.24241 0.12278 0.95825 0.0
H272 H 0.15266 0.10755 0.09285 0.0
H273 H 0.12518 0.14051 0.93545 0.0
H274 H 0.23007 0.12551 0.09077 0.0
H275 H 0.21659 0.16263 0.11829 0.0
H276 H 0.19865 0.12601 0.13936 0.0
H277 H 0.1533 0.18135 0.89269 0.0
H278 H 0.18313 0.20376 0.9311 0.0
H279 H 0.19402 0.16842 0.89441 0.0
H280 H 0.26582 0.24039 0.04279 0.0
H281 H 0.29704 0.15617 0.95763 0.0
H282 H 0.19645 0.21295 0.09068 0.0
H283 H 0.18298 0.22533 0.02541 0.0
H284 H 0.21219 0.24892 0.06307 0.0
H285 H 0.23415 0.10718 0.99085 0.0
H286 H 0.26413 0.11223 0.94054 0.0
H287 H 0.22344 0.12295 0.92641 0.0
C288 C 0.86878 0.15162 0.05894 0.0
C289 C 0.8833 0.14214 0.01055 0.0
C290 C 0.84971 0.17892 0.06131 0.0
C291 C 0.84555 0.1973 0.01439 0.0
C292 C 0.85882 0.18691 0.96484 0.0
C293 C 0.87731 0.15935 0.96345 0.0
C294 C 0.83533 0.18884 0.11457 0.0
C295 C 0.85499 0.20587 0.91385 0.0
C296 C 0.78508 0.26279 0.99594 0.0
C297 C 0.80422 0.28999 0.00399 0.0
C298 C 0.79762 0.23225 0.00291 0.0
C299 C 0.83011 0.22893 0.01752 0.0
C300 C 0.84899 0.25631 0.02889 0.0
C301 C 0.83574 0.2865 0.02236 0.0
C302 C 0.77659 0.20357 0.99162 0.0
C303 C 0.88377 0.25378 0.04454 0.0
H304 H 0.87293 0.13818 0.09532 0.0
H305 H 0.88831 0.15215 0.9258 0.0
H306 H 0.84899 0.20923 0.13258 0.0
H307 H 0.81041 0.19674 0.10845 0.0
H308 H 0.83573 0.16925 0.14401 0.0
H309 H 0.86634 0.19418 0.87842 0.0
H310 H 0.8294 0.20927 0.90404 0.0
H311 H 0.8658 0.22982 0.92027 0.0
H312 H 0.76072 0.26525 0.98156 0.0
H313 H 0.85043 0.30745 0.0299 0.0
H314 H 0.7801 0.18564 0.02345 0.0
H315 H 0.78306 0.19222 0.95239 0.0
H316 H 0.75103 0.21003 0.98944 0.0
H317 H 0.88695 0.2376 0.07906 0.0
H318 H 0.89449 0.27724 0.05594 0.0
H319 H 0.89705 0.24348 0.00997 0.0
C320 C 0.83615 0.87583 0.98392 0.0
C321 C 0.85995 0.88369 0.02274 0.0
C322 C 0.81986 0.84666 0.98491 0.0
C323 C 0.82774 0.82455 0.02532 0.0
C324 C 0.85183 0.83223 0.06448 0.0
C325 C 0.86733 0.86189 0.06322 0.0
C326 C 0.79451 0.8393 0.94218 0.0
C327 C 0.86138 0.80914 0.10769 0.0
C328 C 0.76772 0.75971 0.05619 0.0
C329 C 0.78046 0.73332 0.02869 0.0
C330 C 0.78288 0.78956 0.05552 0.0
C331 C 0.81113 0.79317 0.02595 0.0
C332 C 0.82369 0.76671 -0.00283 0.0
C333 C 0.80831 0.73708 -0.00082 0.0
C334 C 0.76903 0.81709 0.0873 0.0
C335 C 0.85367 0.7696 0.96498 0.0
H336 H 0.83021 0.89252 0.95252 0.0
H337 H 0.88578 0.86766 0.09323 0.0
H338 H 0.80112 0.81775 0.91828 0.0
H339 H 0.77159 0.83411 0.9617 0.0
H340 H 0.79091 0.85923 0.91395 0.0
H341 H 0.88448 0.81585 0.12742 0.0
H342 H 0.8428 0.80879 0.13896 0.0
H343 H 0.86341 0.78462 0.09063 0.0
H344 H 0.74641 0.75677 0.07955 0.0
H345 H 0.8181 0.71672 0.97765 0.0
H346 H 0.76429 0.83728 0.06018 0.0
H347 H 0.78643 0.82552 0.11889 0.0
H348 H 0.74655 0.81057 0.10725 0.0
H349 H 0.85085 0.78839 0.93445 0.0
H350 H 0.85988 0.74696 0.94375 0.0
H351 H 0.87383 0.77679 0.99233 0.0
C352 C 0.12514 0.87397 0.05299 0.0
C353 C 0.10961 0.88175 0.00421 0.0
C354 C 0.14467 0.84704 0.05597 0.0
C355 C 0.14821 0.82725 0.00933 0.0
C356 C 0.13443 0.83628 0.95922 0.0
C357 C 0.11555 0.86354 0.95721 0.0
C358 C 0.15969 0.83878 0.10984 0.0
C359 C 0.1376 0.81584 0.90846 0.0
C360 C 0.2058 0.75888 0.99298 0.0
C361 C 0.18568 0.73269 0.00067 0.0
C362 C 0.19466 0.79013 -0.00025 0.0
C363 C 0.16258 0.79519 0.01353 0.0
C364 C 0.14282 0.7689 0.02476 0.0
C365 C 0.15471 0.73801 0.01867 0.0
C366 C 0.2167 0.81763 0.9892 0.0
C367 C 0.10844 0.77328 0.03974 0.0
H368 H 0.12101 0.88811 0.08944 0.0
H369 H 0.10385 0.86943 0.91924 0.0
H370 H 0.14449 0.82114 0.12996 0.0
H371 H 0.18351 0.82806 0.1046 0.0
H372 H 0.16206 0.86006 0.13716 0.0
H373 H 0.12662 0.82697 0.87229 0.0
H374 H 0.16301 0.81128 0.90032 0.0
H375 H 0.12592 0.79246 0.91416 0.0
H376 H 0.22977 0.75506 0.97901 0.0
H377 H 0.13932 0.7179 0.02616 0.0
H378 H 0.21418 0.83663 0.02075 0.0
H379 H 0.21036 0.82805 0.94957 0.0
H380 H 0.24197 0.81009 0.98824 0.0
H381 H 0.10661 0.79024 0.07458 0.0
H382 H 0.09687 0.75053 0.05044 0.0
H383 H 0.09504 0.7835 0.00513 0.0
C384 C 0.65284 0.63432 0.56744 0.0
C385 C 0.64311 0.61985 0.51804 0.0
C386 C 0.68175 0.65112 0.57216 0.0
C387 C 0.70172 0.65254 0.5268 0.0
C388 C 0.6914 0.63913 0.47632 0.0
C389 C 0.66208 0.62337 0.47242 0.0
C390 C 0.69143 0.6659 0.62632 0.0
C391 C 0.71211 0.63985 0.427 0.0
C392 C 0.77197 0.70732 0.50959 0.0
C393 C 0.79757 0.68677 0.51974 0.0
C394 C 0.74048 0.69738 0.5164 0.0
C395 C 0.73438 0.66586 0.53203 0.0
C396 C 0.76002 0.64562 0.54541 0.0
C397 C 0.79131 0.65647 0.53976 0.0
C398 C 0.71372 0.72 0.50375 0.0
C399 C 0.75443 0.61178 0.56227 0.0
H400 H 0.63845 0.63161 0.60288 0.0
H401 H 0.6548 0.61245 0.43391 0.0
H402 H 0.70708 0.64921 0.64841 0.0
H403 H 0.70481 0.68842 0.62143 0.0
H404 H 0.67043 0.67083 0.65169 0.0
H405 H 0.7002 0.62897 0.39046 0.0
H406 H 0.71871 0.66469 0.41792 0.0
H407 H 0.73449 0.62674 0.43514 0.0
H408 H 0.7763 0.73072 0.49372 0.0
H409 H 0.81087 0.64075 0.54929 0.0
H410 H 0.6953 0.71896 0.53524 0.0
H411 H 0.7022 0.71296 0.46444 0.0
H412 H 0.72226 0.74494 0.50105 0.0
H413 H 0.73777 0.61126 0.59647 0.0
H414 H 0.77682 0.5998 0.57466 0.0
H415 H 0.74331 0.59794 0.528 0.0
C416 C 0.37177 0.65779 0.47544 0.0
C417 C 0.38094 0.64168 0.52234 0.0
C418 C 0.35365 0.68555 0.47844 0.0
C419 C 0.34404 0.69746 0.52961 0.0
C420 C 0.35179 0.68052 0.57701 0.0
C421 C 0.3701 0.6527 0.57278 0.0
C422 C 0.34627 0.70305 0.42687 0.0
C423 C 0.34117 0.69165 0.6323 0.0
C424 C 0.33364 0.78654 0.52818 0.0
C425 C 0.30144 0.78907 0.51298 0.0
C426 C 0.3474 0.75684 0.53758 0.0
C427 C 0.32839 0.72904 0.53269 0.0
C428 C 0.2953 0.73168 0.5228 0.0
C429 C 0.28222 0.76164 0.51238 0.0
C430 C 0.38271 0.75504 0.54938 0.0
C431 C 0.27408 0.70264 0.52012 0.0
H432 H 0.3799 0.64951 0.43625 0.0
H433 H 0.37666 0.64015 0.60921 0.0
H434 H 0.32024 0.7063 0.4219 0.0
H435 H 0.35735 0.72706 0.42917 0.0
H436 H 0.3551 0.69033 0.39027 0.0
H437 H 0.35763 0.68333 0.66466 0.0
H438 H 0.33948 0.71792 0.63581 0.0
H439 H 0.31726 0.68155 0.63965 0.0
H440 H 0.34844 0.80771 0.53068 0.0
H441 H 0.25729 0.76323 0.50092 0.0
H442 H 0.39456 0.74282 0.51499 0.0
H443 H 0.3873 0.74086 0.58606 0.0
H444 H 0.39372 0.77894 0.55571 0.0
H445 H 0.27887 0.68853 0.48266 0.0
H446 H 0.24848 0.70901 0.51999 0.0
H447 H 0.27923 0.68722 0.5551 0.0
C448 C 0.36666 0.36204 0.54578 0.0
C449 C 0.36393 0.38125 0.50021 0.0
C450 C 0.35033 0.33293 0.54787 0.0
C451 C 0.33061 0.32288 0.50349 0.0
C452 C 0.32734 0.34237 0.45775 0.0
C453 C 0.34411 0.37127 0.45659 0.0
C454 C 0.35462 0.3127 0.59723 0.0
C455 C 0.30637 0.33256 0.40981 0.0
C456 C 0.31479 0.23419 0.48771 0.0
C457 C 0.28505 0.23111 0.51191 0.0
C458 C 0.32962 0.26397 0.48394 0.0
C459 C 0.31422 0.29146 0.50433 0.0
C460 C 0.28371 0.28873 0.52703 0.0
C461 C 0.26953 0.25857 0.53073 0.0
C462 C 0.36216 0.2659 0.45942 0.0
C463 C 0.26643 0.31757 0.54872 0.0
H464 H 0.38203 0.36946 0.57956 0.0
H465 H 0.34165 0.38605 0.42138 0.0
H466 H 0.3313 0.30869 0.61622 0.0
H467 H 0.36406 0.28904 0.58517 0.0
H468 H 0.3711 0.32376 0.62802 0.0
H469 H 0.30573 0.35083 0.378 0.0
H470 H 0.31505 0.30995 0.39158 0.0
H471 H 0.28175 0.32821 0.42326 0.0
H472 H 0.32669 0.21317 0.4722 0.0
H473 H 0.24673 0.25641 0.55002 0.0
H474 H 0.37962 0.27516 0.49025 0.0
H475 H 0.36188 0.28274 0.42548 0.0
H476 H 0.37051 0.24241 0.44403 0.0
H477 H 0.27994 0.32812 0.58382 0.0
H478 H 0.24204 0.3117 0.56188 0.0
H479 H 0.26482 0.33599 0.51733 0.0
C480 C 0.61963 0.37339 0.56188 0.0
C481 C 0.60402 0.38202 0.5137 0.0
C482 C 0.63864 0.34605 0.56366 0.0
C483 C 0.64164 0.32674 0.51633 0.0
C484 C 0.62699 0.33608 0.4671 0.0
C485 C 0.60861 0.36375 0.46629 0.0
C486 C 0.65445 0.3372 0.61661 0.0
C487 C 0.62948 0.31607 0.41573 0.0
C488 C 0.70283 0.26181 0.49678 0.0
C489 C 0.68436 0.23446 0.5045 0.0
C490 C 0.68986 0.29229 0.50396 0.0
C491 C 0.65766 0.29539 0.51864 0.0
C492 C 0.63954 0.26792 0.52967 0.0
C493 C 0.65319 0.23782 0.5228 0.0
C494 C 0.71008 0.32107 0.4928 0.0
C495 C 0.60508 0.27019 0.54532 0.0
H496 H 0.61657 0.38769 0.59846 0.0
H497 H 0.59671 0.37028 0.42883 0.0
H498 H 0.6424 0.31605 0.6329 0.0
H499 H 0.67968 0.33079 0.61032 0.0
H500 H 0.65345 0.35682 0.64745 0.0
H501 H 0.61647 0.3266 0.38094 0.0
H502 H 0.65479 0.31326 0.40492 0.0
H503 H 0.61968 0.29193 0.42218 0.0
H504 H 0.7269 0.25943 0.48244 0.0
H505 H 0.63904 0.21677 0.52996 0.0
H506 H 0.70715 0.33967 0.52491 0.0
H507 H 0.70231 0.33142 0.4538 0.0
H508 H 0.73569 0.31501 0.49023 0.0
H509 H 0.60238 0.28718 0.57992 0.0
H510 H 0.59508 0.2468 0.55659 0.0
H511 H 0.5908 0.27934 0.51079 0.0
C512 C 0.06373 0.09633 0.17983 0.0
C513 C 0.03057 0.09765 0.18271 0.0
C514 C 0.08341 0.10442 0.22449 0.0
C515 C 0.06956 0.11511 0.27322 0.0
C516 C 0.03607 0.11772 0.27619 0.0
C517 C 0.01695 0.10874 0.23101 0.0
C518 C 0.11899 0.101 0.21966 0.0
C519 C 0.0204 0.12927 0.32744 0.0
C520 C 0.11507 0.10462 0.4055 0.0
C521 C 0.12747 0.13521 0.41549 0.0
C522 C 0.09662 0.09766 0.35885 0.0
C523 C 0.09006 0.12208 0.32178 0.0
C524 C 0.10305 0.15292 0.3312 0.0
C525 C 0.12189 0.15908 0.37796 0.0
C526 C 0.08394 0.06426 0.34951 0.0
C527 C 0.09625 0.17957 0.29279 0.0
H528 H 0.07451 0.0888 0.14284 0.0
H529 H 0.9913 0.11011 0.23383 0.0
H530 H 0.13064 0.12461 0.22501 0.0
H531 H 0.12849 0.08561 0.25205 0.0
H532 H 0.12579 0.09059 0.17981 0.0
H533 H 0.99449 0.13317 0.32134 0.0
H534 H 0.02383 0.1115 0.35954 0.0
H535 H 0.03156 0.15186 0.34241 0.0
H536 H 0.11958 0.08621 0.43471 0.0
H537 H 0.1313 0.18279 0.38623 0.0
H538 H 0.09267 0.05434 0.31053 0.0
H539 H 0.05759 0.06456 0.34655 0.0
H540 H 0.09118 0.04811 0.38248 0.0
H541 H 0.10387 0.17279 0.25137 0.0
H542 H 0.10851 0.20205 0.30556 0.0
H543 H 0.07027 0.18397 0.29048 0.0
C544 C 0.90659 0.07318 0.18263 0.0
C545 C 0.91061 0.04027 0.18592 0.0
C546 C 0.89626 0.09128 0.22735 0.0
C547 C 0.88993 0.07594 0.27648 0.0
C548 C 0.89605 0.04304 0.28105 0.0
C549 C 0.90619 0.02561 0.23564 0.0
C550 C 0.89004 0.1263 0.22058 0.0
C551 C 0.89017 0.02583 0.33299 0.0
C552 C 0.87311 0.12239 0.4067 0.0
C553 C 0.8398 0.12047 0.40799 0.0
C554 C 0.88992 0.10874 0.3634 0.0
C555 C 0.87295 0.09298 0.32049 0.0
C556 C 0.83935 0.09173 0.3209 0.0
C557 C 0.82325 0.10519 0.36478 0.0
C558 C 0.92577 0.11056 0.36405 0.0
C559 C 0.82034 0.07534 0.27567 0.0
H560 H 0.90997 0.08459 0.14454 0.0
H561 H 0.91003 0.00026 0.23881 0.0
H562 H 0.86424 0.12988 0.21291 0.0
H563 H 0.89688 0.14022 0.25775 0.0
H564 H 0.90316 0.13591 0.18588 0.0
H565 H 0.89962 0.0012 0.33181 0.0
H566 H 0.9013 0.03897 0.368 0.0
H567 H 0.86423 0.02462 0.34004 0.0
H568 H 0.88606 0.1344 0.43967 0.0
H569 H 0.79761 0.10287 0.36586 0.0
H570 H 0.93417 0.12046 0.32557 0.0
H571 H 0.93579 0.0863 0.36717 0.0
H572 H 0.93532 0.12548 0.39842 0.0
H573 H 0.82694 0.08507 0.23601 0.0
H574 H 0.7943 0.07816 0.28053 0.0
H575 H 0.82586 0.04956 0.27451 0.0
C576 C 0.96944 0.87728 0.16948 0.0
C577 C 0.9619 0.90911 0.15998 0.0
C578 C 0.95458 0.86064 0.21057 0.0
C579 C 0.93204 0.87645 0.24316 0.0
C580 C 0.9229 0.90791 0.23138 0.0
C581 C 0.9383 0.92399 0.19025 0.0
C582 C 0.96415 0.82675 0.22095 0.0
C583 C 0.89843 0.92534 0.26448 0.0
C584 C 0.88482 0.82845 0.34263 0.0
C585 C 0.9028 0.8335 0.39046 0.0
C586 C 0.89365 0.84259 0.29426 0.0
C587 C 0.9214 0.86176 0.29375 0.0
C588 C 0.93961 0.86693 0.34205 0.0
C589 C 0.93006 0.85274 0.38981 0.0
C590 C 0.87357 0.836 0.24397 0.0
C591 C 0.96944 0.88715 0.34317 0.0
H592 H 0.9877 0.86571 0.14584 0.0
H593 H 0.93346 0.94879 0.18449 0.0
H594 H 0.97686 0.82559 0.2607 0.0
H595 H 0.94269 0.8114 0.2229 0.0
H596 H 0.9799 0.81702 0.18908 0.0
H597 H 0.9096 0.9339 0.30328 0.0
H598 H 0.88878 0.94618 0.24288 0.0
H599 H 0.87837 0.90937 0.2742 0.0
H600 H 0.86367 0.81362 0.3431 0.0
H601 H 0.94428 0.85626 0.42661 0.0
H602 H 0.88144 0.8132 0.22532 0.0
H603 H 0.87562 0.85493 0.21365 0.0
H604 H 0.84812 0.83319 0.25417 0.0
H605 H 0.98708 0.87671 0.31516 0.0
H606 H 0.98054 0.88924 0.38433 0.0
H607 H 0.9639 0.9114 0.329 0.0
C608 C 0.11475 0.9794 0.19469 0.0
C609 C 0.08302 0.97788 0.17686 0.0
C610 C 0.12538 0.96129 0.23834 0.0
C611 C 0.10356 0.94156 0.26505 0.0
C612 C 0.0715 0.93965 0.2466 0.0
C613 C 0.06158 0.95814 0.20287 0.0
C614 C 0.15975 0.96402 0.25687 0.0
C615 C 0.04742 0.9192 0.27433 0.0
C616 C 0.14161 0.8808 0.35673 0.0
C617 C 0.14212 0.89731 0.40681 0.0
C618 C 0.12773 0.89425 0.31047 0.0
C619 C 0.11405 0.92487 0.31457 0.0
C620 C 0.11305 0.94093 0.36551 0.0
C621 C 0.12717 0.92699 0.41098 0.0
C622 C 0.12907 0.87642 0.25677 0.0
C623 C 0.09872 0.97367 0.37146 0.0
H624 H 0.13118 0.99504 0.17475 0.0
H625 H 0.03673 0.95845 0.19082 0.0
H626 H 0.16117 0.97459 0.29845 0.0
H627 H 0.17067 0.94008 0.25844 0.0
H628 H 0.17399 0.97901 0.2298 0.0
H629 H 0.02446 0.91765 0.25132 0.0
H630 H 0.05674 0.89481 0.27956 0.0
H631 H 0.04286 0.92929 0.31534 0.0
H632 H 0.1528 0.85769 0.35345 0.0
H633 H 0.12787 0.94013 0.44929 0.0
H634 H 0.14493 0.88926 0.2292 0.0
H635 H 0.10514 0.87533 0.23707 0.0
H636 H 0.13808 0.85181 0.26118 0.0
H637 H 0.11344 0.99109 0.34984 0.0
H638 H 0.0972 0.98165 0.41454 0.0
H639 H 0.07452 0.97404 0.35278 0.0
C640 C 0.09496 0.98139 0.78554 0.0
C641 C 0.10081 0.9718 0.83882 0.0
C642 C 0.10492 0.96283 0.74125 0.0
C643 C 0.12155 0.93419 0.75044 0.0
C644 C 0.1267 0.92385 0.80405 0.0
C645 C 0.11607 0.94271 0.84767 0.0
C646 C 0.09884 0.97477 0.68475 0.0
C647 C 0.14386 0.89317 0.81534 0.0
C648 C 0.12888 0.88145 0.62466 0.0
C649 C 0.15885 0.89057 0.60646 0.0
C650 C 0.11711 0.89394 0.6735 0.0
C651 C 0.13552 0.91657 0.70389 0.0
C652 C 0.16633 0.9248 0.68672 0.0
C653 C 0.17773 0.91148 0.63838 0.0
C654 C 0.08433 0.88432 0.69097 0.0
C655 C 0.18657 0.94906 0.71776 0.0
H656 H 0.08299 0.00372 0.77831 0.0
H657 H 0.12047 0.935 0.88873 0.0
H658 H 0.12107 0.98537 0.66956 0.0
H659 H 0.09161 0.95514 0.65632 0.0
H660 H 0.07997 0.99314 0.68403 0.0
H661 H 0.14876 0.8901 0.85928 0.0
H662 H 0.12919 0.8728 0.79989 0.0
H663 H 0.16676 0.89227 0.79387 0.0
H664 H 0.11434 0.8652 0.59992 0.0
H665 H 0.20074 0.91884 0.62395 0.0
H666 H 0.06786 0.90467 0.68651 0.0
H667 H 0.0848 0.87797 0.73435 0.0
H668 H 0.07469 0.86383 0.66651 0.0
H669 H 0.17501 0.9727 0.71612 0.0
H670 H 0.21082 0.95112 0.70113 0.0
H671 H 0.18871 0.94268 0.76103 0.0
C672 C 0.06018 0.10419 0.84625 0.0
C673 C 0.02728 0.10058 0.83852 0.0
C674 C 0.07998 0.11077 0.80297 0.0
C675 C 0.06632 0.11507 0.75087 0.0
C676 C 0.03298 0.1121 0.7428 0.0
C677 C 0.01386 0.10451 0.78667 0.0
C678 C 0.11545 0.11323 0.81328 0.0
C679 C 0.01754 0.11697 0.68788 0.0
C680 C 0.11418 0.1604 0.64894 0.0
C681 C 0.12486 0.13556 0.61552 0.0
C682 C 0.095 0.15411 0.69334 0.0
C683 C 0.08695 0.12222 0.70462 0.0
C684 C 0.09856 0.09705 0.67163 0.0
C685 C 0.11714 0.10408 0.62697 0.0
C686 C 0.08285 0.18152 0.72746 0.0
C687 C 0.0914 0.06273 0.6835 0.0
H688 H 0.07057 0.10162 0.88618 0.0
H689 H 0.98838 0.10202 0.78045 0.0
H690 H 0.12865 0.10047 0.78105 0.0
H691 H 0.12283 0.13858 0.81306 0.0
H692 H 0.12262 0.10333 0.85301 0.0
H693 H 0.99121 0.11495 0.68884 0.0
H694 H 0.02391 0.14081 0.67289 0.0
H695 H 0.02652 0.09909 0.65827 0.0
H696 H 0.12013 0.18473 0.63938 0.0
H697 H 0.12559 0.08502 0.60073 0.0
H698 H 0.09115 0.17917 0.77011 0.0
H699 H 0.05646 0.18108 0.72733 0.0
H700 H 0.09089 0.20493 0.7127 0.0
H701 H 0.10007 0.05717 0.72497 0.0
H702 H 0.10267 0.04608 0.65416 0.0
H703 H 0.06534 0.05852 0.68216 0.0
C704 C 0.86476 0.07695 0.85184 0.0
C705 C 0.87402 0.04513 0.84476 0.0
C706 C 0.8555 0.09518 0.80729 0.0
C707 C 0.856 0.08135 0.75447 0.0
C708 C 0.86605 0.04948 0.74706 0.0
C709 C 0.87488 0.03178 0.79228 0.0
C710 C 0.84509 0.12913 0.81687 0.0
C711 C 0.86691 0.03383 0.69139 0.0
C712 C 0.80253 0.11027 0.64087 0.0
C713 C 0.82422 0.12604 0.60829 0.0
C714 C 0.81232 0.09694 0.68993 0.0
C715 C 0.8446 0.09937 0.70683 0.0
C716 C 0.86632 0.11659 0.67554 0.0
C717 C 0.85588 0.12966 0.62648 0.0
C718 C 0.7884 0.07893 0.7224 0.0
C719 C 0.90084 0.12003 0.69272 0.0
H720 H 0.86421 0.0875 0.89229 0.0
H721 H 0.88242 0.00737 0.78645 0.0
H722 H 0.86374 0.1455 0.80258 0.0
H723 H 0.82289 0.13415 0.79367 0.0
H724 H 0.84104 0.13454 0.86043 0.0
H725 H 0.87629 0.00919 0.69248 0.0
H726 H 0.8426 0.03301 0.6731 0.0
H727 H 0.88198 0.04796 0.6644 0.0
H728 H 0.77813 0.10699 0.62679 0.0
H729 H 0.87265 0.14213 0.60169 0.0
H730 H 0.78901 0.08758 0.76521 0.0
H731 H 0.79462 0.05331 0.72228 0.0
H732 H 0.76378 0.08132 0.70592 0.0
H733 H 0.90282 0.12911 0.73521 0.0
H734 H 0.91405 0.13634 0.66636 0.0
H735 H 0.91247 0.0964 0.69116 0.0
C736 C 0.95874 0.88109 0.81766 0.0
C737 C 0.95237 0.9127 0.83273 0.0
C738 C 0.94236 0.8662 0.77421 0.0
C739 C 0.9193 0.8835 0.74478 0.0
C740 C 0.91098 0.9146 0.76241 0.0
C741 C 0.92765 0.92888 0.80645 0.0
C742 C 0.95152 0.83276 0.75734 0.0
C743 C 0.88639 0.93388 0.7325 0.0
C744 C 0.9199 0.86063 0.59642 0.0
C745 C 0.89375 0.83988 0.59125 0.0
C746 C 0.92719 0.87644 0.64551 0.0
C747 C 0.90829 0.87088 0.69109 0.0
C748 C 0.88124 0.85083 0.68601 0.0
C749 C 0.8742 0.83557 0.63595 0.0
C750 C 0.95607 0.89797 0.64915 0.0
C751 C 0.86046 0.84474 0.73383 0.0
H752 H 0.97738 0.86825 0.83869 0.0
H753 H 0.92247 0.95327 0.81828 0.0
H754 H 0.93002 0.8179 0.74928 0.0
H755 H 0.96504 0.83342 0.71923 0.0
H756 H 0.96654 0.82116 0.78863 0.0
H757 H 0.8746 0.95097 0.76044 0.0
H758 H 0.89833 0.94774 0.70095 0.0
H759 H 0.86791 0.91864 0.71226 0.0
H760 H 0.93554 0.86369 0.56255 0.0
H761 H 0.85368 0.81995 0.63201 0.0
H762 H 0.97448 0.88737 0.67595 0.0
H763 H 0.94967 0.92143 0.66721 0.0
H764 H 0.96662 0.90185 0.60891 0.0
H765 H 0.8741 0.83143 0.76479 0.0
H766 H 0.83879 0.8308 0.72212 0.0
H767 H 0.85317 0.8676 0.75308 0.0
C768 C 0.5267 0.58649 0.72725 0.0
C769 C 0.53246 0.59683 0.67491 0.0
C770 C 0.54648 0.59617 0.77104 0.0
C771 C 0.57187 0.61767 0.76237 0.0
C772 C 0.57737 0.62857 0.70951 0.0
C773 C 0.55797 0.61743 0.66612 0.0
C774 C 0.53935 0.58407 0.82664 0.0
C775 C 0.60316 0.6526 0.69905 0.0
C776 C 0.59839 0.66363 0.88935 0.0
C777 C 0.6257 0.64694 0.90481 0.0
C778 C 0.58157 0.65543 0.84139 0.0
C779 C 0.59195 0.62943 0.80897 0.0
C780 C 0.6203 0.61334 0.82336 0.0
C781 C 0.63704 0.62251 0.87103 0.0
C782 C 0.55198 0.67375 0.82666 0.0
C783 C 0.63177 0.58515 0.79038 0.0
H784 H 0.50685 0.57058 0.73385 0.0
H785 H 0.56193 0.62583 0.62561 0.0
H786 H 0.56137 0.58069 0.85128 0.0
H787 H 0.5244 0.6017 0.84827 0.0
H788 H 0.52605 0.56117 0.82407 0.0
H789 H 0.62677 0.6413 0.70412 0.0
H790 H 0.60121 0.66222 0.65759 0.0
H791 H 0.60213 0.67277 0.72874 0.0
H792 H 0.58967 0.68247 0.91577 0.0
H793 H 0.65793 0.60935 0.8836 0.0
H794 H 0.53072 0.65858 0.8323 0.0
H795 H 0.55223 0.68036 0.7834 0.0
H796 H 0.54952 0.69574 0.85202 0.0
H797 H 0.61371 0.56589 0.79077 0.0
H798 H 0.65469 0.57574 0.8062 0.0
H799 H 0.63473 0.59175 0.74754 0.0
C800 C 0.4193 0.55784 0.6987 0.0
C801 C 0.39916 0.53793 0.6674 0.0
C802 C 0.40778 0.57533 0.74309 0.0
C803 C 0.37541 0.57229 0.75669 0.0
C804 C 0.3548 0.55262 0.7244 0.0
C805 C 0.36702 0.53546 0.68024 0.0
C806 C 0.43063 0.59569 0.77689 0.0
C807 C 0.3201 0.54886 0.73756 0.0
C808 C 0.35033 0.58481 0.90199 0.0
C809 C 0.33602 0.61483 0.90015 0.0
C810 C 0.36413 0.57112 0.8559 0.0
C811 C 0.36343 0.58781 0.80675 0.0
C812 C 0.34987 0.61849 0.80495 0.0
C813 C 0.33634 0.63168 0.85177 0.0
C814 C 0.37846 0.53831 0.85934 0.0
C815 C 0.34894 0.63699 0.75325 0.0
H816 H 0.4444 0.55832 0.69039 0.0
H817 H 0.35156 0.51974 0.65614 0.0
H818 H 0.42004 0.61919 0.78663 0.0
H819 H 0.43581 0.58389 0.8158 0.0
H820 H 0.45346 0.59953 0.75606 0.0
H821 H 0.30689 0.53428 0.7064 0.0
H822 H 0.31789 0.53731 0.77728 0.0
H823 H 0.30866 0.57252 0.74103 0.0
H824 H 0.34972 0.57144 0.93898 0.0
H825 H 0.3256 0.65504 0.85037 0.0
H826 H 0.40319 0.53856 0.84456 0.0
H827 H 0.36466 0.52134 0.83291 0.0
H828 H 0.37873 0.52933 0.90132 0.0
H829 H 0.37326 0.63933 0.73715 0.0
H830 H 0.33883 0.66115 0.75925 0.0
H831 H 0.33435 0.62397 0.72196 0.0
C832 C 0.42745 0.42055 0.67097 0.0
C833 C 0.45951 0.42859 0.67954 0.0
C834 C 0.40927 0.40799 0.71248 0.0
C835 C 0.4236 0.40355 0.76403 0.0
C836 C 0.45554 0.4132 0.77388 0.0
C837 C 0.47317 0.42536 0.7314 0.0
C838 C 0.3753 0.39802 0.70027 0.0
C839 C 0.47163 0.40935 0.82856 0.0
C840 C 0.37671 0.38724 0.89 0.0
C841 C 0.38218 0.35458 0.8962 0.0
C842 C 0.38876 0.4034 0.84566 0.0
C843 C 0.40639 0.38639 0.80645 0.0
C844 C 0.41009 0.35309 0.8105 0.0
C845 C 0.39809 0.33761 0.85546 0.0
C846 C 0.38427 0.43894 0.84255 0.0
C847 C 0.42835 0.33406 0.76896 0.0
H848 H 0.41686 0.42281 0.63135 0.0
H849 H 0.49791 0.43182 0.73866 0.0
H850 H 0.35945 0.40626 0.73304 0.0
H851 H 0.36632 0.40744 0.66119 0.0
H852 H 0.37378 0.37168 0.69804 0.0
H853 H 0.49423 0.42302 0.83215 0.0
H854 H 0.45587 0.41732 0.86166 0.0
H855 H 0.47695 0.38383 0.83457 0.0
H856 H 0.36398 0.40041 0.92089 0.0
H857 H 0.40279 0.3125 0.8601 0.0
H858 H 0.37582 0.44547 0.80144 0.0
H859 H 0.40744 0.45113 0.85019 0.0
H860 H 0.36709 0.44804 0.87271 0.0
H861 H 0.41949 0.3392 0.72745 0.0
H862 H 0.42651 0.30804 0.77519 0.0
H863 H 0.45383 0.341 0.77139 0.0
C864 C 0.58258 0.45509 0.68721 0.0
C865 C 0.57704 0.48779 0.69209 0.0
C866 C 0.59298 0.43764 0.73179 0.0
C867 C 0.59786 0.45342 0.78253 0.0
C868 C 0.59011 0.48601 0.78862 0.0
C869 C 0.58005 0.50292 0.74311 0.0
C870 C 0.60105 0.40296 0.72321 0.0
C871 C 0.59427 0.50354 0.84236 0.0
C872 C 0.6155 0.40465 0.90727 0.0
C873 C 0.64874 0.40733 0.91149 0.0
C874 C 0.59845 0.41952 0.86548 0.0
C875 C 0.6151 0.43714 0.82689 0.0
C876 C 0.64862 0.43966 0.83064 0.0
C877 C 0.66496 0.42502 0.87312 0.0
C878 C 0.56268 0.41666 0.8628 0.0
C879 C 0.66727 0.45808 0.78998 0.0
H880 H 0.58056 0.44343 0.64795 0.0
H881 H 0.5752 0.52814 0.74721 0.0
H882 H 0.62702 0.40075 0.71709 0.0
H883 H 0.59494 0.38877 0.75888 0.0
H884 H 0.58847 0.39257 0.68693 0.0
H885 H 0.58034 0.52586 0.84357 0.0
H886 H 0.58689 0.48855 0.87634 0.0
H887 H 0.61974 0.50975 0.84898 0.0
H888 H 0.60282 0.39088 0.93656 0.0
H889 H 0.69052 0.42797 0.87678 0.0
H890 H 0.55493 0.40585 0.82324 0.0
H891 H 0.55192 0.44067 0.86563 0.0
H892 H 0.55325 0.402 0.89579 0.0
H893 H 0.66186 0.44879 0.74835 0.0
H894 H 0.69335 0.45669 0.79751 0.0
H895 H 0.6602 0.48346 0.79155 0.0
C896 C 0.60465 0.48156 0.29275 0.0
C897 C 0.60714 0.46983 0.34536 0.0
C898 C 0.61476 0.46351 0.24807 0.0
C899 C 0.62745 0.43281 0.25609 0.0
C900 C 0.62911 0.42035 0.30886 0.0
C901 C 0.61888 0.43905 0.35299 0.0
C902 C 0.61283 0.4778 0.19247 0.0
C903 C 0.64197 0.38749 0.3188 0.0
C904 C 0.63241 0.38483 0.12496 0.0
C905 C 0.66367 0.39143 0.10987 0.0
C906 C 0.6208 0.39621 0.17462 0.0
C907 C 0.64085 0.41502 0.20931 0.0
C908 C 0.67297 0.42012 0.19564 0.0
C909 C 0.68403 0.40814 0.14613 0.0
C910 C 0.58662 0.38971 0.18846 0.0
C911 C 0.69505 0.44017 0.2315 0.0
H912 H 0.59537 0.50523 0.28643 0.0
H913 H 0.62062 0.42973 0.3935 0.0
H914 H 0.63704 0.47993 0.17584 0.0
H915 H 0.59878 0.46206 0.1643 0.0
H916 H 0.60176 0.50174 0.19314 0.0
H917 H 0.64508 0.38281 0.36268 0.0
H918 H 0.62533 0.36947 0.30071 0.0
H919 H 0.6652 0.3842 0.29901 0.0
H920 H 0.61675 0.37166 0.09706 0.0
H921 H 0.70811 0.41357 0.13434 0.0
H922 H 0.5726 0.41186 0.18473 0.0
H923 H 0.58496 0.38202 0.23101 0.0
H924 H 0.57562 0.37114 0.16127 0.0
H925 H 0.68693 0.46525 0.23175 0.0
H926 H 0.71998 0.43947 0.21752 0.0
H927 H 0.69457 0.43197 0.27386 0.0
C928 C 0.55112 0.58155 0.32067 0.0
C929 C 0.51879 0.58919 0.32329 0.0
C930 C 0.56947 0.59068 0.2769 0.0
C931 C 0.55525 0.60848 0.23504 0.0
C932 C 0.52261 0.61644 0.23735 0.0
C933 C 0.5047 0.60655 0.28138 0.0
C934 C 0.60405 0.58119 0.27545 0.0
C935 C 0.5067 0.63559 0.19357 0.0
C936 C 0.61135 0.65641 0.14959 0.0
C937 C 0.61327 0.63705 0.10289 0.0
C938 C 0.59201 0.6477 0.19258 0.0
C939 C 0.5747 0.61872 0.18893 0.0
C940 C 0.57682 0.59896 0.14198 0.0
C941 C 0.59593 0.60849 0.09936 0.0
C942 C 0.59014 0.66945 0.24192 0.0
C943 C 0.55919 0.56762 0.13702 0.0
H944 H 0.56225 0.56865 0.35321 0.0
H945 H 0.47972 0.61263 0.28313 0.0
H946 H 0.6083 0.56614 0.23881 0.0
H947 H 0.61936 0.60262 0.27286 0.0
H948 H 0.61158 0.56777 0.31174 0.0
H949 H 0.48117 0.63994 0.20157 0.0
H950 H 0.51898 0.65885 0.19022 0.0
H951 H 0.50856 0.62298 0.15381 0.0
H952 H 0.62463 0.67857 0.1521 0.0
H953 H 0.59772 0.59333 0.06342 0.0
H954 H 0.59908 0.65697 0.27825 0.0
H955 H 0.56501 0.67589 0.24929 0.0
H956 H 0.6042 0.69164 0.23762 0.0
H957 H 0.56638 0.55207 0.1708 0.0
H958 H 0.56373 0.55486 0.09806 0.0
H959 H 0.53324 0.57164 0.14015 0.0
C960 C 0.3828 0.52974 0.27695 0.0
C961 C 0.38314 0.54232 0.33004 0.0
C962 C 0.37279 0.54811 0.23323 0.0
C963 C 0.36265 0.57977 0.24285 0.0
C964 C 0.36355 0.59287 0.29618 0.0
C965 C 0.37405 0.57403 0.33916 0.0
C966 C 0.37218 0.53329 0.17687 0.0
C967 C 0.35316 0.6266 0.30803 0.0
C968 C 0.35727 0.62896 0.11625 0.0
C969 C 0.32524 0.62448 0.1008 0.0
C970 C 0.36954 0.61606 0.16424 0.0
C971 C 0.34929 0.59817 0.19717 0.0
C972 C 0.31657 0.59522 0.18341 0.0
C973 C 0.30494 0.60841 0.13538 0.0
C974 C 0.40446 0.62013 0.17818 0.0
C975 C 0.29417 0.57656 0.21785 0.0
H976 H 0.39004 0.50534 0.26951 0.0
H977 H 0.37449 0.58401 0.38005 0.0
H978 H 0.34727 0.53149 0.16142 0.0
H979 H 0.38539 0.54847 0.14876 0.0
H980 H 0.38276 0.50914 0.17587 0.0
H981 H 0.35028 0.63133 0.35209 0.0
H982 H 0.37123 0.64335 0.29297 0.0
H983 H 0.33031 0.63177 0.28687 0.0
H984 H 0.37294 0.64171 0.08991 0.0
H985 H 0.28026 0.60454 0.12342 0.0
H986 H 0.41661 0.59685 0.174 0.0
H987 H 0.40773 0.62841 0.22092 0.0
H988 H 0.41625 0.63732 0.15149 0.0
H989 H 0.3007 0.55103 0.21626 0.0
H990 H 0.26899 0.57879 0.20407 0.0
H991 H 0.29623 0.58479 0.26081 0.0
C992 C 0.43495 0.41268 0.33587 0.0
C993 C 0.46526 0.42631 0.33177 0.0
C994 C 0.41848 0.40069 0.28986 0.0
C995 C 0.43278 0.40231 0.23862 0.0
C996 C 0.46279 0.41725 0.23386 0.0
C997 C 0.47868 0.42913 0.28056 0.0
C998 C 0.38649 0.38495 0.2965 0.0
C999 C 0.47879 0.4194 0.17982 0.0
C1000 C 0.41217 0.33866 0.13275 0.0
C1001 C 0.3917 0.35495 0.09764 0.0
C1002 C 0.42526 0.35372 0.17923 0.0
C1003 C 0.41774 0.3859 0.19081 0.0
C1004 C 0.39665 0.40237 0.15613 0.0
C1005 C 0.3839 0.38668 0.10977 0.0
C1006 C 0.44775 0.33539 0.21525 0.0
C1007 C 0.38806 0.43667 0.16749 0.0
H1008 H 0.42447 0.41038 0.37528 0.0
H1009 H 0.50204 0.43978 0.27705 0.0
H1010 H 0.36883 0.39457 0.26727 0.0
H1011 H 0.38846 0.35905 0.28767 0.0
H1012 H 0.37738 0.38834 0.33815 0.0
H1013 H 0.50093 0.43393 0.18243 0.0
H1014 H 0.4849 0.39518 0.16473 0.0
H1015 H 0.46239 0.42991 0.14944 0.0
H1016 H 0.41875 0.31432 0.12302 0.0
H1017 H 0.36793 0.39926 0.08281 0.0
H1018 H 0.43915 0.33574 0.25745 0.0
H1019 H 0.47157 0.34685 0.21604 0.0
H1020 H 0.45033 0.31023 0.20138 0.0
H1021 H 0.37833 0.43941 0.20878 0.0
H1022 H 0.3703 0.44568 0.13774 0.0
H1023 H 0.40971 0.45178 0.16628 0.0
loop_
_geom_bond_atom_site_label_1
_geom_bond_atom_site_label_2
_geom_bond_distance
_geom_bond_site_symmetry_2
_ccdc_geom_bond_type
Zn0 O2 1.933 1_556 S
Zn0 O20 1.985 . S
Zn0 O31 1.955 . S
Zn1 O2 1.911 . S
Zn1 O21 1.970 . S
Zn1 O37 1.945 . S
Zn1 O44 1.981 . S
O2 Zn0 1.933 1_554 S
O2 Zn1 1.911 . S
O2 H3 0.841 1_655 S
H3 O2 0.841 1_455 S
C4 O5 1.246 . S
C4 O33 1.276 1_545 S
O5 C4 1.246 . S
Zn6 O8 1.911 . S
Zn6 O23 1.970 . S
Zn6 O40 1.945 . S
Zn6 O47 1.981 . S
Zn7 O8 1.933 1_556 S
Zn7 O22 1.985 . S
Zn7 O29 1.955 . S
O8 Zn6 1.911 . S
O8 Zn7 1.933 1_554 S
O8 H9 0.841 1_455 S
H9 O8 0.841 1_655 S
Zn10 O11 1.933 1_556 S
Zn10 O24 1.985 . S
Zn10 O33 1.955 . S
O11 Zn10 1.933 1_554 S
O11 Zn12 1.911 . S
O11 H13 0.841 1_565 S
Zn12 O11 1.911 . S
Zn12 O25 1.970 . S
Zn12 O41 1.981 . S
Zn12 O43 1.945 . S
H13 O11 0.841 1_545 S
Zn14 O15 1.933 1_556 S
Zn14 O27 1.985 . S
Zn14 O35 1.955 . S
O15 Zn14 1.933 1_554 S
O15 H16 0.841 1_545 S
O15 Zn17 1.911 . S
H16 O15 0.841 1_565 S
Zn17 O15 1.911 . S
Zn17 O28 1.970 . S
Zn17 O38 1.981 . S
Zn17 O46 1.945 . S
C18 O19 1.246 . S
C18 O35 1.276 1_565 S
O19 C18 1.246 . S
O20 Zn0 1.985 . S
O20 C30 1.245 1_556 S
O21 Zn1 1.970 . S
O21 C30 1.263 . S
O22 Zn7 1.985 . S
O22 C34 1.245 1_556 S
O23 Zn6 1.970 . S
O23 C34 1.263 . S
O24 Zn10 1.985 . S
O24 C39 1.245 1_556 S
O25 Zn12 1.970 . S
O25 C39 1.263 . S
C26 O37 1.262 1_455 S
C26 O38 1.245 . S
O27 Zn14 1.985 . S
O27 C45 1.245 1_556 S
O28 Zn17 1.970 . S
O28 C45 1.263 . S
O29 Zn7 1.955 . S
O29 C48 1.276 1_455 S
C30 O20 1.245 1_554 S
C30 O21 1.263 . S
O31 Zn0 1.955 . S
O31 C50 1.276 1_655 S
C32 O40 1.262 1_655 S
C32 O41 1.245 . S
O33 C4 1.276 1_565 S
O33 Zn10 1.955 . S
C34 O22 1.245 1_554 S
C34 O23 1.263 . S
O35 Zn14 1.955 . S
O35 C18 1.276 1_545 S
C36 O43 1.262 1_545 S
C36 O44 1.245 . S
O37 Zn1 1.945 . S
O37 C26 1.262 1_655 S
O38 Zn17 1.981 . S
O38 C26 1.245 . S
C39 O24 1.245 1_554 S
C39 O25 1.263 . S
O40 Zn6 1.945 . S
O40 C32 1.262 1_455 S
O41 Zn12 1.981 . S
O41 C32 1.245 . S
C42 O46 1.262 1_565 S
C42 O47 1.245 . S
O43 Zn12 1.945 . S
O43 C36 1.262 1_565 S
O44 Zn1 1.981 . S
O44 C36 1.245 . S
C45 O27 1.245 1_554 S
C45 O28 1.263 . S
O46 Zn17 1.945 . S
O46 C42 1.262 1_545 S
O47 Zn6 1.981 . S
O47 C42 1.245 . S
C48 O29 1.276 1_655 S
C48 O49 1.246 . S
O49 C48 1.246 . S
C50 O31 1.276 1_455 S
C50 O51 1.246 . S
O51 C50 1.246 . S
Zn52 O54 1.933 . S
Zn52 O72 1.985 . S
Zn52 O83 1.955 . S
Zn53 O54 1.911 . S
Zn53 O73 1.970 . S
Zn53 O89 1.945 . S
Zn53 O96 1.981 . S
O54 Zn52 1.933 . S
O54 Zn53 1.911 . S
O54 H55 0.841 . S
H55 O54 0.841 . S
C56 O57 1.246 . S
C56 O85 1.276 . S
O57 C56 1.246 . S
Zn58 O60 1.911 . S
Zn58 O75 1.970 . S
Zn58 O92 1.945 . S
Zn58 O99 1.981 . S
Zn59 O60 1.933 . S
Zn59 O74 1.985 . S
Zn59 O81 1.955 . S
O60 Zn58 1.911 . S
O60 Zn59 1.933 . S
O60 H61 0.841 . S
H61 O60 0.841 . S
Zn62 O63 1.933 . S
Zn62 O76 1.985 . S
Zn62 O85 1.955 . S
O63 Zn62 1.933 . S
O63 Zn64 1.911 . S
O63 H65 0.841 . S
Zn64 O63 1.911 . S
Zn64 O77 1.970 . S
Zn64 O93 1.981 . S
Zn64 O95 1.945 . S
H65 O63 0.841 . S
Zn66 O67 1.933 . S
Zn66 O79 1.985 . S
Zn66 O87 1.955 . S
O67 Zn66 1.933 . S
O67 H68 0.841 . S
O67 Zn69 1.911 . S
H68 O67 0.841 . S
Zn69 O67 1.911 . S
Zn69 O80 1.970 . S
Zn69 O90 1.981 . S
Zn69 O98 1.945 . S
C70 O71 1.246 . S
C70 O87 1.276 . S
O71 C70 1.246 . S
O72 Zn52 1.985 . S
O72 C82 1.245 . S
O73 Zn53 1.970 . S
O73 C82 1.263 . S
O74 Zn59 1.985 . S
O74 C86 1.245 . S
O75 Zn58 1.970 . S
O75 C86 1.263 . S
O76 Zn62 1.985 . S
O76 C91 1.245 . S
O77 Zn64 1.970 . S
O77 C91 1.263 . S
C78 O89 1.262 . S
C78 O90 1.245 . S
O79 Zn66 1.985 . S
O79 C97 1.245 . S
O80 Zn69 1.970 . S
O80 C97 1.263 . S
O81 Zn59 1.955 . S
O81 C100 1.276 . S
C82 O72 1.245 . S
C82 O73 1.263 . S
O83 Zn52 1.955 . S
O83 C102 1.276 . S
C84 O92 1.262 . S
C84 O93 1.245 . S
O85 C56 1.276 . S
O85 Zn62 1.955 . S
C86 O74 1.245 . S
C86 O75 1.263 . S
O87 Zn66 1.955 . S
O87 C70 1.276 . S
C88 O95 1.262 . S
C88 O96 1.245 . S
O89 Zn53 1.945 . S
O89 C78 1.262 . S
O90 Zn69 1.981 . S
O90 C78 1.245 . S
C91 O76 1.245 . S
C91 O77 1.263 . S
O92 Zn58 1.945 . S
O92 C84 1.262 . S
O93 Zn64 1.981 . S
O93 C84 1.245 . S
C94 O98 1.262 . S
C94 O99 1.245 . S
O95 Zn64 1.945 . S
O95 C88 1.262 . S
O96 Zn53 1.981 . S
O96 C88 1.245 . S
C97 O79 1.245 . S
C97 O80 1.263 . S
O98 Zn69 1.945 . S
O98 C94 1.262 . S
O99 Zn58 1.981 . S
O99 C94 1.245 . S
C100 O81 1.276 . S
C100 O101 1.246 . S
O101 C100 1.246 . S
C102 O83 1.276 . S
C102 O103 1.246 . S
O103 C102 1.246 . S
H104 C105 0.949 . S
C105 H104 0.949 . S
C105 C106 1.395 . S
C105 C107 1.391 1_554 S
C106 C105 1.395 . S
C106 C109 1.390 . S
C107 C105 1.391 1_556 S
C107 C111 1.387 . S
C107 C112 1.491 . S
H108 C109 0.950 . S
C109 C106 1.390 . S
C109 H108 0.950 . S
C109 C110 1.378 1_554 S
C110 C109 1.378 1_556 S
C110 C111 1.409 . S
C111 C107 1.387 . S
C111 C110 1.409 . S
C111 H113 0.951 . S
C112 C107 1.491 . S
C112 C114 1.382 1_556 S
C112 C116 1.404 . S
H113 C111 0.951 . S
C114 C112 1.382 1_554 S
C114 C115 1.390 . S
C114 H119 0.949 . S
C115 C114 1.390 . S
C115 C120 1.399 1_554 S
C116 C112 1.404 . S
C116 H117 0.950 . S
C116 C118 1.375 . S
H117 C116 0.950 . S
C118 C116 1.375 . S
C118 C120 1.382 . S
C118 H122 0.950 . S
H119 C114 0.949 . S
C120 C115 1.399 1_556 S
C120 C118 1.382 . S
C120 H121 0.952 . S
H121 C120 0.952 . S
H122 C118 0.950 . S
H123 C124 0.949 . S
C124 H123 0.949 . S
C124 C125 1.395 . S
C124 C126 1.391 1_554 S
C125 C124 1.395 . S
C125 C128 1.390 . S
C126 C124 1.391 1_556 S
C126 C130 1.387 . S
C126 C131 1.491 . S
H127 C128 0.950 . S
C128 C125 1.390 . S
C128 H127 0.950 . S
C128 C129 1.378 1_554 S
C129 C128 1.378 1_556 S
C129 C130 1.409 . S
C130 C126 1.387 . S
C130 C129 1.409 . S
C130 H132 0.951 . S
C131 C126 1.491 . S
C131 C133 1.382 1_556 S
C131 C135 1.404 . S
H132 C130 0.951 . S
C133 C131 1.382 1_554 S
C133 C134 1.390 . S
C133 H138 0.949 . S
C134 C133 1.390 . S
C134 C139 1.399 1_554 S
C135 C131 1.404 . S
C135 H136 0.950 . S
C135 C137 1.375 . S
H136 C135 0.950 . S
C137 C135 1.375 . S
C137 C139 1.382 . S
C137 H141 0.950 . S
H138 C133 0.949 . S
C139 C134 1.399 1_556 S
C139 C137 1.382 . S
C139 H140 0.952 . S
H140 C139 0.952 . S
H141 C137 0.950 . S
H142 C143 0.949 . S
C143 H142 0.949 . S
C143 C144 1.395 . S
C143 C145 1.391 1_556 S
C144 C143 1.395 . S
C144 C147 1.390 1_556 S
C145 C143 1.391 1_554 S
C145 C149 1.387 . S
C145 C150 1.491 . S
H146 C147 0.950 . S
C147 C144 1.390 1_554 S
C147 H146 0.950 . S
C147 C148 1.378 . S
C148 C147 1.378 . S
C148 C149 1.409 . S
C149 C145 1.387 . S
C149 C148 1.409 . S
C149 H151 0.951 . S
C150 C145 1.491 . S
C150 C152 1.382 . S
C150 C154 1.404 . S
H151 C149 0.951 . S
C152 C150 1.382 . S
C152 C153 1.390 . S
C152 H157 0.949 1_554 S
C153 C152 1.390 . S
C153 C158 1.399 . S
C154 C150 1.404 . S
C154 H155 0.950 . S
C154 C156 1.375 . S
H155 C154 0.950 . S
C156 C154 1.375 . S
C156 C158 1.382 . S
C156 H160 0.950 . S
H157 C152 0.949 1_556 S
C158 C153 1.399 . S
C158 C156 1.382 . S
C158 H159 0.952 . S
H159 C158 0.952 . S
H160 C156 0.950 . S
H161 C162 0.949 . S
C162 H161 0.949 . S
C162 C163 1.395 . S
C162 C164 1.391 1_554 S
C163 C162 1.395 . S
C163 C166 1.390 . S
C164 C162 1.391 1_556 S
C164 C168 1.387 . S
C164 C169 1.491 . S
H165 C166 0.950 . S
C166 C163 1.390 . S
C166 H165 0.950 . S
C166 C167 1.378 1_554 S
C167 C166 1.378 1_556 S
C167 C168 1.409 . S
C168 C164 1.387 . S
C168 C167 1.409 . S
C168 H170 0.951 . S
C169 C164 1.491 . S
C169 C171 1.382 1_556 S
C169 C173 1.404 . S
H170 C168 0.951 . S
C171 C169 1.382 1_554 S
C171 C172 1.390 . S
C171 H176 0.949 . S
C172 C171 1.390 . S
C172 C177 1.399 1_554 S
C173 C169 1.404 . S
C173 H174 0.950 . S
C173 C175 1.375 . S
H174 C173 0.950 . S
C175 C173 1.375 . S
C175 C177 1.382 . S
C175 H179 0.950 . S
H176 C171 0.949 . S
C177 C172 1.399 1_556 S
C177 C175 1.382 . S
C177 H178 0.952 . S
H178 C177 0.952 . S
H179 C175 0.950 . S
H180 C181 0.949 . S
C181 H180 0.949 . S
C181 C182 1.395 . S
C181 C183 1.391 . S
C182 C181 1.395 . S
C182 C185 1.390 . S
C183 C181 1.391 . S
C183 C187 1.387 . S
C183 C188 1.491 . S
H184 C185 0.950 . S
C185 C182 1.390 . S
C185 H184 0.950 . S
C185 C186 1.378 . S
C186 C185 1.378 . S
C186 C187 1.409 . S
C187 C183 1.387 . S
C187 C186 1.409 . S
C187 H189 0.951 . S
C188 C183 1.491 . S
C188 C190 1.382 . S
C188 C192 1.404 . S
H189 C187 0.951 . S
C190 C188 1.382 . S
C190 C191 1.390 . S
C190 H195 0.949 . S
C191 C190 1.390 . S
C191 C196 1.399 . S
C192 C188 1.404 . S
C192 H193 0.950 . S
C192 C194 1.375 . S
H193 C192 0.950 . S
C194 C192 1.375 . S
C194 C196 1.382 . S
C194 H198 0.950 . S
H195 C190 0.949 . S
C196 C191 1.399 . S
C196 C194 1.382 . S
C196 H197 0.952 . S
H197 C196 0.952 . S
H198 C194 0.950 . S
H199 C200 0.949 . S
C200 H199 0.949 . S
C200 C201 1.395 . S
C200 C202 1.391 . S
C201 C200 1.395 . S
C201 C204 1.390 . S
C202 C200 1.391 . S
C202 C206 1.387 . S
C202 C207 1.491 . S
H203 C204 0.950 . S
C204 C201 1.390 . S
C204 H203 0.950 . S
C204 C205 1.378 . S
C205 C204 1.378 . S
C205 C206 1.409 . S
C206 C202 1.387 . S
C206 C205 1.409 . S
C206 H208 0.951 . S
C207 C202 1.491 . S
C207 C209 1.382 . S
C207 C211 1.404 . S
H208 C206 0.951 . S
C209 C207 1.382 . S
C209 C210 1.390 . S
C209 H214 0.949 . S
C210 C209 1.390 . S
C210 C215 1.399 . S
C211 C207 1.404 . S
C211 H212 0.950 . S
C211 C213 1.375 . S
H212 C211 0.950 . S
C213 C211 1.375 . S
C213 C215 1.382 . S
C213 H217 0.950 . S
H214 C209 0.949 . S
C215 C210 1.399 . S
C215 C213 1.382 . S
C215 H216 0.952 . S
H216 C215 0.952 . S
H217 C213 0.950 . S
H218 C219 0.949 . S
C219 H218 0.949 . S
C219 C220 1.395 . S
C219 C221 1.391 . S
C220 C219 1.395 . S
C220 C223 1.390 . S
C221 C219 1.391 . S
C221 C225 1.387 . S
C221 C226 1.491 . S
H222 C223 0.950 . S
C223 C220 1.390 . S
C223 H222 0.950 . S
C223 C224 1.378 . S
C224 C223 1.378 . S
C224 C225 1.409 . S
C225 C221 1.387 . S
C225 C224 1.409 . S
C225 H227 0.951 . S
C226 C221 1.491 . S
C226 C228 1.382 . S
C226 C230 1.404 . S
H227 C225 0.951 . S
C228 C226 1.382 . S
C228 C229 1.390 . S
C228 H233 0.949 . S
C229 C228 1.390 . S
C229 C234 1.399 . S
C230 C226 1.404 . S
C230 H231 0.950 . S
C230 C232 1.375 . S
H231 C230 0.950 . S
C232 C230 1.375 . S
C232 C234 1.382 . S
C232 H236 0.950 . S
H233 C228 0.949 . S
C234 C229 1.399 . S
C234 C232 1.382 . S
C234 H235 0.952 . S
H235 C234 0.952 . S
H236 C232 0.950 . S
H237 C238 0.949 . S
C238 H237 0.949 . S
C238 C239 1.395 . S
C238 C240 1.391 . S
C239 C238 1.395 . S
C239 C242 1.390 . S
C240 C238 1.391 . S
C240 C244 1.387 . S
C240 C245 1.491 . S
H241 C242 0.950 . S
C242 C239 1.390 . S
C242 H241 0.950 . S
C242 C243 1.378 . S
C243 C242 1.378 . S
C243 C244 1.409 . S
C244 C240 1.387 . S
C244 C243 1.409 . S
C244 H246 0.951 . S
C245 C240 1.491 . S
C245 C247 1.382 . S
C245 C249 1.404 . S
H246 C244 0.951 . S
C247 C245 1.382 . S
C247 C248 1.390 . S
C247 H252 0.949 . S
C248 C247 1.390 . S
C248 C253 1.399 . S
C249 C245 1.404 . S
C249 H250 0.950 . S
C249 C251 1.375 . S
H250 C249 0.950 . S
C251 C249 1.375 . S
C251 C253 1.382 . S
C251 H255 0.950 . S
H252 C247 0.949 . S
C253 C248 1.399 . S
C253 C251 1.382 . S
C253 H254 0.952 . S
H254 C253 0.952 . S
H255 C251 0.950 . S
C256 C257 1.391 . S
C256 C258 1.394 . S
C256 H272 0.931 . S
C257 C256 1.391 . S
C257 C261 1.376 1_554 S
C258 C256 1.394 . S
C258 C259 1.369 . S
C258 C262 1.531 . S
C259 C258 1.369 . S
C259 C260 1.410 1_554 S
C259 C267 1.503 . S
C260 C259 1.410 1_556 S
C260 C261 1.392 . S
C260 C263 1.511 . S
C261 C257 1.376 1_556 S
C261 C260 1.392 . S
C261 H273 0.929 . S
C262 C258 1.531 . S
C262 H274 0.960 . S
C262 H275 0.962 . S
C262 H276 0.960 . S
C263 C260 1.511 . S
C263 H277 0.961 . S
C263 H278 0.961 . S
C263 H279 0.961 . S
C264 C265 1.370 . S
C264 C266 1.363 . S
C264 H280 0.931 . S
C265 C264 1.370 . S
C265 C269 1.408 1_554 S
C266 C264 1.363 . S
C266 C267 1.370 . S
C266 C270 1.524 . S
C267 C259 1.503 . S
C267 C266 1.370 . S
C267 C268 1.403 1_554 S
C268 C267 1.403 1_556 S
C268 C269 1.404 . S
C268 C271 1.539 . S
C269 C265 1.408 1_556 S
C269 C268 1.404 . S
C269 H281 0.930 . S
C270 C266 1.524 . S
C270 H282 0.956 . S
C270 H283 0.961 . S
C270 H284 0.961 . S
C271 C268 1.539 . S
C271 H285 0.958 . S
C271 H286 0.961 . S
C271 H287 0.960 . S
H272 C256 0.931 . S
H273 C261 0.929 . S
H274 C262 0.960 . S
H275 C262 0.962 . S
H276 C262 0.960 . S
H277 C263 0.961 . S
H278 C263 0.961 . S
H279 C263 0.961 . S
H280 C264 0.931 . S
H281 C269 0.930 . S
H282 C270 0.956 . S
H283 C270 0.961 . S
H284 C270 0.961 . S
H285 C271 0.958 . S
H286 C271 0.961 . S
H287 C271 0.960 . S
C288 C289 1.391 . S
C288 C290 1.394 . S
C288 H304 0.931 . S
C289 C288 1.391 . S
C289 C293 1.376 1_554 S
C290 C288 1.394 . S
C290 C291 1.369 . S
C290 C294 1.531 . S
C291 C290 1.369 . S
C291 C292 1.410 1_554 S
C291 C299 1.503 . S
C292 C291 1.410 1_556 S
C292 C293 1.392 . S
C292 C295 1.511 . S
C293 C289 1.376 1_556 S
C293 C292 1.392 . S
C293 H305 0.929 . S
C294 C290 1.531 . S
C294 H306 0.960 . S
C294 H307 0.962 . S
C294 H308 0.960 . S
C295 C292 1.511 . S
C295 H309 0.961 . S
C295 H310 0.961 . S
C295 H311 0.961 . S
C296 C297 1.370 1_556 S
C296 C298 1.363 . S
C296 H312 0.931 . S
C297 C296 1.370 1_554 S
C297 C301 1.408 . S
C298 C296 1.363 . S
C298 C299 1.370 1_556 S
C298 C302 1.524 . S
C299 C291 1.503 . S
C299 C298 1.370 1_554 S
C299 C300 1.403 . S
C300 C299 1.403 . S
C300 C301 1.404 . S
C300 C303 1.539 . S
C301 C297 1.408 . S
C301 C300 1.404 . S
C301 H313 0.930 . S
C302 C298 1.524 . S
C302 H314 0.956 . S
C302 H315 0.961 . S
C302 H316 0.961 . S
C303 C300 1.539 . S
C303 H317 0.958 . S
C303 H318 0.961 . S
C303 H319 0.960 . S
H304 C288 0.931 . S
H305 C293 0.929 . S
H306 C294 0.960 . S
H307 C294 0.962 . S
H308 C294 0.960 . S
H309 C295 0.961 . S
H310 C295 0.961 . S
H311 C295 0.961 . S
H312 C296 0.931 . S
H313 C301 0.930 . S
H314 C302 0.956 . S
H315 C302 0.961 . S
H316 C302 0.961 . S
H317 C303 0.958 . S
H318 C303 0.961 . S
H319 C303 0.960 . S
C320 C321 1.391 1_556 S
C320 C322 1.394 . S
C320 H336 0.931 . S
C321 C320 1.391 1_554 S
C321 C325 1.376 . S
C322 C320 1.394 . S
C322 C323 1.369 . S
C322 C326 1.531 . S
C323 C322 1.369 . S
C323 C324 1.410 1_556 S
C323 C331 1.503 . S
C324 C323 1.410 1_554 S
C324 C325 1.392 . S
C324 C327 1.511 . S
C325 C321 1.376 . S
C325 C324 1.392 . S
C325 H337 0.929 . S
C326 C322 1.531 . S
C326 H338 0.960 . S
C326 H339 0.962 1_556 S
C326 H340 0.960 . S
C327 C324 1.511 . S
C327 H341 0.961 . S
C327 H342 0.961 . S
C327 H343 0.961 1_554 S
C328 C329 1.370 1_554 S
C328 C330 1.363 . S
C328 H344 0.931 . S
C329 C328 1.370 1_556 S
C329 C333 1.408 . S
C330 C328 1.363 . S
C330 C331 1.370 1_554 S
C330 C334 1.524 . S
C331 C323 1.503 . S
C331 C330 1.370 1_556 S
C331 C332 1.403 . S
C332 C331 1.403 . S
C332 C333 1.404 . S
C332 C335 1.539 . S
C333 C329 1.408 . S
C333 C332 1.404 . S
C333 H345 0.930 . S
C334 C330 1.524 . S
C334 H346 0.956 . S
C334 H347 0.961 . S
C334 H348 0.961 . S
C335 C332 1.539 . S
C335 H349 0.958 . S
C335 H350 0.961 . S
C335 H351 0.960 . S
H336 C320 0.931 . S
H337 C325 0.929 . S
H338 C326 0.960 . S
H339 C326 0.962 1_554 S
H340 C326 0.960 . S
H341 C327 0.961 . S
H342 C327 0.961 . S
H343 C327 0.961 1_556 S
H344 C328 0.931 . S
H345 C333 0.930 . S
H346 C334 0.956 . S
H347 C334 0.961 . S
H348 C334 0.961 . S
H349 C335 0.958 . S
H350 C335 0.961 . S
H351 C335 0.960 . S
C352 C353 1.391 . S
C352 C354 1.394 . S
C352 H368 0.931 . S
C353 C352 1.391 . S
C353 C357 1.376 1_554 S
C354 C352 1.394 . S
C354 C355 1.369 . S
C354 C358 1.531 . S
C355 C354 1.369 . S
C355 C356 1.410 1_554 S
C355 C363 1.503 . S
C356 C355 1.410 1_556 S
C356 C357 1.392 . S
C356 C359 1.511 . S
C357 C353 1.376 1_556 S
C357 C356 1.392 . S
C357 H369 0.929 . S
C358 C354 1.531 . S
C358 H370 0.960 . S
C358 H371 0.962 . S
C358 H372 0.960 . S
C359 C356 1.511 . S
C359 H373 0.961 . S
C359 H374 0.961 . S
C359 H375 0.961 . S
C360 C361 1.370 . S
C360 C362 1.363 . S
C360 H376 0.931 1_554 S
C361 C360 1.370 . S
C361 C365 1.408 . S
C362 C360 1.363 . S
C362 C363 1.370 . S
C362 C366 1.524 1_554 S
C363 C355 1.503 . S
C363 C362 1.370 . S
C363 C364 1.403 . S
C364 C363 1.403 . S
C364 C365 1.404 . S
C364 C367 1.539 . S
C365 C361 1.408 . S
C365 C364 1.404 . S
C365 H377 0.930 . S
C366 C362 1.524 1_556 S
C366 H378 0.956 1_556 S
C366 H379 0.961 . S
C366 H380 0.961 . S
C367 C364 1.539 . S
C367 H381 0.958 . S
C367 H382 0.961 . S
C367 H383 0.960 . S
H368 C352 0.931 . S
H369 C357 0.929 . S
H370 C358 0.960 . S
H371 C358 0.962 . S
H372 C358 0.960 . S
H373 C359 0.961 . S
H374 C359 0.961 . S
H375 C359 0.961 . S
H376 C360 0.931 1_556 S
H377 C365 0.930 . S
H378 C366 0.956 1_554 S
H379 C366 0.961 . S
H380 C366 0.961 . S
H381 C367 0.958 . S
H382 C367 0.961 . S
H383 C367 0.960 . S
C384 C385 1.391 . S
C384 C386 1.394 . S
C384 H400 0.931 . S
C385 C384 1.391 . S
C385 C389 1.376 . S
C386 C384 1.394 . S
C386 C387 1.369 . S
C386 C390 1.531 . S
C387 C386 1.369 . S
C387 C388 1.410 . S
C387 C395 1.503 . S
C388 C387 1.410 . S
C388 C389 1.392 . S
C388 C391 1.511 . S
C389 C385 1.376 . S
C389 C388 1.392 . S
C389 H401 0.929 . S
C390 C386 1.531 . S
C390 H402 0.960 . S
C390 H403 0.962 . S
C390 H404 0.960 . S
C391 C388 1.511 . S
C391 H405 0.961 . S
C391 H406 0.961 . S
C391 H407 0.961 . S
C392 C393 1.370 . S
C392 C394 1.363 . S
C392 H408 0.931 . S
C393 C392 1.370 . S
C393 C397 1.408 . S
C394 C392 1.363 . S
C394 C395 1.370 . S
C394 C398 1.524 . S
C395 C387 1.503 . S
C395 C394 1.370 . S
C395 C396 1.403 . S
C396 C395 1.403 . S
C396 C397 1.404 . S
C396 C399 1.539 . S
C397 C393 1.408 . S
C397 C396 1.404 . S
C397 H409 0.930 . S
C398 C394 1.524 . S
C398 H410 0.956 . S
C398 H411 0.961 . S
C398 H412 0.961 . S
C399 C396 1.539 . S
C399 H413 0.958 . S
C399 H414 0.961 . S
C399 H415 0.960 . S
H400 C384 0.931 . S
H401 C389 0.929 . S
H402 C390 0.960 . S
H403 C390 0.962 . S
H404 C390 0.960 . S
H405 C391 0.961 . S
H406 C391 0.961 . S
H407 C391 0.961 . S
H408 C392 0.931 . S
H409 C397 0.930 . S
H410 C398 0.956 . S
H411 C398 0.961 . S
H412 C398 0.961 . S
H413 C399 0.958 . S
H414 C399 0.961 . S
H415 C399 0.960 . S
C416 C417 1.391 . S
C416 C418 1.394 . S
C416 H432 0.931 . S
C417 C416 1.391 . S
C417 C421 1.376 . S
C418 C416 1.394 . S
C418 C419 1.369 . S
C418 C422 1.531 . S
C419 C418 1.369 . S
C419 C420 1.410 . S
C419 C427 1.503 . S
C420 C419 1.410 . S
C420 C421 1.392 . S
C420 C423 1.511 . S
C421 C417 1.376 . S
C421 C420 1.392 . S
C421 H433 0.929 . S
C422 C418 1.531 . S
C422 H434 0.960 . S
C422 H435 0.962 . S
C422 H436 0.960 . S
C423 C420 1.511 . S
C423 H437 0.961 . S
C423 H438 0.961 . S
C423 H439 0.961 . S
C424 C425 1.370 . S
C424 C426 1.363 . S
C424 H440 0.931 . S
C425 C424 1.370 . S
C425 C429 1.408 . S
C426 C424 1.363 . S
C426 C427 1.370 . S
C426 C430 1.524 . S
C427 C419 1.503 . S
C427 C426 1.370 . S
C427 C428 1.403 . S
C428 C427 1.403 . S
C428 C429 1.404 . S
C428 C431 1.539 . S
C429 C425 1.408 . S
C429 C428 1.404 . S
C429 H441 0.930 . S
C430 C426 1.524 . S
C430 H442 0.956 . S
C430 H443 0.961 . S
C430 H444 0.961 . S
C431 C428 1.539 . S
C431 H445 0.958 . S
C431 H446 0.961 . S
C431 H447 0.960 . S
H432 C416 0.931 . S
H433 C421 0.929 . S
H434 C422 0.960 . S
H435 C422 0.962 . S
H436 C422 0.960 . S
H437 C423 0.961 . S
H438 C423 0.961 . S
H439 C423 0.961 . S
H440 C424 0.931 . S
H441 C429 0.930 . S
H442 C430 0.956 . S
H443 C430 0.961 . S
H444 C430 0.961 . S
H445 C431 0.958 . S
H446 C431 0.961 . S
H447 C431 0.960 . S
C448 C449 1.391 . S
C448 C450 1.394 . S
C448 H464 0.931 . S
C449 C448 1.391 . S
C449 C453 1.376 . S
C450 C448 1.394 . S
C450 C451 1.369 . S
C450 C454 1.531 . S
C451 C450 1.369 . S
C451 C452 1.410 . S
C451 C459 1.503 . S
C452 C451 1.410 . S
C452 C453 1.392 . S
C452 C455 1.511 . S
C453 C449 1.376 . S
C453 C452 1.392 . S
C453 H465 0.929 . S
C454 C450 1.531 . S
C454 H466 0.960 . S
C454 H467 0.962 . S
C454 H468 0.960 . S
C455 C452 1.511 . S
C455 H469 0.961 . S
C455 H470 0.961 . S
C455 H471 0.961 . S
C456 C457 1.370 . S
C456 C458 1.363 . S
C456 H472 0.931 . S
C457 C456 1.370 . S
C457 C461 1.408 . S
C458 C456 1.363 . S
C458 C459 1.370 . S
C458 C462 1.524 . S
C459 C451 1.503 . S
C459 C458 1.370 . S
C459 C460 1.403 . S
C460 C459 1.403 . S
C460 C461 1.404 . S
C460 C463 1.539 . S
C461 C457 1.408 . S
C461 C460 1.404 . S
C461 H473 0.930 . S
C462 C458 1.524 . S
C462 H474 0.956 . S
C462 H475 0.961 . S
C462 H476 0.961 . S
C463 C460 1.539 . S
C463 H477 0.958 . S
C463 H478 0.961 . S
C463 H479 0.960 . S
H464 C448 0.931 . S
H465 C453 0.929 . S
H466 C454 0.960 . S
H467 C454 0.962 . S
H468 C454 0.960 . S
H469 C455 0.961 . S
H470 C455 0.961 . S
H471 C455 0.961 . S
H472 C456 0.931 . S
H473 C461 0.930 . S
H474 C462 0.956 . S
H475 C462 0.961 . S
H476 C462 0.961 . S
H477 C463 0.958 . S
H478 C463 0.961 . S
H479 C463 0.960 . S
C480 C481 1.391 . S
C480 C482 1.394 . S
C480 H496 0.931 . S
C481 C480 1.391 . S
C481 C485 1.376 . S
C482 C480 1.394 . S
C482 C483 1.369 . S
C482 C486 1.531 . S
C483 C482 1.369 . S
C483 C484 1.410 . S
C483 C491 1.503 . S
C484 C483 1.410 . S
C484 C485 1.392 . S
C484 C487 1.511 . S
C485 C481 1.376 . S
C485 C484 1.392 . S
C485 H497 0.929 . S
C486 C482 1.531 . S
C486 H498 0.960 . S
C486 H499 0.962 . S
C486 H500 0.960 . S
C487 C484 1.511 . S
C487 H501 0.961 . S
C487 H502 0.961 . S
C487 H503 0.961 . S
C488 C489 1.370 . S
C488 C490 1.363 . S
C488 H504 0.931 . S
C489 C488 1.370 . S
C489 C493 1.408 . S
C490 C488 1.363 . S
C490 C491 1.370 . S
C490 C494 1.524 . S
C491 C483 1.503 . S
C491 C490 1.370 . S
C491 C492 1.403 . S
C492 C491 1.403 . S
C492 C493 1.404 . S
C492 C495 1.539 . S
C493 C489 1.408 . S
C493 C492 1.404 . S
C493 H505 0.930 . S
C494 C490 1.524 . S
C494 H506 0.956 . S
C494 H507 0.961 . S
C494 H508 0.961 . S
C495 C492 1.539 . S
C495 H509 0.958 . S
C495 H510 0.961 . S
C495 H511 0.960 . S
H496 C480 0.931 . S
H497 C485 0.929 . S
H498 C486 0.960 . S
H499 C486 0.962 . S
H500 C486 0.960 . S
H501 C487 0.961 . S
H502 C487 0.961 . S
H503 C487 0.961 . S
H504 C488 0.931 . S
H505 C493 0.930 . S
H506 C494 0.956 . S
H507 C494 0.961 . S
H508 C494 0.961 . S
H509 C495 0.958 . S
H510 C495 0.961 . S
H511 C495 0.960 . S
C512 C513 1.391 . S
C512 C514 1.394 . S
C512 H528 0.931 . S
C513 C512 1.391 . S
C513 C517 1.376 . S
C514 C512 1.394 . S
C514 C515 1.369 . S
C514 C518 1.531 . S
C515 C514 1.369 . S
C515 C516 1.410 . S
C515 C523 1.503 . S
C516 C515 1.410 . S
C516 C517 1.392 . S
C516 C519 1.511 1_455 S
C517 C513 1.376 . S
C517 C516 1.392 . S
C517 H529 0.929 1_455 S
C518 C514 1.531 . S
C518 H530 0.960 . S
C518 H531 0.962 . S
C518 H532 0.960 . S
C519 C516 1.511 1_655 S
C519 H533 0.961 . S
C519 H534 0.961 1_655 S
C519 H535 0.961 . S
C520 C521 1.370 . S
C520 C522 1.363 . S
C520 H536 0.931 . S
C521 C520 1.370 . S
C521 C525 1.408 . S
C522 C520 1.363 . S
C522 C523 1.370 . S
C522 C526 1.524 . S
C523 C515 1.503 . S
C523 C522 1.370 . S
C523 C524 1.403 . S
C524 C523 1.403 . S
C524 C525 1.404 . S
C524 C527 1.539 . S
C525 C521 1.408 . S
C525 C524 1.404 . S
C525 H537 0.930 . S
C526 C522 1.524 . S
C526 H538 0.956 . S
C526 H539 0.961 . S
C526 H540 0.961 . S
C527 C524 1.539 . S
C527 H541 0.958 . S
C527 H542 0.961 . S
C527 H543 0.960 . S
H528 C512 0.931 . S
H529 C517 0.929 1_655 S
H530 C518 0.960 . S
H531 C518 0.962 . S
H532 C518 0.960 . S
H533 C519 0.961 . S
H534 C519 0.961 1_455 S
H535 C519 0.961 . S
H536 C520 0.931 . S
H537 C525 0.930 . S
H538 C526 0.956 . S
H539 C526 0.961 . S
H540 C526 0.961 . S
H541 C527 0.958 . S
H542 C527 0.961 . S
H543 C527 0.960 . S
C544 C545 1.391 . S
C544 C546 1.394 . S
C544 H560 0.931 . S
C545 C544 1.391 . S
C545 C549 1.376 . S
C546 C544 1.394 . S
C546 C547 1.369 . S
C546 C550 1.531 . S
C547 C546 1.369 . S
C547 C548 1.410 . S
C547 C555 1.503 . S
C548 C547 1.410 . S
C548 C549 1.392 . S
C548 C551 1.511 . S
C549 C545 1.376 . S
C549 C548 1.392 . S
C549 H561 0.897 1_545 S
C550 C546 1.531 . S
C550 H562 0.960 . S
C550 H563 0.962 . S
C550 H564 0.960 . S
C551 C548 1.511 . S
C551 H565 0.961 1_545 S
C551 H566 0.961 . S
C551 H567 0.961 . S
C552 C553 1.370 . S
C552 C554 1.363 . S
C552 H568 0.931 . S
C553 C552 1.370 . S
C553 C557 1.408 . S
C554 C552 1.363 . S
C554 C555 1.370 . S
C554 C558 1.524 . S
C555 C547 1.503 . S
C555 C554 1.370 . S
C555 C556 1.403 . S
C556 C555 1.403 . S
C556 C557 1.404 . S
C556 C559 1.539 . S
C557 C553 1.408 . S
C557 C556 1.404 . S
C557 H569 0.930 . S
C558 C554 1.524 . S
C558 H570 0.956 . S
C558 H571 0.961 . S
C558 H572 0.961 . S
C559 C556 1.539 . S
C559 H573 0.958 . S
C559 H574 0.961 . S
C559 H575 0.960 . S
H560 C544 0.931 . S
H561 C549 0.897 1_565 S
H562 C550 0.960 . S
H563 C550 0.962 . S
H564 C550 0.960 . S
H565 C551 0.961 1_565 S
H566 C551 0.961 . S
H567 C551 0.961 . S
H568 C552 0.931 . S
H569 C557 0.930 . S
H570 C558 0.956 . S
H571 C558 0.961 . S
H572 C558 0.961 . S
H573 C559 0.958 . S
H574 C559 0.961 . S
H575 C559 0.960 . S
C576 C577 1.391 . S
C576 C578 1.394 . S
C576 H592 0.945 . S
C577 C576 1.391 . S
C577 C581 1.376 . S
C578 C576 1.394 . S
C578 C579 1.369 . S
C578 C582 1.531 . S
C579 C578 1.369 . S
C579 C580 1.410 . S
C579 C587 1.503 . S
C580 C579 1.410 . S
C580 C581 1.392 . S
C580 C583 1.511 . S
C581 C577 1.376 . S
C581 C580 1.392 . S
C581 H593 0.929 . S
C582 C578 1.531 . S
C582 H594 0.960 . S
C582 H595 0.962 . S
C582 H596 0.960 1_655 S
C583 C580 1.511 . S
C583 H597 0.961 . S
C583 H598 0.961 . S
C583 H599 0.961 . S
C584 C585 1.370 . S
C584 C586 1.363 . S
C584 H600 0.931 . S
C585 C584 1.370 . S
C585 C589 1.408 . S
C586 C584 1.363 . S
C586 C587 1.370 . S
C586 C590 1.524 . S
C587 C579 1.503 . S
C587 C586 1.370 . S
C587 C588 1.403 . S
C588 C587 1.403 . S
C588 C589 1.404 . S
C588 C591 1.539 . S
C589 C585 1.408 . S
C589 C588 1.404 . S
C589 H601 0.930 . S
C590 C586 1.524 . S
C590 H602 0.956 . S
C590 H603 0.961 . S
C590 H604 0.961 . S
C591 C588 1.539 . S
C591 H605 0.958 1_655 S
C591 H606 0.961 . S
C591 H607 0.960 . S
H592 C576 0.945 . S
H593 C581 0.929 . S
H594 C582 0.960 . S
H595 C582 0.962 . S
H596 C582 0.960 1_455 S
H597 C583 0.961 . S
H598 C583 0.961 . S
H599 C583 0.961 . S
H600 C584 0.931 . S
H601 C589 0.930 . S
H602 C590 0.956 . S
H603 C590 0.961 . S
H604 C590 0.961 . S
H605 C591 0.958 1_455 S
H606 C591 0.961 . S
H607 C591 0.960 . S
C608 C609 1.391 . S
C608 C610 1.394 . S
C608 H624 0.931 . S
C609 C608 1.391 . S
C609 C613 1.376 . S
C610 C608 1.394 . S
C610 C611 1.369 . S
C610 C614 1.531 . S
C611 C610 1.369 . S
C611 C612 1.410 . S
C611 C619 1.503 . S
C612 C611 1.410 . S
C612 C613 1.392 . S
C612 C615 1.511 . S
C613 C609 1.376 . S
C613 C612 1.392 . S
C613 H625 0.929 . S
C614 C610 1.531 . S
C614 H626 0.960 . S
C614 H627 0.962 . S
C614 H628 0.960 1_565 S
C615 C612 1.511 . S
C615 H629 0.961 . S
C615 H630 0.961 . S
C615 H631 0.961 . S
C616 C617 1.370 . S
C616 C618 1.363 . S
C616 H632 0.931 . S
C617 C616 1.370 . S
C617 C621 1.408 . S
C618 C616 1.363 . S
C618 C619 1.370 . S
C618 C622 1.524 . S
C619 C611 1.503 . S
C619 C618 1.370 . S
C619 C620 1.403 . S
C620 C619 1.403 . S
C620 C621 1.404 . S
C620 C623 1.539 . S
C621 C617 1.408 . S
C621 C620 1.404 . S
C621 H633 0.930 . S
C622 C618 1.524 . S
C622 H634 0.956 . S
C622 H635 0.961 . S
C622 H636 0.961 . S
C623 C620 1.539 . S
C623 H637 0.958 1_565 S
C623 H638 0.961 . S
C623 H639 0.960 . S
H624 C608 0.931 . S
H625 C613 0.929 . S
H626 C614 0.960 . S
H627 C614 0.962 . S
H628 C614 0.960 1_545 S
H629 C615 0.961 . S
H630 C615 0.961 . S
H631 C615 0.961 . S
H632 C616 0.931 . S
H633 C621 0.930 . S
H634 C622 0.956 . S
H635 C622 0.961 . S
H636 C622 0.961 . S
H637 C623 0.958 1_545 S
H638 C623 0.961 . S
H639 C623 0.960 . S
C640 C641 1.391 . S
C640 C642 1.394 . S
C640 H656 0.931 . S
C641 C640 1.391 . S
C641 C645 1.376 . S
C642 C640 1.394 . S
C642 C643 1.369 . S
C642 C646 1.531 . S
C643 C642 1.369 . S
C643 C644 1.410 . S
C643 C651 1.503 . S
C644 C643 1.410 . S
C644 C645 1.392 . S
C644 C647 1.511 . S
C645 C641 1.376 . S
C645 C644 1.392 . S
C645 H657 0.929 . S
C646 C642 1.531 . S
C646 H658 0.960 . S
C646 H659 0.962 . S
C646 H660 0.960 . S
C647 C644 1.511 . S
C647 H661 0.961 . S
C647 H662 0.961 . S
C647 H663 0.961 . S
C648 C649 1.370 . S
C648 C650 1.363 . S
C648 H664 0.931 . S
C649 C648 1.370 . S
C649 C653 1.408 . S
C650 C648 1.363 . S
C650 C651 1.370 . S
C650 C654 1.524 . S
C651 C643 1.503 . S
C651 C650 1.370 . S
C651 C652 1.403 . S
C652 C651 1.403 . S
C652 C653 1.404 . S
C652 C655 1.539 . S
C653 C649 1.408 . S
C653 C652 1.404 . S
C653 H665 0.930 . S
C654 C650 1.524 . S
C654 H666 0.956 . S
C654 H667 0.961 . S
C654 H668 0.961 . S
C655 C652 1.539 . S
C655 H669 0.958 1_565 S
C655 H670 0.961 1_565 S
C655 H671 0.960 . S
H656 C640 0.931 . S
H657 C645 0.929 . S
H658 C646 0.960 . S
H659 C646 0.962 . S
H660 C646 0.960 . S
H661 C647 0.961 . S
H662 C647 0.961 . S
H663 C647 0.961 . S
H664 C648 0.931 . S
H665 C653 0.930 . S
H666 C654 0.956 . S
H667 C654 0.961 . S
H668 C654 0.961 . S
H669 C655 0.958 1_545 S
H670 C655 0.961 1_545 S
H671 C655 0.960 . S
C672 C673 1.391 . S
C672 C674 1.394 . S
C672 H688 0.931 . S
C673 C672 1.391 . S
C673 C677 1.376 . S
C674 C672 1.394 . S
C674 C675 1.369 . S
C674 C678 1.531 . S
C675 C674 1.369 . S
C675 C676 1.410 . S
C675 C683 1.503 . S
C676 C675 1.410 . S
C676 C677 1.392 . S
C676 C679 1.511 . S
C677 C673 1.376 . S
C677 C676 1.392 . S
C677 H689 0.949 . S
C678 C674 1.531 . S
C678 H690 0.960 . S
C678 H691 0.962 . S
C678 H692 0.960 . S
C679 C676 1.511 . S
C679 H693 0.961 1_455 S
C679 H694 0.961 . S
C679 H695 0.961 . S
C680 C681 1.370 . S
C680 C682 1.363 . S
C680 H696 0.931 . S
C681 C680 1.370 . S
C681 C685 1.408 . S
C682 C680 1.363 . S
C682 C683 1.370 . S
C682 C686 1.524 . S
C683 C675 1.503 . S
C683 C682 1.370 . S
C683 C684 1.403 . S
C684 C683 1.403 . S
C684 C685 1.404 . S
C684 C687 1.539 . S
C685 C681 1.408 . S
C685 C684 1.404 . S
C685 H697 0.930 . S
C686 C682 1.524 . S
C686 H698 0.956 . S
C686 H699 0.961 . S
C686 H700 0.961 . S
C687 C684 1.539 . S
C687 H701 0.958 . S
C687 H702 0.961 . S
C687 H703 0.960 . S
H688 C672 0.931 . S
H689 C677 0.949 . S
H690 C678 0.960 . S
H691 C678 0.962 . S
H692 C678 0.960 . S
H693 C679 0.961 1_655 S
H694 C679 0.961 . S
H695 C679 0.961 . S
H696 C680 0.931 . S
H697 C685 0.930 . S
H698 C686 0.956 . S
H699 C686 0.961 . S
H700 C686 0.961 . S
H701 C687 0.958 . S
H702 C687 0.961 . S
H703 C687 0.960 . S
C704 C705 1.391 . S
C704 C706 1.394 . S
C704 H720 0.931 . S
C705 C704 1.391 . S
C705 C709 1.376 . S
C706 C704 1.394 . S
C706 C707 1.369 . S
C706 C710 1.531 . S
C707 C706 1.369 . S
C707 C708 1.410 . S
C707 C715 1.503 . S
C708 C707 1.410 . S
C708 C709 1.392 . S
C708 C711 1.511 . S
C709 C705 1.376 . S
C709 C708 1.392 . S
C709 H721 0.929 . S
C710 C706 1.531 . S
C710 H722 0.960 . S
C710 H723 0.962 . S
C710 H724 0.960 . S
C711 C708 1.511 . S
C711 H725 0.961 . S
C711 H726 0.961 . S
C711 H727 0.961 . S
C712 C713 1.370 . S
C712 C714 1.363 . S
C712 H728 0.931 . S
C713 C712 1.370 . S
C713 C717 1.408 . S
C714 C712 1.363 . S
C714 C715 1.370 . S
C714 C718 1.524 . S
C715 C707 1.503 . S
C715 C714 1.370 . S
C715 C716 1.403 . S
C716 C715 1.403 . S
C716 C717 1.404 . S
C716 C719 1.539 . S
C717 C713 1.408 . S
C717 C716 1.404 . S
C717 H729 0.930 . S
C718 C714 1.524 . S
C718 H730 0.956 . S
C718 H731 0.961 . S
C718 H732 0.961 . S
C719 C716 1.539 . S
C719 H733 0.958 . S
C719 H734 0.961 . S
C719 H735 0.960 . S
H720 C704 0.931 . S
H721 C709 0.929 . S
H722 C710 0.960 . S
H723 C710 0.962 . S
H724 C710 0.960 . S
H725 C711 0.961 . S
H726 C711 0.961 . S
H727 C711 0.961 . S
H728 C712 0.931 . S
H729 C717 0.930 . S
H730 C718 0.956 . S
H731 C718 0.961 . S
H732 C718 0.961 . S
H733 C719 0.958 . S
H734 C719 0.961 . S
H735 C719 0.960 . S
C736 C737 1.391 . S
C736 C738 1.394 . S
C736 H752 0.931 . S
C737 C736 1.391 . S
C737 C741 1.376 . S
C738 C736 1.394 . S
C738 C739 1.369 . S
C738 C742 1.531 . S
C739 C738 1.369 . S
C739 C740 1.410 . S
C739 C747 1.503 . S
C740 C739 1.410 . S
C740 C741 1.392 . S
C740 C743 1.511 . S
C741 C737 1.376 . S
C741 C740 1.392 . S
C741 H753 0.929 . S
C742 C738 1.531 . S
C742 H754 0.960 . S
C742 H755 0.962 . S
C742 H756 0.960 . S
C743 C740 1.511 . S
C743 H757 0.961 . S
C743 H758 0.961 . S
C743 H759 0.961 . S
C744 C745 1.370 . S
C744 C746 1.363 . S
C744 H760 0.931 . S
C745 C744 1.370 . S
C745 C749 1.408 . S
C746 C744 1.363 . S
C746 C747 1.370 . S
C746 C750 1.524 . S
C747 C739 1.503 . S
C747 C746 1.370 . S
C747 C748 1.403 . S
C748 C747 1.403 . S
C748 C749 1.404 . S
C748 C751 1.539 . S
C749 C745 1.408 . S
C749 C748 1.404 . S
C749 H761 0.930 . S
C750 C746 1.524 . S
C750 H762 0.956 . S
C750 H763 0.961 . S
C750 H764 0.961 . S
C751 C748 1.539 . S
C751 H765 0.958 . S
C751 H766 0.961 . S
C751 H767 0.960 . S
H752 C736 0.931 . S
H753 C741 0.929 . S
H754 C742 0.960 . S
H755 C742 0.962 . S
H756 C742 0.960 . S
H757 C743 0.961 . S
H758 C743 0.961 . S
H759 C743 0.961 . S
H760 C744 0.931 . S
H761 C749 0.930 . S
H762 C750 0.956 . S
H763 C750 0.961 . S
H764 C750 0.961 . S
H765 C751 0.958 . S
H766 C751 0.961 . S
H767 C751 0.960 . S
C768 C769 1.391 . S
C768 C770 1.394 . S
C768 H784 0.931 . S
C769 C768 1.391 . S
C769 C773 1.376 . S
C770 C768 1.394 . S
C770 C771 1.369 . S
C770 C774 1.531 . S
C771 C770 1.369 . S
C771 C772 1.410 . S
C771 C779 1.503 . S
C772 C771 1.410 . S
C772 C773 1.392 . S
C772 C775 1.511 . S
C773 C769 1.376 . S
C773 C772 1.392 . S
C773 H785 0.929 . S
C774 C770 1.531 . S
C774 H786 0.960 . S
C774 H787 0.962 . S
C774 H788 0.960 . S
C775 C772 1.511 . S
C775 H789 0.961 . S
C775 H790 0.961 . S
C775 H791 0.961 . S
C776 C777 1.370 . S
C776 C778 1.363 . S
C776 H792 0.931 . S
C777 C776 1.370 . S
C777 C781 1.408 . S
C778 C776 1.363 . S
C778 C779 1.370 . S
C778 C782 1.524 . S
C779 C771 1.503 . S
C779 C778 1.370 . S
C779 C780 1.403 . S
C780 C779 1.403 . S
C780 C781 1.404 . S
C780 C783 1.539 . S
C781 C777 1.408 . S
C781 C780 1.404 . S
C781 H793 0.930 . S
C782 C778 1.524 . S
C782 H794 0.956 . S
C782 H795 0.961 . S
C782 H796 0.961 . S
C783 C780 1.539 . S
C783 H797 0.958 . S
C783 H798 0.961 . S
C783 H799 0.960 . S
H784 C768 0.931 . S
H785 C773 0.929 . S
H786 C774 0.960 . S
H787 C774 0.962 . S
H788 C774 0.960 . S
H789 C775 0.961 . S
H790 C775 0.961 . S
H791 C775 0.961 . S
H792 C776 0.931 . S
H793 C781 0.930 . S
H794 C782 0.956 . S
H795 C782 0.961 . S
H796 C782 0.961 . S
H797 C783 0.958 . S
H798 C783 0.961 . S
H799 C783 0.960 . S
C800 C801 1.391 . S
C800 C802 1.394 . S
C800 H816 0.931 . S
C801 C800 1.391 . S
C801 C805 1.376 . S
C802 C800 1.394 . S
C802 C803 1.369 . S
C802 C806 1.531 . S
C803 C802 1.369 . S
C803 C804 1.410 . S
C803 C811 1.503 . S
C804 C803 1.410 . S
C804 C805 1.392 . S
C804 C807 1.511 . S
C805 C801 1.376 . S
C805 C804 1.392 . S
C805 H817 0.929 . S
C806 C802 1.531 . S
C806 H818 0.960 . S
C806 H819 0.962 . S
C806 H820 0.960 . S
C807 C804 1.511 . S
C807 H821 0.961 . S
C807 H822 0.961 . S
C807 H823 0.961 . S
C808 C809 1.370 . S
C808 C810 1.363 . S
C808 H824 0.931 . S
C809 C808 1.370 . S
C809 C813 1.408 . S
C810 C808 1.363 . S
C810 C811 1.370 . S
C810 C814 1.524 . S
C811 C803 1.503 . S
C811 C810 1.370 . S
C811 C812 1.403 . S
C812 C811 1.403 . S
C812 C813 1.404 . S
C812 C815 1.539 . S
C813 C809 1.408 . S
C813 C812 1.404 . S
C813 H825 0.930 . S
C814 C810 1.524 . S
C814 H826 0.956 . S
C814 H827 0.961 . S
C814 H828 0.961 . S
C815 C812 1.539 . S
C815 H829 0.958 . S
C815 H830 0.961 . S
C815 H831 0.960 . S
H816 C800 0.931 . S
H817 C805 0.929 . S
H818 C806 0.960 . S
H819 C806 0.962 . S
H820 C806 0.960 . S
H821 C807 0.961 . S
H822 C807 0.961 . S
H823 C807 0.961 . S
H824 C808 0.931 . S
H825 C813 0.930 . S
H826 C814 0.956 . S
H827 C814 0.961 . S
H828 C814 0.961 . S
H829 C815 0.958 . S
H830 C815 0.961 . S
H831 C815 0.960 . S
C832 C833 1.391 . S
C832 C834 1.394 . S
C832 H848 0.931 . S
C833 C832 1.391 . S
C833 C837 1.376 . S
C834 C832 1.394 . S
C834 C835 1.369 . S
C834 C838 1.531 . S
C835 C834 1.369 . S
C835 C836 1.410 . S
C835 C843 1.503 . S
C836 C835 1.410 . S
C836 C837 1.392 . S
C836 C839 1.511 . S
C837 C833 1.376 . S
C837 C836 1.392 . S
C837 H849 0.929 . S
C838 C834 1.531 . S
C838 H850 0.960 . S
C838 H851 0.962 . S
C838 H852 0.960 . S
C839 C836 1.511 . S
C839 H853 0.961 . S
C839 H854 0.961 . S
C839 H855 0.961 . S
C840 C841 1.370 . S
C840 C842 1.363 . S
C840 H856 0.931 . S
C841 C840 1.370 . S
C841 C845 1.408 . S
C842 C840 1.363 . S
C842 C843 1.370 . S
C842 C846 1.524 . S
C843 C835 1.503 . S
C843 C842 1.370 . S
C843 C844 1.403 . S
C844 C843 1.403 . S
C844 C845 1.404 . S
C844 C847 1.539 . S
C845 C841 1.408 . S
C845 C844 1.404 . S
C845 H857 0.930 . S
C846 C842 1.524 . S
C846 H858 0.956 . S
C846 H859 0.961 . S
C846 H860 0.961 . S
C847 C844 1.539 . S
C847 H861 0.958 . S
C847 H862 0.961 . S
C847 H863 0.960 . S
H848 C832 0.931 . S
H849 C837 0.929 . S
H850 C838 0.960 . S
H851 C838 0.962 . S
H852 C838 0.960 . S
H853 C839 0.961 . S
H854 C839 0.961 . S
H855 C839 0.961 . S
H856 C840 0.931 . S
H857 C845 0.930 . S
H858 C846 0.956 . S
H859 C846 0.961 . S
H860 C846 0.961 . S
H861 C847 0.958 . S
H862 C847 0.961 . S
H863 C847 0.960 . S
C864 C865 1.391 . S
C864 C866 1.394 . S
C864 H880 0.931 . S
C865 C864 1.391 . S
C865 C869 1.376 . S
C866 C864 1.394 . S
C866 C867 1.369 . S
C866 C870 1.531 . S
C867 C866 1.369 . S
C867 C868 1.410 . S
C867 C875 1.503 . S
C868 C867 1.410 . S
C868 C869 1.392 . S
C868 C871 1.511 . S
C869 C865 1.376 . S
C869 C868 1.392 . S
C869 H881 0.929 . S
C870 C866 1.531 . S
C870 H882 0.960 . S
C870 H883 0.962 . S
C870 H884 0.960 . S
C871 C868 1.511 . S
C871 H885 0.961 . S
C871 H886 0.961 . S
C871 H887 0.961 . S
C872 C873 1.370 . S
C872 C874 1.363 . S
C872 H888 0.931 . S
C873 C872 1.370 . S
C873 C877 1.408 . S
C874 C872 1.363 . S
C874 C875 1.370 . S
C874 C878 1.524 . S
C875 C867 1.503 . S
C875 C874 1.370 . S
C875 C876 1.403 . S
C876 C875 1.403 . S
C876 C877 1.404 . S
C876 C879 1.539 . S
C877 C873 1.408 . S
C877 C876 1.404 . S
C877 H889 0.930 . S
C878 C874 1.524 . S
C878 H890 0.956 . S
C878 H891 0.961 . S
C878 H892 0.961 . S
C879 C876 1.539 . S
C879 H893 0.958 . S
C879 H894 0.961 . S
C879 H895 0.960 . S
H880 C864 0.931 . S
H881 C869 0.929 . S
H882 C870 0.960 . S
H883 C870 0.962 . S
H884 C870 0.960 . S
H885 C871 0.961 . S
H886 C871 0.961 . S
H887 C871 0.961 . S
H888 C872 0.931 . S
H889 C877 0.930 . S
H890 C878 0.956 . S
H891 C878 0.961 . S
H892 C878 0.961 . S
H893 C879 0.958 . S
H894 C879 0.961 . S
H895 C879 0.960 . S
C896 C897 1.391 . S
C896 C898 1.394 . S
C896 H912 0.931 . S
C897 C896 1.391 . S
C897 C901 1.376 . S
C898 C896 1.394 . S
C898 C899 1.369 . S
C898 C902 1.531 . S
C899 C898 1.369 . S
C899 C900 1.410 . S
C899 C907 1.503 . S
C900 C899 1.410 . S
C900 C901 1.392 . S
C900 C903 1.511 . S
C901 C897 1.376 . S
C901 C900 1.392 . S
C901 H913 0.929 . S
C902 C898 1.531 . S
C902 H914 0.960 . S
C902 H915 0.962 . S
C902 H916 0.960 . S
C903 C900 1.511 . S
C903 H917 0.961 . S
C903 H918 0.961 . S
C903 H919 0.961 . S
C904 C905 1.370 . S
C904 C906 1.363 . S
C904 H920 0.931 . S
C905 C904 1.370 . S
C905 C909 1.408 . S
C906 C904 1.363 . S
C906 C907 1.370 . S
C906 C910 1.524 . S
C907 C899 1.503 . S
C907 C906 1.370 . S
C907 C908 1.403 . S
C908 C907 1.403 . S
C908 C909 1.404 . S
C908 C911 1.539 . S
C909 C905 1.408 . S
C909 C908 1.404 . S
C909 H921 0.930 . S
C910 C906 1.524 . S
C910 H922 0.956 . S
C910 H923 0.961 . S
C910 H924 0.961 . S
C911 C908 1.539 . S
C911 H925 0.958 . S
C911 H926 0.961 . S
C911 H927 0.960 . S
H912 C896 0.931 . S
H913 C901 0.929 . S
H914 C902 0.960 . S
H915 C902 0.962 . S
H916 C902 0.960 . S
H917 C903 0.961 . S
H918 C903 0.961 . S
H919 C903 0.961 . S
H920 C904 0.931 . S
H921 C909 0.930 . S
H922 C910 0.956 . S
H923 C910 0.961 . S
H924 C910 0.961 . S
H925 C911 0.958 . S
H926 C911 0.961 . S
H927 C911 0.960 . S
C928 C929 1.391 . S
C928 C930 1.394 . S
C928 H944 0.931 . S
C929 C928 1.391 . S
C929 C933 1.376 . S
C930 C928 1.394 . S
C930 C931 1.369 . S
C930 C934 1.531 . S
C931 C930 1.369 . S
C931 C932 1.410 . S
C931 C939 1.503 . S
C932 C931 1.410 . S
C932 C933 1.392 . S
C932 C935 1.511 . S
C933 C929 1.376 . S
C933 C932 1.392 . S
C933 H945 0.929 . S
C934 C930 1.531 . S
C934 H946 0.960 . S
C934 H947 0.962 . S
C934 H948 0.960 . S
C935 C932 1.511 . S
C935 H949 0.961 . S
C935 H950 0.961 . S
C935 H951 0.961 . S
C936 C937 1.370 . S
C936 C938 1.363 . S
C936 H952 0.931 . S
C937 C936 1.370 . S
C937 C941 1.408 . S
C938 C936 1.363 . S
C938 C939 1.370 . S
C938 C942 1.524 . S
C939 C931 1.503 . S
C939 C938 1.370 . S
C939 C940 1.403 . S
C940 C939 1.403 . S
C940 C941 1.404 . S
C940 C943 1.539 . S
C941 C937 1.408 . S
C941 C940 1.404 . S
C941 H953 0.930 . S
C942 C938 1.524 . S
C942 H954 0.956 . S
C942 H955 0.961 . S
C942 H956 0.961 . S
C943 C940 1.539 . S
C943 H957 0.958 . S
C943 H958 0.961 . S
C943 H959 0.960 . S
H944 C928 0.931 . S
H945 C933 0.929 . S
H946 C934 0.960 . S
H947 C934 0.962 . S
H948 C934 0.960 . S
H949 C935 0.961 . S
H950 C935 0.961 . S
H951 C935 0.961 . S
H952 C936 0.931 . S
H953 C941 0.930 . S
H954 C942 0.956 . S
H955 C942 0.961 . S
H956 C942 0.961 . S
H957 C943 0.958 . S
H958 C943 0.961 . S
H959 C943 0.960 . S
C960 C961 1.391 . S
C960 C962 1.394 . S
C960 H976 0.931 . S
C961 C960 1.391 . S
C961 C965 1.376 . S
C962 C960 1.394 . S
C962 C963 1.369 . S
C962 C966 1.531 . S
C963 C962 1.369 . S
C963 C964 1.410 . S
C963 C971 1.503 . S
C964 C963 1.410 . S
C964 C965 1.392 . S
C964 C967 1.511 . S
C965 C961 1.376 . S
C965 C964 1.392 . S
C965 H977 0.929 . S
C966 C962 1.531 . S
C966 H978 0.960 . S
C966 H979 0.962 . S
C966 H980 0.960 . S
C967 C964 1.511 . S
C967 H981 0.961 . S
C967 H982 0.961 . S
C967 H983 0.961 . S
C968 C969 1.370 . S
C968 C970 1.363 . S
C968 H984 0.931 . S
C969 C968 1.370 . S
C969 C973 1.408 . S
C970 C968 1.363 . S
C970 C971 1.370 . S
C970 C974 1.524 . S
C971 C963 1.503 . S
C971 C970 1.370 . S
C971 C972 1.403 . S
C972 C971 1.403 . S
C972 C973 1.404 . S
C972 C975 1.539 . S
C973 C969 1.408 . S
C973 C972 1.404 . S
C973 H985 0.930 . S
C974 C970 1.524 . S
C974 H986 0.956 . S
C974 H987 0.961 . S
C974 H988 0.961 . S
C975 C972 1.539 . S
C975 H989 0.958 . S
C975 H990 0.961 . S
C975 H991 0.960 . S
H976 C960 0.931 . S
H977 C965 0.929 . S
H978 C966 0.960 . S
H979 C966 0.962 . S
H980 C966 0.960 . S
H981 C967 0.961 . S
H982 C967 0.961 . S
H983 C967 0.961 . S
H984 C968 0.931 . S
H985 C973 0.930 . S
H986 C974 0.956 . S
H987 C974 0.961 . S
H988 C974 0.961 . S
H989 C975 0.958 . S
H990 C975 0.961 . S
H991 C975 0.960 . S
C992 C993 1.391 . S
C992 C994 1.394 . S
C992 H1008 0.931 . S
C993 C992 1.391 . S
C993 C997 1.376 . S
C994 C992 1.394 . S
C994 C995 1.369 . S
C994 C998 1.531 . S
C995 C994 1.369 . S
C995 C996 1.410 . S
C995 C1003 1.503 . S
C996 C995 1.410 . S
C996 C997 1.392 . S
C996 C999 1.511 . S
C997 C993 1.376 . S
C997 C996 1.392 . S
C997 H1009 0.929 . S
C998 C994 1.531 . S
C998 H1010 0.960 . S
C998 H1011 0.962 . S
C998 H1012 0.960 . S
C999 C996 1.511 . S
C999 H1013 0.961 . S
C999 H1014 0.961 . S
C999 H1015 0.961 . S
C1000 C1001 1.370 . S
C1000 C1002 1.363 . S
C1000 H1016 0.931 . S
C1001 C1000 1.370 . S
C1001 C1005 1.408 . S
C1002 C1000 1.363 . S
C1002 C1003 1.370 . S
C1002 C1006 1.524 . S
C1003 C995 1.503 . S
C1003 C1002 1.370 . S
C1003 C1004 1.403 . S
C1004 C1003 1.403 . S
C1004 C1005 1.404 . S
C1004 C1007 1.539 . S
C1005 C1001 1.408 . S
C1005 C1004 1.404 . S
C1005 H1017 0.930 . S
C1006 C1002 1.524 . S
C1006 H1018 0.956 . S
C1006 H1019 0.961 . S
C1006 H1020 0.961 . S
C1007 C1004 1.539 . S
C1007 H1021 0.958 . S
C1007 H1022 0.961 . S
C1007 H1023 0.960 . S
H1008 C992 0.931 . S
H1009 C997 0.929 . S
H1010 C998 0.960 . S
H1011 C998 0.962 . S
H1012 C998 0.960 . S
H1013 C999 0.961 . S
H1014 C999 0.961 . S
H1015 C999 0.961 . S
H1016 C1000 0.931 . S
H1017 C1005 0.930 . S
H1018 C1006 0.956 . S
H1019 C1006 0.961 . S
H1020 C1006 0.961 . S
H1021 C1007 0.958 . S
H1022 C1007 0.961 . S
H1023 C1007 0.960 . S
C257 C45 1.560 . S
C265 C115 1.488 . S
C289 C30 1.555 . S
C297 C134 1.501 . S
C321 C39 1.569 . S
C329 C153 1.405 1_556 S
C361 C172 1.496 . S
C353 C34 1.553 . S
C385 C97 1.564 . S
C393 C191 1.515 . S
C425 C210 1.509 . S
C417 C82 1.587 . S
C457 C229 1.419 . S
C449 C91 1.552 . S
C489 C248 1.509 . S
C481 C86 1.564 . S
C521 C220 1.599 . S
C513 C26 1.528 . S
C553 C243 1.526 . S
C545 C36 1.449 . S
C585 C186 1.604 . S
C577 C32 1.556 . S
C617 C205 1.524 . S
C609 C42 1.472 . S
C641 C18 1.683 . S
C649 C201 1.764 . S
C681 C224 1.672 . S
C673 C50 1.643 . S
C705 C4 1.735 . S
C713 C239 1.748 . S
C737 C48 1.616 . S
C745 C182 1.678 . S
C777 C144 1.582 . S
C769 C78 1.589 . S
C801 C88 1.469 . S
C809 C167 1.522 . S
C841 C110 1.609 . S
C833 C84 1.524 . S
C873 C129 1.525 . S
C865 C94 1.449 . S
C905 C125 1.769 . S
C897 C70 1.675 . S
C937 C148 1.679 . S
C929 C102 1.621 . S
C961 C56 1.695 . S
C969 C163 1.756 . S
C993 C100 1.654 . S
C1001 C106 1.665 . S
