# Generated by pormake.
# Topology hwx, (6,3)-cn, num edge types: 1
# Building blocks:
#     Node 0, Type 0, BuildingBlock: OJICUG_clean_sbu_0, # of connection points: 6
#     Node 1, Type 0, BuildingBlock: OJICUG_clean_sbu_0, # of connection points: 6
#     Node 2, Type 0, BuildingBlock: OJICUG_clean_sbu_0, # of connection points: 6
#     Node 3, Type 0, BuildingBlock: OJICUG_clean_sbu_0, # of connection points: 6
#     Node 4, Type 1, BuildingBlock: QEWDON_clean_linker_0, # of connection points: 3
#     Node 5, Type 1, BuildingBlock: QEWDON_clean_linker_0, # of connection points: 3
#     Node 6, Type 1, BuildingBlock: QEWDON_clean_linker_0, # of connection points: 3
#     Node 7, Type 1, BuildingBlock: QEWDON_clean_linker_0, # of connection points: 3
#     Node 8, Type 1, BuildingBlock: QEWDON_clean_linker_0, # of connection points: 3
#     Node 9, Type 1, BuildingBlock: QEWDON_clean_linker_0, # of connection points: 3
#     Node 10, Type 1, BuildingBlock: QEWDON_clean_linker_0, # of connection points: 3
#     Node 11, Type 1, BuildingBlock: QEWDON_clean_linker_0, # of connection points: 3
#     Edge 12, Type (0, 1), BuildingBlock: AJUNOK_clean_linker_0, # of connection points: 2
#     Edge 13, Type (0, 1), BuildingBlock: AJUNOK_clean_linker_0, # of connection points: 2
#     Edge 14, Type (0, 1), BuildingBlock: AJUNOK_clean_linker_0, # of connection points: 2
#     Edge 15, Type (0, 1), BuildingBlock: AJUNOK_clean_linker_0, # of connection points: 2
#     Edge 16, Type (0, 1), BuildingBlock: AJUNOK_clean_linker_0, # of connection points: 2
#     Edge 17, Type (0, 1), BuildingBlock: AJUNOK_clean_linker_0, # of connection points: 2
#     Edge 18, Type (0, 1), BuildingBlock: AJUNOK_clean_linker_0, # of connection points: 2
#     Edge 19, Type (0, 1), BuildingBlock: AJUNOK_clean_linker_0, # of connection points: 2
#     Edge 20, Type (0, 1), BuildingBlock: AJUNOK_clean_linker_0, # of connection points: 2
#     Edge 21, Type (0, 1), BuildingBlock: AJUNOK_clean_linker_0, # of connection points: 2
#     Edge 22, Type (0, 1), BuildingBlock: AJUNOK_clean_linker_0, # of connection points: 2
#     Edge 23, Type (0, 1), BuildingBlock: AJUNOK_clean_linker_0, # of connection points: 2
#     Edge 24, Type (0, 1), BuildingBlock: AJUNOK_clean_linker_0, # of connection points: 2
#     Edge 25, Type (0, 1), BuildingBlock: AJUNOK_clean_linker_0, # of connection points: 2
#     Edge 26, Type (0, 1), BuildingBlock: AJUNOK_clean_linker_0, # of connection points: 2
#     Edge 27, Type (0, 1), BuildingBlock: AJUNOK_clean_linker_0, # of connection points: 2
#     Edge 28, Type (0, 1), BuildingBlock: AJUNOK_clean_linker_0, # of connection points: 2
#     Edge 29, Type (0, 1), BuildingBlock: AJUNOK_clean_linker_0, # of connection points: 2
#     Edge 30, Type (0, 1), BuildingBlock: AJUNOK_clean_linker_0, # of connection points: 2
#     Edge 31, Type (0, 1), BuildingBlock: AJUNOK_clean_linker_0, # of connection points: 2
#     Edge 32, Type (0, 1), BuildingBlock: AJUNOK_clean_linker_0, # of connection points: 2
#     Edge 33, Type (0, 1), BuildingBlock: AJUNOK_clean_linker_0, # of connection points: 2
#     Edge 34, Type (0, 1), BuildingBlock: AJUNOK_clean_linker_0, # of connection points: 2
#     Edge 35, Type (0, 1), BuildingBlock: AJUNOK_clean_linker_0, # of connection points: 2
# Relax obj value: 0.002
# Max RMSD: 0.092
# Mean RMSD: 0.074
data_MOF--net-hwx--node1-OJICUG_clean_sbu_0--node2-QEWDON_clean_linker_0--edge1-AJUNOK_clean_linker_0
_symmetry_space_group_name_H-M    P1
_symmetry_Int_Tables_number       1
_symmetry_cell_setting            triclinic
loop_
_symmetry_equiv_pos_as_xyz
'x, y, z'
_cell_length_a     41.738163
_cell_length_b     41.711527
_cell_length_c     15.181567
_cell_angle_alpha  92.950461
_cell_angle_beta   92.99505
_cell_angle_gamma 90.017311
loop_
_atom_site_label
_atom_site_type_symbol
_atom_site_fract_x
_atom_site_fract_y
_atom_site_fract_z
_atom_type_partial_charge
Sc0 Sc 0.24481 0.24548 0.08919 0.0
Sc1 Sc 0.19039 0.19343 0.96579 0.0
Sc2 Sc 0.238 0.24712 0.85781 0.0
O3 O 0.22432 0.22876 0.97108 0.0
C4 C 0.23964 0.31028 -0.01512 0.0
C5 C 0.17094 0.2386 0.13126 0.0
C6 C 0.1623 0.23962 0.81951 0.0
C7 C 0.23839 0.17018 0.11886 0.0
C8 C 0.30507 0.24005 0.96791 0.0
C9 C 0.23182 0.17202 0.80379 0.0
O10 O 0.24369 0.29514 0.05516 0.0
O11 O 0.16541 0.217 0.07028 0.0
O12 O 0.18924 0.25241 0.80691 0.0
O13 O 0.24949 0.19815 0.13863 0.0
O14 O 0.28808 0.24357 0.89705 0.0
O15 O 0.21204 0.16585 0.86135 0.0
O16 O 0.293 0.23976 0.04328 0.0
O17 O 0.21727 0.16459 0.05681 0.0
O18 O 0.24255 0.20008 0.79422 0.0
O19 O 0.19828 0.25215 0.14551 0.0
O20 O 0.23603 0.29615 0.90887 0.0
O21 O 0.15912 0.21782 0.87384 0.0
Sc22 Sc 0.26813 0.74846 0.38105 0.0
Sc23 Sc 0.32042 0.69741 0.49765 0.0
Sc24 Sc 0.2726 0.75303 0.61368 0.0
O25 O 0.28708 0.73299 0.49747 0.0
C26 C 0.27667 0.81437 0.49769 0.0
C27 C 0.34204 0.73938 0.34116 0.0
C28 C 0.34801 0.7444 0.65538 0.0
C29 C 0.27226 0.67254 0.33986 0.0
C30 C 0.20659 0.74679 0.49668 0.0
C31 C 0.27706 0.67864 0.65377 0.0
O32 O 0.27221 0.79846 0.42436 0.0
O33 O 0.34701 0.71871 0.39879 0.0
O34 O 0.32105 0.75719 0.67062 0.0
O35 O 0.26161 0.70031 0.32395 0.0
O36 O 0.22253 0.75087 0.57012 0.0
O37 O 0.29749 0.67214 0.59648 0.0
O38 O 0.21976 0.74508 0.42292 0.0
O39 O 0.29354 0.66774 0.40049 0.0
O40 O 0.26578 0.70669 0.66767 0.0
O41 O 0.31495 0.75281 0.32766 0.0
O42 O 0.27808 0.80125 0.57156 0.0
O43 O 0.35135 0.72273 0.59482 0.0
Sc44 Sc 0.77611 0.77657 0.89928 0.0
Sc45 Sc 0.82878 0.83033 0.02298 0.0
Sc46 Sc 0.77428 0.7835 0.13045 0.0
O47 O 0.79298 0.79688 0.01741 0.0
C48 C 0.71132 0.78291 0.00299 0.0
C49 C 0.78412 0.85036 0.85715 0.0
C50 C 0.78288 0.85912 0.1687 0.0
C51 C 0.8515 0.78186 0.87045 0.0
C52 C 0.78013 0.71622 0.02058 0.0
C53 C 0.84933 0.78844 0.18501 0.0
O54 O 0.72644 0.77843 0.93285 0.0
O55 O 0.80576 0.85562 0.91817 0.0
O56 O 0.76982 0.83232 0.1814 0.0
O57 O 0.8234 0.77118 0.8504 0.0
O58 O 0.77682 0.73336 0.09118 0.0
O59 O 0.85584 0.80825 0.12778 0.0
O60 O 0.78099 0.72829 0.94525 0.0
O61 O 0.85733 0.80294 0.93244 0.0
O62 O 0.82113 0.77808 0.1942 0.0
O63 O 0.77021 0.82319 0.84294 0.0
O64 O 0.72543 0.78643 0.07903 0.0
O65 O 0.80472 0.86205 0.11444 0.0
Sc66 Sc 0.7409 0.2882 0.60308 0.0
Sc67 Sc 0.68456 0.33603 0.48897 0.0
Sc68 Sc 0.73167 0.27987 0.37208 0.0
O69 O 0.71906 0.30134 0.48804 0.0
C70 C 0.80004 0.2868 0.47705 0.0
C71 C 0.7347 0.36375 0.63999 0.0
C72 C 0.72504 0.35424 0.32733 0.0
C73 C 0.66679 0.29494 0.64994 0.0
C74 C 0.7329 0.22031 0.49652 0.0
C75 C 0.65609 0.28677 0.33664 0.0
O76 O 0.78861 0.28847 0.55325 0.0
O77 O 0.71032 0.36647 0.58737 0.0
O78 O 0.73429 0.32549 0.31153 0.0
O79 O 0.69554 0.28559 0.66503 0.0
O80 O 0.73133 0.23196 0.42055 0.0
O81 O 0.65367 0.31075 0.39076 0.0
O82 O 0.73579 0.23776 0.56769 0.0
O83 O 0.65886 0.31292 0.58737 0.0
O84 O 0.68252 0.27243 0.32497 0.0
O85 O 0.74886 0.33718 0.65088 0.0
O86 O 0.78223 0.28439 0.40642 0.0
O87 O 0.70732 0.36206 0.3905 0.0
H88 H 0.25852 0.5327 0.10906 0.0
C89 C 0.25412 0.54598 0.05011 0.0
C90 C 0.24537 0.5785 0.05788 0.0
C91 C 0.26047 0.53158 0.96718 0.0
H92 H 0.2381 0.62173 -0.01167 0.0
C93 C 0.24207 0.59605 -0.01838 0.0
C94 C 0.24834 0.58208 0.8985 0.0
C95 C 0.2573 0.54964 0.89161 0.0
C96 C 0.27711 0.50039 0.96204 0.0
H97 H 0.26379 0.53896 0.82839 0.0
C98 C 0.26137 0.47151 0.97723 0.0
C99 C 0.27845 0.4424 0.9744 0.0
C100 C 0.30976 0.49993 0.94387 0.0
H101 H 0.32224 0.52199 0.93233 0.0
C102 C 0.3267 0.47114 0.9419 0.0
H103 H 0.23614 0.47167 -0.00906 0.0
C104 C 0.3112 0.44253 0.95733 0.0
H105 H 0.32468 0.42033 0.95462 0.0
H106 H 0.3519 0.471 0.92828 0.0
H107 H 0.98369 0.73104 0.389 0.0
C108 C 0.9727 0.73651 0.45116 0.0
C109 C 0.94253 0.7512 0.4516 0.0
C110 C 0.98778 0.72719 0.53088 0.0
H111 H 0.90417 0.76785 0.53097 0.0
C112 C 0.92781 0.75699 0.53124 0.0
C113 C 0.94241 0.74762 0.61066 0.0
C114 C 0.97255 0.73279 0.61081 0.0
C115 C 0.01743 0.70813 0.52899 0.0
H116 H 0.98355 0.72469 0.67198 0.0
C117 C 0.04726 0.7228 0.51926 0.0
C118 C 0.07512 0.70398 0.51423 0.0
C119 C 0.01561 0.67471 0.53433 0.0
H120 H 0.99275 0.6631 0.54168 0.0
C121 C 0.04321 0.65601 0.52876 0.0
H122 H 0.04876 0.74863 0.51519 0.0
C123 C 0.07282 0.6705 0.51836 0.0
H124 H 0.09404 0.65563 0.5147 0.0
H125 H 0.04165 0.63021 0.53243 0.0
H126 H 0.78945 0.49772 0.88677 0.0
C127 C 0.78115 0.48431 0.94052 0.0
C128 C 0.76494 0.45508 0.92232 0.0
C129 C 0.78811 0.49524 0.02872 0.0
H130 H 0.74328 0.41434 0.97691 0.0
C131 C 0.75536 0.43719 -0.00831 0.0
C132 C 0.76262 0.44739 0.07954 0.0
C133 C 0.77885 0.47663 0.09809 0.0
C134 C 0.80793 0.52427 0.04893 0.0
H135 H 0.78523 0.48436 0.16602 0.0
C136 C 0.79637 0.55492 0.02908 0.0
C137 C 0.81497 0.58235 0.05392 0.0
C138 C 0.83842 0.52128 0.09128 0.0
H139 H 0.84768 0.49786 0.10689 0.0
C140 C 0.85716 0.54845 0.11386 0.0
H141 H 0.77262 0.55748 -0.00215 0.0
C142 C 0.84545 0.57887 0.0959 0.0
H143 H 0.85998 0.59979 0.11583 0.0
H144 H 0.88064 0.54596 0.14655 0.0
H145 H 0.02132 0.2584 0.58704 0.0
C146 C 0.03568 0.2625 0.53121 0.0
C147 C 0.0689 0.26807 0.54459 0.0
C148 C 0.02162 0.25924 0.445 0.0
H149 H 0.11345 0.27316 0.48111 0.0
C150 C 0.08758 0.27115 0.47123 0.0
C151 C 0.07402 0.26741 0.38513 0.0
C152 C 0.0408 0.26252 0.37254 0.0
C153 C 0.98919 0.24519 0.42889 0.0
H154 H 0.03014 0.25887 0.30609 0.0
C155 C 0.9612 0.26203 0.45106 0.0
C156 C 0.93083 0.24819 0.42881 0.0
C157 C 0.9865 0.21431 0.38753 0.0
H158 H 1.00776 0.20093 0.37052 0.0
C159 C 0.95651 0.20043 0.36744 0.0
H160 H 0.96301 0.28596 0.48229 0.0
C161 C 0.92883 0.2173 0.38737 0.0
H162 H 0.90569 0.20623 0.37022 0.0
H163 H 0.95471 0.17664 0.33553 0.0
H164 H 0.76415 1.0003 0.40071 0.0
C165 C 0.7605 0.98587 0.45673 0.0
C166 C 0.75523 0.9526 0.44353 0.0
C167 C 0.76389 0.99994 0.5429 0.0
H168 H 0.75061 0.90798 0.50708 0.0
C169 C 0.75252 0.93387 0.51694 0.0
C170 C 0.75633 0.94745 0.60298 0.0
C171 C 0.7611 0.98071 0.61551 0.0
C172 C 0.77671 0.03291 0.55837 0.0
H173 H 0.76472 0.9914 0.68192 0.0
C174 C 0.75943 0.05997 0.53088 0.0
C175 C 0.7723 0.09092 0.54981 0.0
C176 C 0.80694 0.03713 0.60279 0.0
H177 H 0.82068 0.01659 0.62392 0.0
C178 C 0.81981 0.06776 0.62003 0.0
H179 H 0.73599 0.05704 0.49724 0.0
C180 C 0.80256 0.09455 0.59402 0.0
H181 H 0.81271 0.11824 0.60903 0.0
H182 H 0.84311 0.07075 0.65422 0.0
H183 H 0.52241 0.23067 0.0888 0.0
C184 C 0.5361 0.23866 0.03526 0.0
C185 C 0.56549 0.25453 0.05392 0.0
C186 C 0.52543 0.23158 0.94687 0.0
H187 H 0.60656 0.27582 0.0001 0.0
C188 C 0.58371 0.2638 -0.01511 0.0
C189 C 0.57367 0.25661 0.8969 0.0
C190 C 0.54435 0.24061 0.87789 0.0
C191 C 0.49641 0.21173 0.92602 0.0
H192 H 0.53676 0.23425 0.80983 0.0
C193 C 0.46579 0.22267 0.94831 0.0
C194 C 0.43834 0.20407 0.9228 0.0
C195 C 0.49942 0.18178 0.88065 0.0
H196 H 0.52279 0.17294 0.86327 0.0
C197 C 0.47238 0.16299 0.85744 0.0
H198 H 0.46326 0.24605 -0.01819 0.0
C199 C 0.44201 0.1741 0.87778 0.0
H200 H 0.42125 0.15934 0.85782 0.0
H201 H 0.47492 0.13991 0.8226 0.0
H202 H 0.28876 0.0373 0.60003 0.0
C203 C 0.28306 0.04824 0.53791 0.0
C204 C 0.26787 0.0782 0.53757 0.0
C205 C 0.29261 0.0334 0.45816 0.0
H206 H 0.25069 0.11646 0.45833 0.0
C207 C 0.26183 0.09293 0.45797 0.0
C208 C 0.2715 0.07861 0.37857 0.0
C209 C 0.28683 0.04871 0.37835 0.0
C210 C 0.31221 1.00405 0.45988 0.0
H211 H 0.29519 0.03798 0.31719 0.0
C212 C 0.2983 0.97404 0.47246 0.0
C213 C 0.31764 0.94646 0.47636 0.0
C214 C 0.3454 1.00635 0.45092 0.0
H215 H 0.35644 0.02934 0.44132 0.0
C216 C 0.36464 0.97909 0.45568 0.0
H217 H 0.27265 0.97218 0.47926 0.0
C218 C 0.35091 0.94931 0.46866 0.0
H219 H 0.36619 0.92835 0.4713 0.0
H220 H 0.39026 0.98104 0.4492 0.0
H221 H 0.48963 0.76066 0.88766 0.0
C222 C 0.47594 0.76392 0.94619 0.0
C223 C 0.44287 0.77029 0.93768 0.0
C224 C 0.49061 0.75834 0.02939 0.0
H225 H 0.3993 0.77559 0.00676 0.0
C226 C 0.42513 0.7727 0.01364 0.0
C227 C 0.43936 0.76704 0.09685 0.0
C228 C 0.47234 0.76052 0.10461 0.0
C229 C 0.52243 0.74296 0.03516 0.0
H230 H 0.48343 0.75502 0.16823 0.0
C231 C 0.55054 0.75933 0.01626 0.0
C232 C 0.58022 0.74327 0.01981 0.0
C233 C 0.52424 0.71072 0.05754 0.0
H234 H 0.50278 0.69772 0.07182 0.0
C235 C 0.55358 0.6948 0.06019 0.0
H236 H 0.54937 0.78424 -0.00067 0.0
C237 C 0.58142 0.71092 0.04121 0.0
H238 H 0.60409 0.69826 0.04456 0.0
H239 H 0.55474 0.66992 0.07709 0.0
C240 C 0.1459 0.27566 0.24412 0.0
C241 C 0.14441 0.24726 0.18971 0.0
C242 C 0.122 0.28308 0.30361 0.0
C243 C 0.09573 0.26239 0.31111 0.0
H244 H 0.16593 0.29206 0.2419 0.0
H245 H 0.12457 0.30474 0.34596 0.0
S246 S 0.08051 0.18484 0.18482 0.0
N247 N 0.11396 0.19849 0.14698 0.0
N248 N 0.06976 0.21222 0.25972 0.0
C249 C 0.09353 0.23433 0.25577 0.0
C250 C 0.11768 0.22681 0.19498 0.0
C251 C 0.28807 0.6265 0.72275 0.0
C252 C 0.26714 0.65241 0.70863 0.0
C253 C 0.28075 0.60257 0.77982 0.0
C254 C 0.25203 0.60342 0.82435 0.0
H255 H 0.31103 0.62536 0.69256 0.0
H256 H 0.29858 0.58431 0.79282 0.0
S257 S 0.18675 0.66315 0.79919 0.0
N258 N 0.21492 0.6756 0.73642 0.0
N259 N 0.20087 0.63017 0.84267 0.0
C260 C 0.22993 0.62801 0.80639 0.0
C261 C 0.23756 0.65263 0.74893 0.0
C262 C 0.90161 0.79734 0.27137 0.0
C263 C 0.87572 0.77691 0.24382 0.0
C264 C 0.9251 0.78793 0.33433 0.0
C265 C 0.92373 0.75758 0.36981 0.0
H266 H 0.90283 0.82135 0.24768 0.0
H267 H 0.94342 0.80502 0.35877 0.0
S268 S 0.86357 0.69372 0.3114 0.0
N269 N 0.85199 0.72384 0.25092 0.0
N270 N 0.89634 0.70627 0.36861 0.0
C271 C 0.89923 0.73625 0.33882 0.0
C272 C 0.87515 0.74589 0.27585 0.0
C273 C 0.72263 0.41537 0.72253 0.0
C274 C 0.74525 0.39206 0.69703 0.0
C275 C 0.73027 0.4387 0.79017 0.0
C276 C 0.76093 0.43993 0.83275 0.0
H277 H 0.69816 0.41411 0.69503 0.0
H278 H 0.71143 0.45425 0.81387 0.0
S279 S 0.83014 0.38805 0.78129 0.0
N280 N 0.80072 0.37432 0.7126 0.0
N281 N 0.81494 0.41848 0.83913 0.0
C282 C 0.78453 0.41879 0.8025 0.0
C283 C 0.77672 0.39474 0.73468 0.0
C284 C 0.62692 0.24542 0.23784 0.0
C285 C 0.6276 0.27634 0.27981 0.0
C286 C 0.60362 0.23691 0.17105 0.0
C287 C 0.58022 0.259 0.14387 0.0
H288 H 0.64558 0.22822 0.25315 0.0
H289 H 0.60555 0.21388 0.13533 0.0
S290 S 0.56876 0.34141 0.23861 0.0
N291 N 0.60038 0.3279 0.29518 0.0
N292 N 0.55706 0.31173 0.16802 0.0
C293 C 0.57892 0.28894 0.18963 0.0
C294 C 0.60249 0.29765 0.25823 0.0
C295 C 0.22188 0.12012 0.71635 0.0
C296 C 0.2429 0.1454 0.74514 0.0
C297 C 0.23097 0.09647 0.65345 0.0
C298 C 0.26158 0.097 0.61942 0.0
H299 H 0.1977 0.11956 0.73898 0.0
H300 H 0.21348 0.07868 0.62797 0.0
S301 S 0.32678 0.15538 0.68123 0.0
N302 N 0.29665 0.16769 0.74054 0.0
N303 N 0.31366 0.12299 0.62315 0.0
C304 C 0.28343 0.12086 0.65166 0.0
C305 C 0.27411 0.14514 0.71445 0.0
C306 C 0.36909 0.77676 0.24416 0.0
C307 C 0.36895 0.74747 0.28618 0.0
C308 C 0.39327 0.78394 0.18754 0.0
C309 C 0.41813 0.76205 0.17038 0.0
H310 H 0.3501 0.79408 0.25393 0.0
H311 H 0.39193 0.80635 0.15445 0.0
S312 S 0.42882 0.68201 0.26363 0.0
N313 N 0.39631 0.69668 0.30798 0.0
N314 N 0.44116 0.70993 0.20004 0.0
C315 C 0.4188 0.7331 0.21388 0.0
C316 C 0.39435 0.72586 0.27202 0.0
C317 C 0.74742 0.87568 0.74402 0.0
C318 C 0.77576 0.87698 0.79869 0.0
C319 C 0.74025 0.89962 0.68443 0.0
C320 C 0.76114 0.92576 0.6771 0.0
H321 H 0.73088 0.85576 0.7461 0.0
H322 H 0.71864 0.89719 0.64187 0.0
S323 S 0.83852 0.94056 0.80432 0.0
N324 N 0.82464 0.90716 0.84201 0.0
N325 N 0.81134 0.95148 0.72906 0.0
C326 C 0.78911 0.92781 0.73276 0.0
C327 C 0.79638 0.9036 0.79365 0.0
C328 C 0.87262 0.74363 0.75547 0.0
C329 C 0.87805 0.77011 0.81587 0.0
C330 C 0.89514 0.7347 0.69387 0.0
C331 C 0.92404 0.75168 0.69065 0.0
H332 H 0.8502 0.73045 0.75295 0.0
H333 H 0.88913 0.71548 0.64501 0.0
S334 S 0.95192 0.82035 0.83881 0.0
N335 N 0.91622 0.81142 0.87297 0.0
N336 N 0.95837 0.79431 0.75599 0.0
C337 C 0.93095 0.77666 0.75391 0.0
C338 C 0.908 0.78594 0.81694 0.0
C339 C 0.75617 0.37102 0.20096 0.0
C340 C 0.73567 0.37946 0.2692 0.0
C341 C 0.76571 0.39356 0.14254 0.0
C342 C 0.75527 0.42557 0.14972 0.0
H343 H 0.76467 0.34662 0.19131 0.0
H344 H 0.78097 0.38571 0.09004 0.0
S345 S 0.70289 0.46102 0.31821 0.0
N346 N 0.70636 0.42297 0.34237 0.0
N347 N 0.72443 0.46519 0.23128 0.0
C348 C 0.73575 0.43484 0.2189 0.0
C349 C 0.72586 0.41183 0.27878 0.0
C350 C 0.13408 0.27908 0.72441 0.0
C351 C 0.13396 0.24931 0.76407 0.0
C352 C 0.11055 0.2866 0.65967 0.0
C353 C 0.08615 0.26456 0.6315 0.0
H354 H 0.15335 0.29615 0.74046 0.0
H355 H 0.11277 0.30891 0.62688 0.0
S356 S 0.07287 0.18488 0.7213 0.0
N357 N 0.10529 0.19906 0.77702 0.0
N358 N 0.06158 0.21296 0.65359 0.0
C359 C 0.08421 0.23584 0.67552 0.0
C360 C 0.10804 0.22825 0.74215 0.0
C361 C 0.28222 0.61881 0.26622 0.0
C362 C 0.26144 0.64492 0.28059 0.0
C363 C 0.2752 0.59518 0.19908 0.0
C364 C 0.24701 0.59668 0.14454 0.0
H365 H 0.30514 0.61773 0.30285 0.0
H366 H 0.29322 0.57718 0.18534 0.0
S367 S 0.1814 0.65592 0.16823 0.0
N368 N 0.20916 0.66798 0.24426 0.0
N369 N 0.1958 0.62321 0.11877 0.0
C370 C 0.22454 0.62076 0.16429 0.0
C371 C 0.23181 0.64502 0.232 0.0
C372 C 0.37607 0.78269 0.76613 0.0
C373 C 0.37626 0.75366 0.71462 0.0
C374 C 0.39992 0.78963 0.83272 0.0
C375 C 0.42472 0.7677 0.85089 0.0
H376 H 0.3566 0.7996 0.7576 0.0
H377 H 0.39778 0.81136 0.87425 0.0
S378 S 0.43808 0.6898 0.72929 0.0
N379 N 0.40529 0.70426 0.68069 0.0
N380 N 0.44949 0.71697 0.80749 0.0
C381 C 0.42658 0.73973 0.79563 0.0
C382 C 0.40246 0.73276 0.7272 0.0
C383 C 0.74366 0.88758 0.26376 0.0
C384 C 0.77337 0.88757 0.22389 0.0
C385 C 0.73633 0.91113 0.32858 0.0
C386 C 0.75849 0.93544 0.35649 0.0
H387 H 0.72651 0.86837 0.24792 0.0
H388 H 0.7141 0.90898 0.36166 0.0
S389 S 0.83797 0.94853 0.26577 0.0
N390 N 0.82363 0.91612 0.21027 0.0
N391 N 0.81004 0.95992 0.33377 0.0
C392 C 0.78711 0.93732 0.31213 0.0
C393 C 0.79453 0.91345 0.24548 0.0
C394 C 0.65019 0.26369 0.77645 0.0
C395 C 0.64166 0.28411 0.70799 0.0
C396 C 0.62766 0.25397 0.83467 0.0
C397 C 0.59557 0.2641 0.82701 0.0
H398 H 0.67465 0.25541 0.78641 0.0
H399 H 0.63558 0.23879 0.88736 0.0
S400 S 0.55986 0.31604 0.65754 0.0
N401 N 0.59796 0.31292 0.63396 0.0
N402 N 0.5558 0.29454 0.74462 0.0
C403 C 0.58622 0.28351 0.75754 0.0
C404 C 0.60921 0.29359 0.69792 0.0
C405 C 0.27621 0.14859 0.23425 0.0
C406 C 0.24971 0.1435 0.17373 0.0
C407 C 0.28484 0.12593 0.29582 0.0
C408 C 0.26753 0.0972 0.29888 0.0
H409 H 0.28967 0.17085 0.23681 0.0
H410 H 0.30413 0.13167 0.3447 0.0
S411 S 0.19854 0.07024 0.15071 0.0
N412 N 0.20792 0.10586 0.11662 0.0
N413 N 0.22448 0.06343 0.23352 0.0
C414 C 0.24245 0.09064 0.23567 0.0
C415 C 0.23348 0.11375 0.17267 0.0
C416 C 0.26407 0.36017 0.05787 0.0
C417 C 0.24365 0.3457 -0.00961 0.0
C418 C 0.27368 0.39229 0.05523 0.0
C419 C 0.26266 0.41129 -0.01379 0.0
H420 H 0.27444 0.34608 0.11011 0.0
H421 H 0.291 0.40193 0.10533 0.0
S422 S 0.20565 0.38646 0.8001 0.0
N423 N 0.21037 0.35393 0.85701 0.0
N424 N 0.22817 0.41453 0.85332 0.0
C425 C 0.24045 0.39797 0.92201 0.0
C426 C 0.23101 0.3651 0.92379 0.0
C427 C 0.15652 0.72115 0.42799 0.0
C428 C 0.17166 0.74014 0.49761 0.0
C429 C 0.12485 0.71043 0.43256 0.0
C430 C 0.10693 0.71882 0.50597 0.0
H431 H 0.16966 0.71318 0.37123 0.0
H432 H 0.11455 0.6948 0.37924 0.0
S433 S 0.13407 0.76984 0.70259 0.0
N434 N 0.16539 0.76819 0.64036 0.0
N435 N 0.10563 0.74834 0.64763 0.0
C436 C 0.12106 0.73895 0.57405 0.0
C437 C 0.15349 0.74952 0.57021 0.0
C438 C 0.79329 0.66148 0.95363 0.0
C439 C 0.78529 0.68101 0.028 0.0
C440 C 0.80153 0.62901 0.96125 0.0
C441 C 0.80208 0.61499 0.0434 0.0
H442 H 0.79419 0.67152 0.88941 0.0
H443 H 0.80861 0.61511 0.90325 0.0
S444 S 0.78065 0.65384 0.25688 0.0
N445 N 0.77639 0.68242 0.18595 0.0
N446 N 0.79232 0.62177 0.19903 0.0
C447 C 0.79304 0.63359 0.11734 0.0
C448 C 0.78449 0.66648 0.10997 0.0
C449 C 0.84773 0.28076 0.38409 0.0
C450 C 0.83544 0.28389 0.46893 0.0
C451 C 0.87951 0.27154 0.37231 0.0
C452 C 0.90054 0.26549 0.44472 0.0
H453 H 0.83228 0.28372 0.32552 0.0
H454 H 0.88728 0.26747 0.30564 0.0
S455 S 0.88251 0.27452 0.68084 0.0
N456 N 0.84845 0.2835 0.62743 0.0
N457 N 0.90834 0.26622 0.60414 0.0
C458 C 0.88966 0.27097 0.53 0.0
C459 C 0.85709 0.28021 0.5424 0.0
C460 C 0.74958 0.16629 0.43509 0.0
C461 C 0.7356 0.18499 0.50291 0.0
C462 C 0.75909 0.13448 0.4477 0.0
C463 C 0.75443 0.12021 0.52783 0.0
H464 H 0.75535 0.17693 0.37426 0.0
H465 H 0.77198 0.12168 0.39675 0.0
S466 S 0.71456 0.15671 0.72058 0.0
N467 N 0.71423 0.18529 0.64916 0.0
N468 N 0.73217 0.12555 0.67211 0.0
C469 C 0.73828 0.13763 0.59322 0.0
C470 C 0.72877 0.17 0.58087 0.0
C471 C 0.35141 0.22605 0.87533 0.0
C472 C 0.33999 0.23373 0.95965 0.0
C473 C 0.38336 0.21732 0.86442 0.0
C474 C 0.40551 0.21622 0.93705 0.0
H475 H 0.3354 0.22588 0.81682 0.0
H476 H 0.39072 0.21094 0.7984 0.0
S477 S 0.38906 0.23559 0.17129 0.0
N478 N 0.35421 0.24074 0.11721 0.0
N479 N 0.41453 0.22452 0.0958 0.0
C480 C 0.395 0.22483 0.02141 0.0
C481 C 0.3622 0.23346 0.03293 0.0
C482 C 0.30425 0.86406 0.56229 0.0
C483 C 0.28339 0.84927 0.4964 0.0
C484 C 0.31439 0.89592 0.55686 0.0
C485 C 0.30355 0.91436 0.48641 0.0
H486 H 0.31399 0.85053 0.61649 0.0
H487 H 0.33142 0.906 0.6071 0.0
S488 S 0.24688 0.88805 0.30076 0.0
N489 N 0.25093 0.85626 0.36088 0.0
N490 N 0.26968 0.91634 0.3519 0.0
C491 C 0.28159 0.90047 0.42235 0.0
C492 C 0.27162 0.86787 0.42699 0.0
C493 C 0.66129 0.75843 0.93123 0.0
C494 C 0.67591 0.77921 -0.00238 0.0
C495 C 0.62931 0.74861 0.93539 0.0
C496 C 0.61063 0.75978 0.00484 0.0
H497 H 0.67522 0.74781 0.87906 0.0
H498 H 0.61963 0.73085 0.88652 0.0
S499 S 0.63578 0.81801 0.18773 0.0
N500 N 0.66803 0.81322 0.12982 0.0
N501 N 0.6077 0.795 0.13637 0.0
C502 C 0.624 0.7825 0.06752 0.0
C503 C 0.65672 0.79217 0.0642 0.0
loop_
_geom_bond_atom_site_label_1
_geom_bond_atom_site_label_2
_geom_bond_distance
_geom_bond_site_symmetry_2
_ccdc_geom_bond_type
Sc0 O3 2.025 . S
Sc0 O10 2.105 . S
Sc0 O13 2.105 . S
Sc0 O16 2.105 . S
Sc0 O19 2.105 . S
Sc1 O3 2.025 . S
Sc1 O11 2.114 . S
Sc1 O15 2.096 1_554 S
Sc1 O17 2.114 . S
Sc1 O21 2.096 1_554 S
Sc2 O3 2.025 1_556 S
Sc2 O12 2.105 . S
Sc2 O14 2.105 . S
Sc2 O18 2.105 . S
Sc2 O20 2.105 . S
O3 Sc0 2.025 . S
O3 Sc1 2.025 . S
O3 Sc2 2.025 1_554 S
C4 O10 1.268 . S
C4 O20 1.268 1_554 S
C5 O11 1.268 . S
C5 O19 1.268 . S
C6 O12 1.268 . S
C6 O21 1.268 . S
C7 O13 1.268 . S
C7 O17 1.268 . S
C8 O14 1.268 1_554 S
C8 O16 1.268 . S
C9 O15 1.268 . S
C9 O18 1.268 . S
O10 Sc0 2.105 . S
O10 C4 1.268 . S
O11 Sc1 2.114 . S
O11 C5 1.268 . S
O12 Sc2 2.105 . S
O12 C6 1.268 . S
O13 Sc0 2.105 . S
O13 C7 1.268 . S
O14 Sc2 2.105 . S
O14 C8 1.268 1_556 S
O15 Sc1 2.096 1_556 S
O15 C9 1.268 . S
O16 Sc0 2.105 . S
O16 C8 1.268 . S
O17 Sc1 2.114 . S
O17 C7 1.268 . S
O18 Sc2 2.105 . S
O18 C9 1.268 . S
O19 Sc0 2.105 . S
O19 C5 1.268 . S
O20 Sc2 2.105 . S
O20 C4 1.268 1_556 S
O21 Sc1 2.096 1_556 S
O21 C6 1.268 . S
Sc22 O25 2.025 . S
Sc22 O32 2.105 . S
Sc22 O35 2.105 . S
Sc22 O38 2.105 . S
Sc22 O41 2.105 . S
Sc23 O25 2.025 . S
Sc23 O33 2.105 . S
Sc23 O37 2.105 . S
Sc23 O39 2.105 . S
Sc23 O43 2.105 . S
Sc24 O25 2.025 . S
Sc24 O34 2.105 . S
Sc24 O36 2.105 . S
Sc24 O40 2.105 . S
Sc24 O42 2.105 . S
O25 Sc22 2.025 . S
O25 Sc23 2.025 . S
O25 Sc24 2.025 . S
C26 O32 1.268 . S
C26 O42 1.268 . S
C27 O33 1.268 . S
C27 O41 1.268 . S
C28 O34 1.268 . S
C28 O43 1.268 . S
C29 O35 1.268 . S
C29 O39 1.268 . S
C30 O36 1.268 . S
C30 O38 1.268 . S
C31 O37 1.268 . S
C31 O40 1.268 . S
O32 Sc22 2.105 . S
O32 C26 1.268 . S
O33 Sc23 2.105 . S
O33 C27 1.268 . S
O34 Sc24 2.105 . S
O34 C28 1.268 . S
O35 Sc22 2.105 . S
O35 C29 1.268 . S
O36 Sc24 2.105 . S
O36 C30 1.268 . S
O37 Sc23 2.105 . S
O37 C31 1.268 . S
O38 Sc22 2.105 . S
O38 C30 1.268 . S
O39 Sc23 2.105 . S
O39 C29 1.268 . S
O40 Sc24 2.105 . S
O40 C31 1.268 . S
O41 Sc22 2.105 . S
O41 C27 1.268 . S
O42 Sc24 2.105 . S
O42 C26 1.268 . S
O43 Sc23 2.105 . S
O43 C28 1.268 . S
Sc44 O47 2.025 1_556 S
Sc44 O54 2.105 . S
Sc44 O57 2.105 . S
Sc44 O60 2.105 . S
Sc44 O63 2.105 . S
Sc45 O47 2.025 . S
Sc45 O55 2.105 1_554 S
Sc45 O59 2.105 . S
Sc45 O61 2.105 1_554 S
Sc45 O65 2.105 . S
Sc46 O47 2.025 . S
Sc46 O56 2.105 . S
Sc46 O58 2.105 . S
Sc46 O62 2.105 . S
Sc46 O64 2.105 . S
O47 Sc44 2.025 1_554 S
O47 Sc45 2.025 . S
O47 Sc46 2.025 . S
C48 O54 1.268 1_554 S
C48 O64 1.268 . S
C49 O55 1.268 . S
C49 O63 1.268 . S
C50 O56 1.268 . S
C50 O65 1.268 . S
C51 O57 1.268 . S
C51 O61 1.268 . S
C52 O58 1.268 . S
C52 O60 1.268 1_554 S
C53 O59 1.268 . S
C53 O62 1.268 . S
O54 Sc44 2.105 . S
O54 C48 1.268 1_556 S
O55 Sc45 2.105 1_556 S
O55 C49 1.268 . S
O56 Sc46 2.105 . S
O56 C50 1.268 . S
O57 Sc44 2.105 . S
O57 C51 1.268 . S
O58 Sc46 2.105 . S
O58 C52 1.268 . S
O59 Sc45 2.105 . S
O59 C53 1.268 . S
O60 Sc44 2.105 . S
O60 C52 1.268 1_556 S
O61 Sc45 2.105 1_556 S
O61 C51 1.268 . S
O62 Sc46 2.105 . S
O62 C53 1.268 . S
O63 Sc44 2.105 . S
O63 C49 1.268 . S
O64 Sc46 2.105 . S
O64 C48 1.268 . S
O65 Sc45 2.105 . S
O65 C50 1.268 . S
Sc66 O69 2.025 . S
Sc66 O76 2.105 . S
Sc66 O79 2.105 . S
Sc66 O82 2.105 . S
Sc66 O85 2.105 . S
Sc67 O69 2.025 . S
Sc67 O77 2.105 . S
Sc67 O81 2.105 . S
Sc67 O83 2.105 . S
Sc67 O87 2.105 . S
Sc68 O69 2.025 . S
Sc68 O78 2.105 . S
Sc68 O80 2.105 . S
Sc68 O84 2.105 . S
Sc68 O86 2.105 . S
O69 Sc66 2.025 . S
O69 Sc67 2.025 . S
O69 Sc68 2.025 . S
C70 O76 1.268 . S
C70 O86 1.268 . S
C71 O77 1.268 . S
C71 O85 1.268 . S
C72 O78 1.268 . S
C72 O87 1.268 . S
C73 O79 1.268 . S
C73 O83 1.268 . S
C74 O80 1.268 . S
C74 O82 1.268 . S
C75 O81 1.268 . S
C75 O84 1.268 . S
O76 Sc66 2.105 . S
O76 C70 1.268 . S
O77 Sc67 2.105 . S
O77 C71 1.268 . S
O78 Sc68 2.105 . S
O78 C72 1.268 . S
O79 Sc66 2.105 . S
O79 C73 1.268 . S
O80 Sc68 2.105 . S
O80 C74 1.268 . S
O81 Sc67 2.105 . S
O81 C75 1.268 . S
O82 Sc66 2.105 . S
O82 C74 1.268 . S
O83 Sc67 2.105 . S
O83 C73 1.268 . S
O84 Sc68 2.105 . S
O84 C75 1.268 . S
O85 Sc66 2.105 . S
O85 C71 1.268 . S
O86 Sc68 2.105 . S
O86 C70 1.268 . S
O87 Sc67 2.105 . S
O87 C72 1.268 . S
H88 C89 0.949 . S
C89 H88 0.949 . S
C89 C90 1.395 . S
C89 C91 1.391 1_554 S
C90 C89 1.395 . S
C90 C93 1.390 . S
C91 C89 1.391 1_556 S
C91 C95 1.387 . S
C91 C96 1.491 . S
H92 C93 0.950 . S
C93 C90 1.390 . S
C93 H92 0.950 . S
C93 C94 1.378 1_554 S
C94 C93 1.378 1_556 S
C94 C95 1.409 . S
C95 C91 1.387 . S
C95 C94 1.409 . S
C95 H97 0.951 . S
C96 C91 1.491 . S
C96 C98 1.382 1_556 S
C96 C100 1.404 . S
H97 C95 0.951 . S
C98 C96 1.382 1_554 S
C98 C99 1.390 1_554 S
C98 H103 0.949 . S
C99 C98 1.390 1_556 S
C99 C104 1.399 . S
C100 C96 1.404 . S
C100 H101 0.950 . S
C100 C102 1.375 . S
H101 C100 0.950 . S
C102 C100 1.375 . S
C102 C104 1.382 . S
C102 H106 0.950 . S
H103 C98 0.949 . S
C104 C99 1.399 . S
C104 C102 1.382 . S
C104 H105 0.952 . S
H105 C104 0.952 . S
H106 C102 0.950 . S
H107 C108 0.949 . S
C108 H107 0.949 . S
C108 C109 1.395 . S
C108 C110 1.391 . S
C109 C108 1.395 . S
C109 C112 1.390 . S
C110 C108 1.391 . S
C110 C114 1.387 . S
C110 C115 1.491 1_655 S
H111 C112 0.950 . S
C112 C109 1.390 . S
C112 H111 0.950 . S
C112 C113 1.378 . S
C113 C112 1.378 . S
C113 C114 1.409 . S
C114 C110 1.387 . S
C114 C113 1.409 . S
C114 H116 0.951 . S
C115 C110 1.491 1_455 S
C115 C117 1.382 . S
C115 C119 1.404 . S
H116 C114 0.951 . S
C117 C115 1.382 . S
C117 C118 1.390 . S
C117 H122 0.949 . S
C118 C117 1.390 . S
C118 C123 1.399 . S
C119 C115 1.404 . S
C119 H120 0.950 . S
C119 C121 1.375 . S
H120 C119 0.950 . S
C121 C119 1.375 . S
C121 C123 1.382 . S
C121 H125 0.950 . S
H122 C117 0.949 . S
C123 C118 1.399 . S
C123 C121 1.382 . S
C123 H124 0.952 . S
H124 C123 0.952 . S
H125 C121 0.950 . S
H126 C127 0.949 . S
C127 H126 0.949 . S
C127 C128 1.395 . S
C127 C129 1.391 1_556 S
C128 C127 1.395 . S
C128 C131 1.390 1_556 S
C129 C127 1.391 1_554 S
C129 C133 1.387 . S
C129 C134 1.491 . S
H130 C131 0.950 . S
C131 C128 1.390 1_554 S
C131 H130 0.950 . S
C131 C132 1.378 . S
C132 C131 1.378 . S
C132 C133 1.409 . S
C133 C129 1.387 . S
C133 C132 1.409 . S
C133 H135 0.951 . S
C134 C129 1.491 . S
C134 C136 1.382 . S
C134 C138 1.404 . S
H135 C133 0.951 . S
C136 C134 1.382 . S
C136 C137 1.390 . S
C136 H141 0.949 1_554 S
C137 C136 1.390 . S
C137 C142 1.399 . S
C138 C134 1.404 . S
C138 H139 0.950 . S
C138 C140 1.375 . S
H139 C138 0.950 . S
C140 C138 1.375 . S
C140 C142 1.382 . S
C140 H144 0.950 . S
H141 C136 0.949 1_556 S
C142 C137 1.399 . S
C142 C140 1.382 . S
C142 H143 0.952 . S
H143 C142 0.952 . S
H144 C140 0.950 . S
H145 C146 0.949 . S
C146 H145 0.949 . S
C146 C147 1.395 . S
C146 C148 1.391 . S
C147 C146 1.395 . S
C147 C150 1.390 . S
C148 C146 1.391 . S
C148 C152 1.387 . S
C148 C153 1.491 1_455 S
H149 C150 0.950 . S
C150 C147 1.390 . S
C150 H149 0.950 . S
C150 C151 1.378 . S
C151 C150 1.378 . S
C151 C152 1.409 . S
C152 C148 1.387 . S
C152 C151 1.409 . S
C152 H154 0.951 . S
C153 C148 1.491 1_655 S
C153 C155 1.382 . S
C153 C157 1.404 . S
H154 C152 0.951 . S
C155 C153 1.382 . S
C155 C156 1.390 . S
C155 H160 0.949 . S
C156 C155 1.390 . S
C156 C161 1.399 . S
C157 C153 1.404 . S
C157 H158 0.950 . S
C157 C159 1.375 . S
H158 C157 0.950 . S
C159 C157 1.375 . S
C159 C161 1.382 . S
C159 H163 0.950 . S
H160 C155 0.949 . S
C161 C156 1.399 . S
C161 C159 1.382 . S
C161 H162 0.952 . S
H162 C161 0.952 . S
H163 C159 0.950 . S
H164 C165 0.949 . S
C165 H164 0.949 . S
C165 C166 1.395 . S
C165 C167 1.391 . S
C166 C165 1.395 . S
C166 C169 1.390 . S
C167 C165 1.391 . S
C167 C171 1.387 . S
C167 C172 1.491 1_565 S
H168 C169 0.950 . S
C169 C166 1.390 . S
C169 H168 0.950 . S
C169 C170 1.378 . S
C170 C169 1.378 . S
C170 C171 1.409 . S
C171 C167 1.387 . S
C171 C170 1.409 . S
C171 H173 0.951 . S
C172 C167 1.491 1_545 S
C172 C174 1.382 . S
C172 C176 1.404 . S
H173 C171 0.951 . S
C174 C172 1.382 . S
C174 C175 1.390 . S
C174 H179 0.949 . S
C175 C174 1.390 . S
C175 C180 1.399 . S
C176 C172 1.404 . S
C176 H177 0.950 . S
C176 C178 1.375 . S
H177 C176 0.950 . S
C178 C176 1.375 . S
C178 C180 1.382 . S
C178 H182 0.950 . S
H179 C174 0.949 . S
C180 C175 1.399 . S
C180 C178 1.382 . S
C180 H181 0.952 . S
H181 C180 0.952 . S
H182 C178 0.950 . S
H183 C184 0.949 . S
C184 H183 0.949 . S
C184 C185 1.395 . S
C184 C186 1.391 1_554 S
C185 C184 1.395 . S
C185 C188 1.390 . S
C186 C184 1.391 1_556 S
C186 C190 1.387 . S
C186 C191 1.491 . S
H187 C188 0.950 . S
C188 C185 1.390 . S
C188 H187 0.950 . S
C188 C189 1.378 1_554 S
C189 C188 1.378 1_556 S
C189 C190 1.409 . S
C190 C186 1.387 . S
C190 C189 1.409 . S
C190 H192 0.951 . S
C191 C186 1.491 . S
C191 C193 1.382 1_556 S
C191 C195 1.404 . S
H192 C190 0.951 . S
C193 C191 1.382 1_554 S
C193 C194 1.390 1_554 S
C193 H198 0.949 . S
C194 C193 1.390 1_556 S
C194 C199 1.399 . S
C195 C191 1.404 . S
C195 H196 0.950 . S
C195 C197 1.375 . S
H196 C195 0.950 . S
C197 C195 1.375 . S
C197 C199 1.382 . S
C197 H201 0.950 . S
H198 C193 0.949 . S
C199 C194 1.399 . S
C199 C197 1.382 . S
C199 H200 0.952 . S
H200 C199 0.952 . S
H201 C197 0.950 . S
H202 C203 0.949 . S
C203 H202 0.949 . S
C203 C204 1.395 . S
C203 C205 1.391 . S
C204 C203 1.395 . S
C204 C207 1.390 . S
C205 C203 1.391 . S
C205 C209 1.387 . S
C205 C210 1.491 1_545 S
H206 C207 0.950 . S
C207 C204 1.390 . S
C207 H206 0.950 . S
C207 C208 1.378 . S
C208 C207 1.378 . S
C208 C209 1.409 . S
C209 C205 1.387 . S
C209 C208 1.409 . S
C209 H211 0.951 . S
C210 C205 1.491 1_565 S
C210 C212 1.382 . S
C210 C214 1.404 . S
H211 C209 0.951 . S
C212 C210 1.382 . S
C212 C213 1.390 . S
C212 H217 0.949 . S
C213 C212 1.390 . S
C213 C218 1.399 . S
C214 C210 1.404 . S
C214 H215 0.950 . S
C214 C216 1.375 . S
H215 C214 0.950 . S
C216 C214 1.375 . S
C216 C218 1.382 . S
C216 H220 0.950 . S
H217 C212 0.949 . S
C218 C213 1.399 . S
C218 C216 1.382 . S
C218 H219 0.952 . S
H219 C218 0.952 . S
H220 C216 0.950 . S
H221 C222 0.949 . S
C222 H221 0.949 . S
C222 C223 1.395 . S
C222 C224 1.391 1_556 S
C223 C222 1.395 . S
C223 C226 1.390 1_556 S
C224 C222 1.391 1_554 S
C224 C228 1.387 . S
C224 C229 1.491 . S
H225 C226 0.950 . S
C226 C223 1.390 1_554 S
C226 H225 0.950 . S
C226 C227 1.378 . S
C227 C226 1.378 . S
C227 C228 1.409 . S
C228 C224 1.387 . S
C228 C227 1.409 . S
C228 H230 0.951 . S
C229 C224 1.491 . S
C229 C231 1.382 . S
C229 C233 1.404 . S
H230 C228 0.951 . S
C231 C229 1.382 . S
C231 C232 1.390 . S
C231 H236 0.949 1_554 S
C232 C231 1.390 . S
C232 C237 1.399 . S
C233 C229 1.404 . S
C233 H234 0.950 . S
C233 C235 1.375 . S
H234 C233 0.950 . S
C235 C233 1.375 . S
C235 C237 1.382 . S
C235 H239 0.950 . S
H236 C231 0.949 1_556 S
C237 C232 1.399 . S
C237 C235 1.382 . S
C237 H238 0.952 . S
H238 C237 0.952 . S
H239 C235 0.950 . S
C240 C241 1.369 . S
C240 C242 1.419 . S
C240 H244 0.930 . S
C241 C240 1.369 . S
C241 C250 1.429 . S
C242 C240 1.419 . S
C242 C243 1.363 . S
C242 H245 0.929 . S
C243 C242 1.363 . S
C243 C249 1.428 . S
H244 C240 0.930 . S
H245 C242 0.929 . S
S246 N247 1.613 . S
S246 N248 1.610 . S
N247 S246 1.613 . S
N247 C250 1.350 . S
N248 S246 1.610 . S
N248 C249 1.351 . S
C249 C243 1.428 . S
C249 N248 1.351 . S
C249 C250 1.434 . S
C250 C241 1.429 . S
C250 N247 1.350 . S
C250 C249 1.434 . S
C251 C252 1.369 . S
C251 C253 1.419 . S
C251 H255 0.930 . S
C252 C251 1.369 . S
C252 C261 1.429 . S
C253 C251 1.419 . S
C253 C254 1.363 . S
C253 H256 0.929 . S
C254 C253 1.363 . S
C254 C260 1.428 . S
H255 C251 0.930 . S
H256 C253 0.929 . S
S257 N258 1.613 . S
S257 N259 1.610 . S
N258 S257 1.613 . S
N258 C261 1.350 . S
N259 S257 1.610 . S
N259 C260 1.351 . S
C260 C254 1.428 . S
C260 N259 1.351 . S
C260 C261 1.434 . S
C261 C252 1.429 . S
C261 N258 1.350 . S
C261 C260 1.434 . S
C262 C263 1.369 . S
C262 C264 1.419 . S
C262 H266 0.930 . S
C263 C262 1.369 . S
C263 C272 1.429 . S
C264 C262 1.419 . S
C264 C265 1.363 . S
C264 H267 0.929 . S
C265 C264 1.363 . S
C265 C271 1.428 . S
H266 C262 0.930 . S
H267 C264 0.929 . S
S268 N269 1.613 . S
S268 N270 1.610 . S
N269 S268 1.613 . S
N269 C272 1.350 . S
N270 S268 1.610 . S
N270 C271 1.351 . S
C271 C265 1.428 . S
C271 N270 1.351 . S
C271 C272 1.434 . S
C272 C263 1.429 . S
C272 N269 1.350 . S
C272 C271 1.434 . S
C273 C274 1.369 . S
C273 C275 1.419 . S
C273 H277 0.930 . S
C274 C273 1.369 . S
C274 C283 1.429 . S
C275 C273 1.419 . S
C275 C276 1.363 . S
C275 H278 0.929 . S
C276 C275 1.363 . S
C276 C282 1.428 . S
H277 C273 0.930 . S
H278 C275 0.929 . S
S279 N280 1.613 . S
S279 N281 1.610 . S
N280 S279 1.613 . S
N280 C283 1.350 . S
N281 S279 1.610 . S
N281 C282 1.351 . S
C282 C276 1.428 . S
C282 N281 1.351 . S
C282 C283 1.434 . S
C283 C274 1.429 . S
C283 N280 1.350 . S
C283 C282 1.434 . S
C284 C285 1.369 . S
C284 C286 1.419 . S
C284 H288 0.930 . S
C285 C284 1.369 . S
C285 C294 1.429 . S
C286 C284 1.419 . S
C286 C287 1.363 . S
C286 H289 0.929 . S
C287 C286 1.363 . S
C287 C293 1.428 . S
H288 C284 0.930 . S
H289 C286 0.929 . S
S290 N291 1.613 . S
S290 N292 1.610 . S
N291 S290 1.613 . S
N291 C294 1.350 . S
N292 S290 1.610 . S
N292 C293 1.351 . S
C293 C287 1.428 . S
C293 N292 1.351 . S
C293 C294 1.434 . S
C294 C285 1.429 . S
C294 N291 1.350 . S
C294 C293 1.434 . S
C295 C296 1.369 . S
C295 C297 1.419 . S
C295 H299 0.930 . S
C296 C295 1.369 . S
C296 C305 1.429 . S
C297 C295 1.419 . S
C297 C298 1.363 . S
C297 H300 0.929 . S
C298 C297 1.363 . S
C298 C304 1.428 . S
H299 C295 0.930 . S
H300 C297 0.929 . S
S301 N302 1.613 . S
S301 N303 1.610 . S
N302 S301 1.613 . S
N302 C305 1.350 . S
N303 S301 1.610 . S
N303 C304 1.351 . S
C304 C298 1.428 . S
C304 N303 1.351 . S
C304 C305 1.434 . S
C305 C296 1.429 . S
C305 N302 1.350 . S
C305 C304 1.434 . S
C306 C307 1.369 . S
C306 C308 1.419 . S
C306 H310 0.930 . S
C307 C306 1.369 . S
C307 C316 1.429 . S
C308 C306 1.419 . S
C308 C309 1.363 . S
C308 H311 0.929 . S
C309 C308 1.363 . S
C309 C315 1.428 . S
H310 C306 0.930 . S
H311 C308 0.929 . S
S312 N313 1.613 . S
S312 N314 1.610 . S
N313 S312 1.613 . S
N313 C316 1.350 . S
N314 S312 1.610 . S
N314 C315 1.351 . S
C315 C309 1.428 . S
C315 N314 1.351 . S
C315 C316 1.434 . S
C316 C307 1.429 . S
C316 N313 1.350 . S
C316 C315 1.434 . S
C317 C318 1.369 . S
C317 C319 1.419 . S
C317 H321 0.930 . S
C318 C317 1.369 . S
C318 C327 1.429 . S
C319 C317 1.419 . S
C319 C320 1.363 . S
C319 H322 0.929 . S
C320 C319 1.363 . S
C320 C326 1.428 . S
H321 C317 0.930 . S
H322 C319 0.929 . S
S323 N324 1.613 . S
S323 N325 1.610 . S
N324 S323 1.613 . S
N324 C327 1.350 . S
N325 S323 1.610 . S
N325 C326 1.351 . S
C326 C320 1.428 . S
C326 N325 1.351 . S
C326 C327 1.434 . S
C327 C318 1.429 . S
C327 N324 1.350 . S
C327 C326 1.434 . S
C328 C329 1.369 . S
C328 C330 1.419 . S
C328 H332 0.930 . S
C329 C328 1.369 . S
C329 C338 1.429 . S
C330 C328 1.419 . S
C330 C331 1.363 . S
C330 H333 0.929 . S
C331 C330 1.363 . S
C331 C337 1.428 . S
H332 C328 0.930 . S
H333 C330 0.929 . S
S334 N335 1.613 . S
S334 N336 1.610 . S
N335 S334 1.613 . S
N335 C338 1.350 . S
N336 S334 1.610 . S
N336 C337 1.351 . S
C337 C331 1.428 . S
C337 N336 1.351 . S
C337 C338 1.434 . S
C338 C329 1.429 . S
C338 N335 1.350 . S
C338 C337 1.434 . S
C339 C340 1.369 . S
C339 C341 1.419 . S
C339 H343 0.930 . S
C340 C339 1.369 . S
C340 C349 1.429 . S
C341 C339 1.419 . S
C341 C342 1.363 . S
C341 H344 0.929 . S
C342 C341 1.363 . S
C342 C348 1.428 . S
H343 C339 0.930 . S
H344 C341 0.929 . S
S345 N346 1.613 . S
S345 N347 1.610 . S
N346 S345 1.613 . S
N346 C349 1.350 . S
N347 S345 1.610 . S
N347 C348 1.351 . S
C348 C342 1.428 . S
C348 N347 1.351 . S
C348 C349 1.434 . S
C349 C340 1.429 . S
C349 N346 1.350 . S
C349 C348 1.434 . S
C350 C351 1.369 . S
C350 C352 1.419 . S
C350 H354 0.930 . S
C351 C350 1.369 . S
C351 C360 1.429 . S
C352 C350 1.419 . S
C352 C353 1.363 . S
C352 H355 0.929 . S
C353 C352 1.363 . S
C353 C359 1.428 . S
H354 C350 0.930 . S
H355 C352 0.929 . S
S356 N357 1.613 . S
S356 N358 1.610 . S
N357 S356 1.613 . S
N357 C360 1.350 . S
N358 S356 1.610 . S
N358 C359 1.351 . S
C359 C353 1.428 . S
C359 N358 1.351 . S
C359 C360 1.434 . S
C360 C351 1.429 . S
C360 N357 1.350 . S
C360 C359 1.434 . S
C361 C362 1.369 . S
C361 C363 1.419 . S
C361 H365 0.930 . S
C362 C361 1.369 . S
C362 C371 1.429 . S
C363 C361 1.419 . S
C363 C364 1.363 . S
C363 H366 0.929 . S
C364 C363 1.363 . S
C364 C370 1.428 . S
H365 C361 0.930 . S
H366 C363 0.929 . S
S367 N368 1.613 . S
S367 N369 1.610 . S
N368 S367 1.613 . S
N368 C371 1.350 . S
N369 S367 1.610 . S
N369 C370 1.351 . S
C370 C364 1.428 . S
C370 N369 1.351 . S
C370 C371 1.434 . S
C371 C362 1.429 . S
C371 N368 1.350 . S
C371 C370 1.434 . S
C372 C373 1.369 . S
C372 C374 1.419 . S
C372 H376 0.930 . S
C373 C372 1.369 . S
C373 C382 1.429 . S
C374 C372 1.419 . S
C374 C375 1.363 . S
C374 H377 0.929 . S
C375 C374 1.363 . S
C375 C381 1.428 . S
H376 C372 0.930 . S
H377 C374 0.929 . S
S378 N379 1.613 . S
S378 N380 1.610 . S
N379 S378 1.613 . S
N379 C382 1.350 . S
N380 S378 1.610 . S
N380 C381 1.351 . S
C381 C375 1.428 . S
C381 N380 1.351 . S
C381 C382 1.434 . S
C382 C373 1.429 . S
C382 N379 1.350 . S
C382 C381 1.434 . S
C383 C384 1.369 . S
C383 C385 1.419 . S
C383 H387 0.930 . S
C384 C383 1.369 . S
C384 C393 1.429 . S
C385 C383 1.419 . S
C385 C386 1.363 . S
C385 H388 0.929 . S
C386 C385 1.363 . S
C386 C392 1.428 . S
H387 C383 0.930 . S
H388 C385 0.929 . S
S389 N390 1.613 . S
S389 N391 1.610 . S
N390 S389 1.613 . S
N390 C393 1.350 . S
N391 S389 1.610 . S
N391 C392 1.351 . S
C392 C386 1.428 . S
C392 N391 1.351 . S
C392 C393 1.434 . S
C393 C384 1.429 . S
C393 N390 1.350 . S
C393 C392 1.434 . S
C394 C395 1.369 . S
C394 C396 1.419 . S
C394 H398 0.930 . S
C395 C394 1.369 . S
C395 C404 1.429 . S
C396 C394 1.419 . S
C396 C397 1.363 . S
C396 H399 0.929 . S
C397 C396 1.363 . S
C397 C403 1.428 . S
H398 C394 0.930 . S
H399 C396 0.929 . S
S400 N401 1.613 . S
S400 N402 1.610 . S
N401 S400 1.613 . S
N401 C404 1.350 . S
N402 S400 1.610 . S
N402 C403 1.351 . S
C403 C397 1.428 . S
C403 N402 1.351 . S
C403 C404 1.434 . S
C404 C395 1.429 . S
C404 N401 1.350 . S
C404 C403 1.434 . S
C405 C406 1.369 . S
C405 C407 1.419 . S
C405 H409 0.930 . S
C406 C405 1.369 . S
C406 C415 1.429 . S
C407 C405 1.419 . S
C407 C408 1.363 . S
C407 H410 0.929 . S
C408 C407 1.363 . S
C408 C414 1.428 . S
H409 C405 0.930 . S
H410 C407 0.929 . S
S411 N412 1.613 . S
S411 N413 1.610 . S
N412 S411 1.613 . S
N412 C415 1.350 . S
N413 S411 1.610 . S
N413 C414 1.351 . S
C414 C408 1.428 . S
C414 N413 1.351 . S
C414 C415 1.434 . S
C415 C406 1.429 . S
C415 N412 1.350 . S
C415 C414 1.434 . S
C416 C417 1.369 . S
C416 C418 1.419 . S
C416 H420 0.930 . S
C417 C416 1.369 . S
C417 C426 1.429 1_554 S
C418 C416 1.419 . S
C418 C419 1.363 . S
C418 H421 0.929 . S
C419 C418 1.363 . S
C419 C425 1.428 1_554 S
H420 C416 0.930 . S
H421 C418 0.929 . S
S422 N423 1.613 . S
S422 N424 1.610 . S
N423 S422 1.613 . S
N423 C426 1.350 . S
N424 S422 1.610 . S
N424 C425 1.351 . S
C425 C419 1.428 1_556 S
C425 N424 1.351 . S
C425 C426 1.434 . S
C426 C417 1.429 1_556 S
C426 N423 1.350 . S
C426 C425 1.434 . S
C427 C428 1.369 . S
C427 C429 1.419 . S
C427 H431 0.930 . S
C428 C427 1.369 . S
C428 C437 1.429 . S
C429 C427 1.419 . S
C429 C430 1.363 . S
C429 H432 0.929 . S
C430 C429 1.363 . S
C430 C436 1.428 . S
H431 C427 0.930 . S
H432 C429 0.929 . S
S433 N434 1.613 . S
S433 N435 1.610 . S
N434 S433 1.613 . S
N434 C437 1.350 . S
N435 S433 1.610 . S
N435 C436 1.351 . S
C436 C430 1.428 . S
C436 N435 1.351 . S
C436 C437 1.434 . S
C437 C428 1.429 . S
C437 N434 1.350 . S
C437 C436 1.434 . S
C438 C439 1.369 1_556 S
C438 C440 1.419 . S
C438 H442 0.930 . S
C439 C438 1.369 1_554 S
C439 C448 1.429 . S
C440 C438 1.419 . S
C440 C441 1.363 1_556 S
C440 H443 0.929 . S
C441 C440 1.363 1_554 S
C441 C447 1.428 . S
H442 C438 0.930 . S
H443 C440 0.929 . S
S444 N445 1.613 . S
S444 N446 1.610 . S
N445 S444 1.613 . S
N445 C448 1.350 . S
N446 S444 1.610 . S
N446 C447 1.351 . S
C447 C441 1.428 . S
C447 N446 1.351 . S
C447 C448 1.434 . S
C448 C439 1.429 . S
C448 N445 1.350 . S
C448 C447 1.434 . S
C449 C450 1.369 . S
C449 C451 1.419 . S
C449 H453 0.930 . S
C450 C449 1.369 . S
C450 C459 1.429 . S
C451 C449 1.419 . S
C451 C452 1.363 . S
C451 H454 0.929 . S
C452 C451 1.363 . S
C452 C458 1.428 . S
H453 C449 0.930 . S
H454 C451 0.929 . S
S455 N456 1.613 . S
S455 N457 1.610 . S
N456 S455 1.613 . S
N456 C459 1.350 . S
N457 S455 1.610 . S
N457 C458 1.351 . S
C458 C452 1.428 . S
C458 N457 1.351 . S
C458 C459 1.434 . S
C459 C450 1.429 . S
C459 N456 1.350 . S
C459 C458 1.434 . S
C460 C461 1.369 . S
C460 C462 1.419 . S
C460 H464 0.930 . S
C461 C460 1.369 . S
C461 C470 1.429 . S
C462 C460 1.419 . S
C462 C463 1.363 . S
C462 H465 0.929 . S
C463 C462 1.363 . S
C463 C469 1.428 . S
H464 C460 0.930 . S
H465 C462 0.929 . S
S466 N467 1.613 . S
S466 N468 1.610 . S
N467 S466 1.613 . S
N467 C470 1.350 . S
N468 S466 1.610 . S
N468 C469 1.351 . S
C469 C463 1.428 . S
C469 N468 1.351 . S
C469 C470 1.434 . S
C470 C461 1.429 . S
C470 N467 1.350 . S
C470 C469 1.434 . S
C471 C472 1.369 1_556 S
C471 C473 1.419 . S
C471 H475 0.930 . S
C472 C471 1.369 1_554 S
C472 C481 1.429 . S
C473 C471 1.419 . S
C473 C474 1.363 1_556 S
C473 H476 0.929 . S
C474 C473 1.363 1_554 S
C474 C480 1.428 . S
H475 C471 0.930 . S
H476 C473 0.929 . S
S477 N478 1.613 . S
S477 N479 1.610 . S
N478 S477 1.613 . S
N478 C481 1.350 . S
N479 S477 1.610 . S
N479 C480 1.351 . S
C480 C474 1.428 . S
C480 N479 1.351 . S
C480 C481 1.434 . S
C481 C472 1.429 . S
C481 N478 1.350 . S
C481 C480 1.434 . S
C482 C483 1.369 . S
C482 C484 1.419 . S
C482 H486 0.930 . S
C483 C482 1.369 . S
C483 C492 1.429 . S
C484 C482 1.419 . S
C484 C485 1.363 . S
C484 H487 0.929 . S
C485 C484 1.363 . S
C485 C491 1.428 . S
H486 C482 0.930 . S
H487 C484 0.929 . S
S488 N489 1.613 . S
S488 N490 1.610 . S
N489 S488 1.613 . S
N489 C492 1.350 . S
N490 S488 1.610 . S
N490 C491 1.351 . S
C491 C485 1.428 . S
C491 N490 1.351 . S
C491 C492 1.434 . S
C492 C483 1.429 . S
C492 N489 1.350 . S
C492 C491 1.434 . S
C493 C494 1.369 . S
C493 C495 1.419 . S
C493 H497 0.930 . S
C494 C493 1.369 . S
C494 C503 1.428 1_554 S
C495 C493 1.419 . S
C495 C496 1.363 . S
C495 H498 0.929 . S
C496 C495 1.363 . S
C496 C502 1.428 1_554 S
H497 C493 0.930 . S
H498 C495 0.929 . S
S499 N500 1.613 . S
S499 N501 1.610 . S
N500 S499 1.613 . S
N500 C503 1.351 . S
N501 S499 1.610 . S
N501 C502 1.351 . S
C502 C496 1.428 1_556 S
C502 N501 1.351 . S
C502 C503 1.434 . S
C503 C494 1.428 1_556 S
C503 N500 1.351 . S
C503 C502 1.434 . S
C241 C5 1.473 . S
C243 C151 1.483 . S
C252 C31 1.503 . S
C254 C94 1.505 . S
C265 C109 1.496 . S
C263 C53 1.541 . S
C274 C71 1.513 . S
C276 C128 1.477 . S
C287 C185 1.473 . S
C285 C75 1.509 . S
C298 C204 1.496 . S
C296 C9 1.541 . S
C309 C227 1.502 . S
C307 C27 1.501 . S
C320 C170 1.483 . S
C318 C49 1.472 . S
C329 C51 1.471 . S
C331 C113 1.485 . S
C340 C72 1.500 . S
C342 C132 1.505 . S
C351 C6 1.539 . S
C353 C147 1.492 . S
C364 C90 1.478 . S
C362 C29 1.513 . S
C373 C28 1.511 . S
C375 C223 1.477 . S
C386 C166 1.497 . S
C384 C50 1.541 . S
C397 C189 1.507 . S
C395 C73 1.503 . S
C406 C7 1.471 . S
C408 C208 1.485 . S
C419 C99 1.366 1_554 S
C417 C4 1.517 . S
C430 C118 1.426 . S
C428 C30 1.516 . S
C439 C52 1.517 . S
C441 C137 1.424 . S
C450 C70 1.512 . S
C452 C156 1.364 . S
C463 C175 1.369 . S
C461 C74 1.516 . S
C472 C8 1.515 . S
C474 C194 1.432 1_554 S
C483 C26 1.515 . S
C485 C213 1.426 . S
C494 C48 1.518 . S
C496 C232 1.370 . S
