# Generated by pormake.
# Topology nom, (4,4)-cn, num edge types: 1
# Building blocks:
#     Node 0, Type 0, BuildingBlock: KUFVIS_clean_linker_0, # of connection points: 4
#     Node 1, Type 0, BuildingBlock: KUFVIS_clean_linker_0, # of connection points: 4
#     Node 2, Type 0, BuildingBlock: KUFVIS_clean_linker_0, # of connection points: 4
#     Node 3, Type 0, BuildingBlock: KUFVIS_clean_linker_0, # of connection points: 4
#     Node 4, Type 0, BuildingBlock: KUFVIS_clean_linker_0, # of connection points: 4
#     Node 5, Type 0, BuildingBlock: KUFVIS_clean_linker_0, # of connection points: 4
#     Node 6, Type 1, BuildingBlock: AZAVOO_clean_sbu_0, # of connection points: 4
#     Node 7, Type 1, BuildingBlock: AZAVOO_clean_sbu_0, # of connection points: 4
#     Node 8, Type 1, BuildingBlock: AZAVOO_clean_sbu_0, # of connection points: 4
#     Node 9, Type 1, BuildingBlock: AZAVOO_clean_sbu_0, # of connection points: 4
#     Node 10, Type 1, BuildingBlock: AZAVOO_clean_sbu_0, # of connection points: 4
#     Node 11, Type 1, BuildingBlock: AZAVOO_clean_sbu_0, # of connection points: 4
#     Edge 12, Type (0, 1), BuildingBlock: CIFDUS_clean_linker_0, # of connection points: 2
#     Edge 13, Type (0, 1), BuildingBlock: CIFDUS_clean_linker_0, # of connection points: 2
#     Edge 14, Type (0, 1), BuildingBlock: CIFDUS_clean_linker_0, # of connection points: 2
#     Edge 15, Type (0, 1), BuildingBlock: CIFDUS_clean_linker_0, # of connection points: 2
#     Edge 16, Type (0, 1), BuildingBlock: CIFDUS_clean_linker_0, # of connection points: 2
#     Edge 17, Type (0, 1), BuildingBlock: CIFDUS_clean_linker_0, # of connection points: 2
#     Edge 18, Type (0, 1), BuildingBlock: CIFDUS_clean_linker_0, # of connection points: 2
#     Edge 19, Type (0, 1), BuildingBlock: CIFDUS_clean_linker_0, # of connection points: 2
#     Edge 20, Type (0, 1), BuildingBlock: CIFDUS_clean_linker_0, # of connection points: 2
#     Edge 21, Type (0, 1), BuildingBlock: CIFDUS_clean_linker_0, # of connection points: 2
#     Edge 22, Type (0, 1), BuildingBlock: CIFDUS_clean_linker_0, # of connection points: 2
#     Edge 23, Type (0, 1), BuildingBlock: CIFDUS_clean_linker_0, # of connection points: 2
#     Edge 24, Type (0, 1), BuildingBlock: CIFDUS_clean_linker_0, # of connection points: 2
#     Edge 25, Type (0, 1), BuildingBlock: CIFDUS_clean_linker_0, # of connection points: 2
#     Edge 26, Type (0, 1), BuildingBlock: CIFDUS_clean_linker_0, # of connection points: 2
#     Edge 27, Type (0, 1), BuildingBlock: CIFDUS_clean_linker_0, # of connection points: 2
#     Edge 28, Type (0, 1), BuildingBlock: CIFDUS_clean_linker_0, # of connection points: 2
#     Edge 29, Type (0, 1), BuildingBlock: CIFDUS_clean_linker_0, # of connection points: 2
#     Edge 30, Type (0, 1), BuildingBlock: CIFDUS_clean_linker_0, # of connection points: 2
#     Edge 31, Type (0, 1), BuildingBlock: CIFDUS_clean_linker_0, # of connection points: 2
#     Edge 32, Type (0, 1), BuildingBlock: CIFDUS_clean_linker_0, # of connection points: 2
#     Edge 33, Type (0, 1), BuildingBlock: CIFDUS_clean_linker_0, # of connection points: 2
#     Edge 34, Type (0, 1), BuildingBlock: CIFDUS_clean_linker_0, # of connection points: 2
#     Edge 35, Type (0, 1), BuildingBlock: CIFDUS_clean_linker_0, # of connection points: 2
# Relax obj value: 0.031
# Max RMSD: 0.160
# Mean RMSD: 0.094
data_MOF--net-nom--node1-AZAVOO_clean_sbu_0--node2-KUFVIS_clean_linker_0--edge1-CIFDUS_clean_linker_0
_symmetry_space_group_name_H-M    P1
_symmetry_Int_Tables_number       1
_symmetry_cell_setting            triclinic
loop_
_symmetry_equiv_pos_as_xyz
'x, y, z'
_cell_length_a     40.277933
_cell_length_b     40.860344
_cell_length_c     40.011067
_cell_angle_alpha  91.428947
_cell_angle_beta   91.930605
_cell_angle_gamma 119.98956
loop_
_atom_site_label
_atom_site_type_symbol
_atom_site_fract_x
_atom_site_fract_y
_atom_site_fract_z
_atom_type_partial_charge
H0 H 0.14621 0.60364 0.34715 0.0
H1 H 0.0565 0.57665 0.27241 0.0
H2 H 0.02915 0.53316 0.37137 0.0
H3 H 0.97724 0.54094 0.3599 0.0
H4 H 0.88636 0.48699 0.28391 0.0
H5 H 1.00138 0.52188 0.25857 0.0
C6 C 0.11595 0.58846 0.33939 0.0
C7 C 0.08911 0.56772 0.36278 0.0
C8 C 0.10463 0.59099 0.30657 0.0
C9 C 0.06519 0.57363 0.29749 0.0
C10 C 0.03721 0.55267 0.32065 0.0
C11 C 0.04976 0.54984 0.35335 0.0
C12 C 0.99516 0.53377 0.3107 0.0
C13 C 0.96807 0.52994 0.33431 0.0
C14 C 0.92882 0.51228 0.32471 0.0
C15 C 0.91661 0.49971 0.29145 0.0
C16 C 0.94267 0.5038 0.2676 0.0
C17 C 0.98172 0.51991 0.27727 0.0
H18 H 0.57534 0.13747 0.51139 0.0
H19 H 0.506 0.04877 0.43795 0.0
H20 H 0.51918 0.02229 0.53978 0.0
H21 H 0.45976 0.97032 0.52412 0.0
H22 H 0.42095 0.8841 0.44575 0.0
H23 H 0.51171 0.99621 0.42851 0.0
C24 C 0.55691 0.10766 0.50458 0.0
C25 C 0.54809 0.08132 0.52929 0.0
C26 C 0.54183 0.0963 0.47161 0.0
C27 C 0.51857 0.05751 0.46322 0.0
C28 C 0.51062 0.03011 0.4873 0.0
C29 C 0.52498 0.04251 0.52067 0.0
C30 C 0.48747 0.98893 0.47704 0.0
C31 C 0.46213 0.96195 0.49883 0.0
C32 C 0.43868 0.92399 0.48748 0.0
C33 C 0.44025 0.91316 0.45442 0.0
C34 C 0.46658 0.93875 0.43286 0.0
C35 C 0.49041 0.97649 0.44459 0.0
H36 H 0.56464 0.41979 0.58981 0.0
H37 H 0.51741 0.4567 0.66637 0.0
H38 H 0.52774 0.49908 0.56689 0.0
H39 H 0.47139 0.4971 0.58144 0.0
H40 H 0.46287 0.56961 0.65567 0.0
H41 H 0.52915 0.51696 0.67939 0.0
C42 C 0.55167 0.43638 0.59733 0.0
C43 C 0.54639 0.45872 0.57419 0.0
C44 C 0.54151 0.43573 0.6304 0.0
C45 C 0.52581 0.45798 0.6408 0.0
C46 C 0.52026 0.48097 0.61795 0.0
C47 C 0.5311 0.48128 0.5847 0.0
C48 C 0.50371 0.50499 0.62857 0.0
C49 C 0.4797 0.51123 0.60607 0.0
C50 C 0.46569 0.53528 0.61552 0.0
C51 C 0.47512 0.55249 0.64771 0.0
C52 C 0.49708 0.54522 0.67088 0.0
C53 C 0.51161 0.52177 0.6613 0.0
H54 H 0.15739 0.60695 0.79399 0.0
H55 H 0.08137 0.52349 0.85927 0.0
H56 H 0.03793 0.54153 0.76515 0.0
H57 H 0.9961 0.47984 0.76867 0.0
H58 H 0.90987 0.42248 0.83881 0.0
H59 H 0.02129 0.51082 0.87484 0.0
C60 C 0.1284 0.58657 0.80029 0.0
C61 C 0.09815 0.5762 0.77662 0.0
C62 C 0.12256 0.56777 0.83014 0.0
C63 C 0.08538 0.53906 0.83683 0.0
C64 C 0.05394 0.52969 0.81397 0.0
C65 C 0.06097 0.54857 0.78372 0.0
C66 C 0.01423 0.49942 0.82088 0.0
C67 C 0.98776 0.47672 0.79434 0.0
C68 C 0.95002 0.44975 0.80085 0.0
C69 C 0.93906 0.44372 0.83384 0.0
C70 C 0.96488 0.46501 0.86046 0.0
C71 C 1.00211 0.49344 0.85403 0.0
H72 H 0.42812 0.8925 0.00361 0.0
H73 H 0.51008 0.97527 0.9408 0.0
H74 H 0.4801 0.01037 0.03218 0.0
H75 H 0.54872 0.05727 0.02732 0.0
H76 H 0.58617 0.14292 0.95488 0.0
H77 H 0.50245 0.02857 0.92475 0.0
C78 C 0.44747 0.92176 -0.00179 0.0
C79 C 0.45174 0.95042 0.02086 0.0
C80 C 0.46885 0.93016 0.96957 0.0
C81 C 0.4933 0.96836 0.96282 0.0
C82 C 0.49726 0.99769 0.98504 0.0
C83 C 0.47691 0.98834 0.01449 0.0
C84 C 0.52206 0.03799 0.97716 0.0
C85 C 0.54678 0.06544 0.00209 0.0
C86 C 0.56946 0.1035 -0.00584 0.0
C87 C 0.56785 0.11378 0.96135 0.0
C88 C 0.54423 0.08684 0.93638 0.0
C89 C 0.52098 0.04914 0.94428 0.0
H90 H 0.48158 0.61833 0.10311 0.0
H91 H 0.51713 0.56801 0.17808 0.0
H92 H 0.51981 0.54181 0.07275 0.0
H93 H 0.56947 0.53504 0.09228 0.0
H94 H 0.57324 0.4578 0.16083 0.0
H95 H 0.50705 0.50994 0.18319 0.0
C96 C 0.49274 0.59986 0.10955 0.0
C97 C 0.50158 0.58183 0.08418 0.0
C98 C 0.49744 0.59407 0.14314 0.0
C99 C 0.51214 0.57062 0.1518 0.0
C100 C 0.52051 0.55118 0.12665 0.0
C101 C 0.51448 0.55673 0.09268 0.0
C102 C 0.5352 0.52516 0.13584 0.0
C103 C 0.5599 0.51965 0.11488 0.0
C104 C 0.57394 0.49554 0.12389 0.0
C105 C 0.56266 0.4765 0.1536 0.0
C106 C 0.5396 0.48255 0.1752 0.0
C107 C 0.52553 0.50639 0.16626 0.0
Mg108 Mg 0.62809 0.36359 0.34723 0.0
O109 O 0.61209 0.38875 0.39086 0.0
O110 O 0.63055 0.44926 0.38307 0.0
Mg111 Mg 0.65816 0.46234 0.33234 0.0
C112 C 0.6146 0.41996 0.40039 0.0
C113 C 0.60582 0.28087 0.36715 0.0
O114 O 0.60425 0.27467 0.33461 0.0
O115 O 0.69132 0.39621 0.36496 0.0
O116 O 0.70878 0.45547 0.3525 0.0
O117 O 0.57163 0.3458 0.32143 0.0
O118 O 0.62375 0.40161 0.31631 0.0
C119 C 0.7169 0.43104 0.36352 0.0
C120 C 0.58742 0.37935 0.3099 0.0
O121 O 0.61618 0.31395 0.37895 0.0
Mg122 Mg 0.27697 0.64977 0.58637 0.0
O123 O 0.23794 0.62137 0.53867 0.0
O124 O 0.20433 0.55899 0.54621 0.0
Mg125 Mg 0.2207 0.54782 0.59809 0.0
C126 C 0.21306 0.58756 0.52867 0.0
C127 C 0.29405 0.72131 0.54885 0.0
O128 O 0.25634 0.70273 0.54766 0.0
O129 O 0.31703 0.6276 0.5719 0.0
O130 O 0.28219 0.5664 0.58274 0.0
O131 O 0.23138 0.65686 0.60918 0.0
O132 O 0.23722 0.60618 0.61407 0.0
C133 C 0.31324 0.5947 0.57374 0.0
C134 C 0.21823 0.62323 0.61999 0.0
O135 O 0.31202 0.70601 0.56159 0.0
Mg136 Mg 0.65128 0.27232 0.74857 0.0
O137 O 0.64025 0.23224 0.70247 0.0
O138 O 0.67364 0.20279 0.71301 0.0
Mg139 Mg 0.70218 0.22035 0.76538 0.0
C140 C 0.6515 0.20906 0.69412 0.0
C141 C 0.63876 0.33894 0.73279 0.0
O142 O 0.66386 0.35259 0.75848 0.0
O143 O 0.71317 0.31291 0.73472 0.0
O144 O 0.74211 0.28032 0.74887 0.0
O145 O 0.60027 0.22648 0.77229 0.0
O146 O 0.65904 0.23573 0.77856 0.0
C147 C 0.74331 0.31009 0.73822 0.0
C148 C 0.62329 0.2158 0.7846 0.0
O149 O 0.62796 0.30572 0.72093 0.0
Mg150 Mg 0.41424 0.65652 0.85725 0.0
O151 O 0.42823 0.62614 0.89853 0.0
O152 O 0.40678 0.56661 0.87925 0.0
Mg153 Mg 0.38133 0.55933 0.82596 0.0
C154 C 0.42315 0.5929 0.90215 0.0
C155 C 0.43283 0.73684 0.88011 0.0
O156 O 0.43256 0.73826 0.84733 0.0
O157 O 0.35046 0.62387 0.86827 0.0
O158 O 0.33211 0.5663 0.84592 0.0
O159 O 0.47078 0.67498 0.83506 0.0
O160 O 0.41789 0.62064 0.82181 0.0
C161 C 0.32447 0.5897 0.86066 0.0
C162 C 0.45412 0.64252 0.81869 0.0
O163 O 0.42578 0.70602 0.89311 0.0
Mg164 Mg 0.76937 0.39912 0.03968 0.0
O165 O 0.80912 0.40835 0.08606 0.0
O166 O 0.84 0.37663 0.07604 0.0
Mg167 Mg 0.82173 0.34921 0.02317 0.0
C168 C 0.83315 0.39798 0.09493 0.0
C169 C 0.71528 0.43117 0.05174 0.0
O170 O 0.71259 0.4268 0.01893 0.0
O171 O 0.72764 0.33782 0.0518 0.0
O172 O 0.75981 0.30847 0.03807 0.0
O173 O 0.81621 0.45055 0.01866 0.0
O174 O 0.8074 0.39303 0.00977 0.0
C175 C 0.72959 0.30768 0.04802 0.0
C176 C 0.82791 0.42891 0.00584 0.0
O177 O 0.7362 0.42143 0.06837 0.0
Mg178 Mg 0.38416 0.76686 0.19808 0.0
O179 O 0.41092 0.80143 0.24762 0.0
O180 O 0.47039 0.84813 0.23836 0.0
Mg181 Mg 0.48343 0.84081 0.18469 0.0
C182 C 0.44264 0.83076 0.25745 0.0
C183 C 0.29938 0.71635 0.216 0.0
O184 O 0.29615 0.7374 0.1933 0.0
O185 O 0.41896 0.73706 0.20607 0.0
O186 O 0.47792 0.78359 0.19619 0.0
O187 O 0.36535 0.80761 0.18191 0.0
O188 O 0.42177 0.81354 0.1724 0.0
C189 C 0.45485 0.74951 0.20352 0.0
C190 C 0.39924 0.82732 0.17074 0.0
O191 O 0.33254 0.72139 0.22407 0.0
H192 H 0.17109 0.59043 0.29928 0.0
H193 H 0.10644 0.64058 0.26035 0.0
H194 H 0.16032 0.68208 0.227 0.0
H195 H 0.22778 0.70784 0.21289 0.0
H196 H 0.29348 0.66053 0.25575 0.0
H197 H 0.2374 0.61481 0.28429 0.0
C198 C 0.16873 0.61052 0.28358 0.0
C199 C 0.13488 0.6127 0.28272 0.0
C200 C 0.20024 0.63519 0.26558 0.0
C201 C 0.132 0.63811 0.26143 0.0
C202 C 0.16298 0.66214 0.24262 0.0
C203 C 0.22979 0.68738 0.22832 0.0
C204 C 0.2649 0.68778 0.23232 0.0
C205 C 0.19755 0.66152 0.24513 0.0
C206 C 0.26696 0.66108 0.25243 0.0
C207 C 0.23486 0.63485 0.26869 0.0
H208 H 0.54639 0.16451 0.48109 0.0
H209 H 0.55716 0.09376 0.40534 0.0
H210 H 0.57658 0.1441 0.36576 0.0
H211 H 0.59383 0.20971 0.35374 0.0
H212 H 0.58771 0.28106 0.43192 0.0
H213 H 0.56445 0.22933 0.46978 0.0
C214 C 0.55343 0.1601 0.45607 0.0
C215 C 0.55072 0.12546 0.44644 0.0
C216 C 0.56594 0.18952 0.43396 0.0
C217 C 0.5587 0.11999 0.41346 0.0
C218 C 0.57019 0.14892 0.39089 0.0
C219 C 0.58742 0.21388 0.37906 0.0
C220 C 0.59266 0.24927 0.38997 0.0
C221 C 0.57444 0.18403 0.40103 0.0
C222 C 0.58428 0.25426 0.4229 0.0
C223 C 0.57077 0.22463 0.44457 0.0
H224 H 0.47067 0.60071 0.59653 0.0
H225 H 0.3966 0.47971 0.58875 0.0
H226 H 0.34264 0.48749 0.56972 0.0
H227 H 0.31457 0.52883 0.56553 0.0
H228 H 0.3888 0.65007 0.57467 0.0
H229 H 0.44464 0.64211 0.58237 0.0
C230 C 0.44295 0.5761 0.58958 0.0
C231 C 0.43743 0.53971 0.59423 0.0
C232 C 0.41193 0.58087 0.57952 0.0
C233 C 0.40154 0.50797 0.58516 0.0
C234 C 0.37059 0.51246 0.5747 0.0
C235 C 0.34303 0.55356 0.56849 0.0
C236 C 0.34729 0.59 0.57024 0.0
C237 C 0.37508 0.54878 0.57336 0.0
C238 C 0.3845 0.62169 0.57349 0.0
C239 C 0.41652 0.61717 0.57809 0.0
H240 H 0.89294 0.46044 0.77755 0.0
H241 H 0.94031 0.38704 0.76698 0.0
H242 H 0.88011 0.33794 0.73898 0.0
H243 H 0.81073 0.31193 0.72931 0.0
H244 H 0.7624 0.38447 0.7428 0.0
H245 H 0.82636 0.43827 0.75682 0.0
C246 C 0.89044 0.43426 0.76773 0.0
C247 C 0.9207 0.42711 0.77407 0.0
C248 C 0.85535 0.40585 0.75277 0.0
C249 C 0.91736 0.39307 0.76191 0.0
C250 C 0.88281 0.36492 0.74631 0.0
C251 C 0.81431 0.33976 0.73439 0.0
C252 C 0.78174 0.34398 0.73583 0.0
C253 C 0.85103 0.3703 0.74335 0.0
C254 C 0.7869 0.38032 0.74179 0.0
C255 C 0.82348 0.41107 0.75011 0.0
H256 H 0.4654 0.86526 -0.01096 0.0
H257 H 0.46557 0.92399 0.90081 0.0
H258 H 0.4558 0.86986 0.86536 0.0
H259 H 0.44397 0.80463 0.85965 0.0
H260 H 0.44093 0.74534 0.94839 0.0
H261 H 0.45418 0.80073 0.98344 0.0
C262 C 0.46297 0.86619 0.96204 0.0
C263 C 0.46577 0.89858 0.94766 0.0
C264 C 0.45648 0.83472 0.94192 0.0
C265 C 0.46372 0.89959 0.91259 0.0
C266 C 0.45782 0.86851 0.89232 0.0
C267 C 0.44627 0.8038 0.88666 0.0
C268 C 0.4413 0.77071 0.90134 0.0
C269 C 0.45366 0.83573 0.90674 0.0
C270 C 0.44444 0.77027 0.93639 0.0
C271 C 0.45209 0.80198 0.95647 0.0
H272 H 0.63823 0.49617 0.1467 0.0
H273 H 0.57121 0.48285 0.05575 0.0
H274 H 0.61084 0.4638 0.02469 0.0
H275 H 0.6606 0.44516 0.02486 0.0
H276 H 0.72365 0.45436 0.11746 0.0
H277 H 0.68874 0.47986 0.14661 0.0
C278 C 0.63225 0.48911 0.12003 0.0
C279 C 0.6014 0.4903 0.10364 0.0
C280 C 0.65401 0.4768 0.10281 0.0
C281 C 0.59478 0.48219 0.06894 0.0
C282 C 0.61718 0.47091 0.05129 0.0
C283 C 0.66683 0.45291 0.05138 0.0
C284 C 0.69454 0.44754 0.06899 0.0
C285 C 0.6462 0.46714 0.06818 0.0
C286 C 0.70227 0.45782 0.10334 0.0
C287 C 0.68242 0.47256 0.12003 0.0
H288 H 0.3623 0.87653 0.47856 0.0
H289 H 0.46012 0.90266 0.54433 0.0
H290 H 0.42344 0.84164 0.57014 0.0
H291 H 0.36597 0.77777 0.56889 0.0
H292 H 0.26838 0.75223 0.50268 0.0
H293 H 0.30265 0.81583 0.48171 0.0
C294 C 0.3751 0.86921 0.49925 0.0
C295 C 0.41371 0.89387 0.50964 0.0
C296 C 0.35426 0.83377 0.51312 0.0
C297 C 0.43025 0.88425 0.53629 0.0
C298 C 0.40948 0.84913 0.55061 0.0
C299 C 0.35228 0.78621 0.54988 0.0
C300 C 0.31498 0.76014 0.53686 0.0
C301 C 0.37195 0.82309 0.53831 0.0
C302 C 0.29719 0.77167 0.51284 0.0
C303 C 0.31671 0.80806 0.50093 0.0
H304 H 0.59573 0.45888 0.68114 0.0
H305 H 0.50514 0.35931 0.62839 0.0
H306 H 0.52665 0.31987 0.65607 0.0
H307 H 0.5749 0.31468 0.69127 0.0
H308 H 0.66644 0.41459 0.7434 0.0
H309 H 0.64123 0.45289 0.71993 0.0
C310 C 0.58012 0.4284 0.67663 0.0
C311 C 0.54863 0.41179 0.65328 0.0
C312 C 0.59341 0.40612 0.69189 0.0
C313 C 0.52909 0.37245 0.64677 0.0
C314 C 0.54167 0.35002 0.66227 0.0
C315 C 0.5893 0.34481 0.69753 0.0
C316 C 0.62278 0.36176 0.71874 0.0
C317 C 0.57447 0.36669 0.68413 0.0
C318 C 0.64075 0.40079 0.72698 0.0
C319 C 0.6263 0.42276 0.71363 0.0
H320 H 0.14607 0.51783 0.84299 0.0
H321 H 0.17724 0.63437 0.86045 0.0
H322 H 0.24297 0.65086 0.87721 0.0
H323 H 0.29365 0.63409 0.87635 0.0
H324 H 0.26286 0.5179 0.855 0.0
H325 H 0.19515 0.49929 0.85079 0.0
C326 C 0.16693 0.54648 0.85181 0.0
C327 C 0.157 0.57486 0.85062 0.0
C328 C 0.20505 0.556 0.85992 0.0
C329 C 0.18436 0.61209 0.86142 0.0
C330 C 0.22201 0.62156 0.87061 0.0
C331 C 0.27212 0.60455 0.87156 0.0
C332 C 0.28353 0.57763 0.86531 0.0
C333 C 0.23311 0.59409 0.86832 0.0
C334 C 0.25507 0.53942 0.85935 0.0
C335 C 0.21623 0.52867 0.85691 0.0
H336 H 0.56777 0.16459 0.01908 0.0
H337 H 0.63565 0.11006 0.02041 0.0
H338 H 0.69179 0.16887 0.04266 0.0
H339 H 0.7237 0.23822 0.0512 0.0
H340 H 0.65544 0.29274 0.04874 0.0
H341 H 0.5973 0.23155 0.03818 0.0
C342 C 0.59451 0.16531 0.02561 0.0
C343 C 0.59774 0.13322 0.01829 0.0
C344 C 0.62678 0.19946 0.03751 0.0
C345 C 0.63249 0.13436 0.02631 0.0
C346 C 0.66469 0.16814 0.03856 0.0
C347 C 0.69603 0.23667 0.04912 0.0
C348 C 0.69417 0.27025 0.05004 0.0
C349 C 0.66259 0.2013 0.04265 0.0
C350 C 0.65793 0.26754 0.04787 0.0
C351 C 0.62457 0.23249 0.04163 0.0
H352 H 0.54229 0.66313 0.1727 0.0
H353 H 0.42692 0.5686 0.16659 0.0
H354 H 0.40331 0.60816 0.19108 0.0
H355 H 0.41422 0.67222 0.20319 0.0
H356 H 0.52985 0.76736 0.20639 0.0
H357 H 0.55469 0.7251 0.1948 0.0
C358 C 0.5123 0.651 0.17819 0.0
C359 C 0.48632 0.6132 0.16828 0.0
C360 C 0.49887 0.67427 0.19101 0.0
C361 C 0.44735 0.59762 0.17461 0.0
C362 C 0.43385 0.62036 0.18816 0.0
C363 C 0.44493 0.68363 0.20223 0.0
C364 C 0.46996 0.72304 0.20477 0.0
C365 C 0.45909 0.65918 0.19481 0.0
C366 C 0.50975 0.73723 0.20381 0.0
C367 C 0.52408 0.71308 0.19715 0.0
H368 H 0.87894 0.44811 0.35294 0.0
H369 H 0.91032 0.56476 0.34464 0.0
H370 H 0.84691 0.55055 0.36199 0.0
H371 H 0.77915 0.50254 0.36756 0.0
H372 H 0.74736 0.38509 0.37337 0.0
H373 H 0.81427 0.40201 0.36967 0.0
C374 C 0.87236 0.47063 0.35656 0.0
C375 C 0.89909 0.50742 0.34786 0.0
C376 C 0.83539 0.46187 0.36522 0.0
C377 C 0.89028 0.53639 0.35181 0.0
C378 C 0.85382 0.5281 0.36118 0.0
C379 C 0.78691 0.4807 0.36881 0.0
C380 C 0.75797 0.44245 0.36986 0.0
C381 C 0.82551 0.49055 0.36609 0.0
C382 C 0.76879 0.4147 0.3721 0.0
C383 C 0.80714 0.42432 0.36986 0.0
H384 H 0.14664 0.55422 0.37969 0.0
H385 H 0.06423 0.57866 0.42274 0.0
H386 H 0.09523 0.58652 0.47849 0.0
H387 H 0.14901 0.59106 0.51427 0.0
H388 H 0.23199 0.56829 0.47032 0.0
H389 H 0.19818 0.55603 0.4153 0.0
C390 C 0.13534 0.56109 0.40133 0.0
C391 C 0.10342 0.56621 0.3971 0.0
C392 C 0.1539 0.56657 0.43293 0.0
C393 C 0.08861 0.57435 0.42539 0.0
C394 C 0.1066 0.57928 0.45717 0.0
C395 C 0.15953 0.58348 0.49249 0.0
C396 C 0.19302 0.58101 0.49581 0.0
C397 C 0.13979 0.57631 0.4611 0.0
C398 C 0.20643 0.57071 0.46791 0.0
C399 C 0.18704 0.56356 0.43663 0.0
H400 H 0.62144 0.12879 0.55137 0.0
H401 H 0.5061 0.0677 0.58452 0.0
H402 H 0.52774 0.10298 0.63884 0.0
H403 H 0.57906 0.15487 0.67519 0.0
H404 H 0.69449 0.21431 0.6421 0.0
H405 H 0.67329 0.17673 0.589 0.0
C406 C 0.60125 0.1228 0.57078 0.0
C407 C 0.56231 0.09584 0.56414 0.0
C408 C 0.61378 0.1436 0.60148 0.0
C409 C 0.5363 0.08808 0.58934 0.0
C410 C 0.54858 0.1086 0.62015 0.0
C411 C 0.59931 0.15961 0.6561 0.0
C412 C 0.63797 0.18772 0.66181 0.0
C413 C 0.58706 0.13713 0.62614 0.0
C414 C 0.66445 0.19316 0.63767 0.0
C415 C 0.65241 0.17155 0.60754 0.0
H416 H 0.53084 0.61769 0.69514 0.0
H417 H 0.46637 0.50227 0.72396 0.0
H418 H 0.45041 0.52299 0.77588 0.0
H419 H 0.44542 0.57281 0.80741 0.0
H420 H 0.51028 0.68836 0.77875 0.0
H421 H 0.5361 0.66902 0.73267 0.0
C422 C 0.5146 0.59738 0.71352 0.0
C423 C 0.49964 0.55862 0.70595 0.0
C424 C 0.50496 0.60946 0.74287 0.0
C425 C 0.47841 0.53229 0.72959 0.0
C426 C 0.46886 0.54409 0.75899 0.0
C427 C 0.46562 0.59373 0.79133 0.0
C428 C 0.47525 0.63173 0.79577 0.0
C429 C 0.48038 0.58239 0.76501 0.0
C430 C 0.5023 0.65887 0.77553 0.0
C431 C 0.51693 0.64782 0.74913 0.0
H432 H 0.95415 0.51147 0.90232 0.0
H433 H 0.94233 0.40085 0.89321 0.0
H434 H 0.90201 0.38092 0.94135 0.0
H435 H 0.86185 0.3918 0.97929 0.0
H436 H 0.87124 0.50167 0.98722 0.0
H437 H 0.92097 0.52523 0.94654 0.0
C438 C 0.94382 0.48353 0.91178 0.0
C439 C 0.95101 0.45758 0.89456 0.0
C440 C 0.91956 0.47191 0.93871 0.0
C441 C 0.93712 0.42119 0.90642 0.0
C442 C 0.91382 0.40973 0.93366 0.0
C443 C 0.87525 0.42108 0.97268 0.0
C444 C 0.86236 0.44469 0.98586 0.0
C445 C 0.90346 0.43431 0.94899 0.0
C446 C 0.88035 0.48273 0.97718 0.0
C447 C 0.90878 0.49625 0.95386 0.0
H448 H 0.48683 0.9629 0.08177 0.0
H449 H 0.37524 0.91043 0.03051 0.0
H450 H 0.34643 0.87199 0.07855 0.0
H451 H 0.35626 0.84298 0.12823 0.0
H452 H 0.4693 0.89132 0.17627 0.0
H453 H 0.49436 0.942 0.137 0.0
C454 C 0.45598 0.94428 0.08189 0.0
C455 C 0.43307 0.93918 0.0529 0.0
C456 C 0.44015 0.92078 0.10871 0.0
C457 C 0.39322 0.91466 0.05281 0.0
C458 C 0.3769 0.89242 0.08007 0.0
C459 C 0.38605 0.86541 0.13072 0.0
C460 C 0.41124 0.86303 0.1543 0.0
C461 C 0.40049 0.89357 0.1072 0.0
C462 C 0.44975 0.89205 0.1575 0.0
C463 C 0.46404 0.92108 0.13514 0.0
H464 H 0.50394 0.40923 0.19091 0.0
H465 H 0.56986 0.52296 0.23368 0.0
H466 H 0.58754 0.49989 0.28316 0.0
H467 H 0.59483 0.44907 0.30788 0.0
H468 H 0.52924 0.33531 0.26478 0.0
H469 H 0.50035 0.35638 0.22194 0.0
C470 C 0.52069 0.42859 0.21184 0.0
C471 C 0.53581 0.46761 0.20885 0.0
C472 C 0.53167 0.41523 0.23959 0.0
C473 C 0.55771 0.49275 0.23577 0.0
C474 C 0.56834 0.47962 0.26375 0.0
C475 C 0.57383 0.42891 0.28937 0.0
C476 C 0.56496 0.39101 0.28871 0.0
C477 C 0.55732 0.44124 0.26492 0.0
C478 C 0.53677 0.36476 0.26541 0.0
C479 C 0.52033 0.3768 0.24089 0.0
H480 H 0.45431 0.86924 0.41155 0.0
H481 H 0.48291 0.97868 0.37535 0.0
H482 H 0.48135 0.95558 0.31826 0.0
H483 H 0.4673 0.90294 0.27803 0.0
H484 H 0.42826 0.79152 0.31384 0.0
H485 H 0.43678 0.81636 0.37178 0.0
C486 C 0.45944 0.88807 0.3913 0.0
C487 C 0.4683 0.92569 0.39811 0.0
C488 C 0.45609 0.87401 0.35835 0.0
C489 C 0.47651 0.94977 0.37126 0.0
C490 C 0.47516 0.93645 0.33844 0.0
C491 C 0.4608 0.88427 0.29866 0.0
C492 C 0.44737 0.84563 0.29207 0.0
C493 C 0.46436 0.89848 0.33167 0.0
C494 C 0.4385 0.82136 0.31862 0.0
C495 C 0.4435 0.83558 0.35161 0.0
H496 H 0.53243 0.3974 0.53585 0.0
H497 H 0.58556 0.51881 0.53429 0.0
H498 H 0.61012 0.51756 0.47934 0.0
H499 H 0.62021 0.48205 0.43372 0.0
H500 H 0.5696 0.36085 0.43825 0.0
H501 H 0.54122 0.36219 0.4905 0.0
C502 C 0.5495 0.42366 0.52355 0.0
C503 C 0.55755 0.45817 0.53929 0.0
C504 C 0.56445 0.42282 0.49271 0.0
C505 C 0.5788 0.49182 0.52263 0.0
C506 C 0.59315 0.49115 0.49138 0.0
C507 C 0.6029 0.45593 0.44609 0.0
C508 C 0.59735 0.42146 0.43209 0.0
C509 C 0.58679 0.45684 0.4765 0.0
C510 C 0.57473 0.38787 0.44849 0.0
C511 C 0.55829 0.38852 0.47837 0.0
H512 H 0.09688 0.53376 0.7244 0.0
H513 H 0.12421 0.64687 0.754 0.0
H514 H 0.15892 0.6707 0.7029 0.0
H515 H 0.19119 0.6607 0.65612 0.0
H516 H 0.17057 0.54851 0.63121 0.0
H517 H 0.12327 0.52267 0.67385 0.0
C518 C 0.1092 0.56335 0.71884 0.0
C519 C 0.10781 0.58861 0.74236 0.0
C520 C 0.13105 0.57699 0.69069 0.0
C521 C 0.12464 0.62706 0.73576 0.0
C522 C 0.1448 0.64063 0.70684 0.0
C523 C 0.17565 0.63047 0.65949 0.0
C524 C 0.18471 0.60658 0.64091 0.0
C525 C 0.14973 0.61611 0.68502 0.0
C526 C 0.16454 0.56753 0.64558 0.0
C527 C 0.13745 0.55274 0.66993 0.0
H528 H 0.60309 0.10547 0.89771 0.0
H529 H 0.49222 0.09683 0.89925 0.0
H530 H 0.50496 0.13237 0.84806 0.0
H531 H 0.55208 0.17416 0.80865 0.0
H532 H 0.66455 0.18525 0.81064 0.0
H533 H 0.64665 0.14006 0.85417 0.0
C534 C 0.58138 0.11049 0.88612 0.0
C535 C 0.5469 0.09881 0.90178 0.0
C536 C 0.58946 0.1318 0.85763 0.0
C537 C 0.51884 0.10548 0.88715 0.0
C538 C 0.52632 0.12605 0.85818 0.0
C539 C 0.57238 0.16608 0.81813 0.0
C540 C 0.60978 0.18347 0.80656 0.0
C541 C 0.5622 0.14067 0.84402 0.0
C542 C 0.63569 0.17259 0.81906 0.0
C543 C 0.62552 0.14676 0.84414 0.0
H544 H 0.4597 0.53071 0.03318 0.0
H545 H 0.5306 0.6503 0.05712 0.0
H546 H 0.51328 0.66448 0.0025 0.0
H547 H 0.47431 0.64304 0.94977 0.0
H548 H 0.40304 0.52339 0.92544 0.0
H549 H 0.42412 0.50911 0.97821 0.0
C550 C 0.47194 0.55978 0.02602 0.0
C551 C 0.49622 0.58943 0.04903 0.0
C552 C 0.46132 0.56775 -0.00525 0.0
C553 C 0.51166 0.62705 0.03974 0.0
C554 C 0.50165 0.63517 0.00863 0.0
C555 C 0.46339 0.61384 0.95597 0.0
C556 C 0.43681 0.5844 0.93382 0.0
C557 C 0.47576 0.60578 0.98627 0.0
C558 C 0.42342 0.54668 0.94208 0.0
C559 C 0.43547 0.53843 0.97227 0.0
H560 H 0.93516 0.44358 0.23052 0.0
H561 H 0.91491 0.53749 0.22753 0.0
H562 H 0.87854 0.51278 0.17384 0.0
H563 H 0.84923 0.46256 0.1296 0.0
H564 H 0.86932 0.36834 0.13184 0.0
H565 H 0.90863 0.39472 0.184 0.0
C566 C 0.92353 0.45894 0.21756 0.0
C567 C 0.92792 0.49242 0.23249 0.0
C568 C 0.90195 0.4441 0.187 0.0
C569 C 0.91213 0.51187 0.21606 0.0
C570 C 0.89107 0.49757 0.18561 0.0
C571 C 0.86201 0.44767 0.1416 0.0
C572 C 0.85591 0.41329 0.12709 0.0
C573 C 0.88508 0.46329 0.17122 0.0
C574 C 0.87337 0.39475 0.14261 0.0
C575 C 0.89597 0.40988 0.17238 0.0
loop_
_geom_bond_atom_site_label_1
_geom_bond_atom_site_label_2
_geom_bond_distance
_geom_bond_site_symmetry_2
_ccdc_geom_bond_type
H0 C6 0.930 . S
H1 C9 0.931 . S
H2 C11 0.931 . S
H3 C13 0.930 . S
H4 C15 0.930 . S
H5 C17 0.931 . S
C6 H0 0.930 . S
C6 C7 1.380 . S
C6 C8 1.394 . S
C7 C6 1.380 . S
C7 C11 1.382 . S
C8 C6 1.394 . S
C8 C9 1.400 . S
C9 H1 0.931 . S
C9 C8 1.400 . S
C9 C10 1.375 . S
C10 C9 1.375 . S
C10 C11 1.415 . S
C10 C12 1.501 1_455 S
C11 H2 0.931 . S
C11 C7 1.382 . S
C11 C10 1.415 . S
C12 C10 1.501 1_655 S
C12 C13 1.384 . S
C12 C17 1.408 . S
C13 H3 0.930 . S
C13 C12 1.384 . S
C13 C14 1.389 . S
C14 C13 1.389 . S
C14 C15 1.405 . S
C15 H4 0.930 . S
C15 C14 1.405 . S
C15 C16 1.364 . S
C16 C15 1.364 . S
C16 C17 1.400 . S
C17 H5 0.931 . S
C17 C12 1.408 . S
C17 C16 1.400 . S
H18 C24 0.930 . S
H19 C27 0.931 . S
H20 C29 0.931 . S
H21 C31 0.930 . S
H22 C33 0.930 . S
H23 C35 0.931 . S
C24 H18 0.930 . S
C24 C25 1.380 . S
C24 C26 1.394 . S
C25 C24 1.380 . S
C25 C29 1.382 . S
C26 C24 1.394 . S
C26 C27 1.400 . S
C27 H19 0.931 . S
C27 C26 1.400 . S
C27 C28 1.375 . S
C28 C27 1.375 . S
C28 C29 1.415 . S
C28 C30 1.501 1_545 S
C29 H20 0.931 . S
C29 C25 1.382 . S
C29 C28 1.415 . S
C30 C28 1.501 1_565 S
C30 C31 1.384 . S
C30 C35 1.408 . S
C31 H21 0.930 . S
C31 C30 1.384 . S
C31 C32 1.389 . S
C32 C31 1.389 . S
C32 C33 1.405 . S
C33 H22 0.930 . S
C33 C32 1.405 . S
C33 C34 1.364 . S
C34 C33 1.364 . S
C34 C35 1.400 . S
C35 H23 0.931 . S
C35 C30 1.408 . S
C35 C34 1.400 . S
H36 C42 0.930 . S
H37 C45 0.931 . S
H38 C47 0.931 . S
H39 C49 0.930 . S
H40 C51 0.930 . S
H41 C53 0.931 . S
C42 H36 0.930 . S
C42 C43 1.380 . S
C42 C44 1.394 . S
C43 C42 1.380 . S
C43 C47 1.382 . S
C44 C42 1.394 . S
C44 C45 1.400 . S
C45 H37 0.931 . S
C45 C44 1.400 . S
C45 C46 1.375 . S
C46 C45 1.375 . S
C46 C47 1.415 . S
C46 C48 1.501 . S
C47 H38 0.931 . S
C47 C43 1.382 . S
C47 C46 1.415 . S
C48 C46 1.501 . S
C48 C49 1.384 . S
C48 C53 1.408 . S
C49 H39 0.930 . S
C49 C48 1.384 . S
C49 C50 1.389 . S
C50 C49 1.389 . S
C50 C51 1.405 . S
C51 H40 0.930 . S
C51 C50 1.405 . S
C51 C52 1.364 . S
C52 C51 1.364 . S
C52 C53 1.400 . S
C53 H41 0.931 . S
C53 C48 1.408 . S
C53 C52 1.400 . S
H54 C60 0.930 . S
H55 C63 0.931 . S
H56 C65 0.931 . S
H57 C67 0.930 . S
H58 C69 0.930 . S
H59 C71 0.950 . S
C60 H54 0.930 . S
C60 C61 1.380 . S
C60 C62 1.394 . S
C61 C60 1.380 . S
C61 C65 1.382 . S
C62 C60 1.394 . S
C62 C63 1.400 . S
C63 H55 0.931 . S
C63 C62 1.400 . S
C63 C64 1.375 . S
C64 C63 1.375 . S
C64 C65 1.415 . S
C64 C66 1.501 1_455 S
C65 H56 0.931 . S
C65 C61 1.382 . S
C65 C64 1.415 . S
C66 C64 1.501 1_655 S
C66 C67 1.384 . S
C66 C71 1.408 . S
C67 H57 0.930 . S
C67 C66 1.384 . S
C67 C68 1.389 . S
C68 C67 1.389 . S
C68 C69 1.405 . S
C69 H58 0.930 . S
C69 C68 1.405 . S
C69 C70 1.364 . S
C70 C69 1.364 . S
C70 C71 1.400 . S
C71 H59 0.950 . S
C71 C66 1.408 . S
C71 C70 1.400 . S
H72 C78 0.930 . S
H73 C81 0.931 . S
H74 C83 0.931 1_545 S
H75 C85 0.930 . S
H76 C87 0.930 . S
H77 C89 0.931 . S
C78 H72 0.930 . S
C78 C79 1.380 . S
C78 C80 1.394 1_554 S
C79 C78 1.380 . S
C79 C83 1.382 . S
C80 C78 1.394 1_556 S
C80 C81 1.400 . S
C81 H73 0.931 . S
C81 C80 1.400 . S
C81 C82 1.375 . S
C82 C81 1.375 . S
C82 C83 1.415 1_556 S
C82 C84 1.501 1_565 S
C83 H74 0.931 1_565 S
C83 C79 1.382 . S
C83 C82 1.415 1_554 S
C84 C82 1.501 1_545 S
C84 C85 1.384 1_556 S
C84 C89 1.408 . S
C85 H75 0.930 . S
C85 C84 1.384 1_554 S
C85 C86 1.389 1_554 S
C86 C85 1.389 1_556 S
C86 C87 1.405 . S
C87 H76 0.930 . S
C87 C86 1.405 . S
C87 C88 1.364 . S
C88 C87 1.364 . S
C88 C89 1.400 . S
C89 H77 0.931 . S
C89 C84 1.408 . S
C89 C88 1.400 . S
H90 C96 0.930 . S
H91 C99 0.931 . S
H92 C101 0.931 . S
H93 C103 0.930 . S
H94 C105 0.930 . S
H95 C107 0.931 . S
C96 H90 0.930 . S
C96 C97 1.380 . S
C96 C98 1.394 . S
C97 C96 1.380 . S
C97 C101 1.382 . S
C98 C96 1.394 . S
C98 C99 1.400 . S
C99 H91 0.931 . S
C99 C98 1.400 . S
C99 C100 1.375 . S
C100 C99 1.375 . S
C100 C101 1.415 . S
C100 C102 1.501 . S
C101 H92 0.931 . S
C101 C97 1.382 . S
C101 C100 1.415 . S
C102 C100 1.501 . S
C102 C103 1.384 . S
C102 C107 1.408 . S
C103 H93 0.930 . S
C103 C102 1.384 . S
C103 C104 1.389 . S
C104 C103 1.389 . S
C104 C105 1.405 . S
C105 H94 0.930 . S
C105 C104 1.405 . S
C105 C106 1.364 . S
C106 C105 1.364 . S
C106 C107 1.400 . S
C107 H95 0.931 . S
C107 C102 1.408 . S
C107 C106 1.400 . S
Mg108 O109 2.028 . S
Mg108 O115 1.986 . S
Mg108 O117 2.114 . S
Mg108 O118 2.251 . S
Mg108 O121 2.010 . S
O109 Mg108 2.028 . S
O109 C112 1.250 . S
O110 Mg111 2.028 . S
O110 C112 1.248 . S
Mg111 O110 2.028 . S
Mg111 O116 2.032 . S
Mg111 O118 2.079 . S
C112 O109 1.250 . S
C112 O110 1.248 . S
C113 O114 1.264 . S
C113 O121 1.249 . S
O114 C113 1.264 . S
O115 Mg108 1.986 . S
O115 C119 1.246 . S
O116 Mg111 2.032 . S
O116 C119 1.259 . S
O117 Mg108 2.114 . S
O117 C120 1.252 . S
O118 Mg108 2.251 . S
O118 Mg111 2.079 . S
O118 C120 1.273 . S
C119 O115 1.246 . S
C119 O116 1.259 . S
C120 O117 1.252 . S
C120 O118 1.273 . S
O121 Mg108 2.010 . S
O121 C113 1.249 . S
Mg122 O123 2.028 . S
Mg122 O129 1.986 . S
Mg122 O131 2.114 . S
Mg122 O132 2.251 . S
Mg122 O135 2.010 . S
O123 Mg122 2.028 . S
O123 C126 1.250 . S
O124 Mg125 2.028 . S
O124 C126 1.248 . S
Mg125 O124 2.028 . S
Mg125 O130 2.032 . S
Mg125 O132 2.079 . S
C126 O123 1.250 . S
C126 O124 1.248 . S
C127 O128 1.264 . S
C127 O135 1.249 . S
O128 C127 1.264 . S
O129 Mg122 1.986 . S
O129 C133 1.246 . S
O130 Mg125 2.032 . S
O130 C133 1.259 . S
O131 Mg122 2.114 . S
O131 C134 1.252 . S
O132 Mg122 2.251 . S
O132 Mg125 2.079 . S
O132 C134 1.273 . S
C133 O129 1.246 . S
C133 O130 1.259 . S
C134 O131 1.252 . S
C134 O132 1.273 . S
O135 Mg122 2.010 . S
O135 C127 1.249 . S
Mg136 O137 2.028 . S
Mg136 O143 1.986 . S
Mg136 O145 2.114 . S
Mg136 O146 2.251 . S
Mg136 O149 2.010 . S
O137 Mg136 2.028 . S
O137 C140 1.250 . S
O138 Mg139 2.028 . S
O138 C140 1.248 . S
Mg139 O138 2.028 . S
Mg139 O144 2.032 . S
Mg139 O146 2.079 . S
C140 O137 1.250 . S
C140 O138 1.248 . S
C141 O142 1.264 . S
C141 O149 1.249 . S
O142 C141 1.264 . S
O143 Mg136 1.986 . S
O143 C147 1.246 . S
O144 Mg139 2.032 . S
O144 C147 1.259 . S
O145 Mg136 2.114 . S
O145 C148 1.252 . S
O146 Mg136 2.251 . S
O146 Mg139 2.079 . S
O146 C148 1.273 . S
C147 O143 1.246 . S
C147 O144 1.259 . S
C148 O145 1.252 . S
C148 O146 1.273 . S
O149 Mg136 2.010 . S
O149 C141 1.249 . S
Mg150 O151 2.028 . S
Mg150 O157 1.986 . S
Mg150 O159 2.114 . S
Mg150 O160 2.251 . S
Mg150 O163 2.010 . S
O151 Mg150 2.028 . S
O151 C154 1.250 . S
O152 Mg153 2.028 . S
O152 C154 1.248 . S
Mg153 O152 2.028 . S
Mg153 O158 2.032 . S
Mg153 O160 2.079 . S
C154 O151 1.250 . S
C154 O152 1.248 . S
C155 O156 1.264 . S
C155 O163 1.249 . S
O156 C155 1.264 . S
O157 Mg150 1.986 . S
O157 C161 1.246 . S
O158 Mg153 2.032 . S
O158 C161 1.259 . S
O159 Mg150 2.114 . S
O159 C162 1.252 . S
O160 Mg150 2.251 . S
O160 Mg153 2.079 . S
O160 C162 1.273 . S
C161 O157 1.246 . S
C161 O158 1.259 . S
C162 O159 1.252 . S
C162 O160 1.273 . S
O163 Mg150 2.010 . S
O163 C155 1.249 . S
Mg164 O165 2.028 . S
Mg164 O171 1.986 . S
Mg164 O173 2.114 . S
Mg164 O174 2.251 . S
Mg164 O177 2.010 . S
O165 Mg164 2.028 . S
O165 C168 1.250 . S
O166 Mg167 2.028 . S
O166 C168 1.248 . S
Mg167 O166 2.028 . S
Mg167 O172 2.032 . S
Mg167 O174 2.079 . S
C168 O165 1.250 . S
C168 O166 1.248 . S
C169 O170 1.264 . S
C169 O177 1.249 . S
O170 C169 1.264 . S
O171 Mg164 1.986 . S
O171 C175 1.246 . S
O172 Mg167 2.032 . S
O172 C175 1.259 . S
O173 Mg164 2.114 . S
O173 C176 1.252 . S
O174 Mg164 2.251 . S
O174 Mg167 2.079 . S
O174 C176 1.273 . S
C175 O171 1.246 . S
C175 O172 1.259 . S
C176 O173 1.252 . S
C176 O174 1.273 . S
O177 Mg164 2.010 . S
O177 C169 1.249 . S
Mg178 O179 2.028 . S
Mg178 O185 1.986 . S
Mg178 O187 2.114 . S
Mg178 O188 2.251 . S
Mg178 O191 2.010 . S
O179 Mg178 2.028 . S
O179 C182 1.250 . S
O180 Mg181 2.028 . S
O180 C182 1.248 . S
Mg181 O180 2.028 . S
Mg181 O186 2.032 . S
Mg181 O188 2.079 . S
C182 O179 1.250 . S
C182 O180 1.248 . S
C183 O184 1.264 . S
C183 O191 1.249 . S
O184 C183 1.264 . S
O185 Mg178 1.986 . S
O185 C189 1.246 . S
O186 Mg181 2.032 . S
O186 C189 1.259 . S
O187 Mg178 2.114 . S
O187 C190 1.252 . S
O188 Mg178 2.251 . S
O188 Mg181 2.079 . S
O188 C190 1.273 . S
C189 O185 1.246 . S
C189 O186 1.259 . S
C190 O187 1.252 . S
C190 O188 1.273 . S
O191 Mg178 2.010 . S
O191 C183 1.249 . S
H192 C198 0.930 . S
H193 C201 0.930 . S
H194 C202 0.930 . S
H195 C203 0.930 . S
H196 C206 0.930 . S
H197 C207 0.930 . S
C198 H192 0.930 . S
C198 C199 1.355 . S
C198 C200 1.415 . S
C199 C198 1.355 . S
C199 C201 1.419 . S
C200 C198 1.415 . S
C200 C205 1.425 . S
C200 C207 1.409 . S
C201 H193 0.930 . S
C201 C199 1.419 . S
C201 C202 1.362 . S
C202 H194 0.930 . S
C202 C201 1.362 . S
C202 C205 1.409 . S
C203 H195 0.930 . S
C203 C204 1.355 . S
C203 C205 1.415 . S
C204 C203 1.355 . S
C204 C206 1.419 . S
C205 C200 1.425 . S
C205 C202 1.409 . S
C205 C203 1.415 . S
C206 H196 0.930 . S
C206 C204 1.419 . S
C206 C207 1.362 . S
C207 H197 0.930 . S
C207 C200 1.409 . S
C207 C206 1.362 . S
H208 C214 0.930 . S
H209 C217 0.930 . S
H210 C218 0.930 . S
H211 C219 0.930 . S
H212 C222 0.930 . S
H213 C223 0.930 . S
C214 H208 0.930 . S
C214 C215 1.355 . S
C214 C216 1.415 . S
C215 C214 1.355 . S
C215 C217 1.419 . S
C216 C214 1.415 . S
C216 C221 1.425 . S
C216 C223 1.409 . S
C217 H209 0.930 . S
C217 C215 1.419 . S
C217 C218 1.362 . S
C218 H210 0.930 . S
C218 C217 1.362 . S
C218 C221 1.409 . S
C219 H211 0.930 . S
C219 C220 1.355 . S
C219 C221 1.415 . S
C220 C219 1.355 . S
C220 C222 1.419 . S
C221 C216 1.425 . S
C221 C218 1.409 . S
C221 C219 1.415 . S
C222 H212 0.930 . S
C222 C220 1.419 . S
C222 C223 1.362 . S
C223 H213 0.930 . S
C223 C216 1.409 . S
C223 C222 1.362 . S
H224 C230 0.930 . S
H225 C233 0.930 . S
H226 C234 0.930 . S
H227 C235 0.930 . S
H228 C238 0.930 . S
H229 C239 0.930 . S
C230 H224 0.930 . S
C230 C231 1.355 . S
C230 C232 1.415 . S
C231 C230 1.355 . S
C231 C233 1.419 . S
C232 C230 1.415 . S
C232 C237 1.425 . S
C232 C239 1.409 . S
C233 H225 0.930 . S
C233 C231 1.419 . S
C233 C234 1.362 . S
C234 H226 0.930 . S
C234 C233 1.362 . S
C234 C237 1.409 . S
C235 H227 0.930 . S
C235 C236 1.355 . S
C235 C237 1.415 . S
C236 C235 1.355 . S
C236 C238 1.419 . S
C237 C232 1.425 . S
C237 C234 1.409 . S
C237 C235 1.415 . S
C238 H228 0.930 . S
C238 C236 1.419 . S
C238 C239 1.362 . S
C239 H229 0.930 . S
C239 C232 1.409 . S
C239 C238 1.362 . S
H240 C246 0.930 . S
H241 C249 0.930 . S
H242 C250 0.930 . S
H243 C251 0.930 . S
H244 C254 0.930 . S
H245 C255 0.930 . S
C246 H240 0.930 . S
C246 C247 1.355 . S
C246 C248 1.415 . S
C247 C246 1.355 . S
C247 C249 1.419 . S
C248 C246 1.415 . S
C248 C253 1.425 . S
C248 C255 1.409 . S
C249 H241 0.930 . S
C249 C247 1.419 . S
C249 C250 1.362 . S
C250 H242 0.930 . S
C250 C249 1.362 . S
C250 C253 1.409 . S
C251 H243 0.930 . S
C251 C252 1.355 . S
C251 C253 1.415 . S
C252 C251 1.355 . S
C252 C254 1.419 . S
C253 C248 1.425 . S
C253 C250 1.409 . S
C253 C251 1.415 . S
C254 H244 0.930 . S
C254 C252 1.419 . S
C254 C255 1.362 . S
C255 H245 0.930 . S
C255 C248 1.409 . S
C255 C254 1.362 . S
H256 C262 0.927 . S
H257 C265 0.930 . S
H258 C266 0.930 . S
H259 C267 0.930 . S
H260 C270 0.930 . S
H261 C271 0.930 1_554 S
C262 H256 0.927 . S
C262 C263 1.355 . S
C262 C264 1.415 . S
C263 C262 1.355 . S
C263 C265 1.419 . S
C264 C262 1.415 . S
C264 C269 1.425 . S
C264 C271 1.409 . S
C265 H257 0.930 . S
C265 C263 1.419 . S
C265 C266 1.362 . S
C266 H258 0.930 . S
C266 C265 1.362 . S
C266 C269 1.409 . S
C267 H259 0.930 . S
C267 C268 1.355 . S
C267 C269 1.415 . S
C268 C267 1.355 . S
C268 C270 1.419 . S
C269 C264 1.425 . S
C269 C266 1.409 . S
C269 C267 1.415 . S
C270 H260 0.930 . S
C270 C268 1.419 . S
C270 C271 1.362 . S
C271 H261 0.930 1_556 S
C271 C264 1.409 . S
C271 C270 1.362 . S
H272 C278 0.930 . S
H273 C281 0.930 . S
H274 C282 0.930 . S
H275 C283 0.930 . S
H276 C286 0.930 . S
H277 C287 0.930 . S
C278 H272 0.930 . S
C278 C279 1.355 . S
C278 C280 1.415 . S
C279 C278 1.355 . S
C279 C281 1.419 . S
C280 C278 1.415 . S
C280 C285 1.425 . S
C280 C287 1.409 . S
C281 H273 0.930 . S
C281 C279 1.419 . S
C281 C282 1.362 . S
C282 H274 0.930 . S
C282 C281 1.362 . S
C282 C285 1.409 . S
C283 H275 0.930 . S
C283 C284 1.355 . S
C283 C285 1.415 . S
C284 C283 1.355 . S
C284 C286 1.419 . S
C285 C280 1.425 . S
C285 C282 1.409 . S
C285 C283 1.415 . S
C286 H276 0.930 . S
C286 C284 1.419 . S
C286 C287 1.362 . S
C287 H277 0.930 . S
C287 C280 1.409 . S
C287 C286 1.362 . S
H288 C294 0.930 . S
H289 C297 0.930 . S
H290 C298 0.930 . S
H291 C299 0.930 . S
H292 C302 0.930 . S
H293 C303 0.930 . S
C294 H288 0.930 . S
C294 C295 1.355 . S
C294 C296 1.415 . S
C295 C294 1.355 . S
C295 C297 1.419 . S
C296 C294 1.415 . S
C296 C301 1.425 . S
C296 C303 1.409 . S
C297 H289 0.930 . S
C297 C295 1.419 . S
C297 C298 1.362 . S
C298 H290 0.930 . S
C298 C297 1.362 . S
C298 C301 1.409 . S
C299 H291 0.930 . S
C299 C300 1.355 . S
C299 C301 1.415 . S
C300 C299 1.355 . S
C300 C302 1.419 . S
C301 C296 1.425 . S
C301 C298 1.409 . S
C301 C299 1.415 . S
C302 H292 0.930 . S
C302 C300 1.419 . S
C302 C303 1.362 . S
C303 H293 0.930 . S
C303 C296 1.409 . S
C303 C302 1.362 . S
H304 C310 0.930 . S
H305 C313 0.930 . S
H306 C314 0.930 . S
H307 C315 0.930 . S
H308 C318 0.930 . S
H309 C319 0.930 . S
C310 H304 0.930 . S
C310 C311 1.355 . S
C310 C312 1.415 . S
C311 C310 1.355 . S
C311 C313 1.419 . S
C312 C310 1.415 . S
C312 C317 1.425 . S
C312 C319 1.409 . S
C313 H305 0.930 . S
C313 C311 1.419 . S
C313 C314 1.362 . S
C314 H306 0.930 . S
C314 C313 1.362 . S
C314 C317 1.409 . S
C315 H307 0.930 . S
C315 C316 1.355 . S
C315 C317 1.415 . S
C316 C315 1.355 . S
C316 C318 1.419 . S
C317 C312 1.425 . S
C317 C314 1.409 . S
C317 C315 1.415 . S
C318 H308 0.930 . S
C318 C316 1.419 . S
C318 C319 1.362 . S
C319 H309 0.930 . S
C319 C312 1.409 . S
C319 C318 1.362 . S
H320 C326 0.930 . S
H321 C329 0.930 . S
H322 C330 0.930 . S
H323 C331 0.930 . S
H324 C334 0.930 . S
H325 C335 0.930 . S
C326 H320 0.930 . S
C326 C327 1.355 . S
C326 C328 1.415 . S
C327 C326 1.355 . S
C327 C329 1.419 . S
C328 C326 1.415 . S
C328 C333 1.425 . S
C328 C335 1.409 . S
C329 H321 0.930 . S
C329 C327 1.419 . S
C329 C330 1.362 . S
C330 H322 0.930 . S
C330 C329 1.362 . S
C330 C333 1.409 . S
C331 H323 0.930 . S
C331 C332 1.355 . S
C331 C333 1.415 . S
C332 C331 1.355 . S
C332 C334 1.419 . S
C333 C328 1.425 . S
C333 C330 1.409 . S
C333 C331 1.415 . S
C334 H324 0.930 . S
C334 C332 1.419 . S
C334 C335 1.362 . S
C335 H325 0.930 . S
C335 C328 1.409 . S
C335 C334 1.362 . S
H336 C342 0.930 . S
H337 C345 0.930 . S
H338 C346 0.930 1_556 S
H339 C347 0.930 . S
H340 C350 0.930 . S
H341 C351 0.930 . S
C342 H336 0.930 . S
C342 C343 1.355 . S
C342 C344 1.415 . S
C343 C342 1.355 . S
C343 C345 1.419 1_554 S
C344 C342 1.415 . S
C344 C349 1.425 . S
C344 C351 1.409 . S
C345 H337 0.930 . S
C345 C343 1.419 1_556 S
C345 C346 1.362 1_556 S
C346 H338 0.930 1_554 S
C346 C345 1.362 1_554 S
C346 C349 1.409 . S
C347 H339 0.930 . S
C347 C348 1.355 . S
C347 C349 1.415 . S
C348 C347 1.355 . S
C348 C350 1.419 . S
C349 C344 1.425 . S
C349 C346 1.409 . S
C349 C347 1.415 . S
C350 H340 0.930 . S
C350 C348 1.419 . S
C350 C351 1.362 . S
C351 H341 0.930 . S
C351 C344 1.409 . S
C351 C350 1.362 . S
H352 C358 0.930 . S
H353 C361 0.930 . S
H354 C362 0.930 . S
H355 C363 0.930 . S
H356 C366 0.930 . S
H357 C367 0.930 . S
C358 H352 0.930 . S
C358 C359 1.355 . S
C358 C360 1.415 . S
C359 C358 1.355 . S
C359 C361 1.419 . S
C360 C358 1.415 . S
C360 C365 1.425 . S
C360 C367 1.409 . S
C361 H353 0.930 . S
C361 C359 1.419 . S
C361 C362 1.362 . S
C362 H354 0.930 . S
C362 C361 1.362 . S
C362 C365 1.409 . S
C363 H355 0.930 . S
C363 C364 1.355 . S
C363 C365 1.415 . S
C364 C363 1.355 . S
C364 C366 1.419 . S
C365 C360 1.425 . S
C365 C362 1.409 . S
C365 C363 1.415 . S
C366 H356 0.930 . S
C366 C364 1.419 . S
C366 C367 1.362 . S
C367 H357 0.930 . S
C367 C360 1.409 . S
C367 C366 1.362 . S
H368 C374 0.930 . S
H369 C377 0.930 . S
H370 C378 0.930 . S
H371 C379 0.930 . S
H372 C382 0.930 . S
H373 C383 0.930 . S
C374 H368 0.930 . S
C374 C375 1.355 . S
C374 C376 1.415 . S
C375 C374 1.355 . S
C375 C377 1.419 . S
C376 C374 1.415 . S
C376 C381 1.425 . S
C376 C383 1.409 . S
C377 H369 0.930 . S
C377 C375 1.419 . S
C377 C378 1.362 . S
C378 H370 0.930 . S
C378 C377 1.362 . S
C378 C381 1.409 . S
C379 H371 0.930 . S
C379 C380 1.355 . S
C379 C381 1.415 . S
C380 C379 1.355 . S
C380 C382 1.419 . S
C381 C376 1.425 . S
C381 C378 1.409 . S
C381 C379 1.415 . S
C382 H372 0.930 . S
C382 C380 1.419 . S
C382 C383 1.362 . S
C383 H373 0.930 . S
C383 C376 1.409 . S
C383 C382 1.362 . S
H384 C390 0.930 . S
H385 C393 0.930 . S
H386 C394 0.930 . S
H387 C395 0.930 . S
H388 C398 0.930 . S
H389 C399 0.930 . S
C390 H384 0.930 . S
C390 C391 1.355 . S
C390 C392 1.415 . S
C391 C390 1.355 . S
C391 C393 1.419 . S
C392 C390 1.415 . S
C392 C397 1.425 . S
C392 C399 1.409 . S
C393 H385 0.930 . S
C393 C391 1.419 . S
C393 C394 1.362 . S
C394 H386 0.930 . S
C394 C393 1.362 . S
C394 C397 1.409 . S
C395 H387 0.930 . S
C395 C396 1.355 . S
C395 C397 1.415 . S
C396 C395 1.355 . S
C396 C398 1.419 . S
C397 C392 1.425 . S
C397 C394 1.409 . S
C397 C395 1.415 . S
C398 H388 0.930 . S
C398 C396 1.419 . S
C398 C399 1.362 . S
C399 H389 0.930 . S
C399 C392 1.409 . S
C399 C398 1.362 . S
H400 C406 0.930 . S
H401 C409 0.930 . S
H402 C410 0.930 . S
H403 C411 0.930 . S
H404 C414 0.930 . S
H405 C415 0.930 . S
C406 H400 0.930 . S
C406 C407 1.355 . S
C406 C408 1.415 . S
C407 C406 1.355 . S
C407 C409 1.419 . S
C408 C406 1.415 . S
C408 C413 1.425 . S
C408 C415 1.409 . S
C409 H401 0.930 . S
C409 C407 1.419 . S
C409 C410 1.362 . S
C410 H402 0.930 . S
C410 C409 1.362 . S
C410 C413 1.409 . S
C411 H403 0.930 . S
C411 C412 1.355 . S
C411 C413 1.415 . S
C412 C411 1.355 . S
C412 C414 1.419 . S
C413 C408 1.425 . S
C413 C410 1.409 . S
C413 C411 1.415 . S
C414 H404 0.930 . S
C414 C412 1.419 . S
C414 C415 1.362 . S
C415 H405 0.930 . S
C415 C408 1.409 . S
C415 C414 1.362 . S
H416 C422 0.930 . S
H417 C425 0.930 . S
H418 C426 0.930 . S
H419 C427 0.930 . S
H420 C430 0.930 . S
H421 C431 0.930 . S
C422 H416 0.930 . S
C422 C423 1.355 . S
C422 C424 1.415 . S
C423 C422 1.355 . S
C423 C425 1.419 . S
C424 C422 1.415 . S
C424 C429 1.425 . S
C424 C431 1.409 . S
C425 H417 0.930 . S
C425 C423 1.419 . S
C425 C426 1.362 . S
C426 H418 0.930 . S
C426 C425 1.362 . S
C426 C429 1.409 . S
C427 H419 0.930 . S
C427 C428 1.355 . S
C427 C429 1.415 . S
C428 C427 1.355 . S
C428 C430 1.419 . S
C429 C424 1.425 . S
C429 C426 1.409 . S
C429 C427 1.415 . S
C430 H420 0.930 . S
C430 C428 1.419 . S
C430 C431 1.362 . S
C431 H421 0.930 . S
C431 C424 1.409 . S
C431 C430 1.362 . S
H432 C438 0.930 . S
H433 C441 0.930 . S
H434 C442 0.930 . S
H435 C443 0.930 1_554 S
H436 C446 0.930 . S
H437 C447 0.930 . S
C438 H432 0.930 . S
C438 C439 1.355 . S
C438 C440 1.415 . S
C439 C438 1.355 . S
C439 C441 1.419 . S
C440 C438 1.415 . S
C440 C445 1.425 . S
C440 C447 1.409 . S
C441 H433 0.930 . S
C441 C439 1.419 . S
C441 C442 1.362 . S
C442 H434 0.930 . S
C442 C441 1.362 . S
C442 C445 1.409 . S
C443 H435 0.930 1_556 S
C443 C444 1.355 . S
C443 C445 1.415 . S
C444 C443 1.355 . S
C444 C446 1.419 . S
C445 C440 1.425 . S
C445 C442 1.409 . S
C445 C443 1.415 . S
C446 H436 0.930 . S
C446 C444 1.419 . S
C446 C447 1.362 . S
C447 H437 0.930 . S
C447 C440 1.409 . S
C447 C446 1.362 . S
H448 C454 0.930 . S
H449 C457 0.930 . S
H450 C458 0.930 . S
H451 C459 0.930 . S
H452 C462 0.930 . S
H453 C463 0.930 . S
C454 H448 0.930 . S
C454 C455 1.355 . S
C454 C456 1.415 . S
C455 C454 1.355 . S
C455 C457 1.419 . S
C456 C454 1.415 . S
C456 C461 1.425 . S
C456 C463 1.409 . S
C457 H449 0.930 . S
C457 C455 1.419 . S
C457 C458 1.362 . S
C458 H450 0.930 . S
C458 C457 1.362 . S
C458 C461 1.409 . S
C459 H451 0.930 . S
C459 C460 1.355 . S
C459 C461 1.415 . S
C460 C459 1.355 . S
C460 C462 1.419 . S
C461 C456 1.425 . S
C461 C458 1.409 . S
C461 C459 1.415 . S
C462 H452 0.930 . S
C462 C460 1.419 . S
C462 C463 1.362 . S
C463 H453 0.930 . S
C463 C456 1.409 . S
C463 C462 1.362 . S
H464 C470 0.930 . S
H465 C473 0.930 . S
H466 C474 0.930 . S
H467 C475 0.930 . S
H468 C478 0.930 . S
H469 C479 0.930 . S
C470 H464 0.930 . S
C470 C471 1.355 . S
C470 C472 1.415 . S
C471 C470 1.355 . S
C471 C473 1.419 . S
C472 C470 1.415 . S
C472 C477 1.425 . S
C472 C479 1.409 . S
C473 H465 0.930 . S
C473 C471 1.419 . S
C473 C474 1.362 . S
C474 H466 0.930 . S
C474 C473 1.362 . S
C474 C477 1.409 . S
C475 H467 0.930 . S
C475 C476 1.355 . S
C475 C477 1.415 . S
C476 C475 1.355 . S
C476 C478 1.419 . S
C477 C472 1.425 . S
C477 C474 1.409 . S
C477 C475 1.415 . S
C478 H468 0.930 . S
C478 C476 1.419 . S
C478 C479 1.362 . S
C479 H469 0.930 . S
C479 C472 1.409 . S
C479 C478 1.362 . S
H480 C486 0.930 . S
H481 C489 0.930 . S
H482 C490 0.930 . S
H483 C491 0.930 . S
H484 C494 0.930 . S
H485 C495 0.930 . S
C486 H480 0.930 . S
C486 C487 1.355 . S
C486 C488 1.415 . S
C487 C486 1.355 . S
C487 C489 1.419 . S
C488 C486 1.415 . S
C488 C493 1.425 . S
C488 C495 1.409 . S
C489 H481 0.930 . S
C489 C487 1.419 . S
C489 C490 1.362 . S
C490 H482 0.930 . S
C490 C489 1.362 . S
C490 C493 1.409 . S
C491 H483 0.930 . S
C491 C492 1.355 . S
C491 C493 1.415 . S
C492 C491 1.355 . S
C492 C494 1.419 . S
C493 C488 1.425 . S
C493 C490 1.409 . S
C493 C491 1.415 . S
C494 H484 0.930 . S
C494 C492 1.419 . S
C494 C495 1.362 . S
C495 H485 0.930 . S
C495 C488 1.409 . S
C495 C494 1.362 . S
H496 C502 0.930 . S
H497 C505 0.930 . S
H498 C506 0.930 . S
H499 C507 0.930 . S
H500 C510 0.930 . S
H501 C511 0.930 . S
C502 H496 0.930 . S
C502 C503 1.355 . S
C502 C504 1.415 . S
C503 C502 1.355 . S
C503 C505 1.419 . S
C504 C502 1.415 . S
C504 C509 1.425 . S
C504 C511 1.409 . S
C505 H497 0.930 . S
C505 C503 1.419 . S
C505 C506 1.362 . S
C506 H498 0.930 . S
C506 C505 1.362 . S
C506 C509 1.409 . S
C507 H499 0.930 . S
C507 C508 1.355 . S
C507 C509 1.415 . S
C508 C507 1.355 . S
C508 C510 1.419 . S
C509 C504 1.425 . S
C509 C506 1.409 . S
C509 C507 1.415 . S
C510 H500 0.930 . S
C510 C508 1.419 . S
C510 C511 1.362 . S
C511 H501 0.930 . S
C511 C504 1.409 . S
C511 C510 1.362 . S
H512 C518 0.930 . S
H513 C521 0.930 . S
H514 C522 0.930 . S
H515 C523 0.930 . S
H516 C526 0.930 . S
H517 C527 0.930 . S
C518 H512 0.930 . S
C518 C519 1.355 . S
C518 C520 1.415 . S
C519 C518 1.355 . S
C519 C521 1.419 . S
C520 C518 1.415 . S
C520 C525 1.425 . S
C520 C527 1.409 . S
C521 H513 0.930 . S
C521 C519 1.419 . S
C521 C522 1.362 . S
C522 H514 0.930 . S
C522 C521 1.362 . S
C522 C525 1.409 . S
C523 H515 0.930 . S
C523 C524 1.355 . S
C523 C525 1.415 . S
C524 C523 1.355 . S
C524 C526 1.419 . S
C525 C520 1.425 . S
C525 C522 1.409 . S
C525 C523 1.415 . S
C526 H516 0.930 . S
C526 C524 1.419 . S
C526 C527 1.362 . S
C527 H517 0.930 . S
C527 C520 1.409 . S
C527 C526 1.362 . S
H528 C534 0.930 . S
H529 C537 0.930 . S
H530 C538 0.930 . S
H531 C539 0.930 . S
H532 C542 0.930 . S
H533 C543 0.930 . S
C534 H528 0.930 . S
C534 C535 1.355 . S
C534 C536 1.415 . S
C535 C534 1.355 . S
C535 C537 1.419 . S
C536 C534 1.415 . S
C536 C541 1.425 . S
C536 C543 1.409 . S
C537 H529 0.930 . S
C537 C535 1.419 . S
C537 C538 1.362 . S
C538 H530 0.930 . S
C538 C537 1.362 . S
C538 C541 1.409 . S
C539 H531 0.930 . S
C539 C540 1.355 . S
C539 C541 1.415 . S
C540 C539 1.355 . S
C540 C542 1.419 . S
C541 C536 1.425 . S
C541 C538 1.409 . S
C541 C539 1.415 . S
C542 H532 0.930 . S
C542 C540 1.419 . S
C542 C543 1.362 . S
C543 H533 0.930 . S
C543 C536 1.409 . S
C543 C542 1.362 . S
H544 C550 0.930 . S
H545 C553 0.930 . S
H546 C554 0.930 . S
H547 C555 0.930 . S
H548 C558 0.930 . S
H549 C559 0.930 . S
C550 H544 0.930 . S
C550 C551 1.355 . S
C550 C552 1.415 . S
C551 C550 1.355 . S
C551 C553 1.419 . S
C552 C550 1.415 . S
C552 C557 1.425 . S
C552 C559 1.409 1_554 S
C553 H545 0.930 . S
C553 C551 1.419 . S
C553 C554 1.362 . S
C554 H546 0.930 . S
C554 C553 1.362 . S
C554 C557 1.409 . S
C555 H547 0.930 . S
C555 C556 1.355 . S
C555 C557 1.415 1_556 S
C556 C555 1.355 . S
C556 C558 1.419 . S
C557 C552 1.425 . S
C557 C554 1.409 . S
C557 C555 1.415 1_554 S
C558 H548 0.930 . S
C558 C556 1.419 . S
C558 C559 1.362 . S
C559 H549 0.930 . S
C559 C552 1.409 1_556 S
C559 C558 1.362 . S
H560 C566 0.930 . S
H561 C569 0.930 . S
H562 C570 0.930 . S
H563 C571 0.930 . S
H564 C574 0.930 . S
H565 C575 0.930 . S
C566 H560 0.930 . S
C566 C567 1.355 . S
C566 C568 1.415 . S
C567 C566 1.355 . S
C567 C569 1.419 . S
C568 C566 1.415 . S
C568 C573 1.425 . S
C568 C575 1.409 . S
C569 H561 0.930 . S
C569 C567 1.419 . S
C569 C570 1.362 . S
C570 H562 0.930 . S
C570 C569 1.362 . S
C570 C573 1.409 . S
C571 H563 0.930 . S
C571 C572 1.355 . S
C571 C573 1.415 . S
C572 C571 1.355 . S
C572 C574 1.419 . S
C573 C568 1.425 . S
C573 C570 1.409 . S
C573 C571 1.415 . S
C574 H564 0.930 . S
C574 C572 1.419 . S
C574 C575 1.362 . S
C575 H565 0.930 . S
C575 C568 1.409 . S
C575 C574 1.362 . S
C204 C183 1.247 . S
C199 C8 1.453 . S
C215 C26 1.518 . S
C220 C113 1.371 . S
C231 C50 1.432 . S
C236 C133 1.527 . S
C247 C68 1.446 . S
C252 C147 1.446 . S
C268 C155 1.312 . S
C263 C80 1.469 . S
C279 C104 1.481 . S
C284 C169 1.339 . S
C295 C32 1.457 . S
C300 C127 1.265 . S
C311 C44 1.410 . S
C316 C141 1.191 . S
C327 C62 1.427 . S
C332 C161 1.426 . S
C348 C175 1.494 . S
C343 C86 1.397 1_554 S
C364 C189 1.459 . S
C359 C98 1.481 . S
C380 C119 1.505 . S
C375 C14 1.457 . S
C391 C7 1.466 . S
C396 C126 1.475 . S
C407 C25 1.435 . S
C412 C140 1.445 . S
C428 C162 1.482 . S
C423 C52 1.402 . S
C439 C70 1.469 . S
C444 C176 1.490 1_556 S
C460 C190 1.443 . S
C455 C79 1.356 . S
C476 C120 1.447 . S
C471 C106 1.429 . S
C492 C182 1.472 . S
C487 C34 1.464 . S
C503 C43 1.465 . S
C508 C112 1.484 . S
C524 C134 1.469 . S
C519 C61 1.435 . S
C535 C88 1.402 . S
C540 C148 1.466 . S
C551 C97 1.463 . S
C556 C154 1.469 . S
C567 C16 1.435 . S
C572 C168 1.450 . S
